# Generated by pormake.
# Topology fgl, (4,4)-cn, num edge types: 1
# Building blocks:
#     Node 0, Type 0, BuildingBlock: ESEHIV_clean_sbu_0, # of connection points: 4
#     Node 1, Type 0, BuildingBlock: ESEHIV_clean_sbu_0, # of connection points: 4
#     Node 2, Type 0, BuildingBlock: ESEHIV_clean_sbu_0, # of connection points: 4
#     Node 3, Type 0, BuildingBlock: ESEHIV_clean_sbu_0, # of connection points: 4
#     Node 4, Type 0, BuildingBlock: ESEHIV_clean_sbu_0, # of connection points: 4
#     Node 5, Type 0, BuildingBlock: ESEHIV_clean_sbu_0, # of connection points: 4
#     Node 6, Type 0, BuildingBlock: ESEHIV_clean_sbu_0, # of connection points: 4
#     Node 7, Type 0, BuildingBlock: ESEHIV_clean_sbu_0, # of connection points: 4
#     Node 8, Type 0, BuildingBlock: ESEHIV_clean_sbu_0, # of connection points: 4
#     Node 9, Type 0, BuildingBlock: ESEHIV_clean_sbu_0, # of connection points: 4
#     Node 10, Type 0, BuildingBlock: ESEHIV_clean_sbu_0, # of connection points: 4
#     Node 11, Type 0, BuildingBlock: ESEHIV_clean_sbu_0, # of connection points: 4
#     Node 12, Type 0, BuildingBlock: ESEHIV_clean_sbu_0, # of connection points: 4
#     Node 13, Type 0, BuildingBlock: ESEHIV_clean_sbu_0, # of connection points: 4
#     Node 14, Type 0, BuildingBlock: ESEHIV_clean_sbu_0, # of connection points: 4
#     Node 15, Type 0, BuildingBlock: ESEHIV_clean_sbu_0, # of connection points: 4
#     Node 16, Type 0, BuildingBlock: ESEHIV_clean_sbu_0, # of connection points: 4
#     Node 17, Type 0, BuildingBlock: ESEHIV_clean_sbu_0, # of connection points: 4
#     Node 18, Type 1, BuildingBlock: KUFVIS_clean_sbu_0, # of connection points: 4
#     Node 19, Type 1, BuildingBlock: KUFVIS_clean_sbu_0, # of connection points: 4
#     Node 20, Type 1, BuildingBlock: KUFVIS_clean_sbu_0, # of connection points: 4
#     Node 21, Type 1, BuildingBlock: KUFVIS_clean_sbu_0, # of connection points: 4
#     Node 22, Type 1, BuildingBlock: KUFVIS_clean_sbu_0, # of connection points: 4
#     Node 23, Type 1, BuildingBlock: KUFVIS_clean_sbu_0, # of connection points: 4
#     Node 24, Type 1, BuildingBlock: KUFVIS_clean_sbu_0, # of connection points: 4
#     Node 25, Type 1, BuildingBlock: KUFVIS_clean_sbu_0, # of connection points: 4
#     Node 26, Type 1, BuildingBlock: KUFVIS_clean_sbu_0, # of connection points: 4
#     Node 27, Type 1, BuildingBlock: KUFVIS_clean_sbu_0, # of connection points: 4
#     Node 28, Type 1, BuildingBlock: KUFVIS_clean_sbu_0, # of connection points: 4
#     Node 29, Type 1, BuildingBlock: KUFVIS_clean_sbu_0, # of connection points: 4
#     Node 30, Type 1, BuildingBlock: KUFVIS_clean_sbu_0, # of connection points: 4
#     Node 31, Type 1, BuildingBlock: KUFVIS_clean_sbu_0, # of connection points: 4
#     Node 32, Type 1, BuildingBlock: KUFVIS_clean_sbu_0, # of connection points: 4
#     Node 33, Type 1, BuildingBlock: KUFVIS_clean_sbu_0, # of connection points: 4
#     Node 34, Type 1, BuildingBlock: KUFVIS_clean_sbu_0, # of connection points: 4
#     Node 35, Type 1, BuildingBlock: KUFVIS_clean_sbu_0, # of connection points: 4
#     Edge 36, Type (0, 1), BuildingBlock: ZUJKAS_clean_linker_0, # of connection points: 2
#     Edge 37, Type (0, 1), BuildingBlock: ZUJKAS_clean_linker_0, # of connection points: 2
#     Edge 38, Type (0, 1), BuildingBlock: ZUJKAS_clean_linker_0, # of connection points: 2
#     Edge 39, Type (0, 1), BuildingBlock: ZUJKAS_clean_linker_0, # of connection points: 2
#     Edge 40, Type (0, 1), BuildingBlock: ZUJKAS_clean_linker_0, # of connection points: 2
#     Edge 41, Type (0, 1), BuildingBlock: ZUJKAS_clean_linker_0, # of connection points: 2
#     Edge 42, Type (0, 1), BuildingBlock: ZUJKAS_clean_linker_0, # of connection points: 2
#     Edge 43, Type (0, 1), BuildingBlock: ZUJKAS_clean_linker_0, # of connection points: 2
#     Edge 44, Type (0, 1), BuildingBlock: ZUJKAS_clean_linker_0, # of connection points: 2
#     Edge 45, Type (0, 1), BuildingBlock: ZUJKAS_clean_linker_0, # of connection points: 2
#     Edge 46, Type (0, 1), BuildingBlock: ZUJKAS_clean_linker_0, # of connection points: 2
#     Edge 47, Type (0, 1), BuildingBlock: ZUJKAS_clean_linker_0, # of connection points: 2
#     Edge 48, Type (0, 1), BuildingBlock: ZUJKAS_clean_linker_0, # of connection points: 2
#     Edge 49, Type (0, 1), BuildingBlock: ZUJKAS_clean_linker_0, # of connection points: 2
#     Edge 50, Type (0, 1), BuildingBlock: ZUJKAS_clean_linker_0, # of connection points: 2
#     Edge 51, Type (0, 1), BuildingBlock: ZUJKAS_clean_linker_0, # of connection points: 2
#     Edge 52, Type (0, 1), BuildingBlock: ZUJKAS_clean_linker_0, # of connection points: 2
#     Edge 53, Type (0, 1), BuildingBlock: ZUJKAS_clean_linker_0, # of connection points: 2
#     Edge 54, Type (0, 1), BuildingBlock: ZUJKAS_clean_linker_0, # of connection points: 2
#     Edge 55, Type (0, 1), BuildingBlock: ZUJKAS_clean_linker_0, # of connection points: 2
#     Edge 56, Type (0, 1), BuildingBlock: ZUJKAS_clean_linker_0, # of connection points: 2
#     Edge 57, Type (0, 1), BuildingBlock: ZUJKAS_clean_linker_0, # of connection points: 2
#     Edge 58, Type (0, 1), BuildingBlock: ZUJKAS_clean_linker_0, # of connection points: 2
#     Edge 59, Type (0, 1), BuildingBlock: ZUJKAS_clean_linker_0, # of connection points: 2
#     Edge 60, Type (0, 1), BuildingBlock: ZUJKAS_clean_linker_0, # of connection points: 2
#     Edge 61, Type (0, 1), BuildingBlock: ZUJKAS_clean_linker_0, # of connection points: 2
#     Edge 62, Type (0, 1), BuildingBlock: ZUJKAS_clean_linker_0, # of connection points: 2
#     Edge 63, Type (0, 1), BuildingBlock: ZUJKAS_clean_linker_0, # of connection points: 2
#     Edge 64, Type (0, 1), BuildingBlock: ZUJKAS_clean_linker_0, # of connection points: 2
#     Edge 65, Type (0, 1), BuildingBlock: ZUJKAS_clean_linker_0, # of connection points: 2
#     Edge 66, Type (0, 1), BuildingBlock: ZUJKAS_clean_linker_0, # of connection points: 2
#     Edge 67, Type (0, 1), BuildingBlock: ZUJKAS_clean_linker_0, # of connection points: 2
#     Edge 68, Type (0, 1), BuildingBlock: ZUJKAS_clean_linker_0, # of connection points: 2
#     Edge 69, Type (0, 1), BuildingBlock: ZUJKAS_clean_linker_0, # of connection points: 2
#     Edge 70, Type (0, 1), BuildingBlock: ZUJKAS_clean_linker_0, # of connection points: 2
#     Edge 71, Type (0, 1), BuildingBlock: ZUJKAS_clean_linker_0, # of connection points: 2
#     Edge 72, Type (0, 1), BuildingBlock: ZUJKAS_clean_linker_0, # of connection points: 2
#     Edge 73, Type (0, 1), BuildingBlock: ZUJKAS_clean_linker_0, # of connection points: 2
#     Edge 74, Type (0, 1), BuildingBlock: ZUJKAS_clean_linker_0, # of connection points: 2
#     Edge 75, Type (0, 1), BuildingBlock: ZUJKAS_clean_linker_0, # of connection points: 2
#     Edge 76, Type (0, 1), BuildingBlock: ZUJKAS_clean_linker_0, # of connection points: 2
#     Edge 77, Type (0, 1), BuildingBlock: ZUJKAS_clean_linker_0, # of connection points: 2
#     Edge 78, Type (0, 1), BuildingBlock: ZUJKAS_clean_linker_0, # of connection points: 2
#     Edge 79, Type (0, 1), BuildingBlock: ZUJKAS_clean_linker_0, # of connection points: 2
#     Edge 80, Type (0, 1), BuildingBlock: ZUJKAS_clean_linker_0, # of connection points: 2
#     Edge 81, Type (0, 1), BuildingBlock: ZUJKAS_clean_linker_0, # of connection points: 2
#     Edge 82, Type (0, 1), BuildingBlock: ZUJKAS_clean_linker_0, # of connection points: 2
#     Edge 83, Type (0, 1), BuildingBlock: ZUJKAS_clean_linker_0, # of connection points: 2
#     Edge 84, Type (0, 1), BuildingBlock: ZUJKAS_clean_linker_0, # of connection points: 2
#     Edge 85, Type (0, 1), BuildingBlock: ZUJKAS_clean_linker_0, # of connection points: 2
#     Edge 86, Type (0, 1), BuildingBlock: ZUJKAS_clean_linker_0, # of connection points: 2
#     Edge 87, Type (0, 1), BuildingBlock: ZUJKAS_clean_linker_0, # of connection points: 2
#     Edge 88, Type (0, 1), BuildingBlock: ZUJKAS_clean_linker_0, # of connection points: 2
#     Edge 89, Type (0, 1), BuildingBlock: ZUJKAS_clean_linker_0, # of connection points: 2
#     Edge 90, Type (0, 1), BuildingBlock: ZUJKAS_clean_linker_0, # of connection points: 2
#     Edge 91, Type (0, 1), BuildingBlock: ZUJKAS_clean_linker_0, # of connection points: 2
#     Edge 92, Type (0, 1), BuildingBlock: ZUJKAS_clean_linker_0, # of connection points: 2
#     Edge 93, Type (0, 1), BuildingBlock: ZUJKAS_clean_linker_0, # of connection points: 2
#     Edge 94, Type (0, 1), BuildingBlock: ZUJKAS_clean_linker_0, # of connection points: 2
#     Edge 95, Type (0, 1), BuildingBlock: ZUJKAS_clean_linker_0, # of connection points: 2
#     Edge 96, Type (0, 1), BuildingBlock: ZUJKAS_clean_linker_0, # of connection points: 2
#     Edge 97, Type (0, 1), BuildingBlock: ZUJKAS_clean_linker_0, # of connection points: 2
#     Edge 98, Type (0, 1), BuildingBlock: ZUJKAS_clean_linker_0, # of connection points: 2
#     Edge 99, Type (0, 1), BuildingBlock: ZUJKAS_clean_linker_0, # of connection points: 2
#     Edge 100, Type (0, 1), BuildingBlock: ZUJKAS_clean_linker_0, # of connection points: 2
#     Edge 101, Type (0, 1), BuildingBlock: ZUJKAS_clean_linker_0, # of connection points: 2
#     Edge 102, Type (0, 1), BuildingBlock: ZUJKAS_clean_linker_0, # of connection points: 2
#     Edge 103, Type (0, 1), BuildingBlock: ZUJKAS_clean_linker_0, # of connection points: 2
#     Edge 104, Type (0, 1), BuildingBlock: ZUJKAS_clean_linker_0, # of connection points: 2
#     Edge 105, Type (0, 1), BuildingBlock: ZUJKAS_clean_linker_0, # of connection points: 2
#     Edge 106, Type (0, 1), BuildingBlock: ZUJKAS_clean_linker_0, # of connection points: 2
#     Edge 107, Type (0, 1), BuildingBlock: ZUJKAS_clean_linker_0, # of connection points: 2
# Relax obj value: 0.014
# Max RMSD: 0.133
# Mean RMSD: 0.071
data_MOF--net-fgl--node1-ESEHIV_clean_sbu_0--node2-KUFVIS_clean_sbu_0--edge1-ZUJKAS_clean_linker_0
_symmetry_space_group_name_H-M    P1
_symmetry_Int_Tables_number       1
_symmetry_cell_setting            triclinic
loop_
_symmetry_equiv_pos_as_xyz
'x, y, z'
_cell_length_a     95.65022
_cell_length_b     98.411158
_cell_length_c     65.277942
_cell_angle_alpha  89.620982
_cell_angle_beta   89.609517
_cell_angle_gamma 119.9702
loop_
_atom_site_label
_atom_site_type_symbol
_atom_site_fract_x
_atom_site_fract_y
_atom_site_fract_z
_atom_type_partial_charge
Cu0 Cu 0.02999 0.55107 0.01247 0.0
N1 N 0.01761 0.55044 0.03539 0.0
N2 N 0.01076 0.55859 0.06393 0.0
C3 C 0.02175 0.56236 0.04858 0.0
C4 C 0.99919 0.54366 0.05999 0.0
C5 C 1.00345 0.5387 0.04247 0.0
O6 O 0.04021 0.57258 1.00277 0.0
C7 C 0.04931 0.54365 0.03841 0.0
O8 O 0.04447 0.54914 0.05347 0.0
H9 H 0.03285 0.57346 0.04708 0.0
H10 H 0.99672 0.52732 0.03543 0.0
N11 N 0.01766 0.53721 0.99159 0.0
N12 N 0.01189 0.52168 0.96413 0.0
C13 C 0.02314 0.53053 0.9781 0.0
C14 C 1.00239 0.5324 0.98608 0.0
C15 C 0.99879 0.52282 0.96922 0.0
C16 C 0.0404 0.57673 0.98424 0.0
O17 O 0.03576 0.56618 0.96977 0.0
H18 H 0.03523 0.53226 0.97852 0.0
H19 H 0.99453 0.53584 0.99356 0.0
O20 O 0.04541 0.54471 0.02013 0.0
H21 H 0.98832 0.53672 0.06898 0.0
H22 H 0.9875 0.51747 0.96106 0.0
Cu23 Cu 0.52023 0.55377 0.01735 0.0
N24 N 0.51838 0.56252 0.99263 0.0
N25 N 0.52632 0.57451 0.96192 0.0
C26 C 0.53098 0.57249 0.98069 0.0
C27 C 0.51006 0.56548 0.96222 0.0
C28 C 0.50524 0.55801 0.98105 0.0
O29 O 0.5414 0.56977 0.02838 0.0
C30 C 0.51055 0.52064 0.02181 0.0
O31 O 0.51176 0.52301 0.04163 0.0
H32 H 0.54339 0.57754 0.98544 0.0
H33 H 0.49313 0.54909 0.98539 0.0
N34 N 0.50413 0.55065 0.0366 0.0
N35 N 0.48958 0.54257 0.06576 0.0
C36 C 0.5037 0.54631 0.05634 0.0
C37 C 0.48995 0.55009 0.03356 0.0
C38 C 0.48097 0.54514 0.0515 0.0
C39 C 0.54167 0.58213 0.03508 0.0
O40 O 0.52816 0.58256 0.03497 0.0
H41 H 0.51339 0.54542 0.06346 0.0
H42 H 0.48607 0.55245 0.01914 0.0
O43 O 0.51574 0.53247 1.00964 0.0
H44 H 0.50226 0.56354 0.94931 0.0
H45 H 0.46871 0.54276 0.0535 0.0
Cu46 Cu 0.53094 0.05667 0.02263 0.0
N47 N 0.53335 0.06828 0.99888 0.0
N48 N 0.52797 0.07288 0.96724 0.0
C49 C 0.52196 0.06431 0.98455 0.0
C50 C 0.54379 0.08263 0.9707 0.0
C51 C 0.54707 0.07979 0.99034 0.0
O52 O 0.50788 0.04295 0.02773 0.0
C53 C 0.55875 0.05453 0.02092 0.0
O54 O 0.56474 0.06884 0.02787 0.0
H55 H 0.50977 0.05454 0.9862 0.0
H56 H 0.55879 0.0851 0.99743 0.0
N57 N 0.53928 0.06947 0.04546 0.0
N58 N 0.55147 0.07725 0.07567 0.0
C59 C 0.54332 0.06507 0.06295 0.0
C60 C 0.5447 0.08492 0.04724 0.0
C61 C 0.5522 0.08975 0.06592 0.0
C62 C 0.50003 0.05023 0.02957 0.0
O63 O 0.508 0.06562 0.02799 0.0
H64 H 0.54103 0.05328 0.06571 0.0
H65 H 0.54402 0.09227 0.03535 0.0
O66 O 0.54362 0.04635 0.01769 0.0
H67 H 0.5524 0.09081 0.95962 0.0
H68 H 0.55857 0.10172 0.07128 0.0
Cu69 Cu 0.51807 0.03963 0.51309 0.0
N70 N 0.51578 0.0305 0.4874 0.0
N71 N 0.52347 0.0254 0.45743 0.0
C72 C 0.52823 0.03207 0.47591 0.0
C73 C 0.50736 0.01947 0.45711 0.0
C74 C 0.50261 0.02257 0.47573 0.0
O75 O 0.53961 0.04432 0.52293 0.0
C76 C 0.49715 0.05146 0.50888 0.0
O77 O 0.48711 0.03628 0.50975 0.0
H78 H 0.54068 0.03857 0.4807 0.0
H79 H 0.49049 0.01956 0.48021 0.0
N80 N 0.5035 0.02542 0.53229 0.0
N81 N 0.48936 0.01753 0.56154 0.0
C82 C 0.50165 0.02951 0.55127 0.0
C83 C 0.49208 0.01025 0.53042 0.0
C84 C 0.48326 1.00535 0.54849 0.0
C85 C 0.54081 0.03193 0.52429 0.0
O86 O 0.52812 0.01847 0.51957 0.0
H87 H 0.50866 0.04133 0.55697 0.0
H88 H 0.49 1.00342 0.51669 0.0
O89 O 0.51234 0.05641 0.51 0.0
H90 H 0.49963 0.0135 0.4443 0.0
H91 H 0.47298 0.99385 0.55162 0.0
Cu92 Cu 0.0305 0.55743 0.5241 0.0
N93 N 0.04283 0.5528 0.54233 0.0
N94 N 0.04773 0.54044 0.5681 0.0
C95 C 0.03642 0.54204 0.55766 0.0
C96 C 0.06186 0.5507 0.55877 0.0
C97 C 0.0588 0.55822 0.54292 0.0
O98 O 0.01219 0.53646 0.51883 0.0
C99 C 0.03827 0.58515 0.54325 0.0
O100 O 0.05233 0.58585 0.54214 0.0
H101 H 0.02358 0.53529 0.56071 0.0
H102 H 0.06759 0.56696 0.53252 0.0
N103 N 0.04107 0.56688 0.49916 0.0
N104 N 0.04521 0.57938 0.46885 0.0
C105 C 0.03735 0.57584 0.48714 0.0
C106 C 0.05181 0.5648 0.48822 0.0
C107 C 0.05436 0.57246 0.46953 0.0
C108 C 0.00911 0.53028 0.50111 0.0
O109 O 0.01503 0.5394 0.48487 0.0
H110 H 0.02835 0.57895 0.49132 0.0
H111 H 0.0569 0.55768 0.49311 0.0
O112 O 0.02586 0.57282 0.53678 0.0
H113 H 0.07366 0.55276 0.56304 0.0
H114 H 0.06213 0.57265 0.45726 0.0
Cu115 Cu 0.53093 0.54293 0.52173 0.0
N116 N 0.55024 0.54633 0.51011 0.0
N117 N 0.57504 0.56034 0.49688 0.0
C118 C 0.56137 0.56023 0.50223 0.0
C119 C 0.57238 0.54584 0.50149 0.0
C120 C 0.55697 0.53715 0.50961 0.0
O121 O 0.53638 0.5601 0.54085 0.0
C122 C 0.51387 0.529 0.48747 0.0
O123 O 0.5208 0.52073 0.49195 0.0
H124 H 0.55974 0.57035 0.50155 0.0
H125 H 0.55131 0.52521 0.51534 0.0
N126 N 0.52074 0.52448 0.53711 0.0
N127 N 0.50024 0.5043 0.55336 0.0
C128 C 0.50467 0.51606 0.53962 0.0
C129 C 0.52681 0.51787 0.5497 0.0
C130 C 0.51412 0.50537 0.55983 0.0
C131 C 0.54814 0.56289 0.55259 0.0
O132 O 0.55507 0.55432 0.5508 0.0
H133 H 0.49644 0.51907 0.53228 0.0
H134 H 0.53952 0.52215 0.55194 0.0
O135 O 0.51657 0.54045 0.49906 0.0
H136 H 0.58103 0.54189 0.49947 0.0
H137 H 0.51505 0.49788 0.57131 0.0
Cu138 Cu 0.7056 0.89381 0.34442 0.0
N139 N 0.71402 0.91367 0.33221 0.0
N140 N 0.71508 0.93593 0.32198 0.0
C141 C 0.70676 0.92239 0.33277 0.0
C142 C 0.72813 0.93571 0.31438 0.0
C143 C 0.72742 0.92197 0.32066 0.0
O144 O 0.69311 0.89442 0.3687 0.0
C145 C 0.70489 0.87803 0.30867 0.0
O146 O 0.7203 0.88807 0.31099 0.0
H147 H 0.69556 0.91878 0.34097 0.0
H148 H 0.73598 0.91825 0.31673 0.0
N149 N 0.72203 0.8906 0.35452 0.0
N150 N 0.73373 0.87779 0.36767 0.0
C151 C 0.71968 0.87705 0.3628 0.0
C152 C 0.73814 0.90032 0.35433 0.0
C153 C 0.7454 0.89238 0.36231 0.0
C154 C 0.70156 0.90278 0.38375 0.0
O155 O 0.71734 0.90954 0.38241 0.0
H156 H 0.70791 0.86668 0.36459 0.0
H157 H 0.74421 0.91227 0.34867 0.0
O158 O 0.69504 0.87797 0.32222 0.0
H159 H 0.73733 0.94461 0.30452 0.0
H160 H 0.75823 0.89697 0.36403 0.0
Cu161 Cu 0.19016 0.89268 0.36449 0.0
N162 N 0.16879 0.87998 0.35573 0.0
N163 N 0.14708 0.85806 0.3447 0.0
C164 C 0.1625 0.86469 0.35116 0.0
C165 C 0.14356 0.86976 0.34526 0.0
C166 C 0.15694 0.88324 0.35205 0.0
O167 O 0.1919 0.8807 0.38755 0.0
C168 C 0.20049 0.90184 0.32504 0.0
O169 O 0.18783 0.90369 0.32639 0.0
H170 H 0.16935 0.85868 0.35218 0.0
H171 H 0.15797 0.89461 0.35379 0.0
N172 N 0.19554 0.91295 0.37335 0.0
N173 N 0.21128 0.93813 0.38236 0.0
C174 C 0.21079 0.92501 0.37524 0.0
C175 C 0.18601 0.91865 0.37939 0.0
C176 C 0.19565 0.93411 0.38498 0.0
C177 C 0.18502 0.88115 0.40418 0.0
O178 O 0.17892 0.89048 0.40503 0.0
H179 H 0.22133 0.92402 0.37181 0.0
H180 H 0.17298 0.912 0.3801 0.0
O181 O 0.2042 0.89642 0.34062 0.0
H182 H 0.13214 0.86873 0.34112 0.0
H183 H 0.19141 0.94179 0.39046 0.0
Cu184 Cu 0.19779 0.39654 0.35552 0.0
N185 N 0.19975 0.40801 0.33178 0.0
N186 N 0.19279 0.41348 0.30159 0.0
C187 C 0.18783 0.40402 0.31827 0.0
C188 C 0.20854 0.42386 0.30472 0.0
C189 C 0.21281 0.42045 0.32343 0.0
O190 O 0.1751 0.38593 0.36402 0.0
C191 C 0.21183 0.38156 0.33295 0.0
O192 O 0.20588 0.38483 0.3168 0.0
H193 H 0.1759 0.3939 0.32031 0.0
H194 H 0.22466 0.42632 0.3302 0.0
N195 N 0.20966 0.4096 0.37674 0.0
N196 N 0.2225 0.41611 0.40657 0.0
C197 C 0.21314 0.40434 0.39388 0.0
C198 C 0.21703 0.42529 0.3785 0.0
C199 C 0.22504 0.42937 0.39695 0.0
C200 C 0.16966 0.39531 0.36649 0.0
O201 O 0.17959 0.4104 0.36355 0.0
H202 H 0.20925 0.3921 0.39663 0.0
H203 H 0.21676 0.43319 0.36712 0.0
O204 O 0.20762 0.38356 0.35074 0.0
H205 H 0.21644 0.43313 0.2942 0.0
H206 H 0.23215 0.44113 0.40279 0.0
Cu207 Cu 0.18058 0.35548 0.86222 0.0
N208 N 0.17729 0.34232 0.84016 0.0
N209 N 0.18163 0.33591 0.80899 0.0
C210 C 0.1861 0.34742 0.82282 0.0
C211 C 0.16951 0.32296 0.81805 0.0
C212 C 0.16678 0.32698 0.83731 0.0
O213 O 0.20335 0.36379 0.87025 0.0
C214 C 0.15773 0.3623 0.84889 0.0
O215 O 0.15003 0.34693 0.85062 0.0
H216 H 0.19582 0.35936 0.82058 0.0
H217 H 0.15772 0.3193 0.84831 0.0
N218 N 0.16773 0.34478 0.88501 0.0
N219 N 0.15366 0.34162 0.91382 0.0
C220 C 0.16262 0.35158 0.89862 0.0
C221 C 0.16183 0.32994 0.89182 0.0
C222 C 0.15317 0.32797 0.90969 0.0
C223 C 0.20641 0.35294 0.87523 0.0
O224 O 0.19465 0.33834 0.87413 0.0
H225 H 0.16562 0.36372 0.89746 0.0
H226 H 0.16369 0.32116 0.88444 0.0
O227 O 0.17279 0.36976 0.85314 0.0
H228 H 0.16298 0.31149 0.81117 0.0
H229 H 0.14683 0.31729 0.91874 0.0
Cu230 Cu 0.7003 0.88528 0.8453 0.0
N231 N 0.70934 0.8734 0.83611 0.0
N232 N 0.711 0.85267 0.8256 0.0
C233 C 0.70159 0.85928 0.82711 0.0
C234 C 0.7253 0.86322 0.83365 0.0
C235 C 0.72422 0.87594 0.84016 0.0
O236 O 0.68957 0.87568 0.87195 0.0
C237 C 0.68757 0.90058 0.81987 0.0
O238 O 0.69105 0.90995 0.83558 0.0
H239 H 0.68898 0.85353 0.82303 0.0
H240 H 0.73338 0.88598 0.84824 0.0
N241 N 0.71707 0.90532 0.85133 0.0
N242 N 0.72939 0.9296 0.86386 0.0
C243 C 0.71663 0.91491 0.86559 0.0
C244 C 0.73064 0.91413 0.84033 0.0
C245 C 0.73832 0.9291 0.84808 0.0
C246 C 0.68094 0.86093 0.87553 0.0
O247 O 0.67579 0.8513 0.85999 0.0
H248 H 0.70665 0.91133 0.87625 0.0
H249 H 0.73419 0.91018 0.82687 0.0
O250 O 0.68873 0.88822 0.82193 0.0
H251 H 0.73565 0.86164 0.83539 0.0
H252 H 0.74904 0.93905 0.84168 0.0
Cu253 Cu 0.19365 0.88136 0.86325 0.0
N254 N 0.1828 0.88279 0.84024 0.0
N255 N 0.16921 0.87586 0.8107 0.0
C256 C 0.17606 0.87171 0.82573 0.0
C257 C 0.17172 0.89014 0.81616 0.0
C258 C 0.18008 0.89436 0.83436 0.0
O259 O 0.18289 0.85916 0.86989 0.0
C260 C 0.22274 0.89358 0.83949 0.0
O261 O 0.21328 0.88828 0.82354 0.0
H262 H 0.17655 0.86097 0.82608 0.0
H263 H 0.18392 0.9051 0.84269 0.0
N264 N 0.19204 0.89229 0.88573 0.0
N265 N 0.19886 0.90523 0.91541 0.0
C266 C 0.20414 0.90106 0.89866 0.0
C267 C 0.17864 0.89099 0.89448 0.0
C268 C 0.18281 0.89893 0.91282 0.0
C269 C 0.17943 0.85363 0.88804 0.0
O270 O 0.1861 0.86308 0.90355 0.0
H271 H 0.2164 0.90346 0.89646 0.0
H272 H 0.1666 0.88408 0.88847 0.0
O273 O 0.21654 0.89063 0.85741 0.0
H274 H 0.16771 0.89706 0.80776 0.0
H275 H 0.17459 0.89966 0.92366 0.0
Cu276 Cu 0.37937 0.22984 0.6999 0.0
N277 N 0.38863 0.24972 0.68783 0.0
N278 N 0.38812 0.27018 0.67378 0.0
C279 C 0.37973 0.2565 0.68408 0.0
C280 C 0.40301 0.27215 0.67087 0.0
C281 C 0.40333 0.25948 0.67973 0.0
O282 O 0.36843 0.23164 0.72494 0.0
C283 C 0.37753 0.21646 0.66279 0.0
O284 O 0.39286 0.22685 0.66507 0.0
H285 H 0.36706 0.25109 0.68814 0.0
H286 H 0.41338 0.25734 0.67969 0.0
N287 N 0.39427 0.22403 0.70832 0.0
N288 N 0.40294 0.20719 0.71487 0.0
C289 C 0.39032 0.2089 0.70958 0.0
C290 C 0.41001 0.23233 0.71308 0.0
C291 C 0.41539 0.22191 0.71729 0.0
C292 C 0.37831 0.24255 0.73676 0.0
O293 O 0.39361 0.25014 0.73129 0.0
H294 H 0.37831 0.19931 0.70656 0.0
H295 H 0.41712 0.245 0.71319 0.0
O296 O 0.36772 0.21511 0.67726 0.0
H297 H 0.41286 0.28192 0.66279 0.0
H298 H 0.42756 0.22493 0.72128 0.0
Cu299 Cu 0.86463 0.20134 0.68901 0.0
N300 N 0.88013 0.2058 0.66851 0.0
N301 N 0.89602 0.21885 0.64171 0.0
C302 C 0.88448 0.21757 0.65485 0.0
C303 C 0.89906 0.20734 0.64729 0.0
C304 C 0.88929 0.19935 0.66395 0.0
O305 O 0.86953 0.22254 0.69764 0.0
C306 C 0.84224 0.17352 0.67152 0.0
O307 O 0.85527 0.17228 0.67239 0.0
H308 H 0.87912 0.225 0.65454 0.0
H309 H 0.88895 0.1896 0.67215 0.0
N310 N 0.86679 0.19101 0.71194 0.0
N311 N 0.85998 0.17826 0.74205 0.0
C312 C 0.85515 0.18379 0.7263 0.0
C313 C 0.87943 0.18983 0.7187 0.0
C314 C 0.87529 0.18208 0.73743 0.0
C315 C 0.88308 0.23029 0.70676 0.0
O316 O 0.89146 0.22332 0.71044 0.0
H317 H 0.84351 0.18313 0.72555 0.0
H318 H 0.89097 0.19466 0.7109 0.0
O319 O 0.84317 0.18624 0.67788 0.0
H320 H 0.9079 0.20505 0.64013 0.0
H321 H 0.88295 0.17955 0.74696 0.0
Cu322 Cu 0.85557 0.69309 0.67362 0.0
N323 N 0.849 0.68244 0.64889 0.0
N324 N 0.83889 0.67709 0.61736 0.0
C325 C 0.83853 0.68304 0.63577 0.0
C326 C 0.84988 0.67237 0.61901 0.0
C327 C 0.85605 0.67563 0.63855 0.0
O328 O 0.83837 0.6962 0.68452 0.0
C329 C 0.88285 0.71746 0.65221 0.0
O330 O 0.87352 0.71292 0.63609 0.0
H331 H 0.8318 0.68893 0.63905 0.0
H332 H 0.86579 0.67417 0.64435 0.0
N333 N 0.859 0.68114 0.69293 0.0
N334 N 0.86914 0.67618 0.72085 0.0
C335 C 0.86829 0.68723 0.70946 0.0
C336 C 0.85371 0.66566 0.69372 0.0
C337 C 0.86 0.66255 0.71097 0.0
C338 C 0.83349 0.70513 0.6773 0.0
O339 O 0.84137 0.71462 0.66189 0.0
H340 H 0.87461 0.69964 0.71274 0.0
H341 H 0.84595 0.65728 0.68252 0.0
O342 O 0.87673 0.71179 0.66976 0.0
H343 H 0.85372 0.66761 0.6067 0.0
H344 H 0.85792 0.65116 0.71589 0.0
Cu345 Cu 0.8428 0.69981 0.15729 0.0
N346 N 0.84173 0.68941 0.13294 0.0
N347 N 0.85085 0.68379 0.10443 0.0
C348 C 0.8541 0.69422 0.11957 0.0
C349 C 0.83569 0.672 0.10838 0.0
C350 C 0.83012 0.67547 0.12604 0.0
O351 O 0.86413 0.70594 0.16899 0.0
C352 C 0.82508 0.71254 0.14 0.0
O353 O 0.81889 0.69915 0.13033 0.0
H354 H 0.86539 0.70507 0.12125 0.0
H355 H 0.81859 0.66817 0.13356 0.0
N356 N 0.82787 0.68658 0.1768 0.0
N357 N 0.81471 0.68085 0.20676 0.0
C358 C 0.82385 0.69221 0.19306 0.0
C359 C 0.821 0.67101 0.18016 0.0
C360 C 0.81285 0.66744 0.19876 0.0
C361 C 0.86672 0.6944 0.17058 0.0
O362 O 0.85537 0.68057 0.16449 0.0
H363 H 0.8284 0.7046 0.19532 0.0
H364 H 0.82239 0.66296 0.17034 0.0
O365 O 0.83682 0.71611 0.15219 0.0
H366 H 0.82927 0.66137 0.0996 0.0
H367 H 0.80641 0.65597 0.20601 0.0
Cu368 Cu 0.37438 0.22627 0.19551 0.0
N369 N 0.38311 0.21389 0.18676 0.0
N370 N 0.38385 0.19236 0.17736 0.0
C371 C 0.37505 0.19967 0.17794 0.0
C372 C 0.39816 0.20263 0.1857 0.0
C373 C 0.39765 0.21582 0.1915 0.0
O374 O 0.36394 0.21745 0.2225 0.0
C375 C 0.35964 0.23984 0.17059 0.0
O376 O 0.36113 0.24814 0.18694 0.0
H377 H 0.36253 0.1943 0.17351 0.0
H378 H 0.40688 0.22574 0.19968 0.0
N379 N 0.3909 0.24681 0.20046 0.0
N380 N 0.4016 0.27208 0.2091 0.0
C381 C 0.3895 0.25719 0.21244 0.0
C382 C 0.40452 0.25532 0.18944 0.0
C383 C 0.41119 0.27087 0.19479 0.0
C384 C 0.35639 0.20278 0.22683 0.0
O385 O 0.35198 0.19273 0.21179 0.0
H386 H 0.37916 0.25393 0.22233 0.0
H387 H 0.40863 0.25074 0.17724 0.0
O388 O 0.36243 0.22844 0.17215 0.0
H389 H 0.40811 0.20055 0.1882 0.0
H390 H 0.42159 0.28062 0.18749 0.0
Cu391 Cu 0.85679 0.23664 0.19876 0.0
N392 N 0.85169 0.2194 0.18209 0.0
N393 N 0.84165 0.20234 0.15646 0.0
C394 C 0.84085 0.21375 0.16685 0.0
C395 C 0.85346 0.2008 0.1654 0.0
C396 C 0.8596 0.21132 0.18125 0.0
O397 O 0.84283 0.2455 0.19401 0.0
C398 C 0.88326 0.26723 0.1937 0.0
O399 O 0.87347 0.27128 0.20239 0.0
H400 H 0.83294 0.21828 0.16302 0.0
H401 H 0.86947 0.21329 0.19111 0.0
N402 N 0.85787 0.23263 0.22663 0.0
N403 N 0.8667 0.23747 0.25889 0.0
C404 C 0.86771 0.24354 0.23999 0.0
C405 C 0.85038 0.21909 0.23745 0.0
C406 C 0.85571 0.22208 0.25743 0.0
C407 C 0.82847 0.24222 0.19858 0.0
O408 O 0.82406 0.25236 0.19293 0.0
H409 H 0.87553 0.25574 0.23589 0.0
H410 H 0.84191 0.20779 0.2312 0.0
O411 O 0.87834 0.25278 0.19063 0.0
H412 H 0.85745 0.19275 0.16067 0.0
H413 H 0.85214 0.21351 0.26974 0.0
Mn414 Mn 0.01875 0.67632 0.26461 0.0
Mn415 Mn 0.9817 0.6443 0.26908 0.0
C416 C 0.99663 0.67668 0.25054 0.0
C417 C 0.03896 0.70018 0.27818 0.0
C418 C 1.00678 0.64687 0.23793 0.0
O419 O 0.02173 0.66349 0.28731 0.0
O420 O 0.99632 0.64322 0.28998 0.0
C421 C 0.97282 0.65091 0.30982 0.0
N422 N 0.96961 0.64795 0.28953 0.0
C423 C 0.94506 0.64892 0.29295 0.0
C424 C 0.94805 0.65188 0.31392 0.0
C425 C 0.96202 0.65292 0.32237 0.0
C426 C 0.95626 0.64702 0.28122 0.0
H427 H 0.98356 0.65174 0.31638 0.0
C428 C 0.01109 0.65062 0.2957 0.0
O429 O 0.04237 0.69253 0.26476 0.0
O430 O 0.024 0.69375 0.28401 0.0
N431 N 0.96619 0.64366 0.25016 0.0
C432 C 0.96541 0.64139 0.22953 0.0
C433 C 0.95237 0.64049 0.21863 0.0
C434 C 0.94016 0.64171 0.22907 0.0
C435 C 0.94109 0.6438 0.25035 0.0
C436 C 0.95438 0.64462 0.26039 0.0
H437 H 0.97473 0.64039 0.22143 0.0
O438 O 0.01117 0.68647 0.24425 0.0
O439 O 0.99545 0.66705 0.26516 0.0
O440 O 0.01779 0.6608 0.24248 0.0
O441 O 0.99315 0.63968 0.2473 0.0
C442 C 0.92945 0.64527 0.26195 0.0
C443 C 0.93148 0.64793 0.28321 0.0
H444 H 0.93976 0.65345 0.32364 0.0
H445 H 0.96445 0.65527 0.33851 0.0
H446 H 0.95173 0.63886 0.20222 0.0
H447 H 0.93017 0.6411 0.2206 0.0
H448 H 0.91896 0.64452 0.25464 0.0
H449 H 0.92257 0.64927 0.29191 0.0
Mn450 Mn 0.40114 0.43404 0.28354 0.0
Mn451 Mn 0.38807 0.46024 0.28244 0.0
C452 C 0.37629 0.42758 0.29825 0.0
C453 C 0.40368 0.41352 0.26939 0.0
C454 C 0.41365 0.46258 0.31175 0.0
O455 O 0.41537 0.44956 0.26105 0.0
O456 O 0.40473 0.46545 0.26078 0.0
C457 C 0.3721 0.45214 0.24208 0.0
N458 N 0.37143 0.45415 0.26261 0.0
C459 C 0.34393 0.44849 0.26058 0.0
C460 C 0.34434 0.44643 0.23939 0.0
C461 C 0.35847 0.44821 0.23012 0.0
C462 C 0.35786 0.45235 0.27171 0.0
H463 H 0.38295 0.45354 0.23489 0.0
C464 C 0.41449 0.4612 0.25374 0.0
O465 O 0.41377 0.42294 0.28277 0.0
O466 O 0.39233 0.41629 0.26373 0.0
N467 N 0.37176 0.45667 0.30229 0.0
C468 C 0.37314 0.45842 0.323 0.0
C469 C 0.36014 0.45722 0.33457 0.0
C470 C 0.34592 0.45432 0.32473 0.0
C471 C 0.34466 0.45227 0.30347 0.0
C472 C 0.35811 0.45388 0.2927 0.0
H473 H 0.38414 0.4609 0.33061 0.0
O474 O 0.38391 0.42038 0.30387 0.0
O475 O 0.38342 0.43838 0.28416 0.0
O476 O 0.41347 0.45016 0.30584 0.0
O477 O 0.40489 0.46756 0.30372 0.0
C478 C 0.33059 0.44869 0.29255 0.0
C479 C 0.33019 0.44669 0.27113 0.0
H480 H 0.33386 0.4434 0.23011 0.0
H481 H 0.35887 0.44659 0.21379 0.0
H482 H 0.36113 0.45868 0.35101 0.0
H483 H 0.33599 0.45361 0.33368 0.0
H484 H 0.31996 0.44728 0.3005 0.0
H485 H 0.31924 0.44374 0.26293 0.0
Mn486 Mn 0.66714 0.07394 0.27121 0.0
Mn487 Mn 0.66783 0.10778 0.28239 0.0
C488 C 0.68897 0.09758 0.26062 0.0
C489 C 0.672 0.05373 0.28047 0.0
C490 C 0.64825 0.08657 0.24775 0.0
O491 O 0.64959 0.06713 0.29308 0.0
O492 O 0.65194 0.09046 0.30033 0.0
C493 C 0.6815 0.11206 0.32395 0.0
N494 N 0.68207 0.11773 0.30469 0.0
C495 C 0.70511 0.14263 0.31289 0.0
C496 C 0.70473 0.13711 0.33286 0.0
C497 C 0.69291 0.12174 0.33839 0.0
C498 C 0.69346 0.13244 0.29917 0.0
H499 H 0.67241 0.10027 0.32825 0.0
C500 C 0.64549 0.07564 0.30318 0.0
O501 O 0.66136 0.05172 0.26679 0.0
O502 O 0.67963 0.0674 0.28895 0.0
N503 N 0.68248 0.12583 0.26659 0.0
C504 C 0.68152 0.12913 0.24652 0.0
C505 C 0.69243 0.14405 0.23853 0.0
C506 C 0.70417 0.15544 0.25125 0.0
C507 C 0.70489 0.1518 0.27186 0.0
C508 C 0.69351 0.13682 0.27905 0.0
H509 H 0.67241 0.12048 0.23672 0.0
O510 O 0.68588 0.08454 0.25202 0.0
O511 O 0.67939 0.09644 0.27571 0.0
O512 O 0.65253 0.07629 0.25024 0.0
O513 O 0.65314 0.09861 0.25907 0.0
C514 C 0.71655 0.16237 0.2855 0.0
C515 C 0.71671 0.15776 0.30597 0.0
H516 H 0.71351 0.14453 0.34404 0.0
H517 H 0.69258 0.11737 0.35375 0.0
H518 H 0.69178 0.14679 0.2226 0.0
H519 H 0.71264 0.16692 0.245 0.0
H520 H 0.72556 0.17401 0.28034 0.0
H521 H 0.72587 0.16592 0.31624 0.0
Mn522 Mn 0.02669 0.41742 0.77076 0.0
Mn523 Mn 0.04535 0.40882 0.73304 0.0
C524 C 0.04389 0.40765 0.77885 0.0
C525 C 0.02526 0.43474 0.79448 0.0
C526 C 0.00976 0.38789 0.74386 0.0
O527 O 0.02515 0.42964 0.74589 0.0
O528 O 0.03876 0.42382 0.7225 0.0
C529 C 0.07456 0.44008 0.72784 0.0
N530 N 0.06771 0.42441 0.73178 0.0
C531 C 0.09375 0.42639 0.73419 0.0
C532 C 0.10109 0.44253 0.73004 0.0
C533 C 0.09145 0.44941 0.72693 0.0
C534 C 0.07687 0.4177 0.73496 0.0
H535 H 0.0672 0.44541 0.7254 0.0
C536 C 0.03124 0.43099 0.72791 0.0
O537 O 0.01246 0.4224 0.78797 0.0
O538 O 0.03894 0.43734 0.78673 0.0
N539 N 0.05258 0.39463 0.74106 0.0
C540 C 0.04365 0.37908 0.74596 0.0
C541 C 0.05149 0.37055 0.75013 0.0
C542 C 0.06841 0.37803 0.74897 0.0
C543 C 0.07733 0.39399 0.74367 0.0
C544 C 0.06886 0.4019 0.73973 0.0
H545 H 0.03064 0.37325 0.74677 0.0
O546 O 0.03279 0.4062 0.79168 0.0
O547 O 0.04453 0.41465 0.76161 0.0
O548 O 0.00952 0.39626 0.7586 0.0
O549 O 0.02247 0.39174 0.73317 0.0
C550 C 0.09431 0.4024 0.74234 0.0
C551 C 0.10252 0.41861 0.73776 0.0
H552 H 0.11412 0.44977 0.72933 0.0
H553 H 0.09703 0.46187 0.7238 0.0
H554 H 0.04451 0.35823 0.75421 0.0
H555 H 0.07442 0.37142 0.75227 0.0
H556 H 0.10117 0.39655 0.74505 0.0
H557 H 0.11559 0.425 0.73715 0.0
Mn558 Mn 0.64854 0.66495 0.75184 0.0
Mn559 Mn 0.67417 0.66882 0.78983 0.0
C560 C 0.6753 0.67279 0.74389 0.0
C561 C 0.62885 0.64996 0.72777 0.0
C562 C 0.66498 0.69347 0.78004 0.0
O563 O 0.63319 0.65349 0.7759 0.0
O564 O 0.65138 0.65619 0.79946 0.0
C565 C 0.66552 0.63546 0.79249 0.0
N566 N 0.67691 0.65088 0.79017 0.0
C567 C 0.69825 0.64468 0.78886 0.0
C568 C 0.68676 0.62874 0.79136 0.0
C569 C 0.67032 0.62411 0.7931 0.0
C570 C 0.69273 0.65544 0.78829 0.0
H571 H 0.65288 0.63187 0.79387 0.0
C572 C 0.63682 0.65111 0.79383 0.0
O573 O 0.63032 0.66287 0.73491 0.0
O574 O 0.63855 0.6455 0.73503 0.0
N575 N 0.69673 0.6806 0.78349 0.0
C576 C 0.70621 0.69639 0.78068 0.0
C577 C 0.723 0.70296 0.7788 0.0
C578 C 0.72987 0.69326 0.77994 0.0
C579 C 0.71988 0.67708 0.78302 0.0
C580 C 0.70326 0.67122 0.78511 0.0
H581 H 0.70103 0.70392 0.77997 0.0
O582 O 0.66645 0.67541 0.73131 0.0
O583 O 0.66811 0.66511 0.76069 0.0
O584 O 0.65556 0.68613 0.76532 0.0
O585 O 0.67241 0.68799 0.79035 0.0
C586 C 0.72575 0.6665 0.7839 0.0
C587 C 0.71493 0.6503 0.7867 0.0
H588 H 0.69041 0.61995 0.79184 0.0
H589 H 0.66137 0.61183 0.79495 0.0
H590 H 0.73063 0.71548 0.77652 0.0
H591 H 0.74282 0.69836 0.77837 0.0
H592 H 0.73854 0.67068 0.78221 0.0
H593 H 0.71956 0.64226 0.78711 0.0
Mn594 Mn 0.40307 0.04079 0.77797 0.0
Mn595 Mn 0.37246 0.02231 0.74474 0.0
C596 C 0.37705 0.02443 0.79001 0.0
C597 C 0.42436 0.0432 0.79765 0.0
C598 C 0.3883 0.05704 0.75369 0.0
O599 O 0.41467 0.04191 0.75108 0.0
O600 O 0.39315 0.02752 0.73106 0.0
C601 C 0.3734 0.99295 0.73896 0.0
N602 N 0.36514 1.00034 0.74444 0.0
C603 C 0.34082 0.97568 0.75054 0.0
C604 C 0.34905 0.96781 0.74488 0.0
C605 C 0.36542 0.97649 0.73913 0.0
C606 C 0.3494 0.99211 0.75009 0.0
H607 H 0.38598 0.99958 0.7345 0.0
C608 C 0.4084 0.0351 0.73421 0.0
O609 O 0.42352 0.05529 0.79143 0.0
O610 O 0.41298 0.02948 0.79187 0.0
N611 N 0.35174 0.0164 0.75635 0.0
C612 C 0.34584 0.02579 0.76254 0.0
C613 C 0.32971 0.01894 0.7692 0.0
C614 C 0.3198 1.00255 0.76929 0.0
C615 C 0.32615 0.99313 0.76288 0.0
C616 C 0.34228 1.00062 0.7563 0.0
H617 H 0.35337 0.03839 0.76236 0.0
O618 O 0.38762 0.03534 0.80163 0.0
O619 O 0.38198 0.02355 0.77176 0.0
O620 O 0.39757 0.05697 0.76744 0.0
O621 O 0.37867 0.04481 0.74375 0.0
C622 C 0.31715 0.97661 0.76297 0.0
C623 C 0.32451 0.96789 0.75691 0.0
H624 H 0.34295 0.95511 0.74504 0.0
H625 H 0.37187 0.97049 0.73482 0.0
H626 H 0.32491 0.02628 0.77419 0.0
H627 H 0.30736 0.99733 0.77439 0.0
H628 H 0.30463 0.97048 0.76792 0.0
H629 H 0.31754 0.9552 0.75737 0.0
Mn630 Mn 0.6891 0.99903 0.59783 0.0
Mn631 Mn 0.65107 0.96817 0.59805 0.0
C632 C 0.66814 1.00154 0.58332 0.0
C633 C 0.70997 0.02212 0.61286 0.0
C634 C 0.6771 0.9709 0.56831 0.0
O635 O 0.68983 0.9844 0.62033 0.0
O636 O 0.66382 0.96513 0.61989 0.0
C637 C 0.64017 0.97307 0.6385 0.0
N638 N 0.63826 0.97146 0.61784 0.0
C639 C 0.61439 0.97378 0.61954 0.0
C640 C 0.61605 0.97536 0.64085 0.0
C641 C 0.62902 0.97506 0.65036 0.0
C642 C 0.62588 0.97184 0.60852 0.0
H643 H 0.65012 0.97285 0.64589 0.0
C644 C 0.67807 0.97147 0.62736 0.0
O645 O 0.71299 0.0142 0.59946 0.0
O646 O 0.69495 0.01624 0.61823 0.0
N647 N 0.63734 0.96967 0.57804 0.0
C648 C 0.63792 0.96878 0.55725 0.0
C649 C 0.62603 0.96935 0.54539 0.0
C650 C 0.61359 0.97068 0.55501 0.0
C651 C 0.61316 0.97142 0.57643 0.0
C652 C 0.62533 0.97079 0.58746 0.0
H653 H 0.64742 0.96772 0.54975 0.0
O654 O 0.68304 0.01089 0.57789 0.0
O655 O 0.66595 0.99093 0.59696 0.0
O656 O 0.68826 0.98428 0.5745 0.0
O657 O 0.66306 0.96374 0.57664 0.0
C658 C 0.60123 0.97292 0.58725 0.0
C659 C 0.6019 0.97421 0.60878 0.0
H660 H 0.6075 0.97692 0.65005 0.0
H661 H 0.63042 0.97634 0.66679 0.0
H662 H 0.62645 0.96878 0.52886 0.0
H663 H 0.60449 0.9712 0.5458 0.0
H664 H 0.59159 0.97332 0.57913 0.0
H665 H 0.5928 0.97563 0.61689 0.0
Mn666 Mn 0.0715 0.76464 0.60026 0.0
Mn667 Mn 0.07009 0.79796 0.59277 0.0
C668 C 0.04901 0.76608 0.61123 0.0
C669 C 0.06692 0.74 0.58928 0.0
C670 C 0.08908 0.79408 0.62709 0.0
O671 O 0.08934 0.77641 0.57857 0.0
O672 O 0.08683 0.79782 0.57478 0.0
C673 C 0.05803 0.79193 0.55026 0.0
N674 N 0.05654 0.79536 0.57005 0.0
C675 C 0.03379 0.79843 0.5619 0.0
C676 C 0.0351 0.79499 0.5414 0.0
C677 C 0.04721 0.79162 0.53558 0.0
C678 C 0.04475 0.7983 0.57588 0.0
H679 H 0.06745 0.78952 0.5457 0.0
C680 C 0.09349 0.78971 0.57024 0.0
O681 O 0.07746 0.74791 0.6032 0.0
O682 O 0.05938 0.74661 0.58131 0.0
N683 N 0.05454 0.80006 0.60887 0.0
C684 C 0.05461 0.80264 0.62937 0.0
C685 C 0.04322 0.80611 0.63773 0.0
C686 C 0.03211 0.80724 0.62488 0.0
C687 C 0.03228 0.80456 0.60382 0.0
C688 C 0.04383 0.80101 0.5964 0.0
H689 H 0.06337 0.80216 0.63923 0.0
O690 O 0.05225 0.75583 0.61905 0.0
O691 O 0.05887 0.7751 0.59688 0.0
O692 O 0.08558 0.78007 0.62276 0.0
O693 O 0.08401 0.80175 0.61668 0.0
C694 C 0.02152 0.80536 0.58988 0.0
C695 C 0.02212 0.80207 0.56899 0.0
H696 H 0.02687 0.79489 0.53 0.0
H697 H 0.04828 0.78893 0.5198 0.0
H698 H 0.04314 0.80815 0.65399 0.0
H699 H 0.0235 0.81015 0.63137 0.0
H700 H 0.01262 0.80833 0.59509 0.0
H701 H 0.01359 0.80245 0.5585 0.0
Mn702 Mn 0.31173 0.38094 0.60952 0.0
Mn703 Mn 0.31595 0.41573 0.62314 0.0
C704 C 0.33541 0.4037 0.60219 0.0
C705 C 0.31452 0.35949 0.61843 0.0
C706 C 0.2968 0.39746 0.58618 0.0
O707 O 0.29332 0.37474 0.62975 0.0
O708 O 0.2982 0.3986 0.63967 0.0
C709 C 0.32751 0.41707 0.66542 0.0
N710 N 0.32981 0.42347 0.64628 0.0
C711 C 0.35573 0.44507 0.65541 0.0
C712 C 0.35358 0.43877 0.67527 0.0
C713 C 0.33941 0.4247 0.68029 0.0
C714 C 0.34339 0.43702 0.64129 0.0
H715 H 0.3167 0.40619 0.66929 0.0
C716 C 0.29019 0.38356 0.64078 0.0
O717 O 0.30492 0.35849 0.60376 0.0
O718 O 0.32189 0.37262 0.62811 0.0
N719 N 0.33281 0.43325 0.60848 0.0
C720 C 0.33334 0.4374 0.5884 0.0
C721 C 0.34691 0.451 0.58077 0.0
C722 C 0.35975 0.46023 0.59385 0.0
C723 C 0.35884 0.45583 0.61451 0.0
C724 C 0.34493 0.44225 0.62131 0.0
H725 H 0.32355 0.4303 0.57824 0.0
O726 O 0.33167 0.39098 0.59228 0.0
O727 O 0.32527 0.40262 0.61634 0.0
O728 O 0.29962 0.38609 0.58776 0.0
O729 O 0.30199 0.40876 0.59887 0.0
C730 C 0.37133 0.46423 0.62852 0.0
C731 C 0.36978 0.45885 0.64895 0.0
H732 H 0.36278 0.44456 0.68674 0.0
H733 H 0.3377 0.41972 0.69555 0.0
H734 H 0.34752 0.45431 0.56481 0.0
H735 H 0.37029 0.4706 0.58784 0.0
H736 H 0.38227 0.47473 0.62367 0.0
H737 H 0.37954 0.46531 0.65952 0.0
Mn738 Mn 0.6884 0.76943 0.10159 0.0
Mn739 Mn 0.70751 0.76277 0.06222 0.0
C740 C 0.70696 0.76081 0.10825 0.0
C741 C 0.68704 0.78616 0.12695 0.0
C742 C 0.67279 0.73954 0.07494 0.0
O743 O 0.68478 0.78103 0.07714 0.0
O744 O 0.69888 0.77643 0.0532 0.0
C745 C 0.73475 0.79528 0.05727 0.0
N746 N 0.72925 0.77967 0.05981 0.0
C747 C 0.75622 0.78378 0.05794 0.0
C748 C 0.76217 0.79989 0.05503 0.0
C749 C 0.75138 0.80567 0.05481 0.0
C750 C 0.73953 0.77401 0.06034 0.0
H751 H 0.7265 0.79977 0.05717 0.0
C752 C 0.6906 0.78272 0.0589 0.0
O753 O 0.67428 0.77359 0.12081 0.0
O754 O 0.7004 0.78947 0.11758 0.0
N755 N 0.71681 0.74991 0.068 0.0
C756 C 0.7092 0.73421 0.0721 0.0
C757 C 0.71827 0.72658 0.07298 0.0
C758 C 0.73504 0.73515 0.06961 0.0
C759 C 0.7426 0.75128 0.06542 0.0
C760 C 0.7329 0.75819 0.06436 0.0
H761 H 0.6963 0.72753 0.07453 0.0
O762 O 0.69603 0.75894 0.12162 0.0
O763 O 0.7069 0.76783 0.09127 0.0
O764 O 0.67186 0.74763 0.08967 0.0
O765 O 0.68541 0.74445 0.06365 0.0
C766 C 0.7594 0.76081 0.06253 0.0
C767 C 0.76622 0.77706 0.05892 0.0
H768 H 0.77499 0.80794 0.05316 0.0
H769 H 0.75589 0.8181 0.05273 0.0
H770 H 0.71234 0.71412 0.07623 0.0
H771 H 0.74201 0.72924 0.07043 0.0
H772 H 0.76721 0.75579 0.06338 0.0
H773 H 0.77918 0.78432 0.05707 0.0
Mn774 Mn 0.31698 1.00053 0.11372 0.0
Mn775 Mn 0.34341 1.00643 0.15146 0.0
C776 C 0.34369 1.00782 0.10576 0.0
C777 C 0.29724 0.98465 0.08998 0.0
C778 C 0.33367 0.03041 0.1397 0.0
O779 O 0.30193 0.98957 0.13847 0.0
O780 O 0.32092 0.99389 0.16167 0.0
C781 C 0.33554 0.97348 0.15734 0.0
N782 N 0.34661 0.98882 0.15361 0.0
C783 C 0.36853 0.98353 0.15558 0.0
C784 C 0.35739 0.96767 0.15949 0.0
C785 C 0.3408 0.9626 0.16021 0.0
C786 C 0.36253 0.99374 0.15236 0.0
H787 H 0.32281 0.9696 0.15826 0.0
C788 C 0.30616 0.98797 0.15647 0.0
O789 O 0.29866 0.99774 0.09633 0.0
O790 O 0.30689 0.98043 0.09801 0.0
N791 N 0.36578 0.01823 0.14422 0.0
C792 C 0.37488 0.03381 0.13962 0.0
C793 C 0.39173 0.04076 0.13827 0.0
C794 C 0.39906 0.03172 0.14218 0.0
C795 C 0.38945 0.0157 0.1469 0.0
C796 C 0.37271 0.00937 0.1477 0.0
H797 H 0.36933 0.04092 0.13721 0.0
O798 O 0.33488 0.01024 0.09286 0.0
O799 O 0.33662 1.001 0.12293 0.0
O800 O 0.32395 0.02234 0.12558 0.0
O801 O 0.34133 0.02542 0.15041 0.0
C802 C 0.3958 1.00577 0.15102 0.0
C803 C 0.38535 0.98965 0.15499 0.0
H804 H 0.36142 0.95928 0.162 0.0
H805 H 0.33212 0.95038 0.16322 0.0
H806 H 0.39907 0.05313 0.13458 0.0
H807 H 0.41209 0.03719 0.14144 0.0
H808 H 0.40872 0.01038 0.1509 0.0
H809 H 0.39038 0.9821 0.15772 0.0
Mn810 Mn 0.06923 0.38969 0.11158 0.0
Mn811 Mn 0.03813 0.37096 0.07904 0.0
C812 C 0.04296 0.37753 0.12385 0.0
C813 C 0.08918 0.39098 0.13298 0.0
C814 C 0.05758 0.40631 0.08244 0.0
O815 O 0.07991 0.38658 0.08637 0.0
O816 O 0.05806 0.37282 0.06667 0.0
C817 C 0.03538 0.33962 0.07989 0.0
N818 N 0.02856 0.34877 0.0826 0.0
C819 C 1.00283 0.32629 0.0912 0.0
C820 C 0.00955 0.31661 0.08842 0.0
C821 C 0.02591 0.32332 0.0828 0.0
C822 C 0.01286 0.34246 0.08812 0.0
H823 H 0.04794 0.34473 0.07556 0.0
C824 C 0.0732 0.37902 0.07014 0.0
O825 O 0.09041 0.40336 0.12414 0.0
O826 O 0.0764 0.37762 0.12906 0.0
N827 N 0.01803 0.36819 0.08913 0.0
C828 C 0.01359 0.37922 0.09206 0.0
C829 C 0.99762 0.37447 0.09781 0.0
C830 C 0.98635 0.35845 0.10036 0.0
C831 C 0.99121 0.34731 0.09734 0.0
C832 C 1.00724 0.35273 0.09139 0.0
H833 H 0.02215 0.39155 0.08996 0.0
O834 O 0.05448 0.38869 0.13417 0.0
O835 O 0.04715 0.37382 0.10672 0.0
O836 O 0.06662 0.40648 0.09673 0.0
O837 O 0.04673 0.39369 0.07432 0.0
C838 C 0.9808 0.33106 0.10016 0.0
C839 C 0.98663 0.32056 0.09719 0.0
H840 H 1.0023 0.30403 0.09067 0.0
H841 H 0.03119 0.31593 0.08069 0.0
H842 H 0.99397 0.38314 0.10017 0.0
H843 H 0.97402 0.35484 0.10463 0.0
H844 H 0.96835 0.32652 0.10486 0.0
H845 H 0.97858 0.30812 0.09968 0.0
Mn846 Mn 0.36669 0.34059 0.94806 0.0
Mn847 Mn 0.32805 0.31053 0.94972 0.0
C848 C 0.34603 0.34344 0.93319 0.0
C849 C 0.38855 0.36377 0.96167 0.0
C850 C 0.35315 0.31158 0.91983 0.0
O851 O 0.3672 0.3264 0.97131 0.0
O852 O 0.34102 0.30753 0.97121 0.0
C853 C 0.3187 0.31706 0.99025 0.0
N854 N 0.31608 0.31474 0.96976 0.0
C855 C 0.29239 0.31732 0.97217 0.0
C856 C 0.29479 0.31965 0.99331 0.0
C857 C 0.30803 0.31956 1.00237 0.0
C858 C 0.30343 0.31488 0.96087 0.0
H859 H 0.32886 0.31701 0.99728 0.0
C860 C 0.35529 0.31366 0.97851 0.0
O861 O 0.39077 0.35505 0.94874 0.0
O862 O 0.37372 0.35869 0.96739 0.0
N863 N 0.31392 0.31177 0.93013 0.0
C864 C 0.31373 0.31006 0.90941 0.0
C865 C 0.30134 0.31006 0.89798 0.0
C866 C 0.28922 0.31168 0.90797 0.0
C867 C 0.28963 0.31337 0.9293 0.0
C868 C 0.30218 0.31313 0.93991 0.0
H869 H 0.32296 0.30871 0.90164 0.0
O870 O 0.36094 0.35223 0.92738 0.0
O871 O 0.34357 0.33318 0.94749 0.0
O872 O 0.36484 0.32474 0.92576 0.0
O873 O 0.33913 0.30521 0.92817 0.0
C874 C 0.27821 0.31552 0.9404 0.0
C875 C 0.27963 0.31756 0.96181 0.0
H876 H 0.28661 0.32162 1.00272 0.0
H877 H 0.30999 0.32141 0.01867 0.0
H878 H 0.30113 0.30878 0.88152 0.0
H879 H 0.27967 0.31164 0.89911 0.0
H880 H 0.26844 0.31586 0.93259 0.0
H881 H 0.27091 0.31942 0.97015 0.0
Mn882 Mn 0.73844 0.092 0.95139 0.0
Mn883 Mn 0.73259 0.12255 0.94218 0.0
C884 C 0.71418 0.09014 0.96073 0.0
C885 C 0.73845 0.06953 0.94043 0.0
C886 C 0.75237 0.12154 0.97763 0.0
O887 O 0.7563 0.10533 0.93085 0.0
O888 O 0.75059 0.12452 0.92451 0.0
C889 C 0.72114 0.11498 0.89952 0.0
N890 N 0.71874 0.11795 0.91919 0.0
C891 C 0.69371 0.11662 0.91048 0.0
C892 C 0.69592 0.11362 0.8901 0.0
C893 C 0.70966 0.1127 0.88463 0.0
C894 C 0.70545 0.11859 0.9247 0.0
H895 H 0.73174 0.11438 0.89522 0.0
C896 C 0.75885 0.11773 0.92134 0.0
O897 O 0.74756 0.07792 0.95528 0.0
O898 O 0.7293 0.07419 0.93194 0.0
N899 N 0.71548 0.12229 0.95782 0.0
C900 C 0.71483 0.12465 0.97827 0.0
C901 C 0.70167 0.12554 0.98634 0.0
C902 C 0.68951 0.12433 0.97325 0.0
C903 C 0.69051 0.12203 0.95223 0.0
C904 C 0.70379 0.12104 0.94512 0.0
H905 H 0.72429 0.12585 0.98833 0.0
O906 O 0.71876 0.08099 0.96901 0.0
O907 O 0.72379 0.09991 0.94671 0.0
O908 O 0.75007 0.10785 0.97414 0.0
O909 O 0.74676 0.12834 0.96638 0.0
C910 C 0.67886 0.12071 0.93805 0.0
C911 C 0.68034 0.1178 0.91724 0.0
H912 H 0.68715 0.11197 0.87855 0.0
H913 H 0.71144 0.11035 0.86894 0.0
H914 H 0.70098 0.12732 1.00257 0.0
H915 H 0.67944 0.12515 0.97952 0.0
H916 H 0.66862 0.12177 0.94299 0.0
H917 H 0.67115 0.11652 0.90657 0.0
Mn918 Mn 0.99336 0.71135 0.92379 0.0
Mn919 Mn 0.99305 0.74543 0.9231 0.0
C920 C 0.0154 0.7339 0.911 0.0
C921 C 0.99875 0.69321 0.93945 0.0
C922 C 0.97501 0.71962 0.89244 0.0
O923 O 0.97511 0.70691 0.9438 0.0
O924 O 0.97629 0.73034 0.94259 0.0
C925 C 1.00404 0.75553 0.96545 0.0
N926 N 1.00599 0.75837 0.94488 0.0
C927 C 0.02872 0.78416 0.94992 0.0
C928 C 0.02692 0.78155 0.97116 0.0
C929 C 0.01457 0.76713 0.97895 0.0
C930 C 0.01794 0.77212 0.93722 0.0
H931 H 0.99449 0.74451 0.9715 0.0
C932 C 0.97021 0.71625 0.94943 0.0
O933 O 0.98821 0.68917 0.92497 0.0
O934 O 1.00567 0.70767 0.94542 0.0
N935 N 0.00879 0.76117 0.90517 0.0
C936 C 0.0095 0.76143 0.88431 0.0
C937 C 0.02156 0.77482 0.87408 0.0
C938 C 0.03257 0.78787 0.88538 0.0
C939 C 0.03152 0.78735 0.90683 0.0
C940 C 0.01937 0.77363 0.91619 0.0
H941 H 1.00095 0.75149 0.87557 0.0
O942 O 0.01275 0.72017 0.90551 0.0
O943 O 1.005 0.73404 0.92384 0.0
O944 O 0.97927 0.71024 0.89979 0.0
O945 O 0.97955 0.73316 0.89988 0.0
C946 C 0.04209 0.79987 0.91932 0.0
C947 C 0.04081 0.79822 0.94084 0.0
H948 H 0.03499 0.79049 0.98163 0.0
H949 H 0.01313 0.76501 0.99532 0.0
H950 H 0.02231 0.77512 0.85752 0.0
H951 H 0.04182 0.79819 0.87743 0.0
H952 H 0.0514 0.81076 0.91253 0.0
H953 H 0.04923 0.80782 0.95027 0.0
Mn954 Mn 0.37016 0.11639 0.45238 0.0
Mn955 Mn 0.38859 0.10892 0.41306 0.0
C956 C 0.38809 0.10705 0.45884 0.0
C957 C 0.36848 0.13261 0.47785 0.0
C958 C 0.35353 0.08706 0.42513 0.0
O959 O 0.36729 0.12851 0.42811 0.0
O960 O 0.3807 0.1232 0.40388 0.0
C961 C 0.41672 0.14089 0.40788 0.0
N962 N 0.41064 0.12524 0.41112 0.0
C963 C 0.43729 0.12847 0.41174 0.0
C964 C 0.44384 0.14462 0.4083 0.0
C965 C 0.43351 0.15086 0.40642 0.0
C966 C 0.42047 0.11913 0.4131 0.0
H967 H 0.40882 0.14573 0.40643 0.0
C968 C 0.3728 0.12987 0.40974 0.0
O969 O 0.35582 0.12032 0.47103 0.0
O970 O 0.38212 0.13602 0.46911 0.0
N971 N 0.39698 0.09536 0.41941 0.0
C972 C 0.38874 0.07962 0.4233 0.0
C973 C 0.3973 0.07155 0.42557 0.0
C974 C 0.4142 0.07971 0.42364 0.0
C975 C 0.4224 0.09589 0.41956 0.0
C976 C 0.41322 0.10327 0.41721 0.0
H977 H 0.37574 0.07325 0.42462 0.0
O978 O 0.37719 0.10521 0.47223 0.0
O979 O 0.38823 0.11427 0.442 0.0
O980 O 0.35328 0.0953 0.44002 0.0
O981 O 0.36608 0.09119 0.41398 0.0
C982 C 0.43934 0.10501 0.41791 0.0
C983 C 0.44678 0.1213 0.41411 0.0
H984 H 0.45678 0.15235 0.40718 0.0
H985 H 0.43848 0.16331 0.40384 0.0
H986 H 0.39089 0.05907 0.42873 0.0
H987 H 0.42075 0.07343 0.42528 0.0
H988 H 0.44676 0.09964 0.4198 0.0
H989 H 0.45982 0.12823 0.41313 0.0
Mn990 Mn 0.98524 0.35063 0.44472 0.0
Mn991 Mn 0.01444 0.36234 0.48023 0.0
C992 C 0.01213 0.36168 0.43467 0.0
C993 C 0.96592 0.33158 0.42338 0.0
C994 C 0.99733 0.38053 0.47019 0.0
O995 O 0.97276 0.33877 0.47053 0.0
O996 O 0.99342 0.34638 0.49247 0.0
C997 C 0.01472 0.33259 0.48591 0.0
N998 N 0.02265 0.34817 0.48106 0.0
C999 C 0.0477 0.34834 0.47621 0.0
C1000 C 0.03982 0.33232 0.48126 0.0
C1001 C 0.02325 0.3244 0.48607 0.0
C1002 C 0.03857 0.35589 0.47632 0.0
H1003 H 1.00198 0.32645 0.4896 0.0
C1004 C 0.97842 0.3382 0.48801 0.0
O1005 O 0.96488 0.3436 0.42934 0.0
O1006 O 0.97804 0.33045 0.43013 0.0
N1007 N 0.03544 0.37754 0.47023 0.0
C1008 C 0.04102 0.39277 0.4646 0.0
C1009 C 0.05731 0.40225 0.45891 0.0
C1010 C 0.0677 0.39603 0.45919 0.0
C1011 C 0.06169 0.38033 0.46506 0.0
C1012 C 0.04537 0.37146 0.4707 0.0
H1013 H 0.03311 0.39764 0.46443 0.0
O1014 O 1.00168 0.36199 0.42236 0.0
O1015 O 1.00657 0.3552 0.45248 0.0
O1016 O 0.98848 0.37142 0.45612 0.0
O1017 O 1.00718 0.37801 0.48039 0.0
C1018 C 0.0712 0.37307 0.46531 0.0
C1019 C 0.06419 0.35707 0.47078 0.0
H1020 H 0.04635 0.32595 0.48134 0.0
H1021 H 0.01707 0.31202 0.48989 0.0
H1022 H 0.06186 0.41435 0.45434 0.0
H1023 H 0.08026 0.40339 0.45477 0.0
H1024 H 0.08387 0.37963 0.46108 0.0
H1025 H 0.07156 0.35157 0.4706 0.0
Mn1026 Mn 0.74724 0.71537 0.43018 0.0
Mn1027 Mn 0.71935 0.70393 0.39309 0.0
C1028 C 0.72003 0.70011 0.43811 0.0
C1029 C 0.76456 0.71079 0.45029 0.0
C1030 C 0.73732 0.73712 0.40931 0.0
O1031 O 0.76045 0.7183 0.40414 0.0
O1032 O 0.74043 0.70892 0.38094 0.0
C1033 C 0.71775 0.67427 0.3809 0.0
N1034 N 0.71031 0.68204 0.38808 0.0
C1035 C 0.68451 0.6583 0.38886 0.0
C1036 C 0.69188 0.65005 0.3814 0.0
C1037 C 0.70859 0.65807 0.37748 0.0
C1038 C 0.69426 0.67442 0.39204 0.0
H1039 H 0.73058 0.6804 0.37779 0.0
C1040 C 0.75522 0.71443 0.38591 0.0
O1041 O 0.76692 0.72488 0.44755 0.0
O1042 O 0.75253 0.69955 0.44079 0.0
N1043 N 0.69838 0.69853 0.40327 0.0
C1044 C 0.69333 0.708 0.41169 0.0
C1045 C 0.67704 0.70165 0.41735 0.0
C1046 C 0.66609 0.68568 0.41412 0.0
C1047 C 0.67156 0.67619 0.40534 0.0
C1048 C 0.68794 0.68316 0.40009 0.0
H1049 H 0.70169 0.7203 0.41412 0.0
O1050 O 0.73013 0.7087 0.45208 0.0
O1051 O 0.72617 0.70106 0.42006 0.0
O1052 O 0.74531 0.73473 0.42304 0.0
O1053 O 0.72763 0.72649 0.39721 0.0
C1054 C 0.66143 0.66007 0.40174 0.0
C1055 C 0.66789 0.65113 0.39349 0.0
H1056 H 0.68485 0.63755 0.37875 0.0
H1057 H 0.71438 0.65178 0.37179 0.0
H1058 H 0.67292 0.70905 0.42415 0.0
H1059 H 0.65354 0.68082 0.41853 0.0
H1060 H 0.64868 0.65437 0.40555 0.0
H1061 H 0.66002 0.63869 0.39109 0.0
H1062 H 0.05529 0.53514 0.0759 0.0
H1063 H 0.06103 0.51401 0.08313 0.0
H1064 H 0.06351 0.50709 0.01834 0.0
H1065 H 0.05804 0.52829 0.01093 0.0
H1066 H 0.04005 0.48388 0.07102 0.0
H1067 H 0.1014 0.50343 0.04003 0.0
H1068 H 0.09418 0.5169 0.0452 0.0
H1069 H 0.08845 0.50558 0.02212 0.0
C1070 C 0.05751 0.52943 0.06318 0.0
C1071 C 0.05607 0.53332 0.04284 0.0
C1072 C 0.06075 0.51733 0.06735 0.0
C1073 C 0.06274 0.50902 0.05128 0.0
C1074 C 0.06229 0.51351 0.03097 0.0
H1075 H 0.03845 0.41148 0.05599 0.0
H1076 H 0.04033 0.43661 0.04749 0.0
C1077 C 0.05907 0.52561 0.02678 0.0
C1078 C 0.06318 0.49446 0.05565 0.0
H1079 H 0.08487 0.47599 0.04739 0.0
C1080 C 0.04991 0.4822 0.066 0.0
C1081 C 0.07607 0.49232 0.0491 0.0
C1082 C 0.09091 0.5053 0.03866 0.0
C1083 C 0.04905 0.46776 0.06971 0.0
C1084 C 0.06166 0.46543 0.06255 0.0
C1085 C 0.0751 0.47777 0.05256 0.0
C1086 C 0.06133 0.45041 0.06608 0.0
C1087 C 0.03472 0.45518 0.08148 0.0
C1088 C 0.07286 0.44996 0.07874 0.0
C1089 C 0.07187 0.43567 0.08358 0.0
C1090 C 0.05935 0.42153 0.07575 0.0
C1091 C 0.04819 0.42211 0.06237 0.0
C1092 C 0.0492 0.43644 0.05756 0.0
H1093 H 0.02808 0.46003 0.08989 0.0
H1094 H 0.02625 0.4463 0.07062 0.0
H1095 H 0.03855 0.44915 0.09263 0.0
H1096 H 0.08235 0.46063 0.08539 0.0
H1097 H 0.08076 0.43571 0.09381 0.0
H1098 H 0.57341 0.5939 0.02207 0.0
H1099 H 0.59668 0.61991 0.02978 0.0
H1100 H 0.56667 0.62912 0.07023 0.0
H1101 H 0.54364 0.60347 0.06262 0.0
H1102 H 0.59787 0.6496 0.0227 0.0
H1103 H 0.60721 0.6421 0.10476 0.0
H1104 H 0.59614 0.62566 0.08798 0.0
H1105 H 0.58667 0.63597 0.09841 0.0
C1106 C 0.57192 0.60132 0.03299 0.0
C1107 C 0.55665 0.59651 0.04182 0.0
C1108 C 0.58519 0.61626 0.03728 0.0
C1109 C 0.58354 0.62652 0.05078 0.0
C1110 C 0.56843 0.62144 0.06005 0.0
H1111 H 0.6427 0.72323 0.09413 0.0
H1112 H 0.62115 0.69617 0.0879 0.0
C1113 C 0.55521 0.60671 0.0556 0.0
C1114 C 0.59712 0.64292 0.05428 0.0
H1115 H 0.6202 0.6683 0.09179 0.0
C1116 C 0.60288 0.65363 0.03776 0.0
C1117 C 0.60354 0.64836 0.07399 0.0
C1118 C 0.5982 0.63741 0.0923 0.0
C1119 C 0.61452 0.66959 0.04045 0.0
C1120 C 0.62102 0.67506 0.06017 0.0
C1121 C 0.61529 0.66429 0.07668 0.0
C1122 C 0.63402 0.69174 0.06385 0.0
C1123 C 0.61927 0.68053 0.02217 0.0
C1124 C 0.6486 0.69839 0.05268 0.0
C1125 C 0.66084 0.71387 0.05606 0.0
C1126 C 0.65908 0.72325 0.071 0.0
C1127 C 0.64453 0.71653 0.0824 0.0
C1128 C 0.63219 0.70098 0.07889 0.0
H1129 H 0.60972 0.67593 1.01036 0.0
H1130 H 0.62169 0.69237 0.02668 0.0
H1131 H 0.63039 0.68171 0.01505 0.0
H1132 H 0.65066 0.69152 0.04144 0.0
H1133 H 0.67185 0.71838 0.04706 0.0
H1134 H 0.47979 0.01945 0.04154 0.0
H1135 H 0.45106 1.00728 0.05117 0.0
H1136 H 0.45208 0.05061 0.03688 0.0
H1137 H 0.48037 0.06265 0.02713 0.0
H1138 H 0.4394 0.01731 0.08232 0.0
H1139 H 0.4102 0.01921 1.01068 0.0
H1140 H 0.43013 0.02145 0.01105 0.0
H1141 H 0.42738 0.03797 0.01597 0.0
C1142 C 0.47377 0.02624 0.04011 0.0
C1143 C 0.48239 0.04203 0.03366 0.0
C1144 C 0.45737 0.01929 0.04559 0.0
C1145 C 0.44931 0.02794 0.0444 0.0
C1146 C 0.45785 0.04355 0.03742 0.0
H1147 H 0.36784 0.03329 0.08627 0.0
H1148 H 0.39294 0.03619 0.07184 0.0
C1149 C 0.47415 0.05048 0.03207 0.0
C1150 C 0.43263 0.02155 0.05266 0.0
H1151 H 0.39638 0.01885 0.04215 0.0
C1152 C 0.42983 0.01725 0.07343 0.0
C1153 C 0.42018 0.02157 0.04108 0.0
C1154 C 0.42207 0.02515 0.0184 0.0
C1155 C 0.41538 0.01406 0.08329 0.0
C1156 C 0.40324 0.01494 0.07204 0.0
C1157 C 0.40572 0.01838 0.05094 0.0
C1158 C 0.38834 0.0133 0.08197 0.0
C1159 C 0.41387 0.01111 0.10601 0.0
C1160 C 0.37736 0.99953 0.09262 0.0
C1161 C 0.36314 0.998 0.10115 0.0
C1162 C 0.35958 0.01017 0.09912 0.0
C1163 C 0.37046 0.02386 0.08836 0.0
C1164 C 0.38475 0.02547 0.08004 0.0
H1165 H 0.4254 0.01342 0.11301 0.0
H1166 H 0.41002 0.01885 0.11323 0.0
H1167 H 0.40465 0.99874 0.10934 0.0
H1168 H 0.37951 0.98975 0.09381 0.0
H1169 H 0.35464 0.98708 0.10871 0.0
H1170 H 0.46927 0.04679 0.52575 0.0
H1171 H 0.45395 0.05973 0.51721 0.0
H1172 H 0.49258 0.09201 0.47734 0.0
H1173 H 0.50822 0.07897 0.48598 0.0
H1174 H 0.47153 0.10243 0.50994 0.0
H1175 H 0.43871 0.05628 0.45194 0.0
H1176 H 0.4433 0.05042 0.47603 0.0
H1177 H 0.45938 0.0627 0.45865 0.0
C1178 C 0.47473 0.05686 0.51548 0.0
C1179 C 0.49 0.06183 0.50655 0.0
C1180 C 0.4659 0.06425 0.5106 0.0
C1181 C 0.47201 0.07678 0.49654 0.0
C1182 C 0.48763 0.08238 0.4883 0.0
H1183 H 0.42079 0.12638 0.4565 0.0
H1184 H 0.44197 0.12024 0.46522 0.0
C1185 C 0.49661 0.07499 0.49333 0.0
C1186 C 0.46128 0.08285 0.4895 0.0
H1187 H 0.42797 0.07251 0.4603 0.0
C1188 C 0.46219 0.09611 0.49877 0.0
C1189 C 0.44891 0.07445 0.47522 0.0
C1190 C 0.44744 0.06019 0.46472 0.0
C1191 C 0.45083 0.10092 0.49449 0.0
C1192 C 0.43827 0.09236 0.48035 0.0
C1193 C 0.43757 0.07922 0.47095 0.0
C1194 C 0.42547 0.09645 0.47546 0.0
C1195 C 0.45194 0.11469 0.50592 0.0
C1196 C 0.40901 0.08515 0.47794 0.0
C1197 C 0.3969 0.08863 0.4727 0.0
C1198 C 0.40092 0.10334 0.46432 0.0
C1199 C 0.41733 0.11479 0.46236 0.0
C1200 C 0.42946 0.11134 0.46766 0.0
H1201 H 0.45922 0.11717 0.52003 0.0
H1202 H 0.45788 0.1253 0.49592 0.0
H1203 H 0.43977 0.11261 0.51024 0.0
H1204 H 0.40551 0.07359 0.48396 0.0
H1205 H 0.38436 0.07968 0.47477 0.0
H1206 H 1.00226 0.5082 0.53151 0.0
H1207 H 0.99753 0.48149 0.52717 0.0
H1208 H 0.99765 0.48693 0.46162 0.0
H1209 H 1.00233 0.51353 0.46572 0.0
H1210 H 0.97304 0.45353 0.50369 0.0
H1211 H 0.0362 0.47912 0.47506 0.0
H1212 H 0.02927 0.49041 0.48914 0.0
H1213 H 0.02421 0.48609 0.46264 0.0
C1214 C 1.00088 0.5036 0.51617 0.0
C1215 C 1.00282 0.51312 0.49896 0.0
C1216 C 0.99823 0.48832 0.51373 0.0
C1217 C 0.99751 0.48232 0.49406 0.0
C1218 C 0.99838 0.4914 0.47693 0.0
H1219 H 0.97649 0.38947 0.45435 0.0
H1220 H 0.97586 0.41361 0.46094 0.0
C1221 C 1.00098 0.50662 0.47933 0.0
C1222 C 0.99712 0.46712 0.49133 0.0
H1223 H 0.01984 0.45156 0.47381 0.0
C1224 C 0.98325 0.45307 0.49717 0.0
C1225 C 0.01054 0.46656 0.48306 0.0
C1226 C 0.02598 0.48133 0.47723 0.0
C1227 C 0.98237 0.43844 0.4946 0.0
C1228 C 0.99566 0.43787 0.48586 0.0
C1229 C 0.00961 0.45197 0.48037 0.0
C1230 C 0.99551 0.42283 0.48247 0.0
C1231 C 0.96731 0.42373 0.50154 0.0
C1232 C 1.00692 0.42002 0.49212 0.0
C1233 C 1.00735 0.40623 0.48836 0.0
C1234 C 0.99647 0.39495 0.47467 0.0
C1235 C 0.98503 0.39781 0.46503 0.0
C1236 C 0.98457 0.41159 0.46888 0.0
H1237 H 0.9599 0.42635 0.51224 0.0
H1238 H 0.95986 0.41779 0.48799 0.0
H1239 H 0.97039 0.41547 0.5092 0.0
H1240 H 0.01555 0.42855 0.50256 0.0
H1241 H 0.01638 0.40454 0.49602 0.0
H1242 H 0.57768 0.58432 0.4737 0.0
H1243 H 0.60251 0.60832 0.46409 0.0
H1244 H 0.63056 0.59099 0.49428 0.0
H1245 H 0.60566 0.56699 0.50434 0.0
H1246 H 0.63884 0.62293 0.50419 0.0
H1247 H 0.63611 0.61219 0.42046 0.0
H1248 H 0.61795 0.61015 0.4317 0.0
H1249 H 0.62469 0.59674 0.43897 0.0
C1250 C 0.58913 0.58561 0.47828 0.0
C1251 C 0.58974 0.57379 0.48978 0.0
C1252 C 0.60329 0.59927 0.47268 0.0
C1253 C 0.61831 0.60134 0.47841 0.0
C1254 C 0.61903 0.58954 0.48971 0.0
H1255 H 0.71097 0.67019 0.42991 0.0
H1256 H 0.68623 0.64659 0.44064 0.0
C1257 C 0.60484 0.5758 0.49526 0.0
C1258 C 0.63323 0.61596 0.47275 0.0
H1259 H 0.65582 0.63719 0.43169 0.0
C1260 C 0.64261 0.62613 0.48833 0.0
C1261 C 0.6381 0.61994 0.45209 0.0
C1262 C 0.62879 0.60915 0.43481 0.0
C1263 C 0.65672 0.64034 0.48373 0.0
C1264 C 0.66137 0.64452 0.46298 0.0
C1265 C 0.65206 0.63419 0.44751 0.0
C1266 C 0.67635 0.65906 0.45688 0.0
C1267 C 0.66674 0.65051 0.5011 0.0
C1268 C 0.67899 0.67397 0.46234 0.0
C1269 C 0.69324 0.68752 0.45628 0.0
C1270 C 0.70471 0.68628 0.44418 0.0
C1271 C 0.70205 0.67141 0.43881 0.0
C1272 C 0.68799 0.65793 0.44501 0.0
H1273 H 0.66384 0.64381 0.51578 0.0
H1274 H 0.67983 0.65566 0.49777 0.0
H1275 H 0.6642 0.66025 0.50318 0.0
H1276 H 0.67001 0.67512 0.47114 0.0
H1277 H 0.6952 0.69892 0.46072 0.0
H1278 H 0.04659 0.60006 0.01144 0.0
H1279 H 0.04293 0.62265 1.00578 0.0
H1280 H 0.03355 0.61091 0.94196 0.0
H1281 H 0.03723 0.58828 0.94737 0.0
H1282 H 0.0528 0.64482 0.95155 0.0
H1283 H 0.99506 0.61179 0.99552 0.0
H1284 H 0.01296 0.61437 1.00792 0.0
H1285 H 1.00579 0.60248 0.98548 0.0
C1286 C 0.04413 0.60246 0.99607 0.0
C1287 C 0.04194 0.5922 0.9799 0.0
C1288 C 0.04199 0.61536 0.99291 0.0
C1289 C 0.03768 0.61821 0.97356 0.0
C1290 C 0.03679 0.6088 0.95704 0.0
H1291 H 0.9852 0.662 0.93146 0.0
H1292 H 0.99532 0.6445 0.94139 0.0
C1293 C 0.03891 0.59588 0.96017 0.0
C1294 C 0.03246 0.62994 0.97096 0.0
H1295 H 1.00156 0.63663 0.9825 0.0
C1296 C 0.04169 0.64315 0.95844 0.0
C1297 C 0.01785 0.62754 0.97981 0.0
C1298 C 1.00722 0.61324 0.99283 0.0
C1299 C 0.0366 0.65404 0.95446 0.0
C1300 C 0.02198 0.65161 0.9633 0.0
C1301 C 0.01282 0.63847 0.97591 0.0
C1302 C 0.01545 0.66206 0.95855 0.0
C1303 C 0.0466 0.6678 0.94033 0.0
C1304 C 0.02319 0.67758 0.96543 0.0
C1305 C 0.01737 0.68758 0.95991 0.0
C1306 C 1.00375 0.6822 0.94736 0.0
C1307 C 0.99572 0.66649 0.9411 0.0
C1308 C 1.0015 0.65649 0.94673 0.0
H1309 H 0.0562 0.66663 0.93223 0.0
H1310 H 0.03882 0.66902 0.92877 0.0
H1311 H 0.05244 0.67873 0.94938 0.0
H1312 H 0.03385 0.682 0.97481 0.0
H1313 H 0.02381 0.69963 0.96497 0.0
H1314 H 0.50058 0.5107 0.98228 0.0
H1315 H 0.48135 0.48404 0.97107 0.0
H1316 H 0.47797 0.46673 0.03277 0.0
H1317 H 0.49734 0.49316 0.04398 0.0
H1318 H 0.47853 0.44643 1.00547 0.0
H1319 H 0.43314 0.4625 0.98137 0.0
H1320 H 0.45234 0.4736 0.9686 0.0
H1321 H 0.45077 0.47558 0.99577 0.0
C1322 C 0.49594 0.50119 0.99343 0.0
C1323 C 0.50056 0.50422 0.0141 0.0
C1324 C 0.48475 0.48593 0.98702 0.0
C1325 C 0.47781 0.47329 1.00112 0.0
C1326 C 0.48298 0.47619 0.02155 0.0
H1327 H 0.38728 0.38466 0.98829 0.0
H1328 H 0.40912 0.41068 0.99784 0.0
C1329 C 0.49413 0.4914 0.02795 0.0
C1330 C 0.46498 0.45713 0.9949 0.0
H1331 H 0.4271 0.43655 0.9746 0.0
C1332 C 0.46731 0.4443 0.99866 0.0
C1333 C 0.45013 0.45416 0.98634 0.0
C1334 C 0.44632 0.46714 0.98294 0.0
C1335 C 0.45539 0.42878 0.99402 0.0
C1336 C 0.44071 0.42586 0.98499 0.0
C1337 C 0.43834 0.43867 0.98135 0.0
C1338 C 0.42752 0.40964 0.97958 0.0
C1339 C 0.4585 0.4156 0.99942 0.0
C1340 C 0.43039 0.40018 0.96606 0.0
C1341 C 0.41788 0.3852 0.96065 0.0
C1342 C 0.4021 0.37928 0.96848 0.0
C1343 C 0.39925 0.38874 0.98203 0.0
C1344 C 0.41177 0.4037 0.98745 0.0
H1345 H 0.46794 0.41915 0.01128 0.0
H1346 H 0.44732 0.40511 1.00511 0.0
H1347 H 0.46279 0.41226 0.98554 0.0
H1348 H 0.44226 0.4045 0.95932 0.0
H1349 H 0.42054 0.37837 0.95002 0.0
H1350 H 0.5609 0.04311 0.98377 0.0
H1351 H 0.5852 0.04373 0.96992 0.0
H1352 H 0.60735 0.05676 0.02926 0.0
H1353 H 0.58334 0.05641 0.04292 0.0
H1354 H 0.61453 0.0735 0.97219 0.0
H1355 H 0.6221 0.02631 1.00759 0.0
H1356 H 0.60267 0.02508 1.00538 0.0
H1357 H 0.61623 0.03646 0.02538 0.0
C1358 C 0.57067 0.04534 0.99402 0.0
C1359 C 0.57026 0.04957 0.01443 0.0
C1360 C 0.58457 0.04581 0.98609 0.0
C1361 C 0.59804 0.05018 0.9986 0.0
C1362 C 0.59702 0.05307 0.01941 0.0
H1363 H 0.69978 0.08699 0.99763 0.0
H1364 H 0.67108 0.07717 1.00462 0.0
C1365 C 0.5833 0.05287 0.02721 0.0
C1366 C 0.61405 0.05462 0.98954 0.0
H1367 H 0.64614 0.04873 0.99448 0.0
C1368 C 0.62135 0.06787 0.97662 0.0
C1369 C 0.62297 0.04743 0.99568 0.0
C1370 C 0.61556 0.03294 1.00914 0.0
C1371 C 0.63763 0.07468 0.97063 0.0
C1372 C 0.64678 0.0678 0.97726 0.0
C1373 C 0.63921 0.0541 0.98946 0.0
C1374 C 0.66438 0.07505 0.9727 0.0
C1375 C 0.64523 0.08991 0.95875 0.0
C1376 C 0.67029 0.07744 0.95243 0.0
C1377 C 0.68677 0.08334 0.94845 0.0
C1378 C 0.69758 0.0869 0.96467 0.0
C1379 C 0.69171 0.08463 0.98489 0.0
C1380 C 0.67531 0.07891 0.98887 0.0
H1381 H 0.63731 0.09516 0.95808 0.0
H1382 H 0.65672 0.09839 0.96603 0.0
H1383 H 0.64785 0.08794 0.94282 0.0
H1384 H 0.66211 0.07416 0.93966 0.0
H1385 H 0.69093 0.08442 0.93273 0.0
H1386 H 0.54694 1.00806 0.51968 0.0
H1387 H 0.5698 1.00596 0.53128 0.0
H1388 H 0.59202 0.053 0.55456 0.0
H1389 H 0.56879 0.05532 0.54267 0.0
H1390 H 0.61409 0.04552 0.53363 0.0
H1391 H 0.57744 1.00001 0.59159 0.0
H1392 H 0.5687 0.99525 0.5666 0.0
H1393 H 0.57059 0.01218 0.57954 0.0
C1394 C 0.55661 0.01806 0.52727 0.0
C1395 C 0.55581 0.03182 0.53046 0.0
C1396 C 0.56973 0.01678 0.53397 0.0
C1397 C 0.58252 0.02914 0.54425 0.0
C1398 C 0.58221 0.04321 0.54684 0.0
H1399 H 0.64883 1.0065 0.60941 0.0
H1400 H 0.62931 0.01485 0.60096 0.0
C1401 C 0.56894 0.04454 0.54003 0.0
C1402 C 0.59589 0.02691 0.5523 0.0
H1403 H 0.60264 1.0022 0.58229 0.0
C1404 C 0.61163 0.03613 0.5444 0.0
C1405 C 0.59286 0.01486 0.56667 0.0
C1406 C 0.57652 1.00511 0.57677 0.0
C1407 C 0.62416 0.03315 0.54974 0.0
C1408 C 0.62082 0.02034 0.56302 0.0
C1409 C 0.60526 0.0117 0.57168 0.0
C1410 C 0.63312 0.01559 0.56811 0.0
C1411 C 0.64088 0.04396 0.54129 0.0
C1412 C 0.64179 0.01294 0.55261 0.0
C1413 C 0.6531 0.00831 0.5575 0.0
C1414 C 0.65554 1.00557 0.57795 0.0
C1415 C 0.64687 0.00811 0.59346 0.0
C1416 C 0.63577 0.01299 0.58862 0.0
H1417 H 0.64266 0.05579 0.5378 0.0
H1418 H 0.65032 0.04524 0.55218 0.0
H1419 H 0.64253 0.03912 0.52676 0.0
H1420 H 0.63972 0.01431 0.53664 0.0
H1421 H 0.65975 1.0066 0.54526 0.0
H1422 H 0.0597 0.60811 0.56774 0.0
H1423 H 0.062 0.63337 0.57511 0.0
H1424 H 0.01885 0.62029 0.54068 0.0
H1425 H 0.0163 0.59462 0.53356 0.0
H1426 H 0.06686 0.65542 0.54681 0.0
H1427 H 0.01088 0.63946 0.59122 0.0
H1428 H 0.01785 0.62572 0.58682 0.0
H1429 H 1.00776 0.63004 0.56686 0.0
C1430 C 0.0505 0.61044 0.56203 0.0
C1431 C 0.0378 0.59931 0.55007 0.0
C1432 C 0.05186 0.62496 0.56622 0.0
C1433 C 0.04061 0.62883 0.55854 0.0
C1434 C 0.02756 0.61754 0.54712 0.0
H1435 H 0.04315 0.71945 0.56379 0.0
H1436 H 0.03639 0.6926 0.55531 0.0
C1437 C 0.02609 0.60285 0.54304 0.0
C1438 C 0.04345 0.64507 0.56142 0.0
H1439 H 0.02772 0.66633 0.58271 0.0
C1440 C 0.05826 0.65776 0.55466 0.0
C1441 C 0.03223 0.64822 0.57152 0.0
C1442 C 0.01634 0.63517 0.5797 0.0
C1443 C 0.06224 0.6734 0.55791 0.0
C1444 C 0.05121 0.67655 0.56843 0.0
C1445 C 0.0362 0.66391 0.57471 0.0
C1446 C 0.05531 0.69288 0.57356 0.0
C1447 C 0.07824 0.68645 0.54996 0.0
C1448 C 0.06814 0.70197 0.58674 0.0
C1449 C 0.07202 0.71731 0.59164 0.0
C1450 C 0.06316 0.72392 0.58346 0.0
C1451 C 0.0503 0.71478 0.57026 0.0
C1452 C 0.04636 0.6994 0.56546 0.0
H1453 H 0.08339 0.68231 0.53784 0.0
H1454 H 0.07699 0.69629 0.54366 0.0
H1455 H 0.08694 0.691 0.56274 0.0
H1456 H 0.07508 0.69715 0.59342 0.0
H1457 H 0.08192 0.72395 0.60195 0.0
H1458 H 0.47284 0.49363 0.53186 0.0
H1459 H 0.44523 0.47835 0.54499 0.0
H1460 H 0.4632 0.47637 0.6047 0.0
H1461 H 0.49101 0.49178 0.59159 0.0
H1462 H 0.43768 0.44766 0.59163 0.0
H1463 H 0.42284 0.49501 0.58253 0.0
H1464 H 0.43082 0.49155 0.55945 0.0
H1465 H 0.44332 0.49867 0.58175 0.0
C1466 C 0.47092 0.49 0.54781 0.0
C1467 C 0.48407 0.49405 0.56076 0.0
C1468 C 0.45516 0.48134 0.5553 0.0
C1469 C 0.45223 0.47664 0.57593 0.0
C1470 C 0.46527 0.48009 0.58878 0.0
H1471 H 0.35689 0.41641 0.63285 0.0
H1472 H 0.38576 0.43579 0.62945 0.0
C1473 C 0.48111 0.48876 0.58125 0.0
C1474 C 0.43544 0.46775 0.58374 0.0
H1475 H 0.40033 0.46881 0.58636 0.0
C1476 C 0.42956 0.45235 0.59085 0.0
C1477 C 0.42495 0.47399 0.58279 0.0
C1478 C 0.43084 0.49077 0.57641 0.0
C1479 C 0.41319 0.44267 0.59589 0.0
C1480 C 0.40257 0.44868 0.59394 0.0
C1481 C 0.40856 0.46429 0.58771 0.0
C1482 C 0.385 0.43849 0.59662 0.0
C1483 C 0.40719 0.42586 0.60227 0.0
C1484 C 0.37509 0.43401 0.57936 0.0
C1485 C 0.35869 0.42307 0.5813 0.0
C1486 C 0.35196 0.41684 0.6006 0.0
C1487 C 0.36181 0.42153 0.61793 0.0
C1488 C 0.37825 0.43242 0.61598 0.0
H1489 H 0.41659 0.42248 0.60038 0.0
H1490 H 0.4034 0.42424 0.61863 0.0
H1491 H 0.3965 0.4178 0.59315 0.0
H1492 H 0.38017 0.43853 0.56429 0.0
H1493 H 0.3513 0.41927 0.56772 0.0
H1494 H 0.71464 0.8558 0.39553 0.0
H1495 H 0.71697 0.8334 0.40755 0.0
H1496 H 0.7591 0.84847 0.36894 0.0
H1497 H 0.75713 0.8712 0.35761 0.0
H1498 H 0.71376 0.81005 0.38676 0.0
H1499 H 0.77484 0.83816 0.41954 0.0
H1500 H 0.76502 0.84916 0.41294 0.0
H1501 H 0.77557 0.8446 0.39362 0.0
C1502 C 0.72451 0.8544 0.38986 0.0
C1503 C 0.73572 0.86522 0.37569 0.0
C1504 C 0.72586 0.84164 0.39675 0.0
C1505 C 0.73836 0.83932 0.38943 0.0
C1506 C 0.74966 0.85022 0.37537 0.0
H1507 H 0.73114 0.74957 0.37562 0.0
H1508 H 0.73193 0.77461 0.37242 0.0
C1509 C 0.74847 0.86316 0.36877 0.0
C1510 C 0.73867 0.82478 0.39503 0.0
H1511 H 0.76333 0.8109 0.41051 0.0
C1512 C 0.72457 0.81029 0.39222 0.0
C1513 C 0.75265 0.825 0.40252 0.0
C1514 C 0.7678 0.84008 0.40754 0.0
C1515 C 0.7242 0.79607 0.39594 0.0
C1516 C 0.73851 0.79628 0.4019 0.0
C1517 C 0.75245 0.81074 0.40556 0.0
C1518 C 0.73929 0.78162 0.40367 0.0
C1519 C 0.70841 0.78096 0.39351 0.0
C1520 C 0.74404 0.77758 0.42198 0.0
C1521 C 0.74391 0.76331 0.42375 0.0
C1522 C 0.73893 0.75284 0.40725 0.0
C1523 C 0.73476 0.75723 0.38874 0.0
C1524 C 0.73512 0.77152 0.38691 0.0
H1525 H 0.69795 0.78279 0.39584 0.0
H1526 H 0.70771 0.77657 0.37772 0.0
H1527 H 0.7073 0.77181 0.40451 0.0
H1528 H 0.74746 0.78527 0.43505 0.0
H1529 H 0.74721 0.76026 0.43819 0.0
H1530 H 0.21364 0.96023 0.40919 0.0
H1531 H 0.23748 0.98549 0.41638 0.0
H1532 H 0.26518 0.97565 0.37272 0.0
H1533 H 0.24136 0.9503 0.36546 0.0
H1534 H 0.28163 0.98741 0.40826 0.0
H1535 H 0.25734 0.02507 0.38169 0.0
H1536 H 0.24491 0.01092 0.40085 0.0
H1537 H 0.24759 1.00439 0.37621 0.0
C1538 C 0.22472 0.96347 0.4009 0.0
C1539 C 0.22545 0.95316 0.38662 0.0
C1540 C 0.23839 0.97799 0.40502 0.0
C1541 C 0.25313 0.9827 0.39484 0.0
C1542 C 0.25397 0.97237 0.38075 0.0
H1543 H 0.34979 0.06503 0.39673 0.0
H1544 H 0.32567 0.03995 0.3897 0.0
C1545 C 0.24031 0.95781 0.37666 0.0
C1546 C 0.26776 0.99817 0.39924 0.0
H1547 H 0.28219 0.03779 0.39948 0.0
C1548 C 0.28176 0.99842 0.40622 0.0
C1549 C 0.268 0.0126 0.39666 0.0
C1550 C 0.25372 0.01331 0.38826 0.0
C1551 C 0.2958 0.01258 0.41099 0.0
C1552 C 0.29603 0.027 0.40845 0.0
C1553 C 0.28204 0.02676 0.40151 0.0
C1554 C 0.31071 0.04244 0.41266 0.0
C1555 C 0.31019 0.01195 0.41916 0.0
C1556 C 0.31032 0.05248 0.42757 0.0
C1557 C 0.32414 0.06694 0.43162 0.0
C1558 C 0.33867 0.07179 0.4207 0.0
C1559 C 0.3389 0.06176 0.40554 0.0
C1560 C 0.32511 0.04731 0.40156 0.0
H1561 H 0.30675 1.00012 0.42529 0.0
H1562 H 0.3191 0.01476 0.40656 0.0
H1563 H 0.31616 0.02066 0.43147 0.0
H1564 H 0.29934 0.04905 0.43626 0.0
H1565 H 0.32341 0.07431 0.44335 0.0
H1566 H 0.15425 0.41204 0.36378 0.0
H1567 H 0.127 0.40452 0.37484 0.0
H1568 H 0.1189 0.35903 0.3936 0.0
H1569 H 0.14643 0.36645 0.38206 0.0
H1570 H 0.09251 0.35783 0.37321 0.0
H1571 H 0.11341 0.40219 0.43436 0.0
H1572 H 0.12197 0.41074 0.40984 0.0
H1573 H 0.12677 0.39694 0.42147 0.0
C1574 C 0.14675 0.40041 0.37026 0.0
C1575 C 0.15263 0.38991 0.3723 0.0
C1576 C 0.13114 0.39616 0.37667 0.0
C1577 C 0.12104 0.38138 0.38557 0.0
C1578 C 0.12658 0.37058 0.38698 0.0
H1579 H 0.02337 0.34138 0.43625 0.0
H1580 H 0.04937 0.34541 0.4237 0.0
C1581 C 0.14228 0.37481 0.38039 0.0
C1582 C 0.10478 0.37749 0.39334 0.0
H1583 H 0.08584 0.39111 0.42464 0.0
C1584 C 0.09102 0.36494 0.38469 0.0
C1585 C 0.10283 0.38679 0.4083 0.0
C1586 C 0.11704 0.39981 0.41919 0.0
C1587 C 0.07539 0.36181 0.3901 0.0
C1588 C 0.07351 0.3714 0.40465 0.0
C1589 C 0.08727 0.3838 0.41345 0.0
C1590 C 0.0574 0.36866 0.41135 0.0
C1591 C 0.06107 0.34858 0.37969 0.0
C1592 C 0.05331 0.38046 0.40884 0.0
C1593 C 0.03848 0.3782 0.41618 0.0
C1594 C 0.02775 0.36429 0.42663 0.0
C1595 C 0.03166 0.35237 0.42867 0.0
C1596 C 0.0464 0.35457 0.42126 0.0
H1597 H 0.06463 0.34514 0.36525 0.0
H1598 H 0.05551 0.33818 0.39007 0.0
H1599 H 0.0518 0.35187 0.37617 0.0
H1600 H 0.06164 0.39144 0.40129 0.0
H1601 H 0.03557 0.38744 0.41416 0.0
H1602 H 0.12527 0.34828 0.84485 0.0
H1603 H 0.109 0.35947 0.83385 0.0
H1604 H 0.15172 0.40493 0.82753 0.0
H1605 H 0.16845 0.39362 0.83858 0.0
H1606 H 0.10542 0.38326 0.85155 0.0
H1607 H 0.12927 0.39913 0.77172 0.0
H1608 H 0.13293 0.38613 0.78753 0.0
H1609 H 0.14375 0.40686 0.79201 0.0
C1610 C 0.13138 0.36069 0.84112 0.0
C1611 C 0.1483 0.37 0.84254 0.0
C1612 C 0.12195 0.36709 0.83484 0.0
C1613 C 0.12904 0.38302 0.82961 0.0
C1614 C 0.14594 0.39253 0.83117 0.0
H1615 H 0.07644 0.42764 0.77744 0.0
H1616 H 0.09783 0.42311 0.79042 0.0
C1617 C 0.1555 0.38608 0.83761 0.0
C1618 C 0.11837 0.38926 0.82279 0.0
H1619 H 0.10793 0.40327 0.781 0.0
C1620 C 0.10603 0.3877 0.83612 0.0
C1621 C 0.11916 0.39519 0.80273 0.0
C1622 C 0.1319 0.39688 0.78754 0.0
C1623 C 0.09433 0.39153 0.82988 0.0
C1624 C 0.09461 0.39671 0.80947 0.0
C1625 C 0.1074 0.39897 0.79644 0.0
C1626 C 0.08157 0.39944 0.80127 0.0
C1627 C 0.08189 0.39012 0.84539 0.0
C1628 C 0.06522 0.38763 0.80263 0.0
C1629 C 0.05299 0.39026 0.79528 0.0
C1630 C 0.05684 0.40455 0.78571 0.0
C1631 C 0.07315 0.41635 0.78424 0.0
C1632 C 0.08538 0.41378 0.79178 0.0
H1633 H 0.08647 0.39138 0.86126 0.0
H1634 H 0.07831 0.39912 0.84269 0.0
H1635 H 0.071 0.37833 0.84428 0.0
H1636 H 0.06187 0.37631 0.80934 0.0
H1637 H 0.04052 0.38103 0.7968 0.0
H1638 H 0.68757 0.83476 0.79867 0.0
H1639 H 0.67801 0.80724 0.79033 0.0
H1640 H 0.71358 0.80716 0.83044 0.0
H1641 H 0.72295 0.83442 0.83916 0.0
H1642 H 0.6961 0.79333 0.77375 0.0
H1643 H 0.6701 0.76965 0.85083 0.0
H1644 H 0.67492 0.78901 0.84224 0.0
H1645 H 0.69063 0.78549 0.85093 0.0
C1646 C 0.69331 0.82886 0.80576 0.0
C1647 C 0.706 0.83681 0.81963 0.0
C1648 C 0.68788 0.81317 0.80092 0.0
C1649 C 0.69494 0.80513 0.81002 0.0
C1650 C 0.70782 0.8131 0.82349 0.0
H1651 H 0.68599 0.71393 0.80811 0.0
H1652 H 0.69223 0.74076 0.81464 0.0
C1653 C 0.71329 0.82877 0.82827 0.0
C1654 C 0.68893 0.78839 0.80547 0.0
H1655 H 0.6724 0.75213 0.82799 0.0
C1656 C 0.69076 0.78427 0.78552 0.0
C1657 C 0.68198 0.77665 0.8209 0.0
C1658 C 0.67913 0.78034 0.8424 0.0
C1659 C 0.68638 0.76874 0.78074 0.0
C1660 C 0.6797 0.75703 0.79628 0.0
C1661 C 0.67756 0.76113 0.81613 0.0
C1662 C 0.67542 0.74056 0.79247 0.0
C1663 C 0.68951 0.76514 0.75932 0.0
C1664 C 0.66366 0.73142 0.77811 0.0
C1665 C 0.66005 0.71604 0.77427 0.0
C1666 C 0.66807 0.70946 0.78486 0.0
C1667 C 0.67956 0.71856 0.79964 0.0
C1668 C 0.68317 0.73393 0.8034 0.0
H1669 H 0.69811 0.77593 0.7507 0.0
H1670 H 0.69442 0.75702 0.75967 0.0
H1671 H 0.67799 0.75937 0.75084 0.0
H1672 H 0.65728 0.73619 0.76982 0.0
H1673 H 0.65107 0.70937 0.76289 0.0
H1674 H 0.24487 0.90988 0.86913 0.0
H1675 H 0.27209 0.9322 0.86413 0.0
H1676 H 0.26714 0.92629 0.7987 0.0
H1677 H 0.23981 0.90409 0.80348 0.0
H1678 H 0.30008 0.93632 0.84449 0.0
H1679 H 0.27642 0.97138 0.80707 0.0
H1680 H 0.26356 0.95326 0.82071 0.0
H1681 H 0.27021 0.95293 0.79497 0.0
C1682 C 0.24963 0.91316 0.85366 0.0
C1683 C 0.24007 0.9053 0.83667 0.0
C1684 C 0.26519 0.92595 0.85086 0.0
C1685 C 0.27146 0.9311 0.83105 0.0
C1686 C 0.26235 0.9227 0.81411 0.0
H1687 H 0.36742 0.99367 0.78813 0.0
H1688 H 0.34226 0.97159 0.8011 0.0
C1689 C 0.24678 0.90994 0.81688 0.0
C1690 C 0.28722 0.94563 0.82805 0.0
H1691 H 0.30478 0.98197 0.80577 0.0
C1692 C 0.30114 0.94633 0.83605 0.0
C1693 C 0.2885 0.95885 0.81759 0.0
C1694 C 0.27387 0.95919 0.80976 0.0
C1695 C 0.31643 0.95966 0.83303 0.0
C1696 C 0.31782 0.97249 0.82141 0.0
C1697 C 0.30378 0.97206 0.81435 0.0
C1698 C 0.33368 0.986 0.81514 0.0
C1699 C 0.33088 0.95986 0.84248 0.0
C1700 C 0.33718 1.00151 0.81836 0.0
C1701 C 0.35148 0.01417 0.81052 0.0
C1702 C 0.36223 0.01142 0.79901 0.0
C1703 C 0.35905 0.996 0.79653 0.0
C1704 C 0.34481 0.98339 0.80427 0.0
H1705 H 0.32739 0.95238 0.85652 0.0
H1706 H 0.33611 0.95506 0.8314 0.0
H1707 H 0.34033 0.97194 0.8465 0.0
H1708 H 0.32875 1.00381 0.82665 0.0
H1709 H 0.35389 0.02603 0.81289 0.0
H1710 H 0.73502 0.96663 0.31201 0.0
H1711 H 0.72738 0.98657 0.30584 0.0
H1712 H 0.67756 0.95239 0.31829 0.0
H1713 H 0.68501 0.93233 0.32422 0.0
H1714 H 0.7057 0.98626 0.27653 0.0
H1715 H 0.68591 0.98916 0.35576 0.0
H1716 H 0.69797 0.98024 0.34987 0.0
H1717 H 0.67663 0.96978 0.3453 0.0
C1718 C 0.72242 0.9633 0.31336 0.0
C1719 C 0.71066 0.94783 0.3187 0.0
C1720 C 0.71809 0.97475 0.30992 0.0
C1721 C 0.70194 0.97101 0.31189 0.0
C1722 C 0.69015 0.95561 0.31712 0.0
H1723 H 0.65903 0.02446 0.26394 0.0
H1724 H 0.66606 1.00423 0.27169 0.0
C1725 C 0.69445 0.94414 0.32054 0.0
C1726 C 0.69737 0.98312 0.30785 0.0
H1727 H 0.68046 1.00296 0.32997 0.0
C1728 C 0.70021 0.98994 0.28821 0.0
C1729 C 0.69034 0.98799 0.32318 0.0
C1730 C 0.68764 0.98154 0.34478 0.0
C1731 C 0.69602 1.00138 0.2834 0.0
C1732 C 0.68862 1.00595 0.29858 0.0
C1733 C 0.68598 0.9993 0.31831 0.0
C1734 C 0.68388 0.01792 0.29439 0.0
C1735 C 0.6998 0.00865 0.26222 0.0
C1736 C 0.69124 0.03214 0.305 0.0
C1737 C 0.68722 0.04369 0.30066 0.0
C1738 C 0.67567 0.04119 0.28571 0.0
C1739 C 0.66803 0.02678 0.27546 0.0
C1740 C 0.67209 0.01524 0.27979 0.0
H1741 H 0.70878 1.00659 0.25403 0.0
H1742 H 0.68858 1.00338 0.25311 0.0
H1743 H 0.70453 0.02149 0.26295 0.0
H1744 H 0.70031 0.03441 0.31639 0.0
H1745 H 0.69329 0.05465 0.30887 0.0
H1746 H 0.14999 0.83254 0.35404 0.0
H1747 H 0.13308 0.8057 0.34231 0.0
H1748 H 0.10326 0.81972 0.30961 0.0
H1749 H 0.12047 0.84674 0.32057 0.0
H1750 H 0.10149 0.78514 0.34882 0.0
H1751 H 0.1127 0.7967 0.26549 0.0
H1752 H 0.12468 0.81105 0.28439 0.0
H1753 H 0.10532 0.80836 0.27727 0.0
C1754 C 0.14001 0.83005 0.3441 0.0
C1755 C 0.13679 0.84201 0.33815 0.0
C1756 C 0.13024 0.8146 0.33751 0.0
C1757 C 0.11703 0.81066 0.32474 0.0
C1758 C 0.11359 0.82248 0.31904 0.0
H1759 H 0.03431 0.71856 0.30532 0.0
H1760 H 0.05382 0.74484 0.31677 0.0
C1761 C 0.12337 0.83795 0.32559 0.0
C1762 C 0.10661 0.79414 0.31787 0.0
H1763 H 0.09102 0.77147 0.27538 0.0
C1764 C 0.09929 0.78216 0.33275 0.0
C1765 C 0.10392 0.79012 0.29689 0.0
C1766 C 0.1122 0.80221 0.28007 0.0
C1767 C 0.08904 0.76642 0.32728 0.0
C1768 C 0.08571 0.76252 0.30634 0.0
C1769 C 0.0934 0.77443 0.29144 0.0
C1770 C 0.07397 0.74627 0.29962 0.0
C1771 C 0.08202 0.7541 0.34404 0.0
C1772 C 0.07861 0.73833 0.28575 0.0
C1773 C 0.06738 0.72324 0.27901 0.0
C1774 C 0.05124 0.71583 0.28592 0.0
C1775 C 0.04666 0.72382 0.2998 0.0
C1776 C 0.05785 0.73887 0.30648 0.0
H1777 H 0.08948 0.75801 0.35807 0.0
H1778 H 0.06978 0.75188 0.34818 0.0
H1779 H 0.08099 0.74289 0.33898 0.0
H1780 H 0.09094 0.74382 0.28012 0.0
H1781 H 0.0713 0.71747 0.26824 0.0
H1782 H 0.22854 0.38409 0.29769 0.0
H1783 H 0.25531 0.38718 0.29461 0.0
H1784 H 0.25515 0.37836 0.35946 0.0
H1785 H 0.22846 0.37588 0.36282 0.0
H1786 H 0.28134 0.40382 0.3496 0.0
H1787 H 0.27469 0.35987 0.29299 0.0
H1788 H 0.26689 0.37164 0.28276 0.0
H1789 H 0.25747 0.35946 0.3051 0.0
C1790 C 0.23396 0.38238 0.31126 0.0
C1791 C 0.22631 0.37979 0.33054 0.0
C1792 C 0.24932 0.38406 0.30943 0.0
C1793 C 0.25729 0.38283 0.32674 0.0
C1794 C 0.24928 0.37933 0.34584 0.0
H1795 H 0.36238 0.41731 0.33603 0.0
H1796 H 0.33356 0.40464 0.34503 0.0
C1797 C 0.23396 0.37784 0.34774 0.0
C1798 C 0.27461 0.38715 0.32521 0.0
H1799 H 0.30154 0.38246 0.29578 0.0
C1800 C 0.28573 0.39897 0.33802 0.0
C1801 C 0.28042 0.38074 0.31031 0.0
C1802 C 0.26919 0.3671 0.2972 0.0
C1803 C 0.30246 0.40524 0.33554 0.0
C1804 C 0.30836 0.39955 0.31971 0.0
C1805 C 0.29716 0.38715 0.3076 0.0
C1806 C 0.32592 0.40676 0.31457 0.0
C1807 C 0.31348 0.41821 0.34966 0.0
C1808 C 0.33128 0.41149 0.29427 0.0
C1809 C 0.34764 0.41827 0.28907 0.0
C1810 C 0.35912 0.42103 0.30413 0.0
C1811 C 0.35381 0.41586 0.32429 0.0
C1812 C 0.33735 0.4087 0.32944 0.0
H1813 H 0.31611 0.41297 0.36315 0.0
H1814 H 0.32503 0.42648 0.34208 0.0
H1815 H 0.30775 0.42492 0.35535 0.0
H1816 H 0.32279 0.40995 0.28237 0.0
H1817 H 0.3513 0.42127 0.27319 0.0
H1818 H 0.23691 0.37929 0.8694 0.0
H1819 H 0.26315 0.38149 0.87771 0.0
H1820 H 0.23832 0.33512 0.90466 0.0
H1821 H 0.21251 0.33281 0.89643 0.0
H1822 H 0.27707 0.37815 0.91566 0.0
H1823 H 0.26734 0.33184 0.86055 0.0
H1824 H 0.25557 0.34156 0.86027 0.0
H1825 H 0.25073 0.32578 0.87815 0.0
C1826 C 0.2371 0.36967 0.87729 0.0
C1827 C 0.22256 0.3558 0.88197 0.0
C1828 C 0.25209 0.37091 0.88199 0.0
C1829 C 0.25274 0.3583 0.8914 0.0
C1830 C 0.23821 0.34485 0.89696 0.0
H1831 H 0.32549 0.34828 0.95713 0.0
H1832 H 0.30433 0.35373 0.94614 0.0
C1833 C 0.2234 0.34359 0.89225 0.0
C1834 C 0.26834 0.35864 0.89513 0.0
H1835 H 0.28757 0.33789 0.88565 0.0
C1836 C 0.27947 0.36945 0.90895 0.0
C1837 C 0.2717 0.34749 0.88615 0.0
C1838 C 0.26079 0.33611 0.87029 0.0
C1839 C 0.2934 0.36892 0.91473 0.0
C1840 C 0.29617 0.35705 0.9068 0.0
C1841 C 0.28542 0.34679 0.89218 0.0
C1842 C 0.30976 0.35468 0.9137 0.0
C1843 C 0.30505 0.38122 0.92914 0.0
C1844 C 0.31984 0.35303 0.89928 0.0
C1845 C 0.33169 0.34951 0.9056 0.0
C1846 C 0.33353 0.34721 0.92644 0.0
C1847 C 0.32395 0.34946 0.94091 0.0
C1848 C 0.31206 0.35292 0.93462 0.0
H1849 H 0.30452 0.39221 0.92783 0.0
H1850 H 0.30173 0.37684 0.94514 0.0
H1851 H 0.31766 0.38402 0.92611 0.0
H1852 H 0.31844 0.35433 0.88306 0.0
H1853 H 0.33917 0.3482 0.89415 0.0
H1854 H 0.75757 0.95673 0.86953 0.0
H1855 H 0.76097 0.98088 0.88469 0.0
H1856 H 0.70976 0.95818 0.89662 0.0
H1857 H 0.70621 0.93416 0.88137 0.0
H1858 H 0.74674 0.99806 0.87101 0.0
H1859 H 0.72916 0.97846 0.95162 0.0
H1860 H 0.73442 0.96783 0.93361 0.0
H1861 H 0.71464 0.96574 0.93335 0.0
C1862 C 0.74704 0.95685 0.87546 0.0
C1863 C 0.73163 0.94344 0.87426 0.0
C1864 C 0.74902 0.97064 0.88419 0.0
C1865 C 0.73565 0.97124 0.89202 0.0
C1866 C 0.7203 0.95785 0.89111 0.0
H1867 H 0.72128 0.05017 0.90915 0.0
H1868 H 0.72157 0.02673 0.89756 0.0
C1869 C 0.7183 0.94409 0.88238 0.0
C1870 C 0.73752 0.98613 0.89995 0.0
H1871 H 0.73025 1.00241 0.94179 0.0
C1872 C 0.74328 0.99907 0.88654 0.0
C1873 C 0.73315 0.98745 0.92027 0.0
C1874 C 0.72764 0.97418 0.93563 0.0
C1875 C 0.7443 0.01317 0.89272 0.0
C1876 C 0.73922 0.01424 0.91274 0.0
C1877 C 0.73397 1.00148 0.92637 0.0
C1878 C 0.73908 0.02846 0.91975 0.0
C1879 C 0.75083 0.02679 0.87778 0.0
C1880 C 0.74855 0.03699 0.93636 0.0
C1881 C 0.74836 0.05036 0.94308 0.0
C1882 C 0.73859 0.05535 0.93338 0.0
C1883 C 0.72899 0.04667 0.91688 0.0
C1884 C 0.7292 0.03333 0.91016 0.0
H1885 H 0.75807 0.02553 0.86533 0.0
H1886 H 0.7406 0.02731 0.87066 0.0
H1887 H 0.75847 0.03807 0.88568 0.0
H1888 H 0.75618 0.03336 0.94404 0.0
H1889 H 0.75587 0.05677 0.95587 0.0
H1890 H 0.16359 0.84075 0.92426 0.0
H1891 H 0.13628 0.81844 0.92841 0.0
H1892 H 0.13466 0.80923 0.86375 0.0
H1893 H 0.16196 0.8315 0.85939 0.0
H1894 H 0.11108 0.81956 0.90561 0.0
H1895 H 0.11286 0.76481 0.89131 0.0
H1896 H 0.13036 0.78277 0.89934 0.0
H1897 H 0.12379 0.78064 0.87328 0.0
C1898 C 0.15766 0.8337 0.91101 0.0
C1899 C 0.16491 0.83803 0.89145 0.0
C1900 C 0.14203 0.82097 0.91342 0.0
C1901 C 0.13348 0.8122 0.89639 0.0
C1902 C 0.14112 0.81572 0.87712 0.0
H1903 H 0.03291 0.74247 0.87555 0.0
H1904 H 0.06155 0.76234 0.87128 0.0
C1905 C 0.15673 0.82851 0.87466 0.0
C1906 C 0.11594 0.80102 0.89822 0.0
H1907 H 0.08699 0.76259 0.89304 0.0
C1908 C 0.10581 0.80707 0.90305 0.0
C1909 C 0.10913 0.78483 0.89445 0.0
C1910 C 0.11956 0.77778 0.88943 0.0
C1911 C 0.08901 0.79737 0.90407 0.0
C1912 C 0.08214 0.78112 0.90064 0.0
C1913 C 0.09228 0.77506 0.89568 0.0
C1914 C 0.06451 0.77017 0.90267 0.0
C1915 C 0.07868 0.80466 0.90808 0.0
C1916 C 0.05666 0.76811 0.92164 0.0
C1917 C 0.04036 0.75685 0.92405 0.0
C1918 C 0.03158 0.74757 0.90747 0.0
C1919 C 0.03936 0.74976 0.88842 0.0
C1920 C 0.0557 0.76101 0.88601 0.0
H1921 H 0.08549 0.8176 0.90579 0.0
H1922 H 0.06815 0.79959 0.89774 0.0
H1923 H 0.07419 0.80217 0.92415 0.0
H1924 H 0.06331 0.77476 0.93484 0.0
H1925 H 0.03483 0.75487 0.93911 0.0
H1926 H 0.42108 0.2006 0.74041 0.0
H1927 H 0.41913 0.17498 0.74564 0.0
H1928 H 0.38249 0.15507 0.69938 0.0
H1929 H 0.3844 0.18051 0.6941 0.0
H1930 H 0.37375 0.13771 0.73544 0.0
H1931 H 0.43485 0.15139 0.70946 0.0
H1932 H 0.4348 0.16439 0.7286 0.0
H1933 H 0.42666 0.16399 0.70373 0.0
C1934 C 0.41282 0.19081 0.73116 0.0
C1935 C 0.40281 0.19254 0.71698 0.0
C1936 C 0.41171 0.17619 0.73413 0.0
C1937 C 0.40073 0.16315 0.72279 0.0
C1938 C 0.39101 0.16496 0.70833 0.0
H1939 H 0.37132 0.06332 0.72484 0.0
H1940 H 0.37384 0.08881 0.71666 0.0
C1941 C 0.39206 0.1795 0.70541 0.0
C1942 C 0.39871 0.14739 0.72664 0.0
H1943 H 0.41862 0.1267 0.72595 0.0
C1944 C 0.38352 0.13526 0.73325 0.0
C1945 C 0.41147 0.14425 0.72373 0.0
C1946 C 0.42783 0.15664 0.71581 0.0
C1947 C 0.38086 0.12014 0.7375 0.0
C1948 C 0.39366 0.11703 0.73476 0.0
C1949 C 0.40881 0.12913 0.728 0.0
C1950 C 0.39182 0.10149 0.73966 0.0
C1951 C 0.36451 0.10775 0.74545 0.0
C1952 C 0.40123 0.10024 0.75508 0.0
C1953 C 0.39989 0.08578 0.75973 0.0
C1954 C 0.38914 0.07221 0.74896 0.0
C1955 C 0.37967 0.07349 0.73349 0.0
C1956 C 0.38104 0.08803 0.72885 0.0
H1957 H 0.35717 0.1129 0.75094 0.0
H1958 H 0.35784 0.0995 0.73293 0.0
H1959 H 0.36576 0.10091 0.75819 0.0
H1960 H 0.40963 0.11048 0.76359 0.0
H1961 H 0.4074 0.08531 0.77173 0.0
H1962 H 0.88642 0.255 0.68274 0.0
H1963 H 0.90583 0.28303 0.68832 0.0
H1964 H 0.91724 0.27161 0.74744 0.0
H1965 H 0.89826 0.24384 0.74179 0.0
H1966 H 0.91191 0.30621 0.71999 0.0
H1967 H 0.96035 0.291 0.7155 0.0
H1968 H 0.93992 0.27766 0.70776 0.0
H1969 H 0.94511 0.27977 0.73444 0.0
C1970 C 0.89265 0.25858 0.69721 0.0
C1971 C 0.89073 0.24722 0.71188 0.0
C1972 C 0.90386 0.27459 0.70033 0.0
C1973 C 0.9133 0.27945 0.71815 0.0
C1974 C 0.91038 0.2682 0.73341 0.0
H1975 H 0.98067 0.37303 0.76507 0.0
H1976 H 0.95697 0.34749 0.75807 0.0
C1977 C 0.89938 0.25231 0.73024 0.0
C1978 C 0.92712 0.29587 0.72031 0.0
H1979 H 0.96803 0.31661 0.72687 0.0
C1980 C 0.9242 0.30851 0.72138 0.0
C1981 C 0.94324 0.29901 0.72182 0.0
C1982 C 0.94742 0.28618 0.71963 0.0
C1983 C 0.93686 0.32404 0.72446 0.0
C1984 C 0.95291 0.32705 0.72686 0.0
C1985 C 0.9558 0.31442 0.72527 0.0
C1986 C 0.96698 0.34313 0.73071 0.0
C1987 C 0.93294 0.33709 0.72476 0.0
C1988 C 0.98079 0.34925 0.718 0.0
C1989 C 0.99445 0.36379 0.72212 0.0
C1990 C 0.99479 0.3727 0.73912 0.0
C1991 C 0.98089 0.36664 0.75175 0.0
C1992 C 0.96722 0.35202 0.74765 0.0
H1993 H 0.92145 0.33372 0.71681 0.0
H1994 H 0.93156 0.33977 0.74089 0.0
H1995 H 0.94273 0.34793 0.71741 0.0
H1996 H 0.98105 0.3427 0.70488 0.0
H1997 H 1.00484 0.36795 0.71199 0.0
H1998 H 0.81286 0.68445 0.70623 0.0
H1999 H 0.78632 0.68002 0.71663 0.0
H2000 H 0.792 0.71709 0.67581 0.0
H2001 H 0.81868 0.72164 0.6652 0.0
H2002 H 0.77981 0.71731 0.71682 0.0
H2003 H 0.74566 0.65937 0.67954 0.0
H2004 H 0.76171 0.6616 0.69588 0.0
H2005 H 0.76639 0.67335 0.67297 0.0
C2006 C 0.80856 0.69175 0.69949 0.0
C2007 C 0.81793 0.70337 0.68478 0.0
C2008 C 0.79331 0.68912 0.70538 0.0
C2009 C 0.78706 0.69804 0.69674 0.0
C2010 C 0.79655 0.70999 0.68255 0.0
H2011 H 0.69779 0.69984 0.72548 0.0
H2012 H 0.72457 0.70643 0.71268 0.0
C2013 C 0.81181 0.71258 0.67653 0.0
C2014 C 0.77064 0.69485 0.70264 0.0
H2015 H 0.73083 0.6667 0.7014 0.0
C2016 C 0.76905 0.70627 0.71345 0.0
C2017 C 0.75665 0.68048 0.69812 0.0
C2018 C 0.75758 0.66802 0.68584 0.0
C2019 C 0.75392 0.70352 0.72058 0.0
C2020 C 0.73981 0.68898 0.71634 0.0
C2021 C 0.74149 0.67774 0.70503 0.0
C2022 C 0.72325 0.68496 0.7236 0.0
C2023 C 0.75356 0.71623 0.73295 0.0
C2024 C 0.71289 0.67021 0.73273 0.0
C2025 C 0.69729 0.6662 0.73926 0.0
C2026 C 0.69192 0.67706 0.73762 0.0
C2027 C 0.70193 0.69152 0.72776 0.0
C2028 C 0.71734 0.69536 0.72064 0.0
H2029 H 0.75212 0.72434 0.72243 0.0
H2030 H 0.74352 0.71141 0.74421 0.0
H2031 H 0.76502 0.72325 0.74133 0.0
H2032 H 0.71686 0.66175 0.73489 0.0
H2033 H 0.68943 0.65461 0.74562 0.0
H2034 H 0.81043 0.71537 0.10628 0.0
H2035 H 0.79221 0.72589 0.10379 0.0
H2036 H 0.80143 0.74031 0.16682 0.0
H2037 H 0.82019 0.73007 0.16918 0.0
H2038 H 0.76478 0.71473 0.12486 0.0
H2039 H 0.80221 0.7782 0.14095 0.0
H2040 H 0.81093 0.76609 0.1351 0.0
H2041 H 0.80286 0.76545 0.16026 0.0
C2042 C 0.80895 0.72117 0.11949 0.0
C2043 C 0.81686 0.72196 0.13789 0.0
C2044 C 0.79842 0.72713 0.11807 0.0
C2045 C 0.79533 0.73395 0.13507 0.0
C2046 C 0.80376 0.73538 0.15332 0.0
H2047 H 0.70335 0.73544 0.12999 0.0
H2048 H 0.7242 0.72928 0.13992 0.0
C2049 C 0.81453 0.72954 0.15467 0.0
C2050 C 0.78223 0.7381 0.13384 0.0
H2051 H 0.7741 0.7681 0.13806 0.0
C2052 C 0.76685 0.72644 0.12764 0.0
C2053 C 0.7848 0.75333 0.13756 0.0
C2054 C 0.80112 0.76655 0.14368 0.0
C2055 C 0.75415 0.72955 0.12451 0.0
C2056 C 0.75662 0.74484 0.12821 0.0
C2057 C 0.77199 0.75642 0.13496 0.0
C2058 C 0.74387 0.74932 0.1243 0.0
C2059 C 0.73846 0.71624 0.11678 0.0
C2060 C 0.7479 0.76349 0.11402 0.0
C2061 C 0.73601 0.7674 0.10931 0.0
C2062 C 0.71968 0.75695 0.11381 0.0
C2063 C 0.71574 0.74335 0.12532 0.0
C2064 C 0.7277 0.73973 0.13078 0.0
H2065 H 0.74048 0.70787 0.10764 0.0
H2066 H 0.73066 0.70963 0.13007 0.0
H2067 H 0.73191 0.72042 0.10714 0.0
H2068 H 0.76022 0.77148 0.10922 0.0
H2069 H 0.73959 0.77853 0.10185 0.0
H2070 H 0.36009 0.17426 0.15073 0.0
H2071 H 0.34963 0.1464 0.1435 0.0
H2072 H 0.38443 0.14585 0.18458 0.0
H2073 H 0.39469 0.17344 0.19219 0.0
H2074 H 0.36619 0.13087 0.12792 0.0
H2075 H 0.34082 0.10952 0.20581 0.0
H2076 H 0.34636 0.12893 0.19657 0.0
H2077 H 0.36161 0.1248 0.20548 0.0
C2078 C 0.36548 0.1682 0.15829 0.0
C2079 C 0.37823 0.17617 0.1721 0.0
C2080 C 0.35953 0.15228 0.15407 0.0
C2081 C 0.36608 0.14396 0.16374 0.0
C2082 C 0.37901 0.15195 0.17718 0.0
H2083 H 0.35473 0.05173 0.16701 0.0
H2084 H 0.36136 0.07883 0.17182 0.0
C2085 C 0.385 0.16783 0.18133 0.0
C2086 C 0.35951 0.12695 0.15985 0.0
H2087 H 0.34251 0.09116 0.1839 0.0
C2088 C 0.36085 0.12214 0.14008 0.0
C2089 C 0.35252 0.11557 0.17573 0.0
C2090 C 0.35008 0.1199 0.19706 0.0
C2091 C 0.35602 0.10637 0.13597 0.0
C2092 C 0.34934 0.09503 0.15198 0.0
C2093 C 0.34765 0.09982 0.17163 0.0
C2094 C 0.34481 0.07831 0.14901 0.0
C2095 C 0.35872 0.10211 0.11473 0.0
C2096 C 0.33305 0.0688 0.1348 0.0
C2097 C 0.3292 0.05318 0.13194 0.0
C2098 C 0.33695 0.0467 0.14336 0.0
C2099 C 0.34846 0.05621 0.15791 0.0
C2100 C 0.3523 0.07178 0.1607 0.0
H2101 H 0.36736 0.11262 0.10565 0.0
H2102 H 0.36337 0.0938 0.1154 0.0
H2103 H 0.34707 0.09634 0.10651 0.0
H2104 H 0.32683 0.07343 0.12591 0.0
H2105 H 0.32023 0.04624 0.12067 0.0
H2106 H 0.89756 0.29894 0.19867 0.0
H2107 H 0.92516 0.31893 0.18942 0.0
H2108 H 0.93432 0.28305 0.16662 0.0
H2109 H 0.90677 0.26292 0.17601 0.0
H2110 H 0.95882 0.30531 0.19231 0.0
H2111 H 0.94244 0.33402 0.13085 0.0
H2112 H 0.93276 0.3322 0.15522 0.0
H2113 H 0.9283 0.31488 0.14118 0.0
C2114 C 0.90541 0.29528 0.19163 0.0
C2115 C 0.89993 0.27934 0.18798 0.0
C2116 C 0.92116 0.30673 0.18629 0.0
C2117 C 0.93168 0.30247 0.1771 0.0
C2118 C 0.92634 0.28657 0.17363 0.0
H2119 H 0.02815 0.34611 0.12853 0.0
H2120 H 1.00156 0.32866 0.14363 0.0
C2121 C 0.91059 0.2751 0.17896 0.0
C2122 C 0.94834 0.31456 0.17126 0.0
H2123 H 0.96993 0.34605 0.13956 0.0
C2124 C 0.96128 0.3142 0.18071 0.0
C2125 C 0.95148 0.32622 0.1563 0.0
C2126 C 0.93804 0.32685 0.14515 0.0
C2127 C 0.97733 0.32517 0.1755 0.0
C2128 C 0.98048 0.3366 0.16014 0.0
C2129 C 0.96752 0.33721 0.15116 0.0
C2130 C 0.997 0.34735 0.15215 0.0
C2131 C 0.99073 0.32451 0.1867 0.0
C2132 C 1.0032 0.36366 0.15155 0.0
C2133 C 0.01831 0.37362 0.14256 0.0
C2134 C 0.02719 0.36734 0.13364 0.0
C2135 C 0.02126 0.35113 0.13485 0.0
C2136 C 1.0062 0.34119 0.14379 0.0
H2137 H 0.98669 0.31912 0.20218 0.0
H2138 H 0.9944 0.31713 0.17797 0.0
H2139 H 1.00144 0.33637 0.18835 0.0
H2140 H 0.99627 0.36864 0.15785 0.0
H2141 H 0.02286 0.38614 0.14207 0.0
H2142 H 0.39599 0.28729 0.63849 0.0
H2143 H 0.38284 0.30138 0.62481 0.0
H2144 H 0.35244 0.28848 0.67882 0.0
H2145 H 0.36544 0.27446 0.69241 0.0
H2146 H 0.33538 0.28259 0.64209 0.0
H2147 H 0.38804 0.34325 0.64437 0.0
H2148 H 0.391 0.32908 0.63069 0.0
H2149 H 0.38773 0.32706 0.65792 0.0
C2150 C 0.38669 0.28771 0.64753 0.0
C2151 C 0.38169 0.27975 0.66647 0.0
C2152 C 0.37915 0.29569 0.63969 0.0
C2153 C 0.36666 0.29595 0.65082 0.0
C2154 C 0.36195 0.2883 0.66991 0.0
H2155 H 0.32761 0.35594 0.6532 0.0
H2156 H 0.339 0.33896 0.65879 0.0
C2157 C 0.36939 0.28031 0.67766 0.0
C2158 C 0.35828 0.30405 0.6428 0.0
H2159 H 0.36352 0.34036 0.63274 0.0
C2160 C 0.34153 0.29521 0.63981 0.0
C2161 C 0.36637 0.3205 0.63994 0.0
C2162 C 0.38425 0.3306 0.64351 0.0
C2163 C 0.33255 0.30247 0.63469 0.0
C2164 C 0.3406 0.31894 0.63231 0.0
C2165 C 0.35742 0.32771 0.63456 0.0
C2166 C 0.33177 0.32758 0.62944 0.0
C2167 C 0.31447 0.29259 0.63281 0.0
C2168 C 0.32342 0.32641 0.6113 0.0
C2169 C 0.31672 0.33607 0.60812 0.0
C2170 C 0.31847 0.34709 0.62295 0.0
C2171 C 0.32613 0.34762 0.64145 0.0
C2172 C 0.3327 0.33797 0.64465 0.0
H2173 H 0.30985 0.28032 0.63817 0.0
H2174 H 0.3084 0.29776 0.6418 0.0
H2175 H 0.3111 0.29233 0.61653 0.0
H2176 H 0.3227 0.31855 0.5993 0.0
H2177 H 0.311 0.33554 0.59365 0.0
H2178 H 0.8102 0.1644 0.68056 0.0
H2179 H 0.78615 0.13912 0.67204 0.0
H2180 H 0.81618 0.12614 0.63754 0.0
H2181 H 0.83993 0.15091 0.6461 0.0
H2182 H 0.77196 0.12342 0.63465 0.0
H2183 H 0.79432 0.09011 0.67881 0.0
H2184 H 0.80294 0.11105 0.68116 0.0
H2185 H 0.80876 0.1031 0.66015 0.0
C2186 C 0.81159 0.15623 0.67091 0.0
C2187 C 0.82705 0.15967 0.66421 0.0
C2188 C 0.79785 0.14174 0.66612 0.0
C2189 C 0.79935 0.13045 0.65458 0.0
C2190 C 0.81467 0.13435 0.64695 0.0
H2191 H 0.74263 0.03716 0.60494 0.0
H2192 H 0.76334 0.06333 0.61586 0.0
C2193 C 0.82828 0.14865 0.65178 0.0
C2194 C 0.78524 0.11444 0.65072 0.0
H2195 H 0.77291 0.07532 0.65556 0.0
C2196 C 0.77206 0.11291 0.63947 0.0
C2197 C 0.78526 0.10061 0.65697 0.0
C2198 C 0.7985 0.10125 0.67012 0.0
C2199 C 0.75935 0.09805 0.63359 0.0
C2200 C 0.75967 0.08427 0.63931 0.0
C2201 C 0.77265 0.08581 0.65099 0.0
C2202 C 0.7469 0.06818 0.63296 0.0
C2203 C 0.74598 0.09727 0.62063 0.0
C2204 C 0.73072 0.06191 0.63924 0.0
C2205 C 0.71884 0.04686 0.63311 0.0
C2206 C 0.72282 0.03766 0.62054 0.0
C2207 C 0.73908 0.04385 0.6146 0.0
C2208 C 0.75096 0.05887 0.62082 0.0
H2209 H 0.74931 0.10884 0.61365 0.0
H2210 H 0.74281 0.08858 0.60821 0.0
H2211 H 0.73507 0.0935 0.63037 0.0
H2212 H 0.72725 0.06864 0.64895 0.0
H2213 H 0.70647 0.04252 0.63802 0.0
H2214 H 0.9 0.72846 0.61633 0.0
H2215 H 0.92888 0.73883 0.61087 0.0
H2216 H 0.93517 0.7366 0.6759 0.0
H2217 H 0.90618 0.7259 0.68151 0.0
H2218 H 0.9559 0.76479 0.62451 0.0
H2219 H 0.95438 0.71095 0.65357 0.0
H2220 H 0.93628 0.71167 0.64822 0.0
H2221 H 0.94707 0.71975 0.67155 0.0
C2222 C 0.90751 0.73033 0.62954 0.0
C2223 C 0.90069 0.72621 0.64936 0.0
C2224 C 0.92405 0.73623 0.62637 0.0
C2225 C 0.93415 0.73812 0.64291 0.0
C2226 C 0.92755 0.73484 0.66283 0.0
H2227 H 0.03547 0.76334 0.64885 0.0
H2228 H 1.00808 0.75804 0.65687 0.0
C2229 C 0.91099 0.72888 0.66603 0.0
C2230 C 0.9515 0.74335 0.63914 0.0
H2231 H 0.98004 0.73239 0.6448 0.0
C2232 C 0.96117 0.75769 0.62892 0.0
C2233 C 0.9584 0.73408 0.64487 0.0
C2234 C 0.94849 0.71819 0.65499 0.0
C2235 C 0.97753 0.76311 0.62449 0.0
C2236 C 0.98447 0.75387 0.63016 0.0
C2237 C 0.97481 0.73954 0.6405 0.0
C2238 C 1.00162 0.75865 0.6253 0.0
C2239 C 0.98737 0.7789 0.61432 0.0
C2240 C 1.00723 0.76084 0.6049 0.0
C2241 C 0.02291 0.76394 0.60034 0.0
C2242 C 0.03335 0.76503 0.61609 0.0
C2243 C 0.02778 0.76289 0.63647 0.0
C2244 C 0.01212 0.75982 0.64104 0.0
H2245 H 0.98134 0.78604 0.61517 0.0
H2246 H 0.99927 0.78541 0.62174 0.0
H2247 H 0.98928 0.77733 0.59793 0.0
H2248 H 0.99927 0.75953 0.59241 0.0
H2249 H 0.02667 0.76489 0.58446 0.0
H2250 H 0.87613 0.67268 0.1682 0.0
H2251 H 0.89893 0.67265 0.18412 0.0
H2252 H 0.91455 0.71851 0.20869 0.0
H2253 H 0.89135 0.71869 0.1925 0.0
H2254 H 0.94023 0.71391 0.19142 0.0
H2255 H 0.9016 0.66652 0.24632 0.0
H2256 H 0.8951 0.66182 0.2203 0.0
H2257 H 0.8945 0.67785 0.23255 0.0
C2258 C 0.88433 0.68285 0.17696 0.0
C2259 C 0.88171 0.69564 0.17924 0.0
C2260 C 0.89741 0.68275 0.18613 0.0
C2261 C 0.90829 0.69538 0.19801 0.0
C2262 C 0.9062 0.70853 0.19975 0.0
H2263 H 0.97567 0.68106 0.27435 0.0
H2264 H 0.95493 0.68711 0.26293 0.0
C2265 C 0.89297 0.70865 0.19047 0.0
C2266 C 0.9216 0.69443 0.20851 0.0
H2267 H 0.92834 0.671 0.24105 0.0
C2268 C 0.93767 0.70466 0.20248 0.0
C2269 C 0.91834 0.68249 0.22316 0.0
C2270 C 0.90146 0.67163 0.23114 0.0
C2271 C 0.95042 0.70279 0.20995 0.0
C2272 C 0.947 0.69016 0.22355 0.0
C2273 C 0.93102 0.68047 0.23036 0.0
C2274 C 0.95966 0.68652 0.23054 0.0
C2275 C 0.96743 0.71441 0.2032 0.0
C2276 C 0.96907 0.68385 0.21625 0.0
C2277 C 0.98086 0.68034 0.2228 0.0
C2278 C 0.98314 0.67891 0.24376 0.0
C2279 C 0.97376 0.68156 0.25809 0.0
C2280 C 0.96203 0.68517 0.25155 0.0
H2281 H 0.96859 0.72584 0.19868 0.0
H2282 H 0.9762 0.71646 0.21552 0.0
H2283 H 0.97067 0.70976 0.18965 0.0
H2284 H 0.96727 0.6844 0.19998 0.0
H2285 H 0.98814 0.67862 0.21146 0.0
H2286 H 0.37701 0.27586 0.2239 0.0
H2287 H 0.37837 0.30027 0.23401 0.0
H2288 H 0.42937 0.32562 0.22038 0.0
H2289 H 0.42824 0.30115 0.21054 0.0
H2290 H 0.39743 0.32229 0.26441 0.0
H2291 H 0.41103 0.34877 0.1862 0.0
H2292 H 0.40337 0.3281 0.19079 0.0
H2293 H 0.42425 0.342 0.19515 0.0
C2294 C 0.38861 0.28651 0.22331 0.0
C2295 C 0.40253 0.28641 0.2163 0.0
C2296 C 0.38932 0.30053 0.22898 0.0
C2297 C 0.4039 0.31481 0.22765 0.0
C2298 C 0.41791 0.31478 0.22114 0.0
H2299 H 0.42459 0.40373 0.28131 0.0
H2300 H 0.42489 0.38003 0.27091 0.0
C2301 C 0.41723 0.30074 0.21552 0.0
C2302 C 0.40439 0.3297 0.23309 0.0
H2303 H 0.41127 0.3648 0.21325 0.0
C2304 C 0.40048 0.3316 0.25324 0.0
C2305 C 0.40817 0.34175 0.21843 0.0
C2306 C 0.41182 0.34008 0.19637 0.0
C2307 C 0.40046 0.34529 0.25919 0.0
C2308 C 0.40455 0.35748 0.24464 0.0
C2309 C 0.40826 0.3555 0.22442 0.0
C2310 C 0.40487 0.37226 0.25014 0.0
C2311 C 0.39577 0.34653 0.28092 0.0
C2312 C 0.3938 0.37601 0.24148 0.0
C2313 C 0.39358 0.38958 0.2474 0.0
C2314 C 0.40455 0.39973 0.26195 0.0
C2315 C 0.41594 0.39616 0.27011 0.0
C2316 C 0.41609 0.38257 0.26427 0.0
H2317 H 0.3896 0.33493 0.28888 0.0
H2318 H 0.4068 0.3544 0.2896 0.0
H2319 H 0.38769 0.3516 0.28126 0.0
H2320 H 0.38508 0.36826 0.23048 0.0
H2321 H 0.38468 0.39199 0.2408 0.0
H2322 H 0.80046 0.23658 0.21683 0.0
H2323 H 0.77848 0.21168 0.22963 0.0
H2324 H 0.80649 0.18941 0.21641 0.0
H2325 H 0.82865 0.21446 0.20428 0.0
H2326 H 0.76247 0.18641 0.2058 0.0
H2327 H 0.78773 0.17084 0.27224 0.0
H2328 H 0.79742 0.19032 0.26111 0.0
H2329 H 0.79944 0.17501 0.24905 0.0
C2330 C 0.80213 0.22647 0.21696 0.0
C2331 C 0.8164 0.22753 0.20917 0.0
C2332 C 0.7895 0.21222 0.22431 0.0
C2333 C 0.7908 0.19865 0.22402 0.0
C2334 C 0.80525 0.19975 0.2171 0.0
H2335 H 0.70131 0.10731 0.2224 0.0
H2336 H 0.72683 0.13055 0.21266 0.0
C2337 C 0.81796 0.2141 0.20994 0.0
C2338 C 0.77643 0.18322 0.22904 0.0
H2339 H 0.7622 0.1511 0.26045 0.0
C2340 C 0.76233 0.17872 0.21789 0.0
C2341 C 0.77635 0.17319 0.24467 0.0
C2342 C 0.79099 0.17761 0.2576 0.0
C2343 C 0.74802 0.16464 0.22211 0.0
C2344 C 0.74786 0.15442 0.23771 0.0
C2345 C 0.76214 0.15885 0.24862 0.0
C2346 C 0.73298 0.13944 0.24355 0.0
C2347 C 0.73336 0.16128 0.2098 0.0
C2348 C 0.7285 0.13577 0.26432 0.0
C2349 C 0.7143 0.12204 0.26992 0.0
C2350 C 0.7039 0.11213 0.25488 0.0
C2351 C 0.70876 0.11525 0.23424 0.0
C2352 C 0.72328 0.12862 0.22866 0.0
H2353 H 0.73376 0.17231 0.2049 0.0
H2354 H 0.73313 0.15491 0.19573 0.0
H2355 H 0.72201 0.15409 0.21845 0.0
H2356 H 0.73587 0.14361 0.27627 0.0
H2357 H 0.71139 0.11923 0.286 0.0
H2358 H 0.98801 0.49706 0.9436 0.0
H2359 H 0.991 0.48313 0.91456 0.0
H2360 H 0.04265 0.51305 0.9163 0.0
H2361 H 0.0398 0.52709 0.94527 0.0
H2362 H 1.00424 0.49395 0.87613 0.0
H2363 H 0.03826 0.46982 0.91604 0.0
H2364 H 0.02804 0.47831 0.92964 0.0
H2365 H 0.04736 0.49074 0.91765 0.0
C2366 C 1.00003 0.50076 0.93783 0.0
C2367 C 0.01365 0.51324 0.94703 0.0
C2368 C 1.00172 0.4927 0.9212 0.0
C2369 C 0.01707 0.49682 0.91335 0.0
C2370 C 0.03069 0.50934 0.92233 0.0
H2371 H 0.0501 0.46042 0.81295 0.0
H2372 H 0.0483 0.47602 0.84095 0.0
C2373 C 0.02902 0.5174 0.93898 0.0
C2374 C 0.01875 0.48824 0.89548 0.0
H2375 H 0.03571 0.46644 0.88007 0.0
C2376 C 0.01108 0.4879 0.87704 0.0
C2377 C 0.02773 0.48036 0.89653 0.0
C2378 C 0.0357 0.47966 0.91607 0.0
C2379 C 0.01228 0.4801 0.85966 0.0
C2380 C 0.02116 0.47212 0.86074 0.0
C2381 C 0.02893 0.47256 0.87914 0.0
C2382 C 0.02223 0.46295 0.84317 0.0
C2383 C 1.00428 0.48076 0.84014 0.0
C2384 C 1.00821 0.45032 0.83506 0.0
C2385 C 0.00921 0.44141 0.81903 0.0
C2386 C 0.02427 0.44482 0.81075 0.0
C2387 C 0.0383 0.4575 0.81885 0.0
C2388 C 0.03729 0.46641 0.83492 0.0
H2389 H 1.00214 0.49087 0.83995 0.0
H2390 H 0.01169 0.48165 0.82649 0.0
H2391 H 0.9924 0.46987 0.83891 0.0
H2392 H 0.99646 0.44714 0.84139 0.0
H2393 H 0.99815 0.43167 0.81333 0.0
H2394 H 0.55772 0.58244 0.95562 0.0
H2395 H 0.57452 0.59537 0.92556 0.0
H2396 H 0.53507 0.59769 0.89756 0.0
H2397 H 0.51827 0.58522 0.92796 0.0
H2398 H 0.56928 0.58479 0.88582 0.0
H2399 H 0.57213 0.6425 0.88988 0.0
H2400 H 0.56522 0.62877 0.91113 0.0
H2401 H 0.55211 0.62579 0.88997 0.0
C2402 C 0.55262 0.58594 0.94333 0.0
C2403 C 0.53655 0.58278 0.94441 0.0
C2404 C 0.56226 0.59325 0.92601 0.0
C2405 C 0.55616 0.59767 0.90934 0.0
C2406 C 0.54018 0.59464 0.91034 0.0
H2407 H 0.60462 0.64267 0.79229 0.0
H2408 H 0.5838 0.62887 0.8189 0.0
C2409 C 0.53051 0.58734 0.9277 0.0
C2410 C 0.5664 0.60488 0.8907 0.0
H2411 H 0.58438 0.63819 0.86096 0.0
C2412 C 0.57254 0.59646 0.88038 0.0
C2413 C 0.57058 0.62006 0.88346 0.0
C2414 C 0.5648 0.6299 0.89424 0.0
C2415 C 0.58284 0.60283 0.86324 0.0
C2416 C 0.58735 0.61815 0.85632 0.0
C2417 C 0.58088 0.62643 0.86625 0.0
C2418 C 0.5997 0.62618 0.83985 0.0
C2419 C 0.58884 0.5931 0.85266 0.0
C2420 C 0.61554 0.62933 0.84283 0.0
C2421 C 0.62742 0.6372 0.82778 0.0
C2422 C 0.62378 0.64219 0.80929 0.0
C2423 C 0.60784 0.63895 0.80626 0.0
C2424 C 0.59594 0.63111 0.82147 0.0
H2425 H 0.58086 0.58038 0.85591 0.0
H2426 H 0.58967 0.59506 0.83581 0.0
H2427 H 0.60107 0.59652 0.8583 0.0
H2428 H 0.61881 0.62587 0.857 0.0
H2429 H 0.63951 0.63944 0.83074 0.0
H2430 H 0.5387 0.07189 0.9292 0.0
H2431 H 0.52308 0.06522 0.89752 0.0
H2432 H 0.48248 0.06194 0.93123 0.0
H2433 H 0.49785 0.0678 0.96294 0.0
H2434 H 0.47264 0.03812 0.90698 0.0
H2435 H 0.51293 0.09189 0.86189 0.0
H2436 H 0.52267 0.08132 0.87021 0.0
H2437 H 0.51575 0.09013 0.88883 0.0
C2438 C 0.52651 0.06995 0.92967 0.0
C2439 C 0.51945 0.07045 0.94837 0.0
C2440 C 0.51761 0.06618 0.9116 0.0
C2441 C 0.50166 0.06331 0.91188 0.0
C2442 C 0.49474 0.06407 0.93058 0.0
H2443 H 0.4444 0.06948 0.8184 0.0
H2444 H 0.46378 0.07272 0.84447 0.0
C2445 C 0.50351 0.06748 0.94867 0.0
C2446 C 0.49188 0.05908 0.89295 0.0
H2447 H 0.49052 0.07193 0.84471 0.0
C2448 C 0.47655 0.04551 0.89334 0.0
C2449 C 0.497 0.06871 0.87514 0.0
C2450 C 0.51291 0.0839 0.874 0.0
C2451 C 0.46594 0.04167 0.87685 0.0
C2452 C 0.47105 0.0513 0.85904 0.0
C2453 C 0.48664 0.06449 0.8583 0.0
C2454 C 0.45984 0.04913 0.8421 0.0
C2455 C 0.44907 0.02782 0.8792 0.0
C2456 C 0.45129 0.03482 0.83171 0.0
C2457 C 0.43983 0.03281 0.81695 0.0
C2458 C 0.4371 0.04521 0.81204 0.0
C2459 C 0.44622 0.05968 0.8218 0.0
C2460 C 0.45736 0.06158 0.83672 0.0
H2461 H 0.44595 0.02404 0.89547 0.0
H2462 H 0.43999 0.03063 0.8731 0.0
H2463 H 0.44819 0.01777 0.87054 0.0
H2464 H 0.4533 0.02517 0.83517 0.0
H2465 H 0.43308 0.02157 0.80952 0.0
H2466 H 0.45821 1.00154 0.5746 0.0
H2467 H 0.44736 1.00536 0.60673 0.0
H2468 H 0.49544 0.03945 0.62536 0.0
H2469 H 0.50634 0.03574 0.5932 0.0
H2470 H 0.45342 1.00215 0.64762 0.0
H2471 H 0.47153 0.06404 0.62865 0.0
H2472 H 0.47184 0.05079 0.60991 0.0
H2473 H 0.48767 0.05968 0.62839 0.0
C2474 C 0.46649 0.00967 0.58566 0.0
C2475 C 0.48311 0.01847 0.58129 0.0
C2476 C 0.46028 0.0119 0.60397 0.0
C2477 C 0.47057 0.02294 0.61821 0.0
C2478 C 0.48725 0.03118 0.61434 0.0
H2479 H 0.44164 0.04947 0.73316 0.0
H2480 H 0.4585 0.0472 0.70633 0.0
C2481 C 0.49345 0.02903 0.59599 0.0
C2482 C 0.46373 0.02602 0.63686 0.0
H2483 H 0.45858 0.05411 0.66058 0.0
C2484 C 0.45465 0.01354 0.65053 0.0
C2485 C 0.46539 0.04092 0.64064 0.0
C2486 C 0.47451 0.05462 0.62607 0.0
C2487 C 0.44692 0.01547 0.66767 0.0
C2488 C 0.44822 0.03022 0.6711 0.0
C2489 C 0.45773 0.04286 0.65788 0.0
C2490 C 0.4384 0.03222 0.68706 0.0
C2491 C 0.43716 1.00166 0.68182 0.0
C2492 C 0.42166 0.02488 0.68474 0.0
C2493 C 0.41207 0.02623 0.69981 0.0
C2494 C 0.41901 0.03495 0.71763 0.0
C2495 C 0.4359 0.04265 0.71968 0.0
C2496 C 0.44554 0.04135 0.70442 0.0
H2497 H 0.44045 0.99239 0.67998 0.0
H2498 H 0.43888 1.00541 0.69805 0.0
H2499 H 0.42416 0.99649 0.67827 0.0
H2500 H 0.41599 0.01797 0.67128 0.0
H2501 H 0.39914 0.02014 0.69758 0.0
H2502 H 0.02064 0.52429 0.59216 0.0
H2503 H 0.01638 0.50623 0.62044 0.0
H2504 H 0.06458 0.51416 0.6119 0.0
H2505 H 0.06895 0.53203 0.5834 0.0
H2506 H 0.01778 0.47841 0.62047 0.0
H2507 H 0.06287 0.52155 0.67355 0.0
H2508 H 0.05577 0.52735 0.65142 0.0
H2509 H 0.07084 0.52165 0.64852 0.0
C2510 C 0.03038 0.52222 0.5961 0.0
C2511 C 0.04521 0.52984 0.58522 0.0
C2512 C 0.02791 0.51188 0.61245 0.0
C2513 C 0.04022 0.50895 0.6186 0.0
C2514 C 0.05499 0.51644 0.60781 0.0
H2515 H 0.03697 0.43215 0.68667 0.0
H2516 H 0.03777 0.45081 0.66133 0.0
C2517 C 0.05746 0.52673 0.59139 0.0
C2518 C 0.03745 0.49772 0.63582 0.0
H2519 H 0.05186 0.49454 0.68246 0.0
C2520 C 0.02517 0.48199 0.63407 0.0
C2521 C 0.0469 0.50234 0.65379 0.0
C2522 C 0.05974 0.51917 0.65711 0.0
C2523 C 0.02249 0.47072 0.64936 0.0
C2524 C 0.0324 0.4752 0.6669 0.0
C2525 C 0.0443 0.49104 0.669 0.0
C2526 C 0.03118 0.46348 0.68259 0.0
C2527 C 0.00904 0.45406 0.64658 0.0
C2528 C 0.02732 0.46436 0.70321 0.0
C2529 C 0.02678 0.45356 0.71792 0.0
C2530 C 0.03034 0.44179 0.71236 0.0
C2531 C 0.03411 0.44097 0.69164 0.0
C2532 C 0.03451 0.45163 0.67701 0.0
H2533 H 0.9999 0.45341 0.63561 0.0
H2534 H 0.01415 0.44697 0.6404 0.0
H2535 H 1.00294 0.44874 0.66141 0.0
H2536 H 0.02479 0.47345 0.70795 0.0
H2537 H 0.02397 0.45467 0.7337 0.0
H2538 H 0.5787 0.57955 0.56584 0.0
H2539 H 0.58855 0.59637 0.59568 0.0
H2540 H 0.54122 0.59041 0.60597 0.0
H2541 H 0.53118 0.5734 0.57568 0.0
H2542 H 0.58798 0.62467 0.60675 0.0
H2543 H 0.55258 0.57383 0.65958 0.0
H2544 H 0.55621 0.57122 0.63311 0.0
H2545 H 0.54204 0.57747 0.63945 0.0
C2546 C 0.57041 0.582 0.57423 0.0
C2547 C 0.55414 0.57509 0.56851 0.0
C2548 C 0.57607 0.59164 0.59128 0.0
C2549 C 0.56559 0.59449 0.6032 0.0
C2550 C 0.54947 0.58823 0.59705 0.0
H2551 H 0.60852 0.65769 0.7082 0.0
H2552 H 0.59121 0.64459 0.67892 0.0
C2553 C 0.54378 0.57864 0.5797 0.0
C2554 C 0.57167 0.60321 0.62261 0.0
H2555 H 0.57176 0.59752 0.67433 0.0
C2556 C 0.58422 0.61887 0.62159 0.0
C2557 C 0.5669 0.59549 0.6419 0.0
C2558 C 0.55376 0.57855 0.64377 0.0
C2559 C 0.5925 0.62686 0.63925 0.0
C2560 C 0.58802 0.61901 0.65847 0.0
C2561 C 0.57512 0.60352 0.65959 0.0
C2562 C 0.59743 0.62631 0.67725 0.0
C2563 C 0.60653 0.64338 0.63706 0.0
C2564 C 0.6063 0.6201 0.68645 0.0
C2565 C 0.61619 0.62754 0.70321 0.0
C2566 C 0.61733 0.64129 0.71118 0.0
C2567 C 0.60798 0.64716 0.70239 0.0
C2568 C 0.59812 0.63973 0.68559 0.0
H2569 H 0.61019 0.64675 0.62079 0.0
H2570 H 0.60307 0.65169 0.64356 0.0
H2571 H 0.6171 0.64468 0.64566 0.0
H2572 H 0.60591 0.60972 0.68028 0.0
H2573 H 0.6232 0.62269 0.70963 0.0
H2574 H 0.03008 0.59037 0.0679 0.0
H2575 H 0.03116 0.60646 0.09682 0.0
H2576 H 0.99387 0.56547 0.12795 0.0
H2577 H 0.99286 0.54917 0.0994 0.0
H2578 H 0.98878 0.59191 0.12693 0.0
H2579 H 0.05005 0.60846 0.15461 0.0
H2580 H 0.04849 0.61173 0.12779 0.0
H2581 H 0.03883 0.59206 0.13785 0.0
C2582 C 0.02221 0.58463 0.08093 0.0
C2583 C 0.0114 0.56829 0.08107 0.0
C2584 C 0.02287 0.59393 0.09754 0.0
C2585 C 0.01274 0.58718 0.11474 0.0
C2586 C 1.00185 0.57096 0.1149 0.0
H2587 H 0.98885 0.61578 0.22852 0.0
H2588 H 0.99114 0.6023 0.19868 0.0
C2589 C 1.00124 0.56163 0.09839 0.0
C2590 C 0.01308 0.59702 0.13231 0.0
H2591 H 0.03648 0.61975 0.17157 0.0
C2592 C 0.99922 0.59799 0.13667 0.0
C2593 C 0.02675 0.60513 0.14494 0.0
C2594 C 0.04187 0.60427 0.14125 0.0
C2595 C 0.99862 0.60679 0.15324 0.0
C2596 C 0.01211 0.61452 0.16631 0.0
C2597 C 0.02611 0.61381 0.16169 0.0
C2598 C 0.01158 0.6228 0.18521 0.0
C2599 C 0.98357 0.60788 0.15638 0.0
C2600 C 0.02281 0.63876 0.18831 0.0
C2601 C 0.02167 0.64657 0.2057 0.0
C2602 C 0.00927 0.63857 0.22037 0.0
C2603 C 0.99845 0.62246 0.21751 0.0
C2604 C 0.99967 0.61469 0.2003 0.0
H2605 H 0.97679 0.60581 0.14189 0.0
H2606 H 0.9755 0.59877 0.16762 0.0
H2607 H 0.98648 0.61954 0.16233 0.0
H2608 H 0.03223 0.64528 0.17703 0.0
H2609 H 0.03023 0.65895 0.20733 0.0
H2610 H 0.46721 0.54377 0.09027 0.0
H2611 H 0.45646 0.52999 0.12298 0.0
H2612 H 0.48801 0.51057 0.11898 0.0
H2613 H 0.49884 0.52434 0.0864 0.0
H2614 H 0.44049 0.49844 0.13009 0.0
H2615 H 0.49583 0.5266 0.17714 0.0
H2616 H 0.49448 0.53456 0.15272 0.0
H2617 H 0.49799 0.51825 0.15379 0.0
C2618 C 0.47193 0.53665 0.09641 0.0
C2619 C 0.48397 0.53527 0.08571 0.0
C2620 C 0.4658 0.5288 0.11514 0.0
C2621 C 0.47157 0.5194 0.12365 0.0
C2622 C 0.48365 0.51806 0.11306 0.0
H2623 H 0.43635 0.45622 0.23174 0.0
H2624 H 0.45093 0.46978 0.20012 0.0
C2625 C 0.48984 0.52597 0.09438 0.0
C2626 C 0.46429 0.51036 0.14297 0.0
H2627 H 0.47279 0.5048 0.19215 0.0
C2628 C 0.44758 0.49987 0.14364 0.0
C2629 C 0.47354 0.5121 0.16065 0.0
C2630 C 0.49143 0.52358 0.16119 0.0
C2631 C 0.43987 0.49117 0.16145 0.0
C2632 C 0.44905 0.49309 0.17919 0.0
C2633 C 0.4658 0.50331 0.17848 0.0
C2634 C 0.44117 0.48542 0.19895 0.0
C2635 C 0.42189 0.47999 0.1612 0.0
C2636 C 0.4312 0.48997 0.20897 0.0
C2637 C 0.42296 0.48235 0.22696 0.0
C2638 C 0.42446 0.46994 0.23546 0.0
C2639 C 0.43487 0.46568 0.22568 0.0
C2640 C 0.44321 0.47342 0.2076 0.0
H2641 H 0.41726 0.47709 0.14533 0.0
H2642 H 0.41874 0.46895 0.16957 0.0
H2643 H 0.41565 0.4855 0.16897 0.0
H2644 H 0.42961 0.49933 0.2027 0.0
H2645 H 0.41515 0.48608 0.23398 0.0
H2646 H 0.56203 0.05713 0.08601 0.0
H2647 H 0.57702 0.05793 0.11639 0.0
H2648 H 0.57547 0.09857 0.13749 0.0
H2649 H 0.56016 0.09775 0.10711 0.0
H2650 H 0.60659 0.10162 0.13744 0.0
H2651 H 0.56129 0.04642 0.1762 0.0
H2652 H 0.56512 0.0443 0.14977 0.0
H2653 H 0.556 0.05585 0.15633 0.0
C2654 C 0.5645 0.06605 0.09727 0.0
C2655 C 0.55972 0.07731 0.09414 0.0
C2656 C 0.57313 0.06649 0.11465 0.0
C2657 C 0.57714 0.07816 0.12933 0.0
C2658 C 0.5724 0.08941 0.12636 0.0
H2659 H 0.63566 0.10541 0.23844 0.0
H2660 H 0.61834 0.10309 0.20994 0.0
C2661 C 0.56372 0.08897 0.10896 0.0
C2662 C 0.58708 0.07909 0.14716 0.0
H2663 H 0.58789 0.05887 0.18942 0.0
C2664 C 0.60248 0.09234 0.1489 0.0
C2665 C 0.5817 0.06688 0.16194 0.0
C2666 C 0.56507 0.05261 0.16114 0.0
C2667 C 0.61278 0.0936 0.16488 0.0
C2668 C 0.6074 0.08142 0.17974 0.0
C2669 C 0.59199 0.06816 0.17799 0.0
C2670 C 0.61749 0.08241 0.19742 0.0
C2671 C 0.6295 0.10779 0.16543 0.0
C2672 C 0.62235 0.07122 0.20024 0.0
C2673 C 0.63221 0.07242 0.21668 0.0
C2674 C 0.63732 0.0848 0.23066 0.0
C2675 C 0.63209 0.09577 0.22795 0.0
C2676 C 0.62224 0.09454 0.21157 0.0
H2677 H 0.63328 0.11374 0.15022 0.0
H2678 H 0.62958 0.11633 0.17651 0.0
H2679 H 0.63852 0.10452 0.17042 0.0
H2680 H 0.61871 0.0617 0.18953 0.0
H2681 H 0.63594 0.06374 0.2183 0.0
H2682 H 0.52079 0.02958 0.41695 0.0
H2683 H 0.54084 0.03428 0.39017 0.0
H2684 H 0.56983 0.02701 0.43446 0.0
H2685 H 0.55004 0.02279 0.46129 0.0
H2686 H 0.58731 0.05342 0.41465 0.0
H2687 H 0.5533 1.00753 0.35756 0.0
H2688 H 0.54362 0.01868 0.36331 0.0
H2689 H 0.54554 1.00686 0.38306 0.0
C2690 C 0.53126 0.02863 0.4208 0.0
C2691 C 0.53394 0.02591 0.44116 0.0
C2692 C 0.54269 0.03124 0.40548 0.0
C2693 C 0.55679 0.03083 0.41022 0.0
C2694 C 0.55906 0.02739 0.43041 0.0
H2695 H 0.63023 0.04511 0.31744 0.0
H2696 H 0.60901 0.03327 0.34387 0.0
C2697 C 0.54779 0.02501 0.44573 0.0
C2698 C 0.56997 0.03567 0.39478 0.0
H2699 H 0.5783 0.02969 0.34576 0.0
C2700 C 0.58535 0.04806 0.3997 0.0
C2701 C 0.56754 0.02859 0.37533 0.0
C2702 C 0.55164 0.01457 0.36958 0.0
C2703 C 0.59817 0.05391 0.38553 0.0
C2704 C 0.59546 0.04751 0.36565 0.0
C2705 C 0.58029 0.03473 0.36093 0.0
C2706 C 0.60807 0.05445 0.34937 0.0
C2707 C 0.61451 0.06693 0.39203 0.0
C2708 C 0.61435 0.07019 0.34349 0.0
C2709 C 0.6265 0.077 0.32858 0.0
C2710 C 0.63252 0.06817 0.31897 0.0
C2711 C 0.62593 0.05227 0.32457 0.0
C2712 C 0.61379 0.04547 0.33963 0.0
H2713 H 0.61587 0.06701 0.40892 0.0
H2714 H 0.62441 0.06581 0.38473 0.0
H2715 H 0.61586 0.07839 0.38735 0.0
H2716 H 0.60984 0.07723 0.35044 0.0
H2717 H 0.6311 0.08922 0.32455 0.0
H2718 H 0.04801 0.57495 0.42828 0.0
H2719 H 0.04346 0.5881 0.39934 0.0
H2720 H 0.03318 0.61578 0.4412 0.0
H2721 H 0.03735 0.60235 0.47022 0.0
H2722 H 0.01186 0.60567 0.41218 0.0
H2723 H 0.07165 0.63032 0.37447 0.0
H2724 H 0.06214 0.60944 0.37743 0.0
H2725 H 0.06766 0.62163 0.39977 0.0
C2726 C 0.04501 0.58399 0.43136 0.0
C2727 C 0.04314 0.58762 0.45166 0.0
C2728 C 0.04246 0.59158 0.41472 0.0
C2729 C 0.03829 0.60325 0.4179 0.0
C2730 C 0.03644 0.6069 0.43819 0.0
H2731 H 0.03867 0.66485 0.319 0.0
H2732 H 0.04532 0.65396 0.34883 0.0
C2733 C 0.0388 0.59918 0.45484 0.0
C2734 C 0.03513 0.61112 0.40017 0.0
H2735 H 0.05076 0.63032 0.35449 0.0
C2736 C 0.02045 0.61115 0.39966 0.0
C2737 C 0.04638 0.61858 0.38386 0.0
C2738 C 0.0629 0.62016 0.38398 0.0
C2739 C 0.01656 0.61801 0.38328 0.0
C2740 C 0.02741 0.62468 0.36641 0.0
C2741 C 0.04228 0.62503 0.36715 0.0
C2742 C 0.02352 0.63127 0.34792 0.0
C2743 C 1.00095 0.61831 0.38449 0.0
C2744 C 0.00923 0.62214 0.33702 0.0
C2745 C 1.00532 0.6284 0.3201 0.0
C2746 C 0.01574 0.6439 0.31327 0.0
C2747 C 0.03033 0.65289 0.32376 0.0
C2748 C 0.03415 0.64665 0.34088 0.0
H2749 H 0.99686 0.61764 0.40063 0.0
H2750 H 1.00219 0.6291 0.37727 0.0
H2751 H 0.99141 0.60798 0.37641 0.0
H2752 H 1.00104 0.61009 0.34158 0.0
H2753 H 0.99408 0.621 0.31233 0.0
H2754 H 0.50684 0.50514 0.4614 0.0
H2755 H 0.48887 0.49667 0.43231 0.0
H2756 H 0.47792 0.53353 0.44324 0.0
H2757 H 0.49622 0.5423 0.47276 0.0
H2758 H 0.45536 0.48659 0.4334 0.0
H2759 H 0.48999 0.53781 0.38095 0.0
H2760 H 0.4992 0.53408 0.40272 0.0
H2761 H 0.48576 0.54162 0.40652 0.0
C2762 C 0.50072 0.51158 0.4577 0.0
C2763 C 0.50301 0.52445 0.4695 0.0
C2764 C 0.4904 0.50666 0.44099 0.0
C2765 C 0.48211 0.51449 0.43548 0.0
C2766 C 0.48436 0.52743 0.44707 0.0
H2767 H 0.41703 0.48918 0.32997 0.0
H2768 H 0.43284 0.50247 0.36022 0.0
C2769 C 0.49476 0.53239 0.46397 0.0
C2770 C 0.47086 0.50852 0.41791 0.0
H2771 H 0.46651 0.51631 0.36795 0.0
C2772 C 0.45771 0.49316 0.41916 0.0
C2773 C 0.47388 0.51711 0.39936 0.0
C2774 C 0.488 0.53355 0.3971 0.0
C2775 C 0.44778 0.486 0.40226 0.0
C2776 C 0.45124 0.49431 0.38341 0.0
C2777 C 0.46396 0.50992 0.38236 0.0
C2778 C 0.44218 0.48668 0.3645 0.0
C2779 C 0.43371 0.46953 0.40471 0.0
C2780 C 0.44246 0.4736 0.35654 0.0
C2781 C 0.43347 0.46597 0.33924 0.0
C2782 C 0.42401 0.47129 0.3294 0.0
C2783 C 0.42412 0.4847 0.33711 0.0
C2784 C 0.43316 0.49234 0.35443 0.0
H2785 H 0.42997 0.46657 0.42103 0.0
H2786 H 0.42317 0.46796 0.39577 0.0
H2787 H 0.43729 0.46111 0.39898 0.0
H2788 H 0.44959 0.4692 0.36382 0.0
H2789 H 0.4338 0.45577 0.33375 0.0
H2790 H 0.67452 0.85321 0.29738 0.0
H2791 H 0.66838 0.83596 0.26735 0.0
H2792 H 0.71832 0.86191 0.24849 0.0
H2793 H 0.7245 0.87878 0.27786 0.0
H2794 H 0.6733 0.84271 0.22363 0.0
H2795 H 0.70984 0.81696 0.25034 0.0
H2796 H 0.70373 0.8276 0.26715 0.0
H2797 H 0.72094 0.838 0.25033 0.0
C2798 C 0.68416 0.85521 0.28682 0.0
C2799 C 0.70005 0.86739 0.29039 0.0
C2800 C 0.68064 0.84534 0.26961 0.0
C2801 C 0.69295 0.84736 0.25571 0.0
C2802 C 0.70863 0.85975 0.25907 0.0
H2803 H 0.71248 0.81177 0.1446 0.0
H2804 H 0.71239 0.8258 0.1754 0.0
C2805 C 0.71212 0.86951 0.27604 0.0
C2806 C 0.68987 0.83679 0.23764 0.0
H2807 H 0.70344 0.81419 0.2147 0.0
C2808 C 0.67968 0.83626 0.22183 0.0
C2809 C 0.6982 0.82833 0.23505 0.0
C2810 C 0.70867 0.8276 0.2517 0.0
C2811 C 0.67821 0.82821 0.20333 0.0
C2812 C 0.68699 0.82021 0.20049 0.0
C2813 C 0.69679 0.82037 0.21658 0.0
C2814 C 0.68664 0.81199 0.18089 0.0
C2815 C 0.66778 0.8289 0.1866 0.0
C2816 C 0.67221 0.79943 0.17338 0.0
C2817 C 0.67223 0.79133 0.15564 0.0
C2818 C 0.6867 0.79552 0.14488 0.0
C2819 C 0.70108 0.80821 0.1523 0.0
C2820 C 0.70105 0.81625 0.17004 0.0
H2821 H 0.66505 0.8385 0.18905 0.0
H2822 H 0.67371 0.83062 0.17137 0.0
H2823 H 0.65617 0.81765 0.1864 0.0
H2824 H 0.66093 0.79559 0.18154 0.0
H2825 H 0.66093 0.78156 0.15058 0.0
H2826 H 0.23287 0.91166 0.32001 0.0
H2827 H 0.2497 0.92469 0.28948 0.0
H2828 H 0.20748 0.91745 0.25693 0.0
H2829 H 0.19082 0.90483 0.28722 0.0
H2830 H 0.24931 0.91585 0.24862 0.0
H2831 H 0.23629 0.96475 0.25299 0.0
H2832 H 0.23136 0.95072 0.27359 0.0
H2833 H 0.21853 0.94576 0.25162 0.0
C2834 C 0.22719 0.91266 0.30623 0.0
C2835 C 0.21056 0.90739 0.30611 0.0
C2836 C 0.2368 0.92016 0.28883 0.0
C2837 C 0.22991 0.92244 0.27108 0.0
C2838 C 0.21316 0.91627 0.2706 0.0
H2839 H 0.27271 0.97272 0.15435 0.0
H2840 H 0.25315 0.95588 0.18092 0.0
C2841 C 0.20363 0.90895 0.28793 0.0
C2842 C 0.24015 0.93163 0.25323 0.0
H2843 H 0.25065 0.96423 0.22356 0.0
C2844 C 0.24961 0.92643 0.24317 0.0
C2845 C 0.24051 0.94544 0.24602 0.0
C2846 C 0.23126 0.9521 0.25671 0.0
C2847 C 0.25933 0.9346 0.2261 0.0
C2848 C 0.25977 0.94844 0.21902 0.0
C2849 C 0.25016 0.95353 0.22887 0.0
C2850 C 0.27128 0.95856 0.20272 0.0
C2851 C 0.26908 0.92834 0.21574 0.0
C2852 C 0.28787 0.96591 0.20634 0.0
C2853 C 0.29897 0.97555 0.19143 0.0
C2854 C 0.29382 0.97818 0.17234 0.0
C2855 C 0.27712 0.97098 0.1688 0.0
C2856 C 0.26594 0.96133 0.18394 0.0
H2857 H 0.26418 0.91569 0.21924 0.0
H2858 H 0.26937 0.93 0.19887 0.0
H2859 H 0.28168 0.93484 0.22131 0.0
H2860 H 0.29228 0.96422 0.22084 0.0
H2861 H 0.31167 0.98083 0.19492 0.0
H2862 H 0.16048 0.40142 0.30047 0.0
H2863 H 0.14401 0.39707 0.27019 0.0
H2864 H 0.18687 0.41804 0.23208 0.0
H2865 H 0.20346 0.42201 0.26235 0.0
H2866 H 0.14507 0.41894 0.24242 0.0
H2867 H 0.15765 0.37578 0.20427 0.0
H2868 H 0.16228 0.38106 0.23082 0.0
H2869 H 0.17522 0.39398 0.21088 0.0
C2870 C 0.16641 0.40498 0.28564 0.0
C2871 C 0.18328 0.41191 0.2838 0.0
C2872 C 0.15699 0.40256 0.26837 0.0
C2873 C 0.1642 0.40698 0.24888 0.0
C2874 C 0.18105 0.41426 0.24697 0.0
H2875 H 0.11765 0.41715 0.14149 0.0
H2876 H 0.13642 0.42059 0.16878 0.0
C2877 C 0.19053 0.4167 0.26429 0.0
C2878 C 0.15397 0.40425 0.23073 0.0
H2879 H 0.14214 0.38431 0.18569 0.0
C2880 C 0.14444 0.41139 0.23 0.0
C2881 C 0.15303 0.3942 0.21472 0.0
C2882 C 0.16247 0.38568 0.2152 0.0
C2883 C 0.13408 0.40887 0.2136 0.0
C2884 C 0.13343 0.39915 0.19734 0.0
C2885 C 0.1428 0.39185 0.19813 0.0
C2886 C 0.12301 0.39651 0.17946 0.0
C2887 C 0.1237 0.41645 0.21395 0.0
C2888 C 0.10961 0.38165 0.17593 0.0
C2889 C 0.09884 0.3796 0.16025 0.0
C2890 C 0.10138 0.39241 0.14789 0.0
C2891 C 0.11527 0.40708 0.15087 0.0
C2892 C 0.12599 0.40909 0.16648 0.0
H2893 H 0.12283 0.42046 0.22954 0.0
H2894 H 0.12908 0.42682 0.20353 0.0
H2895 H 0.11133 0.40818 0.20856 0.0
H2896 H 0.10718 0.37178 0.18578 0.0
H2897 H 0.08827 0.36816 0.15827 0.0
H2898 H 0.14765 0.32888 0.95207 0.0
H2899 H 0.13549 0.33536 0.98085 0.0
H2900 H 0.13058 0.36852 0.94241 0.0
H2901 H 0.14273 0.36217 0.91376 0.0
H2902 H 0.14323 0.38053 0.98026 0.0
H2903 H 0.08789 0.32199 0.98786 0.0
H2904 H 0.10657 0.32188 0.98947 0.0
H2905 H 0.10123 0.32754 0.96587 0.0
C2906 C 0.14383 0.33743 0.94975 0.0
C2907 C 0.14616 0.34503 0.93067 0.0
C2908 C 0.1369 0.34113 0.96618 0.0
C2909 C 0.13201 0.35233 0.9637 0.0
C2910 C 0.13432 0.35989 0.94467 0.0
H2911 H 0.06461 0.36765 0.03146 0.0
H2912 H 0.08009 0.36185 1.00682 0.0
C2913 C 0.14131 0.35628 0.92832 0.0
C2914 C 0.12447 0.35628 0.9808 0.0
H2915 H 0.0911 0.34111 0.01187 0.0
C2916 C 0.13187 0.37192 0.98727 0.0
C2917 C 0.1096 0.34502 0.98976 0.0
C2918 C 0.10075 0.32819 0.98282 0.0
C2919 C 0.12465 0.37667 1.00225 0.0
C2920 C 0.10979 0.3654 0.01122 0.0
C2921 C 0.10254 0.34971 1.00501 0.0
C2922 C 0.10097 0.36973 0.02613 0.0
C2923 C 0.13267 0.39379 1.00776 0.0
C2924 C 0.10764 0.37621 0.04515 0.0
C2925 C 0.09884 0.37968 0.05931 0.0
C2926 C 0.08315 0.37655 0.05474 0.0
C2927 C 0.07663 0.37019 0.03556 0.0
C2928 C 0.08544 0.36683 0.02143 0.0
H2929 H 0.14198 0.40137 0.99624 0.0
H2930 H 0.12365 0.3977 1.00914 0.0
H2931 H 0.13868 0.39553 0.02277 0.0
H2932 H 0.1195 0.37828 0.04922 0.0
H2933 H 0.10418 0.38443 0.074 0.0
H2934 H 0.65921 0.83128 0.88914 0.0
H2935 H 0.65812 0.81914 0.92232 0.0
H2936 H 0.69787 0.86282 0.94309 0.0
H2937 H 0.69855 0.87519 0.91012 0.0
H2938 H 0.67864 0.81317 0.93832 0.0
H2939 H 0.67106 0.85125 0.99367 0.0
H2940 H 0.66867 0.85264 0.96648 0.0
H2941 H 0.68848 0.86231 0.9776 0.0
C2942 C 0.66749 0.83845 0.90092 0.0
C2943 C 0.67889 0.8543 0.89685 0.0
C2944 C 0.66691 0.83143 0.91997 0.0
C2945 C 0.67779 0.83997 0.93562 0.0
C2946 C 0.68899 0.85594 0.93173 0.0
H2947 H 0.70976 0.7971 0.02562 0.0
H2948 H 0.70572 0.81093 0.99748 0.0
C2949 C 0.68942 0.86304 0.91271 0.0
C2950 C 0.67823 0.83176 0.95506 0.0
H2951 H 0.6799 0.83413 1.00757 0.0
C2952 C 0.67874 0.81776 0.95341 0.0
C2953 C 0.67812 0.8374 0.97504 0.0
C2954 C 0.67637 0.85163 0.97834 0.0
C2955 C 0.67961 0.80961 0.97077 0.0
C2956 C 0.6805 0.81574 0.99064 0.0
C2957 C 0.67944 0.82944 0.99245 0.0
C2958 C 0.6834 0.80845 1.00934 0.0
C2959 C 0.67942 0.79434 0.96753 0.0
C2960 C 0.67271 0.80307 0.02635 0.0
C2961 C 0.67515 0.7952 0.04299 0.0
C2962 C 0.68832 0.79252 0.04292 0.0
C2963 C 0.69931 0.79861 0.02626 0.0
C2964 C 0.69697 0.80652 1.00993 0.0
H2965 H 0.67336 0.78873 0.953 0.0
H2966 H 0.69202 0.79668 0.96653 0.0
H2967 H 0.67316 0.78594 0.98036 0.0
H2968 H 0.66221 0.80452 0.02648 0.0
H2969 H 0.66645 0.79076 0.0555 0.0
H2970 H 0.18889 0.89997 0.95511 0.0
H2971 H 0.20496 0.91289 0.98529 0.0
H2972 H 0.24599 0.9419 0.94628 0.0
H2973 H 0.23006 0.9285 0.91611 0.0
H2974 H 0.25562 0.93233 0.97723 0.0
H2975 H 0.21683 0.95433 1.00838 0.0
H2976 H 0.20593 0.93342 1.00589 0.0
H2977 H 0.21375 0.94574 0.98335 0.0
C2978 C 0.20128 0.90923 0.95297 0.0
C2979 C 0.20817 0.9133 0.9332 0.0
C2980 C 0.21047 0.91668 0.97026 0.0
C2981 C 0.22666 0.92869 0.96819 0.0
C2982 C 0.23354 0.93274 0.9484 0.0
H2983 H 0.28169 0.99447 0.0641 0.0
H2984 H 0.26486 0.98065 0.0349 0.0
C2985 C 0.22444 0.92509 0.93113 0.0
C2986 C 0.23658 0.93667 0.98658 0.0
H2987 H 0.23719 0.9557 0.03052 0.0
C2988 C 0.2516 0.93751 0.98882 0.0
C2989 C 0.23154 0.94368 1.00166 0.0
C2990 C 0.21622 0.94441 0.99961 0.0
C2991 C 0.26162 0.94502 1.0056 0.0
C2992 C 0.25626 0.95141 0.02115 0.0
C2993 C 0.24128 0.95065 0.01885 0.0
C2994 C 0.26626 0.95954 0.03944 0.0
C2995 C 0.27808 0.94645 1.00605 0.0
C2996 C 0.27249 0.95226 0.05215 0.0
C2997 C 0.2824 0.9603 0.06873 0.0
C2998 C 0.28595 0.97564 0.07329 0.0
C2999 C 0.27919 0.98266 0.06106 0.0
C3000 C 0.26953 0.97474 0.04431 0.0
H3001 H 0.28221 0.94545 0.99046 0.0
H3002 H 0.28722 0.95781 0.0126 0.0
H3003 H 0.27748 0.9368 0.01561 0.0
H3004 H 0.26975 0.94037 0.04925 0.0
H3005 H 0.2873 0.9545 0.07795 0.0
H3006 H 0.70753 0.89876 0.42309 0.0
H3007 H 0.7017 0.90898 0.45402 0.0
H3008 H 0.67633 0.9264 0.41775 0.0
H3009 H 0.68152 0.91536 0.38686 0.0
H3010 H 0.71212 0.93712 0.46424 0.0
H3011 H 0.6457 0.91008 0.46439 0.0
H3012 H 0.65615 0.90366 0.44741 0.0
H3013 H 0.65469 0.92077 0.44112 0.0
C3014 C 0.70017 0.90425 0.42183 0.0
C3015 C 0.69462 0.90584 0.40256 0.0
C3016 C 0.69699 0.9103 0.43956 0.0
C3017 C 0.68843 0.91848 0.43861 0.0
C3018 C 0.68255 0.91981 0.41932 0.0
H3019 H 0.70025 0.98477 0.53763 0.0
H3020 H 0.70309 0.9728 0.50624 0.0
C3021 C 0.68547 0.91343 0.40155 0.0
C3022 C 0.6868 0.92643 0.45754 0.0
H3023 H 0.65992 0.9312 0.48738 0.0
C3024 C 0.70064 0.9357 0.46928 0.0
C3025 C 0.67188 0.92465 0.46456 0.0
C3026 C 0.65624 0.91412 0.45384 0.0
C3027 C 0.70003 0.94305 0.48753 0.0
C3028 C 0.68522 0.94173 0.49416 0.0
C3029 C 0.67137 0.93247 0.48243 0.0
C3030 C 0.68367 0.94933 0.51349 0.0
C3031 C 0.71525 0.95168 0.49985 0.0
C3032 C 0.67152 0.94045 0.5281 0.0
C3033 C 0.66967 0.94739 0.54592 0.0
C3034 C 0.68 0.96345 0.54991 0.0
C3035 C 0.69224 0.97234 0.53539 0.0
C3036 C 0.69393 0.96543 0.51736 0.0
H3037 H 0.72379 0.9474 0.4965 0.0
H3038 H 0.72141 0.96434 0.49576 0.0
H3039 H 0.71258 0.95034 0.51656 0.0
H3040 H 0.66338 0.92806 0.52574 0.0
H3041 H 0.66004 0.9401 0.55659 0.0
H3042 H 0.18165 0.88625 0.44404 0.0
H3043 H 0.17061 0.86705 0.47188 0.0
H3044 H 0.16867 0.83151 0.43179 0.0
H3045 H 0.17979 0.85091 0.40353 0.0
H3046 H 0.13948 0.82251 0.45155 0.0
H3047 H 0.18797 0.84576 0.50868 0.0
H3048 H 0.18414 0.86082 0.49966 0.0
H3049 H 0.19165 0.85185 0.48208 0.0
C3050 C 0.17931 0.87446 0.44124 0.0
C3051 C 0.1817 0.87014 0.42161 0.0
C3052 C 0.17304 0.86347 0.45725 0.0
C3053 C 0.16896 0.84783 0.4541 0.0
C3054 C 0.17187 0.84354 0.43467 0.0
H3055 H 0.10446 0.7744 0.54499 0.0
H3056 H 0.12404 0.78594 0.51639 0.0
C3057 C 0.17834 0.85466 0.41858 0.0
C3058 C 0.1601 0.83592 0.4706 0.0
H3059 H 0.16059 0.83017 0.52225 0.0
C3060 C 0.14425 0.82387 0.46689 0.0
C3061 C 0.16629 0.83764 0.49066 0.0
C3062 C 0.18351 0.84963 0.49545 0.0
C3063 C 0.13406 0.81439 0.48296 0.0
C3064 C 0.1399 0.81692 0.50324 0.0
C3065 C 0.15607 0.82826 0.50672 0.0
C3066 C 0.12888 0.80964 0.52123 0.0
C3067 C 0.11675 0.80247 0.47841 0.0
C3068 C 0.1254 0.81914 0.53369 0.0
C3069 C 0.11428 0.81262 0.54983 0.0
C3070 C 0.10639 0.79641 0.55414 0.0
C3071 C 0.11032 0.78692 0.54213 0.0
C3072 C 0.12143 0.79348 0.52572 0.0
H3073 H 0.11372 0.80281 0.46208 0.0
H3074 H 0.11457 0.79053 0.48206 0.0
H3075 H 0.10847 0.80455 0.48818 0.0
H3076 H 0.13101 0.83162 0.53057 0.0
H3077 H 0.1117 0.82035 0.55881 0.0
H3078 H 0.20925 0.39113 0.43253 0.0
H3079 H 0.22114 0.38763 0.46365 0.0
H3080 H 0.26216 0.43411 0.45571 0.0
H3081 H 0.25053 0.43754 0.4241 0.0
H3082 H 0.27031 0.41075 0.46342 0.0
H3083 H 0.22501 0.40753 0.51981 0.0
H3084 H 0.21657 0.39424 0.4988 0.0
H3085 H 0.22665 0.41504 0.49406 0.0
C3086 C 0.22081 0.40062 0.43736 0.0
C3087 C 0.22898 0.4146 0.42577 0.0
C3088 C 0.2275 0.39865 0.45528 0.0
C3089 C 0.24243 0.41067 0.46208 0.0
C3090 C 0.25056 0.42472 0.45074 0.0
H3091 H 0.28777 0.41928 0.57828 0.0
H3092 H 0.27432 0.42163 0.54808 0.0
C3093 C 0.24386 0.42671 0.43278 0.0
C3094 C 0.24985 0.40828 0.48058 0.0
H3095 H 0.24409 0.40073 0.53199 0.0
C3096 C 0.26462 0.4086 0.47844 0.0
C3097 C 0.2424 0.40554 0.50013 0.0
C3098 C 0.22685 0.4057 0.50345 0.0
C3099 C 0.27212 0.40616 0.49534 0.0
C3100 C 0.2645 0.40309 0.51481 0.0
C3101 C 0.24978 0.40288 0.51698 0.0
C3102 C 0.27209 0.40103 0.53336 0.0
C3103 C 0.2883 0.40722 0.49232 0.0
C3104 C 0.27503 0.38846 0.53527 0.0
C3105 C 0.28277 0.38704 0.5526 0.0
C3106 C 0.28765 0.39816 0.56833 0.0
C3107 C 0.28426 0.4105 0.5665 0.0
C3108 C 0.27654 0.41188 0.54924 0.0
H3109 H 0.29407 0.41297 0.4775 0.0
H3110 H 0.2966 0.41388 0.50493 0.0
H3111 H 0.28663 0.39523 0.49241 0.0
H3112 H 0.27141 0.3798 0.52331 0.0
H3113 H 0.28512 0.37737 0.55352 0.0
H3114 H 0.19507 0.36169 0.78464 0.0
H3115 H 0.20989 0.36539 0.75267 0.0
H3116 H 0.19917 0.31733 0.75566 0.0
H3117 H 0.1846 0.31366 0.78821 0.0
H3118 H 0.23151 0.33848 0.74942 0.0
H3119 H 0.1953 0.35088 0.69478 0.0
H3120 H 0.20013 0.36287 0.71709 0.0
H3121 H 0.18756 0.34191 0.71959 0.0
C3122 C 0.19578 0.35187 0.77847 0.0
C3123 C 0.18879 0.33742 0.78903 0.0
C3124 C 0.20407 0.35394 0.76003 0.0
C3125 C 0.20542 0.34157 0.75162 0.0
C3126 C 0.19812 0.32698 0.76182 0.0
H3127 H 0.27139 0.3522 0.65006 0.0
H3128 H 0.24964 0.34003 0.67562 0.0
C3129 C 0.18975 0.32488 0.78033 0.0
C3130 C 0.21578 0.34452 0.73327 0.0
H3131 H 0.22321 0.36062 0.68517 0.0
C3132 C 0.22953 0.34299 0.73518 0.0
C3133 C 0.21315 0.35041 0.71474 0.0
C3134 C 0.19814 0.35146 0.71134 0.0
C3135 C 0.24126 0.34811 0.71952 0.0
C3136 C 0.23902 0.35476 0.70145 0.0
C3137 C 0.22492 0.35561 0.69914 0.0
C3138 C 0.25172 0.3619 0.68542 0.0
C3139 C 0.25634 0.34715 0.72282 0.0
C3140 C 0.25986 0.37819 0.68227 0.0
C3141 C 0.27229 0.38522 0.66772 0.0
C3142 C 0.27675 0.37604 0.65591 0.0
C3143 C 0.26833 0.35965 0.6589 0.0
C3144 C 0.25592 0.35265 0.67353 0.0
H3145 H 0.25732 0.34392 0.73887 0.0
H3146 H 0.25622 0.33815 0.71256 0.0
H3147 H 0.26724 0.35855 0.71893 0.0
H3148 H 0.25674 0.38551 0.69133 0.0
H3149 H 0.27844 0.39785 0.66583 0.0
H3150 H 0.68313 0.92547 0.81181 0.0
H3151 H 0.68171 0.93634 0.77876 0.0
H3152 H 0.68475 0.8993 0.74793 0.0
H3153 H 0.68646 0.88839 0.78126 0.0
H3154 H 0.70507 0.92839 0.73002 0.0
H3155 H 0.64428 0.92126 0.73997 0.0
H3156 H 0.65753 0.93186 0.76053 0.0
H3157 H 0.65174 0.91164 0.75658 0.0
C3158 C 0.68328 0.91942 0.79808 0.0
C3159 C 0.68477 0.90589 0.79941 0.0
C3160 C 0.68242 0.92569 0.77906 0.0
C3161 C 0.6829 0.91862 0.76063 0.0
C3162 C 0.68427 0.90502 0.76183 0.0
H3163 H 0.65709 0.94218 0.64287 0.0
H3164 H 0.65918 0.9296 0.67399 0.0
C3165 C 0.68512 0.89868 0.78096 0.0
C3166 C 0.6824 0.92573 0.7403 0.0
H3167 H 0.66037 0.93802 0.71258 0.0
C3168 C 0.69524 0.9304 0.72618 0.0
C3169 C 0.66956 0.92832 0.73498 0.0
C3170 C 0.65492 0.92287 0.74871 0.0
C3171 C 0.69571 0.93777 0.70727 0.0
C3172 C 0.68312 0.94085 0.70229 0.0
C3173 C 0.67017 0.93591 0.71629 0.0
C3174 C 0.68268 0.94856 0.68241 0.0
C3175 C 0.70956 0.94189 0.69264 0.0
C3176 C 0.69524 0.96354 0.67629 0.0
C3177 C 0.69413 0.97085 0.65816 0.0
C3178 C 0.68034 0.96345 0.64574 0.0
C3179 C 0.66793 0.94838 0.65185 0.0
C3180 C 0.66908 0.94111 0.66982 0.0
H3181 H 0.71562 0.93501 0.69599 0.0
H3182 H 0.70541 0.93979 0.67653 0.0
H3183 H 0.71864 0.95451 0.69417 0.0
H3184 H 0.70576 0.9698 0.6858 0.0
H3185 H 0.70387 0.98248 0.6542 0.0
H3186 H 0.16367 0.88699 0.77511 0.0
H3187 H 0.15021 0.87207 0.74464 0.0
H3188 H 0.14328 0.82972 0.77384 0.0
H3189 H 0.15648 0.84445 0.80458 0.0
H3190 H 0.15537 0.83423 0.73256 0.0
H3191 H 0.10138 0.84114 0.73886 0.0
H3192 H 0.12028 0.85921 0.73987 0.0
H3193 H 0.11486 0.84482 0.75998 0.0
C3194 C 0.15914 0.87449 0.77527 0.0
C3195 C 0.16119 0.86701 0.79255 0.0
C3196 C 0.15145 0.86595 0.75774 0.0
C3197 C 0.14555 0.84973 0.757 0.0
C3198 C 0.14771 0.84223 0.77404 0.0
H3199 H 0.09753 0.78092 0.65876 0.0
H3200 H 0.11144 0.79359 0.69045 0.0
C3201 C 0.15535 0.85073 0.79163 0.0
C3202 C 0.13726 0.84065 0.73838 0.0
H3203 H 0.1047 0.83059 0.70786 0.0
C3204 C 0.14423 0.83333 0.72721 0.0
C3205 C 0.1227 0.83943 0.73143 0.0
C3206 C 0.11425 0.84644 0.74322 0.0
C3207 C 0.13734 0.82531 0.7089 0.0
C3208 C 0.1229 0.8243 0.70178 0.0
C3209 C 0.1158 0.83138 0.71322 0.0
C3210 C 0.11519 0.81653 0.68216 0.0
C3211 C 0.14592 0.81849 0.697 0.0
C3212 C 0.11249 0.82508 0.66696 0.0
C3213 C 0.10445 0.81786 0.64896 0.0
C3214 C 0.09883 0.80182 0.64561 0.0
C3215 C 0.1018 0.7933 0.66068 0.0
C3216 C 0.10982 0.80056 0.67882 0.0
H3217 H 0.15872 0.82365 0.70163 0.0
H3218 H 0.13981 0.80566 0.69996 0.0
H3219 H 0.14556 0.82043 0.68028 0.0
H3220 H 0.1165 0.8374 0.66911 0.0
H3221 H 0.10245 0.82487 0.63778 0.0
H3222 H 0.39626 0.22168 0.62912 0.0
H3223 H 0.39106 0.2057 0.599 0.0
H3224 H 0.34341 0.17311 0.62201 0.0
H3225 H 0.34861 0.18929 0.65297 0.0
H3226 H 0.38259 0.17266 0.60032 0.0
H3227 H 0.33764 0.18305 0.55986 0.0
H3228 H 0.3511 0.19659 0.57863 0.0
H3229 H 0.33463 0.17798 0.58675 0.0
C3230 C 0.38456 0.21117 0.62797 0.0
C3231 C 0.37289 0.20679 0.64375 0.0
C3232 C 0.38163 0.20201 0.61056 0.0
C3233 C 0.36688 0.18817 0.6081 0.0
C3234 C 0.35489 0.18382 0.62346 0.0
H3235 H 0.3417 0.1264 0.50074 0.0
H3236 H 0.34044 0.13901 0.53239 0.0
C3237 C 0.35786 0.19307 0.64117 0.0
C3238 C 0.36481 0.17829 0.58975 0.0
H3239 H 0.34738 0.16852 0.54248 0.0
C3240 C 0.37475 0.17161 0.58777 0.0
C3241 C 0.3546 0.17688 0.57333 0.0
C3242 C 0.34388 0.18401 0.57452 0.0
C3243 C 0.37497 0.16383 0.56982 0.0
C3244 C 0.36532 0.16303 0.55295 0.0
C3245 C 0.35494 0.16923 0.55521 0.0
C3246 C 0.36598 0.15592 0.53292 0.0
C3247 C 0.3855 0.15644 0.56923 0.0
C3248 C 0.38067 0.16142 0.52212 0.0
C3249 C 0.38144 0.15418 0.50398 0.0
C3250 C 0.3675 0.14134 0.49599 0.0
C3251 C 0.3527 0.13624 0.50638 0.0
C3252 C 0.35195 0.14345 0.52456 0.0
H3253 H 0.38803 0.15381 0.5849 0.0
H3254 H 0.37979 0.14541 0.56036 0.0
H3255 H 0.39723 0.16473 0.56182 0.0
H3256 H 0.39163 0.17127 0.52783 0.0
H3257 H 0.39303 0.1585 0.4964 0.0
H3258 H 0.90079 0.24839 0.64069 0.0
H3259 H 0.91292 0.26766 0.61294 0.0
H3260 H 0.92051 0.23484 0.57793 0.0
H3261 H 0.90846 0.21547 0.60585 0.0
H3262 H 0.94684 0.26352 0.57727 0.0
H3263 H 0.89359 0.26918 0.55883 0.0
H3264 H 0.89881 0.27273 0.58537 0.0
H3265 H 0.89226 0.2536 0.57497 0.0
C3266 C 0.90485 0.24518 0.62699 0.0
C3267 C 0.90351 0.23031 0.62541 0.0
C3268 C 0.91174 0.25621 0.61108 0.0
C3269 C 0.91727 0.25259 0.5931 0.0
C3270 C 0.9162 0.23786 0.59158 0.0
H3271 H 0.94851 0.31222 0.48241 0.0
H3272 H 0.93295 0.29101 0.50725 0.0
C3273 C 0.90938 0.22682 0.60758 0.0
C3274 C 0.92485 0.26447 0.57634 0.0
H3275 H 0.91903 0.28933 0.54534 0.0
C3276 C 0.94069 0.26905 0.57017 0.0
C3277 C 0.91676 0.27153 0.56679 0.0
C3278 C 0.89936 0.26639 0.57166 0.0
C3279 C 0.94886 0.28085 0.55529 0.0
C3280 C 0.94111 0.28857 0.54665 0.0
C3281 C 0.92506 0.2836 0.55222 0.0
C3282 C 0.94966 0.30199 0.53208 0.0
C3283 C 0.9657 0.28487 0.54887 0.0
C3284 C 0.96384 0.31548 0.53804 0.0
C3285 C 0.97275 0.32755 0.52393 0.0
C3286 C 0.96759 0.32652 0.50357 0.0
C3287 C 0.95284 0.31342 0.49795 0.0
C3288 C 0.94396 0.30125 0.51211 0.0
H3289 H 0.96794 0.27503 0.55213 0.0
H3290 H 0.96784 0.28782 0.53228 0.0
H3291 H 0.9746 0.29518 0.55761 0.0
H3292 H 0.96823 0.31651 0.55352 0.0
H3293 H 0.98394 0.33753 0.52888 0.0
H3294 H 0.80922 0.67366 0.61435 0.0
H3295 H 0.79737 0.67844 0.58394 0.0
H3296 H 0.84024 0.68944 0.5489 0.0
H3297 H 0.85184 0.68414 0.57913 0.0
H3298 H 0.80773 0.70493 0.56372 0.0
H3299 H 0.80637 0.66102 0.50991 0.0
H3300 H 0.81025 0.66068 0.53686 0.0
H3301 H 0.82617 0.67375 0.51962 0.0
C3302 C 0.81596 0.67685 0.60004 0.0
C3303 C 0.83136 0.67841 0.59902 0.0
C3304 C 0.80922 0.6796 0.5827 0.0
C3305 C 0.81782 0.68412 0.56402 0.0
C3306 C 0.83317 0.68554 0.56293 0.0
H3307 H 0.79262 0.73164 0.46925 0.0
H3308 H 0.80697 0.72577 0.49569 0.0
C3309 C 0.8398 0.68254 0.58022 0.0
C3310 C 0.8111 0.68831 0.54616 0.0
H3311 H 0.80144 0.68055 0.49568 0.0
C3312 C 0.8063 0.69954 0.54886 0.0
C3313 C 0.80912 0.68121 0.52679 0.0
C3314 C 0.8131 0.66838 0.52314 0.0
C3315 C 0.7995 0.70381 0.53285 0.0
C3316 C 0.79797 0.69708 0.51331 0.0
C3317 C 0.80282 0.68587 0.51057 0.0
C3318 C 0.79038 0.70071 0.49592 0.0
C3319 C 0.79351 0.71508 0.53731 0.0
C3320 C 0.77682 0.68852 0.48645 0.0
C3321 C 0.76884 0.69181 0.47106 0.0
C3322 C 0.77419 0.70738 0.46491 0.0
C3323 C 0.78813 0.71954 0.47382 0.0
C3324 C 0.79626 0.71621 0.48905 0.0
H3325 H 0.79151 0.71571 0.55399 0.0
H3326 H 0.80266 0.72701 0.53196 0.0
H3327 H 0.78203 0.71163 0.52929 0.0
H3328 H 0.77209 0.67646 0.4914 0.0
H3329 H 0.75814 0.68216 0.4645 0.0
H3330 H 0.81061 0.66406 0.24172 0.0
H3331 H 0.80395 0.66967 0.27588 0.0
H3332 H 0.80107 0.70883 0.25074 0.0
H3333 H 0.80758 0.70326 0.21674 0.0
H3334 H 0.81994 0.71567 0.28714 0.0
H3335 H 0.75919 0.6622 0.2948 0.0
H3336 H 0.7759 0.65931 0.28882 0.0
H3337 H 0.76958 0.66873 0.27043 0.0
C3338 C 0.80832 0.67371 0.24346 0.0
C3339 C 0.80963 0.68324 0.22657 0.0
C3340 C 0.80462 0.67695 0.26297 0.0
C3341 C 0.80206 0.68968 0.26577 0.0
C3342 C 0.80316 0.69904 0.2489 0.0
H3343 H 0.7522 0.71671 0.34494 0.0
H3344 H 0.76641 0.71146 0.3178 0.0
C3345 C 0.80687 0.69584 0.2295 0.0
C3346 C 0.79799 0.69331 0.28614 0.0
H3347 H 0.76714 0.68076 0.32095 0.0
C3348 C 0.80852 0.70795 0.29477 0.0
C3349 C 0.78306 0.6832 0.29592 0.0
C3350 C 0.77118 0.66751 0.28705 0.0
C3351 C 0.8042 0.71299 0.31255 0.0
C3352 C 0.78902 0.70313 0.3218 0.0
C3353 C 0.77881 0.68823 0.31373 0.0
C3354 C 0.78252 0.70869 0.33824 0.0
C3355 C 0.81541 0.72911 0.32075 0.0
C3356 C 0.78734 0.70942 0.35864 0.0
C3357 C 0.77925 0.7125 0.37431 0.0
C3358 C 0.76618 0.71472 0.36965 0.0
C3359 C 0.76213 0.71492 0.34904 0.0
C3360 C 0.77021 0.71191 0.3335 0.0
H3361 H 0.8267 0.7355 0.3115 0.0
H3362 H 0.80922 0.73612 0.32092 0.0
H3363 H 0.81859 0.72811 0.33679 0.0
H3364 H 0.7968 0.70688 0.36251 0.0
H3365 H 0.78255 0.71216 0.39007 0.0
H3366 H 0.34222 0.17231 0.24034 0.0
H3367 H 0.34333 0.16249 0.27425 0.0
H3368 H 0.36892 0.20981 0.2967 0.0
H3369 H 0.36822 0.21983 0.26239 0.0
H3370 H 0.38355 0.19449 0.30878 0.0
H3371 H 0.31884 0.15612 0.32643 0.0
H3372 H 0.32396 0.15106 0.30232 0.0
H3373 H 0.32583 0.17008 0.30543 0.0
C3374 C 0.34784 0.1807 0.25251 0.0
C3375 C 0.35506 0.19693 0.24846 0.0
C3376 C 0.34837 0.175 0.27208 0.0
C3377 C 0.35596 0.1853 0.28839 0.0
C3378 C 0.36288 0.20153 0.28454 0.0
H3379 H 0.35404 0.14432 0.41168 0.0
H3380 H 0.34989 0.15929 0.38426 0.0
C3381 C 0.36239 0.20727 0.26487 0.0
C3382 C 0.35778 0.17914 0.3088 0.0
H3383 H 0.33716 0.15062 0.34534 0.0
C3384 C 0.37333 0.18506 0.31687 0.0
C3385 C 0.34452 0.16698 0.31983 0.0
C3386 C 0.32734 0.16082 0.31316 0.0
C3387 C 0.37606 0.17869 0.33482 0.0
C3388 C 0.36295 0.16573 0.34494 0.0
C3389 C 0.34729 0.16037 0.33755 0.0
C3390 C 0.36546 0.15692 0.36209 0.0
C3391 C 0.39307 0.1859 0.34267 0.0
C3392 C 0.37538 0.15038 0.35886 0.0
C3393 C 0.37778 0.14191 0.37439 0.0
C3394 C 0.37021 0.13949 0.39379 0.0
C3395 C 0.36016 0.14596 0.39707 0.0
C3396 C 0.35774 0.1545 0.38135 0.0
H3397 H 0.40037 0.19844 0.33801 0.0
H3398 H 0.39323 0.18505 0.35963 0.0
H3399 H 0.39895 0.17963 0.33603 0.0
H3400 H 0.38119 0.15165 0.34411 0.0
H3401 H 0.38558 0.13716 0.371 0.0
H3402 H 0.85739 0.23142 0.29885 0.0
H3403 H 0.87285 0.24636 0.32862 0.0
H3404 H 0.91258 0.27683 0.28869 0.0
H3405 H 0.89713 0.26218 0.25903 0.0
H3406 H 0.90129 0.25226 0.34446 0.0
H3407 H 0.90603 0.30832 0.31987 0.0
H3408 H 0.89277 0.28999 0.30759 0.0
H3409 H 0.9139 0.3008 0.30083 0.0
C3410 C 0.86944 0.24129 0.29647 0.0
C3411 C 0.87594 0.24576 0.27656 0.0
C3412 C 0.87825 0.24983 0.31347 0.0
C3413 C 0.89374 0.26297 0.31088 0.0
C3414 C 0.90046 0.26708 0.29106 0.0
H3415 H 0.96839 0.30908 0.40188 0.0
H3416 H 0.95006 0.2917 0.37579 0.0
C3417 C 0.89162 0.25867 0.2741 0.0
C3418 C 0.90298 0.27236 0.3288 0.0
H3419 H 0.92352 0.3098 0.34677 0.0
C3420 C 0.90604 0.26482 0.34506 0.0
C3421 C 0.90894 0.28872 0.32981 0.0
C3422 C 0.9051 0.2974 0.3137 0.0
C3423 C 0.91529 0.27325 0.36197 0.0
C3424 C 0.92201 0.28975 0.36239 0.0
C3425 C 0.91855 0.29719 0.34639 0.0
C3426 C 0.93273 0.29961 0.37913 0.0
C3427 C 0.91752 0.26433 0.37931 0.0
C3428 C 0.92934 0.31013 0.38948 0.0
C3429 C 0.93996 0.32029 0.40413 0.0
C3430 C 0.95419 0.32011 0.40883 0.0
C3431 C 0.95745 0.30939 0.39876 0.0
C3432 C 0.9469 0.29936 0.38392 0.0
H3433 H 0.90762 0.2519 0.37988 0.0
H3434 H 0.92902 0.26434 0.37693 0.0
H3435 H 0.91798 0.26977 0.39432 0.0
H3436 H 0.91853 0.31062 0.38605 0.0
H3437 H 0.9371 0.3284 0.41162 0.0
H3438 H 0.39814 0.26586 0.76221 0.0
H3439 H 0.39162 0.27565 0.79262 0.0
H3440 H 0.34129 0.24141 0.78597 0.0
H3441 H 0.34779 0.23132 0.75491 0.0
H3442 H 0.37136 0.2886 0.79574 0.0
H3443 H 0.35051 0.23649 0.84701 0.0
H3444 H 0.36199 0.23898 0.82382 0.0
H3445 H 0.34105 0.2333 0.82241 0.0
C3446 C 0.38562 0.26023 0.76707 0.0
C3447 C 0.3735 0.24769 0.75589 0.0
C3448 C 0.38192 0.26594 0.78461 0.0
C3449 C 0.366 0.2593 0.79184 0.0
C3450 C 0.35374 0.24666 0.78092 0.0
H3451 H 0.33052 0.28437 0.90163 0.0
H3452 H 0.3333 0.27193 0.8709 0.0
C3453 C 0.35745 0.24091 0.76309 0.0
C3454 C 0.36261 0.26612 0.81047 0.0
H3455 H 0.35098 0.25871 0.86097 0.0
C3456 C 0.36681 0.28201 0.80997 0.0
C3457 C 0.35669 0.25763 0.82912 0.0
C3458 C 0.35237 0.24068 0.83084 0.0
C3459 C 0.3653 0.2896 0.82742 0.0
C3460 C 0.35984 0.28125 0.84628 0.0
C3461 C 0.35531 0.26524 0.84668 0.0
C3462 C 0.35851 0.28882 0.86561 0.0
C3463 C 0.36932 0.30645 0.8253 0.0
C3464 C 0.37183 0.30242 0.87344 0.0
C3465 C 0.37028 0.3097 0.89114 0.0
C3466 C 0.35539 0.30349 0.90168 0.0
C3467 C 0.34222 0.28961 0.89409 0.0
C3468 C 0.34377 0.28241 0.8764 0.0
H3469 H 0.36855 0.30958 0.80912 0.0
H3470 H 0.36108 0.30877 0.8348 0.0
H3471 H 0.38186 0.31426 0.83044 0.0
H3472 H 0.38348 0.30745 0.86583 0.0
H3473 H 0.38073 0.32027 0.89645 0.0
H3474 H 0.87108 0.18278 0.78084 0.0
H3475 H 0.85499 0.17191 0.81228 0.0
H3476 H 0.81221 0.14578 0.7761 0.0
H3477 H 0.8282 0.15723 0.7448 0.0
H3478 H 0.80584 0.15924 0.8052 0.0
H3479 H 0.83713 0.13052 0.84006 0.0
H3480 H 0.85065 0.15101 0.83541 0.0
H3481 H 0.84126 0.13809 0.81416 0.0
C3482 C 0.85828 0.17453 0.77967 0.0
C3483 C 0.85086 0.17081 0.76043 0.0
C3484 C 0.84909 0.16824 0.79763 0.0
C3485 C 0.83237 0.15777 0.79666 0.0
C3486 C 0.82506 0.15381 0.77734 0.0
H3487 H 0.77048 0.10209 0.89876 0.0
H3488 H 0.78856 0.11194 0.86888 0.0
C3489 C 0.83418 0.16033 0.75945 0.0
C3490 C 0.82226 0.15173 0.81565 0.0
H3491 H 0.81871 0.13361 0.86182 0.0
C3492 C 0.80863 0.15353 0.8175 0.0
C3493 C 0.82569 0.14409 0.83167 0.0
C3494 C 0.83938 0.14066 0.83015 0.0
C3495 C 0.79844 0.14804 0.83482 0.0
C3496 C 0.80233 0.14112 0.85129 0.0
C3497 C 0.81585 0.13914 0.84939 0.0
C3498 C 0.79226 0.13548 0.87033 0.0
C3499 C 0.78336 0.14934 0.83492 0.0
C3500 C 0.78868 0.14553 0.88154 0.0
C3501 C 0.77812 0.13986 0.8984 0.0
C3502 C 0.77126 0.12411 0.90478 0.0
C3503 C 0.77558 0.11429 0.89427 0.0
C3504 C 0.78591 0.11991 0.87716 0.0
H3505 H 0.77958 0.15016 0.81912 0.0
H3506 H 0.77318 0.13911 0.8428 0.0
H3507 H 0.78579 0.16016 0.84305 0.0
H3508 H 0.79386 0.15773 0.87707 0.0
H3509 H 0.77521 0.14778 0.90633 0.0
H3510 H 0.88157 0.65859 0.73568 0.0
H3511 H 0.89834 0.66395 0.7661 0.0
H3512 H 0.89489 0.70527 0.77769 0.0
H3513 H 0.87774 0.69972 0.74793 0.0
H3514 H 0.92793 0.69028 0.77305 0.0
H3515 H 0.88412 0.68396 0.83354 0.0
H3516 H 0.87804 0.67686 0.80786 0.0
H3517 H 0.8859 0.69727 0.81344 0.0
C3518 C 0.88413 0.66864 0.74493 0.0
C3519 C 0.87832 0.67874 0.7393 0.0
C3520 C 0.89379 0.67175 0.76223 0.0
C3521 C 0.89769 0.6849 0.77431 0.0
C3522 C 0.89179 0.69489 0.76884 0.0
H3523 H 0.96132 0.73505 0.87348 0.0
H3524 H 0.94273 0.72603 0.84465 0.0
C3525 C 0.88214 0.6918 0.75162 0.0
C3526 C 0.90866 0.68876 0.79198 0.0
H3527 H 0.91194 0.6971 0.84302 0.0
C3528 C 0.92438 0.69158 0.78841 0.0
C3529 C 0.90401 0.69049 0.81199 0.0
C3530 C 0.88705 0.68683 0.81701 0.0
C3531 C 0.93576 0.6966 0.80418 0.0
C3532 C 0.9312 0.69868 0.82404 0.0
C3533 C 0.91541 0.69559 0.82771 0.0
C3534 C 0.9427 0.70417 0.84124 0.0
C3535 C 0.95269 0.70009 0.79935 0.0
C3536 C 0.94875 0.6948 0.84889 0.0
C3537 C 0.95934 0.69988 0.86539 0.0
C3538 C 0.96408 0.71444 0.87459 0.0
C3539 C 0.95799 0.7238 0.86679 0.0
C3540 C 0.94734 0.71866 0.85033 0.0
H3541 H 0.95517 0.70107 0.78259 0.0
H3542 H 0.9617 0.71118 0.80666 0.0
H3543 H 0.95436 0.69048 0.80554 0.0
H3544 H 0.94512 0.68347 0.84226 0.0
H3545 H 0.96373 0.69233 0.87099 0.0
H3546 H 0.88362 0.70057 0.10442 0.0
H3547 H 0.90192 0.70305 0.07672 0.0
H3548 H 0.86148 0.671 0.04033 0.0
H3549 H 0.84291 0.66898 0.06773 0.0
H3550 H 0.90716 0.68114 0.05819 0.0
H3551 H 0.88511 0.70862 1.00195 0.0
H3552 H 0.87958 0.70643 0.02874 0.0
H3553 H 0.86995 0.68991 0.01199 0.0
C3554 C 0.87851 0.69421 0.09046 0.0
C3555 C 0.8617 0.68476 0.08825 0.0
C3556 C 0.88905 0.69551 0.07469 0.0
C3557 C 0.88307 0.6874 0.05634 0.0
C3558 C 0.86635 0.67761 0.05421 0.0
H3559 H 0.95055 0.68625 0.96431 0.0
H3560 H 0.9285 0.67756 0.98947 0.0
C3561 C 0.85575 0.67634 0.06999 0.0
C3562 C 0.89449 0.68948 0.03948 0.0
H3563 H 0.90579 0.70397 0.99079 0.0
C3564 C 0.90681 0.68602 0.04338 0.0
C3565 C 0.89407 0.69598 0.02025 0.0
C3566 C 0.88157 0.70059 0.01545 0.0
C3567 C 0.91894 0.68922 0.02876 0.0
C3568 C 0.91854 0.69576 1.00955 0.0
C3569 C 0.906 0.69886 1.00548 0.0
C3570 C 0.9317 0.7007 0.9941 0.0
C3571 C 0.93245 0.68621 0.03434 0.0
C3572 C 0.94058 0.71651 0.98804 0.0
C3573 C 0.95303 0.72148 0.97358 0.0
C3574 C 0.95693 0.71074 0.96481 0.0
C3575 C 0.94796 0.69486 0.97085 0.0
C3576 C 0.9354 0.68987 0.98529 0.0
H3577 H 0.93288 0.68446 0.0511 0.0
H3578 H 0.9306 0.67544 0.02658 0.0
H3579 H 0.94431 0.69611 0.02921 0.0
H3580 H 0.93795 0.72507 0.99465 0.0
H3581 H 0.95967 0.73381 0.9694 0.0
H3582 H 0.36075 0.22904 0.13181 0.0
H3583 H 0.36045 0.24085 0.09866 0.0
H3584 H 0.35459 0.2762 0.1298 0.0
H3585 H 0.35449 0.26433 0.16274 0.0
H3586 H 0.33571 0.26644 0.09748 0.0
H3587 H 0.39688 0.27994 0.07272 0.0
H3588 H 0.38347 0.25949 0.07805 0.0
H3589 H 0.38931 0.27346 0.09842 0.0
C3590 C 0.35921 0.23922 0.13161 0.0
C3591 C 0.35765 0.24567 0.15011 0.0
C3592 C 0.35926 0.24612 0.11258 0.0
C3593 C 0.3579 0.25973 0.11155 0.0
C3594 C 0.3558 0.26582 0.12999 0.0
H3595 H 0.3802 0.32501 1.0067 0.0
H3596 H 0.38134 0.31216 0.03865 0.0
C3597 C 0.3557 0.25894 0.14893 0.0
C3598 C 0.35844 0.26762 0.09146 0.0
H3599 H 0.38143 0.28458 0.04819 0.0
C3600 C 0.34573 0.27038 0.08676 0.0
C3601 C 0.37163 0.27314 0.07745 0.0
C3602 C 0.38618 0.27152 0.08195 0.0
C3603 C 0.34571 0.27819 0.06856 0.0
C3604 C 0.35859 0.28317 0.05418 0.0
C3605 C 0.37145 0.28067 0.05899 0.0
C3606 C 0.35868 0.29073 0.03402 0.0
C3607 C 0.33197 0.28132 0.06517 0.0
C3608 C 0.34591 0.28288 0.02031 0.0
C3609 C 0.34521 0.29019 1.00216 0.0
C3610 C 0.35738 0.30558 0.99689 0.0
C3611 C 0.37061 0.3132 1.01014 0.0
C3612 C 0.37125 0.30584 0.02848 0.0
H3613 H 0.32594 0.28119 0.07984 0.0
H3614 H 0.33622 0.29282 0.05742 0.0
H3615 H 0.32281 0.27201 0.05535 0.0
H3616 H 0.33628 0.27108 0.02377 0.0
H3617 H 0.3349 0.28378 0.99234 0.0
H3618 H 0.80981 0.19089 0.15069 0.0
H3619 H 0.79399 0.17627 0.12097 0.0
H3620 H 0.83729 0.18171 0.09215 0.0
H3621 H 0.8528 0.19547 0.12235 0.0
H3622 H 0.79392 0.18332 0.08336 0.0
H3623 H 0.80938 0.13628 0.08463 0.0
H3624 H 0.81474 0.15009 0.10516 0.0
H3625 H 0.82727 0.1551 0.08243 0.0
C3626 C 0.81584 0.18883 0.13801 0.0
C3627 C 0.83244 0.1941 0.13884 0.0
C3628 C 0.80684 0.18049 0.12104 0.0
C3629 C 0.81433 0.1775 0.10442 0.0
C3630 C 0.83105 0.18327 0.10503 0.0
H3631 H 0.77133 0.15313 0.98304 0.0
H3632 H 0.78632 0.16665 0.01364 0.0
C3633 C 0.83996 0.19124 0.1222 0.0
C3634 C 0.80474 0.16876 0.08626 0.0
H3635 H 0.79778 0.13907 0.05365 0.0
C3636 C 0.79465 0.17354 0.077 0.0
C3637 C 0.80537 0.15576 0.07809 0.0
C3638 C 0.81464 0.14891 0.08825 0.0
C3639 C 0.78545 0.16593 0.05971 0.0
C3640 C 0.78692 0.1536 0.05076 0.0
C3641 C 0.79679 0.14865 0.06023 0.0
C3642 C 0.77813 0.14546 0.03185 0.0
C3643 C 0.77394 0.17094 0.05168 0.0
C3644 C 0.76915 0.12898 0.03138 0.0
C3645 C 0.76105 0.12123 0.01365 0.0
C3646 C 0.76154 0.12978 0.99607 0.0
C3647 C 0.77058 0.14624 0.99645 0.0
C3648 C 0.77902 0.15399 0.01403 0.0
H3649 H 0.7702 0.17631 0.06392 0.0
H3650 H 0.78006 0.17993 0.03943 0.0
H3651 H 0.76293 0.1609 0.04528 0.0
H3652 H 0.76827 0.12208 0.04483 0.0
H3653 H 0.75411 0.10853 0.01385 0.0
loop_
_geom_bond_atom_site_label_1
_geom_bond_atom_site_label_2
_geom_bond_distance
_geom_bond_site_symmetry_2
_ccdc_geom_bond_type
Cu0 N1 1.999 . S
Cu0 O6 1.974 1_554 S
Cu0 N11 1.985 1_554 S
Cu0 O20 1.959 . S
N1 Cu0 1.999 . S
N1 C3 1.263 . S
N1 C5 1.389 . S
N2 C3 1.358 . S
N2 C4 1.400 . S
C3 N1 1.263 . S
C3 N2 1.358 . S
C3 H9 0.930 . S
C4 N2 1.400 . S
C4 C5 1.351 . S
C4 H21 0.930 . S
C5 N1 1.389 . S
C5 C4 1.351 . S
C5 H10 0.930 . S
O6 Cu0 1.974 1_556 S
O6 C16 1.282 . S
C7 O8 1.261 . S
C7 O20 1.251 . S
O8 C7 1.261 . S
H9 C3 0.930 . S
H10 C5 0.930 . S
N11 Cu0 1.985 1_556 S
N11 C13 1.335 . S
N11 C14 1.390 . S
N12 C13 1.345 . S
N12 C15 1.336 . S
C13 N11 1.335 . S
C13 N12 1.345 . S
C13 H18 0.930 . S
C14 N11 1.390 . S
C14 C15 1.346 . S
C14 H19 0.930 . S
C15 N12 1.336 . S
C15 C14 1.346 . S
C15 H22 0.929 . S
C16 O6 1.282 . S
C16 O17 1.216 . S
O17 C16 1.216 . S
H18 C13 0.930 . S
H19 C14 0.930 . S
O20 Cu0 1.959 . S
O20 C7 1.251 . S
H21 C4 0.930 . S
H22 C15 0.929 . S
Cu23 N24 1.999 1_554 S
Cu23 O29 1.974 . S
Cu23 N34 1.985 . S
Cu23 O43 1.971 . S
N24 Cu23 1.999 1_556 S
N24 C26 1.263 . S
N24 C28 1.389 . S
N25 C26 1.358 . S
N25 C27 1.400 . S
C26 N24 1.263 . S
C26 N25 1.358 . S
C26 H32 0.930 . S
C27 N25 1.400 . S
C27 C28 1.351 . S
C27 H44 0.930 . S
C28 N24 1.389 . S
C28 C27 1.351 . S
C28 H33 0.930 . S
O29 Cu23 1.974 . S
O29 C39 1.282 . S
C30 O31 1.261 1_556 S
C30 O43 1.250 1_556 S
O31 C30 1.261 1_554 S
H32 C26 0.930 . S
H33 C28 0.930 . S
N34 Cu23 1.985 . S
N34 C36 1.335 . S
N34 C37 1.390 . S
N35 C36 1.345 . S
N35 C38 1.336 . S
C36 N34 1.335 . S
C36 N35 1.345 . S
C36 H41 0.930 . S
C37 N34 1.390 . S
C37 C38 1.346 . S
C37 H42 0.930 . S
C38 N35 1.336 . S
C38 C37 1.346 . S
C38 H45 0.929 . S
C39 O29 1.282 . S
C39 O40 1.216 . S
O40 C39 1.216 . S
H41 C36 0.930 . S
H42 C37 0.930 . S
O43 Cu23 1.971 . S
O43 C30 1.250 1_554 S
H44 C27 0.930 . S
H45 C38 0.929 . S
Cu46 N47 1.999 1_554 S
Cu46 O52 1.974 . S
Cu46 N57 1.985 1_565 S
Cu46 O66 1.959 1_565 S
N47 Cu46 1.999 1_556 S
N47 C49 1.221 1_565 S
N47 C51 1.389 . S
N48 C49 1.353 1_565 S
N48 C50 1.400 . S
C49 N47 1.221 1_545 S
C49 N48 1.353 1_545 S
C49 H55 0.975 . S
C50 N48 1.400 . S
C50 C51 1.351 . S
C50 H67 0.930 . S
C51 N47 1.389 . S
C51 C50 1.351 . S
C51 H56 0.930 . S
O52 Cu46 1.974 . S
O52 C62 1.282 1_565 S
C53 O54 1.261 . S
C53 O66 1.251 . S
O54 C53 1.261 . S
H55 C49 0.975 . S
H56 C51 0.930 . S
N57 Cu46 1.985 1_545 S
N57 C59 1.347 . S
N57 C60 1.390 . S
N58 C59 1.348 . S
N58 C61 1.336 . S
C59 N57 1.347 . S
C59 N58 1.348 . S
C59 H64 0.917 1_545 S
C60 N57 1.390 . S
C60 C61 1.346 . S
C60 H65 0.930 . S
C61 N58 1.336 . S
C61 C60 1.346 . S
C61 H68 0.929 . S
C62 O52 1.282 1_545 S
C62 O63 1.216 . S
O63 C62 1.216 . S
H64 C59 0.917 1_565 S
H65 C60 0.930 . S
O66 Cu46 1.959 1_545 S
O66 C53 1.251 . S
H67 C50 0.930 . S
H68 C61 0.929 . S
Cu69 N70 1.999 . S
Cu69 O75 1.974 . S
Cu69 N80 1.985 . S
Cu69 O89 1.959 . S
N70 Cu69 1.999 . S
N70 C72 1.263 . S
N70 C74 1.389 . S
N71 C72 1.358 . S
N71 C73 1.400 . S
C72 N70 1.263 . S
C72 N71 1.358 . S
C72 H78 0.930 . S
C73 N71 1.400 . S
C73 C74 1.351 . S
C73 H90 0.930 . S
C74 N70 1.389 . S
C74 C73 1.351 . S
C74 H79 0.930 . S
O75 Cu69 1.974 . S
O75 C85 1.282 . S
C76 O77 1.261 . S
C76 O89 1.251 . S
O77 C76 1.261 . S
H78 C72 0.930 . S
H79 C74 0.930 . S
N80 Cu69 1.985 . S
N80 C82 1.335 . S
N80 C83 1.390 . S
N81 C82 1.345 . S
N81 C84 1.336 . S
C82 N80 1.335 . S
C82 N81 1.345 . S
C82 H87 0.930 . S
C83 N80 1.390 . S
C83 C84 1.346 . S
C83 H88 0.930 . S
C84 N81 1.336 . S
C84 C83 1.346 . S
C84 H91 0.929 . S
C85 O75 1.282 . S
C85 O86 1.216 1_545 S
O86 C85 1.216 1_565 S
H87 C82 0.930 . S
H88 C83 0.930 . S
O89 Cu69 1.959 . S
O89 C76 1.251 . S
H90 C73 0.930 . S
H91 C84 0.929 . S
Cu92 N93 1.999 . S
Cu92 O98 1.974 . S
Cu92 N103 1.985 . S
Cu92 O112 1.959 . S
N93 Cu92 1.999 . S
N93 C95 1.263 . S
N93 C97 1.389 . S
N94 C95 1.358 . S
N94 C96 1.400 . S
C95 N93 1.263 . S
C95 N94 1.358 . S
C95 H101 0.930 . S
C96 N94 1.400 . S
C96 C97 1.351 . S
C96 H113 0.930 . S
C97 N93 1.389 . S
C97 C96 1.351 . S
C97 H102 0.930 . S
O98 Cu92 1.974 . S
O98 C108 1.282 . S
C99 O100 1.261 . S
C99 O112 1.251 . S
O100 C99 1.261 . S
H101 C95 0.930 . S
H102 C97 0.930 . S
N103 Cu92 1.985 . S
N103 C105 1.335 . S
N103 C106 1.390 . S
N104 C105 1.345 . S
N104 C107 1.336 . S
C105 N103 1.335 . S
C105 N104 1.345 . S
C105 H110 0.930 . S
C106 N103 1.390 . S
C106 C107 1.346 . S
C106 H111 0.930 . S
C107 N104 1.336 . S
C107 C106 1.346 . S
C107 H114 0.929 . S
C108 O98 1.282 . S
C108 O109 1.216 . S
O109 C108 1.216 . S
H110 C105 0.930 . S
H111 C106 0.930 . S
O112 Cu92 1.959 . S
O112 C99 1.251 . S
H113 C96 0.930 . S
H114 C107 0.929 . S
Cu115 N116 1.999 . S
Cu115 O121 1.974 . S
Cu115 N126 1.985 . S
Cu115 O135 1.959 . S
N116 Cu115 1.999 . S
N116 C118 1.263 . S
N116 C120 1.389 . S
N117 C118 1.358 . S
N117 C119 1.400 . S
C118 N116 1.263 . S
C118 N117 1.358 . S
C118 H124 0.930 . S
C119 N117 1.400 . S
C119 C120 1.351 . S
C119 H136 0.930 . S
C120 N116 1.389 . S
C120 C119 1.351 . S
C120 H125 0.930 . S
O121 Cu115 1.974 . S
O121 C131 1.282 . S
C122 O123 1.261 . S
C122 O135 1.251 . S
O123 C122 1.261 . S
H124 C118 0.930 . S
H125 C120 0.930 . S
N126 Cu115 1.985 . S
N126 C128 1.335 . S
N126 C129 1.390 . S
N127 C128 1.345 . S
N127 C130 1.336 . S
C128 N126 1.335 . S
C128 N127 1.345 . S
C128 H133 0.930 . S
C129 N126 1.390 . S
C129 C130 1.346 . S
C129 H134 0.930 . S
C130 N127 1.336 . S
C130 C129 1.346 . S
C130 H137 0.929 . S
C131 O121 1.282 . S
C131 O132 1.216 . S
O132 C131 1.216 . S
H133 C128 0.930 . S
H134 C129 0.930 . S
O135 Cu115 1.959 . S
O135 C122 1.251 . S
H136 C119 0.930 . S
H137 C130 0.929 . S
Cu138 N139 1.999 . S
Cu138 O144 1.974 . S
Cu138 N149 1.985 . S
Cu138 O158 1.959 . S
N139 Cu138 1.999 . S
N139 C141 1.263 . S
N139 C143 1.389 . S
N140 C141 1.358 . S
N140 C142 1.400 . S
C141 N139 1.263 . S
C141 N140 1.358 . S
C141 H147 0.930 . S
C142 N140 1.400 . S
C142 C143 1.351 . S
C142 H159 0.930 . S
C143 N139 1.389 . S
C143 C142 1.351 . S
C143 H148 0.930 . S
O144 Cu138 1.974 . S
O144 C154 1.282 . S
C145 O146 1.261 . S
C145 O158 1.251 . S
O146 C145 1.261 . S
H147 C141 0.930 . S
H148 C143 0.930 . S
N149 Cu138 1.985 . S
N149 C151 1.335 . S
N149 C152 1.390 . S
N150 C151 1.345 . S
N150 C153 1.336 . S
C151 N149 1.335 . S
C151 N150 1.345 . S
C151 H156 0.930 . S
C152 N149 1.390 . S
C152 C153 1.346 . S
C152 H157 0.930 . S
C153 N150 1.336 . S
C153 C152 1.346 . S
C153 H160 0.929 . S
C154 O144 1.282 . S
C154 O155 1.216 . S
O155 C154 1.216 . S
H156 C151 0.930 . S
H157 C152 0.930 . S
O158 Cu138 1.959 . S
O158 C145 1.251 . S
H159 C142 0.930 . S
H160 C153 0.929 . S
Cu161 N162 1.999 . S
Cu161 O167 1.974 . S
Cu161 N172 1.985 . S
Cu161 O181 1.959 . S
N162 Cu161 1.999 . S
N162 C164 1.263 . S
N162 C166 1.389 . S
N163 C164 1.358 . S
N163 C165 1.400 . S
C164 N162 1.263 . S
C164 N163 1.358 . S
C164 H170 0.930 . S
C165 N163 1.400 . S
C165 C166 1.351 . S
C165 H182 0.930 . S
C166 N162 1.389 . S
C166 C165 1.351 . S
C166 H171 0.930 . S
O167 Cu161 1.974 . S
O167 C177 1.282 . S
C168 O169 1.261 . S
C168 O181 1.251 . S
O169 C168 1.261 . S
H170 C164 0.930 . S
H171 C166 0.930 . S
N172 Cu161 1.985 . S
N172 C174 1.335 . S
N172 C175 1.390 . S
N173 C174 1.345 . S
N173 C176 1.336 . S
C174 N172 1.335 . S
C174 N173 1.345 . S
C174 H179 0.930 . S
C175 N172 1.390 . S
C175 C176 1.346 . S
C175 H180 0.930 . S
C176 N173 1.336 . S
C176 C175 1.346 . S
C176 H183 0.929 . S
C177 O167 1.282 . S
C177 O178 1.216 . S
O178 C177 1.216 . S
H179 C174 0.930 . S
H180 C175 0.930 . S
O181 Cu161 1.959 . S
O181 C168 1.251 . S
H182 C165 0.930 . S
H183 C176 0.929 . S
Cu184 N185 1.999 . S
Cu184 O190 1.974 . S
Cu184 N195 1.985 . S
Cu184 O204 1.959 . S
N185 Cu184 1.999 . S
N185 C187 1.263 . S
N185 C189 1.389 . S
N186 C187 1.358 . S
N186 C188 1.400 . S
C187 N185 1.263 . S
C187 N186 1.358 . S
C187 H193 0.930 . S
C188 N186 1.400 . S
C188 C189 1.351 . S
C188 H205 0.930 . S
C189 N185 1.389 . S
C189 C188 1.351 . S
C189 H194 0.930 . S
O190 Cu184 1.974 . S
O190 C200 1.282 . S
C191 O192 1.261 . S
C191 O204 1.251 . S
O192 C191 1.261 . S
H193 C187 0.930 . S
H194 C189 0.930 . S
N195 Cu184 1.985 . S
N195 C197 1.335 . S
N195 C198 1.390 . S
N196 C197 1.345 . S
N196 C199 1.336 . S
C197 N195 1.335 . S
C197 N196 1.345 . S
C197 H202 0.930 . S
C198 N195 1.390 . S
C198 C199 1.346 . S
C198 H203 0.930 . S
C199 N196 1.336 . S
C199 C198 1.346 . S
C199 H206 0.929 . S
C200 O190 1.282 . S
C200 O201 1.216 . S
O201 C200 1.216 . S
H202 C197 0.930 . S
H203 C198 0.930 . S
O204 Cu184 1.959 . S
O204 C191 1.251 . S
H205 C188 0.930 . S
H206 C199 0.929 . S
Cu207 N208 1.999 . S
Cu207 O213 1.974 . S
Cu207 N218 1.985 . S
Cu207 O227 1.959 . S
N208 Cu207 1.999 . S
N208 C210 1.263 . S
N208 C212 1.389 . S
N209 C210 1.358 . S
N209 C211 1.400 . S
C210 N208 1.263 . S
C210 N209 1.358 . S
C210 H216 0.930 . S
C211 N209 1.400 . S
C211 C212 1.351 . S
C211 H228 0.930 . S
C212 N208 1.389 . S
C212 C211 1.351 . S
C212 H217 0.930 . S
O213 Cu207 1.974 . S
O213 C223 1.282 . S
C214 O215 1.261 . S
C214 O227 1.251 . S
O215 C214 1.261 . S
H216 C210 0.930 . S
H217 C212 0.930 . S
N218 Cu207 1.985 . S
N218 C220 1.335 . S
N218 C221 1.390 . S
N219 C220 1.345 . S
N219 C222 1.336 . S
C220 N218 1.335 . S
C220 N219 1.345 . S
C220 H225 0.930 . S
C221 N218 1.390 . S
C221 C222 1.346 . S
C221 H226 0.930 . S
C222 N219 1.336 . S
C222 C221 1.346 . S
C222 H229 0.929 . S
C223 O213 1.282 . S
C223 O224 1.216 . S
O224 C223 1.216 . S
H225 C220 0.930 . S
H226 C221 0.930 . S
O227 Cu207 1.959 . S
O227 C214 1.251 . S
H228 C211 0.930 . S
H229 C222 0.929 . S
Cu230 N231 1.999 . S
Cu230 O236 1.974 . S
Cu230 N241 1.985 . S
Cu230 O250 1.959 . S
N231 Cu230 1.999 . S
N231 C233 1.263 . S
N231 C235 1.389 . S
N232 C233 1.358 . S
N232 C234 1.400 . S
C233 N231 1.263 . S
C233 N232 1.358 . S
C233 H239 0.930 . S
C234 N232 1.400 . S
C234 C235 1.351 . S
C234 H251 0.930 . S
C235 N231 1.389 . S
C235 C234 1.351 . S
C235 H240 0.930 . S
O236 Cu230 1.974 . S
O236 C246 1.282 . S
C237 O238 1.261 . S
C237 O250 1.251 . S
O238 C237 1.261 . S
H239 C233 0.930 . S
H240 C235 0.930 . S
N241 Cu230 1.985 . S
N241 C243 1.335 . S
N241 C244 1.390 . S
N242 C243 1.345 . S
N242 C245 1.336 . S
C243 N241 1.335 . S
C243 N242 1.345 . S
C243 H248 0.930 . S
C244 N241 1.390 . S
C244 C245 1.346 . S
C244 H249 0.930 . S
C245 N242 1.336 . S
C245 C244 1.346 . S
C245 H252 0.929 . S
C246 O236 1.282 . S
C246 O247 1.216 . S
O247 C246 1.216 . S
H248 C243 0.930 . S
H249 C244 0.930 . S
O250 Cu230 1.959 . S
O250 C237 1.251 . S
H251 C234 0.930 . S
H252 C245 0.929 . S
Cu253 N254 1.999 . S
Cu253 O259 1.974 . S
Cu253 N264 1.985 . S
Cu253 O273 1.959 . S
N254 Cu253 1.999 . S
N254 C256 1.263 . S
N254 C258 1.389 . S
N255 C256 1.358 . S
N255 C257 1.400 . S
C256 N254 1.263 . S
C256 N255 1.358 . S
C256 H262 0.930 . S
C257 N255 1.400 . S
C257 C258 1.351 . S
C257 H274 0.930 . S
C258 N254 1.389 . S
C258 C257 1.351 . S
C258 H263 0.930 . S
O259 Cu253 1.974 . S
O259 C269 1.282 . S
C260 O261 1.261 . S
C260 O273 1.251 . S
O261 C260 1.261 . S
H262 C256 0.930 . S
H263 C258 0.930 . S
N264 Cu253 1.985 . S
N264 C266 1.335 . S
N264 C267 1.390 . S
N265 C266 1.345 . S
N265 C268 1.336 . S
C266 N264 1.335 . S
C266 N265 1.345 . S
C266 H271 0.930 . S
C267 N264 1.390 . S
C267 C268 1.346 . S
C267 H272 0.930 . S
C268 N265 1.336 . S
C268 C267 1.346 . S
C268 H275 0.929 . S
C269 O259 1.282 . S
C269 O270 1.216 . S
O270 C269 1.216 . S
H271 C266 0.930 . S
H272 C267 0.930 . S
O273 Cu253 1.959 . S
O273 C260 1.251 . S
H274 C257 0.930 . S
H275 C268 0.929 . S
Cu276 N277 1.999 . S
Cu276 O282 1.974 . S
Cu276 N287 1.985 . S
Cu276 O296 1.959 . S
N277 Cu276 1.999 . S
N277 C279 1.263 . S
N277 C281 1.389 . S
N278 C279 1.358 . S
N278 C280 1.400 . S
C279 N277 1.263 . S
C279 N278 1.358 . S
C279 H285 0.930 . S
C280 N278 1.400 . S
C280 C281 1.351 . S
C280 H297 0.930 . S
C281 N277 1.389 . S
C281 C280 1.351 . S
C281 H286 0.930 . S
O282 Cu276 1.974 . S
O282 C292 1.282 . S
C283 O284 1.261 . S
C283 O296 1.251 . S
O284 C283 1.261 . S
H285 C279 0.930 . S
H286 C281 0.930 . S
N287 Cu276 1.985 . S
N287 C289 1.335 . S
N287 C290 1.390 . S
N288 C289 1.345 . S
N288 C291 1.336 . S
C289 N287 1.335 . S
C289 N288 1.345 . S
C289 H294 0.930 . S
C290 N287 1.390 . S
C290 C291 1.346 . S
C290 H295 0.930 . S
C291 N288 1.336 . S
C291 C290 1.346 . S
C291 H298 0.929 . S
C292 O282 1.282 . S
C292 O293 1.216 . S
O293 C292 1.216 . S
H294 C289 0.930 . S
H295 C290 0.930 . S
O296 Cu276 1.959 . S
O296 C283 1.251 . S
H297 C280 0.930 . S
H298 C291 0.929 . S
Cu299 N300 1.999 . S
Cu299 O305 1.974 . S
Cu299 N310 1.985 . S
Cu299 O319 1.959 . S
N300 Cu299 1.999 . S
N300 C302 1.263 . S
N300 C304 1.389 . S
N301 C302 1.358 . S
N301 C303 1.400 . S
C302 N300 1.263 . S
C302 N301 1.358 . S
C302 H308 0.930 . S
C303 N301 1.400 . S
C303 C304 1.351 . S
C303 H320 0.930 . S
C304 N300 1.389 . S
C304 C303 1.351 . S
C304 H309 0.930 . S
O305 Cu299 1.974 . S
O305 C315 1.282 . S
C306 O307 1.261 . S
C306 O319 1.251 . S
O307 C306 1.261 . S
H308 C302 0.930 . S
H309 C304 0.930 . S
N310 Cu299 1.985 . S
N310 C312 1.335 . S
N310 C313 1.390 . S
N311 C312 1.345 . S
N311 C314 1.336 . S
C312 N310 1.335 . S
C312 N311 1.345 . S
C312 H317 0.930 . S
C313 N310 1.390 . S
C313 C314 1.346 . S
C313 H318 0.930 . S
C314 N311 1.336 . S
C314 C313 1.346 . S
C314 H321 0.929 . S
C315 O305 1.282 . S
C315 O316 1.216 . S
O316 C315 1.216 . S
H317 C312 0.930 . S
H318 C313 0.930 . S
O319 Cu299 1.959 . S
O319 C306 1.251 . S
H320 C303 0.930 . S
H321 C314 0.929 . S
Cu322 N323 1.999 . S
Cu322 O328 1.974 . S
Cu322 N333 1.985 . S
Cu322 O342 1.959 . S
N323 Cu322 1.999 . S
N323 C325 1.263 . S
N323 C327 1.389 . S
N324 C325 1.358 . S
N324 C326 1.400 . S
C325 N323 1.263 . S
C325 N324 1.358 . S
C325 H331 0.930 . S
C326 N324 1.400 . S
C326 C327 1.351 . S
C326 H343 0.930 . S
C327 N323 1.389 . S
C327 C326 1.351 . S
C327 H332 0.930 . S
O328 Cu322 1.974 . S
O328 C338 1.282 . S
C329 O330 1.261 . S
C329 O342 1.251 . S
O330 C329 1.261 . S
H331 C325 0.930 . S
H332 C327 0.930 . S
N333 Cu322 1.985 . S
N333 C335 1.335 . S
N333 C336 1.390 . S
N334 C335 1.345 . S
N334 C337 1.336 . S
C335 N333 1.335 . S
C335 N334 1.345 . S
C335 H340 0.930 . S
C336 N333 1.390 . S
C336 C337 1.346 . S
C336 H341 0.930 . S
C337 N334 1.336 . S
C337 C336 1.346 . S
C337 H344 0.929 . S
C338 O328 1.282 . S
C338 O339 1.216 . S
O339 C338 1.216 . S
H340 C335 0.930 . S
H341 C336 0.930 . S
O342 Cu322 1.959 . S
O342 C329 1.251 . S
H343 C326 0.930 . S
H344 C337 0.929 . S
Cu345 N346 1.999 . S
Cu345 O351 1.974 . S
Cu345 N356 1.985 . S
Cu345 O365 1.959 . S
N346 Cu345 1.999 . S
N346 C348 1.263 . S
N346 C350 1.389 . S
N347 C348 1.358 . S
N347 C349 1.400 . S
C348 N346 1.263 . S
C348 N347 1.358 . S
C348 H354 0.930 . S
C349 N347 1.400 . S
C349 C350 1.351 . S
C349 H366 0.930 . S
C350 N346 1.389 . S
C350 C349 1.351 . S
C350 H355 0.930 . S
O351 Cu345 1.974 . S
O351 C361 1.282 . S
C352 O353 1.261 . S
C352 O365 1.251 . S
O353 C352 1.261 . S
H354 C348 0.930 . S
H355 C350 0.930 . S
N356 Cu345 1.985 . S
N356 C358 1.335 . S
N356 C359 1.390 . S
N357 C358 1.345 . S
N357 C360 1.336 . S
C358 N356 1.335 . S
C358 N357 1.345 . S
C358 H363 0.930 . S
C359 N356 1.390 . S
C359 C360 1.346 . S
C359 H364 0.930 . S
C360 N357 1.336 . S
C360 C359 1.346 . S
C360 H367 0.929 . S
C361 O351 1.282 . S
C361 O362 1.216 . S
O362 C361 1.216 . S
H363 C358 0.930 . S
H364 C359 0.930 . S
O365 Cu345 1.959 . S
O365 C352 1.251 . S
H366 C349 0.930 . S
H367 C360 0.929 . S
Cu368 N369 1.999 . S
Cu368 O374 1.974 . S
Cu368 N379 1.985 . S
Cu368 O388 1.959 . S
N369 Cu368 1.999 . S
N369 C371 1.263 . S
N369 C373 1.389 . S
N370 C371 1.358 . S
N370 C372 1.400 . S
C371 N369 1.263 . S
C371 N370 1.358 . S
C371 H377 0.930 . S
C372 N370 1.400 . S
C372 C373 1.351 . S
C372 H389 0.930 . S
C373 N369 1.389 . S
C373 C372 1.351 . S
C373 H378 0.930 . S
O374 Cu368 1.974 . S
O374 C384 1.282 . S
C375 O376 1.261 . S
C375 O388 1.251 . S
O376 C375 1.261 . S
H377 C371 0.930 . S
H378 C373 0.930 . S
N379 Cu368 1.985 . S
N379 C381 1.335 . S
N379 C382 1.390 . S
N380 C381 1.345 . S
N380 C383 1.336 . S
C381 N379 1.335 . S
C381 N380 1.345 . S
C381 H386 0.930 . S
C382 N379 1.390 . S
C382 C383 1.346 . S
C382 H387 0.930 . S
C383 N380 1.336 . S
C383 C382 1.346 . S
C383 H390 0.929 . S
C384 O374 1.282 . S
C384 O385 1.216 . S
O385 C384 1.216 . S
H386 C381 0.930 . S
H387 C382 0.930 . S
O388 Cu368 1.959 . S
O388 C375 1.251 . S
H389 C372 0.930 . S
H390 C383 0.929 . S
Cu391 N392 1.999 . S
Cu391 O397 1.974 . S
Cu391 N402 1.985 . S
Cu391 O411 1.959 . S
N392 Cu391 1.999 . S
N392 C394 1.263 . S
N392 C396 1.389 . S
N393 C394 1.358 . S
N393 C395 1.400 . S
C394 N392 1.263 . S
C394 N393 1.358 . S
C394 H400 0.930 . S
C395 N393 1.400 . S
C395 C396 1.351 . S
C395 H412 0.930 . S
C396 N392 1.389 . S
C396 C395 1.351 . S
C396 H401 0.930 . S
O397 Cu391 1.974 . S
O397 C407 1.282 . S
C398 O399 1.261 . S
C398 O411 1.251 . S
O399 C398 1.261 . S
H400 C394 0.930 . S
H401 C396 0.930 . S
N402 Cu391 1.985 . S
N402 C404 1.335 . S
N402 C405 1.390 . S
N403 C404 1.345 . S
N403 C406 1.336 . S
C404 N402 1.335 . S
C404 N403 1.345 . S
C404 H409 0.930 . S
C405 N402 1.390 . S
C405 C406 1.346 . S
C405 H410 0.930 . S
C406 N403 1.336 . S
C406 C405 1.346 . S
C406 H413 0.929 . S
C407 O397 1.282 . S
C407 O408 1.216 . S
O408 C407 1.216 . S
H409 C404 0.930 . S
H410 C405 0.930 . S
O411 Cu391 1.959 . S
O411 C398 1.251 . S
H412 C395 0.930 . S
H413 C406 0.929 . S
Mn414 O419 2.095 . S
Mn414 O429 2.162 . S
Mn414 O430 2.297 . S
Mn414 O438 2.385 . S
Mn414 O439 2.151 1_455 S
Mn414 O440 2.094 . S
Mn415 O420 2.121 1_655 S
Mn415 N422 2.257 . S
Mn415 N431 2.282 . S
Mn415 O439 2.199 . S
Mn415 O441 2.117 1_655 S
C416 O438 1.234 1_655 S
C416 O439 1.317 . S
C417 O429 1.281 . S
C417 O430 1.236 . S
C418 O440 1.240 . S
C418 O441 1.264 . S
O419 Mn414 2.095 . S
O419 C428 1.250 . S
O420 Mn415 2.121 1_455 S
O420 C428 1.258 . S
C421 N422 1.326 . S
C421 C425 1.460 . S
C421 H427 0.929 . S
N422 Mn415 2.257 . S
N422 C421 1.326 . S
N422 C426 1.362 . S
C423 C424 1.258 . S
C423 C426 1.431 . S
C423 C443 1.449 . S
C424 C423 1.258 . S
C424 C425 1.477 . S
C424 H444 0.931 . S
C425 C421 1.460 . S
C425 C424 1.477 . S
C425 H445 0.930 . S
C426 N422 1.362 . S
C426 C423 1.431 . S
C426 C436 1.476 . S
H427 C421 0.929 . S
C428 O419 1.250 . S
C428 O420 1.258 . S
O429 Mn414 2.162 . S
O429 C417 1.281 . S
O430 Mn414 2.297 . S
O430 C417 1.236 . S
N431 Mn415 2.282 . S
N431 C432 1.328 . S
N431 C436 1.318 . S
C432 N431 1.328 . S
C432 C433 1.457 . S
C432 H437 0.929 . S
C433 C432 1.457 . S
C433 C434 1.291 . S
C433 H446 0.931 . S
C434 C433 1.291 . S
C434 C435 1.373 . S
C434 H447 0.929 . S
C435 C434 1.373 . S
C435 C436 1.396 . S
C435 C442 1.403 . S
C436 C426 1.476 . S
C436 N431 1.318 . S
C436 C435 1.396 . S
H437 C432 0.929 . S
O438 Mn414 2.385 . S
O438 C416 1.234 1_455 S
O439 Mn414 2.151 1_655 S
O439 Mn415 2.199 . S
O439 C416 1.317 . S
O440 Mn414 2.094 . S
O440 C418 1.240 . S
O441 Mn415 2.117 1_455 S
O441 C418 1.264 . S
C442 C435 1.403 . S
C442 C443 1.399 . S
C442 H448 0.929 . S
C443 C423 1.449 . S
C443 C442 1.399 . S
C443 H449 0.930 . S
H444 C424 0.931 . S
H445 C425 0.930 . S
H446 C433 0.931 . S
H447 C434 0.929 . S
H448 C442 0.929 . S
H449 C443 0.930 . S
Mn450 O455 2.095 . S
Mn450 O465 2.162 . S
Mn450 O466 2.297 . S
Mn450 O474 2.385 . S
Mn450 O475 2.209 . S
Mn450 O476 2.094 . S
Mn451 O456 2.121 . S
Mn451 N458 2.257 . S
Mn451 N467 2.282 . S
Mn451 O475 2.215 . S
Mn451 O477 2.117 . S
C452 O474 1.234 . S
C452 O475 1.283 . S
C453 O465 1.281 . S
C453 O466 1.236 . S
C454 O476 1.240 . S
C454 O477 1.264 . S
O455 Mn450 2.095 . S
O455 C464 1.250 . S
O456 Mn451 2.121 . S
O456 C464 1.258 . S
C457 N458 1.326 . S
C457 C461 1.460 . S
C457 H463 0.929 . S
N458 Mn451 2.257 . S
N458 C457 1.326 . S
N458 C462 1.362 . S
C459 C460 1.258 . S
C459 C462 1.431 . S
C459 C479 1.449 . S
C460 C459 1.258 . S
C460 C461 1.477 . S
C460 H480 0.931 . S
C461 C457 1.460 . S
C461 C460 1.477 . S
C461 H481 0.930 . S
C462 N458 1.362 . S
C462 C459 1.431 . S
C462 C472 1.476 . S
H463 C457 0.929 . S
C464 O455 1.250 . S
C464 O456 1.258 . S
O465 Mn450 2.162 . S
O465 C453 1.281 . S
O466 Mn450 2.297 . S
O466 C453 1.236 . S
N467 Mn451 2.282 . S
N467 C468 1.328 . S
N467 C472 1.318 . S
C468 N467 1.328 . S
C468 C469 1.457 . S
C468 H473 0.929 . S
C469 C468 1.457 . S
C469 C470 1.291 . S
C469 H482 0.931 . S
C470 C469 1.291 . S
C470 C471 1.373 . S
C470 H483 0.929 . S
C471 C470 1.373 . S
C471 C472 1.396 . S
C471 C478 1.403 . S
C472 C462 1.476 . S
C472 N467 1.318 . S
C472 C471 1.396 . S
H473 C468 0.929 . S
O474 Mn450 2.385 . S
O474 C452 1.234 . S
O475 Mn450 2.209 . S
O475 Mn451 2.215 . S
O475 C452 1.283 . S
O476 Mn450 2.094 . S
O476 C454 1.240 . S
O477 Mn451 2.117 . S
O477 C454 1.264 . S
C478 C471 1.403 . S
C478 C479 1.399 . S
C478 H484 0.929 . S
C479 C459 1.449 . S
C479 C478 1.399 . S
C479 H485 0.930 . S
H480 C460 0.931 . S
H481 C461 0.930 . S
H482 C469 0.931 . S
H483 C470 0.929 . S
H484 C478 0.929 . S
H485 C479 0.930 . S
Mn486 O491 2.095 . S
Mn486 O501 2.162 . S
Mn486 O502 2.297 . S
Mn486 O510 2.385 . S
Mn486 O511 2.209 . S
Mn486 O512 2.094 . S
Mn487 O492 2.121 . S
Mn487 N494 2.257 . S
Mn487 N503 2.282 . S
Mn487 O511 2.215 . S
Mn487 O513 2.117 . S
C488 O510 1.234 . S
C488 O511 1.283 . S
C489 O501 1.281 . S
C489 O502 1.236 . S
C490 O512 1.240 . S
C490 O513 1.264 . S
O491 Mn486 2.095 . S
O491 C500 1.250 . S
O492 Mn487 2.121 . S
O492 C500 1.258 . S
C493 N494 1.326 . S
C493 C497 1.460 . S
C493 H499 0.929 . S
N494 Mn487 2.257 . S
N494 C493 1.326 . S
N494 C498 1.362 . S
C495 C496 1.258 . S
C495 C498 1.431 . S
C495 C515 1.449 . S
C496 C495 1.258 . S
C496 C497 1.477 . S
C496 H516 0.931 . S
C497 C493 1.460 . S
C497 C496 1.477 . S
C497 H517 0.930 . S
C498 N494 1.362 . S
C498 C495 1.431 . S
C498 C508 1.476 . S
H499 C493 0.929 . S
C500 O491 1.250 . S
C500 O492 1.258 . S
O501 Mn486 2.162 . S
O501 C489 1.281 . S
O502 Mn486 2.297 . S
O502 C489 1.236 . S
N503 Mn487 2.282 . S
N503 C504 1.328 . S
N503 C508 1.318 . S
C504 N503 1.328 . S
C504 C505 1.457 . S
C504 H509 0.929 . S
C505 C504 1.457 . S
C505 C506 1.291 . S
C505 H518 0.931 . S
C506 C505 1.291 . S
C506 C507 1.373 . S
C506 H519 0.929 . S
C507 C506 1.373 . S
C507 C508 1.396 . S
C507 C514 1.403 . S
C508 C498 1.476 . S
C508 N503 1.318 . S
C508 C507 1.396 . S
H509 C504 0.929 . S
O510 Mn486 2.385 . S
O510 C488 1.234 . S
O511 Mn486 2.209 . S
O511 Mn487 2.215 . S
O511 C488 1.283 . S
O512 Mn486 2.094 . S
O512 C490 1.240 . S
O513 Mn487 2.117 . S
O513 C490 1.264 . S
C514 C507 1.403 . S
C514 C515 1.399 . S
C514 H520 0.929 . S
C515 C495 1.449 . S
C515 C514 1.399 . S
C515 H521 0.930 . S
H516 C496 0.931 . S
H517 C497 0.930 . S
H518 C505 0.931 . S
H519 C506 0.929 . S
H520 C514 0.929 . S
H521 C515 0.930 . S
Mn522 O527 2.095 . S
Mn522 O537 2.162 . S
Mn522 O538 2.297 . S
Mn522 O546 2.385 . S
Mn522 O547 2.209 . S
Mn522 O548 2.094 1_455 S
Mn523 O528 2.121 . S
Mn523 N530 2.257 . S
Mn523 N539 2.282 . S
Mn523 O547 2.215 . S
Mn523 O549 2.117 . S
C524 O546 1.234 . S
C524 O547 1.283 . S
C525 O537 1.281 . S
C525 O538 1.236 . S
C526 O548 1.240 . S
C526 O549 1.264 1_655 S
O527 Mn522 2.095 . S
O527 C536 1.250 . S
O528 Mn523 2.121 . S
O528 C536 1.258 . S
C529 N530 1.326 . S
C529 C533 1.460 . S
C529 H535 0.929 . S
N530 Mn523 2.257 . S
N530 C529 1.326 . S
N530 C534 1.362 . S
C531 C532 1.258 . S
C531 C534 1.431 . S
C531 C551 1.449 . S
C532 C531 1.258 . S
C532 C533 1.477 . S
C532 H552 0.931 . S
C533 C529 1.460 . S
C533 C532 1.477 . S
C533 H553 0.930 . S
C534 N530 1.362 . S
C534 C531 1.431 . S
C534 C544 1.476 . S
H535 C529 0.929 . S
C536 O527 1.250 . S
C536 O528 1.258 . S
O537 Mn522 2.162 . S
O537 C525 1.281 . S
O538 Mn522 2.297 . S
O538 C525 1.236 . S
N539 Mn523 2.282 . S
N539 C540 1.328 . S
N539 C544 1.318 . S
C540 N539 1.328 . S
C540 C541 1.457 . S
C540 H545 0.929 . S
C541 C540 1.457 . S
C541 C542 1.291 . S
C541 H554 0.931 . S
C542 C541 1.291 . S
C542 C543 1.373 . S
C542 H555 0.929 . S
C543 C542 1.373 . S
C543 C544 1.396 . S
C543 C550 1.403 . S
C544 C534 1.476 . S
C544 N539 1.318 . S
C544 C543 1.396 . S
H545 C540 0.929 . S
O546 Mn522 2.385 . S
O546 C524 1.234 . S
O547 Mn522 2.209 . S
O547 Mn523 2.215 . S
O547 C524 1.283 . S
O548 Mn522 2.094 1_655 S
O548 C526 1.240 . S
O549 Mn523 2.117 . S
O549 C526 1.264 1_455 S
C550 C543 1.403 . S
C550 C551 1.399 . S
C550 H556 0.929 . S
C551 C531 1.449 . S
C551 C550 1.399 . S
C551 H557 0.930 . S
H552 C532 0.931 . S
H553 C533 0.930 . S
H554 C541 0.931 . S
H555 C542 0.929 . S
H556 C550 0.929 . S
H557 C551 0.930 . S
Mn558 O563 2.095 . S
Mn558 O573 2.162 . S
Mn558 O574 2.297 . S
Mn558 O582 2.385 . S
Mn558 O583 2.209 . S
Mn558 O584 2.094 . S
Mn559 O564 2.121 . S
Mn559 N566 2.257 . S
Mn559 N575 2.282 . S
Mn559 O583 2.215 . S
Mn559 O585 2.117 . S
C560 O582 1.234 . S
C560 O583 1.283 . S
C561 O573 1.281 . S
C561 O574 1.236 . S
C562 O584 1.240 . S
C562 O585 1.264 . S
O563 Mn558 2.095 . S
O563 C572 1.250 . S
O564 Mn559 2.121 . S
O564 C572 1.258 . S
C565 N566 1.326 . S
C565 C569 1.460 . S
C565 H571 0.929 . S
N566 Mn559 2.257 . S
N566 C565 1.326 . S
N566 C570 1.362 . S
C567 C568 1.258 . S
C567 C570 1.431 . S
C567 C587 1.449 . S
C568 C567 1.258 . S
C568 C569 1.477 . S
C568 H588 0.931 . S
C569 C565 1.460 . S
C569 C568 1.477 . S
C569 H589 0.930 . S
C570 N566 1.362 . S
C570 C567 1.431 . S
C570 C580 1.476 . S
H571 C565 0.929 . S
C572 O563 1.250 . S
C572 O564 1.258 . S
O573 Mn558 2.162 . S
O573 C561 1.281 . S
O574 Mn558 2.297 . S
O574 C561 1.236 . S
N575 Mn559 2.282 . S
N575 C576 1.328 . S
N575 C580 1.318 . S
C576 N575 1.328 . S
C576 C577 1.457 . S
C576 H581 0.929 . S
C577 C576 1.457 . S
C577 C578 1.291 . S
C577 H590 0.931 . S
C578 C577 1.291 . S
C578 C579 1.373 . S
C578 H591 0.929 . S
C579 C578 1.373 . S
C579 C580 1.396 . S
C579 C586 1.403 . S
C580 C570 1.476 . S
C580 N575 1.318 . S
C580 C579 1.396 . S
H581 C576 0.929 . S
O582 Mn558 2.385 . S
O582 C560 1.234 . S
O583 Mn558 2.209 . S
O583 Mn559 2.215 . S
O583 C560 1.283 . S
O584 Mn558 2.094 . S
O584 C562 1.240 . S
O585 Mn559 2.117 . S
O585 C562 1.264 . S
C586 C579 1.403 . S
C586 C587 1.399 . S
C586 H592 0.929 . S
C587 C567 1.449 . S
C587 C586 1.399 . S
C587 H593 0.930 . S
H588 C568 0.931 . S
H589 C569 0.930 . S
H590 C577 0.931 . S
H591 C578 0.929 . S
H592 C586 0.929 . S
H593 C587 0.930 . S
Mn594 O599 2.095 . S
Mn594 O609 2.162 . S
Mn594 O610 2.297 . S
Mn594 O618 2.385 . S
Mn594 O619 2.209 . S
Mn594 O620 2.094 . S
Mn595 O600 2.121 . S
Mn595 N602 2.257 1_545 S
Mn595 N611 2.282 . S
Mn595 O619 2.215 . S
Mn595 O621 2.117 . S
C596 O618 1.234 . S
C596 O619 1.283 . S
C597 O609 1.281 . S
C597 O610 1.236 . S
C598 O620 1.240 . S
C598 O621 1.264 . S
O599 Mn594 2.095 . S
O599 C608 1.250 . S
O600 Mn595 2.121 . S
O600 C608 1.258 . S
C601 N602 1.326 . S
C601 C605 1.460 . S
C601 H607 0.929 . S
N602 Mn595 2.257 1_565 S
N602 C601 1.326 . S
N602 C606 1.362 . S
C603 C604 1.258 . S
C603 C606 1.431 . S
C603 C623 1.449 . S
C604 C603 1.258 . S
C604 C605 1.477 . S
C604 H624 0.931 . S
C605 C601 1.460 . S
C605 C604 1.477 . S
C605 H625 0.930 . S
C606 N602 1.362 . S
C606 C603 1.431 . S
C606 C616 1.476 1_565 S
H607 C601 0.929 . S
C608 O599 1.250 . S
C608 O600 1.258 . S
O609 Mn594 2.162 . S
O609 C597 1.281 . S
O610 Mn594 2.297 . S
O610 C597 1.236 . S
N611 Mn595 2.282 . S
N611 C612 1.328 . S
N611 C616 1.318 . S
C612 N611 1.328 . S
C612 C613 1.457 . S
C612 H617 0.929 . S
C613 C612 1.457 . S
C613 C614 1.291 . S
C613 H626 0.931 . S
C614 C613 1.291 . S
C614 C615 1.373 1_545 S
C614 H627 0.929 . S
C615 C614 1.373 1_565 S
C615 C616 1.396 1_565 S
C615 C622 1.403 . S
C616 C606 1.476 1_545 S
C616 N611 1.318 . S
C616 C615 1.396 1_545 S
H617 C612 0.929 . S
O618 Mn594 2.385 . S
O618 C596 1.234 . S
O619 Mn594 2.209 . S
O619 Mn595 2.215 . S
O619 C596 1.283 . S
O620 Mn594 2.094 . S
O620 C598 1.240 . S
O621 Mn595 2.117 . S
O621 C598 1.264 . S
C622 C615 1.403 . S
C622 C623 1.399 . S
C622 H628 0.929 . S
C623 C603 1.449 . S
C623 C622 1.399 . S
C623 H629 0.930 . S
H624 C604 0.931 . S
H625 C605 0.930 . S
H626 C613 0.931 . S
H627 C614 0.929 . S
H628 C622 0.929 . S
H629 C623 0.930 . S
Mn630 O635 2.095 1_545 S
Mn630 O645 2.162 . S
Mn630 O646 2.297 . S
Mn630 O654 2.385 . S
Mn630 O655 2.209 1_545 S
Mn630 O656 2.094 1_545 S
Mn631 O636 2.121 . S
Mn631 N638 2.257 . S
Mn631 N647 2.282 . S
Mn631 O655 2.215 . S
Mn631 O657 2.117 . S
C632 O654 1.241 . S
C632 O655 1.267 1_545 S
C633 O645 1.281 . S
C633 O646 1.236 . S
C634 O656 1.240 . S
C634 O657 1.264 . S
O635 Mn630 2.095 1_565 S
O635 C644 1.250 . S
O636 Mn631 2.121 . S
O636 C644 1.258 . S
C637 N638 1.326 . S
C637 C641 1.460 . S
C637 H643 0.929 . S
N638 Mn631 2.257 . S
N638 C637 1.326 . S
N638 C642 1.362 . S
C639 C640 1.258 . S
C639 C642 1.431 . S
C639 C659 1.449 . S
C640 C639 1.258 . S
C640 C641 1.477 . S
C640 H660 0.931 . S
C641 C637 1.460 . S
C641 C640 1.477 . S
C641 H661 0.930 . S
C642 N638 1.362 . S
C642 C639 1.431 . S
C642 C652 1.476 . S
H643 C637 0.929 . S
C644 O635 1.250 . S
C644 O636 1.258 . S
O645 Mn630 2.162 . S
O645 C633 1.281 . S
O646 Mn630 2.297 . S
O646 C633 1.236 . S
N647 Mn631 2.282 . S
N647 C648 1.328 . S
N647 C652 1.318 . S
C648 N647 1.328 . S
C648 C649 1.457 . S
C648 H653 0.929 . S
C649 C648 1.457 . S
C649 C650 1.291 . S
C649 H662 0.931 . S
C650 C649 1.291 . S
C650 C651 1.373 . S
C650 H663 0.929 . S
C651 C650 1.373 . S
C651 C652 1.396 . S
C651 C658 1.403 . S
C652 C642 1.476 . S
C652 N647 1.318 . S
C652 C651 1.396 . S
H653 C648 0.929 . S
O654 Mn630 2.385 . S
O654 C632 1.241 . S
O655 Mn630 2.209 1_565 S
O655 Mn631 2.215 . S
O655 C632 1.267 1_565 S
O656 Mn630 2.094 1_565 S
O656 C634 1.240 . S
O657 Mn631 2.117 . S
O657 C634 1.264 . S
C658 C651 1.403 . S
C658 C659 1.399 . S
C658 H664 0.929 . S
C659 C639 1.449 . S
C659 C658 1.399 . S
C659 H665 0.930 . S
H660 C640 0.931 . S
H661 C641 0.930 . S
H662 C649 0.931 . S
H663 C650 0.929 . S
H664 C658 0.929 . S
H665 C659 0.930 . S
Mn666 O671 2.095 . S
Mn666 O681 2.162 . S
Mn666 O682 2.297 . S
Mn666 O690 2.385 . S
Mn666 O691 2.209 . S
Mn666 O692 2.094 . S
Mn667 O672 2.121 . S
Mn667 N674 2.257 . S
Mn667 N683 2.282 . S
Mn667 O691 2.215 . S
Mn667 O693 2.117 . S
C668 O690 1.234 . S
C668 O691 1.283 . S
C669 O681 1.281 . S
C669 O682 1.236 . S
C670 O692 1.240 . S
C670 O693 1.264 . S
O671 Mn666 2.095 . S
O671 C680 1.250 . S
O672 Mn667 2.121 . S
O672 C680 1.258 . S
C673 N674 1.326 . S
C673 C677 1.460 . S
C673 H679 0.929 . S
N674 Mn667 2.257 . S
N674 C673 1.326 . S
N674 C678 1.362 . S
C675 C676 1.258 . S
C675 C678 1.431 . S
C675 C695 1.453 . S
C676 C675 1.258 . S
C676 C677 1.477 . S
C676 H696 0.931 . S
C677 C673 1.460 . S
C677 C676 1.477 . S
C677 H697 0.930 . S
C678 N674 1.362 . S
C678 C675 1.431 . S
C678 C688 1.476 . S
H679 C673 0.929 . S
C680 O671 1.250 . S
C680 O672 1.258 . S
O681 Mn666 2.162 . S
O681 C669 1.281 . S
O682 Mn666 2.297 . S
O682 C669 1.236 . S
N683 Mn667 2.282 . S
N683 C684 1.328 . S
N683 C688 1.318 . S
C684 N683 1.328 . S
C684 C685 1.457 . S
C684 H689 0.929 . S
C685 C684 1.457 . S
C685 C686 1.291 . S
C685 H698 0.931 . S
C686 C685 1.291 . S
C686 C687 1.373 . S
C686 H699 0.929 . S
C687 C686 1.373 . S
C687 C688 1.396 . S
C687 C694 1.457 . S
C688 C678 1.476 . S
C688 N683 1.318 . S
C688 C687 1.396 . S
H689 C684 0.929 . S
O690 Mn666 2.385 . S
O690 C668 1.234 . S
O691 Mn666 2.209 . S
O691 Mn667 2.215 . S
O691 C668 1.283 . S
O692 Mn666 2.094 . S
O692 C670 1.240 . S
O693 Mn667 2.117 . S
O693 C670 1.264 . S
C694 C687 1.457 . S
C694 C695 1.391 . S
C694 H700 0.885 1_455 S
C695 C675 1.453 . S
C695 C694 1.391 . S
C695 H701 0.924 1_455 S
H696 C676 0.931 . S
H697 C677 0.930 . S
H698 C685 0.931 . S
H699 C686 0.929 . S
H700 C694 0.885 1_655 S
H701 C695 0.924 1_655 S
Mn702 O707 2.095 . S
Mn702 O717 2.162 . S
Mn702 O718 2.297 . S
Mn702 O726 2.385 . S
Mn702 O727 2.209 . S
Mn702 O728 2.094 . S
Mn703 O708 2.121 . S
Mn703 N710 2.257 . S
Mn703 N719 2.282 . S
Mn703 O727 2.215 . S
Mn703 O729 2.117 . S
C704 O726 1.234 . S
C704 O727 1.283 . S
C705 O717 1.281 . S
C705 O718 1.236 . S
C706 O728 1.240 . S
C706 O729 1.264 . S
O707 Mn702 2.095 . S
O707 C716 1.250 . S
O708 Mn703 2.121 . S
O708 C716 1.258 . S
C709 N710 1.326 . S
C709 C713 1.460 . S
C709 H715 0.929 . S
N710 Mn703 2.257 . S
N710 C709 1.326 . S
N710 C714 1.362 . S
C711 C712 1.258 . S
C711 C714 1.431 . S
C711 C731 1.449 . S
C712 C711 1.258 . S
C712 C713 1.477 . S
C712 H732 0.931 . S
C713 C709 1.460 . S
C713 C712 1.477 . S
C713 H733 0.930 . S
C714 N710 1.362 . S
C714 C711 1.431 . S
C714 C724 1.476 . S
H715 C709 0.929 . S
C716 O707 1.250 . S
C716 O708 1.258 . S
O717 Mn702 2.162 . S
O717 C705 1.281 . S
O718 Mn702 2.297 . S
O718 C705 1.236 . S
N719 Mn703 2.282 . S
N719 C720 1.328 . S
N719 C724 1.318 . S
C720 N719 1.328 . S
C720 C721 1.457 . S
C720 H725 0.929 . S
C721 C720 1.457 . S
C721 C722 1.291 . S
C721 H734 0.931 . S
C722 C721 1.291 . S
C722 C723 1.373 . S
C722 H735 0.929 . S
C723 C722 1.373 . S
C723 C724 1.396 . S
C723 C730 1.403 . S
C724 C714 1.476 . S
C724 N719 1.318 . S
C724 C723 1.396 . S
H725 C720 0.929 . S
O726 Mn702 2.385 . S
O726 C704 1.234 . S
O727 Mn702 2.209 . S
O727 Mn703 2.215 . S
O727 C704 1.283 . S
O728 Mn702 2.094 . S
O728 C706 1.240 . S
O729 Mn703 2.117 . S
O729 C706 1.264 . S
C730 C723 1.403 . S
C730 C731 1.399 . S
C730 H736 0.929 . S
C731 C711 1.449 . S
C731 C730 1.399 . S
C731 H737 0.930 . S
H732 C712 0.931 . S
H733 C713 0.930 . S
H734 C721 0.931 . S
H735 C722 0.929 . S
H736 C730 0.929 . S
H737 C731 0.930 . S
Mn738 O743 2.095 . S
Mn738 O753 2.162 . S
Mn738 O754 2.297 . S
Mn738 O762 2.385 . S
Mn738 O763 2.209 . S
Mn738 O764 2.094 . S
Mn739 O744 2.121 . S
Mn739 N746 2.257 . S
Mn739 N755 2.282 . S
Mn739 O763 2.215 . S
Mn739 O765 2.117 . S
C740 O762 1.234 . S
C740 O763 1.283 . S
C741 O753 1.281 . S
C741 O754 1.236 . S
C742 O764 1.240 . S
C742 O765 1.264 . S
O743 Mn738 2.095 . S
O743 C752 1.250 . S
O744 Mn739 2.121 . S
O744 C752 1.258 . S
C745 N746 1.326 . S
C745 C749 1.460 . S
C745 H751 0.929 . S
N746 Mn739 2.257 . S
N746 C745 1.326 . S
N746 C750 1.362 . S
C747 C748 1.258 . S
C747 C750 1.431 . S
C747 C767 1.449 . S
C748 C747 1.258 . S
C748 C749 1.477 . S
C748 H768 0.931 . S
C749 C745 1.460 . S
C749 C748 1.477 . S
C749 H769 0.930 . S
C750 N746 1.362 . S
C750 C747 1.431 . S
C750 C760 1.476 . S
H751 C745 0.929 . S
C752 O743 1.250 . S
C752 O744 1.258 . S
O753 Mn738 2.162 . S
O753 C741 1.281 . S
O754 Mn738 2.297 . S
O754 C741 1.236 . S
N755 Mn739 2.282 . S
N755 C756 1.328 . S
N755 C760 1.318 . S
C756 N755 1.328 . S
C756 C757 1.457 . S
C756 H761 0.929 . S
C757 C756 1.457 . S
C757 C758 1.291 . S
C757 H770 0.931 . S
C758 C757 1.291 . S
C758 C759 1.373 . S
C758 H771 0.929 . S
C759 C758 1.373 . S
C759 C760 1.396 . S
C759 C766 1.403 . S
C760 C750 1.476 . S
C760 N755 1.318 . S
C760 C759 1.396 . S
H761 C756 0.929 . S
O762 Mn738 2.385 . S
O762 C740 1.234 . S
O763 Mn738 2.209 . S
O763 Mn739 2.215 . S
O763 C740 1.283 . S
O764 Mn738 2.094 . S
O764 C742 1.240 . S
O765 Mn739 2.117 . S
O765 C742 1.264 . S
C766 C759 1.403 . S
C766 C767 1.399 . S
C766 H772 0.929 . S
C767 C747 1.449 . S
C767 C766 1.399 . S
C767 H773 0.930 . S
H768 C748 0.931 . S
H769 C749 0.930 . S
H770 C757 0.931 . S
H771 C758 0.929 . S
H772 C766 0.929 . S
H773 C767 0.930 . S
Mn774 O779 2.095 . S
Mn774 O789 2.162 . S
Mn774 O790 2.297 . S
Mn774 O798 2.385 1_565 S
Mn774 O799 2.209 . S
Mn774 O800 2.094 1_565 S
Mn775 O780 2.121 1_545 S
Mn775 N782 2.257 1_545 S
Mn775 N791 2.282 . S
Mn775 O799 2.215 1_545 S
Mn775 O801 2.117 . S
C776 O798 1.234 1_565 S
C776 O799 1.283 . S
C777 O789 1.281 . S
C777 O790 1.236 . S
C778 O800 1.240 . S
C778 O801 1.264 . S
O779 Mn774 2.095 . S
O779 C788 1.250 . S
O780 Mn775 2.121 1_565 S
O780 C788 1.258 . S
C781 N782 1.326 . S
C781 C785 1.460 . S
C781 H787 0.929 . S
N782 Mn775 2.257 1_565 S
N782 C781 1.326 . S
N782 C786 1.362 . S
C783 C784 1.258 . S
C783 C786 1.431 . S
C783 C803 1.449 . S
C784 C783 1.258 . S
C784 C785 1.477 . S
C784 H804 0.931 . S
C785 C781 1.460 . S
C785 C784 1.477 . S
C785 H805 0.930 . S
C786 N782 1.362 . S
C786 C783 1.431 . S
C786 C796 1.476 1_565 S
H787 C781 0.929 . S
C788 O779 1.250 . S
C788 O780 1.258 . S
O789 Mn774 2.162 . S
O789 C777 1.281 . S
O790 Mn774 2.297 . S
O790 C777 1.236 . S
N791 Mn775 2.282 . S
N791 C792 1.328 . S
N791 C796 1.318 . S
C792 N791 1.328 . S
C792 C793 1.457 . S
C792 H797 0.929 . S
C793 C792 1.457 . S
C793 C794 1.291 . S
C793 H806 0.931 . S
C794 C793 1.291 . S
C794 C795 1.373 . S
C794 H807 0.929 . S
C795 C794 1.373 . S
C795 C796 1.396 . S
C795 C802 1.403 . S
C796 C786 1.476 1_545 S
C796 N791 1.318 . S
C796 C795 1.396 . S
H797 C792 0.929 . S
O798 Mn774 2.385 1_545 S
O798 C776 1.234 1_545 S
O799 Mn774 2.209 . S
O799 Mn775 2.215 1_565 S
O799 C776 1.283 . S
O800 Mn774 2.094 1_545 S
O800 C778 1.240 . S
O801 Mn775 2.117 . S
O801 C778 1.264 . S
C802 C795 1.403 . S
C802 C803 1.399 1_545 S
C802 H808 0.929 . S
C803 C783 1.449 . S
C803 C802 1.399 1_565 S
C803 H809 0.930 . S
H804 C784 0.931 . S
H805 C785 0.930 . S
H806 C793 0.931 . S
H807 C794 0.929 . S
H808 C802 0.929 . S
H809 C803 0.930 . S
Mn810 O815 2.095 . S
Mn810 O825 2.162 . S
Mn810 O826 2.297 . S
Mn810 O834 2.385 . S
Mn810 O835 2.209 . S
Mn810 O836 2.094 . S
Mn811 O816 2.121 . S
Mn811 N818 2.257 . S
Mn811 N827 2.282 . S
Mn811 O835 2.215 . S
Mn811 O837 2.117 . S
C812 O834 1.234 . S
C812 O835 1.283 . S
C813 O825 1.281 . S
C813 O826 1.236 . S
C814 O836 1.240 . S
C814 O837 1.264 . S
O815 Mn810 2.095 . S
O815 C824 1.250 . S
O816 Mn811 2.121 . S
O816 C824 1.258 . S
C817 N818 1.326 . S
C817 C821 1.460 . S
C817 H823 0.929 . S
N818 Mn811 2.257 . S
N818 C817 1.326 . S
N818 C822 1.362 . S
C819 C820 1.258 . S
C819 C822 1.431 1_655 S
C819 C839 1.449 . S
C820 C819 1.258 . S
C820 C821 1.477 1_655 S
C820 H840 0.931 . S
C821 C817 1.460 . S
C821 C820 1.477 1_455 S
C821 H841 0.930 . S
C822 N818 1.362 . S
C822 C819 1.431 1_455 S
C822 C832 1.476 1_455 S
H823 C817 0.929 . S
C824 O815 1.250 . S
C824 O816 1.258 . S
O825 Mn810 2.162 . S
O825 C813 1.281 . S
O826 Mn810 2.297 . S
O826 C813 1.236 . S
N827 Mn811 2.282 . S
N827 C828 1.328 . S
N827 C832 1.318 1_455 S
C828 N827 1.328 . S
C828 C829 1.457 1_455 S
C828 H833 0.929 . S
C829 C828 1.457 1_655 S
C829 C830 1.291 . S
C829 H842 0.931 . S
C830 C829 1.291 . S
C830 C831 1.373 . S
C830 H843 0.929 . S
C831 C830 1.373 . S
C831 C832 1.396 . S
C831 C838 1.403 . S
C832 C822 1.476 1_655 S
C832 N827 1.318 1_655 S
C832 C831 1.396 . S
H833 C828 0.929 . S
O834 Mn810 2.385 . S
O834 C812 1.234 . S
O835 Mn810 2.209 . S
O835 Mn811 2.215 . S
O835 C812 1.283 . S
O836 Mn810 2.094 . S
O836 C814 1.240 . S
O837 Mn811 2.117 . S
O837 C814 1.264 . S
C838 C831 1.403 . S
C838 C839 1.399 . S
C838 H844 0.929 . S
C839 C819 1.449 . S
C839 C838 1.399 . S
C839 H845 0.930 . S
H840 C820 0.931 . S
H841 C821 0.930 . S
H842 C829 0.931 . S
H843 C830 0.929 . S
H844 C838 0.929 . S
H845 C839 0.930 . S
Mn846 O851 2.095 . S
Mn846 O861 2.162 . S
Mn846 O862 2.297 . S
Mn846 O870 2.385 . S
Mn846 O871 2.209 . S
Mn846 O872 2.094 . S
Mn847 O852 2.121 . S
Mn847 N854 2.257 . S
Mn847 N863 2.282 . S
Mn847 O871 2.215 . S
Mn847 O873 2.117 . S
C848 O870 1.234 . S
C848 O871 1.283 . S
C849 O861 1.281 . S
C849 O862 1.236 . S
C850 O872 1.240 . S
C850 O873 1.264 . S
O851 Mn846 2.095 . S
O851 C860 1.250 . S
O852 Mn847 2.121 . S
O852 C860 1.258 . S
C853 N854 1.326 . S
C853 C857 1.460 . S
C853 H859 0.929 . S
N854 Mn847 2.257 . S
N854 C853 1.326 . S
N854 C858 1.362 . S
C855 C856 1.258 . S
C855 C858 1.431 . S
C855 C875 1.449 . S
C856 C855 1.258 . S
C856 C857 1.477 . S
C856 H876 0.931 . S
C857 C853 1.460 . S
C857 C856 1.477 . S
C857 H877 0.930 . S
C858 N854 1.362 . S
C858 C855 1.431 . S
C858 C868 1.476 . S
H859 C853 0.929 . S
C860 O851 1.250 . S
C860 O852 1.258 . S
O861 Mn846 2.162 . S
O861 C849 1.281 . S
O862 Mn846 2.297 . S
O862 C849 1.236 . S
N863 Mn847 2.282 . S
N863 C864 1.328 . S
N863 C868 1.318 . S
C864 N863 1.328 . S
C864 C865 1.457 . S
C864 H869 0.929 . S
C865 C864 1.457 . S
C865 C866 1.291 . S
C865 H878 0.931 . S
C866 C865 1.291 . S
C866 C867 1.373 . S
C866 H879 0.929 . S
C867 C866 1.373 . S
C867 C868 1.396 . S
C867 C874 1.403 . S
C868 C858 1.476 . S
C868 N863 1.318 . S
C868 C867 1.396 . S
H869 C864 0.929 . S
O870 Mn846 2.385 . S
O870 C848 1.234 . S
O871 Mn846 2.209 . S
O871 Mn847 2.215 . S
O871 C848 1.283 . S
O872 Mn846 2.094 . S
O872 C850 1.240 . S
O873 Mn847 2.117 . S
O873 C850 1.264 . S
C874 C867 1.403 . S
C874 C875 1.399 . S
C874 H880 0.929 . S
C875 C855 1.449 . S
C875 C874 1.399 . S
C875 H881 0.930 . S
H876 C856 0.931 . S
H877 C857 0.930 . S
H878 C865 0.931 . S
H879 C866 0.929 . S
H880 C874 0.929 . S
H881 C875 0.930 . S
Mn882 O887 2.095 . S
Mn882 O897 2.162 . S
Mn882 O898 2.297 . S
Mn882 O906 2.385 . S
Mn882 O907 2.209 . S
Mn882 O908 2.094 . S
Mn883 O888 2.121 . S
Mn883 N890 2.257 . S
Mn883 N899 2.282 . S
Mn883 O907 2.215 . S
Mn883 O909 2.117 . S
C884 O906 1.234 . S
C884 O907 1.283 . S
C885 O897 1.281 . S
C885 O898 1.236 . S
C886 O908 1.240 . S
C886 O909 1.264 . S
O887 Mn882 2.095 . S
O887 C896 1.250 . S
O888 Mn883 2.121 . S
O888 C896 1.258 . S
C889 N890 1.326 . S
C889 C893 1.460 . S
C889 H895 0.929 . S
N890 Mn883 2.257 . S
N890 C889 1.326 . S
N890 C894 1.362 . S
C891 C892 1.258 . S
C891 C894 1.431 . S
C891 C911 1.449 . S
C892 C891 1.258 . S
C892 C893 1.477 . S
C892 H912 0.931 . S
C893 C889 1.460 . S
C893 C892 1.477 . S
C893 H913 0.930 . S
C894 N890 1.362 . S
C894 C891 1.431 . S
C894 C904 1.476 . S
H895 C889 0.929 . S
C896 O887 1.250 . S
C896 O888 1.258 . S
O897 Mn882 2.162 . S
O897 C885 1.281 . S
O898 Mn882 2.297 . S
O898 C885 1.236 . S
N899 Mn883 2.282 . S
N899 C900 1.328 . S
N899 C904 1.318 . S
C900 N899 1.328 . S
C900 C901 1.457 . S
C900 H905 0.929 . S
C901 C900 1.457 . S
C901 C902 1.291 . S
C901 H914 0.931 1_556 S
C902 C901 1.291 . S
C902 C903 1.373 . S
C902 H915 0.929 . S
C903 C902 1.373 . S
C903 C904 1.396 . S
C903 C910 1.403 . S
C904 C894 1.476 . S
C904 N899 1.318 . S
C904 C903 1.396 . S
H905 C900 0.929 . S
O906 Mn882 2.385 . S
O906 C884 1.234 . S
O907 Mn882 2.209 . S
O907 Mn883 2.215 . S
O907 C884 1.283 . S
O908 Mn882 2.094 . S
O908 C886 1.240 . S
O909 Mn883 2.117 . S
O909 C886 1.264 . S
C910 C903 1.403 . S
C910 C911 1.399 . S
C910 H916 0.929 . S
C911 C891 1.449 . S
C911 C910 1.399 . S
C911 H917 0.930 . S
H912 C892 0.931 . S
H913 C893 0.930 . S
H914 C901 0.931 1_554 S
H915 C902 0.929 . S
H916 C910 0.929 . S
H917 C911 0.930 . S
Mn918 O923 2.095 . S
Mn918 O933 2.162 . S
Mn918 O934 2.297 . S
Mn918 O942 2.385 1_655 S
Mn918 O943 2.209 . S
Mn918 O944 2.094 . S
Mn919 O924 2.121 . S
Mn919 N926 2.257 . S
Mn919 N935 2.282 . S
Mn919 O943 2.215 . S
Mn919 O945 2.117 . S
C920 O942 1.234 . S
C920 O943 1.283 1_455 S
C921 O933 1.281 . S
C921 O934 1.236 . S
C922 O944 1.240 . S
C922 O945 1.264 . S
O923 Mn918 2.095 . S
O923 C932 1.250 . S
O924 Mn919 2.121 . S
O924 C932 1.258 . S
C925 N926 1.326 . S
C925 C929 1.460 . S
C925 H931 0.929 . S
N926 Mn919 2.257 . S
N926 C925 1.326 . S
N926 C930 1.362 . S
C927 C928 1.258 . S
C927 C930 1.431 1_455 S
C927 C947 1.449 . S
C928 C927 1.258 . S
C928 C929 1.477 1_455 S
C928 H948 0.931 . S
C929 C925 1.460 . S
C929 C928 1.477 1_655 S
C929 H949 0.930 . S
C930 N926 1.362 . S
C930 C927 1.431 1_655 S
C930 C940 1.476 . S
H931 C925 0.929 . S
C932 O923 1.250 . S
C932 O924 1.258 . S
O933 Mn918 2.162 . S
O933 C921 1.281 . S
O934 Mn918 2.297 . S
O934 C921 1.236 . S
N935 Mn919 2.282 . S
N935 C936 1.328 . S
N935 C940 1.318 . S
C936 N935 1.328 . S
C936 C937 1.464 . S
C936 H941 0.929 . S
C937 C936 1.464 . S
C937 C938 1.289 1_655 S
C937 H950 0.922 1_655 S
C938 C937 1.289 1_455 S
C938 C939 1.373 . S
C938 H951 0.929 . S
C939 C938 1.373 . S
C939 C940 1.396 1_455 S
C939 C946 1.403 . S
C940 C930 1.476 . S
C940 N935 1.318 . S
C940 C939 1.396 1_655 S
H941 C936 0.929 . S
O942 Mn918 2.385 1_455 S
O942 C920 1.234 . S
O943 Mn918 2.209 . S
O943 Mn919 2.215 . S
O943 C920 1.283 1_655 S
O944 Mn918 2.094 . S
O944 C922 1.240 . S
O945 Mn919 2.117 . S
O945 C922 1.264 . S
C946 C939 1.403 . S
C946 C947 1.399 . S
C946 H952 0.929 . S
C947 C927 1.449 . S
C947 C946 1.399 . S
C947 H953 0.930 . S
H948 C928 0.931 . S
H949 C929 0.930 . S
H950 C937 0.922 1_455 S
H951 C938 0.929 . S
H952 C946 0.929 . S
H953 C947 0.930 . S
Mn954 O959 2.095 . S
Mn954 O969 2.162 . S
Mn954 O970 2.297 . S
Mn954 O978 2.385 . S
Mn954 O979 2.209 . S
Mn954 O980 2.094 . S
Mn955 O960 2.121 . S
Mn955 N962 2.257 . S
Mn955 N971 2.282 . S
Mn955 O979 2.215 . S
Mn955 O981 2.117 . S
C956 O978 1.234 . S
C956 O979 1.283 . S
C957 O969 1.281 . S
C957 O970 1.236 . S
C958 O980 1.240 . S
C958 O981 1.264 . S
O959 Mn954 2.095 . S
O959 C968 1.250 . S
O960 Mn955 2.121 . S
O960 C968 1.258 . S
C961 N962 1.326 . S
C961 C965 1.460 . S
C961 H967 0.929 . S
N962 Mn955 2.257 . S
N962 C961 1.326 . S
N962 C966 1.362 . S
C963 C964 1.258 . S
C963 C966 1.431 . S
C963 C983 1.449 . S
C964 C963 1.258 . S
C964 C965 1.477 . S
C964 H984 0.931 . S
C965 C961 1.460 . S
C965 C964 1.477 . S
C965 H985 0.930 . S
C966 N962 1.362 . S
C966 C963 1.431 . S
C966 C976 1.476 . S
H967 C961 0.929 . S
C968 O959 1.250 . S
C968 O960 1.258 . S
O969 Mn954 2.162 . S
O969 C957 1.281 . S
O970 Mn954 2.297 . S
O970 C957 1.236 . S
N971 Mn955 2.282 . S
N971 C972 1.328 . S
N971 C976 1.318 . S
C972 N971 1.328 . S
C972 C973 1.457 . S
C972 H977 0.929 . S
C973 C972 1.457 . S
C973 C974 1.291 . S
C973 H986 0.931 . S
C974 C973 1.291 . S
C974 C975 1.373 . S
C974 H987 0.929 . S
C975 C974 1.373 . S
C975 C976 1.396 . S
C975 C982 1.403 . S
C976 C966 1.476 . S
C976 N971 1.318 . S
C976 C975 1.396 . S
H977 C972 0.929 . S
O978 Mn954 2.385 . S
O978 C956 1.234 . S
O979 Mn954 2.209 . S
O979 Mn955 2.215 . S
O979 C956 1.283 . S
O980 Mn954 2.094 . S
O980 C958 1.240 . S
O981 Mn955 2.117 . S
O981 C958 1.264 . S
C982 C975 1.403 . S
C982 C983 1.399 . S
C982 H988 0.929 . S
C983 C963 1.449 . S
C983 C982 1.399 . S
C983 H989 0.930 . S
H984 C964 0.931 . S
H985 C965 0.930 . S
H986 C973 0.931 . S
H987 C974 0.929 . S
H988 C982 0.929 . S
H989 C983 0.930 . S
Mn990 O995 2.095 . S
Mn990 O1005 2.162 . S
Mn990 O1006 2.297 . S
Mn990 O1014 2.385 . S
Mn990 O1015 2.209 . S
Mn990 O1016 2.094 . S
Mn991 O996 2.121 . S
Mn991 N998 2.257 1_655 S
Mn991 N1007 2.282 1_655 S
Mn991 O1015 2.215 . S
Mn991 O1017 2.117 . S
C992 O1014 1.234 . S
C992 O1015 1.283 . S
C993 O1005 1.281 . S
C993 O1006 1.236 . S
C994 O1016 1.240 . S
C994 O1017 1.264 . S
O995 Mn990 2.095 . S
O995 C1004 1.250 . S
O996 Mn991 2.121 . S
O996 C1004 1.258 . S
C997 N998 1.326 1_655 S
C997 C1001 1.460 1_655 S
C997 H1003 0.929 . S
N998 Mn991 2.257 1_455 S
N998 C997 1.326 1_455 S
N998 C1002 1.362 . S
C999 C1000 1.258 . S
C999 C1002 1.431 . S
C999 C1019 1.449 . S
C1000 C999 1.258 . S
C1000 C1001 1.477 . S
C1000 H1020 0.931 . S
C1001 C997 1.460 1_455 S
C1001 C1000 1.477 . S
C1001 H1021 0.930 1_455 S
C1002 N998 1.362 . S
C1002 C999 1.431 . S
C1002 C1012 1.476 . S
H1003 C997 0.929 . S
C1004 O995 1.250 . S
C1004 O996 1.258 . S
O1005 Mn990 2.162 . S
O1005 C993 1.281 . S
O1006 Mn990 2.297 . S
O1006 C993 1.236 . S
N1007 Mn991 2.282 1_455 S
N1007 C1008 1.328 . S
N1007 C1012 1.318 . S
C1008 N1007 1.328 . S
C1008 C1009 1.457 . S
C1008 H1013 0.929 . S
C1009 C1008 1.457 . S
C1009 C1010 1.291 . S
C1009 H1022 0.931 . S
C1010 C1009 1.291 . S
C1010 C1011 1.373 . S
C1010 H1023 0.929 . S
C1011 C1010 1.373 . S
C1011 C1012 1.396 . S
C1011 C1018 1.403 . S
C1012 C1002 1.476 . S
C1012 N1007 1.318 . S
C1012 C1011 1.396 . S
H1013 C1008 0.929 . S
O1014 Mn990 2.385 . S
O1014 C992 1.234 . S
O1015 Mn990 2.209 . S
O1015 Mn991 2.215 . S
O1015 C992 1.283 . S
O1016 Mn990 2.094 . S
O1016 C994 1.240 . S
O1017 Mn991 2.117 . S
O1017 C994 1.264 . S
C1018 C1011 1.403 . S
C1018 C1019 1.399 . S
C1018 H1024 0.929 . S
C1019 C999 1.449 . S
C1019 C1018 1.399 . S
C1019 H1025 0.930 . S
H1020 C1000 0.931 . S
H1021 C1001 0.930 1_655 S
H1022 C1009 0.931 . S
H1023 C1010 0.929 . S
H1024 C1018 0.929 . S
H1025 C1019 0.930 . S
Mn1026 O1031 2.095 . S
Mn1026 O1041 2.162 . S
Mn1026 O1042 2.297 . S
Mn1026 O1050 2.385 . S
Mn1026 O1051 2.209 . S
Mn1026 O1052 2.094 . S
Mn1027 O1032 2.121 . S
Mn1027 N1034 2.257 . S
Mn1027 N1043 2.282 . S
Mn1027 O1051 2.215 . S
Mn1027 O1053 2.117 . S
C1028 O1050 1.234 . S
C1028 O1051 1.283 . S
C1029 O1041 1.281 . S
C1029 O1042 1.236 . S
C1030 O1052 1.240 . S
C1030 O1053 1.264 . S
O1031 Mn1026 2.095 . S
O1031 C1040 1.250 . S
O1032 Mn1027 2.121 . S
O1032 C1040 1.258 . S
C1033 N1034 1.326 . S
C1033 C1037 1.460 . S
C1033 H1039 0.929 . S
N1034 Mn1027 2.257 . S
N1034 C1033 1.326 . S
N1034 C1038 1.362 . S
C1035 C1036 1.258 . S
C1035 C1038 1.431 . S
C1035 C1055 1.449 . S
C1036 C1035 1.258 . S
C1036 C1037 1.477 . S
C1036 H1056 0.931 . S
C1037 C1033 1.460 . S
C1037 C1036 1.477 . S
C1037 H1057 0.930 . S
C1038 N1034 1.362 . S
C1038 C1035 1.431 . S
C1038 C1048 1.476 . S
H1039 C1033 0.929 . S
C1040 O1031 1.250 . S
C1040 O1032 1.258 . S
O1041 Mn1026 2.162 . S
O1041 C1029 1.281 . S
O1042 Mn1026 2.297 . S
O1042 C1029 1.236 . S
N1043 Mn1027 2.282 . S
N1043 C1044 1.328 . S
N1043 C1048 1.318 . S
C1044 N1043 1.328 . S
C1044 C1045 1.457 . S
C1044 H1049 0.929 . S
C1045 C1044 1.457 . S
C1045 C1046 1.291 . S
C1045 H1058 0.931 . S
C1046 C1045 1.291 . S
C1046 C1047 1.373 . S
C1046 H1059 0.929 . S
C1047 C1046 1.373 . S
C1047 C1048 1.396 . S
C1047 C1054 1.403 . S
C1048 C1038 1.476 . S
C1048 N1043 1.318 . S
C1048 C1047 1.396 . S
H1049 C1044 0.929 . S
O1050 Mn1026 2.385 . S
O1050 C1028 1.234 . S
O1051 Mn1026 2.209 . S
O1051 Mn1027 2.215 . S
O1051 C1028 1.283 . S
O1052 Mn1026 2.094 . S
O1052 C1030 1.240 . S
O1053 Mn1027 2.117 . S
O1053 C1030 1.264 . S
C1054 C1047 1.403 . S
C1054 C1055 1.399 . S
C1054 H1060 0.929 . S
C1055 C1035 1.449 . S
C1055 C1054 1.399 . S
C1055 H1061 0.930 . S
H1056 C1036 0.931 . S
H1057 C1037 0.930 . S
H1058 C1045 0.931 . S
H1059 C1046 0.929 . S
H1060 C1054 0.929 . S
H1061 C1055 0.930 . S
H1062 C1070 0.929 . S
H1063 C1072 0.930 . S
H1064 C1074 0.930 . S
H1065 C1077 0.929 . S
H1066 C1080 0.930 . S
H1067 C1082 0.960 . S
H1068 C1082 0.960 . S
H1069 C1082 0.960 . S
C1070 H1062 0.929 . S
C1070 C1071 1.377 . S
C1070 C1072 1.384 . S
C1071 C1070 1.377 . S
C1071 C1077 1.390 . S
C1072 H1063 0.930 . S
C1072 C1070 1.384 . S
C1072 C1073 1.372 . S
C1073 C1072 1.372 . S
C1073 C1074 1.400 . S
C1073 C1078 1.490 . S
C1074 H1064 0.930 . S
C1074 C1073 1.400 . S
C1074 C1077 1.386 . S
H1075 C1091 0.930 . S
H1076 C1092 0.931 . S
C1077 H1065 0.929 . S
C1077 C1071 1.390 . S
C1077 C1074 1.386 . S
C1078 C1073 1.490 . S
C1078 C1080 1.395 . S
C1078 C1081 1.403 . S
H1079 C1085 0.930 . S
C1080 H1066 0.930 . S
C1080 C1078 1.395 . S
C1080 C1083 1.403 . S
C1081 C1078 1.403 . S
C1081 C1082 1.524 . S
C1081 C1085 1.400 . S
C1082 H1067 0.960 . S
C1082 H1068 0.960 . S
C1082 H1069 0.960 . S
C1082 C1081 1.524 . S
C1083 C1080 1.403 . S
C1083 C1084 1.392 . S
C1083 C1087 1.495 . S
C1084 C1083 1.392 . S
C1084 C1085 1.385 . S
C1084 C1086 1.478 . S
C1085 H1079 0.930 . S
C1085 C1081 1.400 . S
C1085 C1084 1.385 . S
C1086 C1084 1.478 . S
C1086 C1088 1.381 . S
C1086 C1092 1.383 . S
C1087 C1083 1.495 . S
C1087 H1093 0.959 . S
C1087 H1094 0.961 . S
C1087 H1095 0.960 . S
C1088 C1086 1.381 . S
C1088 C1089 1.394 . S
C1088 H1096 0.930 . S
C1089 C1088 1.394 . S
C1089 C1090 1.383 . S
C1089 H1097 0.929 . S
C1090 C1089 1.383 . S
C1090 C1091 1.377 . S
C1091 H1075 0.930 . S
C1091 C1090 1.377 . S
C1091 C1092 1.379 . S
C1092 H1076 0.931 . S
C1092 C1086 1.383 . S
C1092 C1091 1.379 . S
H1093 C1087 0.959 . S
H1094 C1087 0.961 . S
H1095 C1087 0.960 . S
H1096 C1088 0.930 . S
H1097 C1089 0.929 . S
H1098 C1106 0.929 . S
H1099 C1108 0.930 . S
H1100 C1110 0.930 . S
H1101 C1113 0.929 . S
H1102 C1116 0.930 . S
H1103 C1118 0.960 . S
H1104 C1118 0.960 . S
H1105 C1118 0.960 . S
C1106 H1098 0.929 . S
C1106 C1107 1.377 . S
C1106 C1108 1.384 . S
C1107 C1106 1.377 . S
C1107 C1113 1.390 . S
C1108 H1099 0.930 . S
C1108 C1106 1.384 . S
C1108 C1109 1.372 . S
C1109 C1108 1.372 . S
C1109 C1110 1.400 . S
C1109 C1114 1.490 . S
C1110 H1100 0.930 . S
C1110 C1109 1.400 . S
C1110 C1113 1.386 . S
H1111 C1127 0.930 . S
H1112 C1128 0.931 . S
C1113 H1101 0.929 . S
C1113 C1107 1.390 . S
C1113 C1110 1.386 . S
C1114 C1109 1.490 . S
C1114 C1116 1.395 . S
C1114 C1117 1.403 . S
H1115 C1121 0.930 . S
C1116 H1102 0.930 . S
C1116 C1114 1.395 . S
C1116 C1119 1.403 . S
C1117 C1114 1.403 . S
C1117 C1118 1.524 . S
C1117 C1121 1.400 . S
C1118 H1103 0.960 . S
C1118 H1104 0.960 . S
C1118 H1105 0.960 . S
C1118 C1117 1.524 . S
C1119 C1116 1.403 . S
C1119 C1120 1.392 . S
C1119 C1123 1.495 . S
C1120 C1119 1.392 . S
C1120 C1121 1.385 . S
C1120 C1122 1.478 . S
C1121 H1115 0.930 . S
C1121 C1117 1.400 . S
C1121 C1120 1.385 . S
C1122 C1120 1.478 . S
C1122 C1124 1.381 . S
C1122 C1128 1.383 . S
C1123 C1119 1.495 . S
C1123 H1129 0.959 . S
C1123 H1130 0.961 . S
C1123 H1131 0.960 . S
C1124 C1122 1.381 . S
C1124 C1125 1.394 . S
C1124 H1132 0.930 . S
C1125 C1124 1.394 . S
C1125 C1126 1.383 . S
C1125 H1133 0.929 . S
C1126 C1125 1.383 . S
C1126 C1127 1.377 . S
C1127 H1111 0.930 . S
C1127 C1126 1.377 . S
C1127 C1128 1.379 . S
C1128 H1112 0.931 . S
C1128 C1122 1.383 . S
C1128 C1127 1.379 . S
H1129 C1123 0.959 . S
H1130 C1123 0.961 . S
H1131 C1123 0.960 . S
H1132 C1124 0.930 . S
H1133 C1125 0.929 . S
H1134 C1142 0.929 . S
H1135 C1144 0.930 . S
H1136 C1146 0.930 . S
H1137 C1149 0.929 . S
H1138 C1152 0.930 . S
H1139 C1154 0.960 . S
H1140 C1154 0.960 1_565 S
H1141 C1154 0.960 . S
C1142 H1134 0.929 . S
C1142 C1143 1.355 1_565 S
C1142 C1144 1.384 . S
C1143 C1142 1.355 1_545 S
C1143 C1149 1.431 . S
C1144 H1135 0.930 . S
C1144 C1142 1.384 . S
C1144 C1145 1.372 . S
C1145 C1144 1.372 . S
C1145 C1146 1.400 1_565 S
C1145 C1150 1.490 . S
C1146 H1136 0.930 . S
C1146 C1145 1.400 1_545 S
C1146 C1149 1.386 . S
H1147 C1163 0.930 . S
H1148 C1164 0.931 . S
C1149 H1137 0.929 . S
C1149 C1143 1.431 . S
C1149 C1146 1.386 . S
C1150 C1145 1.490 . S
C1150 C1152 1.395 . S
C1150 C1153 1.433 . S
H1151 C1157 0.930 . S
C1152 H1138 0.930 . S
C1152 C1150 1.395 . S
C1152 C1155 1.403 . S
C1153 C1150 1.433 . S
C1153 C1154 1.524 1_565 S
C1153 C1157 1.373 . S
C1154 H1139 0.960 . S
C1154 H1140 0.960 1_545 S
C1154 H1141 0.960 . S
C1154 C1153 1.524 1_545 S
C1155 C1152 1.403 . S
C1155 C1156 1.392 . S
C1155 C1159 1.495 . S
C1156 C1155 1.392 . S
C1156 C1157 1.385 . S
C1156 C1158 1.478 . S
C1157 H1151 0.930 . S
C1157 C1153 1.373 . S
C1157 C1156 1.385 . S
C1158 C1156 1.478 . S
C1158 C1160 1.381 . S
C1158 C1164 1.383 1_565 S
C1159 C1155 1.495 . S
C1159 H1165 0.959 . S
C1159 H1166 0.961 1_565 S
C1159 H1167 0.960 . S
C1160 C1158 1.381 . S
C1160 C1161 1.394 . S
C1160 H1168 0.930 . S
C1161 C1160 1.394 . S
C1161 C1162 1.383 . S
C1161 H1169 0.929 . S
C1162 C1161 1.383 . S
C1162 C1163 1.377 1_565 S
C1163 H1147 0.930 . S
C1163 C1162 1.377 1_545 S
C1163 C1164 1.379 . S
C1164 H1148 0.931 . S
C1164 C1158 1.383 1_545 S
C1164 C1163 1.379 . S
H1165 C1159 0.959 . S
H1166 C1159 0.961 1_545 S
H1167 C1159 0.960 . S
H1168 C1160 0.930 . S
H1169 C1161 0.929 . S
H1170 C1178 0.929 . S
H1171 C1180 0.930 . S
H1172 C1182 0.930 . S
H1173 C1185 0.929 . S
H1174 C1188 0.930 . S
H1175 C1190 0.960 . S
H1176 C1190 0.960 . S
H1177 C1190 0.960 . S
C1178 H1170 0.929 . S
C1178 C1179 1.377 . S
C1178 C1180 1.384 . S
C1179 C1178 1.377 . S
C1179 C1185 1.390 . S
C1180 H1171 0.930 . S
C1180 C1178 1.384 . S
C1180 C1181 1.372 . S
C1181 C1180 1.372 . S
C1181 C1182 1.400 . S
C1181 C1186 1.490 . S
C1182 H1172 0.930 . S
C1182 C1181 1.400 . S
C1182 C1185 1.386 . S
H1183 C1199 0.930 . S
H1184 C1200 0.931 . S
C1185 H1173 0.929 . S
C1185 C1179 1.390 . S
C1185 C1182 1.386 . S
C1186 C1181 1.490 . S
C1186 C1188 1.395 . S
C1186 C1189 1.403 . S
H1187 C1193 0.930 . S
C1188 H1174 0.930 . S
C1188 C1186 1.395 . S
C1188 C1191 1.403 . S
C1189 C1186 1.403 . S
C1189 C1190 1.524 . S
C1189 C1193 1.400 . S
C1190 H1175 0.960 . S
C1190 H1176 0.960 . S
C1190 H1177 0.960 . S
C1190 C1189 1.524 . S
C1191 C1188 1.403 . S
C1191 C1192 1.392 . S
C1191 C1195 1.495 . S
C1192 C1191 1.392 . S
C1192 C1193 1.385 . S
C1192 C1194 1.478 . S
C1193 H1187 0.930 . S
C1193 C1189 1.400 . S
C1193 C1192 1.385 . S
C1194 C1192 1.478 . S
C1194 C1196 1.381 . S
C1194 C1200 1.383 . S
C1195 C1191 1.495 . S
C1195 H1201 0.959 . S
C1195 H1202 0.961 . S
C1195 H1203 0.960 . S
C1196 C1194 1.381 . S
C1196 C1197 1.394 . S
C1196 H1204 0.930 . S
C1197 C1196 1.394 . S
C1197 C1198 1.383 . S
C1197 H1205 0.929 . S
C1198 C1197 1.383 . S
C1198 C1199 1.377 . S
C1199 H1183 0.930 . S
C1199 C1198 1.377 . S
C1199 C1200 1.379 . S
C1200 H1184 0.931 . S
C1200 C1194 1.383 . S
C1200 C1199 1.379 . S
H1201 C1195 0.959 . S
H1202 C1195 0.961 . S
H1203 C1195 0.960 . S
H1204 C1196 0.930 . S
H1205 C1197 0.929 . S
H1206 C1214 0.929 . S
H1207 C1216 0.930 . S
H1208 C1218 0.930 . S
H1209 C1221 0.929 . S
H1210 C1224 0.930 1_655 S
H1211 C1226 0.960 . S
H1212 C1226 0.960 . S
H1213 C1226 0.960 . S
C1214 H1206 0.929 . S
C1214 C1215 1.377 . S
C1214 C1216 1.384 . S
C1215 C1214 1.377 . S
C1215 C1221 1.390 . S
C1216 H1207 0.930 . S
C1216 C1214 1.384 . S
C1216 C1217 1.372 . S
C1217 C1216 1.372 . S
C1217 C1218 1.400 . S
C1217 C1222 1.490 . S
C1218 H1208 0.930 . S
C1218 C1217 1.400 . S
C1218 C1221 1.386 . S
H1219 C1235 0.930 1_455 S
H1220 C1236 0.931 . S
C1221 H1209 0.929 . S
C1221 C1215 1.390 . S
C1221 C1218 1.386 . S
C1222 C1217 1.490 . S
C1222 C1224 1.395 . S
C1222 C1225 1.403 . S
H1223 C1229 0.930 . S
C1224 H1210 0.930 1_455 S
C1224 C1222 1.395 . S
C1224 C1227 1.403 1_455 S
C1225 C1222 1.403 . S
C1225 C1226 1.524 . S
C1225 C1229 1.400 . S
C1226 H1211 0.960 . S
C1226 H1212 0.960 . S
C1226 H1213 0.960 . S
C1226 C1225 1.524 . S
C1227 C1224 1.403 1_655 S
C1227 C1228 1.392 1_655 S
C1227 C1231 1.495 . S
C1228 C1227 1.392 1_455 S
C1228 C1229 1.385 . S
C1228 C1230 1.478 1_455 S
C1229 H1223 0.930 . S
C1229 C1225 1.400 . S
C1229 C1228 1.385 . S
C1230 C1228 1.478 1_655 S
C1230 C1232 1.381 . S
C1230 C1236 1.383 1_655 S
C1231 C1227 1.495 . S
C1231 H1237 0.959 . S
C1231 H1238 0.961 . S
C1231 H1239 0.960 . S
C1232 C1230 1.381 . S
C1232 C1233 1.394 . S
C1232 H1240 0.930 . S
C1233 C1232 1.394 . S
C1233 C1234 1.383 . S
C1233 H1241 0.929 . S
C1234 C1233 1.383 . S
C1234 C1235 1.377 . S
C1235 H1219 0.930 1_655 S
C1235 C1234 1.377 . S
C1235 C1236 1.379 1_655 S
C1236 H1220 0.931 . S
C1236 C1230 1.383 1_455 S
C1236 C1235 1.379 1_455 S
H1237 C1231 0.959 . S
H1238 C1231 0.961 . S
H1239 C1231 0.960 . S
H1240 C1232 0.930 . S
H1241 C1233 0.929 . S
H1242 C1250 0.929 . S
H1243 C1252 0.930 . S
H1244 C1254 0.930 . S
H1245 C1257 0.929 . S
H1246 C1260 0.930 . S
H1247 C1262 0.960 . S
H1248 C1262 0.960 . S
H1249 C1262 0.960 . S
C1250 H1242 0.929 . S
C1250 C1251 1.377 . S
C1250 C1252 1.384 . S
C1251 C1250 1.377 . S
C1251 C1257 1.390 . S
C1252 H1243 0.930 . S
C1252 C1250 1.384 . S
C1252 C1253 1.372 . S
C1253 C1252 1.372 . S
C1253 C1254 1.400 . S
C1253 C1258 1.490 . S
C1254 H1244 0.930 . S
C1254 C1253 1.400 . S
C1254 C1257 1.386 . S
H1255 C1271 0.930 . S
H1256 C1272 0.931 . S
C1257 H1245 0.929 . S
C1257 C1251 1.390 . S
C1257 C1254 1.386 . S
C1258 C1253 1.490 . S
C1258 C1260 1.395 . S
C1258 C1261 1.403 . S
H1259 C1265 0.930 . S
C1260 H1246 0.930 . S
C1260 C1258 1.395 . S
C1260 C1263 1.403 . S
C1261 C1258 1.403 . S
C1261 C1262 1.524 . S
C1261 C1265 1.400 . S
C1262 H1247 0.960 . S
C1262 H1248 0.960 . S
C1262 H1249 0.960 . S
C1262 C1261 1.524 . S
C1263 C1260 1.403 . S
C1263 C1264 1.392 . S
C1263 C1267 1.495 . S
C1264 C1263 1.392 . S
C1264 C1265 1.385 . S
C1264 C1266 1.478 . S
C1265 H1259 0.930 . S
C1265 C1261 1.400 . S
C1265 C1264 1.385 . S
C1266 C1264 1.478 . S
C1266 C1268 1.381 . S
C1266 C1272 1.383 . S
C1267 C1263 1.495 . S
C1267 H1273 0.959 . S
C1267 H1274 0.961 . S
C1267 H1275 0.960 . S
C1268 C1266 1.381 . S
C1268 C1269 1.394 . S
C1268 H1276 0.930 . S
C1269 C1268 1.394 . S
C1269 C1270 1.383 . S
C1269 H1277 0.929 . S
C1270 C1269 1.383 . S
C1270 C1271 1.377 . S
C1271 H1255 0.930 . S
C1271 C1270 1.377 . S
C1271 C1272 1.379 . S
C1272 H1256 0.931 . S
C1272 C1266 1.383 . S
C1272 C1271 1.379 . S
H1273 C1267 0.959 . S
H1274 C1267 0.961 . S
H1275 C1267 0.960 . S
H1276 C1268 0.930 . S
H1277 C1269 0.929 . S
H1278 C1286 0.929 1_554 S
H1279 C1288 0.930 1_554 S
H1280 C1290 0.930 . S
H1281 C1293 0.929 . S
H1282 C1296 0.930 . S
H1283 C1298 0.960 . S
H1284 C1298 0.960 . S
H1285 C1298 0.960 . S
C1286 H1278 0.929 1_556 S
C1286 C1287 1.377 . S
C1286 C1288 1.384 . S
C1287 C1286 1.377 . S
C1287 C1293 1.390 . S
C1288 H1279 0.930 1_556 S
C1288 C1286 1.384 . S
C1288 C1289 1.372 . S
C1289 C1288 1.372 . S
C1289 C1290 1.400 . S
C1289 C1294 1.490 . S
C1290 H1280 0.930 . S
C1290 C1289 1.400 . S
C1290 C1293 1.386 . S
H1291 C1307 0.930 . S
H1292 C1308 0.931 . S
C1293 H1281 0.929 . S
C1293 C1287 1.390 . S
C1293 C1290 1.386 . S
C1294 C1289 1.490 . S
C1294 C1296 1.395 . S
C1294 C1297 1.403 . S
H1295 C1301 0.930 1_655 S
C1296 H1282 0.930 . S
C1296 C1294 1.395 . S
C1296 C1299 1.403 . S
C1297 C1294 1.403 . S
C1297 C1298 1.524 1_455 S
C1297 C1301 1.400 . S
C1298 H1283 0.960 . S
C1298 H1284 0.960 . S
C1298 H1285 0.960 . S
C1298 C1297 1.524 1_655 S
C1299 C1296 1.403 . S
C1299 C1300 1.392 . S
C1299 C1303 1.495 . S
C1300 C1299 1.392 . S
C1300 C1301 1.385 . S
C1300 C1302 1.478 . S
C1301 H1295 0.930 1_455 S
C1301 C1297 1.400 . S
C1301 C1300 1.385 . S
C1302 C1300 1.478 . S
C1302 C1304 1.381 . S
C1302 C1308 1.383 . S
C1303 C1299 1.495 . S
C1303 H1309 0.959 . S
C1303 H1310 0.961 . S
C1303 H1311 0.960 . S
C1304 C1302 1.381 . S
C1304 C1305 1.394 . S
C1304 H1312 0.930 . S
C1305 C1304 1.394 . S
C1305 C1306 1.383 1_455 S
C1305 H1313 0.929 . S
C1306 C1305 1.383 1_655 S
C1306 C1307 1.377 . S
C1307 H1291 0.930 . S
C1307 C1306 1.377 . S
C1307 C1308 1.379 1_655 S
C1308 H1292 0.931 . S
C1308 C1302 1.383 . S
C1308 C1307 1.379 1_455 S
H1309 C1303 0.959 . S
H1310 C1303 0.961 . S
H1311 C1303 0.960 . S
H1312 C1304 0.930 . S
H1313 C1305 0.929 . S
H1314 C1322 0.929 . S
H1315 C1324 0.930 . S
H1316 C1326 0.930 . S
H1317 C1329 0.929 . S
H1318 C1332 0.930 . S
H1319 C1334 0.956 1_554 S
H1320 C1334 0.968 . S
H1321 C1334 0.947 1_554 S
C1322 H1314 0.929 . S
C1322 C1323 1.377 . S
C1322 C1324 1.384 . S
C1323 C1322 1.377 . S
C1323 C1329 1.390 1_556 S
C1324 H1315 0.930 . S
C1324 C1322 1.384 . S
C1324 C1325 1.372 . S
C1325 C1324 1.372 . S
C1325 C1326 1.400 1_556 S
C1325 C1330 1.490 . S
C1326 H1316 0.930 . S
C1326 C1325 1.400 1_554 S
C1326 C1329 1.386 . S
H1327 C1343 0.930 . S
H1328 C1344 0.931 . S
C1329 H1317 0.929 . S
C1329 C1323 1.390 1_554 S
C1329 C1326 1.386 . S
C1330 C1325 1.490 . S
C1330 C1332 1.395 . S
C1330 C1333 1.403 . S
H1331 C1337 0.930 . S
C1332 H1318 0.930 . S
C1332 C1330 1.395 . S
C1332 C1335 1.403 . S
C1333 C1330 1.403 . S
C1333 C1334 1.534 . S
C1333 C1337 1.400 . S
C1334 H1319 0.956 1_556 S
C1334 H1320 0.968 . S
C1334 H1321 0.947 1_556 S
C1334 C1333 1.534 . S
C1335 C1332 1.403 . S
C1335 C1336 1.392 . S
C1335 C1339 1.495 . S
C1336 C1335 1.392 . S
C1336 C1337 1.385 . S
C1336 C1338 1.478 . S
C1337 H1331 0.930 . S
C1337 C1333 1.400 . S
C1337 C1336 1.385 . S
C1338 C1336 1.478 . S
C1338 C1340 1.381 . S
C1338 C1344 1.383 . S
C1339 C1335 1.495 . S
C1339 H1345 0.959 . S
C1339 H1346 0.961 . S
C1339 H1347 0.960 . S
C1340 C1338 1.381 . S
C1340 C1341 1.394 . S
C1340 H1348 0.930 . S
C1341 C1340 1.394 . S
C1341 C1342 1.383 . S
C1341 H1349 0.929 . S
C1342 C1341 1.383 . S
C1342 C1343 1.377 . S
C1343 H1327 0.930 . S
C1343 C1342 1.377 . S
C1343 C1344 1.379 . S
C1344 H1328 0.931 . S
C1344 C1338 1.383 . S
C1344 C1343 1.379 . S
H1345 C1339 0.959 . S
H1346 C1339 0.961 . S
H1347 C1339 0.960 . S
H1348 C1340 0.930 . S
H1349 C1341 0.929 . S
H1350 C1358 0.929 . S
H1351 C1360 0.930 . S
H1352 C1362 0.947 . S
H1353 C1365 0.929 . S
H1354 C1368 0.930 . S
H1355 C1370 0.960 . S
H1356 C1370 0.960 . S
H1357 C1370 0.960 . S
C1358 H1350 0.929 . S
C1358 C1359 1.377 . S
C1358 C1360 1.384 . S
C1359 C1358 1.377 . S
C1359 C1365 1.390 1_556 S
C1360 H1351 0.930 . S
C1360 C1358 1.384 . S
C1360 C1361 1.372 . S
C1361 C1360 1.372 . S
C1361 C1362 1.400 . S
C1361 C1366 1.490 . S
C1362 H1352 0.947 . S
C1362 C1361 1.400 . S
C1362 C1365 1.386 1_556 S
H1363 C1379 0.930 . S
H1364 C1380 0.931 . S
C1365 H1353 0.929 . S
C1365 C1359 1.390 1_554 S
C1365 C1362 1.386 1_554 S
C1366 C1361 1.490 . S
C1366 C1368 1.395 . S
C1366 C1369 1.403 . S
H1367 C1373 0.930 . S
C1368 H1354 0.930 . S
C1368 C1366 1.395 . S
C1368 C1371 1.403 . S
C1369 C1366 1.403 . S
C1369 C1370 1.524 1_556 S
C1369 C1373 1.400 . S
C1370 H1355 0.960 . S
C1370 H1356 0.960 . S
C1370 H1357 0.960 . S
C1370 C1369 1.524 1_554 S
C1371 C1368 1.403 . S
C1371 C1372 1.392 . S
C1371 C1375 1.495 . S
C1372 C1371 1.392 . S
C1372 C1373 1.385 . S
C1372 C1374 1.478 . S
C1373 H1367 0.930 . S
C1373 C1369 1.400 . S
C1373 C1372 1.385 . S
C1374 C1372 1.478 . S
C1374 C1376 1.381 . S
C1374 C1380 1.383 . S
C1375 C1371 1.495 . S
C1375 H1381 0.959 . S
C1375 H1382 0.961 . S
C1375 H1383 0.960 . S
C1376 C1374 1.381 . S
C1376 C1377 1.394 . S
C1376 H1384 0.930 . S
C1377 C1376 1.394 . S
C1377 C1378 1.383 . S
C1377 H1385 0.929 . S
C1378 C1377 1.383 . S
C1378 C1379 1.377 . S
C1379 H1363 0.930 . S
C1379 C1378 1.377 . S
C1379 C1380 1.379 . S
C1380 H1364 0.931 . S
C1380 C1374 1.383 . S
C1380 C1379 1.379 . S
H1381 C1375 0.959 . S
H1382 C1375 0.961 . S
H1383 C1375 0.960 . S
H1384 C1376 0.930 . S
H1385 C1377 0.929 . S
H1386 C1394 0.929 . S
H1387 C1396 0.930 . S
H1388 C1398 0.930 . S
H1389 C1401 0.929 . S
H1390 C1404 0.930 . S
H1391 C1406 0.960 . S
H1392 C1406 0.960 . S
H1393 C1406 0.960 1_545 S
C1394 H1386 0.929 . S
C1394 C1395 1.377 1_565 S
C1394 C1396 1.384 . S
C1395 C1394 1.377 1_545 S
C1395 C1401 1.390 . S
C1396 H1387 0.930 . S
C1396 C1394 1.384 . S
C1396 C1397 1.372 1_565 S
C1397 C1396 1.372 1_545 S
C1397 C1398 1.400 . S
C1397 C1402 1.490 . S
C1398 H1388 0.930 . S
C1398 C1397 1.400 . S
C1398 C1401 1.386 . S
H1399 C1415 0.930 . S
H1400 C1416 0.931 . S
C1401 H1389 0.929 . S
C1401 C1395 1.390 . S
C1401 C1398 1.386 . S
C1402 C1397 1.490 . S
C1402 C1404 1.395 . S
C1402 C1405 1.423 . S
H1403 C1409 0.920 1_565 S
C1404 H1390 0.930 . S
C1404 C1402 1.395 . S
C1404 C1407 1.403 . S
C1405 C1402 1.423 . S
C1405 C1406 1.534 1_545 S
C1405 C1409 1.389 . S
C1406 H1391 0.960 . S
C1406 H1392 0.960 . S
C1406 H1393 0.960 1_565 S
C1406 C1405 1.534 1_565 S
C1407 C1404 1.403 . S
C1407 C1408 1.392 . S
C1407 C1411 1.495 . S
C1408 C1407 1.392 . S
C1408 C1409 1.377 . S
C1408 C1410 1.478 . S
C1409 H1403 0.920 1_545 S
C1409 C1405 1.389 . S
C1409 C1408 1.377 . S
C1410 C1408 1.478 . S
C1410 C1412 1.381 1_545 S
C1410 C1416 1.383 . S
C1411 C1407 1.495 . S
C1411 H1417 0.959 . S
C1411 H1418 0.961 . S
C1411 H1419 0.974 . S
C1412 C1410 1.381 1_565 S
C1412 C1413 1.394 . S
C1412 H1420 0.930 . S
C1413 C1412 1.394 . S
C1413 C1414 1.370 1_565 S
C1413 H1421 0.929 . S
C1414 C1413 1.370 1_545 S
C1414 C1415 1.407 . S
C1415 H1399 0.930 . S
C1415 C1414 1.407 . S
C1415 C1416 1.379 . S
C1416 H1400 0.931 . S
C1416 C1410 1.383 . S
C1416 C1415 1.379 . S
H1417 C1411 0.959 . S
H1418 C1411 0.961 . S
H1419 C1411 0.974 . S
H1420 C1412 0.930 . S
H1421 C1413 0.929 . S
H1422 C1430 0.929 . S
H1423 C1432 0.930 . S
H1424 C1434 0.930 . S
H1425 C1437 0.929 . S
H1426 C1440 0.930 . S
H1427 C1442 0.960 . S
H1428 C1442 0.960 . S
H1429 C1442 0.960 . S
C1430 H1422 0.929 . S
C1430 C1431 1.377 . S
C1430 C1432 1.384 . S
C1431 C1430 1.377 . S
C1431 C1437 1.390 . S
C1432 H1423 0.930 . S
C1432 C1430 1.384 . S
C1432 C1433 1.372 . S
C1433 C1432 1.372 . S
C1433 C1434 1.400 . S
C1433 C1438 1.490 . S
C1434 H1424 0.930 . S
C1434 C1433 1.400 . S
C1434 C1437 1.386 . S
H1435 C1451 0.930 . S
H1436 C1452 0.931 . S
C1437 H1425 0.929 . S
C1437 C1431 1.390 . S
C1437 C1434 1.386 . S
C1438 C1433 1.490 . S
C1438 C1440 1.395 . S
C1438 C1441 1.403 . S
H1439 C1445 0.930 . S
C1440 H1426 0.930 . S
C1440 C1438 1.395 . S
C1440 C1443 1.403 . S
C1441 C1438 1.403 . S
C1441 C1442 1.524 . S
C1441 C1445 1.400 . S
C1442 H1427 0.960 . S
C1442 H1428 0.960 . S
C1442 H1429 0.960 . S
C1442 C1441 1.524 . S
C1443 C1440 1.403 . S
C1443 C1444 1.392 . S
C1443 C1447 1.495 . S
C1444 C1443 1.392 . S
C1444 C1445 1.385 . S
C1444 C1446 1.478 . S
C1445 H1439 0.930 . S
C1445 C1441 1.400 . S
C1445 C1444 1.385 . S
C1446 C1444 1.478 . S
C1446 C1448 1.381 . S
C1446 C1452 1.383 . S
C1447 C1443 1.495 . S
C1447 H1453 0.959 . S
C1447 H1454 0.961 . S
C1447 H1455 0.960 . S
C1448 C1446 1.381 . S
C1448 C1449 1.394 . S
C1448 H1456 0.930 . S
C1449 C1448 1.394 . S
C1449 C1450 1.383 . S
C1449 H1457 0.929 . S
C1450 C1449 1.383 . S
C1450 C1451 1.377 . S
C1451 H1435 0.930 . S
C1451 C1450 1.377 . S
C1451 C1452 1.379 . S
C1452 H1436 0.931 . S
C1452 C1446 1.383 . S
C1452 C1451 1.379 . S
H1453 C1447 0.959 . S
H1454 C1447 0.961 . S
H1455 C1447 0.960 . S
H1456 C1448 0.930 . S
H1457 C1449 0.929 . S
H1458 C1466 0.929 . S
H1459 C1468 0.930 . S
H1460 C1470 0.930 . S
H1461 C1473 0.929 . S
H1462 C1476 0.930 . S
H1463 C1478 0.960 . S
H1464 C1478 0.960 . S
H1465 C1478 0.960 . S
C1466 H1458 0.929 . S
C1466 C1467 1.377 . S
C1466 C1468 1.384 . S
C1467 C1466 1.377 . S
C1467 C1473 1.390 . S
C1468 H1459 0.930 . S
C1468 C1466 1.384 . S
C1468 C1469 1.372 . S
C1469 C1468 1.372 . S
C1469 C1470 1.400 . S
C1469 C1474 1.490 . S
C1470 H1460 0.930 . S
C1470 C1469 1.400 . S
C1470 C1473 1.386 . S
H1471 C1487 0.930 . S
H1472 C1488 0.931 . S
C1473 H1461 0.929 . S
C1473 C1467 1.390 . S
C1473 C1470 1.386 . S
C1474 C1469 1.490 . S
C1474 C1476 1.395 . S
C1474 C1477 1.403 . S
H1475 C1481 0.930 . S
C1476 H1462 0.930 . S
C1476 C1474 1.395 . S
C1476 C1479 1.403 . S
C1477 C1474 1.403 . S
C1477 C1478 1.524 . S
C1477 C1481 1.400 . S
C1478 H1463 0.960 . S
C1478 H1464 0.960 . S
C1478 H1465 0.960 . S
C1478 C1477 1.524 . S
C1479 C1476 1.403 . S
C1479 C1480 1.392 . S
C1479 C1483 1.495 . S
C1480 C1479 1.392 . S
C1480 C1481 1.385 . S
C1480 C1482 1.478 . S
C1481 H1475 0.930 . S
C1481 C1477 1.400 . S
C1481 C1480 1.385 . S
C1482 C1480 1.478 . S
C1482 C1484 1.381 . S
C1482 C1488 1.383 . S
C1483 C1479 1.495 . S
C1483 H1489 0.959 . S
C1483 H1490 0.961 . S
C1483 H1491 0.960 . S
C1484 C1482 1.381 . S
C1484 C1485 1.394 . S
C1484 H1492 0.930 . S
C1485 C1484 1.394 . S
C1485 C1486 1.383 . S
C1485 H1493 0.929 . S
C1486 C1485 1.383 . S
C1486 C1487 1.377 . S
C1487 H1471 0.930 . S
C1487 C1486 1.377 . S
C1487 C1488 1.379 . S
C1488 H1472 0.931 . S
C1488 C1482 1.383 . S
C1488 C1487 1.379 . S
H1489 C1483 0.959 . S
H1490 C1483 0.961 . S
H1491 C1483 0.960 . S
H1492 C1484 0.930 . S
H1493 C1485 0.929 . S
H1494 C1502 0.929 . S
H1495 C1504 0.930 . S
H1496 C1506 0.930 . S
H1497 C1509 0.929 . S
H1498 C1512 0.930 . S
H1499 C1514 0.960 . S
H1500 C1514 0.960 . S
H1501 C1514 0.960 . S
C1502 H1494 0.929 . S
C1502 C1503 1.377 . S
C1502 C1504 1.384 . S
C1503 C1502 1.377 . S
C1503 C1509 1.390 . S
C1504 H1495 0.930 . S
C1504 C1502 1.384 . S
C1504 C1505 1.372 . S
C1505 C1504 1.372 . S
C1505 C1506 1.400 . S
C1505 C1510 1.490 . S
C1506 H1496 0.930 . S
C1506 C1505 1.400 . S
C1506 C1509 1.386 . S
H1507 C1523 0.930 . S
H1508 C1524 0.931 . S
C1509 H1497 0.929 . S
C1509 C1503 1.390 . S
C1509 C1506 1.386 . S
C1510 C1505 1.490 . S
C1510 C1512 1.395 . S
C1510 C1513 1.403 . S
H1511 C1517 0.930 . S
C1512 H1498 0.930 . S
C1512 C1510 1.395 . S
C1512 C1515 1.403 . S
C1513 C1510 1.403 . S
C1513 C1514 1.524 . S
C1513 C1517 1.400 . S
C1514 H1499 0.960 . S
C1514 H1500 0.960 . S
C1514 H1501 0.960 . S
C1514 C1513 1.524 . S
C1515 C1512 1.403 . S
C1515 C1516 1.392 . S
C1515 C1519 1.495 . S
C1516 C1515 1.392 . S
C1516 C1517 1.385 . S
C1516 C1518 1.478 . S
C1517 H1511 0.930 . S
C1517 C1513 1.400 . S
C1517 C1516 1.385 . S
C1518 C1516 1.478 . S
C1518 C1520 1.381 . S
C1518 C1524 1.383 . S
C1519 C1515 1.495 . S
C1519 H1525 0.959 . S
C1519 H1526 0.961 . S
C1519 H1527 0.960 . S
C1520 C1518 1.381 . S
C1520 C1521 1.394 . S
C1520 H1528 0.930 . S
C1521 C1520 1.394 . S
C1521 C1522 1.383 . S
C1521 H1529 0.929 . S
C1522 C1521 1.383 . S
C1522 C1523 1.377 . S
C1523 H1507 0.930 . S
C1523 C1522 1.377 . S
C1523 C1524 1.379 . S
C1524 H1508 0.931 . S
C1524 C1518 1.383 . S
C1524 C1523 1.379 . S
H1525 C1519 0.959 . S
H1526 C1519 0.961 . S
H1527 C1519 0.960 . S
H1528 C1520 0.930 . S
H1529 C1521 0.929 . S
H1530 C1538 0.929 . S
H1531 C1540 0.930 . S
H1532 C1542 0.930 . S
H1533 C1545 0.929 . S
H1534 C1548 0.930 . S
H1535 C1550 0.960 . S
H1536 C1550 0.960 1_565 S
H1537 C1550 0.960 . S
C1538 H1530 0.929 . S
C1538 C1539 1.377 . S
C1538 C1540 1.384 . S
C1539 C1538 1.377 . S
C1539 C1545 1.390 . S
C1540 H1531 0.930 . S
C1540 C1538 1.384 . S
C1540 C1541 1.372 . S
C1541 C1540 1.372 . S
C1541 C1542 1.400 . S
C1541 C1546 1.490 . S
C1542 H1532 0.930 . S
C1542 C1541 1.400 . S
C1542 C1545 1.386 . S
H1543 C1559 0.930 . S
H1544 C1560 0.931 . S
C1545 H1533 0.929 . S
C1545 C1539 1.390 . S
C1545 C1542 1.386 . S
C1546 C1541 1.490 . S
C1546 C1548 1.395 . S
C1546 C1549 1.403 1_565 S
H1547 C1553 0.930 . S
C1548 H1534 0.930 . S
C1548 C1546 1.395 . S
C1548 C1551 1.403 1_565 S
C1549 C1546 1.403 1_545 S
C1549 C1550 1.524 . S
C1549 C1553 1.400 . S
C1550 H1535 0.960 . S
C1550 H1536 0.960 1_545 S
C1550 H1537 0.960 . S
C1550 C1549 1.524 . S
C1551 C1548 1.403 1_545 S
C1551 C1552 1.392 . S
C1551 C1555 1.495 . S
C1552 C1551 1.392 . S
C1552 C1553 1.385 . S
C1552 C1554 1.478 . S
C1553 H1547 0.930 . S
C1553 C1549 1.400 . S
C1553 C1552 1.385 . S
C1554 C1552 1.478 . S
C1554 C1556 1.381 . S
C1554 C1560 1.383 . S
C1555 C1551 1.495 . S
C1555 H1561 0.959 1_545 S
C1555 H1562 0.961 . S
C1555 H1563 0.960 . S
C1556 C1554 1.381 . S
C1556 C1557 1.394 . S
C1556 H1564 0.930 . S
C1557 C1556 1.394 . S
C1557 C1558 1.383 . S
C1557 H1565 0.929 . S
C1558 C1557 1.383 . S
C1558 C1559 1.377 . S
C1559 H1543 0.930 . S
C1559 C1558 1.377 . S
C1559 C1560 1.379 . S
C1560 H1544 0.931 . S
C1560 C1554 1.383 . S
C1560 C1559 1.379 . S
H1561 C1555 0.959 1_565 S
H1562 C1555 0.961 . S
H1563 C1555 0.960 . S
H1564 C1556 0.930 . S
H1565 C1557 0.929 . S
H1566 C1574 0.929 . S
H1567 C1576 0.930 . S
H1568 C1578 0.930 . S
H1569 C1581 0.929 . S
H1570 C1584 0.930 . S
H1571 C1586 0.960 . S
H1572 C1586 0.960 . S
H1573 C1586 0.960 . S
C1574 H1566 0.929 . S
C1574 C1575 1.377 . S
C1574 C1576 1.384 . S
C1575 C1574 1.377 . S
C1575 C1581 1.390 . S
C1576 H1567 0.930 . S
C1576 C1574 1.384 . S
C1576 C1577 1.372 . S
C1577 C1576 1.372 . S
C1577 C1578 1.400 . S
C1577 C1582 1.490 . S
C1578 H1568 0.930 . S
C1578 C1577 1.400 . S
C1578 C1581 1.386 . S
H1579 C1595 0.930 . S
H1580 C1596 0.931 . S
C1581 H1569 0.929 . S
C1581 C1575 1.390 . S
C1581 C1578 1.386 . S
C1582 C1577 1.490 . S
C1582 C1584 1.395 . S
C1582 C1585 1.403 . S
H1583 C1589 0.930 . S
C1584 H1570 0.930 . S
C1584 C1582 1.395 . S
C1584 C1587 1.403 . S
C1585 C1582 1.403 . S
C1585 C1586 1.524 . S
C1585 C1589 1.400 . S
C1586 H1571 0.960 . S
C1586 H1572 0.960 . S
C1586 H1573 0.960 . S
C1586 C1585 1.524 . S
C1587 C1584 1.403 . S
C1587 C1588 1.392 . S
C1587 C1591 1.495 . S
C1588 C1587 1.392 . S
C1588 C1589 1.385 . S
C1588 C1590 1.478 . S
C1589 H1583 0.930 . S
C1589 C1585 1.400 . S
C1589 C1588 1.385 . S
C1590 C1588 1.478 . S
C1590 C1592 1.381 . S
C1590 C1596 1.383 . S
C1591 C1587 1.495 . S
C1591 H1597 0.959 . S
C1591 H1598 0.961 . S
C1591 H1599 0.960 . S
C1592 C1590 1.381 . S
C1592 C1593 1.394 . S
C1592 H1600 0.930 . S
C1593 C1592 1.394 . S
C1593 C1594 1.383 . S
C1593 H1601 0.929 . S
C1594 C1593 1.383 . S
C1594 C1595 1.377 . S
C1595 H1579 0.930 . S
C1595 C1594 1.377 . S
C1595 C1596 1.379 . S
C1596 H1580 0.931 . S
C1596 C1590 1.383 . S
C1596 C1595 1.379 . S
H1597 C1591 0.959 . S
H1598 C1591 0.961 . S
H1599 C1591 0.960 . S
H1600 C1592 0.930 . S
H1601 C1593 0.929 . S
H1602 C1610 0.929 . S
H1603 C1612 0.930 . S
H1604 C1614 0.930 . S
H1605 C1617 0.929 . S
H1606 C1620 0.930 . S
H1607 C1622 0.960 . S
H1608 C1622 0.960 . S
H1609 C1622 0.960 . S
C1610 H1602 0.929 . S
C1610 C1611 1.377 . S
C1610 C1612 1.384 . S
C1611 C1610 1.377 . S
C1611 C1617 1.390 . S
C1612 H1603 0.930 . S
C1612 C1610 1.384 . S
C1612 C1613 1.372 . S
C1613 C1612 1.372 . S
C1613 C1614 1.400 . S
C1613 C1618 1.490 . S
C1614 H1604 0.930 . S
C1614 C1613 1.400 . S
C1614 C1617 1.386 . S
H1615 C1631 0.930 . S
H1616 C1632 0.931 . S
C1617 H1605 0.929 . S
C1617 C1611 1.390 . S
C1617 C1614 1.386 . S
C1618 C1613 1.490 . S
C1618 C1620 1.395 . S
C1618 C1621 1.403 . S
H1619 C1625 0.930 . S
C1620 H1606 0.930 . S
C1620 C1618 1.395 . S
C1620 C1623 1.403 . S
C1621 C1618 1.403 . S
C1621 C1622 1.524 . S
C1621 C1625 1.400 . S
C1622 H1607 0.960 . S
C1622 H1608 0.960 . S
C1622 H1609 0.960 . S
C1622 C1621 1.524 . S
C1623 C1620 1.403 . S
C1623 C1624 1.392 . S
C1623 C1627 1.495 . S
C1624 C1623 1.392 . S
C1624 C1625 1.385 . S
C1624 C1626 1.478 . S
C1625 H1619 0.930 . S
C1625 C1621 1.400 . S
C1625 C1624 1.385 . S
C1626 C1624 1.478 . S
C1626 C1628 1.381 . S
C1626 C1632 1.383 . S
C1627 C1623 1.495 . S
C1627 H1633 0.959 . S
C1627 H1634 0.961 . S
C1627 H1635 0.960 . S
C1628 C1626 1.381 . S
C1628 C1629 1.394 . S
C1628 H1636 0.930 . S
C1629 C1628 1.394 . S
C1629 C1630 1.383 . S
C1629 H1637 0.929 . S
C1630 C1629 1.383 . S
C1630 C1631 1.377 . S
C1631 H1615 0.930 . S
C1631 C1630 1.377 . S
C1631 C1632 1.379 . S
C1632 H1616 0.931 . S
C1632 C1626 1.383 . S
C1632 C1631 1.379 . S
H1633 C1627 0.959 . S
H1634 C1627 0.961 . S
H1635 C1627 0.960 . S
H1636 C1628 0.930 . S
H1637 C1629 0.929 . S
H1638 C1646 0.929 . S
H1639 C1648 0.930 . S
H1640 C1650 0.930 . S
H1641 C1653 0.929 . S
H1642 C1656 0.930 . S
H1643 C1658 0.960 . S
H1644 C1658 0.960 . S
H1645 C1658 0.960 . S
C1646 H1638 0.929 . S
C1646 C1647 1.377 . S
C1646 C1648 1.384 . S
C1647 C1646 1.377 . S
C1647 C1653 1.390 . S
C1648 H1639 0.930 . S
C1648 C1646 1.384 . S
C1648 C1649 1.372 . S
C1649 C1648 1.372 . S
C1649 C1650 1.400 . S
C1649 C1654 1.490 . S
C1650 H1640 0.930 . S
C1650 C1649 1.400 . S
C1650 C1653 1.386 . S
H1651 C1667 0.930 . S
H1652 C1668 0.931 . S
C1653 H1641 0.929 . S
C1653 C1647 1.390 . S
C1653 C1650 1.386 . S
C1654 C1649 1.490 . S
C1654 C1656 1.395 . S
C1654 C1657 1.403 . S
H1655 C1661 0.930 . S
C1656 H1642 0.930 . S
C1656 C1654 1.395 . S
C1656 C1659 1.403 . S
C1657 C1654 1.403 . S
C1657 C1658 1.524 . S
C1657 C1661 1.400 . S
C1658 H1643 0.960 . S
C1658 H1644 0.960 . S
C1658 H1645 0.960 . S
C1658 C1657 1.524 . S
C1659 C1656 1.403 . S
C1659 C1660 1.392 . S
C1659 C1663 1.495 . S
C1660 C1659 1.392 . S
C1660 C1661 1.385 . S
C1660 C1662 1.478 . S
C1661 H1655 0.930 . S
C1661 C1657 1.400 . S
C1661 C1660 1.385 . S
C1662 C1660 1.478 . S
C1662 C1664 1.381 . S
C1662 C1668 1.383 . S
C1663 C1659 1.495 . S
C1663 H1669 0.959 . S
C1663 H1670 0.961 . S
C1663 H1671 0.960 . S
C1664 C1662 1.381 . S
C1664 C1665 1.394 . S
C1664 H1672 0.930 . S
C1665 C1664 1.394 . S
C1665 C1666 1.383 . S
C1665 H1673 0.929 . S
C1666 C1665 1.383 . S
C1666 C1667 1.377 . S
C1667 H1651 0.930 . S
C1667 C1666 1.377 . S
C1667 C1668 1.379 . S
C1668 H1652 0.931 . S
C1668 C1662 1.383 . S
C1668 C1667 1.379 . S
H1669 C1663 0.959 . S
H1670 C1663 0.961 . S
H1671 C1663 0.960 . S
H1672 C1664 0.930 . S
H1673 C1665 0.929 . S
H1674 C1682 0.929 . S
H1675 C1684 0.930 . S
H1676 C1686 0.930 . S
H1677 C1689 0.929 . S
H1678 C1692 0.930 . S
H1679 C1694 0.960 . S
H1680 C1694 0.960 . S
H1681 C1694 0.960 . S
C1682 H1674 0.929 . S
C1682 C1683 1.377 . S
C1682 C1684 1.384 . S
C1683 C1682 1.377 . S
C1683 C1689 1.390 . S
C1684 H1675 0.930 . S
C1684 C1682 1.384 . S
C1684 C1685 1.372 . S
C1685 C1684 1.372 . S
C1685 C1686 1.400 . S
C1685 C1690 1.490 . S
C1686 H1676 0.930 . S
C1686 C1685 1.400 . S
C1686 C1689 1.386 . S
H1687 C1703 0.930 . S
H1688 C1704 0.931 . S
C1689 H1677 0.929 . S
C1689 C1683 1.390 . S
C1689 C1686 1.386 . S
C1690 C1685 1.490 . S
C1690 C1692 1.395 . S
C1690 C1693 1.403 . S
H1691 C1697 0.930 . S
C1692 H1678 0.930 . S
C1692 C1690 1.395 . S
C1692 C1695 1.403 . S
C1693 C1690 1.403 . S
C1693 C1694 1.524 . S
C1693 C1697 1.400 . S
C1694 H1679 0.960 . S
C1694 H1680 0.960 . S
C1694 H1681 0.960 . S
C1694 C1693 1.524 . S
C1695 C1692 1.403 . S
C1695 C1696 1.392 . S
C1695 C1699 1.495 . S
C1696 C1695 1.392 . S
C1696 C1697 1.385 . S
C1696 C1698 1.478 . S
C1697 H1691 0.930 . S
C1697 C1693 1.400 . S
C1697 C1696 1.385 . S
C1698 C1696 1.478 . S
C1698 C1700 1.381 . S
C1698 C1704 1.383 . S
C1699 C1695 1.495 . S
C1699 H1705 0.959 . S
C1699 H1706 0.961 . S
C1699 H1707 0.960 . S
C1700 C1698 1.381 . S
C1700 C1701 1.394 . S
C1700 H1708 0.930 . S
C1701 C1700 1.394 . S
C1701 C1702 1.383 . S
C1701 H1709 0.929 . S
C1702 C1701 1.383 . S
C1702 C1703 1.377 . S
C1703 H1687 0.930 . S
C1703 C1702 1.377 . S
C1703 C1704 1.379 . S
C1704 H1688 0.931 . S
C1704 C1698 1.383 . S
C1704 C1703 1.379 . S
H1705 C1699 0.959 . S
H1706 C1699 0.961 . S
H1707 C1699 0.960 . S
H1708 C1700 0.930 . S
H1709 C1701 0.929 . S
H1710 C1718 0.929 . S
H1711 C1720 0.930 . S
H1712 C1722 0.930 . S
H1713 C1725 0.929 . S
H1714 C1728 0.930 . S
H1715 C1730 0.960 . S
H1716 C1730 0.960 . S
H1717 C1730 0.960 . S
C1718 H1710 0.929 . S
C1718 C1719 1.377 . S
C1718 C1720 1.384 . S
C1719 C1718 1.377 . S
C1719 C1725 1.390 . S
C1720 H1711 0.930 . S
C1720 C1718 1.384 . S
C1720 C1721 1.372 . S
C1721 C1720 1.372 . S
C1721 C1722 1.400 . S
C1721 C1726 1.490 . S
C1722 H1712 0.930 . S
C1722 C1721 1.400 . S
C1722 C1725 1.386 . S
H1723 C1739 0.930 . S
H1724 C1740 0.931 . S
C1725 H1713 0.929 . S
C1725 C1719 1.390 . S
C1725 C1722 1.386 . S
C1726 C1721 1.490 . S
C1726 C1728 1.395 . S
C1726 C1729 1.403 . S
H1727 C1733 0.930 . S
C1728 H1714 0.930 . S
C1728 C1726 1.395 . S
C1728 C1731 1.403 . S
C1729 C1726 1.403 . S
C1729 C1730 1.524 . S
C1729 C1733 1.400 . S
C1730 H1715 0.960 . S
C1730 H1716 0.960 . S
C1730 H1717 0.960 . S
C1730 C1729 1.524 . S
C1731 C1728 1.403 . S
C1731 C1732 1.392 . S
C1731 C1735 1.495 1_565 S
C1732 C1731 1.392 . S
C1732 C1733 1.385 . S
C1732 C1734 1.478 1_565 S
C1733 H1727 0.930 . S
C1733 C1729 1.400 . S
C1733 C1732 1.385 . S
C1734 C1732 1.478 1_545 S
C1734 C1736 1.381 . S
C1734 C1740 1.383 1_545 S
C1735 C1731 1.495 1_545 S
C1735 H1741 0.959 . S
C1735 H1742 0.961 . S
C1735 H1743 0.960 . S
C1736 C1734 1.381 . S
C1736 C1737 1.394 . S
C1736 H1744 0.930 . S
C1737 C1736 1.394 . S
C1737 C1738 1.383 . S
C1737 H1745 0.929 . S
C1738 C1737 1.383 . S
C1738 C1739 1.377 . S
C1739 H1723 0.930 . S
C1739 C1738 1.377 . S
C1739 C1740 1.379 1_545 S
C1740 H1724 0.931 . S
C1740 C1734 1.383 1_565 S
C1740 C1739 1.379 1_565 S
H1741 C1735 0.959 . S
H1742 C1735 0.961 . S
H1743 C1735 0.960 . S
H1744 C1736 0.930 . S
H1745 C1737 0.929 . S
H1746 C1754 0.929 . S
H1747 C1756 0.930 . S
H1748 C1758 0.930 . S
H1749 C1761 0.929 . S
H1750 C1764 0.930 . S
H1751 C1766 0.960 . S
H1752 C1766 0.960 . S
H1753 C1766 0.960 . S
C1754 H1746 0.929 . S
C1754 C1755 1.377 . S
C1754 C1756 1.384 . S
C1755 C1754 1.377 . S
C1755 C1761 1.390 . S
C1756 H1747 0.930 . S
C1756 C1754 1.384 . S
C1756 C1757 1.372 . S
C1757 C1756 1.372 . S
C1757 C1758 1.400 . S
C1757 C1762 1.490 . S
C1758 H1748 0.930 . S
C1758 C1757 1.400 . S
C1758 C1761 1.386 . S
H1759 C1775 0.930 . S
H1760 C1776 0.931 . S
C1761 H1749 0.929 . S
C1761 C1755 1.390 . S
C1761 C1758 1.386 . S
C1762 C1757 1.490 . S
C1762 C1764 1.395 . S
C1762 C1765 1.403 . S
H1763 C1769 0.930 . S
C1764 H1750 0.930 . S
C1764 C1762 1.395 . S
C1764 C1767 1.403 . S
C1765 C1762 1.403 . S
C1765 C1766 1.524 . S
C1765 C1769 1.400 . S
C1766 H1751 0.960 . S
C1766 H1752 0.960 . S
C1766 H1753 0.960 . S
C1766 C1765 1.524 . S
C1767 C1764 1.403 . S
C1767 C1768 1.392 . S
C1767 C1771 1.495 . S
C1768 C1767 1.392 . S
C1768 C1769 1.385 . S
C1768 C1770 1.478 . S
C1769 H1763 0.930 . S
C1769 C1765 1.400 . S
C1769 C1768 1.385 . S
C1770 C1768 1.478 . S
C1770 C1772 1.381 . S
C1770 C1776 1.383 . S
C1771 C1767 1.495 . S
C1771 H1777 0.959 . S
C1771 H1778 0.961 . S
C1771 H1779 0.960 . S
C1772 C1770 1.381 . S
C1772 C1773 1.394 . S
C1772 H1780 0.930 . S
C1773 C1772 1.394 . S
C1773 C1774 1.383 . S
C1773 H1781 0.929 . S
C1774 C1773 1.383 . S
C1774 C1775 1.377 . S
C1775 H1759 0.930 . S
C1775 C1774 1.377 . S
C1775 C1776 1.379 . S
C1776 H1760 0.931 . S
C1776 C1770 1.383 . S
C1776 C1775 1.379 . S
H1777 C1771 0.959 . S
H1778 C1771 0.961 . S
H1779 C1771 0.960 . S
H1780 C1772 0.930 . S
H1781 C1773 0.929 . S
H1782 C1790 0.929 . S
H1783 C1792 0.930 . S
H1784 C1794 0.930 . S
H1785 C1797 0.929 . S
H1786 C1800 0.930 . S
H1787 C1802 0.960 . S
H1788 C1802 0.960 . S
H1789 C1802 0.960 . S
C1790 H1782 0.929 . S
C1790 C1791 1.377 . S
C1790 C1792 1.384 . S
C1791 C1790 1.377 . S
C1791 C1797 1.390 . S
C1792 H1783 0.930 . S
C1792 C1790 1.384 . S
C1792 C1793 1.372 . S
C1793 C1792 1.372 . S
C1793 C1794 1.400 . S
C1793 C1798 1.490 . S
C1794 H1784 0.930 . S
C1794 C1793 1.400 . S
C1794 C1797 1.386 . S
H1795 C1811 0.930 . S
H1796 C1812 0.931 . S
C1797 H1785 0.929 . S
C1797 C1791 1.390 . S
C1797 C1794 1.386 . S
C1798 C1793 1.490 . S
C1798 C1800 1.395 . S
C1798 C1801 1.403 . S
H1799 C1805 0.930 . S
C1800 H1786 0.930 . S
C1800 C1798 1.395 . S
C1800 C1803 1.403 . S
C1801 C1798 1.403 . S
C1801 C1802 1.524 . S
C1801 C1805 1.400 . S
C1802 H1787 0.960 . S
C1802 H1788 0.960 . S
C1802 H1789 0.960 . S
C1802 C1801 1.524 . S
C1803 C1800 1.403 . S
C1803 C1804 1.392 . S
C1803 C1807 1.495 . S
C1804 C1803 1.392 . S
C1804 C1805 1.385 . S
C1804 C1806 1.478 . S
C1805 H1799 0.930 . S
C1805 C1801 1.400 . S
C1805 C1804 1.385 . S
C1806 C1804 1.478 . S
C1806 C1808 1.381 . S
C1806 C1812 1.383 . S
C1807 C1803 1.495 . S
C1807 H1813 0.959 . S
C1807 H1814 0.961 . S
C1807 H1815 0.960 . S
C1808 C1806 1.381 . S
C1808 C1809 1.394 . S
C1808 H1816 0.930 . S
C1809 C1808 1.394 . S
C1809 C1810 1.383 . S
C1809 H1817 0.929 . S
C1810 C1809 1.383 . S
C1810 C1811 1.377 . S
C1811 H1795 0.930 . S
C1811 C1810 1.377 . S
C1811 C1812 1.379 . S
C1812 H1796 0.931 . S
C1812 C1806 1.383 . S
C1812 C1811 1.379 . S
H1813 C1807 0.959 . S
H1814 C1807 0.961 . S
H1815 C1807 0.960 . S
H1816 C1808 0.930 . S
H1817 C1809 0.929 . S
H1818 C1826 0.929 . S
H1819 C1828 0.930 . S
H1820 C1830 0.930 . S
H1821 C1833 0.929 . S
H1822 C1836 0.930 . S
H1823 C1838 0.960 . S
H1824 C1838 0.960 . S
H1825 C1838 0.960 . S
C1826 H1818 0.929 . S
C1826 C1827 1.377 . S
C1826 C1828 1.384 . S
C1827 C1826 1.377 . S
C1827 C1833 1.390 . S
C1828 H1819 0.930 . S
C1828 C1826 1.384 . S
C1828 C1829 1.372 . S
C1829 C1828 1.372 . S
C1829 C1830 1.400 . S
C1829 C1834 1.490 . S
C1830 H1820 0.930 . S
C1830 C1829 1.400 . S
C1830 C1833 1.386 . S
H1831 C1847 0.930 . S
H1832 C1848 0.931 . S
C1833 H1821 0.929 . S
C1833 C1827 1.390 . S
C1833 C1830 1.386 . S
C1834 C1829 1.490 . S
C1834 C1836 1.395 . S
C1834 C1837 1.403 . S
H1835 C1841 0.930 . S
C1836 H1822 0.930 . S
C1836 C1834 1.395 . S
C1836 C1839 1.403 . S
C1837 C1834 1.403 . S
C1837 C1838 1.524 . S
C1837 C1841 1.400 . S
C1838 H1823 0.960 . S
C1838 H1824 0.960 . S
C1838 H1825 0.960 . S
C1838 C1837 1.524 . S
C1839 C1836 1.403 . S
C1839 C1840 1.392 . S
C1839 C1843 1.495 . S
C1840 C1839 1.392 . S
C1840 C1841 1.385 . S
C1840 C1842 1.478 . S
C1841 H1835 0.930 . S
C1841 C1837 1.400 . S
C1841 C1840 1.385 . S
C1842 C1840 1.478 . S
C1842 C1844 1.381 . S
C1842 C1848 1.383 . S
C1843 C1839 1.495 . S
C1843 H1849 0.959 . S
C1843 H1850 0.961 . S
C1843 H1851 0.960 . S
C1844 C1842 1.381 . S
C1844 C1845 1.394 . S
C1844 H1852 0.930 . S
C1845 C1844 1.394 . S
C1845 C1846 1.383 . S
C1845 H1853 0.929 . S
C1846 C1845 1.383 . S
C1846 C1847 1.377 . S
C1847 H1831 0.930 . S
C1847 C1846 1.377 . S
C1847 C1848 1.379 . S
C1848 H1832 0.931 . S
C1848 C1842 1.383 . S
C1848 C1847 1.379 . S
H1849 C1843 0.959 . S
H1850 C1843 0.961 . S
H1851 C1843 0.960 . S
H1852 C1844 0.930 . S
H1853 C1845 0.929 . S
H1854 C1862 0.929 . S
H1855 C1864 0.930 . S
H1856 C1866 0.930 . S
H1857 C1869 0.929 . S
H1858 C1872 0.930 . S
H1859 C1874 0.960 . S
H1860 C1874 0.960 . S
H1861 C1874 0.960 . S
C1862 H1854 0.929 . S
C1862 C1863 1.377 . S
C1862 C1864 1.384 . S
C1863 C1862 1.377 . S
C1863 C1869 1.390 . S
C1864 H1855 0.930 . S
C1864 C1862 1.384 . S
C1864 C1865 1.372 . S
C1865 C1864 1.372 . S
C1865 C1866 1.400 . S
C1865 C1870 1.490 . S
C1866 H1856 0.930 . S
C1866 C1865 1.400 . S
C1866 C1869 1.386 . S
H1867 C1883 0.930 . S
H1868 C1884 0.931 . S
C1869 H1857 0.929 . S
C1869 C1863 1.390 . S
C1869 C1866 1.386 . S
C1870 C1865 1.490 . S
C1870 C1872 1.395 . S
C1870 C1873 1.403 . S
H1871 C1877 0.950 . S
C1872 H1858 0.930 . S
C1872 C1870 1.395 . S
C1872 C1875 1.403 1_565 S
C1873 C1870 1.403 . S
C1873 C1874 1.524 . S
C1873 C1877 1.337 1_565 S
C1874 H1859 0.960 . S
C1874 H1860 0.960 . S
C1874 H1861 0.960 . S
C1874 C1873 1.524 . S
C1875 C1872 1.403 1_545 S
C1875 C1876 1.392 . S
C1875 C1879 1.495 . S
C1876 C1875 1.392 . S
C1876 C1877 1.431 . S
C1876 C1878 1.478 . S
C1877 H1871 0.950 . S
C1877 C1873 1.337 1_545 S
C1877 C1876 1.431 . S
C1878 C1876 1.478 . S
C1878 C1880 1.381 . S
C1878 C1884 1.383 . S
C1879 C1875 1.495 . S
C1879 H1885 0.959 . S
C1879 H1886 0.961 . S
C1879 H1887 0.960 . S
C1880 C1878 1.381 . S
C1880 C1881 1.394 . S
C1880 H1888 0.930 . S
C1881 C1880 1.394 . S
C1881 C1882 1.383 . S
C1881 H1889 0.929 . S
C1882 C1881 1.383 . S
C1882 C1883 1.377 . S
C1883 H1867 0.930 . S
C1883 C1882 1.377 . S
C1883 C1884 1.379 . S
C1884 H1868 0.931 . S
C1884 C1878 1.383 . S
C1884 C1883 1.379 . S
H1885 C1879 0.959 . S
H1886 C1879 0.961 . S
H1887 C1879 0.960 . S
H1888 C1880 0.930 . S
H1889 C1881 0.929 . S
H1890 C1898 0.929 . S
H1891 C1900 0.930 . S
H1892 C1902 0.930 . S
H1893 C1905 0.929 . S
H1894 C1908 0.930 . S
H1895 C1910 0.960 . S
H1896 C1910 0.960 . S
H1897 C1910 0.960 . S
C1898 H1890 0.929 . S
C1898 C1899 1.377 . S
C1898 C1900 1.384 . S
C1899 C1898 1.377 . S
C1899 C1905 1.390 . S
C1900 H1891 0.930 . S
C1900 C1898 1.384 . S
C1900 C1901 1.372 . S
C1901 C1900 1.372 . S
C1901 C1902 1.400 . S
C1901 C1906 1.490 . S
C1902 H1892 0.930 . S
C1902 C1901 1.400 . S
C1902 C1905 1.386 . S
H1903 C1919 0.930 . S
H1904 C1920 0.931 . S
C1905 H1893 0.929 . S
C1905 C1899 1.390 . S
C1905 C1902 1.386 . S
C1906 C1901 1.490 . S
C1906 C1908 1.395 . S
C1906 C1909 1.403 . S
H1907 C1913 0.930 . S
C1908 H1894 0.930 . S
C1908 C1906 1.395 . S
C1908 C1911 1.403 . S
C1909 C1906 1.403 . S
C1909 C1910 1.524 . S
C1909 C1913 1.400 . S
C1910 H1895 0.960 . S
C1910 H1896 0.960 . S
C1910 H1897 0.960 . S
C1910 C1909 1.524 . S
C1911 C1908 1.403 . S
C1911 C1912 1.392 . S
C1911 C1915 1.495 . S
C1912 C1911 1.392 . S
C1912 C1913 1.385 . S
C1912 C1914 1.478 . S
C1913 H1907 0.930 . S
C1913 C1909 1.400 . S
C1913 C1912 1.385 . S
C1914 C1912 1.478 . S
C1914 C1916 1.381 . S
C1914 C1920 1.383 . S
C1915 C1911 1.495 . S
C1915 H1921 0.959 . S
C1915 H1922 0.961 . S
C1915 H1923 0.960 . S
C1916 C1914 1.381 . S
C1916 C1917 1.394 . S
C1916 H1924 0.930 . S
C1917 C1916 1.394 . S
C1917 C1918 1.383 . S
C1917 H1925 0.929 . S
C1918 C1917 1.383 . S
C1918 C1919 1.377 . S
C1919 H1903 0.930 . S
C1919 C1918 1.377 . S
C1919 C1920 1.379 . S
C1920 H1904 0.931 . S
C1920 C1914 1.383 . S
C1920 C1919 1.379 . S
H1921 C1915 0.959 . S
H1922 C1915 0.961 . S
H1923 C1915 0.960 . S
H1924 C1916 0.930 . S
H1925 C1917 0.929 . S
H1926 C1934 0.929 . S
H1927 C1936 0.930 . S
H1928 C1938 0.930 . S
H1929 C1941 0.929 . S
H1930 C1944 0.930 . S
H1931 C1946 0.960 . S
H1932 C1946 0.960 . S
H1933 C1946 0.960 . S
C1934 H1926 0.929 . S
C1934 C1935 1.377 . S
C1934 C1936 1.384 . S
C1935 C1934 1.377 . S
C1935 C1941 1.390 . S
C1936 H1927 0.930 . S
C1936 C1934 1.384 . S
C1936 C1937 1.372 . S
C1937 C1936 1.372 . S
C1937 C1938 1.400 . S
C1937 C1942 1.490 . S
C1938 H1928 0.930 . S
C1938 C1937 1.400 . S
C1938 C1941 1.386 . S
H1939 C1955 0.930 . S
H1940 C1956 0.931 . S
C1941 H1929 0.929 . S
C1941 C1935 1.390 . S
C1941 C1938 1.386 . S
C1942 C1937 1.490 . S
C1942 C1944 1.395 . S
C1942 C1945 1.403 . S
H1943 C1949 0.930 . S
C1944 H1930 0.930 . S
C1944 C1942 1.395 . S
C1944 C1947 1.403 . S
C1945 C1942 1.403 . S
C1945 C1946 1.524 . S
C1945 C1949 1.400 . S
C1946 H1931 0.960 . S
C1946 H1932 0.960 . S
C1946 H1933 0.960 . S
C1946 C1945 1.524 . S
C1947 C1944 1.403 . S
C1947 C1948 1.392 . S
C1947 C1951 1.495 . S
C1948 C1947 1.392 . S
C1948 C1949 1.385 . S
C1948 C1950 1.478 . S
C1949 H1943 0.930 . S
C1949 C1945 1.400 . S
C1949 C1948 1.385 . S
C1950 C1948 1.478 . S
C1950 C1952 1.381 . S
C1950 C1956 1.383 . S
C1951 C1947 1.495 . S
C1951 H1957 0.959 . S
C1951 H1958 0.961 . S
C1951 H1959 0.960 . S
C1952 C1950 1.381 . S
C1952 C1953 1.394 . S
C1952 H1960 0.930 . S
C1953 C1952 1.394 . S
C1953 C1954 1.383 . S
C1953 H1961 0.929 . S
C1954 C1953 1.383 . S
C1954 C1955 1.377 . S
C1955 H1939 0.930 . S
C1955 C1954 1.377 . S
C1955 C1956 1.379 . S
C1956 H1940 0.931 . S
C1956 C1950 1.383 . S
C1956 C1955 1.379 . S
H1957 C1951 0.959 . S
H1958 C1951 0.961 . S
H1959 C1951 0.960 . S
H1960 C1952 0.930 . S
H1961 C1953 0.929 . S
H1962 C1970 0.929 . S
H1963 C1972 0.930 . S
H1964 C1974 0.930 . S
H1965 C1977 0.929 . S
H1966 C1980 0.930 . S
H1967 C1982 0.960 . S
H1968 C1982 0.960 . S
H1969 C1982 0.960 . S
C1970 H1962 0.929 . S
C1970 C1971 1.377 . S
C1970 C1972 1.384 . S
C1971 C1970 1.377 . S
C1971 C1977 1.390 . S
C1972 H1963 0.930 . S
C1972 C1970 1.384 . S
C1972 C1973 1.372 . S
C1973 C1972 1.372 . S
C1973 C1974 1.400 . S
C1973 C1978 1.490 . S
C1974 H1964 0.930 . S
C1974 C1973 1.400 . S
C1974 C1977 1.386 . S
H1975 C1991 0.930 . S
H1976 C1992 0.931 . S
C1977 H1965 0.929 . S
C1977 C1971 1.390 . S
C1977 C1974 1.386 . S
C1978 C1973 1.490 . S
C1978 C1980 1.395 . S
C1978 C1981 1.403 . S
H1979 C1985 0.930 . S
C1980 H1966 0.930 . S
C1980 C1978 1.395 . S
C1980 C1983 1.403 . S
C1981 C1978 1.403 . S
C1981 C1982 1.524 . S
C1981 C1985 1.400 . S
C1982 H1967 0.960 . S
C1982 H1968 0.960 . S
C1982 H1969 0.960 . S
C1982 C1981 1.524 . S
C1983 C1980 1.403 . S
C1983 C1984 1.392 . S
C1983 C1987 1.495 . S
C1984 C1983 1.392 . S
C1984 C1985 1.385 . S
C1984 C1986 1.478 . S
C1985 H1979 0.930 . S
C1985 C1981 1.400 . S
C1985 C1984 1.385 . S
C1986 C1984 1.478 . S
C1986 C1988 1.381 . S
C1986 C1992 1.383 . S
C1987 C1983 1.495 . S
C1987 H1993 0.959 . S
C1987 H1994 0.961 . S
C1987 H1995 0.960 . S
C1988 C1986 1.381 . S
C1988 C1989 1.394 . S
C1988 H1996 0.930 . S
C1989 C1988 1.394 . S
C1989 C1990 1.383 . S
C1989 H1997 0.929 . S
C1990 C1989 1.383 . S
C1990 C1991 1.377 . S
C1991 H1975 0.930 . S
C1991 C1990 1.377 . S
C1991 C1992 1.379 . S
C1992 H1976 0.931 . S
C1992 C1986 1.383 . S
C1992 C1991 1.379 . S
H1993 C1987 0.959 . S
H1994 C1987 0.961 . S
H1995 C1987 0.960 . S
H1996 C1988 0.930 . S
H1997 C1989 0.929 . S
H1998 C2006 0.929 . S
H1999 C2008 0.930 . S
H2000 C2010 0.930 . S
H2001 C2013 0.929 . S
H2002 C2016 0.930 . S
H2003 C2018 0.960 . S
H2004 C2018 0.960 . S
H2005 C2018 0.960 . S
C2006 H1998 0.929 . S
C2006 C2007 1.377 . S
C2006 C2008 1.384 . S
C2007 C2006 1.377 . S
C2007 C2013 1.390 . S
C2008 H1999 0.930 . S
C2008 C2006 1.384 . S
C2008 C2009 1.372 . S
C2009 C2008 1.372 . S
C2009 C2010 1.400 . S
C2009 C2014 1.490 . S
C2010 H2000 0.930 . S
C2010 C2009 1.400 . S
C2010 C2013 1.386 . S
H2011 C2027 0.930 . S
H2012 C2028 0.931 . S
C2013 H2001 0.929 . S
C2013 C2007 1.390 . S
C2013 C2010 1.386 . S
C2014 C2009 1.490 . S
C2014 C2016 1.395 . S
C2014 C2017 1.403 . S
H2015 C2021 0.930 . S
C2016 H2002 0.930 . S
C2016 C2014 1.395 . S
C2016 C2019 1.403 . S
C2017 C2014 1.403 . S
C2017 C2018 1.524 . S
C2017 C2021 1.400 . S
C2018 H2003 0.960 . S
C2018 H2004 0.960 . S
C2018 H2005 0.960 . S
C2018 C2017 1.524 . S
C2019 C2016 1.403 . S
C2019 C2020 1.392 . S
C2019 C2023 1.495 . S
C2020 C2019 1.392 . S
C2020 C2021 1.385 . S
C2020 C2022 1.478 . S
C2021 H2015 0.930 . S
C2021 C2017 1.400 . S
C2021 C2020 1.385 . S
C2022 C2020 1.478 . S
C2022 C2024 1.381 . S
C2022 C2028 1.383 . S
C2023 C2019 1.495 . S
C2023 H2029 0.959 . S
C2023 H2030 0.961 . S
C2023 H2031 0.960 . S
C2024 C2022 1.381 . S
C2024 C2025 1.394 . S
C2024 H2032 0.930 . S
C2025 C2024 1.394 . S
C2025 C2026 1.383 . S
C2025 H2033 0.929 . S
C2026 C2025 1.383 . S
C2026 C2027 1.377 . S
C2027 H2011 0.930 . S
C2027 C2026 1.377 . S
C2027 C2028 1.379 . S
C2028 H2012 0.931 . S
C2028 C2022 1.383 . S
C2028 C2027 1.379 . S
H2029 C2023 0.959 . S
H2030 C2023 0.961 . S
H2031 C2023 0.960 . S
H2032 C2024 0.930 . S
H2033 C2025 0.929 . S
H2034 C2042 0.929 . S
H2035 C2044 0.930 . S
H2036 C2046 0.930 . S
H2037 C2049 0.929 . S
H2038 C2052 0.930 . S
H2039 C2054 0.960 . S
H2040 C2054 0.960 . S
H2041 C2054 0.960 . S
C2042 H2034 0.929 . S
C2042 C2043 1.377 . S
C2042 C2044 1.384 . S
C2043 C2042 1.377 . S
C2043 C2049 1.390 . S
C2044 H2035 0.930 . S
C2044 C2042 1.384 . S
C2044 C2045 1.372 . S
C2045 C2044 1.372 . S
C2045 C2046 1.400 . S
C2045 C2050 1.490 . S
C2046 H2036 0.930 . S
C2046 C2045 1.400 . S
C2046 C2049 1.386 . S
H2047 C2063 0.930 . S
H2048 C2064 0.931 . S
C2049 H2037 0.929 . S
C2049 C2043 1.390 . S
C2049 C2046 1.386 . S
C2050 C2045 1.490 . S
C2050 C2052 1.395 . S
C2050 C2053 1.403 . S
H2051 C2057 0.930 . S
C2052 H2038 0.930 . S
C2052 C2050 1.395 . S
C2052 C2055 1.403 . S
C2053 C2050 1.403 . S
C2053 C2054 1.524 . S
C2053 C2057 1.400 . S
C2054 H2039 0.960 . S
C2054 H2040 0.960 . S
C2054 H2041 0.960 . S
C2054 C2053 1.524 . S
C2055 C2052 1.403 . S
C2055 C2056 1.392 . S
C2055 C2059 1.495 . S
C2056 C2055 1.392 . S
C2056 C2057 1.385 . S
C2056 C2058 1.478 . S
C2057 H2051 0.930 . S
C2057 C2053 1.400 . S
C2057 C2056 1.385 . S
C2058 C2056 1.478 . S
C2058 C2060 1.381 . S
C2058 C2064 1.383 . S
C2059 C2055 1.495 . S
C2059 H2065 0.959 . S
C2059 H2066 0.961 . S
C2059 H2067 0.960 . S
C2060 C2058 1.381 . S
C2060 C2061 1.394 . S
C2060 H2068 0.930 . S
C2061 C2060 1.394 . S
C2061 C2062 1.383 . S
C2061 H2069 0.929 . S
C2062 C2061 1.383 . S
C2062 C2063 1.377 . S
C2063 H2047 0.930 . S
C2063 C2062 1.377 . S
C2063 C2064 1.379 . S
C2064 H2048 0.931 . S
C2064 C2058 1.383 . S
C2064 C2063 1.379 . S
H2065 C2059 0.959 . S
H2066 C2059 0.961 . S
H2067 C2059 0.960 . S
H2068 C2060 0.930 . S
H2069 C2061 0.929 . S
H2070 C2078 0.929 . S
H2071 C2080 0.930 . S
H2072 C2082 0.930 . S
H2073 C2085 0.929 . S
H2074 C2088 0.930 . S
H2075 C2090 0.960 . S
H2076 C2090 0.960 . S
H2077 C2090 0.960 . S
C2078 H2070 0.929 . S
C2078 C2079 1.377 . S
C2078 C2080 1.384 . S
C2079 C2078 1.377 . S
C2079 C2085 1.390 . S
C2080 H2071 0.930 . S
C2080 C2078 1.384 . S
C2080 C2081 1.372 . S
C2081 C2080 1.372 . S
C2081 C2082 1.400 . S
C2081 C2086 1.490 . S
C2082 H2072 0.930 . S
C2082 C2081 1.400 . S
C2082 C2085 1.386 . S
H2083 C2099 0.930 . S
H2084 C2100 0.931 . S
C2085 H2073 0.929 . S
C2085 C2079 1.390 . S
C2085 C2082 1.386 . S
C2086 C2081 1.490 . S
C2086 C2088 1.395 . S
C2086 C2089 1.403 . S
H2087 C2093 0.930 . S
C2088 H2074 0.930 . S
C2088 C2086 1.395 . S
C2088 C2091 1.403 . S
C2089 C2086 1.403 . S
C2089 C2090 1.524 . S
C2089 C2093 1.400 . S
C2090 H2075 0.960 . S
C2090 H2076 0.960 . S
C2090 H2077 0.960 . S
C2090 C2089 1.524 . S
C2091 C2088 1.403 . S
C2091 C2092 1.392 . S
C2091 C2095 1.495 . S
C2092 C2091 1.392 . S
C2092 C2093 1.385 . S
C2092 C2094 1.478 . S
C2093 H2087 0.930 . S
C2093 C2089 1.400 . S
C2093 C2092 1.385 . S
C2094 C2092 1.478 . S
C2094 C2096 1.381 . S
C2094 C2100 1.383 . S
C2095 C2091 1.495 . S
C2095 H2101 0.959 . S
C2095 H2102 0.961 . S
C2095 H2103 0.960 . S
C2096 C2094 1.381 . S
C2096 C2097 1.394 . S
C2096 H2104 0.930 . S
C2097 C2096 1.394 . S
C2097 C2098 1.383 . S
C2097 H2105 0.929 . S
C2098 C2097 1.383 . S
C2098 C2099 1.377 . S
C2099 H2083 0.930 . S
C2099 C2098 1.377 . S
C2099 C2100 1.379 . S
C2100 H2084 0.931 . S
C2100 C2094 1.383 . S
C2100 C2099 1.379 . S
H2101 C2095 0.959 . S
H2102 C2095 0.961 . S
H2103 C2095 0.960 . S
H2104 C2096 0.930 . S
H2105 C2097 0.929 . S
H2106 C2114 0.929 . S
H2107 C2116 0.930 . S
H2108 C2118 0.930 . S
H2109 C2121 0.929 . S
H2110 C2124 0.930 . S
H2111 C2126 0.960 . S
H2112 C2126 0.960 . S
H2113 C2126 0.960 . S
C2114 H2106 0.929 . S
C2114 C2115 1.377 . S
C2114 C2116 1.384 . S
C2115 C2114 1.377 . S
C2115 C2121 1.390 . S
C2116 H2107 0.930 . S
C2116 C2114 1.384 . S
C2116 C2117 1.372 . S
C2117 C2116 1.372 . S
C2117 C2118 1.400 . S
C2117 C2122 1.490 . S
C2118 H2108 0.930 . S
C2118 C2117 1.400 . S
C2118 C2121 1.386 . S
H2119 C2135 0.930 . S
H2120 C2136 0.931 . S
C2121 H2109 0.929 . S
C2121 C2115 1.390 . S
C2121 C2118 1.386 . S
C2122 C2117 1.490 . S
C2122 C2124 1.395 . S
C2122 C2125 1.403 . S
H2123 C2129 0.930 . S
C2124 H2110 0.930 . S
C2124 C2122 1.395 . S
C2124 C2127 1.403 . S
C2125 C2122 1.403 . S
C2125 C2126 1.524 . S
C2125 C2129 1.400 . S
C2126 H2111 0.960 . S
C2126 H2112 0.960 . S
C2126 H2113 0.960 . S
C2126 C2125 1.524 . S
C2127 C2124 1.403 . S
C2127 C2128 1.392 . S
C2127 C2131 1.495 . S
C2128 C2127 1.392 . S
C2128 C2129 1.385 . S
C2128 C2130 1.478 . S
C2129 H2123 0.930 . S
C2129 C2125 1.400 . S
C2129 C2128 1.385 . S
C2130 C2128 1.478 . S
C2130 C2132 1.381 . S
C2130 C2136 1.383 . S
C2131 C2127 1.495 . S
C2131 H2137 0.959 . S
C2131 H2138 0.961 . S
C2131 H2139 0.960 . S
C2132 C2130 1.381 . S
C2132 C2133 1.394 1_655 S
C2132 H2140 0.930 . S
C2133 C2132 1.394 1_455 S
C2133 C2134 1.383 . S
C2133 H2141 0.929 . S
C2134 C2133 1.383 . S
C2134 C2135 1.377 . S
C2135 H2119 0.930 . S
C2135 C2134 1.377 . S
C2135 C2136 1.379 1_455 S
C2136 H2120 0.931 . S
C2136 C2130 1.383 . S
C2136 C2135 1.379 1_655 S
H2137 C2131 0.959 . S
H2138 C2131 0.961 . S
H2139 C2131 0.960 . S
H2140 C2132 0.930 . S
H2141 C2133 0.929 . S
H2142 C2150 0.929 . S
H2143 C2152 0.930 . S
H2144 C2154 0.930 . S
H2145 C2157 0.929 . S
H2146 C2160 0.930 . S
H2147 C2162 0.960 . S
H2148 C2162 0.960 . S
H2149 C2162 0.960 . S
C2150 H2142 0.929 . S
C2150 C2151 1.377 . S
C2150 C2152 1.384 . S
C2151 C2150 1.377 . S
C2151 C2157 1.390 . S
C2152 H2143 0.930 . S
C2152 C2150 1.384 . S
C2152 C2153 1.372 . S
C2153 C2152 1.372 . S
C2153 C2154 1.400 . S
C2153 C2158 1.490 . S
C2154 H2144 0.930 . S
C2154 C2153 1.400 . S
C2154 C2157 1.386 . S
H2155 C2171 0.930 . S
H2156 C2172 0.931 . S
C2157 H2145 0.929 . S
C2157 C2151 1.390 . S
C2157 C2154 1.386 . S
C2158 C2153 1.490 . S
C2158 C2160 1.395 . S
C2158 C2161 1.403 . S
H2159 C2165 0.930 . S
C2160 H2146 0.930 . S
C2160 C2158 1.395 . S
C2160 C2163 1.403 . S
C2161 C2158 1.403 . S
C2161 C2162 1.524 . S
C2161 C2165 1.400 . S
C2162 H2147 0.960 . S
C2162 H2148 0.960 . S
C2162 H2149 0.960 . S
C2162 C2161 1.524 . S
C2163 C2160 1.403 . S
C2163 C2164 1.392 . S
C2163 C2167 1.495 . S
C2164 C2163 1.392 . S
C2164 C2165 1.385 . S
C2164 C2166 1.478 . S
C2165 H2159 0.930 . S
C2165 C2161 1.400 . S
C2165 C2164 1.385 . S
C2166 C2164 1.478 . S
C2166 C2168 1.381 . S
C2166 C2172 1.383 . S
C2167 C2163 1.495 . S
C2167 H2173 0.959 . S
C2167 H2174 0.961 . S
C2167 H2175 0.960 . S
C2168 C2166 1.381 . S
C2168 C2169 1.394 . S
C2168 H2176 0.930 . S
C2169 C2168 1.394 . S
C2169 C2170 1.383 . S
C2169 H2177 0.929 . S
C2170 C2169 1.383 . S
C2170 C2171 1.377 . S
C2171 H2155 0.930 . S
C2171 C2170 1.377 . S
C2171 C2172 1.379 . S
C2172 H2156 0.931 . S
C2172 C2166 1.383 . S
C2172 C2171 1.379 . S
H2173 C2167 0.959 . S
H2174 C2167 0.961 . S
H2175 C2167 0.960 . S
H2176 C2168 0.930 . S
H2177 C2169 0.929 . S
H2178 C2186 0.929 . S
H2179 C2188 0.930 . S
H2180 C2190 0.930 . S
H2181 C2193 0.929 . S
H2182 C2196 0.930 . S
H2183 C2198 0.960 . S
H2184 C2198 0.960 . S
H2185 C2198 0.960 . S
C2186 H2178 0.929 . S
C2186 C2187 1.377 . S
C2186 C2188 1.384 . S
C2187 C2186 1.377 . S
C2187 C2193 1.390 . S
C2188 H2179 0.930 . S
C2188 C2186 1.384 . S
C2188 C2189 1.372 . S
C2189 C2188 1.372 . S
C2189 C2190 1.400 . S
C2189 C2194 1.490 . S
C2190 H2180 0.930 . S
C2190 C2189 1.400 . S
C2190 C2193 1.386 . S
H2191 C2207 0.930 . S
H2192 C2208 0.931 . S
C2193 H2181 0.929 . S
C2193 C2187 1.390 . S
C2193 C2190 1.386 . S
C2194 C2189 1.490 . S
C2194 C2196 1.395 . S
C2194 C2197 1.403 . S
H2195 C2201 0.930 . S
C2196 H2182 0.930 . S
C2196 C2194 1.395 . S
C2196 C2199 1.403 . S
C2197 C2194 1.403 . S
C2197 C2198 1.524 . S
C2197 C2201 1.400 . S
C2198 H2183 0.960 . S
C2198 H2184 0.960 . S
C2198 H2185 0.960 . S
C2198 C2197 1.524 . S
C2199 C2196 1.403 . S
C2199 C2200 1.392 . S
C2199 C2203 1.495 . S
C2200 C2199 1.392 . S
C2200 C2201 1.385 . S
C2200 C2202 1.478 . S
C2201 H2195 0.930 . S
C2201 C2197 1.400 . S
C2201 C2200 1.385 . S
C2202 C2200 1.478 . S
C2202 C2204 1.381 . S
C2202 C2208 1.383 . S
C2203 C2199 1.495 . S
C2203 H2209 0.959 . S
C2203 H2210 0.961 . S
C2203 H2211 0.960 . S
C2204 C2202 1.381 . S
C2204 C2205 1.394 . S
C2204 H2212 0.930 . S
C2205 C2204 1.394 . S
C2205 C2206 1.383 . S
C2205 H2213 0.929 . S
C2206 C2205 1.383 . S
C2206 C2207 1.377 . S
C2207 H2191 0.930 . S
C2207 C2206 1.377 . S
C2207 C2208 1.379 . S
C2208 H2192 0.931 . S
C2208 C2202 1.383 . S
C2208 C2207 1.379 . S
H2209 C2203 0.959 . S
H2210 C2203 0.961 . S
H2211 C2203 0.960 . S
H2212 C2204 0.930 . S
H2213 C2205 0.929 . S
H2214 C2222 0.929 . S
H2215 C2224 0.930 . S
H2216 C2226 0.930 . S
H2217 C2229 0.929 . S
H2218 C2232 0.930 . S
H2219 C2234 0.960 . S
H2220 C2234 0.960 . S
H2221 C2234 0.960 . S
C2222 H2214 0.929 . S
C2222 C2223 1.377 . S
C2222 C2224 1.384 . S
C2223 C2222 1.377 . S
C2223 C2229 1.390 . S
C2224 H2215 0.930 . S
C2224 C2222 1.384 . S
C2224 C2225 1.372 . S
C2225 C2224 1.372 . S
C2225 C2226 1.400 . S
C2225 C2230 1.490 . S
C2226 H2216 0.930 . S
C2226 C2225 1.400 . S
C2226 C2229 1.386 . S
H2227 C2243 0.930 . S
H2228 C2244 0.931 . S
C2229 H2217 0.929 . S
C2229 C2223 1.390 . S
C2229 C2226 1.386 . S
C2230 C2225 1.490 . S
C2230 C2232 1.395 . S
C2230 C2233 1.403 . S
H2231 C2237 0.930 . S
C2232 H2218 0.930 . S
C2232 C2230 1.395 . S
C2232 C2235 1.403 . S
C2233 C2230 1.403 . S
C2233 C2234 1.524 . S
C2233 C2237 1.400 . S
C2234 H2219 0.960 . S
C2234 H2220 0.960 . S
C2234 H2221 0.960 . S
C2234 C2233 1.524 . S
C2235 C2232 1.403 . S
C2235 C2236 1.392 . S
C2235 C2239 1.495 . S
C2236 C2235 1.392 . S
C2236 C2237 1.385 . S
C2236 C2238 1.478 . S
C2237 H2231 0.930 . S
C2237 C2233 1.400 . S
C2237 C2236 1.385 . S
C2238 C2236 1.478 . S
C2238 C2240 1.381 . S
C2238 C2244 1.383 . S
C2239 C2235 1.495 . S
C2239 H2245 0.959 . S
C2239 H2246 0.961 . S
C2239 H2247 0.960 . S
C2240 C2238 1.381 . S
C2240 C2241 1.394 1_655 S
C2240 H2248 0.930 . S
C2241 C2240 1.394 1_455 S
C2241 C2242 1.383 . S
C2241 H2249 0.929 . S
C2242 C2241 1.383 . S
C2242 C2243 1.377 . S
C2243 H2227 0.930 . S
C2243 C2242 1.377 . S
C2243 C2244 1.379 1_455 S
C2244 H2228 0.931 . S
C2244 C2238 1.383 . S
C2244 C2243 1.379 1_655 S
H2245 C2239 0.959 . S
H2246 C2239 0.961 . S
H2247 C2239 0.960 . S
H2248 C2240 0.930 . S
H2249 C2241 0.929 . S
H2250 C2258 0.929 . S
H2251 C2260 0.930 . S
H2252 C2262 0.930 . S
H2253 C2265 0.929 . S
H2254 C2268 0.930 . S
H2255 C2270 0.960 . S
H2256 C2270 0.960 . S
H2257 C2270 0.960 . S
C2258 H2250 0.929 . S
C2258 C2259 1.377 . S
C2258 C2260 1.384 . S
C2259 C2258 1.377 . S
C2259 C2265 1.390 . S
C2260 H2251 0.930 . S
C2260 C2258 1.384 . S
C2260 C2261 1.372 . S
C2261 C2260 1.372 . S
C2261 C2262 1.400 . S
C2261 C2266 1.490 . S
C2262 H2252 0.930 . S
C2262 C2261 1.400 . S
C2262 C2265 1.386 . S
H2263 C2279 0.930 . S
H2264 C2280 0.931 . S
C2265 H2253 0.929 . S
C2265 C2259 1.390 . S
C2265 C2262 1.386 . S
C2266 C2261 1.490 . S
C2266 C2268 1.395 . S
C2266 C2269 1.403 . S
H2267 C2273 0.930 . S
C2268 H2254 0.930 . S
C2268 C2266 1.395 . S
C2268 C2271 1.403 . S
C2269 C2266 1.403 . S
C2269 C2270 1.524 . S
C2269 C2273 1.400 . S
C2270 H2255 0.960 . S
C2270 H2256 0.960 . S
C2270 H2257 0.960 . S
C2270 C2269 1.524 . S
C2271 C2268 1.403 . S
C2271 C2272 1.392 . S
C2271 C2275 1.495 . S
C2272 C2271 1.392 . S
C2272 C2273 1.385 . S
C2272 C2274 1.478 . S
C2273 H2267 0.930 . S
C2273 C2269 1.400 . S
C2273 C2272 1.385 . S
C2274 C2272 1.478 . S
C2274 C2276 1.381 . S
C2274 C2280 1.383 . S
C2275 C2271 1.495 . S
C2275 H2281 0.959 . S
C2275 H2282 0.961 . S
C2275 H2283 0.960 . S
C2276 C2274 1.381 . S
C2276 C2277 1.394 . S
C2276 H2284 0.930 . S
C2277 C2276 1.394 . S
C2277 C2278 1.383 . S
C2277 H2285 0.929 . S
C2278 C2277 1.383 . S
C2278 C2279 1.377 . S
C2279 H2263 0.930 . S
C2279 C2278 1.377 . S
C2279 C2280 1.379 . S
C2280 H2264 0.931 . S
C2280 C2274 1.383 . S
C2280 C2279 1.379 . S
H2281 C2275 0.959 . S
H2282 C2275 0.961 . S
H2283 C2275 0.960 . S
H2284 C2276 0.930 . S
H2285 C2277 0.929 . S
H2286 C2294 0.929 . S
H2287 C2296 0.930 . S
H2288 C2298 0.930 . S
H2289 C2301 0.929 . S
H2290 C2304 0.930 . S
H2291 C2306 0.960 . S
H2292 C2306 0.960 . S
H2293 C2306 0.960 . S
C2294 H2286 0.929 . S
C2294 C2295 1.377 . S
C2294 C2296 1.384 . S
C2295 C2294 1.377 . S
C2295 C2301 1.390 . S
C2296 H2287 0.930 . S
C2296 C2294 1.384 . S
C2296 C2297 1.372 . S
C2297 C2296 1.372 . S
C2297 C2298 1.400 . S
C2297 C2302 1.490 . S
C2298 H2288 0.930 . S
C2298 C2297 1.400 . S
C2298 C2301 1.386 . S
H2299 C2315 0.930 . S
H2300 C2316 0.931 . S
C2301 H2289 0.929 . S
C2301 C2295 1.390 . S
C2301 C2298 1.386 . S
C2302 C2297 1.490 . S
C2302 C2304 1.395 . S
C2302 C2305 1.403 . S
H2303 C2309 0.930 . S
C2304 H2290 0.930 . S
C2304 C2302 1.395 . S
C2304 C2307 1.403 . S
C2305 C2302 1.403 . S
C2305 C2306 1.524 . S
C2305 C2309 1.400 . S
C2306 H2291 0.960 . S
C2306 H2292 0.960 . S
C2306 H2293 0.960 . S
C2306 C2305 1.524 . S
C2307 C2304 1.403 . S
C2307 C2308 1.392 . S
C2307 C2311 1.495 . S
C2308 C2307 1.392 . S
C2308 C2309 1.385 . S
C2308 C2310 1.478 . S
C2309 H2303 0.930 . S
C2309 C2305 1.400 . S
C2309 C2308 1.385 . S
C2310 C2308 1.478 . S
C2310 C2312 1.381 . S
C2310 C2316 1.383 . S
C2311 C2307 1.495 . S
C2311 H2317 0.959 . S
C2311 H2318 0.961 . S
C2311 H2319 0.960 . S
C2312 C2310 1.381 . S
C2312 C2313 1.394 . S
C2312 H2320 0.930 . S
C2313 C2312 1.394 . S
C2313 C2314 1.383 . S
C2313 H2321 0.929 . S
C2314 C2313 1.383 . S
C2314 C2315 1.377 . S
C2315 H2299 0.930 . S
C2315 C2314 1.377 . S
C2315 C2316 1.379 . S
C2316 H2300 0.931 . S
C2316 C2310 1.383 . S
C2316 C2315 1.379 . S
H2317 C2311 0.959 . S
H2318 C2311 0.961 . S
H2319 C2311 0.960 . S
H2320 C2312 0.930 . S
H2321 C2313 0.929 . S
H2322 C2330 0.929 . S
H2323 C2332 0.930 . S
H2324 C2334 0.930 . S
H2325 C2337 0.929 . S
H2326 C2340 0.930 . S
H2327 C2342 0.960 . S
H2328 C2342 0.960 . S
H2329 C2342 0.960 . S
C2330 H2322 0.929 . S
C2330 C2331 1.377 . S
C2330 C2332 1.384 . S
C2331 C2330 1.377 . S
C2331 C2337 1.390 . S
C2332 H2323 0.930 . S
C2332 C2330 1.384 . S
C2332 C2333 1.372 . S
C2333 C2332 1.372 . S
C2333 C2334 1.400 . S
C2333 C2338 1.490 . S
C2334 H2324 0.930 . S
C2334 C2333 1.400 . S
C2334 C2337 1.386 . S
H2335 C2351 0.930 . S
H2336 C2352 0.931 . S
C2337 H2325 0.929 . S
C2337 C2331 1.390 . S
C2337 C2334 1.386 . S
C2338 C2333 1.490 . S
C2338 C2340 1.395 . S
C2338 C2341 1.403 . S
H2339 C2345 0.930 . S
C2340 H2326 0.930 . S
C2340 C2338 1.395 . S
C2340 C2343 1.403 . S
C2341 C2338 1.403 . S
C2341 C2342 1.524 . S
C2341 C2345 1.400 . S
C2342 H2327 0.960 . S
C2342 H2328 0.960 . S
C2342 H2329 0.960 . S
C2342 C2341 1.524 . S
C2343 C2340 1.403 . S
C2343 C2344 1.392 . S
C2343 C2347 1.495 . S
C2344 C2343 1.392 . S
C2344 C2345 1.385 . S
C2344 C2346 1.478 . S
C2345 H2339 0.930 . S
C2345 C2341 1.400 . S
C2345 C2344 1.385 . S
C2346 C2344 1.478 . S
C2346 C2348 1.381 . S
C2346 C2352 1.383 . S
C2347 C2343 1.495 . S
C2347 H2353 0.959 . S
C2347 H2354 0.961 . S
C2347 H2355 0.960 . S
C2348 C2346 1.381 . S
C2348 C2349 1.394 . S
C2348 H2356 0.930 . S
C2349 C2348 1.394 . S
C2349 C2350 1.383 . S
C2349 H2357 0.929 . S
C2350 C2349 1.383 . S
C2350 C2351 1.377 . S
C2351 H2335 0.930 . S
C2351 C2350 1.377 . S
C2351 C2352 1.379 . S
C2352 H2336 0.931 . S
C2352 C2346 1.383 . S
C2352 C2351 1.379 . S
H2353 C2347 0.959 . S
H2354 C2347 0.961 . S
H2355 C2347 0.960 . S
H2356 C2348 0.930 . S
H2357 C2349 0.929 . S
H2358 C2366 0.929 . S
H2359 C2368 0.930 . S
H2360 C2370 0.930 . S
H2361 C2373 0.929 . S
H2362 C2376 0.930 . S
H2363 C2378 0.960 . S
H2364 C2378 0.960 . S
H2365 C2378 0.960 . S
C2366 H2358 0.929 . S
C2366 C2367 1.377 . S
C2366 C2368 1.384 . S
C2367 C2366 1.377 . S
C2367 C2373 1.390 . S
C2368 H2359 0.930 . S
C2368 C2366 1.384 . S
C2368 C2369 1.372 . S
C2369 C2368 1.372 . S
C2369 C2370 1.400 . S
C2369 C2374 1.490 . S
C2370 H2360 0.930 . S
C2370 C2369 1.400 . S
C2370 C2373 1.386 . S
H2371 C2387 0.930 . S
H2372 C2388 0.931 . S
C2373 H2361 0.929 . S
C2373 C2367 1.390 . S
C2373 C2370 1.386 . S
C2374 C2369 1.490 . S
C2374 C2376 1.395 . S
C2374 C2377 1.403 . S
H2375 C2381 0.930 . S
C2376 H2362 0.930 . S
C2376 C2374 1.395 . S
C2376 C2379 1.403 . S
C2377 C2374 1.403 . S
C2377 C2378 1.524 . S
C2377 C2381 1.400 . S
C2378 H2363 0.960 . S
C2378 H2364 0.960 . S
C2378 H2365 0.960 . S
C2378 C2377 1.524 . S
C2379 C2376 1.403 . S
C2379 C2380 1.392 . S
C2379 C2383 1.495 . S
C2380 C2379 1.392 . S
C2380 C2381 1.385 . S
C2380 C2382 1.478 . S
C2381 H2375 0.930 . S
C2381 C2377 1.400 . S
C2381 C2380 1.385 . S
C2382 C2380 1.478 . S
C2382 C2384 1.381 . S
C2382 C2388 1.383 . S
C2383 C2379 1.495 . S
C2383 H2389 0.959 . S
C2383 H2390 0.961 . S
C2383 H2391 0.960 . S
C2384 C2382 1.381 . S
C2384 C2385 1.394 . S
C2384 H2392 0.930 . S
C2385 C2384 1.394 . S
C2385 C2386 1.383 . S
C2385 H2393 0.929 . S
C2386 C2385 1.383 . S
C2386 C2387 1.377 . S
C2387 H2371 0.930 . S
C2387 C2386 1.377 . S
C2387 C2388 1.379 . S
C2388 H2372 0.931 . S
C2388 C2382 1.383 . S
C2388 C2387 1.379 . S
H2389 C2383 0.959 . S
H2390 C2383 0.961 . S
H2391 C2383 0.960 . S
H2392 C2384 0.930 . S
H2393 C2385 0.929 . S
H2394 C2402 0.929 . S
H2395 C2404 0.930 . S
H2396 C2406 0.930 . S
H2397 C2409 0.929 . S
H2398 C2412 0.930 . S
H2399 C2414 0.960 . S
H2400 C2414 0.960 . S
H2401 C2414 0.960 . S
C2402 H2394 0.929 . S
C2402 C2403 1.377 . S
C2402 C2404 1.384 . S
C2403 C2402 1.377 . S
C2403 C2409 1.390 . S
C2404 H2395 0.930 . S
C2404 C2402 1.384 . S
C2404 C2405 1.372 . S
C2405 C2404 1.372 . S
C2405 C2406 1.400 . S
C2405 C2410 1.490 . S
C2406 H2396 0.930 . S
C2406 C2405 1.400 . S
C2406 C2409 1.386 . S
H2407 C2423 0.930 . S
H2408 C2424 0.931 . S
C2409 H2397 0.929 . S
C2409 C2403 1.390 . S
C2409 C2406 1.386 . S
C2410 C2405 1.490 . S
C2410 C2412 1.395 . S
C2410 C2413 1.403 . S
H2411 C2417 0.930 . S
C2412 H2398 0.930 . S
C2412 C2410 1.395 . S
C2412 C2415 1.403 . S
C2413 C2410 1.403 . S
C2413 C2414 1.524 . S
C2413 C2417 1.400 . S
C2414 H2399 0.960 . S
C2414 H2400 0.960 . S
C2414 H2401 0.960 . S
C2414 C2413 1.524 . S
C2415 C2412 1.403 . S
C2415 C2416 1.392 . S
C2415 C2419 1.495 . S
C2416 C2415 1.392 . S
C2416 C2417 1.385 . S
C2416 C2418 1.478 . S
C2417 H2411 0.930 . S
C2417 C2413 1.400 . S
C2417 C2416 1.385 . S
C2418 C2416 1.478 . S
C2418 C2420 1.381 . S
C2418 C2424 1.383 . S
C2419 C2415 1.495 . S
C2419 H2425 0.959 . S
C2419 H2426 0.961 . S
C2419 H2427 0.960 . S
C2420 C2418 1.381 . S
C2420 C2421 1.394 . S
C2420 H2428 0.930 . S
C2421 C2420 1.394 . S
C2421 C2422 1.383 . S
C2421 H2429 0.929 . S
C2422 C2421 1.383 . S
C2422 C2423 1.377 . S
C2423 H2407 0.930 . S
C2423 C2422 1.377 . S
C2423 C2424 1.379 . S
C2424 H2408 0.931 . S
C2424 C2418 1.383 . S
C2424 C2423 1.379 . S
H2425 C2419 0.959 . S
H2426 C2419 0.961 . S
H2427 C2419 0.960 . S
H2428 C2420 0.930 . S
H2429 C2421 0.929 . S
H2430 C2438 0.925 1_565 S
H2431 C2440 0.930 . S
H2432 C2442 0.930 . S
H2433 C2445 0.929 . S
H2434 C2448 0.930 . S
H2435 C2450 0.960 . S
H2436 C2450 0.960 . S
H2437 C2450 0.960 . S
C2438 H2430 0.925 1_545 S
C2438 C2439 1.366 . S
C2438 C2440 1.386 . S
C2439 C2438 1.366 . S
C2439 C2445 1.428 . S
C2440 H2431 0.930 . S
C2440 C2438 1.386 . S
C2440 C2441 1.372 . S
C2441 C2440 1.372 . S
C2441 C2442 1.400 . S
C2441 C2446 1.490 . S
C2442 H2432 0.930 . S
C2442 C2441 1.400 . S
C2442 C2445 1.386 . S
H2443 C2459 0.930 . S
H2444 C2460 0.931 . S
C2445 H2433 0.929 . S
C2445 C2439 1.428 . S
C2445 C2442 1.386 . S
C2446 C2441 1.490 . S
C2446 C2448 1.395 1_545 S
C2446 C2449 1.403 . S
H2447 C2453 0.930 . S
C2448 H2434 0.930 . S
C2448 C2446 1.395 1_565 S
C2448 C2451 1.403 . S
C2449 C2446 1.403 . S
C2449 C2450 1.524 . S
C2449 C2453 1.400 . S
C2450 H2435 0.960 . S
C2450 H2436 0.960 . S
C2450 H2437 0.960 . S
C2450 C2449 1.524 . S
C2451 C2448 1.403 . S
C2451 C2452 1.392 1_565 S
C2451 C2455 1.495 . S
C2452 C2451 1.392 1_545 S
C2452 C2453 1.385 . S
C2452 C2454 1.478 . S
C2453 H2447 0.930 . S
C2453 C2449 1.400 . S
C2453 C2452 1.385 . S
C2454 C2452 1.478 . S
C2454 C2456 1.381 . S
C2454 C2460 1.383 . S
C2455 C2451 1.495 . S
C2455 H2461 0.959 . S
C2455 H2462 0.961 . S
C2455 H2463 0.960 . S
C2456 C2454 1.381 . S
C2456 C2457 1.394 . S
C2456 H2464 0.930 . S
C2457 C2456 1.394 . S
C2457 C2458 1.383 . S
C2457 H2465 0.929 . S
C2458 C2457 1.383 . S
C2458 C2459 1.377 . S
C2459 H2443 0.930 . S
C2459 C2458 1.377 . S
C2459 C2460 1.379 . S
C2460 H2444 0.931 . S
C2460 C2454 1.383 . S
C2460 C2459 1.379 . S
H2461 C2455 0.959 . S
H2462 C2455 0.961 . S
H2463 C2455 0.960 . S
H2464 C2456 0.930 . S
H2465 C2457 0.929 . S
H2466 C2474 0.929 . S
H2467 C2476 0.930 . S
H2468 C2478 0.930 . S
H2469 C2481 0.929 . S
H2470 C2484 0.918 1_565 S
H2471 C2486 0.960 . S
H2472 C2486 0.960 . S
H2473 C2486 0.960 . S
C2474 H2466 0.929 . S
C2474 C2475 1.377 . S
C2474 C2476 1.384 . S
C2475 C2474 1.377 . S
C2475 C2481 1.390 . S
C2476 H2467 0.930 . S
C2476 C2474 1.384 . S
C2476 C2477 1.372 . S
C2477 C2476 1.372 . S
C2477 C2478 1.400 . S
C2477 C2482 1.490 . S
C2478 H2468 0.930 . S
C2478 C2477 1.400 . S
C2478 C2481 1.386 . S
H2479 C2495 0.930 . S
H2480 C2496 0.931 . S
C2481 H2469 0.929 . S
C2481 C2475 1.390 . S
C2481 C2478 1.386 . S
C2482 C2477 1.490 . S
C2482 C2484 1.395 . S
C2482 C2485 1.403 . S
H2483 C2489 0.930 . S
C2484 H2470 0.918 1_545 S
C2484 C2482 1.395 . S
C2484 C2487 1.403 . S
C2485 C2482 1.403 . S
C2485 C2486 1.524 . S
C2485 C2489 1.400 . S
C2486 H2471 0.960 . S
C2486 H2472 0.960 . S
C2486 H2473 0.960 . S
C2486 C2485 1.524 . S
C2487 C2484 1.403 . S
C2487 C2488 1.392 . S
C2487 C2491 1.495 1_545 S
C2488 C2487 1.392 . S
C2488 C2489 1.385 . S
C2488 C2490 1.478 . S
C2489 H2483 0.930 . S
C2489 C2485 1.400 . S
C2489 C2488 1.385 . S
C2490 C2488 1.478 . S
C2490 C2492 1.381 . S
C2490 C2496 1.383 . S
C2491 C2487 1.495 1_565 S
C2491 H2497 0.959 . S
C2491 H2498 0.961 . S
C2491 H2499 0.960 . S
C2492 C2490 1.381 . S
C2492 C2493 1.394 . S
C2492 H2500 0.930 . S
C2493 C2492 1.394 . S
C2493 C2494 1.383 . S
C2493 H2501 0.929 . S
C2494 C2493 1.383 . S
C2494 C2495 1.377 . S
C2495 H2479 0.930 . S
C2495 C2494 1.377 . S
C2495 C2496 1.379 . S
C2496 H2480 0.931 . S
C2496 C2490 1.383 . S
C2496 C2495 1.379 . S
H2497 C2491 0.959 . S
H2498 C2491 0.961 . S
H2499 C2491 0.960 . S
H2500 C2492 0.930 . S
H2501 C2493 0.929 . S
H2502 C2510 0.929 . S
H2503 C2512 0.930 . S
H2504 C2514 0.930 . S
H2505 C2517 0.929 . S
H2506 C2520 0.930 . S
H2507 C2522 0.960 . S
H2508 C2522 0.960 . S
H2509 C2522 0.960 . S
C2510 H2502 0.929 . S
C2510 C2511 1.377 . S
C2510 C2512 1.384 . S
C2511 C2510 1.377 . S
C2511 C2517 1.390 . S
C2512 H2503 0.930 . S
C2512 C2510 1.384 . S
C2512 C2513 1.372 . S
C2513 C2512 1.372 . S
C2513 C2514 1.400 . S
C2513 C2518 1.490 . S
C2514 H2504 0.930 . S
C2514 C2513 1.400 . S
C2514 C2517 1.386 . S
H2515 C2531 0.930 . S
H2516 C2532 0.931 . S
C2517 H2505 0.929 . S
C2517 C2511 1.390 . S
C2517 C2514 1.386 . S
C2518 C2513 1.490 . S
C2518 C2520 1.395 . S
C2518 C2521 1.403 . S
H2519 C2525 0.930 . S
C2520 H2506 0.930 . S
C2520 C2518 1.395 . S
C2520 C2523 1.403 . S
C2521 C2518 1.403 . S
C2521 C2522 1.524 . S
C2521 C2525 1.400 . S
C2522 H2507 0.960 . S
C2522 H2508 0.960 . S
C2522 H2509 0.960 . S
C2522 C2521 1.524 . S
C2523 C2520 1.403 . S
C2523 C2524 1.392 . S
C2523 C2527 1.495 . S
C2524 C2523 1.392 . S
C2524 C2525 1.385 . S
C2524 C2526 1.478 . S
C2525 H2519 0.930 . S
C2525 C2521 1.400 . S
C2525 C2524 1.385 . S
C2526 C2524 1.478 . S
C2526 C2528 1.381 . S
C2526 C2532 1.383 . S
C2527 C2523 1.495 . S
C2527 H2533 0.959 . S
C2527 H2534 0.961 . S
C2527 H2535 0.960 . S
C2528 C2526 1.381 . S
C2528 C2529 1.394 . S
C2528 H2536 0.930 . S
C2529 C2528 1.394 . S
C2529 C2530 1.383 . S
C2529 H2537 0.929 . S
C2530 C2529 1.383 . S
C2530 C2531 1.377 . S
C2531 H2515 0.930 . S
C2531 C2530 1.377 . S
C2531 C2532 1.379 . S
C2532 H2516 0.931 . S
C2532 C2526 1.383 . S
C2532 C2531 1.379 . S
H2533 C2527 0.959 . S
H2534 C2527 0.961 . S
H2535 C2527 0.960 . S
H2536 C2528 0.930 . S
H2537 C2529 0.929 . S
H2538 C2546 0.929 . S
H2539 C2548 0.930 . S
H2540 C2550 0.930 . S
H2541 C2553 0.929 . S
H2542 C2556 0.930 . S
H2543 C2558 0.960 . S
H2544 C2558 0.960 . S
H2545 C2558 0.960 . S
C2546 H2538 0.929 . S
C2546 C2547 1.377 . S
C2546 C2548 1.384 . S
C2547 C2546 1.377 . S
C2547 C2553 1.390 . S
C2548 H2539 0.930 . S
C2548 C2546 1.384 . S
C2548 C2549 1.372 . S
C2549 C2548 1.372 . S
C2549 C2550 1.400 . S
C2549 C2554 1.490 . S
C2550 H2540 0.930 . S
C2550 C2549 1.400 . S
C2550 C2553 1.386 . S
H2551 C2567 0.930 . S
H2552 C2568 0.931 . S
C2553 H2541 0.929 . S
C2553 C2547 1.390 . S
C2553 C2550 1.386 . S
C2554 C2549 1.490 . S
C2554 C2556 1.395 . S
C2554 C2557 1.403 . S
H2555 C2561 0.930 . S
C2556 H2542 0.930 . S
C2556 C2554 1.395 . S
C2556 C2559 1.403 . S
C2557 C2554 1.403 . S
C2557 C2558 1.524 . S
C2557 C2561 1.400 . S
C2558 H2543 0.960 . S
C2558 H2544 0.960 . S
C2558 H2545 0.960 . S
C2558 C2557 1.524 . S
C2559 C2556 1.403 . S
C2559 C2560 1.392 . S
C2559 C2563 1.495 . S
C2560 C2559 1.392 . S
C2560 C2561 1.385 . S
C2560 C2562 1.478 . S
C2561 H2555 0.930 . S
C2561 C2557 1.400 . S
C2561 C2560 1.385 . S
C2562 C2560 1.478 . S
C2562 C2564 1.381 . S
C2562 C2568 1.383 . S
C2563 C2559 1.495 . S
C2563 H2569 0.959 . S
C2563 H2570 0.961 . S
C2563 H2571 0.960 . S
C2564 C2562 1.381 . S
C2564 C2565 1.394 . S
C2564 H2572 0.930 . S
C2565 C2564 1.394 . S
C2565 C2566 1.383 . S
C2565 H2573 0.929 . S
C2566 C2565 1.383 . S
C2566 C2567 1.377 . S
C2567 H2551 0.930 . S
C2567 C2566 1.377 . S
C2567 C2568 1.379 . S
C2568 H2552 0.931 . S
C2568 C2562 1.383 . S
C2568 C2567 1.379 . S
H2569 C2563 0.959 . S
H2570 C2563 0.961 . S
H2571 C2563 0.960 . S
H2572 C2564 0.930 . S
H2573 C2565 0.929 . S
H2574 C2582 0.929 . S
H2575 C2584 0.930 . S
H2576 C2586 0.930 . S
H2577 C2589 0.929 . S
H2578 C2592 0.930 . S
H2579 C2594 0.960 . S
H2580 C2594 0.960 . S
H2581 C2594 0.960 . S
C2582 H2574 0.929 . S
C2582 C2583 1.377 . S
C2582 C2584 1.384 . S
C2583 C2582 1.377 . S
C2583 C2589 1.390 . S
C2584 H2575 0.930 . S
C2584 C2582 1.384 . S
C2584 C2585 1.372 . S
C2585 C2584 1.372 . S
C2585 C2586 1.400 . S
C2585 C2590 1.490 . S
C2586 H2576 0.930 . S
C2586 C2585 1.400 . S
C2586 C2589 1.386 . S
H2587 C2603 0.930 . S
H2588 C2604 0.931 . S
C2589 H2577 0.929 . S
C2589 C2583 1.390 . S
C2589 C2586 1.386 . S
C2590 C2585 1.490 . S
C2590 C2592 1.395 . S
C2590 C2593 1.403 . S
H2591 C2597 0.930 . S
C2592 H2578 0.930 . S
C2592 C2590 1.395 . S
C2592 C2595 1.403 . S
C2593 C2590 1.403 . S
C2593 C2594 1.524 . S
C2593 C2597 1.400 . S
C2594 H2579 0.960 . S
C2594 H2580 0.960 . S
C2594 H2581 0.960 . S
C2594 C2593 1.524 . S
C2595 C2592 1.403 . S
C2595 C2596 1.392 . S
C2595 C2599 1.495 . S
C2596 C2595 1.392 . S
C2596 C2597 1.385 . S
C2596 C2598 1.478 . S
C2597 H2591 0.930 . S
C2597 C2593 1.400 . S
C2597 C2596 1.385 . S
C2598 C2596 1.478 . S
C2598 C2600 1.381 . S
C2598 C2604 1.383 . S
C2599 C2595 1.495 . S
C2599 H2605 0.965 . S
C2599 H2606 0.961 . S
C2599 H2607 0.960 . S
C2600 C2598 1.381 . S
C2600 C2601 1.394 . S
C2600 H2608 0.930 . S
C2601 C2600 1.394 . S
C2601 C2602 1.383 . S
C2601 H2609 0.929 . S
C2602 C2601 1.383 . S
C2602 C2603 1.377 . S
C2603 H2587 0.930 . S
C2603 C2602 1.377 . S
C2603 C2604 1.379 . S
C2604 H2588 0.931 . S
C2604 C2598 1.383 . S
C2604 C2603 1.379 . S
H2605 C2599 0.965 . S
H2606 C2599 0.961 . S
H2607 C2599 0.960 . S
H2608 C2600 0.930 . S
H2609 C2601 0.929 . S
H2610 C2618 0.929 . S
H2611 C2620 0.930 . S
H2612 C2622 0.930 . S
H2613 C2625 0.929 . S
H2614 C2628 0.930 . S
H2615 C2630 0.960 . S
H2616 C2630 0.960 . S
H2617 C2630 0.960 . S
C2618 H2610 0.929 . S
C2618 C2619 1.377 . S
C2618 C2620 1.384 . S
C2619 C2618 1.377 . S
C2619 C2625 1.390 . S
C2620 H2611 0.930 . S
C2620 C2618 1.384 . S
C2620 C2621 1.372 . S
C2621 C2620 1.372 . S
C2621 C2622 1.400 . S
C2621 C2626 1.490 . S
C2622 H2612 0.930 . S
C2622 C2621 1.400 . S
C2622 C2625 1.386 . S
H2623 C2639 0.930 . S
H2624 C2640 0.931 . S
C2625 H2613 0.929 . S
C2625 C2619 1.390 . S
C2625 C2622 1.386 . S
C2626 C2621 1.490 . S
C2626 C2628 1.395 . S
C2626 C2629 1.403 . S
H2627 C2633 0.930 . S
C2628 H2614 0.930 . S
C2628 C2626 1.395 . S
C2628 C2631 1.403 . S
C2629 C2626 1.403 . S
C2629 C2630 1.524 . S
C2629 C2633 1.400 . S
C2630 H2615 0.960 . S
C2630 H2616 0.960 . S
C2630 H2617 0.960 . S
C2630 C2629 1.524 . S
C2631 C2628 1.403 . S
C2631 C2632 1.392 . S
C2631 C2635 1.495 . S
C2632 C2631 1.392 . S
C2632 C2633 1.385 . S
C2632 C2634 1.478 . S
C2633 H2627 0.930 . S
C2633 C2629 1.400 . S
C2633 C2632 1.385 . S
C2634 C2632 1.478 . S
C2634 C2636 1.381 . S
C2634 C2640 1.383 . S
C2635 C2631 1.495 . S
C2635 H2641 0.959 . S
C2635 H2642 0.961 . S
C2635 H2643 0.960 . S
C2636 C2634 1.381 . S
C2636 C2637 1.394 . S
C2636 H2644 0.930 . S
C2637 C2636 1.394 . S
C2637 C2638 1.383 . S
C2637 H2645 0.929 . S
C2638 C2637 1.383 . S
C2638 C2639 1.377 . S
C2639 H2623 0.930 . S
C2639 C2638 1.377 . S
C2639 C2640 1.379 . S
C2640 H2624 0.931 . S
C2640 C2634 1.383 . S
C2640 C2639 1.379 . S
H2641 C2635 0.959 . S
H2642 C2635 0.961 . S
H2643 C2635 0.960 . S
H2644 C2636 0.930 . S
H2645 C2637 0.929 . S
H2646 C2654 0.929 . S
H2647 C2656 0.930 . S
H2648 C2658 0.930 . S
H2649 C2661 0.927 1_565 S
H2650 C2664 0.930 . S
H2651 C2666 0.960 . S
H2652 C2666 0.960 . S
H2653 C2666 0.960 . S
C2654 H2646 0.929 . S
C2654 C2655 1.377 . S
C2654 C2656 1.384 . S
C2655 C2654 1.377 . S
C2655 C2661 1.396 . S
C2656 H2647 0.930 . S
C2656 C2654 1.384 . S
C2656 C2657 1.372 . S
C2657 C2656 1.372 . S
C2657 C2658 1.400 . S
C2657 C2662 1.490 . S
C2658 H2648 0.930 . S
C2658 C2657 1.400 . S
C2658 C2661 1.385 . S
H2659 C2675 0.930 . S
H2660 C2676 0.931 . S
C2661 H2649 0.927 1_545 S
C2661 C2655 1.396 . S
C2661 C2658 1.385 . S
C2662 C2657 1.490 . S
C2662 C2664 1.395 . S
C2662 C2665 1.403 . S
H2663 C2669 0.930 . S
C2664 H2650 0.930 . S
C2664 C2662 1.395 . S
C2664 C2667 1.403 . S
C2665 C2662 1.403 . S
C2665 C2666 1.524 1_545 S
C2665 C2669 1.400 . S
C2666 H2651 0.960 . S
C2666 H2652 0.960 . S
C2666 H2653 0.960 . S
C2666 C2665 1.524 1_565 S
C2667 C2664 1.403 . S
C2667 C2668 1.392 . S
C2667 C2671 1.495 . S
C2668 C2667 1.392 . S
C2668 C2669 1.385 . S
C2668 C2670 1.478 . S
C2669 H2663 0.930 . S
C2669 C2665 1.400 . S
C2669 C2668 1.385 . S
C2670 C2668 1.478 . S
C2670 C2672 1.381 . S
C2670 C2676 1.383 . S
C2671 C2667 1.495 . S
C2671 H2677 0.959 . S
C2671 H2678 0.961 . S
C2671 H2679 0.960 . S
C2672 C2670 1.381 . S
C2672 C2673 1.394 . S
C2672 H2680 0.930 . S
C2673 C2672 1.394 . S
C2673 C2674 1.383 . S
C2673 H2681 0.929 . S
C2674 C2673 1.383 . S
C2674 C2675 1.377 . S
C2675 H2659 0.930 . S
C2675 C2674 1.377 . S
C2675 C2676 1.379 . S
C2676 H2660 0.931 . S
C2676 C2670 1.383 . S
C2676 C2675 1.379 . S
H2677 C2671 0.959 . S
H2678 C2671 0.961 . S
H2679 C2671 0.960 . S
H2680 C2672 0.930 . S
H2681 C2673 0.929 . S
H2682 C2690 0.929 . S
H2683 C2692 0.930 . S
H2684 C2694 0.930 . S
H2685 C2697 0.929 . S
H2686 C2700 0.930 . S
H2687 C2702 0.960 . S
H2688 C2702 0.960 . S
H2689 C2702 0.960 . S
C2690 H2682 0.929 . S
C2690 C2691 1.377 . S
C2690 C2692 1.384 . S
C2691 C2690 1.377 . S
C2691 C2697 1.390 . S
C2692 H2683 0.930 . S
C2692 C2690 1.384 . S
C2692 C2693 1.372 . S
C2693 C2692 1.372 . S
C2693 C2694 1.400 . S
C2693 C2698 1.490 . S
C2694 H2684 0.930 . S
C2694 C2693 1.400 . S
C2694 C2697 1.386 . S
H2695 C2711 0.930 . S
H2696 C2712 0.931 . S
C2697 H2685 0.929 . S
C2697 C2691 1.390 . S
C2697 C2694 1.386 . S
C2698 C2693 1.490 . S
C2698 C2700 1.395 . S
C2698 C2701 1.403 . S
H2699 C2705 0.930 . S
C2700 H2686 0.930 . S
C2700 C2698 1.395 . S
C2700 C2703 1.403 . S
C2701 C2698 1.403 . S
C2701 C2702 1.524 . S
C2701 C2705 1.400 . S
C2702 H2687 0.960 . S
C2702 H2688 0.960 . S
C2702 H2689 0.960 . S
C2702 C2701 1.524 . S
C2703 C2700 1.403 . S
C2703 C2704 1.392 . S
C2703 C2707 1.495 . S
C2704 C2703 1.392 . S
C2704 C2705 1.385 . S
C2704 C2706 1.478 . S
C2705 H2699 0.930 . S
C2705 C2701 1.400 . S
C2705 C2704 1.385 . S
C2706 C2704 1.478 . S
C2706 C2708 1.381 . S
C2706 C2712 1.383 . S
C2707 C2703 1.495 . S
C2707 H2713 0.959 . S
C2707 H2714 0.961 . S
C2707 H2715 0.960 . S
C2708 C2706 1.381 . S
C2708 C2709 1.394 . S
C2708 H2716 0.930 . S
C2709 C2708 1.394 . S
C2709 C2710 1.383 . S
C2709 H2717 0.929 . S
C2710 C2709 1.383 . S
C2710 C2711 1.377 . S
C2711 H2695 0.930 . S
C2711 C2710 1.377 . S
C2711 C2712 1.379 . S
C2712 H2696 0.931 . S
C2712 C2706 1.383 . S
C2712 C2711 1.379 . S
H2713 C2707 0.959 . S
H2714 C2707 0.961 . S
H2715 C2707 0.960 . S
H2716 C2708 0.930 . S
H2717 C2709 0.929 . S
H2718 C2726 0.929 . S
H2719 C2728 0.930 . S
H2720 C2730 0.930 . S
H2721 C2733 0.929 . S
H2722 C2736 0.930 . S
H2723 C2738 0.960 . S
H2724 C2738 0.960 . S
H2725 C2738 0.960 . S
C2726 H2718 0.929 . S
C2726 C2727 1.377 . S
C2726 C2728 1.384 . S
C2727 C2726 1.377 . S
C2727 C2733 1.390 . S
C2728 H2719 0.930 . S
C2728 C2726 1.384 . S
C2728 C2729 1.372 . S
C2729 C2728 1.372 . S
C2729 C2730 1.400 . S
C2729 C2734 1.490 . S
C2730 H2720 0.930 . S
C2730 C2729 1.400 . S
C2730 C2733 1.386 . S
H2731 C2747 0.930 . S
H2732 C2748 0.931 . S
C2733 H2721 0.929 . S
C2733 C2727 1.390 . S
C2733 C2730 1.386 . S
C2734 C2729 1.490 . S
C2734 C2736 1.395 . S
C2734 C2737 1.403 . S
H2735 C2741 0.930 . S
C2736 H2722 0.930 . S
C2736 C2734 1.395 . S
C2736 C2739 1.403 . S
C2737 C2734 1.403 . S
C2737 C2738 1.524 . S
C2737 C2741 1.400 . S
C2738 H2723 0.960 . S
C2738 H2724 0.960 . S
C2738 H2725 0.960 . S
C2738 C2737 1.524 . S
C2739 C2736 1.403 . S
C2739 C2740 1.392 . S
C2739 C2743 1.507 . S
C2740 C2739 1.392 . S
C2740 C2741 1.385 . S
C2740 C2742 1.478 . S
C2741 H2735 0.930 . S
C2741 C2737 1.400 . S
C2741 C2740 1.385 . S
C2742 C2740 1.478 . S
C2742 C2744 1.381 . S
C2742 C2748 1.383 . S
C2743 C2739 1.507 . S
C2743 H2749 0.958 1_455 S
C2743 H2750 0.947 1_455 S
C2743 H2751 0.964 . S
C2744 C2742 1.381 . S
C2744 C2745 1.394 . S
C2744 H2752 0.930 . S
C2745 C2744 1.394 . S
C2745 C2746 1.383 . S
C2745 H2753 0.929 . S
C2746 C2745 1.383 . S
C2746 C2747 1.377 . S
C2747 H2731 0.930 . S
C2747 C2746 1.377 . S
C2747 C2748 1.379 . S
C2748 H2732 0.931 . S
C2748 C2742 1.383 . S
C2748 C2747 1.379 . S
H2749 C2743 0.958 1_655 S
H2750 C2743 0.947 1_655 S
H2751 C2743 0.964 . S
H2752 C2744 0.930 . S
H2753 C2745 0.929 . S
H2754 C2762 0.929 . S
H2755 C2764 0.930 . S
H2756 C2766 0.930 . S
H2757 C2769 0.929 . S
H2758 C2772 0.930 . S
H2759 C2774 0.960 . S
H2760 C2774 0.960 . S
H2761 C2774 0.960 . S
C2762 H2754 0.929 . S
C2762 C2763 1.377 . S
C2762 C2764 1.384 . S
C2763 C2762 1.377 . S
C2763 C2769 1.390 . S
C2764 H2755 0.930 . S
C2764 C2762 1.384 . S
C2764 C2765 1.372 . S
C2765 C2764 1.372 . S
C2765 C2766 1.400 . S
C2765 C2770 1.490 . S
C2766 H2756 0.930 . S
C2766 C2765 1.400 . S
C2766 C2769 1.386 . S
H2767 C2783 0.930 . S
H2768 C2784 0.931 . S
C2769 H2757 0.929 . S
C2769 C2763 1.390 . S
C2769 C2766 1.386 . S
C2770 C2765 1.490 . S
C2770 C2772 1.395 . S
C2770 C2773 1.403 . S
H2771 C2777 0.930 . S
C2772 H2758 0.930 . S
C2772 C2770 1.395 . S
C2772 C2775 1.403 . S
C2773 C2770 1.403 . S
C2773 C2774 1.524 . S
C2773 C2777 1.400 . S
C2774 H2759 0.960 . S
C2774 H2760 0.960 . S
C2774 H2761 0.960 . S
C2774 C2773 1.524 . S
C2775 C2772 1.403 . S
C2775 C2776 1.392 . S
C2775 C2779 1.495 . S
C2776 C2775 1.392 . S
C2776 C2777 1.385 . S
C2776 C2778 1.478 . S
C2777 H2771 0.930 . S
C2777 C2773 1.400 . S
C2777 C2776 1.385 . S
C2778 C2776 1.478 . S
C2778 C2780 1.381 . S
C2778 C2784 1.383 . S
C2779 C2775 1.495 . S
C2779 H2785 0.959 . S
C2779 H2786 0.961 . S
C2779 H2787 0.960 . S
C2780 C2778 1.381 . S
C2780 C2781 1.394 . S
C2780 H2788 0.930 . S
C2781 C2780 1.394 . S
C2781 C2782 1.383 . S
C2781 H2789 0.929 . S
C2782 C2781 1.383 . S
C2782 C2783 1.377 . S
C2783 H2767 0.930 . S
C2783 C2782 1.377 . S
C2783 C2784 1.379 . S
C2784 H2768 0.931 . S
C2784 C2778 1.383 . S
C2784 C2783 1.379 . S
H2785 C2779 0.959 . S
H2786 C2779 0.961 . S
H2787 C2779 0.960 . S
H2788 C2780 0.930 . S
H2789 C2781 0.929 . S
H2790 C2798 0.929 . S
H2791 C2800 0.930 . S
H2792 C2802 0.930 . S
H2793 C2805 0.929 . S
H2794 C2808 0.930 . S
H2795 C2810 0.960 . S
H2796 C2810 0.960 . S
H2797 C2810 0.960 . S
C2798 H2790 0.929 . S
C2798 C2799 1.377 . S
C2798 C2800 1.384 . S
C2799 C2798 1.377 . S
C2799 C2805 1.390 . S
C2800 H2791 0.930 . S
C2800 C2798 1.384 . S
C2800 C2801 1.372 . S
C2801 C2800 1.372 . S
C2801 C2802 1.400 . S
C2801 C2806 1.490 . S
C2802 H2792 0.930 . S
C2802 C2801 1.400 . S
C2802 C2805 1.386 . S
H2803 C2819 0.930 . S
H2804 C2820 0.931 . S
C2805 H2793 0.929 . S
C2805 C2799 1.390 . S
C2805 C2802 1.386 . S
C2806 C2801 1.490 . S
C2806 C2808 1.395 . S
C2806 C2809 1.403 . S
H2807 C2813 0.930 . S
C2808 H2794 0.930 . S
C2808 C2806 1.395 . S
C2808 C2811 1.403 . S
C2809 C2806 1.403 . S
C2809 C2810 1.524 . S
C2809 C2813 1.400 . S
C2810 H2795 0.960 . S
C2810 H2796 0.960 . S
C2810 H2797 0.960 . S
C2810 C2809 1.524 . S
C2811 C2808 1.403 . S
C2811 C2812 1.392 . S
C2811 C2815 1.495 . S
C2812 C2811 1.392 . S
C2812 C2813 1.385 . S
C2812 C2814 1.478 . S
C2813 H2807 0.930 . S
C2813 C2809 1.400 . S
C2813 C2812 1.385 . S
C2814 C2812 1.478 . S
C2814 C2816 1.381 . S
C2814 C2820 1.383 . S
C2815 C2811 1.495 . S
C2815 H2821 0.959 . S
C2815 H2822 0.961 . S
C2815 H2823 0.960 . S
C2816 C2814 1.381 . S
C2816 C2817 1.394 . S
C2816 H2824 0.930 . S
C2817 C2816 1.394 . S
C2817 C2818 1.383 . S
C2817 H2825 0.929 . S
C2818 C2817 1.383 . S
C2818 C2819 1.377 . S
C2819 H2803 0.930 . S
C2819 C2818 1.377 . S
C2819 C2820 1.379 . S
C2820 H2804 0.931 . S
C2820 C2814 1.383 . S
C2820 C2819 1.379 . S
H2821 C2815 0.959 . S
H2822 C2815 0.961 . S
H2823 C2815 0.960 . S
H2824 C2816 0.930 . S
H2825 C2817 0.929 . S
H2826 C2834 0.929 . S
H2827 C2836 0.930 . S
H2828 C2838 0.930 . S
H2829 C2841 0.929 . S
H2830 C2844 0.930 . S
H2831 C2846 0.960 . S
H2832 C2846 0.960 . S
H2833 C2846 0.960 . S
C2834 H2826 0.929 . S
C2834 C2835 1.377 . S
C2834 C2836 1.384 . S
C2835 C2834 1.377 . S
C2835 C2841 1.390 . S
C2836 H2827 0.930 . S
C2836 C2834 1.384 . S
C2836 C2837 1.372 . S
C2837 C2836 1.372 . S
C2837 C2838 1.400 . S
C2837 C2842 1.490 . S
C2838 H2828 0.930 . S
C2838 C2837 1.400 . S
C2838 C2841 1.386 . S
H2839 C2855 0.930 . S
H2840 C2856 0.931 . S
C2841 H2829 0.929 . S
C2841 C2835 1.390 . S
C2841 C2838 1.386 . S
C2842 C2837 1.490 . S
C2842 C2844 1.395 . S
C2842 C2845 1.403 . S
H2843 C2849 0.930 . S
C2844 H2830 0.930 . S
C2844 C2842 1.395 . S
C2844 C2847 1.403 . S
C2845 C2842 1.403 . S
C2845 C2846 1.524 . S
C2845 C2849 1.400 . S
C2846 H2831 0.960 . S
C2846 H2832 0.960 . S
C2846 H2833 0.960 . S
C2846 C2845 1.524 . S
C2847 C2844 1.403 . S
C2847 C2848 1.392 . S
C2847 C2851 1.495 . S
C2848 C2847 1.392 . S
C2848 C2849 1.385 . S
C2848 C2850 1.478 . S
C2849 H2843 0.930 . S
C2849 C2845 1.400 . S
C2849 C2848 1.385 . S
C2850 C2848 1.478 . S
C2850 C2852 1.381 . S
C2850 C2856 1.383 . S
C2851 C2847 1.495 . S
C2851 H2857 0.959 . S
C2851 H2858 0.961 . S
C2851 H2859 0.960 . S
C2852 C2850 1.381 . S
C2852 C2853 1.394 . S
C2852 H2860 0.930 . S
C2853 C2852 1.394 . S
C2853 C2854 1.383 . S
C2853 H2861 0.929 . S
C2854 C2853 1.383 . S
C2854 C2855 1.377 . S
C2855 H2839 0.930 . S
C2855 C2854 1.377 . S
C2855 C2856 1.379 . S
C2856 H2840 0.931 . S
C2856 C2850 1.383 . S
C2856 C2855 1.379 . S
H2857 C2851 0.959 . S
H2858 C2851 0.961 . S
H2859 C2851 0.960 . S
H2860 C2852 0.930 . S
H2861 C2853 0.929 . S
H2862 C2870 0.929 . S
H2863 C2872 0.930 . S
H2864 C2874 0.930 . S
H2865 C2877 0.929 . S
H2866 C2880 0.930 . S
H2867 C2882 0.960 . S
H2868 C2882 0.960 . S
H2869 C2882 0.960 . S
C2870 H2862 0.929 . S
C2870 C2871 1.377 . S
C2870 C2872 1.384 . S
C2871 C2870 1.377 . S
C2871 C2877 1.390 . S
C2872 H2863 0.930 . S
C2872 C2870 1.384 . S
C2872 C2873 1.372 . S
C2873 C2872 1.372 . S
C2873 C2874 1.400 . S
C2873 C2878 1.490 . S
C2874 H2864 0.930 . S
C2874 C2873 1.400 . S
C2874 C2877 1.386 . S
H2875 C2891 0.930 . S
H2876 C2892 0.931 . S
C2877 H2865 0.929 . S
C2877 C2871 1.390 . S
C2877 C2874 1.386 . S
C2878 C2873 1.490 . S
C2878 C2880 1.395 . S
C2878 C2881 1.403 . S
H2879 C2885 0.930 . S
C2880 H2866 0.930 . S
C2880 C2878 1.395 . S
C2880 C2883 1.403 . S
C2881 C2878 1.403 . S
C2881 C2882 1.524 . S
C2881 C2885 1.400 . S
C2882 H2867 0.960 . S
C2882 H2868 0.960 . S
C2882 H2869 0.960 . S
C2882 C2881 1.524 . S
C2883 C2880 1.403 . S
C2883 C2884 1.392 . S
C2883 C2887 1.495 . S
C2884 C2883 1.392 . S
C2884 C2885 1.385 . S
C2884 C2886 1.478 . S
C2885 H2879 0.930 . S
C2885 C2881 1.400 . S
C2885 C2884 1.385 . S
C2886 C2884 1.478 . S
C2886 C2888 1.381 . S
C2886 C2892 1.383 . S
C2887 C2883 1.495 . S
C2887 H2893 0.959 . S
C2887 H2894 0.961 . S
C2887 H2895 0.960 . S
C2888 C2886 1.381 . S
C2888 C2889 1.394 . S
C2888 H2896 0.930 . S
C2889 C2888 1.394 . S
C2889 C2890 1.383 . S
C2889 H2897 0.929 . S
C2890 C2889 1.383 . S
C2890 C2891 1.377 . S
C2891 H2875 0.930 . S
C2891 C2890 1.377 . S
C2891 C2892 1.379 . S
C2892 H2876 0.931 . S
C2892 C2886 1.383 . S
C2892 C2891 1.379 . S
H2893 C2887 0.959 . S
H2894 C2887 0.961 . S
H2895 C2887 0.960 . S
H2896 C2888 0.930 . S
H2897 C2889 0.929 . S
H2898 C2906 0.929 . S
H2899 C2908 0.930 . S
H2900 C2910 0.930 . S
H2901 C2913 0.929 . S
H2902 C2916 0.930 . S
H2903 C2918 0.960 . S
H2904 C2918 0.960 . S
H2905 C2918 0.960 . S
C2906 H2898 0.929 . S
C2906 C2907 1.377 . S
C2906 C2908 1.384 . S
C2907 C2906 1.377 . S
C2907 C2913 1.390 . S
C2908 H2899 0.930 . S
C2908 C2906 1.384 . S
C2908 C2909 1.372 . S
C2909 C2908 1.372 . S
C2909 C2910 1.400 . S
C2909 C2914 1.490 . S
C2910 H2900 0.930 . S
C2910 C2909 1.400 . S
C2910 C2913 1.386 . S
H2911 C2927 0.930 . S
H2912 C2928 0.931 . S
C2913 H2901 0.929 . S
C2913 C2907 1.390 . S
C2913 C2910 1.386 . S
C2914 C2909 1.490 . S
C2914 C2916 1.395 . S
C2914 C2917 1.403 . S
H2915 C2921 0.930 . S
C2916 H2902 0.930 . S
C2916 C2914 1.395 . S
C2916 C2919 1.403 1_556 S
C2917 C2914 1.403 . S
C2917 C2918 1.524 . S
C2917 C2921 1.400 . S
C2918 H2903 0.960 . S
C2918 H2904 0.960 . S
C2918 H2905 0.960 . S
C2918 C2917 1.524 . S
C2919 C2916 1.403 1_554 S
C2919 C2920 1.392 . S
C2919 C2923 1.495 . S
C2920 C2919 1.392 . S
C2920 C2921 1.385 1_554 S
C2920 C2922 1.478 . S
C2921 H2915 0.930 . S
C2921 C2917 1.400 . S
C2921 C2920 1.385 1_556 S
C2922 C2920 1.478 . S
C2922 C2924 1.381 . S
C2922 C2928 1.383 . S
C2923 C2919 1.495 . S
C2923 H2929 0.959 . S
C2923 H2930 0.961 . S
C2923 H2931 0.960 . S
C2924 C2922 1.381 . S
C2924 C2925 1.394 . S
C2924 H2932 0.930 . S
C2925 C2924 1.394 . S
C2925 C2926 1.383 . S
C2925 H2933 0.929 . S
C2926 C2925 1.383 . S
C2926 C2927 1.377 . S
C2927 H2911 0.930 . S
C2927 C2926 1.377 . S
C2927 C2928 1.379 . S
C2928 H2912 0.931 . S
C2928 C2922 1.383 . S
C2928 C2927 1.379 . S
H2929 C2923 0.959 . S
H2930 C2923 0.961 . S
H2931 C2923 0.960 . S
H2932 C2924 0.930 . S
H2933 C2925 0.929 . S
H2934 C2942 0.929 . S
H2935 C2944 0.930 . S
H2936 C2946 0.930 . S
H2937 C2949 0.929 . S
H2938 C2952 0.930 . S
H2939 C2954 0.960 . S
H2940 C2954 0.960 . S
H2941 C2954 0.960 . S
C2942 H2934 0.929 . S
C2942 C2943 1.377 . S
C2942 C2944 1.384 . S
C2943 C2942 1.377 . S
C2943 C2949 1.390 . S
C2944 H2935 0.930 . S
C2944 C2942 1.384 . S
C2944 C2945 1.372 . S
C2945 C2944 1.372 . S
C2945 C2946 1.400 . S
C2945 C2950 1.490 . S
C2946 H2936 0.930 . S
C2946 C2945 1.400 . S
C2946 C2949 1.386 . S
H2947 C2963 0.930 . S
H2948 C2964 0.931 . S
C2949 H2937 0.929 . S
C2949 C2943 1.390 . S
C2949 C2946 1.386 . S
C2950 C2945 1.490 . S
C2950 C2952 1.395 . S
C2950 C2953 1.403 . S
H2951 C2957 0.930 . S
C2952 H2938 0.930 . S
C2952 C2950 1.395 . S
C2952 C2955 1.403 . S
C2953 C2950 1.403 . S
C2953 C2954 1.524 . S
C2953 C2957 1.400 . S
C2954 H2939 0.960 . S
C2954 H2940 0.960 . S
C2954 H2941 0.960 . S
C2954 C2953 1.524 . S
C2955 C2952 1.403 . S
C2955 C2956 1.392 . S
C2955 C2959 1.495 . S
C2956 C2955 1.392 . S
C2956 C2957 1.385 . S
C2956 C2958 1.516 . S
C2957 H2951 0.930 . S
C2957 C2953 1.400 . S
C2957 C2956 1.385 . S
C2958 C2956 1.516 . S
C2958 C2960 1.366 1_556 S
C2958 C2964 1.358 1_556 S
C2959 C2955 1.495 . S
C2959 H2965 0.959 . S
C2959 H2966 0.961 . S
C2959 H2967 0.960 . S
C2960 C2958 1.366 1_554 S
C2960 C2961 1.394 . S
C2960 H2968 0.917 1_554 S
C2961 C2960 1.394 . S
C2961 C2962 1.383 . S
C2961 H2969 0.929 . S
C2962 C2961 1.383 . S
C2962 C2963 1.377 . S
C2963 H2947 0.930 . S
C2963 C2962 1.377 . S
C2963 C2964 1.379 . S
C2964 H2948 0.931 . S
C2964 C2958 1.358 1_554 S
C2964 C2963 1.379 . S
H2965 C2959 0.959 . S
H2966 C2959 0.961 . S
H2967 C2959 0.960 . S
H2968 C2960 0.917 1_556 S
H2969 C2961 0.929 . S
H2970 C2978 0.929 . S
H2971 C2980 0.930 . S
H2972 C2982 0.930 . S
H2973 C2985 0.929 . S
H2974 C2988 0.930 . S
H2975 C2990 0.960 . S
H2976 C2990 0.960 . S
H2977 C2990 0.960 . S
C2978 H2970 0.929 . S
C2978 C2979 1.377 . S
C2978 C2980 1.384 . S
C2979 C2978 1.377 . S
C2979 C2985 1.390 . S
C2980 H2971 0.930 . S
C2980 C2978 1.384 . S
C2980 C2981 1.372 . S
C2981 C2980 1.372 . S
C2981 C2982 1.400 . S
C2981 C2986 1.490 . S
C2982 H2972 0.930 . S
C2982 C2981 1.400 . S
C2982 C2985 1.386 . S
H2983 C2999 0.930 . S
H2984 C3000 0.931 . S
C2985 H2973 0.929 . S
C2985 C2979 1.390 . S
C2985 C2982 1.386 . S
C2986 C2981 1.490 . S
C2986 C2988 1.395 . S
C2986 C2989 1.403 . S
H2987 C2993 0.930 . S
C2988 H2974 0.930 . S
C2988 C2986 1.395 . S
C2988 C2991 1.403 . S
C2989 C2986 1.403 . S
C2989 C2990 1.524 . S
C2989 C2993 1.400 . S
C2990 H2975 0.960 . S
C2990 H2976 0.960 . S
C2990 H2977 0.960 . S
C2990 C2989 1.524 . S
C2991 C2988 1.403 . S
C2991 C2992 1.392 1_556 S
C2991 C2995 1.495 1_556 S
C2992 C2991 1.392 1_554 S
C2992 C2993 1.385 1_554 S
C2992 C2994 1.478 . S
C2993 H2987 0.930 . S
C2993 C2989 1.400 . S
C2993 C2992 1.385 1_556 S
C2994 C2992 1.478 . S
C2994 C2996 1.381 . S
C2994 C3000 1.383 . S
C2995 C2991 1.495 1_554 S
C2995 H3001 0.959 1_554 S
C2995 H3002 0.961 . S
C2995 H3003 0.960 . S
C2996 C2994 1.381 . S
C2996 C2997 1.394 . S
C2996 H3004 0.930 . S
C2997 C2996 1.394 . S
C2997 C2998 1.383 . S
C2997 H3005 0.929 . S
C2998 C2997 1.383 . S
C2998 C2999 1.377 . S
C2999 H2983 0.930 . S
C2999 C2998 1.377 . S
C2999 C3000 1.379 . S
C3000 H2984 0.931 . S
C3000 C2994 1.383 . S
C3000 C2999 1.379 . S
H3001 C2995 0.959 1_556 S
H3002 C2995 0.961 . S
H3003 C2995 0.960 . S
H3004 C2996 0.930 . S
H3005 C2997 0.929 . S
H3006 C3014 0.929 . S
H3007 C3016 0.930 . S
H3008 C3018 0.930 . S
H3009 C3021 0.929 . S
H3010 C3024 0.930 . S
H3011 C3026 0.960 . S
H3012 C3026 0.960 . S
H3013 C3026 0.960 . S
C3014 H3006 0.929 . S
C3014 C3015 1.377 . S
C3014 C3016 1.384 . S
C3015 C3014 1.377 . S
C3015 C3021 1.390 . S
C3016 H3007 0.930 . S
C3016 C3014 1.384 . S
C3016 C3017 1.372 . S
C3017 C3016 1.372 . S
C3017 C3018 1.400 . S
C3017 C3022 1.490 . S
C3018 H3008 0.930 . S
C3018 C3017 1.400 . S
C3018 C3021 1.386 . S
H3019 C3035 0.930 . S
H3020 C3036 0.931 . S
C3021 H3009 0.929 . S
C3021 C3015 1.390 . S
C3021 C3018 1.386 . S
C3022 C3017 1.490 . S
C3022 C3024 1.395 . S
C3022 C3025 1.403 . S
H3023 C3029 0.930 . S
C3024 H3010 0.930 . S
C3024 C3022 1.395 . S
C3024 C3027 1.403 . S
C3025 C3022 1.403 . S
C3025 C3026 1.524 . S
C3025 C3029 1.400 . S
C3026 H3011 0.960 . S
C3026 H3012 0.960 . S
C3026 H3013 0.960 . S
C3026 C3025 1.524 . S
C3027 C3024 1.403 . S
C3027 C3028 1.392 . S
C3027 C3031 1.495 . S
C3028 C3027 1.392 . S
C3028 C3029 1.385 . S
C3028 C3030 1.478 . S
C3029 H3023 0.930 . S
C3029 C3025 1.400 . S
C3029 C3028 1.385 . S
C3030 C3028 1.478 . S
C3030 C3032 1.381 . S
C3030 C3036 1.383 . S
C3031 C3027 1.495 . S
C3031 H3037 0.959 . S
C3031 H3038 0.961 . S
C3031 H3039 0.960 . S
C3032 C3030 1.381 . S
C3032 C3033 1.394 . S
C3032 H3040 0.930 . S
C3033 C3032 1.394 . S
C3033 C3034 1.383 . S
C3033 H3041 0.929 . S
C3034 C3033 1.383 . S
C3034 C3035 1.377 . S
C3035 H3019 0.930 . S
C3035 C3034 1.377 . S
C3035 C3036 1.379 . S
C3036 H3020 0.931 . S
C3036 C3030 1.383 . S
C3036 C3035 1.379 . S
H3037 C3031 0.959 . S
H3038 C3031 0.961 . S
H3039 C3031 0.960 . S
H3040 C3032 0.930 . S
H3041 C3033 0.929 . S
H3042 C3050 0.929 . S
H3043 C3052 0.930 . S
H3044 C3054 0.930 . S
H3045 C3057 0.929 . S
H3046 C3060 0.930 . S
H3047 C3062 0.960 . S
H3048 C3062 0.960 . S
H3049 C3062 0.960 . S
C3050 H3042 0.929 . S
C3050 C3051 1.377 . S
C3050 C3052 1.384 . S
C3051 C3050 1.377 . S
C3051 C3057 1.390 . S
C3052 H3043 0.930 . S
C3052 C3050 1.384 . S
C3052 C3053 1.372 . S
C3053 C3052 1.372 . S
C3053 C3054 1.400 . S
C3053 C3058 1.490 . S
C3054 H3044 0.930 . S
C3054 C3053 1.400 . S
C3054 C3057 1.386 . S
H3055 C3071 0.930 . S
H3056 C3072 0.931 . S
C3057 H3045 0.929 . S
C3057 C3051 1.390 . S
C3057 C3054 1.386 . S
C3058 C3053 1.490 . S
C3058 C3060 1.395 . S
C3058 C3061 1.403 . S
H3059 C3065 0.930 . S
C3060 H3046 0.930 . S
C3060 C3058 1.395 . S
C3060 C3063 1.403 . S
C3061 C3058 1.403 . S
C3061 C3062 1.524 . S
C3061 C3065 1.400 . S
C3062 H3047 0.960 . S
C3062 H3048 0.960 . S
C3062 H3049 0.960 . S
C3062 C3061 1.524 . S
C3063 C3060 1.403 . S
C3063 C3064 1.392 . S
C3063 C3067 1.495 . S
C3064 C3063 1.392 . S
C3064 C3065 1.385 . S
C3064 C3066 1.478 . S
C3065 H3059 0.930 . S
C3065 C3061 1.400 . S
C3065 C3064 1.385 . S
C3066 C3064 1.478 . S
C3066 C3068 1.381 . S
C3066 C3072 1.383 . S
C3067 C3063 1.495 . S
C3067 H3073 0.959 . S
C3067 H3074 0.961 . S
C3067 H3075 0.960 . S
C3068 C3066 1.381 . S
C3068 C3069 1.394 . S
C3068 H3076 0.930 . S
C3069 C3068 1.394 . S
C3069 C3070 1.383 . S
C3069 H3077 0.929 . S
C3070 C3069 1.383 . S
C3070 C3071 1.377 . S
C3071 H3055 0.930 . S
C3071 C3070 1.377 . S
C3071 C3072 1.379 . S
C3072 H3056 0.931 . S
C3072 C3066 1.383 . S
C3072 C3071 1.379 . S
H3073 C3067 0.959 . S
H3074 C3067 0.961 . S
H3075 C3067 0.960 . S
H3076 C3068 0.930 . S
H3077 C3069 0.929 . S
H3078 C3086 0.929 . S
H3079 C3088 0.930 . S
H3080 C3090 0.930 . S
H3081 C3093 0.929 . S
H3082 C3096 0.930 . S
H3083 C3098 0.960 . S
H3084 C3098 0.960 . S
H3085 C3098 0.960 . S
C3086 H3078 0.929 . S
C3086 C3087 1.377 . S
C3086 C3088 1.384 . S
C3087 C3086 1.377 . S
C3087 C3093 1.390 . S
C3088 H3079 0.930 . S
C3088 C3086 1.384 . S
C3088 C3089 1.372 . S
C3089 C3088 1.372 . S
C3089 C3090 1.400 . S
C3089 C3094 1.490 . S
C3090 H3080 0.930 . S
C3090 C3089 1.400 . S
C3090 C3093 1.386 . S
H3091 C3107 0.930 . S
H3092 C3108 0.931 . S
C3093 H3081 0.929 . S
C3093 C3087 1.390 . S
C3093 C3090 1.386 . S
C3094 C3089 1.490 . S
C3094 C3096 1.395 . S
C3094 C3097 1.403 . S
H3095 C3101 0.930 . S
C3096 H3082 0.930 . S
C3096 C3094 1.395 . S
C3096 C3099 1.403 . S
C3097 C3094 1.403 . S
C3097 C3098 1.524 . S
C3097 C3101 1.400 . S
C3098 H3083 0.960 . S
C3098 H3084 0.960 . S
C3098 H3085 0.960 . S
C3098 C3097 1.524 . S
C3099 C3096 1.403 . S
C3099 C3100 1.392 . S
C3099 C3103 1.495 . S
C3100 C3099 1.392 . S
C3100 C3101 1.385 . S
C3100 C3102 1.478 . S
C3101 H3095 0.930 . S
C3101 C3097 1.400 . S
C3101 C3100 1.385 . S
C3102 C3100 1.478 . S
C3102 C3104 1.381 . S
C3102 C3108 1.383 . S
C3103 C3099 1.495 . S
C3103 H3109 0.959 . S
C3103 H3110 0.961 . S
C3103 H3111 0.960 . S
C3104 C3102 1.381 . S
C3104 C3105 1.394 . S
C3104 H3112 0.930 . S
C3105 C3104 1.394 . S
C3105 C3106 1.383 . S
C3105 H3113 0.929 . S
C3106 C3105 1.383 . S
C3106 C3107 1.377 . S
C3107 H3091 0.930 . S
C3107 C3106 1.377 . S
C3107 C3108 1.379 . S
C3108 H3092 0.931 . S
C3108 C3102 1.383 . S
C3108 C3107 1.379 . S
H3109 C3103 0.959 . S
H3110 C3103 0.961 . S
H3111 C3103 0.960 . S
H3112 C3104 0.930 . S
H3113 C3105 0.929 . S
H3114 C3122 0.929 . S
H3115 C3124 0.930 . S
H3116 C3126 0.930 . S
H3117 C3129 0.929 . S
H3118 C3132 0.930 . S
H3119 C3134 0.960 . S
H3120 C3134 0.960 . S
H3121 C3134 0.960 . S
C3122 H3114 0.929 . S
C3122 C3123 1.377 . S
C3122 C3124 1.384 . S
C3123 C3122 1.377 . S
C3123 C3129 1.390 . S
C3124 H3115 0.930 . S
C3124 C3122 1.384 . S
C3124 C3125 1.372 . S
C3125 C3124 1.372 . S
C3125 C3126 1.400 . S
C3125 C3130 1.490 . S
C3126 H3116 0.930 . S
C3126 C3125 1.400 . S
C3126 C3129 1.386 . S
H3127 C3143 0.930 . S
H3128 C3144 0.931 . S
C3129 H3117 0.929 . S
C3129 C3123 1.390 . S
C3129 C3126 1.386 . S
C3130 C3125 1.490 . S
C3130 C3132 1.395 . S
C3130 C3133 1.403 . S
H3131 C3137 0.930 . S
C3132 H3118 0.930 . S
C3132 C3130 1.395 . S
C3132 C3135 1.403 . S
C3133 C3130 1.403 . S
C3133 C3134 1.524 . S
C3133 C3137 1.400 . S
C3134 H3119 0.960 . S
C3134 H3120 0.960 . S
C3134 H3121 0.960 . S
C3134 C3133 1.524 . S
C3135 C3132 1.403 . S
C3135 C3136 1.392 . S
C3135 C3139 1.495 . S
C3136 C3135 1.392 . S
C3136 C3137 1.385 . S
C3136 C3138 1.478 . S
C3137 H3131 0.930 . S
C3137 C3133 1.400 . S
C3137 C3136 1.385 . S
C3138 C3136 1.478 . S
C3138 C3140 1.381 . S
C3138 C3144 1.383 . S
C3139 C3135 1.495 . S
C3139 H3145 0.959 . S
C3139 H3146 0.961 . S
C3139 H3147 0.960 . S
C3140 C3138 1.381 . S
C3140 C3141 1.394 . S
C3140 H3148 0.930 . S
C3141 C3140 1.394 . S
C3141 C3142 1.383 . S
C3141 H3149 0.929 . S
C3142 C3141 1.383 . S
C3142 C3143 1.377 . S
C3143 H3127 0.930 . S
C3143 C3142 1.377 . S
C3143 C3144 1.379 . S
C3144 H3128 0.931 . S
C3144 C3138 1.383 . S
C3144 C3143 1.379 . S
H3145 C3139 0.959 . S
H3146 C3139 0.961 . S
H3147 C3139 0.960 . S
H3148 C3140 0.930 . S
H3149 C3141 0.929 . S
H3150 C3158 0.929 . S
H3151 C3160 0.930 . S
H3152 C3162 0.930 . S
H3153 C3165 0.929 . S
H3154 C3168 0.930 . S
H3155 C3170 0.960 . S
H3156 C3170 0.960 . S
H3157 C3170 0.960 . S
C3158 H3150 0.929 . S
C3158 C3159 1.377 . S
C3158 C3160 1.384 . S
C3159 C3158 1.377 . S
C3159 C3165 1.390 . S
C3160 H3151 0.930 . S
C3160 C3158 1.384 . S
C3160 C3161 1.372 . S
C3161 C3160 1.372 . S
C3161 C3162 1.400 . S
C3161 C3166 1.490 . S
C3162 H3152 0.930 . S
C3162 C3161 1.400 . S
C3162 C3165 1.386 . S
H3163 C3179 0.930 . S
H3164 C3180 0.931 . S
C3165 H3153 0.929 . S
C3165 C3159 1.390 . S
C3165 C3162 1.386 . S
C3166 C3161 1.490 . S
C3166 C3168 1.395 . S
C3166 C3169 1.403 . S
H3167 C3173 0.930 . S
C3168 H3154 0.930 . S
C3168 C3166 1.395 . S
C3168 C3171 1.403 . S
C3169 C3166 1.403 . S
C3169 C3170 1.524 . S
C3169 C3173 1.400 . S
C3170 H3155 0.960 . S
C3170 H3156 0.960 . S
C3170 H3157 0.960 . S
C3170 C3169 1.524 . S
C3171 C3168 1.403 . S
C3171 C3172 1.392 . S
C3171 C3175 1.495 . S
C3172 C3171 1.392 . S
C3172 C3173 1.385 . S
C3172 C3174 1.478 . S
C3173 H3167 0.930 . S
C3173 C3169 1.400 . S
C3173 C3172 1.385 . S
C3174 C3172 1.478 . S
C3174 C3176 1.381 . S
C3174 C3180 1.383 . S
C3175 C3171 1.495 . S
C3175 H3181 0.959 . S
C3175 H3182 0.961 . S
C3175 H3183 0.960 . S
C3176 C3174 1.381 . S
C3176 C3177 1.394 . S
C3176 H3184 0.930 . S
C3177 C3176 1.394 . S
C3177 C3178 1.383 . S
C3177 H3185 0.929 . S
C3178 C3177 1.383 . S
C3178 C3179 1.377 . S
C3179 H3163 0.930 . S
C3179 C3178 1.377 . S
C3179 C3180 1.379 . S
C3180 H3164 0.931 . S
C3180 C3174 1.383 . S
C3180 C3179 1.379 . S
H3181 C3175 0.959 . S
H3182 C3175 0.961 . S
H3183 C3175 0.960 . S
H3184 C3176 0.930 . S
H3185 C3177 0.929 . S
H3186 C3194 0.929 . S
H3187 C3196 0.930 . S
H3188 C3198 0.930 . S
H3189 C3201 0.929 . S
H3190 C3204 0.930 . S
H3191 C3206 0.960 . S
H3192 C3206 0.960 . S
H3193 C3206 0.960 . S
C3194 H3186 0.929 . S
C3194 C3195 1.377 . S
C3194 C3196 1.384 . S
C3195 C3194 1.377 . S
C3195 C3201 1.390 . S
C3196 H3187 0.930 . S
C3196 C3194 1.384 . S
C3196 C3197 1.372 . S
C3197 C3196 1.372 . S
C3197 C3198 1.400 . S
C3197 C3202 1.490 . S
C3198 H3188 0.930 . S
C3198 C3197 1.400 . S
C3198 C3201 1.386 . S
H3199 C3215 0.930 . S
H3200 C3216 0.931 . S
C3201 H3189 0.929 . S
C3201 C3195 1.390 . S
C3201 C3198 1.386 . S
C3202 C3197 1.490 . S
C3202 C3204 1.395 . S
C3202 C3205 1.403 . S
H3203 C3209 0.930 . S
C3204 H3190 0.930 . S
C3204 C3202 1.395 . S
C3204 C3207 1.403 . S
C3205 C3202 1.403 . S
C3205 C3206 1.524 . S
C3205 C3209 1.400 . S
C3206 H3191 0.960 . S
C3206 H3192 0.960 . S
C3206 H3193 0.960 . S
C3206 C3205 1.524 . S
C3207 C3204 1.403 . S
C3207 C3208 1.392 . S
C3207 C3211 1.495 . S
C3208 C3207 1.392 . S
C3208 C3209 1.385 . S
C3208 C3210 1.478 . S
C3209 H3203 0.930 . S
C3209 C3205 1.400 . S
C3209 C3208 1.385 . S
C3210 C3208 1.478 . S
C3210 C3212 1.381 . S
C3210 C3216 1.383 . S
C3211 C3207 1.495 . S
C3211 H3217 0.959 . S
C3211 H3218 0.961 . S
C3211 H3219 0.960 . S
C3212 C3210 1.381 . S
C3212 C3213 1.394 . S
C3212 H3220 0.930 . S
C3213 C3212 1.394 . S
C3213 C3214 1.383 . S
C3213 H3221 0.929 . S
C3214 C3213 1.383 . S
C3214 C3215 1.377 . S
C3215 H3199 0.930 . S
C3215 C3214 1.377 . S
C3215 C3216 1.379 . S
C3216 H3200 0.931 . S
C3216 C3210 1.383 . S
C3216 C3215 1.379 . S
H3217 C3211 0.959 . S
H3218 C3211 0.961 . S
H3219 C3211 0.960 . S
H3220 C3212 0.930 . S
H3221 C3213 0.929 . S
H3222 C3230 0.929 . S
H3223 C3232 0.930 . S
H3224 C3234 0.930 . S
H3225 C3237 0.929 . S
H3226 C3240 0.930 . S
H3227 C3242 0.960 . S
H3228 C3242 0.960 . S
H3229 C3242 0.960 . S
C3230 H3222 0.929 . S
C3230 C3231 1.377 . S
C3230 C3232 1.384 . S
C3231 C3230 1.377 . S
C3231 C3237 1.390 . S
C3232 H3223 0.930 . S
C3232 C3230 1.384 . S
C3232 C3233 1.372 . S
C3233 C3232 1.372 . S
C3233 C3234 1.400 . S
C3233 C3238 1.490 . S
C3234 H3224 0.930 . S
C3234 C3233 1.400 . S
C3234 C3237 1.386 . S
H3235 C3251 0.930 . S
H3236 C3252 0.931 . S
C3237 H3225 0.929 . S
C3237 C3231 1.390 . S
C3237 C3234 1.386 . S
C3238 C3233 1.490 . S
C3238 C3240 1.395 . S
C3238 C3241 1.403 . S
H3239 C3245 0.930 . S
C3240 H3226 0.930 . S
C3240 C3238 1.395 . S
C3240 C3243 1.403 . S
C3241 C3238 1.403 . S
C3241 C3242 1.524 . S
C3241 C3245 1.400 . S
C3242 H3227 0.960 . S
C3242 H3228 0.960 . S
C3242 H3229 0.960 . S
C3242 C3241 1.524 . S
C3243 C3240 1.403 . S
C3243 C3244 1.392 . S
C3243 C3247 1.495 . S
C3244 C3243 1.392 . S
C3244 C3245 1.385 . S
C3244 C3246 1.478 . S
C3245 H3239 0.930 . S
C3245 C3241 1.400 . S
C3245 C3244 1.385 . S
C3246 C3244 1.478 . S
C3246 C3248 1.381 . S
C3246 C3252 1.383 . S
C3247 C3243 1.495 . S
C3247 H3253 0.959 . S
C3247 H3254 0.961 . S
C3247 H3255 0.960 . S
C3248 C3246 1.381 . S
C3248 C3249 1.394 . S
C3248 H3256 0.930 . S
C3249 C3248 1.394 . S
C3249 C3250 1.383 . S
C3249 H3257 0.929 . S
C3250 C3249 1.383 . S
C3250 C3251 1.377 . S
C3251 H3235 0.930 . S
C3251 C3250 1.377 . S
C3251 C3252 1.379 . S
C3252 H3236 0.931 . S
C3252 C3246 1.383 . S
C3252 C3251 1.379 . S
H3253 C3247 0.959 . S
H3254 C3247 0.961 . S
H3255 C3247 0.960 . S
H3256 C3248 0.930 . S
H3257 C3249 0.929 . S
H3258 C3266 0.929 . S
H3259 C3268 0.930 . S
H3260 C3270 0.930 . S
H3261 C3273 0.929 . S
H3262 C3276 0.930 . S
H3263 C3278 0.960 . S
H3264 C3278 0.960 . S
H3265 C3278 0.960 . S
C3266 H3258 0.929 . S
C3266 C3267 1.377 . S
C3266 C3268 1.384 . S
C3267 C3266 1.377 . S
C3267 C3273 1.390 . S
C3268 H3259 0.930 . S
C3268 C3266 1.384 . S
C3268 C3269 1.372 . S
C3269 C3268 1.372 . S
C3269 C3270 1.400 . S
C3269 C3274 1.490 . S
C3270 H3260 0.930 . S
C3270 C3269 1.400 . S
C3270 C3273 1.386 . S
H3271 C3287 0.930 . S
H3272 C3288 0.931 . S
C3273 H3261 0.929 . S
C3273 C3267 1.390 . S
C3273 C3270 1.386 . S
C3274 C3269 1.490 . S
C3274 C3276 1.395 . S
C3274 C3277 1.403 . S
H3275 C3281 0.930 . S
C3276 H3262 0.930 . S
C3276 C3274 1.395 . S
C3276 C3279 1.403 . S
C3277 C3274 1.403 . S
C3277 C3278 1.524 . S
C3277 C3281 1.400 . S
C3278 H3263 0.960 . S
C3278 H3264 0.960 . S
C3278 H3265 0.960 . S
C3278 C3277 1.524 . S
C3279 C3276 1.403 . S
C3279 C3280 1.392 . S
C3279 C3283 1.495 . S
C3280 C3279 1.392 . S
C3280 C3281 1.385 . S
C3280 C3282 1.478 . S
C3281 H3275 0.930 . S
C3281 C3277 1.400 . S
C3281 C3280 1.385 . S
C3282 C3280 1.478 . S
C3282 C3284 1.381 . S
C3282 C3288 1.383 . S
C3283 C3279 1.495 . S
C3283 H3289 0.959 . S
C3283 H3290 0.961 . S
C3283 H3291 0.960 . S
C3284 C3282 1.381 . S
C3284 C3285 1.394 . S
C3284 H3292 0.930 . S
C3285 C3284 1.394 . S
C3285 C3286 1.383 . S
C3285 H3293 0.929 . S
C3286 C3285 1.383 . S
C3286 C3287 1.377 . S
C3287 H3271 0.930 . S
C3287 C3286 1.377 . S
C3287 C3288 1.379 . S
C3288 H3272 0.931 . S
C3288 C3282 1.383 . S
C3288 C3287 1.379 . S
H3289 C3283 0.959 . S
H3290 C3283 0.961 . S
H3291 C3283 0.960 . S
H3292 C3284 0.930 . S
H3293 C3285 0.929 . S
H3294 C3302 0.929 . S
H3295 C3304 0.930 . S
H3296 C3306 0.930 . S
H3297 C3309 0.929 . S
H3298 C3312 0.930 . S
H3299 C3314 0.960 . S
H3300 C3314 0.960 . S
H3301 C3314 0.960 . S
C3302 H3294 0.929 . S
C3302 C3303 1.377 . S
C3302 C3304 1.384 . S
C3303 C3302 1.377 . S
C3303 C3309 1.390 . S
C3304 H3295 0.930 . S
C3304 C3302 1.384 . S
C3304 C3305 1.372 . S
C3305 C3304 1.372 . S
C3305 C3306 1.400 . S
C3305 C3310 1.490 . S
C3306 H3296 0.930 . S
C3306 C3305 1.400 . S
C3306 C3309 1.386 . S
H3307 C3323 0.930 . S
H3308 C3324 0.931 . S
C3309 H3297 0.929 . S
C3309 C3303 1.390 . S
C3309 C3306 1.386 . S
C3310 C3305 1.490 . S
C3310 C3312 1.395 . S
C3310 C3313 1.403 . S
H3311 C3317 0.930 . S
C3312 H3298 0.930 . S
C3312 C3310 1.395 . S
C3312 C3315 1.403 . S
C3313 C3310 1.403 . S
C3313 C3314 1.524 . S
C3313 C3317 1.400 . S
C3314 H3299 0.960 . S
C3314 H3300 0.960 . S
C3314 H3301 0.960 . S
C3314 C3313 1.524 . S
C3315 C3312 1.403 . S
C3315 C3316 1.392 . S
C3315 C3319 1.495 . S
C3316 C3315 1.392 . S
C3316 C3317 1.385 . S
C3316 C3318 1.478 . S
C3317 H3311 0.930 . S
C3317 C3313 1.400 . S
C3317 C3316 1.385 . S
C3318 C3316 1.478 . S
C3318 C3320 1.381 . S
C3318 C3324 1.383 . S
C3319 C3315 1.495 . S
C3319 H3325 0.959 . S
C3319 H3326 0.961 . S
C3319 H3327 0.960 . S
C3320 C3318 1.381 . S
C3320 C3321 1.394 . S
C3320 H3328 0.930 . S
C3321 C3320 1.394 . S
C3321 C3322 1.383 . S
C3321 H3329 0.929 . S
C3322 C3321 1.383 . S
C3322 C3323 1.377 . S
C3323 H3307 0.930 . S
C3323 C3322 1.377 . S
C3323 C3324 1.379 . S
C3324 H3308 0.931 . S
C3324 C3318 1.383 . S
C3324 C3323 1.379 . S
H3325 C3319 0.959 . S
H3326 C3319 0.961 . S
H3327 C3319 0.960 . S
H3328 C3320 0.930 . S
H3329 C3321 0.929 . S
H3330 C3338 0.929 . S
H3331 C3340 0.930 . S
H3332 C3342 0.930 . S
H3333 C3345 0.929 . S
H3334 C3348 0.930 . S
H3335 C3350 0.960 . S
H3336 C3350 0.960 . S
H3337 C3350 0.960 . S
C3338 H3330 0.929 . S
C3338 C3339 1.377 . S
C3338 C3340 1.384 . S
C3339 C3338 1.377 . S
C3339 C3345 1.390 . S
C3340 H3331 0.930 . S
C3340 C3338 1.384 . S
C3340 C3341 1.372 . S
C3341 C3340 1.372 . S
C3341 C3342 1.400 . S
C3341 C3346 1.490 . S
C3342 H3332 0.930 . S
C3342 C3341 1.400 . S
C3342 C3345 1.386 . S
H3343 C3359 0.930 . S
H3344 C3360 0.931 . S
C3345 H3333 0.929 . S
C3345 C3339 1.390 . S
C3345 C3342 1.386 . S
C3346 C3341 1.490 . S
C3346 C3348 1.395 . S
C3346 C3349 1.403 . S
H3347 C3353 0.930 . S
C3348 H3334 0.930 . S
C3348 C3346 1.395 . S
C3348 C3351 1.403 . S
C3349 C3346 1.403 . S
C3349 C3350 1.524 . S
C3349 C3353 1.400 . S
C3350 H3335 0.960 . S
C3350 H3336 0.960 . S
C3350 H3337 0.960 . S
C3350 C3349 1.524 . S
C3351 C3348 1.403 . S
C3351 C3352 1.392 . S
C3351 C3355 1.495 . S
C3352 C3351 1.392 . S
C3352 C3353 1.385 . S
C3352 C3354 1.478 . S
C3353 H3347 0.930 . S
C3353 C3349 1.400 . S
C3353 C3352 1.385 . S
C3354 C3352 1.478 . S
C3354 C3356 1.381 . S
C3354 C3360 1.383 . S
C3355 C3351 1.495 . S
C3355 H3361 0.959 . S
C3355 H3362 0.961 . S
C3355 H3363 0.960 . S
C3356 C3354 1.381 . S
C3356 C3357 1.394 . S
C3356 H3364 0.930 . S
C3357 C3356 1.394 . S
C3357 C3358 1.383 . S
C3357 H3365 0.929 . S
C3358 C3357 1.383 . S
C3358 C3359 1.377 . S
C3359 H3343 0.930 . S
C3359 C3358 1.377 . S
C3359 C3360 1.379 . S
C3360 H3344 0.931 . S
C3360 C3354 1.383 . S
C3360 C3359 1.379 . S
H3361 C3355 0.959 . S
H3362 C3355 0.961 . S
H3363 C3355 0.960 . S
H3364 C3356 0.930 . S
H3365 C3357 0.929 . S
H3366 C3374 0.929 . S
H3367 C3376 0.930 . S
H3368 C3378 0.930 . S
H3369 C3381 0.929 . S
H3370 C3384 0.930 . S
H3371 C3386 0.960 . S
H3372 C3386 0.960 . S
H3373 C3386 0.960 . S
C3374 H3366 0.929 . S
C3374 C3375 1.377 . S
C3374 C3376 1.384 . S
C3375 C3374 1.377 . S
C3375 C3381 1.390 . S
C3376 H3367 0.930 . S
C3376 C3374 1.384 . S
C3376 C3377 1.372 . S
C3377 C3376 1.372 . S
C3377 C3378 1.400 . S
C3377 C3382 1.490 . S
C3378 H3368 0.930 . S
C3378 C3377 1.400 . S
C3378 C3381 1.386 . S
H3379 C3395 0.930 . S
H3380 C3396 0.931 . S
C3381 H3369 0.929 . S
C3381 C3375 1.390 . S
C3381 C3378 1.386 . S
C3382 C3377 1.490 . S
C3382 C3384 1.395 . S
C3382 C3385 1.403 . S
H3383 C3389 0.930 . S
C3384 H3370 0.930 . S
C3384 C3382 1.395 . S
C3384 C3387 1.403 . S
C3385 C3382 1.403 . S
C3385 C3386 1.524 . S
C3385 C3389 1.400 . S
C3386 H3371 0.960 . S
C3386 H3372 0.960 . S
C3386 H3373 0.960 . S
C3386 C3385 1.524 . S
C3387 C3384 1.403 . S
C3387 C3388 1.392 . S
C3387 C3391 1.495 . S
C3388 C3387 1.392 . S
C3388 C3389 1.385 . S
C3388 C3390 1.478 . S
C3389 H3383 0.930 . S
C3389 C3385 1.400 . S
C3389 C3388 1.385 . S
C3390 C3388 1.478 . S
C3390 C3392 1.381 . S
C3390 C3396 1.383 . S
C3391 C3387 1.495 . S
C3391 H3397 0.959 . S
C3391 H3398 0.961 . S
C3391 H3399 0.960 . S
C3392 C3390 1.381 . S
C3392 C3393 1.394 . S
C3392 H3400 0.930 . S
C3393 C3392 1.394 . S
C3393 C3394 1.383 . S
C3393 H3401 0.929 . S
C3394 C3393 1.383 . S
C3394 C3395 1.377 . S
C3395 H3379 0.930 . S
C3395 C3394 1.377 . S
C3395 C3396 1.379 . S
C3396 H3380 0.931 . S
C3396 C3390 1.383 . S
C3396 C3395 1.379 . S
H3397 C3391 0.959 . S
H3398 C3391 0.961 . S
H3399 C3391 0.960 . S
H3400 C3392 0.930 . S
H3401 C3393 0.929 . S
H3402 C3410 0.929 . S
H3403 C3412 0.930 . S
H3404 C3414 0.930 . S
H3405 C3417 0.929 . S
H3406 C3420 0.930 . S
H3407 C3422 0.960 . S
H3408 C3422 0.960 . S
H3409 C3422 0.960 . S
C3410 H3402 0.929 . S
C3410 C3411 1.377 . S
C3410 C3412 1.384 . S
C3411 C3410 1.377 . S
C3411 C3417 1.390 . S
C3412 H3403 0.930 . S
C3412 C3410 1.384 . S
C3412 C3413 1.372 . S
C3413 C3412 1.372 . S
C3413 C3414 1.400 . S
C3413 C3418 1.490 . S
C3414 H3404 0.930 . S
C3414 C3413 1.400 . S
C3414 C3417 1.386 . S
H3415 C3431 0.930 . S
H3416 C3432 0.931 . S
C3417 H3405 0.929 . S
C3417 C3411 1.390 . S
C3417 C3414 1.386 . S
C3418 C3413 1.490 . S
C3418 C3420 1.395 . S
C3418 C3421 1.403 . S
H3419 C3425 0.930 . S
C3420 H3406 0.930 . S
C3420 C3418 1.395 . S
C3420 C3423 1.403 . S
C3421 C3418 1.403 . S
C3421 C3422 1.524 . S
C3421 C3425 1.400 . S
C3422 H3407 0.960 . S
C3422 H3408 0.960 . S
C3422 H3409 0.960 . S
C3422 C3421 1.524 . S
C3423 C3420 1.403 . S
C3423 C3424 1.392 . S
C3423 C3427 1.495 . S
C3424 C3423 1.392 . S
C3424 C3425 1.385 . S
C3424 C3426 1.478 . S
C3425 H3419 0.930 . S
C3425 C3421 1.400 . S
C3425 C3424 1.385 . S
C3426 C3424 1.478 . S
C3426 C3428 1.381 . S
C3426 C3432 1.383 . S
C3427 C3423 1.495 . S
C3427 H3433 0.959 . S
C3427 H3434 0.961 . S
C3427 H3435 0.960 . S
C3428 C3426 1.381 . S
C3428 C3429 1.394 . S
C3428 H3436 0.930 . S
C3429 C3428 1.394 . S
C3429 C3430 1.383 . S
C3429 H3437 0.929 . S
C3430 C3429 1.383 . S
C3430 C3431 1.377 . S
C3431 H3415 0.930 . S
C3431 C3430 1.377 . S
C3431 C3432 1.379 . S
C3432 H3416 0.931 . S
C3432 C3426 1.383 . S
C3432 C3431 1.379 . S
H3433 C3427 0.959 . S
H3434 C3427 0.961 . S
H3435 C3427 0.960 . S
H3436 C3428 0.930 . S
H3437 C3429 0.929 . S
H3438 C3446 0.929 . S
H3439 C3448 0.930 . S
H3440 C3450 0.930 . S
H3441 C3453 0.929 . S
H3442 C3456 0.930 . S
H3443 C3458 0.960 . S
H3444 C3458 0.960 . S
H3445 C3458 0.960 . S
C3446 H3438 0.929 . S
C3446 C3447 1.377 . S
C3446 C3448 1.384 . S
C3447 C3446 1.377 . S
C3447 C3453 1.390 . S
C3448 H3439 0.930 . S
C3448 C3446 1.384 . S
C3448 C3449 1.372 . S
C3449 C3448 1.372 . S
C3449 C3450 1.400 . S
C3449 C3454 1.490 . S
C3450 H3440 0.930 . S
C3450 C3449 1.400 . S
C3450 C3453 1.386 . S
H3451 C3467 0.930 . S
H3452 C3468 0.931 . S
C3453 H3441 0.929 . S
C3453 C3447 1.390 . S
C3453 C3450 1.386 . S
C3454 C3449 1.490 . S
C3454 C3456 1.395 . S
C3454 C3457 1.403 . S
H3455 C3461 0.930 . S
C3456 H3442 0.930 . S
C3456 C3454 1.395 . S
C3456 C3459 1.403 . S
C3457 C3454 1.403 . S
C3457 C3458 1.524 . S
C3457 C3461 1.400 . S
C3458 H3443 0.960 . S
C3458 H3444 0.960 . S
C3458 H3445 0.960 . S
C3458 C3457 1.524 . S
C3459 C3456 1.403 . S
C3459 C3460 1.392 . S
C3459 C3463 1.495 . S
C3460 C3459 1.392 . S
C3460 C3461 1.385 . S
C3460 C3462 1.478 . S
C3461 H3455 0.930 . S
C3461 C3457 1.400 . S
C3461 C3460 1.385 . S
C3462 C3460 1.478 . S
C3462 C3464 1.381 . S
C3462 C3468 1.383 . S
C3463 C3459 1.495 . S
C3463 H3469 0.959 . S
C3463 H3470 0.961 . S
C3463 H3471 0.960 . S
C3464 C3462 1.381 . S
C3464 C3465 1.394 . S
C3464 H3472 0.930 . S
C3465 C3464 1.394 . S
C3465 C3466 1.383 . S
C3465 H3473 0.929 . S
C3466 C3465 1.383 . S
C3466 C3467 1.377 . S
C3467 H3451 0.930 . S
C3467 C3466 1.377 . S
C3467 C3468 1.379 . S
C3468 H3452 0.931 . S
C3468 C3462 1.383 . S
C3468 C3467 1.379 . S
H3469 C3463 0.959 . S
H3470 C3463 0.961 . S
H3471 C3463 0.960 . S
H3472 C3464 0.930 . S
H3473 C3465 0.929 . S
H3474 C3482 0.929 . S
H3475 C3484 0.930 . S
H3476 C3486 0.930 . S
H3477 C3489 0.929 . S
H3478 C3492 0.930 . S
H3479 C3494 0.960 . S
H3480 C3494 0.960 . S
H3481 C3494 0.960 . S
C3482 H3474 0.929 . S
C3482 C3483 1.377 . S
C3482 C3484 1.384 . S
C3483 C3482 1.377 . S
C3483 C3489 1.390 . S
C3484 H3475 0.930 . S
C3484 C3482 1.384 . S
C3484 C3485 1.372 . S
C3485 C3484 1.372 . S
C3485 C3486 1.400 . S
C3485 C3490 1.490 . S
C3486 H3476 0.930 . S
C3486 C3485 1.400 . S
C3486 C3489 1.386 . S
H3487 C3503 0.930 . S
H3488 C3504 0.931 . S
C3489 H3477 0.929 . S
C3489 C3483 1.390 . S
C3489 C3486 1.386 . S
C3490 C3485 1.490 . S
C3490 C3492 1.395 . S
C3490 C3493 1.403 . S
H3491 C3497 0.930 . S
C3492 H3478 0.930 . S
C3492 C3490 1.395 . S
C3492 C3495 1.403 . S
C3493 C3490 1.403 . S
C3493 C3494 1.524 . S
C3493 C3497 1.400 . S
C3494 H3479 0.960 . S
C3494 H3480 0.960 . S
C3494 H3481 0.960 . S
C3494 C3493 1.524 . S
C3495 C3492 1.403 . S
C3495 C3496 1.392 . S
C3495 C3499 1.495 . S
C3496 C3495 1.392 . S
C3496 C3497 1.385 . S
C3496 C3498 1.478 . S
C3497 H3491 0.930 . S
C3497 C3493 1.400 . S
C3497 C3496 1.385 . S
C3498 C3496 1.478 . S
C3498 C3500 1.381 . S
C3498 C3504 1.383 . S
C3499 C3495 1.495 . S
C3499 H3505 0.959 . S
C3499 H3506 0.961 . S
C3499 H3507 0.960 . S
C3500 C3498 1.381 . S
C3500 C3501 1.394 . S
C3500 H3508 0.930 . S
C3501 C3500 1.394 . S
C3501 C3502 1.383 . S
C3501 H3509 0.929 . S
C3502 C3501 1.383 . S
C3502 C3503 1.377 . S
C3503 H3487 0.930 . S
C3503 C3502 1.377 . S
C3503 C3504 1.379 . S
C3504 H3488 0.931 . S
C3504 C3498 1.383 . S
C3504 C3503 1.379 . S
H3505 C3499 0.959 . S
H3506 C3499 0.961 . S
H3507 C3499 0.960 . S
H3508 C3500 0.930 . S
H3509 C3501 0.929 . S
H3510 C3518 0.929 . S
H3511 C3520 0.930 . S
H3512 C3522 0.930 . S
H3513 C3525 0.929 . S
H3514 C3528 0.930 . S
H3515 C3530 0.960 . S
H3516 C3530 0.960 . S
H3517 C3530 0.960 . S
C3518 H3510 0.929 . S
C3518 C3519 1.377 . S
C3518 C3520 1.384 . S
C3519 C3518 1.377 . S
C3519 C3525 1.390 . S
C3520 H3511 0.930 . S
C3520 C3518 1.384 . S
C3520 C3521 1.372 . S
C3521 C3520 1.372 . S
C3521 C3522 1.400 . S
C3521 C3526 1.490 . S
C3522 H3512 0.930 . S
C3522 C3521 1.400 . S
C3522 C3525 1.386 . S
H3523 C3539 0.930 . S
H3524 C3540 0.931 . S
C3525 H3513 0.929 . S
C3525 C3519 1.390 . S
C3525 C3522 1.386 . S
C3526 C3521 1.490 . S
C3526 C3528 1.395 . S
C3526 C3529 1.403 . S
H3527 C3533 0.930 . S
C3528 H3514 0.930 . S
C3528 C3526 1.395 . S
C3528 C3531 1.403 . S
C3529 C3526 1.403 . S
C3529 C3530 1.524 . S
C3529 C3533 1.400 . S
C3530 H3515 0.960 . S
C3530 H3516 0.960 . S
C3530 H3517 0.960 . S
C3530 C3529 1.524 . S
C3531 C3528 1.403 . S
C3531 C3532 1.392 . S
C3531 C3535 1.495 . S
C3532 C3531 1.392 . S
C3532 C3533 1.385 . S
C3532 C3534 1.478 . S
C3533 H3527 0.930 . S
C3533 C3529 1.400 . S
C3533 C3532 1.385 . S
C3534 C3532 1.478 . S
C3534 C3536 1.381 . S
C3534 C3540 1.383 . S
C3535 C3531 1.495 . S
C3535 H3541 0.959 . S
C3535 H3542 0.961 . S
C3535 H3543 0.960 . S
C3536 C3534 1.381 . S
C3536 C3537 1.394 . S
C3536 H3544 0.930 . S
C3537 C3536 1.394 . S
C3537 C3538 1.383 . S
C3537 H3545 0.929 . S
C3538 C3537 1.383 . S
C3538 C3539 1.377 . S
C3539 H3523 0.930 . S
C3539 C3538 1.377 . S
C3539 C3540 1.379 . S
C3540 H3524 0.931 . S
C3540 C3534 1.383 . S
C3540 C3539 1.379 . S
H3541 C3535 0.959 . S
H3542 C3535 0.961 . S
H3543 C3535 0.960 . S
H3544 C3536 0.930 . S
H3545 C3537 0.929 . S
H3546 C3554 0.929 . S
H3547 C3556 0.930 . S
H3548 C3558 0.930 . S
H3549 C3561 0.929 . S
H3550 C3564 0.930 . S
H3551 C3566 0.960 . S
H3552 C3566 0.960 . S
H3553 C3566 0.960 . S
C3554 H3546 0.929 . S
C3554 C3555 1.377 . S
C3554 C3556 1.384 . S
C3555 C3554 1.377 . S
C3555 C3561 1.390 . S
C3556 H3547 0.930 . S
C3556 C3554 1.384 . S
C3556 C3557 1.372 . S
C3557 C3556 1.372 . S
C3557 C3558 1.400 . S
C3557 C3562 1.490 . S
C3558 H3548 0.930 . S
C3558 C3557 1.400 . S
C3558 C3561 1.386 . S
H3559 C3575 0.930 . S
H3560 C3576 0.931 . S
C3561 H3549 0.929 . S
C3561 C3555 1.390 . S
C3561 C3558 1.386 . S
C3562 C3557 1.490 . S
C3562 C3564 1.395 . S
C3562 C3565 1.403 . S
H3563 C3569 0.930 . S
C3564 H3550 0.930 . S
C3564 C3562 1.395 . S
C3564 C3567 1.403 . S
C3565 C3562 1.403 . S
C3565 C3566 1.524 . S
C3565 C3569 1.400 . S
C3566 H3551 0.960 . S
C3566 H3552 0.960 . S
C3566 H3553 0.960 . S
C3566 C3565 1.524 . S
C3567 C3564 1.403 . S
C3567 C3568 1.392 . S
C3567 C3571 1.495 . S
C3568 C3567 1.392 . S
C3568 C3569 1.385 . S
C3568 C3570 1.478 . S
C3569 H3563 0.930 . S
C3569 C3565 1.400 . S
C3569 C3568 1.385 . S
C3570 C3568 1.478 . S
C3570 C3572 1.381 . S
C3570 C3576 1.383 1_554 S
C3571 C3567 1.495 . S
C3571 H3577 0.959 . S
C3571 H3578 0.961 . S
C3571 H3579 0.960 . S
C3572 C3570 1.381 . S
C3572 C3573 1.394 1_554 S
C3572 H3580 0.930 . S
C3573 C3572 1.394 1_556 S
C3573 C3574 1.383 . S
C3573 H3581 0.929 . S
C3574 C3573 1.383 . S
C3574 C3575 1.377 . S
C3575 H3559 0.930 . S
C3575 C3574 1.377 . S
C3575 C3576 1.379 . S
C3576 H3560 0.931 . S
C3576 C3570 1.383 1_556 S
C3576 C3575 1.379 . S
H3577 C3571 0.959 . S
H3578 C3571 0.961 . S
H3579 C3571 0.960 . S
H3580 C3572 0.930 . S
H3581 C3573 0.929 . S
H3582 C3590 0.929 . S
H3583 C3592 0.930 . S
H3584 C3594 0.930 . S
H3585 C3597 0.929 . S
H3586 C3600 0.930 . S
H3587 C3602 0.960 . S
H3588 C3602 0.960 . S
H3589 C3602 0.960 . S
C3590 H3582 0.929 . S
C3590 C3591 1.377 . S
C3590 C3592 1.384 . S
C3591 C3590 1.377 . S
C3591 C3597 1.390 . S
C3592 H3583 0.930 . S
C3592 C3590 1.384 . S
C3592 C3593 1.372 . S
C3593 C3592 1.372 . S
C3593 C3594 1.400 . S
C3593 C3598 1.490 . S
C3594 H3584 0.930 . S
C3594 C3593 1.400 . S
C3594 C3597 1.386 . S
H3595 C3611 0.930 . S
H3596 C3612 0.931 . S
C3597 H3585 0.929 . S
C3597 C3591 1.390 . S
C3597 C3594 1.386 . S
C3598 C3593 1.490 . S
C3598 C3600 1.395 . S
C3598 C3601 1.403 . S
H3599 C3605 0.930 . S
C3600 H3586 0.930 . S
C3600 C3598 1.395 . S
C3600 C3603 1.403 . S
C3601 C3598 1.403 . S
C3601 C3602 1.524 . S
C3601 C3605 1.400 . S
C3602 H3587 0.960 . S
C3602 H3588 0.960 . S
C3602 H3589 0.960 . S
C3602 C3601 1.524 . S
C3603 C3600 1.403 . S
C3603 C3604 1.392 . S
C3603 C3607 1.495 . S
C3604 C3603 1.392 . S
C3604 C3605 1.385 . S
C3604 C3606 1.478 . S
C3605 H3599 0.930 . S
C3605 C3601 1.400 . S
C3605 C3604 1.385 . S
C3606 C3604 1.478 . S
C3606 C3608 1.381 . S
C3606 C3612 1.383 . S
C3607 C3603 1.495 . S
C3607 H3613 0.959 . S
C3607 H3614 0.961 . S
C3607 H3615 0.960 . S
C3608 C3606 1.381 . S
C3608 C3609 1.394 1_554 S
C3608 H3616 0.930 . S
C3609 C3608 1.394 1_556 S
C3609 C3610 1.383 . S
C3609 H3617 0.929 . S
C3610 C3609 1.383 . S
C3610 C3611 1.377 1_556 S
C3611 H3595 0.930 . S
C3611 C3610 1.377 1_554 S
C3611 C3612 1.379 . S
C3612 H3596 0.931 . S
C3612 C3606 1.383 . S
C3612 C3611 1.379 . S
H3613 C3607 0.959 . S
H3614 C3607 0.961 . S
H3615 C3607 0.960 . S
H3616 C3608 0.930 . S
H3617 C3609 0.929 . S
H3618 C3626 0.929 . S
H3619 C3628 0.930 . S
H3620 C3630 0.930 . S
H3621 C3633 0.929 . S
H3622 C3636 0.930 . S
H3623 C3638 0.960 . S
H3624 C3638 0.960 . S
H3625 C3638 0.960 . S
C3626 H3618 0.929 . S
C3626 C3627 1.377 . S
C3626 C3628 1.384 . S
C3627 C3626 1.377 . S
C3627 C3633 1.390 . S
C3628 H3619 0.930 . S
C3628 C3626 1.384 . S
C3628 C3629 1.372 . S
C3629 C3628 1.372 . S
C3629 C3630 1.400 . S
C3629 C3634 1.490 . S
C3630 H3620 0.930 . S
C3630 C3629 1.400 . S
C3630 C3633 1.386 . S
H3631 C3647 0.930 . S
H3632 C3648 0.931 . S
C3633 H3621 0.929 . S
C3633 C3627 1.390 . S
C3633 C3630 1.386 . S
C3634 C3629 1.490 . S
C3634 C3636 1.395 . S
C3634 C3637 1.403 . S
H3635 C3641 0.930 . S
C3636 H3622 0.930 . S
C3636 C3634 1.395 . S
C3636 C3639 1.403 . S
C3637 C3634 1.403 . S
C3637 C3638 1.524 . S
C3637 C3641 1.400 . S
C3638 H3623 0.960 . S
C3638 H3624 0.960 . S
C3638 H3625 0.960 . S
C3638 C3637 1.524 . S
C3639 C3636 1.403 . S
C3639 C3640 1.392 . S
C3639 C3643 1.495 . S
C3640 C3639 1.392 . S
C3640 C3641 1.385 . S
C3640 C3642 1.478 . S
C3641 H3635 0.930 . S
C3641 C3637 1.400 . S
C3641 C3640 1.385 . S
C3642 C3640 1.478 . S
C3642 C3644 1.381 . S
C3642 C3648 1.383 1_554 S
C3643 C3639 1.495 . S
C3643 H3649 0.959 . S
C3643 H3650 0.961 . S
C3643 H3651 0.960 . S
C3644 C3642 1.381 . S
C3644 C3645 1.394 1_554 S
C3644 H3652 0.930 . S
C3645 C3644 1.394 1_556 S
C3645 C3646 1.383 . S
C3645 H3653 0.934 . S
C3646 C3645 1.383 . S
C3646 C3647 1.377 . S
C3647 H3631 0.930 . S
C3647 C3646 1.377 . S
C3647 C3648 1.379 . S
C3648 H3632 0.931 . S
C3648 C3642 1.383 1_556 S
C3648 C3647 1.379 . S
H3649 C3643 0.959 . S
H3650 C3643 0.961 . S
H3651 C3643 0.960 . S
H3652 C3644 0.930 . S
H3653 C3645 0.934 . S
C1071 C7 1.373 . S
C1090 C814 1.364 . S
C1126 C742 1.769 . S
C1107 C39 1.751 . S
C1162 C776 1.556 . S
C1143 C62 1.530 . S
C1179 C76 1.858 . S
C1198 C956 1.845 . S
C1215 C108 1.400 . S
C1234 C994 1.400 . S
C1251 N117 1.301 . S
C1270 C1028 1.285 . S
C1306 C921 1.377 . S
C1287 C16 1.353 . S
C1323 C30 1.826 . S
C1342 C849 1.822 . S
C1378 C884 1.550 . S
C1359 C53 1.552 1_556 S
C1395 C85 1.854 . S
C1414 C632 1.820 . S
C1450 C669 1.627 . S
C1431 C99 1.629 . S
C1467 N127 1.257 . S
C1486 C704 1.291 . S
C1503 N150 1.108 . S
C1522 C1030 1.112 . S
C1558 C958 1.532 . S
C1539 N173 1.525 . S
C1594 C992 1.400 1_455 S
C1575 C200 1.383 . S
C1611 C214 1.683 . S
C1630 C524 1.656 . S
C1647 N232 1.451 . S
C1666 C562 1.457 . S
C1683 C260 1.461 . S
C1702 C596 1.460 1_565 S
C1738 C489 1.219 . S
C1719 N140 1.180 . S
C1755 N163 1.264 . S
C1774 C417 1.319 . S
C1810 C452 1.626 . S
C1791 C191 1.630 . S
C1846 C848 1.933 . S
C1827 C223 1.949 . S
C1882 C885 1.404 . S
C1863 N242 1.366 . S
C1918 C920 1.471 . S
C1899 C269 1.477 . S
C1935 N288 1.247 . S
C1954 C598 1.261 . S
C1971 C315 1.505 . S
C1990 C526 1.530 . S
C2007 C338 1.606 . S
C2026 C560 1.614 . S
C2043 C352 1.864 . S
C2062 C740 1.840 . S
C2098 C778 1.507 . S
C2079 N370 1.503 . S
C2134 C812 1.519 . S
C2115 C398 1.527 . S
C2170 C705 1.177 . S
C2151 N278 1.128 . S
C2187 C306 1.739 . S
C2206 C633 1.742 . S
C2223 C329 1.640 . S
C2242 C668 1.639 . S
C2278 C416 1.568 . S
C2259 C361 1.598 . S
C2295 N380 1.420 . S
C2314 C453 1.464 . S
C2350 C488 1.429 . S
C2331 C407 1.445 . S
C2386 C525 1.420 . S
C2367 N12 1.378 . S
C2403 N25 1.515 . S
C2422 C572 1.483 . S
C2458 C597 1.243 . S
C2439 N48 1.194 1_545 S
C2494 C608 1.272 . S
C2475 N81 1.292 . S
C2530 C536 1.486 . S
C2511 N94 1.509 . S
C2566 C561 1.530 . S
C2547 C131 1.518 . S
C2602 C418 1.431 . S
C2583 N2 1.429 . S
C2619 N35 1.441 . S
C2638 C464 1.445 . S
C2655 N58 1.241 . S
C2674 C490 1.269 . S
C2710 C500 1.241 . S
C2691 N71 1.229 . S
C2746 C428 1.375 . S
C2727 N104 1.395 . S
C2782 C454 1.551 . S
C2763 C122 1.552 . S
C2799 C145 2.012 . S
C2818 C741 2.021 . S
C2835 C168 1.675 . S
C2854 C788 1.643 . S
C2871 N186 1.324 . S
C2890 C813 1.343 . S
C2926 C824 1.289 . S
C2907 N219 1.288 . S
C2962 C752 1.721 . S
C2943 C246 1.800 . S
C2998 C777 1.464 . S
C2979 N265 1.434 . S
C3034 C634 1.931 . S
C3015 C154 1.934 . S
C3051 C177 1.793 . S
C3070 C680 1.707 . S
C3087 N196 1.213 . S
C3106 C706 1.243 . S
C3123 N209 1.116 . S
C3142 C716 1.159 . S
C3159 C237 1.874 . S
C3178 C644 1.849 . S
C3214 C670 1.424 . S
C3195 N255 1.381 . S
C3231 C283 1.775 . S
C3250 C957 1.777 . S
C3267 N301 1.396 . S
C3286 C1004 1.351 . S
C3303 N324 1.217 . S
C3322 C1029 1.231 . S
C3358 C1040 1.140 . S
C3339 N357 1.127 . S
C3394 C968 1.693 . S
C3375 C384 1.777 . S
C3411 N403 1.285 . S
C3430 C993 1.303 . S
C3447 C292 1.895 . S
C3466 C850 1.882 . S
C3502 C896 1.297 . S
C3483 N311 1.311 . S
C3519 N334 1.333 . S
C3538 C922 1.371 . S
C3555 N347 1.273 . S
C3574 C932 1.302 . S
C3610 C860 1.860 . S
C3591 C375 1.919 . S
C3627 N393 1.307 . S
C3646 C886 1.331 . S
