# Generated by pormake.
# Topology tsx, (6,3)-cn, num edge types: 1
# Building blocks:
#     Node 0, Type 0, BuildingBlock: FUNLAD_clean_sbu_0, # of connection points: 6
#     Node 1, Type 0, BuildingBlock: FUNLAD_clean_sbu_0, # of connection points: 6
#     Node 2, Type 1, BuildingBlock: WUSLED_clean_sbu_0, # of connection points: 3
#     Node 3, Type 1, BuildingBlock: WUSLED_clean_sbu_0, # of connection points: 3
#     Node 4, Type 1, BuildingBlock: WUSLED_clean_sbu_0, # of connection points: 3
#     Node 5, Type 1, BuildingBlock: WUSLED_clean_sbu_0, # of connection points: 3
#     Edge 6, Type (0, 1), BuildingBlock: MIFKUJ_clean_linker_0, # of connection points: 2
#     Edge 7, Type (0, 1), BuildingBlock: MIFKUJ_clean_linker_0, # of connection points: 2
#     Edge 8, Type (0, 1), BuildingBlock: MIFKUJ_clean_linker_0, # of connection points: 2
#     Edge 9, Type (0, 1), BuildingBlock: MIFKUJ_clean_linker_0, # of connection points: 2
#     Edge 10, Type (0, 1), BuildingBlock: MIFKUJ_clean_linker_0, # of connection points: 2
#     Edge 11, Type (0, 1), BuildingBlock: MIFKUJ_clean_linker_0, # of connection points: 2
#     Edge 12, Type (0, 1), BuildingBlock: MIFKUJ_clean_linker_0, # of connection points: 2
#     Edge 13, Type (0, 1), BuildingBlock: MIFKUJ_clean_linker_0, # of connection points: 2
#     Edge 14, Type (0, 1), BuildingBlock: MIFKUJ_clean_linker_0, # of connection points: 2
#     Edge 15, Type (0, 1), BuildingBlock: MIFKUJ_clean_linker_0, # of connection points: 2
#     Edge 16, Type (0, 1), BuildingBlock: MIFKUJ_clean_linker_0, # of connection points: 2
#     Edge 17, Type (0, 1), BuildingBlock: MIFKUJ_clean_linker_0, # of connection points: 2
# Relax obj value: 0.157
# Max RMSD: 0.152
# Mean RMSD: 0.092
data_MOF--net-tsx--node1-FUNLAD_clean_sbu_0--node2-WUSLED_clean_sbu_0--edge1-MIFKUJ_clean_linker_0
_symmetry_space_group_name_H-M    P1
_symmetry_Int_Tables_number       1
_symmetry_cell_setting            triclinic
loop_
_symmetry_equiv_pos_as_xyz
'x, y, z'
_cell_length_a     30.5683
_cell_length_b     33.758337
_cell_length_c     63.250647
_cell_angle_alpha  91.300935
_cell_angle_beta   92.077744
_cell_angle_gamma 90.060087
loop_
_atom_site_label
_atom_site_type_symbol
_atom_site_fract_x
_atom_site_fract_y
_atom_site_fract_z
_atom_type_partial_charge
C0 C 0.95507 0.94914 0.00735 0.0
N1 N 0.01924 0.01189 0.05717 0.0
C2 C 0.98059 0.01028 0.06716 0.0
C3 C 0.98005 0.01002 0.08922 0.0
C4 C 0.01962 0.01192 0.10117 0.0
C5 C 0.05902 0.01406 0.0905 0.0
C6 C 0.05809 0.01375 0.06838 0.0
Zn7 Zn 0.01839 0.01045 0.02471 0.0
C8 C 0.08288 0.95247 0.00754 0.0
N9 N 0.01484 0.00588 0.95705 0.0
C10 C 0.97637 0.99949 0.94597 0.0
C11 C 0.05273 0.01207 0.94693 0.0
C12 C 0.05277 0.01247 0.92485 0.0
C13 C 0.01359 0.0058 0.91305 0.0
C14 C 0.97507 0.99901 0.92385 0.0
Zn15 Zn 0.01593 0.00721 0.98951 0.0
O16 O 0.96916 0.96682 0.02418 0.0
C17 C 0.95115 0.06477 0.00604 0.0
O18 O 0.97012 0.95886 0.9897 0.0
H19 H 0.08304 0.0168 0.95599 0.0
H20 H 0.95004 0.00905 0.05799 0.0
H21 H 0.94655 0.99495 0.95429 0.0
O22 O 0.96951 0.05612 0.02372 0.0
O23 O 0.96359 0.04771 0.98918 0.0
H24 H 0.08846 0.01477 0.06015 0.0
O25 O 0.06174 0.05573 0.99021 0.0
O26 O 0.06758 0.05406 0.02485 0.0
O27 O 0.06816 0.96648 0.99022 0.0
O28 O 0.06719 0.96472 0.02488 0.0
C29 C 0.07908 0.06879 0.00761 0.0
H30 H 0.94895 0.0088 0.09686 0.0
H31 H 0.09024 0.01524 0.09915 0.0
H32 H 0.08322 0.01742 0.91707 0.0
H33 H 0.94416 0.99404 0.91528 0.0
C34 C 0.45721 0.44696 0.50744 0.0
N35 N 0.52015 0.51094 0.55739 0.0
C36 C 0.4819 0.50601 0.5674 0.0
C37 C 0.48139 0.50663 0.58947 0.0
C38 C 0.5205 0.51299 0.60138 0.0
C39 C 0.55943 0.51842 0.59068 0.0
C40 C 0.55857 0.51698 0.56857 0.0
Zn41 Zn 0.51935 0.50897 0.52495 0.0
C42 C 0.58405 0.45131 0.50802 0.0
N43 N 0.51628 0.50434 0.45731 0.0
C44 C 0.47717 0.50462 0.44635 0.0
C45 C 0.5547 0.50321 0.4471 0.0
C46 C 0.55473 0.50226 0.42501 0.0
C47 C 0.51483 0.50266 0.41324 0.0
C48 C 0.47569 0.50389 0.42424 0.0
Zn49 Zn 0.51732 0.50627 0.48973 0.0
O50 O 0.47445 0.46123 0.52453 0.0
C51 C 0.45222 0.56354 0.50606 0.0
O52 O 0.46792 0.46104 0.48986 0.0
H53 H 0.58545 0.503 0.45612 0.0
H54 H 0.45165 0.50158 0.55825 0.0
H55 H 0.447 0.50562 0.45475 0.0
O56 O 0.46645 0.55087 0.52382 0.0
O57 O 0.46864 0.5501 0.4892 0.0
H58 H 0.58865 0.5206 0.56033 0.0
O59 O 0.56672 0.55167 0.49027 0.0
O60 O 0.56437 0.55645 0.52486 0.0
O61 O 0.56592 0.46214 0.49071 0.0
O62 O 0.57209 0.46707 0.52536 0.0
C63 C 0.57969 0.56822 0.50768 0.0
H64 H 0.45063 0.50273 0.59715 0.0
H65 H 0.5903 0.52311 0.59934 0.0
H66 H 0.5857 0.50076 0.41726 0.0
H67 H 0.44417 0.50482 0.41589 0.0
C68 C 0.94912 0.0715 0.47168 0.0
C69 C 0.93337 0.09693 0.45593 0.0
C70 C 0.89057 0.13317 0.48173 0.0
C71 C 0.90446 0.1275 0.4609 0.0
C72 C 0.90673 0.10767 0.4975 0.0
C73 C 0.93574 0.07704 0.49249 0.0
U74 U 0.00656 0.01154 0.42996 0.0
O75 O 0.07363 0.98862 0.42861 0.0
O76 O 0.01796 0.94732 0.42642 0.0
C77 C 0.06076 0.9514 0.42797 0.0
C78 C 0.97887 0.03891 0.46626 0.0
C79 C 0.08479 0.92368 0.44199 0.0
C80 C 0.14497 0.90924 0.46692 0.0
C81 C 0.11895 0.93666 0.45598 0.0
C82 C 0.10207 0.85552 0.45081 0.0
C83 C 0.13732 0.86832 0.46416 0.0
C84 C 0.07624 0.8829 0.4398 0.0
C85 C 0.98666 0.03996 0.37216 0.0
C86 C 0.00341 0.99818 0.3417 0.0
C87 C 0.98865 0.06805 0.33719 0.0
C88 C 0.98247 0.07253 0.3589 0.0
C89 C 0.99899 0.03079 0.32832 0.0
C90 C 0.99751 1.00276 0.36346 0.0
C91 C 0.97949 0.04547 0.39492 0.0
O92 O 0.96027 0.00896 0.45576 0.0
O93 O 0.01608 0.04986 0.45836 0.0
O94 O 0.01356 0.05805 0.40644 0.0
O95 O 0.95769 0.01713 0.40385 0.0
H96 H 0.9434 0.09307 0.43975 0.0
H97 H 0.89326 0.14691 0.44843 0.0
H98 H 0.89636 0.11091 0.51364 0.0
H99 H 0.94745 0.05752 0.50482 0.0
H100 H 0.17162 0.92003 0.47725 0.0
H101 H 0.12649 0.9679 0.45803 0.0
H102 H 0.09565 0.82422 0.4481 0.0
H103 H 0.05046 0.87206 0.42895 0.0
H104 H 0.0118 0.96921 0.33536 0.0
H105 H 0.98452 0.09363 0.32729 0.0
H106 H 0.97414 0.10146 0.36534 0.0
H107 H 1.00129 0.97728 0.37348 0.0
C108 C 0.95508 0.94686 0.54138 0.0
C109 C 0.94057 0.92222 0.55727 0.0
C110 C 0.89316 0.88626 0.53163 0.0
C111 C 0.91012 0.89219 0.55245 0.0
C112 C 0.90802 0.91096 0.51569 0.0
C113 C 0.9387 0.94106 0.52055 0.0
U114 U 0.01295 0.00791 0.58397 0.0
O115 O 0.08146 0.02706 0.58904 0.0
O116 O 0.02894 0.07139 0.58721 0.0
C117 C 0.07128 0.06488 0.58916 0.0
C118 C 0.98653 0.9789 0.54686 0.0
C119 C 0.09996 0.09101 0.57752 0.0
C120 C 0.12376 0.12108 0.54526 0.0
C121 C 0.09571 0.09537 0.55552 0.0
C122 C 0.1602 0.138 0.57891 0.0
C123 C 0.1565 0.14259 0.55686 0.0
C124 C 0.13231 0.11248 0.58907 0.0
C125 C 0.98396 0.98302 0.64071 0.0
C126 C 0.02422 0.00701 0.6723 0.0
C127 C 0.95638 0.97078 0.67547 0.0
C128 C 0.95216 0.96705 0.65345 0.0
C129 C 0.99265 0.99048 0.68521 0.0
C130 C 0.01988 1.00333 0.65022 0.0
C131 C 0.97933 0.97746 0.61762 0.0
O132 O 0.96937 0.01079 0.55552 0.0
O133 O 0.02271 0.96746 0.5568 0.0
O134 O 0.01356 0.96252 0.60833 0.0
O135 O 0.96124 0.00694 0.60732 0.0
H136 H 0.95279 0.92627 0.57347 0.0
H137 H 0.9001 0.87341 0.56507 0.0
H138 H 0.89534 0.90753 0.49954 0.0
H139 H 0.94934 0.95996 0.5081 0.0
H140 H 0.12018 0.12376 0.52825 0.0
H141 H 0.07085 0.07897 0.54634 0.0
H142 H 0.18432 0.15461 0.58843 0.0
H143 H 0.13589 0.10966 0.60608 0.0
H144 H 0.05272 0.02207 0.67926 0.0
H145 H 0.93105 0.95836 0.68487 0.0
H146 H 0.9241 0.95147 0.64635 0.0
H147 H 0.04474 0.01591 0.64059 0.0
C148 C 0.44839 0.57127 0.97134 0.0
C149 C 0.4249 0.59084 0.95525 0.0
C150 C 0.3918 0.63461 0.98131 0.0
C151 C 0.39681 0.62204 0.96017 0.0
C152 C 0.41533 0.61473 0.99744 0.0
C153 C 0.44343 0.58332 0.99247 0.0
U154 U 0.50604 0.51442 0.92902 0.0
O155 O 0.57298 0.49119 0.92707 0.0
O156 O 0.51676 0.45066 0.92323 0.0
C157 C 0.55959 0.45439 0.92412 0.0
C158 C 0.47843 0.53887 0.96585 0.0
C159 C 0.58438 0.42373 0.93551 0.0
C160 C 0.6186 0.3965 0.96733 0.0
C161 C 0.5931 0.42585 0.95746 0.0
C162 C 0.62629 0.36289 0.93341 0.0
C163 C 0.63555 0.36465 0.95537 0.0
C164 C 0.60095 0.39202 0.92366 0.0
C165 C 0.48574 0.54695 0.87222 0.0
C166 C 0.50833 0.50743 0.84194 0.0
C167 C 0.48173 0.57432 0.83704 0.0
C168 C 0.47562 0.57831 0.85879 0.0
C169 C 0.49797 0.53877 0.82835 0.0
C170 C 0.50244 0.51155 0.86372 0.0
C171 C 0.47864 0.55153 0.89501 0.0
O172 O 0.46023 0.50929 0.95485 0.0
O173 O 0.5158 0.55033 0.95832 0.0
O174 O 0.51301 0.56292 0.90667 0.0
O175 O 0.45661 0.52276 0.90341 0.0
H176 H 0.42831 0.58194 0.93882 0.0
H177 H 0.37868 0.63606 0.94736 0.0
H178 H 0.4126 0.62384 0.01386 0.0
H179 H 0.46146 0.56862 0.0051 0.0
H180 H 0.6249 0.39864 0.98427 0.0
H181 H 0.58052 0.45022 0.96686 0.0
H182 H 0.63948 0.33942 0.9236 0.0
H183 H 0.5948 0.39007 0.90668 0.0
H184 H 0.52136 0.47986 0.83576 0.0
H185 H 0.47298 0.59883 0.82698 0.0
H186 H 0.46271 0.60584 0.86511 0.0
H187 H 0.51076 0.4871 0.8739 0.0
C188 C 0.45494 0.44692 0.04096 0.0
C189 C 0.42851 0.432 0.05662 0.0
C190 C 0.39472 0.38512 0.03113 0.0
C191 C 0.39863 0.40158 0.05175 0.0
C192 C 0.42094 0.40053 0.01537 0.0
C193 C 0.45089 0.43118 0.02028 0.0
U194 U 0.51522 0.50397 0.08414 0.0
O195 O 0.58439 0.52123 0.08914 0.0
O196 O 0.53299 0.56677 0.08859 0.0
C197 C 0.57519 0.55925 0.08999 0.0
C198 C 0.48768 0.47769 0.04668 0.0
C199 C 0.60406 0.58558 0.07858 0.0
C200 C 0.6212 0.62532 0.04832 0.0
C201 C 0.59419 0.59774 0.05785 0.0
C202 C 0.66836 0.62783 0.07995 0.0
C203 C 0.65814 0.64121 0.05947 0.0
C204 C 0.64159 0.60037 0.08937 0.0
C205 C 0.48664 0.47695 0.14056 0.0
C206 C 0.50588 0.51619 0.17225 0.0
C207 C 0.47982 0.44882 0.17526 0.0
C208 C 0.47583 0.44518 0.15323 0.0
C209 C 0.49455 0.48447 0.18508 0.0
C210 C 0.50206 0.51243 0.15017 0.0
C211 C 0.48143 0.47238 0.11743 0.0
O212 O 0.47197 0.50977 0.05581 0.0
O213 O 0.52334 0.4645 0.05638 0.0
O214 O 0.51516 0.4572 0.10785 0.0
O215 O 0.46372 0.50249 0.10748 0.0
H216 H 0.43123 0.44374 0.0727 0.0
H217 H 0.37845 0.39105 0.06418 0.0
H218 H 0.41901 0.38834 0.99938 0.0
H219 H 0.47123 0.44222 0.00802 0.0
H220 H 0.61248 0.63511 0.03253 0.0
H221 H 0.5653 0.58655 0.04925 0.0
H222 H 0.69701 0.63887 0.08881 0.0
H223 H 0.64982 0.59119 0.10534 0.0
H224 H 0.51698 0.54416 0.17926 0.0
H225 H 0.47165 0.42352 0.18459 0.0
H226 H 0.46422 0.41747 0.14607 0.0
H227 H 0.51079 0.53727 0.14061 0.0
H228 H 0.09938 0.11852 0.97562 0.0
H229 H 0.15234 0.17314 0.97722 0.0
H230 H 0.18722 0.14536 0.04194 0.0
H231 H 0.13348 0.09191 0.04066 0.0
H232 H 0.17819 0.22085 0.03927 0.0
H233 H 0.25347 0.1217 0.99856 0.0
H234 H 0.26256 0.07392 0.96897 0.0
H235 H 0.24897 0.16787 0.92458 0.0
H236 H 0.23922 0.21615 0.9539 0.0
H237 H 0.3783 0.32154 0.0557 0.0
H238 H 0.32413 0.26916 0.0492 0.0
H239 H 0.28715 0.31964 0.98916 0.0
H240 H 0.34099 0.37285 0.99571 0.0
H241 H 0.29424 0.23664 0.98726 0.0
H242 H 0.22365 0.33611 0.02942 0.0
H243 H 0.21696 0.38253 0.05979 0.0
H244 H 0.2243 0.28546 0.10248 0.0
H245 H 0.2317 0.23849 0.07237 0.0
C246 C 0.11849 0.12402 0.99015 0.0
C247 C 0.11217 0.10092 0.00802 0.0
C248 C 0.14891 0.15514 0.99102 0.0
C249 C 0.17419 0.16324 0.00965 0.0
C250 C 0.16808 0.13989 0.0274 0.0
C251 C 0.13736 0.10922 0.02663 0.0
C252 C 0.20628 0.19653 0.01104 0.0
C253 C 0.20382 0.22394 0.02799 0.0
C254 C 0.2391 0.2014 0.99604 0.0
C255 C 0.24514 0.17246 0.97841 0.0
C256 C 0.2521 0.13212 0.98248 0.0
C257 C 0.25742 0.10496 0.96576 0.0
C258 C 0.25621 0.11783 0.94491 0.0
C259 C 0.24982 0.15793 0.94073 0.0
C260 C 0.24442 0.18521 0.9574 0.0
C261 C 0.35849 0.32177 0.04116 0.0
C262 C 0.36363 0.3518 0.02636 0.0
C263 C 0.32766 0.29166 0.03743 0.0
C264 C 0.30118 0.29082 0.01884 0.0
C265 C 0.30721 0.31981 0.00364 0.0
C266 C 0.33807 0.35012 0.00739 0.0
C267 C 0.26652 0.26017 0.0157 0.0
C268 C 0.26841 0.23349 0.99842 0.0
C269 C 0.23338 0.25564 0.03051 0.0
C270 C 0.22858 0.28382 0.04864 0.0
C271 C 0.22416 0.32469 0.04529 0.0
C272 C 0.22019 0.3511 0.06246 0.0
C273 C 0.22029 0.33696 0.08306 0.0
C274 C 0.22426 0.29637 0.08652 0.0
C275 C 0.2283 0.26984 0.06941 0.0
H276 H 0.21722 0.35745 0.09633 0.0
H277 H 0.26034 0.09676 0.93198 0.0
H278 H 0.10373 0.89831 0.03797 0.0
H279 H 0.15667 0.84407 0.03575 0.0
H280 H 0.193 0.8833 0.9743 0.0
H281 H 0.13895 0.93622 0.97607 0.0
H282 H 0.1835 0.80843 0.97225 0.0
H283 H 0.25923 0.89676 0.02195 0.0
H284 H 0.26828 0.93794 0.05453 0.0
H285 H 0.25005 0.83543 0.09223 0.0
H286 H 0.24034 0.79371 0.05985 0.0
H287 H 0.38027 0.70341 0.95966 0.0
H288 H 0.32836 0.75668 0.96639 0.0
H289 H 0.28471 0.69655 0.02123 0.0
H290 H 0.3361 0.64247 0.01438 0.0
H291 H 0.29584 0.77855 0.02817 0.0
H292 H 0.22369 0.6904 0.97727 0.0
H293 H 0.21694 0.65058 0.94414 0.0
H294 H 0.23124 0.75561 0.90796 0.0
H295 H 0.23873 0.79599 0.94089 0.0
C296 C 0.12331 0.89549 0.02408 0.0
C297 C 0.11713 0.92148 0.00718 0.0
C298 C 0.15373 0.86456 0.02285 0.0
C299 C 0.1793 0.85965 0.00492 0.0
C300 C 0.17364 0.8862 0.98826 0.0
C301 C 0.14278 0.91658 0.98932 0.0
C302 C 0.21075 0.82611 0.00295 0.0
C303 C 0.20839 0.80236 0.98441 0.0
C304 C 0.24258 0.81721 0.01901 0.0
C305 C 0.24861 0.8422 0.03848 0.0
C306 C 0.25685 0.88306 0.03719 0.0
C307 C 0.26215 0.90648 0.05562 0.0
C308 C 0.25962 0.88933 0.07543 0.0
C309 C 0.25193 0.84868 0.07687 0.0
C310 C 0.24656 0.82513 0.05848 0.0
C311 C 0.35947 0.70125 0.97309 0.0
C312 C 0.36207 0.6683 0.98632 0.0
C313 C 0.32993 0.73188 0.97696 0.0
C314 C 0.30228 0.73035 0.99416 0.0
C315 C 0.30575 0.69829 0.00786 0.0
C316 C 0.33524 0.66747 0.00395 0.0
C317 C 0.26897 0.76175 0.99734 0.0
C318 C 0.27085 0.78482 0.01609 0.0
C319 C 0.23695 0.77039 0.9814 0.0
C320 C 0.23215 0.74617 0.96156 0.0
C321 C 0.22573 0.70496 0.96226 0.0
C322 C 0.22172 0.6823 0.94351 0.0
C323 C 0.22376 0.70054 0.92396 0.0
C324 C 0.22971 0.74151 0.92311 0.0
C325 C 0.2338 0.7643 0.94182 0.0
H326 H 0.22064 0.68294 0.90946 0.0
H327 H 0.26372 0.90752 0.08968 0.0
H328 H 0.90562 0.93355 0.04098 0.0
H329 H 0.85471 0.87906 0.04495 0.0
H330 H 0.87854 0.83735 0.98145 0.0
H331 H 0.92933 0.89294 0.97711 0.0
H332 H 0.79146 0.83045 0.99096 0.0
H333 H 0.92879 0.79225 0.02233 0.0
H334 H 0.99588 0.80081 0.04481 0.0
H335 H 0.91861 0.81249 0.09996 0.0
H336 H 0.851 0.80459 0.07777 0.0
H337 H 0.68928 0.64491 0.01925 0.0
H338 H 0.73903 0.69488 0.00573 0.0
H339 H 0.73796 0.75809 0.06576 0.0
H340 H 0.68867 0.70864 0.07923 0.0
H341 H 0.81979 0.74662 0.0534 0.0
H342 H 0.68256 0.79149 0.02124 0.0
H343 H 0.61553 0.78398 0.9986 0.0
H344 H 0.6932 0.75867 0.94472 0.0
H345 H 0.76071 0.76553 0.96712 0.0
C346 C 0.90001 0.91297 0.02776 0.0
C347 C 0.922 0.91729 0.00881 0.0
C348 C 0.87088 0.88174 0.03009 0.0
C349 C 0.86353 0.8536 0.01368 0.0
C350 C 0.88398 0.85859 0.99437 0.0
C351 C 0.91303 0.89027 0.99194 0.0
C352 C 0.83568 0.81846 0.01732 0.0
C353 C 0.79803 0.8116 0.00437 0.0
C354 C 0.84414 0.79397 0.03488 0.0
C355 C 0.8848 0.79801 0.04835 0.0
C356 C 0.92609 0.79683 0.03924 0.0
C357 C 0.96422 0.80156 0.05193 0.0
C358 C 0.96151 0.80723 0.0738 0.0
C359 C 0.92066 0.80808 0.08302 0.0
C360 C 0.88242 0.80341 0.07039 0.0
C361 C 0.69928 0.66977 0.02942 0.0
C362 C 0.68549 0.67259 0.05039 0.0
C363 C 0.7277 0.69827 0.0217 0.0
C364 C 0.74236 0.73019 0.03477 0.0
C365 C 0.72749 0.73354 0.05546 0.0
C366 C 0.69937 0.70517 0.06316 0.0
C367 C 0.77461 0.75951 0.02755 0.0
C368 C 0.81341 0.76508 0.03981 0.0
C369 C 0.76718 0.78257 0.00934 0.0
C370 C 0.72663 0.77855 0.9959 0.0
C371 C 0.68532 0.78399 0.0046 0.0
C372 C 0.64725 0.77992 0.9918 0.0
C373 C 0.6501 0.77072 0.97025 0.0
C374 C 0.69104 0.76571 0.96143 0.0
C375 C 0.72921 0.76971 0.97416 0.0
H376 H 0.62059 0.76759 0.96036 0.0
H377 H 0.99106 0.81093 0.08359 0.0
H378 H 0.88253 0.06582 0.97773 0.0
H379 H 0.82724 0.11724 0.97326 0.0
H380 H 0.88635 0.18399 0.02589 0.0
H381 H 0.94044 0.131 0.0312 0.0
H382 H 0.80252 0.1937 0.0265 0.0
H383 H 0.90586 0.20553 0.97251 0.0
H384 H 0.95193 0.183 0.94339 0.0
H385 H 0.83701 0.15112 0.90575 0.0
H386 H 0.79024 0.17294 0.93476 0.0
H387 H 0.70047 0.37422 0.98641 0.0
H388 H 0.7524 0.32408 0.99927 0.0
H389 H 0.6877 0.2356 0.95905 0.0
H390 H 0.63507 0.28492 0.94665 0.0
H391 H 0.77899 0.24249 0.95357 0.0
H392 H 0.67677 0.23159 0.0101 0.0
H393 H 0.63426 0.25794 0.03966 0.0
H394 H 0.75307 0.29483 0.07274 0.0
H395 H 0.79627 0.26918 0.04321 0.0
C396 C 0.88349 0.0913 0.98848 0.0
C397 C 0.916 0.09469 0.00467 0.0
C398 C 0.85203 0.12085 0.98583 0.0
C399 C 0.85335 0.15524 0.99879 0.0
C400 C 0.88479 0.15795 0.01556 0.0
C401 C 0.9157 0.12773 0.01858 0.0
C402 C 0.82275 0.1886 0.99424 0.0
C403 C 0.7979 0.20474 0.01061 0.0
C404 C 0.81656 0.20327 0.97351 0.0
C405 C 0.84456 0.19061 0.95588 0.0
C406 C 0.89042 0.19353 0.95806 0.0
C407 C 0.91666 0.18089 0.94157 0.0
C408 C 0.89742 0.16557 0.92274 0.0
C409 C 0.85187 0.16297 0.92034 0.0
C410 C 0.82548 0.17552 0.9368 0.0
C411 C 0.69664 0.3439 0.98069 0.0
C412 C 0.66388 0.33375 0.96527 0.0
C413 C 0.72647 0.31533 0.98799 0.0
C414 C 0.72404 0.27621 0.97999 0.0
C415 C 0.69037 0.26571 0.96529 0.0
C416 C 0.66044 0.29403 0.95814 0.0
C417 C 0.75811 0.24663 0.98566 0.0
C418 C 0.78386 0.23148 0.96947 0.0
C419 C 0.7657 0.23365 0.00657 0.0
C420 C 0.73971 0.24886 0.02435 0.0
C421 C 0.69381 0.24565 0.02359 0.0
C422 C 0.66959 0.26038 0.04036 0.0
C423 C 0.69093 0.27816 0.05804 0.0
C424 C 0.73657 0.28112 0.05902 0.0
C425 C 0.76094 0.26645 0.04228 0.0
H426 H 0.67213 0.28955 0.07101 0.0
H427 H 0.91779 0.15576 0.91 0.0
H428 H 0.63297 0.59114 0.4761 0.0
H429 H 0.68623 0.64574 0.47743 0.0
H430 H 0.65148 0.67477 0.54139 0.0
H431 H 0.59885 0.62019 0.54032 0.0
H432 H 0.65518 0.74105 0.51498 0.0
H433 H 0.74199 0.62728 0.53449 0.0
H434 H 0.77159 0.55999 0.5293 0.0
H435 H 0.83048 0.59559 0.4721 0.0
H436 H 0.80064 0.663 0.4768 0.0
H437 H 0.82447 0.86482 0.55556 0.0
H438 H 0.7717 0.81159 0.54857 0.0
H439 H 0.83193 0.78354 0.48946 0.0
H440 H 0.8863 0.83591 0.49682 0.0
H441 H 0.81459 0.7174 0.50951 0.0
H442 H 0.73296 0.83225 0.49087 0.0
H443 H 0.70291 0.89954 0.49533 0.0
H444 H 0.63332 0.86261 0.54928 0.0
H445 H 0.66347 0.79521 0.54534 0.0
C446 C 0.6367 0.60917 0.49043 0.0
C447 C 0.61176 0.60125 0.50812 0.0
C448 C 0.66718 0.64027 0.49118 0.0
C449 C 0.67285 0.66423 0.50953 0.0
C450 C 0.64758 0.65668 0.52707 0.0
C451 C 0.61764 0.62534 0.52645 0.0
C452 C 0.7052 0.69713 0.51066 0.0
C453 C 0.69007 0.73592 0.51395 0.0
C454 C 0.75057 0.69049 0.50867 0.0
C455 C 0.76863 0.65004 0.50586 0.0
C456 C 0.76089 0.62066 0.5207 0.0
C457 C 0.77779 0.58252 0.51787 0.0
C458 C 0.80278 0.57348 0.50034 0.0
C459 C 0.81104 0.60261 0.48564 0.0
C460 C 0.79416 0.64079 0.48839 0.0
C461 C 0.82684 0.84719 0.54113 0.0
C462 C 0.85984 0.85469 0.52679 0.0
C463 C 0.79622 0.81699 0.53703 0.0
C464 C 0.79735 0.79381 0.51834 0.0
C465 C 0.83022 0.80112 0.50395 0.0
C466 C 0.86106 0.83133 0.50809 0.0
C467 C 0.7647 0.76151 0.51417 0.0
C468 C 0.7797 0.72277 0.51031 0.0
C469 C 0.7191 0.76823 0.51548 0.0
C470 C 0.70079 0.80873 0.5179 0.0
C471 C 0.71152 0.83854 0.50378 0.0
C472 C 0.69442 0.8767 0.50621 0.0
C473 C 0.6663 0.88537 0.52261 0.0
C474 C 0.65514 0.85586 0.53659 0.0
C475 C 0.67219 0.81766 0.53426 0.0
H476 H 0.65309 0.91493 0.52445 0.0
H477 H 0.81584 0.54394 0.49818 0.0
H478 H 0.60253 0.40161 0.47508 0.0
H479 H 0.65522 0.34744 0.47454 0.0
H480 H 0.69424 0.37443 0.53946 0.0
H481 H 0.64076 0.42878 0.54029 0.0
H482 H 0.76568 0.3609 0.5102 0.0
H483 H 0.63454 0.29939 0.53285 0.0
H484 H 0.55565 0.28385 0.53112 0.0
H485 H 0.56837 0.22953 0.46961 0.0
H486 H 0.64726 0.24533 0.47082 0.0
H487 H 0.89106 0.18281 0.51679 0.0
H488 H 0.8396 0.23621 0.52465 0.0
H489 H 0.76828 0.21053 0.46582 0.0
H490 H 0.81849 0.15631 0.45825 0.0
H491 H 0.71307 0.22327 0.49642 0.0
H492 H 0.84005 0.28909 0.47147 0.0
H493 H 0.91824 0.3069 0.47092 0.0
H494 H 0.91315 0.35468 0.53428 0.0
H495 H 0.835 0.33664 0.53531 0.0
C496 C 0.62235 0.39623 0.48927 0.0
C497 C 0.61737 0.41948 0.50777 0.0
C498 C 0.65237 0.36516 0.48893 0.0
C499 C 0.67835 0.35681 0.50699 0.0
C500 C 0.67435 0.38043 0.52537 0.0
C501 C 0.64376 0.41133 0.52583 0.0
C502 C 0.70919 0.32298 0.50645 0.0
C503 C 0.75431 0.33065 0.50765 0.0
C504 C 0.69415 0.28376 0.50256 0.0
C505 C 0.64678 0.27384 0.50186 0.0
C506 C 0.62047 0.28442 0.51888 0.0
C507 C 0.57575 0.27551 0.518 0.0
C508 C 0.55699 0.25578 0.50025 0.0
C509 C 0.58295 0.24483 0.48335 0.0
C510 C 0.62768 0.25372 0.48413 0.0
C511 C 0.86413 0.18825 0.50563 0.0
C512 C 0.85909 0.16537 0.48682 0.0
C513 C 0.83498 0.21905 0.51006 0.0
C514 C 0.80033 0.22774 0.49571 0.0
C515 C 0.79481 0.20451 0.47711 0.0
C516 C 0.82384 0.17373 0.4727 0.0
C517 C 0.76983 0.2611 0.49987 0.0
C518 C 0.72464 0.25337 0.49931 0.0
C519 C 0.78484 0.30032 0.50411 0.0
C520 C 0.83184 0.31106 0.50356 0.0
C521 C 0.85571 0.30306 0.48536 0.0
C522 C 0.89999 0.31326 0.48495 0.0
C523 C 0.92069 0.33179 0.50259 0.0
C524 C 0.8971 0.34024 0.52065 0.0
C525 C 0.8528 0.33005 0.52116 0.0
H526 H 0.95498 0.33969 0.50223 0.0
H527 H 0.52237 0.24892 0.49961 0.0
H528 H 0.39041 0.42715 0.47896 0.0
H529 H 0.33657 0.37336 0.48177 0.0
H530 H 0.40018 0.33777 0.54022 0.0
H531 H 0.45289 0.39192 0.53793 0.0
H532 H 0.37768 0.27394 0.50647 0.0
H533 H 0.31891 0.38488 0.54756 0.0
H534 H 0.29333 0.45379 0.55162 0.0
H535 H 0.19643 0.43381 0.50164 0.0
H536 H 0.22197 0.36488 0.49707 0.0
H537 H 0.24423 0.15298 0.56511 0.0
H538 H 0.29238 0.20231 0.55081 0.0
H539 H 0.18653 0.24324 0.50997 0.0
H540 H 0.13731 0.1948 0.52504 0.0
H541 H 0.22653 0.30429 0.52784 0.0
H542 H 0.27513 0.19124 0.49014 0.0
H543 H 0.30006 0.12262 0.48416 0.0
H544 H 0.41458 0.14541 0.5239 0.0
H545 H 0.39004 0.21403 0.5304 0.0
C546 C 0.3929 0.40772 0.49235 0.0
C547 C 0.42568 0.41379 0.50828 0.0
C548 C 0.3622 0.37712 0.49393 0.0
C549 C 0.36454 0.35167 0.51119 0.0
C550 C 0.39793 0.35707 0.52677 0.0
C551 C 0.42786 0.38812 0.52548 0.0
C552 C 0.33162 0.31999 0.51357 0.0
C553 C 0.34463 0.28039 0.51119 0.0
C554 C 0.28816 0.32864 0.51897 0.0
C555 C 0.27275 0.36996 0.52177 0.0
C556 C 0.29249 0.39532 0.53728 0.0
C557 C 0.27792 0.43435 0.53971 0.0
C558 C 0.24339 0.44823 0.52684 0.0
C559 C 0.22326 0.42306 0.51156 0.0
C560 C 0.23776 0.38401 0.50904 0.0
C561 C 0.23104 0.17245 0.5531 0.0
C562 C 0.18672 0.17007 0.54637 0.0
C563 C 0.25886 0.20039 0.5447 0.0
C564 C 0.24337 0.22632 0.52908 0.0
C565 C 0.19935 0.2235 0.52195 0.0
C566 C 0.17133 0.19556 0.53045 0.0
C567 C 0.27274 0.2577 0.52131 0.0
C568 C 0.25919 0.29744 0.5227 0.0
C569 C 0.31558 0.24909 0.51467 0.0
C570 C 0.33054 0.20777 0.51088 0.0
C571 C 0.30546 0.18155 0.49775 0.0
C572 C 0.31956 0.14266 0.49424 0.0
C573 C 0.35884 0.12964 0.50367 0.0
C574 C 0.38415 0.15553 0.51661 0.0
C575 C 0.37018 0.19446 0.52019 0.0
H576 H 0.3697 0.09952 0.50093 0.0
H577 H 0.23214 0.47844 0.52875 0.0
H578 H 0.41692 0.59619 0.47037 0.0
H579 H 0.36129 0.64746 0.46759 0.0
H580 H 0.35188 0.65111 0.5355 0.0
H581 H 0.40856 0.59989 0.53849 0.0
H582 H 0.27875 0.64994 0.47742 0.0
H583 H 0.32667 0.7476 0.55062 0.0
H584 H 0.39186 0.76383 0.57335 0.0
H585 H 0.47512 0.73692 0.52172 0.0
H586 H 0.41043 0.72105 0.49863 0.0
H587 H 0.11713 0.79889 0.48335 0.0
H588 H 0.16788 0.74722 0.49527 0.0
H589 H 0.27712 0.81923 0.47806 0.0
H590 H 0.22669 0.87098 0.46631 0.0
H591 H 0.29742 0.78127 0.51346 0.0
H592 H 0.23478 0.7469 0.44446 0.0
H593 H 0.17468 0.73334 0.41821 0.0
H594 H 0.1299 0.63761 0.45546 0.0
H595 H 0.18943 0.65098 0.48209 0.0
C596 C 0.40311 0.60778 0.48478 0.0
C597 C 0.41738 0.594 0.50468 0.0
C598 C 0.37109 0.63705 0.48313 0.0
C599 C 0.35251 0.65334 0.50131 0.0
C600 C 0.36613 0.63931 0.52125 0.0
C601 C 0.3984 0.60995 0.52293 0.0
C602 C 0.31932 0.68529 0.4991 0.0
C603 C 0.28266 0.67852 0.48548 0.0
C604 C 0.32462 0.72281 0.50935 0.0
C605 C 0.36374 0.73266 0.52301 0.0
C606 C 0.3589 0.74524 0.54413 0.0
C607 C 0.39575 0.75438 0.55706 0.0
C608 C 0.43762 0.75126 0.54901 0.0
C609 C 0.4427 0.73916 0.52797 0.0
C610 C 0.40595 0.73005 0.51496 0.0
C611 C 0.15199 0.80382 0.48229 0.0
C612 C 0.16787 0.83892 0.47374 0.0
C613 C 0.18096 0.7743 0.48913 0.0
C614 C 0.22632 0.77908 0.48728 0.0
C615 C 0.24229 0.81488 0.4797 0.0
C616 C 0.21339 0.84449 0.473 0.0
C617 C 0.25701 0.7459 0.49171 0.0
C618 C 0.29312 0.75244 0.50573 0.0
C619 C 0.25189 0.70842 0.48139 0.0
C620 C 0.21622 0.70023 0.46537 0.0
C621 C 0.21191 0.72315 0.44712 0.0
C622 C 0.17799 0.71548 0.43217 0.0
C623 C 0.14841 0.68471 0.4352 0.0
C624 C 0.15278 0.66148 0.45316 0.0
C625 C 0.18661 0.66908 0.46818 0.0
H626 H 0.12217 0.67881 0.4236 0.0
H627 H 0.4661 0.75831 0.55906 0.0
H628 H 0.06561 0.06024 0.12923 0.0
H629 H 0.06424 0.06071 0.16788 0.0
H630 H 0.97303 0.96287 0.16473 0.0
H631 H 0.97348 0.96306 0.12605 0.0
H632 H 0.94737 0.01461 0.19233 0.0
H633 H 0.08441 0.95194 0.17966 0.0
H634 H 0.15745 0.94455 0.16474 0.0
H635 H 0.20078 0.05097 0.19762 0.0
H636 H 0.12779 0.0593 0.21252 0.0
H637 H 0.96655 0.9717 0.30183 0.0
H638 H 0.9727 0.96563 0.2634 0.0
H639 H 0.04899 0.0732 0.26392 0.0
H640 H 0.04352 0.07916 0.30239 0.0
H641 H 0.08277 0.01409 0.23802 0.0
H642 H 0.94331 0.07624 0.24979 0.0
H643 H 0.87021 0.0814 0.26487 0.0
H644 H 0.83181 0.97189 0.23363 0.0
H645 H 0.90494 0.9658 0.2186 0.0
C646 C 0.04556 0.03865 0.13682 0.0
C647 C 0.0197 0.01159 0.12464 0.0
C648 C 0.04487 0.03884 0.15891 0.0
C649 C 0.01901 0.01143 0.1693 0.0
C650 C 0.99323 0.98433 0.15712 0.0
C651 C 0.99347 0.98447 0.13503 0.0
C652 C 0.01785 0.01172 0.19281 0.0
C653 C 0.97702 0.01383 0.20227 0.0
C654 C 0.05649 0.01145 0.2059 0.0
C655 C 0.1005 0.00643 0.19705 0.0
C656 C 0.10942 0.97392 0.18359 0.0
C657 C 0.15083 0.96954 0.17516 0.0
C658 C 0.1837 0.99732 0.18019 0.0
C659 C 0.17527 0.02949 0.19372 0.0
C660 C 0.1339 0.03404 0.20218 0.0
C661 C 0.98508 0.9938 0.29379 0.0
C662 C 0.00437 0.02603 0.30513 0.0
C663 C 0.98831 0.99043 0.27183 0.0
C664 C 0.01093 0.01919 0.26079 0.0
C665 C 0.03128 0.05076 0.27213 0.0
C666 C 0.02784 0.05428 0.29407 0.0
C667 C 0.0124 0.01699 0.23736 0.0
C668 C 0.05324 0.01461 0.22798 0.0
C669 C 0.97379 0.01661 0.22433 0.0
C670 C 0.92974 0.02037 0.23325 0.0
C671 C 0.91939 0.05311 0.24627 0.0
C672 C 0.87793 0.05622 0.25479 0.0
C673 C 0.84642 0.02694 0.25026 0.0
C674 C 0.85627 0.99452 0.23715 0.0
C675 C 0.89771 0.99124 0.22862 0.0
H676 H 0.81434 0.0294 0.25686 0.0
H677 H 0.21574 0.99388 0.17364 0.0
H678 H 0.97734 0.95047 0.8856 0.0
H679 H 0.97733 0.94997 0.84682 0.0
H680 H 0.04794 0.06073 0.84886 0.0
H681 H 0.04848 0.06115 0.88769 0.0
H682 H 0.97347 0.05684 0.81927 0.0
H683 H 0.10372 0.98478 0.83823 0.0
H684 H 0.14668 0.93333 0.85659 0.0
H685 H 0.06865 0.84264 0.82491 0.0
H686 H 0.02473 0.89362 0.80659 0.0
H687 H 0.02157 0.05382 0.70999 0.0
H688 H 0.02862 0.0581 0.74863 0.0
H689 H 0.98062 0.93831 0.75226 0.0
H690 H 0.97525 0.93324 0.71371 0.0
H691 H 0.04719 0.94934 0.77939 0.0
H692 H 0.91476 0.01937 0.76177 0.0
H693 H 0.86901 0.06954 0.7439 0.0
H694 H 0.94749 0.16241 0.7733 0.0
H695 H 0.99412 0.11273 0.79113 0.0
C696 C 0.9927 0.97476 0.87776 0.0
C697 C 0.01299 0.00581 0.88961 0.0
C698 C 0.99284 0.97436 0.85566 0.0
C699 C 0.01281 0.00523 0.84503 0.0
C700 C 0.03243 0.03663 0.8568 0.0
C701 C 0.03291 0.03672 0.87892 0.0
C702 C 0.01328 0.00449 0.82161 0.0
C703 C 0.99013 0.03374 0.8105 0.0
C704 C 0.03422 0.97379 0.81027 0.0
C705 C 0.06064 0.94305 0.8212 0.0
C706 C 0.09544 0.95388 0.83533 0.0
C707 C 0.12003 0.9248 0.8457 0.0
C708 C 0.11033 0.88474 0.84196 0.0
C709 C 0.07609 0.87369 0.82781 0.0
C710 C 0.05136 0.90266 0.81742 0.0
C711 C 0.01298 0.02823 0.719 0.0
C712 C 0.99755 0.99327 0.70871 0.0
C713 C 0.01661 0.03086 0.74111 0.0
C714 C 0.00456 0.99871 0.75339 0.0
C715 C 0.98993 0.96357 0.74315 0.0
C716 C 0.98645 0.96087 0.72108 0.0
C717 C 0.00695 1.00154 0.7769 0.0
C718 C 0.03067 0.97264 0.78807 0.0
C719 C 0.98618 0.03239 0.7883 0.0
C720 C 0.95823 0.06232 0.77759 0.0
C721 C 0.9225 0.05048 0.76428 0.0
C722 C 0.89637 0.07883 0.75419 0.0
C723 C 0.90542 0.11914 0.75741 0.0
C724 C 0.94057 0.13118 0.77078 0.0
C725 C 0.96685 0.10294 0.7809 0.0
H726 H 0.88514 0.14104 0.74959 0.0
H727 H 0.12942 0.86226 0.85 0.0
H728 H 0.5581 0.56833 0.62845 0.0
H729 H 0.55641 0.57093 0.6671 0.0
H730 H 0.48226 0.46193 0.66582 0.0
H731 H 0.48262 0.46011 0.62712 0.0
H732 H 0.44849 0.51022 0.69249 0.0
H733 H 0.59512 0.46777 0.68094 0.0
H734 H 0.66859 0.4704 0.66616 0.0
H735 H 0.69208 0.58337 0.69708 0.0
H736 H 0.61849 0.58167 0.71182 0.0
H737 H 0.47566 0.47514 0.8026 0.0
H738 H 0.4823 0.46879 0.76422 0.0
H739 H 0.53839 0.58599 0.76324 0.0
H740 H 0.53253 0.59229 0.80168 0.0
H741 H 0.5822 0.53172 0.73815 0.0
H742 H 0.43326 0.57278 0.74908 0.0
H743 H 0.36025 0.56752 0.76414 0.0
H744 H 0.34237 0.45267 0.7345 0.0
H745 H 0.41558 0.45701 0.71949 0.0
C746 C 0.54172 0.54482 0.63647 0.0
C747 C 0.52057 0.51398 0.62483 0.0
C748 C 0.5409 0.54621 0.65856 0.0
C749 C 0.5198 0.51627 0.66948 0.0
C750 C 0.49874 0.48539 0.65781 0.0
C751 C 0.49895 0.48435 0.63571 0.0
C752 C 0.51859 0.51769 0.693 0.0
C753 C 0.47789 0.51428 0.70244 0.0
C754 C 0.55676 0.52372 0.70608 0.0
C755 C 0.60113 0.52474 0.69733 0.0
C756 C 0.61584 0.4933 0.68447 0.0
C757 C 0.65752 0.4946 0.67612 0.0
C758 C 0.68495 0.52707 0.68064 0.0
C759 C 0.67078 0.55826 0.69358 0.0
C760 C 0.62911 0.55712 0.70195 0.0
C761 C 0.48986 0.49938 0.79425 0.0
C762 C 0.50339 0.5343 0.80516 0.0
C763 C 0.49335 0.49582 0.77231 0.0
C764 C 0.51043 0.52708 0.76087 0.0
C765 C 0.52499 0.56156 0.77177 0.0
C766 C 0.5213 0.56524 0.79369 0.0
C767 C 0.51224 0.52423 0.73747 0.0
C768 C 0.55296 0.52744 0.72811 0.0
C769 C 0.4742 0.51756 0.72446 0.0
C770 C 0.43006 0.51506 0.73334 0.0
C771 C 0.41389 0.54627 0.74591 0.0
C772 C 0.37245 0.54348 0.75441 0.0
C773 C 0.34673 0.50974 0.75033 0.0
C774 C 0.36235 0.47876 0.73767 0.0
C775 C 0.4038 0.48139 0.72915 0.0
H776 H 0.31466 0.50763 0.75693 0.0
H777 H 0.7172 0.52803 0.67416 0.0
H778 H 0.57022 0.54044 0.38701 0.0
H779 H 0.5691 0.53819 0.34837 0.0
H780 H 0.4556 0.46202 0.34737 0.0
H781 H 0.45773 0.46258 0.38599 0.0
H782 H 0.5119 0.43571 0.31981 0.0
H783 H 0.44829 0.56222 0.33645 0.0
H784 H 0.44517 0.62846 0.35357 0.0
H785 H 0.56103 0.66316 0.32228 0.0
H786 H 0.56518 0.59691 0.30518 0.0
H787 H 0.43758 0.45619 0.21359 0.0
H788 H 0.44393 0.4604 0.25214 0.0
H789 H 0.56398 0.52669 0.2486 0.0
H790 H 0.55842 0.52195 0.2099 0.0
H791 H 0.50805 0.55854 0.27816 0.0
H792 H 0.56957 0.43196 0.26063 0.0
H793 H 0.57115 0.36588 0.24326 0.0
H794 H 0.45724 0.33152 0.2762 0.0
H795 H 0.45461 0.39764 0.29355 0.0
C796 C 0.54528 0.52285 0.37859 0.0
C797 C 0.51399 0.50175 0.38967 0.0
C798 C 0.54438 0.52198 0.35647 0.0
C799 C 0.5119 0.50038 0.34493 0.0
C800 C 0.48087 0.47904 0.35592 0.0
C801 C 0.48188 0.47972 0.37803 0.0
C802 C 0.51046 0.49951 0.3214 0.0
C803 C 0.51051 0.46259 0.31073 0.0
C804 C 0.5098 0.53458 0.3095 0.0
C805 C 0.5073 0.57447 0.31971 0.0
C806 C 0.4733 0.58387 0.33335 0.0
C807 C 0.47131 0.62144 0.34303 0.0
C808 C 0.50295 0.64997 0.33906 0.0
C809 C 0.53658 0.64102 0.32536 0.0
C810 C 0.53875 0.60347 0.31566 0.0
C811 C 0.46563 0.47133 0.22096 0.0
C812 C 0.49772 0.4884 0.20859 0.0
C813 C 0.46908 0.47385 0.24302 0.0
C814 C 0.50468 0.49346 0.25323 0.0
C815 C 0.53625 0.51141 0.24102 0.0
C816 C 0.53292 0.50877 0.2189 0.0
C817 C 0.50898 0.49478 0.27668 0.0
C818 C 0.50957 0.53173 0.2873 0.0
C819 C 0.51002 0.45975 0.28856 0.0
C820 C 0.51167 0.41988 0.27825 0.0
C821 C 0.54466 0.41042 0.26405 0.0
C822 C 0.54578 0.37294 0.25423 0.0
C823 C 0.51426 0.34455 0.25858 0.0
C824 C 0.48161 0.35356 0.27282 0.0
C825 C 0.48031 0.39102 0.28267 0.0
H826 H 0.51518 0.31555 0.25096 0.0
H827 H 0.50135 0.67904 0.34657 0.0
loop_
_geom_bond_atom_site_label_1
_geom_bond_atom_site_label_2
_geom_bond_distance
_geom_bond_site_symmetry_2
_ccdc_geom_bond_type
C0 O16 1.251 . S
C0 O18 1.254 1_554 S
N1 C2 1.333 1_445 S
N1 C6 1.307 . S
N1 Zn7 2.020 . S
C2 N1 1.333 1_665 S
C2 C3 1.379 . S
C2 H20 0.952 . S
C3 C2 1.379 . S
C3 C4 1.390 1_665 S
C3 H30 0.949 . S
C4 C3 1.390 1_445 S
C4 C5 1.357 . S
C5 C4 1.357 . S
C5 C6 1.370 . S
C5 H31 0.950 . S
C6 N1 1.307 . S
C6 C5 1.370 . S
C6 H24 0.948 . S
Zn7 N1 2.020 . S
Zn7 O16 2.039 1_445 S
Zn7 O22 2.034 1_455 S
Zn7 O26 2.025 . S
Zn7 O28 2.024 1_545 S
C8 O27 1.246 1_554 S
C8 O28 1.249 . S
N9 C10 1.307 1_445 S
N9 C11 1.333 . S
N9 Zn15 2.020 . S
C10 N9 1.307 1_665 S
C10 C14 1.370 . S
C10 H21 0.948 . S
C11 N9 1.333 . S
C11 C12 1.379 . S
C11 H19 0.952 . S
C12 C11 1.379 . S
C12 C13 1.390 . S
C12 H32 0.949 . S
C13 C12 1.390 . S
C13 C14 1.357 1_445 S
C14 C10 1.370 . S
C14 C13 1.357 1_665 S
C14 H33 0.950 . S
Zn15 N9 2.020 . S
Zn15 O18 2.025 1_445 S
Zn15 O23 2.024 1_455 S
Zn15 O25 2.039 . S
Zn15 O27 2.034 1_545 S
O16 C0 1.251 . S
O16 Zn7 2.039 1_665 S
C17 O22 1.246 . S
C17 O23 1.249 1_554 S
O18 C0 1.254 1_556 S
O18 Zn15 2.025 1_665 S
H19 C11 0.952 . S
H20 C2 0.952 . S
H21 C10 0.948 . S
O22 Zn7 2.034 1_655 S
O22 C17 1.246 . S
O23 Zn15 2.024 1_655 S
O23 C17 1.249 1_556 S
H24 C6 0.948 . S
O25 Zn15 2.039 . S
O25 C29 1.251 1_556 S
O26 Zn7 2.025 . S
O26 C29 1.254 . S
O27 C8 1.246 1_556 S
O27 Zn15 2.034 1_565 S
O28 Zn7 2.024 1_565 S
O28 C8 1.249 . S
C29 O25 1.251 1_554 S
C29 O26 1.254 . S
H30 C3 0.949 . S
H31 C5 0.950 . S
H32 C12 0.949 . S
H33 C14 0.950 . S
C34 O50 1.251 . S
C34 O52 1.254 . S
N35 C36 1.333 . S
N35 C40 1.307 . S
N35 Zn41 2.020 . S
C36 N35 1.333 . S
C36 C37 1.379 . S
C36 H54 0.952 . S
C37 C36 1.379 . S
C37 C38 1.390 . S
C37 H64 0.949 . S
C38 C37 1.390 . S
C38 C39 1.357 . S
C39 C38 1.357 . S
C39 C40 1.370 . S
C39 H65 0.950 . S
C40 N35 1.307 . S
C40 C39 1.370 . S
C40 H58 0.948 . S
Zn41 N35 2.020 . S
Zn41 O50 2.039 . S
Zn41 O56 2.034 . S
Zn41 O60 2.025 . S
Zn41 O62 2.024 . S
C42 O61 1.246 . S
C42 O62 1.249 . S
N43 C44 1.307 . S
N43 C45 1.333 . S
N43 Zn49 2.020 . S
C44 N43 1.307 . S
C44 C48 1.370 . S
C44 H55 0.948 . S
C45 N43 1.333 . S
C45 C46 1.379 . S
C45 H53 0.952 . S
C46 C45 1.379 . S
C46 C47 1.390 . S
C46 H66 0.949 . S
C47 C46 1.390 . S
C47 C48 1.357 . S
C48 C44 1.370 . S
C48 C47 1.357 . S
C48 H67 0.950 . S
Zn49 N43 2.020 . S
Zn49 O52 2.025 . S
Zn49 O57 2.024 . S
Zn49 O59 2.039 . S
Zn49 O61 2.034 . S
O50 C34 1.251 . S
O50 Zn41 2.039 . S
C51 O56 1.246 . S
C51 O57 1.249 . S
O52 C34 1.254 . S
O52 Zn49 2.025 . S
H53 C45 0.952 . S
H54 C36 0.952 . S
H55 C44 0.948 . S
O56 Zn41 2.034 . S
O56 C51 1.246 . S
O57 Zn49 2.024 . S
O57 C51 1.249 . S
H58 C40 0.948 . S
O59 Zn49 2.039 . S
O59 C63 1.251 . S
O60 Zn41 2.025 . S
O60 C63 1.254 . S
O61 C42 1.246 . S
O61 Zn49 2.034 . S
O62 Zn41 2.024 . S
O62 C42 1.249 . S
C63 O59 1.251 . S
C63 O60 1.254 . S
H64 C37 0.949 . S
H65 C39 0.950 . S
H66 C46 0.949 . S
H67 C48 0.950 . S
C68 C69 1.264 . S
C68 C73 1.479 . S
C68 C78 1.465 . S
C69 C68 1.264 . S
C69 C71 1.339 . S
C69 H96 0.931 . S
C70 C71 1.395 . S
C70 C72 1.320 . S
C71 C69 1.339 . S
C71 C70 1.395 . S
C71 H97 0.929 . S
C72 C70 1.320 . S
C72 C73 1.405 . S
C72 H98 0.930 . S
C73 C68 1.479 . S
C73 C72 1.405 . S
C73 H99 0.931 . S
U74 O75 2.454 1_545 S
U74 O76 2.458 1_545 S
U74 C77 2.984 1_545 S
U74 C78 2.847 1_455 S
U74 C91 2.882 . S
U74 O92 2.441 1_455 S
U74 O93 2.420 1_455 S
U74 O94 2.455 1_545 S
U74 O95 2.449 . S
O75 U74 2.454 1_565 S
O75 C77 1.353 . S
O76 U74 2.458 1_565 S
O76 C77 1.286 . S
C77 U74 2.984 1_565 S
C77 O75 1.353 . S
C77 O76 1.286 . S
C77 C79 1.363 . S
C78 C68 1.465 . S
C78 U74 2.847 1_655 S
C78 O92 1.249 . S
C78 O93 1.202 . S
C79 C77 1.363 . S
C79 C81 1.408 . S
C79 C84 1.342 . S
C80 C81 1.310 . S
C80 C83 1.461 . S
C80 H100 0.932 . S
C81 C79 1.408 . S
C81 C80 1.310 . S
C81 H101 0.930 . S
C82 C83 1.474 . S
C82 C84 1.285 . S
C82 H102 0.929 . S
C83 C80 1.461 . S
C83 C82 1.474 . S
C84 C79 1.342 . S
C84 C82 1.285 . S
C84 H103 0.930 . S
C85 C88 1.424 1_455 S
C85 C90 1.245 1_545 S
C85 C91 1.428 . S
C86 C89 1.260 1_565 S
C86 C90 1.477 . S
C86 H104 0.932 . S
C87 C88 1.384 . S
C87 C89 1.479 1_655 S
C87 H105 0.929 . S
C88 C85 1.424 1_655 S
C88 C87 1.384 . S
C88 H106 0.928 . S
C89 C86 1.260 1_545 S
C89 C87 1.479 1_455 S
C90 C85 1.245 1_565 S
C90 C86 1.477 . S
C90 H107 0.932 . S
C91 U74 2.882 . S
C91 C85 1.428 . S
C91 O94 1.301 1_545 S
C91 O95 1.282 . S
O92 U74 2.441 1_655 S
O92 C78 1.249 . S
O93 U74 2.420 1_655 S
O93 C78 1.202 . S
O94 U74 2.455 1_565 S
O94 C91 1.301 1_565 S
O95 U74 2.449 . S
O95 C91 1.282 . S
H96 C69 0.931 . S
H97 C71 0.929 . S
H98 C72 0.930 . S
H99 C73 0.931 . S
H100 C80 0.932 . S
H101 C81 0.930 . S
H102 C82 0.929 . S
H103 C84 0.930 . S
H104 C86 0.932 . S
H105 C87 0.929 . S
H106 C88 0.928 . S
H107 C90 0.932 . S
C108 C109 1.264 . S
C108 C113 1.479 . S
C108 C118 1.465 . S
C109 C108 1.264 . S
C109 C111 1.339 . S
C109 H136 0.931 . S
C110 C111 1.395 . S
C110 C112 1.320 . S
C111 C109 1.339 . S
C111 C110 1.395 . S
C111 H137 0.929 . S
C112 C110 1.320 . S
C112 C113 1.405 . S
C112 H138 0.930 . S
C113 C108 1.479 . S
C113 C112 1.405 . S
C113 H139 0.931 . S
U114 O115 2.454 1_565 S
U114 O116 2.458 1_565 S
U114 C117 2.984 1_565 S
U114 C118 2.847 1_455 S
U114 C131 2.882 . S
U114 O132 2.441 . S
U114 O133 2.420 1_455 S
U114 O134 2.455 1_565 S
U114 O135 2.449 . S
O115 U114 2.454 1_545 S
O115 C117 1.353 . S
O116 U114 2.458 1_545 S
O116 C117 1.286 . S
C117 U114 2.984 1_545 S
C117 O115 1.353 . S
C117 O116 1.286 . S
C117 C119 1.363 . S
C118 C108 1.465 . S
C118 U114 2.847 1_655 S
C118 O132 1.249 1_655 S
C118 O133 1.202 . S
C119 C117 1.363 . S
C119 C121 1.408 . S
C119 C124 1.342 . S
C120 C121 1.310 . S
C120 C123 1.461 . S
C120 H140 0.932 . S
C121 C119 1.408 . S
C121 C120 1.310 . S
C121 H141 0.930 . S
C122 C123 1.474 . S
C122 C124 1.285 . S
C122 H142 0.929 . S
C123 C120 1.461 . S
C123 C122 1.474 . S
C124 C119 1.342 . S
C124 C122 1.285 . S
C124 H143 0.930 . S
C125 C128 1.424 . S
C125 C130 1.245 1_565 S
C125 C131 1.428 . S
C126 C129 1.260 . S
C126 C130 1.477 . S
C126 H144 0.932 . S
C127 C128 1.384 . S
C127 C129 1.479 1_565 S
C127 H145 0.929 1_455 S
C128 C125 1.424 . S
C128 C127 1.384 . S
C128 H146 0.928 1_455 S
C129 C126 1.260 . S
C129 C127 1.479 1_545 S
C130 C125 1.245 1_545 S
C130 C126 1.477 . S
C130 H147 0.932 . S
C131 U114 2.882 . S
C131 C125 1.428 . S
C131 O134 1.301 1_565 S
C131 O135 1.282 . S
O132 U114 2.441 . S
O132 C118 1.249 1_455 S
O133 U114 2.420 1_655 S
O133 C118 1.202 . S
O134 U114 2.455 1_545 S
O134 C131 1.301 1_545 S
O135 U114 2.449 . S
O135 C131 1.282 . S
H136 C109 0.931 . S
H137 C111 0.929 . S
H138 C112 0.930 . S
H139 C113 0.931 . S
H140 C120 0.932 . S
H141 C121 0.930 . S
H142 C122 0.929 . S
H143 C124 0.930 . S
H144 C126 0.932 . S
H145 C127 0.929 1_655 S
H146 C128 0.928 1_655 S
H147 C130 0.932 . S
C148 C149 1.264 . S
C148 C153 1.479 . S
C148 C158 1.465 . S
C149 C148 1.264 . S
C149 C151 1.339 . S
C149 H176 0.931 . S
C150 C151 1.395 . S
C150 C152 1.320 1_556 S
C151 C149 1.339 . S
C151 C150 1.395 . S
C151 H177 0.929 . S
C152 C150 1.320 1_554 S
C152 C153 1.405 1_554 S
C152 H178 0.930 . S
C153 C148 1.479 . S
C153 C152 1.405 1_556 S
C153 H179 0.931 1_556 S
U154 O155 2.454 . S
U154 O156 2.458 . S
U154 C157 2.984 . S
U154 C158 2.847 . S
U154 C171 2.882 . S
U154 O172 2.441 . S
U154 O173 2.420 . S
U154 O174 2.455 . S
U154 O175 2.449 . S
O155 U154 2.454 . S
O155 C157 1.353 . S
O156 U154 2.458 . S
O156 C157 1.286 . S
C157 U154 2.984 . S
C157 O155 1.353 . S
C157 O156 1.286 . S
C157 C159 1.363 . S
C158 C148 1.465 . S
C158 U154 2.847 . S
C158 O172 1.249 . S
C158 O173 1.202 . S
C159 C157 1.363 . S
C159 C161 1.408 . S
C159 C164 1.342 . S
C160 C161 1.310 1_554 S
C160 C163 1.461 1_554 S
C160 H180 0.932 . S
C161 C159 1.408 . S
C161 C160 1.310 1_556 S
C161 H181 0.930 1_556 S
C162 C163 1.474 . S
C162 C164 1.285 . S
C162 H182 0.929 . S
C163 C160 1.461 1_556 S
C163 C162 1.474 . S
C164 C159 1.342 . S
C164 C162 1.285 . S
C164 H183 0.930 . S
C165 C168 1.424 . S
C165 C170 1.245 . S
C165 C171 1.428 . S
C166 C169 1.260 . S
C166 C170 1.477 . S
C166 H184 0.932 . S
C167 C168 1.384 . S
C167 C169 1.479 . S
C167 H185 0.929 . S
C168 C165 1.424 . S
C168 C167 1.384 . S
C168 H186 0.928 . S
C169 C166 1.260 . S
C169 C167 1.479 . S
C170 C165 1.245 . S
C170 C166 1.477 . S
C170 H187 0.932 . S
C171 U154 2.882 . S
C171 C165 1.428 . S
C171 O174 1.301 . S
C171 O175 1.282 . S
O172 U154 2.441 . S
O172 C158 1.249 . S
O173 U154 2.420 . S
O173 C158 1.202 . S
O174 U154 2.455 . S
O174 C171 1.301 . S
O175 U154 2.449 . S
O175 C171 1.282 . S
H176 C149 0.931 . S
H177 C151 0.929 . S
H178 C152 0.930 . S
H179 C153 0.931 1_554 S
H180 C160 0.932 . S
H181 C161 0.930 1_554 S
H182 C162 0.929 . S
H183 C164 0.930 . S
H184 C166 0.932 . S
H185 C167 0.929 . S
H186 C168 0.928 . S
H187 C170 0.932 . S
C188 C189 1.264 . S
C188 C193 1.479 . S
C188 C198 1.465 . S
C189 C188 1.264 . S
C189 C191 1.339 . S
C189 H216 0.931 . S
C190 C191 1.395 . S
C190 C192 1.320 . S
C191 C189 1.339 . S
C191 C190 1.395 . S
C191 H217 0.929 . S
C192 C190 1.320 . S
C192 C193 1.405 . S
C192 H218 0.930 1_554 S
C193 C188 1.479 . S
C193 C192 1.405 . S
C193 H219 0.931 . S
U194 O195 2.454 . S
U194 O196 2.458 . S
U194 C197 2.984 . S
U194 C198 2.847 . S
U194 C211 2.882 . S
U194 O212 2.441 . S
U194 O213 2.420 . S
U194 O214 2.455 . S
U194 O215 2.449 . S
O195 U194 2.454 . S
O195 C197 1.353 . S
O196 U194 2.458 . S
O196 C197 1.286 . S
C197 U194 2.984 . S
C197 O195 1.353 . S
C197 O196 1.286 . S
C197 C199 1.363 . S
C198 C188 1.465 . S
C198 U194 2.847 . S
C198 O212 1.249 . S
C198 O213 1.202 . S
C199 C197 1.363 . S
C199 C201 1.408 . S
C199 C204 1.342 . S
C200 C201 1.310 . S
C200 C203 1.461 . S
C200 H220 0.932 1_554 S
C201 C199 1.408 . S
C201 C200 1.310 . S
C201 H221 0.930 . S
C202 C203 1.474 . S
C202 C204 1.285 . S
C202 H222 0.929 . S
C203 C200 1.461 . S
C203 C202 1.474 . S
C204 C199 1.342 . S
C204 C202 1.285 . S
C204 H223 0.930 . S
C205 C208 1.424 . S
C205 C210 1.245 . S
C205 C211 1.428 . S
C206 C209 1.260 . S
C206 C210 1.477 . S
C206 H224 0.932 . S
C207 C208 1.384 . S
C207 C209 1.479 . S
C207 H225 0.929 . S
C208 C205 1.424 . S
C208 C207 1.384 . S
C208 H226 0.928 . S
C209 C206 1.260 . S
C209 C207 1.479 . S
C210 C205 1.245 . S
C210 C206 1.477 . S
C210 H227 0.932 . S
C211 U194 2.882 . S
C211 C205 1.428 . S
C211 O214 1.301 . S
C211 O215 1.282 . S
O212 U194 2.441 . S
O212 C198 1.249 . S
O213 U194 2.420 . S
O213 C198 1.202 . S
O214 U194 2.455 . S
O214 C211 1.301 . S
O215 U194 2.449 . S
O215 C211 1.282 . S
H216 C189 0.931 . S
H217 C191 0.929 . S
H218 C192 0.930 1_556 S
H219 C193 0.931 . S
H220 C200 0.932 1_556 S
H221 C201 0.930 . S
H222 C202 0.929 . S
H223 C204 0.930 . S
H224 C206 0.932 . S
H225 C207 0.929 . S
H226 C208 0.928 . S
H227 C210 0.932 . S
H228 C246 0.951 . S
H229 C248 0.951 . S
H230 C250 0.950 . S
H231 C251 0.950 . S
H232 C253 0.950 . S
H233 C256 0.950 . S
H234 C257 0.950 . S
H235 C259 0.950 . S
H236 C260 0.950 . S
H237 C261 0.951 . S
H238 C263 0.951 . S
H239 C265 0.950 . S
H240 C266 0.950 . S
H241 C268 0.950 . S
H242 C271 0.950 . S
H243 C272 0.950 . S
H244 C274 0.950 . S
H245 C275 0.950 . S
C246 H228 0.951 . S
C246 C247 1.366 1_556 S
C246 C248 1.388 . S
C247 C246 1.366 1_554 S
C247 C251 1.385 . S
C248 H229 0.951 . S
C248 C246 1.388 . S
C248 C249 1.366 1_556 S
C249 C248 1.366 1_554 S
C249 C250 1.414 . S
C249 C252 1.499 . S
C250 H230 0.950 . S
C250 C249 1.414 . S
C250 C251 1.374 . S
C251 H231 0.950 . S
C251 C247 1.385 . S
C251 C250 1.374 . S
C252 C249 1.499 . S
C252 C253 1.373 . S
C252 C254 1.389 1_554 S
C253 H232 0.950 . S
C253 C252 1.373 . S
C253 C269 1.377 . S
C254 C252 1.389 1_556 S
C254 C255 1.524 . S
C254 C268 1.377 . S
C255 C254 1.524 . S
C255 C256 1.397 . S
C255 C260 1.363 . S
C256 H233 0.950 . S
C256 C255 1.397 . S
C256 C257 1.334 . S
C257 H234 0.950 . S
C257 C256 1.334 . S
C257 C258 1.287 . S
C258 C257 1.287 . S
C258 C259 1.524 . S
C258 H277 0.913 . S
C259 H235 0.950 . S
C259 C258 1.524 . S
C259 C260 1.415 . S
C260 H236 0.950 . S
C260 C255 1.363 . S
C260 C259 1.415 . S
C261 H237 0.951 . S
C261 C262 1.366 . S
C261 C263 1.388 . S
C262 C261 1.366 . S
C262 C266 1.385 1_554 S
C263 H238 0.951 . S
C263 C261 1.388 . S
C263 C264 1.366 . S
C264 C263 1.366 . S
C264 C265 1.414 1_554 S
C264 C267 1.499 . S
C265 H239 0.950 . S
C265 C264 1.414 1_556 S
C265 C266 1.374 . S
C266 H240 0.950 . S
C266 C262 1.385 1_556 S
C266 C265 1.374 . S
C267 C264 1.499 . S
C267 C268 1.373 1_554 S
C267 C269 1.389 . S
C268 H241 0.950 . S
C268 C254 1.377 . S
C268 C267 1.373 1_556 S
C269 C253 1.377 . S
C269 C267 1.389 . S
C269 C270 1.524 . S
C270 C269 1.524 . S
C270 C271 1.397 . S
C270 C275 1.363 . S
C271 H242 0.950 . S
C271 C270 1.397 . S
C271 C272 1.334 . S
C272 H243 0.950 . S
C272 C271 1.334 . S
C272 C273 1.287 . S
C273 C272 1.287 . S
C273 C274 1.524 . S
C273 H276 0.999 . S
C274 H244 0.950 . S
C274 C273 1.524 . S
C274 C275 1.415 . S
C275 H245 0.950 . S
C275 C270 1.363 . S
C275 C274 1.415 . S
H276 C273 0.999 . S
H277 C258 0.913 . S
H278 C296 0.951 . S
H279 C298 0.951 . S
H280 C300 0.950 . S
H281 C301 0.950 . S
H282 C303 0.950 . S
H283 C306 0.950 . S
H284 C307 0.950 . S
H285 C309 0.950 . S
H286 C310 0.950 . S
H287 C311 0.951 . S
H288 C313 0.951 . S
H289 C315 0.950 . S
H290 C316 0.950 . S
H291 C318 0.950 . S
H292 C321 0.950 . S
H293 C322 0.950 . S
H294 C324 0.950 . S
H295 C325 0.950 . S
C296 H278 0.951 . S
C296 C297 1.366 . S
C296 C298 1.388 . S
C297 C296 1.366 . S
C297 C301 1.385 1_554 S
C298 H279 0.951 . S
C298 C296 1.388 . S
C298 C299 1.366 . S
C299 C298 1.366 . S
C299 C300 1.414 1_554 S
C299 C302 1.499 . S
C300 H280 0.950 . S
C300 C299 1.414 1_556 S
C300 C301 1.374 . S
C301 H281 0.950 . S
C301 C297 1.385 1_556 S
C301 C300 1.374 . S
C302 C299 1.499 . S
C302 C303 1.373 1_554 S
C302 C304 1.389 . S
C303 H282 0.950 . S
C303 C302 1.373 1_556 S
C303 C319 1.377 . S
C304 C302 1.389 . S
C304 C305 1.524 . S
C304 C318 1.377 . S
C305 C304 1.524 . S
C305 C306 1.397 . S
C305 C310 1.363 . S
C306 H283 0.950 . S
C306 C305 1.397 . S
C306 C307 1.334 . S
C307 H284 0.950 . S
C307 C306 1.334 . S
C307 C308 1.287 . S
C308 C307 1.287 . S
C308 C309 1.524 . S
C308 H327 0.913 . S
C309 H285 0.950 . S
C309 C308 1.524 . S
C309 C310 1.415 . S
C310 H286 0.950 . S
C310 C305 1.363 . S
C310 C309 1.415 . S
C311 H287 0.951 . S
C311 C312 1.366 . S
C311 C313 1.388 . S
C312 C311 1.366 . S
C312 C316 1.385 1_556 S
C313 H288 0.951 . S
C313 C311 1.388 . S
C313 C314 1.366 . S
C314 C313 1.366 . S
C314 C315 1.414 1_556 S
C314 C317 1.499 . S
C315 H289 0.950 . S
C315 C314 1.414 1_554 S
C315 C316 1.374 . S
C316 H290 0.950 . S
C316 C312 1.385 1_554 S
C316 C315 1.374 . S
C317 C314 1.499 . S
C317 C318 1.373 1_556 S
C317 C319 1.389 . S
C318 H291 0.950 . S
C318 C304 1.377 . S
C318 C317 1.373 1_554 S
C319 C303 1.377 . S
C319 C317 1.389 . S
C319 C320 1.524 . S
C320 C319 1.524 . S
C320 C321 1.397 . S
C320 C325 1.363 . S
C321 H292 0.950 . S
C321 C320 1.397 . S
C321 C322 1.334 . S
C322 H293 0.950 . S
C322 C321 1.334 . S
C322 C323 1.287 . S
C323 C322 1.287 . S
C323 C324 1.524 . S
C323 H326 0.999 . S
C324 H294 0.950 . S
C324 C323 1.524 . S
C324 C325 1.415 . S
C325 H295 0.950 . S
C325 C320 1.363 . S
C325 C324 1.415 . S
H326 C323 0.999 . S
H327 C308 0.913 . S
H328 C346 0.951 . S
H329 C348 0.951 . S
H330 C350 0.950 . S
H331 C351 0.950 . S
H332 C353 0.950 . S
H333 C356 0.950 . S
H334 C357 0.950 . S
H335 C359 0.950 . S
H336 C360 0.950 . S
H337 C361 0.951 . S
H338 C363 0.951 . S
H339 C365 0.950 . S
H340 C366 0.950 . S
H341 C368 0.950 . S
H342 C371 0.950 . S
H343 C372 0.950 . S
H344 C374 0.950 . S
H345 C375 0.950 . S
C346 H328 0.951 . S
C346 C347 1.366 . S
C346 C348 1.388 . S
C347 C346 1.366 . S
C347 C351 1.385 1_554 S
C348 H329 0.951 . S
C348 C346 1.388 . S
C348 C349 1.366 . S
C349 C348 1.366 . S
C349 C350 1.414 1_554 S
C349 C352 1.499 . S
C350 H330 0.950 . S
C350 C349 1.414 1_556 S
C350 C351 1.374 . S
C351 H331 0.950 . S
C351 C347 1.385 1_556 S
C351 C350 1.374 . S
C352 C349 1.499 . S
C352 C353 1.373 1_554 S
C352 C354 1.389 . S
C353 H332 0.950 . S
C353 C352 1.373 1_556 S
C353 C369 1.377 . S
C354 C352 1.389 . S
C354 C355 1.524 . S
C354 C368 1.377 . S
C355 C354 1.524 . S
C355 C356 1.397 . S
C355 C360 1.363 . S
C356 H333 0.950 . S
C356 C355 1.397 . S
C356 C357 1.334 . S
C357 H334 0.950 . S
C357 C356 1.334 . S
C357 C358 1.287 . S
C358 C357 1.287 . S
C358 C359 1.524 . S
C358 H377 0.913 . S
C359 H335 0.950 . S
C359 C358 1.524 . S
C359 C360 1.415 . S
C360 H336 0.950 . S
C360 C355 1.363 . S
C360 C359 1.415 . S
C361 H337 0.951 . S
C361 C362 1.366 1_556 S
C361 C363 1.388 . S
C362 C361 1.366 1_554 S
C362 C366 1.385 . S
C363 H338 0.951 . S
C363 C361 1.388 . S
C363 C364 1.366 1_556 S
C364 C363 1.366 1_554 S
C364 C365 1.414 . S
C364 C367 1.499 . S
C365 H339 0.950 . S
C365 C364 1.414 . S
C365 C366 1.374 . S
C366 H340 0.950 . S
C366 C362 1.385 . S
C366 C365 1.374 . S
C367 C364 1.499 . S
C367 C368 1.373 . S
C367 C369 1.389 1_554 S
C368 H341 0.950 . S
C368 C354 1.377 . S
C368 C367 1.373 . S
C369 C353 1.377 . S
C369 C367 1.389 1_556 S
C369 C370 1.524 . S
C370 C369 1.524 . S
C370 C371 1.397 . S
C370 C375 1.363 . S
C371 H342 0.950 . S
C371 C370 1.397 . S
C371 C372 1.334 . S
C372 H343 0.950 . S
C372 C371 1.334 . S
C372 C373 1.287 . S
C373 C372 1.287 . S
C373 C374 1.524 . S
C373 H376 0.999 . S
C374 H344 0.950 . S
C374 C373 1.524 . S
C374 C375 1.415 . S
C375 H345 0.950 . S
C375 C370 1.363 . S
C375 C374 1.415 . S
H376 C373 0.999 . S
H377 C358 0.913 . S
H378 C396 0.951 . S
H379 C398 0.951 . S
H380 C400 0.950 . S
H381 C401 0.950 . S
H382 C403 0.950 . S
H383 C406 0.950 . S
H384 C407 0.950 . S
H385 C409 0.950 . S
H386 C410 0.950 . S
H387 C411 0.951 . S
H388 C413 0.951 . S
H389 C415 0.950 . S
H390 C416 0.950 . S
H391 C418 0.950 . S
H392 C421 0.950 . S
H393 C422 0.950 . S
H394 C424 0.950 . S
H395 C425 0.950 . S
C396 H378 0.951 . S
C396 C397 1.366 1_556 S
C396 C398 1.388 . S
C397 C396 1.366 1_554 S
C397 C401 1.385 . S
C398 H379 0.951 . S
C398 C396 1.388 . S
C398 C399 1.366 1_556 S
C399 C398 1.366 1_554 S
C399 C400 1.414 . S
C399 C402 1.499 . S
C400 H380 0.950 . S
C400 C399 1.414 . S
C400 C401 1.374 . S
C401 H381 0.950 . S
C401 C397 1.385 . S
C401 C400 1.374 . S
C402 C399 1.499 . S
C402 C403 1.373 . S
C402 C404 1.389 1_554 S
C403 H382 0.950 . S
C403 C402 1.373 . S
C403 C419 1.377 . S
C404 C402 1.389 1_556 S
C404 C405 1.524 . S
C404 C418 1.377 . S
C405 C404 1.524 . S
C405 C406 1.397 . S
C405 C410 1.363 . S
C406 H383 0.950 . S
C406 C405 1.397 . S
C406 C407 1.334 . S
C407 H384 0.950 . S
C407 C406 1.334 . S
C407 C408 1.287 . S
C408 C407 1.287 . S
C408 C409 1.524 . S
C408 H427 0.913 . S
C409 H385 0.950 . S
C409 C408 1.524 . S
C409 C410 1.415 . S
C410 H386 0.950 . S
C410 C405 1.363 . S
C410 C409 1.415 . S
C411 H387 0.951 . S
C411 C412 1.366 1_554 S
C411 C413 1.388 . S
C412 C411 1.366 1_556 S
C412 C416 1.385 . S
C413 H388 0.951 . S
C413 C411 1.388 . S
C413 C414 1.382 . S
C414 C413 1.382 . S
C414 C415 1.395 1_554 S
C414 C417 1.501 . S
C415 H389 0.950 . S
C415 C414 1.395 1_556 S
C415 C416 1.374 . S
C416 H390 0.950 . S
C416 C412 1.385 . S
C416 C415 1.374 . S
C417 C414 1.501 . S
C417 C418 1.373 1_554 S
C417 C419 1.389 . S
C418 H391 0.950 . S
C418 C404 1.377 . S
C418 C417 1.373 1_556 S
C419 C403 1.377 . S
C419 C417 1.389 . S
C419 C420 1.524 . S
C420 C419 1.524 . S
C420 C421 1.397 . S
C420 C425 1.363 . S
C421 H392 0.950 . S
C421 C420 1.397 . S
C421 C422 1.334 . S
C422 H393 0.950 . S
C422 C421 1.334 . S
C422 C423 1.287 . S
C423 C422 1.287 . S
C423 C424 1.524 . S
C423 H426 0.999 . S
C424 H394 0.950 . S
C424 C423 1.524 . S
C424 C425 1.415 . S
C425 H395 0.950 . S
C425 C420 1.363 . S
C425 C424 1.415 . S
H426 C423 0.999 . S
H427 C408 0.913 . S
H428 C446 0.951 . S
H429 C448 0.951 . S
H430 C450 0.950 . S
H431 C451 0.950 . S
H432 C453 0.950 . S
H433 C456 0.950 . S
H434 C457 0.950 . S
H435 C459 0.950 . S
H436 C460 0.950 . S
H437 C461 0.951 . S
H438 C463 0.951 . S
H439 C465 0.950 . S
H440 C466 0.950 . S
H441 C468 0.950 . S
H442 C471 0.950 . S
H443 C472 0.950 . S
H444 C474 0.950 . S
H445 C475 0.950 . S
C446 H428 0.951 . S
C446 C447 1.366 . S
C446 C448 1.388 . S
C447 C446 1.366 . S
C447 C451 1.385 . S
C448 H429 0.951 . S
C448 C446 1.388 . S
C448 C449 1.366 . S
C449 C448 1.366 . S
C449 C450 1.414 . S
C449 C452 1.499 . S
C450 H430 0.950 . S
C450 C449 1.414 . S
C450 C451 1.374 . S
C451 H431 0.950 . S
C451 C447 1.385 . S
C451 C450 1.374 . S
C452 C449 1.499 . S
C452 C453 1.373 . S
C452 C454 1.389 . S
C453 H432 0.950 . S
C453 C452 1.373 . S
C453 C469 1.377 . S
C454 C452 1.389 . S
C454 C455 1.524 . S
C454 C468 1.377 . S
C455 C454 1.524 . S
C455 C456 1.397 . S
C455 C460 1.363 . S
C456 H433 0.950 . S
C456 C455 1.397 . S
C456 C457 1.334 . S
C457 H434 0.950 . S
C457 C456 1.334 . S
C457 C458 1.287 . S
C458 C457 1.287 . S
C458 C459 1.524 . S
C458 H477 0.913 . S
C459 H435 0.950 . S
C459 C458 1.524 . S
C459 C460 1.415 . S
C460 H436 0.950 . S
C460 C455 1.363 . S
C460 C459 1.415 . S
C461 H437 0.951 . S
C461 C462 1.366 . S
C461 C463 1.388 . S
C462 C461 1.366 . S
C462 C466 1.385 . S
C463 H438 0.951 . S
C463 C461 1.388 . S
C463 C464 1.366 . S
C464 C463 1.366 . S
C464 C465 1.414 . S
C464 C467 1.499 . S
C465 H439 0.950 . S
C465 C464 1.414 . S
C465 C466 1.374 . S
C466 H440 0.950 . S
C466 C462 1.385 . S
C466 C465 1.374 . S
C467 C464 1.499 . S
C467 C468 1.373 . S
C467 C469 1.389 . S
C468 H441 0.950 . S
C468 C454 1.377 . S
C468 C467 1.373 . S
C469 C453 1.377 . S
C469 C467 1.389 . S
C469 C470 1.524 . S
C470 C469 1.524 . S
C470 C471 1.397 . S
C470 C475 1.363 . S
C471 H442 0.950 . S
C471 C470 1.397 . S
C471 C472 1.334 . S
C472 H443 0.950 . S
C472 C471 1.334 . S
C472 C473 1.287 . S
C473 C472 1.287 . S
C473 C474 1.524 . S
C473 H476 0.999 . S
C474 H444 0.950 . S
C474 C473 1.524 . S
C474 C475 1.415 . S
C475 H445 0.950 . S
C475 C470 1.363 . S
C475 C474 1.415 . S
H476 C473 0.999 . S
H477 C458 0.913 . S
H478 C496 0.951 . S
H479 C498 0.951 . S
H480 C500 0.950 . S
H481 C501 0.950 . S
H482 C503 0.950 . S
H483 C506 0.950 . S
H484 C507 0.950 . S
H485 C509 0.950 . S
H486 C510 0.950 . S
H487 C511 0.951 . S
H488 C513 0.951 . S
H489 C515 0.950 . S
H490 C516 0.950 . S
H491 C518 0.950 . S
H492 C521 0.950 . S
H493 C522 0.950 . S
H494 C524 0.950 . S
H495 C525 0.950 . S
C496 H478 0.951 . S
C496 C497 1.366 . S
C496 C498 1.388 . S
C497 C496 1.366 . S
C497 C501 1.385 . S
C498 H479 0.951 . S
C498 C496 1.388 . S
C498 C499 1.366 . S
C499 C498 1.366 . S
C499 C500 1.414 . S
C499 C502 1.499 . S
C500 H480 0.950 . S
C500 C499 1.414 . S
C500 C501 1.374 . S
C501 H481 0.950 . S
C501 C497 1.385 . S
C501 C500 1.374 . S
C502 C499 1.499 . S
C502 C503 1.373 . S
C502 C504 1.389 . S
C503 H482 0.950 . S
C503 C502 1.373 . S
C503 C519 1.377 . S
C504 C502 1.389 . S
C504 C505 1.524 . S
C504 C518 1.377 . S
C505 C504 1.524 . S
C505 C506 1.397 . S
C505 C510 1.363 . S
C506 H483 0.950 . S
C506 C505 1.397 . S
C506 C507 1.334 . S
C507 H484 0.950 . S
C507 C506 1.334 . S
C507 C508 1.287 . S
C508 C507 1.287 . S
C508 C509 1.524 . S
C508 H527 0.913 . S
C509 H485 0.950 . S
C509 C508 1.524 . S
C509 C510 1.415 . S
C510 H486 0.950 . S
C510 C505 1.363 . S
C510 C509 1.415 . S
C511 H487 0.951 . S
C511 C512 1.366 . S
C511 C513 1.388 . S
C512 C511 1.366 . S
C512 C516 1.385 . S
C513 H488 0.951 . S
C513 C511 1.388 . S
C513 C514 1.366 . S
C514 C513 1.366 . S
C514 C515 1.414 . S
C514 C517 1.499 . S
C515 H489 0.950 . S
C515 C514 1.414 . S
C515 C516 1.374 . S
C516 H490 0.950 . S
C516 C512 1.385 . S
C516 C515 1.374 . S
C517 C514 1.499 . S
C517 C518 1.373 . S
C517 C519 1.389 . S
C518 H491 0.950 . S
C518 C504 1.377 . S
C518 C517 1.373 . S
C519 C503 1.377 . S
C519 C517 1.389 . S
C519 C520 1.524 . S
C520 C519 1.524 . S
C520 C521 1.397 . S
C520 C525 1.363 . S
C521 H492 0.950 . S
C521 C520 1.397 . S
C521 C522 1.334 . S
C522 H493 0.950 . S
C522 C521 1.334 . S
C522 C523 1.287 . S
C523 C522 1.287 . S
C523 C524 1.524 . S
C523 H526 0.999 . S
C524 H494 0.950 . S
C524 C523 1.524 . S
C524 C525 1.415 . S
C525 H495 0.950 . S
C525 C520 1.363 . S
C525 C524 1.415 . S
H526 C523 0.999 . S
H527 C508 0.913 . S
H528 C546 0.951 . S
H529 C548 0.951 . S
H530 C550 0.950 . S
H531 C551 0.950 . S
H532 C553 0.950 . S
H533 C556 0.950 . S
H534 C557 0.950 . S
H535 C559 0.950 . S
H536 C560 0.950 . S
H537 C561 0.951 . S
H538 C563 0.951 . S
H539 C565 0.950 . S
H540 C566 0.950 . S
H541 C568 0.950 . S
H542 C571 0.950 . S
H543 C572 0.950 . S
H544 C574 0.950 . S
H545 C575 0.950 . S
C546 H528 0.951 . S
C546 C547 1.366 . S
C546 C548 1.388 . S
C547 C546 1.366 . S
C547 C551 1.385 . S
C548 H529 0.951 . S
C548 C546 1.388 . S
C548 C549 1.366 . S
C549 C548 1.366 . S
C549 C550 1.414 . S
C549 C552 1.499 . S
C550 H530 0.950 . S
C550 C549 1.414 . S
C550 C551 1.374 . S
C551 H531 0.950 . S
C551 C547 1.385 . S
C551 C550 1.374 . S
C552 C549 1.499 . S
C552 C553 1.373 . S
C552 C554 1.389 . S
C553 H532 0.950 . S
C553 C552 1.373 . S
C553 C569 1.377 . S
C554 C552 1.389 . S
C554 C555 1.524 . S
C554 C568 1.377 . S
C555 C554 1.524 . S
C555 C556 1.397 . S
C555 C560 1.363 . S
C556 H533 0.950 . S
C556 C555 1.397 . S
C556 C557 1.334 . S
C557 H534 0.950 . S
C557 C556 1.334 . S
C557 C558 1.287 . S
C558 C557 1.287 . S
C558 C559 1.524 . S
C558 H577 0.913 . S
C559 H535 0.950 . S
C559 C558 1.524 . S
C559 C560 1.415 . S
C560 H536 0.950 . S
C560 C555 1.363 . S
C560 C559 1.415 . S
C561 H537 0.951 . S
C561 C562 1.366 . S
C561 C563 1.388 . S
C562 C561 1.366 . S
C562 C566 1.385 . S
C563 H538 0.951 . S
C563 C561 1.388 . S
C563 C564 1.366 . S
C564 C563 1.366 . S
C564 C565 1.414 . S
C564 C567 1.499 . S
C565 H539 0.950 . S
C565 C564 1.414 . S
C565 C566 1.374 . S
C566 H540 0.950 . S
C566 C562 1.385 . S
C566 C565 1.374 . S
C567 C564 1.499 . S
C567 C568 1.373 . S
C567 C569 1.389 . S
C568 H541 0.950 . S
C568 C554 1.377 . S
C568 C567 1.373 . S
C569 C553 1.377 . S
C569 C567 1.389 . S
C569 C570 1.524 . S
C570 C569 1.524 . S
C570 C571 1.397 . S
C570 C575 1.363 . S
C571 H542 0.950 . S
C571 C570 1.397 . S
C571 C572 1.334 . S
C572 H543 0.950 . S
C572 C571 1.334 . S
C572 C573 1.287 . S
C573 C572 1.287 . S
C573 C574 1.524 . S
C573 H576 0.999 . S
C574 H544 0.950 . S
C574 C573 1.524 . S
C574 C575 1.415 . S
C575 H545 0.950 . S
C575 C570 1.363 . S
C575 C574 1.415 . S
H576 C573 0.999 . S
H577 C558 0.913 . S
H578 C596 0.951 . S
H579 C598 0.951 . S
H580 C600 0.950 . S
H581 C601 0.950 . S
H582 C603 0.950 . S
H583 C606 0.950 . S
H584 C607 0.950 . S
H585 C609 0.950 . S
H586 C610 0.950 . S
H587 C611 0.951 . S
H588 C613 0.951 . S
H589 C615 0.950 . S
H590 C616 0.950 . S
H591 C618 0.950 . S
H592 C621 0.950 . S
H593 C622 0.950 . S
H594 C624 0.950 . S
H595 C625 0.950 . S
C596 H578 0.951 . S
C596 C597 1.366 . S
C596 C598 1.388 . S
C597 C596 1.366 . S
C597 C601 1.385 . S
C598 H579 0.951 . S
C598 C596 1.388 . S
C598 C599 1.366 . S
C599 C598 1.366 . S
C599 C600 1.414 . S
C599 C602 1.499 . S
C600 H580 0.950 . S
C600 C599 1.414 . S
C600 C601 1.374 . S
C601 H581 0.950 . S
C601 C597 1.385 . S
C601 C600 1.374 . S
C602 C599 1.499 . S
C602 C603 1.373 . S
C602 C604 1.389 . S
C603 H582 0.950 . S
C603 C602 1.373 . S
C603 C619 1.377 . S
C604 C602 1.389 . S
C604 C605 1.524 . S
C604 C618 1.377 . S
C605 C604 1.524 . S
C605 C606 1.397 . S
C605 C610 1.363 . S
C606 H583 0.950 . S
C606 C605 1.397 . S
C606 C607 1.334 . S
C607 H584 0.950 . S
C607 C606 1.334 . S
C607 C608 1.287 . S
C608 C607 1.287 . S
C608 C609 1.524 . S
C608 H627 0.913 . S
C609 H585 0.950 . S
C609 C608 1.524 . S
C609 C610 1.415 . S
C610 H586 0.950 . S
C610 C605 1.363 . S
C610 C609 1.415 . S
C611 H587 0.951 . S
C611 C612 1.366 . S
C611 C613 1.388 . S
C612 C611 1.366 . S
C612 C616 1.385 . S
C613 H588 0.951 . S
C613 C611 1.388 . S
C613 C614 1.366 . S
C614 C613 1.366 . S
C614 C615 1.414 . S
C614 C617 1.499 . S
C615 H589 0.950 . S
C615 C614 1.414 . S
C615 C616 1.374 . S
C616 H590 0.950 . S
C616 C612 1.385 . S
C616 C615 1.374 . S
C617 C614 1.499 . S
C617 C618 1.373 . S
C617 C619 1.389 . S
C618 H591 0.950 . S
C618 C604 1.377 . S
C618 C617 1.373 . S
C619 C603 1.377 . S
C619 C617 1.389 . S
C619 C620 1.524 . S
C620 C619 1.524 . S
C620 C621 1.397 . S
C620 C625 1.363 . S
C621 H592 0.950 . S
C621 C620 1.397 . S
C621 C622 1.334 . S
C622 H593 0.950 . S
C622 C621 1.334 . S
C622 C623 1.287 . S
C623 C622 1.287 . S
C623 C624 1.524 . S
C623 H626 0.999 . S
C624 H594 0.950 . S
C624 C623 1.524 . S
C624 C625 1.415 . S
C625 H595 0.950 . S
C625 C620 1.363 . S
C625 C624 1.415 . S
H626 C623 0.999 . S
H627 C608 0.913 . S
H628 C646 0.951 . S
H629 C648 0.951 . S
H630 C650 0.950 . S
H631 C651 0.950 . S
H632 C653 0.950 . S
H633 C656 0.950 . S
H634 C657 0.935 1_565 S
H635 C659 0.950 . S
H636 C660 0.950 . S
H637 C661 0.951 . S
H638 C663 0.951 . S
H639 C665 0.950 . S
H640 C666 0.950 . S
H641 C668 0.950 . S
H642 C671 0.950 . S
H643 C672 0.950 . S
H644 C674 0.950 . S
H645 C675 0.950 . S
C646 H628 0.951 . S
C646 C647 1.366 . S
C646 C648 1.388 . S
C647 C646 1.366 . S
C647 C651 1.385 1_445 S
C648 H629 0.951 . S
C648 C646 1.388 . S
C648 C649 1.366 . S
C649 C648 1.366 . S
C649 C650 1.414 1_445 S
C649 C652 1.499 . S
C650 H630 0.950 . S
C650 C649 1.414 1_665 S
C650 C651 1.374 . S
C651 H631 0.950 . S
C651 C647 1.385 1_665 S
C651 C650 1.374 . S
C652 C649 1.499 . S
C652 C653 1.373 1_445 S
C652 C654 1.389 . S
C653 H632 0.950 . S
C653 C652 1.373 1_665 S
C653 C669 1.377 . S
C654 C652 1.389 . S
C654 C655 1.524 . S
C654 C668 1.377 . S
C655 C654 1.524 . S
C655 C656 1.397 1_545 S
C655 C660 1.363 . S
C656 H633 0.950 . S
C656 C655 1.397 1_565 S
C656 C657 1.331 1_565 S
C657 H634 0.935 1_545 S
C657 C656 1.331 1_545 S
C657 C658 1.307 . S
C658 C657 1.307 . S
C658 C659 1.524 . S
C658 H677 0.913 . S
C659 H635 0.950 . S
C659 C658 1.524 . S
C659 C660 1.415 . S
C660 H636 0.950 . S
C660 C655 1.363 . S
C660 C659 1.415 . S
C661 H637 0.951 . S
C661 C662 1.366 1_565 S
C661 C663 1.388 . S
C662 C661 1.366 1_545 S
C662 C666 1.385 1_655 S
C663 H638 0.951 . S
C663 C661 1.388 . S
C663 C664 1.366 1_565 S
C664 C663 1.366 1_545 S
C664 C665 1.414 1_655 S
C664 C667 1.499 . S
C665 H639 0.950 . S
C665 C664 1.414 1_455 S
C665 C666 1.374 . S
C666 H640 0.950 . S
C666 C662 1.385 1_455 S
C666 C665 1.374 . S
C667 C664 1.499 . S
C667 C668 1.367 1_655 S
C667 C669 1.395 1_545 S
C668 H641 0.950 . S
C668 C654 1.377 . S
C668 C667 1.367 1_455 S
C669 C653 1.377 . S
C669 C667 1.395 1_565 S
C669 C670 1.524 . S
C670 C669 1.524 . S
C670 C671 1.397 1_565 S
C670 C675 1.363 . S
C671 H642 0.950 . S
C671 C670 1.397 1_545 S
C671 C672 1.334 . S
C672 H643 0.950 . S
C672 C671 1.334 . S
C672 C673 1.287 1_545 S
C673 C672 1.287 1_565 S
C673 C674 1.524 . S
C673 H676 0.999 . S
C674 H644 0.950 . S
C674 C673 1.524 . S
C674 C675 1.415 . S
C675 H645 0.950 . S
C675 C670 1.363 . S
C675 C674 1.415 . S
H676 C673 0.999 . S
H677 C658 0.913 . S
H678 C696 0.951 . S
H679 C698 0.951 . S
H680 C700 0.950 . S
H681 C701 0.950 . S
H682 C703 0.950 . S
H683 C706 0.950 1_545 S
H684 C707 0.950 . S
H685 C709 0.950 . S
H686 C710 0.950 . S
H687 C711 0.951 . S
H688 C713 0.951 . S
H689 C715 0.950 . S
H690 C716 0.950 . S
H691 C718 0.950 . S
H692 C721 0.950 1_565 S
H693 C722 0.950 . S
H694 C724 0.950 . S
H695 C725 0.950 . S
C696 H678 0.951 . S
C696 C697 1.366 1_565 S
C696 C698 1.388 . S
C697 C696 1.366 1_545 S
C697 C701 1.385 . S
C698 H679 0.951 . S
C698 C696 1.388 . S
C698 C699 1.366 1_565 S
C699 C698 1.366 1_545 S
C699 C700 1.414 . S
C699 C702 1.499 . S
C700 H680 0.950 . S
C700 C699 1.414 . S
C700 C701 1.374 . S
C701 H681 0.950 . S
C701 C697 1.385 . S
C701 C700 1.374 . S
C702 C699 1.499 . S
C702 C703 1.373 1_455 S
C702 C704 1.389 1_545 S
C703 H682 0.950 . S
C703 C702 1.373 1_655 S
C703 C719 1.377 . S
C704 C702 1.389 1_565 S
C704 C705 1.524 . S
C704 C718 1.377 . S
C705 C704 1.524 . S
C705 C706 1.397 . S
C705 C710 1.363 . S
C706 H683 0.950 1_565 S
C706 C705 1.397 . S
C706 C707 1.334 . S
C707 H684 0.950 . S
C707 C706 1.334 . S
C707 C708 1.287 . S
C708 C707 1.287 . S
C708 C709 1.524 . S
C708 H727 0.913 . S
C709 H685 0.950 . S
C709 C708 1.524 . S
C709 C710 1.415 . S
C710 H686 0.950 . S
C710 C705 1.363 . S
C710 C709 1.415 . S
C711 H687 0.951 . S
C711 C712 1.366 . S
C711 C713 1.388 . S
C712 C711 1.366 . S
C712 C716 1.385 1_545 S
C713 H688 0.951 . S
C713 C711 1.388 . S
C713 C714 1.366 . S
C714 C713 1.366 . S
C714 C715 1.414 1_545 S
C714 C717 1.499 . S
C715 H689 0.950 . S
C715 C714 1.414 1_565 S
C715 C716 1.374 . S
C716 H690 0.950 . S
C716 C712 1.385 1_565 S
C716 C715 1.374 . S
C717 C714 1.499 . S
C717 C718 1.373 1_545 S
C717 C719 1.389 1_455 S
C718 H691 0.950 . S
C718 C704 1.377 . S
C718 C717 1.373 1_565 S
C719 C703 1.377 . S
C719 C717 1.389 1_655 S
C719 C720 1.524 . S
C720 C719 1.524 . S
C720 C721 1.397 . S
C720 C725 1.363 . S
C721 H692 0.950 1_545 S
C721 C720 1.397 . S
C721 C722 1.334 . S
C722 H693 0.950 . S
C722 C721 1.334 . S
C722 C723 1.287 . S
C723 C722 1.287 . S
C723 C724 1.524 . S
C723 H726 0.999 . S
C724 H694 0.950 . S
C724 C723 1.524 . S
C724 C725 1.415 . S
C725 H695 0.950 . S
C725 C720 1.363 . S
C725 C724 1.415 . S
H726 C723 0.999 . S
H727 C708 0.913 . S
H728 C746 0.951 . S
H729 C748 0.951 . S
H730 C750 0.950 . S
H731 C751 0.950 . S
H732 C753 0.950 . S
H733 C756 0.950 . S
H734 C757 0.950 . S
H735 C759 0.950 . S
H736 C760 0.950 . S
H737 C761 0.951 . S
H738 C763 0.951 . S
H739 C765 0.950 . S
H740 C766 0.950 . S
H741 C768 0.950 . S
H742 C771 0.950 . S
H743 C772 0.950 . S
H744 C774 0.950 . S
H745 C775 0.950 . S
C746 H728 0.951 . S
C746 C747 1.366 . S
C746 C748 1.388 . S
C747 C746 1.366 . S
C747 C751 1.385 . S
C748 H729 0.951 . S
C748 C746 1.388 . S
C748 C749 1.366 . S
C749 C748 1.366 . S
C749 C750 1.414 . S
C749 C752 1.499 . S
C750 H730 0.950 . S
C750 C749 1.414 . S
C750 C751 1.374 . S
C751 H731 0.950 . S
C751 C747 1.385 . S
C751 C750 1.374 . S
C752 C749 1.499 . S
C752 C753 1.373 . S
C752 C754 1.389 . S
C753 H732 0.950 . S
C753 C752 1.373 . S
C753 C769 1.377 . S
C754 C752 1.389 . S
C754 C755 1.524 . S
C754 C768 1.377 . S
C755 C754 1.524 . S
C755 C756 1.397 . S
C755 C760 1.363 . S
C756 H733 0.950 . S
C756 C755 1.397 . S
C756 C757 1.334 . S
C757 H734 0.950 . S
C757 C756 1.334 . S
C757 C758 1.287 . S
C758 C757 1.287 . S
C758 C759 1.524 . S
C758 H777 0.913 . S
C759 H735 0.950 . S
C759 C758 1.524 . S
C759 C760 1.415 . S
C760 H736 0.950 . S
C760 C755 1.363 . S
C760 C759 1.415 . S
C761 H737 0.951 . S
C761 C762 1.366 . S
C761 C763 1.388 . S
C762 C761 1.366 . S
C762 C766 1.385 . S
C763 H738 0.951 . S
C763 C761 1.388 . S
C763 C764 1.366 . S
C764 C763 1.366 . S
C764 C765 1.414 . S
C764 C767 1.499 . S
C765 H739 0.950 . S
C765 C764 1.414 . S
C765 C766 1.374 . S
C766 H740 0.950 . S
C766 C762 1.385 . S
C766 C765 1.374 . S
C767 C764 1.499 . S
C767 C768 1.373 . S
C767 C769 1.389 . S
C768 H741 0.950 . S
C768 C754 1.377 . S
C768 C767 1.373 . S
C769 C753 1.377 . S
C769 C767 1.389 . S
C769 C770 1.524 . S
C770 C769 1.524 . S
C770 C771 1.397 . S
C770 C775 1.363 . S
C771 H742 0.950 . S
C771 C770 1.397 . S
C771 C772 1.334 . S
C772 H743 0.950 . S
C772 C771 1.334 . S
C772 C773 1.287 . S
C773 C772 1.287 . S
C773 C774 1.524 . S
C773 H776 0.999 . S
C774 H744 0.950 . S
C774 C773 1.524 . S
C774 C775 1.415 . S
C775 H745 0.950 . S
C775 C770 1.363 . S
C775 C774 1.415 . S
H776 C773 0.999 . S
H777 C758 0.913 . S
H778 C796 0.951 . S
H779 C798 0.951 . S
H780 C800 0.950 . S
H781 C801 0.950 . S
H782 C803 0.950 . S
H783 C806 0.950 . S
H784 C807 0.950 . S
H785 C809 0.950 . S
H786 C810 0.950 . S
H787 C811 0.951 . S
H788 C813 0.951 . S
H789 C815 0.950 . S
H790 C816 0.950 . S
H791 C818 0.950 . S
H792 C821 0.950 . S
H793 C822 0.950 . S
H794 C824 0.950 . S
H795 C825 0.950 . S
C796 H778 0.951 . S
C796 C797 1.366 . S
C796 C798 1.388 . S
C797 C796 1.366 . S
C797 C801 1.385 . S
C798 H779 0.951 . S
C798 C796 1.388 . S
C798 C799 1.366 . S
C799 C798 1.366 . S
C799 C800 1.414 . S
C799 C802 1.499 . S
C800 H780 0.950 . S
C800 C799 1.414 . S
C800 C801 1.374 . S
C801 H781 0.950 . S
C801 C797 1.385 . S
C801 C800 1.374 . S
C802 C799 1.499 . S
C802 C803 1.373 . S
C802 C804 1.389 . S
C803 H782 0.950 . S
C803 C802 1.373 . S
C803 C819 1.377 . S
C804 C802 1.389 . S
C804 C805 1.524 . S
C804 C818 1.377 . S
C805 C804 1.524 . S
C805 C806 1.397 . S
C805 C810 1.363 . S
C806 H783 0.950 . S
C806 C805 1.397 . S
C806 C807 1.334 . S
C807 H784 0.950 . S
C807 C806 1.334 . S
C807 C808 1.287 . S
C808 C807 1.287 . S
C808 C809 1.524 . S
C808 H827 0.913 . S
C809 H785 0.950 . S
C809 C808 1.524 . S
C809 C810 1.415 . S
C810 H786 0.950 . S
C810 C805 1.363 . S
C810 C809 1.415 . S
C811 H787 0.951 . S
C811 C812 1.366 . S
C811 C813 1.388 . S
C812 C811 1.366 . S
C812 C816 1.385 . S
C813 H788 0.951 . S
C813 C811 1.388 . S
C813 C814 1.366 . S
C814 C813 1.366 . S
C814 C815 1.414 . S
C814 C817 1.499 . S
C815 H789 0.950 . S
C815 C814 1.414 . S
C815 C816 1.374 . S
C816 H790 0.950 . S
C816 C812 1.385 . S
C816 C815 1.374 . S
C817 C814 1.499 . S
C817 C818 1.373 . S
C817 C819 1.389 . S
C818 H791 0.950 . S
C818 C804 1.377 . S
C818 C817 1.373 . S
C819 C803 1.377 . S
C819 C817 1.389 . S
C819 C820 1.524 . S
C820 C819 1.524 . S
C820 C821 1.397 . S
C820 C825 1.363 . S
C821 H792 0.950 . S
C821 C820 1.397 . S
C821 C822 1.334 . S
C822 H793 0.950 . S
C822 C821 1.334 . S
C822 C823 1.287 . S
C823 C822 1.287 . S
C823 C824 1.524 . S
C823 H826 0.999 . S
C824 H794 0.950 . S
C824 C823 1.524 . S
C824 C825 1.415 . S
C825 H795 0.950 . S
C825 C820 1.363 . S
C825 C824 1.415 . S
H826 C823 0.999 . S
H827 C808 0.913 . S
C262 C190 1.432 . S
C247 C29 1.461 . S
C297 C8 1.443 . S
C312 C150 1.415 . S
C347 C0 1.438 . S
C362 C203 1.403 . S
C397 C17 1.456 . S
C412 C163 1.418 . S
C447 C63 1.461 . S
C462 C110 1.432 . S
C497 C42 1.443 . S
C512 C70 1.415 . S
C562 C123 1.402 . S
C547 C34 1.438 . S
C612 C83 1.419 . S
C597 C51 1.456 . S
C647 C4 1.480 . S
C662 C89 1.469 1_655 S
C697 C13 1.477 . S
C712 C129 1.469 . S
C762 C169 1.468 . S
C747 C38 1.480 . S
C797 C47 1.478 . S
C812 C209 1.469 . S
