# Generated by pormake.
# Topology cor, (4,6)-cn, num edge types: 1
# Building blocks:
#     Node 0, Type 0, BuildingBlock: CEKHIL_clean_sbu_0, # of connection points: 4
#     Node 1, Type 0, BuildingBlock: CEKHIL_clean_sbu_0, # of connection points: 4
#     Node 2, Type 0, BuildingBlock: CEKHIL_clean_sbu_0, # of connection points: 4
#     Node 3, Type 0, BuildingBlock: CEKHIL_clean_sbu_0, # of connection points: 4
#     Node 4, Type 0, BuildingBlock: CEKHIL_clean_sbu_0, # of connection points: 4
#     Node 5, Type 0, BuildingBlock: CEKHIL_clean_sbu_0, # of connection points: 4
#     Node 6, Type 0, BuildingBlock: CEKHIL_clean_sbu_0, # of connection points: 4
#     Node 7, Type 0, BuildingBlock: CEKHIL_clean_sbu_0, # of connection points: 4
#     Node 8, Type 0, BuildingBlock: CEKHIL_clean_sbu_0, # of connection points: 4
#     Node 9, Type 0, BuildingBlock: CEKHIL_clean_sbu_0, # of connection points: 4
#     Node 10, Type 0, BuildingBlock: CEKHIL_clean_sbu_0, # of connection points: 4
#     Node 11, Type 0, BuildingBlock: CEKHIL_clean_sbu_0, # of connection points: 4
#     Node 12, Type 0, BuildingBlock: CEKHIL_clean_sbu_0, # of connection points: 4
#     Node 13, Type 0, BuildingBlock: CEKHIL_clean_sbu_0, # of connection points: 4
#     Node 14, Type 0, BuildingBlock: CEKHIL_clean_sbu_0, # of connection points: 4
#     Node 15, Type 0, BuildingBlock: CEKHIL_clean_sbu_0, # of connection points: 4
#     Node 16, Type 0, BuildingBlock: CEKHIL_clean_sbu_0, # of connection points: 4
#     Node 17, Type 0, BuildingBlock: CEKHIL_clean_sbu_0, # of connection points: 4
#     Node 18, Type 1, BuildingBlock: MIDCAF_clean_sbu_0, # of connection points: 6
#     Node 19, Type 1, BuildingBlock: MIDCAF_clean_sbu_0, # of connection points: 6
#     Node 20, Type 1, BuildingBlock: MIDCAF_clean_sbu_0, # of connection points: 6
#     Node 21, Type 1, BuildingBlock: MIDCAF_clean_sbu_0, # of connection points: 6
#     Node 22, Type 1, BuildingBlock: MIDCAF_clean_sbu_0, # of connection points: 6
#     Node 23, Type 1, BuildingBlock: MIDCAF_clean_sbu_0, # of connection points: 6
#     Node 24, Type 1, BuildingBlock: MIDCAF_clean_sbu_0, # of connection points: 6
#     Node 25, Type 1, BuildingBlock: MIDCAF_clean_sbu_0, # of connection points: 6
#     Node 26, Type 1, BuildingBlock: MIDCAF_clean_sbu_0, # of connection points: 6
#     Node 27, Type 1, BuildingBlock: MIDCAF_clean_sbu_0, # of connection points: 6
#     Node 28, Type 1, BuildingBlock: MIDCAF_clean_sbu_0, # of connection points: 6
#     Node 29, Type 1, BuildingBlock: MIDCAF_clean_sbu_0, # of connection points: 6
#     Edge 30, Type (0, 1), BuildingBlock: XUDNAN_clean_linker_2, # of connection points: 2
#     Edge 31, Type (0, 1), BuildingBlock: XUDNAN_clean_linker_2, # of connection points: 2
#     Edge 32, Type (0, 1), BuildingBlock: XUDNAN_clean_linker_2, # of connection points: 2
#     Edge 33, Type (0, 1), BuildingBlock: XUDNAN_clean_linker_2, # of connection points: 2
#     Edge 34, Type (0, 1), BuildingBlock: XUDNAN_clean_linker_2, # of connection points: 2
#     Edge 35, Type (0, 1), BuildingBlock: XUDNAN_clean_linker_2, # of connection points: 2
#     Edge 36, Type (0, 1), BuildingBlock: XUDNAN_clean_linker_2, # of connection points: 2
#     Edge 37, Type (0, 1), BuildingBlock: XUDNAN_clean_linker_2, # of connection points: 2
#     Edge 38, Type (0, 1), BuildingBlock: XUDNAN_clean_linker_2, # of connection points: 2
#     Edge 39, Type (0, 1), BuildingBlock: XUDNAN_clean_linker_2, # of connection points: 2
#     Edge 40, Type (0, 1), BuildingBlock: XUDNAN_clean_linker_2, # of connection points: 2
#     Edge 41, Type (0, 1), BuildingBlock: XUDNAN_clean_linker_2, # of connection points: 2
#     Edge 42, Type (0, 1), BuildingBlock: XUDNAN_clean_linker_2, # of connection points: 2
#     Edge 43, Type (0, 1), BuildingBlock: XUDNAN_clean_linker_2, # of connection points: 2
#     Edge 44, Type (0, 1), BuildingBlock: XUDNAN_clean_linker_2, # of connection points: 2
#     Edge 45, Type (0, 1), BuildingBlock: XUDNAN_clean_linker_2, # of connection points: 2
#     Edge 46, Type (0, 1), BuildingBlock: XUDNAN_clean_linker_2, # of connection points: 2
#     Edge 47, Type (0, 1), BuildingBlock: XUDNAN_clean_linker_2, # of connection points: 2
#     Edge 48, Type (0, 1), BuildingBlock: XUDNAN_clean_linker_2, # of connection points: 2
#     Edge 49, Type (0, 1), BuildingBlock: XUDNAN_clean_linker_2, # of connection points: 2
#     Edge 50, Type (0, 1), BuildingBlock: XUDNAN_clean_linker_2, # of connection points: 2
#     Edge 51, Type (0, 1), BuildingBlock: XUDNAN_clean_linker_2, # of connection points: 2
#     Edge 52, Type (0, 1), BuildingBlock: XUDNAN_clean_linker_2, # of connection points: 2
#     Edge 53, Type (0, 1), BuildingBlock: XUDNAN_clean_linker_2, # of connection points: 2
#     Edge 54, Type (0, 1), BuildingBlock: XUDNAN_clean_linker_2, # of connection points: 2
#     Edge 55, Type (0, 1), BuildingBlock: XUDNAN_clean_linker_2, # of connection points: 2
#     Edge 56, Type (0, 1), BuildingBlock: XUDNAN_clean_linker_2, # of connection points: 2
#     Edge 57, Type (0, 1), BuildingBlock: XUDNAN_clean_linker_2, # of connection points: 2
#     Edge 58, Type (0, 1), BuildingBlock: XUDNAN_clean_linker_2, # of connection points: 2
#     Edge 59, Type (0, 1), BuildingBlock: XUDNAN_clean_linker_2, # of connection points: 2
#     Edge 60, Type (0, 1), BuildingBlock: XUDNAN_clean_linker_2, # of connection points: 2
#     Edge 61, Type (0, 1), BuildingBlock: XUDNAN_clean_linker_2, # of connection points: 2
#     Edge 62, Type (0, 1), BuildingBlock: XUDNAN_clean_linker_2, # of connection points: 2
#     Edge 63, Type (0, 1), BuildingBlock: XUDNAN_clean_linker_2, # of connection points: 2
#     Edge 64, Type (0, 1), BuildingBlock: XUDNAN_clean_linker_2, # of connection points: 2
#     Edge 65, Type (0, 1), BuildingBlock: XUDNAN_clean_linker_2, # of connection points: 2
#     Edge 66, Type (0, 1), BuildingBlock: XUDNAN_clean_linker_2, # of connection points: 2
#     Edge 67, Type (0, 1), BuildingBlock: XUDNAN_clean_linker_2, # of connection points: 2
#     Edge 68, Type (0, 1), BuildingBlock: XUDNAN_clean_linker_2, # of connection points: 2
#     Edge 69, Type (0, 1), BuildingBlock: XUDNAN_clean_linker_2, # of connection points: 2
#     Edge 70, Type (0, 1), BuildingBlock: XUDNAN_clean_linker_2, # of connection points: 2
#     Edge 71, Type (0, 1), BuildingBlock: XUDNAN_clean_linker_2, # of connection points: 2
#     Edge 72, Type (0, 1), BuildingBlock: XUDNAN_clean_linker_2, # of connection points: 2
#     Edge 73, Type (0, 1), BuildingBlock: XUDNAN_clean_linker_2, # of connection points: 2
#     Edge 74, Type (0, 1), BuildingBlock: XUDNAN_clean_linker_2, # of connection points: 2
#     Edge 75, Type (0, 1), BuildingBlock: XUDNAN_clean_linker_2, # of connection points: 2
#     Edge 76, Type (0, 1), BuildingBlock: XUDNAN_clean_linker_2, # of connection points: 2
#     Edge 77, Type (0, 1), BuildingBlock: XUDNAN_clean_linker_2, # of connection points: 2
#     Edge 78, Type (0, 1), BuildingBlock: XUDNAN_clean_linker_2, # of connection points: 2
#     Edge 79, Type (0, 1), BuildingBlock: XUDNAN_clean_linker_2, # of connection points: 2
#     Edge 80, Type (0, 1), BuildingBlock: XUDNAN_clean_linker_2, # of connection points: 2
#     Edge 81, Type (0, 1), BuildingBlock: XUDNAN_clean_linker_2, # of connection points: 2
#     Edge 82, Type (0, 1), BuildingBlock: XUDNAN_clean_linker_2, # of connection points: 2
#     Edge 83, Type (0, 1), BuildingBlock: XUDNAN_clean_linker_2, # of connection points: 2
#     Edge 84, Type (0, 1), BuildingBlock: XUDNAN_clean_linker_2, # of connection points: 2
#     Edge 85, Type (0, 1), BuildingBlock: XUDNAN_clean_linker_2, # of connection points: 2
#     Edge 86, Type (0, 1), BuildingBlock: XUDNAN_clean_linker_2, # of connection points: 2
#     Edge 87, Type (0, 1), BuildingBlock: XUDNAN_clean_linker_2, # of connection points: 2
#     Edge 88, Type (0, 1), BuildingBlock: XUDNAN_clean_linker_2, # of connection points: 2
#     Edge 89, Type (0, 1), BuildingBlock: XUDNAN_clean_linker_2, # of connection points: 2
#     Edge 90, Type (0, 1), BuildingBlock: XUDNAN_clean_linker_2, # of connection points: 2
#     Edge 91, Type (0, 1), BuildingBlock: XUDNAN_clean_linker_2, # of connection points: 2
#     Edge 92, Type (0, 1), BuildingBlock: XUDNAN_clean_linker_2, # of connection points: 2
#     Edge 93, Type (0, 1), BuildingBlock: XUDNAN_clean_linker_2, # of connection points: 2
#     Edge 94, Type (0, 1), BuildingBlock: XUDNAN_clean_linker_2, # of connection points: 2
#     Edge 95, Type (0, 1), BuildingBlock: XUDNAN_clean_linker_2, # of connection points: 2
#     Edge 96, Type (0, 1), BuildingBlock: XUDNAN_clean_linker_2, # of connection points: 2
#     Edge 97, Type (0, 1), BuildingBlock: XUDNAN_clean_linker_2, # of connection points: 2
#     Edge 98, Type (0, 1), BuildingBlock: XUDNAN_clean_linker_2, # of connection points: 2
#     Edge 99, Type (0, 1), BuildingBlock: XUDNAN_clean_linker_2, # of connection points: 2
#     Edge 100, Type (0, 1), BuildingBlock: XUDNAN_clean_linker_2, # of connection points: 2
#     Edge 101, Type (0, 1), BuildingBlock: XUDNAN_clean_linker_2, # of connection points: 2
# Relax obj value: 0.113
# Max RMSD: 0.161
# Mean RMSD: 0.107
data_MOF--net-cor--node1-CEKHIL_clean_sbu_0--node2-MIDCAF_clean_sbu_0--edge1-XUDNAN_clean_linker_2
_symmetry_space_group_name_H-M    P1
_symmetry_Int_Tables_number       1
_symmetry_cell_setting            triclinic
loop_
_symmetry_equiv_pos_as_xyz
'x, y, z'
_cell_length_a     38.50483
_cell_length_b     38.258607
_cell_length_c     101.14905
_cell_angle_alpha  90.822821
_cell_angle_beta   89.637737
_cell_angle_gamma 120.81149
loop_
_atom_site_label
_atom_site_type_symbol
_atom_site_fract_x
_atom_site_fract_y
_atom_site_fract_z
_atom_type_partial_charge
Co0 Co 0.72361 0.0147 0.25228 0.0
O1 O 0.6986 0.03008 0.23904 0.0
O2 O 0.74781 0.07378 0.2522 0.0
C3 C 0.66541 0.96185 0.26032 0.0
O4 O 0.75557 0.00878 0.2674 0.0
Co5 Co 0.71384 0.92877 0.25041 0.0
O6 O 0.73302 0.94175 0.26897 0.0
C7 C 0.76153 0.99081 0.23057 0.0
C8 C 0.72358 0.06766 0.24235 0.0
C9 C 0.75249 0.97801 0.27359 0.0
O10 O 0.76373 0.01865 0.23844 0.0
O11 O 0.73999 0.95279 0.23304 0.0
O12 O 0.6777 0.99864 0.2646 0.0
O13 O 0.68661 0.95931 0.2509 0.0
Co14 Co 0.02437 0.73176 0.25355 0.0
O15 O 0.04495 0.70738 0.26538 0.0
O16 O 0.08311 0.76407 0.25438 0.0
C17 C 0.97887 0.67458 0.24248 0.0
O18 O 0.01383 0.76425 0.23997 0.0
Co19 Co 0.93454 0.70853 0.25589 0.0
O20 O 0.94672 0.74009 0.23938 0.0
C21 C 0.99222 0.76103 0.27617 0.0
C22 C 0.08089 0.73757 0.2628 0.0
C23 C 0.98239 0.76263 0.23489 0.0
O24 O 0.02138 0.76531 0.26874 0.0
O25 O 0.95497 0.73613 0.27351 0.0
O26 O 0.01696 0.69314 0.23929 0.0
O27 O 0.97078 0.68799 0.25315 0.0
Co28 Co 0.31892 0.30737 0.25515 0.0
O29 O 0.37032 0.3327 0.24613 0.0
O30 O 0.34348 0.27424 0.25667 0.0
C31 C 0.3262 0.36283 0.26593 0.0
O32 O 0.2671 0.2728 0.26578 0.0
Co33 Co 0.25732 0.33273 0.24751 0.0
O34 O 0.22533 0.2968 0.26224 0.0
C35 C 0.27025 0.28023 0.22934 0.0
C36 C 0.37261 0.30124 0.24935 0.0
C37 C 0.2342 0.27302 0.26804 0.0
O38 O 0.29176 0.27689 0.23831 0.0
O39 O 0.2562 0.30403 0.23058 0.0
O40 O 0.34204 0.34276 0.27072 0.0
O41 O 0.31145 0.35214 0.25413 0.0
Co42 Co 0.30225 0.0105 0.75197 0.0
O43 O 0.32531 0.98746 0.7632 0.0
O44 O 0.26967 0.95129 0.75137 0.0
C45 C 0.35994 0.05727 0.74208 0.0
O46 O 0.27146 0.025 0.73885 0.0
Co47 Co 0.32683 0.10044 0.75701 0.0
O48 O 0.30391 0.09356 0.73896 0.0
C49 C 0.27209 0.03839 0.77552 0.0
C50 C 0.29533 0.95193 0.75986 0.0
C51 C 0.27912 0.05901 0.73378 0.0
O52 O 0.26834 0.01087 0.76724 0.0
O53 O 0.29701 0.0764 0.77396 0.0
O54 O 0.34093 0.01976 0.73784 0.0
O55 O 0.34646 0.06387 0.75299 0.0
Co56 Co 0.01613 0.31858 0.75519 0.0
O57 O 0.00274 0.34725 0.74291 0.0
O58 O 0.95706 0.29346 0.75372 0.0
C59 C 0.06489 0.37377 0.76599 0.0
O60 O 0.02267 0.28384 0.76919 0.0
Co61 Co 0.10341 0.33396 0.75182 0.0
O62 O 0.09018 0.30918 0.76959 0.0
C63 C 0.04173 0.28417 0.73234 0.0
C64 C 0.96497 0.32151 0.74502 0.0
C65 C 0.05494 0.28777 0.77457 0.0
O66 O 0.01472 0.28202 0.74035 0.0
O67 O 0.07971 0.30705 0.73436 0.0
O68 O 0.02717 0.35906 0.76913 0.0
O69 O 0.07092 0.35815 0.75547 0.0
Co70 Co 0.71772 0.72622 0.75283 0.0
O71 O 0.67604 0.70541 0.76614 0.0
O72 O 0.69366 0.75998 0.75411 0.0
C73 C 0.70022 0.66616 0.74291 0.0
O74 O 0.75732 0.75511 0.73767 0.0
Co75 Co 0.78249 0.70056 0.75213 0.0
O76 O 0.79397 0.7251 0.73433 0.0
C77 C 0.78997 0.76213 0.77163 0.0
C78 C 0.67097 0.73552 0.76337 0.0
C79 C 0.7824 0.74939 0.73081 0.0
O80 O 0.75954 0.76225 0.76649 0.0
O81 O 0.80208 0.73809 0.76784 0.0
O82 O 0.68117 0.68494 0.73996 0.0
O83 O 0.72544 0.68177 0.7526 0.0
Co84 Co 0.3898 0.3584 0.58784 0.0
O85 O 0.367 0.37394 0.5739 0.0
O86 O 0.4111 0.41703 0.58855 0.0
C87 C 0.33146 0.30286 0.59427 0.0
O88 O 0.41874 0.35177 0.60375 0.0
Co89 Co 0.38528 0.27501 0.58507 0.0
O90 O 0.40458 0.28683 0.60358 0.0
C91 C 0.43907 0.34267 0.56779 0.0
C92 C 0.3895 0.41123 0.57797 0.0
C93 C 0.41968 0.32178 0.60912 0.0
O94 O 0.43481 0.36746 0.57539 0.0
O95 O 0.41896 0.30407 0.56932 0.0
O96 O 0.34085 0.33864 0.59882 0.0
O97 O 0.35521 0.30271 0.58529 0.0
Co98 Co 0.70449 0.07006 0.58463 0.0
O99 O 0.71029 0.03861 0.59812 0.0
O100 O 0.76149 0.09036 0.58802 0.0
C101 C 0.65554 0.0162 0.57296 0.0
O102 O 0.70937 0.10902 0.57001 0.0
Co103 Co 0.62399 0.06819 0.58301 0.0
O104 O 0.64687 0.09784 0.56631 0.0
C105 C 0.67912 0.11179 0.60496 0.0
C106 C 0.74905 0.06255 0.59707 0.0
C107 C 0.68428 0.11487 0.56338 0.0
O108 O 0.70627 0.10852 0.59865 0.0
O109 O 0.64234 0.09438 0.60106 0.0
O110 O 0.69355 0.02829 0.57134 0.0
O111 O 0.64801 0.0343 0.58249 0.0
Co112 Co 0.97919 0.64848 0.58634 0.0
O113 O 0.0183 0.67549 0.57258 0.0
O114 O 0.01241 0.62388 0.584 0.0
C115 C 0.98798 0.7045 0.59703 0.0
O116 O 0.94272 0.61462 0.60156 0.0
Co117 Co 0.90431 0.65904 0.58735 0.0
O118 O 0.89675 0.63363 0.60491 0.0
C119 C 0.90997 0.60806 0.56663 0.0
C120 C 0.03047 0.65008 0.57458 0.0
C121 C 0.91416 0.61444 0.60839 0.0
O122 O 0.93965 0.60937 0.5728 0.0
O123 O 0.89395 0.62898 0.57003 0.0
O124 O 0.01242 0.69121 0.59923 0.0
O125 O 0.96275 0.68675 0.58743 0.0
Co126 Co 0.97275 0.35131 0.08592 0.0
O127 O 0.99709 0.32945 0.09734 0.0
O128 O 0.94674 0.29293 0.08346 0.0
C129 C 0.03086 0.40649 0.0788 0.0
O130 O 0.94082 0.36258 0.07223 0.0
Co131 Co 0.98294 0.43604 0.09173 0.0
O132 O 0.95448 0.42701 0.07463 0.0
C133 C 0.93607 0.36828 0.1097 0.0
C134 C 0.97068 0.29378 0.09265 0.0
C135 C 0.93767 0.39292 0.06846 0.0
O136 O 0.93314 0.34313 0.10055 0.0
O137 O 0.95849 0.40689 0.10864 0.0
O138 O 0.01811 0.37111 0.07317 0.0
O139 O 0.01041 0.40604 0.08897 0.0
Co140 Co 0.67481 0.64609 0.08905 0.0
O141 O 0.65457 0.67105 0.07736 0.0
O142 O 0.61609 0.61527 0.08882 0.0
C143 C 0.72246 0.70325 0.09948 0.0
O144 O 0.68525 0.61321 0.10258 0.0
Co145 Co 0.7626 0.6645 0.08624 0.0
O146 O 0.75286 0.64333 0.10454 0.0
C147 C 0.70141 0.60806 0.06721 0.0
C148 C 0.61856 0.6416 0.08028 0.0
C149 C 0.7172 0.6195 0.10875 0.0
O150 O 0.67447 0.61068 0.07399 0.0
O151 O 0.73917 0.62895 0.07001 0.0
O152 O 0.68475 0.68595 0.10305 0.0
O153 O 0.72914 0.68853 0.08881 0.0
Co154 Co 0.39181 0.0687 0.08535 0.0
O155 O 0.34571 0.04042 0.09705 0.0
O156 O 0.35844 0.09286 0.08461 0.0
C157 C 0.39087 0.01379 0.076 0.0
O158 O 0.43455 0.10482 0.07183 0.0
Co159 Co 0.46914 0.06433 0.08931 0.0
O160 O 0.48416 0.09017 0.07166 0.0
C161 C 0.45049 0.11126 0.10823 0.0
C162 C 0.33604 0.06696 0.09358 0.0
C163 C 0.4668 0.10784 0.06678 0.0
O164 O 0.42315 0.10791 0.10023 0.0
O165 O 0.47021 0.09301 0.10628 0.0
O166 O 0.36629 0.02515 0.07182 0.0
O167 O 0.41109 0.03266 0.08651 0.0
Co168 Co 0.05796 0.69151 0.92031 0.0
O169 O 0.03645 0.70832 0.90626 0.0
O170 O 0.08879 0.75052 0.91873 0.0
C171 C 0.99881 0.64796 0.93006 0.0
O172 O 0.08714 0.68429 0.936 0.0
Co173 Co 0.03645 0.60155 0.92047 0.0
O174 O 0.06329 0.61712 0.93797 0.0
C175 C 0.08845 0.65593 0.89972 0.0
C176 C 0.06457 0.74537 0.90899 0.0
C177 C 0.08446 0.65371 0.94221 0.0
O178 O 0.09442 0.68629 0.90703 0.0
O179 O 0.06285 0.61902 0.90266 0.0
O180 O 0.01634 0.68681 0.93244 0.0
O181 O 0.01475 0.63737 0.92072 0.0
Co182 Co 0.35269 0.39918 0.92137 0.0
O183 O 0.37625 0.37498 0.93172 0.0
O184 O 0.41159 0.43347 0.92138 0.0
C185 C 0.30742 0.34233 0.91036 0.0
O186 O 0.33678 0.43123 0.90919 0.0
Co187 Co 0.26251 0.36998 0.92687 0.0
O188 O 0.26875 0.3988 0.91009 0.0
C189 C 0.32356 0.42119 0.94645 0.0
C190 C 0.41128 0.4064 0.92916 0.0
C191 C 0.30237 0.42469 0.90487 0.0
O192 O 0.35095 0.4295 0.93768 0.0
O193 O 0.28623 0.39463 0.94458 0.0
O194 O 0.34458 0.36306 0.90622 0.0
O195 O 0.30059 0.35366 0.92166 0.0
Co196 Co 0.65114 0.98564 0.92016 0.0
O197 O 0.69566 0.00676 0.90786 0.0
O198 O 0.67236 0.94931 0.91879 0.0
C199 C 0.67041 0.04486 0.93085 0.0
O200 O 0.60736 0.95547 0.9341 0.0
Co201 Co 0.59003 0.01544 0.92021 0.0
O202 O 0.57777 0.99218 0.93822 0.0
C203 C 0.5886 0.96241 0.89853 0.0
C204 C 0.6979 0.97474 0.91024 0.0
C205 C 0.5852 0.9645 0.94129 0.0
O206 O 0.61242 0.95507 0.90521 0.0
O207 O 0.57849 0.98804 0.90235 0.0
O208 O 0.68657 0.02344 0.93398 0.0
O209 O 0.64669 0.03206 0.92074 0.0
Co210 Co 0.65329 0.69948 0.41838 0.0
O211 O 0.67802 0.68548 0.43214 0.0
O212 O 0.63253 0.64081 0.41818 0.0
C213 C 0.70983 0.75465 0.41063 0.0
O214 O 0.62292 0.70532 0.40261 0.0
Co215 Co 0.65708 0.78251 0.42165 0.0
O216 O 0.64122 0.77164 0.40278 0.0
C217 C 0.6055 0.71535 0.43924 0.0
C218 C 0.65551 0.64779 0.42849 0.0
C219 C 0.62528 0.73684 0.39708 0.0
O220 O 0.60924 0.69082 0.43133 0.0
O221 O 0.6252 0.75396 0.43775 0.0
O222 O 0.70084 0.71833 0.40682 0.0
O223 O 0.68774 0.75551 0.42012 0.0
Co224 Co 0.34634 0.97488 0.4215 0.0
O225 O 0.32079 0.99637 0.41079 0.0
O226 O 0.28861 0.94658 0.42513 0.0
C227 C 0.4005 0.03512 0.42741 0.0
O228 O 0.3645 0.94707 0.43466 0.0
Co229 Co 0.43093 0.9904 0.41271 0.0
O230 O 0.43055 0.97068 0.43076 0.0
C231 C 0.35868 0.9367 0.39717 0.0
C232 C 0.28692 0.96968 0.41612 0.0
C233 C 0.39893 0.95133 0.43787 0.0
O234 O 0.33645 0.93368 0.40713 0.0
O235 O 0.39689 0.96135 0.39685 0.0
O236 O 0.36672 0.02173 0.43387 0.0
O237 O 0.39848 0.01403 0.41714 0.0
Co238 Co 0.04854 0.3876 0.42209 0.0
O239 O 0.00777 0.35615 0.43494 0.0
O240 O 0.01334 0.4096 0.42475 0.0
C241 C 0.04425 0.33512 0.41026 0.0
O242 O 0.08622 0.42585 0.40788 0.0
Co243 Co 0.1261 0.38195 0.42149 0.0
O244 O 0.13331 0.40861 0.40414 0.0
C245 C 0.11315 0.42477 0.44339 0.0
C246 C 0.99478 0.38113 0.43348 0.0
C247 C 0.11528 0.42746 0.40097 0.0
O248 O 0.08477 0.42447 0.4367 0.0
O249 O 0.13101 0.40582 0.43971 0.0
O250 O 0.01876 0.34718 0.40813 0.0
O251 O 0.06767 0.3517 0.42036 0.0
Zn252 Zn 0.01729 0.01988 0.12744 0.0
Zn253 Zn 0.01968 0.03506 0.17617 0.0
Zn254 Zn 0.01717 0.0253 0.15174 0.0
C255 C 0.9913 0.95276 0.17207 0.0
C256 C 0.0981 0.08327 0.16893 0.0
O257 O 0.98859 0.05924 0.14411 0.0
O258 O 0.00893 0.06589 0.12335 0.0
C259 C 0.96121 0.94243 0.1357 0.0
O260 O 0.99268 0.96324 0.15992 0.0
O261 O 0.00194 0.97894 0.18124 0.0
O262 O 0.07617 0.07583 0.179 0.0
O263 O 0.08238 0.06589 0.15773 0.0
O264 O 0.97065 0.96412 0.12552 0.0
O265 O 0.97874 0.95879 0.14681 0.0
O266 O 0.08178 0.05251 0.14486 0.0
O267 O 0.07085 0.02592 0.12473 0.0
C268 C 0.09495 0.0446 0.13412 0.0
O269 O 0.97659 0.04957 0.15742 0.0
O270 O 0.98144 0.05296 0.17921 0.0
C271 C 0.99279 0.07505 0.1326 0.0
C272 C 0.96567 0.05641 0.16882 0.0
Zn273 Zn 0.03223 0.00691 0.31513 0.0
Zn274 Zn 0.02134 0.02653 0.37983 0.0
Zn275 Zn 0.02556 0.0236 0.35578 0.0
C276 C 0.05183 0.10599 0.37206 0.0
C277 C 0.94214 0.97519 0.36904 0.0
O278 O 0.04993 0.98311 0.35197 0.0
O279 O 0.05588 0.0082 0.33282 0.0
C280 C 0.06524 0.0795 0.33562 0.0
O281 O 0.05351 0.08978 0.36099 0.0
O282 O 0.03712 0.08402 0.38211 0.0
O283 O 0.96249 0.98485 0.37962 0.0
O284 O 0.9598 0.98942 0.35793 0.0
O285 O 0.04933 0.04267 0.33194 0.0
O286 O 0.06323 0.0854 0.34794 0.0
O287 O 0.96922 0.00048 0.34308 0.0
O288 O 0.97653 0.9969 0.32073 0.0
C289 C 0.95565 0.99454 0.33098 0.0
O290 O 0.05751 0.99386 0.3649 0.0
O291 O 0.06082 0.01183 0.38591 0.0
C292 C 0.05455 0.98017 0.3396 0.0
C293 C 0.07045 0.99569 0.37679 0.0
Zn294 Zn 0.01367 0.01763 0.87919 0.0
Zn295 Zn 0.02221 0.03036 0.83305 0.0
Zn296 Zn 0.0187 0.02182 0.85535 0.0
C297 C 0.05989 0.10562 0.83779 0.0
C298 C 0.94521 0.98722 0.83469 0.0
O299 O 0.04846 0.98721 0.86167 0.0
O300 O 0.02425 0.97301 0.88195 0.0
C301 C 0.06936 0.09799 0.87442 0.0
O302 O 0.04334 0.08774 0.84881 0.0
O303 O 0.06434 0.08555 0.82869 0.0
O304 O 0.96702 0.02125 0.8294 0.0
O305 O 0.95795 0.98124 0.8457 0.0
O306 O 0.05872 0.07217 0.88346 0.0
O307 O 0.05323 0.08627 0.86284 0.0
O308 O 0.95282 0.98859 0.86023 0.0
O309 O 0.95829 0.00745 0.88116 0.0
C310 C 0.9366 0.99127 0.87106 0.0
O311 O 0.05783 0.99839 0.84792 0.0
O312 O 0.0365 0.98959 0.82743 0.0
C313 C 0.04327 0.9681 0.8726 0.0
C314 C 0.05861 0.98677 0.83595 0.0
Zn315 Zn 0.01643 0.00862 0.68636 0.0
Zn316 Zn 0.004 0.01546 0.62931 0.0
Zn317 Zn 0.02011 0.02117 0.65279 0.0
C318 C 0.98566 0.93863 0.63542 0.0
C319 C 0.0866 0.06986 0.63037 0.0
O320 O 0.99896 0.05725 0.66398 0.0
O321 O 0.99619 0.04659 0.68582 0.0
C322 C 0.96563 0.93619 0.67092 0.0
O323 O 0.99219 0.95583 0.64693 0.0
O324 O 0.98918 0.959 0.62529 0.0
O325 O 0.05675 0.05741 0.62271 0.0
O326 O 0.08076 0.05774 0.64247 0.0
O327 O 0.97644 0.95233 0.68228 0.0
O328 O 0.98035 0.95672 0.66014 0.0
O329 O 0.08606 0.04849 0.65524 0.0
O330 O 0.06156 0.02863 0.67466 0.0
C331 C 0.09127 0.04166 0.66713 0.0
O332 O 0.98224 0.04926 0.65031 0.0
O333 O 0.96192 0.02952 0.62976 0.0
C334 C 0.992 0.06429 0.67597 0.0
C335 C 0.96028 0.0464 0.64034 0.0
Zn336 Zn 0.65326 0.31224 0.51119 0.0
Zn337 Zn 0.69614 0.3679 0.45979 0.0
Zn338 Zn 0.67737 0.35405 0.48209 0.0
C339 C 0.76635 0.38251 0.47262 0.0
C340 C 0.63494 0.28585 0.46085 0.0
O341 O 0.64817 0.3834 0.49159 0.0
O342 O 0.63562 0.35231 0.51091 0.0
C343 C 0.73247 0.38656 0.50817 0.0
O344 O 0.74121 0.3683 0.48237 0.0
O345 O 0.75485 0.38843 0.46166 0.0
O346 O 0.66124 0.31113 0.45302 0.0
O347 O 0.6338 0.2968 0.47273 0.0
O348 O 0.70393 0.3651 0.51608 0.0
O349 O 0.72983 0.37658 0.49576 0.0
O350 O 0.71259 0.32975 0.49124 0.0
O351 O 0.65199 0.27974 0.49511 0.0
C352 C 0.68938 0.29254 0.49472 0.0
O353 O 0.66836 0.40623 0.47835 0.0
O354 O 0.67832 0.40741 0.45685 0.0
C355 C 0.63425 0.37776 0.50341 0.0
C356 C 0.6689 0.42081 0.46689 0.0
Zn357 Zn 0.68439 0.35125 0.7137 0.0
Zn358 Zn 0.67499 0.34764 0.66649 0.0
Zn359 Zn 0.68105 0.35183 0.68916 0.0
C360 C 0.6038 0.33637 0.67288 0.0
C361 C 0.74055 0.4226 0.6713 0.0
O362 O 0.72169 0.32813 0.69467 0.0
O363 O 0.72909 0.34068 0.71618 0.0
C364 C 0.60437 0.29402 0.70698 0.0
O365 O 0.61565 0.32676 0.68343 0.0
O366 O 0.62817 0.3532 0.6635 0.0
O367 O 0.72893 0.39467 0.6627 0.0
O368 O 0.72121 0.41546 0.68232 0.0
O369 O 0.62912 0.30491 0.71645 0.0
O370 O 0.61677 0.31132 0.69566 0.0
O371 O 0.70607 0.41647 0.69483 0.0
O372 O 0.69434 0.40735 0.71625 0.0
C373 C 0.70457 0.43041 0.70637 0.0
O374 O 0.7071 0.31513 0.68176 0.0
O375 O 0.66745 0.29296 0.66428 0.0
C376 C 0.73849 0.32895 0.70578 0.0
C377 C 0.69156 0.2901 0.67193 0.0
Zn378 Zn 0.69477 0.35351 0.21419 0.0
Zn379 Zn 0.68042 0.33571 0.16605 0.0
Zn380 Zn 0.68761 0.34975 0.18914 0.0
C381 C 0.71445 0.41941 0.16799 0.0
C382 C 0.60287 0.29836 0.17301 0.0
O383 O 0.71534 0.31326 0.1953 0.0
O384 O 0.71451 0.31561 0.2171 0.0
C385 C 0.74347 0.43354 0.2051 0.0
O386 O 0.71233 0.41216 0.18048 0.0
O387 O 0.70522 0.39074 0.15988 0.0
O388 O 0.62348 0.30573 0.16265 0.0
O389 O 0.62067 0.31183 0.18429 0.0
O390 O 0.73428 0.41216 0.21535 0.0
O391 O 0.72718 0.41653 0.1939 0.0
O392 O 0.62502 0.32169 0.19779 0.0
O393 O 0.63814 0.33393 0.21918 0.0
C394 C 0.61292 0.32034 0.20982 0.0
O395 O 0.72488 0.3225 0.18167 0.0
O396 O 0.70796 0.30771 0.16069 0.0
C397 C 0.72126 0.30188 0.20661 0.0
C398 C 0.72915 0.30908 0.17031 0.0
Zn399 Zn 0.69597 0.33909 0.01743 0.0
Zn400 Zn 0.67148 0.35737 0.96095 0.0
Zn401 Zn 0.68508 0.35619 0.9826 0.0
C402 C 0.67327 0.2886 0.96182 0.0
C403 C 0.74931 0.42341 0.96664 0.0
O404 O 0.6571 0.3848 0.99338 0.0
O405 O 0.67638 0.37983 0.01375 0.0
C406 C 0.65532 0.27682 0.99837 0.0
O407 O 0.66583 0.29431 0.97381 0.0
O408 O 0.67988 0.31522 0.95339 0.0
O409 O 0.71832 0.41402 0.95978 0.0
O410 O 0.74669 0.39976 0.97597 0.0
O411 O 0.68902 0.29603 0.00419 0.0
O412 O 0.65124 0.29191 0.98765 0.0
O413 O 0.74712 0.38543 0.99007 0.0
O414 O 0.73141 0.39629 0.00996 0.0
C415 C 0.75779 0.39807 1.00202 0.0
O416 O 0.64422 0.38219 0.9798 0.0
O417 O 0.61668 0.34936 0.96116 0.0
C418 C 0.66124 0.39403 0.00578 0.0
C419 C 0.6171 0.37121 0.97067 0.0
Zn420 Zn 0.36036 0.69781 0.84427 0.0
Zn421 Zn 0.35393 0.69151 0.79666 0.0
Zn422 Zn 0.35198 0.69248 0.82051 0.0
C423 C 0.43084 0.71578 0.80308 0.0
C424 C 0.29925 0.61236 0.80375 0.0
O425 O 0.3102 0.71277 0.82673 0.0
O426 O 0.31209 0.70195 0.84803 0.0
C427 C 0.43232 0.75815 0.83705 0.0
O428 O 0.41698 0.72235 0.8139 0.0
O429 O 0.40722 0.69773 0.79354 0.0
O430 O 0.30756 0.63599 0.79412 0.0
O431 O 0.31681 0.62679 0.81499 0.0
O432 O 0.41193 0.74634 0.84751 0.0
O433 O 0.41661 0.73981 0.82593 0.0
O434 O 0.32818 0.62923 0.82847 0.0
O435 O 0.35794 0.64659 0.84801 0.0
C436 C 0.33799 0.61952 0.83943 0.0
O437 O 0.31968 0.72365 0.81343 0.0
O438 O 0.34567 0.73784 0.79334 0.0
C439 C 0.29678 0.71063 0.83856 0.0
C440 C 0.3256 0.7424 0.80239 0.0
Zn441 Zn 0.3555 0.70025 0.04524 0.0
Zn442 Zn 0.33599 0.6724 0.99965 0.0
Zn443 Zn 0.3464 0.68777 0.02245 0.0
C444 C 0.26369 0.661 0.00665 0.0
C445 C 0.39817 0.75276 1.00098 0.0
O446 O 0.38215 0.66023 0.0297 0.0
O447 O 0.40607 0.69904 0.04753 0.0
C448 C 0.27574 0.64016 0.04277 0.0
O449 O 0.28049 0.6647 0.01802 0.0
O450 O 0.28316 0.66484 0.99621 0.0
O451 O 0.38207 0.72247 0.99323 0.0
O452 O 0.38597 0.74841 0.01307 0.0
O453 O 0.30411 0.65246 0.05107 0.0
O454 O 0.2838 0.6542 0.03092 0.0
O455 O 0.37841 0.75603 0.02604 0.0
O456 O 0.35932 0.75359 0.04677 0.0
C457 C 0.3746 0.77385 0.03645 0.0
O458 O 0.36787 0.64411 0.01707 0.0
O459 O 0.34135 0.62541 0.99708 0.0
C460 C 0.40706 0.67394 0.03955 0.0
C461 C 0.36021 0.62174 0.00655 0.0
Zn462 Zn 0.35162 0.69377 0.54686 0.0
Zn463 Zn 0.35201 0.69424 0.49998 0.0
Zn464 Zn 0.35494 0.69205 0.52185 0.0
C465 C 0.36857 0.7672 0.5056 0.0
C466 C 0.28023 0.63317 0.50358 0.0
O467 O 0.37858 0.65247 0.52807 0.0
O468 O 0.36422 0.64984 0.54933 0.0
C469 C 0.41272 0.77216 0.53924 0.0
O470 O 0.38448 0.7571 0.51489 0.0
O471 O 0.34245 0.7397 0.4982 0.0
O472 O 0.30653 0.64157 0.49478 0.0
O473 O 0.2906 0.6531 0.51467 0.0
O474 O 0.39763 0.75088 0.54943 0.0
O475 O 0.3984 0.75662 0.52773 0.0
O476 O 0.29031 0.66828 0.52725 0.0
O477 O 0.29438 0.67969 0.54885 0.0
C478 C 0.27357 0.66817 0.53837 0.0
O479 O 0.38951 0.66398 0.5145 0.0
O480 O 0.40703 0.70353 0.49715 0.0
C481 C 0.37687 0.63812 0.53967 0.0
C482 C 0.41249 0.68017 0.50438 0.0
Zn483 Zn 0.34046 0.67898 0.29618 0.0
Zn484 Zn 0.35485 0.67725 0.34161 0.0
Zn485 Zn 0.3504 0.68271 0.31856 0.0
C486 C 0.43066 0.70011 0.33416 0.0
C487 C 0.29116 0.60408 0.33628 0.0
O488 O 0.31566 0.71394 0.31305 0.0
O489 O 0.28917 0.67856 0.29472 0.0
C490 C 0.4205 0.73723 0.29949 0.0
O491 O 0.41694 0.707 0.32347 0.0
O492 O 0.40744 0.68411 0.34385 0.0
O493 O 0.31009 0.62464 0.34631 0.0
O494 O 0.30402 0.61843 0.3246 0.0
O495 O 0.39146 0.72998 0.29196 0.0
O496 O 0.41305 0.71778 0.31044 0.0
O497 O 0.32234 0.61679 0.31259 0.0
O498 O 0.34001 0.62859 0.29174 0.0
C499 C 0.32754 0.60423 0.30125 0.0
O500 O 0.32738 0.72074 0.32658 0.0
O501 O 0.34607 0.72139 0.34718 0.0
C502 C 0.28999 0.70283 0.30343 0.0
C503 C 0.33069 0.73315 0.33864 0.0
H504 H 0.22698 0.2789 0.20771 0.0
H505 H 0.28719 0.21971 0.22424 0.0
H506 H 0.2614 0.16974 0.20586 0.0
H507 H 0.13957 0.19386 0.19974 0.0
H508 H 0.13073 0.21238 0.18458 0.0
H509 H 0.16097 0.2477 0.19737 0.0
H510 H 0.21978 0.2853 0.18067 0.0
H511 H 0.18973 0.24939 0.16782 0.0
H512 H 0.23889 0.25743 0.17181 0.0
H513 H 0.2184 0.11883 0.18847 0.0
H514 H 0.15935 0.07067 0.17495 0.0
H515 H 0.12931 0.16372 0.16908 0.0
C516 C 0.23574 0.25617 0.20728 0.0
C517 C 0.25919 0.25342 0.21744 0.0
C518 C 0.26945 0.22273 0.21656 0.0
C519 C 0.25513 0.19427 0.20609 0.0
C520 C 0.23119 0.19723 0.19641 0.0
C521 C 0.22185 0.22765 0.19689 0.0
C522 C 0.19166 0.22144 0.18629 0.0
C523 C 0.1535 0.21864 0.19236 0.0
C524 C 0.21118 0.25542 0.17603 0.0
C525 C 0.18303 0.18114 0.18039 0.0
C526 C 0.20705 0.1682 0.18608 0.0
C527 C 0.20047 0.12924 0.18359 0.0
C528 C 0.16717 0.10216 0.17575 0.0
C529 C 0.14094 0.11418 0.17058 0.0
C530 C 0.15028 0.15469 0.17236 0.0
H531 H 0.83306 0.06102 0.22462 0.0
H532 H 0.74011 0.94578 0.20789 0.0
H533 H 0.77761 0.96158 0.18692 0.0
H534 H 0.86237 0.12019 0.19256 0.0
H535 H 0.91521 0.14718 0.19696 0.0
H536 H 0.87722 0.13167 0.20967 0.0
H537 H 0.90672 0.09291 0.22159 0.0
H538 H 0.9451 0.10929 0.20913 0.0
H539 H 0.91306 0.05577 0.21243 0.0
H540 H 0.82819 0.9848 0.16894 0.0
H541 H 0.8927 0.00652 0.15749 0.0
H542 H 0.95475 0.10528 0.1858 0.0
C543 C 0.82016 0.03975 0.21639 0.0
C544 C 0.78354 0.00236 0.21784 0.0
C545 C 0.76813 0.97467 0.207 0.0
C546 C 0.78896 0.9836 0.19497 0.0
C547 C 0.82527 0.02044 0.19386 0.0
C548 C 0.84101 0.04793 0.20433 0.0
C549 C 0.88348 0.08215 0.20126 0.0
C550 C 0.88462 0.12271 0.20004 0.0
C551 C 0.91385 0.08514 0.21171 0.0
C552 C 0.89016 0.06795 0.18791 0.0
C553 C 0.85551 0.03336 0.18353 0.0
C554 C 0.85531 0.01236 0.1721 0.0
C555 C 0.89205 0.02526 0.16551 0.0
C556 C 0.92851 0.05793 0.17066 0.0
C557 C 0.92703 0.08101 0.18146 0.0
H558 H 0.93886 0.79816 0.22897 0.0
H559 H 0.03604 0.78219 0.21441 0.0
H560 H 0.03993 0.81964 0.1941 0.0
H561 H 0.89054 0.79135 0.19741 0.0
H562 H 0.88018 0.83094 0.20181 0.0
H563 H 0.8822 0.79931 0.21446 0.0
H564 H 0.9371 0.86332 0.22713 0.0
H565 H 0.93432 0.89493 0.21471 0.0
H566 H 0.98223 0.89966 0.21852 0.0
H567 H 0.03399 0.86073 0.17565 0.0
H568 H 0.02886 0.91312 0.16312 0.0
H569 H 0.93836 0.90456 0.19062 0.0
C570 C 0.96073 0.80225 0.22145 0.0
C571 C 0.98695 0.78709 0.22315 0.0
C572 C 0.01577 0.79374 0.21326 0.0
C573 C 0.01781 0.81448 0.20164 0.0
C574 C 0.99106 0.8286 0.20018 0.0
C575 C 0.96366 0.82344 0.20997 0.0
C576 C 0.94135 0.84523 0.20677 0.0
C577 C 0.89586 0.81488 0.20501 0.0
C578 C 0.94925 0.87771 0.21741 0.0
C579 C 0.96096 0.86425 0.19376 0.0
C580 C 0.98872 0.85339 0.1899 0.0
C581 C 0.01205 0.86909 0.17851 0.0
C582 C 0.00856 0.89838 0.17134 0.0
C583 C 0.98264 0.91209 0.1758 0.0
C584 C 0.95752 0.89363 0.18683 0.0
H585 H 0.24486 0.25166 0.29302 0.0
H586 H 0.15405 0.22775 0.2634 0.0
H587 H 0.10054 0.17956 0.27835 0.0
H588 H 0.19941 0.1508 0.30575 0.0
H589 H 0.21191 0.16692 0.32277 0.0
H590 H 0.24318 0.19961 0.30971 0.0
H591 H 0.23327 0.25749 0.31892 0.0
H592 H 0.20151 0.22485 0.33194 0.0
H593 H 0.18281 0.24842 0.32105 0.0
H594 H 0.05758 0.13138 0.29552 0.0
H595 H 0.02695 0.08561 0.3145 0.0
H596 H 0.14339 0.14344 0.33414 0.0
C597 C 0.2137 0.23594 0.28971 0.0
C598 C 0.20344 0.24299 0.27704 0.0
C599 C 0.1624 0.22261 0.27308 0.0
C600 C 0.13182 0.19531 0.28149 0.0
C601 C 0.14268 0.18933 0.29397 0.0
C602 C 0.18248 0.20913 0.29815 0.0
C603 C 0.18543 0.19722 0.31215 0.0
C604 C 0.21152 0.17745 0.31262 0.0
C605 C 0.20173 0.2342 0.32157 0.0
C606 C 0.14125 0.16663 0.31497 0.0
C607 C 0.11721 0.16282 0.30431 0.0
C608 C 0.07587 0.13461 0.30405 0.0
C609 C 0.0587 0.10891 0.31486 0.0
C610 C 0.08266 0.11202 0.32583 0.0
C611 C 0.1243 0.14166 0.32603 0.0
H612 H 0.82969 0.03742 0.28046 0.0
H613 H 0.72338 0.92934 0.29492 0.0
H614 H 0.76183 0.92901 0.3143 0.0
H615 H 0.8953 0.0061 0.28683 0.0
H616 H 0.93766 0.05474 0.29179 0.0
H617 H 0.89994 0.05255 0.28091 0.0
H618 H 0.88794 0.09838 0.2972 0.0
H619 H 0.9259 0.10067 0.30813 0.0
H620 H 0.87565 0.08351 0.31421 0.0
H621 H 0.81474 0.93313 0.32994 0.0
H622 H 0.87763 0.94092 0.33964 0.0
H623 H 0.94879 0.04544 0.31489 0.0
C624 C 0.81417 0.0149 0.28804 0.0
C625 C 0.7735 0.98376 0.28633 0.0
C626 C 0.75451 0.95367 0.29615 0.0
C627 C 0.77607 0.95332 0.30721 0.0
C628 C 0.8167 0.98336 0.30838 0.0
C629 C 0.8355 0.01386 0.2991 0.0
C630 C 0.88057 0.03911 0.30161 0.0
C631 C 0.90475 0.03801 0.28958 0.0
C632 C 0.89325 0.08302 0.30552 0.0
C633 C 0.88436 0.01676 0.31323 0.0
C634 C 0.84722 0.98529 0.31726 0.0
C635 C 0.84396 0.95826 0.32706 0.0
C636 C 0.87969 0.96286 0.33256 0.0
C637 C 0.9178 0.99383 0.32803 0.0
C638 C 0.91987 0.02173 0.31861 0.0
H639 H 0.04744 0.84254 0.27869 0.0
H640 H 0.95655 0.7383 0.30029 0.0
H641 H 0.96804 0.78232 0.31991 0.0
H642 H 0.11532 0.89849 0.30677 0.0
H643 H 0.12551 0.94719 0.30098 0.0
H644 H 0.11444 0.90674 0.2893 0.0
H645 H 0.05585 0.91333 0.27959 0.0
H646 H 0.06683 0.95371 0.29123 0.0
H647 H 0.01673 0.90941 0.29046 0.0
H648 H 0.98777 0.83829 0.33692 0.0
H649 H 0.00832 0.90273 0.34906 0.0
H650 H 0.08151 0.97104 0.31563 0.0
C651 C 0.03076 0.82894 0.28768 0.0
C652 C 0.00165 0.78697 0.28812 0.0
C653 C 0.97926 0.77036 0.29985 0.0
C654 C 0.9857 0.79508 0.31103 0.0
C655 C 0.01424 0.83649 0.31026 0.0
C656 C 0.03609 0.8534 0.29883 0.0
C657 C 0.06167 0.89933 0.30011 0.0
C658 C 0.10693 0.91378 0.29924 0.0
C659 C 0.04952 0.92015 0.28973 0.0
C660 C 0.05031 0.90564 0.31392 0.0
C661 C 0.02368 0.86898 0.31974 0.0
C662 C 0.00868 0.86719 0.33247 0.0
C663 C 0.0206 0.90387 0.3393 0.0
C664 C 0.04643 0.94171 0.33325 0.0
C665 C 0.06176 0.94245 0.32047 0.0
H666 H 0.77138 0.7908 0.79455 0.0
H667 H 0.86974 0.80885 0.76877 0.0
H668 H 0.91801 0.86608 0.78269 0.0
H669 H 0.80858 0.89626 0.80248 0.0
H670 H 0.79474 0.88856 0.81971 0.0
H671 H 0.76642 0.84838 0.80781 0.0
H672 H 0.77979 0.79952 0.8213 0.0
H673 H 0.80815 0.83952 0.83327 0.0
H674 H 0.83107 0.81392 0.82524 0.0
H675 H 0.95389 0.92364 0.79696 0.0
H676 H 0.98059 0.97777 0.81349 0.0
H677 H 0.86439 0.92134 0.83342 0.0
C678 C 0.80313 0.80697 0.79194 0.0
C679 C 0.81706 0.79563 0.78059 0.0
C680 C 0.85867 0.817 0.77746 0.0
C681 C 0.88628 0.84958 0.78527 0.0
C682 C 0.87196 0.86004 0.79636 0.0
C683 C 0.83171 0.83935 0.79994 0.0
C684 C 0.82575 0.85725 0.81274 0.0
C685 C 0.79717 0.87359 0.81055 0.0
C686 C 0.81027 0.82567 0.8238 0.0
C687 C 0.86886 0.89175 0.81548 0.0
C688 C 0.89442 0.89245 0.80569 0.0
C689 C 0.93468 0.92272 0.80497 0.0
C690 C 0.94972 0.95319 0.81456 0.0
C691 C 0.92531 0.95287 0.82515 0.0
C692 C 0.88406 0.92163 0.82568 0.0
H693 H 0.18998 0.99587 0.77544 0.0
H694 H 0.29393 0.05382 0.80146 0.0
H695 H 0.24839 0.0345 0.82091 0.0
H696 H 0.13709 0.03422 0.79313 0.0
H697 H 0.08785 0.99056 0.78978 0.0
H698 H 0.12867 0.00381 0.77839 0.0
H699 H 0.11743 0.93111 0.78053 0.0
H700 H 0.07699 0.91807 0.79213 0.0
H701 H 0.11909 0.91245 0.79664 0.0
H702 H 0.19106 0.01433 0.8373 0.0
H703 H 0.12899 0.0034 0.84854 0.0
H704 H 0.06315 0.95875 0.81159 0.0
C705 C 0.20297 0.00353 0.78528 0.0
C706 C 0.24521 0.0256 0.78709 0.0
C707 C 0.26148 0.0366 0.79999 0.0
C708 C 0.23587 0.0255 0.81106 0.0
C709 C 0.19413 0.00388 0.80899 0.0
C710 C 0.17788 0.99353 0.79637 0.0
C711 C 0.1326 0.97549 0.79661 0.0
C712 C 0.12088 0.00263 0.78904 0.0
C713 C 0.11022 0.93166 0.79115 0.0
C714 C 0.12571 0.9767 0.81131 0.0
C715 C 0.16141 0.99297 0.81834 0.0
C716 C 0.16281 0.00099 0.83191 0.0
C717 C 0.1273 0.99431 0.83827 0.0
C718 C 0.09109 0.98004 0.831 0.0
C719 C 0.09011 0.96912 0.81752 0.0
H720 H 0.99899 0.21085 0.78402 0.0
H721 H 0.10975 0.32321 0.79398 0.0
H722 H 0.11878 0.29123 0.81348 0.0
H723 H 0.96614 0.17915 0.81934 0.0
H724 H 0.94697 0.12622 0.81545 0.0
H725 H 0.94566 0.15918 0.80315 0.0
H726 H 0.98539 0.1393 0.78697 0.0
H727 H 0.98681 0.10647 0.79922 0.0
H728 H 0.03323 0.14603 0.79211 0.0
H729 H 0.12479 0.24394 0.82836 0.0
H730 H 0.12127 0.18568 0.83984 0.0
H731 H 0.00224 0.10612 0.82339 0.0
C732 C 0.02416 0.22901 0.79062 0.0
C733 C 0.05368 0.26949 0.78749 0.0
C734 C 0.08688 0.29204 0.79616 0.0
C735 C 0.0923 0.27422 0.8073 0.0
C736 C 0.06383 0.23386 0.80986 0.0
C737 C 0.02992 0.21163 0.80197 0.0
C738 C 0.00567 0.16791 0.80656 0.0
C739 C 0.9636 0.15751 0.81142 0.0
C740 C 0.00262 0.1382 0.79556 0.0
C741 C 0.03183 0.1691 0.81794 0.0
C742 C 0.06548 0.20736 0.81958 0.0
C743 C 0.09745 0.21435 0.82782 0.0
C744 C 0.09497 0.18127 0.83454 0.0
C745 C 0.05992 0.14228 0.83353 0.0
C746 C 0.02801 0.13635 0.82514 0.0
H747 H 0.84706 0.75751 0.71681 0.0
H748 H 0.7572 0.79386 0.71692 0.0
H749 H 0.78762 0.8333 0.69661 0.0
H750 H 0.92778 0.84992 0.70911 0.0
H751 H 0.95292 0.83066 0.69884 0.0
H752 H 0.91911 0.79946 0.7116 0.0
H753 H 0.87796 0.74292 0.69404 0.0
H754 H 0.91143 0.77482 0.68118 0.0
H755 H 0.85777 0.75455 0.67985 0.0
H756 H 0.83145 0.87367 0.67766 0.0
H757 H 0.89203 0.92296 0.66536 0.0
H758 H 0.95556 0.86395 0.67865 0.0
C759 C 0.8331 0.77297 0.71242 0.0
C760 C 0.79941 0.7722 0.7184 0.0
C761 C 0.78282 0.79376 0.71249 0.0
C762 C 0.79963 0.81585 0.70086 0.0
C763 C 0.83289 0.81594 0.69523 0.0
C764 C 0.84971 0.79543 0.70094 0.0
C765 C 0.8887 0.80493 0.69414 0.0
C766 C 0.9242 0.82231 0.70401 0.0
C767 C 0.88365 0.76704 0.68688 0.0
C768 C 0.89295 0.83647 0.68436 0.0
C769 C 0.85936 0.84074 0.68465 0.0
C770 C 0.85752 0.87005 0.67718 0.0
C771 C 0.89189 0.89753 0.67 0.0
C772 C 0.92804 0.89654 0.67083 0.0
C773 C 0.92777 0.86424 0.67746 0.0
H774 H 0.20253 0.00308 0.72499 0.0
H775 H 0.311 0.1162 0.7147 0.0
H776 H 0.27747 0.1207 0.69463 0.0
H777 H 0.16983 0.96343 0.69103 0.0
H778 H 0.11721 0.94342 0.69482 0.0
H779 H 0.15133 0.94647 0.70752 0.0
H780 H 0.1305 0.9888 0.72231 0.0
H781 H 0.09651 0.98575 0.70962 0.0
H782 H 0.13511 0.03473 0.71589 0.0
H783 H 0.23012 0.11521 0.67625 0.0
H784 H 0.17106 0.10187 0.66243 0.0
H785 H 0.09499 0.99351 0.68515 0.0
C786 C 0.21944 0.02825 0.71834 0.0
C787 C 0.25937 0.05914 0.72133 0.0
C788 C 0.28026 0.09222 0.71258 0.0
C789 C 0.2616 0.09496 0.70112 0.0
C790 C 0.22194 0.06441 0.69853 0.0
C791 C 0.20106 0.03175 0.70693 0.0
C792 C 0.15766 0.00497 0.70255 0.0
C793 C 0.14849 0.96203 0.69875 0.0
C794 C 0.12824 0.00352 0.71323 0.0
C795 C 0.15745 0.02781 0.69052 0.0
C796 C 0.19475 0.06177 0.68819 0.0
C797 C 0.20079 0.08839 0.67788 0.0
C798 C 0.16735 0.08052 0.67001 0.0
C799 C 0.12877 0.04666 0.67271 0.0
C800 C 0.12433 0.01958 0.68282 0.0
H801 H 0.98696 0.20312 0.73155 0.0
H802 H 0.06862 0.30455 0.70709 0.0
H803 H 0.05076 0.25799 0.68776 0.0
H804 H 0.0181 0.1398 0.71915 0.0
H805 H 0.96967 0.09349 0.72032 0.0
H806 H 0.98146 0.13565 0.73119 0.0
H807 H 0.91704 0.13479 0.72319 0.0
H808 H 0.90544 0.09271 0.71217 0.0
H809 H 0.90993 0.13858 0.70578 0.0
H810 H 0.03118 0.19976 0.67202 0.0
H811 H 0.02015 0.13513 0.66235 0.0
H812 H 0.95341 0.07151 0.69734 0.0
C813 C 0.99988 0.21555 0.72199 0.0
C814 C 0.02844 0.25729 0.72063 0.0
C815 C 0.04631 0.27257 0.70819 0.0
C816 C 0.03607 0.24644 0.69717 0.0
C817 C 0.00825 0.20512 0.69883 0.0
C818 C 0.99075 0.18971 0.71099 0.0
C819 C 0.96767 0.14369 0.71081 0.0
C820 C 0.98529 0.12722 0.72096 0.0
C821 C 0.92232 0.12644 0.71312 0.0
C822 C 0.97569 0.1356 0.69677 0.0
C823 C 0.99825 0.1713 0.68989 0.0
C824 C 0.01284 0.17153 0.6772 0.0
C825 C 0.00612 0.13462 0.67171 0.0
C826 C 0.9857 0.09839 0.67907 0.0
C827 C 0.96853 0.09871 0.69142 0.0
H828 H 0.86822 0.52558 0.56723 0.0
H829 H 0.91079 0.62787 0.54095 0.0
H830 H 0.87729 0.58043 0.52203 0.0
H831 H 0.87134 0.45226 0.54328 0.0
H832 H 0.82492 0.41021 0.5495 0.0
H833 H 0.858 0.45154 0.56044 0.0
H834 H 0.79858 0.46253 0.56667 0.0
H835 H 0.76564 0.42122 0.55579 0.0
H836 H 0.77169 0.47075 0.55371 0.0
H837 H 0.83586 0.52186 0.50634 0.0
H838 H 0.78259 0.45798 0.49575 0.0
H839 H 0.76304 0.39525 0.53287 0.0
C840 C 0.8712 0.53772 0.55741 0.0
C841 C 0.89247 0.58 0.55534 0.0
C842 C 0.89486 0.59534 0.54254 0.0
C843 C 0.87619 0.56869 0.53179 0.0
C844 C 0.85496 0.52695 0.53412 0.0
C845 C 0.852 0.51157 0.54665 0.0
C846 C 0.82331 0.466 0.54682 0.0
C847 C 0.84575 0.4437 0.55021 0.0
C848 C 0.7877 0.45447 0.55631 0.0
C849 C 0.80968 0.45838 0.53257 0.0
C850 C 0.82915 0.49359 0.52528 0.0
C851 C 0.82065 0.49401 0.51192 0.0
C852 C 0.79065 0.45765 0.50597 0.0
C853 C 0.76916 0.42191 0.51351 0.0
C854 C 0.77936 0.4222 0.52688 0.0
H855 H 0.45453 0.299 0.54972 0.0
H856 H 0.48971 0.42296 0.56072 0.0
H857 H 0.53944 0.44853 0.54239 0.0
H858 H 0.55288 0.3207 0.54247 0.0
H859 H 0.53668 0.28354 0.52926 0.0
H860 H 0.50293 0.27614 0.5427 0.0
H861 H 0.44907 0.26987 0.52597 0.0
H862 H 0.483 0.27753 0.51252 0.0
H863 H 0.46225 0.3102 0.51437 0.0
H864 H 0.59339 0.4596 0.52462 0.0
H865 H 0.64135 0.45293 0.50953 0.0
H866 H 0.55998 0.32238 0.50841 0.0
C867 C 0.4722 0.33158 0.54826 0.0
C868 C 0.46829 0.35894 0.55673 0.0
C869 C 0.49236 0.40135 0.55441 0.0
C870 C 0.52054 0.41615 0.54399 0.0
C871 C 0.52379 0.38814 0.5359 0.0
C872 C 0.49981 0.34668 0.53792 0.0
C873 C 0.51012 0.3225 0.52855 0.0
C874 C 0.52665 0.29941 0.5362 0.0
C875 C 0.47392 0.29333 0.51984 0.0
C876 C 0.54275 0.3566 0.52062 0.0
C877 C 0.55157 0.39451 0.52513 0.0
C878 C 0.58587 0.43009 0.52068 0.0
C879 C 0.6126 0.42626 0.51194 0.0
C880 C 0.60339 0.38723 0.50748 0.0
C881 C 0.56673 0.35272 0.51123 0.0
H882 H 0.64116 0.11115 0.54179 0.0
H883 H 0.75881 0.18478 0.56011 0.0
H884 H 0.77713 0.23759 0.54305 0.0
H885 H 0.67502 0.13763 0.50739 0.0
H886 H 0.62944 0.13691 0.50288 0.0
H887 H 0.62823 0.10432 0.51578 0.0
H888 H 0.59788 0.13491 0.53189 0.0
H889 H 0.59916 0.16772 0.51912 0.0
H890 H 0.62424 0.1892 0.53466 0.0
H891 H 0.77804 0.28634 0.52517 0.0
H892 H 0.76254 0.32272 0.50817 0.0
H893 H 0.64595 0.21356 0.50147 0.0
C894 C 0.67114 0.13801 0.54209 0.0
C895 C 0.69859 0.14383 0.55225 0.0
C896 C 0.73746 0.17948 0.55231 0.0
C897 C 0.74801 0.2097 0.54269 0.0
C898 C 0.71961 0.20337 0.53299 0.0
C899 C 0.6822 0.16794 0.53256 0.0
C900 C 0.65613 0.16852 0.5216 0.0
C901 C 0.64666 0.13485 0.5113 0.0
C902 C 0.61707 0.1649 0.52716 0.0
C903 C 0.68416 0.21026 0.51605 0.0
C904 C 0.72072 0.23021 0.52265 0.0
C905 C 0.74984 0.27055 0.51974 0.0
C906 C 0.74097 0.29095 0.50999 0.0
C907 C 0.70338 0.27083 0.50326 0.0
C908 C 0.67529 0.22973 0.50624 0.0
H909 H 0.85483 0.60752 0.62519 0.0
H910 H 0.94002 0.56622 0.61936 0.0
H911 H 0.9125 0.52316 0.63908 0.0
H912 H 0.85378 0.60333 0.66256 0.0
H913 H 0.80067 0.58643 0.66312 0.0
H914 H 0.8321 0.61999 0.6502 0.0
H915 H 0.78414 0.56866 0.63243 0.0
H916 H 0.75255 0.53546 0.64525 0.0
H917 H 0.77279 0.51671 0.63276 0.0
H918 H 0.87107 0.47901 0.65745 0.0
H919 H 0.81318 0.42971 0.67074 0.0
H920 H 0.75259 0.49694 0.66416 0.0
C921 C 0.86838 0.59011 0.62818 0.0
C922 C 0.89982 0.59047 0.62071 0.0
C923 C 0.91619 0.56674 0.62493 0.0
C924 C 0.90094 0.54243 0.6362 0.0
C925 C 0.86967 0.54252 0.64323 0.0
C926 C 0.85349 0.56566 0.63936 0.0
C927 C 0.81698 0.55677 0.64767 0.0
C928 C 0.82644 0.59383 0.65641 0.0
C929 C 0.77941 0.54358 0.639 0.0
C930 C 0.81277 0.5222 0.65601 0.0
C931 C 0.84476 0.51601 0.65374 0.0
C932 C 0.84638 0.48409 0.65951 0.0
C933 C 0.8135 0.45643 0.66714 0.0
C934 C 0.77906 0.46026 0.66873 0.0
C935 C 0.7793 0.4944 0.66353 0.0
H936 H 0.43655 0.26857 0.62101 0.0
H937 H 0.45011 0.38772 0.62641 0.0
H938 H 0.48677 0.39654 0.64739 0.0
H939 H 0.42743 0.24143 0.65662 0.0
H940 H 0.45622 0.21667 0.65424 0.0
H941 H 0.42508 0.21687 0.64103 0.0
H942 H 0.48703 0.24929 0.62533 0.0
H943 H 0.51789 0.24832 0.63836 0.0
H944 H 0.53212 0.29566 0.63038 0.0
H945 H 0.52858 0.39542 0.66626 0.0
H946 H 0.57999 0.38966 0.67893 0.0
H947 H 0.54036 0.27226 0.66073 0.0
C948 C 0.44635 0.29627 0.6267 0.0
C949 C 0.44005 0.32735 0.62207 0.0
C950 C 0.4543 0.36337 0.62975 0.0
C951 C 0.47485 0.36846 0.64175 0.0
C952 C 0.48067 0.33718 0.64595 0.0
C953 C 0.46702 0.30191 0.63856 0.0
C954 C 0.48132 0.275 0.64421 0.0
C955 C 0.44537 0.23512 0.64933 0.0
C956 C 0.50608 0.26664 0.63397 0.0
C957 C 0.50734 0.30169 0.65554 0.0
C958 C 0.50534 0.33674 0.6567 0.0
C959 C 0.52965 0.36772 0.66564 0.0
C960 C 0.55841 0.36396 0.67297 0.0
C961 C 0.56307 0.32988 0.67114 0.0
C962 C 0.536 0.29763 0.66277 0.0
H963 H 0.63114 0.10901 0.62549 0.0
H964 H 0.75545 0.17232 0.61186 0.0
H965 H 0.77591 0.21725 0.63159 0.0
H966 H 0.6272 0.19096 0.63639 0.0
H967 H 0.59654 0.16706 0.65076 0.0
H968 H 0.59398 0.13647 0.63679 0.0
H969 H 0.61168 0.09391 0.6521 0.0
H970 H 0.61528 0.12533 0.66611 0.0
H971 H 0.65732 0.11905 0.66185 0.0
H972 H 0.78054 0.26237 0.65067 0.0
H973 H 0.76717 0.30514 0.66603 0.0
H974 H 0.64121 0.21051 0.66781 0.0
C975 C 0.66276 0.13192 0.62676 0.0
C976 C 0.69159 0.13729 0.61712 0.0
C977 C 0.73276 0.16755 0.61916 0.0
C978 C 0.74477 0.19305 0.63038 0.0
C979 C 0.71546 0.18725 0.63967 0.0
C980 C 0.67534 0.15714 0.63801 0.0
C981 C 0.64908 0.1594 0.64872 0.0
C982 C 0.61473 0.16379 0.64281 0.0
C983 C 0.63235 0.12221 0.65773 0.0
C984 C 0.67994 0.1976 0.65598 0.0
C985 C 0.71843 0.21258 0.65094 0.0
C986 C 0.75084 0.25033 0.65499 0.0
C987 C 0.74316 0.2743 0.66383 0.0
C988 C 0.70336 0.26044 0.66826 0.0
C989 C 0.67207 0.2209 0.66486 0.0
H990 H 0.49113 0.11244 0.13051 0.0
H991 H 0.43166 0.17067 0.11277 0.0
H992 H 0.45139 0.21775 0.13196 0.0
H993 H 0.46656 0.12368 0.16553 0.0
H994 H 0.51487 0.13302 0.17126 0.0
H995 H 0.49113 0.10046 0.15704 0.0
H996 H 0.55501 0.14516 0.14285 0.0
H997 H 0.57912 0.17685 0.15707 0.0
H998 H 0.57465 0.19917 0.14208 0.0
H999 H 0.48866 0.26611 0.15085 0.0
H1000 H 0.54246 0.31187 0.16647 0.0
H1001 H 0.5712 0.2184 0.17335 0.0
C1002 C 0.48161 0.13462 0.13075 0.0
C1003 C 0.45995 0.13787 0.12011 0.0
C1004 C 0.44817 0.16743 0.12082 0.0
C1005 C 0.45903 0.19418 0.13173 0.0
C1006 C 0.48077 0.19037 0.14202 0.0
C1007 C 0.49161 0.16107 0.14163 0.0
C1008 C 0.51803 0.16546 0.15326 0.0
C1009 C 0.49634 0.12844 0.16231 0.0
C1010 C 0.55911 0.17209 0.14853 0.0
C1011 C 0.52234 0.2032 0.15993 0.0
C1012 C 0.50013 0.2169 0.15342 0.0
C1013 C 0.50491 0.25491 0.15636 0.0
C1014 C 0.53505 0.28056 0.16546 0.0
C1015 C 0.55984 0.268 0.17148 0.0
C1016 C 0.55112 0.22776 0.16943 0.0
H1017 H 0.85806 0.30488 0.11259 0.0
H1018 H 0.96083 0.39889 0.13441 0.0
H1019 H 0.92005 0.37998 0.15479 0.0
H1020 H 0.78983 0.32582 0.12638 0.0
H1021 H 0.74794 0.27411 0.12675 0.0
H1022 H 0.78751 0.28831 0.11483 0.0
H1023 H 0.79881 0.23124 0.12341 0.0
H1024 H 0.75946 0.21743 0.13553 0.0
H1025 H 0.80938 0.23015 0.14069 0.0
H1026 H 0.86629 0.3594 0.17172 0.0
H1027 H 0.8029 0.34525 0.18263 0.0
H1028 H 0.73428 0.26456 0.15015 0.0
C1029 C 0.87224 0.32028 0.12179 0.0
C1030 C 0.91265 0.35286 0.12202 0.0
C1031 C 0.92991 0.3736 0.13409 0.0
C1032 C 0.90709 0.36283 0.14574 0.0
C1033 C 0.86694 0.33123 0.14519 0.0
C1034 C 0.84956 0.31033 0.1335 0.0
C1035 C 0.80434 0.2825 0.13505 0.0
C1036 C 0.78107 0.29337 0.12518 0.0
C1037 C 0.7923 0.23766 0.13358 0.0
C1038 C 0.7988 0.29254 0.14917 0.0
C1039 C 0.83539 0.31979 0.155 0.0
C1040 C 0.83747 0.33732 0.16741 0.0
C1041 C 0.80126 0.32881 0.17363 0.0
C1042 C 0.76372 0.30368 0.16727 0.0
C1043 C 0.76258 0.28334 0.15534 0.0
H1044 H 0.69542 0.54051 0.10879 0.0
H1045 H 0.73445 0.64564 0.13439 0.0
H1046 H 0.73845 0.60701 0.15332 0.0
H1047 H 0.63695 0.46151 0.13296 0.0
H1048 H 0.65383 0.42879 0.1263 0.0
H1049 H 0.64948 0.46368 0.11567 0.0
H1050 H 0.72469 0.49437 0.10878 0.0
H1051 H 0.72934 0.46008 0.1196 0.0
H1052 H 0.76333 0.5142 0.12137 0.0
H1053 H 0.73812 0.55371 0.16958 0.0
H1054 H 0.73569 0.49421 0.18041 0.0
H1055 H 0.70531 0.43115 0.1424 0.0
C1056 C 0.70356 0.55485 0.11849 0.0
C1057 C 0.71335 0.59529 0.12037 0.0
C1058 C 0.72579 0.61407 0.13298 0.0
C1059 C 0.72834 0.59246 0.14372 0.0
C1060 C 0.71917 0.55251 0.14153 0.0
C1061 C 0.7072 0.53418 0.12914 0.0
C1062 C 0.70207 0.49248 0.12887 0.0
C1063 C 0.65797 0.45969 0.12577 0.0
C1064 C 0.73163 0.49019 0.11907 0.0
C1065 C 0.71302 0.49003 0.14295 0.0
C1066 C 0.72222 0.52429 0.15031 0.0
C1067 C 0.73133 0.52688 0.16382 0.0
C1068 C 0.73021 0.49316 0.16989 0.0
C1069 C 0.72103 0.45802 0.16231 0.0
C1070 C 0.71313 0.45741 0.14864 0.0
H1071 H 0.51528 0.10173 0.04816 0.0
H1072 H 0.46244 0.17426 0.0595 0.0
H1073 H 0.50034 0.22237 0.04155 0.0
H1074 H 0.61161 0.17895 0.04127 0.0
H1075 H 0.61929 0.15534 0.02689 0.0
H1076 H 0.58447 0.12425 0.03951 0.0
H1077 H 0.52724 0.08937 0.02208 0.0
H1078 H 0.56203 0.12032 0.00934 0.0
H1079 H 0.51555 0.12014 0.01183 0.0
H1080 H 0.54881 0.2657 0.02368 0.0
H1081 H 0.60429 0.30097 0.00748 0.0
H1082 H 0.626 0.20058 0.00808 0.0
C1083 C 0.51124 0.12744 0.04675 0.0
C1084 C 0.48598 0.13435 0.05524 0.0
C1085 C 0.48136 0.16821 0.05305 0.0
C1086 C 0.50278 0.19569 0.04288 0.0
C1087 C 0.52801 0.18836 0.03484 0.0
C1088 C 0.5319 0.15476 0.03655 0.0
C1089 C 0.56201 0.15454 0.02688 0.0
C1090 C 0.59638 0.15322 0.03408 0.0
C1091 C 0.54043 0.11898 0.01694 0.0
C1092 C 0.57691 0.19489 0.02017 0.0
C1093 C 0.556 0.21334 0.0246 0.0
C1094 C 0.565 0.25129 0.02004 0.0
C1095 C 0.59646 0.27107 0.01085 0.0
C1096 C 0.619 0.25322 0.00655 0.0
C1097 C 0.60887 0.21456 0.01118 0.0
H1098 H 0.90392 0.43822 0.06214 0.0
H1099 H 0.91664 0.33795 0.04777 0.0
H1100 H 0.87806 0.33318 0.0276 0.0
H1101 H 0.80259 0.39687 0.05157 0.0
H1102 H 0.80911 0.4456 0.0475 0.0
H1103 H 0.83994 0.4423 0.06014 0.0
H1104 H 0.90443 0.49496 0.0476 0.0
H1105 H 0.87364 0.49788 0.03482 0.0
H1106 H 0.91138 0.48507 0.0306 0.0
H1107 H 0.83676 0.33952 0.00896 0.0
H1108 H 0.78954 0.35001 0.99537 0.0
H1109 H 0.80259 0.44404 0.02281 0.0
C1110 C 0.89897 0.41542 0.05472 0.0
C1111 C 0.91364 0.38868 0.05649 0.0
C1112 C 0.90572 0.3588 0.04662 0.0
C1113 C 0.8841 0.35608 0.0351 0.0
C1114 C 0.87039 0.38326 0.03364 0.0
C1115 C 0.87712 0.41197 0.0433 0.0
C1116 C 0.85697 0.43579 0.03992 0.0
C1117 C 0.82527 0.42975 0.0504 0.0
C1118 C 0.88849 0.48112 0.03813 0.0
C1119 C 0.83732 0.41577 0.0269 0.0
C1120 C 0.84593 0.38605 0.02326 0.0
C1121 C 0.83004 0.36288 0.01171 0.0
C1122 C 0.80358 0.36932 0.00397 0.0
C1123 C 0.79286 0.39821 0.00797 0.0
C1124 C 0.81075 0.4222 0.01942 0.0
H1125 H 0.74739 0.58754 0.05171 0.0
H1126 H 0.62423 0.56056 0.0574 0.0
H1127 H 0.60095 0.50809 0.03975 0.0
H1128 H 0.74086 0.5704 0.01555 0.0
H1129 H 0.77182 0.54761 0.01606 0.0
H1130 H 0.77931 0.58612 0.02809 0.0
H1131 H 0.7692 0.53698 0.04707 0.0
H1132 H 0.76205 0.49861 0.03513 0.0
H1133 H 0.72384 0.48747 0.04745 0.0
H1134 H 0.59015 0.4533 0.02277 0.0
H1135 H 0.59352 0.40035 0.00916 0.0
H1136 H 0.72325 0.46447 0.01472 0.0
C1137 C 0.71561 0.5712 0.04911 0.0
C1138 C 0.68777 0.57845 0.05596 0.0
C1139 C 0.64631 0.55577 0.05231 0.0
C1140 C 0.63275 0.52594 0.04224 0.0
C1141 C 0.66097 0.51924 0.0358 0.0
C1142 C 0.70157 0.54136 0.03911 0.0
C1143 C 0.72543 0.52644 0.03145 0.0
C1144 C 0.75617 0.55963 0.02224 0.0
C1145 C 0.74632 0.51147 0.04084 0.0
C1146 C 0.6918 0.49161 0.02366 0.0
C1147 C 0.65482 0.48814 0.02608 0.0
C1148 C 0.61907 0.45618 0.02063 0.0
C1149 C 0.62115 0.42641 0.01285 0.0
C1150 C 0.65866 0.42894 0.01077 0.0
C1151 C 0.69431 0.46245 0.01596 0.0
H1152 H 0.58656 0.89333 0.88933 0.0
H1153 H 0.55297 0.98183 0.87896 0.0
H1154 H 0.52394 0.94494 0.85801 0.0
H1155 H 0.6065 0.87122 0.85447 0.0
H1156 H 0.58487 0.81791 0.85785 0.0
H1157 H 0.61045 0.85535 0.87081 0.0
H1158 H 0.54644 0.81911 0.88563 0.0
H1159 H 0.52154 0.78127 0.87288 0.0
H1160 H 0.49864 0.80916 0.87913 0.0
H1161 H 0.49202 0.89518 0.83952 0.0
H1162 H 0.4479 0.83031 0.82776 0.0
H1163 H 0.49894 0.77238 0.85038 0.0
C1164 C 0.57394 0.90548 0.88251 0.0
C1165 C 0.57239 0.94072 0.88576 0.0
C1166 C 0.55469 0.955 0.8767 0.0
C1167 C 0.53854 0.93452 0.86467 0.0
C1168 C 0.54043 0.89983 0.86177 0.0
C1169 C 0.55725 0.88512 0.8705 0.0
C1170 C 0.55025 0.84413 0.86592 0.0
C1171 C 0.59042 0.84735 0.86203 0.0
C1172 C 0.52786 0.81152 0.87652 0.0
C1173 C 0.5242 0.83666 0.85382 0.0
C1174 C 0.52065 0.87008 0.85121 0.0
C1175 C 0.49525 0.86915 0.84127 0.0
C1176 C 0.4707 0.8323 0.83446 0.0
C1177 C 0.47087 0.79679 0.83797 0.0
C1178 C 0.49955 0.7996 0.8472 0.0
H1179 H 0.16342 0.72121 0.89417 0.0
H1180 H 0.06668 0.60809 0.87749 0.0
H1181 H 0.10621 0.62008 0.85701 0.0
H1182 H 0.19931 0.77867 0.86236 0.0
H1183 H 0.25156 0.80258 0.86731 0.0
H1184 H 0.2128 0.78963 0.87959 0.0
H1185 H 0.23693 0.74728 0.89222 0.0
H1186 H 0.27605 0.76093 0.88015 0.0
H1187 H 0.2408 0.70802 0.88346 0.0
H1188 H 0.15837 0.64061 0.8393 0.0
H1189 H 0.22284 0.6605 0.82796 0.0
H1190 H 0.28704 0.75746 0.85669 0.0
C1191 C 0.15022 0.69948 0.88608 0.0
C1192 C 0.11187 0.66391 0.88736 0.0
C1193 C 0.09603 0.63558 0.8767 0.0
C1194 C 0.11804 0.64239 0.86497 0.0
C1195 C 0.15593 0.67764 0.86403 0.0
C1196 C 0.17213 0.70545 0.87438 0.0
C1197 C 0.21567 0.73763 0.87167 0.0
C1198 C 0.22008 0.77962 0.87014 0.0
C1199 C 0.24401 0.73846 0.88251 0.0
C1200 C 0.22219 0.72218 0.85857 0.0
C1201 C 0.18685 0.68862 0.85403 0.0
C1202 C 0.18606 0.66729 0.84261 0.0
C1203 C 0.22272 0.67906 0.83613 0.0
C1204 C 0.25953 0.711 0.84133 0.0
C1205 C 0.259 0.73382 0.85232 0.0
H1206 H 0.36413 0.47782 0.88806 0.0
H1207 H 0.235 0.42154 0.89516 0.0
H1208 H 0.22876 0.45608 0.87597 0.0
H1209 H 0.38167 0.57345 0.87935 0.0
H1210 H 0.41765 0.58221 0.86644 0.0
H1211 H 0.4113 0.54918 0.87986 0.0
H1212 H 0.39634 0.49151 0.86292 0.0
H1213 H 0.4018 0.52438 0.84945 0.0
H1214 H 0.35593 0.47577 0.85112 0.0
H1215 H 0.23648 0.5018 0.85783 0.0
H1216 H 0.25987 0.56115 0.84348 0.0
H1217 H 0.3828 0.58718 0.8469 0.0
C1218 C 0.33453 0.47252 0.88551 0.0
C1219 C 0.30015 0.44676 0.89321 0.0
C1220 C 0.26197 0.44089 0.88949 0.0
C1221 C 0.2579 0.46018 0.87849 0.0
C1222 C 0.29214 0.48513 0.8711 0.0
C1223 C 0.32978 0.49157 0.87444 0.0
C1224 C 0.36203 0.52244 0.86533 0.0
C1225 C 0.39508 0.55898 0.87322 0.0
C1226 C 0.3801 0.50232 0.85669 0.0
C1227 C 0.33696 0.53422 0.85702 0.0
C1228 C 0.29648 0.51129 0.86024 0.0
C1229 C 0.26787 0.51905 0.85485 0.0
C1230 C 0.28123 0.55232 0.84641 0.0
C1231 C 0.32272 0.57725 0.84342 0.0
C1232 C 0.35066 0.56729 0.84851 0.0
H1233 H 0.5458 0.8822 0.94326 0.0
H1234 H 0.5768 0.99214 0.9654 0.0
H1235 H 0.53651 0.95066 0.98443 0.0
H1236 H 0.44418 0.83008 0.9535 0.0
H1237 H 0.43965 0.78082 0.95374 0.0
H1238 H 0.47513 0.81926 0.94275 0.0
H1239 H 0.53349 0.81287 0.95283 0.0
H1240 H 0.49796 0.77411 0.96376 0.0
H1241 H 0.54185 0.81867 0.97045 0.0
H1242 H 0.48818 0.89494 1.00073 0.0
H1243 H 0.43543 0.83173 0.01166 0.0
H1244 H 0.43585 0.76132 0.97768 0.0
C1245 C 0.54497 0.89747 0.95226 0.0
C1246 C 0.56482 0.94016 0.95304 0.0
C1247 C 0.56191 0.95927 0.96474 0.0
C1248 C 0.5392 0.93601 0.97558 0.0
C1249 C 0.5191 0.89371 0.97442 0.0
C1250 C 0.52168 0.87477 0.96298 0.0
C1251 C 0.49416 0.82926 0.96354 0.0
C1252 C 0.46136 0.81399 0.95274 0.0
C1253 C 0.51833 0.80746 0.9626 0.0
C1254 C 0.47617 0.82536 0.97711 0.0
C1255 C 0.4907 0.86254 0.98337 0.0
C1256 C 0.47673 0.86562 0.9959 0.0
C1257 C 0.44682 0.82967 1.00205 0.0
C1258 C 0.43119 0.79151 0.99554 0.0
C1259 C 0.44674 0.78983 0.983 0.0
H1260 H 0.09826 0.59934 0.95474 0.0
H1261 H 0.12155 0.72274 0.95817 0.0
H1262 H 0.15838 0.73182 0.97915 0.0
H1263 H 0.0878 0.57621 0.9904 0.0
H1264 H 0.11332 0.5479 0.98877 0.0
H1265 H 0.08391 0.54927 0.97519 0.0
H1266 H 0.1461 0.57643 0.95965 0.0
H1267 H 0.17507 0.57395 0.97304 0.0
H1268 H 0.19291 0.62123 0.96452 0.0
H1269 H 0.19792 0.72903 0.99867 0.0
H1270 H 0.24585 0.71945 0.01206 0.0
H1271 H 0.19729 0.59869 0.99532 0.0
C1272 C 0.1104 0.62815 0.95998 0.0
C1273 C 0.10664 0.66023 0.95483 0.0
C1274 C 0.12389 0.69765 0.96192 0.0
C1275 C 0.14448 0.70291 0.97392 0.0
C1276 C 0.1474 0.67043 0.97871 0.0
C1277 C 0.13114 0.63394 0.97183 0.0
C1278 C 0.14232 0.60536 0.97808 0.0
C1279 C 0.10458 0.56744 0.98343 0.0
C1280 C 0.1655 0.59361 0.96824 0.0
C1281 C 0.16913 0.63207 0.98925 0.0
C1282 C 0.17063 0.669 0.98976 0.0
C1283 C 0.19632 0.69995 0.99853 0.0
C1284 C 0.22301 0.69402 0.00629 0.0
C1285 C 0.22434 0.65786 0.00498 0.0
C1286 C 0.1956 0.62584 0.9969 0.0
H1287 H 0.38306 0.5005 0.95065 0.0
H1288 H 0.28898 0.39425 0.97059 0.0
H1289 H 0.30372 0.43424 0.99132 0.0
H1290 H 0.45268 0.55027 0.98014 0.0
H1291 H 0.46417 0.60011 0.97513 0.0
H1292 H 0.4536 0.56128 0.96283 0.0
H1293 H 0.39645 0.57012 0.95301 0.0
H1294 H 0.40764 0.60935 0.96505 0.0
H1295 H 0.35703 0.56601 0.96377 0.0
H1296 H 0.32003 0.48738 0.00857 0.0
H1297 H 0.3287 0.5498 0.01931 0.0
H1298 H 0.41124 0.62217 0.98838 0.0
C1299 C 0.36661 0.4854 0.95952 0.0
C1300 C 0.33525 0.44422 0.9591 0.0
C1301 C 0.31327 0.42577 0.97074 0.0
C1302 C 0.32175 0.44815 0.9826 0.0
C1303 C 0.35229 0.48904 0.98267 0.0
C1304 C 0.37421 0.50757 0.97138 0.0
C1305 C 0.40024 0.5532 0.97339 0.0
C1306 C 0.44536 0.56702 0.97284 0.0
C1307 C 0.38967 0.57597 0.96321 0.0
C1308 C 0.38786 0.5577 0.98727 0.0
C1309 C 0.36129 0.52022 0.99266 0.0
C1310 C 0.34168 0.51688 0.00465 0.0
C1311 C 0.34717 0.55252 0.01082 0.0
C1312 C 0.37153 0.59069 0.00485 0.0
C1313 C 0.3939 0.5934 0.9934 0.0
H1314 H 0.1381 0.50495 0.44642 0.0
H1315 H 0.12059 0.39972 0.46766 0.0
H1316 H 0.14786 0.44188 0.48801 0.0
H1317 H 0.23272 0.56937 0.45942 0.0
H1318 H 0.22834 0.61408 0.45981 0.0
H1319 H 0.19932 0.57392 0.44809 0.0
H1320 H 0.13355 0.56887 0.45713 0.0
H1321 H 0.1627 0.60869 0.46908 0.0
H1322 H 0.12189 0.56012 0.47449 0.0
H1323 H 0.18467 0.49692 0.50512 0.0
H1324 H 0.23747 0.5604 0.51601 0.0
H1325 H 0.23432 0.63008 0.48325 0.0
C1326 C 0.13891 0.49072 0.4555 0.0
C1327 C 0.1267 0.44916 0.45566 0.0
C1328 C 0.12957 0.43157 0.46748 0.0
C1329 C 0.14463 0.45519 0.47908 0.0
C1330 C 0.15708 0.49643 0.47862 0.0
C1331 C 0.15489 0.51413 0.46705 0.0
C1332 C 0.17659 0.55998 0.46845 0.0
C1333 C 0.21129 0.58052 0.45835 0.0
C1334 C 0.1469 0.57531 0.46721 0.0
C1335 C 0.19244 0.56549 0.48245 0.0
C1336 C 0.17982 0.52847 0.48832 0.0
C1337 C 0.19404 0.52608 0.50075 0.0
C1338 C 0.22364 0.56228 0.50696 0.0
C1339 C 0.23899 0.59997 0.50059 0.0
C1340 C 0.22185 0.60166 0.48851 0.0
H1341 H 0.60016 0.75777 0.46026 0.0
H1342 H 0.54674 0.63541 0.44393 0.0
H1343 H 0.49775 0.60956 0.46243 0.0
H1344 H 0.58582 0.72878 0.49561 0.0
H1345 H 0.57492 0.76807 0.4999 0.0
H1346 H 0.60893 0.77549 0.48646 0.0
H1347 H 0.56521 0.78981 0.47055 0.0
H1348 H 0.53176 0.78324 0.48396 0.0
H1349 H 0.51192 0.75308 0.46905 0.0
H1350 H 0.44869 0.59924 0.48115 0.0
H1351 H 0.40289 0.60692 0.49671 0.0
H1352 H 0.49057 0.73537 0.50081 0.0
C1353 C 0.57858 0.72539 0.46062 0.0
C1354 C 0.57724 0.69868 0.45059 0.0
C1355 C 0.54843 0.65653 0.4515 0.0
C1356 C 0.52063 0.64153 0.46203 0.0
C1357 C 0.52256 0.66895 0.47168 0.0
C1358 C 0.55104 0.71 0.47104 0.0
C1359 C 0.54497 0.734 0.48184 0.0
C1360 C 0.5808 0.75268 0.49153 0.0
C1361 C 0.53802 0.76692 0.47599 0.0
C1362 C 0.50724 0.70048 0.48828 0.0
C1363 C 0.49511 0.6629 0.48254 0.0
C1364 C 0.4585 0.62829 0.48596 0.0
C1365 C 0.43285 0.63273 0.49494 0.0
C1366 C 0.44394 0.6715 0.5002 0.0
C1367 C 0.48227 0.70518 0.49728 0.0
H1368 H 0.33916 0.90124 0.45548 0.0
H1369 H 0.46845 0.96069 0.44839 0.0
H1370 H 0.4764 0.92981 0.46837 0.0
H1371 H 0.3464 0.90738 0.49245 0.0
H1372 H 0.30157 0.85797 0.49423 0.0
H1373 H 0.30635 0.88936 0.4804 0.0
H1374 H 0.29431 0.8312 0.46406 0.0
H1375 H 0.28866 0.79963 0.47784 0.0
H1376 H 0.32566 0.80895 0.46524 0.0
H1377 H 0.46987 0.88662 0.48768 0.0
H1378 H 0.44728 0.82861 0.50284 0.0
H1379 H 0.32327 0.79806 0.49767 0.0
C1380 C 0.36923 0.90835 0.45825 0.0
C1381 C 0.40308 0.93353 0.4503 0.0
C1382 C 0.44186 0.94154 0.45425 0.0
C1383 C 0.44687 0.92442 0.46569 0.0
C1384 C 0.41294 0.89957 0.47326 0.0
C1385 C 0.37484 0.89145 0.46968 0.0
C1386 C 0.34288 0.8606 0.4788 0.0
C1387 C 0.32313 0.87999 0.48695 0.0
C1388 C 0.31104 0.82287 0.47102 0.0
C1389 C 0.36865 0.85088 0.48751 0.0
C1390 C 0.40918 0.87458 0.48445 0.0
C1391 C 0.4383 0.86843 0.49038 0.0
C1392 C 0.42535 0.83575 0.49912 0.0
C1393 C 0.38368 0.80945 0.50157 0.0
C1394 C 0.3554 0.81847 0.4962 0.0
H1395 H 0.15825 0.4208 0.38058 0.0
H1396 H 0.10469 0.49079 0.39415 0.0
H1397 H 0.13324 0.53523 0.3747 0.0
H1398 H 0.24885 0.49789 0.37115 0.0
H1399 H 0.2543 0.4736 0.35652 0.0
H1400 H 0.223 0.44312 0.36985 0.0
H1401 H 0.16255 0.40535 0.35364 0.0
H1402 H 0.19386 0.43633 0.34023 0.0
H1403 H 0.14697 0.43414 0.34396 0.0
H1404 H 0.17315 0.57572 0.35523 0.0
H1405 H 0.22976 0.61597 0.34009 0.0
H1406 H 0.26163 0.52278 0.34041 0.0
C1407 C 0.15188 0.44504 0.37935 0.0
C1408 C 0.12914 0.4523 0.38887 0.0
C1409 C 0.12159 0.48437 0.38691 0.0
C1410 C 0.1375 0.50958 0.37585 0.0
C1411 C 0.16015 0.50176 0.36672 0.0
C1412 C 0.16734 0.47026 0.36838 0.0
C1413 C 0.1961 0.47082 0.35798 0.0
C1414 C 0.23274 0.47146 0.36426 0.0
C1415 C 0.17354 0.4345 0.34838 0.0
C1416 C 0.20773 0.51025 0.35112 0.0
C1417 C 0.18465 0.52614 0.35576 0.0
C1418 C 0.19079 0.56316 0.35136 0.0
C1419 C 0.22272 0.58556 0.3426 0.0
C1420 C 0.24928 0.57186 0.3388 0.0
C1421 C 0.24078 0.53305 0.34271 0.0
H1422 H 0.56194 0.67045 0.38422 0.0
H1423 H 0.65064 0.79866 0.37975 0.0
H1424 H 0.61743 0.8001 0.35928 0.0
H1425 H 0.54691 0.64462 0.34748 0.0
H1426 H 0.49346 0.61009 0.34971 0.0
H1427 H 0.52846 0.61684 0.36266 0.0
H1428 H 0.48902 0.63601 0.37929 0.0
H1429 H 0.45384 0.62869 0.36646 0.0
H1430 H 0.4802 0.67662 0.37529 0.0
H1431 H 0.56666 0.79147 0.34203 0.0
H1432 H 0.50297 0.77218 0.33011 0.0
H1433 H 0.45089 0.64905 0.34419 0.0
C1434 C 0.5752 0.69834 0.37865 0.0
C1435 C 0.60883 0.73436 0.38363 0.0
C1436 C 0.62468 0.77061 0.3762 0.0
C1437 C 0.6062 0.77176 0.36446 0.0
C1438 C 0.57213 0.73622 0.36005 0.0
C1439 C 0.55709 0.7 0.36682 0.0
C1440 C 0.51758 0.66735 0.36081 0.0
C1441 C 0.52188 0.63267 0.35481 0.0
C1442 C 0.48316 0.65127 0.37107 0.0
C1443 C 0.51187 0.6913 0.35011 0.0
C1444 C 0.54379 0.73092 0.34966 0.0
C1445 C 0.54205 0.76013 0.34194 0.0
C1446 C 0.50597 0.74892 0.33505 0.0
C1447 C 0.47244 0.70893 0.336 0.0
C1448 C 0.4766 0.67953 0.34298 0.0
H1449 H 0.31503 0.85438 0.39757 0.0
H1450 H 0.365 0.95743 0.37142 0.0
H1451 H 0.34577 0.91105 0.35204 0.0
H1452 H 0.3581 0.80893 0.38175 0.0
H1453 H 0.31821 0.75709 0.38431 0.0
H1454 H 0.32418 0.79635 0.39561 0.0
H1455 H 0.24976 0.77649 0.39133 0.0
H1456 H 0.24377 0.73712 0.37991 0.0
H1457 H 0.23298 0.77541 0.37465 0.0
H1458 H 0.33423 0.85596 0.33608 0.0
H1459 H 0.33768 0.79891 0.32554 0.0
H1460 H 0.29739 0.73214 0.36209 0.0
C1461 C 0.31995 0.86675 0.38771 0.0
C1462 C 0.34041 0.90903 0.38584 0.0
C1463 C 0.3486 0.92484 0.37292 0.0
C1464 C 0.33758 0.89873 0.36189 0.0
C1465 C 0.31874 0.85699 0.364 0.0
C1466 C 0.31005 0.8411 0.37663 0.0
C1467 C 0.29755 0.79668 0.37648 0.0
C1468 C 0.32622 0.78938 0.38503 0.0
C1469 C 0.25337 0.76984 0.38085 0.0
C1470 C 0.30238 0.79057 0.36194 0.0
C1471 C 0.31343 0.82524 0.35479 0.0
C1472 C 0.32458 0.82825 0.34148 0.0
C1473 C 0.3263 0.79574 0.33554 0.0
C1474 C 0.31766 0.76139 0.34304 0.0
C1475 C 0.30369 0.75807 0.35614 0.0
H1476 H 0.26167 0.00637 0.10231 0.0
H1477 H 0.34035 0.1374 0.10122 0.0
H1478 H 0.2906 0.1459 0.11432 0.0
H1479 H 0.17082 0.00802 0.09719 0.0
H1480 H 0.14031 0.96491 0.10756 0.0
H1481 H 0.18401 0.96952 0.09934 0.0
H1482 H 0.21203 0.96392 0.12193 0.0
H1483 H 0.16862 0.96 0.13022 0.0
H1484 H 0.21884 0.99909 0.13512 0.0
H1485 H 0.23143 0.13991 0.12767 0.0
H1486 H 0.16332 0.12031 0.13634 0.0
H1487 H 0.12148 0.99411 0.12686 0.0
C1488 C 0.26839 0.03678 0.10491 0.0
C1489 C 0.30483 0.07126 0.10081 0.0
C1490 C 0.31242 0.11061 0.1042 0.0
C1491 C 0.28455 0.11572 0.11176 0.0
C1492 C 0.24884 0.08115 0.11569 0.0
C1493 C 0.24032 0.04246 0.11212 0.0
C1494 C 0.19811 0.01057 0.11642 0.0
C1495 C 0.17176 0.98688 0.10441 0.0
C1496 C 0.19951 0.98169 0.12653 0.0
C1497 C 0.18408 0.03731 0.12281 0.0
C1498 C 0.21409 0.07787 0.12264 0.0
C1499 C 0.20772 0.10821 0.12786 0.0
C1500 C 0.16916 0.09688 0.13287 0.0
C1501 C 0.13749 0.05579 0.13232 0.0
C1502 C 0.14545 0.02572 0.12751 0.0
H1503 H 0.02025 0.28609 0.11045 0.0
H1504 H 0.90985 0.21549 0.08773 0.0
H1505 H 0.89954 0.15249 0.09783 0.0
H1506 H 0.05406 0.21541 0.10733 0.0
H1507 H 0.07491 0.22459 0.12379 0.0
H1508 H 0.07195 0.26408 0.11536 0.0
H1509 H 0.03145 0.26957 0.13501 0.0
H1510 H 0.03375 0.22958 0.14343 0.0
H1511 H 0.98551 0.22489 0.14026 0.0
H1512 H 0.90202 0.09684 0.10984 0.0
H1513 H 0.92133 0.05207 0.12096 0.0
H1514 H 0.03064 0.15784 0.13558 0.0
C1515 C 0.99386 0.25739 0.10761 0.0
C1516 C 0.96583 0.25582 0.09827 0.0
C1517 C 0.93183 0.21756 0.0948 0.0
C1518 C 0.92553 0.18158 0.10057 0.0
C1519 C 0.95351 0.18422 0.10981 0.0
C1520 C 0.98725 0.22107 0.1132 0.0
C1521 C 0.01386 0.2152 0.12283 0.0
C1522 C 0.05619 0.23072 0.11697 0.0
C1523 C 0.01628 0.23605 0.13618 0.0
C1524 C 0.99035 0.16918 0.12407 0.0
C1525 C 0.95517 0.15202 0.11668 0.0
C1526 C 0.92921 0.10997 0.11579 0.0
C1527 C 0.94017 0.08476 0.12223 0.0
C1528 C 0.97672 0.10159 0.12943 0.0
C1529 C 0.00179 0.14433 0.13054 0.0
H1530 H 0.80041 0.75727 0.0921 0.0
H1531 H 0.71962 0.71931 0.1258 0.0
H1532 H 0.77521 0.77106 0.13983 0.0
H1533 H 0.89299 0.782 0.10982 0.0
H1534 H 0.92421 0.82609 0.09992 0.0
H1535 H 0.87926 0.78344 0.09292 0.0
H1536 H 0.8525 0.83108 0.08671 0.0
H1537 H 0.89755 0.87377 0.09354 0.0
H1538 H 0.84861 0.86253 0.09939 0.0
H1539 H 0.84008 0.83006 0.14999 0.0
H1540 H 0.90448 0.89482 0.15438 0.0
H1541 H 0.94089 0.89439 0.11378 0.0
C1542 C 0.79456 0.75955 0.10247 0.0
C1543 C 0.75576 0.73422 0.10788 0.0
C1544 C 0.74912 0.73855 0.12144 0.0
C1545 C 0.78061 0.76764 0.12951 0.0
C1546 C 0.81858 0.79236 0.12387 0.0
C1547 C 0.82546 0.78879 0.1106 0.0
C1548 C 0.86775 0.82119 0.10663 0.0
C1549 C 0.89251 0.80202 0.10205 0.0
C1550 C 0.86651 0.84877 0.09594 0.0
C1551 C 0.88348 0.84391 0.11963 0.0
C1552 C 0.85509 0.82657 0.12956 0.0
C1553 C 0.8626 0.8437 0.14229 0.0
C1554 C 0.89938 0.88029 0.14475 0.0
C1555 C 0.92772 0.89955 0.13445 0.0
C1556 C 0.91993 0.88025 0.12189 0.0
H1557 H 0.07452 0.28686 0.41633 0.0
H1558 H 0.02233 0.31839 0.38414 0.0
H1559 H 0.02892 0.26977 0.36937 0.0
H1560 H 0.14485 0.26914 0.39704 0.0
H1561 H 0.13534 0.22604 0.40679 0.0
H1562 H 0.13105 0.26679 0.41421 0.0
H1563 H 0.05733 0.21523 0.42142 0.0
H1564 H 0.06169 0.17441 0.41422 0.0
H1565 H 0.02129 0.18205 0.40915 0.0
H1566 H 0.03817 0.21411 0.3585 0.0
H1567 H 0.0399 0.15119 0.35372 0.0
H1568 H 0.08312 0.15542 0.39348 0.0
C1569 C 0.06507 0.28399 0.40611 0.0
C1570 C 0.04824 0.30651 0.40132 0.0
C1571 C 0.03532 0.30131 0.38798 0.0
C1572 C 0.03928 0.27406 0.37951 0.0
C1573 C 0.05593 0.25208 0.38457 0.0
C1574 C 0.0681 0.25649 0.39763 0.0
C1575 C 0.08078 0.22639 0.40113 0.0
C1576 C 0.12568 0.24842 0.40502 0.0
C1577 C 0.05366 0.19783 0.41212 0.0
C1578 C 0.0735 0.20392 0.38809 0.0
C1579 C 0.05993 0.21955 0.37852 0.0
C1580 C 0.04915 0.20193 0.36589 0.0
C1581 C 0.0506 0.16645 0.3632 0.0
C1582 C 0.062 0.14876 0.3732 0.0
C1583 C 0.07486 0.16866 0.3856 0.0
H1584 H 0.76158 0.76265 0.3903 0.0
H1585 H 0.72452 0.83152 0.41499 0.0
H1586 H 0.77203 0.8941 0.40328 0.0
H1587 H 0.86474 0.8352 0.39038 0.0
H1588 H 0.87373 0.82652 0.37346 0.0
H1589 H 0.83281 0.78632 0.38253 0.0
H1590 H 0.78284 0.77948 0.36424 0.0
H1591 H 0.82369 0.82033 0.35521 0.0
H1592 H 0.77996 0.82336 0.35976 0.0
H1593 H 0.82666 0.94989 0.39044 0.0
H1594 H 0.89161 0.99653 0.37966 0.0
H1595 H 0.89627 0.89366 0.36352 0.0
C1596 C 0.76316 0.79085 0.39311 0.0
C1597 C 0.73898 0.79204 0.4035 0.0
C1598 C 0.7424 0.82965 0.40702 0.0
C1599 C 0.76913 0.86541 0.40034 0.0
C1600 C 0.79239 0.86325 0.39013 0.0
C1601 C 0.79009 0.82709 0.3866 0.0
C1602 C 0.82141 0.83408 0.37615 0.0
C1603 C 0.84987 0.8197 0.38093 0.0
C1604 C 0.80074 0.81305 0.36306 0.0
C1605 C 0.8432 0.88009 0.37494 0.0
C1606 C 0.82488 0.89601 0.38275 0.0
C1607 C 0.8408 0.93779 0.38407 0.0
C1608 C 0.87748 0.9641 0.37779 0.0
C1609 C 0.89809 0.94866 0.37039 0.0
C1610 C 0.88011 0.90613 0.3686 0.0
H1611 H 0.27372 0.02903 0.40779 0.0
H1612 H 0.21434 0.89854 0.41277 0.0
H1613 H 0.15334 0.88987 0.40141 0.0
H1614 H 0.18411 0.03524 0.41424 0.0
H1615 H 0.19868 0.07572 0.40262 0.0
H1616 H 0.23686 0.07041 0.41096 0.0
H1617 H 0.26691 0.06749 0.38826 0.0
H1618 H 0.22827 0.07187 0.37983 0.0
H1619 H 0.23508 0.02949 0.37619 0.0
H1620 H 0.09992 0.89616 0.3883 0.0
H1621 H 0.05508 0.9176 0.37821 0.0
H1622 H 0.14889 0.04387 0.38339 0.0
C1623 C 0.24768 0.99866 0.40661 0.0
C1624 C 0.24853 0.96442 0.41115 0.0
C1625 C 0.21397 0.92516 0.40948 0.0
C1626 C 0.17945 0.91997 0.40292 0.0
C1627 C 0.17991 0.95443 0.39831 0.0
C1628 C 0.21285 0.99307 0.4004 0.0
C1629 C 0.2053 0.02539 0.39514 0.0
C1630 C 0.20628 0.05332 0.40641 0.0
C1631 C 0.2357 0.05 0.3842 0.0
C1632 C 0.16309 0.99902 0.38962 0.0
C1633 C 0.14904 0.9581 0.39133 0.0
C1634 C 0.11063 0.92812 0.38696 0.0
C1635 C 0.08553 0.94044 0.38114 0.0
C1636 C 0.09896 0.98222 0.37993 0.0
C1637 C 0.13832 0.0117 0.38405 0.0
H1638 H 0.76971 0.03179 0.89956 0.0
H1639 H 0.6934 0.90177 0.90511 0.0
H1640 H 0.74268 0.89057 0.89265 0.0
H1641 H 0.80737 0.02953 0.86681 0.0
H1642 H 0.8577 0.07107 0.87041 0.0
H1643 H 0.81486 0.06825 0.87875 0.0
H1644 H 0.84694 0.07107 0.90149 0.0
H1645 H 0.89008 0.07462 0.8932 0.0
H1646 H 0.86223 0.03478 0.90496 0.0
H1647 H 0.80259 0.89452 0.87994 0.0
H1648 H 0.87057 0.91388 0.87121 0.0
H1649 H 0.90745 0.04106 0.87502 0.0
C1650 C 0.76317 0.0009 0.89805 0.0
C1651 C 0.72762 0.96759 0.9032 0.0
C1652 C 0.72052 0.92772 0.90125 0.0
C1653 C 0.74818 0.92108 0.89409 0.0
C1654 C 0.78296 0.95469 0.88907 0.0
C1655 C 0.79071 0.99386 0.89117 0.0
C1656 C 0.83172 0.02513 0.88584 0.0
C1657 C 0.82764 0.04995 0.87479 0.0
C1658 C 0.85937 0.05302 0.89704 0.0
C1659 C 0.84608 0.99762 0.88044 0.0
C1660 C 0.81739 0.95701 0.88215 0.0
C1661 C 0.82502 0.92621 0.87843 0.0
C1662 C 0.86346 0.93736 0.87333 0.0
C1663 C 0.89362 0.97884 0.87213 0.0
C1664 C 0.88438 0.0091 0.87546 0.0
H1665 H 0.07631 0.81912 0.91759 0.0
H1666 H 0.06034 0.74684 0.88232 0.0
H1667 H 0.06205 0.80065 0.86854 0.0
H1668 H 0.00904 0.85009 0.90736 0.0
H1669 H 0.03673 0.90006 0.91486 0.0
H1670 H 0.04031 0.85884 0.92167 0.0
H1671 H 0.11846 0.90118 0.91922 0.0
H1672 H 0.11492 0.94246 0.91234 0.0
H1673 H 0.14029 0.92109 0.90327 0.0
H1674 H 0.06176 0.86136 0.85867 0.0
H1675 H 0.05164 0.91909 0.85405 0.0
H1676 H 0.06353 0.94898 0.89591 0.0
C1677 C 0.07427 0.81526 0.90694 0.0
C1678 C 0.06901 0.77934 0.90094 0.0
C1679 C 0.06481 0.77446 0.88704 0.0
C1680 C 0.06591 0.8049 0.87914 0.0
C1681 C 0.07061 0.83987 0.88532 0.0
C1682 C 0.07425 0.84495 0.89893 0.0
C1683 C 0.07417 0.88297 0.90324 0.0
C1684 C 0.03791 0.87234 0.91232 0.0
C1685 C 0.11437 0.91374 0.90992 0.0
C1686 C 0.06969 0.89829 0.89001 0.0
C1687 C 0.06842 0.87354 0.87974 0.0
C1688 C 0.06301 0.88113 0.86665 0.0
C1689 C 0.0576 0.91416 0.86408 0.0
C1690 C 0.05699 0.93867 0.87459 0.0
C1691 C 0.06405 0.93094 0.88764 0.0
H1692 H 0.25619 0.26374 0.91694 0.0
H1693 H 0.28405 0.35041 0.88572 0.0
H1694 H 0.22432 0.29838 0.87298 0.0
H1695 H 0.22607 0.17719 0.8946 0.0
H1696 H 0.18792 0.14185 0.90576 0.0
H1697 H 0.23221 0.18644 0.9122 0.0
H1698 H 0.18623 0.2073 0.92469 0.0
H1699 H 0.14189 0.16303 0.91815 0.0
H1700 H 0.14941 0.21295 0.91553 0.0
H1701 H 0.15679 0.23629 0.86465 0.0
H1702 H 0.09519 0.16849 0.86039 0.0
H1703 H 0.1189 0.12278 0.8959 0.0
C1704 C 0.24976 0.27155 0.90738 0.0
C1705 C 0.27432 0.31078 0.90225 0.0
C1706 C 0.26545 0.32019 0.8897 0.0
C1707 C 0.23154 0.29096 0.88247 0.0
C1708 C 0.20751 0.25235 0.88785 0.0
C1709 C 0.21691 0.24248 0.89989 0.0
C1710 C 0.18778 0.19858 0.90328 0.0
C1711 C 0.20981 0.1746 0.904 0.0
C1712 C 0.16499 0.1953 0.91618 0.0
C1713 C 0.15988 0.18535 0.89147 0.0
C1714 C 0.17125 0.21664 0.88268 0.0
C1715 C 0.14845 0.21134 0.87132 0.0
C1716 C 0.11393 0.17278 0.86881 0.0
C1717 C 0.10318 0.13996 0.87736 0.0
C1718 C 0.12632 0.14692 0.88896 0.0
H1719 H 0.96621 0.75907 0.59008 0.0
H1720 H 0.00672 0.71901 0.62334 0.0
H1721 H 0.00322 0.77004 0.6378 0.0
H1722 H 0.02615 0.86449 0.59859 0.0
H1723 H 0.98961 0.87655 0.59256 0.0
H1724 H 0.99216 0.83461 0.58539 0.0
H1725 H 0.91597 0.78619 0.5906 0.0
H1726 H 0.91334 0.82798 0.59793 0.0
H1727 H 0.89834 0.78278 0.60735 0.0
H1728 H 0.99705 0.82788 0.64841 0.0
H1729 H 0.99619 0.89105 0.65341 0.0
H1730 H 0.96153 0.893 0.61281 0.0
C1731 C 0.97391 0.76079 0.60044 0.0
C1732 C 0.98646 0.73508 0.60566 0.0
C1733 C 0.99714 0.73866 0.61919 0.0
C1734 C 0.99495 0.7673 0.62747 0.0
C1735 C 0.9825 0.79239 0.62201 0.0
C1736 C 0.97274 0.7897 0.60875 0.0
C1737 C 0.96385 0.82237 0.60498 0.0
C1738 C 0.99477 0.8512 0.59478 0.0
C1739 C 0.92027 0.8037 0.59992 0.0
C1740 C 0.96948 0.84358 0.61819 0.0
C1741 C 0.97999 0.82587 0.62796 0.0
C1742 C 0.98857 0.84181 0.64083 0.0
C1743 C 0.98769 0.87753 0.64362 0.0
C1744 C 0.97854 0.89693 0.63354 0.0
C1745 C 0.9683 0.87885 0.6208 0.0
H1746 H 0.29572 0.28002 0.61908 0.0
H1747 H 0.28561 0.23898 0.57831 0.0
H1748 H 0.22595 0.17319 0.58402 0.0
H1749 H 0.2651 0.17906 0.63296 0.0
H1750 H 0.23808 0.18448 0.64668 0.0
H1751 H 0.28098 0.22888 0.63971 0.0
H1752 H 0.23701 0.26106 0.63572 0.0
H1753 H 0.19409 0.21713 0.6428 0.0
H1754 H 0.19074 0.23296 0.62638 0.0
H1755 H 0.16772 0.11372 0.59339 0.0
H1756 H 0.10905 0.06309 0.60585 0.0
H1757 H 0.15413 0.1388 0.64125 0.0
C1758 C 0.28067 0.25711 0.61141 0.0
C1759 C 0.29505 0.26452 0.59822 0.0
C1760 C 0.27513 0.23378 0.58846 0.0
C1761 C 0.2413 0.19629 0.59161 0.0
C1762 C 0.22813 0.18952 0.60466 0.0
C1763 C 0.24698 0.21878 0.61446 0.0
C1764 C 0.22596 0.20279 0.62768 0.0
C1765 C 0.25422 0.19857 0.63734 0.0
C1766 C 0.21105 0.23011 0.63348 0.0
C1767 C 0.19097 0.16108 0.62355 0.0
C1768 C 0.19382 0.15407 0.61025 0.0
C1769 C 0.16524 0.11864 0.60383 0.0
C1770 C 0.13203 0.08999 0.61103 0.0
C1771 C 0.12704 0.0968 0.62454 0.0
C1772 C 0.15753 0.13241 0.63102 0.0
H1773 H 0.83263 0.10775 0.59794 0.0
H1774 H 0.72785 0.0106 0.61771 0.0
H1775 H 0.77232 0.00599 0.63407 0.0
H1776 H 0.89423 0.06543 0.60087 0.0
H1777 H 0.94039 0.11335 0.60363 0.0
H1778 H 0.89978 0.11179 0.59447 0.0
H1779 H 0.90052 0.16514 0.61087 0.0
H1780 H 0.94049 0.16572 0.62026 0.0
H1781 H 0.89402 0.15439 0.6283 0.0
H1782 H 0.82806 0.0085 0.64749 0.0
H1783 H 0.89054 0.01032 0.65437 0.0
H1784 H 0.959 0.10427 0.62582 0.0
C1785 C 0.81907 0.08577 0.60577 0.0
C1786 C 0.77671 0.05968 0.60654 0.0
C1787 C 0.7602 0.03104 0.61689 0.0
C1788 C 0.78521 0.02841 0.62634 0.0
C1789 C 0.8268 0.05478 0.62541 0.0
C1790 C 0.84368 0.08261 0.6153 0.0
C1791 C 0.88943 0.10477 0.61586 0.0
C1792 C 0.90697 0.09842 0.60295 0.0
C1793 C 0.90715 0.15021 0.619 0.0
C1794 C 0.89554 0.08358 0.62738 0.0
C1795 C 0.85908 0.05584 0.63306 0.0
C1796 C 0.85687 0.03067 0.6433 0.0
C1797 C 0.89257 0.0323 0.6473 0.0
C1798 C 0.92961 0.05832 0.64089 0.0
C1799 C 0.93127 0.08534 0.63121 0.0
H1800 H 0.96455 0.43272 0.43476 0.0
H1801 H 0.95113 0.32288 0.45172 0.0
H1802 H 0.89806 0.31817 0.46661 0.0
H1803 H 0.9457 0.4729 0.46577 0.0
H1804 H 0.91801 0.49242 0.45745 0.0
H1805 H 0.95786 0.48971 0.44892 0.0
H1806 H 0.90807 0.44639 0.4301 0.0
H1807 H 0.86858 0.4499 0.43843 0.0
H1808 H 0.86142 0.40067 0.43423 0.0
H1809 H 0.84322 0.32266 0.47872 0.0
H1810 H 0.78557 0.33116 0.48465 0.0
H1811 H 0.83456 0.43778 0.46002 0.0
C1812 C 0.95063 0.40785 0.44167 0.0
C1813 C 0.96212 0.37825 0.44208 0.0
C1814 C 0.94297 0.34604 0.45123 0.0
C1815 C 0.91297 0.34323 0.45982 0.0
C1816 C 0.90258 0.37308 0.45928 0.0
C1817 C 0.92063 0.40462 0.45037 0.0
C1818 C 0.90184 0.43097 0.45112 0.0
C1819 C 0.9327 0.47407 0.45611 0.0
C1820 C 0.8839 0.43201 0.43768 0.0
C1821 C 0.86917 0.4082 0.46132 0.0
C1822 C 0.8708 0.37555 0.46621 0.0
C1823 C 0.84202 0.34853 0.47513 0.0
C1824 C 0.80962 0.35387 0.4786 0.0
C1825 C 0.80605 0.3855 0.47297 0.0
C1826 C 0.83708 0.41384 0.46467 0.0
H1827 H 0.63673 0.56978 0.42094 0.0
H1828 H 0.67176 0.65236 0.45465 0.0
H1829 H 0.672 0.60066 0.46883 0.0
H1830 H 0.57309 0.4746 0.43909 0.0
H1831 H 0.59024 0.44629 0.42949 0.0
H1832 H 0.58851 0.48804 0.42216 0.0
H1833 H 0.66459 0.52219 0.41608 0.0
H1834 H 0.66626 0.48038 0.42333 0.0
H1835 H 0.70086 0.53173 0.4289 0.0
H1836 H 0.67094 0.54045 0.4794 0.0
H1837 H 0.67521 0.47951 0.48465 0.0
H1838 H 0.644 0.43772 0.44399 0.0
C1839 C 0.64388 0.57666 0.43134 0.0
C1840 C 0.65408 0.61511 0.43668 0.0
C1841 C 0.66399 0.6232 0.4503 0.0
C1842 C 0.66395 0.59389 0.45849 0.0
C1843 C 0.65422 0.55646 0.45294 0.0
C1844 C 0.64469 0.54785 0.43965 0.0
C1845 C 0.63866 0.50652 0.43599 0.0
C1846 C 0.59502 0.47713 0.43141 0.0
C1847 C 0.66943 0.51046 0.42545 0.0
C1848 C 0.64691 0.49375 0.44918 0.0
C1849 C 0.65508 0.52253 0.45892 0.0
C1850 C 0.66446 0.51759 0.47185 0.0
C1851 C 0.66663 0.48282 0.47478 0.0
C1852 C 0.66012 0.45391 0.46477 0.0
C1853 C 0.64926 0.45928 0.4519 0.0
H1854 H 0.41919 0.08302 0.45021 0.0
H1855 H 0.47087 0.06621 0.41406 0.0
H1856 H 0.53717 0.12383 0.42022 0.0
H1857 H 0.47352 0.19033 0.45028 0.0
H1858 H 0.4821 0.19693 0.46788 0.0
H1859 H 0.43867 0.15165 0.46141 0.0
H1860 H 0.46088 0.10723 0.47363 0.0
H1861 H 0.5046 0.15246 0.48011 0.0
H1862 H 0.51079 0.11543 0.47084 0.0
H1863 H 0.59595 0.1846 0.42887 0.0
H1864 H 0.64546 0.2491 0.43948 0.0
H1865 H 0.55895 0.22974 0.47048 0.0
C1866 C 0.4446 0.0914 0.44369 0.0
C1867 C 0.4398 0.06998 0.43167 0.0
C1868 C 0.4737 0.08189 0.42335 0.0
C1869 C 0.51166 0.11457 0.42677 0.0
C1870 C 0.51551 0.13507 0.4386 0.0
C1871 C 0.48316 0.12424 0.44697 0.0
C1872 C 0.49597 0.15321 0.45878 0.0
C1873 C 0.47109 0.17428 0.45963 0.0
C1874 C 0.49287 0.13074 0.47161 0.0
C1875 C 0.53987 0.18303 0.4553 0.0
C1876 C 0.5504 0.17117 0.44373 0.0
C1877 C 0.58833 0.19414 0.43801 0.0
C1878 C 0.61618 0.23085 0.44411 0.0
C1879 C 0.60604 0.24453 0.45578 0.0
C1880 C 0.56764 0.21981 0.46164 0.0
H1881 H 0.71092 0.60524 0.75107 0.0
H1882 H 0.68748 0.65401 0.7161 0.0
H1883 H 0.69178 0.60221 0.70223 0.0
H1884 H 0.78075 0.58039 0.73712 0.0
H1885 H 0.76117 0.53359 0.74608 0.0
H1886 H 0.75711 0.575 0.75301 0.0
H1887 H 0.67922 0.52769 0.75512 0.0
H1888 H 0.68316 0.48601 0.74842 0.0
H1889 H 0.65013 0.50018 0.74073 0.0
H1890 H 0.70013 0.54426 0.69227 0.0
H1891 H 0.70259 0.4816 0.68773 0.0
H1892 H 0.71847 0.47167 0.72966 0.0
C1893 C 0.70654 0.60491 0.74049 0.0
C1894 C 0.69881 0.63342 0.73462 0.0
C1895 C 0.69298 0.632 0.72077 0.0
C1896 C 0.69577 0.60298 0.71283 0.0
C1897 C 0.7039 0.57543 0.71894 0.0
C1898 C 0.70846 0.57586 0.7325 0.0
C1899 C 0.71466 0.54188 0.73686 0.0
C1900 C 0.75588 0.55874 0.74367 0.0
C1901 C 0.67972 0.51219 0.74581 0.0
C1902 C 0.71352 0.52243 0.72365 0.0
C1903 C 0.70761 0.54217 0.71336 0.0
C1904 C 0.70472 0.52862 0.70029 0.0
C1905 C 0.70649 0.49321 0.69778 0.0
C1906 C 0.71073 0.4717 0.70833 0.0
C1907 C 0.71529 0.48736 0.72134 0.0
H1908 H 0.43235 0.11956 0.75082 0.0
H1909 H 0.35843 0.07014 0.71566 0.0
H1910 H 0.41098 0.12758 0.70257 0.0
H1911 H 0.47608 0.22547 0.74457 0.0
H1912 H 0.52553 0.23906 0.75053 0.0
H1913 H 0.48126 0.1952 0.75704 0.0
H1914 H 0.51091 0.14971 0.75052 0.0
H1915 H 0.55533 0.19358 0.74408 0.0
H1916 H 0.52621 0.14942 0.73366 0.0
H1917 H 0.47366 0.19223 0.69341 0.0
H1918 H 0.54099 0.25319 0.689 0.0
H1919 H 0.57274 0.25647 0.73029 0.0
C1920 C 0.42725 0.12103 0.74037 0.0
C1921 C 0.39151 0.09078 0.73421 0.0
C1922 C 0.38593 0.09311 0.7205 0.0
C1923 C 0.41547 0.12569 0.71302 0.0
C1924 C 0.45071 0.15515 0.71938 0.0
C1925 C 0.45683 0.15261 0.73273 0.0
C1926 C 0.49816 0.18628 0.7371 0.0
C1927 C 0.49504 0.21309 0.74795 0.0
C1928 C 0.52418 0.1687 0.74161 0.0
C1929 C 0.51387 0.20911 0.72432 0.0
C1930 C 0.48641 0.1909 0.71414 0.0
C1931 C 0.49534 0.20667 0.70135 0.0
C1932 C 0.53359 0.24143 0.69894 0.0
C1933 C 0.56231 0.25993 0.70928 0.0
C1934 C 0.55168 0.24349 0.72211 0.0
H1935 H 0.88052 0.27017 0.74439 0.0
H1936 H 0.97978 0.38057 0.72766 0.0
H1937 H 0.93242 0.38734 0.71352 0.0
H1938 H 0.82049 0.23461 0.71315 0.0
H1939 H 0.77266 0.21503 0.72146 0.0
H1940 H 0.81429 0.21543 0.7297 0.0
H1941 H 0.80876 0.25686 0.74928 0.0
H1942 H 0.76674 0.25577 0.74119 0.0
H1943 H 0.81022 0.30383 0.746 0.0
H1944 H 0.87575 0.38388 0.70116 0.0
H1945 H 0.81092 0.37696 0.69442 0.0
H1946 H 0.74648 0.27267 0.71984 0.0
C1947 C 0.89217 0.29561 0.73772 0.0
C1948 C 0.93412 0.32458 0.73714 0.0
C1949 C 0.948 0.35762 0.7283 0.0
C1950 C 0.92131 0.36173 0.72009 0.0
C1951 C 0.88046 0.33257 0.72071 0.0
C1952 C 0.86564 0.30044 0.7294 0.0
C1953 C 0.81975 0.27517 0.72855 0.0
C1954 C 0.80599 0.23252 0.72288 0.0
C1955 C 0.80023 0.27281 0.74206 0.0
C1956 C 0.81137 0.29976 0.71874 0.0
C1957 C 0.84703 0.33164 0.71392 0.0
C1958 C 0.84753 0.35886 0.70478 0.0
C1959 C 0.81059 0.35446 0.70089 0.0
C1960 C 0.77386 0.32386 0.70641 0.0
C1961 C 0.77419 0.29569 0.71525 0.0
H1962 H 0.42623 0.34331 0.22944 0.0
H1963 H 0.39207 0.24486 0.25692 0.0
H1964 H 0.44505 0.23352 0.24755 0.0
H1965 H 0.44839 0.29477 0.20165 0.0
H1966 H 0.49016 0.34219 0.19587 0.0
H1967 H 0.44832 0.34144 0.20427 0.0
H1968 H 0.49753 0.39446 0.22145 0.0
H1969 H 0.53945 0.39584 0.213 0.0
H1970 H 0.53171 0.38422 0.23036 0.0
H1971 H 0.50459 0.23611 0.23635 0.0
H1972 H 0.56863 0.25475 0.22495 0.0
H1973 H 0.563 0.34959 0.204 0.0
C1974 C 0.42988 0.31934 0.2335 0.0
C1975 C 0.40511 0.29507 0.24399 0.0
C1976 C 0.41067 0.26384 0.24892 0.0
C1977 C 0.44055 0.25705 0.2436 0.0
C1978 C 0.46424 0.28131 0.23321 0.0
C1979 C 0.45924 0.31183 0.2282 0.0
C1980 C 0.48951 0.33437 0.21727 0.0
C1981 C 0.46779 0.32781 0.20398 0.0
C1982 C 0.51613 0.37992 0.22074 0.0
C1983 C 0.5136 0.31305 0.21732 0.0
C1984 C 0.49798 0.28203 0.22645 0.0
C1985 C 0.51656 0.25973 0.22899 0.0
C1986 C 0.55274 0.2703 0.22241 0.0
C1987 C 0.56992 0.30266 0.21332 0.0
C1988 C 0.54957 0.32365 0.2105 0.0
H1989 H 0.75664 0.14946 0.24904 0.0
H1990 H 0.69534 0.06107 0.21743 0.0
H1991 H 0.69726 0.11437 0.2036 0.0
H1992 H 0.70316 0.20068 0.24508 0.0
H1993 H 0.74544 0.25086 0.24861 0.0
H1994 H 0.74389 0.207 0.25549 0.0
H1995 H 0.81383 0.22937 0.24496 0.0
H1996 H 0.81512 0.27307 0.23793 0.0
H1997 H 0.82048 0.23772 0.2274 0.0
H1998 H 0.70247 0.17612 0.19343 0.0
H1999 H 0.70254 0.2395 0.18897 0.0
H2000 H 0.75759 0.28769 0.22729 0.0
C2001 C 0.74413 0.14155 0.23915 0.0
C2002 C 0.72592 0.10103 0.23433 0.0
C2003 C 0.70933 0.0918 0.22139 0.0
C2004 C 0.71058 0.12198 0.21338 0.0
C2005 C 0.72845 0.16151 0.2184 0.0
C2006 C 0.74461 0.17139 0.23102 0.0
C2007 C 0.75868 0.21548 0.23438 0.0
C2008 C 0.73645 0.21867 0.24661 0.0
C2009 C 0.80477 0.24037 0.23628 0.0
C2010 C 0.74641 0.22812 0.22193 0.0
C2011 C 0.73016 0.19693 0.21267 0.0
C2012 C 0.71547 0.20095 0.20056 0.0
C2013 C 0.71596 0.23725 0.19805 0.0
C2014 C 0.73033 0.26872 0.20773 0.0
C2015 C 0.74675 0.26433 0.21965 0.0
H2016 H 0.90242 0.61657 0.24974 0.0
H2017 H 0.98235 0.66138 0.21588 0.0
H2018 H 0.92759 0.60934 0.20159 0.0
H2019 H 0.85816 0.51171 0.24067 0.0
H2020 H 0.80911 0.49771 0.2472 0.0
H2021 H 0.85383 0.54037 0.25422 0.0
H2022 H 0.824 0.58657 0.24989 0.0
H2023 H 0.77944 0.54405 0.24266 0.0
H2024 H 0.8088 0.58999 0.23336 0.0
H2025 H 0.86297 0.54918 0.19115 0.0
H2026 H 0.79928 0.48391 0.18645 0.0
H2027 H 0.76363 0.47988 0.22739 0.0
C2028 C 0.90829 0.61568 0.23929 0.0
C2029 C 0.94653 0.64312 0.2339 0.0
C2030 C 0.95326 0.64052 0.22022 0.0
C2031 C 0.92222 0.61124 0.21202 0.0
C2032 C 0.8847 0.58454 0.21765 0.0
C2033 C 0.87796 0.58632 0.23104 0.0
C2034 C 0.83639 0.55234 0.23497 0.0
C2035 C 0.83958 0.52385 0.24485 0.0
C2036 C 0.81064 0.56927 0.24055 0.0
C2037 C 0.82045 0.53134 0.22173 0.0
C2038 C 0.84845 0.55024 0.21179 0.0
C2039 C 0.84075 0.53439 0.19887 0.0
C2040 C 0.8043 0.49751 0.19623 0.0
C2041 C 0.77623 0.47688 0.2065 0.0
C2042 C 0.78418 0.49502 0.21926 0.0
H2043 H 0.64122 0.06415 0.95303 0.0
H2044 H 0.72643 0.1157 0.92069 0.0
H2045 H 0.74052 0.18424 0.92696 0.0
H2046 H 0.59765 0.12244 0.95013 0.0
H2047 H 0.5931 0.13097 0.96748 0.0
H2048 H 0.59425 0.08647 0.96216 0.0
H2049 H 0.6551 0.10617 0.97758 0.0
H2050 H 0.65385 0.15057 0.98311 0.0
H2051 H 0.69975 0.15596 0.97636 0.0
H2052 H 0.73838 0.24346 0.93409 0.0
H2053 H 0.72424 0.29466 0.94269 0.0
H2054 H 0.64094 0.2089 0.97148 0.0
C2055 C 0.66394 0.09027 0.94766 0.0
C2056 C 0.68365 0.08522 0.93657 0.0
C2057 C 0.71197 0.11943 0.92938 0.0
C2058 C 0.72002 0.15834 0.93286 0.0
C2059 C 0.6996 0.16249 0.94361 0.0
C2060 C 0.67261 0.12973 0.9511 0.0
C2061 C 0.65308 0.14309 0.96161 0.0
C2062 C 0.60676 0.11933 0.96025 0.0
C2063 C 0.66622 0.13867 0.97549 0.0
C2064 C 0.67124 0.18778 0.95821 0.0
C2065 C 0.69849 0.19796 0.94792 0.0
C2066 C 0.7177 0.23616 0.94229 0.0
C2067 C 0.70904 0.26497 0.94722 0.0
C2068 C 0.68124 0.25591 0.95774 0.0
C2069 C 0.66249 0.21683 0.96351 0.0
H2070 H 0.97627 0.57488 0.9421 0.0
H2071 H 0.93417 0.65671 0.9319 0.0
H2072 H 0.86794 0.60997 0.94193 0.0
H2073 H 0.88553 0.48097 0.93676 0.0
H2074 H 0.88984 0.45597 0.9511 0.0
H2075 H 0.93466 0.49622 0.94346 0.0
H2076 H 0.95644 0.53532 0.96583 0.0
H2077 H 0.9115 0.49522 0.97355 0.0
H2078 H 0.92233 0.54694 0.97441 0.0
H2079 H 0.80658 0.55474 0.95163 0.0
H2080 H 0.75036 0.49161 0.96049 0.0
H2081 H 0.83023 0.44406 0.96591 0.0
C2082 C 0.95294 0.5827 0.94203 0.0
C2083 C 0.95991 0.61917 0.93621 0.0
C2084 C 0.92921 0.62896 0.93638 0.0
C2085 C 0.89162 0.60268 0.94207 0.0
C2086 C 0.88561 0.56721 0.94785 0.0
C2087 C 0.9153 0.55714 0.94803 0.0
C2088 C 0.90034 0.51703 0.95509 0.0
C2089 C 0.90272 0.48569 0.94605 0.0
C2090 C 0.92408 0.52404 0.96799 0.0
C2091 C 0.85681 0.50495 0.95801 0.0
C2092 C 0.84962 0.53505 0.95394 0.0
C2093 C 0.81185 0.53114 0.95501 0.0
C2094 C 0.78012 0.49511 0.96006 0.0
C2095 C 0.78599 0.46308 0.96396 0.0
C2096 C 0.82513 0.46838 0.96324 0.0
H2097 H 0.41839 0.34768 0.94141 0.0
H2098 H 0.48659 0.47602 0.93203 0.0
H2099 H 0.54493 0.48336 0.94483 0.0
H2100 H 0.45615 0.35618 0.97456 0.0
H2101 H 0.45734 0.30978 0.97313 0.0
H2102 H 0.42086 0.31554 0.96382 0.0
H2103 H 0.44641 0.30034 0.94194 0.0
H2104 H 0.48212 0.29346 0.9512 0.0
H2105 H 0.4995 0.32971 0.93798 0.0
H2106 H 0.5963 0.47533 0.95878 0.0
H2107 H 0.63839 0.45082 0.96892 0.0
H2108 H 0.5358 0.32779 0.96821 0.0
C2109 C 0.44554 0.37745 0.94203 0.0
C2110 C 0.4479 0.41134 0.93575 0.0
C2111 C 0.48417 0.4496 0.93672 0.0
C2112 C 0.51726 0.45409 0.94409 0.0
C2113 C 0.51352 0.42002 0.95038 0.0
C2114 C 0.47866 0.38234 0.9492 0.0
C2115 C 0.48263 0.34976 0.95609 0.0
C2116 C 0.45245 0.33176 0.96758 0.0
C2117 C 0.47739 0.31638 0.94621 0.0
C2118 C 0.5256 0.37459 0.96112 0.0
C2119 C 0.54278 0.41529 0.95805 0.0
C2120 C 0.58292 0.44361 0.96133 0.0
C2121 C 0.60648 0.42958 0.96727 0.0
C2122 C 0.58995 0.38762 0.96964 0.0
C2123 C 0.54874 0.36018 0.96687 0.0
H2124 H 0.59636 0.677 0.77156 0.0
H2125 H 0.67813 0.80758 0.77149 0.0
H2126 H 0.62842 0.81686 0.78449 0.0
H2127 H 0.50795 0.68222 0.76602 0.0
H2128 H 0.47588 0.63821 0.77584 0.0
H2129 H 0.5197 0.64257 0.76781 0.0
H2130 H 0.54542 0.63358 0.79039 0.0
H2131 H 0.50189 0.62985 0.79851 0.0
H2132 H 0.55204 0.66755 0.80396 0.0
H2133 H 0.56802 0.81096 0.79757 0.0
H2134 H 0.49949 0.79141 0.8059 0.0
H2135 H 0.45705 0.66563 0.79558 0.0
C2136 C 0.6039 0.70752 0.7744 0.0
C2137 C 0.64108 0.74159 0.77067 0.0
C2138 C 0.64966 0.78112 0.77427 0.0
C2139 C 0.62178 0.78661 0.78175 0.0
C2140 C 0.58526 0.75225 0.78532 0.0
C2141 C 0.57606 0.71354 0.78151 0.0
C2142 C 0.53338 0.68188 0.78535 0.0
C2143 C 0.50773 0.65995 0.77302 0.0
C2144 C 0.5332 0.65143 0.79514 0.0
C2145 C 0.51986 0.70865 0.79194 0.0
C2146 C 0.5503 0.74909 0.79212 0.0
C2147 C 0.54405 0.77934 0.79749 0.0
C2148 C 0.50526 0.76804 0.80231 0.0
C2149 C 0.47339 0.72707 0.80145 0.0
C2150 C 0.48118 0.69712 0.79648 0.0
H2151 H 0.34939 0.94613 0.77564 0.0
H2152 H 0.22974 0.87368 0.75844 0.0
H2153 H 0.22106 0.81291 0.76996 0.0
H2154 H 0.37741 0.87155 0.77249 0.0
H2155 H 0.40533 0.88562 0.78781 0.0
H2156 H 0.40026 0.92297 0.77881 0.0
H2157 H 0.37012 0.93764 0.79966 0.0
H2158 H 0.37444 0.89975 0.80868 0.0
H2159 H 0.32618 0.89649 0.80743 0.0
H2160 H 0.22658 0.75955 0.78316 0.0
H2161 H 0.24904 0.7173 0.79443 0.0
H2162 H 0.36545 0.82488 0.80229 0.0
C2163 C 0.32123 0.91754 0.7743 0.0
C2164 C 0.29015 0.9147 0.76615 0.0
C2165 C 0.25398 0.87659 0.76461 0.0
C2166 C 0.24869 0.842 0.7712 0.0
C2167 C 0.27985 0.84604 0.77928 0.0
C2168 C 0.31559 0.88283 0.78071 0.0
C2169 C 0.34541 0.87894 0.78932 0.0
C2170 C 0.38439 0.89042 0.78164 0.0
C2171 C 0.35457 0.90474 0.80203 0.0
C2172 C 0.32136 0.83391 0.79231 0.0
C2173 C 0.28324 0.81554 0.78667 0.0
C2174 C 0.25616 0.77376 0.78773 0.0
C2175 C 0.26892 0.75005 0.79427 0.0
C2176 C 0.30842 0.76814 0.79955 0.0
C2177 C 0.33461 0.81063 0.79874 0.0
H2178 H 0.1403 0.43221 0.75821 0.0
H2179 H 0.06442 0.38231 0.7928 0.0
H2180 H 0.1203 0.43301 0.80701 0.0
H2181 H 0.23749 0.46059 0.77315 0.0
H2182 H 0.26424 0.50764 0.76423 0.0
H2183 H 0.21997 0.46459 0.75707 0.0
H2184 H 0.18679 0.50851 0.75435 0.0
H2185 H 0.23108 0.55164 0.76138 0.0
H2186 H 0.18213 0.53472 0.76858 0.0
H2187 H 0.18342 0.49295 0.81718 0.0
H2188 H 0.245 0.55966 0.82189 0.0
H2189 H 0.27858 0.56976 0.78063 0.0
C2190 C 0.13576 0.43163 0.7688 0.0
C2191 C 0.09833 0.40342 0.77447 0.0
C2192 C 0.09299 0.40396 0.78831 0.0
C2193 C 0.12462 0.43238 0.79645 0.0
C2194 C 0.1612 0.46024 0.79055 0.0
C2195 C 0.16668 0.46028 0.77701 0.0
C2196 C 0.20712 0.49586 0.77293 0.0
C2197 C 0.23378 0.48128 0.76646 0.0
C2198 C 0.20143 0.52436 0.76377 0.0
C2199 C 0.22368 0.51577 0.78625 0.0
C2200 C 0.19704 0.49472 0.79634 0.0
C2201 C 0.20484 0.50924 0.80937 0.0
C2202 C 0.24018 0.54684 0.81205 0.0
C2203 C 0.26708 0.56933 0.80176 0.0
C2204 C 0.25896 0.55292 0.78877 0.0
H2205 H 0.34004 0.95261 0.05857 0.0
H2206 H 0.45782 0.00677 0.07725 0.0
H2207 H 0.47063 0.95743 0.06564 0.0
H2208 H 0.31622 0.85115 0.06214 0.0
H2209 H 0.28952 0.83311 0.04665 0.0
H2210 H 0.29203 0.87619 0.05498 0.0
H2211 H 0.32242 0.91898 0.03386 0.0
H2212 H 0.32057 0.87602 0.02555 0.0
H2213 H 0.36771 0.92381 0.02675 0.0
H2214 H 0.46956 0.89988 0.05302 0.0
H2215 H 0.45029 0.83262 0.04329 0.0
H2216 H 0.33184 0.81225 0.03385 0.0
C2217 C 0.36878 0.95446 0.06002 0.0
C2218 C 0.39819 0.98409 0.06869 0.0
C2219 C 0.43495 0.98474 0.0706 0.0
C2220 C 0.44264 0.95692 0.06396 0.0
C2221 C 0.41311 0.92809 0.0555 0.0
C2222 C 0.37663 0.92621 0.05367 0.0
C2223 C 0.34837 0.88946 0.04517 0.0
C2224 C 0.30924 0.86078 0.05269 0.0
C2225 C 0.33922 0.90288 0.03205 0.0
C2226 C 0.37412 0.8703 0.04289 0.0
C2227 C 0.41186 0.89382 0.04859 0.0
C2228 C 0.44033 0.88156 0.04834 0.0
C2229 C 0.42937 0.84353 0.04264 0.0
C2230 C 0.39018 0.81799 0.03739 0.0
C2231 C 0.36258 0.832 0.03728 0.0
H2232 H 0.07202 0.42524 0.05456 0.0
H2233 H 0.06946 0.47633 0.09295 0.0
H2234 H 0.12662 0.5424 0.08649 0.0
H2235 H 0.17925 0.47824 0.0508 0.0
H2236 H 0.17948 0.48802 0.0334 0.0
H2237 H 0.13648 0.44443 0.04059 0.0
H2238 H 0.08969 0.46896 0.03177 0.0
H2239 H 0.13264 0.51298 0.02466 0.0
H2240 H 0.10009 0.51931 0.03608 0.0
H2241 H 0.18438 0.60158 0.07696 0.0
H2242 H 0.24523 0.65139 0.06509 0.0
H2243 H 0.21423 0.56622 0.03226 0.0
C2244 C 0.08357 0.45044 0.06155 0.0
C2245 C 0.06601 0.44548 0.07428 0.0
C2246 C 0.08197 0.47923 0.08313 0.0
C2247 C 0.11448 0.51708 0.07955 0.0
C2248 C 0.1308 0.52124 0.06698 0.0
C2249 C 0.11625 0.48909 0.05807 0.0
C2250 C 0.14078 0.50256 0.04533 0.0
C2251 C 0.16016 0.47678 0.04236 0.0
C2252 C 0.11422 0.50084 0.03377 0.0
C2253 C 0.17249 0.54652 0.04882 0.0
C2254 C 0.16515 0.55651 0.06129 0.0
C2255 C 0.19029 0.59437 0.06713 0.0
C2256 C 0.22473 0.62254 0.06028 0.0
C2257 C 0.23418 0.61295 0.04771 0.0
C2258 C 0.20717 0.57472 0.04171 0.0
H2259 H 0.60607 0.70252 0.07291 0.0
H2260 H 0.55039 0.57132 0.07231 0.0
H2261 H 0.49254 0.56503 0.05954 0.0
H2262 H 0.51354 0.70162 0.07843 0.0
H2263 H 0.5288 0.7463 0.06869 0.0
H2264 H 0.56637 0.73967 0.07687 0.0
H2265 H 0.60243 0.74767 0.05444 0.0
H2266 H 0.56456 0.75369 0.04615 0.0
H2267 H 0.57454 0.71456 0.04074 0.0
H2268 H 0.44089 0.57416 0.04623 0.0
H2269 H 0.39571 0.59683 0.03727 0.0
H2270 H 0.48375 0.72115 0.04845 0.0
C2271 C 0.58169 0.67248 0.07006 0.0
C2272 C 0.58263 0.63739 0.07352 0.0
C2273 C 0.55001 0.59855 0.0698 0.0
C2274 C 0.51728 0.59475 0.06245 0.0
C2275 C 0.51737 0.63007 0.0591 0.0
C2276 C 0.54842 0.66812 0.06306 0.0
C2277 C 0.54006 0.70115 0.0592 0.0
C2278 C 0.53699 0.72348 0.07153 0.0
C2279 C 0.57232 0.73102 0.04956 0.0
C2280 C 0.49947 0.67592 0.05245 0.0
C2281 C 0.48709 0.63504 0.05219 0.0
C2282 C 0.4503 0.6061 0.04643 0.0
C2283 C 0.42496 0.6192 0.04127 0.0
C2284 C 0.4363 0.66065 0.04219 0.0
C2285 C 0.47438 0.68924 0.04759 0.0
H2286 H 0.07496 0.61283 0.57865 0.0
H2287 H 0.05868 0.68966 0.55131 0.0
H2288 H 0.11292 0.69367 0.5372 0.0
H2289 H 0.18006 0.66593 0.57763 0.0
H2290 H 0.18534 0.62183 0.57845 0.0
H2291 H 0.14139 0.62013 0.58537 0.0
H2292 H 0.09536 0.55669 0.57073 0.0
H2293 H 0.13941 0.55858 0.56365 0.0
H2294 H 0.10241 0.55948 0.55307 0.0
H2295 H 0.17154 0.69254 0.52651 0.0
H2296 H 0.23575 0.69429 0.522 0.0
H2297 H 0.21725 0.62254 0.55692 0.0
C2298 C 0.0824 0.62991 0.56958 0.0
C2299 C 0.06236 0.65073 0.56607 0.0
C2300 C 0.0735 0.67337 0.55423 0.0
C2301 C 0.1041 0.67559 0.54606 0.0
C2302 C 0.1235 0.655 0.54982 0.0
C2303 C 0.11332 0.63285 0.56135 0.0
C2304 C 0.14148 0.61683 0.56372 0.0
C2305 C 0.16337 0.63211 0.57709 0.0
C2306 C 0.11828 0.57011 0.56274 0.0
C2307 C 0.17039 0.63541 0.5522 0.0
C2308 C 0.15854 0.65595 0.54399 0.0
C2309 C 0.18096 0.67629 0.53282 0.0
C2310 C 0.21723 0.67693 0.53028 0.0
C2311 C 0.23119 0.6584 0.53908 0.0
C2312 C 0.20695 0.63662 0.54998 0.0
H2313 H 0.40206 0.48624 0.58628 0.0
H2314 H 0.38366 0.41156 0.55137 0.0
H2315 H 0.38599 0.46486 0.53732 0.0
H2316 H 0.33714 0.52057 0.57585 0.0
H2317 H 0.36698 0.57104 0.58285 0.0
H2318 H 0.36881 0.52928 0.59005 0.0
H2319 H 0.44686 0.56849 0.58713 0.0
H2320 H 0.44503 0.61028 0.57987 0.0
H2321 H 0.46818 0.58631 0.57097 0.0
H2322 H 0.38704 0.52528 0.527 0.0
H2323 H 0.38042 0.58476 0.52176 0.0
H2324 H 0.39497 0.61835 0.56338 0.0
C2325 C 0.39923 0.48154 0.57566 0.0
C2326 C 0.39287 0.44487 0.5699 0.0
C2327 C 0.38842 0.4394 0.556 0.0
C2328 C 0.38997 0.46962 0.54791 0.0
C2329 C 0.39567 0.50522 0.55385 0.0
C2330 C 0.39991 0.51121 0.56742 0.0
C2331 C 0.40193 0.55057 0.57138 0.0
C2332 C 0.36661 0.54236 0.58057 0.0
C2333 C 0.44295 0.58069 0.57772 0.0
C2334 C 0.39762 0.56531 0.558 0.0
C2335 C 0.39477 0.53919 0.54796 0.0
C2336 C 0.38946 0.5461 0.53479 0.0
C2337 C 0.38593 0.58006 0.53188 0.0
C2338 C 0.38715 0.60625 0.54212 0.0
C2339 C 0.39393 0.59899 0.55528 0.0
H2340 H 0.57885 0.9966 0.56452 0.0
H2341 H 0.66017 0.94986 0.56693 0.0
H2342 H 0.60837 0.88516 0.55674 0.0
H2343 H 0.48688 0.90637 0.57145 0.0
H2344 H 0.45696 0.91317 0.55924 0.0
H2345 H 0.50095 0.95683 0.56621 0.0
H2346 H 0.52986 0.98007 0.5427 0.0
H2347 H 0.486 0.93618 0.53565 0.0
H2348 H 0.5359 0.94571 0.53188 0.0
H2349 H 0.54825 0.82499 0.54731 0.0
H2350 H 0.48084 0.77055 0.53994 0.0
H2351 H 0.4361 0.85375 0.54302 0.0
C2352 C 0.58561 0.97269 0.56283 0.0
C2353 C 0.62363 0.97826 0.56648 0.0
C2354 C 0.63152 0.94645 0.56406 0.0
C2355 C 0.60226 0.90955 0.55828 0.0
C2356 C 0.56535 0.90502 0.55466 0.0
C2357 C 0.55682 0.93563 0.55673 0.0
C2358 C 0.51444 0.92223 0.55178 0.0
C2359 C 0.48826 0.92479 0.56284 0.0
C2360 C 0.51668 0.94756 0.5398 0.0
C2361 C 0.49957 0.87838 0.5476 0.0
C2362 C 0.53012 0.86978 0.54899 0.0
C2363 C 0.52425 0.8315 0.546 0.0
C2364 C 0.48596 0.80084 0.54174 0.0
C2365 C 0.45369 0.80824 0.54064 0.0
C2366 C 0.4606 0.84767 0.54347 0.0
H2367 H 0.33985 0.43619 0.25758 0.0
H2368 H 0.30545 0.35931 0.29196 0.0
H2369 H 0.29893 0.41111 0.30505 0.0
H2370 H 0.40179 0.52968 0.27627 0.0
H2371 H 0.38987 0.55945 0.26562 0.0
H2372 H 0.38997 0.51545 0.2591 0.0
H2373 H 0.31606 0.48535 0.25095 0.0
H2374 H 0.31577 0.52922 0.25749 0.0
H2375 H 0.27762 0.47893 0.2626 0.0
H2376 H 0.29608 0.47327 0.31428 0.0
H2377 H 0.30159 0.54004 0.3188 0.0
H2378 H 0.34066 0.57504 0.27832 0.0
C2379 C 0.33072 0.43024 0.26785 0.0
C2380 C 0.32283 0.39381 0.27378 0.0
C2381 C 0.31171 0.38725 0.28729 0.0
C2382 C 0.3078 0.4164 0.29476 0.0
C2383 C 0.31598 0.4523 0.28864 0.0
C2384 C 0.32782 0.45942 0.27552 0.0
C2385 C 0.33734 0.50119 0.2714 0.0
C2386 C 0.38241 0.52802 0.26789 0.0
C2387 C 0.31005 0.49848 0.25993 0.0
C2388 C 0.32748 0.51593 0.28402 0.0
C2389 C 0.31541 0.48767 0.29395 0.0
C2390 C 0.30553 0.49557 0.30654 0.0
C2391 C 0.30858 0.53349 0.30903 0.0
C2392 C 0.32126 0.56285 0.29894 0.0
C2393 C 0.3305 0.5534 0.2863 0.0
H2394 H 0.62868 0.94559 0.28527 0.0
H2395 H 0.62015 0.89357 0.24613 0.0
H2396 H 0.56154 0.82916 0.25316 0.0
H2397 H 0.59898 0.84988 0.30278 0.0
H2398 H 0.57052 0.85808 0.31539 0.0
H2399 H 0.61325 0.90098 0.30771 0.0
H2400 H 0.56814 0.92981 0.30097 0.0
H2401 H 0.52543 0.88747 0.30877 0.0
H2402 H 0.52254 0.8981 0.29163 0.0
H2403 H 0.50445 0.77157 0.2635 0.0
H2404 H 0.44515 0.72374 0.27641 0.0
H2405 H 0.48651 0.80912 0.30948 0.0
C2406 C 0.61422 0.92058 0.27823 0.0
C2407 C 0.62906 0.9246 0.26513 0.0
C2408 C 0.60961 0.89116 0.25622 0.0
C2409 C 0.57631 0.85431 0.26012 0.0
C2410 C 0.56284 0.85088 0.27307 0.0
C2411 C 0.58076 0.88287 0.28204 0.0
C2412 C 0.559 0.87021 0.2953 0.0
C2413 C 0.58712 0.86979 0.30593 0.0
C2414 C 0.5428 0.89805 0.2994 0.0
C2415 C 0.52485 0.82706 0.29206 0.0
C2416 C 0.52877 0.81657 0.27924 0.0
C2417 C 0.50115 0.77918 0.27359 0.0
C2418 C 0.46767 0.75211 0.28104 0.0
C2419 C 0.46157 0.76243 0.29398 0.0
C2420 C 0.49104 0.80007 0.29974 0.0
H2421 H 0.08865 0.67765 0.27421 0.0
H2422 H 0.15471 0.80726 0.26679 0.0
H2423 H 0.21351 0.8143 0.27913 0.0
H2424 H 0.12748 0.68091 0.30693 0.0
H2425 H 0.13056 0.63592 0.30418 0.0
H2426 H 0.09306 0.64184 0.29558 0.0
H2427 H 0.11969 0.63216 0.27305 0.0
H2428 H 0.15669 0.62546 0.28158 0.0
H2429 H 0.17259 0.66402 0.26915 0.0
H2430 H 0.26584 0.80626 0.2924 0.0
H2431 H 0.30929 0.78238 0.30193 0.0
H2432 H 0.20934 0.65804 0.29939 0.0
C2433 C 0.11539 0.70759 0.27524 0.0
C2434 C 0.117 0.74197 0.26962 0.0
C2435 C 0.15283 0.78049 0.271 0.0
C2436 C 0.18624 0.78481 0.27809 0.0
C2437 C 0.1835 0.75025 0.28363 0.0
C2438 C 0.14914 0.71229 0.28204 0.0
C2439 C 0.15465 0.67937 0.28798 0.0
C2440 C 0.12465 0.65827 0.29935 0.0
C2441 C 0.1507 0.64845 0.2773 0.0
C2442 C 0.19759 0.70451 0.29308 0.0
C2443 C 0.21363 0.74548 0.29075 0.0
C2444 C 0.2534 0.77427 0.29433 0.0
C2445 C 0.27776 0.76058 0.29991 0.0
C2446 C 0.26235 0.71852 0.30165 0.0
C2447 C 0.22154 0.69046 0.29845 0.0
loop_
_geom_bond_atom_site_label_1
_geom_bond_atom_site_label_2
_geom_bond_distance
_geom_bond_site_symmetry_2
_ccdc_geom_bond_type
Co0 O1 2.216 . S
Co0 O2 2.091 . S
Co0 O4 2.004 . S
Co0 O10 2.021 . S
Co0 O12 2.137 . S
Co0 O13 2.244 1_545 S
O1 Co0 2.216 . S
O1 C8 1.247 . S
O2 Co0 2.091 . S
O2 C8 1.261 . S
C3 O12 1.247 1_565 S
C3 O13 1.272 . S
O4 Co0 2.004 . S
O4 C9 1.259 . S
Co5 O6 2.061 . S
Co5 O11 2.052 . S
Co5 O13 2.135 . S
O6 Co5 2.061 . S
O6 C9 1.235 1_565 S
C7 O10 1.238 . S
C7 O11 1.241 1_545 S
C8 O1 1.247 . S
C8 O2 1.261 . S
C9 O4 1.259 . S
C9 O6 1.235 1_545 S
O10 Co0 2.021 . S
O10 C7 1.238 . S
O11 Co5 2.052 . S
O11 C7 1.241 1_565 S
O12 Co0 2.137 . S
O12 C3 1.247 1_545 S
O13 Co0 2.244 1_565 S
O13 C3 1.272 . S
O13 Co5 2.135 . S
Co14 O15 2.216 . S
Co14 O16 2.091 . S
Co14 O18 2.004 . S
Co14 O24 2.021 . S
Co14 O26 2.137 . S
Co14 O27 2.244 1_455 S
O15 Co14 2.216 . S
O15 C22 1.247 . S
O16 Co14 2.091 . S
O16 C22 1.261 . S
C17 O26 1.216 1_655 S
C17 O27 1.272 . S
O18 Co14 2.004 . S
O18 C23 1.259 . S
Co19 O20 2.061 . S
Co19 O25 2.052 . S
Co19 O27 2.135 . S
O20 Co19 2.061 . S
O20 C23 1.235 1_655 S
C21 O24 1.238 . S
C21 O25 1.241 1_455 S
C22 O15 1.247 . S
C22 O16 1.261 . S
C23 O18 1.259 . S
C23 O20 1.235 1_455 S
O24 Co14 2.021 . S
O24 C21 1.238 . S
O25 Co19 2.052 . S
O25 C21 1.241 1_655 S
O26 Co14 2.137 . S
O26 C17 1.216 1_455 S
O27 Co14 2.244 1_655 S
O27 C17 1.272 . S
O27 Co19 2.135 . S
Co28 O29 2.216 . S
Co28 O30 2.091 . S
Co28 O32 2.004 . S
Co28 O38 2.021 . S
Co28 O40 2.137 . S
Co28 O41 2.244 . S
O29 Co28 2.216 . S
O29 C36 1.247 . S
O30 Co28 2.091 . S
O30 C36 1.261 . S
C31 O40 1.247 . S
C31 O41 1.272 . S
O32 Co28 2.004 . S
O32 C37 1.259 . S
Co33 O34 2.061 . S
Co33 O39 2.052 . S
Co33 O41 2.135 . S
O34 Co33 2.061 . S
O34 C37 1.235 . S
C35 O38 1.238 . S
C35 O39 1.241 . S
C36 O29 1.247 . S
C36 O30 1.261 . S
C37 O32 1.259 . S
C37 O34 1.235 . S
O38 Co28 2.021 . S
O38 C35 1.238 . S
O39 Co33 2.052 . S
O39 C35 1.241 . S
O40 Co28 2.137 . S
O40 C31 1.247 . S
O41 Co28 2.244 . S
O41 C31 1.272 . S
O41 Co33 2.135 . S
Co42 O43 2.212 1_545 S
Co42 O44 2.091 1_545 S
Co42 O46 2.004 . S
Co42 O52 2.021 . S
Co42 O54 2.137 . S
Co42 O55 2.244 . S
O43 Co42 2.212 1_565 S
O43 C50 1.253 . S
O44 Co42 2.091 1_565 S
O44 C50 1.261 . S
C45 O54 1.247 . S
C45 O55 1.272 . S
O46 Co42 2.004 . S
O46 C51 1.259 . S
Co47 O48 2.061 . S
Co47 O53 2.052 . S
Co47 O55 2.135 . S
O48 Co47 2.061 . S
O48 C51 1.235 . S
C49 O52 1.238 . S
C49 O53 1.241 . S
C50 O43 1.253 . S
C50 O44 1.261 . S
C51 O46 1.259 . S
C51 O48 1.235 . S
O52 Co42 2.021 . S
O52 C49 1.238 . S
O53 Co47 2.052 . S
O53 C49 1.241 . S
O54 Co42 2.137 . S
O54 C45 1.247 . S
O55 Co42 2.244 . S
O55 C45 1.272 . S
O55 Co47 2.135 . S
Co56 O57 2.216 1_455 S
Co56 O58 2.091 1_455 S
Co56 O60 2.008 1_455 S
Co56 O66 2.021 . S
Co56 O68 2.137 . S
Co56 O69 2.244 . S
O57 Co56 2.216 1_655 S
O57 C64 1.247 . S
O58 Co56 2.091 1_655 S
O58 C64 1.261 . S
C59 O68 1.247 . S
C59 O69 1.272 . S
O60 Co56 2.008 1_655 S
O60 C65 1.242 1_655 S
Co61 O62 2.061 . S
Co61 O67 2.052 . S
Co61 O69 2.135 . S
O62 Co61 2.061 . S
O62 C65 1.235 . S
C63 O66 1.238 . S
C63 O67 1.241 . S
C64 O57 1.247 . S
C64 O58 1.261 . S
C65 O60 1.242 1_455 S
C65 O62 1.235 . S
O66 Co56 2.021 . S
O66 C63 1.238 . S
O67 Co61 2.052 . S
O67 C63 1.241 . S
O68 Co56 2.137 . S
O68 C59 1.247 . S
O69 Co56 2.244 . S
O69 C59 1.272 . S
O69 Co61 2.135 . S
Co70 O71 2.216 . S
Co70 O72 2.091 . S
Co70 O74 2.004 . S
Co70 O80 2.021 . S
Co70 O82 2.137 . S
Co70 O83 2.244 . S
O71 Co70 2.216 . S
O71 C78 1.247 . S
O72 Co70 2.091 . S
O72 C78 1.261 . S
C73 O82 1.247 . S
C73 O83 1.272 . S
O74 Co70 2.004 . S
O74 C79 1.259 . S
Co75 O76 2.061 . S
Co75 O81 2.052 . S
Co75 O83 2.135 . S
O76 Co75 2.061 . S
O76 C79 1.235 . S
C77 O80 1.238 . S
C77 O81 1.241 . S
C78 O71 1.247 . S
C78 O72 1.261 . S
C79 O74 1.259 . S
C79 O76 1.235 . S
O80 Co70 2.021 . S
O80 C77 1.238 . S
O81 Co75 2.052 . S
O81 C77 1.241 . S
O82 Co70 2.137 . S
O82 C73 1.247 . S
O83 Co70 2.244 . S
O83 C73 1.272 . S
O83 Co75 2.135 . S
Co84 O85 2.216 . S
Co84 O86 2.091 . S
Co84 O88 2.004 . S
Co84 O94 2.021 . S
Co84 O96 2.137 . S
Co84 O97 2.244 . S
O85 Co84 2.216 . S
O85 C92 1.247 . S
O86 Co84 2.091 . S
O86 C92 1.261 . S
C87 O96 1.247 . S
C87 O97 1.272 . S
O88 Co84 2.004 . S
O88 C93 1.259 . S
Co89 O90 2.061 . S
Co89 O95 2.052 . S
Co89 O97 2.135 . S
O90 Co89 2.061 . S
O90 C93 1.235 . S
C91 O94 1.238 . S
C91 O95 1.241 . S
C92 O85 1.247 . S
C92 O86 1.261 . S
C93 O88 1.259 . S
C93 O90 1.235 . S
O94 Co84 2.021 . S
O94 C91 1.238 . S
O95 Co89 2.052 . S
O95 C91 1.241 . S
O96 Co84 2.137 . S
O96 C87 1.247 . S
O97 Co84 2.244 . S
O97 C87 1.272 . S
O97 Co89 2.135 . S
Co98 O99 2.216 . S
Co98 O100 2.091 . S
Co98 O102 2.004 . S
Co98 O108 2.021 . S
Co98 O110 2.137 . S
Co98 O111 2.244 . S
O99 Co98 2.216 . S
O99 C106 1.247 . S
O100 Co98 2.091 . S
O100 C106 1.261 . S
C101 O110 1.247 . S
C101 O111 1.272 . S
O102 Co98 2.004 . S
O102 C107 1.259 . S
Co103 O104 2.061 . S
Co103 O109 2.052 . S
Co103 O111 2.135 . S
O104 Co103 2.061 . S
O104 C107 1.235 . S
C105 O108 1.238 . S
C105 O109 1.241 . S
C106 O99 1.247 . S
C106 O100 1.261 . S
C107 O102 1.259 . S
C107 O104 1.235 . S
O108 Co98 2.021 . S
O108 C105 1.238 . S
O109 Co103 2.052 . S
O109 C105 1.241 . S
O110 Co98 2.137 . S
O110 C101 1.247 . S
O111 Co98 2.244 . S
O111 C101 1.272 . S
O111 Co103 2.135 . S
Co112 O113 2.216 1_655 S
Co112 O114 2.091 1_655 S
Co112 O116 2.004 . S
Co112 O122 2.021 . S
Co112 O124 2.137 1_655 S
Co112 O125 2.244 . S
O113 Co112 2.216 1_455 S
O113 C120 1.247 . S
O114 Co112 2.091 1_455 S
O114 C120 1.261 . S
C115 O124 1.247 1_655 S
C115 O125 1.272 . S
O116 Co112 2.004 . S
O116 C121 1.259 . S
Co117 O118 2.061 . S
Co117 O123 2.052 . S
Co117 O125 2.135 . S
O118 Co117 2.061 . S
O118 C121 1.235 . S
C119 O122 1.238 . S
C119 O123 1.241 . S
C120 O113 1.247 . S
C120 O114 1.261 . S
C121 O116 1.259 . S
C121 O118 1.235 . S
O122 Co112 2.021 . S
O122 C119 1.238 . S
O123 Co117 2.052 . S
O123 C119 1.241 . S
O124 Co112 2.137 1_455 S
O124 C115 1.247 1_455 S
O125 Co112 2.244 . S
O125 C115 1.272 . S
O125 Co117 2.135 . S
Co126 O127 2.199 1_655 S
Co126 O128 2.091 . S
Co126 O130 2.004 . S
Co126 O136 2.021 . S
Co126 O138 2.137 1_655 S
Co126 O139 2.244 1_655 S
O127 Co126 2.199 1_455 S
O127 C134 1.247 1_455 S
O128 Co126 2.091 . S
O128 C134 1.261 . S
C129 O138 1.247 . S
C129 O139 1.272 . S
O130 Co126 2.004 . S
O130 C135 1.259 . S
Co131 O132 2.061 . S
Co131 O137 2.052 . S
Co131 O139 2.135 1_655 S
O132 Co131 2.061 . S
O132 C135 1.235 . S
C133 O136 1.238 . S
C133 O137 1.241 . S
C134 O127 1.247 1_655 S
C134 O128 1.261 . S
C135 O130 1.259 . S
C135 O132 1.235 . S
O136 Co126 2.021 . S
O136 C133 1.238 . S
O137 Co131 2.052 . S
O137 C133 1.241 . S
O138 Co126 2.137 1_455 S
O138 C129 1.247 . S
O139 Co126 2.244 1_455 S
O139 C129 1.272 . S
O139 Co131 2.135 1_455 S
Co140 O141 2.216 . S
Co140 O142 2.091 . S
Co140 O144 2.004 . S
Co140 O150 2.021 . S
Co140 O152 2.137 . S
Co140 O153 2.244 . S
O141 Co140 2.216 . S
O141 C148 1.247 . S
O142 Co140 2.091 . S
O142 C148 1.261 . S
C143 O152 1.247 . S
C143 O153 1.272 . S
O144 Co140 2.004 . S
O144 C149 1.259 . S
Co145 O146 2.061 . S
Co145 O151 2.052 . S
Co145 O153 2.135 . S
O146 Co145 2.061 . S
O146 C149 1.235 . S
C147 O150 1.238 . S
C147 O151 1.241 . S
C148 O141 1.247 . S
C148 O142 1.261 . S
C149 O144 1.259 . S
C149 O146 1.235 . S
O150 Co140 2.021 . S
O150 C147 1.238 . S
O151 Co145 2.052 . S
O151 C147 1.241 . S
O152 Co140 2.137 . S
O152 C143 1.247 . S
O153 Co140 2.244 . S
O153 C143 1.272 . S
O153 Co145 2.135 . S
Co154 O155 2.216 . S
Co154 O156 2.091 . S
Co154 O158 2.004 . S
Co154 O164 2.021 . S
Co154 O166 2.137 . S
Co154 O167 2.244 . S
O155 Co154 2.216 . S
O155 C162 1.247 . S
O156 Co154 2.091 . S
O156 C162 1.261 . S
C157 O166 1.247 . S
C157 O167 1.272 . S
O158 Co154 2.004 . S
O158 C163 1.259 . S
Co159 O160 2.061 . S
Co159 O165 2.052 . S
Co159 O167 2.135 . S
O160 Co159 2.061 . S
O160 C163 1.235 . S
C161 O164 1.238 . S
C161 O165 1.241 . S
C162 O155 1.247 . S
C162 O156 1.261 . S
C163 O158 1.259 . S
C163 O160 1.235 . S
O164 Co154 2.021 . S
O164 C161 1.238 . S
O165 Co159 2.052 . S
O165 C161 1.241 . S
O166 Co154 2.137 . S
O166 C157 1.247 . S
O167 Co154 2.244 . S
O167 C157 1.272 . S
O167 Co159 2.135 . S
Co168 O169 2.216 . S
Co168 O170 2.091 . S
Co168 O172 2.004 . S
Co168 O178 2.021 . S
Co168 O180 2.137 . S
Co168 O181 2.244 . S
O169 Co168 2.216 . S
O169 C176 1.247 . S
O170 Co168 2.091 . S
O170 C176 1.261 . S
C171 O180 1.247 . S
C171 O181 1.272 . S
O172 Co168 2.004 . S
O172 C177 1.259 . S
Co173 O174 2.061 . S
Co173 O179 2.052 . S
Co173 O181 2.135 . S
O174 Co173 2.061 . S
O174 C177 1.235 . S
C175 O178 1.238 . S
C175 O179 1.241 . S
C176 O169 1.247 . S
C176 O170 1.261 . S
C177 O172 1.259 . S
C177 O174 1.235 . S
O178 Co168 2.021 . S
O178 C175 1.238 . S
O179 Co173 2.052 . S
O179 C175 1.241 . S
O180 Co168 2.137 . S
O180 C171 1.247 . S
O181 Co168 2.244 . S
O181 C171 1.272 . S
O181 Co173 2.135 . S
Co182 O183 2.216 . S
Co182 O184 2.091 . S
Co182 O186 2.004 . S
Co182 O192 2.021 . S
Co182 O194 2.137 . S
Co182 O195 2.244 . S
O183 Co182 2.216 . S
O183 C190 1.247 . S
O184 Co182 2.091 . S
O184 C190 1.261 . S
C185 O194 1.247 . S
C185 O195 1.272 . S
O186 Co182 2.004 . S
O186 C191 1.259 . S
Co187 O188 2.061 . S
Co187 O193 2.052 . S
Co187 O195 2.135 . S
O188 Co187 2.061 . S
O188 C191 1.235 . S
C189 O192 1.238 . S
C189 O193 1.241 . S
C190 O183 1.247 . S
C190 O184 1.261 . S
C191 O186 1.259 . S
C191 O188 1.235 . S
O192 Co182 2.021 . S
O192 C189 1.238 . S
O193 Co187 2.052 . S
O193 C189 1.241 . S
O194 Co182 2.137 . S
O194 C185 1.247 . S
O195 Co182 2.244 . S
O195 C185 1.272 . S
O195 Co187 2.135 . S
Co196 O197 2.216 1_565 S
Co196 O198 2.091 . S
Co196 O200 2.004 . S
Co196 O206 2.021 . S
Co196 O208 2.137 1_565 S
Co196 O209 2.244 1_565 S
O197 Co196 2.216 1_545 S
O197 C204 1.247 1_545 S
O198 Co196 2.091 . S
O198 C204 1.261 . S
C199 O208 1.247 . S
C199 O209 1.272 . S
O200 Co196 2.004 . S
O200 C205 1.259 . S
Co201 O202 2.061 . S
Co201 O207 2.052 . S
Co201 O209 2.135 1_565 S
O202 Co201 2.061 . S
O202 C205 1.235 . S
C203 O206 1.238 . S
C203 O207 1.241 . S
C204 O197 1.247 1_565 S
C204 O198 1.261 . S
C205 O200 1.259 . S
C205 O202 1.235 . S
O206 Co196 2.021 . S
O206 C203 1.238 . S
O207 Co201 2.052 . S
O207 C203 1.241 . S
O208 Co196 2.137 1_545 S
O208 C199 1.247 . S
O209 Co196 2.244 1_545 S
O209 C199 1.272 . S
O209 Co201 2.135 1_545 S
Co210 O211 2.216 . S
Co210 O212 2.091 . S
Co210 O214 2.004 . S
Co210 O220 2.021 . S
Co210 O222 2.137 . S
Co210 O223 2.244 . S
O211 Co210 2.216 . S
O211 C218 1.247 . S
O212 Co210 2.091 . S
O212 C218 1.261 . S
C213 O222 1.247 . S
C213 O223 1.272 . S
O214 Co210 2.004 . S
O214 C219 1.259 . S
Co215 O216 2.061 . S
Co215 O221 2.052 . S
Co215 O223 2.135 . S
O216 Co215 2.061 . S
O216 C219 1.235 . S
C217 O220 1.238 . S
C217 O221 1.241 . S
C218 O211 1.247 . S
C218 O212 1.261 . S
C219 O214 1.259 . S
C219 O216 1.235 . S
O220 Co210 2.021 . S
O220 C217 1.238 . S
O221 Co215 2.052 . S
O221 C217 1.241 . S
O222 Co210 2.137 . S
O222 C213 1.247 . S
O223 Co210 2.244 . S
O223 C213 1.272 . S
O223 Co215 2.135 . S
Co224 O225 2.216 1_565 S
Co224 O226 2.091 . S
Co224 O228 2.004 . S
Co224 O234 2.021 . S
Co224 O236 2.137 1_565 S
Co224 O237 2.244 1_565 S
O225 Co224 2.216 1_545 S
O225 C232 1.247 1_545 S
O226 Co224 2.091 . S
O226 C232 1.261 . S
C227 O236 1.247 . S
C227 O237 1.272 . S
O228 Co224 2.004 . S
O228 C233 1.259 . S
Co229 O230 2.061 . S
Co229 O235 2.052 . S
Co229 O237 2.135 1_565 S
O230 Co229 2.061 . S
O230 C233 1.235 . S
C231 O234 1.238 . S
C231 O235 1.241 . S
C232 O225 1.247 1_565 S
C232 O226 1.261 . S
C233 O228 1.259 . S
C233 O230 1.235 . S
O234 Co224 2.021 . S
O234 C231 1.238 . S
O235 Co229 2.052 . S
O235 C231 1.241 . S
O236 Co224 2.137 1_545 S
O236 C227 1.247 . S
O237 Co224 2.244 1_545 S
O237 C227 1.272 . S
O237 Co229 2.135 1_545 S
Co238 O239 2.216 . S
Co238 O240 2.091 . S
Co238 O242 2.004 . S
Co238 O248 2.021 . S
Co238 O250 2.137 . S
Co238 O251 2.244 . S
O239 Co238 2.216 . S
O239 C246 1.247 1_455 S
O240 Co238 2.091 . S
O240 C246 1.261 1_455 S
C241 O250 1.247 . S
C241 O251 1.272 . S
O242 Co238 2.004 . S
O242 C247 1.259 . S
Co243 O244 2.061 . S
Co243 O249 2.052 . S
Co243 O251 2.135 . S
O244 Co243 2.061 . S
O244 C247 1.235 . S
C245 O248 1.238 . S
C245 O249 1.241 . S
C246 O239 1.247 1_655 S
C246 O240 1.261 1_655 S
C247 O242 1.259 . S
C247 O244 1.235 . S
O248 Co238 2.021 . S
O248 C245 1.238 . S
O249 Co243 2.052 . S
O249 C245 1.241 . S
O250 Co238 2.137 . S
O250 C241 1.247 . S
O251 Co238 2.244 . S
O251 C241 1.272 . S
O251 Co243 2.135 . S
Zn252 O258 1.920 1_455 S
Zn252 O264 1.898 1_445 S
Zn252 O267 1.905 . S
Zn253 O261 1.905 1_445 S
Zn253 O262 1.898 . S
Zn253 O270 1.920 1_455 S
Zn254 O257 2.080 . S
Zn254 O260 2.114 1_545 S
Zn254 O263 2.120 . S
Zn254 O265 2.120 1_445 S
Zn254 O266 2.114 . S
Zn254 O269 2.080 1_455 S
C255 O260 1.166 . S
C255 O261 1.182 1_455 S
C256 O262 1.167 . S
C256 O263 1.299 . S
O257 Zn254 2.080 . S
O257 C271 1.305 1_455 S
O258 Zn252 1.920 1_655 S
O258 C271 1.234 . S
C259 O264 1.167 . S
C259 O265 1.299 . S
O260 Zn254 2.114 1_565 S
O260 C255 1.166 . S
O261 Zn253 1.905 1_665 S
O261 C255 1.182 1_655 S
O262 Zn253 1.898 . S
O262 C256 1.167 . S
O263 Zn254 2.120 . S
O263 C256 1.299 . S
O264 Zn252 1.898 1_665 S
O264 C259 1.167 . S
O265 Zn254 2.120 1_665 S
O265 C259 1.299 . S
O266 Zn254 2.114 . S
O266 C268 1.166 . S
O267 Zn252 1.905 . S
O267 C268 1.182 . S
C268 O266 1.166 . S
C268 O267 1.182 . S
O269 Zn254 2.080 1_655 S
O269 C272 1.305 . S
O270 Zn253 1.920 1_655 S
O270 C272 1.234 . S
C271 O257 1.305 1_655 S
C271 O258 1.234 . S
C272 O269 1.305 . S
C272 O270 1.234 . S
Zn273 O279 1.920 1_545 S
Zn273 O285 1.898 . S
Zn273 O288 1.905 1_455 S
Zn274 O282 1.905 . S
Zn274 O283 1.898 1_445 S
Zn274 O291 1.920 1_545 S
Zn275 O278 2.080 1_545 S
Zn275 O281 2.114 . S
Zn275 O284 2.120 1_445 S
Zn275 O286 2.120 . S
Zn275 O287 2.114 1_455 S
Zn275 O290 2.080 . S
C276 O281 1.166 . S
C276 O282 1.182 . S
C277 O283 1.167 . S
C277 O284 1.299 . S
O278 Zn275 2.080 1_565 S
O278 C292 1.305 . S
O279 Zn273 1.920 1_565 S
O279 C292 1.234 . S
C280 O285 1.167 . S
C280 O286 1.299 . S
O281 Zn275 2.114 . S
O281 C276 1.166 . S
O282 Zn274 1.905 . S
O282 C276 1.182 . S
O283 Zn274 1.898 1_665 S
O283 C277 1.167 . S
O284 Zn275 2.120 1_665 S
O284 C277 1.299 . S
O285 Zn273 1.898 . S
O285 C280 1.167 . S
O286 Zn275 2.120 . S
O286 C280 1.299 . S
O287 Zn275 2.114 1_655 S
O287 C289 1.166 . S
O288 Zn273 1.905 1_655 S
O288 C289 1.182 . S
C289 O287 1.166 . S
C289 O288 1.182 . S
O290 Zn275 2.080 . S
O290 C293 1.305 . S
O291 Zn274 1.920 1_565 S
O291 C293 1.234 1_565 S
C292 O278 1.305 . S
C292 O279 1.234 . S
C293 O290 1.305 . S
C293 O291 1.234 1_545 S
Zn294 O300 1.920 1_545 S
Zn294 O306 1.898 . S
Zn294 O309 1.903 1_455 S
Zn295 O303 1.905 . S
Zn295 O304 1.898 1_445 S
Zn295 O312 1.920 . S
Zn296 O299 2.080 1_545 S
Zn296 O302 2.114 . S
Zn296 O305 2.120 1_445 S
Zn296 O307 2.120 . S
Zn296 O308 2.114 1_455 S
Zn296 O311 2.080 . S
C297 O302 1.166 . S
C297 O303 1.182 . S
C298 O304 1.167 . S
C298 O305 1.299 . S
O299 Zn296 2.080 1_565 S
O299 C313 1.305 . S
O300 Zn294 1.920 1_565 S
O300 C313 1.234 . S
C301 O306 1.167 . S
C301 O307 1.299 . S
O302 Zn296 2.114 . S
O302 C297 1.166 . S
O303 Zn295 1.905 . S
O303 C297 1.182 . S
O304 Zn295 1.898 1_665 S
O304 C298 1.167 . S
O305 Zn296 2.120 1_665 S
O305 C298 1.299 . S
O306 Zn294 1.898 . S
O306 C301 1.167 . S
O307 Zn296 2.120 . S
O307 C301 1.299 . S
O308 Zn296 2.114 1_655 S
O308 C310 1.166 . S
O309 Zn294 1.903 1_655 S
O309 C310 1.188 . S
C310 O308 1.166 . S
C310 O309 1.188 . S
O311 Zn296 2.080 . S
O311 C314 1.305 . S
O312 Zn295 1.920 . S
O312 C314 1.234 . S
C313 O299 1.305 . S
C313 O300 1.234 . S
C314 O311 1.305 . S
C314 O312 1.234 . S
Zn315 O321 1.920 . S
Zn315 O327 1.898 1_445 S
Zn315 O330 1.905 . S
Zn316 O324 1.905 1_445 S
Zn316 O325 1.898 . S
Zn316 O333 1.920 1_455 S
Zn317 O320 2.080 . S
Zn317 O323 2.114 1_545 S
Zn317 O326 2.120 . S
Zn317 O328 2.120 1_445 S
Zn317 O329 2.114 . S
Zn317 O332 2.080 1_455 S
C318 O323 1.166 . S
C318 O324 1.182 1_455 S
C319 O325 1.167 . S
C319 O326 1.299 . S
O320 Zn317 2.080 . S
O320 C334 1.305 . S
O321 Zn315 1.920 . S
O321 C334 1.234 . S
C322 O327 1.167 . S
C322 O328 1.299 . S
O323 Zn317 2.114 1_565 S
O323 C318 1.166 . S
O324 Zn316 1.905 1_665 S
O324 C318 1.182 1_655 S
O325 Zn316 1.898 . S
O325 C319 1.167 . S
O326 Zn317 2.120 . S
O326 C319 1.299 . S
O327 Zn315 1.898 1_665 S
O327 C322 1.167 . S
O328 Zn317 2.120 1_665 S
O328 C322 1.299 . S
O329 Zn317 2.114 . S
O329 C331 1.166 . S
O330 Zn315 1.905 . S
O330 C331 1.182 . S
C331 O329 1.166 . S
C331 O330 1.182 . S
O332 Zn317 2.080 1_655 S
O332 C335 1.305 . S
O333 Zn316 1.920 1_655 S
O333 C335 1.234 . S
C334 O320 1.305 . S
C334 O321 1.234 . S
C335 O332 1.305 . S
C335 O333 1.234 . S
Zn336 O342 1.920 . S
Zn336 O348 1.898 . S
Zn336 O351 1.905 . S
Zn337 O345 1.905 . S
Zn337 O346 1.898 . S
Zn337 O354 1.920 . S
Zn338 O341 2.080 . S
Zn338 O344 2.114 . S
Zn338 O347 2.120 . S
Zn338 O349 2.120 . S
Zn338 O350 2.114 . S
Zn338 O353 2.080 . S
C339 O344 1.166 . S
C339 O345 1.182 . S
C340 O346 1.167 . S
C340 O347 1.299 . S
O341 Zn338 2.080 . S
O341 C355 1.305 . S
O342 Zn336 1.920 . S
O342 C355 1.234 . S
C343 O348 1.167 . S
C343 O349 1.299 . S
O344 Zn338 2.114 . S
O344 C339 1.166 . S
O345 Zn337 1.905 . S
O345 C339 1.182 . S
O346 Zn337 1.898 . S
O346 C340 1.167 . S
O347 Zn338 2.120 . S
O347 C340 1.299 . S
O348 Zn336 1.898 . S
O348 C343 1.167 . S
O349 Zn338 2.120 . S
O349 C343 1.299 . S
O350 Zn338 2.114 . S
O350 C352 1.166 . S
O351 Zn336 1.905 . S
O351 C352 1.182 . S
C352 O350 1.166 . S
C352 O351 1.182 . S
O353 Zn338 2.080 . S
O353 C356 1.305 . S
O354 Zn337 1.920 . S
O354 C356 1.234 . S
C355 O341 1.305 . S
C355 O342 1.234 . S
C356 O353 1.305 . S
C356 O354 1.234 . S
Zn357 O363 1.920 . S
Zn357 O369 1.898 . S
Zn357 O372 1.905 . S
Zn358 O366 1.905 . S
Zn358 O367 1.898 . S
Zn358 O375 1.920 . S
Zn359 O362 2.080 . S
Zn359 O365 2.114 . S
Zn359 O368 2.120 . S
Zn359 O370 2.120 . S
Zn359 O371 2.114 . S
Zn359 O374 2.080 . S
C360 O365 1.166 . S
C360 O366 1.182 . S
C361 O367 1.167 . S
C361 O368 1.299 . S
O362 Zn359 2.080 . S
O362 C376 1.305 . S
O363 Zn357 1.920 . S
O363 C376 1.234 . S
C364 O369 1.167 . S
C364 O370 1.299 . S
O365 Zn359 2.114 . S
O365 C360 1.166 . S
O366 Zn358 1.905 . S
O366 C360 1.182 . S
O367 Zn358 1.898 . S
O367 C361 1.167 . S
O368 Zn359 2.120 . S
O368 C361 1.299 . S
O369 Zn357 1.898 . S
O369 C364 1.167 . S
O370 Zn359 2.120 . S
O370 C364 1.299 . S
O371 Zn359 2.114 . S
O371 C373 1.166 . S
O372 Zn357 1.905 . S
O372 C373 1.182 . S
C373 O371 1.166 . S
C373 O372 1.182 . S
O374 Zn359 2.080 . S
O374 C377 1.305 . S
O375 Zn358 1.920 . S
O375 C377 1.234 . S
C376 O362 1.305 . S
C376 O363 1.234 . S
C377 O374 1.305 . S
C377 O375 1.234 . S
Zn378 O384 1.920 . S
Zn378 O390 1.898 . S
Zn378 O393 1.905 . S
Zn379 O387 1.905 . S
Zn379 O388 1.898 . S
Zn379 O396 1.920 . S
Zn380 O383 2.080 . S
Zn380 O386 2.114 . S
Zn380 O389 2.120 . S
Zn380 O391 2.120 . S
Zn380 O392 2.114 . S
Zn380 O395 2.080 . S
C381 O386 1.166 . S
C381 O387 1.182 . S
C382 O388 1.167 . S
C382 O389 1.299 . S
O383 Zn380 2.080 . S
O383 C397 1.305 . S
O384 Zn378 1.920 . S
O384 C397 1.234 . S
C385 O390 1.167 . S
C385 O391 1.299 . S
O386 Zn380 2.114 . S
O386 C381 1.166 . S
O387 Zn379 1.905 . S
O387 C381 1.182 . S
O388 Zn379 1.898 . S
O388 C382 1.167 . S
O389 Zn380 2.120 . S
O389 C382 1.299 . S
O390 Zn378 1.898 . S
O390 C385 1.167 . S
O391 Zn380 2.120 . S
O391 C385 1.299 . S
O392 Zn380 2.114 . S
O392 C394 1.166 . S
O393 Zn378 1.905 . S
O393 C394 1.182 . S
C394 O392 1.166 . S
C394 O393 1.182 . S
O395 Zn380 2.080 . S
O395 C398 1.305 . S
O396 Zn379 1.920 . S
O396 C398 1.234 . S
C397 O383 1.305 . S
C397 O384 1.234 . S
C398 O395 1.305 . S
C398 O396 1.234 . S
Zn399 O405 1.920 . S
Zn399 O411 1.898 . S
Zn399 O414 1.905 . S
Zn400 O408 1.905 . S
Zn400 O409 1.898 . S
Zn400 O417 1.920 . S
Zn401 O404 2.080 . S
Zn401 O407 2.114 . S
Zn401 O410 2.120 . S
Zn401 O412 2.120 . S
Zn401 O413 2.114 . S
Zn401 O416 2.080 . S
C402 O407 1.166 . S
C402 O408 1.182 . S
C403 O409 1.167 . S
C403 O410 1.299 . S
O404 Zn401 2.080 . S
O404 C418 1.305 1_556 S
O405 Zn399 1.920 . S
O405 C418 1.234 . S
C406 O411 1.167 . S
C406 O412 1.299 1_554 S
O407 Zn401 2.114 . S
O407 C402 1.166 . S
O408 Zn400 1.905 . S
O408 C402 1.182 . S
O409 Zn400 1.898 . S
O409 C403 1.167 . S
O410 Zn401 2.120 . S
O410 C403 1.299 . S
O411 Zn399 1.898 . S
O411 C406 1.167 . S
O412 Zn401 2.120 . S
O412 C406 1.299 1_556 S
O413 Zn401 2.114 . S
O413 C415 1.166 1_556 S
O414 Zn399 1.905 . S
O414 C415 1.182 . S
C415 O413 1.166 1_554 S
C415 O414 1.182 . S
O416 Zn401 2.080 . S
O416 C419 1.305 . S
O417 Zn400 1.920 . S
O417 C419 1.234 . S
C418 O404 1.305 1_554 S
C418 O405 1.234 . S
C419 O416 1.305 . S
C419 O417 1.234 . S
Zn420 O426 1.920 . S
Zn420 O432 1.898 . S
Zn420 O435 1.905 . S
Zn421 O429 1.905 . S
Zn421 O430 1.898 . S
Zn421 O438 1.920 . S
Zn422 O425 2.080 . S
Zn422 O428 2.114 . S
Zn422 O431 2.120 . S
Zn422 O433 2.120 . S
Zn422 O434 2.114 . S
Zn422 O437 2.080 . S
C423 O428 1.166 . S
C423 O429 1.182 . S
C424 O430 1.167 . S
C424 O431 1.299 . S
O425 Zn422 2.080 . S
O425 C439 1.305 . S
O426 Zn420 1.920 . S
O426 C439 1.234 . S
C427 O432 1.167 . S
C427 O433 1.299 . S
O428 Zn422 2.114 . S
O428 C423 1.166 . S
O429 Zn421 1.905 . S
O429 C423 1.182 . S
O430 Zn421 1.898 . S
O430 C424 1.167 . S
O431 Zn422 2.120 . S
O431 C424 1.299 . S
O432 Zn420 1.898 . S
O432 C427 1.167 . S
O433 Zn422 2.120 . S
O433 C427 1.299 . S
O434 Zn422 2.114 . S
O434 C436 1.166 . S
O435 Zn420 1.905 . S
O435 C436 1.182 . S
C436 O434 1.166 . S
C436 O435 1.182 . S
O437 Zn422 2.080 . S
O437 C440 1.305 . S
O438 Zn421 1.920 . S
O438 C440 1.234 . S
C439 O425 1.305 . S
C439 O426 1.234 . S
C440 O437 1.305 . S
C440 O438 1.234 . S
Zn441 O447 1.920 . S
Zn441 O453 1.898 . S
Zn441 O456 1.905 . S
Zn442 O450 1.905 . S
Zn442 O451 1.898 . S
Zn442 O459 1.920 . S
Zn443 O446 2.080 . S
Zn443 O449 2.114 . S
Zn443 O452 2.120 . S
Zn443 O454 2.120 . S
Zn443 O455 2.114 . S
Zn443 O458 2.080 . S
C444 O449 1.166 1_556 S
C444 O450 1.182 . S
C445 O451 1.167 . S
C445 O452 1.299 1_556 S
O446 Zn443 2.080 . S
O446 C460 1.305 . S
O447 Zn441 1.920 . S
O447 C460 1.234 . S
C448 O453 1.167 . S
C448 O454 1.299 . S
O449 Zn443 2.114 . S
O449 C444 1.166 1_554 S
O450 Zn442 1.905 . S
O450 C444 1.182 . S
O451 Zn442 1.898 . S
O451 C445 1.167 . S
O452 Zn443 2.120 . S
O452 C445 1.299 1_554 S
O453 Zn441 1.898 . S
O453 C448 1.167 . S
O454 Zn443 2.120 . S
O454 C448 1.299 . S
O455 Zn443 2.114 . S
O455 C457 1.166 . S
O456 Zn441 1.905 . S
O456 C457 1.182 . S
C457 O455 1.166 . S
C457 O456 1.182 . S
O458 Zn443 2.080 . S
O458 C461 1.305 1_554 S
O459 Zn442 1.920 . S
O459 C461 1.234 . S
C460 O446 1.305 . S
C460 O447 1.234 . S
C461 O458 1.305 1_556 S
C461 O459 1.234 . S
Zn462 O468 1.920 . S
Zn462 O474 1.898 . S
Zn462 O477 1.905 . S
Zn463 O471 1.905 . S
Zn463 O472 1.898 . S
Zn463 O480 1.920 . S
Zn464 O467 2.080 . S
Zn464 O470 2.114 . S
Zn464 O473 2.120 . S
Zn464 O475 2.120 . S
Zn464 O476 2.114 . S
Zn464 O479 2.080 . S
C465 O470 1.166 . S
C465 O471 1.182 . S
C466 O472 1.167 . S
C466 O473 1.299 . S
O467 Zn464 2.080 . S
O467 C481 1.305 . S
O468 Zn462 1.920 . S
O468 C481 1.234 . S
C469 O474 1.167 . S
C469 O475 1.299 . S
O470 Zn464 2.114 . S
O470 C465 1.166 . S
O471 Zn463 1.905 . S
O471 C465 1.182 . S
O472 Zn463 1.898 . S
O472 C466 1.167 . S
O473 Zn464 2.120 . S
O473 C466 1.299 . S
O474 Zn462 1.898 . S
O474 C469 1.167 . S
O475 Zn464 2.120 . S
O475 C469 1.299 . S
O476 Zn464 2.114 . S
O476 C478 1.166 . S
O477 Zn462 1.905 . S
O477 C478 1.182 . S
C478 O476 1.166 . S
C478 O477 1.182 . S
O479 Zn464 2.080 . S
O479 C482 1.305 . S
O480 Zn463 1.920 . S
O480 C482 1.234 . S
C481 O467 1.305 . S
C481 O468 1.234 . S
C482 O479 1.305 . S
C482 O480 1.234 . S
Zn483 O489 1.920 . S
Zn483 O495 1.898 . S
Zn483 O498 1.905 . S
Zn484 O492 1.905 . S
Zn484 O493 1.898 . S
Zn484 O501 1.920 . S
Zn485 O488 2.080 . S
Zn485 O491 2.114 . S
Zn485 O494 2.120 . S
Zn485 O496 2.120 . S
Zn485 O497 2.114 . S
Zn485 O500 2.080 . S
C486 O491 1.166 . S
C486 O492 1.182 . S
C487 O493 1.167 . S
C487 O494 1.299 . S
O488 Zn485 2.080 . S
O488 C502 1.305 . S
O489 Zn483 1.920 . S
O489 C502 1.234 . S
C490 O495 1.167 . S
C490 O496 1.299 . S
O491 Zn485 2.114 . S
O491 C486 1.166 . S
O492 Zn484 1.905 . S
O492 C486 1.182 . S
O493 Zn484 1.898 . S
O493 C487 1.167 . S
O494 Zn485 2.120 . S
O494 C487 1.299 . S
O495 Zn483 1.898 . S
O495 C490 1.167 . S
O496 Zn485 2.120 . S
O496 C490 1.299 . S
O497 Zn485 2.114 . S
O497 C499 1.166 . S
O498 Zn483 1.905 . S
O498 C499 1.182 . S
C499 O497 1.166 . S
C499 O498 1.182 . S
O500 Zn485 2.080 . S
O500 C503 1.305 . S
O501 Zn484 1.920 . S
O501 C503 1.234 . S
C502 O488 1.305 . S
C502 O489 1.234 . S
C503 O500 1.305 . S
C503 O501 1.234 . S
H504 C516 0.930 . S
H505 C518 0.930 . S
H506 C519 0.930 . S
H507 C523 0.959 . S
H508 C523 0.959 . S
H509 C523 0.961 . S
H510 C524 0.960 . S
H511 C524 0.961 . S
H512 C524 0.959 . S
H513 C527 0.929 . S
H514 C528 0.931 . S
H515 C530 0.930 . S
C516 H504 0.930 . S
C516 C517 1.399 . S
C516 C521 1.399 . S
C517 C516 1.399 . S
C517 C518 1.376 . S
C518 H505 0.930 . S
C518 C517 1.376 . S
C518 C519 1.388 . S
C519 H506 0.930 . S
C519 C518 1.388 . S
C519 C520 1.390 . S
C520 C519 1.390 . S
C520 C521 1.394 . S
C520 C526 1.465 . S
C521 C516 1.399 . S
C521 C520 1.394 . S
C521 C522 1.516 . S
C522 C521 1.516 . S
C522 C523 1.502 . S
C522 C524 1.561 . S
C522 C525 1.526 . S
C523 H507 0.959 . S
C523 H508 0.959 . S
C523 H509 0.961 . S
C523 C522 1.502 . S
C524 H510 0.960 . S
C524 H511 0.961 . S
C524 H512 0.959 . S
C524 C522 1.561 . S
C525 C522 1.526 . S
C525 C526 1.396 . S
C525 C530 1.390 . S
C526 C520 1.465 . S
C526 C525 1.396 . S
C526 C527 1.399 . S
C527 H513 0.929 . S
C527 C526 1.399 . S
C527 C528 1.385 . S
C528 H514 0.931 . S
C528 C527 1.385 . S
C528 C529 1.389 . S
C529 C528 1.389 . S
C529 C530 1.387 . S
C530 H515 0.930 . S
C530 C525 1.390 . S
C530 C529 1.387 . S
H531 C543 0.930 . S
H532 C545 0.930 . S
H533 C546 0.930 . S
H534 C550 0.959 . S
H535 C550 0.959 . S
H536 C550 0.961 . S
H537 C551 0.960 . S
H538 C551 0.961 . S
H539 C551 0.959 . S
H540 C554 0.929 . S
H541 C555 0.931 . S
H542 C557 0.930 . S
C543 H531 0.930 . S
C543 C544 1.399 . S
C543 C548 1.399 . S
C544 C543 1.399 . S
C544 C545 1.376 1_545 S
C545 H532 0.930 . S
C545 C544 1.376 1_565 S
C545 C546 1.388 . S
C546 H533 0.930 . S
C546 C545 1.388 . S
C546 C547 1.390 1_565 S
C547 C546 1.390 1_545 S
C547 C548 1.394 . S
C547 C553 1.465 . S
C548 C543 1.399 . S
C548 C547 1.394 . S
C548 C549 1.516 . S
C549 C548 1.516 . S
C549 C550 1.502 . S
C549 C551 1.561 . S
C549 C552 1.526 . S
C550 H534 0.959 . S
C550 H535 0.959 . S
C550 H536 0.961 . S
C550 C549 1.502 . S
C551 H537 0.960 . S
C551 H538 0.961 . S
C551 H539 0.959 . S
C551 C549 1.561 . S
C552 C549 1.526 . S
C552 C553 1.396 . S
C552 C557 1.390 . S
C553 C547 1.465 . S
C553 C552 1.396 . S
C553 C554 1.399 1_545 S
C554 H540 0.929 . S
C554 C553 1.399 1_565 S
C554 C555 1.385 . S
C555 H541 0.931 . S
C555 C554 1.385 . S
C555 C556 1.389 1_565 S
C556 C555 1.389 1_545 S
C556 C557 1.387 . S
C557 H542 0.930 . S
C557 C552 1.390 . S
C557 C556 1.387 . S
H558 C570 0.930 . S
H559 C572 0.930 . S
H560 C573 0.930 . S
H561 C577 0.959 . S
H562 C577 0.959 . S
H563 C577 0.961 . S
H564 C578 0.960 . S
H565 C578 0.961 . S
H566 C578 0.943 1_455 S
H567 C581 0.929 . S
H568 C582 0.931 . S
H569 C584 0.930 . S
C570 H558 0.930 . S
C570 C571 1.399 1_655 S
C570 C575 1.399 . S
C571 C570 1.399 1_455 S
C571 C572 1.376 . S
C572 H559 0.930 . S
C572 C571 1.376 . S
C572 C573 1.388 . S
C573 H560 0.930 . S
C573 C572 1.388 . S
C573 C574 1.390 . S
C574 C573 1.390 . S
C574 C575 1.394 1_455 S
C574 C580 1.465 . S
C575 C570 1.399 . S
C575 C574 1.394 1_655 S
C575 C576 1.516 . S
C576 C575 1.516 . S
C576 C577 1.502 . S
C576 C578 1.561 . S
C576 C579 1.526 . S
C577 H561 0.959 . S
C577 H562 0.959 . S
C577 H563 0.961 . S
C577 C576 1.502 . S
C578 H564 0.960 . S
C578 H565 0.961 . S
C578 H566 0.943 1_655 S
C578 C576 1.561 . S
C579 C576 1.526 . S
C579 C580 1.396 1_655 S
C579 C584 1.390 . S
C580 C574 1.465 . S
C580 C579 1.396 1_455 S
C580 C581 1.399 . S
C581 H567 0.929 . S
C581 C580 1.399 . S
C581 C582 1.385 . S
C582 H568 0.931 . S
C582 C581 1.385 . S
C582 C583 1.389 . S
C583 C582 1.389 . S
C583 C584 1.387 1_455 S
C584 H569 0.930 . S
C584 C579 1.390 . S
C584 C583 1.387 1_655 S
H585 C597 0.930 . S
H586 C599 0.930 . S
H587 C600 0.930 . S
H588 C604 0.959 . S
H589 C604 0.959 . S
H590 C604 0.961 . S
H591 C605 0.960 . S
H592 C605 0.961 . S
H593 C605 0.959 . S
H594 C608 0.929 . S
H595 C609 0.931 . S
H596 C611 0.930 . S
C597 H585 0.930 . S
C597 C598 1.399 . S
C597 C602 1.399 . S
C598 C597 1.399 . S
C598 C599 1.376 . S
C599 H586 0.930 . S
C599 C598 1.376 . S
C599 C600 1.388 . S
C600 H587 0.930 . S
C600 C599 1.388 . S
C600 C601 1.390 . S
C601 C600 1.390 . S
C601 C602 1.394 . S
C601 C607 1.465 . S
C602 C597 1.399 . S
C602 C601 1.394 . S
C602 C603 1.516 . S
C603 C602 1.516 . S
C603 C604 1.502 . S
C603 C605 1.561 . S
C603 C606 1.526 . S
C604 H588 0.959 . S
C604 H589 0.959 . S
C604 H590 0.961 . S
C604 C603 1.502 . S
C605 H591 0.960 . S
C605 H592 0.961 . S
C605 H593 0.959 . S
C605 C603 1.561 . S
C606 C603 1.526 . S
C606 C607 1.396 . S
C606 C611 1.390 . S
C607 C601 1.465 . S
C607 C606 1.396 . S
C607 C608 1.399 . S
C608 H594 0.929 . S
C608 C607 1.399 . S
C608 C609 1.385 . S
C609 H595 0.931 . S
C609 C608 1.385 . S
C609 C610 1.389 . S
C610 C609 1.389 . S
C610 C611 1.387 . S
C611 H596 0.930 . S
C611 C606 1.390 . S
C611 C610 1.387 . S
H612 C624 0.930 . S
H613 C626 0.930 . S
H614 C627 0.930 . S
H615 C631 0.959 . S
H616 C631 0.959 . S
H617 C631 0.961 . S
H618 C632 0.960 . S
H619 C632 0.961 . S
H620 C632 0.959 . S
H621 C635 0.929 . S
H622 C636 0.931 . S
H623 C638 0.930 . S
C624 H612 0.930 . S
C624 C625 1.399 . S
C624 C629 1.399 . S
C625 C624 1.399 . S
C625 C626 1.376 1_545 S
C626 H613 0.930 . S
C626 C625 1.376 1_565 S
C626 C627 1.388 . S
C627 H614 0.930 . S
C627 C626 1.388 . S
C627 C628 1.390 . S
C628 C627 1.390 . S
C628 C629 1.394 1_565 S
C628 C634 1.465 . S
C629 C624 1.399 . S
C629 C628 1.394 1_545 S
C629 C630 1.516 . S
C630 C629 1.516 . S
C630 C631 1.502 . S
C630 C632 1.561 . S
C630 C633 1.526 . S
C631 H615 0.959 . S
C631 H616 0.959 . S
C631 H617 0.961 . S
C631 C630 1.502 . S
C632 H618 0.960 . S
C632 H619 0.961 . S
C632 H620 0.959 . S
C632 C630 1.561 . S
C633 C630 1.526 . S
C633 C634 1.396 1_545 S
C633 C638 1.390 . S
C634 C628 1.465 . S
C634 C633 1.396 1_565 S
C634 C635 1.399 . S
C635 H621 0.929 . S
C635 C634 1.399 . S
C635 C636 1.385 . S
C636 H622 0.931 . S
C636 C635 1.385 . S
C636 C637 1.389 1_565 S
C637 C636 1.389 1_545 S
C637 C638 1.387 . S
C638 H623 0.930 . S
C638 C633 1.390 . S
C638 C637 1.387 . S
H639 C651 0.930 . S
H640 C653 0.930 . S
H641 C654 0.930 . S
H642 C658 0.959 . S
H643 C658 0.959 . S
H644 C658 0.961 . S
H645 C659 0.960 . S
H646 C659 0.961 . S
H647 C659 0.959 . S
H648 C662 0.929 . S
H649 C663 0.931 . S
H650 C665 0.930 . S
C651 H639 0.930 . S
C651 C652 1.399 . S
C651 C656 1.399 . S
C652 C651 1.399 . S
C652 C653 1.376 1_455 S
C653 H640 0.930 . S
C653 C652 1.376 1_655 S
C653 C654 1.388 . S
C654 H641 0.930 . S
C654 C653 1.388 . S
C654 C655 1.392 . S
C655 C654 1.392 . S
C655 C656 1.389 1_655 S
C655 C661 1.467 1_655 S
C656 C651 1.399 . S
C656 C655 1.389 1_455 S
C656 C657 1.516 . S
C657 C656 1.516 . S
C657 C658 1.502 . S
C657 C659 1.561 . S
C657 C660 1.526 . S
C658 H642 0.959 . S
C658 H643 0.959 . S
C658 H644 0.961 . S
C658 C657 1.502 . S
C659 H645 0.960 . S
C659 H646 0.961 . S
C659 H647 0.959 . S
C659 C657 1.561 . S
C660 C657 1.526 . S
C660 C661 1.396 . S
C660 C665 1.390 . S
C661 C655 1.467 1_455 S
C661 C660 1.396 . S
C661 C662 1.399 1_455 S
C662 H648 0.929 . S
C662 C661 1.399 1_655 S
C662 C663 1.385 . S
C663 H649 0.931 . S
C663 C662 1.385 . S
C663 C664 1.389 1_655 S
C664 C663 1.389 1_455 S
C664 C665 1.387 . S
C665 H650 0.930 . S
C665 C660 1.390 . S
C665 C664 1.387 . S
H666 C678 0.930 . S
H667 C680 0.930 . S
H668 C681 0.930 . S
H669 C685 0.959 . S
H670 C685 0.959 . S
H671 C685 0.961 . S
H672 C686 0.960 . S
H673 C686 0.961 . S
H674 C686 0.959 . S
H675 C689 0.929 . S
H676 C690 0.931 . S
H677 C692 0.930 . S
C678 H666 0.930 . S
C678 C679 1.399 . S
C678 C683 1.399 . S
C679 C678 1.399 . S
C679 C680 1.376 . S
C680 H667 0.930 . S
C680 C679 1.376 . S
C680 C681 1.388 . S
C681 H668 0.930 . S
C681 C680 1.388 . S
C681 C682 1.390 . S
C682 C681 1.390 . S
C682 C683 1.394 . S
C682 C688 1.465 . S
C683 C678 1.399 . S
C683 C682 1.394 . S
C683 C684 1.516 . S
C684 C683 1.516 . S
C684 C685 1.502 . S
C684 C686 1.561 . S
C684 C687 1.526 . S
C685 H669 0.959 . S
C685 H670 0.959 . S
C685 H671 0.961 . S
C685 C684 1.502 . S
C686 H672 0.960 . S
C686 H673 0.961 . S
C686 H674 0.959 . S
C686 C684 1.561 . S
C687 C684 1.526 . S
C687 C688 1.396 . S
C687 C692 1.390 . S
C688 C682 1.465 . S
C688 C687 1.396 . S
C688 C689 1.399 . S
C689 H675 0.929 . S
C689 C688 1.399 . S
C689 C690 1.385 . S
C690 H676 0.931 . S
C690 C689 1.385 . S
C690 C691 1.389 . S
C691 C690 1.389 . S
C691 C692 1.387 . S
C692 H677 0.930 . S
C692 C687 1.390 . S
C692 C691 1.387 . S
H693 C705 0.930 . S
H694 C707 0.930 . S
H695 C708 0.930 . S
H696 C712 0.959 . S
H697 C712 0.959 . S
H698 C712 0.961 . S
H699 C713 0.960 . S
H700 C713 0.961 . S
H701 C713 0.959 . S
H702 C716 0.929 1_565 S
H703 C717 0.927 1_565 S
H704 C719 0.930 . S
C705 H693 0.930 . S
C705 C706 1.399 . S
C705 C710 1.399 . S
C706 C705 1.399 . S
C706 C707 1.376 . S
C707 H694 0.930 . S
C707 C706 1.376 . S
C707 C708 1.388 . S
C708 H695 0.930 . S
C708 C707 1.388 . S
C708 C709 1.390 . S
C709 C708 1.390 . S
C709 C710 1.394 . S
C709 C715 1.465 . S
C710 C705 1.399 . S
C710 C709 1.394 . S
C710 C711 1.516 . S
C711 C710 1.516 . S
C711 C712 1.502 . S
C711 C713 1.561 1_545 S
C711 C714 1.526 . S
C712 H696 0.959 . S
C712 H697 0.959 . S
C712 H698 0.961 . S
C712 C711 1.502 . S
C713 H699 0.960 . S
C713 H700 0.961 . S
C713 H701 0.959 . S
C713 C711 1.561 1_565 S
C714 C711 1.526 . S
C714 C715 1.396 . S
C714 C719 1.390 . S
C715 C709 1.465 . S
C715 C714 1.396 . S
C715 C716 1.399 . S
C716 H702 0.929 1_545 S
C716 C715 1.399 . S
C716 C717 1.375 . S
C717 H703 0.927 1_545 S
C717 C716 1.375 . S
C717 C718 1.404 . S
C718 C717 1.404 . S
C718 C719 1.387 . S
C719 H704 0.930 . S
C719 C714 1.390 . S
C719 C718 1.387 . S
H720 C732 0.930 . S
H721 C734 0.930 . S
H722 C735 0.930 . S
H723 C739 0.959 . S
H724 C739 0.959 . S
H725 C739 0.961 . S
H726 C740 0.960 . S
H727 C740 0.961 . S
H728 C740 0.959 1_455 S
H729 C743 0.929 . S
H730 C744 0.931 . S
H731 C746 0.930 1_655 S
C732 H720 0.930 . S
C732 C733 1.399 1_655 S
C732 C737 1.399 1_655 S
C733 C732 1.399 1_455 S
C733 C734 1.376 . S
C734 H721 0.930 . S
C734 C733 1.376 . S
C734 C735 1.388 . S
C735 H722 0.930 . S
C735 C734 1.388 . S
C735 C736 1.390 . S
C736 C735 1.390 . S
C736 C737 1.394 . S
C736 C742 1.465 . S
C737 C732 1.399 1_455 S
C737 C736 1.394 . S
C737 C738 1.516 1_455 S
C738 C737 1.516 1_655 S
C738 C739 1.502 . S
C738 C740 1.561 . S
C738 C741 1.526 1_655 S
C739 H723 0.959 . S
C739 H724 0.959 . S
C739 H725 0.961 . S
C739 C738 1.502 . S
C740 H726 0.960 . S
C740 H727 0.961 . S
C740 H728 0.959 1_655 S
C740 C738 1.561 . S
C741 C738 1.526 1_455 S
C741 C742 1.396 . S
C741 C746 1.390 . S
C742 C736 1.465 . S
C742 C741 1.396 . S
C742 C743 1.399 . S
C743 H729 0.929 . S
C743 C742 1.399 . S
C743 C744 1.385 . S
C744 H730 0.931 . S
C744 C743 1.385 . S
C744 C745 1.389 . S
C745 C744 1.389 . S
C745 C746 1.387 . S
C746 H731 0.930 1_455 S
C746 C741 1.390 . S
C746 C745 1.387 . S
H747 C759 0.930 . S
H748 C761 0.930 . S
H749 C762 0.930 . S
H750 C766 0.959 . S
H751 C766 0.959 . S
H752 C766 0.961 . S
H753 C767 0.960 . S
H754 C767 0.961 . S
H755 C767 0.959 . S
H756 C770 0.929 . S
H757 C771 0.931 . S
H758 C773 0.930 . S
C759 H747 0.930 . S
C759 C760 1.399 . S
C759 C764 1.399 . S
C760 C759 1.399 . S
C760 C761 1.376 . S
C761 H748 0.930 . S
C761 C760 1.376 . S
C761 C762 1.388 . S
C762 H749 0.930 . S
C762 C761 1.388 . S
C762 C763 1.390 . S
C763 C762 1.390 . S
C763 C764 1.394 . S
C763 C769 1.465 . S
C764 C759 1.399 . S
C764 C763 1.394 . S
C764 C765 1.516 . S
C765 C764 1.516 . S
C765 C766 1.502 . S
C765 C767 1.561 . S
C765 C768 1.526 . S
C766 H750 0.959 . S
C766 H751 0.959 . S
C766 H752 0.961 . S
C766 C765 1.502 . S
C767 H753 0.960 . S
C767 H754 0.961 . S
C767 H755 0.959 . S
C767 C765 1.561 . S
C768 C765 1.526 . S
C768 C769 1.396 . S
C768 C773 1.390 . S
C769 C763 1.465 . S
C769 C768 1.396 . S
C769 C770 1.399 . S
C770 H756 0.929 . S
C770 C769 1.399 . S
C770 C771 1.385 . S
C771 H757 0.931 . S
C771 C770 1.385 . S
C771 C772 1.389 . S
C772 C771 1.389 . S
C772 C773 1.387 . S
C773 H758 0.930 . S
C773 C768 1.390 . S
C773 C772 1.387 . S
H774 C786 0.930 . S
H775 C788 0.930 . S
H776 C789 0.930 . S
H777 C793 0.959 . S
H778 C793 0.959 . S
H779 C793 0.961 . S
H780 C794 0.960 . S
H781 C794 0.961 . S
H782 C794 0.959 . S
H783 C797 0.929 . S
H784 C798 0.931 . S
H785 C800 0.930 1_565 S
C786 H774 0.930 . S
C786 C787 1.399 1_565 S
C786 C791 1.399 1_565 S
C787 C786 1.399 1_545 S
C787 C788 1.376 . S
C788 H775 0.930 . S
C788 C787 1.376 . S
C788 C789 1.388 . S
C789 H776 0.930 . S
C789 C788 1.388 . S
C789 C790 1.390 . S
C790 C789 1.390 . S
C790 C791 1.394 . S
C790 C796 1.465 . S
C791 C786 1.399 1_545 S
C791 C790 1.394 . S
C791 C792 1.516 1_545 S
C792 C791 1.516 1_565 S
C792 C793 1.502 . S
C792 C794 1.561 . S
C792 C795 1.526 1_565 S
C793 H777 0.959 . S
C793 H778 0.959 . S
C793 H779 0.961 . S
C793 C792 1.502 . S
C794 H780 0.960 . S
C794 H781 0.961 . S
C794 H782 0.959 . S
C794 C792 1.561 . S
C795 C792 1.526 1_545 S
C795 C796 1.396 . S
C795 C800 1.390 . S
C796 C790 1.465 . S
C796 C795 1.396 . S
C796 C797 1.399 . S
C797 H783 0.929 . S
C797 C796 1.399 . S
C797 C798 1.385 . S
C798 H784 0.931 . S
C798 C797 1.385 . S
C798 C799 1.389 . S
C799 C798 1.389 . S
C799 C800 1.387 . S
C800 H785 0.930 1_545 S
C800 C795 1.390 . S
C800 C799 1.387 . S
H801 C813 0.930 1_655 S
H802 C815 0.930 . S
H803 C816 0.930 . S
H804 C820 0.957 1_455 S
H805 C820 0.959 . S
H806 C820 0.962 . S
H807 C821 0.960 . S
H808 C821 0.961 . S
H809 C821 0.959 . S
H810 C824 0.929 . S
H811 C825 0.931 . S
H812 C827 0.930 . S
C813 H801 0.930 1_455 S
C813 C814 1.399 . S
C813 C818 1.399 . S
C814 C813 1.399 . S
C814 C815 1.376 . S
C815 H802 0.930 . S
C815 C814 1.376 . S
C815 C816 1.388 . S
C816 H803 0.930 . S
C816 C815 1.388 . S
C816 C817 1.390 . S
C817 C816 1.390 . S
C817 C818 1.394 . S
C817 C823 1.465 . S
C818 C813 1.399 . S
C818 C817 1.394 . S
C818 C819 1.516 1_455 S
C819 C818 1.516 1_655 S
C819 C820 1.503 . S
C819 C821 1.561 . S
C819 C822 1.533 . S
C820 H804 0.957 1_655 S
C820 H805 0.959 . S
C820 H806 0.962 . S
C820 C819 1.503 . S
C821 H807 0.960 . S
C821 H808 0.961 . S
C821 H809 0.959 . S
C821 C819 1.561 . S
C822 C819 1.533 . S
C822 C823 1.396 1_655 S
C822 C827 1.383 . S
C823 C817 1.465 . S
C823 C822 1.396 1_455 S
C823 C824 1.399 . S
C824 H810 0.929 . S
C824 C823 1.399 . S
C824 C825 1.385 . S
C825 H811 0.931 . S
C825 C824 1.385 . S
C825 C826 1.389 . S
C826 C825 1.389 . S
C826 C827 1.387 1_455 S
C827 H812 0.930 . S
C827 C822 1.383 . S
C827 C826 1.387 1_655 S
H828 C840 0.930 . S
H829 C842 0.930 . S
H830 C843 0.930 . S
H831 C847 0.959 . S
H832 C847 0.959 . S
H833 C847 0.961 . S
H834 C848 0.960 . S
H835 C848 0.961 . S
H836 C848 0.959 . S
H837 C851 0.929 . S
H838 C852 0.931 . S
H839 C854 0.930 . S
C840 H828 0.930 . S
C840 C841 1.399 . S
C840 C845 1.399 . S
C841 C840 1.399 . S
C841 C842 1.376 . S
C842 H829 0.930 . S
C842 C841 1.376 . S
C842 C843 1.388 . S
C843 H830 0.930 . S
C843 C842 1.388 . S
C843 C844 1.390 . S
C844 C843 1.390 . S
C844 C845 1.394 . S
C844 C850 1.465 . S
C845 C840 1.399 . S
C845 C844 1.394 . S
C845 C846 1.516 . S
C846 C845 1.516 . S
C846 C847 1.502 . S
C846 C848 1.561 . S
C846 C849 1.526 . S
C847 H831 0.959 . S
C847 H832 0.959 . S
C847 H833 0.961 . S
C847 C846 1.502 . S
C848 H834 0.960 . S
C848 H835 0.961 . S
C848 H836 0.959 . S
C848 C846 1.561 . S
C849 C846 1.526 . S
C849 C850 1.396 . S
C849 C854 1.390 . S
C850 C844 1.465 . S
C850 C849 1.396 . S
C850 C851 1.399 . S
C851 H837 0.929 . S
C851 C850 1.399 . S
C851 C852 1.385 . S
C852 H838 0.931 . S
C852 C851 1.385 . S
C852 C853 1.389 . S
C853 C852 1.389 . S
C853 C854 1.387 . S
C854 H839 0.930 . S
C854 C849 1.390 . S
C854 C853 1.387 . S
H855 C867 0.930 . S
H856 C869 0.930 . S
H857 C870 0.930 . S
H858 C874 0.959 . S
H859 C874 0.959 . S
H860 C874 0.961 . S
H861 C875 0.960 . S
H862 C875 0.961 . S
H863 C875 0.959 . S
H864 C878 0.929 . S
H865 C879 0.931 . S
H866 C881 0.930 . S
C867 H855 0.930 . S
C867 C868 1.399 . S
C867 C872 1.399 . S
C868 C867 1.399 . S
C868 C869 1.376 . S
C869 H856 0.930 . S
C869 C868 1.376 . S
C869 C870 1.388 . S
C870 H857 0.930 . S
C870 C869 1.388 . S
C870 C871 1.390 . S
C871 C870 1.390 . S
C871 C872 1.394 . S
C871 C877 1.465 . S
C872 C867 1.399 . S
C872 C871 1.394 . S
C872 C873 1.516 . S
C873 C872 1.516 . S
C873 C874 1.502 . S
C873 C875 1.561 . S
C873 C876 1.526 . S
C874 H858 0.959 . S
C874 H859 0.959 . S
C874 H860 0.961 . S
C874 C873 1.502 . S
C875 H861 0.960 . S
C875 H862 0.961 . S
C875 H863 0.959 . S
C875 C873 1.561 . S
C876 C873 1.526 . S
C876 C877 1.396 . S
C876 C881 1.390 . S
C877 C871 1.465 . S
C877 C876 1.396 . S
C877 C878 1.399 . S
C878 H864 0.929 . S
C878 C877 1.399 . S
C878 C879 1.385 . S
C879 H865 0.931 . S
C879 C878 1.385 . S
C879 C880 1.389 . S
C880 C879 1.389 . S
C880 C881 1.387 . S
C881 H866 0.930 . S
C881 C876 1.390 . S
C881 C880 1.387 . S
H882 C894 0.930 . S
H883 C896 0.930 . S
H884 C897 0.930 . S
H885 C901 0.959 . S
H886 C901 0.959 . S
H887 C901 0.961 . S
H888 C902 0.960 . S
H889 C902 0.961 . S
H890 C902 0.959 . S
H891 C905 0.929 . S
H892 C906 0.931 . S
H893 C908 0.930 . S
C894 H882 0.930 . S
C894 C895 1.399 . S
C894 C899 1.399 . S
C895 C894 1.399 . S
C895 C896 1.376 . S
C896 H883 0.930 . S
C896 C895 1.376 . S
C896 C897 1.388 . S
C897 H884 0.930 . S
C897 C896 1.388 . S
C897 C898 1.390 . S
C898 C897 1.390 . S
C898 C899 1.394 . S
C898 C904 1.465 . S
C899 C894 1.399 . S
C899 C898 1.394 . S
C899 C900 1.516 . S
C900 C899 1.516 . S
C900 C901 1.502 . S
C900 C902 1.561 . S
C900 C903 1.526 . S
C901 H885 0.959 . S
C901 H886 0.959 . S
C901 H887 0.961 . S
C901 C900 1.502 . S
C902 H888 0.960 . S
C902 H889 0.961 . S
C902 H890 0.959 . S
C902 C900 1.561 . S
C903 C900 1.526 . S
C903 C904 1.396 . S
C903 C908 1.390 . S
C904 C898 1.465 . S
C904 C903 1.396 . S
C904 C905 1.399 . S
C905 H891 0.929 . S
C905 C904 1.399 . S
C905 C906 1.385 . S
C906 H892 0.931 . S
C906 C905 1.385 . S
C906 C907 1.389 . S
C907 C906 1.389 . S
C907 C908 1.387 . S
C908 H893 0.930 . S
C908 C903 1.390 . S
C908 C907 1.387 . S
H909 C921 0.930 . S
H910 C923 0.930 . S
H911 C924 0.930 . S
H912 C928 0.959 . S
H913 C928 0.959 . S
H914 C928 0.961 . S
H915 C929 0.960 . S
H916 C929 0.961 . S
H917 C929 0.959 . S
H918 C932 0.929 . S
H919 C933 0.931 . S
H920 C935 0.930 . S
C921 H909 0.930 . S
C921 C922 1.399 . S
C921 C926 1.399 . S
C922 C921 1.399 . S
C922 C923 1.376 . S
C923 H910 0.930 . S
C923 C922 1.376 . S
C923 C924 1.388 . S
C924 H911 0.930 . S
C924 C923 1.388 . S
C924 C925 1.390 . S
C925 C924 1.390 . S
C925 C926 1.394 . S
C925 C931 1.465 . S
C926 C921 1.399 . S
C926 C925 1.394 . S
C926 C927 1.516 . S
C927 C926 1.516 . S
C927 C928 1.502 . S
C927 C929 1.561 . S
C927 C930 1.526 . S
C928 H912 0.959 . S
C928 H913 0.959 . S
C928 H914 0.961 . S
C928 C927 1.502 . S
C929 H915 0.960 . S
C929 H916 0.961 . S
C929 H917 0.959 . S
C929 C927 1.561 . S
C930 C927 1.526 . S
C930 C931 1.396 . S
C930 C935 1.390 . S
C931 C925 1.465 . S
C931 C930 1.396 . S
C931 C932 1.399 . S
C932 H918 0.929 . S
C932 C931 1.399 . S
C932 C933 1.385 . S
C933 H919 0.931 . S
C933 C932 1.385 . S
C933 C934 1.389 . S
C934 C933 1.389 . S
C934 C935 1.387 . S
C935 H920 0.930 . S
C935 C930 1.390 . S
C935 C934 1.387 . S
H936 C948 0.930 . S
H937 C950 0.930 . S
H938 C951 0.930 . S
H939 C955 0.959 . S
H940 C955 0.959 . S
H941 C955 0.961 . S
H942 C956 0.960 . S
H943 C956 0.961 . S
H944 C956 0.959 . S
H945 C959 0.929 . S
H946 C960 0.931 . S
H947 C962 0.930 . S
C948 H936 0.930 . S
C948 C949 1.399 . S
C948 C953 1.399 . S
C949 C948 1.399 . S
C949 C950 1.376 . S
C950 H937 0.930 . S
C950 C949 1.376 . S
C950 C951 1.388 . S
C951 H938 0.930 . S
C951 C950 1.388 . S
C951 C952 1.390 . S
C952 C951 1.390 . S
C952 C953 1.394 . S
C952 C958 1.465 . S
C953 C948 1.399 . S
C953 C952 1.394 . S
C953 C954 1.516 . S
C954 C953 1.516 . S
C954 C955 1.502 . S
C954 C956 1.561 . S
C954 C957 1.526 . S
C955 H939 0.959 . S
C955 H940 0.959 . S
C955 H941 0.961 . S
C955 C954 1.502 . S
C956 H942 0.960 . S
C956 H943 0.961 . S
C956 H944 0.959 . S
C956 C954 1.561 . S
C957 C954 1.526 . S
C957 C958 1.396 . S
C957 C962 1.390 . S
C958 C952 1.465 . S
C958 C957 1.396 . S
C958 C959 1.399 . S
C959 H945 0.929 . S
C959 C958 1.399 . S
C959 C960 1.385 . S
C960 H946 0.931 . S
C960 C959 1.385 . S
C960 C961 1.389 . S
C961 C960 1.389 . S
C961 C962 1.387 . S
C962 H947 0.930 . S
C962 C957 1.390 . S
C962 C961 1.387 . S
H963 C975 0.930 . S
H964 C977 0.930 . S
H965 C978 0.930 . S
H966 C982 0.959 . S
H967 C982 0.959 . S
H968 C982 0.961 . S
H969 C983 0.960 . S
H970 C983 0.961 . S
H971 C983 0.959 . S
H972 C986 0.929 . S
H973 C987 0.931 . S
H974 C989 0.930 . S
C975 H963 0.930 . S
C975 C976 1.399 . S
C975 C980 1.399 . S
C976 C975 1.399 . S
C976 C977 1.376 . S
C977 H964 0.930 . S
C977 C976 1.376 . S
C977 C978 1.388 . S
C978 H965 0.930 . S
C978 C977 1.388 . S
C978 C979 1.390 . S
C979 C978 1.390 . S
C979 C980 1.394 . S
C979 C985 1.465 . S
C980 C975 1.399 . S
C980 C979 1.394 . S
C980 C981 1.516 . S
C981 C980 1.516 . S
C981 C982 1.502 . S
C981 C983 1.561 . S
C981 C984 1.526 . S
C982 H966 0.959 . S
C982 H967 0.959 . S
C982 H968 0.961 . S
C982 C981 1.502 . S
C983 H969 0.960 . S
C983 H970 0.961 . S
C983 H971 0.959 . S
C983 C981 1.561 . S
C984 C981 1.526 . S
C984 C985 1.396 . S
C984 C989 1.390 . S
C985 C979 1.465 . S
C985 C984 1.396 . S
C985 C986 1.399 . S
C986 H972 0.929 . S
C986 C985 1.399 . S
C986 C987 1.385 . S
C987 H973 0.931 . S
C987 C986 1.385 . S
C987 C988 1.389 . S
C988 C987 1.389 . S
C988 C989 1.387 . S
C989 H974 0.930 . S
C989 C984 1.390 . S
C989 C988 1.387 . S
H990 C1002 0.930 . S
H991 C1004 0.930 . S
H992 C1005 0.930 . S
H993 C1009 0.959 . S
H994 C1009 0.959 . S
H995 C1009 0.961 . S
H996 C1010 0.960 . S
H997 C1010 0.961 . S
H998 C1010 0.959 . S
H999 C1013 0.929 . S
H1000 C1014 0.931 . S
H1001 C1016 0.930 . S
C1002 H990 0.930 . S
C1002 C1003 1.399 . S
C1002 C1007 1.399 . S
C1003 C1002 1.399 . S
C1003 C1004 1.376 . S
C1004 H991 0.930 . S
C1004 C1003 1.376 . S
C1004 C1005 1.388 . S
C1005 H992 0.930 . S
C1005 C1004 1.388 . S
C1005 C1006 1.390 . S
C1006 C1005 1.390 . S
C1006 C1007 1.394 . S
C1006 C1012 1.465 . S
C1007 C1002 1.399 . S
C1007 C1006 1.394 . S
C1007 C1008 1.516 . S
C1008 C1007 1.516 . S
C1008 C1009 1.502 . S
C1008 C1010 1.561 . S
C1008 C1011 1.526 . S
C1009 H993 0.959 . S
C1009 H994 0.959 . S
C1009 H995 0.961 . S
C1009 C1008 1.502 . S
C1010 H996 0.960 . S
C1010 H997 0.961 . S
C1010 H998 0.959 . S
C1010 C1008 1.561 . S
C1011 C1008 1.526 . S
C1011 C1012 1.396 . S
C1011 C1016 1.390 . S
C1012 C1006 1.465 . S
C1012 C1011 1.396 . S
C1012 C1013 1.399 . S
C1013 H999 0.929 . S
C1013 C1012 1.399 . S
C1013 C1014 1.385 . S
C1014 H1000 0.931 . S
C1014 C1013 1.385 . S
C1014 C1015 1.389 . S
C1015 C1014 1.389 . S
C1015 C1016 1.387 . S
C1016 H1001 0.930 . S
C1016 C1011 1.390 . S
C1016 C1015 1.387 . S
H1017 C1029 0.930 . S
H1018 C1031 0.930 . S
H1019 C1032 0.930 . S
H1020 C1036 0.959 . S
H1021 C1036 0.959 . S
H1022 C1036 0.961 . S
H1023 C1037 0.960 . S
H1024 C1037 0.961 . S
H1025 C1037 0.959 . S
H1026 C1040 0.929 . S
H1027 C1041 0.931 . S
H1028 C1043 0.930 . S
C1029 H1017 0.930 . S
C1029 C1030 1.399 . S
C1029 C1034 1.399 . S
C1030 C1029 1.399 . S
C1030 C1031 1.376 . S
C1031 H1018 0.930 . S
C1031 C1030 1.376 . S
C1031 C1032 1.388 . S
C1032 H1019 0.930 . S
C1032 C1031 1.388 . S
C1032 C1033 1.390 . S
C1033 C1032 1.390 . S
C1033 C1034 1.394 . S
C1033 C1039 1.465 . S
C1034 C1029 1.399 . S
C1034 C1033 1.394 . S
C1034 C1035 1.516 . S
C1035 C1034 1.516 . S
C1035 C1036 1.502 . S
C1035 C1037 1.561 . S
C1035 C1038 1.526 . S
C1036 H1020 0.959 . S
C1036 H1021 0.959 . S
C1036 H1022 0.961 . S
C1036 C1035 1.502 . S
C1037 H1023 0.960 . S
C1037 H1024 0.961 . S
C1037 H1025 0.959 . S
C1037 C1035 1.561 . S
C1038 C1035 1.526 . S
C1038 C1039 1.396 . S
C1038 C1043 1.390 . S
C1039 C1033 1.465 . S
C1039 C1038 1.396 . S
C1039 C1040 1.399 . S
C1040 H1026 0.929 . S
C1040 C1039 1.399 . S
C1040 C1041 1.385 . S
C1041 H1027 0.931 . S
C1041 C1040 1.385 . S
C1041 C1042 1.389 . S
C1042 C1041 1.389 . S
C1042 C1043 1.387 . S
C1043 H1028 0.930 . S
C1043 C1038 1.390 . S
C1043 C1042 1.387 . S
H1044 C1056 0.930 . S
H1045 C1058 0.930 . S
H1046 C1059 0.930 . S
H1047 C1063 0.959 . S
H1048 C1063 0.959 . S
H1049 C1063 0.961 . S
H1050 C1064 0.960 . S
H1051 C1064 0.961 . S
H1052 C1064 0.959 . S
H1053 C1067 0.929 . S
H1054 C1068 0.931 . S
H1055 C1070 0.930 . S
C1056 H1044 0.930 . S
C1056 C1057 1.399 . S
C1056 C1061 1.399 . S
C1057 C1056 1.399 . S
C1057 C1058 1.376 . S
C1058 H1045 0.930 . S
C1058 C1057 1.376 . S
C1058 C1059 1.388 . S
C1059 H1046 0.930 . S
C1059 C1058 1.388 . S
C1059 C1060 1.390 . S
C1060 C1059 1.390 . S
C1060 C1061 1.394 . S
C1060 C1066 1.465 . S
C1061 C1056 1.399 . S
C1061 C1060 1.394 . S
C1061 C1062 1.516 . S
C1062 C1061 1.516 . S
C1062 C1063 1.502 . S
C1062 C1064 1.561 . S
C1062 C1065 1.526 . S
C1063 H1047 0.959 . S
C1063 H1048 0.959 . S
C1063 H1049 0.961 . S
C1063 C1062 1.502 . S
C1064 H1050 0.960 . S
C1064 H1051 0.961 . S
C1064 H1052 0.959 . S
C1064 C1062 1.561 . S
C1065 C1062 1.526 . S
C1065 C1066 1.396 . S
C1065 C1070 1.390 . S
C1066 C1060 1.465 . S
C1066 C1065 1.396 . S
C1066 C1067 1.399 . S
C1067 H1053 0.929 . S
C1067 C1066 1.399 . S
C1067 C1068 1.385 . S
C1068 H1054 0.931 . S
C1068 C1067 1.385 . S
C1068 C1069 1.389 . S
C1069 C1068 1.389 . S
C1069 C1070 1.387 . S
C1070 H1055 0.930 . S
C1070 C1065 1.390 . S
C1070 C1069 1.387 . S
H1071 C1083 0.930 . S
H1072 C1085 0.930 . S
H1073 C1086 0.930 . S
H1074 C1090 0.959 . S
H1075 C1090 0.959 . S
H1076 C1090 0.961 . S
H1077 C1091 0.960 . S
H1078 C1091 0.961 . S
H1079 C1091 0.959 . S
H1080 C1094 0.929 . S
H1081 C1095 0.931 . S
H1082 C1097 0.952 . S
C1083 H1071 0.930 . S
C1083 C1084 1.399 . S
C1083 C1088 1.399 . S
C1084 C1083 1.399 . S
C1084 C1085 1.376 . S
C1085 H1072 0.930 . S
C1085 C1084 1.376 . S
C1085 C1086 1.388 . S
C1086 H1073 0.930 . S
C1086 C1085 1.388 . S
C1086 C1087 1.390 . S
C1087 C1086 1.390 . S
C1087 C1088 1.394 . S
C1087 C1093 1.465 . S
C1088 C1083 1.399 . S
C1088 C1087 1.394 . S
C1088 C1089 1.516 . S
C1089 C1088 1.516 . S
C1089 C1090 1.502 . S
C1089 C1091 1.561 . S
C1089 C1092 1.526 . S
C1090 H1074 0.959 . S
C1090 H1075 0.959 . S
C1090 H1076 0.961 . S
C1090 C1089 1.502 . S
C1091 H1077 0.960 . S
C1091 H1078 0.961 . S
C1091 H1079 0.959 . S
C1091 C1089 1.561 . S
C1092 C1089 1.526 . S
C1092 C1093 1.396 . S
C1092 C1097 1.390 . S
C1093 C1087 1.465 . S
C1093 C1092 1.396 . S
C1093 C1094 1.399 . S
C1094 H1080 0.929 . S
C1094 C1093 1.399 . S
C1094 C1095 1.385 . S
C1095 H1081 0.931 . S
C1095 C1094 1.385 . S
C1095 C1096 1.389 . S
C1096 C1095 1.389 . S
C1096 C1097 1.387 . S
C1097 H1082 0.952 . S
C1097 C1092 1.390 . S
C1097 C1096 1.387 . S
H1098 C1110 0.930 . S
H1099 C1112 0.930 . S
H1100 C1113 0.930 . S
H1101 C1117 0.959 . S
H1102 C1117 0.959 . S
H1103 C1117 0.961 . S
H1104 C1118 0.960 . S
H1105 C1118 0.961 . S
H1106 C1118 0.959 . S
H1107 C1121 0.929 . S
H1108 C1122 0.931 1_556 S
H1109 C1124 0.930 . S
C1110 H1098 0.930 . S
C1110 C1111 1.399 . S
C1110 C1115 1.399 . S
C1111 C1110 1.399 . S
C1111 C1112 1.376 . S
C1112 H1099 0.930 . S
C1112 C1111 1.376 . S
C1112 C1113 1.388 . S
C1113 H1100 0.930 . S
C1113 C1112 1.388 . S
C1113 C1114 1.390 . S
C1114 C1113 1.390 . S
C1114 C1115 1.394 . S
C1114 C1120 1.465 . S
C1115 C1110 1.399 . S
C1115 C1114 1.394 . S
C1115 C1116 1.516 . S
C1116 C1115 1.516 . S
C1116 C1117 1.502 . S
C1116 C1118 1.561 . S
C1116 C1119 1.526 . S
C1117 H1101 0.959 . S
C1117 H1102 0.959 . S
C1117 H1103 0.961 . S
C1117 C1116 1.502 . S
C1118 H1104 0.960 . S
C1118 H1105 0.961 . S
C1118 H1106 0.959 . S
C1118 C1116 1.561 . S
C1119 C1116 1.526 . S
C1119 C1120 1.396 . S
C1119 C1124 1.390 . S
C1120 C1114 1.465 . S
C1120 C1119 1.396 . S
C1120 C1121 1.399 . S
C1121 H1107 0.929 . S
C1121 C1120 1.399 . S
C1121 C1122 1.385 . S
C1122 H1108 0.931 1_554 S
C1122 C1121 1.385 . S
C1122 C1123 1.389 . S
C1123 C1122 1.389 . S
C1123 C1124 1.387 . S
C1124 H1109 0.930 . S
C1124 C1119 1.390 . S
C1124 C1123 1.387 . S
H1125 C1137 0.930 . S
H1126 C1139 0.930 . S
H1127 C1140 0.930 . S
H1128 C1144 0.959 . S
H1129 C1144 0.959 . S
H1130 C1144 0.961 . S
H1131 C1145 0.960 . S
H1132 C1145 0.961 . S
H1133 C1145 0.959 . S
H1134 C1148 0.929 . S
H1135 C1149 0.931 . S
H1136 C1151 0.930 . S
C1137 H1125 0.930 . S
C1137 C1138 1.399 . S
C1137 C1142 1.399 . S
C1138 C1137 1.399 . S
C1138 C1139 1.376 . S
C1139 H1126 0.930 . S
C1139 C1138 1.376 . S
C1139 C1140 1.388 . S
C1140 H1127 0.930 . S
C1140 C1139 1.388 . S
C1140 C1141 1.390 . S
C1141 C1140 1.390 . S
C1141 C1142 1.394 . S
C1141 C1147 1.465 . S
C1142 C1137 1.399 . S
C1142 C1141 1.394 . S
C1142 C1143 1.516 . S
C1143 C1142 1.516 . S
C1143 C1144 1.502 . S
C1143 C1145 1.561 . S
C1143 C1146 1.526 . S
C1144 H1128 0.959 . S
C1144 H1129 0.959 . S
C1144 H1130 0.961 . S
C1144 C1143 1.502 . S
C1145 H1131 0.960 . S
C1145 H1132 0.961 . S
C1145 H1133 0.959 . S
C1145 C1143 1.561 . S
C1146 C1143 1.526 . S
C1146 C1147 1.396 . S
C1146 C1151 1.390 . S
C1147 C1141 1.465 . S
C1147 C1146 1.396 . S
C1147 C1148 1.399 . S
C1148 H1134 0.929 . S
C1148 C1147 1.399 . S
C1148 C1149 1.385 . S
C1149 H1135 0.931 . S
C1149 C1148 1.385 . S
C1149 C1150 1.389 . S
C1150 C1149 1.389 . S
C1150 C1151 1.387 . S
C1151 H1136 0.930 . S
C1151 C1146 1.390 . S
C1151 C1150 1.387 . S
H1152 C1164 0.930 . S
H1153 C1166 0.930 . S
H1154 C1167 0.930 . S
H1155 C1171 0.959 . S
H1156 C1171 0.959 . S
H1157 C1171 0.961 . S
H1158 C1172 0.960 . S
H1159 C1172 0.961 . S
H1160 C1172 0.959 . S
H1161 C1175 0.929 . S
H1162 C1176 0.931 . S
H1163 C1178 0.930 . S
C1164 H1152 0.930 . S
C1164 C1165 1.399 . S
C1164 C1169 1.399 . S
C1165 C1164 1.399 . S
C1165 C1166 1.376 . S
C1166 H1153 0.930 . S
C1166 C1165 1.376 . S
C1166 C1167 1.388 . S
C1167 H1154 0.930 . S
C1167 C1166 1.388 . S
C1167 C1168 1.390 . S
C1168 C1167 1.390 . S
C1168 C1169 1.394 . S
C1168 C1174 1.465 . S
C1169 C1164 1.399 . S
C1169 C1168 1.394 . S
C1169 C1170 1.516 . S
C1170 C1169 1.516 . S
C1170 C1171 1.502 . S
C1170 C1172 1.561 . S
C1170 C1173 1.526 . S
C1171 H1155 0.959 . S
C1171 H1156 0.959 . S
C1171 H1157 0.961 . S
C1171 C1170 1.502 . S
C1172 H1158 0.960 . S
C1172 H1159 0.961 . S
C1172 H1160 0.959 . S
C1172 C1170 1.561 . S
C1173 C1170 1.526 . S
C1173 C1174 1.396 . S
C1173 C1178 1.390 . S
C1174 C1168 1.465 . S
C1174 C1173 1.396 . S
C1174 C1175 1.399 . S
C1175 H1161 0.929 . S
C1175 C1174 1.399 . S
C1175 C1176 1.385 . S
C1176 H1162 0.931 . S
C1176 C1175 1.385 . S
C1176 C1177 1.389 . S
C1177 C1176 1.389 . S
C1177 C1178 1.387 . S
C1178 H1163 0.930 . S
C1178 C1173 1.390 . S
C1178 C1177 1.387 . S
H1179 C1191 0.930 . S
H1180 C1193 0.930 . S
H1181 C1194 0.930 . S
H1182 C1198 0.959 . S
H1183 C1198 0.959 . S
H1184 C1198 0.961 . S
H1185 C1199 0.960 . S
H1186 C1199 0.961 . S
H1187 C1199 0.959 . S
H1188 C1202 0.929 . S
H1189 C1203 0.931 . S
H1190 C1205 0.930 . S
C1191 H1179 0.930 . S
C1191 C1192 1.399 . S
C1191 C1196 1.399 . S
C1192 C1191 1.399 . S
C1192 C1193 1.376 . S
C1193 H1180 0.930 . S
C1193 C1192 1.376 . S
C1193 C1194 1.388 . S
C1194 H1181 0.930 . S
C1194 C1193 1.388 . S
C1194 C1195 1.390 . S
C1195 C1194 1.390 . S
C1195 C1196 1.394 . S
C1195 C1201 1.465 . S
C1196 C1191 1.399 . S
C1196 C1195 1.394 . S
C1196 C1197 1.516 . S
C1197 C1196 1.516 . S
C1197 C1198 1.502 . S
C1197 C1199 1.561 . S
C1197 C1200 1.526 . S
C1198 H1182 0.959 . S
C1198 H1183 0.959 . S
C1198 H1184 0.961 . S
C1198 C1197 1.502 . S
C1199 H1185 0.960 . S
C1199 H1186 0.961 . S
C1199 H1187 0.959 . S
C1199 C1197 1.561 . S
C1200 C1197 1.526 . S
C1200 C1201 1.396 . S
C1200 C1205 1.390 . S
C1201 C1195 1.465 . S
C1201 C1200 1.396 . S
C1201 C1202 1.399 . S
C1202 H1188 0.929 . S
C1202 C1201 1.399 . S
C1202 C1203 1.385 . S
C1203 H1189 0.931 . S
C1203 C1202 1.385 . S
C1203 C1204 1.389 . S
C1204 C1203 1.389 . S
C1204 C1205 1.387 . S
C1205 H1190 0.930 . S
C1205 C1200 1.390 . S
C1205 C1204 1.387 . S
H1206 C1218 0.930 . S
H1207 C1220 0.930 . S
H1208 C1221 0.930 . S
H1209 C1225 0.959 . S
H1210 C1225 0.959 . S
H1211 C1225 0.961 . S
H1212 C1226 0.960 . S
H1213 C1226 0.961 . S
H1214 C1226 0.959 . S
H1215 C1229 0.929 . S
H1216 C1230 0.931 . S
H1217 C1232 0.930 . S
C1218 H1206 0.930 . S
C1218 C1219 1.399 . S
C1218 C1223 1.399 . S
C1219 C1218 1.399 . S
C1219 C1220 1.376 . S
C1220 H1207 0.930 . S
C1220 C1219 1.376 . S
C1220 C1221 1.388 . S
C1221 H1208 0.930 . S
C1221 C1220 1.388 . S
C1221 C1222 1.390 . S
C1222 C1221 1.390 . S
C1222 C1223 1.394 . S
C1222 C1228 1.465 . S
C1223 C1218 1.399 . S
C1223 C1222 1.394 . S
C1223 C1224 1.516 . S
C1224 C1223 1.516 . S
C1224 C1225 1.502 . S
C1224 C1226 1.561 . S
C1224 C1227 1.526 . S
C1225 H1209 0.959 . S
C1225 H1210 0.959 . S
C1225 H1211 0.961 . S
C1225 C1224 1.502 . S
C1226 H1212 0.960 . S
C1226 H1213 0.961 . S
C1226 H1214 0.959 . S
C1226 C1224 1.561 . S
C1227 C1224 1.526 . S
C1227 C1228 1.396 . S
C1227 C1232 1.390 . S
C1228 C1222 1.465 . S
C1228 C1227 1.396 . S
C1228 C1229 1.399 . S
C1229 H1215 0.929 . S
C1229 C1228 1.399 . S
C1229 C1230 1.385 . S
C1230 H1216 0.931 . S
C1230 C1229 1.385 . S
C1230 C1231 1.389 . S
C1231 C1230 1.389 . S
C1231 C1232 1.387 . S
C1232 H1217 0.930 . S
C1232 C1227 1.390 . S
C1232 C1231 1.387 . S
H1233 C1245 0.930 . S
H1234 C1247 0.930 . S
H1235 C1248 0.930 . S
H1236 C1252 0.959 . S
H1237 C1252 0.959 . S
H1238 C1252 0.961 . S
H1239 C1253 0.960 . S
H1240 C1253 0.961 . S
H1241 C1253 0.959 . S
H1242 C1256 0.929 . S
H1243 C1257 0.980 . S
H1244 C1259 0.930 . S
C1245 H1233 0.930 . S
C1245 C1246 1.399 . S
C1245 C1250 1.399 . S
C1246 C1245 1.399 . S
C1246 C1247 1.376 . S
C1247 H1234 0.930 . S
C1247 C1246 1.376 . S
C1247 C1248 1.388 . S
C1248 H1235 0.930 . S
C1248 C1247 1.388 . S
C1248 C1249 1.390 . S
C1249 C1248 1.390 . S
C1249 C1250 1.394 . S
C1249 C1255 1.465 . S
C1250 C1245 1.399 . S
C1250 C1249 1.394 . S
C1250 C1251 1.516 . S
C1251 C1250 1.516 . S
C1251 C1252 1.502 . S
C1251 C1253 1.561 . S
C1251 C1254 1.526 . S
C1252 H1236 0.959 . S
C1252 H1237 0.959 . S
C1252 H1238 0.961 . S
C1252 C1251 1.502 . S
C1253 H1239 0.960 . S
C1253 H1240 0.961 . S
C1253 H1241 0.959 . S
C1253 C1251 1.561 . S
C1254 C1251 1.526 . S
C1254 C1255 1.396 . S
C1254 C1259 1.390 . S
C1255 C1249 1.465 . S
C1255 C1254 1.396 . S
C1255 C1256 1.399 . S
C1256 H1242 0.929 . S
C1256 C1255 1.399 . S
C1256 C1257 1.359 1_556 S
C1257 H1243 0.980 . S
C1257 C1256 1.359 1_554 S
C1257 C1258 1.369 1_554 S
C1258 C1257 1.369 1_556 S
C1258 C1259 1.387 . S
C1259 H1244 0.930 . S
C1259 C1254 1.390 . S
C1259 C1258 1.387 . S
H1260 C1272 0.930 . S
H1261 C1274 0.930 . S
H1262 C1275 0.930 . S
H1263 C1279 0.959 . S
H1264 C1279 0.959 . S
H1265 C1279 0.961 . S
H1266 C1280 0.960 . S
H1267 C1280 0.961 . S
H1268 C1280 0.959 . S
H1269 C1283 0.929 . S
H1270 C1284 0.931 . S
H1271 C1286 0.930 . S
C1272 H1260 0.930 . S
C1272 C1273 1.399 . S
C1272 C1277 1.399 . S
C1273 C1272 1.399 . S
C1273 C1274 1.376 . S
C1274 H1261 0.930 . S
C1274 C1273 1.376 . S
C1274 C1275 1.388 . S
C1275 H1262 0.930 . S
C1275 C1274 1.388 . S
C1275 C1276 1.390 . S
C1276 C1275 1.390 . S
C1276 C1277 1.394 . S
C1276 C1282 1.465 . S
C1277 C1272 1.399 . S
C1277 C1276 1.394 . S
C1277 C1278 1.516 . S
C1278 C1277 1.516 . S
C1278 C1279 1.502 . S
C1278 C1280 1.561 . S
C1278 C1281 1.526 . S
C1279 H1263 0.959 . S
C1279 H1264 0.959 . S
C1279 H1265 0.961 . S
C1279 C1278 1.502 . S
C1280 H1266 0.960 . S
C1280 H1267 0.961 . S
C1280 H1268 0.959 . S
C1280 C1278 1.561 . S
C1281 C1278 1.526 . S
C1281 C1282 1.396 . S
C1281 C1286 1.390 . S
C1282 C1276 1.465 . S
C1282 C1281 1.396 . S
C1282 C1283 1.399 . S
C1283 H1269 0.929 . S
C1283 C1282 1.399 . S
C1283 C1284 1.385 . S
C1284 H1270 0.931 . S
C1284 C1283 1.385 . S
C1284 C1285 1.389 . S
C1285 C1284 1.389 . S
C1285 C1286 1.387 . S
C1286 H1271 0.930 . S
C1286 C1281 1.390 . S
C1286 C1285 1.387 . S
H1287 C1299 0.930 . S
H1288 C1301 0.930 . S
H1289 C1302 0.930 . S
H1290 C1306 0.959 . S
H1291 C1306 0.959 . S
H1292 C1306 0.961 . S
H1293 C1307 0.960 . S
H1294 C1307 0.961 . S
H1295 C1307 0.959 . S
H1296 C1310 0.929 . S
H1297 C1311 0.931 1_554 S
H1298 C1313 0.930 . S
C1299 H1287 0.930 . S
C1299 C1300 1.399 . S
C1299 C1304 1.399 . S
C1300 C1299 1.399 . S
C1300 C1301 1.376 . S
C1301 H1288 0.930 . S
C1301 C1300 1.376 . S
C1301 C1302 1.388 . S
C1302 H1289 0.930 . S
C1302 C1301 1.388 . S
C1302 C1303 1.390 . S
C1303 C1302 1.390 . S
C1303 C1304 1.394 . S
C1303 C1309 1.465 . S
C1304 C1299 1.399 . S
C1304 C1303 1.394 . S
C1304 C1305 1.516 . S
C1305 C1304 1.516 . S
C1305 C1306 1.502 . S
C1305 C1307 1.561 . S
C1305 C1308 1.526 . S
C1306 H1290 0.959 . S
C1306 H1291 0.959 . S
C1306 H1292 0.961 . S
C1306 C1305 1.502 . S
C1307 H1293 0.960 . S
C1307 H1294 0.961 . S
C1307 H1295 0.959 . S
C1307 C1305 1.561 . S
C1308 C1305 1.526 . S
C1308 C1309 1.396 . S
C1308 C1313 1.390 . S
C1309 C1303 1.465 . S
C1309 C1308 1.396 . S
C1309 C1310 1.399 . S
C1310 H1296 0.929 . S
C1310 C1309 1.399 . S
C1310 C1311 1.385 . S
C1311 H1297 0.931 1_556 S
C1311 C1310 1.385 . S
C1311 C1312 1.389 . S
C1312 C1311 1.389 . S
C1312 C1313 1.387 . S
C1313 H1298 0.930 . S
C1313 C1308 1.390 . S
C1313 C1312 1.387 . S
H1314 C1326 0.930 . S
H1315 C1328 0.930 . S
H1316 C1329 0.930 . S
H1317 C1333 0.959 . S
H1318 C1333 0.959 . S
H1319 C1333 0.961 . S
H1320 C1334 0.960 . S
H1321 C1334 0.961 . S
H1322 C1334 0.959 . S
H1323 C1337 0.929 . S
H1324 C1338 0.931 . S
H1325 C1340 0.930 . S
C1326 H1314 0.930 . S
C1326 C1327 1.399 . S
C1326 C1331 1.399 . S
C1327 C1326 1.399 . S
C1327 C1328 1.376 . S
C1328 H1315 0.930 . S
C1328 C1327 1.376 . S
C1328 C1329 1.388 . S
C1329 H1316 0.930 . S
C1329 C1328 1.388 . S
C1329 C1330 1.390 . S
C1330 C1329 1.390 . S
C1330 C1331 1.394 . S
C1330 C1336 1.465 . S
C1331 C1326 1.399 . S
C1331 C1330 1.394 . S
C1331 C1332 1.516 . S
C1332 C1331 1.516 . S
C1332 C1333 1.502 . S
C1332 C1334 1.561 . S
C1332 C1335 1.526 . S
C1333 H1317 0.959 . S
C1333 H1318 0.959 . S
C1333 H1319 0.961 . S
C1333 C1332 1.502 . S
C1334 H1320 0.960 . S
C1334 H1321 0.961 . S
C1334 H1322 0.959 . S
C1334 C1332 1.561 . S
C1335 C1332 1.526 . S
C1335 C1336 1.396 . S
C1335 C1340 1.390 . S
C1336 C1330 1.465 . S
C1336 C1335 1.396 . S
C1336 C1337 1.399 . S
C1337 H1323 0.929 . S
C1337 C1336 1.399 . S
C1337 C1338 1.385 . S
C1338 H1324 0.931 . S
C1338 C1337 1.385 . S
C1338 C1339 1.389 . S
C1339 C1338 1.389 . S
C1339 C1340 1.387 . S
C1340 H1325 0.930 . S
C1340 C1335 1.390 . S
C1340 C1339 1.387 . S
H1341 C1353 0.930 . S
H1342 C1355 0.930 . S
H1343 C1356 0.930 . S
H1344 C1360 0.959 . S
H1345 C1360 0.959 . S
H1346 C1360 0.961 . S
H1347 C1361 0.960 . S
H1348 C1361 0.961 . S
H1349 C1361 0.959 . S
H1350 C1364 0.929 . S
H1351 C1365 0.931 . S
H1352 C1367 0.930 . S
C1353 H1341 0.930 . S
C1353 C1354 1.399 . S
C1353 C1358 1.399 . S
C1354 C1353 1.399 . S
C1354 C1355 1.376 . S
C1355 H1342 0.930 . S
C1355 C1354 1.376 . S
C1355 C1356 1.388 . S
C1356 H1343 0.930 . S
C1356 C1355 1.388 . S
C1356 C1357 1.390 . S
C1357 C1356 1.390 . S
C1357 C1358 1.394 . S
C1357 C1363 1.465 . S
C1358 C1353 1.399 . S
C1358 C1357 1.394 . S
C1358 C1359 1.516 . S
C1359 C1358 1.516 . S
C1359 C1360 1.502 . S
C1359 C1361 1.561 . S
C1359 C1362 1.526 . S
C1360 H1344 0.959 . S
C1360 H1345 0.959 . S
C1360 H1346 0.961 . S
C1360 C1359 1.502 . S
C1361 H1347 0.960 . S
C1361 H1348 0.961 . S
C1361 H1349 0.959 . S
C1361 C1359 1.561 . S
C1362 C1359 1.526 . S
C1362 C1363 1.396 . S
C1362 C1367 1.390 . S
C1363 C1357 1.465 . S
C1363 C1362 1.396 . S
C1363 C1364 1.399 . S
C1364 H1350 0.929 . S
C1364 C1363 1.399 . S
C1364 C1365 1.385 . S
C1365 H1351 0.931 . S
C1365 C1364 1.385 . S
C1365 C1366 1.389 . S
C1366 C1365 1.389 . S
C1366 C1367 1.387 . S
C1367 H1352 0.930 . S
C1367 C1362 1.390 . S
C1367 C1366 1.387 . S
H1368 C1380 0.930 . S
H1369 C1382 0.930 . S
H1370 C1383 0.930 . S
H1371 C1387 0.959 . S
H1372 C1387 0.959 . S
H1373 C1387 0.961 . S
H1374 C1388 0.960 . S
H1375 C1388 0.961 . S
H1376 C1388 0.959 . S
H1377 C1391 0.929 . S
H1378 C1392 0.931 . S
H1379 C1394 0.930 . S
C1380 H1368 0.930 . S
C1380 C1381 1.399 . S
C1380 C1385 1.399 . S
C1381 C1380 1.399 . S
C1381 C1382 1.376 . S
C1382 H1369 0.930 . S
C1382 C1381 1.376 . S
C1382 C1383 1.388 . S
C1383 H1370 0.930 . S
C1383 C1382 1.388 . S
C1383 C1384 1.390 . S
C1384 C1383 1.390 . S
C1384 C1385 1.394 . S
C1384 C1390 1.465 . S
C1385 C1380 1.399 . S
C1385 C1384 1.394 . S
C1385 C1386 1.516 . S
C1386 C1385 1.516 . S
C1386 C1387 1.502 . S
C1386 C1388 1.561 . S
C1386 C1389 1.526 . S
C1387 H1371 0.959 . S
C1387 H1372 0.959 . S
C1387 H1373 0.961 . S
C1387 C1386 1.502 . S
C1388 H1374 0.960 . S
C1388 H1375 0.961 . S
C1388 H1376 0.959 . S
C1388 C1386 1.561 . S
C1389 C1386 1.526 . S
C1389 C1390 1.396 . S
C1389 C1394 1.390 . S
C1390 C1384 1.465 . S
C1390 C1389 1.396 . S
C1390 C1391 1.399 . S
C1391 H1377 0.929 . S
C1391 C1390 1.399 . S
C1391 C1392 1.385 . S
C1392 H1378 0.931 . S
C1392 C1391 1.385 . S
C1392 C1393 1.389 . S
C1393 C1392 1.389 . S
C1393 C1394 1.387 . S
C1394 H1379 0.930 . S
C1394 C1389 1.390 . S
C1394 C1393 1.387 . S
H1395 C1407 0.930 . S
H1396 C1409 0.930 . S
H1397 C1410 0.930 . S
H1398 C1414 0.959 . S
H1399 C1414 0.959 . S
H1400 C1414 0.961 . S
H1401 C1415 0.960 . S
H1402 C1415 0.961 . S
H1403 C1415 0.959 . S
H1404 C1418 0.929 . S
H1405 C1419 0.931 . S
H1406 C1421 0.930 . S
C1407 H1395 0.930 . S
C1407 C1408 1.399 . S
C1407 C1412 1.399 . S
C1408 C1407 1.399 . S
C1408 C1409 1.376 . S
C1409 H1396 0.930 . S
C1409 C1408 1.376 . S
C1409 C1410 1.388 . S
C1410 H1397 0.930 . S
C1410 C1409 1.388 . S
C1410 C1411 1.390 . S
C1411 C1410 1.390 . S
C1411 C1412 1.394 . S
C1411 C1417 1.465 . S
C1412 C1407 1.399 . S
C1412 C1411 1.394 . S
C1412 C1413 1.516 . S
C1413 C1412 1.516 . S
C1413 C1414 1.502 . S
C1413 C1415 1.561 . S
C1413 C1416 1.526 . S
C1414 H1398 0.959 . S
C1414 H1399 0.959 . S
C1414 H1400 0.961 . S
C1414 C1413 1.502 . S
C1415 H1401 0.960 . S
C1415 H1402 0.961 . S
C1415 H1403 0.959 . S
C1415 C1413 1.561 . S
C1416 C1413 1.526 . S
C1416 C1417 1.396 . S
C1416 C1421 1.390 . S
C1417 C1411 1.465 . S
C1417 C1416 1.396 . S
C1417 C1418 1.399 . S
C1418 H1404 0.929 . S
C1418 C1417 1.399 . S
C1418 C1419 1.385 . S
C1419 H1405 0.931 . S
C1419 C1418 1.385 . S
C1419 C1420 1.389 . S
C1420 C1419 1.389 . S
C1420 C1421 1.387 . S
C1421 H1406 0.930 . S
C1421 C1416 1.390 . S
C1421 C1420 1.387 . S
H1422 C1434 0.930 . S
H1423 C1436 0.930 . S
H1424 C1437 0.930 . S
H1425 C1441 0.959 . S
H1426 C1441 0.959 . S
H1427 C1441 0.961 . S
H1428 C1442 0.960 . S
H1429 C1442 0.961 . S
H1430 C1442 0.959 . S
H1431 C1445 0.929 . S
H1432 C1446 0.931 . S
H1433 C1448 0.930 . S
C1434 H1422 0.930 . S
C1434 C1435 1.399 . S
C1434 C1439 1.399 . S
C1435 C1434 1.399 . S
C1435 C1436 1.376 . S
C1436 H1423 0.930 . S
C1436 C1435 1.376 . S
C1436 C1437 1.388 . S
C1437 H1424 0.930 . S
C1437 C1436 1.388 . S
C1437 C1438 1.390 . S
C1438 C1437 1.390 . S
C1438 C1439 1.394 . S
C1438 C1444 1.465 . S
C1439 C1434 1.399 . S
C1439 C1438 1.394 . S
C1439 C1440 1.516 . S
C1440 C1439 1.516 . S
C1440 C1441 1.502 . S
C1440 C1442 1.561 . S
C1440 C1443 1.526 . S
C1441 H1425 0.959 . S
C1441 H1426 0.959 . S
C1441 H1427 0.961 . S
C1441 C1440 1.502 . S
C1442 H1428 0.960 . S
C1442 H1429 0.961 . S
C1442 H1430 0.959 . S
C1442 C1440 1.561 . S
C1443 C1440 1.526 . S
C1443 C1444 1.396 . S
C1443 C1448 1.390 . S
C1444 C1438 1.465 . S
C1444 C1443 1.396 . S
C1444 C1445 1.399 . S
C1445 H1431 0.929 . S
C1445 C1444 1.399 . S
C1445 C1446 1.385 . S
C1446 H1432 0.931 . S
C1446 C1445 1.385 . S
C1446 C1447 1.389 . S
C1447 C1446 1.389 . S
C1447 C1448 1.387 . S
C1448 H1433 0.930 . S
C1448 C1443 1.390 . S
C1448 C1447 1.387 . S
H1449 C1461 0.930 . S
H1450 C1463 0.930 . S
H1451 C1464 0.930 . S
H1452 C1468 0.959 . S
H1453 C1468 0.959 . S
H1454 C1468 0.961 . S
H1455 C1469 0.960 . S
H1456 C1469 0.961 . S
H1457 C1469 0.959 . S
H1458 C1472 0.929 . S
H1459 C1473 0.931 . S
H1460 C1475 0.930 . S
C1461 H1449 0.930 . S
C1461 C1462 1.399 . S
C1461 C1466 1.399 . S
C1462 C1461 1.399 . S
C1462 C1463 1.376 . S
C1463 H1450 0.930 . S
C1463 C1462 1.376 . S
C1463 C1464 1.388 . S
C1464 H1451 0.930 . S
C1464 C1463 1.388 . S
C1464 C1465 1.390 . S
C1465 C1464 1.390 . S
C1465 C1466 1.394 . S
C1465 C1471 1.465 . S
C1466 C1461 1.399 . S
C1466 C1465 1.394 . S
C1466 C1467 1.516 . S
C1467 C1466 1.516 . S
C1467 C1468 1.502 . S
C1467 C1469 1.561 . S
C1467 C1470 1.526 . S
C1468 H1452 0.959 . S
C1468 H1453 0.959 . S
C1468 H1454 0.961 . S
C1468 C1467 1.502 . S
C1469 H1455 0.960 . S
C1469 H1456 0.961 . S
C1469 H1457 0.959 . S
C1469 C1467 1.561 . S
C1470 C1467 1.526 . S
C1470 C1471 1.396 . S
C1470 C1475 1.390 . S
C1471 C1465 1.465 . S
C1471 C1470 1.396 . S
C1471 C1472 1.399 . S
C1472 H1458 0.929 . S
C1472 C1471 1.399 . S
C1472 C1473 1.385 . S
C1473 H1459 0.931 . S
C1473 C1472 1.385 . S
C1473 C1474 1.389 . S
C1474 C1473 1.389 . S
C1474 C1475 1.387 . S
C1475 H1460 0.930 . S
C1475 C1470 1.390 . S
C1475 C1474 1.387 . S
H1476 C1488 0.930 1_565 S
H1477 C1490 0.930 . S
H1478 C1491 0.930 . S
H1479 C1495 0.959 . S
H1480 C1495 0.959 . S
H1481 C1495 0.961 . S
H1482 C1496 0.960 . S
H1483 C1496 0.961 . S
H1484 C1496 0.959 . S
H1485 C1499 0.929 . S
H1486 C1500 0.931 . S
H1487 C1502 0.930 1_565 S
C1488 H1476 0.930 1_545 S
C1488 C1489 1.399 . S
C1488 C1493 1.399 . S
C1489 C1488 1.399 . S
C1489 C1490 1.376 . S
C1490 H1477 0.930 . S
C1490 C1489 1.376 . S
C1490 C1491 1.388 . S
C1491 H1478 0.930 . S
C1491 C1490 1.388 . S
C1491 C1492 1.390 . S
C1492 C1491 1.390 . S
C1492 C1493 1.394 . S
C1492 C1498 1.465 . S
C1493 C1488 1.399 . S
C1493 C1492 1.394 . S
C1493 C1494 1.516 1_545 S
C1494 C1493 1.516 1_565 S
C1494 C1495 1.502 . S
C1494 C1496 1.561 . S
C1494 C1497 1.526 1_565 S
C1495 H1479 0.959 . S
C1495 H1480 0.959 . S
C1495 H1481 0.961 . S
C1495 C1494 1.502 . S
C1496 H1482 0.960 . S
C1496 H1483 0.961 . S
C1496 H1484 0.959 . S
C1496 C1494 1.561 . S
C1497 C1494 1.526 1_545 S
C1497 C1498 1.396 . S
C1497 C1502 1.390 . S
C1498 C1492 1.465 . S
C1498 C1497 1.396 . S
C1498 C1499 1.399 . S
C1499 H1485 0.929 . S
C1499 C1498 1.399 . S
C1499 C1500 1.385 . S
C1500 H1486 0.931 . S
C1500 C1499 1.385 . S
C1500 C1501 1.389 . S
C1501 C1500 1.389 . S
C1501 C1502 1.387 . S
C1502 H1487 0.930 1_545 S
C1502 C1497 1.390 . S
C1502 C1501 1.387 . S
H1503 C1515 0.930 . S
H1504 C1517 0.930 . S
H1505 C1518 0.930 . S
H1506 C1522 0.959 . S
H1507 C1522 0.959 . S
H1508 C1522 0.961 . S
H1509 C1523 0.960 . S
H1510 C1523 0.961 . S
H1511 C1523 0.959 1_655 S
H1512 C1526 0.929 . S
H1513 C1527 0.931 . S
H1514 C1529 0.930 . S
C1515 H1503 0.930 . S
C1515 C1516 1.399 1_455 S
C1515 C1520 1.399 1_455 S
C1516 C1515 1.399 1_655 S
C1516 C1517 1.376 . S
C1517 H1504 0.930 . S
C1517 C1516 1.376 . S
C1517 C1518 1.388 . S
C1518 H1505 0.930 . S
C1518 C1517 1.388 . S
C1518 C1519 1.390 . S
C1519 C1518 1.390 . S
C1519 C1520 1.394 . S
C1519 C1525 1.465 . S
C1520 C1515 1.399 1_655 S
C1520 C1519 1.394 . S
C1520 C1521 1.516 1_655 S
C1521 C1520 1.516 1_455 S
C1521 C1522 1.502 . S
C1521 C1523 1.561 . S
C1521 C1524 1.525 . S
C1522 H1506 0.959 . S
C1522 H1507 0.959 . S
C1522 H1508 0.961 . S
C1522 C1521 1.502 . S
C1523 H1509 0.960 . S
C1523 H1510 0.961 . S
C1523 H1511 0.959 1_455 S
C1523 C1521 1.561 . S
C1524 C1521 1.525 . S
C1524 C1525 1.390 1_455 S
C1524 C1529 1.395 . S
C1525 C1519 1.465 . S
C1525 C1524 1.390 1_655 S
C1525 C1526 1.399 . S
C1526 H1512 0.929 . S
C1526 C1525 1.399 . S
C1526 C1527 1.385 . S
C1527 H1513 0.931 . S
C1527 C1526 1.385 . S
C1527 C1528 1.389 . S
C1528 C1527 1.389 . S
C1528 C1529 1.387 1_655 S
C1529 H1514 0.930 . S
C1529 C1524 1.395 . S
C1529 C1528 1.387 1_455 S
H1530 C1542 0.930 . S
H1531 C1544 0.930 . S
H1532 C1545 0.930 . S
H1533 C1549 0.959 . S
H1534 C1549 0.959 . S
H1535 C1549 0.961 . S
H1536 C1550 0.960 . S
H1537 C1550 0.961 . S
H1538 C1550 0.959 . S
H1539 C1553 0.929 . S
H1540 C1554 0.931 . S
H1541 C1556 0.930 . S
C1542 H1530 0.930 . S
C1542 C1543 1.399 . S
C1542 C1547 1.399 . S
C1543 C1542 1.399 . S
C1543 C1544 1.376 . S
C1544 H1531 0.930 . S
C1544 C1543 1.376 . S
C1544 C1545 1.388 . S
C1545 H1532 0.930 . S
C1545 C1544 1.388 . S
C1545 C1546 1.390 . S
C1546 C1545 1.390 . S
C1546 C1547 1.394 . S
C1546 C1552 1.465 . S
C1547 C1542 1.399 . S
C1547 C1546 1.394 . S
C1547 C1548 1.516 . S
C1548 C1547 1.516 . S
C1548 C1549 1.502 . S
C1548 C1550 1.561 . S
C1548 C1551 1.526 . S
C1549 H1533 0.959 . S
C1549 H1534 0.959 . S
C1549 H1535 0.961 . S
C1549 C1548 1.502 . S
C1550 H1536 0.960 . S
C1550 H1537 0.961 . S
C1550 H1538 0.959 . S
C1550 C1548 1.561 . S
C1551 C1548 1.526 . S
C1551 C1552 1.396 . S
C1551 C1556 1.390 . S
C1552 C1546 1.465 . S
C1552 C1551 1.396 . S
C1552 C1553 1.399 . S
C1553 H1539 0.929 . S
C1553 C1552 1.399 . S
C1553 C1554 1.385 . S
C1554 H1540 0.931 . S
C1554 C1553 1.385 . S
C1554 C1555 1.389 . S
C1555 C1554 1.389 . S
C1555 C1556 1.387 . S
C1556 H1541 0.930 . S
C1556 C1551 1.390 . S
C1556 C1555 1.387 . S
H1557 C1569 0.930 . S
H1558 C1571 0.930 . S
H1559 C1572 0.930 . S
H1560 C1576 0.959 . S
H1561 C1576 0.959 . S
H1562 C1576 0.961 . S
H1563 C1577 0.960 . S
H1564 C1577 0.961 . S
H1565 C1577 0.959 1_655 S
H1566 C1580 0.929 . S
H1567 C1581 0.931 . S
H1568 C1583 0.930 . S
C1569 H1557 0.930 . S
C1569 C1570 1.399 . S
C1569 C1574 1.399 . S
C1570 C1569 1.399 . S
C1570 C1571 1.376 . S
C1571 H1558 0.930 . S
C1571 C1570 1.376 . S
C1571 C1572 1.388 . S
C1572 H1559 0.930 . S
C1572 C1571 1.388 . S
C1572 C1573 1.390 . S
C1573 C1572 1.390 . S
C1573 C1574 1.394 . S
C1573 C1579 1.465 . S
C1574 C1569 1.399 . S
C1574 C1573 1.394 . S
C1574 C1575 1.516 . S
C1575 C1574 1.516 . S
C1575 C1576 1.502 . S
C1575 C1577 1.561 . S
C1575 C1578 1.526 . S
C1576 H1560 0.959 . S
C1576 H1561 0.959 . S
C1576 H1562 0.961 . S
C1576 C1575 1.502 . S
C1577 H1563 0.960 . S
C1577 H1564 0.961 . S
C1577 H1565 0.959 1_455 S
C1577 C1575 1.561 . S
C1578 C1575 1.526 . S
C1578 C1579 1.396 . S
C1578 C1583 1.390 . S
C1579 C1573 1.465 . S
C1579 C1578 1.396 . S
C1579 C1580 1.399 . S
C1580 H1566 0.929 . S
C1580 C1579 1.399 . S
C1580 C1581 1.385 . S
C1581 H1567 0.931 . S
C1581 C1580 1.385 . S
C1581 C1582 1.389 . S
C1582 C1581 1.389 . S
C1582 C1583 1.387 . S
C1583 H1568 0.930 . S
C1583 C1578 1.390 . S
C1583 C1582 1.387 . S
H1584 C1596 0.930 . S
H1585 C1598 0.930 . S
H1586 C1599 0.930 . S
H1587 C1603 0.959 . S
H1588 C1603 0.959 . S
H1589 C1603 0.961 . S
H1590 C1604 0.960 . S
H1591 C1604 0.961 . S
H1592 C1604 0.959 . S
H1593 C1607 0.929 . S
H1594 C1608 0.931 . S
H1595 C1610 0.930 . S
C1596 H1584 0.930 . S
C1596 C1597 1.399 . S
C1596 C1601 1.399 . S
C1597 C1596 1.399 . S
C1597 C1598 1.376 . S
C1598 H1585 0.930 . S
C1598 C1597 1.376 . S
C1598 C1599 1.388 . S
C1599 H1586 0.930 . S
C1599 C1598 1.388 . S
C1599 C1600 1.390 . S
C1600 C1599 1.390 . S
C1600 C1601 1.394 . S
C1600 C1606 1.465 . S
C1601 C1596 1.399 . S
C1601 C1600 1.394 . S
C1601 C1602 1.516 . S
C1602 C1601 1.516 . S
C1602 C1603 1.502 . S
C1602 C1604 1.561 . S
C1602 C1605 1.526 . S
C1603 H1587 0.959 . S
C1603 H1588 0.959 . S
C1603 H1589 0.961 . S
C1603 C1602 1.502 . S
C1604 H1590 0.960 . S
C1604 H1591 0.961 . S
C1604 H1592 0.959 . S
C1604 C1602 1.561 . S
C1605 C1602 1.526 . S
C1605 C1606 1.396 . S
C1605 C1610 1.390 . S
C1606 C1600 1.465 . S
C1606 C1605 1.396 . S
C1606 C1607 1.399 . S
C1607 H1593 0.929 . S
C1607 C1606 1.399 . S
C1607 C1608 1.385 . S
C1608 H1594 0.931 . S
C1608 C1607 1.385 . S
C1608 C1609 1.389 . S
C1609 C1608 1.389 . S
C1609 C1610 1.387 . S
C1610 H1595 0.930 . S
C1610 C1605 1.390 . S
C1610 C1609 1.387 . S
H1611 C1623 0.930 . S
H1612 C1625 0.930 . S
H1613 C1626 0.930 . S
H1614 C1630 0.959 . S
H1615 C1630 0.959 . S
H1616 C1630 0.961 . S
H1617 C1631 0.960 . S
H1618 C1631 0.961 . S
H1619 C1631 0.959 . S
H1620 C1634 0.929 . S
H1621 C1635 0.931 . S
H1622 C1637 0.930 . S
C1623 H1611 0.930 . S
C1623 C1624 1.399 1_545 S
C1623 C1628 1.399 . S
C1624 C1623 1.399 1_565 S
C1624 C1625 1.376 . S
C1625 H1612 0.930 . S
C1625 C1624 1.376 . S
C1625 C1626 1.388 . S
C1626 H1613 0.930 . S
C1626 C1625 1.388 . S
C1626 C1627 1.390 . S
C1627 C1626 1.390 . S
C1627 C1628 1.394 1_565 S
C1627 C1633 1.465 . S
C1628 C1623 1.399 . S
C1628 C1627 1.394 1_545 S
C1628 C1629 1.516 . S
C1629 C1628 1.516 . S
C1629 C1630 1.502 . S
C1629 C1631 1.561 . S
C1629 C1632 1.526 . S
C1630 H1614 0.959 . S
C1630 H1615 0.959 . S
C1630 H1616 0.961 . S
C1630 C1629 1.502 . S
C1631 H1617 0.960 . S
C1631 H1618 0.961 . S
C1631 H1619 0.959 . S
C1631 C1629 1.561 . S
C1632 C1629 1.526 . S
C1632 C1633 1.396 1_545 S
C1632 C1637 1.390 . S
C1633 C1627 1.465 . S
C1633 C1632 1.396 1_565 S
C1633 C1634 1.399 . S
C1634 H1620 0.929 . S
C1634 C1633 1.399 . S
C1634 C1635 1.385 . S
C1635 H1621 0.931 . S
C1635 C1634 1.385 . S
C1635 C1636 1.389 . S
C1636 C1635 1.389 . S
C1636 C1637 1.387 1_565 S
C1637 H1622 0.930 . S
C1637 C1632 1.390 . S
C1637 C1636 1.387 1_545 S
H1638 C1650 0.930 . S
H1639 C1652 0.930 . S
H1640 C1653 0.930 . S
H1641 C1657 0.959 . S
H1642 C1657 0.959 . S
H1643 C1657 0.961 . S
H1644 C1658 0.960 . S
H1645 C1658 0.961 . S
H1646 C1658 0.959 . S
H1647 C1661 0.929 . S
H1648 C1662 0.931 . S
H1649 C1664 0.930 . S
C1650 H1638 0.930 . S
C1650 C1651 1.399 1_545 S
C1650 C1655 1.399 . S
C1651 C1650 1.399 1_565 S
C1651 C1652 1.376 . S
C1652 H1639 0.930 . S
C1652 C1651 1.376 . S
C1652 C1653 1.388 . S
C1653 H1640 0.930 . S
C1653 C1652 1.388 . S
C1653 C1654 1.390 . S
C1654 C1653 1.390 . S
C1654 C1655 1.394 1_565 S
C1654 C1660 1.465 . S
C1655 C1650 1.399 . S
C1655 C1654 1.394 1_545 S
C1655 C1656 1.516 . S
C1656 C1655 1.516 . S
C1656 C1657 1.502 . S
C1656 C1658 1.561 . S
C1656 C1659 1.526 . S
C1657 H1641 0.959 . S
C1657 H1642 0.959 . S
C1657 H1643 0.961 . S
C1657 C1656 1.502 . S
C1658 H1644 0.960 . S
C1658 H1645 0.961 . S
C1658 H1646 0.959 . S
C1658 C1656 1.561 . S
C1659 C1656 1.526 . S
C1659 C1660 1.396 1_545 S
C1659 C1664 1.390 . S
C1660 C1654 1.465 . S
C1660 C1659 1.396 1_565 S
C1660 C1661 1.399 . S
C1661 H1647 0.929 . S
C1661 C1660 1.399 . S
C1661 C1662 1.385 . S
C1662 H1648 0.931 . S
C1662 C1661 1.385 . S
C1662 C1663 1.389 . S
C1663 C1662 1.389 . S
C1663 C1664 1.387 1_565 S
C1664 H1649 0.930 . S
C1664 C1659 1.390 . S
C1664 C1663 1.387 1_545 S
H1665 C1677 0.930 . S
H1666 C1679 0.930 . S
H1667 C1680 0.930 . S
H1668 C1684 0.959 1_655 S
H1669 C1684 0.959 . S
H1670 C1684 0.961 . S
H1671 C1685 0.960 . S
H1672 C1685 0.961 . S
H1673 C1685 0.959 . S
H1674 C1688 0.929 . S
H1675 C1689 0.931 . S
H1676 C1691 0.930 . S
C1677 H1665 0.930 . S
C1677 C1678 1.399 . S
C1677 C1682 1.399 . S
C1678 C1677 1.399 . S
C1678 C1679 1.376 . S
C1679 H1666 0.930 . S
C1679 C1678 1.376 . S
C1679 C1680 1.388 . S
C1680 H1667 0.930 . S
C1680 C1679 1.388 . S
C1680 C1681 1.390 . S
C1681 C1680 1.390 . S
C1681 C1682 1.394 . S
C1681 C1687 1.465 . S
C1682 C1677 1.399 . S
C1682 C1681 1.394 . S
C1682 C1683 1.516 . S
C1683 C1682 1.516 . S
C1683 C1684 1.502 . S
C1683 C1685 1.561 . S
C1683 C1686 1.526 . S
C1684 H1668 0.959 1_455 S
C1684 H1669 0.959 . S
C1684 H1670 0.961 . S
C1684 C1683 1.502 . S
C1685 H1671 0.960 . S
C1685 H1672 0.961 . S
C1685 H1673 0.959 . S
C1685 C1683 1.561 . S
C1686 C1683 1.526 . S
C1686 C1687 1.396 . S
C1686 C1691 1.390 . S
C1687 C1681 1.465 . S
C1687 C1686 1.396 . S
C1687 C1688 1.399 . S
C1688 H1674 0.929 . S
C1688 C1687 1.399 . S
C1688 C1689 1.385 . S
C1689 H1675 0.931 . S
C1689 C1688 1.385 . S
C1689 C1690 1.389 . S
C1690 C1689 1.389 . S
C1690 C1691 1.387 . S
C1691 H1676 0.930 . S
C1691 C1686 1.390 . S
C1691 C1690 1.387 . S
H1692 C1704 0.930 . S
H1693 C1706 0.930 . S
H1694 C1707 0.930 . S
H1695 C1711 0.959 . S
H1696 C1711 0.959 . S
H1697 C1711 0.961 . S
H1698 C1712 0.960 . S
H1699 C1712 0.961 . S
H1700 C1712 0.959 . S
H1701 C1715 0.929 . S
H1702 C1716 0.931 . S
H1703 C1718 0.930 . S
C1704 H1692 0.930 . S
C1704 C1705 1.399 . S
C1704 C1709 1.399 . S
C1705 C1704 1.399 . S
C1705 C1706 1.376 . S
C1706 H1693 0.930 . S
C1706 C1705 1.376 . S
C1706 C1707 1.388 . S
C1707 H1694 0.930 . S
C1707 C1706 1.388 . S
C1707 C1708 1.390 . S
C1708 C1707 1.390 . S
C1708 C1709 1.394 . S
C1708 C1714 1.465 . S
C1709 C1704 1.399 . S
C1709 C1708 1.394 . S
C1709 C1710 1.516 . S
C1710 C1709 1.516 . S
C1710 C1711 1.502 . S
C1710 C1712 1.561 . S
C1710 C1713 1.526 . S
C1711 H1695 0.959 . S
C1711 H1696 0.959 . S
C1711 H1697 0.961 . S
C1711 C1710 1.502 . S
C1712 H1698 0.960 . S
C1712 H1699 0.961 . S
C1712 H1700 0.959 . S
C1712 C1710 1.561 . S
C1713 C1710 1.526 . S
C1713 C1714 1.396 . S
C1713 C1718 1.390 . S
C1714 C1708 1.465 . S
C1714 C1713 1.396 . S
C1714 C1715 1.399 . S
C1715 H1701 0.929 . S
C1715 C1714 1.399 . S
C1715 C1716 1.385 . S
C1716 H1702 0.931 . S
C1716 C1715 1.385 . S
C1716 C1717 1.389 . S
C1717 C1716 1.389 . S
C1717 C1718 1.387 . S
C1718 H1703 0.930 . S
C1718 C1713 1.390 . S
C1718 C1717 1.387 . S
H1719 C1731 0.930 1_455 S
H1720 C1733 0.930 . S
H1721 C1734 0.930 . S
H1722 C1738 0.959 . S
H1723 C1738 0.959 . S
H1724 C1738 0.961 . S
H1725 C1739 0.960 . S
H1726 C1739 0.961 . S
H1727 C1739 0.959 . S
H1728 C1742 0.929 . S
H1729 C1743 0.931 . S
H1730 C1745 0.930 1_455 S
C1731 H1719 0.930 1_655 S
C1731 C1732 1.399 . S
C1731 C1736 1.399 . S
C1732 C1731 1.399 . S
C1732 C1733 1.376 . S
C1733 H1720 0.930 . S
C1733 C1732 1.376 . S
C1733 C1734 1.388 . S
C1734 H1721 0.930 . S
C1734 C1733 1.388 . S
C1734 C1735 1.390 . S
C1735 C1734 1.390 . S
C1735 C1736 1.394 . S
C1735 C1741 1.465 . S
C1736 C1731 1.399 . S
C1736 C1735 1.394 . S
C1736 C1737 1.516 . S
C1737 C1736 1.516 . S
C1737 C1738 1.502 1_655 S
C1737 C1739 1.561 . S
C1737 C1740 1.526 . S
C1738 H1722 0.959 . S
C1738 H1723 0.959 . S
C1738 H1724 0.961 . S
C1738 C1737 1.502 1_455 S
C1739 H1725 0.960 . S
C1739 H1726 0.961 . S
C1739 H1727 0.959 . S
C1739 C1737 1.561 . S
C1740 C1737 1.526 . S
C1740 C1741 1.396 . S
C1740 C1745 1.390 . S
C1741 C1735 1.465 . S
C1741 C1740 1.396 . S
C1741 C1742 1.399 . S
C1742 H1728 0.929 . S
C1742 C1741 1.399 . S
C1742 C1743 1.385 . S
C1743 H1729 0.931 . S
C1743 C1742 1.385 . S
C1743 C1744 1.389 . S
C1744 C1743 1.389 . S
C1744 C1745 1.387 . S
C1745 H1730 0.930 1_655 S
C1745 C1740 1.390 . S
C1745 C1744 1.387 . S
H1746 C1758 0.930 . S
H1747 C1760 0.930 . S
H1748 C1761 0.930 . S
H1749 C1765 0.959 . S
H1750 C1765 0.959 . S
H1751 C1765 0.961 . S
H1752 C1766 0.960 . S
H1753 C1766 0.961 . S
H1754 C1766 0.959 . S
H1755 C1769 0.929 . S
H1756 C1770 0.931 . S
H1757 C1772 0.930 . S
C1758 H1746 0.930 . S
C1758 C1759 1.399 . S
C1758 C1763 1.399 . S
C1759 C1758 1.399 . S
C1759 C1760 1.376 . S
C1760 H1747 0.930 . S
C1760 C1759 1.376 . S
C1760 C1761 1.388 . S
C1761 H1748 0.930 . S
C1761 C1760 1.388 . S
C1761 C1762 1.390 . S
C1762 C1761 1.390 . S
C1762 C1763 1.394 . S
C1762 C1768 1.465 . S
C1763 C1758 1.399 . S
C1763 C1762 1.394 . S
C1763 C1764 1.516 . S
C1764 C1763 1.516 . S
C1764 C1765 1.502 . S
C1764 C1766 1.561 . S
C1764 C1767 1.526 . S
C1765 H1749 0.959 . S
C1765 H1750 0.959 . S
C1765 H1751 0.961 . S
C1765 C1764 1.502 . S
C1766 H1752 0.960 . S
C1766 H1753 0.961 . S
C1766 H1754 0.959 . S
C1766 C1764 1.561 . S
C1767 C1764 1.526 . S
C1767 C1768 1.396 . S
C1767 C1772 1.390 . S
C1768 C1762 1.465 . S
C1768 C1767 1.396 . S
C1768 C1769 1.399 . S
C1769 H1755 0.929 . S
C1769 C1768 1.399 . S
C1769 C1770 1.385 . S
C1770 H1756 0.931 . S
C1770 C1769 1.385 . S
C1770 C1771 1.389 . S
C1771 C1770 1.389 . S
C1771 C1772 1.387 . S
C1772 H1757 0.930 . S
C1772 C1767 1.390 . S
C1772 C1771 1.387 . S
H1773 C1785 0.930 . S
H1774 C1787 0.930 1_565 S
H1775 C1788 0.930 . S
H1776 C1792 0.959 . S
H1777 C1792 0.959 . S
H1778 C1792 0.961 . S
H1779 C1793 0.960 . S
H1780 C1793 0.961 . S
H1781 C1793 0.959 . S
H1782 C1796 0.929 . S
H1783 C1797 0.931 1_565 S
H1784 C1799 0.930 . S
C1785 H1773 0.930 . S
C1785 C1786 1.399 . S
C1785 C1790 1.399 . S
C1786 C1785 1.399 . S
C1786 C1787 1.376 . S
C1787 H1774 0.930 1_545 S
C1787 C1786 1.376 . S
C1787 C1788 1.388 1_545 S
C1788 H1775 0.930 . S
C1788 C1787 1.388 1_565 S
C1788 C1789 1.390 1_565 S
C1789 C1788 1.390 1_545 S
C1789 C1790 1.394 . S
C1789 C1795 1.465 . S
C1790 C1785 1.399 . S
C1790 C1789 1.394 . S
C1790 C1791 1.516 . S
C1791 C1790 1.516 . S
C1791 C1792 1.502 . S
C1791 C1793 1.561 . S
C1791 C1794 1.526 . S
C1792 H1776 0.959 . S
C1792 H1777 0.959 . S
C1792 H1778 0.961 . S
C1792 C1791 1.502 . S
C1793 H1779 0.960 . S
C1793 H1780 0.961 . S
C1793 H1781 0.959 . S
C1793 C1791 1.561 . S
C1794 C1791 1.526 . S
C1794 C1795 1.396 . S
C1794 C1799 1.390 . S
C1795 C1789 1.465 . S
C1795 C1794 1.396 . S
C1795 C1796 1.399 1_545 S
C1796 H1782 0.929 . S
C1796 C1795 1.399 1_565 S
C1796 C1797 1.385 1_565 S
C1797 H1783 0.931 1_545 S
C1797 C1796 1.385 1_545 S
C1797 C1798 1.389 . S
C1798 C1797 1.389 . S
C1798 C1799 1.387 . S
C1799 H1784 0.930 . S
C1799 C1794 1.390 . S
C1799 C1798 1.387 . S
H1800 C1812 0.930 . S
H1801 C1814 0.930 . S
H1802 C1815 0.930 . S
H1803 C1819 0.959 . S
H1804 C1819 0.959 . S
H1805 C1819 0.961 . S
H1806 C1820 0.960 . S
H1807 C1820 0.961 . S
H1808 C1820 0.959 . S
H1809 C1823 0.929 . S
H1810 C1824 0.931 . S
H1811 C1826 0.930 . S
C1812 H1800 0.930 . S
C1812 C1813 1.399 . S
C1812 C1817 1.399 . S
C1813 C1812 1.399 . S
C1813 C1814 1.376 . S
C1814 H1801 0.930 . S
C1814 C1813 1.376 . S
C1814 C1815 1.388 . S
C1815 H1802 0.930 . S
C1815 C1814 1.388 . S
C1815 C1816 1.390 . S
C1816 C1815 1.390 . S
C1816 C1817 1.394 . S
C1816 C1822 1.465 . S
C1817 C1812 1.399 . S
C1817 C1816 1.394 . S
C1817 C1818 1.516 . S
C1818 C1817 1.516 . S
C1818 C1819 1.502 . S
C1818 C1820 1.561 . S
C1818 C1821 1.526 . S
C1819 H1803 0.959 . S
C1819 H1804 0.959 . S
C1819 H1805 0.961 . S
C1819 C1818 1.502 . S
C1820 H1806 0.960 . S
C1820 H1807 0.961 . S
C1820 H1808 0.959 . S
C1820 C1818 1.561 . S
C1821 C1818 1.526 . S
C1821 C1822 1.396 . S
C1821 C1826 1.390 . S
C1822 C1816 1.465 . S
C1822 C1821 1.396 . S
C1822 C1823 1.399 . S
C1823 H1809 0.929 . S
C1823 C1822 1.399 . S
C1823 C1824 1.385 . S
C1824 H1810 0.931 . S
C1824 C1823 1.385 . S
C1824 C1825 1.389 . S
C1825 C1824 1.389 . S
C1825 C1826 1.387 . S
C1826 H1811 0.930 . S
C1826 C1821 1.390 . S
C1826 C1825 1.387 . S
H1827 C1839 0.930 . S
H1828 C1841 0.930 . S
H1829 C1842 0.930 . S
H1830 C1846 0.959 . S
H1831 C1846 0.959 . S
H1832 C1846 0.961 . S
H1833 C1847 0.960 . S
H1834 C1847 0.961 . S
H1835 C1847 0.959 . S
H1836 C1850 0.929 . S
H1837 C1851 0.931 . S
H1838 C1853 0.930 . S
C1839 H1827 0.930 . S
C1839 C1840 1.399 . S
C1839 C1844 1.399 . S
C1840 C1839 1.399 . S
C1840 C1841 1.376 . S
C1841 H1828 0.930 . S
C1841 C1840 1.376 . S
C1841 C1842 1.388 . S
C1842 H1829 0.930 . S
C1842 C1841 1.388 . S
C1842 C1843 1.390 . S
C1843 C1842 1.390 . S
C1843 C1844 1.394 . S
C1843 C1849 1.465 . S
C1844 C1839 1.399 . S
C1844 C1843 1.394 . S
C1844 C1845 1.516 . S
C1845 C1844 1.516 . S
C1845 C1846 1.502 . S
C1845 C1847 1.561 . S
C1845 C1848 1.526 . S
C1846 H1830 0.959 . S
C1846 H1831 0.959 . S
C1846 H1832 0.961 . S
C1846 C1845 1.502 . S
C1847 H1833 0.960 . S
C1847 H1834 0.961 . S
C1847 H1835 0.959 . S
C1847 C1845 1.561 . S
C1848 C1845 1.526 . S
C1848 C1849 1.396 . S
C1848 C1853 1.390 . S
C1849 C1843 1.465 . S
C1849 C1848 1.396 . S
C1849 C1850 1.399 . S
C1850 H1836 0.929 . S
C1850 C1849 1.399 . S
C1850 C1851 1.385 . S
C1851 H1837 0.931 . S
C1851 C1850 1.385 . S
C1851 C1852 1.389 . S
C1852 C1851 1.389 . S
C1852 C1853 1.387 . S
C1853 H1838 0.930 . S
C1853 C1848 1.390 . S
C1853 C1852 1.387 . S
H1854 C1866 0.930 . S
H1855 C1868 0.930 . S
H1856 C1869 0.930 . S
H1857 C1873 0.959 . S
H1858 C1873 0.959 . S
H1859 C1873 0.961 . S
H1860 C1874 0.960 . S
H1861 C1874 0.961 . S
H1862 C1874 0.959 . S
H1863 C1877 0.929 . S
H1864 C1878 0.931 . S
H1865 C1880 0.930 . S
C1866 H1854 0.930 . S
C1866 C1867 1.399 . S
C1866 C1871 1.399 . S
C1867 C1866 1.399 . S
C1867 C1868 1.376 . S
C1868 H1855 0.930 . S
C1868 C1867 1.376 . S
C1868 C1869 1.388 . S
C1869 H1856 0.930 . S
C1869 C1868 1.388 . S
C1869 C1870 1.390 . S
C1870 C1869 1.390 . S
C1870 C1871 1.394 . S
C1870 C1876 1.465 . S
C1871 C1866 1.399 . S
C1871 C1870 1.394 . S
C1871 C1872 1.516 . S
C1872 C1871 1.516 . S
C1872 C1873 1.502 . S
C1872 C1874 1.561 . S
C1872 C1875 1.526 . S
C1873 H1857 0.959 . S
C1873 H1858 0.959 . S
C1873 H1859 0.961 . S
C1873 C1872 1.502 . S
C1874 H1860 0.960 . S
C1874 H1861 0.961 . S
C1874 H1862 0.959 . S
C1874 C1872 1.561 . S
C1875 C1872 1.526 . S
C1875 C1876 1.396 . S
C1875 C1880 1.390 . S
C1876 C1870 1.465 . S
C1876 C1875 1.396 . S
C1876 C1877 1.399 . S
C1877 H1863 0.929 . S
C1877 C1876 1.399 . S
C1877 C1878 1.385 . S
C1878 H1864 0.931 . S
C1878 C1877 1.385 . S
C1878 C1879 1.389 . S
C1879 C1878 1.389 . S
C1879 C1880 1.387 . S
C1880 H1865 0.930 . S
C1880 C1875 1.390 . S
C1880 C1879 1.387 . S
H1881 C1893 0.930 . S
H1882 C1895 0.930 . S
H1883 C1896 0.930 . S
H1884 C1900 0.959 . S
H1885 C1900 0.959 . S
H1886 C1900 0.961 . S
H1887 C1901 0.960 . S
H1888 C1901 0.961 . S
H1889 C1901 0.959 . S
H1890 C1904 0.929 . S
H1891 C1905 0.931 . S
H1892 C1907 0.930 . S
C1893 H1881 0.930 . S
C1893 C1894 1.399 . S
C1893 C1898 1.399 . S
C1894 C1893 1.399 . S
C1894 C1895 1.376 . S
C1895 H1882 0.930 . S
C1895 C1894 1.376 . S
C1895 C1896 1.388 . S
C1896 H1883 0.930 . S
C1896 C1895 1.388 . S
C1896 C1897 1.390 . S
C1897 C1896 1.390 . S
C1897 C1898 1.394 . S
C1897 C1903 1.465 . S
C1898 C1893 1.399 . S
C1898 C1897 1.394 . S
C1898 C1899 1.516 . S
C1899 C1898 1.516 . S
C1899 C1900 1.502 . S
C1899 C1901 1.561 . S
C1899 C1902 1.526 . S
C1900 H1884 0.959 . S
C1900 H1885 0.959 . S
C1900 H1886 0.961 . S
C1900 C1899 1.502 . S
C1901 H1887 0.960 . S
C1901 H1888 0.961 . S
C1901 H1889 0.959 . S
C1901 C1899 1.561 . S
C1902 C1899 1.526 . S
C1902 C1903 1.396 . S
C1902 C1907 1.390 . S
C1903 C1897 1.465 . S
C1903 C1902 1.396 . S
C1903 C1904 1.399 . S
C1904 H1890 0.929 . S
C1904 C1903 1.399 . S
C1904 C1905 1.385 . S
C1905 H1891 0.931 . S
C1905 C1904 1.385 . S
C1905 C1906 1.389 . S
C1906 C1905 1.389 . S
C1906 C1907 1.387 . S
C1907 H1892 0.930 . S
C1907 C1902 1.390 . S
C1907 C1906 1.387 . S
H1908 C1920 0.930 . S
H1909 C1922 0.930 . S
H1910 C1923 0.930 . S
H1911 C1927 0.959 . S
H1912 C1927 0.959 . S
H1913 C1927 0.961 . S
H1914 C1928 0.960 . S
H1915 C1928 0.961 . S
H1916 C1928 0.959 . S
H1917 C1931 0.929 . S
H1918 C1932 0.931 . S
H1919 C1934 0.930 . S
C1920 H1908 0.930 . S
C1920 C1921 1.399 . S
C1920 C1925 1.399 . S
C1921 C1920 1.399 . S
C1921 C1922 1.376 . S
C1922 H1909 0.930 . S
C1922 C1921 1.376 . S
C1922 C1923 1.388 . S
C1923 H1910 0.930 . S
C1923 C1922 1.388 . S
C1923 C1924 1.390 . S
C1924 C1923 1.390 . S
C1924 C1925 1.394 . S
C1924 C1930 1.465 . S
C1925 C1920 1.399 . S
C1925 C1924 1.394 . S
C1925 C1926 1.516 . S
C1926 C1925 1.516 . S
C1926 C1927 1.502 . S
C1926 C1928 1.561 . S
C1926 C1929 1.526 . S
C1927 H1911 0.959 . S
C1927 H1912 0.959 . S
C1927 H1913 0.961 . S
C1927 C1926 1.502 . S
C1928 H1914 0.960 . S
C1928 H1915 0.961 . S
C1928 H1916 0.959 . S
C1928 C1926 1.561 . S
C1929 C1926 1.526 . S
C1929 C1930 1.396 . S
C1929 C1934 1.390 . S
C1930 C1924 1.465 . S
C1930 C1929 1.396 . S
C1930 C1931 1.399 . S
C1931 H1917 0.929 . S
C1931 C1930 1.399 . S
C1931 C1932 1.385 . S
C1932 H1918 0.931 . S
C1932 C1931 1.385 . S
C1932 C1933 1.389 . S
C1933 C1932 1.389 . S
C1933 C1934 1.387 . S
C1934 H1919 0.930 . S
C1934 C1929 1.390 . S
C1934 C1933 1.387 . S
H1935 C1947 0.930 . S
H1936 C1949 0.930 . S
H1937 C1950 0.930 . S
H1938 C1954 0.959 . S
H1939 C1954 0.959 . S
H1940 C1954 0.961 . S
H1941 C1955 0.960 . S
H1942 C1955 0.961 . S
H1943 C1955 0.959 . S
H1944 C1958 0.929 . S
H1945 C1959 0.931 . S
H1946 C1961 0.930 . S
C1947 H1935 0.930 . S
C1947 C1948 1.399 . S
C1947 C1952 1.399 . S
C1948 C1947 1.399 . S
C1948 C1949 1.376 . S
C1949 H1936 0.930 . S
C1949 C1948 1.376 . S
C1949 C1950 1.388 . S
C1950 H1937 0.930 . S
C1950 C1949 1.388 . S
C1950 C1951 1.390 . S
C1951 C1950 1.390 . S
C1951 C1952 1.394 . S
C1951 C1957 1.465 . S
C1952 C1947 1.399 . S
C1952 C1951 1.394 . S
C1952 C1953 1.516 . S
C1953 C1952 1.516 . S
C1953 C1954 1.502 . S
C1953 C1955 1.561 . S
C1953 C1956 1.526 . S
C1954 H1938 0.959 . S
C1954 H1939 0.959 . S
C1954 H1940 0.961 . S
C1954 C1953 1.502 . S
C1955 H1941 0.960 . S
C1955 H1942 0.961 . S
C1955 H1943 0.959 . S
C1955 C1953 1.561 . S
C1956 C1953 1.526 . S
C1956 C1957 1.396 . S
C1956 C1961 1.390 . S
C1957 C1951 1.465 . S
C1957 C1956 1.396 . S
C1957 C1958 1.399 . S
C1958 H1944 0.929 . S
C1958 C1957 1.399 . S
C1958 C1959 1.385 . S
C1959 H1945 0.931 . S
C1959 C1958 1.385 . S
C1959 C1960 1.389 . S
C1960 C1959 1.389 . S
C1960 C1961 1.387 . S
C1961 H1946 0.930 . S
C1961 C1956 1.390 . S
C1961 C1960 1.387 . S
H1962 C1974 0.930 . S
H1963 C1976 0.930 . S
H1964 C1977 0.930 . S
H1965 C1981 0.959 . S
H1966 C1981 0.959 . S
H1967 C1981 0.961 . S
H1968 C1982 0.960 . S
H1969 C1982 0.961 . S
H1970 C1982 0.959 . S
H1971 C1985 0.929 . S
H1972 C1986 0.931 . S
H1973 C1988 0.930 . S
C1974 H1962 0.930 . S
C1974 C1975 1.399 . S
C1974 C1979 1.399 . S
C1975 C1974 1.399 . S
C1975 C1976 1.376 . S
C1976 H1963 0.930 . S
C1976 C1975 1.376 . S
C1976 C1977 1.388 . S
C1977 H1964 0.930 . S
C1977 C1976 1.388 . S
C1977 C1978 1.390 . S
C1978 C1977 1.390 . S
C1978 C1979 1.394 . S
C1978 C1984 1.465 . S
C1979 C1974 1.399 . S
C1979 C1978 1.394 . S
C1979 C1980 1.516 . S
C1980 C1979 1.516 . S
C1980 C1981 1.502 . S
C1980 C1982 1.561 . S
C1980 C1983 1.526 . S
C1981 H1965 0.959 . S
C1981 H1966 0.959 . S
C1981 H1967 0.961 . S
C1981 C1980 1.502 . S
C1982 H1968 0.960 . S
C1982 H1969 0.961 . S
C1982 H1970 0.959 . S
C1982 C1980 1.561 . S
C1983 C1980 1.526 . S
C1983 C1984 1.396 . S
C1983 C1988 1.390 . S
C1984 C1978 1.465 . S
C1984 C1983 1.396 . S
C1984 C1985 1.399 . S
C1985 H1971 0.929 . S
C1985 C1984 1.399 . S
C1985 C1986 1.385 . S
C1986 H1972 0.931 . S
C1986 C1985 1.385 . S
C1986 C1987 1.389 . S
C1987 C1986 1.389 . S
C1987 C1988 1.387 . S
C1988 H1973 0.930 . S
C1988 C1983 1.390 . S
C1988 C1987 1.387 . S
H1989 C2001 0.930 . S
H1990 C2003 0.930 . S
H1991 C2004 0.930 . S
H1992 C2008 0.959 . S
H1993 C2008 0.959 . S
H1994 C2008 0.961 . S
H1995 C2009 0.960 . S
H1996 C2009 0.961 . S
H1997 C2009 0.959 . S
H1998 C2012 0.929 . S
H1999 C2013 0.931 . S
H2000 C2015 0.930 . S
C2001 H1989 0.930 . S
C2001 C2002 1.399 . S
C2001 C2006 1.399 . S
C2002 C2001 1.399 . S
C2002 C2003 1.376 . S
C2003 H1990 0.930 . S
C2003 C2002 1.376 . S
C2003 C2004 1.388 . S
C2004 H1991 0.930 . S
C2004 C2003 1.388 . S
C2004 C2005 1.390 . S
C2005 C2004 1.390 . S
C2005 C2006 1.394 . S
C2005 C2011 1.465 . S
C2006 C2001 1.399 . S
C2006 C2005 1.394 . S
C2006 C2007 1.516 . S
C2007 C2006 1.516 . S
C2007 C2008 1.502 . S
C2007 C2009 1.561 . S
C2007 C2010 1.526 . S
C2008 H1992 0.959 . S
C2008 H1993 0.959 . S
C2008 H1994 0.961 . S
C2008 C2007 1.502 . S
C2009 H1995 0.960 . S
C2009 H1996 0.961 . S
C2009 H1997 0.959 . S
C2009 C2007 1.561 . S
C2010 C2007 1.526 . S
C2010 C2011 1.396 . S
C2010 C2015 1.390 . S
C2011 C2005 1.465 . S
C2011 C2010 1.396 . S
C2011 C2012 1.399 . S
C2012 H1998 0.929 . S
C2012 C2011 1.399 . S
C2012 C2013 1.385 . S
C2013 H1999 0.931 . S
C2013 C2012 1.385 . S
C2013 C2014 1.389 . S
C2014 C2013 1.389 . S
C2014 C2015 1.387 . S
C2015 H2000 0.930 . S
C2015 C2010 1.390 . S
C2015 C2014 1.387 . S
H2016 C2028 0.930 . S
H2017 C2030 0.930 . S
H2018 C2031 0.930 . S
H2019 C2035 0.959 . S
H2020 C2035 0.959 . S
H2021 C2035 0.961 . S
H2022 C2036 0.960 . S
H2023 C2036 0.961 . S
H2024 C2036 0.959 . S
H2025 C2039 0.929 . S
H2026 C2040 0.931 . S
H2027 C2042 0.930 . S
C2028 H2016 0.930 . S
C2028 C2029 1.399 . S
C2028 C2033 1.399 . S
C2029 C2028 1.399 . S
C2029 C2030 1.376 . S
C2030 H2017 0.930 . S
C2030 C2029 1.376 . S
C2030 C2031 1.388 . S
C2031 H2018 0.930 . S
C2031 C2030 1.388 . S
C2031 C2032 1.390 . S
C2032 C2031 1.390 . S
C2032 C2033 1.394 . S
C2032 C2038 1.465 . S
C2033 C2028 1.399 . S
C2033 C2032 1.394 . S
C2033 C2034 1.516 . S
C2034 C2033 1.516 . S
C2034 C2035 1.502 . S
C2034 C2036 1.561 . S
C2034 C2037 1.526 . S
C2035 H2019 0.959 . S
C2035 H2020 0.959 . S
C2035 H2021 0.961 . S
C2035 C2034 1.502 . S
C2036 H2022 0.960 . S
C2036 H2023 0.961 . S
C2036 H2024 0.959 . S
C2036 C2034 1.561 . S
C2037 C2034 1.526 . S
C2037 C2038 1.396 . S
C2037 C2042 1.390 . S
C2038 C2032 1.465 . S
C2038 C2037 1.396 . S
C2038 C2039 1.399 . S
C2039 H2025 0.929 . S
C2039 C2038 1.399 . S
C2039 C2040 1.385 . S
C2040 H2026 0.931 . S
C2040 C2039 1.385 . S
C2040 C2041 1.389 . S
C2041 C2040 1.389 . S
C2041 C2042 1.387 . S
C2042 H2027 0.930 . S
C2042 C2037 1.390 . S
C2042 C2041 1.387 . S
H2043 C2055 0.930 . S
H2044 C2057 0.930 . S
H2045 C2058 0.930 . S
H2046 C2062 0.959 . S
H2047 C2062 0.959 . S
H2048 C2062 0.961 . S
H2049 C2063 0.960 . S
H2050 C2063 0.961 . S
H2051 C2063 0.959 . S
H2052 C2066 0.929 . S
H2053 C2067 0.931 . S
H2054 C2069 0.930 . S
C2055 H2043 0.930 . S
C2055 C2056 1.399 . S
C2055 C2060 1.399 . S
C2056 C2055 1.399 . S
C2056 C2057 1.376 . S
C2057 H2044 0.930 . S
C2057 C2056 1.376 . S
C2057 C2058 1.388 . S
C2058 H2045 0.930 . S
C2058 C2057 1.388 . S
C2058 C2059 1.390 . S
C2059 C2058 1.390 . S
C2059 C2060 1.394 . S
C2059 C2065 1.465 . S
C2060 C2055 1.399 . S
C2060 C2059 1.394 . S
C2060 C2061 1.516 . S
C2061 C2060 1.516 . S
C2061 C2062 1.502 . S
C2061 C2063 1.561 . S
C2061 C2064 1.526 . S
C2062 H2046 0.959 . S
C2062 H2047 0.959 . S
C2062 H2048 0.961 . S
C2062 C2061 1.502 . S
C2063 H2049 0.960 . S
C2063 H2050 0.961 . S
C2063 H2051 0.959 . S
C2063 C2061 1.561 . S
C2064 C2061 1.526 . S
C2064 C2065 1.396 . S
C2064 C2069 1.390 . S
C2065 C2059 1.465 . S
C2065 C2064 1.396 . S
C2065 C2066 1.399 . S
C2066 H2052 0.929 . S
C2066 C2065 1.399 . S
C2066 C2067 1.385 . S
C2067 H2053 0.931 . S
C2067 C2066 1.385 . S
C2067 C2068 1.389 . S
C2068 C2067 1.389 . S
C2068 C2069 1.387 . S
C2069 H2054 0.930 . S
C2069 C2064 1.390 . S
C2069 C2068 1.387 . S
H2070 C2082 0.930 . S
H2071 C2084 0.930 . S
H2072 C2085 0.930 . S
H2073 C2089 0.959 . S
H2074 C2089 0.959 . S
H2075 C2089 0.961 . S
H2076 C2090 0.960 . S
H2077 C2090 0.961 . S
H2078 C2090 0.959 . S
H2079 C2093 0.929 . S
H2080 C2094 0.931 . S
H2081 C2096 0.930 . S
C2082 H2070 0.930 . S
C2082 C2083 1.399 . S
C2082 C2087 1.399 . S
C2083 C2082 1.399 . S
C2083 C2084 1.376 . S
C2084 H2071 0.930 . S
C2084 C2083 1.376 . S
C2084 C2085 1.388 . S
C2085 H2072 0.930 . S
C2085 C2084 1.388 . S
C2085 C2086 1.390 . S
C2086 C2085 1.390 . S
C2086 C2087 1.394 . S
C2086 C2092 1.465 . S
C2087 C2082 1.399 . S
C2087 C2086 1.394 . S
C2087 C2088 1.516 . S
C2088 C2087 1.516 . S
C2088 C2089 1.502 . S
C2088 C2090 1.561 . S
C2088 C2091 1.526 . S
C2089 H2073 0.959 . S
C2089 H2074 0.959 . S
C2089 H2075 0.961 . S
C2089 C2088 1.502 . S
C2090 H2076 0.960 . S
C2090 H2077 0.961 . S
C2090 H2078 0.959 . S
C2090 C2088 1.561 . S
C2091 C2088 1.526 . S
C2091 C2092 1.396 . S
C2091 C2096 1.390 . S
C2092 C2086 1.465 . S
C2092 C2091 1.396 . S
C2092 C2093 1.399 . S
C2093 H2079 0.929 . S
C2093 C2092 1.399 . S
C2093 C2094 1.385 . S
C2094 H2080 0.931 . S
C2094 C2093 1.385 . S
C2094 C2095 1.389 . S
C2095 C2094 1.389 . S
C2095 C2096 1.387 . S
C2096 H2081 0.930 . S
C2096 C2091 1.390 . S
C2096 C2095 1.387 . S
H2097 C2109 0.930 . S
H2098 C2111 0.930 . S
H2099 C2112 0.930 . S
H2100 C2116 0.959 . S
H2101 C2116 0.959 . S
H2102 C2116 0.961 . S
H2103 C2117 0.960 . S
H2104 C2117 0.961 . S
H2105 C2117 0.959 . S
H2106 C2120 0.929 . S
H2107 C2121 0.931 . S
H2108 C2123 0.930 . S
C2109 H2097 0.930 . S
C2109 C2110 1.399 . S
C2109 C2114 1.399 . S
C2110 C2109 1.399 . S
C2110 C2111 1.376 . S
C2111 H2098 0.930 . S
C2111 C2110 1.376 . S
C2111 C2112 1.388 . S
C2112 H2099 0.930 . S
C2112 C2111 1.388 . S
C2112 C2113 1.390 . S
C2113 C2112 1.390 . S
C2113 C2114 1.394 . S
C2113 C2119 1.465 . S
C2114 C2109 1.399 . S
C2114 C2113 1.394 . S
C2114 C2115 1.516 . S
C2115 C2114 1.516 . S
C2115 C2116 1.502 . S
C2115 C2117 1.561 . S
C2115 C2118 1.526 . S
C2116 H2100 0.959 . S
C2116 H2101 0.959 . S
C2116 H2102 0.961 . S
C2116 C2115 1.502 . S
C2117 H2103 0.960 . S
C2117 H2104 0.961 . S
C2117 H2105 0.959 . S
C2117 C2115 1.561 . S
C2118 C2115 1.526 . S
C2118 C2119 1.396 . S
C2118 C2123 1.390 . S
C2119 C2113 1.465 . S
C2119 C2118 1.396 . S
C2119 C2120 1.399 . S
C2120 H2106 0.929 . S
C2120 C2119 1.399 . S
C2120 C2121 1.385 . S
C2121 H2107 0.931 . S
C2121 C2120 1.385 . S
C2121 C2122 1.389 . S
C2122 C2121 1.389 . S
C2122 C2123 1.387 . S
C2123 H2108 0.930 . S
C2123 C2118 1.390 . S
C2123 C2122 1.387 . S
H2124 C2136 0.930 . S
H2125 C2138 0.930 . S
H2126 C2139 0.930 . S
H2127 C2143 0.959 . S
H2128 C2143 0.959 . S
H2129 C2143 0.961 . S
H2130 C2144 0.960 . S
H2131 C2144 0.961 . S
H2132 C2144 0.959 . S
H2133 C2147 0.929 . S
H2134 C2148 0.931 . S
H2135 C2150 0.930 . S
C2136 H2124 0.930 . S
C2136 C2137 1.399 . S
C2136 C2141 1.399 . S
C2137 C2136 1.399 . S
C2137 C2138 1.376 . S
C2138 H2125 0.930 . S
C2138 C2137 1.376 . S
C2138 C2139 1.388 . S
C2139 H2126 0.930 . S
C2139 C2138 1.388 . S
C2139 C2140 1.390 . S
C2140 C2139 1.390 . S
C2140 C2141 1.394 . S
C2140 C2146 1.465 . S
C2141 C2136 1.399 . S
C2141 C2140 1.394 . S
C2141 C2142 1.516 . S
C2142 C2141 1.516 . S
C2142 C2143 1.502 . S
C2142 C2144 1.561 . S
C2142 C2145 1.526 . S
C2143 H2127 0.959 . S
C2143 H2128 0.959 . S
C2143 H2129 0.961 . S
C2143 C2142 1.502 . S
C2144 H2130 0.960 . S
C2144 H2131 0.961 . S
C2144 H2132 0.959 . S
C2144 C2142 1.561 . S
C2145 C2142 1.526 . S
C2145 C2146 1.396 . S
C2145 C2150 1.390 . S
C2146 C2140 1.465 . S
C2146 C2145 1.396 . S
C2146 C2147 1.399 . S
C2147 H2133 0.929 . S
C2147 C2146 1.399 . S
C2147 C2148 1.385 . S
C2148 H2134 0.931 . S
C2148 C2147 1.385 . S
C2148 C2149 1.389 . S
C2149 C2148 1.389 . S
C2149 C2150 1.387 . S
C2150 H2135 0.930 . S
C2150 C2145 1.390 . S
C2150 C2149 1.387 . S
H2151 C2163 0.930 . S
H2152 C2165 0.930 . S
H2153 C2166 0.930 . S
H2154 C2170 0.959 . S
H2155 C2170 0.959 . S
H2156 C2170 0.961 . S
H2157 C2171 0.960 . S
H2158 C2171 0.961 . S
H2159 C2171 0.959 . S
H2160 C2174 0.929 . S
H2161 C2175 0.931 . S
H2162 C2177 0.930 . S
C2163 H2151 0.930 . S
C2163 C2164 1.399 . S
C2163 C2168 1.399 . S
C2164 C2163 1.399 . S
C2164 C2165 1.376 . S
C2165 H2152 0.930 . S
C2165 C2164 1.376 . S
C2165 C2166 1.388 . S
C2166 H2153 0.930 . S
C2166 C2165 1.388 . S
C2166 C2167 1.390 . S
C2167 C2166 1.390 . S
C2167 C2168 1.394 . S
C2167 C2173 1.465 . S
C2168 C2163 1.399 . S
C2168 C2167 1.394 . S
C2168 C2169 1.516 . S
C2169 C2168 1.516 . S
C2169 C2170 1.502 . S
C2169 C2171 1.561 . S
C2169 C2172 1.526 . S
C2170 H2154 0.959 . S
C2170 H2155 0.959 . S
C2170 H2156 0.961 . S
C2170 C2169 1.502 . S
C2171 H2157 0.960 . S
C2171 H2158 0.961 . S
C2171 H2159 0.959 . S
C2171 C2169 1.561 . S
C2172 C2169 1.526 . S
C2172 C2173 1.396 . S
C2172 C2177 1.390 . S
C2173 C2167 1.465 . S
C2173 C2172 1.396 . S
C2173 C2174 1.399 . S
C2174 H2160 0.929 . S
C2174 C2173 1.399 . S
C2174 C2175 1.385 . S
C2175 H2161 0.931 . S
C2175 C2174 1.385 . S
C2175 C2176 1.389 . S
C2176 C2175 1.389 . S
C2176 C2177 1.387 . S
C2177 H2162 0.930 . S
C2177 C2172 1.390 . S
C2177 C2176 1.387 . S
H2178 C2190 0.930 . S
H2179 C2192 0.930 . S
H2180 C2193 0.930 . S
H2181 C2197 0.959 . S
H2182 C2197 0.959 . S
H2183 C2197 0.961 . S
H2184 C2198 0.960 . S
H2185 C2198 0.961 . S
H2186 C2198 0.959 . S
H2187 C2201 0.929 . S
H2188 C2202 0.931 . S
H2189 C2204 0.930 . S
C2190 H2178 0.930 . S
C2190 C2191 1.399 . S
C2190 C2195 1.399 . S
C2191 C2190 1.399 . S
C2191 C2192 1.376 . S
C2192 H2179 0.930 . S
C2192 C2191 1.376 . S
C2192 C2193 1.388 . S
C2193 H2180 0.930 . S
C2193 C2192 1.388 . S
C2193 C2194 1.390 . S
C2194 C2193 1.390 . S
C2194 C2195 1.394 . S
C2194 C2200 1.465 . S
C2195 C2190 1.399 . S
C2195 C2194 1.394 . S
C2195 C2196 1.516 . S
C2196 C2195 1.516 . S
C2196 C2197 1.502 . S
C2196 C2198 1.561 . S
C2196 C2199 1.526 . S
C2197 H2181 0.959 . S
C2197 H2182 0.959 . S
C2197 H2183 0.961 . S
C2197 C2196 1.502 . S
C2198 H2184 0.960 . S
C2198 H2185 0.961 . S
C2198 H2186 0.959 . S
C2198 C2196 1.561 . S
C2199 C2196 1.526 . S
C2199 C2200 1.396 . S
C2199 C2204 1.390 . S
C2200 C2194 1.465 . S
C2200 C2199 1.396 . S
C2200 C2201 1.399 . S
C2201 H2187 0.929 . S
C2201 C2200 1.399 . S
C2201 C2202 1.385 . S
C2202 H2188 0.931 . S
C2202 C2201 1.385 . S
C2202 C2203 1.389 . S
C2203 C2202 1.389 . S
C2203 C2204 1.387 . S
C2204 H2189 0.930 . S
C2204 C2199 1.390 . S
C2204 C2203 1.387 . S
H2205 C2217 0.930 . S
H2206 C2219 0.930 . S
H2207 C2220 0.930 . S
H2208 C2224 0.959 . S
H2209 C2224 0.959 . S
H2210 C2224 0.961 . S
H2211 C2225 0.960 . S
H2212 C2225 0.961 . S
H2213 C2225 0.959 . S
H2214 C2228 0.929 . S
H2215 C2229 0.931 . S
H2216 C2231 0.930 . S
C2217 H2205 0.930 . S
C2217 C2218 1.399 . S
C2217 C2222 1.399 . S
C2218 C2217 1.399 . S
C2218 C2219 1.376 . S
C2219 H2206 0.930 . S
C2219 C2218 1.376 . S
C2219 C2220 1.388 . S
C2220 H2207 0.930 . S
C2220 C2219 1.388 . S
C2220 C2221 1.390 . S
C2221 C2220 1.390 . S
C2221 C2222 1.394 . S
C2221 C2227 1.465 . S
C2222 C2217 1.399 . S
C2222 C2221 1.394 . S
C2222 C2223 1.516 . S
C2223 C2222 1.516 . S
C2223 C2224 1.502 . S
C2223 C2225 1.561 . S
C2223 C2226 1.526 . S
C2224 H2208 0.959 . S
C2224 H2209 0.959 . S
C2224 H2210 0.961 . S
C2224 C2223 1.502 . S
C2225 H2211 0.960 . S
C2225 H2212 0.961 . S
C2225 H2213 0.959 . S
C2225 C2223 1.561 . S
C2226 C2223 1.526 . S
C2226 C2227 1.396 . S
C2226 C2231 1.390 . S
C2227 C2221 1.465 . S
C2227 C2226 1.396 . S
C2227 C2228 1.399 . S
C2228 H2214 0.929 . S
C2228 C2227 1.399 . S
C2228 C2229 1.385 . S
C2229 H2215 0.931 . S
C2229 C2228 1.385 . S
C2229 C2230 1.389 . S
C2230 C2229 1.389 . S
C2230 C2231 1.387 . S
C2231 H2216 0.930 . S
C2231 C2226 1.390 . S
C2231 C2230 1.387 . S
H2232 C2244 0.930 . S
H2233 C2246 0.930 . S
H2234 C2247 0.930 . S
H2235 C2251 0.959 . S
H2236 C2251 0.959 . S
H2237 C2251 0.961 . S
H2238 C2252 0.960 . S
H2239 C2252 0.961 . S
H2240 C2252 0.959 . S
H2241 C2255 0.929 . S
H2242 C2256 0.931 . S
H2243 C2258 0.930 . S
C2244 H2232 0.930 . S
C2244 C2245 1.399 . S
C2244 C2249 1.399 . S
C2245 C2244 1.399 . S
C2245 C2246 1.376 . S
C2246 H2233 0.930 . S
C2246 C2245 1.376 . S
C2246 C2247 1.388 . S
C2247 H2234 0.930 . S
C2247 C2246 1.388 . S
C2247 C2248 1.390 . S
C2248 C2247 1.390 . S
C2248 C2249 1.394 . S
C2248 C2254 1.465 . S
C2249 C2244 1.399 . S
C2249 C2248 1.394 . S
C2249 C2250 1.516 . S
C2250 C2249 1.516 . S
C2250 C2251 1.502 . S
C2250 C2252 1.561 . S
C2250 C2253 1.526 . S
C2251 H2235 0.959 . S
C2251 H2236 0.959 . S
C2251 H2237 0.961 . S
C2251 C2250 1.502 . S
C2252 H2238 0.960 . S
C2252 H2239 0.961 . S
C2252 H2240 0.959 . S
C2252 C2250 1.561 . S
C2253 C2250 1.526 . S
C2253 C2254 1.396 . S
C2253 C2258 1.390 . S
C2254 C2248 1.465 . S
C2254 C2253 1.396 . S
C2254 C2255 1.399 . S
C2255 H2241 0.929 . S
C2255 C2254 1.399 . S
C2255 C2256 1.385 . S
C2256 H2242 0.931 . S
C2256 C2255 1.385 . S
C2256 C2257 1.389 . S
C2257 C2256 1.389 . S
C2257 C2258 1.387 . S
C2258 H2243 0.930 . S
C2258 C2253 1.390 . S
C2258 C2257 1.387 . S
H2259 C2271 0.930 . S
H2260 C2273 0.930 . S
H2261 C2274 0.930 . S
H2262 C2278 0.959 . S
H2263 C2278 0.959 . S
H2264 C2278 0.961 . S
H2265 C2279 0.960 . S
H2266 C2279 0.961 . S
H2267 C2279 0.959 . S
H2268 C2282 0.929 . S
H2269 C2283 0.931 . S
H2270 C2285 0.930 . S
C2271 H2259 0.930 . S
C2271 C2272 1.399 . S
C2271 C2276 1.399 . S
C2272 C2271 1.399 . S
C2272 C2273 1.376 . S
C2273 H2260 0.930 . S
C2273 C2272 1.376 . S
C2273 C2274 1.388 . S
C2274 H2261 0.930 . S
C2274 C2273 1.388 . S
C2274 C2275 1.390 . S
C2275 C2274 1.390 . S
C2275 C2276 1.394 . S
C2275 C2281 1.465 . S
C2276 C2271 1.399 . S
C2276 C2275 1.394 . S
C2276 C2277 1.516 . S
C2277 C2276 1.516 . S
C2277 C2278 1.502 . S
C2277 C2279 1.561 . S
C2277 C2280 1.526 . S
C2278 H2262 0.959 . S
C2278 H2263 0.959 . S
C2278 H2264 0.961 . S
C2278 C2277 1.502 . S
C2279 H2265 0.960 . S
C2279 H2266 0.961 . S
C2279 H2267 0.959 . S
C2279 C2277 1.561 . S
C2280 C2277 1.526 . S
C2280 C2281 1.396 . S
C2280 C2285 1.390 . S
C2281 C2275 1.465 . S
C2281 C2280 1.396 . S
C2281 C2282 1.399 . S
C2282 H2268 0.929 . S
C2282 C2281 1.399 . S
C2282 C2283 1.385 . S
C2283 H2269 0.931 . S
C2283 C2282 1.385 . S
C2283 C2284 1.389 . S
C2284 C2283 1.389 . S
C2284 C2285 1.387 . S
C2285 H2270 0.930 . S
C2285 C2280 1.390 . S
C2285 C2284 1.387 . S
H2286 C2298 0.930 . S
H2287 C2300 0.930 . S
H2288 C2301 0.930 . S
H2289 C2305 0.959 . S
H2290 C2305 0.959 . S
H2291 C2305 0.961 . S
H2292 C2306 0.960 . S
H2293 C2306 0.961 . S
H2294 C2306 0.959 . S
H2295 C2309 0.929 . S
H2296 C2310 0.931 . S
H2297 C2312 0.930 . S
C2298 H2286 0.930 . S
C2298 C2299 1.399 . S
C2298 C2303 1.399 . S
C2299 C2298 1.399 . S
C2299 C2300 1.376 . S
C2300 H2287 0.930 . S
C2300 C2299 1.376 . S
C2300 C2301 1.388 . S
C2301 H2288 0.930 . S
C2301 C2300 1.388 . S
C2301 C2302 1.390 . S
C2302 C2301 1.390 . S
C2302 C2303 1.394 . S
C2302 C2308 1.465 . S
C2303 C2298 1.399 . S
C2303 C2302 1.394 . S
C2303 C2304 1.516 . S
C2304 C2303 1.516 . S
C2304 C2305 1.502 . S
C2304 C2306 1.561 . S
C2304 C2307 1.526 . S
C2305 H2289 0.959 . S
C2305 H2290 0.959 . S
C2305 H2291 0.961 . S
C2305 C2304 1.502 . S
C2306 H2292 0.960 . S
C2306 H2293 0.961 . S
C2306 H2294 0.959 . S
C2306 C2304 1.561 . S
C2307 C2304 1.526 . S
C2307 C2308 1.396 . S
C2307 C2312 1.390 . S
C2308 C2302 1.465 . S
C2308 C2307 1.396 . S
C2308 C2309 1.399 . S
C2309 H2295 0.929 . S
C2309 C2308 1.399 . S
C2309 C2310 1.385 . S
C2310 H2296 0.931 . S
C2310 C2309 1.385 . S
C2310 C2311 1.389 . S
C2311 C2310 1.389 . S
C2311 C2312 1.387 . S
C2312 H2297 0.930 . S
C2312 C2307 1.390 . S
C2312 C2311 1.387 . S
H2313 C2325 0.930 . S
H2314 C2327 0.930 . S
H2315 C2328 0.930 . S
H2316 C2332 0.959 . S
H2317 C2332 0.959 . S
H2318 C2332 0.961 . S
H2319 C2333 0.960 . S
H2320 C2333 0.961 . S
H2321 C2333 0.959 . S
H2322 C2336 0.929 . S
H2323 C2337 0.931 . S
H2324 C2339 0.930 . S
C2325 H2313 0.930 . S
C2325 C2326 1.399 . S
C2325 C2330 1.399 . S
C2326 C2325 1.399 . S
C2326 C2327 1.376 . S
C2327 H2314 0.930 . S
C2327 C2326 1.376 . S
C2327 C2328 1.388 . S
C2328 H2315 0.930 . S
C2328 C2327 1.388 . S
C2328 C2329 1.390 . S
C2329 C2328 1.390 . S
C2329 C2330 1.394 . S
C2329 C2335 1.465 . S
C2330 C2325 1.399 . S
C2330 C2329 1.394 . S
C2330 C2331 1.516 . S
C2331 C2330 1.516 . S
C2331 C2332 1.502 . S
C2331 C2333 1.561 . S
C2331 C2334 1.526 . S
C2332 H2316 0.959 . S
C2332 H2317 0.959 . S
C2332 H2318 0.961 . S
C2332 C2331 1.502 . S
C2333 H2319 0.960 . S
C2333 H2320 0.961 . S
C2333 H2321 0.959 . S
C2333 C2331 1.561 . S
C2334 C2331 1.526 . S
C2334 C2335 1.396 . S
C2334 C2339 1.390 . S
C2335 C2329 1.465 . S
C2335 C2334 1.396 . S
C2335 C2336 1.399 . S
C2336 H2322 0.929 . S
C2336 C2335 1.399 . S
C2336 C2337 1.385 . S
C2337 H2323 0.931 . S
C2337 C2336 1.385 . S
C2337 C2338 1.389 . S
C2338 C2337 1.389 . S
C2338 C2339 1.387 . S
C2339 H2324 0.930 . S
C2339 C2334 1.390 . S
C2339 C2338 1.387 . S
H2340 C2352 0.930 . S
H2341 C2354 0.930 . S
H2342 C2355 0.930 . S
H2343 C2359 0.959 . S
H2344 C2359 0.959 . S
H2345 C2359 0.961 . S
H2346 C2360 0.960 . S
H2347 C2360 0.961 . S
H2348 C2360 0.959 . S
H2349 C2363 0.929 . S
H2350 C2364 0.931 . S
H2351 C2366 0.930 . S
C2352 H2340 0.930 . S
C2352 C2353 1.399 . S
C2352 C2357 1.399 . S
C2353 C2352 1.399 . S
C2353 C2354 1.376 . S
C2354 H2341 0.930 . S
C2354 C2353 1.376 . S
C2354 C2355 1.388 . S
C2355 H2342 0.930 . S
C2355 C2354 1.388 . S
C2355 C2356 1.390 . S
C2356 C2355 1.390 . S
C2356 C2357 1.394 . S
C2356 C2362 1.465 . S
C2357 C2352 1.399 . S
C2357 C2356 1.394 . S
C2357 C2358 1.516 . S
C2358 C2357 1.516 . S
C2358 C2359 1.502 . S
C2358 C2360 1.561 . S
C2358 C2361 1.526 . S
C2359 H2343 0.959 . S
C2359 H2344 0.959 . S
C2359 H2345 0.961 . S
C2359 C2358 1.502 . S
C2360 H2346 0.960 . S
C2360 H2347 0.961 . S
C2360 H2348 0.959 . S
C2360 C2358 1.561 . S
C2361 C2358 1.526 . S
C2361 C2362 1.396 . S
C2361 C2366 1.390 . S
C2362 C2356 1.465 . S
C2362 C2361 1.396 . S
C2362 C2363 1.399 . S
C2363 H2349 0.929 . S
C2363 C2362 1.399 . S
C2363 C2364 1.385 . S
C2364 H2350 0.931 . S
C2364 C2363 1.385 . S
C2364 C2365 1.389 . S
C2365 C2364 1.389 . S
C2365 C2366 1.387 . S
C2366 H2351 0.930 . S
C2366 C2361 1.390 . S
C2366 C2365 1.387 . S
H2367 C2379 0.930 . S
H2368 C2381 0.930 . S
H2369 C2382 0.930 . S
H2370 C2386 0.959 . S
H2371 C2386 0.959 . S
H2372 C2386 0.961 . S
H2373 C2387 0.960 . S
H2374 C2387 0.961 . S
H2375 C2387 0.959 . S
H2376 C2390 0.929 . S
H2377 C2391 0.931 . S
H2378 C2393 0.930 . S
C2379 H2367 0.930 . S
C2379 C2380 1.399 . S
C2379 C2384 1.399 . S
C2380 C2379 1.399 . S
C2380 C2381 1.376 . S
C2381 H2368 0.930 . S
C2381 C2380 1.376 . S
C2381 C2382 1.388 . S
C2382 H2369 0.930 . S
C2382 C2381 1.388 . S
C2382 C2383 1.390 . S
C2383 C2382 1.390 . S
C2383 C2384 1.394 . S
C2383 C2389 1.465 . S
C2384 C2379 1.399 . S
C2384 C2383 1.394 . S
C2384 C2385 1.516 . S
C2385 C2384 1.516 . S
C2385 C2386 1.502 . S
C2385 C2387 1.561 . S
C2385 C2388 1.526 . S
C2386 H2370 0.959 . S
C2386 H2371 0.959 . S
C2386 H2372 0.961 . S
C2386 C2385 1.502 . S
C2387 H2373 0.960 . S
C2387 H2374 0.961 . S
C2387 H2375 0.959 . S
C2387 C2385 1.561 . S
C2388 C2385 1.526 . S
C2388 C2389 1.396 . S
C2388 C2393 1.390 . S
C2389 C2383 1.465 . S
C2389 C2388 1.396 . S
C2389 C2390 1.399 . S
C2390 H2376 0.929 . S
C2390 C2389 1.399 . S
C2390 C2391 1.385 . S
C2391 H2377 0.931 . S
C2391 C2390 1.385 . S
C2391 C2392 1.389 . S
C2392 C2391 1.389 . S
C2392 C2393 1.387 . S
C2393 H2378 0.930 . S
C2393 C2388 1.390 . S
C2393 C2392 1.387 . S
H2394 C2406 0.930 . S
H2395 C2408 0.930 . S
H2396 C2409 0.930 . S
H2397 C2413 0.959 . S
H2398 C2413 0.959 . S
H2399 C2413 0.961 . S
H2400 C2414 0.960 . S
H2401 C2414 0.961 . S
H2402 C2414 0.959 . S
H2403 C2417 0.929 . S
H2404 C2418 0.931 . S
H2405 C2420 0.930 . S
C2406 H2394 0.930 . S
C2406 C2407 1.399 . S
C2406 C2411 1.399 . S
C2407 C2406 1.399 . S
C2407 C2408 1.376 . S
C2408 H2395 0.930 . S
C2408 C2407 1.376 . S
C2408 C2409 1.388 . S
C2409 H2396 0.930 . S
C2409 C2408 1.388 . S
C2409 C2410 1.390 . S
C2410 C2409 1.390 . S
C2410 C2411 1.394 . S
C2410 C2416 1.465 . S
C2411 C2406 1.399 . S
C2411 C2410 1.394 . S
C2411 C2412 1.516 . S
C2412 C2411 1.516 . S
C2412 C2413 1.502 . S
C2412 C2414 1.561 . S
C2412 C2415 1.526 . S
C2413 H2397 0.959 . S
C2413 H2398 0.959 . S
C2413 H2399 0.961 . S
C2413 C2412 1.502 . S
C2414 H2400 0.960 . S
C2414 H2401 0.961 . S
C2414 H2402 0.959 . S
C2414 C2412 1.561 . S
C2415 C2412 1.526 . S
C2415 C2416 1.396 . S
C2415 C2420 1.390 . S
C2416 C2410 1.465 . S
C2416 C2415 1.396 . S
C2416 C2417 1.399 . S
C2417 H2403 0.929 . S
C2417 C2416 1.399 . S
C2417 C2418 1.385 . S
C2418 H2404 0.931 . S
C2418 C2417 1.385 . S
C2418 C2419 1.389 . S
C2419 C2418 1.389 . S
C2419 C2420 1.387 . S
C2420 H2405 0.930 . S
C2420 C2415 1.390 . S
C2420 C2419 1.387 . S
H2421 C2433 0.930 . S
H2422 C2435 0.930 . S
H2423 C2436 0.930 . S
H2424 C2440 0.959 . S
H2425 C2440 0.959 . S
H2426 C2440 0.961 . S
H2427 C2441 0.960 . S
H2428 C2441 0.961 . S
H2429 C2441 0.959 . S
H2430 C2444 0.929 . S
H2431 C2445 0.931 . S
H2432 C2447 0.930 . S
C2433 H2421 0.930 . S
C2433 C2434 1.399 . S
C2433 C2438 1.399 . S
C2434 C2433 1.399 . S
C2434 C2435 1.376 . S
C2435 H2422 0.930 . S
C2435 C2434 1.376 . S
C2435 C2436 1.388 . S
C2436 H2423 0.930 . S
C2436 C2435 1.388 . S
C2436 C2437 1.390 . S
C2437 C2436 1.390 . S
C2437 C2438 1.394 . S
C2437 C2443 1.465 . S
C2438 C2433 1.399 . S
C2438 C2437 1.394 . S
C2438 C2439 1.516 . S
C2439 C2438 1.516 . S
C2439 C2440 1.502 . S
C2439 C2441 1.561 . S
C2439 C2442 1.526 . S
C2440 H2424 0.959 . S
C2440 H2425 0.959 . S
C2440 H2426 0.961 . S
C2440 C2439 1.502 . S
C2441 H2427 0.960 . S
C2441 H2428 0.961 . S
C2441 H2429 0.959 . S
C2441 C2439 1.561 . S
C2442 C2439 1.526 . S
C2442 C2443 1.396 . S
C2442 C2447 1.390 . S
C2443 C2437 1.465 . S
C2443 C2442 1.396 . S
C2443 C2444 1.399 . S
C2444 H2430 0.929 . S
C2444 C2443 1.399 . S
C2444 C2445 1.385 . S
C2445 H2431 0.931 . S
C2445 C2444 1.385 . S
C2445 C2446 1.389 . S
C2446 C2445 1.389 . S
C2446 C2447 1.387 . S
C2447 H2432 0.930 . S
C2447 C2442 1.390 . S
C2447 C2446 1.387 . S
C517 C35 1.284 . S
C529 C256 1.085 . S
C544 C7 1.252 . S
C556 C272 1.060 . S
C583 C255 1.133 . S
C571 C23 1.303 . S
C610 C280 1.048 . S
C598 C37 1.227 . S
C625 C9 1.272 . S
C637 C289 1.199 . S
C664 C292 1.137 . S
C652 C21 1.267 . S
C679 C77 1.259 . S
C691 C298 1.045 . S
C718 C314 1.203 . S
C706 C49 1.308 . S
C745 C297 1.187 . S
C733 C65 1.239 . S
C760 C79 1.290 . S
C772 C322 1.041 . S
C799 C331 1.147 . S
C787 C51 1.250 . S
C826 C334 1.185 . S
C814 C63 1.301 . S
C853 C343 1.158 . S
C841 C119 1.280 . S
C880 C355 1.180 . S
C868 C91 1.306 . S
C907 C352 1.040 . S
C895 C107 1.257 . S
C922 C121 1.252 . S
C934 C361 1.016 . S
C961 C360 1.087 . S
C949 C93 1.305 . S
C976 C105 1.281 . S
C988 C377 1.086 . S
C1015 C382 1.055 . S
C1003 C161 1.258 . S
C1042 C398 1.150 . S
C1030 C133 1.292 . S
C1057 C149 1.249 . S
C1069 C381 1.203 . S
C1096 C406 1.024 . S
C1084 C163 1.283 . S
C1123 C415 1.175 . S
C1111 C135 1.312 . S
C1138 C147 1.278 . S
C1150 C418 1.126 . S
C1165 C203 1.253 . S
C1177 C427 1.034 . S
C1204 C439 1.056 . S
C1192 C175 1.252 . S
C1231 C436 1.097 . S
C1219 C191 1.233 . S
C1246 C205 1.279 . S
C1258 C445 1.187 . S
C1285 C444 1.095 . S
C1273 C177 1.308 . S
C1300 C189 1.262 . S
C1312 C461 1.121 . S
C1339 C466 1.184 . S
C1327 C245 1.305 . S
C1366 C482 1.099 . S
C1354 C217 1.269 . S
C1381 C233 1.248 . S
C1393 C465 1.076 . S
C1420 C487 1.016 . S
C1408 C247 1.273 . S
C1447 C486 1.135 . S
C1435 C219 1.252 . S
C1474 C503 1.202 . S
C1462 C231 1.306 . S
C1501 C268 1.530 . S
C1489 C162 1.585 . S
C1516 C134 1.580 . S
C1528 C271 1.478 . S
C1555 C259 1.475 . S
C1543 C143 1.553 . S
C1570 C241 1.595 . S
C1582 C276 1.524 . S
C1597 C213 1.596 . S
C1609 C277 1.443 . S
C1636 C293 1.539 1_565 S
C1624 C232 1.597 . S
C1663 C310 1.508 1_565 S
C1651 C204 1.579 . S
C1690 C313 1.535 . S
C1678 C176 1.589 . S
C1705 C185 1.547 . S
C1717 C301 1.493 . S
C1744 C318 1.544 1_655 S
C1732 C115 1.587 . S
C1759 C87 1.602 . S
C1771 C319 1.428 . S
C1786 C106 1.617 . S
C1798 C335 1.487 . S
C1813 C246 1.600 . S
C1825 C339 1.457 . S
C1840 C218 1.604 . S
C1852 C356 1.517 . S
C1879 C340 1.403 . S
C1867 C227 1.561 . S
C1906 C373 1.540 . S
C1894 C73 1.590 . S
C1933 C364 1.529 . S
C1921 C45 1.582 . S
C1948 C64 1.608 . S
C1960 C376 1.464 . S
C1987 C394 1.450 . S
C1975 C36 1.592 . S
C2014 C397 1.504 . S
C2002 C8 1.601 . S
C2029 C17 1.546 . S
C2041 C385 1.495 . S
C2068 C402 1.449 . S
C2056 C199 1.606 . S
C2095 C403 1.432 . S
C2083 C171 1.600 1_655 S
C2122 C419 1.505 . S
C2110 C190 1.592 . S
C2149 C423 1.530 . S
C2137 C78 1.585 . S
C2176 C440 1.481 . S
C2164 C50 1.580 . S
C2191 C59 1.549 . S
C2203 C424 1.490 . S
C2218 C157 1.595 1_565 S
C2230 C457 1.487 . S
C2245 C129 1.599 . S
C2257 C448 1.432 . S
C2284 C460 1.546 . S
C2272 C148 1.599 . S
C2299 C120 1.604 . S
C2311 C478 1.493 . S
C2326 C92 1.589 . S
C2338 C481 1.535 . S
C2365 C469 1.397 . S
C2353 C101 1.564 1_565 S
C2392 C499 1.539 . S
C2380 C31 1.590 . S
C2419 C490 1.428 . S
C2407 C3 1.602 . S
C2434 C22 1.592 . S
C2446 C502 1.514 . S
