# Generated by pormake.
# Topology ssa, (4,4)-cn, num edge types: 1
# Building blocks:
#     Node 0, Type 0, BuildingBlock: ESEHIV_clean_sbu_0, # of connection points: 4
#     Node 1, Type 0, BuildingBlock: ESEHIV_clean_sbu_0, # of connection points: 4
#     Node 2, Type 0, BuildingBlock: ESEHIV_clean_sbu_0, # of connection points: 4
#     Node 3, Type 0, BuildingBlock: ESEHIV_clean_sbu_0, # of connection points: 4
#     Node 4, Type 0, BuildingBlock: ESEHIV_clean_sbu_0, # of connection points: 4
#     Node 5, Type 0, BuildingBlock: ESEHIV_clean_sbu_0, # of connection points: 4
#     Node 6, Type 1, BuildingBlock: KOZSID_clean_sbu_0, # of connection points: 4
#     Node 7, Type 1, BuildingBlock: KOZSID_clean_sbu_0, # of connection points: 4
#     Node 8, Type 1, BuildingBlock: KOZSID_clean_sbu_0, # of connection points: 4
#     Node 9, Type 1, BuildingBlock: KOZSID_clean_sbu_0, # of connection points: 4
#     Node 10, Type 1, BuildingBlock: KOZSID_clean_sbu_0, # of connection points: 4
#     Node 11, Type 1, BuildingBlock: KOZSID_clean_sbu_0, # of connection points: 4
#     Edge 12, Type (0, 1), BuildingBlock: AJUNOK_clean_linker_0, # of connection points: 2
#     Edge 13, Type (0, 1), BuildingBlock: AJUNOK_clean_linker_0, # of connection points: 2
#     Edge 14, Type (0, 1), BuildingBlock: AJUNOK_clean_linker_0, # of connection points: 2
#     Edge 15, Type (0, 1), BuildingBlock: AJUNOK_clean_linker_0, # of connection points: 2
#     Edge 16, Type (0, 1), BuildingBlock: AJUNOK_clean_linker_0, # of connection points: 2
#     Edge 17, Type (0, 1), BuildingBlock: AJUNOK_clean_linker_0, # of connection points: 2
#     Edge 18, Type (0, 1), BuildingBlock: AJUNOK_clean_linker_0, # of connection points: 2
#     Edge 19, Type (0, 1), BuildingBlock: AJUNOK_clean_linker_0, # of connection points: 2
#     Edge 20, Type (0, 1), BuildingBlock: AJUNOK_clean_linker_0, # of connection points: 2
#     Edge 21, Type (0, 1), BuildingBlock: AJUNOK_clean_linker_0, # of connection points: 2
#     Edge 22, Type (0, 1), BuildingBlock: AJUNOK_clean_linker_0, # of connection points: 2
#     Edge 23, Type (0, 1), BuildingBlock: AJUNOK_clean_linker_0, # of connection points: 2
#     Edge 24, Type (0, 1), BuildingBlock: AJUNOK_clean_linker_0, # of connection points: 2
#     Edge 25, Type (0, 1), BuildingBlock: AJUNOK_clean_linker_0, # of connection points: 2
#     Edge 26, Type (0, 1), BuildingBlock: AJUNOK_clean_linker_0, # of connection points: 2
#     Edge 27, Type (0, 1), BuildingBlock: AJUNOK_clean_linker_0, # of connection points: 2
#     Edge 28, Type (0, 1), BuildingBlock: AJUNOK_clean_linker_0, # of connection points: 2
#     Edge 29, Type (0, 1), BuildingBlock: AJUNOK_clean_linker_0, # of connection points: 2
#     Edge 30, Type (0, 1), BuildingBlock: AJUNOK_clean_linker_0, # of connection points: 2
#     Edge 31, Type (0, 1), BuildingBlock: AJUNOK_clean_linker_0, # of connection points: 2
#     Edge 32, Type (0, 1), BuildingBlock: AJUNOK_clean_linker_0, # of connection points: 2
#     Edge 33, Type (0, 1), BuildingBlock: AJUNOK_clean_linker_0, # of connection points: 2
#     Edge 34, Type (0, 1), BuildingBlock: AJUNOK_clean_linker_0, # of connection points: 2
#     Edge 35, Type (0, 1), BuildingBlock: AJUNOK_clean_linker_0, # of connection points: 2
# Relax obj value: 0.023
# Max RMSD: 0.107
# Mean RMSD: 0.058
data_MOF--net-ssa--node1-ESEHIV_clean_sbu_0--node2-KOZSID_clean_sbu_0--edge1-AJUNOK_clean_linker_0
_symmetry_space_group_name_H-M    P1
_symmetry_Int_Tables_number       1
_symmetry_cell_setting            triclinic
loop_
_symmetry_equiv_pos_as_xyz
'x, y, z'
_cell_length_a     41.020853
_cell_length_b     44.224389
_cell_length_c     30.005565
_cell_angle_alpha  91.681824
_cell_angle_beta   95.2265
_cell_angle_gamma 122.8577
loop_
_atom_site_label
_atom_site_type_symbol
_atom_site_fract_x
_atom_site_fract_y
_atom_site_fract_z
_atom_type_partial_charge
Cu0 Cu 1.00093 0.51737 0.01662 0.0
N1 N 0.95947 0.47132 0.02501 0.0
N2 N 0.91265 0.41375 1.00298 0.0
C3 C 0.93935 0.4462 0.99013 0.0
C4 C 0.91574 0.41873 0.04817 0.0
C5 C 0.94475 0.45451 0.06175 0.0
O6 O 0.98 0.52936 0.96084 0.0
C7 C 0.05728 0.50761 0.06117 0.0
O8 O 0.0329 0.50055 0.09074 0.0
H9 H 0.94489 0.4517 0.95577 0.0
H10 H 0.95515 0.46693 0.09594 0.0
N11 N 1.0126 0.55076 0.06477 0.0
N12 N 0.05291 0.59295 0.12066 0.0
C13 C 0.0496 0.57779 0.07953 0.0
C14 C 0.99132 0.54911 0.09732 0.0
C15 C 1.01617 0.57535 0.13186 0.0
C16 C 0.94893 0.52957 0.96375 0.0
O17 O 0.93536 0.52392 1.00273 0.0
H18 H 0.07419 0.58412 0.06199 0.0
H19 H 0.96051 0.52891 0.09725 0.0
O20 O 0.0489 0.51486 0.02205 0.0
H21 H 0.89964 0.39785 0.07 0.0
H22 H 1.00792 0.58029 0.16316 0.0
Cu23 Cu 0.52096 1.00948 0.53145 0.0
N24 N 0.53517 0.99896 0.47698 0.0
N25 N 0.5428 0.96569 0.42514 0.0
C26 C 0.53244 0.96755 0.46637 0.0
C27 C 0.55288 0.9977 0.40952 0.0
C28 C 0.54787 0.01787 0.44116 0.0
O29 O 0.4718 0.96402 0.53513 0.0
C30 C 0.59602 0.04648 0.57135 0.0
O31 O 0.60042 0.0559 0.53015 0.0
H32 H 0.52218 0.94603 0.48837 0.0
H33 H 0.55338 0.04454 0.43829 0.0
N34 N 0.51538 0.04972 0.53611 0.0
N35 N 0.51586 0.09718 0.56806 0.0
C36 C 0.52087 0.0696 0.5749 0.0
C37 C 0.50637 0.06524 0.5036 0.0
C38 C 0.50633 0.09403 0.52301 0.0
C39 C 0.44674 0.95665 0.50131 0.0
O40 O 0.45313 0.98281 0.47638 0.0
H41 H 0.52901 0.0642 0.60759 0.0
H42 H 0.50007 0.05623 0.46816 0.0
O43 O 0.56203 0.02209 0.57977 0.0
H44 H 0.56404 1.00662 0.37793 0.0
H45 H 0.49894 0.11078 0.50502 0.0
Cu46 Cu 0.54856 0.5271 0.02508 0.0
N47 N 0.54925 0.48433 0.0254 0.0
N48 N 0.54777 0.43566 0.99644 0.0
C49 C 0.54409 0.46369 0.98768 0.0
C50 C 0.55595 0.43915 0.04173 0.0
C51 C 0.55685 0.46898 0.05936 0.0
O52 O 0.5773 0.54972 0.97553 0.0
C53 C 0.47768 0.4998 0.05026 0.0
O54 O 0.49468 0.49016 0.08062 0.0
H55 H 0.53787 0.4693 0.95422 0.0
H56 H 0.56334 0.47909 0.09442 0.0
N57 N 0.56991 0.56051 0.07784 0.0
N58 N 0.57743 0.60382 0.12814 0.0
C59 C 0.56051 0.58495 0.08712 0.0
C60 C 0.59352 0.56389 0.1145 0.0
C61 C 0.59815 0.59036 0.14532 0.0
C62 C 0.61338 0.56101 0.98239 0.0
O63 O 0.62896 0.56368 0.02373 0.0
H64 H 0.54026 0.58769 0.06468 0.0
H65 H 0.60604 0.54789 0.11892 0.0
O66 O 0.49501 0.51394 0.01638 0.0
H67 H 0.56223 0.42217 0.06091 0.0
H68 H 0.61552 0.59896 0.17801 0.0
Cu69 Cu 1.01131 0.48496 0.4981 0.0
N70 N 1.01278 0.45666 0.45194 0.0
N71 N 0.04085 0.44446 0.40029 0.0
C72 C 0.04638 0.46227 0.44024 0.0
C73 C 1.00212 0.42636 0.38642 0.0
C74 C 0.98478 0.4339 0.41851 0.0
O75 O 0.05998 0.53428 0.49577 0.0
C76 C 0.969 0.42522 0.54925 0.0
O77 O 0.95232 0.41014 0.50836 0.0
H78 H 0.07484 0.48158 0.45876 0.0
H79 H 0.95437 0.42508 0.41628 0.0
N80 N 0.96949 0.49001 0.48565 0.0
N81 N 0.92382 0.49919 0.50332 0.0
C82 C 0.95505 0.4983 0.51874 0.0
C83 C 0.94648 0.48524 0.44755 0.0
C84 C 0.91783 0.49063 0.45853 0.0
C85 C 0.06336 0.54699 0.45713 0.0
O86 O 0.03465 0.52785 0.42445 0.0
H87 H 0.9666 0.50242 0.55386 0.0
H88 H 0.94992 0.47804 0.41438 0.0
O89 O 0.99839 0.45838 0.55393 0.0
H90 H 0.98772 0.41019 0.35458 0.0
H91 H 0.89453 0.48845 0.43561 0.0
Cu92 Cu 0.53204 0.02307 0.05201 0.0
N93 N 0.52338 0.06039 0.05456 0.0
N94 N 0.51942 0.10419 0.02457 0.0
C95 C 0.51685 0.07277 0.01664 0.0
C96 C 0.52793 0.11198 0.0696 0.0
C97 C 0.53043 0.08492 0.08807 0.0
O98 O 0.55886 0.03238 0.99659 0.0
C99 C 0.46168 0.97389 0.08946 0.0
O100 O 0.46767 1.00431 0.10692 0.0
H101 H 0.51381 0.06049 0.98353 0.0
H102 H 0.53917 0.08458 0.12297 0.0
N103 N 0.56641 0.02694 0.10012 0.0
N104 N 0.58917 0.99883 0.14028 0.0
C105 C 0.58137 1.00642 0.09892 0.0
C106 C 0.56541 0.03331 0.14392 0.0
C107 C 0.57962 0.01622 0.16874 0.0
C108 C 0.59295 0.06195 0.99978 0.0
O109 O 0.60832 0.08045 0.03938 0.0
H110 H 0.58133 0.99327 0.0679 0.0
H111 H 0.54989 0.04444 0.15658 0.0
O112 O 0.48361 0.97533 0.06039 0.0
H113 H 0.53371 0.13629 0.08767 0.0
H114 H 0.57763 0.01266 0.20414 0.0
Cu115 Cu 0.49602 0.50129 0.49787 0.0
N116 N 0.49553 0.54002 0.52282 0.0
N117 N 0.50233 0.59339 0.51853 0.0
C118 C 0.51147 0.57059 0.50238 0.0
C119 C 0.47989 0.57665 0.5512 0.0
C120 C 0.47573 0.54351 0.55384 0.0
O121 O 0.46981 0.49503 0.43492 0.0
C122 C 0.56104 0.51939 0.55812 0.0
O123 O 0.53573 0.5179 0.58331 0.0
H124 H 0.5269 0.57467 0.47343 0.0
H125 H 0.45787 0.52286 0.57501 0.0
N126 N 0.467 0.4585 0.52513 0.0
N127 N 0.4612 0.41234 0.56043 0.0
C128 C 0.48066 0.43719 0.53186 0.0
C129 C 0.43703 0.44622 0.54972 0.0
C130 C 0.43336 0.41758 0.57156 0.0
C131 C 0.43462 0.48759 0.43314 0.0
O132 O 0.41925 0.48178 0.47097 0.0
H133 H 0.50665 0.44181 0.51894 0.0
H134 H 0.42098 0.45876 0.55428 0.0
O135 O 0.55103 0.514 0.51516 0.0
H136 H 0.46636 0.58694 0.57059 0.0
H137 H 0.41414 0.40391 0.59666 0.0
C138 C 0.23049 0.53829 0.15734 0.0
C139 C 0.23837 0.5726 0.15213 0.0
C140 C 0.27238 0.59628 0.17935 0.0
C141 C 0.28353 0.57526 0.19944 0.0
N142 N 0.2589 0.53958 0.18644 0.0
Co143 Co 0.26501 0.50007 0.20802 0.0
N144 N 0.31165 0.53431 0.25337 0.0
C145 C 0.32647 0.5699 0.26234 0.0
C146 C 0.35771 0.58679 0.29558 0.0
C147 C 0.3633 0.56045 0.30871 0.0
C148 C 0.33536 0.52885 0.28226 0.0
N149 N 0.27269 0.46097 0.22771 0.0
C150 C 0.30108 0.4624 0.25716 0.0
C151 C 0.29664 0.42897 0.25711 0.0
C152 C 0.26456 0.40572 0.22701 0.0
C153 C 0.25133 0.42613 0.20998 0.0
N154 N 0.21688 0.46552 0.16478 0.0
C155 C 0.19986 0.42937 0.15863 0.0
C156 C 0.16554 0.41183 0.12994 0.0
C157 C 0.15981 0.43828 0.11759 0.0
C158 C 0.19124 0.47065 0.13924 0.0
N159 N 0.29967 0.50849 0.16132 0.0
C160 C 0.35563 0.51412 0.10886 0.0
C161 C 0.31768 0.48346 0.10297 0.0
C162 C 0.29022 0.48129 0.12922 0.0
C163 C 0.36404 0.5434 0.13787 0.0
C164 C 0.33553 0.54026 0.16305 0.0
N165 N 0.23005 0.49118 0.25437 0.0
C166 C 0.1759 0.44864 0.29255 0.0
C167 C 0.17059 0.47569 0.30696 0.0
C168 C 0.19694 0.51105 0.29748 0.0
C169 C 0.22683 0.5183 0.27194 0.0
C170 C 0.20561 0.45688 0.26634 0.0
H171 H 0.24626 0.54584 0.26575 0.0
H172 H 0.20733 0.43479 0.25497 0.0
H173 H 0.26224 0.45657 0.12435 0.0
H174 H 0.34383 0.56331 0.18514 0.0
C175 C 0.31318 0.58733 0.23545 0.0
C176 C 0.1948 0.50535 0.13529 0.0
C177 C 0.3331 0.49462 0.28547 0.0
C178 C 0.21767 0.41304 0.17932 0.0
H179 H 0.22073 0.57965 0.13171 0.0
H180 H 0.28636 0.6252 0.18531 0.0
H181 H 0.37511 0.61514 0.30791 0.0
H182 H 0.38589 0.5643 0.33434 0.0
H183 H 0.31485 0.42211 0.27667 0.0
H184 H 0.25225 0.37725 0.21865 0.0
H185 H 0.14675 0.38317 0.11948 0.0
H186 H 0.13512 0.43415 0.09545 0.0
H187 H 0.30995 0.46021 0.08064 0.0
H188 H 0.39308 0.56794 0.14272 0.0
H189 H 0.1562 0.42097 0.2999 0.0
H190 H 0.19407 0.53283 0.30909 0.0
C191 C 0.71241 0.19291 0.69724 0.0
C192 C 0.68416 0.19407 0.6695 0.0
C193 C 0.69019 0.22739 0.6795 0.0
C194 C 0.72173 0.24464 0.71253 0.0
N195 N 0.73576 0.22421 0.72371 0.0
Co196 Co 0.7798 0.23745 0.77021 0.0
N197 N 0.77536 0.27526 0.80029 0.0
C198 C 0.75709 0.29041 0.78151 0.0
C199 C 0.75998 0.31694 0.80972 0.0
C200 C 0.78183 0.31892 0.8484 0.0
C201 C 0.79104 0.29326 0.84169 0.0
N202 N 0.82378 0.25031 0.81676 0.0
C203 C 0.83419 0.26895 0.8576 0.0
C204 C 0.86585 0.27009 0.88075 0.0
C205 C 0.87631 0.25268 0.85261 0.0
C206 C 0.85029 0.24146 0.81421 0.0
N207 N 0.7842 0.1998 0.7396 0.0
C208 C 0.81545 0.19713 0.74396 0.0
C209 C 0.80873 0.16694 0.71995 0.0
C210 C 0.77092 0.14963 0.69935 0.0
C211 C 0.7568 0.17052 0.71175 0.0
N212 N 0.81738 0.27399 0.73245 0.0
C213 C 0.87096 0.32632 0.67832 0.0
C214 C 0.83971 0.29168 0.65972 0.0
C215 C 0.81361 0.26618 0.68702 0.0
C216 C 0.87448 0.33373 0.72509 0.0
C217 C 0.84759 0.30755 0.75123 0.0
N218 N 0.74238 0.20113 0.80788 0.0
C219 C 0.724 0.15185 0.85473 0.0
C220 C 0.68938 0.14944 0.86254 0.0
C221 C 0.682 0.17362 0.84172 0.0
C222 C 0.70861 0.199 0.81469 0.0
C223 C 0.74981 0.17756 0.82756 0.0
H224 H 0.70196 0.2172 0.79961 0.0
H225 H 0.77601 0.17843 0.82269 0.0
H226 H 0.79023 0.24 0.6712 0.0
H227 H 0.85153 0.31459 0.78689 0.0
C228 C 0.73351 0.27592 0.73991 0.0
C229 C 0.71785 0.16276 0.69619 0.0
C230 C 0.81858 0.29002 0.87291 0.0
C231 C 0.84599 0.21786 0.77866 0.0
H232 H 0.66149 0.17302 0.64489 0.0
H233 H 0.67243 0.23704 0.66599 0.0
H234 H 0.74718 0.33255 0.8033 0.0
H235 H 0.7907 0.33778 0.87769 0.0
H236 H 0.88051 0.28297 0.91407 0.0
H237 H 0.89934 0.24783 0.85988 0.0
H238 H 0.82796 0.15726 0.71991 0.0
H239 H 0.75546 0.12423 0.67849 0.0
H240 H 0.83506 0.28422 0.62394 0.0
H241 H 0.89833 0.35939 0.74187 0.0
H242 H 0.73129 0.13392 0.86965 0.0
H243 H 0.65638 0.17378 0.84721 0.0
C244 C 0.52674 0.71278 0.21752 0.0
C245 C 0.49284 0.68498 0.192 0.0
C246 C 0.4639 0.69052 0.19848 0.0
C247 C 0.48154 0.72125 0.22753 0.0
N248 N 0.52009 0.7358 0.2401 0.0
Co249 Co 0.55601 0.78019 0.28331 0.0
N250 N 0.51276 0.78709 0.29469 0.0
C251 C 0.47461 0.76481 0.27794 0.0
C252 C 0.45175 0.77682 0.2897 0.0
C253 C 0.47668 0.80868 0.31567 0.0
C254 C 0.51368 0.81462 0.31784 0.0
N255 N 0.5923 0.82544 0.32501 0.0
C256 C 0.58614 0.84979 0.34482 0.0
C257 C 0.62056 0.87901 0.36773 0.0
C258 C 0.64939 0.87312 0.36217 0.0
C259 C 0.6312 0.8409 0.33601 0.0
N260 N 0.59901 0.77263 0.27293 0.0
C261 C 0.63657 0.79335 0.29241 0.0
C262 C 0.65941 0.78131 0.28055 0.0
C263 C 0.63493 0.75076 0.25216 0.0
C264 C 0.59831 0.74575 0.24831 0.0
N265 N 0.56779 0.81109 0.23302 0.0
C266 C 0.58322 0.8709 0.18752 0.0
C267 C 0.61391 0.86876 0.20751 0.0
C268 C 0.60555 0.8383 0.22928 0.0
C269 C 0.54517 0.84036 0.18473 0.0
C270 C 0.53822 0.81056 0.20706 0.0
N271 N 0.54427 0.74984 0.33459 0.0
C272 C 0.56551 0.73782 0.40591 0.0
C273 C 0.52911 0.70566 0.40605 0.0
C274 C 0.50007 0.69646 0.37023 0.0
C275 C 0.50802 0.71901 0.33554 0.0
C276 C 0.57251 0.75907 0.37007 0.0
H277 H 0.48452 0.71049 0.30953 0.0
H278 H 0.60125 0.78255 0.37171 0.0
H279 H 0.6299 0.83839 0.24529 0.0
H280 H 0.50849 0.78852 0.20553 0.0
C281 C 0.46213 0.7353 0.2468 0.0
C282 C 0.564 0.7151 0.22055 0.0
C283 C 0.54879 0.84726 0.34147 0.0
C284 C 0.64977 0.82458 0.32064 0.0
H285 H 0.48916 0.66249 0.17159 0.0
H286 H 0.43333 0.67352 0.18475 0.0
H287 H 0.42088 0.76457 0.27903 0.0
H288 H 0.46869 0.82605 0.33039 0.0
H289 H 0.62463 0.90256 0.38588 0.0
H290 H 0.68014 0.89062 0.37494 0.0
H291 H 0.69026 0.79338 0.29118 0.0
H292 H 0.64315 0.73406 0.23607 0.0
H293 H 0.64402 0.89117 0.2083 0.0
H294 H 0.52058 0.84039 0.1682 0.0
H295 H 0.58895 0.74629 0.43298 0.0
H296 H 0.47166 0.67136 0.36795 0.0
C297 C 0.73227 0.56063 0.67783 0.0
C298 C 0.74058 0.59354 0.66408 0.0
C299 C 0.77616 0.6196 0.68659 0.0
C300 C 0.78775 0.60134 0.71271 0.0
N301 N 0.7619 0.56507 0.70801 0.0
Co302 Co 0.76782 0.52896 0.74101 0.0
N303 N 0.8212 0.56726 0.77275 0.0
C304 C 0.84092 0.60296 0.7671 0.0
C305 C 0.87755 0.62276 0.79102 0.0
C306 C 0.88178 0.59829 0.81308 0.0
C307 C 0.84725 0.56476 0.80166 0.0
N308 N 0.77335 0.49302 0.77517 0.0
C309 C 0.80328 0.4973 0.80481 0.0
C310 C 0.79381 0.46471 0.82079 0.0
C311 C 0.75714 0.43899 0.80039 0.0
C312 C 0.74606 0.45716 0.77332 0.0
N313 N 0.71517 0.49043 0.708 0.0
C314 C 0.69626 0.45455 0.71216 0.0
C315 C 0.66076 0.43437 0.68583 0.0
C316 C 0.65673 0.45875 0.66323 0.0
C317 C 0.6901 0.49263 0.67707 0.0
N318 N 0.79318 0.5227 0.69167 0.0
C319 C 0.83202 0.5153 0.624 0.0
C320 C 0.80513 0.48525 0.64464 0.0
C321 C 0.78603 0.48951 0.67818 0.0
C322 C 0.83786 0.54866 0.6363 0.0
C323 C 0.81856 0.55178 0.6701 0.0
N324 N 0.7421 0.53552 0.79003 0.0
C325 C 0.68724 0.51172 0.83281 0.0
C326 C 0.69986 0.54655 0.85022 0.0
C327 C 0.73498 0.57551 0.83894 0.0
C328 C 0.75553 0.56943 0.80925 0.0
C329 C 0.70876 0.50684 0.80318 0.0
H330 H 0.78185 0.59276 0.80184 0.0
H331 H 0.6976 0.47967 0.79101 0.0
H332 H 0.76606 0.46575 0.69311 0.0
H333 H 0.8251 0.57816 0.67841 0.0
C334 C 0.82381 0.61713 0.73974 0.0
C335 C 0.69573 0.52608 0.66104 0.0
C336 C 0.84109 0.53146 0.81911 0.0
C337 C 0.71159 0.441 0.74323 0.0
H338 H 0.72279 0.5982 0.64005 0.0
H339 H 0.79197 0.64841 0.68376 0.0
H340 H 0.89875 0.65158 0.79217 0.0
H341 H 0.9075 0.60442 0.83498 0.0
H342 H 0.81172 0.45993 0.84446 0.0
H343 H 0.74079 0.41029 0.80417 0.0
H344 H 0.63992 0.40542 0.68394 0.0
H345 H 0.63178 0.45234 0.63968 0.0
H346 H 0.7997 0.45882 0.63587 0.0
H347 H 0.85779 0.5725 0.62035 0.0
H348 H 0.66094 0.48829 0.84211 0.0
H349 H 0.74625 0.60293 0.85229 0.0
C350 C 0.30372 0.82756 0.37771 0.0
C351 C 0.29964 0.85491 0.39432 0.0
C352 C 0.27413 0.85649 0.36341 0.0
C353 C 0.2639 0.83014 0.3298 0.0
N354 N 0.28088 0.81157 0.33785 0.0
Co355 Co 0.27449 0.77214 0.29689 0.0
N356 N 0.22729 0.76562 0.26223 0.0
C357 C 0.2168 0.78962 0.26131 0.0
C358 C 0.18211 0.77698 0.23454 0.0
C359 C 0.17007 0.74287 0.21763 0.0
C360 C 0.19831 0.73675 0.23515 0.0
N361 N 0.26766 0.73277 0.25566 0.0
C362 C 0.23513 0.70663 0.22906 0.0
C363 C 0.24224 0.68346 0.20627 0.0
C364 C 0.28075 0.69572 0.21944 0.0
C365 C 0.29488 0.72554 0.24941 0.0
N366 N 0.32192 0.77885 0.33161 0.0
C367 C 0.3429 0.76586 0.31825 0.0
C368 C 0.37401 0.77446 0.34946 0.0
C369 C 0.3732 0.79491 0.38398 0.0
C370 C 0.34144 0.79759 0.37201 0.0
N371 N 0.24099 0.73544 0.33707 0.0
C372 C 0.1887 0.67718 0.3853 0.0
C373 C 0.22238 0.68043 0.3721 0.0
C374 C 0.24768 0.70924 0.34809 0.0
C375 C 0.18307 0.70513 0.37562 0.0
C376 C 0.20943 0.7339 0.35169 0.0
N377 N 0.30807 0.80821 0.25585 0.0
C378 C 0.36869 0.86327 0.24312 0.0
C379 C 0.3573 0.85757 0.19648 0.0
C380 C 0.32043 0.82671 0.1804 0.0
C381 C 0.29668 0.80229 0.2103 0.0
C382 C 0.34364 0.83874 0.27205 0.0
H383 H 0.26905 0.77841 0.19633 0.0
H384 H 0.35332 0.84454 0.30761 0.0
H385 H 0.27221 0.70961 0.33739 0.0
H386 H 0.20362 0.75434 0.34389 0.0
C387 C 0.23546 0.81971 0.29288 0.0
C388 C 0.33396 0.82181 0.39723 0.0
C389 C 0.19784 0.70412 0.2241 0.0
C390 C 0.32976 0.74225 0.27899 0.0
H391 H 0.31455 0.87287 0.42479 0.0
H392 H 0.264 0.8745 0.36545 0.0
H393 H 0.16634 0.79011 0.22986 0.0
H394 H 0.14345 0.72455 0.19535 0.0
H395 H 0.22167 0.66002 0.1831 0.0
H396 H 0.29595 0.68319 0.21019 0.0
H397 H 0.39429 0.76613 0.34803 0.0
H398 H 0.39407 0.80713 0.41413 0.0
H399 H 0.22904 0.66042 0.37968 0.0
H400 H 0.1577 0.70418 0.38506 0.0
H401 H 0.39661 0.88694 0.25733 0.0
H402 H 0.31018 0.82115 0.14474 0.0
C403 C 0.50125 0.302 0.83966 0.0
C404 C 0.4666 0.29915 0.84595 0.0
C405 C 0.43855 0.27419 0.81294 0.0
C406 C 0.45744 0.26317 0.78824 0.0
N407 N 0.4956 0.27915 0.8039 0.0
Co408 Co 0.53328 0.27207 0.77476 0.0
N409 N 0.49052 0.22773 0.7364 0.0
C410 C 0.45291 0.2176 0.72888 0.0
C411 C 0.42986 0.18666 0.70027 0.0
C412 C 0.4545 0.17671 0.68852 0.0
C413 C 0.49139 0.20222 0.7107 0.0
N414 N 0.57087 0.26522 0.74502 0.0
C415 C 0.56513 0.23661 0.71873 0.0
C416 C 0.60027 0.24359 0.70652 0.0
C417 C 0.62875 0.27782 0.72473 0.0
C418 C 0.60964 0.28982 0.74733 0.0
N419 N 0.5762 0.31622 0.81337 0.0
C420 C 0.61433 0.33474 0.80764 0.0
C421 C 0.6375 0.36422 0.83844 0.0
C422 C 0.61244 0.36473 0.86513 0.0
C423 C 0.57514 0.33558 0.84887 0.0
N424 N 0.532 0.24171 0.82151 0.0
C425 C 0.5283 0.19729 0.88813 0.0
C426 C 0.56439 0.22411 0.87553 0.0
C427 C 0.5656 0.24601 0.84208 0.0
C428 C 0.49431 0.19368 0.86729 0.0
C429 C 0.49677 0.21591 0.83407 0.0
N430 N 0.53358 0.30237 0.72805 0.0
C431 C 0.52901 0.35252 0.7089 0.0
C432 C 0.51701 0.33836 0.66404 0.0
C433 C 0.51629 0.30737 0.65091 0.0
C434 C 0.52554 0.29017 0.68343 0.0
C435 C 0.53688 0.33407 0.74032 0.0
H436 H 0.52429 0.26607 0.67267 0.0
H437 H 0.54343 0.34468 0.77484 0.0
H438 H 0.59367 0.26629 0.83282 0.0
H439 H 0.46996 0.2121 0.81861 0.0
C440 C 0.43972 0.23564 0.75293 0.0
C441 C 0.53938 0.32967 0.8651 0.0
C442 C 0.52691 0.20336 0.70226 0.0
C443 C 0.62771 0.32161 0.776 0.0
H444 H 0.46223 0.3143 0.87099 0.0
H445 H 0.40797 0.26502 0.80776 0.0
H446 H 0.39874 0.17268 0.68967 0.0
H447 H 0.44641 0.15379 0.66539 0.0
H448 H 0.60486 0.22584 0.68635 0.0
H449 H 0.65986 0.2918 0.72295 0.0
H450 H 0.66896 0.38284 0.84155 0.0
H451 H 0.62065 0.38477 0.89281 0.0
H452 H 0.59138 0.22778 0.89093 0.0
H453 H 0.46588 0.17389 0.87675 0.0
H454 H 0.53013 0.37663 0.7201 0.0
H455 H 0.50775 0.2961 0.61614 0.0
C456 C 0.10612 0.51352 0.12392 0.0
C457 C 0.09425 0.50904 0.07702 0.0
C458 C 0.13846 0.51258 0.14193 0.0
C459 C 0.16073 0.50684 0.11418 0.0
H460 H 0.09009 0.51771 0.14745 0.0
H461 H 0.14587 0.51599 0.17812 0.0
S462 S 0.14393 0.49454 0.98943 0.0
N463 N 0.10886 0.4995 1.00325 0.0
N464 N 0.16952 0.49756 0.03717 0.0
C465 C 0.14994 0.50289 0.06727 0.0
C466 C 0.11692 0.50411 0.04873 0.0
C467 C 0.66603 0.0932 0.5958 0.0
C468 C 0.62808 0.07025 0.60753 0.0
C469 C 0.6955 0.12213 0.62549 0.0
C470 C 0.68835 0.12877 0.66835 0.0
H471 H 0.67252 0.09003 0.56243 0.0
H472 H 0.72355 0.14044 0.61407 0.0
S473 S 0.59535 0.07595 0.71705 0.0
N474 N 0.58568 0.05537 0.66619 0.0
N475 N 0.64178 0.10975 0.72229 0.0
C476 C 0.65136 0.10519 0.68158 0.0
C477 C 0.62109 0.07571 0.65122 0.0
C478 C 0.57545 0.6353 0.19758 0.0
C479 C 0.57332 0.63136 0.15024 0.0
C480 C 0.57227 0.66206 0.21985 0.0
C481 C 0.56694 0.68635 0.19598 0.0
H482 H 0.57924 0.61728 0.21774 0.0
H483 H 0.57397 0.66377 0.25616 0.0
S484 S 0.56117 0.68937 0.0723 0.0
N485 N 0.56667 0.65555 0.08068 0.0
N486 N 0.56062 0.70531 0.1225 0.0
C487 C 0.56492 0.68294 0.14885 0.0
C488 C 0.56805 0.65566 0.12606 0.0
C489 C 0.85984 0.4828 0.52444 0.0
C490 C 0.90087 0.50566 0.53061 0.0
C491 C 0.8375 0.48604 0.5547 0.0
C492 C 0.85558 0.51251 0.59162 0.0
H493 H 0.84514 0.46153 0.49707 0.0
H494 H 0.80596 0.46765 0.54934 0.0
S495 S 0.9621 0.57979 0.62119 0.0
N496 N 0.95852 0.55648 0.57494 0.0
N497 N 0.91683 0.56212 0.63229 0.0
C498 C 0.89654 0.53598 0.59743 0.0
C499 C 0.91911 0.53268 0.56677 0.0
C500 C 0.39579 0.93205 0.11532 0.0
C501 C 0.43326 0.93975 0.10945 0.0
C502 C 0.37099 0.90462 0.14181 0.0
C503 C 0.38298 0.88436 0.16516 0.0
H504 H 0.38589 0.9481 0.10016 0.0
H505 H 0.34275 0.90025 0.14554 0.0
S506 S 0.47818 0.8935 0.16157 0.0
N507 N 0.48062 0.92396 0.12892 0.0
N508 N 0.4349 0.8736 0.17976 0.0
C509 C 0.42018 0.89144 0.15923 0.0
C510 C 0.44502 0.91873 0.13122 0.0
C511 C 0.51489 0.40905 0.5985 0.0
C512 C 0.47477 0.39224 0.58322 0.0
C513 C 0.52865 0.39087 0.6231 0.0
C514 C 0.50291 0.35504 0.63249 0.0
H515 H 0.53561 0.43692 0.59281 0.0
H516 H 0.55945 0.40516 0.63582 0.0
S517 S 0.39565 0.29866 0.59899 0.0
N518 N 0.40975 0.33767 0.57851 0.0
N519 N 0.43575 0.30315 0.6243 0.0
C520 C 0.46297 0.33759 0.61646 0.0
C521 C 0.44885 0.35632 0.592 0.0
C522 C 0.54954 0.91288 0.4294 0.0
C523 C 0.54359 0.93604 0.40341 0.0
C524 C 0.551 0.88438 0.40935 0.0
C525 C 0.54652 0.87754 0.36233 0.0
H526 H 0.55378 0.91711 0.46571 0.0
H527 H 0.55588 0.86761 0.43087 0.0
S528 S 0.52861 0.92835 0.27828 0.0
N529 N 0.53152 0.94842 0.32715 0.0
N530 N 0.53525 0.8957 0.29018 0.0
C531 C 0.54019 0.90002 0.33583 0.0
C532 C 0.53856 0.929 0.35611 0.0
C533 C 0.67579 0.57879 0.95325 0.0
C534 C 0.63494 0.56182 0.94489 0.0
C535 C 0.69661 0.57446 0.92197 0.0
C536 C 0.67737 0.55272 0.8812 0.0
H537 H 0.69174 0.59459 0.98498 0.0
H538 H 0.72783 0.58714 0.93058 0.0
S539 S 0.57136 0.50494 0.84094 0.0
N540 N 0.57637 0.52431 0.8912 0.0
N541 N 0.6157 0.51631 0.83238 0.0
C542 C 0.63683 0.53686 0.87142 0.0
C543 C 0.61558 0.54149 0.90317 0.0
C544 C 0.11314 0.61523 0.46332 0.0
C545 C 0.09984 0.58007 0.44505 0.0
C546 C 0.14194 0.64646 0.44439 0.0
C547 C 0.15897 0.64394 0.40661 0.0
H548 H 0.09995 0.61864 0.49108 0.0
H549 H 0.15065 0.67281 0.45922 0.0
S550 S 0.13394 0.55798 0.34614 0.0
N551 N 0.10608 0.54484 0.38701 0.0
N552 N 0.15947 0.60257 0.35196 0.0
C553 C 0.14624 0.6088 0.38881 0.0
C554 C 0.11695 0.57728 0.40779 0.0
C555 C 0.54632 0.16496 0.99824 0.0
C556 C 0.51997 0.12718 0.99107 0.0
C557 C 0.54926 0.18747 0.96464 0.0
C558 C 0.52577 0.17303 0.92277 0.0
H559 H 0.56544 0.17718 0.02966 0.0
H560 H 0.56983 0.2164 0.97162 0.0
S561 S 0.45209 0.07599 0.88708 0.0
N562 N 0.46943 0.07652 0.93914 0.0
N563 N 0.47581 0.11861 0.87569 0.0
C564 C 0.4993 0.13534 0.91521 0.0
C565 C 0.49621 0.11249 0.94939 0.0
C566 C 0.36929 0.46889 0.39143 0.0
C567 C 0.41031 0.48709 0.39158 0.0
C568 C 0.345 0.47104 0.35701 0.0
C569 C 0.36019 0.49159 0.32061 0.0
H570 H 0.35559 0.45315 0.4189 0.0
H571 H 0.31395 0.45696 0.35942 0.0
S572 S 0.46494 0.54383 0.30283 0.0
N573 N 0.46464 0.52601 0.35061 0.0
N574 N 0.41898 0.52973 0.2858 0.0
C575 C 0.40092 0.50931 0.31938 0.0
C576 C 0.42587 0.50708 0.35465 0.0
C577 C 0.90382 0.37674 0.9347 0.0
C578 C 0.88923 0.38082 0.97356 0.0
C579 C 0.88085 0.34707 0.90296 0.0
C580 C 0.84273 0.31958 0.90937 0.0
H581 H 0.93319 0.39693 0.92831 0.0
H582 H 0.89286 0.34585 0.87275 0.0
S583 S 0.79046 0.31633 1.00516 0.0
N584 N 0.83382 0.35459 0.01645 0.0
N585 N 0.79112 0.29749 0.95715 0.0
C586 C 0.82788 0.32248 0.94843 0.0
C587 C 0.85111 0.35328 0.98061 0.0
C588 C 0.92039 0.51919 0.88055 0.0
C589 C 0.92578 0.53404 0.92504 0.0
C590 C 0.89345 0.51859 0.84642 0.0
C591 C 0.87093 0.53307 0.85508 0.0
H592 H 0.9359 0.50668 0.87244 0.0
H593 H 0.88979 0.50623 0.81309 0.0
S594 S 0.87525 0.57685 0.96463 0.0
N595 N 0.90686 0.56496 0.97456 0.0
N596 N 0.85715 0.56368 0.91115 0.0
C597 C 0.8769 0.54877 0.89888 0.0
C598 C 0.90395 0.54928 0.93348 0.0
C599 C 0.42591 0.91253 0.43547 0.0
C600 C 0.42131 0.91932 0.47981 0.0
C601 C 0.39919 0.87948 0.41041 0.0
C602 C 0.36663 0.85199 0.42862 0.0
H603 H 0.44957 0.93354 0.41929 0.0
H604 H 0.40272 0.87625 0.3756 0.0
S605 S 0.34301 0.85498 0.54427 0.0
N606 N 0.38357 0.895 0.54214 0.0
N607 N 0.33255 0.83255 0.49448 0.0
C608 C 0.36289 0.8575 0.47378 0.0
C609 C 0.39046 0.89129 0.49957 0.0
C610 C 0.55768 0.41803 0.92131 0.0
C611 C 0.54528 0.40886 0.96411 0.0
C612 C 0.55601 0.39261 0.88985 0.0
C613 C 0.54184 0.35679 0.8996 0.0
H614 H 0.56927 0.44525 0.91221 0.0
H615 H 0.56581 0.40104 0.85748 0.0
S616 S 0.50334 0.31779 1.00492 0.0
N617 N 0.51641 0.36025 0.01307 0.0
N618 N 0.51387 0.31318 0.95435 0.0
C619 C 0.52886 0.34709 0.94177 0.0
C620 C 0.53053 0.37288 0.97387 0.0
C621 C 0.10262 0.44831 0.39641 0.0
C622 C 0.07142 0.44959 0.37522 0.0
C623 C 0.13453 0.45629 0.37392 0.0
C624 C 0.13657 0.46665 0.32997 0.0
H625 H 0.10231 0.44126 0.43069 0.0
H626 H 0.15806 0.45502 0.39122 0.0
S627 S 0.06319 0.47512 0.26011 0.0
N628 N 0.0448 0.46223 0.30793 0.0
N629 N 0.10513 0.47777 0.26591 0.0
C630 C 0.10563 0.46797 0.30835 0.0
C631 C 0.07288 0.45927 0.33092 0.0
C632 C 0.65653 0.09833 0.96783 0.0
C633 C 0.61527 0.07845 0.96066 0.0
C634 C 0.67971 0.12001 0.93565 0.0
C635 C 0.66303 0.12366 0.89458 0.0
H636 H 0.67129 0.09794 0.99945 0.0
H637 H 0.71121 0.13522 0.94398 0.0
S638 S 0.55611 0.07674 0.85823 0.0
N639 N 0.55858 0.06331 0.90853 0.0
N640 N 0.60181 0.10388 0.84802 0.0
C641 C 0.62163 0.10327 0.8864 0.0
C642 C 0.59793 0.08072 0.91923 0.0
C643 C 0.54631 0.64708 0.4814 0.0
C644 C 0.5104 0.62548 0.49822 0.0
C645 C 0.55251 0.67383 0.45321 0.0
C646 C 0.52307 0.68034 0.44081 0.0
H647 H 0.56925 0.64206 0.48851 0.0
H648 H 0.57998 0.68823 0.43926 0.0
S649 S 0.42515 0.63393 0.47997 0.0
N650 N 0.4458 0.61387 0.50304 0.0
N651 N 0.45792 0.66535 0.45136 0.0
C652 C 0.48779 0.66045 0.45968 0.0
C653 C 0.48139 0.63287 0.48825 0.0
C654 C 0.51008 0.11548 0.64552 0.0
C655 C 0.51948 0.12406 0.60148 0.0
C656 C 0.51225 0.14087 0.67772 0.0
C657 C 0.52429 0.17615 0.66759 0.0
H658 H 0.50031 0.08869 0.65504 0.0
H659 H 0.5045 0.13284 0.71088 0.0
S660 S 0.5541 0.21355 0.55873 0.0
N661 N 0.54315 0.17176 0.55092 0.0
N662 N 0.54612 0.21839 0.61059 0.0
C663 C 0.53399 0.18517 0.62402 0.0
C664 C 0.53192 0.15953 0.59132 0.0
C665 C 0.44679 0.51311 0.10817 0.0
C666 C 0.44628 0.50399 0.06268 0.0
C667 C 0.41815 0.51778 0.12215 0.0
C668 C 0.38752 0.51303 0.09131 0.0
H669 H 0.4697 0.51692 0.13337 0.0
H670 H 0.41936 0.52412 0.15768 0.0
S671 S 0.37329 0.4901 0.96829 0.0
N672 N 0.41348 0.49164 0.9865 0.0
N673 N 0.35854 0.49941 0.01315 0.0
C674 C 0.38672 0.50428 0.04562 0.0
C675 C 0.41648 0.50015 0.03118 0.0
C676 C 0.93595 0.36581 0.58333 0.0
C677 C 0.95052 0.40306 0.58761 0.0
C678 C 0.91162 0.34191 0.61328 0.0
C679 C 0.8997 0.35365 0.649 0.0
H680 H 0.94266 0.35469 0.55561 0.0
H681 H 0.90158 0.31369 0.6078 0.0
S682 S 0.92831 0.44857 0.67426 0.0
N683 N 0.95091 0.45057 0.63051 0.0
N684 N 0.90464 0.406 0.68608 0.0
C685 C 0.91466 0.39114 0.6542 0.0
C686 C 0.94001 0.41563 0.62379 0.0
C687 C 0.57431 0.93758 0.11988 0.0
C688 C 0.59289 0.969 0.15023 0.0
C689 C 0.5728 0.90643 0.13135 0.0
C690 C 0.58999 0.90549 0.17347 0.0
H691 H 0.55892 0.93618 0.08786 0.0
H692 H 0.557 0.88252 0.1076 0.0
S693 S 0.64364 0.98067 0.26433 0.0
N694 N 0.63058 0.99761 0.22337 0.0
N695 N 0.6269 0.93869 0.2454 0.0
C696 C 0.60984 0.93697 0.20358 0.0
C697 C 0.61143 0.96875 0.19187 0.0
C698 C 0.61833 0.51066 0.56258 0.0
C699 C 0.59806 0.52425 0.58186 0.0
C700 C 0.64986 0.51134 0.58786 0.0
C701 C 0.66251 0.52568 0.63342 0.0
H702 H 0.60905 0.49841 0.52824 0.0
H703 H 0.66419 0.50021 0.57179 0.0
S704 S 0.62093 0.56583 0.69972 0.0
N705 N 0.59485 0.55383 0.64968 0.0
N706 N 0.65268 0.55422 0.69613 0.0
C707 C 0.64303 0.53981 0.65265 0.0
C708 C 0.61132 0.53932 0.62723 0.0
C709 C 0.12028 0.64667 0.12635 0.0
C710 C 0.08923 0.61978 0.14747 0.0
C711 C 0.15617 0.67283 0.15112 0.0
C712 C 0.16231 0.67298 0.1979 0.0
H713 H 0.11648 0.64794 0.09043 0.0
H714 H 0.17887 0.69379 0.13386 0.0
S715 S 0.09245 0.60741 0.26935 0.0
N716 N 0.06845 0.59375 0.21799 0.0
N717 N 0.13583 0.64379 0.26454 0.0
C718 C 0.13219 0.64601 0.21949 0.0
C719 C 0.0956 0.61919 0.1943 0.0
loop_
_geom_bond_atom_site_label_1
_geom_bond_atom_site_label_2
_geom_bond_distance
_geom_bond_site_symmetry_2
_ccdc_geom_bond_type
Cu0 N1 1.999 1_454 S
Cu0 O6 1.970 1_454 S
Cu0 N11 1.985 . S
Cu0 O20 1.963 . S
N1 Cu0 1.999 1_656 S
N1 C3 1.263 . S
N1 C5 1.377 1_556 S
N2 C3 1.358 . S
N2 C4 1.400 . S
C3 N1 1.263 . S
C3 N2 1.358 . S
C3 H9 0.930 . S
C4 N2 1.400 . S
C4 C5 1.335 1_556 S
C4 H21 0.930 . S
C5 N1 1.377 1_554 S
C5 C4 1.335 1_554 S
C5 H10 0.954 . S
O6 Cu0 1.970 1_656 S
O6 C16 1.282 . S
C7 O8 1.274 . S
C7 O20 1.251 . S
O8 C7 1.274 . S
H9 C3 0.930 . S
H10 C5 0.954 . S
N11 Cu0 1.985 . S
N11 C13 1.335 . S
N11 C14 1.390 . S
N12 C13 1.345 . S
N12 C15 1.336 . S
C13 N11 1.335 . S
C13 N12 1.345 . S
C13 H18 0.930 . S
C14 N11 1.390 . S
C14 C15 1.346 . S
C14 H19 0.929 . S
C15 N12 1.336 . S
C15 C14 1.346 . S
C15 H22 0.929 . S
C16 O6 1.282 . S
C16 O17 1.216 1_655 S
O17 C16 1.216 1_455 S
H18 C13 0.930 . S
H19 C14 0.929 . S
O20 Cu0 1.963 . S
O20 C7 1.251 . S
H21 C4 0.930 . S
H22 C15 0.929 . S
Cu23 N24 1.999 . S
Cu23 O29 1.974 . S
Cu23 N34 1.985 1_565 S
Cu23 O43 1.959 1_565 S
N24 Cu23 1.999 . S
N24 C26 1.263 . S
N24 C28 1.389 . S
N25 C26 1.358 . S
N25 C27 1.400 . S
C26 N24 1.263 . S
C26 N25 1.358 . S
C26 H32 0.930 . S
C27 N25 1.400 . S
C27 C28 1.351 . S
C27 H44 0.930 . S
C28 N24 1.389 . S
C28 C27 1.351 . S
C28 H33 0.930 . S
O29 Cu23 1.974 . S
O29 C39 1.282 . S
C30 O31 1.261 . S
C30 O43 1.251 . S
O31 C30 1.261 . S
H32 C26 0.930 . S
H33 C28 0.930 . S
N34 Cu23 1.985 1_545 S
N34 C36 1.335 . S
N34 C37 1.390 . S
N35 C36 1.345 . S
N35 C38 1.336 . S
C36 N34 1.335 . S
C36 N35 1.345 . S
C36 H41 0.930 . S
C37 N34 1.390 . S
C37 C38 1.346 . S
C37 H42 0.930 . S
C38 N35 1.336 . S
C38 C37 1.346 . S
C38 H45 0.929 . S
C39 O29 1.282 . S
C39 O40 1.216 . S
O40 C39 1.216 . S
H41 C36 0.930 . S
H42 C37 0.930 . S
O43 Cu23 1.959 1_545 S
O43 C30 1.251 . S
H44 C27 0.930 . S
H45 C38 0.929 . S
Cu46 N47 1.989 1_554 S
Cu46 O52 1.960 1_554 S
Cu46 N57 1.997 . S
Cu46 O66 1.973 . S
N47 Cu46 1.989 1_556 S
N47 C49 1.263 . S
N47 C51 1.389 . S
N48 C49 1.358 . S
N48 C50 1.400 . S
C49 N47 1.263 . S
C49 N48 1.358 . S
C49 H55 0.930 . S
C50 N48 1.400 . S
C50 C51 1.351 . S
C50 H67 0.930 . S
C51 N47 1.389 . S
C51 C50 1.351 . S
C51 H56 0.930 . S
O52 Cu46 1.960 1_556 S
O52 C62 1.282 . S
C53 O54 1.261 . S
C53 O66 1.251 . S
O54 C53 1.261 . S
H55 C49 0.930 . S
H56 C51 0.930 . S
N57 Cu46 1.997 . S
N57 C59 1.335 . S
N57 C60 1.390 . S
N58 C59 1.345 . S
N58 C61 1.336 . S
C59 N57 1.335 . S
C59 N58 1.345 . S
C59 H64 0.930 . S
C60 N57 1.390 . S
C60 C61 1.346 . S
C60 H65 0.930 . S
C61 N58 1.336 . S
C61 C60 1.346 . S
C61 H68 0.929 . S
C62 O52 1.282 . S
C62 O63 1.216 1_556 S
O63 C62 1.216 1_554 S
H64 C59 0.930 . S
H65 C60 0.930 . S
O66 Cu46 1.973 . S
O66 C53 1.251 . S
H67 C50 0.930 . S
H68 C61 0.929 . S
Cu69 N70 1.999 1_655 S
Cu69 O75 1.974 1_655 S
Cu69 N80 1.985 . S
Cu69 O89 1.959 . S
N70 Cu69 1.999 1_455 S
N70 C72 1.263 . S
N70 C74 1.389 1_455 S
N71 C72 1.358 . S
N71 C73 1.400 . S
C72 N70 1.263 . S
C72 N71 1.358 . S
C72 H78 0.930 . S
C73 N71 1.400 . S
C73 C74 1.351 1_455 S
C73 H90 0.930 . S
C74 N70 1.389 1_655 S
C74 C73 1.351 1_655 S
C74 H79 0.930 . S
O75 Cu69 1.974 1_455 S
O75 C85 1.282 . S
C76 O77 1.261 1_655 S
C76 O89 1.251 . S
O77 C76 1.261 1_455 S
H78 C72 0.930 . S
H79 C74 0.930 . S
N80 Cu69 1.985 . S
N80 C82 1.335 . S
N80 C83 1.390 . S
N81 C82 1.345 . S
N81 C84 1.336 . S
C82 N80 1.335 . S
C82 N81 1.345 . S
C82 H87 0.930 . S
C83 N80 1.390 . S
C83 C84 1.346 . S
C83 H88 0.930 1_655 S
C84 N81 1.336 . S
C84 C83 1.346 . S
C84 H91 0.929 . S
C85 O75 1.282 . S
C85 O86 1.216 . S
O86 C85 1.216 . S
H87 C82 0.930 . S
H88 C83 0.930 1_455 S
O89 Cu69 1.959 . S
O89 C76 1.251 . S
H90 C73 0.930 . S
H91 C84 0.929 . S
Cu92 N93 1.999 . S
Cu92 O98 1.974 1_554 S
Cu92 N103 1.985 1_545 S
Cu92 O112 1.959 1_545 S
N93 Cu92 1.999 . S
N93 C95 1.263 1_554 S
N93 C97 1.389 . S
N94 C95 1.358 . S
N94 C96 1.391 1_556 S
C95 N93 1.263 1_556 S
C95 N94 1.358 . S
C95 H101 0.930 . S
C96 N94 1.391 1_554 S
C96 C97 1.357 . S
C96 H113 0.933 . S
C97 N93 1.389 . S
C97 C96 1.357 . S
C97 H102 0.930 . S
O98 Cu92 1.974 1_556 S
O98 C108 1.282 . S
C99 O100 1.261 . S
C99 O112 1.251 . S
O100 C99 1.261 . S
H101 C95 0.930 . S
H102 C97 0.930 . S
N103 Cu92 1.985 1_565 S
N103 C105 1.335 . S
N103 C106 1.390 . S
N104 C105 1.345 . S
N104 C107 1.336 . S
C105 N103 1.335 . S
C105 N104 1.345 . S
C105 H110 0.930 . S
C106 N103 1.390 . S
C106 C107 1.346 . S
C106 H111 0.930 . S
C107 N104 1.336 . S
C107 C106 1.346 . S
C107 H114 0.929 . S
C108 O98 1.282 . S
C108 O109 1.216 . S
O109 C108 1.216 . S
H110 C105 0.930 . S
H111 C106 0.930 . S
O112 Cu92 1.959 1_565 S
O112 C99 1.251 . S
H113 C96 0.933 . S
H114 C107 0.929 . S
Cu115 N116 1.999 . S
Cu115 O121 1.974 . S
Cu115 N126 1.985 . S
Cu115 O135 1.959 . S
N116 Cu115 1.999 . S
N116 C118 1.263 . S
N116 C120 1.389 . S
N117 C118 1.358 . S
N117 C119 1.400 . S
C118 N116 1.263 . S
C118 N117 1.358 . S
C118 H124 0.930 . S
C119 N117 1.400 . S
C119 C120 1.351 . S
C119 H136 0.930 . S
C120 N116 1.389 . S
C120 C119 1.351 . S
C120 H125 0.930 . S
O121 Cu115 1.974 . S
O121 C131 1.282 . S
C122 O123 1.261 . S
C122 O135 1.251 . S
O123 C122 1.261 . S
H124 C118 0.930 . S
H125 C120 0.930 . S
N126 Cu115 1.985 . S
N126 C128 1.335 . S
N126 C129 1.390 . S
N127 C128 1.345 . S
N127 C130 1.336 . S
C128 N126 1.335 . S
C128 N127 1.345 . S
C128 H133 0.930 . S
C129 N126 1.390 . S
C129 C130 1.346 . S
C129 H134 0.930 . S
C130 N127 1.336 . S
C130 C129 1.346 . S
C130 H137 0.929 . S
C131 O121 1.282 . S
C131 O132 1.216 . S
O132 C131 1.216 . S
H133 C128 0.930 . S
H134 C129 0.930 . S
O135 Cu115 1.959 . S
O135 C122 1.251 . S
H136 C119 0.930 . S
H137 C130 0.929 . S
C138 C139 1.443 . S
C138 N142 1.376 . S
C138 C176 1.389 . S
C139 C138 1.443 . S
C139 C140 1.340 . S
C139 H179 0.951 . S
C140 C139 1.340 . S
C140 C141 1.439 . S
C140 H180 0.950 . S
C141 C140 1.439 . S
C141 N142 1.374 . S
C141 C175 1.395 . S
N142 C138 1.376 . S
N142 C141 1.374 . S
N142 Co143 2.008 . S
Co143 N142 2.008 . S
Co143 N144 1.995 . S
Co143 N149 2.008 . S
Co143 N154 1.995 . S
Co143 N159 2.282 . S
Co143 N165 2.282 . S
N144 Co143 1.995 . S
N144 C145 1.376 . S
N144 C148 1.383 . S
C145 N144 1.376 . S
C145 C146 1.446 . S
C145 C175 1.391 . S
C146 C145 1.446 . S
C146 C147 1.339 . S
C146 H181 0.949 . S
C147 C146 1.339 . S
C147 C148 1.439 . S
C147 H182 0.950 . S
C148 N144 1.383 . S
C148 C147 1.439 . S
C148 C177 1.392 . S
N149 Co143 2.008 . S
N149 C150 1.376 . S
N149 C153 1.374 . S
C150 N149 1.376 . S
C150 C151 1.443 . S
C150 C177 1.389 . S
C151 C150 1.443 . S
C151 C152 1.340 . S
C151 H183 0.951 . S
C152 C151 1.340 . S
C152 C153 1.439 . S
C152 H184 0.950 . S
C153 N149 1.374 . S
C153 C152 1.439 . S
C153 C178 1.395 . S
N154 Co143 1.995 . S
N154 C155 1.376 . S
N154 C158 1.383 . S
C155 N154 1.376 . S
C155 C156 1.446 . S
C155 C178 1.391 . S
C156 C155 1.446 . S
C156 C157 1.339 . S
C156 H185 0.949 . S
C157 C156 1.339 . S
C157 C158 1.439 . S
C157 H186 0.950 . S
C158 N154 1.383 . S
C158 C157 1.439 . S
C158 C176 1.392 . S
N159 Co143 2.282 . S
N159 C162 1.332 . S
N159 C164 1.332 . S
C160 C161 1.386 . S
C160 C163 1.388 . S
C161 C160 1.386 . S
C161 C162 1.382 . S
C161 H187 0.950 . S
C162 N159 1.332 . S
C162 C161 1.382 . S
C162 H173 0.952 . S
C163 C160 1.388 . S
C163 C164 1.382 . S
C163 H188 0.950 . S
C164 N159 1.332 . S
C164 C163 1.382 . S
C164 H174 0.948 . S
N165 Co143 2.282 . S
N165 C169 1.332 . S
N165 C170 1.332 . S
C166 C167 1.388 . S
C166 C170 1.382 . S
C166 H189 0.950 . S
C167 C166 1.388 . S
C167 C168 1.386 . S
C168 C167 1.386 . S
C168 C169 1.382 . S
C168 H190 0.950 . S
C169 N165 1.332 . S
C169 C168 1.382 . S
C169 H171 0.952 . S
C170 N165 1.332 . S
C170 C166 1.382 . S
C170 H172 0.948 . S
H171 C169 0.952 . S
H172 C170 0.948 . S
H173 C162 0.952 . S
H174 C164 0.948 . S
C175 C141 1.395 . S
C175 C145 1.391 . S
C176 C138 1.389 . S
C176 C158 1.392 . S
C177 C148 1.392 . S
C177 C150 1.389 . S
C178 C153 1.395 . S
C178 C155 1.391 . S
H179 C139 0.951 . S
H180 C140 0.950 . S
H181 C146 0.949 . S
H182 C147 0.950 . S
H183 C151 0.951 . S
H184 C152 0.950 . S
H185 C156 0.949 . S
H186 C157 0.950 . S
H187 C161 0.950 . S
H188 C163 0.950 . S
H189 C166 0.950 . S
H190 C168 0.950 . S
C191 C192 1.443 . S
C191 N195 1.376 . S
C191 C229 1.389 . S
C192 C191 1.443 . S
C192 C193 1.340 . S
C192 H232 0.951 . S
C193 C192 1.340 . S
C193 C194 1.439 . S
C193 H233 0.950 . S
C194 C193 1.439 . S
C194 N195 1.374 . S
C194 C228 1.395 . S
N195 C191 1.376 . S
N195 C194 1.374 . S
N195 Co196 2.008 . S
Co196 N195 2.008 . S
Co196 N197 1.995 . S
Co196 N202 2.008 . S
Co196 N207 1.995 . S
Co196 N212 2.282 . S
Co196 N218 2.282 . S
N197 Co196 1.995 . S
N197 C198 1.376 . S
N197 C201 1.383 . S
C198 N197 1.376 . S
C198 C199 1.446 . S
C198 C228 1.391 . S
C199 C198 1.446 . S
C199 C200 1.339 . S
C199 H234 0.949 . S
C200 C199 1.339 . S
C200 C201 1.439 . S
C200 H235 0.950 . S
C201 N197 1.383 . S
C201 C200 1.439 . S
C201 C230 1.392 . S
N202 Co196 2.008 . S
N202 C203 1.376 . S
N202 C206 1.374 . S
C203 N202 1.376 . S
C203 C204 1.443 . S
C203 C230 1.389 . S
C204 C203 1.443 . S
C204 C205 1.340 . S
C204 H236 0.951 . S
C205 C204 1.340 . S
C205 C206 1.439 . S
C205 H237 0.950 . S
C206 N202 1.374 . S
C206 C205 1.439 . S
C206 C231 1.395 . S
N207 Co196 1.995 . S
N207 C208 1.376 . S
N207 C211 1.383 . S
C208 N207 1.376 . S
C208 C209 1.446 . S
C208 C231 1.391 . S
C209 C208 1.446 . S
C209 C210 1.339 . S
C209 H238 0.949 . S
C210 C209 1.339 . S
C210 C211 1.439 . S
C210 H239 0.950 . S
C211 N207 1.383 . S
C211 C210 1.439 . S
C211 C229 1.392 . S
N212 Co196 2.282 . S
N212 C215 1.332 . S
N212 C217 1.332 . S
C213 C214 1.386 . S
C213 C216 1.388 . S
C214 C213 1.386 . S
C214 C215 1.382 . S
C214 H240 0.950 . S
C215 N212 1.332 . S
C215 C214 1.382 . S
C215 H226 0.952 . S
C216 C213 1.388 . S
C216 C217 1.382 . S
C216 H241 0.950 . S
C217 N212 1.332 . S
C217 C216 1.382 . S
C217 H227 0.948 . S
N218 Co196 2.282 . S
N218 C222 1.332 . S
N218 C223 1.332 . S
C219 C220 1.388 . S
C219 C223 1.382 . S
C219 H242 0.950 . S
C220 C219 1.388 . S
C220 C221 1.386 . S
C221 C220 1.386 . S
C221 C222 1.382 . S
C221 H243 0.950 . S
C222 N218 1.332 . S
C222 C221 1.382 . S
C222 H224 0.952 . S
C223 N218 1.332 . S
C223 C219 1.382 . S
C223 H225 0.948 . S
H224 C222 0.952 . S
H225 C223 0.948 . S
H226 C215 0.952 . S
H227 C217 0.948 . S
C228 C194 1.395 . S
C228 C198 1.391 . S
C229 C191 1.389 . S
C229 C211 1.392 . S
C230 C201 1.392 . S
C230 C203 1.389 . S
C231 C206 1.395 . S
C231 C208 1.391 . S
H232 C192 0.951 . S
H233 C193 0.950 . S
H234 C199 0.949 . S
H235 C200 0.950 . S
H236 C204 0.951 . S
H237 C205 0.950 . S
H238 C209 0.949 . S
H239 C210 0.950 . S
H240 C214 0.950 . S
H241 C216 0.950 . S
H242 C219 0.950 . S
H243 C221 0.950 . S
C244 C245 1.443 . S
C244 N248 1.376 . S
C244 C282 1.389 . S
C245 C244 1.443 . S
C245 C246 1.340 . S
C245 H285 0.951 . S
C246 C245 1.340 . S
C246 C247 1.439 . S
C246 H286 0.950 . S
C247 C246 1.439 . S
C247 N248 1.374 . S
C247 C281 1.395 . S
N248 C244 1.376 . S
N248 C247 1.374 . S
N248 Co249 2.008 . S
Co249 N248 2.008 . S
Co249 N250 1.995 . S
Co249 N255 2.008 . S
Co249 N260 1.995 . S
Co249 N265 2.282 . S
Co249 N271 2.282 . S
N250 Co249 1.995 . S
N250 C251 1.376 . S
N250 C254 1.383 . S
C251 N250 1.376 . S
C251 C252 1.446 . S
C251 C281 1.391 . S
C252 C251 1.446 . S
C252 C253 1.339 . S
C252 H287 0.949 . S
C253 C252 1.339 . S
C253 C254 1.439 . S
C253 H288 0.950 . S
C254 N250 1.383 . S
C254 C253 1.439 . S
C254 C283 1.392 . S
N255 Co249 2.008 . S
N255 C256 1.376 . S
N255 C259 1.374 . S
C256 N255 1.376 . S
C256 C257 1.443 . S
C256 C283 1.389 . S
C257 C256 1.443 . S
C257 C258 1.340 . S
C257 H289 0.951 . S
C258 C257 1.340 . S
C258 C259 1.439 . S
C258 H290 0.950 . S
C259 N255 1.374 . S
C259 C258 1.439 . S
C259 C284 1.395 . S
N260 Co249 1.995 . S
N260 C261 1.376 . S
N260 C264 1.383 . S
C261 N260 1.376 . S
C261 C262 1.446 . S
C261 C284 1.391 . S
C262 C261 1.446 . S
C262 C263 1.339 . S
C262 H291 0.949 . S
C263 C262 1.339 . S
C263 C264 1.439 . S
C263 H292 0.950 . S
C264 N260 1.383 . S
C264 C263 1.439 . S
C264 C282 1.392 . S
N265 Co249 2.282 . S
N265 C268 1.332 . S
N265 C270 1.332 . S
C266 C267 1.386 . S
C266 C269 1.388 . S
C267 C266 1.386 . S
C267 C268 1.382 . S
C267 H293 0.950 . S
C268 N265 1.332 . S
C268 C267 1.382 . S
C268 H279 0.952 . S
C269 C266 1.388 . S
C269 C270 1.382 . S
C269 H294 0.950 . S
C270 N265 1.332 . S
C270 C269 1.382 . S
C270 H280 0.948 . S
N271 Co249 2.282 . S
N271 C275 1.332 . S
N271 C276 1.332 . S
C272 C273 1.388 . S
C272 C276 1.382 . S
C272 H295 0.950 . S
C273 C272 1.388 . S
C273 C274 1.386 . S
C274 C273 1.386 . S
C274 C275 1.382 . S
C274 H296 0.950 . S
C275 N271 1.332 . S
C275 C274 1.382 . S
C275 H277 0.952 . S
C276 N271 1.332 . S
C276 C272 1.382 . S
C276 H278 0.948 . S
H277 C275 0.952 . S
H278 C276 0.948 . S
H279 C268 0.952 . S
H280 C270 0.948 . S
C281 C247 1.395 . S
C281 C251 1.391 . S
C282 C244 1.389 . S
C282 C264 1.392 . S
C283 C254 1.392 . S
C283 C256 1.389 . S
C284 C259 1.395 . S
C284 C261 1.391 . S
H285 C245 0.951 . S
H286 C246 0.950 . S
H287 C252 0.949 . S
H288 C253 0.950 . S
H289 C257 0.951 . S
H290 C258 0.950 . S
H291 C262 0.949 . S
H292 C263 0.950 . S
H293 C267 0.950 . S
H294 C269 0.950 . S
H295 C272 0.950 . S
H296 C274 0.950 . S
C297 C298 1.443 . S
C297 N301 1.376 . S
C297 C335 1.389 . S
C298 C297 1.443 . S
C298 C299 1.340 . S
C298 H338 0.951 . S
C299 C298 1.340 . S
C299 C300 1.439 . S
C299 H339 0.950 . S
C300 C299 1.439 . S
C300 N301 1.374 . S
C300 C334 1.395 . S
N301 C297 1.376 . S
N301 C300 1.374 . S
N301 Co302 2.008 . S
Co302 N301 2.008 . S
Co302 N303 1.995 . S
Co302 N308 2.008 . S
Co302 N313 1.995 . S
Co302 N318 2.282 . S
Co302 N324 2.282 . S
N303 Co302 1.995 . S
N303 C304 1.376 . S
N303 C307 1.383 . S
C304 N303 1.376 . S
C304 C305 1.446 . S
C304 C334 1.391 . S
C305 C304 1.446 . S
C305 C306 1.339 . S
C305 H340 0.949 . S
C306 C305 1.339 . S
C306 C307 1.439 . S
C306 H341 0.950 . S
C307 N303 1.383 . S
C307 C306 1.439 . S
C307 C336 1.392 . S
N308 Co302 2.008 . S
N308 C309 1.376 . S
N308 C312 1.374 . S
C309 N308 1.376 . S
C309 C310 1.443 . S
C309 C336 1.389 . S
C310 C309 1.443 . S
C310 C311 1.340 . S
C310 H342 0.951 . S
C311 C310 1.340 . S
C311 C312 1.439 . S
C311 H343 0.950 . S
C312 N308 1.374 . S
C312 C311 1.439 . S
C312 C337 1.395 . S
N313 Co302 1.995 . S
N313 C314 1.376 . S
N313 C317 1.383 . S
C314 N313 1.376 . S
C314 C315 1.446 . S
C314 C337 1.391 . S
C315 C314 1.446 . S
C315 C316 1.339 . S
C315 H344 0.949 . S
C316 C315 1.339 . S
C316 C317 1.439 . S
C316 H345 0.950 . S
C317 N313 1.383 . S
C317 C316 1.439 . S
C317 C335 1.392 . S
N318 Co302 2.282 . S
N318 C321 1.332 . S
N318 C323 1.332 . S
C319 C320 1.386 . S
C319 C322 1.388 . S
C320 C319 1.386 . S
C320 C321 1.382 . S
C320 H346 0.950 . S
C321 N318 1.332 . S
C321 C320 1.382 . S
C321 H332 0.952 . S
C322 C319 1.388 . S
C322 C323 1.382 . S
C322 H347 0.950 . S
C323 N318 1.332 . S
C323 C322 1.382 . S
C323 H333 0.948 . S
N324 Co302 2.282 . S
N324 C328 1.332 . S
N324 C329 1.332 . S
C325 C326 1.388 . S
C325 C329 1.382 . S
C325 H348 0.950 . S
C326 C325 1.388 . S
C326 C327 1.386 . S
C327 C326 1.386 . S
C327 C328 1.382 . S
C327 H349 0.950 . S
C328 N324 1.332 . S
C328 C327 1.382 . S
C328 H330 0.952 . S
C329 N324 1.332 . S
C329 C325 1.382 . S
C329 H331 0.948 . S
H330 C328 0.952 . S
H331 C329 0.948 . S
H332 C321 0.952 . S
H333 C323 0.948 . S
C334 C300 1.395 . S
C334 C304 1.391 . S
C335 C297 1.389 . S
C335 C317 1.392 . S
C336 C307 1.392 . S
C336 C309 1.389 . S
C337 C312 1.395 . S
C337 C314 1.391 . S
H338 C298 0.951 . S
H339 C299 0.950 . S
H340 C305 0.949 . S
H341 C306 0.950 . S
H342 C310 0.951 . S
H343 C311 0.950 . S
H344 C315 0.949 . S
H345 C316 0.950 . S
H346 C320 0.950 . S
H347 C322 0.950 . S
H348 C325 0.950 . S
H349 C327 0.950 . S
C350 C351 1.443 . S
C350 N354 1.376 . S
C350 C388 1.389 . S
C351 C350 1.443 . S
C351 C352 1.340 . S
C351 H391 0.951 . S
C352 C351 1.340 . S
C352 C353 1.439 . S
C352 H392 0.950 . S
C353 C352 1.439 . S
C353 N354 1.374 . S
C353 C387 1.395 . S
N354 C350 1.376 . S
N354 C353 1.374 . S
N354 Co355 2.008 . S
Co355 N354 2.008 . S
Co355 N356 1.995 . S
Co355 N361 2.008 . S
Co355 N366 1.995 . S
Co355 N371 2.282 . S
Co355 N377 2.282 . S
N356 Co355 1.995 . S
N356 C357 1.376 . S
N356 C360 1.383 . S
C357 N356 1.376 . S
C357 C358 1.446 . S
C357 C387 1.391 . S
C358 C357 1.446 . S
C358 C359 1.339 . S
C358 H393 0.949 . S
C359 C358 1.339 . S
C359 C360 1.439 . S
C359 H394 0.950 . S
C360 N356 1.383 . S
C360 C359 1.439 . S
C360 C389 1.392 . S
N361 Co355 2.008 . S
N361 C362 1.376 . S
N361 C365 1.374 . S
C362 N361 1.376 . S
C362 C363 1.443 . S
C362 C389 1.389 . S
C363 C362 1.443 . S
C363 C364 1.340 . S
C363 H395 0.951 . S
C364 C363 1.340 . S
C364 C365 1.439 . S
C364 H396 0.950 . S
C365 N361 1.374 . S
C365 C364 1.439 . S
C365 C390 1.395 . S
N366 Co355 1.995 . S
N366 C367 1.376 . S
N366 C370 1.383 . S
C367 N366 1.376 . S
C367 C368 1.446 . S
C367 C390 1.391 . S
C368 C367 1.446 . S
C368 C369 1.339 . S
C368 H397 0.949 . S
C369 C368 1.339 . S
C369 C370 1.439 . S
C369 H398 0.950 . S
C370 N366 1.383 . S
C370 C369 1.439 . S
C370 C388 1.392 . S
N371 Co355 2.282 . S
N371 C374 1.332 . S
N371 C376 1.332 . S
C372 C373 1.386 . S
C372 C375 1.388 . S
C373 C372 1.386 . S
C373 C374 1.382 . S
C373 H399 0.950 . S
C374 N371 1.332 . S
C374 C373 1.382 . S
C374 H385 0.952 . S
C375 C372 1.388 . S
C375 C376 1.382 . S
C375 H400 0.950 . S
C376 N371 1.332 . S
C376 C375 1.382 . S
C376 H386 0.948 . S
N377 Co355 2.282 . S
N377 C381 1.332 . S
N377 C382 1.332 . S
C378 C379 1.388 . S
C378 C382 1.382 . S
C378 H401 0.950 . S
C379 C378 1.388 . S
C379 C380 1.386 . S
C380 C379 1.386 . S
C380 C381 1.382 . S
C380 H402 0.950 . S
C381 N377 1.332 . S
C381 C380 1.382 . S
C381 H383 0.952 . S
C382 N377 1.332 . S
C382 C378 1.382 . S
C382 H384 0.948 . S
H383 C381 0.952 . S
H384 C382 0.948 . S
H385 C374 0.952 . S
H386 C376 0.948 . S
C387 C353 1.395 . S
C387 C357 1.391 . S
C388 C350 1.389 . S
C388 C370 1.392 . S
C389 C360 1.392 . S
C389 C362 1.389 . S
C390 C365 1.395 . S
C390 C367 1.391 . S
H391 C351 0.951 . S
H392 C352 0.950 . S
H393 C358 0.949 . S
H394 C359 0.950 . S
H395 C363 0.951 . S
H396 C364 0.950 . S
H397 C368 0.949 . S
H398 C369 0.950 . S
H399 C373 0.950 . S
H400 C375 0.950 . S
H401 C378 0.950 . S
H402 C380 0.950 . S
C403 C404 1.443 . S
C403 N407 1.376 . S
C403 C441 1.389 . S
C404 C403 1.443 . S
C404 C405 1.340 . S
C404 H444 0.951 . S
C405 C404 1.340 . S
C405 C406 1.439 . S
C405 H445 0.950 . S
C406 C405 1.439 . S
C406 N407 1.374 . S
C406 C440 1.395 . S
N407 C403 1.376 . S
N407 C406 1.374 . S
N407 Co408 2.008 . S
Co408 N407 2.008 . S
Co408 N409 1.995 . S
Co408 N414 2.008 . S
Co408 N419 1.995 . S
Co408 N424 2.282 . S
Co408 N430 2.282 . S
N409 Co408 1.995 . S
N409 C410 1.376 . S
N409 C413 1.383 . S
C410 N409 1.376 . S
C410 C411 1.446 . S
C410 C440 1.391 . S
C411 C410 1.446 . S
C411 C412 1.339 . S
C411 H446 0.949 . S
C412 C411 1.339 . S
C412 C413 1.439 . S
C412 H447 0.950 . S
C413 N409 1.383 . S
C413 C412 1.439 . S
C413 C442 1.392 . S
N414 Co408 2.008 . S
N414 C415 1.376 . S
N414 C418 1.374 . S
C415 N414 1.376 . S
C415 C416 1.443 . S
C415 C442 1.389 . S
C416 C415 1.443 . S
C416 C417 1.340 . S
C416 H448 0.951 . S
C417 C416 1.340 . S
C417 C418 1.439 . S
C417 H449 0.950 . S
C418 N414 1.374 . S
C418 C417 1.439 . S
C418 C443 1.395 . S
N419 Co408 1.995 . S
N419 C420 1.376 . S
N419 C423 1.383 . S
C420 N419 1.376 . S
C420 C421 1.446 . S
C420 C443 1.391 . S
C421 C420 1.446 . S
C421 C422 1.339 . S
C421 H450 0.949 . S
C422 C421 1.339 . S
C422 C423 1.439 . S
C422 H451 0.950 . S
C423 N419 1.383 . S
C423 C422 1.439 . S
C423 C441 1.392 . S
N424 Co408 2.282 . S
N424 C427 1.332 . S
N424 C429 1.332 . S
C425 C426 1.386 . S
C425 C428 1.388 . S
C426 C425 1.386 . S
C426 C427 1.382 . S
C426 H452 0.950 . S
C427 N424 1.332 . S
C427 C426 1.382 . S
C427 H438 0.952 . S
C428 C425 1.388 . S
C428 C429 1.382 . S
C428 H453 0.950 . S
C429 N424 1.332 . S
C429 C428 1.382 . S
C429 H439 0.948 . S
N430 Co408 2.282 . S
N430 C434 1.332 . S
N430 C435 1.332 . S
C431 C432 1.388 . S
C431 C435 1.382 . S
C431 H454 0.950 . S
C432 C431 1.388 . S
C432 C433 1.386 . S
C433 C432 1.386 . S
C433 C434 1.382 . S
C433 H455 0.950 . S
C434 N430 1.332 . S
C434 C433 1.382 . S
C434 H436 0.952 . S
C435 N430 1.332 . S
C435 C431 1.382 . S
C435 H437 0.948 . S
H436 C434 0.952 . S
H437 C435 0.948 . S
H438 C427 0.952 . S
H439 C429 0.948 . S
C440 C406 1.395 . S
C440 C410 1.391 . S
C441 C403 1.389 . S
C441 C423 1.392 . S
C442 C413 1.392 . S
C442 C415 1.389 . S
C443 C418 1.395 . S
C443 C420 1.391 . S
H444 C404 0.951 . S
H445 C405 0.950 . S
H446 C411 0.949 . S
H447 C412 0.950 . S
H448 C416 0.951 . S
H449 C417 0.950 . S
H450 C421 0.949 . S
H451 C422 0.950 . S
H452 C426 0.950 . S
H453 C428 0.950 . S
H454 C431 0.950 . S
H455 C433 0.950 . S
C456 C457 1.369 . S
C456 C458 1.419 . S
C456 H460 0.930 . S
C457 C456 1.369 . S
C457 C466 1.429 . S
C458 C456 1.419 . S
C458 C459 1.363 . S
C458 H461 0.929 . S
C459 C458 1.363 . S
C459 C465 1.428 . S
H460 C456 0.930 . S
H461 C458 0.929 . S
S462 N463 1.613 . S
S462 N464 1.610 . S
N463 S462 1.613 . S
N463 C466 1.350 . S
N464 S462 1.610 . S
N464 C465 1.351 . S
C465 C459 1.428 . S
C465 N464 1.351 . S
C465 C466 1.434 . S
C466 C457 1.429 . S
C466 N463 1.350 . S
C466 C465 1.434 . S
C467 C468 1.369 . S
C467 C469 1.419 . S
C467 H471 0.930 . S
C468 C467 1.369 . S
C468 C477 1.429 . S
C469 C467 1.419 . S
C469 C470 1.363 . S
C469 H472 0.929 . S
C470 C469 1.363 . S
C470 C476 1.428 . S
H471 C467 0.930 . S
H472 C469 0.929 . S
S473 N474 1.613 . S
S473 N475 1.610 . S
N474 S473 1.613 . S
N474 C477 1.350 . S
N475 S473 1.610 . S
N475 C476 1.351 . S
C476 C470 1.428 . S
C476 N475 1.351 . S
C476 C477 1.434 . S
C477 C468 1.429 . S
C477 N474 1.350 . S
C477 C476 1.434 . S
C478 C479 1.369 . S
C478 C480 1.419 . S
C478 H482 0.930 . S
C479 C478 1.369 . S
C479 C488 1.429 . S
C480 C478 1.419 . S
C480 C481 1.363 . S
C480 H483 0.929 . S
C481 C480 1.363 . S
C481 C487 1.428 . S
H482 C478 0.930 . S
H483 C480 0.929 . S
S484 N485 1.613 . S
S484 N486 1.610 . S
N485 S484 1.613 . S
N485 C488 1.350 . S
N486 S484 1.610 . S
N486 C487 1.351 . S
C487 C481 1.428 . S
C487 N486 1.351 . S
C487 C488 1.434 . S
C488 C479 1.429 . S
C488 N485 1.350 . S
C488 C487 1.434 . S
C489 C490 1.369 . S
C489 C491 1.419 . S
C489 H493 0.930 . S
C490 C489 1.369 . S
C490 C499 1.429 . S
C491 C489 1.419 . S
C491 C492 1.363 . S
C491 H494 0.929 . S
C492 C491 1.363 . S
C492 C498 1.428 . S
H493 C489 0.930 . S
H494 C491 0.929 . S
S495 N496 1.613 1_455 S
S495 N497 1.610 1_455 S
N496 S495 1.613 1_655 S
N496 C499 1.350 . S
N497 S495 1.610 1_655 S
N497 C498 1.351 . S
C498 C492 1.428 . S
C498 N497 1.351 . S
C498 C499 1.434 . S
C499 C490 1.429 . S
C499 N496 1.350 . S
C499 C498 1.434 . S
C500 C501 1.369 . S
C500 C502 1.419 . S
C500 H504 0.930 . S
C501 C500 1.369 . S
C501 C510 1.429 . S
C502 C500 1.419 . S
C502 C503 1.363 . S
C502 H505 0.929 . S
C503 C502 1.363 . S
C503 C509 1.428 . S
H504 C500 0.930 . S
H505 C502 0.929 . S
S506 N507 1.613 . S
S506 N508 1.610 . S
N507 S506 1.613 . S
N507 C510 1.350 . S
N508 S506 1.610 . S
N508 C509 1.351 . S
C509 C503 1.428 . S
C509 N508 1.351 . S
C509 C510 1.434 . S
C510 C501 1.429 . S
C510 N507 1.350 . S
C510 C509 1.434 . S
C511 C512 1.369 . S
C511 C513 1.419 . S
C511 H515 0.930 . S
C512 C511 1.369 . S
C512 C521 1.429 . S
C513 C511 1.419 . S
C513 C514 1.363 . S
C513 H516 0.929 . S
C514 C513 1.363 . S
C514 C520 1.428 . S
H515 C511 0.930 . S
H516 C513 0.929 . S
S517 N518 1.613 . S
S517 N519 1.610 . S
N518 S517 1.613 . S
N518 C521 1.350 . S
N519 S517 1.610 . S
N519 C520 1.351 . S
C520 C514 1.428 . S
C520 N519 1.351 . S
C520 C521 1.434 . S
C521 C512 1.429 . S
C521 N518 1.350 . S
C521 C520 1.434 . S
C522 C523 1.369 . S
C522 C524 1.419 . S
C522 H526 0.930 . S
C523 C522 1.369 . S
C523 C532 1.429 . S
C524 C522 1.419 . S
C524 C525 1.363 . S
C524 H527 0.929 . S
C525 C524 1.363 . S
C525 C531 1.428 . S
H526 C522 0.930 . S
H527 C524 0.929 . S
S528 N529 1.613 . S
S528 N530 1.610 . S
N529 S528 1.613 . S
N529 C532 1.350 . S
N530 S528 1.610 . S
N530 C531 1.351 . S
C531 C525 1.428 . S
C531 N530 1.351 . S
C531 C532 1.434 . S
C532 C523 1.429 . S
C532 N529 1.350 . S
C532 C531 1.434 . S
C533 C534 1.369 . S
C533 C535 1.419 . S
C533 H537 0.930 . S
C534 C533 1.369 . S
C534 C543 1.429 . S
C535 C533 1.419 . S
C535 C536 1.363 . S
C535 H538 0.929 . S
C536 C535 1.363 . S
C536 C542 1.428 . S
H537 C533 0.930 . S
H538 C535 0.929 . S
S539 N540 1.613 . S
S539 N541 1.610 . S
N540 S539 1.613 . S
N540 C543 1.350 . S
N541 S539 1.610 . S
N541 C542 1.351 . S
C542 C536 1.428 . S
C542 N541 1.351 . S
C542 C543 1.434 . S
C543 C534 1.429 . S
C543 N540 1.350 . S
C543 C542 1.434 . S
C544 C545 1.369 . S
C544 C546 1.419 . S
C544 H548 0.930 . S
C545 C544 1.369 . S
C545 C554 1.429 . S
C546 C544 1.419 . S
C546 C547 1.363 . S
C546 H549 0.929 . S
C547 C546 1.363 . S
C547 C553 1.428 . S
H548 C544 0.930 . S
H549 C546 0.929 . S
S550 N551 1.613 . S
S550 N552 1.610 . S
N551 S550 1.613 . S
N551 C554 1.350 . S
N552 S550 1.610 . S
N552 C553 1.351 . S
C553 C547 1.428 . S
C553 N552 1.351 . S
C553 C554 1.434 . S
C554 C545 1.429 . S
C554 N551 1.350 . S
C554 C553 1.434 . S
C555 C556 1.369 . S
C555 C557 1.419 . S
C555 H559 0.930 . S
C556 C555 1.369 . S
C556 C565 1.429 . S
C557 C555 1.419 . S
C557 C558 1.363 . S
C557 H560 0.929 . S
C558 C557 1.363 . S
C558 C564 1.428 . S
H559 C555 0.930 . S
H560 C557 0.929 . S
S561 N562 1.613 . S
S561 N563 1.610 . S
N562 S561 1.613 . S
N562 C565 1.350 . S
N563 S561 1.610 . S
N563 C564 1.351 . S
C564 C558 1.428 . S
C564 N563 1.351 . S
C564 C565 1.434 . S
C565 C556 1.429 . S
C565 N562 1.350 . S
C565 C564 1.434 . S
C566 C567 1.369 . S
C566 C568 1.419 . S
C566 H570 0.930 . S
C567 C566 1.369 . S
C567 C576 1.429 . S
C568 C566 1.419 . S
C568 C569 1.363 . S
C568 H571 0.929 . S
C569 C568 1.363 . S
C569 C575 1.428 . S
H570 C566 0.930 . S
H571 C568 0.929 . S
S572 N573 1.613 . S
S572 N574 1.610 . S
N573 S572 1.613 . S
N573 C576 1.350 . S
N574 S572 1.610 . S
N574 C575 1.351 . S
C575 C569 1.428 . S
C575 N574 1.351 . S
C575 C576 1.434 . S
C576 C567 1.429 . S
C576 N573 1.350 . S
C576 C575 1.434 . S
C577 C578 1.369 . S
C577 C579 1.419 . S
C577 H581 0.930 . S
C578 C577 1.369 . S
C578 C587 1.429 . S
C579 C577 1.419 . S
C579 C580 1.363 . S
C579 H582 0.929 . S
C580 C579 1.363 . S
C580 C586 1.428 . S
H581 C577 0.930 . S
H582 C579 0.929 . S
S583 N584 1.613 . S
S583 N585 1.610 . S
N584 S583 1.613 . S
N584 C587 1.350 . S
N585 S583 1.610 . S
N585 C586 1.351 . S
C586 C580 1.428 . S
C586 N585 1.351 . S
C586 C587 1.434 . S
C587 C578 1.429 . S
C587 N584 1.350 . S
C587 C586 1.434 . S
C588 C589 1.369 . S
C588 C590 1.419 . S
C588 H592 0.930 . S
C589 C588 1.369 . S
C589 C598 1.429 . S
C590 C588 1.419 . S
C590 C591 1.363 . S
C590 H593 0.929 . S
C591 C590 1.363 . S
C591 C597 1.428 . S
H592 C588 0.930 . S
H593 C590 0.929 . S
S594 N595 1.613 . S
S594 N596 1.610 . S
N595 S594 1.613 . S
N595 C598 1.350 . S
N596 S594 1.610 . S
N596 C597 1.351 . S
C597 C591 1.428 . S
C597 N596 1.351 . S
C597 C598 1.434 . S
C598 C589 1.429 . S
C598 N595 1.350 . S
C598 C597 1.434 . S
C599 C600 1.369 . S
C599 C601 1.419 . S
C599 H603 0.930 . S
C600 C599 1.369 . S
C600 C609 1.429 . S
C601 C599 1.419 . S
C601 C602 1.363 . S
C601 H604 0.929 . S
C602 C601 1.363 . S
C602 C608 1.428 . S
H603 C599 0.930 . S
H604 C601 0.929 . S
S605 N606 1.613 . S
S605 N607 1.610 . S
N606 S605 1.613 . S
N606 C609 1.350 . S
N607 S605 1.610 . S
N607 C608 1.351 . S
C608 C602 1.428 . S
C608 N607 1.351 . S
C608 C609 1.434 . S
C609 C600 1.429 . S
C609 N606 1.350 . S
C609 C608 1.434 . S
C610 C611 1.369 . S
C610 C612 1.419 . S
C610 H614 0.930 . S
C611 C610 1.369 . S
C611 C620 1.429 . S
C612 C610 1.419 . S
C612 C613 1.363 . S
C612 H615 0.929 . S
C613 C612 1.363 . S
C613 C619 1.428 . S
H614 C610 0.930 . S
H615 C612 0.929 . S
S616 N617 1.613 . S
S616 N618 1.610 . S
N617 S616 1.613 . S
N617 C620 1.350 . S
N618 S616 1.610 . S
N618 C619 1.351 . S
C619 C613 1.428 . S
C619 N618 1.351 . S
C619 C620 1.434 . S
C620 C611 1.429 . S
C620 N617 1.350 . S
C620 C619 1.434 . S
C621 C622 1.369 . S
C621 C623 1.419 . S
C621 H625 0.930 . S
C622 C621 1.369 . S
C622 C631 1.429 . S
C623 C621 1.419 . S
C623 C624 1.363 . S
C623 H626 0.929 . S
C624 C623 1.363 . S
C624 C630 1.428 . S
H625 C621 0.930 . S
H626 C623 0.929 . S
S627 N628 1.613 . S
S627 N629 1.610 . S
N628 S627 1.613 . S
N628 C631 1.350 . S
N629 S627 1.610 . S
N629 C630 1.351 . S
C630 C624 1.428 . S
C630 N629 1.351 . S
C630 C631 1.434 . S
C631 C622 1.429 . S
C631 N628 1.350 . S
C631 C630 1.434 . S
C632 C633 1.369 . S
C632 C634 1.419 . S
C632 H636 0.930 . S
C633 C632 1.369 . S
C633 C642 1.429 . S
C634 C632 1.419 . S
C634 C635 1.363 . S
C634 H637 0.929 . S
C635 C634 1.363 . S
C635 C641 1.428 . S
H636 C632 0.930 . S
H637 C634 0.929 . S
S638 N639 1.613 . S
S638 N640 1.610 . S
N639 S638 1.613 . S
N639 C642 1.350 . S
N640 S638 1.610 . S
N640 C641 1.351 . S
C641 C635 1.428 . S
C641 N640 1.351 . S
C641 C642 1.434 . S
C642 C633 1.429 . S
C642 N639 1.350 . S
C642 C641 1.434 . S
C643 C644 1.369 . S
C643 C645 1.419 . S
C643 H647 0.930 . S
C644 C643 1.369 . S
C644 C653 1.429 . S
C645 C643 1.419 . S
C645 C646 1.363 . S
C645 H648 0.929 . S
C646 C645 1.363 . S
C646 C652 1.428 . S
H647 C643 0.930 . S
H648 C645 0.929 . S
S649 N650 1.613 . S
S649 N651 1.610 . S
N650 S649 1.613 . S
N650 C653 1.350 . S
N651 S649 1.610 . S
N651 C652 1.351 . S
C652 C646 1.428 . S
C652 N651 1.351 . S
C652 C653 1.434 . S
C653 C644 1.429 . S
C653 N650 1.350 . S
C653 C652 1.434 . S
C654 C655 1.369 . S
C654 C656 1.419 . S
C654 H658 0.930 . S
C655 C654 1.369 . S
C655 C664 1.429 . S
C656 C654 1.419 . S
C656 C657 1.363 . S
C656 H659 0.929 . S
C657 C656 1.363 . S
C657 C663 1.428 . S
H658 C654 0.930 . S
H659 C656 0.929 . S
S660 N661 1.613 . S
S660 N662 1.610 . S
N661 S660 1.613 . S
N661 C664 1.350 . S
N662 S660 1.610 . S
N662 C663 1.351 . S
C663 C657 1.428 . S
C663 N662 1.351 . S
C663 C664 1.434 . S
C664 C655 1.429 . S
C664 N661 1.350 . S
C664 C663 1.434 . S
C665 C666 1.369 . S
C665 C667 1.419 . S
C665 H669 0.930 . S
C666 C665 1.369 . S
C666 C675 1.429 . S
C667 C665 1.419 . S
C667 C668 1.363 . S
C667 H670 0.929 . S
C668 C667 1.363 . S
C668 C674 1.428 . S
H669 C665 0.930 . S
H670 C667 0.929 . S
S671 N672 1.613 . S
S671 N673 1.610 . S
N672 S671 1.613 . S
N672 C675 1.350 . S
N673 S671 1.610 . S
N673 C674 1.351 . S
C674 C668 1.428 . S
C674 N673 1.351 . S
C674 C675 1.434 . S
C675 C666 1.429 . S
C675 N672 1.350 . S
C675 C674 1.434 . S
C676 C677 1.369 . S
C676 C678 1.419 . S
C676 H680 0.930 . S
C677 C676 1.369 . S
C677 C686 1.429 . S
C678 C676 1.419 . S
C678 C679 1.363 . S
C678 H681 0.929 . S
C679 C678 1.363 . S
C679 C685 1.428 . S
H680 C676 0.930 . S
H681 C678 0.929 . S
S682 N683 1.613 . S
S682 N684 1.610 . S
N683 S682 1.613 . S
N683 C686 1.350 . S
N684 S682 1.610 . S
N684 C685 1.351 . S
C685 C679 1.428 . S
C685 N684 1.351 . S
C685 C686 1.434 . S
C686 C677 1.429 . S
C686 N683 1.350 . S
C686 C685 1.434 . S
C687 C688 1.369 . S
C687 C689 1.419 . S
C687 H691 0.930 . S
C688 C687 1.369 . S
C688 C697 1.429 . S
C689 C687 1.419 . S
C689 C690 1.363 . S
C689 H692 0.929 . S
C690 C689 1.363 . S
C690 C696 1.428 . S
H691 C687 0.930 . S
H692 C689 0.929 . S
S693 N694 1.617 1_545 S
S693 N695 1.595 1_545 S
N694 S693 1.617 1_565 S
N694 C697 1.350 . S
N695 S693 1.595 1_565 S
N695 C696 1.351 . S
C696 C690 1.428 . S
C696 N695 1.351 . S
C696 C697 1.434 . S
C697 C688 1.429 . S
C697 N694 1.350 . S
C697 C696 1.434 . S
C698 C699 1.369 . S
C698 C700 1.419 . S
C698 H702 0.930 . S
C699 C698 1.369 . S
C699 C708 1.429 . S
C700 C698 1.419 . S
C700 C701 1.363 . S
C700 H703 0.929 . S
C701 C700 1.363 . S
C701 C707 1.428 . S
H702 C698 0.930 . S
H703 C700 0.929 . S
S704 N705 1.613 . S
S704 N706 1.610 . S
N705 S704 1.613 . S
N705 C708 1.350 . S
N706 S704 1.610 . S
N706 C707 1.351 . S
C707 C701 1.428 . S
C707 N706 1.351 . S
C707 C708 1.434 . S
C708 C699 1.429 . S
C708 N705 1.350 . S
C708 C707 1.434 . S
C709 C710 1.369 . S
C709 C711 1.419 . S
C709 H713 0.930 . S
C710 C709 1.369 . S
C710 C719 1.429 . S
C711 C709 1.419 . S
C711 C712 1.363 . S
C711 H714 0.929 . S
C712 C711 1.363 . S
C712 C718 1.428 . S
H713 C709 0.930 . S
H714 C711 0.929 . S
S715 N716 1.613 . S
S715 N717 1.610 . S
N716 S715 1.613 . S
N716 C719 1.350 . S
N717 S715 1.610 . S
N717 C718 1.351 . S
C718 C712 1.428 . S
C718 N717 1.351 . S
C718 C719 1.434 . S
C719 C710 1.429 . S
C719 N716 1.350 . S
C719 C718 1.434 . S
C457 C7 2.085 . S
C459 C176 2.061 . S
C468 C30 1.541 . S
C470 C229 1.515 . S
C481 C282 1.825 . S
C479 N58 1.793 . S
C492 C319 1.304 . S
C490 N81 1.259 . S
C503 C379 1.798 . S
C501 C99 1.837 . S
C514 C432 1.406 . S
C512 N127 1.369 . S
C523 N25 1.893 . S
C525 C283 1.918 . S
C534 C62 1.521 . S
C536 C326 1.479 . S
C547 C372 1.838 . S
C545 C85 1.858 . S
C558 C425 1.346 . S
C556 N94 1.359 . S
C567 C131 1.948 . S
C569 C177 1.913 . S
C580 C230 1.412 . S
C578 N2 1.385 . S
C591 C336 2.023 . S
C589 C16 2.040 . S
C600 C39 1.504 . S
C602 C388 1.501 . S
C613 C441 1.830 . S
C611 N48 1.796 . S
C622 N71 1.236 . S
C624 C167 1.269 . S
C633 C108 1.809 . S
C635 C220 1.799 . S
C644 N117 1.377 . S
C646 C273 1.398 . S
C655 N35 1.867 . S
C657 C442 1.904 . S
C668 C160 1.479 . S
C666 C53 1.499 . S
C677 C76 1.887 . S
C679 C213 1.858 . S
C688 N104 1.293 . S
C690 C266 1.311 . S
C699 C122 1.894 . S
C701 C335 1.879 . S
C710 N12 1.335 . S
C712 C389 1.384 . S
