# Generated by pormake.
# Topology zzz, (3,6)-cn, num edge types: 1
# Building blocks:
#     Node 0, Type 0, BuildingBlock: WUSLED_clean_sbu_0, # of connection points: 3
#     Node 1, Type 0, BuildingBlock: WUSLED_clean_sbu_0, # of connection points: 3
#     Node 2, Type 0, BuildingBlock: WUSLED_clean_sbu_0, # of connection points: 3
#     Node 3, Type 0, BuildingBlock: WUSLED_clean_sbu_0, # of connection points: 3
#     Node 4, Type 0, BuildingBlock: WUSLED_clean_sbu_0, # of connection points: 3
#     Node 5, Type 0, BuildingBlock: WUSLED_clean_sbu_0, # of connection points: 3
#     Node 6, Type 0, BuildingBlock: WUSLED_clean_sbu_0, # of connection points: 3
#     Node 7, Type 0, BuildingBlock: WUSLED_clean_sbu_0, # of connection points: 3
#     Node 8, Type 1, BuildingBlock: KUMBOL_clean_sbu_0, # of connection points: 6
#     Node 9, Type 1, BuildingBlock: KUMBOL_clean_sbu_0, # of connection points: 6
#     Node 10, Type 1, BuildingBlock: KUMBOL_clean_sbu_0, # of connection points: 6
#     Node 11, Type 1, BuildingBlock: KUMBOL_clean_sbu_0, # of connection points: 6
#     Edge 12, Type (0, 1), BuildingBlock: KIFKEQ_clean_linker_1, # of connection points: 2
#     Edge 13, Type (0, 1), BuildingBlock: KIFKEQ_clean_linker_1, # of connection points: 2
#     Edge 14, Type (0, 1), BuildingBlock: KIFKEQ_clean_linker_1, # of connection points: 2
#     Edge 15, Type (0, 1), BuildingBlock: KIFKEQ_clean_linker_1, # of connection points: 2
#     Edge 16, Type (0, 1), BuildingBlock: KIFKEQ_clean_linker_1, # of connection points: 2
#     Edge 17, Type (0, 1), BuildingBlock: KIFKEQ_clean_linker_1, # of connection points: 2
#     Edge 18, Type (0, 1), BuildingBlock: KIFKEQ_clean_linker_1, # of connection points: 2
#     Edge 19, Type (0, 1), BuildingBlock: KIFKEQ_clean_linker_1, # of connection points: 2
#     Edge 20, Type (0, 1), BuildingBlock: KIFKEQ_clean_linker_1, # of connection points: 2
#     Edge 21, Type (0, 1), BuildingBlock: KIFKEQ_clean_linker_1, # of connection points: 2
#     Edge 22, Type (0, 1), BuildingBlock: KIFKEQ_clean_linker_1, # of connection points: 2
#     Edge 23, Type (0, 1), BuildingBlock: KIFKEQ_clean_linker_1, # of connection points: 2
#     Edge 24, Type (0, 1), BuildingBlock: KIFKEQ_clean_linker_1, # of connection points: 2
#     Edge 25, Type (0, 1), BuildingBlock: KIFKEQ_clean_linker_1, # of connection points: 2
#     Edge 26, Type (0, 1), BuildingBlock: KIFKEQ_clean_linker_1, # of connection points: 2
#     Edge 27, Type (0, 1), BuildingBlock: KIFKEQ_clean_linker_1, # of connection points: 2
#     Edge 28, Type (0, 1), BuildingBlock: KIFKEQ_clean_linker_1, # of connection points: 2
#     Edge 29, Type (0, 1), BuildingBlock: KIFKEQ_clean_linker_1, # of connection points: 2
#     Edge 30, Type (0, 1), BuildingBlock: KIFKEQ_clean_linker_1, # of connection points: 2
#     Edge 31, Type (0, 1), BuildingBlock: KIFKEQ_clean_linker_1, # of connection points: 2
#     Edge 32, Type (0, 1), BuildingBlock: KIFKEQ_clean_linker_1, # of connection points: 2
#     Edge 33, Type (0, 1), BuildingBlock: KIFKEQ_clean_linker_1, # of connection points: 2
#     Edge 34, Type (0, 1), BuildingBlock: KIFKEQ_clean_linker_1, # of connection points: 2
#     Edge 35, Type (0, 1), BuildingBlock: KIFKEQ_clean_linker_1, # of connection points: 2
# Relax obj value: 0.273
# Max RMSD: 0.218
# Mean RMSD: 0.205
data_MOF--net-zzz--node1-WUSLED_clean_sbu_0--node2-KUMBOL_clean_sbu_0--edge1-KIFKEQ_clean_linker_1
_symmetry_space_group_name_H-M    P1
_symmetry_Int_Tables_number       1
_symmetry_cell_setting            triclinic
loop_
_symmetry_equiv_pos_as_xyz
'x, y, z'
_cell_length_a     62.166543
_cell_length_b     62.089574
_cell_length_c     21.336664
_cell_angle_alpha  91.013661
_cell_angle_beta   89.890533
_cell_angle_gamma 89.94352
loop_
_atom_site_label
_atom_site_type_symbol
_atom_site_fract_x
_atom_site_fract_y
_atom_site_fract_z
_atom_type_partial_charge
C0 C 0.79144 0.54527 0.27369 0.0
C1 C 0.80966 0.53877 0.23897 0.0
C2 C 0.83283 0.54464 0.33047 0.0
C3 C 0.83009 0.53848 0.26701 0.0
C4 C 0.81462 0.55183 0.36422 0.0
C5 C 0.79426 0.55211 0.33623 0.0
U6 U 0.7434 0.55365 0.15701 0.0
O7 O 0.72003 0.52865 0.12979 0.0
O8 O 0.70889 0.55805 0.17817 0.0
C9 C 0.70341 0.54005 0.14899 0.0
C10 C 0.76919 0.54269 0.24909 0.0
C11 C 0.68543 0.54123 0.10399 0.0
C12 C 0.6506 0.52781 0.0697 0.0
C13 C 0.6673 0.52833 0.11348 0.0
C14 C 0.66964 0.55357 1.00638 0.0
C15 C 0.65161 0.54021 1.01516 0.0
C16 C 0.68649 0.55399 0.05029 0.0
C17 C 0.77989 0.58622 0.0508 0.0
C18 C 0.80305 0.59984 0.96923 0.0
C19 C 0.81858 0.58571 0.06428 0.0
C20 C 0.79797 0.58186 0.08769 0.0
C21 C 0.82127 0.59377 1.00358 0.0
C22 C 0.78247 0.59604 0.99273 0.0
C23 C 0.75883 0.57754 0.0674 0.0
O24 O 0.75648 0.55964 0.25198 0.0
O25 O 0.76662 0.53105 0.19755 0.0
O26 O 0.75768 0.55643 0.06362 0.0
O27 O 0.7497 0.5857 0.11813 0.0
H28 H 0.80809 0.53337 0.19065 0.0
H29 H 0.84372 0.53319 0.23906 0.0
H30 H 0.81589 0.55645 0.41325 0.0
H31 H 0.78049 0.55696 0.36437 0.0
H32 H 0.63684 0.51761 0.07856 0.0
H33 H 0.66618 0.51835 0.15452 0.0
H34 H 0.671 0.56322 0.96476 0.0
H35 H 0.70046 0.56396 0.04186 0.0
H36 H 0.80473 0.60613 0.92244 0.0
H37 H 0.83234 0.58063 0.0914 0.0
H38 H 0.79618 0.57413 0.13254 0.0
H39 H 0.76862 0.59944 0.96374 0.0
C40 C 1.00022 0.80115 0.27748 0.0
C41 C 0.99764 0.82055 0.2452 0.0
C42 C 1.00151 0.84144 0.34302 0.0
C43 C 0.99802 0.84049 0.27777 0.0
C44 C 1.0038 0.82197 0.37503 0.0
C45 C 1.00304 0.80214 0.34275 0.0
U46 U 0.98773 0.75495 0.15223 0.0
O47 O 0.01181 0.73206 0.11506 0.0
O48 O 0.98466 0.72013 0.17006 0.0
C49 C 1.00162 0.71509 0.13587 0.0
C50 C 1.0018 0.77973 0.24533 0.0
C51 C 0.99939 0.69679 0.09085 0.0
C52 C 1.00853 0.65974 0.06231 0.0
C53 C 1.00924 0.67715 0.10484 0.0
C54 C 0.98779 0.68119 0.99063 0.0
C55 C 0.9978 0.6614 1.00443 0.0
C56 C 0.98861 0.69871 0.03339 0.0
C57 C 0.95123 0.79207 0.05866 0.0
C58 C 0.92864 0.81387 0.99216 0.0
C59 C 0.95693 0.83057 0.05387 0.0
C60 C 0.96195 0.81067 0.07925 0.0
C61 C 0.94093 0.83228 1.00748 0.0
C62 C 0.93391 0.79386 1.01718 0.0
C63 C 0.96034 0.77081 0.07166 0.0
O64 O 0.98531 0.76664 0.25044 0.0
O65 O 1.01099 0.77869 0.18976 0.0
O66 O 0.98116 0.76938 0.06153 0.0
O67 O 0.95422 0.7616 0.12376 0.0
H68 H 0.99589 0.82038 0.19485 0.0
H69 H 0.99641 0.85519 0.2516 0.0
H70 H 1.00638 0.82207 0.42523 0.0
H71 H 1.00523 0.78748 0.36881 0.0
H72 H 0.01686 0.64509 0.0745 0.0
H73 H 0.01784 0.67535 0.14858 0.0
H74 H 0.97921 0.68314 0.94701 0.0
H75 H 0.98095 0.71377 0.02146 0.0
H76 H 0.91586 0.81461 0.95786 0.0
H77 H 0.96702 0.84413 0.06674 0.0
H78 H 0.97541 0.8095 0.11095 0.0
H79 H 0.92537 0.77961 1.00103 0.0
C80 C 0.73019 0.99941 0.2962 0.0
C81 C 0.71573 0.0159 0.28034 0.0
C82 C 0.6891 1.00288 0.35519 0.0
C83 C 0.69551 0.01756 0.3092 0.0
C84 C 0.70318 0.98586 0.36932 0.0
C85 C 0.7235 0.98423 0.34051 0.0
U86 U 0.77863 0.98578 0.18333 0.0
O87 O 0.80326 1.00898 0.15485 0.0
O88 O 0.81296 0.97991 0.20427 0.0
C89 C 0.81931 0.99686 0.17305 0.0
C90 C 0.75294 1.00007 0.27351 0.0
C91 C 0.83651 0.99336 0.12581 0.0
C92 C 0.87437 0.99571 0.09725 0.0
C93 C 0.85801 0.99701 0.14247 0.0
C94 C 0.84803 0.9865 1.01787 0.0
C95 C 0.8696 0.99077 0.03405 0.0
C96 C 0.83166 0.98779 0.06326 0.0
C97 C 0.74117 0.95311 0.07541 0.0
C98 C 0.72051 0.93468 0.99479 0.0
C99 C 0.70291 0.95976 0.06667 0.0
C100 C 0.72237 0.96305 0.09797 0.0
C101 C 0.70211 0.94651 1.01251 0.0
C102 C 0.73996 0.93808 0.0259 0.0
C103 C 0.76233 0.9611 0.0946 0.0
O104 O 0.76468 0.98251 0.27805 0.0
O105 O 0.75673 1.01061 0.2217 0.0
O106 O 0.7647 0.98203 0.0898 0.0
O107 O 0.77043 0.95338 0.14643 0.0
H108 H 0.72031 0.02805 0.24706 0.0
H109 H 0.68502 0.03067 0.29621 0.0
H110 H 0.69891 0.97433 0.40472 0.0
H111 H 0.73427 0.9715 0.35473 0.0
H112 H 0.89078 0.99869 0.11186 0.0
H113 H 0.86214 1.0013 0.1904 0.0
H114 H 0.84366 0.98284 0.96976 0.0
H115 H 0.81516 0.98494 0.04921 0.0
H116 H 0.72026 0.92414 0.9538 0.0
H117 H 0.68907 0.9692 0.08134 0.0
H118 H 0.72308 0.9747 0.13634 0.0
H119 H 0.75437 0.93022 1.00817 0.0
C120 C 0.54581 0.74205 0.30338 0.0
C121 C 0.54747 0.72319 0.26646 0.0
C122 C 0.54365 0.70102 0.35986 0.0
C123 C 0.54657 0.70287 0.29446 0.0
C124 C 0.54203 0.72012 0.39618 0.0
C125 C 0.54323 0.74029 0.36833 0.0
U126 U 0.55536 0.78799 0.18058 0.0
O127 O 0.53185 0.81376 0.16427 0.0
O128 O 0.56369 0.82186 0.20174 0.0
C129 C 0.54543 0.82916 0.17941 0.0
C130 C 0.54522 0.76384 0.2765 0.0
C131 C 0.54682 0.84678 0.13407 0.0
C132 C 0.53291 0.88085 0.09703 0.0
C133 C 0.53316 0.86459 0.14152 0.0
C134 C 0.56046 0.86198 0.03729 0.0
C135 C 0.54637 0.87966 0.04397 0.0
C136 C 0.56059 0.8456 0.08182 0.0
C137 C 0.58102 0.75059 0.0544 0.0
C138 C 0.5893 0.72931 0.96117 0.0
C139 C 0.58178 0.71162 0.05922 0.0
C140 C 0.57929 0.73171 0.08905 0.0
C141 C 0.58595 0.71026 0.9944 0.0
C142 C 0.5868 0.74932 0.991 0.0
C143 C 0.57417 0.77145 0.08052 0.0
O144 O 0.56352 0.77434 0.27243 0.0
O145 O 0.53243 0.76683 0.22844 0.0
O146 O 0.55325 0.77381 0.08604 0.0
O147 O 0.58493 0.77905 0.12907 0.0
H148 H 0.54916 0.72413 0.21612 0.0
H149 H 0.54814 0.68864 0.26474 0.0
H150 H 0.53925 0.71962 0.44622 0.0
H151 H 0.54161 0.75464 0.39766 0.0
H152 H 0.52205 0.89434 0.10401 0.0
H153 H 0.52237 0.86576 0.18138 0.0
H154 H 0.57086 0.86047 0.99668 0.0
H155 H 0.57113 0.83184 0.07487 0.0
H156 H 0.59267 0.7287 0.91133 0.0
H157 H 0.57892 0.69721 0.08587 0.0
H158 H 0.5749 0.73251 0.13812 0.0
H159 H 0.58822 0.7638 0.96367 0.0
C160 C 0.24368 0.49197 0.92067 0.0
C161 C 0.22589 0.48263 0.95036 0.0
C162 C 0.20245 0.49283 0.86334 0.0
C163 C 0.20547 0.48304 0.92196 0.0
C164 C 0.22046 0.50215 0.83424 0.0
C165 C 0.24075 0.50168 0.8625 0.0
U166 U 0.28489 0.48349 0.0554 0.0
O167 O 0.3188 0.47295 0.05144 0.0
O168 O 0.31085 0.50599 0.0813 0.0
C169 C 0.32605 0.4915 0.07332 0.0
C170 C 0.26536 0.49249 0.94935 0.0
C171 C 0.34276 0.49104 0.12264 0.0
C172 C 0.37645 0.50559 0.16281 0.0
C173 C 0.36045 0.50482 0.1169 0.0
C174 C 0.35758 0.47841 0.22136 0.0
C175 C 0.3752 0.49256 0.216 0.0
C176 C 0.34141 0.47774 0.17519 0.0
C177 C 0.24935 0.45952 0.19865 0.0
C178 C 0.22989 0.4662 0.29567 0.0
C179 C 0.22318 0.43355 0.23501 0.0
C180 C 0.23887 0.43961 0.19178 0.0
C181 C 0.21789 0.44726 0.28587 0.0
C182 C 0.24542 0.47232 0.25224 0.0
C183 C 0.26218 0.46813 0.14681 0.0
O184 O 0.26812 0.50656 0.99528 0.0
O185 O 0.27464 0.47387 0.95992 0.0
O186 O 0.27161 0.45553 0.1048 0.0
O187 O 0.26504 0.48893 0.13982 0.0
H188 H 0.22776 0.47509 0.99544 0.0
H189 H 0.19211 0.47552 0.94569 0.0
H190 H 0.21885 0.51022 0.78994 0.0
H191 H 0.25421 0.50915 0.83898 0.0
H192 H 0.38991 0.51638 0.15639 0.0
H193 H 0.36187 0.51518 0.07673 0.0
H194 H 0.35605 0.46824 0.26183 0.0
H195 H 0.32782 0.46702 0.18076 0.0
H196 H 0.22607 0.47724 0.33398 0.0
H197 H 0.21425 0.41881 0.22654 0.0
H198 H 0.24171 0.42943 0.15084 0.0
H199 H 0.25346 0.48768 0.25878 0.0
C200 C 0.03043 0.23368 0.9388 0.0
C201 C 0.0363 0.21463 0.96908 0.0
C202 C 0.02823 0.19321 0.87443 0.0
C203 C 0.03543 0.19461 0.93702 0.0
C204 C 0.02268 0.2124 0.8443 0.0
C205 C 0.02385 0.23232 0.87597 0.0
U206 U 0.04395 0.2796 0.06431 0.0
O207 O 0.01988 0.3024 0.10176 0.0
O208 O 0.04709 0.31453 0.04742 0.0
C209 C 0.03055 0.31945 0.08353 0.0
C210 C 0.02945 0.25506 0.97126 0.0
C211 C 0.03358 0.33711 0.13106 0.0
C212 C 0.04393 0.37426 0.15536 0.0
C213 C 0.04277 0.35673 0.11311 0.0
C214 C 0.02701 0.35293 0.2352 0.0
C215 C 0.0357 0.3728 0.21679 0.0
C216 C 0.02598 0.33534 0.19302 0.0
C217 C 0.08144 0.24376 0.16199 0.0
C218 C 0.10181 0.22442 0.23973 0.0
C219 C 0.07789 0.20504 0.16914 0.0
C220 C 0.0729 0.22426 0.13953 0.0
C221 C 0.09141 0.20516 0.22197 0.0
C222 C 0.09677 0.24363 0.21 0.0
C223 C 0.07143 0.26425 0.14546 0.0
O224 O 0.02044 0.2561 0.02705 0.0
O225 O 0.04619 0.26785 0.96607 0.0
O226 O 0.07748 0.27307 0.09273 0.0
O227 O 0.05054 0.26496 0.15465 0.0
H228 H 0.04106 0.21512 1.01768 0.0
H229 H 0.03965 0.18015 0.96187 0.0
H230 H 0.01727 0.21202 0.79606 0.0
H231 H 0.01913 0.24673 0.85155 0.0
H232 H 0.05115 0.38906 0.13947 0.0
H233 H 0.04872 0.35866 0.06578 0.0
H234 H 0.02027 0.3511 0.28162 0.0
H235 H 0.01871 0.32053 0.20869 0.0
H236 H 0.11248 0.22493 0.2798 0.0
H237 H 0.06946 0.19055 0.15456 0.0
H238 H 0.06093 0.2242 0.10294 0.0
H239 H 0.10351 0.2586 0.22791 0.0
C240 C 0.29775 0.04022 0.92538 0.0
C241 C 0.31656 0.04416 0.96028 0.0
C242 C 0.33877 0.03737 0.86705 0.0
C243 C 0.3369 0.04297 0.93118 0.0
C244 C 0.31984 0.0339 0.83239 0.0
C245 C 0.29963 0.0354 0.86114 0.0
U246 U 0.25155 0.05403 0.04652 0.0
O247 O 0.22802 0.03041 0.07949 0.0
O248 O 0.21686 0.05851 0.02791 0.0
C249 C 0.21139 0.04163 0.06073 0.0
C250 C 0.27602 0.03932 0.95416 0.0
C251 C 0.19409 0.04477 0.10777 0.0
C252 C 0.15638 0.04084 0.1361 0.0
C253 C 0.1728 0.04003 0.0911 0.0
C254 C 0.18219 0.05179 0.21521 0.0
C255 C 0.16087 0.04635 0.19906 0.0
C256 C 0.19864 0.05098 0.17002 0.0
C257 C 0.28946 0.0886 0.14643 0.0
C258 C 0.3147 0.09681 0.22962 0.0
C259 C 0.32776 0.0882 0.125 0.0
C260 C 0.30656 0.08631 0.10391 0.0
C261 C 0.33202 0.09222 0.18895 0.0
C262 C 0.29358 0.09496 0.20844 0.0
C263 C 0.26809 0.08027 0.13109 0.0
O264 O 0.27423 0.02982 1.00851 0.0
O265 O 0.26374 0.05648 0.94956 0.0
O266 O 0.25915 0.08706 0.07922 0.0
O267 O 0.26627 0.05941 0.13852 0.0
H268 H 0.31559 0.04759 1.01011 0.0
H269 H 0.35118 0.04558 0.9593 0.0
H270 H 0.32066 0.02977 0.7829 0.0
H271 H 0.2854 0.0322 0.83326 0.0
H272 H 0.14014 0.03695 0.12157 0.0
H273 H 0.16892 0.03524 0.04337 0.0
H274 H 0.1863 0.05597 0.26319 0.0
H275 H 0.21499 0.05468 0.18401 0.0
H276 H 0.31728 0.09974 0.27921 0.0
H277 H 0.34076 0.08493 0.09231 0.0
H278 H 0.30355 0.08155 0.05567 0.0
H279 H 0.28051 0.0967 0.24185 0.0
C280 C 0.48052 0.28798 0.91252 0.0
C281 C 0.46711 0.30466 0.93482 0.0
C282 C 0.4836 0.32991 0.86172 0.0
C283 C 0.46872 0.32546 0.90994 0.0
C284 C 0.49661 0.31287 0.83904 0.0
C285 C 0.49516 0.29231 0.86438 0.0
U286 U 0.46789 0.24273 0.03374 0.0
O287 O 0.49016 0.21628 0.05339 0.0
O288 O 0.45802 0.20893 1.01683 0.0
C289 C 0.47582 0.20127 0.04121 0.0
C290 C 0.47988 0.26584 0.93728 0.0
C291 C 0.47333 0.18514 0.09075 0.0
C292 C 0.4756 0.14786 0.12309 0.0
C293 C 0.47572 0.16322 0.07581 0.0
C294 C 0.47009 0.17613 0.20108 0.0
C295 C 0.47317 0.15412 0.18652 0.0
C296 C 0.47017 0.19149 0.15365 0.0
C297 C 0.44475 0.28407 0.14951 0.0
C298 C 0.43213 0.30872 0.23096 0.0
C299 C 0.45467 0.32167 0.14669 0.0
C300 C 0.45505 0.30112 0.11963 0.0
C301 C 0.44407 0.32534 0.20405 0.0
C302 C 0.43253 0.28808 0.20376 0.0
C303 C 0.44955 0.26188 0.13037 0.0
O304 O 0.4924 0.26195 0.98531 0.0
O305 O 0.46103 0.25633 0.94101 0.0
O306 O 0.43857 0.25406 0.08259 0.0
O307 O 0.4702 0.25748 0.1273 0.0
H308 H 0.45543 0.30164 0.97128 0.0
H309 H 0.45849 0.33807 0.9291 0.0
H310 H 0.50784 0.31527 0.80098 0.0
H311 H 0.50552 0.27964 0.84592 0.0
H312 H 0.47761 0.13105 0.10992 0.0
H313 H 0.47817 0.15799 0.0276 0.0
H314 H 0.46836 0.18161 0.24929 0.0
H315 H 0.46837 0.20838 0.16625 0.0
H316 H 0.42407 0.31123 0.27557 0.0
H317 H 0.46405 0.33432 0.12546 0.0
H318 H 0.4648 0.29818 0.07827 0.0
H319 H 0.42459 0.27499 0.22744 0.0
Gd320 Gd 0.99288 0.02019 0.55962 0.0
Gd321 Gd 0.03756 0.0125 0.66976 0.0
C322 C 0.06531 0.06706 0.79148 0.0
C323 C 0.10142 0.07049 0.74916 0.0
C324 C 0.07682 0.04374 0.70561 0.0
C325 C 0.06103 0.05042 0.74731 0.0
C326 C 0.0974 0.05328 0.70725 0.0
C327 C 0.08538 0.07741 0.7911 0.0
C328 C 0.0495 0.07243 0.83578 0.0
C329 C 0.03029 0.06087 0.83655 0.0
N330 N 0.04183 0.04 0.74663 0.0
C331 C 0.02684 0.04443 0.7921 0.0
H332 H 0.01182 0.03589 0.79358 0.0
C333 C 0.0885 0.01783 0.63045 0.0
N334 N 0.07246 0.02705 0.66591 0.0
C335 C 0.10917 0.02669 0.63051 0.0
C336 C 0.11355 0.04474 0.66829 0.0
H337 H 0.0851 1.00395 0.6008 0.0
H338 H 0.08885 0.09037 0.82419 0.0
H339 H 0.01926 0.99669 0.43538 0.0
H340 H 0.05213 0.08515 0.87032 0.0
H341 H 0.01807 0.06466 0.87123 0.0
H342 H 0.11705 0.07819 0.75064 0.0
H343 H 0.94507 0.02899 0.62585 0.0
H344 H 0.97772 0.95071 0.34883 0.0
H345 H 0.01269 0.96947 0.35425 0.0
H346 H 0.91187 0.95856 0.46348 0.0
H347 H 0.12165 0.01965 0.60124 0.0
H348 H 0.12958 0.05157 0.66833 0.0
H349 H 0.94032 0.94643 0.39071 0.0
H350 H 0.90811 0.01451 0.62115 0.0
N351 N 0.98833 0.99394 0.4784 0.0
C352 C 0.98044 0.96287 0.385 0.0
C353 C 1.00015 0.97347 0.38778 0.0
C354 C 0.96435 0.96839 0.42816 0.0
C355 C 0.96877 0.9843 0.47451 0.0
C356 C 1.00375 0.98917 0.43434 0.0
N357 N 0.95744 1.00682 0.55762 0.0
C358 C 0.95284 0.99092 0.51558 0.0
C359 C 0.92055 1.00763 0.59142 0.0
C360 C 0.91583 0.99047 0.55062 0.0
C361 C 0.94149 0.0158 0.59386 0.0
C362 C 0.93197 0.9821 0.51138 0.0
H363 H 0.8996 0.98417 0.54871 0.0
O364 O 0.97083 0.04574 0.5353 0.0
O365 O 0.01522 0.03603 0.62796 0.0
O366 O 1.00509 1.00855 0.71835 0.0
O367 O 0.97972 1.00101 0.64055 0.0
O368 O 0.98339 0.04502 0.63375 0.0
O369 O 0.99936 0.04024 0.47919 0.0
O370 O 0.0604 0.9877 0.69355 0.0
O371 O 0.01479 0.99652 0.60298 0.0
O372 O 0.02567 0.02247 0.51186 0.0
O373 O 0.04999 0.03252 0.58976 0.0
O374 O 0.04621 0.98605 0.59949 0.0
O375 O 0.03478 0.99629 0.75876 0.0
C376 C 1.00232 0.04873 0.6556 0.0
C377 C 0.92773 0.96569 0.46702 0.0
C378 C 0.94391 0.95881 0.42554 0.0
C379 C 0.98397 0.05369 0.49427 0.0
C380 C 0.99031 0.07641 0.50478 0.0
C381 C 0.98008 0.08921 0.5512 0.0
C382 C 1.00786 0.08494 0.47204 0.0
C383 C 0.01554 0.10569 0.48654 0.0
C384 C 0.98774 0.10979 0.56591 0.0
C385 C 1.00545 0.11798 0.5341 0.0
C386 C 0.98577 1.00182 0.70013 0.0
C387 C 0.02727 0.98305 0.5768 0.0
C388 C 0.05061 0.9831 0.74555 0.0
C389 C 0.04736 0.96002 0.75621 0.0
C390 C 0.06541 0.94645 0.7554 0.0
C391 C 0.02683 0.95132 0.76695 0.0
C392 C 0.02442 0.92917 0.77777 0.0
C393 C 0.0631 0.92447 0.76531 0.0
C394 C 0.04281 0.91587 0.77675 0.0
C395 C 0.04442 0.03065 0.53003 0.0
H396 H 0.96646 0.0832 0.5773 0.0
H397 H 0.01589 0.07527 0.43619 0.0
H398 H 0.97995 0.11938 0.60225 0.0
H399 H 1.01096 0.13411 0.54568 0.0
H400 H 0.08134 0.95289 0.74717 0.0
H401 H 0.01281 0.96171 0.76694 0.0
H402 H 0.07712 0.91412 0.76496 0.0
H403 H 0.04165 0.89885 0.78643 0.0
Gd404 Gd 0.51007 0.99484 0.5603 0.0
Gd405 Gd 0.51838 0.04108 0.66975 0.0
C406 C 0.46673 0.06392 0.81024 0.0
C407 C 0.46019 0.10054 0.77699 0.0
C408 C 0.4866 0.07806 0.72248 0.0
C409 C 0.48222 0.06129 0.76211 0.0
C410 C 0.47604 0.09807 0.73047 0.0
C411 C 0.4555 0.08346 0.81667 0.0
C412 C 0.46311 0.04695 0.85097 0.0
C413 C 0.47515 0.02814 0.84425 0.0
N414 N 0.49335 0.04257 0.75441 0.0
C415 C 0.49038 0.02628 0.79619 0.0
H416 H 0.49893 1.01129 0.79244 0.0
C417 C 0.50868 0.09216 0.64297 0.0
N418 N 0.50187 0.07517 0.67782 0.0
C419 C 0.49878 0.11231 0.64928 0.0
C420 C 0.48214 0.1152 0.69259 0.0
H421 H 0.52144 0.08995 0.60892 0.0
H422 H 0.44343 0.08566 0.85295 0.0
H423 H 0.5285 0.022 0.43341 0.0
H424 H 0.45125 0.04828 0.88814 0.0
H425 H 0.4726 0.01493 0.87585 0.0
H426 H 0.45177 0.1157 0.78341 0.0
H427 H 0.50489 0.94485 0.61437 0.0
H428 H 0.58207 0.98795 0.35614 0.0
H429 H 0.55711 0.01894 0.35544 0.0
H430 H 0.58396 0.923 0.47334 0.0
H431 H 0.50392 0.12555 0.62054 0.0
H432 H 0.47447 0.13082 0.69743 0.0
H433 H 0.59238 0.95246 0.40169 0.0
H434 H 0.52517 0.91059 0.61414 0.0
N435 N 0.53671 0.99301 0.4804 0.0
C436 C 0.56931 0.98909 0.39069 0.0
C437 C 0.55523 1.00655 0.39007 0.0
C438 C 0.56631 0.97295 0.43467 0.0
C439 C 0.54949 0.97527 0.47889 0.0
C440 C 0.53885 1.00817 0.43493 0.0
N441 N 0.52755 0.96101 0.5572 0.0
C442 C 0.54488 0.95881 0.51913 0.0
C443 C 0.53108 0.9241 0.58778 0.0
C444 C 0.55 0.92219 0.55278 0.0
C445 C 0.51971 0.94353 0.5881 0.0
C446 C 0.55679 0.93945 0.51641 0.0
H447 H 0.5587 0.90705 0.55203 0.0
O448 O 0.48512 0.97134 0.54105 0.0
O449 O 0.49502 0.01821 0.62759 0.0
O450 O 0.52531 1.00953 0.71882 0.0
O451 O 0.52687 0.98143 0.64425 0.0
O452 O 0.48478 0.98671 0.63261 0.0
O453 O 0.49157 0.99635 0.47436 0.0
O454 O 0.54306 0.06524 0.68451 0.0
O455 O 0.53364 0.01778 0.60213 0.0
O456 O 0.50355 0.02682 0.51314 0.0
O457 O 0.49793 0.05344 0.59017 0.0
O458 O 0.54145 0.04989 0.59238 0.0
O459 O 0.53986 0.03913 0.74962 0.0
C460 C 0.48195 1.00594 0.65477 0.0
C461 C 0.57442 0.93761 0.47544 0.0
C462 C 0.57918 0.95435 0.43458 0.0
C463 C 0.47824 0.98142 0.4921 0.0
C464 C 0.45512 0.98689 0.49186 0.0
C465 C 0.44048 0.97543 0.52893 0.0
C466 C 0.4476 1.00409 0.45607 0.0
C467 C 0.42577 1.00989 0.45708 0.0
C468 C 0.41881 0.98123 0.53061 0.0
C469 C 0.41144 0.99833 0.49492 0.0
C470 C 0.52892 0.98919 0.70198 0.0
C471 C 0.54556 0.0306 0.57265 0.0
C472 C 0.55217 0.05452 0.72904 0.0
C473 C 0.57509 0.04909 0.71926 0.0
C474 C 0.58702 0.05843 0.67055 0.0
C475 C 0.58465 0.033 0.75508 0.0
C476 C 0.60538 0.02544 0.74075 0.0
C477 C 0.60776 0.05113 0.6566 0.0
C478 C 0.61685 0.03457 0.69105 0.0
C479 C 0.49708 0.04635 0.5312 0.0
H480 H 0.44578 0.96207 0.55703 0.0
H481 H 0.45879 0.01315 0.42785 0.0
H482 H 0.40766 0.97236 0.55936 0.0
H483 H 0.39444 1.00217 0.49594 0.0
H484 H 0.58019 0.07097 0.64212 0.0
H485 H 0.5757 0.02585 0.79301 0.0
H486 H 0.6167 0.05818 0.61853 0.0
H487 H 0.63296 0.02913 0.67952 0.0
Gd488 Gd 0.4877 0.52842 0.65647 0.0
Gd489 Gd 0.53689 0.5065 0.58195 0.0
C490 C 0.59536 0.50073 0.71321 0.0
C491 C 0.61908 0.52853 0.67476 0.0
C492 C 0.58438 0.52202 0.62489 0.0
C493 C 0.57996 0.50604 0.66715 0.0
C494 C 0.60427 0.53307 0.62728 0.0
C495 C 0.61466 0.51234 0.71755 0.0
C496 C 0.59106 0.48377 0.75332 0.0
C497 C 0.57207 0.47222 0.74623 0.0
N498 N 0.56093 0.49534 0.66249 0.0
C499 C 0.5573 0.47804 0.70025 0.0
H500 H 0.54325 0.46822 0.69623 0.0
C501 C 0.57561 0.53871 0.52999 0.0
N502 N 0.56988 0.52589 0.57909 0.0
C503 C 0.59488 0.55023 0.53082 0.0
C504 C 0.6091 0.54775 0.58045 0.0
H505 H 0.56539 0.53998 0.48932 0.0
H506 H 0.62643 0.50869 0.75323 0.0
H507 H 0.48222 0.5672 0.54385 0.0
H508 H 0.60244 0.47923 0.78916 0.0
H509 H 0.56875 0.45873 0.7762 0.0
H510 H 0.63428 0.53702 0.67768 0.0
H511 H 0.45772 0.49601 0.74762 0.0
H512 H 0.42454 0.55577 0.44326 0.0
H513 H 0.45784 0.57659 0.4606 0.0
H514 H 0.39144 0.49788 0.55139 0.0
H515 H 0.59889 0.56074 0.49257 0.0
H516 H 0.62417 0.55651 0.58068 0.0
H517 H 0.40021 0.52615 0.47641 0.0
H518 H 0.42427 0.47509 0.74155 0.0
N519 N 0.46452 0.53964 0.57395 0.0
C520 C 0.43549 0.55123 0.4802 0.0
C521 C 0.45428 0.56294 0.48972 0.0
C522 C 0.43077 0.53416 0.51957 0.0
C523 C 0.44561 0.52886 0.56714 0.0
C524 C 0.46846 0.55714 0.53729 0.0
N525 N 0.45459 0.50923 0.65648 0.0
C526 C 0.44069 0.51292 0.60901 0.0
C527 C 0.42885 0.48531 0.70317 0.0
C528 C 0.41534 0.48746 0.6517 0.0
C529 C 0.4481 0.49685 0.70567 0.0
C530 C 0.42082 0.50192 0.60483 0.0
H531 H 0.40026 0.47874 0.65017 0.0
O532 O 0.46842 0.53637 0.73837 0.0
O533 O 0.52353 0.52548 0.66269 0.0
O534 O 0.51838 0.47912 0.62599 0.0
O535 O 0.4901 0.49357 0.6853 0.0
O536 O 0.506 0.52024 0.74402 0.0
O537 O 0.48388 0.56177 0.68707 0.0
O538 O 0.55664 0.49803 0.50136 0.0
O539 O 0.50099 0.50933 0.57565 0.0
O540 O 0.50698 0.55603 0.61546 0.0
O541 O 0.53369 0.54087 0.55176 0.0
O542 O 0.51861 0.51545 0.49509 0.0
O543 O 0.53839 0.47341 0.54756 0.0
C544 C 0.52506 0.52156 0.72048 0.0
C545 C 0.40661 0.50636 0.55573 0.0
C546 C 0.41155 0.52251 0.51326 0.0
C547 C 0.47339 0.55664 0.73758 0.0
C548 C 0.4808 0.56587 0.79765 0.0
C549 C 0.46711 0.5649 0.84978 0.0
C550 C 0.50128 0.57526 0.8041 0.0
C551 C 0.50777 0.58433 0.86198 0.0
C552 C 0.47361 0.57335 0.90756 0.0
C553 C 0.49368 0.58316 0.91365 0.0
C554 C 0.50222 0.47723 0.66613 0.0
C555 C 0.49951 0.51347 0.51792 0.0
C556 C 0.54868 0.47875 0.49688 0.0
C557 C 0.53835 0.47321 0.43648 0.0
C558 C 0.54482 0.48345 0.3813 0.0
C559 C 0.52082 0.45898 0.43431 0.0
C560 C 0.50991 0.45482 0.37787 0.0
C561 C 0.53374 0.47977 0.32537 0.0
C562 C 0.51639 0.46555 0.32348 0.0
C563 C 0.5224 0.55744 0.57276 0.0
H564 H 0.45134 0.55759 0.84573 0.0
H565 H 0.51204 0.57564 0.76413 0.0
H566 H 0.4629 0.57267 0.94752 0.0
H567 H 0.49777 0.59044 0.95853 0.0
H568 H 0.55822 0.49459 0.38159 0.0
H569 H 0.51557 0.45113 0.47664 0.0
H570 H 0.53876 0.48779 0.28316 0.0
H571 H 0.50859 0.46237 0.27894 0.0
Gd572 Gd 1.00463 0.49374 0.64715 0.0
Gd573 Gd 0.02556 0.54169 0.56969 0.0
C574 C 0.03175 0.60541 0.68095 0.0
C575 C 1.00642 0.62836 0.62718 0.0
C576 C 0.01162 0.59112 0.59257 0.0
C577 C 0.02656 0.58815 0.63953 0.0
C578 C 1.00176 0.61143 0.58498 0.0
C579 C 0.0214 0.62536 0.67503 0.0
C580 C 0.04733 0.60222 0.72688 0.0
C581 C 0.05769 0.58241 0.72996 0.0
N582 N 0.03623 0.56859 0.64428 0.0
C583 C 0.05211 0.56582 0.68799 0.0
H584 H 0.06042 0.55083 0.69302 0.0
C585 C 0.99516 0.57778 0.50019 0.0
N586 N 1.00746 0.57451 0.55241 0.0
C587 C 0.98499 0.59753 0.49081 0.0
C588 C 0.98803 0.61435 0.53399 0.0
H589 H 0.99285 0.56485 0.46616 0.0
H590 H 0.02513 0.63868 0.70661 0.0
H591 H 0.97589 0.47301 0.52228 0.0
H592 H 0.05164 0.615 0.75973 0.0
H593 H 0.06993 0.5798 0.76504 0.0
H594 H 0.99887 0.64398 0.62238 0.0
H595 H 0.02613 0.47749 0.78225 0.0
H596 H 0.99988 0.41033 0.4797 0.0
H597 H 0.97513 0.44036 0.45775 0.0
H598 H 0.04754 0.39612 0.64915 0.0
H599 H 0.97487 0.59976 0.45022 0.0
H600 H 0.9802 0.62969 0.52655 0.0
H601 H 0.02762 0.39436 0.54979 0.0
H602 H 0.04693 0.44663 0.82157 0.0
N603 N 1.00171 0.46279 0.58078 0.0
C604 C 1.00041 0.42483 0.50866 0.0
C605 C 0.98639 0.44171 0.49625 0.0
C606 C 0.01422 0.42646 0.56009 0.0
C607 C 0.01423 0.44571 0.5965 0.0
C608 C 0.987 0.46046 0.53346 0.0
N609 N 0.02307 0.46433 0.68991 0.0
C610 C 0.0254 0.44661 0.65254 0.0
C611 C 0.0412 0.4465 0.77369 0.0
C612 C 0.04542 0.42889 0.734 0.0
C613 C 0.02946 0.46394 0.75126 0.0
C614 C 0.03691 0.42847 0.67331 0.0
H615 H 0.05434 0.41528 0.75165 0.0
O616 O 0.98569 0.47261 0.70576 0.0
O617 O 1.00838 0.52936 0.65287 0.0
O618 O 0.05319 0.52498 0.6191 0.0
O619 O 0.04006 0.49488 0.67121 0.0
O620 O 0.01358 0.51278 0.73473 0.0
O621 O 0.97278 0.50324 0.67871 0.0
O622 O 0.03333 0.55482 0.47933 0.0
O623 O 0.02293 0.50571 0.56468 0.0
O624 O 0.98097 0.50524 0.57382 0.0
O625 O 0.98891 0.54164 0.56465 0.0
O626 O 0.01622 0.52222 0.48345 0.0
O627 O 0.05898 0.54595 0.5423 0.0
C628 C 0.01278 0.53165 0.71042 0.0
C629 C 0.03847 0.41006 0.63446 0.0
C630 C 0.02712 0.40905 0.57793 0.0
C631 C 0.97075 0.48691 0.71542 0.0
C632 C 0.96472 0.49166 0.78118 0.0
C633 C 0.96778 0.47621 0.8276 0.0
C634 C 0.95505 0.51144 0.79745 0.0
C635 C 0.94725 0.51548 0.85849 0.0
C636 C 0.96095 0.48037 0.8889 0.0
C637 C 0.9505 0.49967 0.9042 0.0
C638 C 0.05577 0.50816 0.65584 0.0
C639 C 0.01855 0.50342 0.50708 0.0
C640 C 0.05379 0.55106 0.48514 0.0
C641 C 0.06337 0.53833 0.43321 0.0
C642 C 0.05691 0.54234 0.37138 0.0
C643 C 0.07757 0.52122 0.44464 0.0
C644 C 0.08487 0.50802 0.39497 0.0
C645 C 0.06402 0.52912 0.32205 0.0
C646 C 0.07782 0.51196 0.33369 0.0
C647 C 0.97565 0.52505 0.55748 0.0
H648 H 0.97524 0.46084 0.81647 0.0
H649 H 0.95326 0.52354 0.76196 0.0
H650 H 0.96321 0.46832 0.92435 0.0
H651 H 0.94434 0.50173 0.95137 0.0
H652 H 0.04602 0.55547 0.36138 0.0
H653 H 0.08283 0.51796 0.49194 0.0
H654 H 0.05886 0.53224 0.27463 0.0
H655 H 0.08354 0.50217 0.29455 0.0
H656 H 0.15344 0.07441 0.29852 0.0
H657 H 0.12905 0.01625 0.2106 0.0
H658 H 0.12489 0.07283 0.37714 0.0
H659 H 0.10088 0.01443 0.28921 0.0
H660 H 0.0411 0.02489 0.40249 0.0
H661 H 0.06852 0.03022 0.32338 0.0
H662 H 0.11195 0.0545 0.46579 0.0
H663 H 0.08385 0.05043 0.54439 0.0
C664 C 0.14208 0.06121 0.29612 0.0
C665 C 0.14351 0.04557 0.24769 0.0
C666 C 0.12568 0.06027 0.34137 0.0
C667 C 0.11032 0.04358 0.33967 0.0
C668 C 0.11196 0.02786 0.2915 0.0
C669 C 0.12823 0.02887 0.24623 0.0
C670 C 0.05645 0.03135 0.41727 0.0
C671 C 0.0605 0.03621 0.4808 0.0
C672 C 0.07233 0.03432 0.37163 0.0
C673 C 0.09282 0.04223 0.38798 0.0
C674 C 0.09648 0.04823 0.45104 0.0
C675 C 0.08045 0.0455 0.4966 0.0
H676 H 0.50086 0.11994 0.19309 0.0
H677 H 0.44943 0.15155 0.29545 0.0
H678 H 0.50424 0.09374 0.27564 0.0
H679 H 0.45272 0.12511 0.37835 0.0
H680 H 0.48211 0.08806 0.54408 0.0
H681 H 0.47563 0.11383 0.4616 0.0
H682 H 0.48698 0.0638 0.32217 0.0
H683 H 0.49466 0.03846 0.40445 0.0
C684 C 0.49001 0.12113 0.23278 0.0
C685 C 0.47477 0.13785 0.23717 0.0
C686 C 0.49194 0.10603 0.28032 0.0
C687 C 0.47866 0.10712 0.33379 0.0
C688 C 0.46339 0.12385 0.33831 0.0
C689 C 0.46149 0.13903 0.29067 0.0
C690 C 0.4836 0.08262 0.49599 0.0
C691 C 0.48994 0.06135 0.48144 0.0
C692 C 0.47949 0.09735 0.4484 0.0
C693 C 0.48121 0.09109 0.38485 0.0
C694 C 0.48618 0.06945 0.37042 0.0
C695 C 0.49049 0.05483 0.41793 0.0
H696 H 0.39547 0.45998 0.2801 0.0
H697 H 0.39341 0.52916 0.26448 0.0
H698 H 0.42555 0.46335 0.35396 0.0
H699 H 0.423 0.53255 0.33805 0.0
H700 H 0.49066 0.53265 0.40893 0.0
H701 H 0.46087 0.52582 0.33742 0.0
H702 H 0.43747 0.47588 0.45836 0.0
H703 H 0.46796 0.48253 0.52946 0.0
C704 C 0.40123 0.4759 0.29296 0.0
C705 C 0.39222 0.49428 0.26542 0.0
C706 C 0.41849 0.47784 0.33532 0.0
C707 C 0.42705 0.49822 0.35121 0.0
C708 C 0.41734 0.51656 0.32564 0.0
C709 C 0.40027 0.51462 0.28341 0.0
C710 C 0.4791 0.52026 0.4203 0.0
C711 C 0.48101 0.50884 0.47611 0.0
C712 C 0.46195 0.51637 0.37945 0.0
C713 C 0.44632 0.5007 0.39279 0.0
C714 C 0.44905 0.48819 0.44675 0.0
C715 C 0.46632 0.49218 0.48792 0.0
H716 H 0.04092 0.37462 0.34573 0.0
H717 H 0.0292 0.4152 0.1869 0.0
H718 H 0.03795 0.40601 0.4158 0.0
H719 H 0.02754 0.44652 0.25621 0.0
H720 H 0.99839 0.49341 0.39882 0.0
H721 H 1.00385 0.46228 0.32969 0.0
H722 H 0.05408 0.43947 0.45171 0.0
H723 H 0.04795 0.47063 0.52213 0.0
C724 C 0.03782 0.39019 0.32551 0.0
C725 C 0.03525 0.39216 0.26018 0.0
C726 C 0.0364 0.4083 0.36582 0.0
C727 C 0.03238 0.42893 0.34202 0.0
C728 C 0.0303 0.43093 0.27668 0.0
C729 C 0.0316 0.41288 0.23655 0.0
C730 C 1.01056 0.48169 0.41088 0.0
C731 C 0.02229 0.48409 0.46666 0.0
C732 C 0.01387 0.4639 0.37093 0.0
C733 C 0.02942 0.44817 0.38478 0.0
C734 C 0.04171 0.45099 0.43988 0.0
C735 C 0.03822 0.4688 0.48031 0.0
H736 H 0.87504 0.9632 0.93234 0.0
H737 H 0.90353 0.0187 0.02423 0.0
H738 H 0.9034 0.96363 0.85307 0.0
H739 H 0.93163 0.01931 0.94508 0.0
H740 H 0.99019 1.00579 0.82784 0.0
H741 H 0.96281 1.00151 0.9079 0.0
H742 H 0.91696 0.98238 0.76558 0.0
H743 H 0.94483 0.98541 0.68591 0.0
C744 C 0.88726 0.97558 0.93553 0.0
C745 C 0.88698 0.99082 0.98522 0.0
C746 C 0.90357 0.97585 0.8899 0.0
C747 C 0.92003 0.99142 0.89248 0.0
C748 C 0.91962 1.00671 0.94202 0.0
C749 C 0.9034 1.00639 0.98763 0.0
C750 C 0.97433 1.00057 0.81336 0.0
C751 C 0.96961 0.99676 0.74964 0.0
C752 C 0.95849 0.99826 0.85952 0.0
C753 C 0.93738 0.9921 0.84351 0.0
C754 C 0.93295 0.98722 0.7801 0.0
C755 C 0.9489 0.98932 0.73398 0.0
H756 H 0.57923 0.8998 0.98103 0.0
H757 H 0.50998 0.8972 0.9951 0.0
H758 H 0.57613 0.92688 0.89906 0.0
H759 H 0.50694 0.92429 0.91453 0.0
H760 H 0.50843 0.95149 0.7192 0.0
H761 H 0.51401 0.92525 0.80075 0.0
H762 H 0.56322 0.96576 0.88307 0.0
H763 H 0.55782 0.99197 0.79931 0.0
C764 C 0.56338 0.905 0.96669 0.0
C765 C 0.54485 0.89634 0.99469 0.0
C766 C 0.56162 0.92064 0.92021 0.0
C767 C 0.54129 0.92769 0.90016 0.0
C768 C 0.52283 0.91908 0.92845 0.0
C769 C 0.52459 0.90367 0.97509 0.0
C770 C 0.52086 0.95453 0.75353 0.0
C771 C 0.53309 0.97348 0.75186 0.0
C772 C 0.52379 0.93968 0.80107 0.0
C773 C 0.53904 0.94339 0.84853 0.0
C774 C 0.55146 0.96235 0.84686 0.0
C775 C 0.54832 0.97739 0.79925 0.0
H776 H 0.63191 0.50375 0.9712 0.0
H777 H 0.63178 0.57277 0.95038 0.0
H778 H 0.60195 0.50057 0.89883 0.0
H779 H 0.60126 0.56967 0.87819 0.0
H780 H 0.55727 0.55155 0.70727 0.0
H781 H 0.58838 0.55733 0.77646 0.0
H782 H 0.56456 0.50782 0.89837 0.0
H783 H 0.53419 0.50178 0.8284 0.0
C784 C 0.62536 0.51831 0.95148 0.0
C785 C 0.63408 0.53854 0.96748 0.0
C786 C 0.60808 0.5165 0.90995 0.0
C787 C 0.59879 0.53489 0.88336 0.0
C788 C 0.60798 0.55513 0.89755 0.0
C789 C 0.62546 0.55693 0.93903 0.0
C790 C 0.55897 0.5418 0.74857 0.0
C791 C 0.54396 0.52552 0.76113 0.0
C792 C 0.57659 0.54528 0.7887 0.0
C793 C 0.57935 0.53268 0.84245 0.0
C794 C 0.56347 0.51733 0.85645 0.0
C795 C 0.54598 0.51391 0.81654 0.0
H796 H 0.99514 0.61825 0.03057 0.0
H797 H 0.9995 0.66152 0.87465 0.0
H798 H 0.99764 0.58758 0.95854 0.0
H799 H 1.00134 0.63057 0.80232 0.0
H800 H 0.98618 0.56647 0.69045 0.0
H801 H 0.9809 0.59815 0.75973 0.0
H802 H 0.02596 0.57165 0.8915 0.0
H803 H 0.03125 0.54038 0.82231 0.0
C804 C 0.99671 0.62132 0.98099 0.0
C805 C 0.99747 0.64258 0.95902 0.0
C806 C 0.99806 0.60363 0.93953 0.0
C807 C 0.99998 0.60654 0.87454 0.0
C808 C 0.99984 0.62771 0.85203 0.0
C809 C 0.9987 0.6455 0.89368 0.0
C810 C 0.99511 0.56764 0.73391 0.0
C811 C 1.00964 0.5513 0.75017 0.0
C812 C 0.99204 0.58572 0.77369 0.0
C813 C 1.00303 0.58751 0.83129 0.0
C814 C 0.0171 0.57079 0.84788 0.0
C815 C 0.02024 0.55291 0.80809 0.0
H816 H 0.08635 0.20729 0.34814 0.0
H817 H 0.0934 0.16179 0.19396 0.0
H818 H 0.07441 0.17879 0.41515 0.0
H819 H 0.08177 0.13276 0.26215 0.0
H820 H 0.0203 0.10547 0.35995 0.0
H821 H 0.04641 0.1254 0.29933 0.0
H822 H 0.07774 0.14634 0.47068 0.0
H823 H 0.05101 0.12676 0.5314 0.0
C824 C 0.08632 0.19098 0.32925 0.0
C825 C 0.0906 0.18684 0.26548 0.0
C826 C 0.07943 0.17452 0.36792 0.0
C827 C 0.07676 0.15348 0.34384 0.0
C828 C 0.08318 0.1489 0.28172 0.0
C829 C 0.08994 0.16547 0.24276 0.0
C830 C 0.03308 0.11392 0.38454 0.0
C831 C 0.03345 0.11493 0.45026 0.0
C832 C 0.04819 0.12525 0.34979 0.0
C833 C 0.06411 0.13768 0.38011 0.0
C834 C 0.06544 0.13727 0.44591 0.0
C835 C 0.05015 0.12612 0.48068 0.0
H836 H 0.35342 0.11324 0.28487 0.0
H837 H 0.35843 0.05889 0.15617 0.0
H838 H 0.38206 0.09795 0.34862 0.0
H839 H 0.38683 0.04391 0.21896 0.0
H840 H 0.43793 0.01864 0.3369 0.0
H841 H 0.42216 0.04479 0.26686 0.0
H842 H 0.37921 0.06614 0.4149 0.0
H843 H 0.39574 0.04078 0.48595 0.0
C844 C 0.36104 0.0984 0.26917 0.0
C845 C 0.35337 0.08713 0.21599 0.0
C846 C 0.37738 0.08964 0.30571 0.0
C847 C 0.38642 0.06956 0.2894 0.0
C848 C 0.38035 0.0595 0.23266 0.0
C849 C 0.36401 0.06818 0.19636 0.0
C850 C 0.42557 0.02934 0.35513 0.0
C851 C 0.41784 0.0274 0.41678 0.0
C852 C 0.41645 0.04423 0.3148 0.0
C853 C 0.39933 0.05739 0.33512 0.0
C854 C 0.39252 0.05638 0.39789 0.0
C855 C 0.40172 0.04157 0.43833 0.0
H856 H 0.48353 0.33735 0.23967 0.0
H857 H 0.4168 0.35618 0.25356 0.0
H858 H 0.49398 0.36909 0.29997 0.0
H859 H 0.42739 0.38865 0.31452 0.0
H860 H 0.47203 0.45442 0.31153 0.0
H861 H 0.45092 0.42243 0.28366 0.0
H862 H 0.48911 0.3847 0.41003 0.0
H863 H 0.51077 0.41606 0.43555 0.0
C864 C 0.47111 0.34839 0.25587 0.0
C865 C 0.44945 0.34466 0.24145 0.0
C866 C 0.47703 0.36638 0.2911 0.0
C867 C 0.46143 0.38113 0.31248 0.0
C868 C 0.43964 0.37737 0.29872 0.0
C869 C 0.43363 0.35898 0.26396 0.0
C870 C 0.47563 0.43936 0.33414 0.0
C871 C 0.49349 0.4376 0.37411 0.0
C872 C 0.46334 0.42118 0.31896 0.0
C873 C 0.46877 0.40112 0.34383 0.0
C874 C 0.48485 0.4 0.3897 0.0
C875 C 0.49719 0.41803 0.40447 0.0
H876 H 0.17895 0.43716 0.2368 0.0
H877 H 0.21045 0.45212 0.41238 0.0
H878 H 0.14442 0.44429 0.2843 0.0
H879 H 0.17545 0.45876 0.46137 0.0
H880 H 0.08415 0.46576 0.35748 0.0
H881 H 0.11499 0.44133 0.35235 0.0
H882 H 0.15379 0.48948 0.44796 0.0
H883 H 0.12284 0.51315 0.45524 0.0
C884 C 0.17843 0.44093 0.28655 0.0
C885 C 0.19744 0.44448 0.32056 0.0
C886 C 0.15848 0.44502 0.31412 0.0
C887 C 0.15709 0.45261 0.37652 0.0
C888 C 0.17598 0.4535 0.41272 0.0
C889 C 0.19602 0.44962 0.38483 0.0
C890 C 0.09918 0.4707 0.379 0.0
C891 C 0.10138 0.49142 0.40548 0.0
C892 C 0.11683 0.45679 0.37603 0.0
C893 C 0.13708 0.46361 0.39818 0.0
C894 C 0.13853 0.48351 0.4306 0.0
C895 C 0.12079 0.49723 0.43447 0.0
H896 H 0.93279 0.83441 0.88114 0.0
H897 H 0.94774 0.87467 0.04265 0.0
H898 H 0.94322 0.86317 0.81263 0.0
H899 H 0.96035 0.90257 0.974 0.0
H900 H 0.99281 0.94704 0.85256 0.0
H901 H 0.96194 0.92855 0.89691 0.0
H902 H 0.97828 0.87147 0.78749 0.0
H903 H 1.00782 0.89042 0.74019 0.0
C904 C 0.9377 0.84956 0.90245 0.0
C905 C 0.94024 0.8518 0.96779 0.0
C906 C 0.94408 0.86602 0.86278 0.0
C907 C 0.95369 0.88483 0.88742 0.0
C908 C 0.95336 0.88825 0.95281 0.0
C909 C 0.94642 0.87201 0.99251 0.0
C910 C 0.98929 0.9308 0.83632 0.0
C911 C 1.00319 0.91992 0.79434 0.0
C912 C 0.97169 0.9201 0.8623 0.0
C913 C 0.96783 0.89827 0.84737 0.0
C914 C 0.9805 0.88824 0.80047 0.0
C915 C 0.99783 0.899 0.77397 0.0
H916 H 0.70494 0.95178 0.88701 0.0
H917 H 0.65871 0.94772 0.03778 0.0
H918 H 0.67741 0.96522 0.81846 0.0
H919 H 0.63064 0.96091 0.96795 0.0
H920 H 0.6061 0.02268 0.86775 0.0
H921 H 0.62524 0.99654 0.93014 0.0
H922 H 0.64497 0.96265 0.76071 0.0
H923 H 0.62616 0.98932 0.69823 0.0
C924 C 0.68863 0.95283 0.9048 0.0
C925 C 0.68404 0.94884 0.96804 0.0
C926 C 0.67275 0.96059 0.86525 0.0
C927 C 0.65184 0.96444 0.88788 0.0
C928 C 0.64673 0.95854 0.94953 0.0
C929 C 0.66273 0.9509 0.98941 0.0
C930 C 0.61422 1.00941 0.84396 0.0
C931 C 0.61505 1.0082 0.77827 0.0
C932 C 0.62503 0.99428 0.87971 0.0
C933 C 0.63679 0.97755 0.85044 0.0
C934 C 0.6364 0.97557 0.78465 0.0
C935 C 0.62573 0.99085 0.74888 0.0
H936 H 0.60252 0.67056 0.02278 0.0
H937 H 0.56234 0.70322 0.88977 0.0
H938 H 0.59202 0.63586 0.97631 0.0
H939 H 0.55107 0.6691 0.84556 0.0
H940 H 0.52679 0.60999 0.77394 0.0
H941 H 0.5545 0.63677 0.79214 0.0
H942 H 0.5612 0.61527 0.98287 0.0
H943 H 0.53516 0.58712 0.96254 0.0
C944 C 0.59173 0.67029 0.98297 0.0
C945 C 0.58316 0.68954 0.96008 0.0
C946 C 0.58561 0.65045 0.95647 0.0
C947 C 0.57041 0.6495 0.90757 0.0
C948 C 0.56307 0.66894 0.88223 0.0
C949 C 0.56946 0.68867 0.90793 0.0
C950 C 0.53479 0.61032 0.81897 0.0
C951 C 0.52808 0.59689 0.86766 0.0
C952 C 0.55053 0.62598 0.82974 0.0
C953 C 0.55949 0.62892 0.88984 0.0
C954 C 0.55461 0.61379 0.93608 0.0
C955 C 0.53928 0.59781 0.92481 0.0
H956 H 0.86109 0.60635 0.04623 0.0
H957 H 0.82882 0.57494 0.89086 0.0
H958 H 0.89587 0.59522 1.00258 0.0
H959 H 0.8628 0.56283 0.84935 0.0
H960 H 0.9213 0.53817 0.77805 0.0
H961 H 0.8957 0.5659 0.80419 0.0
H962 H 0.91488 0.56333 0.99866 0.0
H963 H 0.94278 0.53773 0.97101 0.0
C964 C 0.86152 0.59743 1.00214 0.0
C965 C 0.84233 0.59148 0.97193 0.0
C966 C 0.88137 0.59088 0.97734 0.0
C967 C 0.88232 0.5778 0.92275 0.0
C968 C 0.86305 0.57319 0.89066 0.0
C969 C 0.84337 0.58009 0.91468 0.0
C970 C 0.92094 0.54408 0.82602 0.0
C971 C 0.93395 0.53501 0.87271 0.0
C972 C 0.90577 0.55984 0.84129 0.0
C973 C 0.90244 0.56631 0.90401 0.0
C974 C 0.91671 0.55874 0.94979 0.0
C975 C 0.93249 0.54354 0.9341 0.0
H976 H 0.99391 0.17956 0.80461 0.0
H977 H 0.05616 0.15858 0.86879 0.0
H978 H 0.98885 0.14511 0.74988 0.0
H979 H 0.05107 0.12388 0.81337 0.0
H980 H 0.03905 0.07362 0.64537 0.0
H981 H 0.04638 0.10847 0.69784 0.0
H982 H 0.98369 0.10663 0.78472 0.0
H983 H 0.97671 0.07179 0.73394 0.0
C984 C 1.00661 0.16764 0.80671 0.0
C985 C 0.02546 0.17192 0.84117 0.0
C986 C 1.00364 0.14782 0.77558 0.0
C987 C 0.01953 0.1317 0.77722 0.0
C988 C 0.03857 0.13599 0.81087 0.0
C989 C 0.0414 0.15579 0.84303 0.0
C990 C 0.02705 0.08053 0.67658 0.0
C991 C 1.00758 0.06963 0.68724 0.0
C992 C 0.03119 0.10052 0.70638 0.0
C993 C 0.01567 0.11029 0.74586 0.0
C994 C 0.99599 0.0996 0.75469 0.0
C995 C 0.99201 0.07959 0.72577 0.0
H996 H 0.3748 0.06336 0.8717 0.0
H997 H 0.35127 1.00335 0.79326 0.0
H998 H 0.4097 0.05712 0.81961 0.0
H999 H 0.3859 0.99712 0.74207 0.0
H1000 H 0.4583 0.98123 0.73145 0.0
H1001 H 0.42407 0.98972 0.78253 0.0
H1002 H 0.42497 0.05298 0.7021 0.0
H1003 H 0.45914 0.04413 0.64905 0.0
C1004 C 0.37709 0.04885 0.84355 0.0
C1005 C 0.36022 0.03387 0.83656 0.0
C1006 C 0.39698 0.04537 0.81337 0.0
C1007 C 0.40056 0.02661 0.77673 0.0
C1008 C 0.38371 1.01166 0.77017 0.0
C1009 C 0.36382 0.0153 0.79928 0.0
C1010 C 0.45124 0.99698 0.72479 0.0
C1011 C 0.46172 0.01221 0.68762 0.0
C1012 C 0.43161 1.00183 0.75395 0.0
C1013 C 0.42185 0.02206 0.74675 0.0
C1014 C 0.43222 0.03734 0.7092 0.0
C1015 C 0.4518 0.03232 0.67905 0.0
H1016 H 0.45193 0.36048 0.84265 0.0
H1017 H 0.52024 0.3499 0.81935 0.0
H1018 H 0.45563 0.39584 0.79523 0.0
H1019 H 0.52365 0.38476 0.77029 0.0
H1020 H 0.51769 0.43801 0.6249 0.0
H1021 H 0.51264 0.40284 0.67208 0.0
H1022 H 0.47278 0.4319 0.81621 0.0
H1023 H 0.47833 0.46708 0.77039 0.0
C1024 C 0.46775 0.36563 0.82795 0.0
C1025 C 0.48572 0.352 0.83464 0.0
C1026 C 0.46984 0.38592 0.80041 0.0
C1027 C 0.4899 0.39307 0.77823 0.0
C1028 C 0.50787 0.37961 0.78557 0.0
C1029 C 0.50586 0.3595 0.81369 0.0
C1030 C 0.50777 0.43696 0.66652 0.0
C1031 C 0.49814 0.45554 0.69303 0.0
C1032 C 0.50493 0.41676 0.69371 0.0
C1033 C 0.49225 0.41449 0.74794 0.0
C1034 C 0.48237 0.43297 0.77393 0.0
C1035 C 0.48543 0.45321 0.7472 0.0
H1036 H 0.16271 0.49873 0.91884 0.0
H1037 H 0.19272 0.48897 0.73779 0.0
H1038 H 0.12774 0.50179 0.8682 0.0
H1039 H 0.15781 0.49219 0.68726 0.0
H1040 H 0.09505 0.52238 0.61403 0.0
H1041 H 0.13016 0.51817 0.66372 0.0
H1042 H 0.10061 0.48204 0.81198 0.0
H1043 H 0.06567 0.48705 0.7638 0.0
C1044 C 0.16189 0.49698 0.86833 0.0
C1045 C 0.18074 0.49371 0.83268 0.0
C1046 C 0.14176 0.49877 0.83913 0.0
C1047 C 0.13983 0.49736 0.77336 0.0
C1048 C 0.15862 0.49379 0.73782 0.0
C1049 C 0.17873 0.49194 0.76698 0.0
C1050 C 0.09606 0.51346 0.6571 0.0
C1051 C 0.07743 0.5047 0.68414 0.0
C1052 C 0.11626 0.51092 0.6855 0.0
C1053 C 0.11837 0.49969 0.74204 0.0
C1054 C 0.09971 0.49093 0.76886 0.0
C1055 C 0.07959 0.49345 0.74043 0.0
H1056 H 0.97549 0.87747 0.33937 0.0
H1057 H 0.03323 0.85313 0.42494 0.0
H1058 H 0.98005 0.91183 0.39722 0.0
H1059 H 0.03794 0.88736 0.48141 0.0
H1060 H 0.05322 0.96024 0.49903 0.0
H1061 H 0.04596 0.92628 0.44375 0.0
H1062 H 0.98151 0.92603 0.51896 0.0
H1063 H 0.98912 0.95995 0.57658 0.0
C1064 C 0.98915 0.87946 0.37033 0.0
C1065 C 1.00398 0.86252 0.37754 0.0
C1066 C 0.99167 0.89907 0.40375 0.0
C1067 C 1.00938 0.90233 0.44385 0.0
C1068 C 0.02418 0.8854 0.45076 0.0
C1069 C 0.02143 0.86574 0.41855 0.0
C1070 C 0.03746 0.95301 0.50369 0.0
C1071 C 0.02158 0.96308 0.54092 0.0
C1072 C 0.03332 0.93352 0.47209 0.0
C1073 C 0.01314 0.92348 0.47663 0.0
C1074 C 0.99715 0.93348 0.51399 0.0
C1075 C 1.00146 0.95292 0.5467 0.0
H1076 H 0.65935 0.97244 0.3918 0.0
H1077 H 0.67198 0.04078 0.39973 0.0
H1078 H 0.62521 0.97845 0.44692 0.0
H1079 H 0.63833 0.04674 0.45535 0.0
H1080 H 0.5666 0.05417 0.48713 0.0
H1081 H 0.60114 0.04694 0.43718 0.0
H1082 H 0.60763 0.98887 0.54433 0.0
H1083 H 0.57246 0.99603 0.59312 0.0
C1084 C 0.65496 0.98872 0.40567 0.0
C1085 C 0.66837 1.00614 0.39028 0.0
C1086 C 0.63537 0.99218 0.43755 0.0
C1087 C 0.62873 0.01314 0.45526 0.0
C1088 C 0.64248 0.03042 0.44122 0.0
C1089 C 0.66189 0.02699 0.40914 0.0
C1090 C 0.57539 0.03981 0.49978 0.0
C1091 C 0.56654 0.02535 0.54252 0.0
C1092 C 0.59534 0.03572 0.47157 0.0
C1093 C 0.60738 0.01726 0.48637 0.0
C1094 C 0.59875 1.00304 0.53076 0.0
C1095 C 0.57859 1.00711 0.55876 0.0
H1096 H 0.55731 0.68922 0.47738 0.0
H1097 H 0.52543 0.66364 0.31221 0.0
H1098 H 0.55198 0.65506 0.52946 0.0
H1099 H 0.52096 0.62922 0.36388 0.0
H1100 H 0.5376 0.56456 0.45504 0.0
H1101 H 0.5434 0.59887 0.404 0.0
H1102 H 0.52119 0.63261 0.57054 0.0
H1103 H 0.51551 0.59807 0.62216 0.0
C1104 C 0.54907 0.67643 0.45203 0.0
C1105 C 0.54167 0.67949 0.39034 0.0
C1106 C 0.54609 0.65677 0.48206 0.0
C1107 C 0.53596 0.63943 0.45102 0.0
C1108 C 0.52899 0.64221 0.38898 0.0
C1109 C 0.53169 0.66198 0.35918 0.0
C1110 C 0.53425 0.57927 0.48128 0.0
C1111 C 0.52639 0.57856 0.54311 0.0
C1112 C 0.53732 0.59895 0.45161 0.0
C1113 C 0.53277 0.61849 0.4831 0.0
C1114 C 0.52503 0.61783 0.54516 0.0
C1115 C 0.52169 0.59807 0.57466 0.0
H1116 H 0.86346 0.513 0.31411 0.0
H1117 H 0.85087 0.57161 0.41996 0.0
H1118 H 0.89758 0.50901 0.36826 0.0
H1119 H 0.88447 0.56699 0.47663 0.0
H1120 H 0.95566 0.56331 0.52855 0.0
H1121 H 0.92237 0.56851 0.47108 0.0
H1122 H 0.91221 0.4997 0.46625 0.0
H1123 H 0.94602 0.49454 0.52039 0.0
C1124 C 0.86797 0.52514 0.34865 0.0
C1125 C 0.85424 0.54266 0.3623 0.0
C1126 C 0.88749 0.52266 0.38061 0.0
C1127 C 0.89391 0.53756 0.4275 0.0
C1128 C 0.88031 0.55524 0.44059 0.0
C1129 C 0.86081 0.55776 0.40846 0.0
C1130 C 0.94668 0.54925 0.51388 0.0
C1131 C 0.95426 0.52845 0.52704 0.0
C1132 C 0.92724 0.55225 0.48177 0.0
C1133 C 0.91455 0.53452 0.46279 0.0
C1134 C 0.92174 0.51376 0.47817 0.0
C1135 C 0.94123 0.51079 0.50978 0.0
loop_
_geom_bond_atom_site_label_1
_geom_bond_atom_site_label_2
_geom_bond_distance
_geom_bond_site_symmetry_2
_ccdc_geom_bond_type
C0 C1 1.264 . S
C0 C5 1.479 . S
C0 C10 1.465 . S
C1 C0 1.264 . S
C1 C3 1.339 . S
C1 H28 0.931 . S
C2 C3 1.395 . S
C2 C4 1.320 . S
C3 C1 1.339 . S
C3 C2 1.395 . S
C3 H29 0.929 . S
C4 C2 1.320 . S
C4 C5 1.405 . S
C4 H30 0.930 . S
C5 C0 1.479 . S
C5 C4 1.405 . S
C5 H31 0.931 . S
U6 O7 2.454 . S
U6 O8 2.458 . S
U6 C9 2.984 . S
U6 C10 2.847 . S
U6 C23 2.882 . S
U6 O24 2.441 . S
U6 O25 2.420 . S
U6 O26 2.455 . S
U6 O27 2.449 . S
O7 U6 2.454 . S
O7 C9 1.353 . S
O8 U6 2.458 . S
O8 C9 1.286 . S
C9 U6 2.984 . S
C9 O7 1.353 . S
C9 O8 1.286 . S
C9 C11 1.363 . S
C10 C0 1.465 . S
C10 U6 2.847 . S
C10 O24 1.249 . S
C10 O25 1.202 . S
C11 C9 1.363 . S
C11 C13 1.408 . S
C11 C16 1.342 . S
C12 C13 1.310 . S
C12 C15 1.461 . S
C12 H32 0.932 . S
C13 C11 1.408 . S
C13 C12 1.310 . S
C13 H33 0.930 . S
C14 C15 1.474 . S
C14 C16 1.285 . S
C14 H34 0.929 . S
C15 C12 1.461 . S
C15 C14 1.474 . S
C16 C11 1.342 . S
C16 C14 1.285 . S
C16 H35 0.930 . S
C17 C20 1.424 . S
C17 C22 1.245 1_554 S
C17 C23 1.428 . S
C18 C21 1.260 . S
C18 C22 1.477 . S
C18 H36 0.932 . S
C19 C20 1.384 . S
C19 C21 1.479 1_554 S
C19 H37 0.929 . S
C20 C17 1.424 . S
C20 C19 1.384 . S
C20 H38 0.928 . S
C21 C18 1.260 . S
C21 C19 1.479 1_556 S
C22 C17 1.245 1_556 S
C22 C18 1.477 . S
C22 H39 0.932 . S
C23 U6 2.882 . S
C23 C17 1.428 . S
C23 O26 1.301 . S
C23 O27 1.282 . S
O24 U6 2.441 . S
O24 C10 1.249 . S
O25 U6 2.420 . S
O25 C10 1.202 . S
O26 U6 2.455 . S
O26 C23 1.301 . S
O27 U6 2.449 . S
O27 C23 1.282 . S
H28 C1 0.931 . S
H29 C3 0.929 . S
H30 C4 0.930 . S
H31 C5 0.931 . S
H32 C12 0.932 . S
H33 C13 0.930 . S
H34 C14 0.929 . S
H35 C16 0.930 . S
H36 C18 0.932 . S
H37 C19 0.929 . S
H38 C20 0.928 . S
H39 C22 0.932 . S
C40 C41 1.264 . S
C40 C45 1.479 . S
C40 C50 1.465 . S
C41 C40 1.264 . S
C41 C43 1.339 . S
C41 H68 0.931 . S
C42 C43 1.395 . S
C42 C44 1.320 . S
C43 C41 1.339 . S
C43 C42 1.395 . S
C43 H69 0.929 . S
C44 C42 1.320 . S
C44 C45 1.405 . S
C44 H70 0.930 . S
C45 C40 1.479 . S
C45 C44 1.405 . S
C45 H71 0.931 . S
U46 O47 2.454 . S
U46 O48 2.458 . S
U46 C49 2.984 . S
U46 C50 2.847 . S
U46 C63 2.882 . S
U46 O64 2.441 . S
U46 O65 2.420 . S
U46 O66 2.455 . S
U46 O67 2.449 . S
O47 U46 2.454 . S
O47 C49 1.353 . S
O48 U46 2.458 . S
O48 C49 1.286 . S
C49 U46 2.984 . S
C49 O47 1.353 . S
C49 O48 1.286 . S
C49 C51 1.363 . S
C50 C40 1.465 . S
C50 U46 2.847 . S
C50 O64 1.249 . S
C50 O65 1.202 . S
C51 C49 1.363 . S
C51 C53 1.408 . S
C51 C56 1.342 . S
C52 C53 1.310 . S
C52 C55 1.461 . S
C52 H72 0.932 . S
C53 C51 1.408 . S
C53 C52 1.310 . S
C53 H73 0.930 . S
C54 C55 1.474 . S
C54 C56 1.285 . S
C54 H74 0.929 . S
C55 C52 1.461 . S
C55 C54 1.474 . S
C56 C51 1.342 . S
C56 C54 1.285 . S
C56 H75 0.930 . S
C57 C60 1.424 . S
C57 C62 1.245 1_554 S
C57 C63 1.428 . S
C58 C61 1.260 . S
C58 C62 1.477 . S
C58 H76 0.932 . S
C59 C60 1.384 . S
C59 C61 1.479 1_554 S
C59 H77 0.929 . S
C60 C57 1.424 . S
C60 C59 1.384 . S
C60 H78 0.928 . S
C61 C58 1.260 . S
C61 C59 1.479 1_556 S
C62 C57 1.245 1_556 S
C62 C58 1.477 . S
C62 H79 0.932 . S
C63 U46 2.882 . S
C63 C57 1.428 . S
C63 O66 1.301 . S
C63 O67 1.282 . S
O64 U46 2.441 . S
O64 C50 1.249 . S
O65 U46 2.420 . S
O65 C50 1.202 . S
O66 U46 2.455 . S
O66 C63 1.301 . S
O67 U46 2.449 . S
O67 C63 1.282 . S
H68 C41 0.931 . S
H69 C43 0.929 . S
H70 C44 0.930 . S
H71 C45 0.931 . S
H72 C52 0.932 . S
H73 C53 0.930 . S
H74 C54 0.929 . S
H75 C56 0.930 . S
H76 C58 0.932 . S
H77 C59 0.929 . S
H78 C60 0.928 . S
H79 C62 0.932 . S
C80 C81 1.264 . S
C80 C85 1.479 . S
C80 C90 1.465 . S
C81 C80 1.264 . S
C81 C83 1.339 . S
C81 H108 0.931 . S
C82 C83 1.395 . S
C82 C84 1.320 . S
C83 C81 1.339 . S
C83 C82 1.395 . S
C83 H109 0.929 . S
C84 C82 1.320 . S
C84 C85 1.405 . S
C84 H110 0.930 . S
C85 C80 1.479 . S
C85 C84 1.405 . S
C85 H111 0.931 . S
U86 O87 2.454 . S
U86 O88 2.458 . S
U86 C89 2.984 . S
U86 C90 2.847 . S
U86 C103 2.882 . S
U86 O104 2.441 . S
U86 O105 2.420 . S
U86 O106 2.455 . S
U86 O107 2.449 . S
O87 U86 2.454 . S
O87 C89 1.353 . S
O88 U86 2.458 . S
O88 C89 1.286 . S
C89 U86 2.984 . S
C89 O87 1.353 . S
C89 O88 1.286 . S
C89 C91 1.363 . S
C90 C80 1.465 . S
C90 U86 2.847 . S
C90 O104 1.249 . S
C90 O105 1.202 . S
C91 C89 1.363 . S
C91 C93 1.408 . S
C91 C96 1.342 . S
C92 C93 1.310 . S
C92 C95 1.461 . S
C92 H112 0.932 . S
C93 C91 1.408 . S
C93 C92 1.310 . S
C93 H113 0.930 . S
C94 C95 1.474 . S
C94 C96 1.285 . S
C94 H114 0.929 . S
C95 C92 1.461 . S
C95 C94 1.474 . S
C96 C91 1.342 . S
C96 C94 1.285 . S
C96 H115 0.930 . S
C97 C100 1.424 . S
C97 C102 1.245 1_554 S
C97 C103 1.428 . S
C98 C101 1.260 . S
C98 C102 1.477 . S
C98 H116 0.932 . S
C99 C100 1.384 . S
C99 C101 1.479 1_554 S
C99 H117 0.929 . S
C100 C97 1.424 . S
C100 C99 1.384 . S
C100 H118 0.928 . S
C101 C98 1.260 . S
C101 C99 1.479 1_556 S
C102 C97 1.245 1_556 S
C102 C98 1.477 . S
C102 H119 0.932 . S
C103 U86 2.882 . S
C103 C97 1.428 . S
C103 O106 1.301 . S
C103 O107 1.282 . S
O104 U86 2.441 . S
O104 C90 1.249 . S
O105 U86 2.420 . S
O105 C90 1.202 . S
O106 U86 2.455 . S
O106 C103 1.301 . S
O107 U86 2.449 . S
O107 C103 1.282 . S
H108 C81 0.931 . S
H109 C83 0.929 . S
H110 C84 0.930 . S
H111 C85 0.931 . S
H112 C92 0.932 . S
H113 C93 0.930 . S
H114 C94 0.929 . S
H115 C96 0.930 . S
H116 C98 0.932 . S
H117 C99 0.929 . S
H118 C100 0.928 . S
H119 C102 0.932 . S
C120 C121 1.264 . S
C120 C125 1.479 . S
C120 C130 1.465 . S
C121 C120 1.264 . S
C121 C123 1.339 . S
C121 H148 0.931 . S
C122 C123 1.395 . S
C122 C124 1.320 . S
C123 C121 1.339 . S
C123 C122 1.395 . S
C123 H149 0.929 . S
C124 C122 1.320 . S
C124 C125 1.405 . S
C124 H150 0.930 . S
C125 C120 1.479 . S
C125 C124 1.405 . S
C125 H151 0.931 . S
U126 O127 2.454 . S
U126 O128 2.458 . S
U126 C129 2.984 . S
U126 C130 2.847 . S
U126 C143 2.882 . S
U126 O144 2.441 . S
U126 O145 2.420 . S
U126 O146 2.455 . S
U126 O147 2.449 . S
O127 U126 2.454 . S
O127 C129 1.353 . S
O128 U126 2.458 . S
O128 C129 1.286 . S
C129 U126 2.984 . S
C129 O127 1.353 . S
C129 O128 1.286 . S
C129 C131 1.363 . S
C130 C120 1.465 . S
C130 U126 2.847 . S
C130 O144 1.249 . S
C130 O145 1.202 . S
C131 C129 1.363 . S
C131 C133 1.408 . S
C131 C136 1.342 . S
C132 C133 1.310 . S
C132 C135 1.461 . S
C132 H152 0.932 . S
C133 C131 1.408 . S
C133 C132 1.310 . S
C133 H153 0.930 . S
C134 C135 1.474 . S
C134 C136 1.285 . S
C134 H154 0.929 . S
C135 C132 1.461 . S
C135 C134 1.474 . S
C136 C131 1.342 . S
C136 C134 1.285 . S
C136 H155 0.930 . S
C137 C140 1.424 . S
C137 C142 1.245 1_554 S
C137 C143 1.428 . S
C138 C141 1.260 . S
C138 C142 1.477 . S
C138 H156 0.932 . S
C139 C140 1.384 . S
C139 C141 1.479 1_554 S
C139 H157 0.929 . S
C140 C137 1.424 . S
C140 C139 1.384 . S
C140 H158 0.928 . S
C141 C138 1.260 . S
C141 C139 1.479 1_556 S
C142 C137 1.245 1_556 S
C142 C138 1.477 . S
C142 H159 0.932 . S
C143 U126 2.882 . S
C143 C137 1.428 . S
C143 O146 1.301 . S
C143 O147 1.282 . S
O144 U126 2.441 . S
O144 C130 1.249 . S
O145 U126 2.420 . S
O145 C130 1.202 . S
O146 U126 2.455 . S
O146 C143 1.301 . S
O147 U126 2.449 . S
O147 C143 1.282 . S
H148 C121 0.931 . S
H149 C123 0.929 . S
H150 C124 0.930 . S
H151 C125 0.931 . S
H152 C132 0.932 . S
H153 C133 0.930 . S
H154 C134 0.929 . S
H155 C136 0.930 . S
H156 C138 0.932 . S
H157 C139 0.929 . S
H158 C140 0.928 . S
H159 C142 0.932 . S
C160 C161 1.264 . S
C160 C165 1.479 . S
C160 C170 1.465 . S
C161 C160 1.264 . S
C161 C163 1.339 . S
C161 H188 0.931 . S
C162 C163 1.395 . S
C162 C164 1.320 . S
C163 C161 1.339 . S
C163 C162 1.395 . S
C163 H189 0.929 . S
C164 C162 1.320 . S
C164 C165 1.405 . S
C164 H190 0.930 . S
C165 C160 1.479 . S
C165 C164 1.405 . S
C165 H191 0.931 . S
U166 O167 2.454 1_554 S
U166 O168 2.458 . S
U166 C169 2.984 . S
U166 C170 2.847 1_554 S
U166 C183 2.882 . S
U166 O184 2.441 1_554 S
U166 O185 2.420 1_554 S
U166 O186 2.455 . S
U166 O187 2.449 . S
O167 U166 2.454 1_556 S
O167 C169 1.353 1_556 S
O168 U166 2.458 . S
O168 C169 1.286 . S
C169 U166 2.984 . S
C169 O167 1.353 1_554 S
C169 O168 1.286 . S
C169 C171 1.363 . S
C170 C160 1.465 . S
C170 U166 2.847 1_556 S
C170 O184 1.249 . S
C170 O185 1.202 . S
C171 C169 1.363 . S
C171 C173 1.408 . S
C171 C176 1.342 . S
C172 C173 1.310 . S
C172 C175 1.461 . S
C172 H192 0.932 . S
C173 C171 1.408 . S
C173 C172 1.310 . S
C173 H193 0.930 1_554 S
C174 C175 1.474 . S
C174 C176 1.285 . S
C174 H194 0.929 . S
C175 C172 1.461 . S
C175 C174 1.474 . S
C176 C171 1.342 . S
C176 C174 1.285 . S
C176 H195 0.930 . S
C177 C180 1.424 . S
C177 C182 1.245 . S
C177 C183 1.428 . S
C178 C181 1.260 . S
C178 C182 1.477 . S
C178 H196 0.932 . S
C179 C180 1.384 . S
C179 C181 1.479 . S
C179 H197 0.929 . S
C180 C177 1.424 . S
C180 C179 1.384 . S
C180 H198 0.928 . S
C181 C178 1.260 . S
C181 C179 1.479 . S
C182 C177 1.245 . S
C182 C178 1.477 . S
C182 H199 0.932 . S
C183 U166 2.882 . S
C183 C177 1.428 . S
C183 O186 1.301 . S
C183 O187 1.282 . S
O184 U166 2.441 1_556 S
O184 C170 1.249 . S
O185 U166 2.420 1_556 S
O185 C170 1.202 . S
O186 U166 2.455 . S
O186 C183 1.301 . S
O187 U166 2.449 . S
O187 C183 1.282 . S
H188 C161 0.931 . S
H189 C163 0.929 . S
H190 C164 0.930 . S
H191 C165 0.931 . S
H192 C172 0.932 . S
H193 C173 0.930 1_556 S
H194 C174 0.929 . S
H195 C176 0.930 . S
H196 C178 0.932 . S
H197 C179 0.929 . S
H198 C180 0.928 . S
H199 C182 0.932 . S
C200 C201 1.264 . S
C200 C205 1.479 . S
C200 C210 1.465 . S
C201 C200 1.264 . S
C201 C203 1.339 . S
C201 H228 0.931 . S
C202 C203 1.395 . S
C202 C204 1.320 . S
C203 C201 1.339 . S
C203 C202 1.395 . S
C203 H229 0.929 . S
C204 C202 1.320 . S
C204 C205 1.405 . S
C204 H230 0.930 . S
C205 C200 1.479 . S
C205 C204 1.405 . S
C205 H231 0.931 . S
U206 O207 2.454 1_554 S
U206 O208 2.458 . S
U206 C209 2.984 . S
U206 C210 2.847 1_554 S
U206 C223 2.882 . S
U206 O224 2.441 1_554 S
U206 O225 2.420 1_554 S
U206 O226 2.455 . S
U206 O227 2.449 . S
O207 U206 2.454 1_556 S
O207 C209 1.353 1_556 S
O208 U206 2.458 . S
O208 C209 1.286 . S
C209 U206 2.984 . S
C209 O207 1.353 1_554 S
C209 O208 1.286 . S
C209 C211 1.363 . S
C210 C200 1.465 . S
C210 U206 2.847 1_556 S
C210 O224 1.249 . S
C210 O225 1.202 . S
C211 C209 1.363 . S
C211 C213 1.408 . S
C211 C216 1.342 . S
C212 C213 1.310 . S
C212 C215 1.461 . S
C212 H232 0.932 1_554 S
C213 C211 1.408 . S
C213 C212 1.310 . S
C213 H233 0.930 1_554 S
C214 C215 1.474 . S
C214 C216 1.285 . S
C214 H234 0.929 . S
C215 C212 1.461 . S
C215 C214 1.474 . S
C216 C211 1.342 . S
C216 C214 1.285 . S
C216 H235 0.930 . S
C217 C220 1.424 . S
C217 C222 1.245 . S
C217 C223 1.428 . S
C218 C221 1.260 . S
C218 C222 1.477 . S
C218 H236 0.932 . S
C219 C220 1.384 . S
C219 C221 1.479 . S
C219 H237 0.929 . S
C220 C217 1.424 . S
C220 C219 1.384 . S
C220 H238 0.928 . S
C221 C218 1.260 . S
C221 C219 1.479 . S
C222 C217 1.245 . S
C222 C218 1.477 . S
C222 H239 0.932 . S
C223 U206 2.882 . S
C223 C217 1.428 . S
C223 O226 1.301 . S
C223 O227 1.282 . S
O224 U206 2.441 1_556 S
O224 C210 1.249 . S
O225 U206 2.420 1_556 S
O225 C210 1.202 . S
O226 U206 2.455 . S
O226 C223 1.301 . S
O227 U206 2.449 . S
O227 C223 1.282 . S
H228 C201 0.931 . S
H229 C203 0.929 . S
H230 C204 0.930 . S
H231 C205 0.931 . S
H232 C212 0.932 1_556 S
H233 C213 0.930 1_556 S
H234 C214 0.929 . S
H235 C216 0.930 . S
H236 C218 0.932 . S
H237 C219 0.929 . S
H238 C220 0.928 . S
H239 C222 0.932 . S
C240 C241 1.264 . S
C240 C245 1.479 . S
C240 C250 1.465 . S
C241 C240 1.264 . S
C241 C243 1.339 . S
C241 H268 0.931 . S
C242 C243 1.395 . S
C242 C244 1.320 . S
C243 C241 1.339 . S
C243 C242 1.395 . S
C243 H269 0.929 . S
C244 C242 1.320 . S
C244 C245 1.405 . S
C244 H270 0.930 . S
C245 C240 1.479 . S
C245 C244 1.405 . S
C245 H271 0.931 . S
U246 O247 2.454 1_554 S
U246 O248 2.458 . S
U246 C249 2.984 . S
U246 C250 2.847 1_554 S
U246 C263 2.882 . S
U246 O264 2.441 1_554 S
U246 O265 2.420 1_554 S
U246 O266 2.455 . S
U246 O267 2.449 . S
O247 U246 2.454 1_556 S
O247 C249 1.353 1_556 S
O248 U246 2.458 . S
O248 C249 1.286 . S
C249 U246 2.984 . S
C249 O247 1.353 1_554 S
C249 O248 1.286 . S
C249 C251 1.363 . S
C250 C240 1.465 . S
C250 U246 2.847 1_556 S
C250 O264 1.249 . S
C250 O265 1.202 . S
C251 C249 1.363 . S
C251 C253 1.408 . S
C251 C256 1.342 . S
C252 C253 1.310 . S
C252 C255 1.461 . S
C252 H272 0.932 1_554 S
C253 C251 1.408 . S
C253 C252 1.310 . S
C253 H273 0.930 1_554 S
C254 C255 1.474 . S
C254 C256 1.285 . S
C254 H274 0.929 . S
C255 C252 1.461 . S
C255 C254 1.474 . S
C256 C251 1.342 . S
C256 C254 1.285 . S
C256 H275 0.930 . S
C257 C260 1.424 . S
C257 C262 1.245 . S
C257 C263 1.428 . S
C258 C261 1.260 . S
C258 C262 1.477 . S
C258 H276 0.932 . S
C259 C260 1.384 . S
C259 C261 1.479 . S
C259 H277 0.929 . S
C260 C257 1.424 . S
C260 C259 1.384 . S
C260 H278 0.928 . S
C261 C258 1.260 . S
C261 C259 1.479 . S
C262 C257 1.245 . S
C262 C258 1.477 . S
C262 H279 0.932 . S
C263 U246 2.882 . S
C263 C257 1.428 . S
C263 O266 1.301 . S
C263 O267 1.282 . S
O264 U246 2.441 1_556 S
O264 C250 1.249 . S
O265 U246 2.420 1_556 S
O265 C250 1.202 . S
O266 U246 2.455 . S
O266 C263 1.301 . S
O267 U246 2.449 . S
O267 C263 1.282 . S
H268 C241 0.931 . S
H269 C243 0.929 . S
H270 C244 0.930 . S
H271 C245 0.931 . S
H272 C252 0.932 1_556 S
H273 C253 0.930 1_556 S
H274 C254 0.929 . S
H275 C256 0.930 . S
H276 C258 0.932 . S
H277 C259 0.929 . S
H278 C260 0.928 . S
H279 C262 0.932 . S
C280 C281 1.264 . S
C280 C285 1.479 . S
C280 C290 1.465 . S
C281 C280 1.264 . S
C281 C283 1.339 . S
C281 H308 0.931 . S
C282 C283 1.395 . S
C282 C284 1.320 . S
C283 C281 1.339 . S
C283 C282 1.395 . S
C283 H309 0.929 . S
C284 C282 1.320 . S
C284 C285 1.405 . S
C284 H310 0.930 . S
C285 C280 1.479 . S
C285 C284 1.405 . S
C285 H311 0.931 . S
U286 O287 2.454 1_554 S
U286 O288 2.458 . S
U286 C289 2.984 . S
U286 C290 2.847 1_554 S
U286 C303 2.882 . S
U286 O304 2.441 1_554 S
U286 O305 2.420 1_554 S
U286 O306 2.455 . S
U286 O307 2.449 . S
O287 U286 2.454 1_556 S
O287 C289 1.353 1_556 S
O288 U286 2.458 . S
O288 C289 1.286 . S
C289 U286 2.984 . S
C289 O287 1.353 1_554 S
C289 O288 1.286 . S
C289 C291 1.363 . S
C290 C280 1.465 . S
C290 U286 2.847 1_556 S
C290 O304 1.249 . S
C290 O305 1.202 . S
C291 C289 1.363 . S
C291 C293 1.408 . S
C291 C296 1.342 . S
C292 C293 1.310 . S
C292 C295 1.461 . S
C292 H312 0.932 . S
C293 C291 1.408 . S
C293 C292 1.310 . S
C293 H313 0.930 1_554 S
C294 C295 1.474 . S
C294 C296 1.285 . S
C294 H314 0.929 . S
C295 C292 1.461 . S
C295 C294 1.474 . S
C296 C291 1.342 . S
C296 C294 1.285 . S
C296 H315 0.930 . S
C297 C300 1.424 . S
C297 C302 1.245 . S
C297 C303 1.428 . S
C298 C301 1.260 . S
C298 C302 1.477 . S
C298 H316 0.932 . S
C299 C300 1.384 . S
C299 C301 1.479 . S
C299 H317 0.929 . S
C300 C297 1.424 . S
C300 C299 1.384 . S
C300 H318 0.928 . S
C301 C298 1.260 . S
C301 C299 1.479 . S
C302 C297 1.245 . S
C302 C298 1.477 . S
C302 H319 0.932 . S
C303 U286 2.882 . S
C303 C297 1.428 . S
C303 O306 1.301 . S
C303 O307 1.282 . S
O304 U286 2.441 1_556 S
O304 C290 1.249 . S
O305 U286 2.420 1_556 S
O305 C290 1.202 . S
O306 U286 2.455 . S
O306 C303 1.301 . S
O307 U286 2.449 . S
O307 C303 1.282 . S
H308 C281 0.931 . S
H309 C283 0.929 . S
H310 C284 0.930 . S
H311 C285 0.931 . S
H312 C292 0.932 . S
H313 C293 0.930 1_556 S
H314 C294 0.929 . S
H315 C296 0.930 . S
H316 C298 0.932 . S
H317 C299 0.929 . S
H318 C300 0.928 . S
H319 C302 0.932 . S
Gd320 N351 2.661 . S
Gd320 N357 2.601 . S
Gd320 O364 2.545 . S
Gd320 O365 2.606 1_655 S
Gd320 O367 2.429 . S
Gd320 O368 2.545 1_655 S
Gd320 O369 2.412 . S
Gd320 O371 2.362 1_545 S
Gd320 O372 2.324 1_655 S
Gd320 C379 2.828 . S
Gd321 N330 2.661 1_565 S
Gd321 N334 2.601 . S
Gd321 O365 2.362 1_565 S
Gd321 O366 2.324 1_455 S
Gd321 O370 2.545 . S
Gd321 O371 2.606 1_455 S
Gd321 O373 2.429 . S
Gd321 O374 2.545 . S
Gd321 O375 2.412 . S
Gd321 C388 2.828 . S
C322 C325 1.417 . S
C322 C327 1.431 . S
C322 C328 1.412 . S
C323 C326 1.437 . S
C323 C327 1.317 . S
C323 H342 0.929 . S
C324 C325 1.426 . S
C324 C326 1.413 . S
C324 N334 1.359 1_545 S
C325 C322 1.417 . S
C325 C324 1.426 . S
C325 N330 1.350 . S
C326 C323 1.437 . S
C326 C324 1.413 . S
C326 C336 1.391 1_545 S
C327 C322 1.431 . S
C327 C323 1.317 . S
C327 H338 0.930 . S
C328 C322 1.412 . S
C328 C329 1.355 . S
C328 H340 0.930 . S
C329 C328 1.355 . S
C329 C331 1.402 . S
C329 H341 0.930 1_455 S
N330 Gd321 2.661 1_545 S
N330 C325 1.350 . S
N330 C331 1.307 . S
C331 C329 1.402 . S
C331 N330 1.307 . S
C331 H332 0.930 1_455 S
H332 C331 0.930 1_655 S
C333 N334 1.334 . S
C333 C335 1.394 . S
C333 H337 0.930 . S
N334 Gd321 2.601 . S
N334 C324 1.359 1_565 S
N334 C333 1.334 . S
C335 C333 1.394 . S
C335 C336 1.359 . S
C335 H347 0.930 . S
C336 C326 1.391 1_565 S
C336 C335 1.359 . S
C336 H348 0.931 . S
H337 C333 0.930 . S
H338 C327 0.930 . S
H339 C356 0.930 . S
H340 C328 0.930 . S
H341 C329 0.930 1_655 S
H342 C323 0.929 . S
H343 C361 0.930 . S
H344 C352 0.930 . S
H345 C353 0.930 . S
H346 C377 0.929 . S
H347 C335 0.930 . S
H348 C336 0.931 . S
H349 C378 0.930 . S
H350 C359 0.930 . S
N351 Gd320 2.661 . S
N351 C355 1.350 1_545 S
N351 C356 1.307 1_645 S
C352 H344 0.930 . S
C352 C353 1.355 1_655 S
C352 C354 1.412 . S
C353 H345 0.930 . S
C353 C352 1.355 1_455 S
C353 C356 1.402 . S
C354 C352 1.412 . S
C354 C355 1.417 . S
C354 C378 1.431 . S
C355 N351 1.350 1_565 S
C355 C354 1.417 . S
C355 C358 1.426 1_565 S
C356 H339 0.930 . S
C356 N351 1.307 1_465 S
C356 C353 1.402 . S
N357 Gd320 2.601 . S
N357 C358 1.359 . S
N357 C361 1.334 . S
C358 C355 1.426 1_545 S
C358 N357 1.359 . S
C358 C362 1.413 . S
C359 H350 0.930 . S
C359 C360 1.359 . S
C359 C361 1.394 . S
C360 C359 1.359 . S
C360 C362 1.391 . S
C360 H363 0.929 . S
C361 H343 0.930 . S
C361 N357 1.334 . S
C361 C359 1.394 . S
C362 C358 1.413 . S
C362 C360 1.391 . S
C362 C377 1.437 1_545 S
H363 C360 0.929 . S
O364 Gd320 2.545 . S
O364 C379 1.258 . S
O365 Gd320 2.606 1_455 S
O365 Gd321 2.362 1_545 S
O365 C376 1.284 . S
O366 Gd321 2.324 1_655 S
O366 C386 1.254 1_565 S
O367 Gd320 2.429 . S
O367 C386 1.268 . S
O368 Gd320 2.545 1_455 S
O368 C376 1.250 . S
O369 Gd320 2.412 . S
O369 C379 1.252 . S
O370 Gd321 2.545 . S
O370 C388 1.258 . S
O371 Gd320 2.362 1_565 S
O371 Gd321 2.606 1_655 S
O371 C387 1.284 . S
O372 Gd320 2.324 1_455 S
O372 C395 1.254 . S
O373 Gd321 2.429 . S
O373 C395 1.268 1_565 S
O374 Gd321 2.545 . S
O374 C387 1.250 1_455 S
O375 Gd321 2.412 . S
O375 C388 1.252 . S
C376 O365 1.284 . S
C376 O368 1.250 . S
C377 H346 0.929 . S
C377 C362 1.437 1_565 S
C377 C378 1.317 . S
C378 H349 0.930 . S
C378 C354 1.431 . S
C378 C377 1.317 . S
C379 Gd320 2.828 . S
C379 O364 1.258 . S
C379 O369 1.252 . S
C379 C380 1.497 . S
C380 C379 1.497 . S
C380 C381 1.395 . S
C380 C382 1.380 . S
C381 C380 1.395 . S
C381 C384 1.398 . S
C381 H396 0.930 . S
C382 C380 1.380 . S
C382 C383 1.391 . S
C382 H397 0.930 1_655 S
C383 C382 1.391 . S
C383 C385 1.387 . S
C384 C381 1.398 . S
C384 C385 1.380 . S
C384 H398 0.930 . S
C385 C383 1.387 . S
C385 C384 1.380 . S
C385 H399 0.930 . S
C386 O366 1.254 1_545 S
C386 O367 1.268 . S
C387 O371 1.284 . S
C387 O374 1.250 1_655 S
C388 Gd321 2.828 . S
C388 O370 1.258 . S
C388 O375 1.252 . S
C388 C389 1.497 . S
C389 C388 1.497 . S
C389 C390 1.395 . S
C389 C391 1.380 . S
C390 C389 1.395 . S
C390 C393 1.398 . S
C390 H400 0.930 . S
C391 C389 1.380 . S
C391 C392 1.391 . S
C391 H401 0.930 1_455 S
C392 C391 1.391 . S
C392 C394 1.387 . S
C393 C390 1.398 . S
C393 C394 1.380 . S
C393 H402 0.930 . S
C394 C392 1.387 . S
C394 C393 1.380 . S
C394 H403 0.930 . S
C395 O372 1.254 . S
C395 O373 1.268 1_545 S
H396 C381 0.930 . S
H397 C382 0.930 1_455 S
H398 C384 0.930 . S
H399 C385 0.930 . S
H400 C390 0.930 . S
H401 C391 0.930 1_655 S
H402 C393 0.930 . S
H403 C394 0.930 . S
Gd404 N435 2.661 . S
Gd404 N441 2.601 . S
Gd404 O448 2.545 . S
Gd404 O449 2.606 1_565 S
Gd404 O451 2.429 . S
Gd404 O452 2.545 1_565 S
Gd404 O453 2.412 . S
Gd404 O455 2.362 . S
Gd404 O456 2.324 1_565 S
Gd404 C463 2.828 . S
Gd405 N414 2.661 . S
Gd405 N418 2.601 . S
Gd405 O449 2.362 . S
Gd405 O450 2.324 1_545 S
Gd405 O454 2.545 . S
Gd405 O455 2.606 1_545 S
Gd405 O457 2.429 . S
Gd405 O458 2.545 . S
Gd405 O459 2.412 . S
Gd405 C472 2.828 . S
C406 C409 1.417 . S
C406 C411 1.431 . S
C406 C412 1.412 . S
C407 C410 1.437 . S
C407 C411 1.317 . S
C407 H426 0.929 . S
C408 C409 1.426 . S
C408 C410 1.413 . S
C408 N418 1.359 . S
C409 C406 1.417 . S
C409 C408 1.426 . S
C409 N414 1.350 . S
C410 C407 1.437 . S
C410 C408 1.413 . S
C410 C420 1.391 . S
C411 C406 1.431 . S
C411 C407 1.317 . S
C411 H422 0.930 . S
C412 C406 1.412 . S
C412 C413 1.355 . S
C412 H424 0.930 . S
C413 C412 1.355 . S
C413 C415 1.402 . S
C413 H425 0.930 1_545 S
N414 Gd405 2.661 . S
N414 C409 1.350 . S
N414 C415 1.307 . S
C415 C413 1.402 . S
C415 N414 1.307 . S
C415 H416 0.930 1_545 S
H416 C415 0.930 1_565 S
C417 N418 1.334 . S
C417 C419 1.394 . S
C417 H421 0.930 . S
N418 Gd405 2.601 . S
N418 C408 1.359 . S
N418 C417 1.334 . S
C419 C417 1.394 . S
C419 C420 1.359 . S
C419 H431 0.930 . S
C420 C410 1.391 . S
C420 C419 1.359 . S
C420 H432 0.929 . S
H421 C417 0.930 . S
H422 C411 0.930 . S
H423 C440 0.930 . S
H424 C412 0.930 . S
H425 C413 0.930 1_565 S
H426 C407 0.929 . S
H427 C445 0.930 . S
H428 C436 0.930 . S
H429 C437 0.930 . S
H430 C461 0.929 . S
H431 C419 0.930 . S
H432 C420 0.929 . S
H433 C462 0.930 . S
H434 C443 0.930 . S
N435 Gd404 2.661 . S
N435 C439 1.350 . S
N435 C440 1.307 1_565 S
C436 H428 0.930 . S
C436 C437 1.355 1_565 S
C436 C438 1.412 . S
C437 H429 0.930 . S
C437 C436 1.355 1_545 S
C437 C440 1.402 . S
C438 C436 1.412 . S
C438 C439 1.417 . S
C438 C462 1.431 . S
C439 N435 1.350 . S
C439 C438 1.417 . S
C439 C442 1.426 . S
C440 H423 0.930 . S
C440 N435 1.307 1_545 S
C440 C437 1.402 . S
N441 Gd404 2.601 . S
N441 C442 1.359 . S
N441 C445 1.334 . S
C442 C439 1.426 . S
C442 N441 1.359 . S
C442 C446 1.413 . S
C443 H434 0.930 . S
C443 C444 1.359 . S
C443 C445 1.394 . S
C444 C443 1.359 . S
C444 C446 1.391 . S
C444 H447 0.929 . S
C445 H427 0.930 . S
C445 N441 1.334 . S
C445 C443 1.394 . S
C446 C442 1.413 . S
C446 C444 1.391 . S
C446 C461 1.437 . S
H447 C444 0.929 . S
O448 Gd404 2.545 . S
O448 C463 1.258 . S
O449 Gd404 2.606 1_545 S
O449 Gd405 2.362 . S
O449 C460 1.284 . S
O450 Gd405 2.324 1_565 S
O450 C470 1.254 . S
O451 Gd404 2.429 . S
O451 C470 1.268 . S
O452 Gd404 2.545 1_545 S
O452 C460 1.250 . S
O453 Gd404 2.412 . S
O453 C463 1.252 . S
O454 Gd405 2.545 . S
O454 C472 1.258 . S
O455 Gd404 2.362 . S
O455 Gd405 2.606 1_565 S
O455 C471 1.284 . S
O456 Gd404 2.324 1_545 S
O456 C479 1.254 . S
O457 Gd405 2.429 . S
O457 C479 1.268 . S
O458 Gd405 2.545 . S
O458 C471 1.250 1_545 S
O459 Gd405 2.412 . S
O459 C472 1.252 . S
C460 O449 1.284 . S
C460 O452 1.250 . S
C461 H430 0.929 . S
C461 C446 1.437 . S
C461 C462 1.317 . S
C462 H433 0.930 . S
C462 C438 1.431 . S
C462 C461 1.317 . S
C463 Gd404 2.828 . S
C463 O448 1.258 . S
C463 O453 1.252 . S
C463 C464 1.497 . S
C464 C463 1.497 . S
C464 C465 1.395 . S
C464 C466 1.380 . S
C465 C464 1.395 . S
C465 C468 1.398 . S
C465 H480 0.930 . S
C466 C464 1.380 . S
C466 C467 1.391 . S
C466 H481 0.930 1_565 S
C467 C466 1.391 . S
C467 C469 1.387 . S
C468 C465 1.398 . S
C468 C469 1.380 . S
C468 H482 0.930 . S
C469 C467 1.387 . S
C469 C468 1.380 . S
C469 H483 0.930 . S
C470 O450 1.254 . S
C470 O451 1.268 . S
C471 O455 1.284 . S
C471 O458 1.250 1_565 S
C472 Gd405 2.828 . S
C472 O454 1.258 . S
C472 O459 1.252 . S
C472 C473 1.497 . S
C473 C472 1.497 . S
C473 C474 1.395 . S
C473 C475 1.380 . S
C474 C473 1.395 . S
C474 C477 1.398 . S
C474 H484 0.930 . S
C475 C473 1.380 . S
C475 C476 1.391 . S
C475 H485 0.972 . S
C476 C475 1.391 . S
C476 C478 1.387 . S
C477 C474 1.398 . S
C477 C478 1.380 . S
C477 H486 0.930 . S
C478 C476 1.387 . S
C478 C477 1.380 . S
C478 H487 0.930 . S
C479 O456 1.254 . S
C479 O457 1.268 . S
H480 C465 0.930 . S
H481 C466 0.930 1_545 S
H482 C468 0.930 . S
H483 C469 0.930 . S
H484 C474 0.930 . S
H485 C475 0.972 . S
H486 C477 0.930 . S
H487 C478 0.930 . S
Gd488 N519 2.661 . S
Gd488 N525 2.601 . S
Gd488 O532 2.545 . S
Gd488 O533 2.606 . S
Gd488 O535 2.429 . S
Gd488 O536 2.545 . S
Gd488 O537 2.412 . S
Gd488 O539 2.362 . S
Gd488 O540 2.324 . S
Gd488 C547 2.828 . S
Gd489 N498 2.661 . S
Gd489 N502 2.601 . S
Gd489 O533 2.362 . S
Gd489 O534 2.324 . S
Gd489 O538 2.545 . S
Gd489 O539 2.606 . S
Gd489 O541 2.429 . S
Gd489 O542 2.545 . S
Gd489 O543 2.412 . S
Gd489 C556 2.828 . S
C490 C493 1.417 . S
C490 C495 1.431 . S
C490 C496 1.412 . S
C491 C494 1.437 . S
C491 C495 1.317 . S
C491 H510 0.929 . S
C492 C493 1.426 . S
C492 C494 1.413 . S
C492 N502 1.359 . S
C493 C490 1.417 . S
C493 C492 1.426 . S
C493 N498 1.350 . S
C494 C491 1.437 . S
C494 C492 1.413 . S
C494 C504 1.391 . S
C495 C490 1.431 . S
C495 C491 1.317 . S
C495 H506 0.930 . S
C496 C490 1.412 . S
C496 C497 1.355 . S
C496 H508 0.930 . S
C497 C496 1.355 . S
C497 C499 1.402 . S
C497 H509 0.930 . S
N498 Gd489 2.661 . S
N498 C493 1.350 . S
N498 C499 1.307 . S
C499 C497 1.402 . S
C499 N498 1.307 . S
C499 H500 0.930 . S
H500 C499 0.930 . S
C501 N502 1.334 . S
C501 C503 1.394 . S
C501 H505 0.930 . S
N502 Gd489 2.601 . S
N502 C492 1.359 . S
N502 C501 1.334 . S
C503 C501 1.394 . S
C503 C504 1.359 . S
C503 H515 0.930 . S
C504 C494 1.391 . S
C504 C503 1.359 . S
C504 H516 0.929 . S
H505 C501 0.930 . S
H506 C495 0.930 . S
H507 C524 0.930 . S
H508 C496 0.930 . S
H509 C497 0.930 . S
H510 C491 0.929 . S
H511 C529 0.930 . S
H512 C520 0.930 . S
H513 C521 0.930 . S
H514 C545 0.929 . S
H515 C503 0.930 . S
H516 C504 0.929 . S
H517 C546 0.930 . S
H518 C527 0.930 . S
N519 Gd488 2.661 . S
N519 C523 1.350 . S
N519 C524 1.307 . S
C520 H512 0.930 . S
C520 C521 1.355 . S
C520 C522 1.412 . S
C521 H513 0.930 . S
C521 C520 1.355 . S
C521 C524 1.402 . S
C522 C520 1.412 . S
C522 C523 1.417 . S
C522 C546 1.431 . S
C523 N519 1.350 . S
C523 C522 1.417 . S
C523 C526 1.426 . S
C524 H507 0.930 . S
C524 N519 1.307 . S
C524 C521 1.402 . S
N525 Gd488 2.601 . S
N525 C526 1.359 . S
N525 C529 1.334 . S
C526 C523 1.426 . S
C526 N525 1.359 . S
C526 C530 1.413 . S
C527 H518 0.930 . S
C527 C528 1.359 . S
C527 C529 1.394 . S
C528 C527 1.359 . S
C528 C530 1.391 . S
C528 H531 0.929 . S
C529 H511 0.930 . S
C529 N525 1.334 . S
C529 C527 1.394 . S
C530 C526 1.413 . S
C530 C528 1.391 . S
C530 C545 1.437 . S
H531 C528 0.929 . S
O532 Gd488 2.545 . S
O532 C547 1.258 . S
O533 Gd488 2.606 . S
O533 Gd489 2.362 . S
O533 C544 1.284 . S
O534 Gd489 2.324 . S
O534 C554 1.254 . S
O535 Gd488 2.429 . S
O535 C554 1.268 . S
O536 Gd488 2.545 . S
O536 C544 1.250 . S
O537 Gd488 2.412 . S
O537 C547 1.252 . S
O538 Gd489 2.545 . S
O538 C556 1.258 . S
O539 Gd488 2.362 . S
O539 Gd489 2.606 . S
O539 C555 1.284 . S
O540 Gd488 2.324 . S
O540 C563 1.254 . S
O541 Gd489 2.429 . S
O541 C563 1.268 . S
O542 Gd489 2.545 . S
O542 C555 1.250 . S
O543 Gd489 2.412 . S
O543 C556 1.252 . S
C544 O533 1.284 . S
C544 O536 1.250 . S
C545 H514 0.929 . S
C545 C530 1.437 . S
C545 C546 1.317 . S
C546 H517 0.930 . S
C546 C522 1.431 . S
C546 C545 1.317 . S
C547 Gd488 2.828 . S
C547 O532 1.258 . S
C547 O537 1.252 . S
C547 C548 1.497 . S
C548 C547 1.497 . S
C548 C549 1.395 . S
C548 C550 1.380 . S
C549 C548 1.395 . S
C549 C552 1.398 . S
C549 H564 0.930 . S
C550 C548 1.380 . S
C550 C551 1.391 . S
C550 H565 0.930 . S
C551 C550 1.391 . S
C551 C553 1.387 . S
C552 C549 1.398 . S
C552 C553 1.380 . S
C552 H566 0.930 . S
C553 C551 1.387 . S
C553 C552 1.380 . S
C553 H567 0.930 . S
C554 O534 1.254 . S
C554 O535 1.268 . S
C555 O539 1.284 . S
C555 O542 1.250 . S
C556 Gd489 2.828 . S
C556 O538 1.258 . S
C556 O543 1.252 . S
C556 C557 1.497 . S
C557 C556 1.497 . S
C557 C558 1.395 . S
C557 C559 1.380 . S
C558 C557 1.395 . S
C558 C561 1.398 . S
C558 H568 0.930 . S
C559 C557 1.380 . S
C559 C560 1.391 . S
C559 H569 0.930 . S
C560 C559 1.391 . S
C560 C562 1.387 . S
C561 C558 1.398 . S
C561 C562 1.380 . S
C561 H570 0.930 . S
C562 C560 1.387 . S
C562 C561 1.380 . S
C562 H571 0.930 . S
C563 O540 1.254 . S
C563 O541 1.268 . S
H564 C549 0.930 . S
H565 C550 0.930 . S
H566 C552 0.930 . S
H567 C553 0.930 . S
H568 C558 0.930 . S
H569 C559 0.930 . S
H570 C561 0.930 . S
H571 C562 0.930 . S
Gd572 N603 2.661 . S
Gd572 N609 2.601 . S
Gd572 O616 2.545 . S
Gd572 O617 2.598 1_655 S
Gd572 O619 2.429 1_655 S
Gd572 O620 2.545 . S
Gd572 O621 2.412 . S
Gd572 O623 2.362 1_655 S
Gd572 O624 2.324 . S
Gd572 C631 2.828 . S
Gd573 N582 2.661 . S
Gd573 N586 2.601 . S
Gd573 O617 2.375 . S
Gd573 O618 2.324 . S
Gd573 O622 2.545 . S
Gd573 O623 2.606 . S
Gd573 O625 2.429 1_455 S
Gd573 O626 2.545 . S
Gd573 O627 2.412 . S
Gd573 C640 2.828 . S
C574 C577 1.417 . S
C574 C579 1.431 . S
C574 C580 1.412 . S
C575 C578 1.437 . S
C575 C579 1.317 . S
C575 H594 0.929 . S
C576 C577 1.426 . S
C576 C578 1.413 . S
C576 N586 1.359 . S
C577 C574 1.417 . S
C577 C576 1.426 . S
C577 N582 1.350 . S
C578 C575 1.437 . S
C578 C576 1.413 . S
C578 C588 1.391 . S
C579 C574 1.431 . S
C579 C575 1.317 . S
C579 H590 0.930 . S
C580 C574 1.412 . S
C580 C581 1.355 . S
C580 H592 0.930 . S
C581 C580 1.355 . S
C581 C583 1.402 . S
C581 H593 0.930 . S
N582 Gd573 2.661 . S
N582 C577 1.350 . S
N582 C583 1.307 . S
C583 C581 1.402 . S
C583 N582 1.307 . S
C583 H584 0.930 . S
H584 C583 0.930 . S
C585 N586 1.334 . S
C585 C587 1.394 . S
C585 H589 0.930 1_455 S
N586 Gd573 2.601 . S
N586 C576 1.359 . S
N586 C585 1.334 . S
C587 C585 1.394 . S
C587 C588 1.359 . S
C587 H599 0.930 1_455 S
C588 C578 1.391 . S
C588 C587 1.359 . S
C588 H600 0.929 . S
H589 C585 0.930 1_655 S
H590 C579 0.930 . S
H591 C608 0.930 . S
H592 C580 0.930 . S
H593 C581 0.930 . S
H594 C575 0.929 . S
H595 C613 0.930 . S
H596 C604 0.930 . S
H597 C605 0.930 . S
H598 C629 0.929 . S
H599 C587 0.930 1_655 S
H600 C588 0.929 . S
H601 C630 0.930 . S
H602 C611 0.930 . S
N603 Gd572 2.661 . S
N603 C607 1.350 . S
N603 C608 1.307 . S
C604 H596 0.930 . S
C604 C605 1.355 . S
C604 C606 1.412 . S
C605 H597 0.930 . S
C605 C604 1.355 . S
C605 C608 1.402 . S
C606 C604 1.412 . S
C606 C607 1.417 . S
C606 C630 1.431 . S
C607 N603 1.350 . S
C607 C606 1.417 . S
C607 C610 1.426 . S
C608 H591 0.930 . S
C608 N603 1.307 . S
C608 C605 1.402 . S
N609 Gd572 2.601 . S
N609 C610 1.359 . S
N609 C613 1.334 1_655 S
C610 C607 1.426 . S
C610 N609 1.359 . S
C610 C614 1.413 . S
C611 H602 0.930 . S
C611 C612 1.359 1_455 S
C611 C613 1.394 . S
C612 C611 1.359 1_655 S
C612 C614 1.391 . S
C612 H615 0.929 . S
C613 H595 0.930 . S
C613 N609 1.334 1_455 S
C613 C611 1.394 . S
C614 C610 1.413 . S
C614 C612 1.391 . S
C614 C629 1.437 . S
H615 C612 0.929 . S
O616 Gd572 2.545 . S
O616 C631 1.258 . S
O617 Gd572 2.598 1_455 S
O617 Gd573 2.375 . S
O617 C628 1.275 1_455 S
O618 Gd573 2.324 . S
O618 C638 1.254 . S
O619 Gd572 2.429 1_455 S
O619 C638 1.268 . S
O620 Gd572 2.545 . S
O620 C628 1.250 . S
O621 Gd572 2.412 . S
O621 C631 1.252 . S
O622 Gd573 2.545 . S
O622 C640 1.258 . S
O623 Gd572 2.362 1_455 S
O623 Gd573 2.606 . S
O623 C639 1.284 . S
O624 Gd572 2.324 . S
O624 C647 1.254 . S
O625 Gd573 2.429 1_655 S
O625 C647 1.268 . S
O626 Gd573 2.545 . S
O626 C639 1.250 . S
O627 Gd573 2.412 . S
O627 C640 1.252 . S
C628 O617 1.275 1_655 S
C628 O620 1.250 . S
C629 H598 0.929 . S
C629 C614 1.437 . S
C629 C630 1.317 . S
C630 H601 0.930 . S
C630 C606 1.431 . S
C630 C629 1.317 . S
C631 Gd572 2.828 . S
C631 O616 1.258 . S
C631 O621 1.252 . S
C631 C632 1.497 . S
C632 C631 1.497 . S
C632 C633 1.395 . S
C632 C634 1.380 . S
C633 C632 1.395 . S
C633 C636 1.398 . S
C633 H648 0.930 . S
C634 C632 1.380 . S
C634 C635 1.391 . S
C634 H649 0.930 . S
C635 C634 1.391 . S
C635 C637 1.387 . S
C636 C633 1.398 . S
C636 C637 1.380 . S
C636 H650 0.930 . S
C637 C635 1.387 . S
C637 C636 1.380 . S
C637 H651 0.930 . S
C638 O618 1.254 . S
C638 O619 1.268 . S
C639 O623 1.284 . S
C639 O626 1.250 . S
C640 Gd573 2.828 . S
C640 O622 1.258 . S
C640 O627 1.252 . S
C640 C641 1.497 . S
C641 C640 1.497 . S
C641 C642 1.395 . S
C641 C643 1.380 . S
C642 C641 1.395 . S
C642 C645 1.398 . S
C642 H652 0.930 . S
C643 C641 1.380 . S
C643 C644 1.391 . S
C643 H653 0.930 . S
C644 C643 1.391 . S
C644 C646 1.387 . S
C645 C642 1.398 . S
C645 C646 1.380 . S
C645 H654 0.930 . S
C646 C644 1.387 . S
C646 C645 1.380 . S
C646 H655 0.930 . S
C647 O624 1.254 . S
C647 O625 1.268 . S
H648 C633 0.930 . S
H649 C634 0.930 . S
H650 C636 0.930 . S
H651 C637 0.930 . S
H652 C642 0.930 . S
H653 C643 0.930 . S
H654 C645 0.930 . S
H655 C646 0.930 . S
H656 C664 0.950 . S
H657 C669 0.950 . S
H658 C666 0.950 . S
H659 C668 0.950 . S
H660 C670 0.950 . S
H661 C672 0.950 . S
H662 C674 0.950 . S
H663 C675 0.950 . S
C664 H656 0.950 . S
C664 C665 1.386 . S
C664 C666 1.391 . S
C665 C664 1.386 . S
C665 C669 1.393 . S
C666 H658 0.950 . S
C666 C664 1.391 . S
C666 C667 1.400 . S
C667 C666 1.400 . S
C667 C668 1.398 . S
C667 C673 1.491 . S
C668 H659 0.950 . S
C668 C667 1.398 . S
C668 C669 1.391 . S
C669 H657 0.950 . S
C669 C665 1.393 . S
C669 C668 1.391 . S
C670 H660 0.950 . S
C670 C671 1.386 . S
C670 C672 1.391 . S
C671 C670 1.386 . S
C671 C675 1.393 . S
C672 H661 0.950 . S
C672 C670 1.391 . S
C672 C673 1.400 . S
C673 C667 1.491 . S
C673 C672 1.400 . S
C673 C674 1.398 . S
C674 H662 0.950 . S
C674 C673 1.398 . S
C674 C675 1.391 . S
C675 H663 0.950 . S
C675 C671 1.393 . S
C675 C674 1.391 . S
H676 C684 0.950 . S
H677 C689 0.950 . S
H678 C686 0.950 . S
H679 C688 0.950 . S
H680 C690 0.950 . S
H681 C692 0.950 . S
H682 C694 0.950 . S
H683 C695 0.950 . S
C684 H676 0.950 . S
C684 C685 1.386 . S
C684 C686 1.391 . S
C685 C684 1.386 . S
C685 C689 1.393 . S
C686 H678 0.950 . S
C686 C684 1.391 . S
C686 C687 1.400 . S
C687 C686 1.400 . S
C687 C688 1.398 . S
C687 C693 1.491 . S
C688 H679 0.950 . S
C688 C687 1.398 . S
C688 C689 1.391 . S
C689 H677 0.950 . S
C689 C685 1.393 . S
C689 C688 1.391 . S
C690 H680 0.950 . S
C690 C691 1.386 . S
C690 C692 1.391 . S
C691 C690 1.386 . S
C691 C695 1.393 . S
C692 H681 0.950 . S
C692 C690 1.391 . S
C692 C693 1.400 . S
C693 C687 1.491 . S
C693 C692 1.400 . S
C693 C694 1.398 . S
C694 H682 0.950 . S
C694 C693 1.398 . S
C694 C695 1.391 . S
C695 H683 0.950 . S
C695 C691 1.393 . S
C695 C694 1.391 . S
H696 C704 0.950 . S
H697 C709 0.950 . S
H698 C706 0.950 . S
H699 C708 0.950 . S
H700 C710 0.950 . S
H701 C712 0.950 . S
H702 C714 0.950 . S
H703 C715 0.950 . S
C704 H696 0.950 . S
C704 C705 1.386 . S
C704 C706 1.391 . S
C705 C704 1.386 . S
C705 C709 1.393 . S
C706 H698 0.950 . S
C706 C704 1.391 . S
C706 C707 1.400 . S
C707 C706 1.400 . S
C707 C708 1.398 . S
C707 C713 1.491 . S
C708 H699 0.950 . S
C708 C707 1.398 . S
C708 C709 1.391 . S
C709 H697 0.950 . S
C709 C705 1.393 . S
C709 C708 1.391 . S
C710 H700 0.950 . S
C710 C711 1.386 . S
C710 C712 1.391 . S
C711 C710 1.386 . S
C711 C715 1.393 . S
C712 H701 0.950 . S
C712 C710 1.391 . S
C712 C713 1.400 . S
C713 C707 1.491 . S
C713 C712 1.400 . S
C713 C714 1.398 . S
C714 H702 0.950 . S
C714 C713 1.398 . S
C714 C715 1.391 . S
C715 H703 0.950 . S
C715 C711 1.393 . S
C715 C714 1.391 . S
H716 C724 0.950 . S
H717 C729 0.950 . S
H718 C726 0.950 . S
H719 C728 0.950 . S
H720 C730 0.950 1_655 S
H721 C732 0.950 . S
H722 C734 0.950 . S
H723 C735 0.950 . S
C724 H716 0.950 . S
C724 C725 1.386 . S
C724 C726 1.391 . S
C725 C724 1.386 . S
C725 C729 1.393 . S
C726 H718 0.950 . S
C726 C724 1.391 . S
C726 C727 1.400 . S
C727 C726 1.400 . S
C727 C728 1.398 . S
C727 C733 1.491 . S
C728 H719 0.950 . S
C728 C727 1.398 . S
C728 C729 1.391 . S
C729 H717 0.950 . S
C729 C725 1.393 . S
C729 C728 1.391 . S
C730 H720 0.950 1_455 S
C730 C731 1.386 . S
C730 C732 1.391 . S
C731 C730 1.386 . S
C731 C735 1.393 . S
C732 H721 0.950 . S
C732 C730 1.391 . S
C732 C733 1.400 . S
C733 C727 1.491 . S
C733 C732 1.400 . S
C733 C734 1.398 . S
C734 H722 0.950 . S
C734 C733 1.398 . S
C734 C735 1.391 . S
C735 H723 0.950 . S
C735 C731 1.393 . S
C735 C734 1.391 . S
H736 C744 0.950 . S
H737 C749 0.950 . S
H738 C746 0.950 . S
H739 C748 0.950 . S
H740 C750 0.950 . S
H741 C752 0.950 . S
H742 C754 0.950 . S
H743 C755 0.950 . S
C744 H736 0.950 . S
C744 C745 1.386 1_556 S
C744 C746 1.391 . S
C745 C744 1.386 1_554 S
C745 C749 1.393 . S
C746 H738 0.950 . S
C746 C744 1.391 . S
C746 C747 1.400 . S
C747 C746 1.400 . S
C747 C748 1.398 . S
C747 C753 1.491 . S
C748 H739 0.950 . S
C748 C747 1.398 . S
C748 C749 1.391 1_556 S
C749 H737 0.950 . S
C749 C745 1.393 . S
C749 C748 1.391 1_554 S
C750 H740 0.950 . S
C750 C751 1.386 . S
C750 C752 1.391 . S
C751 C750 1.386 . S
C751 C755 1.393 . S
C752 H741 0.950 . S
C752 C750 1.391 . S
C752 C753 1.400 . S
C753 C747 1.491 . S
C753 C752 1.400 . S
C753 C754 1.398 . S
C754 H742 0.950 . S
C754 C753 1.398 . S
C754 C755 1.391 . S
C755 H743 0.950 . S
C755 C751 1.393 . S
C755 C754 1.391 . S
H756 C764 0.950 . S
H757 C769 0.950 . S
H758 C766 0.950 . S
H759 C768 0.950 . S
H760 C770 0.950 . S
H761 C772 0.950 . S
H762 C774 0.950 . S
H763 C775 0.950 . S
C764 H756 0.950 . S
C764 C765 1.386 1_556 S
C764 C766 1.391 . S
C765 C764 1.386 1_554 S
C765 C769 1.393 . S
C766 H758 0.950 . S
C766 C764 1.391 . S
C766 C767 1.400 . S
C767 C766 1.400 . S
C767 C768 1.398 . S
C767 C773 1.491 . S
C768 H759 0.950 . S
C768 C767 1.398 . S
C768 C769 1.391 1_556 S
C769 H757 0.950 . S
C769 C765 1.393 . S
C769 C768 1.391 1_554 S
C770 H760 0.950 . S
C770 C771 1.386 . S
C770 C772 1.391 . S
C771 C770 1.386 . S
C771 C775 1.393 . S
C772 H761 0.950 . S
C772 C770 1.391 . S
C772 C773 1.400 . S
C773 C767 1.491 . S
C773 C772 1.400 . S
C773 C774 1.398 . S
C774 H762 0.950 . S
C774 C773 1.398 . S
C774 C775 1.391 . S
C775 H763 0.950 . S
C775 C771 1.393 . S
C775 C774 1.391 . S
H776 C784 0.950 . S
H777 C789 0.950 . S
H778 C786 0.950 . S
H779 C788 0.950 . S
H780 C790 0.950 . S
H781 C792 0.950 . S
H782 C794 0.950 . S
H783 C795 0.950 . S
C784 H776 0.950 . S
C784 C785 1.386 . S
C784 C786 1.391 1_554 S
C785 C784 1.386 . S
C785 C789 1.393 1_554 S
C786 H778 0.950 . S
C786 C784 1.391 1_556 S
C786 C787 1.400 . S
C787 C786 1.400 . S
C787 C788 1.398 . S
C787 C793 1.491 . S
C788 H779 0.950 . S
C788 C787 1.398 . S
C788 C789 1.391 . S
C789 H777 0.950 . S
C789 C785 1.393 1_556 S
C789 C788 1.391 . S
C790 H780 0.950 . S
C790 C791 1.386 . S
C790 C792 1.391 . S
C791 C790 1.386 . S
C791 C795 1.393 . S
C792 H781 0.950 . S
C792 C790 1.391 . S
C792 C793 1.400 . S
C793 C787 1.491 . S
C793 C792 1.400 . S
C793 C794 1.398 . S
C794 H782 0.950 . S
C794 C793 1.398 . S
C794 C795 1.391 . S
C795 H783 0.950 . S
C795 C791 1.393 . S
C795 C794 1.391 . S
H796 C804 0.950 . S
H797 C809 0.950 . S
H798 C806 0.950 . S
H799 C808 0.950 . S
H800 C810 0.950 . S
H801 C812 0.950 . S
H802 C814 0.950 . S
H803 C815 0.950 . S
C804 H796 0.950 . S
C804 C805 1.386 . S
C804 C806 1.391 1_554 S
C805 C804 1.386 . S
C805 C809 1.393 1_554 S
C806 H798 0.950 . S
C806 C804 1.391 1_556 S
C806 C807 1.400 . S
C807 C806 1.400 . S
C807 C808 1.398 . S
C807 C813 1.491 . S
C808 H799 0.950 . S
C808 C807 1.398 . S
C808 C809 1.391 . S
C809 H797 0.950 . S
C809 C805 1.393 1_556 S
C809 C808 1.391 . S
C810 H800 0.950 . S
C810 C811 1.386 . S
C810 C812 1.391 . S
C811 C810 1.386 . S
C811 C815 1.393 . S
C812 H801 0.950 . S
C812 C810 1.391 . S
C812 C813 1.400 . S
C813 C807 1.491 . S
C813 C812 1.400 . S
C813 C814 1.398 . S
C814 H802 0.950 . S
C814 C813 1.398 . S
C814 C815 1.391 . S
C815 H803 0.950 . S
C815 C811 1.393 . S
C815 C814 1.391 . S
H816 C824 0.950 . S
H817 C829 0.950 . S
H818 C826 0.950 . S
H819 C828 0.950 . S
H820 C830 0.950 . S
H821 C832 0.950 . S
H822 C834 0.950 . S
H823 C835 0.950 1_655 S
C824 H816 0.950 . S
C824 C825 1.386 . S
C824 C826 1.391 . S
C825 C824 1.386 . S
C825 C829 1.393 . S
C826 H818 0.950 . S
C826 C824 1.391 . S
C826 C827 1.400 . S
C827 C826 1.400 . S
C827 C828 1.398 . S
C827 C833 1.491 . S
C828 H819 0.950 . S
C828 C827 1.398 . S
C828 C829 1.391 . S
C829 H817 0.950 . S
C829 C825 1.393 . S
C829 C828 1.391 . S
C830 H820 0.950 . S
C830 C831 1.386 . S
C830 C832 1.391 . S
C831 C830 1.386 . S
C831 C835 1.393 . S
C832 H821 0.950 . S
C832 C830 1.391 . S
C832 C833 1.400 . S
C833 C827 1.491 . S
C833 C832 1.400 . S
C833 C834 1.398 . S
C834 H822 0.950 . S
C834 C833 1.398 . S
C834 C835 1.391 . S
C835 H823 0.950 1_455 S
C835 C831 1.393 . S
C835 C834 1.391 . S
H836 C844 0.950 . S
H837 C849 0.950 . S
H838 C846 0.950 . S
H839 C848 0.950 . S
H840 C850 0.950 . S
H841 C852 0.950 . S
H842 C854 0.950 . S
H843 C855 0.950 . S
C844 H836 0.950 . S
C844 C845 1.386 . S
C844 C846 1.391 . S
C845 C844 1.386 . S
C845 C849 1.393 . S
C846 H838 0.950 . S
C846 C844 1.391 . S
C846 C847 1.400 . S
C847 C846 1.400 . S
C847 C848 1.398 . S
C847 C853 1.491 . S
C848 H839 0.950 . S
C848 C847 1.398 . S
C848 C849 1.391 . S
C849 H837 0.950 . S
C849 C845 1.393 . S
C849 C848 1.391 . S
C850 H840 0.950 . S
C850 C851 1.386 1_565 S
C850 C852 1.391 1_565 S
C851 C850 1.386 1_545 S
C851 C855 1.393 . S
C852 H841 0.950 . S
C852 C850 1.391 1_545 S
C852 C853 1.400 . S
C853 C847 1.491 . S
C853 C852 1.400 . S
C853 C854 1.398 . S
C854 H842 0.950 . S
C854 C853 1.398 . S
C854 C855 1.391 . S
C855 H843 0.950 . S
C855 C851 1.393 . S
C855 C854 1.391 . S
H856 C864 0.950 . S
H857 C869 0.950 . S
H858 C866 0.950 . S
H859 C868 0.950 . S
H860 C870 0.950 . S
H861 C872 0.950 . S
H862 C874 0.950 . S
H863 C875 0.950 . S
C864 H856 0.950 . S
C864 C865 1.386 . S
C864 C866 1.391 . S
C865 C864 1.386 . S
C865 C869 1.393 . S
C866 H858 0.950 . S
C866 C864 1.391 . S
C866 C867 1.400 . S
C867 C866 1.400 . S
C867 C868 1.398 . S
C867 C873 1.491 . S
C868 H859 0.950 . S
C868 C867 1.398 . S
C868 C869 1.391 . S
C869 H857 0.950 . S
C869 C865 1.393 . S
C869 C868 1.391 . S
C870 H860 0.950 . S
C870 C871 1.386 . S
C870 C872 1.391 . S
C871 C870 1.386 . S
C871 C875 1.393 . S
C872 H861 0.950 . S
C872 C870 1.391 . S
C872 C873 1.400 . S
C873 C867 1.491 . S
C873 C872 1.400 . S
C873 C874 1.398 . S
C874 H862 0.950 . S
C874 C873 1.398 . S
C874 C875 1.391 . S
C875 H863 0.950 . S
C875 C871 1.393 . S
C875 C874 1.391 . S
H876 C884 0.950 . S
H877 C889 0.950 . S
H878 C886 0.950 . S
H879 C888 0.950 . S
H880 C890 0.950 . S
H881 C892 0.950 . S
H882 C894 0.950 . S
H883 C895 0.950 . S
C884 H876 0.950 . S
C884 C885 1.386 . S
C884 C886 1.391 . S
C885 C884 1.386 . S
C885 C889 1.393 . S
C886 H878 0.950 . S
C886 C884 1.391 . S
C886 C887 1.400 . S
C887 C886 1.400 . S
C887 C888 1.398 . S
C887 C893 1.491 . S
C888 H879 0.950 . S
C888 C887 1.398 . S
C888 C889 1.391 . S
C889 H877 0.950 . S
C889 C885 1.393 . S
C889 C888 1.391 . S
C890 H880 0.950 . S
C890 C891 1.386 . S
C890 C892 1.391 . S
C891 C890 1.386 . S
C891 C895 1.393 . S
C892 H881 0.950 . S
C892 C890 1.391 . S
C892 C893 1.400 . S
C893 C887 1.491 . S
C893 C892 1.400 . S
C893 C894 1.398 . S
C894 H882 0.950 . S
C894 C893 1.398 . S
C894 C895 1.391 . S
C895 H883 0.950 . S
C895 C891 1.393 . S
C895 C894 1.391 . S
H896 C904 0.950 . S
H897 C909 0.950 . S
H898 C906 0.950 . S
H899 C908 0.950 . S
H900 C910 0.950 . S
H901 C912 0.950 . S
H902 C914 0.960 . S
H903 C915 0.950 . S
C904 H896 0.950 . S
C904 C905 1.386 . S
C904 C906 1.391 . S
C905 C904 1.386 . S
C905 C909 1.393 . S
C906 H898 0.950 . S
C906 C904 1.391 . S
C906 C907 1.400 . S
C907 C906 1.400 . S
C907 C908 1.398 . S
C907 C913 1.491 . S
C908 H899 0.950 . S
C908 C907 1.398 . S
C908 C909 1.391 . S
C909 H897 0.950 . S
C909 C905 1.393 . S
C909 C908 1.391 . S
C910 H900 0.950 . S
C910 C911 1.386 1_655 S
C910 C912 1.391 . S
C911 C910 1.386 1_455 S
C911 C915 1.393 . S
C912 H901 0.950 . S
C912 C910 1.391 . S
C912 C913 1.400 . S
C913 C907 1.491 . S
C913 C912 1.400 . S
C913 C914 1.398 . S
C914 H902 0.960 . S
C914 C913 1.398 . S
C914 C915 1.391 1_655 S
C915 H903 0.950 . S
C915 C911 1.393 . S
C915 C914 1.391 1_455 S
H916 C924 0.950 . S
H917 C929 0.950 . S
H918 C926 0.950 . S
H919 C928 0.950 . S
H920 C930 0.950 . S
H921 C932 0.950 . S
H922 C934 0.950 . S
H923 C935 0.950 . S
C924 H916 0.950 . S
C924 C925 1.386 . S
C924 C926 1.391 . S
C925 C924 1.386 . S
C925 C929 1.393 . S
C926 H918 0.950 . S
C926 C924 1.391 . S
C926 C927 1.400 . S
C927 C926 1.400 . S
C927 C928 1.398 . S
C927 C933 1.491 . S
C928 H919 0.950 . S
C928 C927 1.398 . S
C928 C929 1.391 . S
C929 H917 0.950 . S
C929 C925 1.393 . S
C929 C928 1.391 . S
C930 H920 0.950 . S
C930 C931 1.386 1_565 S
C930 C932 1.391 . S
C931 C930 1.386 1_545 S
C931 C935 1.393 . S
C932 H921 0.950 . S
C932 C930 1.391 . S
C932 C933 1.400 . S
C933 C927 1.491 . S
C933 C932 1.400 . S
C933 C934 1.398 . S
C934 H922 0.950 . S
C934 C933 1.398 . S
C934 C935 1.391 1_565 S
C935 H923 0.950 . S
C935 C931 1.393 . S
C935 C934 1.391 1_545 S
H936 C944 0.950 . S
H937 C949 0.950 . S
H938 C946 0.950 . S
H939 C948 0.950 . S
H940 C950 0.950 . S
H941 C952 0.950 . S
H942 C954 0.950 . S
H943 C955 0.950 . S
C944 H936 0.950 . S
C944 C945 1.386 . S
C944 C946 1.391 . S
C945 C944 1.386 . S
C945 C949 1.393 . S
C946 H938 0.950 . S
C946 C944 1.391 . S
C946 C947 1.400 . S
C947 C946 1.400 . S
C947 C948 1.398 . S
C947 C953 1.491 . S
C948 H939 0.950 . S
C948 C947 1.398 . S
C948 C949 1.391 . S
C949 H937 0.950 . S
C949 C945 1.393 . S
C949 C948 1.391 . S
C950 H940 0.950 . S
C950 C951 1.386 . S
C950 C952 1.391 . S
C951 C950 1.386 . S
C951 C955 1.393 . S
C952 H941 0.950 . S
C952 C950 1.391 . S
C952 C953 1.400 . S
C953 C947 1.491 . S
C953 C952 1.400 . S
C953 C954 1.398 . S
C954 H942 0.950 . S
C954 C953 1.398 . S
C954 C955 1.391 . S
C955 H943 0.950 . S
C955 C951 1.393 . S
C955 C954 1.391 . S
H956 C964 0.950 . S
H957 C969 0.950 . S
H958 C966 0.950 . S
H959 C968 0.950 . S
H960 C970 0.950 . S
H961 C972 0.950 . S
H962 C974 0.950 . S
H963 C975 0.950 . S
C964 H956 0.950 . S
C964 C965 1.386 . S
C964 C966 1.391 . S
C965 C964 1.386 . S
C965 C969 1.393 . S
C966 H958 0.950 . S
C966 C964 1.391 . S
C966 C967 1.400 . S
C967 C966 1.400 . S
C967 C968 1.398 . S
C967 C973 1.491 . S
C968 H959 0.950 . S
C968 C967 1.398 . S
C968 C969 1.391 . S
C969 H957 0.950 . S
C969 C965 1.393 . S
C969 C968 1.391 . S
C970 H960 0.950 . S
C970 C971 1.386 . S
C970 C972 1.391 . S
C971 C970 1.386 . S
C971 C975 1.393 . S
C972 H961 0.950 . S
C972 C970 1.391 . S
C972 C973 1.400 . S
C973 C967 1.491 . S
C973 C972 1.400 . S
C973 C974 1.398 . S
C974 H962 0.950 . S
C974 C973 1.398 . S
C974 C975 1.391 . S
C975 H963 0.950 . S
C975 C971 1.393 . S
C975 C974 1.391 . S
H976 C984 0.950 . S
H977 C989 0.950 . S
H978 C986 0.950 . S
H979 C988 0.950 . S
H980 C990 0.950 . S
H981 C992 0.950 . S
H982 C994 0.950 . S
H983 C995 0.950 . S
C984 H976 0.950 . S
C984 C985 1.386 . S
C984 C986 1.391 . S
C985 C984 1.386 . S
C985 C989 1.393 . S
C986 H978 0.950 . S
C986 C984 1.391 . S
C986 C987 1.400 . S
C987 C986 1.400 . S
C987 C988 1.398 . S
C987 C993 1.491 . S
C988 H979 0.950 . S
C988 C987 1.398 . S
C988 C989 1.391 . S
C989 H977 0.950 . S
C989 C985 1.393 . S
C989 C988 1.391 . S
C990 H980 0.950 . S
C990 C991 1.386 . S
C990 C992 1.391 . S
C991 C990 1.386 . S
C991 C995 1.393 . S
C992 H981 0.950 . S
C992 C990 1.391 . S
C992 C993 1.400 . S
C993 C987 1.491 . S
C993 C992 1.400 . S
C993 C994 1.398 . S
C994 H982 0.950 . S
C994 C993 1.398 . S
C994 C995 1.391 . S
C995 H983 0.950 . S
C995 C991 1.393 . S
C995 C994 1.391 . S
H996 C1004 0.950 . S
H997 C1009 0.950 . S
H998 C1006 0.950 . S
H999 C1008 0.950 . S
H1000 C1010 0.950 . S
H1001 C1012 0.950 . S
H1002 C1014 0.950 . S
H1003 C1015 0.950 . S
C1004 H996 0.950 . S
C1004 C1005 1.386 . S
C1004 C1006 1.391 . S
C1005 C1004 1.386 . S
C1005 C1009 1.393 . S
C1006 H998 0.950 . S
C1006 C1004 1.391 . S
C1006 C1007 1.400 . S
C1007 C1006 1.400 . S
C1007 C1008 1.398 . S
C1007 C1013 1.491 . S
C1008 H999 0.950 . S
C1008 C1007 1.398 . S
C1008 C1009 1.391 . S
C1009 H997 0.950 . S
C1009 C1005 1.393 . S
C1009 C1008 1.391 . S
C1010 H1000 0.950 . S
C1010 C1011 1.386 . S
C1010 C1012 1.391 . S
C1011 C1010 1.386 . S
C1011 C1015 1.393 . S
C1012 H1001 0.950 . S
C1012 C1010 1.391 . S
C1012 C1013 1.400 . S
C1013 C1007 1.491 . S
C1013 C1012 1.400 . S
C1013 C1014 1.398 . S
C1014 H1002 0.950 . S
C1014 C1013 1.398 . S
C1014 C1015 1.391 . S
C1015 H1003 0.950 . S
C1015 C1011 1.393 . S
C1015 C1014 1.391 . S
H1016 C1024 0.950 . S
H1017 C1029 0.950 . S
H1018 C1026 0.950 . S
H1019 C1028 0.950 . S
H1020 C1030 0.950 . S
H1021 C1032 0.950 . S
H1022 C1034 0.950 . S
H1023 C1035 0.950 . S
C1024 H1016 0.950 . S
C1024 C1025 1.386 . S
C1024 C1026 1.391 . S
C1025 C1024 1.386 . S
C1025 C1029 1.393 . S
C1026 H1018 0.950 . S
C1026 C1024 1.391 . S
C1026 C1027 1.400 . S
C1027 C1026 1.400 . S
C1027 C1028 1.398 . S
C1027 C1033 1.491 . S
C1028 H1019 0.950 . S
C1028 C1027 1.398 . S
C1028 C1029 1.391 . S
C1029 H1017 0.950 . S
C1029 C1025 1.393 . S
C1029 C1028 1.391 . S
C1030 H1020 0.950 . S
C1030 C1031 1.386 . S
C1030 C1032 1.391 . S
C1031 C1030 1.386 . S
C1031 C1035 1.393 . S
C1032 H1021 0.950 . S
C1032 C1030 1.391 . S
C1032 C1033 1.400 . S
C1033 C1027 1.491 . S
C1033 C1032 1.400 . S
C1033 C1034 1.398 . S
C1034 H1022 0.950 . S
C1034 C1033 1.398 . S
C1034 C1035 1.391 . S
C1035 H1023 0.950 . S
C1035 C1031 1.393 . S
C1035 C1034 1.391 . S
H1036 C1044 0.950 . S
H1037 C1049 0.950 . S
H1038 C1046 0.950 . S
H1039 C1048 0.950 . S
H1040 C1050 0.950 . S
H1041 C1052 0.950 . S
H1042 C1054 0.950 . S
H1043 C1055 0.950 . S
C1044 H1036 0.950 . S
C1044 C1045 1.386 . S
C1044 C1046 1.391 . S
C1045 C1044 1.386 . S
C1045 C1049 1.393 . S
C1046 H1038 0.950 . S
C1046 C1044 1.391 . S
C1046 C1047 1.400 . S
C1047 C1046 1.400 . S
C1047 C1048 1.398 . S
C1047 C1053 1.491 . S
C1048 H1039 0.950 . S
C1048 C1047 1.398 . S
C1048 C1049 1.391 . S
C1049 H1037 0.950 . S
C1049 C1045 1.393 . S
C1049 C1048 1.391 . S
C1050 H1040 0.950 . S
C1050 C1051 1.386 . S
C1050 C1052 1.391 . S
C1051 C1050 1.386 . S
C1051 C1055 1.393 . S
C1052 H1041 0.950 . S
C1052 C1050 1.391 . S
C1052 C1053 1.400 . S
C1053 C1047 1.491 . S
C1053 C1052 1.400 . S
C1053 C1054 1.398 . S
C1054 H1042 0.950 . S
C1054 C1053 1.398 . S
C1054 C1055 1.391 . S
C1055 H1043 0.950 . S
C1055 C1051 1.393 . S
C1055 C1054 1.391 . S
H1056 C1064 0.950 . S
H1057 C1069 0.950 . S
H1058 C1066 0.950 . S
H1059 C1068 0.950 . S
H1060 C1070 0.950 1_455 S
H1061 C1072 0.950 . S
H1062 C1074 0.950 . S
H1063 C1075 0.950 . S
C1064 H1056 0.950 . S
C1064 C1065 1.386 . S
C1064 C1066 1.391 . S
C1065 C1064 1.386 . S
C1065 C1069 1.393 . S
C1066 H1058 0.950 . S
C1066 C1064 1.391 . S
C1066 C1067 1.400 . S
C1067 C1066 1.400 . S
C1067 C1068 1.398 . S
C1067 C1073 1.491 . S
C1068 H1059 0.950 . S
C1068 C1067 1.398 . S
C1068 C1069 1.391 . S
C1069 H1057 0.950 . S
C1069 C1065 1.393 . S
C1069 C1068 1.391 . S
C1070 H1060 0.950 1_655 S
C1070 C1071 1.386 . S
C1070 C1072 1.391 . S
C1071 C1070 1.386 . S
C1071 C1075 1.393 . S
C1072 H1061 0.950 . S
C1072 C1070 1.391 . S
C1072 C1073 1.400 . S
C1073 C1067 1.491 . S
C1073 C1072 1.400 . S
C1073 C1074 1.398 . S
C1074 H1062 0.950 . S
C1074 C1073 1.398 . S
C1074 C1075 1.391 . S
C1075 H1063 0.950 . S
C1075 C1071 1.393 . S
C1075 C1074 1.391 . S
H1076 C1084 0.950 . S
H1077 C1089 0.950 . S
H1078 C1086 0.950 . S
H1079 C1088 0.950 . S
H1080 C1090 0.950 1_545 S
H1081 C1092 0.950 . S
H1082 C1094 0.950 . S
H1083 C1095 0.950 . S
C1084 H1076 0.950 . S
C1084 C1085 1.386 . S
C1084 C1086 1.391 . S
C1085 C1084 1.386 . S
C1085 C1089 1.393 . S
C1086 H1078 0.950 . S
C1086 C1084 1.391 . S
C1086 C1087 1.400 . S
C1087 C1086 1.400 . S
C1087 C1088 1.398 . S
C1087 C1093 1.491 . S
C1088 H1079 0.950 . S
C1088 C1087 1.398 . S
C1088 C1089 1.391 . S
C1089 H1077 0.950 . S
C1089 C1085 1.393 . S
C1089 C1088 1.391 . S
C1090 H1080 0.950 1_565 S
C1090 C1091 1.386 . S
C1090 C1092 1.391 . S
C1091 C1090 1.386 . S
C1091 C1095 1.393 . S
C1092 H1081 0.950 . S
C1092 C1090 1.391 . S
C1092 C1093 1.400 . S
C1093 C1087 1.491 . S
C1093 C1092 1.400 . S
C1093 C1094 1.398 . S
C1094 H1082 0.950 . S
C1094 C1093 1.398 . S
C1094 C1095 1.391 . S
C1095 H1083 0.950 . S
C1095 C1091 1.393 . S
C1095 C1094 1.391 . S
H1096 C1104 0.950 . S
H1097 C1109 0.950 . S
H1098 C1106 0.950 . S
H1099 C1108 0.950 . S
H1100 C1110 0.950 . S
H1101 C1112 0.950 . S
H1102 C1114 0.950 . S
H1103 C1115 0.950 . S
C1104 H1096 0.950 . S
C1104 C1105 1.386 . S
C1104 C1106 1.391 . S
C1105 C1104 1.386 . S
C1105 C1109 1.393 . S
C1106 H1098 0.950 . S
C1106 C1104 1.391 . S
C1106 C1107 1.400 . S
C1107 C1106 1.400 . S
C1107 C1108 1.398 . S
C1107 C1113 1.491 . S
C1108 H1099 0.950 . S
C1108 C1107 1.398 . S
C1108 C1109 1.391 . S
C1109 H1097 0.950 . S
C1109 C1105 1.393 . S
C1109 C1108 1.391 . S
C1110 H1100 0.950 . S
C1110 C1111 1.386 . S
C1110 C1112 1.391 . S
C1111 C1110 1.386 . S
C1111 C1115 1.393 . S
C1112 H1101 0.950 . S
C1112 C1110 1.391 . S
C1112 C1113 1.400 . S
C1113 C1107 1.491 . S
C1113 C1112 1.400 . S
C1113 C1114 1.398 . S
C1114 H1102 0.950 . S
C1114 C1113 1.398 . S
C1114 C1115 1.391 . S
C1115 H1103 0.950 . S
C1115 C1111 1.393 . S
C1115 C1114 1.391 . S
H1116 C1124 0.950 . S
H1117 C1129 0.950 . S
H1118 C1126 0.950 . S
H1119 C1128 0.950 . S
H1120 C1130 0.950 . S
H1121 C1132 0.950 . S
H1122 C1134 0.950 . S
H1123 C1135 0.950 . S
C1124 H1116 0.950 . S
C1124 C1125 1.386 . S
C1124 C1126 1.391 . S
C1125 C1124 1.386 . S
C1125 C1129 1.393 . S
C1126 H1118 0.950 . S
C1126 C1124 1.391 . S
C1126 C1127 1.400 . S
C1127 C1126 1.400 . S
C1127 C1128 1.398 . S
C1127 C1133 1.491 . S
C1128 H1119 0.950 . S
C1128 C1127 1.398 . S
C1128 C1129 1.391 . S
C1129 H1117 0.950 . S
C1129 C1125 1.393 . S
C1129 C1128 1.391 . S
C1130 H1120 0.950 . S
C1130 C1131 1.386 . S
C1130 C1132 1.391 . S
C1131 C1130 1.386 . S
C1131 C1135 1.393 . S
C1132 H1121 0.950 . S
C1132 C1130 1.391 . S
C1132 C1133 1.400 . S
C1133 C1127 1.491 . S
C1133 C1132 1.400 . S
C1133 C1134 1.398 . S
C1134 H1122 0.950 . S
C1134 C1133 1.398 . S
C1134 C1135 1.391 . S
C1135 H1123 0.950 . S
C1135 C1131 1.393 . S
C1135 C1134 1.391 . S
C665 C255 2.383 . S
C671 C395 2.458 . S
C691 C479 2.475 . S
C685 C295 2.380 . S
C711 C555 2.379 . S
C705 C175 2.512 . S
C731 C639 2.368 . S
C725 C215 2.502 . S
C751 C386 2.456 1_565 S
C745 C95 2.357 . S
C765 C135 2.369 . S
C771 C470 2.469 . S
C785 C15 2.499 . S
C791 C544 2.372 . S
C805 C55 2.480 . S
C811 C628 2.351 . S
C831 C383 0.703 1_455 S
C825 C221 0.673 . S
C851 C467 0.634 1_545 S
C845 C261 0.639 . S
C871 C560 0.636 . S
C865 C301 0.607 . S
C885 C181 0.669 . S
C891 C644 0.686 . S
C905 C61 0.756 . S
C911 C392 0.684 . S
C931 C476 0.605 . S
C925 C101 0.725 . S
C951 C551 0.623 . S
C945 C141 0.634 . S
C965 C21 0.661 . S
C971 C635 0.681 . S
C985 C202 3.101 . S
C991 C376 3.154 . S
C1005 C242 3.037 . S
C1011 C460 3.097 . S
C1031 C554 3.197 . S
C1025 C282 2.928 . S
C1051 C638 3.236 . S
C1045 C162 2.973 . S
C1065 C42 3.024 . S
C1071 C387 3.153 . S
C1091 C471 3.114 . S
C1085 C82 2.982 . S
C1111 C563 3.199 . S
C1105 C122 2.853 . S
C1125 C2 2.886 . S
C1131 C647 3.228 . S
