# Generated by pormake.
# Topology myd, (4,6)-cn, num edge types: 1
# Building blocks:
#     Node 0, Type 0, BuildingBlock: KOZSID_clean_sbu_0, # of connection points: 4
#     Node 1, Type 0, BuildingBlock: KOZSID_clean_sbu_0, # of connection points: 4
#     Node 2, Type 0, BuildingBlock: KOZSID_clean_sbu_0, # of connection points: 4
#     Node 3, Type 0, BuildingBlock: KOZSID_clean_sbu_0, # of connection points: 4
#     Node 4, Type 0, BuildingBlock: KOZSID_clean_sbu_0, # of connection points: 4
#     Node 5, Type 0, BuildingBlock: KOZSID_clean_sbu_0, # of connection points: 4
#     Node 6, Type 0, BuildingBlock: KOZSID_clean_sbu_0, # of connection points: 4
#     Node 7, Type 0, BuildingBlock: KOZSID_clean_sbu_0, # of connection points: 4
#     Node 8, Type 0, BuildingBlock: KOZSID_clean_sbu_0, # of connection points: 4
#     Node 9, Type 0, BuildingBlock: KOZSID_clean_sbu_0, # of connection points: 4
#     Node 10, Type 0, BuildingBlock: KOZSID_clean_sbu_0, # of connection points: 4
#     Node 11, Type 0, BuildingBlock: KOZSID_clean_sbu_0, # of connection points: 4
#     Node 12, Type 1, BuildingBlock: CIFDUS_clean_sbu_1, # of connection points: 6
#     Node 13, Type 1, BuildingBlock: CIFDUS_clean_sbu_1, # of connection points: 6
#     Node 14, Type 1, BuildingBlock: CIFDUS_clean_sbu_1, # of connection points: 6
#     Node 15, Type 1, BuildingBlock: CIFDUS_clean_sbu_1, # of connection points: 6
#     Node 16, Type 1, BuildingBlock: CIFDUS_clean_sbu_1, # of connection points: 6
#     Node 17, Type 1, BuildingBlock: CIFDUS_clean_sbu_1, # of connection points: 6
#     Node 18, Type 1, BuildingBlock: CIFDUS_clean_sbu_1, # of connection points: 6
#     Node 19, Type 1, BuildingBlock: CIFDUS_clean_sbu_1, # of connection points: 6
#     Edge 20, Type (0, 1), BuildingBlock: UVAHIK_clean_linker_0, # of connection points: 2
#     Edge 21, Type (0, 1), BuildingBlock: UVAHIK_clean_linker_0, # of connection points: 2
#     Edge 22, Type (0, 1), BuildingBlock: UVAHIK_clean_linker_0, # of connection points: 2
#     Edge 23, Type (0, 1), BuildingBlock: UVAHIK_clean_linker_0, # of connection points: 2
#     Edge 24, Type (0, 1), BuildingBlock: UVAHIK_clean_linker_0, # of connection points: 2
#     Edge 25, Type (0, 1), BuildingBlock: UVAHIK_clean_linker_0, # of connection points: 2
#     Edge 26, Type (0, 1), BuildingBlock: UVAHIK_clean_linker_0, # of connection points: 2
#     Edge 27, Type (0, 1), BuildingBlock: UVAHIK_clean_linker_0, # of connection points: 2
#     Edge 28, Type (0, 1), BuildingBlock: UVAHIK_clean_linker_0, # of connection points: 2
#     Edge 29, Type (0, 1), BuildingBlock: UVAHIK_clean_linker_0, # of connection points: 2
#     Edge 30, Type (0, 1), BuildingBlock: UVAHIK_clean_linker_0, # of connection points: 2
#     Edge 31, Type (0, 1), BuildingBlock: UVAHIK_clean_linker_0, # of connection points: 2
#     Edge 32, Type (0, 1), BuildingBlock: UVAHIK_clean_linker_0, # of connection points: 2
#     Edge 33, Type (0, 1), BuildingBlock: UVAHIK_clean_linker_0, # of connection points: 2
#     Edge 34, Type (0, 1), BuildingBlock: UVAHIK_clean_linker_0, # of connection points: 2
#     Edge 35, Type (0, 1), BuildingBlock: UVAHIK_clean_linker_0, # of connection points: 2
#     Edge 36, Type (0, 1), BuildingBlock: UVAHIK_clean_linker_0, # of connection points: 2
#     Edge 37, Type (0, 1), BuildingBlock: UVAHIK_clean_linker_0, # of connection points: 2
#     Edge 38, Type (0, 1), BuildingBlock: UVAHIK_clean_linker_0, # of connection points: 2
#     Edge 39, Type (0, 1), BuildingBlock: UVAHIK_clean_linker_0, # of connection points: 2
#     Edge 40, Type (0, 1), BuildingBlock: UVAHIK_clean_linker_0, # of connection points: 2
#     Edge 41, Type (0, 1), BuildingBlock: UVAHIK_clean_linker_0, # of connection points: 2
#     Edge 42, Type (0, 1), BuildingBlock: UVAHIK_clean_linker_0, # of connection points: 2
#     Edge 43, Type (0, 1), BuildingBlock: UVAHIK_clean_linker_0, # of connection points: 2
#     Edge 44, Type (0, 1), BuildingBlock: UVAHIK_clean_linker_0, # of connection points: 2
#     Edge 45, Type (0, 1), BuildingBlock: UVAHIK_clean_linker_0, # of connection points: 2
#     Edge 46, Type (0, 1), BuildingBlock: UVAHIK_clean_linker_0, # of connection points: 2
#     Edge 47, Type (0, 1), BuildingBlock: UVAHIK_clean_linker_0, # of connection points: 2
#     Edge 48, Type (0, 1), BuildingBlock: UVAHIK_clean_linker_0, # of connection points: 2
#     Edge 49, Type (0, 1), BuildingBlock: UVAHIK_clean_linker_0, # of connection points: 2
#     Edge 50, Type (0, 1), BuildingBlock: UVAHIK_clean_linker_0, # of connection points: 2
#     Edge 51, Type (0, 1), BuildingBlock: UVAHIK_clean_linker_0, # of connection points: 2
#     Edge 52, Type (0, 1), BuildingBlock: UVAHIK_clean_linker_0, # of connection points: 2
#     Edge 53, Type (0, 1), BuildingBlock: UVAHIK_clean_linker_0, # of connection points: 2
#     Edge 54, Type (0, 1), BuildingBlock: UVAHIK_clean_linker_0, # of connection points: 2
#     Edge 55, Type (0, 1), BuildingBlock: UVAHIK_clean_linker_0, # of connection points: 2
#     Edge 56, Type (0, 1), BuildingBlock: UVAHIK_clean_linker_0, # of connection points: 2
#     Edge 57, Type (0, 1), BuildingBlock: UVAHIK_clean_linker_0, # of connection points: 2
#     Edge 58, Type (0, 1), BuildingBlock: UVAHIK_clean_linker_0, # of connection points: 2
#     Edge 59, Type (0, 1), BuildingBlock: UVAHIK_clean_linker_0, # of connection points: 2
#     Edge 60, Type (0, 1), BuildingBlock: UVAHIK_clean_linker_0, # of connection points: 2
#     Edge 61, Type (0, 1), BuildingBlock: UVAHIK_clean_linker_0, # of connection points: 2
#     Edge 62, Type (0, 1), BuildingBlock: UVAHIK_clean_linker_0, # of connection points: 2
#     Edge 63, Type (0, 1), BuildingBlock: UVAHIK_clean_linker_0, # of connection points: 2
#     Edge 64, Type (0, 1), BuildingBlock: UVAHIK_clean_linker_0, # of connection points: 2
#     Edge 65, Type (0, 1), BuildingBlock: UVAHIK_clean_linker_0, # of connection points: 2
#     Edge 66, Type (0, 1), BuildingBlock: UVAHIK_clean_linker_0, # of connection points: 2
#     Edge 67, Type (0, 1), BuildingBlock: UVAHIK_clean_linker_0, # of connection points: 2
# Relax obj value: 0.181
# Max RMSD: 0.187
# Mean RMSD: 0.136
data_MOF--net-myd--node1-KOZSID_clean_sbu_0--node2-CIFDUS_clean_sbu_1--edge1-UVAHIK_clean_linker_0
_symmetry_space_group_name_H-M    P1
_symmetry_Int_Tables_number       1
_symmetry_cell_setting            triclinic
loop_
_symmetry_equiv_pos_as_xyz
'x, y, z'
_cell_length_a     63.161674
_cell_length_b     63.989058
_cell_length_c     62.899927
_cell_angle_alpha  91.952442
_cell_angle_beta   92.010241
_cell_angle_gamma 93.536945
loop_
_atom_site_label
_atom_site_type_symbol
_atom_site_fract_x
_atom_site_fract_y
_atom_site_fract_z
_atom_type_partial_charge
C0 C 0.00648 0.29525 0.33038 0.0
C1 C 0.98545 0.29728 0.33533 0.0
C2 C 0.974 0.28057 0.32565 0.0
C3 C 0.98863 0.26928 0.31546 0.0
N4 N 0.00884 0.27728 0.31876 0.0
Co5 Co 0.0347 0.26762 0.3047 0.0
N6 N 0.0173 0.24735 0.28528 0.0
C7 C 0.99625 0.2423 0.28625 0.0
C8 C 0.98865 0.22774 0.27093 0.0
C9 C 0.00591 0.22309 0.25961 0.0
C10 C 0.02313 0.23515 0.26873 0.0
N11 N 0.06055 0.25899 0.28992 0.0
C12 C 0.06236 0.24596 0.27271 0.0
C13 C 0.08339 0.24463 0.26743 0.0
C14 C 0.09529 0.25727 0.28186 0.0
C15 C 0.08088 0.26561 0.29501 0.0
N16 N 0.05183 0.28796 0.32442 0.0
C17 C 0.07324 0.28991 0.32668 0.0
C18 C 0.08056 0.30718 0.33891 0.0
C19 C 0.06289 0.31713 0.34427 0.0
C20 C 0.04554 0.3052 0.33526 0.0
N21 N 0.03766 0.2442 0.32508 0.0
C22 C 0.04069 0.20386 0.34242 0.0
C23 C 0.05884 0.21618 0.33756 0.0
C24 C 0.05701 0.23624 0.32946 0.0
C25 C 0.02121 0.21303 0.34029 0.0
C26 C 0.02012 0.23304 0.33202 0.0
N27 N 0.03181 0.28987 0.28412 0.0
C28 C 0.04708 0.31853 0.26455 0.0
C29 C 0.02778 0.32016 0.25353 0.0
C30 C 0.01046 0.30681 0.25819 0.0
C31 C 0.01277 0.29191 0.27356 0.0
C32 C 0.04878 0.30325 0.27975 0.0
H33 H 0.99905 0.28199 0.27655 0.0
H34 H 0.06394 0.30232 0.28763 0.0
H35 H 0.07154 0.24473 0.32646 0.0
H36 H 0.00473 0.23877 0.33095 0.0
C37 C 0.98374 0.25291 0.30043 0.0
C38 C 0.02348 0.31139 0.33591 0.0
C39 C 0.0447 0.23421 0.26127 0.0
C40 C 0.0858 0.27936 0.3125 0.0
H41 H 0.97896 0.31001 0.34421 0.0
H42 H 0.95691 0.27774 0.32497 0.0
H43 H 0.97243 0.22157 0.26803 0.0
H44 H 0.0058 0.21211 0.24613 0.0
H45 H 0.08949 0.23535 0.25459 0.0
H46 H 0.11239 0.26 0.28271 0.0
H47 H 0.09689 0.31311 0.34166 0.0
H48 H 0.06312 0.33216 0.35263 0.0
H49 H 0.07446 0.21036 0.3399 0.0
H50 H 0.00661 0.20453 0.34427 0.0
H51 H 0.06085 0.32864 0.26111 0.0
H52 H 0.99528 0.30773 0.24981 0.0
C53 C 0.9902 0.72976 0.13171 0.0
C54 C 0.96974 0.72585 0.12313 0.0
C55 C 0.95738 0.7394 0.13341 0.0
C56 C 0.971 0.75071 0.14755 0.0
N57 N 0.9914 0.7455 0.14664 0.0
Co58 Co 0.01643 0.75727 0.16468 0.0
N59 N 0.99801 0.7759 0.18111 0.0
C60 C 0.97674 0.77717 0.17859 0.0
C61 C 0.96864 0.79171 0.19199 0.0
C62 C 0.98576 0.80051 0.20354 0.0
C63 C 0.00343 0.79085 0.19638 0.0
N64 N 0.04146 0.76908 0.18271 0.0
C65 C 0.04275 0.78491 0.19762 0.0
C66 C 0.06344 0.78927 0.20545 0.0
C67 C 0.0757 0.77572 0.19507 0.0
C68 C 0.06188 0.76396 0.18151 0.0
N69 N 0.03481 0.73877 0.14805 0.0
C70 C 0.05608 0.73762 0.15028 0.0
C71 C 0.06401 0.72286 0.13697 0.0
C72 C 0.04672 0.71377 0.12583 0.0
C73 C 0.02923 0.72363 0.13303 0.0
N74 N 0.02158 0.77995 0.14439 0.0
C75 C 0.02973 0.81692 0.12232 0.0
C76 C 0.04618 0.8044 0.12803 0.0
C77 C 0.04176 0.78602 0.1388 0.0
C78 C 0.00897 0.8098 0.12641 0.0
C79 C 0.00529 0.79135 0.13723 0.0
N80 N 0.01134 0.73473 0.18529 0.0
C81 C 0.0246 0.70844 0.20828 0.0
C82 C 0.00456 0.70466 0.21657 0.0
C83 C 0.98784 0.71562 0.20841 0.0
C84 C 0.99149 0.73026 0.19274 0.0
C85 C 0.02765 0.72351 0.19286 0.0
H86 H 0.97803 0.73792 0.18707 0.0
H87 H 0.04339 0.72603 0.18752 0.0
H88 H 0.05503 0.77738 0.14299 0.0
H89 H 0.98918 0.78707 0.14029 0.0
C90 C 0.96494 0.76531 0.16277 0.0
C91 C 0.00752 0.71692 0.12653 0.0
C92 C 0.02503 0.79679 0.20421 0.0
C93 C 0.06787 0.7494 0.16617 0.0
H94 H 0.96428 0.71395 0.11121 0.0
H95 H 0.94039 0.74038 0.13135 0.0
H96 H 0.9523 0.79575 0.1929 0.0
H97 H 0.98528 0.81291 0.21561 0.0
H98 H 0.06917 0.80137 0.21705 0.0
H99 H 0.09276 0.77504 0.19664 0.0
H100 H 0.0803 0.71865 0.13607 0.0
H101 H 0.04687 0.70089 0.11424 0.0
H102 H 0.06248 0.80894 0.12457 0.0
H103 H 0.99563 0.81888 0.12219 0.0
H104 H 0.03804 0.70031 0.21417 0.0
H105 H 0.97196 0.71294 0.21415 0.0
C106 C 0.33803 0.98765 0.26698 0.0
C107 C 0.34226 0.96693 0.26995 0.0
C108 C 0.33403 0.95574 0.25235 0.0
C109 C 0.32519 0.97018 0.23969 0.0
N110 N 0.32783 0.99004 0.24789 0.0
Co111 Co 0.31436 0.01536 0.23695 0.0
N112 N 0.29669 0.99808 0.21497 0.0
C113 C 0.29758 0.97733 0.21052 0.0
C114 C 0.28347 0.96979 0.19462 0.0
C115 C 0.27293 0.98673 0.18855 0.0
C116 C 0.28124 0.00371 0.20118 0.0
N117 N 0.30058 0.04073 0.22659 0.0
C118 C 0.28465 0.04233 0.21181 0.0
C119 C 0.27959 0.06297 0.2097 0.0
C120 C 0.29281 0.07483 0.22363 0.0
C121 C 0.30512 0.06083 0.23345 0.0
N122 N 0.33191 0.03246 0.25918 0.0
C123 C 0.33364 0.05357 0.26166 0.0
C124 C 0.34539 0.0606 0.27955 0.0
C125 C 0.35088 0.04291 0.28943 0.0
C126 C 0.3421 0.02608 0.27695 0.0
N127 N 0.3368 0.01972 0.21549 0.0
C128 C 0.35813 0.02703 0.17732 0.0
C129 C 0.35486 0.04347 0.1918 0.0
C130 C 0.34454 0.03946 0.21074 0.0
C131 C 0.35262 0.00668 0.18347 0.0
C132 C 0.34243 0.00342 0.20259 0.0
N133 N 0.29187 0.0111 0.25751 0.0
C134 C 0.26888 0.02496 0.28353 0.0
C135 C 0.25903 0.0051 0.28562 0.0
C136 C 0.26596 0.98822 0.27386 0.0
C137 C 0.28223 0.99158 0.2598 0.0
C138 C 0.28539 0.02758 0.26955 0.0
H139 H 0.28665 0.97823 0.2508 0.0
H140 H 0.29261 0.04304 0.26855 0.0
H141 H 0.34241 0.05273 0.22083 0.0
H142 H 0.33873 0.98756 0.20617 0.0
C143 C 0.31099 0.96515 0.2224 0.0
C144 C 0.34248 0.00436 0.28331 0.0
C145 C 0.27396 0.02481 0.19942 0.0
C146 C 0.32064 0.06595 0.24956 0.0
H147 H 0.34957 0.96043 0.28385 0.0
H148 H 0.3331 0.93888 0.24988 0.0
H149 H 0.2809 0.95382 0.1884 0.0
H150 H 0.26046 0.98659 0.17628 0.0
H151 H 0.26755 0.06881 0.19919 0.0
H152 H 0.29326 0.09164 0.22642 0.0
H153 H 0.34821 0.07661 0.28559 0.0
H154 H 0.35941 0.04243 0.30462 0.0
H155 H 0.35931 0.05954 0.18818 0.0
H156 H 0.35578 0.99326 0.17338 0.0
H157 H 0.26384 0.03835 0.2926 0.0
H158 H 0.25847 0.97262 0.2751 0.0
C159 C 0.65068 0.47404 0.22371 0.0
C160 C 0.64352 0.45332 0.21956 0.0
C161 C 0.65461 0.44164 0.23328 0.0
C162 C 0.66787 0.45586 0.24486 0.0
N163 N 0.66567 0.47597 0.23965 0.0
Co164 Co 0.68264 0.50165 0.25127 0.0
N165 N 0.7003 0.48438 0.27004 0.0
C166 C 0.69848 0.46334 0.27194 0.0
C167 C 0.71166 0.45622 0.28748 0.0
C168 C 0.72249 0.47374 0.29609 0.0
C169 C 0.7153 0.49061 0.28519 0.0
N170 N 0.69966 0.52736 0.26271 0.0
C171 C 0.71532 0.52935 0.27799 0.0
C172 C 0.72297 0.55004 0.2814 0.0
C173 C 0.71149 0.56163 0.26794 0.0
C174 C 0.6976 0.54741 0.25714 0.0
N175 N 0.66468 0.51894 0.23289 0.0
C176 C 0.66565 0.54004 0.23168 0.0
C177 C 0.65091 0.54719 0.21763 0.0
C178 C 0.64012 0.52957 0.20911 0.0
C179 C 0.64906 0.51271 0.21847 0.0
N180 N 0.66264 0.50465 0.27469 0.0
C181 C 0.6411 0.51002 0.31259 0.0
C182 C 0.6458 0.527 0.29992 0.0
C183 C 0.65651 0.52399 0.28112 0.0
C184 C 0.64582 0.49011 0.30527 0.0
C185 C 0.6562 0.48775 0.2862 0.0
N186 N 0.70299 0.49869 0.22804 0.0
C187 C 0.72551 0.5145 0.20185 0.0
C188 C 0.73465 0.49554 0.19767 0.0
C189 C 0.72703 0.47794 0.20828 0.0
C190 C 0.71136 0.47987 0.22335 0.0
C191 C 0.70969 0.51567 0.21677 0.0
H192 H 0.70651 0.46599 0.23125 0.0
H193 H 0.70333 0.53055 0.21911 0.0
H194 H 0.66032 0.53765 0.27253 0.0
H195 H 0.65949 0.4722 0.28155 0.0
C196 C 0.68333 0.45079 0.25987 0.0
C197 C 0.64425 0.49119 0.211 0.0
C198 C 0.72302 0.51223 0.29003 0.0
C199 C 0.68145 0.55257 0.24289 0.0
H200 H 0.63195 0.4472 0.20749 0.0
H201 H 0.65361 0.42475 0.23422 0.0
H202 H 0.71283 0.44026 0.29235 0.0
H203 H 0.73412 0.47409 0.30917 0.0
H204 H 0.73527 0.55615 0.29275 0.0
H205 H 0.71272 0.57848 0.26662 0.0
H206 H 0.64879 0.56323 0.2135 0.0
H207 H 0.62776 0.52903 0.1967 0.0
H208 H 0.64222 0.5427 0.30501 0.0
H209 H 0.64195 0.47647 0.31446 0.0
H210 H 0.73059 0.52846 0.19366 0.0
H211 H 0.7336 0.46289 0.2055 0.0
C212 C 0.29057 0.35458 0.99566 0.0
C213 C 0.29421 0.35938 0.97467 0.0
C214 C 0.27784 0.34977 0.96256 0.0
C215 C 0.26533 0.33948 0.9767 0.0
N216 N 0.27238 0.34237 0.99722 0.0
Co217 Co 0.26103 0.32757 0.0225 0.0
N218 N 0.23984 0.31001 0.00417 0.0
C219 C 0.23542 0.31209 0.98317 0.0
C220 C 0.21905 0.29877 0.97516 0.0
C221 C 0.21252 0.28759 0.99207 0.0
C222 C 0.22547 0.29468 0.00948 0.0
N223 N 0.25062 0.31213 0.04773 0.0
C224 C 0.23586 0.29596 0.04881 0.0
C225 C 0.23368 0.28961 0.06954 0.0
C226 C 0.24747 0.30236 0.08206 0.0
C227 C 0.25733 0.31559 0.06829 0.0
N228 N 0.28178 0.34565 0.04082 0.0
C229 C 0.28322 0.34684 0.0623 0.0
C230 C 0.29938 0.36049 0.07031 0.0
C231 C 0.30911 0.36811 0.05288 0.0
C232 C 0.29834 0.35851 0.03521 0.0
N233 N 0.23884 0.34833 0.02634 0.0
C234 C 0.20005 0.36789 0.02984 0.0
C235 C 0.21115 0.36163 0.04792 0.0
C236 C 0.23048 0.35219 0.04585 0.0
C237 C 0.20988 0.36622 0.01036 0.0
C238 C 0.22921 0.35681 0.00905 0.0
N239 N 0.28246 0.30659 0.0185 0.0
C240 C 0.31039 0.28595 0.03222 0.0
C241 C 0.31248 0.27643 0.01211 0.0
C242 C 0.29928 0.28224 0.99536 0.0
C243 C 0.28443 0.29709 0.99889 0.0
C244 C 0.29546 0.30108 0.03502 0.0
H245 H 0.27463 0.30064 0.98551 0.0
H246 H 0.29462 0.30817 0.05062 0.0
H247 H 0.23791 0.34756 0.06024 0.0
H248 H 0.23559 0.35611 0.99368 0.0
C249 C 0.24783 0.32571 0.97114 0.0
C250 C 0.30529 0.36091 0.01353 0.0
C251 C 0.22332 0.28648 0.03073 0.0
C252 C 0.27192 0.33224 0.07423 0.0
H253 H 0.3076 0.36829 0.96854 0.0
H254 H 0.27585 0.3495 0.94539 0.0
H255 H 0.21273 0.29723 0.95892 0.0
H256 H 0.19963 0.2756 0.99161 0.0
H257 H 0.22302 0.27723 0.07507 0.0
H258 H 0.24979 0.30221 0.09918 0.0
H259 H 0.30438 0.3635 0.08683 0.0
H260 H 0.3231 0.37879 0.05311 0.0
H261 H 0.20455 0.36308 0.06352 0.0
H262 H 0.20249 0.37179 0.996 0.0
H263 H 0.32041 0.28198 0.04563 0.0
H264 H 0.30016 0.27508 0.97957 0.0
C265 C 0.21275 0.66137 0.4892 0.0
C266 C 0.20866 0.65552 0.46789 0.0
C267 C 0.22355 0.66619 0.4566 0.0
C268 C 0.23567 0.67808 0.4715 0.0
N269 N 0.22973 0.67538 0.49173 0.0
Co270 Co 0.24097 0.6919 0.51784 0.0
N271 N 0.26195 0.70847 0.50096 0.0
C272 C 0.26575 0.70561 0.48007 0.0
C273 C 0.28253 0.71792 0.47335 0.0
C274 C 0.29005 0.72923 0.49106 0.0
C275 C 0.27717 0.72326 0.50757 0.0
N276 N 0.25128 0.70915 0.54379 0.0
C277 C 0.26663 0.72486 0.54605 0.0
C278 C 0.26867 0.73291 0.56685 0.0
C279 C 0.25415 0.72173 0.57819 0.0
C280 C 0.24404 0.70767 0.56369 0.0
N281 N 0.22106 0.67433 0.53491 0.0
C282 C 0.21943 0.67503 0.55628 0.0
C283 C 0.2049 0.66036 0.56346 0.0
C284 C 0.19653 0.64987 0.54554 0.0
C285 C 0.20636 0.65897 0.52844 0.0
N286 N 0.26332 0.67189 0.52307 0.0
C287 C 0.30156 0.65227 0.52997 0.0
C288 C 0.2899 0.65902 0.5471 0.0
C289 C 0.27086 0.66858 0.54331 0.0
C290 C 0.29267 0.65365 0.50946 0.0
C291 C 0.27354 0.66316 0.50641 0.0
N292 N 0.21895 0.71233 0.51255 0.0
C293 C 0.18822 0.73045 0.52337 0.0
C294 C 0.18894 0.74251 0.50527 0.0
C295 C 0.20461 0.73899 0.49075 0.0
C296 C 0.21909 0.72375 0.49446 0.0
C297 C 0.20346 0.71573 0.52684 0.0
H298 H 0.2303 0.72158 0.48244 0.0
H299 H 0.20254 0.70742 0.54128 0.0
H300 H 0.26301 0.67391 0.55701 0.0
H301 H 0.2678 0.66398 0.49036 0.0
C302 C 0.25271 0.69188 0.46701 0.0
C303 C 0.19956 0.65411 0.50639 0.0
C304 C 0.27989 0.7323 0.52912 0.0
C305 C 0.22971 0.69128 0.56876 0.0
H306 H 0.19604 0.645 0.46101 0.0
H307 H 0.22507 0.66569 0.4395 0.0
H308 H 0.28856 0.71861 0.45748 0.0
H309 H 0.30349 0.7406 0.49173 0.0
H310 H 0.27981 0.74527 0.57323 0.0
H311 H 0.25176 0.72318 0.59512 0.0
H312 H 0.20023 0.6582 0.57967 0.0
H313 H 0.18393 0.63758 0.54498 0.0
H314 H 0.29594 0.65796 0.56333 0.0
H315 H 0.3007 0.64787 0.49571 0.0
H316 H 0.17631 0.73276 0.53505 0.0
H317 H 0.20559 0.74788 0.47642 0.0
C318 C 0.77429 0.84177 0.48755 0.0
C319 C 0.77672 0.84492 0.46601 0.0
C320 C 0.75958 0.83484 0.45548 0.0
C321 C 0.74779 0.82591 0.47103 0.0
N322 N 0.75605 0.83013 0.49097 0.0
Co323 Co 0.74622 0.81717 0.51788 0.0
N324 N 0.72426 0.79834 0.50187 0.0
C325 C 0.71887 0.7987 0.48088 0.0
C326 C 0.70238 0.78469 0.4746 0.0
C327 C 0.69682 0.77487 0.49267 0.0
C328 C 0.7104 0.78342 0.509 0.0
N329 N 0.73728 0.80376 0.54477 0.0
C330 C 0.72263 0.78787 0.54779 0.0
C331 C 0.72151 0.78322 0.56913 0.0
C332 C 0.73587 0.7968 0.58001 0.0
C333 C 0.74497 0.8088 0.56474 0.0
N334 N 0.76798 0.83637 0.53379 0.0
C335 C 0.77068 0.83905 0.55512 0.0
C336 C 0.78742 0.85286 0.56132 0.0
C337 C 0.79624 0.85894 0.54283 0.0
C338 C 0.78442 0.84833 0.52639 0.0
N339 N 0.72396 0.83811 0.52142 0.0
C340 C 0.68476 0.85707 0.52618 0.0
C341 C 0.69794 0.85349 0.54388 0.0
C342 C 0.71736 0.84421 0.54116 0.0
C343 C 0.69266 0.85298 0.50609 0.0
C344 C 0.71225 0.84408 0.50412 0.0
N345 N 0.76753 0.79587 0.51423 0.0
C346 C 0.79599 0.77567 0.52778 0.0
C347 C 0.7969 0.76474 0.50812 0.0
C348 C 0.7827 0.76972 0.49179 0.0
C349 C 0.7684 0.78511 0.49512 0.0
C350 C 0.78132 0.79116 0.53045 0.0
H351 H 0.75803 0.78798 0.48197 0.0
H352 H 0.78131 0.7992 0.54569 0.0
H353 H 0.72637 0.84153 0.55533 0.0
H354 H 0.71716 0.84164 0.48832 0.0
C355 C 0.73037 0.81154 0.46729 0.0
C356 C 0.79021 0.84899 0.50414 0.0
C357 C 0.70928 0.77703 0.53102 0.0
C358 C 0.75999 0.82556 0.56868 0.0
H359 H 0.78988 0.85289 0.45848 0.0
H360 H 0.75672 0.83317 0.43842 0.0
H361 H 0.69535 0.78184 0.45875 0.0
H362 H 0.68412 0.76284 0.4937 0.0
H363 H 0.71121 0.7714 0.57613 0.0
H364 H 0.73909 0.79796 0.59704 0.0
H365 H 0.79337 0.85692 0.57737 0.0
H366 H 0.81035 0.86927 0.5416 0.0
H367 H 0.69291 0.85693 0.55984 0.0
H368 H 0.68361 0.85638 0.49181 0.0
H369 H 0.80671 0.77253 0.54094 0.0
H370 H 0.78231 0.76151 0.47642 0.0
C371 C 0.50953 0.80531 0.83846 0.0
C372 C 0.48882 0.80812 0.84405 0.0
C373 C 0.47694 0.79054 0.83689 0.0
C374 C 0.491 0.77803 0.82737 0.0
N375 N 0.51127 0.78623 0.82868 0.0
Co376 Co 0.53606 0.77535 0.81369 0.0
N377 N 0.51758 0.75352 0.7973 0.0
C378 C 0.497 0.74808 0.80076 0.0
C379 C 0.48861 0.7319 0.78763 0.0
C380 C 0.50484 0.72666 0.77511 0.0
C381 C 0.52225 0.74011 0.78127 0.0
N382 N 0.56075 0.76566 0.79769 0.0
C383 C 0.56131 0.75166 0.78106 0.0
C384 C 0.5818 0.7502 0.77413 0.0
C385 C 0.59463 0.76373 0.78689 0.0
C386 C 0.58127 0.77274 0.80073 0.0
N387 N 0.55437 0.79705 0.8306 0.0
C388 C 0.57582 0.79891 0.83151 0.0
C389 C 0.58388 0.81665 0.84257 0.0
C390 C 0.56661 0.82697 0.84851 0.0
C391 C 0.5488 0.81483 0.84092 0.0
N392 N 0.54083 0.75389 0.83575 0.0
C393 C 0.5451 0.71495 0.85534 0.0
C394 C 0.56269 0.7263 0.84774 0.0
C395 C 0.56031 0.74573 0.83858 0.0
C396 C 0.5258 0.72459 0.85506 0.0
C397 C 0.52413 0.74401 0.84561 0.0
N398 N 0.53136 0.79568 0.79156 0.0
C399 C 0.54434 0.82347 0.76958 0.0
C400 C 0.5242 0.82438 0.7599 0.0
C401 C 0.50776 0.81066 0.76627 0.0
C402 C 0.51166 0.79652 0.78202 0.0
C403 C 0.54756 0.80906 0.78536 0.0
H404 H 0.49856 0.78632 0.78627 0.0
H405 H 0.56322 0.80894 0.79239 0.0
H406 H 0.57449 0.75349 0.83347 0.0
H407 H 0.50898 0.75033 0.84606 0.0
C408 C 0.48539 0.76003 0.81467 0.0
C409 C 0.52695 0.82142 0.84213 0.0
C410 C 0.54289 0.73939 0.77156 0.0
C411 C 0.58738 0.78752 0.81706 0.0
H412 H 0.48281 0.82178 0.8518 0.0
H413 H 0.45988 0.78779 0.83739 0.0
H414 H 0.47248 0.72507 0.78685 0.0
H415 H 0.5039 0.71439 0.76277 0.0
H416 H 0.58694 0.74033 0.76123 0.0
H417 H 0.61165 0.76665 0.78616 0.0
H418 H 0.60033 0.82252 0.84419 0.0
H419 H 0.56727 0.84233 0.85628 0.0
H420 H 0.57828 0.72016 0.84868 0.0
H421 H 0.51176 0.71688 0.86138 0.0
H422 H 0.55748 0.8339 0.76513 0.0
H423 H 0.49199 0.81058 0.75889 0.0
C424 C 0.54574 0.29408 0.64793 0.0
C425 C 0.56604 0.29839 0.64083 0.0
C426 C 0.57834 0.28353 0.64891 0.0
C427 C 0.56486 0.27105 0.66039 0.0
N428 N 0.54459 0.27674 0.65973 0.0
Co429 Co 0.52031 0.26447 0.67595 0.0
N430 N 0.53916 0.24526 0.69122 0.0
C431 C 0.55992 0.24284 0.68782 0.0
C432 C 0.56857 0.22802 0.70005 0.0
C433 C 0.55242 0.22049 0.71203 0.0
C434 C 0.53476 0.23134 0.70656 0.0
N435 N 0.4961 0.25254 0.69262 0.0
C436 C 0.49578 0.23825 0.70815 0.0
C437 C 0.47556 0.23494 0.71588 0.0
C438 C 0.46264 0.24728 0.70472 0.0
C439 C 0.47561 0.2576 0.69101 0.0
N440 N 0.50141 0.28352 0.66053 0.0
C441 C 0.48013 0.28424 0.66192 0.0
C442 C 0.47176 0.29982 0.65053 0.0
C443 C 0.48873 0.30999 0.64172 0.0
C444 C 0.50659 0.29988 0.64817 0.0
N445 N 0.51395 0.24236 0.65332 0.0
C446 C 0.50406 0.20605 0.62801 0.0
C447 C 0.48807 0.21828 0.63494 0.0
C448 C 0.49335 0.23641 0.64722 0.0
C449 C 0.52513 0.21325 0.63193 0.0
C450 C 0.5297 0.23148 0.64449 0.0
N451 N 0.52657 0.28647 0.6983 0.0
C452 C 0.5151 0.31551 0.71932 0.0
C453 C 0.53577 0.32017 0.72725 0.0
C454 C 0.55176 0.3075 0.72093 0.0
C455 C 0.54685 0.29084 0.70637 0.0
C456 C 0.51083 0.29852 0.70517 0.0
H457 H 0.55966 0.28179 0.70173 0.0
H458 H 0.49471 0.2955 0.6999 0.0
H459 H 0.48036 0.24473 0.65223 0.0
H460 H 0.54604 0.23592 0.64746 0.0
C461 C 0.5711 0.25525 0.67358 0.0
C462 C 0.52827 0.30739 0.64383 0.0
C463 C 0.51417 0.22763 0.71625 0.0
C464 C 0.46903 0.27221 0.67653 0.0
H465 H 0.57148 0.31131 0.63133 0.0
H466 H 0.59526 0.28251 0.6474 0.0
H467 H 0.58475 0.22332 0.70031 0.0
H468 H 0.55354 0.20832 0.72347 0.0
H469 H 0.47058 0.22478 0.7284 0.0
H470 H 0.4458 0.2487 0.70652 0.0
H471 H 0.45545 0.30412 0.64981 0.0
H472 H 0.488 0.32387 0.63247 0.0
H473 H 0.47151 0.21338 0.63166 0.0
H474 H 0.53798 0.20423 0.62644 0.0
H475 H 0.5022 0.3247 0.72437 0.0
H476 H 0.56795 0.31057 0.72703 0.0
C477 C 0.83822 0.48988 0.77289 0.0
C478 C 0.84216 0.46917 0.77634 0.0
C479 C 0.83274 0.45757 0.75956 0.0
C480 C 0.82355 0.47179 0.74691 0.0
N481 N 0.82705 0.49185 0.75428 0.0
Co482 Co 0.8133 0.51703 0.74346 0.0
N483 N 0.79475 0.49947 0.72241 0.0
C484 C 0.79596 0.47879 0.71772 0.0
C485 C 0.78161 0.47112 0.7021 0.0
C486 C 0.77059 0.48788 0.69647 0.0
C487 C 0.77875 0.50488 0.70919 0.0
N488 N 0.79881 0.54217 0.73359 0.0
C489 C 0.7819 0.5435 0.71988 0.0
C490 C 0.77628 0.56403 0.71831 0.0
C491 C 0.79019 0.5761 0.73138 0.0
C492 C 0.80337 0.56231 0.7403 0.0
N493 N 0.83221 0.53454 0.76422 0.0
C494 C 0.83437 0.55568 0.76593 0.0
C495 C 0.84754 0.56308 0.7827 0.0
C496 C 0.85363 0.54563 0.79262 0.0
C497 C 0.84373 0.52856 0.78129 0.0
N498 N 0.83456 0.52082 0.72088 0.0
C499 C 0.85416 0.52596 0.68165 0.0
C500 C 0.85055 0.54328 0.6948 0.0
C501 C 0.84093 0.54037 0.71428 0.0
C502 C 0.85005 0.50606 0.68953 0.0
C503 C 0.84083 0.50391 0.70927 0.0
N504 N 0.79205 0.51318 0.7653 0.0
C505 C 0.77373 0.52623 0.79547 0.0
C506 C 0.76218 0.50702 0.7965 0.0
C507 C 0.76581 0.49094 0.78192 0.0
C508 C 0.78089 0.49426 0.76666 0.0
C509 C 0.78838 0.52907 0.77958 0.0
H510 H 0.78326 0.48131 0.75609 0.0
H511 H 0.79651 0.54419 0.77901 0.0
H512 H 0.83814 0.55423 0.72322 0.0
H513 H 0.83836 0.48835 0.71435 0.0
C514 C 0.80925 0.46662 0.72974 0.0
C515 C 0.84416 0.50708 0.78826 0.0
C516 C 0.7707 0.52577 0.70815 0.0
C517 C 0.82021 0.56776 0.75491 0.0
H518 H 0.85021 0.46302 0.79002 0.0
H519 H 0.83158 0.44067 0.75753 0.0
H520 H 0.77911 0.45514 0.69589 0.0
H521 H 0.75786 0.48755 0.68446 0.0
H522 H 0.76342 0.56972 0.70876 0.0
H523 H 0.79058 0.59291 0.73415 0.0
H524 H 0.85087 0.57921 0.78815 0.0
H525 H 0.86325 0.54549 0.80719 0.0
H526 H 0.85405 0.55906 0.68962 0.0
H527 H 0.85351 0.49216 0.6803 0.0
H528 H 0.77104 0.53911 0.80647 0.0
H529 H 0.75708 0.47584 0.78236 0.0
C530 C 0.1584 0.02907 0.77408 0.0
C531 C 0.15502 0.04987 0.77908 0.0
C532 C 0.16447 0.0615 0.76385 0.0
C533 C 0.17318 0.04723 0.75056 0.0
N534 N 0.16936 0.02713 0.756 0.0
Co535 Co 0.18206 1.00183 0.74321 0.0
N536 N 0.19924 0.01925 0.72325 0.0
C537 C 0.19801 0.04001 0.72036 0.0
C538 C 0.2107 0.0476 0.70481 0.0
C539 C 0.22067 0.03072 0.69727 0.0
C540 C 0.21366 0.01372 0.70888 0.0
N541 N 0.19574 0.97668 0.7313 0.0
C542 C 0.21131 0.9752 0.71696 0.0
C543 C 0.21688 0.95467 0.71416 0.0
C544 C 0.20433 0.94278 0.72695 0.0
C545 C 0.19197 0.95663 0.73701 0.0
N546 N 0.16419 0.98435 0.76248 0.0
C547 C 0.16228 0.9632 0.7627 0.0
C548 C 0.1496 0.95574 0.77839 0.0
C549 C 0.14347 0.97318 0.7891 0.0
C550 C 0.15288 0.9903 0.77934 0.0
N551 N 0.15899 0.99822 0.72098 0.0
C552 C 0.13193 0.99301 0.6848 0.0
C553 C 0.13798 0.97568 0.6957 0.0
C554 C 0.15144 0.97864 0.71367 0.0
C555 C 0.13774 0.01297 0.69338 0.0
C556 C 0.15097 0.0152 0.71158 0.0
N557 N 0.20473 0.00545 0.76545 0.0
C558 C 0.21956 0.99399 0.79841 0.0
C559 C 0.23193 0.01283 0.80158 0.0
C560 C 0.23082 0.02765 0.78571 0.0
C561 C 0.21693 0.02383 0.76811 0.0
C562 C 0.207 0.99032 0.78 0.0
H563 H 0.21613 0.03603 0.75698 0.0
H564 H 0.19878 0.97528 0.7782 0.0
H565 H 0.15617 0.96476 0.72067 0.0
H566 H 0.15507 0.03081 0.71715 0.0
C567 C 0.18622 0.05224 0.73376 0.0
C568 C 0.15212 0.01181 0.78761 0.0
C569 C 0.22129 0.99273 0.70568 0.0
C570 C 0.17607 0.95121 0.75119 0.0
H571 H 0.14719 0.0561 0.79272 0.0
H572 H 0.16567 0.0784 0.76309 0.0
H573 H 0.21275 0.0636 0.69981 0.0
H574 H 0.23195 0.03098 0.68472 0.0
H575 H 0.22878 0.94885 0.70393 0.0
H576 H 0.20419 0.926 0.72866 0.0
H577 H 0.14649 0.9396 0.78257 0.0
H578 H 0.13405 0.9733 0.80315 0.0
H579 H 0.13363 0.9599 0.68957 0.0
H580 H 0.13289 0.0268 0.68552 0.0
H581 H 0.21916 0.98191 0.81001 0.0
H582 H 0.24053 0.04219 0.78662 0.0
C583 C 0.73024 0.17452 0.99551 0.0
C584 C 0.72655 0.16756 0.9745 0.0
C585 C 0.74057 0.17888 0.96275 0.0
C586 C 0.75195 0.19198 0.97725 0.0
N587 N 0.74638 0.1894 0.99762 0.0
Co588 Co 0.75833 0.20531 0.02381 0.0
N589 N 0.77805 0.22292 0.00648 0.0
C590 C 0.7803 0.22145 0.98514 0.0
C591 C 0.79611 0.23471 0.978 0.0
C592 C 0.80462 0.2452 0.9958 0.0
C593 C 0.79333 0.23778 0.01287 0.0
N594 N 0.77013 0.22142 0.04999 0.0
C595 C 0.78593 0.23672 0.05218 0.0
C596 C 0.78969 0.24334 0.07329 0.0
C597 C 0.77585 0.23166 0.08493 0.0
C598 C 0.76446 0.21871 0.07031 0.0
N599 N 0.7389 0.18734 0.04112 0.0
C600 C 0.73759 0.18782 0.06254 0.0
C601 C 0.72222 0.17401 0.0697 0.0
C602 C 0.71295 0.16431 0.05177 0.0
C603 C 0.72331 0.1728 0.03466 0.0
N604 N 0.78084 0.18514 0.02714 0.0
C605 C 0.81877 0.16478 0.03208 0.0
C606 C 0.80669 0.16914 0.04967 0.0
C607 C 0.78776 0.1792 0.04683 0.0
C608 C 0.81052 0.16879 0.01192 0.0
C609 C 0.79156 0.17861 0.00981 0.0
N610 N 0.73608 0.22579 0.02041 0.0
C611 C 0.70864 0.24639 0.03486 0.0
C612 C 0.70516 0.25572 0.01527 0.0
C613 C 0.71747 0.24953 0.99836 0.0
C614 C 0.73248 0.23464 0.0012 0.0
C615 C 0.72408 0.23167 0.03707 0.0
H616 H 0.74114 0.23066 0.98759 0.0
H617 H 0.72604 0.22523 0.0524 0.0
H618 H 0.77949 0.18274 0.06084 0.0
H619 H 0.78646 0.18149 0.99401 0.0
C620 C 0.76775 0.20704 0.97225 0.0
C621 C 0.71677 0.16786 0.01257 0.0
C622 C 0.79796 0.24521 0.03482 0.0
C623 C 0.7495 0.20282 0.07529 0.0
H624 H 0.71452 0.15593 0.9683 0.0
H625 H 0.74199 0.17799 0.94564 0.0
H626 H 0.80112 0.23629 0.96182 0.0
H627 H 0.81785 0.25681 0.99618 0.0
H628 H 0.80146 0.25514 0.07962 0.0
H629 H 0.7746 0.23219 0.10206 0.0
H630 H 0.7177 0.17188 0.08596 0.0
H631 H 0.69966 0.1528 0.05134 0.0
H632 H 0.81235 0.16586 0.0656 0.0
H633 H 0.81907 0.16499 0.99779 0.0
H634 H 0.69942 0.25021 0.04848 0.0
H635 H 0.71594 0.25637 0.98293 0.0
O636 O 0.05024 0.08315 0.06885 0.0
Mn637 Mn 0.06315 0.07051 0.04106 0.0
O638 O 0.07803 0.10085 0.08624 0.0
Mn639 Mn 0.0982 0.0952 0.06683 0.0
O640 O 0.0768 0.0591 0.01311 0.0
O641 O 0.03425 0.07041 0.02642 0.0
Mn642 Mn 0.02983 0.04785 0.00961 0.0
O643 O 0.05618 0.04004 0.05099 0.0
O644 O 0.05018 0.04971 0.98934 0.0
O645 O 0.06928 0.10084 0.02987 0.0
O646 O 0.1006 0.11271 0.04473 0.0
O647 O 0.00545 0.06207 0.00719 0.0
O648 O 0.03115 0.0256 0.02753 0.0
C649 C 0.11049 0.06586 0.0652 0.0
C650 C 0.0585 0.09468 0.0846 0.0
C651 C 0.06979 0.05342 0.99418 0.0
C652 C 0.01528 0.0751 0.02089 0.0
C653 C 0.04327 0.02471 0.04412 0.0
C654 C 0.08547 0.11399 0.03123 0.0
O655 O 0.09223 0.06961 0.05625 0.0
O656 O 0.12103 0.08155 0.07504 0.0
O657 O 0.96859 0.45234 0.06801 0.0
Mn658 Mn 0.95262 0.46118 0.04083 0.0
O659 O 0.94551 0.42684 0.07668 0.0
Mn660 Mn 0.92316 0.43719 0.06124 0.0
O661 O 0.93635 0.46992 0.01295 0.0
O662 O 0.9806 0.45957 0.02595 0.0
Mn663 Mn 0.98349 0.48128 0.00949 0.0
O664 O 0.96022 0.49225 0.05025 0.0
O665 O 0.96122 0.47869 0.98954 0.0
O666 O 0.94698 0.42969 0.02961 0.0
O667 O 0.91389 0.42334 0.03665 0.0
O668 O 0.00734 0.4668 0.0058 0.0
O669 O 0.98501 0.50444 0.02805 0.0
C670 C 0.90747 0.46197 0.06963 0.0
C671 C 0.96348 0.43668 0.0791 0.0
C672 C 0.94197 0.47483 0.99419 0.0
C673 C 0.99906 0.45458 0.01965 0.0
C674 C 0.97374 0.50649 0.04433 0.0
C675 C 0.92924 0.4195 0.02546 0.0
O676 O 0.92419 0.46484 0.05752 0.0
O677 O 0.90238 0.44381 0.07718 0.0
O678 O 0.06691 0.96397 0.41562 0.0
Mn679 Mn 0.04007 0.94833 0.42808 0.0
O680 O 0.09034 0.94001 0.41157 0.0
Mn681 Mn 0.06822 0.92045 0.40853 0.0
O682 O 0.0129 0.93225 0.44044 0.0
O683 O 0.02762 0.97823 0.42471 0.0
Mn684 Mn 0.01142 0.97527 0.44759 0.0
O685 O 0.05271 0.95668 0.45794 0.0
O686 O 0.98908 0.95583 0.44358 0.0
O687 O 0.02696 0.93949 0.39796 0.0
O688 O 0.0516 0.9202 0.38408 0.0
O689 O 0.00568 1.0005 0.4394 0.0
O690 O 0.02717 0.97405 0.47284 0.0
C691 C 0.06336 0.90129 0.43297 0.0
C692 C 0.0859 0.9589 0.41279 0.0
C693 C 0.99369 0.937 0.44293 0.0
C694 C 0.01866 0.99651 0.42449 0.0
C695 C 0.04501 0.966 0.47382 0.0
C696 C 0.03399 0.92851 0.38273 0.0
O697 O 0.054 0.91934 0.43249 0.0
O698 O 0.07406 0.89538 0.41686 0.0
O699 O 0.93288 0.58064 0.448 0.0
Mn700 Mn 0.94652 0.55484 0.43313 0.0
O701 O 0.9121 0.59293 0.42222 0.0
Mn702 Mn 0.92032 0.5747 0.40103 0.0
O703 O 0.95963 0.52835 0.41792 0.0
O704 O 0.94621 0.54079 0.46146 0.0
Mn705 Mn 0.9703 0.52882 0.4656 0.0
O706 O 0.97663 0.56914 0.44049 0.0
O707 O 0.97208 0.5088 0.4441 0.0
O708 O 0.91652 0.5394 0.42745 0.0
O709 O 0.90457 0.55004 0.39641 0.0
O710 O 0.95508 0.5235 0.48935 0.0
O711 O 0.99094 0.55061 0.4667 0.0
C712 C 0.94855 0.58009 0.38631 0.0
C713 C 0.91945 0.59352 0.44131 0.0
C714 C 0.96792 0.5116 0.4245 0.0
C715 C 0.94121 0.53457 0.48014 0.0
C716 C 0.99133 0.5661 0.45449 0.0
C717 C 0.90376 0.53733 0.41125 0.0
O718 O 0.94778 0.57032 0.40443 0.0
O719 O 0.93095 0.58593 0.37788 0.0
O720 O 0.45331 0.9421 0.56737 0.0
Mn721 Mn 0.43548 0.95348 0.54141 0.0
O722 O 0.43439 0.94848 0.5944 0.0
Mn723 Mn 0.41468 0.93835 0.57427 0.0
O724 O 0.41927 0.96373 0.51364 0.0
O725 O 0.46345 0.94933 0.52642 0.0
Mn726 Mn 0.46573 0.96965 0.50816 0.0
O727 O 0.44611 0.98393 0.55047 0.0
O728 O 0.44352 0.96572 0.4885 0.0
O729 O 0.42521 0.92362 0.53124 0.0
O730 O 0.41782 0.91169 0.56271 0.0
O731 O 0.48955 0.9553 0.50485 0.0
O732 O 0.46722 0.99453 0.52425 0.0
C733 C 0.38963 0.9551 0.56967 0.0
C734 C 0.45189 0.94399 0.58752 0.0
C735 C 0.42441 0.96536 0.49404 0.0
C736 C 0.48184 0.94402 0.51976 0.0
C737 C 0.45817 0.99783 0.54177 0.0
C738 C 0.42058 0.90853 0.54311 0.0
O739 O 0.40627 0.95869 0.55736 0.0
O740 O 0.38901 0.93999 0.58286 0.0
O741 O 0.53549 0.57392 0.59208 0.0
Mn742 Mn 0.54872 0.56284 0.56411 0.0
O743 O 0.55993 0.59887 0.60356 0.0
Mn744 Mn 0.58251 0.58967 0.58899 0.0
O745 O 0.56209 0.55244 0.5359 0.0
O746 O 0.51919 0.56172 0.55013 0.0
Mn747 Mn 0.51576 0.5385 0.53405 0.0
O748 O 0.54365 0.53191 0.57411 0.0
O749 O 0.53552 0.54019 0.51328 0.0
O750 O 0.55428 0.59363 0.55309 0.0
O751 O 0.5875 0.60365 0.56483 0.0
O752 O 0.49071 0.55111 0.53086 0.0
O753 O 0.51799 0.51659 0.55205 0.0
C754 C 0.59008 0.55809 0.59364 0.0
C755 C 0.54181 0.58947 0.60454 0.0
C756 C 0.55495 0.54552 0.51745 0.0
C757 C 0.49995 0.56518 0.54391 0.0
C758 C 0.53107 0.51607 0.56788 0.0
C759 C 0.57168 0.60522 0.55205 0.0
O760 O 0.57862 0.56386 0.5776 0.0
O761 O 0.59872 0.57357 0.6053 0.0
O762 O 0.58018 0.48514 0.94143 0.0
Mn763 Mn 0.5549 0.46759 0.95447 0.0
O764 O 0.60681 0.46524 0.94362 0.0
Mn765 Mn 0.58623 0.44474 0.9363 0.0
O766 O 0.52839 0.45019 0.9665 0.0
O767 O 0.54098 0.49663 0.95165 0.0
Mn768 Mn 0.52588 0.49381 0.9752 0.0
O769 O 0.56752 0.47614 0.98433 0.0
O770 O 0.50449 0.47351 0.97181 0.0
O771 O 0.54259 0.4583 0.92451 0.0
O772 O 0.57145 0.44606 0.91054 0.0
O773 O 0.51876 0.51841 0.96644 0.0
O774 O 0.54255 0.49376 0.99988 0.0
C775 C 0.58113 0.42205 0.95711 0.0
C776 C 0.60011 0.48309 0.94154 0.0
C777 C 0.50926 0.45477 0.96982 0.0
C778 C 0.53143 0.51453 0.95122 0.0
C779 C 0.56043 0.48584 0.00031 0.0
C780 C 0.55228 0.45073 0.90886 0.0
O781 O 0.57013 0.43909 0.95844 0.0
O782 O 0.59379 0.41945 0.94159 0.0
O783 O 0.45257 0.09845 0.94961 0.0
Mn784 Mn 0.46438 0.07209 0.93415 0.0
O785 O 0.43197 0.11099 0.92434 0.0
Mn786 Mn 0.44103 0.09307 0.90354 0.0
O787 O 0.47612 0.0446 0.91924 0.0
O788 O 0.46127 0.05779 0.96256 0.0
Mn789 Mn 0.48486 0.04513 0.96746 0.0
O790 O 0.49502 0.0844 0.94274 0.0
O791 O 0.48738 0.02522 0.94607 0.0
O792 O 0.43372 0.05873 0.92761 0.0
O793 O 0.42409 0.06977 0.89629 0.0
O794 O 0.46876 0.03922 0.99025 0.0
O795 O 0.50611 0.06612 0.97054 0.0
C796 C 0.46729 0.09888 0.88726 0.0
C797 C 0.43932 0.1115 0.9433 0.0
C798 C 0.48383 0.02773 0.92632 0.0
C799 C 0.45549 0.05083 0.98086 0.0
C800 C 0.5083 0.08125 0.95805 0.0
C801 C 0.42168 0.05715 0.91094 0.0
O802 O 0.4687 0.08798 0.90495 0.0
O803 O 0.44946 0.10625 0.88127 0.0
C804 C 0.05569 0.16788 0.34036 0.0
C805 C 0.0419 0.18179 0.3497 0.0
C806 C 0.05611 0.14699 0.34671 0.0
C807 C 0.04016 0.11271 0.39143 0.0
H808 H 0.04457 0.06643 0.35067 0.0
C809 C 0.00927 0.03021 0.40921 0.0
C810 C 0.02359 0.01413 0.40982 0.0
C811 C 0.01443 0.04933 0.4001 0.0
C812 C 0.0437 0.07921 0.36229 0.0
H813 H 0.018 0.18435 0.37336 0.0
H814 H 0.01847 0.1483 0.38413 0.0
H815 H 0.04766 0.10271 0.33881 0.0
H816 H 0.05431 0.00549 0.39948 0.0
H817 H 0.06309 0.03917 0.38235 0.0
H818 H 0.03526 0.08933 0.41466 0.0
C819 C 0.0292 0.15343 0.37203 0.0
C820 C 0.04543 0.10006 0.35551 0.0
C821 C 0.02871 0.17419 0.36564 0.0
C822 C 0.04283 0.01735 0.3993 0.0
C823 C 0.0479 0.03671 0.38964 0.0
C824 C 0.03828 0.09202 0.39809 0.0
C825 C 0.0429 0.13942 0.36274 0.0
C826 C 0.04316 0.11715 0.36992 0.0
C827 C 0.03398 0.05318 0.39068 0.0
C828 C 0.03959 0.07494 0.38361 0.0
H829 H 0.06592 0.17304 0.32785 0.0
H830 H 0.06696 0.13684 0.33919 0.0
H831 H 0.03893 0.12526 0.40321 0.0
H832 H 0.99415 0.02848 0.41678 0.0
H833 H 0.00322 0.06146 0.40094 0.0
C834 C 0.02444 0.34205 0.36285 0.0
C835 C 0.01799 0.3332 0.3427 0.0
C836 C 0.01909 0.3623 0.36906 0.0
C837 C 0.97942 0.40086 0.3629 0.0
H838 H 0.0245 0.44205 0.38094 0.0
C839 C 0.96069 0.48531 0.39332 0.0
C840 C 0.97434 0.4947 0.40955 0.0
C841 C 0.9659 0.46664 0.38257 0.0
C842 C 0.01152 0.43078 0.37642 0.0
H843 H 0.99973 0.3384 0.31379 0.0
H844 H 0.98944 0.37341 0.32512 0.0
H845 H 0.03318 0.40727 0.36884 0.0
H846 H 0.00437 0.49221 0.42661 0.0
H847 H 0.01315 0.46021 0.40872 0.0
H848 H 0.95762 0.42382 0.37157 0.0
C849 C 0.99928 0.36487 0.33579 0.0
C850 C 0.01663 0.41077 0.36924 0.0
C851 C 0.00522 0.34486 0.3293 0.0
C852 C 0.99353 0.48549 0.4141 0.0
C853 C 0.99866 0.467 0.40358 0.0
C854 C 0.97422 0.42077 0.37064 0.0
C855 C 0.00636 0.37395 0.35567 0.0
C856 C 1.00068 0.39549 0.36252 0.0
C857 C 0.98488 0.45692 0.3878 0.0
C858 C 0.99019 0.43608 0.37781 0.0
H859 H 0.03349 0.33323 0.37396 0.0
H860 H 0.02455 0.36871 0.38459 0.0
H861 H 0.96674 0.38939 0.35788 0.0
H862 H 0.9456 0.49179 0.38966 0.0
H863 H 0.95486 0.45971 0.37039 0.0
C864 C 0.02074 0.84491 0.0972 0.0
C865 C 0.03418 0.83776 0.11328 0.0
C866 C 0.0239 0.86519 0.08997 0.0
C867 C 0.048 0.91737 0.10636 0.0
H868 H 0.03793 0.92835 0.04675 0.0
C869 C 0.0586 1.00002 0.07006 0.0
C870 C 0.04273 0.00454 0.05497 0.0
C871 C 0.05901 0.97994 0.07824 0.0
C872 C 0.04067 0.92554 0.06349 0.0
H873 H 0.06168 0.8462 0.13417 0.0
H874 H 0.06751 0.88146 0.12112 0.0
H875 H 0.03671 0.89238 0.05813 0.0
H876 H 0.01407 0.99187 0.03773 0.0
H877 H 0.01476 0.9573 0.05204 0.0
H878 H 0.05178 0.95071 0.11162 0.0
C879 C 0.05436 0.87146 0.11433 0.0
C880 C 0.03996 0.90494 0.06999 0.0
C881 C 0.05118 0.85116 0.12159 0.0
C882 C 0.02676 0.98891 0.04905 0.0
C883 C 0.02719 0.969 0.05716 0.0
C884 C 0.04876 0.93806 0.09981 0.0
C885 C 0.04061 0.87876 0.0986 0.0
C886 C 0.04321 0.90061 0.09155 0.0
C887 C 0.04359 0.96412 0.0714 0.0
C888 C 0.04465 0.94233 0.07837 0.0
H889 H 0.00763 0.8349 0.09034 0.0
H890 H 0.01287 0.8704 0.078 0.0
H891 H 0.05041 0.91455 0.12313 0.0
H892 H 0.07106 0.01171 0.07498 0.0
H893 H 0.07181 0.9766 0.08928 0.0
C894 C 0.00468 0.68933 0.09757 0.0
C895 C 0.00255 0.69514 0.11896 0.0
C896 C 1.00045 0.66851 0.0907 0.0
C897 C 0.97515 0.61768 0.10648 0.0
H898 H 0.01233 0.59612 0.06442 0.0
C899 C 0.95942 0.53621 0.06469 0.0
C900 C 0.97679 0.5262 0.05686 0.0
C901 C 0.96239 0.55621 0.07433 0.0
C902 C 0.00202 0.60165 0.0765 0.0
H903 H 0.99386 0.68467 0.14998 0.0
H904 H 0.98702 0.64801 0.13823 0.0
H905 H 0.01761 0.63215 0.07701 0.0
H906 H 0.01098 0.528 0.05448 0.0
H907 H 0.01643 0.56212 0.07256 0.0
H908 H 0.96033 0.58678 0.10685 0.0
C909 C 0.99161 0.65937 0.1266 0.0
C910 C 0.00477 0.62255 0.08337 0.0
C911 C 0.99568 0.68022 0.13339 0.0
C912 C 0.9973 0.5357 0.06005 0.0
C913 C 1.00035 0.55533 0.07024 0.0
C914 C 0.97267 0.59658 0.09994 0.0
C915 C 0.99421 0.65323 0.10523 0.0
C916 C 0.99123 0.63089 0.09823 0.0
C917 C 0.98288 0.56622 0.07677 0.0
C918 C 0.98599 0.58834 0.08473 0.0
H919 H 0.00975 0.70085 0.08627 0.0
H920 H 0.00213 0.6644 0.07403 0.0
H921 H 0.96432 0.62365 0.11784 0.0
H922 H 0.94347 0.52904 0.06239 0.0
H923 H 0.94851 0.56409 0.07898 0.0
C924 C 0.38226 0.04693 0.15268 0.0
C925 C 0.36636 0.03103 0.15572 0.0
C926 C 0.38934 0.05099 0.13224 0.0
C927 C 0.39068 0.02696 0.07764 0.0
H928 H 0.40369 0.0841 0.06148 0.0
C929 C 0.4196 0.04228 0.99378 0.0
C930 C 0.437 0.05689 0.99273 0.0
C931 C 0.40739 0.04157 0.01199 0.0
C932 C 0.40029 0.06802 0.06569 0.0
H933 H 0.34518 0.00726 0.13938 0.0
H934 H 0.35748 0.01429 0.10394 0.0
H935 H 0.39103 0.07736 0.09691 0.0
H936 H 0.45444 0.08301 0.00928 0.0
H937 H 0.43345 0.0819 0.04091 0.0
H938 H 0.40045 0.01746 0.04682 0.0
C939 C 0.36481 0.0234 0.11736 0.0
C940 C 0.39304 0.06415 0.08612 0.0
C941 C 0.35776 0.01932 0.13776 0.0
C942 C 0.4407 0.072 0.00936 0.0
C943 C 0.42872 0.07116 0.02769 0.0
C944 C 0.39805 0.0308 0.0573 0.0
C945 C 0.38068 0.0393 0.11427 0.0
C946 C 0.3882 0.04355 0.09242 0.0
C947 C 0.41259 0.0552 0.02977 0.0
C948 C 0.40306 0.05139 0.05097 0.0
H949 H 0.38943 0.05611 0.16613 0.0
H950 H 0.40182 0.06313 0.13057 0.0
H951 H 0.38748 0.01086 0.08197 0.0
H952 H 0.41672 0.0301 0.98145 0.0
H953 H 0.39472 0.02944 0.01262 0.0
C954 C 0.6536 0.49381 0.17331 0.0
C955 C 0.63884 0.48732 0.18826 0.0
C956 C 0.64814 0.49213 0.1517 0.0
C957 C 0.6138 0.46449 0.11197 0.0
H958 H 0.61433 0.51675 0.08232 0.0
C959 C 0.56348 0.47417 0.03689 0.0
C960 C 0.57222 0.48566 0.02048 0.0
C961 C 0.5747 0.47315 0.05615 0.0
C962 C 0.61457 0.50199 0.09024 0.0
H963 H 0.60717 0.47381 0.19293 0.0
H964 H 0.5977 0.4702 0.1547 0.0
H965 H 0.62845 0.51657 0.119 0.0
H966 H 0.59913 0.50505 0.01061 0.0
H967 H 0.61885 0.5038 0.04491 0.0
H968 H 0.59977 0.44988 0.0834 0.0
C969 C 0.61343 0.47657 0.15979 0.0
C970 C 0.62251 0.50192 0.11117 0.0
C971 C 0.61878 0.47859 0.18148 0.0
C972 C 0.59227 0.49618 0.02332 0.0
C973 C 0.60343 0.49546 0.0428 0.0
C974 C 0.60609 0.4645 0.09099 0.0
C975 C 0.62799 0.48364 0.14486 0.0
C976 C 0.62169 0.48325 0.12224 0.0
C977 C 0.59473 0.48382 0.0593 0.0
C978 C 0.60586 0.48335 0.08019 0.0
H979 H 0.66916 0.50062 0.17844 0.0
H980 H 0.65953 0.49762 0.14033 0.0
H981 H 0.6133 0.44993 0.12029 0.0
H982 H 0.54806 0.46581 0.0347 0.0
H983 H 0.56751 0.46434 0.06872 0.0
C984 C 0.33443 1.00128 0.32209 0.0
C985 C 0.34881 0.99959 0.30569 0.0
C986 C 0.34054 0.99735 0.34322 0.0
C987 C 0.38362 0.97307 0.37529 0.0
H988 H 0.35818 1.00087 0.42282 0.0
C989 C 0.40609 0.95119 0.46065 0.0
C990 C 0.40835 0.96714 0.47658 0.0
C991 C 0.39624 0.95462 0.44089 0.0
C992 C 0.36564 0.99306 0.4098 0.0
H993 H 0.38098 0.99318 0.29848 0.0
H994 H 0.39204 0.987 0.33513 0.0
H995 H 0.34738 0.0087 0.38656 0.0
H996 H 0.40182 0.99918 0.48442 0.0
H997 H 0.38478 0.00545 0.44983 0.0
H998 H 0.40277 0.95839 0.39828 0.0
C999 C 0.37574 0.99057 0.33192 0.0
C1000 C 0.35918 0.99734 0.38882 0.0
C1001 C 0.36952 0.99425 0.31082 0.0
C1002 C 0.39973 0.98641 0.47264 0.0
C1003 C 0.39008 0.98999 0.45267 0.0
C1004 C 0.39029 0.96905 0.39615 0.0
C1005 C 0.36135 0.99188 0.34855 0.0
C1006 C 0.36806 0.9874 0.37115 0.0
C1007 C 0.38886 0.97436 0.43617 0.0
C1008 C 0.38134 0.97882 0.41384 0.0
H1009 H 0.31838 0.00556 0.31851 0.0
H1010 H 0.3288 0.99833 0.35527 0.0
H1011 H 0.39071 0.96469 0.36241 0.0
H1012 H 0.41297 0.93631 0.46311 0.0
H1013 H 0.39513 0.94188 0.42905 0.0
C1014 C 0.6442 0.50639 0.35179 0.0
C1015 C 0.63293 0.51328 0.33406 0.0
C1016 C 0.63755 0.51063 0.37232 0.0
C1017 C 0.59961 0.54302 0.40223 0.0
H1018 H 0.61594 0.50746 0.44783 0.0
C1019 C 0.57543 0.56064 0.48813 0.0
C1020 C 0.5695 0.5433 0.50006 0.0
C1021 C 0.58553 0.55784 0.46889 0.0
C1022 C 0.61094 0.51745 0.43529 0.0
H1023 H 0.60564 0.52949 0.32358 0.0
H1024 H 0.59286 0.5355 0.35916 0.0
H1025 H 0.62645 0.49952 0.41218 0.0
H1026 H 0.5695 0.50966 0.50193 0.0
H1027 H 0.58686 0.50453 0.46842 0.0
H1028 H 0.58237 0.5597 0.42515 0.0
C1029 C 0.60749 0.52775 0.35763 0.0
C1030 C 0.61741 0.51314 0.41468 0.0
C1031 C 0.61459 0.52408 0.3371 0.0
C1032 C 0.57434 0.52324 0.49302 0.0
C1033 C 0.58434 0.52039 0.47381 0.0
C1034 C 0.59254 0.54689 0.42271 0.0
C1035 C 0.61902 0.52134 0.37566 0.0
C1036 C 0.61192 0.52588 0.39775 0.0
C1037 C 0.58963 0.53758 0.46117 0.0
C1038 C 0.5981 0.53415 0.43956 0.0
H1039 H 0.65861 0.49828 0.3498 0.0
H1040 H 0.64738 0.50586 0.38549 0.0
H1041 H 0.59535 0.55365 0.39001 0.0
H1042 H 0.5714 0.57621 0.4932 0.0
H1043 H 0.58965 0.57152 0.45988 0.0
C1044 C 0.1723 0.38853 0.04778 0.0
C1045 C 0.17812 0.37527 0.03096 0.0
C1046 C 0.15157 0.39519 0.04861 0.0
C1047 C 0.10268 0.39967 0.01417 0.0
H1048 H 0.07568 0.40783 0.06797 0.0
C1049 C 0.01626 0.42139 0.01427 0.0
C1050 C 0.01181 0.43803 0.02816 0.0
C1051 C 0.03494 0.41094 0.01704 0.0
C1052 C 0.08299 0.40571 0.0528 0.0
H1053 H 0.16633 0.35802 0.00225 0.0
H1054 H 0.1304 0.36925 0.00382 0.0
H1055 H 0.11175 0.39612 0.06759 0.0
H1056 H 0.02287 0.45612 0.05647 0.0
H1057 H 0.05544 0.43786 0.06153 0.0
H1058 H 0.07417 0.40936 0.99934 0.0
C1059 C 0.1419 0.37512 0.01609 0.0
C1060 C 0.10378 0.39906 0.05258 0.0
C1061 C 0.16259 0.36862 0.01519 0.0
C1062 C 0.02556 0.44289 0.04592 0.0
C1063 C 0.04439 0.43254 0.04864 0.0
C1064 C 0.08196 0.4062 0.01439 0.0
C1065 C 0.13605 0.38863 0.03273 0.0
C1066 C 0.11393 0.39589 0.03323 0.0
C1067 C 0.04985 0.41715 0.03358 0.0
C1068 C 0.07173 0.40926 0.03368 0.0
H1069 H 0.18388 0.39406 0.06013 0.0
H1070 H 0.14785 0.4058 0.06153 0.0
H1071 H 0.11001 0.39797 0.99895 0.0
H1072 H 0.00622 0.41769 1.00016 0.0
H1073 H 0.03827 0.39883 0.00541 0.0
C1074 C 0.17353 0.62612 0.49057 0.0
C1075 C 0.17756 0.64544 0.50165 0.0
C1076 C 0.15268 0.61879 0.48521 0.0
C1077 C 0.10013 0.61528 0.50045 0.0
H1078 H 0.08029 0.61928 0.44173 0.0
C1079 C 0.01355 0.59232 0.47624 0.0
C1080 C 0.00989 0.58084 0.45697 0.0
C1081 C 0.03328 0.60272 0.48098 0.0
C1082 C 0.08561 0.61781 0.45813 0.0
H1083 H 0.16334 0.67169 0.51694 0.0
H1084 H 0.12668 0.65832 0.50833 0.0
H1085 H 0.11695 0.63065 0.4522 0.0
H1086 H 0.02329 0.57133 0.42731 0.0
H1087 H 0.05814 0.58888 0.43572 0.0
H1088 H 0.06938 0.60159 0.50647 0.0
C1089 C 0.13968 0.64925 0.50333 0.0
C1090 C 0.10652 0.62439 0.46407 0.0
C1091 C 0.1605 0.65682 0.50824 0.0
C1092 C 0.0258 0.58052 0.44207 0.0
C1093 C 0.04572 0.59058 0.44697 0.0
C1094 C 0.07934 0.60832 0.49448 0.0
C1095 C 0.13571 0.6304 0.49148 0.0
C1096 C 0.11383 0.62316 0.48524 0.0
C1097 C 0.04989 0.60129 0.46677 0.0
C1098 C 0.07178 0.60953 0.47322 0.0
H1099 H 0.18651 0.61693 0.48577 0.0
H1100 H 0.14978 0.6041 0.47618 0.0
H1101 H 0.10563 0.6142 0.51687 0.0
H1102 H 1.00141 0.59251 0.48799 0.0
H1103 H 0.0357 0.61126 0.49612 0.0
C1104 C 0.82984 0.8465 0.50553 0.0
C1105 C 0.81205 0.85698 0.49872 0.0
C1106 C 0.85036 0.85374 0.50029 0.0
C1107 C 0.87812 0.88623 0.46079 0.0
H1108 H 0.92663 0.88361 0.49967 0.0
C1109 C 0.96102 0.91453 0.43325 0.0
C1110 C 0.97688 0.92132 0.44846 0.0
C1111 C 0.94211 0.90419 0.4394 0.0
C1112 C 0.91345 0.88487 0.48848 0.0
H1113 H 0.80182 0.88398 0.48235 0.0
H1114 H 0.83748 0.8965 0.47285 0.0
H1115 H 0.89161 0.87265 0.51104 0.0
H1116 H 0.98561 0.92276 0.48198 0.0
H1117 H 0.95268 0.90585 0.49305 0.0
H1118 H 0.89903 0.89964 0.43869 0.0
C1119 C 0.83567 0.88241 0.48183 0.0
C1120 C 0.89319 0.87815 0.49504 0.0
C1121 C 0.81522 0.87526 0.48725 0.0
C1122 C 0.97377 0.91716 0.46988 0.0
C1123 C 0.95462 0.90738 0.47617 0.0
C1124 C 0.89822 0.89334 0.45436 0.0
C1125 C 0.85354 0.87162 0.48805 0.0
C1126 C 0.87523 0.87875 0.48128 0.0
C1127 C 0.93804 0.90118 0.46112 0.0
C1128 C 0.91644 0.89281 0.468 0.0
H1129 H 0.82781 0.83252 0.51469 0.0
H1130 H 0.86366 0.845 0.50537 0.0
H1131 H 0.86477 0.88662 0.44957 0.0
H1132 H 0.96289 0.91797 0.41665 0.0
H1133 H 0.93061 0.89914 0.42688 0.0
C1134 C 0.33964 0.6522 0.52015 0.0
C1135 C 0.32335 0.64512 0.53331 0.0
C1136 C 0.36035 0.64622 0.52349 0.0
C1137 C 0.3965 0.62449 0.5638 0.0
H1138 H 0.42907 0.61175 0.51445 0.0
C1139 C 0.47326 0.5795 0.56685 0.0
C1140 C 0.48797 0.58286 0.55094 0.0
C1141 C 0.45493 0.59071 0.56728 0.0
C1142 C 0.42044 0.61568 0.52846 0.0
H1143 H 0.31608 0.62609 0.56027 0.0
H1144 H 0.35225 0.61529 0.5659 0.0
H1145 H 0.39324 0.62276 0.50954 0.0
H1146 H 0.49599 0.60139 0.52396 0.0
H1147 H 0.46466 0.62183 0.52532 0.0
H1148 H 0.42372 0.61703 0.58271 0.0
C1149 C 0.34906 0.6258 0.55321 0.0
C1150 C 0.39976 0.62192 0.52562 0.0
C1151 C 0.3283 0.63191 0.54994 0.0
C1152 C 0.48514 0.59895 0.53674 0.0
C1153 C 0.46691 0.61027 0.53723 0.0
C1154 C 0.41726 0.61825 0.56665 0.0
C1155 C 0.36536 0.6329 0.54001 0.0
C1156 C 0.38747 0.62636 0.54323 0.0
C1157 C 0.45099 0.60545 0.55174 0.0
C1158 C 0.42951 0.61371 0.54901 0.0
H1159 H 0.33647 0.66277 0.50749 0.0
H1160 H 0.37252 0.65235 0.51327 0.0
H1161 H 0.38762 0.62805 0.57774 0.0
H1162 H 0.47479 0.56669 0.57751 0.0
H1163 H 0.44305 0.58642 0.57861 0.0
C1164 C 0.559 0.6787 0.85287 0.0
C1165 C 0.54689 0.69335 0.86345 0.0
C1166 C 0.56041 0.65833 0.8603 0.0
C1167 C 0.55357 0.62807 0.90923 0.0
H1168 H 0.54758 0.5787 0.8714 0.0
C1169 C 0.52413 0.54997 0.93903 0.0
C1170 C 0.53584 0.53203 0.93635 0.0
C1171 C 0.52884 0.56815 0.92824 0.0
C1172 C 0.54976 0.59234 0.8821 0.0
H1173 H 0.52683 0.69785 0.89026 0.0
H1174 H 0.5292 0.66256 0.90313 0.0
H1175 H 0.54886 0.61384 0.85653 0.0
H1176 H 0.56116 0.51918 0.91864 0.0
H1177 H 0.56905 0.55148 0.89876 0.0
H1178 H 0.55371 0.60682 0.93476 0.0
C1179 C 0.53777 0.66679 0.88914 0.0
C1180 C 0.55038 0.61249 0.87362 0.0
C1181 C 0.53622 0.68704 0.88163 0.0
C1182 C 0.55186 0.53263 0.92126 0.0
C1183 C 0.55639 0.55112 0.90994 0.0
C1184 C 0.55298 0.6081 0.91762 0.0
C1185 C 0.54994 0.65213 0.87866 0.0
C1186 C 0.55164 0.63064 0.88715 0.0
C1187 C 0.54525 0.56928 0.9139 0.0
C1188 C 0.55043 0.58995 0.90425 0.0
H1189 H 0.56721 0.68289 0.83865 0.0
H1190 H 0.56996 0.64754 0.85183 0.0
H1191 H 0.55511 0.64158 0.92015 0.0
H1192 H 0.51143 0.55042 0.95013 0.0
H1193 H 0.51966 0.58161 0.93139 0.0
C1194 C 0.52886 0.85193 0.86896 0.0
C1195 C 0.52238 0.84349 0.84872 0.0
C1196 C 0.52458 0.87247 0.87515 0.0
C1197 C 0.50518 0.9232 0.85432 0.0
H1198 H 0.50052 0.93553 0.91462 0.0
C1199 C 0.47756 1.00273 0.89365 0.0
C1200 C 0.48963 0.00991 0.91203 0.0
C1201 C 0.4813 0.98325 0.88351 0.0
C1202 C 0.50184 0.93244 0.89769 0.0
H1203 H 0.50554 0.84981 0.81935 0.0
H1204 H 0.49706 0.8853 0.83039 0.0
H1205 H 0.50671 0.90025 0.90242 0.0
H1206 H 0.51611 1.00284 0.93295 0.0
H1207 H 0.52238 0.96958 0.91562 0.0
H1208 H 0.4995 0.95571 0.84994 0.0
C1209 C 0.50628 0.87647 0.84132 0.0
C1210 C 0.50564 0.91207 0.8906 0.0
C1211 C 0.51095 0.85597 0.83499 0.0
C1212 C 0.50624 0.9978 0.91905 0.0
C1213 C 0.50982 0.97855 0.90915 0.0
C1214 C 0.501 0.94364 0.86147 0.0
C1215 C 0.51299 0.88515 0.86159 0.0
C1216 C 0.50782 0.90703 0.86882 0.0
C1217 C 0.49703 0.97058 0.89168 0.0
C1218 C 0.49968 0.94863 0.88332 0.0
H1219 H 0.53733 0.84259 0.88007 0.0
H1220 H 0.53061 0.87836 0.89066 0.0
H1221 H 0.50685 0.92029 0.83744 0.0
H1222 H 0.46457 0.01152 0.88786 0.0
H1223 H 0.4712 0.97762 0.86999 0.0
C1224 C 0.54299 0.34444 0.64973 0.0
C1225 C 0.53262 0.32886 0.63618 0.0
C1226 C 0.54521 0.36517 0.64334 0.0
C1227 C 0.517 0.40058 0.61134 0.0
H1228 H 0.56875 0.43656 0.61198 0.0
C1229 C 0.51885 0.4785 0.57037 0.0
C1230 C 0.53193 0.49575 0.57848 0.0
C1231 C 0.51992 0.45891 0.57904 0.0
C1232 C 0.55409 0.42686 0.61211 0.0
H1233 H 0.51789 0.32207 0.60496 0.0
H1234 H 0.52116 0.35848 0.59395 0.0
H1235 H 0.56998 0.4004 0.62345 0.0
H1236 H 0.55629 0.5058 0.6024 0.0
H1237 H 0.55775 0.47136 0.61817 0.0
H1238 H 0.50082 0.42678 0.60077 0.0
C1239 C 0.52747 0.35472 0.6095 0.0
C1240 C 0.55486 0.40614 0.61851 0.0
C1241 C 0.52558 0.33399 0.61575 0.0
C1242 C 0.54598 0.49287 0.59581 0.0
C1243 C 0.54691 0.4731 0.60472 0.0
C1244 C 0.51614 0.42128 0.60538 0.0
C1245 C 0.53688 0.37055 0.62342 0.0
C1246 C 0.53637 0.39274 0.6177 0.0
C1247 C 0.53386 0.45587 0.59638 0.0
C1248 C 0.53473 0.43458 0.60514 0.0
H1249 H 0.5487 0.34068 0.66551 0.0
H1250 H 0.55252 0.37714 0.65432 0.0
H1251 H 0.50244 0.39067 0.61104 0.0
H1252 H 0.50788 0.47991 0.55694 0.0
H1253 H 0.51003 0.44602 0.57173 0.0
C1254 C 0.50546 0.1783 0.59932 0.0
C1255 C 0.49865 0.18478 0.61929 0.0
C1256 C 0.50055 0.15778 0.59168 0.0
C1257 C 0.46529 0.1105 0.60073 0.0
H1258 H 0.50719 0.08298 0.5681 0.0
C1259 C 0.45751 0.02252 0.57363 0.0
C1260 C 0.46187 0.0188 0.55211 0.0
C1261 C 0.46189 0.04245 0.58317 0.0
C1262 C 0.49535 0.09051 0.57718 0.0
H1263 H 0.48189 0.17533 0.64719 0.0
H1264 H 0.47407 0.1393 0.63433 0.0
H1265 H 0.51502 0.11872 0.58178 0.0
H1266 H 0.4735 0.03316 0.52358 0.0
H1267 H 0.4809 0.06767 0.54016 0.0
H1268 H 0.44577 0.08199 0.59623 0.0
C1269 C 0.48247 0.15005 0.62415 0.0
C1270 C 0.49974 0.11102 0.58488 0.0
C1271 C 0.48702 0.17061 0.63157 0.0
C1272 C 0.47026 0.03539 0.54027 0.0
C1273 C 0.47458 0.05517 0.54976 0.0
C1274 C 0.46098 0.08986 0.5932 0.0
C1275 C 0.48919 0.14337 0.60413 0.0
C1276 C 0.48465 0.12137 0.59646 0.0
C1277 C 0.47068 0.05883 0.57131 0.0
C1278 C 0.47585 0.07986 0.58107 0.0
H1279 H 0.51438 0.18914 0.58964 0.0
H1280 H 0.50561 0.15325 0.576 0.0
H1281 H 0.45321 0.11807 0.60943 0.0
H1282 H 0.45109 0.01 0.58314 0.0
H1283 H 0.4588 0.04497 0.59987 0.0
C1284 C 0.8501 0.51683 0.64267 0.0
C1285 C 0.86093 0.52851 0.65947 0.0
C1286 C 0.85576 0.51957 0.62162 0.0
C1287 C 0.88437 0.55658 0.58685 0.0
H1288 H 0.88623 0.50749 0.54935 0.0
C1289 C 0.92849 0.55761 0.50815 0.0
C1290 C 0.92362 0.54169 0.49257 0.0
C1291 C 0.91706 0.55847 0.52678 0.0
C1292 C 0.88533 0.52151 0.55931 0.0
H1293 H 0.88629 0.55208 0.66743 0.0
H1294 H 0.89659 0.55658 0.63063 0.0
H1295 H 0.87494 0.50354 0.58549 0.0
H1296 H 0.90196 0.51528 0.48323 0.0
H1297 H 0.88078 0.51768 0.51489 0.0
H1298 H 0.8947 0.5746 0.56072 0.0
C1299 C 0.8834 0.5456 0.63369 0.0
C1300 C 0.87897 0.51918 0.58021 0.0
C1301 C 0.8776 0.54297 0.65477 0.0
C1302 C 0.90572 0.528 0.49482 0.0
C1303 C 0.89397 0.52907 0.51329 0.0
C1304 C 0.89053 0.55896 0.56585 0.0
C1305 C 0.87251 0.53396 0.61683 0.0
C1306 C 0.87865 0.53664 0.59435 0.0
C1307 C 0.9003 0.5435 0.53013 0.0
C1308 C 0.89139 0.54142 0.55179 0.0
H1309 H 0.83691 0.50586 0.64578 0.0
H1310 H 0.84678 0.51061 0.60905 0.0
H1311 H 0.88397 0.57042 0.5972 0.0
H1312 H 0.94263 0.56795 0.50705 0.0
H1313 H 0.92271 0.56973 0.53923 0.0
C1314 C 0.10514 0.97622 0.65832 0.0
C1315 C 0.12273 0.99027 0.66308 0.0
C1316 C 0.09797 0.97243 0.63722 0.0
C1317 C 0.10064 0.99529 0.58448 0.0
H1318 H 0.08263 0.93894 0.56389 0.0
C1319 C 0.07677 0.97651 0.49684 0.0
C1320 C 0.05652 0.96635 0.49423 0.0
C1321 C 0.08705 0.97775 0.51686 0.0
C1322 C 0.08768 0.95472 0.5695 0.0
H1323 H 0.14705 0.01086 0.64992 0.0
H1324 H 0.1348 0.00406 0.61315 0.0
H1325 H 0.0955 0.94495 0.60085 0.0
H1326 H 0.0314 0.9486 0.50942 0.0
H1327 H 0.04954 0.95038 0.54447 0.0
H1328 H 0.09272 0.00508 0.55322 0.0
C1329 C 0.12611 0.99646 0.62559 0.0
C1330 C 0.09487 0.95818 0.5906 0.0
C1331 C 0.13308 1.00041 0.6466 0.0
C1332 C 0.04698 0.95667 0.51139 0.0
C1333 C 0.05741 0.95752 0.53126 0.0
C1334 C 0.09361 0.99181 0.5634 0.0
C1335 C 0.10851 0.98246 0.62068 0.0
C1336 C 0.10121 0.97854 0.59831 0.0
C1337 C 0.0773 0.96843 0.53424 0.0
C1338 C 0.08686 0.97155 0.55583 0.0
H1339 H 0.09707 0.96816 0.67088 0.0
H1340 H 0.08419 0.96175 0.63386 0.0
H1341 H 0.10514 0.01119 0.59008 0.0
H1342 H 0.08426 0.984 0.4836 0.0
H1343 H 0.10243 0.98621 0.51886 0.0
C1344 C 0.83925 0.50455 0.82759 0.0
C1345 C 0.85233 0.50297 0.81013 0.0
C1346 C 0.84715 0.50112 0.84825 0.0
C1347 C 0.89578 0.48162 0.87717 0.0
H1348 H 0.86709 0.50089 0.92688 0.0
C1349 C 0.92649 0.46037 0.95972 0.0
C1350 C 0.92604 0.47523 0.97654 0.0
C1351 C 0.9151 0.46286 0.94063 0.0
C1352 C 0.87551 0.4956 0.91321 0.0
H1353 H 0.88395 0.49753 0.80037 0.0
H1354 H 0.89828 0.49295 0.83594 0.0
H1355 H 0.85335 0.50848 0.89175 0.0
H1356 H 0.91296 0.50407 0.98704 0.0
H1357 H 0.89342 0.50896 0.95341 0.0
H1358 H 0.91894 0.47043 0.8986 0.0
C1359 C 0.8816 0.49558 0.83425 0.0
C1360 C 0.86735 0.49963 0.89276 0.0
C1361 C 0.87352 0.49847 0.81363 0.0
C1362 C 0.91326 0.49224 0.97433 0.0
C1363 C 0.9021 0.49501 0.95499 0.0
C1364 C 0.90424 0.47822 0.89748 0.0
C1365 C 0.86856 0.49653 0.85207 0.0
C1366 C 0.87726 0.4926 0.87423 0.0
C1367 C 0.90345 0.48069 0.93756 0.0
C1368 C 0.89413 0.48482 0.9159 0.0
H1369 H 0.82285 0.50829 0.82522 0.0
H1370 H 0.8362 0.50184 0.86103 0.0
H1371 H 0.90396 0.47526 0.86387 0.0
H1372 H 0.93637 0.44717 0.96105 0.0
H1373 H 0.91602 0.45103 0.92805 0.0
C1374 C 0.12539 0.02383 0.81321 0.0
C1375 C 0.14526 0.01603 0.80968 0.0
C1376 C 0.11913 0.02816 0.83395 0.0
C1377 C 0.13241 0.01841 0.89127 0.0
H1378 H 0.09576 0.06396 0.9001 0.0
C1379 C 0.0922 0.03161 0.97177 0.0
C1380 C 0.08456 0.05118 0.9768 0.0
C1381 C 0.10193 0.02805 0.9524 0.0
C1382 C 0.10637 0.05145 0.8983 0.0
H1383 H 0.17405 0.00615 0.82478 0.0
H1384 H 0.16351 0.01418 0.86106 0.0
H1385 H 0.10835 0.05674 0.86508 0.0
H1386 H 0.08149 0.08261 0.96613 0.0
H1387 H 0.09973 0.07716 0.93317 0.0
H1388 H 0.13162 0.01396 0.9247 0.0
C1389 C 0.15249 0.01674 0.84798 0.0
C1390 C 0.11324 0.04694 0.87783 0.0
C1391 C 0.15866 0.01227 0.8272 0.0
C1392 C 0.08763 0.06745 0.96269 0.0
C1393 C 0.0977 0.06408 0.94351 0.0
C1394 C 0.12598 0.02325 0.91189 0.0
C1395 C 0.13265 0.02491 0.8517 0.0
C1396 C 0.12609 0.03015 0.87387 0.0
C1397 C 0.10438 0.04409 0.93761 0.0
C1398 C 0.11257 0.0397 0.91578 0.0
H1399 H 0.11473 0.02661 0.79988 0.0
H1400 H 0.10354 0.0339 0.83598 0.0
H1401 H 0.14211 0.00521 0.88901 0.0
H1402 H 0.08958 0.01871 0.9823 0.0
H1403 H 0.10645 0.01235 0.94872 0.0
C1404 C 0.64579 0.85503 0.51558 0.0
C1405 C 0.66276 0.86435 0.52837 0.0
C1406 C 0.62515 0.86172 0.51722 0.0
C1407 C 0.59063 0.89367 0.55171 0.0
H1408 H 0.55513 0.89215 0.50015 0.0
C1409 C 0.51126 0.93606 0.54488 0.0
C1410 C 0.4957 0.92873 0.52939 0.0
C1411 C 0.53044 0.92613 0.54733 0.0
C1412 C 0.56452 0.89236 0.51489 0.0
H1413 H 0.67109 0.88811 0.55307 0.0
H1414 H 0.63526 0.90029 0.55554 0.0
H1415 H 0.59057 0.87997 0.49892 0.0
H1416 H 0.48777 0.9046 0.50509 0.0
H1417 H 0.52031 0.88646 0.51018 0.0
H1418 H 0.56453 0.90644 0.56756 0.0
C1419 C 0.63774 0.8874 0.5445 0.0
C1420 C 0.58511 0.88534 0.51416 0.0
C1421 C 0.65841 0.88049 0.54304 0.0
C1422 C 0.49911 0.91029 0.5176 0.0
C1423 C 0.51815 0.90023 0.52016 0.0
C1424 C 0.56997 0.90074 0.55243 0.0
C1425 C 0.62073 0.8782 0.53152 0.0
C1426 C 0.59859 0.88582 0.53254 0.0
C1427 C 0.53463 0.90857 0.53429 0.0
C1428 C 0.55649 0.90018 0.53402 0.0
H1429 H 0.6484 0.84227 0.50441 0.0
H1430 H 0.61262 0.85372 0.50731 0.0
H1431 H 0.60024 0.89412 0.56633 0.0
H1432 H 0.5095 0.95067 0.55366 0.0
H1433 H 0.54257 0.93326 0.55831 0.0
C1434 C 0.68071 0.17405 0.99824 0.0
C1435 C 0.69468 0.16027 0.0071 0.0
C1436 C 0.65995 0.16706 0.99236 0.0
C1437 C 0.61912 0.12588 0.00285 0.0
H1438 H 0.59302 0.14292 0.94996 0.0
C1439 C 0.53209 0.10304 0.98288 0.0
C1440 C 0.52703 0.09561 0.96199 0.0
C1441 C 0.55158 0.1137 0.98784 0.0
C1442 C 0.60012 0.13794 0.96472 0.0
H1443 H 0.69861 0.12848 0.0164 0.0
H1444 H 0.66204 0.11606 0.0062 0.0
H1445 H 0.62971 0.15472 0.95942 0.0
H1446 H 0.53757 0.09401 0.92968 0.0
H1447 H 0.57228 0.11198 0.93843 0.0
H1448 H 0.59001 0.10844 0.00786 0.0
C1449 C 0.667 0.13234 0.00406 0.0
C1450 C 0.62104 0.14487 0.97023 0.0
C1451 C 0.68783 0.13935 0.00987 0.0
C1452 C 0.54122 0.09983 0.94586 0.0
C1453 C 0.56101 0.11012 0.95091 0.0
C1454 C 0.5983 0.11886 0.99729 0.0
C1455 C 0.65287 0.14615 0.99526 0.0
C1456 C 0.63073 0.13885 0.98933 0.0
C1457 C 0.56662 0.1166 0.9721 0.0
C1458 C 0.58853 0.12481 0.97817 0.0
H1459 H 0.68591 0.19025 0.99591 0.0
H1460 H 0.64937 0.17809 0.98581 0.0
H1461 H 0.6261 0.12121 0.01779 0.0
H1462 H 0.52118 0.10004 0.9955 0.0
H1463 H 0.55512 0.11903 0.00418 0.0
C1464 C 0.33144 0.38823 0.00025 0.0
C1465 C 0.32742 0.36903 0.00993 0.0
C1466 C 0.35225 0.39538 0.99631 0.0
C1467 C 0.40787 0.39322 0.01241 0.0
H1468 H 0.41863 0.4046 0.95352 0.0
C1469 C 0.49166 0.42322 0.98639 0.0
C1470 C 0.49163 0.43874 0.97116 0.0
C1471 C 0.47265 0.41177 0.99076 0.0
C1472 C 0.41598 0.40183 0.97012 0.0
H1473 H 0.34182 0.34286 0.02431 0.0
H1474 H 0.37845 0.35566 0.01785 0.0
H1475 H 0.38321 0.39258 0.96333 0.0
H1476 H 0.47224 0.45405 0.94813 0.0
H1477 H 0.43955 0.43476 0.95573 0.0
H1478 H 0.44034 0.40356 0.01949 0.0
C1479 C 0.36547 0.36495 0.01299 0.0
C1480 C 0.39563 0.39482 0.97568 0.0
C1481 C 0.3446 0.35761 0.01659 0.0
C1482 C 0.47271 0.44193 0.95975 0.0
C1483 C 0.4539 0.43072 0.96411 0.0
C1484 C 0.42823 0.40076 0.00694 0.0
C1485 C 0.36944 0.3837 0.00246 0.0
C1486 C 0.39131 0.39064 0.99686 0.0
C1487 C 0.45338 0.41573 0.97996 0.0
C1488 C 0.4325 0.40548 0.98572 0.0
H1489 H 0.31844 0.39755 0.9955 0.0
H1490 H 0.35495 0.41003 0.98839 0.0
H1491 H 0.4049 0.39005 0.02889 0.0
H1492 H 0.50599 0.4208 0.99571 0.0
H1493 H 0.47298 0.40022 0.00293 0.0
C1494 C 0.85714 0.16887 0.02455 0.0
C1495 C 0.84059 0.15783 0.03452 0.0
C1496 C 0.87777 0.16237 0.026 0.0
C1497 C 0.91357 0.12999 0.05651 0.0
H1498 H 0.94462 0.13043 0.00449 0.0
C1499 C 0.99055 0.08688 0.04733 0.0
C1500 C 0.00376 0.09189 0.03058 0.0
C1501 C 0.97255 0.09801 0.05079 0.0
C1502 C 0.9366 0.13067 0.01941 0.0
H1503 H 0.83257 0.13157 0.05414 0.0
H1504 H 0.86883 0.11978 0.05637 0.0
H1505 H 0.90926 0.14271 0.00445 0.0
H1506 H 0.00977 0.11331 0.00538 0.0
H1507 H 0.97964 0.13411 0.01254 0.0
H1508 H 0.94098 0.11828 0.07164 0.0
C1509 C 0.86584 0.13368 0.04768 0.0
C1510 C 0.91608 0.13758 0.01928 0.0
C1511 C 0.84512 0.14034 0.04637 0.0
C1512 C 1.00001 0.10948 0.01871 0.0
C1513 C 0.98232 0.12098 0.02248 0.0
C1514 C 0.9343 0.12338 0.05676 0.0
C1515 C 0.88236 0.14455 0.03732 0.0
C1516 C 0.90426 0.13722 0.03777 0.0
C1517 C 0.96755 0.11459 0.03767 0.0
C1518 C 0.94613 0.12345 0.03815 0.0
H1519 H 0.85411 0.18265 0.01565 0.0
H1520 H 0.89017 0.17137 0.01825 0.0
H1521 H 0.90495 0.12973 0.0711 0.0
H1522 H 0.99287 0.07298 0.0563 0.0
H1523 H 0.96176 0.09233 0.06257 0.0
C1524 C 0.0508 0.19827 0.24692 0.0
C1525 C 0.0486 0.21953 0.24327 0.0
C1526 C 0.05121 0.18378 0.2298 0.0
C1527 C 0.05672 0.17921 0.17094 0.0
H1528 H 0.0243 0.12628 0.17646 0.0
C1529 C 0.03898 0.12387 0.09834 0.0
C1530 C 0.04545 0.10352 0.10107 0.0
C1531 C 0.03653 0.13725 0.11601 0.0
C1532 C 0.03343 0.14097 0.1747 0.0
H1533 H 0.04569 0.24263 0.21927 0.0
H1534 H 0.04629 0.21742 0.18921 0.0
H1535 H 0.02831 0.15132 0.20671 0.0
H1536 H 0.05291 0.08063 0.12424 0.0
H1537 H 0.0476 0.10361 0.1552 0.0
H1538 H 0.06163 0.1689 0.13886 0.0
C1539 C 0.04799 0.21181 0.20518 0.0
C1540 C 0.03591 0.15528 0.19209 0.0
C1541 C 0.04761 0.22628 0.22234 0.0
C1542 C 0.04726 0.09604 0.12173 0.0
C1543 C 0.04453 0.10933 0.13945 0.0
C1544 C 0.05409 0.16498 0.15353 0.0
C1545 C 0.0493 0.19028 0.20868 0.0
C1546 C 0.04752 0.17464 0.19043 0.0
C1547 C 0.04033 0.13043 0.13674 0.0
C1548 C 0.04231 0.14574 0.15516 0.0
H1549 H 0.05147 0.19281 0.26303 0.0
H1550 H 0.05265 0.16742 0.23312 0.0
H1551 H 0.06611 0.19374 0.16915 0.0
H1552 H 0.03812 0.13018 0.08257 0.0
H1553 H 0.03298 0.15333 0.11342 0.0
C1554 C 0.02276 0.35594 0.24053 0.0
C1555 C 0.02581 0.33473 0.23621 0.0
C1556 C 0.01862 0.36915 0.22382 0.0
C1557 C 0.99695 0.36604 0.16888 0.0
H1558 H 0.02198 0.42261 0.16489 0.0
C1559 C 0.98489 0.40912 0.09299 0.0
C1560 C 0.97815 0.42946 0.09527 0.0
C1561 C 0.9938 0.39952 0.11037 0.0
C1562 C 0.0148 0.40688 0.1659 0.0
H1563 H 0.02777 0.31056 0.21162 0.0
H1564 H 0.02106 0.33363 0.18232 0.0
H1565 H 0.03109 0.40193 0.19565 0.0
H1566 H 0.97613 0.4563 0.11679 0.0
H1567 H 0.99157 0.43934 0.14759 0.0
H1568 H 0.98053 0.37081 0.13945 0.0
C1569 C 0.0214 0.34008 0.19849 0.0
C1570 C 0.01997 0.39509 0.18348 0.0
C1571 C 0.02539 0.32693 0.21514 0.0
C1572 C 0.98164 0.44068 0.11474 0.0
C1573 C 0.99037 0.43095 0.13231 0.0
C1574 C 0.99182 0.37774 0.15143 0.0
C1575 C 0.01751 0.3612 0.20266 0.0
C1576 C 0.01136 0.37441 0.18489 0.0
C1577 C 0.99567 0.40995 0.13044 0.0
C1578 C 1.00099 0.39812 0.14951 0.0
H1579 H 0.0229 0.36207 0.25681 0.0
H1580 H 0.01553 0.38531 0.22748 0.0
H1581 H 0.98956 0.35037 0.16983 0.0
H1582 H 0.98213 0.40024 0.07806 0.0
H1583 H 0.9982 0.38349 0.10834 0.0
C1584 C 0.03219 0.80855 0.2419 0.0
C1585 C 0.02844 0.81368 0.22073 0.0
C1586 C 0.03243 0.82399 0.25805 0.0
C1587 C 0.01022 0.87447 0.26978 0.0
H1588 H 0.04616 0.87297 0.32088 0.0
C1589 C 0.02285 0.93231 0.3452 0.0
C1590 C 0.02058 0.92165 0.36417 0.0
C1591 C 0.01995 0.92129 0.32561 0.0
C1592 C 0.03603 0.87349 0.30666 0.0
H1593 H 0.02288 0.83866 0.1993 0.0
H1594 H 0.02351 0.86602 0.22765 0.0
H1595 H 0.05278 0.85031 0.29018 0.0
H1596 H 0.0117 0.89195 0.37788 0.0
H1597 H 0.00692 0.87271 0.34376 0.0
H1598 H 0.99367 0.89796 0.28654 0.0
C1599 C 0.02603 0.85006 0.23183 0.0
C1600 C 0.03979 0.86056 0.28914 0.0
C1601 C 0.02583 0.83455 0.21566 0.0
C1602 C 0.01298 0.90055 0.36337 0.0
C1603 C 0.01052 0.8895 0.34392 0.0
C1604 C 0.00663 0.88765 0.2873 0.0
C1605 C 0.02886 0.84483 0.25323 0.0
C1606 C 0.02662 0.86054 0.27069 0.0
C1607 C 0.01516 0.89957 0.32506 0.0
C1608 C 0.01922 0.88682 0.30596 0.0
H1609 H 0.03407 0.79243 0.24599 0.0
H1610 H 0.03438 0.81939 0.27437 0.0
H1611 H 0.99965 0.87463 0.25586 0.0
H1612 H 0.02922 0.94843 0.34556 0.0
H1613 H 0.02367 0.92924 0.31114 0.0
C1614 C 0.0083 0.6698 0.23333 0.0
C1615 C 1.00129 0.69021 0.23434 0.0
C1616 C 0.00532 0.65644 0.25036 0.0
C1617 C 0.97579 0.65163 0.30123 0.0
H1618 H 0.01601 0.60976 0.31322 0.0
C1619 C 0.97387 0.60927 0.37944 0.0
C1620 C 0.96802 0.58782 0.3762 0.0
C1621 C 0.98209 0.62098 0.36286 0.0
C1622 C 0.00473 0.62145 0.31005 0.0
H1623 H 0.98612 0.7128 0.25405 0.0
H1624 H 0.9819 0.69022 0.28401 0.0
H1625 H 0.02067 0.63172 0.28245 0.0
H1626 H 0.96829 0.56147 0.3538 0.0
H1627 H 0.984 0.58166 0.32525 0.0
H1628 H 0.96037 0.64177 0.32932 0.0
C1629 C 0.98886 0.68391 0.26989 0.0
C1630 C 0.0072 0.63394 0.29226 0.0
C1631 C 0.99142 0.69704 0.25272 0.0
C1632 C 0.97325 0.57781 0.35701 0.0
C1633 C 0.98188 0.58947 0.34051 0.0
C1634 C 0.97366 0.63954 0.31922 0.0
C1635 C 0.99566 0.66332 0.26902 0.0
C1636 C 0.99282 0.64936 0.28761 0.0
C1637 C 0.98507 0.61137 0.34286 0.0
C1638 C 0.98815 0.6244 0.32392 0.0
H1639 H 0.01584 0.6641 0.21925 0.0
H1640 H 0.01044 0.64066 0.24871 0.0
H1641 H 0.96387 0.66266 0.29801 0.0
H1642 H 0.96945 0.61754 0.39378 0.0
H1643 H 0.98454 0.63783 0.36514 0.0
C1644 C 0.23513 0.02461 0.19038 0.0
C1645 C 0.25609 0.02833 0.18427 0.0
C1646 C 0.21827 0.0256 0.17552 0.0
C1647 C 0.20593 0.02115 0.11752 0.0
H1648 H 0.15305 0.04382 0.13349 0.0
C1649 C 0.13914 0.04328 0.05901 0.0
C1650 C 0.11898 0.04527 0.06728 0.0
C1651 C 0.15538 0.03548 0.07155 0.0
C1652 C 0.16751 0.03694 0.12886 0.0
H1653 H 0.27617 0.03633 0.15825 0.0
H1654 H 0.24664 0.03842 0.13214 0.0
H1655 H 0.18276 0.04512 0.15915 0.0
H1656 H 0.09864 0.03643 0.09279 0.0
H1657 H 0.12642 0.02136 0.11403 0.0
H1658 H 0.19069 0.01335 0.08702 0.0
C1659 C 0.24316 0.03449 0.14831 0.0
C1660 C 0.18465 0.03786 0.14358 0.0
C1661 C 0.26003 0.03352 0.16323 0.0
C1662 C 0.11403 0.03501 0.08598 0.0
C1663 C 0.13018 0.02702 0.09849 0.0
C1664 C 0.18873 0.02023 0.10275 0.0
C1665 C 0.22206 0.03023 0.1542 0.0
C1666 C 0.20407 0.02992 0.13816 0.0
C1667 C 0.15139 0.02897 0.09224 0.0
C1668 C 0.16925 0.02802 0.10826 0.0
H1669 H 0.23186 0.02037 0.20653 0.0
H1670 H 0.20229 0.02201 0.1806 0.0
H1671 H 0.22058 0.01468 0.11285 0.0
H1672 H 0.14336 0.05115 0.04462 0.0
H1673 H 0.17142 0.037 0.06601 0.0
C1674 C 0.76981 0.5094 0.185 0.0
C1675 C 0.75251 0.49447 0.18293 0.0
C1676 C 0.78671 0.50864 0.17127 0.0
C1677 C 0.80079 0.49103 0.11806 0.0
H1678 H 0.85842 0.49415 0.14159 0.0
C1679 C 0.87151 0.47347 0.0661 0.0
C1680 C 0.89237 0.47802 0.07408 0.0
C1681 C 0.85421 0.47918 0.07776 0.0
C1682 C 0.84257 0.49386 0.13447 0.0
H1683 H 0.73933 0.46706 0.16477 0.0
H1684 H 0.76879 0.46598 0.14035 0.0
H1685 H 0.82902 0.49542 0.16523 0.0
H1686 H 0.91153 0.49436 0.09925 0.0
H1687 H 0.88152 0.50664 0.11843 0.0
H1688 H 0.81394 0.49045 0.08734 0.0
C1689 C 0.76925 0.4782 0.15274 0.0
C1690 C 0.82562 0.49431 0.14822 0.0
C1691 C 0.75248 0.47874 0.16677 0.0
C1692 C 0.89563 0.49096 0.09248 0.0
C1693 C 0.87825 0.49732 0.10389 0.0
C1694 C 0.81773 0.49118 0.10424 0.0
C1695 C 0.78659 0.49313 0.1549 0.0
C1696 C 0.80454 0.49268 0.14019 0.0
C1697 C 0.85725 0.49024 0.09751 0.0
C1698 C 0.83902 0.49232 0.11216 0.0
H1699 H 0.77037 0.52159 0.19742 0.0
H1700 H 0.79978 0.5204 0.17327 0.0
H1701 H 0.78469 0.49002 0.11139 0.0
H1702 H 0.86853 0.46304 0.05223 0.0
H1703 H 0.83864 0.47313 0.07197 0.0
C1704 C 0.2425 0.99015 0.31743 0.0
C1705 C 0.24092 1.00212 0.2993 0.0
C1706 C 0.22519 0.98744 0.33043 0.0
C1707 C 0.17438 0.01058 0.34252 0.0
H1708 H 0.16427 0.95882 0.37185 0.0
C1709 C 0.09855 0.98459 0.38706 0.0
C1710 C 0.10221 0.97404 0.40589 0.0
C1711 C 0.11567 0.99145 0.37509 0.0
C1712 C 0.16708 0.97344 0.3639 0.0
H1713 H 0.22035 0.01997 0.27974 0.0
H1714 H 0.18965 0.01454 0.30187 0.0
H1715 H 0.1932 0.96199 0.3474 0.0
H1716 H 0.12613 0.96432 0.42831 0.0
H1717 H 0.15607 0.97689 0.40773 0.0
H1718 H 0.14762 0.02161 0.35861 0.0
C1719 C 0.20437 0.00791 0.30665 0.0
C1720 C 0.18365 0.97528 0.34993 0.0
C1721 C 0.22182 0.01095 0.29393 0.0
C1722 C 0.12305 0.9726 0.41389 0.0
C1723 C 0.1401 0.97948 0.402 0.0
C1724 C 0.15758 0.0086 0.35627 0.0
C1725 C 0.20592 0.99634 0.3252 0.0
C1726 C 0.18768 0.99398 0.33928 0.0
C1727 C 0.13648 0.98783 0.38197 0.0
C1728 C 0.15405 0.99016 0.36731 0.0
H1729 H 0.25723 0.98323 0.3217 0.0
H1730 H 0.22706 0.97871 0.34475 0.0
H1731 H 0.17717 0.0253 0.3348 0.0
H1732 H 0.08257 0.98537 0.38041 0.0
H1733 H 0.11255 0.99783 0.35964 0.0
C1734 C 0.73611 0.52274 0.32691 0.0
C1735 C 0.74042 0.5164 0.30604 0.0
C1736 C 0.75228 0.52378 0.34269 0.0
C1737 C 0.79852 0.49704 0.35643 0.0
H1738 H 0.81833 0.54533 0.39213 0.0
C1739 C 0.88122 0.50907 0.39368 0.0
C1740 C 0.88485 0.52314 0.41112 0.0
C1741 C 0.86056 0.50355 0.38624 0.0
C1742 C 0.81255 0.53149 0.38278 0.0
H1743 H 0.7645 0.50729 0.28461 0.0
H1744 H 0.79289 0.50886 0.3123 0.0
H1745 H 0.7885 0.54808 0.36681 0.0
H1746 H 0.8703 0.54038 0.43629 0.0
H1747 H 0.83396 0.53038 0.4236 0.0
H1748 H 0.82258 0.48044 0.37199 0.0
C1749 C 0.77714 0.51295 0.31649 0.0
C1750 C 0.79567 0.5332 0.36816 0.0
C1751 C 0.76107 0.51212 0.30074 0.0
C1752 C 0.86773 0.52924 0.42294 0.0
C1753 C 0.84698 0.52384 0.41543 0.0
C1754 C 0.81515 0.49522 0.37122 0.0
C1755 C 0.7727 0.5182 0.33764 0.0
C1756 C 0.78901 0.51615 0.3545 0.0
C1757 C 0.84332 0.51221 0.39614 0.0
C1758 C 0.82279 0.51259 0.38411 0.0
H1759 H 0.72013 0.52605 0.3311 0.0
H1760 H 0.74864 0.52787 0.35895 0.0
H1761 H 0.79331 0.48362 0.34617 0.0
H1762 H 0.89431 0.50446 0.38424 0.0
H1763 H 0.85836 0.49459 0.37133 0.0
C1764 C 0.21119 0.24889 0.02551 0.0
C1765 C 0.2075 0.26891 0.0337 0.0
C1766 C 0.19484 0.23318 0.02435 0.0
C1767 C 0.14321 0.21553 0.04349 0.0
H1768 H 0.1339 0.19095 0.98639 0.0
C1769 C 0.0785 0.15085 0.02847 0.0
C1770 C 0.08649 0.13295 0.01905 0.0
C1771 C 0.08923 0.17042 0.02662 0.0
C1772 C 0.13627 0.1976 0.00242 0.0
H1773 H 0.18463 0.28822 0.04818 0.0
H1774 H 0.15589 0.26043 0.04655 0.0
H1775 H 0.16279 0.21754 0.99373 0.0
H1776 H 0.10975 0.12153 0.99791 0.0
H1777 H 0.12829 0.15542 0.99428 0.0
H1778 H 0.11745 0.19491 0.05253 0.0
C1779 C 0.17137 0.25694 0.04099 0.0
C1780 C 0.15285 0.21276 0.00663 0.0
C1781 C 0.18771 0.27274 0.04198 0.0
C1782 C 0.10314 0.13524 0.00502 0.0
C1783 C 0.11393 0.15473 0.0032 0.0
C1784 C 0.12678 0.20011 0.03937 0.0
C1785 C 0.17462 0.23728 0.03146 0.0
C1786 C 0.15664 0.22164 0.02723 0.0
C1787 C 0.10803 0.17222 0.01528 0.0
C1788 C 0.12328 0.19076 0.01881 0.0
H1789 H 0.2264 0.24577 0.01904 0.0
H1790 H 0.19778 0.21803 0.01723 0.0
H1791 H 0.14587 0.22215 0.05951 0.0
H1792 H 0.06584 0.14933 0.03962 0.0
H1793 H 0.08393 0.18371 0.03563 0.0
C1794 C 0.18145 0.78002 0.50036 0.0
C1795 C 0.17386 0.75906 0.50157 0.0
C1796 C 0.16751 0.79571 0.4962 0.0
C1797 C 0.10889 0.80564 0.49155 0.0
H1798 H 0.13106 0.85605 0.46553 0.0
C1799 C 0.05824 0.86731 0.44995 0.0
C1800 C 0.06581 0.88847 0.45188 0.0
C1801 C 0.06937 0.85162 0.45967 0.0
C1802 C 0.12462 0.84219 0.47305 0.0
H1803 H 0.14582 0.73789 0.49905 0.0
H1804 H 0.12152 0.76483 0.49047 0.0
H1805 H 0.15453 0.82854 0.47314 0.0
H1806 H 0.09016 0.90977 0.46695 0.0
H1807 H 0.10932 0.88257 0.48427 0.0
H1808 H 0.07856 0.81917 0.48999 0.0
C1809 C 0.13808 0.76963 0.49363 0.0
C1810 C 0.1382 0.82628 0.47759 0.0
C1811 C 0.15202 0.75402 0.49841 0.0
C1812 C 0.08348 0.89375 0.46566 0.0
C1813 C 0.0948 0.87806 0.47513 0.0
C1814 C 0.0952 0.82141 0.4865 0.0
C1815 C 0.14554 0.79084 0.49243 0.0
C1816 C 0.1307 0.80773 0.48716 0.0
C1817 C 0.08849 0.85673 0.47137 0.0
C1818 C 0.10293 0.84001 0.47742 0.0
H1819 H 0.19825 0.78432 0.50284 0.0
H1820 H 0.17414 0.81169 0.49615 0.0
H1821 H 0.10225 0.79196 0.49916 0.0
H1822 H 0.04515 0.86262 0.43887 0.0
H1823 H 0.06405 0.83537 0.45637 0.0
C1824 C 0.82151 0.74613 0.48436 0.0
C1825 C 0.81227 0.74822 0.50428 0.0
C1826 C 0.83446 0.72973 0.47982 0.0
C1827 C 0.85112 0.67816 0.50076 0.0
H1828 H 0.89007 0.68363 0.45485 0.0
C1829 C 0.8933 0.60675 0.46646 0.0
C1830 C 0.91206 0.61022 0.45548 0.0
C1831 C 0.88266 0.62368 0.47474 0.0
C1832 C 0.8797 0.68177 0.46807 0.0
H1833 H 0.81015 0.73478 0.53533 0.0
H1834 H 0.83381 0.70704 0.52806 0.0
H1835 H 0.87031 0.71293 0.46523 0.0
H1836 H 0.93476 0.63395 0.44495 0.0
H1837 H 0.91732 0.66336 0.46057 0.0
H1838 H 0.86187 0.64744 0.50458 0.0
C1839 C 0.83043 0.71755 0.51545 0.0
C1840 C 0.86773 0.69866 0.47375 0.0
C1841 C 0.81707 0.7338 0.51985 0.0
C1842 C 0.92056 0.63084 0.4538 0.0
C1843 C 0.91017 0.64775 0.46236 0.0
C1844 C 0.86361 0.66145 0.49551 0.0
C1845 C 0.8392 0.71502 0.49521 0.0
C1846 C 0.85291 0.69714 0.48998 0.0
C1847 C 0.89059 0.64456 0.47231 0.0
C1848 C 0.87799 0.66284 0.47888 0.0
H1849 H 0.81857 0.75712 0.47204 0.0
H1850 H 0.84027 0.7285 0.46389 0.0
H1851 H 0.83982 0.67586 0.51311 0.0
H1852 H 0.88613 0.591 0.46743 0.0
H1853 H 0.86761 0.62026 0.48196 0.0
C1854 C 0.31542 0.74704 0.54256 0.0
C1855 C 0.2955 0.75015 0.53313 0.0
C1856 C 0.33149 0.76303 0.54278 0.0
C1857 C 0.34903 0.80693 0.51167 0.0
H1858 H 0.3823 0.82665 0.5621 0.0
C1859 C 0.39804 0.88534 0.51847 0.0
C1860 C 0.41454 0.88772 0.53398 0.0
C1861 C 0.38683 0.86598 0.51516 0.0
C1862 C 0.3736 0.82096 0.5477 0.0
H1863 H 0.27603 0.77203 0.51741 0.0
H1864 H 0.30418 0.80016 0.51774 0.0
H1865 H 0.35494 0.79854 0.56476 0.0
H1866 H 0.4342 0.87185 0.5563 0.0
H1867 H 0.41564 0.83759 0.54947 0.0
H1868 H 0.36764 0.82925 0.49453 0.0
C1869 C 0.30745 0.78544 0.52482 0.0
C1870 C 0.35779 0.80502 0.54934 0.0
C1871 C 0.29138 0.76956 0.5248 0.0
C1872 C 0.42143 0.87019 0.54428 0.0
C1873 C 0.41061 0.85072 0.54057 0.0
C1874 C 0.36506 0.82269 0.50994 0.0
C1875 C 0.32774 0.78209 0.53332 0.0
C1876 C 0.34516 0.79817 0.53143 0.0
C1877 C 0.39231 0.84875 0.52709 0.0
C1878 C 0.37731 0.83012 0.52801 0.0
H1879 H 0.31879 0.732 0.54886 0.0
H1880 H 0.34706 0.76019 0.54941 0.0
H1881 H 0.33961 0.8016 0.49757 0.0
H1882 H 0.39237 0.89885 0.5106 0.0
H1883 H 0.37278 0.86509 0.50472 0.0
C1884 C 0.55358 0.70502 0.75663 0.0
C1885 C 0.54513 0.72445 0.75332 0.0
C1886 C 0.55217 0.68943 0.74038 0.0
C1887 C 0.51876 0.67309 0.69268 0.0
H1888 H 0.56237 0.63439 0.68227 0.0
C1889 C 0.51938 0.61577 0.61941 0.0
C1890 C 0.52922 0.59692 0.622 0.0
C1891 C 0.5181 0.62992 0.6367 0.0
C1892 C 0.54987 0.64485 0.68525 0.0
H1893 H 0.52941 0.74337 0.73055 0.0
H1894 H 0.52731 0.71636 0.7019 0.0
H1895 H 0.56916 0.66307 0.70865 0.0
H1896 H 0.54352 0.57707 0.64488 0.0
H1897 H 0.54059 0.60134 0.67527 0.0
H1898 H 0.49957 0.655 0.66909 0.0
C1899 C 0.53471 0.71294 0.71707 0.0
C1900 C 0.55383 0.66136 0.7003 0.0
C1901 C 0.53612 0.72847 0.73331 0.0
C1902 C 0.53537 0.59129 0.64258 0.0
C1903 C 0.53421 0.60544 0.65986 0.0
C1904 C 0.51482 0.6566 0.67761 0.0
C1905 C 0.54216 0.69302 0.72059 0.0
C1906 C 0.53832 0.67571 0.70419 0.0
C1907 C 0.52673 0.62542 0.65684 0.0
C1908 C 0.5303 0.64225 0.67374 0.0
H1909 H 0.56035 0.70157 0.77208 0.0
H1910 H 0.55796 0.67426 0.7437 0.0
H1911 H 0.5063 0.68362 0.69555 0.0
H1912 H 0.5151 0.6207 0.60359 0.0
H1913 H 0.51224 0.64516 0.63381 0.0
C1914 C 0.50164 0.85001 0.74251 0.0
C1915 C 0.52022 0.83907 0.7428 0.0
C1916 C 0.49653 0.86201 0.72523 0.0
C1917 C 0.5176 0.88488 0.67592 0.0
H1918 H 0.45767 0.8824 0.66038 0.0
C1919 C 0.48396 0.93582 0.60965 0.0
C1920 C 0.46368 0.93015 0.60097 0.0
C1921 C 0.49279 0.92369 0.62546 0.0
C1922 C 0.47457 0.88297 0.66389 0.0
H1923 H 0.54855 0.83284 0.72582 0.0
H1924 H 0.53942 0.85344 0.6953 0.0
H1925 H 0.4696 0.86383 0.6905 0.0
H1926 H 0.43731 0.90681 0.60034 0.0
H1927 H 0.45307 0.88493 0.62604 0.0
H1928 H 0.52279 0.90266 0.64831 0.0
C1929 C 0.5289 0.85302 0.70852 0.0
C1930 C 0.48137 0.87267 0.68176 0.0
C1931 C 0.53413 0.84117 0.72598 0.0
C1932 C 0.45301 0.91154 0.60696 0.0
C1933 C 0.46195 0.8992 0.62216 0.0
C1934 C 0.51087 0.89468 0.65754 0.0
C1935 C 0.50975 0.86312 0.7077 0.0
C1936 C 0.5029 0.8738 0.68826 0.0
C1937 C 0.48153 0.90556 0.63249 0.0
C1938 C 0.48918 0.89409 0.65133 0.0
H1939 H 0.49086 0.849 0.75551 0.0
H1940 H 0.482 0.87013 0.72549 0.0
H1941 H 0.53432 0.88619 0.68052 0.0
H1942 H 0.49245 0.95009 0.60506 0.0
H1943 H 0.50791 0.92926 0.63279 0.0
C1944 C 0.54884 0.33316 0.7632 0.0
C1945 C 0.54005 0.33734 0.74318 0.0
C1946 C 0.54977 0.34846 0.77952 0.0
C1947 C 0.52328 0.3959 0.79581 0.0
H1948 H 0.56625 0.39766 0.84149 0.0
C1949 C 0.5406 0.45346 0.87114 0.0
C1950 C 0.54044 0.4423 0.88991 0.0
C1951 C 0.53693 0.44275 0.85147 0.0
C1952 C 0.5542 0.39731 0.82876 0.0
H1953 H 0.52662 0.36088 0.72379 0.0
H1954 H 0.52907 0.38812 0.75214 0.0
H1955 H 0.57071 0.37611 0.80949 0.0
H1956 H 0.53526 0.41182 0.90342 0.0
H1957 H 0.52922 0.39308 0.86907 0.0
H1958 H 0.5071 0.41758 0.81533 0.0
C1959 C 0.53457 0.37284 0.7555 0.0
C1960 C 0.55667 0.38493 0.81051 0.0
C1961 C 0.53332 0.35738 0.73926 0.0
C1962 C 0.53489 0.42072 0.88906 0.0
C1963 C 0.53162 0.41001 0.8695 0.0
C1964 C 0.52102 0.40861 0.81399 0.0
C1965 C 0.54223 0.36835 0.77599 0.0
C1966 C 0.54098 0.38365 0.79405 0.0
C1967 C 0.53358 0.42086 0.85063 0.0
C1968 C 0.53624 0.40894 0.83071 0.0
H1969 H 0.55388 0.31768 0.76655 0.0
H1970 H 0.55543 0.34429 0.79517 0.0
H1971 H 0.51075 0.39508 0.78356 0.0
H1972 H 0.54538 0.47003 0.87157 0.0
H1973 H 0.53866 0.45125 0.83697 0.0
C1974 C 0.52323 0.21718 0.75362 0.0
C1975 C 0.51198 0.21284 0.73415 0.0
C1976 C 0.52145 0.20328 0.77033 0.0
C1977 C 0.48615 0.15995 0.7901 0.0
H1978 H 0.53508 0.14938 0.82629 0.0
C1979 C 0.48079 0.09596 0.85147 0.0
C1980 C 0.4847 0.10338 0.87265 0.0
C1981 C 0.4874 0.10793 0.83441 0.0
C1982 C 0.52128 0.15225 0.81637 0.0
H1983 H 0.49029 0.19042 0.71676 0.0
H1984 H 0.48686 0.16623 0.74594 0.0
H1985 H 0.5391 0.17319 0.79675 0.0
H1986 H 0.50067 0.1283 0.89236 0.0
H1987 H 0.5138 0.14849 0.86245 0.0
H1988 H 0.4684 0.13887 0.80955 0.0
C1989 C 0.49698 0.18044 0.74847 0.0
C1990 C 0.52352 0.16597 0.79947 0.0
C1991 C 0.49895 0.19426 0.7317 0.0
C1992 C 0.49792 0.12177 0.87631 0.0
C1993 C 0.50504 0.13358 0.85913 0.0
C1994 C 0.48397 0.14613 0.80681 0.0
C1995 C 0.50821 0.18473 0.76807 0.0
C1996 C 0.50597 0.17003 0.78607 0.0
C1997 C 0.49869 0.12739 0.83803 0.0
C1998 C 0.5015 0.14203 0.82014 0.0
H1999 H 0.53341 0.23139 0.75589 0.0
H2000 H 0.53018 0.20728 0.78518 0.0
H2001 H 0.47216 0.16298 0.78052 0.0
H2002 H 0.47013 0.08223 0.84804 0.0
H2003 H 0.48242 0.1026 0.81837 0.0
C2004 C 0.73192 0.51934 0.69915 0.0
C2005 C 0.75168 0.52877 0.69422 0.0
C2006 C 0.71457 0.51956 0.68476 0.0
C2007 C 0.69363 0.54576 0.63764 0.0
H2008 H 0.65762 0.49444 0.63027 0.0
C2009 C 0.62145 0.54249 0.58063 0.0
C2010 C 0.60307 0.53995 0.5925 0.0
C2011 C 0.6409 0.53646 0.58893 0.0
C2012 C 0.66762 0.50881 0.63206 0.0
H2013 H 0.76888 0.54627 0.67081 0.0
H2014 H 0.73842 0.54696 0.6456 0.0
H2015 H 0.68894 0.49561 0.65435 0.0
H2016 H 0.58975 0.52563 0.62003 0.0
H2017 H 0.62323 0.51348 0.63364 0.0
H2018 H 0.67206 0.55904 0.61559 0.0
C2019 C 0.73627 0.53942 0.6606 0.0
C2020 C 0.68544 0.50958 0.64599 0.0
C2021 C 0.75368 0.53909 0.67499 0.0
C2022 C 0.6036 0.52753 0.61043 0.0
C2023 C 0.62294 0.52095 0.61845 0.0
C2024 C 0.67587 0.54495 0.6236 0.0
C2025 C 0.71662 0.52923 0.66511 0.0
C2026 C 0.69843 0.52818 0.64928 0.0
C2027 C 0.64196 0.5269 0.60869 0.0
C2028 C 0.66249 0.52655 0.62092 0.0
H2029 H 0.73009 0.51125 0.71389 0.0
H2030 H 0.69957 0.51195 0.68894 0.0
H2031 H 0.70314 0.56039 0.63993 0.0
H2032 H 0.62153 0.55228 0.56689 0.0
H2033 H 0.65529 0.54095 0.58091 0.0
C2034 C 0.25903 0.99924 0.69435 0.0
C2035 C 0.23868 0.98941 0.69043 0.0
C2036 C 0.27488 0.99758 0.67937 0.0
C2037 C 0.28978 0.96582 0.63179 0.0
H2038 H 0.32786 0.01416 0.62225 0.0
C2039 C 0.35147 0.96097 0.56676 0.0
C2040 C 0.37216 0.96925 0.57226 0.0
C2041 C 0.33418 0.96615 0.57893 0.0
C2042 C 0.31752 1.00041 0.62474 0.0
H2043 H 0.21899 0.97013 0.66774 0.0
H2044 H 0.24658 0.96699 0.64163 0.0
H2045 H 0.30063 0.01659 0.6486 0.0
H2046 H 0.39044 0.99074 0.59405 0.0
H2047 H 0.36052 1.00012 0.615 0.0
H2048 H 0.3068 0.94948 0.60832 0.0
C2049 C 0.25048 0.97587 0.65635 0.0
C2050 C 0.30183 1.0018 0.63998 0.0
C2051 C 0.23461 0.97764 0.67131 0.0
C2052 C 0.37466 0.98462 0.58884 0.0
C2053 C 0.35741 0.9897 0.60118 0.0
C2054 C 0.30548 0.96441 0.61663 0.0
C2055 C 0.27085 0.98597 0.66004 0.0
C2056 C 0.28769 0.98452 0.64377 0.0
C2057 C 0.33707 0.97966 0.59713 0.0
C2058 C 0.31963 0.98168 0.61276 0.0
H2059 H 0.26257 0.00848 0.70894 0.0
H2060 H 0.29036 0.00534 0.68303 0.0
H2061 H 0.27954 0.95202 0.63443 0.0
H2062 H 0.34902 0.94864 0.55452 0.0
H2063 H 0.31875 0.9585 0.57479 0.0
C2064 C 0.72456 0.49894 0.8047 0.0
C2065 C 0.74552 0.50408 0.81194 0.0
C2066 C 0.70839 0.49731 0.81914 0.0
C2067 C 0.69777 0.49266 0.87626 0.0
H2068 H 0.6471 0.52081 0.86077 0.0
C2069 C 0.63452 0.50235 0.93712 0.0
C2070 C 0.61369 0.49721 0.9295 0.0
C2071 C 0.6505 0.50664 0.92286 0.0
C2072 C 0.66104 0.51275 0.86532 0.0
H2073 H 0.76653 0.51058 0.83959 0.0
H2074 H 0.73818 0.50786 0.86507 0.0
H2075 H 0.67499 0.51814 0.83543 0.0
H2076 H 0.59266 0.49408 0.90151 0.0
H2077 H 0.62043 0.50078 0.87658 0.0
H2078 H 0.68372 0.48691 0.906 0.0
C2079 C 0.73417 0.50506 0.84829 0.0
C2080 C 0.67701 0.51113 0.85074 0.0
C2081 C 0.75034 0.50684 0.8338 0.0
C2082 C 0.60858 0.49856 0.90775 0.0
C2083 C 0.62461 0.5022 0.89344 0.0
C2084 C 0.68174 0.49415 0.8908 0.0
C2085 C 0.71298 0.50075 0.84104 0.0
C2086 C 0.6956 0.50122 0.85612 0.0
C2087 C 0.64591 0.50518 0.90079 0.0
C2088 C 0.66327 0.50441 0.88558 0.0
H2089 H 0.72064 0.49675 0.78783 0.0
H2090 H 0.69226 0.49364 0.81312 0.0
H2091 H 0.71178 0.48463 0.88072 0.0
H2092 H 0.63876 0.50111 0.95386 0.0
H2093 H 0.66665 0.5096 0.92907 0.0
C2094 C 0.25408 0.99934 0.83151 0.0
C2095 C 0.24662 0.01641 0.82061 0.0
C2096 C 0.26901 1.0024 0.84819 0.0
C2097 C 0.3043 0.0442 0.87826 0.0
H2098 H 0.33985 0.99715 0.88261 0.0
C2099 C 0.38523 0.05285 0.92273 0.0
C2100 C 0.40151 0.04509 0.91075 0.0
C2101 C 0.36411 0.04703 0.91705 0.0
C2102 C 0.33014 0.01047 0.88155 0.0
H2103 H 0.24813 0.0505 0.82056 0.0
H2104 H 0.27651 0.05558 0.84702 0.0
H2105 H 0.30745 0.99305 0.8618 0.0
H2106 H 0.40922 0.02458 0.88455 0.0
H2107 H 0.37251 0.01394 0.87477 0.0
H2108 H 0.32904 0.06221 0.8959 0.0
C2109 C 0.27013 0.03974 0.84349 0.0
C2110 C 0.31105 0.00806 0.8699 0.0
C2111 C 0.25409 0.03676 0.82764 0.0
C2112 C 0.39675 0.03025 0.89423 0.0
C2113 C 0.37572 0.0243 0.88863 0.0
C2114 C 0.32393 0.04681 0.88926 0.0
C2115 C 0.27837 0.02247 0.85354 0.0
C2116 C 0.2978 0.0249 0.86783 0.0
C2117 C 0.35917 0.03332 0.89941 0.0
C2118 C 0.33717 0.03001 0.89069 0.0
H2119 H 0.24921 0.9833 0.8269 0.0
H2120 H 0.27366 0.98866 0.85625 0.0
H2121 H 0.29461 0.05753 0.87761 0.0
H2122 H 0.38876 0.06483 0.93517 0.0
H2123 H 0.3517 0.05408 0.92573 0.0
C2124 C 0.67433 0.76458 0.54495 0.0
C2125 C 0.69366 0.75994 0.53613 0.0
C2126 C 0.65804 0.74888 0.54611 0.0
C2127 C 0.63795 0.70196 0.5167 0.0
H2128 H 0.60562 0.68825 0.56611 0.0
C2129 C 0.5891 0.62476 0.5243 0.0
C2130 C 0.57303 0.62367 0.53908 0.0
C2131 C 0.59974 0.64393 0.5205 0.0
C2132 C 0.61408 0.69226 0.55198 0.0
H2133 H 0.71184 0.73555 0.52265 0.0
H2134 H 0.68331 0.708 0.52458 0.0
H2135 H 0.634 0.71601 0.5691 0.0
H2136 H 0.55348 0.64166 0.55939 0.0
H2137 H 0.57136 0.67545 0.55204 0.0
H2138 H 0.61817 0.67843 0.49946 0.0
C2139 C 0.68069 0.7237 0.53049 0.0
C2140 C 0.63048 0.70799 0.55382 0.0
C2141 C 0.69699 0.73931 0.52952 0.0
C2142 C 0.56562 0.64224 0.54763 0.0
C2143 C 0.57624 0.6615 0.54383 0.0
C2144 C 0.62139 0.68648 0.51476 0.0
C2145 C 0.66087 0.72849 0.53819 0.0
C2146 C 0.64283 0.71263 0.5363 0.0
C2147 C 0.59437 0.66232 0.53141 0.0
C2148 C 0.60952 0.68109 0.53247 0.0
H2149 H 0.67152 0.78051 0.54996 0.0
H2150 H 0.64289 0.75292 0.55209 0.0
H2151 H 0.64703 0.70557 0.50285 0.0
H2152 H 0.59529 0.61053 0.51786 0.0
H2153 H 0.6136 0.64385 0.51085 0.0
C2154 C 0.67859 0.274 0.99256 0.0
C2155 C 0.6891 0.27187 0.01241 0.0
C2156 C 0.66443 0.28972 0.9895 0.0
C2157 C 0.64543 0.33894 0.01621 0.0
H2158 H 0.60505 0.33366 0.96839 0.0
C2159 C 0.60007 0.40977 0.98853 0.0
C2160 C 0.58275 0.40666 0.97393 0.0
C2161 C 0.61039 0.3927 0.99645 0.0
C2162 C 0.61575 0.33543 0.98222 0.0
H2163 H 0.69228 0.28486 0.04477 0.0
H2164 H 0.66647 0.31077 0.04009 0.0
H2165 H 0.62701 0.3053 0.97567 0.0
H2166 H 0.56153 0.38311 0.95769 0.0
H2167 H 0.57774 0.35339 0.97321 0.0
H2168 H 0.63289 0.36834 0.02379 0.0
C2169 C 0.66978 0.30102 0.02638 0.0
C2170 C 0.62902 0.3191 0.98611 0.0
C2171 C 0.68442 0.28566 0.02928 0.0
C2172 C 0.57448 0.38607 0.96938 0.0
C2173 C 0.5844 0.36894 0.97775 0.0
C2174 C 0.63161 0.35494 0.01278 0.0
C2175 C 0.65964 0.30358 0.00634 0.0
C2176 C 0.64448 0.32065 0.00293 0.0
C2177 C 0.60338 0.37189 0.99037 0.0
C2178 C 0.61673 0.35375 0.99546 0.0
H2179 H 0.68124 0.26352 0.97919 0.0
H2180 H 0.65761 0.29103 0.97364 0.0
H2181 H 0.65712 0.34134 0.02916 0.0
H2182 H 0.60732 0.42541 0.99176 0.0
H2183 H 0.62491 0.39613 0.00587 0.0
C2184 C 0.34126 0.2618 0.9908 0.0
C2185 C 0.32815 0.26043 0.00833 0.0
C2186 C 0.35506 0.24614 0.98625 0.0
C2187 C 0.37833 0.19817 0.00848 0.0
H2188 H 0.39036 0.1881 0.94917 0.0
C2189 C 0.41869 0.12472 0.97376 0.0
C2190 C 0.43274 0.12865 0.95733 0.0
C2191 C 0.40752 0.14108 0.98256 0.0
C2192 C 0.38735 0.19081 0.96585 0.0
H2193 H 0.31932 0.24165 0.03495 0.0
H2194 H 0.34264 0.21376 0.02657 0.0
H2195 H 0.36738 0.21547 0.95881 0.0
H2196 H 0.44705 0.1526 0.93801 0.0
H2197 H 0.42822 0.1811 0.95367 0.0
H2198 H 0.39778 0.17258 0.0151 0.0
C2199 C 0.34288 0.22722 0.01661 0.0
C2200 C 0.3742 0.20671 0.97148 0.0
C2201 C 0.32938 0.24318 0.02143 0.0
C2202 C 0.43647 0.14926 0.95083 0.0
C2203 C 0.42546 0.16551 0.9596 0.0
C2204 C 0.39124 0.18195 0.00276 0.0
C2205 C 0.35582 0.22832 0.99878 0.0
C2206 C 0.36964 0.21089 0.99292 0.0
C2207 C 0.41022 0.16151 0.97494 0.0
C2208 C 0.39613 0.17829 0.98139 0.0
H2209 H 0.34084 0.27507 0.98058 0.0
H2210 H 0.36514 0.24814 0.97281 0.0
H2211 H 0.37553 0.20089 0.02519 0.0
H2212 H 0.41519 0.10885 0.97866 0.0
H2213 H 0.39582 0.13749 0.9943 0.0
C2214 C 0.83503 0.25835 0.04517 0.0
C2215 C 0.81423 0.26256 0.03891 0.0
C2216 C 0.85146 0.27389 0.04396 0.0
C2217 C 0.86586 0.31425 0.0092 0.0
H2218 H 0.90522 0.33972 0.05257 0.0
C2219 C 0.90975 0.39349 0.00182 0.0
C2220 C 0.92778 0.39875 0.01497 0.0
C2221 C 0.90039 0.37319 0.00134 0.0
C2222 C 0.89479 0.33231 0.04012 0.0
H2223 H 0.79369 0.2861 0.02802 0.0
H2224 H 0.82248 0.31328 0.02564 0.0
H2225 H 0.87864 0.31259 0.06219 0.0
H2226 H 0.95213 0.38662 0.0353 0.0
H2227 H 0.93628 0.35079 0.03381 0.0
H2228 H 0.88171 0.33375 0.98706 0.0
C2229 C 0.82609 0.29812 0.0315 0.0
C2230 C 0.87945 0.317 0.04574 0.0
C2231 C 0.80969 0.28273 0.03296 0.0
C2232 C 0.93832 0.38281 0.02484 0.0
C2233 C 0.92895 0.36243 0.02439 0.0
C2234 C 0.88135 0.32925 0.00349 0.0
C2235 C 0.84715 0.29354 0.0362 0.0
C2236 C 0.86454 0.30836 0.0304 0.0
C2237 C 0.90907 0.35784 0.01392 0.0
C2238 C 0.89563 0.33893 0.01898 0.0
H2239 H 0.83871 0.24274 0.04965 0.0
H2240 H 0.86764 0.27012 0.04764 0.0
H2241 H 0.85464 0.30745 0.99708 0.0
H2242 H 0.90126 0.40566 0.99431 0.0
H2243 H 0.88511 0.37033 0.99307 0.0
loop_
_geom_bond_atom_site_label_1
_geom_bond_atom_site_label_2
_geom_bond_distance
_geom_bond_site_symmetry_2
_ccdc_geom_bond_type
C0 C1 1.443 1_455 S
C0 N4 1.376 . S
C0 C38 1.389 . S
C1 C0 1.443 1_655 S
C1 C2 1.340 . S
C1 H41 0.951 . S
C2 C1 1.340 . S
C2 C3 1.439 . S
C2 H42 0.950 . S
C3 C2 1.439 . S
C3 N4 1.374 1_655 S
C3 C37 1.395 . S
N4 C0 1.376 . S
N4 C3 1.374 1_455 S
N4 Co5 2.008 . S
Co5 N4 2.008 . S
Co5 N6 1.995 . S
Co5 N11 2.008 . S
Co5 N16 1.995 . S
Co5 N21 2.282 . S
Co5 N27 2.282 . S
N6 Co5 1.995 . S
N6 C7 1.376 1_455 S
N6 C10 1.383 . S
C7 N6 1.376 1_655 S
C7 C8 1.446 . S
C7 C37 1.391 . S
C8 C7 1.446 . S
C8 C9 1.339 1_655 S
C8 H43 0.949 . S
C9 C8 1.339 1_455 S
C9 C10 1.439 . S
C9 H44 0.950 . S
C10 N6 1.383 . S
C10 C9 1.439 . S
C10 C39 1.392 . S
N11 Co5 2.008 . S
N11 C12 1.376 . S
N11 C15 1.374 . S
C12 N11 1.376 . S
C12 C13 1.443 . S
C12 C39 1.389 . S
C13 C12 1.443 . S
C13 C14 1.340 . S
C13 H45 0.951 . S
C14 C13 1.340 . S
C14 C15 1.439 . S
C14 H46 0.950 . S
C15 N11 1.374 . S
C15 C14 1.439 . S
C15 C40 1.395 . S
N16 Co5 1.995 . S
N16 C17 1.376 . S
N16 C20 1.383 . S
C17 N16 1.376 . S
C17 C18 1.446 . S
C17 C40 1.391 . S
C18 C17 1.446 . S
C18 C19 1.339 . S
C18 H47 0.949 . S
C19 C18 1.339 . S
C19 C20 1.439 . S
C19 H48 0.950 . S
C20 N16 1.383 . S
C20 C19 1.439 . S
C20 C38 1.392 . S
N21 Co5 2.282 . S
N21 C24 1.332 . S
N21 C26 1.332 . S
C22 C23 1.386 . S
C22 C25 1.388 . S
C23 C22 1.386 . S
C23 C24 1.382 . S
C23 H49 0.950 . S
C24 N21 1.332 . S
C24 C23 1.382 . S
C24 H35 0.952 . S
C25 C22 1.388 . S
C25 C26 1.382 . S
C25 H50 0.950 . S
C26 N21 1.332 . S
C26 C25 1.382 . S
C26 H36 0.948 . S
N27 Co5 2.282 . S
N27 C31 1.332 . S
N27 C32 1.332 . S
C28 C29 1.388 . S
C28 C32 1.382 . S
C28 H51 0.950 . S
C29 C28 1.388 . S
C29 C30 1.386 . S
C30 C29 1.386 . S
C30 C31 1.382 . S
C30 H52 0.950 1_455 S
C31 N27 1.332 . S
C31 C30 1.382 . S
C31 H33 0.952 . S
C32 N27 1.332 . S
C32 C28 1.382 . S
C32 H34 0.948 . S
H33 C31 0.952 . S
H34 C32 0.948 . S
H35 C24 0.952 . S
H36 C26 0.948 . S
C37 C3 1.395 . S
C37 C7 1.391 . S
C38 C0 1.389 . S
C38 C20 1.392 . S
C39 C10 1.392 . S
C39 C12 1.389 . S
C40 C15 1.395 . S
C40 C17 1.391 . S
H41 C1 0.951 . S
H42 C2 0.950 . S
H43 C8 0.949 . S
H44 C9 0.950 . S
H45 C13 0.951 . S
H46 C14 0.950 . S
H47 C18 0.949 . S
H48 C19 0.950 . S
H49 C23 0.950 . S
H50 C25 0.950 . S
H51 C28 0.950 . S
H52 C30 0.950 1_655 S
C53 C54 1.443 . S
C53 N57 1.376 . S
C53 C91 1.389 1_655 S
C54 C53 1.443 . S
C54 C55 1.340 . S
C54 H94 0.951 . S
C55 C54 1.340 . S
C55 C56 1.439 . S
C55 H95 0.950 . S
C56 C55 1.439 . S
C56 N57 1.374 . S
C56 C90 1.395 . S
N57 C53 1.376 . S
N57 C56 1.374 . S
N57 Co58 2.008 1_655 S
Co58 N57 2.008 1_455 S
Co58 N59 1.995 1_455 S
Co58 N64 2.008 . S
Co58 N69 1.995 . S
Co58 N74 2.282 . S
Co58 N80 2.282 . S
N59 Co58 1.995 1_655 S
N59 C60 1.376 . S
N59 C63 1.383 1_655 S
C60 N59 1.376 . S
C60 C61 1.446 . S
C60 C90 1.391 . S
C61 C60 1.446 . S
C61 C62 1.339 . S
C61 H96 0.949 . S
C62 C61 1.339 . S
C62 C63 1.439 1_655 S
C62 H97 0.950 . S
C63 N59 1.383 1_455 S
C63 C62 1.439 1_455 S
C63 C92 1.392 . S
N64 Co58 2.008 . S
N64 C65 1.376 . S
N64 C68 1.374 . S
C65 N64 1.376 . S
C65 C66 1.443 . S
C65 C92 1.389 . S
C66 C65 1.443 . S
C66 C67 1.340 . S
C66 H98 0.951 . S
C67 C66 1.340 . S
C67 C68 1.439 . S
C67 H99 0.950 . S
C68 N64 1.374 . S
C68 C67 1.439 . S
C68 C93 1.395 . S
N69 Co58 1.995 . S
N69 C70 1.376 . S
N69 C73 1.383 . S
C70 N69 1.376 . S
C70 C71 1.446 . S
C70 C93 1.391 . S
C71 C70 1.446 . S
C71 C72 1.339 . S
C71 H100 0.949 . S
C72 C71 1.339 . S
C72 C73 1.439 . S
C72 H101 0.950 . S
C73 N69 1.383 . S
C73 C72 1.439 . S
C73 C91 1.392 . S
N74 Co58 2.282 . S
N74 C77 1.332 . S
N74 C79 1.332 . S
C75 C76 1.386 . S
C75 C78 1.388 . S
C76 C75 1.386 . S
C76 C77 1.382 . S
C76 H102 0.950 . S
C77 N74 1.332 . S
C77 C76 1.382 . S
C77 H88 0.952 . S
C78 C75 1.388 . S
C78 C79 1.382 . S
C78 H103 0.963 . S
C79 N74 1.332 . S
C79 C78 1.382 . S
C79 H89 0.948 1_455 S
N80 Co58 2.282 . S
N80 C84 1.332 1_455 S
N80 C85 1.332 . S
C81 C82 1.408 . S
C81 C85 1.382 . S
C81 H104 0.950 . S
C82 C81 1.408 . S
C82 C83 1.370 1_455 S
C83 C82 1.370 1_655 S
C83 C84 1.382 . S
C83 H105 0.950 . S
C84 N80 1.332 1_655 S
C84 C83 1.382 . S
C84 H86 0.952 . S
C85 N80 1.332 . S
C85 C81 1.382 . S
C85 H87 0.948 . S
H86 C84 0.952 . S
H87 C85 0.948 . S
H88 C77 0.952 . S
H89 C79 0.948 1_655 S
C90 C56 1.395 . S
C90 C60 1.391 . S
C91 C53 1.389 1_455 S
C91 C73 1.392 . S
C92 C63 1.392 . S
C92 C65 1.389 . S
C93 C68 1.395 . S
C93 C70 1.391 . S
H94 C54 0.951 . S
H95 C55 0.950 . S
H96 C61 0.949 . S
H97 C62 0.950 . S
H98 C66 0.951 . S
H99 C67 0.950 . S
H100 C71 0.949 . S
H101 C72 0.950 . S
H102 C76 0.950 . S
H103 C78 0.963 . S
H104 C81 0.950 . S
H105 C83 0.950 . S
C106 C107 1.443 . S
C106 N110 1.376 . S
C106 C144 1.403 . S
C107 C106 1.443 . S
C107 C108 1.340 . S
C107 H147 0.951 . S
C108 C107 1.340 . S
C108 C109 1.439 . S
C108 H148 0.950 . S
C109 C108 1.439 . S
C109 N110 1.374 . S
C109 C143 1.395 . S
N110 C106 1.376 . S
N110 C109 1.374 . S
N110 Co111 2.008 1_565 S
Co111 N110 2.008 1_545 S
Co111 N112 1.995 1_545 S
Co111 N117 2.008 . S
Co111 N122 1.995 . S
Co111 N127 2.282 . S
Co111 N133 2.282 . S
N112 Co111 1.995 1_565 S
N112 C113 1.376 . S
N112 C116 1.383 1_565 S
C113 N112 1.376 . S
C113 C114 1.446 . S
C113 C143 1.391 . S
C114 C113 1.446 . S
C114 C115 1.339 . S
C114 H149 0.949 . S
C115 C114 1.339 . S
C115 C116 1.439 1_565 S
C115 H150 0.950 . S
C116 N112 1.383 1_545 S
C116 C115 1.439 1_545 S
C116 C145 1.392 . S
N117 Co111 2.008 . S
N117 C118 1.376 . S
N117 C121 1.374 . S
C118 N117 1.376 . S
C118 C119 1.443 . S
C118 C145 1.389 . S
C119 C118 1.443 . S
C119 C120 1.340 . S
C119 H151 0.951 . S
C120 C119 1.340 . S
C120 C121 1.439 . S
C120 H152 0.950 . S
C121 N117 1.374 . S
C121 C120 1.439 . S
C121 C146 1.395 . S
N122 Co111 1.995 . S
N122 C123 1.376 . S
N122 C126 1.383 . S
C123 N122 1.376 . S
C123 C124 1.446 . S
C123 C146 1.391 . S
C124 C123 1.446 . S
C124 C125 1.339 . S
C124 H153 0.949 . S
C125 C124 1.339 . S
C125 C126 1.439 . S
C125 H154 0.950 . S
C126 N122 1.383 . S
C126 C125 1.439 . S
C126 C144 1.372 1_545 S
N127 Co111 2.282 . S
N127 C130 1.332 . S
N127 C132 1.332 . S
C128 C129 1.386 . S
C128 C131 1.388 . S
C129 C128 1.386 . S
C129 C130 1.382 . S
C129 H155 0.950 . S
C130 N127 1.332 . S
C130 C129 1.382 . S
C130 H141 0.952 . S
C131 C128 1.388 . S
C131 C132 1.382 . S
C131 H156 0.950 1_545 S
C132 N127 1.332 . S
C132 C131 1.382 . S
C132 H142 0.948 1_545 S
N133 Co111 2.282 . S
N133 C137 1.332 1_545 S
N133 C138 1.332 . S
C134 C135 1.388 1_545 S
C134 C138 1.382 . S
C134 H157 0.950 . S
C135 C134 1.388 1_565 S
C135 C136 1.386 . S
C136 C135 1.386 . S
C136 C137 1.382 . S
C136 H158 0.950 . S
C137 N133 1.332 1_565 S
C137 C136 1.382 . S
C137 H139 0.952 . S
C138 N133 1.332 . S
C138 C134 1.382 . S
C138 H140 0.948 . S
H139 C137 0.952 . S
H140 C138 0.948 . S
H141 C130 0.952 . S
H142 C132 0.948 1_565 S
C143 C109 1.395 . S
C143 C113 1.391 . S
C144 C106 1.403 . S
C144 C126 1.372 1_565 S
C145 C116 1.392 . S
C145 C118 1.389 . S
C146 C121 1.395 . S
C146 C123 1.391 . S
H147 C107 0.951 . S
H148 C108 0.950 . S
H149 C114 0.949 . S
H150 C115 0.950 . S
H151 C119 0.951 . S
H152 C120 0.950 . S
H153 C124 0.949 . S
H154 C125 0.950 . S
H155 C129 0.950 . S
H156 C131 0.950 1_565 S
H157 C134 0.950 . S
H158 C136 0.950 . S
C159 C160 1.443 . S
C159 N163 1.376 . S
C159 C197 1.389 . S
C160 C159 1.443 . S
C160 C161 1.340 . S
C160 H200 0.951 . S
C161 C160 1.340 . S
C161 C162 1.439 . S
C161 H201 0.950 . S
C162 C161 1.439 . S
C162 N163 1.374 . S
C162 C196 1.395 . S
N163 C159 1.376 . S
N163 C162 1.374 . S
N163 Co164 2.008 . S
Co164 N163 2.008 . S
Co164 N165 1.995 . S
Co164 N170 2.008 . S
Co164 N175 1.995 . S
Co164 N180 2.282 . S
Co164 N186 2.282 . S
N165 Co164 1.995 . S
N165 C166 1.376 . S
N165 C169 1.383 . S
C166 N165 1.376 . S
C166 C167 1.446 . S
C166 C196 1.391 . S
C167 C166 1.446 . S
C167 C168 1.339 . S
C167 H202 0.949 . S
C168 C167 1.339 . S
C168 C169 1.439 . S
C168 H203 0.950 . S
C169 N165 1.383 . S
C169 C168 1.439 . S
C169 C198 1.392 . S
N170 Co164 2.008 . S
N170 C171 1.376 . S
N170 C174 1.374 . S
C171 N170 1.376 . S
C171 C172 1.443 . S
C171 C198 1.389 . S
C172 C171 1.443 . S
C172 C173 1.340 . S
C172 H204 0.951 . S
C173 C172 1.340 . S
C173 C174 1.439 . S
C173 H205 0.950 . S
C174 N170 1.374 . S
C174 C173 1.439 . S
C174 C199 1.395 . S
N175 Co164 1.995 . S
N175 C176 1.376 . S
N175 C179 1.383 . S
C176 N175 1.376 . S
C176 C177 1.446 . S
C176 C199 1.391 . S
C177 C176 1.446 . S
C177 C178 1.339 . S
C177 H206 0.949 . S
C178 C177 1.339 . S
C178 C179 1.439 . S
C178 H207 0.950 . S
C179 N175 1.383 . S
C179 C178 1.439 . S
C179 C197 1.392 . S
N180 Co164 2.282 . S
N180 C183 1.332 . S
N180 C185 1.332 . S
C181 C182 1.386 . S
C181 C184 1.388 . S
C182 C181 1.386 . S
C182 C183 1.382 . S
C182 H208 0.950 . S
C183 N180 1.332 . S
C183 C182 1.382 . S
C183 H194 0.952 . S
C184 C181 1.388 . S
C184 C185 1.382 . S
C184 H209 0.950 . S
C185 N180 1.332 . S
C185 C184 1.382 . S
C185 H195 0.948 . S
N186 Co164 2.282 . S
N186 C190 1.332 . S
N186 C191 1.332 . S
C187 C188 1.388 . S
C187 C191 1.382 . S
C187 H210 0.950 . S
C188 C187 1.388 . S
C188 C189 1.386 . S
C189 C188 1.386 . S
C189 C190 1.382 . S
C189 H211 0.950 . S
C190 N186 1.332 . S
C190 C189 1.382 . S
C190 H192 0.952 . S
C191 N186 1.332 . S
C191 C187 1.382 . S
C191 H193 0.948 . S
H192 C190 0.952 . S
H193 C191 0.948 . S
H194 C183 0.952 . S
H195 C185 0.948 . S
C196 C162 1.395 . S
C196 C166 1.391 . S
C197 C159 1.389 . S
C197 C179 1.392 . S
C198 C169 1.392 . S
C198 C171 1.389 . S
C199 C174 1.395 . S
C199 C176 1.391 . S
H200 C160 0.951 . S
H201 C161 0.950 . S
H202 C167 0.949 . S
H203 C168 0.950 . S
H204 C172 0.951 . S
H205 C173 0.950 . S
H206 C177 0.949 . S
H207 C178 0.950 . S
H208 C182 0.950 . S
H209 C184 0.950 . S
H210 C187 0.950 . S
H211 C189 0.950 . S
C212 C213 1.443 . S
C212 N216 1.376 . S
C212 C250 1.389 1_556 S
C213 C212 1.443 . S
C213 C214 1.340 . S
C213 H253 0.951 . S
C214 C213 1.340 . S
C214 C215 1.439 . S
C214 H254 0.950 . S
C215 C214 1.439 . S
C215 N216 1.374 . S
C215 C249 1.395 . S
N216 C212 1.376 . S
N216 C215 1.374 . S
N216 Co217 2.008 1_556 S
Co217 N216 2.008 1_554 S
Co217 N218 1.995 . S
Co217 N223 2.008 . S
Co217 N228 1.995 . S
Co217 N233 2.282 . S
Co217 N239 2.282 . S
N218 Co217 1.995 . S
N218 C219 1.376 1_554 S
N218 C222 1.383 . S
C219 N218 1.376 1_556 S
C219 C220 1.446 . S
C219 C249 1.391 . S
C220 C219 1.446 . S
C220 C221 1.339 . S
C220 H255 0.949 . S
C221 C220 1.339 . S
C221 C222 1.439 1_556 S
C221 H256 0.950 . S
C222 N218 1.383 . S
C222 C221 1.439 1_554 S
C222 C251 1.392 . S
N223 Co217 2.008 . S
N223 C224 1.376 . S
N223 C227 1.374 . S
C224 N223 1.376 . S
C224 C225 1.443 . S
C224 C251 1.389 . S
C225 C224 1.443 . S
C225 C226 1.340 . S
C225 H257 0.951 . S
C226 C225 1.340 . S
C226 C227 1.439 . S
C226 H258 0.950 . S
C227 N223 1.374 . S
C227 C226 1.439 . S
C227 C252 1.395 . S
N228 Co217 1.995 . S
N228 C229 1.376 . S
N228 C232 1.383 . S
C229 N228 1.376 . S
C229 C230 1.446 . S
C229 C252 1.391 . S
C230 C229 1.446 . S
C230 C231 1.339 . S
C230 H259 0.949 . S
C231 C230 1.339 . S
C231 C232 1.439 . S
C231 H260 0.950 . S
C232 N228 1.383 . S
C232 C231 1.439 . S
C232 C250 1.392 . S
N233 Co217 2.282 . S
N233 C236 1.332 . S
N233 C238 1.332 . S
C234 C235 1.386 . S
C234 C237 1.388 . S
C235 C234 1.386 . S
C235 C236 1.382 . S
C235 H261 0.950 . S
C236 N233 1.332 . S
C236 C235 1.382 . S
C236 H247 0.952 . S
C237 C234 1.388 . S
C237 C238 1.382 . S
C237 H262 0.950 . S
C238 N233 1.332 . S
C238 C237 1.382 . S
C238 H248 0.948 1_554 S
N239 Co217 2.282 . S
N239 C243 1.298 1_554 S
N239 C244 1.332 . S
C240 C241 1.388 . S
C240 C244 1.382 . S
C240 H263 0.950 . S
C241 C240 1.388 . S
C241 C242 1.386 1_554 S
C242 C241 1.386 1_556 S
C242 C243 1.392 . S
C242 H264 0.950 . S
C243 N239 1.298 1_556 S
C243 C242 1.392 . S
C243 H245 0.978 . S
C244 N239 1.332 . S
C244 C240 1.382 . S
C244 H246 0.948 . S
H245 C243 0.978 . S
H246 C244 0.948 . S
H247 C236 0.952 . S
H248 C238 0.948 1_556 S
C249 C215 1.395 . S
C249 C219 1.391 . S
C250 C212 1.389 1_554 S
C250 C232 1.392 . S
C251 C222 1.392 . S
C251 C224 1.389 . S
C252 C227 1.395 . S
C252 C229 1.391 . S
H253 C213 0.951 . S
H254 C214 0.950 . S
H255 C220 0.949 . S
H256 C221 0.950 . S
H257 C225 0.951 . S
H258 C226 0.950 . S
H259 C230 0.949 . S
H260 C231 0.950 . S
H261 C235 0.950 . S
H262 C237 0.950 . S
H263 C240 0.950 . S
H264 C242 0.950 . S
C265 C266 1.443 . S
C265 N269 1.376 . S
C265 C303 1.389 . S
C266 C265 1.443 . S
C266 C267 1.340 . S
C266 H306 0.951 . S
C267 C266 1.340 . S
C267 C268 1.439 . S
C267 H307 0.950 . S
C268 C267 1.439 . S
C268 N269 1.374 . S
C268 C302 1.395 . S
N269 C265 1.376 . S
N269 C268 1.374 . S
N269 Co270 2.008 . S
Co270 N269 2.008 . S
Co270 N271 1.995 . S
Co270 N276 2.008 . S
Co270 N281 1.995 . S
Co270 N286 2.282 . S
Co270 N292 2.282 . S
N271 Co270 1.995 . S
N271 C272 1.376 . S
N271 C275 1.383 . S
C272 N271 1.376 . S
C272 C273 1.446 . S
C272 C302 1.391 . S
C273 C272 1.446 . S
C273 C274 1.339 . S
C273 H308 0.949 . S
C274 C273 1.339 . S
C274 C275 1.439 . S
C274 H309 0.950 . S
C275 N271 1.383 . S
C275 C274 1.439 . S
C275 C304 1.392 . S
N276 Co270 2.008 . S
N276 C277 1.376 . S
N276 C280 1.374 . S
C277 N276 1.376 . S
C277 C278 1.443 . S
C277 C304 1.389 . S
C278 C277 1.443 . S
C278 C279 1.340 . S
C278 H310 0.951 . S
C279 C278 1.340 . S
C279 C280 1.439 . S
C279 H311 0.950 . S
C280 N276 1.374 . S
C280 C279 1.439 . S
C280 C305 1.395 . S
N281 Co270 1.995 . S
N281 C282 1.376 . S
N281 C285 1.383 . S
C282 N281 1.376 . S
C282 C283 1.446 . S
C282 C305 1.391 . S
C283 C282 1.446 . S
C283 C284 1.339 . S
C283 H312 0.949 . S
C284 C283 1.339 . S
C284 C285 1.439 . S
C284 H313 0.950 . S
C285 N281 1.383 . S
C285 C284 1.439 . S
C285 C303 1.392 . S
N286 Co270 2.282 . S
N286 C289 1.332 . S
N286 C291 1.332 . S
C287 C288 1.386 . S
C287 C290 1.388 . S
C288 C287 1.386 . S
C288 C289 1.382 . S
C288 H314 0.950 . S
C289 N286 1.332 . S
C289 C288 1.382 . S
C289 H300 0.952 . S
C290 C287 1.388 . S
C290 C291 1.382 . S
C290 H315 0.950 . S
C291 N286 1.332 . S
C291 C290 1.382 . S
C291 H301 0.948 . S
N292 Co270 2.282 . S
N292 C296 1.332 . S
N292 C297 1.332 . S
C293 C294 1.388 . S
C293 C297 1.382 . S
C293 H316 0.950 . S
C294 C293 1.388 . S
C294 C295 1.386 . S
C295 C294 1.386 . S
C295 C296 1.382 . S
C295 H317 0.950 . S
C296 N292 1.332 . S
C296 C295 1.382 . S
C296 H298 0.952 . S
C297 N292 1.332 . S
C297 C293 1.382 . S
C297 H299 0.948 . S
H298 C296 0.952 . S
H299 C297 0.948 . S
H300 C289 0.952 . S
H301 C291 0.948 . S
C302 C268 1.395 . S
C302 C272 1.391 . S
C303 C265 1.389 . S
C303 C285 1.392 . S
C304 C275 1.392 . S
C304 C277 1.389 . S
C305 C280 1.395 . S
C305 C282 1.391 . S
H306 C266 0.951 . S
H307 C267 0.950 . S
H308 C273 0.949 . S
H309 C274 0.950 . S
H310 C278 0.951 . S
H311 C279 0.950 . S
H312 C283 0.949 . S
H313 C284 0.950 . S
H314 C288 0.950 . S
H315 C290 0.950 . S
H316 C293 0.950 . S
H317 C295 0.950 . S
C318 C319 1.443 . S
C318 N322 1.376 . S
C318 C356 1.389 . S
C319 C318 1.443 . S
C319 C320 1.340 . S
C319 H359 0.951 . S
C320 C319 1.340 . S
C320 C321 1.439 . S
C320 H360 0.950 . S
C321 C320 1.439 . S
C321 N322 1.374 . S
C321 C355 1.395 . S
N322 C318 1.376 . S
N322 C321 1.374 . S
N322 Co323 2.008 . S
Co323 N322 2.008 . S
Co323 N324 1.995 . S
Co323 N329 2.008 . S
Co323 N334 1.995 . S
Co323 N339 2.282 . S
Co323 N345 2.282 . S
N324 Co323 1.995 . S
N324 C325 1.376 . S
N324 C328 1.383 . S
C325 N324 1.376 . S
C325 C326 1.446 . S
C325 C355 1.391 . S
C326 C325 1.446 . S
C326 C327 1.339 . S
C326 H361 0.949 . S
C327 C326 1.339 . S
C327 C328 1.439 . S
C327 H362 0.950 . S
C328 N324 1.383 . S
C328 C327 1.439 . S
C328 C357 1.392 . S
N329 Co323 2.008 . S
N329 C330 1.376 . S
N329 C333 1.374 . S
C330 N329 1.376 . S
C330 C331 1.443 . S
C330 C357 1.389 . S
C331 C330 1.443 . S
C331 C332 1.340 . S
C331 H363 0.951 . S
C332 C331 1.340 . S
C332 C333 1.439 . S
C332 H364 0.950 . S
C333 N329 1.374 . S
C333 C332 1.439 . S
C333 C358 1.395 . S
N334 Co323 1.995 . S
N334 C335 1.376 . S
N334 C338 1.383 . S
C335 N334 1.376 . S
C335 C336 1.446 . S
C335 C358 1.391 . S
C336 C335 1.446 . S
C336 C337 1.339 . S
C336 H365 0.949 . S
C337 C336 1.339 . S
C337 C338 1.439 . S
C337 H366 0.950 . S
C338 N334 1.383 . S
C338 C337 1.439 . S
C338 C356 1.392 . S
N339 Co323 2.282 . S
N339 C342 1.332 . S
N339 C344 1.332 . S
C340 C341 1.386 . S
C340 C343 1.388 . S
C341 C340 1.386 . S
C341 C342 1.382 . S
C341 H367 0.950 . S
C342 N339 1.332 . S
C342 C341 1.382 . S
C342 H353 0.952 . S
C343 C340 1.388 . S
C343 C344 1.382 . S
C343 H368 0.950 . S
C344 N339 1.332 . S
C344 C343 1.382 . S
C344 H354 0.948 . S
N345 Co323 2.282 . S
N345 C349 1.332 . S
N345 C350 1.332 . S
C346 C347 1.388 . S
C346 C350 1.382 . S
C346 H369 0.950 . S
C347 C346 1.388 . S
C347 C348 1.386 . S
C348 C347 1.386 . S
C348 C349 1.382 . S
C348 H370 0.950 . S
C349 N345 1.332 . S
C349 C348 1.382 . S
C349 H351 0.952 . S
C350 N345 1.332 . S
C350 C346 1.382 . S
C350 H352 0.948 . S
H351 C349 0.952 . S
H352 C350 0.948 . S
H353 C342 0.952 . S
H354 C344 0.948 . S
C355 C321 1.395 . S
C355 C325 1.391 . S
C356 C318 1.389 . S
C356 C338 1.392 . S
C357 C328 1.392 . S
C357 C330 1.389 . S
C358 C333 1.395 . S
C358 C335 1.391 . S
H359 C319 0.951 . S
H360 C320 0.950 . S
H361 C326 0.949 . S
H362 C327 0.950 . S
H363 C331 0.951 . S
H364 C332 0.950 . S
H365 C336 0.949 . S
H366 C337 0.950 . S
H367 C341 0.950 . S
H368 C343 0.950 . S
H369 C346 0.950 . S
H370 C348 0.950 . S
C371 C372 1.443 . S
C371 N375 1.376 . S
C371 C409 1.389 . S
C372 C371 1.443 . S
C372 C373 1.340 . S
C372 H412 0.951 . S
C373 C372 1.340 . S
C373 C374 1.439 . S
C373 H413 0.950 . S
C374 C373 1.439 . S
C374 N375 1.374 . S
C374 C408 1.395 . S
N375 C371 1.376 . S
N375 C374 1.374 . S
N375 Co376 2.008 . S
Co376 N375 2.008 . S
Co376 N377 1.995 . S
Co376 N382 2.008 . S
Co376 N387 1.995 . S
Co376 N392 2.282 . S
Co376 N398 2.282 . S
N377 Co376 1.995 . S
N377 C378 1.376 . S
N377 C381 1.383 . S
C378 N377 1.376 . S
C378 C379 1.446 . S
C378 C408 1.391 . S
C379 C378 1.446 . S
C379 C380 1.339 . S
C379 H414 0.949 . S
C380 C379 1.339 . S
C380 C381 1.439 . S
C380 H415 0.950 . S
C381 N377 1.383 . S
C381 C380 1.439 . S
C381 C410 1.392 . S
N382 Co376 2.008 . S
N382 C383 1.376 . S
N382 C386 1.374 . S
C383 N382 1.376 . S
C383 C384 1.443 . S
C383 C410 1.389 . S
C384 C383 1.443 . S
C384 C385 1.340 . S
C384 H416 0.951 . S
C385 C384 1.340 . S
C385 C386 1.439 . S
C385 H417 0.950 . S
C386 N382 1.374 . S
C386 C385 1.439 . S
C386 C411 1.395 . S
N387 Co376 1.995 . S
N387 C388 1.376 . S
N387 C391 1.383 . S
C388 N387 1.376 . S
C388 C389 1.446 . S
C388 C411 1.391 . S
C389 C388 1.446 . S
C389 C390 1.339 . S
C389 H418 0.949 . S
C390 C389 1.339 . S
C390 C391 1.439 . S
C390 H419 0.950 . S
C391 N387 1.383 . S
C391 C390 1.439 . S
C391 C409 1.392 . S
N392 Co376 2.282 . S
N392 C395 1.332 . S
N392 C397 1.332 . S
C393 C394 1.386 . S
C393 C396 1.388 . S
C394 C393 1.386 . S
C394 C395 1.382 . S
C394 H420 0.950 . S
C395 N392 1.332 . S
C395 C394 1.382 . S
C395 H406 0.952 . S
C396 C393 1.388 . S
C396 C397 1.382 . S
C396 H421 0.950 . S
C397 N392 1.332 . S
C397 C396 1.382 . S
C397 H407 0.948 . S
N398 Co376 2.282 . S
N398 C402 1.332 . S
N398 C403 1.332 . S
C399 C400 1.388 . S
C399 C403 1.382 . S
C399 H422 0.950 . S
C400 C399 1.388 . S
C400 C401 1.386 . S
C401 C400 1.386 . S
C401 C402 1.382 . S
C401 H423 0.950 . S
C402 N398 1.332 . S
C402 C401 1.382 . S
C402 H404 0.952 . S
C403 N398 1.332 . S
C403 C399 1.382 . S
C403 H405 0.948 . S
H404 C402 0.952 . S
H405 C403 0.948 . S
H406 C395 0.952 . S
H407 C397 0.948 . S
C408 C374 1.395 . S
C408 C378 1.391 . S
C409 C371 1.389 . S
C409 C391 1.392 . S
C410 C381 1.392 . S
C410 C383 1.389 . S
C411 C386 1.395 . S
C411 C388 1.391 . S
H412 C372 0.951 . S
H413 C373 0.950 . S
H414 C379 0.949 . S
H415 C380 0.950 . S
H416 C384 0.951 . S
H417 C385 0.950 . S
H418 C389 0.949 . S
H419 C390 0.950 . S
H420 C394 0.950 . S
H421 C396 0.950 . S
H422 C399 0.950 . S
H423 C401 0.950 . S
C424 C425 1.443 . S
C424 N428 1.376 . S
C424 C462 1.389 . S
C425 C424 1.443 . S
C425 C426 1.340 . S
C425 H465 0.951 . S
C426 C425 1.340 . S
C426 C427 1.439 . S
C426 H466 0.950 . S
C427 C426 1.439 . S
C427 N428 1.374 . S
C427 C461 1.395 . S
N428 C424 1.376 . S
N428 C427 1.374 . S
N428 Co429 2.008 . S
Co429 N428 2.008 . S
Co429 N430 1.995 . S
Co429 N435 2.008 . S
Co429 N440 1.995 . S
Co429 N445 2.282 . S
Co429 N451 2.282 . S
N430 Co429 1.995 . S
N430 C431 1.376 . S
N430 C434 1.383 . S
C431 N430 1.376 . S
C431 C432 1.446 . S
C431 C461 1.391 . S
C432 C431 1.446 . S
C432 C433 1.339 . S
C432 H467 0.949 . S
C433 C432 1.339 . S
C433 C434 1.439 . S
C433 H468 0.950 . S
C434 N430 1.383 . S
C434 C433 1.439 . S
C434 C463 1.392 . S
N435 Co429 2.008 . S
N435 C436 1.376 . S
N435 C439 1.374 . S
C436 N435 1.376 . S
C436 C437 1.443 . S
C436 C463 1.389 . S
C437 C436 1.443 . S
C437 C438 1.340 . S
C437 H469 0.951 . S
C438 C437 1.340 . S
C438 C439 1.439 . S
C438 H470 0.950 . S
C439 N435 1.374 . S
C439 C438 1.439 . S
C439 C464 1.395 . S
N440 Co429 1.995 . S
N440 C441 1.376 . S
N440 C444 1.383 . S
C441 N440 1.376 . S
C441 C442 1.446 . S
C441 C464 1.391 . S
C442 C441 1.446 . S
C442 C443 1.339 . S
C442 H471 0.949 . S
C443 C442 1.339 . S
C443 C444 1.439 . S
C443 H472 0.950 . S
C444 N440 1.383 . S
C444 C443 1.439 . S
C444 C462 1.392 . S
N445 Co429 2.282 . S
N445 C448 1.332 . S
N445 C450 1.332 . S
C446 C447 1.386 . S
C446 C449 1.388 . S
C447 C446 1.386 . S
C447 C448 1.382 . S
C447 H473 0.950 . S
C448 N445 1.332 . S
C448 C447 1.382 . S
C448 H459 0.952 . S
C449 C446 1.388 . S
C449 C450 1.382 . S
C449 H474 0.950 . S
C450 N445 1.332 . S
C450 C449 1.382 . S
C450 H460 0.948 . S
N451 Co429 2.282 . S
N451 C455 1.332 . S
N451 C456 1.332 . S
C452 C453 1.388 . S
C452 C456 1.382 . S
C452 H475 0.950 . S
C453 C452 1.388 . S
C453 C454 1.386 . S
C454 C453 1.386 . S
C454 C455 1.382 . S
C454 H476 0.950 . S
C455 N451 1.332 . S
C455 C454 1.382 . S
C455 H457 0.952 . S
C456 N451 1.332 . S
C456 C452 1.382 . S
C456 H458 0.948 . S
H457 C455 0.952 . S
H458 C456 0.948 . S
H459 C448 0.952 . S
H460 C450 0.948 . S
C461 C427 1.395 . S
C461 C431 1.391 . S
C462 C424 1.389 . S
C462 C444 1.392 . S
C463 C434 1.392 . S
C463 C436 1.389 . S
C464 C439 1.395 . S
C464 C441 1.391 . S
H465 C425 0.951 . S
H466 C426 0.950 . S
H467 C432 0.949 . S
H468 C433 0.950 . S
H469 C437 0.951 . S
H470 C438 0.950 . S
H471 C442 0.949 . S
H472 C443 0.950 . S
H473 C447 0.950 . S
H474 C449 0.950 . S
H475 C452 0.950 . S
H476 C454 0.950 . S
C477 C478 1.443 . S
C477 N481 1.376 . S
C477 C515 1.389 . S
C478 C477 1.443 . S
C478 C479 1.340 . S
C478 H518 0.951 . S
C479 C478 1.340 . S
C479 C480 1.439 . S
C479 H519 0.950 . S
C480 C479 1.439 . S
C480 N481 1.374 . S
C480 C514 1.395 . S
N481 C477 1.376 . S
N481 C480 1.374 . S
N481 Co482 2.008 . S
Co482 N481 2.008 . S
Co482 N483 1.995 . S
Co482 N488 2.008 . S
Co482 N493 1.995 . S
Co482 N498 2.282 . S
Co482 N504 2.282 . S
N483 Co482 1.995 . S
N483 C484 1.376 . S
N483 C487 1.383 . S
C484 N483 1.376 . S
C484 C485 1.446 . S
C484 C514 1.391 . S
C485 C484 1.446 . S
C485 C486 1.339 . S
C485 H520 0.949 . S
C486 C485 1.339 . S
C486 C487 1.439 . S
C486 H521 0.950 . S
C487 N483 1.383 . S
C487 C486 1.439 . S
C487 C516 1.392 . S
N488 Co482 2.008 . S
N488 C489 1.376 . S
N488 C492 1.374 . S
C489 N488 1.376 . S
C489 C490 1.443 . S
C489 C516 1.389 . S
C490 C489 1.443 . S
C490 C491 1.340 . S
C490 H522 0.951 . S
C491 C490 1.340 . S
C491 C492 1.439 . S
C491 H523 0.950 . S
C492 N488 1.374 . S
C492 C491 1.439 . S
C492 C517 1.395 . S
N493 Co482 1.995 . S
N493 C494 1.376 . S
N493 C497 1.383 . S
C494 N493 1.376 . S
C494 C495 1.446 . S
C494 C517 1.391 . S
C495 C494 1.446 . S
C495 C496 1.339 . S
C495 H524 0.949 . S
C496 C495 1.339 . S
C496 C497 1.439 . S
C496 H525 0.950 . S
C497 N493 1.383 . S
C497 C496 1.439 . S
C497 C515 1.392 . S
N498 Co482 2.282 . S
N498 C501 1.332 . S
N498 C503 1.332 . S
C499 C500 1.386 . S
C499 C502 1.388 . S
C500 C499 1.386 . S
C500 C501 1.382 . S
C500 H526 0.950 . S
C501 N498 1.332 . S
C501 C500 1.382 . S
C501 H512 0.952 . S
C502 C499 1.388 . S
C502 C503 1.382 . S
C502 H527 0.950 . S
C503 N498 1.332 . S
C503 C502 1.382 . S
C503 H513 0.948 . S
N504 Co482 2.282 . S
N504 C508 1.332 . S
N504 C509 1.332 . S
C505 C506 1.388 . S
C505 C509 1.382 . S
C505 H528 0.950 . S
C506 C505 1.388 . S
C506 C507 1.386 . S
C507 C506 1.386 . S
C507 C508 1.382 . S
C507 H529 0.950 . S
C508 N504 1.332 . S
C508 C507 1.382 . S
C508 H510 0.952 . S
C509 N504 1.332 . S
C509 C505 1.382 . S
C509 H511 0.948 . S
H510 C508 0.952 . S
H511 C509 0.948 . S
H512 C501 0.952 . S
H513 C503 0.948 . S
C514 C480 1.395 . S
C514 C484 1.391 . S
C515 C477 1.389 . S
C515 C497 1.392 . S
C516 C487 1.392 . S
C516 C489 1.389 . S
C517 C492 1.395 . S
C517 C494 1.391 . S
H518 C478 0.951 . S
H519 C479 0.950 . S
H520 C485 0.949 . S
H521 C486 0.950 . S
H522 C490 0.951 . S
H523 C491 0.950 . S
H524 C495 0.949 . S
H525 C496 0.950 . S
H526 C500 0.950 . S
H527 C502 0.950 . S
H528 C505 0.950 . S
H529 C507 0.950 . S
C530 C531 1.443 . S
C530 N534 1.376 . S
C530 C568 1.389 . S
C531 C530 1.443 . S
C531 C532 1.340 . S
C531 H571 0.951 . S
C532 C531 1.340 . S
C532 C533 1.439 . S
C532 H572 0.950 . S
C533 C532 1.439 . S
C533 N534 1.374 . S
C533 C567 1.395 . S
N534 C530 1.376 . S
N534 C533 1.374 . S
N534 Co535 2.008 . S
Co535 N534 2.008 . S
Co535 N536 1.995 . S
Co535 N541 2.008 1_545 S
Co535 N546 1.995 1_545 S
Co535 N551 2.282 1_545 S
Co535 N557 2.282 . S
N536 Co535 1.995 . S
N536 C537 1.376 . S
N536 C540 1.383 . S
C537 N536 1.376 . S
C537 C538 1.446 . S
C537 C567 1.391 . S
C538 C537 1.446 . S
C538 C539 1.339 . S
C538 H573 0.949 . S
C539 C538 1.339 . S
C539 C540 1.439 . S
C539 H574 0.950 . S
C540 N536 1.383 . S
C540 C539 1.439 . S
C540 C569 1.392 1_545 S
N541 Co535 2.008 1_565 S
N541 C542 1.376 . S
N541 C545 1.374 . S
C542 N541 1.376 . S
C542 C543 1.443 . S
C542 C569 1.389 . S
C543 C542 1.443 . S
C543 C544 1.340 . S
C543 H575 0.951 . S
C544 C543 1.340 . S
C544 C545 1.439 . S
C544 H576 0.950 . S
C545 N541 1.374 . S
C545 C544 1.439 . S
C545 C570 1.395 . S
N546 Co535 1.995 1_565 S
N546 C547 1.376 . S
N546 C550 1.383 . S
C547 N546 1.376 . S
C547 C548 1.446 . S
C547 C570 1.391 . S
C548 C547 1.446 . S
C548 C549 1.339 . S
C548 H577 0.949 . S
C549 C548 1.339 . S
C549 C550 1.439 . S
C549 H578 0.950 . S
C550 N546 1.383 . S
C550 C549 1.439 . S
C550 C568 1.392 1_565 S
N551 Co535 2.282 1_565 S
N551 C554 1.332 . S
N551 C556 1.332 1_565 S
C552 C553 1.386 . S
C552 C555 1.388 1_565 S
C553 C552 1.386 . S
C553 C554 1.382 . S
C553 H579 0.950 . S
C554 N551 1.332 . S
C554 C553 1.382 . S
C554 H565 0.952 . S
C555 C552 1.388 1_545 S
C555 C556 1.382 . S
C555 H580 0.950 . S
C556 N551 1.332 1_545 S
C556 C555 1.382 . S
C556 H566 0.948 . S
N557 Co535 2.282 . S
N557 C561 1.332 . S
N557 C562 1.332 1_545 S
C558 C559 1.388 1_565 S
C558 C562 1.382 . S
C558 H581 0.950 . S
C559 C558 1.388 1_545 S
C559 C560 1.386 . S
C560 C559 1.386 . S
C560 C561 1.382 . S
C560 H582 0.950 . S
C561 N557 1.332 . S
C561 C560 1.382 . S
C561 H563 0.952 . S
C562 N557 1.332 1_565 S
C562 C558 1.382 . S
C562 H564 0.948 . S
H563 C561 0.952 . S
H564 C562 0.948 . S
H565 C554 0.952 . S
H566 C556 0.948 . S
C567 C533 1.395 . S
C567 C537 1.391 . S
C568 C530 1.389 . S
C568 C550 1.392 1_545 S
C569 C540 1.392 1_565 S
C569 C542 1.389 . S
C570 C545 1.395 . S
C570 C547 1.391 . S
H571 C531 0.951 . S
H572 C532 0.950 . S
H573 C538 0.949 . S
H574 C539 0.950 . S
H575 C543 0.951 . S
H576 C544 0.950 . S
H577 C548 0.949 . S
H578 C549 0.950 . S
H579 C553 0.950 . S
H580 C555 0.950 . S
H581 C558 0.950 . S
H582 C560 0.950 . S
C583 C584 1.443 . S
C583 N587 1.376 . S
C583 C621 1.389 1_556 S
C584 C583 1.443 . S
C584 C585 1.340 . S
C584 H624 0.951 . S
C585 C584 1.340 . S
C585 C586 1.439 . S
C585 H625 0.950 . S
C586 C585 1.439 . S
C586 N587 1.374 . S
C586 C620 1.395 . S
N587 C583 1.376 . S
N587 C586 1.374 . S
N587 Co588 2.008 1_556 S
Co588 N587 2.008 1_554 S
Co588 N589 1.995 . S
Co588 N594 2.008 . S
Co588 N599 1.995 . S
Co588 N604 2.282 . S
Co588 N610 2.282 . S
N589 Co588 1.995 . S
N589 C590 1.376 1_554 S
N589 C593 1.383 . S
C590 N589 1.376 1_556 S
C590 C591 1.446 . S
C590 C620 1.391 . S
C591 C590 1.446 . S
C591 C592 1.339 . S
C591 H626 0.949 . S
C592 C591 1.339 . S
C592 C593 1.439 1_556 S
C592 H627 0.950 . S
C593 N589 1.383 . S
C593 C592 1.439 1_554 S
C593 C622 1.392 . S
N594 Co588 2.008 . S
N594 C595 1.376 . S
N594 C598 1.374 . S
C595 N594 1.376 . S
C595 C596 1.443 . S
C595 C622 1.389 . S
C596 C595 1.443 . S
C596 C597 1.340 . S
C596 H628 0.951 . S
C597 C596 1.340 . S
C597 C598 1.439 . S
C597 H629 0.950 . S
C598 N594 1.374 . S
C598 C597 1.439 . S
C598 C623 1.395 . S
N599 Co588 1.995 . S
N599 C600 1.376 . S
N599 C603 1.383 . S
C600 N599 1.376 . S
C600 C601 1.446 . S
C600 C623 1.391 . S
C601 C600 1.446 . S
C601 C602 1.339 . S
C601 H630 0.949 . S
C602 C601 1.339 . S
C602 C603 1.439 . S
C602 H631 0.950 . S
C603 N599 1.383 . S
C603 C602 1.439 . S
C603 C621 1.392 . S
N604 Co588 2.282 . S
N604 C607 1.332 . S
N604 C609 1.332 . S
C605 C606 1.386 . S
C605 C608 1.388 . S
C606 C605 1.386 . S
C606 C607 1.382 . S
C606 H632 0.950 . S
C607 N604 1.332 . S
C607 C606 1.382 . S
C607 H618 0.952 . S
C608 C605 1.388 . S
C608 C609 1.382 . S
C608 H633 0.950 . S
C609 N604 1.332 . S
C609 C608 1.382 . S
C609 H619 0.926 1_554 S
N610 Co588 2.282 . S
N610 C614 1.332 . S
N610 C615 1.332 . S
C611 C612 1.388 . S
C611 C615 1.382 . S
C611 H634 0.950 . S
C612 C611 1.388 . S
C612 C613 1.386 1_554 S
C613 C612 1.386 1_556 S
C613 C614 1.382 1_556 S
C613 H635 0.950 . S
C614 N610 1.332 . S
C614 C613 1.382 1_554 S
C614 H616 0.952 1_554 S
C615 N610 1.332 . S
C615 C611 1.382 . S
C615 H617 0.948 . S
H616 C614 0.952 1_556 S
H617 C615 0.948 . S
H618 C607 0.952 . S
H619 C609 0.926 1_556 S
C620 C586 1.395 . S
C620 C590 1.391 . S
C621 C583 1.389 1_554 S
C621 C603 1.392 . S
C622 C593 1.392 . S
C622 C595 1.389 . S
C623 C598 1.395 . S
C623 C600 1.391 . S
H624 C584 0.951 . S
H625 C585 0.950 . S
H626 C591 0.949 . S
H627 C592 0.950 . S
H628 C596 0.951 . S
H629 C597 0.950 . S
H630 C601 0.949 . S
H631 C602 0.950 . S
H632 C606 0.950 . S
H633 C608 0.950 . S
H634 C611 0.950 . S
H635 C613 0.950 . S
O636 Mn637 2.163 . S
O636 C650 1.244 . S
Mn637 O636 2.163 . S
Mn637 O640 2.160 . S
Mn637 O641 2.221 . S
Mn637 O643 2.163 . S
Mn637 O645 2.160 . S
Mn637 O655 2.221 . S
O638 Mn639 2.087 . S
O638 C650 1.256 . S
Mn639 O638 2.087 . S
Mn639 O646 2.089 . S
Mn639 O655 2.290 . S
Mn639 O656 2.251 . S
O640 Mn637 2.160 . S
O640 C651 1.239 . S
O641 Mn637 2.221 . S
O641 Mn642 2.290 . S
O641 C652 1.278 . S
Mn642 O641 2.290 . S
Mn642 O644 2.089 1_554 S
Mn642 O647 2.251 . S
Mn642 O648 2.087 . S
O643 Mn637 2.163 . S
O643 C653 1.244 . S
O644 Mn642 2.089 1_556 S
O644 C651 1.256 1_556 S
O645 Mn637 2.160 . S
O645 C654 1.239 . S
O646 Mn639 2.089 . S
O646 C654 1.256 . S
O647 Mn642 2.251 . S
O647 C652 1.241 . S
O648 Mn642 2.087 . S
O648 C653 1.256 . S
C649 O655 1.278 . S
C649 O656 1.241 . S
C650 O636 1.244 . S
C650 O638 1.256 . S
C651 O640 1.239 . S
C651 O644 1.256 1_554 S
C652 O641 1.278 . S
C652 O647 1.241 . S
C653 O643 1.244 . S
C653 O648 1.256 . S
C654 O645 1.239 . S
C654 O646 1.256 . S
O655 Mn637 2.221 . S
O655 Mn639 2.290 . S
O655 C649 1.278 . S
O656 Mn639 2.251 . S
O656 C649 1.241 . S
O657 Mn658 2.163 . S
O657 C671 1.244 . S
Mn658 O657 2.163 . S
Mn658 O661 2.160 . S
Mn658 O662 2.221 . S
Mn658 O664 2.163 . S
Mn658 O666 2.160 . S
Mn658 O676 2.221 . S
O659 Mn660 2.087 . S
O659 C671 1.256 . S
Mn660 O659 2.087 . S
Mn660 O667 2.089 . S
Mn660 O676 2.290 . S
Mn660 O677 2.251 . S
O661 Mn658 2.160 . S
O661 C672 1.262 . S
O662 Mn658 2.221 . S
O662 Mn663 2.290 . S
O662 C673 1.278 . S
Mn663 O662 2.290 . S
Mn663 O665 2.089 1_554 S
Mn663 O668 2.251 1_655 S
Mn663 O669 2.087 . S
O664 Mn658 2.163 . S
O664 C674 1.244 . S
O665 Mn663 2.089 1_556 S
O665 C672 1.251 1_556 S
O666 Mn658 2.160 . S
O666 C675 1.239 . S
O667 Mn660 2.089 . S
O667 C675 1.256 . S
O668 Mn663 2.251 1_455 S
O668 C673 1.241 1_455 S
O669 Mn663 2.087 . S
O669 C674 1.256 . S
C670 O676 1.278 . S
C670 O677 1.241 . S
C671 O657 1.244 . S
C671 O659 1.256 . S
C672 O661 1.262 . S
C672 O665 1.251 1_554 S
C673 O662 1.278 . S
C673 O668 1.241 1_655 S
C674 O664 1.244 . S
C674 O669 1.256 . S
C675 O666 1.239 . S
C675 O667 1.256 . S
O676 Mn658 2.221 . S
O676 Mn660 2.290 . S
O676 C670 1.278 . S
O677 Mn660 2.251 . S
O677 C670 1.241 . S
O678 Mn679 2.163 . S
O678 C692 1.244 . S
Mn679 O678 2.163 . S
Mn679 O682 2.160 . S
Mn679 O683 2.221 . S
Mn679 O685 2.163 . S
Mn679 O687 2.160 . S
Mn679 O697 2.221 . S
O680 Mn681 2.087 . S
O680 C692 1.256 . S
Mn681 O680 2.087 . S
Mn681 O688 2.089 . S
Mn681 O697 2.290 . S
Mn681 O698 2.251 . S
O682 Mn679 2.160 . S
O682 C693 1.239 1_455 S
O683 Mn679 2.221 . S
O683 Mn684 2.290 . S
O683 C694 1.278 . S
Mn684 O683 2.290 . S
Mn684 O686 2.089 1_455 S
Mn684 O689 2.251 1_565 S
Mn684 O690 2.087 . S
O685 Mn679 2.163 . S
O685 C695 1.244 . S
O686 Mn684 2.089 1_655 S
O686 C693 1.256 . S
O687 Mn679 2.160 . S
O687 C696 1.239 . S
O688 Mn681 2.089 . S
O688 C696 1.256 . S
O689 Mn684 2.251 1_545 S
O689 C694 1.241 1_545 S
O690 Mn684 2.087 . S
O690 C695 1.256 . S
C691 O697 1.278 . S
C691 O698 1.241 . S
C692 O678 1.244 . S
C692 O680 1.256 . S
C693 O682 1.239 1_655 S
C693 O686 1.256 . S
C694 O683 1.278 . S
C694 O689 1.241 1_565 S
C695 O685 1.244 . S
C695 O690 1.256 . S
C696 O687 1.239 . S
C696 O688 1.256 . S
O697 Mn679 2.221 . S
O697 Mn681 2.290 . S
O697 C691 1.278 . S
O698 Mn681 2.251 . S
O698 C691 1.241 . S
O699 Mn700 2.163 . S
O699 C713 1.244 . S
Mn700 O699 2.163 . S
Mn700 O703 2.160 . S
Mn700 O704 2.221 . S
Mn700 O706 2.163 . S
Mn700 O708 2.160 . S
Mn700 O718 2.221 . S
O701 Mn702 2.087 . S
O701 C713 1.256 . S
Mn702 O701 2.087 . S
Mn702 O709 2.089 . S
Mn702 O718 2.290 . S
Mn702 O719 2.251 . S
O703 Mn700 2.160 . S
O703 C714 1.239 . S
O704 Mn700 2.221 . S
O704 Mn705 2.290 . S
O704 C715 1.278 . S
Mn705 O704 2.290 . S
Mn705 O707 2.089 . S
Mn705 O710 2.251 . S
Mn705 O711 2.087 . S
O706 Mn700 2.163 . S
O706 C716 1.244 . S
O707 Mn705 2.089 . S
O707 C714 1.256 . S
O708 Mn700 2.160 . S
O708 C717 1.239 . S
O709 Mn702 2.089 . S
O709 C717 1.256 . S
O710 Mn705 2.251 . S
O710 C715 1.241 . S
O711 Mn705 2.087 . S
O711 C716 1.256 . S
C712 O718 1.278 . S
C712 O719 1.241 . S
C713 O699 1.244 . S
C713 O701 1.256 . S
C714 O703 1.239 . S
C714 O707 1.256 . S
C715 O704 1.278 . S
C715 O710 1.241 . S
C716 O706 1.244 . S
C716 O711 1.256 . S
C717 O708 1.239 . S
C717 O709 1.256 . S
O718 Mn700 2.221 . S
O718 Mn702 2.290 . S
O718 C712 1.278 . S
O719 Mn702 2.251 . S
O719 C712 1.241 . S
O720 Mn721 2.163 . S
O720 C734 1.244 . S
Mn721 O720 2.163 . S
Mn721 O724 2.160 . S
Mn721 O725 2.221 . S
Mn721 O727 2.163 . S
Mn721 O729 2.160 . S
Mn721 O739 2.221 . S
O722 Mn723 2.087 . S
O722 C734 1.256 . S
Mn723 O722 2.087 . S
Mn723 O730 2.089 . S
Mn723 O739 2.290 . S
Mn723 O740 2.251 . S
O724 Mn721 2.160 . S
O724 C735 1.239 . S
O725 Mn721 2.221 . S
O725 Mn726 2.290 . S
O725 C736 1.278 . S
Mn726 O725 2.290 . S
Mn726 O728 2.089 . S
Mn726 O731 2.251 . S
Mn726 O732 2.087 . S
O727 Mn721 2.163 . S
O727 C737 1.244 . S
O728 Mn726 2.089 . S
O728 C735 1.256 . S
O729 Mn721 2.160 . S
O729 C738 1.239 . S
O730 Mn723 2.089 . S
O730 C738 1.256 . S
O731 Mn726 2.251 . S
O731 C736 1.241 . S
O732 Mn726 2.087 . S
O732 C737 1.256 . S
C733 O739 1.278 . S
C733 O740 1.241 . S
C734 O720 1.244 . S
C734 O722 1.256 . S
C735 O724 1.239 . S
C735 O728 1.256 . S
C736 O725 1.278 . S
C736 O731 1.241 . S
C737 O727 1.244 . S
C737 O732 1.256 . S
C738 O729 1.239 . S
C738 O730 1.256 . S
O739 Mn721 2.221 . S
O739 Mn723 2.290 . S
O739 C733 1.278 . S
O740 Mn723 2.251 . S
O740 C733 1.241 . S
O741 Mn742 2.163 . S
O741 C755 1.244 . S
Mn742 O741 2.163 . S
Mn742 O745 2.160 . S
Mn742 O746 2.221 . S
Mn742 O748 2.163 . S
Mn742 O750 2.160 . S
Mn742 O760 2.221 . S
O743 Mn744 2.087 . S
O743 C755 1.256 . S
Mn744 O743 2.087 . S
Mn744 O751 2.089 . S
Mn744 O760 2.290 . S
Mn744 O761 2.251 . S
O745 Mn742 2.160 . S
O745 C756 1.239 . S
O746 Mn742 2.221 . S
O746 Mn747 2.290 . S
O746 C757 1.278 . S
Mn747 O746 2.290 . S
Mn747 O749 2.089 . S
Mn747 O752 2.251 . S
Mn747 O753 2.087 . S
O748 Mn742 2.163 . S
O748 C758 1.244 . S
O749 Mn747 2.089 . S
O749 C756 1.256 . S
O750 Mn742 2.160 . S
O750 C759 1.239 . S
O751 Mn744 2.089 . S
O751 C759 1.256 . S
O752 Mn747 2.251 . S
O752 C757 1.241 . S
O753 Mn747 2.087 . S
O753 C758 1.256 . S
C754 O760 1.278 . S
C754 O761 1.241 . S
C755 O741 1.244 . S
C755 O743 1.256 . S
C756 O745 1.239 . S
C756 O749 1.256 . S
C757 O746 1.278 . S
C757 O752 1.241 . S
C758 O748 1.244 . S
C758 O753 1.256 . S
C759 O750 1.239 . S
C759 O751 1.256 . S
O760 Mn742 2.221 . S
O760 Mn744 2.290 . S
O760 C754 1.278 . S
O761 Mn744 2.251 . S
O761 C754 1.241 . S
O762 Mn763 2.163 . S
O762 C776 1.244 . S
Mn763 O762 2.163 . S
Mn763 O766 2.160 . S
Mn763 O767 2.221 . S
Mn763 O769 2.163 . S
Mn763 O771 2.160 . S
Mn763 O781 2.221 . S
O764 Mn765 2.087 . S
O764 C776 1.256 . S
Mn765 O764 2.087 . S
Mn765 O772 2.089 . S
Mn765 O781 2.290 . S
Mn765 O782 2.251 . S
O766 Mn763 2.160 . S
O766 C777 1.239 . S
O767 Mn763 2.221 . S
O767 Mn768 2.290 . S
O767 C778 1.278 . S
Mn768 O767 2.290 . S
Mn768 O770 2.089 . S
Mn768 O773 2.251 . S
Mn768 O774 2.087 . S
O769 Mn763 2.163 . S
O769 C779 1.244 . S
O770 Mn768 2.089 . S
O770 C777 1.256 . S
O771 Mn763 2.160 . S
O771 C780 1.239 . S
O772 Mn765 2.089 . S
O772 C780 1.256 . S
O773 Mn768 2.251 . S
O773 C778 1.241 . S
O774 Mn768 2.087 . S
O774 C779 1.256 . S
C775 O781 1.278 . S
C775 O782 1.241 . S
C776 O762 1.244 . S
C776 O764 1.256 . S
C777 O766 1.239 . S
C777 O770 1.256 . S
C778 O767 1.278 . S
C778 O773 1.241 . S
C779 O769 1.244 . S
C779 O774 1.256 . S
C780 O771 1.239 . S
C780 O772 1.256 . S
O781 Mn763 2.221 . S
O781 Mn765 2.290 . S
O781 C775 1.278 . S
O782 Mn765 2.251 . S
O782 C775 1.241 . S
O783 Mn784 2.163 . S
O783 C797 1.244 . S
Mn784 O783 2.163 . S
Mn784 O787 2.160 . S
Mn784 O788 2.221 . S
Mn784 O790 2.163 . S
Mn784 O792 2.160 . S
Mn784 O802 2.221 . S
O785 Mn786 2.087 . S
O785 C797 1.256 . S
Mn786 O785 2.087 . S
Mn786 O793 2.089 . S
Mn786 O802 2.290 . S
Mn786 O803 2.251 . S
O787 Mn784 2.160 . S
O787 C798 1.239 . S
O788 Mn784 2.221 . S
O788 Mn789 2.290 . S
O788 C799 1.278 . S
Mn789 O788 2.290 . S
Mn789 O791 2.089 . S
Mn789 O794 2.251 . S
Mn789 O795 2.087 . S
O790 Mn784 2.163 . S
O790 C800 1.244 . S
O791 Mn789 2.089 . S
O791 C798 1.256 . S
O792 Mn784 2.160 . S
O792 C801 1.239 . S
O793 Mn786 2.089 . S
O793 C801 1.256 . S
O794 Mn789 2.251 . S
O794 C799 1.241 . S
O795 Mn789 2.087 . S
O795 C800 1.256 . S
C796 O802 1.278 . S
C796 O803 1.241 . S
C797 O783 1.244 . S
C797 O785 1.256 . S
C798 O787 1.239 . S
C798 O791 1.256 . S
C799 O788 1.278 . S
C799 O794 1.241 . S
C800 O790 1.244 . S
C800 O795 1.256 . S
C801 O792 1.239 . S
C801 O793 1.256 . S
O802 Mn784 2.221 . S
O802 Mn786 2.290 . S
O802 C796 1.278 . S
O803 Mn786 2.251 . S
O803 C796 1.241 . S
C804 C805 1.349 . S
C804 C806 1.327 . S
C804 H829 0.950 . S
C805 C804 1.349 . S
C805 C821 1.349 . S
C806 C804 1.327 . S
C806 C825 1.429 . S
C806 H830 0.950 . S
C807 C824 1.574 . S
C807 C826 1.368 . S
C807 H831 0.949 . S
H808 C812 0.949 . S
C809 C810 1.349 . S
C809 C811 1.327 . S
C809 H832 0.950 . S
C810 C809 1.349 . S
C810 C822 1.349 . S
C811 C809 1.327 . S
C811 C827 1.429 . S
C811 H833 0.950 . S
C812 H808 0.949 . S
C812 C820 1.574 . S
C812 C828 1.368 . S
H813 C821 0.950 . S
H814 C819 0.950 . S
H815 C820 0.949 . S
H816 C822 0.950 . S
H817 C823 0.950 . S
H818 C824 0.949 . S
C819 H814 0.950 . S
C819 C821 1.327 . S
C819 C825 1.429 . S
C820 C812 1.574 . S
C820 H815 0.949 . S
C820 C826 1.368 . S
C821 C805 1.349 . S
C821 H813 0.950 . S
C821 C819 1.327 . S
C822 C810 1.349 . S
C822 H816 0.950 . S
C822 C823 1.327 . S
C823 H817 0.950 . S
C823 C822 1.327 . S
C823 C827 1.429 . S
C824 C807 1.574 . S
C824 H818 0.949 . S
C824 C828 1.368 . S
C825 C806 1.429 . S
C825 C819 1.429 . S
C825 C826 1.523 . S
C826 C807 1.368 . S
C826 C820 1.368 . S
C826 C825 1.523 . S
C827 C811 1.429 . S
C827 C823 1.429 . S
C827 C828 1.523 . S
C828 C812 1.368 . S
C828 C824 1.368 . S
C828 C827 1.523 . S
H829 C804 0.950 . S
H830 C806 0.950 . S
H831 C807 0.949 . S
H832 C809 0.950 . S
H833 C811 0.950 . S
C834 C835 1.349 . S
C834 C836 1.327 . S
C834 H859 0.950 . S
C835 C834 1.349 . S
C835 C851 1.349 1_455 S
C836 C834 1.327 . S
C836 C855 1.429 . S
C836 H860 0.950 . S
C837 C854 1.574 . S
C837 C856 1.368 1_655 S
C837 H861 0.949 . S
H838 C842 0.949 . S
C839 C840 1.349 . S
C839 C841 1.327 . S
C839 H862 0.950 . S
C840 C839 1.349 . S
C840 C852 1.349 . S
C841 C839 1.327 . S
C841 C857 1.429 . S
C841 H863 0.950 . S
C842 H838 0.949 . S
C842 C850 1.574 . S
C842 C858 1.368 1_455 S
H843 C851 0.950 . S
H844 C849 0.950 . S
H845 C850 0.949 . S
H846 C852 0.950 1_455 S
H847 C853 0.950 . S
H848 C854 0.949 . S
C849 H844 0.950 . S
C849 C851 1.327 . S
C849 C855 1.429 1_655 S
C850 C842 1.574 . S
C850 H845 0.949 . S
C850 C856 1.368 . S
C851 C835 1.349 1_655 S
C851 H843 0.950 . S
C851 C849 1.327 . S
C852 C840 1.349 . S
C852 H846 0.950 1_655 S
C852 C853 1.327 1_655 S
C853 H847 0.950 . S
C853 C852 1.327 1_455 S
C853 C857 1.429 1_455 S
C854 C837 1.574 . S
C854 H848 0.949 . S
C854 C858 1.368 . S
C855 C836 1.429 . S
C855 C849 1.429 1_455 S
C855 C856 1.523 . S
C856 C837 1.368 1_455 S
C856 C850 1.368 . S
C856 C855 1.523 . S
C857 C841 1.429 . S
C857 C853 1.429 1_655 S
C857 C858 1.523 . S
C858 C842 1.368 1_655 S
C858 C854 1.368 . S
C858 C857 1.523 . S
H859 C834 0.950 . S
H860 C836 0.950 . S
H861 C837 0.949 . S
H862 C839 0.950 . S
H863 C841 0.950 . S
C864 C865 1.349 . S
C864 C866 1.327 . S
C864 H889 0.950 . S
C865 C864 1.349 . S
C865 C881 1.349 . S
C866 C864 1.327 . S
C866 C885 1.429 . S
C866 H890 0.950 . S
C867 C884 1.574 . S
C867 C886 1.368 . S
C867 H891 0.949 . S
H868 C872 0.949 . S
C869 C870 1.353 . S
C869 C871 1.317 1_545 S
C869 H892 0.957 . S
C870 C869 1.353 . S
C870 C882 1.349 1_545 S
C871 C869 1.317 1_565 S
C871 C887 1.429 . S
C871 H893 0.950 . S
C872 H868 0.949 . S
C872 C880 1.574 . S
C872 C888 1.368 . S
H873 C881 0.950 . S
H874 C879 0.950 . S
H875 C880 0.949 . S
H876 C882 0.950 . S
H877 C883 0.950 . S
H878 C884 0.949 . S
C879 H874 0.950 . S
C879 C881 1.327 . S
C879 C885 1.429 . S
C880 C872 1.574 . S
C880 H875 0.949 . S
C880 C886 1.368 . S
C881 C865 1.349 . S
C881 H873 0.950 . S
C881 C879 1.327 . S
C882 C870 1.349 1_565 S
C882 H876 0.950 . S
C882 C883 1.327 . S
C883 H877 0.950 . S
C883 C882 1.327 . S
C883 C887 1.429 . S
C884 C867 1.574 . S
C884 H878 0.949 . S
C884 C888 1.368 . S
C885 C866 1.429 . S
C885 C879 1.429 . S
C885 C886 1.523 . S
C886 C867 1.368 . S
C886 C880 1.368 . S
C886 C885 1.523 . S
C887 C871 1.429 . S
C887 C883 1.429 . S
C887 C888 1.523 . S
C888 C872 1.368 . S
C888 C884 1.368 . S
C888 C887 1.523 . S
H889 C864 0.950 . S
H890 C866 0.950 . S
H891 C867 0.949 . S
H892 C869 0.957 . S
H893 C871 0.950 . S
C894 C895 1.349 . S
C894 C896 1.327 . S
C894 H919 0.950 . S
C895 C894 1.349 . S
C895 C911 1.349 1_455 S
C896 C894 1.327 . S
C896 C915 1.429 1_455 S
C896 H920 0.950 . S
C897 C914 1.574 . S
C897 C916 1.368 . S
C897 H921 0.949 . S
H898 C902 0.945 . S
C899 C900 1.349 . S
C899 C901 1.327 . S
C899 H922 0.950 . S
C900 C899 1.349 . S
C900 C912 1.349 . S
C901 C899 1.327 . S
C901 C917 1.429 . S
C901 H923 0.950 . S
C902 H898 0.945 . S
C902 C910 1.573 . S
C902 C918 1.373 1_455 S
H903 C911 0.950 . S
H904 C909 0.950 . S
H905 C910 0.949 . S
H906 C912 0.950 . S
H907 C913 0.950 1_455 S
H908 C914 0.949 . S
C909 H904 0.950 . S
C909 C911 1.327 . S
C909 C915 1.429 . S
C910 C902 1.573 . S
C910 H905 0.949 . S
C910 C916 1.368 1_455 S
C911 C895 1.349 1_655 S
C911 H903 0.950 . S
C911 C909 1.327 . S
C912 C900 1.349 . S
C912 H906 0.950 . S
C912 C913 1.327 . S
C913 H907 0.950 1_655 S
C913 C912 1.327 . S
C913 C917 1.429 . S
C914 C897 1.574 . S
C914 H908 0.949 . S
C914 C918 1.368 . S
C915 C896 1.429 1_655 S
C915 C909 1.429 . S
C915 C916 1.523 . S
C916 C897 1.368 . S
C916 C910 1.368 1_655 S
C916 C915 1.523 . S
C917 C901 1.429 . S
C917 C913 1.429 . S
C917 C918 1.523 . S
C918 C902 1.373 1_655 S
C918 C914 1.368 . S
C918 C917 1.523 . S
H919 C894 0.950 . S
H920 C896 0.950 . S
H921 C897 0.949 . S
H922 C899 0.950 . S
H923 C901 0.950 . S
C924 C925 1.349 . S
C924 C926 1.327 . S
C924 H949 0.950 . S
C925 C924 1.349 . S
C925 C941 1.349 . S
C926 C924 1.327 . S
C926 C945 1.429 . S
C926 H950 0.950 . S
C927 C944 1.574 . S
C927 C946 1.368 . S
C927 H951 0.949 . S
H928 C932 0.949 . S
C929 C930 1.340 1_554 S
C929 C931 1.370 . S
C929 H952 0.917 1_554 S
C930 C929 1.340 1_556 S
C930 C942 1.349 1_556 S
C931 C929 1.370 . S
C931 C947 1.429 . S
C931 H953 0.950 . S
C932 H928 0.949 . S
C932 C940 1.574 . S
C932 C948 1.368 . S
H933 C941 0.950 . S
H934 C939 0.950 . S
H935 C940 0.949 . S
H936 C942 0.950 . S
H937 C943 0.950 . S
H938 C944 0.949 . S
C939 H934 0.950 . S
C939 C941 1.327 . S
C939 C945 1.429 . S
C940 C932 1.574 . S
C940 H935 0.949 . S
C940 C946 1.368 . S
C941 C925 1.349 . S
C941 H933 0.950 . S
C941 C939 1.327 . S
C942 C930 1.349 1_554 S
C942 H936 0.950 . S
C942 C943 1.327 . S
C943 H937 0.950 . S
C943 C942 1.327 . S
C943 C947 1.429 . S
C944 C927 1.574 . S
C944 H938 0.949 . S
C944 C948 1.368 . S
C945 C926 1.429 . S
C945 C939 1.429 . S
C945 C946 1.523 . S
C946 C927 1.368 . S
C946 C940 1.368 . S
C946 C945 1.523 . S
C947 C931 1.429 . S
C947 C943 1.429 . S
C947 C948 1.523 . S
C948 C932 1.368 . S
C948 C944 1.368 . S
C948 C947 1.523 . S
H949 C924 0.950 . S
H950 C926 0.950 . S
H951 C927 0.949 . S
H952 C929 0.917 1_556 S
H953 C931 0.950 . S
C954 C955 1.349 . S
C954 C956 1.327 . S
C954 H979 0.950 . S
C955 C954 1.349 . S
C955 C971 1.349 . S
C956 C954 1.327 . S
C956 C975 1.429 . S
C956 H980 0.950 . S
C957 C974 1.574 . S
C957 C976 1.368 . S
C957 H981 0.949 . S
H958 C962 0.949 . S
C959 C960 1.349 . S
C959 C961 1.327 . S
C959 H982 0.950 . S
C960 C959 1.349 . S
C960 C972 1.349 . S
C961 C959 1.327 . S
C961 C977 1.429 . S
C961 H983 0.950 . S
C962 H958 0.949 . S
C962 C970 1.574 . S
C962 C978 1.368 . S
H963 C971 0.950 . S
H964 C969 0.950 . S
H965 C970 0.949 . S
H966 C972 0.950 . S
H967 C973 0.950 . S
H968 C974 0.949 . S
C969 H964 0.950 . S
C969 C971 1.327 . S
C969 C975 1.429 . S
C970 C962 1.574 . S
C970 H965 0.949 . S
C970 C976 1.368 . S
C971 C955 1.349 . S
C971 H963 0.950 . S
C971 C969 1.327 . S
C972 C960 1.349 . S
C972 H966 0.950 . S
C972 C973 1.327 . S
C973 H967 0.950 . S
C973 C972 1.327 . S
C973 C977 1.429 . S
C974 C957 1.574 . S
C974 H968 0.949 . S
C974 C978 1.368 . S
C975 C956 1.429 . S
C975 C969 1.429 . S
C975 C976 1.523 . S
C976 C957 1.368 . S
C976 C970 1.368 . S
C976 C975 1.523 . S
C977 C961 1.429 . S
C977 C973 1.429 . S
C977 C978 1.523 . S
C978 C962 1.368 . S
C978 C974 1.368 . S
C978 C977 1.523 . S
H979 C954 0.950 . S
H980 C956 0.950 . S
H981 C957 0.949 . S
H982 C959 0.950 . S
H983 C961 0.950 . S
C984 C985 1.349 1_545 S
C984 C986 1.327 . S
C984 H1009 0.950 . S
C985 C984 1.349 1_565 S
C985 C1001 1.349 . S
C986 C984 1.327 . S
C986 C1005 1.429 1_545 S
C986 H1010 0.950 . S
C987 C1004 1.574 . S
C987 C1006 1.368 . S
C987 H1011 0.949 . S
H988 C992 0.949 1_545 S
C989 C990 1.349 . S
C989 C991 1.327 . S
C989 H1012 0.950 . S
C990 C989 1.349 . S
C990 C1002 1.349 . S
C991 C989 1.327 . S
C991 C1007 1.429 . S
C991 H1013 0.950 . S
C992 H988 0.949 1_565 S
C992 C1000 1.574 . S
C992 C1008 1.368 . S
H993 C1001 0.950 . S
H994 C999 0.950 . S
H995 C1000 0.949 1_545 S
H996 C1002 0.950 . S
H997 C1003 0.990 . S
H998 C1004 0.949 . S
C999 H994 0.950 . S
C999 C1001 1.327 . S
C999 C1005 1.429 . S
C1000 C992 1.574 . S
C1000 H995 0.949 1_565 S
C1000 C1006 1.368 . S
C1001 C985 1.349 . S
C1001 H993 0.950 . S
C1001 C999 1.327 . S
C1002 C990 1.349 . S
C1002 H996 0.950 . S
C1002 C1003 1.327 . S
C1003 H997 0.990 . S
C1003 C1002 1.327 . S
C1003 C1007 1.429 . S
C1004 C987 1.574 . S
C1004 H998 0.949 . S
C1004 C1008 1.368 . S
C1005 C986 1.429 1_565 S
C1005 C999 1.429 . S
C1005 C1006 1.523 . S
C1006 C987 1.368 . S
C1006 C1000 1.368 . S
C1006 C1005 1.523 . S
C1007 C991 1.429 . S
C1007 C1003 1.429 . S
C1007 C1008 1.523 . S
C1008 C992 1.368 . S
C1008 C1004 1.368 . S
C1008 C1007 1.523 . S
H1009 C984 0.950 . S
H1010 C986 0.950 . S
H1011 C987 0.949 . S
H1012 C989 0.950 . S
H1013 C991 0.950 . S
C1014 C1015 1.349 . S
C1014 C1016 1.327 . S
C1014 H1039 0.950 . S
C1015 C1014 1.349 . S
C1015 C1031 1.349 . S
C1016 C1014 1.327 . S
C1016 C1035 1.429 . S
C1016 H1040 0.950 . S
C1017 C1034 1.574 . S
C1017 C1036 1.368 . S
C1017 H1041 0.949 . S
H1018 C1022 0.949 . S
C1019 C1020 1.349 . S
C1019 C1021 1.327 . S
C1019 H1042 0.950 . S
C1020 C1019 1.349 . S
C1020 C1032 1.349 . S
C1021 C1019 1.327 . S
C1021 C1037 1.429 . S
C1021 H1043 0.950 . S
C1022 H1018 0.949 . S
C1022 C1030 1.574 . S
C1022 C1038 1.368 . S
H1023 C1031 0.950 . S
H1024 C1029 0.950 . S
H1025 C1030 0.949 . S
H1026 C1032 0.950 . S
H1027 C1033 0.950 . S
H1028 C1034 0.949 . S
C1029 H1024 0.950 . S
C1029 C1031 1.327 . S
C1029 C1035 1.429 . S
C1030 C1022 1.574 . S
C1030 H1025 0.949 . S
C1030 C1036 1.368 . S
C1031 C1015 1.349 . S
C1031 H1023 0.950 . S
C1031 C1029 1.327 . S
C1032 C1020 1.349 . S
C1032 H1026 0.950 . S
C1032 C1033 1.327 . S
C1033 H1027 0.950 . S
C1033 C1032 1.327 . S
C1033 C1037 1.429 . S
C1034 C1017 1.574 . S
C1034 H1028 0.949 . S
C1034 C1038 1.368 . S
C1035 C1016 1.429 . S
C1035 C1029 1.429 . S
C1035 C1036 1.523 . S
C1036 C1017 1.368 . S
C1036 C1030 1.368 . S
C1036 C1035 1.523 . S
C1037 C1021 1.429 . S
C1037 C1033 1.429 . S
C1037 C1038 1.523 . S
C1038 C1022 1.368 . S
C1038 C1034 1.368 . S
C1038 C1037 1.523 . S
H1039 C1014 0.950 . S
H1040 C1016 0.950 . S
H1041 C1017 0.949 . S
H1042 C1019 0.950 . S
H1043 C1021 0.950 . S
C1044 C1045 1.349 . S
C1044 C1046 1.327 . S
C1044 H1069 0.950 . S
C1045 C1044 1.349 . S
C1045 C1061 1.349 . S
C1046 C1044 1.327 . S
C1046 C1065 1.429 . S
C1046 H1070 0.950 . S
C1047 C1064 1.574 . S
C1047 C1066 1.368 . S
C1047 H1071 0.949 . S
H1048 C1052 0.949 . S
C1049 C1050 1.349 . S
C1049 C1051 1.327 . S
C1049 H1072 0.950 1_554 S
C1050 C1049 1.349 . S
C1050 C1062 1.349 . S
C1051 C1049 1.327 . S
C1051 C1067 1.429 . S
C1051 H1073 0.917 1_554 S
C1052 H1048 0.949 . S
C1052 C1060 1.574 . S
C1052 C1068 1.368 . S
H1053 C1061 0.950 . S
H1054 C1059 0.950 . S
H1055 C1060 0.949 . S
H1056 C1062 0.950 . S
H1057 C1063 0.950 . S
H1058 C1064 0.969 . S
C1059 H1054 0.950 . S
C1059 C1061 1.327 . S
C1059 C1065 1.429 . S
C1060 C1052 1.574 . S
C1060 H1055 0.949 . S
C1060 C1066 1.368 . S
C1061 C1045 1.349 . S
C1061 H1053 0.950 . S
C1061 C1059 1.327 . S
C1062 C1050 1.349 . S
C1062 H1056 0.950 . S
C1062 C1063 1.327 . S
C1063 H1057 0.950 . S
C1063 C1062 1.327 . S
C1063 C1067 1.429 . S
C1064 C1047 1.574 . S
C1064 H1058 0.969 . S
C1064 C1068 1.368 . S
C1065 C1046 1.429 . S
C1065 C1059 1.429 . S
C1065 C1066 1.523 . S
C1066 C1047 1.368 . S
C1066 C1060 1.368 . S
C1066 C1065 1.523 . S
C1067 C1051 1.429 . S
C1067 C1063 1.429 . S
C1067 C1068 1.523 . S
C1068 C1052 1.368 . S
C1068 C1064 1.368 . S
C1068 C1067 1.523 . S
H1069 C1044 0.950 . S
H1070 C1046 0.950 . S
H1071 C1047 0.949 . S
H1072 C1049 0.950 1_556 S
H1073 C1051 0.917 1_556 S
C1074 C1075 1.349 . S
C1074 C1076 1.327 . S
C1074 H1099 0.950 . S
C1075 C1074 1.349 . S
C1075 C1091 1.349 . S
C1076 C1074 1.327 . S
C1076 C1095 1.429 . S
C1076 H1100 0.950 . S
C1077 C1094 1.574 . S
C1077 C1096 1.368 . S
C1077 H1101 0.949 . S
H1078 C1082 0.949 . S
C1079 C1080 1.349 . S
C1079 C1081 1.327 . S
C1079 H1102 0.950 . S
C1080 C1079 1.349 . S
C1080 C1092 1.349 . S
C1081 C1079 1.327 . S
C1081 C1097 1.429 . S
C1081 H1103 0.950 . S
C1082 H1078 0.949 . S
C1082 C1090 1.574 . S
C1082 C1098 1.368 . S
H1083 C1091 0.950 . S
H1084 C1089 0.950 . S
H1085 C1090 0.949 . S
H1086 C1092 0.950 . S
H1087 C1093 0.950 . S
H1088 C1094 0.949 . S
C1089 H1084 0.950 . S
C1089 C1091 1.327 . S
C1089 C1095 1.429 . S
C1090 C1082 1.574 . S
C1090 H1085 0.949 . S
C1090 C1096 1.368 . S
C1091 C1075 1.349 . S
C1091 H1083 0.950 . S
C1091 C1089 1.327 . S
C1092 C1080 1.349 . S
C1092 H1086 0.950 . S
C1092 C1093 1.327 . S
C1093 H1087 0.950 . S
C1093 C1092 1.327 . S
C1093 C1097 1.429 . S
C1094 C1077 1.574 . S
C1094 H1088 0.949 . S
C1094 C1098 1.368 . S
C1095 C1076 1.429 . S
C1095 C1089 1.429 . S
C1095 C1096 1.523 . S
C1096 C1077 1.368 . S
C1096 C1090 1.368 . S
C1096 C1095 1.523 . S
C1097 C1081 1.429 . S
C1097 C1093 1.429 . S
C1097 C1098 1.523 . S
C1098 C1082 1.368 . S
C1098 C1094 1.368 . S
C1098 C1097 1.523 . S
H1099 C1074 0.950 . S
H1100 C1076 0.950 . S
H1101 C1077 0.949 . S
H1102 C1079 0.950 . S
H1103 C1081 0.950 . S
C1104 C1105 1.349 . S
C1104 C1106 1.327 . S
C1104 H1129 0.950 . S
C1105 C1104 1.349 . S
C1105 C1121 1.349 . S
C1106 C1104 1.327 . S
C1106 C1125 1.429 . S
C1106 H1130 0.950 . S
C1107 C1124 1.574 . S
C1107 C1126 1.368 . S
C1107 H1131 0.949 . S
H1108 C1112 0.949 . S
C1109 C1110 1.349 . S
C1109 C1111 1.327 . S
C1109 H1132 0.950 . S
C1110 C1109 1.349 . S
C1110 C1122 1.349 . S
C1111 C1109 1.327 . S
C1111 C1127 1.429 . S
C1111 H1133 0.950 . S
C1112 H1108 0.949 . S
C1112 C1120 1.574 . S
C1112 C1128 1.368 . S
H1113 C1121 0.950 . S
H1114 C1119 0.950 . S
H1115 C1120 0.949 . S
H1116 C1122 0.950 . S
H1117 C1123 0.950 . S
H1118 C1124 0.949 . S
C1119 H1114 0.950 . S
C1119 C1121 1.327 . S
C1119 C1125 1.429 . S
C1120 C1112 1.574 . S
C1120 H1115 0.949 . S
C1120 C1126 1.368 . S
C1121 C1105 1.349 . S
C1121 H1113 0.950 . S
C1121 C1119 1.327 . S
C1122 C1110 1.349 . S
C1122 H1116 0.950 . S
C1122 C1123 1.327 . S
C1123 H1117 0.950 . S
C1123 C1122 1.327 . S
C1123 C1127 1.429 . S
C1124 C1107 1.574 . S
C1124 H1118 0.949 . S
C1124 C1128 1.368 . S
C1125 C1106 1.429 . S
C1125 C1119 1.429 . S
C1125 C1126 1.523 . S
C1126 C1107 1.368 . S
C1126 C1120 1.368 . S
C1126 C1125 1.523 . S
C1127 C1111 1.429 . S
C1127 C1123 1.429 . S
C1127 C1128 1.523 . S
C1128 C1112 1.368 . S
C1128 C1124 1.368 . S
C1128 C1127 1.523 . S
H1129 C1104 0.950 . S
H1130 C1106 0.950 . S
H1131 C1107 0.949 . S
H1132 C1109 0.950 . S
H1133 C1111 0.950 . S
C1134 C1135 1.349 . S
C1134 C1136 1.327 . S
C1134 H1159 0.950 . S
C1135 C1134 1.349 . S
C1135 C1151 1.349 . S
C1136 C1134 1.327 . S
C1136 C1155 1.429 . S
C1136 H1160 0.950 . S
C1137 C1154 1.574 . S
C1137 C1156 1.368 . S
C1137 H1161 0.949 . S
H1138 C1142 0.949 . S
C1139 C1140 1.349 . S
C1139 C1141 1.327 . S
C1139 H1162 0.950 . S
C1140 C1139 1.349 . S
C1140 C1152 1.349 . S
C1141 C1139 1.327 . S
C1141 C1157 1.429 . S
C1141 H1163 0.950 . S
C1142 H1138 0.949 . S
C1142 C1150 1.574 . S
C1142 C1158 1.368 . S
H1143 C1151 0.950 . S
H1144 C1149 0.950 . S
H1145 C1150 0.949 . S
H1146 C1152 0.950 . S
H1147 C1153 0.950 . S
H1148 C1154 0.949 . S
C1149 H1144 0.950 . S
C1149 C1151 1.327 . S
C1149 C1155 1.429 . S
C1150 C1142 1.574 . S
C1150 H1145 0.949 . S
C1150 C1156 1.368 . S
C1151 C1135 1.349 . S
C1151 H1143 0.950 . S
C1151 C1149 1.327 . S
C1152 C1140 1.349 . S
C1152 H1146 0.950 . S
C1152 C1153 1.327 . S
C1153 H1147 0.950 . S
C1153 C1152 1.327 . S
C1153 C1157 1.429 . S
C1154 C1137 1.574 . S
C1154 H1148 0.949 . S
C1154 C1158 1.368 . S
C1155 C1136 1.429 . S
C1155 C1149 1.429 . S
C1155 C1156 1.523 . S
C1156 C1137 1.368 . S
C1156 C1150 1.368 . S
C1156 C1155 1.523 . S
C1157 C1141 1.429 . S
C1157 C1153 1.429 . S
C1157 C1158 1.523 . S
C1158 C1142 1.368 . S
C1158 C1154 1.368 . S
C1158 C1157 1.523 . S
H1159 C1134 0.950 . S
H1160 C1136 0.950 . S
H1161 C1137 0.949 . S
H1162 C1139 0.950 . S
H1163 C1141 0.950 . S
C1164 C1165 1.349 . S
C1164 C1166 1.327 . S
C1164 H1189 0.950 . S
C1165 C1164 1.349 . S
C1165 C1181 1.349 . S
C1166 C1164 1.327 . S
C1166 C1185 1.429 . S
C1166 H1190 0.950 . S
C1167 C1184 1.574 . S
C1167 C1186 1.368 . S
C1167 H1191 0.949 . S
H1168 C1172 0.949 . S
C1169 C1170 1.349 . S
C1169 C1171 1.327 . S
C1169 H1192 0.950 . S
C1170 C1169 1.349 . S
C1170 C1182 1.349 . S
C1171 C1169 1.327 . S
C1171 C1187 1.429 . S
C1171 H1193 0.950 . S
C1172 H1168 0.949 . S
C1172 C1180 1.574 . S
C1172 C1188 1.368 . S
H1173 C1181 0.950 . S
H1174 C1179 0.950 . S
H1175 C1180 0.949 . S
H1176 C1182 0.950 . S
H1177 C1183 0.950 . S
H1178 C1184 0.949 . S
C1179 H1174 0.950 . S
C1179 C1181 1.327 . S
C1179 C1185 1.429 . S
C1180 C1172 1.574 . S
C1180 H1175 0.949 . S
C1180 C1186 1.368 . S
C1181 C1165 1.349 . S
C1181 H1173 0.950 . S
C1181 C1179 1.327 . S
C1182 C1170 1.349 . S
C1182 H1176 0.950 . S
C1182 C1183 1.327 . S
C1183 H1177 0.950 . S
C1183 C1182 1.327 . S
C1183 C1187 1.429 . S
C1184 C1167 1.574 . S
C1184 H1178 0.949 . S
C1184 C1188 1.368 . S
C1185 C1166 1.429 . S
C1185 C1179 1.429 . S
C1185 C1186 1.523 . S
C1186 C1167 1.368 . S
C1186 C1180 1.368 . S
C1186 C1185 1.523 . S
C1187 C1171 1.429 . S
C1187 C1183 1.429 . S
C1187 C1188 1.523 . S
C1188 C1172 1.368 . S
C1188 C1184 1.368 . S
C1188 C1187 1.523 . S
H1189 C1164 0.950 . S
H1190 C1166 0.950 . S
H1191 C1167 0.949 . S
H1192 C1169 0.950 . S
H1193 C1171 0.950 . S
C1194 C1195 1.349 . S
C1194 C1196 1.327 . S
C1194 H1219 0.950 . S
C1195 C1194 1.349 . S
C1195 C1211 1.349 . S
C1196 C1194 1.327 . S
C1196 C1215 1.429 . S
C1196 H1220 0.950 . S
C1197 C1214 1.574 . S
C1197 C1216 1.368 . S
C1197 H1221 0.949 . S
H1198 C1202 0.949 . S
C1199 C1200 1.349 1_565 S
C1199 C1201 1.327 . S
C1199 H1222 0.950 1_565 S
C1200 C1199 1.349 1_545 S
C1200 C1212 1.349 1_545 S
C1201 C1199 1.327 . S
C1201 C1217 1.429 . S
C1201 H1223 0.950 . S
C1202 H1198 0.949 . S
C1202 C1210 1.574 . S
C1202 C1218 1.368 . S
H1203 C1211 0.950 . S
H1204 C1209 0.950 . S
H1205 C1210 0.949 . S
H1206 C1212 0.950 . S
H1207 C1213 0.950 . S
H1208 C1214 0.949 . S
C1209 H1204 0.950 . S
C1209 C1211 1.327 . S
C1209 C1215 1.429 . S
C1210 C1202 1.574 . S
C1210 H1205 0.949 . S
C1210 C1216 1.368 . S
C1211 C1195 1.349 . S
C1211 H1203 0.950 . S
C1211 C1209 1.327 . S
C1212 C1200 1.349 1_565 S
C1212 H1206 0.950 . S
C1212 C1213 1.327 . S
C1213 H1207 0.950 . S
C1213 C1212 1.327 . S
C1213 C1217 1.429 . S
C1214 C1197 1.574 . S
C1214 H1208 0.949 . S
C1214 C1218 1.368 . S
C1215 C1196 1.429 . S
C1215 C1209 1.429 . S
C1215 C1216 1.523 . S
C1216 C1197 1.368 . S
C1216 C1210 1.368 . S
C1216 C1215 1.523 . S
C1217 C1201 1.429 . S
C1217 C1213 1.429 . S
C1217 C1218 1.523 . S
C1218 C1202 1.368 . S
C1218 C1214 1.368 . S
C1218 C1217 1.523 . S
H1219 C1194 0.950 . S
H1220 C1196 0.950 . S
H1221 C1197 0.949 . S
H1222 C1199 0.950 1_545 S
H1223 C1201 0.950 . S
C1224 C1225 1.349 . S
C1224 C1226 1.327 . S
C1224 H1249 0.950 . S
C1225 C1224 1.349 . S
C1225 C1241 1.349 . S
C1226 C1224 1.327 . S
C1226 C1245 1.429 . S
C1226 H1250 0.950 . S
C1227 C1244 1.574 . S
C1227 C1246 1.368 . S
C1227 H1251 0.949 . S
H1228 C1232 0.949 . S
C1229 C1230 1.349 . S
C1229 C1231 1.327 . S
C1229 H1252 0.950 . S
C1230 C1229 1.349 . S
C1230 C1242 1.349 . S
C1231 C1229 1.327 . S
C1231 C1247 1.429 . S
C1231 H1253 0.950 . S
C1232 H1228 0.949 . S
C1232 C1240 1.574 . S
C1232 C1248 1.368 . S
H1233 C1241 0.950 . S
H1234 C1239 0.950 . S
H1235 C1240 0.949 . S
H1236 C1242 0.950 . S
H1237 C1243 0.950 . S
H1238 C1244 0.949 . S
C1239 H1234 0.950 . S
C1239 C1241 1.327 . S
C1239 C1245 1.429 . S
C1240 C1232 1.574 . S
C1240 H1235 0.949 . S
C1240 C1246 1.368 . S
C1241 C1225 1.349 . S
C1241 H1233 0.950 . S
C1241 C1239 1.327 . S
C1242 C1230 1.349 . S
C1242 H1236 0.950 . S
C1242 C1243 1.327 . S
C1243 H1237 0.950 . S
C1243 C1242 1.327 . S
C1243 C1247 1.429 . S
C1244 C1227 1.574 . S
C1244 H1238 0.949 . S
C1244 C1248 1.368 . S
C1245 C1226 1.429 . S
C1245 C1239 1.429 . S
C1245 C1246 1.523 . S
C1246 C1227 1.368 . S
C1246 C1240 1.368 . S
C1246 C1245 1.523 . S
C1247 C1231 1.429 . S
C1247 C1243 1.429 . S
C1247 C1248 1.523 . S
C1248 C1232 1.368 . S
C1248 C1244 1.368 . S
C1248 C1247 1.523 . S
H1249 C1224 0.950 . S
H1250 C1226 0.950 . S
H1251 C1227 0.949 . S
H1252 C1229 0.950 . S
H1253 C1231 0.950 . S
C1254 C1255 1.349 . S
C1254 C1256 1.327 . S
C1254 H1279 0.950 . S
C1255 C1254 1.349 . S
C1255 C1271 1.349 . S
C1256 C1254 1.327 . S
C1256 C1275 1.429 . S
C1256 H1280 0.950 . S
C1257 C1274 1.574 . S
C1257 C1276 1.368 . S
C1257 H1281 0.949 . S
H1258 C1262 0.949 . S
C1259 C1260 1.349 . S
C1259 C1261 1.327 . S
C1259 H1282 0.950 . S
C1260 C1259 1.349 . S
C1260 C1272 1.349 . S
C1261 C1259 1.327 . S
C1261 C1277 1.429 . S
C1261 H1283 0.950 . S
C1262 H1258 0.949 . S
C1262 C1270 1.574 . S
C1262 C1278 1.368 . S
H1263 C1271 0.950 . S
H1264 C1269 0.950 . S
H1265 C1270 0.949 . S
H1266 C1272 0.950 . S
H1267 C1273 0.950 . S
H1268 C1274 0.949 . S
C1269 H1264 0.950 . S
C1269 C1271 1.327 . S
C1269 C1275 1.429 . S
C1270 C1262 1.574 . S
C1270 H1265 0.949 . S
C1270 C1276 1.368 . S
C1271 C1255 1.349 . S
C1271 H1263 0.950 . S
C1271 C1269 1.327 . S
C1272 C1260 1.349 . S
C1272 H1266 0.950 . S
C1272 C1273 1.327 . S
C1273 H1267 0.950 . S
C1273 C1272 1.327 . S
C1273 C1277 1.429 . S
C1274 C1257 1.574 . S
C1274 H1268 0.949 . S
C1274 C1278 1.368 . S
C1275 C1256 1.429 . S
C1275 C1269 1.429 . S
C1275 C1276 1.523 . S
C1276 C1257 1.368 . S
C1276 C1270 1.368 . S
C1276 C1275 1.523 . S
C1277 C1261 1.429 . S
C1277 C1273 1.429 . S
C1277 C1278 1.523 . S
C1278 C1262 1.368 . S
C1278 C1274 1.368 . S
C1278 C1277 1.523 . S
H1279 C1254 0.950 . S
H1280 C1256 0.950 . S
H1281 C1257 0.949 . S
H1282 C1259 0.950 . S
H1283 C1261 0.950 . S
C1284 C1285 1.349 . S
C1284 C1286 1.327 . S
C1284 H1309 0.950 . S
C1285 C1284 1.349 . S
C1285 C1301 1.349 . S
C1286 C1284 1.327 . S
C1286 C1305 1.429 . S
C1286 H1310 0.950 . S
C1287 C1304 1.574 . S
C1287 C1306 1.368 . S
C1287 H1311 0.949 . S
H1288 C1292 0.949 . S
C1289 C1290 1.349 . S
C1289 C1291 1.327 . S
C1289 H1312 0.950 . S
C1290 C1289 1.349 . S
C1290 C1302 1.349 . S
C1291 C1289 1.327 . S
C1291 C1307 1.429 . S
C1291 H1313 0.950 . S
C1292 H1288 0.949 . S
C1292 C1300 1.574 . S
C1292 C1308 1.368 . S
H1293 C1301 0.950 . S
H1294 C1299 0.950 . S
H1295 C1300 0.949 . S
H1296 C1302 0.950 . S
H1297 C1303 0.950 . S
H1298 C1304 0.949 . S
C1299 H1294 0.950 . S
C1299 C1301 1.327 . S
C1299 C1305 1.429 . S
C1300 C1292 1.574 . S
C1300 H1295 0.949 . S
C1300 C1306 1.368 . S
C1301 C1285 1.349 . S
C1301 H1293 0.950 . S
C1301 C1299 1.327 . S
C1302 C1290 1.349 . S
C1302 H1296 0.950 . S
C1302 C1303 1.327 . S
C1303 H1297 0.950 . S
C1303 C1302 1.327 . S
C1303 C1307 1.429 . S
C1304 C1287 1.574 . S
C1304 H1298 0.949 . S
C1304 C1308 1.368 . S
C1305 C1286 1.429 . S
C1305 C1299 1.429 . S
C1305 C1306 1.523 . S
C1306 C1287 1.368 . S
C1306 C1300 1.368 . S
C1306 C1305 1.523 . S
C1307 C1291 1.429 . S
C1307 C1303 1.429 . S
C1307 C1308 1.523 . S
C1308 C1292 1.368 . S
C1308 C1304 1.368 . S
C1308 C1307 1.523 . S
H1309 C1284 0.950 . S
H1310 C1286 0.950 . S
H1311 C1287 0.949 . S
H1312 C1289 0.950 . S
H1313 C1291 0.950 . S
C1314 C1315 1.349 . S
C1314 C1316 1.327 . S
C1314 H1339 0.950 . S
C1315 C1314 1.349 . S
C1315 C1331 1.349 . S
C1316 C1314 1.327 . S
C1316 C1335 1.429 . S
C1316 H1340 0.950 . S
C1317 C1334 1.574 . S
C1317 C1336 1.368 . S
C1317 H1341 0.981 . S
H1318 C1322 0.949 . S
C1319 C1320 1.349 . S
C1319 C1321 1.327 . S
C1319 H1342 0.950 . S
C1320 C1319 1.349 . S
C1320 C1332 1.349 . S
C1321 C1319 1.327 . S
C1321 C1337 1.429 . S
C1321 H1343 0.950 . S
C1322 H1318 0.949 . S
C1322 C1330 1.574 . S
C1322 C1338 1.368 . S
H1323 C1331 0.950 1_545 S
H1324 C1329 0.950 1_545 S
H1325 C1330 0.949 . S
H1326 C1332 0.950 . S
H1327 C1333 0.950 . S
H1328 C1334 0.949 . S
C1329 H1324 0.950 1_565 S
C1329 C1331 1.327 . S
C1329 C1335 1.429 . S
C1330 C1322 1.574 . S
C1330 H1325 0.949 . S
C1330 C1336 1.368 . S
C1331 C1315 1.349 . S
C1331 H1323 0.950 1_565 S
C1331 C1329 1.327 . S
C1332 C1320 1.349 . S
C1332 H1326 0.950 . S
C1332 C1333 1.327 . S
C1333 H1327 0.950 . S
C1333 C1332 1.327 . S
C1333 C1337 1.429 . S
C1334 C1317 1.574 . S
C1334 H1328 0.949 . S
C1334 C1338 1.368 . S
C1335 C1316 1.429 . S
C1335 C1329 1.429 . S
C1335 C1336 1.523 . S
C1336 C1317 1.368 . S
C1336 C1330 1.368 . S
C1336 C1335 1.523 . S
C1337 C1321 1.429 . S
C1337 C1333 1.429 . S
C1337 C1338 1.523 . S
C1338 C1322 1.368 . S
C1338 C1334 1.368 . S
C1338 C1337 1.523 . S
H1339 C1314 0.950 . S
H1340 C1316 0.950 . S
H1341 C1317 0.981 . S
H1342 C1319 0.950 . S
H1343 C1321 0.950 . S
C1344 C1345 1.349 . S
C1344 C1346 1.327 . S
C1344 H1369 0.950 . S
C1345 C1344 1.349 . S
C1345 C1361 1.349 . S
C1346 C1344 1.327 . S
C1346 C1365 1.429 . S
C1346 H1370 0.950 . S
C1347 C1364 1.574 . S
C1347 C1366 1.368 . S
C1347 H1371 0.949 . S
H1348 C1352 0.949 . S
C1349 C1350 1.349 . S
C1349 C1351 1.327 . S
C1349 H1372 0.950 . S
C1350 C1349 1.349 . S
C1350 C1362 1.349 . S
C1351 C1349 1.327 . S
C1351 C1367 1.429 . S
C1351 H1373 0.950 . S
C1352 H1348 0.949 . S
C1352 C1360 1.574 . S
C1352 C1368 1.368 . S
H1353 C1361 0.950 . S
H1354 C1359 0.950 . S
H1355 C1360 0.949 . S
H1356 C1362 0.950 . S
H1357 C1363 0.950 . S
H1358 C1364 0.949 . S
C1359 H1354 0.950 . S
C1359 C1361 1.327 . S
C1359 C1365 1.429 . S
C1360 C1352 1.574 . S
C1360 H1355 0.949 . S
C1360 C1366 1.368 . S
C1361 C1345 1.349 . S
C1361 H1353 0.950 . S
C1361 C1359 1.327 . S
C1362 C1350 1.349 . S
C1362 H1356 0.950 . S
C1362 C1363 1.327 . S
C1363 H1357 0.950 . S
C1363 C1362 1.327 . S
C1363 C1367 1.429 . S
C1364 C1347 1.574 . S
C1364 H1358 0.949 . S
C1364 C1368 1.368 . S
C1365 C1346 1.429 . S
C1365 C1359 1.429 . S
C1365 C1366 1.523 . S
C1366 C1347 1.368 . S
C1366 C1360 1.368 . S
C1366 C1365 1.523 . S
C1367 C1351 1.429 . S
C1367 C1363 1.429 . S
C1367 C1368 1.523 . S
C1368 C1352 1.368 . S
C1368 C1364 1.368 . S
C1368 C1367 1.523 . S
H1369 C1344 0.950 . S
H1370 C1346 0.950 . S
H1371 C1347 0.949 . S
H1372 C1349 0.950 . S
H1373 C1351 0.950 . S
C1374 C1375 1.349 . S
C1374 C1376 1.327 . S
C1374 H1399 0.950 . S
C1375 C1374 1.349 . S
C1375 C1391 1.349 . S
C1376 C1374 1.327 . S
C1376 C1395 1.429 . S
C1376 H1400 0.950 . S
C1377 C1394 1.574 . S
C1377 C1396 1.368 . S
C1377 H1401 0.980 . S
H1378 C1382 0.949 . S
C1379 C1380 1.349 . S
C1379 C1381 1.327 . S
C1379 H1402 0.950 . S
C1380 C1379 1.349 . S
C1380 C1392 1.349 . S
C1381 C1379 1.327 . S
C1381 C1397 1.429 . S
C1381 H1403 0.950 . S
C1382 H1378 0.949 . S
C1382 C1390 1.574 . S
C1382 C1398 1.368 . S
H1383 C1391 0.950 1_565 S
H1384 C1389 0.950 1_565 S
H1385 C1390 0.949 . S
H1386 C1392 0.950 . S
H1387 C1393 0.950 . S
H1388 C1394 0.949 . S
C1389 H1384 0.950 1_545 S
C1389 C1391 1.327 . S
C1389 C1395 1.429 . S
C1390 C1382 1.574 . S
C1390 H1385 0.949 . S
C1390 C1396 1.368 . S
C1391 C1375 1.349 . S
C1391 H1383 0.950 1_545 S
C1391 C1389 1.327 . S
C1392 C1380 1.349 . S
C1392 H1386 0.950 . S
C1392 C1393 1.327 . S
C1393 H1387 0.950 . S
C1393 C1392 1.327 . S
C1393 C1397 1.429 . S
C1394 C1377 1.574 . S
C1394 H1388 0.949 . S
C1394 C1398 1.368 . S
C1395 C1376 1.429 . S
C1395 C1389 1.429 . S
C1395 C1396 1.523 . S
C1396 C1377 1.368 . S
C1396 C1390 1.368 . S
C1396 C1395 1.523 . S
C1397 C1381 1.429 . S
C1397 C1393 1.429 . S
C1397 C1398 1.523 . S
C1398 C1382 1.368 . S
C1398 C1394 1.368 . S
C1398 C1397 1.523 . S
H1399 C1374 0.950 . S
H1400 C1376 0.950 . S
H1401 C1377 0.980 . S
H1402 C1379 0.950 . S
H1403 C1381 0.950 . S
C1404 C1405 1.349 . S
C1404 C1406 1.327 . S
C1404 H1429 0.950 . S
C1405 C1404 1.349 . S
C1405 C1421 1.349 . S
C1406 C1404 1.327 . S
C1406 C1425 1.429 . S
C1406 H1430 0.950 . S
C1407 C1424 1.574 . S
C1407 C1426 1.368 . S
C1407 H1431 0.949 . S
H1408 C1412 0.949 . S
C1409 C1410 1.349 . S
C1409 C1411 1.327 . S
C1409 H1432 0.950 . S
C1410 C1409 1.349 . S
C1410 C1422 1.349 . S
C1411 C1409 1.327 . S
C1411 C1427 1.429 . S
C1411 H1433 0.950 . S
C1412 H1408 0.949 . S
C1412 C1420 1.574 . S
C1412 C1428 1.368 . S
H1413 C1421 0.950 . S
H1414 C1419 0.950 . S
H1415 C1420 0.949 . S
H1416 C1422 0.950 . S
H1417 C1423 0.950 . S
H1418 C1424 0.949 . S
C1419 H1414 0.950 . S
C1419 C1421 1.327 . S
C1419 C1425 1.429 . S
C1420 C1412 1.574 . S
C1420 H1415 0.949 . S
C1420 C1426 1.368 . S
C1421 C1405 1.349 . S
C1421 H1413 0.950 . S
C1421 C1419 1.327 . S
C1422 C1410 1.349 . S
C1422 H1416 0.950 . S
C1422 C1423 1.327 . S
C1423 H1417 0.950 . S
C1423 C1422 1.327 . S
C1423 C1427 1.429 . S
C1424 C1407 1.574 . S
C1424 H1418 0.949 . S
C1424 C1428 1.368 . S
C1425 C1406 1.429 . S
C1425 C1419 1.429 . S
C1425 C1426 1.523 . S
C1426 C1407 1.368 . S
C1426 C1420 1.368 . S
C1426 C1425 1.523 . S
C1427 C1411 1.429 . S
C1427 C1423 1.429 . S
C1427 C1428 1.523 . S
C1428 C1412 1.368 . S
C1428 C1424 1.368 . S
C1428 C1427 1.523 . S
H1429 C1404 0.950 . S
H1430 C1406 0.950 . S
H1431 C1407 0.949 . S
H1432 C1409 0.950 . S
H1433 C1411 0.950 . S
C1434 C1435 1.349 1_556 S
C1434 C1436 1.327 . S
C1434 H1459 0.950 . S
C1435 C1434 1.349 1_554 S
C1435 C1451 1.349 . S
C1436 C1434 1.327 . S
C1436 C1455 1.429 . S
C1436 H1460 0.950 . S
C1437 C1454 1.574 1_554 S
C1437 C1456 1.368 1_554 S
C1437 H1461 0.949 . S
H1438 C1442 0.949 . S
C1439 C1440 1.349 . S
C1439 C1441 1.327 . S
C1439 H1462 0.950 . S
C1440 C1439 1.349 . S
C1440 C1452 1.349 . S
C1441 C1439 1.327 . S
C1441 C1457 1.429 . S
C1441 H1463 0.944 1_556 S
C1442 H1438 0.949 . S
C1442 C1450 1.574 . S
C1442 C1458 1.368 . S
H1443 C1451 0.950 . S
H1444 C1449 0.950 . S
H1445 C1450 0.949 . S
H1446 C1452 0.950 . S
H1447 C1453 0.950 . S
H1448 C1454 0.949 1_554 S
C1449 H1444 0.950 . S
C1449 C1451 1.327 . S
C1449 C1455 1.429 1_554 S
C1450 C1442 1.574 . S
C1450 H1445 0.949 . S
C1450 C1456 1.368 . S
C1451 C1435 1.349 . S
C1451 H1443 0.950 . S
C1451 C1449 1.327 . S
C1452 C1440 1.349 . S
C1452 H1446 0.950 . S
C1452 C1453 1.327 . S
C1453 H1447 0.950 . S
C1453 C1452 1.327 . S
C1453 C1457 1.429 . S
C1454 C1437 1.574 1_556 S
C1454 H1448 0.949 1_556 S
C1454 C1458 1.368 . S
C1455 C1436 1.429 . S
C1455 C1449 1.429 1_556 S
C1455 C1456 1.523 . S
C1456 C1437 1.368 1_556 S
C1456 C1450 1.368 . S
C1456 C1455 1.523 . S
C1457 C1441 1.429 . S
C1457 C1453 1.429 . S
C1457 C1458 1.523 . S
C1458 C1442 1.368 . S
C1458 C1454 1.368 . S
C1458 C1457 1.523 . S
H1459 C1434 0.950 . S
H1460 C1436 0.950 . S
H1461 C1437 0.949 . S
H1462 C1439 0.950 . S
H1463 C1441 0.944 1_554 S
C1464 C1465 1.349 1_556 S
C1464 C1466 1.327 . S
C1464 H1489 0.950 . S
C1465 C1464 1.349 1_554 S
C1465 C1481 1.349 . S
C1466 C1464 1.327 . S
C1466 C1485 1.429 1_556 S
C1466 H1490 0.950 . S
C1467 C1484 1.574 . S
C1467 C1486 1.362 1_554 S
C1467 H1491 0.949 . S
H1468 C1472 0.949 . S
C1469 C1470 1.335 1_554 S
C1469 C1471 1.331 . S
C1469 H1492 0.961 . S
C1470 C1469 1.335 1_556 S
C1470 C1482 1.349 . S
C1471 C1469 1.331 . S
C1471 C1487 1.429 1_554 S
C1471 H1493 0.950 . S
C1472 H1468 0.949 . S
C1472 C1480 1.574 . S
C1472 C1488 1.368 . S
H1473 C1481 0.950 . S
H1474 C1479 0.950 . S
H1475 C1480 0.949 . S
H1476 C1482 0.950 . S
H1477 C1483 0.950 . S
H1478 C1484 0.949 . S
C1479 H1474 0.950 . S
C1479 C1481 1.327 . S
C1479 C1485 1.429 . S
C1480 C1472 1.574 . S
C1480 H1475 0.949 . S
C1480 C1486 1.377 . S
C1481 C1465 1.349 . S
C1481 H1473 0.950 . S
C1481 C1479 1.327 . S
C1482 C1470 1.349 . S
C1482 H1476 0.950 . S
C1482 C1483 1.327 . S
C1483 H1477 0.950 . S
C1483 C1482 1.327 . S
C1483 C1487 1.429 . S
C1484 C1467 1.574 . S
C1484 H1478 0.949 . S
C1484 C1488 1.368 1_554 S
C1485 C1466 1.429 1_554 S
C1485 C1479 1.429 . S
C1485 C1486 1.521 1_554 S
C1486 C1467 1.362 1_556 S
C1486 C1480 1.377 . S
C1486 C1485 1.521 1_556 S
C1487 C1471 1.429 1_556 S
C1487 C1483 1.429 . S
C1487 C1488 1.523 . S
C1488 C1472 1.368 . S
C1488 C1484 1.368 1_556 S
C1488 C1487 1.523 . S
H1489 C1464 0.950 . S
H1490 C1466 0.950 . S
H1491 C1467 0.949 . S
H1492 C1469 0.961 . S
H1493 C1471 0.950 . S
C1494 C1495 1.349 . S
C1494 C1496 1.327 . S
C1494 H1519 0.950 . S
C1495 C1494 1.349 . S
C1495 C1511 1.349 . S
C1496 C1494 1.327 . S
C1496 C1515 1.429 . S
C1496 H1520 0.950 . S
C1497 C1514 1.574 . S
C1497 C1516 1.368 . S
C1497 H1521 0.949 . S
H1498 C1502 0.949 . S
C1499 C1500 1.349 1_655 S
C1499 C1501 1.327 . S
C1499 H1522 0.950 . S
C1500 C1499 1.349 1_455 S
C1500 C1512 1.349 1_455 S
C1501 C1499 1.327 . S
C1501 C1517 1.429 . S
C1501 H1523 0.950 . S
C1502 H1498 0.949 . S
C1502 C1510 1.574 . S
C1502 C1518 1.368 . S
H1503 C1511 0.950 . S
H1504 C1509 0.950 . S
H1505 C1510 0.949 . S
H1506 C1512 0.950 1_455 S
H1507 C1513 0.950 . S
H1508 C1514 0.949 . S
C1509 H1504 0.950 . S
C1509 C1511 1.327 . S
C1509 C1515 1.429 . S
C1510 C1502 1.574 . S
C1510 H1505 0.949 . S
C1510 C1516 1.368 . S
C1511 C1495 1.349 . S
C1511 H1503 0.950 . S
C1511 C1509 1.327 . S
C1512 C1500 1.349 1_655 S
C1512 H1506 0.950 1_655 S
C1512 C1513 1.327 . S
C1513 H1507 0.950 . S
C1513 C1512 1.327 . S
C1513 C1517 1.429 . S
C1514 C1497 1.574 . S
C1514 H1508 0.949 . S
C1514 C1518 1.368 . S
C1515 C1496 1.429 . S
C1515 C1509 1.429 . S
C1515 C1516 1.523 . S
C1516 C1497 1.368 . S
C1516 C1510 1.368 . S
C1516 C1515 1.523 . S
C1517 C1501 1.429 . S
C1517 C1513 1.429 . S
C1517 C1518 1.523 . S
C1518 C1502 1.368 . S
C1518 C1514 1.368 . S
C1518 C1517 1.523 . S
H1519 C1494 0.950 . S
H1520 C1496 0.950 . S
H1521 C1497 0.949 . S
H1522 C1499 0.950 . S
H1523 C1501 0.950 . S
C1524 C1525 1.349 . S
C1524 C1526 1.327 . S
C1524 H1549 0.950 . S
C1525 C1524 1.349 . S
C1525 C1541 1.349 . S
C1526 C1524 1.327 . S
C1526 C1545 1.429 . S
C1526 H1550 0.950 . S
C1527 C1544 1.574 . S
C1527 C1546 1.368 . S
C1527 H1551 0.949 . S
H1528 C1532 0.949 . S
C1529 C1530 1.349 . S
C1529 C1531 1.327 . S
C1529 H1552 0.950 . S
C1530 C1529 1.349 . S
C1530 C1542 1.349 . S
C1531 C1529 1.327 . S
C1531 C1547 1.429 . S
C1531 H1553 0.950 . S
C1532 H1528 0.949 . S
C1532 C1540 1.574 . S
C1532 C1548 1.368 . S
H1533 C1541 0.950 . S
H1534 C1539 0.950 . S
H1535 C1540 0.949 . S
H1536 C1542 0.950 . S
H1537 C1543 0.950 . S
H1538 C1544 0.949 . S
C1539 H1534 0.950 . S
C1539 C1541 1.327 . S
C1539 C1545 1.429 . S
C1540 C1532 1.574 . S
C1540 H1535 0.949 . S
C1540 C1546 1.368 . S
C1541 C1525 1.349 . S
C1541 H1533 0.950 . S
C1541 C1539 1.327 . S
C1542 C1530 1.349 . S
C1542 H1536 0.950 . S
C1542 C1543 1.327 . S
C1543 H1537 0.950 . S
C1543 C1542 1.327 . S
C1543 C1547 1.429 . S
C1544 C1527 1.574 . S
C1544 H1538 0.949 . S
C1544 C1548 1.368 . S
C1545 C1526 1.429 . S
C1545 C1539 1.429 . S
C1545 C1546 1.523 . S
C1546 C1527 1.368 . S
C1546 C1540 1.368 . S
C1546 C1545 1.523 . S
C1547 C1531 1.429 . S
C1547 C1543 1.429 . S
C1547 C1548 1.523 . S
C1548 C1532 1.368 . S
C1548 C1544 1.368 . S
C1548 C1547 1.523 . S
H1549 C1524 0.950 . S
H1550 C1526 0.950 . S
H1551 C1527 0.949 . S
H1552 C1529 0.950 . S
H1553 C1531 0.950 . S
C1554 C1555 1.349 . S
C1554 C1556 1.327 . S
C1554 H1579 0.950 . S
C1555 C1554 1.349 . S
C1555 C1571 1.349 . S
C1556 C1554 1.327 . S
C1556 C1575 1.429 . S
C1556 H1580 0.950 . S
C1557 C1574 1.574 . S
C1557 C1576 1.366 1_655 S
C1557 H1581 0.949 . S
H1558 C1562 0.949 . S
C1559 C1560 1.349 . S
C1559 C1561 1.327 . S
C1559 H1582 0.950 . S
C1560 C1559 1.349 . S
C1560 C1572 1.349 . S
C1561 C1559 1.327 . S
C1561 C1577 1.429 . S
C1561 H1583 0.950 . S
C1562 H1558 0.949 . S
C1562 C1570 1.574 1_655 S
C1562 C1578 1.368 . S
H1563 C1571 0.950 . S
H1564 C1569 0.950 . S
H1565 C1570 0.949 . S
H1566 C1572 0.950 . S
H1567 C1573 0.950 . S
H1568 C1574 0.949 . S
C1569 H1564 0.950 . S
C1569 C1571 1.327 . S
C1569 C1575 1.429 . S
C1570 C1562 1.574 1_455 S
C1570 H1565 0.949 . S
C1570 C1576 1.368 . S
C1571 C1555 1.349 . S
C1571 H1563 0.950 . S
C1571 C1569 1.327 . S
C1572 C1560 1.349 . S
C1572 H1566 0.950 . S
C1572 C1573 1.327 . S
C1573 H1567 0.950 . S
C1573 C1572 1.327 . S
C1573 C1577 1.429 . S
C1574 C1557 1.574 . S
C1574 H1568 0.949 . S
C1574 C1578 1.368 . S
C1575 C1556 1.429 . S
C1575 C1569 1.429 . S
C1575 C1576 1.526 . S
C1576 C1557 1.366 1_455 S
C1576 C1570 1.368 . S
C1576 C1575 1.526 . S
C1577 C1561 1.429 . S
C1577 C1573 1.429 . S
C1577 C1578 1.523 . S
C1578 C1562 1.368 . S
C1578 C1574 1.368 . S
C1578 C1577 1.523 . S
H1579 C1554 0.950 . S
H1580 C1556 0.950 . S
H1581 C1557 0.949 . S
H1582 C1559 0.950 . S
H1583 C1561 0.950 . S
C1584 C1585 1.349 . S
C1584 C1586 1.327 . S
C1584 H1609 0.950 . S
C1585 C1584 1.349 . S
C1585 C1601 1.349 . S
C1586 C1584 1.327 . S
C1586 C1605 1.429 . S
C1586 H1610 0.950 . S
C1587 C1604 1.574 . S
C1587 C1606 1.368 . S
C1587 H1611 0.949 . S
H1588 C1592 0.949 . S
C1589 C1590 1.349 . S
C1589 C1591 1.327 . S
C1589 H1612 0.950 . S
C1590 C1589 1.349 . S
C1590 C1602 1.349 . S
C1591 C1589 1.327 . S
C1591 C1607 1.429 . S
C1591 H1613 0.950 . S
C1592 H1588 0.949 . S
C1592 C1600 1.574 . S
C1592 C1608 1.368 . S
H1593 C1601 0.950 . S
H1594 C1599 0.950 . S
H1595 C1600 0.949 . S
H1596 C1602 0.950 . S
H1597 C1603 0.950 . S
H1598 C1604 0.949 . S
C1599 H1594 0.950 . S
C1599 C1601 1.327 . S
C1599 C1605 1.429 . S
C1600 C1592 1.574 . S
C1600 H1595 0.949 . S
C1600 C1606 1.368 . S
C1601 C1585 1.349 . S
C1601 H1593 0.950 . S
C1601 C1599 1.327 . S
C1602 C1590 1.349 . S
C1602 H1596 0.950 . S
C1602 C1603 1.327 . S
C1603 H1597 0.950 . S
C1603 C1602 1.327 . S
C1603 C1607 1.429 . S
C1604 C1587 1.574 . S
C1604 H1598 0.949 . S
C1604 C1608 1.368 . S
C1605 C1586 1.429 . S
C1605 C1599 1.429 . S
C1605 C1606 1.523 . S
C1606 C1587 1.368 . S
C1606 C1600 1.368 . S
C1606 C1605 1.523 . S
C1607 C1591 1.429 . S
C1607 C1603 1.429 . S
C1607 C1608 1.523 . S
C1608 C1592 1.368 . S
C1608 C1604 1.368 . S
C1608 C1607 1.523 . S
H1609 C1584 0.950 . S
H1610 C1586 0.950 . S
H1611 C1587 0.949 . S
H1612 C1589 0.950 . S
H1613 C1591 0.950 . S
C1614 C1615 1.349 1_455 S
C1614 C1616 1.333 . S
C1614 H1639 0.950 . S
C1615 C1614 1.349 1_655 S
C1615 C1631 1.349 . S
C1616 C1614 1.333 . S
C1616 C1635 1.407 1_455 S
C1616 H1640 0.967 . S
C1617 C1634 1.574 . S
C1617 C1636 1.368 . S
C1617 H1641 0.949 . S
H1618 C1622 0.949 . S
C1619 C1620 1.349 . S
C1619 C1621 1.327 . S
C1619 H1642 0.950 . S
C1620 C1619 1.349 . S
C1620 C1632 1.349 . S
C1621 C1619 1.327 . S
C1621 C1637 1.429 . S
C1621 H1643 0.950 . S
C1622 H1618 0.949 . S
C1622 C1630 1.574 . S
C1622 C1638 1.368 . S
H1623 C1631 0.950 . S
H1624 C1629 0.950 . S
H1625 C1630 0.949 1_455 S
H1626 C1632 0.950 . S
H1627 C1633 0.950 . S
H1628 C1634 0.949 . S
C1629 H1624 0.950 . S
C1629 C1631 1.327 . S
C1629 C1635 1.429 . S
C1630 C1622 1.574 . S
C1630 H1625 0.949 1_655 S
C1630 C1636 1.368 . S
C1631 C1615 1.349 . S
C1631 H1623 0.950 . S
C1631 C1629 1.327 . S
C1632 C1620 1.349 . S
C1632 H1626 0.950 . S
C1632 C1633 1.327 . S
C1633 H1627 0.950 . S
C1633 C1632 1.327 . S
C1633 C1637 1.429 . S
C1634 C1617 1.574 . S
C1634 H1628 0.949 . S
C1634 C1638 1.368 . S
C1635 C1616 1.407 1_655 S
C1635 C1629 1.429 . S
C1635 C1636 1.523 . S
C1636 C1617 1.368 . S
C1636 C1630 1.368 . S
C1636 C1635 1.523 . S
C1637 C1621 1.429 . S
C1637 C1633 1.429 . S
C1637 C1638 1.523 . S
C1638 C1622 1.368 . S
C1638 C1634 1.368 . S
C1638 C1637 1.523 . S
H1639 C1614 0.950 . S
H1640 C1616 0.967 . S
H1641 C1617 0.949 . S
H1642 C1619 0.950 . S
H1643 C1621 0.950 . S
C1644 C1645 1.349 . S
C1644 C1646 1.327 . S
C1644 H1669 0.950 . S
C1645 C1644 1.349 . S
C1645 C1661 1.349 . S
C1646 C1644 1.327 . S
C1646 C1665 1.429 . S
C1646 H1670 0.950 . S
C1647 C1664 1.574 . S
C1647 C1666 1.368 . S
C1647 H1671 0.949 . S
H1648 C1652 0.949 . S
C1649 C1650 1.349 . S
C1649 C1651 1.327 . S
C1649 H1672 0.950 . S
C1650 C1649 1.349 . S
C1650 C1662 1.349 . S
C1651 C1649 1.327 . S
C1651 C1667 1.429 . S
C1651 H1673 0.950 . S
C1652 H1648 0.949 . S
C1652 C1660 1.574 . S
C1652 C1668 1.368 . S
H1653 C1661 0.950 . S
H1654 C1659 0.950 . S
H1655 C1660 0.949 . S
H1656 C1662 0.950 . S
H1657 C1663 0.950 . S
H1658 C1664 0.949 . S
C1659 H1654 0.950 . S
C1659 C1661 1.327 . S
C1659 C1665 1.429 . S
C1660 C1652 1.574 . S
C1660 H1655 0.949 . S
C1660 C1666 1.368 . S
C1661 C1645 1.349 . S
C1661 H1653 0.950 . S
C1661 C1659 1.327 . S
C1662 C1650 1.349 . S
C1662 H1656 0.950 . S
C1662 C1663 1.327 . S
C1663 H1657 0.950 . S
C1663 C1662 1.327 . S
C1663 C1667 1.429 . S
C1664 C1647 1.574 . S
C1664 H1658 0.949 . S
C1664 C1668 1.368 . S
C1665 C1646 1.429 . S
C1665 C1659 1.429 . S
C1665 C1666 1.523 . S
C1666 C1647 1.368 . S
C1666 C1660 1.368 . S
C1666 C1665 1.523 . S
C1667 C1651 1.429 . S
C1667 C1663 1.429 . S
C1667 C1668 1.523 . S
C1668 C1652 1.368 . S
C1668 C1664 1.368 . S
C1668 C1667 1.523 . S
H1669 C1644 0.950 . S
H1670 C1646 0.950 . S
H1671 C1647 0.949 . S
H1672 C1649 0.950 . S
H1673 C1651 0.950 . S
C1674 C1675 1.349 . S
C1674 C1676 1.327 . S
C1674 H1699 0.950 . S
C1675 C1674 1.349 . S
C1675 C1691 1.349 . S
C1676 C1674 1.327 . S
C1676 C1695 1.429 . S
C1676 H1700 0.950 . S
C1677 C1694 1.574 . S
C1677 C1696 1.368 . S
C1677 H1701 0.949 . S
H1678 C1682 0.949 . S
C1679 C1680 1.349 . S
C1679 C1681 1.327 . S
C1679 H1702 0.950 . S
C1680 C1679 1.349 . S
C1680 C1692 1.349 . S
C1681 C1679 1.327 . S
C1681 C1697 1.429 . S
C1681 H1703 0.950 . S
C1682 H1678 0.949 . S
C1682 C1690 1.574 . S
C1682 C1698 1.368 . S
H1683 C1691 0.950 . S
H1684 C1689 0.950 . S
H1685 C1690 0.949 . S
H1686 C1692 0.950 . S
H1687 C1693 0.950 . S
H1688 C1694 0.949 . S
C1689 H1684 0.950 . S
C1689 C1691 1.327 . S
C1689 C1695 1.429 . S
C1690 C1682 1.574 . S
C1690 H1685 0.949 . S
C1690 C1696 1.368 . S
C1691 C1675 1.349 . S
C1691 H1683 0.950 . S
C1691 C1689 1.327 . S
C1692 C1680 1.349 . S
C1692 H1686 0.950 . S
C1692 C1693 1.327 . S
C1693 H1687 0.950 . S
C1693 C1692 1.327 . S
C1693 C1697 1.429 . S
C1694 C1677 1.574 . S
C1694 H1688 0.949 . S
C1694 C1698 1.368 . S
C1695 C1676 1.429 . S
C1695 C1689 1.429 . S
C1695 C1696 1.523 . S
C1696 C1677 1.368 . S
C1696 C1690 1.368 . S
C1696 C1695 1.523 . S
C1697 C1681 1.429 . S
C1697 C1693 1.429 . S
C1697 C1698 1.523 . S
C1698 C1682 1.368 . S
C1698 C1694 1.368 . S
C1698 C1697 1.523 . S
H1699 C1674 0.950 . S
H1700 C1676 0.950 . S
H1701 C1677 0.949 . S
H1702 C1679 0.950 . S
H1703 C1681 0.950 . S
C1704 C1705 1.349 . S
C1704 C1706 1.327 . S
C1704 H1729 0.950 . S
C1705 C1704 1.349 . S
C1705 C1721 1.349 1_565 S
C1706 C1704 1.327 . S
C1706 C1725 1.429 . S
C1706 H1730 0.950 . S
C1707 C1724 1.574 . S
C1707 C1726 1.368 . S
C1707 H1731 0.949 1_565 S
H1708 C1712 0.949 . S
C1709 C1710 1.349 . S
C1709 C1711 1.327 . S
C1709 H1732 0.950 . S
C1710 C1709 1.349 . S
C1710 C1722 1.349 . S
C1711 C1709 1.327 . S
C1711 C1727 1.429 . S
C1711 H1733 0.950 . S
C1712 H1708 0.949 . S
C1712 C1720 1.574 . S
C1712 C1728 1.368 . S
H1713 C1721 0.950 . S
H1714 C1719 0.950 1_545 S
H1715 C1720 0.949 . S
H1716 C1722 0.950 . S
H1717 C1723 0.950 . S
H1718 C1724 0.949 . S
C1719 H1714 0.950 1_565 S
C1719 C1721 1.327 1_565 S
C1719 C1725 1.429 . S
C1720 C1712 1.574 . S
C1720 H1715 0.949 . S
C1720 C1726 1.368 . S
C1721 C1705 1.349 1_545 S
C1721 H1713 0.950 . S
C1721 C1719 1.327 1_545 S
C1722 C1710 1.349 . S
C1722 H1716 0.950 . S
C1722 C1723 1.327 . S
C1723 H1717 0.950 . S
C1723 C1722 1.327 . S
C1723 C1727 1.429 . S
C1724 C1707 1.574 . S
C1724 H1718 0.949 . S
C1724 C1728 1.368 . S
C1725 C1706 1.429 . S
C1725 C1719 1.429 . S
C1725 C1726 1.523 . S
C1726 C1707 1.368 . S
C1726 C1720 1.368 . S
C1726 C1725 1.523 . S
C1727 C1711 1.429 . S
C1727 C1723 1.429 . S
C1727 C1728 1.523 . S
C1728 C1712 1.368 . S
C1728 C1724 1.368 . S
C1728 C1727 1.523 . S
H1729 C1704 0.950 . S
H1730 C1706 0.950 . S
H1731 C1707 0.949 1_545 S
H1732 C1709 0.950 . S
H1733 C1711 0.950 . S
C1734 C1735 1.349 . S
C1734 C1736 1.327 . S
C1734 H1759 0.950 . S
C1735 C1734 1.349 . S
C1735 C1751 1.349 . S
C1736 C1734 1.327 . S
C1736 C1755 1.429 . S
C1736 H1760 0.950 . S
C1737 C1754 1.574 . S
C1737 C1756 1.368 . S
C1737 H1761 0.949 . S
H1738 C1742 0.949 . S
C1739 C1740 1.349 . S
C1739 C1741 1.327 . S
C1739 H1762 0.950 . S
C1740 C1739 1.349 . S
C1740 C1752 1.349 . S
C1741 C1739 1.327 . S
C1741 C1757 1.429 . S
C1741 H1763 0.950 . S
C1742 H1738 0.949 . S
C1742 C1750 1.574 . S
C1742 C1758 1.368 . S
H1743 C1751 0.950 . S
H1744 C1749 0.950 . S
H1745 C1750 0.949 . S
H1746 C1752 0.950 . S
H1747 C1753 0.950 . S
H1748 C1754 0.949 . S
C1749 H1744 0.950 . S
C1749 C1751 1.327 . S
C1749 C1755 1.429 . S
C1750 C1742 1.574 . S
C1750 H1745 0.949 . S
C1750 C1756 1.368 . S
C1751 C1735 1.349 . S
C1751 H1743 0.950 . S
C1751 C1749 1.327 . S
C1752 C1740 1.349 . S
C1752 H1746 0.950 . S
C1752 C1753 1.327 . S
C1753 H1747 0.950 . S
C1753 C1752 1.327 . S
C1753 C1757 1.429 . S
C1754 C1737 1.574 . S
C1754 H1748 0.949 . S
C1754 C1758 1.368 . S
C1755 C1736 1.429 . S
C1755 C1749 1.429 . S
C1755 C1756 1.523 . S
C1756 C1737 1.368 . S
C1756 C1750 1.368 . S
C1756 C1755 1.523 . S
C1757 C1741 1.429 . S
C1757 C1753 1.429 . S
C1757 C1758 1.523 . S
C1758 C1742 1.368 . S
C1758 C1754 1.368 . S
C1758 C1757 1.523 . S
H1759 C1734 0.950 . S
H1760 C1736 0.950 . S
H1761 C1737 0.949 . S
H1762 C1739 0.950 . S
H1763 C1741 0.950 . S
C1764 C1765 1.349 . S
C1764 C1766 1.327 . S
C1764 H1789 0.950 . S
C1765 C1764 1.349 . S
C1765 C1781 1.349 . S
C1766 C1764 1.327 . S
C1766 C1785 1.429 . S
C1766 H1790 0.950 . S
C1767 C1784 1.574 . S
C1767 C1786 1.368 . S
C1767 H1791 0.949 . S
H1768 C1772 0.949 . S
C1769 C1770 1.349 . S
C1769 C1771 1.327 . S
C1769 H1792 0.950 . S
C1770 C1769 1.349 . S
C1770 C1782 1.349 . S
C1771 C1769 1.327 . S
C1771 C1787 1.429 . S
C1771 H1793 0.950 . S
C1772 H1768 0.949 . S
C1772 C1780 1.574 . S
C1772 C1788 1.368 . S
H1773 C1781 0.950 . S
H1774 C1779 0.950 . S
H1775 C1780 0.949 . S
H1776 C1782 0.950 . S
H1777 C1783 0.950 . S
H1778 C1784 0.949 . S
C1779 H1774 0.950 . S
C1779 C1781 1.327 . S
C1779 C1785 1.429 . S
C1780 C1772 1.574 . S
C1780 H1775 0.949 . S
C1780 C1786 1.368 . S
C1781 C1765 1.349 . S
C1781 H1773 0.950 . S
C1781 C1779 1.327 . S
C1782 C1770 1.349 . S
C1782 H1776 0.950 . S
C1782 C1783 1.327 . S
C1783 H1777 0.950 . S
C1783 C1782 1.327 . S
C1783 C1787 1.429 . S
C1784 C1767 1.574 . S
C1784 H1778 0.949 . S
C1784 C1788 1.368 . S
C1785 C1766 1.429 . S
C1785 C1779 1.429 . S
C1785 C1786 1.523 . S
C1786 C1767 1.368 . S
C1786 C1780 1.368 . S
C1786 C1785 1.523 . S
C1787 C1771 1.429 . S
C1787 C1783 1.429 . S
C1787 C1788 1.523 . S
C1788 C1772 1.368 . S
C1788 C1784 1.368 . S
C1788 C1787 1.523 . S
H1789 C1764 0.950 . S
H1790 C1766 0.950 . S
H1791 C1767 0.949 . S
H1792 C1769 0.950 . S
H1793 C1771 0.950 . S
C1794 C1795 1.349 . S
C1794 C1796 1.327 . S
C1794 H1819 0.950 . S
C1795 C1794 1.349 . S
C1795 C1811 1.349 . S
C1796 C1794 1.327 . S
C1796 C1815 1.429 . S
C1796 H1820 0.950 . S
C1797 C1814 1.574 . S
C1797 C1816 1.368 . S
C1797 H1821 0.949 . S
H1798 C1802 0.949 . S
C1799 C1800 1.349 . S
C1799 C1801 1.327 . S
C1799 H1822 0.950 . S
C1800 C1799 1.349 . S
C1800 C1812 1.349 . S
C1801 C1799 1.327 . S
C1801 C1817 1.429 . S
C1801 H1823 0.950 . S
C1802 H1798 0.949 . S
C1802 C1810 1.574 . S
C1802 C1818 1.368 . S
H1803 C1811 0.950 . S
H1804 C1809 0.950 . S
H1805 C1810 0.949 . S
H1806 C1812 0.950 . S
H1807 C1813 0.950 . S
H1808 C1814 0.949 . S
C1809 H1804 0.950 . S
C1809 C1811 1.327 . S
C1809 C1815 1.429 . S
C1810 C1802 1.574 . S
C1810 H1805 0.949 . S
C1810 C1816 1.368 . S
C1811 C1795 1.349 . S
C1811 H1803 0.950 . S
C1811 C1809 1.327 . S
C1812 C1800 1.349 . S
C1812 H1806 0.950 . S
C1812 C1813 1.327 . S
C1813 H1807 0.950 . S
C1813 C1812 1.327 . S
C1813 C1817 1.429 . S
C1814 C1797 1.574 . S
C1814 H1808 0.949 . S
C1814 C1818 1.368 . S
C1815 C1796 1.429 . S
C1815 C1809 1.429 . S
C1815 C1816 1.523 . S
C1816 C1797 1.368 . S
C1816 C1810 1.368 . S
C1816 C1815 1.523 . S
C1817 C1801 1.429 . S
C1817 C1813 1.429 . S
C1817 C1818 1.523 . S
C1818 C1802 1.368 . S
C1818 C1814 1.368 . S
C1818 C1817 1.523 . S
H1819 C1794 0.950 . S
H1820 C1796 0.950 . S
H1821 C1797 0.949 . S
H1822 C1799 0.950 . S
H1823 C1801 0.950 . S
C1824 C1825 1.349 . S
C1824 C1826 1.327 . S
C1824 H1849 0.950 . S
C1825 C1824 1.349 . S
C1825 C1841 1.349 . S
C1826 C1824 1.327 . S
C1826 C1845 1.429 . S
C1826 H1850 0.950 . S
C1827 C1844 1.574 . S
C1827 C1846 1.368 . S
C1827 H1851 0.949 . S
H1828 C1832 0.949 . S
C1829 C1830 1.349 . S
C1829 C1831 1.327 . S
C1829 H1852 0.950 . S
C1830 C1829 1.349 . S
C1830 C1842 1.349 . S
C1831 C1829 1.327 . S
C1831 C1847 1.429 . S
C1831 H1853 0.950 . S
C1832 H1828 0.949 . S
C1832 C1840 1.574 . S
C1832 C1848 1.368 . S
H1833 C1841 0.950 . S
H1834 C1839 0.950 . S
H1835 C1840 0.949 . S
H1836 C1842 0.950 . S
H1837 C1843 0.950 . S
H1838 C1844 0.949 . S
C1839 H1834 0.950 . S
C1839 C1841 1.327 . S
C1839 C1845 1.429 . S
C1840 C1832 1.574 . S
C1840 H1835 0.949 . S
C1840 C1846 1.368 . S
C1841 C1825 1.349 . S
C1841 H1833 0.950 . S
C1841 C1839 1.327 . S
C1842 C1830 1.349 . S
C1842 H1836 0.950 . S
C1842 C1843 1.327 . S
C1843 H1837 0.950 . S
C1843 C1842 1.327 . S
C1843 C1847 1.429 . S
C1844 C1827 1.574 . S
C1844 H1838 0.949 . S
C1844 C1848 1.368 . S
C1845 C1826 1.429 . S
C1845 C1839 1.429 . S
C1845 C1846 1.523 . S
C1846 C1827 1.368 . S
C1846 C1840 1.368 . S
C1846 C1845 1.523 . S
C1847 C1831 1.429 . S
C1847 C1843 1.429 . S
C1847 C1848 1.523 . S
C1848 C1832 1.368 . S
C1848 C1844 1.368 . S
C1848 C1847 1.523 . S
H1849 C1824 0.950 . S
H1850 C1826 0.950 . S
H1851 C1827 0.949 . S
H1852 C1829 0.950 . S
H1853 C1831 0.950 . S
C1854 C1855 1.349 . S
C1854 C1856 1.327 . S
C1854 H1879 0.950 . S
C1855 C1854 1.349 . S
C1855 C1871 1.349 . S
C1856 C1854 1.327 . S
C1856 C1875 1.429 . S
C1856 H1880 0.950 . S
C1857 C1874 1.574 . S
C1857 C1876 1.368 . S
C1857 H1881 0.949 . S
H1858 C1862 0.949 . S
C1859 C1860 1.349 . S
C1859 C1861 1.327 . S
C1859 H1882 0.950 . S
C1860 C1859 1.349 . S
C1860 C1872 1.349 . S
C1861 C1859 1.327 . S
C1861 C1877 1.429 . S
C1861 H1883 0.950 . S
C1862 H1858 0.949 . S
C1862 C1870 1.574 . S
C1862 C1878 1.368 . S
H1863 C1871 0.950 . S
H1864 C1869 0.950 . S
H1865 C1870 0.949 . S
H1866 C1872 0.950 . S
H1867 C1873 0.950 . S
H1868 C1874 0.949 . S
C1869 H1864 0.950 . S
C1869 C1871 1.327 . S
C1869 C1875 1.429 . S
C1870 C1862 1.574 . S
C1870 H1865 0.949 . S
C1870 C1876 1.368 . S
C1871 C1855 1.349 . S
C1871 H1863 0.950 . S
C1871 C1869 1.327 . S
C1872 C1860 1.349 . S
C1872 H1866 0.950 . S
C1872 C1873 1.327 . S
C1873 H1867 0.950 . S
C1873 C1872 1.327 . S
C1873 C1877 1.429 . S
C1874 C1857 1.574 . S
C1874 H1868 0.949 . S
C1874 C1878 1.368 . S
C1875 C1856 1.429 . S
C1875 C1869 1.429 . S
C1875 C1876 1.523 . S
C1876 C1857 1.368 . S
C1876 C1870 1.368 . S
C1876 C1875 1.523 . S
C1877 C1861 1.429 . S
C1877 C1873 1.429 . S
C1877 C1878 1.523 . S
C1878 C1862 1.368 . S
C1878 C1874 1.368 . S
C1878 C1877 1.523 . S
H1879 C1854 0.950 . S
H1880 C1856 0.950 . S
H1881 C1857 0.949 . S
H1882 C1859 0.950 . S
H1883 C1861 0.950 . S
C1884 C1885 1.349 . S
C1884 C1886 1.327 . S
C1884 H1909 0.950 . S
C1885 C1884 1.349 . S
C1885 C1901 1.349 . S
C1886 C1884 1.327 . S
C1886 C1905 1.429 . S
C1886 H1910 0.950 . S
C1887 C1904 1.574 . S
C1887 C1906 1.368 . S
C1887 H1911 0.949 . S
H1888 C1892 0.949 . S
C1889 C1890 1.349 . S
C1889 C1891 1.327 . S
C1889 H1912 0.950 . S
C1890 C1889 1.349 . S
C1890 C1902 1.349 . S
C1891 C1889 1.327 . S
C1891 C1907 1.429 . S
C1891 H1913 0.950 . S
C1892 H1888 0.949 . S
C1892 C1900 1.574 . S
C1892 C1908 1.368 . S
H1893 C1901 0.950 . S
H1894 C1899 0.950 . S
H1895 C1900 0.949 . S
H1896 C1902 0.950 . S
H1897 C1903 0.950 . S
H1898 C1904 0.949 . S
C1899 H1894 0.950 . S
C1899 C1901 1.327 . S
C1899 C1905 1.429 . S
C1900 C1892 1.574 . S
C1900 H1895 0.949 . S
C1900 C1906 1.368 . S
C1901 C1885 1.349 . S
C1901 H1893 0.950 . S
C1901 C1899 1.327 . S
C1902 C1890 1.349 . S
C1902 H1896 0.950 . S
C1902 C1903 1.327 . S
C1903 H1897 0.950 . S
C1903 C1902 1.327 . S
C1903 C1907 1.429 . S
C1904 C1887 1.574 . S
C1904 H1898 0.949 . S
C1904 C1908 1.368 . S
C1905 C1886 1.429 . S
C1905 C1899 1.429 . S
C1905 C1906 1.523 . S
C1906 C1887 1.368 . S
C1906 C1900 1.368 . S
C1906 C1905 1.523 . S
C1907 C1891 1.429 . S
C1907 C1903 1.429 . S
C1907 C1908 1.523 . S
C1908 C1892 1.368 . S
C1908 C1904 1.368 . S
C1908 C1907 1.523 . S
H1909 C1884 0.950 . S
H1910 C1886 0.950 . S
H1911 C1887 0.949 . S
H1912 C1889 0.950 . S
H1913 C1891 0.950 . S
C1914 C1915 1.349 . S
C1914 C1916 1.327 . S
C1914 H1939 0.950 . S
C1915 C1914 1.349 . S
C1915 C1931 1.349 . S
C1916 C1914 1.327 . S
C1916 C1935 1.429 . S
C1916 H1940 0.950 . S
C1917 C1934 1.574 . S
C1917 C1936 1.368 . S
C1917 H1941 0.949 . S
H1918 C1922 0.949 . S
C1919 C1920 1.349 . S
C1919 C1921 1.327 . S
C1919 H1942 0.950 . S
C1920 C1919 1.349 . S
C1920 C1932 1.349 . S
C1921 C1919 1.327 . S
C1921 C1937 1.429 . S
C1921 H1943 0.950 . S
C1922 H1918 0.949 . S
C1922 C1930 1.574 . S
C1922 C1938 1.368 . S
H1923 C1931 0.950 . S
H1924 C1929 0.950 . S
H1925 C1930 0.949 . S
H1926 C1932 0.950 . S
H1927 C1933 0.950 . S
H1928 C1934 0.949 . S
C1929 H1924 0.950 . S
C1929 C1931 1.327 . S
C1929 C1935 1.429 . S
C1930 C1922 1.574 . S
C1930 H1925 0.949 . S
C1930 C1936 1.368 . S
C1931 C1915 1.349 . S
C1931 H1923 0.950 . S
C1931 C1929 1.327 . S
C1932 C1920 1.349 . S
C1932 H1926 0.950 . S
C1932 C1933 1.327 . S
C1933 H1927 0.950 . S
C1933 C1932 1.327 . S
C1933 C1937 1.429 . S
C1934 C1917 1.574 . S
C1934 H1928 0.949 . S
C1934 C1938 1.368 . S
C1935 C1916 1.429 . S
C1935 C1929 1.429 . S
C1935 C1936 1.523 . S
C1936 C1917 1.368 . S
C1936 C1930 1.368 . S
C1936 C1935 1.523 . S
C1937 C1921 1.429 . S
C1937 C1933 1.429 . S
C1937 C1938 1.523 . S
C1938 C1922 1.368 . S
C1938 C1934 1.368 . S
C1938 C1937 1.523 . S
H1939 C1914 0.950 . S
H1940 C1916 0.950 . S
H1941 C1917 0.949 . S
H1942 C1919 0.950 . S
H1943 C1921 0.950 . S
C1944 C1945 1.349 . S
C1944 C1946 1.327 . S
C1944 H1969 0.950 . S
C1945 C1944 1.349 . S
C1945 C1961 1.349 . S
C1946 C1944 1.327 . S
C1946 C1965 1.429 . S
C1946 H1970 0.950 . S
C1947 C1964 1.574 . S
C1947 C1966 1.368 . S
C1947 H1971 0.949 . S
H1948 C1952 0.949 . S
C1949 C1950 1.349 . S
C1949 C1951 1.327 . S
C1949 H1972 0.950 . S
C1950 C1949 1.349 . S
C1950 C1962 1.349 . S
C1951 C1949 1.327 . S
C1951 C1967 1.429 . S
C1951 H1973 0.950 . S
C1952 H1948 0.949 . S
C1952 C1960 1.574 . S
C1952 C1968 1.368 . S
H1953 C1961 0.950 . S
H1954 C1959 0.950 . S
H1955 C1960 0.949 . S
H1956 C1962 0.950 . S
H1957 C1963 0.950 . S
H1958 C1964 0.949 . S
C1959 H1954 0.950 . S
C1959 C1961 1.327 . S
C1959 C1965 1.429 . S
C1960 C1952 1.574 . S
C1960 H1955 0.949 . S
C1960 C1966 1.368 . S
C1961 C1945 1.349 . S
C1961 H1953 0.950 . S
C1961 C1959 1.327 . S
C1962 C1950 1.349 . S
C1962 H1956 0.950 . S
C1962 C1963 1.327 . S
C1963 H1957 0.950 . S
C1963 C1962 1.327 . S
C1963 C1967 1.429 . S
C1964 C1947 1.574 . S
C1964 H1958 0.949 . S
C1964 C1968 1.368 . S
C1965 C1946 1.429 . S
C1965 C1959 1.429 . S
C1965 C1966 1.523 . S
C1966 C1947 1.368 . S
C1966 C1960 1.368 . S
C1966 C1965 1.523 . S
C1967 C1951 1.429 . S
C1967 C1963 1.429 . S
C1967 C1968 1.523 . S
C1968 C1952 1.368 . S
C1968 C1964 1.368 . S
C1968 C1967 1.523 . S
H1969 C1944 0.950 . S
H1970 C1946 0.950 . S
H1971 C1947 0.949 . S
H1972 C1949 0.950 . S
H1973 C1951 0.950 . S
C1974 C1975 1.349 . S
C1974 C1976 1.327 . S
C1974 H1999 0.950 . S
C1975 C1974 1.349 . S
C1975 C1991 1.349 . S
C1976 C1974 1.327 . S
C1976 C1995 1.429 . S
C1976 H2000 0.950 . S
C1977 C1994 1.574 . S
C1977 C1996 1.368 . S
C1977 H2001 0.949 . S
H1978 C1982 0.949 . S
C1979 C1980 1.349 . S
C1979 C1981 1.327 . S
C1979 H2002 0.950 . S
C1980 C1979 1.349 . S
C1980 C1992 1.349 . S
C1981 C1979 1.327 . S
C1981 C1997 1.429 . S
C1981 H2003 0.950 . S
C1982 H1978 0.949 . S
C1982 C1990 1.574 . S
C1982 C1998 1.368 . S
H1983 C1991 0.950 . S
H1984 C1989 0.950 . S
H1985 C1990 0.949 . S
H1986 C1992 0.950 . S
H1987 C1993 0.950 . S
H1988 C1994 0.949 . S
C1989 H1984 0.950 . S
C1989 C1991 1.327 . S
C1989 C1995 1.429 . S
C1990 C1982 1.574 . S
C1990 H1985 0.949 . S
C1990 C1996 1.368 . S
C1991 C1975 1.349 . S
C1991 H1983 0.950 . S
C1991 C1989 1.327 . S
C1992 C1980 1.349 . S
C1992 H1986 0.950 . S
C1992 C1993 1.327 . S
C1993 H1987 0.950 . S
C1993 C1992 1.327 . S
C1993 C1997 1.429 . S
C1994 C1977 1.574 . S
C1994 H1988 0.949 . S
C1994 C1998 1.368 . S
C1995 C1976 1.429 . S
C1995 C1989 1.429 . S
C1995 C1996 1.523 . S
C1996 C1977 1.368 . S
C1996 C1990 1.368 . S
C1996 C1995 1.523 . S
C1997 C1981 1.429 . S
C1997 C1993 1.429 . S
C1997 C1998 1.523 . S
C1998 C1982 1.368 . S
C1998 C1994 1.368 . S
C1998 C1997 1.523 . S
H1999 C1974 0.950 . S
H2000 C1976 0.950 . S
H2001 C1977 0.949 . S
H2002 C1979 0.950 . S
H2003 C1981 0.950 . S
C2004 C2005 1.349 . S
C2004 C2006 1.327 . S
C2004 H2029 0.950 . S
C2005 C2004 1.349 . S
C2005 C2021 1.349 . S
C2006 C2004 1.327 . S
C2006 C2025 1.429 . S
C2006 H2030 0.950 . S
C2007 C2024 1.574 . S
C2007 C2026 1.368 . S
C2007 H2031 0.949 . S
H2008 C2012 0.949 . S
C2009 C2010 1.349 . S
C2009 C2011 1.327 . S
C2009 H2032 0.950 . S
C2010 C2009 1.349 . S
C2010 C2022 1.349 . S
C2011 C2009 1.327 . S
C2011 C2027 1.429 . S
C2011 H2033 0.950 . S
C2012 H2008 0.949 . S
C2012 C2020 1.574 . S
C2012 C2028 1.368 . S
H2013 C2021 0.950 . S
H2014 C2019 0.950 . S
H2015 C2020 0.949 . S
H2016 C2022 0.950 . S
H2017 C2023 0.950 . S
H2018 C2024 0.949 . S
C2019 H2014 0.950 . S
C2019 C2021 1.327 . S
C2019 C2025 1.429 . S
C2020 C2012 1.574 . S
C2020 H2015 0.949 . S
C2020 C2026 1.368 . S
C2021 C2005 1.349 . S
C2021 H2013 0.950 . S
C2021 C2019 1.327 . S
C2022 C2010 1.349 . S
C2022 H2016 0.950 . S
C2022 C2023 1.327 . S
C2023 H2017 0.950 . S
C2023 C2022 1.327 . S
C2023 C2027 1.429 . S
C2024 C2007 1.574 . S
C2024 H2018 0.949 . S
C2024 C2028 1.368 . S
C2025 C2006 1.429 . S
C2025 C2019 1.429 . S
C2025 C2026 1.523 . S
C2026 C2007 1.368 . S
C2026 C2020 1.368 . S
C2026 C2025 1.523 . S
C2027 C2011 1.429 . S
C2027 C2023 1.429 . S
C2027 C2028 1.523 . S
C2028 C2012 1.368 . S
C2028 C2024 1.368 . S
C2028 C2027 1.523 . S
H2029 C2004 0.950 . S
H2030 C2006 0.950 . S
H2031 C2007 0.949 . S
H2032 C2009 0.950 . S
H2033 C2011 0.950 . S
C2034 C2035 1.351 . S
C2034 C2036 1.327 . S
C2034 H2059 0.947 1_565 S
C2035 C2034 1.351 . S
C2035 C2051 1.349 . S
C2036 C2034 1.327 . S
C2036 C2055 1.429 . S
C2036 H2060 0.950 1_565 S
C2037 C2054 1.574 . S
C2037 C2056 1.368 . S
C2037 H2061 0.949 . S
H2038 C2042 0.949 1_545 S
C2039 C2040 1.349 . S
C2039 C2041 1.327 . S
C2039 H2062 0.950 . S
C2040 C2039 1.349 . S
C2040 C2052 1.349 . S
C2041 C2039 1.327 . S
C2041 C2057 1.429 . S
C2041 H2063 0.950 . S
C2042 H2038 0.949 1_565 S
C2042 C2050 1.574 . S
C2042 C2058 1.368 . S
H2043 C2051 0.950 . S
H2044 C2049 0.950 . S
H2045 C2050 0.949 1_545 S
H2046 C2052 0.950 . S
H2047 C2053 0.916 1_545 S
H2048 C2054 0.949 . S
C2049 H2044 0.950 . S
C2049 C2051 1.327 . S
C2049 C2055 1.429 . S
C2050 C2042 1.574 . S
C2050 H2045 0.949 1_565 S
C2050 C2056 1.368 . S
C2051 C2035 1.349 . S
C2051 H2043 0.950 . S
C2051 C2049 1.327 . S
C2052 C2040 1.349 . S
C2052 H2046 0.950 . S
C2052 C2053 1.327 . S
C2053 H2047 0.916 1_565 S
C2053 C2052 1.327 . S
C2053 C2057 1.429 . S
C2054 C2037 1.574 . S
C2054 H2048 0.949 . S
C2054 C2058 1.368 . S
C2055 C2036 1.429 . S
C2055 C2049 1.429 . S
C2055 C2056 1.523 . S
C2056 C2037 1.368 . S
C2056 C2050 1.368 . S
C2056 C2055 1.523 . S
C2057 C2041 1.429 . S
C2057 C2053 1.429 . S
C2057 C2058 1.523 . S
C2058 C2042 1.368 . S
C2058 C2054 1.368 . S
C2058 C2057 1.523 . S
H2059 C2034 0.947 1_545 S
H2060 C2036 0.950 1_545 S
H2061 C2037 0.949 . S
H2062 C2039 0.950 . S
H2063 C2041 0.950 . S
C2064 C2065 1.349 . S
C2064 C2066 1.327 . S
C2064 H2089 0.950 . S
C2065 C2064 1.349 . S
C2065 C2081 1.349 . S
C2066 C2064 1.327 . S
C2066 C2085 1.429 . S
C2066 H2090 0.950 . S
C2067 C2084 1.574 . S
C2067 C2086 1.368 . S
C2067 H2091 0.949 . S
H2068 C2072 0.949 . S
C2069 C2070 1.349 . S
C2069 C2071 1.327 . S
C2069 H2092 0.950 . S
C2070 C2069 1.349 . S
C2070 C2082 1.349 . S
C2071 C2069 1.327 . S
C2071 C2087 1.429 . S
C2071 H2093 0.950 . S
C2072 H2068 0.949 . S
C2072 C2080 1.574 . S
C2072 C2088 1.368 . S
H2073 C2081 0.950 . S
H2074 C2079 0.950 . S
H2075 C2080 0.949 . S
H2076 C2082 0.950 . S
H2077 C2083 0.950 . S
H2078 C2084 0.949 . S
C2079 H2074 0.950 . S
C2079 C2081 1.327 . S
C2079 C2085 1.429 . S
C2080 C2072 1.574 . S
C2080 H2075 0.949 . S
C2080 C2086 1.368 . S
C2081 C2065 1.349 . S
C2081 H2073 0.950 . S
C2081 C2079 1.327 . S
C2082 C2070 1.349 . S
C2082 H2076 0.950 . S
C2082 C2083 1.327 . S
C2083 H2077 0.950 . S
C2083 C2082 1.327 . S
C2083 C2087 1.429 . S
C2084 C2067 1.574 . S
C2084 H2078 0.949 . S
C2084 C2088 1.368 . S
C2085 C2066 1.429 . S
C2085 C2079 1.429 . S
C2085 C2086 1.523 . S
C2086 C2067 1.368 . S
C2086 C2080 1.368 . S
C2086 C2085 1.523 . S
C2087 C2071 1.429 . S
C2087 C2083 1.429 . S
C2087 C2088 1.523 . S
C2088 C2072 1.368 . S
C2088 C2084 1.368 . S
C2088 C2087 1.523 . S
H2089 C2064 0.950 . S
H2090 C2066 0.950 . S
H2091 C2067 0.949 . S
H2092 C2069 0.950 . S
H2093 C2071 0.950 . S
C2094 C2095 1.349 . S
C2094 C2096 1.327 . S
C2094 H2119 0.950 1_545 S
C2095 C2094 1.349 . S
C2095 C2111 1.349 . S
C2096 C2094 1.327 . S
C2096 C2115 1.429 . S
C2096 H2120 0.950 1_545 S
C2097 C2114 1.574 . S
C2097 C2116 1.368 . S
C2097 H2121 0.949 . S
H2098 C2102 0.949 . S
C2099 C2100 1.349 . S
C2099 C2101 1.327 . S
C2099 H2122 0.950 . S
C2100 C2099 1.349 . S
C2100 C2112 1.349 . S
C2101 C2099 1.327 . S
C2101 C2117 1.429 . S
C2101 H2123 0.950 . S
C2102 H2098 0.949 . S
C2102 C2110 1.574 . S
C2102 C2118 1.368 . S
H2103 C2111 0.950 . S
H2104 C2109 0.950 . S
H2105 C2110 0.949 . S
H2106 C2112 0.950 . S
H2107 C2113 0.950 . S
H2108 C2114 0.949 . S
C2109 H2104 0.950 . S
C2109 C2111 1.327 . S
C2109 C2115 1.429 . S
C2110 C2102 1.574 . S
C2110 H2105 0.949 . S
C2110 C2116 1.368 . S
C2111 C2095 1.349 . S
C2111 H2103 0.950 . S
C2111 C2109 1.327 . S
C2112 C2100 1.349 . S
C2112 H2106 0.950 . S
C2112 C2113 1.327 . S
C2113 H2107 0.950 . S
C2113 C2112 1.327 . S
C2113 C2117 1.429 . S
C2114 C2097 1.574 . S
C2114 H2108 0.949 . S
C2114 C2118 1.368 . S
C2115 C2096 1.429 . S
C2115 C2109 1.429 . S
C2115 C2116 1.523 . S
C2116 C2097 1.368 . S
C2116 C2110 1.368 . S
C2116 C2115 1.523 . S
C2117 C2101 1.429 . S
C2117 C2113 1.429 . S
C2117 C2118 1.523 . S
C2118 C2102 1.368 . S
C2118 C2114 1.368 . S
C2118 C2117 1.523 . S
H2119 C2094 0.950 1_565 S
H2120 C2096 0.950 1_565 S
H2121 C2097 0.949 . S
H2122 C2099 0.950 . S
H2123 C2101 0.950 . S
C2124 C2125 1.349 . S
C2124 C2126 1.327 . S
C2124 H2149 0.950 . S
C2125 C2124 1.349 . S
C2125 C2141 1.349 . S
C2126 C2124 1.327 . S
C2126 C2145 1.429 . S
C2126 H2150 0.950 . S
C2127 C2144 1.574 . S
C2127 C2146 1.368 . S
C2127 H2151 0.949 . S
H2128 C2132 0.949 . S
C2129 C2130 1.349 . S
C2129 C2131 1.327 . S
C2129 H2152 0.950 . S
C2130 C2129 1.349 . S
C2130 C2142 1.349 . S
C2131 C2129 1.327 . S
C2131 C2147 1.429 . S
C2131 H2153 0.950 . S
C2132 H2128 0.949 . S
C2132 C2140 1.574 . S
C2132 C2148 1.368 . S
H2133 C2141 0.950 . S
H2134 C2139 0.950 . S
H2135 C2140 0.949 . S
H2136 C2142 0.950 . S
H2137 C2143 0.950 . S
H2138 C2144 0.949 . S
C2139 H2134 0.950 . S
C2139 C2141 1.327 . S
C2139 C2145 1.429 . S
C2140 C2132 1.574 . S
C2140 H2135 0.949 . S
C2140 C2146 1.368 . S
C2141 C2125 1.349 . S
C2141 H2133 0.950 . S
C2141 C2139 1.327 . S
C2142 C2130 1.349 . S
C2142 H2136 0.950 . S
C2142 C2143 1.327 . S
C2143 H2137 0.950 . S
C2143 C2142 1.327 . S
C2143 C2147 1.429 . S
C2144 C2127 1.574 . S
C2144 H2138 0.949 . S
C2144 C2148 1.368 . S
C2145 C2126 1.429 . S
C2145 C2139 1.429 . S
C2145 C2146 1.523 . S
C2146 C2127 1.368 . S
C2146 C2140 1.368 . S
C2146 C2145 1.523 . S
C2147 C2131 1.429 . S
C2147 C2143 1.429 . S
C2147 C2148 1.523 . S
C2148 C2132 1.368 . S
C2148 C2144 1.368 . S
C2148 C2147 1.523 . S
H2149 C2124 0.950 . S
H2150 C2126 0.950 . S
H2151 C2127 0.949 . S
H2152 C2129 0.950 . S
H2153 C2131 0.950 . S
C2154 C2155 1.349 1_556 S
C2154 C2156 1.327 . S
C2154 H2179 0.950 . S
C2155 C2154 1.349 1_554 S
C2155 C2171 1.349 . S
C2156 C2154 1.327 . S
C2156 C2175 1.429 1_556 S
C2156 H2180 0.950 . S
C2157 C2174 1.574 . S
C2157 C2176 1.368 1_554 S
C2157 H2181 0.949 . S
H2158 C2162 0.949 . S
C2159 C2160 1.349 . S
C2159 C2161 1.338 . S
C2159 H2182 0.950 1_556 S
C2160 C2159 1.349 . S
C2160 C2172 1.349 . S
C2161 C2159 1.338 . S
C2161 C2177 1.456 . S
C2161 H2183 0.913 1_556 S
C2162 H2158 0.949 . S
C2162 C2170 1.574 . S
C2162 C2178 1.368 . S
H2163 C2171 0.950 . S
H2164 C2169 0.950 . S
H2165 C2170 0.949 . S
H2166 C2172 0.950 . S
H2167 C2173 0.950 . S
H2168 C2174 0.949 . S
C2169 H2164 0.950 . S
C2169 C2171 1.327 . S
C2169 C2175 1.429 . S
C2170 C2162 1.574 . S
C2170 H2165 0.949 . S
C2170 C2176 1.368 . S
C2171 C2155 1.349 . S
C2171 H2163 0.950 . S
C2171 C2169 1.327 . S
C2172 C2160 1.349 . S
C2172 H2166 0.950 . S
C2172 C2173 1.327 . S
C2173 H2167 0.950 . S
C2173 C2172 1.327 . S
C2173 C2177 1.429 . S
C2174 C2157 1.574 . S
C2174 H2168 0.949 . S
C2174 C2178 1.368 1_554 S
C2175 C2156 1.429 1_554 S
C2175 C2169 1.429 . S
C2175 C2176 1.523 1_554 S
C2176 C2157 1.368 1_556 S
C2176 C2170 1.368 . S
C2176 C2175 1.523 1_556 S
C2177 C2161 1.456 . S
C2177 C2173 1.429 . S
C2177 C2178 1.523 . S
C2178 C2162 1.368 . S
C2178 C2174 1.368 1_556 S
C2178 C2177 1.523 . S
H2179 C2154 0.950 . S
H2180 C2156 0.950 . S
H2181 C2157 0.949 . S
H2182 C2159 0.950 1_554 S
H2183 C2161 0.913 1_554 S
C2184 C2185 1.349 1_556 S
C2184 C2186 1.327 . S
C2184 H2209 0.950 . S
C2185 C2184 1.349 1_554 S
C2185 C2201 1.349 . S
C2186 C2184 1.327 . S
C2186 C2205 1.429 . S
C2186 H2210 0.950 . S
C2187 C2204 1.573 1_554 S
C2187 C2206 1.368 1_554 S
C2187 H2211 0.950 . S
H2188 C2192 0.949 . S
C2189 C2190 1.349 . S
C2189 C2191 1.327 . S
C2189 H2212 0.950 . S
C2190 C2189 1.349 . S
C2190 C2202 1.349 . S
C2191 C2189 1.327 . S
C2191 C2207 1.429 . S
C2191 H2213 0.950 . S
C2192 H2188 0.949 . S
C2192 C2200 1.574 . S
C2192 C2208 1.368 . S
H2193 C2201 0.950 . S
H2194 C2199 0.950 . S
H2195 C2200 0.949 . S
H2196 C2202 0.950 . S
H2197 C2203 0.950 . S
H2198 C2204 0.949 1_554 S
C2199 H2194 0.950 . S
C2199 C2201 1.327 . S
C2199 C2205 1.429 1_554 S
C2200 C2192 1.574 . S
C2200 H2195 0.949 . S
C2200 C2206 1.368 . S
C2201 C2185 1.349 . S
C2201 H2193 0.950 . S
C2201 C2199 1.327 . S
C2202 C2190 1.349 . S
C2202 H2196 0.950 . S
C2202 C2203 1.327 . S
C2203 H2197 0.950 . S
C2203 C2202 1.327 . S
C2203 C2207 1.429 . S
C2204 C2187 1.573 1_556 S
C2204 H2198 0.949 1_556 S
C2204 C2208 1.368 . S
C2205 C2186 1.429 . S
C2205 C2199 1.429 1_556 S
C2205 C2206 1.523 . S
C2206 C2187 1.368 1_556 S
C2206 C2200 1.368 . S
C2206 C2205 1.523 . S
C2207 C2191 1.429 . S
C2207 C2203 1.429 . S
C2207 C2208 1.523 . S
C2208 C2192 1.368 . S
C2208 C2204 1.368 . S
C2208 C2207 1.523 . S
H2209 C2184 0.950 . S
H2210 C2186 0.950 . S
H2211 C2187 0.950 . S
H2212 C2189 0.950 . S
H2213 C2191 0.950 . S
C2214 C2215 1.349 . S
C2214 C2216 1.327 . S
C2214 H2239 0.950 . S
C2215 C2214 1.349 . S
C2215 C2231 1.349 . S
C2216 C2214 1.327 . S
C2216 C2235 1.429 . S
C2216 H2240 0.950 . S
C2217 C2234 1.574 . S
C2217 C2236 1.368 . S
C2217 H2241 0.949 . S
H2218 C2222 0.949 . S
C2219 C2220 1.349 . S
C2219 C2221 1.327 . S
C2219 H2242 0.950 . S
C2220 C2219 1.349 . S
C2220 C2232 1.349 . S
C2221 C2219 1.327 . S
C2221 C2237 1.429 . S
C2221 H2243 0.950 . S
C2222 H2218 0.949 . S
C2222 C2230 1.574 . S
C2222 C2238 1.368 . S
H2223 C2231 0.950 . S
H2224 C2229 0.950 . S
H2225 C2230 0.949 . S
H2226 C2232 0.950 . S
H2227 C2233 0.950 . S
H2228 C2234 0.949 . S
C2229 H2224 0.950 . S
C2229 C2231 1.327 . S
C2229 C2235 1.429 . S
C2230 C2222 1.574 . S
C2230 H2225 0.949 . S
C2230 C2236 1.368 . S
C2231 C2215 1.349 . S
C2231 H2223 0.950 . S
C2231 C2229 1.327 . S
C2232 C2220 1.349 . S
C2232 H2226 0.950 . S
C2232 C2233 1.327 . S
C2233 H2227 0.950 . S
C2233 C2232 1.327 . S
C2233 C2237 1.429 . S
C2234 C2217 1.574 . S
C2234 H2228 0.949 . S
C2234 C2238 1.368 . S
C2235 C2216 1.429 . S
C2235 C2229 1.429 . S
C2235 C2236 1.523 . S
C2236 C2217 1.368 . S
C2236 C2230 1.368 . S
C2236 C2235 1.523 . S
C2237 C2221 1.429 . S
C2237 C2233 1.429 . S
C2237 C2238 1.523 . S
C2238 C2222 1.368 . S
C2238 C2234 1.368 . S
C2238 C2237 1.523 . S
H2239 C2214 0.950 . S
H2240 C2216 0.950 . S
H2241 C2217 0.949 . S
H2242 C2219 0.950 . S
H2243 C2221 0.950 . S
C805 C22 2.068 . S
C810 C694 1.878 1_545 S
C840 C714 2.023 . S
C835 C38 2.064 . S
C870 C653 1.660 . S
C865 C75 1.649 . S
C895 C91 1.635 . S
C900 C674 1.632 . S
C925 C128 1.639 . S
C930 C799 1.483 . S
C955 C197 1.462 . S
C960 C779 1.467 1_554 S
C990 C735 1.939 . S
C985 C144 2.003 . S
C1015 C181 1.516 . S
C1020 C756 1.476 . S
C1050 C673 1.574 1_455 S
C1045 C234 1.716 . S
C1080 C716 1.607 1_455 S
C1075 C303 1.622 . S
C1105 C356 1.897 . S
C1110 C693 1.859 . S
C1135 C287 1.686 . S
C1140 C757 1.511 . S
C1170 C778 1.825 . S
C1165 C393 1.990 . S
C1200 C798 2.018 . S
C1195 C409 2.076 . S
C1225 C462 1.780 . S
C1230 C758 1.785 . S
C1260 C737 1.559 1_545 S
C1255 C446 1.563 . S
C1285 C499 1.580 . S
C1290 C715 1.418 . S
C1315 C552 1.446 . S
C1320 C695 1.454 . S
C1350 C672 1.796 1_556 S
C1345 C515 1.869 . S
C1375 C568 1.721 . S
C1380 C651 1.677 1_556 S
C1410 C736 1.635 . S
C1405 C340 1.789 . S
C1440 C800 1.562 . S
C1435 C621 1.577 . S
C1465 C250 1.783 . S
C1470 C777 1.742 . S
C1495 C605 1.627 . S
C1500 C652 1.465 . S
C1530 C650 1.110 . S
C1525 C39 1.158 . S
C1555 C29 0.930 . S
C1560 C671 0.919 . S
C1590 C696 1.222 . S
C1585 C92 1.318 . S
C1620 C712 1.352 . S
C1615 C82 1.643 1_655 S
C1645 C145 1.069 . S
C1650 C649 0.892 . S
C1675 C188 1.564 . S
C1680 C670 1.230 . S
C1710 C692 0.932 . S
C1705 C135 0.954 . S
C1735 C198 1.007 . S
C1740 C717 0.969 . S
C1765 C251 0.895 . S
C1770 C654 0.861 . S
C1800 C691 1.307 . S
C1795 C294 1.578 . S
C1825 C347 1.455 . S
C1830 C713 1.419 . S
C1855 C304 1.071 . S
C1860 C738 1.011 . S
C1890 C755 1.122 . S
C1885 C410 1.183 . S
C1915 C400 0.988 . S
C1920 C734 0.981 . S
C1945 C453 1.035 . S
C1950 C780 0.985 . S
C1975 C463 1.995 . S
C1980 C796 1.628 . S
C2005 C516 1.070 . S
C2010 C754 0.898 . S
C2040 C733 1.522 . S
C2035 C569 1.906 . S
C2065 C506 0.875 . S
C2070 C776 0.855 . S
C2100 C801 0.843 . S
C2095 C559 0.853 . S
C2130 C759 0.843 . S
C2125 C357 0.869 . S
C2160 C775 1.267 . S
C2155 C612 1.559 . S
C2190 C797 1.372 . S
C2185 C241 1.403 . S
C2215 C622 0.996 . S
C2220 C675 0.940 . S
