# Generated by pormake.
# Topology ocu, (6,8)-cn, num edge types: 1
# Building blocks:
#     Node 0, Type 0, BuildingBlock: HISSIN_clean_sbu_0, # of connection points: 6
#     Node 1, Type 0, BuildingBlock: HISSIN_clean_sbu_0, # of connection points: 6
#     Node 2, Type 0, BuildingBlock: HISSIN_clean_sbu_0, # of connection points: 6
#     Node 3, Type 0, BuildingBlock: HISSIN_clean_sbu_0, # of connection points: 6
#     Node 4, Type 0, BuildingBlock: HISSIN_clean_sbu_0, # of connection points: 6
#     Node 5, Type 0, BuildingBlock: HISSIN_clean_sbu_0, # of connection points: 6
#     Node 6, Type 0, BuildingBlock: HISSIN_clean_sbu_0, # of connection points: 6
#     Node 7, Type 0, BuildingBlock: HISSIN_clean_sbu_0, # of connection points: 6
#     Node 8, Type 1, BuildingBlock: GIZVER_clean_sbu_0, # of connection points: 8
#     Node 9, Type 1, BuildingBlock: GIZVER_clean_sbu_0, # of connection points: 8
#     Node 10, Type 1, BuildingBlock: GIZVER_clean_sbu_0, # of connection points: 8
#     Node 11, Type 1, BuildingBlock: GIZVER_clean_sbu_0, # of connection points: 8
#     Node 12, Type 1, BuildingBlock: GIZVER_clean_sbu_0, # of connection points: 8
#     Node 13, Type 1, BuildingBlock: GIZVER_clean_sbu_0, # of connection points: 8
#     Edge 14, Type (0, 1), BuildingBlock: AJUNOK_clean_linker_0, # of connection points: 2
#     Edge 15, Type (0, 1), BuildingBlock: AJUNOK_clean_linker_0, # of connection points: 2
#     Edge 16, Type (0, 1), BuildingBlock: AJUNOK_clean_linker_0, # of connection points: 2
#     Edge 17, Type (0, 1), BuildingBlock: AJUNOK_clean_linker_0, # of connection points: 2
#     Edge 18, Type (0, 1), BuildingBlock: AJUNOK_clean_linker_0, # of connection points: 2
#     Edge 19, Type (0, 1), BuildingBlock: AJUNOK_clean_linker_0, # of connection points: 2
#     Edge 20, Type (0, 1), BuildingBlock: AJUNOK_clean_linker_0, # of connection points: 2
#     Edge 21, Type (0, 1), BuildingBlock: AJUNOK_clean_linker_0, # of connection points: 2
#     Edge 22, Type (0, 1), BuildingBlock: AJUNOK_clean_linker_0, # of connection points: 2
#     Edge 23, Type (0, 1), BuildingBlock: AJUNOK_clean_linker_0, # of connection points: 2
#     Edge 24, Type (0, 1), BuildingBlock: AJUNOK_clean_linker_0, # of connection points: 2
#     Edge 25, Type (0, 1), BuildingBlock: AJUNOK_clean_linker_0, # of connection points: 2
#     Edge 26, Type (0, 1), BuildingBlock: AJUNOK_clean_linker_0, # of connection points: 2
#     Edge 27, Type (0, 1), BuildingBlock: AJUNOK_clean_linker_0, # of connection points: 2
#     Edge 28, Type (0, 1), BuildingBlock: AJUNOK_clean_linker_0, # of connection points: 2
#     Edge 29, Type (0, 1), BuildingBlock: AJUNOK_clean_linker_0, # of connection points: 2
#     Edge 30, Type (0, 1), BuildingBlock: AJUNOK_clean_linker_0, # of connection points: 2
#     Edge 31, Type (0, 1), BuildingBlock: AJUNOK_clean_linker_0, # of connection points: 2
#     Edge 32, Type (0, 1), BuildingBlock: AJUNOK_clean_linker_0, # of connection points: 2
#     Edge 33, Type (0, 1), BuildingBlock: AJUNOK_clean_linker_0, # of connection points: 2
#     Edge 34, Type (0, 1), BuildingBlock: AJUNOK_clean_linker_0, # of connection points: 2
#     Edge 35, Type (0, 1), BuildingBlock: AJUNOK_clean_linker_0, # of connection points: 2
#     Edge 36, Type (0, 1), BuildingBlock: AJUNOK_clean_linker_0, # of connection points: 2
#     Edge 37, Type (0, 1), BuildingBlock: AJUNOK_clean_linker_0, # of connection points: 2
#     Edge 38, Type (0, 1), BuildingBlock: AJUNOK_clean_linker_0, # of connection points: 2
#     Edge 39, Type (0, 1), BuildingBlock: AJUNOK_clean_linker_0, # of connection points: 2
#     Edge 40, Type (0, 1), BuildingBlock: AJUNOK_clean_linker_0, # of connection points: 2
#     Edge 41, Type (0, 1), BuildingBlock: AJUNOK_clean_linker_0, # of connection points: 2
#     Edge 42, Type (0, 1), BuildingBlock: AJUNOK_clean_linker_0, # of connection points: 2
#     Edge 43, Type (0, 1), BuildingBlock: AJUNOK_clean_linker_0, # of connection points: 2
#     Edge 44, Type (0, 1), BuildingBlock: AJUNOK_clean_linker_0, # of connection points: 2
#     Edge 45, Type (0, 1), BuildingBlock: AJUNOK_clean_linker_0, # of connection points: 2
#     Edge 46, Type (0, 1), BuildingBlock: AJUNOK_clean_linker_0, # of connection points: 2
#     Edge 47, Type (0, 1), BuildingBlock: AJUNOK_clean_linker_0, # of connection points: 2
#     Edge 48, Type (0, 1), BuildingBlock: AJUNOK_clean_linker_0, # of connection points: 2
#     Edge 49, Type (0, 1), BuildingBlock: AJUNOK_clean_linker_0, # of connection points: 2
#     Edge 50, Type (0, 1), BuildingBlock: AJUNOK_clean_linker_0, # of connection points: 2
#     Edge 51, Type (0, 1), BuildingBlock: AJUNOK_clean_linker_0, # of connection points: 2
#     Edge 52, Type (0, 1), BuildingBlock: AJUNOK_clean_linker_0, # of connection points: 2
#     Edge 53, Type (0, 1), BuildingBlock: AJUNOK_clean_linker_0, # of connection points: 2
#     Edge 54, Type (0, 1), BuildingBlock: AJUNOK_clean_linker_0, # of connection points: 2
#     Edge 55, Type (0, 1), BuildingBlock: AJUNOK_clean_linker_0, # of connection points: 2
#     Edge 56, Type (0, 1), BuildingBlock: AJUNOK_clean_linker_0, # of connection points: 2
#     Edge 57, Type (0, 1), BuildingBlock: AJUNOK_clean_linker_0, # of connection points: 2
#     Edge 58, Type (0, 1), BuildingBlock: AJUNOK_clean_linker_0, # of connection points: 2
#     Edge 59, Type (0, 1), BuildingBlock: AJUNOK_clean_linker_0, # of connection points: 2
#     Edge 60, Type (0, 1), BuildingBlock: AJUNOK_clean_linker_0, # of connection points: 2
#     Edge 61, Type (0, 1), BuildingBlock: AJUNOK_clean_linker_0, # of connection points: 2
# Relax obj value: 0.210
# Max RMSD: 0.240
# Mean RMSD: 0.173
data_MOF--net-ocu--node1-HISSIN_clean_sbu_0--node2-GIZVER_clean_sbu_0--edge1-AJUNOK_clean_linker_0
_symmetry_space_group_name_H-M    P1
_symmetry_Int_Tables_number       1
_symmetry_cell_setting            triclinic
loop_
_symmetry_equiv_pos_as_xyz
'x, y, z'
_cell_length_a     33.988048
_cell_length_b     34.978421
_cell_length_c     26.351616
_cell_angle_alpha  105.44163
_cell_angle_beta   76.134995
_cell_angle_gamma 116.67346
loop_
_atom_site_label
_atom_site_type_symbol
_atom_site_fract_x
_atom_site_fract_y
_atom_site_fract_z
_atom_type_partial_charge
Eu0 Eu 0.35404 0.30876 0.29579 0.0
Eu1 Eu 0.29423 0.26711 0.19487 0.0
C2 C 0.26697 0.2136 0.29059 0.0
C3 C 0.41762 0.30358 0.38942 0.0
C4 C 0.40332 0.25905 0.36767 0.0
C5 C 0.45873 0.29528 0.44676 0.0
C6 C 0.4162 0.23279 0.38559 0.0
C7 C 0.44565 0.32166 0.42883 0.0
C8 C 0.44356 0.25044 0.42577 0.0
C9 C 0.40294 0.33042 0.37039 0.0
O10 O 0.26553 0.31229 0.25541 0.0
O11 O 0.31056 0.34583 0.32136 0.0
C12 C 0.27686 0.34053 0.29988 0.0
O13 O 0.38224 0.36348 0.24918 0.0
O14 O 0.22964 0.24049 0.16728 0.0
O15 O 0.2895 0.25365 0.11018 0.0
O16 O 0.35301 0.3274 0.17101 0.0
C17 C 0.37977 0.36237 0.19964 0.0
O18 O 0.38292 0.26488 0.23656 0.0
O19 O 0.33621 0.22789 0.17301 0.0
O20 O 0.26331 0.21193 0.24142 0.0
O21 O 0.41937 0.33672 0.32173 0.0
O22 O 0.36023 0.32001 0.37972 0.0
O23 O 0.29527 0.24817 0.31801 0.0
C24 C 0.23241 0.26808 0.0935 0.0
C25 C 0.259 0.31201 0.09009 0.0
C26 C 0.17394 0.27234 0.05988 0.0
C27 C 0.24292 0.33604 0.07264 0.0
C28 C 0.19014 0.2482 0.07719 0.0
C29 C 0.19969 0.31683 0.05892 0.0
C30 C 0.24695 0.24404 0.11802 0.0
C31 C 0.37061 0.23468 0.19443 0.0
H32 H 0.38197 0.24452 0.3369 0.0
H33 H 0.47993 0.30967 0.47767 0.0
H34 H 0.40472 0.19855 0.36796 0.0
H35 H 0.45715 0.35601 0.44591 0.0
H36 H 0.29171 0.3282 0.10252 0.0
H37 H 0.1405 0.25677 0.04968 0.0
H38 H 0.26376 0.3701 0.07152 0.0
H39 H 0.16905 0.2144 0.07963 0.0
Eu40 Eu 0.84314 0.2611 0.24191 0.0
Eu41 Eu 0.77653 0.31189 0.27942 0.0
C42 C 0.85925 0.34236 0.3398 0.0
C43 C 0.92144 0.21582 0.25748 0.0
C44 C 0.95938 0.2499 0.2782 0.0
C45 C 0.92618 0.16846 0.30667 0.0
C46 C 0.98016 0.24333 0.3132 0.0
C47 C 0.90568 0.17487 0.27148 0.0
C48 C 0.96317 0.20275 0.32862 0.0
C49 C 0.89718 0.22272 0.22297 0.0
O50 O 0.83802 0.35576 0.23185 0.0
O51 O 0.86159 0.30334 0.18149 0.0
C52 C 0.86407 0.34329 0.19193 0.0
O53 O 0.78369 0.22123 0.19653 0.0
O54 O 0.76088 0.36883 0.30463 0.0
O55 O 0.70764 0.30432 0.30034 0.0
O56 O 0.76616 0.27697 0.19576 0.0
C57 C 0.76188 0.23671 0.1783 0.0
O58 O 0.8028 0.24228 0.31915 0.0
O59 O 0.7416 0.24656 0.30586 0.0
O60 O 0.81684 0.33434 0.34671 0.0
O61 O 0.85392 0.20194 0.22944 0.0
O62 O 0.90982 0.26249 0.21654 0.0
O63 O 0.87716 0.32309 0.2973 0.0
C64 C 0.69324 0.3583 0.2813 0.0
C65 C 0.70825 0.36615 0.22909 0.0
C66 C 0.63192 0.37742 0.28545 0.0
C67 C 0.68605 0.38097 0.20591 0.0
C68 C 0.65433 0.36285 0.30879 0.0
C69 C 0.64834 0.38771 0.2344 0.0
C70 C 0.718 0.34582 0.30774 0.0
C71 C 0.75963 0.22931 0.32684 0.0
H72 H 0.97269 0.28186 0.26806 0.0
H73 H 0.91297 0.13653 0.31692 0.0
H74 H 1.00881 0.27019 0.32922 0.0
H75 H 0.87697 0.14782 0.25582 0.0
H76 H 0.73783 0.36208 0.20694 0.0
H77 H 0.60323 0.38285 0.30832 0.0
H78 H 0.69925 0.38873 0.16644 0.0
H79 H 0.64204 0.3564 0.34891 0.0
Eu80 Eu 0.84573 0.82213 0.2021 0.0
Eu81 Eu 0.80281 0.75841 0.28887 0.0
C82 C 0.75226 0.73767 0.18862 0.0
C83 C 0.8425 0.87695 0.10161 0.0
C84 C 0.79674 0.8501 0.10533 0.0
C85 C 0.83115 0.92159 0.05481 0.0
C86 C 0.76829 0.85926 0.08477 0.0
C87 C 0.85969 0.9122 0.07517 0.0
C88 C 0.78499 0.89577 0.0605 0.0
C89 C 0.87077 0.87023 0.12992 0.0
O90 O 0.83832 0.72616 0.21932 0.0
O91 O 0.89096 0.78653 0.18744 0.0
C92 C 0.8767 0.74532 0.19089 0.0
O93 O 0.88202 0.86092 0.27377 0.0
O94 O 0.77674 0.694 0.30993 0.0
O95 O 0.78756 0.75091 0.37193 0.0
O96 O 0.87319 0.80264 0.30531 0.0
C97 C 0.89233 0.84464 0.30574 0.0
O98 O 0.78442 0.8332 0.24679 0.0
O99 O 0.77905 0.81281 0.32451 0.0
O100 O 0.74684 0.73579 0.23944 0.0
O101 O 0.86809 0.8857 0.18085 0.0
O102 O 0.86918 0.831 0.11949 0.0
O103 O 0.79093 0.76207 0.1652 0.0
C104 C 0.81012 0.6985 0.38166 0.0
C105 C 0.85266 0.72952 0.39307 0.0
C106 C 0.8261 0.64332 0.40167 0.0
C107 C 0.88195 0.71741 0.40755 0.0
C108 C 0.79689 0.65544 0.38696 0.0
C109 C 0.86943 0.67391 0.41073 0.0
C110 C 0.78131 0.71012 0.35994 0.0
C111 C 0.76985 0.83408 0.2979 0.0
H112 H 0.78266 0.82316 0.12639 0.0
H113 H 0.84486 0.95006 0.03649 0.0
H114 H 0.73288 0.83938 0.09091 0.0
H115 H 0.89483 0.93344 0.07216 0.0
H116 H 0.86371 0.76301 0.38951 0.0
H117 H 0.81493 0.60976 0.40525 0.0
H118 H 0.91492 0.74178 0.4145 0.0
H119 H 0.76432 0.63094 0.37856 0.0
Eu120 Eu 0.34739 0.7652 0.23653 0.0
Eu121 Eu 0.28152 0.81106 0.28115 0.0
C122 C 0.26655 0.74269 0.17667 0.0
C123 C 0.40595 0.72032 0.12395 0.0
C124 C 0.39998 0.6787 0.09591 0.0
C125 C 0.41584 0.74392 0.04105 0.0
C126 C 0.40373 0.67012 0.04075 0.0
C127 C 0.41246 0.75252 0.0963 0.0
C128 C 0.414 0.70332 0.01221 0.0
C129 C 0.39847 0.72816 0.18215 0.0
O130 O 0.24768 0.74376 0.30122 0.0
O131 O 0.30758 0.73395 0.30781 0.0
C132 C 0.26461 0.72343 0.31841 0.0
O133 O 0.38303 0.82127 0.29746 0.0
O134 O 0.21398 0.80394 0.28351 0.0
O135 O 0.25807 0.85849 0.33432 0.0
O136 O 0.3222 0.83058 0.34742 0.0
C137 C 0.36461 0.83909 0.34078 0.0
O138 O 0.36163 0.81212 0.18278 0.0
O139 O 0.34116 0.86253 0.24282 0.0
O140 O 0.27118 0.78281 0.19573 0.0
O141 O 0.41424 0.76887 0.20565 0.0
O142 O 0.35792 0.70594 0.2026 0.0
O143 O 0.28658 0.72636 0.19569 0.0
C144 C 0.18991 0.81176 0.37409 0.0
C145 C 0.20954 0.79998 0.40533 0.0
C146 C 0.11971 0.78187 0.42892 0.0
C147 C 0.18517 0.78275 0.45065 0.0
C148 C 0.14407 0.79915 0.38352 0.0
C149 C 0.14183 0.78021 0.46719 0.0
C150 C 0.21696 0.83167 0.32811 0.0
C151 C 0.36543 0.85232 0.19926 0.0
H152 H 0.39306 0.65295 0.11663 0.0
H153 H 0.42287 0.76991 0.02077 0.0
H154 H 0.40158 0.63807 0.02083 0.0
H155 H 0.41582 0.78472 0.11713 0.0
H156 H 0.24427 0.80587 0.39625 0.0
H157 H 0.08491 0.776 0.43717 0.0
H158 H 0.2024 0.77851 0.47698 0.0
H159 H 0.12753 0.80437 0.35726 0.0
Eu160 Eu 0.3605 0.75234 0.73023 0.0
Eu161 Eu 0.29524 0.80544 0.77116 0.0
C162 C 0.37793 0.82646 0.83245 0.0
C163 C 0.44652 0.70633 0.72046 0.0
C164 C 0.44895 0.71717 0.77526 0.0
C165 C 0.49942 0.67438 0.70666 0.0
C166 C 0.47566 0.70556 0.79575 0.0
C167 C 0.47294 0.68614 0.6862 0.0
C168 C 0.50002 0.68293 0.7617 0.0
C169 C 0.41484 0.71335 0.69859 0.0
O170 O 0.33928 0.82961 0.69774 0.0
O171 O 0.39829 0.81954 0.70857 0.0
C172 C 0.38216 0.84002 0.68984 0.0
O173 O 0.32285 0.73485 0.66215 0.0
O174 O 0.28401 0.86504 0.7894 0.0
O175 O 0.22833 0.80325 0.79745 0.0
O176 O 0.26241 0.74658 0.71052 0.0
C177 C 0.28093 0.72799 0.66777 0.0
O178 O 0.29484 0.70787 0.77144 0.0
O179 O 0.27706 0.76113 0.82904 0.0
O180 O 0.35464 0.84222 0.81727 0.0
O181 O 0.37296 0.69418 0.71707 0.0
O182 O 0.42564 0.75297 0.69351 0.0
O183 O 0.37439 0.78663 0.81294 0.0
C184 C 0.21432 0.85622 0.7724 0.0
C185 C 0.19487 0.83004 0.72649 0.0
C186 C 0.1856 0.90811 0.77021 0.0
C187 C 0.17136 0.84321 0.70233 0.0
C188 C 0.20877 0.89494 0.79434 0.0
C189 C 0.16711 0.88278 0.72359 0.0
C190 C 0.24081 0.84444 0.79802 0.0
C191 C 0.27073 0.72008 0.81416 0.0
H192 H 0.42873 0.73279 0.80228 0.0
H193 H 0.51744 0.65636 0.67986 0.0
H194 H 0.4751 0.71176 0.83832 0.0
H195 H 0.47158 0.67768 0.6438 0.0
H196 H 0.19868 0.79998 0.70867 0.0
H197 H 0.18323 0.93895 0.78717 0.0
H198 H 0.15825 0.82351 0.66586 0.0
H199 H 0.22322 0.91558 0.82972 0.0
Eu200 Eu 0.35868 0.31893 0.71349 0.0
Eu201 Eu 0.31359 0.25896 0.80455 0.0
C202 C 0.26563 0.23491 0.70275 0.0
C203 C 0.34788 0.37906 0.62637 0.0
C204 C 0.34549 0.37462 0.57243 0.0
C205 C 0.28522 0.39968 0.65041 0.0
C206 C 0.31353 0.38324 0.55767 0.0
C207 C 0.31718 0.39152 0.66505 0.0
C208 C 0.28305 0.39597 0.59663 0.0
C209 C 0.37901 0.36683 0.6427 0.0
O210 O 0.34818 0.22284 0.73759 0.0
O211 O 0.39996 0.27898 0.69564 0.0
C212 C 0.38468 0.23876 0.70402 0.0
O213 O 0.39844 0.35627 0.78286 0.0
O214 O 0.27818 0.19729 0.83322 0.0
O215 O 0.303 0.25755 0.88923 0.0
O216 O 0.38567 0.2969 0.81485 0.0
C217 C 0.40759 0.33852 0.81423 0.0
O218 O 0.29785 0.33084 0.75661 0.0
O219 O 0.29605 0.31791 0.83715 0.0
O220 O 0.25851 0.23532 0.75423 0.0
O221 O 0.38806 0.38308 0.69137 0.0
O222 O 0.37115 0.32564 0.63 0.0
O223 O 0.30503 0.25714 0.67896 0.0
C224 C 0.31246 0.19843 0.90304 0.0
C225 C 0.32714 0.21833 0.95308 0.0
C226 C 0.35143 0.15215 0.89033 0.0
C227 C 0.35433 0.20565 0.97116 0.0
C228 C 0.32466 0.16491 0.87214 0.0
C229 C 0.36678 0.17255 0.93972 0.0
C230 C 0.28813 0.2153 0.88136 0.0
C231 C 0.28628 0.33704 0.80825 0.0
H232 H 0.36827 0.36443 0.54177 0.0
H233 H 0.26215 0.40915 0.68143 0.0
H234 H 0.31329 0.38079 0.51589 0.0
H235 H 0.31758 0.39482 0.70695 0.0
H236 H 0.31841 0.24437 0.97768 0.0
H237 H 0.3608 0.12662 0.8653 0.0
H238 H 0.36561 0.22161 0.00953 0.0
H239 H 0.31436 0.14902 0.8333 0.0
Eu240 Eu 0.86191 0.25407 0.74057 0.0
Eu241 Eu 0.79697 0.29958 0.76372 0.0
C242 C 0.78693 0.21748 0.66462 0.0
C243 C 0.96085 0.25841 0.77344 0.0
C244 C 0.98812 0.30026 0.76142 0.0
C245 C 1.01722 0.26759 0.82219 0.0
C246 C 1.03133 0.32092 0.77461 0.0
C247 C 0.97324 0.24491 0.81062 0.0
C248 C 1.04784 0.29406 0.78574 0.0
C249 C 0.92093 0.23014 0.74804 0.0
O250 O 0.77904 0.25679 0.82403 0.0
O251 O 0.7951 0.20388 0.76669 0.0
C252 C 0.77152 0.21557 0.80947 0.0
O253 O 0.86648 0.29584 0.82153 0.0
O254 O 0.72759 0.29008 0.77771 0.0
O255 O 0.77941 0.35515 0.79409 0.0
O256 O 0.85797 0.34909 0.80082 0.0
C257 C 0.8774 0.33718 0.82683 0.0
O258 O 0.90024 0.31631 0.70547 0.0
O259 O 0.84165 0.32652 0.69255 0.0
O260 O 0.7713 0.24551 0.69506 0.0
O261 O 0.88382 0.22159 0.78056 0.0
O262 O 0.91919 0.23927 0.70366 0.0
O263 O 0.8237 0.2168 0.6716 0.0
C264 C 0.72132 0.33024 0.86207 0.0
C265 C 0.74895 0.33253 0.896 0.0
C266 C 0.66172 0.32173 0.93514 0.0
C267 C 0.73355 0.33098 0.94965 0.0
C268 C 0.67717 0.32313 0.88143 0.0
C269 C 0.69032 0.32732 0.9703 0.0
C270 C 0.73771 0.32929 0.80544 0.0
C271 C 0.88447 0.33618 0.68478 0.0
H272 H 0.9774 0.31536 0.73968 0.0
H273 H 1.02866 0.2541 0.84523 0.0
H274 H 1.05348 0.35165 0.7623 0.0
H275 H 0.95109 0.21564 0.82642 0.0
H276 H 0.78287 0.33636 0.88122 0.0
H277 H 0.62829 0.31957 0.94958 0.0
H278 H 0.75628 0.33564 0.97566 0.0
H279 H 0.65502 0.31965 0.85537 0.0
Eu280 Eu 0.8618 0.80745 0.80725 0.0
Eu281 Eu 0.80343 0.76676 0.70777 0.0
C282 C 0.77689 0.71453 0.80416 0.0
C283 C 0.91624 0.8015 0.90924 0.0
C284 C 0.8983 0.7565 0.89014 0.0
C285 C 0.95632 0.79162 0.96616 0.0
C286 C 0.9096 0.72933 0.90835 0.0
C287 C 0.94503 0.81898 0.94768 0.0
C288 C 0.93881 0.74651 0.94644 0.0
C289 C 0.90656 0.82955 0.88594 0.0
O290 O 0.7692 0.804 0.7727 0.0
O291 O 0.8245 0.85053 0.82299 0.0
C292 C 0.78549 0.83897 0.80891 0.0
O293 O 0.90143 0.856 0.75247 0.0
O294 O 0.73729 0.73509 0.68304 0.0
O295 O 0.79567 0.75453 0.62427 0.0
O296 O 0.85349 0.83395 0.69165 0.0
C297 C 0.89035 0.86177 0.71146 0.0
O298 O 0.88311 0.75443 0.7552 0.0
O299 O 0.85397 0.73674 0.67771 0.0
O300 O 0.77987 0.71121 0.75254 0.0
O301 O 0.92514 0.83274 0.83696 0.0
O302 O 0.86476 0.8226 0.89259 0.0
O303 O 0.79872 0.75183 0.83355 0.0
C304 C 0.73397 0.76547 0.61536 0.0
C305 C 0.75799 0.81021 0.61518 0.0
C306 C 0.67172 0.76837 0.58838 0.0
C307 C 0.73911 0.8338 0.60203 0.0
C308 C 0.69086 0.74459 0.60128 0.0
C309 C 0.69538 0.81344 0.58981 0.0
C310 C 0.75256 0.74172 0.63436 0.0
C311 C 0.87986 0.73396 0.70542 0.0
H312 H 0.87635 0.74247 0.86004 0.0
H313 H 0.97909 0.8057 0.99532 0.0
H314 H 0.89661 0.69498 0.89116 0.0
H315 H 0.95934 0.85371 0.96258 0.0
H316 H 0.7911 0.82723 0.62634 0.0
H317 H 0.63803 0.75186 0.57895 0.0
H318 H 0.75859 0.86827 0.6022 0.0
H319 H 0.67162 0.71015 0.60154 0.0
Co320 Co 0.08221 0.94455 0.50528 0.0
Co321 Co 0.09899 1.01195 0.58394 0.0
Co322 Co 0.07587 0.04079 0.50912 0.0
O323 O 0.10903 1.00674 0.50825 0.0
H324 H 0.14027 1.01975 0.49462 0.0
O325 O 1.04198 0.076 0.51613 0.0
Co326 Co 1.07159 0.13842 0.53836 0.0
Co327 Co 1.04697 0.08733 0.45102 0.0
H328 H 1.01136 0.06309 0.53214 0.0
O329 O 0.13884 1.01093 0.61422 0.0
O330 O 0.07545 0.95428 0.5877 0.0
O331 O 1.05715 1.03294 0.63338 0.0
O332 O 1.02527 1.00783 0.56255 0.0
O333 O 0.11017 0.08516 0.5653 0.0
O334 O 0.09612 0.19409 0.55905 0.0
O335 O 1.02331 0.14844 0.56947 0.0
O336 O 0.12788 0.13688 0.52123 0.0
O337 O 0.12583 0.07279 0.45173 0.0
O338 O 0.08891 0.07393 0.39371 0.0
O339 O 1.0654 0.14712 0.46727 0.0
O340 O 1.00165 0.09358 0.43726 0.0
C341 C 0.10159 0.89913 0.51057 0.0
C342 C 1.01918 0.95573 0.4583 0.0
C343 C 1.02208 1.01083 0.61246 0.0
C344 C 0.11006 0.97082 0.61405 0.0
C345 C 1.05613 0.18613 0.58251 0.0
C346 C 0.13474 0.12381 0.55788 0.0
C347 C 0.12537 0.08108 0.40689 0.0
C348 C 1.02821 0.1345 0.448 0.0
O349 O 1.06122 0.88853 0.50369 0.0
O350 O 0.13165 0.93873 0.508 0.0
O351 O 1.04241 0.99548 0.45325 0.0
O352 O 1.02466 0.94041 0.49442 0.0
Co353 Co 0.62085 0.95582 0.94995 0.0
Co354 Co 0.61135 0.9841 0.05077 0.0
Co355 Co 0.57129 1.03101 1.0031 0.0
O356 O 0.61922 1.00996 0.99457 0.0
H357 H 0.64841 1.03366 0.99252 0.0
O358 O 0.52328 0.05224 0.01227 0.0
Co359 Co 0.52486 0.10778 0.0551 0.0
Co360 Co 0.52889 0.07575 0.95487 0.0
H361 H 0.49388 1.02944 0.01782 0.0
O362 O 0.66025 0.99414 0.07499 0.0
O363 O 0.6226 0.93635 0.015 0.0
O364 O 0.55656 0.9688 0.09797 0.0
O365 O 0.52523 0.98997 0.05208 0.0
O366 O 0.59738 0.07682 0.06412 0.0
O367 O 0.52197 0.15668 0.09511 0.0
O368 O 0.46435 0.09342 0.07328 0.0
O369 O 0.58923 0.13111 0.04527 0.0
O370 O 0.61683 0.07214 0.95393 0.0
O371 O 0.58302 0.09142 0.9088 0.0
O372 O 0.52179 0.12572 0.99026 0.0
O373 O 0.47954 0.06859 0.93341 0.0
C374 C 0.66947 0.93224 0.90869 0.0
C375 C 0.53297 0.94469 0.93993 0.0
C376 C 0.52282 0.97069 0.08845 0.0
C377 C 0.65536 0.95689 0.0441 0.0
C378 C 0.47923 0.13417 0.09765 0.0
C379 C 0.61068 0.11745 0.0648 0.0
C380 C 0.61763 0.09114 0.9181 0.0
C381 C 0.48731 0.10631 0.96421 0.0
O382 O 0.62712 0.90838 0.90823 0.0
O383 O 0.68188 0.97243 0.93493 0.0
O384 O 0.54562 0.98539 0.94199 0.0
O385 O 0.55594 0.93028 0.95578 0.0
Co386 Co 0.12884 0.46243 0.93069 0.0
Co387 Co 0.08508 0.45498 0.01407 0.0
Co388 Co 1.0721 0.53406 1.00529 0.0
O389 O 0.11707 0.50681 0.99144 0.0
H390 H 0.14217 0.52475 0.01061 0.0
O391 O 1.0266 0.55922 0.01885 0.0
Co392 Co 1.03229 0.6168 0.05726 0.0
Co393 Co 1.02774 0.57724 0.95759 0.0
H394 H 0.99704 0.53774 0.02792 0.0
O395 O 0.10809 0.44778 0.0636 0.0
O396 O 0.10789 0.41712 0.97606 0.0
O397 O 1.02271 0.43128 0.01866 0.0
O398 O 1.0289 0.49651 0.06117 0.0
O399 O 0.10493 0.58047 0.06201 0.0
O400 O 1.03182 0.66866 0.0935 0.0
O401 O 0.97294 0.60615 0.07361 0.0
O402 O 0.09518 0.63572 0.04752 0.0
O403 O 0.11589 0.57289 0.95272 0.0
O404 O 0.07847 0.58409 0.90367 0.0
O405 O 1.0351 0.6335 0.9899 0.0
O406 O 0.9793 0.5831 0.94505 0.0
C407 C 0.18043 0.44139 0.89681 0.0
C408 C 1.03926 0.45541 0.91805 0.0
C409 C 1.0074 0.45485 0.05459 0.0
C410 C 0.11818 0.42154 0.0229 0.0
C411 C 0.98883 0.64754 0.09517 0.0
C412 C 0.11749 0.62131 0.06397 0.0
C413 C 0.11467 0.58757 0.91374 0.0
C414 C 0.99994 0.62284 0.96861 0.0
O415 O 0.14357 0.42518 0.87682 0.0
O416 O 0.18648 0.47376 0.93761 0.0
O417 O 1.03881 0.49044 0.94795 0.0
O418 O 1.07011 0.44285 0.91367 0.0
Co419 Co 0.59335 0.46147 0.03583 0.0
Co420 Co 0.5851 0.52815 0.10852 0.0
Co421 Co 0.57706 0.54081 1.00487 0.0
O422 O 0.61121 0.52261 0.0363 0.0
H423 H 0.64288 0.54013 0.03156 0.0
O424 O 0.54248 0.55794 0.97357 0.0
Co425 Co 0.55508 0.61707 0.97406 0.0
Co426 Co 0.56848 0.55356 0.90197 0.0
H427 H 0.51118 0.53887 0.97719 0.0
O428 O 0.61228 0.53052 0.16125 0.0
O429 O 0.56595 0.47033 0.11237 0.0
O430 O 0.53362 0.5412 0.12915 0.0
O431 O 0.51861 0.50618 0.04956 0.0
O432 O 0.58878 0.59355 0.06091 0.0
O433 O 0.55999 0.6694 0.97077 0.0
O434 O 0.50488 0.6033 0.95026 0.0
O435 O 0.61088 0.64075 1.00706 0.0
O436 O 0.63544 0.57585 0.96014 0.0
O437 O 0.61987 0.54059 0.88063 0.0
O438 O 0.58379 0.61058 0.89712 0.0
O439 O 0.54012 0.5478 0.84927 0.0
C440 C 0.62041 0.42719 0.05533 0.0
C441 C 0.53941 0.45093 0.9598 0.0
C442 C 0.50582 0.5124 0.0998 0.0
C443 C 0.59014 0.48856 0.15135 0.0
C444 C 0.52204 0.64522 0.95287 0.0
C445 C 0.61226 0.6317 0.05089 0.0
C446 C 0.64801 0.56903 0.90977 0.0
C447 C 0.55971 0.59 0.85795 0.0
O448 O 0.58191 0.4079 0.03869 0.0
O449 O 0.64261 0.46924 0.0587 0.0
O450 O 0.56519 0.48824 0.94865 0.0
O451 O 0.53904 0.44249 1.00453 0.0
Co452 Co 0.1509 0.49529 0.50761 0.0
Co453 Co 0.13277 0.48301 0.41723 0.0
Co454 Co 0.07306 0.53183 0.50384 0.0
O455 O 0.09704 0.48467 0.48211 0.0
H456 H 0.07381 0.45615 0.48559 0.0
O457 O 1.04975 0.57951 0.52598 0.0
Co458 Co 0.99693 0.57109 0.5006 0.0
Co459 Co 1.01309 0.57997 0.59015 0.0
H460 H 0.07337 0.60805 0.52369 0.0
O461 O 0.13294 0.431 0.37696 0.0
O462 O 0.18101 0.47876 0.43367 0.0
O463 O 0.15526 0.53449 0.38869 0.0
O464 O 0.1149 0.56752 0.44688 0.0
O465 O 1.02648 0.4956 0.45572 0.0
O466 O 0.95153 0.56564 0.47396 0.0
O467 O 1.01435 0.62602 0.48838 0.0
O468 O 0.97227 0.51213 0.50738 0.0
O469 O 1.03175 0.49592 0.56055 0.0
O470 O 0.99005 0.52748 0.61821 0.0
O471 O 0.96706 0.58876 0.5747 0.0
O472 O 1.01609 0.63226 0.63199 0.0
C473 C 0.17417 0.46137 0.53633 0.0
C474 C 0.16034 0.57956 0.53709 0.0
C475 C 0.14522 0.56688 0.40692 0.0
C476 C 0.16885 0.4431 0.3974 0.0
C477 C 0.97573 0.60626 0.47098 0.0
C478 C 0.98495 0.48634 0.4706 0.0
C479 C 1.00126 0.49571 0.60037 0.0
C480 C 0.98108 0.62368 0.61174 0.0
O481 O 0.19701 0.50228 0.53407 0.0
O482 O 0.13534 0.4407 0.51941 0.0
O483 O 0.11871 0.56802 0.55247 0.0
O484 O 0.1744 0.55441 0.50105 0.0
Co485 Co 0.63398 0.97748 0.51082 0.0
Co486 Co 0.63537 0.98458 0.42016 0.0
Co487 Co 0.57235 1.03195 0.50429 0.0
O488 O 0.59176 0.98176 0.47787 0.0
H489 H 0.56633 0.95415 0.47353 0.0
O490 O 0.55216 0.0814 0.5293 0.0
Co491 Co 0.504 0.08193 0.50206 0.0
Co492 Co 0.51576 0.08333 0.59392 0.0
H493 H 0.57758 0.10912 0.52941 0.0
O494 O 0.63485 0.93486 0.37145 0.0
O495 O 0.67293 0.96762 0.4414 0.0
O496 O 0.66434 0.04092 0.40025 0.0
O497 O 0.61612 0.06849 0.44987 0.0
O498 O 0.52762 1.00073 0.454 0.0
O499 O 0.46369 0.08766 0.47617 0.0
O500 O 0.5281 0.14007 0.502 0.0
O501 O 0.47248 1.01984 0.49645 0.0
O502 O 0.5284 0.99536 0.55902 0.0
O503 O 0.4906 1.02977 0.62002 0.0
O504 O 0.47091 0.09203 0.57568 0.0
O505 O 0.51684 0.13672 0.63547 0.0
C506 C 0.63905 0.92961 0.53618 0.0
C507 C 0.65797 0.06794 0.54484 0.0
C508 C 0.65065 0.07113 0.41527 0.0
C509 C 0.66427 0.93808 0.39796 0.0
C510 C 0.49111 0.12853 0.48369 0.0
C511 C 0.4862 0.99187 0.46594 0.0
C512 C 0.49909 0.99646 0.6 0.0
C513 C 0.483 0.12718 0.61239 0.0
O514 O 0.6683 0.96966 0.54416 0.0
O515 O 0.60633 0.91921 0.51018 0.0
O516 O 0.61779 0.06408 0.55458 0.0
O517 O 0.66819 0.03748 0.51601 0.0
C518 C 0.22288 0.13402 0.30194 0.0
C519 C 0.23315 0.17882 0.32024 0.0
C520 C 0.18989 0.10217 0.33147 0.0
C521 C 0.16603 0.11404 0.38019 0.0
H522 H 0.24022 0.12354 0.26463 0.0
H523 H 0.18219 0.0681 0.3154 0.0
S524 S 0.17612 0.22666 0.43968 0.0
N525 N 0.21455 0.23273 0.38717 0.0
N526 N 0.15267 0.17416 0.44046 0.0
C527 C 0.17576 0.15878 0.39725 0.0
C528 C 0.20929 0.19078 0.36801 0.0
C529 C 1.02829 0.20206 0.358 0.0
C530 C 0.98323 0.19543 0.36764 0.0
C531 C 1.04502 0.18683 0.38886 0.0
C532 C 1.01717 0.16479 0.43032 0.0
H533 H 1.04982 0.21619 0.32414 0.0
H534 H 0.07864 0.18891 0.37724 0.0
S535 S 0.89944 0.14681 0.47772 0.0
N536 N 0.9133 0.17127 0.42647 0.0
N537 N 0.94445 0.14241 0.48368 0.0
C538 C 0.97344 0.16177 0.44323 0.0
C539 C 0.95651 0.17711 0.41206 0.0
C540 C 0.94093 0.85582 0.37259 0.0
C541 C 0.92477 0.87372 0.34435 0.0
C542 C 0.97004 0.88213 0.41056 0.0
C543 C 0.98484 0.92772 0.42176 0.0
H544 H 0.9315 0.82109 0.36493 0.0
H545 H 0.98192 0.86662 0.43026 0.0
S546 S 0.95078 0.99116 0.36148 0.0
N547 N 0.92468 0.94025 0.3325 0.0
N548 N 0.97934 0.98944 0.40277 0.0
C549 C 0.9685 0.94602 0.39433 0.0
C550 C 0.93869 0.91922 0.35595 0.0
C551 C 0.08551 0.79221 0.53837 0.0
C552 C 0.12993 0.79733 0.52434 0.0
C553 C 0.07586 0.82647 0.53506 0.0
C554 C 0.11085 0.86716 0.5268 0.0
H555 H 1.05895 0.75982 0.53601 0.0
H556 H 1.0416 0.81983 0.53456 0.0
S557 S 0.22695 0.90217 0.54791 0.0
N558 N 0.20324 0.84919 0.5471 0.0
N559 N 0.18814 0.91483 0.53865 0.0
C560 C 0.15324 0.87523 0.53564 0.0
C561 C 0.16129 0.83988 0.5403 0.0
C562 C 0.17914 0.94168 0.67855 0.0
C563 C 0.15014 0.90168 0.6937 0.0
C564 C 0.16531 0.96258 0.65274 0.0
C565 C 0.12148 0.94481 0.64054 0.0
H566 H 0.21322 0.95713 0.68669 0.0
H567 H 0.18996 0.99321 0.64196 0.0
S568 S 1.03154 0.84075 0.67361 0.0
N569 N 0.07516 0.84451 0.69538 0.0
N570 N 1.0485 0.8846 0.64747 0.0
C571 C 0.09175 0.90456 0.65554 0.0
C572 C 0.10625 0.88278 0.68171 0.0
C573 C 0.1996 0.16617 0.67596 0.0
C574 C 0.22966 0.20854 0.66903 0.0
C575 C 0.16913 0.13931 0.6399 0.0
C576 C 0.16705 0.15388 0.59579 0.0
H577 H 0.20067 0.15312 0.70831 0.0
H578 H 0.14731 0.10658 0.64653 0.0
S579 S 0.23603 0.26431 0.56359 0.0
N580 N 0.25372 0.26513 0.61715 0.0
N581 N 0.19646 0.21508 0.54998 0.0
C582 C 0.19598 0.19692 0.58982 0.0
C583 C 0.22722 0.22407 0.62624 0.0
C584 C 1.04724 0.22312 0.72866 0.0
C585 C 1.06432 0.26913 0.73557 0.0
C586 C 1.03982 0.19681 0.67887 0.0
C587 C 1.05297 0.21497 0.63311 0.0
H588 H 1.03563 0.20658 0.76217 0.0
H589 H 1.02529 0.16179 0.67603 0.0
S590 S 0.11904 0.33162 0.62527 0.0
N591 N 0.10737 0.33067 0.68959 0.0
N592 N 0.09585 0.28049 0.59518 0.0
C593 C 0.07718 0.26022 0.63785 0.0
C594 C 0.0835 0.28731 0.68896 0.0
C595 C 0.95726 0.93401 0.71218 0.0
C596 C 0.92093 0.90137 0.68703 0.0
C597 C 0.98793 0.97043 0.68944 0.0
C598 C 0.98419 0.97624 0.64008 0.0
H599 H 0.96275 0.93119 0.74959 0.0
H600 H 1.01585 0.99342 0.7101 0.0
S601 S 0.8937 0.90193 0.55869 0.0
N602 N 0.88208 0.87864 0.61047 0.0
N603 N 0.93926 0.94692 0.56818 0.0
C604 C 0.94706 0.94474 0.61533 0.0
C605 C 0.91572 0.90749 0.63855 0.0
C606 C 0.38333 0.17082 0.13038 0.0
C607 C 0.39734 0.20773 0.1711 0.0
C608 C 0.40842 0.14556 0.10858 0.0
C609 C 0.44919 0.1567 0.12551 0.0
H610 H 0.35274 0.16128 0.11509 0.0
H611 H 0.3963 0.11781 0.07733 0.0
S612 S 0.49948 0.2476 0.23381 0.0
N613 N 0.45391 0.25171 0.22975 0.0
N614 N 0.50077 0.20548 0.18793 0.0
C615 C 0.46296 0.19274 0.16695 0.0
C616 C 0.43726 0.21789 0.18979 0.0
C617 C 0.93721 0.36593 0.13471 0.0
C618 C 0.90028 0.3751 0.16018 0.0
C619 C 0.97211 0.39346 0.10348 0.0
C620 C 0.97208 0.43167 0.0953 0.0
H621 H 0.93946 0.33696 0.13873 0.0
H622 H 0.99928 0.38401 0.08463 0.0
S623 S 0.88478 0.47269 0.15553 0.0
N624 N 0.86683 0.42689 0.17784 0.0
N625 N 0.93285 0.47862 0.11755 0.0
C626 C 0.93636 0.44255 0.12205 0.0
C627 C 0.9004 0.41427 0.15471 0.0
C628 C 0.7581 0.95334 0.07185 0.0
C629 C 0.75377 0.91076 0.04946 0.0
C630 C 0.72647 0.96746 0.06865 0.0
C631 C 0.6887 0.93972 0.04299 0.0
H632 H 0.78544 0.97567 0.09381 0.0
H633 H 0.73168 1.0006 0.08747 0.0
S634 S 0.66466 0.82617 0.97253 0.0
N635 N 0.71114 0.84173 0.99676 0.0
N636 N 0.65078 0.86802 0.99133 0.0
C637 C 0.68476 0.89735 0.01854 0.0
C638 C 0.7174 0.88294 0.02175 0.0
C639 C 0.21814 0.66777 0.13566 0.0
C640 C 0.23251 0.71308 0.14158 0.0
C641 C 0.18187 0.63844 0.10916 0.0
C642 C 0.15847 0.65312 0.0872 0.0
H643 H 0.23387 0.65457 0.15339 0.0
H644 H 0.17142 0.60399 0.10732 0.0
S645 S 0.18678 0.76865 0.08522 0.0
N646 N 0.22345 0.77127 0.11874 0.0
N647 N 0.15535 0.71635 0.06854 0.0
C648 C 0.17415 0.69842 0.09012 0.0
C649 C 0.2111 0.72831 0.11738 0.0
C650 C 0.44503 0.84138 0.87226 0.0
C651 C 0.41374 0.85558 0.86625 0.0
C652 C 0.48275 0.86985 0.8973 0.0
C653 C 0.49102 0.91388 0.91726 0.0
H654 H 0.44131 0.80827 0.85599 0.0
H655 H 0.50623 0.85748 0.89955 0.0
S656 S 0.41625 0.96594 0.91872 0.0
N657 N 0.39145 0.91558 0.88757 0.0
N658 N 0.46204 0.96906 0.93403 0.0
C659 C 0.45883 0.92791 0.91389 0.0
C660 C 0.42034 0.89884 0.88869 0.0
C661 C 0.23589 0.37034 0.80142 0.0
C662 C 0.26087 0.36509 0.83269 0.0
C663 C 0.21169 0.39625 0.82217 0.0
C664 C 0.21189 0.41937 0.87502 0.0
H665 H 0.23414 0.35347 0.76053 0.0
H666 H 0.19211 0.39775 0.79639 0.0
S667 S 0.27397 0.41924 0.97332 0.0
N668 N 0.2852 0.38659 0.91949 0.0
N669 N 0.24094 0.43627 0.9578 0.0
C670 C 0.23782 0.41561 0.90646 0.0
C671 C 0.26179 0.38825 0.8856 0.0
C672 C 0.70596 0.19629 0.88017 0.0
C673 C 0.73545 0.18309 0.84008 0.0
C674 C 0.66897 0.16615 0.90651 0.0
C675 C 0.66027 0.12173 0.89447 0.0
H676 H 0.71046 0.22998 0.89023 0.0
H677 H 0.6463 0.17758 0.93579 0.0
S678 S 0.72819 0.07019 0.79606 0.0
N679 N 0.75431 0.12228 0.79167 0.0
N680 N 0.68463 0.06585 0.84229 0.0
C681 C 0.69019 0.10806 0.85643 0.0
C682 C 0.72782 0.13872 0.82892 0.0
C683 C 0.99904 0.72844 0.95868 0.0
C684 C 0.9534 0.71744 0.96166 0.0
C685 C 1.01389 0.69824 0.96357 0.0
C686 C 0.98361 0.6559 0.97075 0.0
H687 H 1.02355 0.75976 0.94976 0.0
H688 H 1.04933 0.70734 0.95891 0.0
S689 S 0.86069 0.61397 0.99207 0.0
N690 N 0.87803 0.66369 0.98089 0.0
N691 N 0.90605 0.60648 0.98813 0.0
C692 C 0.93793 0.6455 0.97742 0.0
C693 C 0.9228 0.67641 0.9734 0.0
C694 C 0.15963 0.33265 1.00317 0.0
C695 C 0.18009 0.34414 0.04882 0.0
C696 C 0.14027 0.35807 0.99433 0.0
C697 C 0.14006 0.39549 0.03127 0.0
H698 H 0.15885 0.30398 0.97397 0.0
H699 H 0.12495 0.34802 0.95864 0.0
S700 S 0.18944 0.4392 0.15733 0.0
N701 N 0.19876 0.39511 0.13134 0.0
N702 N 0.16317 0.44294 0.11496 0.0
C703 C 0.16075 0.40727 0.07692 0.0
C704 C 0.18052 0.38161 0.08563 0.0
C705 C 0.22688 0.64273 0.83117 0.0
C706 C 0.23293 0.68677 0.84311 0.0
C707 C 0.18929 0.61041 0.85495 0.0
C708 C 0.15611 0.62092 0.89079 0.0
H709 H 0.25101 0.63297 0.80268 0.0
H710 H 0.1856 0.57697 0.84419 0.0
S711 S 0.15603 0.73067 0.93783 0.0
N712 N 0.20238 0.73858 0.89576 0.0
N713 N 0.13226 0.67807 0.93889 0.0
C714 C 0.16214 0.66464 0.90395 0.0
C715 C 0.20036 0.69749 0.88057 0.0
C716 C 0.43975 0.18632 0.96456 0.0
C717 C 0.39532 0.15813 0.95747 0.0
C718 C 0.46941 0.17024 0.97056 0.0
C719 C 0.45532 0.12555 0.9692 0.0
H720 H 0.45225 0.22037 0.96232 0.0
H721 H 0.50394 0.1923 0.97292 0.0
S722 S 0.34013 0.04059 0.9629 0.0
N723 N 0.33732 0.08525 0.95764 0.0
N724 N 0.39244 0.055 0.96871 0.0
C725 C 0.41009 0.09804 0.96655 0.0
C726 C 0.38021 0.11436 0.9608 0.0
C727 C 0.94242 0.35288 0.86966 0.0
C728 C 0.9173 0.36864 0.85218 0.0
C729 C 0.98279 0.381 0.88874 0.0
C730 C 0.99923 0.42614 0.89228 0.0
H731 H 0.93126 0.31835 0.86796 0.0
H732 H 1.00067 0.3673 0.90204 0.0
S733 S 0.94672 0.48443 0.85211 0.0
N734 N 0.91233 0.43261 0.83935 0.0
N735 N 0.98767 0.48564 0.87675 0.0
C736 C 0.97441 0.44254 0.87551 0.0
C737 C 0.93357 0.41379 0.85522 0.0
C738 C 0.71497 0.85018 0.82125 0.0
C739 C 0.75795 0.86498 0.83454 0.0
C740 C 0.68767 0.87272 0.84447 0.0
C741 C 0.70178 0.91178 0.88193 0.0
H742 H 0.70174 0.8204 0.79286 0.0
H743 H 0.65481 0.859 0.83295 0.0
S744 S 0.81125 0.96546 0.93113 0.0
N745 N 0.81316 0.9219 0.88853 0.0
N746 N 0.76222 0.96449 0.93108 0.0
C747 C 0.7449 0.92756 0.89517 0.0
C748 C 0.77271 0.90418 0.87194 0.0
C749 C 0.95074 0.74099 0.15019 0.0
C750 C 0.90435 0.71976 0.16394 0.0
C751 C 0.97746 0.71747 0.12835 0.0
C752 C 0.95915 0.67145 0.11843 0.0
H753 H 0.96684 0.77621 0.1574 0.0
H754 H 1.01295 0.73572 0.11908 0.0
S755 S 0.83905 0.59969 0.14356 0.0
N756 N 0.8411 0.6494 0.16349 0.0
N757 N 0.89094 0.60572 0.1222 0.0
C758 C 0.91266 0.6498 0.13056 0.0
C759 C 0.88548 0.67372 0.15332 0.0
C760 C 0.43164 0.92355 0.19879 0.0
C761 C 0.40066 0.8864 0.17062 0.0
C762 C 0.47049 0.95195 0.17191 0.0
C763 C 0.47883 0.94495 0.11602 0.0
H764 H 0.42725 0.9292 0.24184 0.0
H765 H 0.49477 0.97884 0.19495 0.0
S766 S 0.40652 0.8541 0.02414 0.0
N767 N 0.38013 0.84497 0.08401 0.0
N768 N 0.45189 0.89936 0.03367 0.0
C769 C 0.44689 0.90925 0.08757 0.0
C770 C 0.4081 0.87968 0.11484 0.0
C771 C 0.71118 0.16172 0.13788 0.0
C772 C 0.72733 0.20712 0.14309 0.0
C773 C 0.67428 0.13325 0.11154 0.0
C774 C 0.65175 0.14879 0.08907 0.0
H775 H 0.72605 0.14792 0.15598 0.0
H776 H 0.66277 0.09868 0.11 0.0
S777 S 0.68387 0.26482 0.08647 0.0
N778 N 0.72014 0.26622 0.11957 0.0
N779 N 0.65097 0.21289 0.07029 0.0
C780 C 0.66887 0.19408 0.0918 0.0
C781 C 0.70651 0.22312 0.11869 0.0
C782 C 0.73818 0.68085 0.88661 0.0
C783 C 0.74764 0.67581 0.83056 0.0
C784 C 0.70863 0.6456 0.91233 0.0
C785 C 0.68706 0.60357 0.88338 0.0
H786 H 0.75266 0.71263 0.91108 0.0
H787 H 0.70123 0.65176 0.95517 0.0
S788 S 0.70529 0.57117 0.73612 0.0
N789 N 0.73632 0.62398 0.74734 0.0
N790 N 0.68157 0.55821 0.79516 0.0
C791 C 0.69854 0.59756 0.82744 0.0
C792 C 0.72839 0.63343 0.80126 0.0
C793 C 0.55592 0.68174 0.80883 0.0
C794 C 0.51749 0.65984 0.78369 0.0
C795 C 0.57076 0.6589 0.83108 0.0
C796 C 0.54719 0.61363 0.82947 0.0
H797 H 0.57422 0.71663 0.81175 0.0
H798 H 0.60008 0.67693 0.85089 0.0
S799 S 0.44332 0.54244 0.76899 0.0
N800 N 0.45609 0.59139 0.75867 0.0
N801 N 0.48278 0.54837 0.80042 0.0
C802 C 0.50884 0.5917 0.80366 0.0
C803 C 0.49419 0.61488 0.78102 0.0
C804 C 0.46976 0.40922 0.84637 0.0
C805 C 0.44183 0.36573 0.85095 0.0
C806 C 0.50104 0.43593 0.88141 0.0
C807 C 0.50576 0.42077 0.92331 0.0
H808 H 0.46752 0.42297 0.81544 0.0
H809 H 0.52148 0.46909 0.87563 0.0
S810 S 0.44081 0.3094 0.9533 0.0
N811 N 0.42121 0.30852 0.90121 0.0
N812 N 0.47968 0.35901 0.96697 0.0
C813 C 0.47811 0.37734 0.92848 0.0
C814 C 0.44636 0.34984 0.89242 0.0
C815 C 0.70583 0.38694 0.04512 0.0
C816 C 0.67948 0.34267 0.02762 0.0
C817 C 0.68579 0.41627 0.06275 0.0
C818 C 0.63944 0.40063 0.06684 0.0
H819 H 0.74152 0.40023 0.03332 0.0
H820 H 0.70675 0.45072 0.06524 0.0
S821 S 0.55851 0.28579 0.06522 0.0
N822 N 0.60741 0.28356 0.04384 0.0
N823 N 0.56867 0.33804 0.07905 0.0
C824 C 0.61372 0.35604 0.06767 0.0
C825 C 0.63453 0.3267 0.04939 0.0
C826 C 0.66035 0.45349 0.20361 0.0
C827 C 0.631 0.41196 0.2143 0.0
C828 C 0.64596 0.47833 0.18534 0.0
C829 C 0.60179 0.46231 0.17587 0.0
H830 H 0.69485 0.46702 0.20961 0.0
H831 H 0.67025 0.50986 0.17679 0.0
S832 S 0.51111 0.35624 0.20003 0.0
N833 N 0.55512 0.35645 0.21679 0.0
N834 N 0.52825 0.40294 0.18023 0.0
C835 C 0.57176 0.42101 0.18696 0.0
C836 C 0.5863 0.39591 0.20684 0.0
C837 C 0.71974 0.71931 0.10351 0.0
C838 C 0.7147 0.71227 0.1557 0.0
C839 C 0.68586 0.69526 0.07077 0.0
C840 C 0.64554 0.66228 0.08814 0.0
H841 H 0.75044 0.74342 0.08724 0.0
H842 H 0.69196 0.70179 0.03108 0.0
S843 S 0.61306 0.63379 0.22316 0.0
N844 N 0.66415 0.67199 0.22421 0.0
N845 N 0.60109 0.62693 0.16338 0.0
C846 C 0.63936 0.65624 0.14104 0.0
C847 C 0.67365 0.68099 0.17447 0.0
C848 C 0.42455 0.65655 0.92747 0.0
C849 C 0.4353 0.69939 0.95579 0.0
C850 C 0.455 0.63825 0.92148 0.0
C851 C 0.49765 0.66471 0.93659 0.0
H852 H 0.39004 0.63464 0.9246 0.0
H853 H 0.44335 0.60318 0.91134 0.0
S854 S 0.54958 0.78507 0.95671 0.0
N855 N 0.49605 0.77145 0.95891 0.0
N856 N 0.55521 0.73891 0.94623 0.0
C857 C 0.51237 0.70993 0.9429 0.0
C858 C 0.48064 0.7274 0.94938 0.0
C859 C 0.41711 0.39868 0.11887 0.0
C860 C 0.40858 0.40192 0.17471 0.0
C861 C 0.44611 0.43501 0.09469 0.0
C862 C 0.4678 0.47643 0.12517 0.0
H863 H 0.40239 0.36748 0.09338 0.0
H864 H 0.45281 0.43005 0.0517 0.0
S865 S 0.45205 0.5039 0.27305 0.0
N866 N 0.42115 0.45117 0.25964 0.0
N867 N 0.47462 0.51897 0.21486 0.0
C868 C 0.45734 0.48052 0.1811 0.0
C869 C 0.42824 0.44353 0.2056 0.0
C870 C 0.89512 0.67359 0.63501 0.0
C871 C 0.9062 0.70647 0.6807 0.0
C872 C 0.91889 0.64689 0.61304 0.0
C873 C 0.95547 0.65212 0.63506 0.0
H874 H 0.86736 0.66789 0.61636 0.0
H875 H 0.90849 0.62201 0.57837 0.0
S876 S 0.99983 0.73503 0.75338 0.0
N877 N 0.95753 0.74317 0.74599 0.0
N878 N 1.00191 0.69444 0.7052 0.0
C879 C 0.96726 0.68552 0.68024 0.0
C880 C 0.94285 0.71217 0.70278 0.0
C881 C 0.39775 0.90989 0.66398 0.0
C882 C 0.41279 0.87857 0.66479 0.0
C883 C 0.42615 0.94792 0.64369 0.0
C884 C 0.47076 0.95613 0.62239 0.0
H885 H 0.36384 0.90552 0.68009 0.0
H886 H 0.41275 0.9709 0.64416 0.0
S887 S 0.52685 0.8845 0.61428 0.0
N888 N 0.47558 0.85845 0.6423 0.0
N889 N 0.52866 0.92956 0.603 0.0
C890 C 0.48623 0.92489 0.62214 0.0
C891 C 0.4574 0.88633 0.64371 0.0
C892 C 0.2487 0.44849 0.60992 0.0
C893 C 0.25142 0.40912 0.58246 0.0
C894 C 0.2214 0.46355 0.59653 0.0
C895 C 0.19498 0.43968 0.55563 0.0
H896 H 0.26916 0.46882 0.64088 0.0
H897 H 0.222 0.49496 0.61748 0.0
S898 S 0.18779 0.33374 0.47295 0.0
N899 N 0.22382 0.34566 0.51329 0.0
N900 N 0.17176 0.37404 0.48891 0.0
C901 C 0.19578 0.39947 0.52913 0.0
C902 C 0.22434 0.3843 0.54214 0.0
C903 C 0.71755 0.18138 0.6218 0.0
C904 C 0.75823 0.18189 0.62673 0.0
C905 C 0.68581 0.1449 0.59431 0.0
C906 C 0.69345 0.10741 0.57021 0.0
H907 H 0.70921 0.2088 0.64098 0.0
H908 H 0.65468 0.14586 0.5929 0.0
S909 S 0.79594 0.0929 0.56753 0.0
N910 N 0.80542 0.14231 0.60203 0.0
N911 N 0.74607 0.07394 0.55027 0.0
C912 C 0.73492 0.1082 0.57244 0.0
C913 C 0.76722 0.14536 0.6006 0.0
C914 C 0.9347 0.38494 0.36842 0.0
C915 C 0.88912 0.37636 0.37778 0.0
C916 C 0.96503 0.41965 0.39953 0.0
C917 C 0.95124 0.4474 0.4416 0.0
H918 H 0.94757 0.36537 0.33583 0.0
H919 H 0.99978 0.42524 0.38959 0.0
S920 S 0.8349 0.43677 0.48626 0.0
N921 N 0.83123 0.39689 0.43471 0.0
N922 N 0.88805 0.46193 0.49352 0.0
C923 C 0.90541 0.43806 0.45309 0.0
C924 C 0.87445 0.40265 0.42117 0.0
C925 C 0.71482 0.86419 0.29723 0.0
C926 C 0.74232 0.85954 0.32544 0.0
C927 C 0.68954 0.8888 0.3213 0.0
C928 C 0.69122 0.91121 0.37457 0.0
H929 H 0.71249 0.84833 0.25603 0.0
H930 H 0.66894 0.89075 0.29731 0.0
S931 S 0.75984 0.91152 0.46558 0.0
N932 N 0.76994 0.87988 0.40992 0.0
N933 N 0.72456 0.92776 0.45412 0.0
C934 C 0.71919 0.90735 0.40307 0.0
C935 C 0.74404 0.88118 0.37889 0.0
C936 C 0.24936 0.656 0.35086 0.0
C937 C 0.23371 0.68497 0.3438 0.0
C938 C 0.22028 0.61786 0.37077 0.0
C939 C 0.17437 0.60733 0.38537 0.0
H940 H 0.28425 0.66227 0.33999 0.0
H941 H 0.23406 0.59657 0.37525 0.0
S942 S 0.11592 0.67199 0.37585 0.0
N943 N 0.16838 0.69984 0.3531 0.0
N944 N 0.11465 0.62914 0.39253 0.0
C945 C 0.15828 0.63631 0.37987 0.0
C946 C 0.18766 0.67477 0.35851 0.0
C947 C 0.5001 0.23065 0.44632 0.0
C948 C 0.45539 0.22147 0.44573 0.0
C949 C 0.51161 0.20115 0.46023 0.0
C950 C 0.47881 0.16132 0.47349 0.0
H951 H 0.52641 0.26015 0.43435 0.0
H952 H 0.54642 0.20904 0.45903 0.0
S953 S 0.35665 0.12586 0.48717 0.0
N954 N 0.37811 0.17262 0.46632 0.0
N955 N 0.39945 0.11712 0.49163 0.0
C956 C 0.43391 0.15307 0.47586 0.0
C957 C 0.42229 0.18312 0.46213 0.0
C958 C 0.65454 0.82817 0.53409 0.0
C959 C 0.67472 0.83996 0.58007 0.0
C960 C 0.64 0.85601 0.52149 0.0
C961 C 0.64556 0.89656 0.55432 0.0
H962 H 0.65193 0.7983 0.50643 0.0
H963 H 0.62692 0.84697 0.48434 0.0
S964 S 0.68897 0.93893 0.68371 0.0
N965 N 0.69353 0.89206 0.662 0.0
N966 N 0.66748 0.94459 0.63769 0.0
C967 C 0.66297 0.90727 0.60196 0.0
C968 C 0.67725 0.87893 0.61499 0.0
C969 C 0.7497 0.16338 0.35781 0.0
C970 C 0.73119 0.19075 0.35257 0.0
C971 C 0.72328 0.12475 0.37761 0.0
C972 C 0.67728 0.11203 0.39378 0.0
H973 H 0.78482 0.17122 0.34542 0.0
H974 H 0.73924 0.10484 0.38058 0.0
S975 S 0.61236 0.17241 0.38949 0.0
N976 N 0.6638 0.20251 0.36591 0.0
N977 N 0.61434 0.13024 0.40396 0.0
C978 C 0.65837 0.13943 0.3898 0.0
C979 C 0.68523 0.17861 0.36895 0.0
C980 C 0.92665 0.68305 0.46456 0.0
C981 C 0.90168 0.66 0.42187 0.0
C982 C 0.95397 0.66766 0.47817 0.0
C983 C 0.95695 0.62866 0.44964 0.0
H984 H 0.92353 0.71208 0.48904 0.0
H985 H 0.97061 0.68491 0.513 0.0
S986 S 0.90496 0.56052 0.32917 0.0
N987 N 0.88716 0.59966 0.34691 0.0
N988 N 0.93706 0.57029 0.37336 0.0
C989 C 0.93455 0.60706 0.40498 0.0
C990 C 0.90725 0.62279 0.3909 0.0
C991 C 0.37964 0.9054 0.4129 0.0
C992 C 0.39351 0.87372 0.37913 0.0
C993 C 0.40926 0.94275 0.44235 0.0
C994 C 0.45396 0.94992 0.43921 0.0
H995 H 0.34623 0.90247 0.41476 0.0
H996 H 0.39735 0.96688 0.46616 0.0
S997 S 0.50496 0.87341 0.3627 0.0
N998 N 0.45348 0.84957 0.349 0.0
N999 N 0.50903 0.91941 0.40365 0.0
C1000 C 0.46736 0.91704 0.40807 0.0
C1001 C 0.43721 0.87909 0.37826 0.0
C1002 C 0.21047 0.35804 0.30844 0.0
C1003 C 0.25021 0.36735 0.32654 0.0
C1004 C 0.18486 0.38237 0.33185 0.0
C1005 C 0.19755 0.41789 0.37452 0.0
H1006 H 0.19867 0.33144 0.27573 0.0
H1007 H 0.1547 0.37312 0.31577 0.0
S1008 S 0.29864 0.45639 0.43794 0.0
N1009 N 0.30062 0.41486 0.39119 0.0
N1010 N 0.25329 0.46099 0.43381 0.0
C1011 C 0.2373 0.42778 0.39311 0.0
C1012 C 0.26324 0.40252 0.36964 0.0
C1013 C 0.45603 0.2274 0.67174 0.0
C1014 C 0.40934 0.21047 0.67628 0.0
C1015 C 0.47931 0.20043 0.65039 0.0
C1016 C 0.45728 0.15538 0.63094 0.0
H1017 H 0.47471 0.26156 0.68661 0.0
H1018 H 0.51506 0.21507 0.64944 0.0
S1019 S 0.33543 0.09526 0.62968 0.0
N1020 N 0.34208 0.14568 0.65741 0.0
N1021 N 0.38572 0.0958 0.61557 0.0
C1022 C 0.41076 0.13843 0.63314 0.0
C1023 C 0.38692 0.16565 0.65626 0.0
C1024 C 0.8999 0.40609 0.6593 0.0
C1025 C 0.91545 0.37522 0.6605 0.0
C1026 C 0.92824 0.44498 0.64096 0.0
C1027 C 0.97349 0.45481 0.62202 0.0
H1028 H 0.86552 0.40075 0.67369 0.0
H1029 H 0.91418 0.46731 0.64092 0.0
S1030 S 1.03137 0.38505 0.61562 0.0
N1031 N 0.97961 0.35737 0.64103 0.0
N1032 N 1.03264 0.43008 0.60492 0.0
C1033 C 0.98961 0.42409 0.6221 0.0
C1034 C 0.96075 0.38455 0.64184 0.0
C1035 C 0.20566 0.68149 0.64019 0.0
C1036 C 0.252 0.69417 0.62888 0.0
C1037 C 0.17657 0.64545 0.60911 0.0
C1038 C 0.19244 0.62045 0.56522 0.0
H1039 H 0.19133 0.69846 0.67461 0.0
H1040 H 0.14119 0.63642 0.62083 0.0
S1041 S 0.31116 0.64362 0.51356 0.0
N1042 N 0.31269 0.68152 0.56703 0.0
N1043 N 0.25797 0.61385 0.50843 0.0
C1044 C 0.23884 0.63435 0.55129 0.0
C1045 C 0.26858 0.67115 0.58311 0.0
loop_
_geom_bond_atom_site_label_1
_geom_bond_atom_site_label_2
_geom_bond_distance
_geom_bond_site_symmetry_2
_ccdc_geom_bond_type
Eu0 C9 2.828 . S
Eu0 O11 2.392 . S
Eu0 O13 2.418 . S
Eu0 O18 2.373 . S
Eu0 O21 2.488 . S
Eu0 O22 2.471 . S
Eu0 O23 2.349 . S
Eu1 O10 2.373 . S
Eu1 O14 2.488 . S
Eu1 O15 2.471 . S
Eu1 O16 2.349 . S
Eu1 O19 2.392 . S
Eu1 O20 2.418 . S
Eu1 C30 2.828 . S
C2 O20 1.244 . S
C2 O23 1.265 . S
C3 C4 1.379 . S
C3 C7 1.373 . S
C3 C9 1.505 . S
C4 C3 1.379 . S
C4 C6 1.369 . S
C4 H32 0.930 . S
C5 C7 1.383 . S
C5 C8 1.382 . S
C5 H33 0.930 . S
C6 C4 1.369 . S
C6 C8 1.392 . S
C6 H34 0.930 . S
C7 C3 1.373 . S
C7 C5 1.383 . S
C7 H35 0.931 . S
C8 C5 1.382 . S
C8 C6 1.392 . S
C9 Eu0 2.828 . S
C9 C3 1.505 . S
C9 O21 1.249 . S
C9 O22 1.244 . S
O10 Eu1 2.373 . S
O10 C12 1.258 . S
O11 Eu0 2.392 . S
O11 C12 1.242 . S
C12 O10 1.258 . S
C12 O11 1.242 . S
O13 Eu0 2.418 . S
O13 C17 1.244 . S
O14 Eu1 2.488 . S
O14 C30 1.249 . S
O15 Eu1 2.471 . S
O15 C30 1.244 . S
O16 Eu1 2.349 . S
O16 C17 1.265 . S
C17 O13 1.244 . S
C17 O16 1.265 . S
O18 Eu0 2.373 . S
O18 C31 1.258 . S
O19 Eu1 2.392 . S
O19 C31 1.242 . S
O20 Eu1 2.418 . S
O20 C2 1.244 . S
O21 Eu0 2.488 . S
O21 C9 1.249 . S
O22 Eu0 2.471 . S
O22 C9 1.244 . S
O23 Eu0 2.349 . S
O23 C2 1.265 . S
C24 C25 1.379 . S
C24 C28 1.373 . S
C24 C30 1.505 . S
C25 C24 1.379 . S
C25 C27 1.369 . S
C25 H36 0.930 . S
C26 C28 1.383 . S
C26 C29 1.382 . S
C26 H37 0.930 . S
C27 C25 1.369 . S
C27 C29 1.392 . S
C27 H38 0.930 . S
C28 C24 1.373 . S
C28 C26 1.383 . S
C28 H39 0.931 . S
C29 C26 1.382 . S
C29 C27 1.392 . S
C30 Eu1 2.828 . S
C30 O14 1.249 . S
C30 O15 1.244 . S
C30 C24 1.505 . S
C31 O18 1.258 . S
C31 O19 1.242 . S
H32 C4 0.930 . S
H33 C5 0.930 . S
H34 C6 0.930 . S
H35 C7 0.931 . S
H36 C25 0.930 . S
H37 C26 0.930 . S
H38 C27 0.930 . S
H39 C28 0.931 . S
Eu40 C49 2.828 . S
Eu40 O51 2.392 . S
Eu40 O53 2.418 . S
Eu40 O58 2.373 . S
Eu40 O61 2.488 . S
Eu40 O62 2.471 . S
Eu40 O63 2.349 . S
Eu41 O50 2.373 . S
Eu41 O54 2.488 . S
Eu41 O55 2.471 . S
Eu41 O56 2.349 . S
Eu41 O59 2.392 . S
Eu41 O60 2.418 . S
Eu41 C70 2.828 . S
C42 O60 1.244 . S
C42 O63 1.265 . S
C43 C44 1.379 . S
C43 C47 1.373 . S
C43 C49 1.505 . S
C44 C43 1.379 . S
C44 C46 1.369 . S
C44 H72 0.930 . S
C45 C47 1.383 . S
C45 C48 1.382 . S
C45 H73 0.930 . S
C46 C44 1.369 . S
C46 C48 1.392 . S
C46 H74 0.930 . S
C47 C43 1.373 . S
C47 C45 1.383 . S
C47 H75 0.931 . S
C48 C45 1.382 . S
C48 C46 1.392 . S
C49 Eu40 2.828 . S
C49 C43 1.505 . S
C49 O61 1.249 . S
C49 O62 1.244 . S
O50 Eu41 2.373 . S
O50 C52 1.258 . S
O51 Eu40 2.392 . S
O51 C52 1.242 . S
C52 O50 1.258 . S
C52 O51 1.242 . S
O53 Eu40 2.418 . S
O53 C57 1.244 . S
O54 Eu41 2.488 . S
O54 C70 1.249 . S
O55 Eu41 2.471 . S
O55 C70 1.244 . S
O56 Eu41 2.349 . S
O56 C57 1.265 . S
C57 O53 1.244 . S
C57 O56 1.265 . S
O58 Eu40 2.373 . S
O58 C71 1.258 . S
O59 Eu41 2.392 . S
O59 C71 1.242 . S
O60 Eu41 2.418 . S
O60 C42 1.244 . S
O61 Eu40 2.488 . S
O61 C49 1.249 . S
O62 Eu40 2.471 . S
O62 C49 1.244 . S
O63 Eu40 2.349 . S
O63 C42 1.265 . S
C64 C65 1.379 . S
C64 C68 1.373 . S
C64 C70 1.505 . S
C65 C64 1.379 . S
C65 C67 1.369 . S
C65 H76 0.930 . S
C66 C68 1.383 . S
C66 C69 1.382 . S
C66 H77 0.930 . S
C67 C65 1.369 . S
C67 C69 1.392 . S
C67 H78 0.930 . S
C68 C64 1.373 . S
C68 C66 1.383 . S
C68 H79 0.931 . S
C69 C66 1.382 . S
C69 C67 1.392 . S
C70 Eu41 2.828 . S
C70 O54 1.249 . S
C70 O55 1.244 . S
C70 C64 1.505 . S
C71 O58 1.258 . S
C71 O59 1.242 . S
H72 C44 0.930 . S
H73 C45 0.930 . S
H74 C46 0.930 . S
H75 C47 0.931 . S
H76 C65 0.930 . S
H77 C66 0.930 . S
H78 C67 0.930 . S
H79 C68 0.931 . S
Eu80 C89 2.828 . S
Eu80 O91 2.392 . S
Eu80 O93 2.418 . S
Eu80 O98 2.373 . S
Eu80 O101 2.488 . S
Eu80 O102 2.471 . S
Eu80 O103 2.349 . S
Eu81 O90 2.373 . S
Eu81 O94 2.488 . S
Eu81 O95 2.471 . S
Eu81 O96 2.349 . S
Eu81 O99 2.392 . S
Eu81 O100 2.418 . S
Eu81 C110 2.828 . S
C82 O100 1.244 . S
C82 O103 1.265 . S
C83 C84 1.379 . S
C83 C87 1.373 . S
C83 C89 1.505 . S
C84 C83 1.379 . S
C84 C86 1.369 . S
C84 H112 0.930 . S
C85 C87 1.383 . S
C85 C88 1.382 . S
C85 H113 0.930 . S
C86 C84 1.369 . S
C86 C88 1.392 . S
C86 H114 0.930 . S
C87 C83 1.373 . S
C87 C85 1.383 . S
C87 H115 0.931 . S
C88 C85 1.382 . S
C88 C86 1.392 . S
C89 Eu80 2.828 . S
C89 C83 1.505 . S
C89 O101 1.249 . S
C89 O102 1.244 . S
O90 Eu81 2.373 . S
O90 C92 1.258 . S
O91 Eu80 2.392 . S
O91 C92 1.242 . S
C92 O90 1.258 . S
C92 O91 1.242 . S
O93 Eu80 2.418 . S
O93 C97 1.244 . S
O94 Eu81 2.488 . S
O94 C110 1.249 . S
O95 Eu81 2.471 . S
O95 C110 1.244 . S
O96 Eu81 2.349 . S
O96 C97 1.265 . S
C97 O93 1.244 . S
C97 O96 1.265 . S
O98 Eu80 2.373 . S
O98 C111 1.258 . S
O99 Eu81 2.392 . S
O99 C111 1.242 . S
O100 Eu81 2.418 . S
O100 C82 1.244 . S
O101 Eu80 2.488 . S
O101 C89 1.249 . S
O102 Eu80 2.471 . S
O102 C89 1.244 . S
O103 Eu80 2.349 . S
O103 C82 1.265 . S
C104 C105 1.379 . S
C104 C108 1.373 . S
C104 C110 1.505 . S
C105 C104 1.379 . S
C105 C107 1.369 . S
C105 H116 0.930 . S
C106 C108 1.383 . S
C106 C109 1.382 . S
C106 H117 0.930 . S
C107 C105 1.369 . S
C107 C109 1.392 . S
C107 H118 0.930 . S
C108 C104 1.373 . S
C108 C106 1.383 . S
C108 H119 0.931 . S
C109 C106 1.382 . S
C109 C107 1.392 . S
C110 Eu81 2.828 . S
C110 O94 1.249 . S
C110 O95 1.244 . S
C110 C104 1.505 . S
C111 O98 1.258 . S
C111 O99 1.242 . S
H112 C84 0.930 . S
H113 C85 0.930 . S
H114 C86 0.930 . S
H115 C87 0.931 . S
H116 C105 0.930 . S
H117 C106 0.930 . S
H118 C107 0.930 . S
H119 C108 0.931 . S
Eu120 C129 2.828 . S
Eu120 O131 2.392 . S
Eu120 O133 2.418 . S
Eu120 O138 2.373 . S
Eu120 O141 2.488 . S
Eu120 O142 2.471 . S
Eu120 O143 2.349 . S
Eu121 O130 2.373 . S
Eu121 O134 2.488 . S
Eu121 O135 2.471 . S
Eu121 O136 2.349 . S
Eu121 O139 2.392 . S
Eu121 O140 2.418 . S
Eu121 C150 2.828 . S
C122 O140 1.244 . S
C122 O143 1.265 . S
C123 C124 1.379 . S
C123 C127 1.373 . S
C123 C129 1.505 . S
C124 C123 1.379 . S
C124 C126 1.369 . S
C124 H152 0.930 . S
C125 C127 1.383 . S
C125 C128 1.382 . S
C125 H153 0.930 . S
C126 C124 1.369 . S
C126 C128 1.392 . S
C126 H154 0.930 . S
C127 C123 1.373 . S
C127 C125 1.383 . S
C127 H155 0.931 . S
C128 C125 1.382 . S
C128 C126 1.392 . S
C129 Eu120 2.828 . S
C129 C123 1.505 . S
C129 O141 1.249 . S
C129 O142 1.244 . S
O130 Eu121 2.373 . S
O130 C132 1.258 . S
O131 Eu120 2.392 . S
O131 C132 1.242 . S
C132 O130 1.258 . S
C132 O131 1.242 . S
O133 Eu120 2.418 . S
O133 C137 1.244 . S
O134 Eu121 2.488 . S
O134 C150 1.249 . S
O135 Eu121 2.471 . S
O135 C150 1.244 . S
O136 Eu121 2.349 . S
O136 C137 1.265 . S
C137 O133 1.244 . S
C137 O136 1.265 . S
O138 Eu120 2.373 . S
O138 C151 1.258 . S
O139 Eu121 2.392 . S
O139 C151 1.242 . S
O140 Eu121 2.418 . S
O140 C122 1.244 . S
O141 Eu120 2.488 . S
O141 C129 1.249 . S
O142 Eu120 2.471 . S
O142 C129 1.244 . S
O143 Eu120 2.349 . S
O143 C122 1.265 . S
C144 C145 1.379 . S
C144 C148 1.373 . S
C144 C150 1.505 . S
C145 C144 1.379 . S
C145 C147 1.369 . S
C145 H156 0.930 . S
C146 C148 1.383 . S
C146 C149 1.382 . S
C146 H157 0.930 . S
C147 C145 1.369 . S
C147 C149 1.392 . S
C147 H158 0.930 . S
C148 C144 1.373 . S
C148 C146 1.383 . S
C148 H159 0.931 . S
C149 C146 1.382 . S
C149 C147 1.392 . S
C150 Eu121 2.828 . S
C150 O134 1.249 . S
C150 O135 1.244 . S
C150 C144 1.505 . S
C151 O138 1.258 . S
C151 O139 1.242 . S
H152 C124 0.930 . S
H153 C125 0.930 . S
H154 C126 0.930 . S
H155 C127 0.931 . S
H156 C145 0.930 . S
H157 C146 0.930 . S
H158 C147 0.930 . S
H159 C148 0.931 . S
Eu160 C169 2.828 . S
Eu160 O171 2.392 . S
Eu160 O173 2.418 . S
Eu160 O178 2.373 . S
Eu160 O181 2.488 . S
Eu160 O182 2.471 . S
Eu160 O183 2.349 . S
Eu161 O170 2.373 . S
Eu161 O174 2.488 . S
Eu161 O175 2.471 . S
Eu161 O176 2.349 . S
Eu161 O179 2.392 . S
Eu161 O180 2.418 . S
Eu161 C190 2.828 . S
C162 O180 1.244 . S
C162 O183 1.265 . S
C163 C164 1.379 . S
C163 C167 1.373 . S
C163 C169 1.505 . S
C164 C163 1.379 . S
C164 C166 1.369 . S
C164 H192 0.930 . S
C165 C167 1.383 . S
C165 C168 1.382 . S
C165 H193 0.930 . S
C166 C164 1.369 . S
C166 C168 1.392 . S
C166 H194 0.930 . S
C167 C163 1.373 . S
C167 C165 1.383 . S
C167 H195 0.931 . S
C168 C165 1.382 . S
C168 C166 1.392 . S
C169 Eu160 2.828 . S
C169 C163 1.505 . S
C169 O181 1.249 . S
C169 O182 1.244 . S
O170 Eu161 2.373 . S
O170 C172 1.258 . S
O171 Eu160 2.392 . S
O171 C172 1.242 . S
C172 O170 1.258 . S
C172 O171 1.242 . S
O173 Eu160 2.418 . S
O173 C177 1.244 . S
O174 Eu161 2.488 . S
O174 C190 1.249 . S
O175 Eu161 2.471 . S
O175 C190 1.244 . S
O176 Eu161 2.349 . S
O176 C177 1.265 . S
C177 O173 1.244 . S
C177 O176 1.265 . S
O178 Eu160 2.373 . S
O178 C191 1.258 . S
O179 Eu161 2.392 . S
O179 C191 1.242 . S
O180 Eu161 2.418 . S
O180 C162 1.244 . S
O181 Eu160 2.488 . S
O181 C169 1.249 . S
O182 Eu160 2.471 . S
O182 C169 1.244 . S
O183 Eu160 2.349 . S
O183 C162 1.265 . S
C184 C185 1.379 . S
C184 C188 1.373 . S
C184 C190 1.505 . S
C185 C184 1.379 . S
C185 C187 1.369 . S
C185 H196 0.930 . S
C186 C188 1.383 . S
C186 C189 1.382 . S
C186 H197 0.930 . S
C187 C185 1.369 . S
C187 C189 1.392 . S
C187 H198 0.930 . S
C188 C184 1.373 . S
C188 C186 1.383 . S
C188 H199 0.931 . S
C189 C186 1.382 . S
C189 C187 1.392 . S
C190 Eu161 2.828 . S
C190 O174 1.249 . S
C190 O175 1.244 . S
C190 C184 1.505 . S
C191 O178 1.258 . S
C191 O179 1.242 . S
H192 C164 0.930 . S
H193 C165 0.930 . S
H194 C166 0.930 . S
H195 C167 0.931 . S
H196 C185 0.930 . S
H197 C186 0.930 . S
H198 C187 0.930 . S
H199 C188 0.931 . S
Eu200 C209 2.828 . S
Eu200 O211 2.392 . S
Eu200 O213 2.418 . S
Eu200 O218 2.373 . S
Eu200 O221 2.488 . S
Eu200 O222 2.471 . S
Eu200 O223 2.349 . S
Eu201 O210 2.373 . S
Eu201 O214 2.488 . S
Eu201 O215 2.471 . S
Eu201 O216 2.349 . S
Eu201 O219 2.392 . S
Eu201 O220 2.418 . S
Eu201 C230 2.828 . S
C202 O220 1.244 . S
C202 O223 1.265 . S
C203 C204 1.379 . S
C203 C207 1.373 . S
C203 C209 1.505 . S
C204 C203 1.379 . S
C204 C206 1.369 . S
C204 H232 0.930 . S
C205 C207 1.383 . S
C205 C208 1.382 . S
C205 H233 0.930 . S
C206 C204 1.369 . S
C206 C208 1.392 . S
C206 H234 0.930 . S
C207 C203 1.373 . S
C207 C205 1.383 . S
C207 H235 0.931 . S
C208 C205 1.382 . S
C208 C206 1.392 . S
C209 Eu200 2.828 . S
C209 C203 1.505 . S
C209 O221 1.249 . S
C209 O222 1.244 . S
O210 Eu201 2.373 . S
O210 C212 1.258 . S
O211 Eu200 2.392 . S
O211 C212 1.242 . S
C212 O210 1.258 . S
C212 O211 1.242 . S
O213 Eu200 2.418 . S
O213 C217 1.244 . S
O214 Eu201 2.488 . S
O214 C230 1.249 . S
O215 Eu201 2.471 . S
O215 C230 1.244 . S
O216 Eu201 2.349 . S
O216 C217 1.265 . S
C217 O213 1.244 . S
C217 O216 1.265 . S
O218 Eu200 2.373 . S
O218 C231 1.258 . S
O219 Eu201 2.392 . S
O219 C231 1.242 . S
O220 Eu201 2.418 . S
O220 C202 1.244 . S
O221 Eu200 2.488 . S
O221 C209 1.249 . S
O222 Eu200 2.471 . S
O222 C209 1.244 . S
O223 Eu200 2.349 . S
O223 C202 1.265 . S
C224 C225 1.379 . S
C224 C228 1.373 . S
C224 C230 1.505 . S
C225 C224 1.379 . S
C225 C227 1.369 . S
C225 H236 0.930 . S
C226 C228 1.383 . S
C226 C229 1.382 . S
C226 H237 0.930 . S
C227 C225 1.369 . S
C227 C229 1.392 . S
C227 H238 0.930 . S
C228 C224 1.373 . S
C228 C226 1.383 . S
C228 H239 0.931 . S
C229 C226 1.382 . S
C229 C227 1.392 . S
C230 Eu201 2.828 . S
C230 O214 1.249 . S
C230 O215 1.244 . S
C230 C224 1.505 . S
C231 O218 1.258 . S
C231 O219 1.242 . S
H232 C204 0.930 . S
H233 C205 0.930 . S
H234 C206 0.930 . S
H235 C207 0.931 . S
H236 C225 0.930 . S
H237 C226 0.930 . S
H238 C227 0.930 . S
H239 C228 0.931 . S
Eu240 C249 2.828 . S
Eu240 O251 2.392 . S
Eu240 O253 2.418 . S
Eu240 O258 2.373 . S
Eu240 O261 2.488 . S
Eu240 O262 2.471 . S
Eu240 O263 2.349 . S
Eu241 O250 2.373 . S
Eu241 O254 2.488 . S
Eu241 O255 2.471 . S
Eu241 O256 2.349 . S
Eu241 O259 2.392 . S
Eu241 O260 2.418 . S
Eu241 C270 2.828 . S
C242 O260 1.244 . S
C242 O263 1.265 . S
C243 C244 1.379 . S
C243 C247 1.373 . S
C243 C249 1.505 . S
C244 C243 1.379 . S
C244 C246 1.369 . S
C244 H272 0.930 . S
C245 C247 1.383 . S
C245 C248 1.382 . S
C245 H273 0.930 . S
C246 C244 1.369 . S
C246 C248 1.392 . S
C246 H274 0.930 . S
C247 C243 1.373 . S
C247 C245 1.383 . S
C247 H275 0.931 . S
C248 C245 1.382 . S
C248 C246 1.392 . S
C249 Eu240 2.828 . S
C249 C243 1.505 . S
C249 O261 1.249 . S
C249 O262 1.244 . S
O250 Eu241 2.373 . S
O250 C252 1.258 . S
O251 Eu240 2.392 . S
O251 C252 1.242 . S
C252 O250 1.258 . S
C252 O251 1.242 . S
O253 Eu240 2.418 . S
O253 C257 1.244 . S
O254 Eu241 2.488 . S
O254 C270 1.249 . S
O255 Eu241 2.471 . S
O255 C270 1.244 . S
O256 Eu241 2.349 . S
O256 C257 1.265 . S
C257 O253 1.244 . S
C257 O256 1.265 . S
O258 Eu240 2.373 . S
O258 C271 1.258 . S
O259 Eu241 2.392 . S
O259 C271 1.242 . S
O260 Eu241 2.418 . S
O260 C242 1.244 . S
O261 Eu240 2.488 . S
O261 C249 1.249 . S
O262 Eu240 2.471 . S
O262 C249 1.244 . S
O263 Eu240 2.349 . S
O263 C242 1.265 . S
C264 C265 1.379 . S
C264 C268 1.373 . S
C264 C270 1.505 . S
C265 C264 1.379 . S
C265 C267 1.369 . S
C265 H276 0.930 . S
C266 C268 1.383 . S
C266 C269 1.382 . S
C266 H277 0.930 . S
C267 C265 1.369 . S
C267 C269 1.392 . S
C267 H278 0.930 . S
C268 C264 1.373 . S
C268 C266 1.383 . S
C268 H279 0.931 . S
C269 C266 1.382 . S
C269 C267 1.392 . S
C270 Eu241 2.828 . S
C270 O254 1.249 . S
C270 O255 1.244 . S
C270 C264 1.505 . S
C271 O258 1.258 . S
C271 O259 1.242 . S
H272 C244 0.930 . S
H273 C245 0.930 . S
H274 C246 0.930 . S
H275 C247 0.931 . S
H276 C265 0.930 . S
H277 C266 0.930 . S
H278 C267 0.930 . S
H279 C268 0.931 . S
Eu280 C289 2.828 . S
Eu280 O291 2.392 . S
Eu280 O293 2.418 . S
Eu280 O298 2.373 . S
Eu280 O301 2.488 . S
Eu280 O302 2.471 . S
Eu280 O303 2.349 . S
Eu281 O290 2.373 . S
Eu281 O294 2.488 . S
Eu281 O295 2.471 . S
Eu281 O296 2.349 . S
Eu281 O299 2.392 . S
Eu281 O300 2.418 . S
Eu281 C310 2.828 . S
C282 O300 1.244 . S
C282 O303 1.265 . S
C283 C284 1.379 . S
C283 C287 1.373 . S
C283 C289 1.505 . S
C284 C283 1.379 . S
C284 C286 1.369 . S
C284 H312 0.930 . S
C285 C287 1.383 . S
C285 C288 1.382 . S
C285 H313 0.930 . S
C286 C284 1.369 . S
C286 C288 1.392 . S
C286 H314 0.930 . S
C287 C283 1.373 . S
C287 C285 1.383 . S
C287 H315 0.931 . S
C288 C285 1.382 . S
C288 C286 1.392 . S
C289 Eu280 2.828 . S
C289 C283 1.505 . S
C289 O301 1.249 . S
C289 O302 1.244 . S
O290 Eu281 2.373 . S
O290 C292 1.258 . S
O291 Eu280 2.392 . S
O291 C292 1.242 . S
C292 O290 1.258 . S
C292 O291 1.242 . S
O293 Eu280 2.418 . S
O293 C297 1.244 . S
O294 Eu281 2.488 . S
O294 C310 1.249 . S
O295 Eu281 2.471 . S
O295 C310 1.244 . S
O296 Eu281 2.349 . S
O296 C297 1.265 . S
C297 O293 1.244 . S
C297 O296 1.265 . S
O298 Eu280 2.373 . S
O298 C311 1.258 . S
O299 Eu281 2.392 . S
O299 C311 1.242 . S
O300 Eu281 2.418 . S
O300 C282 1.244 . S
O301 Eu280 2.488 . S
O301 C289 1.249 . S
O302 Eu280 2.471 . S
O302 C289 1.244 . S
O303 Eu280 2.349 . S
O303 C282 1.265 . S
C304 C305 1.379 . S
C304 C308 1.373 . S
C304 C310 1.505 . S
C305 C304 1.379 . S
C305 C307 1.369 . S
C305 H316 0.930 . S
C306 C308 1.383 . S
C306 C309 1.382 . S
C306 H317 0.930 . S
C307 C305 1.369 . S
C307 C309 1.392 . S
C307 H318 0.930 . S
C308 C304 1.373 . S
C308 C306 1.383 . S
C308 H319 0.931 . S
C309 C306 1.382 . S
C309 C307 1.392 . S
C310 Eu281 2.828 . S
C310 O294 1.249 . S
C310 O295 1.244 . S
C310 C304 1.505 . S
C311 O298 1.258 . S
C311 O299 1.242 . S
H312 C284 0.930 . S
H313 C285 0.930 . S
H314 C286 0.930 . S
H315 C287 0.931 . S
H316 C305 0.930 . S
H317 C306 0.930 . S
H318 C307 0.930 . S
H319 C308 0.931 . S
Co320 O323 2.042 . S
Co320 O330 2.264 . S
Co320 O349 2.286 . S
Co320 O350 2.069 . S
Co320 O352 2.015 1_455 S
Co321 O323 2.122 . S
Co321 O329 2.073 . S
Co321 O330 2.327 . S
Co321 O331 1.976 1_455 S
Co322 O323 2.082 1_545 S
Co322 O325 2.092 1_455 S
Co322 O332 2.108 1_445 S
Co322 O333 2.148 . S
Co322 O337 2.115 . S
Co322 O351 2.139 1_445 S
O323 Co320 2.042 . S
O323 Co321 2.122 . S
O323 Co322 2.082 1_565 S
O323 H324 0.980 . S
H324 O323 0.980 . S
O325 Co322 2.092 1_655 S
O325 Co326 2.042 . S
O325 Co327 2.122 . S
O325 H328 0.980 . S
Co326 O325 2.042 . S
Co326 O334 2.286 . S
Co326 O335 2.069 . S
Co326 O336 2.015 1_655 S
Co326 O339 2.264 . S
Co327 O325 2.122 . S
Co327 O338 1.976 1_655 S
Co327 O339 2.327 . S
Co327 O340 2.073 . S
H328 O325 0.980 . S
O329 Co321 2.073 . S
O329 C344 1.245 . S
O330 Co320 2.264 . S
O330 Co321 2.327 . S
O330 C344 1.257 . S
O331 Co321 1.976 1_655 S
O331 C343 1.251 . S
O332 Co322 2.108 1_665 S
O332 C343 1.274 . S
O333 Co322 2.148 . S
O333 C346 1.246 . S
O334 Co326 2.286 . S
O334 C345 1.259 . S
O335 Co326 2.069 . S
O335 C345 1.289 . S
O336 Co326 2.015 1_455 S
O336 C346 1.257 . S
O337 Co322 2.115 . S
O337 C347 1.274 . S
O338 Co327 1.976 1_455 S
O338 C347 1.251 . S
O339 Co326 2.264 . S
O339 Co327 2.327 . S
O339 C348 1.257 . S
O340 Co327 2.073 . S
O340 C348 1.245 . S
C341 O349 1.259 . S
C341 O350 1.289 . S
C342 O351 1.246 . S
C342 O352 1.257 . S
C343 O331 1.251 . S
C343 O332 1.274 . S
C344 O329 1.245 . S
C344 O330 1.257 . S
C345 O334 1.259 . S
C345 O335 1.289 . S
C346 O333 1.246 . S
C346 O336 1.257 . S
C347 O337 1.274 . S
C347 O338 1.251 . S
C348 O339 1.257 . S
C348 O340 1.245 . S
O349 Co320 2.286 . S
O349 C341 1.259 . S
O350 Co320 2.069 . S
O350 C341 1.289 . S
O351 Co322 2.139 1_665 S
O351 C342 1.246 . S
O352 Co320 2.015 1_655 S
O352 C342 1.257 . S
Co353 O356 2.042 1_556 S
Co353 O363 2.264 1_556 S
Co353 O382 2.286 . S
Co353 O383 2.069 . S
Co353 O385 2.015 . S
Co354 O356 2.122 . S
Co354 O362 2.073 . S
Co354 O363 2.327 . S
Co354 O364 1.976 . S
Co355 O356 2.080 1_545 S
Co355 O358 2.094 1_554 S
Co355 O365 2.109 1_545 S
Co355 O366 2.147 . S
Co355 O370 2.113 1_554 S
Co355 O384 2.140 1_544 S
O356 Co353 2.042 1_554 S
O356 Co354 2.122 . S
O356 Co355 2.080 1_565 S
O356 H357 0.980 . S
H357 O356 0.980 . S
O358 Co355 2.094 1_556 S
O358 Co359 2.042 1_556 S
O358 Co360 2.122 . S
O358 H361 0.980 . S
Co359 O358 2.042 1_554 S
Co359 O367 2.286 . S
Co359 O368 2.069 . S
Co359 O369 2.015 . S
Co359 O372 2.264 1_554 S
Co360 O358 2.122 . S
Co360 O371 1.976 . S
Co360 O372 2.327 . S
Co360 O373 2.073 . S
H361 O358 0.980 . S
O362 Co354 2.073 . S
O362 C377 1.245 . S
O363 Co353 2.264 1_554 S
O363 Co354 2.327 . S
O363 C377 1.257 . S
O364 Co354 1.976 . S
O364 C376 1.251 . S
O365 Co355 2.109 1_565 S
O365 C376 1.274 . S
O366 Co355 2.147 . S
O366 C379 1.246 . S
O367 Co359 2.286 . S
O367 C378 1.259 . S
O368 Co359 2.069 . S
O368 C378 1.289 . S
O369 Co359 2.015 . S
O369 C379 1.257 . S
O370 Co355 2.113 1_556 S
O370 C380 1.274 . S
O371 Co360 1.976 . S
O371 C380 1.251 . S
O372 Co359 2.264 1_556 S
O372 Co360 2.327 . S
O372 C381 1.257 . S
O373 Co360 2.073 . S
O373 C381 1.245 . S
C374 O382 1.259 . S
C374 O383 1.289 . S
C375 O384 1.246 . S
C375 O385 1.257 . S
C376 O364 1.251 . S
C376 O365 1.274 . S
C377 O362 1.245 . S
C377 O363 1.257 . S
C378 O367 1.259 . S
C378 O368 1.289 . S
C379 O366 1.246 . S
C379 O369 1.257 . S
C380 O370 1.274 . S
C380 O371 1.251 . S
C381 O372 1.257 . S
C381 O373 1.245 . S
O382 Co353 2.286 . S
O382 C374 1.259 . S
O383 Co353 2.069 . S
O383 C374 1.289 . S
O384 Co355 2.140 1_566 S
O384 C375 1.246 . S
O385 Co353 2.015 . S
O385 C375 1.257 . S
Co386 O389 2.042 1_556 S
Co386 O396 2.264 1_556 S
Co386 O415 2.286 . S
Co386 O416 2.069 . S
Co386 O418 2.015 1_455 S
Co387 O389 2.122 . S
Co387 O395 2.073 . S
Co387 O396 2.327 . S
Co387 O397 1.976 1_455 S
Co388 O389 2.090 . S
Co388 O391 2.084 1_454 S
Co388 O398 2.110 1_455 S
Co388 O399 2.144 . S
Co388 O403 2.113 1_554 S
Co388 O417 2.143 1_454 S
O389 Co386 2.042 1_554 S
O389 Co387 2.122 . S
O389 Co388 2.090 . S
O389 H390 0.980 . S
H390 O389 0.980 . S
O391 Co388 2.084 1_656 S
O391 Co392 2.042 1_556 S
O391 Co393 2.122 . S
O391 H394 0.980 . S
Co392 O391 2.042 1_554 S
Co392 O400 2.286 . S
Co392 O401 2.069 . S
Co392 O402 2.015 1_655 S
Co392 O405 2.264 1_554 S
Co393 O391 2.122 . S
Co393 O404 1.976 1_655 S
Co393 O405 2.327 . S
Co393 O406 2.073 . S
H394 O391 0.980 . S
O395 Co387 2.073 . S
O395 C410 1.245 . S
O396 Co386 2.264 1_554 S
O396 Co387 2.327 . S
O396 C410 1.257 . S
O397 Co387 1.976 1_655 S
O397 C409 1.251 . S
O398 Co388 2.110 1_655 S
O398 C409 1.274 . S
O399 Co388 2.144 . S
O399 C412 1.246 . S
O400 Co392 2.286 . S
O400 C411 1.259 . S
O401 Co392 2.069 . S
O401 C411 1.289 . S
O402 Co392 2.015 1_455 S
O402 C412 1.257 . S
O403 Co388 2.113 1_556 S
O403 C413 1.274 . S
O404 Co393 1.976 1_455 S
O404 C413 1.251 . S
O405 Co392 2.264 1_556 S
O405 Co393 2.327 . S
O405 C414 1.257 . S
O406 Co393 2.073 . S
O406 C414 1.245 . S
C407 O415 1.259 . S
C407 O416 1.289 . S
C408 O417 1.246 . S
C408 O418 1.257 . S
C409 O397 1.251 . S
C409 O398 1.274 . S
C410 O395 1.245 . S
C410 O396 1.257 . S
C411 O400 1.259 . S
C411 O401 1.289 . S
C412 O399 1.246 . S
C412 O402 1.257 . S
C413 O403 1.274 . S
C413 O404 1.251 . S
C414 O405 1.257 . S
C414 O406 1.245 . S
O415 Co386 2.286 . S
O415 C407 1.259 . S
O416 Co386 2.069 . S
O416 C407 1.289 . S
O417 Co388 2.143 1_656 S
O417 C408 1.246 . S
O418 Co386 2.015 1_655 S
O418 C408 1.257 . S
Co419 O422 2.042 1_556 S
Co419 O429 2.264 1_556 S
Co419 O448 2.286 . S
Co419 O449 2.069 . S
Co419 O451 2.015 . S
Co420 O422 2.122 . S
Co420 O428 2.073 . S
Co420 O429 2.327 . S
Co420 O430 1.976 . S
Co421 O422 2.087 . S
Co421 O424 2.087 1_554 S
Co421 O431 2.111 . S
Co421 O432 2.143 . S
Co421 O436 2.111 1_554 S
Co421 O450 2.143 1_554 S
O422 Co419 2.042 1_554 S
O422 Co420 2.122 . S
O422 Co421 2.087 . S
O422 H423 0.980 . S
H423 O422 0.980 . S
O424 Co421 2.087 1_556 S
O424 Co425 2.042 1_556 S
O424 Co426 2.122 . S
O424 H427 0.980 . S
Co425 O424 2.042 1_554 S
Co425 O433 2.286 . S
Co425 O434 2.069 . S
Co425 O435 2.015 . S
Co425 O438 2.264 1_554 S
Co426 O424 2.122 . S
Co426 O437 1.976 . S
Co426 O438 2.327 . S
Co426 O439 2.073 . S
H427 O424 0.980 . S
O428 Co420 2.073 . S
O428 C443 1.245 . S
O429 Co419 2.264 1_554 S
O429 Co420 2.327 . S
O429 C443 1.257 . S
O430 Co420 1.976 . S
O430 C442 1.251 . S
O431 Co421 2.111 . S
O431 C442 1.274 . S
O432 Co421 2.143 . S
O432 C445 1.246 . S
O433 Co425 2.286 . S
O433 C444 1.259 . S
O434 Co425 2.069 . S
O434 C444 1.289 . S
O435 Co425 2.015 . S
O435 C445 1.257 . S
O436 Co421 2.111 1_556 S
O436 C446 1.274 . S
O437 Co426 1.976 . S
O437 C446 1.251 . S
O438 Co425 2.264 1_556 S
O438 Co426 2.327 . S
O438 C447 1.257 . S
O439 Co426 2.073 . S
O439 C447 1.245 . S
C440 O448 1.259 . S
C440 O449 1.289 . S
C441 O450 1.246 . S
C441 O451 1.257 . S
C442 O430 1.251 . S
C442 O431 1.274 . S
C443 O428 1.245 . S
C443 O429 1.257 . S
C444 O433 1.259 . S
C444 O434 1.289 . S
C445 O432 1.246 . S
C445 O435 1.257 . S
C446 O436 1.274 . S
C446 O437 1.251 . S
C447 O438 1.257 . S
C447 O439 1.245 . S
O448 Co419 2.286 . S
O448 C440 1.259 . S
O449 Co419 2.069 . S
O449 C440 1.289 . S
O450 Co421 2.143 1_556 S
O450 C441 1.246 . S
O451 Co419 2.015 . S
O451 C441 1.257 . S
Co452 O455 2.042 . S
Co452 O462 2.264 . S
Co452 O481 2.286 . S
Co452 O482 2.069 . S
Co452 O484 2.015 . S
Co453 O455 2.122 . S
Co453 O461 2.073 . S
Co453 O462 2.327 . S
Co453 O463 1.976 . S
Co454 O455 2.089 . S
Co454 O457 2.084 1_455 S
Co454 O464 2.112 . S
Co454 O465 2.142 1_455 S
Co454 O469 2.111 1_455 S
Co454 O483 2.145 . S
O455 Co452 2.042 . S
O455 Co453 2.122 . S
O455 Co454 2.089 . S
O455 H456 0.980 . S
H456 O455 0.980 . S
O457 Co454 2.084 1_655 S
O457 Co458 2.042 . S
O457 Co459 2.122 . S
O457 H460 0.980 . S
Co458 O457 2.042 . S
Co458 O466 2.286 . S
Co458 O467 2.069 . S
Co458 O468 2.015 . S
Co458 O471 2.264 . S
Co459 O457 2.122 . S
Co459 O470 1.976 . S
Co459 O471 2.327 . S
Co459 O472 2.073 . S
H460 O457 0.980 . S
O461 Co453 2.073 . S
O461 C476 1.245 . S
O462 Co452 2.264 . S
O462 Co453 2.327 . S
O462 C476 1.257 . S
O463 Co453 1.976 . S
O463 C475 1.251 . S
O464 Co454 2.112 . S
O464 C475 1.274 . S
O465 Co454 2.142 1_655 S
O465 C478 1.246 . S
O466 Co458 2.286 . S
O466 C477 1.259 . S
O467 Co458 2.069 . S
O467 C477 1.289 . S
O468 Co458 2.015 . S
O468 C478 1.257 . S
O469 Co454 2.111 1_655 S
O469 C479 1.274 . S
O470 Co459 1.976 . S
O470 C479 1.251 . S
O471 Co458 2.264 . S
O471 Co459 2.327 . S
O471 C480 1.257 . S
O472 Co459 2.073 . S
O472 C480 1.245 . S
C473 O481 1.259 . S
C473 O482 1.289 . S
C474 O483 1.246 . S
C474 O484 1.257 . S
C475 O463 1.251 . S
C475 O464 1.274 . S
C476 O461 1.245 . S
C476 O462 1.257 . S
C477 O466 1.259 . S
C477 O467 1.289 . S
C478 O465 1.246 . S
C478 O468 1.257 . S
C479 O469 1.274 . S
C479 O470 1.251 . S
C480 O471 1.257 . S
C480 O472 1.245 . S
O481 Co452 2.286 . S
O481 C473 1.259 . S
O482 Co452 2.069 . S
O482 C473 1.289 . S
O483 Co454 2.145 . S
O483 C474 1.246 . S
O484 Co452 2.015 . S
O484 C474 1.257 . S
Co485 O488 2.042 . S
Co485 O495 2.264 . S
Co485 O514 2.286 . S
Co485 O515 2.069 . S
Co485 O517 2.015 1_565 S
Co486 O488 2.122 . S
Co486 O494 2.073 . S
Co486 O495 2.327 . S
Co486 O496 1.976 1_565 S
Co487 O488 2.080 1_545 S
Co487 O490 2.094 . S
Co487 O497 2.116 . S
Co487 O498 2.142 1_545 S
Co487 O502 2.107 1_545 S
Co487 O516 2.145 . S
O488 Co485 2.042 . S
O488 Co486 2.122 . S
O488 Co487 2.080 1_565 S
O488 H489 0.980 . S
H489 O488 0.980 . S
O490 Co487 2.094 . S
O490 Co491 2.042 . S
O490 Co492 2.122 . S
O490 H493 0.980 . S
Co491 O490 2.042 . S
Co491 O499 2.286 . S
Co491 O500 2.069 . S
Co491 O501 2.015 1_545 S
Co491 O504 2.264 . S
Co492 O490 2.122 . S
Co492 O503 1.976 1_545 S
Co492 O504 2.327 . S
Co492 O505 2.073 . S
H493 O490 0.980 . S
O494 Co486 2.073 . S
O494 C509 1.245 . S
O495 Co485 2.264 . S
O495 Co486 2.327 . S
O495 C509 1.257 . S
O496 Co486 1.976 1_545 S
O496 C508 1.251 . S
O497 Co487 2.116 . S
O497 C508 1.274 . S
O498 Co487 2.142 1_565 S
O498 C511 1.246 . S
O499 Co491 2.286 . S
O499 C510 1.259 . S
O500 Co491 2.069 . S
O500 C510 1.289 . S
O501 Co491 2.015 1_565 S
O501 C511 1.257 . S
O502 Co487 2.107 1_565 S
O502 C512 1.274 . S
O503 Co492 1.976 1_565 S
O503 C512 1.251 . S
O504 Co491 2.264 . S
O504 Co492 2.327 . S
O504 C513 1.257 . S
O505 Co492 2.073 . S
O505 C513 1.245 . S
C506 O514 1.259 . S
C506 O515 1.289 . S
C507 O516 1.246 . S
C507 O517 1.257 . S
C508 O496 1.251 . S
C508 O497 1.274 . S
C509 O494 1.245 . S
C509 O495 1.257 . S
C510 O499 1.259 . S
C510 O500 1.289 . S
C511 O498 1.246 . S
C511 O501 1.257 . S
C512 O502 1.274 . S
C512 O503 1.251 . S
C513 O504 1.257 . S
C513 O505 1.245 . S
O514 Co485 2.286 . S
O514 C506 1.259 . S
O515 Co485 2.069 . S
O515 C506 1.289 . S
O516 Co487 2.145 . S
O516 C507 1.246 . S
O517 Co485 2.015 1_545 S
O517 C507 1.257 . S
C518 C519 1.369 . S
C518 C520 1.419 . S
C518 H522 0.930 . S
C519 C518 1.369 . S
C519 C528 1.429 . S
C520 C518 1.419 . S
C520 C521 1.363 . S
C520 H523 0.929 . S
C521 C520 1.363 . S
C521 C527 1.428 . S
H522 C518 0.930 . S
H523 C520 0.929 . S
S524 N525 1.613 . S
S524 N526 1.610 . S
N525 S524 1.613 . S
N525 C528 1.350 . S
N526 S524 1.610 . S
N526 C527 1.351 . S
C527 C521 1.428 . S
C527 N526 1.351 . S
C527 C528 1.434 . S
C528 C519 1.429 . S
C528 N525 1.350 . S
C528 C527 1.434 . S
C529 C530 1.369 . S
C529 C531 1.419 . S
C529 H533 0.930 . S
C530 C529 1.369 . S
C530 C539 1.429 . S
C531 C529 1.419 . S
C531 C532 1.363 . S
C531 H534 0.929 . S
C532 C531 1.363 . S
C532 C538 1.428 . S
H533 C529 0.930 . S
H534 C531 0.929 . S
S535 N536 1.613 . S
S535 N537 1.610 . S
N536 S535 1.613 . S
N536 C539 1.350 . S
N537 S535 1.610 . S
N537 C538 1.351 . S
C538 C532 1.428 . S
C538 N537 1.351 . S
C538 C539 1.434 . S
C539 C530 1.429 . S
C539 N536 1.350 . S
C539 C538 1.434 . S
C540 C541 1.369 . S
C540 C542 1.419 . S
C540 H544 0.930 . S
C541 C540 1.369 . S
C541 C550 1.429 . S
C542 C540 1.419 . S
C542 C543 1.363 . S
C542 H545 0.929 . S
C543 C542 1.363 . S
C543 C549 1.428 . S
H544 C540 0.930 . S
H545 C542 0.929 . S
S546 N547 1.613 . S
S546 N548 1.610 . S
N547 S546 1.613 . S
N547 C550 1.350 . S
N548 S546 1.610 . S
N548 C549 1.351 . S
C549 C543 1.428 . S
C549 N548 1.351 . S
C549 C550 1.434 . S
C550 C541 1.429 . S
C550 N547 1.350 . S
C550 C549 1.434 . S
C551 C552 1.369 . S
C551 C553 1.419 . S
C551 H555 0.930 . S
C552 C551 1.369 . S
C552 C561 1.429 . S
C553 C551 1.419 . S
C553 C554 1.363 . S
C553 H556 0.929 . S
C554 C553 1.363 . S
C554 C560 1.428 . S
H555 C551 0.930 . S
H556 C553 0.929 . S
S557 N558 1.613 . S
S557 N559 1.610 . S
N558 S557 1.613 . S
N558 C561 1.350 . S
N559 S557 1.610 . S
N559 C560 1.351 . S
C560 C554 1.428 . S
C560 N559 1.351 . S
C560 C561 1.434 . S
C561 C552 1.429 . S
C561 N558 1.350 . S
C561 C560 1.434 . S
C562 C563 1.369 . S
C562 C564 1.419 . S
C562 H566 0.930 . S
C563 C562 1.369 . S
C563 C572 1.429 . S
C564 C562 1.419 . S
C564 C565 1.363 . S
C564 H567 0.929 . S
C565 C564 1.363 . S
C565 C571 1.428 . S
H566 C562 0.930 . S
H567 C564 0.929 . S
S568 N569 1.613 . S
S568 N570 1.610 . S
N569 S568 1.613 . S
N569 C572 1.350 . S
N570 S568 1.610 . S
N570 C571 1.351 . S
C571 C565 1.428 . S
C571 N570 1.351 . S
C571 C572 1.434 . S
C572 C563 1.429 . S
C572 N569 1.350 . S
C572 C571 1.434 . S
C573 C574 1.369 . S
C573 C575 1.419 . S
C573 H577 0.930 . S
C574 C573 1.369 . S
C574 C583 1.429 . S
C575 C573 1.419 . S
C575 C576 1.363 . S
C575 H578 0.929 . S
C576 C575 1.363 . S
C576 C582 1.428 . S
H577 C573 0.930 . S
H578 C575 0.929 . S
S579 N580 1.613 . S
S579 N581 1.610 . S
N580 S579 1.613 . S
N580 C583 1.350 . S
N581 S579 1.610 . S
N581 C582 1.351 . S
C582 C576 1.428 . S
C582 N581 1.351 . S
C582 C583 1.434 . S
C583 C574 1.429 . S
C583 N580 1.350 . S
C583 C582 1.434 . S
C584 C585 1.369 . S
C584 C586 1.419 . S
C584 H588 0.930 . S
C585 C584 1.369 . S
C585 C594 1.429 . S
C586 C584 1.419 . S
C586 C587 1.363 . S
C586 H589 0.929 . S
C587 C586 1.363 . S
C587 C593 1.428 . S
H588 C584 0.930 . S
H589 C586 0.929 . S
S590 N591 1.613 . S
S590 N592 1.610 . S
N591 S590 1.613 . S
N591 C594 1.350 . S
N592 S590 1.610 . S
N592 C593 1.351 . S
C593 C587 1.428 . S
C593 N592 1.351 . S
C593 C594 1.434 . S
C594 C585 1.429 . S
C594 N591 1.350 . S
C594 C593 1.434 . S
C595 C596 1.369 . S
C595 C597 1.419 . S
C595 H599 0.930 . S
C596 C595 1.369 . S
C596 C605 1.429 . S
C597 C595 1.419 . S
C597 C598 1.363 . S
C597 H600 0.929 . S
C598 C597 1.363 . S
C598 C604 1.428 . S
H599 C595 0.930 . S
H600 C597 0.929 . S
S601 N602 1.613 . S
S601 N603 1.610 . S
N602 S601 1.613 . S
N602 C605 1.350 . S
N603 S601 1.610 . S
N603 C604 1.351 . S
C604 C598 1.428 . S
C604 N603 1.351 . S
C604 C605 1.434 . S
C605 C596 1.429 . S
C605 N602 1.350 . S
C605 C604 1.434 . S
C606 C607 1.369 . S
C606 C608 1.419 . S
C606 H610 0.930 . S
C607 C606 1.369 . S
C607 C616 1.429 . S
C608 C606 1.419 . S
C608 C609 1.363 . S
C608 H611 0.929 . S
C609 C608 1.363 . S
C609 C615 1.428 . S
H610 C606 0.930 . S
H611 C608 0.929 . S
S612 N613 1.613 . S
S612 N614 1.610 . S
N613 S612 1.613 . S
N613 C616 1.350 . S
N614 S612 1.610 . S
N614 C615 1.351 . S
C615 C609 1.428 . S
C615 N614 1.351 . S
C615 C616 1.434 . S
C616 C607 1.429 . S
C616 N613 1.350 . S
C616 C615 1.434 . S
C617 C618 1.369 . S
C617 C619 1.419 . S
C617 H621 0.930 . S
C618 C617 1.369 . S
C618 C627 1.429 . S
C619 C617 1.419 . S
C619 C620 1.363 . S
C619 H622 0.929 . S
C620 C619 1.363 . S
C620 C626 1.428 . S
H621 C617 0.930 . S
H622 C619 0.929 . S
S623 N624 1.613 . S
S623 N625 1.610 . S
N624 S623 1.613 . S
N624 C627 1.350 . S
N625 S623 1.610 . S
N625 C626 1.351 . S
C626 C620 1.428 . S
C626 N625 1.351 . S
C626 C627 1.434 . S
C627 C618 1.429 . S
C627 N624 1.350 . S
C627 C626 1.434 . S
C628 C629 1.369 . S
C628 C630 1.419 . S
C628 H632 0.930 . S
C629 C628 1.369 . S
C629 C638 1.429 . S
C630 C628 1.419 . S
C630 C631 1.363 . S
C630 H633 0.929 . S
C631 C630 1.363 . S
C631 C637 1.428 . S
H632 C628 0.930 . S
H633 C630 0.929 . S
S634 N635 1.613 1_556 S
S634 N636 1.610 . S
N635 S634 1.613 1_554 S
N635 C638 1.350 . S
N636 S634 1.610 . S
N636 C637 1.351 1_556 S
C637 C631 1.428 . S
C637 N636 1.351 1_554 S
C637 C638 1.434 . S
C638 C629 1.429 . S
C638 N635 1.350 . S
C638 C637 1.434 . S
C639 C640 1.369 . S
C639 C641 1.419 . S
C639 H643 0.930 . S
C640 C639 1.369 . S
C640 C649 1.429 . S
C641 C639 1.419 . S
C641 C642 1.363 . S
C641 H644 0.929 . S
C642 C641 1.363 . S
C642 C648 1.428 . S
H643 C639 0.930 . S
H644 C641 0.929 . S
S645 N646 1.613 1_556 S
S645 N647 1.610 . S
N646 S645 1.613 1_554 S
N646 C649 1.350 . S
N647 S645 1.610 . S
N647 C648 1.351 1_556 S
C648 C642 1.428 . S
C648 N647 1.351 1_554 S
C648 C649 1.434 . S
C649 C640 1.429 . S
C649 N646 1.350 . S
C649 C648 1.434 . S
C650 C651 1.369 . S
C650 C652 1.419 . S
C650 H654 0.930 . S
C651 C650 1.369 . S
C651 C660 1.429 . S
C652 C650 1.419 . S
C652 C653 1.363 . S
C652 H655 0.929 . S
C653 C652 1.363 . S
C653 C659 1.428 . S
H654 C650 0.930 . S
H655 C652 0.929 . S
S656 N657 1.613 . S
S656 N658 1.610 . S
N657 S656 1.613 . S
N657 C660 1.350 . S
N658 S656 1.610 . S
N658 C659 1.351 . S
C659 C653 1.428 . S
C659 N658 1.351 . S
C659 C660 1.434 . S
C660 C651 1.429 . S
C660 N657 1.350 . S
C660 C659 1.434 . S
C661 C662 1.369 . S
C661 C663 1.419 . S
C661 H665 0.930 . S
C662 C661 1.369 . S
C662 C671 1.429 . S
C663 C661 1.419 . S
C663 C664 1.363 . S
C663 H666 0.929 . S
C664 C663 1.363 . S
C664 C670 1.428 . S
H665 C661 0.930 . S
H666 C663 0.929 . S
S667 N668 1.613 . S
S667 N669 1.610 . S
N668 S667 1.613 . S
N668 C671 1.350 . S
N669 S667 1.610 . S
N669 C670 1.351 . S
C670 C664 1.428 . S
C670 N669 1.351 . S
C670 C671 1.434 . S
C671 C662 1.429 . S
C671 N668 1.350 . S
C671 C670 1.434 . S
C672 C673 1.369 . S
C672 C674 1.419 . S
C672 H676 0.930 . S
C673 C672 1.369 . S
C673 C682 1.429 . S
C674 C672 1.419 . S
C674 C675 1.363 . S
C674 H677 0.929 . S
C675 C674 1.363 . S
C675 C681 1.428 . S
H676 C672 0.930 . S
H677 C674 0.929 . S
S678 N679 1.613 . S
S678 N680 1.610 . S
N679 S678 1.613 . S
N679 C682 1.350 . S
N680 S678 1.610 . S
N680 C681 1.351 . S
C681 C675 1.428 . S
C681 N680 1.351 . S
C681 C682 1.434 . S
C682 C673 1.429 . S
C682 N679 1.350 . S
C682 C681 1.434 . S
C683 C684 1.369 . S
C683 C685 1.419 . S
C683 H687 0.930 . S
C684 C683 1.369 . S
C684 C693 1.429 . S
C685 C683 1.419 . S
C685 C686 1.363 . S
C685 H688 0.929 . S
C686 C685 1.363 . S
C686 C692 1.428 . S
H687 C683 0.930 . S
H688 C685 0.929 . S
S689 N690 1.613 . S
S689 N691 1.610 . S
N690 S689 1.613 . S
N690 C693 1.350 . S
N691 S689 1.610 . S
N691 C692 1.351 . S
C692 C686 1.428 . S
C692 N691 1.351 . S
C692 C693 1.434 . S
C693 C684 1.429 . S
C693 N690 1.350 . S
C693 C692 1.434 . S
C694 C695 1.369 . S
C694 C696 1.419 . S
C694 H698 0.930 . S
C695 C694 1.369 . S
C695 C704 1.429 . S
C696 C694 1.419 . S
C696 C697 1.363 . S
C696 H699 0.929 . S
C697 C696 1.363 . S
C697 C703 1.428 . S
H698 C694 0.930 . S
H699 C696 0.929 . S
S700 N701 1.613 . S
S700 N702 1.610 . S
N701 S700 1.613 . S
N701 C704 1.350 . S
N702 S700 1.610 . S
N702 C703 1.351 . S
C703 C697 1.428 . S
C703 N702 1.351 . S
C703 C704 1.434 . S
C704 C695 1.429 . S
C704 N701 1.350 . S
C704 C703 1.434 . S
C705 C706 1.369 . S
C705 C707 1.419 . S
C705 H709 0.930 . S
C706 C705 1.369 . S
C706 C715 1.429 . S
C707 C705 1.419 . S
C707 C708 1.363 . S
C707 H710 0.929 . S
C708 C707 1.363 . S
C708 C714 1.428 . S
H709 C705 0.930 . S
H710 C707 0.929 . S
S711 N712 1.613 . S
S711 N713 1.610 . S
N712 S711 1.613 . S
N712 C715 1.350 . S
N713 S711 1.610 . S
N713 C714 1.351 . S
C714 C708 1.428 . S
C714 N713 1.351 . S
C714 C715 1.434 . S
C715 C706 1.429 . S
C715 N712 1.350 . S
C715 C714 1.434 . S
C716 C717 1.369 . S
C716 C718 1.419 . S
C716 H720 0.930 . S
C717 C716 1.369 . S
C717 C726 1.429 . S
C718 C716 1.419 . S
C718 C719 1.363 . S
C718 H721 0.929 . S
C719 C718 1.363 . S
C719 C725 1.428 . S
H720 C716 0.930 . S
H721 C718 0.929 . S
S722 N723 1.612 . S
S722 N724 1.610 . S
N723 S722 1.612 . S
N723 C726 1.351 1_554 S
N724 S722 1.610 . S
N724 C725 1.351 1_554 S
C725 C719 1.428 . S
C725 N724 1.351 1_556 S
C725 C726 1.434 . S
C726 C717 1.429 . S
C726 N723 1.351 1_556 S
C726 C725 1.434 . S
C727 C728 1.369 . S
C727 C729 1.419 . S
C727 H731 0.930 . S
C728 C727 1.369 . S
C728 C737 1.429 . S
C729 C727 1.419 . S
C729 C730 1.363 . S
C729 H732 0.929 . S
C730 C729 1.363 . S
C730 C736 1.428 . S
H731 C727 0.930 . S
H732 C729 0.929 . S
S733 N734 1.613 . S
S733 N735 1.610 . S
N734 S733 1.613 . S
N734 C737 1.350 . S
N735 S733 1.610 . S
N735 C736 1.351 . S
C736 C730 1.428 . S
C736 N735 1.351 . S
C736 C737 1.434 . S
C737 C728 1.429 . S
C737 N734 1.350 . S
C737 C736 1.434 . S
C738 C739 1.369 . S
C738 C740 1.419 . S
C738 H742 0.930 . S
C739 C738 1.369 . S
C739 C748 1.429 . S
C740 C738 1.419 . S
C740 C741 1.363 . S
C740 H743 0.929 . S
C741 C740 1.363 . S
C741 C747 1.428 . S
H742 C738 0.930 . S
H743 C740 0.929 . S
S744 N745 1.613 . S
S744 N746 1.610 . S
N745 S744 1.613 . S
N745 C748 1.350 . S
N746 S744 1.610 . S
N746 C747 1.351 . S
C747 C741 1.428 . S
C747 N746 1.351 . S
C747 C748 1.434 . S
C748 C739 1.429 . S
C748 N745 1.350 . S
C748 C747 1.434 . S
C749 C750 1.369 . S
C749 C751 1.419 . S
C749 H753 0.930 . S
C750 C749 1.369 . S
C750 C759 1.429 . S
C751 C749 1.419 . S
C751 C752 1.363 . S
C751 H754 0.929 . S
C752 C751 1.363 . S
C752 C758 1.428 . S
H753 C749 0.930 . S
H754 C751 0.929 . S
S755 N756 1.613 . S
S755 N757 1.610 . S
N756 S755 1.613 . S
N756 C759 1.350 . S
N757 S755 1.610 . S
N757 C758 1.351 . S
C758 C752 1.428 . S
C758 N757 1.351 . S
C758 C759 1.434 . S
C759 C750 1.429 . S
C759 N756 1.350 . S
C759 C758 1.434 . S
C760 C761 1.369 . S
C760 C762 1.419 . S
C760 H764 0.930 . S
C761 C760 1.369 . S
C761 C770 1.429 . S
C762 C760 1.419 . S
C762 C763 1.363 . S
C762 H765 0.929 . S
C763 C762 1.363 . S
C763 C769 1.428 . S
H764 C760 0.930 . S
H765 C762 0.929 . S
S766 N767 1.613 . S
S766 N768 1.610 . S
N767 S766 1.613 . S
N767 C770 1.350 . S
N768 S766 1.610 . S
N768 C769 1.351 . S
C769 C763 1.428 . S
C769 N768 1.351 . S
C769 C770 1.434 . S
C770 C761 1.429 . S
C770 N767 1.350 . S
C770 C769 1.434 . S
C771 C772 1.369 . S
C771 C773 1.419 . S
C771 H775 0.930 . S
C772 C771 1.369 . S
C772 C781 1.429 . S
C773 C771 1.419 . S
C773 C774 1.363 . S
C773 H776 0.929 . S
C774 C773 1.363 . S
C774 C780 1.428 . S
H775 C771 0.930 . S
H776 C773 0.929 . S
S777 N778 1.613 . S
S777 N779 1.610 . S
N778 S777 1.613 . S
N778 C781 1.350 . S
N779 S777 1.610 . S
N779 C780 1.351 . S
C780 C774 1.428 . S
C780 N779 1.351 . S
C780 C781 1.434 . S
C781 C772 1.429 . S
C781 N778 1.350 . S
C781 C780 1.434 . S
C782 C783 1.369 . S
C782 C784 1.419 . S
C782 H786 0.930 . S
C783 C782 1.369 . S
C783 C792 1.429 . S
C784 C782 1.419 . S
C784 C785 1.363 . S
C784 H787 0.929 . S
C785 C784 1.363 . S
C785 C791 1.428 . S
H786 C782 0.930 . S
H787 C784 0.929 . S
S788 N789 1.613 . S
S788 N790 1.610 . S
N789 S788 1.613 . S
N789 C792 1.350 . S
N790 S788 1.610 . S
N790 C791 1.351 . S
C791 C785 1.428 . S
C791 N790 1.351 . S
C791 C792 1.434 . S
C792 C783 1.429 . S
C792 N789 1.350 . S
C792 C791 1.434 . S
C793 C794 1.369 . S
C793 C795 1.419 . S
C793 H797 0.930 . S
C794 C793 1.369 . S
C794 C803 1.429 . S
C795 C793 1.419 . S
C795 C796 1.363 . S
C795 H798 0.929 . S
C796 C795 1.363 . S
C796 C802 1.428 . S
H797 C793 0.930 . S
H798 C795 0.929 . S
S799 N800 1.613 . S
S799 N801 1.610 . S
N800 S799 1.613 . S
N800 C803 1.350 . S
N801 S799 1.610 . S
N801 C802 1.351 . S
C802 C796 1.428 . S
C802 N801 1.351 . S
C802 C803 1.434 . S
C803 C794 1.429 . S
C803 N800 1.350 . S
C803 C802 1.434 . S
C804 C805 1.369 . S
C804 C806 1.419 . S
C804 H808 0.930 . S
C805 C804 1.369 . S
C805 C814 1.429 . S
C806 C804 1.419 . S
C806 C807 1.363 . S
C806 H809 0.929 . S
C807 C806 1.363 . S
C807 C813 1.428 . S
H808 C804 0.930 . S
H809 C806 0.929 . S
S810 N811 1.613 . S
S810 N812 1.610 . S
N811 S810 1.613 . S
N811 C814 1.350 . S
N812 S810 1.610 . S
N812 C813 1.351 . S
C813 C807 1.428 . S
C813 N812 1.351 . S
C813 C814 1.434 . S
C814 C805 1.429 . S
C814 N811 1.350 . S
C814 C813 1.434 . S
C815 C816 1.369 . S
C815 C817 1.419 . S
C815 H819 0.930 . S
C816 C815 1.369 . S
C816 C825 1.429 . S
C817 C815 1.419 . S
C817 C818 1.363 . S
C817 H820 0.929 . S
C818 C817 1.363 . S
C818 C824 1.428 . S
H819 C815 0.930 . S
H820 C817 0.929 . S
S821 N822 1.613 . S
S821 N823 1.610 1_554 S
N822 S821 1.613 . S
N822 C825 1.350 1_554 S
N823 S821 1.610 1_556 S
N823 C824 1.351 . S
C824 C818 1.428 . S
C824 N823 1.351 . S
C824 C825 1.434 . S
C825 C816 1.429 . S
C825 N822 1.350 1_556 S
C825 C824 1.434 . S
C826 C827 1.369 . S
C826 C828 1.419 . S
C826 H830 0.930 . S
C827 C826 1.369 . S
C827 C836 1.429 . S
C828 C826 1.419 . S
C828 C829 1.363 . S
C828 H831 0.929 . S
C829 C828 1.363 . S
C829 C835 1.428 . S
H830 C826 0.930 . S
H831 C828 0.929 . S
S832 N833 1.613 . S
S832 N834 1.610 . S
N833 S832 1.613 . S
N833 C836 1.350 . S
N834 S832 1.610 . S
N834 C835 1.351 . S
C835 C829 1.428 . S
C835 N834 1.351 . S
C835 C836 1.434 . S
C836 C827 1.429 . S
C836 N833 1.350 . S
C836 C835 1.434 . S
C837 C838 1.369 . S
C837 C839 1.419 . S
C837 H841 0.930 . S
C838 C837 1.369 . S
C838 C847 1.429 . S
C839 C837 1.419 . S
C839 C840 1.363 . S
C839 H842 0.929 . S
C840 C839 1.363 . S
C840 C846 1.428 . S
H841 C837 0.930 . S
H842 C839 0.929 . S
S843 N844 1.613 . S
S843 N845 1.610 . S
N844 S843 1.613 . S
N844 C847 1.350 . S
N845 S843 1.610 . S
N845 C846 1.351 . S
C846 C840 1.428 . S
C846 N845 1.351 . S
C846 C847 1.434 . S
C847 C838 1.429 . S
C847 N844 1.350 . S
C847 C846 1.434 . S
C848 C849 1.369 . S
C848 C850 1.419 . S
C848 H852 0.930 . S
C849 C848 1.369 . S
C849 C858 1.429 . S
C850 C848 1.419 . S
C850 C851 1.363 . S
C850 H853 0.929 . S
C851 C850 1.363 . S
C851 C857 1.428 . S
H852 C848 0.930 . S
H853 C850 0.929 . S
S854 N855 1.613 . S
S854 N856 1.610 . S
N855 S854 1.613 . S
N855 C858 1.350 . S
N856 S854 1.610 . S
N856 C857 1.351 . S
C857 C851 1.428 . S
C857 N856 1.351 . S
C857 C858 1.434 . S
C858 C849 1.429 . S
C858 N855 1.350 . S
C858 C857 1.434 . S
C859 C860 1.369 . S
C859 C861 1.419 . S
C859 H863 0.930 . S
C860 C859 1.369 . S
C860 C869 1.429 . S
C861 C859 1.419 . S
C861 C862 1.363 . S
C861 H864 0.929 . S
C862 C861 1.363 . S
C862 C868 1.428 . S
H863 C859 0.930 . S
H864 C861 0.929 . S
S865 N866 1.613 . S
S865 N867 1.610 . S
N866 S865 1.613 . S
N866 C869 1.350 . S
N867 S865 1.610 . S
N867 C868 1.351 . S
C868 C862 1.428 . S
C868 N867 1.351 . S
C868 C869 1.434 . S
C869 C860 1.429 . S
C869 N866 1.350 . S
C869 C868 1.434 . S
C870 C871 1.369 . S
C870 C872 1.419 . S
C870 H874 0.930 . S
C871 C870 1.369 . S
C871 C880 1.429 . S
C872 C870 1.419 . S
C872 C873 1.363 . S
C872 H875 0.929 . S
C873 C872 1.363 . S
C873 C879 1.428 . S
H874 C870 0.930 . S
H875 C872 0.929 . S
S876 N877 1.613 . S
S876 N878 1.610 . S
N877 S876 1.613 . S
N877 C880 1.350 . S
N878 S876 1.610 . S
N878 C879 1.351 . S
C879 C873 1.428 . S
C879 N878 1.351 . S
C879 C880 1.434 . S
C880 C871 1.429 . S
C880 N877 1.350 . S
C880 C879 1.434 . S
C881 C882 1.369 . S
C881 C883 1.419 . S
C881 H885 0.930 . S
C882 C881 1.369 . S
C882 C891 1.429 . S
C883 C881 1.419 . S
C883 C884 1.363 . S
C883 H886 0.929 . S
C884 C883 1.363 . S
C884 C890 1.428 . S
H885 C881 0.930 . S
H886 C883 0.929 . S
S887 N888 1.613 . S
S887 N889 1.610 . S
N888 S887 1.613 . S
N888 C891 1.350 . S
N889 S887 1.610 . S
N889 C890 1.351 . S
C890 C884 1.428 . S
C890 N889 1.351 . S
C890 C891 1.434 . S
C891 C882 1.429 . S
C891 N888 1.350 . S
C891 C890 1.434 . S
C892 C893 1.369 . S
C892 C894 1.419 . S
C892 H896 0.930 . S
C893 C892 1.369 . S
C893 C902 1.429 . S
C894 C892 1.419 . S
C894 C895 1.363 . S
C894 H897 0.929 . S
C895 C894 1.363 . S
C895 C901 1.428 . S
H896 C892 0.930 . S
H897 C894 0.929 . S
S898 N899 1.613 . S
S898 N900 1.610 . S
N899 S898 1.613 . S
N899 C902 1.350 . S
N900 S898 1.610 . S
N900 C901 1.351 . S
C901 C895 1.428 . S
C901 N900 1.351 . S
C901 C902 1.434 . S
C902 C893 1.429 . S
C902 N899 1.350 . S
C902 C901 1.434 . S
C903 C904 1.369 . S
C903 C905 1.419 . S
C903 H907 0.930 . S
C904 C903 1.369 . S
C904 C913 1.429 . S
C905 C903 1.419 . S
C905 C906 1.363 . S
C905 H908 0.929 . S
C906 C905 1.363 . S
C906 C912 1.428 . S
H907 C903 0.930 . S
H908 C905 0.929 . S
S909 N910 1.613 . S
S909 N911 1.610 . S
N910 S909 1.613 . S
N910 C913 1.350 . S
N911 S909 1.610 . S
N911 C912 1.351 . S
C912 C906 1.428 . S
C912 N911 1.351 . S
C912 C913 1.434 . S
C913 C904 1.429 . S
C913 N910 1.350 . S
C913 C912 1.434 . S
C914 C915 1.369 . S
C914 C916 1.419 . S
C914 H918 0.930 . S
C915 C914 1.369 . S
C915 C924 1.429 . S
C916 C914 1.419 . S
C916 C917 1.363 . S
C916 H919 0.929 . S
C917 C916 1.363 . S
C917 C923 1.428 . S
H918 C914 0.930 . S
H919 C916 0.929 . S
S920 N921 1.613 . S
S920 N922 1.610 . S
N921 S920 1.613 . S
N921 C924 1.350 . S
N922 S920 1.610 . S
N922 C923 1.351 . S
C923 C917 1.428 . S
C923 N922 1.351 . S
C923 C924 1.434 . S
C924 C915 1.429 . S
C924 N921 1.350 . S
C924 C923 1.434 . S
C925 C926 1.369 . S
C925 C927 1.419 . S
C925 H929 0.930 . S
C926 C925 1.369 . S
C926 C935 1.429 . S
C927 C925 1.419 . S
C927 C928 1.363 . S
C927 H930 0.929 . S
C928 C927 1.363 . S
C928 C934 1.428 . S
H929 C925 0.930 . S
H930 C927 0.929 . S
S931 N932 1.613 . S
S931 N933 1.610 . S
N932 S931 1.613 . S
N932 C935 1.350 . S
N933 S931 1.610 . S
N933 C934 1.351 . S
C934 C928 1.428 . S
C934 N933 1.351 . S
C934 C935 1.434 . S
C935 C926 1.429 . S
C935 N932 1.350 . S
C935 C934 1.434 . S
C936 C937 1.369 . S
C936 C938 1.419 . S
C936 H940 0.930 . S
C937 C936 1.369 . S
C937 C946 1.429 . S
C938 C936 1.419 . S
C938 C939 1.363 . S
C938 H941 0.929 . S
C939 C938 1.363 . S
C939 C945 1.428 . S
H940 C936 0.930 . S
H941 C938 0.929 . S
S942 N943 1.613 . S
S942 N944 1.610 . S
N943 S942 1.613 . S
N943 C946 1.350 . S
N944 S942 1.610 . S
N944 C945 1.351 . S
C945 C939 1.428 . S
C945 N944 1.351 . S
C945 C946 1.434 . S
C946 C937 1.429 . S
C946 N943 1.350 . S
C946 C945 1.434 . S
C947 C948 1.369 . S
C947 C949 1.419 . S
C947 H951 0.930 . S
C948 C947 1.369 . S
C948 C957 1.429 . S
C949 C947 1.419 . S
C949 C950 1.363 . S
C949 H952 0.929 . S
C950 C949 1.363 . S
C950 C956 1.428 . S
H951 C947 0.930 . S
H952 C949 0.929 . S
S953 N954 1.613 . S
S953 N955 1.610 . S
N954 S953 1.613 . S
N954 C957 1.350 . S
N955 S953 1.610 . S
N955 C956 1.351 . S
C956 C950 1.428 . S
C956 N955 1.351 . S
C956 C957 1.434 . S
C957 C948 1.429 . S
C957 N954 1.350 . S
C957 C956 1.434 . S
C958 C959 1.369 . S
C958 C960 1.419 . S
C958 H962 0.930 . S
C959 C958 1.369 . S
C959 C968 1.429 . S
C960 C958 1.419 . S
C960 C961 1.363 . S
C960 H963 0.929 . S
C961 C960 1.363 . S
C961 C967 1.428 . S
H962 C958 0.930 . S
H963 C960 0.929 . S
S964 N965 1.613 . S
S964 N966 1.610 . S
N965 S964 1.613 . S
N965 C968 1.350 . S
N966 S964 1.610 . S
N966 C967 1.351 . S
C967 C961 1.428 . S
C967 N966 1.351 . S
C967 C968 1.434 . S
C968 C959 1.429 . S
C968 N965 1.350 . S
C968 C967 1.434 . S
C969 C970 1.369 . S
C969 C971 1.419 . S
C969 H973 0.930 . S
C970 C969 1.369 . S
C970 C979 1.429 . S
C971 C969 1.419 . S
C971 C972 1.363 . S
C971 H974 0.929 . S
C972 C971 1.363 . S
C972 C978 1.428 . S
H973 C969 0.930 . S
H974 C971 0.929 . S
S975 N976 1.613 . S
S975 N977 1.610 . S
N976 S975 1.613 . S
N976 C979 1.350 . S
N977 S975 1.610 . S
N977 C978 1.351 . S
C978 C972 1.428 . S
C978 N977 1.351 . S
C978 C979 1.434 . S
C979 C970 1.429 . S
C979 N976 1.350 . S
C979 C978 1.434 . S
C980 C981 1.369 . S
C980 C982 1.419 . S
C980 H984 0.930 . S
C981 C980 1.369 . S
C981 C990 1.429 . S
C982 C980 1.419 . S
C982 C983 1.363 . S
C982 H985 0.929 . S
C983 C982 1.363 . S
C983 C989 1.428 . S
H984 C980 0.930 . S
H985 C982 0.929 . S
S986 N987 1.613 . S
S986 N988 1.610 . S
N987 S986 1.613 . S
N987 C990 1.350 . S
N988 S986 1.610 . S
N988 C989 1.351 . S
C989 C983 1.428 . S
C989 N988 1.351 . S
C989 C990 1.434 . S
C990 C981 1.429 . S
C990 N987 1.350 . S
C990 C989 1.434 . S
C991 C992 1.369 . S
C991 C993 1.419 . S
C991 H995 0.930 . S
C992 C991 1.369 . S
C992 C1001 1.429 . S
C993 C991 1.419 . S
C993 C994 1.363 . S
C993 H996 0.929 . S
C994 C993 1.363 . S
C994 C1000 1.428 . S
H995 C991 0.930 . S
H996 C993 0.929 . S
S997 N998 1.613 . S
S997 N999 1.610 . S
N998 S997 1.613 . S
N998 C1001 1.350 . S
N999 S997 1.610 . S
N999 C1000 1.351 . S
C1000 C994 1.428 . S
C1000 N999 1.351 . S
C1000 C1001 1.434 . S
C1001 C992 1.429 . S
C1001 N998 1.350 . S
C1001 C1000 1.434 . S
C1002 C1003 1.369 . S
C1002 C1004 1.419 . S
C1002 H1006 0.930 . S
C1003 C1002 1.369 . S
C1003 C1012 1.429 . S
C1004 C1002 1.419 . S
C1004 C1005 1.363 . S
C1004 H1007 0.929 . S
C1005 C1004 1.363 . S
C1005 C1011 1.428 . S
H1006 C1002 0.930 . S
H1007 C1004 0.929 . S
S1008 N1009 1.613 . S
S1008 N1010 1.610 . S
N1009 S1008 1.613 . S
N1009 C1012 1.350 . S
N1010 S1008 1.610 . S
N1010 C1011 1.351 . S
C1011 C1005 1.428 . S
C1011 N1010 1.351 . S
C1011 C1012 1.434 . S
C1012 C1003 1.429 . S
C1012 N1009 1.350 . S
C1012 C1011 1.434 . S
C1013 C1014 1.369 . S
C1013 C1015 1.419 . S
C1013 H1017 0.930 . S
C1014 C1013 1.369 . S
C1014 C1023 1.429 . S
C1015 C1013 1.419 . S
C1015 C1016 1.363 . S
C1015 H1018 0.929 . S
C1016 C1015 1.363 . S
C1016 C1022 1.428 . S
H1017 C1013 0.930 . S
H1018 C1015 0.929 . S
S1019 N1020 1.613 . S
S1019 N1021 1.610 . S
N1020 S1019 1.613 . S
N1020 C1023 1.350 . S
N1021 S1019 1.610 . S
N1021 C1022 1.351 . S
C1022 C1016 1.428 . S
C1022 N1021 1.351 . S
C1022 C1023 1.434 . S
C1023 C1014 1.429 . S
C1023 N1020 1.350 . S
C1023 C1022 1.434 . S
C1024 C1025 1.369 . S
C1024 C1026 1.419 . S
C1024 H1028 0.930 . S
C1025 C1024 1.369 . S
C1025 C1034 1.429 . S
C1026 C1024 1.419 . S
C1026 C1027 1.363 . S
C1026 H1029 0.929 . S
C1027 C1026 1.363 . S
C1027 C1033 1.428 . S
H1028 C1024 0.930 . S
H1029 C1026 0.929 . S
S1030 N1031 1.613 . S
S1030 N1032 1.610 . S
N1031 S1030 1.613 . S
N1031 C1034 1.350 . S
N1032 S1030 1.610 . S
N1032 C1033 1.351 . S
C1033 C1027 1.428 . S
C1033 N1032 1.351 . S
C1033 C1034 1.434 . S
C1034 C1025 1.429 . S
C1034 N1031 1.350 . S
C1034 C1033 1.434 . S
C1035 C1036 1.369 . S
C1035 C1037 1.419 . S
C1035 H1039 0.930 . S
C1036 C1035 1.369 . S
C1036 C1045 1.429 . S
C1037 C1035 1.419 . S
C1037 C1038 1.363 . S
C1037 H1040 0.929 . S
C1038 C1037 1.363 . S
C1038 C1044 1.428 . S
H1039 C1035 0.930 . S
H1040 C1037 0.929 . S
S1041 N1042 1.613 . S
S1041 N1043 1.610 . S
N1042 S1041 1.613 . S
N1042 C1045 1.350 . S
N1043 S1041 1.610 . S
N1043 C1044 1.351 . S
C1044 C1038 1.428 . S
C1044 N1043 1.351 . S
C1044 C1045 1.434 . S
C1045 C1036 1.429 . S
C1045 N1042 1.350 . S
C1045 C1044 1.434 . S
C521 C347 1.540 . S
C519 C2 1.773 . S
C532 C348 1.552 . S
C530 C48 1.574 . S
C543 C342 1.557 . S
C541 C97 1.598 . S
C552 C149 0.851 . S
C554 C341 0.751 . S
C563 C189 1.568 . S
C565 C344 1.548 . S
C576 C346 1.554 . S
C574 C202 1.598 . S
C585 C248 0.857 . S
C587 C345 0.747 . S
C596 C297 1.773 . S
C598 C343 1.542 . S
C609 C378 2.881 . S
C607 C31 2.853 . S
C618 C52 1.776 . S
C620 C409 1.678 . S
C631 C377 1.295 . S
C629 C88 1.312 . S
C642 C412 1.249 . S
C640 C122 1.218 . S
C651 C162 1.579 . S
C653 C375 1.563 . S
C664 C407 2.859 . S
C662 C231 2.861 . S
C673 C252 1.526 . S
C675 C380 1.442 . S
C684 C288 1.343 . S
C686 C414 1.292 . S
C695 C29 1.342 . S
C697 C410 1.288 . S
C706 C191 1.773 . S
C708 C413 1.673 . S
C719 C381 1.294 . S
C717 C229 1.314 . S
C730 C408 1.245 . S
C728 C257 1.214 . S
C739 C292 2.855 . S
C741 C374 2.881 . S
C750 C92 2.860 . S
C752 C411 2.859 . S
C763 C376 1.436 . S
C761 C151 1.533 . S
C772 C57 1.580 . S
C774 C379 1.562 . S
C783 C282 1.790 . S
C785 C446 1.597 . S
C794 C168 1.395 . S
C796 C447 1.343 . S
C807 C441 1.334 . S
C805 C217 1.373 . S
C818 C440 0.680 . S
C816 C269 0.754 . S
C827 C69 1.387 . S
C829 C443 1.340 . S
C840 C445 1.336 . S
C838 C82 1.369 . S
C849 C128 0.748 . S
C851 C444 0.683 . S
C860 C17 1.790 . S
C862 C442 1.594 . S
C871 C311 3.017 . S
C873 C480 2.948 . S
C884 C512 1.515 . S
C882 C172 1.566 . S
C893 C208 1.144 . S
C895 C473 1.138 . S
C904 C242 1.537 . S
C906 C507 1.517 . S
C917 C478 1.213 . S
C915 C42 1.242 . S
C926 C111 3.032 . S
C928 C509 2.988 . S
C939 C475 1.905 . S
C937 C132 1.910 . S
C950 C510 1.412 . S
C948 C8 1.372 . S
C961 C506 1.409 . S
C959 C309 1.376 . S
C970 C71 1.566 . S
C972 C508 1.514 . S
C981 C109 1.148 . S
C983 C477 1.133 . S
C994 C511 1.518 . S
C992 C137 1.535 . S
C1003 C12 3.018 . S
C1005 C476 2.948 . S
C1014 C212 3.032 . S
C1016 C513 2.988 . S
C1027 C479 1.910 . S
C1025 C271 1.911 . S
C1038 C474 1.218 . S
C1036 C177 1.247 . S
