# Generated by pormake.
# Topology ibd, (4,6)-cn, num edge types: 1
# Building blocks:
#     Node 0, Type 0, BuildingBlock: TATPOV_clean_sbu_0, # of connection points: 4
#     Node 1, Type 0, BuildingBlock: TATPOV_clean_sbu_0, # of connection points: 4
#     Node 2, Type 0, BuildingBlock: TATPOV_clean_sbu_0, # of connection points: 4
#     Node 3, Type 0, BuildingBlock: TATPOV_clean_sbu_0, # of connection points: 4
#     Node 4, Type 0, BuildingBlock: TATPOV_clean_sbu_0, # of connection points: 4
#     Node 5, Type 0, BuildingBlock: TATPOV_clean_sbu_0, # of connection points: 4
#     Node 6, Type 0, BuildingBlock: TATPOV_clean_sbu_0, # of connection points: 4
#     Node 7, Type 0, BuildingBlock: TATPOV_clean_sbu_0, # of connection points: 4
#     Node 8, Type 0, BuildingBlock: TATPOV_clean_sbu_0, # of connection points: 4
#     Node 9, Type 0, BuildingBlock: TATPOV_clean_sbu_0, # of connection points: 4
#     Node 10, Type 0, BuildingBlock: TATPOV_clean_sbu_0, # of connection points: 4
#     Node 11, Type 0, BuildingBlock: TATPOV_clean_sbu_0, # of connection points: 4
#     Node 12, Type 0, BuildingBlock: TATPOV_clean_sbu_0, # of connection points: 4
#     Node 13, Type 0, BuildingBlock: TATPOV_clean_sbu_0, # of connection points: 4
#     Node 14, Type 0, BuildingBlock: TATPOV_clean_sbu_0, # of connection points: 4
#     Node 15, Type 0, BuildingBlock: TATPOV_clean_sbu_0, # of connection points: 4
#     Node 16, Type 0, BuildingBlock: TATPOV_clean_sbu_0, # of connection points: 4
#     Node 17, Type 0, BuildingBlock: TATPOV_clean_sbu_0, # of connection points: 4
#     Node 18, Type 0, BuildingBlock: TATPOV_clean_sbu_0, # of connection points: 4
#     Node 19, Type 0, BuildingBlock: TATPOV_clean_sbu_0, # of connection points: 4
#     Node 20, Type 0, BuildingBlock: TATPOV_clean_sbu_0, # of connection points: 4
#     Node 21, Type 0, BuildingBlock: TATPOV_clean_sbu_0, # of connection points: 4
#     Node 22, Type 0, BuildingBlock: TATPOV_clean_sbu_0, # of connection points: 4
#     Node 23, Type 0, BuildingBlock: TATPOV_clean_sbu_0, # of connection points: 4
#     Node 24, Type 1, BuildingBlock: IZENUY_clean_sbu_0, # of connection points: 6
#     Node 25, Type 1, BuildingBlock: IZENUY_clean_sbu_0, # of connection points: 6
#     Node 26, Type 1, BuildingBlock: IZENUY_clean_sbu_0, # of connection points: 6
#     Node 27, Type 1, BuildingBlock: IZENUY_clean_sbu_0, # of connection points: 6
#     Node 28, Type 1, BuildingBlock: IZENUY_clean_sbu_0, # of connection points: 6
#     Node 29, Type 1, BuildingBlock: IZENUY_clean_sbu_0, # of connection points: 6
#     Node 30, Type 1, BuildingBlock: IZENUY_clean_sbu_0, # of connection points: 6
#     Node 31, Type 1, BuildingBlock: IZENUY_clean_sbu_0, # of connection points: 6
#     Node 32, Type 1, BuildingBlock: IZENUY_clean_sbu_0, # of connection points: 6
#     Node 33, Type 1, BuildingBlock: IZENUY_clean_sbu_0, # of connection points: 6
#     Node 34, Type 1, BuildingBlock: IZENUY_clean_sbu_0, # of connection points: 6
#     Node 35, Type 1, BuildingBlock: IZENUY_clean_sbu_0, # of connection points: 6
#     Node 36, Type 1, BuildingBlock: IZENUY_clean_sbu_0, # of connection points: 6
#     Node 37, Type 1, BuildingBlock: IZENUY_clean_sbu_0, # of connection points: 6
#     Node 38, Type 1, BuildingBlock: IZENUY_clean_sbu_0, # of connection points: 6
#     Node 39, Type 1, BuildingBlock: IZENUY_clean_sbu_0, # of connection points: 6
#     Edge 40, Type (0, 1), BuildingBlock: OJICUG_clean_linker_0, # of connection points: 2
#     Edge 41, Type (0, 1), BuildingBlock: OJICUG_clean_linker_0, # of connection points: 2
#     Edge 42, Type (0, 1), BuildingBlock: OJICUG_clean_linker_0, # of connection points: 2
#     Edge 43, Type (0, 1), BuildingBlock: OJICUG_clean_linker_0, # of connection points: 2
#     Edge 44, Type (0, 1), BuildingBlock: OJICUG_clean_linker_0, # of connection points: 2
#     Edge 45, Type (0, 1), BuildingBlock: OJICUG_clean_linker_0, # of connection points: 2
#     Edge 46, Type (0, 1), BuildingBlock: OJICUG_clean_linker_0, # of connection points: 2
#     Edge 47, Type (0, 1), BuildingBlock: OJICUG_clean_linker_0, # of connection points: 2
#     Edge 48, Type (0, 1), BuildingBlock: OJICUG_clean_linker_0, # of connection points: 2
#     Edge 49, Type (0, 1), BuildingBlock: OJICUG_clean_linker_0, # of connection points: 2
#     Edge 50, Type (0, 1), BuildingBlock: OJICUG_clean_linker_0, # of connection points: 2
#     Edge 51, Type (0, 1), BuildingBlock: OJICUG_clean_linker_0, # of connection points: 2
#     Edge 52, Type (0, 1), BuildingBlock: OJICUG_clean_linker_0, # of connection points: 2
#     Edge 53, Type (0, 1), BuildingBlock: OJICUG_clean_linker_0, # of connection points: 2
#     Edge 54, Type (0, 1), BuildingBlock: OJICUG_clean_linker_0, # of connection points: 2
#     Edge 55, Type (0, 1), BuildingBlock: OJICUG_clean_linker_0, # of connection points: 2
#     Edge 56, Type (0, 1), BuildingBlock: OJICUG_clean_linker_0, # of connection points: 2
#     Edge 57, Type (0, 1), BuildingBlock: OJICUG_clean_linker_0, # of connection points: 2
#     Edge 58, Type (0, 1), BuildingBlock: OJICUG_clean_linker_0, # of connection points: 2
#     Edge 59, Type (0, 1), BuildingBlock: OJICUG_clean_linker_0, # of connection points: 2
#     Edge 60, Type (0, 1), BuildingBlock: OJICUG_clean_linker_0, # of connection points: 2
#     Edge 61, Type (0, 1), BuildingBlock: OJICUG_clean_linker_0, # of connection points: 2
#     Edge 62, Type (0, 1), BuildingBlock: OJICUG_clean_linker_0, # of connection points: 2
#     Edge 63, Type (0, 1), BuildingBlock: OJICUG_clean_linker_0, # of connection points: 2
#     Edge 64, Type (0, 1), BuildingBlock: OJICUG_clean_linker_0, # of connection points: 2
#     Edge 65, Type (0, 1), BuildingBlock: OJICUG_clean_linker_0, # of connection points: 2
#     Edge 66, Type (0, 1), BuildingBlock: OJICUG_clean_linker_0, # of connection points: 2
#     Edge 67, Type (0, 1), BuildingBlock: OJICUG_clean_linker_0, # of connection points: 2
#     Edge 68, Type (0, 1), BuildingBlock: OJICUG_clean_linker_0, # of connection points: 2
#     Edge 69, Type (0, 1), BuildingBlock: OJICUG_clean_linker_0, # of connection points: 2
#     Edge 70, Type (0, 1), BuildingBlock: OJICUG_clean_linker_0, # of connection points: 2
#     Edge 71, Type (0, 1), BuildingBlock: OJICUG_clean_linker_0, # of connection points: 2
#     Edge 72, Type (0, 1), BuildingBlock: OJICUG_clean_linker_0, # of connection points: 2
#     Edge 73, Type (0, 1), BuildingBlock: OJICUG_clean_linker_0, # of connection points: 2
#     Edge 74, Type (0, 1), BuildingBlock: OJICUG_clean_linker_0, # of connection points: 2
#     Edge 75, Type (0, 1), BuildingBlock: OJICUG_clean_linker_0, # of connection points: 2
#     Edge 76, Type (0, 1), BuildingBlock: OJICUG_clean_linker_0, # of connection points: 2
#     Edge 77, Type (0, 1), BuildingBlock: OJICUG_clean_linker_0, # of connection points: 2
#     Edge 78, Type (0, 1), BuildingBlock: OJICUG_clean_linker_0, # of connection points: 2
#     Edge 79, Type (0, 1), BuildingBlock: OJICUG_clean_linker_0, # of connection points: 2
#     Edge 80, Type (0, 1), BuildingBlock: OJICUG_clean_linker_0, # of connection points: 2
#     Edge 81, Type (0, 1), BuildingBlock: OJICUG_clean_linker_0, # of connection points: 2
#     Edge 82, Type (0, 1), BuildingBlock: OJICUG_clean_linker_0, # of connection points: 2
#     Edge 83, Type (0, 1), BuildingBlock: OJICUG_clean_linker_0, # of connection points: 2
#     Edge 84, Type (0, 1), BuildingBlock: OJICUG_clean_linker_0, # of connection points: 2
#     Edge 85, Type (0, 1), BuildingBlock: OJICUG_clean_linker_0, # of connection points: 2
#     Edge 86, Type (0, 1), BuildingBlock: OJICUG_clean_linker_0, # of connection points: 2
#     Edge 87, Type (0, 1), BuildingBlock: OJICUG_clean_linker_0, # of connection points: 2
#     Edge 88, Type (0, 1), BuildingBlock: OJICUG_clean_linker_0, # of connection points: 2
#     Edge 89, Type (0, 1), BuildingBlock: OJICUG_clean_linker_0, # of connection points: 2
#     Edge 90, Type (0, 1), BuildingBlock: OJICUG_clean_linker_0, # of connection points: 2
#     Edge 91, Type (0, 1), BuildingBlock: OJICUG_clean_linker_0, # of connection points: 2
#     Edge 92, Type (0, 1), BuildingBlock: OJICUG_clean_linker_0, # of connection points: 2
#     Edge 93, Type (0, 1), BuildingBlock: OJICUG_clean_linker_0, # of connection points: 2
#     Edge 94, Type (0, 1), BuildingBlock: OJICUG_clean_linker_0, # of connection points: 2
#     Edge 95, Type (0, 1), BuildingBlock: OJICUG_clean_linker_0, # of connection points: 2
#     Edge 96, Type (0, 1), BuildingBlock: OJICUG_clean_linker_0, # of connection points: 2
#     Edge 97, Type (0, 1), BuildingBlock: OJICUG_clean_linker_0, # of connection points: 2
#     Edge 98, Type (0, 1), BuildingBlock: OJICUG_clean_linker_0, # of connection points: 2
#     Edge 99, Type (0, 1), BuildingBlock: OJICUG_clean_linker_0, # of connection points: 2
#     Edge 100, Type (0, 1), BuildingBlock: OJICUG_clean_linker_0, # of connection points: 2
#     Edge 101, Type (0, 1), BuildingBlock: OJICUG_clean_linker_0, # of connection points: 2
#     Edge 102, Type (0, 1), BuildingBlock: OJICUG_clean_linker_0, # of connection points: 2
#     Edge 103, Type (0, 1), BuildingBlock: OJICUG_clean_linker_0, # of connection points: 2
#     Edge 104, Type (0, 1), BuildingBlock: OJICUG_clean_linker_0, # of connection points: 2
#     Edge 105, Type (0, 1), BuildingBlock: OJICUG_clean_linker_0, # of connection points: 2
#     Edge 106, Type (0, 1), BuildingBlock: OJICUG_clean_linker_0, # of connection points: 2
#     Edge 107, Type (0, 1), BuildingBlock: OJICUG_clean_linker_0, # of connection points: 2
#     Edge 108, Type (0, 1), BuildingBlock: OJICUG_clean_linker_0, # of connection points: 2
#     Edge 109, Type (0, 1), BuildingBlock: OJICUG_clean_linker_0, # of connection points: 2
#     Edge 110, Type (0, 1), BuildingBlock: OJICUG_clean_linker_0, # of connection points: 2
#     Edge 111, Type (0, 1), BuildingBlock: OJICUG_clean_linker_0, # of connection points: 2
#     Edge 112, Type (0, 1), BuildingBlock: OJICUG_clean_linker_0, # of connection points: 2
#     Edge 113, Type (0, 1), BuildingBlock: OJICUG_clean_linker_0, # of connection points: 2
#     Edge 114, Type (0, 1), BuildingBlock: OJICUG_clean_linker_0, # of connection points: 2
#     Edge 115, Type (0, 1), BuildingBlock: OJICUG_clean_linker_0, # of connection points: 2
#     Edge 116, Type (0, 1), BuildingBlock: OJICUG_clean_linker_0, # of connection points: 2
#     Edge 117, Type (0, 1), BuildingBlock: OJICUG_clean_linker_0, # of connection points: 2
#     Edge 118, Type (0, 1), BuildingBlock: OJICUG_clean_linker_0, # of connection points: 2
#     Edge 119, Type (0, 1), BuildingBlock: OJICUG_clean_linker_0, # of connection points: 2
#     Edge 120, Type (0, 1), BuildingBlock: OJICUG_clean_linker_0, # of connection points: 2
#     Edge 121, Type (0, 1), BuildingBlock: OJICUG_clean_linker_0, # of connection points: 2
#     Edge 122, Type (0, 1), BuildingBlock: OJICUG_clean_linker_0, # of connection points: 2
#     Edge 123, Type (0, 1), BuildingBlock: OJICUG_clean_linker_0, # of connection points: 2
#     Edge 124, Type (0, 1), BuildingBlock: OJICUG_clean_linker_0, # of connection points: 2
#     Edge 125, Type (0, 1), BuildingBlock: OJICUG_clean_linker_0, # of connection points: 2
#     Edge 126, Type (0, 1), BuildingBlock: OJICUG_clean_linker_0, # of connection points: 2
#     Edge 127, Type (0, 1), BuildingBlock: OJICUG_clean_linker_0, # of connection points: 2
#     Edge 128, Type (0, 1), BuildingBlock: OJICUG_clean_linker_0, # of connection points: 2
#     Edge 129, Type (0, 1), BuildingBlock: OJICUG_clean_linker_0, # of connection points: 2
#     Edge 130, Type (0, 1), BuildingBlock: OJICUG_clean_linker_0, # of connection points: 2
#     Edge 131, Type (0, 1), BuildingBlock: OJICUG_clean_linker_0, # of connection points: 2
#     Edge 132, Type (0, 1), BuildingBlock: OJICUG_clean_linker_0, # of connection points: 2
#     Edge 133, Type (0, 1), BuildingBlock: OJICUG_clean_linker_0, # of connection points: 2
#     Edge 134, Type (0, 1), BuildingBlock: OJICUG_clean_linker_0, # of connection points: 2
#     Edge 135, Type (0, 1), BuildingBlock: OJICUG_clean_linker_0, # of connection points: 2
# Relax obj value: 0.312
# Max RMSD: 0.292
# Mean RMSD: 0.264
data_MOF--net-ibd--node1-TATPOV_clean_sbu_0--node2-IZENUY_clean_sbu_0--edge1-OJICUG_clean_linker_0
_symmetry_space_group_name_H-M    P1
_symmetry_Int_Tables_number       1
_symmetry_cell_setting            triclinic
loop_
_symmetry_equiv_pos_as_xyz
'x, y, z'
_cell_length_a     36.535481
_cell_length_b     36.456208
_cell_length_c     36.535789
_cell_angle_alpha  90.724207
_cell_angle_beta   90.675298
_cell_angle_gamma 90.926479
loop_
_atom_site_label
_atom_site_type_symbol
_atom_site_fract_x
_atom_site_fract_y
_atom_site_fract_z
_atom_type_partial_charge
Zn0 Zn 0.94266 0.27156 0.40977 0.0
Zn1 Zn -0.00629 0.2338 0.37403 0.0
O2 O 0.97605 0.19266 0.40827 0.0
O3 O 0.93204 0.2241 0.43467 0.0
O4 O 0.02917 0.21426 0.33663 0.0
O5 O 0.91313 0.28524 0.36665 0.0
O6 O 0.95432 0.2523 0.33841 0.0
C7 C 0.94961 0.1947 0.43068 0.0
C8 C 0.01527 0.29903 0.42365 0.0
O9 O 0.02413 0.27223 0.40308 0.0
O10 O 0.98188 0.30533 0.42958 0.0
C11 C 0.03797 0.18128 0.3302 0.0
O12 O 0.02542 0.15518 0.35135 0.0
C13 C 0.92536 0.27128 0.33758 0.0
Zn14 Zn 0.92565 0.76615 0.59228 0.0
Zn15 Zn -0.0114 0.74308 0.62311 0.0
O16 O 0.00895 0.7857 0.59381 0.0
O17 O 0.95792 0.80325 0.56684 0.0
O18 O 0.02849 0.72572 0.65691 0.0
O19 O 0.90133 0.77916 0.63862 0.0
O20 O 0.95202 0.75744 0.66218 0.0
C21 C -0.00776 0.80664 0.57175 0.0
C22 C 0.94537 0.69278 0.57167 0.0
O23 O 0.97519 0.70031 0.58857 0.0
O24 O 0.91938 0.7153 0.57158 0.0
C25 C 0.02947 0.6919 0.66479 0.0
O26 O 0.00865 0.66845 0.6462 0.0
C27 C 0.92043 0.77093 0.66622 0.0
Zn28 Zn 0.42167 0.75336 0.89841 0.0
Zn29 Zn 0.47962 0.72619 0.86372 0.0
O30 O 0.4693 0.68322 0.89846 0.0
O31 O 0.41819 0.70432 0.92201 0.0
O32 O 0.51843 0.71222 0.82729 0.0
O33 O 0.39163 0.76393 0.85459 0.0
O34 O 0.43874 0.73925 0.82732 0.0
C35 C 0.44196 0.67956 0.91955 0.0
C36 C 0.48899 0.79204 0.9153 0.0
O37 O 0.50253 0.76862 0.89334 0.0
O38 O 0.45489 0.7919 0.92113 0.0
C39 C 0.53985 0.68514 0.82673 0.0
O40 O 0.53941 0.66185 0.85388 0.0
C41 C 0.4071 0.75336 0.82571 0.0
Zn42 Zn 0.42766 0.27846 0.07741 0.0
Zn43 Zn 0.48826 0.24873 0.10779 0.0
O44 O 0.51119 0.29108 0.0795 0.0
O45 O 0.46214 0.31461 0.05378 0.0
O46 O 0.52759 0.22794 0.13999 0.0
O47 O 0.40429 0.28978 0.12462 0.0
O48 O 0.45226 0.26229 0.14766 0.0
C49 C 0.49655 0.31462 0.05865 0.0
C50 C 0.44135 0.20322 0.056 0.0
O51 O 0.47151 0.20732 0.07332 0.0
O52 O 0.41823 0.22869 0.05519 0.0
C53 C 0.52296 0.19507 0.15038 0.0
O54 O 0.49613 0.17518 0.13583 0.0
C55 C 0.42159 0.27765 0.15189 0.0
Zn56 Zn 0.9496 0.81527 0.15849 0.0
Zn57 Zn 0.98382 0.76177 0.12273 0.0
O58 O 0.94586 0.73491 0.15338 0.0
O59 O 0.91598 0.77867 0.18153 0.0
O60 O -0.00034 0.72374 0.0861 0.0
O61 O 0.9351 0.84438 0.11577 0.0
O62 O 0.96837 0.80271 0.08831 0.0
C63 C 0.9213 0.74491 0.17565 0.0
C64 C 0.02767 0.80475 0.1764 0.0
O65 O 0.02712 0.7767 0.15533 0.0
O66 O -0.00045 0.82422 0.18035 0.0
C67 C 0.02519 0.70067 0.08876 0.0
O68 O 0.04518 0.69982 0.11886 0.0
C69 C 0.95036 0.83232 0.08736 0.0
Zn70 Zn 0.46394 0.81027 0.33329 0.0
Zn71 Zn 0.49205 0.75047 0.3656 0.0
O72 O 0.534 0.76466 0.33089 0.0
O73 O 0.51354 0.81766 0.31122 0.0
O74 O 0.50939 0.71117 0.40034 0.0
O75 O 0.45028 0.83624 0.37914 0.0
O76 O 0.47595 0.78821 0.40383 0.0
C77 C 0.5381 0.79355 0.31198 0.0
C78 C 0.42749 0.7413 0.31334 0.0
O79 O 0.4503 0.72718 0.33552 0.0
O80 O 0.42785 0.77562 0.30817 0.0
C81 C 0.54216 0.70063 0.40426 0.0
O82 O 0.56729 0.7129 0.38187 0.0
C83 C 0.46024 0.81897 0.40718 0.0
Zn84 Zn 0.45323 0.30901 0.64741 0.0
Zn85 Zn 0.48925 0.25649 0.6119 0.0
O86 O 0.45219 0.22771 0.64214 0.0
O87 O 0.4213 0.27092 0.67008 0.0
O88 O 0.50832 0.2193 0.5758 0.0
O89 O 0.43705 0.33677 0.60466 0.0
O90 O 0.47069 0.29568 0.57673 0.0
C91 C 0.42727 0.23728 0.66421 0.0
C92 C 0.5309 0.30236 0.66596 0.0
O93 O 0.53128 0.2742 0.64508 0.0
O94 O 0.50219 0.32096 0.66966 0.0
C95 C 0.54102 0.20845 0.5728 0.0
O96 O 0.56609 0.22042 0.5963 0.0
C97 C 0.45141 0.32449 0.57588 0.0
Zn98 Zn 0.95513 0.31638 0.83615 0.0
Zn99 Zn -0.01096 0.25774 0.86625 0.0
O100 O 0.02971 0.2781 0.83289 0.0
O101 O 0.00429 0.32949 0.81489 0.0
O102 O 0.00996 0.21838 0.89872 0.0
O103 O 0.93858 0.33753 0.88367 0.0
O104 O 0.96857 0.29093 0.90616 0.0
C105 C 0.03121 0.30799 0.81516 0.0
C106 C 0.92499 0.24475 0.81432 0.0
O107 O 0.94941 0.232 0.83558 0.0
O108 O 0.92241 0.27907 0.81003 0.0
C109 C 0.04333 0.21775 0.90884 0.0
O110 O 0.06674 0.24105 0.89451 0.0
C111 C 0.94953 0.31948 0.91084 0.0
Zn112 Zn 0.39004 0.91895 0.2837 0.0
Zn113 Zn 0.35914 0.97643 0.24867 0.0
O114 O 0.39208 0.9559 0.20807 0.0
O115 O 0.41075 0.90517 0.23442 0.0
O116 O 0.32543 0.01453 0.22762 0.0
O117 O 0.34294 0.89749 0.30167 0.0
O118 O 0.32004 0.94292 0.27026 0.0
C119 C 0.41015 0.92627 0.2071 0.0
C120 C 0.41276 -0.00848 0.31078 0.0
O121 O 0.39067 0.00345 0.28666 0.0
O122 O 0.41693 0.95731 0.31457 0.0
C123 C 0.32169 0.02329 0.19428 0.0
O124 O 0.34378 0.00934 0.16983 0.0
C125 C 0.31559 0.91481 0.29008 0.0
Zn126 Zn 0.29068 0.0856 0.45647 0.0
Zn127 Zn 0.26009 0.1191 0.51355 0.0
O128 O 0.29468 0.08459 0.5405 0.0
O129 O 0.31825 0.05618 0.49287 0.0
O130 O 0.2366 0.152 0.55086 0.0
O131 O 0.31369 0.12949 0.43552 0.0
O132 O 0.28345 0.15715 0.47944 0.0
C133 C 0.31578 0.06044 0.52719 0.0
C134 C 0.21295 0.07395 0.46123 0.0
O135 O 0.21657 0.09044 0.49192 0.0
O136 O 0.24 0.07033 0.44024 0.0
C137 C 0.25356 0.18046 0.56295 0.0
O138 O 0.28818 0.18528 0.5546 0.0
C139 C 0.30368 0.15855 0.4513 0.0
Zn140 Zn 0.15369 0.96578 0.78677 0.0
Zn141 Zn 0.11886 -0.00737 0.7282 0.0
O142 O 0.14576 0.95002 0.70421 0.0
O143 O 0.17387 0.92783 0.75264 0.0
O144 O 0.083 0.01194 0.69143 0.0
O145 O 0.10993 0.9554 0.8159 0.0
O146 O 0.08248 0.97972 0.76841 0.0
C147 C 0.16714 0.92679 0.71855 0.0
C148 C 0.17449 0.03996 0.76791 0.0
O149 O 0.1544 0.0351 0.73963 0.0
O150 O 0.1773 0.0153 0.79177 0.0
C151 C 0.07109 0.04366 0.69906 0.0
O152 O 0.08592 0.06225 0.72662 0.0
C153 C 0.0811 0.96599 0.80023 0.0
Zn154 Zn 0.28726 0.8281 0.93766 0.0
Zn155 Zn 0.23972 0.86646 0.97869 0.0
O156 O 0.2596 0.83191 0.01817 0.0
O157 O 0.30171 0.80421 0.98527 0.0
O158 O 0.20993 0.9062 0.00223 0.0
O159 O 0.31515 0.87092 0.91796 0.0
O160 O 0.27664 0.90004 0.95325 0.0
C161 C 0.28525 0.80876 0.0153 0.0
C162 C 0.21032 0.81556 0.91926 0.0
O163 O 0.20422 0.83791 0.94544 0.0
O164 O 0.24288 0.80834 0.91039 0.0
C165 C 0.17993 0.90572 0.01943 0.0
O166 O 0.16367 0.87425 0.02653 0.0
C167 C 0.30332 0.90055 0.93116 0.0
Zn168 Zn 0.2883 0.40225 0.93689 0.0
Zn169 Zn 0.25377 0.36457 -0.01046 0.0
O170 O 0.21213 0.39876 0.97362 0.0
O171 O 0.23936 0.42533 0.92693 0.0
O172 O 0.23364 0.32655 0.02405 0.0
O173 O 0.30512 0.35895 0.90832 0.0
O174 O 0.27446 0.32956 0.95064 0.0
C175 C 0.21163 0.42113 0.94706 0.0
C176 C 0.31618 0.4167 0.01027 0.0
O177 O 0.29138 0.39397 0.01986 0.0
O178 O 0.32062 0.42381 0.97674 0.0
C179 C 0.2082 0.32817 0.04736 0.0
O180 O 0.19047 0.35894 0.05188 0.0
C181 C 0.29359 0.32924 0.9217 0.0
Zn182 Zn 0.77096 0.15662 0.93949 0.0
Zn183 Zn 0.71562 0.12012 0.97058 0.0
O184 O 0.6876 0.15561 0.9377 0.0
O185 O 0.73381 0.1854 0.9128 0.0
O186 O 0.67935 0.08197 -0.01178 0.0
O187 O 0.79458 0.11515 0.9151 0.0
O188 O 0.75258 0.08585 0.94668 0.0
C189 C 0.69971 0.18038 0.91648 0.0
C190 C 0.76646 0.16476 0.01866 0.0
O191 O 0.73618 0.1472 0.01577 0.0
O192 O 0.78611 0.17034 -0.0091 0.0
C193 C 0.66754 0.07966 0.02069 0.0
O194 O 0.67578 0.10594 0.04446 0.0
C195 C 0.78053 0.08556 0.92617 0.0
Zn196 Zn 0.0801 0.42123 0.28219 0.0
Zn197 Zn 0.11534 0.47539 0.24624 0.0
O198 O 0.0857 0.50347 0.28404 0.0
O199 O 0.05727 0.45954 0.31384 0.0
O200 O 0.15115 0.51295 0.22696 0.0
O201 O 0.124 0.39502 0.29839 0.0
O202 O 0.15092 0.43682 0.26452 0.0
C203 C 0.06361 0.49333 0.30877 0.0
C204 C 0.06214 0.42839 0.20419 0.0
O205 O 0.08217 0.45727 0.20434 0.0
O206 O 0.05878 0.40923 0.23266 0.0
C207 C 0.15273 0.52559 0.19478 0.0
O208 O 0.12774 0.51543 0.1704 0.0
C209 C 0.15245 0.40804 0.28384 0.0
Zn210 Zn 0.7902 0.90657 0.43435 0.0
Zn211 Zn 0.75079 0.86987 0.4855 0.0
O212 O 0.71075 0.90375 0.46545 0.0
O213 O 0.74192 0.92909 0.4205 0.0
O214 O 0.72868 0.83143 0.51841 0.0
O215 O 0.80897 0.86254 0.40828 0.0
O216 O 0.77492 0.83503 0.44924 0.0
C217 C 0.71258 0.92538 0.43834 0.0
C218 C 0.81206 0.9214 0.50999 0.0
O219 O 0.78613 0.89933 0.51805 0.0
O220 O 0.81913 0.928 0.47682 0.0
C221 C 0.70267 0.83162 0.54116 0.0
O222 O 0.68417 0.86178 0.54646 0.0
C223 C 0.79619 0.83348 0.42195 0.0
Zn224 Zn 0.81941 0.96635 0.28559 0.0
Zn225 Zn 0.85704 -0.00199 0.23209 0.0
O226 O 0.82349 0.04116 0.24447 0.0
O227 O 0.79477 0.01468 0.29036 0.0
O228 O 0.89523 0.01442 0.19591 0.0
O229 O 0.86116 0.95502 0.31788 0.0
O230 O 0.89137 0.9825 0.27402 0.0
C231 C 0.80003 0.04204 0.26999 0.0
C232 C 0.80607 0.93228 0.21597 0.0
O233 O 0.82742 0.95769 0.20491 0.0
O234 O 0.79974 0.92909 0.24977 0.0
C235 C 0.89837 0.04525 0.18036 0.0
O236 O 0.87323 0.07008 0.18559 0.0
C237 C 0.89094 0.96669 0.30492 0.0
Zn238 Zn 0.27305 0.65545 0.41877 0.0
Zn239 Zn 0.22022 0.62112 0.45606 0.0
O240 O 0.1905 0.65563 0.42435 0.0
O241 O 0.2341 0.68396 0.39398 0.0
O242 O 0.18496 0.58516 0.47848 0.0
O243 O 0.29452 0.61179 0.39557 0.0
O244 O 0.25519 0.58514 0.43227 0.0
C245 C 0.20059 0.67989 0.40162 0.0
C246 C 0.27382 0.66815 0.49774 0.0
O247 O 0.24371 0.65025 0.49791 0.0
O248 O 0.29163 0.67209 0.46847 0.0
C249 C 0.17407 0.58615 0.51136 0.0
O250 O 0.18263 0.61474 0.53216 0.0
C251 C 0.28158 0.58319 0.40995 0.0
Zn252 Zn 0.33018 0.49571 0.80719 0.0
Zn253 Zn 0.36182 0.52875 0.752 0.0
O254 O 0.32678 0.56899 0.7698 0.0
O255 O 0.30776 0.54316 0.82058 0.0
O256 O 0.39479 0.55074 0.71369 0.0
O257 O 0.37444 0.47985 0.83289 0.0
O258 O 0.4008 0.50976 0.78816 0.0
C259 C 0.30816 0.57005 0.79907 0.0
C260 C 0.31006 0.4647 0.73685 0.0
O261 O 0.33211 0.48895 0.72477 0.0
O262 O 0.30482 0.4621 0.77092 0.0
C263 C 0.4175 0.52881 0.69936 0.0
O264 O 0.41576 0.49397 0.70811 0.0
C265 C 0.40306 0.4912 0.81742 0.0
Zn266 Zn 0.58353 0.91909 0.79462 0.0
Zn267 Zn 0.61665 0.97311 0.75637 0.0
O268 O 0.5868 0.0012 0.7937 0.0
O269 O 0.55973 0.95776 0.82535 0.0
O270 O 0.65005 0.01153 0.73482 0.0
O271 O 0.62914 0.89516 0.81038 0.0
O272 O 0.65426 0.93664 0.77488 0.0
C273 C 0.56498 -0.00854 0.81882 0.0
C274 C 0.563 0.92385 0.71717 0.0
O275 O 0.58272 0.95289 0.71619 0.0
O276 O 0.56091 0.90505 0.74601 0.0
C277 C 0.6506 0.02263 0.702 0.0
O278 O 0.6261 0.00979 0.67835 0.0
C279 C 0.657 0.90858 0.79506 0.0
Zn280 Zn 0.80568 0.58652 0.95034 0.0
Zn281 Zn 0.76921 0.61775 0.00647 0.0
O282 O 0.80047 0.58153 0.03481 0.0
O283 O 0.82834 0.55496 -0.0115 0.0
O284 O 0.74499 0.65233 0.04211 0.0
O285 O 0.83087 0.63162 0.93371 0.0
O286 O 0.79585 0.65579 0.97589 0.0
C287 C 0.82211 0.55734 0.02248 0.0
C288 C 0.72736 0.57465 0.94829 0.0
O289 O 0.72818 0.5899 0.97976 0.0
O290 O 0.75614 0.57238 0.92946 0.0
C291 C 0.71062 0.65351 0.04689 0.0
O292 O 0.68951 0.62741 0.03266 0.0
C293 C 0.81857 0.65942 0.95004 0.0
Zn294 Zn 0.89722 0.41208 0.76924 0.0
Zn295 Zn 0.86572 0.47194 0.7384 0.0
O296 O 0.89871 0.45475 0.69647 0.0
O297 O 0.91742 0.40226 0.71906 0.0
O298 O 0.83208 0.51173 0.72025 0.0
O299 O 0.85045 0.3889 0.78528 0.0
O300 O 0.82701 0.43607 0.75684 0.0
C301 C 0.91661 0.42517 0.69327 0.0
C302 C 0.91864 0.4824 0.8023 0.0
O303 O 0.89661 0.49591 0.779 0.0
O304 O 0.92357 0.44808 0.80317 0.0
C305 C 0.83055 0.5262 0.68883 0.0
O306 O 0.8548 0.51716 0.66416 0.0
C307 C 0.82293 0.40646 0.7745 0.0
Zn308 Zn 0.79502 0.32852 0.44074 0.0
Zn309 Zn 0.74111 0.36602 0.47499 0.0
O310 O 0.75628 0.33184 0.51663 0.0
O311 O 0.80328 0.30534 0.49007 0.0
O312 O 0.70662 0.40392 0.49474 0.0
O313 O 0.82374 0.37255 0.4255 0.0
O314 O 0.78054 0.40084 0.45572 0.0
C315 C 0.78281 0.3096 0.51752 0.0
C316 C 0.72176 0.31526 0.41126 0.0
O317 O 0.71175 0.33736 0.43632 0.0
O318 O 0.75533 0.30805 0.40744 0.0
C319 C 0.69056 0.40468 0.52535 0.0
O320 O 0.694 0.37691 0.54763 0.0
C321 C 0.80994 0.40183 0.4374 0.0
Zn322 Zn 0.65233 0.46878 0.30544 0.0
Zn323 Zn 0.62059 0.49585 0.24445 0.0
O324 O 0.64916 0.45403 0.22203 0.0
O325 O 0.67628 0.43268 0.27142 0.0
O326 O 0.58708 0.51431 0.20507 0.0
O327 O 0.60621 0.45547 0.32989 0.0
O328 O 0.58189 0.4805 0.28109 0.0
C329 C 0.67074 0.4315 0.23711 0.0
C330 C 0.67262 0.54373 0.2889 0.0
O331 O 0.65493 0.53843 0.2591 0.0
O332 O 0.67362 0.51921 0.31309 0.0
C333 C 0.5752 0.54664 0.20906 0.0
O334 O 0.58888 0.56765 0.23548 0.0
C335 C 0.57838 0.46535 0.31203 0.0
Fe336 Fe 0.11333 0.07941 0.14386 0.0
Fe337 Fe 0.08485 0.15321 0.11586 0.0
O338 O 0.11668 0.11686 0.11325 0.0
Fe339 Fe 0.15187 0.11795 0.08002 0.0
O340 O 0.13646 0.07453 0.05954 0.0
O341 O 0.12953 0.04508 0.11121 0.0
O342 O 0.06687 0.06789 0.12854 0.0
C343 C 0.0405 0.08991 0.12897 0.0
C344 C 0.18799 0.08873 0.14234 0.0
O345 O 0.04629 0.1242 0.12975 0.0
C346 C 0.152 0.1905 0.10041 0.0
O347 O 0.09636 0.10659 0.18225 0.0
O348 O 0.09716 0.16361 0.16347 0.0
O349 O 0.1857 0.09482 0.10842 0.0
O350 O 0.15958 0.08781 0.16177 0.0
C351 C 0.09085 0.14672 0.04129 0.0
O352 O 0.11747 0.18907 0.1024 0.0
O353 O 0.17026 0.16146 0.09767 0.0
C354 C 0.09567 0.14064 0.1891 0.0
O355 O 0.06978 0.14586 0.06848 0.0
O356 O 0.12474 0.14132 0.0453 0.0
C357 C 0.13293 0.04489 0.07683 0.0
Fe358 Fe 0.06319 0.85394 0.37983 0.0
Fe359 Fe 0.10095 0.92077 0.34639 0.0
O360 O 0.09903 0.88702 0.38052 0.0
Fe361 Fe 0.1333 0.88569 0.41487 0.0
O362 O 0.14614 0.84035 0.39989 0.0
O363 O 0.09042 0.81718 0.39951 0.0
O364 O 0.07689 0.83691 0.33531 0.0
C365 C 0.08115 0.85664 0.30756 0.0
C366 C 0.06805 0.86907 0.45266 0.0
O367 O 0.08073 0.89125 0.31052 0.0
C368 C 0.12304 0.95929 0.41092 0.0
O369 O 0.02944 0.88458 0.35997 0.0
O370 O 0.05707 0.93852 0.3593 0.0
O371 O 0.10258 0.86772 0.45017 0.0
O372 O 0.04806 0.86921 0.42429 0.0
C373 C 0.17264 0.90204 0.35119 0.0
O374 O 0.12189 0.95581 0.37639 0.0
O375 O 0.12244 0.93141 0.43107 0.0
C376 C 0.02821 0.91924 0.35973 0.0
O377 O 0.14472 0.90505 0.33111 0.0
O378 O 0.17018 0.90295 0.38572 0.0
C379 C 0.12452 0.81322 0.39694 0.0
Fe380 Fe 0.36002 0.88125 0.65663 0.0
Fe381 Fe 0.33059 0.85678 0.5815 0.0
O382 O 0.36154 0.8514 0.61834 0.0
Fe383 Fe 0.39425 0.81628 0.61685 0.0
O384 O 0.3758 0.79526 0.65726 0.0
O385 O 0.37468 0.84666 0.68926 0.0
O386 O 0.3136 0.86683 0.66612 0.0
C387 C 0.28726 0.86915 0.64374 0.0
C388 C 0.43369 0.87623 0.64696 0.0
O389 O 0.29298 0.87338 0.60994 0.0
C390 C 0.39739 0.84114 0.54719 0.0
O391 O 0.34472 0.92124 0.63092 0.0
O392 O 0.34778 0.90269 0.57369 0.0
O393 O 0.42892 0.84196 0.64333 0.0
O394 O 0.40662 0.89718 0.649 0.0
C395 C 0.33099 0.78232 0.58632 0.0
O396 O 0.36273 0.84155 0.54651 0.0
O397 O 0.41471 0.83519 0.57643 0.0
C398 C 0.34861 0.9281 0.59737 0.0
O399 O 0.3119 0.81084 0.58727 0.0
O400 O 0.36541 0.78449 0.58997 0.0
C401 C 0.37253 0.81199 0.68735 0.0
Fe402 Fe 0.40842 0.14787 0.85831 0.0
Fe403 Fe 0.37261 0.08231 0.81804 0.0
O404 O 0.37235 0.11524 0.85398 0.0
Fe405 Fe 0.33623 0.11543 0.88538 0.0
O406 O 0.32414 0.16156 0.87371 0.0
O407 O 0.38003 0.18438 0.8775 0.0
O408 O 0.39735 0.16583 0.8139 0.0
C409 C 0.39587 0.147 0.78479 0.0
C410 C 0.39901 0.12955 0.92959 0.0
O411 O 0.39639 0.11235 0.78566 0.0
C412 C 0.34629 0.04206 0.87794 0.0
O413 O 0.44344 0.11721 0.83996 0.0
O414 O 0.41476 0.06395 0.83549 0.0
O415 O 0.36477 0.13102 0.92409 0.0
O416 O 0.42089 0.13153 0.90325 0.0
C417 C 0.30122 0.10259 0.8172 0.0
O418 O 0.34887 0.04624 0.84372 0.0
O419 O 0.34592 0.06936 0.89928 0.0
C420 C 0.44372 0.08252 0.84087 0.0
O421 O 0.33018 0.0992 0.79914 0.0
O422 O 0.30174 0.10004 0.85175 0.0
C423 C 0.34571 0.1887 0.87612 0.0
Fe424 Fe 0.5695 0.35752 0.86884 0.0
Fe425 Fe 0.6116 0.42023 0.83286 0.0
O426 O 0.60775 0.38766 0.86801 0.0
Fe427 Fe 0.64237 0.38482 0.90177 0.0
O428 O 0.65139 0.33804 0.8885 0.0
O429 O 0.59411 0.31898 0.88885 0.0
O430 O 0.58092 0.33846 0.82439 0.0
C431 C 0.58585 0.35728 0.79612 0.0
C432 C 0.57687 0.3739 0.94131 0.0
O433 O 0.58766 0.39187 0.79843 0.0
C434 C 0.63796 0.4589 0.89536 0.0
O435 O 0.53797 0.39072 0.84921 0.0
O436 O 0.5701 0.44214 0.84674 0.0
O437 O 0.61119 0.37051 0.93833 0.0
O438 O 0.5565 0.37483 0.91326 0.0
C439 C 0.68118 0.39551 0.83648 0.0
O440 O 0.63651 0.45418 0.86102 0.0
O441 O 0.63535 0.43188 0.9165 0.0
C442 C 0.53984 0.42545 0.84909 0.0
O443 O 0.65315 0.40007 0.81691 0.0
O444 O 0.67969 0.39798 0.87106 0.0
C445 C 0.62788 0.31242 0.88727 0.0
Fe446 Fe 0.82336 0.35186 0.09171 0.0
Fe447 Fe 0.85983 0.38384 0.16088 0.0
O448 O 0.85774 0.35005 0.1259 0.0
Fe449 Fe 0.89035 0.31486 0.12506 0.0
O450 O 0.90637 0.3289 0.081 0.0
O451 O 0.85201 0.33312 0.05519 0.0
O452 O 0.83944 0.39661 0.07776 0.0
C453 C 0.84237 0.4242 0.09871 0.0
C454 C 0.82438 0.27828 0.10394 0.0
O455 O 0.84116 0.42074 0.133 0.0
C456 C 0.87697 0.31878 0.19768 0.0
O457 O 0.78875 0.37128 0.12223 0.0
O458 O 0.8151 0.37026 0.17658 0.0
O459 O 0.85901 0.28035 0.1049 0.0
O460 O 0.80556 0.30697 0.10361 0.0
C461 C 0.93189 0.37804 0.14371 0.0
O462 O 0.8787 0.35335 0.19537 0.0
O463 O 0.87652 0.29873 0.1694 0.0
C464 C 0.7866 0.37031 0.15681 0.0
O465 O 0.90488 0.39895 0.14657 0.0
O466 O 0.92738 0.34354 0.14464 0.0
C467 C 0.88657 0.33241 0.05296 0.0
Fe468 Fe 0.84251 0.61754 0.39888 0.0
Fe469 Fe 0.9131 0.65062 0.36862 0.0
O470 O 0.87668 0.61816 0.36535 0.0
Fe471 Fe 0.87438 0.58643 0.32843 0.0
O472 O 0.83061 0.60366 0.31304 0.0
O473 O 0.80599 0.60244 0.36744 0.0
O474 O 0.82976 0.6637 0.38847 0.0
C475 C 0.85139 0.69086 0.38953 0.0
C476 C 0.85261 0.54458 0.3891 0.0
O477 O 0.88573 0.68657 0.39023 0.0
C478 C 0.94698 0.58581 0.34609 0.0
O479 O 0.87313 0.63258 0.43605 0.0
O480 O 0.92808 0.63297 0.41246 0.0
O481 O 0.8528 0.5496 0.35485 0.0
O482 O 0.85324 0.57129 0.4112 0.0
C483 C 0.8958 0.65223 0.29587 0.0
O484 O 0.94694 0.62052 0.34728 0.0
O485 O 0.91762 0.5676 0.34207 0.0
C486 C 0.90746 0.62994 0.43975 0.0
O487 O 0.89971 0.66999 0.32546 0.0
O488 O 0.89569 0.61753 0.29541 0.0
C489 C 0.80291 0.60589 0.33313 0.0
Fe490 Fe 0.91528 0.84807 0.87646 0.0
Fe491 Fe 0.8429 0.87614 0.90625 0.0
O492 O 0.87637 0.87601 0.87189 0.0
Fe493 Fe 0.87104 0.90365 0.83277 0.0
O494 O 0.91313 0.92858 0.84301 0.0
O495 O 0.94551 0.87922 0.85211 0.0
O496 O 0.92962 0.87165 0.91809 0.0
C497 C 0.90966 0.87466 0.9458 0.0
C498 C 0.897 0.83733 0.80478 0.0
O499 O 0.87545 0.86912 0.94354 0.0
C500 C 0.80144 0.87781 0.84067 0.0
O501 O 0.89201 0.8119 0.90177 0.0
O502 O 0.83427 0.82764 0.90042 0.0
O503 O 0.8937 0.87165 0.80212 0.0
O504 O 0.9031 0.82269 0.83521 0.0
C505 C 0.84531 0.94847 0.89018 0.0
O506 O 0.80462 0.88321 0.87481 0.0
O507 O 0.82863 0.88059 0.82001 0.0
C508 C 0.8584 0.80365 0.90355 0.0
O509 O 0.84923 0.92459 0.91438 0.0
O510 O 0.84707 0.9403 0.85655 0.0
C511 C 0.94349 0.91343 0.84764 0.0
Fe512 Fe 0.85612 0.08587 0.66335 0.0
Fe513 Fe 0.82521 0.11416 0.59063 0.0
O514 O 0.85667 0.11814 0.62749 0.0
Fe515 Fe 0.88927 0.15429 0.62811 0.0
O516 O 0.87082 0.17208 0.67016 0.0
O517 O 0.87068 0.11944 0.69891 0.0
O518 O 0.80919 0.09644 0.67453 0.0
C519 C 0.78274 0.09328 0.65213 0.0
C520 C 0.92979 0.09494 0.65446 0.0
O521 O 0.78818 0.09407 0.61794 0.0
C522 C 0.89143 0.1339 0.55621 0.0
O523 O 0.84158 0.04685 0.63406 0.0
O524 O 0.84264 0.06971 0.57868 0.0
O525 O 0.92469 0.12904 0.65248 0.0
O526 O 0.90297 0.07277 0.65432 0.0
C527 C 0.82566 0.18824 0.60055 0.0
O528 O 0.85673 0.13278 0.55653 0.0
O529 O 0.90936 0.13815 0.58574 0.0
C530 C 0.84496 0.04285 0.59985 0.0
O531 O 0.80629 0.1592 0.60023 0.0
O532 O 0.86008 0.18655 0.60402 0.0
C533 C 0.86903 0.15417 0.69938 0.0
Fe534 Fe 0.60334 0.0829 0.32779 0.0
Fe535 Fe 0.64337 0.12239 0.39068 0.0
O536 O 0.60536 0.11882 0.36061 0.0
Fe537 Fe 0.56972 0.15114 0.36283 0.0
O538 O 0.57679 0.16452 0.31566 0.0
O539 O 0.57754 0.10844 0.29355 0.0
O540 O 0.64491 0.09927 0.30607 0.0
C541 C 0.67501 0.10375 0.32299 0.0
C542 C 0.5331 0.08292 0.3517 0.0
O543 O 0.67599 0.10419 0.35767 0.0
C544 C 0.58389 0.14294 0.43577 0.0
O545 O 0.62859 0.0503 0.35571 0.0
O546 O 0.6342 0.07711 0.40954 0.0
O547 O 0.5335 0.11764 0.34981 0.0
O548 O 0.56205 0.06494 0.34792 0.0
C549 C 0.6339 0.19406 0.37199 0.0
O550 O 0.61777 0.14204 0.42894 0.0
O551 O 0.56041 0.14038 0.41021 0.0
C552 C 0.63324 0.04824 0.38999 0.0
O553 O 0.65495 0.16709 0.37329 0.0
O554 O 0.59977 0.19002 0.37622 0.0
C555 C 0.57539 0.14259 0.28873 0.0
Fe556 Fe 0.57898 0.82598 0.10701 0.0
Fe557 Fe 0.64311 0.86495 0.06908 0.0
O558 O 0.61097 0.86276 0.10511 0.0
Fe559 Fe 0.61079 0.89709 0.13955 0.0
O560 O 0.56383 0.9096 0.1285 0.0
O561 O 0.54312 0.85282 0.12871 0.0
O562 O 0.55943 0.83899 0.06359 0.0
C563 C 0.577 0.84257 0.03431 0.0
C564 C 0.59853 0.83195 0.17908 0.0
O565 O 0.61165 0.84459 0.03454 0.0
C566 C 0.68412 0.88535 0.13186 0.0
O567 O 0.60862 0.79212 0.08539 0.0
O568 O 0.66164 0.82057 0.08081 0.0
O569 O 0.59587 0.86632 0.17575 0.0
O570 O 0.59673 0.81115 0.15116 0.0
C571 C 0.62611 0.93757 0.07546 0.0
O572 O 0.68002 0.88566 0.09744 0.0
O573 O 0.657 0.88617 0.15282 0.0
C574 C 0.64307 0.79123 0.08281 0.0
O575 O 0.62721 0.90962 0.05478 0.0
O576 O 0.62628 0.93424 0.10988 0.0
C577 C 0.53731 0.88695 0.1297 0.0
Fe578 Fe 0.39601 0.65168 0.12371 0.0
Fe579 Fe 0.33153 0.61147 0.08698 0.0
O580 O 0.36308 0.61567 0.12379 0.0
Fe581 Fe 0.3623 0.58393 0.16018 0.0
O582 O 0.40945 0.57086 0.15211 0.0
O583 O 0.4311 0.62704 0.14896 0.0
O584 O 0.41615 0.63431 0.08165 0.0
C585 C 0.39795 0.62866 0.05244 0.0
C586 C 0.375 0.65304 0.19498 0.0
O587 O 0.36331 0.62894 0.05282 0.0
C588 C 0.28873 0.59142 0.1484 0.0
O589 O 0.36731 0.68365 0.09867 0.0
O590 O 0.31319 0.657 0.09585 0.0
O591 O 0.37618 0.61827 0.19518 0.0
O592 O 0.37756 0.67051 0.16546 0.0
C593 C 0.35094 0.53996 0.0971 0.0
O594 O 0.29425 0.59229 0.1143 0.0
O595 O 0.31512 0.59423 0.17092 0.0
C596 C 0.33293 0.68579 0.09532 0.0
O597 O 0.34827 0.56656 0.07564 0.0
O598 O 0.34829 0.54436 0.13136 0.0
C599 C 0.43622 0.59313 0.15251 0.0
Fe600 Fe 0.10273 0.58127 0.84505 0.0
Fe601 Fe 0.13486 0.61943 0.91286 0.0
O602 O 0.09951 0.61525 0.87965 0.0
Fe603 Fe 0.06169 0.64519 0.88022 0.0
O604 O 0.07122 0.66112 0.83419 0.0
O605 O 0.07788 0.60648 0.8101 0.0
O606 O 0.14462 0.60206 0.82779 0.0
C607 C 0.17277 0.6082 0.84743 0.0
C608 C 0.03079 0.57508 0.86259 0.0
O609 O 0.1711 0.6053 0.88186 0.0
C610 C 0.07089 0.63462 0.95371 0.0
O611 O 0.128 0.54904 0.87326 0.0
O612 O 0.12725 0.57261 0.92867 0.0
O613 O 0.02889 0.60984 0.86328 0.0
O614 O 0.06123 0.55934 0.86058 0.0
C615 C 0.12232 0.6912 0.89555 0.0
O616 O 0.10522 0.63534 0.9496 0.0
O617 O 0.04948 0.63215 0.92638 0.0
C618 C 0.12957 0.545 0.90757 0.0
O619 O 0.14483 0.66559 0.8986 0.0
O620 O 0.08818 0.68535 0.89706 0.0
C621 C 0.0736 0.64048 0.80643 0.0
Fe622 Fe 0.16329 0.37862 0.58155 0.0
Fe623 Fe 0.09883 0.33619 0.61519 0.0
O624 O 0.12752 0.37557 0.61385 0.0
Fe625 Fe 0.12017 0.41212 0.64488 0.0
O626 O 0.16508 0.40641 0.66456 0.0
O627 O 0.19448 0.40489 0.61232 0.0
O628 O 0.18449 0.33765 0.59876 0.0
C629 C 0.16882 0.30673 0.60076 0.0
C630 C 0.13909 0.44901 0.57987 0.0
O631 O 0.1342 0.30401 0.60047 0.0
C632 C 0.04966 0.39462 0.6265 0.0
O633 O 0.13828 0.35279 0.54525 0.0
O634 O 0.08376 0.34386 0.5689 0.0
O635 O 0.13643 0.44832 0.61434 0.0
O636 O 0.14466 0.41991 0.56197 0.0
C637 C 0.10718 0.34933 0.68828 0.0
O638 O 0.05815 0.3612 0.62957 0.0
O639 O 0.0743 0.41934 0.62682 0.0
C640 C 0.10411 0.34761 0.5416 0.0
O641 O 0.11186 0.32664 0.66239 0.0
O642 O 0.10289 0.38298 0.68152 0.0
C643 C 0.19452 0.40714 0.64695 0.0
Fe644 Fe 0.65662 0.61782 0.57907 0.0
Fe645 Fe 0.62301 0.58172 0.64677 0.0
O646 O 0.62278 0.617 0.61365 0.0
Fe647 Fe 0.58867 0.65131 0.61494 0.0
O648 O 0.57251 0.63978 0.56867 0.0
O649 O 0.6269 0.63721 0.54393 0.0
O650 O 0.64286 0.57243 0.56197 0.0
C651 C 0.6417 0.54392 0.58128 0.0
C652 C 0.65295 0.69132 0.59501 0.0
O653 O 0.6401 0.54635 0.61577 0.0
C654 C 0.60279 0.64465 0.68845 0.0
O655 O 0.6929 0.59846 0.60761 0.0
O656 O 0.6692 0.59397 0.66231 0.0
O657 O 0.61858 0.68798 0.59795 0.0
O658 O 0.67293 0.66334 0.59329 0.0
C659 C 0.54913 0.58658 0.63456 0.0
O660 O 0.60579 0.61039 0.68397 0.0
O661 O 0.6018 0.66574 0.66127 0.0
C662 C 0.69677 0.59447 0.64177 0.0
O663 O 0.57693 0.56645 0.63399 0.0
O664 O 0.5525 0.62107 0.63236 0.0
C665 C 0.59257 0.63992 0.5407 0.0
Fe666 Fe 0.40699 0.33863 0.36538 0.0
Fe667 Fe 0.36561 0.39666 0.32242 0.0
O668 O 0.36958 0.36859 0.36135 0.0
Fe669 Fe 0.33639 0.37076 0.39593 0.0
O670 O 0.32521 0.3227 0.39085 0.0
O671 O 0.38187 0.30337 0.39031 0.0
O672 O 0.39374 0.31431 0.3237 0.0
C673 C 0.38897 0.32994 0.29355 0.0
C674 C 0.4032 0.36502 0.43512 0.0
O675 O 0.38757 0.36442 0.29177 0.0
C676 C 0.34203 0.44285 0.37925 0.0
O677 O 0.43871 0.36897 0.34159 0.0
O678 O 0.40834 0.41987 0.3336 0.0
O679 O 0.36867 0.36238 0.43323 0.0
O680 O 0.42258 0.36085 0.40718 0.0
C681 C 0.29535 0.37328 0.33008 0.0
O682 O 0.34264 0.43399 0.34581 0.0
O683 O 0.34512 0.4191 0.40369 0.0
C684 C 0.438 0.40349 0.33865 0.0
O685 O 0.32263 0.37502 0.30939 0.0
O686 O 0.29857 0.37921 0.3642 0.0
C687 C 0.34794 0.29737 0.39376 0.0
C688 C 0.06799 0.13586 0.28862 0.0
C689 C 0.05779 0.1721 0.29609 0.0
H690 H 0.08862 0.09774 0.24945 0.0
C691 C 0.06406 0.19893 0.26933 0.0
H692 H 0.06388 0.11459 0.30865 0.0
C693 C 0.07814 0.18927 0.23508 0.0
C694 C 0.08642 0.15258 0.2269 0.0
H695 H 0.05665 0.22721 0.27422 0.0
H696 H 0.08111 0.21027 0.21458 0.0
C697 C 0.08224 0.12626 0.25454 0.0
C698 C 0.05141 0.82892 0.54553 0.0
C699 C 0.01309 0.83091 0.54726 0.0
H700 H 0.09922 0.84001 0.51402 0.0
C701 C -0.00571 0.85189 0.52129 0.0
H702 H 0.06672 0.8133 0.56535 0.0
C703 C 0.01282 0.86691 0.49181 0.0
C704 C 0.05052 0.8615 0.48793 0.0
H705 H 0.96483 0.85456 0.52222 0.0
H706 H -0.00278 0.8808 0.47089 0.0
C707 C 0.07003 0.84423 0.51609 0.0
C708 C 0.3666 0.79134 0.78713 0.0
C709 C 0.39127 0.76235 0.78991 0.0
H710 H 0.34141 0.83006 0.7517 0.0
C711 C 0.40457 0.74577 0.75792 0.0
H712 H 0.35577 0.8045 0.81135 0.0
C713 C 0.39582 0.76005 0.72378 0.0
C714 C 0.37427 0.79146 0.72143 0.0
H715 H 0.42335 0.72311 0.75939 0.0
H716 H 0.4082 0.7483 0.69961 0.0
C717 C 0.35848 0.80606 0.75309 0.0
C718 C 0.46112 0.1623 0.00592 0.0
C719 C 0.43474 0.17161 0.03182 0.0
H720 H 0.4703 0.14093 0.95211 0.0
C721 C 0.3989 0.1578 0.02792 0.0
H722 H 0.48898 0.1727 0.00863 0.0
C723 C 0.3882 0.13952 -0.00413 0.0
C724 C 0.41311 0.13564 0.96712 0.0
H725 H 0.37832 0.16442 0.04798 0.0
H726 H 0.35956 0.132 -0.00776 0.0
C727 C 0.4503 0.1444 0.97348 0.0
C728 C 0.06145 0.78811 0.23171 0.0
C729 C 0.05765 0.812 0.2022 0.0
H730 H 0.07159 0.78384 0.28928 0.0
C731 C 0.07053 0.84828 0.20566 0.0
H732 H 0.05128 0.76006 0.22957 0.0
C733 C 0.08164 0.86208 0.23975 0.0
C734 C 0.07968 0.83971 0.27073 0.0
H735 H 0.06761 0.86711 0.18313 0.0
H736 H 0.08841 0.89105 0.2423 0.0
C737 C 0.07232 0.80196 0.26603 0.0
C738 C 0.41744 0.85269 0.4473 0.0
C739 C 0.44876 0.8312 0.44364 0.0
H740 H 0.37627 0.87237 0.48345 0.0
C741 C 0.46575 0.81716 0.47502 0.0
H742 H 0.40381 0.86384 0.42352 0.0
C743 C 0.45024 0.82241 0.50929 0.0
C744 C 0.41714 0.84115 0.51248 0.0
H745 H 0.49008 0.80069 0.47287 0.0
H746 H 0.46294 0.80987 0.53286 0.0
C747 C 0.40152 0.85732 0.48148 0.0
C748 C 0.38757 0.22229 0.71674 0.0
C749 C 0.41093 0.21014 0.68898 0.0
H750 H 0.36507 0.21161 0.76929 0.0
C751 C 0.42404 0.17408 0.69001 0.0
H752 H 0.37649 0.24967 0.71652 0.0
C753 C 0.4171 0.15209 0.7203 0.0
C754 C 0.39739 0.1662 0.74987 0.0
H755 H 0.4419 0.16384 0.66887 0.0
H756 H 0.42939 0.12529 0.72176 0.0
C757 C 0.38122 0.20065 0.74711 0.0
C758 C 0.0918 0.18845 0.94682 0.0
C759 C 0.05461 0.19505 0.94028 0.0
H760 H 0.13221 0.16745 0.9832 0.0
C761 C 0.02879 0.18267 0.96586 0.0
H762 H 0.11233 0.1975 0.92762 0.0
C763 C 0.0402 0.1658 -0.00173 0.0
C764 C 0.07762 0.16047 0.00543 0.0
H765 H -0.00013 0.1875 0.96166 0.0
H766 H 0.01983 0.15785 0.01809 0.0
C767 C 0.10313 0.17112 0.97878 0.0
C768 C 0.28615 0.05664 0.14641 0.0
C769 C 0.28938 0.04457 0.18259 0.0
H770 H 0.2521 0.08059 0.10564 0.0
C771 C 0.26009 0.05039 0.20663 0.0
H772 H 0.30822 0.05284 0.12726 0.0
C773 C 0.22755 0.0661 0.19415 0.0
C774 C 0.22371 0.0766 0.15745 0.0
H775 H 0.26167 0.04143 0.23475 0.0
H776 H 0.20503 0.06888 0.21296 0.0
C777 C 0.25384 0.07262 0.13405 0.0
C778 C 0.16725 0.05237 0.41548 0.0
C779 C 0.17937 0.05346 0.45195 0.0
H780 H 0.13819 0.02204 0.37402 0.0
C781 C 0.16528 0.02809 0.47687 0.0
H782 H 0.17772 0.07197 0.39597 0.0
C783 C 0.14337 -0.00127 0.46421 0.0
C784 C 0.13517 -0.00504 0.42664 0.0
H785 H 0.17446 0.02855 0.50519 0.0
H786 H 0.13571 0.97746 0.48322 0.0
C787 C 0.14481 0.0236 0.40298 0.0
C788 C 0.21222 0.87696 0.71212 0.0
C789 C 0.1899 0.90312 0.6954 0.0
H790 H 0.26088 0.84546 0.70848 0.0
C791 C 0.19537 0.91147 0.6584 0.0
H792 H 0.20823 0.86937 0.74039 0.0
C793 C 0.22556 0.89752 0.64002 0.0
C794 C 0.25057 0.87526 0.65856 0.0
H795 H 0.17844 0.93133 0.6447 0.0
H796 H 0.23102 0.90681 0.61254 0.0
C797 C 0.24245 0.86332 0.69392 0.0
C798 C 0.33549 0.93915 0.88516 0.0
C799 C 0.31819 0.93605 0.91914 0.0
H800 H 0.35768 0.9755 0.84517 0.0
C801 C 0.31251 0.96771 0.94041 0.0
H802 H 0.34009 0.91512 0.8682 0.0
C803 C 0.32285 0.00204 0.92747 0.0
C804 C 0.33851 0.00542 0.89272 0.0
H805 H 0.29941 0.96604 0.9668 0.0
H806 H 0.31738 0.02601 0.94423 0.0
C807 C 0.34531 0.97365 0.8719 0.0
C808 C 0.27405 0.89039 0.33788 0.0
C809 C 0.27873 0.90602 0.30328 0.0
H810 H 0.23648 0.87747 0.38058 0.0
C811 C 0.24801 0.91763 0.28346 0.0
H812 H 0.29739 0.88144 0.35379 0.0
C813 C 0.2133 0.91513 0.2986 0.0
C814 C 0.20884 0.90163 0.33412 0.0
H815 H 0.25095 0.92971 0.25668 0.0
H816 H 0.19019 0.92517 0.28304 0.0
C817 C 0.23934 0.88853 0.35335 0.0
C818 C 0.35749 0.00814 0.53499 0.0
C819 C 0.33264 0.03266 0.55063 0.0
H820 H 0.38179 0.95533 0.53776 0.0
C821 C 0.31889 0.02559 0.58565 0.0
H822 H 0.36913 0.01318 0.50834 0.0
C823 C 0.32655 -0.0076 0.60269 0.0
C824 C 0.34773 0.96607 0.58467 0.0
H825 H 0.29981 0.04408 0.59842 0.0
H826 H 0.31345 0.98615 0.62838 0.0
C827 C 0.36468 0.97496 0.5517 0.0
C828 C 0.20051 0.09011 0.80516 0.0
C829 C 0.19938 0.07136 0.7715 0.0
H830 H 0.23454 0.11589 0.84603 0.0
C831 C 0.22974 0.07285 0.74845 0.0
H832 H 0.17717 0.08922 0.82319 0.0
C833 C 0.26297 0.08732 0.76178 0.0
C834 C 0.26559 0.10036 0.79811 0.0
H835 H 0.22926 0.05828 0.7224 0.0
H836 H 0.28718 0.08435 0.74524 0.0
C837 C 0.23349 0.10481 0.81837 0.0
C838 C 0.13955 0.94245 0.06067 0.0
C839 C 0.16414 0.94096 0.03149 0.0
H840 H 0.11023 0.97676 0.09786 0.0
C841 C 0.17499 0.97389 0.0147 0.0
H842 H 0.13058 0.91758 0.07403 0.0
C843 C 0.16278 0.00769 0.02781 0.0
C844 C 0.14 0.00934 0.05843 0.0
H845 H 0.19361 0.97361 -0.00816 0.0
H846 H 0.17279 0.03258 0.01518 0.0
C847 C 0.12788 0.97633 0.07423 0.0
C848 C 0.21733 0.26213 0.06321 0.0
C849 C 0.19652 0.2942 0.06625 0.0
H850 H 0.22005 0.20431 0.07229 0.0
C851 C 0.1633 0.29258 0.08514 0.0
H852 H 0.24328 0.26249 0.04918 0.0
C853 C 0.14997 0.25915 0.09838 0.0
C854 C 0.16967 0.22662 0.09326 0.0
H855 H 0.14673 0.31677 0.08823 0.0
H856 H 0.12342 0.25855 0.11127 0.0
C857 C 0.20413 0.22875 0.0767 0.0
C858 C 0.6412 0.21506 0.91685 0.0
C859 C 0.67529 0.20803 0.90098 0.0
H860 H 0.59895 0.25454 0.92473 0.0
C861 C 0.68954 0.23266 0.87531 0.0
H862 H 0.62956 0.19648 0.93665 0.0
C863 C 0.6726 0.26588 0.86926 0.0
C864 C 0.64071 0.27464 0.88808 0.0
H865 H 0.71542 0.22766 0.86211 0.0
H866 H 0.68553 0.28559 0.85135 0.0
C867 C 0.62384 0.24829 0.91024 0.0
C868 C 0.03273 0.38288 0.1632 0.0
C869 C 0.0369 0.41972 0.174 0.0
H870 H -0.00418 0.34068 0.14442 0.0
C871 C 0.00901 0.44449 0.16623 0.0
H872 H 0.05404 0.36339 0.16911 0.0
C873 C 0.97516 0.43142 0.15303 0.0
C874 C 0.96928 0.39354 0.14731 0.0
H875 H 0.0117 0.47302 0.17471 0.0
H876 H 0.95284 0.45047 0.15054 0.0
C877 C -0.00083 0.36987 0.14967 0.0
C878 C 0.84337 0.79386 0.39367 0.0
C879 C 0.80859 0.79755 0.40915 0.0
H880 H 0.88456 0.75674 0.3758 0.0
C881 C 0.78718 0.76613 0.41582 0.0
H882 H 0.86045 0.81775 0.38847 0.0
C883 C 0.80075 0.73147 0.40831 0.0
C884 C 0.83627 0.72761 0.39464 0.0
H885 H 0.76022 0.76832 0.42764 0.0
H886 H 0.78387 0.70768 0.41447 0.0
C887 C 0.85727 0.75906 0.38678 0.0
C888 C 0.96142 0.02929 0.15916 0.0
C889 C 0.93286 0.05472 0.16132 0.0
H890 H 0.01779 0.0202 0.14684 0.0
C891 C 0.9389 0.09027 0.14811 0.0
H892 H 0.95763 0.00153 0.16881 0.0
C893 C 0.97338 0.10091 0.13544 0.0
C894 C 0.00268 0.07627 0.13567 0.0
H895 H 0.91749 0.11045 0.14901 0.0
H896 H 0.97744 0.12903 0.12694 0.0
C897 C -0.00405 0.03994 0.14643 0.0
C898 C 0.2623 0.7147 0.54579 0.0
C899 C 0.28603 0.68944 0.52979 0.0
H900 H 0.25817 0.76485 0.57651 0.0
C901 C 0.32342 0.69099 0.53845 0.0
H902 H 0.23332 0.71396 0.53909 0.0
C903 C 0.33757 0.71963 0.56002 0.0
C904 C 0.31458 0.74767 0.57234 0.0
H905 H 0.34206 0.67162 0.52627 0.0
H906 H 0.36694 0.72131 0.56433 0.0
C907 C 0.27656 0.74395 0.56681 0.0
C908 C 0.04032 0.55723 0.31567 0.0
C909 C 0.03994 0.52037 0.32669 0.0
H910 H 0.01064 0.60749 0.31359 0.0
C911 C 0.01214 0.50797 0.34996 0.0
H912 H 0.06157 0.56767 0.29799 0.0
C913 C 0.98294 0.53046 0.35824 0.0
C914 C 0.98143 0.56594 0.34406 0.0
H915 H 0.01132 0.47995 0.35947 0.0
H916 H 0.96051 0.51939 0.37406 0.0
C917 C 0.01121 0.58001 0.32451 0.0
C918 C 0.47129 0.49384 0.81651 0.0
C919 C 0.43883 0.47873 0.83048 0.0
H920 H 0.52936 0.48888 0.81208 0.0
C921 C 0.44057 0.44864 0.85406 0.0
H922 H 0.47067 0.51717 0.79844 0.0
C923 C 0.47388 0.43217 0.86124 0.0
C924 C 0.50599 0.44598 0.84559 0.0
H925 H 0.416 0.43648 0.86536 0.0
H926 H 0.47439 0.40795 0.87813 0.0
C927 C 0.50479 0.47775 0.82433 0.0
C928 C 0.88254 0.80934 0.70685 0.0
C929 C 0.90887 0.78203 0.70293 0.0
H930 H 0.85853 0.84859 0.74277 0.0
C931 C 0.92756 0.76934 0.73403 0.0
H932 H 0.8676 0.8195 0.68338 0.0
C933 C 0.92201 0.78576 0.76812 0.0
C934 C 0.89823 0.81539 0.77115 0.0
H935 H 0.94778 0.74803 0.73171 0.0
H936 H 0.93801 0.77692 0.79146 0.0
C937 C 0.87754 0.82615 0.7407 0.0
C938 C 0.90453 0.15173 0.456 0.0
C939 C 0.94067 0.16516 0.45594 0.0
H940 H 0.86066 0.1305 0.48787 0.0
C941 C 0.96284 0.16094 0.48715 0.0
H942 H 0.88686 0.15526 0.43231 0.0
C943 C 0.94765 0.14762 0.51948 0.0
C944 C 0.91014 0.1384 0.52078 0.0
H945 H -0.00939 0.17183 0.48784 0.0
H946 H 0.96451 0.14757 0.54406 0.0
C947 C 0.88944 0.13814 0.48807 0.0
C948 C 0.54226 0.14398 0.19039 0.0
C949 C 0.542 0.18171 0.18331 0.0
H950 H 0.55333 0.10206 0.22904 0.0
C951 C 0.55571 0.20649 0.21009 0.0
H952 H 0.53192 0.12428 0.1702 0.0
C953 C 0.56743 0.19383 0.24419 0.0
C954 C 0.5661 0.15615 0.25185 0.0
H955 H 0.55561 0.23578 0.20544 0.0
H956 H 0.57667 0.2136 0.26482 0.0
C957 C 0.55444 0.13131 0.22418 0.0
C958 C 0.5514 0.80906 0.93947 0.0
C959 C 0.51333 0.81416 0.9397 0.0
H960 H 0.60187 0.81446 0.96967 0.0
C961 C 0.49804 0.83505 0.9681 0.0
H962 H 0.56406 0.79339 0.91779 0.0
C963 C 0.51953 0.84653 -0.00209 0.0
C964 C 0.55677 0.83791 -0.00047 0.0
H965 H 0.4689 0.84003 0.96885 0.0
H966 H 0.50655 0.8603 0.02066 0.0
C967 C 0.57306 0.82103 0.9692 0.0
C968 C 0.90867 0.18168 0.79105 0.0
C969 C 0.90285 0.21969 0.7907 0.0
H970 H 0.90172 0.13054 0.7622 0.0
C971 C 0.87934 0.23418 0.76401 0.0
H972 H 0.92625 0.16963 0.81157 0.0
C973 C 0.8655 0.21186 0.73576 0.0
C974 C 0.8746 0.17466 0.73394 0.0
H975 H 0.87372 0.26325 0.76335 0.0
H976 H 0.84968 0.22425 0.71403 0.0
C977 C 0.89448 0.15924 0.76288 0.0
C978 C 0.52485 0.17659 0.51343 0.0
C979 C 0.55136 0.18659 0.54013 0.0
H980 H 0.51416 0.15461 0.45972 0.0
C981 C 0.58813 0.1781 0.53381 0.0
H982 H 0.4962 0.18244 0.51752 0.0
C983 C 0.59843 0.16203 0.50061 0.0
C984 C 0.57219 0.15415 0.47297 0.0
H985 H 0.60922 0.18516 0.55388 0.0
H986 H 0.62721 0.15721 0.4961 0.0
C987 C 0.53514 0.16056 0.48023 0.0
C988 C 0.56796 0.7708 0.25586 0.0
C989 C 0.56701 0.79672 0.28462 0.0
H990 H 0.57884 0.76168 0.19892 0.0
C991 C 0.58456 0.83081 0.2805 0.0
H992 H 0.55411 0.74446 0.25836 0.0
C993 C 0.59876 0.84063 0.24672 0.0
C994 C 0.59493 0.81677 0.21628 0.0
H995 H 0.58398 0.85124 0.30229 0.0
H996 H 0.60961 0.86825 0.24367 0.0
C997 C 0.58178 0.78082 0.22172 0.0
C998 C 0.91576 0.87449 0.04746 0.0
C999 C 0.94529 0.85087 0.05243 0.0
H1000 H 0.8815 0.90131 0.00867 0.0
C1001 C 0.9678 0.84234 0.02272 0.0
H1002 H 0.89834 0.88194 0.07007 0.0
C1003 C 0.95858 0.85404 -0.01223 0.0
C1004 C 0.92642 0.87381 0.98224 0.0
H1005 H -0.00875 0.82483 0.02611 0.0
H1006 H 0.97463 0.84464 0.96483 0.0
C1007 C 0.90623 0.88571 0.01245 0.0
C1008 C 0.6993 0.87374 0.83477 0.0
C1009 C 0.69323 0.89374 0.80278 0.0
H1010 H 0.73919 0.85266 0.87186 0.0
C1011 C 0.72276 0.90243 0.78005 0.0
H1012 H 0.6769 0.8664 0.85256 0.0
C1013 C 0.75828 0.89398 0.79077 0.0
C1014 C 0.76459 0.87738 0.82463 0.0
H1015 H 0.71861 0.91731 0.7549 0.0
H1016 H 0.78082 0.90303 0.77394 0.0
C1017 C 0.73485 0.86586 0.84579 0.0
C1018 C 0.8135 0.94793 0.57339 0.0
C1019 C 0.82927 0.94498 0.53855 0.0
H1020 H 0.80658 0.98209 0.62094 0.0
C1021 C 0.85673 0.97025 0.52863 0.0
H1022 H 0.79253 0.92863 0.58194 0.0
C1023 C 0.86428 0.00086 0.55064 0.0
C1024 C 0.84507 0.00619 0.58317 0.0
H1025 H 0.86998 0.96828 0.50232 0.0
H1026 H 0.88314 0.02172 0.54091 0.0
C1027 C 0.82149 0.97848 0.59572 0.0
C1028 C 0.77545 0.09108 0.30831 0.0
C1029 C 0.77491 0.07246 0.27456 0.0
H1030 H 0.74382 0.11648 0.34999 0.0
C1031 C 0.74291 0.07229 0.25293 0.0
H1032 H 0.79978 0.09106 0.32557 0.0
C1033 C 0.71043 0.086 0.26721 0.0
C1034 C 0.70987 0.09995 0.30326 0.0
H1035 H 0.74185 0.05744 0.22705 0.0
H1036 H 0.68531 0.08229 0.25147 0.0
C1037 C 0.74319 0.10499 0.32249 0.0
C1038 C 0.64123 0.04039 0.06997 0.0
C1039 C 0.65083 0.04469 0.03314 0.0
H1040 H 0.62553 0.00338 0.11207 0.0
C1041 C 0.64797 0.01408 0.00932 0.0
H1042 H 0.64282 0.06339 0.08901 0.0
C1043 C 0.63813 0.97949 0.02259 0.0
C1044 C 0.63091 0.97476 0.05995 0.0
H1045 H 0.65495 0.01644 0.98071 0.0
H1046 H 0.63774 0.95623 0.00384 0.0
C1047 C 0.63137 0.00586 0.08321 0.0
C1048 C 0.70895 0.05772 0.71501 0.0
C1049 C 0.68169 0.0459 0.68982 0.0
H1050 H 0.762 0.08238 0.72303 0.0
C1051 C 0.68608 0.05397 0.65262 0.0
H1052 H 0.70631 0.05229 0.74395 0.0
C1053 C 0.71809 0.07135 0.6406 0.0
C1054 C 0.74642 0.08099 0.66552 0.0
H1055 H 0.6655 0.04552 0.63252 0.0
H1056 H 0.72124 0.07573 0.61153 0.0
C1057 C 0.74093 0.07507 0.70302 0.0
C1058 C 0.67063 0.95248 0.39309 0.0
C1059 C 0.68271 0.95036 0.42948 0.0
H1060 H 0.64449 0.98452 0.35238 0.0
C1061 C 0.6734 0.97817 0.45448 0.0
H1062 H 0.67793 0.93153 0.37329 0.0
C1063 C 0.65509 0.00938 0.44236 0.0
C1064 C 0.64558 0.01287 0.40515 0.0
H1065 H 0.68312 0.97733 0.48258 0.0
H1066 H 0.65043 0.0316 0.46161 0.0
C1067 C 0.65179 0.98313 0.38114 0.0
C1068 C 0.75819 0.8847 0.20315 0.0
C1069 C 0.78243 0.91155 0.1898 0.0
H1070 H 0.70749 0.85559 0.1949 0.0
C1071 C 0.77805 0.92363 0.15361 0.0
H1072 H 0.76121 0.87429 0.23065 0.0
C1073 C 0.74728 0.9125 0.13294 0.0
C1074 C 0.72068 0.88949 0.14848 0.0
H1075 H 0.79645 0.94411 0.14247 0.0
H1076 H 0.74274 0.92441 0.10629 0.0
C1077 C 0.72735 0.87408 0.1828 0.0
C1078 C 0.81956 0.04759 0.88594 0.0
C1079 C 0.79773 0.05079 0.91712 0.0
H1080 H 0.85195 0.01209 0.8529 0.0
C1081 C 0.79332 0.02079 0.94038 0.0
H1082 H 0.82341 0.07052 0.86772 0.0
C1083 C 0.81027 -0.01215 0.93243 0.0
C1084 C 0.83123 0.98429 0.9007 0.0
H1085 H 0.77695 0.02282 0.96485 0.0
H1086 H 0.80598 0.96488 0.9505 0.0
C1087 C 0.83591 0.01437 0.87756 0.0
C1088 C 0.80592 0.72576 0.9454 0.0
C1089 C 0.829 0.69621 0.93813 0.0
H1090 H 0.79689 0.78309 0.93938 0.0
C1091 C 0.86143 0.70201 0.91873 0.0
H1092 H 0.78057 0.72185 0.96007 0.0
C1093 C 0.87093 0.73711 0.90725 0.0
C1094 C 0.84775 0.7666 0.91442 0.0
H1095 H 0.8796 0.67956 0.91281 0.0
H1096 H 0.89629 0.74116 0.89263 0.0
C1097 C 0.81505 0.76067 0.93331 0.0
C1098 C 0.26884 0.75541 0.05385 0.0
C1099 C 0.2939 0.78347 0.045 0.0
H1100 H 0.26147 0.70188 0.07681 0.0
C1101 C 0.33008 0.78158 0.05764 0.0
H1102 H 0.24089 0.7561 0.04367 0.0
C1103 C 0.34178 0.75099 0.07676 0.0
C1104 C 0.31776 0.72105 0.08268 0.0
H1105 H 0.34992 0.80271 0.05067 0.0
H1106 H 0.37042 0.74983 0.08462 0.0
C1107 C 0.28071 0.72426 0.07247 0.0
C1108 C 0.97069 0.49202 0.84622 0.0
C1109 C 0.94224 0.50687 0.82515 0.0
H1110 H 0.0211 0.50234 0.87504 0.0
C1111 C 0.93974 0.54517 0.82249 0.0
H1112 H 0.97312 0.46264 0.8493 0.0
C1113 C 0.96717 0.56798 0.83764 0.0
C1114 C -0.00242 0.55271 0.8553 0.0
H1115 H 0.91788 0.55745 0.80683 0.0
H1116 H 0.96591 0.59723 0.83304 0.0
C1117 C -0.00179 0.51473 0.86099 0.0
C1118 C 0.19468 0.2078 0.58374 0.0
C1119 C 0.23277 0.21103 0.57926 0.0
H1120 H 0.14459 0.23541 0.59431 0.0
C1121 C 0.25006 0.24514 0.58637 0.0
H1122 H 0.18051 0.18187 0.57873 0.0
C1123 C 0.22944 0.2759 0.59519 0.0
C1124 C 0.19106 0.27323 0.59715 0.0
H1125 H 0.27938 0.24855 0.58342 0.0
H1126 H 0.24352 0.30208 0.59898 0.0
C1127 C 0.17405 0.23856 0.59263 0.0
C1128 C 0.0433 0.93589 0.84748 0.0
C1129 C 0.04552 0.959 0.81713 0.0
H1130 H 0.00842 0.90339 0.88105 0.0
C1131 C 0.01323 0.9721 0.80098 0.0
H1132 H 0.06771 0.92574 0.86078 0.0
C1133 C 0.97923 0.95967 0.81304 0.0
C1134 C 0.97741 0.93372 0.84096 0.0
H1135 H 0.01424 -0.00961 0.77785 0.0
H1136 H 0.95469 0.96818 0.79877 0.0
C1137 C 0.00945 0.92311 0.85911 0.0
C1138 C 0.70629 0.2668 0.36512 0.0
C1139 C 0.69442 0.29206 0.39161 0.0
H1140 H 0.69581 0.21535 0.33807 0.0
C1141 C 0.65838 0.2892 0.40453 0.0
H1142 H 0.73361 0.26873 0.35401 0.0
C1143 C 0.63657 0.25864 0.39506 0.0
C1144 C 0.65079 0.23079 0.37279 0.0
H1145 H 0.64832 0.30852 0.42465 0.0
H1146 H 0.61024 0.25513 0.408 0.0
C1147 C 0.68473 0.23619 0.35603 0.0
C1148 C 0.96735 0.44888 0.65509 0.0
C1149 C 0.94302 0.42011 0.66364 0.0
H1150 H 0.02098 0.46342 0.6364 0.0
C1151 C 0.95077 0.38436 0.65182 0.0
H1152 H 0.96203 0.47669 0.66413 0.0
C1153 C 0.98431 0.37673 0.6359 0.0
C1154 C 0.01098 0.40466 0.63213 0.0
H1155 H 0.9323 0.36176 0.65798 0.0
H1156 H -0.00951 0.34839 0.62964 0.0
C1157 C 0.00128 0.44119 0.63954 0.0
C1158 C 0.53402 0.5956 0.18726 0.0
C1159 C 0.542 0.55821 0.18931 0.0
H1160 H 0.49465 0.63588 0.17363 0.0
C1161 C 0.516 0.53214 0.17634 0.0
H1162 H 0.55358 0.61625 0.197 0.0
C1163 C 0.48175 0.54332 0.16348 0.0
C1164 C 0.47324 0.58076 0.16287 0.0
H1165 H 0.52138 0.50306 0.17785 0.0
H1166 H 0.4617 0.52268 0.15485 0.0
C1167 C 0.50016 0.60678 0.1739 0.0
C1168 C 0.56047 0.70197 0.76363 0.0
C1169 C 0.56134 0.67762 0.79327 0.0
H1170 H 0.57337 0.71105 0.70735 0.0
C1171 C 0.58042 0.64472 0.78936 0.0
H1172 H 0.54629 0.72776 0.76579 0.0
C1173 C 0.59601 0.63521 0.75585 0.0
C1174 C 0.59298 0.6584 0.72544 0.0
H1175 H 0.58195 0.62548 0.81165 0.0
H1176 H 0.60907 0.60884 0.75335 0.0
C1177 C 0.57618 0.69251 0.73011 0.0
C1178 C 0.50281 0.36206 0.01055 0.0
C1179 C 0.51955 0.33808 0.03525 0.0
H1180 H 0.5082 0.39264 0.96133 0.0
C1181 C 0.55743 0.33246 0.03294 0.0
H1182 H 0.4738 0.36756 0.01196 0.0
C1183 C 0.57724 0.34716 0.00394 0.0
C1184 C 0.55934 0.36745 0.97682 0.0
H1185 H 0.57122 0.31446 0.0518 0.0
H1186 H 0.60575 0.34003 0.00118 0.0
C1187 C 0.52249 0.37646 0.98149 0.0
C1188 C 0.91658 0.25927 0.27072 0.0
C1189 C 0.90792 0.27953 0.30231 0.0
H1190 H 0.91263 0.25551 0.21231 0.0
C1191 C 0.88476 0.30975 0.29944 0.0
H1192 H 0.93406 0.2356 0.27229 0.0
C1193 C 0.87291 0.3213 0.26522 0.0
C1194 C 0.88348 0.30242 0.23349 0.0
H1195 H 0.87745 0.32572 0.32339 0.0
H1196 H 0.85668 0.34586 0.26345 0.0
C1197 C 0.90414 0.27047 0.23649 0.0
C1198 C 0.96895 0.66053 0.51745 0.0
C1199 C 0.94293 0.66234 0.54535 0.0
H1200 H 0.97789 0.64854 0.46078 0.0
C1201 C 0.90931 0.64378 0.54092 0.0
H1202 H -0.00491 0.6748 0.52043 0.0
C1203 C 0.8995 0.62868 0.50701 0.0
C1204 C 0.923 0.63267 0.47708 0.0
H1205 H 0.88903 0.64469 0.56232 0.0
H1206 H 0.87201 0.61752 0.50335 0.0
C1207 C 0.95893 0.64583 0.4832 0.0
C1208 C 0.56454 0.28737 0.72184 0.0
C1209 C 0.56054 0.31061 0.69184 0.0
H1210 H 0.57531 0.28427 0.77941 0.0
C1211 C 0.57307 0.34704 0.6945 0.0
H1212 H 0.55454 0.25923 0.7203 0.0
C1213 C 0.58451 0.36151 0.72821 0.0
C1214 C 0.58308 0.33973 0.75965 0.0
H1215 H 0.56988 0.36538 0.6716 0.0
H1216 H 0.59126 0.39053 0.73009 0.0
C1217 C 0.57564 0.30193 0.75579 0.0
C1218 C 0.95458 0.31468 0.97842 0.0
C1219 C 0.93599 0.32789 0.94761 0.0
H1220 H 0.9535 0.30596 0.03606 0.0
C1221 C 0.90202 0.34483 0.95195 0.0
H1222 H 0.98082 0.30151 0.97575 0.0
C1223 C 0.88596 0.34663 0.98637 0.0
C1224 C 0.90398 0.33215 0.01694 0.0
H1225 H 0.88702 0.355 0.92853 0.0
H1226 H 0.85928 0.35889 -0.01103 0.0
C1227 C 0.93887 0.3171 0.01286 0.0
C1228 C 0.88566 0.73047 0.23124 0.0
C1229 C 0.90545 0.71793 0.20093 0.0
H1230 H 0.86772 0.7193 0.28545 0.0
C1231 C 0.91637 0.68109 0.19959 0.0
H1232 H 0.8764 0.75851 0.23299 0.0
C1233 C 0.91109 0.65849 0.22975 0.0
C1234 C 0.89523 0.67269 0.26158 0.0
H1235 H 0.93141 0.67052 0.17647 0.0
H1236 H 0.92179 0.63095 0.22912 0.0
C1237 C 0.88097 0.70816 0.26145 0.0
C1238 C 0.58863 0.66656 0.44085 0.0
C1239 C 0.5529 0.67969 0.4372 0.0
H1240 H 0.62881 0.64307 0.47591 0.0
C1241 C 0.52877 0.67565 0.46675 0.0
H1242 H 0.60782 0.66891 0.41859 0.0
C1243 C 0.54089 0.66096 0.49997 0.0
C1244 C 0.57734 0.64984 0.50427 0.0
H1245 H 0.50098 0.68541 0.46484 0.0
H1246 H 0.52216 0.65981 0.5227 0.0
C1247 C 0.60064 0.65171 0.47386 0.0
C1248 C 0.79532 0.56341 0.64349 0.0
C1249 C 0.79859 0.54886 0.67876 0.0
H1250 H 0.76102 0.58983 0.60442 0.0
C1251 C 0.76955 0.55358 0.70332 0.0
H1252 H 0.81721 0.56059 0.62396 0.0
C1253 C 0.73713 0.57036 0.69211 0.0
C1254 C 0.73302 0.58286 0.65607 0.0
H1255 H 0.77118 0.54292 0.73082 0.0
H1256 H 0.71474 0.57199 0.7112 0.0
C1257 C 0.763 0.58026 0.63232 0.0
C1258 C 0.67727 0.53017 0.96081 0.0
C1259 C 0.69515 0.55331 0.93608 0.0
H1260 H 0.64485 0.48125 0.96713 0.0
C1261 C 0.68771 0.54958 0.89854 0.0
H1262 H 0.68276 0.53262 -0.01004 0.0
C1263 C 0.6658 0.52062 0.88552 0.0
C1264 C 0.65181 0.49444 0.90986 0.0
H1265 H 0.7011 0.56737 0.87909 0.0
H1266 H 0.66256 0.5171 0.85617 0.0
C1267 C 0.65589 0.50062 0.94774 0.0
C1268 C 0.69562 0.41248 0.17642 0.0
C1269 C 0.69393 0.40778 0.21449 0.0
H1270 H 0.72663 0.40373 0.12782 0.0
C1271 C 0.71891 0.38441 0.23161 0.0
H1272 H 0.6765 0.43001 0.16239 0.0
C1273 C 0.74764 0.36966 0.21193 0.0
C1274 C 0.75166 0.37772 0.17474 0.0
H1275 H 0.71792 0.37963 0.26079 0.0
H1276 H 0.76799 0.35386 0.22635 0.0
C1277 C 0.72431 0.39742 0.15661 0.0
C1278 C 0.81875 0.46854 0.44918 0.0
C1279 C 0.82559 0.43753 0.42738 0.0
H1280 H 0.82256 0.52684 0.45434 0.0
C1281 C 0.84422 0.44159 0.39425 0.0
H1282 H 0.80457 0.46602 0.47494 0.0
C1283 C 0.85389 0.47649 0.38206 0.0
C1284 C 0.84571 0.50763 0.40323 0.0
H1285 H 0.84966 0.41801 0.37692 0.0
H1286 H 0.86706 0.47919 0.35579 0.0
C1287 C 0.82908 0.50329 0.4374 0.0
C1288 C 0.75551 0.40777 0.76726 0.0
C1289 C 0.78628 0.39645 0.78714 0.0
H1290 H 0.69785 0.41589 0.76726 0.0
C1291 C 0.7818 0.38093 0.8218 0.0
H1292 H 0.75839 0.41973 0.74042 0.0
C1293 C 0.74725 0.37952 0.83759 0.0
C1294 C 0.71679 0.39295 0.81857 0.0
H1295 H 0.80523 0.37219 0.8377 0.0
H1296 H 0.74455 0.36902 0.86506 0.0
C1297 C 0.72095 0.40567 0.7827 0.0
C1298 C 0.82162 0.52354 0.08177 0.0
C1299 C 0.83477 0.52741 0.046 0.0
H1300 H 0.81389 0.48726 0.12689 0.0
C1301 C 0.85504 0.49887 0.03031 0.0
H1302 H 0.80604 0.54509 0.09463 0.0
C1303 C 0.85868 0.46576 0.04829 0.0
C1304 C 0.84292 0.46083 0.08265 0.0
H1305 H 0.86605 0.50109 0.00301 0.0
H1306 H 0.87269 0.4435 0.03471 0.0
C1307 C 0.82591 0.49044 0.10012 0.0
C1308 C 0.70181 0.59112 0.32798 0.0
C1309 C 0.69837 0.5745 0.29334 0.0
H1310 H 0.73828 0.61536 0.36763 0.0
C1311 C 0.72695 0.57796 0.26826 0.0
H1312 H 0.67987 0.58884 0.34758 0.0
C1313 C 0.76086 0.59229 0.27996 0.0
C1314 C 0.76597 0.60339 0.31667 0.0
H1315 H 0.72474 0.56514 0.24138 0.0
H1316 H 0.78379 0.59091 0.26149 0.0
C1317 C 0.73541 0.60579 0.33953 0.0
C1318 C 0.6726 0.47002 0.51504 0.0
C1319 C 0.67276 0.43894 0.53759 0.0
H1320 H 0.66238 0.52757 0.51091 0.0
C1321 C 0.65856 0.44195 0.573 0.0
H1322 H 0.6831 0.46862 0.48747 0.0
C1323 C 0.64662 0.47574 0.58636 0.0
C1324 C 0.64862 0.50736 0.56466 0.0
H1325 H 0.65796 0.41856 0.59098 0.0
H1326 H 0.63711 0.47729 0.6143 0.0
C1327 C 0.66063 0.50387 0.52843 0.0
C1328 C 0.7142 0.76574 0.55609 0.0
C1329 C 0.69202 0.79685 0.55925 0.0
H1330 H 0.71972 0.70819 0.56546 0.0
C1331 C 0.65881 0.79365 0.57799 0.0
H1332 H 0.74016 0.76729 0.54213 0.0
C1333 C 0.64707 0.75965 0.59132 0.0
C1334 C 0.66839 0.72813 0.58649 0.0
H1335 H 0.64118 0.81705 0.58113 0.0
H1336 H 0.62064 0.75785 0.60436 0.0
C1337 C 0.70261 0.73182 0.56969 0.0
C1338 C 0.18916 0.73897 0.37108 0.0
C1339 C 0.17547 0.70931 0.3913 0.0
H1340 H 0.18396 0.79562 0.3581 0.0
C1341 C 0.1413 0.71239 0.40834 0.0
H1342 H 0.21507 0.73735 0.35709 0.0
C1343 C 0.12329 0.7459 0.40854 0.0
C1344 C 0.13958 0.77658 0.39214 0.0
H1345 H 0.12992 0.68993 0.42392 0.0
H1346 H 0.0981 0.74846 0.42365 0.0
C1347 C 0.17163 0.77248 0.37197 0.0
C1348 C 0.53209 0.87768 0.67771 0.0
C1349 C 0.53702 0.91461 0.68774 0.0
H1350 H 0.4955 0.83661 0.65616 0.0
C1351 C 0.51048 0.94018 0.67797 0.0
H1352 H 0.55229 0.85759 0.68525 0.0
C1353 C 0.47729 0.92813 0.66228 0.0
C1354 C 0.47074 0.89047 0.6559 0.0
H1355 H 0.51373 0.96879 0.68596 0.0
H1356 H 0.456 0.9479 0.65751 0.0
C1357 C 0.49933 0.86572 0.66152 0.0
C1358 C 0.33819 0.29129 0.88741 0.0
C1359 C 0.30481 0.29398 0.90588 0.0
H1360 H 0.37763 0.25541 0.86379 0.0
C1361 C 0.2837 0.26217 0.91178 0.0
H1362 H 0.35502 0.31546 0.88266 0.0
C1363 C 0.2963 0.22805 0.90045 0.0
C1364 C 0.33062 0.22509 0.88381 0.0
H1365 H 0.2578 0.26359 0.92583 0.0
H1366 H 0.27986 0.20385 0.90622 0.0
C1367 C 0.3512 0.25702 0.87681 0.0
C1368 C 0.47694 0.51912 0.66731 0.0
C1369 C 0.44861 0.54275 0.67752 0.0
H1370 H 0.5308 0.51425 0.64543 0.0
C1371 C 0.45194 0.58017 0.66933 0.0
H1372 H 0.47519 0.49007 0.67299 0.0
C1373 C 0.48378 0.59399 0.65326 0.0
C1374 C 0.51315 0.57076 0.64525 0.0
H1375 H 0.43055 0.59907 0.67656 0.0
H1376 H 0.48595 0.62325 0.64872 0.0
C1377 C 0.50888 0.53298 0.65144 0.0
C1378 C 0.81382 0.18388 0.06354 0.0
C1379 C 0.77701 0.1842 0.05244 0.0
H1380 H 0.85771 0.21333 0.08995 0.0
C1381 C 0.75389 0.21115 0.06639 0.0
H1382 H 0.83201 0.16316 0.05301 0.0
C1383 C 0.7687 0.24058 0.08682 0.0
C1384 C 0.80667 0.24291 0.09361 0.0
H1385 H 0.72539 0.21188 0.05789 0.0
H1386 H 0.75103 0.26299 0.09426 0.0
C1387 C 0.82851 0.21285 0.0844 0.0
C1388 C 0.50928 0.00586 0.85418 0.0
C1389 C 0.53952 0.01841 0.83418 0.0
H1390 H 0.45477 0.0166 0.87141 0.0
C1391 C 0.54063 0.05508 0.82259 0.0
H1392 H 0.50772 0.97797 0.86399 0.0
C1393 C 0.51023 0.07735 0.82721 0.0
C1394 C 0.4784 0.06298 0.84308 0.0
H1395 H 0.56373 0.06566 0.80744 0.0
H1396 H 0.51061 0.10464 0.8158 0.0
C1397 C 0.47881 0.02785 0.8582 0.0
C1398 C 0.95786 0.97775 0.31446 0.0
C1399 C 0.92552 0.95904 0.32395 0.0
H1400 H 0.01625 0.9802 0.31936 0.0
C1401 C 0.92698 0.93064 0.3495 0.0
H1402 H 0.95735 2e-05 0.29511 0.0
C1403 C 0.96058 0.91908 0.36296 0.0
C1404 C -0.00693 0.93621 0.35162 0.0
H1405 H 0.90241 0.91589 0.35746 0.0
H1406 H 0.96129 0.89573 0.38101 0.0
C1407 C -0.00854 0.96662 0.32851 0.0
C1408 C 0.37896 0.30854 0.19415 0.0
C1409 C 0.40809 0.28451 0.18894 0.0
H1410 H 0.34998 0.34163 0.23232 0.0
C1411 C 0.42649 0.27027 0.21955 0.0
H1412 H 0.36395 0.31955 0.17113 0.0
C1413 C 0.41804 0.28258 0.25468 0.0
C1414 C 0.39147 0.30945 0.25924 0.0
H1415 H 0.44873 0.25125 0.21626 0.0
H1416 H 0.43414 0.27331 0.27777 0.0
C1417 C 0.37091 0.32113 0.22908 0.0
C1418 C 0.46359 0.65522 0.97812 0.0
C1419 C 0.44035 0.65112 0.94738 0.0
H1420 H 0.46813 0.6515 0.03652 0.0
C1421 C 0.40753 0.63111 0.9505 0.0
H1422 H 0.48882 0.6711 0.97635 0.0
C1423 C 0.39555 0.62016 0.98479 0.0
C1424 C 0.41607 0.62948 0.01648 0.0
H1425 H 0.38908 0.62795 0.92718 0.0
H1426 H 0.36858 0.60757 -0.01324 0.0
C1427 C 0.45144 0.64453 0.01266 0.0
C1428 C 0.05305 0.64273 0.70486 0.0
C1429 C 0.04687 0.6801 0.69925 0.0
H1430 H 0.06661 0.60104 0.74285 0.0
C1431 C 0.05269 0.70508 0.7285 0.0
H1432 H 0.0489 0.62289 0.6828 0.0
C1433 C 0.06232 0.6925 0.76331 0.0
C1434 C 0.06667 0.6548 0.76929 0.0
H1435 H 0.04789 0.73407 0.72503 0.0
H1436 H 0.06533 0.71215 0.78567 0.0
C1437 C 0.06306 0.63024 0.73939 0.0
C1438 C 0.07839 0.3044 0.45102 0.0
C1439 C 0.04316 0.31878 0.44617 0.0
H1440 H 0.1262 0.30286 0.4858 0.0
C1441 C 0.03228 0.34817 0.46855 0.0
H1442 H 0.0876 0.28187 0.43405 0.0
C1443 C 0.05399 0.35959 0.49815 0.0
C1444 C 0.08726 0.34244 0.50537 0.0
H1445 H 0.0056 0.36032 0.46514 0.0
H1446 H 0.04365 0.38018 0.51686 0.0
C1447 C 0.10048 0.31632 0.48055 0.0
C1448 C 0.40841 0.67914 0.28963 0.0
C1449 C 0.40505 0.71746 0.2887 0.0
H1450 H 0.4009 0.62828 0.26049 0.0
C1451 C 0.38495 0.73315 0.25998 0.0
H1452 H 0.42334 0.66618 0.31162 0.0
C1453 C 0.37245 0.71152 0.23058 0.0
C1454 C 0.3794 0.6738 0.22962 0.0
H1455 H 0.3813 0.76254 0.2587 0.0
H1456 H 0.35942 0.72472 0.20755 0.0
C1457 C 0.39551 0.65741 0.26033 0.0
C1458 C 0.01044 0.67598 0.02597 0.0
C1459 C 0.03448 0.67806 0.05634 0.0
H1460 H 0.00271 0.65986 0.96986 0.0
C1461 C 0.06853 0.66091 0.05409 0.0
H1462 H 0.98378 0.68852 0.02698 0.0
C1463 C 0.07943 0.64457 0.02123 0.0
C1464 C 0.05637 0.64473 -0.00991 0.0
H1465 H 0.08755 0.66178 0.07706 0.0
H1466 H 0.10662 0.63325 0.01978 0.0
C1467 C 0.02118 0.65932 -0.00675 0.0
C1468 C 0.0718 0.2889 0.76416 0.0
C1469 C 0.06117 0.31578 0.78964 0.0
H1470 H 0.09494 0.27838 0.71139 0.0
C1471 C 0.07249 0.35227 0.78474 0.0
H1472 H 0.06305 0.26058 0.76723 0.0
C1473 C 0.09089 0.36242 0.75315 0.0
C1474 C 0.09763 0.33639 0.72536 0.0
H1475 H 0.06466 0.37345 0.80407 0.0
H1476 H 0.0972 0.39124 0.74932 0.0
C1477 C 0.08982 0.29916 0.73207 0.0
C1478 C 0.41279 0.36394 0.5369 0.0
C1479 C 0.4436 0.34177 0.54078 0.0
H1480 H 0.37587 0.38923 0.49952 0.0
C1481 C 0.4649 0.33358 0.51014 0.0
H1482 H 0.39618 0.37103 0.56023 0.0
C1483 C 0.45364 0.34457 0.47554 0.0
C1484 C 0.42061 0.36326 0.47126 0.0
H1485 H 0.48921 0.31711 0.51264 0.0
H1486 H 0.4692 0.3358 0.45202 0.0
C1487 C 0.40121 0.37441 0.50225 0.0
C1488 C 0.21783 0.3996 0.26895 0.0
C1489 C 0.18802 0.39194 0.29163 0.0
H1490 H 0.27586 0.3985 0.26308 0.0
C1491 C 0.1933 0.37193 0.32374 0.0
H1492 H 0.21421 0.41447 0.2437 0.0
C1493 C 0.22853 0.36313 0.33498 0.0
C1494 C 0.25865 0.37371 0.3139 0.0
H1495 H 0.17062 0.3654 0.34149 0.0
H1496 H 0.23239 0.35 0.36117 0.0
C1497 C 0.253 0.3902 0.27986 0.0
C1498 C 0.36088 0.46646 0.02623 0.0
C1499 C 0.33455 0.44073 0.0378 0.0
H1500 H 0.3866 0.51867 0.0365 0.0
C1501 C 0.32045 0.44388 0.07336 0.0
H1502 H 0.37283 0.46439 -0.0007 0.0
C1503 C 0.32874 0.47496 0.09487 0.0
C1504 C 0.35097 0.50304 0.08081 0.0
H1505 H 0.30036 0.42428 0.08316 0.0
H1506 H 0.315 0.4786 0.12075 0.0
C1507 C 0.36873 0.49758 0.04744 0.0
C1508 C 0.24941 0.59594 0.78038 0.0
C1509 C 0.27951 0.59703 0.80465 0.0
H1510 H 0.191 0.59811 0.77516 0.0
C1511 C 0.27508 0.61108 0.84015 0.0
H1512 H 0.25221 0.58479 0.75294 0.0
C1513 C 0.24016 0.61835 0.85301 0.0
C1514 C 0.20923 0.61133 0.83057 0.0
H1515 H 0.29795 0.61198 0.85933 0.0
H1516 H 0.23727 0.62608 0.88155 0.0
C1517 C 0.21427 0.60288 0.79335 0.0
C1518 C 0.15536 0.51984 0.50668 0.0
C1519 C 0.15864 0.55238 0.52769 0.0
H1520 H 0.14647 0.46169 0.5066 0.0
C1521 C 0.15106 0.55116 0.56526 0.0
H1522 H 0.16073 0.51981 0.47759 0.0
C1523 C 0.14283 0.51776 0.5819 0.0
C1524 C 0.14216 0.48484 0.56134 0.0
H1525 H 0.15307 0.57574 0.58218 0.0
H1526 H 0.13862 0.51761 0.6112 0.0
C1527 C 0.14727 0.48644 0.52334 0.0
C1528 C 0.19005 0.55773 0.14732 0.0
C1529 C 0.18527 0.54754 0.18391 0.0
H1530 H 0.22626 0.58004 0.10748 0.0
C1531 C 0.21332 0.55594 0.20956 0.0
H1532 H 0.16893 0.55194 0.12692 0.0
C1533 C 0.24627 0.57209 0.19844 0.0
C1534 C 0.25194 0.58019 0.16141 0.0
H1535 H 0.21044 0.54875 0.23807 0.0
H1536 H 0.26782 0.57676 0.21866 0.0
C1537 C 0.223 0.57388 0.1362 0.0
C1538 C 0.16579 0.44884 0.90624 0.0
C1539 C 0.18104 0.44617 0.94138 0.0
H1540 H 0.13634 0.4816 0.86848 0.0
C1541 C 0.1739 0.47357 0.96763 0.0
H1542 H 0.17127 0.42818 0.88551 0.0
C1543 C 0.15466 0.50501 0.95769 0.0
C1544 C 0.14219 0.50918 0.92142 0.0
H1545 H 0.18602 0.47227 -0.00522 0.0
H1546 H 0.15186 0.52701 0.97761 0.0
C1547 C 0.14613 0.47974 0.89649 0.0
C1548 C 0.26019 0.4187 0.7258 0.0
C1549 C 0.28612 0.44334 0.71149 0.0
H1550 H 0.21068 0.38801 0.71623 0.0
C1551 C 0.28496 0.45122 0.67391 0.0
H1552 H 0.26061 0.41156 0.75449 0.0
C1553 C 0.25632 0.43732 0.65184 0.0
C1554 C 0.22848 0.41576 0.66729 0.0
H1555 H 0.30474 0.46993 0.66207 0.0
H1556 H 0.25462 0.44551 0.62348 0.0
C1557 C 0.23149 0.40528 0.70395 0.0
C1558 C 0.29382 0.51905 0.4276 0.0
C1559 C 0.29835 0.54773 0.4027 0.0
H1560 H 0.30518 0.46329 0.44015 0.0
C1561 C 0.31972 0.54251 0.37149 0.0
H1562 H 0.27787 0.52264 0.45217 0.0
C1563 C 0.33517 0.50855 0.36457 0.0
C1564 C 0.32995 0.47964 0.38907 0.0
H1565 H 0.32379 0.56436 0.35206 0.0
H1566 H 0.35068 0.50469 0.33975 0.0
C1567 C 0.30981 0.4853 0.42101 0.0
C1568 C 0.29417 0.22536 0.44373 0.0
C1569 C 0.31478 0.19404 0.43643 0.0
H1570 H 0.28816 0.28281 0.43501 0.0
C1571 C 0.34566 0.19667 0.41406 0.0
H1572 H 0.2701 0.2239 0.46072 0.0
C1573 C 0.35619 0.23033 0.39971 0.0
C1574 C 0.33556 0.26162 0.40695 0.0
H1575 H 0.36199 0.17283 0.40806 0.0
H1576 H 0.38045 0.23189 0.38298 0.0
C1577 C 0.30428 0.25889 0.42876 0.0
C1578 C 0.8227 0.2848 0.56574 0.0
C1579 C 0.78833 0.28509 0.5485 0.0
H1580 H 0.86089 0.25438 0.59712 0.0
C1581 C 0.76345 0.25601 0.55417 0.0
H1582 H 0.84236 0.30685 0.56138 0.0
C1583 C 0.77432 0.2252 0.57387 0.0
C1584 C 0.81014 0.22338 0.58821 0.0
H1585 H 0.73696 0.25556 0.54052 0.0
H1586 H 0.7557 0.20186 0.57542 0.0
C1587 C 0.83333 0.25449 0.58587 0.0
C1588 C 0.43768 0.05493 0.32256 0.0
C1589 C 0.4382 0.0172 0.33002 0.0
H1590 H 0.46767 0.10587 0.32419 0.0
C1591 C 0.46704 0.00333 0.35126 0.0
H1592 H 0.41561 0.06652 0.30664 0.0
C1593 C 0.49688 0.02574 0.36092 0.0
C1594 C 0.49814 0.06247 0.35 0.0
H1595 H 0.46801 0.97451 0.35802 0.0
H1596 H 0.52 0.01373 0.37495 0.0
C1597 C 0.46745 0.0775 0.33266 0.0
C1598 C 0.6561 0.68943 0.06609 0.0
C1599 C 0.69413 0.68752 0.06144 0.0
H1600 H 0.61024 0.72347 0.07662 0.0
C1601 C 0.71563 0.71957 0.06683 0.0
H1602 H 0.63876 0.66528 0.06227 0.0
C1603 C 0.69923 0.75313 0.07473 0.0
C1604 C 0.661 0.75533 0.07763 0.0
H1605 H 0.74504 0.7191 0.06344 0.0
H1606 H 0.71646 0.77748 0.07761 0.0
C1607 C 0.63974 0.7229 0.0742 0.0
C1608 C 0.53774 0.42613 0.34932 0.0
C1609 C 0.54177 0.45472 0.32428 0.0
H1610 H 0.50113 0.3872 0.37313 0.0
C1611 C 0.5106 0.4696 0.30758 0.0
H1612 H 0.5613 0.41428 0.3627 0.0
C1613 C 0.47612 0.4543 0.31389 0.0
C1614 C 0.47269 0.42364 0.33641 0.0
H1615 H 0.51305 0.49192 0.28841 0.0
H1616 H 0.45258 0.46502 0.2995 0.0
C1617 C 0.50344 0.41047 0.35507 0.0
C1618 C 0.14784 0.78727 0.92405 0.0
C1619 C 0.1806 0.79169 0.90455 0.0
H1620 H 0.10285 0.75095 0.93618 0.0
C1621 C 0.1884 0.76687 0.87609 0.0
H1622 H 0.14096 0.80613 0.94596 0.0
C1623 C 0.16706 0.73528 0.87108 0.0
C1624 C 0.13715 0.72857 0.89379 0.0
H1625 H 0.21303 0.76991 0.8601 0.0
H1626 H 0.17555 0.71477 0.85132 0.0
C1627 C 0.12607 0.75572 0.91859 0.0
C1628 C 0.44136 0.88236 0.16627 0.0
C1629 C 0.43602 0.91875 0.17744 0.0
H1630 H 0.47699 0.84401 0.14132 0.0
C1631 C 0.4613 0.94599 0.16691 0.0
H1632 H 0.42226 0.86089 0.17415 0.0
C1633 C 0.49348 0.93626 0.14887 0.0
C1634 C 0.50045 0.89921 0.14077 0.0
H1635 H 0.45792 0.97424 0.17562 0.0
H1636 H 0.51386 0.95737 0.14353 0.0
C1637 C 0.47297 0.87274 0.14772 0.0
C1638 C 0.01021 0.03204 0.66864 0.0
C1639 C 0.037 0.05689 0.68226 0.0
H1640 H 0.9548 0.02454 0.64958 0.0
C1641 C 0.02913 0.09438 0.68405 0.0
H1642 H 0.0155 0.00291 0.66727 0.0
C1643 C -0.00533 0.10675 0.67377 0.0
C1644 C 0.9671 0.08177 0.66208 0.0
H1645 H 0.04932 0.11411 0.69441 0.0
H1646 H -0.01073 0.13579 0.67636 0.0
C1647 C 0.97539 0.04436 0.65889 0.0
loop_
_geom_bond_atom_site_label_1
_geom_bond_atom_site_label_2
_geom_bond_distance
_geom_bond_site_symmetry_2
_ccdc_geom_bond_type
Zn0 O3 2.031 . S
Zn0 O5 2.049 . S
Zn0 O10 2.067 1_655 S
Zn1 O2 1.962 1_455 S
Zn1 O4 1.986 . S
Zn1 O6 1.996 1_455 S
Zn1 O9 1.943 . S
O2 Zn1 1.962 1_655 S
O2 C7 1.254 . S
O3 Zn0 2.031 . S
O3 C7 1.269 . S
O4 Zn1 1.986 . S
O4 C11 1.262 . S
O5 Zn0 2.049 . S
O5 C13 1.260 . S
O6 Zn1 1.996 1_655 S
O6 C13 1.257 . S
C7 O2 1.254 . S
C7 O3 1.269 . S
C8 O9 1.249 . S
C8 O10 1.270 . S
O9 Zn1 1.943 . S
O9 C8 1.249 . S
O10 Zn0 2.067 1_455 S
O10 C8 1.270 . S
C11 O4 1.262 . S
C11 O12 1.232 . S
O12 C11 1.232 . S
C13 O5 1.260 . S
C13 O6 1.257 . S
Zn14 O17 2.031 1_655 S
Zn14 O19 2.049 . S
Zn14 O24 2.067 . S
Zn15 O16 1.962 . S
Zn15 O18 1.986 . S
Zn15 O20 1.996 1_455 S
Zn15 O23 1.943 1_455 S
O16 Zn15 1.962 . S
O16 C21 1.254 . S
O17 Zn14 2.031 1_455 S
O17 C21 1.269 . S
O18 Zn15 1.986 . S
O18 C25 1.262 . S
O19 Zn14 2.049 . S
O19 C27 1.260 . S
O20 Zn15 1.996 1_655 S
O20 C27 1.257 . S
C21 O16 1.254 . S
C21 O17 1.269 . S
C22 O23 1.249 . S
C22 O24 1.270 . S
O23 Zn15 1.943 1_655 S
O23 C22 1.249 . S
O24 Zn14 2.067 . S
O24 C22 1.270 . S
C25 O18 1.262 . S
C25 O26 1.232 . S
O26 C25 1.232 . S
C27 O19 1.260 . S
C27 O20 1.257 . S
Zn28 O31 2.031 . S
Zn28 O33 2.049 . S
Zn28 O38 2.067 . S
Zn29 O30 1.962 . S
Zn29 O32 1.986 . S
Zn29 O34 1.996 . S
Zn29 O37 1.943 . S
O30 Zn29 1.962 . S
O30 C35 1.254 . S
O31 Zn28 2.031 . S
O31 C35 1.269 . S
O32 Zn29 1.986 . S
O32 C39 1.262 . S
O33 Zn28 2.049 . S
O33 C41 1.260 . S
O34 Zn29 1.996 . S
O34 C41 1.257 . S
C35 O30 1.254 . S
C35 O31 1.269 . S
C36 O37 1.249 . S
C36 O38 1.270 . S
O37 Zn29 1.943 . S
O37 C36 1.249 . S
O38 Zn28 2.067 . S
O38 C36 1.270 . S
C39 O32 1.262 . S
C39 O40 1.232 . S
O40 C39 1.232 . S
C41 O33 1.260 . S
C41 O34 1.257 . S
Zn42 O45 2.031 . S
Zn42 O47 2.049 . S
Zn42 O52 2.067 . S
Zn43 O44 1.962 . S
Zn43 O46 1.986 . S
Zn43 O48 1.996 . S
Zn43 O51 1.943 . S
O44 Zn43 1.962 . S
O44 C49 1.254 . S
O45 Zn42 2.031 . S
O45 C49 1.269 . S
O46 Zn43 1.986 . S
O46 C53 1.262 . S
O47 Zn42 2.049 . S
O47 C55 1.260 . S
O48 Zn43 1.996 . S
O48 C55 1.257 . S
C49 O44 1.254 . S
C49 O45 1.269 . S
C50 O51 1.249 . S
C50 O52 1.270 . S
O51 Zn43 1.943 . S
O51 C50 1.249 . S
O52 Zn42 2.067 . S
O52 C50 1.270 . S
C53 O46 1.262 . S
C53 O54 1.232 . S
O54 C53 1.232 . S
C55 O47 1.260 . S
C55 O48 1.257 . S
Zn56 O59 2.031 . S
Zn56 O61 2.049 . S
Zn56 O66 2.067 1_655 S
Zn57 O58 1.962 1_455 S
Zn57 O60 1.986 . S
Zn57 O62 1.996 1_455 S
Zn57 O65 1.943 . S
O58 Zn57 1.962 1_655 S
O58 C63 1.254 . S
O59 Zn56 2.031 . S
O59 C63 1.269 . S
O60 Zn57 1.986 . S
O60 C67 1.262 . S
O61 Zn56 2.049 . S
O61 C69 1.260 . S
O62 Zn57 1.996 1_655 S
O62 C69 1.257 . S
C63 O58 1.254 . S
C63 O59 1.269 . S
C64 O65 1.249 . S
C64 O66 1.270 . S
O65 Zn57 1.943 . S
O65 C64 1.249 . S
O66 Zn56 2.067 1_455 S
O66 C64 1.270 . S
C67 O60 1.262 . S
C67 O68 1.232 . S
O68 C67 1.232 . S
C69 O61 1.260 . S
C69 O62 1.257 . S
Zn70 O73 2.031 . S
Zn70 O75 2.049 . S
Zn70 O80 2.067 . S
Zn71 O72 1.962 . S
Zn71 O74 1.986 . S
Zn71 O76 1.996 . S
Zn71 O79 1.943 . S
O72 Zn71 1.962 . S
O72 C77 1.254 . S
O73 Zn70 2.031 . S
O73 C77 1.269 . S
O74 Zn71 1.986 . S
O74 C81 1.262 . S
O75 Zn70 2.049 . S
O75 C83 1.260 . S
O76 Zn71 1.996 . S
O76 C83 1.257 . S
C77 O72 1.254 . S
C77 O73 1.269 . S
C78 O79 1.249 . S
C78 O80 1.270 . S
O79 Zn71 1.943 . S
O79 C78 1.249 . S
O80 Zn70 2.067 . S
O80 C78 1.270 . S
C81 O74 1.262 . S
C81 O82 1.232 . S
O82 C81 1.232 . S
C83 O75 1.260 . S
C83 O76 1.257 . S
Zn84 O87 2.031 . S
Zn84 O89 2.049 . S
Zn84 O94 2.067 . S
Zn85 O86 1.962 . S
Zn85 O88 1.986 . S
Zn85 O90 1.996 . S
Zn85 O93 1.943 . S
O86 Zn85 1.962 . S
O86 C91 1.254 . S
O87 Zn84 2.031 . S
O87 C91 1.269 . S
O88 Zn85 1.986 . S
O88 C95 1.262 . S
O89 Zn84 2.049 . S
O89 C97 1.260 . S
O90 Zn85 1.996 . S
O90 C97 1.257 . S
C91 O86 1.254 . S
C91 O87 1.269 . S
C92 O93 1.249 . S
C92 O94 1.270 . S
O93 Zn85 1.943 . S
O93 C92 1.249 . S
O94 Zn84 2.067 . S
O94 C92 1.270 . S
C95 O88 1.262 . S
C95 O96 1.232 . S
O96 C95 1.232 . S
C97 O89 1.260 . S
C97 O90 1.257 . S
Zn98 O101 2.031 1_655 S
Zn98 O103 2.049 . S
Zn98 O108 2.067 . S
Zn99 O100 1.962 . S
Zn99 O102 1.986 . S
Zn99 O104 1.996 1_455 S
Zn99 O107 1.943 1_455 S
O100 Zn99 1.962 . S
O100 C105 1.254 . S
O101 Zn98 2.031 1_455 S
O101 C105 1.269 . S
O102 Zn99 1.986 . S
O102 C109 1.262 . S
O103 Zn98 2.049 . S
O103 C111 1.260 . S
O104 Zn99 1.996 1_655 S
O104 C111 1.257 . S
C105 O100 1.254 . S
C105 O101 1.269 . S
C106 O107 1.249 . S
C106 O108 1.270 . S
O107 Zn99 1.943 1_655 S
O107 C106 1.249 . S
O108 Zn98 2.067 . S
O108 C106 1.270 . S
C109 O102 1.262 . S
C109 O110 1.232 . S
O110 C109 1.232 . S
C111 O103 1.260 . S
C111 O104 1.257 . S
Zn112 O115 2.031 . S
Zn112 O117 2.049 . S
Zn112 O122 2.087 . S
Zn113 O114 1.956 1_545 S
Zn113 O116 1.990 . S
Zn113 O118 1.989 1_545 S
Zn113 O121 1.949 . S
O114 Zn113 1.956 1_565 S
O114 C119 1.254 . S
O115 Zn112 2.031 . S
O115 C119 1.269 . S
O116 Zn113 1.990 . S
O116 C123 1.262 . S
O117 Zn112 2.049 . S
O117 C125 1.260 . S
O118 Zn113 1.989 1_565 S
O118 C125 1.257 . S
C119 O114 1.254 . S
C119 O115 1.269 . S
C120 O121 1.249 . S
C120 O122 1.252 1_545 S
O121 Zn113 1.949 . S
O121 C120 1.249 . S
O122 Zn112 2.087 . S
O122 C120 1.252 1_565 S
C123 O116 1.262 . S
C123 O124 1.232 . S
O124 C123 1.232 . S
C125 O117 1.260 . S
C125 O118 1.257 . S
Zn126 O129 2.031 . S
Zn126 O131 2.049 . S
Zn126 O136 2.067 . S
Zn127 O128 1.962 . S
Zn127 O130 1.986 . S
Zn127 O132 1.996 . S
Zn127 O135 1.943 . S
O128 Zn127 1.962 . S
O128 C133 1.254 . S
O129 Zn126 2.031 . S
O129 C133 1.269 . S
O130 Zn127 1.986 . S
O130 C137 1.262 . S
O131 Zn126 2.049 . S
O131 C139 1.260 . S
O132 Zn127 1.996 . S
O132 C139 1.257 . S
C133 O128 1.254 . S
C133 O129 1.269 . S
C134 O135 1.249 . S
C134 O136 1.270 . S
O135 Zn127 1.943 . S
O135 C134 1.249 . S
O136 Zn126 2.067 . S
O136 C134 1.270 . S
C137 O130 1.262 . S
C137 O138 1.232 . S
O138 C137 1.232 . S
C139 O131 1.260 . S
C139 O132 1.257 . S
Zn140 O143 2.031 . S
Zn140 O145 2.049 . S
Zn140 O150 2.067 1_565 S
Zn141 O142 1.962 1_545 S
Zn141 O144 1.986 . S
Zn141 O146 1.996 1_545 S
Zn141 O149 1.943 . S
O142 Zn141 1.962 1_565 S
O142 C147 1.254 . S
O143 Zn140 2.031 . S
O143 C147 1.269 . S
O144 Zn141 1.986 . S
O144 C151 1.262 . S
O145 Zn140 2.049 . S
O145 C153 1.260 . S
O146 Zn141 1.996 1_565 S
O146 C153 1.257 . S
C147 O142 1.254 . S
C147 O143 1.269 . S
C148 O149 1.249 . S
C148 O150 1.270 . S
O149 Zn141 1.943 . S
O149 C148 1.249 . S
O150 Zn140 2.067 1_545 S
O150 C148 1.270 . S
C151 O144 1.262 . S
C151 O152 1.232 . S
O152 C151 1.232 . S
C153 O145 1.260 . S
C153 O146 1.257 . S
Zn154 O157 2.031 1_556 S
Zn154 O159 2.049 . S
Zn154 O164 2.067 . S
Zn155 O156 1.962 . S
Zn155 O158 1.986 . S
Zn155 O160 1.996 1_554 S
Zn155 O163 1.943 1_554 S
O156 Zn155 1.962 . S
O156 C161 1.254 . S
O157 Zn154 2.031 1_554 S
O157 C161 1.269 . S
O158 Zn155 1.986 . S
O158 C165 1.262 . S
O159 Zn154 2.049 . S
O159 C167 1.260 . S
O160 Zn155 1.996 1_556 S
O160 C167 1.257 . S
C161 O156 1.254 . S
C161 O157 1.269 . S
C162 O163 1.249 . S
C162 O164 1.270 . S
O163 Zn155 1.943 1_556 S
O163 C162 1.249 . S
O164 Zn154 2.067 . S
O164 C162 1.270 . S
C165 O158 1.262 . S
C165 O166 1.232 . S
O166 C165 1.232 . S
C167 O159 1.260 . S
C167 O160 1.257 . S
Zn168 O171 2.031 . S
Zn168 O173 2.049 . S
Zn168 O178 2.067 1_556 S
Zn169 O170 1.962 1_554 S
Zn169 O172 1.986 . S
Zn169 O174 1.996 1_554 S
Zn169 O177 1.943 . S
O170 Zn169 1.962 1_556 S
O170 C175 1.254 . S
O171 Zn168 2.031 . S
O171 C175 1.269 . S
O172 Zn169 1.986 . S
O172 C179 1.262 . S
O173 Zn168 2.049 . S
O173 C181 1.260 . S
O174 Zn169 1.996 1_556 S
O174 C181 1.257 . S
C175 O170 1.254 . S
C175 O171 1.269 . S
C176 O177 1.249 . S
C176 O178 1.270 . S
O177 Zn169 1.943 . S
O177 C176 1.249 . S
O178 Zn168 2.067 1_554 S
O178 C176 1.270 . S
C179 O172 1.262 . S
C179 O180 1.232 . S
O180 C179 1.232 . S
C181 O173 1.260 . S
C181 O174 1.257 . S
Zn182 O185 2.031 . S
Zn182 O187 2.049 . S
Zn182 O192 2.067 1_556 S
Zn183 O184 1.962 1_554 S
Zn183 O186 1.986 . S
Zn183 O188 1.996 1_554 S
Zn183 O191 1.943 . S
O184 Zn183 1.962 1_556 S
O184 C189 1.254 . S
O185 Zn182 2.031 . S
O185 C189 1.269 . S
O186 Zn183 1.986 . S
O186 C193 1.262 . S
O187 Zn182 2.049 . S
O187 C195 1.260 . S
O188 Zn183 1.996 1_556 S
O188 C195 1.257 . S
C189 O184 1.254 . S
C189 O185 1.269 . S
C190 O191 1.249 . S
C190 O192 1.270 . S
O191 Zn183 1.943 . S
O191 C190 1.249 . S
O192 Zn182 2.067 1_554 S
O192 C190 1.270 . S
C193 O186 1.262 . S
C193 O194 1.232 . S
O194 C193 1.232 . S
C195 O187 1.260 . S
C195 O188 1.257 . S
Zn196 O199 2.031 . S
Zn196 O201 2.049 . S
Zn196 O206 2.067 . S
Zn197 O198 1.962 . S
Zn197 O200 1.986 . S
Zn197 O202 1.996 . S
Zn197 O205 1.943 . S
O198 Zn197 1.962 . S
O198 C203 1.254 . S
O199 Zn196 2.031 . S
O199 C203 1.269 . S
O200 Zn197 1.986 . S
O200 C207 1.262 . S
O201 Zn196 2.049 . S
O201 C209 1.260 . S
O202 Zn197 1.996 . S
O202 C209 1.257 . S
C203 O198 1.254 . S
C203 O199 1.269 . S
C204 O205 1.249 . S
C204 O206 1.270 . S
O205 Zn197 1.943 . S
O205 C204 1.249 . S
O206 Zn196 2.067 . S
O206 C204 1.270 . S
C207 O200 1.262 . S
C207 O208 1.232 . S
O208 C207 1.232 . S
C209 O201 1.260 . S
C209 O202 1.257 . S
Zn210 O213 2.031 . S
Zn210 O215 2.049 . S
Zn210 O220 2.067 . S
Zn211 O212 1.962 . S
Zn211 O214 1.986 . S
Zn211 O216 1.996 . S
Zn211 O219 1.943 . S
O212 Zn211 1.962 . S
O212 C217 1.254 . S
O213 Zn210 2.031 . S
O213 C217 1.269 . S
O214 Zn211 1.986 . S
O214 C221 1.262 . S
O215 Zn210 2.049 . S
O215 C223 1.260 . S
O216 Zn211 1.996 . S
O216 C223 1.257 . S
C217 O212 1.254 . S
C217 O213 1.269 . S
C218 O219 1.249 . S
C218 O220 1.270 . S
O219 Zn211 1.943 . S
O219 C218 1.249 . S
O220 Zn210 2.067 . S
O220 C218 1.270 . S
C221 O214 1.262 . S
C221 O222 1.232 . S
O222 C221 1.232 . S
C223 O215 1.260 . S
C223 O216 1.257 . S
Zn224 O227 2.031 1_565 S
Zn224 O229 2.049 . S
Zn224 O234 2.067 . S
Zn225 O226 1.962 . S
Zn225 O228 1.986 . S
Zn225 O230 1.996 1_545 S
Zn225 O233 1.943 1_545 S
O226 Zn225 1.962 . S
O226 C231 1.254 . S
O227 Zn224 2.031 1_545 S
O227 C231 1.269 . S
O228 Zn225 1.986 . S
O228 C235 1.262 . S
O229 Zn224 2.049 . S
O229 C237 1.260 . S
O230 Zn225 1.996 1_565 S
O230 C237 1.257 . S
C231 O226 1.254 . S
C231 O227 1.269 . S
C232 O233 1.249 . S
C232 O234 1.270 . S
O233 Zn225 1.943 1_565 S
O233 C232 1.249 . S
O234 Zn224 2.067 . S
O234 C232 1.270 . S
C235 O228 1.262 . S
C235 O236 1.232 . S
O236 C235 1.232 . S
C237 O229 1.260 . S
C237 O230 1.257 . S
Zn238 O241 2.031 . S
Zn238 O243 2.049 . S
Zn238 O248 2.067 . S
Zn239 O240 1.962 . S
Zn239 O242 1.986 . S
Zn239 O244 1.996 . S
Zn239 O247 1.943 . S
O240 Zn239 1.962 . S
O240 C245 1.254 . S
O241 Zn238 2.031 . S
O241 C245 1.269 . S
O242 Zn239 1.986 . S
O242 C249 1.262 . S
O243 Zn238 2.049 . S
O243 C251 1.260 . S
O244 Zn239 1.996 . S
O244 C251 1.257 . S
C245 O240 1.254 . S
C245 O241 1.269 . S
C246 O247 1.249 . S
C246 O248 1.270 . S
O247 Zn239 1.943 . S
O247 C246 1.249 . S
O248 Zn238 2.067 . S
O248 C246 1.270 . S
C249 O242 1.262 . S
C249 O250 1.232 . S
O250 C249 1.232 . S
C251 O243 1.260 . S
C251 O244 1.257 . S
Zn252 O255 2.031 . S
Zn252 O257 2.049 . S
Zn252 O262 2.067 . S
Zn253 O254 1.962 . S
Zn253 O256 1.986 . S
Zn253 O258 1.996 . S
Zn253 O261 1.943 . S
O254 Zn253 1.962 . S
O254 C259 1.254 . S
O255 Zn252 2.031 . S
O255 C259 1.269 . S
O256 Zn253 1.986 . S
O256 C263 1.262 . S
O257 Zn252 2.049 . S
O257 C265 1.260 . S
O258 Zn253 1.996 . S
O258 C265 1.257 . S
C259 O254 1.254 . S
C259 O255 1.269 . S
C260 O261 1.249 . S
C260 O262 1.270 . S
O261 Zn253 1.943 . S
O261 C260 1.249 . S
O262 Zn252 2.067 . S
O262 C260 1.270 . S
C263 O256 1.262 . S
C263 O264 1.232 . S
O264 C263 1.232 . S
C265 O257 1.260 . S
C265 O258 1.257 . S
Zn266 O269 2.031 1_565 S
Zn266 O271 2.049 . S
Zn266 O276 2.067 . S
Zn267 O268 1.962 . S
Zn267 O270 1.986 . S
Zn267 O272 1.996 1_545 S
Zn267 O275 1.943 1_545 S
O268 Zn267 1.962 . S
O268 C273 1.254 . S
O269 Zn266 2.031 1_545 S
O269 C273 1.269 . S
O270 Zn267 1.986 . S
O270 C277 1.262 . S
O271 Zn266 2.049 . S
O271 C279 1.260 . S
O272 Zn267 1.996 1_565 S
O272 C279 1.257 . S
C273 O268 1.254 . S
C273 O269 1.269 . S
C274 O275 1.249 . S
C274 O276 1.270 . S
O275 Zn267 1.943 1_565 S
O275 C274 1.249 . S
O276 Zn266 2.067 . S
O276 C274 1.270 . S
C277 O270 1.262 . S
C277 O278 1.232 . S
O278 C277 1.232 . S
C279 O271 1.260 . S
C279 O272 1.257 . S
Zn280 O283 2.031 1_556 S
Zn280 O285 2.049 . S
Zn280 O290 2.067 . S
Zn281 O282 1.962 . S
Zn281 O284 1.986 . S
Zn281 O286 1.996 1_554 S
Zn281 O289 1.943 1_554 S
O282 Zn281 1.962 . S
O282 C287 1.254 . S
O283 Zn280 2.031 1_554 S
O283 C287 1.269 . S
O284 Zn281 1.986 . S
O284 C291 1.262 . S
O285 Zn280 2.049 . S
O285 C293 1.260 . S
O286 Zn281 1.996 1_556 S
O286 C293 1.257 . S
C287 O282 1.254 . S
C287 O283 1.269 . S
C288 O289 1.249 . S
C288 O290 1.270 . S
O289 Zn281 1.943 1_556 S
O289 C288 1.249 . S
O290 Zn280 2.067 . S
O290 C288 1.270 . S
C291 O284 1.262 . S
C291 O292 1.232 . S
O292 C291 1.232 . S
C293 O285 1.260 . S
C293 O286 1.257 . S
Zn294 O297 2.031 . S
Zn294 O299 2.049 . S
Zn294 O304 2.067 . S
Zn295 O296 1.962 . S
Zn295 O298 1.986 . S
Zn295 O300 1.996 . S
Zn295 O303 1.943 . S
O296 Zn295 1.962 . S
O296 C301 1.254 . S
O297 Zn294 2.031 . S
O297 C301 1.269 . S
O298 Zn295 1.986 . S
O298 C305 1.262 . S
O299 Zn294 2.049 . S
O299 C307 1.260 . S
O300 Zn295 1.996 . S
O300 C307 1.257 . S
C301 O296 1.254 . S
C301 O297 1.269 . S
C302 O303 1.249 . S
C302 O304 1.270 . S
O303 Zn295 1.943 . S
O303 C302 1.249 . S
O304 Zn294 2.067 . S
O304 C302 1.270 . S
C305 O298 1.262 . S
C305 O306 1.232 . S
O306 C305 1.232 . S
C307 O299 1.260 . S
C307 O300 1.257 . S
Zn308 O311 2.031 . S
Zn308 O313 2.049 . S
Zn308 O318 2.067 . S
Zn309 O310 1.962 . S
Zn309 O312 1.986 . S
Zn309 O314 1.996 . S
Zn309 O317 1.943 . S
O310 Zn309 1.962 . S
O310 C315 1.254 . S
O311 Zn308 2.031 . S
O311 C315 1.269 . S
O312 Zn309 1.986 . S
O312 C319 1.262 . S
O313 Zn308 2.049 . S
O313 C321 1.260 . S
O314 Zn309 1.996 . S
O314 C321 1.257 . S
C315 O310 1.254 . S
C315 O311 1.269 . S
C316 O317 1.249 . S
C316 O318 1.270 . S
O317 Zn309 1.943 . S
O317 C316 1.249 . S
O318 Zn308 2.067 . S
O318 C316 1.270 . S
C319 O312 1.262 . S
C319 O320 1.232 . S
O320 C319 1.232 . S
C321 O313 1.260 . S
C321 O314 1.257 . S
Zn322 O325 2.031 . S
Zn322 O327 2.049 . S
Zn322 O332 2.067 . S
Zn323 O324 1.962 . S
Zn323 O326 1.986 . S
Zn323 O328 1.996 . S
Zn323 O331 1.943 . S
O324 Zn323 1.962 . S
O324 C329 1.254 . S
O325 Zn322 2.031 . S
O325 C329 1.269 . S
O326 Zn323 1.986 . S
O326 C333 1.262 . S
O327 Zn322 2.049 . S
O327 C335 1.260 . S
O328 Zn323 1.996 . S
O328 C335 1.257 . S
C329 O324 1.254 . S
C329 O325 1.269 . S
C330 O331 1.249 . S
C330 O332 1.270 . S
O331 Zn323 1.943 . S
O331 C330 1.249 . S
O332 Zn322 2.067 . S
O332 C330 1.270 . S
C333 O326 1.262 . S
C333 O334 1.232 . S
O334 C333 1.232 . S
C335 O327 1.260 . S
C335 O328 1.257 . S
Fe336 O338 1.918 . S
Fe336 O341 1.997 . S
Fe336 O342 2.002 . S
Fe336 O347 1.976 . S
Fe336 O350 1.996 . S
Fe337 O338 1.918 . S
Fe337 O345 1.997 . S
Fe337 O348 1.996 . S
Fe337 O352 1.976 . S
Fe337 O355 2.002 . S
O338 Fe336 1.918 . S
O338 Fe337 1.918 . S
O338 Fe339 1.918 . S
Fe339 O338 1.918 . S
Fe339 O340 2.002 . S
Fe339 O349 1.976 . S
Fe339 O353 1.996 . S
Fe339 O356 1.997 . S
O340 Fe339 2.002 . S
O340 C357 1.295 . S
O341 Fe336 1.997 . S
O341 C357 1.235 . S
O342 Fe336 2.002 . S
O342 C343 1.295 . S
C343 O342 1.295 . S
C343 O345 1.235 . S
C344 O349 1.287 . S
C344 O350 1.255 . S
O345 Fe337 1.997 . S
O345 C343 1.235 . S
C346 O352 1.287 . S
C346 O353 1.255 . S
O347 Fe336 1.976 . S
O347 C354 1.287 . S
O348 Fe337 1.996 . S
O348 C354 1.255 . S
O349 Fe339 1.976 . S
O349 C344 1.287 . S
O350 Fe336 1.996 . S
O350 C344 1.255 . S
C351 O355 1.295 . S
C351 O356 1.235 . S
O352 Fe337 1.976 . S
O352 C346 1.287 . S
O353 Fe339 1.996 . S
O353 C346 1.255 . S
C354 O347 1.287 . S
C354 O348 1.255 . S
O355 Fe337 2.002 . S
O355 C351 1.295 . S
O356 Fe339 1.997 . S
O356 C351 1.235 . S
C357 O340 1.295 . S
C357 O341 1.235 . S
Fe358 O360 1.918 . S
Fe358 O363 1.997 . S
Fe358 O364 2.002 . S
Fe358 O369 1.976 . S
Fe358 O372 1.996 . S
Fe359 O360 1.918 . S
Fe359 O367 1.997 . S
Fe359 O370 1.996 . S
Fe359 O374 1.976 . S
Fe359 O377 2.002 . S
O360 Fe358 1.918 . S
O360 Fe359 1.918 . S
O360 Fe361 1.918 . S
Fe361 O360 1.918 . S
Fe361 O362 2.002 . S
Fe361 O371 1.976 . S
Fe361 O375 1.996 . S
Fe361 O378 1.997 . S
O362 Fe361 2.002 . S
O362 C379 1.295 . S
O363 Fe358 1.997 . S
O363 C379 1.235 . S
O364 Fe358 2.002 . S
O364 C365 1.295 . S
C365 O364 1.295 . S
C365 O367 1.235 . S
C366 O371 1.287 . S
C366 O372 1.255 . S
O367 Fe359 1.997 . S
O367 C365 1.235 . S
C368 O374 1.287 . S
C368 O375 1.255 . S
O369 Fe358 1.976 . S
O369 C376 1.287 . S
O370 Fe359 1.996 . S
O370 C376 1.255 . S
O371 Fe361 1.976 . S
O371 C366 1.287 . S
O372 Fe358 1.996 . S
O372 C366 1.255 . S
C373 O377 1.295 . S
C373 O378 1.235 . S
O374 Fe359 1.976 . S
O374 C368 1.287 . S
O375 Fe361 1.996 . S
O375 C368 1.255 . S
C376 O369 1.287 . S
C376 O370 1.255 . S
O377 Fe359 2.002 . S
O377 C373 1.295 . S
O378 Fe361 1.997 . S
O378 C373 1.235 . S
C379 O362 1.295 . S
C379 O363 1.235 . S
Fe380 O382 1.918 . S
Fe380 O385 1.997 . S
Fe380 O386 2.002 . S
Fe380 O391 1.976 . S
Fe380 O394 1.996 . S
Fe381 O382 1.918 . S
Fe381 O389 1.997 . S
Fe381 O392 1.996 . S
Fe381 O396 1.976 . S
Fe381 O399 2.002 . S
O382 Fe380 1.918 . S
O382 Fe381 1.918 . S
O382 Fe383 1.918 . S
Fe383 O382 1.918 . S
Fe383 O384 2.002 . S
Fe383 O393 1.976 . S
Fe383 O397 1.996 . S
Fe383 O400 1.997 . S
O384 Fe383 2.002 . S
O384 C401 1.295 . S
O385 Fe380 1.997 . S
O385 C401 1.235 . S
O386 Fe380 2.002 . S
O386 C387 1.295 . S
C387 O386 1.295 . S
C387 O389 1.235 . S
C388 O393 1.287 . S
C388 O394 1.255 . S
O389 Fe381 1.997 . S
O389 C387 1.235 . S
C390 O396 1.287 . S
C390 O397 1.255 . S
O391 Fe380 1.976 . S
O391 C398 1.287 . S
O392 Fe381 1.996 . S
O392 C398 1.255 . S
O393 Fe383 1.976 . S
O393 C388 1.287 . S
O394 Fe380 1.996 . S
O394 C388 1.255 . S
C395 O399 1.295 . S
C395 O400 1.235 . S
O396 Fe381 1.976 . S
O396 C390 1.287 . S
O397 Fe383 1.996 . S
O397 C390 1.255 . S
C398 O391 1.287 . S
C398 O392 1.255 . S
O399 Fe381 2.002 . S
O399 C395 1.295 . S
O400 Fe383 1.997 . S
O400 C395 1.235 . S
C401 O384 1.295 . S
C401 O385 1.235 . S
Fe402 O404 1.918 . S
Fe402 O407 1.997 . S
Fe402 O408 2.002 . S
Fe402 O413 1.976 . S
Fe402 O416 1.996 . S
Fe403 O404 1.918 . S
Fe403 O411 1.997 . S
Fe403 O414 1.996 . S
Fe403 O418 1.976 . S
Fe403 O421 2.002 . S
O404 Fe402 1.918 . S
O404 Fe403 1.918 . S
O404 Fe405 1.918 . S
Fe405 O404 1.918 . S
Fe405 O406 2.002 . S
Fe405 O415 1.976 . S
Fe405 O419 1.996 . S
Fe405 O422 1.997 . S
O406 Fe405 2.002 . S
O406 C423 1.295 . S
O407 Fe402 1.997 . S
O407 C423 1.235 . S
O408 Fe402 2.002 . S
O408 C409 1.295 . S
C409 O408 1.295 . S
C409 O411 1.235 . S
C410 O415 1.287 . S
C410 O416 1.255 . S
O411 Fe403 1.997 . S
O411 C409 1.235 . S
C412 O418 1.287 . S
C412 O419 1.255 . S
O413 Fe402 1.976 . S
O413 C420 1.287 . S
O414 Fe403 1.996 . S
O414 C420 1.255 . S
O415 Fe405 1.976 . S
O415 C410 1.287 . S
O416 Fe402 1.996 . S
O416 C410 1.255 . S
C417 O421 1.295 . S
C417 O422 1.235 . S
O418 Fe403 1.976 . S
O418 C412 1.287 . S
O419 Fe405 1.996 . S
O419 C412 1.255 . S
C420 O413 1.287 . S
C420 O414 1.255 . S
O421 Fe403 2.002 . S
O421 C417 1.295 . S
O422 Fe405 1.997 . S
O422 C417 1.235 . S
C423 O406 1.295 . S
C423 O407 1.235 . S
Fe424 O426 1.918 . S
Fe424 O429 1.997 . S
Fe424 O430 2.002 . S
Fe424 O435 1.976 . S
Fe424 O438 1.996 . S
Fe425 O426 1.918 . S
Fe425 O433 1.997 . S
Fe425 O436 1.996 . S
Fe425 O440 1.976 . S
Fe425 O443 2.002 . S
O426 Fe424 1.918 . S
O426 Fe425 1.918 . S
O426 Fe427 1.918 . S
Fe427 O426 1.918 . S
Fe427 O428 2.002 . S
Fe427 O437 1.976 . S
Fe427 O441 1.996 . S
Fe427 O444 1.997 . S
O428 Fe427 2.002 . S
O428 C445 1.295 . S
O429 Fe424 1.997 . S
O429 C445 1.235 . S
O430 Fe424 2.002 . S
O430 C431 1.295 . S
C431 O430 1.295 . S
C431 O433 1.235 . S
C432 O437 1.287 . S
C432 O438 1.255 . S
O433 Fe425 1.997 . S
O433 C431 1.235 . S
C434 O440 1.287 . S
C434 O441 1.255 . S
O435 Fe424 1.976 . S
O435 C442 1.287 . S
O436 Fe425 1.996 . S
O436 C442 1.255 . S
O437 Fe427 1.976 . S
O437 C432 1.287 . S
O438 Fe424 1.996 . S
O438 C432 1.255 . S
C439 O443 1.295 . S
C439 O444 1.235 . S
O440 Fe425 1.976 . S
O440 C434 1.287 . S
O441 Fe427 1.996 . S
O441 C434 1.255 . S
C442 O435 1.287 . S
C442 O436 1.255 . S
O443 Fe425 2.002 . S
O443 C439 1.295 . S
O444 Fe427 1.997 . S
O444 C439 1.235 . S
C445 O428 1.295 . S
C445 O429 1.235 . S
Fe446 O448 1.918 . S
Fe446 O451 1.997 . S
Fe446 O452 2.002 . S
Fe446 O457 1.976 . S
Fe446 O460 1.996 . S
Fe447 O448 1.918 . S
Fe447 O455 1.997 . S
Fe447 O458 1.996 . S
Fe447 O462 1.976 . S
Fe447 O465 2.002 . S
O448 Fe446 1.918 . S
O448 Fe447 1.918 . S
O448 Fe449 1.918 . S
Fe449 O448 1.918 . S
Fe449 O450 2.002 . S
Fe449 O459 1.976 . S
Fe449 O463 1.996 . S
Fe449 O466 1.997 . S
O450 Fe449 2.002 . S
O450 C467 1.295 . S
O451 Fe446 1.997 . S
O451 C467 1.235 . S
O452 Fe446 2.002 . S
O452 C453 1.295 . S
C453 O452 1.295 . S
C453 O455 1.235 . S
C454 O459 1.287 . S
C454 O460 1.255 . S
O455 Fe447 1.997 . S
O455 C453 1.235 . S
C456 O462 1.287 . S
C456 O463 1.255 . S
O457 Fe446 1.976 . S
O457 C464 1.287 . S
O458 Fe447 1.996 . S
O458 C464 1.255 . S
O459 Fe449 1.976 . S
O459 C454 1.287 . S
O460 Fe446 1.996 . S
O460 C454 1.255 . S
C461 O465 1.295 . S
C461 O466 1.235 . S
O462 Fe447 1.976 . S
O462 C456 1.287 . S
O463 Fe449 1.996 . S
O463 C456 1.255 . S
C464 O457 1.287 . S
C464 O458 1.255 . S
O465 Fe447 2.002 . S
O465 C461 1.295 . S
O466 Fe449 1.997 . S
O466 C461 1.235 . S
C467 O450 1.295 . S
C467 O451 1.235 . S
Fe468 O470 1.918 . S
Fe468 O473 1.997 . S
Fe468 O474 2.002 . S
Fe468 O479 1.976 . S
Fe468 O482 1.996 . S
Fe469 O470 1.918 . S
Fe469 O477 1.997 . S
Fe469 O480 1.996 . S
Fe469 O484 1.976 . S
Fe469 O487 2.002 . S
O470 Fe468 1.918 . S
O470 Fe469 1.918 . S
O470 Fe471 1.918 . S
Fe471 O470 1.918 . S
Fe471 O472 2.002 . S
Fe471 O481 1.976 . S
Fe471 O485 1.996 . S
Fe471 O488 1.997 . S
O472 Fe471 2.002 . S
O472 C489 1.295 . S
O473 Fe468 1.997 . S
O473 C489 1.235 . S
O474 Fe468 2.002 . S
O474 C475 1.295 . S
C475 O474 1.295 . S
C475 O477 1.235 . S
C476 O481 1.287 . S
C476 O482 1.255 . S
O477 Fe469 1.997 . S
O477 C475 1.235 . S
C478 O484 1.287 . S
C478 O485 1.255 . S
O479 Fe468 1.976 . S
O479 C486 1.287 . S
O480 Fe469 1.996 . S
O480 C486 1.255 . S
O481 Fe471 1.976 . S
O481 C476 1.287 . S
O482 Fe468 1.996 . S
O482 C476 1.255 . S
C483 O487 1.295 . S
C483 O488 1.235 . S
O484 Fe469 1.976 . S
O484 C478 1.287 . S
O485 Fe471 1.996 . S
O485 C478 1.255 . S
C486 O479 1.287 . S
C486 O480 1.255 . S
O487 Fe469 2.002 . S
O487 C483 1.295 . S
O488 Fe471 1.997 . S
O488 C483 1.235 . S
C489 O472 1.295 . S
C489 O473 1.235 . S
Fe490 O492 1.918 . S
Fe490 O495 1.997 . S
Fe490 O496 2.002 . S
Fe490 O501 1.976 . S
Fe490 O504 1.996 . S
Fe491 O492 1.918 . S
Fe491 O499 1.997 . S
Fe491 O502 1.996 . S
Fe491 O506 1.976 . S
Fe491 O509 2.002 . S
O492 Fe490 1.918 . S
O492 Fe491 1.918 . S
O492 Fe493 1.918 . S
Fe493 O492 1.918 . S
Fe493 O494 2.002 . S
Fe493 O503 1.976 . S
Fe493 O507 1.996 . S
Fe493 O510 1.997 . S
O494 Fe493 2.002 . S
O494 C511 1.295 . S
O495 Fe490 1.997 . S
O495 C511 1.235 . S
O496 Fe490 2.002 . S
O496 C497 1.295 . S
C497 O496 1.295 . S
C497 O499 1.235 . S
C498 O503 1.287 . S
C498 O504 1.255 . S
O499 Fe491 1.997 . S
O499 C497 1.235 . S
C500 O506 1.287 . S
C500 O507 1.255 . S
O501 Fe490 1.976 . S
O501 C508 1.287 . S
O502 Fe491 1.996 . S
O502 C508 1.255 . S
O503 Fe493 1.976 . S
O503 C498 1.287 . S
O504 Fe490 1.996 . S
O504 C498 1.255 . S
C505 O509 1.295 . S
C505 O510 1.235 . S
O506 Fe491 1.976 . S
O506 C500 1.287 . S
O507 Fe493 1.996 . S
O507 C500 1.255 . S
C508 O501 1.287 . S
C508 O502 1.255 . S
O509 Fe491 2.002 . S
O509 C505 1.295 . S
O510 Fe493 1.997 . S
O510 C505 1.235 . S
C511 O494 1.295 . S
C511 O495 1.235 . S
Fe512 O514 1.918 . S
Fe512 O517 1.997 . S
Fe512 O518 2.002 . S
Fe512 O523 1.976 . S
Fe512 O526 1.996 . S
Fe513 O514 1.918 . S
Fe513 O521 1.997 . S
Fe513 O524 1.996 . S
Fe513 O528 1.976 . S
Fe513 O531 2.002 . S
O514 Fe512 1.918 . S
O514 Fe513 1.918 . S
O514 Fe515 1.918 . S
Fe515 O514 1.918 . S
Fe515 O516 2.002 . S
Fe515 O525 1.976 . S
Fe515 O529 1.996 . S
Fe515 O532 1.997 . S
O516 Fe515 2.002 . S
O516 C533 1.295 . S
O517 Fe512 1.997 . S
O517 C533 1.235 . S
O518 Fe512 2.002 . S
O518 C519 1.295 . S
C519 O518 1.295 . S
C519 O521 1.235 . S
C520 O525 1.287 . S
C520 O526 1.255 . S
O521 Fe513 1.997 . S
O521 C519 1.235 . S
C522 O528 1.287 . S
C522 O529 1.255 . S
O523 Fe512 1.976 . S
O523 C530 1.287 . S
O524 Fe513 1.996 . S
O524 C530 1.255 . S
O525 Fe515 1.976 . S
O525 C520 1.287 . S
O526 Fe512 1.996 . S
O526 C520 1.255 . S
C527 O531 1.295 . S
C527 O532 1.235 . S
O528 Fe513 1.976 . S
O528 C522 1.287 . S
O529 Fe515 1.996 . S
O529 C522 1.255 . S
C530 O523 1.287 . S
C530 O524 1.255 . S
O531 Fe513 2.002 . S
O531 C527 1.295 . S
O532 Fe515 1.997 . S
O532 C527 1.235 . S
C533 O516 1.295 . S
C533 O517 1.235 . S
Fe534 O536 1.918 . S
Fe534 O539 1.997 . S
Fe534 O540 2.002 . S
Fe534 O545 1.976 . S
Fe534 O548 1.996 . S
Fe535 O536 1.918 . S
Fe535 O543 1.997 . S
Fe535 O546 1.996 . S
Fe535 O550 1.976 . S
Fe535 O553 2.002 . S
O536 Fe534 1.918 . S
O536 Fe535 1.918 . S
O536 Fe537 1.918 . S
Fe537 O536 1.918 . S
Fe537 O538 2.002 . S
Fe537 O547 1.976 . S
Fe537 O551 1.996 . S
Fe537 O554 1.997 . S
O538 Fe537 2.002 . S
O538 C555 1.295 . S
O539 Fe534 1.997 . S
O539 C555 1.235 . S
O540 Fe534 2.002 . S
O540 C541 1.295 . S
C541 O540 1.295 . S
C541 O543 1.235 . S
C542 O547 1.287 . S
C542 O548 1.255 . S
O543 Fe535 1.997 . S
O543 C541 1.235 . S
C544 O550 1.287 . S
C544 O551 1.255 . S
O545 Fe534 1.976 . S
O545 C552 1.287 . S
O546 Fe535 1.996 . S
O546 C552 1.255 . S
O547 Fe537 1.976 . S
O547 C542 1.287 . S
O548 Fe534 1.996 . S
O548 C542 1.255 . S
C549 O553 1.295 . S
C549 O554 1.235 . S
O550 Fe535 1.976 . S
O550 C544 1.287 . S
O551 Fe537 1.996 . S
O551 C544 1.255 . S
C552 O545 1.287 . S
C552 O546 1.255 . S
O553 Fe535 2.002 . S
O553 C549 1.295 . S
O554 Fe537 1.997 . S
O554 C549 1.235 . S
C555 O538 1.295 . S
C555 O539 1.235 . S
Fe556 O558 1.918 . S
Fe556 O561 1.997 . S
Fe556 O562 2.002 . S
Fe556 O567 1.976 . S
Fe556 O570 1.996 . S
Fe557 O558 1.918 . S
Fe557 O565 1.997 . S
Fe557 O568 1.996 . S
Fe557 O572 1.976 . S
Fe557 O575 2.002 . S
O558 Fe556 1.918 . S
O558 Fe557 1.918 . S
O558 Fe559 1.918 . S
Fe559 O558 1.918 . S
Fe559 O560 2.002 . S
Fe559 O569 1.976 . S
Fe559 O573 1.996 . S
Fe559 O576 1.997 . S
O560 Fe559 2.002 . S
O560 C577 1.295 . S
O561 Fe556 1.997 . S
O561 C577 1.235 . S
O562 Fe556 2.002 . S
O562 C563 1.295 . S
C563 O562 1.295 . S
C563 O565 1.235 . S
C564 O569 1.287 . S
C564 O570 1.255 . S
O565 Fe557 1.997 . S
O565 C563 1.235 . S
C566 O572 1.287 . S
C566 O573 1.255 . S
O567 Fe556 1.976 . S
O567 C574 1.287 . S
O568 Fe557 1.996 . S
O568 C574 1.255 . S
O569 Fe559 1.976 . S
O569 C564 1.287 . S
O570 Fe556 1.996 . S
O570 C564 1.255 . S
C571 O575 1.295 . S
C571 O576 1.235 . S
O572 Fe557 1.976 . S
O572 C566 1.287 . S
O573 Fe559 1.996 . S
O573 C566 1.255 . S
C574 O567 1.287 . S
C574 O568 1.255 . S
O575 Fe557 2.002 . S
O575 C571 1.295 . S
O576 Fe559 1.997 . S
O576 C571 1.235 . S
C577 O560 1.295 . S
C577 O561 1.235 . S
Fe578 O580 1.918 . S
Fe578 O583 1.997 . S
Fe578 O584 2.002 . S
Fe578 O589 1.976 . S
Fe578 O592 1.996 . S
Fe579 O580 1.918 . S
Fe579 O587 1.997 . S
Fe579 O590 1.996 . S
Fe579 O594 1.976 . S
Fe579 O597 2.002 . S
O580 Fe578 1.918 . S
O580 Fe579 1.918 . S
O580 Fe581 1.918 . S
Fe581 O580 1.918 . S
Fe581 O582 2.002 . S
Fe581 O591 1.976 . S
Fe581 O595 1.996 . S
Fe581 O598 1.997 . S
O582 Fe581 2.002 . S
O582 C599 1.295 . S
O583 Fe578 1.997 . S
O583 C599 1.235 . S
O584 Fe578 2.002 . S
O584 C585 1.295 . S
C585 O584 1.295 . S
C585 O587 1.235 . S
C586 O591 1.287 . S
C586 O592 1.255 . S
O587 Fe579 1.997 . S
O587 C585 1.235 . S
C588 O594 1.287 . S
C588 O595 1.255 . S
O589 Fe578 1.976 . S
O589 C596 1.287 . S
O590 Fe579 1.996 . S
O590 C596 1.255 . S
O591 Fe581 1.976 . S
O591 C586 1.287 . S
O592 Fe578 1.996 . S
O592 C586 1.255 . S
C593 O597 1.295 . S
C593 O598 1.235 . S
O594 Fe579 1.976 . S
O594 C588 1.287 . S
O595 Fe581 1.996 . S
O595 C588 1.255 . S
C596 O589 1.287 . S
C596 O590 1.255 . S
O597 Fe579 2.002 . S
O597 C593 1.295 . S
O598 Fe581 1.997 . S
O598 C593 1.235 . S
C599 O582 1.295 . S
C599 O583 1.235 . S
Fe600 O602 1.918 . S
Fe600 O605 1.997 . S
Fe600 O606 2.002 . S
Fe600 O611 1.976 . S
Fe600 O614 1.996 . S
Fe601 O602 1.918 . S
Fe601 O609 1.997 . S
Fe601 O612 1.996 . S
Fe601 O616 1.976 . S
Fe601 O619 2.002 . S
O602 Fe600 1.918 . S
O602 Fe601 1.918 . S
O602 Fe603 1.918 . S
Fe603 O602 1.918 . S
Fe603 O604 2.002 . S
Fe603 O613 1.976 . S
Fe603 O617 1.996 . S
Fe603 O620 1.997 . S
O604 Fe603 2.002 . S
O604 C621 1.295 . S
O605 Fe600 1.997 . S
O605 C621 1.235 . S
O606 Fe600 2.002 . S
O606 C607 1.295 . S
C607 O606 1.295 . S
C607 O609 1.235 . S
C608 O613 1.287 . S
C608 O614 1.255 . S
O609 Fe601 1.997 . S
O609 C607 1.235 . S
C610 O616 1.287 . S
C610 O617 1.255 . S
O611 Fe600 1.976 . S
O611 C618 1.287 . S
O612 Fe601 1.996 . S
O612 C618 1.255 . S
O613 Fe603 1.976 . S
O613 C608 1.287 . S
O614 Fe600 1.996 . S
O614 C608 1.255 . S
C615 O619 1.295 . S
C615 O620 1.235 . S
O616 Fe601 1.976 . S
O616 C610 1.287 . S
O617 Fe603 1.996 . S
O617 C610 1.255 . S
C618 O611 1.287 . S
C618 O612 1.255 . S
O619 Fe601 2.002 . S
O619 C615 1.295 . S
O620 Fe603 1.997 . S
O620 C615 1.235 . S
C621 O604 1.295 . S
C621 O605 1.235 . S
Fe622 O624 1.918 . S
Fe622 O627 1.997 . S
Fe622 O628 2.002 . S
Fe622 O633 1.976 . S
Fe622 O636 1.996 . S
Fe623 O624 1.918 . S
Fe623 O631 1.997 . S
Fe623 O634 1.996 . S
Fe623 O638 1.976 . S
Fe623 O641 2.002 . S
O624 Fe622 1.918 . S
O624 Fe623 1.918 . S
O624 Fe625 1.918 . S
Fe625 O624 1.918 . S
Fe625 O626 2.002 . S
Fe625 O635 1.976 . S
Fe625 O639 1.996 . S
Fe625 O642 1.997 . S
O626 Fe625 2.002 . S
O626 C643 1.295 . S
O627 Fe622 1.997 . S
O627 C643 1.235 . S
O628 Fe622 2.002 . S
O628 C629 1.295 . S
C629 O628 1.295 . S
C629 O631 1.235 . S
C630 O635 1.287 . S
C630 O636 1.255 . S
O631 Fe623 1.997 . S
O631 C629 1.235 . S
C632 O638 1.287 . S
C632 O639 1.255 . S
O633 Fe622 1.976 . S
O633 C640 1.287 . S
O634 Fe623 1.996 . S
O634 C640 1.255 . S
O635 Fe625 1.976 . S
O635 C630 1.287 . S
O636 Fe622 1.996 . S
O636 C630 1.255 . S
C637 O641 1.295 . S
C637 O642 1.235 . S
O638 Fe623 1.976 . S
O638 C632 1.287 . S
O639 Fe625 1.996 . S
O639 C632 1.255 . S
C640 O633 1.287 . S
C640 O634 1.255 . S
O641 Fe623 2.002 . S
O641 C637 1.295 . S
O642 Fe625 1.997 . S
O642 C637 1.235 . S
C643 O626 1.295 . S
C643 O627 1.235 . S
Fe644 O646 1.918 . S
Fe644 O649 1.997 . S
Fe644 O650 2.002 . S
Fe644 O655 1.976 . S
Fe644 O658 1.996 . S
Fe645 O646 1.918 . S
Fe645 O653 1.997 . S
Fe645 O656 1.996 . S
Fe645 O660 1.976 . S
Fe645 O663 2.002 . S
O646 Fe644 1.918 . S
O646 Fe645 1.918 . S
O646 Fe647 1.918 . S
Fe647 O646 1.918 . S
Fe647 O648 2.002 . S
Fe647 O657 1.976 . S
Fe647 O661 1.996 . S
Fe647 O664 1.997 . S
O648 Fe647 2.002 . S
O648 C665 1.295 . S
O649 Fe644 1.997 . S
O649 C665 1.235 . S
O650 Fe644 2.002 . S
O650 C651 1.295 . S
C651 O650 1.295 . S
C651 O653 1.235 . S
C652 O657 1.287 . S
C652 O658 1.255 . S
O653 Fe645 1.997 . S
O653 C651 1.235 . S
C654 O660 1.287 . S
C654 O661 1.255 . S
O655 Fe644 1.976 . S
O655 C662 1.287 . S
O656 Fe645 1.996 . S
O656 C662 1.255 . S
O657 Fe647 1.976 . S
O657 C652 1.287 . S
O658 Fe644 1.996 . S
O658 C652 1.255 . S
C659 O663 1.295 . S
C659 O664 1.235 . S
O660 Fe645 1.976 . S
O660 C654 1.287 . S
O661 Fe647 1.996 . S
O661 C654 1.255 . S
C662 O655 1.287 . S
C662 O656 1.255 . S
O663 Fe645 2.002 . S
O663 C659 1.295 . S
O664 Fe647 1.997 . S
O664 C659 1.235 . S
C665 O648 1.295 . S
C665 O649 1.235 . S
Fe666 O668 1.918 . S
Fe666 O671 1.997 . S
Fe666 O672 2.002 . S
Fe666 O677 1.976 . S
Fe666 O680 1.996 . S
Fe667 O668 1.918 . S
Fe667 O675 1.997 . S
Fe667 O678 1.996 . S
Fe667 O682 1.976 . S
Fe667 O685 2.002 . S
O668 Fe666 1.918 . S
O668 Fe667 1.918 . S
O668 Fe669 1.918 . S
Fe669 O668 1.918 . S
Fe669 O670 2.002 . S
Fe669 O679 1.976 . S
Fe669 O683 1.996 . S
Fe669 O686 1.997 . S
O670 Fe669 2.002 . S
O670 C687 1.295 . S
O671 Fe666 1.997 . S
O671 C687 1.235 . S
O672 Fe666 2.002 . S
O672 C673 1.295 . S
C673 O672 1.295 . S
C673 O675 1.235 . S
C674 O679 1.287 . S
C674 O680 1.255 . S
O675 Fe667 1.997 . S
O675 C673 1.235 . S
C676 O682 1.287 . S
C676 O683 1.255 . S
O677 Fe666 1.976 . S
O677 C684 1.287 . S
O678 Fe667 1.996 . S
O678 C684 1.255 . S
O679 Fe669 1.976 . S
O679 C674 1.287 . S
O680 Fe666 1.996 . S
O680 C674 1.255 . S
C681 O685 1.295 . S
C681 O686 1.235 . S
O682 Fe667 1.976 . S
O682 C676 1.287 . S
O683 Fe669 1.996 . S
O683 C676 1.255 . S
C684 O677 1.287 . S
C684 O678 1.255 . S
O685 Fe667 2.002 . S
O685 C681 1.295 . S
O686 Fe669 1.997 . S
O686 C681 1.235 . S
C687 O670 1.295 . S
C687 O671 1.235 . S
C688 C689 1.387 . S
C688 H692 0.950 . S
C688 C697 1.390 . S
C689 C688 1.387 . S
C689 C691 1.387 . S
H690 C697 0.950 . S
C691 C689 1.387 . S
C691 C693 1.390 . S
C691 H695 0.950 . S
H692 C688 0.950 . S
C693 C691 1.390 . S
C693 C694 1.387 . S
C693 H696 0.950 . S
C694 C693 1.387 . S
C694 C697 1.387 . S
H695 C691 0.950 . S
H696 C693 0.950 . S
C697 C688 1.390 . S
C697 H690 0.950 . S
C697 C694 1.387 . S
C698 C699 1.387 . S
C698 H702 0.950 . S
C698 C707 1.390 . S
C699 C698 1.387 . S
C699 C701 1.387 . S
H700 C707 0.950 . S
C701 C699 1.387 . S
C701 C703 1.390 . S
C701 H705 0.950 . S
H702 C698 0.950 . S
C703 C701 1.390 . S
C703 C704 1.387 . S
C703 H706 0.950 . S
C704 C703 1.387 . S
C704 C707 1.387 . S
H705 C701 0.950 . S
H706 C703 0.950 . S
C707 C698 1.390 . S
C707 H700 0.950 . S
C707 C704 1.387 . S
C708 C709 1.387 . S
C708 H712 0.950 . S
C708 C717 1.390 . S
C709 C708 1.387 . S
C709 C711 1.387 . S
H710 C717 0.950 . S
C711 C709 1.387 . S
C711 C713 1.390 . S
C711 H715 0.950 . S
H712 C708 0.950 . S
C713 C711 1.390 . S
C713 C714 1.387 . S
C713 H716 0.950 . S
C714 C713 1.387 . S
C714 C717 1.387 . S
H715 C711 0.950 . S
H716 C713 0.950 . S
C717 C708 1.390 . S
C717 H710 0.950 . S
C717 C714 1.387 . S
C718 C719 1.387 . S
C718 H722 0.950 . S
C718 C727 1.390 . S
C719 C718 1.387 . S
C719 C721 1.387 . S
H720 C727 0.950 . S
C721 C719 1.387 . S
C721 C723 1.390 . S
C721 H725 0.950 . S
H722 C718 0.950 . S
C723 C721 1.390 . S
C723 C724 1.387 1_554 S
C723 H726 0.950 1_554 S
C724 C723 1.387 1_556 S
C724 C727 1.387 1_556 S
H725 C721 0.950 . S
H726 C723 0.950 1_556 S
C727 C718 1.390 . S
C727 H720 0.950 . S
C727 C724 1.387 1_554 S
C728 C729 1.387 . S
C728 H732 0.950 . S
C728 C737 1.390 . S
C729 C728 1.387 . S
C729 C731 1.387 . S
H730 C737 0.950 . S
C731 C729 1.387 . S
C731 C733 1.390 . S
C731 H735 0.950 . S
H732 C728 0.950 . S
C733 C731 1.390 . S
C733 C734 1.387 . S
C733 H736 0.950 . S
C734 C733 1.387 . S
C734 C737 1.387 . S
H735 C731 0.950 . S
H736 C733 0.950 . S
C737 C728 1.390 . S
C737 H730 0.950 . S
C737 C734 1.387 . S
C738 C739 1.387 . S
C738 H742 0.950 . S
C738 C747 1.390 . S
C739 C738 1.387 . S
C739 C741 1.387 . S
H740 C747 0.950 . S
C741 C739 1.387 . S
C741 C743 1.390 . S
C741 H745 0.950 . S
H742 C738 0.950 . S
C743 C741 1.390 . S
C743 C744 1.387 . S
C743 H746 0.950 . S
C744 C743 1.387 . S
C744 C747 1.387 . S
H745 C741 0.950 . S
H746 C743 0.950 . S
C747 C738 1.390 . S
C747 H740 0.950 . S
C747 C744 1.387 . S
C748 C749 1.387 . S
C748 H752 0.950 . S
C748 C757 1.390 . S
C749 C748 1.387 . S
C749 C751 1.387 . S
H750 C757 0.950 . S
C751 C749 1.387 . S
C751 C753 1.390 . S
C751 H755 0.950 . S
H752 C748 0.950 . S
C753 C751 1.390 . S
C753 C754 1.387 . S
C753 H756 0.950 . S
C754 C753 1.387 . S
C754 C757 1.387 . S
H755 C751 0.950 . S
H756 C753 0.950 . S
C757 C748 1.390 . S
C757 H750 0.950 . S
C757 C754 1.387 . S
C758 C759 1.387 . S
C758 H762 0.950 . S
C758 C767 1.390 . S
C759 C758 1.387 . S
C759 C761 1.387 . S
H760 C767 0.950 . S
C761 C759 1.387 . S
C761 C763 1.390 1_556 S
C761 H765 0.950 . S
H762 C758 0.950 . S
C763 C761 1.390 1_554 S
C763 C764 1.387 . S
C763 H766 0.950 . S
C764 C763 1.387 . S
C764 C767 1.387 1_554 S
H765 C761 0.950 . S
H766 C763 0.950 . S
C767 C758 1.390 . S
C767 H760 0.950 . S
C767 C764 1.387 1_556 S
C768 C769 1.387 . S
C768 H772 0.950 . S
C768 C777 1.390 . S
C769 C768 1.387 . S
C769 C771 1.387 . S
H770 C777 0.950 . S
C771 C769 1.387 . S
C771 C773 1.390 . S
C771 H775 0.950 . S
H772 C768 0.950 . S
C773 C771 1.390 . S
C773 C774 1.387 . S
C773 H776 0.950 . S
C774 C773 1.387 . S
C774 C777 1.387 . S
H775 C771 0.950 . S
H776 C773 0.950 . S
C777 C768 1.390 . S
C777 H770 0.950 . S
C777 C774 1.387 . S
C778 C779 1.387 . S
C778 H782 0.950 . S
C778 C787 1.390 . S
C779 C778 1.387 . S
C779 C781 1.387 . S
H780 C787 0.950 . S
C781 C779 1.387 . S
C781 C783 1.390 . S
C781 H785 0.950 . S
H782 C778 0.950 . S
C783 C781 1.390 . S
C783 C784 1.387 1_545 S
C783 H786 0.950 1_545 S
C784 C783 1.387 1_565 S
C784 C787 1.387 1_565 S
H785 C781 0.950 . S
H786 C783 0.950 1_565 S
C787 C778 1.390 . S
C787 H780 0.950 . S
C787 C784 1.387 1_545 S
C788 C789 1.387 . S
C788 H792 0.950 . S
C788 C797 1.390 . S
C789 C788 1.387 . S
C789 C791 1.387 . S
H790 C797 0.950 . S
C791 C789 1.387 . S
C791 C793 1.390 . S
C791 H795 0.950 . S
H792 C788 0.950 . S
C793 C791 1.390 . S
C793 C794 1.387 . S
C793 H796 0.950 . S
C794 C793 1.387 . S
C794 C797 1.387 . S
H795 C791 0.950 . S
H796 C793 0.950 . S
C797 C788 1.390 . S
C797 H790 0.950 . S
C797 C794 1.387 . S
C798 C799 1.387 . S
C798 H802 0.950 . S
C798 C807 1.390 1_565 S
C799 C798 1.387 . S
C799 C801 1.387 . S
H800 C807 0.950 . S
C801 C799 1.387 . S
C801 C803 1.390 . S
C801 H805 0.950 . S
H802 C798 0.950 . S
C803 C801 1.390 . S
C803 C804 1.387 1_565 S
C803 H806 0.950 1_565 S
C804 C803 1.387 1_545 S
C804 C807 1.387 . S
H805 C801 0.950 . S
H806 C803 0.950 1_545 S
C807 C798 1.390 1_545 S
C807 H800 0.950 . S
C807 C804 1.387 . S
C808 C809 1.387 . S
C808 H812 0.950 . S
C808 C817 1.390 . S
C809 C808 1.387 . S
C809 C811 1.387 . S
H810 C817 0.950 . S
C811 C809 1.387 . S
C811 C813 1.390 . S
C811 H815 0.950 . S
H812 C808 0.950 . S
C813 C811 1.390 . S
C813 C814 1.387 . S
C813 H816 0.950 . S
C814 C813 1.387 . S
C814 C817 1.387 . S
H815 C811 0.950 . S
H816 C813 0.950 . S
C817 C808 1.390 . S
C817 H810 0.950 . S
C817 C814 1.387 . S
C818 C819 1.387 . S
C818 H822 0.950 . S
C818 C827 1.390 . S
C819 C818 1.387 . S
C819 C821 1.387 . S
H820 C827 0.950 1_565 S
C821 C819 1.387 . S
C821 C823 1.390 . S
C821 H825 0.950 . S
H822 C818 0.950 . S
C823 C821 1.390 . S
C823 C824 1.387 1_545 S
C823 H826 0.950 . S
C824 C823 1.387 1_565 S
C824 C827 1.387 1_565 S
H825 C821 0.950 . S
H826 C823 0.950 . S
C827 C818 1.390 . S
C827 H820 0.950 1_545 S
C827 C824 1.387 1_545 S
C828 C829 1.387 . S
C828 H832 0.950 . S
C828 C837 1.390 . S
C829 C828 1.387 . S
C829 C831 1.387 . S
H830 C837 0.950 . S
C831 C829 1.387 . S
C831 C833 1.390 . S
C831 H835 0.950 . S
H832 C828 0.950 . S
C833 C831 1.390 . S
C833 C834 1.387 . S
C833 H836 0.950 . S
C834 C833 1.387 . S
C834 C837 1.387 . S
H835 C831 0.950 . S
H836 C833 0.950 . S
C837 C828 1.390 . S
C837 H830 0.950 . S
C837 C834 1.387 . S
C838 C839 1.387 . S
C838 H842 0.950 . S
C838 C847 1.390 . S
C839 C838 1.387 . S
C839 C841 1.387 . S
H840 C847 0.950 . S
C841 C839 1.387 . S
C841 C843 1.390 1_565 S
C841 H845 0.950 . S
H842 C838 0.950 . S
C843 C841 1.390 1_545 S
C843 C844 1.387 . S
C843 H846 0.950 . S
C844 C843 1.387 . S
C844 C847 1.387 1_545 S
H845 C841 0.950 . S
H846 C843 0.950 . S
C847 C838 1.390 . S
C847 H840 0.950 . S
C847 C844 1.387 1_565 S
C848 C849 1.387 . S
C848 H852 0.950 . S
C848 C857 1.390 . S
C849 C848 1.387 . S
C849 C851 1.387 . S
H850 C857 0.950 . S
C851 C849 1.387 . S
C851 C853 1.390 . S
C851 H855 0.950 . S
H852 C848 0.950 . S
C853 C851 1.390 . S
C853 C854 1.387 . S
C853 H856 0.950 . S
C854 C853 1.387 . S
C854 C857 1.387 . S
H855 C851 0.950 . S
H856 C853 0.950 . S
C857 C848 1.390 . S
C857 H850 0.950 . S
C857 C854 1.387 . S
C858 C859 1.387 . S
C858 H862 0.950 . S
C858 C867 1.390 . S
C859 C858 1.387 . S
C859 C861 1.387 . S
H860 C867 0.950 . S
C861 C859 1.387 . S
C861 C863 1.390 . S
C861 H865 0.950 . S
H862 C858 0.950 . S
C863 C861 1.390 . S
C863 C864 1.387 . S
C863 H866 0.950 . S
C864 C863 1.387 . S
C864 C867 1.387 . S
H865 C861 0.950 . S
H866 C863 0.950 . S
C867 C858 1.390 . S
C867 H860 0.950 . S
C867 C864 1.387 . S
C868 C869 1.387 . S
C868 H872 0.950 . S
C868 C877 1.390 . S
C869 C868 1.387 . S
C869 C871 1.387 . S
H870 C877 0.950 1_655 S
C871 C869 1.387 . S
C871 C873 1.390 . S
C871 H875 0.950 . S
H872 C868 0.950 . S
C873 C871 1.390 . S
C873 C874 1.387 1_455 S
C873 H876 0.950 1_455 S
C874 C873 1.387 1_655 S
C874 C877 1.387 1_655 S
H875 C871 0.950 . S
H876 C873 0.950 1_655 S
C877 C868 1.390 . S
C877 H870 0.950 1_455 S
C877 C874 1.387 1_455 S
C878 C879 1.387 . S
C878 H882 0.950 . S
C878 C887 1.390 . S
C879 C878 1.387 . S
C879 C881 1.387 . S
H880 C887 0.950 . S
C881 C879 1.387 . S
C881 C883 1.390 . S
C881 H885 0.950 . S
H882 C878 0.950 . S
C883 C881 1.390 . S
C883 C884 1.387 . S
C883 H886 0.950 . S
C884 C883 1.387 . S
C884 C887 1.387 . S
H885 C881 0.950 . S
H886 C883 0.950 . S
C887 C878 1.390 . S
C887 H880 0.950 . S
C887 C884 1.387 . S
C888 C889 1.387 . S
C888 H892 0.950 . S
C888 C897 1.390 1_655 S
C889 C888 1.387 . S
C889 C891 1.387 . S
H890 C897 0.950 . S
C891 C889 1.387 . S
C891 C893 1.390 . S
C891 H895 0.950 . S
H892 C888 0.950 . S
C893 C891 1.390 . S
C893 C894 1.387 1_655 S
C893 H896 0.950 . S
C894 C893 1.387 1_455 S
C894 C897 1.387 . S
H895 C891 0.950 . S
H896 C893 0.950 . S
C897 C888 1.390 1_455 S
C897 H890 0.950 . S
C897 C894 1.387 . S
C898 C899 1.387 . S
C898 H902 0.950 . S
C898 C907 1.390 . S
C899 C898 1.387 . S
C899 C901 1.387 . S
H900 C907 0.950 . S
C901 C899 1.387 . S
C901 C903 1.390 . S
C901 H905 0.950 . S
H902 C898 0.950 . S
C903 C901 1.390 . S
C903 C904 1.387 . S
C903 H906 0.950 . S
C904 C903 1.387 . S
C904 C907 1.387 . S
H905 C901 0.950 . S
H906 C903 0.950 . S
C907 C898 1.390 . S
C907 H900 0.950 . S
C907 C904 1.387 . S
C908 C909 1.387 . S
C908 H912 0.950 . S
C908 C917 1.390 . S
C909 C908 1.387 . S
C909 C911 1.387 . S
H910 C917 0.950 . S
C911 C909 1.387 . S
C911 C913 1.390 1_455 S
C911 H915 0.950 . S
H912 C908 0.950 . S
C913 C911 1.390 1_655 S
C913 C914 1.387 . S
C913 H916 0.950 . S
C914 C913 1.387 . S
C914 C917 1.387 1_655 S
H915 C911 0.950 . S
H916 C913 0.950 . S
C917 C908 1.390 . S
C917 H910 0.950 . S
C917 C914 1.387 1_455 S
C918 C919 1.387 . S
C918 H922 0.950 . S
C918 C927 1.390 . S
C919 C918 1.387 . S
C919 C921 1.387 . S
H920 C927 0.950 . S
C921 C919 1.387 . S
C921 C923 1.390 . S
C921 H925 0.950 . S
H922 C918 0.950 . S
C923 C921 1.390 . S
C923 C924 1.387 . S
C923 H926 0.950 . S
C924 C923 1.387 . S
C924 C927 1.387 . S
H925 C921 0.950 . S
H926 C923 0.950 . S
C927 C918 1.390 . S
C927 H920 0.950 . S
C927 C924 1.387 . S
C928 C929 1.387 . S
C928 H932 0.950 . S
C928 C937 1.390 . S
C929 C928 1.387 . S
C929 C931 1.387 . S
H930 C937 0.950 . S
C931 C929 1.387 . S
C931 C933 1.390 . S
C931 H935 0.950 . S
H932 C928 0.950 . S
C933 C931 1.390 . S
C933 C934 1.387 . S
C933 H936 0.950 . S
C934 C933 1.387 . S
C934 C937 1.387 . S
H935 C931 0.950 . S
H936 C933 0.950 . S
C937 C928 1.390 . S
C937 H930 0.950 . S
C937 C934 1.387 . S
C938 C939 1.387 . S
C938 H942 0.950 . S
C938 C947 1.390 . S
C939 C938 1.387 . S
C939 C941 1.387 . S
H940 C947 0.950 . S
C941 C939 1.387 . S
C941 C943 1.390 . S
C941 H945 0.950 . S
H942 C938 0.950 . S
C943 C941 1.390 . S
C943 C944 1.387 . S
C943 H946 0.950 . S
C944 C943 1.387 . S
C944 C947 1.387 . S
H945 C941 0.950 . S
H946 C943 0.950 . S
C947 C938 1.390 . S
C947 H940 0.950 . S
C947 C944 1.387 . S
C948 C949 1.387 . S
C948 H952 0.950 . S
C948 C957 1.390 . S
C949 C948 1.387 . S
C949 C951 1.387 . S
H950 C957 0.950 . S
C951 C949 1.387 . S
C951 C953 1.390 . S
C951 H955 0.950 . S
H952 C948 0.950 . S
C953 C951 1.390 . S
C953 C954 1.387 . S
C953 H956 0.950 . S
C954 C953 1.387 . S
C954 C957 1.387 . S
H955 C951 0.950 . S
H956 C953 0.950 . S
C957 C948 1.390 . S
C957 H950 0.950 . S
C957 C954 1.387 . S
C958 C959 1.387 . S
C958 H962 0.950 . S
C958 C967 1.390 . S
C959 C958 1.387 . S
C959 C961 1.387 . S
H960 C967 0.950 . S
C961 C959 1.387 . S
C961 C963 1.390 1_556 S
C961 H965 0.950 . S
H962 C958 0.950 . S
C963 C961 1.390 1_554 S
C963 C964 1.387 . S
C963 H966 0.950 . S
C964 C963 1.387 . S
C964 C967 1.387 1_554 S
H965 C961 0.950 . S
H966 C963 0.950 . S
C967 C958 1.390 . S
C967 H960 0.950 . S
C967 C964 1.387 1_556 S
C968 C969 1.387 . S
C968 H972 0.950 . S
C968 C977 1.390 . S
C969 C968 1.387 . S
C969 C971 1.387 . S
H970 C977 0.950 . S
C971 C969 1.387 . S
C971 C973 1.390 . S
C971 H975 0.950 . S
H972 C968 0.950 . S
C973 C971 1.390 . S
C973 C974 1.387 . S
C973 H976 0.950 . S
C974 C973 1.387 . S
C974 C977 1.387 . S
H975 C971 0.950 . S
H976 C973 0.950 . S
C977 C968 1.390 . S
C977 H970 0.950 . S
C977 C974 1.387 . S
C978 C979 1.387 . S
C978 H982 0.950 . S
C978 C987 1.390 . S
C979 C978 1.387 . S
C979 C981 1.387 . S
H980 C987 0.950 . S
C981 C979 1.387 . S
C981 C983 1.390 . S
C981 H985 0.950 . S
H982 C978 0.950 . S
C983 C981 1.390 . S
C983 C984 1.387 . S
C983 H986 0.950 . S
C984 C983 1.387 . S
C984 C987 1.387 . S
H985 C981 0.950 . S
H986 C983 0.950 . S
C987 C978 1.390 . S
C987 H980 0.950 . S
C987 C984 1.387 . S
C988 C989 1.387 . S
C988 H992 0.950 . S
C988 C997 1.390 . S
C989 C988 1.387 . S
C989 C991 1.387 . S
H990 C997 0.950 . S
C991 C989 1.387 . S
C991 C993 1.390 . S
C991 H995 0.950 . S
H992 C988 0.950 . S
C993 C991 1.390 . S
C993 C994 1.387 . S
C993 H996 0.950 . S
C994 C993 1.387 . S
C994 C997 1.387 . S
H995 C991 0.950 . S
H996 C993 0.950 . S
C997 C988 1.390 . S
C997 H990 0.950 . S
C997 C994 1.387 . S
C998 C999 1.387 . S
C998 H1002 0.950 . S
C998 C1007 1.390 . S
C999 C998 1.387 . S
C999 C1001 1.387 . S
H1000 C1007 0.950 1_556 S
C1001 C999 1.387 . S
C1001 C1003 1.390 . S
C1001 H1005 0.950 . S
H1002 C998 0.950 . S
C1003 C1001 1.390 . S
C1003 C1004 1.387 1_554 S
C1003 H1006 0.950 . S
C1004 C1003 1.387 1_556 S
C1004 C1007 1.387 1_556 S
H1005 C1001 0.950 . S
H1006 C1003 0.950 . S
C1007 C998 1.390 . S
C1007 H1000 0.950 1_554 S
C1007 C1004 1.387 1_554 S
C1008 C1009 1.387 . S
C1008 H1012 0.950 . S
C1008 C1017 1.390 . S
C1009 C1008 1.387 . S
C1009 C1011 1.387 . S
H1010 C1017 0.950 . S
C1011 C1009 1.387 . S
C1011 C1013 1.390 . S
C1011 H1015 0.950 . S
H1012 C1008 0.950 . S
C1013 C1011 1.390 . S
C1013 C1014 1.387 . S
C1013 H1016 0.950 . S
C1014 C1013 1.387 . S
C1014 C1017 1.387 . S
H1015 C1011 0.950 . S
H1016 C1013 0.950 . S
C1017 C1008 1.390 . S
C1017 H1010 0.950 . S
C1017 C1014 1.387 . S
C1018 C1019 1.387 . S
C1018 H1022 0.950 . S
C1018 C1027 1.390 . S
C1019 C1018 1.387 . S
C1019 C1021 1.387 . S
H1020 C1027 0.950 . S
C1021 C1019 1.387 . S
C1021 C1023 1.390 1_565 S
C1021 H1025 0.950 . S
H1022 C1018 0.950 . S
C1023 C1021 1.390 1_545 S
C1023 C1024 1.387 . S
C1023 H1026 0.950 . S
C1024 C1023 1.387 . S
C1024 C1027 1.387 1_545 S
H1025 C1021 0.950 . S
H1026 C1023 0.950 . S
C1027 C1018 1.390 . S
C1027 H1020 0.950 . S
C1027 C1024 1.387 1_565 S
C1028 C1029 1.387 . S
C1028 H1032 0.950 . S
C1028 C1037 1.390 . S
C1029 C1028 1.387 . S
C1029 C1031 1.387 . S
H1030 C1037 0.950 . S
C1031 C1029 1.387 . S
C1031 C1033 1.390 . S
C1031 H1035 0.950 . S
H1032 C1028 0.950 . S
C1033 C1031 1.390 . S
C1033 C1034 1.387 . S
C1033 H1036 0.950 . S
C1034 C1033 1.387 . S
C1034 C1037 1.387 . S
H1035 C1031 0.950 . S
H1036 C1033 0.950 . S
C1037 C1028 1.390 . S
C1037 H1030 0.950 . S
C1037 C1034 1.387 . S
C1038 C1039 1.387 . S
C1038 H1042 0.950 . S
C1038 C1047 1.390 . S
C1039 C1038 1.387 . S
C1039 C1041 1.387 . S
H1040 C1047 0.950 . S
C1041 C1039 1.387 . S
C1041 C1043 1.390 1_545 S
C1041 H1045 0.950 . S
H1042 C1038 0.950 . S
C1043 C1041 1.390 1_565 S
C1043 C1044 1.387 . S
C1043 H1046 0.950 . S
C1044 C1043 1.387 . S
C1044 C1047 1.387 1_565 S
H1045 C1041 0.950 . S
H1046 C1043 0.950 . S
C1047 C1038 1.390 . S
C1047 H1040 0.950 . S
C1047 C1044 1.387 1_545 S
C1048 C1049 1.387 . S
C1048 H1052 0.950 . S
C1048 C1057 1.390 . S
C1049 C1048 1.387 . S
C1049 C1051 1.387 . S
H1050 C1057 0.950 . S
C1051 C1049 1.387 . S
C1051 C1053 1.390 . S
C1051 H1055 0.950 . S
H1052 C1048 0.950 . S
C1053 C1051 1.390 . S
C1053 C1054 1.387 . S
C1053 H1056 0.950 . S
C1054 C1053 1.387 . S
C1054 C1057 1.387 . S
H1055 C1051 0.950 . S
H1056 C1053 0.950 . S
C1057 C1048 1.390 . S
C1057 H1050 0.950 . S
C1057 C1054 1.387 . S
C1058 C1059 1.387 . S
C1058 H1062 0.950 . S
C1058 C1067 1.390 . S
C1059 C1058 1.387 . S
C1059 C1061 1.387 . S
H1060 C1067 0.950 . S
C1061 C1059 1.387 . S
C1061 C1063 1.390 1_565 S
C1061 H1065 0.950 . S
H1062 C1058 0.950 . S
C1063 C1061 1.390 1_545 S
C1063 C1064 1.387 . S
C1063 H1066 0.950 . S
C1064 C1063 1.387 . S
C1064 C1067 1.387 1_545 S
H1065 C1061 0.950 . S
H1066 C1063 0.950 . S
C1067 C1058 1.390 . S
C1067 H1060 0.950 . S
C1067 C1064 1.387 1_565 S
C1068 C1069 1.387 . S
C1068 H1072 0.950 . S
C1068 C1077 1.390 . S
C1069 C1068 1.387 . S
C1069 C1071 1.387 . S
H1070 C1077 0.950 . S
C1071 C1069 1.387 . S
C1071 C1073 1.390 . S
C1071 H1075 0.950 . S
H1072 C1068 0.950 . S
C1073 C1071 1.390 . S
C1073 C1074 1.387 . S
C1073 H1076 0.950 . S
C1074 C1073 1.387 . S
C1074 C1077 1.387 . S
H1075 C1071 0.950 . S
H1076 C1073 0.950 . S
C1077 C1068 1.390 . S
C1077 H1070 0.950 . S
C1077 C1074 1.387 . S
C1078 C1079 1.387 . S
C1078 H1082 0.950 . S
C1078 C1087 1.390 . S
C1079 C1078 1.387 . S
C1079 C1081 1.387 . S
H1080 C1087 0.950 . S
C1081 C1079 1.387 . S
C1081 C1083 1.390 . S
C1081 H1085 0.950 . S
H1082 C1078 0.950 . S
C1083 C1081 1.390 . S
C1083 C1084 1.387 1_545 S
C1083 H1086 0.950 1_545 S
C1084 C1083 1.387 1_565 S
C1084 C1087 1.387 1_565 S
H1085 C1081 0.950 . S
H1086 C1083 0.950 1_565 S
C1087 C1078 1.390 . S
C1087 H1080 0.950 . S
C1087 C1084 1.387 1_545 S
C1088 C1089 1.387 . S
C1088 H1092 0.950 . S
C1088 C1097 1.390 . S
C1089 C1088 1.387 . S
C1089 C1091 1.387 . S
H1090 C1097 0.950 . S
C1091 C1089 1.387 . S
C1091 C1093 1.390 . S
C1091 H1095 0.950 . S
H1092 C1088 0.950 . S
C1093 C1091 1.390 . S
C1093 C1094 1.387 . S
C1093 H1096 0.950 . S
C1094 C1093 1.387 . S
C1094 C1097 1.387 . S
H1095 C1091 0.950 . S
H1096 C1093 0.950 . S
C1097 C1088 1.390 . S
C1097 H1090 0.950 . S
C1097 C1094 1.387 . S
C1098 C1099 1.387 . S
C1098 H1102 0.950 . S
C1098 C1107 1.390 . S
C1099 C1098 1.387 . S
C1099 C1101 1.387 . S
H1100 C1107 0.950 . S
C1101 C1099 1.387 . S
C1101 C1103 1.390 . S
C1101 H1105 0.950 . S
H1102 C1098 0.950 . S
C1103 C1101 1.390 . S
C1103 C1104 1.387 . S
C1103 H1106 0.950 . S
C1104 C1103 1.387 . S
C1104 C1107 1.387 . S
H1105 C1101 0.950 . S
H1106 C1103 0.950 . S
C1107 C1098 1.390 . S
C1107 H1100 0.950 . S
C1107 C1104 1.387 . S
C1108 C1109 1.387 . S
C1108 H1112 0.950 . S
C1108 C1117 1.397 . S
C1109 C1108 1.387 . S
C1109 C1111 1.387 . S
H1110 C1117 0.946 1_455 S
C1111 C1109 1.387 . S
C1111 C1113 1.390 . S
C1111 H1115 0.950 . S
H1112 C1108 0.950 . S
C1113 C1111 1.390 . S
C1113 C1114 1.387 1_655 S
C1113 H1116 0.950 1_655 S
C1114 C1113 1.387 1_455 S
C1114 C1117 1.384 1_455 S
H1115 C1111 0.950 . S
H1116 C1113 0.950 1_455 S
C1117 C1108 1.397 . S
C1117 H1110 0.946 1_655 S
C1117 C1114 1.384 1_655 S
C1118 C1119 1.387 . S
C1118 H1122 0.950 . S
C1118 C1127 1.390 . S
C1119 C1118 1.387 . S
C1119 C1121 1.387 . S
H1120 C1127 0.950 . S
C1121 C1119 1.387 . S
C1121 C1123 1.390 . S
C1121 H1125 0.950 . S
H1122 C1118 0.950 . S
C1123 C1121 1.390 . S
C1123 C1124 1.387 . S
C1123 H1126 0.950 . S
C1124 C1123 1.387 . S
C1124 C1127 1.387 . S
H1125 C1121 0.950 . S
H1126 C1123 0.950 . S
C1127 C1118 1.390 . S
C1127 H1120 0.950 . S
C1127 C1124 1.387 . S
C1128 C1129 1.387 . S
C1128 H1132 0.950 . S
C1128 C1137 1.390 . S
C1129 C1128 1.387 . S
C1129 C1131 1.387 . S
H1130 C1137 0.950 1_655 S
C1131 C1129 1.387 . S
C1131 C1133 1.390 . S
C1131 H1135 0.950 . S
H1132 C1128 0.950 . S
C1133 C1131 1.390 . S
C1133 C1134 1.387 1_455 S
C1133 H1136 0.950 . S
C1134 C1133 1.387 1_655 S
C1134 C1137 1.387 1_655 S
H1135 C1131 0.950 . S
H1136 C1133 0.950 . S
C1137 C1128 1.390 . S
C1137 H1130 0.950 1_455 S
C1137 C1134 1.387 1_455 S
C1138 C1139 1.387 . S
C1138 H1142 0.950 . S
C1138 C1147 1.390 . S
C1139 C1138 1.387 . S
C1139 C1141 1.387 . S
H1140 C1147 0.950 . S
C1141 C1139 1.387 . S
C1141 C1143 1.390 . S
C1141 H1145 0.950 . S
H1142 C1138 0.950 . S
C1143 C1141 1.390 . S
C1143 C1144 1.387 . S
C1143 H1146 0.950 . S
C1144 C1143 1.387 . S
C1144 C1147 1.387 . S
H1145 C1141 0.950 . S
H1146 C1143 0.950 . S
C1147 C1138 1.390 . S
C1147 H1140 0.950 . S
C1147 C1144 1.387 . S
C1148 C1149 1.387 . S
C1148 H1152 0.950 . S
C1148 C1157 1.384 1_655 S
C1149 C1148 1.387 . S
C1149 C1151 1.387 . S
H1150 C1157 0.954 . S
C1151 C1149 1.387 . S
C1151 C1153 1.390 . S
C1151 H1155 0.950 . S
H1152 C1148 0.950 . S
C1153 C1151 1.390 . S
C1153 C1154 1.387 1_655 S
C1153 H1156 0.950 . S
C1154 C1153 1.387 1_455 S
C1154 C1157 1.390 . S
H1155 C1151 0.950 . S
H1156 C1153 0.950 . S
C1157 C1148 1.384 1_455 S
C1157 H1150 0.954 . S
C1157 C1154 1.390 . S
C1158 C1159 1.387 . S
C1158 H1162 0.950 . S
C1158 C1167 1.390 . S
C1159 C1158 1.387 . S
C1159 C1161 1.387 . S
H1160 C1167 0.950 . S
C1161 C1159 1.387 . S
C1161 C1163 1.390 . S
C1161 H1165 0.950 . S
H1162 C1158 0.950 . S
C1163 C1161 1.390 . S
C1163 C1164 1.387 . S
C1163 H1166 0.950 . S
C1164 C1163 1.387 . S
C1164 C1167 1.387 . S
H1165 C1161 0.950 . S
H1166 C1163 0.950 . S
C1167 C1158 1.390 . S
C1167 H1160 0.950 . S
C1167 C1164 1.387 . S
C1168 C1169 1.387 . S
C1168 H1172 0.950 . S
C1168 C1177 1.390 . S
C1169 C1168 1.387 . S
C1169 C1171 1.387 . S
H1170 C1177 0.950 . S
C1171 C1169 1.387 . S
C1171 C1173 1.390 . S
C1171 H1175 0.950 . S
H1172 C1168 0.950 . S
C1173 C1171 1.390 . S
C1173 C1174 1.387 . S
C1173 H1176 0.950 . S
C1174 C1173 1.387 . S
C1174 C1177 1.387 . S
H1175 C1171 0.950 . S
H1176 C1173 0.950 . S
C1177 C1168 1.390 . S
C1177 H1170 0.950 . S
C1177 C1174 1.387 . S
C1178 C1179 1.387 . S
C1178 H1182 0.950 . S
C1178 C1187 1.390 1_554 S
C1179 C1178 1.387 . S
C1179 C1181 1.387 . S
H1180 C1187 0.950 . S
C1181 C1179 1.387 . S
C1181 C1183 1.390 . S
C1181 H1185 0.950 . S
H1182 C1178 0.950 . S
C1183 C1181 1.390 . S
C1183 C1184 1.387 1_554 S
C1183 H1186 0.950 . S
C1184 C1183 1.387 1_556 S
C1184 C1187 1.387 . S
H1185 C1181 0.950 . S
H1186 C1183 0.950 . S
C1187 C1178 1.390 1_556 S
C1187 H1180 0.950 . S
C1187 C1184 1.387 . S
C1188 C1189 1.387 . S
C1188 H1192 0.950 . S
C1188 C1197 1.390 . S
C1189 C1188 1.387 . S
C1189 C1191 1.387 . S
H1190 C1197 0.950 . S
C1191 C1189 1.387 . S
C1191 C1193 1.390 . S
C1191 H1195 0.950 . S
H1192 C1188 0.950 . S
C1193 C1191 1.390 . S
C1193 C1194 1.387 . S
C1193 H1196 0.950 . S
C1194 C1193 1.387 . S
C1194 C1197 1.387 . S
H1195 C1191 0.950 . S
H1196 C1193 0.950 . S
C1197 C1188 1.390 . S
C1197 H1190 0.950 . S
C1197 C1194 1.387 . S
C1198 C1199 1.387 . S
C1198 H1202 0.950 . S
C1198 C1207 1.390 . S
C1199 C1198 1.387 . S
C1199 C1201 1.387 . S
H1200 C1207 0.950 . S
C1201 C1199 1.387 . S
C1201 C1203 1.390 . S
C1201 H1205 0.950 . S
H1202 C1198 0.950 . S
C1203 C1201 1.390 . S
C1203 C1204 1.387 . S
C1203 H1206 0.950 . S
C1204 C1203 1.387 . S
C1204 C1207 1.387 . S
H1205 C1201 0.950 . S
H1206 C1203 0.950 . S
C1207 C1198 1.390 . S
C1207 H1200 0.950 . S
C1207 C1204 1.387 . S
C1208 C1209 1.387 . S
C1208 H1212 0.950 . S
C1208 C1217 1.390 . S
C1209 C1208 1.387 . S
C1209 C1211 1.387 . S
H1210 C1217 0.950 . S
C1211 C1209 1.387 . S
C1211 C1213 1.390 . S
C1211 H1215 0.950 . S
H1212 C1208 0.950 . S
C1213 C1211 1.390 . S
C1213 C1214 1.387 . S
C1213 H1216 0.950 . S
C1214 C1213 1.387 . S
C1214 C1217 1.387 . S
H1215 C1211 0.950 . S
H1216 C1213 0.950 . S
C1217 C1208 1.390 . S
C1217 H1210 0.950 . S
C1217 C1214 1.387 . S
C1218 C1219 1.387 . S
C1218 H1222 0.950 . S
C1218 C1227 1.390 1_556 S
C1219 C1218 1.387 . S
C1219 C1221 1.387 . S
H1220 C1227 0.950 . S
C1221 C1219 1.387 . S
C1221 C1223 1.390 . S
C1221 H1225 0.950 . S
H1222 C1218 0.950 . S
C1223 C1221 1.390 . S
C1223 C1224 1.387 1_556 S
C1223 H1226 0.950 . S
C1224 C1223 1.387 1_554 S
C1224 C1227 1.387 . S
H1225 C1221 0.950 . S
H1226 C1223 0.950 . S
C1227 C1218 1.390 1_554 S
C1227 H1220 0.950 . S
C1227 C1224 1.387 . S
C1228 C1229 1.387 . S
C1228 H1232 0.950 . S
C1228 C1237 1.390 . S
C1229 C1228 1.387 . S
C1229 C1231 1.387 . S
H1230 C1237 0.950 . S
C1231 C1229 1.387 . S
C1231 C1233 1.390 . S
C1231 H1235 0.950 . S
H1232 C1228 0.950 . S
C1233 C1231 1.390 . S
C1233 C1234 1.387 . S
C1233 H1236 0.950 . S
C1234 C1233 1.387 . S
C1234 C1237 1.387 . S
H1235 C1231 0.950 . S
H1236 C1233 0.950 . S
C1237 C1228 1.390 . S
C1237 H1230 0.950 . S
C1237 C1234 1.387 . S
C1238 C1239 1.387 . S
C1238 H1242 0.950 . S
C1238 C1247 1.390 . S
C1239 C1238 1.387 . S
C1239 C1241 1.387 . S
H1240 C1247 0.950 . S
C1241 C1239 1.387 . S
C1241 C1243 1.390 . S
C1241 H1245 0.950 . S
H1242 C1238 0.950 . S
C1243 C1241 1.390 . S
C1243 C1244 1.387 . S
C1243 H1246 0.950 . S
C1244 C1243 1.387 . S
C1244 C1247 1.387 . S
H1245 C1241 0.950 . S
H1246 C1243 0.950 . S
C1247 C1238 1.390 . S
C1247 H1240 0.950 . S
C1247 C1244 1.387 . S
C1248 C1249 1.387 . S
C1248 H1252 0.950 . S
C1248 C1257 1.390 . S
C1249 C1248 1.387 . S
C1249 C1251 1.387 . S
H1250 C1257 0.950 . S
C1251 C1249 1.387 . S
C1251 C1253 1.390 . S
C1251 H1255 0.950 . S
H1252 C1248 0.950 . S
C1253 C1251 1.390 . S
C1253 C1254 1.387 . S
C1253 H1256 0.950 . S
C1254 C1253 1.387 . S
C1254 C1257 1.387 . S
H1255 C1251 0.950 . S
H1256 C1253 0.950 . S
C1257 C1248 1.390 . S
C1257 H1250 0.950 . S
C1257 C1254 1.387 . S
C1258 C1259 1.387 . S
C1258 H1262 0.950 1_556 S
C1258 C1267 1.390 . S
C1259 C1258 1.387 . S
C1259 C1261 1.387 . S
H1260 C1267 0.950 . S
C1261 C1259 1.387 . S
C1261 C1263 1.390 . S
C1261 H1265 0.950 . S
H1262 C1258 0.950 1_554 S
C1263 C1261 1.390 . S
C1263 C1264 1.387 . S
C1263 H1266 0.950 . S
C1264 C1263 1.387 . S
C1264 C1267 1.387 . S
H1265 C1261 0.950 . S
H1266 C1263 0.950 . S
C1267 C1258 1.390 . S
C1267 H1260 0.950 . S
C1267 C1264 1.387 . S
C1268 C1269 1.387 . S
C1268 H1272 0.950 . S
C1268 C1277 1.390 . S
C1269 C1268 1.387 . S
C1269 C1271 1.387 . S
H1270 C1277 0.950 . S
C1271 C1269 1.387 . S
C1271 C1273 1.390 . S
C1271 H1275 0.950 . S
H1272 C1268 0.950 . S
C1273 C1271 1.390 . S
C1273 C1274 1.387 . S
C1273 H1276 0.950 . S
C1274 C1273 1.387 . S
C1274 C1277 1.387 . S
H1275 C1271 0.950 . S
H1276 C1273 0.950 . S
C1277 C1268 1.390 . S
C1277 H1270 0.950 . S
C1277 C1274 1.387 . S
C1278 C1279 1.387 . S
C1278 H1282 0.950 . S
C1278 C1287 1.390 . S
C1279 C1278 1.387 . S
C1279 C1281 1.387 . S
H1280 C1287 0.950 . S
C1281 C1279 1.387 . S
C1281 C1283 1.390 . S
C1281 H1285 0.950 . S
H1282 C1278 0.950 . S
C1283 C1281 1.390 . S
C1283 C1284 1.387 . S
C1283 H1286 0.950 . S
C1284 C1283 1.387 . S
C1284 C1287 1.387 . S
H1285 C1281 0.950 . S
H1286 C1283 0.950 . S
C1287 C1278 1.390 . S
C1287 H1280 0.950 . S
C1287 C1284 1.387 . S
C1288 C1289 1.387 . S
C1288 H1292 0.950 . S
C1288 C1297 1.390 . S
C1289 C1288 1.387 . S
C1289 C1291 1.387 . S
H1290 C1297 0.950 . S
C1291 C1289 1.387 . S
C1291 C1293 1.390 . S
C1291 H1295 0.950 . S
H1292 C1288 0.950 . S
C1293 C1291 1.390 . S
C1293 C1294 1.387 . S
C1293 H1296 0.950 . S
C1294 C1293 1.387 . S
C1294 C1297 1.387 . S
H1295 C1291 0.950 . S
H1296 C1293 0.950 . S
C1297 C1288 1.390 . S
C1297 H1290 0.950 . S
C1297 C1294 1.387 . S
C1298 C1299 1.387 . S
C1298 H1302 0.950 . S
C1298 C1307 1.390 . S
C1299 C1298 1.387 . S
C1299 C1301 1.387 . S
H1300 C1307 0.950 . S
C1301 C1299 1.387 . S
C1301 C1303 1.390 . S
C1301 H1305 0.950 . S
H1302 C1298 0.950 . S
C1303 C1301 1.390 . S
C1303 C1304 1.387 . S
C1303 H1306 0.950 . S
C1304 C1303 1.387 . S
C1304 C1307 1.387 . S
H1305 C1301 0.950 . S
H1306 C1303 0.950 . S
C1307 C1298 1.390 . S
C1307 H1300 0.950 . S
C1307 C1304 1.387 . S
C1308 C1309 1.387 . S
C1308 H1312 0.950 . S
C1308 C1317 1.390 . S
C1309 C1308 1.387 . S
C1309 C1311 1.387 . S
H1310 C1317 0.950 . S
C1311 C1309 1.387 . S
C1311 C1313 1.390 . S
C1311 H1315 0.950 . S
H1312 C1308 0.950 . S
C1313 C1311 1.390 . S
C1313 C1314 1.387 . S
C1313 H1316 0.950 . S
C1314 C1313 1.387 . S
C1314 C1317 1.387 . S
H1315 C1311 0.950 . S
H1316 C1313 0.950 . S
C1317 C1308 1.390 . S
C1317 H1310 0.950 . S
C1317 C1314 1.387 . S
C1318 C1319 1.387 . S
C1318 H1322 0.950 . S
C1318 C1327 1.390 . S
C1319 C1318 1.387 . S
C1319 C1321 1.387 . S
H1320 C1327 0.950 . S
C1321 C1319 1.387 . S
C1321 C1323 1.390 . S
C1321 H1325 0.950 . S
H1322 C1318 0.950 . S
C1323 C1321 1.390 . S
C1323 C1324 1.387 . S
C1323 H1326 0.950 . S
C1324 C1323 1.387 . S
C1324 C1327 1.387 . S
H1325 C1321 0.950 . S
H1326 C1323 0.950 . S
C1327 C1318 1.390 . S
C1327 H1320 0.950 . S
C1327 C1324 1.387 . S
C1328 C1329 1.387 . S
C1328 H1332 0.950 . S
C1328 C1337 1.390 . S
C1329 C1328 1.387 . S
C1329 C1331 1.387 . S
H1330 C1337 0.950 . S
C1331 C1329 1.387 . S
C1331 C1333 1.390 . S
C1331 H1335 0.950 . S
H1332 C1328 0.950 . S
C1333 C1331 1.390 . S
C1333 C1334 1.387 . S
C1333 H1336 0.950 . S
C1334 C1333 1.387 . S
C1334 C1337 1.387 . S
H1335 C1331 0.950 . S
H1336 C1333 0.950 . S
C1337 C1328 1.390 . S
C1337 H1330 0.950 . S
C1337 C1334 1.387 . S
C1338 C1339 1.387 . S
C1338 H1342 0.950 . S
C1338 C1347 1.390 . S
C1339 C1338 1.387 . S
C1339 C1341 1.387 . S
H1340 C1347 0.950 . S
C1341 C1339 1.387 . S
C1341 C1343 1.390 . S
C1341 H1345 0.950 . S
H1342 C1338 0.950 . S
C1343 C1341 1.390 . S
C1343 C1344 1.387 . S
C1343 H1346 0.950 . S
C1344 C1343 1.387 . S
C1344 C1347 1.387 . S
H1345 C1341 0.950 . S
H1346 C1343 0.950 . S
C1347 C1338 1.390 . S
C1347 H1340 0.950 . S
C1347 C1344 1.387 . S
C1348 C1349 1.387 . S
C1348 H1352 0.950 . S
C1348 C1357 1.390 . S
C1349 C1348 1.387 . S
C1349 C1351 1.387 . S
H1350 C1357 0.950 . S
C1351 C1349 1.387 . S
C1351 C1353 1.390 . S
C1351 H1355 0.949 1_565 S
H1352 C1348 0.950 . S
C1353 C1351 1.390 . S
C1353 C1354 1.387 . S
C1353 H1356 0.950 . S
C1354 C1353 1.387 . S
C1354 C1357 1.387 . S
H1355 C1351 0.949 1_545 S
H1356 C1353 0.950 . S
C1357 C1348 1.390 . S
C1357 H1350 0.950 . S
C1357 C1354 1.387 . S
C1358 C1359 1.387 . S
C1358 H1362 0.950 . S
C1358 C1367 1.390 . S
C1359 C1358 1.387 . S
C1359 C1361 1.387 . S
H1360 C1367 0.950 . S
C1361 C1359 1.387 . S
C1361 C1363 1.390 . S
C1361 H1365 0.950 . S
H1362 C1358 0.950 . S
C1363 C1361 1.390 . S
C1363 C1364 1.387 . S
C1363 H1366 0.950 . S
C1364 C1363 1.387 . S
C1364 C1367 1.387 . S
H1365 C1361 0.950 . S
H1366 C1363 0.950 . S
C1367 C1358 1.390 . S
C1367 H1360 0.950 . S
C1367 C1364 1.387 . S
C1368 C1369 1.387 . S
C1368 H1372 0.950 . S
C1368 C1377 1.390 . S
C1369 C1368 1.387 . S
C1369 C1371 1.387 . S
H1370 C1377 0.950 . S
C1371 C1369 1.387 . S
C1371 C1373 1.390 . S
C1371 H1375 0.950 . S
H1372 C1368 0.950 . S
C1373 C1371 1.390 . S
C1373 C1374 1.387 . S
C1373 H1376 0.950 . S
C1374 C1373 1.387 . S
C1374 C1377 1.387 . S
H1375 C1371 0.950 . S
H1376 C1373 0.950 . S
C1377 C1368 1.390 . S
C1377 H1370 0.950 . S
C1377 C1374 1.387 . S
C1378 C1379 1.387 . S
C1378 H1382 0.950 . S
C1378 C1387 1.390 . S
C1379 C1378 1.387 . S
C1379 C1381 1.387 . S
H1380 C1387 0.950 . S
C1381 C1379 1.387 . S
C1381 C1383 1.390 . S
C1381 H1385 0.950 . S
H1382 C1378 0.950 . S
C1383 C1381 1.390 . S
C1383 C1384 1.387 . S
C1383 H1386 0.950 . S
C1384 C1383 1.387 . S
C1384 C1387 1.387 . S
H1385 C1381 0.950 . S
H1386 C1383 0.950 . S
C1387 C1378 1.390 . S
C1387 H1380 0.950 . S
C1387 C1384 1.387 . S
C1388 C1389 1.387 . S
C1388 H1392 0.950 . S
C1388 C1397 1.390 . S
C1389 C1388 1.387 . S
C1389 C1391 1.387 . S
H1390 C1397 0.950 . S
C1391 C1389 1.387 . S
C1391 C1393 1.390 . S
C1391 H1395 0.950 . S
H1392 C1388 0.950 . S
C1393 C1391 1.390 . S
C1393 C1394 1.387 . S
C1393 H1396 0.950 . S
C1394 C1393 1.387 . S
C1394 C1397 1.387 . S
H1395 C1391 0.950 . S
H1396 C1393 0.950 . S
C1397 C1388 1.390 . S
C1397 H1390 0.950 . S
C1397 C1394 1.387 . S
C1398 C1399 1.387 . S
C1398 H1402 0.950 . S
C1398 C1407 1.390 . S
C1399 C1398 1.387 . S
C1399 C1401 1.387 . S
H1400 C1407 0.950 1_455 S
C1401 C1399 1.387 . S
C1401 C1403 1.390 . S
C1401 H1405 0.950 . S
H1402 C1398 0.950 . S
C1403 C1401 1.390 . S
C1403 C1404 1.387 1_655 S
C1403 H1406 0.950 1_655 S
C1404 C1403 1.387 1_455 S
C1404 C1407 1.387 1_455 S
H1405 C1401 0.950 . S
H1406 C1403 0.950 1_455 S
C1407 C1398 1.390 . S
C1407 H1400 0.950 1_655 S
C1407 C1404 1.387 1_655 S
C1408 C1409 1.387 . S
C1408 H1412 0.950 . S
C1408 C1417 1.390 . S
C1409 C1408 1.387 . S
C1409 C1411 1.387 . S
H1410 C1417 0.950 . S
C1411 C1409 1.387 . S
C1411 C1413 1.390 . S
C1411 H1415 0.950 . S
H1412 C1408 0.950 . S
C1413 C1411 1.390 . S
C1413 C1414 1.387 . S
C1413 H1416 0.950 . S
C1414 C1413 1.387 . S
C1414 C1417 1.387 . S
H1415 C1411 0.950 . S
H1416 C1413 0.950 . S
C1417 C1408 1.390 . S
C1417 H1410 0.950 . S
C1417 C1414 1.387 . S
C1418 C1419 1.387 . S
C1418 H1422 0.950 . S
C1418 C1427 1.390 1_556 S
C1419 C1418 1.387 . S
C1419 C1421 1.387 . S
H1420 C1427 0.950 . S
C1421 C1419 1.387 . S
C1421 C1423 1.390 . S
C1421 H1425 0.950 . S
H1422 C1418 0.950 . S
C1423 C1421 1.390 . S
C1423 C1424 1.387 1_556 S
C1423 H1426 0.950 . S
C1424 C1423 1.387 1_554 S
C1424 C1427 1.387 . S
H1425 C1421 0.950 . S
H1426 C1423 0.950 . S
C1427 C1418 1.390 1_554 S
C1427 H1420 0.950 . S
C1427 C1424 1.387 . S
C1428 C1429 1.387 . S
C1428 H1432 0.950 . S
C1428 C1437 1.390 . S
C1429 C1428 1.387 . S
C1429 C1431 1.387 . S
H1430 C1437 0.950 . S
C1431 C1429 1.387 . S
C1431 C1433 1.390 . S
C1431 H1435 0.950 . S
H1432 C1428 0.950 . S
C1433 C1431 1.390 . S
C1433 C1434 1.387 . S
C1433 H1436 0.950 . S
C1434 C1433 1.387 . S
C1434 C1437 1.387 . S
H1435 C1431 0.950 . S
H1436 C1433 0.950 . S
C1437 C1428 1.390 . S
C1437 H1430 0.950 . S
C1437 C1434 1.387 . S
C1438 C1439 1.387 . S
C1438 H1442 0.950 . S
C1438 C1447 1.390 . S
C1439 C1438 1.387 . S
C1439 C1441 1.387 . S
H1440 C1447 0.950 . S
C1441 C1439 1.387 . S
C1441 C1443 1.390 . S
C1441 H1445 0.950 . S
H1442 C1438 0.950 . S
C1443 C1441 1.390 . S
C1443 C1444 1.387 . S
C1443 H1446 0.950 . S
C1444 C1443 1.387 . S
C1444 C1447 1.387 . S
H1445 C1441 0.950 . S
H1446 C1443 0.950 . S
C1447 C1438 1.390 . S
C1447 H1440 0.950 . S
C1447 C1444 1.387 . S
C1448 C1449 1.387 . S
C1448 H1452 0.950 . S
C1448 C1457 1.390 . S
C1449 C1448 1.387 . S
C1449 C1451 1.387 . S
H1450 C1457 0.950 . S
C1451 C1449 1.387 . S
C1451 C1453 1.390 . S
C1451 H1455 0.950 . S
H1452 C1448 0.950 . S
C1453 C1451 1.390 . S
C1453 C1454 1.387 . S
C1453 H1456 0.950 . S
C1454 C1453 1.387 . S
C1454 C1457 1.387 . S
H1455 C1451 0.950 . S
H1456 C1453 0.950 . S
C1457 C1448 1.390 . S
C1457 H1450 0.950 . S
C1457 C1454 1.387 . S
C1458 C1459 1.387 . S
C1458 H1462 0.950 . S
C1458 C1467 1.390 1_554 S
C1459 C1458 1.387 . S
C1459 C1461 1.387 . S
H1460 C1467 0.950 . S
C1461 C1459 1.387 . S
C1461 C1463 1.390 . S
C1461 H1465 0.950 . S
H1462 C1458 0.950 . S
C1463 C1461 1.390 . S
C1463 C1464 1.387 1_554 S
C1463 H1466 0.950 . S
C1464 C1463 1.387 1_556 S
C1464 C1467 1.387 . S
H1465 C1461 0.950 . S
H1466 C1463 0.950 . S
C1467 C1458 1.390 1_556 S
C1467 H1460 0.950 . S
C1467 C1464 1.387 . S
C1468 C1469 1.387 . S
C1468 H1472 0.950 . S
C1468 C1477 1.390 . S
C1469 C1468 1.387 . S
C1469 C1471 1.387 . S
H1470 C1477 0.950 . S
C1471 C1469 1.387 . S
C1471 C1473 1.390 . S
C1471 H1475 0.950 . S
H1472 C1468 0.950 . S
C1473 C1471 1.390 . S
C1473 C1474 1.387 . S
C1473 H1476 0.950 . S
C1474 C1473 1.387 . S
C1474 C1477 1.387 . S
H1475 C1471 0.950 . S
H1476 C1473 0.950 . S
C1477 C1468 1.390 . S
C1477 H1470 0.950 . S
C1477 C1474 1.387 . S
C1478 C1479 1.387 . S
C1478 H1482 0.950 . S
C1478 C1487 1.390 . S
C1479 C1478 1.387 . S
C1479 C1481 1.387 . S
H1480 C1487 0.950 . S
C1481 C1479 1.387 . S
C1481 C1483 1.390 . S
C1481 H1485 0.950 . S
H1482 C1478 0.950 . S
C1483 C1481 1.390 . S
C1483 C1484 1.387 . S
C1483 H1486 0.950 . S
C1484 C1483 1.387 . S
C1484 C1487 1.387 . S
H1485 C1481 0.950 . S
H1486 C1483 0.950 . S
C1487 C1478 1.390 . S
C1487 H1480 0.950 . S
C1487 C1484 1.387 . S
C1488 C1489 1.387 . S
C1488 H1492 0.950 . S
C1488 C1497 1.390 . S
C1489 C1488 1.387 . S
C1489 C1491 1.387 . S
H1490 C1497 0.950 . S
C1491 C1489 1.387 . S
C1491 C1493 1.390 . S
C1491 H1495 0.950 . S
H1492 C1488 0.950 . S
C1493 C1491 1.390 . S
C1493 C1494 1.387 . S
C1493 H1496 0.950 . S
C1494 C1493 1.387 . S
C1494 C1497 1.387 . S
H1495 C1491 0.950 . S
H1496 C1493 0.950 . S
C1497 C1488 1.390 . S
C1497 H1490 0.950 . S
C1497 C1494 1.387 . S
C1498 C1499 1.387 . S
C1498 H1502 0.950 . S
C1498 C1507 1.390 . S
C1499 C1498 1.387 . S
C1499 C1501 1.387 . S
H1500 C1507 0.950 . S
C1501 C1499 1.387 . S
C1501 C1503 1.390 . S
C1501 H1505 0.950 . S
H1502 C1498 0.950 . S
C1503 C1501 1.390 . S
C1503 C1504 1.387 . S
C1503 H1506 0.950 . S
C1504 C1503 1.387 . S
C1504 C1507 1.387 . S
H1505 C1501 0.950 . S
H1506 C1503 0.950 . S
C1507 C1498 1.390 . S
C1507 H1500 0.950 . S
C1507 C1504 1.387 . S
C1508 C1509 1.387 . S
C1508 H1512 0.950 . S
C1508 C1517 1.390 . S
C1509 C1508 1.387 . S
C1509 C1511 1.387 . S
H1510 C1517 0.950 . S
C1511 C1509 1.387 . S
C1511 C1513 1.390 . S
C1511 H1515 0.950 . S
H1512 C1508 0.950 . S
C1513 C1511 1.390 . S
C1513 C1514 1.387 . S
C1513 H1516 0.950 . S
C1514 C1513 1.387 . S
C1514 C1517 1.387 . S
H1515 C1511 0.950 . S
H1516 C1513 0.950 . S
C1517 C1508 1.390 . S
C1517 H1510 0.950 . S
C1517 C1514 1.387 . S
C1518 C1519 1.387 . S
C1518 H1522 0.950 . S
C1518 C1527 1.390 . S
C1519 C1518 1.387 . S
C1519 C1521 1.387 . S
H1520 C1527 0.950 . S
C1521 C1519 1.387 . S
C1521 C1523 1.390 . S
C1521 H1525 0.950 . S
H1522 C1518 0.950 . S
C1523 C1521 1.390 . S
C1523 C1524 1.387 . S
C1523 H1526 0.950 . S
C1524 C1523 1.387 . S
C1524 C1527 1.387 . S
H1525 C1521 0.950 . S
H1526 C1523 0.950 . S
C1527 C1518 1.390 . S
C1527 H1520 0.950 . S
C1527 C1524 1.387 . S
C1528 C1529 1.387 . S
C1528 H1532 0.950 . S
C1528 C1537 1.390 . S
C1529 C1528 1.387 . S
C1529 C1531 1.387 . S
H1530 C1537 0.950 . S
C1531 C1529 1.387 . S
C1531 C1533 1.390 . S
C1531 H1535 0.950 . S
H1532 C1528 0.950 . S
C1533 C1531 1.390 . S
C1533 C1534 1.387 . S
C1533 H1536 0.950 . S
C1534 C1533 1.387 . S
C1534 C1537 1.387 . S
H1535 C1531 0.950 . S
H1536 C1533 0.950 . S
C1537 C1528 1.390 . S
C1537 H1530 0.950 . S
C1537 C1534 1.387 . S
C1538 C1539 1.387 . S
C1538 H1542 0.950 . S
C1538 C1547 1.390 . S
C1539 C1538 1.387 . S
C1539 C1541 1.387 . S
H1540 C1547 0.950 . S
C1541 C1539 1.387 . S
C1541 C1543 1.390 . S
C1541 H1545 0.950 . S
H1542 C1538 0.950 . S
C1543 C1541 1.390 . S
C1543 C1544 1.387 . S
C1543 H1546 0.950 . S
C1544 C1543 1.387 . S
C1544 C1547 1.387 . S
H1545 C1541 0.950 . S
H1546 C1543 0.950 . S
C1547 C1538 1.390 . S
C1547 H1540 0.950 . S
C1547 C1544 1.387 . S
C1548 C1549 1.387 . S
C1548 H1552 0.950 . S
C1548 C1557 1.390 . S
C1549 C1548 1.387 . S
C1549 C1551 1.387 . S
H1550 C1557 0.950 . S
C1551 C1549 1.387 . S
C1551 C1553 1.390 . S
C1551 H1555 0.950 . S
H1552 C1548 0.950 . S
C1553 C1551 1.390 . S
C1553 C1554 1.387 . S
C1553 H1556 0.950 . S
C1554 C1553 1.387 . S
C1554 C1557 1.387 . S
H1555 C1551 0.950 . S
H1556 C1553 0.950 . S
C1557 C1548 1.390 . S
C1557 H1550 0.950 . S
C1557 C1554 1.387 . S
C1558 C1559 1.387 . S
C1558 H1562 0.950 . S
C1558 C1567 1.390 . S
C1559 C1558 1.387 . S
C1559 C1561 1.387 . S
H1560 C1567 0.950 . S
C1561 C1559 1.387 . S
C1561 C1563 1.390 . S
C1561 H1565 0.950 . S
H1562 C1558 0.950 . S
C1563 C1561 1.390 . S
C1563 C1564 1.387 . S
C1563 H1566 0.950 . S
C1564 C1563 1.387 . S
C1564 C1567 1.387 . S
H1565 C1561 0.950 . S
H1566 C1563 0.950 . S
C1567 C1558 1.390 . S
C1567 H1560 0.950 . S
C1567 C1564 1.387 . S
C1568 C1569 1.387 . S
C1568 H1572 0.950 . S
C1568 C1577 1.390 . S
C1569 C1568 1.387 . S
C1569 C1571 1.387 . S
H1570 C1577 0.950 . S
C1571 C1569 1.387 . S
C1571 C1573 1.390 . S
C1571 H1575 0.950 . S
H1572 C1568 0.950 . S
C1573 C1571 1.390 . S
C1573 C1574 1.387 . S
C1573 H1576 0.950 . S
C1574 C1573 1.387 . S
C1574 C1577 1.387 . S
H1575 C1571 0.950 . S
H1576 C1573 0.950 . S
C1577 C1568 1.390 . S
C1577 H1570 0.950 . S
C1577 C1574 1.387 . S
C1578 C1579 1.387 . S
C1578 H1582 0.950 . S
C1578 C1587 1.390 . S
C1579 C1578 1.387 . S
C1579 C1581 1.387 . S
H1580 C1587 0.950 . S
C1581 C1579 1.387 . S
C1581 C1583 1.390 . S
C1581 H1585 0.950 . S
H1582 C1578 0.950 . S
C1583 C1581 1.390 . S
C1583 C1584 1.387 . S
C1583 H1586 0.950 . S
C1584 C1583 1.387 . S
C1584 C1587 1.387 . S
H1585 C1581 0.950 . S
H1586 C1583 0.950 . S
C1587 C1578 1.390 . S
C1587 H1580 0.950 . S
C1587 C1584 1.387 . S
C1588 C1589 1.387 . S
C1588 H1592 0.950 . S
C1588 C1597 1.390 . S
C1589 C1588 1.387 . S
C1589 C1591 1.387 . S
H1590 C1597 0.950 . S
C1591 C1589 1.387 . S
C1591 C1593 1.390 . S
C1591 H1595 0.952 1_545 S
H1592 C1588 0.950 . S
C1593 C1591 1.390 . S
C1593 C1594 1.387 . S
C1593 H1596 0.950 . S
C1594 C1593 1.387 . S
C1594 C1597 1.387 . S
H1595 C1591 0.952 1_565 S
H1596 C1593 0.950 . S
C1597 C1588 1.390 . S
C1597 H1590 0.950 . S
C1597 C1594 1.387 . S
C1598 C1599 1.387 . S
C1598 H1602 0.950 . S
C1598 C1607 1.390 . S
C1599 C1598 1.387 . S
C1599 C1601 1.387 . S
H1600 C1607 0.950 . S
C1601 C1599 1.387 . S
C1601 C1603 1.390 . S
C1601 H1605 0.950 . S
H1602 C1598 0.950 . S
C1603 C1601 1.390 . S
C1603 C1604 1.387 . S
C1603 H1606 0.950 . S
C1604 C1603 1.387 . S
C1604 C1607 1.387 . S
H1605 C1601 0.950 . S
H1606 C1603 0.950 . S
C1607 C1598 1.390 . S
C1607 H1600 0.950 . S
C1607 C1604 1.387 . S
C1608 C1609 1.387 . S
C1608 H1612 0.950 . S
C1608 C1617 1.390 . S
C1609 C1608 1.387 . S
C1609 C1611 1.387 . S
H1610 C1617 0.950 . S
C1611 C1609 1.387 . S
C1611 C1613 1.390 . S
C1611 H1615 0.950 . S
H1612 C1608 0.950 . S
C1613 C1611 1.390 . S
C1613 C1614 1.387 . S
C1613 H1616 0.950 . S
C1614 C1613 1.387 . S
C1614 C1617 1.387 . S
H1615 C1611 0.950 . S
H1616 C1613 0.950 . S
C1617 C1608 1.390 . S
C1617 H1610 0.950 . S
C1617 C1614 1.387 . S
C1618 C1619 1.387 . S
C1618 H1622 0.950 . S
C1618 C1627 1.390 . S
C1619 C1618 1.387 . S
C1619 C1621 1.387 . S
H1620 C1627 0.950 . S
C1621 C1619 1.387 . S
C1621 C1623 1.390 . S
C1621 H1625 0.950 . S
H1622 C1618 0.950 . S
C1623 C1621 1.390 . S
C1623 C1624 1.387 . S
C1623 H1626 0.950 . S
C1624 C1623 1.387 . S
C1624 C1627 1.387 . S
H1625 C1621 0.950 . S
H1626 C1623 0.950 . S
C1627 C1618 1.390 . S
C1627 H1620 0.950 . S
C1627 C1624 1.387 . S
C1628 C1629 1.387 . S
C1628 H1632 0.950 . S
C1628 C1637 1.390 . S
C1629 C1628 1.387 . S
C1629 C1631 1.387 . S
H1630 C1637 0.950 . S
C1631 C1629 1.387 . S
C1631 C1633 1.390 . S
C1631 H1635 0.950 . S
H1632 C1628 0.950 . S
C1633 C1631 1.390 . S
C1633 C1634 1.387 . S
C1633 H1636 0.950 . S
C1634 C1633 1.387 . S
C1634 C1637 1.387 . S
H1635 C1631 0.950 . S
H1636 C1633 0.950 . S
C1637 C1628 1.390 . S
C1637 H1630 0.950 . S
C1637 C1634 1.387 . S
C1638 C1639 1.387 . S
C1638 H1642 0.950 . S
C1638 C1647 1.390 1_455 S
C1639 C1638 1.387 . S
C1639 C1641 1.387 . S
H1640 C1647 0.950 . S
C1641 C1639 1.387 . S
C1641 C1643 1.390 . S
C1641 H1645 0.950 . S
H1642 C1638 0.950 . S
C1643 C1641 1.390 . S
C1643 C1644 1.387 1_455 S
C1643 H1646 0.950 . S
C1644 C1643 1.387 1_655 S
C1644 C1647 1.387 . S
H1645 C1641 0.950 . S
H1646 C1643 0.950 . S
C1647 C1638 1.390 1_655 S
C1647 H1640 0.950 . S
C1647 C1644 1.387 . S
C694 C354 1.165 . S
C689 C11 1.178 . S
C699 C21 1.230 . S
C704 C366 1.232 . S
C714 C401 1.298 . S
C709 C41 1.309 . S
C724 C410 1.231 . S
C719 C50 1.240 . S
C734 C365 1.238 . S
C729 C64 1.268 . S
C739 C83 1.275 . S
C744 C390 1.285 . S
C754 C409 1.237 . S
C749 C91 1.252 . S
C759 C109 1.226 . S
C764 C351 1.195 . S
C769 C123 1.199 . S
C774 C344 1.185 . S
C784 C368 1.239 . S
C779 C134 1.250 . S
C794 C387 1.253 . S
C789 C147 1.271 . S
C804 C412 1.294 . S
C799 C167 1.283 . S
C814 C373 1.278 . S
C809 C125 1.288 . S
C824 C398 1.234 . S
C819 C133 1.229 . S
C829 C148 1.261 . S
C834 C417 1.224 . S
C844 C357 1.175 . S
C839 C165 1.205 . S
C849 C179 1.189 . S
C854 C346 1.180 . S
C859 C189 1.251 . S
C864 C445 1.238 . S
C874 C461 1.225 . S
C869 C204 1.260 . S
C884 C475 1.276 . S
C879 C223 1.286 . S
C889 C235 1.218 . S
C894 C343 1.187 . S
C899 C246 1.275 . S
C904 C395 1.242 . S
C914 C478 1.245 . S
C909 C203 1.249 . S
C924 C442 1.310 . S
C919 C265 1.300 . S
C934 C498 1.278 . S
C929 C27 1.277 . S
C944 C522 1.178 . S
C939 C7 1.185 . S
C949 C53 1.210 . S
C954 C555 1.192 . S
C959 C36 1.238 . S
C964 C563 1.247 . S
C969 C106 1.237 . S
C974 C533 1.245 . S
C979 C95 1.201 . S
C984 C544 1.196 . S
C994 C564 1.191 . S
C989 C77 1.204 . S
C999 C69 1.324 . S
C1004 C497 1.299 . S
C1009 C279 1.272 . S
C1014 C500 1.270 . S
C1024 C530 1.232 . S
C1019 C218 1.209 . S
C1034 C541 1.196 . S
C1029 C231 1.215 . S
C1044 C571 1.202 . S
C1039 C193 1.221 . S
C1054 C519 1.195 . S
C1049 C277 1.213 . S
C1064 C552 1.190 . S
C1059 C217 1.198 . S
C1074 C566 1.241 . S
C1069 C232 1.217 . S
C1079 C195 1.328 . S
C1084 C505 1.300 . S
C1094 C508 1.273 . S
C1089 C293 1.277 . S
C1099 C161 1.215 . S
C1104 C596 1.200 . S
C1114 C608 1.245 . S
C1109 C302 1.224 . S
C1119 C137 1.221 . S
C1124 C629 1.202 . S
C1134 C511 1.311 . S
C1129 C153 1.333 . S
C1144 C549 1.229 . S
C1139 C316 1.220 . S
C1154 C632 1.163 . S
C1149 C301 1.176 . S
C1159 C333 1.209 . S
C1164 C599 1.196 . S
C1169 C39 1.192 . S
C1174 C654 1.181 . S
C1179 C49 1.231 . S
C1184 C432 1.235 . S
C1194 C456 1.272 . S
C1189 C13 1.263 . S
C1199 C22 1.242 . S
C1204 C486 1.233 . S
C1209 C92 1.252 . S
C1214 C431 1.226 . S
C1219 C111 1.309 . S
C1224 C467 1.300 . S
C1234 C483 1.253 . S
C1229 C63 1.272 . S
C1244 C665 1.177 . S
C1239 C81 1.209 . S
C1254 C662 1.169 . S
C1249 C305 1.184 . S
C1264 C434 1.236 . S
C1259 C288 1.249 . S
C1274 C464 1.250 . S
C1269 C329 1.251 . S
C1279 C321 1.297 . S
C1284 C476 1.310 . S
C1294 C439 1.277 . S
C1289 C307 1.290 . S
C1299 C287 1.233 . S
C1304 C453 1.215 . S
C1314 C489 1.222 . S
C1309 C330 1.247 . S
C1319 C319 1.219 . S
C1324 C651 1.189 . S
C1334 C652 1.182 . S
C1329 C221 1.193 . S
C1339 C245 1.249 . S
C1344 C379 1.230 . S
C1354 C388 1.213 . S
C1349 C274 1.221 . S
C1359 C181 1.290 . S
C1364 C423 1.278 . S
C1374 C659 1.178 . S
C1369 C263 1.208 . S
C1384 C454 1.241 . S
C1379 C190 1.252 . S
C1394 C420 1.239 . S
C1389 C273 1.233 . S
C1404 C376 1.293 . S
C1399 C237 1.283 . S
C1409 C55 1.312 . S
C1414 C673 1.294 . S
C1419 C35 1.221 . S
C1424 C585 1.190 . S
C1429 C25 1.205 . S
C1434 C621 1.194 . S
C1444 C640 1.220 . S
C1439 C8 1.194 . S
C1454 C586 1.231 . S
C1449 C78 1.205 . S
C1459 C67 1.206 . S
C1464 C610 1.203 . S
C1474 C637 1.205 . S
C1469 C105 1.241 . S
C1479 C97 1.299 . S
C1484 C674 1.296 . S
C1494 C681 1.294 . S
C1489 C209 1.309 . S
C1499 C176 1.219 . S
C1504 C593 1.226 . S
C1509 C259 1.224 . S
C1514 C607 1.193 . S
C1524 C630 1.190 . S
C1519 C249 1.193 . S
C1534 C588 1.195 . S
C1529 C207 1.196 . S
C1539 C175 1.208 . S
C1544 C618 1.195 . S
C1554 C643 1.244 . S
C1549 C260 1.235 . S
C1564 C676 1.299 . S
C1559 C251 1.301 . S
C1574 C687 1.279 . S
C1569 C139 1.302 . S
C1584 C527 1.220 . S
C1579 C315 1.248 . S
C1589 C120 1.222 . S
C1594 C542 1.243 . S
C1599 C291 1.200 . S
C1604 C574 1.195 . S
C1614 C684 1.300 . S
C1609 C335 1.300 . S
C1624 C615 1.224 . S
C1619 C162 1.213 . S
C1634 C577 1.186 . S
C1629 C119 1.210 . S
C1644 C520 1.191 . S
C1639 C151 1.194 . S
