# Generated by pormake.
# Topology gar, (4,6)-cn, num edge types: 1
# Building blocks:
#     Node 0, Type 0, BuildingBlock: NAHDIM_clean_sbu_0, # of connection points: 4
#     Node 1, Type 0, BuildingBlock: NAHDIM_clean_sbu_0, # of connection points: 4
#     Node 2, Type 0, BuildingBlock: NAHDIM_clean_sbu_0, # of connection points: 4
#     Node 3, Type 0, BuildingBlock: NAHDIM_clean_sbu_0, # of connection points: 4
#     Node 4, Type 0, BuildingBlock: NAHDIM_clean_sbu_0, # of connection points: 4
#     Node 5, Type 0, BuildingBlock: NAHDIM_clean_sbu_0, # of connection points: 4
#     Node 6, Type 0, BuildingBlock: NAHDIM_clean_sbu_0, # of connection points: 4
#     Node 7, Type 0, BuildingBlock: NAHDIM_clean_sbu_0, # of connection points: 4
#     Node 8, Type 0, BuildingBlock: NAHDIM_clean_sbu_0, # of connection points: 4
#     Node 9, Type 0, BuildingBlock: NAHDIM_clean_sbu_0, # of connection points: 4
#     Node 10, Type 0, BuildingBlock: NAHDIM_clean_sbu_0, # of connection points: 4
#     Node 11, Type 0, BuildingBlock: NAHDIM_clean_sbu_0, # of connection points: 4
#     Node 12, Type 0, BuildingBlock: NAHDIM_clean_sbu_0, # of connection points: 4
#     Node 13, Type 0, BuildingBlock: NAHDIM_clean_sbu_0, # of connection points: 4
#     Node 14, Type 0, BuildingBlock: NAHDIM_clean_sbu_0, # of connection points: 4
#     Node 15, Type 0, BuildingBlock: NAHDIM_clean_sbu_0, # of connection points: 4
#     Node 16, Type 0, BuildingBlock: NAHDIM_clean_sbu_0, # of connection points: 4
#     Node 17, Type 0, BuildingBlock: NAHDIM_clean_sbu_0, # of connection points: 4
#     Node 18, Type 0, BuildingBlock: NAHDIM_clean_sbu_0, # of connection points: 4
#     Node 19, Type 0, BuildingBlock: NAHDIM_clean_sbu_0, # of connection points: 4
#     Node 20, Type 0, BuildingBlock: NAHDIM_clean_sbu_0, # of connection points: 4
#     Node 21, Type 0, BuildingBlock: NAHDIM_clean_sbu_0, # of connection points: 4
#     Node 22, Type 0, BuildingBlock: NAHDIM_clean_sbu_0, # of connection points: 4
#     Node 23, Type 0, BuildingBlock: NAHDIM_clean_sbu_0, # of connection points: 4
#     Node 24, Type 1, BuildingBlock: KUMBOL_clean_sbu_0, # of connection points: 6
#     Node 25, Type 1, BuildingBlock: KUMBOL_clean_sbu_0, # of connection points: 6
#     Node 26, Type 1, BuildingBlock: KUMBOL_clean_sbu_0, # of connection points: 6
#     Node 27, Type 1, BuildingBlock: KUMBOL_clean_sbu_0, # of connection points: 6
#     Node 28, Type 1, BuildingBlock: KUMBOL_clean_sbu_0, # of connection points: 6
#     Node 29, Type 1, BuildingBlock: KUMBOL_clean_sbu_0, # of connection points: 6
#     Node 30, Type 1, BuildingBlock: KUMBOL_clean_sbu_0, # of connection points: 6
#     Node 31, Type 1, BuildingBlock: KUMBOL_clean_sbu_0, # of connection points: 6
#     Node 32, Type 1, BuildingBlock: KUMBOL_clean_sbu_0, # of connection points: 6
#     Node 33, Type 1, BuildingBlock: KUMBOL_clean_sbu_0, # of connection points: 6
#     Node 34, Type 1, BuildingBlock: KUMBOL_clean_sbu_0, # of connection points: 6
#     Node 35, Type 1, BuildingBlock: KUMBOL_clean_sbu_0, # of connection points: 6
#     Node 36, Type 1, BuildingBlock: KUMBOL_clean_sbu_0, # of connection points: 6
#     Node 37, Type 1, BuildingBlock: KUMBOL_clean_sbu_0, # of connection points: 6
#     Node 38, Type 1, BuildingBlock: KUMBOL_clean_sbu_0, # of connection points: 6
#     Node 39, Type 1, BuildingBlock: KUMBOL_clean_sbu_0, # of connection points: 6
#     Edge 40, Type (0, 1), BuildingBlock: KIFKEQ_clean_linker_1, # of connection points: 2
#     Edge 41, Type (0, 1), BuildingBlock: KIFKEQ_clean_linker_1, # of connection points: 2
#     Edge 42, Type (0, 1), BuildingBlock: KIFKEQ_clean_linker_1, # of connection points: 2
#     Edge 43, Type (0, 1), BuildingBlock: KIFKEQ_clean_linker_1, # of connection points: 2
#     Edge 44, Type (0, 1), BuildingBlock: KIFKEQ_clean_linker_1, # of connection points: 2
#     Edge 45, Type (0, 1), BuildingBlock: KIFKEQ_clean_linker_1, # of connection points: 2
#     Edge 46, Type (0, 1), BuildingBlock: KIFKEQ_clean_linker_1, # of connection points: 2
#     Edge 47, Type (0, 1), BuildingBlock: KIFKEQ_clean_linker_1, # of connection points: 2
#     Edge 48, Type (0, 1), BuildingBlock: KIFKEQ_clean_linker_1, # of connection points: 2
#     Edge 49, Type (0, 1), BuildingBlock: KIFKEQ_clean_linker_1, # of connection points: 2
#     Edge 50, Type (0, 1), BuildingBlock: KIFKEQ_clean_linker_1, # of connection points: 2
#     Edge 51, Type (0, 1), BuildingBlock: KIFKEQ_clean_linker_1, # of connection points: 2
#     Edge 52, Type (0, 1), BuildingBlock: KIFKEQ_clean_linker_1, # of connection points: 2
#     Edge 53, Type (0, 1), BuildingBlock: KIFKEQ_clean_linker_1, # of connection points: 2
#     Edge 54, Type (0, 1), BuildingBlock: KIFKEQ_clean_linker_1, # of connection points: 2
#     Edge 55, Type (0, 1), BuildingBlock: KIFKEQ_clean_linker_1, # of connection points: 2
#     Edge 56, Type (0, 1), BuildingBlock: KIFKEQ_clean_linker_1, # of connection points: 2
#     Edge 57, Type (0, 1), BuildingBlock: KIFKEQ_clean_linker_1, # of connection points: 2
#     Edge 58, Type (0, 1), BuildingBlock: KIFKEQ_clean_linker_1, # of connection points: 2
#     Edge 59, Type (0, 1), BuildingBlock: KIFKEQ_clean_linker_1, # of connection points: 2
#     Edge 60, Type (0, 1), BuildingBlock: KIFKEQ_clean_linker_1, # of connection points: 2
#     Edge 61, Type (0, 1), BuildingBlock: KIFKEQ_clean_linker_1, # of connection points: 2
#     Edge 62, Type (0, 1), BuildingBlock: KIFKEQ_clean_linker_1, # of connection points: 2
#     Edge 63, Type (0, 1), BuildingBlock: KIFKEQ_clean_linker_1, # of connection points: 2
#     Edge 64, Type (0, 1), BuildingBlock: KIFKEQ_clean_linker_1, # of connection points: 2
#     Edge 65, Type (0, 1), BuildingBlock: KIFKEQ_clean_linker_1, # of connection points: 2
#     Edge 66, Type (0, 1), BuildingBlock: KIFKEQ_clean_linker_1, # of connection points: 2
#     Edge 67, Type (0, 1), BuildingBlock: KIFKEQ_clean_linker_1, # of connection points: 2
#     Edge 68, Type (0, 1), BuildingBlock: KIFKEQ_clean_linker_1, # of connection points: 2
#     Edge 69, Type (0, 1), BuildingBlock: KIFKEQ_clean_linker_1, # of connection points: 2
#     Edge 70, Type (0, 1), BuildingBlock: KIFKEQ_clean_linker_1, # of connection points: 2
#     Edge 71, Type (0, 1), BuildingBlock: KIFKEQ_clean_linker_1, # of connection points: 2
#     Edge 72, Type (0, 1), BuildingBlock: KIFKEQ_clean_linker_1, # of connection points: 2
#     Edge 73, Type (0, 1), BuildingBlock: KIFKEQ_clean_linker_1, # of connection points: 2
#     Edge 74, Type (0, 1), BuildingBlock: KIFKEQ_clean_linker_1, # of connection points: 2
#     Edge 75, Type (0, 1), BuildingBlock: KIFKEQ_clean_linker_1, # of connection points: 2
#     Edge 76, Type (0, 1), BuildingBlock: KIFKEQ_clean_linker_1, # of connection points: 2
#     Edge 77, Type (0, 1), BuildingBlock: KIFKEQ_clean_linker_1, # of connection points: 2
#     Edge 78, Type (0, 1), BuildingBlock: KIFKEQ_clean_linker_1, # of connection points: 2
#     Edge 79, Type (0, 1), BuildingBlock: KIFKEQ_clean_linker_1, # of connection points: 2
#     Edge 80, Type (0, 1), BuildingBlock: KIFKEQ_clean_linker_1, # of connection points: 2
#     Edge 81, Type (0, 1), BuildingBlock: KIFKEQ_clean_linker_1, # of connection points: 2
#     Edge 82, Type (0, 1), BuildingBlock: KIFKEQ_clean_linker_1, # of connection points: 2
#     Edge 83, Type (0, 1), BuildingBlock: KIFKEQ_clean_linker_1, # of connection points: 2
#     Edge 84, Type (0, 1), BuildingBlock: KIFKEQ_clean_linker_1, # of connection points: 2
#     Edge 85, Type (0, 1), BuildingBlock: KIFKEQ_clean_linker_1, # of connection points: 2
#     Edge 86, Type (0, 1), BuildingBlock: KIFKEQ_clean_linker_1, # of connection points: 2
#     Edge 87, Type (0, 1), BuildingBlock: KIFKEQ_clean_linker_1, # of connection points: 2
#     Edge 88, Type (0, 1), BuildingBlock: KIFKEQ_clean_linker_1, # of connection points: 2
#     Edge 89, Type (0, 1), BuildingBlock: KIFKEQ_clean_linker_1, # of connection points: 2
#     Edge 90, Type (0, 1), BuildingBlock: KIFKEQ_clean_linker_1, # of connection points: 2
#     Edge 91, Type (0, 1), BuildingBlock: KIFKEQ_clean_linker_1, # of connection points: 2
#     Edge 92, Type (0, 1), BuildingBlock: KIFKEQ_clean_linker_1, # of connection points: 2
#     Edge 93, Type (0, 1), BuildingBlock: KIFKEQ_clean_linker_1, # of connection points: 2
#     Edge 94, Type (0, 1), BuildingBlock: KIFKEQ_clean_linker_1, # of connection points: 2
#     Edge 95, Type (0, 1), BuildingBlock: KIFKEQ_clean_linker_1, # of connection points: 2
#     Edge 96, Type (0, 1), BuildingBlock: KIFKEQ_clean_linker_1, # of connection points: 2
#     Edge 97, Type (0, 1), BuildingBlock: KIFKEQ_clean_linker_1, # of connection points: 2
#     Edge 98, Type (0, 1), BuildingBlock: KIFKEQ_clean_linker_1, # of connection points: 2
#     Edge 99, Type (0, 1), BuildingBlock: KIFKEQ_clean_linker_1, # of connection points: 2
#     Edge 100, Type (0, 1), BuildingBlock: KIFKEQ_clean_linker_1, # of connection points: 2
#     Edge 101, Type (0, 1), BuildingBlock: KIFKEQ_clean_linker_1, # of connection points: 2
#     Edge 102, Type (0, 1), BuildingBlock: KIFKEQ_clean_linker_1, # of connection points: 2
#     Edge 103, Type (0, 1), BuildingBlock: KIFKEQ_clean_linker_1, # of connection points: 2
#     Edge 104, Type (0, 1), BuildingBlock: KIFKEQ_clean_linker_1, # of connection points: 2
#     Edge 105, Type (0, 1), BuildingBlock: KIFKEQ_clean_linker_1, # of connection points: 2
#     Edge 106, Type (0, 1), BuildingBlock: KIFKEQ_clean_linker_1, # of connection points: 2
#     Edge 107, Type (0, 1), BuildingBlock: KIFKEQ_clean_linker_1, # of connection points: 2
#     Edge 108, Type (0, 1), BuildingBlock: KIFKEQ_clean_linker_1, # of connection points: 2
#     Edge 109, Type (0, 1), BuildingBlock: KIFKEQ_clean_linker_1, # of connection points: 2
#     Edge 110, Type (0, 1), BuildingBlock: KIFKEQ_clean_linker_1, # of connection points: 2
#     Edge 111, Type (0, 1), BuildingBlock: KIFKEQ_clean_linker_1, # of connection points: 2
#     Edge 112, Type (0, 1), BuildingBlock: KIFKEQ_clean_linker_1, # of connection points: 2
#     Edge 113, Type (0, 1), BuildingBlock: KIFKEQ_clean_linker_1, # of connection points: 2
#     Edge 114, Type (0, 1), BuildingBlock: KIFKEQ_clean_linker_1, # of connection points: 2
#     Edge 115, Type (0, 1), BuildingBlock: KIFKEQ_clean_linker_1, # of connection points: 2
#     Edge 116, Type (0, 1), BuildingBlock: KIFKEQ_clean_linker_1, # of connection points: 2
#     Edge 117, Type (0, 1), BuildingBlock: KIFKEQ_clean_linker_1, # of connection points: 2
#     Edge 118, Type (0, 1), BuildingBlock: KIFKEQ_clean_linker_1, # of connection points: 2
#     Edge 119, Type (0, 1), BuildingBlock: KIFKEQ_clean_linker_1, # of connection points: 2
#     Edge 120, Type (0, 1), BuildingBlock: KIFKEQ_clean_linker_1, # of connection points: 2
#     Edge 121, Type (0, 1), BuildingBlock: KIFKEQ_clean_linker_1, # of connection points: 2
#     Edge 122, Type (0, 1), BuildingBlock: KIFKEQ_clean_linker_1, # of connection points: 2
#     Edge 123, Type (0, 1), BuildingBlock: KIFKEQ_clean_linker_1, # of connection points: 2
#     Edge 124, Type (0, 1), BuildingBlock: KIFKEQ_clean_linker_1, # of connection points: 2
#     Edge 125, Type (0, 1), BuildingBlock: KIFKEQ_clean_linker_1, # of connection points: 2
#     Edge 126, Type (0, 1), BuildingBlock: KIFKEQ_clean_linker_1, # of connection points: 2
#     Edge 127, Type (0, 1), BuildingBlock: KIFKEQ_clean_linker_1, # of connection points: 2
#     Edge 128, Type (0, 1), BuildingBlock: KIFKEQ_clean_linker_1, # of connection points: 2
#     Edge 129, Type (0, 1), BuildingBlock: KIFKEQ_clean_linker_1, # of connection points: 2
#     Edge 130, Type (0, 1), BuildingBlock: KIFKEQ_clean_linker_1, # of connection points: 2
#     Edge 131, Type (0, 1), BuildingBlock: KIFKEQ_clean_linker_1, # of connection points: 2
#     Edge 132, Type (0, 1), BuildingBlock: KIFKEQ_clean_linker_1, # of connection points: 2
#     Edge 133, Type (0, 1), BuildingBlock: KIFKEQ_clean_linker_1, # of connection points: 2
#     Edge 134, Type (0, 1), BuildingBlock: KIFKEQ_clean_linker_1, # of connection points: 2
#     Edge 135, Type (0, 1), BuildingBlock: KIFKEQ_clean_linker_1, # of connection points: 2
# Relax obj value: 0.133
# Max RMSD: 0.317
# Mean RMSD: 0.176
data_MOF--net-gar--node1-NAHDIM_clean_sbu_0--node2-KUMBOL_clean_sbu_0--edge1-KIFKEQ_clean_linker_1
_symmetry_space_group_name_H-M    P1
_symmetry_Int_Tables_number       1
_symmetry_cell_setting            triclinic
loop_
_symmetry_equiv_pos_as_xyz
'x, y, z'
_cell_length_a     62.604886
_cell_length_b     55.987524
_cell_length_c     55.243937
_cell_angle_alpha  100.44413
_cell_angle_beta   93.757056
_cell_angle_gamma 101.9547
loop_
_atom_site_label
_atom_site_type_symbol
_atom_site_fract_x
_atom_site_fract_y
_atom_site_fract_z
_atom_type_partial_charge
C0 C 0.15012 0.30551 0.37113 0.0
O1 O 0.14132 0.2838 0.37621 0.0
O2 O 0.10801 0.29428 0.41177 0.0
Zn3 Zn 0.11096 0.31859 0.38881 0.0
O4 O 0.10917 0.3513 0.40889 0.0
C5 C 0.06654 0.30689 0.36926 0.0
O6 O 0.06459 0.30883 0.39304 0.0
O7 O 0.13988 0.32294 0.37475 0.0
C8 C 0.10384 0.36835 0.39912 0.0
O9 O 0.09998 0.36478 0.37492 0.0
C10 C 0.1163 0.30219 0.43416 0.0
O11 O 0.12767 0.32527 0.44097 0.0
O12 O 0.08561 0.30911 0.3621 0.0
C13 C 0.98226 0.77028 0.70798 0.0
O14 O 0.98459 0.75915 0.68558 0.0
O15 O 0.03135 0.76196 0.68416 0.0
Zn16 Zn 0.02825 0.79223 0.70797 0.0
O17 O 0.03342 0.82102 0.6901 0.0
C18 C 0.05224 0.77817 0.7456 0.0
O19 O 0.03476 0.75974 0.74098 0.0
O20 O 0.99858 0.78578 0.7209 0.0
C21 C 0.05195 0.82499 0.68161 0.0
O22 O 0.066 0.81157 0.68649 0.0
C23 C 0.0268 0.75804 0.66085 0.0
O24 O 0.01825 0.77398 0.65085 0.0
O25 O 0.05261 0.79652 0.73493 0.0
C26 C 0.65427 0.80938 0.86547 0.0
O27 O 0.65052 0.79623 0.88277 0.0
O28 O 0.60547 0.79483 0.89688 0.0
Zn29 Zn 0.61149 0.81922 0.87408 0.0
O30 O 0.61378 0.85293 0.89496 0.0
C31 C 0.5684 0.81866 0.86038 0.0
O32 O 0.56966 0.8215 0.88462 0.0
O33 O 0.63949 0.81968 0.85806 0.0
C34 C 0.60992 0.87051 0.88494 0.0
O35 O 0.60691 0.86702 0.86068 0.0
C36 C 0.61516 0.80067 0.91879 0.0
O37 O 0.63027 0.82144 0.92538 0.0
O38 O 0.58502 0.81468 0.84959 0.0
C39 C 0.48306 0.28765 0.19434 0.0
O40 O 0.48346 0.28703 0.17049 0.0
O41 O 0.51696 0.25012 0.16406 0.0
Zn42 Zn 0.52642 0.28227 0.18889 0.0
O43 O 0.53621 0.30994 0.17051 0.0
C44 C 0.56138 0.26125 0.20556 0.0
O45 O 0.55512 0.2464 0.18388 0.0
O46 O 0.50046 0.28698 0.20715 0.0
C47 C 0.55147 0.30808 0.15666 0.0
O48 O 0.5608 0.28902 0.15592 0.0
C49 C 0.51138 0.24738 0.14103 0.0
O50 O 0.50974 0.26692 0.13159 0.0
O51 O 0.55166 0.27886 0.21218 0.0
C52 C 0.06177 0.81961 0.1461 0.0
O53 O 0.05684 0.80619 0.12355 0.0
O54 O 0.09534 0.79491 0.10644 0.0
Zn55 Zn 0.10438 0.83067 0.12774 0.0
O56 O 0.10532 0.86089 0.10962 0.0
C57 C 0.13702 0.81474 0.15714 0.0
O58 O 0.12008 0.79604 0.15576 0.0
O59 O 0.08135 0.83238 0.15254 0.0
C60 C 0.09143 0.86237 0.09219 0.0
O61 O 0.07554 0.8428 0.0831 0.0
C62 C 0.10807 0.78229 0.09569 0.0
O63 O 0.12853 0.79341 0.09459 0.0
O64 O 0.13454 0.83284 0.1469 0.0
C65 C 0.57592 0.7836 0.40741 0.0
O66 O 0.58157 0.78278 0.43053 0.0
O67 O 0.53728 0.7532 0.44376 0.0
Zn68 Zn 0.53342 0.78245 0.42597 0.0
O69 O 0.54147 0.81827 0.4471 0.0
C70 C 0.48899 0.79023 0.41235 0.0
O71 O 0.49318 0.80577 0.43381 0.0
O72 O 0.55596 0.78328 0.40078 0.0
C73 C 0.53606 0.82845 0.46769 0.0
O74 O 0.52362 0.81457 0.48043 0.0
C75 C 0.52725 0.7437 0.4604 0.0
O76 O 0.51129 0.75319 0.46958 0.0
O77 O 0.50296 0.77728 0.40572 0.0
C78 C 0.56022 0.33103 0.64889 0.0
O79 O 0.5542 0.32924 0.62528 0.0
O80 O 0.59271 0.29359 0.6107 0.0
Zn81 Zn 0.60196 0.33021 0.62958 0.0
O82 O 0.59904 0.35712 0.60816 0.0
C83 C 0.63617 0.31897 0.66037 0.0
O84 O 0.61921 0.3012 0.66186 0.0
O85 O 0.58037 0.3325 0.65576 0.0
C86 C 0.60305 0.38 0.61915 0.0
O87 O 0.60974 0.38535 0.64295 0.0
C88 C 0.60436 0.28131 0.59753 0.0
O89 O 0.62367 0.29299 0.59296 0.0
O90 O 0.6333 0.33496 0.64736 0.0
C91 C 0.07393 0.2952 0.91017 0.0
O92 O 0.07956 0.30707 0.93323 0.0
O93 O 0.03215 0.25107 0.94408 0.0
Zn94 Zn 0.03171 0.28321 0.92941 0.0
O95 O 0.04189 0.31732 0.9536 0.0
C96 C 0.98597 0.26626 0.90042 0.0
O97 O 0.9882 0.24324 0.89899 0.0
O98 O 0.05406 0.28337 0.90371 0.0
C99 C 0.0295 0.32938 0.96578 0.0
O100 O 1.00882 0.31847 0.96598 0.0
C101 C 0.03956 0.24963 0.9658 0.0
O102 O 0.04657 0.2703 0.98241 0.0
O103 O 1.00146 0.2841 0.91193 0.0
C104 C 0.41933 0.10603 0.29122 0.0
O105 O 0.43855 0.11658 0.30377 0.0
O106 O 0.45351 0.05653 0.27852 0.0
Zn107 Zn 0.42927 0.05946 0.2998 0.0
O108 O 0.44382 0.0694 0.3347 0.0
C109 C 0.4048 1.01243 0.27313 0.0
O110 O 0.41115 0.02245 0.25431 0.0
O111 O 0.41217 0.08268 0.2886 0.0
C112 C 0.45437 0.05313 0.33871 0.0
O113 O 0.45295 0.03333 0.32124 0.0
C114 C 0.47183 0.07216 0.28301 0.0
O115 O 0.47461 0.09174 0.30102 0.0
O116 O 0.40991 0.02532 0.29494 0.0
C117 C 0.34455 0.16878 0.51882 0.0
O118 O 0.35269 0.19082 0.51406 0.0
O119 O 0.30374 0.20739 0.55036 0.0
Zn120 Zn 0.30338 0.18517 0.51718 0.0
O121 O 0.31086 0.2045 0.49011 0.0
C122 C 0.25671 0.17406 0.51508 0.0
O123 O 0.2609 0.19787 0.52528 0.0
O124 O 0.3241 0.16249 0.52063 0.0
C125 C 0.30339 0.19348 0.46805 0.0
O126 O 0.29168 0.17051 0.46418 0.0
C127 C 0.31533 0.229 0.55956 0.0
O128 O 0.33005 0.23989 0.54679 0.0
O129 O 0.27257 0.16405 0.50908 0.0
C130 C 0.21228 0.97475 0.7606 0.0
O131 O 0.20261 0.97283 0.73828 0.0
O132 O 0.1711 1.01873 0.74027 0.0
Zn133 Zn 0.19073 0.023 0.77639 0.0
O134 O 0.17245 0.02642 0.80948 0.0
C135 C 0.21649 0.07192 0.76423 0.0
O136 O 0.20762 0.06129 0.74163 0.0
O137 O 0.20973 0.99293 0.77764 0.0
C138 C 0.15327 1.01549 0.81404 0.0
O139 O 0.1409 0.99877 0.79604 0.0
C140 C 0.15773 0.03225 0.73479 0.0
O141 O 0.15396 0.04922 0.75276 0.0
O142 O 0.2127 0.05935 0.78142 0.0
C143 C 0.27534 0.94772 0.04401 0.0
O144 O 0.27094 0.92398 0.03352 0.0
O145 O 0.32892 0.92794 0.07108 0.0
Zn146 Zn 0.32005 0.94178 0.0418 0.0
O147 O 0.31235 0.91416 0.0116 0.0
C148 C 0.36066 0.97992 0.05161 0.0
O149 O 0.35523 0.98394 0.07433 0.0
O150 O 0.29531 0.95949 0.04897 0.0
C151 C 0.30869 0.92031 0.99095 0.0
O152 O 0.30775 0.94351 0.99077 0.0
C153 C 0.346 0.919 0.0699 0.0
O154 O 0.35598 0.91843 0.04967 0.0
O155 O 0.34734 0.96445 0.03483 0.0
C156 C 0.29482 0.43178 0.04402 0.0
O157 O 0.2865 0.40914 0.04714 0.0
O158 O 0.33116 0.39978 0.07605 0.0
Zn159 Zn 0.33605 0.41576 0.04643 0.0
O160 O 0.33317 0.39094 0.01385 0.0
C161 C 0.38269 0.42653 0.05628 0.0
O162 O 0.37865 0.40238 0.05534 0.0
O163 O 0.3154 0.43853 0.04334 0.0
C164 C 0.34496 0.39805 0.99745 0.0
O165 O 0.35814 0.42027 1.00266 0.0
C166 C 0.31802 0.37954 0.07722 0.0
O167 O 0.30546 0.36644 0.05726 0.0
O168 O 0.36674 0.43683 0.05313 0.0
C169 C 0.82423 0.12192 0.0117 0.0
O170 O 0.83088 0.14575 0.02151 0.0
O171 O 0.78983 0.15673 0.0469 0.0
Zn172 Zn 0.78386 0.13696 0.01179 0.0
O173 O 0.78847 0.15994 0.98751 0.0
C174 C 0.739 0.13379 0.01445 0.0
O175 O 0.74755 0.1572 0.02472 0.0
O176 O 0.80379 0.11287 1.00588 0.0
C177 C 0.77767 0.15264 0.96621 0.0
O178 O 0.76467 0.13031 0.96069 0.0
C179 C 0.79975 0.17953 0.05269 0.0
O180 O 0.80801 0.19085 0.03543 0.0
O181 O 0.75176 0.11972 1.00688 0.0
C182 C 0.21398 0.49933 0.28528 0.0
O183 O 0.19451 0.49021 0.27285 0.0
O184 O 0.19602 0.53124 0.23554 0.0
Zn185 Zn 0.20855 0.54512 0.271 0.0
O186 O 0.18327 0.55169 0.28985 0.0
C187 C 0.22158 0.59403 0.26336 0.0
O188 O 0.2014 0.58756 0.25233 0.0
O189 O 0.22326 0.522 0.28633 0.0
C190 C 0.18324 0.57192 0.3046 0.0
O191 O 0.20123 0.58959 0.30994 0.0
C192 C 0.17593 0.51992 0.23099 0.0
O193 O 0.16481 0.51486 0.24948 0.0
O194 O 0.2294 0.57804 0.27261 0.0
C195 C 0.8012 0.94418 0.5226 0.0
O196 O 0.80833 0.93454 0.50204 0.0
O197 O 0.82324 0.89966 0.57388 0.0
Zn198 Zn 0.82755 0.91462 0.54336 0.0
O199 O 0.82078 0.88966 0.5106 0.0
C200 C 0.87482 0.92615 0.55425 0.0
O201 O 0.871 0.90442 0.56089 0.0
O202 O 0.80737 0.93852 0.54281 0.0
C203 C 0.83305 0.87591 0.50087 0.0
O204 O 0.85143 0.87538 0.51345 0.0
C205 C 0.82203 0.87714 0.57574 0.0
O206 O 0.82314 0.86054 0.55601 0.0
O207 O 0.8588 0.93435 0.5463 0.0
C208 C 0.92601 0.12887 0.26766 0.0
O209 O 0.93628 0.12507 0.24781 0.0
O210 O 0.96341 0.07855 0.24799 0.0
Zn211 Zn 0.94604 0.08352 0.28166 0.0
O212 O 0.96639 0.08667 0.317 0.0
C213 C 0.91936 0.02929 0.26271 0.0
O214 O 0.92785 0.03138 0.24187 0.0
O215 O 0.92765 0.11463 0.28351 0.0
C216 C 0.97722 0.07062 0.32239 0.0
O217 O 0.97791 0.05173 0.3047 0.0
C218 C 0.97876 0.09355 0.24014 0.0
O219 O 0.98628 0.11584 0.25397 0.0
O220 O 0.92376 0.04841 0.28054 0.0
C221 C 0.3396 0.64006 0.50443 0.0
O222 O 0.34848 0.66393 0.51186 0.0
O223 O 0.30689 0.6786 0.54308 0.0
Zn224 Zn 0.29902 0.65669 0.50884 0.0
O225 O 0.29694 0.67618 0.48172 0.0
C226 C 0.2601 0.62633 0.52427 0.0
O227 O 0.27263 0.62536 0.54393 0.0
O228 O 0.31883 0.63282 0.50178 0.0
C229 C 0.27981 0.68503 0.48057 0.0
O230 O 0.26653 0.68294 0.4979 0.0
C231 C 0.3079 0.70194 0.54774 0.0
O232 O 0.3056 0.71346 0.52937 0.0
O233 O 0.26843 0.63716 0.50774 0.0
C234 C 0.42173 0.62685 0.76776 0.0
O235 O 0.42791 0.62024 0.74573 0.0
O236 O 0.4627 0.57963 0.74803 0.0
Zn237 Zn 0.44519 0.58382 0.78182 0.0
O238 O 0.46608 0.58706 0.81688 0.0
C239 C 0.41821 0.52941 0.76298 0.0
O240 O 0.42625 0.53142 0.74188 0.0
O241 O 0.42669 0.61489 0.78463 0.0
C242 C 0.47734 0.5713 0.82204 0.0
O243 O 0.47806 0.5525 0.80425 0.0
C244 C 0.47335 0.59632 0.73718 0.0
O245 O 0.47514 0.6198 0.74751 0.0
O246 O 0.42302 0.54854 0.7808 0.0
C247 C 0.72841 0.02919 0.8011 0.0
O248 O 0.71225 0.03015 0.81499 0.0
O249 O 0.69512 0.04329 0.7343 0.0
Zn250 Zn 0.70639 0.05572 0.77009 0.0
O251 O 0.68031 0.05393 0.78951 0.0
C252 C 0.71273 0.1088 0.77285 0.0
O253 O 0.69131 0.1038 0.7675 0.0
O254 O 0.7282 0.03758 0.78125 0.0
C255 C 0.67889 0.07073 0.80776 0.0
O256 O 0.69605 0.08889 0.81658 0.0
C257 C 0.67685 0.02764 0.72841 0.0
O258 O 0.66686 1.018 0.74575 0.0
O259 O 0.72235 0.0912 0.77438 0.0
C260 C 0.84887 0.67212 0.01551 0.0
O261 O 0.85659 0.69171 1.00613 0.0
O262 O 0.80759 0.71415 0.04598 0.0
Zn263 Zn 0.80754 0.68923 0.0143 0.0
O264 O 0.8129 0.70447 0.98398 0.0
C265 C 0.76099 0.67649 0.01341 0.0
O266 O 0.76457 0.70049 0.02254 0.0
O267 O 0.82895 0.66775 0.02009 0.0
C268 C 0.82693 0.72406 0.9827 0.0
O269 O 0.83964 0.73675 1.00269 0.0
C270 C 0.82402 0.72826 0.05996 0.0
O271 O 0.84387 0.72875 0.0534 0.0
O272 O 0.77718 0.66692 1.00776 0.0
C273 C 0.91699 0.61467 0.80682 0.0
O274 O 0.93736 0.62524 0.81593 0.0
O275 O 0.9564 0.5774 0.78657 0.0
Zn276 Zn 0.93242 0.57049 0.8087 0.0
O277 O 0.94657 0.57792 0.84353 0.0
C278 C 0.9018 0.52375 0.78497 0.0
O279 O 0.89311 0.53739 0.77184 0.0
O280 O 0.9107 0.59113 0.80332 0.0
C281 C 0.9618 0.56632 0.84565 0.0
O282 O 0.96562 0.55113 0.82615 0.0
C283 C 0.97433 0.59321 0.79459 0.0
O284 O 0.97706 0.60604 0.81738 0.0
O285 O 0.91812 0.53405 0.80097 0.0
C286 C 0.79564 0.49127 0.54097 0.0
O287 O 0.78853 0.46836 0.54407 0.0
O288 O 0.83212 0.45071 0.551 0.0
Zn289 Zn 0.83281 0.4722 0.52559 0.0
O290 O 0.82561 0.44991 0.49197 0.0
C291 C 0.87501 0.50447 0.54559 0.0
O292 O 0.8653 0.5106 0.56543 0.0
O293 O 0.81401 0.49704 0.5326 0.0
C294 C 0.83841 0.435 0.48807 0.0
O295 O 0.8538 0.43559 0.50569 0.0
C296 C 0.82002 0.42888 0.5471 0.0
O297 O 0.80586 0.42116 0.52716 0.0
O298 O 0.86392 0.48971 0.52671 0.0
C299 C 0.71276 0.47762 0.28771 0.0
O300 O 0.70484 0.48205 0.30911 0.0
O301 O 0.66843 0.52163 0.2437 0.0
Zn302 Zn 0.69092 0.52274 0.27705 0.0
O303 O 0.6749 0.52551 0.31215 0.0
C304 C 0.70928 0.57622 0.27189 0.0
O305 O 0.68966 0.57265 0.26 0.0
O306 O 0.70909 0.49137 0.272 0.0
C307 C 0.65476 0.51795 0.31635 0.0
O308 O 0.64055 0.50598 0.29726 0.0
C309 C 0.67464 0.5219 0.22183 0.0
O310 O 0.69521 0.52116 0.21918 0.0
O311 O 0.71406 0.55814 0.281 0.0
Gd312 Gd 0.09278 0.07492 0.04279 0.0
Gd313 Gd 0.0415 0.03545 0.01267 0.0
C314 C 0.03353 0.95115 1.00272 0.0
C315 C 0.02998 0.93814 0.95795 0.0
C316 C 0.03457 0.98188 0.97688 0.0
C317 C 0.03584 0.97613 1.0001 0.0
C318 C 0.03102 0.96288 0.95549 0.0
C319 C 0.03122 0.93228 0.98154 0.0
C320 C 0.03283 0.94582 0.02648 0.0
C321 C 0.03373 0.96507 0.04676 0.0
N322 N 0.03786 0.99479 0.02011 0.0
C323 C 0.03603 0.98955 0.04319 0.0
H324 H 0.03691 1.00428 0.05904 0.0
C325 C 0.03048 1.01185 0.95286 0.0
N326 N 0.03526 1.00589 0.97524 0.0
C327 C 0.02713 0.99374 0.93108 0.0
C328 C 0.02776 0.96921 0.93236 0.0
H329 H 0.02983 0.03076 0.95177 0.0
H330 H 0.02971 0.91302 0.98319 0.0
H331 H 0.13781 0.07662 0.01257 0.0
H332 H 0.03109 0.92689 0.0293 0.0
H333 H 0.03282 0.96111 0.06517 0.0
H334 H 0.0275 0.92331 0.94174 0.0
H335 H 0.06219 0.11044 0.0755 0.0
H336 H 0.15671 0.14815 0.99338 0.0
H337 H 0.16255 0.10569 0.99267 0.0
H338 H 0.1079 0.19393 0.0335 0.0
H339 H 0.02399 0.99869 0.91335 0.0
H340 H 0.02499 0.95516 0.91549 0.0
H341 H 0.13603 0.18083 1.00839 0.0
H342 H 0.05774 0.15325 0.08294 0.0
N343 N 0.11752 0.102 0.02373 0.0
C344 C 0.14576 0.13544 1.0021 0.0
C345 C 0.14914 0.11154 1.00171 0.0
C346 C 0.12882 0.14298 0.01459 0.0
C347 C 0.115 0.1257 0.02566 0.0
C348 C 0.13506 0.09515 0.01302 0.0
N349 N 0.08686 0.11607 0.05085 0.0
C350 C 0.09935 0.13306 0.03989 0.0
C351 C 0.06952 0.14785 0.07075 0.0
C352 C 0.08169 0.16518 0.05891 0.0
C353 C 0.07226 0.12332 0.06647 0.0
C354 C 0.09687 0.15794 0.04331 0.0
H355 H 0.07933 0.18409 0.06203 0.0
O356 O 0.10267 0.08326 0.08254 0.0
O357 O 0.0711 0.03691 0.03794 0.0
O358 O 0.03654 0.04688 0.05377 0.0
O359 O 0.06989 0.07134 0.07361 0.0
O360 O 0.1035 0.03873 0.03179 0.0
O361 O 0.1264 0.07721 0.05708 0.0
O362 O 0.01354 0.0491 0.9997 0.0
O363 O 0.05997 0.0752 0.02544 0.0
O364 O 0.09611 0.06401 1.00075 0.0
O365 O 0.06706 0.02999 0.98499 0.0
O366 O 0.04531 0.0647 0.98915 0.0
O367 O 1.0089 0.02146 0.02251 0.0
C368 C 0.08515 0.02379 0.03296 0.0
C369 C 0.10981 0.17488 0.03136 0.0
C370 C 0.12576 0.16741 0.01701 0.0
C371 C 0.12211 0.07898 0.07989 0.0
C372 C 0.12898 0.06064 0.09327 0.0
C373 C 0.11835 0.0541 0.11353 0.0
C374 C 0.14591 0.04896 0.08534 0.0
C375 C 0.15197 0.03068 0.09712 0.0
C376 C 0.12422 0.03595 0.12526 0.0
C377 C 0.14083 0.02424 0.11712 0.0
C378 C 0.04893 0.0604 0.07408 0.0
C379 C 0.05674 0.08301 1.00552 0.0
C380 C 0.99952 0.03454 1.00981 0.0
C381 C 0.97868 0.0219 0.99479 0.0
C382 C 0.97557 0.99778 0.98051 0.0
C383 C 0.96134 0.03422 0.99541 0.0
C384 C 0.94077 0.02261 0.98213 0.0
C385 C 0.95518 0.98612 0.96717 0.0
C386 C 0.9378 0.99836 0.96805 0.0
C387 C 0.08597 0.0451 0.98255 0.0
H388 H 0.10532 0.06277 0.12014 0.0
H389 H 0.15412 0.05374 0.06964 0.0
H390 H 0.11584 0.03093 0.14075 0.0
H391 H 0.14519 1.01045 0.12677 0.0
H392 H 0.98875 0.98794 0.97986 0.0
H393 H 0.96376 0.05273 1.00675 0.0
H394 H 0.9528 0.96749 0.95621 0.0
H395 H 0.92214 0.989 0.95758 0.0
Gd396 Gd 0.31244 0.82348 0.30079 0.0
Gd397 Gd 0.32512 0.78041 0.24647 0.0
C398 C 0.28018 0.71703 0.19001 0.0
C399 C 0.28195 0.68084 0.20789 0.0
C400 C 0.30306 0.72196 0.22847 0.0
C401 C 0.29471 0.73225 0.21012 0.0
C402 C 0.29714 0.69599 0.22727 0.0
C403 C 0.27348 0.69135 0.18928 0.0
C404 C 0.27331 0.72799 0.17092 0.0
C405 C 0.28147 0.75335 0.17181 0.0
N406 N 0.30165 0.75702 0.21133 0.0
C407 C 0.29595 0.76758 0.19208 0.0
H408 H 0.30211 0.78724 0.19278 0.0
C409 C 0.32782 0.72728 0.26408 0.0
N410 N 0.31755 0.73723 0.24701 0.0
C411 C 0.32254 0.70166 0.26364 0.0
C412 C 0.30694 0.68597 0.24533 0.0
H413 H 0.33978 0.73884 0.27855 0.0
H414 H 0.26216 0.67939 0.17413 0.0
H415 H 0.33545 0.81448 0.35355 0.0
H416 H 0.26214 0.71696 0.15517 0.0
H417 H 0.27658 0.76194 0.15694 0.0
H418 H 0.27701 0.66092 0.20686 0.0
H419 H 0.29782 0.86613 0.27048 0.0
H420 H 0.3743 0.88417 0.39404 0.0
H421 H 0.36041 0.83879 0.39026 0.0
H422 H 0.35881 0.9425 0.34546 0.0
H423 H 0.33042 0.69407 0.27756 0.0
H424 H 0.30282 0.66614 0.2451 0.0
H425 H 0.3738 0.92277 0.37703 0.0
H426 H 0.30641 0.91128 0.27361 0.0
N427 N 0.33583 0.84564 0.33641 0.0
C428 C 0.36344 0.87356 0.37787 0.0
C429 C 0.35558 0.84798 0.37585 0.0
C430 C 0.35662 0.88528 0.35937 0.0
C431 C 0.34252 0.87061 0.33864 0.0
C432 C 0.34143 0.8343 0.35508 0.0
N433 N 0.32003 0.86684 0.30171 0.0
C434 C 0.33423 0.8816 0.32082 0.0
C435 C 0.31443 0.90318 0.28699 0.0
C436 C 0.32966 0.91844 0.30594 0.0
C437 C 0.30962 0.87737 0.2853 0.0
C438 C 0.33963 0.90775 0.32331 0.0
H439 H 0.33332 0.93844 0.30722 0.0
O440 O 0.27897 0.82892 0.29988 0.0
O441 O 0.30671 0.7853 0.2789 0.0
O442 O 0.28997 0.78468 0.23964 0.0
O443 O 0.29062 0.82275 0.26573 0.0
O444 O 0.30789 0.78813 0.31661 0.0
O445 O 0.29441 0.82049 0.33258 0.0
O446 O 0.35888 0.77591 0.24757 0.0
O447 O 0.33063 0.81874 0.26803 0.0
O448 O 0.3479 0.82043 0.30694 0.0
O449 O 0.34708 0.78185 0.28183 0.0
O450 O 0.32893 0.81526 0.23008 0.0
O451 O 0.34296 0.78286 0.21442 0.0
C452 C 0.30454 0.77284 0.29563 0.0
C453 C 0.35432 0.92242 0.34339 0.0
C454 C 0.36286 0.91119 0.36135 0.0
C455 C 0.27596 0.82091 0.32044 0.0
C456 C 0.25795 0.79885 0.31948 0.0
C457 C 0.24365 0.78791 0.29777 0.0
C458 C 0.2571 0.78651 0.33946 0.0
C459 C 0.24327 0.76293 0.33752 0.0
C460 C 0.22941 0.76467 0.29595 0.0
C461 C 0.22945 0.752 0.31555 0.0
C462 C 0.2815 0.8044 0.24674 0.0
C463 C 0.33229 0.8308 0.25091 0.0
C464 C 0.3616 0.78337 0.2267 0.0
C465 C 0.37919 0.80576 0.22722 0.0
C466 C 0.39428 0.81641 0.24835 0.0
C467 C 0.37901 0.81854 0.20759 0.0
C468 C 0.39268 0.84222 0.20939 0.0
C469 C 0.40831 0.83973 0.25001 0.0
C470 C 0.40731 0.85279 0.23081 0.0
C471 C 0.35625 0.80053 0.30052 0.0
H472 H 0.24392 0.79684 0.28195 0.0
H473 H 0.26833 0.79458 0.3561 0.0
H474 H 0.21873 0.75617 0.27903 0.0
H475 H 0.21875 0.73373 0.31357 0.0
H476 H 0.3948 0.80714 0.2639 0.0
H477 H 0.3672 0.81072 0.19139 0.0
H478 H 0.41962 0.84798 0.26649 0.0
H479 H 0.41794 0.8711 0.23268 0.0
Gd480 Gd 0.54356 0.04397 0.54936 0.0
Gd481 Gd 0.59602 0.06575 0.52417 0.0
C482 C 0.62706 0.14779 0.52706 0.0
C483 C 0.62364 0.15039 0.48359 0.0
C484 C 0.61052 0.11093 0.49611 0.0
C485 C 0.61674 0.12225 0.52061 0.0
C486 C 0.61428 0.12472 0.47724 0.0
C487 C 0.63003 0.16191 0.50847 0.0
C488 C 0.63452 0.1582 0.55191 0.0
C489 C 0.63216 0.14306 0.56948 0.0
N490 N 0.61366 0.10801 0.53804 0.0
C491 C 0.6219 0.11781 0.56214 0.0
H492 H 0.62019 0.10643 0.57597 0.0
C493 C 0.59774 0.07349 0.46662 0.0
N494 N 0.6018 0.08609 0.49067 0.0
C495 C 0.60098 0.08636 0.44723 0.0
C496 C 0.60905 0.11215 0.45255 0.0
H497 H 0.59139 0.05355 0.46244 0.0
H498 H 0.63768 0.18161 0.51309 0.0
H499 H 0.51812 1.0009 0.4998 0.0
H500 H 0.64248 0.17775 0.55765 0.0
H501 H 0.63818 0.15083 0.5887 0.0
H502 H 0.62648 0.16137 0.46937 0.0
H503 H 0.55125 0.05943 0.61128 0.0
H504 H 0.49636 0.93181 0.52276 0.0
H505 H 0.49985 0.95646 0.48975 0.0
H506 H 0.51482 0.95312 0.61076 0.0
H507 H 0.59725 0.07639 0.42821 0.0
H508 H 0.61165 0.12208 0.43751 0.0
H509 H 0.5022 0.93069 0.56795 0.0
H510 H 0.54666 0.03886 0.64709 0.0
N511 N 0.5254 1.00165 0.53813 0.0
C512 C 0.50435 0.95141 0.52732 0.0
C513 C 0.50625 0.96526 0.50865 0.0
C514 C 0.51238 0.96316 0.55173 0.0
C515 C 0.52276 0.98869 0.55662 0.0
C516 C 0.51664 0.99055 0.51447 0.0
N517 N 0.53881 0.02601 0.58458 0.0
C518 C 0.5297 1.00127 0.58063 0.0
C519 C 0.54185 0.02805 0.62849 0.0
C520 C 0.53317 1.00243 0.62467 0.0
C521 C 0.54434 0.03967 0.60814 0.0
C522 C 0.52673 0.98874 0.60054 0.0
H523 H 0.53121 0.99349 0.64046 0.0
O524 O 0.52081 0.06388 0.56751 0.0
O525 O 0.56827 0.0765 0.54312 0.0
O526 O 0.59985 0.06365 0.565 0.0
O527 O 0.57051 0.03252 0.5701 0.0
O528 O 0.55495 0.0812 0.57615 0.0
O529 O 0.51252 0.04375 0.52944 0.0
O530 O 0.61887 0.04686 0.50484 0.0
O531 O 0.57103 0.0334 0.52969 0.0
O532 O 0.53949 0.04369 0.50832 0.0
O533 O 0.56843 0.07419 0.50098 0.0
O534 O 0.5853 0.02849 0.49723 0.0
O535 O 0.62709 0.06502 0.54346 0.0
C536 C 0.56819 0.09216 0.56264 0.0
C537 C 0.51712 0.96312 0.59574 0.0
C538 C 0.50995 0.95035 0.57137 0.0
C539 C 0.5061 0.05708 0.54828 0.0
C540 C 0.48318 0.04909 0.55289 0.0
C541 C 0.47588 0.02725 0.5618 0.0
C542 C 0.4683 0.06355 0.54778 0.0
C543 C 0.44602 0.05636 0.55137 0.0
C544 C 0.45381 0.01998 0.56553 0.0
C545 C 0.43894 0.03438 0.56036 0.0
C546 C 0.59079 0.04582 0.57646 0.0
C547 C 0.57156 1.01766 0.51036 0.0
C548 C 0.63371 0.05303 0.52392 0.0
C549 C 0.65643 0.06249 0.51926 0.0
C550 C 0.66314 0.08634 0.51409 0.0
C551 C 0.6717 0.04749 0.52045 0.0
C552 C 0.69377 0.05621 0.51669 0.0
C553 C 0.68496 0.09516 0.5103 0.0
C554 C 0.70021 0.08028 0.51164 0.0
C555 C 0.54828 0.06015 0.49528 0.0
H556 H 0.48718 1.01587 0.56578 0.0
H557 H 0.47421 0.08059 0.5412 0.0
H558 H 0.44818 1.00305 0.57234 0.0
H559 H 0.42187 0.02813 0.56309 0.0
H560 H 0.6516 0.09813 0.51309 0.0
H561 H 0.66627 0.02891 0.52409 0.0
H562 H 0.6901 0.11366 0.50645 0.0
H563 H 0.71709 0.08777 0.50902 0.0
Gd564 Gd 0.34408 0.29794 0.78848 0.0
Gd565 Gd 0.2899 0.31113 0.77029 0.0
C566 C 0.2649 0.30942 0.69013 0.0
C567 C 0.26628 0.35318 0.69049 0.0
C568 C 0.27695 0.33989 0.72815 0.0
C569 C 0.27299 0.31557 0.71545 0.0
C570 C 0.27311 0.35893 0.716 0.0
C571 C 0.26218 0.32844 0.67756 0.0
C572 C 0.259 0.28429 0.67848 0.0
C573 C 0.26037 0.26603 0.69231 0.0
N574 N 0.27555 0.2977 0.72828 0.0
C575 C 0.2684 0.2731 0.7174 0.0
H576 H 0.26947 0.25876 0.72774 0.0
C577 C 0.28411 0.36771 0.76687 0.0
N578 N 0.28311 0.34463 0.75282 0.0
C579 C 0.28068 0.38728 0.75566 0.0
C580 C 0.27547 0.38296 0.73005 0.0
H581 H 0.28827 0.37124 0.78666 0.0
H582 H 0.25624 0.32412 0.65805 0.0
H583 H 0.36683 0.35136 0.82879 0.0
H584 H 0.25277 0.27877 0.65906 0.0
H585 H 0.25538 0.24651 0.68364 0.0
H586 H 0.26347 0.36758 0.68075 0.0
H587 H 0.34595 0.23791 0.77376 0.0
H588 H 0.38621 0.3341 0.89795 0.0
H589 H 0.38302 0.36513 0.87204 0.0
H590 H 0.3741 0.2451 0.87953 0.0
H591 H 0.28208 0.40567 0.76678 0.0
H592 H 0.27269 0.39811 0.72142 0.0
H593 H 0.38226 0.28911 0.90075 0.0
H594 H 0.35314 0.2044 0.7945 0.0
N595 N 0.35994 0.31273 0.82995 0.0
C596 C 0.379 0.3279 0.87888 0.0
C597 C 0.37729 0.34545 0.8643 0.0
C598 C 0.37224 0.30252 0.86833 0.0
C599 C 0.36294 0.29548 0.84341 0.0
C600 C 0.36798 0.33749 0.83968 0.0
N601 N 0.35168 0.26538 0.80702 0.0
C602 C 0.35856 0.2709 0.83153 0.0
C603 C 0.35462 0.22299 0.80519 0.0
C604 C 0.3605 0.22811 0.83072 0.0
C605 C 0.35062 0.24204 0.7935 0.0
C606 C 0.36303 0.25243 0.84415 0.0
H607 H 0.36375 0.21338 0.83973 0.0
O608 O 0.3683 0.2852 0.76584 0.0
O609 O 0.32009 0.30014 0.75802 0.0
O610 O 0.28712 0.26939 0.76983 0.0
O611 O 0.31713 0.26574 0.79531 0.0
O612 O 0.336 0.27098 0.75189 0.0
O613 O 0.37454 0.32349 0.78515 0.0
O614 O 0.26616 0.32247 0.79442 0.0
O615 O 0.31382 0.30867 0.80082 0.0
O616 O 0.34647 0.33982 0.78872 0.0
O617 O 0.31668 0.3424 0.76225 0.0
O618 O 0.29772 0.33775 0.80707 0.0
O619 O 0.25783 0.28664 0.76952 0.0
C620 C 0.32213 0.28158 0.74232 0.0
C621 C 0.37081 0.25905 0.86942 0.0
C622 C 0.37544 0.2841 0.88151 0.0
C623 C 0.38231 0.30658 0.77128 0.0
C624 C 0.40536 0.30601 0.77794 0.0
C625 C 0.4119 0.30128 0.80103 0.0
C626 C 0.42104 0.31046 0.76116 0.0
C627 C 0.44328 0.31042 0.76747 0.0
C628 C 0.4338 0.30111 0.80738 0.0
C629 C 0.44939 0.30566 0.79082 0.0
C630 C 0.29721 0.25637 0.78296 0.0
C631 C 0.31162 0.32714 0.81658 0.0
C632 C 0.25093 0.30251 0.78574 0.0
C633 C 0.22877 0.3065 0.77988 0.0
C634 C 0.22383 0.31543 0.75857 0.0
C635 C 0.21259 0.30204 0.79612 0.0
C636 C 0.19151 0.3067 0.79127 0.0
C637 C 0.20311 0.32007 0.75358 0.0
C638 C 0.18713 0.3159 0.76978 0.0
C639 C 0.33644 0.35221 0.7747 0.0
H640 H 0.4001 0.29776 0.81413 0.0
H641 H 0.41598 0.31431 0.74339 0.0
H642 H 0.43873 0.29739 0.82523 0.0
H643 H 0.4662 0.30509 0.79617 0.0
H644 H 0.23602 0.31898 0.74591 0.0
H645 H 0.21647 0.29485 0.8124 0.0
H646 H 0.19948 0.32718 0.73719 0.0
H647 H 0.17145 0.32036 0.7656 0.0
Gd648 Gd 0.06955 1.01761 0.51046 0.0
Gd649 Gd 0.06045 0.07425 0.5458 0.0
C650 C 0.07556 0.0947 0.63004 0.0
C651 C 0.03924 0.09369 0.64343 0.0
C652 C 0.04382 0.08478 0.59956 0.0
C653 C 0.06617 0.08793 0.60516 0.0
C654 C 0.03013 0.08816 0.6186 0.0
C655 C 0.06192 0.09694 0.64914 0.0
C656 C 0.09843 0.09981 0.63496 0.0
C657 C 0.11133 0.09902 0.6153 0.0
N658 N 0.07887 0.08587 0.58624 0.0
C659 C 0.10124 0.09238 0.59095 0.0
H660 H 0.11155 0.09184 0.57608 0.0
C661 C 0.01408 0.07936 0.56895 0.0
N662 N 0.03563 0.07976 0.57542 0.0
C663 C 0.99983 0.08255 0.58715 0.0
C664 C 1.00783 0.08663 0.61209 0.0
H665 H 1.00775 0.07598 0.54968 0.0
H666 H 0.06882 0.10186 0.66836 0.0
H667 H 0.01895 1.00103 0.47693 0.0
H668 H 0.10628 0.10499 0.6538 0.0
H669 H 0.12905 0.10345 0.61887 0.0
H670 H 0.02896 0.09613 0.65832 0.0
H671 H 0.121 1.00793 0.50813 0.0
H672 H 0.02871 0.99535 0.40068 0.0
H673 H 1.0039 0.9935 0.4336 0.0
H674 H 0.10599 1.00194 0.40038 0.0
H675 H 0.98269 0.08172 0.58192 0.0
H676 H 0.99678 0.08913 0.62616 0.0
H677 H 0.0669 0.9992 0.38855 0.0
H678 H 0.1472 1.00354 0.47708 0.0
N679 N 0.0525 1.00859 0.46944 0.0
C680 C 0.03556 0.99883 0.41985 0.0
C681 C 0.02151 0.99771 0.43837 0.0
C682 C 0.05823 1.00326 0.42618 0.0
C683 C 0.06634 1.00774 0.45145 0.0
C684 C 0.03026 1.00217 0.46313 0.0
N685 N 0.09544 1.01116 0.48232 0.0
C686 C 0.08843 1.00915 0.45809 0.0
C687 C 0.13081 1.00534 0.47152 0.0
C688 C 0.12439 1.00508 0.44679 0.0
C689 C 0.11591 1.00787 0.48907 0.0
C690 C 0.10284 1.00634 0.43968 0.0
H691 H 0.13592 1.00293 0.4332 0.0
O692 O 0.06119 0.98957 0.53311 0.0
O693 O 0.07276 0.03992 0.54926 0.0
O694 O 0.09478 0.08118 0.53436 0.0
O695 O 0.09864 0.04678 0.50558 0.0
O696 O 0.09859 0.02386 0.53961 0.0
O697 O 0.06542 0.97825 0.49473 0.0
O698 O 0.04668 0.10577 0.54041 0.0
O699 O 0.05849 0.05279 0.5065 0.0
O700 O 0.03418 1.01459 0.51787 0.0
O701 O 0.03642 0.04204 0.55507 0.0
O702 O 0.03241 0.06832 0.51556 0.0
O703 O 0.08203 0.1097 0.54555 0.0
C704 C 0.09137 0.0369 0.55776 0.0
C705 C 0.09508 1.00376 0.41471 0.0
C706 C 0.07282 1.0022 0.40798 0.0
C707 C 0.06297 0.97131 0.51577 0.0
C708 C 0.07666 0.95454 0.52268 0.0
C709 C 0.09497 0.95099 0.51025 0.0
C710 C 0.07132 0.94188 0.54202 0.0
C711 C 0.08423 0.92592 0.54907 0.0
C712 C 0.10799 0.93552 0.51735 0.0
C713 C 0.10276 0.92314 0.53665 0.0
C714 C 0.10562 0.06991 0.51785 0.0
C715 C 0.04031 0.05637 0.4974 0.0
C716 C 0.06595 0.12065 0.54227 0.0
C717 C 0.06881 0.14611 0.55623 0.0
C718 C 0.07017 0.15174 0.58214 0.0
C719 C 0.07189 0.16535 0.543 0.0
C720 C 0.0768 0.19033 0.55533 0.0
C721 C 0.07487 0.17665 0.59461 0.0
C722 C 0.07841 0.19593 0.58131 0.0
C723 C 0.02636 0.02175 0.53894 0.0
H724 H 0.09926 0.96006 0.495 0.0
H725 H 0.0569 0.94416 0.55125 0.0
H726 H 0.12219 0.93308 0.50782 0.0
H727 H 0.11332 0.91145 0.54191 0.0
H728 H 0.06796 0.13703 0.59264 0.0
H729 H 0.07126 0.16084 0.52297 0.0
H730 H 0.07607 0.18103 0.61463 0.0
H731 H 0.08232 0.21511 0.59123 0.0
Gd732 Gd 0.29263 0.78041 0.78135 0.0
Gd733 Gd 0.33976 0.82361 0.76971 0.0
C734 C 0.33628 0.89516 0.74212 0.0
C735 C 0.34897 0.88721 0.70143 0.0
C736 C 0.34692 0.85631 0.72751 0.0
C737 C 0.33881 0.87146 0.7455 0.0
C738 C 0.35254 0.86423 0.70546 0.0
C739 C 0.34085 0.90266 0.71974 0.0
C740 C 0.33005 0.91098 0.76168 0.0
C741 C 0.32735 0.90342 0.7842 0.0
N742 N 0.33488 0.86378 0.76703 0.0
C743 C 0.33016 0.8798 0.78666 0.0
H744 H 0.3279 0.87426 0.80415 0.0
C745 C 0.36091 0.82025 0.71618 0.0
N746 N 0.35041 0.83437 0.73215 0.0
C747 C 0.36668 0.82726 0.69403 0.0
C748 C 0.36221 0.84918 0.68847 0.0
H749 H 0.3645 0.80325 0.72011 0.0
H750 H 0.33879 0.92067 0.71671 0.0
H751 H 0.30397 0.72987 0.74633 0.0
H752 H 0.3279 0.9293 0.75981 0.0
H753 H 0.32298 0.9157 0.79965 0.0
H754 H 0.353 0.89351 0.68452 0.0
H755 H 0.26677 0.79929 0.83021 0.0
H756 H 0.30691 0.67564 0.79111 0.0
H757 H 0.31008 0.68879 0.75086 0.0
H758 H 0.28188 0.71071 0.86674 0.0
H759 H 0.37455 0.81572 0.68124 0.0
H760 H 0.36676 0.8546 0.67133 0.0
H761 H 0.2967 0.68419 0.83456 0.0
H762 H 0.25687 0.78645 0.86909 0.0
N763 N 0.29845 0.74062 0.78396 0.0
C764 C 0.30435 0.69381 0.78928 0.0
C765 C 0.30606 0.70112 0.76652 0.0
C766 C 0.29828 0.70955 0.80904 0.0
C767 C 0.2952 0.73305 0.80566 0.0
C768 C 0.30263 0.72451 0.76405 0.0
N769 N 0.28249 0.76942 0.81892 0.0
C770 C 0.2868 0.74786 0.82369 0.0
C771 C 0.26542 0.7755 0.85657 0.0
C772 C 0.27092 0.75415 0.86243 0.0
C773 C 0.2711 0.78273 0.83448 0.0
C774 C 0.28137 0.73976 0.8457 0.0
H775 H 0.26644 0.74854 0.87951 0.0
O776 O 0.25826 0.78206 0.77776 0.0
O777 O 0.30306 0.81754 0.76961 0.0
O778 O 0.33125 0.83293 0.8091 0.0
O779 O 0.31229 0.79616 0.81841 0.0
O780 O 0.28046 0.81558 0.79479 0.0
O781 O 0.26893 0.7516 0.75559 0.0
O782 O 0.37391 0.82127 0.77393 0.0
O783 O 0.32935 0.78632 0.78136 0.0
O784 O 0.30053 0.77172 0.74147 0.0
O785 O 0.3194 0.80904 0.73308 0.0
O786 O 0.35136 0.78834 0.75551 0.0
O787 O 0.3633 0.8518 0.79619 0.0
C788 C 0.29102 0.83022 0.78201 0.0
C789 C 0.28572 0.71712 0.84983 0.0
C790 C 0.29418 0.70204 0.83152 0.0
C791 C 0.25226 0.76035 0.76308 0.0
C792 C 0.2339 0.74296 0.77035 0.0
C793 C 0.23656 0.7206 0.77698 0.0
C794 C 0.21351 0.74951 0.77168 0.0
C795 C 0.19578 0.734 0.77955 0.0
C796 C 0.219 0.70505 0.78475 0.0
C797 C 0.1987 0.71163 0.78601 0.0
C798 C 0.32364 0.81937 0.82524 0.0
C799 C 0.34112 0.77365 0.76844 0.0
C800 C 0.37988 0.84238 0.78959 0.0
C801 C 0.3996 0.85942 0.78473 0.0
C802 C 0.39858 0.88115 0.77582 0.0
C803 C 0.41996 0.85346 0.78901 0.0
C804 C 0.43938 0.86916 0.78491 0.0
C805 C 0.41787 0.89686 0.77164 0.0
C806 C 0.43824 0.89104 0.77633 0.0
C807 C 0.30791 0.78595 0.72573 0.0
H808 H 0.25215 0.71515 0.77627 0.0
H809 H 0.21143 0.76668 0.76636 0.0
H810 H 0.22116 0.68787 0.78989 0.0
H811 H 0.18536 0.69938 0.79225 0.0
H812 H 0.38299 0.88604 0.77223 0.0
H813 H 0.42071 0.83676 0.7961 0.0
H814 H 0.41706 0.91366 0.76488 0.0
H815 H 0.45304 0.90351 0.77319 0.0
Gd816 Gd 0.53202 0.05161 0.98605 0.0
Gd817 Gd 0.56417 0.04752 0.04387 0.0
C818 C 0.63898 0.06575 0.05732 0.0
C819 C 0.64671 0.02478 0.05612 0.0
C820 C 0.60903 0.02929 0.05025 0.0
C821 C 0.61635 0.0547 0.05235 0.0
C822 C 0.62409 1.01407 0.05248 0.0
C823 C 0.65415 0.05059 0.0586 0.0
C824 C 0.64564 0.09174 0.0616 0.0
C825 C 0.62984 0.10603 0.06141 0.0
N826 N 0.60125 0.06882 0.05115 0.0
C827 C 0.60758 0.09422 0.05634 0.0
H828 H 0.59552 0.10547 0.05621 0.0
C829 C 0.57898 0.9951 0.04765 0.0
N830 N 0.58707 0.01962 0.04717 0.0
C831 C 0.59327 0.97918 0.0495 0.0
C832 C 0.61593 0.98865 0.05168 0.0
H833 H 0.56146 0.98771 0.04592 0.0
H834 H 0.67161 0.05871 0.06208 0.0
H835 H 0.49986 0.99427 0.97755 0.0
H836 H 0.66286 0.10094 0.06547 0.0
H837 H 0.63479 0.12616 0.06503 0.0
H838 H 0.65856 1.01337 0.05769 0.0
H839 H 0.5355 0.11033 0.97841 0.0
H840 H 0.43279 1.00012 0.96934 0.0
H841 H 0.46032 0.97437 0.97112 0.0
H842 H 0.43848 0.08683 0.96947 0.0
H843 H 0.5868 0.95965 0.0493 0.0
H844 H 0.62697 0.97632 0.05327 0.0
H845 H 0.42479 0.04226 0.96916 0.0
H846 H 0.51064 0.13823 0.97263 0.0
N847 N 0.49477 0.031 0.97999 0.0
C848 C 0.45012 1.00896 0.97213 0.0
C849 C 0.46561 0.99435 0.97308 0.0
C850 C 0.45721 0.0347 0.97406 0.0
C851 C 0.47997 0.04526 0.97773 0.0
C852 C 0.488 1.00571 0.97677 0.0
N853 N 0.50967 0.07946 0.9801 0.0
C854 C 0.48765 0.07028 0.97781 0.0
C855 C 0.50396 0.11919 0.97418 0.0
C856 C 0.48128 0.11036 0.97296 0.0
C857 C 0.518 0.10331 0.97742 0.0
C858 C 0.47283 0.08553 0.9744 0.0
H859 H 0.47044 0.12267 0.97036 0.0
O860 O 0.5481 0.06029 0.95429 0.0
O861 O 0.56446 0.05793 1.00722 0.0
O862 O 0.55584 0.08551 0.04532 0.0
O863 O 0.52518 0.08047 0.01654 0.0
O864 O 0.56097 0.08358 0.98564 0.0
O865 O 0.52287 0.02635 0.95027 0.0
O866 O 0.55398 0.03457 0.07688 0.0
O867 O 0.5317 0.04186 0.02307 0.0
O868 O 0.54007 1.01359 0.98558 0.0
O869 O 0.57244 0.02157 0.01187 0.0
O870 O 0.5346 1.01625 0.04459 0.0
O871 O 0.56887 0.07374 0.07883 0.0
C872 C 0.57449 0.07715 1.00053 0.0
C873 C 0.45013 0.07536 0.97189 0.0
C874 C 0.44233 0.04999 0.97172 0.0
C875 C 0.53599 0.04102 0.93914 0.0
C876 C 0.52769 0.04598 0.91555 0.0
C877 C 0.5053 0.04355 0.90828 0.0
C878 C 0.54324 0.0542 0.9002 0.0
C879 C 0.53696 0.06025 0.87771 0.0
C880 C 0.49881 0.04907 0.88553 0.0
C881 C 0.51456 0.05729 0.87016 0.0
C882 C 0.53834 0.0927 0.03668 0.0
C883 C 0.52117 0.02313 0.03003 0.0
C884 C 0.56175 0.05639 0.09113 0.0
C885 C 0.57508 0.05661 0.11404 0.0
C886 C 0.59789 0.05894 0.11521 0.0
C887 C 0.56449 0.05421 0.1352 0.0
C888 C 0.57637 0.054 0.1576 0.0
C889 C 0.60988 0.05878 0.13741 0.0
C890 C 0.59921 0.05638 0.15859 0.0
C891 C 0.55909 1.00841 0.99231 0.0
H892 H 0.49297 0.03748 0.92008 0.0
H893 H 0.56051 0.05581 0.90585 0.0
H894 H 0.48155 0.04708 0.87985 0.0
H895 H 0.50933 0.06157 0.85268 0.0
H896 H 0.60644 0.061 0.09916 0.0
H897 H 0.54691 0.05295 0.13425 0.0
H898 H 0.62747 0.06058 0.13822 0.0
H899 H 0.60875 0.05625 0.17563 0.0
Gd900 Gd 0.29481 0.27134 0.26488 0.0
Gd901 Gd 0.33683 0.32824 0.29773 0.0
C902 C 0.39976 0.36388 0.26774 0.0
C903 C 0.42532 0.33944 0.27876 0.0
C904 C 0.38795 0.33098 0.29021 0.0
C905 C 0.38332 0.34955 0.27881 0.0
C906 C 0.40925 0.32616 0.29087 0.0
C907 C 0.42057 0.35824 0.26716 0.0
C908 C 0.39506 0.38404 0.2584 0.0
C909 C 0.3748 0.39025 0.26132 0.0
N910 N 0.36315 0.35467 0.27989 0.0
C911 C 0.35919 0.37567 0.2727 0.0
H912 H 0.34359 0.38074 0.27514 0.0
C913 C 0.37678 0.30155 0.31509 0.0
N914 N 0.3719 0.31823 0.30142 0.0
C915 C 0.3977 0.2964 0.3165 0.0
C916 C 0.41392 0.30848 0.30406 0.0
H917 H 0.36479 0.29165 0.32484 0.0
H918 H 0.43329 0.3688 0.25845 0.0
H919 H 0.28472 0.22064 0.29099 0.0
H920 H 0.40723 0.39546 0.24974 0.0
H921 H 0.37123 0.40631 0.25493 0.0
H922 H 0.44162 0.33568 0.27874 0.0
H923 H 0.27054 0.31115 0.23808 0.0
H924 H 0.22077 0.21196 0.31546 0.0
H925 H 0.25584 0.19852 0.31216 0.0
H926 H 0.19097 0.27293 0.28279 0.0
H927 H 0.40121 0.28289 0.32704 0.0
H928 H 0.43006 0.30429 0.30503 0.0
H929 H 0.19662 0.23946 0.30403 0.0
H930 H 0.23547 0.32307 0.23548 0.0
N931 N 0.26737 0.24837 0.28467 0.0
C932 C 0.23365 0.22218 0.30667 0.0
C933 C 0.2534 0.21456 0.30489 0.0
C934 C 0.23036 0.24212 0.29601 0.0
C935 C 0.24771 0.25493 0.28486 0.0
C936 C 0.26987 0.22746 0.29319 0.0
N937 N 0.26126 0.28484 0.26135 0.0
C938 C 0.24447 0.27353 0.27263 0.0
C939 C 0.23777 0.30913 0.24605 0.0
C940 C 0.2207 0.29821 0.25818 0.0
C941 C 0.2579 0.30212 0.24767 0.0
C942 C 0.22382 0.28004 0.27149 0.0
H943 H 0.20514 0.30374 0.25693 0.0
O944 O 0.28873 0.26148 0.22467 0.0
O945 O 0.32926 0.29262 0.27058 0.0
O946 O 0.32883 0.33386 0.25886 0.0
O947 O 0.30289 0.29792 0.23893 0.0
O948 O 0.32495 0.25455 0.26497 0.0
O949 O 0.28579 0.23263 0.24618 0.0
O950 O 0.34343 0.33685 0.33792 0.0
O951 O 0.30241 0.30685 0.29251 0.0
O952 O 0.30604 0.26336 0.30138 0.0
O953 O 0.33035 0.3 0.32267 0.0
O954 O 0.30685 0.34488 0.29603 0.0
O955 O 0.34084 0.36608 0.31792 0.0
C956 C 0.33935 0.27532 0.26814 0.0
C957 C 0.20681 0.26798 0.2833 0.0
C958 C 0.21005 0.24899 0.29545 0.0
C959 C 0.28702 0.23782 0.22421 0.0
C960 C 0.3013 0.22549 0.20832 0.0
C961 C 0.30302 0.2293 0.18405 0.0
C962 C 0.31426 0.21093 0.21781 0.0
C963 C 0.3297 0.20135 0.20395 0.0
C964 C 0.31779 0.21907 0.16976 0.0
C965 C 0.3312 0.20532 0.17966 0.0
C966 C 0.31555 0.32014 0.23941 0.0
C967 C 0.29249 0.32434 0.29443 0.0
C968 C 0.34093 0.3596 0.3394 0.0
C969 C 0.3244 0.36719 0.35533 0.0
C970 C 0.31992 0.35701 0.37639 0.0
C971 C 0.312 0.3837 0.34871 0.0
C972 C 0.295 0.38956 0.36235 0.0
C973 C 0.30291 0.36264 0.38999 0.0
C974 C 0.29034 0.37867 0.38292 0.0
C975 C 0.31905 0.27685 0.32101 0.0
H976 H 0.29318 0.24043 0.17628 0.0
H977 H 0.3126 0.20731 0.23627 0.0
H978 H 0.31914 0.22222 0.1511 0.0
H979 H 0.34303 0.19831 0.16854 0.0
H980 H 0.32937 0.34449 0.38215 0.0
H981 H 0.31516 0.3916 0.33243 0.0
H982 H 0.29941 0.3545 0.40603 0.0
H983 H 0.27729 0.38287 0.39374 0.0
Gd984 Gd 0.57377 0.52019 1.009 0.0
Gd985 Gd 0.56552 0.57748 0.04404 0.0
C986 C 0.57994 0.59862 0.12826 0.0
C987 C 0.54356 0.59847 0.14118 0.0
C988 C 0.54848 0.58909 0.09744 0.0
C989 C 0.57074 0.59187 0.10331 0.0
C990 C 0.53466 0.59285 0.11627 0.0
C991 C 0.56617 0.60133 0.14717 0.0
C992 C 0.60277 0.60324 0.13341 0.0
C993 C 0.61584 0.60204 0.1139 0.0
N994 N 0.58358 0.58941 0.08457 0.0
C995 C 0.60593 0.59545 0.08947 0.0
H996 H 0.61628 0.59455 0.07463 0.0
C997 C 0.51902 0.58363 0.06645 0.0
N998 N 0.54049 0.58389 0.07321 0.0
C999 C 0.50466 0.58718 0.08445 0.0
C1000 C 0.51245 0.59151 0.10948 0.0
H1001 H 0.51281 0.58012 0.04715 0.0
H1002 H 0.57291 0.60629 0.16644 0.0
H1003 H 0.52427 0.50549 0.97495 0.0
H1004 H 0.61048 0.6084 0.15231 0.0
H1005 H 0.63354 0.6061 0.11765 0.0
H1006 H 0.53319 0.60123 0.15593 0.0
H1007 H 0.62464 0.50818 1.00852 0.0
H1008 H 0.53508 0.497 0.89862 0.0
H1009 H 0.50973 0.49721 0.9311 0.0
H1010 H 0.612 0.49971 0.90023 0.0
H1011 H 0.48758 0.58649 0.079 0.0
H1012 H 0.5013 0.5943 0.12339 0.0
H1013 H 0.57341 0.49859 0.88733 0.0
H1014 H 0.65111 0.50164 0.97834 0.0
N1015 N 0.55781 0.51139 0.96773 0.0
C1016 C 0.54162 0.5008 0.91792 0.0
C1017 C 0.52726 0.50083 0.93619 0.0
C1018 C 0.56417 0.50441 0.92471 0.0
C1019 C 0.57186 0.50933 0.95011 0.0
C1020 C 0.53564 0.5057 0.96112 0.0
N1021 N 0.60004 0.51207 0.98185 0.0
C1022 C 0.59361 0.5097 0.95738 0.0
C1023 C 0.63509 0.50415 0.97223 0.0
C1024 C 0.62931 0.50342 0.94724 0.0
C1025 C 0.62003 0.50799 0.98933 0.0
C1026 C 0.60818 0.50556 0.93943 0.0
H1027 H 0.64096 0.50023 0.93402 0.0
O1028 O 0.57013 0.49199 0.03192 0.0
O1029 O 0.57743 0.543 0.04766 0.0
O1030 O 0.59973 0.58299 0.03197 0.0
O1031 O 0.60259 0.54863 1.00235 0.0
O1032 O 0.60284 0.52621 0.03797 0.0
O1033 O 0.56213 0.48094 0.99246 0.0
O1034 O 0.5525 0.60756 0.0336 0.0
O1035 O 0.56295 0.55547 1.00487 0.0
O1036 O 0.53879 0.51841 0.01762 0.0
O1037 O 0.54194 0.54599 0.05485 0.0
O1038 O 0.53698 0.57111 0.0144 0.0
O1039 O 0.58701 0.61398 0.04731 0.0
C1040 C 0.59605 0.53986 0.05603 0.0
C1041 C 0.60095 0.50258 0.91424 0.0
C1042 C 0.57898 0.50197 0.90689 0.0
C1043 C 0.56474 0.4735 0.01315 0.0
C1044 C 0.57617 0.45302 0.01312 0.0
C1045 C 0.59034 0.44756 0.99524 0.0
C1046 C 0.57261 0.4385 0.03129 0.0
C1047 C 0.58308 0.41863 0.0318 0.0
C1048 C 0.60091 0.42798 0.99572 0.0
C1049 C 0.59735 0.41358 0.01386 0.0
C1050 C 0.61002 0.57163 0.01484 0.0
C1051 C 0.54462 0.55905 0.99609 0.0
C1052 C 0.57138 0.62341 0.03887 0.0
C1053 C 0.57117 0.64918 0.04964 0.0
C1054 C 0.56635 0.65655 0.07389 0.0
C1055 C 0.57531 0.66663 0.03442 0.0
C1056 C 0.57421 0.69152 0.04281 0.0
C1057 C 0.56567 0.68143 0.08269 0.0
C1058 C 0.56952 0.69886 0.06727 0.0
C1059 C 0.53171 0.52548 0.03917 0.0
H1060 H 0.59318 0.45829 0.98085 0.0
H1061 H 0.56177 0.44286 0.04517 0.0
H1062 H 0.61178 0.42384 0.98188 0.0
H1063 H 0.60546 0.39824 0.0136 0.0
H1064 H 0.56306 0.64315 0.08584 0.0
H1065 H 0.57943 0.66066 0.01585 0.0
H1066 H 0.56193 0.68718 0.10142 0.0
H1067 H 0.56847 0.71788 0.07432 0.0
Gd1068 Gd 0.79846 0.28299 0.2849 0.0
Gd1069 Gd 0.84148 0.32336 0.26171 0.0
C1070 C 0.82742 0.38498 0.22364 0.0
C1071 C 0.83291 0.36964 0.18102 0.0
C1072 C 0.83885 0.3459 0.21269 0.0
C1073 C 0.8326 0.36349 0.23029 0.0
C1074 C 0.83959 0.34919 0.188 0.0
C1075 C 0.82688 0.38752 0.1988 0.0
C1076 C 0.82404 0.40391 0.24233 0.0
C1077 C 0.82702 0.40174 0.26701 0.0
N1078 N 0.83354 0.36078 0.25428 0.0
C1079 C 0.83222 0.38013 0.27269 0.0
H1080 H 0.83469 0.37884 0.29179 0.0
C1081 C 0.85497 0.31098 0.20406 0.0
N1082 N 0.84554 0.32644 0.22004 0.0
C1083 C 0.85584 0.31345 0.1794 0.0
C1084 C 0.84777 0.33235 0.17121 0.0
H1085 H 0.86146 0.29635 0.20992 0.0
H1086 H 0.82262 0.40372 0.19333 0.0
H1087 H 0.80619 0.22838 0.25471 0.0
H1088 H 0.82004 0.42069 0.23798 0.0
H1089 H 0.82525 0.41665 0.28169 0.0
H1090 H 0.83313 0.37228 0.16207 0.0
H1091 H 0.7813 0.31115 0.33706 0.0
H1092 H 0.81785 0.18408 0.30745 0.0
H1093 H 0.81432 0.18964 0.26406 0.0
H1094 H 0.80491 0.23206 0.38388 0.0
H1095 H 0.86278 0.30076 0.16671 0.0
H1096 H 0.84858 0.33426 0.1521 0.0
H1097 H 0.81468 0.20029 0.35224 0.0
H1098 H 0.77922 0.30645 0.38022 0.0
N1099 N 0.80587 0.24518 0.29238 0.0
C1100 C 0.81434 0.2012 0.30343 0.0
C1101 C 0.81227 0.20422 0.27893 0.0
C1102 C 0.81096 0.21989 0.32234 0.0
C1103 C 0.80645 0.24184 0.31609 0.0
C1104 C 0.80771 0.22629 0.27371 0.0
N1105 N 0.79504 0.27944 0.32657 0.0
C1106 C 0.80079 0.25952 0.33378 0.0
C1107 C 0.7854 0.29315 0.36738 0.0
C1108 C 0.79229 0.27342 0.37533 0.0
C1109 C 0.78661 0.29572 0.34276 0.0
C1110 C 0.79973 0.25604 0.35837 0.0
H1111 H 0.79125 0.27143 0.39439 0.0
O1112 O 0.76418 0.28483 0.28435 0.0
O1113 O 0.80592 0.31804 0.26869 0.0
O1114 O 0.83637 0.33883 0.30118 0.0
O1115 O 0.82344 0.30351 0.3169 0.0
O1116 O 0.78548 0.31804 0.29614 0.0
O1117 O 0.77296 0.2513 0.26586 0.0
O1118 O 0.87301 0.32332 0.281 0.0
O1119 O 0.83385 0.28819 0.27718 0.0
O1120 O 0.80123 0.26811 0.24434 0.0
O1121 O 0.81835 0.30203 0.22861 0.0
O1122 O 0.85338 0.28782 0.24873 0.0
O1123 O 0.86938 0.35451 0.26462 0.0
C1124 C 0.79431 0.33133 0.2812 0.0
C1125 C 0.80543 0.23494 0.36503 0.0
C1126 C 0.81102 0.21688 0.34703 0.0
C1127 C 0.7571 0.26187 0.27282 0.0
C1128 C 0.73908 0.24729 0.28333 0.0
C1129 C 0.74268 0.23099 0.2989 0.0
C1130 C 0.71785 0.25073 0.27832 0.0
C1131 C 0.70006 0.23806 0.28868 0.0
C1132 C 0.72507 0.21818 0.30919 0.0
C1133 C 0.70384 0.22161 0.30409 0.0
C1134 C 0.8329 0.32738 0.32 0.0
C1135 C 0.84468 0.27454 0.26389 0.0
C1136 C 0.88303 0.34349 0.27445 0.0
C1137 C 0.90324 0.34207 0.26247 0.0
C1138 C 0.90534 0.347 0.23856 0.0
C1139 C 0.92055 0.33515 0.27494 0.0
C1140 C 0.93981 0.33304 0.26373 0.0
C1141 C 0.92437 0.34491 0.22734 0.0
C1142 C 0.94152 0.33797 0.23978 0.0
C1143 C 0.8066 0.2791 0.22563 0.0
H1144 H 0.759 0.22822 0.30314 0.0
H1145 H 0.71518 0.26317 0.26606 0.0
H1146 H 0.72789 0.20562 0.3212 0.0
H1147 H 0.69045 0.21161 0.31236 0.0
H1148 H 0.89229 0.35239 0.22847 0.0
H1149 H 0.91906 0.33169 0.29351 0.0
H1150 H 0.92582 0.34862 0.20888 0.0
H1151 H 0.95603 0.33625 0.23056 0.0
Gd1152 Gd 0.05268 0.56696 0.50481 0.0
Gd1153 Gd 0.08165 0.55696 0.56232 0.0
C1154 C 0.15595 0.57168 0.58097 0.0
C1155 C 0.1618 0.52981 0.57897 0.0
C1156 C 0.125 0.53629 0.57073 0.0
C1157 C 0.13328 0.56167 0.57434 0.0
C1158 C 0.1391 0.52007 0.57337 0.0
C1159 C 0.1702 0.55558 0.58284 0.0
C1160 C 0.16354 0.59758 0.58604 0.0
C1161 C 0.14859 0.61279 0.58492 0.0
N1162 N 0.11904 0.57667 0.57241 0.0
C1163 C 0.12626 0.60198 0.57834 0.0
H1164 H 0.11496 0.61404 0.57764 0.0
C1165 C 0.09378 0.50299 0.56486 0.0
N1166 N 0.10299 0.52758 0.56585 0.0
C1167 C 0.10709 0.4861 0.56699 0.0
C1168 C 0.12988 0.49463 0.57102 0.0
H1169 H 0.07615 0.49636 0.56174 0.0
H1170 H 0.18768 0.56291 0.58772 0.0
H1171 H 0.01701 0.51138 0.49282 0.0
H1172 H 0.18082 0.60601 0.5912 0.0
H1173 H 0.15425 0.63285 0.58912 0.0
H1174 H 0.17292 0.51764 0.58093 0.0
H1175 H 0.06058 0.6259 0.49782 0.0
H1176 H 0.95197 0.5233 0.48313 0.0
H1177 H 0.97708 0.49465 0.48433 0.0
H1178 H 0.96394 0.61133 0.48741 0.0
H1179 H 0.09976 0.46655 0.5656 0.0
H1180 H 0.14015 0.48155 0.57286 0.0
H1181 H 0.94718 0.56702 0.48508 0.0
H1182 H 0.03859 0.65683 0.49231 0.0
N1183 N 0.01469 0.54931 0.49726 0.0
C1184 C 0.96952 0.53078 0.487 0.0
C1185 C 0.98364 0.51456 0.48757 0.0
C1186 C 0.97826 0.55641 0.49058 0.0
C1187 C 1.00124 0.56518 0.49543 0.0
C1188 C 1.00631 0.52416 0.49246 0.0
N1189 N 0.03282 0.59727 0.49947 0.0
C1190 C 1.01062 0.59 0.49665 0.0
C1191 C 0.0305 0.63814 0.49369 0.0
C1192 C 1.00762 0.63138 0.49228 0.0
C1193 C 0.0429 0.6206 0.49683 0.0
C1194 C 0.99737 0.6069 0.49321 0.0
H1195 H 0.99804 0.64494 0.48966 0.0
O1196 O 0.06874 0.57763 0.47361 0.0
O1197 O 0.08403 0.56849 0.52637 0.0
O1198 O 0.07641 0.59649 0.56581 0.0
O1199 O 0.04806 0.59677 0.53575 0.0
O1200 O 0.08423 0.59613 0.50629 0.0
O1201 O 0.04494 0.54242 0.46867 0.0
O1202 O 0.0709 0.54224 0.59431 0.0
O1203 O 0.05029 0.55539 0.54101 0.0
O1204 O 0.0567 0.52721 0.50252 0.0
O1205 O 0.08766 0.52983 0.52957 0.0
O1206 O 0.05048 0.52739 0.56058 0.0
O1207 O 0.08272 0.58221 0.59711 0.0
C1208 C 0.09603 0.58719 0.52082 0.0
C1209 C 0.97441 0.59858 0.48983 0.0
C1210 C 0.96487 0.57336 0.4885 0.0
C1211 C 0.0572 0.55832 0.45797 0.0
C1212 C 0.04763 0.56366 0.43515 0.0
C1213 C 0.02515 0.56283 0.4305 0.0
C1214 C 0.06184 0.57056 0.41795 0.0
C1215 C 0.05399 0.57666 0.39604 0.0
C1216 C 0.01712 0.56862 0.40853 0.0
C1217 C 0.03144 0.57539 0.39123 0.0
C1218 C 0.06092 0.60648 0.55672 0.0
C1219 C 0.03843 0.53667 0.5467 0.0
C1220 C 0.07572 0.56427 0.60872 0.0
C1221 C 0.08709 0.5666 0.63328 0.0
C1222 C 0.10806 0.56179 0.63673 0.0
C1223 C 0.07673 0.57486 0.65374 0.0
C1224 C 0.08708 0.57867 0.67787 0.0
C1225 C 0.11846 0.56527 0.66071 0.0
C1226 C 0.10806 0.57365 0.68124 0.0
C1227 C 0.0739 0.51877 0.50957 0.0
H1228 H 0.01388 0.55776 0.44372 0.0
H1229 H 0.07916 0.57091 0.42159 0.0
H1230 H 0.99977 0.56788 0.4049 0.0
H1231 H 0.02499 0.5798 0.37432 0.0
H1232 H 0.11632 0.55546 0.62103 0.0
H1233 H 0.06034 0.57807 0.65075 0.0
H1234 H 0.13465 0.56155 0.66338 0.0
H1235 H 0.11644 0.57638 0.69965 0.0
Gd1236 Gd 0.84591 0.79737 0.28729 0.0
Gd1237 Gd 0.79209 0.81069 0.26935 0.0
C1238 C 0.76694 0.80515 0.18842 0.0
C1239 C 0.7681 0.84846 0.18672 0.0
C1240 C 0.77878 0.83706 0.22543 0.0
C1241 C 0.77497 0.81241 0.21374 0.0
C1242 C 0.77482 0.85532 0.21225 0.0
C1243 C 0.76416 0.82339 0.17481 0.0
C1244 C 0.76112 0.77974 0.17781 0.0
C1245 C 0.76243 0.76231 0.19267 0.0
N1246 N 0.77756 0.79531 0.22757 0.0
C1247 C 0.7704 0.77046 0.21771 0.0
H1248 H 0.77139 0.75668 0.2288 0.0
C1249 C 0.78569 0.86633 0.26323 0.0
N1250 N 0.78489 0.84289 0.25013 0.0
C1251 C 0.78212 0.88517 0.25098 0.0
C1252 C 0.77699 0.87973 0.22531 0.0
H1253 H 0.78985 0.87068 0.28306 0.0
H1254 H 0.75828 0.81821 0.15528 0.0
H1255 H 0.86457 0.85073 0.3293 0.0
H1256 H 0.75495 0.77338 0.15842 0.0
H1257 H 0.75743 0.74259 0.18481 0.0
H1258 H 0.76521 0.86226 0.1762 0.0
H1259 H 0.85085 0.73851 0.27178 0.0
H1260 H 0.88311 0.83281 0.39843 0.0
H1261 H 0.87865 0.86411 0.37328 0.0
H1262 H 0.87661 0.74453 0.37794 0.0
H1263 H 0.78337 0.90386 0.26134 0.0
H1264 H 0.77411 0.89432 0.21587 0.0
H1265 H 0.8818 0.78797 0.40013 0.0
H1266 H 0.85957 0.70531 0.29205 0.0
N1267 N 0.86013 0.81196 0.3293 0.0
C1268 C 0.87683 0.82677 0.37905 0.0
C1269 C 0.87441 0.84448 0.3649 0.0
C1270 C 0.87191 0.80153 0.36776 0.0
C1271 C 0.8637 0.79468 0.34247 0.0
C1272 C 0.86637 0.83674 0.33984 0.0
N1273 N 0.85452 0.76509 0.30544 0.0
C1274 C 0.86074 0.77037 0.33011 0.0
C1275 C 0.85982 0.72349 0.30303 0.0
C1276 C 0.86496 0.72822 0.32867 0.0
C1277 C 0.85492 0.74234 0.2916 0.0
C1278 C 0.86592 0.75205 0.3425 0.0
H1279 H 0.86885 0.71364 0.33748 0.0
O1280 O 0.86955 0.78626 0.26284 0.0
O1281 O 0.82217 0.79992 0.25671 0.0
O1282 O 0.78885 0.76918 0.27034 0.0
O1283 O 0.81972 0.76431 0.29364 0.0
O1284 O 0.83727 0.77009 0.25091 0.0
O1285 O 0.87766 0.82223 0.28736 0.0
O1286 O 0.7681 0.82404 0.29193 0.0
O1287 O 0.81561 0.80787 0.30014 0.0
O1288 O 0.84866 0.83916 0.28709 0.0
O1289 O 0.81874 0.84186 0.26104 0.0
O1290 O 0.8008 0.83799 0.30561 0.0
O1291 O 0.76055 0.78628 0.27086 0.0
C1292 C 0.8237 0.78097 0.24119 0.0
C1293 C 0.87281 0.7584 0.36801 0.0
C1294 C 0.87578 0.78313 0.38064 0.0
C1295 C 0.88458 0.80648 0.27108 0.0
C1296 C 0.90702 0.80312 0.27658 0.0
C1297 C 0.91255 0.79428 0.29775 0.0
C1298 C 0.92295 0.80834 0.26023 0.0
C1299 C 0.94437 0.80452 0.26484 0.0
C1300 C 0.9336 0.79043 0.30248 0.0
C1301 C 0.94934 0.79536 0.28618 0.0
C1302 C 0.79925 0.75569 0.28257 0.0
C1303 C 0.81394 0.8268 0.31565 0.0
C1304 C 0.75333 0.8033 0.2853 0.0
C1305 C 0.73076 0.80551 0.27855 0.0
C1306 C 0.72479 0.8104 0.25536 0.0
C1307 C 0.71499 0.8026 0.29547 0.0
C1308 C 0.69322 0.80449 0.2893 0.0
C1309 C 0.70333 0.81225 0.24906 0.0
C1310 C 0.68765 0.80928 0.2658 0.0
C1311 C 0.83856 0.85161 0.27327 0.0
H1312 H 0.90058 0.79023 0.31053 0.0
H1313 H 0.91862 0.81549 0.24407 0.0
H1314 H 0.93769 0.78338 0.31877 0.0
H1315 H 0.96532 0.79154 0.29016 0.0
H1316 H 0.73668 0.81268 0.24212 0.0
H1317 H 0.71979 0.79915 0.3135 0.0
H1318 H 0.69878 0.81588 0.23106 0.0
H1319 H 0.67106 0.81041 0.26014 0.0
Gd1320 Gd 0.81308 0.33266 0.80423 0.0
Gd1321 Gd 0.82396 0.28944 0.75077 0.0
C1322 C 0.81572 0.20606 0.74751 0.0
C1323 C 0.85346 0.20142 0.74963 0.0
C1324 C 0.84544 0.24227 0.75031 0.0
C1325 C 0.82317 0.23201 0.74952 0.0
C1326 C 0.86074 0.22689 0.74969 0.0
C1327 C 0.83099 0.19101 0.74849 0.0
C1328 C 0.79315 0.19576 0.74305 0.0
C1329 C 0.77869 0.21105 0.73972 0.0
N1330 N 0.80871 0.24691 0.74818 0.0
C1331 C 0.78681 0.23667 0.74205 0.0
H1332 H 0.77544 0.24812 0.73896 0.0
C1333 C 0.87333 0.27679 0.74679 0.0
N1334 N 0.852 0.26694 0.74997 0.0
C1335 C 0.88906 0.26231 0.74635 0.0
C1336 C 0.88281 0.23736 0.74819 0.0
H1337 H 0.8785 0.29591 0.74502 0.0
H1338 H 0.82554 0.17113 0.74736 0.0
H1339 H 0.87138 0.34508 0.81079 0.0
H1340 H 0.78681 0.17589 0.74104 0.0
H1341 H 0.76126 0.20312 0.73534 0.0
H1342 H 0.86501 0.18942 0.74948 0.0
H1343 H 0.7736 0.36217 0.79042 0.0
H1344 H 0.89553 0.41974 0.84783 0.0
H1345 H 0.90152 0.37792 0.83173 0.0
H1346 H 0.83389 0.45629 0.83967 0.0
H1347 H 0.90598 0.27039 0.74447 0.0
H1348 H 0.89503 0.22616 0.74768 0.0
H1349 H 0.87029 0.44881 0.85036 0.0
H1350 H 0.7667 0.40402 0.79741 0.0
N1351 N 0.84603 0.36503 0.8191 0.0
C1352 C 0.88163 0.40466 0.83985 0.0
C1353 C 0.88504 0.3811 0.83096 0.0
C1354 C 0.86059 0.40893 0.83646 0.0
C1355 C 0.84297 0.3886 0.82581 0.0
C1356 C 0.86726 0.36181 0.81993 0.0
N1357 N 0.80682 0.37346 0.80725 0.0
C1358 C 0.82272 0.39295 0.81948 0.0
C1359 C 0.78259 0.40126 0.80365 0.0
C1360 C 0.79885 0.42141 0.81611 0.0
C1361 C 0.7868 0.37739 0.79951 0.0
C1362 C 0.81924 0.41748 0.82407 0.0
H1363 H 0.79558 0.43993 0.81926 0.0
O1364 O 0.77848 0.32719 0.80799 0.0
O1365 O 0.80374 0.29391 0.78193 0.0
O1366 O 0.78823 0.29251 0.74846 0.0
O1367 O 0.79336 0.33352 0.76786 0.0
O1368 O 0.81011 0.29798 0.82011 0.0
O1369 O 0.80165 0.33887 0.84098 0.0
O1370 O 0.82309 0.30677 0.71867 0.0
O1371 O 0.82577 0.32853 0.76824 0.0
O1372 O 0.84152 0.31693 0.81832 0.0
O1373 O 0.84803 0.2888 0.78365 0.0
O1374 O 0.85306 0.32167 0.75151 0.0
O1375 O 0.81668 0.26687 0.7135 0.0
C1376 C 0.8037 0.28228 0.79948 0.0
C1377 C 0.83632 0.43741 0.83589 0.0
C1378 C 0.85699 0.43314 0.84208 0.0
C1379 C 0.78099 0.33153 0.83201 0.0
C1380 C 0.76612 0.31317 0.84276 0.0
C1381 C 0.74342 0.31046 0.83727 0.0
C1382 C 0.77375 0.29661 0.85575 0.0
C1383 C 0.75874 0.27681 0.86194 0.0
C1384 C 0.72854 0.2911 0.84384 0.0
C1385 C 0.73614 0.27415 0.85584 0.0
C1386 C 0.78187 0.31392 0.75155 0.0
C1387 C 0.84445 0.33861 0.76357 0.0
C1388 C 0.82007 0.28594 0.70288 0.0
C1389 C 0.83439 0.28576 0.68284 0.0
C1390 C 0.84828 0.26902 0.6786 0.0
C1391 C 0.83418 0.30327 0.66779 0.0
C1392 C 0.84774 0.30447 0.64864 0.0
C1393 C 0.86161 0.26984 0.65927 0.0
C1394 C 0.86133 0.28743 0.64425 0.0
C1395 C 0.8524 0.30041 0.80734 0.0
H1396 H 0.73721 0.32295 0.8272 0.0
H1397 H 0.79119 0.29847 0.86026 0.0
H1398 H 0.71108 0.289 0.83925 0.0
H1399 H 0.72436 0.25904 0.86056 0.0
H1400 H 0.84886 0.25541 0.69014 0.0
H1401 H 0.82326 0.316 0.67096 0.0
H1402 H 0.87227 0.2569 0.65599 0.0
H1403 H 0.8719 0.28797 0.62951 0.0
Gd1404 Gd 0.7972 0.78668 0.77251 0.0
Gd1405 Gd 0.84618 0.8368 0.79618 0.0
C1406 C 0.91565 0.82346 0.79504 0.0
C1407 C 0.92654 0.82601 0.83858 0.0
C1408 C 0.89044 0.83183 0.82527 0.0
C1409 C 0.89476 0.82712 0.80076 0.0
C1410 C 0.90662 0.83217 0.84446 0.0
C1411 C 0.93112 0.82183 0.81391 0.0
C1412 C 0.92097 0.82324 0.77083 0.0
C1413 C 0.90579 0.82693 0.7531 0.0
N1414 N 0.87959 0.82909 0.78289 0.0
C1415 C 0.88519 0.8301 0.7595 0.0
H1416 H 0.87406 0.83355 0.74553 0.0
C1417 C 0.8689 0.84927 0.85418 0.0
N1418 N 0.87144 0.83877 0.83045 0.0
C1419 C 0.88423 0.84946 0.87382 0.0
C1420 C 0.90292 0.84028 0.86899 0.0
H1421 H 0.85469 0.8568 0.85813 0.0
H1422 H 0.94705 0.81852 0.80974 0.0
H1423 H 0.7928 0.79095 0.83762 0.0
H1424 H 0.93707 0.82134 0.7659 0.0
H1425 H 0.90999 0.82749 0.73449 0.0
H1426 H 0.93902 0.82583 0.85306 0.0
H1427 H 0.76816 0.80149 0.726 0.0
H1428 H 0.72711 0.75886 0.84576 0.0
H1429 H 0.76587 0.7744 0.86292 0.0
H1430 H 0.68833 0.76425 0.77058 0.0
H1431 H 0.88169 0.85687 0.89264 0.0
H1432 H 0.91494 0.84079 0.88422 0.0
H1433 H 0.69826 0.75595 0.8115 0.0
H1434 H 0.73015 0.7976 0.71017 0.0
N1435 N 0.77165 0.78016 0.80338 0.0
C1436 C 0.73935 0.76485 0.83382 0.0
C1437 C 0.76118 0.77342 0.8435 0.0
C1438 C 0.73334 0.76648 0.80956 0.0
C1439 C 0.75001 0.77431 0.79468 0.0
C1440 C 0.77689 0.78183 0.82833 0.0
N1441 N 0.76078 0.78863 0.7592 0.0
C1442 C 0.74438 0.77913 0.77192 0.0
C1443 C 0.73386 0.79245 0.72768 0.0
C1444 C 0.71694 0.78276 0.74066 0.0
C1445 C 0.75565 0.79502 0.7371 0.0
C1446 C 0.72204 0.77604 0.7631 0.0
H1447 H 0.70004 0.78073 0.73331 0.0
O1448 O 0.79612 0.77517 0.73282 0.0
O1449 O 0.83313 0.80067 0.77026 0.0
O1450 O 0.83828 0.83171 0.75497 0.0
O1451 O 0.80067 0.81951 0.75261 0.0
O1452 O 0.82277 0.7638 0.77402 0.0
O1453 O 0.78268 0.74823 0.75438 0.0
O1454 O 0.83702 0.87174 0.79347 0.0
O1455 O 0.80981 0.82563 0.79153 0.0
O1456 O 0.81256 0.77664 0.80675 0.0
O1457 O 0.84292 0.81001 0.82283 0.0
O1458 O 0.82429 0.84687 0.82574 0.0
O1459 O 0.87111 0.87064 0.79786 0.0
C1460 C 0.83931 0.78071 0.77111 0.0
C1461 C 0.70551 0.76692 0.77716 0.0
C1462 C 0.71116 0.76206 0.80036 0.0
C1463 C 0.78821 0.75182 0.73272 0.0
C1464 C 0.80017 0.73466 0.71896 0.0
C1465 C 0.80274 0.73515 0.69399 0.0
C1466 C 0.81112 0.71994 0.73103 0.0
C1467 C 0.82555 0.70701 0.71883 0.0
C1468 C 0.81654 0.72167 0.68151 0.0
C1469 C 0.82815 0.70792 0.69393 0.0
C1470 C 0.81866 0.82977 0.74359 0.0
C1471 C 0.80595 0.83586 0.81251 0.0
C1472 C 0.85706 0.8847 0.79811 0.0
C1473 C 0.86094 0.90708 0.81791 0.0
C1474 C 0.8766 0.91105 0.83852 0.0
C1475 C 0.84798 0.92442 0.81645 0.0
C1476 C 0.85021 0.94551 0.83537 0.0
C1477 C 0.87894 0.93203 0.85743 0.0
C1478 C 0.86573 0.94916 0.85599 0.0
C1479 C 0.82947 0.78848 0.82362 0.0
H1480 H 0.79451 0.7465 0.68435 0.0
H1481 H 0.80929 0.71945 0.75031 0.0
H1482 H 0.8186 0.72232 0.66233 0.0
H1483 H 0.8391 0.69797 0.68409 0.0
H1484 H 0.88687 0.89794 0.84015 0.0
H1485 H 0.83566 0.92108 0.80074 0.0
H1486 H 0.89095 0.93496 0.8733 0.0
H1487 H 0.86776 0.96528 0.87082 0.0
Gd1488 Gd 0.59113 0.57961 0.54378 0.0
Gd1489 Gd 0.54193 0.53432 0.5133 0.0
C1490 C 0.53277 0.44988 0.50578 0.0
C1491 C 0.53187 0.43595 0.46136 0.0
C1492 C 0.53571 0.47989 0.47904 0.0
C1493 C 0.53561 0.47472 0.50247 0.0
C1494 C 0.5332 0.4605 0.45811 0.0
C1495 C 0.53164 0.43064 0.48519 0.0
C1496 C 0.53008 0.445 0.52947 0.0
C1497 C 0.52915 0.46447 0.54881 0.0
N1498 N 0.53635 0.49373 0.52182 0.0
C1499 C 0.53192 0.48874 0.54453 0.0
H1500 H 0.53118 0.50349 0.55975 0.0
C1501 C 0.53323 0.50913 0.45367 0.0
N1502 N 0.53657 0.50371 0.47662 0.0
C1503 C 0.53085 0.4906 0.43235 0.0
C1504 C 0.53121 0.46623 0.43456 0.0
H1505 H 0.53304 0.52792 0.45173 0.0
H1506 H 0.52976 0.4115 0.4874 0.0
H1507 H 0.60149 0.60782 0.49542 0.0
H1508 H 0.52788 0.42621 0.53281 0.0
H1509 H 0.5264 0.46083 0.56708 0.0
H1510 H 0.5302 0.42083 0.44554 0.0
H1511 H 0.59887 0.58885 0.60551 0.0
H1512 H 0.60496 0.68562 0.51879 0.0
H1513 H 0.60644 0.64968 0.48603 0.0
H1514 H 0.60171 0.69514 0.60629 0.0
H1515 H 0.52879 0.49513 0.41424 0.0
H1516 H 0.52926 0.45188 0.41802 0.0
H1517 H 0.60266 0.70236 0.56369 0.0
H1518 H 0.60273 0.62313 0.64173 0.0
N1519 N 0.59636 0.61933 0.53314 0.0
C1520 C 0.60273 0.66719 0.52307 0.0
C1521 C 0.60365 0.64697 0.50457 0.0
C1522 C 0.59985 0.66351 0.54712 0.0
C1523 C 0.59695 0.63909 0.55166 0.0
C1524 C 0.6008 0.62314 0.51005 0.0
N1525 N 0.59563 0.61166 0.57917 0.0
C1526 C 0.59652 0.63509 0.57551 0.0
C1527 C 0.60088 0.62675 0.6232 0.0
C1528 C 0.60052 0.65074 0.61969 0.0
C1529 C 0.59875 0.6074 0.60264 0.0
C1530 C 0.5988 0.65528 0.59563 0.0
H1531 H 0.60229 0.66574 0.63564 0.0
O1532 O 0.62061 0.57602 0.56453 0.0
O1533 O 0.57473 0.53911 0.53384 0.0
O1534 O 0.53899 0.54619 0.55528 0.0
O1535 O 0.56378 0.58428 0.56905 0.0
O1536 O 0.5912 0.55218 0.56898 0.0
O1537 O 0.62206 0.58464 0.52787 0.0
O1538 O 0.5133 0.54304 0.49556 0.0
O1539 O 0.55826 0.57482 0.52389 0.0
O1540 O 0.59462 0.56617 0.50206 0.0
O1541 O 0.56894 0.52874 0.48789 0.0
O1542 O 0.54278 0.56226 0.48836 0.0
O1543 O 0.51044 0.52627 0.52793 0.0
C1544 C 0.58003 0.53267 0.55393 0.0
C1545 C 0.60021 0.67942 0.59111 0.0
C1546 C 0.60075 0.68353 0.56686 0.0
C1547 C 0.63307 0.58176 0.54756 0.0
C1548 C 0.65406 0.5995 0.55602 0.0
C1549 C 0.65615 0.62534 0.55904 0.0
C1550 C 0.6726 0.59 0.56019 0.0
C1551 C 0.6934 0.60596 0.56669 0.0
C1552 C 0.67686 0.64141 0.56574 0.0
C1553 C 0.69551 0.63178 0.56928 0.0
C1554 C 0.54653 0.56708 0.57224 0.0
C1555 C 0.55346 0.58168 0.50394 0.0
C1556 C 0.50031 0.5344 0.51087 0.0
C1557 C 0.47834 0.52018 0.50023 0.0
C1558 C 0.4732 0.49412 0.49328 0.0
C1559 C 0.46206 0.53347 0.49729 0.0
C1560 C 0.44051 0.52108 0.48771 0.0
C1561 C 0.45172 0.48158 0.48377 0.0
C1562 C 0.43537 0.49493 0.48113 0.0
C1563 C 0.58671 0.5454 0.48499 0.0
H1564 H 0.64195 0.63302 0.55591 0.0
H1565 H 0.67093 0.56999 0.55751 0.0
H1566 H 0.6785 0.66133 0.56786 0.0
H1567 H 0.71149 0.64437 0.57404 0.0
H1568 H 0.48568 0.48359 0.49533 0.0
H1569 H 0.46615 0.55361 0.50298 0.0
H1570 H 0.44771 0.46145 0.4785 0.0
H1571 H 0.41884 0.4849 0.47375 0.0
Gd1572 Gd 0.0459 0.54597 0.05301 0.0
Gd1573 Gd 0.09917 0.5648 0.02868 0.0
C1574 C 0.13324 0.64594 0.03157 0.0
C1575 C 0.13185 0.64806 0.98795 0.0
C1576 C 0.11667 0.60915 1.00055 0.0
C1577 C 0.12231 0.6206 0.02509 0.0
C1578 C 0.1218 0.62257 0.98164 0.0
C1579 C 0.13754 0.65974 0.01289 0.0
C1580 C 0.13993 0.65647 0.05657 0.0
C1581 C 0.13628 0.64159 0.07426 0.0
N1582 N 0.11797 0.60666 0.0426 0.0
C1583 C 0.1255 0.61651 0.06689 0.0
H1584 H 0.12276 0.60532 0.08082 0.0
C1585 C 0.1036 0.57167 0.9712 0.0
N1586 N 0.10715 0.5845 0.99516 0.0
C1587 C 0.10833 0.58415 0.95176 0.0
C1588 C 0.11721 0.60979 0.95699 0.0
H1589 H 0.09658 0.55188 0.96705 0.0
H1590 H 0.1457 0.67929 0.01752 0.0
H1591 H 0.01989 0.50544 1.00188 0.0
H1592 H 0.14829 0.67589 0.06233 0.0
H1593 H 0.14171 0.64944 0.09361 0.0
H1594 H 0.13575 0.65876 0.9737 0.0
H1595 H 0.05259 0.55927 0.11487 0.0
H1596 H 0.99361 0.43592 0.02208 0.0
H1597 H 0.9996 0.46175 0.9902 0.0
H1598 H 1.01057 0.45351 0.11027 0.0
H1599 H 0.10506 0.57401 0.93279 0.0
H1600 H 0.12091 0.61941 0.94191 0.0
H1601 H 0.99801 0.43294 0.0669 0.0
H1602 H 0.04581 0.53748 0.14967 0.0
N1603 N 0.02598 0.50449 0.04005 0.0
C1604 C 1.00256 0.45516 0.02736 0.0
C1605 C 1.00588 0.46969 1.00932 0.0
C1606 C 1.01045 0.4658 0.05207 0.0
C1607 C 0.02208 0.4909 0.05793 0.0
C1608 C 0.01744 0.49453 0.01607 0.0
N1609 N 0.03942 0.52685 0.08718 0.0
C1610 C 0.02908 0.50243 0.08227 0.0
C1611 C 0.04107 0.52738 0.1308 0.0
C1612 C 0.03119 0.50199 0.12601 0.0
C1613 C 0.04482 0.53968 0.11107 0.0
C1614 C 0.02478 0.48925 0.10152 0.0
H1615 H 0.02823 0.49253 0.14133 0.0
O1616 O 0.02444 0.56715 0.07207 0.0
O1617 O 0.07185 0.57741 0.04705 0.0
O1618 O 0.10209 0.56257 0.06947 0.0
O1619 O 0.07156 0.53279 0.0741 0.0
O1620 O 0.05869 0.58287 0.08007 0.0
O1621 O 0.01513 0.5478 0.03386 0.0
O1622 O 0.12085 0.54336 1.01044 0.0
O1623 O 0.0728 0.53336 0.03372 0.0
O1624 O 0.04241 0.54729 0.01223 0.0
O1625 O 0.07328 0.57553 1.0052 0.0
O1626 O 0.08687 0.52822 1.00117 0.0
O1627 O 0.12988 0.56351 0.04838 0.0
C1628 C 0.07224 0.59331 0.06652 0.0
C1629 C 0.01389 0.46401 0.09575 0.0
C1630 C 1.00674 0.4523 0.07107 0.0
C1631 C 1.00944 0.56125 0.05314 0.0
C1632 C 0.98656 0.55402 0.05825 0.0
C1633 C 0.97931 0.53339 0.06904 0.0
C1634 C 0.97173 0.5681 0.05198 0.0
C1635 C 0.94959 0.56179 0.05643 0.0
C1636 C 0.95736 0.52698 0.07356 0.0
C1637 C 0.94256 0.54106 0.06735 0.0
C1638 C 0.09218 0.54496 0.08066 0.0
C1639 C 0.07262 0.51777 0.01402 0.0
C1640 C 0.13582 0.5499 0.02938 0.0
C1641 C 0.1586 0.55759 0.0241 0.0
C1642 C 0.1663 0.58052 0.0173 0.0
C1643 C 0.17292 0.54173 0.0263 0.0
C1644 C 0.195 0.54862 0.02186 0.0
C1645 C 0.18821 0.58754 0.01285 0.0
C1646 C 0.20253 0.57175 0.01516 0.0
C1647 C 0.05244 0.56358 0.99967 0.0
H1648 H 0.99055 0.52232 0.07395 0.0
H1649 H 0.97756 0.58421 0.04392 0.0
H1650 H 0.95179 0.51101 0.08186 0.0
H1651 H 0.92559 0.53556 0.07081 0.0
H1652 H 0.15548 0.59298 0.01552 0.0
H1653 H 0.16691 0.52416 0.03189 0.0
H1654 H 0.19411 0.60526 1.0076 0.0
H1655 H 0.21941 0.57749 0.01144 0.0
H1656 H 0.04685 0.23891 0.01184 0.0
H1657 H 0.03765 0.20469 0.93425 0.0
H1658 H 0.05214 0.1998 0.02242 0.0
H1659 H 0.0432 0.16559 0.94489 0.0
H1660 H 0.07749 0.10795 0.97269 0.0
H1661 H 0.07337 0.14804 0.96313 0.0
H1662 H 0.03046 0.15582 0.02067 0.0
H1663 H 0.03433 0.1155 0.02974 0.0
C1664 C 0.04586 0.22304 0.99698 0.0
C1665 C 0.04171 0.22513 0.97212 0.0
C1666 C 0.04886 0.20053 1.0031 0.0
C1667 C 0.04819 0.17941 0.98456 0.0
C1668 C 0.04406 0.18146 0.95969 0.0
C1669 C 0.04068 0.20389 0.95358 0.0
C1670 C 0.06754 0.11852 0.9836 0.0
C1671 C 0.05704 0.10909 1.00273 0.0
C1672 C 0.06497 0.14137 0.97796 0.0
C1673 C 0.05162 0.15537 0.99115 0.0
C1674 C 0.04113 0.14586 1.01034 0.0
C1675 C 0.04353 0.12286 0.01576 0.0
H1676 H 0.14733 0.77663 0.17676 0.0
H1677 H 0.1758 0.85071 0.16636 0.0
H1678 H 0.18212 0.77443 0.19751 0.0
H1679 H 0.21094 0.84838 0.18705 0.0
H1680 H 0.26245 0.84477 0.24977 0.0
H1681 H 0.22837 0.84761 0.22775 0.0
H1682 H 0.21911 0.77103 0.18999 0.0
H1683 H 0.25302 0.76802 0.21242 0.0
C1684 C 0.16103 0.7925 0.17883 0.0
C1685 C 0.15862 0.8139 0.16985 0.0
C1686 C 0.18112 0.79113 0.19063 0.0
C1687 C 0.19951 0.81116 0.19396 0.0
C1688 C 0.19713 0.83265 0.18505 0.0
C1689 C 0.17698 0.83397 0.17307 0.0
C1690 C 0.25328 0.82852 0.23671 0.0
C1691 C 0.26078 0.80621 0.23279 0.0
C1692 C 0.2337 0.83022 0.22391 0.0
C1693 C 0.22088 0.80961 0.20695 0.0
C1694 C 0.22838 0.78728 0.20303 0.0
C1695 C 0.24802 0.78561 0.21575 0.0
H1696 H 0.56064 0.86272 0.44503 0.0
H1697 H 0.52442 0.85736 0.50846 0.0
H1698 H 0.5683 0.90796 0.45646 0.0
H1699 H 0.53182 0.90288 0.51971 0.0
H1700 H 0.56939 0.98653 0.54394 0.0
H1701 H 0.56077 0.94083 0.53479 0.0
H1702 H 0.5493 0.94119 0.4569 0.0
H1703 H 0.55805 0.98665 0.46617 0.0
C1704 C 0.55432 0.87115 0.46147 0.0
C1705 C 0.54184 0.85621 0.47574 0.0
C1706 C 0.55858 0.89721 0.46795 0.0
C1707 C 0.5505 0.90925 0.48891 0.0
C1708 C 0.53844 0.89434 0.50354 0.0
C1709 C 0.53414 0.86819 0.49703 0.0
C1710 C 0.56458 0.97677 0.52496 0.0
C1711 C 0.56391 0.99015 0.5058 0.0
C1712 C 0.55974 0.95056 0.51966 0.0
C1713 C 0.55447 0.93715 0.49504 0.0
C1714 C 0.55361 0.95073 0.47603 0.0
C1715 C 0.55843 0.97682 0.48133 0.0
H1716 H 0.56543 0.32807 0.69801 0.0
H1717 H 0.51677 0.33124 0.64026 0.0
H1718 H 0.53719 0.32381 0.72637 0.0
H1719 H 0.48871 0.32769 0.66869 0.0
H1720 H 0.43954 0.29254 0.71731 0.0
H1721 H 0.46775 0.2984 0.68915 0.0
H1722 H 0.51346 0.34497 0.7497 0.0
H1723 H 0.48533 0.3388 0.77784 0.0
C1724 C 0.54876 0.32813 0.69143 0.0
C1725 C 0.54342 0.32992 0.66679 0.0
C1726 C 0.53253 0.3258 0.70774 0.0
C1727 C 0.51052 0.32529 0.6999 0.0
C1728 C 0.50533 0.32753 0.67535 0.0
C1729 C 0.52151 0.32976 0.65905 0.0
C1730 C 0.45554 0.30425 0.72456 0.0
C1731 C 0.46014 0.31509 0.7499 0.0
C1732 C 0.47177 0.30765 0.70839 0.0
C1733 C 0.49304 0.32212 0.71707 0.0
C1734 C 0.49748 0.3333 0.74236 0.0
C1735 C 0.48129 0.32981 0.75852 0.0
H1736 H 0.02662 0.85527 0.66628 0.0
H1737 H 0.08849 0.83362 0.65756 0.0
H1738 H 0.03389 0.88079 0.63481 0.0
H1739 H 0.09565 0.85899 0.62638 0.0
H1740 H 0.08627 0.87785 0.55006 0.0
H1741 H 0.07852 0.85525 0.58329 0.0
H1742 H 0.06048 0.91902 0.62641 0.0
H1743 H 0.06872 0.94205 0.59322 0.0
C1744 C 0.04183 0.85614 0.65787 0.0
C1745 C 0.0569 0.84228 0.66432 0.0
C1746 C 0.04601 0.8708 0.63992 0.0
C1747 C 0.06522 0.87164 0.62796 0.0
C1748 C 0.08053 0.85838 0.63499 0.0
C1749 C 0.07646 0.84394 0.65298 0.0
C1750 C 0.08089 0.88723 0.5667 0.0
C1751 C 0.07839 0.9119 0.56905 0.0
C1752 C 0.07639 0.87422 0.58572 0.0
C1753 C 0.06911 0.88546 0.60755 0.0
C1754 C 0.06598 0.90987 0.60973 0.0
C1755 C 0.07066 0.92301 0.5907 0.0
H1756 H 0.53792 0.84203 0.88033 0.0
H1757 H 0.55707 0.80987 0.81013 0.0
H1758 H 0.50884 0.85549 0.8588 0.0
H1759 H 0.52744 0.82321 0.78849 0.0
H1760 H 0.45137 0.82506 0.77035 0.0
H1761 H 0.4841 0.81285 0.78625 0.0
H1762 H 0.50773 0.88709 0.82993 0.0
H1763 H 0.47506 0.89932 0.81397 0.0
C1764 C 0.5358 0.8376 0.86028 0.0
C1765 C 0.54975 0.82479 0.84691 0.0
C1766 C 0.51928 0.84557 0.84798 0.0
C1767 C 0.51612 0.84064 0.82203 0.0
C1768 C 0.52965 0.82729 0.80854 0.0
C1769 C 0.54651 0.81964 0.82089 0.0
C1770 C 0.4638 0.83885 0.78299 0.0
C1771 C 0.4607 0.86306 0.7911 0.0
C1772 C 0.48252 0.83191 0.79196 0.0
C1773 C 0.49826 0.84899 0.80945 0.0
C1774 C 0.4957 0.87356 0.81658 0.0
C1775 C 0.47714 0.88059 0.80735 0.0
H1776 H 0.51652 0.20458 0.15509 0.0
H1777 H 0.50495 0.23531 0.09028 0.0
H1778 H 0.5214 0.16674 0.12876 0.0
H1779 H 0.50981 0.19709 0.06389 0.0
H1780 H 0.50276 0.11258 0.02769 0.0
H1781 H 0.49356 0.14932 0.052 0.0
H1782 H 0.55227 0.16054 0.10206 0.0
H1783 H 0.5618 0.12426 0.07772 0.0
C1784 C 0.5147 0.20316 0.13521 0.0
C1785 C 0.51065 0.22311 0.12478 0.0
C1786 C 0.51761 0.18151 0.12017 0.0
C1787 C 0.51635 0.17925 0.09439 0.0
C1788 C 0.5109 0.19847 0.08377 0.0
C1789 C 0.50814 0.2203 0.09887 0.0
C1790 C 0.51391 0.12307 0.04364 0.0
C1791 C 0.53311 0.11551 0.05064 0.0
C1792 C 0.50856 0.14404 0.05758 0.0
C1793 C 0.52212 0.15755 0.07896 0.0
C1794 C 0.54138 0.15018 0.08582 0.0
C1795 C 0.54687 0.12945 0.07178 0.0
H1796 H 0.17423 0.34912 0.36216 0.0
H1797 H 0.1751 0.27159 0.35853 0.0
H1798 H 0.20991 0.35602 0.34634 0.0
H1799 H 0.21034 0.27822 0.34231 0.0
H1800 H 0.27991 0.29703 0.3288 0.0
H1801 H 0.24721 0.29509 0.35016 0.0
H1802 H 0.2279 0.34899 0.31114 0.0
H1803 H 0.26178 0.35206 0.2911 0.0
C1804 C 0.18199 0.3335 0.35784 0.0
C1805 C 0.17178 0.30976 0.36149 0.0
C1806 C 0.20243 0.33743 0.34862 0.0
C1807 C 0.21308 0.31766 0.34273 0.0
C1808 C 0.20286 0.294 0.34669 0.0
C1809 C 0.1825 0.29011 0.35593 0.0
C1810 C 0.26866 0.30847 0.32484 0.0
C1811 C 0.2728 0.32395 0.30758 0.0
C1812 C 0.24981 0.30729 0.337 0.0
C1813 C 0.23444 0.32132 0.33193 0.0
C1814 C 0.23928 0.33789 0.3156 0.0
C1815 C 0.25853 0.3395 0.30387 0.0
H1816 H 0.01218 0.12225 0.22113 0.0
H1817 H 0.96795 0.05002 0.20264 0.0
H1818 H 0.0282 0.11378 0.18259 0.0
H1819 H 0.98445 0.04114 0.16368 0.0
H1820 H 1.00638 0.04101 0.08404 0.0
H1821 H 0.98962 0.04764 0.12281 0.0
H1822 H 0.05124 0.09386 0.15938 0.0
H1823 H 0.06773 0.08759 0.12058 0.0
C1824 C 1.00582 0.10433 0.20895 0.0
C1825 C 0.98853 0.08693 0.21565 0.0
C1826 C 0.0153 0.09932 0.18653 0.0
C1827 C 1.00809 0.07655 0.16932 0.0
C1828 C 0.99066 0.05904 0.1759 0.0
C1829 C 0.98114 0.06408 0.19856 0.0
C1830 C 0.01646 0.0526 0.10031 0.0
C1831 C 0.03864 0.06377 0.09859 0.0
C1832 C 1.00676 0.05634 0.12289 0.0
C1833 C 0.01869 0.07154 0.14494 0.0
C1834 C 0.04097 0.08241 0.14318 0.0
C1835 C 0.05066 0.07863 0.12065 0.0
H1836 H 0.29941 0.68598 0.43765 0.0
H1837 H 0.24656 0.70886 0.47567 0.0
H1838 H 0.28825 0.70306 0.4023 0.0
H1839 H 0.23542 0.72563 0.44042 0.0
H1840 H 0.24265 0.78058 0.38659 0.0
H1841 H 0.25098 0.76093 0.42091 0.0
H1842 H 0.25636 0.69526 0.369 0.0
H1843 H 0.24804 0.71512 0.33455 0.0
C1844 C 0.28549 0.6947 0.4385 0.0
C1845 C 0.27394 0.69619 0.45949 0.0
C1846 C 0.27897 0.70423 0.41818 0.0
C1847 C 0.26092 0.71558 0.41861 0.0
C1848 C 0.24948 0.71713 0.43964 0.0
C1849 C 0.25588 0.7075 0.45982 0.0
C1850 C 0.24535 0.76183 0.38255 0.0
C1851 C 0.24485 0.7494 0.35797 0.0
C1852 C 0.25005 0.75055 0.40216 0.0
C1853 C 0.25449 0.72665 0.39761 0.0
C1854 C 0.25327 0.71384 0.37301 0.0
C1855 C 0.2483 0.72506 0.35334 0.0
H1856 H 0.63318 1.00888 0.7141 0.0
H1857 H 0.69394 0.03948 0.68679 0.0
H1858 H 0.61281 1.01096 0.67586 0.0
H1859 H 0.67364 0.04056 0.64799 0.0
H1860 H 0.62937 0.07429 0.60138 0.0
H1861 H 0.65065 0.06606 0.63604 0.0
H1862 H 0.60359 0.99674 0.63264 0.0
H1863 H 0.58185 1.00546 0.59848 0.0
C1864 C 0.64225 1.01542 0.69964 0.0
C1865 C 0.66513 0.02434 0.70357 0.0
C1866 C 0.63055 1.01654 0.67764 0.0
C1867 C 0.64154 0.02631 0.65897 0.0
C1868 C 0.66461 0.03357 0.66225 0.0
C1869 C 0.67627 0.03275 0.68439 0.0
C1870 C 0.62357 0.05728 0.60799 0.0
C1871 C 0.60385 0.04064 0.59731 0.0
C1872 C 0.6359 0.05241 0.62773 0.0
C1873 C 0.62892 0.03064 0.63708 0.0
C1874 C 0.60931 1.01382 0.62613 0.0
C1875 C 0.59686 1.01882 0.60652 0.0
H1876 H 0.31337 0.35612 0.97585 0.0
H1877 H 0.37178 0.40576 0.96158 0.0
H1878 H 0.3074 0.33555 0.93201 0.0
H1879 H 0.3659 0.38515 0.91822 0.0
H1880 H 0.32576 0.37363 0.84242 0.0
H1881 H 0.3355 0.38728 0.88691 0.0
H1882 H 0.32352 0.31058 0.89539 0.0
H1883 H 0.31377 0.29687 0.85025 0.0
C1884 C 0.32514 0.36231 0.96352 0.0
C1885 C 0.3428 0.38289 0.97209 0.0
C1886 C 0.32178 0.35046 0.93848 0.0
C1887 C 0.33601 0.35904 0.92169 0.0
C1888 C 0.35445 0.37846 0.93067 0.0
C1889 C 0.35779 0.39026 0.95554 0.0
C1890 C 0.32555 0.3597 0.85376 0.0
C1891 C 0.31973 0.33428 0.84299 0.0
C1892 C 0.33114 0.36747 0.87919 0.0
C1893 C 0.33053 0.34999 0.89458 0.0
C1894 C 0.3242 0.32442 0.88391 0.0
C1895 C 0.31889 0.31659 0.85819 0.0
H1896 H 1.00985 0.0474 0.33491 0.0
H1897 H 0.96971 0.09481 0.36938 0.0
H1898 H 0.0257 0.04441 0.37553 0.0
H1899 H 0.98554 0.09165 0.41036 0.0
H1900 H 0.9992 0.05738 0.47906 0.0
H1901 H 0.98544 0.06273 0.4385 0.0
H1902 H 0.04967 0.06468 0.41414 0.0
H1903 H 0.06364 0.05992 0.45542 0.0
C1904 C 1.00445 0.05749 0.35114 0.0
C1905 C 0.98831 0.07149 0.34828 0.0
C1906 C 0.01374 0.0558 0.37472 0.0
C1907 C 1.00712 0.06763 0.39687 0.0
C1908 C 0.99115 0.08193 0.39409 0.0
C1909 C 0.9821 0.08399 0.37037 0.0
C1910 C 1.01052 0.05884 0.4651 0.0
C1911 C 0.03257 0.05759 0.47084 0.0
C1912 C 1.00256 0.06216 0.44163 0.0
C1913 C 0.01619 0.06433 0.42241 0.0
C1914 C 0.03835 0.06295 0.42803 0.0
C1915 C 0.04645 0.06001 0.45184 0.0
H1916 H 0.30006 0.74808 0.56394 0.0
H1917 H 0.318 0.68601 0.59013 0.0
H1918 H 0.29863 0.76859 0.60639 0.0
H1919 H 0.31749 0.70695 0.63269 0.0
H1920 H 0.29253 0.73683 0.70396 0.0
H1921 H 0.29255 0.71734 0.66095 0.0
H1922 H 0.31951 0.78933 0.64418 0.0
H1923 H 0.31813 0.80898 0.68689 0.0
C1924 C 0.30405 0.73898 0.57879 0.0
C1925 C 0.30908 0.71537 0.57365 0.0
C1926 C 0.30329 0.7508 0.6032 0.0
C1927 C 0.30778 0.7394 0.62307 0.0
C1928 C 0.31343 0.71606 0.61788 0.0
C1929 C 0.31394 0.70413 0.59347 0.0
C1930 C 0.29823 0.74858 0.69108 0.0
C1931 C 0.30578 0.77446 0.69906 0.0
C1932 C 0.2985 0.73733 0.6664 0.0
C1933 C 0.30644 0.75164 0.64908 0.0
C1934 C 0.31323 0.77765 0.6569 0.0
C1935 C 0.31269 0.78893 0.68153 0.0
H1936 H 0.64306 0.03246 0.80247 0.0
H1937 H 0.66565 0.11146 0.83116 0.0
H1938 H 0.60686 0.03428 0.81513 0.0
H1939 H 0.62912 0.11367 0.84269 0.0
H1940 H 0.54027 0.04151 0.8292 0.0
H1941 H 0.57385 0.04742 0.8086 0.0
H1942 H 0.60695 0.10227 0.87271 0.0
H1943 H 0.57326 0.09729 0.89231 0.0
C1944 C 0.6402 0.05025 0.81137 0.0
C1945 C 0.65722 0.07173 0.81623 0.0
C1946 C 0.61934 0.05141 0.81827 0.0
C1947 C 0.61494 0.07417 0.82982 0.0
C1948 C 0.63196 0.09576 0.83419 0.0
C1949 C 0.65293 0.0945 0.82767 0.0
C1950 C 0.55452 0.05553 0.83831 0.0
C1951 C 0.55438 0.06868 0.86242 0.0
C1952 C 0.57386 0.05865 0.82676 0.0
C1953 C 0.59333 0.07481 0.83927 0.0
C1954 C 0.59239 0.08969 0.8624 0.0
C1955 C 0.57308 0.08677 0.87375 0.0
H1956 H 0.28847 0.34086 0.08874 0.0
H1957 H 0.34566 0.39893 0.1197 0.0
H1958 H 0.28715 0.3272 0.12822 0.0
H1959 H 0.34478 0.38483 0.1588 0.0
H1960 H 0.32477 0.3685 0.23296 0.0
H1961 H 0.32472 0.38311 0.19397 0.0
H1962 H 0.30642 0.30682 0.15377 0.0
H1963 H 0.30613 0.29237 0.19266 0.0
C1964 C 0.30083 0.35062 0.10391 0.0
C1965 C 0.31715 0.37097 0.10105 0.0
C1966 C 0.30015 0.34272 0.12653 0.0
C1967 C 0.31588 0.35489 0.14675 0.0
C1968 C 0.33219 0.37526 0.14381 0.0
C1969 C 0.33277 0.38325 0.12129 0.0
C1970 C 0.32092 0.35489 0.2158 0.0
C1971 C 0.31554 0.32931 0.21594 0.0
C1972 C 0.32087 0.36324 0.19341 0.0
C1973 C 0.31555 0.34615 0.17065 0.0
C1974 C 0.31018 0.32055 0.17089 0.0
C1975 C 0.3101 0.31225 0.19324 0.0
H1976 H 0.27855 0.99476 0.07091 0.0
H1977 H 0.23117 0.92899 0.03259 0.0
H1978 H 0.24876 1.01457 0.08347 0.0
H1979 H 0.20139 0.94906 0.04449 0.0
H1980 H 0.15353 0.98146 0.09255 0.0
H1981 H 0.18334 0.96181 0.07975 0.0
H1982 H 0.22038 0.03235 0.0683 0.0
H1983 H 0.19109 0.05223 0.08237 0.0
C1984 C 0.26178 0.9846 0.06496 0.0
C1985 C 0.25727 0.96025 0.05079 0.0
C1986 C 0.24466 0.99602 0.07206 0.0
C1987 C 0.2226 0.98343 0.06505 0.0
C1988 C 0.21814 0.95918 0.0506 0.0
C1989 C 0.23525 0.94772 0.04362 0.0
C1990 C 0.16814 0.99284 0.08757 0.0
C1991 C 0.16991 1.01847 0.08861 0.0
C1992 C 0.18515 0.98149 0.0799 0.0
C1993 C 0.20434 0.99546 0.07295 0.0
C1994 C 0.20601 0.02105 0.07381 0.0
C1995 C 0.18905 0.03241 0.08157 0.0
H1996 H 0.72587 0.68842 0.03508 0.0
H1997 H 0.74555 0.62898 0.98667 0.0
H1998 H 0.68942 0.6624 0.03309 0.0
H1999 H 0.70853 0.60311 0.98357 0.0
H2000 H 0.64777 0.55505 1.00859 0.0
H2001 H 0.68416 0.58004 1.00613 0.0
H2002 H 0.65657 0.64505 1.0081 0.0
H2003 H 0.62058 0.62016 0.01174 0.0
C2004 C 0.72228 0.66987 0.02367 0.0
C2005 C 0.73858 0.66075 0.01104 0.0
C2006 C 0.70127 0.65495 0.02235 0.0
C2007 C 0.69585 0.63062 1.00799 0.0
C2008 C 0.71214 0.6216 0.99507 0.0
C2009 C 0.73333 0.63646 0.99671 0.0
C2010 C 0.64952 0.57457 1.00804 0.0
C2011 C 0.63147 0.58573 1.01037 0.0
C2012 C 0.67037 0.58895 1.00664 0.0
C2013 C 0.67345 0.61471 1.0072 0.0
C2014 C 0.65502 0.62547 1.00832 0.0
C2015 C 0.63435 0.6112 1.0102 0.0
H2016 H 0.73619 0.46047 0.24746 0.0
H2017 H 0.71922 0.44585 0.3185 0.0
H2018 H 0.75717 0.42725 0.24385 0.0
H2019 H 0.73924 0.41318 0.31479 0.0
H2020 H 0.79025 0.36843 0.3183 0.0
H2021 H 0.77262 0.4031 0.31804 0.0
H2022 H 0.76055 0.38327 0.23843 0.0
H2023 H 0.77915 0.34836 0.2389 0.0
C2024 C 0.73675 0.45033 0.26234 0.0
C2025 C 0.72573 0.45666 0.28344 0.0
C2026 C 0.74887 0.43097 0.26024 0.0
C2027 C 0.75071 0.41706 0.27919 0.0
C2028 C 0.7393 0.42331 0.29987 0.0
C2029 C 0.72735 0.44237 0.30193 0.0
C2030 C 0.78427 0.37157 0.30055 0.0
C2031 C 0.7868 0.35536 0.27867 0.0
C2032 C 0.77363 0.39156 0.30037 0.0
C2033 C 0.76422 0.39647 0.27826 0.0
C2034 C 0.76731 0.38069 0.25605 0.0
C2035 C 0.77821 0.36049 0.25625 0.0
H2036 H 0.90436 0.53939 0.58002 0.0
H2037 H 0.90005 0.48508 0.5123 0.0
H2038 H 0.94456 0.54812 0.58193 0.0
H2039 H 0.93984 0.49355 0.51455 0.0
H2040 H 1.00954 0.49293 0.54401 0.0
H2041 H 0.96972 0.48632 0.54523 0.0
H2042 H 0.97466 0.56566 0.55495 0.0
H2043 H 0.0144 0.57219 0.55383 0.0
C2044 C 0.91196 0.52947 0.56553 0.0
C2045 C 0.89907 0.51154 0.54607 0.0
C2046 C 0.93487 0.53447 0.56662 0.0
C2047 C 0.94514 0.52127 0.54852 0.0
C2048 C 0.93226 0.50372 0.52888 0.0
C2049 C 0.90948 0.49904 0.52755 0.0
C2050 C 1.00202 0.50886 0.54644 0.0
C2051 C 0.01471 0.53292 0.5479 0.0
C2052 C 0.97937 0.50514 0.54713 0.0
C2053 C 0.96924 0.5255 0.54991 0.0
C2054 C 0.98214 0.5497 0.55278 0.0
C2055 C 1.00477 0.55339 0.5518 0.0
H2056 H 0.38198 0.08847 0.25918 0.0
H2057 H 0.42869 0.15644 0.29372 0.0
H2058 H 0.36201 0.11211 0.23676 0.0
H2059 H 0.40865 0.18006 0.27107 0.0
H2060 H 0.3491 0.21293 0.25138 0.0
H2061 H 0.37196 0.19069 0.2716 0.0
H2062 H 0.36682 0.13717 0.20333 0.0
H2063 H 0.34369 0.1596 0.18295 0.0
C2064 C 0.38799 0.10847 0.26202 0.0
C2065 C 0.40688 0.12061 0.27833 0.0
C2066 C 0.37666 0.12194 0.24896 0.0
C2067 C 0.38387 0.14787 0.25205 0.0
C2068 C 0.40269 0.16008 0.26842 0.0
C2069 C 0.41414 0.14656 0.28138 0.0
C2070 C 0.353 0.19661 0.24056 0.0
C2071 C 0.3446 0.18814 0.21553 0.0
C2072 C 0.36621 0.18392 0.25215 0.0
C2073 C 0.37117 0.16221 0.23905 0.0
C2074 C 0.36311 0.15381 0.2139 0.0
C2075 C 0.35004 0.16675 0.20219 0.0
H2076 H 0.33342 0.12343 0.53216 0.0
H2077 H 0.38858 0.17543 0.5144 0.0
H2078 H 0.35742 0.09564 0.53929 0.0
H2079 H 0.41259 0.14773 0.52182 0.0
H2080 H 0.44389 0.07998 0.51223 0.0
H2081 H 0.41924 0.10668 0.50391 0.0
H2082 H 0.38786 0.09442 0.5693 0.0
H2083 H 0.41268 0.0679 0.57782 0.0
C2084 C 0.35066 0.12895 0.52977 0.0
C2085 C 0.35907 0.15168 0.52272 0.0
C2086 C 0.36443 0.11306 0.534 0.0
C2087 C 0.38692 0.11948 0.53117 0.0
C2088 C 0.3953 0.14211 0.5239 0.0
C2089 C 0.38154 0.15806 0.51978 0.0
C2090 C 0.43186 0.08312 0.52497 0.0
C2091 C 0.43037 0.07186 0.54578 0.0
C2092 C 0.41771 0.09841 0.52017 0.0
C2093 C 0.40164 0.10275 0.53598 0.0
C2094 C 0.3999 0.09121 0.55659 0.0
C2095 C 0.41411 0.07598 0.56145 0.0
H2096 H 0.74489 0.60128 0.30729 0.0
H2097 H 0.70917 0.60858 0.24067 0.0
H2098 H 0.76688 0.64395 0.31113 0.0
H2099 H 0.73138 0.65 0.24359 0.0
H2100 H 0.75679 0.73252 0.26351 0.0
H2101 H 0.73688 0.69042 0.26228 0.0
H2102 H 0.79367 0.67503 0.29988 0.0
H2103 H 0.81328 0.71821 0.30243 0.0
C2104 C 0.74191 0.61175 0.29324 0.0
C2105 C 0.72494 0.60125 0.27378 0.0
C2106 C 0.7546 0.63641 0.29539 0.0
C2107 C 0.75092 0.65132 0.27799 0.0
C2108 C 0.73453 0.64011 0.25806 0.0
C2109 C 0.72176 0.61588 0.25617 0.0
C2110 C 0.76524 0.72035 0.2716 0.0
C2111 C 0.78708 0.72921 0.28269 0.0
C2112 C 0.75372 0.6957 0.27064 0.0
C2113 C 0.76349 0.67836 0.2804 0.0
C2114 C 0.78525 0.68735 0.29204 0.0
C2115 C 0.79674 0.71229 0.29328 0.0
H2116 H 0.86793 0.49492 0.75148 0.0
H2117 H 0.9155 0.49105 0.8102 0.0
H2118 H 0.85397 0.44989 0.74504 0.0
H2119 H 0.90128 0.44626 0.80402 0.0
H2120 H 0.8204 0.37358 0.76115 0.0
H2121 H 0.83395 0.4185 0.76635 0.0
H2122 H 0.90067 0.40878 0.77216 0.0
H2123 H 0.88691 0.36379 0.76763 0.0
C2124 C 0.87536 0.48451 0.76305 0.0
C2125 C 0.89291 0.49656 0.78124 0.0
C2126 C 0.8673 0.45875 0.75944 0.0
C2127 C 0.87666 0.44455 0.77391 0.0
C2128 C 0.89402 0.45665 0.79227 0.0
C2129 C 0.90207 0.48235 0.79589 0.0
C2130 C 0.83793 0.38112 0.76391 0.0
C2131 C 0.85265 0.36548 0.76509 0.0
C2132 C 0.8457 0.40678 0.76648 0.0
C2133 C 0.86837 0.4172 0.76999 0.0
C2134 C 0.8831 0.40133 0.77 0.0
C2135 C 0.87528 0.37563 0.76724 0.0
H2136 H 0.1151 0.91012 0.11298 0.0
H2137 H 0.06893 0.86898 0.05051 0.0
H2138 H 0.11406 0.94898 0.09874 0.0
H2139 H 0.06801 0.90761 0.03631 0.0
H2140 H 0.0884 0.9794 1.00494 0.0
H2141 H 0.09123 0.94084 0.01893 0.0
H2142 H 0.08783 0.9767 0.0942 0.0
H2143 H 0.08448 1.01495 0.07993 0.0
C2144 C 0.10486 0.90926 0.09612 0.0
C2145 C 0.09212 0.88621 0.08297 0.0
C2146 C 0.10414 0.93162 0.08803 0.0
C2147 C 0.09092 0.9316 0.06631 0.0
C2148 C 0.07855 0.90848 0.05295 0.0
C2149 C 0.07902 0.88624 0.06121 0.0
C2150 C 0.08802 0.97887 0.02442 0.0
C2151 C 0.08557 0.99994 0.04123 0.0
C2152 C 0.08968 0.9568 0.03249 0.0
C2153 C 0.08966 0.95543 0.05776 0.0
C2154 C 0.08797 0.97693 0.07466 0.0
C2155 C 0.08586 0.99882 0.06648 0.0
H2156 H 0.97616 0.31161 0.89777 0.0
H2157 H 0.94973 0.23245 0.87506 0.0
H2158 H 0.94371 0.3196 0.87641 0.0
H2159 H 0.91714 0.24037 0.85428 0.0
H2160 H 0.87321 0.26177 0.79647 0.0
H2161 H 0.90491 0.25416 0.81897 0.0
H2162 H 0.90508 0.318 0.87619 0.0
H2163 H 0.87369 0.32612 0.85295 0.0
C2164 C 0.96339 0.29588 0.88838 0.0
C2165 C 0.96575 0.27135 0.88813 0.0
C2166 C 0.94462 0.30047 0.87621 0.0
C2167 C 0.92762 0.28068 0.86339 0.0
C2168 C 0.92992 0.25617 0.86348 0.0
C2169 C 0.94865 0.2516 0.87561 0.0
C2170 C 0.88008 0.2744 0.81364 0.0
C2171 C 0.87096 0.29487 0.82242 0.0
C2172 C 0.89822 0.26982 0.82687 0.0
C2173 C 0.90786 0.28547 0.84955 0.0
C2174 C 0.89847 0.30571 0.85865 0.0
C2175 C 0.88026 0.31027 0.84535 0.0
H2176 H 0.62043 0.2502 0.56248 0.0
H2177 H 0.57296 0.24942 0.61577 0.0
H2178 H 0.61125 0.20453 0.55265 0.0
H2179 H 0.56413 0.20386 0.60624 0.0
H2180 H 0.57799 0.12535 0.60612 0.0
H2181 H 0.5855 0.17085 0.6131 0.0
H2182 H 0.57837 0.16711 0.53419 0.0
H2183 H 0.57019 0.12138 0.52728 0.0
C2184 C 0.60792 0.24033 0.57197 0.0
C2185 C 0.59744 0.25358 0.58994 0.0
C2186 C 0.60264 0.21414 0.56628 0.0
C2187 C 0.58707 0.20052 0.57878 0.0
C2188 C 0.57635 0.21377 0.59643 0.0
C2189 C 0.58131 0.23992 0.60178 0.0
C2190 C 0.57812 0.13425 0.59026 0.0
C2191 C 0.57416 0.11979 0.56614 0.0
C2192 C 0.5823 0.16032 0.59425 0.0
C2193 C 0.58259 0.17267 0.57422 0.0
C2194 C 0.57848 0.1582 0.55003 0.0
C2195 C 0.57396 0.13202 0.54605 0.0
H2196 H 0.57118 0.79006 0.35935 0.0
H2197 H 0.61916 0.78203 0.41541 0.0
H2198 H 0.59942 0.79463 0.33096 0.0
H2199 H 0.64735 0.78689 0.38718 0.0
H2200 H 0.68702 0.77151 0.32097 0.0
H2201 H 0.6587 0.76587 0.34906 0.0
H2202 H 0.63246 0.82459 0.32585 0.0
H2203 H 0.66084 0.83044 0.29801 0.0
C2204 C 0.58772 0.78923 0.36563 0.0
C2205 C 0.59285 0.7857 0.38971 0.0
C2206 C 0.60396 0.79201 0.34939 0.0
C2207 C 0.62573 0.7912 0.35676 0.0
C2208 C 0.63076 0.78735 0.38075 0.0
C2209 C 0.61456 0.7847 0.39701 0.0
C2210 C 0.67539 0.78343 0.32204 0.0
C2211 C 0.67627 0.80139 0.30707 0.0
C2212 C 0.65908 0.78015 0.33813 0.0
C2213 C 0.64317 0.79468 0.33966 0.0
C2214 C 0.64415 0.81273 0.32484 0.0
C2215 C 0.66048 0.81609 0.30884 0.0
H2216 H 0.12571 0.31601 0.48439 0.0
H2217 H 0.0958 0.25294 0.42616 0.0
H2218 H 0.11532 0.29102 0.51534 0.0
H2219 H 0.08602 0.22776 0.45703 0.0
H2220 H 0.05121 0.1957 0.51598 0.0
H2221 H 0.06089 0.22391 0.48762 0.0
H2222 H 0.12289 0.25664 0.5324 0.0
H2223 H 0.11277 0.22874 0.56114 0.0
C2224 C 0.11714 0.29672 0.47818 0.0
C2225 C 0.11149 0.28647 0.45281 0.0
C2226 C 0.11123 0.28239 0.49594 0.0
C2227 C 0.09963 0.25746 0.48871 0.0
C2228 C 0.09449 0.24707 0.46329 0.0
C2229 C 0.10027 0.26143 0.44555 0.0
C2230 C 0.06675 0.20922 0.5199 0.0
C2231 C 0.08129 0.21006 0.54063 0.0
C2232 C 0.07241 0.2252 0.50356 0.0
C2233 C 0.09285 0.24222 0.50746 0.0
C2234 C 0.10697 0.24385 0.5289 0.0
C2235 C 0.10119 0.22794 0.5454 0.0
H2236 H 0.58173 0.29035 0.24992 0.0
H2237 H 0.58257 0.2233 0.19732 0.0
H2238 H 0.61326 0.2843 0.27484 0.0
H2239 H 0.614 0.21757 0.22178 0.0
H2240 H 0.66187 0.2024 0.27641 0.0
H2241 H 0.62615 0.2077 0.26067 0.0
H2242 H 0.65227 0.28695 0.27019 0.0
H2243 H 0.68767 0.28175 0.28679 0.0
C2244 C 0.58854 0.27429 0.24375 0.0
C2245 C 0.57974 0.25741 0.22157 0.0
C2246 C 0.60661 0.27086 0.25798 0.0
C2247 C 0.61609 0.25041 0.25033 0.0
C2248 C 0.60689 0.23327 0.22846 0.0
C2249 C 0.58896 0.23673 0.21427 0.0
C2250 C 0.65981 0.22101 0.27573 0.0
C2251 C 0.67765 0.2416 0.28249 0.0
C2252 C 0.63942 0.22403 0.2665 0.0
C2253 C 0.63647 0.2477 0.26385 0.0
C2254 C 0.65395 0.26848 0.27207 0.0
C2255 C 0.67431 0.26546 0.2813 0.0
H2256 H 0.61627 0.88422 0.93523 0.0
H2257 H 0.59151 0.90619 0.86967 0.0
H2258 H 0.60374 0.91754 0.96108 0.0
H2259 H 0.57922 0.93979 0.89567 0.0
H2260 H 0.5369 0.97554 0.95099 0.0
H2261 H 0.55037 0.94309 0.92459 0.0
H2262 H 0.61172 0.96332 0.97184 0.0
H2263 H 0.59846 0.99547 0.99809 0.0
C2264 C 0.60843 0.89638 0.92634 0.0
C2265 C 0.60488 0.89259 0.90042 0.0
C2266 C 0.60128 0.91548 0.94115 0.0
C2267 C 0.59037 0.93111 0.93036 0.0
C2268 C 0.58731 0.92776 0.90445 0.0
C2269 C 0.59457 0.90871 0.8896 0.0
C2270 C 0.55319 0.97294 0.95581 0.0
C2271 C 0.56646 0.9879 0.97684 0.0
C2272 C 0.56096 0.95452 0.9406 0.0
C2273 C 0.58209 0.95072 0.9462 0.0
C2274 C 0.59527 0.96561 0.96725 0.0
C2275 C 0.58759 0.98402 0.98234 0.0
H2276 H 0.97323 0.78213 0.75582 0.0
H2277 H 0.94254 0.74677 0.68212 0.0
H2278 H 0.93735 0.77743 0.77106 0.0
H2279 H 0.90654 0.74222 0.69732 0.0
H2280 H 0.85136 0.78088 0.72528 0.0
H2281 H 0.88472 0.77122 0.7096 0.0
H2282 H 0.90373 0.75355 0.77985 0.0
H2283 H 0.87028 0.76386 0.79548 0.0
C2284 C 0.9588 0.77322 0.7429 0.0
C2285 C 0.96067 0.7654 0.71767 0.0
C2286 C 0.93819 0.77029 0.75167 0.0
C2287 C 0.91896 0.76007 0.73528 0.0
C2288 C 0.92097 0.75082 0.71032 0.0
C2289 C 0.94161 0.75338 0.70162 0.0
C2290 C 0.8628 0.77498 0.73726 0.0
C2291 C 0.85911 0.77425 0.76184 0.0
C2292 C 0.88169 0.76896 0.72821 0.0
C2293 C 0.89715 0.76195 0.7436 0.0
C2294 C 0.89247 0.75949 0.76773 0.0
C2295 C 0.87345 0.76541 0.77671 0.0
H2296 H 0.17283 0.04774 0.85895 0.0
H2297 H 0.11275 0.99526 0.82715 0.0
H2298 H 0.1575 0.05463 0.89882 0.0
H2299 H 0.09734 1.00241 0.86627 0.0
H2300 H 0.07811 1.00288 0.9449 0.0
H2301 H 0.09458 0.99617 0.90608 0.0
H2302 H 0.13373 0.07138 0.92483 0.0
H2303 H 0.11719 0.07785 0.96361 0.0
C2304 C 0.15634 0.03769 0.86026 0.0
C2305 C 0.14431 0.0208 0.83925 0.0
C2306 C 0.14734 0.04174 0.88335 0.0
C2307 C 0.12588 0.02908 0.8866 0.0
C2308 C 0.11396 1.01235 0.86543 0.0
C2309 C 0.1229 1.00834 0.84252 0.0
C2310 C 0.0902 1.01809 0.94084 0.0
C2311 C 0.09628 0.0409 0.95812 0.0
C2312 C 0.09975 1.01428 0.9182 0.0
C2313 C 0.11586 0.03313 0.9115 0.0
C2314 C 0.12187 0.05598 0.92887 0.0
C2315 C 0.11229 0.05976 0.9515 0.0
H2316 H 0.79955 0.37987 0.54201 0.0
H2317 H 0.85035 0.43801 0.58738 0.0
H2318 H 0.80847 0.35014 0.5661 0.0
H2319 H 0.85951 0.40817 0.61107 0.0
H2320 H 0.84984 0.35375 0.66495 0.0
H2321 H 0.84353 0.3841 0.64042 0.0
H2322 H 0.83825 0.32873 0.57339 0.0
H2323 H 0.84396 0.29804 0.59818 0.0
C2324 C 0.81255 0.38633 0.55716 0.0
C2325 C 0.82419 0.41131 0.56283 0.0
C2326 C 0.81783 0.36924 0.57077 0.0
C2327 C 0.83482 0.37678 0.59033 0.0
C2328 C 0.84624 0.40184 0.59621 0.0
C2329 C 0.84097 0.41893 0.58262 0.0
C2330 C 0.84748 0.34814 0.64496 0.0
C2331 C 0.84717 0.32353 0.63342 0.0
C2332 C 0.84401 0.36555 0.63091 0.0
C2333 C 0.84019 0.35873 0.605 0.0
C2334 C 0.8408 0.33438 0.59337 0.0
C2335 C 0.84434 0.31693 0.60748 0.0
H2336 H 0.47444 0.0189 0.35325 0.0
H2337 H 0.46713 0.09459 0.37619 0.0
H2338 H 0.49823 0.0232 0.39098 0.0
H2339 H 0.49126 0.09878 0.41441 0.0
H2340 H 0.55589 0.09525 0.46583 0.0
H2341 H 0.53351 0.09593 0.42777 0.0
H2342 H 0.48842 0.02912 0.43629 0.0
H2343 H 0.51028 0.02825 0.47367 0.0
C2344 C 0.47792 0.0365 0.36633 0.0
C2345 C 0.46871 0.05633 0.36187 0.0
C2346 C 0.49158 0.03893 0.38792 0.0
C2347 C 0.49646 0.06127 0.40552 0.0
C2348 C 0.48777 0.08142 0.40096 0.0
C2349 C 0.47385 0.07893 0.37928 0.0
C2350 C 0.54122 0.08072 0.4595 0.0
C2351 C 0.53506 0.06151 0.47263 0.0
C2352 C 0.52837 0.08126 0.43791 0.0
C2353 C 0.50941 0.06247 0.42916 0.0
C2354 C 0.50311 0.04366 0.44256 0.0
C2355 C 0.51571 0.04323 0.46404 0.0
H2356 H 0.8538 0.76448 0.0927 0.0
H2357 H 0.78716 0.7209 0.08402 0.0
H2358 H 0.85005 0.78105 0.13603 0.0
H2359 H 0.78373 0.73715 0.12736 0.0
H2360 H 0.81157 0.73643 0.21051 0.0
H2361 H 0.80851 0.72756 0.1653 0.0
H2362 H 0.82398 0.8064 0.16558 0.0
H2363 H 0.8264 0.81532 0.21117 0.0
C2364 C 0.83827 0.75877 0.09987 0.0
C2365 C 0.82088 0.74116 0.08497 0.0
C2366 C 0.83609 0.76839 0.1246 0.0
C2367 C 0.81663 0.76029 0.13493 0.0
C2368 C 0.7989 0.74366 0.11976 0.0
C2369 C 0.80091 0.73437 0.09497 0.0
C2370 C 0.81379 0.75184 0.20085 0.0
C2371 C 0.81878 0.77649 0.21414 0.0
C2372 C 0.81201 0.74679 0.17506 0.0
C2373 C 0.81592 0.76631 0.16204 0.0
C2374 C 0.82079 0.79107 0.17528 0.0
C2375 C 0.82204 0.79615 0.20122 0.0
H2376 H 0.12374 0.05293 0.7209 0.0
H2377 H 0.16711 1.00868 0.68835 0.0
H2378 H 0.10762 0.054 0.67988 0.0
H2379 H 0.15077 1.00962 0.64688 0.0
H2380 H 0.13316 0.03736 0.57541 0.0
H2381 H 0.1482 0.03476 0.6165 0.0
H2382 H 0.08452 0.03326 0.64235 0.0
H2383 H 0.06942 0.03555 0.60075 0.0
C2384 C 0.12984 0.04314 0.70502 0.0
C2385 C 0.14696 0.03064 0.70856 0.0
C2386 C 0.12035 0.04369 0.68115 0.0
C2387 C 0.1276 0.03199 0.65935 0.0
C2388 C 0.14463 0.01922 0.66282 0.0
C2389 C 0.154 1.01844 0.68684 0.0
C2390 C 0.12227 0.03662 0.58984 0.0
C2391 C 0.10003 0.03727 0.58443 0.0
C2392 C 0.13096 0.03488 0.61364 0.0
C2393 C 0.11787 0.03367 0.63345 0.0
C2394 C 0.09551 0.03438 0.62807 0.0
C2395 C 0.08673 0.03586 0.60404 0.0
H2396 H 0.86107 0.39864 0.4762 0.0
H2397 H 0.81203 0.43234 0.44573 0.0
H2398 H 0.86026 0.37187 0.43597 0.0
H2399 H 0.81109 0.40528 0.4055 0.0
H2400 H 0.8366 0.37752 0.33289 0.0
H2401 H 0.83732 0.40228 0.37387 0.0
H2402 H 0.83575 0.33691 0.40552 0.0
H2403 H 0.83552 0.312 0.36422 0.0
C2404 C 0.85 0.40022 0.46096 0.0
C2405 C 0.83673 0.41775 0.46407 0.0
C2406 C 0.84946 0.38476 0.43797 0.0
C2407 C 0.83575 0.38662 0.4176 0.0
C2408 C 0.82207 0.40372 0.42084 0.0
C2409 C 0.82252 0.41911 0.44388 0.0
C2410 C 0.83672 0.36839 0.3485 0.0
C2411 C 0.83585 0.34272 0.34523 0.0
C2412 C 0.83684 0.38257 0.37201 0.0
C2413 C 0.83625 0.37146 0.39283 0.0
C2414 C 0.8362 0.34596 0.38976 0.0
C2415 C 0.83601 0.33171 0.36614 0.0
H2416 H 0.50676 0.10657 0.27462 0.0
H2417 H 0.47793 0.02763 0.25931 0.0
H2418 H 0.53507 0.09931 0.24771 0.0
H2419 H 0.50686 0.02007 0.23357 0.0
H2420 H 0.53734 0.02313 0.16053 0.0
H2421 H 0.51445 0.02604 0.1941 0.0
H2422 H 0.56642 0.08298 0.23922 0.0
H2423 H 0.58886 0.08113 0.2047 0.0
C2424 C 0.50677 0.08763 0.26583 0.0
C2425 C 0.48999 0.06772 0.26856 0.0
C2426 C 0.5231 0.08339 0.25062 0.0
C2427 C 0.52316 0.05909 0.23827 0.0
C2428 C 0.50702 0.03907 0.24229 0.0
C2429 C 0.49046 0.04338 0.25704 0.0
C2430 C 0.54393 0.03615 0.17769 0.0
C2431 C 0.56467 0.05228 0.17982 0.0
C2432 C 0.53092 0.03761 0.19712 0.0
C2433 C 0.53847 0.05497 0.21934 0.0
C2434 C 0.55993 0.06978 0.22217 0.0
C2435 C 0.5729 0.06849 0.20253 0.0
H2436 H 0.85824 0.76141 0.97184 0.0
H2437 H 0.80021 0.70533 0.93926 0.0
H2438 H 0.86119 0.77539 0.93266 0.0
H2439 H 0.80274 0.7198 0.90033 0.0
H2440 H 0.82179 0.73934 0.82721 0.0
H2441 H 0.82296 0.72251 0.86511 0.0
H2442 H 0.84254 0.79745 0.90846 0.0
H2443 H 0.84133 0.81388 0.87086 0.0
C2444 C 0.84606 0.75211 0.95635 0.0
C2445 C 0.82892 0.73234 0.95875 0.0
C2446 C 0.84771 0.76018 0.93387 0.0
C2447 C 0.83216 0.74881 0.91328 0.0
C2448 C 0.8152 0.72878 0.91562 0.0
C2449 C 0.81364 0.7206 0.93805 0.0
C2450 C 0.82669 0.7521 0.84487 0.0
C2451 C 0.83217 0.77793 0.84602 0.0
C2452 C 0.82721 0.74251 0.86659 0.0
C2453 C 0.83299 0.75861 0.88992 0.0
C2454 C 0.83863 0.78443 0.89088 0.0
C2455 C 0.83817 0.79392 0.86923 0.0
H2456 H 0.8682 0.13501 0.02602 0.0
H2457 H 0.81709 0.07348 0.98646 0.0
H2458 H 0.89534 0.11013 0.01749 0.0
H2459 H 0.84449 0.04866 0.97728 0.0
H2460 H 0.89822 1.00456 0.98993 0.0
H2461 H 0.86931 0.02776 0.99634 0.0
H2462 H 0.91336 0.09364 0.98361 0.0
H2463 H 0.94222 0.07058 0.97773 0.0
C2464 C 0.86275 0.11618 0.01539 0.0
C2465 C 0.84048 0.10627 1.00686 0.0
C2466 C 0.87837 0.10195 1.01032 0.0
C2467 C 0.87216 0.07746 0.99645 0.0
C2468 C 0.84982 0.06739 0.98816 0.0
C2469 C 0.83413 0.08164 0.99334 0.0
C2470 C 0.90157 0.02392 0.9882 0.0
C2471 C 0.92252 0.03584 0.98358 0.0
C2472 C 0.88502 0.03722 0.99185 0.0
C2473 C 0.88908 0.06267 0.99082 0.0
C2474 C 0.90981 0.07424 0.98518 0.0
C2475 C 0.92634 0.06102 0.9817 0.0
H2476 H 0.39686 0.47718 0.06474 0.0
H2477 H 0.42008 0.40887 0.05259 0.0
H2478 H 0.43415 0.50098 0.06403 0.0
H2479 H 0.45728 0.43275 0.05178 0.0
H2480 H 0.50742 0.48172 0.01185 0.0
H2481 H 0.4725 0.45777 0.01983 0.0
H2482 H 0.47359 0.51127 0.08711 0.0
H2483 H 0.50906 0.53516 0.07953 0.0
C2484 C 0.40995 0.46728 0.06221 0.0
C2485 C 0.40551 0.44113 0.05847 0.0
C2486 C 0.43129 0.48093 0.06197 0.0
C2487 C 0.4485 0.46865 0.05771 0.0
C2488 C 0.44422 0.44261 0.0549 0.0
C2489 C 0.42295 0.42898 0.05544 0.0
C2490 C 0.50035 0.48844 0.02843 0.0
C2491 C 0.51086 0.51069 0.04481 0.0
C2492 C 0.4804 0.47457 0.03306 0.0
C2493 C 0.47039 0.48271 0.05405 0.0
C2494 C 0.48095 0.50473 0.07068 0.0
C2495 C 0.50116 0.51845 0.06625 0.0
H2496 H 0.39503 0.64273 0.80507 0.0
H2497 H 0.42041 0.66131 0.73867 0.0
H2498 H 0.3744 0.67614 0.80695 0.0
H2499 H 0.40105 0.69446 0.7409 0.0
H2500 H 0.35221 0.74071 0.73204 0.0
H2501 H 0.36963 0.70621 0.73352 0.0
H2502 H 0.36888 0.71842 0.81281 0.0
H2503 H 0.35018 0.75303 0.81089 0.0
C2504 C 0.39649 0.6539 0.79094 0.0
C2505 C 0.40959 0.64852 0.77152 0.0
C2506 C 0.38452 0.67336 0.792 0.0
C2507 C 0.38512 0.68845 0.77375 0.0
C2508 C 0.39889 0.68334 0.755 0.0
C2509 C 0.41049 0.66403 0.75385 0.0
C2510 C 0.35546 0.73604 0.74992 0.0
C2511 C 0.34935 0.75007 0.77121 0.0
C2512 C 0.36598 0.7161 0.75089 0.0
C2513 C 0.37178 0.70909 0.77341 0.0
C2514 C 0.36508 0.72269 0.79491 0.0
C2515 C 0.35417 0.74276 0.79386 0.0
H2516 H 0.23002 0.63857 0.49383 0.0
H2517 H 0.23568 0.59628 0.55123 0.0
H2518 H 0.19029 0.62851 0.49312 0.0
H2519 H 0.19557 0.58575 0.54998 0.0
H2520 H 0.122 0.55339 0.51714 0.0
H2521 H 0.16187 0.56174 0.51812 0.0
H2522 H 0.16394 0.64026 0.52479 0.0
H2523 H 0.12389 0.63186 0.52443 0.0
C2524 C 0.22279 0.6269 0.50615 0.0
C2525 C 0.23599 0.61827 0.5227 0.0
C2526 C 0.20004 0.62133 0.50582 0.0
C2527 C 0.18997 0.60667 0.52171 0.0
C2528 C 0.20302 0.59724 0.53766 0.0
C2529 C 0.22591 0.60323 0.53835 0.0
C2530 C 0.13097 0.57246 0.51937 0.0
C2531 C 0.12004 0.59214 0.52172 0.0
C2532 C 0.15377 0.57719 0.51976 0.0
C2533 C 0.1659 0.60163 0.52177 0.0
C2534 C 0.15489 0.62124 0.52327 0.0
C2535 C 0.13209 0.6165 0.52313 0.0
H2536 H 0.7311 0.99821 0.83373 0.0
H2537 H 0.76932 0.04025 0.78684 0.0
H2538 H 0.76281 0.9817 0.84481 0.0
H2539 H 0.80113 0.02484 0.79872 0.0
H2540 H 0.84001 0.96399 0.79504 0.0
H2541 H 0.81159 0.98655 0.7892 0.0
H2542 H 0.79937 0.98983 0.86576 0.0
H2543 H 0.82729 0.96589 0.87118 0.0
C2544 C 0.74635 1.00414 0.82607 0.0
C2545 C 0.74765 0.02009 0.80907 0.0
C2546 C 0.76458 0.9949 0.83258 0.0
C2547 C 0.78448 1.00177 0.82247 0.0
C2548 C 0.78593 1.01867 0.80638 0.0
C2549 C 0.76769 0.02753 0.79958 0.0
C2550 C 0.83134 0.96966 0.81067 0.0
C2551 C 0.83564 0.96292 0.83345 0.0
C2552 C 0.81518 0.98285 0.80743 0.0
C2553 C 0.80308 0.98992 0.827 0.0
C2554 C 0.80817 0.98431 0.85022 0.0
C2555 C 0.82434 0.97092 0.85343 0.0
H2556 H 0.78624 0.97088 0.56197 0.0
H2557 H 0.78142 0.95568 0.48205 0.0
H2558 H 0.76097 0.99858 0.56092 0.0
H2559 H 0.75568 0.9827 0.48095 0.0
H2560 H 0.72693 0.05125 0.4874 0.0
H2561 H 0.75349 0.02535 0.48963 0.0
H2562 H 0.72318 0.99801 0.55032 0.0
H2563 H 0.6974 0.02499 0.549 0.0
C2564 C 0.77972 0.97336 0.54417 0.0
C2565 C 0.78588 0.96109 0.5221 0.0
C2566 C 0.76511 0.98913 0.54355 0.0
C2567 C 0.75624 0.99291 0.52084 0.0
C2568 C 0.76244 0.98059 0.49879 0.0
C2569 C 0.77712 0.96495 0.49941 0.0
C2570 C 0.7261 0.04 0.50146 0.0
C2571 C 0.70997 0.04025 0.51801 0.0
C2572 C 0.74118 0.02485 0.50252 0.0
C2573 C 0.74046 1.00946 0.52009 0.0
C2574 C 0.7244 1.0098 0.53672 0.0
C2575 C 0.70939 0.02504 0.53573 0.0
H2576 H 0.3986 0.4894 0.72624 0.0
H2577 H 0.40714 0.51194 0.80577 0.0
H2578 H 0.37874 0.44802 0.72953 0.0
H2579 H 0.38715 0.47015 0.80913 0.0
H2580 H 0.37203 0.38374 0.80494 0.0
H2581 H 0.39026 0.42632 0.80306 0.0
H2582 H 0.34494 0.42397 0.73997 0.0
H2583 H 0.32677 0.38134 0.7418 0.0
C2584 C 0.39614 0.48567 0.74453 0.0
C2585 C 0.40461 0.50442 0.76571 0.0
C2586 C 0.38455 0.46174 0.74642 0.0
C2587 C 0.38112 0.45528 0.76961 0.0
C2588 C 0.38949 0.47407 0.79088 0.0
C2589 C 0.40086 0.49824 0.78897 0.0
C2590 C 0.36583 0.3922 0.79064 0.0
C2591 C 0.3477 0.37868 0.77357 0.0
C2592 C 0.37629 0.4169 0.78967 0.0
C2593 C 0.36928 0.42905 0.77136 0.0
C2594 C 0.35114 0.41549 0.75427 0.0
C2595 C 0.34052 0.3909 0.75542 0.0
H2596 H 0.2053 0.63433 0.2576 0.0
H2597 H 0.26496 0.61319 0.28023 0.0
H2598 H 0.22427 0.67794 0.26768 0.0
H2599 H 0.28428 0.65693 0.2894 0.0
H2600 H 0.30798 0.73908 0.32455 0.0
H2601 H 0.2871 0.69583 0.31794 0.0
H2602 H 0.25087 0.70653 0.25283 0.0
H2603 H 0.2711 0.74952 0.26008 0.0
C2604 C 0.22257 0.63898 0.26441 0.0
C2605 C 0.23366 0.62032 0.26802 0.0
C2606 C 0.23347 0.66402 0.27017 0.0
C2607 C 0.25581 0.67097 0.27937 0.0
C2608 C 0.26697 0.65226 0.28278 0.0
C2609 C 0.25597 0.62718 0.27728 0.0
C2610 C 0.29549 0.73201 0.30891 0.0
C2611 C 0.29172 0.74714 0.29221 0.0
C2612 C 0.28365 0.7073 0.30501 0.0
C2613 C 0.26754 0.69757 0.28461 0.0
C2614 C 0.26304 0.71335 0.26878 0.0
C2615 C 0.27491 0.73791 0.27266 0.0
H2616 H 0.55844 0.71783 0.44454 0.0
H2617 H 0.50906 0.71883 0.49544 0.0
H2618 H 0.56658 0.68072 0.45703 0.0
H2619 H 0.51693 0.68147 0.50764 0.0
H2620 H 0.54739 0.62253 0.5376 0.0
H2621 H 0.54264 0.66277 0.52874 0.0
H2622 H 0.55025 0.63733 0.45184 0.0
H2623 H 0.55529 0.59777 0.46088 0.0
C2624 C 0.5493 0.7102 0.45842 0.0
C2625 C 0.53295 0.72144 0.46878 0.0
C2626 C 0.5539 0.68873 0.46555 0.0
C2627 C 0.54234 0.67772 0.48331 0.0
C2628 C 0.52637 0.68935 0.49411 0.0
C2629 C 0.52173 0.7108 0.48694 0.0
C2630 C 0.54839 0.6258 0.51894 0.0
C2631 C 0.55223 0.60713 0.50006 0.0
C2632 C 0.54542 0.64877 0.51373 0.0
C2633 C 0.54617 0.65363 0.48951 0.0
C2634 C 0.54999 0.63476 0.47079 0.0
C2635 C 0.55276 0.61191 0.47594 0.0
H2636 H 0.67602 0.35242 0.66219 0.0
H2637 H 0.64606 0.28661 0.6885 0.0
H2638 H 0.71158 0.35185 0.68338 0.0
H2639 H 0.6811 0.2863 0.70977 0.0
H2640 H 0.75005 0.27562 0.72434 0.0
H2641 H 0.71599 0.2777 0.70177 0.0
H2642 H 0.73234 0.3579 0.72388 0.0
H2643 H 0.7669 0.35582 0.74588 0.0
C2644 C 0.67695 0.3379 0.67252 0.0
C2645 C 0.65806 0.31952 0.67347 0.0
C2646 C 0.69735 0.33762 0.68479 0.0
C2647 C 0.69942 0.31889 0.69824 0.0
C2648 C 0.68042 0.30074 0.69928 0.0
C2649 C 0.66016 0.30105 0.68713 0.0
C2650 C 0.74649 0.29375 0.72438 0.0
C2651 C 0.7612 0.31552 0.73734 0.0
C2652 C 0.72678 0.29495 0.71152 0.0
C2653 C 0.7211 0.31797 0.71112 0.0
C2654 C 0.73607 0.33982 0.72363 0.0
C2655 C 0.75583 0.33861 0.73655 0.0
H2656 H 1.01146 0.35872 1.00048 0.0
H2657 H 0.06478 0.36201 0.95454 0.0
H2658 H 0.02177 0.40419 0.01415 0.0
H2659 H 0.07464 0.40738 0.96775 0.0
H2660 H 0.06214 0.48692 0.96939 0.0
H2661 H 0.05285 0.44137 0.95989 0.0
H2662 H 0.05642 0.44043 0.03794 0.0
H2663 H 0.06667 0.48625 0.04747 0.0
C2664 C 0.02552 0.36907 0.9935 0.0
C2665 C 0.03728 0.35661 0.97638 0.0
C2666 C 0.03142 0.39513 1.00137 0.0
C2667 C 0.04891 0.40941 0.99189 0.0
C2668 C 0.06098 0.39692 0.97526 0.0
C2669 C 0.0554 0.37087 0.96781 0.0
C2670 C 0.06076 0.47701 0.98454 0.0
C2671 C 0.06452 0.49024 1.00917 0.0
C2672 C 0.05557 0.45092 0.9791 0.0
C2673 C 0.05391 0.43726 0.99814 0.0
C2674 C 0.05743 0.45042 0.02285 0.0
C2675 C 0.06308 0.47666 0.02832 0.0
H2676 H 0.06291 0.85035 0.19142 0.0
H2677 H 0.02179 0.78749 0.14049 0.0
H2678 H 0.03437 0.84907 0.2196 0.0
H2679 H 0.99382 0.78544 0.16887 0.0
H2680 H 0.93864 0.79762 0.21391 0.0
H2681 H 0.96652 0.80373 0.18564 0.0
H2682 H 0.01699 0.82694 0.24766 0.0
H2683 H 0.98901 0.82266 0.27596 0.0
C2684 C 0.04785 0.83617 0.1863 0.0
C2685 C 0.04467 0.81908 0.16364 0.0
C2686 C 0.03146 0.83532 0.20253 0.0
C2687 C 1.01157 0.81717 0.19665 0.0
C2688 C 1.00857 0.80007 0.17397 0.0
C2689 C 0.02478 0.80111 0.15768 0.0
C2690 C 0.95562 0.80453 0.22162 0.0
C2691 C 0.9614 0.80942 0.24738 0.0
C2692 C 0.97175 0.80766 0.2053 0.0
C2693 C 0.99422 0.81554 0.21418 0.0
C2694 C 0.99995 0.82103 0.23996 0.0
C2695 C 0.98381 0.81816 0.25628 0.0
H2696 H 0.58083 0.30669 0.12232 0.0
H2697 H 0.53509 0.34913 0.15279 0.0
H2698 H 0.58871 0.33386 0.09276 0.0
H2699 H 0.54339 0.37672 0.12353 0.0
H2700 H 0.54382 0.40073 0.04827 0.0
H2701 H 0.53693 0.37512 0.07941 0.0
H2702 H 0.6061 0.37588 0.08968 0.0
H2703 H 0.61296 0.40143 0.05842 0.0
C2704 C 0.57264 0.322 0.12292 0.0
C2705 C 0.5573 0.32571 0.1399 0.0
C2706 C 0.57725 0.33766 0.10602 0.0
C2707 C 0.56666 0.35744 0.10573 0.0
C2708 C 0.5516 0.36143 0.12302 0.0
C2709 C 0.54696 0.34572 0.13991 0.0
C2710 C 0.55758 0.39563 0.05736 0.0
C2711 C 0.57894 0.40312 0.05088 0.0
C2712 C 0.55364 0.38098 0.07524 0.0
C2713 C 0.57097 0.37348 0.08709 0.0
C2714 C 0.59234 0.38104 0.08066 0.0
C2715 C 0.59628 0.39567 0.06275 0.0
H2716 H 0.024 0.30346 0.37915 0.0
H2717 H 0.06548 0.30813 0.31986 0.0
H2718 H 0.99317 0.30707 0.35194 0.0
H2719 H 0.03442 0.31127 0.29245 0.0
H2720 H 0.98371 0.35336 0.26621 0.0
H2721 H 0.0138 0.34336 0.28972 0.0
H2722 H 0.96764 0.28699 0.31525 0.0
H2723 H 0.93747 0.29704 0.29168 0.0
C2724 C 0.02646 0.30484 0.36018 0.0
C2725 C 0.04726 0.30572 0.35175 0.0
C2726 C 1.00873 0.30677 0.34453 0.0
C2727 C 1.01138 0.30965 0.32008 0.0
C2728 C 0.03195 0.30947 0.31132 0.0
C2729 C 0.0497 0.3075 0.32698 0.0
C2730 C 0.98001 0.33858 0.27654 0.0
C2731 C 0.95819 0.32608 0.27717 0.0
C2732 C 0.99726 0.3328 0.28998 0.0
C2733 C 0.99312 0.31437 0.30437 0.0
C2734 C 0.97134 0.30151 0.30461 0.0
C2735 C 0.95407 0.3073 0.29116 0.0
H2736 H 0.01229 0.73802 0.61215 0.0
H2737 H 0.05291 0.72849 0.67445 0.0
H2738 H 0.02068 0.70131 0.58683 0.0
H2739 H 0.06202 0.69262 0.64903 0.0
H2740 H 0.05523 0.61424 0.60528 0.0
H2741 H 0.04647 0.65078 0.63025 0.0
H2742 H 0.04951 0.68661 0.56703 0.0
H2743 H 0.0578 0.64966 0.54213 0.0
C2744 C 0.02311 0.72818 0.62036 0.0
C2745 C 0.03183 0.73601 0.64529 0.0
C2746 C 0.02805 0.70726 0.60584 0.0
C2747 C 0.042 0.69397 0.61591 0.0
C2748 C 0.05087 0.70207 0.6408 0.0
C2749 C 0.04573 0.72273 0.65535 0.0
C2750 C 0.05419 0.63006 0.59687 0.0
C2751 C 0.05699 0.6292 0.5718 0.0
C2752 C 0.0492 0.651 0.61113 0.0
C2753 C 0.04724 0.67167 0.60065 0.0
C2754 C 0.05042 0.67084 0.57556 0.0
C2755 C 0.05516 0.64972 0.56126 0.0
H2756 H 0.69048 0.79392 0.88081 0.0
H2757 H 0.66796 0.83669 0.83067 0.0
H2758 H 0.72729 0.80456 0.86877 0.0
H2759 H 0.705 0.84754 0.81871 0.0
H2760 H 0.76863 0.83527 0.78399 0.0
H2761 H 0.73154 0.8306 0.79661 0.0
H2762 H 0.75818 0.83839 0.87259 0.0
H2763 H 0.79499 0.84174 0.85949 0.0
C2764 C 0.69336 0.80552 0.86712 0.0
C2765 C 0.67627 0.81444 0.85671 0.0
C2766 C 0.71456 0.81183 0.86036 0.0
C2767 C 0.7192 0.82707 0.84287 0.0
C2768 C 0.702 0.83564 0.83211 0.0
C2769 C 0.68077 0.82943 0.83899 0.0
C2770 C 0.76636 0.83565 0.80329 0.0
C2771 C 0.78425 0.83718 0.82055 0.0
C2772 C 0.74523 0.83348 0.81065 0.0
C2773 C 0.74179 0.83325 0.83553 0.0
C2774 C 0.76015 0.8375 0.85314 0.0
C2775 C 0.78123 0.83966 0.84572 0.0
H2776 H 0.49282 0.6291 0.70938 0.0
H2777 H 0.47745 0.55034 0.70869 0.0
H2778 H 0.50921 0.62189 0.67105 0.0
H2779 H 0.49476 0.54292 0.67013 0.0
H2780 H 0.51371 0.53419 0.58919 0.0
H2781 H 0.49633 0.54001 0.62755 0.0
H2782 H 0.53737 0.61409 0.64945 0.0
H2783 H 0.55377 0.60856 0.6107 0.0
C2784 C 0.49304 0.61005 0.70124 0.0
C2785 C 0.48359 0.59042 0.71284 0.0
C2786 C 0.50281 0.60585 0.67891 0.0
C2787 C 0.50396 0.58171 0.66673 0.0
C2788 C 0.49435 0.56189 0.67824 0.0
C2789 C 0.48439 0.56614 0.70072 0.0
C2790 C 0.51904 0.55182 0.60209 0.0
C2791 C 0.53554 0.57078 0.59631 0.0
C2792 C 0.50906 0.55515 0.62454 0.0
C2793 C 0.51501 0.57765 0.64247 0.0
C2794 C 0.53161 0.59653 0.63657 0.0
C2795 C 0.54147 0.59323 0.61411 0.0
H2796 H 0.80845 0.1952 0.96607 0.0
H2797 H 0.74789 0.14868 0.92684 0.0
H2798 H 0.80791 0.22437 0.93825 0.0
H2799 H 0.74653 0.17825 0.90009 0.0
H2800 H 0.75139 0.22689 0.84556 0.0
H2801 H 0.76008 0.19595 0.86811 0.0
H2802 H 0.78983 0.25496 0.93053 0.0
H2803 H 0.78255 0.28575 0.90688 0.0
C2804 C 0.79502 0.19124 0.9515 0.0
C2805 C 0.77819 0.1697 0.94865 0.0
C2806 C 0.79461 0.20803 0.93562 0.0
C2807 C 0.77714 0.20385 0.91685 0.0
C2808 C 0.76055 0.18198 0.91386 0.0
C2809 C 0.76119 0.16503 0.9294 0.0
C2810 C 0.76029 0.23311 0.86387 0.0
C2811 C 0.76634 0.25855 0.87457 0.0
C2812 C 0.76504 0.21543 0.87698 0.0
C2813 C 0.77529 0.22279 0.90145 0.0
C2814 C 0.78215 0.24846 0.91169 0.0
C2815 C 0.77789 0.26617 0.89825 0.0
H2816 H 0.19335 0.5292 0.18856 0.0
H2817 H 0.13179 0.50522 0.21763 0.0
H2818 H 0.17336 0.53187 0.15011 0.0
H2819 H 0.11189 0.50877 0.17972 0.0
H2820 H 0.13204 0.57047 0.10486 0.0
H2821 H 0.1526 0.56025 0.13889 0.0
H2822 H 0.10169 0.4943 0.13644 0.0
H2823 H 0.08077 0.50495 0.10282 0.0
C2824 C 0.17557 0.52419 0.18663 0.0
C2825 C 0.16416 0.51729 0.20625 0.0
C2826 C 0.16411 0.52594 0.16469 0.0
C2827 C 0.14102 0.52098 0.162 0.0
C2828 C 0.12965 0.51259 0.18106 0.0
C2829 C 0.1411 0.51065 0.20289 0.0
C2830 C 0.12523 0.55377 0.11154 0.0
C2831 C 0.10468 0.53866 0.10128 0.0
C2832 C 0.13714 0.54775 0.13092 0.0
C2833 C 0.12887 0.52636 0.14035 0.0
C2834 C 0.10843 0.51106 0.12983 0.0
C2835 C 0.09643 0.51718 0.11054 0.0
H2836 H 0.80075 0.88053 0.46753 0.0
H2837 H 0.85482 0.84413 0.47382 0.0
H2838 H 0.79623 0.86584 0.42283 0.0
H2839 H 0.85 0.82921 0.4288 0.0
H2840 H 0.81565 0.79266 0.34563 0.0
H2841 H 0.81958 0.80129 0.39129 0.0
H2842 H 0.82401 0.87937 0.39187 0.0
H2843 H 0.8207 0.87091 0.34676 0.0
C2844 C 0.81144 0.86904 0.45948 0.0
C2845 C 0.82831 0.86376 0.47428 0.0
C2846 C 0.80887 0.8607 0.43384 0.0
C2847 C 0.82291 0.84663 0.4224 0.0
C2848 C 0.83895 0.84001 0.43721 0.0
C2849 C 0.84172 0.84863 0.46294 0.0
C2850 C 0.81792 0.81167 0.35565 0.0
C2851 C 0.81833 0.83124 0.34281 0.0
C2852 C 0.82002 0.81658 0.38166 0.0
C2853 C 0.82189 0.84097 0.39501 0.0
C2854 C 0.82235 0.86038 0.38203 0.0
C2855 C 0.82057 0.85556 0.35626 0.0
H2856 H 0.51034 0.54828 0.83388 0.0
H2857 H 0.47083 0.59596 0.86929 0.0
H2858 H 0.5272 0.54585 0.8742 0.0
H2859 H 0.48771 0.5934 0.90999 0.0
H2860 H 0.50331 0.56037 0.97888 0.0
H2861 H 0.48859 0.56526 0.93857 0.0
H2862 H 0.55194 0.5662 0.91209 0.0
H2863 H 0.56689 0.56183 0.95314 0.0
C2864 C 0.50528 0.55854 0.85025 0.0
C2865 C 0.489 0.57244 0.84773 0.0
C2866 C 0.51517 0.55718 0.87367 0.0
C2867 C 0.50907 0.56927 0.89601 0.0
C2868 C 0.49296 0.58348 0.89356 0.0
C2869 C 0.48328 0.58519 0.87 0.0
C2870 C 0.51425 0.56154 0.96453 0.0
C2871 C 0.53635 0.56015 0.96964 0.0
C2872 C 0.50572 0.56459 0.94118 0.0
C2873 C 0.5188 0.56633 0.92143 0.0
C2874 C 0.54102 0.56481 0.92642 0.0
C2875 C 0.54969 0.56214 0.95011 0.0
H2876 H 0.77686 0.1648 0.08986 0.0
H2877 H 0.82392 0.22625 0.07319 0.0
H2878 H 0.77639 0.18875 0.13116 0.0
H2879 H 0.82409 0.24992 0.11484 0.0
H2880 H 0.80447 0.29565 0.18222 0.0
H2881 H 0.80211 0.27143 0.14041 0.0
H2882 H 0.79785 0.20435 0.16992 0.0
H2883 H 0.79963 0.22852 0.21155 0.0
C2884 C 0.78732 0.18333 0.09512 0.0
C2885 C 0.80045 0.19362 0.07824 0.0
C2886 C 0.78709 0.19706 0.11886 0.0
C2887 C 0.80014 0.22134 0.12638 0.0
C2888 C 0.81349 0.23148 0.10955 0.0
C2889 C 0.81355 0.21783 0.08572 0.0
C2890 C 0.80281 0.27569 0.17972 0.0
C2891 C 0.80234 0.26402 0.20021 0.0
C2892 C 0.80163 0.26181 0.15576 0.0
C2893 C 0.80004 0.23592 0.15174 0.0
C2894 C 0.79882 0.22418 0.17223 0.0
C2895 C 0.79985 0.23806 0.19617 0.0
H2896 H 0.17462 0.61561 0.32823 0.0
H2897 H 0.14534 0.53722 0.30312 0.0
H2898 H 0.14078 0.62187 0.34525 0.0
H2899 H 0.11193 0.54322 0.3209 0.0
H2900 H 0.05032 0.55759 0.3464 0.0
H2901 H 0.08014 0.56047 0.31986 0.0
H2902 H 0.12328 0.61182 0.3799 0.0
H2903 H 0.09332 0.60978 0.40569 0.0
C2904 C 0.16098 0.59971 0.32643 0.0
C2905 C 0.16272 0.57587 0.31466 0.0
C2906 C 0.14158 0.6033 0.33613 0.0
C2907 C 0.12362 0.58306 0.33449 0.0
C2908 C 0.12524 0.55934 0.3221 0.0
C2909 C 0.14453 0.55581 0.31219 0.0
C2910 C 0.06597 0.57018 0.35349 0.0
C2911 C 0.06971 0.58311 0.37817 0.0
C2912 C 0.08312 0.5716 0.33846 0.0
C2913 C 0.10425 0.5859 0.34795 0.0
C2914 C 0.10728 0.60065 0.37189 0.0
C2915 C 0.09015 0.59934 0.38679 0.0
H2916 H 0.81929 0.83094 0.58698 0.0
H2917 H 0.82096 0.90747 0.6202 0.0
H2918 H 0.81767 0.81987 0.62768 0.0
H2919 H 0.819 0.89631 0.66073 0.0
H2920 H 0.84182 0.87178 0.73172 0.0
H2921 H 0.84206 0.88332 0.69108 0.0
H2922 H 0.79344 0.81585 0.66017 0.0
H2923 H 0.79402 0.80399 0.7004 0.0
C2924 C 0.81917 0.84537 0.60291 0.0
C2925 C 0.82029 0.87009 0.60029 0.0
C2926 C 0.81812 0.839 0.62623 0.0
C2927 C 0.81822 0.85722 0.64749 0.0
C2928 C 0.81917 0.88189 0.64481 0.0
C2929 C 0.82016 0.88825 0.62151 0.0
C2930 C 0.83101 0.85963 0.71625 0.0
C2931 C 0.8173 0.83743 0.71944 0.0
C2932 C 0.83107 0.86624 0.69301 0.0
C2933 C 0.81763 0.8506 0.67238 0.0
C2934 C 0.80398 0.82833 0.67564 0.0
C2935 C 0.80389 0.82179 0.6989 0.0
H2936 H 0.80822 0.54151 0.54343 0.0
H2937 H 0.75376 0.48397 0.5536 0.0
H2938 H 0.78665 0.57276 0.55431 0.0
H2939 H 0.73201 0.51495 0.56364 0.0
H2940 H 0.70062 0.57464 0.59688 0.0
H2941 H 0.72802 0.54923 0.59413 0.0
H2942 H 0.7558 0.58562 0.53702 0.0
H2943 H 0.72882 0.61161 0.54062 0.0
C2944 C 0.79162 0.53552 0.54791 0.0
C2945 C 0.78265 0.51025 0.54758 0.0
C2946 C 0.77926 0.55343 0.5541 0.0
C2947 C 0.75763 0.54642 0.55996 0.0
C2948 C 0.74877 0.52113 0.55976 0.0
C2949 C 0.76117 0.50329 0.55376 0.0
C2950 C 0.71302 0.57759 0.58426 0.0
C2951 C 0.71268 0.59491 0.56889 0.0
C2952 C 0.72854 0.5629 0.58247 0.0
C2953 C 0.7438 0.56499 0.56497 0.0
C2954 C 0.74437 0.58359 0.55079 0.0
C2955 C 0.72896 0.59851 0.55283 0.0
H2956 H 0.24056 0.12684 0.48802 0.0
H2957 H 0.22176 0.18681 0.53665 0.0
H2958 H 0.20346 0.10135 0.48543 0.0
H2959 H 0.1852 0.16116 0.53508 0.0
H2960 H 0.11604 0.11855 0.51474 0.0
H2961 H 0.15191 0.14349 0.51072 0.0
H2962 H 0.1798 0.07874 0.50907 0.0
H2963 H 0.14359 0.05373 0.51211 0.0
C2964 C 0.22851 0.13455 0.49817 0.0
C2965 C 0.23407 0.15883 0.51251 0.0
C2966 C 0.20727 0.1199 0.49683 0.0
C2967 C 0.19123 0.12912 0.51004 0.0
C2968 C 0.19688 0.15353 0.5242 0.0
C2969 C 0.21796 0.16825 0.52526 0.0
C2970 C 0.12985 0.10966 0.51329 0.0
C2971 C 0.12709 0.08423 0.51365 0.0
C2972 C 0.15045 0.12396 0.51113 0.0
C2973 C 0.16891 0.11326 0.50984 0.0
C2974 C 0.16596 0.08758 0.50963 0.0
C2975 C 0.14521 0.07319 0.51137 0.0
H2976 H 0.21988 0.93578 0.7263 0.0
H2977 H 0.23554 0.96812 0.80394 0.0
H2978 H 0.23966 0.90363 0.73092 0.0
H2979 H 0.25602 0.93594 0.80864 0.0
H2980 H 0.27471 0.86135 0.81598 0.0
H2981 H 0.25745 0.8957 0.81165 0.0
H2982 H 0.27048 0.8873 0.7352 0.0
H2983 H 0.28736 0.85211 0.73965 0.0
C2984 C 0.22765 0.93631 0.74455 0.0
C2985 C 0.22566 0.95517 0.7647 0.0
C2986 C 0.23939 0.91757 0.74718 0.0
C2987 C 0.24997 0.91634 0.7702 0.0
C2988 C 0.24814 0.93536 0.79046 0.0
C2989 C 0.23633 0.95425 0.78779 0.0
C2990 C 0.27416 0.86689 0.79818 0.0
C2991 C 0.28294 0.85364 0.77834 0.0
C2992 C 0.26418 0.88702 0.79568 0.0
C2993 C 0.26208 0.89514 0.77301 0.0
C2994 C 0.27114 0.882 0.75306 0.0
C2995 C 0.28124 0.86172 0.75562 0.0
H2996 H 0.39217 1.0176 0.08019 0.0
H2997 H 0.38092 0.96288 0.01188 0.0
H2998 H 0.43111 0.0292 0.07416 0.0
H2999 H 0.41981 0.97423 1.00625 0.0
H3000 H 0.49441 0.97823 0.02941 0.0
H3001 H 0.45487 0.96933 0.03344 0.0
H3002 H 0.45544 0.04757 0.04113 0.0
H3003 H 0.49477 0.05637 0.03699 0.0
C3004 C 0.39793 1.00828 0.06378 0.0
C3005 C 0.38348 0.98931 0.04656 0.0
C3006 C 0.42017 1.01492 0.06035 0.0
C3007 C 0.42838 1.00238 0.03989 0.0
C3008 C 0.41386 0.98396 0.0223 0.0
C3009 C 0.39159 0.97764 0.02547 0.0
C3010 C 0.48599 0.99342 0.03182 0.0
C3011 C 0.49741 1.01783 0.03208 0.0
C3012 C 0.46345 0.98837 0.03404 0.0
C3013 C 0.45217 1.00778 0.03735 0.0
C3014 C 0.46378 0.03231 0.0385 0.0
C3015 C 0.48621 0.03729 0.03586 0.0
H3016 H 0.92683 0.66445 0.80623 0.0
H3017 H 0.87455 0.59824 0.78585 0.0
H3018 H 0.9043 0.6877 0.78642 0.0
H3019 H 0.85228 0.62137 0.76576 0.0
H3020 H 0.81106 0.67569 0.74966 0.0
H3021 H 0.83278 0.65506 0.77391 0.0
H3022 H 0.89113 0.68766 0.74337 0.0
H3023 H 0.86945 0.70879 0.7196 0.0
C3024 C 0.91047 0.65492 0.79775 0.0
C3025 C 0.90252 0.62947 0.79748 0.0
C3026 C 0.89766 0.66819 0.78625 0.0
C3027 C 0.87663 0.65629 0.77436 0.0
C3028 C 0.86836 0.6311 0.77494 0.0
C3029 C 0.88117 0.61783 0.78638 0.0
C3030 C 0.82855 0.67848 0.74823 0.0
C3031 C 0.83857 0.69366 0.73265 0.0
C3032 C 0.84094 0.6666 0.76199 0.0
C3033 C 0.86363 0.66972 0.76052 0.0
C3034 C 0.8737 0.68508 0.74507 0.0
C3035 C 0.86127 0.69689 0.7312 0.0
H3036 H 0.89219 0.67613 1.00831 0.0
H3037 H 0.83819 0.63027 0.03523 0.0
H3038 H 0.91602 0.64903 0.01797 0.0
H3039 H 0.86194 0.60293 0.04446 0.0
H3040 H 0.91785 0.57696 0.08335 0.0
H3041 H 0.89326 0.6031 0.07313 0.0
H3042 H 0.92157 0.60714 1.00433 0.0
H3043 H 0.94613 0.58102 0.01455 0.0
C3044 C 0.88536 0.6602 0.01617 0.0
C3045 C 0.86328 0.6554 0.02101 0.0
C3046 C 0.899 0.64457 0.02158 0.0
C3047 C 0.89089 0.62378 0.03197 0.0
C3048 C 0.86879 0.61895 0.03675 0.0
C3049 C 0.85514 0.63457 0.03132 0.0
C3050 C 0.91865 0.58319 0.06592 0.0
C3051 C 0.93402 0.57697 0.04982 0.0
C3052 C 0.90456 0.59819 0.06005 0.0
C3053 C 0.9055 0.60731 0.03795 0.0
C3054 C 0.92068 0.60081 0.02171 0.0
C3055 C 0.93475 0.58582 0.02757 0.0
H3056 H 0.23742 0.1038 0.80854 0.0
H3057 H 0.22578 0.10152 0.73025 0.0
H3058 H 0.25711 0.14776 0.81449 0.0
H3059 H 0.2453 0.14461 0.73605 0.0
H3060 H 0.25961 0.22866 0.75421 0.0
H3061 H 0.24131 0.18549 0.75149 0.0
H3062 H 0.28971 0.17852 0.80748 0.0
H3063 H 0.30799 0.22245 0.8106 0.0
C3064 C 0.2391 0.11247 0.79256 0.0
C3065 C 0.22971 0.09869 0.76889 0.0
C3066 C 0.25051 0.13781 0.79595 0.0
C3067 C 0.25277 0.15033 0.77584 0.0
C3068 C 0.24368 0.13625 0.75224 0.0
C3069 C 0.23248 0.11115 0.74886 0.0
C3070 C 0.26656 0.21815 0.76603 0.0
C3071 C 0.28574 0.22947 0.78235 0.0
C3072 C 0.25599 0.193 0.76434 0.0
C3073 C 0.26398 0.17784 0.77895 0.0
C3074 C 0.28287 0.18927 0.79583 0.0
C3075 C 0.29357 0.21458 0.79745 0.0
H3076 H 0.39148 0.97953 0.22909 0.0
H3077 H 0.39304 0.98518 0.3083 0.0
H3078 H 0.37487 0.93518 0.22284 0.0
H3079 H 0.37637 0.94106 0.30204 0.0
H3080 H 0.36595 0.85752 0.28487 0.0
H3081 H 0.3842 0.90119 0.28911 0.0
H3082 H 0.34176 0.90648 0.22619 0.0
H3083 H 0.32411 0.8624 0.22161 0.0
C3084 C 0.38812 0.97136 0.24515 0.0
C3085 C 0.39354 0.98588 0.26919 0.0
C3086 C 0.37854 0.94594 0.24156 0.0
C3087 C 0.37427 0.93451 0.26193 0.0
C3088 C 0.37959 0.94915 0.28593 0.0
C3089 C 0.38903 0.97454 0.28953 0.0
C3090 C 0.36047 0.86815 0.27212 0.0
C3091 C 0.34314 0.85708 0.25351 0.0
C3092 C 0.37091 0.89313 0.27449 0.0
C3093 C 0.36417 0.9075 0.25828 0.0
C3094 C 0.34738 0.89598 0.23898 0.0
C3095 C 0.33715 0.87087 0.23644 0.0
H3096 H 0.61567 0.42988 0.63741 0.0
H3097 H 0.5827 0.37754 0.57188 0.0
H3098 H 0.60881 0.46415 0.61927 0.0
H3099 H 0.57532 0.41246 0.55358 0.0
H3100 H 0.58635 0.48947 0.52366 0.0
H3101 H 0.5914 0.45105 0.53713 0.0
H3102 H 0.57818 0.48145 0.61076 0.0
H3103 H 0.57372 0.51934 0.59751 0.0
C3104 C 0.60688 0.42557 0.61905 0.0
C3105 C 0.59962 0.40068 0.60633 0.0
C3106 C 0.60277 0.4454 0.60863 0.0
C3107 C 0.59108 0.44131 0.58503 0.0
C3108 C 0.58437 0.41646 0.57178 0.0
C3109 C 0.58856 0.3964 0.58231 0.0
C3110 C 0.58417 0.4876 0.54256 0.0
C3111 C 0.57946 0.50741 0.55948 0.0
C3112 C 0.58711 0.46562 0.55035 0.0
C3113 C 0.58566 0.46314 0.57526 0.0
C3114 C 0.58005 0.4827 0.59165 0.0
C3115 C 0.57726 0.50445 0.58398 0.0
H3116 H 0.4769 0.76554 0.36369 0.0
H3117 H 0.45587 0.81418 0.42279 0.0
H3118 H 0.44559 0.7679 0.33589 0.0
H3119 H 0.42459 0.81614 0.3954 0.0
H3120 H 0.38418 0.83729 0.33484 0.0
H3121 H 0.41579 0.83389 0.361 0.0
H3122 H 0.40621 0.75629 0.3264 0.0
H3123 H 0.37468 0.75979 0.30004 0.0
C3124 C 0.46551 0.77651 0.37086 0.0
C3125 C 0.46907 0.78972 0.39554 0.0
C3126 C 0.44748 0.77784 0.35491 0.0
C3127 C 0.43252 0.79245 0.36319 0.0
C3128 C 0.4359 0.80515 0.38805 0.0
C3129 C 0.45385 0.80384 0.40391 0.0
C3130 C 0.38865 0.81941 0.33289 0.0
C3131 C 0.37641 0.79869 0.31558 0.0
C3132 C 0.40686 0.81744 0.34798 0.0
C3133 C 0.41356 0.79469 0.3462 0.0
C3134 C 0.40173 0.77415 0.32834 0.0
C3135 C 0.38347 0.77614 0.31324 0.0
H3136 H 0.07423 0.75111 0.11123 0.0
H3137 H 0.12655 0.75046 0.06411 0.0
H3138 H 0.06565 0.70553 0.1032 0.0
H3139 H 0.11755 0.70475 0.05564 0.0
H3140 H 0.08023 0.62787 0.10923 0.0
H3141 H 0.0876 0.67332 0.11456 0.0
H3142 H 0.08426 0.66682 0.03534 0.0
H3143 H 0.07598 0.62126 0.02999 0.0
C3144 C 0.08365 0.74128 0.0988 0.0
C3145 C 0.10108 0.75455 0.0883 0.0
C3146 C 0.07883 0.71513 0.09435 0.0
C3147 C 0.09099 0.7015 0.07889 0.0
C3148 C 0.10784 0.71469 0.06759 0.0
C3149 C 0.11299 0.74089 0.07246 0.0
C3150 C 0.08115 0.63615 0.09295 0.0
C3151 C 0.07816 0.62093 0.06922 0.0
C3152 C 0.08527 0.66217 0.096 0.0
C3153 C 0.08659 0.67372 0.07539 0.0
C3154 C 0.08355 0.65853 0.0516 0.0
C3155 C 0.07898 0.63242 0.04854 0.0
H3156 H 0.07181 0.26531 0.86421 0.0
H3157 H 0.11425 0.32662 0.91573 0.0
H3158 H 0.10023 0.266 0.8359 0.0
H3159 H 0.14213 0.32817 0.8872 0.0
H3160 H 0.1969 0.31374 0.84223 0.0
H3161 H 0.16876 0.3089 0.87034 0.0
H3162 H 0.11852 0.28753 0.8081 0.0
H3163 H 0.14669 0.29045 0.77996 0.0
C3164 C 0.08712 0.27908 0.8694 0.0
C3165 C 0.09074 0.29584 0.8923 0.0
C3166 C 0.10345 0.27959 0.8531 0.0
C3167 C 0.12372 0.29709 0.85914 0.0
C3168 C 0.12709 0.314 0.88198 0.0
C3169 C 0.11093 0.31327 0.89835 0.0
C3170 C 0.1799 0.3075 0.83443 0.0
C3171 C 0.17425 0.30268 0.80866 0.0
C3172 C 0.16362 0.30511 0.85067 0.0
C3173 C 0.14115 0.29811 0.84169 0.0
C3174 C 0.13554 0.29277 0.81588 0.0
C3175 C 0.15181 0.29486 0.79965 0.0
H3176 H 0.63877 0.79937 0.96162 0.0
H3177 H 0.57636 0.76753 0.91769 0.0
H3178 H 0.62761 0.77429 0.99226 0.0
H3179 H 0.56461 0.74351 0.94887 0.0
H3180 H 0.56011 0.68267 0.99352 0.0
H3181 H 0.56996 0.70925 0.96421 0.0
H3182 H 0.60506 0.76822 0.02394 0.0
H3183 H 0.59661 0.74061 0.05318 0.0
C3184 C 0.62259 0.78711 0.95863 0.0
C3185 C 0.60852 0.78519 0.93716 0.0
C3186 C 0.61606 0.77292 0.97633 0.0
C3187 C 0.59515 0.75679 0.97317 0.0
C3188 C 0.581 0.75526 0.95178 0.0
C3189 C 0.58769 0.76909 0.93388 0.0
C3190 C 0.57012 0.70123 1.00044 0.0
C3191 C 0.57794 0.7093 0.02568 0.0
C3192 C 0.57549 0.7167 0.98361 0.0
C3193 C 0.58845 0.74095 0.99156 0.0
C3194 C 0.59543 0.74948 0.01702 0.0
C3195 C 0.5903 0.73379 0.03388 0.0
H3196 H 0.09345 0.80791 0.74994 0.0
H3197 H 0.05742 0.74066 0.76935 0.0
H3198 H 0.12784 0.79787 0.76293 0.0
H3199 H 0.09188 0.73092 0.78296 0.0
H3200 H 0.1552 0.70422 0.7631 0.0
H3201 H 0.12019 0.7166 0.76065 0.0
H3202 H 0.15258 0.79211 0.79556 0.0
H3203 H 0.18769 0.77969 0.79773 0.0
C3204 C 0.09284 0.79132 0.7576 0.0
C3205 C 0.0727 0.7749 0.75828 0.0
C3206 C 0.1126 0.78559 0.76515 0.0
C3207 C 0.11264 0.76339 0.77366 0.0
C3208 C 0.09243 0.74789 0.77599 0.0
C3209 C 0.07267 0.75358 0.76836 0.0
C3210 C 0.15477 0.72335 0.77066 0.0
C3211 C 0.17421 0.74102 0.78039 0.0
C3212 C 0.13468 0.73047 0.76934 0.0
C3213 C 0.13357 0.7554 0.77783 0.0
C3214 C 0.15291 0.77285 0.78849 0.0
C3215 C 0.17301 0.76575 0.78973 0.0
H3216 H 0.08892 0.40688 0.38505 0.0
H3217 H 0.11153 0.38133 0.44939 0.0
H3218 H 0.0821 0.44362 0.41196 0.0
H3219 H 0.10438 0.41775 0.47615 0.0
H3220 H 0.04803 0.48835 0.46939 0.0
H3221 H 0.05612 0.45254 0.44247 0.0
H3222 H 0.11804 0.46322 0.48687 0.0
H3223 H 0.11002 0.49895 0.5139 0.0
C3224 C 0.0925 0.40914 0.40489 0.0
C3225 C 0.10071 0.39121 0.4151 0.0
C3226 C 0.08845 0.43007 0.42028 0.0
C3227 C 0.09263 0.43345 0.44613 0.0
C3228 C 0.10121 0.41574 0.45628 0.0
C3229 C 0.1052 0.39483 0.44094 0.0
C3230 C 0.06334 0.48304 0.47349 0.0
C3231 C 0.0783 0.4964 0.49392 0.0
C3232 C 0.06803 0.46263 0.45795 0.0
C3233 C 0.08773 0.45517 0.46254 0.0
C3234 C 0.10262 0.4684 0.48305 0.0
C3235 C 0.09797 0.48885 0.49856 0.0
H3236 H 0.4758 0.28602 0.24245 0.0
H3237 H 0.44299 0.28709 0.17144 0.0
H3238 H 0.4408 0.28245 0.26011 0.0
H3239 H 0.40809 0.28308 0.18899 0.0
H3240 H 0.35501 0.30431 0.2361 0.0
H3241 H 0.38982 0.30759 0.2185 0.0
H3242 H 0.40543 0.25181 0.25719 0.0
H3243 H 0.37073 0.24952 0.27577 0.0
C3244 C 0.46115 0.28554 0.23063 0.0
C3245 C 0.46218 0.28686 0.20554 0.0
C3246 C 0.44109 0.28327 0.2407 0.0
C3247 C 0.42169 0.28233 0.2259 0.0
C3248 C 0.42279 0.28397 0.20091 0.0
C3249 C 0.4428 0.28621 0.19085 0.0
C3250 C 0.36591 0.29287 0.24095 0.0
C3251 C 0.3604 0.27689 0.25752 0.0
C3252 C 0.38575 0.29452 0.23064 0.0
C3253 C 0.40039 0.27998 0.23647 0.0
C3254 C 0.39458 0.26346 0.25257 0.0
C3255 C 0.37467 0.26188 0.26294 0.0
H3256 H 0.61356 0.50011 0.32913 0.0
H3257 H 0.67622 0.54579 0.36279 0.0
H3258 H 0.59853 0.50664 0.36851 0.0
H3259 H 0.66108 0.55219 0.40294 0.0
H3260 H 0.62102 0.57697 0.46859 0.0
H3261 H 0.63793 0.5708 0.42986 0.0
H3262 H 0.59537 0.49768 0.40773 0.0
H3263 H 0.57855 0.50397 0.44629 0.0
C3264 C 0.62438 0.51152 0.34496 0.0
C3265 C 0.6464 0.52226 0.34208 0.0
C3266 C 0.61561 0.51518 0.36802 0.0
C3267 C 0.62827 0.52992 0.38979 0.0
C3268 C 0.65039 0.54084 0.38701 0.0
C3269 C 0.65926 0.53702 0.36376 0.0
C3270 C 0.61518 0.5595 0.45554 0.0
C3271 C 0.5979 0.54119 0.46104 0.0
C3272 C 0.6251 0.55585 0.43306 0.0
C3273 C 0.61823 0.53372 0.41475 0.0
C3274 C 0.60116 0.5153 0.42053 0.0
C3275 C 0.59134 0.51891 0.44302 0.0
H3276 H 0.38093 0.89706 0.07201 0.0
H3277 H 0.33128 0.92031 0.11564 0.0
H3278 H 0.39532 0.88119 0.10644 0.0
H3279 H 0.34561 0.90417 0.15003 0.0
H3280 H 0.38801 0.89023 0.21403 0.0
H3281 H 0.37862 0.91101 0.18071 0.0
H3282 H 0.38172 0.84594 0.12663 0.0
H3283 H 0.39126 0.82541 0.1598 0.0
C3284 C 0.37309 0.89882 0.08895 0.0
C3285 C 0.35484 0.90977 0.09102 0.0
C3286 C 0.38133 0.88969 0.10865 0.0
C3287 C 0.37158 0.89141 0.1309 0.0
C3288 C 0.35362 0.90284 0.13319 0.0
C3289 C 0.3453 0.91187 0.11342 0.0
C3290 C 0.38708 0.88063 0.19499 0.0
C3291 C 0.39023 0.85619 0.18944 0.0
C3292 C 0.38151 0.8924 0.17598 0.0
C3293 C 0.37929 0.88003 0.1511 0.0
C3294 C 0.38345 0.85602 0.14559 0.0
C3295 C 0.3888 0.84421 0.16456 0.0
H3296 H 1.00343 0.56 0.85145 0.0
H3297 H 0.95202 0.58263 0.89237 0.0
H3298 H 0.02624 0.56426 0.89022 0.0
H3299 H 0.97485 0.58646 0.9313 0.0
H3300 H 0.06622 0.59377 0.96705 0.0
H3301 H 0.04484 0.59874 0.93034 0.0
H3302 H 0.98787 0.54968 0.94817 0.0
H3303 H 1.00912 0.54379 0.98403 0.0
C3304 C 0.99709 0.56603 0.86876 0.0
C3305 C 0.9759 0.57069 0.86904 0.0
C3306 C 1.01022 0.56871 0.89085 0.0
C3307 C 1.00221 0.57568 0.91356 0.0
C3308 C 0.98128 0.58106 0.9139 0.0
C3309 C 0.96828 0.57885 0.89173 0.0
C3310 C 0.04922 0.58387 0.96304 0.0
C3311 C 0.03957 0.56794 0.9782 0.0
C3312 C 0.03698 0.58693 0.9422 0.0
C3313 C 0.01478 0.57466 0.93666 0.0
C3314 C 1.00492 0.55955 0.95228 0.0
C3315 C 0.0172 0.55607 0.97274 0.0
H3316 H 0.34192 0.27074 0.58925 0.0
H3317 H 0.28317 0.21393 0.58794 0.0
H3318 H 0.34012 0.28641 0.63327 0.0
H3319 H 0.2813 0.22977 0.63157 0.0
H3320 H 0.31049 0.23668 0.7125 0.0
H3321 H 0.30607 0.227 0.66744 0.0
H3322 H 0.31826 0.30559 0.66618 0.0
H3323 H 0.32274 0.31524 0.71178 0.0
C3324 C 0.32843 0.26188 0.5982 0.0
C3325 C 0.31295 0.24078 0.58522 0.0
C3326 C 0.32733 0.27096 0.62336 0.0
C3327 C 0.31072 0.25909 0.6359 0.0
C3328 C 0.29449 0.23901 0.62248 0.0
C3329 C 0.2956 0.22994 0.59747 0.0
C3330 C 0.31179 0.25184 0.70255 0.0
C3331 C 0.31644 0.27661 0.71542 0.0
C3332 C 0.30919 0.24634 0.67679 0.0
C3333 C 0.31166 0.26554 0.66327 0.0
C3334 C 0.31627 0.29045 0.67616 0.0
C3335 C 0.31861 0.29596 0.70213 0.0
H3336 H 0.63468 0.53834 0.21752 0.0
H3337 H 0.68149 0.51006 0.17322 0.0
H3338 H 0.61484 0.54443 0.17971 0.0
H3339 H 0.66181 0.51522 0.13616 0.0
H3340 H 0.63877 0.54607 0.07288 0.0
H3341 H 0.65563 0.54278 0.11254 0.0
H3342 H 0.59209 0.53073 0.13993 0.0
H3343 H 0.57518 0.53498 0.09964 0.0
C3344 C 0.64068 0.53309 0.19984 0.0
C3345 C 0.66007 0.52377 0.19901 0.0
C3346 C 0.62922 0.53662 0.17789 0.0
C3347 C 0.63664 0.53099 0.15416 0.0
C3348 C 0.65555 0.52085 0.15358 0.0
C3349 C 0.66693 0.51754 0.17524 0.0
C3350 C 0.62826 0.543 0.08736 0.0
C3351 C 0.60549 0.54099 0.0826 0.0
C3352 C 0.63801 0.54071 0.11039 0.0
C3353 C 0.62552 0.53567 0.13008 0.0
C3354 C 0.60263 0.53449 0.12568 0.0
C3355 C 0.5928 0.53701 0.10239 0.0
H3356 H 0.29854 0.92667 0.9442 0.0
H3357 H 0.31942 0.87461 0.98437 0.0
H3358 H 0.30303 0.90073 0.90536 0.0
H3359 H 0.32442 0.84883 0.94534 0.0
H3360 H 0.3115 0.79926 0.86564 0.0
H3361 H 0.30622 0.82201 0.90616 0.0
H3362 H 0.33423 0.89146 0.88498 0.0
H3363 H 0.33857 0.86902 0.8445 0.0
C3364 C 0.30398 0.9096 0.94474 0.0
C3365 C 0.3088 0.90283 0.96739 0.0
C3366 C 0.30674 0.89482 0.92247 0.0
C3367 C 0.31452 0.87295 0.92227 0.0
C3368 C 0.31839 0.86554 0.94485 0.0
C3369 C 0.31554 0.88033 0.96721 0.0
C3370 C 0.31632 0.81939 0.86958 0.0
C3371 C 0.32448 0.83231 0.85135 0.0
C3372 C 0.31353 0.83241 0.89291 0.0
C3373 C 0.31917 0.85862 0.89854 0.0
C3374 C 0.32894 0.87134 0.88095 0.0
C3375 C 0.33159 0.85838 0.85771 0.0
H3376 H 0.01805 0.6076 0.81031 0.0
H3377 H 0.97192 0.58331 0.74432 0.0
H3378 H 0.04863 0.60828 0.78469 0.0
H3379 H 1.00249 0.58463 0.71884 0.0
H3380 H 0.06276 0.61413 0.68223 0.0
H3381 H 0.03688 0.62108 0.71249 0.0
H3382 H 0.05899 0.56952 0.75218 0.0
H3383 H 0.08434 0.56162 0.72131 0.0
C3384 C 0.01448 0.60279 0.79035 0.0
C3385 C 0.99268 0.5954 0.77921 0.0
C3386 C 0.03193 0.6031 0.7758 0.0
C3387 C 0.02778 0.59662 0.74994 0.0
C3388 C 1.00601 0.5899 0.7388 0.0
C3389 C 0.98859 0.58905 0.75332 0.0
C3390 C 0.06225 0.6044 0.69751 0.0
C3391 C 0.07522 0.58688 0.69909 0.0
C3392 C 0.04754 0.6085 0.71483 0.0
C3393 C 0.04589 0.5956 0.73434 0.0
C3394 C 0.0601 0.57969 0.73723 0.0
C3395 C 0.07463 0.57526 0.71963 0.0
H3396 H 0.33174 0.23794 0.46758 0.0
H3397 H 0.28378 0.17786 0.42078 0.0
H3398 H 0.33809 0.25835 0.43233 0.0
H3399 H 0.28943 0.19853 0.386 0.0
H3400 H 0.31659 0.22795 0.32185 0.0
H3401 H 0.3148 0.20821 0.35768 0.0
H3402 H 0.3216 0.28015 0.40566 0.0
H3403 H 0.32405 0.29984 0.36964 0.0
C3404 C 0.32249 0.22916 0.44981 0.0
C3405 C 0.30733 0.20623 0.44696 0.0
C3406 C 0.32604 0.24091 0.42962 0.0
C3407 C 0.31439 0.23005 0.4062 0.0
C3408 C 0.29911 0.2072 0.40354 0.0
C3409 C 0.29573 0.1954 0.42359 0.0
C3410 C 0.31777 0.23952 0.34008 0.0
C3411 C 0.3202 0.26539 0.34297 0.0
C3412 C 0.31667 0.22822 0.36064 0.0
C3413 C 0.31769 0.2425 0.38462 0.0
C3414 C 0.32093 0.26855 0.38755 0.0
C3415 C 0.3223 0.27988 0.36692 0.0
H3416 H 0.32634 0.58949 0.48877 0.0
H3417 H 0.38441 0.64904 0.50925 0.0
H3418 H 0.34937 0.55924 0.48148 0.0
H3419 H 0.40736 0.61878 0.50245 0.0
H3420 H 0.44379 0.56268 0.46797 0.0
H3421 H 0.41844 0.59048 0.46964 0.0
H3422 H 0.37399 0.54105 0.50491 0.0
H3423 H 0.39935 0.51305 0.50291 0.0
C3424 C 0.34402 0.59614 0.49172 0.0
C3425 C 0.35355 0.6217 0.4996 0.0
C3426 C 0.3572 0.57877 0.48765 0.0
C3427 C 0.3802 0.58657 0.49131 0.0
C3428 C 0.3897 0.61216 0.49904 0.0
C3429 C 0.37653 0.62951 0.50311 0.0
C3430 C 0.42849 0.55766 0.47586 0.0
C3431 C 0.42362 0.53585 0.48554 0.0
C3432 C 0.41402 0.57363 0.47693 0.0
C3433 C 0.39436 0.5682 0.48777 0.0
C3434 C 0.38895 0.54571 0.49632 0.0
C3435 C 0.40344 0.52965 0.49516 0.0
H3436 H 0.88889 0.97604 0.55595 0.0
H3437 H 0.91214 0.90827 0.5537 0.0
H3438 H 0.92652 0.99909 0.55493 0.0
H3439 H 0.94962 0.93129 0.55207 0.0
H3440 H 1.0018 0.97861 0.51038 0.0
H3441 H 0.96582 0.95549 0.51667 0.0
H3442 H 0.96603 1.00848 0.58396 0.0
H3443 H 1.00266 0.03115 0.57846 0.0
C3444 C 0.90203 0.96611 0.55533 0.0
C3445 C 0.8976 0.94036 0.55483 0.0
C3446 C 0.92352 0.97932 0.5549 0.0
C3447 C 0.94084 0.96689 0.55343 0.0
C3448 C 0.93647 0.94122 0.55319 0.0
C3449 C 0.91507 0.92812 0.55417 0.0
C3450 C 0.99432 0.9854 0.52661 0.0
C3451 C 1.00492 1.00723 0.54358 0.0
C3452 C 0.97374 0.97204 0.53021 0.0
C3453 C 0.96318 0.98039 0.55065 0.0
C3454 C 0.97381 1.0019 0.56789 0.0
C3455 C 0.99468 1.01497 0.5646 0.0
H3456 H 0.89953 0.14591 0.30473 0.0
H3457 H 0.92254 0.16072 0.23599 0.0
H3458 H 0.87896 0.17935 0.30577 0.0
H3459 H 0.90287 0.1936 0.2372 0.0
H3460 H 0.85206 0.23805 0.22807 0.0
H3461 H 0.86964 0.20366 0.23056 0.0
H3462 H 0.8765 0.22369 0.31026 0.0
H3463 H 0.85811 0.25838 0.30749 0.0
C3464 C 0.90036 0.15611 0.28982 0.0
C3465 C 0.91296 0.1498 0.27015 0.0
C3466 C 0.8885 0.17562 0.29043 0.0
C3467 C 0.8885 0.18966 0.27134 0.0
C3468 C 0.90143 0.18339 0.25209 0.0
C3469 C 0.91314 0.16421 0.25151 0.0
C3470 C 0.85701 0.23511 0.24627 0.0
C3471 C 0.85309 0.25129 0.26746 0.0
C3472 C 0.86755 0.21524 0.24777 0.0
C3473 C 0.87535 0.21038 0.27065 0.0
C3474 C 0.87098 0.22623 0.29212 0.0
C3475 C 0.86025 0.24633 0.29058 0.0
H3476 H 0.71464 0.09121 0.9842 0.0
H3477 H 0.70894 0.15557 0.0377 0.0
H3478 H 0.67465 0.0774 0.97796 0.0
H3479 H 0.66925 0.14139 0.0323 0.0
H3480 H 0.59833 0.12385 1.00307 0.0
H3481 H 0.63813 0.13719 1.00372 0.0
H3482 H 0.64386 0.06067 0.99729 0.0
H3483 H 0.60414 0.04753 0.9954 0.0
C3484 C 0.70485 0.10227 0.99478 0.0
C3485 C 0.71491 0.12453 0.01133 0.0
C3486 C 0.68194 0.09435 0.99126 0.0
C3487 C 0.66867 0.10843 1.00442 0.0
C3488 C 0.67887 0.13043 0.02131 0.0
C3489 C 0.70168 0.13846 0.0246 0.0
C3490 C 0.60821 0.11 1.00173 0.0
C3491 C 0.59839 0.08487 1.00044 0.0
C3492 C 0.63097 0.11757 1.00221 0.0
C3493 C 0.64431 0.10007 1.00115 0.0
C3494 C 0.63419 0.07468 0.99818 0.0
C3495 C 0.61143 0.06716 0.9976 0.0
H3496 H 0.20241 0.44877 0.28119 0.0
H3497 H 0.24986 0.51446 0.3196 0.0
H3498 H 0.22106 0.42289 0.30229 0.0
H3499 H 0.26798 0.4888 0.3413 0.0
H3500 H 0.25033 0.38456 0.35802 0.0
H3501 H 0.22957 0.4117 0.34152 0.0
H3502 H 0.29048 0.45995 0.33147 0.0
H3503 H 0.31097 0.43357 0.34881 0.0
C3504 C 0.2167 0.4577 0.2943 0.0
C3505 C 0.22482 0.48362 0.29852 0.0
C3506 C 0.22727 0.44289 0.30655 0.0
C3507 C 0.24608 0.45375 0.32342 0.0
C3508 C 0.25379 0.47977 0.32808 0.0
C3509 C 0.24337 0.4945 0.31567 0.0
C3510 C 0.25919 0.40124 0.35269 0.0
C3511 C 0.28224 0.4069 0.35455 0.0
C3512 C 0.24733 0.41663 0.34299 0.0
C3513 C 0.25835 0.43799 0.33509 0.0
C3514 C 0.28143 0.44388 0.33764 0.0
C3515 C 0.2932 0.4286 0.34734 0.0
H3516 H 0.3063 0.4783 0.03338 0.0
H3517 H 0.25068 0.42451 0.04756 0.0
H3518 H 0.28243 0.50649 0.02742 0.0
H3519 H 0.22691 0.45297 0.04224 0.0
H3520 H 0.18685 0.49826 1.00519 0.0
H3521 H 0.21109 0.47024 1.01041 0.0
H3522 H 0.26133 0.53277 0.04992 0.0
H3523 H 0.23712 0.56081 0.0444 0.0
C3524 C 0.289 0.47254 0.03538 0.0
C3525 C 0.28039 0.44912 0.0409 0.0
C3526 C 0.27533 0.48878 0.03209 0.0
C3527 C 0.25273 0.48201 0.03432 0.0
C3528 C 0.24417 0.45863 0.04 0.0
C3529 C 0.25783 0.44236 0.0432 0.0
C3530 C 0.20305 0.50599 0.01508 0.0
C3531 C 0.21006 0.53173 0.02444 0.0
C3532 C 0.21693 0.48993 0.01813 0.0
C3533 C 0.23813 0.49922 0.03069 0.0
C3534 C 0.24522 0.52502 0.03986 0.0
C3535 C 0.23135 0.5411 0.03671 0.0
H3536 H 0.90033 0.98933 0.2257 0.0
H3537 H 0.90796 1.0116 0.30525 0.0
H3538 H 0.88072 0.94776 0.22869 0.0
H3539 H 0.88822 0.96962 0.30831 0.0
H3540 H 0.87399 0.88311 0.30365 0.0
H3541 H 0.892 0.92587 0.30203 0.0
H3542 H 0.84679 0.92347 0.23882 0.0
H3543 H 0.82885 0.8807 0.24038 0.0
C3544 C 0.89771 0.9855 0.24393 0.0
C3545 C 0.90584 1.00422 0.26522 0.0
C3546 C 0.88627 0.96146 0.24564 0.0
C3547 C 0.88269 0.95489 0.26875 0.0
C3548 C 0.89071 0.97365 0.29012 0.0
C3549 C 0.90192 0.99793 0.28839 0.0
C3550 C 0.86779 0.89162 0.28938 0.0
C3551 C 0.84975 0.87808 0.2722 0.0
C3552 C 0.87811 0.9164 0.28857 0.0
C3553 C 0.87103 0.92857 0.27031 0.0
C3554 C 0.85301 0.91497 0.25309 0.0
C3555 C 0.84253 0.8903 0.25409 0.0
H3556 H 0.75673 0.12491 0.77302 0.0
H3557 H 0.69762 0.151 0.78732 0.0
H3558 H 0.77815 0.1674 0.78345 0.0
H3559 H 0.71919 0.19371 0.7989 0.0
H3560 H 0.7605 0.26683 0.78411 0.0
H3561 H 0.73765 0.22529 0.78104 0.0
H3562 H 0.79285 0.20239 0.81403 0.0
H3563 H 0.8158 0.24386 0.81577 0.0
C3564 C 0.74835 0.13979 0.7786 0.0
C3565 C 0.7255 0.13472 0.77907 0.0
C3566 C 0.76067 0.1642 0.78485 0.0
C3567 C 0.75045 0.18413 0.792 0.0
C3568 C 0.72758 0.17892 0.79299 0.0
C3569 C 0.7152 0.15446 0.78638 0.0
C3570 C 0.76761 0.25272 0.79053 0.0
C3571 C 0.78996 0.25775 0.79899 0.0
C3572 C 0.7545 0.22905 0.7892 0.0
C3573 C 0.7635 0.2102 0.79677 0.0
C3574 C 0.78558 0.21613 0.80717 0.0
C3575 C 0.7987 0.2398 0.8083 0.0
loop_
_geom_bond_atom_site_label_1
_geom_bond_atom_site_label_2
_geom_bond_distance
_geom_bond_site_symmetry_2
_ccdc_geom_bond_type
C0 O1 1.160 . S
C0 O7 1.185 . S
O1 C0 1.160 . S
O2 Zn3 1.899 . S
O2 C10 1.284 . S
Zn3 O2 1.899 . S
Zn3 O4 2.032 . S
Zn3 O7 2.086 . S
Zn3 O12 1.977 . S
O4 Zn3 2.032 . S
O4 C8 1.278 . S
C5 O6 1.203 . S
C5 O12 1.267 . S
O6 C5 1.203 . S
O7 C0 1.185 . S
O7 Zn3 2.086 . S
C8 O4 1.278 . S
C8 O9 1.211 . S
O9 C8 1.211 . S
C10 O2 1.284 . S
C10 O11 1.273 . S
O11 C10 1.273 . S
O12 Zn3 1.977 . S
O12 C5 1.267 . S
C13 O14 1.160 . S
C13 O20 1.185 . S
O14 C13 1.160 . S
O15 Zn16 1.899 . S
O15 C23 1.284 . S
Zn16 O15 1.899 . S
Zn16 O17 2.032 . S
Zn16 O20 2.086 . S
Zn16 O25 1.977 1_655 S
O17 Zn16 2.032 . S
O17 C21 1.278 1_655 S
C18 O19 1.203 . S
C18 O25 1.267 . S
O19 C18 1.203 . S
O20 C13 1.185 . S
O20 Zn16 2.086 . S
C21 O17 1.278 1_455 S
C21 O22 1.211 . S
O22 C21 1.211 . S
C23 O15 1.284 . S
C23 O24 1.273 1_655 S
O24 C23 1.273 1_455 S
O25 Zn16 1.977 1_455 S
O25 C18 1.267 . S
C26 O27 1.160 . S
C26 O33 1.185 . S
O27 C26 1.160 . S
O28 Zn29 1.899 . S
O28 C36 1.284 . S
Zn29 O28 1.899 . S
Zn29 O30 2.032 . S
Zn29 O33 2.086 . S
Zn29 O38 1.977 . S
O30 Zn29 2.032 . S
O30 C34 1.278 . S
C31 O32 1.203 . S
C31 O38 1.267 . S
O32 C31 1.203 . S
O33 C26 1.185 . S
O33 Zn29 2.086 . S
C34 O30 1.278 . S
C34 O35 1.211 . S
O35 C34 1.211 . S
C36 O28 1.284 . S
C36 O37 1.273 . S
O37 C36 1.273 . S
O38 Zn29 1.977 . S
O38 C31 1.267 . S
C39 O40 1.160 . S
C39 O46 1.185 . S
O40 C39 1.160 . S
O41 Zn42 1.899 . S
O41 C49 1.284 . S
Zn42 O41 1.899 . S
Zn42 O43 2.032 . S
Zn42 O46 2.086 . S
Zn42 O51 1.977 . S
O43 Zn42 2.032 . S
O43 C47 1.278 . S
C44 O45 1.203 . S
C44 O51 1.267 . S
O45 C44 1.203 . S
O46 C39 1.185 . S
O46 Zn42 2.086 . S
C47 O43 1.278 . S
C47 O48 1.211 . S
O48 C47 1.211 . S
C49 O41 1.284 . S
C49 O50 1.273 . S
O50 C49 1.273 . S
O51 Zn42 1.977 . S
O51 C44 1.267 . S
C52 O53 1.160 . S
C52 O59 1.185 . S
O53 C52 1.160 . S
O54 Zn55 1.899 . S
O54 C62 1.284 . S
Zn55 O54 1.899 . S
Zn55 O56 2.032 . S
Zn55 O59 2.086 . S
Zn55 O64 1.977 . S
O56 Zn55 2.032 . S
O56 C60 1.278 . S
C57 O58 1.203 . S
C57 O64 1.267 . S
O58 C57 1.203 . S
O59 C52 1.185 . S
O59 Zn55 2.086 . S
C60 O56 1.278 . S
C60 O61 1.211 . S
O61 C60 1.211 . S
C62 O54 1.284 . S
C62 O63 1.273 . S
O63 C62 1.273 . S
O64 Zn55 1.977 . S
O64 C57 1.267 . S
C65 O66 1.160 . S
C65 O72 1.185 . S
O66 C65 1.160 . S
O67 Zn68 1.899 . S
O67 C75 1.284 . S
Zn68 O67 1.899 . S
Zn68 O69 2.032 . S
Zn68 O72 2.086 . S
Zn68 O77 1.977 . S
O69 Zn68 2.032 . S
O69 C73 1.278 . S
C70 O71 1.203 . S
C70 O77 1.267 . S
O71 C70 1.203 . S
O72 C65 1.185 . S
O72 Zn68 2.086 . S
C73 O69 1.278 . S
C73 O74 1.211 . S
O74 C73 1.211 . S
C75 O67 1.284 . S
C75 O76 1.273 . S
O76 C75 1.273 . S
O77 Zn68 1.977 . S
O77 C70 1.267 . S
C78 O79 1.160 . S
C78 O85 1.185 . S
O79 C78 1.160 . S
O80 Zn81 1.899 . S
O80 C88 1.284 . S
Zn81 O80 1.899 . S
Zn81 O82 2.032 . S
Zn81 O85 2.086 . S
Zn81 O90 1.977 . S
O82 Zn81 2.032 . S
O82 C86 1.278 . S
C83 O84 1.203 . S
C83 O90 1.267 . S
O84 C83 1.203 . S
O85 C78 1.185 . S
O85 Zn81 2.086 . S
C86 O82 1.278 . S
C86 O87 1.211 . S
O87 C86 1.211 . S
C88 O80 1.284 . S
C88 O89 1.273 . S
O89 C88 1.273 . S
O90 Zn81 1.977 . S
O90 C83 1.267 . S
C91 O92 1.160 . S
C91 O98 1.185 . S
O92 C91 1.160 . S
O93 Zn94 1.899 . S
O93 C101 1.284 . S
Zn94 O93 1.899 . S
Zn94 O95 2.032 . S
Zn94 O98 2.086 . S
Zn94 O103 1.977 1_455 S
O95 Zn94 2.032 . S
O95 C99 1.278 . S
C96 O97 1.203 . S
C96 O103 1.267 . S
O97 C96 1.203 . S
O98 C91 1.185 . S
O98 Zn94 2.086 . S
C99 O95 1.278 . S
C99 O100 1.211 . S
O100 C99 1.211 . S
C101 O93 1.284 . S
C101 O102 1.273 . S
O102 C101 1.273 . S
O103 Zn94 1.977 1_655 S
O103 C96 1.267 . S
C104 O105 1.160 . S
C104 O111 1.185 . S
O105 C104 1.160 . S
O106 Zn107 1.899 . S
O106 C114 1.284 . S
Zn107 O106 1.899 . S
Zn107 O108 2.032 . S
Zn107 O111 2.086 . S
Zn107 O116 1.977 1_545 S
O108 Zn107 2.032 . S
O108 C112 1.278 . S
C109 O110 1.203 . S
C109 O116 1.267 . S
O110 C109 1.203 . S
O111 C104 1.185 . S
O111 Zn107 2.086 . S
C112 O108 1.278 . S
C112 O113 1.226 . S
O113 C112 1.226 . S
C114 O106 1.284 . S
C114 O115 1.273 . S
O115 C114 1.273 . S
O116 Zn107 1.977 1_565 S
O116 C109 1.267 . S
C117 O118 1.160 . S
C117 O124 1.185 . S
O118 C117 1.160 . S
O119 Zn120 1.899 . S
O119 C127 1.284 . S
Zn120 O119 1.899 . S
Zn120 O121 2.032 . S
Zn120 O124 2.086 . S
Zn120 O129 1.977 . S
O121 Zn120 2.032 . S
O121 C125 1.278 . S
C122 O123 1.203 . S
C122 O129 1.267 . S
O123 C122 1.203 . S
O124 C117 1.185 . S
O124 Zn120 2.086 . S
C125 O121 1.278 . S
C125 O126 1.211 . S
O126 C125 1.211 . S
C127 O119 1.284 . S
C127 O128 1.273 . S
O128 C127 1.273 . S
O129 Zn120 1.977 . S
O129 C122 1.267 . S
C130 O131 1.160 . S
C130 O137 1.185 . S
O131 C130 1.160 . S
O132 Zn133 1.899 . S
O132 C140 1.284 . S
Zn133 O132 1.899 . S
Zn133 O134 2.032 . S
Zn133 O137 2.086 . S
Zn133 O142 1.977 1_565 S
O134 Zn133 2.032 . S
O134 C138 1.278 1_565 S
C135 O136 1.203 . S
C135 O142 1.267 . S
O136 C135 1.203 . S
O137 C130 1.185 . S
O137 Zn133 2.086 . S
C138 O134 1.278 1_545 S
C138 O139 1.211 . S
O139 C138 1.211 . S
C140 O132 1.284 . S
C140 O141 1.273 1_565 S
O141 C140 1.273 1_545 S
O142 Zn133 1.977 1_545 S
O142 C135 1.267 . S
C143 O144 1.160 . S
C143 O150 1.185 . S
O144 C143 1.160 . S
O145 Zn146 1.899 . S
O145 C153 1.284 . S
Zn146 O145 1.899 . S
Zn146 O147 2.032 1_554 S
Zn146 O150 2.086 . S
Zn146 O155 1.977 . S
O147 Zn146 2.032 1_556 S
O147 C151 1.278 . S
C148 O149 1.203 . S
C148 O155 1.267 . S
O149 C148 1.203 . S
O150 C143 1.185 . S
O150 Zn146 2.086 . S
C151 O147 1.278 . S
C151 O152 1.211 . S
O152 C151 1.211 . S
C153 O145 1.284 . S
C153 O154 1.273 . S
O154 C153 1.273 . S
O155 Zn146 1.977 . S
O155 C148 1.267 . S
C156 O157 1.160 . S
C156 O163 1.185 . S
O157 C156 1.160 . S
O158 Zn159 1.899 . S
O158 C166 1.284 . S
Zn159 O158 1.899 . S
Zn159 O160 2.032 . S
Zn159 O163 2.086 . S
Zn159 O168 1.977 . S
O160 Zn159 2.032 . S
O160 C164 1.278 1_554 S
C161 O162 1.203 . S
C161 O168 1.267 . S
O162 C161 1.203 . S
O163 C156 1.185 . S
O163 Zn159 2.086 . S
C164 O160 1.278 1_556 S
C164 O165 1.211 1_556 S
O165 C164 1.211 1_554 S
C166 O158 1.284 . S
C166 O167 1.273 . S
O167 C166 1.273 . S
O168 Zn159 1.977 . S
O168 C161 1.267 . S
C169 O170 1.160 . S
C169 O176 1.185 . S
O170 C169 1.160 . S
O171 Zn172 1.899 . S
O171 C179 1.284 . S
Zn172 O171 1.899 . S
Zn172 O173 2.032 . S
Zn172 O176 2.086 . S
Zn172 O181 1.977 . S
O173 Zn172 2.032 . S
O173 C177 1.278 1_554 S
C174 O175 1.203 . S
C174 O181 1.267 . S
O175 C174 1.203 . S
O176 C169 1.185 . S
O176 Zn172 2.086 . S
C177 O173 1.278 1_556 S
C177 O178 1.211 . S
O178 C177 1.211 . S
C179 O171 1.284 . S
C179 O180 1.273 . S
O180 C179 1.273 . S
O181 Zn172 1.977 . S
O181 C174 1.267 . S
C182 O183 1.160 . S
C182 O189 1.185 . S
O183 C182 1.160 . S
O184 Zn185 1.899 . S
O184 C192 1.284 . S
Zn185 O184 1.899 . S
Zn185 O186 2.032 . S
Zn185 O189 2.086 . S
Zn185 O194 1.977 . S
O186 Zn185 2.032 . S
O186 C190 1.278 . S
C187 O188 1.203 . S
C187 O194 1.267 . S
O188 C187 1.203 . S
O189 C182 1.185 . S
O189 Zn185 2.086 . S
C190 O186 1.278 . S
C190 O191 1.211 . S
O191 C190 1.211 . S
C192 O184 1.284 . S
C192 O193 1.273 . S
O193 C192 1.273 . S
O194 Zn185 1.977 . S
O194 C187 1.267 . S
C195 O196 1.160 . S
C195 O202 1.185 . S
O196 C195 1.160 . S
O197 Zn198 1.899 . S
O197 C205 1.284 . S
Zn198 O197 1.899 . S
Zn198 O199 2.032 . S
Zn198 O202 2.086 . S
Zn198 O207 1.977 . S
O199 Zn198 2.032 . S
O199 C203 1.278 . S
C200 O201 1.203 . S
C200 O207 1.267 . S
O201 C200 1.203 . S
O202 C195 1.185 . S
O202 Zn198 2.086 . S
C203 O199 1.278 . S
C203 O204 1.211 . S
O204 C203 1.211 . S
C205 O197 1.284 . S
C205 O206 1.273 . S
O206 C205 1.273 . S
O207 Zn198 1.977 . S
O207 C200 1.267 . S
C208 O209 1.160 . S
C208 O215 1.185 . S
O209 C208 1.160 . S
O210 Zn211 1.899 . S
O210 C218 1.284 . S
Zn211 O210 1.899 . S
Zn211 O212 2.032 . S
Zn211 O215 2.086 . S
Zn211 O220 1.977 . S
O212 Zn211 2.032 . S
O212 C216 1.278 . S
C213 O214 1.203 . S
C213 O220 1.267 . S
O214 C213 1.203 . S
O215 C208 1.185 . S
O215 Zn211 2.086 . S
C216 O212 1.278 . S
C216 O217 1.211 . S
O217 C216 1.211 . S
C218 O210 1.284 . S
C218 O219 1.273 . S
O219 C218 1.273 . S
O220 Zn211 1.977 . S
O220 C213 1.267 . S
C221 O222 1.160 . S
C221 O228 1.185 . S
O222 C221 1.160 . S
O223 Zn224 1.899 . S
O223 C231 1.284 . S
Zn224 O223 1.899 . S
Zn224 O225 2.032 . S
Zn224 O228 2.086 . S
Zn224 O233 1.977 . S
O225 Zn224 2.032 . S
O225 C229 1.278 . S
C226 O227 1.203 . S
C226 O233 1.267 . S
O227 C226 1.203 . S
O228 C221 1.185 . S
O228 Zn224 2.086 . S
C229 O225 1.278 . S
C229 O230 1.211 . S
O230 C229 1.211 . S
C231 O223 1.284 . S
C231 O232 1.273 . S
O232 C231 1.273 . S
O233 Zn224 1.977 . S
O233 C226 1.267 . S
C234 O235 1.160 . S
C234 O241 1.185 . S
O235 C234 1.160 . S
O236 Zn237 1.899 . S
O236 C244 1.284 . S
Zn237 O236 1.899 . S
Zn237 O238 2.032 . S
Zn237 O241 2.086 . S
Zn237 O246 1.977 . S
O238 Zn237 2.032 . S
O238 C242 1.278 . S
C239 O240 1.203 . S
C239 O246 1.267 . S
O240 C239 1.203 . S
O241 C234 1.185 . S
O241 Zn237 2.086 . S
C242 O238 1.278 . S
C242 O243 1.211 . S
O243 C242 1.211 . S
C244 O236 1.284 . S
C244 O245 1.273 . S
O245 C244 1.273 . S
O246 Zn237 1.977 . S
O246 C239 1.267 . S
C247 O248 1.160 1_545 S
C247 O254 1.185 . S
O248 C247 1.160 1_565 S
O249 Zn250 1.899 . S
O249 C257 1.284 . S
Zn250 O249 1.899 . S
Zn250 O251 2.032 . S
Zn250 O254 2.086 . S
Zn250 O259 1.977 . S
O251 Zn250 2.032 . S
O251 C255 1.278 . S
C252 O253 1.203 . S
C252 O259 1.267 . S
O253 C252 1.203 . S
O254 C247 1.185 . S
O254 Zn250 2.086 . S
C255 O251 1.278 . S
C255 O256 1.211 . S
O256 C255 1.211 . S
C257 O249 1.284 . S
C257 O258 1.273 . S
O258 C257 1.273 . S
O259 Zn250 1.977 . S
O259 C252 1.267 . S
C260 O261 1.179 . S
C260 O267 1.175 1_554 S
O261 C260 1.179 . S
O262 Zn263 1.899 . S
O262 C270 1.284 . S
Zn263 O262 1.899 . S
Zn263 O264 2.032 1_554 S
Zn263 O267 2.086 1_554 S
Zn263 O272 1.977 1_554 S
O264 Zn263 2.032 1_556 S
O264 C268 1.278 . S
C265 O266 1.203 1_556 S
C265 O272 1.267 . S
O266 C265 1.203 1_554 S
O267 C260 1.175 1_556 S
O267 Zn263 2.086 1_556 S
C268 O264 1.278 . S
C268 O269 1.211 . S
O269 C268 1.211 . S
C270 O262 1.284 . S
C270 O271 1.273 . S
O271 C270 1.273 . S
O272 Zn263 1.977 1_556 S
O272 C265 1.267 . S
C273 O274 1.160 . S
C273 O280 1.185 . S
O274 C273 1.160 . S
O275 Zn276 1.899 . S
O275 C283 1.284 . S
Zn276 O275 1.899 . S
Zn276 O277 2.032 . S
Zn276 O280 2.086 . S
Zn276 O285 1.977 . S
O277 Zn276 2.032 . S
O277 C281 1.278 . S
C278 O279 1.203 . S
C278 O285 1.267 . S
O279 C278 1.203 . S
O280 C273 1.185 . S
O280 Zn276 2.086 . S
C281 O277 1.278 . S
C281 O282 1.211 . S
O282 C281 1.211 . S
C283 O275 1.284 . S
C283 O284 1.273 . S
O284 C283 1.273 . S
O285 Zn276 1.977 . S
O285 C278 1.267 . S
C286 O287 1.160 . S
C286 O293 1.185 . S
O287 C286 1.160 . S
O288 Zn289 1.899 . S
O288 C296 1.284 . S
Zn289 O288 1.899 . S
Zn289 O290 2.032 . S
Zn289 O293 2.086 . S
Zn289 O298 1.977 . S
O290 Zn289 2.032 . S
O290 C294 1.278 . S
C291 O292 1.203 . S
C291 O298 1.267 . S
O292 C291 1.203 . S
O293 C286 1.185 . S
O293 Zn289 2.086 . S
C294 O290 1.278 . S
C294 O295 1.211 . S
O295 C294 1.211 . S
C296 O288 1.284 . S
C296 O297 1.273 . S
O297 C296 1.273 . S
O298 Zn289 1.977 . S
O298 C291 1.267 . S
C299 O300 1.160 . S
C299 O306 1.185 . S
O300 C299 1.160 . S
O301 Zn302 1.899 . S
O301 C309 1.284 . S
Zn302 O301 1.899 . S
Zn302 O303 2.032 . S
Zn302 O306 2.086 . S
Zn302 O311 1.977 . S
O303 Zn302 2.032 . S
O303 C307 1.278 . S
C304 O305 1.203 . S
C304 O311 1.267 . S
O305 C304 1.203 . S
O306 C299 1.185 . S
O306 Zn302 2.086 . S
C307 O303 1.278 . S
C307 O308 1.211 . S
O308 C307 1.211 . S
C309 O301 1.284 . S
C309 O310 1.273 . S
O310 C309 1.273 . S
O311 Zn302 1.977 . S
O311 C304 1.267 . S
Gd312 N343 2.661 . S
Gd312 N349 2.601 . S
Gd312 O356 2.545 . S
Gd312 O357 2.606 . S
Gd312 O359 2.429 . S
Gd312 O360 2.545 . S
Gd312 O361 2.412 . S
Gd312 O363 2.362 . S
Gd312 O364 2.324 1_554 S
Gd312 C371 2.828 . S
Gd313 N322 2.649 1_546 S
Gd313 N326 2.610 1_545 S
Gd313 O357 2.355 1_556 S
Gd313 O358 2.305 1_556 S
Gd313 O362 2.557 1_455 S
Gd313 O363 2.603 1_556 S
Gd313 O365 2.444 . S
Gd313 O366 2.550 . S
Gd313 O367 2.408 1_456 S
Gd313 C380 2.833 1_455 S
C314 C317 1.417 . S
C314 C319 1.431 1_554 S
C314 C320 1.412 . S
C315 C318 1.437 . S
C315 C319 1.317 . S
C315 H334 0.929 . S
C316 C317 1.426 1_556 S
C316 C318 1.413 . S
C316 N326 1.359 1_655 S
C317 C314 1.417 . S
C317 C316 1.426 1_554 S
C317 N322 1.350 1_655 S
C318 C315 1.437 . S
C318 C316 1.413 . S
C318 C328 1.391 . S
C319 C314 1.431 1_556 S
C319 C315 1.317 . S
C319 H330 0.930 . S
C320 C314 1.412 . S
C320 C321 1.355 . S
C320 H332 0.930 . S
C321 C320 1.355 . S
C321 C323 1.402 1_655 S
C321 H333 0.929 . S
N322 Gd313 2.649 1_564 S
N322 C317 1.350 1_455 S
N322 C323 1.307 . S
C323 C321 1.402 1_455 S
C323 N322 1.307 . S
C323 H324 0.930 . S
H324 C323 0.930 . S
C325 N326 1.334 . S
C325 C327 1.394 1_455 S
C325 H329 0.930 . S
N326 Gd313 2.610 1_565 S
N326 C316 1.359 1_455 S
N326 C325 1.334 . S
C327 C325 1.394 1_655 S
C327 C328 1.359 . S
C327 H339 0.930 . S
C328 C318 1.391 . S
C328 C327 1.359 . S
C328 H340 0.929 . S
H329 C325 0.930 . S
H330 C319 0.930 . S
H331 C348 0.930 . S
H332 C320 0.930 . S
H333 C321 0.929 . S
H334 C315 0.929 . S
H335 C353 0.930 . S
H336 C344 0.930 . S
H337 C345 0.930 . S
H338 C369 0.929 . S
H339 C327 0.930 . S
H340 C328 0.929 . S
H341 C370 0.930 . S
H342 C351 0.930 . S
N343 Gd312 2.661 . S
N343 C347 1.350 . S
N343 C348 1.307 1_554 S
C344 H336 0.930 . S
C344 C345 1.355 . S
C344 C346 1.412 1_556 S
C345 H337 0.930 . S
C345 C344 1.355 . S
C345 C348 1.402 . S
C346 C344 1.412 1_554 S
C346 C347 1.417 . S
C346 C370 1.431 . S
C347 N343 1.350 . S
C347 C346 1.417 . S
C347 C350 1.426 . S
C348 H331 0.930 . S
C348 N343 1.307 1_556 S
C348 C345 1.402 . S
N349 Gd312 2.601 . S
N349 C350 1.359 . S
N349 C353 1.334 . S
C350 C347 1.426 . S
C350 N349 1.359 . S
C350 C354 1.413 . S
C351 H342 0.930 . S
C351 C352 1.359 . S
C351 C353 1.394 . S
C352 C351 1.359 . S
C352 C354 1.391 . S
C352 H355 0.929 . S
C353 H335 0.930 . S
C353 N349 1.334 . S
C353 C351 1.394 . S
C354 C350 1.413 . S
C354 C352 1.391 . S
C354 C369 1.437 . S
H355 C352 0.929 . S
O356 Gd312 2.545 . S
O356 C371 1.258 . S
O357 Gd312 2.606 . S
O357 Gd313 2.355 1_554 S
O357 C368 1.284 1_545 S
O358 Gd313 2.305 1_554 S
O358 C378 1.254 . S
O359 Gd312 2.429 . S
O359 C378 1.268 . S
O360 Gd312 2.545 . S
O360 C368 1.250 1_545 S
O361 Gd312 2.412 . S
O361 C371 1.252 . S
O362 Gd313 2.557 1_655 S
O362 C380 1.258 . S
O363 Gd312 2.362 . S
O363 Gd313 2.603 1_554 S
O363 C379 1.284 . S
O364 Gd312 2.324 1_556 S
O364 C387 1.254 . S
O365 Gd313 2.444 . S
O365 C387 1.268 . S
O366 Gd313 2.550 . S
O366 C379 1.250 1_556 S
O367 Gd313 2.408 1_654 S
O367 C380 1.252 1_554 S
C368 O357 1.284 1_565 S
C368 O360 1.250 1_565 S
C369 H338 0.929 . S
C369 C354 1.437 . S
C369 C370 1.317 . S
C370 H341 0.930 . S
C370 C346 1.431 . S
C370 C369 1.317 . S
C371 Gd312 2.828 . S
C371 O356 1.258 . S
C371 O361 1.252 . S
C371 C372 1.497 . S
C372 C371 1.497 . S
C372 C373 1.395 . S
C372 C374 1.380 . S
C373 C372 1.395 . S
C373 C376 1.398 . S
C373 H388 0.930 . S
C374 C372 1.380 . S
C374 C375 1.391 . S
C374 H389 0.930 . S
C375 C374 1.391 . S
C375 C377 1.387 . S
C376 C373 1.398 . S
C376 C377 1.380 . S
C376 H390 0.930 . S
C377 C375 1.387 . S
C377 C376 1.380 . S
C377 H391 0.930 . S
C378 O358 1.254 . S
C378 O359 1.268 . S
C379 O363 1.284 . S
C379 O366 1.250 1_554 S
C380 Gd313 2.833 1_655 S
C380 O362 1.258 . S
C380 O367 1.252 1_556 S
C380 C381 1.497 . S
C381 C380 1.497 . S
C381 C382 1.395 . S
C381 C383 1.380 . S
C382 C381 1.395 . S
C382 C385 1.398 . S
C382 H392 0.930 . S
C383 C381 1.380 . S
C383 C384 1.391 . S
C383 H393 0.930 1_556 S
C384 C383 1.391 . S
C384 C386 1.387 . S
C385 C382 1.398 . S
C385 C386 1.380 . S
C385 H394 0.930 . S
C386 C384 1.387 . S
C386 C385 1.380 . S
C386 H395 0.930 . S
C387 O364 1.254 . S
C387 O365 1.268 . S
H388 C373 0.930 . S
H389 C374 0.930 . S
H390 C376 0.930 . S
H391 C377 0.930 . S
H392 C382 0.930 . S
H393 C383 0.930 1_554 S
H394 C385 0.930 . S
H395 C386 0.930 . S
Gd396 N427 2.661 . S
Gd396 N433 2.601 . S
Gd396 O440 2.545 . S
Gd396 O441 2.606 . S
Gd396 O443 2.429 . S
Gd396 O444 2.545 . S
Gd396 O445 2.412 . S
Gd396 O447 2.362 . S
Gd396 O448 2.324 . S
Gd396 C455 2.828 . S
Gd397 N406 2.661 . S
Gd397 N410 2.601 . S
Gd397 O441 2.362 . S
Gd397 O442 2.324 . S
Gd397 O446 2.545 . S
Gd397 O447 2.606 . S
Gd397 O449 2.429 . S
Gd397 O450 2.545 . S
Gd397 O451 2.412 . S
Gd397 C464 2.828 . S
C398 C401 1.417 . S
C398 C403 1.431 . S
C398 C404 1.412 . S
C399 C402 1.437 . S
C399 C403 1.317 . S
C399 H418 0.929 . S
C400 C401 1.426 . S
C400 C402 1.413 . S
C400 N410 1.359 . S
C401 C398 1.417 . S
C401 C400 1.426 . S
C401 N406 1.350 . S
C402 C399 1.437 . S
C402 C400 1.413 . S
C402 C412 1.391 . S
C403 C398 1.431 . S
C403 C399 1.317 . S
C403 H414 0.930 . S
C404 C398 1.412 . S
C404 C405 1.355 . S
C404 H416 0.930 . S
C405 C404 1.355 . S
C405 C407 1.402 . S
C405 H417 0.930 . S
N406 Gd397 2.661 . S
N406 C401 1.350 . S
N406 C407 1.307 . S
C407 C405 1.402 . S
C407 N406 1.307 . S
C407 H408 0.930 . S
H408 C407 0.930 . S
C409 N410 1.334 . S
C409 C411 1.394 . S
C409 H413 0.930 . S
N410 Gd397 2.601 . S
N410 C400 1.359 . S
N410 C409 1.334 . S
C411 C409 1.394 . S
C411 C412 1.359 . S
C411 H423 0.930 . S
C412 C402 1.391 . S
C412 C411 1.359 . S
C412 H424 0.929 . S
H413 C409 0.930 . S
H414 C403 0.930 . S
H415 C432 0.930 . S
H416 C404 0.930 . S
H417 C405 0.930 . S
H418 C399 0.929 . S
H419 C437 0.930 . S
H420 C428 0.930 . S
H421 C429 0.930 . S
H422 C453 0.929 . S
H423 C411 0.930 . S
H424 C412 0.929 . S
H425 C454 0.930 . S
H426 C435 0.930 . S
N427 Gd396 2.661 . S
N427 C431 1.350 . S
N427 C432 1.307 . S
C428 H420 0.930 . S
C428 C429 1.355 . S
C428 C430 1.412 . S
C429 H421 0.930 . S
C429 C428 1.355 . S
C429 C432 1.402 . S
C430 C428 1.412 . S
C430 C431 1.417 . S
C430 C454 1.431 . S
C431 N427 1.350 . S
C431 C430 1.417 . S
C431 C434 1.426 . S
C432 H415 0.930 . S
C432 N427 1.307 . S
C432 C429 1.402 . S
N433 Gd396 2.601 . S
N433 C434 1.359 . S
N433 C437 1.334 . S
C434 C431 1.426 . S
C434 N433 1.359 . S
C434 C438 1.413 . S
C435 H426 0.930 . S
C435 C436 1.359 . S
C435 C437 1.394 . S
C436 C435 1.359 . S
C436 C438 1.391 . S
C436 H439 0.929 . S
C437 H419 0.930 . S
C437 N433 1.334 . S
C437 C435 1.394 . S
C438 C434 1.413 . S
C438 C436 1.391 . S
C438 C453 1.437 . S
H439 C436 0.929 . S
O440 Gd396 2.545 . S
O440 C455 1.258 . S
O441 Gd396 2.606 . S
O441 Gd397 2.362 . S
O441 C452 1.284 . S
O442 Gd397 2.324 . S
O442 C462 1.254 . S
O443 Gd396 2.429 . S
O443 C462 1.268 . S
O444 Gd396 2.545 . S
O444 C452 1.250 . S
O445 Gd396 2.412 . S
O445 C455 1.252 . S
O446 Gd397 2.545 . S
O446 C464 1.258 . S
O447 Gd396 2.362 . S
O447 Gd397 2.606 . S
O447 C463 1.284 . S
O448 Gd396 2.324 . S
O448 C471 1.254 . S
O449 Gd397 2.429 . S
O449 C471 1.268 . S
O450 Gd397 2.545 . S
O450 C463 1.250 . S
O451 Gd397 2.412 . S
O451 C464 1.252 . S
C452 O441 1.284 . S
C452 O444 1.250 . S
C453 H422 0.929 . S
C453 C438 1.437 . S
C453 C454 1.317 . S
C454 H425 0.930 . S
C454 C430 1.431 . S
C454 C453 1.317 . S
C455 Gd396 2.828 . S
C455 O440 1.258 . S
C455 O445 1.252 . S
C455 C456 1.497 . S
C456 C455 1.497 . S
C456 C457 1.395 . S
C456 C458 1.380 . S
C457 C456 1.395 . S
C457 C460 1.398 . S
C457 H472 0.930 . S
C458 C456 1.380 . S
C458 C459 1.391 . S
C458 H473 0.930 . S
C459 C458 1.391 . S
C459 C461 1.387 . S
C460 C457 1.398 . S
C460 C461 1.380 . S
C460 H474 0.930 . S
C461 C459 1.387 . S
C461 C460 1.380 . S
C461 H475 0.930 . S
C462 O442 1.254 . S
C462 O443 1.268 . S
C463 O447 1.284 . S
C463 O450 1.250 . S
C464 Gd397 2.828 . S
C464 O446 1.258 . S
C464 O451 1.252 . S
C464 C465 1.497 . S
C465 C464 1.497 . S
C465 C466 1.395 . S
C465 C467 1.380 . S
C466 C465 1.395 . S
C466 C469 1.398 . S
C466 H476 0.930 . S
C467 C465 1.380 . S
C467 C468 1.391 . S
C467 H477 0.930 . S
C468 C467 1.391 . S
C468 C470 1.387 . S
C469 C466 1.398 . S
C469 C470 1.380 . S
C469 H478 0.930 . S
C470 C468 1.387 . S
C470 C469 1.380 . S
C470 H479 0.930 . S
C471 O448 1.254 . S
C471 O449 1.268 . S
H472 C457 0.930 . S
H473 C458 0.930 . S
H474 C460 0.930 . S
H475 C461 0.930 . S
H476 C466 0.930 . S
H477 C467 0.930 . S
H478 C469 0.930 . S
H479 C470 0.930 . S
Gd480 N511 2.661 1_545 S
Gd480 N517 2.601 . S
Gd480 O524 2.545 . S
Gd480 O525 2.606 . S
Gd480 O527 2.429 . S
Gd480 O528 2.545 . S
Gd480 O529 2.412 . S
Gd480 O531 2.362 . S
Gd480 O532 2.324 . S
Gd480 C539 2.828 . S
Gd481 N490 2.661 . S
Gd481 N494 2.601 . S
Gd481 O525 2.362 . S
Gd481 O526 2.324 . S
Gd481 O530 2.545 . S
Gd481 O531 2.606 . S
Gd481 O533 2.429 . S
Gd481 O534 2.545 1_545 S
Gd481 O535 2.412 . S
Gd481 C548 2.828 . S
C482 C485 1.417 . S
C482 C487 1.431 . S
C482 C488 1.412 . S
C483 C486 1.437 . S
C483 C487 1.317 . S
C483 H502 0.929 . S
C484 C485 1.426 . S
C484 C486 1.413 . S
C484 N494 1.359 . S
C485 C482 1.417 . S
C485 C484 1.426 . S
C485 N490 1.350 . S
C486 C483 1.437 . S
C486 C484 1.413 . S
C486 C496 1.391 . S
C487 C482 1.431 . S
C487 C483 1.317 . S
C487 H498 0.930 . S
C488 C482 1.412 . S
C488 C489 1.355 . S
C488 H500 0.930 . S
C489 C488 1.355 . S
C489 C491 1.402 . S
C489 H501 0.930 . S
N490 Gd481 2.661 . S
N490 C485 1.350 . S
N490 C491 1.307 . S
C491 C489 1.402 . S
C491 N490 1.307 . S
C491 H492 0.930 . S
H492 C491 0.930 . S
C493 N494 1.334 . S
C493 C495 1.394 . S
C493 H497 0.930 . S
N494 Gd481 2.601 . S
N494 C484 1.359 . S
N494 C493 1.334 . S
C495 C493 1.394 . S
C495 C496 1.359 . S
C495 H507 0.930 . S
C496 C486 1.391 . S
C496 C495 1.359 . S
C496 H508 0.929 . S
H497 C493 0.930 . S
H498 C487 0.930 . S
H499 C516 0.930 . S
H500 C488 0.930 . S
H501 C489 0.930 . S
H502 C483 0.929 . S
H503 C521 0.930 . S
H504 C512 0.930 . S
H505 C513 0.930 . S
H506 C537 0.929 . S
H507 C495 0.930 . S
H508 C496 0.929 . S
H509 C538 0.930 . S
H510 C519 0.930 . S
N511 Gd480 2.661 1_565 S
N511 C515 1.350 . S
N511 C516 1.307 . S
C512 H504 0.930 . S
C512 C513 1.355 . S
C512 C514 1.412 . S
C513 H505 0.930 . S
C513 C512 1.355 . S
C513 C516 1.402 . S
C514 C512 1.412 . S
C514 C515 1.417 . S
C514 C538 1.431 . S
C515 N511 1.350 . S
C515 C514 1.417 . S
C515 C518 1.426 . S
C516 H499 0.930 . S
C516 N511 1.307 . S
C516 C513 1.402 . S
N517 Gd480 2.601 . S
N517 C518 1.359 1_545 S
N517 C521 1.334 . S
C518 C515 1.426 . S
C518 N517 1.359 1_565 S
C518 C522 1.413 . S
C519 H510 0.930 . S
C519 C520 1.359 1_545 S
C519 C521 1.394 . S
C520 C519 1.359 1_565 S
C520 C522 1.391 . S
C520 H523 0.929 . S
C521 H503 0.930 . S
C521 N517 1.334 . S
C521 C519 1.394 . S
C522 C518 1.413 . S
C522 C520 1.391 . S
C522 C537 1.437 . S
H523 C520 0.929 . S
O524 Gd480 2.545 . S
O524 C539 1.258 . S
O525 Gd480 2.606 . S
O525 Gd481 2.362 . S
O525 C536 1.284 . S
O526 Gd481 2.324 . S
O526 C546 1.254 . S
O527 Gd480 2.429 . S
O527 C546 1.268 . S
O528 Gd480 2.545 . S
O528 C536 1.250 . S
O529 Gd480 2.412 . S
O529 C539 1.252 . S
O530 Gd481 2.545 . S
O530 C548 1.258 . S
O531 Gd480 2.362 . S
O531 Gd481 2.606 . S
O531 C547 1.284 1_545 S
O532 Gd480 2.324 . S
O532 C555 1.254 . S
O533 Gd481 2.429 . S
O533 C555 1.268 . S
O534 Gd481 2.545 1_565 S
O534 C547 1.250 . S
O535 Gd481 2.412 . S
O535 C548 1.252 . S
C536 O525 1.284 . S
C536 O528 1.250 . S
C537 H506 0.929 . S
C537 C522 1.437 . S
C537 C538 1.317 . S
C538 H509 0.930 . S
C538 C514 1.431 . S
C538 C537 1.317 . S
C539 Gd480 2.828 . S
C539 O524 1.258 . S
C539 O529 1.252 . S
C539 C540 1.497 . S
C540 C539 1.497 . S
C540 C541 1.395 . S
C540 C542 1.380 . S
C541 C540 1.395 . S
C541 C544 1.398 . S
C541 H556 0.930 . S
C542 C540 1.380 . S
C542 C543 1.391 . S
C542 H557 0.930 . S
C543 C542 1.391 . S
C543 C545 1.387 . S
C544 C541 1.398 . S
C544 C545 1.380 . S
C544 H558 0.930 . S
C545 C543 1.387 . S
C545 C544 1.380 . S
C545 H559 0.930 . S
C546 O526 1.254 . S
C546 O527 1.268 . S
C547 O531 1.284 1_565 S
C547 O534 1.250 . S
C548 Gd481 2.828 . S
C548 O530 1.258 . S
C548 O535 1.252 . S
C548 C549 1.497 . S
C549 C548 1.497 . S
C549 C550 1.395 . S
C549 C551 1.380 1_545 S
C550 C549 1.395 . S
C550 C553 1.398 1_545 S
C550 H560 0.930 . S
C551 C549 1.380 1_565 S
C551 C552 1.391 . S
C551 H561 0.930 . S
C552 C551 1.391 . S
C552 C554 1.387 . S
C553 C550 1.398 1_565 S
C553 C554 1.380 . S
C553 H562 0.930 . S
C554 C552 1.387 . S
C554 C553 1.380 . S
C554 H563 0.930 . S
C555 O532 1.254 . S
C555 O533 1.268 . S
H556 C541 0.930 . S
H557 C542 0.930 . S
H558 C544 0.930 . S
H559 C545 0.930 . S
H560 C550 0.930 . S
H561 C551 0.930 . S
H562 C553 0.930 . S
H563 C554 0.930 . S
Gd564 N595 2.661 . S
Gd564 N601 2.601 . S
Gd564 O608 2.545 . S
Gd564 O609 2.606 . S
Gd564 O611 2.429 . S
Gd564 O612 2.545 . S
Gd564 O613 2.412 . S
Gd564 O615 2.362 . S
Gd564 O616 2.324 . S
Gd564 C623 2.828 . S
Gd565 N574 2.661 . S
Gd565 N578 2.601 . S
Gd565 O609 2.362 . S
Gd565 O610 2.324 . S
Gd565 O614 2.545 . S
Gd565 O615 2.606 . S
Gd565 O617 2.429 . S
Gd565 O618 2.545 . S
Gd565 O619 2.412 . S
Gd565 C632 2.828 . S
C566 C569 1.417 . S
C566 C571 1.431 . S
C566 C572 1.412 . S
C567 C570 1.437 . S
C567 C571 1.317 . S
C567 H586 0.929 . S
C568 C569 1.426 . S
C568 C570 1.413 . S
C568 N578 1.359 . S
C569 C566 1.417 . S
C569 C568 1.426 . S
C569 N574 1.350 . S
C570 C567 1.437 . S
C570 C568 1.413 . S
C570 C580 1.391 . S
C571 C566 1.431 . S
C571 C567 1.317 . S
C571 H582 0.930 . S
C572 C566 1.412 . S
C572 C573 1.355 . S
C572 H584 0.930 . S
C573 C572 1.355 . S
C573 C575 1.402 . S
C573 H585 0.930 . S
N574 Gd565 2.661 . S
N574 C569 1.350 . S
N574 C575 1.307 . S
C575 C573 1.402 . S
C575 N574 1.307 . S
C575 H576 0.930 . S
H576 C575 0.930 . S
C577 N578 1.334 . S
C577 C579 1.394 . S
C577 H581 0.930 . S
N578 Gd565 2.601 . S
N578 C568 1.359 . S
N578 C577 1.334 . S
C579 C577 1.394 . S
C579 C580 1.359 . S
C579 H591 0.930 . S
C580 C570 1.391 . S
C580 C579 1.359 . S
C580 H592 0.929 . S
H581 C577 0.930 . S
H582 C571 0.930 . S
H583 C600 0.930 . S
H584 C572 0.930 . S
H585 C573 0.930 . S
H586 C567 0.929 . S
H587 C605 0.930 . S
H588 C596 0.930 . S
H589 C597 0.930 . S
H590 C621 0.929 . S
H591 C579 0.930 . S
H592 C580 0.929 . S
H593 C622 0.930 . S
H594 C603 0.930 . S
N595 Gd564 2.661 . S
N595 C599 1.350 . S
N595 C600 1.307 . S
C596 H588 0.930 . S
C596 C597 1.355 . S
C596 C598 1.412 . S
C597 H589 0.930 . S
C597 C596 1.355 . S
C597 C600 1.402 . S
C598 C596 1.412 . S
C598 C599 1.417 . S
C598 C622 1.431 . S
C599 N595 1.350 . S
C599 C598 1.417 . S
C599 C602 1.426 . S
C600 H583 0.930 . S
C600 N595 1.307 . S
C600 C597 1.402 . S
N601 Gd564 2.601 . S
N601 C602 1.359 . S
N601 C605 1.334 . S
C602 C599 1.426 . S
C602 N601 1.359 . S
C602 C606 1.413 . S
C603 H594 0.930 . S
C603 C604 1.359 . S
C603 C605 1.394 . S
C604 C603 1.359 . S
C604 C606 1.391 . S
C604 H607 0.929 . S
C605 H587 0.930 . S
C605 N601 1.334 . S
C605 C603 1.394 . S
C606 C602 1.413 . S
C606 C604 1.391 . S
C606 C621 1.437 . S
H607 C604 0.929 . S
O608 Gd564 2.545 . S
O608 C623 1.258 . S
O609 Gd564 2.606 . S
O609 Gd565 2.362 . S
O609 C620 1.284 . S
O610 Gd565 2.324 . S
O610 C630 1.254 . S
O611 Gd564 2.429 . S
O611 C630 1.268 . S
O612 Gd564 2.545 . S
O612 C620 1.250 . S
O613 Gd564 2.412 . S
O613 C623 1.252 . S
O614 Gd565 2.545 . S
O614 C632 1.258 . S
O615 Gd564 2.362 . S
O615 Gd565 2.606 . S
O615 C631 1.284 . S
O616 Gd564 2.324 . S
O616 C639 1.254 . S
O617 Gd565 2.429 . S
O617 C639 1.268 . S
O618 Gd565 2.545 . S
O618 C631 1.250 . S
O619 Gd565 2.412 . S
O619 C632 1.252 . S
C620 O609 1.284 . S
C620 O612 1.250 . S
C621 H590 0.929 . S
C621 C606 1.437 . S
C621 C622 1.317 . S
C622 H593 0.930 . S
C622 C598 1.431 . S
C622 C621 1.317 . S
C623 Gd564 2.828 . S
C623 O608 1.258 . S
C623 O613 1.252 . S
C623 C624 1.497 . S
C624 C623 1.497 . S
C624 C625 1.395 . S
C624 C626 1.380 . S
C625 C624 1.395 . S
C625 C628 1.398 . S
C625 H640 0.930 . S
C626 C624 1.380 . S
C626 C627 1.391 . S
C626 H641 0.930 . S
C627 C626 1.391 . S
C627 C629 1.387 . S
C628 C625 1.398 . S
C628 C629 1.380 . S
C628 H642 0.930 . S
C629 C627 1.387 . S
C629 C628 1.380 . S
C629 H643 0.930 . S
C630 O610 1.254 . S
C630 O611 1.268 . S
C631 O615 1.284 . S
C631 O618 1.250 . S
C632 Gd565 2.828 . S
C632 O614 1.258 . S
C632 O619 1.252 . S
C632 C633 1.497 . S
C633 C632 1.497 . S
C633 C634 1.395 . S
C633 C635 1.380 . S
C634 C633 1.395 . S
C634 C637 1.398 . S
C634 H644 0.930 . S
C635 C633 1.380 . S
C635 C636 1.391 . S
C635 H645 0.930 . S
C636 C635 1.391 . S
C636 C638 1.387 . S
C637 C634 1.398 . S
C637 C638 1.380 . S
C637 H646 0.930 . S
C638 C636 1.387 . S
C638 C637 1.380 . S
C638 H647 0.930 . S
C639 O616 1.254 . S
C639 O617 1.268 . S
H640 C625 0.930 . S
H641 C626 0.930 . S
H642 C628 0.930 . S
H643 C629 0.930 . S
H644 C634 0.930 . S
H645 C635 0.930 . S
H646 C637 0.930 . S
H647 C638 0.930 . S
Gd648 N679 2.661 1_545 S
Gd648 N685 2.601 1_545 S
Gd648 O692 2.545 1_545 S
Gd648 O693 2.606 . S
Gd648 O695 2.429 . S
Gd648 O696 2.545 . S
Gd648 O697 2.412 1_545 S
Gd648 O699 2.362 . S
Gd648 O700 2.324 . S
Gd648 C707 2.828 1_545 S
Gd649 N658 2.661 . S
Gd649 N662 2.601 . S
Gd649 O693 2.362 . S
Gd649 O694 2.324 . S
Gd649 O698 2.545 . S
Gd649 O699 2.606 . S
Gd649 O701 2.429 . S
Gd649 O702 2.545 . S
Gd649 O703 2.412 . S
Gd649 C716 2.828 . S
C650 C653 1.417 . S
C650 C655 1.431 . S
C650 C656 1.412 . S
C651 C654 1.437 . S
C651 C655 1.317 . S
C651 H670 0.929 . S
C652 C653 1.426 . S
C652 C654 1.413 . S
C652 N662 1.359 . S
C653 C650 1.417 . S
C653 C652 1.426 . S
C653 N658 1.350 . S
C654 C651 1.437 . S
C654 C652 1.413 . S
C654 C664 1.391 . S
C655 C650 1.431 . S
C655 C651 1.317 . S
C655 H666 0.930 . S
C656 C650 1.412 . S
C656 C657 1.355 . S
C656 H668 0.930 . S
C657 C656 1.355 . S
C657 C659 1.402 . S
C657 H669 0.930 . S
N658 Gd649 2.661 . S
N658 C653 1.350 . S
N658 C659 1.307 . S
C659 C657 1.402 . S
C659 N658 1.307 . S
C659 H660 0.930 . S
H660 C659 0.930 . S
C661 N662 1.334 . S
C661 C663 1.408 . S
C661 H665 0.930 . S
N662 Gd649 2.601 . S
N662 C652 1.359 . S
N662 C661 1.334 . S
C663 C661 1.408 . S
C663 C664 1.368 . S
C663 H675 0.907 1_455 S
C664 C654 1.391 . S
C664 C663 1.368 . S
C664 H676 0.929 . S
H665 C661 0.930 . S
H666 C655 0.930 . S
H667 C684 0.930 . S
H668 C656 0.930 . S
H669 C657 0.930 . S
H670 C651 0.929 . S
H671 C689 0.936 . S
H672 C680 0.930 1_655 S
H673 C681 0.930 . S
H674 C705 0.929 . S
H675 C663 0.907 1_655 S
H676 C664 0.929 . S
H677 C706 0.930 . S
H678 C687 0.930 . S
N679 Gd648 2.661 1_565 S
N679 C683 1.350 . S
N679 C684 1.307 . S
C680 H672 0.930 1_455 S
C680 C681 1.355 1_455 S
C680 C682 1.412 . S
C681 H673 0.930 . S
C681 C680 1.355 1_655 S
C681 C684 1.402 1_655 S
C682 C680 1.412 . S
C682 C683 1.417 . S
C682 C706 1.431 . S
C683 N679 1.350 . S
C683 C682 1.417 . S
C683 C686 1.426 . S
C684 H667 0.930 . S
C684 N679 1.307 . S
C684 C681 1.402 1_455 S
N685 Gd648 2.601 1_565 S
N685 C686 1.359 . S
N685 C689 1.334 . S
C686 C683 1.426 . S
C686 N685 1.359 . S
C686 C690 1.413 . S
C687 H678 0.930 . S
C687 C688 1.359 . S
C687 C689 1.394 . S
C688 C687 1.359 . S
C688 C690 1.391 . S
C688 H691 0.929 . S
C689 H671 0.936 . S
C689 N685 1.334 . S
C689 C687 1.394 . S
C690 C686 1.413 . S
C690 C688 1.391 . S
C690 C705 1.437 . S
H691 C688 0.929 . S
O692 Gd648 2.545 1_565 S
O692 C707 1.258 . S
O693 Gd648 2.606 . S
O693 Gd649 2.362 . S
O693 C704 1.284 . S
O694 Gd649 2.324 . S
O694 C714 1.254 . S
O695 Gd648 2.429 . S
O695 C714 1.268 . S
O696 Gd648 2.545 . S
O696 C704 1.250 . S
O697 Gd648 2.412 1_565 S
O697 C707 1.252 . S
O698 Gd649 2.545 . S
O698 C716 1.258 . S
O699 Gd648 2.362 . S
O699 Gd649 2.606 . S
O699 C715 1.284 . S
O700 Gd648 2.324 . S
O700 C723 1.254 . S
O701 Gd649 2.429 . S
O701 C723 1.268 . S
O702 Gd649 2.545 . S
O702 C715 1.250 . S
O703 Gd649 2.412 . S
O703 C716 1.252 . S
C704 O693 1.284 . S
C704 O696 1.250 . S
C705 H674 0.929 . S
C705 C690 1.437 . S
C705 C706 1.317 . S
C706 H677 0.930 . S
C706 C682 1.431 . S
C706 C705 1.317 . S
C707 Gd648 2.828 1_565 S
C707 O692 1.258 . S
C707 O697 1.252 . S
C707 C708 1.497 . S
C708 C707 1.497 . S
C708 C709 1.395 . S
C708 C710 1.380 . S
C709 C708 1.395 . S
C709 C712 1.398 . S
C709 H724 0.930 . S
C710 C708 1.380 . S
C710 C711 1.391 . S
C710 H725 0.930 . S
C711 C710 1.391 . S
C711 C713 1.387 . S
C712 C709 1.398 . S
C712 C713 1.380 . S
C712 H726 0.930 . S
C713 C711 1.387 . S
C713 C712 1.380 . S
C713 H727 0.930 . S
C714 O694 1.254 . S
C714 O695 1.268 . S
C715 O699 1.284 . S
C715 O702 1.250 . S
C716 Gd649 2.828 . S
C716 O698 1.258 . S
C716 O703 1.252 . S
C716 C717 1.497 . S
C717 C716 1.497 . S
C717 C718 1.395 . S
C717 C719 1.380 . S
C718 C717 1.395 . S
C718 C721 1.398 . S
C718 H728 0.930 . S
C719 C717 1.380 . S
C719 C720 1.391 . S
C719 H729 0.930 . S
C720 C719 1.391 . S
C720 C722 1.387 . S
C721 C718 1.398 . S
C721 C722 1.380 . S
C721 H730 0.930 . S
C722 C720 1.387 . S
C722 C721 1.380 . S
C722 H731 0.930 . S
C723 O700 1.254 . S
C723 O701 1.268 . S
H724 C709 0.930 . S
H725 C710 0.930 . S
H726 C712 0.930 . S
H727 C713 0.930 . S
H728 C718 0.930 . S
H729 C719 0.930 . S
H730 C721 0.930 . S
H731 C722 0.930 . S
Gd732 N763 2.661 . S
Gd732 N769 2.601 . S
Gd732 O776 2.545 . S
Gd732 O777 2.606 . S
Gd732 O779 2.429 . S
Gd732 O780 2.545 . S
Gd732 O781 2.412 . S
Gd732 O783 2.362 . S
Gd732 O784 2.324 . S
Gd732 C791 2.828 . S
Gd733 N742 2.661 . S
Gd733 N746 2.601 . S
Gd733 O777 2.362 . S
Gd733 O778 2.324 . S
Gd733 O782 2.545 . S
Gd733 O783 2.606 . S
Gd733 O785 2.429 . S
Gd733 O786 2.545 . S
Gd733 O787 2.412 . S
Gd733 C800 2.828 . S
C734 C737 1.417 . S
C734 C739 1.431 . S
C734 C740 1.412 . S
C735 C738 1.437 . S
C735 C739 1.317 . S
C735 H754 0.929 . S
C736 C737 1.426 . S
C736 C738 1.413 . S
C736 N746 1.359 . S
C737 C734 1.417 . S
C737 C736 1.426 . S
C737 N742 1.350 . S
C738 C735 1.437 . S
C738 C736 1.413 . S
C738 C748 1.391 . S
C739 C734 1.431 . S
C739 C735 1.317 . S
C739 H750 0.930 . S
C740 C734 1.412 . S
C740 C741 1.355 . S
C740 H752 0.930 . S
C741 C740 1.355 . S
C741 C743 1.402 . S
C741 H753 0.930 . S
N742 Gd733 2.661 . S
N742 C737 1.350 . S
N742 C743 1.307 . S
C743 C741 1.402 . S
C743 N742 1.307 . S
C743 H744 0.930 . S
H744 C743 0.930 . S
C745 N746 1.334 . S
C745 C747 1.394 . S
C745 H749 0.930 . S
N746 Gd733 2.601 . S
N746 C736 1.359 . S
N746 C745 1.334 . S
C747 C745 1.394 . S
C747 C748 1.359 . S
C747 H759 0.930 . S
C748 C738 1.391 . S
C748 C747 1.359 . S
C748 H760 0.929 . S
H749 C745 0.930 . S
H750 C739 0.930 . S
H751 C768 0.930 . S
H752 C740 0.930 . S
H753 C741 0.930 . S
H754 C735 0.929 . S
H755 C773 0.930 . S
H756 C764 0.930 . S
H757 C765 0.930 . S
H758 C789 0.929 . S
H759 C747 0.930 . S
H760 C748 0.929 . S
H761 C790 0.930 . S
H762 C771 0.930 . S
N763 Gd732 2.661 . S
N763 C767 1.350 . S
N763 C768 1.307 . S
C764 H756 0.930 . S
C764 C765 1.355 . S
C764 C766 1.412 . S
C765 H757 0.930 . S
C765 C764 1.355 . S
C765 C768 1.402 . S
C766 C764 1.412 . S
C766 C767 1.417 . S
C766 C790 1.431 . S
C767 N763 1.350 . S
C767 C766 1.417 . S
C767 C770 1.426 . S
C768 H751 0.930 . S
C768 N763 1.307 . S
C768 C765 1.402 . S
N769 Gd732 2.601 . S
N769 C770 1.359 . S
N769 C773 1.334 . S
C770 C767 1.426 . S
C770 N769 1.359 . S
C770 C774 1.413 . S
C771 H762 0.930 . S
C771 C772 1.359 . S
C771 C773 1.394 . S
C772 C771 1.359 . S
C772 C774 1.391 . S
C772 H775 0.929 . S
C773 H755 0.930 . S
C773 N769 1.334 . S
C773 C771 1.394 . S
C774 C770 1.413 . S
C774 C772 1.391 . S
C774 C789 1.437 . S
H775 C772 0.929 . S
O776 Gd732 2.545 . S
O776 C791 1.258 . S
O777 Gd732 2.606 . S
O777 Gd733 2.362 . S
O777 C788 1.284 . S
O778 Gd733 2.324 . S
O778 C798 1.254 . S
O779 Gd732 2.429 . S
O779 C798 1.268 . S
O780 Gd732 2.545 . S
O780 C788 1.250 . S
O781 Gd732 2.412 . S
O781 C791 1.252 . S
O782 Gd733 2.545 . S
O782 C800 1.258 . S
O783 Gd732 2.362 . S
O783 Gd733 2.606 . S
O783 C799 1.284 . S
O784 Gd732 2.324 . S
O784 C807 1.254 . S
O785 Gd733 2.429 . S
O785 C807 1.268 . S
O786 Gd733 2.545 . S
O786 C799 1.250 . S
O787 Gd733 2.412 . S
O787 C800 1.252 . S
C788 O777 1.284 . S
C788 O780 1.250 . S
C789 H758 0.929 . S
C789 C774 1.437 . S
C789 C790 1.317 . S
C790 H761 0.930 . S
C790 C766 1.431 . S
C790 C789 1.317 . S
C791 Gd732 2.828 . S
C791 O776 1.258 . S
C791 O781 1.252 . S
C791 C792 1.497 . S
C792 C791 1.497 . S
C792 C793 1.395 . S
C792 C794 1.380 . S
C793 C792 1.395 . S
C793 C796 1.398 . S
C793 H808 0.930 . S
C794 C792 1.380 . S
C794 C795 1.391 . S
C794 H809 0.930 . S
C795 C794 1.391 . S
C795 C797 1.387 . S
C796 C793 1.398 . S
C796 C797 1.380 . S
C796 H810 0.930 . S
C797 C795 1.387 . S
C797 C796 1.380 . S
C797 H811 0.930 . S
C798 O778 1.254 . S
C798 O779 1.268 . S
C799 O783 1.284 . S
C799 O786 1.250 . S
C800 Gd733 2.828 . S
C800 O782 1.258 . S
C800 O787 1.252 . S
C800 C801 1.497 . S
C801 C800 1.497 . S
C801 C802 1.395 . S
C801 C803 1.380 . S
C802 C801 1.395 . S
C802 C805 1.398 . S
C802 H812 0.930 . S
C803 C801 1.380 . S
C803 C804 1.391 . S
C803 H813 0.930 . S
C804 C803 1.391 . S
C804 C806 1.387 . S
C805 C802 1.398 . S
C805 C806 1.380 . S
C805 H814 0.930 . S
C806 C804 1.387 . S
C806 C805 1.380 . S
C806 H815 0.930 . S
C807 O784 1.254 . S
C807 O785 1.268 . S
H808 C793 0.930 . S
H809 C794 0.930 . S
H810 C796 0.930 . S
H811 C797 0.930 . S
H812 C802 0.930 . S
H813 C803 0.930 . S
H814 C805 0.930 . S
H815 C806 0.930 . S
Gd816 N847 2.661 . S
Gd816 N853 2.601 . S
Gd816 O860 2.545 . S
Gd816 O861 2.606 1_556 S
Gd816 O863 2.429 1_556 S
Gd816 O864 2.545 . S
Gd816 O865 2.412 . S
Gd816 O867 2.362 1_556 S
Gd816 O868 2.324 . S
Gd816 C875 2.828 . S
Gd817 N826 2.661 . S
Gd817 N830 2.601 . S
Gd817 O861 2.362 . S
Gd817 O862 2.324 . S
Gd817 O866 2.545 1_545 S
Gd817 O867 2.606 . S
Gd817 O869 2.429 1_545 S
Gd817 O870 2.545 . S
Gd817 O871 2.412 . S
Gd817 C884 2.828 . S
C818 C821 1.417 . S
C818 C823 1.431 . S
C818 C824 1.412 . S
C819 C822 1.437 . S
C819 C823 1.317 . S
C819 H838 0.929 . S
C820 C821 1.426 . S
C820 C822 1.413 . S
C820 N830 1.359 . S
C821 C818 1.417 . S
C821 C820 1.426 . S
C821 N826 1.350 . S
C822 C819 1.437 . S
C822 C820 1.413 . S
C822 C832 1.391 1_545 S
C823 C818 1.431 . S
C823 C819 1.317 . S
C823 H834 0.930 . S
C824 C818 1.412 . S
C824 C825 1.355 . S
C824 H836 0.930 . S
C825 C824 1.355 . S
C825 C827 1.402 . S
C825 H837 0.930 . S
N826 Gd817 2.661 . S
N826 C821 1.350 . S
N826 C827 1.307 . S
C827 C825 1.402 . S
C827 N826 1.307 . S
C827 H828 0.930 . S
H828 C827 0.930 . S
C829 N830 1.334 1_565 S
C829 C831 1.394 . S
C829 H833 0.930 . S
N830 Gd817 2.601 . S
N830 C820 1.359 . S
N830 C829 1.334 1_545 S
C831 C829 1.394 . S
C831 C832 1.359 . S
C831 H843 0.930 . S
C832 C822 1.391 1_565 S
C832 C831 1.359 . S
C832 H844 0.929 . S
H833 C829 0.930 . S
H834 C823 0.930 . S
H835 C852 0.930 . S
H836 C824 0.930 . S
H837 C825 0.930 . S
H838 C819 0.929 . S
H839 C857 0.930 . S
H840 C848 0.930 . S
H841 C849 0.930 . S
H842 C873 0.929 . S
H843 C831 0.930 . S
H844 C832 0.929 . S
H845 C874 0.930 . S
H846 C855 0.930 . S
N847 Gd816 2.661 . S
N847 C851 1.350 . S
N847 C852 1.307 1_545 S
C848 H840 0.930 . S
C848 C849 1.355 . S
C848 C850 1.412 1_565 S
C849 H841 0.930 . S
C849 C848 1.355 . S
C849 C852 1.402 . S
C850 C848 1.412 1_545 S
C850 C851 1.417 . S
C850 C874 1.431 . S
C851 N847 1.350 . S
C851 C850 1.417 . S
C851 C854 1.426 . S
C852 H835 0.930 . S
C852 N847 1.307 1_565 S
C852 C849 1.402 . S
N853 Gd816 2.601 . S
N853 C854 1.359 . S
N853 C857 1.334 . S
C854 C851 1.426 . S
C854 N853 1.359 . S
C854 C858 1.413 . S
C855 H846 0.930 . S
C855 C856 1.359 . S
C855 C857 1.394 . S
C856 C855 1.359 . S
C856 C858 1.391 . S
C856 H859 0.929 . S
C857 H839 0.930 . S
C857 N853 1.334 . S
C857 C855 1.394 . S
C858 C854 1.413 . S
C858 C856 1.391 . S
C858 C873 1.437 . S
H859 C856 0.929 . S
O860 Gd816 2.545 . S
O860 C875 1.258 . S
O861 Gd816 2.606 1_554 S
O861 Gd817 2.362 . S
O861 C872 1.284 . S
O862 Gd817 2.324 . S
O862 C882 1.254 . S
O863 Gd816 2.429 1_554 S
O863 C882 1.268 . S
O864 Gd816 2.545 . S
O864 C872 1.250 1_556 S
O865 Gd816 2.412 . S
O865 C875 1.252 . S
O866 Gd817 2.545 1_565 S
O866 C884 1.258 1_565 S
O867 Gd816 2.362 1_554 S
O867 Gd817 2.606 . S
O867 C883 1.284 . S
O868 Gd816 2.324 . S
O868 C891 1.254 1_545 S
O869 Gd817 2.429 1_565 S
O869 C891 1.268 1_554 S
O870 Gd817 2.545 . S
O870 C883 1.250 . S
O871 Gd817 2.412 . S
O871 C884 1.252 . S
C872 O861 1.284 . S
C872 O864 1.250 1_554 S
C873 H842 0.929 . S
C873 C858 1.437 . S
C873 C874 1.317 . S
C874 H845 0.930 . S
C874 C850 1.431 . S
C874 C873 1.317 . S
C875 Gd816 2.828 . S
C875 O860 1.258 . S
C875 O865 1.252 . S
C875 C876 1.497 . S
C876 C875 1.497 . S
C876 C877 1.395 . S
C876 C878 1.380 . S
C877 C876 1.395 . S
C877 C880 1.398 . S
C877 H892 0.930 . S
C878 C876 1.380 . S
C878 C879 1.391 . S
C878 H893 0.930 . S
C879 C878 1.391 . S
C879 C881 1.387 . S
C880 C877 1.398 . S
C880 C881 1.380 . S
C880 H894 0.930 . S
C881 C879 1.387 . S
C881 C880 1.380 . S
C881 H895 0.930 . S
C882 O862 1.254 . S
C882 O863 1.268 . S
C883 O867 1.284 . S
C883 O870 1.250 . S
C884 Gd817 2.828 . S
C884 O866 1.258 1_545 S
C884 O871 1.252 . S
C884 C885 1.497 . S
C885 C884 1.497 . S
C885 C886 1.395 1_545 S
C885 C887 1.380 . S
C886 C885 1.395 1_565 S
C886 C889 1.398 . S
C886 H896 0.930 . S
C887 C885 1.380 . S
C887 C888 1.391 . S
C887 H897 0.930 . S
C888 C887 1.391 . S
C888 C890 1.387 1_545 S
C889 C886 1.398 . S
C889 C890 1.380 . S
C889 H898 0.930 . S
C890 C888 1.387 1_565 S
C890 C889 1.380 . S
C890 H899 0.930 . S
C891 O868 1.254 1_565 S
C891 O869 1.268 1_556 S
H892 C877 0.930 . S
H893 C878 0.930 . S
H894 C880 0.930 . S
H895 C881 0.930 . S
H896 C886 0.930 . S
H897 C887 0.930 . S
H898 C889 0.930 . S
H899 C890 0.930 . S
Gd900 N931 2.661 . S
Gd900 N937 2.601 . S
Gd900 O944 2.545 . S
Gd900 O945 2.606 . S
Gd900 O947 2.429 . S
Gd900 O948 2.545 . S
Gd900 O949 2.412 . S
Gd900 O951 2.362 . S
Gd900 O952 2.324 . S
Gd900 C959 2.828 . S
Gd901 N910 2.661 . S
Gd901 N914 2.601 . S
Gd901 O945 2.362 . S
Gd901 O946 2.324 . S
Gd901 O950 2.545 . S
Gd901 O951 2.606 . S
Gd901 O953 2.429 . S
Gd901 O954 2.545 . S
Gd901 O955 2.412 . S
Gd901 C968 2.828 . S
C902 C905 1.417 . S
C902 C907 1.431 . S
C902 C908 1.412 . S
C903 C906 1.437 . S
C903 C907 1.317 . S
C903 H922 0.929 . S
C904 C905 1.426 . S
C904 C906 1.413 . S
C904 N914 1.359 . S
C905 C902 1.417 . S
C905 C904 1.426 . S
C905 N910 1.350 . S
C906 C903 1.437 . S
C906 C904 1.413 . S
C906 C916 1.391 . S
C907 C902 1.431 . S
C907 C903 1.317 . S
C907 H918 0.930 . S
C908 C902 1.412 . S
C908 C909 1.355 . S
C908 H920 0.930 . S
C909 C908 1.355 . S
C909 C911 1.402 . S
C909 H921 0.930 . S
N910 Gd901 2.661 . S
N910 C905 1.350 . S
N910 C911 1.307 . S
C911 C909 1.402 . S
C911 N910 1.307 . S
C911 H912 0.930 . S
H912 C911 0.930 . S
C913 N914 1.334 . S
C913 C915 1.394 . S
C913 H917 0.930 . S
N914 Gd901 2.601 . S
N914 C904 1.359 . S
N914 C913 1.334 . S
C915 C913 1.394 . S
C915 C916 1.359 . S
C915 H927 0.930 . S
C916 C906 1.391 . S
C916 C915 1.359 . S
C916 H928 0.929 . S
H917 C913 0.930 . S
H918 C907 0.930 . S
H919 C936 0.930 . S
H920 C908 0.930 . S
H921 C909 0.930 . S
H922 C903 0.929 . S
H923 C941 0.930 . S
H924 C932 0.930 . S
H925 C933 0.930 . S
H926 C957 0.929 . S
H927 C915 0.930 . S
H928 C916 0.929 . S
H929 C958 0.930 . S
H930 C939 0.930 . S
N931 Gd900 2.661 . S
N931 C935 1.350 . S
N931 C936 1.307 . S
C932 H924 0.930 . S
C932 C933 1.355 . S
C932 C934 1.412 . S
C933 H925 0.930 . S
C933 C932 1.355 . S
C933 C936 1.402 . S
C934 C932 1.412 . S
C934 C935 1.417 . S
C934 C958 1.431 . S
C935 N931 1.350 . S
C935 C934 1.417 . S
C935 C938 1.426 . S
C936 H919 0.930 . S
C936 N931 1.307 . S
C936 C933 1.402 . S
N937 Gd900 2.601 . S
N937 C938 1.359 . S
N937 C941 1.334 . S
C938 C935 1.426 . S
C938 N937 1.359 . S
C938 C942 1.413 . S
C939 H930 0.930 . S
C939 C940 1.359 . S
C939 C941 1.394 . S
C940 C939 1.359 . S
C940 C942 1.391 . S
C940 H943 0.929 . S
C941 H923 0.930 . S
C941 N937 1.334 . S
C941 C939 1.394 . S
C942 C938 1.413 . S
C942 C940 1.391 . S
C942 C957 1.437 . S
H943 C940 0.929 . S
O944 Gd900 2.545 . S
O944 C959 1.258 . S
O945 Gd900 2.606 . S
O945 Gd901 2.362 . S
O945 C956 1.284 . S
O946 Gd901 2.324 . S
O946 C966 1.254 . S
O947 Gd900 2.429 . S
O947 C966 1.268 . S
O948 Gd900 2.545 . S
O948 C956 1.250 . S
O949 Gd900 2.412 . S
O949 C959 1.252 . S
O950 Gd901 2.545 . S
O950 C968 1.258 . S
O951 Gd900 2.362 . S
O951 Gd901 2.606 . S
O951 C967 1.284 . S
O952 Gd900 2.324 . S
O952 C975 1.254 . S
O953 Gd901 2.429 . S
O953 C975 1.268 . S
O954 Gd901 2.545 . S
O954 C967 1.250 . S
O955 Gd901 2.412 . S
O955 C968 1.252 . S
C956 O945 1.284 . S
C956 O948 1.250 . S
C957 H926 0.929 . S
C957 C942 1.437 . S
C957 C958 1.317 . S
C958 H929 0.930 . S
C958 C934 1.431 . S
C958 C957 1.317 . S
C959 Gd900 2.828 . S
C959 O944 1.258 . S
C959 O949 1.252 . S
C959 C960 1.497 . S
C960 C959 1.497 . S
C960 C961 1.395 . S
C960 C962 1.380 . S
C961 C960 1.395 . S
C961 C964 1.398 . S
C961 H976 0.930 . S
C962 C960 1.380 . S
C962 C963 1.391 . S
C962 H977 0.930 . S
C963 C962 1.391 . S
C963 C965 1.387 . S
C964 C961 1.398 . S
C964 C965 1.380 . S
C964 H978 0.930 . S
C965 C963 1.387 . S
C965 C964 1.380 . S
C965 H979 0.930 . S
C966 O946 1.254 . S
C966 O947 1.268 . S
C967 O951 1.284 . S
C967 O954 1.250 . S
C968 Gd901 2.828 . S
C968 O950 1.258 . S
C968 O955 1.252 . S
C968 C969 1.497 . S
C969 C968 1.497 . S
C969 C970 1.395 . S
C969 C971 1.380 . S
C970 C969 1.395 . S
C970 C973 1.398 . S
C970 H980 0.930 . S
C971 C969 1.380 . S
C971 C972 1.391 . S
C971 H981 0.930 . S
C972 C971 1.391 . S
C972 C974 1.387 . S
C973 C970 1.398 . S
C973 C974 1.380 . S
C973 H982 0.930 . S
C974 C972 1.387 . S
C974 C973 1.380 . S
C974 H983 0.930 . S
C975 O952 1.254 . S
C975 O953 1.268 . S
H976 C961 0.930 . S
H977 C962 0.930 . S
H978 C964 0.930 . S
H979 C965 0.930 . S
H980 C970 0.930 . S
H981 C971 0.930 . S
H982 C973 0.930 . S
H983 C974 0.930 . S
Gd984 N1015 2.661 1_554 S
Gd984 N1021 2.601 1_554 S
Gd984 O1028 2.545 . S
Gd984 O1029 2.606 . S
Gd984 O1031 2.429 . S
Gd984 O1032 2.545 . S
Gd984 O1033 2.412 . S
Gd984 O1035 2.362 1_554 S
Gd984 O1036 2.324 . S
Gd984 C1043 2.828 . S
Gd985 N994 2.661 . S
Gd985 N998 2.601 . S
Gd985 O1029 2.362 . S
Gd985 O1030 2.324 . S
Gd985 O1034 2.545 . S
Gd985 O1035 2.606 1_554 S
Gd985 O1037 2.429 . S
Gd985 O1038 2.545 1_554 S
Gd985 O1039 2.412 . S
Gd985 C1052 2.828 . S
C986 C989 1.417 . S
C986 C991 1.431 . S
C986 C992 1.412 . S
C987 C990 1.437 . S
C987 C991 1.317 . S
C987 H1006 0.929 . S
C988 C989 1.426 . S
C988 C990 1.413 . S
C988 N998 1.359 . S
C989 C986 1.417 . S
C989 C988 1.426 . S
C989 N994 1.350 . S
C990 C987 1.437 . S
C990 C988 1.413 . S
C990 C1000 1.391 . S
C991 C986 1.431 . S
C991 C987 1.317 . S
C991 H1002 0.930 . S
C992 C986 1.412 . S
C992 C993 1.355 . S
C992 H1004 0.930 . S
C993 C992 1.355 . S
C993 C995 1.402 . S
C993 H1005 0.930 . S
N994 Gd985 2.661 . S
N994 C989 1.350 . S
N994 C995 1.307 . S
C995 C993 1.402 . S
C995 N994 1.307 . S
C995 H996 0.930 . S
H996 C995 0.930 . S
C997 N998 1.334 . S
C997 C999 1.394 . S
C997 H1001 0.930 . S
N998 Gd985 2.601 . S
N998 C988 1.359 . S
N998 C997 1.334 . S
C999 C997 1.394 . S
C999 C1000 1.359 . S
C999 H1011 0.930 . S
C1000 C990 1.391 . S
C1000 C999 1.359 . S
C1000 H1012 0.929 . S
H1001 C997 0.930 . S
H1002 C991 0.930 . S
H1003 C1020 0.930 . S
H1004 C992 0.930 . S
H1005 C993 0.930 . S
H1006 C987 0.929 . S
H1007 C1025 0.930 . S
H1008 C1016 0.930 . S
H1009 C1017 0.930 . S
H1010 C1041 0.929 . S
H1011 C999 0.930 . S
H1012 C1000 0.929 . S
H1013 C1042 0.930 . S
H1014 C1023 0.930 . S
N1015 Gd984 2.661 1_556 S
N1015 C1019 1.350 . S
N1015 C1020 1.307 . S
C1016 H1008 0.930 . S
C1016 C1017 1.355 . S
C1016 C1018 1.412 . S
C1017 H1009 0.930 . S
C1017 C1016 1.355 . S
C1017 C1020 1.402 . S
C1018 C1016 1.412 . S
C1018 C1019 1.417 . S
C1018 C1042 1.431 . S
C1019 N1015 1.350 . S
C1019 C1018 1.417 . S
C1019 C1022 1.426 . S
C1020 H1003 0.930 . S
C1020 N1015 1.307 . S
C1020 C1017 1.402 . S
N1021 Gd984 2.601 1_556 S
N1021 C1022 1.359 . S
N1021 C1025 1.334 . S
C1022 C1019 1.426 . S
C1022 N1021 1.359 . S
C1022 C1026 1.413 . S
C1023 H1014 0.930 . S
C1023 C1024 1.359 . S
C1023 C1025 1.394 . S
C1024 C1023 1.359 . S
C1024 C1026 1.391 . S
C1024 H1027 0.929 . S
C1025 H1007 0.930 . S
C1025 N1021 1.334 . S
C1025 C1023 1.394 . S
C1026 C1022 1.413 . S
C1026 C1024 1.391 . S
C1026 C1041 1.437 . S
H1027 C1024 0.929 . S
O1028 Gd984 2.545 . S
O1028 C1043 1.258 . S
O1029 Gd984 2.606 . S
O1029 Gd985 2.362 . S
O1029 C1040 1.284 . S
O1030 Gd985 2.324 . S
O1030 C1050 1.254 . S
O1031 Gd984 2.429 . S
O1031 C1050 1.268 . S
O1032 Gd984 2.545 . S
O1032 C1040 1.250 . S
O1033 Gd984 2.412 . S
O1033 C1043 1.252 . S
O1034 Gd985 2.545 . S
O1034 C1052 1.258 . S
O1035 Gd984 2.362 1_556 S
O1035 Gd985 2.606 1_556 S
O1035 C1051 1.284 . S
O1036 Gd984 2.324 . S
O1036 C1059 1.254 . S
O1037 Gd985 2.429 . S
O1037 C1059 1.268 . S
O1038 Gd985 2.545 1_556 S
O1038 C1051 1.250 . S
O1039 Gd985 2.412 . S
O1039 C1052 1.252 . S
C1040 O1029 1.284 . S
C1040 O1032 1.250 . S
C1041 H1010 0.929 . S
C1041 C1026 1.437 . S
C1041 C1042 1.317 . S
C1042 H1013 0.930 . S
C1042 C1018 1.431 . S
C1042 C1041 1.317 . S
C1043 Gd984 2.828 . S
C1043 O1028 1.258 . S
C1043 O1033 1.252 . S
C1043 C1044 1.497 . S
C1044 C1043 1.497 . S
C1044 C1045 1.395 . S
C1044 C1046 1.380 . S
C1045 C1044 1.395 . S
C1045 C1048 1.398 . S
C1045 H1060 0.930 . S
C1046 C1044 1.380 . S
C1046 C1047 1.391 . S
C1046 H1061 0.930 . S
C1047 C1046 1.391 . S
C1047 C1049 1.387 . S
C1048 C1045 1.398 . S
C1048 C1049 1.380 . S
C1048 H1062 0.930 . S
C1049 C1047 1.387 . S
C1049 C1048 1.380 . S
C1049 H1063 0.930 . S
C1050 O1030 1.254 . S
C1050 O1031 1.268 . S
C1051 O1035 1.284 . S
C1051 O1038 1.250 . S
C1052 Gd985 2.828 . S
C1052 O1034 1.258 . S
C1052 O1039 1.252 . S
C1052 C1053 1.497 . S
C1053 C1052 1.497 . S
C1053 C1054 1.395 . S
C1053 C1055 1.380 . S
C1054 C1053 1.395 . S
C1054 C1057 1.398 . S
C1054 H1064 0.930 . S
C1055 C1053 1.380 . S
C1055 C1056 1.391 1_554 S
C1055 H1065 0.935 . S
C1056 C1055 1.391 1_556 S
C1056 C1058 1.387 1_556 S
C1057 C1054 1.398 . S
C1057 C1058 1.380 . S
C1057 H1066 0.930 . S
C1058 C1056 1.387 1_554 S
C1058 C1057 1.380 . S
C1058 H1067 0.930 . S
C1059 O1036 1.254 . S
C1059 O1037 1.268 . S
H1060 C1045 0.930 . S
H1061 C1046 0.930 . S
H1062 C1048 0.930 . S
H1063 C1049 0.930 . S
H1064 C1054 0.930 . S
H1065 C1055 0.935 . S
H1066 C1057 0.930 . S
H1067 C1058 0.930 . S
Gd1068 N1099 2.661 . S
Gd1068 N1105 2.601 . S
Gd1068 O1112 2.545 . S
Gd1068 O1113 2.606 . S
Gd1068 O1115 2.429 . S
Gd1068 O1116 2.545 . S
Gd1068 O1117 2.412 . S
Gd1068 O1119 2.362 . S
Gd1068 O1120 2.324 . S
Gd1068 C1127 2.828 . S
Gd1069 N1078 2.661 . S
Gd1069 N1082 2.601 . S
Gd1069 O1113 2.362 . S
Gd1069 O1114 2.324 . S
Gd1069 O1118 2.545 . S
Gd1069 O1119 2.606 . S
Gd1069 O1121 2.429 . S
Gd1069 O1122 2.545 . S
Gd1069 O1123 2.412 . S
Gd1069 C1136 2.828 . S
C1070 C1073 1.417 . S
C1070 C1075 1.431 . S
C1070 C1076 1.412 . S
C1071 C1074 1.437 . S
C1071 C1075 1.317 . S
C1071 H1090 0.929 . S
C1072 C1073 1.426 . S
C1072 C1074 1.413 . S
C1072 N1082 1.359 . S
C1073 C1070 1.417 . S
C1073 C1072 1.426 . S
C1073 N1078 1.350 . S
C1074 C1071 1.437 . S
C1074 C1072 1.413 . S
C1074 C1084 1.391 . S
C1075 C1070 1.431 . S
C1075 C1071 1.317 . S
C1075 H1086 0.930 . S
C1076 C1070 1.412 . S
C1076 C1077 1.355 . S
C1076 H1088 0.930 . S
C1077 C1076 1.355 . S
C1077 C1079 1.402 . S
C1077 H1089 0.930 . S
N1078 Gd1069 2.661 . S
N1078 C1073 1.350 . S
N1078 C1079 1.307 . S
C1079 C1077 1.402 . S
C1079 N1078 1.307 . S
C1079 H1080 0.930 . S
H1080 C1079 0.930 . S
C1081 N1082 1.334 . S
C1081 C1083 1.394 . S
C1081 H1085 0.930 . S
N1082 Gd1069 2.601 . S
N1082 C1072 1.359 . S
N1082 C1081 1.334 . S
C1083 C1081 1.394 . S
C1083 C1084 1.359 . S
C1083 H1095 0.930 . S
C1084 C1074 1.391 . S
C1084 C1083 1.359 . S
C1084 H1096 0.929 . S
H1085 C1081 0.930 . S
H1086 C1075 0.930 . S
H1087 C1104 0.930 . S
H1088 C1076 0.930 . S
H1089 C1077 0.930 . S
H1090 C1071 0.929 . S
H1091 C1109 0.930 . S
H1092 C1100 0.930 . S
H1093 C1101 0.930 . S
H1094 C1125 0.929 . S
H1095 C1083 0.930 . S
H1096 C1084 0.929 . S
H1097 C1126 0.930 . S
H1098 C1107 0.930 . S
N1099 Gd1068 2.661 . S
N1099 C1103 1.350 . S
N1099 C1104 1.307 . S
C1100 H1092 0.930 . S
C1100 C1101 1.355 . S
C1100 C1102 1.412 . S
C1101 H1093 0.930 . S
C1101 C1100 1.355 . S
C1101 C1104 1.402 . S
C1102 C1100 1.412 . S
C1102 C1103 1.417 . S
C1102 C1126 1.431 . S
C1103 N1099 1.350 . S
C1103 C1102 1.417 . S
C1103 C1106 1.426 . S
C1104 H1087 0.930 . S
C1104 N1099 1.307 . S
C1104 C1101 1.402 . S
N1105 Gd1068 2.601 . S
N1105 C1106 1.359 . S
N1105 C1109 1.334 . S
C1106 C1103 1.426 . S
C1106 N1105 1.359 . S
C1106 C1110 1.413 . S
C1107 H1098 0.930 . S
C1107 C1108 1.359 . S
C1107 C1109 1.394 . S
C1108 C1107 1.359 . S
C1108 C1110 1.391 . S
C1108 H1111 0.929 . S
C1109 H1091 0.930 . S
C1109 N1105 1.334 . S
C1109 C1107 1.394 . S
C1110 C1106 1.413 . S
C1110 C1108 1.391 . S
C1110 C1125 1.437 . S
H1111 C1108 0.929 . S
O1112 Gd1068 2.545 . S
O1112 C1127 1.258 . S
O1113 Gd1068 2.606 . S
O1113 Gd1069 2.362 . S
O1113 C1124 1.284 . S
O1114 Gd1069 2.324 . S
O1114 C1134 1.254 . S
O1115 Gd1068 2.429 . S
O1115 C1134 1.268 . S
O1116 Gd1068 2.545 . S
O1116 C1124 1.250 . S
O1117 Gd1068 2.412 . S
O1117 C1127 1.252 . S
O1118 Gd1069 2.545 . S
O1118 C1136 1.258 . S
O1119 Gd1068 2.362 . S
O1119 Gd1069 2.606 . S
O1119 C1135 1.284 . S
O1120 Gd1068 2.324 . S
O1120 C1143 1.254 . S
O1121 Gd1069 2.429 . S
O1121 C1143 1.268 . S
O1122 Gd1069 2.545 . S
O1122 C1135 1.250 . S
O1123 Gd1069 2.412 . S
O1123 C1136 1.252 . S
C1124 O1113 1.284 . S
C1124 O1116 1.250 . S
C1125 H1094 0.929 . S
C1125 C1110 1.437 . S
C1125 C1126 1.317 . S
C1126 H1097 0.930 . S
C1126 C1102 1.431 . S
C1126 C1125 1.317 . S
C1127 Gd1068 2.828 . S
C1127 O1112 1.258 . S
C1127 O1117 1.252 . S
C1127 C1128 1.497 . S
C1128 C1127 1.497 . S
C1128 C1129 1.395 . S
C1128 C1130 1.380 . S
C1129 C1128 1.395 . S
C1129 C1132 1.398 . S
C1129 H1144 0.930 . S
C1130 C1128 1.380 . S
C1130 C1131 1.391 . S
C1130 H1145 0.930 . S
C1131 C1130 1.391 . S
C1131 C1133 1.387 . S
C1132 C1129 1.398 . S
C1132 C1133 1.380 . S
C1132 H1146 0.930 . S
C1133 C1131 1.387 . S
C1133 C1132 1.380 . S
C1133 H1147 0.930 . S
C1134 O1114 1.254 . S
C1134 O1115 1.268 . S
C1135 O1119 1.284 . S
C1135 O1122 1.250 . S
C1136 Gd1069 2.828 . S
C1136 O1118 1.258 . S
C1136 O1123 1.252 . S
C1136 C1137 1.497 . S
C1137 C1136 1.497 . S
C1137 C1138 1.395 . S
C1137 C1139 1.380 . S
C1138 C1137 1.395 . S
C1138 C1141 1.398 . S
C1138 H1148 0.930 . S
C1139 C1137 1.380 . S
C1139 C1140 1.391 . S
C1139 H1149 0.930 . S
C1140 C1139 1.391 . S
C1140 C1142 1.387 . S
C1141 C1138 1.398 . S
C1141 C1142 1.380 . S
C1141 H1150 0.930 . S
C1142 C1140 1.387 . S
C1142 C1141 1.380 . S
C1142 H1151 0.930 . S
C1143 O1120 1.254 . S
C1143 O1121 1.268 . S
H1144 C1129 0.930 . S
H1145 C1130 0.930 . S
H1146 C1132 0.930 . S
H1147 C1133 0.930 . S
H1148 C1138 0.930 . S
H1149 C1139 0.930 . S
H1150 C1141 0.930 . S
H1151 C1142 0.930 . S
Gd1152 N1183 2.661 . S
Gd1152 N1189 2.601 . S
Gd1152 O1196 2.545 . S
Gd1152 O1197 2.606 . S
Gd1152 O1199 2.429 . S
Gd1152 O1200 2.545 . S
Gd1152 O1201 2.412 . S
Gd1152 O1203 2.362 . S
Gd1152 O1204 2.324 . S
Gd1152 C1211 2.828 . S
Gd1153 N1162 2.661 . S
Gd1153 N1166 2.601 . S
Gd1153 O1197 2.362 . S
Gd1153 O1198 2.324 . S
Gd1153 O1202 2.545 . S
Gd1153 O1203 2.606 . S
Gd1153 O1205 2.429 . S
Gd1153 O1206 2.545 . S
Gd1153 O1207 2.412 . S
Gd1153 C1220 2.828 . S
C1154 C1157 1.417 . S
C1154 C1159 1.431 . S
C1154 C1160 1.412 . S
C1155 C1158 1.437 . S
C1155 C1159 1.317 . S
C1155 H1174 0.929 . S
C1156 C1157 1.426 . S
C1156 C1158 1.413 . S
C1156 N1166 1.359 . S
C1157 C1154 1.417 . S
C1157 C1156 1.426 . S
C1157 N1162 1.350 . S
C1158 C1155 1.437 . S
C1158 C1156 1.413 . S
C1158 C1168 1.391 . S
C1159 C1154 1.431 . S
C1159 C1155 1.317 . S
C1159 H1170 0.930 . S
C1160 C1154 1.412 . S
C1160 C1161 1.355 . S
C1160 H1172 0.930 . S
C1161 C1160 1.355 . S
C1161 C1163 1.402 . S
C1161 H1173 0.930 . S
N1162 Gd1153 2.661 . S
N1162 C1157 1.350 . S
N1162 C1163 1.307 . S
C1163 C1161 1.402 . S
C1163 N1162 1.307 . S
C1163 H1164 0.930 . S
H1164 C1163 0.930 . S
C1165 N1166 1.334 . S
C1165 C1167 1.394 . S
C1165 H1169 0.930 . S
N1166 Gd1153 2.601 . S
N1166 C1156 1.359 . S
N1166 C1165 1.334 . S
C1167 C1165 1.394 . S
C1167 C1168 1.359 . S
C1167 H1179 0.930 . S
C1168 C1158 1.391 . S
C1168 C1167 1.359 . S
C1168 H1180 0.929 . S
H1169 C1165 0.930 . S
H1170 C1159 0.930 . S
H1171 C1188 0.930 . S
H1172 C1160 0.930 . S
H1173 C1161 0.930 . S
H1174 C1155 0.929 . S
H1175 C1193 0.930 . S
H1176 C1184 0.930 . S
H1177 C1185 0.926 . S
H1178 C1209 0.929 . S
H1179 C1167 0.930 . S
H1180 C1168 0.929 . S
H1181 C1210 0.930 . S
H1182 C1191 0.930 . S
N1183 Gd1152 2.661 . S
N1183 C1187 1.350 . S
N1183 C1188 1.307 . S
C1184 H1176 0.930 . S
C1184 C1185 1.375 . S
C1184 C1186 1.412 . S
C1185 H1177 0.926 . S
C1185 C1184 1.375 . S
C1185 C1188 1.387 1_655 S
C1186 C1184 1.412 . S
C1186 C1187 1.417 1_655 S
C1186 C1210 1.431 . S
C1187 N1183 1.350 . S
C1187 C1186 1.417 1_455 S
C1187 C1190 1.426 . S
C1188 H1171 0.930 . S
C1188 N1183 1.307 . S
C1188 C1185 1.387 1_455 S
N1189 Gd1152 2.601 . S
N1189 C1190 1.359 . S
N1189 C1193 1.334 . S
C1190 C1187 1.426 . S
C1190 N1189 1.359 . S
C1190 C1194 1.413 1_455 S
C1191 H1182 0.930 . S
C1191 C1192 1.359 1_455 S
C1191 C1193 1.394 . S
C1192 C1191 1.359 1_655 S
C1192 C1194 1.391 . S
C1192 H1195 0.929 . S
C1193 H1175 0.930 . S
C1193 N1189 1.334 . S
C1193 C1191 1.394 . S
C1194 C1190 1.413 1_655 S
C1194 C1192 1.391 . S
C1194 C1209 1.437 . S
H1195 C1192 0.929 . S
O1196 Gd1152 2.545 . S
O1196 C1211 1.258 . S
O1197 Gd1152 2.606 . S
O1197 Gd1153 2.362 . S
O1197 C1208 1.284 . S
O1198 Gd1153 2.324 . S
O1198 C1218 1.254 . S
O1199 Gd1152 2.429 . S
O1199 C1218 1.268 . S
O1200 Gd1152 2.545 . S
O1200 C1208 1.250 . S
O1201 Gd1152 2.412 . S
O1201 C1211 1.252 . S
O1202 Gd1153 2.545 . S
O1202 C1220 1.258 . S
O1203 Gd1152 2.362 . S
O1203 Gd1153 2.606 . S
O1203 C1219 1.284 . S
O1204 Gd1152 2.324 . S
O1204 C1227 1.254 . S
O1205 Gd1153 2.429 . S
O1205 C1227 1.268 . S
O1206 Gd1153 2.545 . S
O1206 C1219 1.250 . S
O1207 Gd1153 2.412 . S
O1207 C1220 1.252 . S
C1208 O1197 1.284 . S
C1208 O1200 1.250 . S
C1209 H1178 0.929 . S
C1209 C1194 1.437 . S
C1209 C1210 1.317 . S
C1210 H1181 0.930 . S
C1210 C1186 1.431 . S
C1210 C1209 1.317 . S
C1211 Gd1152 2.828 . S
C1211 O1196 1.258 . S
C1211 O1201 1.252 . S
C1211 C1212 1.497 . S
C1212 C1211 1.497 . S
C1212 C1213 1.395 . S
C1212 C1214 1.380 . S
C1213 C1212 1.395 . S
C1213 C1216 1.398 . S
C1213 H1228 0.930 . S
C1214 C1212 1.380 . S
C1214 C1215 1.391 . S
C1214 H1229 0.930 . S
C1215 C1214 1.391 . S
C1215 C1217 1.387 . S
C1216 C1213 1.398 . S
C1216 C1217 1.380 . S
C1216 H1230 0.930 . S
C1217 C1215 1.387 . S
C1217 C1216 1.380 . S
C1217 H1231 0.930 . S
C1218 O1198 1.254 . S
C1218 O1199 1.268 . S
C1219 O1203 1.284 . S
C1219 O1206 1.250 . S
C1220 Gd1153 2.828 . S
C1220 O1202 1.258 . S
C1220 O1207 1.252 . S
C1220 C1221 1.497 . S
C1221 C1220 1.497 . S
C1221 C1222 1.395 . S
C1221 C1223 1.380 . S
C1222 C1221 1.395 . S
C1222 C1225 1.398 . S
C1222 H1232 0.930 . S
C1223 C1221 1.380 . S
C1223 C1224 1.391 . S
C1223 H1233 0.930 . S
C1224 C1223 1.391 . S
C1224 C1226 1.387 . S
C1225 C1222 1.398 . S
C1225 C1226 1.380 . S
C1225 H1234 0.930 . S
C1226 C1224 1.387 . S
C1226 C1225 1.380 . S
C1226 H1235 0.930 . S
C1227 O1204 1.254 . S
C1227 O1205 1.268 . S
H1228 C1213 0.930 . S
H1229 C1214 0.930 . S
H1230 C1216 0.930 . S
H1231 C1217 0.930 . S
H1232 C1222 0.930 . S
H1233 C1223 0.930 . S
H1234 C1225 0.930 . S
H1235 C1226 0.930 . S
Gd1236 N1267 2.661 . S
Gd1236 N1273 2.601 . S
Gd1236 O1280 2.545 . S
Gd1236 O1281 2.606 . S
Gd1236 O1283 2.429 . S
Gd1236 O1284 2.545 . S
Gd1236 O1285 2.412 . S
Gd1236 O1287 2.362 . S
Gd1236 O1288 2.324 . S
Gd1236 C1295 2.828 . S
Gd1237 N1246 2.661 . S
Gd1237 N1250 2.601 . S
Gd1237 O1281 2.362 . S
Gd1237 O1282 2.324 . S
Gd1237 O1286 2.545 . S
Gd1237 O1287 2.606 . S
Gd1237 O1289 2.429 . S
Gd1237 O1290 2.545 . S
Gd1237 O1291 2.412 . S
Gd1237 C1304 2.828 . S
C1238 C1241 1.417 . S
C1238 C1243 1.431 . S
C1238 C1244 1.412 . S
C1239 C1242 1.437 . S
C1239 C1243 1.317 . S
C1239 H1258 0.929 . S
C1240 C1241 1.426 . S
C1240 C1242 1.413 . S
C1240 N1250 1.359 . S
C1241 C1238 1.417 . S
C1241 C1240 1.426 . S
C1241 N1246 1.350 . S
C1242 C1239 1.437 . S
C1242 C1240 1.413 . S
C1242 C1252 1.391 . S
C1243 C1238 1.431 . S
C1243 C1239 1.317 . S
C1243 H1254 0.930 . S
C1244 C1238 1.412 . S
C1244 C1245 1.355 . S
C1244 H1256 0.930 . S
C1245 C1244 1.355 . S
C1245 C1247 1.402 . S
C1245 H1257 0.930 . S
N1246 Gd1237 2.661 . S
N1246 C1241 1.350 . S
N1246 C1247 1.307 . S
C1247 C1245 1.402 . S
C1247 N1246 1.307 . S
C1247 H1248 0.930 . S
H1248 C1247 0.930 . S
C1249 N1250 1.334 . S
C1249 C1251 1.394 . S
C1249 H1253 0.930 . S
N1250 Gd1237 2.601 . S
N1250 C1240 1.359 . S
N1250 C1249 1.334 . S
C1251 C1249 1.394 . S
C1251 C1252 1.359 . S
C1251 H1263 0.930 . S
C1252 C1242 1.391 . S
C1252 C1251 1.359 . S
C1252 H1264 0.929 . S
H1253 C1249 0.930 . S
H1254 C1243 0.930 . S
H1255 C1272 0.930 . S
H1256 C1244 0.930 . S
H1257 C1245 0.930 . S
H1258 C1239 0.929 . S
H1259 C1277 0.930 . S
H1260 C1268 0.930 . S
H1261 C1269 0.930 . S
H1262 C1293 0.929 . S
H1263 C1251 0.930 . S
H1264 C1252 0.929 . S
H1265 C1294 0.930 . S
H1266 C1275 0.930 . S
N1267 Gd1236 2.661 . S
N1267 C1271 1.350 . S
N1267 C1272 1.307 . S
C1268 H1260 0.930 . S
C1268 C1269 1.355 . S
C1268 C1270 1.412 . S
C1269 H1261 0.930 . S
C1269 C1268 1.355 . S
C1269 C1272 1.402 . S
C1270 C1268 1.412 . S
C1270 C1271 1.417 . S
C1270 C1294 1.431 . S
C1271 N1267 1.350 . S
C1271 C1270 1.417 . S
C1271 C1274 1.426 . S
C1272 H1255 0.930 . S
C1272 N1267 1.307 . S
C1272 C1269 1.402 . S
N1273 Gd1236 2.601 . S
N1273 C1274 1.359 . S
N1273 C1277 1.334 . S
C1274 C1271 1.426 . S
C1274 N1273 1.359 . S
C1274 C1278 1.413 . S
C1275 H1266 0.930 . S
C1275 C1276 1.359 . S
C1275 C1277 1.394 . S
C1276 C1275 1.359 . S
C1276 C1278 1.391 . S
C1276 H1279 0.929 . S
C1277 H1259 0.930 . S
C1277 N1273 1.334 . S
C1277 C1275 1.394 . S
C1278 C1274 1.413 . S
C1278 C1276 1.391 . S
C1278 C1293 1.437 . S
H1279 C1276 0.929 . S
O1280 Gd1236 2.545 . S
O1280 C1295 1.258 . S
O1281 Gd1236 2.606 . S
O1281 Gd1237 2.362 . S
O1281 C1292 1.284 . S
O1282 Gd1237 2.324 . S
O1282 C1302 1.254 . S
O1283 Gd1236 2.429 . S
O1283 C1302 1.268 . S
O1284 Gd1236 2.545 . S
O1284 C1292 1.250 . S
O1285 Gd1236 2.412 . S
O1285 C1295 1.252 . S
O1286 Gd1237 2.545 . S
O1286 C1304 1.258 . S
O1287 Gd1236 2.362 . S
O1287 Gd1237 2.606 . S
O1287 C1303 1.284 . S
O1288 Gd1236 2.324 . S
O1288 C1311 1.254 . S
O1289 Gd1237 2.429 . S
O1289 C1311 1.268 . S
O1290 Gd1237 2.545 . S
O1290 C1303 1.250 . S
O1291 Gd1237 2.412 . S
O1291 C1304 1.252 . S
C1292 O1281 1.284 . S
C1292 O1284 1.250 . S
C1293 H1262 0.929 . S
C1293 C1278 1.437 . S
C1293 C1294 1.317 . S
C1294 H1265 0.930 . S
C1294 C1270 1.431 . S
C1294 C1293 1.317 . S
C1295 Gd1236 2.828 . S
C1295 O1280 1.258 . S
C1295 O1285 1.252 . S
C1295 C1296 1.497 . S
C1296 C1295 1.497 . S
C1296 C1297 1.395 . S
C1296 C1298 1.380 . S
C1297 C1296 1.395 . S
C1297 C1300 1.398 . S
C1297 H1312 0.930 . S
C1298 C1296 1.380 . S
C1298 C1299 1.391 . S
C1298 H1313 0.930 . S
C1299 C1298 1.391 . S
C1299 C1301 1.387 . S
C1300 C1297 1.398 . S
C1300 C1301 1.380 . S
C1300 H1314 0.930 . S
C1301 C1299 1.387 . S
C1301 C1300 1.380 . S
C1301 H1315 0.930 . S
C1302 O1282 1.254 . S
C1302 O1283 1.268 . S
C1303 O1287 1.284 . S
C1303 O1290 1.250 . S
C1304 Gd1237 2.828 . S
C1304 O1286 1.258 . S
C1304 O1291 1.252 . S
C1304 C1305 1.497 . S
C1305 C1304 1.497 . S
C1305 C1306 1.395 . S
C1305 C1307 1.380 . S
C1306 C1305 1.395 . S
C1306 C1309 1.398 . S
C1306 H1316 0.930 . S
C1307 C1305 1.380 . S
C1307 C1308 1.391 . S
C1307 H1317 0.930 . S
C1308 C1307 1.391 . S
C1308 C1310 1.387 . S
C1309 C1306 1.398 . S
C1309 C1310 1.380 . S
C1309 H1318 0.930 . S
C1310 C1308 1.387 . S
C1310 C1309 1.380 . S
C1310 H1319 0.930 . S
C1311 O1288 1.254 . S
C1311 O1289 1.268 . S
H1312 C1297 0.930 . S
H1313 C1298 0.930 . S
H1314 C1300 0.930 . S
H1315 C1301 0.930 . S
H1316 C1306 0.930 . S
H1317 C1307 0.930 . S
H1318 C1309 0.930 . S
H1319 C1310 0.930 . S
Gd1320 N1351 2.661 . S
Gd1320 N1357 2.601 . S
Gd1320 O1364 2.545 . S
Gd1320 O1365 2.606 . S
Gd1320 O1367 2.429 . S
Gd1320 O1368 2.545 . S
Gd1320 O1369 2.412 . S
Gd1320 O1371 2.362 . S
Gd1320 O1372 2.324 . S
Gd1320 C1379 2.828 . S
Gd1321 N1330 2.661 . S
Gd1321 N1334 2.601 . S
Gd1321 O1365 2.362 . S
Gd1321 O1366 2.324 . S
Gd1321 O1370 2.545 . S
Gd1321 O1371 2.606 . S
Gd1321 O1373 2.429 . S
Gd1321 O1374 2.545 . S
Gd1321 O1375 2.412 . S
Gd1321 C1388 2.828 . S
C1322 C1325 1.417 . S
C1322 C1327 1.431 . S
C1322 C1328 1.412 . S
C1323 C1326 1.437 . S
C1323 C1327 1.317 . S
C1323 H1342 0.929 . S
C1324 C1325 1.426 . S
C1324 C1326 1.413 . S
C1324 N1334 1.359 . S
C1325 C1322 1.417 . S
C1325 C1324 1.426 . S
C1325 N1330 1.350 . S
C1326 C1323 1.437 . S
C1326 C1324 1.413 . S
C1326 C1336 1.391 . S
C1327 C1322 1.431 . S
C1327 C1323 1.317 . S
C1327 H1338 0.930 . S
C1328 C1322 1.412 . S
C1328 C1329 1.355 . S
C1328 H1340 0.930 . S
C1329 C1328 1.355 . S
C1329 C1331 1.402 . S
C1329 H1341 0.930 . S
N1330 Gd1321 2.661 . S
N1330 C1325 1.350 . S
N1330 C1331 1.307 . S
C1331 C1329 1.402 . S
C1331 N1330 1.307 . S
C1331 H1332 0.930 . S
H1332 C1331 0.930 . S
C1333 N1334 1.334 . S
C1333 C1335 1.394 . S
C1333 H1337 0.930 . S
N1334 Gd1321 2.601 . S
N1334 C1324 1.359 . S
N1334 C1333 1.334 . S
C1335 C1333 1.394 . S
C1335 C1336 1.359 . S
C1335 H1347 0.930 . S
C1336 C1326 1.391 . S
C1336 C1335 1.359 . S
C1336 H1348 0.929 . S
H1337 C1333 0.930 . S
H1338 C1327 0.930 . S
H1339 C1356 0.930 . S
H1340 C1328 0.930 . S
H1341 C1329 0.930 . S
H1342 C1323 0.929 . S
H1343 C1361 0.930 . S
H1344 C1352 0.930 . S
H1345 C1353 0.930 . S
H1346 C1377 0.929 . S
H1347 C1335 0.930 . S
H1348 C1336 0.929 . S
H1349 C1378 0.930 . S
H1350 C1359 0.930 . S
N1351 Gd1320 2.661 . S
N1351 C1355 1.350 . S
N1351 C1356 1.307 . S
C1352 H1344 0.930 . S
C1352 C1353 1.355 . S
C1352 C1354 1.412 . S
C1353 H1345 0.930 . S
C1353 C1352 1.355 . S
C1353 C1356 1.402 . S
C1354 C1352 1.412 . S
C1354 C1355 1.417 . S
C1354 C1378 1.431 . S
C1355 N1351 1.350 . S
C1355 C1354 1.417 . S
C1355 C1358 1.426 . S
C1356 H1339 0.930 . S
C1356 N1351 1.307 . S
C1356 C1353 1.402 . S
N1357 Gd1320 2.601 . S
N1357 C1358 1.359 . S
N1357 C1361 1.334 . S
C1358 C1355 1.426 . S
C1358 N1357 1.359 . S
C1358 C1362 1.413 . S
C1359 H1350 0.930 . S
C1359 C1360 1.359 . S
C1359 C1361 1.394 . S
C1360 C1359 1.359 . S
C1360 C1362 1.391 . S
C1360 H1363 0.929 . S
C1361 H1343 0.930 . S
C1361 N1357 1.334 . S
C1361 C1359 1.394 . S
C1362 C1358 1.413 . S
C1362 C1360 1.391 . S
C1362 C1377 1.437 . S
H1363 C1360 0.929 . S
O1364 Gd1320 2.545 . S
O1364 C1379 1.258 . S
O1365 Gd1320 2.606 . S
O1365 Gd1321 2.362 . S
O1365 C1376 1.284 . S
O1366 Gd1321 2.324 . S
O1366 C1386 1.254 . S
O1367 Gd1320 2.429 . S
O1367 C1386 1.268 . S
O1368 Gd1320 2.545 . S
O1368 C1376 1.250 . S
O1369 Gd1320 2.412 . S
O1369 C1379 1.252 . S
O1370 Gd1321 2.545 . S
O1370 C1388 1.258 . S
O1371 Gd1320 2.362 . S
O1371 Gd1321 2.606 . S
O1371 C1387 1.284 . S
O1372 Gd1320 2.324 . S
O1372 C1395 1.254 . S
O1373 Gd1321 2.429 . S
O1373 C1395 1.268 . S
O1374 Gd1321 2.545 . S
O1374 C1387 1.250 . S
O1375 Gd1321 2.412 . S
O1375 C1388 1.252 . S
C1376 O1365 1.284 . S
C1376 O1368 1.250 . S
C1377 H1346 0.929 . S
C1377 C1362 1.437 . S
C1377 C1378 1.317 . S
C1378 H1349 0.930 . S
C1378 C1354 1.431 . S
C1378 C1377 1.317 . S
C1379 Gd1320 2.828 . S
C1379 O1364 1.258 . S
C1379 O1369 1.252 . S
C1379 C1380 1.497 . S
C1380 C1379 1.497 . S
C1380 C1381 1.395 . S
C1380 C1382 1.380 . S
C1381 C1380 1.395 . S
C1381 C1384 1.398 . S
C1381 H1396 0.930 . S
C1382 C1380 1.380 . S
C1382 C1383 1.391 . S
C1382 H1397 0.930 . S
C1383 C1382 1.391 . S
C1383 C1385 1.387 . S
C1384 C1381 1.398 . S
C1384 C1385 1.380 . S
C1384 H1398 0.930 . S
C1385 C1383 1.387 . S
C1385 C1384 1.380 . S
C1385 H1399 0.930 . S
C1386 O1366 1.254 . S
C1386 O1367 1.268 . S
C1387 O1371 1.284 . S
C1387 O1374 1.250 . S
C1388 Gd1321 2.828 . S
C1388 O1370 1.258 . S
C1388 O1375 1.252 . S
C1388 C1389 1.497 . S
C1389 C1388 1.497 . S
C1389 C1390 1.395 . S
C1389 C1391 1.380 . S
C1390 C1389 1.395 . S
C1390 C1393 1.398 . S
C1390 H1400 0.930 . S
C1391 C1389 1.380 . S
C1391 C1392 1.391 . S
C1391 H1401 0.930 . S
C1392 C1391 1.391 . S
C1392 C1394 1.387 . S
C1393 C1390 1.398 . S
C1393 C1394 1.380 . S
C1393 H1402 0.930 . S
C1394 C1392 1.387 . S
C1394 C1393 1.380 . S
C1394 H1403 0.930 . S
C1395 O1372 1.254 . S
C1395 O1373 1.268 . S
H1396 C1381 0.930 . S
H1397 C1382 0.930 . S
H1398 C1384 0.930 . S
H1399 C1385 0.930 . S
H1400 C1390 0.930 . S
H1401 C1391 0.930 . S
H1402 C1393 0.930 . S
H1403 C1394 0.930 . S
Gd1404 N1435 2.661 . S
Gd1404 N1441 2.601 . S
Gd1404 O1448 2.545 . S
Gd1404 O1449 2.606 . S
Gd1404 O1451 2.429 . S
Gd1404 O1452 2.545 . S
Gd1404 O1453 2.412 . S
Gd1404 O1455 2.362 . S
Gd1404 O1456 2.324 . S
Gd1404 C1463 2.828 . S
Gd1405 N1414 2.661 . S
Gd1405 N1418 2.601 . S
Gd1405 O1449 2.362 . S
Gd1405 O1450 2.324 . S
Gd1405 O1454 2.545 . S
Gd1405 O1455 2.606 . S
Gd1405 O1457 2.429 . S
Gd1405 O1458 2.545 . S
Gd1405 O1459 2.412 . S
Gd1405 C1472 2.828 . S
C1406 C1409 1.417 . S
C1406 C1411 1.431 . S
C1406 C1412 1.412 . S
C1407 C1410 1.437 . S
C1407 C1411 1.317 . S
C1407 H1426 0.929 . S
C1408 C1409 1.426 . S
C1408 C1410 1.413 . S
C1408 N1418 1.359 . S
C1409 C1406 1.417 . S
C1409 C1408 1.426 . S
C1409 N1414 1.350 . S
C1410 C1407 1.437 . S
C1410 C1408 1.413 . S
C1410 C1420 1.391 . S
C1411 C1406 1.431 . S
C1411 C1407 1.317 . S
C1411 H1422 0.930 . S
C1412 C1406 1.412 . S
C1412 C1413 1.355 . S
C1412 H1424 0.930 . S
C1413 C1412 1.355 . S
C1413 C1415 1.402 . S
C1413 H1425 0.930 . S
N1414 Gd1405 2.661 . S
N1414 C1409 1.350 . S
N1414 C1415 1.307 . S
C1415 C1413 1.402 . S
C1415 N1414 1.307 . S
C1415 H1416 0.930 . S
H1416 C1415 0.930 . S
C1417 N1418 1.334 . S
C1417 C1419 1.394 . S
C1417 H1421 0.930 . S
N1418 Gd1405 2.601 . S
N1418 C1408 1.359 . S
N1418 C1417 1.334 . S
C1419 C1417 1.394 . S
C1419 C1420 1.359 . S
C1419 H1431 0.930 . S
C1420 C1410 1.391 . S
C1420 C1419 1.359 . S
C1420 H1432 0.929 . S
H1421 C1417 0.930 . S
H1422 C1411 0.930 . S
H1423 C1440 0.930 . S
H1424 C1412 0.930 . S
H1425 C1413 0.930 . S
H1426 C1407 0.929 . S
H1427 C1445 0.930 . S
H1428 C1436 0.930 . S
H1429 C1437 0.930 . S
H1430 C1461 0.929 . S
H1431 C1419 0.930 . S
H1432 C1420 0.929 . S
H1433 C1462 0.930 . S
H1434 C1443 0.930 . S
N1435 Gd1404 2.661 . S
N1435 C1439 1.350 . S
N1435 C1440 1.307 . S
C1436 H1428 0.930 . S
C1436 C1437 1.355 . S
C1436 C1438 1.412 . S
C1437 H1429 0.930 . S
C1437 C1436 1.355 . S
C1437 C1440 1.402 . S
C1438 C1436 1.412 . S
C1438 C1439 1.417 . S
C1438 C1462 1.431 . S
C1439 N1435 1.350 . S
C1439 C1438 1.417 . S
C1439 C1442 1.426 . S
C1440 H1423 0.930 . S
C1440 N1435 1.307 . S
C1440 C1437 1.402 . S
N1441 Gd1404 2.601 . S
N1441 C1442 1.359 . S
N1441 C1445 1.334 . S
C1442 C1439 1.426 . S
C1442 N1441 1.359 . S
C1442 C1446 1.413 . S
C1443 H1434 0.930 . S
C1443 C1444 1.359 . S
C1443 C1445 1.394 . S
C1444 C1443 1.359 . S
C1444 C1446 1.391 . S
C1444 H1447 0.929 . S
C1445 H1427 0.930 . S
C1445 N1441 1.334 . S
C1445 C1443 1.394 . S
C1446 C1442 1.413 . S
C1446 C1444 1.391 . S
C1446 C1461 1.437 . S
H1447 C1444 0.929 . S
O1448 Gd1404 2.545 . S
O1448 C1463 1.258 . S
O1449 Gd1404 2.606 . S
O1449 Gd1405 2.362 . S
O1449 C1460 1.284 . S
O1450 Gd1405 2.324 . S
O1450 C1470 1.254 . S
O1451 Gd1404 2.429 . S
O1451 C1470 1.268 . S
O1452 Gd1404 2.545 . S
O1452 C1460 1.250 . S
O1453 Gd1404 2.412 . S
O1453 C1463 1.252 . S
O1454 Gd1405 2.545 . S
O1454 C1472 1.258 . S
O1455 Gd1404 2.362 . S
O1455 Gd1405 2.606 . S
O1455 C1471 1.284 . S
O1456 Gd1404 2.324 . S
O1456 C1479 1.254 . S
O1457 Gd1405 2.429 . S
O1457 C1479 1.268 . S
O1458 Gd1405 2.545 . S
O1458 C1471 1.250 . S
O1459 Gd1405 2.412 . S
O1459 C1472 1.252 . S
C1460 O1449 1.284 . S
C1460 O1452 1.250 . S
C1461 H1430 0.929 . S
C1461 C1446 1.437 . S
C1461 C1462 1.317 . S
C1462 H1433 0.930 . S
C1462 C1438 1.431 . S
C1462 C1461 1.317 . S
C1463 Gd1404 2.828 . S
C1463 O1448 1.258 . S
C1463 O1453 1.252 . S
C1463 C1464 1.497 . S
C1464 C1463 1.497 . S
C1464 C1465 1.395 . S
C1464 C1466 1.380 . S
C1465 C1464 1.395 . S
C1465 C1468 1.398 . S
C1465 H1480 0.930 . S
C1466 C1464 1.380 . S
C1466 C1467 1.391 . S
C1466 H1481 0.930 . S
C1467 C1466 1.391 . S
C1467 C1469 1.387 . S
C1468 C1465 1.398 . S
C1468 C1469 1.380 . S
C1468 H1482 0.930 . S
C1469 C1467 1.387 . S
C1469 C1468 1.380 . S
C1469 H1483 0.930 . S
C1470 O1450 1.254 . S
C1470 O1451 1.268 . S
C1471 O1455 1.284 . S
C1471 O1458 1.250 . S
C1472 Gd1405 2.828 . S
C1472 O1454 1.258 . S
C1472 O1459 1.252 . S
C1472 C1473 1.497 . S
C1473 C1472 1.497 . S
C1473 C1474 1.395 . S
C1473 C1475 1.380 . S
C1474 C1473 1.395 . S
C1474 C1477 1.398 . S
C1474 H1484 0.930 . S
C1475 C1473 1.380 . S
C1475 C1476 1.391 . S
C1475 H1485 0.930 . S
C1476 C1475 1.391 . S
C1476 C1478 1.387 . S
C1477 C1474 1.398 . S
C1477 C1478 1.380 . S
C1477 H1486 0.930 . S
C1478 C1476 1.387 . S
C1478 C1477 1.380 . S
C1478 H1487 0.930 . S
C1479 O1456 1.254 . S
C1479 O1457 1.268 . S
H1480 C1465 0.930 . S
H1481 C1466 0.930 . S
H1482 C1468 0.930 . S
H1483 C1469 0.930 . S
H1484 C1474 0.930 . S
H1485 C1475 0.930 . S
H1486 C1477 0.930 . S
H1487 C1478 0.930 . S
Gd1488 N1519 2.661 . S
Gd1488 N1525 2.601 . S
Gd1488 O1532 2.545 . S
Gd1488 O1533 2.606 . S
Gd1488 O1535 2.429 . S
Gd1488 O1536 2.545 . S
Gd1488 O1537 2.412 . S
Gd1488 O1539 2.362 . S
Gd1488 O1540 2.324 . S
Gd1488 C1547 2.828 . S
Gd1489 N1498 2.661 . S
Gd1489 N1502 2.601 . S
Gd1489 O1533 2.362 . S
Gd1489 O1534 2.324 . S
Gd1489 O1538 2.545 . S
Gd1489 O1539 2.606 . S
Gd1489 O1541 2.429 . S
Gd1489 O1542 2.545 . S
Gd1489 O1543 2.412 . S
Gd1489 C1556 2.828 . S
C1490 C1493 1.417 . S
C1490 C1495 1.431 . S
C1490 C1496 1.412 . S
C1491 C1494 1.437 . S
C1491 C1495 1.317 . S
C1491 H1510 0.929 . S
C1492 C1493 1.426 . S
C1492 C1494 1.413 . S
C1492 N1502 1.359 . S
C1493 C1490 1.417 . S
C1493 C1492 1.426 . S
C1493 N1498 1.350 . S
C1494 C1491 1.437 . S
C1494 C1492 1.413 . S
C1494 C1504 1.391 . S
C1495 C1490 1.431 . S
C1495 C1491 1.317 . S
C1495 H1506 0.930 . S
C1496 C1490 1.412 . S
C1496 C1497 1.355 . S
C1496 H1508 0.930 . S
C1497 C1496 1.355 . S
C1497 C1499 1.402 . S
C1497 H1509 0.930 . S
N1498 Gd1489 2.661 . S
N1498 C1493 1.350 . S
N1498 C1499 1.307 . S
C1499 C1497 1.402 . S
C1499 N1498 1.307 . S
C1499 H1500 0.930 . S
H1500 C1499 0.930 . S
C1501 N1502 1.334 . S
C1501 C1503 1.394 . S
C1501 H1505 0.930 . S
N1502 Gd1489 2.601 . S
N1502 C1492 1.359 . S
N1502 C1501 1.334 . S
C1503 C1501 1.394 . S
C1503 C1504 1.359 . S
C1503 H1515 0.930 . S
C1504 C1494 1.391 . S
C1504 C1503 1.359 . S
C1504 H1516 0.929 . S
H1505 C1501 0.930 . S
H1506 C1495 0.930 . S
H1507 C1524 0.930 . S
H1508 C1496 0.930 . S
H1509 C1497 0.930 . S
H1510 C1491 0.929 . S
H1511 C1529 0.930 . S
H1512 C1520 0.930 . S
H1513 C1521 0.930 . S
H1514 C1545 0.929 . S
H1515 C1503 0.930 . S
H1516 C1504 0.929 . S
H1517 C1546 0.930 . S
H1518 C1527 0.930 . S
N1519 Gd1488 2.661 . S
N1519 C1523 1.350 . S
N1519 C1524 1.307 . S
C1520 H1512 0.930 . S
C1520 C1521 1.355 . S
C1520 C1522 1.412 . S
C1521 H1513 0.930 . S
C1521 C1520 1.355 . S
C1521 C1524 1.402 . S
C1522 C1520 1.412 . S
C1522 C1523 1.417 . S
C1522 C1546 1.431 . S
C1523 N1519 1.350 . S
C1523 C1522 1.417 . S
C1523 C1526 1.426 . S
C1524 H1507 0.930 . S
C1524 N1519 1.307 . S
C1524 C1521 1.402 . S
N1525 Gd1488 2.601 . S
N1525 C1526 1.359 . S
N1525 C1529 1.334 . S
C1526 C1523 1.426 . S
C1526 N1525 1.359 . S
C1526 C1530 1.413 . S
C1527 H1518 0.930 . S
C1527 C1528 1.359 . S
C1527 C1529 1.394 . S
C1528 C1527 1.359 . S
C1528 C1530 1.391 . S
C1528 H1531 0.929 . S
C1529 H1511 0.930 . S
C1529 N1525 1.334 . S
C1529 C1527 1.394 . S
C1530 C1526 1.413 . S
C1530 C1528 1.391 . S
C1530 C1545 1.437 . S
H1531 C1528 0.929 . S
O1532 Gd1488 2.545 . S
O1532 C1547 1.258 . S
O1533 Gd1488 2.606 . S
O1533 Gd1489 2.362 . S
O1533 C1544 1.284 . S
O1534 Gd1489 2.324 . S
O1534 C1554 1.254 . S
O1535 Gd1488 2.429 . S
O1535 C1554 1.268 . S
O1536 Gd1488 2.545 . S
O1536 C1544 1.250 . S
O1537 Gd1488 2.412 . S
O1537 C1547 1.252 . S
O1538 Gd1489 2.545 . S
O1538 C1556 1.258 . S
O1539 Gd1488 2.362 . S
O1539 Gd1489 2.606 . S
O1539 C1555 1.284 . S
O1540 Gd1488 2.324 . S
O1540 C1563 1.254 . S
O1541 Gd1489 2.429 . S
O1541 C1563 1.268 . S
O1542 Gd1489 2.545 . S
O1542 C1555 1.250 . S
O1543 Gd1489 2.412 . S
O1543 C1556 1.252 . S
C1544 O1533 1.284 . S
C1544 O1536 1.250 . S
C1545 H1514 0.929 . S
C1545 C1530 1.437 . S
C1545 C1546 1.317 . S
C1546 H1517 0.930 . S
C1546 C1522 1.431 . S
C1546 C1545 1.317 . S
C1547 Gd1488 2.828 . S
C1547 O1532 1.258 . S
C1547 O1537 1.252 . S
C1547 C1548 1.497 . S
C1548 C1547 1.497 . S
C1548 C1549 1.395 . S
C1548 C1550 1.380 . S
C1549 C1548 1.395 . S
C1549 C1552 1.398 . S
C1549 H1564 0.930 . S
C1550 C1548 1.380 . S
C1550 C1551 1.391 . S
C1550 H1565 0.930 . S
C1551 C1550 1.391 . S
C1551 C1553 1.387 . S
C1552 C1549 1.398 . S
C1552 C1553 1.380 . S
C1552 H1566 0.930 . S
C1553 C1551 1.387 . S
C1553 C1552 1.380 . S
C1553 H1567 0.930 . S
C1554 O1534 1.254 . S
C1554 O1535 1.268 . S
C1555 O1539 1.284 . S
C1555 O1542 1.250 . S
C1556 Gd1489 2.828 . S
C1556 O1538 1.258 . S
C1556 O1543 1.252 . S
C1556 C1557 1.497 . S
C1557 C1556 1.497 . S
C1557 C1558 1.395 . S
C1557 C1559 1.380 . S
C1558 C1557 1.395 . S
C1558 C1561 1.398 . S
C1558 H1568 0.930 . S
C1559 C1557 1.380 . S
C1559 C1560 1.391 . S
C1559 H1569 0.930 . S
C1560 C1559 1.391 . S
C1560 C1562 1.387 . S
C1561 C1558 1.398 . S
C1561 C1562 1.380 . S
C1561 H1570 0.930 . S
C1562 C1560 1.387 . S
C1562 C1561 1.380 . S
C1562 H1571 0.930 . S
C1563 O1540 1.254 . S
C1563 O1541 1.268 . S
H1564 C1549 0.930 . S
H1565 C1550 0.930 . S
H1566 C1552 0.930 . S
H1567 C1553 0.930 . S
H1568 C1558 0.930 . S
H1569 C1559 0.930 . S
H1570 C1561 0.930 . S
H1571 C1562 0.930 . S
Gd1572 N1603 2.661 . S
Gd1572 N1609 2.601 . S
Gd1572 O1616 2.545 . S
Gd1572 O1617 2.606 . S
Gd1572 O1619 2.429 . S
Gd1572 O1620 2.545 . S
Gd1572 O1621 2.412 1_455 S
Gd1572 O1623 2.362 . S
Gd1572 O1624 2.324 1_554 S
Gd1572 C1631 2.828 1_455 S
Gd1573 N1582 2.656 1_556 S
Gd1573 N1586 2.619 . S
Gd1573 O1617 2.356 1_556 S
Gd1573 O1618 2.301 1_556 S
Gd1573 O1622 2.559 . S
Gd1573 O1623 2.595 1_556 S
Gd1573 O1625 2.444 . S
Gd1573 O1626 2.542 . S
Gd1573 O1627 2.409 1_556 S
Gd1573 C1640 2.834 . S
C1574 C1577 1.417 . S
C1574 C1579 1.431 1_554 S
C1574 C1580 1.412 . S
C1575 C1578 1.437 . S
C1575 C1579 1.317 . S
C1575 H1594 0.929 . S
C1576 C1577 1.426 1_556 S
C1576 C1578 1.413 . S
C1576 N1586 1.359 . S
C1577 C1574 1.417 . S
C1577 C1576 1.426 1_554 S
C1577 N1582 1.350 . S
C1578 C1575 1.437 . S
C1578 C1576 1.413 . S
C1578 C1588 1.391 . S
C1579 C1574 1.431 1_556 S
C1579 C1575 1.317 . S
C1579 H1590 0.930 1_556 S
C1580 C1574 1.412 . S
C1580 C1581 1.355 . S
C1580 H1592 0.930 . S
C1581 C1580 1.355 . S
C1581 C1583 1.402 . S
C1581 H1593 0.930 . S
N1582 Gd1573 2.656 1_554 S
N1582 C1577 1.350 . S
N1582 C1583 1.307 . S
C1583 C1581 1.402 . S
C1583 N1582 1.307 . S
C1583 H1584 0.930 . S
H1584 C1583 0.930 . S
C1585 N1586 1.334 . S
C1585 C1587 1.394 . S
C1585 H1589 0.930 . S
N1586 Gd1573 2.619 . S
N1586 C1576 1.359 . S
N1586 C1585 1.334 . S
C1587 C1585 1.394 . S
C1587 C1588 1.359 . S
C1587 H1599 0.930 . S
C1588 C1578 1.391 . S
C1588 C1587 1.359 . S
C1588 H1600 0.929 . S
H1589 C1585 0.930 . S
H1590 C1579 0.930 1_554 S
H1591 C1608 0.930 1_455 S
H1592 C1580 0.930 . S
H1593 C1581 0.930 . S
H1594 C1575 0.929 . S
H1595 C1613 0.930 . S
H1596 C1604 0.930 . S
H1597 C1605 0.930 . S
H1598 C1629 0.929 . S
H1599 C1587 0.930 . S
H1600 C1588 0.929 . S
H1601 C1630 0.930 . S
H1602 C1611 0.930 . S
N1603 Gd1572 2.661 . S
N1603 C1607 1.350 1_455 S
N1603 C1608 1.307 1_454 S
C1604 H1596 0.930 . S
C1604 C1605 1.355 . S
C1604 C1606 1.412 1_556 S
C1605 H1597 0.930 . S
C1605 C1604 1.355 . S
C1605 C1608 1.402 . S
C1606 C1604 1.412 1_554 S
C1606 C1607 1.417 . S
C1606 C1630 1.431 . S
C1607 N1603 1.350 1_655 S
C1607 C1606 1.417 . S
C1607 C1610 1.431 . S
C1608 H1591 0.930 1_655 S
C1608 N1603 1.307 1_656 S
C1608 C1605 1.402 . S
N1609 Gd1572 2.601 . S
N1609 C1610 1.338 1_455 S
N1609 C1613 1.334 . S
C1610 C1607 1.431 . S
C1610 N1609 1.338 1_655 S
C1610 C1614 1.430 . S
C1611 H1602 0.930 . S
C1611 C1612 1.359 1_455 S
C1611 C1613 1.394 . S
C1612 C1611 1.359 1_655 S
C1612 C1614 1.391 . S
C1612 H1615 0.929 . S
C1613 H1595 0.930 . S
C1613 N1609 1.334 . S
C1613 C1611 1.394 . S
C1614 C1610 1.430 . S
C1614 C1612 1.391 . S
C1614 C1629 1.437 . S
H1615 C1612 0.929 . S
O1616 Gd1572 2.545 . S
O1616 C1631 1.258 1_455 S
O1617 Gd1572 2.606 . S
O1617 Gd1573 2.356 1_554 S
O1617 C1628 1.284 . S
O1618 Gd1573 2.301 1_554 S
O1618 C1638 1.254 . S
O1619 Gd1572 2.429 . S
O1619 C1638 1.268 . S
O1620 Gd1572 2.545 . S
O1620 C1628 1.250 . S
O1621 Gd1572 2.412 1_655 S
O1621 C1631 1.252 . S
O1622 Gd1573 2.559 . S
O1622 C1640 1.258 . S
O1623 Gd1572 2.362 . S
O1623 Gd1573 2.595 1_554 S
O1623 C1639 1.284 . S
O1624 Gd1572 2.324 1_556 S
O1624 C1647 1.254 . S
O1625 Gd1573 2.444 . S
O1625 C1647 1.268 . S
O1626 Gd1573 2.542 . S
O1626 C1639 1.250 1_556 S
O1627 Gd1573 2.409 1_554 S
O1627 C1640 1.252 1_554 S
C1628 O1617 1.284 . S
C1628 O1620 1.250 . S
C1629 H1598 0.929 . S
C1629 C1614 1.437 . S
C1629 C1630 1.317 . S
C1630 H1601 0.930 . S
C1630 C1606 1.431 . S
C1630 C1629 1.317 . S
C1631 Gd1572 2.828 1_655 S
C1631 O1616 1.258 1_655 S
C1631 O1621 1.252 . S
C1631 C1632 1.497 . S
C1632 C1631 1.497 . S
C1632 C1633 1.395 . S
C1632 C1634 1.380 . S
C1633 C1632 1.395 . S
C1633 C1636 1.398 . S
C1633 H1648 0.930 . S
C1634 C1632 1.380 . S
C1634 C1635 1.391 . S
C1634 H1649 0.930 . S
C1635 C1634 1.391 . S
C1635 C1637 1.387 . S
C1636 C1633 1.398 . S
C1636 C1637 1.380 . S
C1636 H1650 0.930 . S
C1637 C1635 1.387 . S
C1637 C1636 1.380 . S
C1637 H1651 0.930 . S
C1638 O1618 1.254 . S
C1638 O1619 1.268 . S
C1639 O1623 1.284 . S
C1639 O1626 1.250 1_554 S
C1640 Gd1573 2.834 . S
C1640 O1622 1.258 . S
C1640 O1627 1.252 1_556 S
C1640 C1641 1.497 . S
C1641 C1640 1.497 . S
C1641 C1642 1.395 . S
C1641 C1643 1.380 . S
C1642 C1641 1.395 . S
C1642 C1645 1.398 . S
C1642 H1652 0.930 . S
C1643 C1641 1.380 . S
C1643 C1644 1.391 . S
C1643 H1653 0.930 1_556 S
C1644 C1643 1.391 . S
C1644 C1646 1.387 . S
C1645 C1642 1.398 . S
C1645 C1646 1.380 . S
C1645 H1654 0.930 . S
C1646 C1644 1.387 . S
C1646 C1645 1.380 . S
C1646 H1655 0.930 . S
C1647 O1624 1.254 . S
C1647 O1625 1.268 . S
H1648 C1633 0.930 . S
H1649 C1634 0.930 . S
H1650 C1636 0.930 . S
H1651 C1637 0.930 . S
H1652 C1642 0.930 . S
H1653 C1643 0.930 1_554 S
H1654 C1645 0.930 . S
H1655 C1646 0.930 . S
H1656 C1664 0.950 . S
H1657 C1669 0.950 1_655 S
H1658 C1666 0.950 1_554 S
H1659 C1668 0.950 1_655 S
H1660 C1670 0.950 . S
H1661 C1672 0.950 . S
H1662 C1674 0.950 . S
H1663 C1675 0.950 . S
C1664 H1656 0.950 . S
C1664 C1665 1.386 . S
C1664 C1666 1.391 . S
C1665 C1664 1.386 . S
C1665 C1669 1.393 . S
C1666 H1658 0.950 1_556 S
C1666 C1664 1.391 . S
C1666 C1667 1.400 . S
C1667 C1666 1.400 . S
C1667 C1668 1.398 . S
C1667 C1673 1.491 . S
C1668 H1659 0.950 1_455 S
C1668 C1667 1.398 . S
C1668 C1669 1.391 . S
C1669 H1657 0.950 1_455 S
C1669 C1665 1.393 . S
C1669 C1668 1.391 . S
C1670 H1660 0.950 . S
C1670 C1671 1.386 1_556 S
C1670 C1672 1.391 . S
C1671 C1670 1.386 1_554 S
C1671 C1675 1.393 . S
C1672 H1661 0.950 . S
C1672 C1670 1.391 . S
C1672 C1673 1.400 . S
C1673 C1667 1.491 . S
C1673 C1672 1.400 . S
C1673 C1674 1.398 1_556 S
C1674 H1662 0.950 . S
C1674 C1673 1.398 1_554 S
C1674 C1675 1.391 . S
C1675 H1663 0.950 . S
C1675 C1671 1.393 . S
C1675 C1674 1.391 . S
H1676 C1684 0.950 . S
H1677 C1689 0.950 . S
H1678 C1686 0.950 . S
H1679 C1688 0.950 . S
H1680 C1690 0.950 . S
H1681 C1692 0.950 . S
H1682 C1694 0.950 . S
H1683 C1695 0.950 . S
C1684 H1676 0.950 . S
C1684 C1685 1.386 . S
C1684 C1686 1.391 . S
C1685 C1684 1.386 . S
C1685 C1689 1.393 . S
C1686 H1678 0.950 . S
C1686 C1684 1.391 . S
C1686 C1687 1.400 . S
C1687 C1686 1.400 . S
C1687 C1688 1.398 . S
C1687 C1693 1.491 . S
C1688 H1679 0.950 . S
C1688 C1687 1.398 . S
C1688 C1689 1.391 . S
C1689 H1677 0.950 . S
C1689 C1685 1.393 . S
C1689 C1688 1.391 . S
C1690 H1680 0.950 . S
C1690 C1691 1.386 . S
C1690 C1692 1.391 . S
C1691 C1690 1.386 . S
C1691 C1695 1.393 . S
C1692 H1681 0.950 . S
C1692 C1690 1.391 . S
C1692 C1693 1.400 . S
C1693 C1687 1.491 . S
C1693 C1692 1.400 . S
C1693 C1694 1.398 . S
C1694 H1682 0.950 . S
C1694 C1693 1.398 . S
C1694 C1695 1.391 . S
C1695 H1683 0.950 . S
C1695 C1691 1.393 . S
C1695 C1694 1.391 . S
H1696 C1704 0.950 . S
H1697 C1709 0.950 . S
H1698 C1706 0.950 . S
H1699 C1708 0.950 . S
H1700 C1710 0.950 . S
H1701 C1712 0.950 . S
H1702 C1714 0.950 . S
H1703 C1715 0.950 . S
C1704 H1696 0.950 . S
C1704 C1705 1.386 . S
C1704 C1706 1.391 . S
C1705 C1704 1.386 . S
C1705 C1709 1.393 . S
C1706 H1698 0.950 . S
C1706 C1704 1.391 . S
C1706 C1707 1.400 . S
C1707 C1706 1.400 . S
C1707 C1708 1.398 . S
C1707 C1713 1.491 . S
C1708 H1699 0.950 . S
C1708 C1707 1.398 . S
C1708 C1709 1.391 . S
C1709 H1697 0.950 . S
C1709 C1705 1.393 . S
C1709 C1708 1.391 . S
C1710 H1700 0.950 . S
C1710 C1711 1.386 . S
C1710 C1712 1.391 . S
C1711 C1710 1.386 . S
C1711 C1715 1.393 . S
C1712 H1701 0.950 . S
C1712 C1710 1.391 . S
C1712 C1713 1.400 . S
C1713 C1707 1.491 . S
C1713 C1712 1.400 . S
C1713 C1714 1.398 . S
C1714 H1702 0.950 . S
C1714 C1713 1.398 . S
C1714 C1715 1.391 . S
C1715 H1703 0.950 . S
C1715 C1711 1.393 . S
C1715 C1714 1.391 . S
H1716 C1724 0.950 . S
H1717 C1729 0.950 . S
H1718 C1726 0.950 . S
H1719 C1728 0.950 . S
H1720 C1730 0.950 . S
H1721 C1732 0.950 . S
H1722 C1734 0.950 . S
H1723 C1735 0.950 . S
C1724 H1716 0.950 . S
C1724 C1725 1.386 . S
C1724 C1726 1.391 . S
C1725 C1724 1.386 . S
C1725 C1729 1.393 . S
C1726 H1718 0.950 . S
C1726 C1724 1.391 . S
C1726 C1727 1.400 . S
C1727 C1726 1.400 . S
C1727 C1728 1.398 . S
C1727 C1733 1.491 . S
C1728 H1719 0.950 . S
C1728 C1727 1.398 . S
C1728 C1729 1.391 . S
C1729 H1717 0.950 . S
C1729 C1725 1.393 . S
C1729 C1728 1.391 . S
C1730 H1720 0.950 . S
C1730 C1731 1.386 . S
C1730 C1732 1.391 . S
C1731 C1730 1.386 . S
C1731 C1735 1.393 . S
C1732 H1721 0.950 . S
C1732 C1730 1.391 . S
C1732 C1733 1.400 . S
C1733 C1727 1.491 . S
C1733 C1732 1.400 . S
C1733 C1734 1.398 . S
C1734 H1722 0.950 . S
C1734 C1733 1.398 . S
C1734 C1735 1.391 . S
C1735 H1723 0.950 . S
C1735 C1731 1.393 . S
C1735 C1734 1.391 . S
H1736 C1744 0.950 . S
H1737 C1749 0.950 . S
H1738 C1746 0.950 1_655 S
H1739 C1748 0.950 . S
H1740 C1750 0.950 . S
H1741 C1752 0.950 . S
H1742 C1754 0.950 . S
H1743 C1755 0.950 . S
C1744 H1736 0.950 . S
C1744 C1745 1.386 1_655 S
C1744 C1746 1.391 1_655 S
C1745 C1744 1.386 1_455 S
C1745 C1749 1.393 . S
C1746 H1738 0.950 1_455 S
C1746 C1744 1.391 1_455 S
C1746 C1747 1.400 . S
C1747 C1746 1.400 . S
C1747 C1748 1.398 . S
C1747 C1753 1.491 . S
C1748 H1739 0.950 . S
C1748 C1747 1.398 . S
C1748 C1749 1.391 . S
C1749 H1737 0.950 . S
C1749 C1745 1.393 . S
C1749 C1748 1.391 . S
C1750 H1740 0.950 . S
C1750 C1751 1.386 . S
C1750 C1752 1.391 . S
C1751 C1750 1.386 . S
C1751 C1755 1.393 . S
C1752 H1741 0.950 . S
C1752 C1750 1.391 . S
C1752 C1753 1.400 . S
C1753 C1747 1.491 . S
C1753 C1752 1.400 . S
C1753 C1754 1.398 . S
C1754 H1742 0.950 . S
C1754 C1753 1.398 . S
C1754 C1755 1.391 . S
C1755 H1743 0.950 . S
C1755 C1751 1.393 . S
C1755 C1754 1.391 . S
H1756 C1764 0.950 . S
H1757 C1769 0.950 . S
H1758 C1766 0.950 . S
H1759 C1768 0.950 . S
H1760 C1770 0.950 . S
H1761 C1772 0.950 . S
H1762 C1774 0.950 . S
H1763 C1775 0.950 . S
C1764 H1756 0.950 . S
C1764 C1765 1.386 . S
C1764 C1766 1.391 . S
C1765 C1764 1.386 . S
C1765 C1769 1.393 . S
C1766 H1758 0.950 . S
C1766 C1764 1.391 . S
C1766 C1767 1.400 . S
C1767 C1766 1.400 . S
C1767 C1768 1.398 . S
C1767 C1773 1.491 . S
C1768 H1759 0.950 . S
C1768 C1767 1.398 . S
C1768 C1769 1.391 . S
C1769 H1757 0.950 . S
C1769 C1765 1.393 . S
C1769 C1768 1.391 . S
C1770 H1760 0.950 . S
C1770 C1771 1.386 . S
C1770 C1772 1.391 . S
C1771 C1770 1.386 . S
C1771 C1775 1.393 . S
C1772 H1761 0.950 . S
C1772 C1770 1.391 . S
C1772 C1773 1.400 . S
C1773 C1767 1.491 . S
C1773 C1772 1.400 . S
C1773 C1774 1.398 . S
C1774 H1762 0.950 . S
C1774 C1773 1.398 . S
C1774 C1775 1.391 . S
C1775 H1763 0.950 . S
C1775 C1771 1.393 . S
C1775 C1774 1.391 . S
H1776 C1784 0.950 . S
H1777 C1789 0.950 . S
H1778 C1786 0.950 . S
H1779 C1788 0.950 . S
H1780 C1790 0.950 . S
H1781 C1792 0.950 . S
H1782 C1794 0.950 . S
H1783 C1795 0.950 . S
C1784 H1776 0.950 . S
C1784 C1785 1.386 . S
C1784 C1786 1.391 . S
C1785 C1784 1.386 . S
C1785 C1789 1.393 . S
C1786 H1778 0.950 . S
C1786 C1784 1.391 . S
C1786 C1787 1.400 . S
C1787 C1786 1.400 . S
C1787 C1788 1.398 . S
C1787 C1793 1.491 . S
C1788 H1779 0.950 . S
C1788 C1787 1.398 . S
C1788 C1789 1.391 . S
C1789 H1777 0.950 . S
C1789 C1785 1.393 . S
C1789 C1788 1.391 . S
C1790 H1780 0.950 . S
C1790 C1791 1.386 . S
C1790 C1792 1.391 . S
C1791 C1790 1.386 . S
C1791 C1795 1.393 . S
C1792 H1781 0.950 . S
C1792 C1790 1.391 . S
C1792 C1793 1.400 . S
C1793 C1787 1.491 . S
C1793 C1792 1.400 . S
C1793 C1794 1.398 . S
C1794 H1782 0.950 . S
C1794 C1793 1.398 . S
C1794 C1795 1.391 . S
C1795 H1783 0.950 . S
C1795 C1791 1.393 . S
C1795 C1794 1.391 . S
H1796 C1804 0.950 . S
H1797 C1809 0.950 . S
H1798 C1806 0.950 . S
H1799 C1808 0.950 . S
H1800 C1810 0.950 . S
H1801 C1812 0.950 . S
H1802 C1814 0.950 . S
H1803 C1815 0.950 . S
C1804 H1796 0.950 . S
C1804 C1805 1.386 . S
C1804 C1806 1.391 . S
C1805 C1804 1.386 . S
C1805 C1809 1.393 . S
C1806 H1798 0.950 . S
C1806 C1804 1.391 . S
C1806 C1807 1.400 . S
C1807 C1806 1.400 . S
C1807 C1808 1.398 . S
C1807 C1813 1.491 . S
C1808 H1799 0.950 . S
C1808 C1807 1.398 . S
C1808 C1809 1.391 . S
C1809 H1797 0.950 . S
C1809 C1805 1.393 . S
C1809 C1808 1.391 . S
C1810 H1800 0.950 . S
C1810 C1811 1.386 . S
C1810 C1812 1.391 . S
C1811 C1810 1.386 . S
C1811 C1815 1.393 . S
C1812 H1801 0.950 . S
C1812 C1810 1.391 . S
C1812 C1813 1.400 . S
C1813 C1807 1.491 . S
C1813 C1812 1.400 . S
C1813 C1814 1.398 . S
C1814 H1802 0.950 . S
C1814 C1813 1.398 . S
C1814 C1815 1.391 . S
C1815 H1803 0.950 . S
C1815 C1811 1.393 . S
C1815 C1814 1.391 . S
H1816 C1824 0.951 . S
H1817 C1829 0.950 . S
H1818 C1826 0.950 . S
H1819 C1828 0.950 . S
H1820 C1830 0.955 . S
H1821 C1832 0.950 . S
H1822 C1834 0.950 . S
H1823 C1835 0.950 . S
C1824 H1816 0.951 . S
C1824 C1825 1.382 1_455 S
C1824 C1826 1.393 . S
C1825 C1824 1.382 1_655 S
C1825 C1829 1.393 . S
C1826 H1818 0.950 . S
C1826 C1824 1.393 . S
C1826 C1827 1.393 1_455 S
C1827 C1826 1.393 1_655 S
C1827 C1828 1.424 . S
C1827 C1833 1.473 1_655 S
C1828 H1819 0.950 . S
C1828 C1827 1.424 . S
C1828 C1829 1.391 . S
C1829 H1817 0.950 . S
C1829 C1825 1.393 . S
C1829 C1828 1.391 . S
C1830 H1820 0.955 . S
C1830 C1831 1.386 . S
C1830 C1832 1.391 1_455 S
C1831 C1830 1.386 . S
C1831 C1835 1.393 . S
C1832 H1821 0.950 . S
C1832 C1830 1.391 1_655 S
C1832 C1833 1.400 1_655 S
C1833 C1827 1.473 1_455 S
C1833 C1832 1.400 1_455 S
C1833 C1834 1.398 . S
C1834 H1822 0.950 . S
C1834 C1833 1.398 . S
C1834 C1835 1.391 . S
C1835 H1823 0.950 . S
C1835 C1831 1.393 . S
C1835 C1834 1.391 . S
H1836 C1844 0.950 . S
H1837 C1849 0.950 . S
H1838 C1846 0.950 . S
H1839 C1848 0.950 . S
H1840 C1850 0.950 . S
H1841 C1852 0.950 . S
H1842 C1854 0.950 . S
H1843 C1855 0.950 . S
C1844 H1836 0.950 . S
C1844 C1845 1.386 . S
C1844 C1846 1.391 . S
C1845 C1844 1.386 . S
C1845 C1849 1.393 . S
C1846 H1838 0.950 . S
C1846 C1844 1.391 . S
C1846 C1847 1.400 . S
C1847 C1846 1.400 . S
C1847 C1848 1.398 . S
C1847 C1853 1.491 . S
C1848 H1839 0.950 . S
C1848 C1847 1.398 . S
C1848 C1849 1.391 . S
C1849 H1837 0.950 . S
C1849 C1845 1.393 . S
C1849 C1848 1.391 . S
C1850 H1840 0.950 . S
C1850 C1851 1.386 . S
C1850 C1852 1.391 . S
C1851 C1850 1.386 . S
C1851 C1855 1.393 . S
C1852 H1841 0.950 . S
C1852 C1850 1.391 . S
C1852 C1853 1.400 . S
C1853 C1847 1.491 . S
C1853 C1852 1.400 . S
C1853 C1854 1.398 . S
C1854 H1842 0.950 . S
C1854 C1853 1.398 . S
C1854 C1855 1.391 . S
C1855 H1843 0.950 . S
C1855 C1851 1.393 . S
C1855 C1854 1.391 . S
H1856 C1864 0.950 . S
H1857 C1869 0.950 . S
H1858 C1866 0.950 . S
H1859 C1868 0.950 . S
H1860 C1870 0.950 1_565 S
H1861 C1872 0.919 1_565 S
H1862 C1874 0.950 . S
H1863 C1875 0.950 . S
C1864 H1856 0.950 . S
C1864 C1865 1.386 . S
C1864 C1866 1.391 . S
C1865 C1864 1.386 . S
C1865 C1869 1.393 . S
C1866 H1858 0.950 . S
C1866 C1864 1.391 . S
C1866 C1867 1.400 . S
C1867 C1866 1.400 . S
C1867 C1868 1.398 . S
C1867 C1873 1.491 . S
C1868 H1859 0.950 . S
C1868 C1867 1.398 . S
C1868 C1869 1.391 . S
C1869 H1857 0.950 . S
C1869 C1865 1.393 . S
C1869 C1868 1.391 . S
C1870 H1860 0.950 1_545 S
C1870 C1871 1.386 . S
C1870 C1872 1.391 . S
C1871 C1870 1.386 . S
C1871 C1875 1.393 . S
C1872 H1861 0.919 1_545 S
C1872 C1870 1.391 . S
C1872 C1873 1.400 . S
C1873 C1867 1.491 . S
C1873 C1872 1.400 . S
C1873 C1874 1.398 . S
C1874 H1862 0.950 . S
C1874 C1873 1.398 . S
C1874 C1875 1.391 . S
C1875 H1863 0.950 . S
C1875 C1871 1.393 . S
C1875 C1874 1.391 . S
H1876 C1884 0.950 . S
H1877 C1889 0.950 . S
H1878 C1886 0.950 . S
H1879 C1888 0.950 . S
H1880 C1890 0.950 . S
H1881 C1892 0.950 . S
H1882 C1894 0.950 . S
H1883 C1895 0.950 . S
C1884 H1876 0.950 . S
C1884 C1885 1.386 . S
C1884 C1886 1.391 . S
C1885 C1884 1.386 . S
C1885 C1889 1.393 . S
C1886 H1878 0.950 . S
C1886 C1884 1.391 . S
C1886 C1887 1.400 . S
C1887 C1886 1.400 . S
C1887 C1888 1.398 . S
C1887 C1893 1.491 . S
C1888 H1879 0.950 . S
C1888 C1887 1.398 . S
C1888 C1889 1.391 . S
C1889 H1877 0.950 . S
C1889 C1885 1.393 . S
C1889 C1888 1.391 . S
C1890 H1880 0.950 . S
C1890 C1891 1.386 . S
C1890 C1892 1.391 . S
C1891 C1890 1.386 . S
C1891 C1895 1.393 . S
C1892 H1881 0.950 . S
C1892 C1890 1.391 . S
C1892 C1893 1.400 . S
C1893 C1887 1.491 . S
C1893 C1892 1.400 . S
C1893 C1894 1.398 . S
C1894 H1882 0.950 . S
C1894 C1893 1.398 . S
C1894 C1895 1.391 . S
C1895 H1883 0.950 . S
C1895 C1891 1.393 . S
C1895 C1894 1.391 . S
H1896 C1904 0.950 . S
H1897 C1909 0.952 1_455 S
H1898 C1906 0.950 . S
H1899 C1908 0.950 . S
H1900 C1910 0.950 . S
H1901 C1912 0.950 . S
H1902 C1914 0.950 . S
H1903 C1915 0.950 . S
C1904 H1896 0.950 . S
C1904 C1905 1.386 . S
C1904 C1906 1.391 . S
C1905 C1904 1.386 . S
C1905 C1909 1.393 . S
C1906 H1898 0.950 . S
C1906 C1904 1.391 . S
C1906 C1907 1.400 1_655 S
C1907 C1906 1.400 1_455 S
C1907 C1908 1.398 . S
C1907 C1913 1.491 . S
C1908 H1899 0.950 . S
C1908 C1907 1.398 . S
C1908 C1909 1.391 1_455 S
C1909 H1897 0.952 1_655 S
C1909 C1905 1.393 . S
C1909 C1908 1.391 1_655 S
C1910 H1900 0.950 . S
C1910 C1911 1.386 . S
C1910 C1912 1.391 . S
C1911 C1910 1.386 . S
C1911 C1915 1.393 . S
C1912 H1901 0.950 . S
C1912 C1910 1.391 . S
C1912 C1913 1.400 . S
C1913 C1907 1.491 . S
C1913 C1912 1.400 . S
C1913 C1914 1.398 . S
C1914 H1902 0.950 . S
C1914 C1913 1.398 . S
C1914 C1915 1.391 . S
C1915 H1903 0.950 . S
C1915 C1911 1.393 . S
C1915 C1914 1.391 . S
H1916 C1924 0.950 . S
H1917 C1929 0.950 . S
H1918 C1926 0.950 . S
H1919 C1928 0.950 . S
H1920 C1930 0.950 . S
H1921 C1932 0.950 . S
H1922 C1934 0.950 . S
H1923 C1935 0.950 . S
C1924 H1916 0.950 . S
C1924 C1925 1.386 . S
C1924 C1926 1.391 . S
C1925 C1924 1.386 . S
C1925 C1929 1.393 . S
C1926 H1918 0.950 . S
C1926 C1924 1.391 . S
C1926 C1927 1.400 . S
C1927 C1926 1.400 . S
C1927 C1928 1.398 . S
C1927 C1933 1.491 . S
C1928 H1919 0.950 . S
C1928 C1927 1.398 . S
C1928 C1929 1.391 . S
C1929 H1917 0.950 . S
C1929 C1925 1.393 . S
C1929 C1928 1.391 . S
C1930 H1920 0.950 . S
C1930 C1931 1.386 . S
C1930 C1932 1.391 . S
C1931 C1930 1.386 . S
C1931 C1935 1.393 . S
C1932 H1921 0.950 . S
C1932 C1930 1.391 . S
C1932 C1933 1.400 . S
C1933 C1927 1.491 . S
C1933 C1932 1.400 . S
C1933 C1934 1.398 . S
C1934 H1922 0.950 . S
C1934 C1933 1.398 . S
C1934 C1935 1.391 . S
C1935 H1923 0.950 . S
C1935 C1931 1.393 . S
C1935 C1934 1.391 . S
H1936 C1944 0.950 . S
H1937 C1949 0.950 . S
H1938 C1946 0.950 . S
H1939 C1948 0.950 . S
H1940 C1950 0.950 . S
H1941 C1952 0.950 . S
H1942 C1954 0.950 . S
H1943 C1955 0.950 . S
C1944 H1936 0.950 . S
C1944 C1945 1.386 . S
C1944 C1946 1.391 . S
C1945 C1944 1.386 . S
C1945 C1949 1.393 . S
C1946 H1938 0.950 . S
C1946 C1944 1.391 . S
C1946 C1947 1.400 . S
C1947 C1946 1.400 . S
C1947 C1948 1.398 . S
C1947 C1953 1.491 . S
C1948 H1939 0.950 . S
C1948 C1947 1.398 . S
C1948 C1949 1.391 . S
C1949 H1937 0.950 . S
C1949 C1945 1.393 . S
C1949 C1948 1.391 . S
C1950 H1940 0.950 . S
C1950 C1951 1.386 . S
C1950 C1952 1.391 . S
C1951 C1950 1.386 . S
C1951 C1955 1.393 . S
C1952 H1941 0.950 . S
C1952 C1950 1.391 . S
C1952 C1953 1.400 . S
C1953 C1947 1.491 . S
C1953 C1952 1.400 . S
C1953 C1954 1.398 . S
C1954 H1942 0.950 . S
C1954 C1953 1.398 . S
C1954 C1955 1.391 . S
C1955 H1943 0.950 . S
C1955 C1951 1.393 . S
C1955 C1954 1.391 . S
H1956 C1964 0.950 . S
H1957 C1969 0.950 . S
H1958 C1966 0.950 . S
H1959 C1968 0.950 . S
H1960 C1970 0.950 . S
H1961 C1972 0.950 . S
H1962 C1974 0.950 . S
H1963 C1975 0.950 . S
C1964 H1956 0.950 . S
C1964 C1965 1.386 . S
C1964 C1966 1.391 . S
C1965 C1964 1.386 . S
C1965 C1969 1.393 . S
C1966 H1958 0.950 . S
C1966 C1964 1.391 . S
C1966 C1967 1.400 . S
C1967 C1966 1.400 . S
C1967 C1968 1.398 . S
C1967 C1973 1.491 . S
C1968 H1959 0.950 . S
C1968 C1967 1.398 . S
C1968 C1969 1.391 . S
C1969 H1957 0.950 . S
C1969 C1965 1.393 . S
C1969 C1968 1.391 . S
C1970 H1960 0.950 . S
C1970 C1971 1.386 . S
C1970 C1972 1.391 . S
C1971 C1970 1.386 . S
C1971 C1975 1.393 . S
C1972 H1961 0.950 . S
C1972 C1970 1.391 . S
C1972 C1973 1.400 . S
C1973 C1967 1.491 . S
C1973 C1972 1.400 . S
C1973 C1974 1.398 . S
C1974 H1962 0.950 . S
C1974 C1973 1.398 . S
C1974 C1975 1.391 . S
C1975 H1963 0.950 . S
C1975 C1971 1.393 . S
C1975 C1974 1.391 . S
H1976 C1984 0.950 . S
H1977 C1989 0.950 . S
H1978 C1986 0.950 1_545 S
H1979 C1988 0.950 . S
H1980 C1990 0.950 1_556 S
H1981 C1992 0.950 1_556 S
H1982 C1994 0.950 . S
H1983 C1995 0.950 . S
C1984 H1976 0.950 . S
C1984 C1985 1.386 . S
C1984 C1986 1.391 . S
C1985 C1984 1.386 . S
C1985 C1989 1.393 1_554 S
C1986 H1978 0.950 1_565 S
C1986 C1984 1.391 . S
C1986 C1987 1.400 . S
C1987 C1986 1.400 . S
C1987 C1988 1.398 1_554 S
C1987 C1993 1.491 . S
C1988 H1979 0.950 . S
C1988 C1987 1.398 1_556 S
C1988 C1989 1.391 . S
C1989 H1977 0.950 . S
C1989 C1985 1.393 1_556 S
C1989 C1988 1.391 . S
C1990 H1980 0.950 1_554 S
C1990 C1991 1.386 1_565 S
C1990 C1992 1.391 . S
C1991 C1990 1.386 1_545 S
C1991 C1995 1.393 . S
C1992 H1981 0.950 1_554 S
C1992 C1990 1.391 . S
C1992 C1993 1.400 . S
C1993 C1987 1.491 . S
C1993 C1992 1.400 . S
C1993 C1994 1.398 1_565 S
C1994 H1982 0.950 . S
C1994 C1993 1.398 1_545 S
C1994 C1995 1.391 . S
C1995 H1983 0.950 . S
C1995 C1991 1.393 . S
C1995 C1994 1.391 . S
H1996 C2004 0.950 . S
H1997 C2009 0.950 . S
H1998 C2006 0.950 . S
H1999 C2008 0.950 . S
H2000 C2010 0.950 . S
H2001 C2012 0.950 . S
H2002 C2014 0.950 . S
H2003 C2015 0.950 . S
C2004 H1996 0.950 . S
C2004 C2005 1.386 1_554 S
C2004 C2006 1.391 . S
C2005 C2004 1.386 1_556 S
C2005 C2009 1.393 . S
C2006 H1998 0.950 . S
C2006 C2004 1.391 . S
C2006 C2007 1.400 1_554 S
C2007 C2006 1.400 1_556 S
C2007 C2008 1.398 . S
C2007 C2013 1.491 . S
C2008 H1999 0.950 . S
C2008 C2007 1.398 . S
C2008 C2009 1.391 . S
C2009 H1997 0.950 . S
C2009 C2005 1.393 . S
C2009 C2008 1.391 . S
C2010 H2000 0.950 . S
C2010 C2011 1.386 1_556 S
C2010 C2012 1.391 . S
C2011 C2010 1.386 1_554 S
C2011 C2015 1.393 . S
C2012 H2001 0.950 . S
C2012 C2010 1.391 . S
C2012 C2013 1.400 . S
C2013 C2007 1.491 . S
C2013 C2012 1.400 . S
C2013 C2014 1.398 1_556 S
C2014 H2002 0.950 . S
C2014 C2013 1.398 1_554 S
C2014 C2015 1.391 . S
C2015 H2003 0.950 . S
C2015 C2011 1.393 . S
C2015 C2014 1.391 . S
H2016 C2024 0.950 . S
H2017 C2029 0.950 . S
H2018 C2026 0.950 . S
H2019 C2028 0.950 . S
H2020 C2030 0.950 . S
H2021 C2032 0.950 . S
H2022 C2034 0.950 . S
H2023 C2035 0.950 . S
C2024 H2016 0.950 . S
C2024 C2025 1.386 . S
C2024 C2026 1.391 . S
C2025 C2024 1.386 . S
C2025 C2029 1.393 . S
C2026 H2018 0.950 . S
C2026 C2024 1.391 . S
C2026 C2027 1.400 . S
C2027 C2026 1.400 . S
C2027 C2028 1.398 . S
C2027 C2033 1.491 . S
C2028 H2019 0.950 . S
C2028 C2027 1.398 . S
C2028 C2029 1.391 . S
C2029 H2017 0.950 . S
C2029 C2025 1.393 . S
C2029 C2028 1.391 . S
C2030 H2020 0.950 . S
C2030 C2031 1.386 . S
C2030 C2032 1.391 . S
C2031 C2030 1.386 . S
C2031 C2035 1.393 . S
C2032 H2021 0.950 . S
C2032 C2030 1.391 . S
C2032 C2033 1.400 . S
C2033 C2027 1.491 . S
C2033 C2032 1.400 . S
C2033 C2034 1.398 . S
C2034 H2022 0.950 . S
C2034 C2033 1.398 . S
C2034 C2035 1.391 . S
C2035 H2023 0.950 . S
C2035 C2031 1.393 . S
C2035 C2034 1.391 . S
H2036 C2044 0.950 . S
H2037 C2049 0.950 . S
H2038 C2046 0.950 . S
H2039 C2048 0.950 . S
H2040 C2050 0.950 1_455 S
H2041 C2052 0.950 . S
H2042 C2054 0.950 . S
H2043 C2055 0.959 . S
C2044 H2036 0.950 . S
C2044 C2045 1.386 . S
C2044 C2046 1.391 . S
C2045 C2044 1.386 . S
C2045 C2049 1.393 . S
C2046 H2038 0.950 . S
C2046 C2044 1.391 . S
C2046 C2047 1.400 . S
C2047 C2046 1.400 . S
C2047 C2048 1.398 . S
C2047 C2053 1.491 . S
C2048 H2039 0.950 . S
C2048 C2047 1.398 . S
C2048 C2049 1.391 . S
C2049 H2037 0.950 . S
C2049 C2045 1.393 . S
C2049 C2048 1.391 . S
C2050 H2040 0.950 1_655 S
C2050 C2051 1.386 1_655 S
C2050 C2052 1.391 . S
C2051 C2050 1.386 1_455 S
C2051 C2055 1.405 . S
C2052 H2041 0.950 . S
C2052 C2050 1.391 . S
C2052 C2053 1.400 . S
C2053 C2047 1.491 . S
C2053 C2052 1.400 . S
C2053 C2054 1.398 . S
C2054 H2042 0.950 . S
C2054 C2053 1.398 . S
C2054 C2055 1.369 1_655 S
C2055 H2043 0.959 . S
C2055 C2051 1.405 . S
C2055 C2054 1.369 1_455 S
H2056 C2064 0.950 . S
H2057 C2069 0.950 . S
H2058 C2066 0.950 . S
H2059 C2068 0.950 . S
H2060 C2070 0.950 . S
H2061 C2072 0.950 . S
H2062 C2074 0.950 . S
H2063 C2075 0.950 . S
C2064 H2056 0.950 . S
C2064 C2065 1.386 . S
C2064 C2066 1.391 . S
C2065 C2064 1.386 . S
C2065 C2069 1.393 . S
C2066 H2058 0.950 . S
C2066 C2064 1.391 . S
C2066 C2067 1.400 . S
C2067 C2066 1.400 . S
C2067 C2068 1.398 . S
C2067 C2073 1.491 . S
C2068 H2059 0.950 . S
C2068 C2067 1.398 . S
C2068 C2069 1.391 . S
C2069 H2057 0.950 . S
C2069 C2065 1.393 . S
C2069 C2068 1.391 . S
C2070 H2060 0.950 . S
C2070 C2071 1.386 . S
C2070 C2072 1.391 . S
C2071 C2070 1.386 . S
C2071 C2075 1.393 . S
C2072 H2061 0.950 . S
C2072 C2070 1.391 . S
C2072 C2073 1.400 . S
C2073 C2067 1.491 . S
C2073 C2072 1.400 . S
C2073 C2074 1.398 . S
C2074 H2062 0.950 . S
C2074 C2073 1.398 . S
C2074 C2075 1.391 . S
C2075 H2063 0.950 . S
C2075 C2071 1.393 . S
C2075 C2074 1.391 . S
H2076 C2084 0.950 . S
H2077 C2089 0.950 . S
H2078 C2086 0.950 . S
H2079 C2088 0.950 . S
H2080 C2090 0.950 . S
H2081 C2092 0.950 . S
H2082 C2094 0.950 . S
H2083 C2095 0.950 . S
C2084 H2076 0.950 . S
C2084 C2085 1.386 . S
C2084 C2086 1.391 . S
C2085 C2084 1.386 . S
C2085 C2089 1.393 . S
C2086 H2078 0.950 . S
C2086 C2084 1.391 . S
C2086 C2087 1.400 . S
C2087 C2086 1.400 . S
C2087 C2088 1.398 . S
C2087 C2093 1.491 . S
C2088 H2079 0.950 . S
C2088 C2087 1.398 . S
C2088 C2089 1.391 . S
C2089 H2077 0.950 . S
C2089 C2085 1.393 . S
C2089 C2088 1.391 . S
C2090 H2080 0.950 . S
C2090 C2091 1.386 . S
C2090 C2092 1.391 . S
C2091 C2090 1.386 . S
C2091 C2095 1.393 . S
C2092 H2081 0.950 . S
C2092 C2090 1.391 . S
C2092 C2093 1.400 . S
C2093 C2087 1.491 . S
C2093 C2092 1.400 . S
C2093 C2094 1.398 . S
C2094 H2082 0.950 . S
C2094 C2093 1.398 . S
C2094 C2095 1.391 . S
C2095 H2083 0.950 . S
C2095 C2091 1.393 . S
C2095 C2094 1.391 . S
H2096 C2104 0.950 . S
H2097 C2109 0.950 . S
H2098 C2106 0.950 . S
H2099 C2108 0.950 . S
H2100 C2110 0.950 . S
H2101 C2112 0.950 . S
H2102 C2114 0.950 . S
H2103 C2115 0.950 . S
C2104 H2096 0.950 . S
C2104 C2105 1.386 . S
C2104 C2106 1.391 . S
C2105 C2104 1.386 . S
C2105 C2109 1.393 . S
C2106 H2098 0.950 . S
C2106 C2104 1.391 . S
C2106 C2107 1.400 . S
C2107 C2106 1.400 . S
C2107 C2108 1.398 . S
C2107 C2113 1.491 . S
C2108 H2099 0.950 . S
C2108 C2107 1.398 . S
C2108 C2109 1.391 . S
C2109 H2097 0.950 . S
C2109 C2105 1.393 . S
C2109 C2108 1.391 . S
C2110 H2100 0.950 . S
C2110 C2111 1.386 . S
C2110 C2112 1.391 . S
C2111 C2110 1.386 . S
C2111 C2115 1.393 . S
C2112 H2101 0.950 . S
C2112 C2110 1.391 . S
C2112 C2113 1.400 . S
C2113 C2107 1.491 . S
C2113 C2112 1.400 . S
C2113 C2114 1.398 . S
C2114 H2102 0.950 . S
C2114 C2113 1.398 . S
C2114 C2115 1.391 . S
C2115 H2103 0.950 . S
C2115 C2111 1.393 . S
C2115 C2114 1.391 . S
H2116 C2124 0.950 . S
H2117 C2129 0.950 . S
H2118 C2126 0.950 . S
H2119 C2128 0.950 . S
H2120 C2130 0.950 . S
H2121 C2132 0.950 . S
H2122 C2134 0.950 . S
H2123 C2135 0.950 . S
C2124 H2116 0.950 . S
C2124 C2125 1.386 . S
C2124 C2126 1.391 . S
C2125 C2124 1.386 . S
C2125 C2129 1.393 . S
C2126 H2118 0.950 . S
C2126 C2124 1.391 . S
C2126 C2127 1.400 . S
C2127 C2126 1.400 . S
C2127 C2128 1.398 . S
C2127 C2133 1.491 . S
C2128 H2119 0.950 . S
C2128 C2127 1.398 . S
C2128 C2129 1.391 . S
C2129 H2117 0.950 . S
C2129 C2125 1.393 . S
C2129 C2128 1.391 . S
C2130 H2120 0.950 . S
C2130 C2131 1.386 . S
C2130 C2132 1.391 . S
C2131 C2130 1.386 . S
C2131 C2135 1.393 . S
C2132 H2121 0.950 . S
C2132 C2130 1.391 . S
C2132 C2133 1.400 . S
C2133 C2127 1.491 . S
C2133 C2132 1.400 . S
C2133 C2134 1.398 . S
C2134 H2122 0.950 . S
C2134 C2133 1.398 . S
C2134 C2135 1.391 . S
C2135 H2123 0.950 . S
C2135 C2131 1.393 . S
C2135 C2134 1.391 . S
H2136 C2144 0.950 . S
H2137 C2149 0.950 . S
H2138 C2146 0.950 . S
H2139 C2148 0.950 . S
H2140 C2150 0.950 1_556 S
H2141 C2152 0.950 . S
H2142 C2154 0.950 . S
H2143 C2155 0.950 . S
C2144 H2136 0.950 . S
C2144 C2145 1.386 . S
C2144 C2146 1.391 . S
C2145 C2144 1.386 . S
C2145 C2149 1.393 . S
C2146 H2138 0.950 . S
C2146 C2144 1.391 . S
C2146 C2147 1.400 . S
C2147 C2146 1.400 . S
C2147 C2148 1.398 . S
C2147 C2153 1.491 . S
C2148 H2139 0.950 . S
C2148 C2147 1.398 . S
C2148 C2149 1.391 . S
C2149 H2137 0.950 . S
C2149 C2145 1.393 . S
C2149 C2148 1.391 . S
C2150 H2140 0.950 1_554 S
C2150 C2151 1.386 . S
C2150 C2152 1.391 . S
C2151 C2150 1.386 . S
C2151 C2155 1.393 . S
C2152 H2141 0.950 . S
C2152 C2150 1.391 . S
C2152 C2153 1.400 . S
C2153 C2147 1.491 . S
C2153 C2152 1.400 . S
C2153 C2154 1.398 . S
C2154 H2142 0.950 . S
C2154 C2153 1.398 . S
C2154 C2155 1.391 . S
C2155 H2143 0.950 . S
C2155 C2151 1.393 . S
C2155 C2154 1.391 . S
H2156 C2164 0.950 . S
H2157 C2169 0.950 . S
H2158 C2166 0.950 . S
H2159 C2168 0.950 . S
H2160 C2170 0.950 . S
H2161 C2172 0.950 . S
H2162 C2174 0.950 . S
H2163 C2175 0.950 . S
C2164 H2156 0.950 . S
C2164 C2165 1.386 . S
C2164 C2166 1.391 . S
C2165 C2164 1.386 . S
C2165 C2169 1.393 . S
C2166 H2158 0.950 . S
C2166 C2164 1.391 . S
C2166 C2167 1.400 . S
C2167 C2166 1.400 . S
C2167 C2168 1.398 . S
C2167 C2173 1.491 . S
C2168 H2159 0.950 . S
C2168 C2167 1.398 . S
C2168 C2169 1.391 . S
C2169 H2157 0.950 . S
C2169 C2165 1.393 . S
C2169 C2168 1.391 . S
C2170 H2160 0.950 . S
C2170 C2171 1.386 . S
C2170 C2172 1.391 . S
C2171 C2170 1.386 . S
C2171 C2175 1.393 . S
C2172 H2161 0.950 . S
C2172 C2170 1.391 . S
C2172 C2173 1.400 . S
C2173 C2167 1.491 . S
C2173 C2172 1.400 . S
C2173 C2174 1.398 . S
C2174 H2162 0.950 . S
C2174 C2173 1.398 . S
C2174 C2175 1.391 . S
C2175 H2163 0.950 . S
C2175 C2171 1.393 . S
C2175 C2174 1.391 . S
H2176 C2184 0.950 . S
H2177 C2189 0.950 . S
H2178 C2186 0.950 . S
H2179 C2188 0.950 . S
H2180 C2190 0.950 . S
H2181 C2192 0.950 . S
H2182 C2194 0.950 . S
H2183 C2195 0.950 . S
C2184 H2176 0.950 . S
C2184 C2185 1.386 . S
C2184 C2186 1.391 . S
C2185 C2184 1.386 . S
C2185 C2189 1.393 . S
C2186 H2178 0.950 . S
C2186 C2184 1.391 . S
C2186 C2187 1.400 . S
C2187 C2186 1.400 . S
C2187 C2188 1.398 . S
C2187 C2193 1.491 . S
C2188 H2179 0.950 . S
C2188 C2187 1.398 . S
C2188 C2189 1.391 . S
C2189 H2177 0.950 . S
C2189 C2185 1.393 . S
C2189 C2188 1.391 . S
C2190 H2180 0.950 . S
C2190 C2191 1.386 . S
C2190 C2192 1.391 . S
C2191 C2190 1.386 . S
C2191 C2195 1.393 . S
C2192 H2181 0.950 . S
C2192 C2190 1.391 . S
C2192 C2193 1.400 . S
C2193 C2187 1.491 . S
C2193 C2192 1.400 . S
C2193 C2194 1.398 . S
C2194 H2182 0.950 . S
C2194 C2193 1.398 . S
C2194 C2195 1.391 . S
C2195 H2183 0.950 . S
C2195 C2191 1.393 . S
C2195 C2194 1.391 . S
H2196 C2204 0.950 . S
H2197 C2209 0.950 . S
H2198 C2206 0.950 . S
H2199 C2208 0.950 . S
H2200 C2210 0.950 . S
H2201 C2212 0.950 . S
H2202 C2214 0.950 . S
H2203 C2215 0.950 . S
C2204 H2196 0.950 . S
C2204 C2205 1.386 . S
C2204 C2206 1.391 . S
C2205 C2204 1.386 . S
C2205 C2209 1.393 . S
C2206 H2198 0.950 . S
C2206 C2204 1.391 . S
C2206 C2207 1.400 . S
C2207 C2206 1.400 . S
C2207 C2208 1.398 . S
C2207 C2213 1.491 . S
C2208 H2199 0.950 . S
C2208 C2207 1.398 . S
C2208 C2209 1.391 . S
C2209 H2197 0.950 . S
C2209 C2205 1.393 . S
C2209 C2208 1.391 . S
C2210 H2200 0.950 . S
C2210 C2211 1.386 . S
C2210 C2212 1.391 . S
C2211 C2210 1.386 . S
C2211 C2215 1.393 . S
C2212 H2201 0.950 . S
C2212 C2210 1.391 . S
C2212 C2213 1.400 . S
C2213 C2207 1.491 . S
C2213 C2212 1.400 . S
C2213 C2214 1.398 . S
C2214 H2202 0.950 . S
C2214 C2213 1.398 . S
C2214 C2215 1.391 . S
C2215 H2203 0.950 . S
C2215 C2211 1.393 . S
C2215 C2214 1.391 . S
H2216 C2224 0.950 . S
H2217 C2229 0.950 . S
H2218 C2226 0.950 . S
H2219 C2228 0.950 . S
H2220 C2230 0.950 . S
H2221 C2232 0.950 . S
H2222 C2234 0.950 . S
H2223 C2235 0.950 . S
C2224 H2216 0.950 . S
C2224 C2225 1.386 . S
C2224 C2226 1.391 . S
C2225 C2224 1.386 . S
C2225 C2229 1.393 . S
C2226 H2218 0.950 . S
C2226 C2224 1.391 . S
C2226 C2227 1.400 . S
C2227 C2226 1.400 . S
C2227 C2228 1.398 . S
C2227 C2233 1.491 . S
C2228 H2219 0.950 . S
C2228 C2227 1.398 . S
C2228 C2229 1.391 . S
C2229 H2217 0.950 . S
C2229 C2225 1.393 . S
C2229 C2228 1.391 . S
C2230 H2220 0.950 . S
C2230 C2231 1.386 . S
C2230 C2232 1.391 . S
C2231 C2230 1.386 . S
C2231 C2235 1.393 . S
C2232 H2221 0.950 . S
C2232 C2230 1.391 . S
C2232 C2233 1.400 . S
C2233 C2227 1.491 . S
C2233 C2232 1.400 . S
C2233 C2234 1.398 . S
C2234 H2222 0.950 . S
C2234 C2233 1.398 . S
C2234 C2235 1.391 . S
C2235 H2223 0.950 . S
C2235 C2231 1.393 . S
C2235 C2234 1.391 . S
H2236 C2244 0.950 . S
H2237 C2249 0.950 . S
H2238 C2246 0.950 . S
H2239 C2248 0.950 . S
H2240 C2250 0.950 . S
H2241 C2252 0.950 . S
H2242 C2254 0.950 . S
H2243 C2255 0.950 . S
C2244 H2236 0.950 . S
C2244 C2245 1.386 . S
C2244 C2246 1.391 . S
C2245 C2244 1.386 . S
C2245 C2249 1.393 . S
C2246 H2238 0.950 . S
C2246 C2244 1.391 . S
C2246 C2247 1.400 . S
C2247 C2246 1.400 . S
C2247 C2248 1.398 . S
C2247 C2253 1.491 . S
C2248 H2239 0.950 . S
C2248 C2247 1.398 . S
C2248 C2249 1.391 . S
C2249 H2237 0.950 . S
C2249 C2245 1.393 . S
C2249 C2248 1.391 . S
C2250 H2240 0.950 . S
C2250 C2251 1.386 . S
C2250 C2252 1.391 . S
C2251 C2250 1.386 . S
C2251 C2255 1.393 . S
C2252 H2241 0.950 . S
C2252 C2250 1.391 . S
C2252 C2253 1.400 . S
C2253 C2247 1.491 . S
C2253 C2252 1.400 . S
C2253 C2254 1.398 . S
C2254 H2242 0.950 . S
C2254 C2253 1.398 . S
C2254 C2255 1.391 . S
C2255 H2243 0.950 . S
C2255 C2251 1.393 . S
C2255 C2254 1.391 . S
H2256 C2264 0.950 . S
H2257 C2269 0.950 . S
H2258 C2266 0.950 . S
H2259 C2268 0.950 . S
H2260 C2270 0.950 1_545 S
H2261 C2272 0.950 . S
H2262 C2274 0.950 . S
H2263 C2275 0.950 1_554 S
C2264 H2256 0.950 . S
C2264 C2265 1.386 . S
C2264 C2266 1.391 . S
C2265 C2264 1.386 . S
C2265 C2269 1.393 . S
C2266 H2258 0.950 . S
C2266 C2264 1.391 . S
C2266 C2267 1.400 . S
C2267 C2266 1.400 . S
C2267 C2268 1.398 . S
C2267 C2273 1.491 . S
C2268 H2259 0.950 . S
C2268 C2267 1.398 . S
C2268 C2269 1.391 . S
C2269 H2257 0.950 . S
C2269 C2265 1.393 . S
C2269 C2268 1.391 . S
C2270 H2260 0.950 1_565 S
C2270 C2271 1.386 . S
C2270 C2272 1.391 . S
C2271 C2270 1.386 . S
C2271 C2275 1.393 . S
C2272 H2261 0.950 . S
C2272 C2270 1.391 . S
C2272 C2273 1.400 . S
C2273 C2267 1.491 . S
C2273 C2272 1.400 . S
C2273 C2274 1.398 . S
C2274 H2262 0.950 . S
C2274 C2273 1.398 . S
C2274 C2275 1.391 . S
C2275 H2263 0.950 1_556 S
C2275 C2271 1.393 . S
C2275 C2274 1.391 . S
H2276 C2284 0.950 . S
H2277 C2289 0.950 . S
H2278 C2286 0.950 . S
H2279 C2288 0.950 . S
H2280 C2290 0.950 . S
H2281 C2292 0.950 . S
H2282 C2294 0.950 . S
H2283 C2295 0.950 . S
C2284 H2276 0.950 . S
C2284 C2285 1.386 . S
C2284 C2286 1.391 . S
C2285 C2284 1.386 . S
C2285 C2289 1.393 . S
C2286 H2278 0.950 . S
C2286 C2284 1.391 . S
C2286 C2287 1.400 . S
C2287 C2286 1.400 . S
C2287 C2288 1.398 . S
C2287 C2293 1.491 . S
C2288 H2279 0.950 . S
C2288 C2287 1.398 . S
C2288 C2289 1.391 . S
C2289 H2277 0.950 . S
C2289 C2285 1.393 . S
C2289 C2288 1.391 . S
C2290 H2280 0.950 . S
C2290 C2291 1.386 . S
C2290 C2292 1.391 . S
C2291 C2290 1.386 . S
C2291 C2295 1.393 . S
C2292 H2281 0.950 . S
C2292 C2290 1.391 . S
C2292 C2293 1.400 . S
C2293 C2287 1.491 . S
C2293 C2292 1.400 . S
C2293 C2294 1.398 . S
C2294 H2282 0.950 . S
C2294 C2293 1.398 . S
C2294 C2295 1.391 . S
C2295 H2283 0.950 . S
C2295 C2291 1.393 . S
C2295 C2294 1.391 . S
H2296 C2304 0.950 . S
H2297 C2309 0.950 . S
H2298 C2306 0.950 . S
H2299 C2308 0.950 . S
H2300 C2310 0.950 . S
H2301 C2312 0.950 . S
H2302 C2314 0.950 . S
H2303 C2315 0.950 . S
C2304 H2296 0.950 . S
C2304 C2305 1.386 1_565 S
C2304 C2306 1.391 . S
C2305 C2304 1.386 1_545 S
C2305 C2309 1.393 . S
C2306 H2298 0.950 . S
C2306 C2304 1.391 . S
C2306 C2307 1.400 1_565 S
C2307 C2306 1.400 1_545 S
C2307 C2308 1.398 . S
C2307 C2313 1.491 . S
C2308 H2299 0.950 . S
C2308 C2307 1.398 . S
C2308 C2309 1.391 . S
C2309 H2297 0.950 . S
C2309 C2305 1.393 . S
C2309 C2308 1.391 . S
C2310 H2300 0.950 . S
C2310 C2311 1.386 . S
C2310 C2312 1.391 . S
C2311 C2310 1.386 . S
C2311 C2315 1.393 1_545 S
C2312 H2301 0.950 . S
C2312 C2310 1.391 . S
C2312 C2313 1.400 . S
C2313 C2307 1.491 . S
C2313 C2312 1.400 . S
C2313 C2314 1.398 1_545 S
C2314 H2302 0.950 . S
C2314 C2313 1.398 1_565 S
C2314 C2315 1.391 . S
C2315 H2303 0.950 . S
C2315 C2311 1.393 1_565 S
C2315 C2314 1.391 . S
H2316 C2324 0.950 . S
H2317 C2329 0.950 . S
H2318 C2326 0.950 . S
H2319 C2328 0.950 . S
H2320 C2330 0.950 . S
H2321 C2332 0.950 . S
H2322 C2334 0.950 . S
H2323 C2335 0.950 . S
C2324 H2316 0.950 . S
C2324 C2325 1.386 . S
C2324 C2326 1.391 . S
C2325 C2324 1.386 . S
C2325 C2329 1.393 . S
C2326 H2318 0.950 . S
C2326 C2324 1.391 . S
C2326 C2327 1.400 . S
C2327 C2326 1.400 . S
C2327 C2328 1.398 . S
C2327 C2333 1.491 . S
C2328 H2319 0.950 . S
C2328 C2327 1.398 . S
C2328 C2329 1.391 . S
C2329 H2317 0.950 . S
C2329 C2325 1.393 . S
C2329 C2328 1.391 . S
C2330 H2320 0.950 . S
C2330 C2331 1.386 . S
C2330 C2332 1.391 . S
C2331 C2330 1.386 . S
C2331 C2335 1.393 . S
C2332 H2321 0.950 . S
C2332 C2330 1.391 . S
C2332 C2333 1.400 . S
C2333 C2327 1.491 . S
C2333 C2332 1.400 . S
C2333 C2334 1.398 . S
C2334 H2322 0.950 . S
C2334 C2333 1.398 . S
C2334 C2335 1.391 . S
C2335 H2323 0.950 . S
C2335 C2331 1.393 . S
C2335 C2334 1.391 . S
H2336 C2344 0.950 . S
H2337 C2349 0.950 . S
H2338 C2346 0.950 . S
H2339 C2348 0.950 . S
H2340 C2350 0.950 . S
H2341 C2352 0.950 . S
H2342 C2354 0.950 . S
H2343 C2355 0.950 . S
C2344 H2336 0.950 . S
C2344 C2345 1.386 . S
C2344 C2346 1.391 . S
C2345 C2344 1.386 . S
C2345 C2349 1.393 . S
C2346 H2338 0.950 . S
C2346 C2344 1.391 . S
C2346 C2347 1.400 . S
C2347 C2346 1.400 . S
C2347 C2348 1.398 . S
C2347 C2353 1.491 . S
C2348 H2339 0.950 . S
C2348 C2347 1.398 . S
C2348 C2349 1.391 . S
C2349 H2337 0.950 . S
C2349 C2345 1.393 . S
C2349 C2348 1.391 . S
C2350 H2340 0.950 . S
C2350 C2351 1.386 . S
C2350 C2352 1.391 . S
C2351 C2350 1.386 . S
C2351 C2355 1.393 . S
C2352 H2341 0.950 . S
C2352 C2350 1.391 . S
C2352 C2353 1.400 . S
C2353 C2347 1.491 . S
C2353 C2352 1.400 . S
C2353 C2354 1.398 . S
C2354 H2342 0.950 . S
C2354 C2353 1.398 . S
C2354 C2355 1.391 . S
C2355 H2343 0.950 . S
C2355 C2351 1.393 . S
C2355 C2354 1.391 . S
H2356 C2364 0.950 . S
H2357 C2369 0.950 . S
H2358 C2366 0.950 . S
H2359 C2368 0.950 . S
H2360 C2370 0.950 . S
H2361 C2372 0.950 . S
H2362 C2374 0.950 . S
H2363 C2375 0.950 . S
C2364 H2356 0.950 . S
C2364 C2365 1.386 . S
C2364 C2366 1.391 . S
C2365 C2364 1.386 . S
C2365 C2369 1.393 . S
C2366 H2358 0.950 . S
C2366 C2364 1.391 . S
C2366 C2367 1.400 . S
C2367 C2366 1.400 . S
C2367 C2368 1.398 . S
C2367 C2373 1.491 . S
C2368 H2359 0.950 . S
C2368 C2367 1.398 . S
C2368 C2369 1.391 . S
C2369 H2357 0.950 . S
C2369 C2365 1.393 . S
C2369 C2368 1.391 . S
C2370 H2360 0.950 . S
C2370 C2371 1.386 . S
C2370 C2372 1.391 . S
C2371 C2370 1.386 . S
C2371 C2375 1.393 . S
C2372 H2361 0.950 . S
C2372 C2370 1.391 . S
C2372 C2373 1.400 . S
C2373 C2367 1.491 . S
C2373 C2372 1.400 . S
C2373 C2374 1.398 . S
C2374 H2362 0.950 . S
C2374 C2373 1.398 . S
C2374 C2375 1.391 . S
C2375 H2363 0.950 . S
C2375 C2371 1.393 . S
C2375 C2374 1.391 . S
H2376 C2384 0.950 . S
H2377 C2389 0.950 . S
H2378 C2386 0.950 . S
H2379 C2388 0.950 . S
H2380 C2390 0.950 . S
H2381 C2392 0.950 . S
H2382 C2394 0.950 . S
H2383 C2395 0.950 . S
C2384 H2376 0.950 . S
C2384 C2385 1.386 1_545 S
C2384 C2386 1.391 . S
C2385 C2384 1.386 1_565 S
C2385 C2389 1.393 . S
C2386 H2378 0.950 . S
C2386 C2384 1.391 . S
C2386 C2387 1.400 . S
C2387 C2386 1.400 . S
C2387 C2388 1.398 1_545 S
C2387 C2393 1.491 . S
C2388 H2379 0.950 . S
C2388 C2387 1.398 1_565 S
C2388 C2389 1.391 . S
C2389 H2377 0.950 . S
C2389 C2385 1.393 . S
C2389 C2388 1.391 . S
C2390 H2380 0.950 . S
C2390 C2391 1.386 . S
C2390 C2392 1.391 . S
C2391 C2390 1.386 . S
C2391 C2395 1.393 . S
C2392 H2381 0.950 . S
C2392 C2390 1.391 . S
C2392 C2393 1.400 . S
C2393 C2387 1.491 . S
C2393 C2392 1.400 . S
C2393 C2394 1.398 . S
C2394 H2382 0.950 . S
C2394 C2393 1.398 . S
C2394 C2395 1.391 . S
C2395 H2383 0.950 . S
C2395 C2391 1.393 . S
C2395 C2394 1.391 . S
H2396 C2404 0.950 . S
H2397 C2409 0.950 . S
H2398 C2406 0.950 . S
H2399 C2408 0.950 . S
H2400 C2410 0.950 . S
H2401 C2412 0.950 . S
H2402 C2414 0.950 . S
H2403 C2415 0.950 . S
C2404 H2396 0.950 . S
C2404 C2405 1.386 . S
C2404 C2406 1.391 . S
C2405 C2404 1.386 . S
C2405 C2409 1.393 . S
C2406 H2398 0.950 . S
C2406 C2404 1.391 . S
C2406 C2407 1.400 . S
C2407 C2406 1.400 . S
C2407 C2408 1.398 . S
C2407 C2413 1.491 . S
C2408 H2399 0.950 . S
C2408 C2407 1.398 . S
C2408 C2409 1.391 . S
C2409 H2397 0.950 . S
C2409 C2405 1.393 . S
C2409 C2408 1.391 . S
C2410 H2400 0.950 . S
C2410 C2411 1.386 . S
C2410 C2412 1.391 . S
C2411 C2410 1.386 . S
C2411 C2415 1.393 . S
C2412 H2401 0.950 . S
C2412 C2410 1.391 . S
C2412 C2413 1.400 . S
C2413 C2407 1.491 . S
C2413 C2412 1.400 . S
C2413 C2414 1.398 . S
C2414 H2402 0.950 . S
C2414 C2413 1.398 . S
C2414 C2415 1.391 . S
C2415 H2403 0.950 . S
C2415 C2411 1.393 . S
C2415 C2414 1.391 . S
H2416 C2424 0.950 . S
H2417 C2429 0.950 . S
H2418 C2426 0.950 . S
H2419 C2428 0.950 . S
H2420 C2430 0.950 . S
H2421 C2432 0.950 . S
H2422 C2434 0.950 . S
H2423 C2435 0.950 . S
C2424 H2416 0.950 . S
C2424 C2425 1.386 . S
C2424 C2426 1.391 . S
C2425 C2424 1.386 . S
C2425 C2429 1.393 1_545 S
C2426 H2418 0.950 . S
C2426 C2424 1.391 . S
C2426 C2427 1.400 . S
C2427 C2426 1.400 . S
C2427 C2428 1.398 1_545 S
C2427 C2433 1.491 . S
C2428 H2419 0.950 . S
C2428 C2427 1.398 1_565 S
C2428 C2429 1.391 . S
C2429 H2417 0.950 . S
C2429 C2425 1.393 1_565 S
C2429 C2428 1.391 . S
C2430 H2420 0.950 . S
C2430 C2431 1.386 1_565 S
C2430 C2432 1.391 . S
C2431 C2430 1.386 1_545 S
C2431 C2435 1.393 . S
C2432 H2421 0.950 . S
C2432 C2430 1.391 . S
C2432 C2433 1.400 1_565 S
C2433 C2427 1.491 . S
C2433 C2432 1.400 1_545 S
C2433 C2434 1.398 . S
C2434 H2422 0.950 . S
C2434 C2433 1.398 . S
C2434 C2435 1.391 . S
C2435 H2423 0.950 . S
C2435 C2431 1.393 . S
C2435 C2434 1.391 . S
H2436 C2444 0.950 . S
H2437 C2449 0.950 . S
H2438 C2446 0.950 . S
H2439 C2448 0.950 . S
H2440 C2450 0.950 . S
H2441 C2452 0.950 . S
H2442 C2454 0.950 . S
H2443 C2455 0.950 . S
C2444 H2436 0.950 . S
C2444 C2445 1.386 . S
C2444 C2446 1.391 . S
C2445 C2444 1.386 . S
C2445 C2449 1.393 . S
C2446 H2438 0.950 . S
C2446 C2444 1.391 . S
C2446 C2447 1.400 . S
C2447 C2446 1.400 . S
C2447 C2448 1.398 . S
C2447 C2453 1.491 . S
C2448 H2439 0.950 . S
C2448 C2447 1.398 . S
C2448 C2449 1.391 . S
C2449 H2437 0.950 . S
C2449 C2445 1.393 . S
C2449 C2448 1.391 . S
C2450 H2440 0.950 . S
C2450 C2451 1.386 . S
C2450 C2452 1.391 . S
C2451 C2450 1.386 . S
C2451 C2455 1.393 . S
C2452 H2441 0.950 . S
C2452 C2450 1.391 . S
C2452 C2453 1.400 . S
C2453 C2447 1.491 . S
C2453 C2452 1.400 . S
C2453 C2454 1.398 . S
C2454 H2442 0.950 . S
C2454 C2453 1.398 . S
C2454 C2455 1.391 . S
C2455 H2443 0.950 . S
C2455 C2451 1.393 . S
C2455 C2454 1.391 . S
H2456 C2464 0.950 . S
H2457 C2469 0.950 1_556 S
H2458 C2466 0.950 . S
H2459 C2468 0.950 1_556 S
H2460 C2470 0.950 . S
H2461 C2472 0.950 . S
H2462 C2474 0.950 . S
H2463 C2475 0.950 . S
C2464 H2456 0.950 . S
C2464 C2465 1.386 . S
C2464 C2466 1.391 . S
C2465 C2464 1.386 . S
C2465 C2469 1.393 . S
C2466 H2458 0.950 . S
C2466 C2464 1.391 . S
C2466 C2467 1.400 . S
C2467 C2466 1.400 . S
C2467 C2468 1.398 . S
C2467 C2473 1.491 . S
C2468 H2459 0.950 1_554 S
C2468 C2467 1.398 . S
C2468 C2469 1.391 . S
C2469 H2457 0.950 1_554 S
C2469 C2465 1.393 . S
C2469 C2468 1.391 . S
C2470 H2460 0.950 . S
C2470 C2471 1.386 1_556 S
C2470 C2472 1.391 . S
C2471 C2470 1.386 1_554 S
C2471 C2475 1.393 . S
C2472 H2461 0.950 . S
C2472 C2470 1.391 . S
C2472 C2473 1.400 1_556 S
C2473 C2467 1.491 . S
C2473 C2472 1.400 1_554 S
C2473 C2474 1.398 . S
C2474 H2462 0.950 . S
C2474 C2473 1.398 . S
C2474 C2475 1.391 . S
C2475 H2463 0.950 . S
C2475 C2471 1.393 . S
C2475 C2474 1.391 . S
H2476 C2484 0.950 . S
H2477 C2489 0.950 . S
H2478 C2486 0.950 . S
H2479 C2488 0.950 . S
H2480 C2490 0.950 . S
H2481 C2492 0.950 . S
H2482 C2494 0.950 . S
H2483 C2495 0.950 . S
C2484 H2476 0.950 . S
C2484 C2485 1.386 . S
C2484 C2486 1.391 . S
C2485 C2484 1.386 . S
C2485 C2489 1.393 . S
C2486 H2478 0.950 . S
C2486 C2484 1.391 . S
C2486 C2487 1.400 . S
C2487 C2486 1.400 . S
C2487 C2488 1.398 . S
C2487 C2493 1.491 . S
C2488 H2479 0.950 . S
C2488 C2487 1.398 . S
C2488 C2489 1.391 . S
C2489 H2477 0.950 . S
C2489 C2485 1.393 . S
C2489 C2488 1.391 . S
C2490 H2480 0.950 . S
C2490 C2491 1.386 . S
C2490 C2492 1.391 . S
C2491 C2490 1.386 . S
C2491 C2495 1.393 . S
C2492 H2481 0.950 . S
C2492 C2490 1.391 . S
C2492 C2493 1.400 . S
C2493 C2487 1.491 . S
C2493 C2492 1.400 . S
C2493 C2494 1.398 . S
C2494 H2482 0.950 . S
C2494 C2493 1.398 . S
C2494 C2495 1.391 . S
C2495 H2483 0.950 . S
C2495 C2491 1.393 . S
C2495 C2494 1.391 . S
H2496 C2504 0.950 . S
H2497 C2509 0.950 . S
H2498 C2506 0.950 . S
H2499 C2508 0.950 . S
H2500 C2510 0.950 . S
H2501 C2512 0.950 . S
H2502 C2514 0.950 . S
H2503 C2515 0.950 . S
C2504 H2496 0.950 . S
C2504 C2505 1.386 . S
C2504 C2506 1.391 . S
C2505 C2504 1.386 . S
C2505 C2509 1.393 . S
C2506 H2498 0.950 . S
C2506 C2504 1.391 . S
C2506 C2507 1.400 . S
C2507 C2506 1.400 . S
C2507 C2508 1.398 . S
C2507 C2513 1.491 . S
C2508 H2499 0.950 . S
C2508 C2507 1.398 . S
C2508 C2509 1.391 . S
C2509 H2497 0.950 . S
C2509 C2505 1.393 . S
C2509 C2508 1.391 . S
C2510 H2500 0.950 . S
C2510 C2511 1.386 . S
C2510 C2512 1.391 . S
C2511 C2510 1.386 . S
C2511 C2515 1.393 . S
C2512 H2501 0.950 . S
C2512 C2510 1.391 . S
C2512 C2513 1.400 . S
C2513 C2507 1.491 . S
C2513 C2512 1.400 . S
C2513 C2514 1.398 . S
C2514 H2502 0.950 . S
C2514 C2513 1.398 . S
C2514 C2515 1.391 . S
C2515 H2503 0.950 . S
C2515 C2511 1.393 . S
C2515 C2514 1.391 . S
H2516 C2524 0.950 . S
H2517 C2529 0.950 . S
H2518 C2526 0.950 . S
H2519 C2528 0.950 . S
H2520 C2530 0.950 . S
H2521 C2532 0.950 . S
H2522 C2534 0.950 . S
H2523 C2535 0.950 . S
C2524 H2516 0.950 . S
C2524 C2525 1.386 . S
C2524 C2526 1.391 . S
C2525 C2524 1.386 . S
C2525 C2529 1.393 . S
C2526 H2518 0.950 . S
C2526 C2524 1.391 . S
C2526 C2527 1.400 . S
C2527 C2526 1.400 . S
C2527 C2528 1.398 . S
C2527 C2533 1.491 . S
C2528 H2519 0.950 . S
C2528 C2527 1.398 . S
C2528 C2529 1.391 . S
C2529 H2517 0.950 . S
C2529 C2525 1.393 . S
C2529 C2528 1.391 . S
C2530 H2520 0.950 . S
C2530 C2531 1.386 . S
C2530 C2532 1.391 . S
C2531 C2530 1.386 . S
C2531 C2535 1.393 . S
C2532 H2521 0.950 . S
C2532 C2530 1.391 . S
C2532 C2533 1.400 . S
C2533 C2527 1.491 . S
C2533 C2532 1.400 . S
C2533 C2534 1.398 . S
C2534 H2522 0.950 . S
C2534 C2533 1.398 . S
C2534 C2535 1.391 . S
C2535 H2523 0.950 . S
C2535 C2531 1.393 . S
C2535 C2534 1.391 . S
H2536 C2544 0.950 . S
H2537 C2549 0.950 . S
H2538 C2546 0.950 . S
H2539 C2548 0.950 1_545 S
H2540 C2550 0.950 . S
H2541 C2552 0.950 . S
H2542 C2554 0.950 . S
H2543 C2555 0.950 . S
C2544 H2536 0.950 . S
C2544 C2545 1.428 . S
C2544 C2546 1.391 . S
C2545 C2544 1.428 . S
C2545 C2549 1.386 1_565 S
C2546 H2538 0.950 . S
C2546 C2544 1.391 . S
C2546 C2547 1.400 . S
C2547 C2546 1.400 . S
C2547 C2548 1.398 . S
C2547 C2553 1.491 . S
C2548 H2539 0.950 1_565 S
C2548 C2547 1.398 . S
C2548 C2549 1.391 1_565 S
C2549 H2537 0.950 . S
C2549 C2545 1.386 1_545 S
C2549 C2548 1.391 1_545 S
C2550 H2540 0.950 . S
C2550 C2551 1.386 . S
C2550 C2552 1.391 . S
C2551 C2550 1.386 . S
C2551 C2555 1.393 . S
C2552 H2541 0.950 . S
C2552 C2550 1.391 . S
C2552 C2553 1.400 . S
C2553 C2547 1.491 . S
C2553 C2552 1.400 . S
C2553 C2554 1.398 . S
C2554 H2542 0.950 . S
C2554 C2553 1.398 . S
C2554 C2555 1.391 . S
C2555 H2543 0.950 . S
C2555 C2551 1.393 . S
C2555 C2554 1.391 . S
H2556 C2564 0.950 . S
H2557 C2569 0.950 . S
H2558 C2566 0.950 . S
H2559 C2568 0.950 . S
H2560 C2570 0.950 . S
H2561 C2572 0.950 . S
H2562 C2574 0.950 . S
H2563 C2575 0.950 1_545 S
C2564 H2556 0.950 . S
C2564 C2565 1.386 . S
C2564 C2566 1.391 . S
C2565 C2564 1.386 . S
C2565 C2569 1.393 . S
C2566 H2558 0.950 . S
C2566 C2564 1.391 . S
C2566 C2567 1.400 . S
C2567 C2566 1.400 . S
C2567 C2568 1.398 . S
C2567 C2573 1.491 . S
C2568 H2559 0.950 . S
C2568 C2567 1.398 . S
C2568 C2569 1.391 . S
C2569 H2557 0.950 . S
C2569 C2565 1.393 . S
C2569 C2568 1.391 . S
C2570 H2560 0.950 . S
C2570 C2571 1.386 . S
C2570 C2572 1.391 . S
C2571 C2570 1.386 . S
C2571 C2575 1.393 . S
C2572 H2561 0.950 . S
C2572 C2570 1.391 . S
C2572 C2573 1.400 . S
C2573 C2567 1.491 . S
C2573 C2572 1.400 . S
C2573 C2574 1.398 . S
C2574 H2562 0.950 . S
C2574 C2573 1.398 . S
C2574 C2575 1.391 . S
C2575 H2563 0.950 1_565 S
C2575 C2571 1.393 . S
C2575 C2574 1.391 . S
H2576 C2584 0.950 . S
H2577 C2589 0.950 . S
H2578 C2586 0.950 . S
H2579 C2588 0.950 . S
H2580 C2590 0.950 . S
H2581 C2592 0.950 . S
H2582 C2594 0.950 . S
H2583 C2595 0.950 . S
C2584 H2576 0.950 . S
C2584 C2585 1.386 . S
C2584 C2586 1.391 . S
C2585 C2584 1.386 . S
C2585 C2589 1.393 . S
C2586 H2578 0.950 . S
C2586 C2584 1.391 . S
C2586 C2587 1.400 . S
C2587 C2586 1.400 . S
C2587 C2588 1.398 . S
C2587 C2593 1.491 . S
C2588 H2579 0.950 . S
C2588 C2587 1.398 . S
C2588 C2589 1.391 . S
C2589 H2577 0.950 . S
C2589 C2585 1.393 . S
C2589 C2588 1.391 . S
C2590 H2580 0.950 . S
C2590 C2591 1.386 . S
C2590 C2592 1.391 . S
C2591 C2590 1.386 . S
C2591 C2595 1.393 . S
C2592 H2581 0.950 . S
C2592 C2590 1.391 . S
C2592 C2593 1.400 . S
C2593 C2587 1.491 . S
C2593 C2592 1.400 . S
C2593 C2594 1.398 . S
C2594 H2582 0.950 . S
C2594 C2593 1.398 . S
C2594 C2595 1.391 . S
C2595 H2583 0.950 . S
C2595 C2591 1.393 . S
C2595 C2594 1.391 . S
H2596 C2604 0.950 . S
H2597 C2609 0.950 . S
H2598 C2606 0.950 . S
H2599 C2608 0.950 . S
H2600 C2610 0.950 . S
H2601 C2612 0.950 . S
H2602 C2614 0.950 . S
H2603 C2615 0.950 . S
C2604 H2596 0.950 . S
C2604 C2605 1.386 . S
C2604 C2606 1.391 . S
C2605 C2604 1.386 . S
C2605 C2609 1.393 . S
C2606 H2598 0.950 . S
C2606 C2604 1.391 . S
C2606 C2607 1.400 . S
C2607 C2606 1.400 . S
C2607 C2608 1.398 . S
C2607 C2613 1.491 . S
C2608 H2599 0.950 . S
C2608 C2607 1.398 . S
C2608 C2609 1.391 . S
C2609 H2597 0.950 . S
C2609 C2605 1.393 . S
C2609 C2608 1.391 . S
C2610 H2600 0.950 . S
C2610 C2611 1.386 . S
C2610 C2612 1.391 . S
C2611 C2610 1.386 . S
C2611 C2615 1.393 . S
C2612 H2601 0.950 . S
C2612 C2610 1.391 . S
C2612 C2613 1.400 . S
C2613 C2607 1.491 . S
C2613 C2612 1.400 . S
C2613 C2614 1.398 . S
C2614 H2602 0.950 . S
C2614 C2613 1.398 . S
C2614 C2615 1.391 . S
C2615 H2603 0.950 . S
C2615 C2611 1.393 . S
C2615 C2614 1.391 . S
H2616 C2624 0.950 . S
H2617 C2629 0.950 . S
H2618 C2626 0.950 . S
H2619 C2628 0.950 . S
H2620 C2630 0.950 . S
H2621 C2632 0.950 . S
H2622 C2634 0.950 . S
H2623 C2635 0.950 . S
C2624 H2616 0.950 . S
C2624 C2625 1.386 . S
C2624 C2626 1.391 . S
C2625 C2624 1.386 . S
C2625 C2629 1.393 . S
C2626 H2618 0.950 . S
C2626 C2624 1.391 . S
C2626 C2627 1.400 . S
C2627 C2626 1.400 . S
C2627 C2628 1.398 . S
C2627 C2633 1.491 . S
C2628 H2619 0.950 . S
C2628 C2627 1.398 . S
C2628 C2629 1.391 . S
C2629 H2617 0.950 . S
C2629 C2625 1.393 . S
C2629 C2628 1.391 . S
C2630 H2620 0.950 . S
C2630 C2631 1.386 . S
C2630 C2632 1.391 . S
C2631 C2630 1.386 . S
C2631 C2635 1.393 . S
C2632 H2621 0.950 . S
C2632 C2630 1.391 . S
C2632 C2633 1.400 . S
C2633 C2627 1.491 . S
C2633 C2632 1.400 . S
C2633 C2634 1.398 . S
C2634 H2622 0.950 . S
C2634 C2633 1.398 . S
C2634 C2635 1.391 . S
C2635 H2623 0.950 . S
C2635 C2631 1.393 . S
C2635 C2634 1.391 . S
H2636 C2644 0.950 . S
H2637 C2649 0.950 . S
H2638 C2646 0.950 . S
H2639 C2648 0.950 . S
H2640 C2650 0.950 . S
H2641 C2652 0.950 . S
H2642 C2654 0.950 . S
H2643 C2655 0.950 . S
C2644 H2636 0.950 . S
C2644 C2645 1.386 . S
C2644 C2646 1.391 . S
C2645 C2644 1.386 . S
C2645 C2649 1.393 . S
C2646 H2638 0.950 . S
C2646 C2644 1.391 . S
C2646 C2647 1.400 . S
C2647 C2646 1.400 . S
C2647 C2648 1.398 . S
C2647 C2653 1.491 . S
C2648 H2639 0.950 . S
C2648 C2647 1.398 . S
C2648 C2649 1.391 . S
C2649 H2637 0.950 . S
C2649 C2645 1.393 . S
C2649 C2648 1.391 . S
C2650 H2640 0.950 . S
C2650 C2651 1.386 . S
C2650 C2652 1.391 . S
C2651 C2650 1.386 . S
C2651 C2655 1.393 . S
C2652 H2641 0.950 . S
C2652 C2650 1.391 . S
C2652 C2653 1.400 . S
C2653 C2647 1.491 . S
C2653 C2652 1.400 . S
C2653 C2654 1.398 . S
C2654 H2642 0.950 . S
C2654 C2653 1.398 . S
C2654 C2655 1.391 . S
C2655 H2643 0.950 . S
C2655 C2651 1.393 . S
C2655 C2654 1.391 . S
H2656 C2664 0.950 . S
H2657 C2669 0.950 . S
H2658 C2666 0.950 1_554 S
H2659 C2668 0.950 . S
H2660 C2670 0.950 . S
H2661 C2672 0.950 . S
H2662 C2674 0.950 . S
H2663 C2675 0.950 . S
C2664 H2656 0.950 . S
C2664 C2665 1.386 . S
C2664 C2666 1.391 . S
C2665 C2664 1.386 . S
C2665 C2669 1.393 . S
C2666 H2658 0.950 1_556 S
C2666 C2664 1.391 . S
C2666 C2667 1.400 . S
C2667 C2666 1.400 . S
C2667 C2668 1.398 . S
C2667 C2673 1.491 . S
C2668 H2659 0.950 . S
C2668 C2667 1.398 . S
C2668 C2669 1.391 . S
C2669 H2657 0.950 . S
C2669 C2665 1.393 . S
C2669 C2668 1.391 . S
C2670 H2660 0.950 . S
C2670 C2671 1.386 1_556 S
C2670 C2672 1.391 . S
C2671 C2670 1.386 1_554 S
C2671 C2675 1.393 . S
C2672 H2661 0.950 . S
C2672 C2670 1.391 . S
C2672 C2673 1.400 . S
C2673 C2667 1.491 . S
C2673 C2672 1.400 . S
C2673 C2674 1.398 1_556 S
C2674 H2662 0.950 . S
C2674 C2673 1.398 1_554 S
C2674 C2675 1.391 . S
C2675 H2663 0.950 . S
C2675 C2671 1.393 . S
C2675 C2674 1.391 . S
H2676 C2684 0.950 . S
H2677 C2689 0.950 . S
H2678 C2686 0.950 . S
H2679 C2688 0.950 . S
H2680 C2690 0.950 . S
H2681 C2692 0.950 . S
H2682 C2694 0.950 . S
H2683 C2695 0.950 . S
C2684 H2676 0.950 . S
C2684 C2685 1.386 . S
C2684 C2686 1.391 . S
C2685 C2684 1.386 . S
C2685 C2689 1.393 . S
C2686 H2678 0.950 . S
C2686 C2684 1.391 . S
C2686 C2687 1.400 1_455 S
C2687 C2686 1.400 1_655 S
C2687 C2688 1.398 . S
C2687 C2693 1.491 . S
C2688 H2679 0.950 . S
C2688 C2687 1.398 . S
C2688 C2689 1.391 1_655 S
C2689 H2677 0.950 . S
C2689 C2685 1.393 . S
C2689 C2688 1.391 1_455 S
C2690 H2680 0.950 . S
C2690 C2691 1.386 . S
C2690 C2692 1.391 . S
C2691 C2690 1.386 . S
C2691 C2695 1.393 . S
C2692 H2681 0.950 . S
C2692 C2690 1.391 . S
C2692 C2693 1.400 . S
C2693 C2687 1.491 . S
C2693 C2692 1.400 . S
C2693 C2694 1.398 . S
C2694 H2682 0.950 . S
C2694 C2693 1.398 . S
C2694 C2695 1.391 . S
C2695 H2683 0.950 . S
C2695 C2691 1.393 . S
C2695 C2694 1.391 . S
H2696 C2704 0.950 . S
H2697 C2709 0.950 . S
H2698 C2706 0.950 . S
H2699 C2708 0.950 . S
H2700 C2710 0.950 . S
H2701 C2712 0.950 . S
H2702 C2714 0.950 . S
H2703 C2715 0.950 . S
C2704 H2696 0.950 . S
C2704 C2705 1.386 . S
C2704 C2706 1.391 . S
C2705 C2704 1.386 . S
C2705 C2709 1.393 . S
C2706 H2698 0.950 . S
C2706 C2704 1.391 . S
C2706 C2707 1.400 . S
C2707 C2706 1.400 . S
C2707 C2708 1.398 . S
C2707 C2713 1.491 . S
C2708 H2699 0.950 . S
C2708 C2707 1.398 . S
C2708 C2709 1.391 . S
C2709 H2697 0.950 . S
C2709 C2705 1.393 . S
C2709 C2708 1.391 . S
C2710 H2700 0.950 . S
C2710 C2711 1.386 . S
C2710 C2712 1.391 . S
C2711 C2710 1.386 . S
C2711 C2715 1.393 . S
C2712 H2701 0.950 . S
C2712 C2710 1.391 . S
C2712 C2713 1.400 . S
C2713 C2707 1.491 . S
C2713 C2712 1.400 . S
C2713 C2714 1.398 . S
C2714 H2702 0.950 . S
C2714 C2713 1.398 . S
C2714 C2715 1.391 . S
C2715 H2703 0.950 . S
C2715 C2711 1.393 . S
C2715 C2714 1.391 . S
H2716 C2724 0.950 . S
H2717 C2729 0.950 . S
H2718 C2726 0.950 . S
H2719 C2728 0.950 . S
H2720 C2730 0.950 . S
H2721 C2732 0.950 . S
H2722 C2734 0.950 . S
H2723 C2735 0.950 . S
C2724 H2716 0.950 . S
C2724 C2725 1.386 . S
C2724 C2726 1.391 . S
C2725 C2724 1.386 . S
C2725 C2729 1.393 . S
C2726 H2718 0.950 . S
C2726 C2724 1.391 . S
C2726 C2727 1.400 . S
C2727 C2726 1.400 . S
C2727 C2728 1.398 . S
C2727 C2733 1.491 1_455 S
C2728 H2719 0.950 . S
C2728 C2727 1.398 . S
C2728 C2729 1.391 . S
C2729 H2717 0.950 . S
C2729 C2725 1.393 . S
C2729 C2728 1.391 . S
C2730 H2720 0.950 . S
C2730 C2731 1.386 . S
C2730 C2732 1.391 . S
C2731 C2730 1.386 . S
C2731 C2735 1.393 . S
C2732 H2721 0.950 . S
C2732 C2730 1.391 . S
C2732 C2733 1.400 . S
C2733 C2727 1.491 1_655 S
C2733 C2732 1.400 . S
C2733 C2734 1.398 . S
C2734 H2722 0.950 . S
C2734 C2733 1.398 . S
C2734 C2735 1.391 . S
C2735 H2723 0.950 . S
C2735 C2731 1.393 . S
C2735 C2734 1.391 . S
H2736 C2744 0.950 . S
H2737 C2749 0.950 . S
H2738 C2746 0.950 . S
H2739 C2748 0.950 . S
H2740 C2750 0.950 . S
H2741 C2752 0.950 . S
H2742 C2754 0.950 . S
H2743 C2755 0.950 . S
C2744 H2736 0.950 . S
C2744 C2745 1.386 . S
C2744 C2746 1.391 1_655 S
C2745 C2744 1.386 . S
C2745 C2749 1.393 1_655 S
C2746 H2738 0.950 . S
C2746 C2744 1.391 1_455 S
C2746 C2747 1.400 . S
C2747 C2746 1.400 . S
C2747 C2748 1.398 . S
C2747 C2753 1.491 . S
C2748 H2739 0.950 . S
C2748 C2747 1.398 . S
C2748 C2749 1.391 . S
C2749 H2737 0.950 . S
C2749 C2745 1.393 1_455 S
C2749 C2748 1.391 . S
C2750 H2740 0.950 . S
C2750 C2751 1.386 . S
C2750 C2752 1.391 . S
C2751 C2750 1.386 . S
C2751 C2755 1.393 . S
C2752 H2741 0.950 . S
C2752 C2750 1.391 . S
C2752 C2753 1.400 . S
C2753 C2747 1.491 . S
C2753 C2752 1.400 . S
C2753 C2754 1.398 . S
C2754 H2742 0.950 . S
C2754 C2753 1.398 . S
C2754 C2755 1.391 . S
C2755 H2743 0.950 . S
C2755 C2751 1.393 . S
C2755 C2754 1.391 . S
H2756 C2764 0.950 . S
H2757 C2769 0.950 . S
H2758 C2766 0.950 . S
H2759 C2768 0.950 . S
H2760 C2770 0.950 . S
H2761 C2772 0.950 . S
H2762 C2774 0.950 . S
H2763 C2775 0.950 . S
C2764 H2756 0.950 . S
C2764 C2765 1.386 . S
C2764 C2766 1.391 . S
C2765 C2764 1.386 . S
C2765 C2769 1.393 . S
C2766 H2758 0.950 . S
C2766 C2764 1.391 . S
C2766 C2767 1.400 . S
C2767 C2766 1.400 . S
C2767 C2768 1.398 . S
C2767 C2773 1.491 . S
C2768 H2759 0.950 . S
C2768 C2767 1.398 . S
C2768 C2769 1.391 . S
C2769 H2757 0.950 . S
C2769 C2765 1.393 . S
C2769 C2768 1.391 . S
C2770 H2760 0.950 . S
C2770 C2771 1.386 . S
C2770 C2772 1.391 . S
C2771 C2770 1.386 . S
C2771 C2775 1.393 . S
C2772 H2761 0.950 . S
C2772 C2770 1.391 . S
C2772 C2773 1.400 . S
C2773 C2767 1.491 . S
C2773 C2772 1.400 . S
C2773 C2774 1.398 . S
C2774 H2762 0.950 . S
C2774 C2773 1.398 . S
C2774 C2775 1.391 . S
C2775 H2763 0.950 . S
C2775 C2771 1.393 . S
C2775 C2774 1.391 . S
H2776 C2784 0.950 . S
H2777 C2789 0.950 . S
H2778 C2786 0.950 . S
H2779 C2788 0.950 . S
H2780 C2790 0.950 . S
H2781 C2792 0.950 . S
H2782 C2794 0.950 . S
H2783 C2795 0.950 . S
C2784 H2776 0.950 . S
C2784 C2785 1.386 . S
C2784 C2786 1.391 . S
C2785 C2784 1.386 . S
C2785 C2789 1.393 . S
C2786 H2778 0.950 . S
C2786 C2784 1.391 . S
C2786 C2787 1.400 . S
C2787 C2786 1.400 . S
C2787 C2788 1.398 . S
C2787 C2793 1.491 . S
C2788 H2779 0.950 . S
C2788 C2787 1.398 . S
C2788 C2789 1.391 . S
C2789 H2777 0.950 . S
C2789 C2785 1.393 . S
C2789 C2788 1.391 . S
C2790 H2780 0.950 . S
C2790 C2791 1.386 . S
C2790 C2792 1.391 . S
C2791 C2790 1.386 . S
C2791 C2795 1.393 . S
C2792 H2781 0.950 . S
C2792 C2790 1.391 . S
C2792 C2793 1.400 . S
C2793 C2787 1.491 . S
C2793 C2792 1.400 . S
C2793 C2794 1.398 . S
C2794 H2782 0.950 . S
C2794 C2793 1.398 . S
C2794 C2795 1.391 . S
C2795 H2783 0.950 . S
C2795 C2791 1.393 . S
C2795 C2794 1.391 . S
H2796 C2804 0.950 . S
H2797 C2809 0.950 . S
H2798 C2806 0.950 . S
H2799 C2808 0.950 . S
H2800 C2810 0.950 . S
H2801 C2812 0.950 . S
H2802 C2814 0.950 . S
H2803 C2815 0.950 . S
C2804 H2796 0.950 . S
C2804 C2805 1.386 . S
C2804 C2806 1.391 . S
C2805 C2804 1.386 . S
C2805 C2809 1.393 . S
C2806 H2798 0.950 . S
C2806 C2804 1.391 . S
C2806 C2807 1.400 . S
C2807 C2806 1.400 . S
C2807 C2808 1.398 . S
C2807 C2813 1.491 . S
C2808 H2799 0.950 . S
C2808 C2807 1.398 . S
C2808 C2809 1.391 . S
C2809 H2797 0.950 . S
C2809 C2805 1.393 . S
C2809 C2808 1.391 . S
C2810 H2800 0.950 . S
C2810 C2811 1.386 . S
C2810 C2812 1.391 . S
C2811 C2810 1.386 . S
C2811 C2815 1.393 . S
C2812 H2801 0.950 . S
C2812 C2810 1.391 . S
C2812 C2813 1.400 . S
C2813 C2807 1.491 . S
C2813 C2812 1.400 . S
C2813 C2814 1.398 . S
C2814 H2802 0.950 . S
C2814 C2813 1.398 . S
C2814 C2815 1.391 . S
C2815 H2803 0.950 . S
C2815 C2811 1.393 . S
C2815 C2814 1.391 . S
H2816 C2824 0.950 . S
H2817 C2829 0.950 . S
H2818 C2826 0.950 . S
H2819 C2828 0.950 . S
H2820 C2830 0.950 . S
H2821 C2832 0.950 . S
H2822 C2834 0.950 . S
H2823 C2835 0.950 . S
C2824 H2816 0.950 . S
C2824 C2825 1.386 . S
C2824 C2826 1.391 . S
C2825 C2824 1.386 . S
C2825 C2829 1.393 . S
C2826 H2818 0.950 . S
C2826 C2824 1.391 . S
C2826 C2827 1.400 . S
C2827 C2826 1.400 . S
C2827 C2828 1.398 . S
C2827 C2833 1.491 . S
C2828 H2819 0.950 . S
C2828 C2827 1.398 . S
C2828 C2829 1.391 . S
C2829 H2817 0.950 . S
C2829 C2825 1.393 . S
C2829 C2828 1.391 . S
C2830 H2820 0.950 . S
C2830 C2831 1.386 . S
C2830 C2832 1.391 . S
C2831 C2830 1.386 . S
C2831 C2835 1.393 . S
C2832 H2821 0.950 . S
C2832 C2830 1.391 . S
C2832 C2833 1.400 . S
C2833 C2827 1.491 . S
C2833 C2832 1.400 . S
C2833 C2834 1.398 . S
C2834 H2822 0.950 . S
C2834 C2833 1.398 . S
C2834 C2835 1.391 . S
C2835 H2823 0.950 . S
C2835 C2831 1.393 . S
C2835 C2834 1.391 . S
H2836 C2844 0.950 . S
H2837 C2849 0.950 . S
H2838 C2846 0.950 . S
H2839 C2848 0.950 . S
H2840 C2850 0.950 . S
H2841 C2852 0.950 . S
H2842 C2854 0.950 . S
H2843 C2855 0.950 . S
C2844 H2836 0.950 . S
C2844 C2845 1.386 . S
C2844 C2846 1.391 . S
C2845 C2844 1.386 . S
C2845 C2849 1.393 . S
C2846 H2838 0.950 . S
C2846 C2844 1.391 . S
C2846 C2847 1.400 . S
C2847 C2846 1.400 . S
C2847 C2848 1.398 . S
C2847 C2853 1.491 . S
C2848 H2839 0.950 . S
C2848 C2847 1.398 . S
C2848 C2849 1.391 . S
C2849 H2837 0.950 . S
C2849 C2845 1.393 . S
C2849 C2848 1.391 . S
C2850 H2840 0.950 . S
C2850 C2851 1.386 . S
C2850 C2852 1.391 . S
C2851 C2850 1.386 . S
C2851 C2855 1.393 . S
C2852 H2841 0.950 . S
C2852 C2850 1.391 . S
C2852 C2853 1.400 . S
C2853 C2847 1.491 . S
C2853 C2852 1.400 . S
C2853 C2854 1.398 . S
C2854 H2842 0.950 . S
C2854 C2853 1.398 . S
C2854 C2855 1.391 . S
C2855 H2843 0.950 . S
C2855 C2851 1.393 . S
C2855 C2854 1.391 . S
H2856 C2864 0.950 . S
H2857 C2869 0.950 . S
H2858 C2866 0.950 . S
H2859 C2868 0.950 . S
H2860 C2870 0.950 . S
H2861 C2872 0.950 . S
H2862 C2874 0.950 . S
H2863 C2875 0.950 . S
C2864 H2856 0.950 . S
C2864 C2865 1.386 . S
C2864 C2866 1.391 . S
C2865 C2864 1.386 . S
C2865 C2869 1.393 . S
C2866 H2858 0.950 . S
C2866 C2864 1.391 . S
C2866 C2867 1.400 . S
C2867 C2866 1.400 . S
C2867 C2868 1.398 . S
C2867 C2873 1.491 . S
C2868 H2859 0.950 . S
C2868 C2867 1.398 . S
C2868 C2869 1.391 . S
C2869 H2857 0.950 . S
C2869 C2865 1.393 . S
C2869 C2868 1.391 . S
C2870 H2860 0.950 . S
C2870 C2871 1.386 . S
C2870 C2872 1.391 . S
C2871 C2870 1.386 . S
C2871 C2875 1.393 . S
C2872 H2861 0.950 . S
C2872 C2870 1.391 . S
C2872 C2873 1.400 . S
C2873 C2867 1.491 . S
C2873 C2872 1.400 . S
C2873 C2874 1.398 . S
C2874 H2862 0.950 . S
C2874 C2873 1.398 . S
C2874 C2875 1.391 . S
C2875 H2863 0.950 . S
C2875 C2871 1.393 . S
C2875 C2874 1.391 . S
H2876 C2884 0.950 . S
H2877 C2889 0.950 . S
H2878 C2886 0.950 . S
H2879 C2888 0.950 . S
H2880 C2890 0.950 . S
H2881 C2892 0.950 . S
H2882 C2894 0.950 . S
H2883 C2895 0.950 . S
C2884 H2876 0.950 . S
C2884 C2885 1.386 . S
C2884 C2886 1.391 . S
C2885 C2884 1.386 . S
C2885 C2889 1.393 . S
C2886 H2878 0.950 . S
C2886 C2884 1.391 . S
C2886 C2887 1.400 . S
C2887 C2886 1.400 . S
C2887 C2888 1.398 . S
C2887 C2893 1.491 . S
C2888 H2879 0.950 . S
C2888 C2887 1.398 . S
C2888 C2889 1.391 . S
C2889 H2877 0.950 . S
C2889 C2885 1.393 . S
C2889 C2888 1.391 . S
C2890 H2880 0.950 . S
C2890 C2891 1.386 . S
C2890 C2892 1.391 . S
C2891 C2890 1.386 . S
C2891 C2895 1.393 . S
C2892 H2881 0.950 . S
C2892 C2890 1.391 . S
C2892 C2893 1.400 . S
C2893 C2887 1.491 . S
C2893 C2892 1.400 . S
C2893 C2894 1.398 . S
C2894 H2882 0.950 . S
C2894 C2893 1.398 . S
C2894 C2895 1.391 . S
C2895 H2883 0.950 . S
C2895 C2891 1.393 . S
C2895 C2894 1.391 . S
H2896 C2904 0.950 . S
H2897 C2909 0.950 . S
H2898 C2906 0.950 . S
H2899 C2908 0.950 . S
H2900 C2910 0.950 . S
H2901 C2912 0.950 . S
H2902 C2914 0.950 . S
H2903 C2915 0.950 . S
C2904 H2896 0.950 . S
C2904 C2905 1.386 . S
C2904 C2906 1.391 . S
C2905 C2904 1.386 . S
C2905 C2909 1.393 . S
C2906 H2898 0.950 . S
C2906 C2904 1.391 . S
C2906 C2907 1.400 . S
C2907 C2906 1.400 . S
C2907 C2908 1.398 . S
C2907 C2913 1.491 . S
C2908 H2899 0.950 . S
C2908 C2907 1.398 . S
C2908 C2909 1.391 . S
C2909 H2897 0.950 . S
C2909 C2905 1.393 . S
C2909 C2908 1.391 . S
C2910 H2900 0.950 . S
C2910 C2911 1.386 . S
C2910 C2912 1.391 . S
C2911 C2910 1.386 . S
C2911 C2915 1.393 . S
C2912 H2901 0.950 . S
C2912 C2910 1.391 . S
C2912 C2913 1.400 . S
C2913 C2907 1.491 . S
C2913 C2912 1.400 . S
C2913 C2914 1.398 . S
C2914 H2902 0.950 . S
C2914 C2913 1.398 . S
C2914 C2915 1.391 . S
C2915 H2903 0.950 . S
C2915 C2911 1.393 . S
C2915 C2914 1.391 . S
H2916 C2924 0.950 . S
H2917 C2929 0.950 . S
H2918 C2926 0.950 . S
H2919 C2928 0.950 . S
H2920 C2930 0.950 . S
H2921 C2932 0.950 . S
H2922 C2934 0.950 . S
H2923 C2935 0.950 . S
C2924 H2916 0.950 . S
C2924 C2925 1.386 . S
C2924 C2926 1.391 . S
C2925 C2924 1.386 . S
C2925 C2929 1.393 . S
C2926 H2918 0.950 . S
C2926 C2924 1.391 . S
C2926 C2927 1.400 . S
C2927 C2926 1.400 . S
C2927 C2928 1.398 . S
C2927 C2933 1.491 . S
C2928 H2919 0.950 . S
C2928 C2927 1.398 . S
C2928 C2929 1.391 . S
C2929 H2917 0.950 . S
C2929 C2925 1.393 . S
C2929 C2928 1.391 . S
C2930 H2920 0.950 . S
C2930 C2931 1.386 . S
C2930 C2932 1.391 . S
C2931 C2930 1.386 . S
C2931 C2935 1.393 . S
C2932 H2921 0.950 . S
C2932 C2930 1.391 . S
C2932 C2933 1.400 . S
C2933 C2927 1.491 . S
C2933 C2932 1.400 . S
C2933 C2934 1.398 . S
C2934 H2922 0.950 . S
C2934 C2933 1.398 . S
C2934 C2935 1.391 . S
C2935 H2923 0.950 . S
C2935 C2931 1.393 . S
C2935 C2934 1.391 . S
H2936 C2944 0.950 . S
H2937 C2949 0.950 . S
H2938 C2946 0.950 . S
H2939 C2948 0.950 . S
H2940 C2950 0.950 . S
H2941 C2952 0.950 . S
H2942 C2954 0.950 . S
H2943 C2955 0.950 . S
C2944 H2936 0.950 . S
C2944 C2945 1.386 . S
C2944 C2946 1.391 . S
C2945 C2944 1.386 . S
C2945 C2949 1.393 . S
C2946 H2938 0.950 . S
C2946 C2944 1.391 . S
C2946 C2947 1.400 . S
C2947 C2946 1.400 . S
C2947 C2948 1.398 . S
C2947 C2953 1.491 . S
C2948 H2939 0.950 . S
C2948 C2947 1.398 . S
C2948 C2949 1.391 . S
C2949 H2937 0.950 . S
C2949 C2945 1.393 . S
C2949 C2948 1.391 . S
C2950 H2940 0.950 . S
C2950 C2951 1.386 . S
C2950 C2952 1.391 . S
C2951 C2950 1.386 . S
C2951 C2955 1.393 . S
C2952 H2941 0.950 . S
C2952 C2950 1.391 . S
C2952 C2953 1.400 . S
C2953 C2947 1.491 . S
C2953 C2952 1.400 . S
C2953 C2954 1.398 . S
C2954 H2942 0.950 . S
C2954 C2953 1.398 . S
C2954 C2955 1.391 . S
C2955 H2943 0.950 . S
C2955 C2951 1.393 . S
C2955 C2954 1.391 . S
H2956 C2964 0.950 . S
H2957 C2969 0.950 . S
H2958 C2966 0.950 . S
H2959 C2968 0.950 . S
H2960 C2970 0.950 . S
H2961 C2972 0.950 . S
H2962 C2974 0.950 . S
H2963 C2975 0.950 . S
C2964 H2956 0.950 . S
C2964 C2965 1.386 . S
C2964 C2966 1.391 . S
C2965 C2964 1.386 . S
C2965 C2969 1.393 . S
C2966 H2958 0.950 . S
C2966 C2964 1.391 . S
C2966 C2967 1.400 . S
C2967 C2966 1.400 . S
C2967 C2968 1.398 . S
C2967 C2973 1.491 . S
C2968 H2959 0.950 . S
C2968 C2967 1.398 . S
C2968 C2969 1.391 . S
C2969 H2957 0.950 . S
C2969 C2965 1.393 . S
C2969 C2968 1.391 . S
C2970 H2960 0.950 . S
C2970 C2971 1.386 . S
C2970 C2972 1.391 . S
C2971 C2970 1.386 . S
C2971 C2975 1.393 . S
C2972 H2961 0.950 . S
C2972 C2970 1.391 . S
C2972 C2973 1.400 . S
C2973 C2967 1.491 . S
C2973 C2972 1.400 . S
C2973 C2974 1.398 . S
C2974 H2962 0.950 . S
C2974 C2973 1.398 . S
C2974 C2975 1.391 . S
C2975 H2963 0.950 . S
C2975 C2971 1.393 . S
C2975 C2974 1.391 . S
H2976 C2984 0.950 . S
H2977 C2989 0.950 . S
H2978 C2986 0.950 . S
H2979 C2988 0.950 . S
H2980 C2990 0.950 . S
H2981 C2992 0.950 . S
H2982 C2994 0.950 . S
H2983 C2995 0.950 . S
C2984 H2976 0.950 . S
C2984 C2985 1.386 . S
C2984 C2986 1.391 . S
C2985 C2984 1.386 . S
C2985 C2989 1.393 . S
C2986 H2978 0.950 . S
C2986 C2984 1.391 . S
C2986 C2987 1.400 . S
C2987 C2986 1.400 . S
C2987 C2988 1.398 . S
C2987 C2993 1.491 . S
C2988 H2979 0.950 . S
C2988 C2987 1.398 . S
C2988 C2989 1.391 . S
C2989 H2977 0.950 . S
C2989 C2985 1.393 . S
C2989 C2988 1.391 . S
C2990 H2980 0.950 . S
C2990 C2991 1.386 . S
C2990 C2992 1.391 . S
C2991 C2990 1.386 . S
C2991 C2995 1.393 . S
C2992 H2981 0.950 . S
C2992 C2990 1.391 . S
C2992 C2993 1.400 . S
C2993 C2987 1.491 . S
C2993 C2992 1.400 . S
C2993 C2994 1.398 . S
C2994 H2982 0.950 . S
C2994 C2993 1.398 . S
C2994 C2995 1.391 . S
C2995 H2983 0.950 . S
C2995 C2991 1.393 . S
C2995 C2994 1.391 . S
H2996 C3004 0.950 1_545 S
H2997 C3009 0.950 . S
H2998 C3006 0.950 . S
H2999 C3008 0.950 . S
H3000 C3010 0.950 . S
H3001 C3012 0.950 . S
H3002 C3014 0.950 . S
H3003 C3015 0.950 . S
C3004 H2996 0.950 1_565 S
C3004 C3005 1.386 . S
C3004 C3006 1.391 1_565 S
C3005 C3004 1.386 . S
C3005 C3009 1.393 . S
C3006 H2998 0.950 . S
C3006 C3004 1.391 1_545 S
C3006 C3007 1.400 1_545 S
C3007 C3006 1.400 1_565 S
C3007 C3008 1.398 . S
C3007 C3013 1.491 . S
C3008 H2999 0.950 . S
C3008 C3007 1.398 . S
C3008 C3009 1.391 . S
C3009 H2997 0.950 . S
C3009 C3005 1.393 . S
C3009 C3008 1.391 . S
C3010 H3000 0.950 . S
C3010 C3011 1.386 1_565 S
C3010 C3012 1.391 . S
C3011 C3010 1.386 1_545 S
C3011 C3015 1.393 . S
C3012 H3001 0.950 . S
C3012 C3010 1.391 . S
C3012 C3013 1.400 . S
C3013 C3007 1.491 . S
C3013 C3012 1.400 . S
C3013 C3014 1.398 1_565 S
C3014 H3002 0.950 . S
C3014 C3013 1.398 1_545 S
C3014 C3015 1.391 . S
C3015 H3003 0.950 . S
C3015 C3011 1.393 . S
C3015 C3014 1.391 . S
H3016 C3024 0.950 . S
H3017 C3029 0.950 . S
H3018 C3026 0.950 . S
H3019 C3028 0.950 . S
H3020 C3030 0.950 . S
H3021 C3032 0.950 . S
H3022 C3034 0.950 . S
H3023 C3035 0.950 . S
C3024 H3016 0.950 . S
C3024 C3025 1.386 . S
C3024 C3026 1.391 . S
C3025 C3024 1.386 . S
C3025 C3029 1.393 . S
C3026 H3018 0.950 . S
C3026 C3024 1.391 . S
C3026 C3027 1.400 . S
C3027 C3026 1.400 . S
C3027 C3028 1.398 . S
C3027 C3033 1.491 . S
C3028 H3019 0.950 . S
C3028 C3027 1.398 . S
C3028 C3029 1.391 . S
C3029 H3017 0.950 . S
C3029 C3025 1.393 . S
C3029 C3028 1.391 . S
C3030 H3020 0.950 . S
C3030 C3031 1.386 . S
C3030 C3032 1.391 . S
C3031 C3030 1.386 . S
C3031 C3035 1.393 . S
C3032 H3021 0.950 . S
C3032 C3030 1.391 . S
C3032 C3033 1.400 . S
C3033 C3027 1.491 . S
C3033 C3032 1.400 . S
C3033 C3034 1.398 . S
C3034 H3022 0.950 . S
C3034 C3033 1.398 . S
C3034 C3035 1.391 . S
C3035 H3023 0.950 . S
C3035 C3031 1.393 . S
C3035 C3034 1.391 . S
H3036 C3044 0.950 . S
H3037 C3049 0.950 . S
H3038 C3046 0.950 . S
H3039 C3048 0.950 . S
H3040 C3050 0.950 . S
H3041 C3052 0.950 . S
H3042 C3054 0.950 . S
H3043 C3055 0.950 1_556 S
C3044 H3036 0.950 . S
C3044 C3045 1.386 . S
C3044 C3046 1.391 . S
C3045 C3044 1.386 . S
C3045 C3049 1.393 1_556 S
C3046 H3038 0.950 . S
C3046 C3044 1.391 . S
C3046 C3047 1.400 1_556 S
C3047 C3046 1.400 1_554 S
C3047 C3048 1.398 . S
C3047 C3053 1.491 . S
C3048 H3039 0.950 . S
C3048 C3047 1.398 . S
C3048 C3049 1.391 . S
C3049 H3037 0.950 . S
C3049 C3045 1.393 1_554 S
C3049 C3048 1.391 . S
C3050 H3040 0.950 . S
C3050 C3051 1.386 . S
C3050 C3052 1.391 . S
C3051 C3050 1.386 . S
C3051 C3055 1.393 . S
C3052 H3041 0.950 . S
C3052 C3050 1.391 . S
C3052 C3053 1.400 . S
C3053 C3047 1.491 . S
C3053 C3052 1.400 . S
C3053 C3054 1.398 1_554 S
C3054 H3042 0.950 . S
C3054 C3053 1.398 1_556 S
C3054 C3055 1.391 1_556 S
C3055 H3043 0.950 1_554 S
C3055 C3051 1.393 . S
C3055 C3054 1.391 1_554 S
H3056 C3064 0.950 . S
H3057 C3069 0.950 . S
H3058 C3066 0.950 . S
H3059 C3068 0.950 . S
H3060 C3070 0.950 . S
H3061 C3072 0.950 . S
H3062 C3074 0.950 . S
H3063 C3075 0.950 . S
C3064 H3056 0.950 . S
C3064 C3065 1.386 . S
C3064 C3066 1.391 . S
C3065 C3064 1.386 . S
C3065 C3069 1.393 . S
C3066 H3058 0.950 . S
C3066 C3064 1.391 . S
C3066 C3067 1.400 . S
C3067 C3066 1.400 . S
C3067 C3068 1.398 . S
C3067 C3073 1.491 . S
C3068 H3059 0.950 . S
C3068 C3067 1.398 . S
C3068 C3069 1.391 . S
C3069 H3057 0.950 . S
C3069 C3065 1.393 . S
C3069 C3068 1.391 . S
C3070 H3060 0.950 . S
C3070 C3071 1.386 . S
C3070 C3072 1.391 . S
C3071 C3070 1.386 . S
C3071 C3075 1.393 . S
C3072 H3061 0.950 . S
C3072 C3070 1.391 . S
C3072 C3073 1.400 . S
C3073 C3067 1.491 . S
C3073 C3072 1.400 . S
C3073 C3074 1.398 . S
C3074 H3062 0.950 . S
C3074 C3073 1.398 . S
C3074 C3075 1.391 . S
C3075 H3063 0.950 . S
C3075 C3071 1.393 . S
C3075 C3074 1.391 . S
H3076 C3084 0.950 . S
H3077 C3089 0.950 . S
H3078 C3086 0.950 . S
H3079 C3088 0.950 . S
H3080 C3090 0.950 . S
H3081 C3092 0.950 . S
H3082 C3094 0.950 . S
H3083 C3095 0.950 . S
C3084 H3076 0.950 . S
C3084 C3085 1.386 . S
C3084 C3086 1.391 . S
C3085 C3084 1.386 . S
C3085 C3089 1.393 . S
C3086 H3078 0.950 . S
C3086 C3084 1.391 . S
C3086 C3087 1.400 . S
C3087 C3086 1.400 . S
C3087 C3088 1.398 . S
C3087 C3093 1.491 . S
C3088 H3079 0.950 . S
C3088 C3087 1.398 . S
C3088 C3089 1.391 . S
C3089 H3077 0.950 . S
C3089 C3085 1.393 . S
C3089 C3088 1.391 . S
C3090 H3080 0.950 . S
C3090 C3091 1.386 . S
C3090 C3092 1.391 . S
C3091 C3090 1.386 . S
C3091 C3095 1.393 . S
C3092 H3081 0.950 . S
C3092 C3090 1.391 . S
C3092 C3093 1.400 . S
C3093 C3087 1.491 . S
C3093 C3092 1.400 . S
C3093 C3094 1.398 . S
C3094 H3082 0.950 . S
C3094 C3093 1.398 . S
C3094 C3095 1.391 . S
C3095 H3083 0.950 . S
C3095 C3091 1.393 . S
C3095 C3094 1.391 . S
H3096 C3104 0.950 . S
H3097 C3109 0.950 . S
H3098 C3106 0.950 . S
H3099 C3108 0.950 . S
H3100 C3110 0.950 . S
H3101 C3112 0.950 . S
H3102 C3114 0.950 . S
H3103 C3115 0.950 . S
C3104 H3096 0.950 . S
C3104 C3105 1.386 . S
C3104 C3106 1.391 . S
C3105 C3104 1.386 . S
C3105 C3109 1.393 . S
C3106 H3098 0.950 . S
C3106 C3104 1.391 . S
C3106 C3107 1.400 . S
C3107 C3106 1.400 . S
C3107 C3108 1.398 . S
C3107 C3113 1.491 . S
C3108 H3099 0.950 . S
C3108 C3107 1.398 . S
C3108 C3109 1.391 . S
C3109 H3097 0.950 . S
C3109 C3105 1.393 . S
C3109 C3108 1.391 . S
C3110 H3100 0.950 . S
C3110 C3111 1.386 . S
C3110 C3112 1.391 . S
C3111 C3110 1.386 . S
C3111 C3115 1.393 . S
C3112 H3101 0.950 . S
C3112 C3110 1.391 . S
C3112 C3113 1.400 . S
C3113 C3107 1.491 . S
C3113 C3112 1.400 . S
C3113 C3114 1.398 . S
C3114 H3102 0.950 . S
C3114 C3113 1.398 . S
C3114 C3115 1.391 . S
C3115 H3103 0.950 . S
C3115 C3111 1.393 . S
C3115 C3114 1.391 . S
H3116 C3124 0.950 . S
H3117 C3129 0.950 . S
H3118 C3126 0.950 . S
H3119 C3128 0.950 . S
H3120 C3130 0.950 . S
H3121 C3132 0.950 . S
H3122 C3134 0.950 . S
H3123 C3135 0.950 . S
C3124 H3116 0.950 . S
C3124 C3125 1.386 . S
C3124 C3126 1.391 . S
C3125 C3124 1.386 . S
C3125 C3129 1.393 . S
C3126 H3118 0.950 . S
C3126 C3124 1.391 . S
C3126 C3127 1.400 . S
C3127 C3126 1.400 . S
C3127 C3128 1.398 . S
C3127 C3133 1.491 . S
C3128 H3119 0.950 . S
C3128 C3127 1.398 . S
C3128 C3129 1.391 . S
C3129 H3117 0.950 . S
C3129 C3125 1.393 . S
C3129 C3128 1.391 . S
C3130 H3120 0.950 . S
C3130 C3131 1.386 . S
C3130 C3132 1.391 . S
C3131 C3130 1.386 . S
C3131 C3135 1.393 . S
C3132 H3121 0.950 . S
C3132 C3130 1.391 . S
C3132 C3133 1.400 . S
C3133 C3127 1.491 . S
C3133 C3132 1.400 . S
C3133 C3134 1.398 . S
C3134 H3122 0.950 . S
C3134 C3133 1.398 . S
C3134 C3135 1.391 . S
C3135 H3123 0.950 . S
C3135 C3131 1.393 . S
C3135 C3134 1.391 . S
H3136 C3144 0.950 . S
H3137 C3149 0.950 . S
H3138 C3146 0.950 . S
H3139 C3148 0.950 . S
H3140 C3150 0.950 . S
H3141 C3152 0.950 . S
H3142 C3154 0.950 . S
H3143 C3155 0.950 . S
C3144 H3136 0.950 . S
C3144 C3145 1.386 . S
C3144 C3146 1.391 . S
C3145 C3144 1.386 . S
C3145 C3149 1.393 . S
C3146 H3138 0.950 . S
C3146 C3144 1.391 . S
C3146 C3147 1.400 . S
C3147 C3146 1.400 . S
C3147 C3148 1.398 . S
C3147 C3153 1.491 . S
C3148 H3139 0.950 . S
C3148 C3147 1.398 . S
C3148 C3149 1.391 . S
C3149 H3137 0.950 . S
C3149 C3145 1.393 . S
C3149 C3148 1.391 . S
C3150 H3140 0.950 . S
C3150 C3151 1.386 . S
C3150 C3152 1.391 . S
C3151 C3150 1.386 . S
C3151 C3155 1.393 . S
C3152 H3141 0.950 . S
C3152 C3150 1.391 . S
C3152 C3153 1.400 . S
C3153 C3147 1.491 . S
C3153 C3152 1.400 . S
C3153 C3154 1.398 . S
C3154 H3142 0.950 . S
C3154 C3153 1.398 . S
C3154 C3155 1.391 . S
C3155 H3143 0.950 . S
C3155 C3151 1.393 . S
C3155 C3154 1.391 . S
H3156 C3164 0.950 . S
H3157 C3169 0.950 . S
H3158 C3166 0.950 . S
H3159 C3168 0.950 . S
H3160 C3170 0.950 . S
H3161 C3172 0.950 . S
H3162 C3174 0.950 . S
H3163 C3175 0.950 . S
C3164 H3156 0.950 . S
C3164 C3165 1.386 . S
C3164 C3166 1.391 . S
C3165 C3164 1.386 . S
C3165 C3169 1.393 . S
C3166 H3158 0.950 . S
C3166 C3164 1.391 . S
C3166 C3167 1.400 . S
C3167 C3166 1.400 . S
C3167 C3168 1.398 . S
C3167 C3173 1.491 . S
C3168 H3159 0.950 . S
C3168 C3167 1.398 . S
C3168 C3169 1.391 . S
C3169 H3157 0.950 . S
C3169 C3165 1.393 . S
C3169 C3168 1.391 . S
C3170 H3160 0.950 . S
C3170 C3171 1.386 . S
C3170 C3172 1.391 . S
C3171 C3170 1.386 . S
C3171 C3175 1.393 . S
C3172 H3161 0.950 . S
C3172 C3170 1.391 . S
C3172 C3173 1.400 . S
C3173 C3167 1.491 . S
C3173 C3172 1.400 . S
C3173 C3174 1.398 . S
C3174 H3162 0.950 . S
C3174 C3173 1.398 . S
C3174 C3175 1.391 . S
C3175 H3163 0.950 . S
C3175 C3171 1.393 . S
C3175 C3174 1.391 . S
H3176 C3184 0.950 . S
H3177 C3189 0.950 . S
H3178 C3186 0.950 . S
H3179 C3188 0.950 . S
H3180 C3190 0.950 . S
H3181 C3192 0.950 . S
H3182 C3194 0.950 . S
H3183 C3195 0.938 1_554 S
C3184 H3176 0.950 . S
C3184 C3185 1.386 . S
C3184 C3186 1.391 . S
C3185 C3184 1.386 . S
C3185 C3189 1.393 . S
C3186 H3178 0.950 . S
C3186 C3184 1.391 . S
C3186 C3187 1.400 . S
C3187 C3186 1.400 . S
C3187 C3188 1.398 . S
C3187 C3193 1.491 . S
C3188 H3179 0.950 . S
C3188 C3187 1.398 . S
C3188 C3189 1.391 . S
C3189 H3177 0.950 . S
C3189 C3185 1.393 . S
C3189 C3188 1.391 . S
C3190 H3180 0.950 . S
C3190 C3191 1.386 . S
C3190 C3192 1.391 . S
C3191 C3190 1.386 . S
C3191 C3195 1.393 . S
C3192 H3181 0.950 . S
C3192 C3190 1.391 . S
C3192 C3193 1.400 . S
C3193 C3187 1.491 . S
C3193 C3192 1.400 . S
C3193 C3194 1.398 . S
C3194 H3182 0.950 . S
C3194 C3193 1.398 . S
C3194 C3195 1.391 . S
C3195 H3183 0.938 1_556 S
C3195 C3191 1.393 . S
C3195 C3194 1.391 . S
H3196 C3204 0.950 . S
H3197 C3209 0.950 . S
H3198 C3206 0.950 . S
H3199 C3208 0.950 . S
H3200 C3210 0.950 . S
H3201 C3212 0.950 . S
H3202 C3214 0.950 . S
H3203 C3215 0.950 . S
C3204 H3196 0.950 . S
C3204 C3205 1.386 . S
C3204 C3206 1.391 . S
C3205 C3204 1.386 . S
C3205 C3209 1.393 . S
C3206 H3198 0.950 . S
C3206 C3204 1.391 . S
C3206 C3207 1.400 . S
C3207 C3206 1.400 . S
C3207 C3208 1.398 . S
C3207 C3213 1.491 . S
C3208 H3199 0.950 . S
C3208 C3207 1.398 . S
C3208 C3209 1.391 . S
C3209 H3197 0.950 . S
C3209 C3205 1.393 . S
C3209 C3208 1.391 . S
C3210 H3200 0.950 . S
C3210 C3211 1.386 . S
C3210 C3212 1.391 . S
C3211 C3210 1.386 . S
C3211 C3215 1.393 . S
C3212 H3201 0.950 . S
C3212 C3210 1.391 . S
C3212 C3213 1.400 . S
C3213 C3207 1.491 . S
C3213 C3212 1.400 . S
C3213 C3214 1.398 . S
C3214 H3202 0.950 . S
C3214 C3213 1.398 . S
C3214 C3215 1.391 . S
C3215 H3203 0.950 . S
C3215 C3211 1.393 . S
C3215 C3214 1.391 . S
H3216 C3224 0.950 . S
H3217 C3229 0.950 . S
H3218 C3226 0.950 . S
H3219 C3228 0.950 . S
H3220 C3230 0.950 . S
H3221 C3232 0.950 . S
H3222 C3234 0.950 . S
H3223 C3235 0.950 . S
C3224 H3216 0.950 . S
C3224 C3225 1.386 . S
C3224 C3226 1.391 . S
C3225 C3224 1.386 . S
C3225 C3229 1.393 . S
C3226 H3218 0.950 . S
C3226 C3224 1.391 . S
C3226 C3227 1.400 . S
C3227 C3226 1.400 . S
C3227 C3228 1.398 . S
C3227 C3233 1.491 . S
C3228 H3219 0.950 . S
C3228 C3227 1.398 . S
C3228 C3229 1.391 . S
C3229 H3217 0.950 . S
C3229 C3225 1.393 . S
C3229 C3228 1.391 . S
C3230 H3220 0.950 . S
C3230 C3231 1.386 . S
C3230 C3232 1.391 . S
C3231 C3230 1.386 . S
C3231 C3235 1.393 . S
C3232 H3221 0.950 . S
C3232 C3230 1.391 . S
C3232 C3233 1.400 . S
C3233 C3227 1.491 . S
C3233 C3232 1.400 . S
C3233 C3234 1.398 . S
C3234 H3222 0.950 . S
C3234 C3233 1.398 . S
C3234 C3235 1.391 . S
C3235 H3223 0.950 . S
C3235 C3231 1.393 . S
C3235 C3234 1.391 . S
H3236 C3244 0.950 . S
H3237 C3249 0.950 . S
H3238 C3246 0.950 . S
H3239 C3248 0.950 . S
H3240 C3250 0.950 . S
H3241 C3252 0.950 . S
H3242 C3254 0.950 . S
H3243 C3255 0.950 . S
C3244 H3236 0.950 . S
C3244 C3245 1.386 . S
C3244 C3246 1.391 . S
C3245 C3244 1.386 . S
C3245 C3249 1.393 . S
C3246 H3238 0.950 . S
C3246 C3244 1.391 . S
C3246 C3247 1.400 . S
C3247 C3246 1.400 . S
C3247 C3248 1.398 . S
C3247 C3253 1.491 . S
C3248 H3239 0.950 . S
C3248 C3247 1.398 . S
C3248 C3249 1.391 . S
C3249 H3237 0.950 . S
C3249 C3245 1.393 . S
C3249 C3248 1.391 . S
C3250 H3240 0.950 . S
C3250 C3251 1.386 . S
C3250 C3252 1.391 . S
C3251 C3250 1.386 . S
C3251 C3255 1.393 . S
C3252 H3241 0.950 . S
C3252 C3250 1.391 . S
C3252 C3253 1.400 . S
C3253 C3247 1.491 . S
C3253 C3252 1.400 . S
C3253 C3254 1.398 . S
C3254 H3242 0.950 . S
C3254 C3253 1.398 . S
C3254 C3255 1.391 . S
C3255 H3243 0.950 . S
C3255 C3251 1.393 . S
C3255 C3254 1.391 . S
H3256 C3264 0.950 . S
H3257 C3269 0.950 . S
H3258 C3266 0.950 . S
H3259 C3268 0.950 . S
H3260 C3270 0.950 . S
H3261 C3272 0.950 . S
H3262 C3274 0.950 . S
H3263 C3275 0.950 . S
C3264 H3256 0.950 . S
C3264 C3265 1.386 . S
C3264 C3266 1.391 . S
C3265 C3264 1.386 . S
C3265 C3269 1.393 . S
C3266 H3258 0.950 . S
C3266 C3264 1.391 . S
C3266 C3267 1.400 . S
C3267 C3266 1.400 . S
C3267 C3268 1.398 . S
C3267 C3273 1.491 . S
C3268 H3259 0.950 . S
C3268 C3267 1.398 . S
C3268 C3269 1.391 . S
C3269 H3257 0.950 . S
C3269 C3265 1.393 . S
C3269 C3268 1.391 . S
C3270 H3260 0.950 . S
C3270 C3271 1.386 . S
C3270 C3272 1.391 . S
C3271 C3270 1.386 . S
C3271 C3275 1.393 . S
C3272 H3261 0.950 . S
C3272 C3270 1.391 . S
C3272 C3273 1.400 . S
C3273 C3267 1.491 . S
C3273 C3272 1.400 . S
C3273 C3274 1.398 . S
C3274 H3262 0.950 . S
C3274 C3273 1.398 . S
C3274 C3275 1.391 . S
C3275 H3263 0.950 . S
C3275 C3271 1.393 . S
C3275 C3274 1.391 . S
H3276 C3284 0.950 . S
H3277 C3289 0.950 . S
H3278 C3286 0.950 . S
H3279 C3288 0.950 . S
H3280 C3290 0.950 . S
H3281 C3292 0.950 . S
H3282 C3294 0.950 . S
H3283 C3295 0.950 . S
C3284 H3276 0.950 . S
C3284 C3285 1.386 . S
C3284 C3286 1.391 . S
C3285 C3284 1.386 . S
C3285 C3289 1.393 . S
C3286 H3278 0.950 . S
C3286 C3284 1.391 . S
C3286 C3287 1.400 . S
C3287 C3286 1.400 . S
C3287 C3288 1.398 . S
C3287 C3293 1.491 . S
C3288 H3279 0.950 . S
C3288 C3287 1.398 . S
C3288 C3289 1.391 . S
C3289 H3277 0.950 . S
C3289 C3285 1.393 . S
C3289 C3288 1.391 . S
C3290 H3280 0.950 . S
C3290 C3291 1.386 . S
C3290 C3292 1.391 . S
C3291 C3290 1.386 . S
C3291 C3295 1.393 . S
C3292 H3281 0.950 . S
C3292 C3290 1.391 . S
C3292 C3293 1.400 . S
C3293 C3287 1.491 . S
C3293 C3292 1.400 . S
C3293 C3294 1.398 . S
C3294 H3282 0.950 . S
C3294 C3293 1.398 . S
C3294 C3295 1.391 . S
C3295 H3283 0.950 . S
C3295 C3291 1.393 . S
C3295 C3294 1.391 . S
H3296 C3304 0.950 . S
H3297 C3309 0.950 . S
H3298 C3306 0.950 . S
H3299 C3308 0.950 1_455 S
H3300 C3310 0.950 . S
H3301 C3312 0.950 . S
H3302 C3314 0.950 . S
H3303 C3315 0.950 . S
C3304 H3296 0.950 . S
C3304 C3305 1.386 . S
C3304 C3306 1.391 . S
C3305 C3304 1.386 . S
C3305 C3309 1.393 . S
C3306 H3298 0.950 . S
C3306 C3304 1.391 . S
C3306 C3307 1.400 . S
C3307 C3306 1.400 . S
C3307 C3308 1.398 . S
C3307 C3313 1.491 . S
C3308 H3299 0.950 1_655 S
C3308 C3307 1.398 . S
C3308 C3309 1.391 . S
C3309 H3297 0.950 . S
C3309 C3305 1.393 . S
C3309 C3308 1.391 . S
C3310 H3300 0.950 . S
C3310 C3311 1.386 . S
C3310 C3312 1.391 . S
C3311 C3310 1.386 . S
C3311 C3315 1.393 . S
C3312 H3301 0.950 . S
C3312 C3310 1.391 . S
C3312 C3313 1.400 1_455 S
C3313 C3307 1.491 . S
C3313 C3312 1.400 1_655 S
C3313 C3314 1.398 . S
C3314 H3302 0.950 . S
C3314 C3313 1.398 . S
C3314 C3315 1.391 1_655 S
C3315 H3303 0.950 . S
C3315 C3311 1.393 . S
C3315 C3314 1.391 1_455 S
H3316 C3324 0.950 . S
H3317 C3329 0.950 . S
H3318 C3326 0.950 . S
H3319 C3328 0.950 . S
H3320 C3330 0.950 . S
H3321 C3332 0.950 . S
H3322 C3334 0.950 . S
H3323 C3335 0.950 . S
C3324 H3316 0.950 . S
C3324 C3325 1.386 . S
C3324 C3326 1.391 . S
C3325 C3324 1.386 . S
C3325 C3329 1.393 . S
C3326 H3318 0.950 . S
C3326 C3324 1.391 . S
C3326 C3327 1.400 . S
C3327 C3326 1.400 . S
C3327 C3328 1.398 . S
C3327 C3333 1.491 . S
C3328 H3319 0.950 . S
C3328 C3327 1.398 . S
C3328 C3329 1.391 . S
C3329 H3317 0.950 . S
C3329 C3325 1.393 . S
C3329 C3328 1.391 . S
C3330 H3320 0.950 . S
C3330 C3331 1.386 . S
C3330 C3332 1.391 . S
C3331 C3330 1.386 . S
C3331 C3335 1.393 . S
C3332 H3321 0.950 . S
C3332 C3330 1.391 . S
C3332 C3333 1.400 . S
C3333 C3327 1.491 . S
C3333 C3332 1.400 . S
C3333 C3334 1.398 . S
C3334 H3322 0.950 . S
C3334 C3333 1.398 . S
C3334 C3335 1.391 . S
C3335 H3323 0.950 . S
C3335 C3331 1.393 . S
C3335 C3334 1.391 . S
H3336 C3344 0.950 . S
H3337 C3349 0.950 . S
H3338 C3346 0.950 . S
H3339 C3348 0.950 . S
H3340 C3350 0.950 . S
H3341 C3352 0.950 . S
H3342 C3354 0.950 . S
H3343 C3355 0.950 . S
C3344 H3336 0.950 . S
C3344 C3345 1.386 . S
C3344 C3346 1.391 . S
C3345 C3344 1.386 . S
C3345 C3349 1.393 . S
C3346 H3338 0.950 . S
C3346 C3344 1.391 . S
C3346 C3347 1.400 . S
C3347 C3346 1.400 . S
C3347 C3348 1.398 . S
C3347 C3353 1.491 . S
C3348 H3339 0.950 . S
C3348 C3347 1.398 . S
C3348 C3349 1.391 . S
C3349 H3337 0.950 . S
C3349 C3345 1.393 . S
C3349 C3348 1.391 . S
C3350 H3340 0.950 . S
C3350 C3351 1.386 . S
C3350 C3352 1.391 . S
C3351 C3350 1.386 . S
C3351 C3355 1.393 . S
C3352 H3341 0.950 . S
C3352 C3350 1.391 . S
C3352 C3353 1.400 . S
C3353 C3347 1.491 . S
C3353 C3352 1.400 . S
C3353 C3354 1.398 . S
C3354 H3342 0.950 . S
C3354 C3353 1.398 . S
C3354 C3355 1.391 . S
C3355 H3343 0.950 . S
C3355 C3351 1.393 . S
C3355 C3354 1.391 . S
H3356 C3364 0.950 . S
H3357 C3369 0.950 . S
H3358 C3366 0.950 . S
H3359 C3368 0.950 . S
H3360 C3370 0.950 . S
H3361 C3372 0.950 . S
H3362 C3374 0.950 . S
H3363 C3375 0.950 . S
C3364 H3356 0.950 . S
C3364 C3365 1.386 . S
C3364 C3366 1.391 . S
C3365 C3364 1.386 . S
C3365 C3369 1.393 . S
C3366 H3358 0.950 . S
C3366 C3364 1.391 . S
C3366 C3367 1.400 . S
C3367 C3366 1.400 . S
C3367 C3368 1.398 . S
C3367 C3373 1.491 . S
C3368 H3359 0.950 . S
C3368 C3367 1.398 . S
C3368 C3369 1.391 . S
C3369 H3357 0.950 . S
C3369 C3365 1.393 . S
C3369 C3368 1.391 . S
C3370 H3360 0.950 . S
C3370 C3371 1.386 . S
C3370 C3372 1.391 . S
C3371 C3370 1.386 . S
C3371 C3375 1.393 . S
C3372 H3361 0.950 . S
C3372 C3370 1.391 . S
C3372 C3373 1.400 . S
C3373 C3367 1.491 . S
C3373 C3372 1.400 . S
C3373 C3374 1.398 . S
C3374 H3362 0.950 . S
C3374 C3373 1.398 . S
C3374 C3375 1.391 . S
C3375 H3363 0.950 . S
C3375 C3371 1.393 . S
C3375 C3374 1.391 . S
H3376 C3384 0.950 . S
H3377 C3389 0.950 . S
H3378 C3386 0.950 . S
H3379 C3388 0.950 . S
H3380 C3390 0.950 . S
H3381 C3392 0.950 . S
H3382 C3394 0.950 . S
H3383 C3395 0.950 . S
C3384 H3376 0.950 . S
C3384 C3385 1.386 . S
C3384 C3386 1.391 . S
C3385 C3384 1.386 . S
C3385 C3389 1.393 . S
C3386 H3378 0.950 . S
C3386 C3384 1.391 . S
C3386 C3387 1.400 . S
C3387 C3386 1.400 . S
C3387 C3388 1.398 . S
C3387 C3393 1.491 . S
C3388 H3379 0.950 . S
C3388 C3387 1.398 . S
C3388 C3389 1.391 . S
C3389 H3377 0.950 . S
C3389 C3385 1.393 . S
C3389 C3388 1.391 . S
C3390 H3380 0.950 . S
C3390 C3391 1.386 1_655 S
C3390 C3392 1.391 . S
C3391 C3390 1.386 1_455 S
C3391 C3395 1.393 . S
C3392 H3381 0.950 . S
C3392 C3390 1.391 . S
C3392 C3393 1.400 . S
C3393 C3387 1.491 . S
C3393 C3392 1.400 . S
C3393 C3394 1.398 . S
C3394 H3382 0.950 . S
C3394 C3393 1.398 . S
C3394 C3395 1.391 1_655 S
C3395 H3383 0.950 . S
C3395 C3391 1.393 . S
C3395 C3394 1.391 1_455 S
H3396 C3404 0.950 . S
H3397 C3409 0.950 . S
H3398 C3406 0.950 . S
H3399 C3408 0.950 . S
H3400 C3410 0.950 . S
H3401 C3412 0.950 . S
H3402 C3414 0.950 . S
H3403 C3415 0.950 . S
C3404 H3396 0.950 . S
C3404 C3405 1.386 . S
C3404 C3406 1.391 . S
C3405 C3404 1.386 . S
C3405 C3409 1.393 . S
C3406 H3398 0.950 . S
C3406 C3404 1.391 . S
C3406 C3407 1.400 . S
C3407 C3406 1.400 . S
C3407 C3408 1.398 . S
C3407 C3413 1.491 . S
C3408 H3399 0.950 . S
C3408 C3407 1.398 . S
C3408 C3409 1.391 . S
C3409 H3397 0.950 . S
C3409 C3405 1.393 . S
C3409 C3408 1.391 . S
C3410 H3400 0.950 . S
C3410 C3411 1.386 . S
C3410 C3412 1.391 . S
C3411 C3410 1.386 . S
C3411 C3415 1.393 . S
C3412 H3401 0.950 . S
C3412 C3410 1.391 . S
C3412 C3413 1.400 . S
C3413 C3407 1.491 . S
C3413 C3412 1.400 . S
C3413 C3414 1.398 . S
C3414 H3402 0.950 . S
C3414 C3413 1.398 . S
C3414 C3415 1.391 . S
C3415 H3403 0.950 . S
C3415 C3411 1.393 . S
C3415 C3414 1.391 . S
H3416 C3424 0.950 . S
H3417 C3429 0.950 . S
H3418 C3426 0.950 . S
H3419 C3428 0.950 . S
H3420 C3430 0.950 . S
H3421 C3432 0.950 . S
H3422 C3434 0.950 . S
H3423 C3435 0.950 . S
C3424 H3416 0.950 . S
C3424 C3425 1.386 . S
C3424 C3426 1.391 . S
C3425 C3424 1.386 . S
C3425 C3429 1.393 . S
C3426 H3418 0.950 . S
C3426 C3424 1.391 . S
C3426 C3427 1.400 . S
C3427 C3426 1.400 . S
C3427 C3428 1.398 . S
C3427 C3433 1.491 . S
C3428 H3419 0.950 . S
C3428 C3427 1.398 . S
C3428 C3429 1.391 . S
C3429 H3417 0.950 . S
C3429 C3425 1.393 . S
C3429 C3428 1.391 . S
C3430 H3420 0.950 . S
C3430 C3431 1.386 . S
C3430 C3432 1.391 . S
C3431 C3430 1.386 . S
C3431 C3435 1.393 . S
C3432 H3421 0.950 . S
C3432 C3430 1.391 . S
C3432 C3433 1.400 . S
C3433 C3427 1.491 . S
C3433 C3432 1.400 . S
C3433 C3434 1.398 . S
C3434 H3422 0.950 . S
C3434 C3433 1.398 . S
C3434 C3435 1.391 . S
C3435 H3423 0.950 . S
C3435 C3431 1.393 . S
C3435 C3434 1.391 . S
H3436 C3444 0.950 . S
H3437 C3449 0.950 . S
H3438 C3446 0.950 . S
H3439 C3448 0.950 . S
H3440 C3450 0.950 . S
H3441 C3452 0.950 . S
H3442 C3454 0.950 1_545 S
H3443 C3455 0.950 . S
C3444 H3436 0.950 . S
C3444 C3445 1.386 . S
C3444 C3446 1.391 . S
C3445 C3444 1.386 . S
C3445 C3449 1.393 . S
C3446 H3438 0.950 . S
C3446 C3444 1.391 . S
C3446 C3447 1.400 . S
C3447 C3446 1.400 . S
C3447 C3448 1.398 . S
C3447 C3453 1.491 . S
C3448 H3439 0.950 . S
C3448 C3447 1.398 . S
C3448 C3449 1.391 . S
C3449 H3437 0.950 . S
C3449 C3445 1.393 . S
C3449 C3448 1.391 . S
C3450 H3440 0.950 . S
C3450 C3451 1.430 . S
C3450 C3452 1.391 . S
C3451 C3450 1.430 . S
C3451 C3455 1.365 1_565 S
C3452 H3441 0.950 . S
C3452 C3450 1.391 . S
C3452 C3453 1.400 . S
C3453 C3447 1.491 . S
C3453 C3452 1.400 . S
C3453 C3454 1.398 . S
C3454 H3442 0.950 1_565 S
C3454 C3453 1.398 . S
C3454 C3455 1.391 1_565 S
C3455 H3443 0.950 . S
C3455 C3451 1.365 1_545 S
C3455 C3454 1.391 1_545 S
H3456 C3464 0.950 . S
H3457 C3469 0.950 . S
H3458 C3466 0.950 . S
H3459 C3468 0.950 . S
H3460 C3470 0.950 . S
H3461 C3472 0.950 . S
H3462 C3474 0.950 . S
H3463 C3475 0.950 . S
C3464 H3456 0.950 . S
C3464 C3465 1.386 . S
C3464 C3466 1.391 . S
C3465 C3464 1.386 . S
C3465 C3469 1.393 . S
C3466 H3458 0.950 . S
C3466 C3464 1.391 . S
C3466 C3467 1.400 . S
C3467 C3466 1.400 . S
C3467 C3468 1.398 . S
C3467 C3473 1.491 . S
C3468 H3459 0.950 . S
C3468 C3467 1.398 . S
C3468 C3469 1.391 . S
C3469 H3457 0.950 . S
C3469 C3465 1.393 . S
C3469 C3468 1.391 . S
C3470 H3460 0.950 . S
C3470 C3471 1.386 . S
C3470 C3472 1.391 . S
C3471 C3470 1.386 . S
C3471 C3475 1.393 . S
C3472 H3461 0.950 . S
C3472 C3470 1.391 . S
C3472 C3473 1.400 . S
C3473 C3467 1.491 . S
C3473 C3472 1.400 . S
C3473 C3474 1.398 . S
C3474 H3462 0.950 . S
C3474 C3473 1.398 . S
C3474 C3475 1.391 . S
C3475 H3463 0.950 . S
C3475 C3471 1.393 . S
C3475 C3474 1.391 . S
H3476 C3484 0.950 1_556 S
H3477 C3489 0.950 . S
H3478 C3486 0.950 1_556 S
H3479 C3488 0.950 . S
H3480 C3490 0.950 . S
H3481 C3492 0.950 . S
H3482 C3494 0.950 1_556 S
H3483 C3495 0.950 1_556 S
C3484 H3476 0.950 1_554 S
C3484 C3485 1.386 . S
C3484 C3486 1.391 . S
C3485 C3484 1.386 . S
C3485 C3489 1.393 . S
C3486 H3478 0.950 1_554 S
C3486 C3484 1.391 . S
C3486 C3487 1.400 . S
C3487 C3486 1.400 . S
C3487 C3488 1.398 . S
C3487 C3493 1.491 . S
C3488 H3479 0.950 . S
C3488 C3487 1.398 . S
C3488 C3489 1.391 . S
C3489 H3477 0.950 . S
C3489 C3485 1.393 . S
C3489 C3488 1.391 . S
C3490 H3480 0.950 . S
C3490 C3491 1.386 . S
C3490 C3492 1.391 . S
C3491 C3490 1.386 . S
C3491 C3495 1.393 . S
C3492 H3481 0.950 . S
C3492 C3490 1.391 . S
C3492 C3493 1.400 . S
C3493 C3487 1.491 . S
C3493 C3492 1.400 . S
C3493 C3494 1.398 . S
C3494 H3482 0.950 1_554 S
C3494 C3493 1.398 . S
C3494 C3495 1.391 . S
C3495 H3483 0.950 1_554 S
C3495 C3491 1.393 . S
C3495 C3494 1.391 . S
H3496 C3504 0.950 . S
H3497 C3509 0.950 . S
H3498 C3506 0.950 . S
H3499 C3508 0.950 . S
H3500 C3510 0.950 . S
H3501 C3512 0.950 . S
H3502 C3514 0.950 . S
H3503 C3515 0.950 . S
C3504 H3496 0.950 . S
C3504 C3505 1.386 . S
C3504 C3506 1.391 . S
C3505 C3504 1.386 . S
C3505 C3509 1.393 . S
C3506 H3498 0.950 . S
C3506 C3504 1.391 . S
C3506 C3507 1.400 . S
C3507 C3506 1.400 . S
C3507 C3508 1.398 . S
C3507 C3513 1.491 . S
C3508 H3499 0.950 . S
C3508 C3507 1.398 . S
C3508 C3509 1.391 . S
C3509 H3497 0.950 . S
C3509 C3505 1.393 . S
C3509 C3508 1.391 . S
C3510 H3500 0.950 . S
C3510 C3511 1.386 . S
C3510 C3512 1.391 . S
C3511 C3510 1.386 . S
C3511 C3515 1.393 . S
C3512 H3501 0.950 . S
C3512 C3510 1.391 . S
C3512 C3513 1.400 . S
C3513 C3507 1.491 . S
C3513 C3512 1.400 . S
C3513 C3514 1.398 . S
C3514 H3502 0.950 . S
C3514 C3513 1.398 . S
C3514 C3515 1.391 . S
C3515 H3503 0.950 . S
C3515 C3511 1.393 . S
C3515 C3514 1.391 . S
H3516 C3524 0.950 . S
H3517 C3529 0.950 . S
H3518 C3526 0.950 . S
H3519 C3528 0.950 . S
H3520 C3530 0.950 . S
H3521 C3532 0.950 . S
H3522 C3534 0.950 1_556 S
H3523 C3535 0.950 . S
C3524 H3516 0.950 . S
C3524 C3525 1.386 . S
C3524 C3526 1.391 . S
C3525 C3524 1.386 . S
C3525 C3529 1.393 . S
C3526 H3518 0.950 . S
C3526 C3524 1.391 . S
C3526 C3527 1.400 . S
C3527 C3526 1.400 . S
C3527 C3528 1.398 . S
C3527 C3533 1.491 . S
C3528 H3519 0.950 . S
C3528 C3527 1.398 . S
C3528 C3529 1.391 . S
C3529 H3517 0.950 . S
C3529 C3525 1.393 . S
C3529 C3528 1.391 . S
C3530 H3520 0.950 . S
C3530 C3531 1.386 . S
C3530 C3532 1.391 . S
C3531 C3530 1.386 . S
C3531 C3535 1.393 1_554 S
C3532 H3521 0.950 . S
C3532 C3530 1.391 . S
C3532 C3533 1.400 . S
C3533 C3527 1.491 . S
C3533 C3532 1.400 . S
C3533 C3534 1.398 . S
C3534 H3522 0.950 1_554 S
C3534 C3533 1.398 . S
C3534 C3535 1.391 1_554 S
C3535 H3523 0.950 . S
C3535 C3531 1.393 1_556 S
C3535 C3534 1.391 1_556 S
H3536 C3544 0.950 . S
H3537 C3549 0.950 . S
H3538 C3546 0.950 . S
H3539 C3548 0.950 . S
H3540 C3550 0.950 . S
H3541 C3552 0.950 . S
H3542 C3554 0.950 . S
H3543 C3555 0.950 . S
C3544 H3536 0.950 . S
C3544 C3545 1.386 . S
C3544 C3546 1.391 . S
C3545 C3544 1.386 . S
C3545 C3549 1.393 . S
C3546 H3538 0.950 . S
C3546 C3544 1.391 . S
C3546 C3547 1.400 . S
C3547 C3546 1.400 . S
C3547 C3548 1.398 . S
C3547 C3553 1.491 . S
C3548 H3539 0.950 . S
C3548 C3547 1.398 . S
C3548 C3549 1.391 . S
C3549 H3537 0.950 . S
C3549 C3545 1.393 . S
C3549 C3548 1.391 . S
C3550 H3540 0.950 . S
C3550 C3551 1.386 . S
C3550 C3552 1.391 . S
C3551 C3550 1.386 . S
C3551 C3555 1.393 . S
C3552 H3541 0.950 . S
C3552 C3550 1.391 . S
C3552 C3553 1.400 . S
C3553 C3547 1.491 . S
C3553 C3552 1.400 . S
C3553 C3554 1.398 . S
C3554 H3542 0.950 . S
C3554 C3553 1.398 . S
C3554 C3555 1.391 . S
C3555 H3543 0.950 . S
C3555 C3551 1.393 . S
C3555 C3554 1.391 . S
H3556 C3564 0.950 . S
H3557 C3569 0.950 . S
H3558 C3566 0.950 . S
H3559 C3568 0.950 . S
H3560 C3570 0.950 . S
H3561 C3572 0.950 . S
H3562 C3574 0.950 . S
H3563 C3575 0.950 . S
C3564 H3556 0.950 . S
C3564 C3565 1.386 . S
C3564 C3566 1.391 . S
C3565 C3564 1.386 . S
C3565 C3569 1.393 . S
C3566 H3558 0.950 . S
C3566 C3564 1.391 . S
C3566 C3567 1.400 . S
C3567 C3566 1.400 . S
C3567 C3568 1.398 . S
C3567 C3573 1.491 . S
C3568 H3559 0.950 . S
C3568 C3567 1.398 . S
C3568 C3569 1.391 . S
C3569 H3557 0.950 . S
C3569 C3565 1.393 . S
C3569 C3568 1.391 . S
C3570 H3560 0.950 . S
C3570 C3571 1.386 . S
C3570 C3572 1.391 . S
C3571 C3570 1.386 . S
C3571 C3575 1.393 . S
C3572 H3561 0.950 . S
C3572 C3570 1.391 . S
C3572 C3573 1.400 . S
C3573 C3567 1.491 . S
C3573 C3572 1.400 . S
C3573 C3574 1.398 . S
C3574 H3562 0.950 . S
C3574 C3573 1.398 . S
C3574 C3575 1.391 . S
C3575 H3563 0.950 . S
C3575 C3571 1.393 . S
C3575 C3574 1.391 . S
C1665 C101 1.858 . S
C1671 C379 1.741 . S
C1685 C57 2.175 . S
C1691 C462 2.143 . S
C1705 C73 1.610 . S
C1711 C547 1.630 . S
C1731 C627 1.410 . S
C1725 C78 1.531 . S
C1745 C21 1.507 . S
C1751 C711 1.516 . S
C1771 C804 0.987 . S
C1765 C31 1.029 . S
C1791 C882 0.953 . S
C1785 C49 0.934 . S
C1805 C0 1.357 . S
C1811 C967 1.316 . S
C1831 C378 2.033 . S
C1825 C218 2.121 . S
C1845 C229 0.682 . S
C1851 C459 0.734 . S
C1871 C546 1.157 . S
C1865 C257 1.195 . S
C1891 C631 1.599 . S
C1885 C164 1.584 . S
C1905 C216 1.979 . S
C1911 C715 1.937 . S
C1931 C807 1.107 . S
C1925 C231 1.196 . S
C1951 C879 0.797 . S
C1945 C255 0.779 . S
C1971 C966 1.506 . S
C1965 C166 1.616 . S
C1991 C375 1.343 . S
C1985 C143 1.397 . S
C2005 C265 1.945 . S
C2011 C1050 1.896 . S
C2031 C1124 2.161 . S
C2025 C299 2.308 . S
C2051 C1219 0.601 . S
C2045 C291 0.538 . S
C2065 C104 0.789 . S
C2071 C963 0.766 . S
C2085 C117 1.379 . S
C2091 C543 1.384 . S
C2105 C304 2.181 . S
C2111 C1302 2.157 . S
C2131 C1387 0.694 . S
C2125 C278 0.638 . S
C2151 C368 1.685 . S
C2145 C60 1.809 . S
C2171 C1395 2.079 . S
C2165 C96 2.147 . S
C2185 C88 1.606 . S
C2191 C536 1.532 . S
C2205 C65 1.471 . S
C2211 C1308 1.359 . S
C2231 C720 1.483 . S
C2225 C10 1.515 . S
C2245 C44 0.930 . S
C2251 C1131 0.910 . S
C2271 C891 0.800 . S
C2265 C34 0.827 . S
C2291 C1460 1.242 . S
C2285 C13 1.424 . S
C2311 C387 1.958 . S
C2305 C138 1.992 . S
C2331 C1392 0.700 . S
C2325 C296 0.627 . S
C2345 C112 1.116 . S
C2351 C555 1.111 . S
C2365 C270 1.585 . S
C2371 C1292 1.498 . S
C2385 C140 2.014 . S
C2391 C704 1.863 . S
C2411 C1134 1.058 . S
C2405 C294 1.146 . S
C2425 C114 0.719 . S
C2431 C888 0.768 . S
C2445 C268 1.520 . S
C2451 C1479 1.392 . S
C2465 C169 1.385 . S
C2471 C384 1.320 1_554 S
C2485 C161 1.895 . S
C2491 C1059 1.829 . S
C2505 C234 2.260 . S
C2511 C799 2.080 . S
C2525 C226 0.523 . S
C2531 C1208 0.533 . S
C2551 C1476 0.836 . S
C2545 C247 0.819 1_565 S
C2565 C195 1.423 . S
C2571 C552 1.381 . S
C2591 C639 2.064 . S
C2585 C239 2.106 . S
C2611 C452 0.626 . S
C2605 C187 0.600 . S
C2625 C75 1.850 . S
C2631 C1555 1.729 . S
C2651 C1386 2.158 . S
C2645 C83 2.165 . S
C2665 C99 1.638 . S
C2671 C1639 1.627 . S
C2685 C52 1.522 . S
C2691 C1299 1.419 . S
C2705 C47 1.527 . S
C2711 C1047 1.517 . S
C2731 C1140 0.956 . S
C2725 C5 1.008 . S
C2751 C1218 0.965 . S
C2745 C23 0.919 . S
C2771 C1471 1.305 . S
C2765 C26 1.342 . S
C2791 C1554 2.033 . S
C2785 C244 2.121 . S
C2805 C177 0.688 . S
C2811 C1383 0.712 . S
C2831 C1638 1.147 . S
C2825 C192 1.177 . S
C2851 C1303 1.572 . S
C2845 C203 1.585 . S
C2871 C1051 1.940 . S
C2865 C242 1.982 . S
C2885 C179 1.199 . S
C2891 C1143 1.137 . S
C2911 C1215 0.809 . S
C2905 C190 0.801 . S
C2925 C205 1.616 . S
C2931 C1470 1.492 . S
C2951 C1551 1.326 . S
C2945 C286 1.388 . S
C2965 C122 1.944 . S
C2971 C714 1.918 . S
C2991 C788 2.136 . S
C2985 C130 2.304 . S
C3011 C883 0.613 . S
C3005 C148 0.553 . S
C3031 C1467 0.806 . S
C3025 C273 0.751 . S
C3045 C260 1.362 1_556 S
C3051 C1635 1.374 . S
C3071 C630 2.156 . S
C3065 C135 2.171 . S
C3091 C463 0.703 . S
C3085 C109 0.633 . S
C3105 C86 1.813 . S
C3111 C1544 1.672 . S
C3131 C471 2.070 . S
C3125 C70 2.148 . S
C3145 C62 1.613 . S
C3151 C1628 1.511 . S
C3165 C91 1.482 . S
C3171 C636 1.386 . S
C3185 C36 1.511 . S
C3191 C1056 1.485 . S
C3211 C795 0.945 . S
C3205 C18 0.969 . S
C3225 C8 0.780 . S
C3231 C1227 0.815 . S
C3245 C39 1.425 . S
C3251 C956 1.235 . S
C3271 C1563 1.945 . S
C3265 C307 2.007 . S
C3285 C153 0.656 . S
C3291 C468 0.663 . S
C3311 C1647 1.115 . S
C3305 C281 1.114 . S
C3325 C127 1.589 . S
C3331 C620 1.479 . S
C3345 C309 2.022 . S
C3351 C1040 1.881 . S
C3371 C798 1.050 . S
C3365 C151 1.135 . S
C3385 C283 0.739 . S
C3391 C1224 0.722 . S
C3411 C975 1.400 . S
C3405 C125 1.512 . S
C3431 C1560 1.334 . S
C3425 C221 1.388 . S
C3451 C723 1.811 1_665 S
C3445 C200 1.896 . S
C3465 C208 2.260 . S
C3471 C1135 2.078 . S
C3491 C872 0.474 . S
C3485 C174 0.504 . S
C3505 C182 0.851 . S
C3511 C972 0.849 . S
C3525 C156 1.420 . S
C3531 C1644 1.371 1_554 S
C3551 C1311 2.062 . S
C3545 C213 2.106 1_565 S
C3571 C1376 0.632 . S
C3565 C252 0.561 . S
