# Generated by pormake.
# Topology eea, (3,6)-cn, num edge types: 1
# Building blocks:
#     Node 0, Type 0, BuildingBlock: WUSLED_clean_sbu_0, # of connection points: 3
#     Node 1, Type 0, BuildingBlock: WUSLED_clean_sbu_0, # of connection points: 3
#     Node 2, Type 0, BuildingBlock: WUSLED_clean_sbu_0, # of connection points: 3
#     Node 3, Type 0, BuildingBlock: WUSLED_clean_sbu_0, # of connection points: 3
#     Node 4, Type 0, BuildingBlock: WUSLED_clean_sbu_0, # of connection points: 3
#     Node 5, Type 0, BuildingBlock: WUSLED_clean_sbu_0, # of connection points: 3
#     Node 6, Type 0, BuildingBlock: WUSLED_clean_sbu_0, # of connection points: 3
#     Node 7, Type 0, BuildingBlock: WUSLED_clean_sbu_0, # of connection points: 3
#     Node 8, Type 0, BuildingBlock: WUSLED_clean_sbu_0, # of connection points: 3
#     Node 9, Type 0, BuildingBlock: WUSLED_clean_sbu_0, # of connection points: 3
#     Node 10, Type 0, BuildingBlock: WUSLED_clean_sbu_0, # of connection points: 3
#     Node 11, Type 0, BuildingBlock: WUSLED_clean_sbu_0, # of connection points: 3
#     Node 12, Type 0, BuildingBlock: WUSLED_clean_sbu_0, # of connection points: 3
#     Node 13, Type 0, BuildingBlock: WUSLED_clean_sbu_0, # of connection points: 3
#     Node 14, Type 0, BuildingBlock: WUSLED_clean_sbu_0, # of connection points: 3
#     Node 15, Type 0, BuildingBlock: WUSLED_clean_sbu_0, # of connection points: 3
#     Node 16, Type 0, BuildingBlock: WUSLED_clean_sbu_0, # of connection points: 3
#     Node 17, Type 0, BuildingBlock: WUSLED_clean_sbu_0, # of connection points: 3
#     Node 18, Type 1, BuildingBlock: CUKXOW_clean_sbu_0, # of connection points: 6
#     Node 19, Type 1, BuildingBlock: CUKXOW_clean_sbu_0, # of connection points: 6
#     Node 20, Type 1, BuildingBlock: CUKXOW_clean_sbu_0, # of connection points: 6
#     Node 21, Type 1, BuildingBlock: CUKXOW_clean_sbu_0, # of connection points: 6
#     Node 22, Type 1, BuildingBlock: CUKXOW_clean_sbu_0, # of connection points: 6
#     Node 23, Type 1, BuildingBlock: CUKXOW_clean_sbu_0, # of connection points: 6
#     Node 24, Type 1, BuildingBlock: CUKXOW_clean_sbu_0, # of connection points: 6
#     Node 25, Type 1, BuildingBlock: CUKXOW_clean_sbu_0, # of connection points: 6
#     Node 26, Type 1, BuildingBlock: CUKXOW_clean_sbu_0, # of connection points: 6
#     Edge 27, Type (0, 1), BuildingBlock: MIFKUJ_clean_linker_0, # of connection points: 2
#     Edge 28, Type (0, 1), BuildingBlock: MIFKUJ_clean_linker_0, # of connection points: 2
#     Edge 29, Type (0, 1), BuildingBlock: MIFKUJ_clean_linker_0, # of connection points: 2
#     Edge 30, Type (0, 1), BuildingBlock: MIFKUJ_clean_linker_0, # of connection points: 2
#     Edge 31, Type (0, 1), BuildingBlock: MIFKUJ_clean_linker_0, # of connection points: 2
#     Edge 32, Type (0, 1), BuildingBlock: MIFKUJ_clean_linker_0, # of connection points: 2
#     Edge 33, Type (0, 1), BuildingBlock: MIFKUJ_clean_linker_0, # of connection points: 2
#     Edge 34, Type (0, 1), BuildingBlock: MIFKUJ_clean_linker_0, # of connection points: 2
#     Edge 35, Type (0, 1), BuildingBlock: MIFKUJ_clean_linker_0, # of connection points: 2
#     Edge 36, Type (0, 1), BuildingBlock: MIFKUJ_clean_linker_0, # of connection points: 2
#     Edge 37, Type (0, 1), BuildingBlock: MIFKUJ_clean_linker_0, # of connection points: 2
#     Edge 38, Type (0, 1), BuildingBlock: MIFKUJ_clean_linker_0, # of connection points: 2
#     Edge 39, Type (0, 1), BuildingBlock: MIFKUJ_clean_linker_0, # of connection points: 2
#     Edge 40, Type (0, 1), BuildingBlock: MIFKUJ_clean_linker_0, # of connection points: 2
#     Edge 41, Type (0, 1), BuildingBlock: MIFKUJ_clean_linker_0, # of connection points: 2
#     Edge 42, Type (0, 1), BuildingBlock: MIFKUJ_clean_linker_0, # of connection points: 2
#     Edge 43, Type (0, 1), BuildingBlock: MIFKUJ_clean_linker_0, # of connection points: 2
#     Edge 44, Type (0, 1), BuildingBlock: MIFKUJ_clean_linker_0, # of connection points: 2
#     Edge 45, Type (0, 1), BuildingBlock: MIFKUJ_clean_linker_0, # of connection points: 2
#     Edge 46, Type (0, 1), BuildingBlock: MIFKUJ_clean_linker_0, # of connection points: 2
#     Edge 47, Type (0, 1), BuildingBlock: MIFKUJ_clean_linker_0, # of connection points: 2
#     Edge 48, Type (0, 1), BuildingBlock: MIFKUJ_clean_linker_0, # of connection points: 2
#     Edge 49, Type (0, 1), BuildingBlock: MIFKUJ_clean_linker_0, # of connection points: 2
#     Edge 50, Type (0, 1), BuildingBlock: MIFKUJ_clean_linker_0, # of connection points: 2
#     Edge 51, Type (0, 1), BuildingBlock: MIFKUJ_clean_linker_0, # of connection points: 2
#     Edge 52, Type (0, 1), BuildingBlock: MIFKUJ_clean_linker_0, # of connection points: 2
#     Edge 53, Type (0, 1), BuildingBlock: MIFKUJ_clean_linker_0, # of connection points: 2
#     Edge 54, Type (0, 1), BuildingBlock: MIFKUJ_clean_linker_0, # of connection points: 2
#     Edge 55, Type (0, 1), BuildingBlock: MIFKUJ_clean_linker_0, # of connection points: 2
#     Edge 56, Type (0, 1), BuildingBlock: MIFKUJ_clean_linker_0, # of connection points: 2
#     Edge 57, Type (0, 1), BuildingBlock: MIFKUJ_clean_linker_0, # of connection points: 2
#     Edge 58, Type (0, 1), BuildingBlock: MIFKUJ_clean_linker_0, # of connection points: 2
#     Edge 59, Type (0, 1), BuildingBlock: MIFKUJ_clean_linker_0, # of connection points: 2
#     Edge 60, Type (0, 1), BuildingBlock: MIFKUJ_clean_linker_0, # of connection points: 2
#     Edge 61, Type (0, 1), BuildingBlock: MIFKUJ_clean_linker_0, # of connection points: 2
#     Edge 62, Type (0, 1), BuildingBlock: MIFKUJ_clean_linker_0, # of connection points: 2
#     Edge 63, Type (0, 1), BuildingBlock: MIFKUJ_clean_linker_0, # of connection points: 2
#     Edge 64, Type (0, 1), BuildingBlock: MIFKUJ_clean_linker_0, # of connection points: 2
#     Edge 65, Type (0, 1), BuildingBlock: MIFKUJ_clean_linker_0, # of connection points: 2
#     Edge 66, Type (0, 1), BuildingBlock: MIFKUJ_clean_linker_0, # of connection points: 2
#     Edge 67, Type (0, 1), BuildingBlock: MIFKUJ_clean_linker_0, # of connection points: 2
#     Edge 68, Type (0, 1), BuildingBlock: MIFKUJ_clean_linker_0, # of connection points: 2
#     Edge 69, Type (0, 1), BuildingBlock: MIFKUJ_clean_linker_0, # of connection points: 2
#     Edge 70, Type (0, 1), BuildingBlock: MIFKUJ_clean_linker_0, # of connection points: 2
#     Edge 71, Type (0, 1), BuildingBlock: MIFKUJ_clean_linker_0, # of connection points: 2
#     Edge 72, Type (0, 1), BuildingBlock: MIFKUJ_clean_linker_0, # of connection points: 2
#     Edge 73, Type (0, 1), BuildingBlock: MIFKUJ_clean_linker_0, # of connection points: 2
#     Edge 74, Type (0, 1), BuildingBlock: MIFKUJ_clean_linker_0, # of connection points: 2
#     Edge 75, Type (0, 1), BuildingBlock: MIFKUJ_clean_linker_0, # of connection points: 2
#     Edge 76, Type (0, 1), BuildingBlock: MIFKUJ_clean_linker_0, # of connection points: 2
#     Edge 77, Type (0, 1), BuildingBlock: MIFKUJ_clean_linker_0, # of connection points: 2
#     Edge 78, Type (0, 1), BuildingBlock: MIFKUJ_clean_linker_0, # of connection points: 2
#     Edge 79, Type (0, 1), BuildingBlock: MIFKUJ_clean_linker_0, # of connection points: 2
#     Edge 80, Type (0, 1), BuildingBlock: MIFKUJ_clean_linker_0, # of connection points: 2
# Relax obj value: 0.017
# Max RMSD: 0.123
# Mean RMSD: 0.052
data_MOF--net-eea--node1-WUSLED_clean_sbu_0--node2-CUKXOW_clean_sbu_0--edge1-MIFKUJ_clean_linker_0
_symmetry_space_group_name_H-M    P1
_symmetry_Int_Tables_number       1
_symmetry_cell_setting            triclinic
loop_
_symmetry_equiv_pos_as_xyz
'x, y, z'
_cell_length_a     87.410322
_cell_length_b     84.866332
_cell_length_c     94.716056
_cell_angle_alpha  92.700187
_cell_angle_beta   92.610842
_cell_angle_gamma 119.81922
loop_
_atom_site_label
_atom_site_type_symbol
_atom_site_fract_x
_atom_site_fract_y
_atom_site_fract_z
_atom_type_partial_charge
C0 C 0.22949 0.15305 0.41424 0.0
C1 C 0.2403 0.17138 0.41937 0.0
C2 C 0.22389 0.18041 0.40327 0.0
C3 C 0.23757 0.18494 0.4139 0.0
C4 C 0.21307 0.16199 0.39827 0.0
C5 C 0.21586 0.1485 0.4037 0.0
U6 U 0.2444 0.13118 0.44271 0.0
O7 O 0.23119 0.10258 0.44803 0.0
O8 O 0.25762 0.11503 0.44014 0.0
C9 C 0.24403 0.10008 0.4439 0.0
C10 C 0.23218 0.1384 0.41948 0.0
C11 C 0.23861 0.08313 0.43497 0.0
C12 C 0.2338 0.0664 0.41205 0.0
C13 C 0.23842 0.08268 0.42011 0.0
C14 C 0.22929 0.05088 0.43359 0.0
C15 C 0.22919 0.05028 0.41871 0.0
C16 C 0.23395 0.06711 0.4416 0.0
C17 C 0.2641 0.15571 0.47973 0.0
C18 C 0.26575 0.14137 0.50097 0.0
C19 C 0.28295 0.17416 0.5006 0.0
C20 C 0.27617 0.17276 0.48663 0.0
C21 C 0.27774 0.1585 0.50803 0.0
C22 C 0.25904 0.13998 0.48696 0.0
C23 C 0.2567 0.15471 0.46515 0.0
O24 O 0.24866 0.14215 0.42175 0.0
O25 O 0.22209 0.12927 0.4294 0.0
O26 O 0.23984 0.14268 0.46229 0.0
O27 O 0.26652 0.15512 0.45491 0.0
H28 H 0.25086 0.1752 0.42757 0.0
H29 H 0.24603 0.19895 0.41809 0.0
H30 H 0.20258 0.158 0.38998 0.0
H31 H 0.2074 0.13445 0.39956 0.0
H32 H 0.23369 0.06639 0.40062 0.0
H33 H 0.24191 0.09489 0.41476 0.0
H34 H 0.2261 0.03885 0.43911 0.0
H35 H 0.2341 0.06718 0.45305 0.0
H36 H 0.26127 0.12902 0.50636 0.0
H37 H 0.29238 0.18755 0.50554 0.0
H38 H 0.28031 0.18506 0.48122 0.0
H39 H 0.24976 0.12665 0.48184 0.0
C40 C 0.92925 0.15343 0.42273 0.0
C41 C 0.94338 0.16576 0.43235 0.0
C42 C 0.96151 0.17992 0.41274 0.0
C43 C 0.95936 0.17891 0.4274 0.0
C44 C 0.94712 0.16773 0.40321 0.0
C45 C 0.93123 0.15466 0.40815 0.0
U46 U 0.8931 0.13029 0.44926 0.0
O47 O 0.86416 0.11449 0.44451 0.0
O48 O 0.87821 0.10132 0.45333 0.0
C49 C 0.86309 0.09917 0.44795 0.0
C50 C 0.91254 0.13873 0.42741 0.0
C51 C 0.85201 0.08287 0.43803 0.0
C52 C 0.84761 0.05649 0.42313 0.0
C53 C 0.85883 0.07265 0.43156 0.0
C54 C 0.82271 0.06073 0.4272 0.0
C55 C 0.82938 0.05024 0.42094 0.0
C56 C 0.83389 0.0768 0.43566 0.0
C57 C 0.89596 0.15289 0.48617 0.0
C58 C 0.87716 0.13737 0.50496 0.0
C59 C 0.89589 0.17019 0.50738 0.0
C60 C 0.90209 0.16957 0.49411 0.0
C61 C 0.88342 0.1541 0.51306 0.0
C62 C 0.88335 0.13678 0.49164 0.0
C63 C 0.90297 0.15265 0.47231 0.0
O64 O 0.9139 0.12939 0.4376 0.0
O65 O 0.89972 0.14242 0.42875 0.0
O66 O 0.894 0.15369 0.46124 0.0
O67 O 0.9081 0.14063 0.4701 0.0
H68 H 0.94214 0.16506 0.44367 0.0
H69 H 0.97017 0.18798 0.43506 0.0
H70 H 0.94811 0.16829 0.39187 0.0
H71 H 0.92047 0.14533 0.40054 0.0
H72 H 0.85322 0.04887 0.41835 0.0
H73 H 0.87276 0.077 0.43316 0.0
H74 H 0.80873 0.05623 0.42591 0.0
H75 H 0.82828 0.08433 0.44061 0.0
H76 H 0.86771 0.12468 0.50901 0.0
H77 H 0.90079 0.18334 0.51313 0.0
H78 H 0.91173 0.18216 0.49004 0.0
H79 H 0.8784 0.12375 0.48567 0.0
C80 C 0.87514 0.78893 0.43117 0.0
C81 C 0.86213 0.78625 0.44046 0.0
C82 C 0.84732 0.79532 0.42283 0.0
C83 C 0.84833 0.78941 0.43632 0.0
C84 C 0.86043 0.79793 0.4136 0.0
C85 C 0.87418 0.79478 0.41775 0.0
U86 U 0.89963 0.77436 0.45739 0.0
O87 O 0.91235 0.75789 0.45338 0.0
O88 O 0.92816 0.78607 0.46272 0.0
C89 C 0.92825 0.77148 0.4575 0.0
C90 C 0.88973 0.78564 0.43523 0.0
C91 C 0.94238 0.7746 0.44811 0.0
C92 C 0.96198 0.79116 0.43006 0.0
C93 C 0.94779 0.78779 0.43819 0.0
C94 C 0.96518 0.76787 0.44139 0.0
C95 C 0.97102 0.78139 0.43167 0.0
C96 C 0.95106 0.76456 0.44951 0.0
C97 C 0.88031 0.7595 0.49365 0.0
C98 C 0.88524 0.7409 0.51004 0.0
C99 C 0.87078 0.75755 0.51754 0.0
C100 C 0.87246 0.76446 0.50423 0.0
C101 C 0.87688 0.74545 0.52057 0.0
C102 C 0.88693 0.74786 0.49669 0.0
C103 C 0.8806 0.76605 0.47944 0.0
O104 O 0.90111 0.79674 0.44557 0.0
O105 O 0.88522 0.76852 0.43639 0.0
O106 O 0.87744 0.75439 0.46853 0.0
O107 O 0.89337 0.78263 0.47776 0.0
H108 H 0.86267 0.78175 0.45089 0.0
H109 H 0.83858 0.78742 0.44375 0.0
H110 H 0.85994 0.80216 0.40306 0.0
H111 H 0.88405 0.79683 0.41041 0.0
H112 H 0.96617 0.80177 0.42278 0.0
H113 H 0.94125 0.7957 0.43691 0.0
H114 H 0.97155 0.75982 0.44274 0.0
H115 H 0.94704 0.75425 0.45706 0.0
H116 H 0.88999 0.73154 0.51197 0.0
H117 H 0.86459 0.76164 0.52544 0.0
H118 H 0.86733 0.77348 0.50213 0.0
H119 H 0.89309 0.74388 0.48868 0.0
C120 C 0.09037 0.23788 0.59478 0.0
C121 C 0.07538 0.23373 0.58581 0.0
C122 C 0.05904 0.23276 0.60631 0.0
C123 C 0.05986 0.23117 0.59152 0.0
C124 C 0.07428 0.23741 0.61519 0.0
C125 C 0.08973 0.23989 0.60948 0.0
U126 U 0.12445 0.25056 0.56667 0.0
O127 O 0.1535 0.26369 0.56991 0.0
O128 O 0.13801 0.23613 0.55931 0.0
C129 C 0.15364 0.24914 0.5647 0.0
C130 C 0.10658 0.23957 0.58921 0.0
C131 C 0.16438 0.24339 0.57314 0.0
C132 C 0.16716 0.22224 0.58809 0.0
C133 C 0.1566 0.2278 0.58075 0.0
C134 C 0.19342 0.24802 0.58058 0.0
C135 C 0.18573 0.23221 0.58803 0.0
C136 C 0.18286 0.25349 0.5732 0.0
C137 C 0.1195 0.27029 0.53226 0.0
C138 C 0.14296 0.28737 0.51693 0.0
C139 C 0.11231 0.27402 0.50799 0.0
C140 C 0.10694 0.26715 0.52113 0.0
C141 C 0.13038 0.28428 0.50574 0.0
C142 C 0.13757 0.28036 0.53005 0.0
C143 C 0.11344 0.26307 0.54606 0.0
O144 O 0.10437 0.22858 0.57808 0.0
O145 O 0.11972 0.25626 0.5885 0.0
O146 O 0.12331 0.27326 0.55739 0.0
O147 O 0.10796 0.24566 0.54684 0.0
H148 H 0.07558 0.23216 0.57441 0.0
H149 H 0.04836 0.22746 0.58436 0.0
H150 H 0.07429 0.2391 0.62659 0.0
H151 H 0.10118 0.24319 0.61658 0.0
H152 H 0.16074 0.20993 0.59358 0.0
H153 H 0.14235 0.21978 0.58089 0.0
H154 H 0.20765 0.25626 0.58051 0.0
H155 H 0.18914 0.2656 0.56745 0.0
H156 H 0.15697 0.29501 0.51549 0.0
H157 H 0.10229 0.27154 0.49965 0.0
H158 H 0.09294 0.25943 0.52262 0.0
H159 H 0.14752 0.28284 0.53846 0.0
C160 C 0.79298 0.86159 0.60201 0.0
C161 C 0.78727 0.84541 0.59343 0.0
C162 C 0.79875 0.83379 0.61174 0.0
C163 C 0.7901 0.83161 0.59826 0.0
C164 C 0.80438 0.85006 0.62026 0.0
C165 C 0.80152 0.86378 0.61544 0.0
U166 U 0.77928 0.88413 0.5736 0.0
O167 O 0.79161 0.91299 0.56922 0.0
O168 O 0.76441 0.89872 0.57551 0.0
C169 C 0.77779 0.91427 0.57243 0.0
C170 C 0.7902 0.87634 0.59722 0.0
C171 C 0.78148 0.93066 0.5814 0.0
C172 C 0.79239 0.94997 0.60355 0.0
C173 C 0.78853 0.93387 0.59555 0.0
C174 C 0.78204 0.95961 0.58337 0.0
C175 C 0.78935 0.96314 0.59749 0.0
C176 C 0.77817 0.94357 0.57545 0.0
C177 C 0.76345 0.86093 0.53579 0.0
C178 C 0.74885 0.86956 0.51778 0.0
C179 C 0.75904 0.84859 0.51128 0.0
C180 C 0.76536 0.84987 0.52538 0.0
C181 C 0.75061 0.85834 0.50728 0.0
C182 C 0.75525 0.87087 0.53188 0.0
C183 C 0.76996 0.86175 0.55061 0.0
O184 O 0.80096 0.8865 0.58802 0.0
O185 O 0.77368 0.87196 0.5941 0.0
O186 O 0.75906 0.8601 0.5603 0.0
O187 O 0.78635 0.87457 0.55425 0.0
H188 H 0.78069 0.84349 0.583 0.0
H189 H 0.78574 0.81936 0.59137 0.0
H190 H 0.81083 0.85212 0.63077 0.0
H191 H 0.80597 0.87614 0.62224 0.0
H192 H 0.79811 0.95229 0.61435 0.0
H193 H 0.79121 0.92406 0.60033 0.0
H194 H 0.77922 0.96924 0.57843 0.0
H195 H 0.77267 0.9413 0.56456 0.0
H196 H 0.74225 0.87709 0.51517 0.0
H197 H 0.76091 0.84006 0.5035 0.0
H198 H 0.77174 0.84216 0.52817 0.0
H199 H 0.75366 0.87953 0.53976 0.0
C200 C 0.08368 0.86035 0.59442 0.0
C201 C 0.07027 0.84779 0.58439 0.0
C202 C 0.05129 0.8328 0.60334 0.0
C203 C 0.0542 0.83416 0.58881 0.0
C204 C 0.06486 0.84541 0.61329 0.0
C205 C 0.08085 0.85901 0.60886 0.0
U206 U 0.11952 0.88322 0.56803 0.0
O207 O 0.13523 0.91221 0.56419 0.0
O208 O 0.14853 0.89792 0.57226 0.0
C209 C 0.15021 0.91357 0.56902 0.0
C210 C 0.10062 0.87509 0.59018 0.0
C211 C 0.16185 0.9295 0.57899 0.0
C212 C 0.16663 0.95123 0.59879 0.0
C213 C 0.15521 0.93559 0.58988 0.0
C214 C 0.19144 0.9546 0.58617 0.0
C215 C 0.1849 0.96098 0.597 0.0
C216 C 0.18003 0.93906 0.57727 0.0
C217 C 0.11485 0.86048 0.53068 0.0
C218 C 0.1253 0.87346 0.50829 0.0
C219 C 0.12106 0.84369 0.51244 0.0
C220 C 0.11554 0.84497 0.52588 0.0
C221 C 0.12591 0.85786 0.5034 0.0
C222 C 0.11988 0.87478 0.52178 0.0
C223 C 0.10841 0.86112 0.5448 0.0
O224 O 0.11306 0.87093 0.58847 0.0
O225 O 0.09958 0.885 0.58032 0.0
O226 O 0.10384 0.87352 0.54745 0.0
O227 O 0.11725 0.8594 0.55564 0.0
H228 H 0.07223 0.84854 0.57318 0.0
H229 H 0.04412 0.82457 0.58087 0.0
H230 H 0.06304 0.84498 0.62452 0.0
H231 H 0.09101 0.86861 0.61676 0.0
H232 H 0.16117 0.95563 0.60711 0.0
H233 H 0.14121 0.92835 0.59143 0.0
H234 H 0.20535 0.96187 0.58432 0.0
H235 H 0.18541 0.93461 0.5689 0.0
H236 H 0.12873 0.88457 0.5016 0.0
H237 H 0.12165 0.83161 0.50921 0.0
H238 H 0.11175 0.83376 0.53253 0.0
H239 H 0.11949 0.88694 0.52516 0.0
C240 C 0.89348 0.48551 0.74963 0.0
C241 C 0.9009 0.50255 0.75737 0.0
C242 C 0.88653 0.5127 0.74023 0.0
C243 C 0.89749 0.51604 0.75269 0.0
C244 C 0.87914 0.49556 0.73257 0.0
C245 C 0.88258 0.48215 0.73723 0.0
U246 U 0.91018 0.4638 0.77676 0.0
O247 O 0.8986 0.43504 0.78121 0.0
O248 O 0.92498 0.44933 0.77326 0.0
C249 C 0.91194 0.43372 0.77665 0.0
C250 C 0.89694 0.47108 0.75412 0.0
C251 C 0.90758 0.4174 0.76719 0.0
C252 C 0.88737 0.39165 0.75061 0.0
C253 C 0.89162 0.40787 0.75858 0.0
C254 C 0.91514 0.39453 0.75944 0.0
C255 C 0.89899 0.38462 0.75108 0.0
C256 C 0.91934 0.41067 0.7674 0.0
C257 C 0.92979 0.48802 0.81405 0.0
C258 C 0.93264 0.47434 0.83532 0.0
C259 C 0.94901 0.50712 0.83457 0.0
C260 C 0.94171 0.50529 0.82071 0.0
C261 C 0.94448 0.49169 0.84213 0.0
C262 C 0.92541 0.47253 0.82141 0.0
C263 C 0.9218 0.48663 0.79962 0.0
O264 O 0.91366 0.47562 0.75614 0.0
O265 O 0.88723 0.46118 0.76394 0.0
O266 O 0.90518 0.4738 0.79688 0.0
O267 O 0.93167 0.48806 0.78915 0.0
H268 H 0.90931 0.50539 0.76701 0.0
H269 H 0.90327 0.52901 0.75892 0.0
H270 H 0.87089 0.49257 0.72282 0.0
H271 H 0.87678 0.46912 0.73108 0.0
H272 H 0.87477 0.38436 0.7444 0.0
H273 H 0.88229 0.41276 0.75821 0.0
H274 H 0.92458 0.38979 0.75988 0.0
H275 H 0.93174 0.4178 0.77394 0.0
H276 H 0.92867 0.46215 0.84082 0.0
H277 H 0.9583 0.52066 0.83932 0.0
H278 H 0.94533 0.51742 0.8152 0.0
H279 H 0.91625 0.45904 0.81648 0.0
C280 C 0.5931 0.48183 0.75517 0.0
C281 C 0.60659 0.49478 0.76495 0.0
C282 C 0.62563 0.50842 0.74574 0.0
C283 C 0.62272 0.50797 0.76028 0.0
C284 C 0.61189 0.49554 0.73603 0.0
C285 C 0.59584 0.48241 0.74071 0.0
U286 U 0.55751 0.45991 0.78194 0.0
O287 O 0.52847 0.44507 0.77781 0.0
O288 O 0.54192 0.43112 0.7863 0.0
C289 C 0.5269 0.42956 0.78132 0.0
C290 C 0.57619 0.46738 0.75969 0.0
C291 C 0.51539 0.41339 0.77152 0.0
C292 C 0.51104 0.39027 0.75306 0.0
C293 C 0.52233 0.40625 0.76164 0.0
C294 C 0.48578 0.38865 0.76389 0.0
C295 C 0.49262 0.38122 0.75413 0.0
C296 C 0.49705 0.40454 0.77248 0.0
C297 C 0.5624 0.48293 0.81905 0.0
C298 C 0.53894 0.47874 0.83406 0.0
C299 C 0.56872 0.49029 0.84455 0.0
C300 C 0.57436 0.48921 0.83113 0.0
C301 C 0.55096 0.48522 0.84621 0.0
C302 C 0.54458 0.47754 0.82064 0.0
C303 C 0.56887 0.48236 0.80497 0.0
O304 O 0.57728 0.45772 0.76974 0.0
O305 O 0.56387 0.47174 0.76133 0.0
O306 O 0.56006 0.48398 0.79404 0.0
O307 O 0.57331 0.46984 0.80254 0.0
H308 H 0.60471 0.49456 0.77619 0.0
H309 H 0.63302 0.51757 0.76807 0.0
H310 H 0.61349 0.49566 0.72476 0.0
H311 H 0.58556 0.47259 0.73299 0.0
H312 H 0.51672 0.38502 0.74555 0.0
H313 H 0.53645 0.41292 0.76067 0.0
H314 H 0.47172 0.38194 0.76514 0.0
H315 H 0.49144 0.40979 0.78008 0.0
H316 H 0.52522 0.47489 0.83486 0.0
H317 H 0.57831 0.495 0.85364 0.0
H318 H 0.58813 0.49333 0.83017 0.0
H319 H 0.53504 0.47256 0.8115 0.0
C320 C 0.5401 0.1196 0.76279 0.0
C321 C 0.52681 0.11673 0.77183 0.0
C322 C 0.51239 0.12593 0.75397 0.0
C323 C 0.51307 0.11986 0.76746 0.0
C324 C 0.52576 0.1287 0.74498 0.0
C325 C 0.53946 0.12557 0.74936 0.0
U326 U 0.56304 0.10338 0.78897 0.0
O327 O 0.57662 0.08785 0.78492 0.0
O328 O 0.59134 0.11533 0.79573 0.0
C329 C 0.59212 0.10132 0.79009 0.0
C330 C 0.55469 0.11643 0.76715 0.0
C331 C 0.60706 0.10564 0.78137 0.0
C332 C 0.62108 0.11355 0.75915 0.0
C333 C 0.60676 0.10984 0.76723 0.0
C334 C 0.63616 0.10905 0.7793 0.0
C335 C 0.63594 0.1131 0.76507 0.0
C336 C 0.62188 0.10535 0.78733 0.0
C337 C 0.54056 0.08428 0.82332 0.0
C338 C 0.55344 0.07719 0.84366 0.0
C339 C 0.52253 0.06876 0.8424 0.0
C340 C 0.52428 0.07626 0.82934 0.0
C341 C 0.53707 0.06911 0.84975 0.0
C342 C 0.55516 0.08468 0.83052 0.0
C343 C 0.54186 0.0923 0.80964 0.0
O344 O 0.56506 0.12672 0.77824 0.0
O345 O 0.55045 0.09927 0.76741 0.0
O346 O 0.53991 0.08178 0.79828 0.0
O347 O 0.55464 0.10922 0.80915 0.0
H348 H 0.52709 0.11211 0.78226 0.0
H349 H 0.50311 0.11775 0.77471 0.0
H350 H 0.52553 0.13304 0.73444 0.0
H351 H 0.54956 0.12777 0.74221 0.0
H352 H 0.62038 0.11647 0.74821 0.0
H353 H 0.59542 0.11013 0.76244 0.0
H354 H 0.64747 0.10891 0.78431 0.0
H355 H 0.6224 0.10223 0.79824 0.0
H356 H 0.56486 0.07755 0.84897 0.0
H357 H 0.50982 0.06295 0.84685 0.0
H358 H 0.51288 0.07589 0.82397 0.0
H359 H 0.56785 0.09078 0.82601 0.0
C360 C 0.75569 0.56553 0.92587 0.0
C361 C 0.74876 0.57697 0.92306 0.0
C362 C 0.72487 0.56045 0.93836 0.0
C363 C 0.73349 0.57445 0.92925 0.0
C364 C 0.73174 0.54886 0.94087 0.0
C365 C 0.74697 0.5514 0.93471 0.0
U366 U 0.79049 0.58042 0.89797 0.0
O367 O 0.8195 0.59432 0.90155 0.0
O368 O 0.80495 0.56684 0.89074 0.0
C369 C 0.82034 0.58026 0.89612 0.0
C370 C 0.77224 0.56827 0.92021 0.0
C371 C 0.83144 0.57496 0.90448 0.0
C372 C 0.83742 0.56232 0.92515 0.0
C373 C 0.82655 0.56724 0.91746 0.0
C374 C 0.85809 0.57277 0.90692 0.0
C375 C 0.85337 0.56507 0.91997 0.0
C376 C 0.84724 0.57766 0.89928 0.0
C377 C 0.78601 0.60018 0.86365 0.0
C378 C 0.80636 0.60648 0.84521 0.0
C379 C 0.78399 0.61533 0.84308 0.0
C380 C 0.77793 0.60819 0.85602 0.0
C381 C 0.79829 0.61456 0.83749 0.0
C382 C 0.80031 0.5994 0.85818 0.0
C383 C 0.7794 0.59271 0.87724 0.0
O384 O 0.77046 0.55767 0.90894 0.0
O385 O 0.78496 0.58522 0.91969 0.0
O386 O 0.78889 0.60292 0.88868 0.0
O387 O 0.77431 0.57538 0.878 0.0
H388 H 0.75527 0.58797 0.91625 0.0
H389 H 0.72867 0.58372 0.92715 0.0
H390 H 0.7253 0.53772 0.94756 0.0
H391 H 0.75205 0.54238 0.93698 0.0
H392 H 0.83346 0.5566 0.93522 0.0
H393 H 0.81438 0.56508 0.92165 0.0
H394 H 0.87009 0.57482 0.90248 0.0
H395 H 0.85119 0.58354 0.88924 0.0
H396 H 0.81752 0.60585 0.84131 0.0
H397 H 0.7773 0.62121 0.83736 0.0
H398 H 0.76686 0.60889 0.86005 0.0
H399 H 0.80678 0.59332 0.86397 0.0
C400 C 0.45998 0.19277 0.93346 0.0
C401 C 0.44613 0.17459 0.93117 0.0
C402 C 0.46424 0.164 0.94324 0.0
C403 C 0.44822 0.16037 0.93606 0.0
C404 C 0.47812 0.18218 0.94534 0.0
C405 C 0.47598 0.19638 0.94055 0.0
U406 U 0.44753 0.21734 0.90586 0.0
O407 O 0.43386 0.23309 0.90826 0.0
O408 O 0.46103 0.24641 0.90183 0.0
C409 C 0.44765 0.24839 0.90526 0.0
C410 C 0.45797 0.20821 0.929 0.0
C411 C 0.45202 0.2649 0.91438 0.0
C412 C 0.45806 0.28164 0.93748 0.0
C413 C 0.45445 0.2658 0.92922 0.0
C414 C 0.45699 0.2958 0.91614 0.0
C415 C 0.45921 0.29681 0.93103 0.0
C416 C 0.45343 0.28005 0.90794 0.0
C417 C 0.4305 0.19447 0.86789 0.0
C418 C 0.41479 0.20219 0.85015 0.0
C419 C 0.42663 0.1828 0.84324 0.0
C420 C 0.43316 0.18417 0.85729 0.0
C421 C 0.41723 0.19167 0.83948 0.0
C422 C 0.42139 0.2036 0.86421 0.0
C423 C 0.43706 0.19513 0.88268 0.0
O424 O 0.46891 0.21834 0.91987 0.0
O425 O 0.44173 0.20501 0.92627 0.0
O426 O 0.42649 0.19395 0.89252 0.0
O427 O 0.45369 0.20741 0.8862 0.0
H428 H 0.43364 0.17133 0.92568 0.0
H429 H 0.43734 0.14652 0.93412 0.0
H430 H 0.49056 0.18551 0.95097 0.0
H431 H 0.48682 0.21027 0.94252 0.0
H432 H 0.45958 0.28189 0.94891 0.0
H433 H 0.45342 0.25423 0.9344 0.0
H434 H 0.45812 0.30728 0.91076 0.0
H435 H 0.45167 0.27966 0.89651 0.0
H436 H 0.40747 0.20905 0.84772 0.0
H437 H 0.42906 0.17485 0.83532 0.0
H438 H 0.44023 0.17709 0.85989 0.0
H439 H 0.41922 0.21166 0.87223 0.0
C440 C 0.75529 0.19503 0.92862 0.0
C441 C 0.7449 0.17824 0.92066 0.0
C442 C 0.72256 0.16862 0.93792 0.0
C443 C 0.72868 0.16513 0.92529 0.0
C444 C 0.73312 0.1855 0.9458 0.0
C445 C 0.74927 0.19852 0.94118 0.0
U446 U 0.79158 0.21652 0.90221 0.0
O447 O 0.8079 0.24539 0.89827 0.0
O448 O 0.82056 0.23066 0.90671 0.0
C449 C 0.82265 0.24643 0.90336 0.0
C450 C 0.77251 0.20909 0.92425 0.0
C451 C 0.83423 0.26233 0.91339 0.0
C452 C 0.83868 0.28443 0.9328 0.0
C453 C 0.8274 0.26864 0.92399 0.0
C454 C 0.86374 0.28749 0.92073 0.0
C455 C 0.857 0.29413 0.93121 0.0
C456 C 0.85247 0.27178 0.91193 0.0
C457 C 0.78623 0.19381 0.86485 0.0
C458 C 0.80966 0.20435 0.84869 0.0
C459 C 0.78012 0.18021 0.84061 0.0
C460 C 0.7744 0.18129 0.854 0.0
C461 C 0.79785 0.19165 0.83777 0.0
C462 C 0.8039 0.20542 0.8621 0.0
C463 C 0.77988 0.19446 0.87891 0.0
O464 O 0.78443 0.20417 0.92254 0.0
O465 O 0.77195 0.21918 0.91435 0.0
O466 O 0.77604 0.20739 0.88151 0.0
O467 O 0.78862 0.1925 0.88971 0.0
H468 H 0.74933 0.17529 0.9109 0.0
H469 H 0.72085 0.15236 0.91889 0.0
H470 H 0.72904 0.18859 0.95568 0.0
H471 H 0.75713 0.21136 0.94751 0.0
H472 H 0.83306 0.28902 0.94086 0.0
H473 H 0.81335 0.2615 0.92535 0.0
H474 H 0.8777 0.2947 0.91905 0.0
H475 H 0.85799 0.26718 0.90378 0.0
H476 H 0.82344 0.21325 0.84696 0.0
H477 H 0.77056 0.1705 0.83243 0.0
H478 H 0.76069 0.17228 0.85589 0.0
H479 H 0.81325 0.21522 0.87035 0.0
C480 C 0.5653 0.82076 0.08278 0.0
C481 C 0.55826 0.829 0.09155 0.0
C482 C 0.55988 0.84882 0.07309 0.0
C483 C 0.55552 0.84284 0.08673 0.0
C484 C 0.56723 0.84075 0.06448 0.0
C485 C 0.56986 0.82686 0.06927 0.0
U486 U 0.57773 0.79593 0.11022 0.0
O487 O 0.56469 0.76675 0.11362 0.0
O488 O 0.59196 0.78074 0.10742 0.0
C489 C 0.57817 0.76514 0.10986 0.0
C490 C 0.5675 0.80546 0.08721 0.0
C491 C 0.57397 0.74933 0.0999 0.0
C492 C 0.55637 0.72748 0.07998 0.0
C493 C 0.56077 0.74324 0.08866 0.0
C494 C 0.57859 0.72401 0.09343 0.0
C495 C 0.56514 0.71757 0.08233 0.0
C496 C 0.58292 0.73969 0.10211 0.0
C497 C 0.5942 0.81762 0.14855 0.0
C498 C 0.61151 0.81127 0.16585 0.0
C499 C 0.59658 0.82735 0.17352 0.0
C500 C 0.59002 0.82615 0.15952 0.0
C501 C 0.60757 0.82009 0.17689 0.0
C502 C 0.60487 0.81002 0.15183 0.0
C503 C 0.58768 0.81733 0.13381 0.0
O504 O 0.58385 0.80917 0.09013 0.0
O505 O 0.5565 0.79493 0.09615 0.0
O506 O 0.57113 0.80496 0.1301 0.0
O507 O 0.59841 0.8191 0.12395 0.0
H508 H 0.55474 0.82464 0.10206 0.0
H509 H 0.55004 0.84891 0.0937 0.0
H510 H 0.57056 0.84486 0.05388 0.0
H511 H 0.57526 0.82067 0.06231 0.0
H512 H 0.5461 0.72305 0.07143 0.0
H513 H 0.55373 0.75052 0.08672 0.0
H514 H 0.58546 0.71664 0.0957 0.0
H515 H 0.5931 0.74411 0.11075 0.0
H516 H 0.62005 0.80567 0.16798 0.0
H517 H 0.59294 0.83391 0.18173 0.0
H518 H 0.58174 0.83203 0.15724 0.0
H519 H 0.60825 0.80332 0.14354 0.0
C520 C 0.26241 0.81818 0.08927 0.0
C521 C 0.27723 0.82857 0.09894 0.0
C522 C 0.29464 0.84543 0.0798 0.0
C523 C 0.2932 0.84203 0.09424 0.0
C524 C 0.27964 0.83515 0.07023 0.0
C525 C 0.26374 0.82168 0.07492 0.0
U526 U 0.22689 0.79524 0.11594 0.0
O527 O 0.19785 0.77991 0.11198 0.0
O528 O 0.21179 0.76638 0.1203 0.0
C529 C 0.19656 0.76458 0.11563 0.0
C530 C 0.24562 0.80328 0.0937 0.0
C531 C 0.18479 0.74814 0.1062 0.0
C532 C 0.17919 0.72677 0.08589 0.0
C533 C 0.19073 0.74283 0.09434 0.0
C534 C 0.15569 0.72136 0.10099 0.0
C535 C 0.16151 0.71581 0.08913 0.0
C536 C 0.16721 0.73732 0.1094 0.0
C537 C 0.23142 0.81855 0.15282 0.0
C538 C 0.212 0.80367 0.17143 0.0
C539 C 0.2325 0.83618 0.17423 0.0
C540 C 0.23858 0.83523 0.16097 0.0
C541 C 0.21913 0.82042 0.17965 0.0
C542 C 0.21805 0.80276 0.15811 0.0
C543 C 0.23797 0.81799 0.13883 0.0
O544 O 0.24691 0.79363 0.10367 0.0
O545 O 0.2329 0.80706 0.09528 0.0
O546 O 0.22879 0.81911 0.12795 0.0
O547 O 0.24266 0.80564 0.13648 0.0
H548 H 0.27651 0.8262 0.11009 0.0
H549 H 0.3044 0.84982 0.10193 0.0
H550 H 0.28028 0.8372 0.05903 0.0
H551 H 0.2525 0.81379 0.06727 0.0
H552 H 0.18407 0.72302 0.07677 0.0
H553 H 0.20427 0.75104 0.09167 0.0
H554 H 0.1423 0.71316 0.10396 0.0
H555 H 0.16239 0.74115 0.11854 0.0
H556 H 0.20156 0.79131 0.17519 0.0
H557 H 0.23846 0.84925 0.18033 0.0
H558 H 0.24891 0.84757 0.15708 0.0
H559 H 0.21226 0.78975 0.15193 0.0
C560 C 0.20743 0.44941 0.0931 0.0
C561 C 0.18959 0.43661 0.09446 0.0
C562 C 0.18029 0.45602 0.08302 0.0
C563 C 0.17617 0.43986 0.08943 0.0
C564 C 0.19822 0.46892 0.08195 0.0
C565 C 0.21161 0.46561 0.08689 0.0
U566 U 0.22981 0.43266 0.11953 0.0
O567 O 0.24379 0.41745 0.11558 0.0
O568 O 0.2579 0.44471 0.12682 0.0
C569 C 0.25909 0.43103 0.12098 0.0
C570 C 0.22188 0.44609 0.09778 0.0
C571 C 0.27425 0.43589 0.11237 0.0
C572 C 0.29492 0.45497 0.09584 0.0
C573 C 0.28006 0.45023 0.10347 0.0
C574 C 0.29808 0.43083 0.10568 0.0
C575 C 0.30422 0.4454 0.09692 0.0
C576 C 0.2833 0.42617 0.11333 0.0
C577 C 0.20733 0.41332 0.15375 0.0
C578 C 0.21039 0.39244 0.16884 0.0
C579 C 0.19927 0.41157 0.17809 0.0
C580 C 0.20093 0.41904 0.16503 0.0
C581 C 0.2039 0.39812 0.18016 0.0
C582 C 0.21217 0.40002 0.15577 0.0
C583 C 0.20838 0.42118 0.14 0.0
O584 O 0.23202 0.45626 0.109 0.0
O585 O 0.21785 0.42895 0.09783 0.0
O586 O 0.20662 0.41084 0.12855 0.0
O587 O 0.22085 0.43825 0.13956 0.0
H588 H 0.186 0.42402 0.09927 0.0
H589 H 0.16254 0.42952 0.09032 0.0
H590 H 0.20197 0.48166 0.07736 0.0
H591 H 0.22528 0.47571 0.0858 0.0
H592 H 0.29932 0.46635 0.08931 0.0
H593 H 0.27323 0.4579 0.10253 0.0
H594 H 0.30464 0.4229 0.10658 0.0
H595 H 0.27896 0.41499 0.12009 0.0
H596 H 0.21425 0.38225 0.17014 0.0
H597 H 0.19401 0.41609 0.18651 0.0
H598 H 0.19706 0.42922 0.16368 0.0
H599 H 0.21724 0.39545 0.14724 0.0
C600 C 0.41725 0.89235 0.25481 0.0
C601 C 0.41212 0.90561 0.25414 0.0
C602 C 0.38516 0.88625 0.26558 0.0
C603 C 0.39626 0.9026 0.25949 0.0
C604 C 0.3902 0.87287 0.26588 0.0
C605 C 0.40606 0.87592 0.2606 0.0
U606 U 0.45412 0.90851 0.22882 0.0
O607 O 0.48307 0.92339 0.23353 0.0
O608 O 0.46984 0.89601 0.22249 0.0
C609 C 0.48473 0.90968 0.22847 0.0
C610 C 0.43445 0.89554 0.2502 0.0
C611 C 0.49588 0.90491 0.23741 0.0
C612 C 0.49954 0.8856 0.25385 0.0
C613 C 0.48856 0.8902 0.24597 0.0
C614 C 0.52527 0.91056 0.24493 0.0
C615 C 0.51806 0.89564 0.25335 0.0
C616 C 0.5143 0.91509 0.23705 0.0
C617 C 0.44977 0.92828 0.19418 0.0
C618 C 0.4711 0.93703 0.17631 0.0
C619 C 0.44595 0.94156 0.17307 0.0
C620 C 0.44019 0.93429 0.18601 0.0
C621 C 0.46144 0.94296 0.16799 0.0
C622 C 0.46531 0.92975 0.18929 0.0
C623 C 0.44321 0.9204 0.20766 0.0
O624 O 0.43378 0.88521 0.23913 0.0
O625 O 0.44713 0.9126 0.25016 0.0
O626 O 0.45213 0.93065 0.21925 0.0
O627 O 0.43888 0.90325 0.20831 0.0
H628 H 0.42048 0.91842 0.24971 0.0
H629 H 0.39294 0.91329 0.25918 0.0
H630 H 0.38188 0.85998 0.27022 0.0
H631 H 0.4097 0.86548 0.2612 0.0
H632 H 0.4935 0.87394 0.26011 0.0
H633 H 0.47436 0.88216 0.24644 0.0
H634 H 0.53945 0.91884 0.24449 0.0
H635 H 0.52022 0.92654 0.23056 0.0
H636 H 0.48298 0.93773 0.17269 0.0
H637 H 0.43833 0.94625 0.1671 0.0
H638 H 0.4282 0.93333 0.18965 0.0
H639 H 0.47288 0.92515 0.19547 0.0
C640 C 0.1256 0.52662 0.26886 0.0
C641 C 0.11523 0.50853 0.26302 0.0
C642 C 0.131 0.49881 0.27918 0.0
C643 C 0.11788 0.49474 0.26817 0.0
C644 C 0.14142 0.517 0.28486 0.0
C645 C 0.13873 0.53071 0.27976 0.0
U646 U 0.11084 0.5498 0.24138 0.0
O647 O 0.09675 0.56504 0.24474 0.0
O648 O 0.12346 0.57877 0.23735 0.0
C649 C 0.11029 0.58054 0.24176 0.0
C650 C 0.12278 0.5414 0.26415 0.0
C651 C 0.11493 0.59671 0.25151 0.0
C652 C 0.13586 0.62264 0.26763 0.0
C653 C 0.13142 0.60656 0.25939 0.0
C654 C 0.10726 0.61903 0.26057 0.0
C655 C 0.12389 0.62916 0.26823 0.0
C656 C 0.10288 0.60304 0.25229 0.0
C657 C 0.09197 0.52698 0.2037 0.0
C658 C 0.08843 0.54195 0.18351 0.0
C659 C 0.07487 0.5091 0.18203 0.0
C660 C 0.08168 0.51009 0.19591 0.0
C661 C 0.07824 0.52501 0.17558 0.0
C662 C 0.09521 0.54292 0.19744 0.0
C663 C 0.09936 0.52757 0.21818 0.0
O664 O 0.13304 0.55129 0.25458 0.0
O665 O 0.10626 0.53745 0.2618 0.0
O666 O 0.08927 0.52621 0.22846 0.0
O667 O 0.11606 0.53997 0.22128 0.0
H668 H 0.10505 0.50505 0.25456 0.0
H669 H 0.10974 0.48093 0.26344 0.0
H670 H 0.15146 0.52063 0.29347 0.0
H671 H 0.14683 0.54456 0.28446 0.0
H672 H 0.14869 0.62999 0.27352 0.0
H673 H 0.14098 0.60199 0.25903 0.0
H674 H 0.0978 0.62374 0.26062 0.0
H675 H 0.09014 0.59577 0.24625 0.0
H676 H 0.09145 0.55451 0.17888 0.0
H677 H 0.06681 0.4958 0.17641 0.0
H678 H 0.07895 0.49762 0.20057 0.0
H679 H 0.1031 0.55612 0.20327 0.0
C680 C 0.42132 0.5282 0.26455 0.0
C681 C 0.41052 0.5115 0.25658 0.0
C682 C 0.38964 0.50136 0.27502 0.0
C683 C 0.3948 0.4982 0.26176 0.0
C684 C 0.40051 0.51822 0.28283 0.0
C685 C 0.41615 0.53145 0.27765 0.0
U686 U 0.45682 0.54922 0.2374 0.0
O687 O 0.47221 0.57788 0.23256 0.0
O688 O 0.48585 0.5644 0.24156 0.0
C689 C 0.48731 0.57969 0.2376 0.0
C690 C 0.4381 0.54241 0.25963 0.0
C691 C 0.49899 0.59627 0.24698 0.0
C692 C 0.50386 0.61954 0.26554 0.0
C693 C 0.4924 0.60325 0.25731 0.0
C694 C 0.52858 0.6218 0.2534 0.0
C695 C 0.5221 0.62913 0.26358 0.0
C696 C 0.51715 0.6056 0.2452 0.0
C697 C 0.45216 0.52478 0.20088 0.0
C698 C 0.4684 0.53898 0.18056 0.0
C699 C 0.45295 0.50615 0.18089 0.0
C700 C 0.44736 0.50766 0.19426 0.0
C701 C 0.46346 0.52178 0.17379 0.0
C702 C 0.46285 0.54047 0.19397 0.0
C703 C 0.44572 0.5259 0.21486 0.0
O704 O 0.45051 0.53813 0.25825 0.0
O705 O 0.43678 0.5515 0.24924 0.0
O706 O 0.44108 0.53834 0.2169 0.0
O707 O 0.45481 0.52496 0.2259 0.0
H708 H 0.4143 0.50873 0.24643 0.0
H709 H 0.38685 0.48534 0.25551 0.0
H710 H 0.39686 0.52131 0.29293 0.0
H711 H 0.42426 0.54427 0.28393 0.0
H712 H 0.49838 0.62481 0.2732 0.0
H713 H 0.47841 0.59624 0.25888 0.0
H714 H 0.54255 0.62857 0.25177 0.0
H715 H 0.52251 0.6004 0.23734 0.0
H716 H 0.4763 0.55132 0.1754 0.0
H717 H 0.44914 0.4927 0.17619 0.0
H718 H 0.43921 0.49538 0.19943 0.0
H719 H 0.46678 0.55386 0.19889 0.0
Tb720 Tb 0.53004 0.01996 0.00839 0.0
C721 C 0.51907 0.98055 0.01731 0.0
Tb722 Tb 0.49006 0.99278 0.01202 0.0
O723 O 0.53663 0.02301 0.03133 0.0
O724 O 0.51131 0.01609 0.02337 0.0
O725 O 0.53144 0.99545 0.01199 0.0
C726 C 0.45963 0.9708 0.02345 0.0
O727 O 0.50272 0.97737 0.01876 0.0
C728 C 0.49899 0.99421 0.98569 0.0
C729 C 0.50102 0.03146 1.00251 0.0
O730 O 0.47517 0.97369 0.02774 0.0
O731 O 0.46121 0.98028 0.01268 0.0
O732 O 0.48273 0.98703 0.98902 0.0
O733 O 0.50855 0.99711 0.99695 0.0
O734 O 0.49018 0.01848 0.01041 0.0
O735 O 0.51614 0.03284 0.99891 0.0
C736 C 0.56127 0.04246 0.99838 0.0
O737 O 0.55204 0.04744 1.00582 0.0
O738 O 0.55302 0.02479 0.99674 0.0
C739 C 0.52053 0.0176 0.0345 0.0
Tb740 Tb 0.99611 0.51245 1.00655 0.0
C741 C 0.03491 0.54096 0.01833 0.0
Tb742 Tb 0.02263 0.49886 0.01167 0.0
O743 O 0.99671 0.51962 0.02909 0.0
O744 O 1.00202 0.4991 0.02251 0.0
O745 O 0.0202 0.53866 0.01151 0.0
C746 C 0.0463 0.49055 0.02255 0.0
O747 O 0.03769 0.52721 0.0206 0.0
C748 C 0.01613 0.5029 0.98511 0.0
C749 C 0.98384 0.47015 1.00051 0.0
O750 O 0.0487 0.50089 0.01224 0.0
O751 O 0.03053 0.48475 0.02661 0.0
O752 O 0.021 0.49145 0.98893 0.0
O753 O 0.01688 0.51255 0.99593 0.0
O754 O 0.99852 0.47258 1.00744 0.0
O755 O 0.9812 0.48391 0.99782 0.0
C756 C 0.97311 0.52092 0.9945 0.0
O757 O 0.96955 0.50915 1.00391 0.0
O758 O 0.98964 0.52805 0.99206 0.0
C759 C 1.00234 0.50884 0.03317 0.0
Tb760 Tb 0.49078 0.49784 0.0128 0.0
C761 C 0.50197 0.46959 1.00274 0.0
Tb762 Tb 0.53029 0.51214 0.0087 0.0
O763 O 0.48308 0.48929 0.99033 0.0
O764 O 0.50839 0.51092 0.99694 0.0
O765 O 0.48992 0.47183 0.00921 0.0
C766 C 0.56183 0.52101 0.99914 0.0
O767 O 0.51772 0.48351 1.00042 0.0
C768 C 0.52163 0.50914 0.0351 0.0
C769 C 0.5189 0.54064 0.01752 0.0
O770 O 0.5553 0.51175 0.01001 0.0
O771 O 0.55062 0.52529 0.99371 0.0
O772 O 0.53714 0.52085 0.03139 0.0
O773 O 0.51252 0.4988 0.02433 0.0
O774 O 0.53109 0.53818 0.0115 0.0
O775 O 0.50316 0.52686 0.02003 0.0
C776 C 0.46006 0.48853 0.02394 0.0
O777 O 0.46529 0.49722 0.01261 0.0
O778 O 0.47205 0.48507 0.02886 0.0
C779 C 0.49866 0.50045 0.98636 0.0
Tb780 Tb 0.1956 0.35392 0.34316 0.0
C781 C 0.1846 0.31231 0.34649 0.0
Tb782 Tb 0.15575 0.32466 0.34323 0.0
O783 O 0.19611 0.36362 0.36528 0.0
O784 O 0.17837 0.33692 0.35762 0.0
O785 O 0.19703 0.32868 0.34315 0.0
C786 C 0.1235 0.30453 0.3524 0.0
O787 O 0.16818 0.30856 0.34856 0.0
C788 C 0.16872 0.33052 0.31823 0.0
C789 C 0.16702 0.36659 0.33996 0.0
O790 O 0.12936 0.30018 0.34137 0.0
O791 O 0.13568 0.3204 0.35805 0.0
O792 O 0.15486 0.31535 0.32089 0.0
O793 O 0.17287 0.34167 0.32883 0.0
O794 O 0.15429 0.34991 0.34249 0.0
O795 O 0.18372 0.37071 0.33881 0.0
C796 C 0.22763 0.37402 0.33363 0.0
O797 O 0.2236 0.37538 0.34651 0.0
O798 O 0.21373 0.36118 0.32628 0.0
C799 C 0.18241 0.34834 0.36804 0.0
Tb800 Tb 0.66259 0.84622 0.34076 0.0
C801 C 0.70151 0.87415 0.35203 0.0
Tb802 Tb 0.68821 0.83151 0.34637 0.0
O803 O 0.66472 0.8544 0.3634 0.0
O804 O 0.66781 0.83248 0.35674 0.0
O805 O 0.68722 0.87209 0.34468 0.0
C806 C 0.71113 0.82307 0.35859 0.0
O807 O 0.70356 0.86009 0.35501 0.0
C808 C 0.682 0.83509 0.31968 0.0
C809 C 0.64916 0.80356 0.3351 0.0
O810 O 0.71431 0.83368 0.34835 0.0
O811 O 0.69495 0.81698 0.36177 0.0
O812 O 0.68668 0.82357 0.32378 0.0
O813 O 0.68298 0.84516 0.33033 0.0
O814 O 0.66362 0.80563 0.34219 0.0
O815 O 0.6469 0.81756 0.3324 0.0
C816 C 0.64006 0.85559 0.32913 0.0
O817 O 0.63766 0.8467 0.34038 0.0
O818 O 0.65514 0.85925 0.32453 0.0
C819 C 0.66901 0.84257 0.36742 0.0
Tb820 Tb 0.15656 0.83281 0.3455 0.0
C821 C 0.16794 0.80485 0.33505 0.0
Tb822 Tb 0.19642 0.84749 0.34094 0.0
O823 O 0.14841 0.82496 0.32284 0.0
O824 O 0.17408 0.8456 0.3296 0.0
O825 O 0.15592 0.80692 0.34177 0.0
C826 C 0.22771 0.85677 0.33083 0.0
O827 O 0.18356 0.81885 0.33251 0.0
C828 C 0.18786 0.84404 0.36732 0.0
C829 C 0.18489 0.87558 0.3504 0.0
O830 O 0.22015 0.8449 0.34005 0.0
O831 O 0.21778 0.8636 0.32745 0.0
O832 O 0.20345 0.85574 0.36372 0.0
O833 O 0.17876 0.83404 0.35647 0.0
O834 O 0.19682 0.87329 0.3438 0.0
O835 O 0.16931 0.86172 0.35312 0.0
C836 C 0.12663 0.82428 0.35783 0.0
O837 O 0.13882 0.82088 0.36242 0.0
O838 O 0.13113 0.83223 0.3461 0.0
C839 C 0.16422 0.8355 0.31894 0.0
Tb840 Tb 0.85944 0.68394 0.67393 0.0
C841 C 0.84788 0.64457 0.68225 0.0
Tb842 Tb 0.81953 0.6574 0.67767 0.0
O843 O 0.86721 0.68805 0.69677 0.0
O844 O 0.84132 0.67965 0.68941 0.0
O845 O 0.85929 0.65823 0.67517 0.0
C846 C 0.78825 0.63536 0.68769 0.0
O847 O 0.83259 0.64291 0.68569 0.0
C848 C 0.82841 0.66042 0.65144 0.0
C849 C 0.83144 0.69763 0.66987 0.0
O850 O 0.79606 0.63044 0.67859 0.0
O851 O 0.79798 0.65276 0.69105 0.0
O852 O 0.81254 0.65542 0.655 0.0
O853 O 0.8378 0.66125 0.6623 0.0
O854 O 0.81839 0.68204 0.67381 0.0
O855 O 0.84798 0.70107 0.6693 0.0
C856 C 0.88924 0.70578 0.66179 0.0
O857 O 0.87329 0.70051 0.65667 0.0
O858 O 0.88847 0.69877 0.67382 0.0
C859 C 0.85108 0.68142 0.70031 0.0
Tb860 Tb 0.32762 0.17751 0.67308 0.0
C861 C 0.36661 0.2058 0.68392 0.0
Tb862 Tb 0.35375 0.16331 0.67792 0.0
O863 O 0.32999 0.18554 0.69573 0.0
O864 O 0.3335 0.16395 0.68881 0.0
O865 O 0.35198 0.20353 0.67703 0.0
C866 C 0.37688 0.1549 0.68978 0.0
O867 O 0.36911 0.19193 0.6865 0.0
C868 C 0.34709 0.16724 0.65143 0.0
C869 C 0.31447 0.13494 0.66727 0.0
O870 O 0.37995 0.16565 0.67965 0.0
O871 O 0.36072 0.14868 0.69305 0.0
O872 O 0.35204 0.15581 0.6552 0.0
O873 O 0.34805 0.17704 0.66225 0.0
O874 O 0.32941 0.1372 0.67358 0.0
O875 O 0.31176 0.14878 0.66507 0.0
C876 C 0.30496 0.18671 0.66151 0.0
O877 O 0.30269 0.17798 0.67285 0.0
O878 O 0.31998 0.19031 0.65683 0.0
C879 C 0.33474 0.17398 0.69956 0.0
Tb880 Tb 0.82195 0.16534 0.67916 0.0
C881 C 0.83154 0.13701 0.66657 0.0
Tb882 Tb 0.86093 0.17912 0.67268 0.0
O883 O 0.81268 0.15778 0.65668 0.0
O884 O 0.83843 0.1786 0.66273 0.0
O885 O 0.82058 0.13922 0.67463 0.0
C886 C 0.89175 0.18712 0.6621 0.0
O887 O 0.84682 0.15086 0.66327 0.0
C888 C 0.85412 0.17549 0.69952 0.0
C889 C 0.85116 0.20775 0.68432 0.0
O890 O 0.88471 0.17655 0.67221 0.0
O891 O 0.88143 0.19322 0.65795 0.0
O892 O 0.86933 0.18719 0.69532 0.0
O893 O 0.8443 0.16564 0.68887 0.0
O894 O 0.86216 0.20528 0.67648 0.0
O895 O 0.83594 0.19397 0.68777 0.0
C896 C 0.79247 0.15696 0.69211 0.0
O897 O 0.79818 0.16751 0.68179 0.0
O898 O 0.80326 0.151 0.695 0.0
C899 C 0.82803 0.16877 0.65223 0.0
H900 H 0.29996 0.87004 0.06009 0.0
H901 H 0.32784 0.89189 0.05094 0.0
H902 H 0.35598 0.87417 0.07852 0.0
H903 H 0.32814 0.85232 0.08775 0.0
H904 H 0.37351 0.91023 0.0786 0.0
H905 H 0.34649 0.86034 0.0425 0.0
H906 H 0.32262 0.8382 0.02514 0.0
H907 H 0.32452 0.88202 1.00292 0.0
H908 H 0.34825 0.90443 0.02027 0.0
H909 H 0.45484 0.94903 0.04513 0.0
H910 H 0.42704 0.9285 0.05521 0.0
H911 H 0.399 0.94511 0.02639 0.0
H912 H 0.42668 0.9652 0.01604 0.0
H913 H 0.38107 0.90999 0.02705 0.0
H914 H 0.4113 0.9601 0.06245 0.0
H915 H 0.43482 0.98145 0.08036 0.0
H916 H 0.42607 0.93691 0.105 0.0
H917 H 0.40352 0.91527 0.08688 0.0
C918 C 0.31206 0.87071 0.06417 0.0
C919 C 0.31174 0.85932 0.07462 0.0
C920 C 0.32803 0.88324 0.05891 0.0
C921 C 0.34405 0.88454 0.06386 0.0
C922 C 0.34382 0.87345 0.07451 0.0
C923 C 0.32787 0.86098 0.07982 0.0
C924 C 0.36105 0.89742 0.05797 0.0
C925 C 0.3753 0.91004 0.06734 0.0
C926 C 0.36321 0.89751 0.04324 0.0
C927 C 0.34903 0.88405 0.03276 0.0
C928 C 0.34173 0.86525 0.03397 0.0
C929 C 0.32824 0.85266 0.02412 0.0
C930 C 0.32203 0.8587 0.01296 0.0
C931 C 0.32933 0.87736 0.01159 0.0
C932 C 0.34281 0.89001 0.02141 0.0
C933 C 0.44273 0.94828 0.04096 0.0
C934 C 0.44291 0.95869 0.02978 0.0
C935 C 0.42684 0.93662 0.04678 0.0
C936 C 0.41084 0.93534 0.0417 0.0
C937 C 0.4111 0.94579 0.03052 0.0
C938 C 0.42694 0.95733 0.02463 0.0
C939 C 0.39377 0.92283 0.04771 0.0
C940 C 0.37942 0.91027 0.03833 0.0
C941 C 0.3916 0.92277 0.06247 0.0
C942 C 0.4058 0.93596 0.07314 0.0
C943 C 0.41467 0.95481 0.07153 0.0
C944 C 0.42791 0.967 0.08174 0.0
C945 C 0.4321 0.96058 0.09379 0.0
C946 C 0.42303 0.94196 0.09565 0.0
C947 C 0.41012 0.92969 0.08534 0.0
H948 H 0.4423 0.97003 0.10171 0.0
H949 H 0.31158 0.84893 1.00535 0.0
H950 H 0.17934 0.47208 0.05877 0.0
H951 H 0.15624 0.4779 0.04953 0.0
H952 H 0.12545 0.45282 0.08459 0.0
H953 H 0.14873 0.44734 0.09416 0.0
H954 H 0.1054 0.44116 0.05878 0.0
H955 H 0.14663 0.49788 0.08459 0.0
H956 H 0.17594 0.52474 0.09142 0.0
H957 H 0.17961 0.54062 0.04877 0.0
H958 H 0.15042 0.5137 0.04164 0.0
H959 H 0.0431 0.47075 0.04519 0.0
H960 H 0.06522 0.46444 0.05607 0.0
H961 H 0.10139 0.49474 0.02518 0.0
H962 H 0.07938 0.50135 0.01447 0.0
H963 H 0.11833 0.50367 0.05018 0.0
H964 H 0.07809 0.44661 0.02387 0.0
H965 H 0.04905 0.41957 0.01659 0.0
H966 H 0.04378 0.40411 0.0594 0.0
H967 H 0.0727 0.4312 0.06696 0.0
C968 C 0.16779 0.46801 0.06466 0.0
C969 C 0.16602 0.45934 0.0773 0.0
C970 C 0.15454 0.47128 0.05931 0.0
C971 C 0.13918 0.46595 0.06644 0.0
C972 C 0.13719 0.45704 0.07892 0.0
C973 C 0.1505 0.45385 0.08433 0.0
C974 C 0.1252 0.46961 0.06077 0.0
C975 C 0.10814 0.45485 0.05708 0.0
C976 C 0.12888 0.48743 0.05828 0.0
C977 C 0.14641 0.50368 0.06255 0.0
C978 C 0.15375 0.50702 0.07664 0.0
C979 C 0.17033 0.52227 0.08057 0.0
C980 C 0.17965 0.53436 0.07053 0.0
C981 C 0.17239 0.53124 0.05654 0.0
C982 C 0.15582 0.51599 0.05255 0.0
C983 C 0.05573 0.47594 0.04067 0.0
C984 C 0.05951 0.48642 0.02893 0.0
C985 C 0.06834 0.47224 0.04685 0.0
C986 C 0.08494 0.47888 0.04134 0.0
C987 C 0.08871 0.48945 0.02963 0.0
C988 C 0.07611 0.49317 0.02348 0.0
C989 C 0.09853 0.47518 0.04792 0.0
C990 C 0.11554 0.48997 0.05186 0.0
C991 C 0.09482 0.45736 0.05054 0.0
C992 C 0.07747 0.44103 0.046 0.0
C993 C 0.07068 0.43751 0.03175 0.0
C994 C 0.05425 0.42217 0.02757 0.0
C995 C 0.04455 0.41016 0.03753 0.0
C996 C 0.05129 0.41344 0.05169 0.0
C997 C 0.06771 0.42878 0.05593 0.0
H998 H 0.03184 0.39828 0.03428 0.0
H999 H 0.19249 0.54616 0.0736 0.0
H1000 H 0.58683 0.70571 0.07198 0.0
H1001 H 0.57824 0.6764 0.05929 0.0
H1002 H 0.52326 0.66099 0.06001 0.0
H1003 H 0.53174 0.69009 0.07309 0.0
H1004 H 0.52842 0.63416 0.06799 0.0
H1005 H 0.54458 0.67213 0.02926 0.0
H1006 H 0.56383 0.69862 0.0163 0.0
H1007 H 0.60317 0.68237 0.0167 0.0
H1008 H 0.58425 0.65591 0.02985 0.0
H1009 H 0.49596 0.55244 0.02431 0.0
H1010 H 0.50307 0.58296 0.03329 0.0
H1011 H 0.55866 0.60189 0.03094 0.0
H1012 H 0.55157 0.57151 0.02143 0.0
H1013 H 0.55228 0.62719 0.02306 0.0
H1014 H 0.53727 0.59063 0.06302 0.0
H1015 H 0.51847 0.5643 0.07618 0.0
H1016 H 0.47743 0.57816 0.07391 0.0
H1017 H 0.49601 0.60457 0.06055 0.0
C1018 C 0.5729 0.6961 0.06945 0.0
C1019 C 0.55998 0.70029 0.07361 0.0
C1020 C 0.56801 0.67939 0.06205 0.0
C1021 C 0.55009 0.66649 0.05856 0.0
C1022 C 0.53717 0.67072 0.06253 0.0
C1023 C 0.54205 0.68745 0.06992 0.0
C1024 C 0.54481 0.64828 0.0514 0.0
C1025 C 0.53341 0.63265 0.05804 0.0
C1026 C 0.55166 0.64624 0.03859 0.0
C1027 C 0.56305 0.66212 0.03065 0.0
C1028 C 0.55739 0.67428 0.02668 0.0
C1029 C 0.56824 0.68928 0.01928 0.0
C1030 C 0.58473 0.6922 0.01571 0.0
C1031 C 0.5904 0.6801 0.01949 0.0
C1032 C 0.57961 0.66509 0.02691 0.0
C1033 C 0.5097 0.56311 0.02562 0.0
C1034 C 0.5232 0.55946 0.02221 0.0
C1035 C 0.51377 0.58058 0.03084 0.0
C1036 C 0.53145 0.59474 0.03312 0.0
C1037 C 0.54492 0.59124 0.02934 0.0
C1038 C 0.54084 0.57382 0.02391 0.0
C1039 C 0.53594 0.61305 0.0397 0.0
C1040 C 0.54722 0.6287 0.03298 0.0
C1041 C 0.52905 0.61514 0.05248 0.0
C1042 C 0.51794 0.59944 0.06065 0.0
C1043 C 0.5242 0.588 0.06525 0.0
C1044 C 0.51356 0.57306 0.07275 0.0
C1045 C 0.49669 0.56948 0.07582 0.0
C1046 C 0.49048 0.58093 0.07148 0.0
C1047 C 0.50106 0.5959 0.06395 0.0
H1048 H 0.48843 0.55789 0.08158 0.0
H1049 H 0.59311 0.70381 0.00998 0.0
H1050 H 0.89048 0.30567 0.94315 0.0
H1051 H 0.91089 0.33488 0.95622 0.0
H1052 H 0.87123 0.3509 0.9527 0.0
H1053 H 0.85091 0.32191 0.93922 0.0
H1054 H 0.90224 0.37764 0.94609 0.0
H1055 H 0.88222 0.33923 0.98433 0.0
H1056 H 0.87579 0.31257 0.99758 0.0
H1057 H 0.93079 0.32828 1.00022 0.0
H1058 H 0.93752 0.35491 0.9868 0.0
H1059 H 0.94932 0.45824 0.99167 0.0
H1060 H 0.92693 0.42793 0.98157 0.0
H1061 H 0.96468 0.40945 0.98615 0.0
H1062 H 0.98699 0.43964 0.99679 0.0
H1063 H 0.93382 0.38376 0.99267 0.0
H1064 H 0.95337 0.42179 0.95352 0.0
H1065 H 0.95945 0.44866 0.94078 0.0
H1066 H 0.90463 0.43352 0.93995 0.0
H1067 H 0.89827 0.40662 0.95289 0.0
C1068 C 0.88608 0.3154 0.94513 0.0
C1069 C 0.86902 0.31141 0.94009 0.0
C1070 C 0.89773 0.33206 0.95275 0.0
C1071 C 0.89259 0.34509 0.95558 0.0
C1072 C 0.87551 0.34107 0.95069 0.0
C1073 C 0.86384 0.3244 0.94309 0.0
C1074 C 0.90527 0.36319 0.96308 0.0
C1075 C 0.90894 0.37897 0.95638 0.0
C1076 C 0.91434 0.36499 0.97637 0.0
C1077 C 0.91035 0.34897 0.98443 0.0
C1078 C 0.89292 0.33692 0.98763 0.0
C1079 C 0.88923 0.32183 0.99519 0.0
C1080 C 0.90287 0.31871 0.99971 0.0
C1081 C 0.92024 0.3307 0.9967 0.0
C1082 C 0.924 0.34581 0.98912 0.0
C1083 C 0.95287 0.44772 0.9906 0.0
C1084 C 0.97002 0.45144 0.99498 0.0
C1085 C 0.94004 0.43037 0.98473 0.0
C1086 C 0.94415 0.41641 0.98277 0.0
C1087 C 0.96115 0.41996 0.98748 0.0
C1088 C 0.97392 0.43726 0.99356 0.0
C1089 C 0.93086 0.39823 0.97564 0.0
C1090 C 0.9271 0.38243 0.9824 0.0
C1091 C 0.92165 0.39639 0.96239 0.0
C1092 C 0.92539 0.41232 0.95432 0.0
C1093 C 0.94263 0.42425 0.95069 0.0
C1094 C 0.94612 0.4395 0.94343 0.0
C1095 C 0.93244 0.4429 0.93964 0.0
C1096 C 0.91522 0.43092 0.94296 0.0
C1097 C 0.91166 0.41566 0.95024 0.0
H1098 H 0.93513 0.45477 0.93412 0.0
H1099 H 0.89998 0.30702 1.00557 0.0
H1100 H 0.69695 0.5635 0.92708 0.0
H1101 H 0.67041 0.55832 0.93843 0.0
H1102 H 0.68988 0.54631 0.97671 0.0
H1103 H 0.7165 0.55166 0.96553 0.0
H1104 H 0.65601 0.52123 0.96977 0.0
H1105 H 0.68989 0.58643 0.97471 0.0
H1106 H 0.70725 0.61722 0.96656 0.0
H1107 H 0.66258 0.60824 0.93929 0.0
H1108 H 0.64501 0.57728 0.94714 0.0
H1109 H 0.58758 0.51521 0.0109 0.0
H1110 H 0.61614 0.52325 1.00193 0.0
H1111 H 0.60341 0.54513 0.96589 0.0
H1112 H 0.57522 0.53783 0.97522 0.0
H1113 H 0.63512 0.56586 0.97272 0.0
H1114 H 0.60429 0.49882 0.96348 0.0
H1115 H 0.58682 0.4674 0.97058 0.0
H1116 H 0.62592 0.47953 1.00485 0.0
H1117 H 0.64342 0.51106 0.99799 0.0
C1118 C 0.69572 0.56001 0.93798 0.0
C1119 C 0.70889 0.55794 0.94534 0.0
C1120 C 0.6805 0.55703 0.94446 0.0
C1121 C 0.67815 0.55202 0.95848 0.0
C1122 C 0.69133 0.55008 0.96588 0.0
C1123 C 0.70653 0.55307 0.95942 0.0
C1124 C 0.66171 0.54818 0.96529 0.0
C1125 C 0.65156 0.53109 0.97056 0.0
C1126 C 0.65566 0.56085 0.96612 0.0
C1127 C 0.66618 0.57947 0.96142 0.0
C1128 C 0.68381 0.59097 0.96689 0.0
C1129 C 0.69368 0.60846 0.96234 0.0
C1130 C 0.68604 0.61466 0.95238 0.0
C1131 C 0.66849 0.6034 0.94699 0.0
C1132 C 0.65856 0.58589 0.95149 0.0
C1133 C 0.5909 0.5217 1.00104 0.0
C1134 C 0.57913 0.52578 0.99371 0.0
C1135 C 0.60718 0.52611 0.99579 0.0
C1136 C 0.6119 0.53429 0.9829 0.0
C1137 C 0.60021 0.53873 0.97579 0.0
C1138 C 0.58402 0.5345 0.98111 0.0
C1139 C 0.62907 0.53867 0.97695 0.0
C1140 C 0.63947 0.55593 0.9719 0.0
C1141 C 0.63533 0.52612 0.97622 0.0
C1142 C 0.62486 0.50731 0.98043 0.0
C1143 C 0.60895 0.49481 0.97265 0.0
C1144 C 0.59912 0.47698 0.97658 0.0
C1145 C 0.60519 0.47151 0.98822 0.0
C1146 C 0.62118 0.48381 0.99588 0.0
C1147 C 0.63106 0.50164 0.99196 0.0
H1148 H 0.59756 0.45771 0.99126 0.0
H1149 H 0.6937 0.62821 0.94887 0.0
H1150 H 0.49298 0.15923 0.94207 0.0
H1151 H 0.49706 0.13528 0.95183 0.0
H1152 H 0.44466 0.11067 0.96645 0.0
H1153 H 0.4406 0.13481 0.9569 0.0
H1154 H 0.46858 0.11289 0.98687 0.0
H1155 H 0.4528 0.0911 0.93804 0.0
H1156 H 0.45431 0.09223 0.91215 0.0
H1157 H 0.50775 0.10271 0.91639 0.0
H1158 H 0.50664 0.10186 0.94232 0.0
H1159 H 0.47034 0.0326 1.0055 0.0
H1160 H 0.46213 0.05366 0.99534 0.0
H1161 H 0.51234 0.08115 0.97702 0.0
H1162 H 0.52049 0.06012 0.98686 0.0
H1163 H 0.48674 0.07552 0.95809 0.0
H1164 H 0.5032 0.09943 1.00701 0.0
H1165 H 0.50167 0.09801 0.03289 0.0
H1166 H 0.44698 0.0834 0.02843 0.0
H1167 H 0.44813 0.0845 1.00248 0.0
C1168 C 0.48233 0.14875 0.94739 0.0
C1169 C 0.46646 0.14897 0.9487 0.0
C1170 C 0.48462 0.13496 0.95286 0.0
C1171 C 0.47111 0.12104 0.95978 0.0
C1172 C 0.45526 0.12121 0.96112 0.0
C1173 C 0.4529 0.13495 0.95556 0.0
C1174 C 0.4738 0.10666 0.96595 0.0
C1175 C 0.47227 0.10451 0.98053 0.0
C1176 C 0.47892 0.09591 0.95775 0.0
C1177 C 0.4797 0.09661 0.94215 0.0
C1178 C 0.46494 0.09383 0.93347 0.0
C1179 C 0.46571 0.09437 0.91878 0.0
C1180 C 0.48114 0.0976 0.91263 0.0
C1181 C 0.49582 0.10024 0.92116 0.0
C1182 C 0.49512 0.09971 0.93586 0.0
C1183 C 0.47968 0.04321 0.99939 0.0
C1184 C 0.49611 0.04466 0.99707 0.0
C1185 C 0.47498 0.05528 0.9936 0.0
C1186 C 0.48666 0.06913 0.98547 0.0
C1187 C 0.50306 0.0706 0.98321 0.0
C1188 C 0.50774 0.05855 0.98893 0.0
C1189 C 0.48187 0.08199 0.97907 0.0
C1190 C 0.48296 0.08383 0.96443 0.0
C1191 C 0.47639 0.09247 0.98721 0.0
C1192 C 0.4757 0.09185 1.0028 0.0
C1193 C 0.49081 0.09577 0.01154 0.0
C1194 C 0.49002 0.09505 0.02622 0.0
C1195 C 0.47422 0.09056 0.03229 0.0
C1196 C 0.4592 0.08684 0.0237 0.0
C1197 C 0.45991 0.08752 0.00901 0.0
H1198 H 0.47364 0.09002 0.04366 0.0
H1199 H 0.48169 0.098 0.90125 0.0
H1200 H 0.70828 0.13144 0.93749 0.0
H1201 H 0.68073 0.10926 0.94701 0.0
H1202 H 0.6704 0.15238 0.95957 0.0
H1203 H 0.69775 0.17454 0.95 0.0
H1204 H 0.66569 0.13094 0.98075 0.0
H1205 H 0.64759 0.12169 0.93077 0.0
H1206 H 0.64912 0.11476 0.90548 0.0
H1207 H 0.64167 0.06235 0.9144 0.0
H1208 H 0.64034 0.06909 0.93979 0.0
H1209 H 0.5774 0.07944 0.99862 0.0
H1210 H 0.6044 0.09999 0.98769 0.0
H1211 H 0.60966 0.05414 0.97293 0.0
H1212 H 0.58223 0.03348 0.98342 0.0
H1213 H 0.61756 0.07621 0.95302 0.0
H1214 H 0.63566 0.08466 1.00254 0.0
H1215 H 0.6345 0.09101 0.02803 0.0
H1216 H 0.6427 0.14403 0.02035 0.0
H1217 H 0.64367 0.13791 0.99478 0.0
C1218 C 0.70002 0.13617 0.94209 0.0
C1219 C 0.70533 0.15484 0.94302 0.0
C1220 C 0.68427 0.12346 0.94756 0.0
C1221 C 0.67341 0.1291 0.95398 0.0
C1222 C 0.67858 0.14767 0.95475 0.0
C1223 C 0.69428 0.16036 0.9493 0.0
C1224 C 0.65693 0.11585 0.9603 0.0
C1225 C 0.65507 0.11909 0.97463 0.0
C1226 C 0.64328 0.10003 0.95248 0.0
C1227 C 0.64408 0.09599 0.93721 0.0
C1228 C 0.64644 0.10876 0.92736 0.0
C1229 C 0.64724 0.10485 0.913 0.0
C1230 C 0.64555 0.08815 0.90834 0.0
C1231 C 0.64301 0.0753 0.91803 0.0
C1232 C 0.64223 0.07915 0.93241 0.0
C1233 C 0.58436 0.07376 0.99309 0.0
C1234 C 0.57784 0.05489 0.99202 0.0
C1235 C 0.59986 0.08553 0.98689 0.0
C1236 C 0.60939 0.07874 0.97971 0.0
C1237 C 0.60269 0.0598 0.97847 0.0
C1238 C 0.58706 0.048 0.98453 0.0
C1239 C 0.62623 0.09136 0.97346 0.0
C1240 C 0.62818 0.08801 0.95917 0.0
C1241 C 0.64007 0.107 0.98135 0.0
C1242 C 0.63958 0.11076 0.99673 0.0
C1243 C 0.63709 0.09763 1.00628 0.0
C1244 C 0.63649 0.10119 0.02074 0.0
C1245 C 0.63848 0.1179 0.0258 0.0
C1246 C 0.64113 0.13109 0.01641 0.0
C1247 C 0.64173 0.12759 1.00194 0.0
H1248 H 0.63801 0.12063 0.037 0.0
H1249 H 0.64617 0.08515 0.89722 0.0
H1250 H 0.84376 0.53468 0.93458 0.0
H1251 H 0.86319 0.52609 0.9473 0.0
H1252 H 0.90887 0.57504 0.93623 0.0
H1253 H 0.88959 0.58383 0.92366 0.0
H1254 H 0.91258 0.5451 0.93172 0.0
H1255 H 0.89475 0.57159 0.9695 0.0
H1256 H 0.87296 0.57425 0.98357 0.0
H1257 H 0.85173 0.51892 0.99415 0.0
H1258 H 0.87326 0.51587 0.97999 0.0
H1259 H 0.98017 0.5481 0.97728 0.0
H1260 H 0.95902 0.55447 0.96472 0.0
H1261 H 0.91593 0.5085 0.98203 0.0
H1262 H 0.9372 0.50261 0.99509 0.0
H1263 H 0.90949 0.5349 0.9829 0.0
H1264 H 0.9267 0.50759 0.94638 0.0
H1265 H 0.94713 0.50312 0.93179 0.0
H1266 H 0.9678 0.55705 0.91813 0.0
H1267 H 0.94763 0.56192 0.93274 0.0
C1268 C 0.85793 0.54373 0.93499 0.0
C1269 C 0.86508 0.55995 0.92806 0.0
C1270 C 0.86903 0.53876 0.94223 0.0
C1271 C 0.8875 0.54996 0.94278 0.0
C1272 C 0.89467 0.56613 0.93589 0.0
C1273 C 0.8836 0.57111 0.92867 0.0
C1274 C 0.89944 0.54485 0.95045 0.0
C1275 C 0.91205 0.54305 0.94295 0.0
C1276 C 0.89833 0.54155 0.96498 0.0
C1277 C 0.8855 0.54345 0.97358 0.0
C1278 C 0.88535 0.55995 0.97475 0.0
C1279 C 0.87306 0.56154 0.98275 0.0
C1280 C 0.86094 0.54675 0.98972 0.0
C1281 C 0.86111 0.53036 0.98873 0.0
C1282 C 0.87337 0.5287 0.98074 0.0
C1283 C 0.96618 0.53941 0.97843 0.0
C1284 C 0.96029 0.52488 0.98714 0.0
C1285 C 0.95407 0.54295 0.97115 0.0
C1286 C 0.93579 0.53175 0.97217 0.0
C1287 C 0.92993 0.51732 0.98102 0.0
C1288 C 0.94208 0.51394 0.98847 0.0
C1289 C 0.92285 0.53533 0.96422 0.0
C1290 C 0.91002 0.53683 0.97165 0.0
C1291 C 0.92357 0.53806 0.94955 0.0
C1292 C 0.93573 0.53516 0.94074 0.0
C1293 C 0.93568 0.51854 0.94034 0.0
C1294 C 0.9472 0.51593 0.93205 0.0
C1295 C 0.95876 0.52981 0.92406 0.0
C1296 C 0.95883 0.54632 0.92433 0.0
C1297 C 0.94734 0.549 0.93259 0.0
H1298 H 0.96762 0.52778 0.91764 0.0
H1299 H 0.85143 0.548 0.9959 0.0
H1300 H 0.48215 0.31401 0.95481 0.0
H1301 H 0.48852 0.3424 0.96805 0.0
H1302 H 0.45043 0.34613 0.93993 0.0
H1303 H 0.44394 0.31781 0.92674 0.0
H1304 H 0.4797 0.37798 0.94351 0.0
H1305 H 0.44174 0.3338 0.974 0.0
H1306 H 0.4317 0.30761 0.98859 0.0
H1307 H 0.47994 0.33645 0.01551 0.0
H1308 H 0.49037 0.36274 1.00096 0.0
H1309 H 0.47101 0.43713 1.00428 0.0
H1310 H 0.46305 0.40713 0.99307 0.0
H1311 H 0.51444 0.42998 0.97674 0.0
H1312 H 0.52255 0.45984 0.988 0.0
H1313 H 0.47704 0.3845 0.99554 0.0
H1314 H 0.5096 0.41131 0.94349 0.0
H1315 H 0.51577 0.43626 0.92819 0.0
H1316 H 0.47226 0.44021 0.94363 0.0
H1317 H 0.4659 0.41539 0.95901 0.0
C1318 C 0.47496 0.32074 0.95155 0.0
C1319 C 0.4626 0.31362 0.93963 0.0
C1320 C 0.47864 0.33702 0.95913 0.0
C1321 C 0.46994 0.34645 0.95503 0.0
C1322 C 0.45744 0.33923 0.94326 0.0
C1323 C 0.45377 0.32302 0.93569 0.0
C1324 C 0.47412 0.36408 0.96271 0.0
C1325 C 0.47917 0.37937 0.9549 0.0
C1326 C 0.47314 0.36594 0.97754 0.0
C1327 C 0.46691 0.35016 0.9863 0.0
C1328 C 0.45027 0.3345 0.98296 0.0
C1329 C 0.4445 0.31965 0.99123 0.0
C1330 C 0.4552 0.32034 1.00294 0.0
C1331 C 0.47168 0.33592 1.00642 0.0
C1332 C 0.47752 0.3508 0.99817 0.0
C1333 C 0.48069 0.43576 0.99841 0.0
C1334 C 0.4974 0.45101 0.99696 0.0
C1335 C 0.47611 0.41857 0.99202 0.0
C1336 C 0.48806 0.41632 0.98391 0.0
C1337 C 0.5049 0.4314 0.98277 0.0
C1338 C 0.50952 0.44851 0.98924 0.0
C1339 C 0.48286 0.39836 0.97635 0.0
C1340 C 0.47766 0.38307 0.98417 0.0
C1341 C 0.48335 0.39637 0.96148 0.0
C1342 C 0.48736 0.41158 0.95247 0.0
C1343 C 0.50137 0.41753 0.94361 0.0
C1344 C 0.50491 0.43165 0.93493 0.0
C1345 C 0.49441 0.43981 0.93491 0.0
C1346 C 0.48044 0.43395 0.94367 0.0
C1347 C 0.47691 0.4199 0.95241 0.0
H1348 H 0.49714 0.4507 0.92815 0.0
H1349 H 0.4507 0.30883 0.00934 0.0
H1350 H 0.16845 0.68986 0.07767 0.0
H1351 H 0.14764 0.66075 0.06456 0.0
H1352 H 0.10574 0.67328 0.06793 0.0
H1353 H 0.12645 0.70242 0.08094 0.0
H1354 H 0.09501 0.63927 0.07473 0.0
H1355 H 0.1246 0.67516 0.03652 0.0
H1356 H 0.15028 0.69507 0.02354 0.0
H1357 H 0.16505 0.65381 0.0207 0.0
H1358 H 0.13958 0.63374 0.03384 0.0
H1359 H 0.0311 0.57075 0.02397 0.0
H1360 H 0.05334 0.60066 0.03522 0.0
H1361 H 0.09186 0.58305 0.03739 0.0
H1362 H 0.06967 0.55303 0.02636 0.0
H1363 H 0.10456 0.61921 0.02752 0.0
H1364 H 0.07705 0.58442 0.06664 0.0
H1365 H 0.05204 0.5641 0.08003 0.0
H1366 H 0.03381 0.60267 0.08098 0.0
H1367 H 0.05884 0.62332 0.06765 0.0
C1368 C 0.15487 0.68656 0.07544 0.0
C1369 C 0.14915 0.69851 0.08041 0.0
C1370 C 0.14296 0.66987 0.06795 0.0
C1371 C 0.1251 0.66481 0.06518 0.0
C1372 C 0.11941 0.67681 0.06999 0.0
C1373 C 0.13128 0.69346 0.07747 0.0
C1374 C 0.1122 0.64683 0.05764 0.0
C1375 C 0.09702 0.63506 0.06432 0.0
C1376 C 0.11498 0.64099 0.04421 0.0
C1377 C 0.13028 0.65302 0.03628 0.0
C1378 C 0.1334 0.67039 0.03322 0.0
C1379 C 0.14791 0.68169 0.02582 0.0
C1380 C 0.15932 0.67573 0.02133 0.0
C1381 C 0.15622 0.65842 0.0242 0.0
C1382 C 0.14174 0.64707 0.03161 0.0
C1383 C 0.04434 0.57328 0.02672 0.0
C1384 C 0.0486 0.55949 0.02426 0.0
C1385 C 0.05701 0.59036 0.03319 0.0
C1386 C 0.07424 0.59406 0.03715 0.0
C1387 C 0.07866 0.5805 0.03438 0.0
C1388 C 0.06593 0.56333 0.02812 0.0
C1389 C 0.08744 0.6119 0.04458 0.0
C1390 C 0.10262 0.62355 0.03791 0.0
C1391 C 0.08476 0.61763 0.05804 0.0
C1392 C 0.06969 0.60531 0.06603 0.0
C1393 C 0.06763 0.5885 0.06961 0.0
C1394 C 0.05347 0.57694 0.07721 0.0
C1395 C 0.04125 0.58201 0.08126 0.0
C1396 C 0.04326 0.59874 0.07781 0.0
C1397 C 0.05747 0.61041 0.07028 0.0
H1398 H 0.03027 0.57301 0.08712 0.0
H1399 H 0.17054 0.6845 0.0156 0.0
H1400 H 0.31029 0.45673 0.06996 0.0
H1401 H 0.33657 0.46495 0.05718 0.0
H1402 H 0.36062 0.45343 0.09302 0.0
H1403 H 0.33478 0.44605 0.10611 0.0
H1404 H 0.38452 0.48315 0.08262 0.0
H1405 H 0.34134 0.42317 0.06295 0.0
H1406 H 0.31254 0.3992 0.05163 0.0
H1407 H 0.32042 0.42995 0.01524 0.0
H1408 H 0.34918 0.45423 0.02643 0.0
H1409 H 0.45008 0.47338 0.04892 0.0
H1410 H 0.42318 0.46637 0.06046 0.0
H1411 H 0.40579 0.48614 0.02564 0.0
H1412 H 0.43279 0.49317 0.01398 0.0
H1413 H 0.37864 0.45317 0.03481 0.0
H1414 H 0.42219 0.51315 0.05504 0.0
H1415 H 0.45218 0.53518 0.06567 0.0
H1416 H 0.44411 0.50244 0.10081 0.0
H1417 H 0.41405 0.48015 0.09036 0.0
C1418 C 0.32124 0.45616 0.07521 0.0
C1419 C 0.3203 0.45059 0.08907 0.0
C1420 C 0.33622 0.46067 0.06781 0.0
C1421 C 0.35052 0.45955 0.07403 0.0
C1422 C 0.34976 0.45433 0.08794 0.0
C1423 C 0.33485 0.44991 0.09537 0.0
C1424 C 0.36623 0.46366 0.06603 0.0
C1425 C 0.38318 0.47644 0.07223 0.0
C1426 C 0.36461 0.45518 0.05235 0.0
C1427 C 0.34732 0.44061 0.0456 0.0
C1428 C 0.33686 0.42489 0.05258 0.0
C1429 C 0.32056 0.41124 0.04618 0.0
C1430 C 0.31463 0.41307 0.03274 0.0
C1431 C 0.32501 0.42856 0.02566 0.0
C1432 C 0.34132 0.44227 0.03202 0.0
C1433 C 0.44049 0.47616 0.04368 0.0
C1434 C 0.44351 0.48386 0.03058 0.0
C1435 C 0.42515 0.47218 0.0503 0.0
C1436 C 0.41254 0.47587 0.04396 0.0
C1437 C 0.41534 0.48319 0.0307 0.0
C1438 C 0.43077 0.48726 0.02409 0.0
C1439 C 0.39674 0.47254 0.05144 0.0
C1440 C 0.37986 0.45993 0.04516 0.0
C1441 C 0.3984 0.48104 0.06508 0.0
C1442 C 0.41593 0.49497 0.0719 0.0
C1443 C 0.4268 0.51068 0.06506 0.0
C1444 C 0.44379 0.5232 0.07103 0.0
C1445 C 0.45002 0.52016 0.08387 0.0
C1446 C 0.43922 0.50475 0.09087 0.0
C1447 C 0.42218 0.49221 0.08495 0.0
H1448 H 0.46323 0.52975 0.08834 0.0
H1449 H 0.30201 0.40248 0.0278 0.0
H1450 H 0.58121 0.87756 0.05794 0.0
H1451 H 0.57488 0.90014 0.04825 0.0
H1452 H 0.52448 0.8751 0.06637 0.0
H1453 H 0.53057 0.85227 0.07587 0.0
H1454 H 0.52138 0.88211 0.03901 0.0
H1455 H 0.5586 0.91506 0.08118 0.0
H1456 H 0.58536 0.92763 0.09767 0.0
H1457 H 0.61714 0.95894 0.06521 0.0
H1458 H 0.59058 0.94636 0.04846 0.0
H1459 H 0.49871 0.95051 0.03145 0.0
H1460 H 0.50641 0.92873 0.04043 0.0
H1461 H 0.55744 0.95757 0.02355 0.0
H1462 H 0.54996 0.97978 0.01473 0.0
H1463 H 0.56094 0.94871 0.04957 0.0
H1464 H 0.52395 0.91639 1.00746 0.0
H1465 H 0.49735 0.90386 0.99079 0.0
H1466 H 0.4654 0.8713 0.02268 0.0
H1467 H 0.49179 0.88381 0.03961 0.0
C1468 C 0.56876 0.87683 0.05984 0.0
C1469 C 0.55641 0.86309 0.0677 0.0
C1470 C 0.56521 0.88984 0.05438 0.0
C1471 C 0.54925 0.88942 0.05665 0.0
C1472 C 0.5369 0.87574 0.0645 0.0
C1473 C 0.54047 0.86278 0.07002 0.0
C1474 C 0.54524 0.903 0.05062 0.0
C1475 C 0.52991 0.89667 0.04146 0.0
C1476 C 0.55664 0.92202 0.05347 0.0
C1477 C 0.57262 0.92962 0.06352 0.0
C1478 C 0.57131 0.9245 0.07752 0.0
C1479 C 0.58644 0.93166 0.08693 0.0
C1480 C 0.60295 0.94404 0.08248 0.0
C1481 C 0.60435 0.94933 0.06863 0.0
C1482 C 0.58926 0.9422 0.05918 0.0
C1483 C 0.51154 0.95222 0.02952 0.0
C1484 C 0.52365 0.9669 0.02224 0.0
C1485 C 0.51592 0.93967 0.03466 0.0
C1486 C 0.53242 0.94129 0.03251 0.0
C1487 C 0.5446 0.95597 0.02532 0.0
C1488 C 0.54026 0.96863 0.02022 0.0
C1489 C 0.53699 0.92782 0.03801 0.0
C1490 C 0.55242 0.93416 0.04706 0.0
C1491 C 0.52573 0.90879 0.03501 0.0
C1492 C 0.50984 0.90116 0.02484 0.0
C1493 C 0.51124 0.90665 0.01095 0.0
C1494 C 0.4962 0.89954 1.00145 0.0
C1495 C 0.47969 0.88682 1.00568 0.0
C1496 C 0.47819 0.88116 0.01942 0.0
C1497 C 0.49319 0.88824 0.02897 0.0
H1498 H 0.46806 0.88134 0.99831 0.0
H1499 H 0.61465 0.94956 0.08978 0.0
H1500 H 0.97792 0.17447 0.3906 0.0
H1501 H 1.00541 0.19639 0.38113 0.0
H1502 H 0.01202 0.23757 0.41318 0.0
H1503 H 0.98409 0.21577 0.42247 0.0
H1504 H 0.01942 0.25152 0.38794 0.0
H1505 H 0.03698 0.21676 0.41548 0.0
H1506 H 0.03569 0.18907 0.42381 0.0
H1507 H 0.0439 0.17437 0.382 0.0
H1508 H 0.045 0.20186 0.37336 0.0
H1509 H 0.11011 0.31236 0.37549 0.0
H1510 H 0.08273 0.292 0.3862 0.0
H1511 H 0.07132 0.2493 0.35384 0.0
H1512 H 0.09866 0.26963 0.34309 0.0
H1513 H 0.06701 0.23701 0.38039 0.0
H1514 H 0.04862 0.27184 0.35296 0.0
H1515 H 0.05033 0.29993 0.3451 0.0
H1516 H 0.04436 0.31501 0.38754 0.0
H1517 H 0.04285 0.28712 0.39569 0.0
C1518 C 0.9851 0.18822 0.3956 0.0
C1519 C 0.97868 0.19331 0.4073 0.0
C1520 C 1.00097 0.20072 0.39025 0.0
C1521 C 0.01097 0.21863 0.39652 0.0
C1522 C 1.0046 0.22383 0.40818 0.0
C1523 C 0.98869 0.21129 0.41356 0.0
C1524 C 0.02789 0.2319 0.39073 0.0
C1525 C 0.02994 0.24845 0.38651 0.0
C1526 C 0.04156 0.22785 0.3886 0.0
C1527 C 0.04091 0.21129 0.39375 0.0
C1528 C 0.03837 0.20755 0.40803 0.0
C1529 C 0.0377 0.1919 0.41282 0.0
C1530 C 0.03967 0.17994 0.40343 0.0
C1531 C 0.04236 0.18363 0.38925 0.0
C1532 C 0.04302 0.19926 0.38441 0.0
C1533 C 0.10166 0.29869 0.37058 0.0
C1534 C 0.10646 0.29261 0.35841 0.0
C1535 C 0.08601 0.28706 0.37671 0.0
C1536 C 0.07487 0.26911 0.37079 0.0
C1537 C 0.07967 0.26306 0.3586 0.0
C1538 C 0.09526 0.27472 0.35243 0.0
C1539 C 0.05843 0.2565 0.37747 0.0
C1540 C 0.05651 0.24008 0.38187 0.0
C1541 C 0.04494 0.26073 0.37984 0.0
C1542 C 0.04581 0.27749 0.37496 0.0
C1543 C 0.04782 0.28123 0.36064 0.0
C1544 C 0.04873 0.2971 0.35613 0.0
C1545 C 0.04751 0.30928 0.36582 0.0
C1546 C 0.04533 0.30558 0.38005 0.0
C1547 C 0.04443 0.28974 0.38462 0.0
H1548 H 0.04821 0.32155 0.36231 0.0
H1549 H 0.03915 0.16784 0.40716 0.0
H1550 H 0.81211 0.77528 0.42767 0.0
H1551 H 0.78795 0.78 0.41916 0.0
H1552 H 0.82489 0.82711 0.39876 0.0
H1553 H 0.84917 0.8229 0.40766 0.0
H1554 H 0.80118 0.8335 0.41078 0.0
H1555 H 0.79921 0.78534 0.38017 0.0
H1556 H 0.79739 0.75574 0.3746 0.0
H1557 H 0.74722 0.72823 0.39254 0.0
H1558 H 0.74886 0.75771 0.3984 0.0
H1559 H 0.74654 0.83954 0.35573 0.0
H1560 H 0.76844 0.83463 0.36888 0.0
H1561 H 0.72716 0.79385 0.39155 0.0
H1562 H 0.70521 0.79892 0.37857 0.0
H1563 H 0.75108 0.78339 0.38062 0.0
H1564 H 0.75143 0.83264 0.4068 0.0
H1565 H 0.75378 0.86257 0.41127 0.0
H1566 H 0.80769 0.88904 0.40046 0.0
H1567 H 0.80559 0.85921 0.39565 0.0
C1568 C 0.81516 0.78682 0.42156 0.0
C1569 C 0.83262 0.79861 0.41826 0.0
C1570 C 0.80128 0.78941 0.41659 0.0
C1571 C 0.80453 0.80377 0.40814 0.0
C1572 C 0.82201 0.8159 0.40522 0.0
C1573 C 0.83587 0.81334 0.41019 0.0
C1574 C 0.78972 0.80582 0.40183 0.0
C1575 C 0.79031 0.82261 0.40408 0.0
C1576 C 0.77527 0.79146 0.39337 0.0
C1577 C 0.77426 0.77373 0.38987 0.0
C1578 C 0.78786 0.77299 0.38304 0.0
C1579 C 0.78685 0.75623 0.37981 0.0
C1580 C 0.77223 0.74012 0.38326 0.0
C1581 C 0.75856 0.74072 0.38991 0.0
C1582 C 0.75952 0.75745 0.39318 0.0
C1583 C 0.74214 0.82948 0.36348 0.0
C1584 C 0.7242 0.81956 0.36611 0.0
C1585 C 0.75465 0.82674 0.37101 0.0
C1586 C 0.74942 0.81393 0.38123 0.0
C1587 C 0.73145 0.80377 0.3837 0.0
C1588 C 0.71896 0.80669 0.3763 0.0
C1589 C 0.76279 0.8112 0.38929 0.0
C1590 C 0.76188 0.79426 0.38741 0.0
C1591 C 0.77703 0.82552 0.39794 0.0
C1592 C 0.77831 0.84356 0.40079 0.0
C1593 C 0.76376 0.84479 0.40525 0.0
C1594 C 0.76505 0.86177 0.40786 0.0
C1595 C 0.78087 0.8777 0.40614 0.0
C1596 C 0.79543 0.87668 0.4018 0.0
C1597 C 0.7942 0.85972 0.39914 0.0
H1598 H 0.78185 0.89084 0.40819 0.0
H1599 H 0.77146 0.72716 0.38074 0.0
H1600 H 0.24495 0.04538 0.39573 0.0
H1601 H 0.23813 0.01662 0.3829 0.0
H1602 H 0.19618 0.98712 0.40993 0.0
H1603 H 0.20287 0.01575 0.42275 0.0
H1604 H 0.21592 0.97155 0.40748 0.0
H1605 H 0.18789 0.99341 0.37517 0.0
H1606 H 0.18658 0.01554 0.35992 0.0
H1607 H 0.22589 0.01448 0.33495 0.0
H1608 H 0.22761 0.99252 0.35018 0.0
H1609 H 0.16846 0.88508 0.37007 0.0
H1610 H 0.17709 0.91559 0.38035 0.0
H1611 H 0.22057 0.93895 0.35381 0.0
H1612 H 0.21205 0.90839 0.3434 0.0
H1613 H 0.20233 0.95838 0.35541 0.0
H1614 H 0.228 0.93399 0.38646 0.0
H1615 H 0.22927 0.91193 0.40176 0.0
H1616 H 0.19512 0.91833 0.42972 0.0
H1617 H 0.19289 0.93975 0.41422 0.0
C1618 C 0.2341 0.03279 0.39882 0.0
C1619 C 0.2245 0.03291 0.41032 0.0
C1620 C 0.23024 0.01633 0.39148 0.0
C1621 C 0.21658 0.99964 0.39539 0.0
C1622 C 0.20684 0.99977 0.40675 0.0
C1623 C 0.21072 0.01618 0.4141 0.0
C1624 C 0.21265 0.98197 0.38798 0.0
C1625 C 0.21271 0.96859 0.39612 0.0
C1626 C 0.20906 0.9783 0.37308 0.0
C1627 C 0.20802 0.99148 0.36391 0.0
C1628 C 0.19636 0.99801 0.3665 0.0
C1629 C 0.19552 0.0105 0.35784 0.0
C1630 C 0.20618 0.01645 0.3465 0.0
C1631 C 0.21767 0.00988 0.34376 0.0
C1632 C 0.21857 0.9974 0.35239 0.0
C1633 C 0.17973 0.89668 0.36627 0.0
C1634 C 0.18954 0.89425 0.35588 0.0
C1635 C 0.1847 0.9141 0.37224 0.0
C1636 C 0.19953 0.92951 0.36796 0.0
C1637 C 0.20908 0.92724 0.35729 0.0
C1638 C 0.20422 0.90976 0.35138 0.0
C1639 C 0.20522 0.94785 0.37498 0.0
C1640 C 0.20556 0.96136 0.36677 0.0
C1641 C 0.20916 0.95164 0.38984 0.0
C1642 C 0.21011 0.93837 0.39904 0.0
C1643 C 0.22048 0.93046 0.39572 0.0
C1644 C 0.22137 0.91805 0.40444 0.0
C1645 C 0.21221 0.91367 0.41667 0.0
C1646 C 0.20209 0.92164 0.42018 0.0
C1647 C 0.20096 0.93387 0.4114 0.0
H1648 H 0.213 0.90415 0.42345 0.0
H1649 H 0.20551 0.02612 0.33981 0.0
H1650 H 0.54956 0.65976 0.25419 0.0
H1651 H 0.57036 0.68827 0.26787 0.0
H1652 H 0.54328 0.6675 0.30545 0.0
H1653 H 0.52242 0.63875 0.29183 0.0
H1654 H 0.55161 0.70243 0.30353 0.0
H1655 H 0.5822 0.66902 0.30094 0.0
H1656 H 0.59398 0.65117 0.28925 0.0
H1657 H 0.62621 0.69631 0.26528 0.0
H1658 H 0.61443 0.71436 0.27668 0.0
H1659 H 0.6466 0.7707 0.34006 0.0
H1660 H 0.62423 0.74037 0.32973 0.0
H1661 H 0.59833 0.76405 0.30622 0.0
H1662 H 0.62035 0.79428 0.31669 0.0
H1663 H 0.61615 0.72589 0.30355 0.0
H1664 H 0.5545 0.73479 0.30083 0.0
H1665 H 0.54272 0.75155 0.31417 0.0
H1666 H 0.57254 0.75325 0.35208 0.0
H1667 H 0.58433 0.7363 0.33902 0.0
C1668 C 0.54808 0.66113 0.2654 0.0
C1669 C 0.53437 0.64681 0.27191 0.0
C1670 C 0.55999 0.67751 0.27321 0.0
C1671 C 0.55857 0.67998 0.28775 0.0
C1672 C 0.54466 0.66592 0.29425 0.0
C1673 C 0.53271 0.64949 0.28642 0.0
C1674 C 0.57172 0.6972 0.29613 0.0
C1675 C 0.56572 0.70755 0.30354 0.0
C1676 C 0.59014 0.70377 0.29643 0.0
C1677 C 0.59732 0.69299 0.28959 0.0
C1678 C 0.59171 0.6751 0.2931 0.0
C1679 C 0.5984 0.66495 0.28654 0.0
C1680 C 0.6108 0.67258 0.2765 0.0
C1681 C 0.61658 0.69041 0.27304 0.0
C1682 C 0.60992 0.70061 0.27956 0.0
C1683 C 0.63607 0.76946 0.33278 0.0
C1684 C 0.63525 0.78498 0.32931 0.0
C1685 C 0.62329 0.75208 0.32684 0.0
C1686 C 0.60942 0.74982 0.3173 0.0
C1687 C 0.60864 0.76532 0.31378 0.0
C1688 C 0.62132 0.78266 0.31977 0.0
C1689 C 0.59609 0.73137 0.31069 0.0
C1690 C 0.60205 0.72078 0.30358 0.0
C1691 C 0.57763 0.72445 0.3109 0.0
C1692 C 0.5704 0.73441 0.31891 0.0
C1693 C 0.55848 0.73866 0.31203 0.0
C1694 C 0.55181 0.74822 0.31954 0.0
C1695 C 0.55692 0.75351 0.33395 0.0
C1696 C 0.56865 0.7492 0.3409 0.0
C1697 C 0.57534 0.73964 0.33345 0.0
H1698 H 0.55176 0.76092 0.33974 0.0
H1699 H 0.61597 0.6647 0.27143 0.0
H1700 H 0.36125 0.8962 0.25581 0.0
H1701 H 0.33449 0.8916 0.26647 0.0
H1702 H 0.34466 0.86479 0.30016 0.0
H1703 H 0.37156 0.8696 0.28976 0.0
H1704 H 0.30996 0.84616 0.28976 0.0
H1705 H 0.35349 0.9083 0.30569 0.0
H1706 H 0.37606 0.94003 0.3025 0.0
H1707 H 0.33776 0.94685 0.27759 0.0
H1708 H 0.31502 0.91506 0.28048 0.0
H1709 H 0.25081 0.84532 0.33849 0.0
H1710 H 0.2774 0.85076 0.32709 0.0
H1711 H 0.26797 0.88187 0.29669 0.0
H1712 H 0.2416 0.87687 0.30833 0.0
H1713 H 0.30175 0.89821 0.3044 0.0
H1714 H 0.25806 0.83715 0.28839 0.0
H1715 H 0.23489 0.80546 0.29093 0.0
H1716 H 0.27245 0.79627 0.31457 0.0
H1717 H 0.2958 0.828 0.31234 0.0
C1718 C 0.35791 0.88948 0.26556 0.0
C1719 C 0.36865 0.88329 0.27189 0.0
C1720 C 0.34255 0.8868 0.27162 0.0
C1721 C 0.3376 0.87794 0.28418 0.0
C1722 C 0.34815 0.87158 0.29044 0.0
C1723 C 0.36352 0.8743 0.28442 0.0
C1724 C 0.32147 0.87532 0.29087 0.0
C1725 C 0.30825 0.85755 0.29311 0.0
C1726 C 0.31896 0.89012 0.29486 0.0
C1727 C 0.33261 0.90925 0.29318 0.0
C1728 C 0.34992 0.91652 0.29944 0.0
C1729 C 0.36274 0.93453 0.2977 0.0
C1730 C 0.35836 0.94543 0.28982 0.0
C1731 C 0.34114 0.93837 0.28368 0.0
C1732 C 0.32828 0.92037 0.28537 0.0
C1733 C 0.25447 0.85339 0.32942 0.0
C1734 C 0.24416 0.86066 0.32429 0.0
C1735 C 0.26961 0.8564 0.32284 0.0
C1736 C 0.27456 0.86646 0.31083 0.0
C1737 C 0.26441 0.87402 0.30588 0.0
C1738 C 0.24935 0.87115 0.31254 0.0
C1739 C 0.29026 0.86904 0.30342 0.0
C1740 C 0.30339 0.88678 0.30102 0.0
C1741 C 0.29259 0.85419 0.29913 0.0
C1742 C 0.27865 0.83501 0.30031 0.0
C1743 C 0.26136 0.82841 0.2942 0.0
C1744 C 0.24819 0.81043 0.29558 0.0
C1745 C 0.25218 0.79887 0.30294 0.0
C1746 C 0.26937 0.80525 0.30889 0.0
C1747 C 0.28258 0.82322 0.30756 0.0
H1748 H 0.24196 0.78497 0.30401 0.0
H1749 H 0.3683 0.95937 0.28848 0.0
H1750 H 0.1059 0.46412 0.28461 0.0
H1751 H 0.11062 0.44077 0.29488 0.0
H1752 H 0.16703 0.47724 0.29737 0.0
H1753 H 0.16244 0.50041 0.28676 0.0
H1754 H 0.15896 0.44348 0.28803 0.0
H1755 H 0.14325 0.4703 0.32666 0.0
H1756 H 0.12438 0.47974 0.33879 0.0
H1757 H 0.08197 0.4242 0.33573 0.0
H1758 H 0.10052 0.41446 0.32339 0.0
H1759 H 0.1893 0.40236 0.33572 0.0
H1760 H 0.18172 0.42374 0.3257 0.0
H1761 H 0.12628 0.38363 0.3245 0.0
H1762 H 0.13375 0.36206 0.33471 0.0
H1763 H 0.13205 0.41746 0.33233 0.0
H1764 H 0.14894 0.39029 0.29557 0.0
H1765 H 0.16802 0.381 0.28369 0.0
H1766 H 0.20804 0.43704 0.28253 0.0
H1767 H 0.18954 0.44672 0.29496 0.0
C1768 C 0.11932 0.4671 0.28718 0.0
C1769 C 0.13378 0.48422 0.28492 0.0
C1770 C 0.122 0.45379 0.29319 0.0
C1771 C 0.13919 0.4573 0.2971 0.0
C1772 C 0.15364 0.4742 0.29452 0.0
C1773 C 0.15098 0.48751 0.28855 0.0
C1774 C 0.14221 0.44351 0.30398 0.0
C1775 C 0.15324 0.43795 0.29781 0.0
C1776 C 0.13435 0.43586 0.31653 0.0
C1777 C 0.1232 0.44168 0.32397 0.0
C1778 C 0.12985 0.46012 0.32847 0.0
C1779 C 0.11922 0.46552 0.3354 0.0
C1780 C 0.10197 0.45258 0.33799 0.0
C1781 C 0.09532 0.43421 0.33369 0.0
C1782 C 0.10589 0.42874 0.32674 0.0
C1783 C 0.17545 0.39808 0.33352 0.0
C1784 C 0.16215 0.38036 0.33593 0.0
C1785 C 0.17115 0.41034 0.3277 0.0
C1786 C 0.15344 0.40519 0.32403 0.0
C1787 C 0.14005 0.38788 0.32714 0.0
C1788 C 0.14435 0.37557 0.33301 0.0
C1789 C 0.14906 0.41767 0.31652 0.0
C1790 C 0.13773 0.42293 0.32254 0.0
C1791 C 0.15666 0.42505 0.3038 0.0
C1792 C 0.16789 0.41924 0.29636 0.0
C1793 C 0.1619 0.40065 0.29296 0.0
C1794 C 0.17263 0.39531 0.28612 0.0
C1795 C 0.18926 0.40841 0.28239 0.0
C1796 C 0.19521 0.4269 0.28551 0.0
C1797 C 0.18462 0.43233 0.29249 0.0
H1798 H 0.1975 0.40423 0.27704 0.0
H1799 H 0.09376 0.45679 0.34336 0.0
H1800 H 0.38455 0.49213 0.30248 0.0
H1801 H 0.35732 0.47001 0.31219 0.0
H1802 H 0.32999 0.45593 0.27048 0.0
H1803 H 0.35713 0.47856 0.26073 0.0
H1804 H 0.31013 0.45951 0.28964 0.0
H1805 H 0.34228 0.42763 0.28606 0.0
H1806 H 0.36788 0.42306 0.28967 0.0
H1807 H 0.36607 0.42822 0.33479 0.0
H1808 H 0.3406 0.43308 0.33146 0.0
H1809 H 0.23451 0.37736 0.30588 0.0
H1810 H 0.2623 0.39842 0.29605 0.0
H1811 H 0.28722 0.41885 0.33834 0.0
H1812 H 0.25927 0.39799 0.34826 0.0
H1813 H 0.3081 0.41159 0.31889 0.0
H1814 H 0.27601 0.44365 0.3223 0.0
H1815 H 0.2499 0.44732 0.31857 0.0
H1816 H 0.25136 0.4412 0.27349 0.0
H1817 H 0.27741 0.43721 0.27699 0.0
C1818 C 0.37274 0.48444 0.29535 0.0
C1819 C 0.37309 0.48722 0.2808 0.0
C1820 C 0.35718 0.47162 0.30091 0.0
C1821 C 0.34158 0.4611 0.29207 0.0
C1822 C 0.34185 0.46382 0.27753 0.0
C1823 C 0.35744 0.47666 0.27194 0.0
C1824 C 0.32496 0.44752 0.29806 0.0
C1825 C 0.30966 0.44888 0.29585 0.0
C1826 C 0.32434 0.43385 0.30646 0.0
C1827 C 0.33964 0.4309 0.30851 0.0
C1828 C 0.34743 0.42794 0.29676 0.0
C1829 C 0.3619 0.42527 0.29875 0.0
C1830 C 0.36862 0.42539 0.31245 0.0
C1831 C 0.36086 0.42815 0.32419 0.0
C1832 C 0.3464 0.43085 0.32225 0.0
C1833 C 0.24594 0.38626 0.31309 0.0
C1834 C 0.24475 0.38606 0.32783 0.0
C1835 C 0.26179 0.39831 0.30746 0.0
C1836 C 0.27682 0.41025 0.31646 0.0
C1837 C 0.27579 0.40973 0.33121 0.0
C1838 C 0.25983 0.39787 0.33685 0.0
C1839 C 0.2934 0.42363 0.31043 0.0
C1840 C 0.30864 0.42223 0.31265 0.0
C1841 C 0.29396 0.43722 0.30202 0.0
C1842 C 0.2785 0.43989 0.29989 0.0
C1843 C 0.27067 0.44291 0.31159 0.0
C1844 C 0.25591 0.44508 0.30952 0.0
C1845 C 0.24894 0.44441 0.2958 0.0
C1846 C 0.25675 0.44164 0.28411 0.0
C1847 C 0.27152 0.43944 0.28612 0.0
H1848 H 0.23754 0.44614 0.29423 0.0
H1849 H 0.37982 0.42332 0.31397 0.0
H1850 H 0.51501 0.88359 0.28011 0.0
H1851 H 0.53474 0.8759 0.29336 0.0
H1852 H 0.56793 0.88915 0.25844 0.0
H1853 H 0.54787 0.89607 0.24489 0.0
H1854 H 0.56444 0.85932 0.26891 0.0
H1855 H 0.57893 0.91884 0.28852 0.0
H1856 H 0.57295 0.94193 0.29957 0.0
H1857 H 0.55431 0.91048 0.33555 0.0
H1858 H 0.55996 0.88707 0.32463 0.0
H1859 H 0.64272 0.87093 0.30415 0.0
H1860 H 0.62136 0.87748 0.29213 0.0
H1861 H 0.58746 0.85703 0.32637 0.0
H1862 H 0.60888 0.85046 0.33849 0.0
H1863 H 0.59059 0.88959 0.31696 0.0
H1864 H 0.57566 0.83001 0.2972 0.0
H1865 H 0.58395 0.80818 0.28721 0.0
H1866 H 0.60498 0.84086 0.25217 0.0
H1867 H 0.59681 0.86292 0.26198 0.0
C1868 C 0.52638 0.88466 0.27516 0.0
C1869 C 0.52987 0.8906 0.26144 0.0
C1870 C 0.53777 0.88043 0.28283 0.0
C1871 C 0.55302 0.88221 0.27701 0.0
C1872 C 0.55633 0.88775 0.26321 0.0
C1873 C 0.54491 0.8919 0.25552 0.0
C1874 C 0.56565 0.87852 0.28532 0.0
C1875 C 0.57025 0.8661 0.27935 0.0
C1876 C 0.57307 0.88705 0.29909 0.0
C1877 C 0.56969 0.90111 0.30569 0.0
C1878 C 0.57342 0.91678 0.29874 0.0
C1879 C 0.57012 0.92994 0.30499 0.0
C1880 C 0.5632 0.92765 0.31823 0.0
C1881 C 0.55963 0.91222 0.32528 0.0
C1882 C 0.56289 0.89901 0.31907 0.0
C1883 C 0.63076 0.86793 0.30916 0.0
C1884 C 0.62741 0.86014 0.32223 0.0
C1885 C 0.61855 0.87164 0.30227 0.0
C1886 C 0.60275 0.86761 0.3083 0.0
C1887 C 0.59957 0.86025 0.32154 0.0
C1888 C 0.61177 0.85644 0.32841 0.0
C1889 C 0.58933 0.87053 0.3005 0.0
C1890 C 0.58464 0.88278 0.30655 0.0
C1891 C 0.58185 0.8619 0.28682 0.0
C1892 C 0.58569 0.84812 0.28034 0.0
C1893 C 0.58199 0.83249 0.28733 0.0
C1894 C 0.58667 0.8201 0.28171 0.0
C1895 C 0.59499 0.82315 0.26908 0.0
C1896 C 0.59848 0.8385 0.26194 0.0
C1897 C 0.59377 0.85092 0.2675 0.0
H1898 H 0.59876 0.81362 0.26489 0.0
H1899 H 0.56066 0.93785 0.32305 0.0
H1900 H 0.10338 0.63691 0.2851 0.0
H1901 H 0.11094 0.66615 0.29741 0.0
H1902 H 0.16302 0.69052 0.28214 0.0
H1903 H 0.15556 0.66127 0.26987 0.0
H1904 H 0.16536 0.70247 0.30887 0.0
H1905 H 0.13005 0.69699 0.26681 0.0
H1906 H 0.10404 0.68237 0.24943 0.0
H1907 H 0.07096 0.68238 0.28159 0.0
H1908 H 0.09676 0.69678 0.29922 0.0
H1909 H 0.18845 0.79529 0.31989 0.0
H1910 H 0.18095 0.76515 0.30977 0.0
H1911 H 0.13016 0.74197 0.32721 0.0
H1912 H 0.13746 0.77223 0.33726 0.0
H1913 H 0.12694 0.72917 0.29998 0.0
H1914 H 0.16359 0.7359 0.34192 0.0
H1915 H 0.19042 0.75163 0.35843 0.0
H1916 H 0.22193 0.75053 0.32533 0.0
H1917 H 0.1953 0.73494 0.30858 0.0
C1918 C 0.11643 0.6485 0.28433 0.0
C1919 C 0.12882 0.64673 0.27641 0.0
C1920 C 0.12075 0.66524 0.29137 0.0
C1921 C 0.13747 0.68068 0.29054 0.0
C1922 C 0.15002 0.67884 0.28296 0.0
C1923 C 0.14575 0.66207 0.27597 0.0
C1924 C 0.1418 0.69877 0.29741 0.0
C1925 C 0.15705 0.70837 0.30679 0.0
C1926 C 0.13084 0.70644 0.29493 0.0
C1927 C 0.1153 0.69778 0.28436 0.0
C1928 C 0.1172 0.69374 0.2702 0.0
C1929 C 0.1025 0.68552 0.2603 0.0
C1930 C 0.08585 0.6814 0.26441 0.0
C1931 C 0.08387 0.68554 0.27843 0.0
C1932 C 0.09852 0.69375 0.28837 0.0
C1933 C 0.17571 0.78381 0.3217 0.0
C1934 C 0.16359 0.78626 0.32949 0.0
C1935 C 0.17147 0.76652 0.31592 0.0
C1936 C 0.15507 0.75119 0.31785 0.0
C1937 C 0.14292 0.75356 0.3256 0.0
C1938 C 0.14715 0.77089 0.3314 0.0
C1939 C 0.15045 0.73281 0.31146 0.0
C1940 C 0.13518 0.72319 0.30212 0.0
C1941 C 0.16148 0.72522 0.31387 0.0
C1942 C 0.17747 0.73437 0.32398 0.0
C1943 C 0.17625 0.73909 0.33814 0.0
C1944 C 0.19142 0.74797 0.34755 0.0
C1945 C 0.20787 0.7521 0.34292 0.0
C1946 C 0.20918 0.74732 0.3289 0.0
C1947 C 0.19405 0.73843 0.31945 0.0
H1948 H 0.2196 0.75899 0.35022 0.0
H1949 H 0.07448 0.67504 0.25673 0.0
H1950 H 0.80186 0.04262 0.4015 0.0
H1951 H 0.78085 0.01329 0.38885 0.0
H1952 H 0.80811 0.98852 0.40877 0.0
H1953 H 0.82922 0.01786 0.42142 0.0
H1954 H 0.79912 0.97613 0.38169 0.0
H1955 H 0.76905 0.98331 0.42039 0.0
H1956 H 0.7575 0.99885 0.43549 0.0
H1957 H 0.72517 0.99847 0.3998 0.0
H1958 H 0.73672 0.98314 0.38444 0.0
H1959 H 0.73118 0.88354 0.36943 0.0
H1960 H 0.75324 0.91373 0.37994 0.0
H1961 H 0.72554 0.93715 0.35865 0.0
H1962 H 0.70317 0.90687 0.34821 0.0
H1963 H 0.7348 0.9505 0.38581 0.0
H1964 H 0.76467 0.94226 0.34728 0.0
H1965 H 0.77605 0.92608 0.33272 0.0
H1966 H 0.80856 0.9277 0.36878 0.0
H1967 H 0.7972 0.94371 0.3836 0.0
C1968 C 0.80337 0.03093 0.40323 0.0
C1969 C 0.81719 0.03261 0.41256 0.0
C1970 C 0.79133 0.01414 0.39597 0.0
C1971 C 0.79268 0.99856 0.39801 0.0
C1972 C 0.80675 1.0003 0.40702 0.0
C1973 C 0.81886 0.01712 0.41422 0.0
C1974 C 0.77929 0.98043 0.39093 0.0
C1975 C 0.78507 0.97045 0.38273 0.0
C1976 C 0.7609 0.97308 0.39202 0.0
C1977 C 0.75389 0.98225 0.40124 0.0
C1978 C 0.75958 0.98667 0.41574 0.0
C1979 C 0.75302 0.99542 0.42435 0.0
C1980 C 0.74065 0.99969 0.4186 0.0
C1981 C 0.73478 0.99518 0.40423 0.0
C1982 C 0.74132 0.98645 0.39557 0.0
C1983 C 0.7298 0.89509 0.36685 0.0
C1984 C 0.71539 0.89271 0.35787 0.0
C1985 C 0.7425 0.91241 0.37286 0.0
C1986 C 0.74122 0.92781 0.36996 0.0
C1987 C 0.72686 0.9255 0.36102 0.0
C1988 C 0.7141 0.90816 0.35502 0.0
C1989 C 0.75462 0.94622 0.37656 0.0
C1990 C 0.74884 0.95623 0.38471 0.0
C1991 C 0.77301 0.95353 0.37549 0.0
C1992 C 0.77998 0.94406 0.36657 0.0
C1993 C 0.77416 0.93907 0.35212 0.0
C1994 C 0.78062 0.92995 0.34382 0.0
C1995 C 0.79299 0.92584 0.34983 0.0
C1996 C 0.79897 0.93089 0.36414 0.0
C1997 C 0.79254 0.94001 0.37249 0.0
H1998 H 0.79797 0.91876 0.34339 0.0
H1999 H 0.73558 0.00646 0.42528 0.0
H2000 H 0.97615 0.78979 0.4039 0.0
H2001 H 1.00228 0.79722 0.39106 0.0
H2002 H 0.02746 0.78938 0.42815 0.0
H2003 H 1.00174 0.78266 0.44119 0.0
H2004 H 0.04999 0.81929 0.41705 0.0
H2005 H 0.00993 0.75769 0.39879 0.0
H2006 H 0.982 0.73213 0.38753 0.0
H2007 H 0.98897 0.76057 0.34991 0.0
H2008 H 0.01684 0.78642 0.36102 0.0
H2009 H 0.11889 0.81264 0.38427 0.0
H2010 H 0.09274 0.80671 0.39665 0.0
H2011 H 0.07206 0.8211 0.36036 0.0
H2012 H 0.09845 0.82748 0.34805 0.0
H2013 H 0.04718 0.78825 0.37051 0.0
H2014 H 0.08469 0.85057 0.38934 0.0
H2015 H 0.11029 0.87801 0.40148 0.0
H2016 H 0.10772 0.84835 0.43764 0.0
H2017 H 0.08181 0.82085 0.42583 0.0
C2018 C 0.98728 0.78975 0.40936 0.0
C2019 C 0.98674 0.78554 0.4236 0.0
C2020 C 1.00216 0.79381 0.40194 0.0
C2021 C 0.01682 0.79365 0.40855 0.0
C2022 C 0.01633 0.78952 0.42277 0.0
C2023 C 1.0015 0.7855 0.43019 0.0
C2024 C 0.0329 0.79832 0.40087 0.0
C2025 C 0.04936 0.81225 0.40698 0.0
C2026 C 0.03213 0.78959 0.38751 0.0
C2027 C 0.01538 0.77407 0.3808 0.0
C2028 C 1.00544 0.75856 0.38816 0.0
C2029 C 0.98963 0.74401 0.3818 0.0
C2030 C 0.98369 0.74475 0.36803 0.0
C2031 C 0.99357 0.76002 0.36058 0.0
C2032 C 0.00938 0.77462 0.3669 0.0
C2033 C 0.10879 0.8146 0.37895 0.0
C2034 C 0.11068 0.82049 0.36518 0.0
C2035 C 0.0939 0.81131 0.38607 0.0
C2036 C 0.08046 0.81355 0.37947 0.0
C2037 C 0.08227 0.81931 0.36567 0.0
C2038 C 0.09733 0.82293 0.35865 0.0
C2039 C 0.0642 0.80911 0.38677 0.0
C2040 C 0.04775 0.7952 0.3806 0.0
C2041 C 0.06494 0.81782 0.40009 0.0
C2042 C 0.08146 0.83365 0.40666 0.0
C2043 C 0.08975 0.84985 0.3998 0.0
C2044 C 0.1042 0.86545 0.40667 0.0
C2045 C 0.11064 0.86492 0.42031 0.0
C2046 C 0.10271 0.84875 0.42708 0.0
C2047 C 0.08809 0.83318 0.42034 0.0
H2048 H 0.12173 0.87707 0.42564 0.0
H2049 H 0.97145 0.73346 0.36312 0.0
H2050 H 0.24866 0.21434 0.39611 0.0
H2051 H 0.24349 0.23721 0.38549 0.0
H2052 H 0.18718 0.20171 0.38621 0.0
H2053 H 0.19226 0.17883 0.39677 0.0
H2054 H 0.19441 0.21571 0.36142 0.0
H2055 H 0.21122 0.23976 0.41017 0.0
H2056 H 0.23045 0.25058 0.43245 0.0
H2057 H 0.27221 0.29246 0.41122 0.0
H2058 H 0.25329 0.28174 0.38876 0.0
H2059 H 0.16283 0.27719 0.35272 0.0
H2060 H 0.17115 0.25553 0.36098 0.0
H2061 H 0.22608 0.29424 0.35689 0.0
H2062 H 0.21786 0.31621 0.34873 0.0
H2063 H 0.22158 0.27951 0.38216 0.0
H2064 H 0.20366 0.25647 0.33365 0.0
H2065 H 0.18396 0.24572 0.31163 0.0
H2066 H 0.14386 0.20187 0.3326 0.0
H2067 H 0.16323 0.21251 0.35481 0.0
C2068 C 0.23518 0.21149 0.39416 0.0
C2069 C 0.22088 0.19471 0.3973 0.0
C2070 C 0.23223 0.22458 0.38806 0.0
C2071 C 0.21493 0.22128 0.3851 0.0
C2072 C 0.20065 0.20458 0.3883 0.0
C2073 C 0.20358 0.19148 0.39433 0.0
C2074 C 0.21158 0.23503 0.3785 0.0
C2075 C 0.20022 0.2296 0.36605 0.0
C2076 C 0.21952 0.25335 0.38426 0.0
C2077 C 0.23091 0.25981 0.39775 0.0
C2078 C 0.22456 0.25118 0.41023 0.0
C2079 C 0.23539 0.25731 0.42289 0.0
C2080 C 0.25256 0.27216 0.42324 0.0
C2081 C 0.25892 0.28094 0.41093 0.0
C2082 C 0.24814 0.27485 0.39823 0.0
C2083 C 0.17669 0.2811 0.35341 0.0
C2084 C 0.18966 0.29851 0.35003 0.0
C2085 C 0.18143 0.26862 0.35811 0.0
C2086 C 0.19925 0.27316 0.35948 0.0
C2087 C 0.21224 0.29041 0.35591 0.0
C2088 C 0.2075 0.30293 0.35116 0.0
C2089 C 0.20424 0.2601 0.36519 0.0
C2090 C 0.2159 0.26565 0.37746 0.0
C2091 C 0.19652 0.24188 0.3593 0.0
C2092 C 0.18486 0.23538 0.34593 0.0
C2093 C 0.19059 0.24462 0.3336 0.0
C2094 C 0.17949 0.23852 0.32108 0.0
C2095 C 0.16265 0.22314 0.32072 0.0
C2096 C 0.1569 0.21379 0.33289 0.0
C2097 C 0.16794 0.21983 0.34544 0.0
H2098 H 0.15408 0.21845 0.31102 0.0
H2099 H 0.26093 0.27689 0.43306 0.0
H2100 H 0.64378 0.50304 0.72499 0.0
H2101 H 0.6715 0.52536 0.71606 0.0
H2102 H 0.67486 0.56689 0.74619 0.0
H2103 H 0.64668 0.54469 0.75487 0.0
H2104 H 0.68296 0.57972 0.7206 0.0
H2105 H 0.70105 0.54776 0.7512 0.0
H2106 H 0.70032 0.52089 0.76077 0.0
H2107 H 0.71166 0.50581 0.72033 0.0
H2108 H 0.71223 0.53246 0.71045 0.0
H2109 H 0.77225 0.64379 0.70848 0.0
H2110 H 0.74496 0.62303 0.71906 0.0
H2111 H 0.7393 0.57826 0.69143 0.0
H2112 H 0.7667 0.59893 0.68096 0.0
H2113 H 0.73294 0.568 0.71717 0.0
H2114 H 0.71339 0.59924 0.68632 0.0
H2115 H 0.71421 0.62621 0.67684 0.0
H2116 H 0.7058 0.64277 0.71794 0.0
H2117 H 0.70514 0.61601 0.7277 0.0
C2118 C 0.6503 0.51695 0.72967 0.0
C2119 C 0.64291 0.52204 0.74065 0.0
C2120 C 0.6663 0.52967 0.72464 0.0
C2121 C 0.67544 0.5478 0.73055 0.0
C2122 C 0.6681 0.55298 0.74149 0.0
C2123 C 0.65206 0.54022 0.74653 0.0
C2124 C 0.69247 0.56131 0.72511 0.0
C2125 C 0.69399 0.57729 0.72005 0.0
C2126 C 0.70679 0.55804 0.72414 0.0
C2127 C 0.70653 0.54203 0.73006 0.0
C2128 C 0.70326 0.53864 0.74431 0.0
C2129 C 0.7029 0.52346 0.7498 0.0
C2130 C 0.7059 0.51163 0.74115 0.0
C2131 C 0.70932 0.51498 0.72701 0.0
C2132 C 0.70968 0.53013 0.72147 0.0
C2133 C 0.76512 0.62953 0.70463 0.0
C2134 C 0.77153 0.62298 0.69385 0.0
C2135 C 0.74951 0.61768 0.71067 0.0
C2136 C 0.73993 0.59906 0.706 0.0
C2137 C 0.74641 0.59253 0.69525 0.0
C2138 C 0.76203 0.60437 0.68922 0.0
C2139 C 0.72335 0.58629 0.71244 0.0
C2140 C 0.72193 0.57047 0.71774 0.0
C2141 C 0.70913 0.58972 0.71364 0.0
C2142 C 0.70937 0.60571 0.70776 0.0
C2143 C 0.71182 0.6087 0.69335 0.0
C2144 C 0.71224 0.62393 0.68793 0.0
C2145 C 0.7101 0.63622 0.69679 0.0
C2146 C 0.70748 0.63326 0.71109 0.0
C2147 C 0.70705 0.61805 0.71657 0.0
H2148 H 0.71044 0.64801 0.69257 0.0
H2149 H 0.70561 0.49988 0.74542 0.0
H2150 H 0.47704 0.10582 0.7583 0.0
H2151 H 0.45308 0.11073 0.74957 0.0
H2152 H 0.49055 0.15809 0.72971 0.0
H2153 H 0.51463 0.15369 0.73884 0.0
H2154 H 0.46675 0.16443 0.74166 0.0
H2155 H 0.4649 0.11651 0.71074 0.0
H2156 H 0.46294 0.08687 0.70506 0.0
H2157 H 0.41248 0.05939 0.72255 0.0
H2158 H 0.41425 0.08891 0.72851 0.0
H2159 H 0.41235 0.17167 0.68698 0.0
H2160 H 0.43427 0.16657 0.69989 0.0
H2161 H 0.39294 0.12497 0.722 0.0
H2162 H 0.37099 0.13023 0.70926 0.0
H2163 H 0.41687 0.11489 0.71094 0.0
H2164 H 0.41708 0.16365 0.73772 0.0
H2165 H 0.41948 0.19353 0.74271 0.0
H2166 H 0.47353 0.22028 0.73228 0.0
H2167 H 0.47139 0.19052 0.72692 0.0
C2168 C 0.48024 0.11745 0.75226 0.0
C2169 C 0.49779 0.12927 0.74919 0.0
C2170 C 0.46648 0.12015 0.74716 0.0
C2171 C 0.46995 0.13464 0.7388 0.0
C2172 C 0.48751 0.14677 0.73609 0.0
C2173 C 0.50126 0.14411 0.7412 0.0
C2174 C 0.4553 0.13688 0.73242 0.0
C2175 C 0.45594 0.15368 0.73482 0.0
C2176 C 0.4409 0.12267 0.72381 0.0
C2177 C 0.4398 0.10492 0.72022 0.0
C2178 C 0.45345 0.10415 0.71348 0.0
C2179 C 0.45236 0.08738 0.71019 0.0
C2180 C 0.43762 0.07126 0.71348 0.0
C2181 C 0.42391 0.07189 0.72004 0.0
C2182 C 0.42494 0.08864 0.72337 0.0
C2183 C 0.40794 0.16139 0.69455 0.0
C2184 C 0.38999 0.1513 0.69711 0.0
C2185 C 0.42047 0.15854 0.70195 0.0
C2186 C 0.41523 0.14545 0.71195 0.0
C2187 C 0.39724 0.13512 0.71432 0.0
C2188 C 0.38474 0.13815 0.70706 0.0
C2189 C 0.42857 0.14258 0.7199 0.0
C2190 C 0.42763 0.12564 0.71783 0.0
C2191 C 0.44275 0.15674 0.72871 0.0
C2192 C 0.44403 0.17473 0.73182 0.0
C2193 C 0.42945 0.17585 0.73634 0.0
C2194 C 0.43076 0.1928 0.73926 0.0
C2195 C 0.44664 0.20879 0.73782 0.0
C2196 C 0.46123 0.20787 0.73341 0.0
C2197 C 0.45997 0.19095 0.73043 0.0
H2198 H 0.44764 0.2219 0.74011 0.0
H2199 H 0.4368 0.05828 0.71092 0.0
H2200 H 0.90498 0.35769 0.75993 0.0
H2201 H 0.89744 0.32882 0.74711 0.0
H2202 H 0.87421 0.34197 0.71172 0.0
H2203 H 0.8819 0.37107 0.72444 0.0
H2204 H 0.85331 0.3073 0.71742 0.0
H2205 H 0.91446 0.34493 0.71012 0.0
H2206 H 0.94608 0.36596 0.71711 0.0
H2207 H 0.9479 0.32569 0.74181 0.0
H2208 H 0.91621 0.3045 0.73512 0.0
H2209 H 0.87661 0.24047 0.67567 0.0
H2210 H 0.8848 0.27118 0.6854 0.0
H2211 H 0.84624 0.24809 0.71619 0.0
H2212 H 0.83768 0.21746 0.70634 0.0
H2213 H 0.8985 0.28919 0.7102 0.0
H2214 H 0.8292 0.27508 0.72452 0.0
H2215 H 0.79785 0.25504 0.71607 0.0
H2216 H 0.81282 0.24982 0.67431 0.0
H2217 H 0.84424 0.27013 0.68243 0.0
C2218 C 0.89847 0.35461 0.74934 0.0
C2219 C 0.89419 0.36687 0.74321 0.0
C2220 C 0.89412 0.33802 0.74203 0.0
C2221 C 0.88544 0.33326 0.72835 0.0
C2222 C 0.88091 0.34532 0.72225 0.0
C2223 C 0.88528 0.36195 0.72957 0.0
C2224 C 0.88092 0.3156 0.72055 0.0
C2225 C 0.8632 0.30336 0.71583 0.0
C2226 C 0.89384 0.31052 0.71822 0.0
C2227 C 0.91292 0.32319 0.72221 0.0
C2228 C 0.92157 0.34061 0.71712 0.0
C2229 C 0.93951 0.35255 0.72102 0.0
C2230 C 0.94898 0.34718 0.72992 0.0
C2231 C 0.94054 0.32984 0.73492 0.0
C2232 C 0.92259 0.31785 0.73107 0.0
C2233 C 0.86979 0.24193 0.68446 0.0
C2234 C 0.85629 0.22648 0.69007 0.0
C2235 C 0.87453 0.25951 0.69005 0.0
C2236 C 0.86591 0.26201 0.7014 0.0
C2237 C 0.85273 0.24656 0.70721 0.0
C2238 C 0.84787 0.22903 0.70155 0.0
C2239 C 0.87081 0.28069 0.70734 0.0
C2240 C 0.8886 0.29313 0.71174 0.0
C2241 C 0.85798 0.28605 0.70919 0.0
C2242 C 0.8391 0.27402 0.70413 0.0
C2243 C 0.8258 0.26976 0.71351 0.0
C2244 C 0.80801 0.25837 0.70877 0.0
C2245 C 0.80335 0.25113 0.69467 0.0
C2246 C 0.81646 0.25538 0.68524 0.0
C2247 C 0.83426 0.26684 0.68991 0.0
H2248 H 0.78957 0.24224 0.69104 0.0
H2249 H 0.96288 0.35645 0.73292 0.0
H2250 H 0.21841 0.97188 0.60844 0.0
H2251 H 0.23919 1.00068 0.62185 0.0
H2252 H 0.19992 0.01732 0.61981 0.0
H2253 H 0.1792 0.98872 0.60601 0.0
H2254 H 0.23108 0.04406 0.61308 0.0
H2255 H 0.21118 1.00465 0.65081 0.0
H2256 H 0.20463 0.97748 0.66341 0.0
H2257 H 0.25942 0.99244 0.66503 0.0
H2258 H 0.26626 0.01958 0.65225 0.0
H2259 H 0.27982 0.12355 0.65938 0.0
H2260 H 0.25693 0.0935 0.64924 0.0
H2261 H 0.29414 0.07417 0.65227 0.0
H2262 H 0.31701 0.10413 0.6629 0.0
H2263 H 0.26315 0.0486 0.65904 0.0
H2264 H 0.28276 0.08704 0.62034 0.0
H2265 H 0.28946 0.11421 0.60779 0.0
H2266 H 0.23519 0.1009 0.60777 0.0
H2267 H 0.2282 0.07368 0.62052 0.0
C2268 C 0.21417 0.98166 0.61083 0.0
C2269 C 0.19711 0.97797 0.60609 0.0
C2270 C 0.22603 0.99807 0.61863 0.0
C2271 C 0.2211 0.01116 0.62197 0.0
C2272 C 0.20402 0.00743 0.61741 0.0
C2273 C 0.19213 0.991 0.60962 0.0
C2274 C 0.23403 0.02903 0.62965 0.0
C2275 C 0.23787 0.04505 0.62325 0.0
C2276 C 0.24326 0.03037 0.64275 0.0
C2277 C 0.2392 0.01407 0.65045 0.0
C2278 C 0.22181 1.00207 0.65375 0.0
C2279 C 0.21805 0.98669 0.66094 0.0
C2280 C 0.23159 0.98321 0.66499 0.0
C2281 C 0.24893 0.99514 0.66188 0.0
C2282 C 0.25276 0.01054 0.65467 0.0
C2283 C 0.28315 0.1129 0.65797 0.0
C2284 C 0.30032 0.11632 0.66189 0.0
C2285 C 0.27003 0.0957 0.65209 0.0
C2286 C 0.27385 0.08159 0.64968 0.0
C2287 C 0.29084 0.08481 0.65396 0.0
C2288 C 0.30393 0.10198 0.66003 0.0
C2289 C 0.26024 0.06363 0.64245 0.0
C2290 C 0.2563 0.04761 0.64891 0.0
C2291 C 0.25092 0.06226 0.62937 0.0
C2292 C 0.25501 0.07845 0.62152 0.0
C2293 C 0.27227 0.08997 0.61774 0.0
C2294 C 0.27611 0.10538 0.61058 0.0
C2295 C 0.26276 0.10935 0.60705 0.0
C2296 C 0.24551 0.09783 0.61056 0.0
C2297 C 0.24161 0.0824 0.61774 0.0
H2298 H 0.26572 0.12131 0.60155 0.0
H2299 H 0.22865 0.9713 0.67056 0.0
H2300 H 0.03456 0.24203 0.59672 0.0
H2301 H 1.00666 0.23491 0.60662 0.0
H2302 H 0.01783 0.20843 0.64005 0.0
H2303 H 0.04531 0.21482 0.62993 0.0
H2304 H 0.98504 0.18803 0.62948 0.0
H2305 H 0.02142 0.25094 0.64592 0.0
H2306 H 0.04146 0.28369 0.64373 0.0
H2307 H 1.00173 0.28555 0.61666 0.0
H2308 H 0.98152 0.25275 0.61853 0.0
H2309 H 0.91509 0.17657 0.67119 0.0
H2310 H 0.9437 0.18472 0.66235 0.0
H2311 H 0.93557 0.21581 0.63109 0.0
H2312 H 0.90722 0.20824 0.64038 0.0
H2313 H 0.96741 0.23409 0.64098 0.0
H2314 H 0.93694 0.16933 0.6185 0.0
H2315 H 0.91808 0.13603 0.61928 0.0
H2316 H 0.94802 0.13801 0.65724 0.0
H2317 H 0.96677 0.17137 0.65675 0.0
C2318 C 0.03105 0.23461 0.60614 0.0
C2319 C 0.04227 0.22905 0.61252 0.0
C2320 C 0.01516 0.23073 0.61189 0.0
C2321 C 0.01019 0.22131 0.62421 0.0
C2322 C 0.02138 0.21578 0.63059 0.0
C2323 C 0.0372 0.2196 0.62484 0.0
C2324 C 0.99303 0.21651 0.63013 0.0
C2325 C 0.98131 0.19818 0.63215 0.0
C2326 C 0.9879 0.22961 0.63338 0.0
C2327 C 1.00002 0.24934 0.63226 0.0
C2328 C 0.017 0.2583 0.63941 0.0
C2329 C 0.02839 0.27688 0.63824 0.0
C2330 C 0.02289 0.28668 0.63003 0.0
C2331 C 1.00598 0.27794 0.623 0.0
C2332 C 0.99454 0.25935 0.62412 0.0
C2333 C 0.91938 0.18507 0.66239 0.0
C2334 C 0.90889 0.19171 0.65644 0.0
C2335 C 0.93569 0.18954 0.65718 0.0
C2336 C 0.94175 0.20048 0.64571 0.0
C2337 C 0.93129 0.20729 0.63989 0.0
C2338 C 0.91503 0.20292 0.64518 0.0
C2339 C 0.95926 0.20552 0.64019 0.0
C2340 C 0.9711 0.22394 0.63827 0.0
C2341 C 0.96458 0.19254 0.63704 0.0
C2342 C 0.95276 0.1728 0.63785 0.0
C2343 C 0.93912 0.16267 0.6272 0.0
C2344 C 0.9286 0.1438 0.62751 0.0
C2345 C 0.93182 0.13492 0.63834 0.0
C2346 C 0.9455 0.14491 0.6489 0.0
C2347 C 0.95605 0.16379 0.64861 0.0
H2348 H 0.92378 0.12029 0.6385 0.0
H2349 H 0.03172 0.30107 0.62915 0.0
H2350 H 0.77637 0.79665 0.60888 0.0
H2351 H 0.78152 0.77305 0.61808 0.0
H2352 H 0.8333 0.81437 0.63592 0.0
H2353 H 0.82846 0.83794 0.62643 0.0
H2354 H 0.83456 0.78607 0.62365 0.0
H2355 H 0.79816 0.79419 0.65653 0.0
H2356 H 0.77188 0.79529 0.6636 0.0
H2357 H 0.73848 0.73948 0.6475 0.0
H2358 H 0.76456 0.73813 0.64016 0.0
H2359 H 0.85365 0.73449 0.67107 0.0
H2360 H 0.84788 0.75727 0.66111 0.0
H2361 H 0.79479 0.71509 0.64685 0.0
H2362 H 0.80025 0.69244 0.65747 0.0
H2363 H 0.79363 0.74314 0.65604 0.0
H2364 H 0.8334 0.73498 0.62699 0.0
H2365 H 0.86119 0.73588 0.62174 0.0
H2366 H 0.88982 0.79389 0.63008 0.0
H2367 H 0.86277 0.79336 0.63686 0.0
C2368 C 0.78894 0.80071 0.61462 0.0
C2369 C 0.80195 0.81925 0.61697 0.0
C2370 C 0.7918 0.78719 0.61999 0.0
C2371 C 0.80773 0.79191 0.62786 0.0
C2372 C 0.82088 0.81036 0.62994 0.0
C2373 C 0.81802 0.82386 0.6246 0.0
C2374 C 0.81071 0.77774 0.6341 0.0
C2375 C 0.82576 0.77679 0.63088 0.0
C2376 C 0.79897 0.76534 0.64323 0.0
C2377 C 0.78328 0.76612 0.64765 0.0
C2378 C 0.78519 0.7822 0.65439 0.0
C2379 C 0.77034 0.78286 0.65847 0.0
C2380 C 0.75351 0.76748 0.65596 0.0
C2381 C 0.75151 0.75139 0.64941 0.0
C2382 C 0.76633 0.75067 0.6453 0.0
C2383 C 0.84068 0.73011 0.66595 0.0
C2384 C 0.82739 0.71165 0.66507 0.0
C2385 C 0.83743 0.74315 0.66013 0.0
C2386 C 0.82103 0.73793 0.65284 0.0
C2387 C 0.8076 0.71954 0.65232 0.0
C2388 C 0.8107 0.70657 0.65844 0.0
C2389 C 0.81776 0.75153 0.64582 0.0
C2390 C 0.80252 0.75233 0.64881 0.0
C2391 C 0.82956 0.76395 0.63659 0.0
C2392 C 0.84593 0.76408 0.63263 0.0
C2393 C 0.84564 0.74792 0.628 0.0
C2394 C 0.86129 0.74834 0.62475 0.0
C2395 C 0.87717 0.76488 0.62542 0.0
C2396 C 0.87753 0.78105 0.62961 0.0
C2397 C 0.86208 0.78068 0.63333 0.0
H2398 H 0.88917 0.76513 0.6227 0.0
H2399 H 0.74203 0.76802 0.65913 0.0
H2400 H 0.04622 0.81241 0.62612 0.0
H2401 H 0.01826 0.79009 0.6348 0.0
H2402 H 0.98958 0.79797 0.6002 0.0
H2403 H 0.01757 0.82078 0.59166 0.0
H2404 H 0.97537 0.79786 0.62481 0.0
H2405 H 0.99283 0.75941 0.60042 0.0
H2406 H 0.0129 0.748 0.59429 0.0
H2407 H 0.0156 0.73484 0.63721 0.0
H2408 H 0.99573 0.7464 0.64366 0.0
H2409 H 0.89187 0.72187 0.63708 0.0
H2410 H 0.91888 0.74254 0.62612 0.0
H2411 H 0.9504 0.73784 0.66026 0.0
H2412 H 0.92339 0.71711 0.67124 0.0
H2413 H 0.96248 0.73572 0.63472 0.0
H2414 H 0.94631 0.77518 0.65939 0.0
H2415 H 0.92672 0.78703 0.66595 0.0
H2416 H 0.92196 0.79857 0.62284 0.0
H2417 H 0.94129 0.78648 0.61595 0.0
C2418 C 0.03398 0.80947 0.62036 0.0
C2419 C 0.03419 0.81846 0.60818 0.0
C2420 C 0.01797 0.79655 0.62527 0.0
C2421 C 1.00176 0.79217 0.61809 0.0
C2422 C 1.0019 0.80106 0.6059 0.0
C2423 C 0.01793 0.81399 0.60096 0.0
C2424 C 0.98472 0.7787 0.62354 0.0
C2425 C 0.97243 0.78416 0.62673 0.0
C2426 C 0.981 0.76094 0.6264 0.0
C2427 C 0.99291 0.75392 0.62255 0.0
C2428 C 0.99781 0.75421 0.60858 0.0
C2429 C 0.00913 0.74769 0.60504 0.0
C2430 C 0.01555 0.74074 0.61536 0.0
C2431 C 0.01063 0.74024 0.62923 0.0
C2432 C 0.99932 0.74676 0.63283 0.0
C2433 C 0.90457 0.72526 0.64224 0.0
C2434 C 0.90556 0.71798 0.65506 0.0
C2435 C 0.92 0.7371 0.63598 0.0
C2436 C 0.93672 0.74191 0.64243 0.0
C2437 C 0.93768 0.73435 0.6551 0.0
C2438 C 0.92225 0.72256 0.66139 0.0
C2439 C 0.95321 0.75493 0.63604 0.0
C2440 C 0.96539 0.74937 0.63269 0.0
C2441 C 0.95684 0.77261 0.63307 0.0
C2442 C 0.9451 0.77975 0.63713 0.0
C2443 C 0.94094 0.78008 0.65127 0.0
C2444 C 0.92991 0.78686 0.65506 0.0
C2445 C 0.92309 0.79352 0.64482 0.0
C2446 C 0.92727 0.7934 0.63076 0.0
C2447 C 0.93824 0.78657 0.62691 0.0
H2448 H 0.91462 0.79883 0.6478 0.0
H2449 H 0.02431 0.7357 0.6126 0.0
H2450 H 0.1813 0.21721 0.61369 0.0
H2451 H 0.20025 0.20795 0.62618 0.0
H2452 H 0.23521 0.22496 0.59239 0.0
H2453 H 0.21587 0.2334 0.57951 0.0
H2454 H 0.23136 0.19412 0.60096 0.0
H2455 H 0.24474 0.25171 0.62401 0.0
H2456 H 0.23811 0.27363 0.63628 0.0
H2457 H 0.21745 0.23835 0.66995 0.0
H2458 H 0.22375 0.21609 0.65777 0.0
H2459 H 0.30816 0.20298 0.63695 0.0
H2460 H 0.28699 0.2098 0.62498 0.0
H2461 H 0.25197 0.1873 0.6583 0.0
H2462 H 0.27328 0.18058 0.67043 0.0
H2463 H 0.25495 0.21968 0.65044 0.0
H2464 H 0.24247 0.16244 0.6274 0.0
H2465 H 0.25162 0.14207 0.61594 0.0
H2466 H 0.27227 0.17789 0.58261 0.0
H2467 H 0.26336 0.1986 0.59395 0.0
C2468 C 0.19287 0.21875 0.6088 0.0
C2469 C 0.19708 0.22621 0.59561 0.0
C2470 C 0.20382 0.21362 0.61604 0.0
C2471 C 0.21935 0.21602 0.61036 0.0
C2472 C 0.22337 0.22305 0.59705 0.0
C2473 C 0.21238 0.22808 0.58976 0.0
C2474 C 0.23162 0.21159 0.61838 0.0
C2475 C 0.23661 0.19985 0.61173 0.0
C2476 C 0.2383 0.21877 0.63254 0.0
C2477 C 0.23455 0.23215 0.6399 0.0
C2478 C 0.23866 0.24856 0.63397 0.0
C2479 C 0.23498 0.26106 0.64092 0.0
C2480 C 0.22732 0.25737 0.65387 0.0
C2481 C 0.22336 0.24118 0.65991 0.0
C2482 C 0.22699 0.22863 0.65299 0.0
C2483 C 0.29598 0.19956 0.64176 0.0
C2484 C 0.29231 0.19123 0.6546 0.0
C2485 C 0.28387 0.2034 0.63488 0.0
C2486 C 0.2678 0.19887 0.64066 0.0
C2487 C 0.26427 0.19087 0.65365 0.0
C2488 C 0.2764 0.187 0.66054 0.0
C2489 C 0.25466 0.20231 0.63301 0.0
C2490 C 0.24954 0.21385 0.63971 0.0
C2491 C 0.24794 0.19503 0.61889 0.0
C2492 C 0.25234 0.18212 0.61157 0.0
C2493 C 0.24895 0.16597 0.61762 0.0
C2494 C 0.2541 0.15438 0.61116 0.0
C2495 C 0.26257 0.15874 0.5986 0.0
C2496 C 0.26571 0.17457 0.59236 0.0
C2497 C 0.26057 0.18621 0.59877 0.0
H2498 H 0.26671 0.14985 0.59374 0.0
H2499 H 0.22448 0.26706 0.65923 0.0
H2500 H 0.78429 0.96869 0.62538 0.0
H2501 H 0.79126 0.99748 0.63833 0.0
H2502 H 0.81152 0.02587 0.60097 0.0
H2503 H 0.80503 0.99734 0.58811 0.0
H2504 H 0.8331 0.04458 0.62421 0.0
H2505 H 0.77022 0.01479 0.61101 0.0
H2506 H 0.73933 0.98968 0.61021 0.0
H2507 H 0.74139 0.99397 0.6557 0.0
H2508 H 0.77239 0.01896 0.65677 0.0
H2509 H 0.83714 0.12814 0.64025 0.0
H2510 H 0.82942 0.09808 0.6296 0.0
H2511 H 0.80604 0.07409 0.66779 0.0
H2512 H 0.81333 0.1043 0.67829 0.0
H2513 H 0.78642 0.05233 0.64593 0.0
H2514 H 0.84825 0.08205 0.65973 0.0
H2515 H 0.87902 0.10754 0.66129 0.0
H2516 H 0.87929 0.10313 0.61597 0.0
H2517 H 0.84842 0.07771 0.61411 0.0
C2518 C 0.79038 0.98109 0.61996 0.0
C2519 C 0.79397 0.98064 0.60565 0.0
C2520 C 0.79422 0.99753 0.62735 0.0
C2521 C 0.80173 0.01386 0.62059 0.0
C2522 C 0.80567 0.01348 0.60642 0.0
C2523 C 0.8018 0.99709 0.59903 0.0
C2524 C 0.80554 0.0314 0.62816 0.0
C2525 C 0.82284 0.0463 0.62884 0.0
C2526 C 0.79232 0.03358 0.63462 0.0
C2527 C 0.77368 0.0186 0.63397 0.0
C2528 C 0.76413 0.01028 0.62084 0.0
C2529 C 0.74659 0.99609 0.62034 0.0
C2530 C 0.73842 0.9902 0.6329 0.0
C2531 C 0.74775 0.99853 0.64598 0.0
C2532 C 0.7653 0.01271 0.64654 0.0
C2533 C 0.8305 0.11646 0.6464 0.0
C2534 C 0.82621 0.11858 0.6602 0.0
C2535 C 0.82606 0.09925 0.64031 0.0
C2536 C 0.81756 0.08376 0.64801 0.0
C2537 C 0.81272 0.08579 0.66166 0.0
C2538 C 0.81692 0.10304 0.66767 0.0
C2539 C 0.81394 0.0656 0.6418 0.0
C2540 C 0.79671 0.05059 0.6414 0.0
C2541 C 0.82726 0.06323 0.63572 0.0
C2542 C 0.846 0.07805 0.63678 0.0
C2543 C 0.85487 0.08652 0.65009 0.0
C2544 C 0.87232 0.10093 0.65103 0.0
C2545 C 0.88108 0.10689 0.63874 0.0
C2546 C 0.87248 0.09841 0.62548 0.0
C2547 C 0.85501 0.084 0.62448 0.0
H2548 H 0.89446 0.11821 0.6395 0.0
H2549 H 0.72484 0.97921 0.63249 0.0
H2550 H 0.46029 0.37085 0.74054 0.0
H2551 H 0.43963 0.34161 0.72764 0.0
H2552 H 0.47679 0.3229 0.73516 0.0
H2553 H 0.49757 0.35219 0.74807 0.0
H2554 H 0.46168 0.31229 0.70872 0.0
H2555 H 0.44118 0.3097 0.75498 0.0
H2556 H 0.43161 0.32008 0.77579 0.0
H2557 H 0.38825 0.31689 0.75009 0.0
H2558 H 0.39772 0.30673 0.72907 0.0
H2559 H 0.3999 0.21688 0.69589 0.0
H2560 H 0.42183 0.24717 0.70653 0.0
H2561 H 0.38637 0.26716 0.69597 0.0
H2562 H 0.36434 0.23691 0.68528 0.0
H2563 H 0.40068 0.27704 0.72371 0.0
H2564 H 0.42144 0.2788 0.67741 0.0
H2565 H 0.43115 0.26769 0.65711 0.0
H2566 H 0.47419 0.27148 0.68365 0.0
H2567 H 0.46459 0.28237 0.70417 0.0
C2568 C 0.46406 0.36051 0.73948 0.0
C2569 C 0.48054 0.36384 0.74545 0.0
C2570 C 0.45223 0.34378 0.73209 0.0
C2571 C 0.45651 0.3299 0.73061 0.0
C2572 C 0.47317 0.33337 0.73617 0.0
C2573 C 0.48506 0.35015 0.74352 0.0
C2574 C 0.44345 0.31166 0.72355 0.0
C2575 C 0.44842 0.30449 0.71212 0.0
C2576 C 0.42602 0.30156 0.7278 0.0
C2577 C 0.42027 0.30764 0.74042 0.0
C2578 C 0.42969 0.31135 0.75374 0.0
C2579 C 0.42427 0.31717 0.76558 0.0
C2580 C 0.40936 0.31919 0.76426 0.0
C2581 C 0.39981 0.31535 0.7511 0.0
C2582 C 0.40519 0.30955 0.73922 0.0
C2583 C 0.39678 0.22773 0.69572 0.0
C2584 C 0.38034 0.22443 0.68966 0.0
C2585 C 0.40937 0.24507 0.70178 0.0
C2586 C 0.40579 0.25947 0.70197 0.0
C2587 C 0.38943 0.25625 0.69592 0.0
C2588 C 0.37688 0.23895 0.68975 0.0
C2589 C 0.41889 0.27774 0.70887 0.0
C2590 C 0.41393 0.28488 0.7203 0.0
C2591 C 0.43636 0.28772 0.70469 0.0
C2592 C 0.44219 0.28123 0.69236 0.0
C2593 C 0.43289 0.27712 0.67895 0.0
C2594 C 0.43839 0.27089 0.66739 0.0
C2595 C 0.45325 0.26884 0.66909 0.0
C2596 C 0.46267 0.27305 0.68235 0.0
C2597 C 0.45721 0.27927 0.69394 0.0
H2598 H 0.45749 0.26402 0.66013 0.0
H2599 H 0.40518 0.32369 0.77343 0.0
H2600 H 0.6512 0.13884 0.74581 0.0
H2601 H 0.67703 0.14564 0.73273 0.0
H2602 H 0.68125 0.1028 0.75204 0.0
H2603 H 0.65538 0.0958 0.76501 0.0
H2604 H 0.71266 0.13322 0.75354 0.0
H2605 H 0.66628 0.09803 0.71712 0.0
H2606 H 0.63951 0.08979 0.70163 0.0
H2607 H 0.66623 0.14174 0.68414 0.0
H2608 H 0.6931 0.15039 0.69967 0.0
H2609 H 0.7779 0.13268 0.71209 0.0
H2610 H 0.75108 0.12496 0.72399 0.0
H2611 H 0.7444 0.16428 0.7012 0.0
H2612 H 0.77082 0.17139 0.68881 0.0
H2613 H 0.71394 0.13555 0.70137 0.0
H2614 H 0.75859 0.17217 0.73968 0.0
H2615 H 0.78463 0.18149 0.75636 0.0
H2616 H 0.76134 0.12733 0.76998 0.0
H2617 H 0.73479 0.11785 0.75373 0.0
C2618 C 0.65745 0.13067 0.74712 0.0
C2619 C 0.6512 0.11681 0.75654 0.0
C2620 C 0.67226 0.1346 0.73963 0.0
C2621 C 0.68108 0.12468 0.74133 0.0
C2622 C 0.67474 0.11071 0.75059 0.0
C2623 C 0.65997 0.10678 0.75806 0.0
C2624 C 0.69731 0.12927 0.73392 0.0
C2625 C 0.71285 0.13348 0.74211 0.0
C2626 C 0.69777 0.1301 0.71903 0.0
C2627 C 0.68164 0.12493 0.70967 0.0
C2628 C 0.6664 0.10776 0.71006 0.0
C2629 C 0.65122 0.103 0.70126 0.0
C2630 C 0.65116 0.11525 0.69194 0.0
C2631 C 0.66629 0.13227 0.69138 0.0
C2632 C 0.68151 0.1371 0.70017 0.0
C2633 C 0.7707 0.13967 0.70963 0.0
C2634 C 0.77642 0.1526 0.6995 0.0
C2635 C 0.75543 0.13538 0.71655 0.0
C2636 C 0.74576 0.14424 0.71374 0.0
C2637 C 0.75155 0.15722 0.70361 0.0
C2638 C 0.76668 0.1613 0.69653 0.0
C2639 C 0.72937 0.1396 0.72102 0.0
C2640 C 0.71377 0.13533 0.7128 0.0
C2641 C 0.72882 0.13877 0.7359 0.0
C2642 C 0.74486 0.14427 0.74541 0.0
C2643 C 0.75909 0.16223 0.74617 0.0
C2644 C 0.77391 0.16755 0.75558 0.0
C2645 C 0.77478 0.15494 0.76407 0.0
C2646 C 0.76069 0.13705 0.76334 0.0
C2647 C 0.74569 0.13173 0.75413 0.0
H2648 H 0.78629 0.15902 0.77127 0.0
H2649 H 0.63939 0.11155 0.68512 0.0
H2650 H 0.85507 0.50822 0.72887 0.0
H2651 H 0.84934 0.53108 0.71912 0.0
H2652 H 0.90368 0.57241 0.73017 0.0
H2653 H 0.90956 0.54953 0.73993 0.0
H2654 H 0.88136 0.58512 0.736 0.0
H2655 H 0.88982 0.55397 0.69618 0.0
H2656 H 0.88461 0.52724 0.68079 0.0
H2657 H 0.83019 0.51229 0.67229 0.0
H2658 H 0.83501 0.53881 0.6878 0.0
H2659 H 0.88078 0.64927 0.68891 0.0
H2660 H 0.8879 0.62732 0.69903 0.0
H2661 H 0.8324 0.58718 0.69653 0.0
H2662 H 0.82517 0.60915 0.68684 0.0
H2663 H 0.85628 0.57465 0.68612 0.0
H2664 H 0.84746 0.60517 0.72602 0.0
H2665 H 0.8522 0.63172 0.74135 0.0
H2666 H 0.90688 0.64765 0.74985 0.0
H2667 H 0.90256 0.6214 0.73423 0.0
C2668 C 0.86586 0.52215 0.72918 0.0
C2669 C 0.88284 0.52695 0.73506 0.0
C2670 C 0.86254 0.53524 0.72361 0.0
C2671 C 0.87614 0.55345 0.72368 0.0
C2672 C 0.89297 0.55845 0.72996 0.0
C2673 C 0.8963 0.54534 0.73557 0.0
C2674 C 0.87281 0.56711 0.71691 0.0
C2675 C 0.87615 0.58296 0.72503 0.0
C2676 C 0.86566 0.56417 0.70267 0.0
C2677 C 0.86274 0.54829 0.69325 0.0
C2678 C 0.87671 0.54491 0.69111 0.0
C2679 C 0.87383 0.52981 0.68235 0.0
C2680 C 0.85707 0.51805 0.67559 0.0
C2681 C 0.84316 0.5214 0.67755 0.0
C2682 C 0.84596 0.53647 0.68631 0.0
C2683 C 0.87013 0.6357 0.69038 0.0
C2684 C 0.85242 0.63092 0.68705 0.0
C2685 C 0.8742 0.62323 0.69623 0.0
C2686 C 0.86066 0.60566 0.69857 0.0
C2687 C 0.84303 0.60066 0.69481 0.0
C2688 C 0.83893 0.61324 0.68929 0.0
C2689 C 0.86481 0.59256 0.70521 0.0
C2690 C 0.86162 0.57684 0.69706 0.0
C2691 C 0.87206 0.59561 0.71941 0.0
C2692 C 0.87474 0.61146 0.72877 0.0
C2693 C 0.86056 0.61447 0.73099 0.0
C2694 C 0.86316 0.62945 0.73976 0.0
C2695 C 0.87985 0.6414 0.74655 0.0
C2696 C 0.89396 0.6384 0.74456 0.0
C2697 C 0.89145 0.62348 0.73573 0.0
H2698 H 0.88182 0.65296 0.75338 0.0
H2699 H 0.85487 0.50637 0.66882 0.0
H2700 H 0.44098 0.93725 0.14336 0.0
H2701 H 0.45057 0.95037 0.12083 0.0
H2702 H 0.50481 0.97841 0.13817 0.0
H2703 H 0.49532 0.9659 0.161 0.0
H2704 H 0.49792 1.00056 0.1237 0.0
H2705 H 0.48683 0.93997 0.11616 0.0
H2706 H 0.47038 0.90645 0.11485 0.0
H2707 H 0.43423 0.9051 0.08193 0.0
H2708 H 0.45035 0.93861 0.0831 0.0
H2709 H 0.5393 0.01711 0.05796 0.0
H2710 H 0.52825 1.00533 0.08068 0.0
H2711 H 0.47569 0.99199 0.06523 0.0
H2712 H 0.48693 1.00477 0.04267 0.0
H2713 H 0.48096 0.96248 0.07814 0.0
H2714 H 0.49153 0.02343 0.08728 0.0
H2715 H 0.50926 0.05693 0.08809 0.0
H2716 H 0.54829 0.05666 0.11715 0.0
H2717 H 0.5309 0.0231 0.11633 0.0
C2718 C 0.45495 0.94631 0.14246 0.0
C2719 C 0.46737 0.95051 0.15406 0.0
C2720 C 0.46041 0.95364 0.12948 0.0
C2721 C 0.47839 0.96519 0.12769 0.0
C2722 C 0.49084 0.96946 0.13925 0.0
C2723 C 0.48541 0.96216 0.15227 0.0
C2724 C 0.48415 0.97311 0.11388 0.0
C2725 C 0.49432 0.99215 0.11379 0.0
C2726 C 0.4792 0.9622 0.10082 0.0
C2727 C 0.46949 0.94193 0.10007 0.0
C2728 C 0.47519 0.93258 0.10882 0.0
C2729 C 0.46598 0.91354 0.10803 0.0
C2730 C 0.45117 0.90364 0.09841 0.0
C2731 C 0.44563 0.91277 0.08946 0.0
C2732 C 0.4548 0.9318 0.0902 0.0
C2733 C 0.52543 0.01187 0.05945 0.0
C2734 C 0.51388 0.01154 0.04846 0.0
C2735 C 0.51914 1.00512 0.07241 0.0
C2736 C 0.50116 0.9977 0.07458 0.0
C2737 C 0.48961 0.99756 0.06371 0.0
C2738 C 0.496 1.00475 0.05083 0.0
C2739 C 0.49451 0.98971 0.08811 0.0
C2740 C 0.4843 0.97073 0.08811 0.0
C2741 C 0.49953 1.00058 0.10108 0.0
C2742 C 0.51001 0.02074 0.10162 0.0
C2743 C 0.50398 0.0305 0.09372 0.0
C2744 C 0.51395 0.0495 0.09421 0.0
C2745 C 0.52992 0.05892 0.10264 0.0
C2746 C 0.53593 0.04935 0.11061 0.0
C2747 C 0.52602 0.03034 0.11015 0.0
H2748 H 0.53761 0.07363 0.10301 0.0
H2749 H 0.44407 0.8889 0.09782 0.0
H2750 H 0.06476 0.54531 0.16429 0.0
H2751 H 0.05266 0.5429 0.14 0.0
H2752 H 0.06285 0.4993 0.12883 0.0
H2753 H 0.07568 0.50216 0.15292 0.0
H2754 H 0.07117 0.52149 0.10814 0.0
H2755 H 0.02091 0.49107 0.1355 0.0
H2756 H 1.00225 0.48809 0.1551 0.0
H2757 H 0.99638 0.53243 0.14133 0.0
H2758 H 0.01522 0.53583 0.12175 0.0
H2759 H 0.01138 0.48525 0.04483 0.0
H2760 H 0.02557 0.48853 0.06864 0.0
H2761 H 0.02212 0.53668 0.07875 0.0
H2762 H 0.00923 0.5342 0.05474 0.0
H2763 H 0.01075 0.51231 0.0997 0.0
H2764 H 0.0592 0.54055 0.07072 0.0
H2765 H 0.07775 0.54298 0.05123 0.0
H2766 H 0.08779 0.50268 0.06821 0.0
H2767 H 0.06848 0.49922 0.08738 0.0
C2768 C 0.06466 0.53536 0.15664 0.0
C2769 C 0.07112 0.52385 0.16066 0.0
C2770 C 0.05754 0.53386 0.14276 0.0
C2771 C 0.05656 0.52071 0.13258 0.0
C2772 C 0.06336 0.50949 0.13647 0.0
C2773 C 0.07053 0.51102 0.15032 0.0
C2774 C 0.04822 0.51845 0.11796 0.0
C2775 C 0.05786 0.5192 0.10628 0.0
C2776 C 0.03098 0.51586 0.11551 0.0
C2777 C 0.01962 0.51382 0.12725 0.0
C2778 C 0.01575 0.50027 0.13672 0.0
C2779 C 1.00512 0.49849 0.14781 0.0
C2780 C 0.99817 0.51009 0.14949 0.0
C2781 C 1.0018 0.52347 0.14004 0.0
C2782 C 0.01244 0.52532 0.12894 0.0
C2783 C 0.0142 0.49682 0.05199 0.0
C2784 C 0.00976 0.50978 0.04776 0.0
C2785 C 0.02207 0.49857 0.06564 0.0
C2786 C 0.0252 0.51306 0.07539 0.0
C2787 C 0.02007 0.52556 0.07135 0.0
C2788 C 0.01263 0.52406 0.05763 0.0
C2789 C 0.03365 0.5152 0.08988 0.0
C2790 C 0.02404 0.51449 0.10154 0.0
C2791 C 0.05087 0.51771 0.09226 0.0
C2792 C 0.06209 0.5194 0.08042 0.0
C2793 C 0.06501 0.53188 0.07016 0.0
C2794 C 0.07566 0.53343 0.05913 0.0
C2795 C 0.0838 0.52285 0.05839 0.0
C2796 C 0.08129 0.5107 0.06868 0.0
C2797 C 0.07042 0.50887 0.07959 0.0
H2798 H 0.09214 0.52415 0.0499 0.0
H2799 H 0.98994 0.50869 0.15808 0.0
H2800 H 0.49536 0.54392 0.16299 0.0
H2801 H 0.50443 0.54118 0.13939 0.0
H2802 H 0.45382 0.49297 0.12833 0.0
H2803 H 0.44447 0.49578 0.1518 0.0
H2804 H 0.48145 0.4886 0.1202 0.0
H2805 H 0.46312 0.53317 0.11712 0.0
H2806 H 0.46288 0.56164 0.12285 0.0
H2807 H 0.51722 0.59287 0.11358 0.0
H2808 H 0.5179 0.56457 0.10803 0.0
H2809 H 0.49263 0.48223 0.0465 0.0
H2810 H 0.48148 0.48386 0.06947 0.0
H2811 H 0.52671 0.53758 0.07955 0.0
H2812 H 0.53688 0.53655 0.05611 0.0
H2813 H 0.50036 0.53833 0.08812 0.0
H2814 H 0.52101 0.49608 0.09379 0.0
H2815 H 0.52302 0.46856 0.08796 0.0
H2816 H 0.46763 0.43479 0.09309 0.0
H2817 H 0.46525 0.46214 0.09878 0.0
C2818 C 0.48605 0.53283 0.15552 0.0
C2819 C 0.46914 0.5201 0.15938 0.0
C2820 C 0.49131 0.53124 0.14202 0.0
C2821 C 0.47978 0.51692 0.13203 0.0
C2822 C 0.46298 0.50409 0.13587 0.0
C2823 C 0.45768 0.5057 0.14934 0.0
C2824 C 0.48523 0.51533 0.11759 0.0
C2825 C 0.48541 0.49941 0.11311 0.0
C2826 C 0.49087 0.52963 0.10848 0.0
C2827 C 0.49061 0.54669 0.1123 0.0
C2828 C 0.47511 0.54609 0.11649 0.0
C2829 C 0.47487 0.56221 0.11966 0.0
C2830 C 0.49004 0.57905 0.11862 0.0
C2831 C 0.50549 0.57981 0.11443 0.0
C2832 C 0.50581 0.56372 0.11128 0.0
C2833 C 0.49989 0.49455 0.05349 0.0
C2834 C 0.51534 0.50943 0.04935 0.0
C2835 C 0.49374 0.49533 0.06678 0.0
C2836 C 0.50332 0.51078 0.07646 0.0
C2837 C 0.51897 0.52552 0.07235 0.0
C2838 C 0.52487 0.52487 0.05896 0.0
C2839 C 0.49704 0.51184 0.09075 0.0
C2840 C 0.49656 0.5276 0.09521 0.0
C2841 C 0.49153 0.4976 0.09996 0.0
C2842 C 0.49292 0.48115 0.09657 0.0
C2843 C 0.50924 0.48279 0.09358 0.0
C2844 C 0.51045 0.46722 0.09031 0.0
C2845 C 0.49545 0.44994 0.09011 0.0
C2846 C 0.47923 0.44819 0.09322 0.0
C2847 C 0.47794 0.46371 0.09648 0.0
H2848 H 0.49642 0.43791 0.08758 0.0
H2849 H 0.4898 0.59152 0.12103 0.0
H2850 H 0.95512 0.46992 0.85492 0.0
H2851 H 0.967 0.47307 0.87939 0.0
H2852 H 0.96321 0.52134 0.88769 0.0
H2853 H 0.95093 0.5181 0.8633 0.0
H2854 H 0.99511 0.5259 0.8986 0.0
H2855 H 0.93332 0.4825 0.90061 0.0
H2856 H 0.90487 0.45454 0.89359 0.0
H2857 H 0.92877 0.4219 0.9017 0.0
H2858 H 0.95742 0.44968 0.90858 0.0
H2859 H 0.01091 0.52935 0.97411 0.0
H2860 H 0.9983 0.52873 0.95027 0.0
H2861 H 0.9948 0.47705 0.9392 0.0
H2862 H 1.00637 0.47719 0.9632 0.0
H2863 H 0.96585 0.47575 0.92996 0.0
H2864 H 0.02798 0.51957 0.92795 0.0
H2865 H 0.05597 0.54769 0.93574 0.0
H2866 H 0.03118 0.57964 0.92823 0.0
H2867 H 1.00298 0.55169 0.92056 0.0
C2868 C 0.95659 0.4811 0.86196 0.0
C2869 C 0.95197 0.49371 0.85706 0.0
C2870 C 0.96348 0.48293 0.87596 0.0
C2871 C 0.9659 0.49738 0.88542 0.0
C2872 C 0.96153 0.51012 0.88057 0.0
C2873 C 0.95456 0.50827 0.86658 0.0
C2874 C 0.97293 0.4991 0.90037 0.0
C2875 C 0.98862 0.51499 0.90552 0.0
C2876 C 0.96461 0.48484 0.90938 0.0
C2877 C 0.94753 0.46815 0.90495 0.0
C2878 C 0.93254 0.46936 0.90074 0.0
C2879 C 0.91637 0.45354 0.89682 0.0
C2880 C 0.91503 0.43645 0.89716 0.0
C2881 C 0.92985 0.43514 0.9014 0.0
C2882 C 0.94605 0.45091 0.90529 0.0
C2883 C 1.00713 0.51774 0.96664 0.0
C2884 C 0.00932 0.50319 0.97058 0.0
C2885 C 1.00022 0.51753 0.95293 0.0
C2886 C 0.99575 0.50293 0.94281 0.0
C2887 C 0.99812 0.48848 0.94676 0.0
C2888 C 1.00483 0.48861 0.96048 0.0
C2889 C 0.98822 0.50229 0.92819 0.0
C2890 C 0.97239 0.48661 0.92307 0.0
C2891 C 0.9964 0.51675 0.91928 0.0
C2892 C 0.01336 0.53354 0.9238 0.0
C2893 C 0.02848 0.53259 0.92805 0.0
C2894 C 0.04438 0.54849 0.93242 0.0
C2895 C 0.04534 0.56543 0.93251 0.0
C2896 C 0.03041 0.56651 0.92818 0.0
C2897 C 0.01448 0.55065 0.9238 0.0
H2898 H 0.05766 0.57773 0.93591 0.0
H2899 H 0.90249 0.42423 0.89416 0.0
H2900 H 0.51946 0.46218 0.85722 0.0
H2901 H 0.51005 0.46512 0.88065 0.0
H2902 H 0.55978 0.51459 0.89125 0.0
H2903 H 0.56914 0.51206 0.86776 0.0
H2904 H 0.55053 0.49108 0.91245 0.0
H2905 H 0.52302 0.51656 0.88313 0.0
H2906 H 0.50415 0.51628 0.86284 0.0
H2907 H 0.45923 0.46989 0.87736 0.0
H2908 H 0.4779 0.46973 0.89764 0.0
H2909 H 0.52924 0.52469 0.97486 0.0
H2910 H 0.53804 0.52202 0.95099 0.0
H2911 H 0.48775 0.47313 0.94068 0.0
H2912 H 0.4794 0.47513 0.96468 0.0
H2913 H 0.49678 0.49541 0.91926 0.0
H2914 H 0.52334 0.4712 0.94961 0.0
H2915 H 0.5419 0.47037 0.96953 0.0
H2916 H 0.5883 0.51234 0.95277 0.0
H2917 H 0.57003 0.51398 0.93306 0.0
C2918 C 0.52834 0.47383 0.86444 0.0
C2919 C 0.5451 0.48688 0.86052 0.0
C2920 C 0.52294 0.47544 0.87788 0.0
C2921 C 0.53417 0.49013 0.8877 0.0
C2922 C 0.55091 0.5031 0.88387 0.0
C2923 C 0.55628 0.50156 0.87043 0.0
C2924 C 0.52861 0.49193 0.90202 0.0
C2925 C 0.53894 0.49233 0.91397 0.0
C2926 C 0.51313 0.49291 0.90397 0.0
C2927 C 0.50189 0.49302 0.89182 0.0
C2928 C 0.50915 0.5062 0.88193 0.0
C2929 C 0.49848 0.50614 0.87044 0.0
C2930 C 0.48051 0.49304 0.86879 0.0
C2931 C 0.47316 0.48001 0.87864 0.0
C2932 C 0.48377 0.48 0.89014 0.0
C2933 C 0.5203 0.51316 0.96761 0.0
C2934 C 0.5039 0.49984 0.97179 0.0
C2935 C 0.52522 0.51174 0.95392 0.0
C2936 C 0.51365 0.49717 0.94411 0.0
C2937 C 0.49697 0.48433 0.94811 0.0
C2938 C 0.49221 0.48554 0.96183 0.0
C2939 C 0.51895 0.495 0.92975 0.0
C2940 C 0.50846 0.49433 0.91779 0.0
C2941 C 0.53423 0.49364 0.9278 0.0
C2942 C 0.54522 0.49291 0.93991 0.0
C2943 C 0.53746 0.48048 0.95027 0.0
C2944 C 0.54794 0.47991 0.96159 0.0
C2945 C 0.56622 0.49152 0.9626 0.0
C2946 C 0.57411 0.50355 0.95216 0.0
C2947 C 0.56369 0.50436 0.94092 0.0
H2948 H 0.57424 0.49116 0.97147 0.0
H2949 H 0.47228 0.49302 0.85989 0.0
H2950 H 0.50942 0.03741 0.85747 0.0
H2951 H 0.50492 0.02548 0.88079 0.0
H2952 H 0.55549 0.07066 0.89714 0.0
H2953 H 0.56006 0.08279 0.87375 0.0
H2954 H 0.55034 0.03942 0.90747 0.0
H2955 H 0.51829 0.07067 0.9037 0.0
H2956 H 0.49754 0.07928 0.89304 0.0
H2957 H 0.4544 0.02494 0.89553 0.0
H2958 H 0.47499 0.01581 0.9058 0.0
H2959 H 0.53065 0.02291 0.97966 0.0
H2960 H 0.53894 0.03618 0.95707 0.0
H2961 H 0.48825 0.99472 0.93733 0.0
H2962 H 0.47986 0.98187 0.96022 0.0
H2963 H 0.49525 0.02646 0.92948 0.0
H2964 H 0.52984 0.99588 0.93278 0.0
H2965 H 0.55168 0.98975 0.94495 0.0
H2966 H 0.5913 0.04621 0.94527 0.0
H2967 H 0.56964 0.05274 0.93327 0.0
C2968 C 0.51958 0.04488 0.86602 0.0
C2969 C 0.53502 0.06119 0.86375 0.0
C2970 C 0.517 0.038 0.87936 0.0
C2971 C 0.52973 0.04731 0.89081 0.0
C2972 C 0.54546 0.06325 0.88848 0.0
C2973 C 0.54807 0.07014 0.87509 0.0
C2974 C 0.52629 0.04057 0.90522 0.0
C2975 C 0.53838 0.03676 0.91235 0.0
C2976 C 0.5107 0.03711 0.91164 0.0
C2977 C 0.49824 0.0425 0.90539 0.0
C2978 C 0.50441 0.06048 0.90183 0.0
C2979 C 0.49267 0.06547 0.89587 0.0
C2980 C 0.47466 0.05268 0.89363 0.0
C2981 C 0.46836 0.03484 0.89728 0.0
C2982 C 0.48007 0.02974 0.90314 0.0
C2983 C 0.52152 0.01636 0.97049 0.0
C2984 C 0.50481 1.00117 0.97172 0.0
C2985 C 0.52621 0.024 0.9575 0.0
C2986 C 0.51437 0.0163 0.94533 0.0
C2987 C 0.49769 1.00092 0.94652 0.0
C2988 C 0.49292 0.99351 0.95958 0.0
C2989 C 0.51896 0.02465 0.93153 0.0
C2990 C 0.50714 0.02897 0.92456 0.0
C2991 C 0.53493 0.02885 0.9254 0.0
C2992 C 0.54808 0.02481 0.93221 0.0
C2993 C 0.5432 0.007 0.93548 0.0
C2994 C 0.55554 1.00346 0.94236 0.0
C2995 C 0.57285 0.01761 0.94593 0.0
C2996 C 0.57788 0.03529 0.94253 0.0
C2997 C 0.56559 0.03891 0.93567 0.0
H2998 H 0.58238 0.01486 0.95129 0.0
H2999 H 0.46558 0.0566 0.88908 0.0
H3000 H 0.11677 0.26697 0.47929 0.0
H3001 H 0.1259 0.27916 0.45634 0.0
H3002 H 0.16596 0.33041 0.47752 0.0
H3003 H 0.15673 0.31835 0.50057 0.0
H3004 H 0.14706 0.33473 0.45497 0.0
H3005 H 0.17794 0.30205 0.46358 0.0
H3006 H 0.18074 0.27551 0.46934 0.0
H3007 H 0.14603 0.24435 0.43271 0.0
H3008 H 0.14281 0.27063 0.42683 0.0
H3009 H 0.19373 0.36983 0.39311 0.0
H3010 H 0.18505 0.36019 0.41688 0.0
H3011 H 0.14848 0.30565 0.39876 0.0
H3012 H 0.15757 0.31503 0.37522 0.0
H3013 H 0.16678 0.30406 0.42045 0.0
H3014 H 0.1347 0.33538 0.41194 0.0
H3015 H 0.13084 0.36119 0.40587 0.0
H3016 H 0.16626 0.39399 0.44172 0.0
H3017 H 0.17051 0.36843 0.4479 0.0
C3018 C 0.12745 0.28087 0.47908 0.0
C3019 C 0.13604 0.29167 0.49177 0.0
C3020 C 0.13273 0.28778 0.46595 0.0
C3021 C 0.14671 0.30566 0.46521 0.0
C3022 C 0.15517 0.31657 0.47784 0.0
C3023 C 0.14998 0.30962 0.491 0.0
C3024 C 0.15252 0.31284 0.45123 0.0
C3025 C 0.15162 0.3282 0.44748 0.0
C3026 C 0.15807 0.30407 0.44134 0.0
C3027 C 0.16 0.28826 0.44484 0.0
C3028 C 0.17078 0.28949 0.45682 0.0
C3029 C 0.17247 0.2745 0.46009 0.0
C3030 C 0.16353 0.25824 0.45142 0.0
C3031 C 0.15292 0.25695 0.43943 0.0
C3032 C 0.15118 0.27189 0.43611 0.0
C3033 C 0.18373 0.35585 0.39422 0.0
C3034 C 0.17625 0.34323 0.3823 0.0
C3035 C 0.17871 0.35035 0.4078 0.0
C3036 C 0.16599 0.33219 0.40965 0.0
C3037 C 0.15833 0.31971 0.39766 0.0
C3038 C 0.16343 0.32514 0.38417 0.0
C3039 C 0.16113 0.32586 0.42404 0.0
C3040 C 0.16225 0.31066 0.42791 0.0
C3041 C 0.15563 0.33468 0.43396 0.0
C3042 C 0.15307 0.35005 0.43029 0.0
C3043 C 0.14178 0.34814 0.41846 0.0
C3044 C 0.1395 0.36272 0.41502 0.0
C3045 C 0.14834 0.37924 0.42338 0.0
C3046 C 0.15944 0.3812 0.43524 0.0
C3047 C 0.16178 0.36666 0.43872 0.0
H3048 H 0.14656 0.39051 0.4207 0.0
H3049 H 0.16486 0.24666 0.45397 0.0
H3050 H 0.73401 0.82769 0.48864 0.0
H3051 H 0.72172 0.82486 0.46435 0.0
H3052 H 0.7384 0.88209 0.46762 0.0
H3053 H 0.75101 0.88515 0.49184 0.0
H3054 H 0.70443 0.86177 0.45738 0.0
H3055 H 0.75957 0.86539 0.44695 0.0
H3056 H 0.78264 0.85671 0.44756 0.0
H3057 H 0.74458 0.80274 0.43001 0.0
H3058 H 0.72124 0.81106 0.4294 0.0
H3059 H 0.68613 0.87215 0.38642 0.0
H3060 H 0.70107 0.87445 0.40951 0.0
H3061 H 0.68648 0.81783 0.40329 0.0
H3062 H 0.67179 0.81565 0.37996 0.0
H3063 H 0.71913 0.83684 0.415 0.0
H3064 H 0.66411 0.83245 0.42513 0.0
H3065 H 0.64059 0.84048 0.42393 0.0
H3066 H 0.67736 0.89443 0.44237 0.0
H3067 H 0.70116 0.88679 0.44351 0.0
C3068 C 0.73536 0.83978 0.48414 0.0
C3069 C 0.74352 0.85666 0.49228 0.0
C3070 C 0.72829 0.83811 0.47022 0.0
C3071 C 0.72924 0.85329 0.46408 0.0
C3072 C 0.73749 0.87018 0.47212 0.0
C3073 C 0.7446 0.87187 0.48602 0.0
C3074 C 0.72076 0.8514 0.44962 0.0
C3075 C 0.70785 0.85657 0.44808 0.0
C3076 C 0.72471 0.84398 0.43755 0.0
C3077 C 0.73861 0.83879 0.43829 0.0
C3078 C 0.75607 0.8516 0.4434 0.0
C3079 C 0.76921 0.84677 0.4437 0.0
C3080 C 0.76506 0.82916 0.4389 0.0
C3081 C 0.74775 0.81634 0.4338 0.0
C3082 C 0.73457 0.82113 0.43345 0.0
C3083 C 0.68604 0.86017 0.39002 0.0
C3084 C 0.67775 0.84369 0.38146 0.0
C3085 C 0.69458 0.86149 0.40323 0.0
C3086 C 0.69467 0.84623 0.40831 0.0
C3087 C 0.68659 0.8298 0.39964 0.0
C3088 C 0.6782 0.82854 0.38633 0.0
C3089 C 0.70295 0.84743 0.42275 0.0
C3090 C 0.71573 0.84205 0.42429 0.0
C3091 C 0.69875 0.85447 0.4349 0.0
C3092 C 0.68445 0.85909 0.43429 0.0
C3093 C 0.6672 0.84606 0.42884 0.0
C3094 C 0.65382 0.85054 0.42819 0.0
C3095 C 0.65749 0.86797 0.43304 0.0
C3096 C 0.67454 0.88094 0.4386 0.0
C3097 C 0.68798 0.87654 0.43927 0.0
H3098 H 0.64711 0.87141 0.43252 0.0
H3099 H 0.77527 0.82548 0.43905 0.0
H3100 H 0.1126 0.82743 0.48468 0.0
H3101 H 0.12244 0.82466 0.46144 0.0
H3102 H 0.1613 0.8819 0.46575 0.0
H3103 H 0.15188 0.88475 0.4892 0.0
H3104 H 0.14297 0.87039 0.43901 0.0
H3105 H 0.17425 0.85189 0.47115 0.0
H3106 H 0.17686 0.83388 0.48982 0.0
H3107 H 0.14428 0.78451 0.46335 0.0
H3108 H 0.14126 0.80223 0.44459 0.0
H3109 H 0.1987 0.8738 0.3858 0.0
H3110 H 0.18678 0.87532 0.40843 0.0
H3111 H 0.14981 0.81757 0.40268 0.0
H3112 H 0.16168 0.81601 0.37995 0.0
H3113 H 0.16624 0.82847 0.42988 0.0
H3114 H 0.13547 0.84506 0.3974 0.0
H3115 H 0.1307 0.86127 0.37834 0.0
H3116 H 0.15862 0.91159 0.40454 0.0
H3117 H 0.16374 0.89565 0.4237 0.0
C3118 C 0.12338 0.83942 0.4808 0.0
C3119 C 0.13152 0.8563 0.48896 0.0
C3120 C 0.12893 0.83782 0.46745 0.0
C3121 C 0.14273 0.85303 0.4619 0.0
C3122 C 0.15061 0.86998 0.46981 0.0
C3123 C 0.14514 0.87159 0.48322 0.0
C3124 C 0.14911 0.85119 0.44796 0.0
C3125 C 0.1482 0.86136 0.43702 0.0
C3126 C 0.15552 0.83903 0.44529 0.0
C3127 C 0.15738 0.82837 0.45653 0.0
C3128 C 0.16752 0.83718 0.46935 0.0
C3129 C 0.16909 0.82703 0.47995 0.0
C3130 C 0.1607 0.80806 0.47779 0.0
C3131 C 0.15075 0.79921 0.46502 0.0
C3132 C 0.14912 0.8093 0.4544 0.0
C3133 C 0.18809 0.86142 0.38941 0.0
C3134 C 0.18101 0.84479 0.38114 0.0
C3135 C 0.18125 0.86232 0.40229 0.0
C3136 C 0.16736 0.84658 0.40722 0.0
C3137 C 0.16051 0.82988 0.39908 0.0
C3138 C 0.16721 0.82902 0.38609 0.0
C3139 C 0.16006 0.84766 0.42088 0.0
C3140 C 0.16086 0.83739 0.43179 0.0
C3141 C 0.15322 0.85947 0.42342 0.0
C3142 C 0.15036 0.86921 0.41189 0.0
C3143 C 0.14085 0.85962 0.39902 0.0
C3144 C 0.13801 0.86874 0.38821 0.0
C3145 C 0.14442 0.88746 0.39021 0.0
C3146 C 0.15371 0.89709 0.403 0.0
C3147 C 0.15663 0.88802 0.41382 0.0
H3148 H 0.14215 0.8945 0.38185 0.0
H3149 H 0.16193 0.80022 0.486 0.0
H3150 H 0.61241 0.79509 0.19101 0.0
H3151 H 0.62468 0.79831 0.21537 0.0
H3152 H 0.63125 0.8521 0.22116 0.0
H3153 H 0.61976 0.84934 0.19663 0.0
H3154 H 0.65958 0.85222 0.23234 0.0
H3155 H 0.59714 0.81441 0.23387 0.0
H3156 H 0.56736 0.7881 0.22772 0.0
H3157 H 0.58504 0.75192 0.24148 0.0
H3158 H 0.61505 0.778 0.24755 0.0
H3159 H 0.67795 0.8615 0.30735 0.0
H3160 H 0.664 0.85935 0.28371 0.0
H3161 H 0.65542 0.80496 0.27566 0.0
H3162 H 0.66853 0.80679 0.29947 0.0
H3163 H 0.62715 0.80595 0.26606 0.0
H3164 H 0.68985 0.84281 0.26201 0.0
H3165 H 0.71985 0.86882 0.26836 0.0
H3166 H 0.70162 0.90608 0.25917 0.0
H3167 H 0.67145 0.88027 0.25294 0.0
C3168 C 0.61663 0.8077 0.19739 0.0
C3169 C 0.61498 0.82191 0.1918 0.0
C3170 C 0.62348 0.80944 0.2114 0.0
C3171 C 0.62867 0.82535 0.22021 0.0
C3172 C 0.62726 0.83965 0.21462 0.0
C3173 C 0.6205 0.83796 0.2006 0.0
C3174 C 0.63571 0.82718 0.23521 0.0
C3175 C 0.65235 0.84221 0.23975 0.0
C3176 C 0.62647 0.81396 0.24487 0.0
C3177 C 0.60844 0.7982 0.24105 0.0
C3178 C 0.59476 0.80084 0.23545 0.0
C3179 C 0.57781 0.78596 0.23201 0.0
C3180 C 0.57432 0.76834 0.23417 0.0
C3181 C 0.58777 0.76557 0.2398 0.0
C3182 C 0.60476 0.78041 0.24326 0.0
C3183 C 0.67277 0.849 0.3006 0.0
C3184 C 0.67411 0.83425 0.3053 0.0
C3185 C 0.66502 0.84785 0.28702 0.0
C3186 C 0.65877 0.83203 0.27778 0.0
C3187 C 0.66009 0.81729 0.28254 0.0
C3188 C 0.66772 0.81841 0.29612 0.0
C3189 C 0.65111 0.83083 0.26309 0.0
C3190 C 0.63434 0.81595 0.25863 0.0
C3191 C 0.66024 0.84411 0.25347 0.0
C3192 C 0.67837 0.85962 0.25715 0.0
C3193 C 0.69222 0.85656 0.26144 0.0
C3194 C 0.70925 0.87126 0.265 0.0
C3195 C 0.71262 0.88909 0.26421 0.0
C3196 C 0.69898 0.89226 0.2598 0.0
C3197 C 0.68191 0.8776 0.25625 0.0
H3198 H 0.72582 0.90046 0.26696 0.0
H3199 H 0.56118 0.75683 0.23151 0.0
H3200 H 0.21132 0.79691 0.20065 0.0
H3201 H 0.20134 0.79926 0.22398 0.0
H3202 H 0.20234 0.84881 0.21398 0.0
H3203 H 0.21238 0.84658 0.1907 0.0
H3204 H 0.21679 0.853 0.23983 0.0
H3205 H 0.16309 0.80743 0.2137 0.0
H3206 H 0.14389 0.77873 0.19904 0.0
H3207 H 0.14968 0.74828 0.23174 0.0
H3208 H 0.16913 0.77683 0.24652 0.0
H3209 H 0.14426 0.82695 0.2939 0.0
H3210 H 0.15292 0.82441 0.26996 0.0
H3211 H 0.2046 0.83748 0.2877 0.0
H3212 H 0.19575 0.83972 0.31142 0.0
H3213 H 0.16295 0.80264 0.25753 0.0
H3214 H 0.23571 0.86169 0.26451 0.0
H3215 H 0.25385 0.89125 0.27841 0.0
H3216 H 0.20774 0.89618 0.28299 0.0
H3217 H 0.18942 0.86696 0.26873 0.0
C3218 C 0.20924 0.80821 0.20336 0.0
C3219 C 0.21267 0.82155 0.19377 0.0
C3220 C 0.20354 0.80955 0.21673 0.0
C3221 C 0.20092 0.82414 0.22075 0.0
C3222 C 0.20432 0.83746 0.21119 0.0
C3223 C 0.2101 0.83618 0.19787 0.0
C3224 C 0.19491 0.82574 0.23497 0.0
C3225 C 0.20502 0.84196 0.24369 0.0
C3226 C 0.17944 0.81146 0.24001 0.0
C3227 C 0.1677 0.79428 0.23116 0.0
C3228 C 0.16038 0.79462 0.21772 0.0
C3229 C 0.14943 0.77838 0.2094 0.0
C3230 C 0.1456 0.76169 0.21444 0.0
C3231 C 0.15268 0.76121 0.22784 0.0
C3232 C 0.16365 0.77742 0.2362 0.0
C3233 C 0.15752 0.82945 0.29263 0.0
C3234 C 0.16967 0.83437 0.30451 0.0
C3235 C 0.16243 0.82791 0.27897 0.0
C3236 C 0.17956 0.83113 0.27695 0.0
C3237 C 0.1915 0.83549 0.28888 0.0
C3238 C 0.18658 0.8371 0.30248 0.0
C3239 C 0.18493 0.82983 0.26242 0.0
C3240 C 0.17473 0.81366 0.25367 0.0
C3241 C 0.2002 0.84425 0.25727 0.0
C3242 C 0.21115 0.86201 0.26568 0.0
C3243 C 0.22945 0.86912 0.26842 0.0
C3244 C 0.23977 0.88582 0.27637 0.0
C3245 C 0.23193 0.89551 0.28168 0.0
C3246 C 0.21378 0.88861 0.27893 0.0
C3247 C 0.20343 0.872 0.2709 0.0
H3248 H 0.23994 0.9084 0.28788 0.0
H3249 H 0.13713 0.74913 0.20798 0.0
H3250 H 0.21237 0.41574 0.20672 0.0
H3251 H 0.20754 0.40236 0.22952 0.0
H3252 H 0.18591 0.34884 0.20799 0.0
H3253 H 0.1904 0.36214 0.18506 0.0
H3254 H 0.16542 0.34943 0.22889 0.0
H3255 H 0.22644 0.36766 0.22547 0.0
H3256 H 0.25726 0.38912 0.22073 0.0
H3257 H 0.26057 0.42688 0.25413 0.0
H3258 H 0.2298 0.40554 0.25924 0.0
H3259 H 0.16072 0.3086 0.29371 0.0
H3260 H 0.1682 0.31821 0.26974 0.0
H3261 H 0.19588 0.37449 0.28649 0.0
H3262 H 0.18877 0.36497 0.31032 0.0
H3263 H 0.21381 0.37038 0.26703 0.0
H3264 H 0.15221 0.35218 0.26994 0.0
H3265 H 0.12102 0.33117 0.27389 0.0
H3266 H 0.11814 0.29354 0.2405 0.0
H3267 H 0.14942 0.31428 0.23648 0.0
C3268 C 0.20656 0.40111 0.20682 0.0
C3269 C 0.20176 0.39001 0.19405 0.0
C3270 C 0.20394 0.3935 0.21987 0.0
C3271 C 0.1965 0.3746 0.22049 0.0
C3272 C 0.19172 0.36346 0.20778 0.0
C3273 C 0.19442 0.37109 0.19469 0.0
C3274 C 0.19336 0.36656 0.23442 0.0
C3275 C 0.17604 0.35373 0.23716 0.0
C3276 C 0.20714 0.37243 0.24529 0.0
C3277 C 0.22582 0.38504 0.24269 0.0
C3278 C 0.23376 0.38053 0.23183 0.0
C3279 C 0.25123 0.39264 0.22912 0.0
C3280 C 0.26088 0.40932 0.23719 0.0
C3281 C 0.25311 0.41388 0.24803 0.0
C3282 C 0.23569 0.40175 0.25087 0.0
C3283 C 0.16852 0.323 0.29224 0.0
C3284 C 0.17416 0.33601 0.30387 0.0
C3285 C 0.17271 0.3285 0.27854 0.0
C3286 C 0.18234 0.34713 0.27622 0.0
C3287 C 0.18841 0.36007 0.28794 0.0
C3288 C 0.18434 0.35458 0.30159 0.0
C3289 C 0.18576 0.3533 0.26163 0.0
C3290 C 0.20317 0.36586 0.25876 0.0
C3291 C 0.17202 0.34717 0.25063 0.0
C3292 C 0.15321 0.3347 0.25303 0.0
C3293 C 0.14497 0.33938 0.26352 0.0
C3294 C 0.12726 0.32752 0.26576 0.0
C3295 C 0.11761 0.311 0.25748 0.0
C3296 C 0.12564 0.30633 0.24692 0.0
C3297 C 0.14336 0.31813 0.24466 0.0
H3298 H 0.10391 0.30183 0.25923 0.0
H3299 H 0.27438 0.41874 0.23503 0.0
H3300 H 0.80848 0.60001 0.81583 0.0
H3301 H 0.81819 0.61218 0.79295 0.0
H3302 H 0.81221 0.65838 0.80493 0.0
H3303 H 0.80249 0.6463 0.82778 0.0
H3304 H 0.79824 0.64552 0.77893 0.0
H3305 H 0.85339 0.6614 0.80454 0.0
H3306 H 0.87477 0.65598 0.81826 0.0
H3307 H 0.87287 0.62006 0.78387 0.0
H3308 H 0.85121 0.62498 0.77006 0.0
H3309 H 0.87025 0.69599 0.72558 0.0
H3310 H 0.86175 0.68562 0.74919 0.0
H3311 H 0.8114 0.64216 0.73056 0.0
H3312 H 0.82004 0.65255 0.70712 0.0
H3313 H 0.85427 0.65537 0.76048 0.0
H3314 H 0.7794 0.63209 0.75471 0.0
H3315 H 0.75901 0.63952 0.74175 0.0
H3316 H 0.80191 0.69334 0.73708 0.0
H3317 H 0.82244 0.68651 0.75053 0.0
C3318 C 0.80942 0.61287 0.81366 0.0
C3319 C 0.80467 0.62215 0.82367 0.0
C3320 C 0.81498 0.61982 0.80056 0.0
C3321 C 0.81609 0.6363 0.79722 0.0
C3322 C 0.81142 0.64561 0.80721 0.0
C3323 C 0.8058 0.63865 0.82027 0.0
C3324 C 0.82167 0.64366 0.7832 0.0
C3325 C 0.81047 0.64762 0.77488 0.0
C3326 C 0.83772 0.6466 0.77793 0.0
C3327 C 0.85056 0.64344 0.78632 0.0
C3328 C 0.85739 0.6522 0.79996 0.0
C3329 C 0.86958 0.64923 0.80775 0.0
C3330 C 0.87514 0.63764 0.80196 0.0
C3331 C 0.86853 0.62901 0.78836 0.0
C3332 C 0.8563 0.63188 0.78055 0.0
C3333 C 0.85728 0.68437 0.72658 0.0
C3334 C 0.84546 0.6755 0.71454 0.0
C3335 C 0.85246 0.67839 0.74006 0.0
C3336 C 0.83577 0.66331 0.74174 0.0
C3337 C 0.82413 0.65418 0.72965 0.0
C3338 C 0.82894 0.66026 0.71621 0.0
C3339 C 0.8307 0.65694 0.7561 0.0
C3340 C 0.84198 0.65315 0.76447 0.0
C3341 C 0.81477 0.65428 0.76145 0.0
C3342 C 0.80252 0.65868 0.75347 0.0
C3343 C 0.78448 0.64554 0.75098 0.0
C3344 C 0.77289 0.64965 0.74354 0.0
C3345 C 0.77919 0.66682 0.73845 0.0
C3346 C 0.79707 0.68 0.74095 0.0
C3347 C 0.80869 0.67603 0.74851 0.0
H3348 H 0.7702 0.66993 0.73264 0.0
H3349 H 0.88459 0.63539 0.808 0.0
H3350 H 0.4019 0.16116 0.82069 0.0
H3351 H 0.38921 0.15785 0.79648 0.0
H3352 H 0.40261 0.21419 0.80017 0.0
H3353 H 0.4156 0.21773 0.82433 0.0
H3354 H 0.36895 0.19241 0.7897 0.0
H3355 H 0.42566 0.19992 0.77914 0.0
H3356 H 0.45001 0.19311 0.77985 0.0
H3357 H 0.41411 0.13832 0.76264 0.0
H3358 H 0.38952 0.1448 0.76188 0.0
H3359 H 0.3508 0.20321 0.71891 0.0
H3360 H 0.36559 0.20559 0.74207 0.0
H3361 H 0.35324 0.14972 0.73518 0.0
H3362 H 0.33859 0.14743 0.7118 0.0
H3363 H 0.38585 0.16988 0.74727 0.0
H3364 H 0.32945 0.16198 0.75701 0.0
H3365 H 0.30474 0.16823 0.75575 0.0
H3366 H 0.33911 0.22241 0.77491 0.0
H3367 H 0.36409 0.21657 0.7761 0.0
C3368 C 0.40245 0.17297 0.81631 0.0
C3369 C 0.40982 0.18974 0.82454 0.0
C3370 C 0.39515 0.17103 0.80242 0.0
C3371 C 0.39508 0.18581 0.79642 0.0
C3372 C 0.40249 0.20258 0.80456 0.0
C3373 C 0.40983 0.20454 0.81843 0.0
C3374 C 0.38647 0.18359 0.78194 0.0
C3375 C 0.37285 0.18775 0.7804 0.0
C3376 C 0.39105 0.17684 0.76985 0.0
C3377 C 0.40572 0.17279 0.77061 0.0
C3378 C 0.42292 0.18636 0.77566 0.0
C3379 C 0.43677 0.18258 0.77603 0.0
C3380 C 0.43359 0.16526 0.77136 0.0
C3381 C 0.41654 0.15169 0.76632 0.0
C3382 C 0.40265 0.15543 0.76588 0.0
C3383 C 0.35118 0.19141 0.72236 0.0
C3384 C 0.34353 0.17512 0.71359 0.0
C3385 C 0.35963 0.19277 0.73562 0.0
C3386 C 0.3603 0.17774 0.74054 0.0
C3387 C 0.3529 0.16151 0.73166 0.0
C3388 C 0.34455 0.1602 0.7183 0.0
C3389 C 0.36853 0.179 0.75501 0.0
C3390 C 0.38198 0.17456 0.75657 0.0
C3391 C 0.36369 0.18533 0.76718 0.0
C3392 C 0.34868 0.18888 0.76653 0.0
C3393 C 0.33177 0.17527 0.76086 0.0
C3394 C 0.31771 0.17874 0.76018 0.0
C3395 C 0.32037 0.19572 0.76522 0.0
C3396 C 0.33708 0.20927 0.77099 0.0
C3397 C 0.35119 0.20588 0.77169 0.0
H3398 H 0.30946 0.19838 0.76468 0.0
H3399 H 0.44435 0.16239 0.77158 0.0
H3400 H 0.78832 0.16066 0.82066 0.0
H3401 H 0.79783 0.15818 0.79726 0.0
H3402 H 0.83114 0.2166 0.7992 0.0
H3403 H 0.82115 0.21926 0.82247 0.0
H3404 H 0.81373 0.20371 0.77352 0.0
H3405 H 0.84861 0.18847 0.80441 0.0
H3406 H 0.85397 0.17203 0.82303 0.0
H3407 H 0.82189 0.12128 0.79803 0.0
H3408 H 0.81615 0.1374 0.77934 0.0
H3409 H 0.86698 0.20555 0.71799 0.0
H3410 H 0.85678 0.20803 0.74123 0.0
H3411 H 0.81774 0.15082 0.73624 0.0
H3412 H 0.82777 0.14835 0.71281 0.0
H3413 H 0.83822 0.1631 0.76328 0.0
H3414 H 0.80349 0.1772 0.73236 0.0
H3415 H 0.79663 0.19244 0.71367 0.0
H3416 H 0.82632 0.24378 0.73832 0.0
H3417 H 0.83382 0.22895 0.75706 0.0
C3418 C 0.79754 0.17303 0.81609 0.0
C3419 C 0.80395 0.19017 0.82352 0.0
C3420 C 0.80313 0.17157 0.80273 0.0
C3421 C 0.81542 0.18718 0.79649 0.0
C3422 C 0.82173 0.20434 0.8038 0.0
C3423 C 0.81611 0.20582 0.81718 0.0
C3424 C 0.82152 0.18557 0.78232 0.0
C3425 C 0.81941 0.19511 0.77136 0.0
C3426 C 0.82837 0.17385 0.77932 0.0
C3427 C 0.83183 0.16413 0.79053 0.0
C3428 C 0.8426 0.17379 0.80293 0.0
C3429 C 0.84572 0.16453 0.81349 0.0
C3430 C 0.83824 0.14562 0.81173 0.0
C3431 C 0.82766 0.13593 0.79939 0.0
C3432 C 0.82448 0.14512 0.7888 0.0
C3433 C 0.85627 0.19349 0.72188 0.0
C3434 C 0.84813 0.17675 0.71365 0.0
C3435 C 0.8504 0.19495 0.73511 0.0
C3436 C 0.8365 0.17962 0.74045 0.0
C3437 C 0.82851 0.1628 0.73232 0.0
C3438 C 0.83417 0.16142 0.71894 0.0
C3439 C 0.83043 0.18124 0.75456 0.0
C3440 C 0.83262 0.17176 0.76548 0.0
C3441 C 0.8235 0.19287 0.75747 0.0
C3442 C 0.81947 0.20199 0.74605 0.0
C3443 C 0.80885 0.19179 0.73371 0.0
C3444 C 0.80475 0.20033 0.72314 0.0
C3445 C 0.81104 0.21904 0.72481 0.0
C3446 C 0.82146 0.22927 0.73706 0.0
C3447 C 0.82567 0.22081 0.74766 0.0
H3448 H 0.80787 0.22561 0.71658 0.0
H3449 H 0.84068 0.13848 0.81992 0.0
H3450 H 0.28712 0.13583 0.52094 0.0
H3451 H 0.29818 0.1383 0.54558 0.0
H3452 H 0.29566 0.18731 0.55386 0.0
H3453 H 0.28422 0.18476 0.52931 0.0
H3454 H 0.3269 0.1909 0.56506 0.0
H3455 H 0.26504 0.14795 0.56468 0.0
H3456 H 0.23655 0.12019 0.55757 0.0
H3457 H 0.25866 0.08703 0.56946 0.0
H3458 H 0.2874 0.1146 0.57641 0.0
H3459 H 0.34337 0.19444 0.64015 0.0
H3460 H 0.3306 0.19392 0.61642 0.0
H3461 H 0.32424 0.14084 0.60584 0.0
H3462 H 0.33581 0.14086 0.62982 0.0
H3463 H 0.29636 0.14077 0.59619 0.0
H3464 H 0.35861 0.18242 0.59413 0.0
H3465 H 0.38741 0.20964 0.60171 0.0
H3466 H 0.36527 0.24402 0.59431 0.0
H3467 H 0.33626 0.21698 0.58685 0.0
C3468 C 0.2887 0.14703 0.52801 0.0
C3469 C 0.28469 0.16006 0.52306 0.0
C3470 C 0.29511 0.14847 0.54211 0.0
C3471 C 0.29765 0.16293 0.55161 0.0
C3472 C 0.29387 0.17607 0.54671 0.0
C3473 C 0.28739 0.17461 0.53263 0.0
C3474 C 0.30429 0.16435 0.56665 0.0
C3475 C 0.3201 0.18001 0.57193 0.0
C3476 C 0.29562 0.15001 0.57555 0.0
C3477 C 0.27847 0.13339 0.57093 0.0
C3478 C 0.26392 0.13475 0.56559 0.0
C3479 C 0.2477 0.11904 0.56163 0.0
C3480 C 0.24581 0.10186 0.56302 0.0
C3481 C 0.26015 0.10035 0.56835 0.0
C3482 C 0.27642 0.11602 0.57229 0.0
C3483 C 0.33887 0.18252 0.63284 0.0
C3484 C 0.34023 0.16755 0.63692 0.0
C3485 C 0.33188 0.18236 0.61917 0.0
C3486 C 0.32658 0.16741 0.60919 0.0
C3487 C 0.32815 0.15253 0.61329 0.0
C3488 C 0.33489 0.1526 0.62698 0.0
C3489 C 0.31922 0.16699 0.59453 0.0
C3490 C 0.30319 0.15159 0.58932 0.0
C3491 C 0.32781 0.18142 0.58565 0.0
C3492 C 0.34523 0.19768 0.59008 0.0
C3493 C 0.35986 0.19578 0.59422 0.0
C3494 C 0.37622 0.21118 0.59847 0.0
C3495 C 0.37815 0.22855 0.59853 0.0
C3496 C 0.36374 0.23056 0.59429 0.0
C3497 C 0.34734 0.21521 0.59003 0.0
H3498 H 0.39083 0.24045 0.60183 0.0
H3499 H 0.23322 0.08971 0.56 0.0
H3500 H 0.84987 0.13374 0.52182 0.0
H3501 H 0.83975 0.13523 0.54523 0.0
H3502 H 0.8923 0.178 0.56005 0.0
H3503 H 0.9027 0.17604 0.5369 0.0
H3504 H 0.87907 0.15486 0.5796 0.0
H3505 H 0.85805 0.18654 0.55096 0.0
H3506 H 0.84203 0.19032 0.53049 0.0
H3507 H 0.79326 0.14543 0.54163 0.0
H3508 H 0.80904 0.14123 0.56207 0.0
H3509 H 0.85844 0.19211 0.64035 0.0
H3510 H 0.86723 0.18831 0.61673 0.0
H3511 H 0.81688 0.13922 0.6072 0.0
H3512 H 0.80844 0.14252 0.63101 0.0
H3513 H 0.82789 0.1642 0.58511 0.0
H3514 H 0.84943 0.13345 0.61443 0.0
H3515 H 0.86599 0.13088 0.63515 0.0
H3516 H 0.91411 0.17516 0.62264 0.0
H3517 H 0.89795 0.17831 0.60209 0.0
C3518 C 0.85935 0.14333 0.53009 0.0
C3519 C 0.87712 0.15484 0.52737 0.0
C3520 C 0.85347 0.14431 0.54346 0.0
C3521 C 0.86518 0.15692 0.55441 0.0
C3522 C 0.88297 0.16821 0.55179 0.0
C3523 C 0.88886 0.1672 0.53846 0.0
C3524 C 0.85899 0.15839 0.5686 0.0
C3525 C 0.86799 0.1571 0.58077 0.0
C3526 C 0.84428 0.16092 0.57022 0.0
C3527 C 0.83476 0.16345 0.55795 0.0
C3528 C 0.84393 0.17739 0.54898 0.0
C3529 C 0.8349 0.17962 0.53739 0.0
C3530 C 0.81665 0.16809 0.53474 0.0
C3531 C 0.8074 0.15433 0.54369 0.0
C3532 C 0.81638 0.15202 0.55528 0.0
C3533 C 0.84943 0.18035 0.63331 0.0
C3534 C 0.83297 0.16741 0.63765 0.0
C3535 C 0.85436 0.17828 0.61977 0.0
C3536 C 0.84274 0.1634 0.61023 0.0
C3537 C 0.82605 0.15079 0.61438 0.0
C3538 C 0.82125 0.15271 0.62798 0.0
C3539 C 0.84812 0.16088 0.596 0.0
C3540 C 0.83893 0.16192 0.58387 0.0
C3541 C 0.86269 0.15819 0.5944 0.0
C3542 C 0.87244 0.15624 0.60678 0.0
C3543 C 0.86354 0.14277 0.61619 0.0
C3544 C 0.87287 0.14119 0.62791 0.0
C3545 C 0.89111 0.15288 0.63026 0.0
C3546 C 0.90004 0.16612 0.62086 0.0
C3547 C 0.8908 0.16783 0.60918 0.0
H3548 H 0.89833 0.15165 0.63933 0.0
H3549 H 0.80967 0.16985 0.52576 0.0
H3550 H 0.84726 0.73279 0.53519 0.0
H3551 H 0.84202 0.71922 0.55781 0.0
H3552 H 0.89409 0.72524 0.56011 0.0
H3553 H 0.89947 0.73897 0.53733 0.0
H3554 H 0.87145 0.69302 0.56768 0.0
H3555 H 0.88465 0.75249 0.58214 0.0
H3556 H 0.88456 0.78151 0.58394 0.0
H3557 H 0.82971 0.7531 0.5922 0.0
H3558 H 0.82937 0.72386 0.59019 0.0
H3559 H 0.86034 0.66941 0.64077 0.0
H3560 H 0.87099 0.68367 0.61855 0.0
H3561 H 0.8204 0.67945 0.60824 0.0
H3562 H 0.81018 0.6662 0.63053 0.0
H3563 H 0.84544 0.71216 0.60551 0.0
H3564 H 0.83477 0.65236 0.59061 0.0
H3565 H 0.83821 0.62533 0.59205 0.0
H3566 H 0.89402 0.65835 0.58825 0.0
H3567 H 0.89094 0.68563 0.58697 0.0
C3568 C 0.85774 0.73151 0.54057 0.0
C3569 C 0.87387 0.73716 0.53446 0.0
C3570 C 0.85472 0.72372 0.55355 0.0
C3571 C 0.86776 0.72146 0.56085 0.0
C3572 C 0.88383 0.72688 0.55473 0.0
C3573 C 0.88687 0.73468 0.54168 0.0
C3574 C 0.86418 0.71282 0.57458 0.0
C3575 C 0.86625 0.69756 0.57614 0.0
C3576 C 0.85721 0.71854 0.58563 0.0
C3577 C 0.85693 0.73592 0.5858 0.0
C3578 C 0.87248 0.75237 0.58407 0.0
C3579 C 0.87252 0.76888 0.5852 0.0
C3580 C 0.85712 0.76914 0.58812 0.0
C3581 C 0.84161 0.75287 0.58986 0.0
C3582 C 0.84148 0.73632 0.58871 0.0
C3583 C 0.85158 0.6716 0.63373 0.0
C3584 C 0.8346 0.66711 0.63751 0.0
C3585 C 0.85757 0.67953 0.62096 0.0
C3586 C 0.84649 0.68264 0.61167 0.0
C3587 C 0.82925 0.67731 0.61523 0.0
C3588 C 0.8234 0.66967 0.62798 0.0
C3589 C 0.85298 0.69266 0.59877 0.0
C3590 C 0.85125 0.70807 0.59729 0.0
C3591 C 0.86081 0.68745 0.58813 0.0
C3592 C 0.86265 0.67106 0.58885 0.0
C3593 C 0.8478 0.65388 0.5902 0.0
C3594 C 0.84968 0.63851 0.59096 0.0
C3595 C 0.86633 0.64013 0.59028 0.0
C3596 C 0.88113 0.65712 0.5888 0.0
C3597 C 0.87932 0.67253 0.58804 0.0
H3598 H 0.86776 0.62822 0.59087 0.0
H3599 H 0.85722 0.78195 0.58909 0.0
loop_
_geom_bond_atom_site_label_1
_geom_bond_atom_site_label_2
_geom_bond_distance
_geom_bond_site_symmetry_2
_ccdc_geom_bond_type
C0 C1 1.264 . S
C0 C5 1.479 . S
C0 C10 1.465 . S
C1 C0 1.264 . S
C1 C3 1.339 . S
C1 H28 0.931 . S
C2 C3 1.395 . S
C2 C4 1.320 . S
C3 C1 1.339 . S
C3 C2 1.395 . S
C3 H29 0.929 . S
C4 C2 1.320 . S
C4 C5 1.405 . S
C4 H30 0.930 . S
C5 C0 1.479 . S
C5 C4 1.405 . S
C5 H31 0.931 . S
U6 O7 2.454 . S
U6 O8 2.458 . S
U6 C9 2.984 . S
U6 C10 2.847 . S
U6 C23 2.882 . S
U6 O24 2.441 . S
U6 O25 2.420 . S
U6 O26 2.455 . S
U6 O27 2.449 . S
O7 U6 2.454 . S
O7 C9 1.353 . S
O8 U6 2.458 . S
O8 C9 1.286 . S
C9 U6 2.984 . S
C9 O7 1.353 . S
C9 O8 1.286 . S
C9 C11 1.363 . S
C10 C0 1.465 . S
C10 U6 2.847 . S
C10 O24 1.249 . S
C10 O25 1.202 . S
C11 C9 1.363 . S
C11 C13 1.408 . S
C11 C16 1.342 . S
C12 C13 1.310 . S
C12 C15 1.461 . S
C12 H32 0.932 . S
C13 C11 1.408 . S
C13 C12 1.310 . S
C13 H33 0.930 . S
C14 C15 1.474 . S
C14 C16 1.285 . S
C14 H34 0.929 . S
C15 C12 1.461 . S
C15 C14 1.474 . S
C16 C11 1.342 . S
C16 C14 1.285 . S
C16 H35 0.930 . S
C17 C20 1.424 . S
C17 C22 1.245 . S
C17 C23 1.428 . S
C18 C21 1.260 . S
C18 C22 1.477 . S
C18 H36 0.932 . S
C19 C20 1.384 . S
C19 C21 1.479 . S
C19 H37 0.929 . S
C20 C17 1.424 . S
C20 C19 1.384 . S
C20 H38 0.928 . S
C21 C18 1.260 . S
C21 C19 1.479 . S
C22 C17 1.245 . S
C22 C18 1.477 . S
C22 H39 0.932 . S
C23 U6 2.882 . S
C23 C17 1.428 . S
C23 O26 1.301 . S
C23 O27 1.282 . S
O24 U6 2.441 . S
O24 C10 1.249 . S
O25 U6 2.420 . S
O25 C10 1.202 . S
O26 U6 2.455 . S
O26 C23 1.301 . S
O27 U6 2.449 . S
O27 C23 1.282 . S
H28 C1 0.931 . S
H29 C3 0.929 . S
H30 C4 0.930 . S
H31 C5 0.931 . S
H32 C12 0.932 . S
H33 C13 0.930 . S
H34 C14 0.929 . S
H35 C16 0.930 . S
H36 C18 0.932 . S
H37 C19 0.929 . S
H38 C20 0.928 . S
H39 C22 0.932 . S
C40 C41 1.264 . S
C40 C45 1.479 . S
C40 C50 1.465 . S
C41 C40 1.264 . S
C41 C43 1.339 . S
C41 H68 0.931 . S
C42 C43 1.395 . S
C42 C44 1.320 . S
C43 C41 1.339 . S
C43 C42 1.395 . S
C43 H69 0.929 . S
C44 C42 1.320 . S
C44 C45 1.405 . S
C44 H70 0.930 . S
C45 C40 1.479 . S
C45 C44 1.405 . S
C45 H71 0.931 . S
U46 O47 2.454 . S
U46 O48 2.458 . S
U46 C49 2.984 . S
U46 C50 2.847 . S
U46 C63 2.882 . S
U46 O64 2.441 . S
U46 O65 2.420 . S
U46 O66 2.455 . S
U46 O67 2.449 . S
O47 U46 2.454 . S
O47 C49 1.353 . S
O48 U46 2.458 . S
O48 C49 1.286 . S
C49 U46 2.984 . S
C49 O47 1.353 . S
C49 O48 1.286 . S
C49 C51 1.363 . S
C50 C40 1.465 . S
C50 U46 2.847 . S
C50 O64 1.249 . S
C50 O65 1.202 . S
C51 C49 1.363 . S
C51 C53 1.408 . S
C51 C56 1.342 . S
C52 C53 1.310 . S
C52 C55 1.461 . S
C52 H72 0.932 . S
C53 C51 1.408 . S
C53 C52 1.310 . S
C53 H73 0.930 . S
C54 C55 1.474 . S
C54 C56 1.285 . S
C54 H74 0.929 . S
C55 C52 1.461 . S
C55 C54 1.474 . S
C56 C51 1.342 . S
C56 C54 1.285 . S
C56 H75 0.930 . S
C57 C60 1.424 . S
C57 C62 1.245 . S
C57 C63 1.428 . S
C58 C61 1.260 . S
C58 C62 1.477 . S
C58 H76 0.932 . S
C59 C60 1.384 . S
C59 C61 1.479 . S
C59 H77 0.929 . S
C60 C57 1.424 . S
C60 C59 1.384 . S
C60 H78 0.928 . S
C61 C58 1.260 . S
C61 C59 1.479 . S
C62 C57 1.245 . S
C62 C58 1.477 . S
C62 H79 0.932 . S
C63 U46 2.882 . S
C63 C57 1.428 . S
C63 O66 1.301 . S
C63 O67 1.282 . S
O64 U46 2.441 . S
O64 C50 1.249 . S
O65 U46 2.420 . S
O65 C50 1.202 . S
O66 U46 2.455 . S
O66 C63 1.301 . S
O67 U46 2.449 . S
O67 C63 1.282 . S
H68 C41 0.931 . S
H69 C43 0.929 . S
H70 C44 0.930 . S
H71 C45 0.931 . S
H72 C52 0.932 . S
H73 C53 0.930 . S
H74 C54 0.929 . S
H75 C56 0.930 . S
H76 C58 0.932 . S
H77 C59 0.929 . S
H78 C60 0.928 . S
H79 C62 0.932 . S
C80 C81 1.264 . S
C80 C85 1.479 . S
C80 C90 1.465 . S
C81 C80 1.264 . S
C81 C83 1.339 . S
C81 H108 0.931 . S
C82 C83 1.395 . S
C82 C84 1.320 . S
C83 C81 1.339 . S
C83 C82 1.395 . S
C83 H109 0.929 . S
C84 C82 1.320 . S
C84 C85 1.405 . S
C84 H110 0.930 . S
C85 C80 1.479 . S
C85 C84 1.405 . S
C85 H111 0.931 . S
U86 O87 2.454 . S
U86 O88 2.458 . S
U86 C89 2.984 . S
U86 C90 2.847 . S
U86 C103 2.882 . S
U86 O104 2.441 . S
U86 O105 2.420 . S
U86 O106 2.455 . S
U86 O107 2.449 . S
O87 U86 2.454 . S
O87 C89 1.353 . S
O88 U86 2.458 . S
O88 C89 1.286 . S
C89 U86 2.984 . S
C89 O87 1.353 . S
C89 O88 1.286 . S
C89 C91 1.363 . S
C90 C80 1.465 . S
C90 U86 2.847 . S
C90 O104 1.249 . S
C90 O105 1.202 . S
C91 C89 1.363 . S
C91 C93 1.408 . S
C91 C96 1.342 . S
C92 C93 1.310 . S
C92 C95 1.461 . S
C92 H112 0.932 . S
C93 C91 1.408 . S
C93 C92 1.310 . S
C93 H113 0.930 . S
C94 C95 1.474 . S
C94 C96 1.285 . S
C94 H114 0.929 . S
C95 C92 1.461 . S
C95 C94 1.474 . S
C96 C91 1.342 . S
C96 C94 1.285 . S
C96 H115 0.930 . S
C97 C100 1.424 . S
C97 C102 1.245 . S
C97 C103 1.428 . S
C98 C101 1.260 . S
C98 C102 1.477 . S
C98 H116 0.932 . S
C99 C100 1.384 . S
C99 C101 1.479 . S
C99 H117 0.929 . S
C100 C97 1.424 . S
C100 C99 1.384 . S
C100 H118 0.928 . S
C101 C98 1.260 . S
C101 C99 1.479 . S
C102 C97 1.245 . S
C102 C98 1.477 . S
C102 H119 0.932 . S
C103 U86 2.882 . S
C103 C97 1.428 . S
C103 O106 1.301 . S
C103 O107 1.282 . S
O104 U86 2.441 . S
O104 C90 1.249 . S
O105 U86 2.420 . S
O105 C90 1.202 . S
O106 U86 2.455 . S
O106 C103 1.301 . S
O107 U86 2.449 . S
O107 C103 1.282 . S
H108 C81 0.931 . S
H109 C83 0.929 . S
H110 C84 0.930 . S
H111 C85 0.931 . S
H112 C92 0.932 . S
H113 C93 0.930 . S
H114 C94 0.929 . S
H115 C96 0.930 . S
H116 C98 0.932 . S
H117 C99 0.929 . S
H118 C100 0.928 . S
H119 C102 0.932 . S
C120 C121 1.264 . S
C120 C125 1.479 . S
C120 C130 1.465 . S
C121 C120 1.264 . S
C121 C123 1.339 . S
C121 H148 0.931 . S
C122 C123 1.395 . S
C122 C124 1.320 . S
C123 C121 1.339 . S
C123 C122 1.395 . S
C123 H149 0.929 . S
C124 C122 1.320 . S
C124 C125 1.405 . S
C124 H150 0.930 . S
C125 C120 1.479 . S
C125 C124 1.405 . S
C125 H151 0.931 . S
U126 O127 2.454 . S
U126 O128 2.458 . S
U126 C129 2.984 . S
U126 C130 2.847 . S
U126 C143 2.882 . S
U126 O144 2.441 . S
U126 O145 2.420 . S
U126 O146 2.455 . S
U126 O147 2.449 . S
O127 U126 2.454 . S
O127 C129 1.353 . S
O128 U126 2.458 . S
O128 C129 1.286 . S
C129 U126 2.984 . S
C129 O127 1.353 . S
C129 O128 1.286 . S
C129 C131 1.363 . S
C130 C120 1.465 . S
C130 U126 2.847 . S
C130 O144 1.249 . S
C130 O145 1.202 . S
C131 C129 1.363 . S
C131 C133 1.408 . S
C131 C136 1.342 . S
C132 C133 1.310 . S
C132 C135 1.461 . S
C132 H152 0.932 . S
C133 C131 1.408 . S
C133 C132 1.310 . S
C133 H153 0.930 . S
C134 C135 1.474 . S
C134 C136 1.285 . S
C134 H154 0.929 . S
C135 C132 1.461 . S
C135 C134 1.474 . S
C136 C131 1.342 . S
C136 C134 1.285 . S
C136 H155 0.930 . S
C137 C140 1.424 . S
C137 C142 1.245 . S
C137 C143 1.428 . S
C138 C141 1.260 . S
C138 C142 1.477 . S
C138 H156 0.932 . S
C139 C140 1.384 . S
C139 C141 1.479 . S
C139 H157 0.929 . S
C140 C137 1.424 . S
C140 C139 1.384 . S
C140 H158 0.928 . S
C141 C138 1.260 . S
C141 C139 1.479 . S
C142 C137 1.245 . S
C142 C138 1.477 . S
C142 H159 0.932 . S
C143 U126 2.882 . S
C143 C137 1.428 . S
C143 O146 1.301 . S
C143 O147 1.282 . S
O144 U126 2.441 . S
O144 C130 1.249 . S
O145 U126 2.420 . S
O145 C130 1.202 . S
O146 U126 2.455 . S
O146 C143 1.301 . S
O147 U126 2.449 . S
O147 C143 1.282 . S
H148 C121 0.931 . S
H149 C123 0.929 . S
H150 C124 0.930 . S
H151 C125 0.931 . S
H152 C132 0.932 . S
H153 C133 0.930 . S
H154 C134 0.929 . S
H155 C136 0.930 . S
H156 C138 0.932 . S
H157 C139 0.929 . S
H158 C140 0.928 . S
H159 C142 0.932 . S
C160 C161 1.264 . S
C160 C165 1.479 . S
C160 C170 1.465 . S
C161 C160 1.264 . S
C161 C163 1.339 . S
C161 H188 0.931 . S
C162 C163 1.395 . S
C162 C164 1.320 . S
C163 C161 1.339 . S
C163 C162 1.395 . S
C163 H189 0.929 . S
C164 C162 1.320 . S
C164 C165 1.405 . S
C164 H190 0.930 . S
C165 C160 1.479 . S
C165 C164 1.405 . S
C165 H191 0.931 . S
U166 O167 2.454 . S
U166 O168 2.458 . S
U166 C169 2.984 . S
U166 C170 2.847 . S
U166 C183 2.882 . S
U166 O184 2.441 . S
U166 O185 2.420 . S
U166 O186 2.455 . S
U166 O187 2.449 . S
O167 U166 2.454 . S
O167 C169 1.353 . S
O168 U166 2.458 . S
O168 C169 1.286 . S
C169 U166 2.984 . S
C169 O167 1.353 . S
C169 O168 1.286 . S
C169 C171 1.363 . S
C170 C160 1.465 . S
C170 U166 2.847 . S
C170 O184 1.249 . S
C170 O185 1.202 . S
C171 C169 1.363 . S
C171 C173 1.408 . S
C171 C176 1.342 . S
C172 C173 1.310 . S
C172 C175 1.461 . S
C172 H192 0.932 . S
C173 C171 1.408 . S
C173 C172 1.310 . S
C173 H193 0.930 . S
C174 C175 1.474 . S
C174 C176 1.285 . S
C174 H194 0.929 . S
C175 C172 1.461 . S
C175 C174 1.474 . S
C176 C171 1.342 . S
C176 C174 1.285 . S
C176 H195 0.930 . S
C177 C180 1.424 . S
C177 C182 1.245 . S
C177 C183 1.428 . S
C178 C181 1.260 . S
C178 C182 1.477 . S
C178 H196 0.932 . S
C179 C180 1.384 . S
C179 C181 1.479 . S
C179 H197 0.929 . S
C180 C177 1.424 . S
C180 C179 1.384 . S
C180 H198 0.928 . S
C181 C178 1.260 . S
C181 C179 1.479 . S
C182 C177 1.245 . S
C182 C178 1.477 . S
C182 H199 0.932 . S
C183 U166 2.882 . S
C183 C177 1.428 . S
C183 O186 1.301 . S
C183 O187 1.282 . S
O184 U166 2.441 . S
O184 C170 1.249 . S
O185 U166 2.420 . S
O185 C170 1.202 . S
O186 U166 2.455 . S
O186 C183 1.301 . S
O187 U166 2.449 . S
O187 C183 1.282 . S
H188 C161 0.931 . S
H189 C163 0.929 . S
H190 C164 0.930 . S
H191 C165 0.931 . S
H192 C172 0.932 . S
H193 C173 0.930 . S
H194 C174 0.929 . S
H195 C176 0.930 . S
H196 C178 0.932 . S
H197 C179 0.929 . S
H198 C180 0.928 . S
H199 C182 0.932 . S
C200 C201 1.264 . S
C200 C205 1.479 . S
C200 C210 1.465 . S
C201 C200 1.264 . S
C201 C203 1.339 . S
C201 H228 0.931 . S
C202 C203 1.395 . S
C202 C204 1.320 . S
C203 C201 1.339 . S
C203 C202 1.395 . S
C203 H229 0.929 . S
C204 C202 1.320 . S
C204 C205 1.405 . S
C204 H230 0.930 . S
C205 C200 1.479 . S
C205 C204 1.405 . S
C205 H231 0.931 . S
U206 O207 2.454 . S
U206 O208 2.458 . S
U206 C209 2.984 . S
U206 C210 2.847 . S
U206 C223 2.882 . S
U206 O224 2.441 . S
U206 O225 2.420 . S
U206 O226 2.455 . S
U206 O227 2.449 . S
O207 U206 2.454 . S
O207 C209 1.353 . S
O208 U206 2.458 . S
O208 C209 1.286 . S
C209 U206 2.984 . S
C209 O207 1.353 . S
C209 O208 1.286 . S
C209 C211 1.363 . S
C210 C200 1.465 . S
C210 U206 2.847 . S
C210 O224 1.249 . S
C210 O225 1.202 . S
C211 C209 1.363 . S
C211 C213 1.408 . S
C211 C216 1.342 . S
C212 C213 1.310 . S
C212 C215 1.461 . S
C212 H232 0.932 . S
C213 C211 1.408 . S
C213 C212 1.310 . S
C213 H233 0.930 . S
C214 C215 1.474 . S
C214 C216 1.285 . S
C214 H234 0.929 . S
C215 C212 1.461 . S
C215 C214 1.474 . S
C216 C211 1.342 . S
C216 C214 1.285 . S
C216 H235 0.930 . S
C217 C220 1.424 . S
C217 C222 1.245 . S
C217 C223 1.428 . S
C218 C221 1.260 . S
C218 C222 1.477 . S
C218 H236 0.932 . S
C219 C220 1.384 . S
C219 C221 1.479 . S
C219 H237 0.929 . S
C220 C217 1.424 . S
C220 C219 1.384 . S
C220 H238 0.928 . S
C221 C218 1.260 . S
C221 C219 1.479 . S
C222 C217 1.245 . S
C222 C218 1.477 . S
C222 H239 0.932 . S
C223 U206 2.882 . S
C223 C217 1.428 . S
C223 O226 1.301 . S
C223 O227 1.282 . S
O224 U206 2.441 . S
O224 C210 1.249 . S
O225 U206 2.420 . S
O225 C210 1.202 . S
O226 U206 2.455 . S
O226 C223 1.301 . S
O227 U206 2.449 . S
O227 C223 1.282 . S
H228 C201 0.931 . S
H229 C203 0.929 . S
H230 C204 0.930 . S
H231 C205 0.931 . S
H232 C212 0.932 . S
H233 C213 0.930 . S
H234 C214 0.929 . S
H235 C216 0.930 . S
H236 C218 0.932 . S
H237 C219 0.929 . S
H238 C220 0.928 . S
H239 C222 0.932 . S
C240 C241 1.264 . S
C240 C245 1.479 . S
C240 C250 1.465 . S
C241 C240 1.264 . S
C241 C243 1.339 . S
C241 H268 0.931 . S
C242 C243 1.395 . S
C242 C244 1.320 . S
C243 C241 1.339 . S
C243 C242 1.395 . S
C243 H269 0.929 . S
C244 C242 1.320 . S
C244 C245 1.405 . S
C244 H270 0.930 . S
C245 C240 1.479 . S
C245 C244 1.405 . S
C245 H271 0.931 . S
U246 O247 2.454 . S
U246 O248 2.458 . S
U246 C249 2.984 . S
U246 C250 2.847 . S
U246 C263 2.882 . S
U246 O264 2.441 . S
U246 O265 2.420 . S
U246 O266 2.455 . S
U246 O267 2.449 . S
O247 U246 2.454 . S
O247 C249 1.353 . S
O248 U246 2.458 . S
O248 C249 1.286 . S
C249 U246 2.984 . S
C249 O247 1.353 . S
C249 O248 1.286 . S
C249 C251 1.363 . S
C250 C240 1.465 . S
C250 U246 2.847 . S
C250 O264 1.249 . S
C250 O265 1.202 . S
C251 C249 1.363 . S
C251 C253 1.408 . S
C251 C256 1.342 . S
C252 C253 1.310 . S
C252 C255 1.461 . S
C252 H272 0.932 . S
C253 C251 1.408 . S
C253 C252 1.310 . S
C253 H273 0.930 . S
C254 C255 1.474 . S
C254 C256 1.285 . S
C254 H274 0.929 . S
C255 C252 1.461 . S
C255 C254 1.474 . S
C256 C251 1.342 . S
C256 C254 1.285 . S
C256 H275 0.930 . S
C257 C260 1.424 . S
C257 C262 1.245 . S
C257 C263 1.428 . S
C258 C261 1.260 . S
C258 C262 1.477 . S
C258 H276 0.932 . S
C259 C260 1.384 . S
C259 C261 1.479 . S
C259 H277 0.929 . S
C260 C257 1.424 . S
C260 C259 1.384 . S
C260 H278 0.928 . S
C261 C258 1.260 . S
C261 C259 1.479 . S
C262 C257 1.245 . S
C262 C258 1.477 . S
C262 H279 0.932 . S
C263 U246 2.882 . S
C263 C257 1.428 . S
C263 O266 1.301 . S
C263 O267 1.282 . S
O264 U246 2.441 . S
O264 C250 1.249 . S
O265 U246 2.420 . S
O265 C250 1.202 . S
O266 U246 2.455 . S
O266 C263 1.301 . S
O267 U246 2.449 . S
O267 C263 1.282 . S
H268 C241 0.931 . S
H269 C243 0.929 . S
H270 C244 0.930 . S
H271 C245 0.931 . S
H272 C252 0.932 . S
H273 C253 0.930 . S
H274 C254 0.929 . S
H275 C256 0.930 . S
H276 C258 0.932 . S
H277 C259 0.929 . S
H278 C260 0.928 . S
H279 C262 0.932 . S
C280 C281 1.264 . S
C280 C285 1.479 . S
C280 C290 1.465 . S
C281 C280 1.264 . S
C281 C283 1.339 . S
C281 H308 0.931 . S
C282 C283 1.395 . S
C282 C284 1.320 . S
C283 C281 1.339 . S
C283 C282 1.395 . S
C283 H309 0.929 . S
C284 C282 1.320 . S
C284 C285 1.405 . S
C284 H310 0.930 . S
C285 C280 1.479 . S
C285 C284 1.405 . S
C285 H311 0.931 . S
U286 O287 2.454 . S
U286 O288 2.458 . S
U286 C289 2.984 . S
U286 C290 2.847 . S
U286 C303 2.882 . S
U286 O304 2.441 . S
U286 O305 2.420 . S
U286 O306 2.455 . S
U286 O307 2.449 . S
O287 U286 2.454 . S
O287 C289 1.353 . S
O288 U286 2.458 . S
O288 C289 1.286 . S
C289 U286 2.984 . S
C289 O287 1.353 . S
C289 O288 1.286 . S
C289 C291 1.363 . S
C290 C280 1.465 . S
C290 U286 2.847 . S
C290 O304 1.249 . S
C290 O305 1.202 . S
C291 C289 1.363 . S
C291 C293 1.408 . S
C291 C296 1.342 . S
C292 C293 1.310 . S
C292 C295 1.461 . S
C292 H312 0.932 . S
C293 C291 1.408 . S
C293 C292 1.310 . S
C293 H313 0.930 . S
C294 C295 1.474 . S
C294 C296 1.285 . S
C294 H314 0.929 . S
C295 C292 1.461 . S
C295 C294 1.474 . S
C296 C291 1.342 . S
C296 C294 1.285 . S
C296 H315 0.930 . S
C297 C300 1.424 . S
C297 C302 1.245 . S
C297 C303 1.428 . S
C298 C301 1.260 . S
C298 C302 1.477 . S
C298 H316 0.932 . S
C299 C300 1.384 . S
C299 C301 1.479 . S
C299 H317 0.929 . S
C300 C297 1.424 . S
C300 C299 1.384 . S
C300 H318 0.928 . S
C301 C298 1.260 . S
C301 C299 1.479 . S
C302 C297 1.245 . S
C302 C298 1.477 . S
C302 H319 0.932 . S
C303 U286 2.882 . S
C303 C297 1.428 . S
C303 O306 1.301 . S
C303 O307 1.282 . S
O304 U286 2.441 . S
O304 C290 1.249 . S
O305 U286 2.420 . S
O305 C290 1.202 . S
O306 U286 2.455 . S
O306 C303 1.301 . S
O307 U286 2.449 . S
O307 C303 1.282 . S
H308 C281 0.931 . S
H309 C283 0.929 . S
H310 C284 0.930 . S
H311 C285 0.931 . S
H312 C292 0.932 . S
H313 C293 0.930 . S
H314 C294 0.929 . S
H315 C296 0.930 . S
H316 C298 0.932 . S
H317 C299 0.929 . S
H318 C300 0.928 . S
H319 C302 0.932 . S
C320 C321 1.264 . S
C320 C325 1.479 . S
C320 C330 1.465 . S
C321 C320 1.264 . S
C321 C323 1.339 . S
C321 H348 0.931 . S
C322 C323 1.395 . S
C322 C324 1.320 . S
C323 C321 1.339 . S
C323 C322 1.395 . S
C323 H349 0.929 . S
C324 C322 1.320 . S
C324 C325 1.405 . S
C324 H350 0.930 . S
C325 C320 1.479 . S
C325 C324 1.405 . S
C325 H351 0.931 . S
U326 O327 2.454 . S
U326 O328 2.458 . S
U326 C329 2.984 . S
U326 C330 2.847 . S
U326 C343 2.882 . S
U326 O344 2.441 . S
U326 O345 2.420 . S
U326 O346 2.455 . S
U326 O347 2.449 . S
O327 U326 2.454 . S
O327 C329 1.353 . S
O328 U326 2.458 . S
O328 C329 1.286 . S
C329 U326 2.984 . S
C329 O327 1.353 . S
C329 O328 1.286 . S
C329 C331 1.363 . S
C330 C320 1.465 . S
C330 U326 2.847 . S
C330 O344 1.249 . S
C330 O345 1.202 . S
C331 C329 1.363 . S
C331 C333 1.408 . S
C331 C336 1.342 . S
C332 C333 1.310 . S
C332 C335 1.461 . S
C332 H352 0.932 . S
C333 C331 1.408 . S
C333 C332 1.310 . S
C333 H353 0.930 . S
C334 C335 1.474 . S
C334 C336 1.285 . S
C334 H354 0.929 . S
C335 C332 1.461 . S
C335 C334 1.474 . S
C336 C331 1.342 . S
C336 C334 1.285 . S
C336 H355 0.930 . S
C337 C340 1.424 . S
C337 C342 1.245 . S
C337 C343 1.428 . S
C338 C341 1.260 . S
C338 C342 1.477 . S
C338 H356 0.932 . S
C339 C340 1.384 . S
C339 C341 1.479 . S
C339 H357 0.929 . S
C340 C337 1.424 . S
C340 C339 1.384 . S
C340 H358 0.928 . S
C341 C338 1.260 . S
C341 C339 1.479 . S
C342 C337 1.245 . S
C342 C338 1.477 . S
C342 H359 0.932 . S
C343 U326 2.882 . S
C343 C337 1.428 . S
C343 O346 1.301 . S
C343 O347 1.282 . S
O344 U326 2.441 . S
O344 C330 1.249 . S
O345 U326 2.420 . S
O345 C330 1.202 . S
O346 U326 2.455 . S
O346 C343 1.301 . S
O347 U326 2.449 . S
O347 C343 1.282 . S
H348 C321 0.931 . S
H349 C323 0.929 . S
H350 C324 0.930 . S
H351 C325 0.931 . S
H352 C332 0.932 . S
H353 C333 0.930 . S
H354 C334 0.929 . S
H355 C336 0.930 . S
H356 C338 0.932 . S
H357 C339 0.929 . S
H358 C340 0.928 . S
H359 C342 0.932 . S
C360 C361 1.264 . S
C360 C365 1.479 . S
C360 C370 1.465 . S
C361 C360 1.264 . S
C361 C363 1.339 . S
C361 H388 0.931 . S
C362 C363 1.395 . S
C362 C364 1.320 . S
C363 C361 1.339 . S
C363 C362 1.395 . S
C363 H389 0.929 . S
C364 C362 1.320 . S
C364 C365 1.405 . S
C364 H390 0.930 . S
C365 C360 1.479 . S
C365 C364 1.405 . S
C365 H391 0.931 . S
U366 O367 2.454 . S
U366 O368 2.458 . S
U366 C369 2.984 . S
U366 C370 2.847 . S
U366 C383 2.882 . S
U366 O384 2.441 . S
U366 O385 2.420 . S
U366 O386 2.455 . S
U366 O387 2.449 . S
O367 U366 2.454 . S
O367 C369 1.353 . S
O368 U366 2.458 . S
O368 C369 1.286 . S
C369 U366 2.984 . S
C369 O367 1.353 . S
C369 O368 1.286 . S
C369 C371 1.363 . S
C370 C360 1.465 . S
C370 U366 2.847 . S
C370 O384 1.249 . S
C370 O385 1.202 . S
C371 C369 1.363 . S
C371 C373 1.408 . S
C371 C376 1.342 . S
C372 C373 1.310 . S
C372 C375 1.461 . S
C372 H392 0.932 . S
C373 C371 1.408 . S
C373 C372 1.310 . S
C373 H393 0.930 . S
C374 C375 1.474 . S
C374 C376 1.285 . S
C374 H394 0.929 . S
C375 C372 1.461 . S
C375 C374 1.474 . S
C376 C371 1.342 . S
C376 C374 1.285 . S
C376 H395 0.930 . S
C377 C380 1.424 . S
C377 C382 1.245 . S
C377 C383 1.428 . S
C378 C381 1.260 . S
C378 C382 1.477 . S
C378 H396 0.932 . S
C379 C380 1.384 . S
C379 C381 1.479 . S
C379 H397 0.929 . S
C380 C377 1.424 . S
C380 C379 1.384 . S
C380 H398 0.928 . S
C381 C378 1.260 . S
C381 C379 1.479 . S
C382 C377 1.245 . S
C382 C378 1.477 . S
C382 H399 0.932 . S
C383 U366 2.882 . S
C383 C377 1.428 . S
C383 O386 1.301 . S
C383 O387 1.282 . S
O384 U366 2.441 . S
O384 C370 1.249 . S
O385 U366 2.420 . S
O385 C370 1.202 . S
O386 U366 2.455 . S
O386 C383 1.301 . S
O387 U366 2.449 . S
O387 C383 1.282 . S
H388 C361 0.931 . S
H389 C363 0.929 . S
H390 C364 0.930 . S
H391 C365 0.931 . S
H392 C372 0.932 . S
H393 C373 0.930 . S
H394 C374 0.929 . S
H395 C376 0.930 . S
H396 C378 0.932 . S
H397 C379 0.929 . S
H398 C380 0.928 . S
H399 C382 0.932 . S
C400 C401 1.264 . S
C400 C405 1.479 . S
C400 C410 1.465 . S
C401 C400 1.264 . S
C401 C403 1.339 . S
C401 H428 0.931 . S
C402 C403 1.395 . S
C402 C404 1.320 . S
C403 C401 1.339 . S
C403 C402 1.395 . S
C403 H429 0.929 . S
C404 C402 1.320 . S
C404 C405 1.405 . S
C404 H430 0.930 . S
C405 C400 1.479 . S
C405 C404 1.405 . S
C405 H431 0.931 . S
U406 O407 2.454 . S
U406 O408 2.458 . S
U406 C409 2.984 . S
U406 C410 2.847 . S
U406 C423 2.882 . S
U406 O424 2.441 . S
U406 O425 2.420 . S
U406 O426 2.455 . S
U406 O427 2.449 . S
O407 U406 2.454 . S
O407 C409 1.353 . S
O408 U406 2.458 . S
O408 C409 1.286 . S
C409 U406 2.984 . S
C409 O407 1.353 . S
C409 O408 1.286 . S
C409 C411 1.363 . S
C410 C400 1.465 . S
C410 U406 2.847 . S
C410 O424 1.249 . S
C410 O425 1.202 . S
C411 C409 1.363 . S
C411 C413 1.408 . S
C411 C416 1.342 . S
C412 C413 1.310 . S
C412 C415 1.461 . S
C412 H432 0.932 . S
C413 C411 1.408 . S
C413 C412 1.310 . S
C413 H433 0.930 . S
C414 C415 1.474 . S
C414 C416 1.285 . S
C414 H434 0.929 . S
C415 C412 1.461 . S
C415 C414 1.474 . S
C416 C411 1.342 . S
C416 C414 1.285 . S
C416 H435 0.930 . S
C417 C420 1.424 . S
C417 C422 1.245 . S
C417 C423 1.428 . S
C418 C421 1.260 . S
C418 C422 1.477 . S
C418 H436 0.932 . S
C419 C420 1.384 . S
C419 C421 1.479 . S
C419 H437 0.929 . S
C420 C417 1.424 . S
C420 C419 1.384 . S
C420 H438 0.928 . S
C421 C418 1.260 . S
C421 C419 1.479 . S
C422 C417 1.245 . S
C422 C418 1.477 . S
C422 H439 0.932 . S
C423 U406 2.882 . S
C423 C417 1.428 . S
C423 O426 1.301 . S
C423 O427 1.282 . S
O424 U406 2.441 . S
O424 C410 1.249 . S
O425 U406 2.420 . S
O425 C410 1.202 . S
O426 U406 2.455 . S
O426 C423 1.301 . S
O427 U406 2.449 . S
O427 C423 1.282 . S
H428 C401 0.931 . S
H429 C403 0.929 . S
H430 C404 0.930 . S
H431 C405 0.931 . S
H432 C412 0.932 . S
H433 C413 0.930 . S
H434 C414 0.929 . S
H435 C416 0.930 . S
H436 C418 0.932 . S
H437 C419 0.929 . S
H438 C420 0.928 . S
H439 C422 0.932 . S
C440 C441 1.264 . S
C440 C445 1.479 . S
C440 C450 1.465 . S
C441 C440 1.264 . S
C441 C443 1.339 . S
C441 H468 0.931 . S
C442 C443 1.395 . S
C442 C444 1.320 . S
C443 C441 1.339 . S
C443 C442 1.395 . S
C443 H469 0.929 . S
C444 C442 1.320 . S
C444 C445 1.405 . S
C444 H470 0.930 . S
C445 C440 1.479 . S
C445 C444 1.405 . S
C445 H471 0.931 . S
U446 O447 2.454 . S
U446 O448 2.458 . S
U446 C449 2.984 . S
U446 C450 2.847 . S
U446 C463 2.882 . S
U446 O464 2.441 . S
U446 O465 2.420 . S
U446 O466 2.455 . S
U446 O467 2.449 . S
O447 U446 2.454 . S
O447 C449 1.353 . S
O448 U446 2.458 . S
O448 C449 1.286 . S
C449 U446 2.984 . S
C449 O447 1.353 . S
C449 O448 1.286 . S
C449 C451 1.363 . S
C450 C440 1.465 . S
C450 U446 2.847 . S
C450 O464 1.249 . S
C450 O465 1.202 . S
C451 C449 1.363 . S
C451 C453 1.408 . S
C451 C456 1.342 . S
C452 C453 1.310 . S
C452 C455 1.461 . S
C452 H472 0.932 . S
C453 C451 1.408 . S
C453 C452 1.310 . S
C453 H473 0.930 . S
C454 C455 1.474 . S
C454 C456 1.285 . S
C454 H474 0.929 . S
C455 C452 1.461 . S
C455 C454 1.474 . S
C456 C451 1.342 . S
C456 C454 1.285 . S
C456 H475 0.930 . S
C457 C460 1.424 . S
C457 C462 1.245 . S
C457 C463 1.428 . S
C458 C461 1.260 . S
C458 C462 1.477 . S
C458 H476 0.932 . S
C459 C460 1.384 . S
C459 C461 1.479 . S
C459 H477 0.929 . S
C460 C457 1.424 . S
C460 C459 1.384 . S
C460 H478 0.928 . S
C461 C458 1.260 . S
C461 C459 1.479 . S
C462 C457 1.245 . S
C462 C458 1.477 . S
C462 H479 0.932 . S
C463 U446 2.882 . S
C463 C457 1.428 . S
C463 O466 1.301 . S
C463 O467 1.282 . S
O464 U446 2.441 . S
O464 C450 1.249 . S
O465 U446 2.420 . S
O465 C450 1.202 . S
O466 U446 2.455 . S
O466 C463 1.301 . S
O467 U446 2.449 . S
O467 C463 1.282 . S
H468 C441 0.931 . S
H469 C443 0.929 . S
H470 C444 0.930 . S
H471 C445 0.931 . S
H472 C452 0.932 . S
H473 C453 0.930 . S
H474 C454 0.929 . S
H475 C456 0.930 . S
H476 C458 0.932 . S
H477 C459 0.929 . S
H478 C460 0.928 . S
H479 C462 0.932 . S
C480 C481 1.264 . S
C480 C485 1.479 . S
C480 C490 1.465 . S
C481 C480 1.264 . S
C481 C483 1.339 . S
C481 H508 0.931 . S
C482 C483 1.395 . S
C482 C484 1.320 . S
C483 C481 1.339 . S
C483 C482 1.395 . S
C483 H509 0.929 . S
C484 C482 1.320 . S
C484 C485 1.405 . S
C484 H510 0.930 . S
C485 C480 1.479 . S
C485 C484 1.405 . S
C485 H511 0.931 . S
U486 O487 2.454 . S
U486 O488 2.458 . S
U486 C489 2.984 . S
U486 C490 2.847 . S
U486 C503 2.882 . S
U486 O504 2.441 . S
U486 O505 2.420 . S
U486 O506 2.455 . S
U486 O507 2.449 . S
O487 U486 2.454 . S
O487 C489 1.353 . S
O488 U486 2.458 . S
O488 C489 1.286 . S
C489 U486 2.984 . S
C489 O487 1.353 . S
C489 O488 1.286 . S
C489 C491 1.363 . S
C490 C480 1.465 . S
C490 U486 2.847 . S
C490 O504 1.249 . S
C490 O505 1.202 . S
C491 C489 1.363 . S
C491 C493 1.408 . S
C491 C496 1.342 . S
C492 C493 1.310 . S
C492 C495 1.461 . S
C492 H512 0.932 . S
C493 C491 1.408 . S
C493 C492 1.310 . S
C493 H513 0.930 . S
C494 C495 1.474 . S
C494 C496 1.285 . S
C494 H514 0.929 . S
C495 C492 1.461 . S
C495 C494 1.474 . S
C496 C491 1.342 . S
C496 C494 1.285 . S
C496 H515 0.930 . S
C497 C500 1.424 . S
C497 C502 1.245 . S
C497 C503 1.428 . S
C498 C501 1.260 . S
C498 C502 1.477 . S
C498 H516 0.932 . S
C499 C500 1.384 . S
C499 C501 1.479 . S
C499 H517 0.929 . S
C500 C497 1.424 . S
C500 C499 1.384 . S
C500 H518 0.928 . S
C501 C498 1.260 . S
C501 C499 1.479 . S
C502 C497 1.245 . S
C502 C498 1.477 . S
C502 H519 0.932 . S
C503 U486 2.882 . S
C503 C497 1.428 . S
C503 O506 1.301 . S
C503 O507 1.282 . S
O504 U486 2.441 . S
O504 C490 1.249 . S
O505 U486 2.420 . S
O505 C490 1.202 . S
O506 U486 2.455 . S
O506 C503 1.301 . S
O507 U486 2.449 . S
O507 C503 1.282 . S
H508 C481 0.931 . S
H509 C483 0.929 . S
H510 C484 0.930 . S
H511 C485 0.931 . S
H512 C492 0.932 . S
H513 C493 0.930 . S
H514 C494 0.929 . S
H515 C496 0.930 . S
H516 C498 0.932 . S
H517 C499 0.929 . S
H518 C500 0.928 . S
H519 C502 0.932 . S
C520 C521 1.264 . S
C520 C525 1.479 . S
C520 C530 1.465 . S
C521 C520 1.264 . S
C521 C523 1.339 . S
C521 H548 0.931 . S
C522 C523 1.395 . S
C522 C524 1.320 . S
C523 C521 1.339 . S
C523 C522 1.395 . S
C523 H549 0.929 . S
C524 C522 1.320 . S
C524 C525 1.405 . S
C524 H550 0.930 . S
C525 C520 1.479 . S
C525 C524 1.405 . S
C525 H551 0.931 . S
U526 O527 2.454 . S
U526 O528 2.458 . S
U526 C529 2.984 . S
U526 C530 2.847 . S
U526 C543 2.882 . S
U526 O544 2.441 . S
U526 O545 2.420 . S
U526 O546 2.455 . S
U526 O547 2.449 . S
O527 U526 2.454 . S
O527 C529 1.353 . S
O528 U526 2.458 . S
O528 C529 1.286 . S
C529 U526 2.984 . S
C529 O527 1.353 . S
C529 O528 1.286 . S
C529 C531 1.363 . S
C530 C520 1.465 . S
C530 U526 2.847 . S
C530 O544 1.249 . S
C530 O545 1.202 . S
C531 C529 1.363 . S
C531 C533 1.408 . S
C531 C536 1.342 . S
C532 C533 1.310 . S
C532 C535 1.461 . S
C532 H552 0.932 . S
C533 C531 1.408 . S
C533 C532 1.310 . S
C533 H553 0.930 . S
C534 C535 1.474 . S
C534 C536 1.285 . S
C534 H554 0.929 . S
C535 C532 1.461 . S
C535 C534 1.474 . S
C536 C531 1.342 . S
C536 C534 1.285 . S
C536 H555 0.930 . S
C537 C540 1.424 . S
C537 C542 1.245 . S
C537 C543 1.428 . S
C538 C541 1.260 . S
C538 C542 1.477 . S
C538 H556 0.932 . S
C539 C540 1.384 . S
C539 C541 1.479 . S
C539 H557 0.929 . S
C540 C537 1.424 . S
C540 C539 1.384 . S
C540 H558 0.928 . S
C541 C538 1.260 . S
C541 C539 1.479 . S
C542 C537 1.245 . S
C542 C538 1.477 . S
C542 H559 0.932 . S
C543 U526 2.882 . S
C543 C537 1.428 . S
C543 O546 1.301 . S
C543 O547 1.282 . S
O544 U526 2.441 . S
O544 C530 1.249 . S
O545 U526 2.420 . S
O545 C530 1.202 . S
O546 U526 2.455 . S
O546 C543 1.301 . S
O547 U526 2.449 . S
O547 C543 1.282 . S
H548 C521 0.931 . S
H549 C523 0.929 . S
H550 C524 0.930 . S
H551 C525 0.931 . S
H552 C532 0.932 . S
H553 C533 0.930 . S
H554 C534 0.929 . S
H555 C536 0.930 . S
H556 C538 0.932 . S
H557 C539 0.929 . S
H558 C540 0.928 . S
H559 C542 0.932 . S
C560 C561 1.264 . S
C560 C565 1.479 . S
C560 C570 1.465 . S
C561 C560 1.264 . S
C561 C563 1.339 . S
C561 H588 0.931 . S
C562 C563 1.395 . S
C562 C564 1.320 . S
C563 C561 1.339 . S
C563 C562 1.395 . S
C563 H589 0.929 . S
C564 C562 1.320 . S
C564 C565 1.405 . S
C564 H590 0.930 . S
C565 C560 1.479 . S
C565 C564 1.405 . S
C565 H591 0.931 . S
U566 O567 2.454 . S
U566 O568 2.458 . S
U566 C569 2.984 . S
U566 C570 2.847 . S
U566 C583 2.882 . S
U566 O584 2.441 . S
U566 O585 2.420 . S
U566 O586 2.455 . S
U566 O587 2.449 . S
O567 U566 2.454 . S
O567 C569 1.353 . S
O568 U566 2.458 . S
O568 C569 1.286 . S
C569 U566 2.984 . S
C569 O567 1.353 . S
C569 O568 1.286 . S
C569 C571 1.363 . S
C570 C560 1.465 . S
C570 U566 2.847 . S
C570 O584 1.249 . S
C570 O585 1.202 . S
C571 C569 1.363 . S
C571 C573 1.408 . S
C571 C576 1.342 . S
C572 C573 1.310 . S
C572 C575 1.461 . S
C572 H592 0.932 . S
C573 C571 1.408 . S
C573 C572 1.310 . S
C573 H593 0.930 . S
C574 C575 1.474 . S
C574 C576 1.285 . S
C574 H594 0.929 . S
C575 C572 1.461 . S
C575 C574 1.474 . S
C576 C571 1.342 . S
C576 C574 1.285 . S
C576 H595 0.930 . S
C577 C580 1.424 . S
C577 C582 1.245 . S
C577 C583 1.428 . S
C578 C581 1.260 . S
C578 C582 1.477 . S
C578 H596 0.932 . S
C579 C580 1.384 . S
C579 C581 1.479 . S
C579 H597 0.929 . S
C580 C577 1.424 . S
C580 C579 1.384 . S
C580 H598 0.928 . S
C581 C578 1.260 . S
C581 C579 1.479 . S
C582 C577 1.245 . S
C582 C578 1.477 . S
C582 H599 0.932 . S
C583 U566 2.882 . S
C583 C577 1.428 . S
C583 O586 1.301 . S
C583 O587 1.282 . S
O584 U566 2.441 . S
O584 C570 1.249 . S
O585 U566 2.420 . S
O585 C570 1.202 . S
O586 U566 2.455 . S
O586 C583 1.301 . S
O587 U566 2.449 . S
O587 C583 1.282 . S
H588 C561 0.931 . S
H589 C563 0.929 . S
H590 C564 0.930 . S
H591 C565 0.931 . S
H592 C572 0.932 . S
H593 C573 0.930 . S
H594 C574 0.929 . S
H595 C576 0.930 . S
H596 C578 0.932 . S
H597 C579 0.929 . S
H598 C580 0.928 . S
H599 C582 0.932 . S
C600 C601 1.264 . S
C600 C605 1.479 . S
C600 C610 1.465 . S
C601 C600 1.264 . S
C601 C603 1.339 . S
C601 H628 0.931 . S
C602 C603 1.395 . S
C602 C604 1.320 . S
C603 C601 1.339 . S
C603 C602 1.395 . S
C603 H629 0.929 . S
C604 C602 1.320 . S
C604 C605 1.405 . S
C604 H630 0.930 . S
C605 C600 1.479 . S
C605 C604 1.405 . S
C605 H631 0.931 . S
U606 O607 2.454 . S
U606 O608 2.458 . S
U606 C609 2.984 . S
U606 C610 2.847 . S
U606 C623 2.882 . S
U606 O624 2.441 . S
U606 O625 2.420 . S
U606 O626 2.455 . S
U606 O627 2.449 . S
O607 U606 2.454 . S
O607 C609 1.353 . S
O608 U606 2.458 . S
O608 C609 1.286 . S
C609 U606 2.984 . S
C609 O607 1.353 . S
C609 O608 1.286 . S
C609 C611 1.363 . S
C610 C600 1.465 . S
C610 U606 2.847 . S
C610 O624 1.249 . S
C610 O625 1.202 . S
C611 C609 1.363 . S
C611 C613 1.408 . S
C611 C616 1.342 . S
C612 C613 1.310 . S
C612 C615 1.461 . S
C612 H632 0.932 . S
C613 C611 1.408 . S
C613 C612 1.310 . S
C613 H633 0.930 . S
C614 C615 1.474 . S
C614 C616 1.285 . S
C614 H634 0.929 . S
C615 C612 1.461 . S
C615 C614 1.474 . S
C616 C611 1.342 . S
C616 C614 1.285 . S
C616 H635 0.930 . S
C617 C620 1.424 . S
C617 C622 1.245 . S
C617 C623 1.428 . S
C618 C621 1.260 . S
C618 C622 1.477 . S
C618 H636 0.932 . S
C619 C620 1.384 . S
C619 C621 1.479 . S
C619 H637 0.929 . S
C620 C617 1.424 . S
C620 C619 1.384 . S
C620 H638 0.928 . S
C621 C618 1.260 . S
C621 C619 1.479 . S
C622 C617 1.245 . S
C622 C618 1.477 . S
C622 H639 0.932 . S
C623 U606 2.882 . S
C623 C617 1.428 . S
C623 O626 1.301 . S
C623 O627 1.282 . S
O624 U606 2.441 . S
O624 C610 1.249 . S
O625 U606 2.420 . S
O625 C610 1.202 . S
O626 U606 2.455 . S
O626 C623 1.301 . S
O627 U606 2.449 . S
O627 C623 1.282 . S
H628 C601 0.931 . S
H629 C603 0.929 . S
H630 C604 0.930 . S
H631 C605 0.931 . S
H632 C612 0.932 . S
H633 C613 0.930 . S
H634 C614 0.929 . S
H635 C616 0.930 . S
H636 C618 0.932 . S
H637 C619 0.929 . S
H638 C620 0.928 . S
H639 C622 0.932 . S
C640 C641 1.264 . S
C640 C645 1.479 . S
C640 C650 1.465 . S
C641 C640 1.264 . S
C641 C643 1.339 . S
C641 H668 0.931 . S
C642 C643 1.395 . S
C642 C644 1.320 . S
C643 C641 1.339 . S
C643 C642 1.395 . S
C643 H669 0.929 . S
C644 C642 1.320 . S
C644 C645 1.405 . S
C644 H670 0.930 . S
C645 C640 1.479 . S
C645 C644 1.405 . S
C645 H671 0.931 . S
U646 O647 2.454 . S
U646 O648 2.458 . S
U646 C649 2.984 . S
U646 C650 2.847 . S
U646 C663 2.882 . S
U646 O664 2.441 . S
U646 O665 2.420 . S
U646 O666 2.455 . S
U646 O667 2.449 . S
O647 U646 2.454 . S
O647 C649 1.353 . S
O648 U646 2.458 . S
O648 C649 1.286 . S
C649 U646 2.984 . S
C649 O647 1.353 . S
C649 O648 1.286 . S
C649 C651 1.363 . S
C650 C640 1.465 . S
C650 U646 2.847 . S
C650 O664 1.249 . S
C650 O665 1.202 . S
C651 C649 1.363 . S
C651 C653 1.408 . S
C651 C656 1.342 . S
C652 C653 1.310 . S
C652 C655 1.461 . S
C652 H672 0.932 . S
C653 C651 1.408 . S
C653 C652 1.310 . S
C653 H673 0.930 . S
C654 C655 1.474 . S
C654 C656 1.285 . S
C654 H674 0.929 . S
C655 C652 1.461 . S
C655 C654 1.474 . S
C656 C651 1.342 . S
C656 C654 1.285 . S
C656 H675 0.930 . S
C657 C660 1.424 . S
C657 C662 1.245 . S
C657 C663 1.428 . S
C658 C661 1.260 . S
C658 C662 1.477 . S
C658 H676 0.932 . S
C659 C660 1.384 . S
C659 C661 1.479 . S
C659 H677 0.929 . S
C660 C657 1.424 . S
C660 C659 1.384 . S
C660 H678 0.928 . S
C661 C658 1.260 . S
C661 C659 1.479 . S
C662 C657 1.245 . S
C662 C658 1.477 . S
C662 H679 0.932 . S
C663 U646 2.882 . S
C663 C657 1.428 . S
C663 O666 1.301 . S
C663 O667 1.282 . S
O664 U646 2.441 . S
O664 C650 1.249 . S
O665 U646 2.420 . S
O665 C650 1.202 . S
O666 U646 2.455 . S
O666 C663 1.301 . S
O667 U646 2.449 . S
O667 C663 1.282 . S
H668 C641 0.931 . S
H669 C643 0.929 . S
H670 C644 0.930 . S
H671 C645 0.931 . S
H672 C652 0.932 . S
H673 C653 0.930 . S
H674 C654 0.929 . S
H675 C656 0.930 . S
H676 C658 0.932 . S
H677 C659 0.929 . S
H678 C660 0.928 . S
H679 C662 0.932 . S
C680 C681 1.264 . S
C680 C685 1.479 . S
C680 C690 1.465 . S
C681 C680 1.264 . S
C681 C683 1.339 . S
C681 H708 0.931 . S
C682 C683 1.395 . S
C682 C684 1.320 . S
C683 C681 1.339 . S
C683 C682 1.395 . S
C683 H709 0.929 . S
C684 C682 1.320 . S
C684 C685 1.405 . S
C684 H710 0.930 . S
C685 C680 1.479 . S
C685 C684 1.405 . S
C685 H711 0.931 . S
U686 O687 2.454 . S
U686 O688 2.458 . S
U686 C689 2.984 . S
U686 C690 2.847 . S
U686 C703 2.882 . S
U686 O704 2.441 . S
U686 O705 2.420 . S
U686 O706 2.455 . S
U686 O707 2.449 . S
O687 U686 2.454 . S
O687 C689 1.353 . S
O688 U686 2.458 . S
O688 C689 1.286 . S
C689 U686 2.984 . S
C689 O687 1.353 . S
C689 O688 1.286 . S
C689 C691 1.363 . S
C690 C680 1.465 . S
C690 U686 2.847 . S
C690 O704 1.249 . S
C690 O705 1.202 . S
C691 C689 1.363 . S
C691 C693 1.408 . S
C691 C696 1.342 . S
C692 C693 1.310 . S
C692 C695 1.461 . S
C692 H712 0.932 . S
C693 C691 1.408 . S
C693 C692 1.310 . S
C693 H713 0.930 . S
C694 C695 1.474 . S
C694 C696 1.285 . S
C694 H714 0.929 . S
C695 C692 1.461 . S
C695 C694 1.474 . S
C696 C691 1.342 . S
C696 C694 1.285 . S
C696 H715 0.930 . S
C697 C700 1.424 . S
C697 C702 1.245 . S
C697 C703 1.428 . S
C698 C701 1.260 . S
C698 C702 1.477 . S
C698 H716 0.932 . S
C699 C700 1.384 . S
C699 C701 1.479 . S
C699 H717 0.929 . S
C700 C697 1.424 . S
C700 C699 1.384 . S
C700 H718 0.928 . S
C701 C698 1.260 . S
C701 C699 1.479 . S
C702 C697 1.245 . S
C702 C698 1.477 . S
C702 H719 0.932 . S
C703 U686 2.882 . S
C703 C697 1.428 . S
C703 O706 1.301 . S
C703 O707 1.282 . S
O704 U686 2.441 . S
O704 C690 1.249 . S
O705 U686 2.420 . S
O705 C690 1.202 . S
O706 U686 2.455 . S
O706 C703 1.301 . S
O707 U686 2.449 . S
O707 C703 1.282 . S
H708 C681 0.931 . S
H709 C683 0.929 . S
H710 C684 0.930 . S
H711 C685 0.931 . S
H712 C692 0.932 . S
H713 C693 0.930 . S
H714 C694 0.929 . S
H715 C696 0.930 . S
H716 C698 0.932 . S
H717 C699 0.929 . S
H718 C700 0.928 . S
H719 C702 0.932 . S
Tb720 O723 2.453 . S
Tb720 O724 2.596 1_545 S
Tb720 O725 2.374 1_545 S
Tb720 O733 2.343 1_554 S
Tb720 O735 2.353 . S
Tb720 O737 2.427 1_554 S
Tb720 O738 2.513 1_554 S
C721 O725 1.251 . S
C721 O727 1.247 1_554 S
Tb722 O724 2.343 1_556 S
Tb722 O727 2.359 . S
Tb722 O730 2.427 1_556 S
Tb722 O731 2.513 1_556 S
Tb722 O732 2.453 . S
Tb722 O733 2.596 1_565 S
Tb722 O734 2.374 1_565 S
O723 Tb720 2.453 . S
O723 C739 1.279 . S
O724 Tb720 2.596 1_565 S
O724 Tb722 2.343 1_554 S
O724 C739 1.254 1_565 S
O725 Tb720 2.374 1_565 S
O725 C721 1.251 . S
C726 O730 1.275 . S
C726 O731 1.246 . S
O727 C721 1.247 1_556 S
O727 Tb722 2.359 . S
C728 O732 1.227 1_545 S
C728 O733 1.264 . S
C729 O734 1.250 . S
C729 O735 1.263 1_556 S
O730 Tb722 2.427 1_554 S
O730 C726 1.275 . S
O731 Tb722 2.513 1_554 S
O731 C726 1.246 . S
O732 Tb722 2.453 . S
O732 C728 1.227 1_565 S
O733 Tb720 2.343 1_556 S
O733 Tb722 2.596 1_545 S
O733 C728 1.264 . S
O734 Tb722 2.374 1_545 S
O734 C729 1.250 . S
O735 Tb720 2.353 . S
O735 C729 1.263 1_554 S
C736 O737 1.275 . S
C736 O738 1.246 . S
O737 Tb720 2.427 1_556 S
O737 C736 1.275 . S
O738 Tb720 2.513 1_556 S
O738 C736 1.246 . S
C739 O723 1.279 . S
C739 O724 1.254 1_545 S
Tb740 O743 2.453 . S
Tb740 O744 2.596 1_655 S
Tb740 O745 2.374 1_655 S
Tb740 O753 2.343 1_554 S
Tb740 O755 2.353 . S
Tb740 O757 2.427 1_554 S
Tb740 O758 2.513 1_554 S
C741 O745 1.251 . S
C741 O747 1.263 . S
Tb742 O744 2.343 1_556 S
Tb742 O747 2.353 1_556 S
Tb742 O750 2.427 1_556 S
Tb742 O751 2.513 1_556 S
Tb742 O752 2.453 . S
Tb742 O753 2.596 1_455 S
Tb742 O754 2.374 1_455 S
O743 Tb740 2.453 . S
O743 C759 1.245 1_655 S
O744 Tb740 2.596 1_455 S
O744 Tb742 2.343 1_554 S
O744 C759 1.259 . S
O745 Tb740 2.374 1_455 S
O745 C741 1.251 . S
C746 O750 1.275 . S
C746 O751 1.246 . S
O747 C741 1.263 . S
O747 Tb742 2.353 1_554 S
C748 O752 1.245 . S
C748 O753 1.259 1_455 S
C749 O754 1.250 . S
C749 O755 1.263 1_556 S
O750 Tb742 2.427 1_554 S
O750 C746 1.275 . S
O751 Tb742 2.513 1_554 S
O751 C746 1.246 . S
O752 Tb742 2.453 . S
O752 C748 1.245 . S
O753 Tb740 2.343 1_556 S
O753 Tb742 2.596 1_655 S
O753 C748 1.259 1_655 S
O754 Tb742 2.374 1_655 S
O754 C749 1.250 . S
O755 Tb740 2.353 . S
O755 C749 1.263 1_554 S
C756 O757 1.275 . S
C756 O758 1.246 . S
O757 Tb740 2.427 1_556 S
O757 C756 1.275 . S
O758 Tb740 2.513 1_556 S
O758 C756 1.246 . S
C759 O743 1.245 1_455 S
C759 O744 1.259 . S
Tb760 O763 2.453 . S
Tb760 O764 2.596 . S
Tb760 O765 2.374 . S
Tb760 O773 2.343 1_556 S
Tb760 O775 2.345 1_556 S
Tb760 O777 2.427 1_556 S
Tb760 O778 2.513 1_556 S
C761 O765 1.251 . S
C761 O767 1.263 1_556 S
Tb762 O764 2.343 1_554 S
Tb762 O767 2.353 . S
Tb762 O770 2.427 1_554 S
Tb762 O771 2.513 1_554 S
Tb762 O772 2.453 . S
Tb762 O773 2.596 . S
Tb762 O774 2.374 . S
O763 Tb760 2.453 . S
O763 C779 1.245 . S
O764 Tb760 2.596 . S
O764 Tb762 2.343 1_556 S
O764 C779 1.259 . S
O765 Tb760 2.374 . S
O765 C761 1.251 . S
C766 O770 1.275 . S
C766 O771 1.246 . S
O767 C761 1.263 1_554 S
O767 Tb762 2.353 . S
C768 O772 1.245 . S
C768 O773 1.259 . S
C769 O774 1.250 . S
C769 O775 1.298 . S
O770 Tb762 2.427 1_556 S
O770 C766 1.275 . S
O771 Tb762 2.513 1_556 S
O771 C766 1.246 . S
O772 Tb762 2.453 . S
O772 C768 1.245 . S
O773 Tb760 2.343 1_554 S
O773 Tb762 2.596 . S
O773 C768 1.259 . S
O774 Tb762 2.374 . S
O774 C769 1.250 . S
O775 Tb760 2.345 1_554 S
O775 C769 1.298 . S
C776 O777 1.275 . S
C776 O778 1.246 . S
O777 Tb760 2.427 1_554 S
O777 C776 1.275 . S
O778 Tb760 2.513 1_554 S
O778 C776 1.246 . S
C779 O763 1.245 . S
C779 O764 1.259 . S
Tb780 O783 2.453 . S
Tb780 O784 2.596 . S
Tb780 O785 2.374 . S
Tb780 O793 2.343 . S
Tb780 O795 2.353 . S
Tb780 O797 2.427 . S
Tb780 O798 2.513 . S
C781 O785 1.251 . S
C781 O787 1.263 . S
Tb782 O784 2.343 . S
Tb782 O787 2.353 . S
Tb782 O790 2.427 . S
Tb782 O791 2.513 . S
Tb782 O792 2.453 . S
Tb782 O793 2.596 . S
Tb782 O794 2.374 . S
O783 Tb780 2.453 . S
O783 C799 1.245 . S
O784 Tb780 2.596 . S
O784 Tb782 2.343 . S
O784 C799 1.259 . S
O785 Tb780 2.374 . S
O785 C781 1.251 . S
C786 O790 1.275 . S
C786 O791 1.246 . S
O787 C781 1.263 . S
O787 Tb782 2.353 . S
C788 O792 1.245 . S
C788 O793 1.259 . S
C789 O794 1.250 . S
C789 O795 1.263 . S
O790 Tb782 2.427 . S
O790 C786 1.275 . S
O791 Tb782 2.513 . S
O791 C786 1.246 . S
O792 Tb782 2.453 . S
O792 C788 1.245 . S
O793 Tb780 2.343 . S
O793 Tb782 2.596 . S
O793 C788 1.259 . S
O794 Tb782 2.374 . S
O794 C789 1.250 . S
O795 Tb780 2.353 . S
O795 C789 1.263 . S
C796 O797 1.275 . S
C796 O798 1.246 . S
O797 Tb780 2.427 . S
O797 C796 1.275 . S
O798 Tb780 2.513 . S
O798 C796 1.246 . S
C799 O783 1.245 . S
C799 O784 1.259 . S
Tb800 O803 2.453 . S
Tb800 O804 2.596 . S
Tb800 O805 2.374 . S
Tb800 O813 2.343 . S
Tb800 O815 2.353 . S
Tb800 O817 2.427 . S
Tb800 O818 2.513 . S
C801 O805 1.251 . S
C801 O807 1.263 . S
Tb802 O804 2.343 . S
Tb802 O807 2.353 . S
Tb802 O810 2.427 . S
Tb802 O811 2.513 . S
Tb802 O812 2.453 . S
Tb802 O813 2.596 . S
Tb802 O814 2.374 . S
O803 Tb800 2.453 . S
O803 C819 1.245 . S
O804 Tb800 2.596 . S
O804 Tb802 2.343 . S
O804 C819 1.259 . S
O805 Tb800 2.374 . S
O805 C801 1.251 . S
C806 O810 1.275 . S
C806 O811 1.246 . S
O807 C801 1.263 . S
O807 Tb802 2.353 . S
C808 O812 1.245 . S
C808 O813 1.259 . S
C809 O814 1.250 . S
C809 O815 1.263 . S
O810 Tb802 2.427 . S
O810 C806 1.275 . S
O811 Tb802 2.513 . S
O811 C806 1.246 . S
O812 Tb802 2.453 . S
O812 C808 1.245 . S
O813 Tb800 2.343 . S
O813 Tb802 2.596 . S
O813 C808 1.259 . S
O814 Tb802 2.374 . S
O814 C809 1.250 . S
O815 Tb800 2.353 . S
O815 C809 1.263 . S
C816 O817 1.275 . S
C816 O818 1.246 . S
O817 Tb800 2.427 . S
O817 C816 1.275 . S
O818 Tb800 2.513 . S
O818 C816 1.246 . S
C819 O803 1.245 . S
C819 O804 1.259 . S
Tb820 O823 2.453 . S
Tb820 O824 2.596 . S
Tb820 O825 2.374 . S
Tb820 O833 2.343 . S
Tb820 O835 2.353 . S
Tb820 O837 2.427 . S
Tb820 O838 2.513 . S
C821 O825 1.251 . S
C821 O827 1.263 . S
Tb822 O824 2.343 . S
Tb822 O827 2.353 . S
Tb822 O830 2.427 . S
Tb822 O831 2.513 . S
Tb822 O832 2.453 . S
Tb822 O833 2.596 . S
Tb822 O834 2.374 . S
O823 Tb820 2.453 . S
O823 C839 1.245 . S
O824 Tb820 2.596 . S
O824 Tb822 2.343 . S
O824 C839 1.259 . S
O825 Tb820 2.374 . S
O825 C821 1.251 . S
C826 O830 1.275 . S
C826 O831 1.246 . S
O827 C821 1.263 . S
O827 Tb822 2.353 . S
C828 O832 1.245 . S
C828 O833 1.259 . S
C829 O834 1.250 . S
C829 O835 1.263 . S
O830 Tb822 2.427 . S
O830 C826 1.275 . S
O831 Tb822 2.513 . S
O831 C826 1.246 . S
O832 Tb822 2.453 . S
O832 C828 1.245 . S
O833 Tb820 2.343 . S
O833 Tb822 2.596 . S
O833 C828 1.259 . S
O834 Tb822 2.374 . S
O834 C829 1.250 . S
O835 Tb820 2.353 . S
O835 C829 1.263 . S
C836 O837 1.275 . S
C836 O838 1.246 . S
O837 Tb820 2.427 . S
O837 C836 1.275 . S
O838 Tb820 2.513 . S
O838 C836 1.246 . S
C839 O823 1.245 . S
C839 O824 1.259 . S
Tb840 O843 2.453 . S
Tb840 O844 2.596 . S
Tb840 O845 2.374 . S
Tb840 O853 2.343 . S
Tb840 O855 2.353 . S
Tb840 O857 2.427 . S
Tb840 O858 2.513 . S
C841 O845 1.251 . S
C841 O847 1.263 . S
Tb842 O844 2.343 . S
Tb842 O847 2.353 . S
Tb842 O850 2.427 . S
Tb842 O851 2.513 . S
Tb842 O852 2.453 . S
Tb842 O853 2.596 . S
Tb842 O854 2.374 . S
O843 Tb840 2.453 . S
O843 C859 1.245 . S
O844 Tb840 2.596 . S
O844 Tb842 2.343 . S
O844 C859 1.259 . S
O845 Tb840 2.374 . S
O845 C841 1.251 . S
C846 O850 1.275 . S
C846 O851 1.246 . S
O847 C841 1.263 . S
O847 Tb842 2.353 . S
C848 O852 1.245 . S
C848 O853 1.259 . S
C849 O854 1.250 . S
C849 O855 1.263 . S
O850 Tb842 2.427 . S
O850 C846 1.275 . S
O851 Tb842 2.513 . S
O851 C846 1.246 . S
O852 Tb842 2.453 . S
O852 C848 1.245 . S
O853 Tb840 2.343 . S
O853 Tb842 2.596 . S
O853 C848 1.259 . S
O854 Tb842 2.374 . S
O854 C849 1.250 . S
O855 Tb840 2.353 . S
O855 C849 1.263 . S
C856 O857 1.275 . S
C856 O858 1.246 . S
O857 Tb840 2.427 . S
O857 C856 1.275 . S
O858 Tb840 2.513 . S
O858 C856 1.246 . S
C859 O843 1.245 . S
C859 O844 1.259 . S
Tb860 O863 2.453 . S
Tb860 O864 2.596 . S
Tb860 O865 2.374 . S
Tb860 O873 2.343 . S
Tb860 O875 2.353 . S
Tb860 O877 2.427 . S
Tb860 O878 2.513 . S
C861 O865 1.251 . S
C861 O867 1.263 . S
Tb862 O864 2.343 . S
Tb862 O867 2.353 . S
Tb862 O870 2.427 . S
Tb862 O871 2.513 . S
Tb862 O872 2.453 . S
Tb862 O873 2.596 . S
Tb862 O874 2.374 . S
O863 Tb860 2.453 . S
O863 C879 1.245 . S
O864 Tb860 2.596 . S
O864 Tb862 2.343 . S
O864 C879 1.259 . S
O865 Tb860 2.374 . S
O865 C861 1.251 . S
C866 O870 1.275 . S
C866 O871 1.246 . S
O867 C861 1.263 . S
O867 Tb862 2.353 . S
C868 O872 1.245 . S
C868 O873 1.259 . S
C869 O874 1.250 . S
C869 O875 1.263 . S
O870 Tb862 2.427 . S
O870 C866 1.275 . S
O871 Tb862 2.513 . S
O871 C866 1.246 . S
O872 Tb862 2.453 . S
O872 C868 1.245 . S
O873 Tb860 2.343 . S
O873 Tb862 2.596 . S
O873 C868 1.259 . S
O874 Tb862 2.374 . S
O874 C869 1.250 . S
O875 Tb860 2.353 . S
O875 C869 1.263 . S
C876 O877 1.275 . S
C876 O878 1.246 . S
O877 Tb860 2.427 . S
O877 C876 1.275 . S
O878 Tb860 2.513 . S
O878 C876 1.246 . S
C879 O863 1.245 . S
C879 O864 1.259 . S
Tb880 O883 2.453 . S
Tb880 O884 2.596 . S
Tb880 O885 2.374 . S
Tb880 O893 2.343 . S
Tb880 O895 2.353 . S
Tb880 O897 2.427 . S
Tb880 O898 2.513 . S
C881 O885 1.251 . S
C881 O887 1.263 . S
Tb882 O884 2.343 . S
Tb882 O887 2.353 . S
Tb882 O890 2.427 . S
Tb882 O891 2.513 . S
Tb882 O892 2.453 . S
Tb882 O893 2.596 . S
Tb882 O894 2.374 . S
O883 Tb880 2.453 . S
O883 C899 1.245 . S
O884 Tb880 2.596 . S
O884 Tb882 2.343 . S
O884 C899 1.259 . S
O885 Tb880 2.374 . S
O885 C881 1.251 . S
C886 O890 1.275 . S
C886 O891 1.246 . S
O887 C881 1.263 . S
O887 Tb882 2.353 . S
C888 O892 1.245 . S
C888 O893 1.259 . S
C889 O894 1.250 . S
C889 O895 1.263 . S
O890 Tb882 2.427 . S
O890 C886 1.275 . S
O891 Tb882 2.513 . S
O891 C886 1.246 . S
O892 Tb882 2.453 . S
O892 C888 1.245 . S
O893 Tb880 2.343 . S
O893 Tb882 2.596 . S
O893 C888 1.259 . S
O894 Tb882 2.374 . S
O894 C889 1.250 . S
O895 Tb880 2.353 . S
O895 C889 1.263 . S
C896 O897 1.275 . S
C896 O898 1.246 . S
O897 Tb880 2.427 . S
O897 C896 1.275 . S
O898 Tb880 2.513 . S
O898 C896 1.246 . S
C899 O883 1.245 . S
C899 O884 1.259 . S
H900 C918 0.951 . S
H901 C920 0.951 . S
H902 C922 0.950 . S
H903 C923 0.950 . S
H904 C925 0.950 . S
H905 C928 0.950 . S
H906 C929 0.950 . S
H907 C931 0.950 . S
H908 C932 0.950 . S
H909 C933 0.951 . S
H910 C935 0.951 . S
H911 C937 0.950 . S
H912 C938 0.950 . S
H913 C940 0.950 . S
H914 C943 0.950 . S
H915 C944 0.950 . S
H916 C946 0.950 . S
H917 C947 0.950 . S
C918 H900 0.951 . S
C918 C919 1.366 . S
C918 C920 1.388 . S
C919 C918 1.366 . S
C919 C923 1.385 . S
C920 H901 0.951 . S
C920 C918 1.388 . S
C920 C921 1.366 . S
C921 C920 1.366 . S
C921 C922 1.414 . S
C921 C924 1.499 . S
C922 H902 0.950 . S
C922 C921 1.414 . S
C922 C923 1.374 . S
C923 H903 0.950 . S
C923 C919 1.385 . S
C923 C922 1.374 . S
C924 C921 1.499 . S
C924 C925 1.373 . S
C924 C926 1.389 . S
C925 H904 0.950 . S
C925 C924 1.373 . S
C925 C941 1.377 . S
C926 C924 1.389 . S
C926 C927 1.524 . S
C926 C940 1.377 . S
C927 C926 1.524 . S
C927 C928 1.397 . S
C927 C932 1.363 . S
C928 H905 0.950 . S
C928 C927 1.397 . S
C928 C929 1.334 . S
C929 H906 0.950 . S
C929 C928 1.334 . S
C929 C930 1.348 . S
C930 C929 1.348 . S
C930 C931 1.506 1_554 S
C930 H949 0.872 1_554 S
C931 H907 0.950 . S
C931 C930 1.506 1_556 S
C931 C932 1.415 1_556 S
C932 H908 0.950 . S
C932 C927 1.363 . S
C932 C931 1.415 1_554 S
C933 H909 0.951 . S
C933 C934 1.366 . S
C933 C935 1.388 . S
C934 C933 1.366 . S
C934 C938 1.385 . S
C935 H910 0.951 . S
C935 C933 1.388 . S
C935 C936 1.366 . S
C936 C935 1.366 . S
C936 C937 1.414 . S
C936 C939 1.499 . S
C937 H911 0.950 . S
C937 C936 1.414 . S
C937 C938 1.374 . S
C938 H912 0.950 . S
C938 C934 1.385 . S
C938 C937 1.374 . S
C939 C936 1.499 . S
C939 C940 1.373 . S
C939 C941 1.389 . S
C940 H913 0.950 . S
C940 C926 1.377 . S
C940 C939 1.373 . S
C941 C925 1.377 . S
C941 C939 1.389 . S
C941 C942 1.524 . S
C942 C941 1.524 . S
C942 C943 1.397 . S
C942 C947 1.363 . S
C943 H914 0.950 . S
C943 C942 1.397 . S
C943 C944 1.334 . S
C944 H915 0.950 . S
C944 C943 1.334 . S
C944 C945 1.287 . S
C945 C944 1.287 . S
C945 C946 1.524 . S
C945 H948 0.999 . S
C946 H916 0.950 . S
C946 C945 1.524 . S
C946 C947 1.415 . S
C947 H917 0.950 . S
C947 C942 1.363 . S
C947 C946 1.415 . S
H948 C945 0.999 . S
H949 C930 0.872 1_556 S
H950 C968 0.951 . S
H951 C970 0.951 . S
H952 C972 0.950 . S
H953 C973 0.950 . S
H954 C975 0.950 . S
H955 C978 0.950 . S
H956 C979 0.950 . S
H957 C981 0.950 . S
H958 C982 0.950 . S
H959 C983 0.951 . S
H960 C985 0.951 . S
H961 C987 0.950 . S
H962 C988 0.950 . S
H963 C990 0.950 . S
H964 C993 0.950 . S
H965 C994 0.950 . S
H966 C996 0.950 . S
H967 C997 0.950 . S
C968 H950 0.951 . S
C968 C969 1.366 . S
C968 C970 1.388 . S
C969 C968 1.366 . S
C969 C973 1.385 . S
C970 H951 0.951 . S
C970 C968 1.388 . S
C970 C971 1.366 . S
C971 C970 1.366 . S
C971 C972 1.414 . S
C971 C974 1.499 . S
C972 H952 0.950 . S
C972 C971 1.414 . S
C972 C973 1.374 . S
C973 H953 0.950 . S
C973 C969 1.385 . S
C973 C972 1.374 . S
C974 C971 1.499 . S
C974 C975 1.373 . S
C974 C976 1.389 . S
C975 H954 0.950 . S
C975 C974 1.373 . S
C975 C991 1.377 . S
C976 C974 1.389 . S
C976 C977 1.524 . S
C976 C990 1.377 . S
C977 C976 1.524 . S
C977 C978 1.397 . S
C977 C982 1.363 . S
C978 H955 0.950 . S
C978 C977 1.397 . S
C978 C979 1.334 . S
C979 H956 0.950 . S
C979 C978 1.334 . S
C979 C980 1.287 . S
C980 C979 1.287 . S
C980 C981 1.524 . S
C980 H999 0.913 . S
C981 H957 0.950 . S
C981 C980 1.524 . S
C981 C982 1.415 . S
C982 H958 0.950 . S
C982 C977 1.363 . S
C982 C981 1.415 . S
C983 H959 0.951 . S
C983 C984 1.366 . S
C983 C985 1.388 . S
C984 C983 1.366 . S
C984 C988 1.385 . S
C985 H960 0.951 . S
C985 C983 1.388 . S
C985 C986 1.366 . S
C986 C985 1.366 . S
C986 C987 1.414 . S
C986 C989 1.499 . S
C987 H961 0.950 . S
C987 C986 1.414 . S
C987 C988 1.374 . S
C988 H962 0.950 . S
C988 C984 1.385 . S
C988 C987 1.374 . S
C989 C986 1.499 . S
C989 C990 1.373 . S
C989 C991 1.389 . S
C990 H963 0.950 . S
C990 C976 1.377 . S
C990 C989 1.373 . S
C991 C975 1.377 . S
C991 C989 1.389 . S
C991 C992 1.524 . S
C992 C991 1.524 . S
C992 C993 1.397 . S
C992 C997 1.363 . S
C993 H964 0.950 . S
C993 C992 1.397 . S
C993 C994 1.334 . S
C994 H965 0.950 . S
C994 C993 1.334 . S
C994 C995 1.287 . S
C995 C994 1.287 . S
C995 C996 1.524 . S
C995 H998 0.999 . S
C996 H966 0.950 . S
C996 C995 1.524 . S
C996 C997 1.415 . S
C997 H967 0.950 . S
C997 C992 1.363 . S
C997 C996 1.415 . S
H998 C995 0.999 . S
H999 C980 0.913 . S
H1000 C1018 0.951 . S
H1001 C1020 0.951 . S
H1002 C1022 0.950 . S
H1003 C1023 0.950 . S
H1004 C1025 0.950 . S
H1005 C1028 0.950 . S
H1006 C1029 0.950 . S
H1007 C1031 0.950 . S
H1008 C1032 0.950 . S
H1009 C1033 0.951 . S
H1010 C1035 0.951 . S
H1011 C1037 0.950 . S
H1012 C1038 0.950 . S
H1013 C1040 0.950 . S
H1014 C1043 0.950 . S
H1015 C1044 0.950 . S
H1016 C1046 0.950 . S
H1017 C1047 0.950 . S
C1018 H1000 0.951 . S
C1018 C1019 1.366 . S
C1018 C1020 1.388 . S
C1019 C1018 1.366 . S
C1019 C1023 1.385 . S
C1020 H1001 0.951 . S
C1020 C1018 1.388 . S
C1020 C1021 1.366 . S
C1021 C1020 1.366 . S
C1021 C1022 1.414 . S
C1021 C1024 1.499 . S
C1022 H1002 0.950 . S
C1022 C1021 1.414 . S
C1022 C1023 1.374 . S
C1023 H1003 0.950 . S
C1023 C1019 1.385 . S
C1023 C1022 1.374 . S
C1024 C1021 1.499 . S
C1024 C1025 1.373 . S
C1024 C1026 1.389 . S
C1025 H1004 0.950 . S
C1025 C1024 1.373 . S
C1025 C1041 1.377 . S
C1026 C1024 1.389 . S
C1026 C1027 1.524 . S
C1026 C1040 1.377 . S
C1027 C1026 1.524 . S
C1027 C1028 1.397 . S
C1027 C1032 1.363 . S
C1028 H1005 0.950 . S
C1028 C1027 1.397 . S
C1028 C1029 1.334 . S
C1029 H1006 0.950 . S
C1029 C1028 1.334 . S
C1029 C1030 1.287 . S
C1030 C1029 1.287 . S
C1030 C1031 1.524 . S
C1030 H1049 0.913 . S
C1031 H1007 0.950 . S
C1031 C1030 1.524 . S
C1031 C1032 1.415 . S
C1032 H1008 0.950 . S
C1032 C1027 1.363 . S
C1032 C1031 1.415 . S
C1033 H1009 0.951 . S
C1033 C1034 1.366 . S
C1033 C1035 1.388 . S
C1034 C1033 1.366 . S
C1034 C1038 1.385 . S
C1035 H1010 0.951 . S
C1035 C1033 1.388 . S
C1035 C1036 1.366 . S
C1036 C1035 1.366 . S
C1036 C1037 1.414 . S
C1036 C1039 1.499 . S
C1037 H1011 0.950 . S
C1037 C1036 1.414 . S
C1037 C1038 1.374 . S
C1038 H1012 0.950 . S
C1038 C1034 1.385 . S
C1038 C1037 1.374 . S
C1039 C1036 1.499 . S
C1039 C1040 1.373 . S
C1039 C1041 1.389 . S
C1040 H1013 0.950 . S
C1040 C1026 1.377 . S
C1040 C1039 1.373 . S
C1041 C1025 1.377 . S
C1041 C1039 1.389 . S
C1041 C1042 1.524 . S
C1042 C1041 1.524 . S
C1042 C1043 1.397 . S
C1042 C1047 1.363 . S
C1043 H1014 0.950 . S
C1043 C1042 1.397 . S
C1043 C1044 1.334 . S
C1044 H1015 0.950 . S
C1044 C1043 1.334 . S
C1044 C1045 1.287 . S
C1045 C1044 1.287 . S
C1045 C1046 1.524 . S
C1045 H1048 0.999 . S
C1046 H1016 0.950 . S
C1046 C1045 1.524 . S
C1046 C1047 1.415 . S
C1047 H1017 0.950 . S
C1047 C1042 1.363 . S
C1047 C1046 1.415 . S
H1048 C1045 0.999 . S
H1049 C1030 0.913 . S
H1050 C1068 0.951 . S
H1051 C1070 0.951 . S
H1052 C1072 0.950 . S
H1053 C1073 0.950 . S
H1054 C1075 0.950 . S
H1055 C1078 0.950 . S
H1056 C1079 0.950 . S
H1057 C1081 0.950 . S
H1058 C1082 0.950 . S
H1059 C1083 0.951 . S
H1060 C1085 0.951 . S
H1061 C1087 0.950 . S
H1062 C1088 0.950 . S
H1063 C1090 0.950 . S
H1064 C1093 0.950 . S
H1065 C1094 0.950 . S
H1066 C1096 0.950 . S
H1067 C1097 0.950 . S
C1068 H1050 0.951 . S
C1068 C1069 1.366 . S
C1068 C1070 1.388 . S
C1069 C1068 1.366 . S
C1069 C1073 1.385 . S
C1070 H1051 0.951 . S
C1070 C1068 1.388 . S
C1070 C1071 1.366 . S
C1071 C1070 1.366 . S
C1071 C1072 1.414 . S
C1071 C1074 1.499 . S
C1072 H1052 0.950 . S
C1072 C1071 1.414 . S
C1072 C1073 1.374 . S
C1073 H1053 0.950 . S
C1073 C1069 1.385 . S
C1073 C1072 1.374 . S
C1074 C1071 1.499 . S
C1074 C1075 1.373 . S
C1074 C1076 1.389 . S
C1075 H1054 0.950 . S
C1075 C1074 1.373 . S
C1075 C1091 1.377 . S
C1076 C1074 1.389 . S
C1076 C1077 1.524 . S
C1076 C1090 1.377 . S
C1077 C1076 1.524 . S
C1077 C1078 1.397 . S
C1077 C1082 1.363 . S
C1078 H1055 0.950 . S
C1078 C1077 1.397 . S
C1078 C1079 1.334 1_556 S
C1079 H1056 0.950 . S
C1079 C1078 1.334 1_554 S
C1079 C1080 1.287 . S
C1080 C1079 1.287 . S
C1080 C1081 1.524 . S
C1080 H1099 0.913 . S
C1081 H1057 0.950 . S
C1081 C1080 1.524 . S
C1081 C1082 1.415 1_554 S
C1082 H1058 0.950 . S
C1082 C1077 1.363 . S
C1082 C1081 1.415 1_556 S
C1083 H1059 0.951 . S
C1083 C1084 1.366 . S
C1083 C1085 1.388 . S
C1084 C1083 1.366 . S
C1084 C1088 1.385 . S
C1085 H1060 0.951 . S
C1085 C1083 1.388 . S
C1085 C1086 1.366 . S
C1086 C1085 1.366 . S
C1086 C1087 1.414 . S
C1086 C1089 1.499 . S
C1087 H1061 0.950 . S
C1087 C1086 1.414 . S
C1087 C1088 1.374 . S
C1088 H1062 0.950 . S
C1088 C1084 1.385 . S
C1088 C1087 1.374 . S
C1089 C1086 1.499 . S
C1089 C1090 1.373 . S
C1089 C1091 1.389 . S
C1090 H1063 0.950 . S
C1090 C1076 1.377 . S
C1090 C1089 1.373 . S
C1091 C1075 1.377 . S
C1091 C1089 1.389 . S
C1091 C1092 1.524 . S
C1092 C1091 1.524 . S
C1092 C1093 1.397 . S
C1092 C1097 1.363 . S
C1093 H1064 0.950 . S
C1093 C1092 1.397 . S
C1093 C1094 1.334 . S
C1094 H1065 0.950 . S
C1094 C1093 1.334 . S
C1094 C1095 1.287 . S
C1095 C1094 1.287 . S
C1095 C1096 1.524 . S
C1095 H1098 0.999 . S
C1096 H1066 0.950 . S
C1096 C1095 1.524 . S
C1096 C1097 1.415 . S
C1097 H1067 0.950 . S
C1097 C1092 1.363 . S
C1097 C1096 1.415 . S
H1098 C1095 0.999 . S
H1099 C1080 0.913 . S
H1100 C1118 0.951 . S
H1101 C1120 0.951 . S
H1102 C1122 0.950 . S
H1103 C1123 0.950 . S
H1104 C1125 0.950 . S
H1105 C1128 0.950 . S
H1106 C1129 0.950 . S
H1107 C1131 0.950 . S
H1108 C1132 0.950 . S
H1109 C1133 0.951 . S
H1110 C1135 0.951 . S
H1111 C1137 0.950 . S
H1112 C1138 0.950 . S
H1113 C1140 0.950 . S
H1114 C1143 0.950 . S
H1115 C1144 0.950 . S
H1116 C1146 0.950 . S
H1117 C1147 0.950 . S
C1118 H1100 0.951 . S
C1118 C1119 1.366 . S
C1118 C1120 1.388 . S
C1119 C1118 1.366 . S
C1119 C1123 1.385 . S
C1120 H1101 0.951 . S
C1120 C1118 1.388 . S
C1120 C1121 1.366 . S
C1121 C1120 1.366 . S
C1121 C1122 1.414 . S
C1121 C1124 1.499 . S
C1122 H1102 0.950 . S
C1122 C1121 1.414 . S
C1122 C1123 1.374 . S
C1123 H1103 0.950 . S
C1123 C1119 1.385 . S
C1123 C1122 1.374 . S
C1124 C1121 1.499 . S
C1124 C1125 1.373 . S
C1124 C1126 1.389 . S
C1125 H1104 0.950 . S
C1125 C1124 1.373 . S
C1125 C1141 1.377 . S
C1126 C1124 1.389 . S
C1126 C1127 1.524 . S
C1126 C1140 1.377 . S
C1127 C1126 1.524 . S
C1127 C1128 1.397 . S
C1127 C1132 1.363 . S
C1128 H1105 0.950 . S
C1128 C1127 1.397 . S
C1128 C1129 1.334 . S
C1129 H1106 0.950 . S
C1129 C1128 1.334 . S
C1129 C1130 1.287 . S
C1130 C1129 1.287 . S
C1130 C1131 1.524 . S
C1130 H1149 0.913 . S
C1131 H1107 0.950 . S
C1131 C1130 1.524 . S
C1131 C1132 1.415 . S
C1132 H1108 0.950 . S
C1132 C1127 1.363 . S
C1132 C1131 1.415 . S
C1133 H1109 0.951 . S
C1133 C1134 1.366 . S
C1133 C1135 1.388 . S
C1134 C1133 1.366 . S
C1134 C1138 1.385 . S
C1135 H1110 0.951 . S
C1135 C1133 1.388 . S
C1135 C1136 1.366 . S
C1136 C1135 1.366 . S
C1136 C1137 1.414 . S
C1136 C1139 1.499 . S
C1137 H1111 0.950 . S
C1137 C1136 1.414 . S
C1137 C1138 1.374 . S
C1138 H1112 0.950 . S
C1138 C1134 1.385 . S
C1138 C1137 1.374 . S
C1139 C1136 1.499 . S
C1139 C1140 1.373 . S
C1139 C1141 1.389 . S
C1140 H1113 0.950 . S
C1140 C1126 1.377 . S
C1140 C1139 1.373 . S
C1141 C1125 1.377 . S
C1141 C1139 1.389 . S
C1141 C1142 1.524 . S
C1142 C1141 1.524 . S
C1142 C1143 1.397 . S
C1142 C1147 1.363 . S
C1143 H1114 0.950 . S
C1143 C1142 1.397 . S
C1143 C1144 1.334 . S
C1144 H1115 0.950 . S
C1144 C1143 1.334 . S
C1144 C1145 1.287 . S
C1145 C1144 1.287 . S
C1145 C1146 1.524 . S
C1145 H1148 0.999 . S
C1146 H1116 0.950 . S
C1146 C1145 1.524 . S
C1146 C1147 1.415 . S
C1147 H1117 0.950 . S
C1147 C1142 1.363 . S
C1147 C1146 1.415 . S
H1148 C1145 0.999 . S
H1149 C1130 0.913 . S
H1150 C1168 0.951 . S
H1151 C1170 0.951 . S
H1152 C1172 0.950 . S
H1153 C1173 0.950 . S
H1154 C1175 0.950 . S
H1155 C1178 0.950 . S
H1156 C1179 0.950 . S
H1157 C1181 0.950 . S
H1158 C1182 0.950 . S
H1159 C1183 0.951 . S
H1160 C1185 0.951 . S
H1161 C1187 0.950 . S
H1162 C1188 0.950 . S
H1163 C1190 0.950 . S
H1164 C1193 0.950 . S
H1165 C1194 0.950 . S
H1166 C1196 0.950 . S
H1167 C1197 0.950 1_556 S
C1168 H1150 0.951 . S
C1168 C1169 1.366 . S
C1168 C1170 1.388 . S
C1169 C1168 1.366 . S
C1169 C1173 1.385 . S
C1170 H1151 0.951 . S
C1170 C1168 1.388 . S
C1170 C1171 1.366 . S
C1171 C1170 1.366 . S
C1171 C1172 1.414 . S
C1171 C1174 1.499 . S
C1172 H1152 0.950 . S
C1172 C1171 1.414 . S
C1172 C1173 1.374 . S
C1173 H1153 0.950 . S
C1173 C1169 1.385 . S
C1173 C1172 1.374 . S
C1174 C1171 1.499 . S
C1174 C1175 1.373 . S
C1174 C1176 1.389 . S
C1175 H1154 0.950 . S
C1175 C1174 1.373 . S
C1175 C1191 1.377 . S
C1176 C1174 1.389 . S
C1176 C1177 1.524 . S
C1176 C1190 1.377 . S
C1177 C1176 1.524 . S
C1177 C1178 1.397 . S
C1177 C1182 1.363 . S
C1178 H1155 0.950 . S
C1178 C1177 1.397 . S
C1178 C1179 1.334 . S
C1179 H1156 0.950 . S
C1179 C1178 1.334 . S
C1179 C1180 1.287 . S
C1180 C1179 1.287 . S
C1180 C1181 1.524 . S
C1180 H1199 0.913 . S
C1181 H1157 0.950 . S
C1181 C1180 1.524 . S
C1181 C1182 1.415 . S
C1182 H1158 0.950 . S
C1182 C1177 1.363 . S
C1182 C1181 1.415 . S
C1183 H1159 0.951 . S
C1183 C1184 1.366 . S
C1183 C1185 1.388 . S
C1184 C1183 1.366 . S
C1184 C1188 1.385 . S
C1185 H1160 0.951 . S
C1185 C1183 1.388 . S
C1185 C1186 1.366 . S
C1186 C1185 1.366 . S
C1186 C1187 1.414 . S
C1186 C1189 1.499 . S
C1187 H1161 0.950 . S
C1187 C1186 1.414 . S
C1187 C1188 1.374 . S
C1188 H1162 0.950 . S
C1188 C1184 1.385 . S
C1188 C1187 1.374 . S
C1189 C1186 1.499 . S
C1189 C1190 1.373 . S
C1189 C1191 1.389 . S
C1190 H1163 0.950 . S
C1190 C1176 1.377 . S
C1190 C1189 1.373 . S
C1191 C1175 1.377 . S
C1191 C1189 1.389 . S
C1191 C1192 1.516 . S
C1192 C1191 1.516 . S
C1192 C1193 1.402 1_556 S
C1192 C1197 1.366 1_556 S
C1193 H1164 0.950 . S
C1193 C1192 1.402 1_554 S
C1193 C1194 1.334 . S
C1194 H1165 0.950 . S
C1194 C1193 1.334 . S
C1194 C1195 1.287 . S
C1195 C1194 1.287 . S
C1195 C1196 1.524 . S
C1195 H1198 0.999 . S
C1196 H1166 0.950 . S
C1196 C1195 1.524 . S
C1196 C1197 1.415 . S
C1197 H1167 0.950 1_554 S
C1197 C1192 1.366 1_554 S
C1197 C1196 1.415 . S
H1198 C1195 0.999 . S
H1199 C1180 0.913 . S
H1200 C1218 0.951 . S
H1201 C1220 0.951 . S
H1202 C1222 0.950 . S
H1203 C1223 0.950 . S
H1204 C1225 0.950 . S
H1205 C1228 0.950 . S
H1206 C1229 0.950 . S
H1207 C1231 0.950 . S
H1208 C1232 0.950 . S
H1209 C1233 0.951 . S
H1210 C1235 0.951 . S
H1211 C1237 0.950 . S
H1212 C1238 0.950 . S
H1213 C1240 0.950 . S
H1214 C1243 0.957 . S
H1215 C1244 0.950 . S
H1216 C1246 0.950 . S
H1217 C1247 0.950 . S
C1218 H1200 0.951 . S
C1218 C1219 1.366 . S
C1218 C1220 1.388 . S
C1219 C1218 1.366 . S
C1219 C1223 1.385 . S
C1220 H1201 0.951 . S
C1220 C1218 1.388 . S
C1220 C1221 1.366 . S
C1221 C1220 1.366 . S
C1221 C1222 1.414 . S
C1221 C1224 1.499 . S
C1222 H1202 0.950 . S
C1222 C1221 1.414 . S
C1222 C1223 1.374 . S
C1223 H1203 0.950 . S
C1223 C1219 1.385 . S
C1223 C1222 1.374 . S
C1224 C1221 1.499 . S
C1224 C1225 1.373 . S
C1224 C1226 1.389 . S
C1225 H1204 0.950 . S
C1225 C1224 1.373 . S
C1225 C1241 1.377 . S
C1226 C1224 1.389 . S
C1226 C1227 1.524 . S
C1226 C1240 1.377 . S
C1227 C1226 1.524 . S
C1227 C1228 1.397 . S
C1227 C1232 1.363 . S
C1228 H1205 0.950 . S
C1228 C1227 1.397 . S
C1228 C1229 1.334 . S
C1229 H1206 0.950 . S
C1229 C1228 1.334 . S
C1229 C1230 1.287 . S
C1230 C1229 1.287 . S
C1230 C1231 1.524 . S
C1230 H1249 0.913 . S
C1231 H1207 0.950 . S
C1231 C1230 1.524 . S
C1231 C1232 1.415 . S
C1232 H1208 0.950 . S
C1232 C1227 1.363 . S
C1232 C1231 1.415 . S
C1233 H1209 0.951 . S
C1233 C1234 1.366 . S
C1233 C1235 1.388 . S
C1234 C1233 1.366 . S
C1234 C1238 1.385 . S
C1235 H1210 0.951 . S
C1235 C1233 1.388 . S
C1235 C1236 1.366 . S
C1236 C1235 1.366 . S
C1236 C1237 1.414 . S
C1236 C1239 1.499 . S
C1237 H1211 0.950 . S
C1237 C1236 1.414 . S
C1237 C1238 1.374 . S
C1238 H1212 0.950 . S
C1238 C1234 1.385 . S
C1238 C1237 1.374 . S
C1239 C1236 1.499 . S
C1239 C1240 1.373 . S
C1239 C1241 1.389 . S
C1240 H1213 0.950 . S
C1240 C1226 1.377 . S
C1240 C1239 1.373 . S
C1241 C1225 1.377 . S
C1241 C1239 1.389 . S
C1241 C1242 1.524 . S
C1242 C1241 1.524 . S
C1242 C1243 1.433 . S
C1242 C1247 1.363 . S
C1243 H1214 0.957 . S
C1243 C1242 1.433 . S
C1243 C1244 1.292 1_556 S
C1244 H1215 0.950 . S
C1244 C1243 1.292 1_554 S
C1244 C1245 1.287 . S
C1245 C1244 1.287 . S
C1245 C1246 1.524 . S
C1245 H1248 0.999 . S
C1246 H1216 0.950 . S
C1246 C1245 1.524 . S
C1246 C1247 1.415 1_554 S
C1247 H1217 0.950 . S
C1247 C1242 1.363 . S
C1247 C1246 1.415 1_556 S
H1248 C1245 0.999 . S
H1249 C1230 0.913 . S
H1250 C1268 0.951 . S
H1251 C1270 0.951 . S
H1252 C1272 0.950 . S
H1253 C1273 0.950 . S
H1254 C1275 0.950 . S
H1255 C1278 0.950 . S
H1256 C1279 0.950 . S
H1257 C1281 0.950 . S
H1258 C1282 0.950 . S
H1259 C1283 0.951 . S
H1260 C1285 0.951 . S
H1261 C1287 0.950 . S
H1262 C1288 0.950 . S
H1263 C1290 0.950 . S
H1264 C1293 0.950 . S
H1265 C1294 0.950 . S
H1266 C1296 0.950 . S
H1267 C1297 0.950 . S
C1268 H1250 0.951 . S
C1268 C1269 1.366 . S
C1268 C1270 1.388 . S
C1269 C1268 1.366 . S
C1269 C1273 1.385 . S
C1270 H1251 0.951 . S
C1270 C1268 1.388 . S
C1270 C1271 1.366 . S
C1271 C1270 1.366 . S
C1271 C1272 1.414 . S
C1271 C1274 1.499 . S
C1272 H1252 0.950 . S
C1272 C1271 1.414 . S
C1272 C1273 1.374 . S
C1273 H1253 0.950 . S
C1273 C1269 1.385 . S
C1273 C1272 1.374 . S
C1274 C1271 1.499 . S
C1274 C1275 1.373 . S
C1274 C1276 1.389 . S
C1275 H1254 0.950 . S
C1275 C1274 1.373 . S
C1275 C1291 1.377 . S
C1276 C1274 1.389 . S
C1276 C1277 1.524 . S
C1276 C1290 1.377 . S
C1277 C1276 1.524 . S
C1277 C1278 1.397 . S
C1277 C1282 1.363 . S
C1278 H1255 0.950 . S
C1278 C1277 1.397 . S
C1278 C1279 1.334 . S
C1279 H1256 0.950 . S
C1279 C1278 1.334 . S
C1279 C1280 1.287 . S
C1280 C1279 1.287 . S
C1280 C1281 1.524 . S
C1280 H1299 0.913 . S
C1281 H1257 0.950 . S
C1281 C1280 1.524 . S
C1281 C1282 1.415 . S
C1282 H1258 0.950 . S
C1282 C1277 1.363 . S
C1282 C1281 1.415 . S
C1283 H1259 0.951 . S
C1283 C1284 1.366 . S
C1283 C1285 1.388 . S
C1284 C1283 1.366 . S
C1284 C1288 1.385 . S
C1285 H1260 0.951 . S
C1285 C1283 1.388 . S
C1285 C1286 1.366 . S
C1286 C1285 1.366 . S
C1286 C1287 1.414 . S
C1286 C1289 1.499 . S
C1287 H1261 0.950 . S
C1287 C1286 1.414 . S
C1287 C1288 1.374 . S
C1288 H1262 0.950 . S
C1288 C1284 1.385 . S
C1288 C1287 1.374 . S
C1289 C1286 1.499 . S
C1289 C1290 1.373 . S
C1289 C1291 1.389 . S
C1290 H1263 0.950 . S
C1290 C1276 1.377 . S
C1290 C1289 1.373 . S
C1291 C1275 1.377 . S
C1291 C1289 1.389 . S
C1291 C1292 1.524 . S
C1292 C1291 1.524 . S
C1292 C1293 1.397 . S
C1292 C1297 1.363 . S
C1293 H1264 0.950 . S
C1293 C1292 1.397 . S
C1293 C1294 1.334 . S
C1294 H1265 0.950 . S
C1294 C1293 1.334 . S
C1294 C1295 1.287 . S
C1295 C1294 1.287 . S
C1295 C1296 1.524 . S
C1295 H1298 0.999 . S
C1296 H1266 0.950 . S
C1296 C1295 1.524 . S
C1296 C1297 1.415 . S
C1297 H1267 0.950 . S
C1297 C1292 1.363 . S
C1297 C1296 1.415 . S
H1298 C1295 0.999 . S
H1299 C1280 0.913 . S
H1300 C1318 0.951 . S
H1301 C1320 0.951 . S
H1302 C1322 0.950 . S
H1303 C1323 0.950 . S
H1304 C1325 0.950 . S
H1305 C1328 0.950 . S
H1306 C1329 0.950 . S
H1307 C1331 0.950 . S
H1308 C1332 0.950 . S
H1309 C1333 0.951 . S
H1310 C1335 0.951 . S
H1311 C1337 0.950 . S
H1312 C1338 0.950 1_554 S
H1313 C1340 0.950 . S
H1314 C1343 0.950 . S
H1315 C1344 0.950 . S
H1316 C1346 0.950 . S
H1317 C1347 0.950 . S
C1318 H1300 0.951 . S
C1318 C1319 1.366 . S
C1318 C1320 1.388 . S
C1319 C1318 1.366 . S
C1319 C1323 1.385 . S
C1320 H1301 0.951 . S
C1320 C1318 1.388 . S
C1320 C1321 1.366 . S
C1321 C1320 1.366 . S
C1321 C1322 1.414 . S
C1321 C1324 1.499 . S
C1322 H1302 0.950 . S
C1322 C1321 1.414 . S
C1322 C1323 1.374 . S
C1323 H1303 0.950 . S
C1323 C1319 1.385 . S
C1323 C1322 1.374 . S
C1324 C1321 1.499 . S
C1324 C1325 1.373 . S
C1324 C1326 1.389 . S
C1325 H1304 0.950 . S
C1325 C1324 1.373 . S
C1325 C1341 1.377 . S
C1326 C1324 1.389 . S
C1326 C1327 1.524 . S
C1326 C1340 1.377 . S
C1327 C1326 1.524 . S
C1327 C1328 1.397 . S
C1327 C1332 1.363 1_556 S
C1328 H1305 0.950 . S
C1328 C1327 1.397 . S
C1328 C1329 1.334 1_556 S
C1329 H1306 0.950 . S
C1329 C1328 1.334 1_554 S
C1329 C1330 1.287 . S
C1330 C1329 1.287 . S
C1330 C1331 1.524 . S
C1330 H1349 0.913 . S
C1331 H1307 0.950 . S
C1331 C1330 1.524 . S
C1331 C1332 1.415 . S
C1332 H1308 0.950 . S
C1332 C1327 1.363 1_554 S
C1332 C1331 1.415 . S
C1333 H1309 0.951 . S
C1333 C1334 1.366 . S
C1333 C1335 1.388 . S
C1334 C1333 1.366 . S
C1334 C1338 1.385 . S
C1335 H1310 0.951 . S
C1335 C1333 1.388 . S
C1335 C1336 1.366 . S
C1336 C1335 1.366 . S
C1336 C1337 1.414 . S
C1336 C1339 1.499 . S
C1337 H1311 0.950 . S
C1337 C1336 1.414 . S
C1337 C1338 1.374 . S
C1338 H1312 0.950 1_556 S
C1338 C1334 1.385 . S
C1338 C1337 1.374 . S
C1339 C1336 1.499 . S
C1339 C1340 1.373 . S
C1339 C1341 1.389 . S
C1340 H1313 0.950 . S
C1340 C1326 1.377 . S
C1340 C1339 1.373 . S
C1341 C1325 1.377 . S
C1341 C1339 1.389 . S
C1341 C1342 1.524 . S
C1342 C1341 1.524 . S
C1342 C1343 1.397 . S
C1342 C1347 1.363 . S
C1343 H1314 0.950 . S
C1343 C1342 1.397 . S
C1343 C1344 1.334 . S
C1344 H1315 0.950 . S
C1344 C1343 1.334 . S
C1344 C1345 1.287 . S
C1345 C1344 1.287 . S
C1345 C1346 1.524 . S
C1345 H1348 0.999 . S
C1346 H1316 0.950 . S
C1346 C1345 1.524 . S
C1346 C1347 1.415 . S
C1347 H1317 0.950 . S
C1347 C1342 1.363 . S
C1347 C1346 1.415 . S
H1348 C1345 0.999 . S
H1349 C1330 0.913 . S
H1350 C1368 0.951 . S
H1351 C1370 0.951 . S
H1352 C1372 0.950 . S
H1353 C1373 0.950 . S
H1354 C1375 0.950 . S
H1355 C1378 0.950 . S
H1356 C1379 0.937 1_556 S
H1357 C1381 0.950 . S
H1358 C1382 0.950 . S
H1359 C1383 0.951 . S
H1360 C1385 0.951 . S
H1361 C1387 0.950 . S
H1362 C1388 0.950 . S
H1363 C1390 0.950 . S
H1364 C1393 0.950 . S
H1365 C1394 0.950 . S
H1366 C1396 0.950 . S
H1367 C1397 0.950 . S
C1368 H1350 0.951 . S
C1368 C1369 1.366 . S
C1368 C1370 1.388 . S
C1369 C1368 1.366 . S
C1369 C1373 1.385 . S
C1370 H1351 0.951 . S
C1370 C1368 1.388 . S
C1370 C1371 1.366 . S
C1371 C1370 1.366 . S
C1371 C1372 1.414 . S
C1371 C1374 1.499 . S
C1372 H1352 0.950 . S
C1372 C1371 1.414 . S
C1372 C1373 1.374 . S
C1373 H1353 0.950 . S
C1373 C1369 1.385 . S
C1373 C1372 1.374 . S
C1374 C1371 1.499 . S
C1374 C1375 1.373 . S
C1374 C1376 1.389 . S
C1375 H1354 0.950 . S
C1375 C1374 1.373 . S
C1375 C1391 1.377 . S
C1376 C1374 1.389 . S
C1376 C1377 1.524 . S
C1376 C1390 1.377 . S
C1377 C1376 1.524 . S
C1377 C1378 1.397 . S
C1377 C1382 1.363 . S
C1378 H1355 0.950 . S
C1378 C1377 1.397 . S
C1378 C1379 1.334 . S
C1379 H1356 0.937 1_554 S
C1379 C1378 1.334 . S
C1379 C1380 1.287 1_554 S
C1380 C1379 1.287 1_556 S
C1380 C1381 1.524 . S
C1380 H1399 0.913 . S
C1381 H1357 0.950 . S
C1381 C1380 1.524 . S
C1381 C1382 1.415 1_556 S
C1382 H1358 0.950 . S
C1382 C1377 1.363 . S
C1382 C1381 1.415 1_554 S
C1383 H1359 0.951 . S
C1383 C1384 1.366 . S
C1383 C1385 1.388 . S
C1384 C1383 1.366 . S
C1384 C1388 1.385 . S
C1385 H1360 0.951 . S
C1385 C1383 1.388 . S
C1385 C1386 1.366 . S
C1386 C1385 1.366 . S
C1386 C1387 1.414 . S
C1386 C1389 1.499 . S
C1387 H1361 0.950 . S
C1387 C1386 1.414 . S
C1387 C1388 1.374 . S
C1388 H1362 0.950 . S
C1388 C1384 1.385 . S
C1388 C1387 1.374 . S
C1389 C1386 1.499 . S
C1389 C1390 1.373 . S
C1389 C1391 1.389 . S
C1390 H1363 0.950 . S
C1390 C1376 1.377 . S
C1390 C1389 1.373 . S
C1391 C1375 1.377 . S
C1391 C1389 1.389 . S
C1391 C1392 1.524 . S
C1392 C1391 1.524 . S
C1392 C1393 1.397 . S
C1392 C1397 1.363 . S
C1393 H1364 0.950 . S
C1393 C1392 1.397 . S
C1393 C1394 1.334 . S
C1394 H1365 0.950 . S
C1394 C1393 1.334 . S
C1394 C1395 1.287 . S
C1395 C1394 1.287 . S
C1395 C1396 1.524 . S
C1395 H1398 0.999 . S
C1396 H1366 0.950 . S
C1396 C1395 1.524 . S
C1396 C1397 1.415 . S
C1397 H1367 0.950 . S
C1397 C1392 1.363 . S
C1397 C1396 1.415 . S
H1398 C1395 0.999 . S
H1399 C1380 0.913 . S
H1400 C1418 0.951 . S
H1401 C1420 0.951 . S
H1402 C1422 0.950 . S
H1403 C1423 0.950 . S
H1404 C1425 0.950 . S
H1405 C1428 0.950 . S
H1406 C1429 0.950 . S
H1407 C1431 0.950 . S
H1408 C1432 0.950 . S
H1409 C1433 0.951 . S
H1410 C1435 0.951 . S
H1411 C1437 0.950 . S
H1412 C1438 0.950 . S
H1413 C1440 0.950 . S
H1414 C1443 0.950 . S
H1415 C1444 0.950 . S
H1416 C1446 0.950 . S
H1417 C1447 0.950 . S
C1418 H1400 0.951 . S
C1418 C1419 1.366 . S
C1418 C1420 1.388 . S
C1419 C1418 1.366 . S
C1419 C1423 1.385 . S
C1420 H1401 0.951 . S
C1420 C1418 1.388 . S
C1420 C1421 1.366 . S
C1421 C1420 1.366 . S
C1421 C1422 1.414 . S
C1421 C1424 1.499 . S
C1422 H1402 0.950 . S
C1422 C1421 1.414 . S
C1422 C1423 1.374 . S
C1423 H1403 0.950 . S
C1423 C1419 1.385 . S
C1423 C1422 1.374 . S
C1424 C1421 1.499 . S
C1424 C1425 1.373 . S
C1424 C1426 1.389 . S
C1425 H1404 0.950 . S
C1425 C1424 1.373 . S
C1425 C1441 1.377 . S
C1426 C1424 1.389 . S
C1426 C1427 1.524 . S
C1426 C1440 1.377 . S
C1427 C1426 1.524 . S
C1427 C1428 1.397 . S
C1427 C1432 1.363 . S
C1428 H1405 0.950 . S
C1428 C1427 1.397 . S
C1428 C1429 1.334 . S
C1429 H1406 0.950 . S
C1429 C1428 1.334 . S
C1429 C1430 1.287 . S
C1430 C1429 1.287 . S
C1430 C1431 1.524 . S
C1430 H1449 0.913 . S
C1431 H1407 0.950 . S
C1431 C1430 1.524 . S
C1431 C1432 1.415 . S
C1432 H1408 0.950 . S
C1432 C1427 1.363 . S
C1432 C1431 1.415 . S
C1433 H1409 0.951 . S
C1433 C1434 1.366 . S
C1433 C1435 1.388 . S
C1434 C1433 1.366 . S
C1434 C1438 1.385 . S
C1435 H1410 0.951 . S
C1435 C1433 1.388 . S
C1435 C1436 1.366 . S
C1436 C1435 1.366 . S
C1436 C1437 1.414 . S
C1436 C1439 1.499 . S
C1437 H1411 0.950 . S
C1437 C1436 1.414 . S
C1437 C1438 1.374 . S
C1438 H1412 0.950 . S
C1438 C1434 1.385 . S
C1438 C1437 1.374 . S
C1439 C1436 1.499 . S
C1439 C1440 1.373 . S
C1439 C1441 1.389 . S
C1440 H1413 0.950 . S
C1440 C1426 1.377 . S
C1440 C1439 1.373 . S
C1441 C1425 1.377 . S
C1441 C1439 1.389 . S
C1441 C1442 1.524 . S
C1442 C1441 1.524 . S
C1442 C1443 1.397 . S
C1442 C1447 1.363 . S
C1443 H1414 0.950 . S
C1443 C1442 1.397 . S
C1443 C1444 1.334 . S
C1444 H1415 0.950 . S
C1444 C1443 1.334 . S
C1444 C1445 1.287 . S
C1445 C1444 1.287 . S
C1445 C1446 1.524 . S
C1445 H1448 0.999 . S
C1446 H1416 0.950 . S
C1446 C1445 1.524 . S
C1446 C1447 1.415 . S
C1447 H1417 0.950 . S
C1447 C1442 1.363 . S
C1447 C1446 1.415 . S
H1448 C1445 0.999 . S
H1449 C1430 0.913 . S
H1450 C1468 0.951 . S
H1451 C1470 0.951 . S
H1452 C1472 0.950 . S
H1453 C1473 0.950 . S
H1454 C1475 0.950 . S
H1455 C1478 0.950 . S
H1456 C1479 0.950 . S
H1457 C1481 0.950 . S
H1458 C1482 0.950 . S
H1459 C1483 0.951 . S
H1460 C1485 0.951 . S
H1461 C1487 0.950 . S
H1462 C1488 0.950 . S
H1463 C1490 0.950 . S
H1464 C1493 0.950 . S
H1465 C1494 0.950 . S
H1466 C1496 0.950 . S
H1467 C1497 0.950 . S
C1468 H1450 0.951 . S
C1468 C1469 1.366 . S
C1468 C1470 1.388 . S
C1469 C1468 1.366 . S
C1469 C1473 1.385 . S
C1470 H1451 0.951 . S
C1470 C1468 1.388 . S
C1470 C1471 1.366 . S
C1471 C1470 1.366 . S
C1471 C1472 1.414 . S
C1471 C1474 1.499 . S
C1472 H1452 0.950 . S
C1472 C1471 1.414 . S
C1472 C1473 1.374 . S
C1473 H1453 0.950 . S
C1473 C1469 1.385 . S
C1473 C1472 1.374 . S
C1474 C1471 1.499 . S
C1474 C1475 1.373 . S
C1474 C1476 1.389 . S
C1475 H1454 0.950 . S
C1475 C1474 1.373 . S
C1475 C1491 1.377 . S
C1476 C1474 1.389 . S
C1476 C1477 1.524 . S
C1476 C1490 1.377 . S
C1477 C1476 1.524 . S
C1477 C1478 1.397 . S
C1477 C1482 1.363 . S
C1478 H1455 0.950 . S
C1478 C1477 1.397 . S
C1478 C1479 1.334 . S
C1479 H1456 0.950 . S
C1479 C1478 1.334 . S
C1479 C1480 1.287 . S
C1480 C1479 1.287 . S
C1480 C1481 1.524 . S
C1480 H1499 0.913 . S
C1481 H1457 0.950 . S
C1481 C1480 1.524 . S
C1481 C1482 1.415 . S
C1482 H1458 0.950 . S
C1482 C1477 1.363 . S
C1482 C1481 1.415 . S
C1483 H1459 0.951 . S
C1483 C1484 1.366 . S
C1483 C1485 1.388 . S
C1484 C1483 1.366 . S
C1484 C1488 1.385 . S
C1485 H1460 0.951 . S
C1485 C1483 1.388 . S
C1485 C1486 1.366 . S
C1486 C1485 1.366 . S
C1486 C1487 1.414 . S
C1486 C1489 1.499 . S
C1487 H1461 0.950 . S
C1487 C1486 1.414 . S
C1487 C1488 1.374 . S
C1488 H1462 0.950 . S
C1488 C1484 1.385 . S
C1488 C1487 1.374 . S
C1489 C1486 1.499 . S
C1489 C1490 1.373 . S
C1489 C1491 1.389 . S
C1490 H1463 0.950 . S
C1490 C1476 1.377 . S
C1490 C1489 1.373 . S
C1491 C1475 1.377 . S
C1491 C1489 1.389 . S
C1491 C1492 1.524 . S
C1492 C1491 1.524 . S
C1492 C1493 1.397 1_554 S
C1492 C1497 1.363 . S
C1493 H1464 0.950 . S
C1493 C1492 1.397 1_556 S
C1493 C1494 1.334 . S
C1494 H1465 0.950 . S
C1494 C1493 1.334 . S
C1494 C1495 1.287 . S
C1495 C1494 1.287 . S
C1495 C1496 1.524 1_556 S
C1495 H1498 0.999 . S
C1496 H1466 0.950 . S
C1496 C1495 1.524 1_554 S
C1496 C1497 1.415 . S
C1497 H1467 0.950 . S
C1497 C1492 1.363 . S
C1497 C1496 1.415 . S
H1498 C1495 0.999 . S
H1499 C1480 0.913 . S
H1500 C1518 0.951 . S
H1501 C1520 0.951 . S
H1502 C1522 0.951 . S
H1503 C1523 0.950 . S
H1504 C1525 0.950 . S
H1505 C1528 0.950 . S
H1506 C1529 0.950 . S
H1507 C1531 0.950 . S
H1508 C1532 0.950 . S
H1509 C1533 0.951 . S
H1510 C1535 0.951 . S
H1511 C1537 0.950 . S
H1512 C1538 0.950 . S
H1513 C1540 0.950 . S
H1514 C1543 0.950 . S
H1515 C1544 0.950 . S
H1516 C1546 0.950 . S
H1517 C1547 0.950 . S
C1518 H1500 0.951 . S
C1518 C1519 1.366 . S
C1518 C1520 1.388 . S
C1519 C1518 1.366 . S
C1519 C1523 1.385 . S
C1520 H1501 0.951 . S
C1520 C1518 1.388 . S
C1520 C1521 1.364 1_655 S
C1521 C1520 1.364 1_455 S
C1521 C1522 1.376 1_455 S
C1521 C1524 1.538 . S
C1522 H1502 0.951 . S
C1522 C1521 1.376 1_655 S
C1522 C1523 1.374 . S
C1523 H1503 0.950 . S
C1523 C1519 1.385 . S
C1523 C1522 1.374 . S
C1524 C1521 1.538 . S
C1524 C1525 1.373 . S
C1524 C1526 1.389 . S
C1525 H1504 0.950 . S
C1525 C1524 1.373 . S
C1525 C1541 1.377 . S
C1526 C1524 1.389 . S
C1526 C1527 1.524 . S
C1526 C1540 1.377 . S
C1527 C1526 1.524 . S
C1527 C1528 1.397 . S
C1527 C1532 1.363 . S
C1528 H1505 0.950 . S
C1528 C1527 1.397 . S
C1528 C1529 1.334 . S
C1529 H1506 0.950 . S
C1529 C1528 1.334 . S
C1529 C1530 1.287 . S
C1530 C1529 1.287 . S
C1530 C1531 1.524 . S
C1530 H1549 0.913 . S
C1531 H1507 0.950 . S
C1531 C1530 1.524 . S
C1531 C1532 1.415 . S
C1532 H1508 0.950 . S
C1532 C1527 1.363 . S
C1532 C1531 1.415 . S
C1533 H1509 0.951 . S
C1533 C1534 1.366 . S
C1533 C1535 1.388 . S
C1534 C1533 1.366 . S
C1534 C1538 1.385 . S
C1535 H1510 0.951 . S
C1535 C1533 1.388 . S
C1535 C1536 1.366 . S
C1536 C1535 1.366 . S
C1536 C1537 1.414 . S
C1536 C1539 1.499 . S
C1537 H1511 0.950 . S
C1537 C1536 1.414 . S
C1537 C1538 1.374 . S
C1538 H1512 0.950 . S
C1538 C1534 1.385 . S
C1538 C1537 1.374 . S
C1539 C1536 1.499 . S
C1539 C1540 1.373 . S
C1539 C1541 1.389 . S
C1540 H1513 0.950 . S
C1540 C1526 1.377 . S
C1540 C1539 1.373 . S
C1541 C1525 1.377 . S
C1541 C1539 1.389 . S
C1541 C1542 1.524 . S
C1542 C1541 1.524 . S
C1542 C1543 1.397 . S
C1542 C1547 1.363 . S
C1543 H1514 0.950 . S
C1543 C1542 1.397 . S
C1543 C1544 1.334 . S
C1544 H1515 0.950 . S
C1544 C1543 1.334 . S
C1544 C1545 1.287 . S
C1545 C1544 1.287 . S
C1545 C1546 1.524 . S
C1545 H1548 0.999 . S
C1546 H1516 0.950 . S
C1546 C1545 1.524 . S
C1546 C1547 1.415 . S
C1547 H1517 0.950 . S
C1547 C1542 1.363 . S
C1547 C1546 1.415 . S
H1548 C1545 0.999 . S
H1549 C1530 0.913 . S
H1550 C1568 0.951 . S
H1551 C1570 0.951 . S
H1552 C1572 0.950 . S
H1553 C1573 0.950 . S
H1554 C1575 0.950 . S
H1555 C1578 0.950 . S
H1556 C1579 0.950 . S
H1557 C1581 0.950 . S
H1558 C1582 0.950 . S
H1559 C1583 0.951 . S
H1560 C1585 0.951 . S
H1561 C1587 0.950 . S
H1562 C1588 0.950 . S
H1563 C1590 0.950 . S
H1564 C1593 0.950 . S
H1565 C1594 0.950 . S
H1566 C1596 0.950 . S
H1567 C1597 0.950 . S
C1568 H1550 0.951 . S
C1568 C1569 1.366 . S
C1568 C1570 1.388 . S
C1569 C1568 1.366 . S
C1569 C1573 1.385 . S
C1570 H1551 0.951 . S
C1570 C1568 1.388 . S
C1570 C1571 1.366 . S
C1571 C1570 1.366 . S
C1571 C1572 1.414 . S
C1571 C1574 1.499 . S
C1572 H1552 0.950 . S
C1572 C1571 1.414 . S
C1572 C1573 1.374 . S
C1573 H1553 0.950 . S
C1573 C1569 1.385 . S
C1573 C1572 1.374 . S
C1574 C1571 1.499 . S
C1574 C1575 1.373 . S
C1574 C1576 1.389 . S
C1575 H1554 0.950 . S
C1575 C1574 1.373 . S
C1575 C1591 1.377 . S
C1576 C1574 1.389 . S
C1576 C1577 1.524 . S
C1576 C1590 1.377 . S
C1577 C1576 1.524 . S
C1577 C1578 1.397 . S
C1577 C1582 1.363 . S
C1578 H1555 0.950 . S
C1578 C1577 1.397 . S
C1578 C1579 1.334 . S
C1579 H1556 0.950 . S
C1579 C1578 1.334 . S
C1579 C1580 1.287 . S
C1580 C1579 1.287 . S
C1580 C1581 1.524 . S
C1580 H1599 0.913 . S
C1581 H1557 0.950 . S
C1581 C1580 1.524 . S
C1581 C1582 1.415 . S
C1582 H1558 0.950 . S
C1582 C1577 1.363 . S
C1582 C1581 1.415 . S
C1583 H1559 0.951 . S
C1583 C1584 1.366 . S
C1583 C1585 1.388 . S
C1584 C1583 1.366 . S
C1584 C1588 1.385 . S
C1585 H1560 0.951 . S
C1585 C1583 1.388 . S
C1585 C1586 1.366 . S
C1586 C1585 1.366 . S
C1586 C1587 1.414 . S
C1586 C1589 1.499 . S
C1587 H1561 0.950 . S
C1587 C1586 1.414 . S
C1587 C1588 1.374 . S
C1588 H1562 0.950 . S
C1588 C1584 1.385 . S
C1588 C1587 1.374 . S
C1589 C1586 1.499 . S
C1589 C1590 1.373 . S
C1589 C1591 1.389 . S
C1590 H1563 0.950 . S
C1590 C1576 1.377 . S
C1590 C1589 1.373 . S
C1591 C1575 1.377 . S
C1591 C1589 1.389 . S
C1591 C1592 1.524 . S
C1592 C1591 1.524 . S
C1592 C1593 1.397 . S
C1592 C1597 1.363 . S
C1593 H1564 0.950 . S
C1593 C1592 1.397 . S
C1593 C1594 1.334 . S
C1594 H1565 0.950 . S
C1594 C1593 1.334 . S
C1594 C1595 1.287 . S
C1595 C1594 1.287 . S
C1595 C1596 1.524 . S
C1595 H1598 0.999 . S
C1596 H1566 0.950 . S
C1596 C1595 1.524 . S
C1596 C1597 1.415 . S
C1597 H1567 0.950 . S
C1597 C1592 1.363 . S
C1597 C1596 1.415 . S
H1598 C1595 0.999 . S
H1599 C1580 0.913 . S
H1600 C1618 0.951 . S
H1601 C1620 0.951 . S
H1602 C1622 0.970 . S
H1603 C1623 0.950 . S
H1604 C1625 0.950 . S
H1605 C1628 0.950 . S
H1606 C1629 0.950 . S
H1607 C1631 0.950 . S
H1608 C1632 0.950 . S
H1609 C1633 0.951 . S
H1610 C1635 0.951 . S
H1611 C1637 0.950 . S
H1612 C1638 0.950 . S
H1613 C1640 0.950 . S
H1614 C1643 0.950 . S
H1615 C1644 0.950 . S
H1616 C1646 0.950 . S
H1617 C1647 0.950 . S
C1618 H1600 0.951 . S
C1618 C1619 1.366 . S
C1618 C1620 1.388 . S
C1619 C1618 1.366 . S
C1619 C1623 1.385 . S
C1620 H1601 0.951 . S
C1620 C1618 1.388 . S
C1620 C1621 1.366 . S
C1621 C1620 1.366 . S
C1621 C1622 1.414 . S
C1621 C1624 1.499 1_545 S
C1622 H1602 0.970 . S
C1622 C1621 1.414 . S
C1622 C1623 1.374 . S
C1623 H1603 0.950 . S
C1623 C1619 1.385 . S
C1623 C1622 1.374 . S
C1624 C1621 1.499 1_565 S
C1624 C1625 1.373 . S
C1624 C1626 1.389 . S
C1625 H1604 0.950 . S
C1625 C1624 1.373 . S
C1625 C1641 1.377 . S
C1626 C1624 1.389 . S
C1626 C1627 1.524 . S
C1626 C1640 1.377 . S
C1627 C1626 1.524 . S
C1627 C1628 1.397 . S
C1627 C1632 1.363 . S
C1628 H1605 0.950 . S
C1628 C1627 1.397 . S
C1628 C1629 1.334 1_565 S
C1629 H1606 0.950 . S
C1629 C1628 1.334 1_545 S
C1629 C1630 1.287 . S
C1630 C1629 1.287 . S
C1630 C1631 1.524 1_545 S
C1630 H1649 0.913 . S
C1631 H1607 0.950 . S
C1631 C1630 1.524 1_565 S
C1631 C1632 1.415 . S
C1632 H1608 0.950 . S
C1632 C1627 1.363 . S
C1632 C1631 1.415 . S
C1633 H1609 0.951 . S
C1633 C1634 1.366 . S
C1633 C1635 1.388 . S
C1634 C1633 1.366 . S
C1634 C1638 1.385 . S
C1635 H1610 0.951 . S
C1635 C1633 1.388 . S
C1635 C1636 1.366 . S
C1636 C1635 1.366 . S
C1636 C1637 1.414 . S
C1636 C1639 1.499 . S
C1637 H1611 0.950 . S
C1637 C1636 1.414 . S
C1637 C1638 1.374 . S
C1638 H1612 0.950 . S
C1638 C1634 1.385 . S
C1638 C1637 1.374 . S
C1639 C1636 1.499 . S
C1639 C1640 1.373 . S
C1639 C1641 1.389 . S
C1640 H1613 0.950 . S
C1640 C1626 1.377 . S
C1640 C1639 1.373 . S
C1641 C1625 1.377 . S
C1641 C1639 1.389 . S
C1641 C1642 1.524 . S
C1642 C1641 1.524 . S
C1642 C1643 1.397 . S
C1642 C1647 1.363 . S
C1643 H1614 0.950 . S
C1643 C1642 1.397 . S
C1643 C1644 1.334 . S
C1644 H1615 0.950 . S
C1644 C1643 1.334 . S
C1644 C1645 1.287 . S
C1645 C1644 1.287 . S
C1645 C1646 1.524 . S
C1645 H1648 0.999 . S
C1646 H1616 0.950 . S
C1646 C1645 1.524 . S
C1646 C1647 1.415 . S
C1647 H1617 0.950 . S
C1647 C1642 1.363 . S
C1647 C1646 1.415 . S
H1648 C1645 0.999 . S
H1649 C1630 0.913 . S
H1650 C1668 0.951 . S
H1651 C1670 0.951 . S
H1652 C1672 0.950 . S
H1653 C1673 0.950 . S
H1654 C1675 0.950 . S
H1655 C1678 0.950 . S
H1656 C1679 0.950 . S
H1657 C1681 0.950 . S
H1658 C1682 0.950 . S
H1659 C1683 0.951 . S
H1660 C1685 0.951 . S
H1661 C1687 0.950 . S
H1662 C1688 0.950 . S
H1663 C1690 0.950 . S
H1664 C1693 0.950 . S
H1665 C1694 0.950 . S
H1666 C1696 0.950 . S
H1667 C1697 0.950 . S
C1668 H1650 0.951 . S
C1668 C1669 1.366 . S
C1668 C1670 1.388 . S
C1669 C1668 1.366 . S
C1669 C1673 1.385 . S
C1670 H1651 0.951 . S
C1670 C1668 1.388 . S
C1670 C1671 1.366 . S
C1671 C1670 1.366 . S
C1671 C1672 1.414 . S
C1671 C1674 1.499 . S
C1672 H1652 0.950 . S
C1672 C1671 1.414 . S
C1672 C1673 1.374 . S
C1673 H1653 0.950 . S
C1673 C1669 1.385 . S
C1673 C1672 1.374 . S
C1674 C1671 1.499 . S
C1674 C1675 1.373 . S
C1674 C1676 1.389 . S
C1675 H1654 0.950 . S
C1675 C1674 1.373 . S
C1675 C1691 1.377 . S
C1676 C1674 1.389 . S
C1676 C1677 1.524 . S
C1676 C1690 1.377 . S
C1677 C1676 1.524 . S
C1677 C1678 1.397 . S
C1677 C1682 1.363 . S
C1678 H1655 0.950 . S
C1678 C1677 1.397 . S
C1678 C1679 1.334 . S
C1679 H1656 0.950 . S
C1679 C1678 1.334 . S
C1679 C1680 1.287 . S
C1680 C1679 1.287 . S
C1680 C1681 1.524 . S
C1680 H1699 0.913 . S
C1681 H1657 0.950 . S
C1681 C1680 1.524 . S
C1681 C1682 1.415 . S
C1682 H1658 0.950 . S
C1682 C1677 1.363 . S
C1682 C1681 1.415 . S
C1683 H1659 0.951 . S
C1683 C1684 1.366 . S
C1683 C1685 1.388 . S
C1684 C1683 1.366 . S
C1684 C1688 1.385 . S
C1685 H1660 0.951 . S
C1685 C1683 1.388 . S
C1685 C1686 1.366 . S
C1686 C1685 1.366 . S
C1686 C1687 1.414 . S
C1686 C1689 1.499 . S
C1687 H1661 0.950 . S
C1687 C1686 1.414 . S
C1687 C1688 1.374 . S
C1688 H1662 0.950 . S
C1688 C1684 1.385 . S
C1688 C1687 1.374 . S
C1689 C1686 1.499 . S
C1689 C1690 1.373 . S
C1689 C1691 1.389 . S
C1690 H1663 0.950 . S
C1690 C1676 1.377 . S
C1690 C1689 1.373 . S
C1691 C1675 1.377 . S
C1691 C1689 1.389 . S
C1691 C1692 1.524 . S
C1692 C1691 1.524 . S
C1692 C1693 1.397 . S
C1692 C1697 1.363 . S
C1693 H1664 0.950 . S
C1693 C1692 1.397 . S
C1693 C1694 1.334 . S
C1694 H1665 0.950 . S
C1694 C1693 1.334 . S
C1694 C1695 1.287 . S
C1695 C1694 1.287 . S
C1695 C1696 1.524 . S
C1695 H1698 0.999 . S
C1696 H1666 0.950 . S
C1696 C1695 1.524 . S
C1696 C1697 1.415 . S
C1697 H1667 0.950 . S
C1697 C1692 1.363 . S
C1697 C1696 1.415 . S
H1698 C1695 0.999 . S
H1699 C1680 0.913 . S
H1700 C1718 0.951 . S
H1701 C1720 0.951 . S
H1702 C1722 0.950 . S
H1703 C1723 0.950 . S
H1704 C1725 0.950 . S
H1705 C1728 0.950 . S
H1706 C1729 0.950 . S
H1707 C1731 0.950 . S
H1708 C1732 0.950 . S
H1709 C1733 0.951 . S
H1710 C1735 0.951 . S
H1711 C1737 0.950 . S
H1712 C1738 0.950 . S
H1713 C1740 0.950 . S
H1714 C1743 0.950 . S
H1715 C1744 0.950 . S
H1716 C1746 0.950 . S
H1717 C1747 0.950 . S
C1718 H1700 0.951 . S
C1718 C1719 1.366 . S
C1718 C1720 1.388 . S
C1719 C1718 1.366 . S
C1719 C1723 1.385 . S
C1720 H1701 0.951 . S
C1720 C1718 1.388 . S
C1720 C1721 1.366 . S
C1721 C1720 1.366 . S
C1721 C1722 1.414 . S
C1721 C1724 1.499 . S
C1722 H1702 0.950 . S
C1722 C1721 1.414 . S
C1722 C1723 1.374 . S
C1723 H1703 0.950 . S
C1723 C1719 1.385 . S
C1723 C1722 1.374 . S
C1724 C1721 1.499 . S
C1724 C1725 1.373 . S
C1724 C1726 1.389 . S
C1725 H1704 0.950 . S
C1725 C1724 1.373 . S
C1725 C1741 1.377 . S
C1726 C1724 1.389 . S
C1726 C1727 1.524 . S
C1726 C1740 1.377 . S
C1727 C1726 1.524 . S
C1727 C1728 1.397 . S
C1727 C1732 1.363 . S
C1728 H1705 0.950 . S
C1728 C1727 1.397 . S
C1728 C1729 1.334 . S
C1729 H1706 0.950 . S
C1729 C1728 1.334 . S
C1729 C1730 1.287 . S
C1730 C1729 1.287 . S
C1730 C1731 1.524 . S
C1730 H1749 0.913 . S
C1731 H1707 0.950 . S
C1731 C1730 1.524 . S
C1731 C1732 1.415 . S
C1732 H1708 0.950 . S
C1732 C1727 1.363 . S
C1732 C1731 1.415 . S
C1733 H1709 0.951 . S
C1733 C1734 1.366 . S
C1733 C1735 1.388 . S
C1734 C1733 1.366 . S
C1734 C1738 1.385 . S
C1735 H1710 0.951 . S
C1735 C1733 1.388 . S
C1735 C1736 1.366 . S
C1736 C1735 1.366 . S
C1736 C1737 1.414 . S
C1736 C1739 1.499 . S
C1737 H1711 0.950 . S
C1737 C1736 1.414 . S
C1737 C1738 1.374 . S
C1738 H1712 0.950 . S
C1738 C1734 1.385 . S
C1738 C1737 1.374 . S
C1739 C1736 1.499 . S
C1739 C1740 1.373 . S
C1739 C1741 1.389 . S
C1740 H1713 0.950 . S
C1740 C1726 1.377 . S
C1740 C1739 1.373 . S
C1741 C1725 1.377 . S
C1741 C1739 1.389 . S
C1741 C1742 1.524 . S
C1742 C1741 1.524 . S
C1742 C1743 1.397 . S
C1742 C1747 1.363 . S
C1743 H1714 0.950 . S
C1743 C1742 1.397 . S
C1743 C1744 1.334 . S
C1744 H1715 0.950 . S
C1744 C1743 1.334 . S
C1744 C1745 1.287 . S
C1745 C1744 1.287 . S
C1745 C1746 1.524 . S
C1745 H1748 0.999 . S
C1746 H1716 0.950 . S
C1746 C1745 1.524 . S
C1746 C1747 1.415 . S
C1747 H1717 0.950 . S
C1747 C1742 1.363 . S
C1747 C1746 1.415 . S
H1748 C1745 0.999 . S
H1749 C1730 0.913 . S
H1750 C1768 0.951 . S
H1751 C1770 0.951 . S
H1752 C1772 0.950 . S
H1753 C1773 0.950 . S
H1754 C1775 0.950 . S
H1755 C1778 0.950 . S
H1756 C1779 0.950 . S
H1757 C1781 0.950 . S
H1758 C1782 0.950 . S
H1759 C1783 0.951 . S
H1760 C1785 0.951 . S
H1761 C1787 0.950 . S
H1762 C1788 0.950 . S
H1763 C1790 0.950 . S
H1764 C1793 0.950 . S
H1765 C1794 0.950 . S
H1766 C1796 0.950 . S
H1767 C1797 0.950 . S
C1768 H1750 0.951 . S
C1768 C1769 1.366 . S
C1768 C1770 1.388 . S
C1769 C1768 1.366 . S
C1769 C1773 1.385 . S
C1770 H1751 0.951 . S
C1770 C1768 1.388 . S
C1770 C1771 1.366 . S
C1771 C1770 1.366 . S
C1771 C1772 1.414 . S
C1771 C1774 1.499 . S
C1772 H1752 0.950 . S
C1772 C1771 1.414 . S
C1772 C1773 1.374 . S
C1773 H1753 0.950 . S
C1773 C1769 1.385 . S
C1773 C1772 1.374 . S
C1774 C1771 1.499 . S
C1774 C1775 1.373 . S
C1774 C1776 1.389 . S
C1775 H1754 0.950 . S
C1775 C1774 1.373 . S
C1775 C1791 1.377 . S
C1776 C1774 1.389 . S
C1776 C1777 1.524 . S
C1776 C1790 1.377 . S
C1777 C1776 1.524 . S
C1777 C1778 1.397 . S
C1777 C1782 1.363 . S
C1778 H1755 0.950 . S
C1778 C1777 1.397 . S
C1778 C1779 1.334 . S
C1779 H1756 0.950 . S
C1779 C1778 1.334 . S
C1779 C1780 1.287 . S
C1780 C1779 1.287 . S
C1780 C1781 1.524 . S
C1780 H1799 0.913 . S
C1781 H1757 0.950 . S
C1781 C1780 1.524 . S
C1781 C1782 1.415 . S
C1782 H1758 0.950 . S
C1782 C1777 1.363 . S
C1782 C1781 1.415 . S
C1783 H1759 0.951 . S
C1783 C1784 1.366 . S
C1783 C1785 1.388 . S
C1784 C1783 1.366 . S
C1784 C1788 1.385 . S
C1785 H1760 0.951 . S
C1785 C1783 1.388 . S
C1785 C1786 1.366 . S
C1786 C1785 1.366 . S
C1786 C1787 1.414 . S
C1786 C1789 1.499 . S
C1787 H1761 0.950 . S
C1787 C1786 1.414 . S
C1787 C1788 1.374 . S
C1788 H1762 0.950 . S
C1788 C1784 1.385 . S
C1788 C1787 1.374 . S
C1789 C1786 1.499 . S
C1789 C1790 1.373 . S
C1789 C1791 1.389 . S
C1790 H1763 0.950 . S
C1790 C1776 1.377 . S
C1790 C1789 1.373 . S
C1791 C1775 1.377 . S
C1791 C1789 1.389 . S
C1791 C1792 1.524 . S
C1792 C1791 1.524 . S
C1792 C1793 1.397 . S
C1792 C1797 1.363 . S
C1793 H1764 0.950 . S
C1793 C1792 1.397 . S
C1793 C1794 1.334 . S
C1794 H1765 0.950 . S
C1794 C1793 1.334 . S
C1794 C1795 1.287 . S
C1795 C1794 1.287 . S
C1795 C1796 1.524 . S
C1795 H1798 0.999 . S
C1796 H1766 0.950 . S
C1796 C1795 1.524 . S
C1796 C1797 1.415 . S
C1797 H1767 0.950 . S
C1797 C1792 1.363 . S
C1797 C1796 1.415 . S
H1798 C1795 0.999 . S
H1799 C1780 0.913 . S
H1800 C1818 0.951 . S
H1801 C1820 0.951 . S
H1802 C1822 0.950 . S
H1803 C1823 0.950 . S
H1804 C1825 0.950 . S
H1805 C1828 0.950 . S
H1806 C1829 0.950 . S
H1807 C1831 0.950 . S
H1808 C1832 0.950 . S
H1809 C1833 0.951 . S
H1810 C1835 0.951 . S
H1811 C1837 0.950 . S
H1812 C1838 0.950 . S
H1813 C1840 0.950 . S
H1814 C1843 0.950 . S
H1815 C1844 0.950 . S
H1816 C1846 0.950 . S
H1817 C1847 0.950 . S
C1818 H1800 0.951 . S
C1818 C1819 1.366 . S
C1818 C1820 1.388 . S
C1819 C1818 1.366 . S
C1819 C1823 1.385 . S
C1820 H1801 0.951 . S
C1820 C1818 1.388 . S
C1820 C1821 1.366 . S
C1821 C1820 1.366 . S
C1821 C1822 1.414 . S
C1821 C1824 1.499 . S
C1822 H1802 0.950 . S
C1822 C1821 1.414 . S
C1822 C1823 1.374 . S
C1823 H1803 0.950 . S
C1823 C1819 1.385 . S
C1823 C1822 1.374 . S
C1824 C1821 1.499 . S
C1824 C1825 1.373 . S
C1824 C1826 1.389 . S
C1825 H1804 0.950 . S
C1825 C1824 1.373 . S
C1825 C1841 1.377 . S
C1826 C1824 1.389 . S
C1826 C1827 1.524 . S
C1826 C1840 1.377 . S
C1827 C1826 1.524 . S
C1827 C1828 1.397 . S
C1827 C1832 1.363 . S
C1828 H1805 0.950 . S
C1828 C1827 1.397 . S
C1828 C1829 1.334 . S
C1829 H1806 0.950 . S
C1829 C1828 1.334 . S
C1829 C1830 1.287 . S
C1830 C1829 1.287 . S
C1830 C1831 1.524 . S
C1830 H1849 0.913 . S
C1831 H1807 0.950 . S
C1831 C1830 1.524 . S
C1831 C1832 1.415 . S
C1832 H1808 0.950 . S
C1832 C1827 1.363 . S
C1832 C1831 1.415 . S
C1833 H1809 0.951 . S
C1833 C1834 1.366 . S
C1833 C1835 1.388 . S
C1834 C1833 1.366 . S
C1834 C1838 1.385 . S
C1835 H1810 0.951 . S
C1835 C1833 1.388 . S
C1835 C1836 1.366 . S
C1836 C1835 1.366 . S
C1836 C1837 1.414 . S
C1836 C1839 1.499 . S
C1837 H1811 0.950 . S
C1837 C1836 1.414 . S
C1837 C1838 1.374 . S
C1838 H1812 0.950 . S
C1838 C1834 1.385 . S
C1838 C1837 1.374 . S
C1839 C1836 1.499 . S
C1839 C1840 1.373 . S
C1839 C1841 1.389 . S
C1840 H1813 0.950 . S
C1840 C1826 1.377 . S
C1840 C1839 1.373 . S
C1841 C1825 1.377 . S
C1841 C1839 1.389 . S
C1841 C1842 1.524 . S
C1842 C1841 1.524 . S
C1842 C1843 1.397 . S
C1842 C1847 1.363 . S
C1843 H1814 0.950 . S
C1843 C1842 1.397 . S
C1843 C1844 1.334 . S
C1844 H1815 0.950 . S
C1844 C1843 1.334 . S
C1844 C1845 1.287 . S
C1845 C1844 1.287 . S
C1845 C1846 1.524 . S
C1845 H1848 0.999 . S
C1846 H1816 0.950 . S
C1846 C1845 1.524 . S
C1846 C1847 1.415 . S
C1847 H1817 0.950 . S
C1847 C1842 1.363 . S
C1847 C1846 1.415 . S
H1848 C1845 0.999 . S
H1849 C1830 0.913 . S
H1850 C1868 0.951 . S
H1851 C1870 0.951 . S
H1852 C1872 0.950 . S
H1853 C1873 0.950 . S
H1854 C1875 0.950 . S
H1855 C1878 0.950 . S
H1856 C1879 0.950 . S
H1857 C1881 0.950 . S
H1858 C1882 0.950 . S
H1859 C1883 0.951 . S
H1860 C1885 0.951 . S
H1861 C1887 0.950 . S
H1862 C1888 0.950 . S
H1863 C1890 0.950 . S
H1864 C1893 0.950 . S
H1865 C1894 0.950 . S
H1866 C1896 0.950 . S
H1867 C1897 0.950 . S
C1868 H1850 0.951 . S
C1868 C1869 1.366 . S
C1868 C1870 1.388 . S
C1869 C1868 1.366 . S
C1869 C1873 1.385 . S
C1870 H1851 0.951 . S
C1870 C1868 1.388 . S
C1870 C1871 1.366 . S
C1871 C1870 1.366 . S
C1871 C1872 1.414 . S
C1871 C1874 1.499 . S
C1872 H1852 0.950 . S
C1872 C1871 1.414 . S
C1872 C1873 1.374 . S
C1873 H1853 0.950 . S
C1873 C1869 1.385 . S
C1873 C1872 1.374 . S
C1874 C1871 1.499 . S
C1874 C1875 1.373 . S
C1874 C1876 1.389 . S
C1875 H1854 0.950 . S
C1875 C1874 1.373 . S
C1875 C1891 1.377 . S
C1876 C1874 1.389 . S
C1876 C1877 1.524 . S
C1876 C1890 1.377 . S
C1877 C1876 1.524 . S
C1877 C1878 1.397 . S
C1877 C1882 1.363 . S
C1878 H1855 0.950 . S
C1878 C1877 1.397 . S
C1878 C1879 1.334 . S
C1879 H1856 0.950 . S
C1879 C1878 1.334 . S
C1879 C1880 1.287 . S
C1880 C1879 1.287 . S
C1880 C1881 1.524 . S
C1880 H1899 0.913 . S
C1881 H1857 0.950 . S
C1881 C1880 1.524 . S
C1881 C1882 1.415 . S
C1882 H1858 0.950 . S
C1882 C1877 1.363 . S
C1882 C1881 1.415 . S
C1883 H1859 0.951 . S
C1883 C1884 1.366 . S
C1883 C1885 1.388 . S
C1884 C1883 1.366 . S
C1884 C1888 1.385 . S
C1885 H1860 0.951 . S
C1885 C1883 1.388 . S
C1885 C1886 1.366 . S
C1886 C1885 1.366 . S
C1886 C1887 1.414 . S
C1886 C1889 1.499 . S
C1887 H1861 0.950 . S
C1887 C1886 1.414 . S
C1887 C1888 1.374 . S
C1888 H1862 0.950 . S
C1888 C1884 1.385 . S
C1888 C1887 1.374 . S
C1889 C1886 1.499 . S
C1889 C1890 1.373 . S
C1889 C1891 1.389 . S
C1890 H1863 0.950 . S
C1890 C1876 1.377 . S
C1890 C1889 1.373 . S
C1891 C1875 1.377 . S
C1891 C1889 1.389 . S
C1891 C1892 1.524 . S
C1892 C1891 1.524 . S
C1892 C1893 1.397 . S
C1892 C1897 1.363 . S
C1893 H1864 0.950 . S
C1893 C1892 1.397 . S
C1893 C1894 1.334 . S
C1894 H1865 0.950 . S
C1894 C1893 1.334 . S
C1894 C1895 1.287 . S
C1895 C1894 1.287 . S
C1895 C1896 1.524 . S
C1895 H1898 0.999 . S
C1896 H1866 0.950 . S
C1896 C1895 1.524 . S
C1896 C1897 1.415 . S
C1897 H1867 0.950 . S
C1897 C1892 1.363 . S
C1897 C1896 1.415 . S
H1898 C1895 0.999 . S
H1899 C1880 0.913 . S
H1900 C1918 0.951 . S
H1901 C1920 0.951 . S
H1902 C1922 0.950 . S
H1903 C1923 0.950 . S
H1904 C1925 0.950 . S
H1905 C1928 0.950 . S
H1906 C1929 0.950 . S
H1907 C1931 0.950 . S
H1908 C1932 0.950 . S
H1909 C1933 0.951 . S
H1910 C1935 0.951 . S
H1911 C1937 0.950 . S
H1912 C1938 0.950 . S
H1913 C1940 0.950 . S
H1914 C1943 0.950 . S
H1915 C1944 0.950 . S
H1916 C1946 0.950 . S
H1917 C1947 0.950 . S
C1918 H1900 0.951 . S
C1918 C1919 1.366 . S
C1918 C1920 1.388 . S
C1919 C1918 1.366 . S
C1919 C1923 1.385 . S
C1920 H1901 0.951 . S
C1920 C1918 1.388 . S
C1920 C1921 1.366 . S
C1921 C1920 1.366 . S
C1921 C1922 1.414 . S
C1921 C1924 1.499 . S
C1922 H1902 0.950 . S
C1922 C1921 1.414 . S
C1922 C1923 1.374 . S
C1923 H1903 0.950 . S
C1923 C1919 1.385 . S
C1923 C1922 1.374 . S
C1924 C1921 1.499 . S
C1924 C1925 1.373 . S
C1924 C1926 1.389 . S
C1925 H1904 0.950 . S
C1925 C1924 1.373 . S
C1925 C1941 1.377 . S
C1926 C1924 1.389 . S
C1926 C1927 1.524 . S
C1926 C1940 1.377 . S
C1927 C1926 1.524 . S
C1927 C1928 1.397 . S
C1927 C1932 1.363 . S
C1928 H1905 0.950 . S
C1928 C1927 1.397 . S
C1928 C1929 1.334 . S
C1929 H1906 0.950 . S
C1929 C1928 1.334 . S
C1929 C1930 1.287 . S
C1930 C1929 1.287 . S
C1930 C1931 1.524 . S
C1930 H1949 0.913 . S
C1931 H1907 0.950 . S
C1931 C1930 1.524 . S
C1931 C1932 1.415 . S
C1932 H1908 0.950 . S
C1932 C1927 1.363 . S
C1932 C1931 1.415 . S
C1933 H1909 0.951 . S
C1933 C1934 1.366 . S
C1933 C1935 1.388 . S
C1934 C1933 1.366 . S
C1934 C1938 1.385 . S
C1935 H1910 0.951 . S
C1935 C1933 1.388 . S
C1935 C1936 1.366 . S
C1936 C1935 1.366 . S
C1936 C1937 1.414 . S
C1936 C1939 1.499 . S
C1937 H1911 0.950 . S
C1937 C1936 1.414 . S
C1937 C1938 1.374 . S
C1938 H1912 0.950 . S
C1938 C1934 1.385 . S
C1938 C1937 1.374 . S
C1939 C1936 1.499 . S
C1939 C1940 1.373 . S
C1939 C1941 1.389 . S
C1940 H1913 0.950 . S
C1940 C1926 1.377 . S
C1940 C1939 1.373 . S
C1941 C1925 1.377 . S
C1941 C1939 1.389 . S
C1941 C1942 1.524 . S
C1942 C1941 1.524 . S
C1942 C1943 1.397 . S
C1942 C1947 1.363 . S
C1943 H1914 0.950 . S
C1943 C1942 1.397 . S
C1943 C1944 1.334 . S
C1944 H1915 0.950 . S
C1944 C1943 1.334 . S
C1944 C1945 1.287 . S
C1945 C1944 1.287 . S
C1945 C1946 1.524 . S
C1945 H1948 0.999 . S
C1946 H1916 0.950 . S
C1946 C1945 1.524 . S
C1946 C1947 1.415 . S
C1947 H1917 0.950 . S
C1947 C1942 1.363 . S
C1947 C1946 1.415 . S
H1948 C1945 0.999 . S
H1949 C1930 0.913 . S
H1950 C1968 0.951 . S
H1951 C1970 0.951 . S
H1952 C1972 0.950 1_565 S
H1953 C1973 0.950 . S
H1954 C1975 0.950 . S
H1955 C1978 0.950 . S
H1956 C1979 0.950 . S
H1957 C1981 0.950 . S
H1958 C1982 0.950 . S
H1959 C1983 0.951 . S
H1960 C1985 0.951 . S
H1961 C1987 0.950 . S
H1962 C1988 0.950 . S
H1963 C1990 0.950 . S
H1964 C1993 0.950 . S
H1965 C1994 0.950 . S
H1966 C1996 0.950 . S
H1967 C1997 0.950 . S
C1968 H1950 0.951 . S
C1968 C1969 1.366 . S
C1968 C1970 1.388 . S
C1969 C1968 1.366 . S
C1969 C1973 1.385 . S
C1970 H1951 0.951 . S
C1970 C1968 1.388 . S
C1970 C1971 1.366 1_545 S
C1971 C1970 1.366 1_565 S
C1971 C1972 1.414 1_565 S
C1971 C1974 1.499 . S
C1972 H1952 0.950 1_545 S
C1972 C1971 1.414 1_545 S
C1972 C1973 1.374 . S
C1973 H1953 0.950 . S
C1973 C1969 1.385 . S
C1973 C1972 1.374 . S
C1974 C1971 1.499 . S
C1974 C1975 1.373 . S
C1974 C1976 1.389 . S
C1975 H1954 0.950 . S
C1975 C1974 1.373 . S
C1975 C1991 1.377 . S
C1976 C1974 1.389 . S
C1976 C1977 1.524 . S
C1976 C1990 1.377 . S
C1977 C1976 1.524 . S
C1977 C1978 1.397 . S
C1977 C1982 1.363 . S
C1978 H1955 0.950 . S
C1978 C1977 1.397 . S
C1978 C1979 1.334 . S
C1979 H1956 0.950 . S
C1979 C1978 1.334 . S
C1979 C1980 1.287 . S
C1980 C1979 1.287 . S
C1980 C1981 1.524 . S
C1980 H1999 0.913 . S
C1981 H1957 0.950 . S
C1981 C1980 1.524 . S
C1981 C1982 1.415 . S
C1982 H1958 0.950 . S
C1982 C1977 1.363 . S
C1982 C1981 1.415 . S
C1983 H1959 0.951 . S
C1983 C1984 1.366 . S
C1983 C1985 1.388 . S
C1984 C1983 1.366 . S
C1984 C1988 1.385 . S
C1985 H1960 0.951 . S
C1985 C1983 1.388 . S
C1985 C1986 1.366 . S
C1986 C1985 1.366 . S
C1986 C1987 1.414 . S
C1986 C1989 1.499 . S
C1987 H1961 0.950 . S
C1987 C1986 1.414 . S
C1987 C1988 1.374 . S
C1988 H1962 0.950 . S
C1988 C1984 1.385 . S
C1988 C1987 1.374 . S
C1989 C1986 1.499 . S
C1989 C1990 1.373 . S
C1989 C1991 1.389 . S
C1990 H1963 0.950 . S
C1990 C1976 1.377 . S
C1990 C1989 1.373 . S
C1991 C1975 1.377 . S
C1991 C1989 1.389 . S
C1991 C1992 1.524 . S
C1992 C1991 1.524 . S
C1992 C1993 1.397 . S
C1992 C1997 1.363 . S
C1993 H1964 0.950 . S
C1993 C1992 1.397 . S
C1993 C1994 1.334 . S
C1994 H1965 0.950 . S
C1994 C1993 1.334 . S
C1994 C1995 1.287 . S
C1995 C1994 1.287 . S
C1995 C1996 1.524 . S
C1995 H1998 0.999 . S
C1996 H1966 0.950 . S
C1996 C1995 1.524 . S
C1996 C1997 1.415 . S
C1997 H1967 0.950 . S
C1997 C1992 1.363 . S
C1997 C1996 1.415 . S
H1998 C1995 0.999 . S
H1999 C1980 0.913 . S
H2000 C2018 0.951 . S
H2001 C2020 0.951 . S
H2002 C2022 0.950 . S
H2003 C2023 0.950 . S
H2004 C2025 0.950 . S
H2005 C2028 0.950 . S
H2006 C2029 0.950 . S
H2007 C2031 0.950 . S
H2008 C2032 0.950 . S
H2009 C2033 0.951 . S
H2010 C2035 0.951 . S
H2011 C2037 0.950 . S
H2012 C2038 0.950 . S
H2013 C2040 0.950 . S
H2014 C2043 0.950 . S
H2015 C2044 0.950 . S
H2016 C2046 0.950 . S
H2017 C2047 0.950 . S
C2018 H2000 0.951 . S
C2018 C2019 1.366 . S
C2018 C2020 1.388 . S
C2019 C2018 1.366 . S
C2019 C2023 1.385 . S
C2020 H2001 0.951 . S
C2020 C2018 1.388 . S
C2020 C2021 1.366 1_655 S
C2021 C2020 1.366 1_455 S
C2021 C2022 1.414 . S
C2021 C2024 1.499 . S
C2022 H2002 0.950 . S
C2022 C2021 1.414 . S
C2022 C2023 1.374 1_455 S
C2023 H2003 0.950 . S
C2023 C2019 1.385 . S
C2023 C2022 1.374 1_655 S
C2024 C2021 1.499 . S
C2024 C2025 1.373 . S
C2024 C2026 1.389 . S
C2025 H2004 0.950 . S
C2025 C2024 1.373 . S
C2025 C2041 1.377 . S
C2026 C2024 1.389 . S
C2026 C2027 1.524 . S
C2026 C2040 1.377 . S
C2027 C2026 1.524 . S
C2027 C2028 1.397 . S
C2027 C2032 1.363 . S
C2028 H2005 0.950 . S
C2028 C2027 1.397 . S
C2028 C2029 1.334 . S
C2029 H2006 0.950 . S
C2029 C2028 1.334 . S
C2029 C2030 1.287 . S
C2030 C2029 1.287 . S
C2030 C2031 1.524 . S
C2030 H2049 0.913 1_455 S
C2031 H2007 0.950 . S
C2031 C2030 1.524 . S
C2031 C2032 1.415 . S
C2032 H2008 0.950 . S
C2032 C2027 1.363 . S
C2032 C2031 1.415 . S
C2033 H2009 0.951 . S
C2033 C2034 1.366 . S
C2033 C2035 1.388 . S
C2034 C2033 1.366 . S
C2034 C2038 1.385 . S
C2035 H2010 0.951 . S
C2035 C2033 1.388 . S
C2035 C2036 1.366 . S
C2036 C2035 1.366 . S
C2036 C2037 1.414 . S
C2036 C2039 1.499 . S
C2037 H2011 0.950 . S
C2037 C2036 1.414 . S
C2037 C2038 1.374 . S
C2038 H2012 0.950 . S
C2038 C2034 1.385 . S
C2038 C2037 1.374 . S
C2039 C2036 1.499 . S
C2039 C2040 1.373 . S
C2039 C2041 1.389 . S
C2040 H2013 0.950 . S
C2040 C2026 1.377 . S
C2040 C2039 1.373 . S
C2041 C2025 1.377 . S
C2041 C2039 1.389 . S
C2041 C2042 1.524 . S
C2042 C2041 1.524 . S
C2042 C2043 1.397 . S
C2042 C2047 1.363 . S
C2043 H2014 0.950 . S
C2043 C2042 1.397 . S
C2043 C2044 1.334 . S
C2044 H2015 0.950 . S
C2044 C2043 1.334 . S
C2044 C2045 1.287 . S
C2045 C2044 1.287 . S
C2045 C2046 1.524 . S
C2045 H2048 0.999 . S
C2046 H2016 0.950 . S
C2046 C2045 1.524 . S
C2046 C2047 1.415 . S
C2047 H2017 0.950 . S
C2047 C2042 1.363 . S
C2047 C2046 1.415 . S
H2048 C2045 0.999 . S
H2049 C2030 0.913 1_655 S
H2050 C2068 0.951 . S
H2051 C2070 0.951 . S
H2052 C2072 0.950 . S
H2053 C2073 0.950 . S
H2054 C2075 0.950 . S
H2055 C2078 0.950 . S
H2056 C2079 0.950 . S
H2057 C2081 0.950 . S
H2058 C2082 0.950 . S
H2059 C2083 0.951 . S
H2060 C2085 0.951 . S
H2061 C2087 0.950 . S
H2062 C2088 0.950 . S
H2063 C2090 0.950 . S
H2064 C2093 0.950 . S
H2065 C2094 0.950 . S
H2066 C2096 0.950 . S
H2067 C2097 0.950 . S
C2068 H2050 0.951 . S
C2068 C2069 1.366 . S
C2068 C2070 1.388 . S
C2069 C2068 1.366 . S
C2069 C2073 1.385 . S
C2070 H2051 0.951 . S
C2070 C2068 1.388 . S
C2070 C2071 1.366 . S
C2071 C2070 1.366 . S
C2071 C2072 1.414 . S
C2071 C2074 1.499 . S
C2072 H2052 0.950 . S
C2072 C2071 1.414 . S
C2072 C2073 1.374 . S
C2073 H2053 0.950 . S
C2073 C2069 1.385 . S
C2073 C2072 1.374 . S
C2074 C2071 1.499 . S
C2074 C2075 1.373 . S
C2074 C2076 1.389 . S
C2075 H2054 0.950 . S
C2075 C2074 1.373 . S
C2075 C2091 1.377 . S
C2076 C2074 1.389 . S
C2076 C2077 1.524 . S
C2076 C2090 1.377 . S
C2077 C2076 1.524 . S
C2077 C2078 1.397 . S
C2077 C2082 1.363 . S
C2078 H2055 0.950 . S
C2078 C2077 1.397 . S
C2078 C2079 1.334 . S
C2079 H2056 0.950 . S
C2079 C2078 1.334 . S
C2079 C2080 1.287 . S
C2080 C2079 1.287 . S
C2080 C2081 1.524 . S
C2080 H2099 0.913 . S
C2081 H2057 0.950 . S
C2081 C2080 1.524 . S
C2081 C2082 1.415 . S
C2082 H2058 0.950 . S
C2082 C2077 1.363 . S
C2082 C2081 1.415 . S
C2083 H2059 0.951 . S
C2083 C2084 1.366 . S
C2083 C2085 1.388 . S
C2084 C2083 1.366 . S
C2084 C2088 1.385 . S
C2085 H2060 0.951 . S
C2085 C2083 1.388 . S
C2085 C2086 1.366 . S
C2086 C2085 1.366 . S
C2086 C2087 1.414 . S
C2086 C2089 1.499 . S
C2087 H2061 0.950 . S
C2087 C2086 1.414 . S
C2087 C2088 1.374 . S
C2088 H2062 0.950 . S
C2088 C2084 1.385 . S
C2088 C2087 1.374 . S
C2089 C2086 1.499 . S
C2089 C2090 1.373 . S
C2089 C2091 1.389 . S
C2090 H2063 0.950 . S
C2090 C2076 1.377 . S
C2090 C2089 1.373 . S
C2091 C2075 1.377 . S
C2091 C2089 1.389 . S
C2091 C2092 1.524 . S
C2092 C2091 1.524 . S
C2092 C2093 1.397 . S
C2092 C2097 1.363 . S
C2093 H2064 0.950 . S
C2093 C2092 1.397 . S
C2093 C2094 1.334 . S
C2094 H2065 0.950 . S
C2094 C2093 1.334 . S
C2094 C2095 1.287 . S
C2095 C2094 1.287 . S
C2095 C2096 1.524 . S
C2095 H2098 0.999 . S
C2096 H2066 0.950 . S
C2096 C2095 1.524 . S
C2096 C2097 1.415 . S
C2097 H2067 0.950 . S
C2097 C2092 1.363 . S
C2097 C2096 1.415 . S
H2098 C2095 0.999 . S
H2099 C2080 0.913 . S
H2100 C2118 0.951 . S
H2101 C2120 0.951 . S
H2102 C2122 0.950 . S
H2103 C2123 0.950 . S
H2104 C2125 0.950 . S
H2105 C2128 0.950 . S
H2106 C2129 0.950 . S
H2107 C2131 0.950 . S
H2108 C2132 0.950 . S
H2109 C2133 0.951 . S
H2110 C2135 0.951 . S
H2111 C2137 0.950 . S
H2112 C2138 0.950 . S
H2113 C2140 0.950 . S
H2114 C2143 0.950 . S
H2115 C2144 0.950 . S
H2116 C2146 0.950 . S
H2117 C2147 0.950 . S
C2118 H2100 0.951 . S
C2118 C2119 1.366 . S
C2118 C2120 1.388 . S
C2119 C2118 1.366 . S
C2119 C2123 1.385 . S
C2120 H2101 0.951 . S
C2120 C2118 1.388 . S
C2120 C2121 1.366 . S
C2121 C2120 1.366 . S
C2121 C2122 1.414 . S
C2121 C2124 1.499 . S
C2122 H2102 0.950 . S
C2122 C2121 1.414 . S
C2122 C2123 1.374 . S
C2123 H2103 0.950 . S
C2123 C2119 1.385 . S
C2123 C2122 1.374 . S
C2124 C2121 1.499 . S
C2124 C2125 1.373 . S
C2124 C2126 1.389 . S
C2125 H2104 0.950 . S
C2125 C2124 1.373 . S
C2125 C2141 1.377 . S
C2126 C2124 1.389 . S
C2126 C2127 1.524 . S
C2126 C2140 1.377 . S
C2127 C2126 1.524 . S
C2127 C2128 1.397 . S
C2127 C2132 1.363 . S
C2128 H2105 0.950 . S
C2128 C2127 1.397 . S
C2128 C2129 1.334 . S
C2129 H2106 0.950 . S
C2129 C2128 1.334 . S
C2129 C2130 1.287 . S
C2130 C2129 1.287 . S
C2130 C2131 1.524 . S
C2130 H2149 0.913 . S
C2131 H2107 0.950 . S
C2131 C2130 1.524 . S
C2131 C2132 1.415 . S
C2132 H2108 0.950 . S
C2132 C2127 1.363 . S
C2132 C2131 1.415 . S
C2133 H2109 0.951 . S
C2133 C2134 1.366 . S
C2133 C2135 1.388 . S
C2134 C2133 1.366 . S
C2134 C2138 1.385 . S
C2135 H2110 0.951 . S
C2135 C2133 1.388 . S
C2135 C2136 1.366 . S
C2136 C2135 1.366 . S
C2136 C2137 1.414 . S
C2136 C2139 1.499 . S
C2137 H2111 0.950 . S
C2137 C2136 1.414 . S
C2137 C2138 1.374 . S
C2138 H2112 0.950 . S
C2138 C2134 1.385 . S
C2138 C2137 1.374 . S
C2139 C2136 1.499 . S
C2139 C2140 1.373 . S
C2139 C2141 1.389 . S
C2140 H2113 0.950 . S
C2140 C2126 1.377 . S
C2140 C2139 1.373 . S
C2141 C2125 1.377 . S
C2141 C2139 1.389 . S
C2141 C2142 1.524 . S
C2142 C2141 1.524 . S
C2142 C2143 1.397 . S
C2142 C2147 1.363 . S
C2143 H2114 0.950 . S
C2143 C2142 1.397 . S
C2143 C2144 1.334 . S
C2144 H2115 0.950 . S
C2144 C2143 1.334 . S
C2144 C2145 1.287 . S
C2145 C2144 1.287 . S
C2145 C2146 1.524 . S
C2145 H2148 0.999 . S
C2146 H2116 0.950 . S
C2146 C2145 1.524 . S
C2146 C2147 1.415 . S
C2147 H2117 0.950 . S
C2147 C2142 1.363 . S
C2147 C2146 1.415 . S
H2148 C2145 0.999 . S
H2149 C2130 0.913 . S
H2150 C2168 0.951 . S
H2151 C2170 0.951 . S
H2152 C2172 0.950 . S
H2153 C2173 0.950 . S
H2154 C2175 0.950 . S
H2155 C2178 0.950 . S
H2156 C2179 0.950 . S
H2157 C2181 0.950 . S
H2158 C2182 0.950 . S
H2159 C2183 0.951 . S
H2160 C2185 0.951 . S
H2161 C2187 0.950 . S
H2162 C2188 0.950 . S
H2163 C2190 0.950 . S
H2164 C2193 0.950 . S
H2165 C2194 0.950 . S
H2166 C2196 0.950 . S
H2167 C2197 0.950 . S
C2168 H2150 0.951 . S
C2168 C2169 1.366 . S
C2168 C2170 1.388 . S
C2169 C2168 1.366 . S
C2169 C2173 1.385 . S
C2170 H2151 0.951 . S
C2170 C2168 1.388 . S
C2170 C2171 1.366 . S
C2171 C2170 1.366 . S
C2171 C2172 1.414 . S
C2171 C2174 1.499 . S
C2172 H2152 0.950 . S
C2172 C2171 1.414 . S
C2172 C2173 1.374 . S
C2173 H2153 0.950 . S
C2173 C2169 1.385 . S
C2173 C2172 1.374 . S
C2174 C2171 1.499 . S
C2174 C2175 1.373 . S
C2174 C2176 1.389 . S
C2175 H2154 0.950 . S
C2175 C2174 1.373 . S
C2175 C2191 1.377 . S
C2176 C2174 1.389 . S
C2176 C2177 1.524 . S
C2176 C2190 1.377 . S
C2177 C2176 1.524 . S
C2177 C2178 1.397 . S
C2177 C2182 1.363 . S
C2178 H2155 0.950 . S
C2178 C2177 1.397 . S
C2178 C2179 1.334 . S
C2179 H2156 0.950 . S
C2179 C2178 1.334 . S
C2179 C2180 1.287 . S
C2180 C2179 1.287 . S
C2180 C2181 1.524 . S
C2180 H2199 0.913 . S
C2181 H2157 0.950 . S
C2181 C2180 1.524 . S
C2181 C2182 1.415 . S
C2182 H2158 0.950 . S
C2182 C2177 1.363 . S
C2182 C2181 1.415 . S
C2183 H2159 0.951 . S
C2183 C2184 1.366 . S
C2183 C2185 1.388 . S
C2184 C2183 1.366 . S
C2184 C2188 1.385 . S
C2185 H2160 0.951 . S
C2185 C2183 1.388 . S
C2185 C2186 1.366 . S
C2186 C2185 1.366 . S
C2186 C2187 1.414 . S
C2186 C2189 1.499 . S
C2187 H2161 0.950 . S
C2187 C2186 1.414 . S
C2187 C2188 1.374 . S
C2188 H2162 0.950 . S
C2188 C2184 1.385 . S
C2188 C2187 1.374 . S
C2189 C2186 1.499 . S
C2189 C2190 1.373 . S
C2189 C2191 1.389 . S
C2190 H2163 0.950 . S
C2190 C2176 1.377 . S
C2190 C2189 1.373 . S
C2191 C2175 1.377 . S
C2191 C2189 1.389 . S
C2191 C2192 1.524 . S
C2192 C2191 1.524 . S
C2192 C2193 1.397 . S
C2192 C2197 1.363 . S
C2193 H2164 0.950 . S
C2193 C2192 1.397 . S
C2193 C2194 1.334 . S
C2194 H2165 0.950 . S
C2194 C2193 1.334 . S
C2194 C2195 1.287 . S
C2195 C2194 1.287 . S
C2195 C2196 1.524 . S
C2195 H2198 0.999 . S
C2196 H2166 0.950 . S
C2196 C2195 1.524 . S
C2196 C2197 1.415 . S
C2197 H2167 0.950 . S
C2197 C2192 1.363 . S
C2197 C2196 1.415 . S
H2198 C2195 0.999 . S
H2199 C2180 0.913 . S
H2200 C2218 0.951 . S
H2201 C2220 0.951 . S
H2202 C2222 0.950 . S
H2203 C2223 0.950 . S
H2204 C2225 0.950 . S
H2205 C2228 0.950 . S
H2206 C2229 0.950 . S
H2207 C2231 0.950 . S
H2208 C2232 0.950 . S
H2209 C2233 0.951 . S
H2210 C2235 0.951 . S
H2211 C2237 0.950 . S
H2212 C2238 0.950 . S
H2213 C2240 0.950 . S
H2214 C2243 0.950 . S
H2215 C2244 0.950 . S
H2216 C2246 0.950 . S
H2217 C2247 0.950 . S
C2218 H2200 0.951 . S
C2218 C2219 1.366 . S
C2218 C2220 1.388 . S
C2219 C2218 1.366 . S
C2219 C2223 1.385 . S
C2220 H2201 0.951 . S
C2220 C2218 1.388 . S
C2220 C2221 1.366 . S
C2221 C2220 1.366 . S
C2221 C2222 1.414 . S
C2221 C2224 1.499 . S
C2222 H2202 0.950 . S
C2222 C2221 1.414 . S
C2222 C2223 1.374 . S
C2223 H2203 0.950 . S
C2223 C2219 1.385 . S
C2223 C2222 1.374 . S
C2224 C2221 1.499 . S
C2224 C2225 1.373 . S
C2224 C2226 1.389 . S
C2225 H2204 0.950 . S
C2225 C2224 1.373 . S
C2225 C2241 1.377 . S
C2226 C2224 1.389 . S
C2226 C2227 1.524 . S
C2226 C2240 1.377 . S
C2227 C2226 1.524 . S
C2227 C2228 1.397 . S
C2227 C2232 1.363 . S
C2228 H2205 0.950 . S
C2228 C2227 1.397 . S
C2228 C2229 1.334 . S
C2229 H2206 0.950 . S
C2229 C2228 1.334 . S
C2229 C2230 1.287 . S
C2230 C2229 1.287 . S
C2230 C2231 1.524 . S
C2230 H2249 0.913 . S
C2231 H2207 0.950 . S
C2231 C2230 1.524 . S
C2231 C2232 1.415 . S
C2232 H2208 0.950 . S
C2232 C2227 1.363 . S
C2232 C2231 1.415 . S
C2233 H2209 0.951 . S
C2233 C2234 1.366 . S
C2233 C2235 1.388 . S
C2234 C2233 1.366 . S
C2234 C2238 1.385 . S
C2235 H2210 0.951 . S
C2235 C2233 1.388 . S
C2235 C2236 1.366 . S
C2236 C2235 1.366 . S
C2236 C2237 1.414 . S
C2236 C2239 1.499 . S
C2237 H2211 0.950 . S
C2237 C2236 1.414 . S
C2237 C2238 1.374 . S
C2238 H2212 0.950 . S
C2238 C2234 1.385 . S
C2238 C2237 1.374 . S
C2239 C2236 1.499 . S
C2239 C2240 1.373 . S
C2239 C2241 1.389 . S
C2240 H2213 0.950 . S
C2240 C2226 1.377 . S
C2240 C2239 1.373 . S
C2241 C2225 1.377 . S
C2241 C2239 1.389 . S
C2241 C2242 1.524 . S
C2242 C2241 1.524 . S
C2242 C2243 1.397 . S
C2242 C2247 1.363 . S
C2243 H2214 0.950 . S
C2243 C2242 1.397 . S
C2243 C2244 1.334 . S
C2244 H2215 0.950 . S
C2244 C2243 1.334 . S
C2244 C2245 1.287 . S
C2245 C2244 1.287 . S
C2245 C2246 1.524 . S
C2245 H2248 0.999 . S
C2246 H2216 0.950 . S
C2246 C2245 1.524 . S
C2246 C2247 1.415 . S
C2247 H2217 0.950 . S
C2247 C2242 1.363 . S
C2247 C2246 1.415 . S
H2248 C2245 0.999 . S
H2249 C2230 0.913 . S
H2250 C2268 0.951 . S
H2251 C2270 0.951 . S
H2252 C2272 0.950 1_545 S
H2253 C2273 0.950 . S
H2254 C2275 0.950 . S
H2255 C2278 0.950 . S
H2256 C2279 0.950 . S
H2257 C2281 0.950 . S
H2258 C2282 0.950 . S
H2259 C2283 0.951 . S
H2260 C2285 0.951 . S
H2261 C2287 0.950 . S
H2262 C2288 0.950 . S
H2263 C2290 0.950 . S
H2264 C2293 0.950 . S
H2265 C2294 0.950 . S
H2266 C2296 0.950 . S
H2267 C2297 0.950 . S
C2268 H2250 0.951 . S
C2268 C2269 1.366 . S
C2268 C2270 1.388 . S
C2269 C2268 1.366 . S
C2269 C2273 1.385 . S
C2270 H2251 0.951 . S
C2270 C2268 1.388 . S
C2270 C2271 1.366 1_565 S
C2271 C2270 1.366 1_545 S
C2271 C2272 1.414 1_545 S
C2271 C2274 1.499 . S
C2272 H2252 0.950 1_565 S
C2272 C2271 1.414 1_565 S
C2272 C2273 1.374 . S
C2273 H2253 0.950 . S
C2273 C2269 1.385 . S
C2273 C2272 1.374 . S
C2274 C2271 1.499 . S
C2274 C2275 1.373 . S
C2274 C2276 1.389 . S
C2275 H2254 0.950 . S
C2275 C2274 1.373 . S
C2275 C2291 1.377 . S
C2276 C2274 1.389 . S
C2276 C2277 1.524 . S
C2276 C2290 1.377 . S
C2277 C2276 1.524 . S
C2277 C2278 1.397 . S
C2277 C2282 1.363 . S
C2278 H2255 0.950 . S
C2278 C2277 1.397 . S
C2278 C2279 1.334 1_545 S
C2279 H2256 0.950 . S
C2279 C2278 1.334 1_565 S
C2279 C2280 1.287 . S
C2280 C2279 1.287 . S
C2280 C2281 1.524 1_565 S
C2280 H2299 0.913 . S
C2281 H2257 0.950 . S
C2281 C2280 1.524 1_545 S
C2281 C2282 1.415 . S
C2282 H2258 0.950 . S
C2282 C2277 1.363 . S
C2282 C2281 1.415 . S
C2283 H2259 0.951 . S
C2283 C2284 1.366 . S
C2283 C2285 1.388 . S
C2284 C2283 1.366 . S
C2284 C2288 1.385 . S
C2285 H2260 0.951 . S
C2285 C2283 1.388 . S
C2285 C2286 1.366 . S
C2286 C2285 1.366 . S
C2286 C2287 1.414 . S
C2286 C2289 1.499 . S
C2287 H2261 0.950 . S
C2287 C2286 1.414 . S
C2287 C2288 1.374 . S
C2288 H2262 0.950 . S
C2288 C2284 1.385 . S
C2288 C2287 1.374 . S
C2289 C2286 1.499 . S
C2289 C2290 1.373 . S
C2289 C2291 1.389 . S
C2290 H2263 0.950 . S
C2290 C2276 1.377 . S
C2290 C2289 1.373 . S
C2291 C2275 1.377 . S
C2291 C2289 1.389 . S
C2291 C2292 1.524 . S
C2292 C2291 1.524 . S
C2292 C2293 1.397 . S
C2292 C2297 1.363 . S
C2293 H2264 0.950 . S
C2293 C2292 1.397 . S
C2293 C2294 1.334 . S
C2294 H2265 0.950 . S
C2294 C2293 1.334 . S
C2294 C2295 1.287 . S
C2295 C2294 1.287 . S
C2295 C2296 1.524 . S
C2295 H2298 0.999 . S
C2296 H2266 0.950 . S
C2296 C2295 1.524 . S
C2296 C2297 1.415 . S
C2297 H2267 0.950 . S
C2297 C2292 1.363 . S
C2297 C2296 1.415 . S
H2298 C2295 0.999 . S
H2299 C2280 0.913 . S
H2300 C2318 0.951 . S
H2301 C2320 0.949 1_655 S
H2302 C2322 0.950 . S
H2303 C2323 0.950 . S
H2304 C2325 0.950 . S
H2305 C2328 0.950 . S
H2306 C2329 0.950 . S
H2307 C2331 0.950 . S
H2308 C2332 0.950 . S
H2309 C2333 0.951 . S
H2310 C2335 0.951 . S
H2311 C2337 0.950 . S
H2312 C2338 0.950 . S
H2313 C2340 0.950 . S
H2314 C2343 0.950 . S
H2315 C2344 0.950 . S
H2316 C2346 0.950 . S
H2317 C2347 0.950 . S
C2318 H2300 0.951 . S
C2318 C2319 1.366 . S
C2318 C2320 1.389 . S
C2319 C2318 1.366 . S
C2319 C2323 1.385 . S
C2320 H2301 0.949 1_455 S
C2320 C2318 1.389 . S
C2320 C2321 1.366 1_455 S
C2321 C2320 1.366 1_655 S
C2321 C2322 1.414 1_655 S
C2321 C2324 1.499 . S
C2322 H2302 0.950 . S
C2322 C2321 1.414 1_455 S
C2322 C2323 1.374 . S
C2323 H2303 0.950 . S
C2323 C2319 1.385 . S
C2323 C2322 1.374 . S
C2324 C2321 1.499 . S
C2324 C2325 1.373 . S
C2324 C2326 1.389 . S
C2325 H2304 0.950 . S
C2325 C2324 1.373 . S
C2325 C2341 1.377 . S
C2326 C2324 1.389 . S
C2326 C2327 1.524 . S
C2326 C2340 1.377 . S
C2327 C2326 1.524 . S
C2327 C2328 1.397 1_655 S
C2327 C2332 1.363 . S
C2328 H2305 0.950 . S
C2328 C2327 1.397 1_455 S
C2328 C2329 1.334 . S
C2329 H2306 0.950 . S
C2329 C2328 1.334 . S
C2329 C2330 1.287 . S
C2330 C2329 1.287 . S
C2330 C2331 1.524 1_455 S
C2330 H2349 0.913 . S
C2331 H2307 0.950 . S
C2331 C2330 1.524 1_655 S
C2331 C2332 1.415 . S
C2332 H2308 0.950 . S
C2332 C2327 1.363 . S
C2332 C2331 1.415 . S
C2333 H2309 0.951 . S
C2333 C2334 1.366 . S
C2333 C2335 1.388 . S
C2334 C2333 1.366 . S
C2334 C2338 1.385 . S
C2335 H2310 0.951 . S
C2335 C2333 1.388 . S
C2335 C2336 1.366 . S
C2336 C2335 1.366 . S
C2336 C2337 1.414 . S
C2336 C2339 1.499 . S
C2337 H2311 0.950 . S
C2337 C2336 1.414 . S
C2337 C2338 1.374 . S
C2338 H2312 0.950 . S
C2338 C2334 1.385 . S
C2338 C2337 1.374 . S
C2339 C2336 1.499 . S
C2339 C2340 1.373 . S
C2339 C2341 1.389 . S
C2340 H2313 0.950 . S
C2340 C2326 1.377 . S
C2340 C2339 1.373 . S
C2341 C2325 1.377 . S
C2341 C2339 1.389 . S
C2341 C2342 1.524 . S
C2342 C2341 1.524 . S
C2342 C2343 1.397 . S
C2342 C2347 1.363 . S
C2343 H2314 0.950 . S
C2343 C2342 1.397 . S
C2343 C2344 1.334 . S
C2344 H2315 0.950 . S
C2344 C2343 1.334 . S
C2344 C2345 1.287 . S
C2345 C2344 1.287 . S
C2345 C2346 1.524 . S
C2345 H2348 0.999 . S
C2346 H2316 0.950 . S
C2346 C2345 1.524 . S
C2346 C2347 1.415 . S
C2347 H2317 0.950 . S
C2347 C2342 1.363 . S
C2347 C2346 1.415 . S
H2348 C2345 0.999 . S
H2349 C2330 0.913 . S
H2350 C2368 0.951 . S
H2351 C2370 0.951 . S
H2352 C2372 0.950 . S
H2353 C2373 0.950 . S
H2354 C2375 0.950 . S
H2355 C2378 0.950 . S
H2356 C2379 0.950 . S
H2357 C2381 0.950 . S
H2358 C2382 0.950 . S
H2359 C2383 0.951 . S
H2360 C2385 0.951 . S
H2361 C2387 0.950 . S
H2362 C2388 0.950 . S
H2363 C2390 0.950 . S
H2364 C2393 0.950 . S
H2365 C2394 0.950 . S
H2366 C2396 0.950 . S
H2367 C2397 0.950 . S
C2368 H2350 0.951 . S
C2368 C2369 1.366 . S
C2368 C2370 1.388 . S
C2369 C2368 1.366 . S
C2369 C2373 1.385 . S
C2370 H2351 0.951 . S
C2370 C2368 1.388 . S
C2370 C2371 1.366 . S
C2371 C2370 1.366 . S
C2371 C2372 1.414 . S
C2371 C2374 1.499 . S
C2372 H2352 0.950 . S
C2372 C2371 1.414 . S
C2372 C2373 1.374 . S
C2373 H2353 0.950 . S
C2373 C2369 1.385 . S
C2373 C2372 1.374 . S
C2374 C2371 1.499 . S
C2374 C2375 1.373 . S
C2374 C2376 1.389 . S
C2375 H2354 0.950 . S
C2375 C2374 1.373 . S
C2375 C2391 1.377 . S
C2376 C2374 1.389 . S
C2376 C2377 1.524 . S
C2376 C2390 1.377 . S
C2377 C2376 1.524 . S
C2377 C2378 1.397 . S
C2377 C2382 1.363 . S
C2378 H2355 0.950 . S
C2378 C2377 1.397 . S
C2378 C2379 1.334 . S
C2379 H2356 0.950 . S
C2379 C2378 1.334 . S
C2379 C2380 1.287 . S
C2380 C2379 1.287 . S
C2380 C2381 1.524 . S
C2380 H2399 0.913 . S
C2381 H2357 0.950 . S
C2381 C2380 1.524 . S
C2381 C2382 1.415 . S
C2382 H2358 0.950 . S
C2382 C2377 1.363 . S
C2382 C2381 1.415 . S
C2383 H2359 0.951 . S
C2383 C2384 1.366 . S
C2383 C2385 1.388 . S
C2384 C2383 1.366 . S
C2384 C2388 1.385 . S
C2385 H2360 0.951 . S
C2385 C2383 1.388 . S
C2385 C2386 1.366 . S
C2386 C2385 1.366 . S
C2386 C2387 1.414 . S
C2386 C2389 1.499 . S
C2387 H2361 0.950 . S
C2387 C2386 1.414 . S
C2387 C2388 1.374 . S
C2388 H2362 0.950 . S
C2388 C2384 1.385 . S
C2388 C2387 1.374 . S
C2389 C2386 1.499 . S
C2389 C2390 1.373 . S
C2389 C2391 1.389 . S
C2390 H2363 0.950 . S
C2390 C2376 1.377 . S
C2390 C2389 1.373 . S
C2391 C2375 1.377 . S
C2391 C2389 1.389 . S
C2391 C2392 1.524 . S
C2392 C2391 1.524 . S
C2392 C2393 1.397 . S
C2392 C2397 1.363 . S
C2393 H2364 0.950 . S
C2393 C2392 1.397 . S
C2393 C2394 1.334 . S
C2394 H2365 0.950 . S
C2394 C2393 1.334 . S
C2394 C2395 1.287 . S
C2395 C2394 1.287 . S
C2395 C2396 1.524 . S
C2395 H2398 0.999 . S
C2396 H2366 0.950 . S
C2396 C2395 1.524 . S
C2396 C2397 1.415 . S
C2397 H2367 0.950 . S
C2397 C2392 1.363 . S
C2397 C2396 1.415 . S
H2398 C2395 0.999 . S
H2399 C2380 0.913 . S
H2400 C2418 0.951 . S
H2401 C2420 0.951 . S
H2402 C2422 0.950 1_655 S
H2403 C2423 0.950 . S
H2404 C2425 0.950 . S
H2405 C2428 0.950 . S
H2406 C2429 0.950 . S
H2407 C2431 0.950 . S
H2408 C2432 0.950 . S
H2409 C2433 0.951 . S
H2410 C2435 0.951 . S
H2411 C2437 0.950 . S
H2412 C2438 0.950 . S
H2413 C2440 0.950 . S
H2414 C2443 0.950 . S
H2415 C2444 0.950 . S
H2416 C2446 0.950 . S
H2417 C2447 0.950 . S
C2418 H2400 0.951 . S
C2418 C2419 1.366 . S
C2418 C2420 1.388 . S
C2419 C2418 1.366 . S
C2419 C2423 1.385 . S
C2420 H2401 0.951 . S
C2420 C2418 1.388 . S
C2420 C2421 1.366 . S
C2421 C2420 1.366 . S
C2421 C2422 1.414 . S
C2421 C2424 1.499 1_455 S
C2422 H2402 0.950 1_455 S
C2422 C2421 1.414 . S
C2422 C2423 1.374 . S
C2423 H2403 0.950 . S
C2423 C2419 1.385 . S
C2423 C2422 1.374 . S
C2424 C2421 1.499 1_655 S
C2424 C2425 1.373 . S
C2424 C2426 1.389 . S
C2425 H2404 0.950 . S
C2425 C2424 1.373 . S
C2425 C2441 1.377 . S
C2426 C2424 1.389 . S
C2426 C2427 1.524 . S
C2426 C2440 1.377 . S
C2427 C2426 1.524 . S
C2427 C2428 1.397 . S
C2427 C2432 1.363 . S
C2428 H2405 0.950 . S
C2428 C2427 1.397 . S
C2428 C2429 1.334 . S
C2429 H2406 0.950 . S
C2429 C2428 1.334 . S
C2429 C2430 1.287 . S
C2430 C2429 1.287 . S
C2430 C2431 1.524 . S
C2430 H2449 0.913 . S
C2431 H2407 0.950 . S
C2431 C2430 1.524 . S
C2431 C2432 1.415 . S
C2432 H2408 0.950 . S
C2432 C2427 1.363 . S
C2432 C2431 1.415 . S
C2433 H2409 0.951 . S
C2433 C2434 1.366 . S
C2433 C2435 1.388 . S
C2434 C2433 1.366 . S
C2434 C2438 1.385 . S
C2435 H2410 0.951 . S
C2435 C2433 1.388 . S
C2435 C2436 1.366 . S
C2436 C2435 1.366 . S
C2436 C2437 1.414 . S
C2436 C2439 1.499 . S
C2437 H2411 0.950 . S
C2437 C2436 1.414 . S
C2437 C2438 1.374 . S
C2438 H2412 0.950 . S
C2438 C2434 1.385 . S
C2438 C2437 1.374 . S
C2439 C2436 1.499 . S
C2439 C2440 1.373 . S
C2439 C2441 1.389 . S
C2440 H2413 0.950 . S
C2440 C2426 1.377 . S
C2440 C2439 1.373 . S
C2441 C2425 1.377 . S
C2441 C2439 1.389 . S
C2441 C2442 1.524 . S
C2442 C2441 1.524 . S
C2442 C2443 1.397 . S
C2442 C2447 1.363 . S
C2443 H2414 0.950 . S
C2443 C2442 1.397 . S
C2443 C2444 1.334 . S
C2444 H2415 0.950 . S
C2444 C2443 1.334 . S
C2444 C2445 1.287 . S
C2445 C2444 1.287 . S
C2445 C2446 1.524 . S
C2445 H2448 0.999 . S
C2446 H2416 0.950 . S
C2446 C2445 1.524 . S
C2446 C2447 1.415 . S
C2447 H2417 0.950 . S
C2447 C2442 1.363 . S
C2447 C2446 1.415 . S
H2448 C2445 0.999 . S
H2449 C2430 0.913 . S
H2450 C2468 0.951 . S
H2451 C2470 0.951 . S
H2452 C2472 0.950 . S
H2453 C2473 0.950 . S
H2454 C2475 0.950 . S
H2455 C2478 0.950 . S
H2456 C2479 0.950 . S
H2457 C2481 0.950 . S
H2458 C2482 0.950 . S
H2459 C2483 0.951 . S
H2460 C2485 0.951 . S
H2461 C2487 0.950 . S
H2462 C2488 0.950 . S
H2463 C2490 0.950 . S
H2464 C2493 0.950 . S
H2465 C2494 0.950 . S
H2466 C2496 0.950 . S
H2467 C2497 0.950 . S
C2468 H2450 0.951 . S
C2468 C2469 1.366 . S
C2468 C2470 1.388 . S
C2469 C2468 1.366 . S
C2469 C2473 1.385 . S
C2470 H2451 0.951 . S
C2470 C2468 1.388 . S
C2470 C2471 1.366 . S
C2471 C2470 1.366 . S
C2471 C2472 1.414 . S
C2471 C2474 1.499 . S
C2472 H2452 0.950 . S
C2472 C2471 1.414 . S
C2472 C2473 1.374 . S
C2473 H2453 0.950 . S
C2473 C2469 1.385 . S
C2473 C2472 1.374 . S
C2474 C2471 1.499 . S
C2474 C2475 1.373 . S
C2474 C2476 1.389 . S
C2475 H2454 0.950 . S
C2475 C2474 1.373 . S
C2475 C2491 1.377 . S
C2476 C2474 1.389 . S
C2476 C2477 1.524 . S
C2476 C2490 1.377 . S
C2477 C2476 1.524 . S
C2477 C2478 1.397 . S
C2477 C2482 1.363 . S
C2478 H2455 0.950 . S
C2478 C2477 1.397 . S
C2478 C2479 1.334 . S
C2479 H2456 0.950 . S
C2479 C2478 1.334 . S
C2479 C2480 1.287 . S
C2480 C2479 1.287 . S
C2480 C2481 1.524 . S
C2480 H2499 0.913 . S
C2481 H2457 0.950 . S
C2481 C2480 1.524 . S
C2481 C2482 1.415 . S
C2482 H2458 0.950 . S
C2482 C2477 1.363 . S
C2482 C2481 1.415 . S
C2483 H2459 0.951 . S
C2483 C2484 1.366 . S
C2483 C2485 1.388 . S
C2484 C2483 1.366 . S
C2484 C2488 1.385 . S
C2485 H2460 0.951 . S
C2485 C2483 1.388 . S
C2485 C2486 1.366 . S
C2486 C2485 1.366 . S
C2486 C2487 1.414 . S
C2486 C2489 1.499 . S
C2487 H2461 0.950 . S
C2487 C2486 1.414 . S
C2487 C2488 1.374 . S
C2488 H2462 0.950 . S
C2488 C2484 1.385 . S
C2488 C2487 1.374 . S
C2489 C2486 1.499 . S
C2489 C2490 1.373 . S
C2489 C2491 1.389 . S
C2490 H2463 0.950 . S
C2490 C2476 1.377 . S
C2490 C2489 1.373 . S
C2491 C2475 1.377 . S
C2491 C2489 1.389 . S
C2491 C2492 1.524 . S
C2492 C2491 1.524 . S
C2492 C2493 1.397 . S
C2492 C2497 1.363 . S
C2493 H2464 0.950 . S
C2493 C2492 1.397 . S
C2493 C2494 1.334 . S
C2494 H2465 0.950 . S
C2494 C2493 1.334 . S
C2494 C2495 1.287 . S
C2495 C2494 1.287 . S
C2495 C2496 1.524 . S
C2495 H2498 0.999 . S
C2496 H2466 0.950 . S
C2496 C2495 1.524 . S
C2496 C2497 1.415 . S
C2497 H2467 0.950 . S
C2497 C2492 1.363 . S
C2497 C2496 1.415 . S
H2498 C2495 0.999 . S
H2499 C2480 0.913 . S
H2500 C2518 0.951 . S
H2501 C2520 0.951 . S
H2502 C2522 0.967 . S
H2503 C2523 0.950 . S
H2504 C2525 0.950 . S
H2505 C2528 0.950 . S
H2506 C2529 0.950 . S
H2507 C2531 0.950 . S
H2508 C2532 0.950 . S
H2509 C2533 0.951 . S
H2510 C2535 0.951 . S
H2511 C2537 0.950 . S
H2512 C2538 0.950 . S
H2513 C2540 0.950 . S
H2514 C2543 0.950 . S
H2515 C2544 0.950 . S
H2516 C2546 0.950 . S
H2517 C2547 0.950 . S
C2518 H2500 0.951 . S
C2518 C2519 1.366 . S
C2518 C2520 1.388 . S
C2519 C2518 1.366 . S
C2519 C2523 1.385 . S
C2520 H2501 0.951 . S
C2520 C2518 1.388 . S
C2520 C2521 1.366 . S
C2521 C2520 1.366 . S
C2521 C2522 1.414 . S
C2521 C2524 1.499 1_565 S
C2522 H2502 0.967 . S
C2522 C2521 1.414 . S
C2522 C2523 1.374 . S
C2523 H2503 0.950 . S
C2523 C2519 1.385 . S
C2523 C2522 1.374 . S
C2524 C2521 1.499 1_545 S
C2524 C2525 1.373 . S
C2524 C2526 1.389 . S
C2525 H2504 0.950 . S
C2525 C2524 1.373 . S
C2525 C2541 1.377 . S
C2526 C2524 1.389 . S
C2526 C2527 1.524 . S
C2526 C2540 1.377 . S
C2527 C2526 1.524 . S
C2527 C2528 1.397 . S
C2527 C2532 1.363 . S
C2528 H2505 0.950 . S
C2528 C2527 1.397 . S
C2528 C2529 1.334 1_545 S
C2529 H2506 0.950 . S
C2529 C2528 1.334 1_565 S
C2529 C2530 1.287 . S
C2530 C2529 1.287 . S
C2530 C2531 1.524 1_565 S
C2530 H2549 0.913 . S
C2531 H2507 0.950 . S
C2531 C2530 1.524 1_545 S
C2531 C2532 1.415 . S
C2532 H2508 0.950 . S
C2532 C2527 1.363 . S
C2532 C2531 1.415 . S
C2533 H2509 0.951 . S
C2533 C2534 1.366 . S
C2533 C2535 1.388 . S
C2534 C2533 1.366 . S
C2534 C2538 1.385 . S
C2535 H2510 0.951 . S
C2535 C2533 1.388 . S
C2535 C2536 1.366 . S
C2536 C2535 1.366 . S
C2536 C2537 1.414 . S
C2536 C2539 1.499 . S
C2537 H2511 0.950 . S
C2537 C2536 1.414 . S
C2537 C2538 1.374 . S
C2538 H2512 0.950 . S
C2538 C2534 1.385 . S
C2538 C2537 1.374 . S
C2539 C2536 1.499 . S
C2539 C2540 1.373 . S
C2539 C2541 1.389 . S
C2540 H2513 0.950 . S
C2540 C2526 1.377 . S
C2540 C2539 1.373 . S
C2541 C2525 1.377 . S
C2541 C2539 1.389 . S
C2541 C2542 1.524 . S
C2542 C2541 1.524 . S
C2542 C2543 1.397 . S
C2542 C2547 1.363 . S
C2543 H2514 0.950 . S
C2543 C2542 1.397 . S
C2543 C2544 1.334 . S
C2544 H2515 0.950 . S
C2544 C2543 1.334 . S
C2544 C2545 1.287 . S
C2545 C2544 1.287 . S
C2545 C2546 1.524 . S
C2545 H2548 0.999 . S
C2546 H2516 0.950 . S
C2546 C2545 1.524 . S
C2546 C2547 1.415 . S
C2547 H2517 0.950 . S
C2547 C2542 1.363 . S
C2547 C2546 1.415 . S
H2548 C2545 0.999 . S
H2549 C2530 0.913 . S
H2550 C2568 0.951 . S
H2551 C2570 0.951 . S
H2552 C2572 0.950 . S
H2553 C2573 0.950 . S
H2554 C2575 0.950 . S
H2555 C2578 0.950 . S
H2556 C2579 0.950 . S
H2557 C2581 0.950 . S
H2558 C2582 0.950 . S
H2559 C2583 0.951 . S
H2560 C2585 0.951 . S
H2561 C2587 0.950 . S
H2562 C2588 0.950 . S
H2563 C2590 0.950 . S
H2564 C2593 0.950 . S
H2565 C2594 0.950 . S
H2566 C2596 0.950 . S
H2567 C2597 0.950 . S
C2568 H2550 0.951 . S
C2568 C2569 1.366 . S
C2568 C2570 1.388 . S
C2569 C2568 1.366 . S
C2569 C2573 1.385 . S
C2570 H2551 0.951 . S
C2570 C2568 1.388 . S
C2570 C2571 1.366 . S
C2571 C2570 1.366 . S
C2571 C2572 1.414 . S
C2571 C2574 1.499 . S
C2572 H2552 0.950 . S
C2572 C2571 1.414 . S
C2572 C2573 1.374 . S
C2573 H2553 0.950 . S
C2573 C2569 1.385 . S
C2573 C2572 1.374 . S
C2574 C2571 1.499 . S
C2574 C2575 1.373 . S
C2574 C2576 1.389 . S
C2575 H2554 0.950 . S
C2575 C2574 1.373 . S
C2575 C2591 1.377 . S
C2576 C2574 1.389 . S
C2576 C2577 1.524 . S
C2576 C2590 1.377 . S
C2577 C2576 1.524 . S
C2577 C2578 1.397 . S
C2577 C2582 1.363 . S
C2578 H2555 0.950 . S
C2578 C2577 1.397 . S
C2578 C2579 1.334 . S
C2579 H2556 0.950 . S
C2579 C2578 1.334 . S
C2579 C2580 1.287 . S
C2580 C2579 1.287 . S
C2580 C2581 1.524 . S
C2580 H2599 0.913 . S
C2581 H2557 0.950 . S
C2581 C2580 1.524 . S
C2581 C2582 1.415 . S
C2582 H2558 0.950 . S
C2582 C2577 1.363 . S
C2582 C2581 1.415 . S
C2583 H2559 0.951 . S
C2583 C2584 1.366 . S
C2583 C2585 1.388 . S
C2584 C2583 1.366 . S
C2584 C2588 1.385 . S
C2585 H2560 0.951 . S
C2585 C2583 1.388 . S
C2585 C2586 1.366 . S
C2586 C2585 1.366 . S
C2586 C2587 1.414 . S
C2586 C2589 1.499 . S
C2587 H2561 0.950 . S
C2587 C2586 1.414 . S
C2587 C2588 1.374 . S
C2588 H2562 0.950 . S
C2588 C2584 1.385 . S
C2588 C2587 1.374 . S
C2589 C2586 1.499 . S
C2589 C2590 1.373 . S
C2589 C2591 1.389 . S
C2590 H2563 0.950 . S
C2590 C2576 1.377 . S
C2590 C2589 1.373 . S
C2591 C2575 1.377 . S
C2591 C2589 1.389 . S
C2591 C2592 1.524 . S
C2592 C2591 1.524 . S
C2592 C2593 1.397 . S
C2592 C2597 1.363 . S
C2593 H2564 0.950 . S
C2593 C2592 1.397 . S
C2593 C2594 1.334 . S
C2594 H2565 0.950 . S
C2594 C2593 1.334 . S
C2594 C2595 1.287 . S
C2595 C2594 1.287 . S
C2595 C2596 1.524 . S
C2595 H2598 0.999 . S
C2596 H2566 0.950 . S
C2596 C2595 1.524 . S
C2596 C2597 1.415 . S
C2597 H2567 0.950 . S
C2597 C2592 1.363 . S
C2597 C2596 1.415 . S
H2598 C2595 0.999 . S
H2599 C2580 0.913 . S
H2600 C2618 0.951 . S
H2601 C2620 0.951 . S
H2602 C2622 0.950 . S
H2603 C2623 0.950 . S
H2604 C2625 0.950 . S
H2605 C2628 0.950 . S
H2606 C2629 0.950 . S
H2607 C2631 0.950 . S
H2608 C2632 0.950 . S
H2609 C2633 0.951 . S
H2610 C2635 0.951 . S
H2611 C2637 0.950 . S
H2612 C2638 0.950 . S
H2613 C2640 0.950 . S
H2614 C2643 0.950 . S
H2615 C2644 0.950 . S
H2616 C2646 0.950 . S
H2617 C2647 0.950 . S
C2618 H2600 0.951 . S
C2618 C2619 1.366 . S
C2618 C2620 1.388 . S
C2619 C2618 1.366 . S
C2619 C2623 1.385 . S
C2620 H2601 0.951 . S
C2620 C2618 1.388 . S
C2620 C2621 1.366 . S
C2621 C2620 1.366 . S
C2621 C2622 1.414 . S
C2621 C2624 1.499 . S
C2622 H2602 0.950 . S
C2622 C2621 1.414 . S
C2622 C2623 1.374 . S
C2623 H2603 0.950 . S
C2623 C2619 1.385 . S
C2623 C2622 1.374 . S
C2624 C2621 1.499 . S
C2624 C2625 1.373 . S
C2624 C2626 1.389 . S
C2625 H2604 0.950 . S
C2625 C2624 1.373 . S
C2625 C2641 1.377 . S
C2626 C2624 1.389 . S
C2626 C2627 1.524 . S
C2626 C2640 1.377 . S
C2627 C2626 1.524 . S
C2627 C2628 1.397 . S
C2627 C2632 1.363 . S
C2628 H2605 0.950 . S
C2628 C2627 1.397 . S
C2628 C2629 1.334 . S
C2629 H2606 0.950 . S
C2629 C2628 1.334 . S
C2629 C2630 1.287 . S
C2630 C2629 1.287 . S
C2630 C2631 1.524 . S
C2630 H2649 0.913 . S
C2631 H2607 0.950 . S
C2631 C2630 1.524 . S
C2631 C2632 1.415 . S
C2632 H2608 0.950 . S
C2632 C2627 1.363 . S
C2632 C2631 1.415 . S
C2633 H2609 0.951 . S
C2633 C2634 1.366 . S
C2633 C2635 1.388 . S
C2634 C2633 1.366 . S
C2634 C2638 1.385 . S
C2635 H2610 0.951 . S
C2635 C2633 1.388 . S
C2635 C2636 1.366 . S
C2636 C2635 1.366 . S
C2636 C2637 1.414 . S
C2636 C2639 1.499 . S
C2637 H2611 0.950 . S
C2637 C2636 1.414 . S
C2637 C2638 1.374 . S
C2638 H2612 0.950 . S
C2638 C2634 1.385 . S
C2638 C2637 1.374 . S
C2639 C2636 1.499 . S
C2639 C2640 1.373 . S
C2639 C2641 1.389 . S
C2640 H2613 0.950 . S
C2640 C2626 1.377 . S
C2640 C2639 1.373 . S
C2641 C2625 1.377 . S
C2641 C2639 1.389 . S
C2641 C2642 1.524 . S
C2642 C2641 1.524 . S
C2642 C2643 1.397 . S
C2642 C2647 1.363 . S
C2643 H2614 0.950 . S
C2643 C2642 1.397 . S
C2643 C2644 1.334 . S
C2644 H2615 0.950 . S
C2644 C2643 1.334 . S
C2644 C2645 1.287 . S
C2645 C2644 1.287 . S
C2645 C2646 1.524 . S
C2645 H2648 0.999 . S
C2646 H2616 0.950 . S
C2646 C2645 1.524 . S
C2646 C2647 1.415 . S
C2647 H2617 0.950 . S
C2647 C2642 1.363 . S
C2647 C2646 1.415 . S
H2648 C2645 0.999 . S
H2649 C2630 0.913 . S
H2650 C2668 0.951 . S
H2651 C2670 0.951 . S
H2652 C2672 0.950 . S
H2653 C2673 0.950 . S
H2654 C2675 0.950 . S
H2655 C2678 0.950 . S
H2656 C2679 0.950 . S
H2657 C2681 0.950 . S
H2658 C2682 0.950 . S
H2659 C2683 0.951 . S
H2660 C2685 0.951 . S
H2661 C2687 0.950 . S
H2662 C2688 0.950 . S
H2663 C2690 0.950 . S
H2664 C2693 0.950 . S
H2665 C2694 0.950 . S
H2666 C2696 0.950 . S
H2667 C2697 0.950 . S
C2668 H2650 0.951 . S
C2668 C2669 1.366 . S
C2668 C2670 1.388 . S
C2669 C2668 1.366 . S
C2669 C2673 1.385 . S
C2670 H2651 0.951 . S
C2670 C2668 1.388 . S
C2670 C2671 1.366 . S
C2671 C2670 1.366 . S
C2671 C2672 1.414 . S
C2671 C2674 1.499 . S
C2672 H2652 0.950 . S
C2672 C2671 1.414 . S
C2672 C2673 1.374 . S
C2673 H2653 0.950 . S
C2673 C2669 1.385 . S
C2673 C2672 1.374 . S
C2674 C2671 1.499 . S
C2674 C2675 1.373 . S
C2674 C2676 1.389 . S
C2675 H2654 0.950 . S
C2675 C2674 1.373 . S
C2675 C2691 1.377 . S
C2676 C2674 1.389 . S
C2676 C2677 1.524 . S
C2676 C2690 1.377 . S
C2677 C2676 1.524 . S
C2677 C2678 1.397 . S
C2677 C2682 1.363 . S
C2678 H2655 0.950 . S
C2678 C2677 1.397 . S
C2678 C2679 1.334 . S
C2679 H2656 0.950 . S
C2679 C2678 1.334 . S
C2679 C2680 1.287 . S
C2680 C2679 1.287 . S
C2680 C2681 1.524 . S
C2680 H2699 0.913 . S
C2681 H2657 0.950 . S
C2681 C2680 1.524 . S
C2681 C2682 1.415 . S
C2682 H2658 0.950 . S
C2682 C2677 1.363 . S
C2682 C2681 1.415 . S
C2683 H2659 0.951 . S
C2683 C2684 1.366 . S
C2683 C2685 1.388 . S
C2684 C2683 1.366 . S
C2684 C2688 1.385 . S
C2685 H2660 0.951 . S
C2685 C2683 1.388 . S
C2685 C2686 1.366 . S
C2686 C2685 1.366 . S
C2686 C2687 1.414 . S
C2686 C2689 1.499 . S
C2687 H2661 0.950 . S
C2687 C2686 1.414 . S
C2687 C2688 1.374 . S
C2688 H2662 0.950 . S
C2688 C2684 1.385 . S
C2688 C2687 1.374 . S
C2689 C2686 1.499 . S
C2689 C2690 1.373 . S
C2689 C2691 1.389 . S
C2690 H2663 0.950 . S
C2690 C2676 1.377 . S
C2690 C2689 1.373 . S
C2691 C2675 1.377 . S
C2691 C2689 1.389 . S
C2691 C2692 1.524 . S
C2692 C2691 1.524 . S
C2692 C2693 1.397 . S
C2692 C2697 1.363 . S
C2693 H2664 0.950 . S
C2693 C2692 1.397 . S
C2693 C2694 1.334 . S
C2694 H2665 0.950 . S
C2694 C2693 1.334 . S
C2694 C2695 1.287 . S
C2695 C2694 1.287 . S
C2695 C2696 1.524 . S
C2695 H2698 0.999 . S
C2696 H2666 0.950 . S
C2696 C2695 1.524 . S
C2696 C2697 1.415 . S
C2697 H2667 0.950 . S
C2697 C2692 1.363 . S
C2697 C2696 1.415 . S
H2698 C2695 0.999 . S
H2699 C2680 0.913 . S
H2700 C2718 0.951 . S
H2701 C2720 0.951 . S
H2702 C2722 0.950 . S
H2703 C2723 0.950 . S
H2704 C2725 0.950 . S
H2705 C2728 0.950 . S
H2706 C2729 0.950 . S
H2707 C2731 0.950 . S
H2708 C2732 0.950 . S
H2709 C2733 0.951 . S
H2710 C2735 0.951 1_545 S
H2711 C2737 0.950 . S
H2712 C2738 0.950 . S
H2713 C2740 0.950 . S
H2714 C2743 0.950 . S
H2715 C2744 0.950 . S
H2716 C2746 0.950 . S
H2717 C2747 0.950 . S
C2718 H2700 0.951 . S
C2718 C2719 1.366 . S
C2718 C2720 1.388 . S
C2719 C2718 1.366 . S
C2719 C2723 1.385 . S
C2720 H2701 0.951 . S
C2720 C2718 1.388 . S
C2720 C2721 1.366 . S
C2721 C2720 1.366 . S
C2721 C2722 1.414 . S
C2721 C2724 1.499 . S
C2722 H2702 0.950 . S
C2722 C2721 1.414 . S
C2722 C2723 1.374 . S
C2723 H2703 0.950 . S
C2723 C2719 1.385 . S
C2723 C2722 1.374 . S
C2724 C2721 1.499 . S
C2724 C2725 1.373 . S
C2724 C2726 1.389 . S
C2725 H2704 0.950 . S
C2725 C2724 1.373 . S
C2725 C2741 1.377 . S
C2726 C2724 1.389 . S
C2726 C2727 1.524 . S
C2726 C2740 1.377 . S
C2727 C2726 1.524 . S
C2727 C2728 1.397 . S
C2727 C2732 1.363 . S
C2728 H2705 0.950 . S
C2728 C2727 1.397 . S
C2728 C2729 1.334 . S
C2729 H2706 0.950 . S
C2729 C2728 1.334 . S
C2729 C2730 1.287 . S
C2730 C2729 1.287 . S
C2730 C2731 1.524 . S
C2730 H2749 0.913 . S
C2731 H2707 0.950 . S
C2731 C2730 1.524 . S
C2731 C2732 1.415 . S
C2732 H2708 0.950 . S
C2732 C2727 1.363 . S
C2732 C2731 1.415 . S
C2733 H2709 0.951 . S
C2733 C2734 1.366 1_545 S
C2733 C2735 1.388 1_545 S
C2734 C2733 1.366 1_565 S
C2734 C2738 1.385 . S
C2735 H2710 0.951 1_565 S
C2735 C2733 1.388 1_565 S
C2735 C2736 1.366 . S
C2736 C2735 1.366 . S
C2736 C2737 1.414 . S
C2736 C2739 1.499 . S
C2737 H2711 0.950 . S
C2737 C2736 1.414 . S
C2737 C2738 1.374 . S
C2738 H2712 0.950 . S
C2738 C2734 1.385 . S
C2738 C2737 1.374 . S
C2739 C2736 1.499 . S
C2739 C2740 1.373 . S
C2739 C2741 1.389 . S
C2740 H2713 0.950 . S
C2740 C2726 1.377 . S
C2740 C2739 1.373 . S
C2741 C2725 1.377 . S
C2741 C2739 1.389 . S
C2741 C2742 1.524 1_565 S
C2742 C2741 1.524 1_545 S
C2742 C2743 1.397 . S
C2742 C2747 1.363 . S
C2743 H2714 0.950 . S
C2743 C2742 1.397 . S
C2743 C2744 1.334 . S
C2744 H2715 0.950 . S
C2744 C2743 1.334 . S
C2744 C2745 1.287 . S
C2745 C2744 1.287 . S
C2745 C2746 1.524 . S
C2745 H2748 0.999 . S
C2746 H2716 0.950 . S
C2746 C2745 1.524 . S
C2746 C2747 1.415 . S
C2747 H2717 0.950 . S
C2747 C2742 1.363 . S
C2747 C2746 1.415 . S
H2748 C2745 0.999 . S
H2749 C2730 0.913 . S
H2750 C2768 0.951 . S
H2751 C2770 0.951 . S
H2752 C2772 0.950 . S
H2753 C2773 0.950 . S
H2754 C2775 0.950 . S
H2755 C2778 0.950 . S
H2756 C2779 0.950 . S
H2757 C2781 0.950 . S
H2758 C2782 0.950 . S
H2759 C2783 0.951 . S
H2760 C2785 0.951 . S
H2761 C2787 0.950 1_655 S
H2762 C2788 0.950 1_655 S
H2763 C2790 0.950 1_655 S
H2764 C2793 0.950 . S
H2765 C2794 0.950 . S
H2766 C2796 0.950 . S
H2767 C2797 0.950 . S
C2768 H2750 0.951 . S
C2768 C2769 1.366 . S
C2768 C2770 1.388 . S
C2769 C2768 1.366 . S
C2769 C2773 1.385 . S
C2770 H2751 0.951 . S
C2770 C2768 1.388 . S
C2770 C2771 1.366 . S
C2771 C2770 1.366 . S
C2771 C2772 1.414 . S
C2771 C2774 1.499 . S
C2772 H2752 0.950 . S
C2772 C2771 1.414 . S
C2772 C2773 1.374 . S
C2773 H2753 0.950 . S
C2773 C2769 1.385 . S
C2773 C2772 1.374 . S
C2774 C2771 1.499 . S
C2774 C2775 1.373 . S
C2774 C2776 1.389 . S
C2775 H2754 0.950 . S
C2775 C2774 1.373 . S
C2775 C2791 1.377 . S
C2776 C2774 1.389 . S
C2776 C2777 1.524 1_455 S
C2776 C2790 1.377 . S
C2777 C2776 1.524 1_655 S
C2777 C2778 1.397 . S
C2777 C2782 1.363 . S
C2778 H2755 0.950 . S
C2778 C2777 1.397 . S
C2778 C2779 1.334 . S
C2779 H2756 0.950 . S
C2779 C2778 1.334 . S
C2779 C2780 1.287 . S
C2780 C2779 1.287 . S
C2780 C2781 1.524 . S
C2780 H2799 0.913 . S
C2781 H2757 0.950 . S
C2781 C2780 1.524 . S
C2781 C2782 1.415 . S
C2782 H2758 0.950 . S
C2782 C2777 1.363 . S
C2782 C2781 1.415 . S
C2783 H2759 0.951 . S
C2783 C2784 1.366 . S
C2783 C2785 1.388 . S
C2784 C2783 1.366 . S
C2784 C2788 1.385 . S
C2785 H2760 0.951 . S
C2785 C2783 1.388 . S
C2785 C2786 1.366 . S
C2786 C2785 1.366 . S
C2786 C2787 1.414 . S
C2786 C2789 1.499 . S
C2787 H2761 0.950 1_455 S
C2787 C2786 1.414 . S
C2787 C2788 1.374 . S
C2788 H2762 0.950 1_455 S
C2788 C2784 1.385 . S
C2788 C2787 1.374 . S
C2789 C2786 1.499 . S
C2789 C2790 1.373 . S
C2789 C2791 1.389 . S
C2790 H2763 0.950 1_455 S
C2790 C2776 1.377 . S
C2790 C2789 1.373 . S
C2791 C2775 1.377 . S
C2791 C2789 1.389 . S
C2791 C2792 1.524 . S
C2792 C2791 1.524 . S
C2792 C2793 1.397 . S
C2792 C2797 1.363 . S
C2793 H2764 0.950 . S
C2793 C2792 1.397 . S
C2793 C2794 1.334 . S
C2794 H2765 0.950 . S
C2794 C2793 1.334 . S
C2794 C2795 1.287 . S
C2795 C2794 1.287 . S
C2795 C2796 1.524 . S
C2795 H2798 0.999 . S
C2796 H2766 0.950 . S
C2796 C2795 1.524 . S
C2796 C2797 1.415 . S
C2797 H2767 0.950 . S
C2797 C2792 1.363 . S
C2797 C2796 1.415 . S
H2798 C2795 0.999 . S
H2799 C2780 0.913 . S
H2800 C2818 0.951 . S
H2801 C2820 0.951 . S
H2802 C2822 0.950 . S
H2803 C2823 0.950 . S
H2804 C2825 0.950 . S
H2805 C2828 0.950 . S
H2806 C2829 0.950 . S
H2807 C2831 0.950 . S
H2808 C2832 0.950 . S
H2809 C2833 0.951 . S
H2810 C2835 0.951 . S
H2811 C2837 0.950 . S
H2812 C2838 0.950 . S
H2813 C2840 0.950 . S
H2814 C2843 0.950 . S
H2815 C2844 0.950 . S
H2816 C2846 0.950 . S
H2817 C2847 0.950 . S
C2818 H2800 0.951 . S
C2818 C2819 1.366 . S
C2818 C2820 1.388 . S
C2819 C2818 1.366 . S
C2819 C2823 1.385 . S
C2820 H2801 0.951 . S
C2820 C2818 1.388 . S
C2820 C2821 1.366 . S
C2821 C2820 1.366 . S
C2821 C2822 1.414 . S
C2821 C2824 1.499 . S
C2822 H2802 0.950 . S
C2822 C2821 1.414 . S
C2822 C2823 1.374 . S
C2823 H2803 0.950 . S
C2823 C2819 1.385 . S
C2823 C2822 1.374 . S
C2824 C2821 1.499 . S
C2824 C2825 1.373 . S
C2824 C2826 1.389 . S
C2825 H2804 0.950 . S
C2825 C2824 1.373 . S
C2825 C2841 1.377 . S
C2826 C2824 1.389 . S
C2826 C2827 1.524 . S
C2826 C2840 1.377 . S
C2827 C2826 1.524 . S
C2827 C2828 1.397 . S
C2827 C2832 1.363 . S
C2828 H2805 0.950 . S
C2828 C2827 1.397 . S
C2828 C2829 1.334 . S
C2829 H2806 0.950 . S
C2829 C2828 1.334 . S
C2829 C2830 1.287 . S
C2830 C2829 1.287 . S
C2830 C2831 1.524 . S
C2830 H2849 0.913 . S
C2831 H2807 0.950 . S
C2831 C2830 1.524 . S
C2831 C2832 1.415 . S
C2832 H2808 0.950 . S
C2832 C2827 1.363 . S
C2832 C2831 1.415 . S
C2833 H2809 0.951 . S
C2833 C2834 1.366 . S
C2833 C2835 1.388 . S
C2834 C2833 1.366 . S
C2834 C2838 1.385 . S
C2835 H2810 0.951 . S
C2835 C2833 1.388 . S
C2835 C2836 1.366 . S
C2836 C2835 1.366 . S
C2836 C2837 1.414 . S
C2836 C2839 1.499 . S
C2837 H2811 0.950 . S
C2837 C2836 1.414 . S
C2837 C2838 1.374 . S
C2838 H2812 0.950 . S
C2838 C2834 1.385 . S
C2838 C2837 1.374 . S
C2839 C2836 1.499 . S
C2839 C2840 1.373 . S
C2839 C2841 1.389 . S
C2840 H2813 0.950 . S
C2840 C2826 1.377 . S
C2840 C2839 1.373 . S
C2841 C2825 1.377 . S
C2841 C2839 1.389 . S
C2841 C2842 1.524 . S
C2842 C2841 1.524 . S
C2842 C2843 1.397 . S
C2842 C2847 1.363 . S
C2843 H2814 0.950 . S
C2843 C2842 1.397 . S
C2843 C2844 1.334 . S
C2844 H2815 0.950 . S
C2844 C2843 1.334 . S
C2844 C2845 1.287 . S
C2845 C2844 1.287 . S
C2845 C2846 1.524 . S
C2845 H2848 0.999 . S
C2846 H2816 0.950 . S
C2846 C2845 1.524 . S
C2846 C2847 1.415 . S
C2847 H2817 0.950 . S
C2847 C2842 1.363 . S
C2847 C2846 1.415 . S
H2848 C2845 0.999 . S
H2849 C2830 0.913 . S
H2850 C2868 0.951 . S
H2851 C2870 0.951 . S
H2852 C2872 0.950 . S
H2853 C2873 0.950 . S
H2854 C2875 0.950 . S
H2855 C2878 0.950 . S
H2856 C2879 0.950 . S
H2857 C2881 0.950 . S
H2858 C2882 0.950 . S
H2859 C2883 0.951 . S
H2860 C2885 0.951 . S
H2861 C2887 0.928 1_455 S
H2862 C2888 0.950 . S
H2863 C2890 0.950 . S
H2864 C2893 0.950 . S
H2865 C2894 0.950 . S
H2866 C2896 0.950 . S
H2867 C2897 0.950 . S
C2868 H2850 0.951 . S
C2868 C2869 1.366 . S
C2868 C2870 1.388 . S
C2869 C2868 1.366 . S
C2869 C2873 1.385 . S
C2870 H2851 0.951 . S
C2870 C2868 1.388 . S
C2870 C2871 1.366 . S
C2871 C2870 1.366 . S
C2871 C2872 1.414 . S
C2871 C2874 1.499 . S
C2872 H2852 0.950 . S
C2872 C2871 1.414 . S
C2872 C2873 1.374 . S
C2873 H2853 0.950 . S
C2873 C2869 1.385 . S
C2873 C2872 1.374 . S
C2874 C2871 1.499 . S
C2874 C2875 1.373 . S
C2874 C2876 1.389 . S
C2875 H2854 0.950 . S
C2875 C2874 1.373 . S
C2875 C2891 1.377 . S
C2876 C2874 1.389 . S
C2876 C2877 1.524 . S
C2876 C2890 1.377 . S
C2877 C2876 1.524 . S
C2877 C2878 1.397 . S
C2877 C2882 1.363 . S
C2878 H2855 0.950 . S
C2878 C2877 1.397 . S
C2878 C2879 1.334 . S
C2879 H2856 0.950 . S
C2879 C2878 1.334 . S
C2879 C2880 1.287 . S
C2880 C2879 1.287 . S
C2880 C2881 1.524 . S
C2880 H2899 0.913 . S
C2881 H2857 0.950 . S
C2881 C2880 1.524 . S
C2881 C2882 1.415 . S
C2882 H2858 0.950 . S
C2882 C2877 1.363 . S
C2882 C2881 1.415 . S
C2883 H2859 0.951 . S
C2883 C2884 1.366 . S
C2883 C2885 1.388 . S
C2884 C2883 1.366 . S
C2884 C2888 1.385 1_655 S
C2885 H2860 0.951 . S
C2885 C2883 1.388 . S
C2885 C2886 1.366 . S
C2886 C2885 1.366 . S
C2886 C2887 1.438 . S
C2886 C2889 1.499 . S
C2887 H2861 0.928 1_655 S
C2887 C2886 1.438 . S
C2887 C2888 1.372 1_655 S
C2888 H2862 0.950 . S
C2888 C2884 1.385 1_455 S
C2888 C2887 1.372 1_455 S
C2889 C2886 1.499 . S
C2889 C2890 1.373 . S
C2889 C2891 1.389 . S
C2890 H2863 0.950 . S
C2890 C2876 1.377 . S
C2890 C2889 1.373 . S
C2891 C2875 1.377 . S
C2891 C2889 1.389 . S
C2891 C2892 1.524 . S
C2892 C2891 1.524 . S
C2892 C2893 1.397 1_655 S
C2892 C2897 1.363 . S
C2893 H2864 0.950 . S
C2893 C2892 1.397 1_455 S
C2893 C2894 1.334 . S
C2894 H2865 0.950 . S
C2894 C2893 1.334 . S
C2894 C2895 1.287 . S
C2895 C2894 1.287 . S
C2895 C2896 1.524 1_455 S
C2895 H2898 0.999 . S
C2896 H2866 0.950 . S
C2896 C2895 1.524 1_655 S
C2896 C2897 1.415 . S
C2897 H2867 0.950 . S
C2897 C2892 1.363 . S
C2897 C2896 1.415 . S
H2898 C2895 0.999 . S
H2899 C2880 0.913 . S
H2900 C2918 0.951 . S
H2901 C2920 0.951 . S
H2902 C2922 0.950 . S
H2903 C2923 0.950 . S
H2904 C2925 0.950 . S
H2905 C2928 0.950 . S
H2906 C2929 0.950 . S
H2907 C2931 0.950 . S
H2908 C2932 0.950 . S
H2909 C2933 0.951 . S
H2910 C2935 0.951 . S
H2911 C2937 0.950 . S
H2912 C2938 0.950 . S
H2913 C2940 0.950 . S
H2914 C2943 0.950 . S
H2915 C2944 0.950 . S
H2916 C2946 0.950 . S
H2917 C2947 0.950 . S
C2918 H2900 0.951 . S
C2918 C2919 1.366 . S
C2918 C2920 1.388 . S
C2919 C2918 1.366 . S
C2919 C2923 1.385 . S
C2920 H2901 0.951 . S
C2920 C2918 1.388 . S
C2920 C2921 1.366 . S
C2921 C2920 1.366 . S
C2921 C2922 1.414 . S
C2921 C2924 1.499 . S
C2922 H2902 0.950 . S
C2922 C2921 1.414 . S
C2922 C2923 1.374 . S
C2923 H2903 0.950 . S
C2923 C2919 1.385 . S
C2923 C2922 1.374 . S
C2924 C2921 1.499 . S
C2924 C2925 1.373 . S
C2924 C2926 1.389 . S
C2925 H2904 0.950 . S
C2925 C2924 1.373 . S
C2925 C2941 1.377 . S
C2926 C2924 1.389 . S
C2926 C2927 1.524 . S
C2926 C2940 1.377 . S
C2927 C2926 1.524 . S
C2927 C2928 1.397 . S
C2927 C2932 1.363 . S
C2928 H2905 0.950 . S
C2928 C2927 1.397 . S
C2928 C2929 1.334 . S
C2929 H2906 0.950 . S
C2929 C2928 1.334 . S
C2929 C2930 1.287 . S
C2930 C2929 1.287 . S
C2930 C2931 1.524 . S
C2930 H2949 0.913 . S
C2931 H2907 0.950 . S
C2931 C2930 1.524 . S
C2931 C2932 1.415 . S
C2932 H2908 0.950 . S
C2932 C2927 1.363 . S
C2932 C2931 1.415 . S
C2933 H2909 0.951 . S
C2933 C2934 1.366 . S
C2933 C2935 1.388 . S
C2934 C2933 1.366 . S
C2934 C2938 1.385 . S
C2935 H2910 0.951 . S
C2935 C2933 1.388 . S
C2935 C2936 1.366 . S
C2936 C2935 1.366 . S
C2936 C2937 1.414 . S
C2936 C2939 1.499 . S
C2937 H2911 0.950 . S
C2937 C2936 1.414 . S
C2937 C2938 1.374 . S
C2938 H2912 0.950 . S
C2938 C2934 1.385 . S
C2938 C2937 1.374 . S
C2939 C2936 1.499 . S
C2939 C2940 1.373 . S
C2939 C2941 1.389 . S
C2940 H2913 0.950 . S
C2940 C2926 1.377 . S
C2940 C2939 1.373 . S
C2941 C2925 1.377 . S
C2941 C2939 1.389 . S
C2941 C2942 1.524 . S
C2942 C2941 1.524 . S
C2942 C2943 1.397 . S
C2942 C2947 1.363 . S
C2943 H2914 0.950 . S
C2943 C2942 1.397 . S
C2943 C2944 1.334 . S
C2944 H2915 0.950 . S
C2944 C2943 1.334 . S
C2944 C2945 1.287 . S
C2945 C2944 1.287 . S
C2945 C2946 1.524 . S
C2945 H2948 0.999 . S
C2946 H2916 0.950 . S
C2946 C2945 1.524 . S
C2946 C2947 1.415 . S
C2947 H2917 0.950 . S
C2947 C2942 1.363 . S
C2947 C2946 1.415 . S
H2948 C2945 0.999 . S
H2949 C2930 0.913 . S
H2950 C2968 0.951 . S
H2951 C2970 0.951 . S
H2952 C2972 0.950 . S
H2953 C2973 0.950 . S
H2954 C2975 0.950 . S
H2955 C2978 0.950 . S
H2956 C2979 0.950 . S
H2957 C2981 0.950 . S
H2958 C2982 0.950 . S
H2959 C2983 0.951 . S
H2960 C2985 0.951 . S
H2961 C2987 0.950 . S
H2962 C2988 0.950 . S
H2963 C2990 0.950 . S
H2964 C2993 0.950 . S
H2965 C2994 0.950 . S
H2966 C2996 0.950 . S
H2967 C2997 0.950 . S
C2968 H2950 0.951 . S
C2968 C2969 1.366 . S
C2968 C2970 1.388 . S
C2969 C2968 1.366 . S
C2969 C2973 1.385 . S
C2970 H2951 0.951 . S
C2970 C2968 1.388 . S
C2970 C2971 1.366 . S
C2971 C2970 1.366 . S
C2971 C2972 1.414 . S
C2971 C2974 1.499 . S
C2972 H2952 0.950 . S
C2972 C2971 1.414 . S
C2972 C2973 1.374 . S
C2973 H2953 0.950 . S
C2973 C2969 1.385 . S
C2973 C2972 1.374 . S
C2974 C2971 1.499 . S
C2974 C2975 1.373 . S
C2974 C2976 1.389 . S
C2975 H2954 0.950 . S
C2975 C2974 1.373 . S
C2975 C2991 1.377 . S
C2976 C2974 1.389 . S
C2976 C2977 1.524 . S
C2976 C2990 1.377 . S
C2977 C2976 1.524 . S
C2977 C2978 1.397 . S
C2977 C2982 1.363 1_545 S
C2978 H2955 0.950 . S
C2978 C2977 1.397 . S
C2978 C2979 1.334 . S
C2979 H2956 0.950 . S
C2979 C2978 1.334 . S
C2979 C2980 1.287 . S
C2980 C2979 1.287 . S
C2980 C2981 1.524 1_545 S
C2980 H2999 0.913 1_545 S
C2981 H2957 0.950 . S
C2981 C2980 1.524 1_565 S
C2981 C2982 1.415 . S
C2982 H2958 0.950 . S
C2982 C2977 1.363 1_565 S
C2982 C2981 1.415 . S
C2983 H2959 0.951 . S
C2983 C2984 1.366 . S
C2983 C2985 1.388 . S
C2984 C2983 1.366 . S
C2984 C2988 1.385 1_545 S
C2985 H2960 0.951 . S
C2985 C2983 1.388 . S
C2985 C2986 1.366 . S
C2986 C2985 1.366 . S
C2986 C2987 1.414 1_545 S
C2986 C2989 1.499 . S
C2987 H2961 0.950 . S
C2987 C2986 1.414 1_565 S
C2987 C2988 1.374 . S
C2988 H2962 0.950 . S
C2988 C2984 1.385 1_565 S
C2988 C2987 1.374 . S
C2989 C2986 1.499 . S
C2989 C2990 1.373 . S
C2989 C2991 1.389 . S
C2990 H2963 0.950 . S
C2990 C2976 1.377 . S
C2990 C2989 1.373 . S
C2991 C2975 1.377 . S
C2991 C2989 1.389 . S
C2991 C2992 1.524 . S
C2992 C2991 1.524 . S
C2992 C2993 1.397 . S
C2992 C2997 1.363 . S
C2993 H2964 0.950 . S
C2993 C2992 1.397 . S
C2993 C2994 1.334 . S
C2994 H2965 0.950 . S
C2994 C2993 1.334 . S
C2994 C2995 1.287 . S
C2995 C2994 1.287 . S
C2995 C2996 1.524 . S
C2995 H2998 0.999 . S
C2996 H2966 0.950 . S
C2996 C2995 1.524 . S
C2996 C2997 1.415 . S
C2997 H2967 0.950 . S
C2997 C2992 1.363 . S
C2997 C2996 1.415 . S
H2998 C2995 0.999 . S
H2999 C2980 0.913 1_565 S
H3000 C3018 0.951 . S
H3001 C3020 0.951 . S
H3002 C3022 0.950 . S
H3003 C3023 0.950 . S
H3004 C3025 0.950 . S
H3005 C3028 0.950 . S
H3006 C3029 0.950 . S
H3007 C3031 0.950 . S
H3008 C3032 0.950 . S
H3009 C3033 0.951 . S
H3010 C3035 0.951 . S
H3011 C3037 0.950 . S
H3012 C3038 0.950 . S
H3013 C3040 0.950 . S
H3014 C3043 0.950 . S
H3015 C3044 0.950 . S
H3016 C3046 0.950 . S
H3017 C3047 0.950 . S
C3018 H3000 0.951 . S
C3018 C3019 1.366 . S
C3018 C3020 1.388 . S
C3019 C3018 1.366 . S
C3019 C3023 1.385 . S
C3020 H3001 0.951 . S
C3020 C3018 1.388 . S
C3020 C3021 1.366 . S
C3021 C3020 1.366 . S
C3021 C3022 1.414 . S
C3021 C3024 1.499 . S
C3022 H3002 0.950 . S
C3022 C3021 1.414 . S
C3022 C3023 1.374 . S
C3023 H3003 0.950 . S
C3023 C3019 1.385 . S
C3023 C3022 1.374 . S
C3024 C3021 1.499 . S
C3024 C3025 1.373 . S
C3024 C3026 1.389 . S
C3025 H3004 0.950 . S
C3025 C3024 1.373 . S
C3025 C3041 1.377 . S
C3026 C3024 1.389 . S
C3026 C3027 1.524 . S
C3026 C3040 1.377 . S
C3027 C3026 1.524 . S
C3027 C3028 1.397 . S
C3027 C3032 1.363 . S
C3028 H3005 0.950 . S
C3028 C3027 1.397 . S
C3028 C3029 1.334 . S
C3029 H3006 0.950 . S
C3029 C3028 1.334 . S
C3029 C3030 1.287 . S
C3030 C3029 1.287 . S
C3030 C3031 1.524 . S
C3030 H3049 0.913 . S
C3031 H3007 0.950 . S
C3031 C3030 1.524 . S
C3031 C3032 1.415 . S
C3032 H3008 0.950 . S
C3032 C3027 1.363 . S
C3032 C3031 1.415 . S
C3033 H3009 0.951 . S
C3033 C3034 1.366 . S
C3033 C3035 1.388 . S
C3034 C3033 1.366 . S
C3034 C3038 1.385 . S
C3035 H3010 0.951 . S
C3035 C3033 1.388 . S
C3035 C3036 1.366 . S
C3036 C3035 1.366 . S
C3036 C3037 1.414 . S
C3036 C3039 1.499 . S
C3037 H3011 0.950 . S
C3037 C3036 1.414 . S
C3037 C3038 1.374 . S
C3038 H3012 0.950 . S
C3038 C3034 1.385 . S
C3038 C3037 1.374 . S
C3039 C3036 1.499 . S
C3039 C3040 1.373 . S
C3039 C3041 1.389 . S
C3040 H3013 0.950 . S
C3040 C3026 1.377 . S
C3040 C3039 1.373 . S
C3041 C3025 1.377 . S
C3041 C3039 1.389 . S
C3041 C3042 1.524 . S
C3042 C3041 1.524 . S
C3042 C3043 1.397 . S
C3042 C3047 1.363 . S
C3043 H3014 0.950 . S
C3043 C3042 1.397 . S
C3043 C3044 1.334 . S
C3044 H3015 0.950 . S
C3044 C3043 1.334 . S
C3044 C3045 1.287 . S
C3045 C3044 1.287 . S
C3045 C3046 1.524 . S
C3045 H3048 0.999 . S
C3046 H3016 0.950 . S
C3046 C3045 1.524 . S
C3046 C3047 1.415 . S
C3047 H3017 0.950 . S
C3047 C3042 1.363 . S
C3047 C3046 1.415 . S
H3048 C3045 0.999 . S
H3049 C3030 0.913 . S
H3050 C3068 0.951 . S
H3051 C3070 0.951 . S
H3052 C3072 0.950 . S
H3053 C3073 0.950 . S
H3054 C3075 0.950 . S
H3055 C3078 0.950 . S
H3056 C3079 0.950 . S
H3057 C3081 0.950 . S
H3058 C3082 0.950 . S
H3059 C3083 0.951 . S
H3060 C3085 0.951 . S
H3061 C3087 0.950 . S
H3062 C3088 0.950 . S
H3063 C3090 0.950 . S
H3064 C3093 0.950 . S
H3065 C3094 0.950 . S
H3066 C3096 0.950 . S
H3067 C3097 0.950 . S
C3068 H3050 0.951 . S
C3068 C3069 1.366 . S
C3068 C3070 1.388 . S
C3069 C3068 1.366 . S
C3069 C3073 1.385 . S
C3070 H3051 0.951 . S
C3070 C3068 1.388 . S
C3070 C3071 1.366 . S
C3071 C3070 1.366 . S
C3071 C3072 1.414 . S
C3071 C3074 1.499 . S
C3072 H3052 0.950 . S
C3072 C3071 1.414 . S
C3072 C3073 1.374 . S
C3073 H3053 0.950 . S
C3073 C3069 1.385 . S
C3073 C3072 1.374 . S
C3074 C3071 1.499 . S
C3074 C3075 1.373 . S
C3074 C3076 1.389 . S
C3075 H3054 0.950 . S
C3075 C3074 1.373 . S
C3075 C3091 1.377 . S
C3076 C3074 1.389 . S
C3076 C3077 1.524 . S
C3076 C3090 1.377 . S
C3077 C3076 1.524 . S
C3077 C3078 1.397 . S
C3077 C3082 1.363 . S
C3078 H3055 0.950 . S
C3078 C3077 1.397 . S
C3078 C3079 1.334 . S
C3079 H3056 0.950 . S
C3079 C3078 1.334 . S
C3079 C3080 1.287 . S
C3080 C3079 1.287 . S
C3080 C3081 1.524 . S
C3080 H3099 0.913 . S
C3081 H3057 0.950 . S
C3081 C3080 1.524 . S
C3081 C3082 1.415 . S
C3082 H3058 0.950 . S
C3082 C3077 1.363 . S
C3082 C3081 1.415 . S
C3083 H3059 0.951 . S
C3083 C3084 1.366 . S
C3083 C3085 1.388 . S
C3084 C3083 1.366 . S
C3084 C3088 1.385 . S
C3085 H3060 0.951 . S
C3085 C3083 1.388 . S
C3085 C3086 1.366 . S
C3086 C3085 1.366 . S
C3086 C3087 1.414 . S
C3086 C3089 1.499 . S
C3087 H3061 0.950 . S
C3087 C3086 1.414 . S
C3087 C3088 1.374 . S
C3088 H3062 0.950 . S
C3088 C3084 1.385 . S
C3088 C3087 1.374 . S
C3089 C3086 1.499 . S
C3089 C3090 1.373 . S
C3089 C3091 1.389 . S
C3090 H3063 0.950 . S
C3090 C3076 1.377 . S
C3090 C3089 1.373 . S
C3091 C3075 1.377 . S
C3091 C3089 1.389 . S
C3091 C3092 1.524 . S
C3092 C3091 1.524 . S
C3092 C3093 1.397 . S
C3092 C3097 1.363 . S
C3093 H3064 0.950 . S
C3093 C3092 1.397 . S
C3093 C3094 1.334 . S
C3094 H3065 0.950 . S
C3094 C3093 1.334 . S
C3094 C3095 1.287 . S
C3095 C3094 1.287 . S
C3095 C3096 1.524 . S
C3095 H3098 0.999 . S
C3096 H3066 0.950 . S
C3096 C3095 1.524 . S
C3096 C3097 1.415 . S
C3097 H3067 0.950 . S
C3097 C3092 1.363 . S
C3097 C3096 1.415 . S
H3098 C3095 0.999 . S
H3099 C3080 0.913 . S
H3100 C3118 0.951 . S
H3101 C3120 0.951 . S
H3102 C3122 0.950 . S
H3103 C3123 0.950 . S
H3104 C3125 0.950 . S
H3105 C3128 0.950 . S
H3106 C3129 0.950 . S
H3107 C3131 0.950 . S
H3108 C3132 0.950 . S
H3109 C3133 0.951 . S
H3110 C3135 0.951 . S
H3111 C3137 0.950 . S
H3112 C3138 0.950 . S
H3113 C3140 0.950 . S
H3114 C3143 0.950 . S
H3115 C3144 0.950 . S
H3116 C3146 0.950 . S
H3117 C3147 0.950 . S
C3118 H3100 0.951 . S
C3118 C3119 1.366 . S
C3118 C3120 1.388 . S
C3119 C3118 1.366 . S
C3119 C3123 1.385 . S
C3120 H3101 0.951 . S
C3120 C3118 1.388 . S
C3120 C3121 1.366 . S
C3121 C3120 1.366 . S
C3121 C3122 1.414 . S
C3121 C3124 1.499 . S
C3122 H3102 0.950 . S
C3122 C3121 1.414 . S
C3122 C3123 1.374 . S
C3123 H3103 0.950 . S
C3123 C3119 1.385 . S
C3123 C3122 1.374 . S
C3124 C3121 1.499 . S
C3124 C3125 1.373 . S
C3124 C3126 1.389 . S
C3125 H3104 0.950 . S
C3125 C3124 1.373 . S
C3125 C3141 1.377 . S
C3126 C3124 1.389 . S
C3126 C3127 1.524 . S
C3126 C3140 1.377 . S
C3127 C3126 1.524 . S
C3127 C3128 1.397 . S
C3127 C3132 1.363 . S
C3128 H3105 0.950 . S
C3128 C3127 1.397 . S
C3128 C3129 1.334 . S
C3129 H3106 0.950 . S
C3129 C3128 1.334 . S
C3129 C3130 1.287 . S
C3130 C3129 1.287 . S
C3130 C3131 1.524 . S
C3130 H3149 0.913 . S
C3131 H3107 0.950 . S
C3131 C3130 1.524 . S
C3131 C3132 1.415 . S
C3132 H3108 0.950 . S
C3132 C3127 1.363 . S
C3132 C3131 1.415 . S
C3133 H3109 0.951 . S
C3133 C3134 1.366 . S
C3133 C3135 1.388 . S
C3134 C3133 1.366 . S
C3134 C3138 1.385 . S
C3135 H3110 0.951 . S
C3135 C3133 1.388 . S
C3135 C3136 1.366 . S
C3136 C3135 1.366 . S
C3136 C3137 1.414 . S
C3136 C3139 1.499 . S
C3137 H3111 0.950 . S
C3137 C3136 1.414 . S
C3137 C3138 1.374 . S
C3138 H3112 0.950 . S
C3138 C3134 1.385 . S
C3138 C3137 1.374 . S
C3139 C3136 1.499 . S
C3139 C3140 1.373 . S
C3139 C3141 1.389 . S
C3140 H3113 0.950 . S
C3140 C3126 1.377 . S
C3140 C3139 1.373 . S
C3141 C3125 1.377 . S
C3141 C3139 1.389 . S
C3141 C3142 1.524 . S
C3142 C3141 1.524 . S
C3142 C3143 1.397 . S
C3142 C3147 1.363 . S
C3143 H3114 0.950 . S
C3143 C3142 1.397 . S
C3143 C3144 1.334 . S
C3144 H3115 0.950 . S
C3144 C3143 1.334 . S
C3144 C3145 1.287 . S
C3145 C3144 1.287 . S
C3145 C3146 1.524 . S
C3145 H3148 0.999 . S
C3146 H3116 0.950 . S
C3146 C3145 1.524 . S
C3146 C3147 1.415 . S
C3147 H3117 0.950 . S
C3147 C3142 1.363 . S
C3147 C3146 1.415 . S
H3148 C3145 0.999 . S
H3149 C3130 0.913 . S
H3150 C3168 0.951 . S
H3151 C3170 0.951 . S
H3152 C3172 0.950 . S
H3153 C3173 0.950 . S
H3154 C3175 0.950 . S
H3155 C3178 0.950 . S
H3156 C3179 0.950 . S
H3157 C3181 0.950 . S
H3158 C3182 0.950 . S
H3159 C3183 0.951 . S
H3160 C3185 0.951 . S
H3161 C3187 0.950 . S
H3162 C3188 0.950 . S
H3163 C3190 0.950 . S
H3164 C3193 0.950 . S
H3165 C3194 0.950 . S
H3166 C3196 0.950 . S
H3167 C3197 0.950 . S
C3168 H3150 0.951 . S
C3168 C3169 1.366 . S
C3168 C3170 1.388 . S
C3169 C3168 1.366 . S
C3169 C3173 1.385 . S
C3170 H3151 0.951 . S
C3170 C3168 1.388 . S
C3170 C3171 1.366 . S
C3171 C3170 1.366 . S
C3171 C3172 1.414 . S
C3171 C3174 1.499 . S
C3172 H3152 0.950 . S
C3172 C3171 1.414 . S
C3172 C3173 1.374 . S
C3173 H3153 0.950 . S
C3173 C3169 1.385 . S
C3173 C3172 1.374 . S
C3174 C3171 1.499 . S
C3174 C3175 1.373 . S
C3174 C3176 1.389 . S
C3175 H3154 0.950 . S
C3175 C3174 1.373 . S
C3175 C3191 1.377 . S
C3176 C3174 1.389 . S
C3176 C3177 1.524 . S
C3176 C3190 1.377 . S
C3177 C3176 1.524 . S
C3177 C3178 1.397 . S
C3177 C3182 1.363 . S
C3178 H3155 0.950 . S
C3178 C3177 1.397 . S
C3178 C3179 1.334 . S
C3179 H3156 0.950 . S
C3179 C3178 1.334 . S
C3179 C3180 1.287 . S
C3180 C3179 1.287 . S
C3180 C3181 1.524 . S
C3180 H3199 0.913 . S
C3181 H3157 0.950 . S
C3181 C3180 1.524 . S
C3181 C3182 1.415 . S
C3182 H3158 0.950 . S
C3182 C3177 1.363 . S
C3182 C3181 1.415 . S
C3183 H3159 0.951 . S
C3183 C3184 1.366 . S
C3183 C3185 1.388 . S
C3184 C3183 1.366 . S
C3184 C3188 1.385 . S
C3185 H3160 0.951 . S
C3185 C3183 1.388 . S
C3185 C3186 1.366 . S
C3186 C3185 1.366 . S
C3186 C3187 1.414 . S
C3186 C3189 1.499 . S
C3187 H3161 0.950 . S
C3187 C3186 1.414 . S
C3187 C3188 1.374 . S
C3188 H3162 0.950 . S
C3188 C3184 1.385 . S
C3188 C3187 1.374 . S
C3189 C3186 1.499 . S
C3189 C3190 1.373 . S
C3189 C3191 1.389 . S
C3190 H3163 0.950 . S
C3190 C3176 1.377 . S
C3190 C3189 1.373 . S
C3191 C3175 1.377 . S
C3191 C3189 1.389 . S
C3191 C3192 1.524 . S
C3192 C3191 1.524 . S
C3192 C3193 1.397 . S
C3192 C3197 1.363 . S
C3193 H3164 0.950 . S
C3193 C3192 1.397 . S
C3193 C3194 1.334 . S
C3194 H3165 0.950 . S
C3194 C3193 1.334 . S
C3194 C3195 1.287 . S
C3195 C3194 1.287 . S
C3195 C3196 1.524 . S
C3195 H3198 0.999 . S
C3196 H3166 0.950 . S
C3196 C3195 1.524 . S
C3196 C3197 1.415 . S
C3197 H3167 0.950 . S
C3197 C3192 1.363 . S
C3197 C3196 1.415 . S
H3198 C3195 0.999 . S
H3199 C3180 0.913 . S
H3200 C3218 0.951 . S
H3201 C3220 0.951 . S
H3202 C3222 0.950 . S
H3203 C3223 0.950 . S
H3204 C3225 0.950 . S
H3205 C3228 0.950 . S
H3206 C3229 0.950 . S
H3207 C3231 0.950 . S
H3208 C3232 0.950 . S
H3209 C3233 0.951 . S
H3210 C3235 0.951 . S
H3211 C3237 0.950 . S
H3212 C3238 0.950 . S
H3213 C3240 0.950 . S
H3214 C3243 0.950 . S
H3215 C3244 0.950 . S
H3216 C3246 0.950 . S
H3217 C3247 0.950 . S
C3218 H3200 0.951 . S
C3218 C3219 1.366 . S
C3218 C3220 1.388 . S
C3219 C3218 1.366 . S
C3219 C3223 1.385 . S
C3220 H3201 0.951 . S
C3220 C3218 1.388 . S
C3220 C3221 1.366 . S
C3221 C3220 1.366 . S
C3221 C3222 1.414 . S
C3221 C3224 1.499 . S
C3222 H3202 0.950 . S
C3222 C3221 1.414 . S
C3222 C3223 1.374 . S
C3223 H3203 0.950 . S
C3223 C3219 1.385 . S
C3223 C3222 1.374 . S
C3224 C3221 1.499 . S
C3224 C3225 1.373 . S
C3224 C3226 1.389 . S
C3225 H3204 0.950 . S
C3225 C3224 1.373 . S
C3225 C3241 1.377 . S
C3226 C3224 1.389 . S
C3226 C3227 1.524 . S
C3226 C3240 1.377 . S
C3227 C3226 1.524 . S
C3227 C3228 1.397 . S
C3227 C3232 1.363 . S
C3228 H3205 0.950 . S
C3228 C3227 1.397 . S
C3228 C3229 1.334 . S
C3229 H3206 0.950 . S
C3229 C3228 1.334 . S
C3229 C3230 1.287 . S
C3230 C3229 1.287 . S
C3230 C3231 1.524 . S
C3230 H3249 0.913 . S
C3231 H3207 0.950 . S
C3231 C3230 1.524 . S
C3231 C3232 1.415 . S
C3232 H3208 0.950 . S
C3232 C3227 1.363 . S
C3232 C3231 1.415 . S
C3233 H3209 0.951 . S
C3233 C3234 1.366 . S
C3233 C3235 1.388 . S
C3234 C3233 1.366 . S
C3234 C3238 1.385 . S
C3235 H3210 0.951 . S
C3235 C3233 1.388 . S
C3235 C3236 1.366 . S
C3236 C3235 1.366 . S
C3236 C3237 1.414 . S
C3236 C3239 1.499 . S
C3237 H3211 0.950 . S
C3237 C3236 1.414 . S
C3237 C3238 1.374 . S
C3238 H3212 0.950 . S
C3238 C3234 1.385 . S
C3238 C3237 1.374 . S
C3239 C3236 1.499 . S
C3239 C3240 1.373 . S
C3239 C3241 1.389 . S
C3240 H3213 0.950 . S
C3240 C3226 1.377 . S
C3240 C3239 1.373 . S
C3241 C3225 1.377 . S
C3241 C3239 1.389 . S
C3241 C3242 1.524 . S
C3242 C3241 1.524 . S
C3242 C3243 1.397 . S
C3242 C3247 1.363 . S
C3243 H3214 0.950 . S
C3243 C3242 1.397 . S
C3243 C3244 1.334 . S
C3244 H3215 0.950 . S
C3244 C3243 1.334 . S
C3244 C3245 1.287 . S
C3245 C3244 1.287 . S
C3245 C3246 1.524 . S
C3245 H3248 0.999 . S
C3246 H3216 0.950 . S
C3246 C3245 1.524 . S
C3246 C3247 1.415 . S
C3247 H3217 0.950 . S
C3247 C3242 1.363 . S
C3247 C3246 1.415 . S
H3248 C3245 0.999 . S
H3249 C3230 0.913 . S
H3250 C3268 0.951 . S
H3251 C3270 0.951 . S
H3252 C3272 0.950 . S
H3253 C3273 0.950 . S
H3254 C3275 0.950 . S
H3255 C3278 0.950 . S
H3256 C3279 0.950 . S
H3257 C3281 0.950 . S
H3258 C3282 0.950 . S
H3259 C3283 0.951 . S
H3260 C3285 0.951 . S
H3261 C3287 0.950 . S
H3262 C3288 0.950 . S
H3263 C3290 0.950 . S
H3264 C3293 0.950 . S
H3265 C3294 0.950 . S
H3266 C3296 0.950 . S
H3267 C3297 0.950 . S
C3268 H3250 0.951 . S
C3268 C3269 1.366 . S
C3268 C3270 1.388 . S
C3269 C3268 1.366 . S
C3269 C3273 1.385 . S
C3270 H3251 0.951 . S
C3270 C3268 1.388 . S
C3270 C3271 1.366 . S
C3271 C3270 1.366 . S
C3271 C3272 1.414 . S
C3271 C3274 1.499 . S
C3272 H3252 0.950 . S
C3272 C3271 1.414 . S
C3272 C3273 1.374 . S
C3273 H3253 0.950 . S
C3273 C3269 1.385 . S
C3273 C3272 1.374 . S
C3274 C3271 1.499 . S
C3274 C3275 1.373 . S
C3274 C3276 1.389 . S
C3275 H3254 0.950 . S
C3275 C3274 1.373 . S
C3275 C3291 1.377 . S
C3276 C3274 1.389 . S
C3276 C3277 1.524 . S
C3276 C3290 1.377 . S
C3277 C3276 1.524 . S
C3277 C3278 1.397 . S
C3277 C3282 1.363 . S
C3278 H3255 0.950 . S
C3278 C3277 1.397 . S
C3278 C3279 1.334 . S
C3279 H3256 0.950 . S
C3279 C3278 1.334 . S
C3279 C3280 1.287 . S
C3280 C3279 1.287 . S
C3280 C3281 1.524 . S
C3280 H3299 0.913 . S
C3281 H3257 0.950 . S
C3281 C3280 1.524 . S
C3281 C3282 1.415 . S
C3282 H3258 0.950 . S
C3282 C3277 1.363 . S
C3282 C3281 1.415 . S
C3283 H3259 0.951 . S
C3283 C3284 1.366 . S
C3283 C3285 1.388 . S
C3284 C3283 1.366 . S
C3284 C3288 1.385 . S
C3285 H3260 0.951 . S
C3285 C3283 1.388 . S
C3285 C3286 1.366 . S
C3286 C3285 1.366 . S
C3286 C3287 1.414 . S
C3286 C3289 1.499 . S
C3287 H3261 0.950 . S
C3287 C3286 1.414 . S
C3287 C3288 1.374 . S
C3288 H3262 0.950 . S
C3288 C3284 1.385 . S
C3288 C3287 1.374 . S
C3289 C3286 1.499 . S
C3289 C3290 1.373 . S
C3289 C3291 1.389 . S
C3290 H3263 0.950 . S
C3290 C3276 1.377 . S
C3290 C3289 1.373 . S
C3291 C3275 1.377 . S
C3291 C3289 1.389 . S
C3291 C3292 1.524 . S
C3292 C3291 1.524 . S
C3292 C3293 1.397 . S
C3292 C3297 1.363 . S
C3293 H3264 0.950 . S
C3293 C3292 1.397 . S
C3293 C3294 1.334 . S
C3294 H3265 0.950 . S
C3294 C3293 1.334 . S
C3294 C3295 1.287 . S
C3295 C3294 1.287 . S
C3295 C3296 1.524 . S
C3295 H3298 0.999 . S
C3296 H3266 0.950 . S
C3296 C3295 1.524 . S
C3296 C3297 1.415 . S
C3297 H3267 0.950 . S
C3297 C3292 1.363 . S
C3297 C3296 1.415 . S
H3298 C3295 0.999 . S
H3299 C3280 0.913 . S
H3300 C3318 0.951 . S
H3301 C3320 0.951 . S
H3302 C3322 0.950 . S
H3303 C3323 0.950 . S
H3304 C3325 0.950 . S
H3305 C3328 0.950 . S
H3306 C3329 0.950 . S
H3307 C3331 0.950 . S
H3308 C3332 0.950 . S
H3309 C3333 0.951 . S
H3310 C3335 0.951 . S
H3311 C3337 0.950 . S
H3312 C3338 0.950 . S
H3313 C3340 0.950 . S
H3314 C3343 0.950 . S
H3315 C3344 0.950 . S
H3316 C3346 0.950 . S
H3317 C3347 0.950 . S
C3318 H3300 0.951 . S
C3318 C3319 1.366 . S
C3318 C3320 1.388 . S
C3319 C3318 1.366 . S
C3319 C3323 1.385 . S
C3320 H3301 0.951 . S
C3320 C3318 1.388 . S
C3320 C3321 1.366 . S
C3321 C3320 1.366 . S
C3321 C3322 1.414 . S
C3321 C3324 1.499 . S
C3322 H3302 0.950 . S
C3322 C3321 1.414 . S
C3322 C3323 1.374 . S
C3323 H3303 0.950 . S
C3323 C3319 1.385 . S
C3323 C3322 1.374 . S
C3324 C3321 1.499 . S
C3324 C3325 1.373 . S
C3324 C3326 1.389 . S
C3325 H3304 0.950 . S
C3325 C3324 1.373 . S
C3325 C3341 1.377 . S
C3326 C3324 1.389 . S
C3326 C3327 1.524 . S
C3326 C3340 1.377 . S
C3327 C3326 1.524 . S
C3327 C3328 1.397 . S
C3327 C3332 1.363 . S
C3328 H3305 0.950 . S
C3328 C3327 1.397 . S
C3328 C3329 1.334 . S
C3329 H3306 0.950 . S
C3329 C3328 1.334 . S
C3329 C3330 1.287 . S
C3330 C3329 1.287 . S
C3330 C3331 1.524 . S
C3330 H3349 0.913 . S
C3331 H3307 0.950 . S
C3331 C3330 1.524 . S
C3331 C3332 1.415 . S
C3332 H3308 0.950 . S
C3332 C3327 1.363 . S
C3332 C3331 1.415 . S
C3333 H3309 0.951 . S
C3333 C3334 1.366 . S
C3333 C3335 1.388 . S
C3334 C3333 1.366 . S
C3334 C3338 1.385 . S
C3335 H3310 0.951 . S
C3335 C3333 1.388 . S
C3335 C3336 1.366 . S
C3336 C3335 1.366 . S
C3336 C3337 1.414 . S
C3336 C3339 1.499 . S
C3337 H3311 0.950 . S
C3337 C3336 1.414 . S
C3337 C3338 1.374 . S
C3338 H3312 0.950 . S
C3338 C3334 1.385 . S
C3338 C3337 1.374 . S
C3339 C3336 1.499 . S
C3339 C3340 1.373 . S
C3339 C3341 1.389 . S
C3340 H3313 0.950 . S
C3340 C3326 1.377 . S
C3340 C3339 1.373 . S
C3341 C3325 1.377 . S
C3341 C3339 1.389 . S
C3341 C3342 1.524 . S
C3342 C3341 1.524 . S
C3342 C3343 1.397 . S
C3342 C3347 1.363 . S
C3343 H3314 0.950 . S
C3343 C3342 1.397 . S
C3343 C3344 1.334 . S
C3344 H3315 0.950 . S
C3344 C3343 1.334 . S
C3344 C3345 1.287 . S
C3345 C3344 1.287 . S
C3345 C3346 1.524 . S
C3345 H3348 0.999 . S
C3346 H3316 0.950 . S
C3346 C3345 1.524 . S
C3346 C3347 1.415 . S
C3347 H3317 0.950 . S
C3347 C3342 1.363 . S
C3347 C3346 1.415 . S
H3348 C3345 0.999 . S
H3349 C3330 0.913 . S
H3350 C3368 0.951 . S
H3351 C3370 0.951 . S
H3352 C3372 0.950 . S
H3353 C3373 0.950 . S
H3354 C3375 0.950 . S
H3355 C3378 0.950 . S
H3356 C3379 0.950 . S
H3357 C3381 0.950 . S
H3358 C3382 0.950 . S
H3359 C3383 0.951 . S
H3360 C3385 0.951 . S
H3361 C3387 0.950 . S
H3362 C3388 0.950 . S
H3363 C3390 0.950 . S
H3364 C3393 0.950 . S
H3365 C3394 0.950 . S
H3366 C3396 0.950 . S
H3367 C3397 0.950 . S
C3368 H3350 0.951 . S
C3368 C3369 1.366 . S
C3368 C3370 1.388 . S
C3369 C3368 1.366 . S
C3369 C3373 1.385 . S
C3370 H3351 0.951 . S
C3370 C3368 1.388 . S
C3370 C3371 1.366 . S
C3371 C3370 1.366 . S
C3371 C3372 1.414 . S
C3371 C3374 1.499 . S
C3372 H3352 0.950 . S
C3372 C3371 1.414 . S
C3372 C3373 1.374 . S
C3373 H3353 0.950 . S
C3373 C3369 1.385 . S
C3373 C3372 1.374 . S
C3374 C3371 1.499 . S
C3374 C3375 1.373 . S
C3374 C3376 1.389 . S
C3375 H3354 0.950 . S
C3375 C3374 1.373 . S
C3375 C3391 1.377 . S
C3376 C3374 1.389 . S
C3376 C3377 1.524 . S
C3376 C3390 1.377 . S
C3377 C3376 1.524 . S
C3377 C3378 1.397 . S
C3377 C3382 1.363 . S
C3378 H3355 0.950 . S
C3378 C3377 1.397 . S
C3378 C3379 1.334 . S
C3379 H3356 0.950 . S
C3379 C3378 1.334 . S
C3379 C3380 1.287 . S
C3380 C3379 1.287 . S
C3380 C3381 1.524 . S
C3380 H3399 0.913 . S
C3381 H3357 0.950 . S
C3381 C3380 1.524 . S
C3381 C3382 1.415 . S
C3382 H3358 0.950 . S
C3382 C3377 1.363 . S
C3382 C3381 1.415 . S
C3383 H3359 0.951 . S
C3383 C3384 1.366 . S
C3383 C3385 1.388 . S
C3384 C3383 1.366 . S
C3384 C3388 1.385 . S
C3385 H3360 0.951 . S
C3385 C3383 1.388 . S
C3385 C3386 1.366 . S
C3386 C3385 1.366 . S
C3386 C3387 1.414 . S
C3386 C3389 1.499 . S
C3387 H3361 0.950 . S
C3387 C3386 1.414 . S
C3387 C3388 1.374 . S
C3388 H3362 0.950 . S
C3388 C3384 1.385 . S
C3388 C3387 1.374 . S
C3389 C3386 1.499 . S
C3389 C3390 1.373 . S
C3389 C3391 1.389 . S
C3390 H3363 0.950 . S
C3390 C3376 1.377 . S
C3390 C3389 1.373 . S
C3391 C3375 1.377 . S
C3391 C3389 1.389 . S
C3391 C3392 1.524 . S
C3392 C3391 1.524 . S
C3392 C3393 1.397 . S
C3392 C3397 1.363 . S
C3393 H3364 0.950 . S
C3393 C3392 1.397 . S
C3393 C3394 1.334 . S
C3394 H3365 0.950 . S
C3394 C3393 1.334 . S
C3394 C3395 1.287 . S
C3395 C3394 1.287 . S
C3395 C3396 1.524 . S
C3395 H3398 0.999 . S
C3396 H3366 0.950 . S
C3396 C3395 1.524 . S
C3396 C3397 1.415 . S
C3397 H3367 0.950 . S
C3397 C3392 1.363 . S
C3397 C3396 1.415 . S
H3398 C3395 0.999 . S
H3399 C3380 0.913 . S
H3400 C3418 0.951 . S
H3401 C3420 0.951 . S
H3402 C3422 0.950 . S
H3403 C3423 0.950 . S
H3404 C3425 0.950 . S
H3405 C3428 0.950 . S
H3406 C3429 0.950 . S
H3407 C3431 0.950 . S
H3408 C3432 0.950 . S
H3409 C3433 0.951 . S
H3410 C3435 0.951 . S
H3411 C3437 0.950 . S
H3412 C3438 0.950 . S
H3413 C3440 0.950 . S
H3414 C3443 0.950 . S
H3415 C3444 0.950 . S
H3416 C3446 0.950 . S
H3417 C3447 0.950 . S
C3418 H3400 0.951 . S
C3418 C3419 1.366 . S
C3418 C3420 1.388 . S
C3419 C3418 1.366 . S
C3419 C3423 1.385 . S
C3420 H3401 0.951 . S
C3420 C3418 1.388 . S
C3420 C3421 1.366 . S
C3421 C3420 1.366 . S
C3421 C3422 1.414 . S
C3421 C3424 1.499 . S
C3422 H3402 0.950 . S
C3422 C3421 1.414 . S
C3422 C3423 1.374 . S
C3423 H3403 0.950 . S
C3423 C3419 1.385 . S
C3423 C3422 1.374 . S
C3424 C3421 1.499 . S
C3424 C3425 1.373 . S
C3424 C3426 1.389 . S
C3425 H3404 0.950 . S
C3425 C3424 1.373 . S
C3425 C3441 1.377 . S
C3426 C3424 1.389 . S
C3426 C3427 1.524 . S
C3426 C3440 1.377 . S
C3427 C3426 1.524 . S
C3427 C3428 1.397 . S
C3427 C3432 1.363 . S
C3428 H3405 0.950 . S
C3428 C3427 1.397 . S
C3428 C3429 1.334 . S
C3429 H3406 0.950 . S
C3429 C3428 1.334 . S
C3429 C3430 1.287 . S
C3430 C3429 1.287 . S
C3430 C3431 1.524 . S
C3430 H3449 0.913 . S
C3431 H3407 0.950 . S
C3431 C3430 1.524 . S
C3431 C3432 1.415 . S
C3432 H3408 0.950 . S
C3432 C3427 1.363 . S
C3432 C3431 1.415 . S
C3433 H3409 0.951 . S
C3433 C3434 1.366 . S
C3433 C3435 1.388 . S
C3434 C3433 1.366 . S
C3434 C3438 1.385 . S
C3435 H3410 0.951 . S
C3435 C3433 1.388 . S
C3435 C3436 1.366 . S
C3436 C3435 1.366 . S
C3436 C3437 1.414 . S
C3436 C3439 1.499 . S
C3437 H3411 0.950 . S
C3437 C3436 1.414 . S
C3437 C3438 1.374 . S
C3438 H3412 0.950 . S
C3438 C3434 1.385 . S
C3438 C3437 1.374 . S
C3439 C3436 1.499 . S
C3439 C3440 1.373 . S
C3439 C3441 1.389 . S
C3440 H3413 0.950 . S
C3440 C3426 1.377 . S
C3440 C3439 1.373 . S
C3441 C3425 1.377 . S
C3441 C3439 1.389 . S
C3441 C3442 1.524 . S
C3442 C3441 1.524 . S
C3442 C3443 1.397 . S
C3442 C3447 1.363 . S
C3443 H3414 0.950 . S
C3443 C3442 1.397 . S
C3443 C3444 1.334 . S
C3444 H3415 0.950 . S
C3444 C3443 1.334 . S
C3444 C3445 1.287 . S
C3445 C3444 1.287 . S
C3445 C3446 1.524 . S
C3445 H3448 0.999 . S
C3446 H3416 0.950 . S
C3446 C3445 1.524 . S
C3446 C3447 1.415 . S
C3447 H3417 0.950 . S
C3447 C3442 1.363 . S
C3447 C3446 1.415 . S
H3448 C3445 0.999 . S
H3449 C3430 0.913 . S
H3450 C3468 0.951 . S
H3451 C3470 0.951 . S
H3452 C3472 0.950 . S
H3453 C3473 0.950 . S
H3454 C3475 0.950 . S
H3455 C3478 0.950 . S
H3456 C3479 0.950 . S
H3457 C3481 0.950 . S
H3458 C3482 0.950 . S
H3459 C3483 0.951 . S
H3460 C3485 0.951 . S
H3461 C3487 0.950 . S
H3462 C3488 0.950 . S
H3463 C3490 0.950 . S
H3464 C3493 0.950 . S
H3465 C3494 0.950 . S
H3466 C3496 0.950 . S
H3467 C3497 0.950 . S
C3468 H3450 0.951 . S
C3468 C3469 1.366 . S
C3468 C3470 1.388 . S
C3469 C3468 1.366 . S
C3469 C3473 1.385 . S
C3470 H3451 0.951 . S
C3470 C3468 1.388 . S
C3470 C3471 1.366 . S
C3471 C3470 1.366 . S
C3471 C3472 1.414 . S
C3471 C3474 1.499 . S
C3472 H3452 0.950 . S
C3472 C3471 1.414 . S
C3472 C3473 1.374 . S
C3473 H3453 0.950 . S
C3473 C3469 1.385 . S
C3473 C3472 1.374 . S
C3474 C3471 1.499 . S
C3474 C3475 1.373 . S
C3474 C3476 1.389 . S
C3475 H3454 0.950 . S
C3475 C3474 1.373 . S
C3475 C3491 1.377 . S
C3476 C3474 1.389 . S
C3476 C3477 1.524 . S
C3476 C3490 1.377 . S
C3477 C3476 1.524 . S
C3477 C3478 1.397 . S
C3477 C3482 1.363 . S
C3478 H3455 0.950 . S
C3478 C3477 1.397 . S
C3478 C3479 1.334 . S
C3479 H3456 0.950 . S
C3479 C3478 1.334 . S
C3479 C3480 1.287 . S
C3480 C3479 1.287 . S
C3480 C3481 1.524 . S
C3480 H3499 0.913 . S
C3481 H3457 0.950 . S
C3481 C3480 1.524 . S
C3481 C3482 1.415 . S
C3482 H3458 0.950 . S
C3482 C3477 1.363 . S
C3482 C3481 1.415 . S
C3483 H3459 0.951 . S
C3483 C3484 1.366 . S
C3483 C3485 1.388 . S
C3484 C3483 1.366 . S
C3484 C3488 1.385 . S
C3485 H3460 0.951 . S
C3485 C3483 1.388 . S
C3485 C3486 1.366 . S
C3486 C3485 1.366 . S
C3486 C3487 1.414 . S
C3486 C3489 1.499 . S
C3487 H3461 0.950 . S
C3487 C3486 1.414 . S
C3487 C3488 1.374 . S
C3488 H3462 0.950 . S
C3488 C3484 1.385 . S
C3488 C3487 1.374 . S
C3489 C3486 1.499 . S
C3489 C3490 1.373 . S
C3489 C3491 1.389 . S
C3490 H3463 0.950 . S
C3490 C3476 1.377 . S
C3490 C3489 1.373 . S
C3491 C3475 1.377 . S
C3491 C3489 1.389 . S
C3491 C3492 1.524 . S
C3492 C3491 1.524 . S
C3492 C3493 1.397 . S
C3492 C3497 1.363 . S
C3493 H3464 0.950 . S
C3493 C3492 1.397 . S
C3493 C3494 1.334 . S
C3494 H3465 0.950 . S
C3494 C3493 1.334 . S
C3494 C3495 1.287 . S
C3495 C3494 1.287 . S
C3495 C3496 1.524 . S
C3495 H3498 0.999 . S
C3496 H3466 0.950 . S
C3496 C3495 1.524 . S
C3496 C3497 1.415 . S
C3497 H3467 0.950 . S
C3497 C3492 1.363 . S
C3497 C3496 1.415 . S
H3498 C3495 0.999 . S
H3499 C3480 0.913 . S
H3500 C3518 0.951 . S
H3501 C3520 0.951 . S
H3502 C3522 0.950 . S
H3503 C3523 0.950 . S
H3504 C3525 0.950 . S
H3505 C3528 0.950 . S
H3506 C3529 0.950 . S
H3507 C3531 0.950 . S
H3508 C3532 0.950 . S
H3509 C3533 0.951 . S
H3510 C3535 0.951 . S
H3511 C3537 0.950 . S
H3512 C3538 0.950 . S
H3513 C3540 0.950 . S
H3514 C3543 0.950 . S
H3515 C3544 0.950 . S
H3516 C3546 0.950 . S
H3517 C3547 0.950 . S
C3518 H3500 0.951 . S
C3518 C3519 1.366 . S
C3518 C3520 1.388 . S
C3519 C3518 1.366 . S
C3519 C3523 1.385 . S
C3520 H3501 0.951 . S
C3520 C3518 1.388 . S
C3520 C3521 1.366 . S
C3521 C3520 1.366 . S
C3521 C3522 1.414 . S
C3521 C3524 1.499 . S
C3522 H3502 0.950 . S
C3522 C3521 1.414 . S
C3522 C3523 1.374 . S
C3523 H3503 0.950 . S
C3523 C3519 1.385 . S
C3523 C3522 1.374 . S
C3524 C3521 1.499 . S
C3524 C3525 1.373 . S
C3524 C3526 1.389 . S
C3525 H3504 0.950 . S
C3525 C3524 1.373 . S
C3525 C3541 1.377 . S
C3526 C3524 1.389 . S
C3526 C3527 1.524 . S
C3526 C3540 1.377 . S
C3527 C3526 1.524 . S
C3527 C3528 1.397 . S
C3527 C3532 1.363 . S
C3528 H3505 0.950 . S
C3528 C3527 1.397 . S
C3528 C3529 1.334 . S
C3529 H3506 0.950 . S
C3529 C3528 1.334 . S
C3529 C3530 1.287 . S
C3530 C3529 1.287 . S
C3530 C3531 1.524 . S
C3530 H3549 0.913 . S
C3531 H3507 0.950 . S
C3531 C3530 1.524 . S
C3531 C3532 1.415 . S
C3532 H3508 0.950 . S
C3532 C3527 1.363 . S
C3532 C3531 1.415 . S
C3533 H3509 0.951 . S
C3533 C3534 1.366 . S
C3533 C3535 1.388 . S
C3534 C3533 1.366 . S
C3534 C3538 1.385 . S
C3535 H3510 0.951 . S
C3535 C3533 1.388 . S
C3535 C3536 1.366 . S
C3536 C3535 1.366 . S
C3536 C3537 1.414 . S
C3536 C3539 1.499 . S
C3537 H3511 0.950 . S
C3537 C3536 1.414 . S
C3537 C3538 1.374 . S
C3538 H3512 0.950 . S
C3538 C3534 1.385 . S
C3538 C3537 1.374 . S
C3539 C3536 1.499 . S
C3539 C3540 1.373 . S
C3539 C3541 1.389 . S
C3540 H3513 0.950 . S
C3540 C3526 1.377 . S
C3540 C3539 1.373 . S
C3541 C3525 1.377 . S
C3541 C3539 1.389 . S
C3541 C3542 1.524 . S
C3542 C3541 1.524 . S
C3542 C3543 1.397 . S
C3542 C3547 1.363 . S
C3543 H3514 0.950 . S
C3543 C3542 1.397 . S
C3543 C3544 1.334 . S
C3544 H3515 0.950 . S
C3544 C3543 1.334 . S
C3544 C3545 1.287 . S
C3545 C3544 1.287 . S
C3545 C3546 1.524 . S
C3545 H3548 0.999 . S
C3546 H3516 0.950 . S
C3546 C3545 1.524 . S
C3546 C3547 1.415 . S
C3547 H3517 0.950 . S
C3547 C3542 1.363 . S
C3547 C3546 1.415 . S
H3548 C3545 0.999 . S
H3549 C3530 0.913 . S
H3550 C3568 0.951 . S
H3551 C3570 0.951 . S
H3552 C3572 0.950 . S
H3553 C3573 0.950 . S
H3554 C3575 0.950 . S
H3555 C3578 0.950 . S
H3556 C3579 0.950 . S
H3557 C3581 0.950 . S
H3558 C3582 0.950 . S
H3559 C3583 0.951 . S
H3560 C3585 0.951 . S
H3561 C3587 0.950 . S
H3562 C3588 0.950 . S
H3563 C3590 0.950 . S
H3564 C3593 0.950 . S
H3565 C3594 0.950 . S
H3566 C3596 0.950 . S
H3567 C3597 0.950 . S
C3568 H3550 0.951 . S
C3568 C3569 1.366 . S
C3568 C3570 1.388 . S
C3569 C3568 1.366 . S
C3569 C3573 1.385 . S
C3570 H3551 0.951 . S
C3570 C3568 1.388 . S
C3570 C3571 1.366 . S
C3571 C3570 1.366 . S
C3571 C3572 1.414 . S
C3571 C3574 1.499 . S
C3572 H3552 0.950 . S
C3572 C3571 1.414 . S
C3572 C3573 1.374 . S
C3573 H3553 0.950 . S
C3573 C3569 1.385 . S
C3573 C3572 1.374 . S
C3574 C3571 1.499 . S
C3574 C3575 1.373 . S
C3574 C3576 1.389 . S
C3575 H3554 0.950 . S
C3575 C3574 1.373 . S
C3575 C3591 1.377 . S
C3576 C3574 1.389 . S
C3576 C3577 1.524 . S
C3576 C3590 1.377 . S
C3577 C3576 1.524 . S
C3577 C3578 1.397 . S
C3577 C3582 1.363 . S
C3578 H3555 0.950 . S
C3578 C3577 1.397 . S
C3578 C3579 1.334 . S
C3579 H3556 0.950 . S
C3579 C3578 1.334 . S
C3579 C3580 1.287 . S
C3580 C3579 1.287 . S
C3580 C3581 1.524 . S
C3580 H3599 0.913 . S
C3581 H3557 0.950 . S
C3581 C3580 1.524 . S
C3581 C3582 1.415 . S
C3582 H3558 0.950 . S
C3582 C3577 1.363 . S
C3582 C3581 1.415 . S
C3583 H3559 0.951 . S
C3583 C3584 1.366 . S
C3583 C3585 1.388 . S
C3584 C3583 1.366 . S
C3584 C3588 1.385 . S
C3585 H3560 0.951 . S
C3585 C3583 1.388 . S
C3585 C3586 1.366 . S
C3586 C3585 1.366 . S
C3586 C3587 1.414 . S
C3586 C3589 1.499 . S
C3587 H3561 0.950 . S
C3587 C3586 1.414 . S
C3587 C3588 1.374 . S
C3588 H3562 0.950 . S
C3588 C3584 1.385 . S
C3588 C3587 1.374 . S
C3589 C3586 1.499 . S
C3589 C3590 1.373 . S
C3589 C3591 1.389 . S
C3590 H3563 0.950 . S
C3590 C3576 1.377 . S
C3590 C3589 1.373 . S
C3591 C3575 1.377 . S
C3591 C3589 1.389 . S
C3591 C3592 1.524 . S
C3592 C3591 1.524 . S
C3592 C3593 1.397 . S
C3592 C3597 1.363 . S
C3593 H3564 0.950 . S
C3593 C3592 1.397 . S
C3593 C3594 1.334 . S
C3594 H3565 0.950 . S
C3594 C3593 1.334 . S
C3594 C3595 1.287 . S
C3595 C3594 1.287 . S
C3595 C3596 1.524 . S
C3595 H3598 0.999 . S
C3596 H3566 0.950 . S
C3596 C3595 1.524 . S
C3596 C3597 1.415 . S
C3597 H3567 0.950 . S
C3597 C3592 1.363 . S
C3597 C3596 1.415 . S
H3598 C3595 0.999 . S
H3599 C3580 0.913 . S
C919 C522 1.577 . S
C934 C726 1.549 . S
C969 C562 1.543 . S
C984 C746 1.513 . S
C1019 C495 1.589 . S
C1034 C769 1.589 . S
C1069 C455 1.455 . S
C1084 C749 1.453 . S
C1134 C766 1.386 . S
C1119 C362 1.398 . S
C1169 C402 1.452 . S
C1184 C729 1.437 . S
C1234 C736 1.576 . S
C1219 C442 1.558 . S
C1284 C756 1.487 . S
C1269 C375 1.518 . S
C1319 C415 1.595 . S
C1334 C761 1.590 . S
C1369 C535 1.458 . S
C1384 C741 1.452 . S
C1419 C575 1.376 . S
C1434 C776 1.358 . S
C1484 C721 1.465 . S
C1469 C482 1.432 . S
C1534 C786 1.550 . S
C1519 C42 1.577 . S
C1569 C82 1.544 . S
C1584 C806 1.512 . S
C1619 C15 1.589 . S
C1634 C829 1.590 . S
C1669 C695 1.455 . S
C1684 C809 1.453 . S
C1719 C602 1.398 . S
C1734 C826 1.386 . S
C1769 C642 1.452 . S
C1784 C789 1.437 . S
C1819 C682 1.557 . S
C1834 C796 1.576 . S
C1869 C615 1.518 . S
C1884 C816 1.487 . S
C1934 C821 1.590 . S
C1919 C655 1.595 . S
C1969 C55 1.459 . S
C1984 C801 1.452 . S
C2034 C836 1.359 . S
C2019 C95 1.376 . S
C2069 C2 1.432 . S
C2084 C781 1.465 . S
C2134 C846 1.550 . S
C2119 C282 1.577 . S
C2169 C322 1.543 . S
C2184 C866 1.512 . S
C2234 C889 1.590 . S
C2219 C255 1.589 . S
C2284 C869 1.453 . S
C2269 C215 1.455 . S
C2334 C886 1.386 . S
C2319 C122 1.398 . S
C2369 C162 1.452 . S
C2384 C849 1.437 . S
C2419 C202 1.558 . S
C2434 C856 1.576 . S
C2469 C135 1.518 . S
C2484 C876 1.487 . S
C2534 C881 1.590 . S
C2519 C175 1.595 . S
C2569 C295 1.459 . S
C2584 C861 1.452 . S
C2619 C335 1.376 . S
C2634 C896 1.358 . S
C2669 C242 1.432 . S
C2684 C841 1.465 . S
C2719 C621 1.184 . S
C2734 C739 1.137 1_565 S
C2784 C759 1.674 . S
C2769 C661 1.753 . S
C2819 C701 1.499 . S
C2834 C768 1.487 . S
C2869 C261 1.724 . S
C2884 C748 1.701 1_655 S
C2919 C301 1.510 . S
C2934 C779 1.457 . S
C2984 C728 1.164 . S
C2969 C341 1.177 . S
C3019 C141 1.184 . S
C3034 C799 1.158 . S
C3069 C181 1.753 . S
C3084 C819 1.675 . S
C3119 C221 1.498 . S
C3134 C828 1.486 . S
C3169 C501 1.723 . S
C3184 C808 1.702 . S
C3234 C839 1.458 . S
C3219 C541 1.510 . S
C3269 C581 1.177 . S
C3284 C788 1.152 . S
C3319 C381 1.185 . S
C3334 C859 1.157 . S
C3369 C421 1.753 . S
C3384 C879 1.675 . S
C3434 C888 1.486 . S
C3419 C461 1.498 . S
C3469 C21 1.724 . S
C3484 C868 1.702 . S
C3519 C61 1.510 . S
C3534 C899 1.457 . S
C3569 C101 1.177 . S
C3584 C848 1.151 . S
