# Generated by pormake.
# Topology ocu, (6,8)-cn, num edge types: 1
# Building blocks:
#     Node 0, Type 0, BuildingBlock: KUMBOL_clean_sbu_1, # of connection points: 6
#     Node 1, Type 0, BuildingBlock: KUMBOL_clean_sbu_1, # of connection points: 6
#     Node 2, Type 0, BuildingBlock: KUMBOL_clean_sbu_1, # of connection points: 6
#     Node 3, Type 0, BuildingBlock: KUMBOL_clean_sbu_1, # of connection points: 6
#     Node 4, Type 0, BuildingBlock: KUMBOL_clean_sbu_1, # of connection points: 6
#     Node 5, Type 0, BuildingBlock: KUMBOL_clean_sbu_1, # of connection points: 6
#     Node 6, Type 0, BuildingBlock: KUMBOL_clean_sbu_1, # of connection points: 6
#     Node 7, Type 0, BuildingBlock: KUMBOL_clean_sbu_1, # of connection points: 6
#     Node 8, Type 1, BuildingBlock: GIZVER_clean_sbu_0, # of connection points: 8
#     Node 9, Type 1, BuildingBlock: GIZVER_clean_sbu_0, # of connection points: 8
#     Node 10, Type 1, BuildingBlock: GIZVER_clean_sbu_0, # of connection points: 8
#     Node 11, Type 1, BuildingBlock: GIZVER_clean_sbu_0, # of connection points: 8
#     Node 12, Type 1, BuildingBlock: GIZVER_clean_sbu_0, # of connection points: 8
#     Node 13, Type 1, BuildingBlock: GIZVER_clean_sbu_0, # of connection points: 8
#     Edge 14, Type (0, 1), BuildingBlock: EZIPEK_clean_linker_0, # of connection points: 2
#     Edge 15, Type (0, 1), BuildingBlock: EZIPEK_clean_linker_0, # of connection points: 2
#     Edge 16, Type (0, 1), BuildingBlock: EZIPEK_clean_linker_0, # of connection points: 2
#     Edge 17, Type (0, 1), BuildingBlock: EZIPEK_clean_linker_0, # of connection points: 2
#     Edge 18, Type (0, 1), BuildingBlock: EZIPEK_clean_linker_0, # of connection points: 2
#     Edge 19, Type (0, 1), BuildingBlock: EZIPEK_clean_linker_0, # of connection points: 2
#     Edge 20, Type (0, 1), BuildingBlock: EZIPEK_clean_linker_0, # of connection points: 2
#     Edge 21, Type (0, 1), BuildingBlock: EZIPEK_clean_linker_0, # of connection points: 2
#     Edge 22, Type (0, 1), BuildingBlock: EZIPEK_clean_linker_0, # of connection points: 2
#     Edge 23, Type (0, 1), BuildingBlock: EZIPEK_clean_linker_0, # of connection points: 2
#     Edge 24, Type (0, 1), BuildingBlock: EZIPEK_clean_linker_0, # of connection points: 2
#     Edge 25, Type (0, 1), BuildingBlock: EZIPEK_clean_linker_0, # of connection points: 2
#     Edge 26, Type (0, 1), BuildingBlock: EZIPEK_clean_linker_0, # of connection points: 2
#     Edge 27, Type (0, 1), BuildingBlock: EZIPEK_clean_linker_0, # of connection points: 2
#     Edge 28, Type (0, 1), BuildingBlock: EZIPEK_clean_linker_0, # of connection points: 2
#     Edge 29, Type (0, 1), BuildingBlock: EZIPEK_clean_linker_0, # of connection points: 2
#     Edge 30, Type (0, 1), BuildingBlock: EZIPEK_clean_linker_0, # of connection points: 2
#     Edge 31, Type (0, 1), BuildingBlock: EZIPEK_clean_linker_0, # of connection points: 2
#     Edge 32, Type (0, 1), BuildingBlock: EZIPEK_clean_linker_0, # of connection points: 2
#     Edge 33, Type (0, 1), BuildingBlock: EZIPEK_clean_linker_0, # of connection points: 2
#     Edge 34, Type (0, 1), BuildingBlock: EZIPEK_clean_linker_0, # of connection points: 2
#     Edge 35, Type (0, 1), BuildingBlock: EZIPEK_clean_linker_0, # of connection points: 2
#     Edge 36, Type (0, 1), BuildingBlock: EZIPEK_clean_linker_0, # of connection points: 2
#     Edge 37, Type (0, 1), BuildingBlock: EZIPEK_clean_linker_0, # of connection points: 2
#     Edge 38, Type (0, 1), BuildingBlock: EZIPEK_clean_linker_0, # of connection points: 2
#     Edge 39, Type (0, 1), BuildingBlock: EZIPEK_clean_linker_0, # of connection points: 2
#     Edge 40, Type (0, 1), BuildingBlock: EZIPEK_clean_linker_0, # of connection points: 2
#     Edge 41, Type (0, 1), BuildingBlock: EZIPEK_clean_linker_0, # of connection points: 2
#     Edge 42, Type (0, 1), BuildingBlock: EZIPEK_clean_linker_0, # of connection points: 2
#     Edge 43, Type (0, 1), BuildingBlock: EZIPEK_clean_linker_0, # of connection points: 2
#     Edge 44, Type (0, 1), BuildingBlock: EZIPEK_clean_linker_0, # of connection points: 2
#     Edge 45, Type (0, 1), BuildingBlock: EZIPEK_clean_linker_0, # of connection points: 2
#     Edge 46, Type (0, 1), BuildingBlock: EZIPEK_clean_linker_0, # of connection points: 2
#     Edge 47, Type (0, 1), BuildingBlock: EZIPEK_clean_linker_0, # of connection points: 2
#     Edge 48, Type (0, 1), BuildingBlock: EZIPEK_clean_linker_0, # of connection points: 2
#     Edge 49, Type (0, 1), BuildingBlock: EZIPEK_clean_linker_0, # of connection points: 2
#     Edge 50, Type (0, 1), BuildingBlock: EZIPEK_clean_linker_0, # of connection points: 2
#     Edge 51, Type (0, 1), BuildingBlock: EZIPEK_clean_linker_0, # of connection points: 2
#     Edge 52, Type (0, 1), BuildingBlock: EZIPEK_clean_linker_0, # of connection points: 2
#     Edge 53, Type (0, 1), BuildingBlock: EZIPEK_clean_linker_0, # of connection points: 2
#     Edge 54, Type (0, 1), BuildingBlock: EZIPEK_clean_linker_0, # of connection points: 2
#     Edge 55, Type (0, 1), BuildingBlock: EZIPEK_clean_linker_0, # of connection points: 2
#     Edge 56, Type (0, 1), BuildingBlock: EZIPEK_clean_linker_0, # of connection points: 2
#     Edge 57, Type (0, 1), BuildingBlock: EZIPEK_clean_linker_0, # of connection points: 2
#     Edge 58, Type (0, 1), BuildingBlock: EZIPEK_clean_linker_0, # of connection points: 2
#     Edge 59, Type (0, 1), BuildingBlock: EZIPEK_clean_linker_0, # of connection points: 2
#     Edge 60, Type (0, 1), BuildingBlock: EZIPEK_clean_linker_0, # of connection points: 2
#     Edge 61, Type (0, 1), BuildingBlock: EZIPEK_clean_linker_0, # of connection points: 2
# Relax obj value: 0.198
# Max RMSD: 0.207
# Mean RMSD: 0.175
data_MOF--net-ocu--node1-KUMBOL_clean_sbu_1--node2-GIZVER_clean_sbu_0--edge1-EZIPEK_clean_linker_0
_symmetry_space_group_name_H-M    P1
_symmetry_Int_Tables_number       1
_symmetry_cell_setting            triclinic
loop_
_symmetry_equiv_pos_as_xyz
'x, y, z'
_cell_length_a     33.895093
_cell_length_b     35.466658
_cell_length_c     27.390095
_cell_angle_alpha  102.13679
_cell_angle_beta   78.444664
_cell_angle_gamma 117.71765
loop_
_atom_site_label
_atom_site_type_symbol
_atom_site_fract_x
_atom_site_fract_y
_atom_site_fract_z
_atom_type_partial_charge
C0 C 0.38143 0.39444 0.36005 0.0
C1 C 0.33764 0.3935 0.44228 0.0
C2 C 0.34473 0.37264 0.39388 0.0
C3 C 0.36649 0.43701 0.45544 0.0
C4 C 0.41165 0.43754 0.37422 0.0
C5 C 0.40332 0.45897 0.42151 0.0
N6 N 0.38907 0.3728 0.31465 0.0
C7 C 0.42783 0.39141 0.28337 0.0
C8 C 0.45028 0.45741 0.34125 0.0
C9 C 0.45878 0.434 0.29608 0.0
Gd10 Gd 0.24183 0.25215 0.21012 0.0
Gd11 Gd 0.33555 0.30084 0.29975 0.0
N12 N 0.31695 0.33056 0.38021 0.0
C13 C 0.30273 0.36953 0.47666 0.0
C14 C 0.28554 0.3062 0.41482 0.0
C15 C 0.2771 0.32552 0.46317 0.0
H16 H 0.2671 0.27196 0.40488 0.0
H17 H 0.25137 0.30639 0.49021 0.0
H18 H 0.32429 0.29679 0.1145 0.0
H19 H 0.43511 0.37317 0.24888 0.0
H20 H 0.33064 0.28259 0.02198 0.0
H21 H 0.29647 0.38426 0.51431 0.0
H22 H 0.36143 0.45365 0.49234 0.0
H23 H 0.17624 0.15686 0.25493 0.0
H24 H 0.47435 0.49042 0.35092 0.0
H25 H 0.48912 0.44876 0.27097 0.0
H26 H 0.20937 0.14245 0.98925 0.0
H27 H 0.42596 0.49219 0.43282 0.0
H28 H 0.13613 0.06135 0.12757 0.0
H29 H 0.13402 0.0816 0.21981 0.0
N30 N 0.20914 0.17787 0.18434 0.0
C31 C 0.21128 0.16724 0.13353 0.0
C32 C 0.18137 0.14781 0.21518 0.0
C33 C 0.15712 0.09399 0.14303 0.0
C34 C 0.156 0.10524 0.1951 0.0
C35 C 0.18433 0.1253 0.11157 0.0
H36 H 0.16185 0.08506 0.04175 0.0
N37 N 0.26645 0.23863 0.12516 0.0
C38 C 0.24008 0.19869 0.10316 0.0
C39 C 0.27413 0.21994 0.02094 0.0
C40 C 0.24198 0.18893 0.05047 0.0
C41 C 0.29954 0.26805 0.09683 0.0
C42 C 0.30405 0.25921 0.04431 0.0
O43 O 0.28038 0.3273 0.32675 0.0
O44 O 0.23702 0.31056 0.26281 0.0
O45 O 0.20702 0.26344 0.15987 0.0
O46 O 0.1693 0.22336 0.21845 0.0
O47 O 0.28077 0.23339 0.3085 0.0
O48 O 0.21921 0.23464 0.28899 0.0
O49 O 0.28877 0.2169 0.19495 0.0
O50 O 0.35607 0.26546 0.22499 0.0
O51 O 0.34459 0.25653 0.33687 0.0
O52 O 0.39858 0.31875 0.32694 0.0
O53 O 0.29195 0.3207 0.19854 0.0
O54 O 0.35681 0.3323 0.22739 0.0
C55 C 0.24951 0.33178 0.30746 0.0
C56 C 0.23715 0.21903 0.31261 0.0
C57 C 0.13276 0.2565 0.18977 0.0
C58 C 0.09801 0.2935 0.16101 0.0
C59 C 0.06174 0.25455 0.23283 0.0
C60 C 0.09649 0.24282 0.22794 0.0
C61 C 0.06238 0.2797 0.19955 0.0
C62 C 0.13313 0.28179 0.15609 0.0
C63 C 0.16735 0.24069 0.1821 0.0
C64 C 0.21174 0.14869 0.02905 0.0
C65 C 0.18397 0.11646 0.05921 0.0
H66 H 0.27721 0.21324 0.98025 0.0
C67 C 0.3321 0.22844 0.19773 0.0
C68 C 0.33513 0.34366 0.20236 0.0
C69 C 0.42001 0.26443 0.32817 0.0
C70 C 0.45633 0.22442 0.348 0.0
C71 C 0.48604 0.26257 0.275 0.0
C72 C 0.45211 0.27595 0.28575 0.0
C73 C 0.48834 0.23723 0.306 0.0
C74 C 0.42215 0.23829 0.35919 0.0
C75 C 0.38662 0.28223 0.3418 0.0
H76 H 1.03411 0.24392 0.26242 0.0
H77 H 0.09459 0.22257 0.25378 0.0
H78 H 1.03526 0.28872 0.20401 0.0
H79 H 0.16042 0.29224 0.12602 0.0
H80 H 0.51069 0.27187 0.24242 0.0
H81 H 0.45134 0.29577 0.26112 0.0
H82 H 0.51489 0.2271 0.29686 0.0
H83 H 0.39753 0.22887 0.39174 0.0
C84 C 0.87332 0.22683 0.13559 0.0
C85 C 0.94504 0.28903 0.12486 0.0
C86 C 0.90466 0.26662 0.15451 0.0
C87 C 0.95224 0.27191 0.07461 0.0
C88 C 0.88149 0.20813 0.08626 0.0
C89 C 0.92047 0.23147 0.05531 0.0
N90 N 0.83664 0.20499 0.16696 0.0
C91 C 0.80875 0.16291 0.15293 0.0
C92 C 0.85114 0.16594 0.07033 0.0
C93 C 0.81507 0.14295 0.10418 0.0
Gd94 Gd 0.74246 0.29964 0.2932 0.0
Gd95 Gd 0.82527 0.24395 0.24482 0.0
N96 N 0.89685 0.28205 0.20328 0.0
C97 C 0.97755 0.32714 0.14727 0.0
C98 C 0.93045 0.3161 0.22687 0.0
C99 C 0.97091 0.34006 0.19889 0.0
H100 H 0.92522 0.32538 0.2669 0.0
H101 H 0.99683 0.36837 0.21703 0.0
H102 H 0.64097 0.21832 0.30073 0.0
H103 H 0.78172 0.14486 0.17947 0.0
H104 H 0.58093 0.18093 0.3665 0.0
H105 H 1.00835 0.34578 0.12536 0.0
H106 H 0.98288 0.28898 0.05096 0.0
H107 H 0.80026 0.40265 0.34754 0.0
H108 H 0.85618 0.15033 0.03273 0.0
H109 H 0.79232 0.10981 0.09285 0.0
H110 H 0.63086 0.27139 0.52013 0.0
H111 H 0.92709 0.21793 0.01703 0.0
H112 H 0.75808 0.40783 0.5056 0.0
H113 H 0.80732 0.44306 0.43277 0.0
N114 N 0.75114 0.34324 0.3723 0.0
C115 C 0.72197 0.32398 0.41156 0.0
C116 C 0.77992 0.38616 0.37921 0.0
C117 C 0.75583 0.38938 0.46848 0.0
C118 C 0.78356 0.40945 0.42742 0.0
C119 C 0.72359 0.34658 0.46071 0.0
H120 H 0.69201 0.34368 0.53779 0.0
N121 N 0.68394 0.26409 0.35321 0.0
C122 C 0.6871 0.28328 0.40164 0.0
C123 C 0.6156 0.22591 0.42761 0.0
C124 C 0.6532 0.26431 0.44036 0.0
C125 C 0.64523 0.22969 0.33996 0.0
C126 C 0.61102 0.20917 0.377 0.0
O127 O 0.8481 0.30428 0.20931 0.0
O128 O 0.79874 0.33555 0.23284 0.0
O129 O 0.70111 0.29937 0.24178 0.0
O130 O 0.7076 0.33945 0.31393 0.0
O131 O 0.83883 0.2955 0.31431 0.0
O132 O 0.81466 0.3433 0.30305 0.0
O133 O 0.73684 0.24546 0.33197 0.0
O134 O 0.75488 0.1985 0.27193 0.0
O135 O 0.84065 0.23773 0.31504 0.0
O136 O 0.85564 0.20195 0.24554 0.0
O137 O 0.71518 0.24375 0.23186 0.0
O138 O 0.76457 0.21324 0.19949 0.0
C139 C 0.83519 0.33339 0.20595 0.0
C140 C 0.84128 0.33446 0.3221 0.0
C141 C 0.69878 0.36524 0.24698 0.0
C142 C 0.67182 0.39219 0.19337 0.0
C143 C 0.7361 0.44106 0.23807 0.0
C144 C 0.73285 0.40686 0.25867 0.0
C145 C 0.70551 0.4339 0.2059 0.0
C146 C 0.66908 0.35783 0.21335 0.0
C147 C 0.69253 0.32943 0.27078 0.0
C148 C 0.65642 0.28557 0.48983 0.0
C149 C 0.69135 0.32672 0.4999 0.0
H150 H 0.58884 0.21034 0.45623 0.0
C151 C 0.73072 0.20597 0.31301 0.0
C152 C 0.72734 0.21691 0.19908 0.0
C153 C 0.8412 0.1726 0.32084 0.0
C154 C 0.85898 0.13614 0.3734 0.0
C155 C 0.78709 0.10139 0.34 0.0
C156 C 0.79937 0.13694 0.31583 0.0
C157 C 0.81675 0.10082 0.36842 0.0
C158 C 0.87048 0.1725 0.35057 0.0
C159 C 0.85571 0.20963 0.29418 0.0
H160 H 0.76215 0.47315 0.24726 0.0
H161 H 0.75657 0.413 0.28402 0.0
H162 H 0.70832 0.46085 0.19033 0.0
H163 H 0.64341 0.32558 0.20341 0.0
H164 H 0.75475 0.07393 0.33609 0.0
H165 H 0.77642 0.1365 0.29307 0.0
H166 H 0.80719 0.07246 0.38562 0.0
H167 H 0.90308 0.19982 0.35402 0.0
C168 C 0.91405 0.84869 0.14942 0.0
C169 C 0.92086 0.79964 0.07524 0.0
C170 C 0.89512 0.80981 0.11837 0.0
C171 C 0.96653 0.82776 0.0655 0.0
C172 C 0.95917 0.87814 0.13796 0.0
C173 C 0.98561 0.86693 0.09672 0.0
N174 N 0.88754 0.85894 0.18876 0.0
C175 C 0.90314 0.89882 0.21641 0.0
C176 C 0.97594 0.91854 0.16732 0.0
C177 C 0.94764 0.92912 0.20626 0.0
Gd178 Gd 0.75627 0.72437 0.30196 0.0
Gd179 Gd 0.81403 0.80538 0.20249 0.0
N180 N 0.85078 0.78319 0.12858 0.0
C181 C 0.89943 0.76241 0.0421 0.0
C182 C 0.82873 0.74985 0.09347 0.0
C183 C 0.85294 0.73801 0.05057 0.0
H184 H 0.7927 0.7319 0.09964 0.0
H185 H 0.83576 0.71041 0.02387 0.0
H186 H 0.78655 0.78801 0.40891 0.0
H187 H 0.88114 0.90706 0.24632 0.0
H188 H 0.75063 0.80624 0.49211 0.0
H189 H 0.91812 0.75336 0.00874 0.0
H190 H 0.98698 0.82024 0.03291 0.0
H191 H 0.66939 0.64026 0.24343 0.0
H192 H 1.01039 0.94209 0.1596 0.0
H193 H 0.96013 0.96051 0.22857 0.0
H194 H 0.59345 0.73507 0.47409 0.0
H195 H 1.02051 0.88891 0.08772 0.0
H196 H 0.54695 0.63677 0.32478 0.0
H197 H 0.58756 0.60993 0.25198 0.0
N198 N 0.67693 0.68955 0.30622 0.0
C199 C 0.65496 0.70254 0.34864 0.0
C200 C 0.65298 0.65495 0.27339 0.0
C201 C 0.58332 0.65167 0.32016 0.0
C202 C 0.60611 0.63654 0.27893 0.0
C203 C 0.60758 0.68402 0.35652 0.0
H204 H 0.54949 0.68324 0.40768 0.0
N205 N 0.7253 0.7499 0.3779 0.0
C206 C 0.67971 0.73243 0.3861 0.0
C207 C 0.68371 0.77074 0.47055 0.0
C208 C 0.6578 0.74364 0.43218 0.0
C209 C 0.75063 0.77546 0.41546 0.0
C210 C 0.73028 0.78594 0.46248 0.0
O211 O 0.83841 0.75131 0.18742 0.0
O212 O 0.80434 0.703 0.24525 0.0
O213 O 0.78113 0.71082 0.35994 0.0
O214 O 0.72582 0.65965 0.32306 0.0
O215 O 0.74209 0.75364 0.19797 0.0
O216 O 0.73995 0.69534 0.22149 0.0
O217 O 0.73538 0.78163 0.31497 0.0
O218 O 0.78548 0.83854 0.27186 0.0
O219 O 0.7633 0.80421 0.16333 0.0
O220 O 0.83042 0.85581 0.15822 0.0
O221 O 0.8285 0.77304 0.31346 0.0
O222 O 0.84645 0.83268 0.2766 0.0
C223 C 0.83301 0.71655 0.20494 0.0
C224 C 0.7278 0.71189 0.19195 0.0
C225 C 0.76968 0.6392 0.3609 0.0
C226 C 0.82805 0.62134 0.37527 0.0
C227 C 0.74917 0.5697 0.38489 0.0
C228 C 0.73701 0.59852 0.37217 0.0
C229 C 0.79407 0.58113 0.38707 0.0
C230 C 0.81567 0.65029 0.36117 0.0
C231 C 0.75343 0.6703 0.3559 0.0
C232 C 0.61082 0.72645 0.43913 0.0
C233 C 0.5858 0.69697 0.40127 0.0
H234 H 0.66801 0.77938 0.50676 0.0
C235 C 0.74989 0.82187 0.30524 0.0
C236 C 0.85457 0.8137 0.3078 0.0
C237 C 0.77197 0.87248 0.15366 0.0
C238 C 0.73019 0.90154 0.12338 0.0
C239 C 0.76477 0.93556 0.20059 0.0
C240 C 0.78105 0.90512 0.19499 0.0
C241 C 0.73937 0.93376 0.16513 0.0
C242 C 0.74675 0.87092 0.11763 0.0
C243 C 0.78992 0.84091 0.14703 0.0
H244 H 0.72355 0.53861 0.39408 0.0
H245 H 0.70168 0.58947 0.37268 0.0
H246 H 0.80243 0.55826 0.39791 0.0
H247 H 0.84134 0.68133 0.35179 0.0
H248 H 0.77175 0.96056 0.2326 0.0
H249 H 0.80062 0.907 0.22298 0.0
H250 H 0.72714 0.95779 0.16996 0.0
H251 H 0.74035 0.84635 0.08509 0.0
C252 C 0.37263 0.74204 0.33049 0.0
C253 C 0.32554 0.67274 0.35842 0.0
C254 C 0.33654 0.70248 0.32508 0.0
C255 C 0.34954 0.68528 0.39996 0.0
C256 C 0.39947 0.75359 0.36939 0.0
C257 C 0.38656 0.72577 0.40547 0.0
N258 N 0.38441 0.76706 0.29402 0.0
C259 C 0.42581 0.80156 0.29063 0.0
C260 C 0.43964 0.79148 0.36907 0.0
C261 C 0.45342 0.81501 0.32875 0.0
Gd262 Gd 0.25008 0.80448 0.26298 0.0
Gd263 Gd 0.33134 0.7474 0.23718 0.0
N264 N 0.31518 0.69159 0.28391 0.0
C265 C 0.29223 0.63086 0.34763 0.0
C266 C 0.28534 0.64983 0.27104 0.0
C267 C 0.27265 0.61914 0.30316 0.0
H268 H 0.26984 0.64067 0.237 0.0
H269 H 0.24773 0.58653 0.29366 0.0
H270 H 0.26917 0.86708 0.37838 0.0
H271 H 0.43663 0.8199 0.25958 0.0
H272 H 0.30866 0.94433 0.40943 0.0
H273 H 0.2826 0.60702 0.37232 0.0
H274 H 0.34101 0.66325 0.42665 0.0
H275 H 0.2119 0.79812 0.15787 0.0
H276 H 0.46122 0.80165 0.39831 0.0
H277 H 0.48526 0.84344 0.32696 0.0
H278 H 0.3268 1.01465 0.26936 0.0
H279 H 0.40616 0.73439 0.43627 0.0
H280 H 0.26246 0.92537 0.12079 0.0
H281 H 0.2207 0.84657 0.09897 0.0
N282 N 0.24956 0.84893 0.21093 0.0
C283 C 0.26985 0.89186 0.22503 0.0
C284 C 0.23038 0.83242 0.16725 0.0
C285 C 0.25871 0.90422 0.14655 0.0
C286 C 0.23514 0.85975 0.13407 0.0
C287 C 0.27571 0.92086 0.19299 0.0
H288 H 0.30278 0.98815 0.18455 0.0
N289 N 0.27393 0.87697 0.30287 0.0
C290 C 0.28258 0.90646 0.27268 0.0
C291 C 0.31323 0.9646 0.3391 0.0
C292 C 0.30259 0.95099 0.28973 0.0
C293 C 0.27978 0.8902 0.35267 0.0
C294 C 0.30133 0.93405 0.37084 0.0
O295 O 0.25957 0.71068 0.27124 0.0
O296 O 0.24311 0.76277 0.32143 0.0
O297 O 0.1891 0.8121 0.29042 0.0
O298 O 0.18497 0.74965 0.25756 0.0
O299 O 0.26218 0.70988 0.20962 0.0
O300 O 0.25137 0.76214 0.18773 0.0
O301 O 0.30197 0.82169 0.19404 0.0
O302 O 0.36107 0.81378 0.21227 0.0
O303 O 0.33678 0.73264 0.15647 0.0
O304 O 0.37969 0.72395 0.19725 0.0
O305 O 0.29651 0.82188 0.32281 0.0
O306 O 0.35809 0.81538 0.27923 0.0
C307 C 0.23689 0.72238 0.31077 0.0
C308 C 0.24478 0.72183 0.18043 0.0
C309 C 0.13835 0.75232 0.33197 0.0
C310 C 0.13142 0.75741 0.42372 0.0
C311 C 0.08257 0.69217 0.37404 0.0
C312 C 0.10275 0.71092 0.32996 0.0
C313 C 0.0969 0.71496 0.42049 0.0
C314 C 0.15282 0.77481 0.37851 0.0
C315 C 0.16395 0.77061 0.28562 0.0
C316 C 0.3109 0.98033 0.25716 0.0
C317 C 0.29731 0.96527 0.20887 0.0
H318 H 0.32938 0.99849 0.35345 0.0
C319 C 0.34511 0.83238 0.18979 0.0
C320 C 0.34021 0.83445 0.31672 0.0
C321 C 0.40853 0.74804 0.11754 0.0
C322 C 0.44208 0.75056 0.02976 0.0
C323 C 0.47437 0.8117 0.09433 0.0
C324 C 0.44146 0.78953 0.13107 0.0
C325 C 0.47475 0.79245 0.04423 0.0
C326 C 0.4083 0.72937 0.06749 0.0
C327 C 0.37098 0.72489 0.15347 0.0
H328 H 0.05549 0.65991 0.3723 0.0
H329 H 0.09153 0.6927 0.29425 0.0
H330 H 0.07997 0.69946 0.45362 0.0
H331 H 0.18032 0.80676 0.37915 0.0
H332 H 0.49955 0.84403 0.10457 0.0
H333 H 0.44115 0.80501 0.16954 0.0
H334 H 0.50051 0.81078 0.01709 0.0
H335 H 0.38173 0.69746 0.059 0.0
C336 C 0.39667 0.73328 0.61602 0.0
C337 C 0.47032 0.79405 0.61851 0.0
C338 C 0.42763 0.76906 0.6426 0.0
C339 C 0.48084 0.78372 0.56678 0.0
C340 C 0.40796 0.72157 0.56448 0.0
C341 C 0.4497 0.74755 0.5398 0.0
N342 N 0.35679 0.7085 0.64118 0.0
C343 C 0.3292 0.66916 0.61797 0.0
C344 C 0.3777 0.68327 0.53968 0.0
C345 C 0.33853 0.65656 0.56681 0.0
Gd346 Gd 0.25637 0.78886 0.77609 0.0
Gd347 Gd 0.34446 0.73477 0.72722 0.0
N348 N 0.41668 0.77848 0.69259 0.0
C349 C 0.50166 0.82793 0.64752 0.0
C350 C 0.4482 0.80915 0.72163 0.0
C351 C 0.49083 0.83497 0.69951 0.0
H352 H 0.44021 0.81347 0.76189 0.0
H353 H 0.51516 0.8599 0.72278 0.0
H354 H 0.15073 0.71421 0.7692 0.0
H355 H 0.30004 0.64708 0.63889 0.0
H356 H 0.08554 0.67175 0.82691 0.0
H357 H 0.53469 0.84763 0.6302 0.0
H358 H 0.51338 0.80284 0.54758 0.0
H359 H 0.31747 0.88273 0.84954 0.0
H360 H 0.38517 0.67316 0.5002 0.0
H361 H 0.31584 0.62588 0.54856 0.0
H362 H 0.13238 0.73342 0.99075 0.0
H363 H 0.45873 0.73926 0.50018 0.0
H364 H 0.26894 0.86312 1.00306 0.0
H365 H 0.32309 0.90842 0.93971 0.0
N366 N 0.26388 0.82083 0.86104 0.0
C367 C 0.23091 0.79752 0.89527 0.0
C368 C 0.29471 0.86162 0.87652 0.0
C369 C 0.26688 0.85114 0.96339 0.0
C370 C 0.29751 0.8768 0.92776 0.0
C371 C 0.23207 0.81167 0.94737 0.0
H372 H 0.19772 0.79733 0.02174 0.0
N373 N 0.1916 0.7504 0.82782 0.0
C374 C 0.19343 0.76166 0.87818 0.0
C375 C 0.11862 0.70483 0.89338 0.0
C376 C 0.15716 0.73858 0.91233 0.0
C377 C 0.15257 0.72066 0.80926 0.0
C378 C 0.11579 0.69671 0.84173 0.0
O379 O 0.36593 0.79895 0.69852 0.0
O380 O 0.30513 0.81499 0.70792 0.0
O381 O 0.21822 0.79802 0.72804 0.0
O382 O 0.22942 0.83515 0.80129 0.0
O383 O 0.34564 0.77555 0.80321 0.0
O384 O 0.32972 0.82825 0.7912 0.0
O385 O 0.23574 0.72594 0.80381 0.0
O386 O 0.28243 0.69242 0.77559 0.0
O387 O 0.38938 0.7309 0.77068 0.0
O388 O 0.3505 0.67582 0.71959 0.0
O389 O 0.23006 0.7309 0.71619 0.0
O390 O 0.28328 0.70448 0.68658 0.0
C391 C 0.34633 0.82111 0.68913 0.0
C392 C 0.355 0.81638 0.80881 0.0
C393 C 0.22069 0.86711 0.73947 0.0
C394 C 0.19655 0.89953 0.68878 0.0
C395 C 0.2565 0.94458 0.74102 0.0
C396 C 0.25256 0.90819 0.75736 0.0
C397 C 0.22851 0.94038 0.7072 0.0
C398 C 0.19325 0.86287 0.70444 0.0
C399 C 0.21319 0.82877 0.75968 0.0
C400 C 0.15986 0.75084 0.96408 0.0
C401 C 0.19715 0.78728 0.98163 0.0
H402 H 0.09036 0.68572 0.9183 0.0
C403 C 0.24621 0.69446 0.80209 0.0
C404 C 0.2446 0.70439 0.68602 0.0
C405 C 0.42121 0.6837 0.73079 0.0
C406 C 0.47356 0.66236 0.75155 0.0
C407 C 0.46486 0.65708 0.66433 0.0
C408 C 0.4329 0.67293 0.6794 0.0
C409 C 0.48495 0.65143 0.70025 0.0
C410 C 0.44304 0.68011 0.76649 0.0
C411 C 0.38206 0.6923 0.74878 0.0
H412 H 0.28103 0.97614 0.75496 0.0
H413 H 0.27399 0.91231 0.78448 0.0
H414 H 0.23184 0.96905 0.69518 0.0
H415 H 0.16873 0.8313 0.69026 0.0
H416 H 0.47297 0.64781 0.62479 0.0
H417 H 0.41612 0.67493 0.65108 0.0
H418 H 0.50756 0.6366 0.68827 0.0
H419 H 0.43283 0.68676 0.80625 0.0
C420 C 0.40235 0.30474 0.61347 0.0
C421 C 0.37477 0.26145 0.53519 0.0
C422 C 0.36643 0.27697 0.58613 0.0
C423 C 0.41913 0.27301 0.51275 0.0
C424 C 0.4469 0.3165 0.59076 0.0
C425 C 0.45504 0.30036 0.54043 0.0
N426 N 0.39372 0.31976 0.66246 0.0
C427 C 0.42781 0.3483 0.68978 0.0
C428 C 0.48207 0.34444 0.61925 0.0
C429 C 0.47246 0.3606 0.66886 0.0
Gd430 Gd 0.27136 0.21741 0.79101 0.0
Gd431 Gd 0.31789 0.29835 0.69253 0.0
N432 N 0.32356 0.2657 0.60892 0.0
C433 C 0.33829 0.23525 0.50794 0.0
C434 C 0.28804 0.24197 0.58157 0.0
C435 C 0.29481 0.22589 0.53109 0.0
H436 H 0.2545 0.23668 0.59758 0.0
H437 H 0.26648 0.20685 0.50985 0.0
H438 H 0.31561 0.28472 0.89136 0.0
H439 H 0.42082 0.36213 0.72749 0.0
H440 H 0.29 0.31034 0.97701 0.0
H441 H 0.34335 0.22282 0.46876 0.0
H442 H 0.42597 0.2613 0.47379 0.0
H443 H 0.17923 0.13123 0.74634 0.0
H444 H 0.51674 0.35419 0.6031 0.0
H445 H 0.49944 0.38287 0.69085 0.0
H446 H 0.13061 0.22275 0.9949 0.0
H447 H 0.48908 0.3093 0.52244 0.0
H448 H 0.06631 0.11723 0.85617 0.0
H449 H 0.09839 0.0949 0.77244 0.0
N450 N 0.19336 0.17732 0.81258 0.0
C451 C 0.17657 0.18871 0.85973 0.0
C452 C 0.16597 0.14306 0.78205 0.0
C453 C 0.10197 0.13412 0.84453 0.0
C454 C 0.11993 0.12155 0.79716 0.0
C455 C 0.1304 0.16759 0.87682 0.0
H456 H 0.07871 0.16465 0.93917 0.0
N457 N 0.24988 0.2414 0.87367 0.0
C458 C 0.20569 0.22146 0.89131 0.0
C459 C 0.22028 0.26688 0.97126 0.0
C460 C 0.1896 0.23404 0.94047 0.0
C461 C 0.28027 0.2715 0.90443 0.0
C462 C 0.26587 0.28554 0.9532 0.0
O463 O 0.35417 0.25364 0.68589 0.0
O464 O 0.30037 0.19177 0.71555 0.0
O465 O 0.31767 0.20775 0.8262 0.0
O466 O 0.25304 0.15501 0.81067 0.0
O467 O 0.24617 0.24674 0.6882 0.0
O468 O 0.24365 0.18906 0.71574 0.0
O469 O 0.24501 0.27059 0.81424 0.0
O470 O 0.26526 0.31226 0.75056 0.0
O471 O 0.2992 0.32256 0.63864 0.0
O472 O 0.34743 0.36705 0.68879 0.0
O473 O 0.34233 0.27146 0.79562 0.0
O474 O 0.34282 0.32891 0.7696 0.0
C475 C 0.33927 0.2119 0.68872 0.0
C476 C 0.22939 0.20495 0.68769 0.0
C477 C 0.28906 0.14827 0.87234 0.0
C478 C 0.32882 0.13046 0.92207 0.0
C479 C 0.24736 0.09711 0.93196 0.0
C480 C 0.24801 0.11995 0.89587 0.0
C481 C 0.28737 0.10302 0.9459 0.0
C482 C 0.32945 0.15308 0.88529 0.0
C483 C 0.29048 0.16731 0.8288 0.0
C484 C 0.14362 0.21347 0.9573 0.0
C485 C 0.11409 0.18037 0.92555 0.0
H486 H 0.20925 0.27753 0.00924 0.0
C487 C 0.24331 0.30151 0.79507 0.0
C488 C 0.3565 0.31319 0.79875 0.0
C489 C 0.29605 0.38874 0.66868 0.0
C490 C 0.24158 0.40876 0.64816 0.0
C491 C 0.27749 0.44291 0.72439 0.0
C492 C 0.30204 0.41903 0.7123 0.0
C493 C 0.24734 0.43775 0.69273 0.0
C494 C 0.26561 0.38383 0.6365 0.0
C495 C 0.32152 0.36259 0.65647 0.0
H496 H 0.21563 0.07467 0.94922 0.0
H497 H 0.21637 0.1146 0.88563 0.0
H498 H 0.28596 0.0844 0.97343 0.0
H499 H 0.36125 0.17275 0.86516 0.0
H500 H 0.28257 0.46623 0.75794 0.0
H501 H 0.32591 0.42452 0.73708 0.0
H502 H 0.22962 0.45754 0.70209 0.0
H503 H 0.26147 0.36161 0.60191 0.0
C504 C 0.91095 0.24592 0.79784 0.0
C505 C 0.87915 0.17741 0.82827 0.0
C506 C 0.87684 0.20535 0.80036 0.0
C507 C 0.91606 0.19203 0.85507 0.0
C508 C 0.94905 0.26046 0.8228 0.0
C509 C 0.95103 0.23357 0.85232 0.0
N510 N 0.90813 0.27009 0.76777 0.0
C511 C 0.94338 0.30888 0.75925 0.0
C512 C 0.9844 0.30102 0.81611 0.0
C513 C 0.98167 0.3252 0.78383 0.0
Gd514 Gd 0.75781 0.29408 0.74644 0.0
Gd515 Gd 0.84191 0.24324 0.72925 0.0
N516 N 0.84285 0.19228 0.77242 0.0
C517 C 0.84498 0.13536 0.82719 0.0
C518 C 0.80989 0.15097 0.77054 0.0
C519 C 0.81029 0.12203 0.79795 0.0
H520 H 0.78282 0.14017 0.7483 0.0
H521 H 0.78387 0.08944 0.7964 0.0
H522 H 0.75617 0.35733 0.85615 0.0
H523 H 0.94161 0.32764 0.73413 0.0
H524 H 0.78369 0.43578 0.8859 0.0
H525 H 0.84544 0.1128 0.84805 0.0
H526 H 0.91835 0.17118 0.87703 0.0
H527 H 0.72572 0.27873 0.63163 0.0
H528 H 1.0142 0.31352 0.8348 0.0
H529 H 1.00908 0.35633 0.77772 0.0
H530 H 0.82229 0.49905 0.73407 0.0
H531 H 0.97982 0.2442 0.87217 0.0
H532 H 0.78288 0.40186 0.5813 0.0
H533 H 0.74412 0.32229 0.56386 0.0
N534 N 0.75868 0.33246 0.68503 0.0
C535 C 0.77709 0.37573 0.6961 0.0
C536 C 0.74379 0.31319 0.63923 0.0
C537 C 0.77572 0.38271 0.6108 0.0
C538 C 0.75353 0.3379 0.60092 0.0
C539 C 0.78638 0.40223 0.65944 0.0
H540 H 0.8127 0.46809 0.64533 0.0
N541 N 0.77075 0.36546 0.77928 0.0
C542 C 0.783 0.39293 0.74534 0.0
C543 C 0.79826 0.45289 0.8115 0.0
C544 C 0.79766 0.43743 0.76022 0.0
C545 C 0.76699 0.37965 0.82943 0.0
C546 C 0.78221 0.42383 0.84629 0.0
O547 O 0.77117 0.20607 0.76754 0.0
O548 O 0.75517 0.26052 0.81042 0.0
O549 O 0.69514 0.23563 0.74825 0.0
O550 O 0.69428 0.29754 0.76958 0.0
O551 O 0.7728 0.20312 0.7053 0.0
O552 O 0.75692 0.24698 0.67382 0.0
O553 O 0.80875 0.30541 0.67744 0.0
O554 O 0.86552 0.31241 0.71467 0.0
O555 O 0.88422 0.26404 0.65911 0.0
O556 O 0.8508 0.19738 0.66852 0.0
O557 O 0.81137 0.32746 0.80472 0.0
O558 O 0.85465 0.29076 0.79795 0.0
C559 C 0.74879 0.22035 0.80551 0.0
C560 C 0.7581 0.20975 0.66898 0.0
C561 C 0.64557 0.24192 0.8192 0.0
C562 C 0.63081 0.25721 0.91126 0.0
C563 C 0.59366 0.18442 0.86746 0.0
C564 C 0.61545 0.19862 0.82129 0.0
C565 C 0.60127 0.21319 0.91199 0.0
C566 C 0.65297 0.27075 0.864 0.0
C567 C 0.67178 0.25618 0.77087 0.0
C568 C 0.80999 0.46463 0.72356 0.0
C569 C 0.80451 0.44702 0.67307 0.0
H570 H 0.81008 0.48695 0.82465 0.0
C571 C 0.85139 0.32448 0.68223 0.0
C572 C 0.84355 0.32166 0.8194 0.0
C573 C 0.92452 0.22326 0.63281 0.0
C574 C 0.96237 0.18785 0.65608 0.0
C575 C 0.98456 0.21469 0.57513 0.0
C576 C 0.9503 0.22774 0.58575 0.0
C577 C 0.98988 0.19379 0.60968 0.0
C578 C 0.93475 0.20804 0.66935 0.0
C579 C 0.88213 0.22629 0.6425 0.0
H580 H 0.57072 0.15082 0.86876 0.0
H581 H 0.60948 0.17565 0.78732 0.0
H582 H 0.58323 0.20036 0.94632 0.0
H583 H 0.67544 0.3042 0.86137 0.0
H584 H 1.00474 0.21786 0.53884 0.0
H585 H 0.94301 0.23975 0.55712 0.0
H586 H 1.01353 0.18038 0.59878 0.0
H587 H 0.91502 0.20442 0.70544 0.0
C588 C 0.86142 0.88358 0.84083 0.0
C589 C 0.81369 0.88783 0.91875 0.0
C590 C 0.82654 0.86343 0.8769 0.0
C591 C 0.83432 0.93282 0.92199 0.0
C592 C 0.88438 0.92889 0.84605 0.0
C593 C 0.8696 0.95332 0.88574 0.0
N594 N 0.87517 0.85903 0.80308 0.0
C595 C 0.9153 0.87785 0.77402 0.0
C596 C 0.92267 0.94827 0.81255 0.0
C597 C 0.93889 0.9226 0.7773 0.0
Gd598 Gd 0.74735 0.74314 0.69803 0.0
Gd599 Gd 0.83007 0.78397 0.79936 0.0
N600 N 0.807 0.81986 0.87271 0.0
C601 C 0.78191 0.8663 0.95708 0.0
C602 C 0.77995 0.79918 0.91232 0.0
C603 C 0.76584 0.82188 0.95445 0.0
H604 H 0.76864 0.76505 0.9105 0.0
H605 H 0.74294 0.80523 0.98499 0.0
H606 H 0.79998 0.80863 0.60733 0.0
H607 H 0.92935 0.85849 0.748 0.0
H608 H 0.82145 0.80134 0.51656 0.0
H609 H 0.77118 0.88381 0.98989 0.0
H610 H 0.82447 0.95214 0.95335 0.0
H611 H 0.67837 0.64249 0.72167 0.0
H612 H 0.94118 0.98294 0.81522 0.0
H613 H 0.96977 0.93725 0.75292 0.0
H614 H 0.77611 0.65078 0.46696 0.0
H615 H 0.88635 0.98813 0.88983 0.0
H616 H 0.68658 0.55635 0.58946 0.0
H617 H 0.65664 0.56861 0.67834 0.0
N618 N 0.72408 0.67173 0.66007 0.0
C619 C 0.73812 0.66594 0.61014 0.0
C620 C 0.6933 0.63761 0.68376 0.0
C621 C 0.69706 0.58888 0.60874 0.0
C622 C 0.68019 0.59565 0.65893 0.0
C623 C 0.72551 0.62423 0.58333 0.0
H624 H 0.73149 0.58734 0.51072 0.0
N625 N 0.77492 0.7419 0.61201 0.0
C626 C 0.76392 0.70191 0.58544 0.0
C627 C 0.79869 0.73297 0.50839 0.0
C628 C 0.77668 0.69661 0.53313 0.0
C629 C 0.79516 0.77737 0.58759 0.0
C630 C 0.8071 0.77336 0.53563 0.0
O631 O 0.76475 0.79564 0.81879 0.0
O632 O 0.75546 0.8081 0.74491 0.0
O633 O 0.70865 0.74341 0.64453 0.0
O634 O 0.67684 0.73103 0.72002 0.0
O635 O 0.77765 0.71525 0.80165 0.0
O636 O 0.7178 0.71224 0.77061 0.0
O637 O 0.79143 0.70506 0.68673 0.0
O638 O 0.85261 0.74347 0.73206 0.0
O639 O 0.83608 0.74645 0.84873 0.0
O640 O 0.8915 0.80671 0.83291 0.0
O641 O 0.80501 0.80967 0.69295 0.0
O642 O 0.86011 0.80264 0.72074 0.0
C643 C 0.75021 0.81491 0.79457 0.0
C644 C 0.7348 0.69707 0.79662 0.0
C645 C 0.64454 0.75578 0.6699 0.0
C646 C 0.63605 0.81495 0.64762 0.0
C647 C 0.57459 0.74298 0.64381 0.0
C648 C 0.60051 0.72791 0.65971 0.0
C649 C 0.59215 0.78588 0.63757 0.0
C650 C 0.66226 0.79989 0.66491 0.0
C651 C 0.67241 0.73541 0.6756 0.0
C652 C 0.7658 0.65521 0.50685 0.0
C653 C 0.74044 0.6191 0.53185 0.0
H654 H 0.80757 0.72987 0.46801 0.0
C655 C 0.83108 0.71116 0.6977 0.0
C656 C 0.84772 0.82111 0.69369 0.0
C657 C 0.90887 0.75255 0.84559 0.0
C658 C 0.94363 0.71692 0.87701 0.0
C659 C 0.96295 0.73142 0.79035 0.0
C660 C 0.93355 0.7501 0.79825 0.0
C661 C 0.96809 0.71501 0.82947 0.0
C662 C 0.91387 0.73573 0.885 0.0
C663 C 0.87787 0.77243 0.85388 0.0
H664 H 0.54133 0.72114 0.63424 0.0
H665 H 0.58677 0.69387 0.66194 0.0
H666 H 0.57157 0.79627 0.62361 0.0
H667 H 0.69649 0.82163 0.67204 0.0
H668 H 0.98177 0.72958 0.75374 0.0
H669 H 0.93013 0.76266 0.76737 0.0
H670 H 0.99093 0.70044 0.82258 0.0
H671 H 0.89462 0.73703 0.92149 0.0
Co672 Co 0.08034 0.92643 0.46984 0.0
Co673 Co 0.08245 0.9801 0.55685 0.0
Co674 Co 0.04788 1.00748 0.4914 0.0
O675 O 0.09352 0.98685 0.48753 0.0
H676 H 0.12388 1.00679 0.47701 0.0
O677 O 1.0001 0.02432 0.49435 0.0
Co678 Co 0.99076 0.06588 0.54095 0.0
Co679 Co 1.00607 0.05535 0.44727 0.0
H680 H 0.97165 0.99903 0.49211 0.0
O681 O 0.12655 0.9852 0.58604 0.0
O682 O 0.0733 0.92458 0.54616 0.0
O683 O 1.03033 0.97752 0.60391 0.0
O684 O 0.99964 0.96002 0.53463 0.0
O685 O 0.07305 0.04898 0.55373 0.0
O686 O 0.97918 0.10048 0.58974 0.0
O687 O 0.98411 0.0402 0.59446 0.0
O688 O 0.05545 0.10014 0.54713 0.0
O689 O 0.09616 0.05542 0.449 0.0
O690 O 0.06296 0.08073 0.41049 0.0
O691 O 0.99363 0.0981 0.48669 0.0
O692 O 0.95727 0.04858 0.42321 0.0
C693 C 0.11163 0.88827 0.46687 0.0
C694 C 1.00694 0.9269 0.42799 0.0
C695 C 0.99607 0.95602 0.58123 0.0
C696 C 0.1068 0.94369 0.57437 0.0
C697 C 0.97639 0.0727 0.61628 0.0
C698 C 0.08097 0.08875 0.56269 0.0
C699 C 0.09795 0.08032 0.41923 0.0
C700 C 0.96476 0.084 0.45384 0.0
O701 O 0.07114 0.87217 0.45563 0.0
O702 O 0.13498 0.93018 0.47293 0.0
O703 O 1.0242 0.96756 0.42933 0.0
O704 O 1.01848 0.91106 0.45765 0.0
Co705 Co 0.593 0.94358 0.9345 0.0
Co706 Co 0.58315 0.96801 0.03036 0.0
Co707 Co 0.54447 0.02377 0.99456 0.0
O708 O 0.59157 0.99852 0.97878 0.0
H709 H 0.62163 0.0217 0.97755 0.0
O710 O 0.49769 0.0495 0.00989 0.0
Co711 Co 0.48777 0.09779 0.06292 0.0
Co712 Co 0.5259 0.09796 0.97701 0.0
H713 H 0.47 0.02887 0.99676 0.0
O714 O 0.63159 0.97674 0.05525 0.0
O715 O 0.59247 0.92198 0.99712 0.0
O716 O 0.52809 0.94692 0.07225 0.0
O717 O 0.49962 0.98366 0.04667 0.0
O718 O 0.58015 0.07022 0.0481 0.0
O719 O 0.47631 0.14045 0.10928 0.0
O720 O 0.42502 0.08652 0.0663 0.0
O721 O 0.55109 0.11883 0.0735 0.0
O722 O 0.58789 0.06229 0.93995 0.0
O723 O 0.58889 0.12628 0.96397 0.0
O724 O 0.50047 0.13226 0.0079 0.0
O725 O 0.49612 0.09492 0.92871 0.0
C726 C 0.64118 0.91462 0.89619 0.0
C727 C 0.50087 0.9372 0.93008 0.0
C728 C 0.49592 0.95557 0.07279 0.0
C729 C 0.62441 0.94021 0.02714 0.0
C730 C 0.435 0.12188 0.09917 0.0
C731 C 0.58209 0.10677 0.07155 0.0
C732 C 0.60711 0.10333 0.93876 0.0
C733 C 0.48274 0.11808 0.96507 0.0
O734 O 0.59793 0.89459 0.89494 0.0
O735 O 0.65581 0.95433 0.91978 0.0
O736 O 0.50931 0.97733 0.94129 0.0
O737 O 0.52693 0.92173 0.93725 0.0
Co738 Co 0.08575 0.42982 0.94202 0.0
Co739 Co 0.07404 0.44979 0.03671 0.0
Co740 Co 1.04205 0.51396 0.00478 0.0
O741 O 0.08535 0.48392 0.98951 0.0
H742 H 0.11601 0.50585 0.98983 0.0
O743 O 0.9996 0.5445 0.01843 0.0
Co744 Co 0.9938 0.59345 0.07228 0.0
Co745 Co 1.02754 0.59156 0.98407 0.0
H746 H 0.97089 0.52517 0.00662 0.0
O747 O 0.12211 0.4493 0.05401 0.0
O748 O 0.07037 0.39825 0.00327 0.0
O749 O 1.02052 0.43706 0.08388 0.0
O750 O 0.99768 0.47995 0.0619 0.0
O751 O 0.08365 0.56202 0.05299 0.0
O752 O 0.98452 0.63596 0.11997 0.0
O753 O 0.93326 0.58509 0.07318 0.0
O754 O 0.05559 0.61072 0.08241 0.0
O755 O 0.08447 0.54626 0.9456 0.0
O756 O 0.08986 0.61241 0.96064 0.0
O757 O 1.01262 0.633 0.02054 0.0
O758 O 0.99361 0.59509 0.94395 0.0
C759 C 0.13192 0.39824 0.90438 0.0
C760 C 0.99457 0.42802 0.93709 0.0
C761 C 0.99147 0.45075 0.08777 0.0
C762 C 0.09704 0.40912 0.0385 0.0
C763 C 0.94427 0.61976 0.10698 0.0
C764 C 0.087 0.59886 0.07695 0.0
C765 C 0.10561 0.58633 0.93931 0.0
C766 C 0.9943 0.6261 0.97948 0.0
O767 O 0.09012 0.38312 0.89755 0.0
O768 O 0.1464 0.43454 0.93575 0.0
O769 O 1.00051 0.46636 0.95741 0.0
O770 O 1.02405 0.41429 0.93447 0.0
Co771 Co 0.55756 0.4239 0.98255 0.0
Co772 Co 0.56123 0.4757 0.06802 0.0
Co773 Co 0.5408 0.51406 0.99619 0.0
O774 O 0.57575 0.48446 1.00135 0.0
H775 H 0.60756 0.50075 0.99236 0.0
O776 O 0.50624 0.54252 0.98827 0.0
Co777 Co 0.52294 0.60203 0.99928 0.0
Co778 Co 0.52448 0.54601 0.91917 0.0
H779 H 0.47433 0.52599 0.99612 0.0
O780 O 0.60205 0.47694 0.09941 0.0
O781 O 0.54795 0.41896 0.05711 0.0
O782 O 0.51127 0.47989 0.10969 0.0
O783 O 0.48441 0.47702 0.04183 0.0
O784 O 0.5676 0.55868 0.05536 0.0
O785 O 0.53252 0.65676 0.00801 0.0
O786 O 0.47143 0.5968 0.98654 0.0
O787 O 0.58152 0.61589 0.02034 0.0
O788 O 0.59694 0.55324 0.95263 0.0
O789 O 0.57324 0.53497 0.87951 0.0
O790 O 0.54203 0.60353 0.92325 0.0
O791 O 0.48805 0.54491 0.88176 0.0
C792 C 0.58787 0.38448 0.97327 0.0
C793 C 0.49089 0.42915 0.93986 0.0
C794 C 0.47785 0.47009 0.08772 0.0
C795 C 0.58111 0.43579 0.08542 0.0
C796 C 0.49287 0.63852 0.99301 0.0
C797 C 0.58882 0.59946 0.05349 0.0
C798 C 0.60566 0.55469 0.90518 0.0
C799 C 0.51297 0.58619 0.88966 0.0
O800 O 0.54591 0.3684 0.96667 0.0
O801 O 0.61067 0.42602 0.98251 0.0
O802 O 0.51366 0.46961 0.937 0.0
O803 O 0.49684 0.41307 0.97425 0.0
Co804 Co 0.12358 0.48747 0.50854 0.0
Co805 Co 0.11293 0.48442 0.41977 0.0
Co806 Co 1.04352 0.52502 0.49905 0.0
O807 O 0.07082 0.48022 0.4789 0.0
H808 H 0.04736 0.45112 0.47877 0.0
O809 O 1.01644 0.56981 0.51931 0.0
Co810 Co 0.96683 0.56229 0.48457 0.0
Co811 Co 0.96861 0.56204 0.57196 0.0
H812 H 1.03965 0.5991 0.52195 0.0
O813 O 0.1168 0.4345 0.3782 0.0
O814 O 0.15954 0.47599 0.43889 0.0
O815 O 0.13587 0.54103 0.39768 0.0
O816 O 0.08758 0.56495 0.44657 0.0
O817 O 0.99753 0.48944 0.45049 0.0
O818 O 0.92682 0.55772 0.44836 0.0
O819 O 0.98878 0.61732 0.46882 0.0
O820 O 0.93928 0.50217 0.4893 0.0
O821 O 1.00051 0.48583 0.55194 0.0
O822 O 0.94529 0.50425 0.59101 0.0
O823 O 0.92714 0.57723 0.55078 0.0
O824 O 0.96281 0.60751 0.61997 0.0
C825 C 0.14451 0.45068 0.53682 0.0
C826 C 0.13062 0.57089 0.5412 0.0
C827 C 0.12179 0.56984 0.41268 0.0
C828 C 0.14999 0.44285 0.40214 0.0
C829 C 0.95393 0.59758 0.44346 0.0
C830 C 0.95503 0.47834 0.45866 0.0
C831 C 0.9632 0.47822 0.58104 0.0
C832 C 0.93234 0.60357 0.5944 0.0
O833 O 0.16772 0.49188 0.53795 0.0
O834 O 0.10663 0.4314 0.51676 0.0
O835 O 0.08838 0.55995 0.54824 0.0
O836 O 0.14742 0.54842 0.5093 0.0
Co837 Co 0.62179 0.97727 0.51825 0.0
Co838 Co 0.61159 0.96964 0.43034 0.0
Co839 Co 0.54502 1.01535 0.50486 0.0
O840 O 0.56913 0.96849 0.48755 0.0
H841 H 0.54513 0.93982 0.48899 0.0
O842 O 0.52334 0.06331 0.52346 0.0
Co843 Co 0.48043 0.0654 0.4879 0.0
Co844 Co 0.47938 0.06313 0.57703 0.0
H845 H 0.54908 0.09108 0.52665 0.0
O846 O 0.61118 0.91917 0.38896 0.0
O847 O 0.65631 0.95803 0.44927 0.0
O848 O 0.63613 0.0243 0.40382 0.0
O849 O 0.59071 0.05218 0.45144 0.0
O850 O 0.499 0.98144 0.45497 0.0
O851 O 0.4472 0.07209 0.45148 0.0
O852 O 0.51054 0.12234 0.48283 0.0
O853 O 0.4452 1.00359 0.48387 0.0
O854 O 0.49768 0.97777 0.55765 0.0
O855 O 0.45085 1.00615 0.59698 0.0
O856 O 0.43877 0.07748 0.55286 0.0
O857 O 0.47694 0.11348 0.61839 0.0
C858 C 0.63808 0.94319 0.55679 0.0
C859 C 0.63353 0.06181 0.54301 0.0
C860 C 0.62377 0.05434 0.41709 0.0
C861 C 0.64587 0.92684 0.40985 0.0
C862 C 0.47858 0.11152 0.4554 0.0
C863 C 0.45818 0.97588 0.45782 0.0
C864 C 0.4606 0.97441 0.58545 0.0
C865 C 0.44519 0.10718 0.59327 0.0
O866 O 0.66534 0.98277 0.551 0.0
O867 O 0.60092 0.92392 0.53544 0.0
O868 O 0.59104 0.04979 0.55389 0.0
O869 O 0.64874 0.03753 0.512 0.0
C870 C 0.17693 0.19209 0.38573 0.0
C871 C 0.20685 0.18423 0.3452 0.0
C872 C 0.17099 0.10768 0.35955 0.0
C873 C 0.14143 0.11598 0.40004 0.0
N874 N 0.12524 0.16848 0.46026 0.0
N875 N 0.23675 0.13551 0.29807 0.0
C876 C 0.14744 0.15902 0.41569 0.0
C877 C 0.20572 0.14246 0.33417 0.0
N878 N 0.17563 0.23096 0.39517 0.0
N879 N 0.16409 0.06617 0.34339 0.0
H880 H 0.25955 0.15835 0.27518 0.0
H881 H 0.24129 0.10775 0.29217 0.0
H882 H 0.14006 0.04065 0.36215 0.0
H883 H 0.1804 0.05664 0.31037 0.0
H884 H 0.15033 0.23656 0.41917 0.0
H885 H 0.1983 0.25722 0.37691 0.0
H886 H 0.13153 0.19965 0.47699 0.0
H887 H 0.10383 0.14521 0.48314 0.0
C888 C 0.9315 0.13145 0.37041 0.0
C889 C 0.89225 0.13313 0.39897 0.0
C890 C 0.90859 0.11457 0.47188 0.0
C891 C 0.94671 0.11166 0.4424 0.0
N892 N 1.00339 0.13277 0.37194 0.0
N893 N 0.85042 0.13826 0.48036 0.0
C894 C 0.96123 0.1257 0.39454 0.0
C895 C 0.88314 0.12872 0.45107 0.0
N896 N 0.93878 0.13187 0.31953 0.0
N897 N 0.89574 0.10204 0.51865 0.0
H898 H 0.83173 0.14904 0.46604 0.0
H899 H 0.84454 0.13917 0.51929 0.0
H900 H 0.91492 0.09322 0.53509 0.0
H901 H 0.86562 0.0989 0.54022 0.0
H902 H 0.96434 0.12605 0.29645 0.0
H903 H 0.91705 0.13397 0.29937 0.0
H904 H 1.01756 0.14666 0.33889 0.0
H905 H 1.02583 0.12913 0.38949 0.0
C906 C 0.93831 0.86716 0.3141 0.0
C907 C 0.89572 0.83952 0.33767 0.0
C908 C 0.92707 0.86898 0.41919 0.0
C909 C 0.96868 0.89802 0.39645 0.0
N910 N 1.0129 0.9266 0.3206 0.0
N911 N 0.86665 0.79872 0.40827 0.0
C912 C 0.97394 0.89767 0.3434 0.0
C913 C 0.89441 0.83599 0.38907 0.0
N914 N 0.94715 0.85933 0.26332 0.0
N915 N 0.91729 0.87352 0.4702 0.0
H916 H 0.84817 0.77051 0.38649 0.0
H917 H 0.8695 0.79375 0.4433 0.0
H918 H 0.93872 0.89844 0.4938 0.0
H919 H 0.88558 0.85574 0.48816 0.0
H920 H 0.97895 0.87327 0.24352 0.0
H921 H 0.92352 0.83432 0.24201 0.0
H922 H 1.01655 0.93223 0.28376 0.0
H923 H 1.0409 0.94686 0.33933 0.0
C924 C 0.10201 0.7866 0.50362 0.0
C925 C 0.14014 0.78635 0.47302 0.0
C926 C 0.1708 0.86298 0.47091 0.0
C927 C 0.12582 0.85819 0.4811 0.0
N928 N 0.05185 0.81976 0.52666 0.0
N929 N 0.21926 0.82804 0.46746 0.0
C930 C 0.09236 0.82153 0.50443 0.0
C931 C 0.17787 0.82663 0.47265 0.0
N932 N 0.07697 0.7547 0.53278 0.0
N933 N 0.20555 0.89991 0.45658 0.0
H934 H 0.22258 0.79983 0.46526 0.0
H935 H 0.24889 0.85642 0.46926 0.0
H936 H 0.2018 0.92578 0.45002 0.0
H937 H 0.23867 0.90492 0.45125 0.0
H938 H 0.04991 0.75424 0.55902 0.0
H939 H 0.08687 0.73102 0.53364 0.0
H940 H 1.02489 0.79179 0.53785 0.0
H941 H 0.04516 0.84627 0.53409 0.0
C942 C 0.12212 0.88578 0.66447 0.0
C943 C 0.16847 0.89639 0.6514 0.0
C944 C 0.17184 0.93059 0.58165 0.0
C945 C 0.12516 0.91963 0.59344 0.0
N946 N 0.05386 0.87887 0.63979 0.0
N947 N 0.23147 0.91286 0.58708 0.0
C948 C 0.09942 0.89373 0.63211 0.0
C949 C 0.19097 0.91282 0.60594 0.0
N950 N 0.10071 0.87139 0.70945 0.0
N951 N 0.19908 0.96057 0.5504 0.0
H952 H 0.24609 0.89978 0.60451 0.0
H953 H 0.24776 0.92153 0.55178 0.0
H954 H 0.18779 0.9758 0.53189 0.0
H955 H 0.23395 0.97287 0.54586 0.0
H956 H 0.06856 0.86805 0.72383 0.0
H957 H 0.11613 0.86532 0.73415 0.0
H958 H 1.03301 0.85647 0.66407 0.0
H959 H 1.03646 0.88624 0.61892 0.0
C960 C 0.15433 0.18426 0.6579 0.0
C961 C 0.19129 0.17505 0.65597 0.0
C962 C 0.15964 0.11518 0.58771 0.0
C963 C 0.12034 0.12152 0.59245 0.0
N964 N 0.08842 0.1721 0.62383 0.0
N965 N 0.22497 0.12646 0.62269 0.0
C966 C 0.12019 0.15904 0.62491 0.0
C967 C 0.19247 0.13884 0.62228 0.0
N968 N 0.14951 0.21507 0.69473 0.0
N969 N 0.16869 0.09015 0.54613 0.0
H970 H 0.25175 0.14382 0.6437 0.0
H971 H 0.22352 0.09694 0.60473 0.0
H972 H 0.14954 0.07771 0.51624 0.0
H973 H 0.19865 0.08737 0.53732 0.0
H974 H 0.12218 0.22199 0.70143 0.0
H975 H 0.17096 0.23162 0.72234 0.0
H976 H 0.09224 0.20324 0.63686 0.0
H977 H 0.05896 0.15312 0.60814 0.0
C978 C 0.91507 0.11346 0.68129 0.0
C979 C 0.95491 0.15333 0.68466 0.0
C980 C 0.99527 0.11497 0.69593 0.0
C981 C 0.96268 0.07848 0.6706 0.0
N982 N 0.88316 0.03655 0.67265 0.0
N983 N 1.02355 0.19247 0.72199 0.0
C984 C 0.91925 0.07539 0.67882 0.0
C985 C 0.9921 0.15437 0.70181 0.0
N986 N 0.87466 0.11082 0.6761 0.0
N987 N 1.0309 0.11223 0.70767 0.0
H988 H 1.0204 0.2209 0.72548 0.0
H989 H 0.05006 0.19508 0.73825 0.0
H990 H 1.03276 0.08292 0.70014 0.0
H991 H 0.05736 0.13802 0.72467 0.0
H992 H 0.84619 0.08142 0.67177 0.0
H993 H 0.86878 0.13721 0.6777 0.0
H994 H 0.88595 1.00775 0.66578 0.0
H995 H 0.88595 1.00775 0.66578 0.0
C996 C 0.91422 0.8449 0.62473 0.0
C997 C 0.88318 0.85473 0.66169 0.0
C998 C 0.92881 0.93116 0.64965 0.0
C999 C 0.95559 0.92071 0.6072 0.0
N1000 N 0.96959 0.86412 0.55257 0.0
N1001 N 0.85584 0.90758 0.69855 0.0
C1002 C 0.94658 0.87646 0.594 0.0
C1003 C 0.88869 0.89786 0.67046 0.0
N1004 N 0.91412 0.80572 0.61956 0.0
N1005 N 0.94268 0.97255 0.67252 0.0
H1006 H 0.82494 0.88408 0.71122 0.0
H1007 H 0.85731 0.93815 0.70365 0.0
H1008 H 0.97288 0.99751 0.66071 0.0
H1009 H 0.9269 0.98085 0.70691 0.0
H1010 H 0.93944 0.79855 0.59807 0.0
H1011 H 0.89082 0.78141 0.64005 0.0
H1012 H 0.96013 0.83224 0.53641 0.0
H1013 H 0.99678 0.88621 0.53309 0.0
C1014 C 0.35544 0.17979 0.11974 0.0
C1015 C 0.35475 0.19727 0.17202 0.0
C1016 C 0.40202 0.16064 0.17753 0.0
C1017 C 0.40208 0.14269 0.12536 0.0
N1018 N 0.36121 0.12351 0.0545 0.0
N1019 N 0.36389 0.18717 0.25163 0.0
C1020 C 0.37331 0.14862 0.09895 0.0
C1021 C 0.37475 0.18311 0.20091 0.0
N1022 N 0.34124 0.19471 0.08852 0.0
N1023 N 0.42676 0.15491 0.20628 0.0
H1024 H 0.34105 0.1991 0.26915 0.0
H1025 H 0.3722 0.17329 0.27511 0.0
H1026 H 0.44113 0.13367 0.19443 0.0
H1027 H 0.4338 0.1724 0.24154 0.0
H1028 H 0.34263 0.18576 0.04975 0.0
H1029 H 0.33354 0.22025 0.10162 0.0
H1030 H 0.33643 0.12272 0.03662 0.0
H1031 H 0.37118 0.09946 0.03933 0.0
C1032 C 0.88764 0.4122 0.18899 0.0
C1033 C 0.86704 0.36698 0.17178 0.0
C1034 C 0.9217 0.37995 0.09507 0.0
C1035 C 0.94542 0.42422 0.11437 0.0
N1036 N 0.95154 0.48259 0.18008 0.0
N1037 N 0.85553 0.31136 0.10124 0.0
C1038 C 0.9279 0.44055 0.161 0.0
C1039 C 0.88161 0.35208 0.12262 0.0
N1040 N 0.86877 0.42829 0.23178 0.0
N1041 N 0.93866 0.36395 0.05072 0.0
H1042 H 0.82518 0.29086 0.11957 0.0
H1043 H 0.86118 0.29915 0.06391 0.0
H1044 H 0.96528 0.38361 0.0273 0.0
H1045 H 0.92799 0.3313 0.03822 0.0
H1046 H 0.87915 0.46091 0.24408 0.0
H1047 H 0.8403 0.40922 0.2536 0.0
H1048 H 0.94465 0.49605 0.21638 0.0
H1049 H 0.98007 0.50389 0.16005 0.0
C1050 C 0.72693 0.93614 0.05477 0.0
C1051 C 0.7054 0.90233 0.08474 0.0
C1052 C 0.63392 0.88125 0.05365 0.0
C1053 C 0.65335 0.92033 0.03275 0.0
N1054 N 0.71936 0.98379 0.00946 0.0
N1055 N 0.63882 0.84154 0.11261 0.0
C1056 C 0.70047 0.94688 0.03115 0.0
C1057 C 0.6592 0.87383 0.08316 0.0
N1058 N 0.77271 0.95839 0.04997 0.0
N1059 N 0.59111 0.85176 0.04629 0.0
H1060 H 0.65637 0.83476 0.13401 0.0
H1061 H 0.60423 0.82297 0.1182 0.0
H1062 H 0.57206 0.85659 0.02513 0.0
H1063 H 0.57628 0.82097 0.05643 0.0
H1064 H 0.79124 0.98208 0.02671 0.0
H1065 H 0.79274 0.95057 0.06639 0.0
H1066 H 0.75207 1.00748 0.01226 0.0
H1067 H 0.70143 0.99191 0.99026 0.0
C1068 C 0.19052 0.64352 0.14879 0.0
C1069 C 0.21042 0.68841 0.14559 0.0
C1070 C 0.15391 0.67328 0.09012 0.0
C1071 C 0.12994 0.6297 0.10007 0.0
N1072 N 0.1229 0.57616 0.14743 0.0
N1073 N 0.22407 0.73843 0.09011 0.0
C1074 C 0.14774 0.61557 0.13152 0.0
C1075 C 0.19554 0.70141 0.11006 0.0
N1076 N 0.21449 0.62641 0.16282 0.0
N1077 N 0.13693 0.68863 0.06214 0.0
H1078 H 0.2569 0.75681 0.09882 0.0
H1079 H 0.21772 0.74773 0.06004 0.0
H1080 H 0.1102 0.66925 0.04131 0.0
H1081 H 0.148 0.72144 0.0626 0.0
H1082 H 0.20273 0.59358 0.16313 0.0
H1083 H 0.24893 0.64366 0.16428 0.0
H1084 H 0.13213 0.56632 0.17478 0.0
H1085 H 0.0908 0.55525 0.13771 0.0
C1086 C 0.38636 0.84888 0.89335 0.0
C1087 C 0.3914 0.84931 0.84058 0.0
C1088 C 0.46859 0.90733 0.84678 0.0
C1089 C 0.46241 0.90828 0.89969 0.0
N1090 N 0.40822 0.89236 0.9731 0.0
N1091 N 0.43347 0.8898 0.77136 0.0
C1092 C 0.41923 0.88251 0.92307 0.0
C1093 C 0.43123 0.88206 0.8187 0.0
N1094 N 0.3499 0.81706 0.91564 0.0
N1095 N 0.51027 0.93023 0.82296 0.0
H1096 H 0.40737 0.87199 0.74964 0.0
H1097 H 0.45955 0.91601 0.7555 0.0
H1098 H 0.53815 0.94995 0.84218 0.0
H1099 H 0.51781 0.92712 0.78396 0.0
H1100 H 0.34704 0.81326 0.95312 0.0
H1101 H 0.32389 0.79315 0.89605 0.0
H1102 H 0.37592 0.87711 0.99148 0.0
H1103 H 0.43023 0.91924 0.99449 0.0
C1104 C 0.23474 0.37213 0.83675 0.0
C1105 C 0.21492 0.32611 0.82453 0.0
C1106 C 0.14105 0.32662 0.86471 0.0
C1107 C 0.16092 0.37307 0.87762 0.0
N1108 N 0.22694 0.43888 0.86212 0.0
N1109 N 0.14816 0.25999 0.83224 0.0
C1110 C 0.20799 0.39522 0.86037 0.0
C1111 C 0.16786 0.30388 0.84006 0.0
N1112 N 0.28023 0.39443 0.82723 0.0
N1113 N 0.09554 0.30318 0.8735 0.0
H1114 H 0.16429 0.24238 0.81017 0.0
H1115 H 0.11683 0.24075 0.84976 0.0
H1116 H 0.07405 0.31423 0.89712 0.0
H1117 H 0.07803 0.27218 0.85565 0.0
H1118 H 0.29846 0.42635 0.84193 0.0
H1119 H 0.30055 0.38019 0.80742 0.0
H1120 H 0.25932 0.45724 0.84626 0.0
H1121 H 0.209 0.45689 0.87456 0.0
C1122 C 0.7121 0.19702 0.89262 0.0
C1123 C 0.71237 0.18871 0.83935 0.0
C1124 C 0.64543 0.11845 0.85011 0.0
C1125 C 0.64776 0.12598 0.90266 0.0
N1126 N 0.69141 0.16668 0.97078 0.0
N1127 N 0.67902 0.13877 0.76735 0.0
C1128 C 0.68377 0.1635 0.92267 0.0
C1129 C 0.67948 0.14823 0.81817 0.0
N1130 N 0.73744 0.23724 0.91539 0.0
N1131 N 0.60876 0.08462 0.83093 0.0
H1132 H 0.69593 0.16193 0.74335 0.0
H1133 H 0.66178 0.10784 0.7491 0.0
H1134 H 0.58386 0.06163 0.85236 0.0
H1135 H 0.60144 0.08063 0.79451 0.0
H1136 H 0.73477 0.24589 0.95426 0.0
H1137 H 0.75739 0.26331 0.89591 0.0
H1138 H 0.71949 0.19122 0.98654 0.0
H1139 H 0.6721 0.14196 0.99278 0.0
C1140 C 0.98663 0.7211 0.94437 0.0
C1141 C 0.94899 0.69757 0.91713 0.0
C1142 C 0.93217 0.63285 0.95216 0.0
C1143 C 0.97486 0.65382 0.97014 0.0
N1144 N 1.04173 0.71948 0.98729 0.0
N1145 N 0.88435 0.63145 0.89598 0.0
C1146 C 1.00137 0.69872 0.96853 0.0
C1147 C 0.92073 0.65374 0.92219 0.0
N1148 N 1.00829 0.76483 0.9466 0.0
N1149 N 0.90262 0.59274 0.96385 0.0
H1150 H 0.87407 0.64609 0.87517 0.0
H1151 H 0.86572 0.59819 0.89267 0.0
H1152 H 0.91018 0.57671 0.98571 0.0
H1153 H 0.86944 0.57713 0.9561 0.0
H1154 H 1.03357 0.78471 0.96924 0.0
H1155 H 0.99801 0.78166 0.92906 0.0
H1156 H 0.06524 0.7506 0.98154 0.0
H1157 H 0.05282 0.70505 0.00722 0.0
C1158 C 0.1068 0.36482 0.14864 0.0
C1159 C 0.09927 0.32241 0.12793 0.0
C1160 C 0.09275 0.33616 0.04642 0.0
C1161 C 0.09492 0.37706 0.06867 0.0
N1162 N 0.08859 0.42228 0.14725 0.0
N1163 N 0.07693 0.26462 0.0594 0.0
C1164 C 0.09795 0.38934 0.12153 0.0
C1165 C 0.08973 0.30708 0.07748 0.0
N1166 N 0.12261 0.382 0.19434 0.0
N1167 N 0.09604 0.32573 0.9956 0.0
H1168 H 0.07503 0.24259 0.08079 0.0
H1169 H 0.06476 0.25071 0.02473 0.0
H1170 H 0.09985 0.34677 0.97208 0.0
H1171 H 0.09964 0.29847 0.97709 0.0
H1172 H 0.13293 0.41438 0.20866 0.0
H1173 H 0.12974 0.3651 0.21548 0.0
H1174 H 0.0862 0.42934 0.18633 0.0
H1175 H 0.07696 0.4386 0.131 0.0
C1176 C 0.17046 0.62982 0.81832 0.0
C1177 C 0.21373 0.65912 0.83315 0.0
C1178 C 0.18842 0.63288 0.91609 0.0
C1179 C 0.14568 0.6033 0.90052 0.0
N1180 N 0.10029 0.56621 0.83289 0.0
N1181 N 0.26616 0.68312 0.89357 0.0
C1182 C 0.13847 0.59909 0.85011 0.0
C1183 C 0.2235 0.65854 0.8811 0.0
N1184 N 0.15852 0.63313 0.77532 0.0
N1185 N 0.19479 0.6376 0.96512 0.0
H1186 H 0.29207 0.70309 0.86967 0.0
H1187 H 0.27677 0.68143 0.92583 0.0
H1188 H 0.17093 0.61749 0.99042 0.0
H1189 H 0.22254 0.66224 0.98126 0.0
H1190 H 0.12615 0.61612 0.76501 0.0
H1191 H 0.17987 0.65631 0.75242 0.0
H1192 H 0.09488 0.55857 0.7952 0.0
H1193 H 0.07598 0.54382 0.85551 0.0
C1194 C 0.40586 0.16713 0.95259 0.0
C1195 C 0.37055 0.12989 0.93064 0.0
C1196 C 0.40578 0.08589 0.93991 0.0
C1197 C 0.44331 0.12329 0.95764 0.0
N1198 N 0.48282 0.20057 0.97129 0.0
N1199 N 0.34508 0.05686 0.88902 0.0
C1200 C 0.44445 0.16433 0.96145 0.0
C1201 C 0.37311 0.09023 0.9198 0.0
N1202 N 0.402 0.20469 0.96653 0.0
N1203 N 0.39995 0.04594 0.94452 0.0
H1204 H 0.32182 0.05932 0.87159 0.0
H1205 H 0.34853 0.02858 0.87626 0.0
H1206 H 0.42154 0.04114 0.96196 0.0
H1207 H 0.37089 1.01801 0.93656 0.0
H1208 H 0.42443 0.23144 0.98759 0.0
H1209 H 0.37429 0.20794 0.9608 0.0
H1210 H 0.48747 0.23119 0.96827 0.0
H1211 H 0.51135 0.19943 0.97796 0.0
C1212 C 0.89652 0.39604 0.86207 0.0
C1213 C 0.87271 0.35076 0.86093 0.0
C1214 C 0.9274 0.35499 0.91302 0.0
C1215 C 0.95314 0.40008 0.91012 0.0
N1216 N 0.96781 0.4587 0.86644 0.0
N1217 N 0.85819 0.28997 0.89966 0.0
C1218 C 0.9389 0.41934 0.88099 0.0
C1219 C 0.88618 0.33129 0.89085 0.0
N1220 N 0.87794 0.41775 0.84747 0.0
N1221 N 0.94329 0.33358 0.93369 0.0
H1222 H 0.82825 0.27168 0.88391 0.0
H1223 H 0.86201 0.2751 0.92613 0.0
H1224 H 0.9725 0.34798 0.95069 0.0
H1225 H 0.92946 0.30025 0.9305 0.0
H1226 H 0.89072 0.45116 0.85357 0.0
H1227 H 0.84716 0.40181 0.83434 0.0
H1228 H 0.96083 0.47214 0.84084 0.0
H1229 H 1.0011 0.47527 0.87392 0.0
C1230 C 0.74074 0.88674 0.82188 0.0
C1231 C 0.72364 0.8415 0.82326 0.0
C1232 C 0.65764 0.84708 0.88028 0.0
C1233 C 0.67158 0.8907 0.87288 0.0
N1234 N 0.7263 0.94917 0.8285 0.0
N1235 N 0.65983 0.77821 0.84933 0.0
C1236 C 0.71327 0.90963 0.84158 0.0
C1237 C 0.6805 0.82184 0.85149 0.0
N1238 N 0.78456 0.90884 0.80378 0.0
N1239 N 0.62343 0.82981 0.91696 0.0
H1240 H 0.67392 0.75885 0.82703 0.0
H1241 H 0.627 0.76111 0.86521 0.0
H1242 H 0.6069 0.84684 0.93969 0.0
H1243 H 0.61511 0.80068 0.92878 0.0
H1244 H 0.80111 0.94222 0.80602 0.0
H1245 H 0.80553 0.89385 0.79214 0.0
H1246 H 0.75334 0.96288 0.80159 0.0
H1247 H 0.70763 0.96655 0.84105 0.0
C1248 C 0.84131 0.6445 0.17182 0.0
C1249 C 0.86054 0.69078 0.17771 0.0
C1250 C 0.93093 0.68845 0.12913 0.0
C1251 C 0.91369 0.6431 0.12885 0.0
N1252 N 0.85275 0.57974 0.159 0.0
N1253 N 0.92983 0.75556 0.17047 0.0
C1254 C 0.86887 0.62174 0.15258 0.0
C1255 C 0.90693 0.71218 0.15825 0.0
N1256 N 0.79602 0.62143 0.18251 0.0
N1257 N 0.97028 0.70944 0.1002 0.0
H1258 H 0.91522 0.77367 0.19434 0.0
H1259 H 0.96443 0.77265 0.16204 0.0
H1260 H 0.98884 0.69399 0.07852 0.0
H1261 H 0.98188 0.74098 0.09357 0.0
H1262 H 0.77938 0.58814 0.17379 0.0
H1263 H 0.77425 0.63549 0.19508 0.0
H1264 H 0.82292 0.56357 0.18133 0.0
H1265 H 0.87124 0.56221 0.14582 0.0
C1266 C 0.39155 0.8522 0.10642 0.0
C1267 C 0.37783 0.86571 0.15655 0.0
C1268 C 0.43239 0.94097 0.14518 0.0
C1269 C 0.45125 0.92624 0.09857 0.0
N1270 N 0.44903 0.86712 0.03461 0.0
N1271 N 0.3842 0.92324 0.22401 0.0
C1272 C 0.43059 0.88161 0.07907 0.0
C1273 C 0.39753 0.91036 0.17572 0.0
N1274 N 0.36693 0.81112 0.08496 0.0
N1275 N 0.44832 0.98417 0.16051 0.0
H1276 H 0.35985 0.90154 0.24725 0.0
H1277 H 0.3994 0.95438 0.24252 0.0
H1278 H 0.47436 1.00689 0.13953 0.0
H1279 H 0.43378 0.99771 0.1917 0.0
H1280 H 0.37197 0.79969 0.04718 0.0
H1281 H 0.3384 0.78916 0.10416 0.0
H1282 H 0.4366 0.83526 0.01808 0.0
H1283 H 0.47752 0.88716 0.01357 0.0
C1284 C 0.67234 0.14232 0.16024 0.0
C1285 C 0.69471 0.18783 0.16112 0.0
C1286 C 0.64673 0.18003 0.09832 0.0
C1287 C 0.62106 0.13522 0.1022 0.0
N1288 N 0.60409 0.07677 0.14722 0.0
N1289 N 0.70312 0.25015 0.12999 0.0
C1290 C 0.63282 0.11714 0.13547 0.0
C1291 C 0.68169 0.20657 0.12984 0.0
N1292 N 0.688 0.12262 0.18382 0.0
N1293 N 0.63912 0.19714 0.06296 0.0
H1294 H 0.73227 0.26995 0.14702 0.0
H1295 H 0.69131 0.26702 0.11486 0.0
H1296 H 0.61401 0.17948 0.03965 0.0
H1297 H 0.65995 0.22786 0.05349 0.0
H1298 H 0.67726 0.08948 0.17825 0.0
H1299 H 0.71321 0.13935 0.20702 0.0
H1300 H 0.60818 0.06369 0.17543 0.0
H1301 H 0.57321 0.05814 0.13337 0.0
C1302 C 0.68499 0.66676 0.87496 0.0
C1303 C 0.70439 0.65959 0.82514 0.0
C1304 C 0.66639 0.58167 0.83117 0.0
C1305 C 0.64818 0.58945 0.88173 0.0
N1306 N 0.6637 0.64205 0.95585 0.0
N1307 N 0.72555 0.61067 0.76342 0.0
C1308 C 0.66425 0.63278 0.90507 0.0
C1309 C 0.69886 0.61712 0.80549 0.0
N1310 N 0.68617 0.70591 0.89406 0.0
N1311 N 0.65313 0.54045 0.80776 0.0
H1312 H 0.75001 0.63581 0.74445 0.0
H1313 H 0.72596 0.58109 0.75002 0.0
H1314 H 0.63293 0.51392 0.82679 0.0
H1315 H 0.66103 0.5329 0.76934 0.0
H1316 H 0.66895 0.71135 0.92881 0.0
H1317 H 0.70115 0.73157 0.87328 0.0
H1318 H 0.67712 0.67342 0.97446 0.0
H1319 H 0.65768 0.61872 0.97753 0.0
C1320 C 0.5298 0.66368 0.80059 0.0
C1321 C 0.48505 0.64631 0.78964 0.0
C1322 C 0.45933 0.6 0.85472 0.0
C1323 C 0.50468 0.61235 0.86087 0.0
N1324 N 0.58376 0.65097 0.83219 0.0
N1325 N 0.40906 0.58985 0.79718 0.0
C1326 C 0.54032 0.64316 0.83206 0.0
C1327 C 0.45027 0.61236 0.81429 0.0
N1328 N 0.56198 0.69966 0.78105 0.0
N1329 N 0.42446 0.57605 0.88713 0.0
H1330 H 0.40115 0.59611 0.76582 0.0
H1331 H 0.38428 0.56171 0.81058 0.0
H1332 H 0.42843 0.56462 0.91685 0.0
H1333 H 0.39157 0.57101 0.88735 0.0
H1334 H 0.59475 0.71542 0.79007 0.0
H1335 H 0.55475 0.71577 0.75895 0.0
H1336 H 0.61037 0.66976 0.80796 0.0
H1337 H 0.59291 0.63584 0.85346 0.0
C1338 C 0.43322 0.34155 0.83055 0.0
C1339 C 0.39166 0.3436 0.83398 0.0
C1340 C 0.41767 0.40517 0.90201 0.0
C1341 C 0.4571 0.40032 0.90243 0.0
N1342 N 0.50162 0.36229 0.8669 0.0
N1343 N 0.34126 0.37207 0.88145 0.0
C1344 C 0.46432 0.36775 0.86682 0.0
C1345 C 0.38332 0.37425 0.87176 0.0
N1346 N 0.44425 0.31621 0.79084 0.0
N1347 N 0.41278 0.43961 0.93033 0.0
H1348 H 0.31475 0.34865 0.86232 0.0
H1349 H 0.3313 0.39003 0.91207 0.0
H1350 H 0.43564 0.46172 0.95453 0.0
H1351 H 0.38793 0.44802 0.92685 0.0
H1352 H 0.47567 0.31642 0.78253 0.0
H1353 H 0.42328 0.29757 0.76316 0.0
H1354 H 0.50618 0.33576 0.84749 0.0
H1355 H 0.52753 0.3837 0.88816 0.0
C1356 C 0.59686 0.2855 0.9922 0.0
C1357 C 0.6348 0.2903 0.95725 0.0
C1358 C 0.65284 0.36455 0.95601 0.0
C1359 C 0.60753 0.35525 0.97575 0.0
N1360 N 0.54179 0.31185 0.02914 0.0
N1361 N 0.71154 0.34118 0.9459 0.0
C1362 C 0.58107 0.31728 0.99949 0.0
C1363 C 0.66747 0.3327 0.95387 0.0
N1364 N 0.58094 0.25479 0.02311 0.0
N1365 N 0.68051 0.40108 0.93502 0.0
H1366 H 0.72103 0.31652 0.94253 0.0
H1367 H 0.7375 0.37232 0.94745 0.0
H1368 H 0.67095 0.42381 0.93018 0.0
H1369 H 0.71256 0.40684 0.91805 0.0
H1370 H 0.5558 0.25173 0.05312 0.0
H1371 H 0.59703 0.23557 0.02156 0.0
H1372 H 0.51936 0.28309 0.04282 0.0
H1373 H 0.53162 0.33622 0.04034 0.0
C1374 C 0.66182 0.39805 0.10944 0.0
C1375 C 0.64147 0.38534 0.15701 0.0
C1376 C 0.57265 0.38457 0.14097 0.0
C1377 C 0.59799 0.4094 0.1014 0.0
N1378 N 0.67147 0.44706 0.05509 0.0
N1379 N 0.57605 0.36486 0.21902 0.0
C1380 C 0.64369 0.41745 0.08657 0.0
C1381 C 0.5959 0.37683 0.17264 0.0
N1382 N 0.70024 0.39462 0.0883 0.0
N1383 N 0.52729 0.37081 0.15006 0.0
H1384 H 0.59197 0.35893 0.24327 0.0
H1385 H 0.54471 0.36319 0.23463 0.0
H1386 H 0.50968 0.37723 0.12836 0.0
H1387 H 0.50681 0.34982 0.17602 0.0
H1388 H 0.7148 0.40114 0.05183 0.0
H1389 H 0.7143 0.38083 0.1055 0.0
H1390 H 0.70583 0.45602 0.04731 0.0
H1391 H 0.66191 0.46636 0.0413 0.0
C1392 C 0.65219 0.68794 0.15936 0.0
C1393 C 0.69186 0.68262 0.15688 0.0
C1394 C 0.66235 0.62058 0.08974 0.0
C1395 C 0.62462 0.62826 0.08906 0.0
N1396 N 0.58646 0.67289 0.12131 0.0
N1397 N 0.73701 0.64686 0.11376 0.0
C1398 C 0.62074 0.66326 0.12306 0.0
C1399 C 0.69721 0.64942 0.12076 0.0
N1400 N 0.64269 0.71451 0.19873 0.0
N1401 N 0.66541 0.58569 0.06017 0.0
H1402 H 0.76341 0.66736 0.13468 0.0
H1403 H 0.74573 0.62723 0.08428 0.0
H1404 H 0.64423 0.56693 0.0329 0.0
H1405 H 0.68758 0.57414 0.06423 0.0
H1406 H 0.61225 0.71636 0.20635 0.0
H1407 H 0.66313 0.73143 0.2273 0.0
H1408 H 0.58517 0.70129 0.13944 0.0
H1409 H 0.56038 0.65369 0.09943 0.0
C1410 C 0.49016 0.73441 0.95628 0.0
C1411 C 0.44638 0.72644 0.9782 0.0
C1412 C 0.42808 0.65293 0.98158 0.0
C1413 C 0.47521 0.66508 0.97764 0.0
N1414 N 0.54872 0.71319 0.9373 0.0
N1415 N 0.37289 0.67235 0.96313 0.0
C1416 C 0.50568 0.70417 0.95733 0.0
C1417 C 0.4153 0.68302 0.97135 0.0
N1418 N 0.51682 0.76979 0.93323 0.0
N1419 N 0.39602 0.61614 0.99955 0.0
H1420 H 0.36396 0.6961 0.95962 0.0
H1421 H 0.34887 0.64055 0.95632 0.0
H1422 H 0.40277 0.59463 0.01276 0.0
H1423 H 0.36208 0.60911 0.00585 0.0
H1424 H 0.50556 0.7918 0.92945 0.0
H1425 H 0.50556 0.7918 0.92945 0.0
H1426 H 0.56284 0.69191 0.93273 0.0
H1427 H 0.56284 0.69191 0.93273 0.0
C1428 C 0.35784 0.38252 0.12341 0.0
C1429 C 0.3618 0.38287 0.17417 0.0
C1430 C 0.42628 0.4544 0.16974 0.0
C1431 C 0.4318 0.44557 0.11598 0.0
N1432 N 0.39718 0.39954 0.04185 0.0
N1433 N 0.38114 0.43227 0.24899 0.0
C1434 C 0.39571 0.40959 0.09276 0.0
C1435 C 0.39107 0.4228 0.19867 0.0
N1436 N 0.31703 0.36088 0.10579 0.0
N1437 N 0.45509 0.49289 0.19299 0.0
H1438 H 0.35373 0.4101 0.26903 0.0
H1439 H 0.3968 0.4624 0.26964 0.0
H1440 H 0.47673 0.51861 0.17322 0.0
H1441 H 0.45756 0.49945 0.23142 0.0
H1442 H 0.31211 0.36303 0.07027 0.0
H1443 H 0.28738 0.34542 0.12867 0.0
H1444 H 0.37411 0.37055 0.02452 0.0
H1445 H 0.4217 0.41891 0.01699 0.0
C1446 C 0.87006 0.67923 0.61745 0.0
C1447 C 0.85356 0.6805 0.66994 0.0
C1448 C 0.88089 0.62491 0.67007 0.0
C1449 C 0.90177 0.62745 0.61885 0.0
N1450 N 0.92366 0.66771 0.55012 0.0
N1451 N 0.84935 0.65585 0.7471 0.0
C1452 C 0.89766 0.65708 0.59433 0.0
C1453 C 0.86103 0.65376 0.69628 0.0
N1454 N 0.85993 0.69972 0.58864 0.0
N1455 N 0.87811 0.59328 0.69361 0.0
H1456 H 0.8328 0.67391 0.76695 0.0
H1457 H 0.85883 0.64219 0.76999 0.0
H1458 H 0.89033 0.57111 0.67583 0.0
H1459 H 0.8597 0.58613 0.72853 0.0
H1460 H 0.86532 0.69549 0.5495 0.0
H1461 H 0.8431 0.71834 0.60392 0.0
H1462 H 0.92825 0.69421 0.53497 0.0
H1463 H 0.94479 0.6537 0.53274 0.0
C1464 C 0.3983 0.85446 0.61205 0.0
C1465 C 0.37388 0.85899 0.65981 0.0
C1466 C 0.39233 0.93183 0.64564 0.0
C1467 C 0.42719 0.93224 0.60628 0.0
N1468 N 0.45508 0.88746 0.54476 0.0
N1469 N 0.35484 0.90802 0.72511 0.0
C1470 C 0.42835 0.89176 0.58777 0.0
C1471 C 0.37331 0.89948 0.67763 0.0
N1472 N 0.38915 0.81418 0.5873 0.0
N1473 N 0.37294 0.95876 0.64961 0.0
H1474 H 0.34064 0.88635 0.75098 0.0
H1475 H 0.35792 0.93873 0.74018 0.0
H1476 H 0.37663 0.97538 0.62058 0.0
H1477 H 0.34604 0.95753 0.67668 0.0
H1478 H 0.40238 0.8081 0.55043 0.0
H1479 H 0.36394 0.78669 0.60166 0.0
H1480 H 0.46328 0.86171 0.53474 0.0
H1481 H 0.4672 0.90848 0.51812 0.0
C1482 C 0.23645 0.4332 0.57102 0.0
C1483 C 0.21433 0.40912 0.61172 0.0
C1484 C 0.14215 0.40328 0.59682 0.0
C1485 C 0.16457 0.42765 0.5561 0.0
N1486 N 0.2303 0.45399 0.49561 0.0
N1487 N 0.14541 0.36259 0.65613 0.0
C1488 C 0.21074 0.43839 0.54027 0.0
C1489 C 0.16679 0.39109 0.62199 0.0
N1490 N 0.28231 0.45399 0.56377 0.0
N1491 N 0.09836 0.39429 0.6137 0.0
H1492 H 0.1628 0.35349 0.67505 0.0
H1493 H 0.11066 0.34523 0.66231 0.0
H1494 H 0.07918 0.40214 0.59605 0.0
H1495 H 0.08173 0.38125 0.64682 0.0
H1496 H 0.30007 0.47678 0.53913 0.0
H1497 H 0.30285 0.45102 0.5849 0.0
H1498 H 0.26216 0.45761 0.47913 0.0
H1499 H 0.21284 0.4593 0.47282 0.0
C1500 C 0.71756 0.12818 0.63813 0.0
C1501 C 0.7312 0.17165 0.63124 0.0
C1502 C 0.68222 0.14272 0.56276 0.0
C1503 C 0.66543 0.10024 0.57439 0.0
N1504 N 0.65929 0.05497 0.63245 0.0
N1505 N 0.74082 0.21627 0.57043 0.0
C1506 C 0.68075 0.09383 0.61487 0.0
C1507 C 0.71717 0.17796 0.58907 0.0
N1508 N 0.74293 0.11852 0.66152 0.0
N1509 N 0.66358 0.14969 0.52781 0.0
H1510 H 0.77017 0.2403 0.58426 0.0
H1511 H 0.73526 0.22216 0.53738 0.0
H1512 H 0.63811 0.12483 0.50834 0.0
H1513 H 0.67053 0.18014 0.52114 0.0
H1514 H 0.73586 0.08721 0.66492 0.0
H1515 H 0.77543 0.14031 0.668 0.0
H1516 H 0.66599 0.04987 0.66539 0.0
H1517 H 0.63143 0.02934 0.61738 0.0
C1518 C 0.90957 0.40542 0.33821 0.0
C1519 C 0.87199 0.36958 0.35746 0.0
C1520 C 0.88621 0.40621 0.44393 0.0
C1521 C 0.92476 0.44143 0.42444 0.0
N1522 N 0.96587 0.47923 0.35325 0.0
N1523 N 0.82711 0.33334 0.42847 0.0
C1524 C 0.93466 0.44209 0.37158 0.0
C1525 C 0.86116 0.36928 0.41033 0.0
N1526 N 0.92238 0.40379 0.28763 0.0
N1527 N 0.87213 0.4089 0.49436 0.0
H1528 H 0.80683 0.30669 0.40532 0.0
H1529 H 0.82045 0.32853 0.46601 0.0
H1530 H 0.88947 0.43479 0.52022 0.0
H1531 H 0.84173 0.38699 0.51065 0.0
H1532 H 0.95272 0.42556 0.27099 0.0
H1533 H 0.90401 0.37839 0.26214 0.0
H1534 H 0.97103 0.48391 0.31581 0.0
H1535 H 0.9837 0.50746 0.37615 0.0
C1536 C 0.72204 0.86424 0.38494 0.0
C1537 C 0.72411 0.84969 0.33215 0.0
C1538 C 0.68263 0.89273 0.32933 0.0
C1539 C 0.67516 0.90198 0.38335 0.0
N1540 N 0.67465 0.87714 0.4586 0.0
N1541 N 0.69482 0.84412 0.25659 0.0
C1542 C 0.69153 0.88254 0.41 0.0
C1543 C 0.70099 0.86233 0.3052 0.0
N1544 N 0.75111 0.86317 0.41168 0.0
N1545 N 0.67364 0.914 0.30023 0.0
H1546 H 0.70662 0.82172 0.23849 0.0
H1547 H 0.67457 0.84816 0.23612 0.0
H1548 H 0.66431 0.93862 0.31529 0.0
H1549 H 0.6803 0.91065 0.26119 0.0
H1550 H 0.75306 0.8761 0.44953 0.0
H1551 H 0.77643 0.85429 0.39418 0.0
H1552 H 0.68117 0.85834 0.47748 0.0
H1553 H 0.64999 0.88657 0.47689 0.0
C1554 C 0.2156 0.68216 0.38588 0.0
C1555 C 0.2034 0.68734 0.34192 0.0
C1556 C 0.13339 0.61954 0.35084 0.0
C1557 C 0.14817 0.61196 0.39106 0.0
N1558 N 0.20827 0.63332 0.44079 0.0
N1559 N 0.15475 0.65403 0.27615 0.0
C1560 C 0.19048 0.64275 0.40718 0.0
C1561 C 0.16329 0.65418 0.32278 0.0
N1562 N 0.25243 0.71429 0.40636 0.0
N1563 N 0.09091 0.59324 0.3387 0.0
H1564 H 0.17581 0.67778 0.25385 0.0
H1565 H 0.12902 0.62842 0.25779 0.0
H1566 H 0.06866 0.56705 0.35744 0.0
H1567 H 0.0765 0.59966 0.31319 0.0
H1568 H 0.26014 0.71525 0.44169 0.0
H1569 H 0.27408 0.74124 0.38889 0.0
H1570 H 0.24084 0.65191 0.45011 0.0
H1571 H 0.19178 0.60476 0.45623 0.0
C1572 C 0.44439 0.15179 0.36172 0.0
C1573 C 0.4596 0.19622 0.37919 0.0
C1574 C 0.48695 0.18632 0.4499 0.0
C1575 C 0.47657 0.14297 0.4283 0.0
N1576 N 0.46048 0.0912 0.35289 0.0
N1577 N 0.50576 0.2577 0.43358 0.0
C1578 C 0.45988 0.12773 0.3809 0.0
C1579 C 0.48419 0.21417 0.42133 0.0
N1580 N 0.41403 0.13202 0.32782 0.0
N1581 N 0.49693 0.20064 0.49826 0.0
H1582 H 0.50341 0.27903 0.41455 0.0
H1583 H 0.52856 0.2723 0.4601 0.0
H1584 H 0.49695 0.18122 0.5219 0.0
H1585 H 0.50044 0.23076 0.51659 0.0
H1586 H 0.39959 0.09891 0.31648 0.0
H1587 H 0.39892 0.14804 0.31707 0.0
H1588 H 0.45156 0.08084 0.31642 0.0
H1589 H 0.47543 0.07462 0.36327 0.0
C1590 C 0.68389 0.87568 0.59504 0.0
C1591 C 0.65241 0.86006 0.63739 0.0
C1592 C 0.62289 0.91139 0.63667 0.0
C1593 C 0.64862 0.92095 0.58942 0.0
N1594 N 0.7203 0.93219 0.54158 0.0
N1595 N 0.60767 0.87614 0.71046 0.0
C1596 C 0.68493 0.90995 0.57459 0.0
C1597 C 0.62733 0.88275 0.66244 0.0
N1598 N 0.71072 0.85632 0.57229 0.0
N1599 N 0.59429 0.92949 0.65643 0.0
H1600 H 0.61101 0.85513 0.72913 0.0
H1601 H 0.5923 0.89421 0.73314 0.0
H1602 H 0.59185 0.95168 0.63901 0.0
H1603 H 0.57269 0.92238 0.68954 0.0
H1604 H 0.73104 0.86385 0.53844 0.0
H1605 H 0.71135 0.83139 0.58596 0.0
H1606 H 0.74974 0.92842 0.53363 0.0
H1607 H 0.72164 0.95675 0.52511 0.0
C1608 C 0.65869 0.13789 0.32819 0.0
C1609 C 0.70127 0.16925 0.34279 0.0
C1610 C 0.69397 0.12428 0.40454 0.0
C1611 C 0.65002 0.09449 0.39241 0.0
N1612 N 0.5876 0.07712 0.34854 0.0
N1613 N 0.75455 0.19646 0.40291 0.0
C1614 C 0.63143 0.10281 0.35625 0.0
C1615 C 0.7172 0.16382 0.3837 0.0
N1616 N 0.64455 0.14094 0.28662 0.0
N1617 N 0.71434 0.11437 0.43478 0.0
H1618 H 0.77286 0.22546 0.38823 0.0
H1619 H 0.76505 0.19635 0.43609 0.0
H1620 H 0.69905 0.08578 0.45019 0.0
H1621 H 0.74782 0.13268 0.44107 0.0
H1622 H 0.61655 0.11681 0.27039 0.0
H1623 H 0.66276 0.16667 0.26625 0.0
H1624 H 0.57029 0.08448 0.32752 0.0
H1625 H 0.56746 0.04991 0.36627 0.0
C1626 C 0.89051 0.59984 0.34751 0.0
C1627 C 0.87569 0.62999 0.37671 0.0
C1628 C 0.93973 0.65743 0.42494 0.0
C1629 C 0.94246 0.6181 0.40903 0.0
N1630 N 0.93318 0.5595 0.34268 0.0
N1631 N 0.89149 0.69304 0.43921 0.0
C1632 C 0.9224 0.59215 0.36548 0.0
C1633 C 0.90259 0.66133 0.41339 0.0
N1634 N 0.87304 0.57823 0.30351 0.0
N1635 N 0.97317 0.69109 0.44895 0.0
H1636 H 0.8643 0.69659 0.43261 0.0
H1637 H 0.90845 0.7149 0.4685 0.0
H1638 H 1.00086 0.68859 0.45612 0.0
H1639 H 0.97532 0.72201 0.45703 0.0
H1640 H 0.88355 0.55715 0.27878 0.0
H1641 H 0.85027 0.58443 0.28989 0.0
H1642 H 0.91665 0.53603 0.31422 0.0
H1643 H 0.95937 0.55632 0.35307 0.0
C1644 C 0.3583 0.87195 0.40687 0.0
C1645 C 0.37064 0.87084 0.35349 0.0
C1646 C 0.43863 0.93984 0.37007 0.0
C1647 C 0.42713 0.93992 0.42271 0.0
N1648 N 0.37201 0.91 0.49166 0.0
N1649 N 0.43109 0.90096 0.28683 0.0
C1650 C 0.38579 0.90705 0.44114 0.0
C1651 C 0.41317 0.90384 0.33595 0.0
N1652 N 0.32228 0.83751 0.42533 0.0
N1653 N 0.47213 0.97612 0.35205 0.0
H1654 H 0.41434 0.87854 0.25825 0.0
H1655 H 0.46464 0.91974 0.27459 0.0
H1656 H 0.49021 1.0039 0.3754 0.0
H1657 H 0.47835 0.98068 0.31439 0.0
H1658 H 0.31486 0.83288 0.46297 0.0
H1659 H 0.30144 0.81129 0.40261 0.0
H1660 H 0.33988 0.89106 0.50772 0.0
H1661 H 0.39185 0.93378 0.51771 0.0
C1662 C 0.2485 0.40608 0.35306 0.0
C1663 C 0.22506 0.36049 0.33749 0.0
C1664 C 0.15416 0.36884 0.37462 0.0
C1665 C 0.17722 0.41498 0.38356 0.0
N1666 N 0.24837 0.47668 0.3723 0.0
N1667 N 0.15213 0.29997 0.33287 0.0
C1668 C 0.22497 0.43312 0.37044 0.0
C1669 C 0.17694 0.34267 0.348 0.0
N1670 N 0.29383 0.42415 0.35222 0.0
N1671 N 0.11017 0.34924 0.39422 0.0
H1672 H 0.16634 0.2789 0.31808 0.0
H1673 H 0.1175 0.28582 0.3326 0.0
H1674 H 0.09295 0.36637 0.41511 0.0
H1675 H 0.09214 0.3162 0.39473 0.0
H1676 H 0.31286 0.45558 0.36799 0.0
H1677 H 0.31158 0.40607 0.34056 0.0
H1678 H 0.282 0.4921 0.35788 0.0
H1679 H 0.23313 0.49721 0.38438 0.0
C1680 C 0.36622 0.16755 0.61062 0.0
C1681 C 0.36713 0.18607 0.66248 0.0
C1682 C 0.4084 0.14427 0.66961 0.0
C1683 C 0.41423 0.13121 0.61613 0.0
N1684 N 0.39634 0.13363 0.53611 0.0
N1685 N 0.39694 0.19544 0.73893 0.0
C1686 C 0.39236 0.14384 0.58699 0.0
C1687 C 0.39074 0.17542 0.69087 0.0
N1688 N 0.33821 0.17055 0.58386 0.0
N1689 N 0.41586 0.12398 0.70147 0.0
H1690 H 0.385 0.21801 0.75549 0.0
H1691 H 0.41769 0.19291 0.76018 0.0
H1692 H 0.42256 0.09745 0.68907 0.0
H1693 H 0.40856 0.12897 0.74041 0.0
H1694 H 0.33094 0.15382 0.54819 0.0
H1695 H 0.31899 0.18691 0.59954 0.0
H1696 H 0.38807 0.14731 0.512 0.0
H1697 H 0.4097 0.11278 0.51786 0.0
C1698 C 0.89366 0.35892 0.60263 0.0
C1699 C 0.88261 0.36331 0.6558 0.0
C1700 C 0.92926 0.4418 0.65958 0.0
C1701 C 0.93977 0.43801 0.60644 0.0
N1702 N 0.9398 0.39106 0.52842 0.0
N1703 N 0.88949 0.41021 0.73437 0.0
C1704 C 0.92436 0.39596 0.57826 0.0
C1705 C 0.90066 0.40498 0.68377 0.0
N1706 N 0.87366 0.31941 0.57508 0.0
N1707 N 0.94731 0.48044 0.68908 0.0
H1708 H 0.86765 0.3845 0.75353 0.0
H1709 H 0.90092 0.44029 0.75633 0.0
H1710 H 0.97069 0.50917 0.67573 0.0
H1711 H 0.97069 0.50917 0.67573 0.0
H1712 H 0.87503 0.31447 0.53608 0.0
H1713 H 0.85298 0.29153 0.5915 0.0
H1714 H 0.93438 0.36146 0.50711 0.0
H1715 H 0.9606 0.41676 0.50858 0.0
C1716 C 0.20172 0.68221 0.61048 0.0
C1717 C 0.21457 0.6703 0.64914 0.0
C1718 C 0.17031 0.59371 0.61796 0.0
C1719 C 0.15928 0.60549 0.57815 0.0
N1720 N 0.15665 0.66006 0.54136 0.0
N1721 N 0.21728 0.61377 0.68331 0.0
C1722 C 0.17282 0.64957 0.57577 0.0
C1723 C 0.20078 0.62583 0.65086 0.0
N1724 N 0.21966 0.72471 0.60489 0.0
N1725 N 0.14873 0.55182 0.62697 0.0
H1726 H 0.23699 0.63503 0.71079 0.0
H1727 H 0.214 0.58275 0.68076 0.0
H1728 H 0.12461 0.52755 0.60529 0.0
H1729 H 0.15082 0.54178 0.65906 0.0
H1730 H 0.21584 0.73582 0.57474 0.0
H1731 H 0.24159 0.74931 0.62859 0.0
H1732 H 0.16096 0.6909 0.54035 0.0
H1733 H 0.13607 0.63709 0.51526 0.0
loop_
_geom_bond_atom_site_label_1
_geom_bond_atom_site_label_2
_geom_bond_distance
_geom_bond_site_symmetry_2
_ccdc_geom_bond_type
C0 C2 1.422 . S
C0 C4 1.415 . S
C0 N6 1.369 . S
C1 C2 1.421 . S
C1 C3 1.417 . S
C1 C13 1.422 . S
C2 C0 1.422 . S
C2 C1 1.421 . S
C2 N12 1.359 . S
C3 C1 1.417 . S
C3 C5 1.329 . S
C3 H22 0.930 . S
C4 C0 1.415 . S
C4 C5 1.437 . S
C4 C8 1.413 . S
C5 C3 1.329 . S
C5 C4 1.437 . S
C5 H27 0.929 . S
N6 C0 1.369 . S
N6 C7 1.338 . S
N6 Gd11 2.622 . S
C7 N6 1.338 . S
C7 C9 1.378 . S
C7 H19 0.929 . S
C8 C4 1.413 . S
C8 C9 1.348 . S
C8 H24 0.931 . S
C9 C7 1.378 . S
C9 C8 1.348 . S
C9 H25 0.930 . S
Gd10 N30 2.622 . S
Gd10 N37 2.570 . S
Gd10 O44 2.353 . S
Gd10 O45 2.468 . S
Gd10 O46 2.427 . S
Gd10 O48 2.388 . S
Gd10 O49 2.386 . S
Gd10 O53 2.307 . S
Gd10 C63 2.805 . S
Gd11 N6 2.622 . S
Gd11 N12 2.570 . S
Gd11 O43 2.386 . S
Gd11 O47 2.307 . S
Gd11 O50 2.353 . S
Gd11 O51 2.468 . S
Gd11 O52 2.427 . S
Gd11 O54 2.388 . S
Gd11 C75 2.805 . S
N12 C2 1.359 . S
N12 Gd11 2.570 . S
N12 C14 1.343 . S
C13 C1 1.422 . S
C13 C15 1.321 . S
C13 H21 0.931 . S
C14 N12 1.343 . S
C14 C15 1.390 . S
C14 H16 0.931 . S
C15 C13 1.321 . S
C15 C14 1.390 . S
C15 H17 0.930 . S
H16 C14 0.931 . S
H17 C15 0.930 . S
H18 C41 0.931 . S
H19 C7 0.929 . S
H20 C42 0.930 . S
H21 C13 0.931 . S
H22 C3 0.930 . S
H23 C32 0.929 . S
H24 C8 0.931 . S
H25 C9 0.930 . S
H26 C64 0.930 1_556 S
H27 C5 0.929 . S
H28 C33 0.931 . S
H29 C34 0.930 . S
N30 Gd10 2.622 . S
N30 C31 1.369 . S
N30 C32 1.338 . S
C31 N30 1.369 . S
C31 C35 1.415 . S
C31 C38 1.422 . S
C32 H23 0.929 . S
C32 N30 1.338 . S
C32 C34 1.378 . S
C33 H28 0.931 . S
C33 C34 1.348 . S
C33 C35 1.413 . S
C34 H29 0.930 . S
C34 C32 1.378 . S
C34 C33 1.348 . S
C35 C31 1.415 . S
C35 C33 1.413 . S
C35 C65 1.437 . S
H36 C65 0.929 . S
N37 Gd10 2.570 . S
N37 C38 1.359 . S
N37 C41 1.343 . S
C38 C31 1.422 . S
C38 N37 1.359 . S
C38 C40 1.421 . S
C39 C40 1.422 . S
C39 C42 1.321 . S
C39 H66 0.931 1_554 S
C40 C38 1.421 . S
C40 C39 1.422 . S
C40 C64 1.417 . S
C41 H18 0.931 . S
C41 N37 1.343 . S
C41 C42 1.390 . S
C42 H20 0.930 . S
C42 C39 1.321 . S
C42 C41 1.390 . S
O43 Gd11 2.386 . S
O43 C55 1.265 . S
O44 Gd10 2.353 . S
O44 C55 1.242 . S
O45 Gd10 2.468 . S
O45 C63 1.263 . S
O46 Gd10 2.427 . S
O46 C63 1.252 . S
O47 Gd11 2.307 . S
O47 C56 1.261 . S
O48 Gd10 2.388 . S
O48 C56 1.252 . S
O49 Gd10 2.386 . S
O49 C67 1.265 . S
O50 Gd11 2.353 . S
O50 C67 1.242 . S
O51 Gd11 2.468 . S
O51 C75 1.263 . S
O52 Gd11 2.427 . S
O52 C75 1.252 . S
O53 Gd10 2.307 . S
O53 C68 1.261 . S
O54 Gd11 2.388 . S
O54 C68 1.252 . S
C55 O43 1.265 . S
C55 O44 1.242 . S
C56 O47 1.261 . S
C56 O48 1.252 . S
C57 C60 1.394 . S
C57 C62 1.370 . S
C57 C63 1.500 . S
C58 C61 1.383 . S
C58 C62 1.395 . S
C59 C60 1.396 . S
C59 C61 1.365 . S
C59 H76 0.929 . S
C60 C57 1.394 . S
C60 C59 1.396 . S
C60 H77 0.930 . S
C61 C58 1.383 . S
C61 C59 1.365 . S
C61 H78 0.931 . S
C62 C57 1.370 . S
C62 C58 1.395 . S
C62 H79 0.930 . S
C63 Gd10 2.805 . S
C63 O45 1.263 . S
C63 O46 1.252 . S
C63 C57 1.500 . S
C64 H26 0.930 1_554 S
C64 C40 1.417 . S
C64 C65 1.329 . S
C65 C35 1.437 . S
C65 H36 0.929 . S
C65 C64 1.329 . S
H66 C39 0.931 1_556 S
C67 O49 1.265 . S
C67 O50 1.242 . S
C68 O53 1.261 . S
C68 O54 1.252 . S
C69 C72 1.394 . S
C69 C74 1.370 . S
C69 C75 1.500 . S
C70 C73 1.383 . S
C70 C74 1.395 . S
C71 C72 1.396 . S
C71 C73 1.365 . S
C71 H80 0.929 . S
C72 C69 1.394 . S
C72 C71 1.396 . S
C72 H81 0.930 . S
C73 C70 1.383 . S
C73 C71 1.365 . S
C73 H82 0.931 . S
C74 C69 1.370 . S
C74 C70 1.395 . S
C74 H83 0.930 . S
C75 Gd11 2.805 . S
C75 O51 1.263 . S
C75 O52 1.252 . S
C75 C69 1.500 . S
H76 C59 0.929 . S
H77 C60 0.930 . S
H78 C61 0.931 . S
H79 C62 0.930 . S
H80 C71 0.929 . S
H81 C72 0.930 . S
H82 C73 0.931 . S
H83 C74 0.930 . S
C84 C86 1.422 . S
C84 C88 1.415 . S
C84 N90 1.369 . S
C85 C86 1.421 . S
C85 C87 1.417 . S
C85 C97 1.422 . S
C86 C84 1.422 . S
C86 C85 1.421 . S
C86 N96 1.359 . S
C87 C85 1.417 . S
C87 C89 1.329 . S
C87 H106 0.930 . S
C88 C84 1.415 . S
C88 C89 1.437 . S
C88 C92 1.413 . S
C89 C87 1.329 . S
C89 C88 1.437 . S
C89 H111 0.929 . S
N90 C84 1.369 . S
N90 C91 1.338 . S
N90 Gd95 2.622 . S
C91 N90 1.338 . S
C91 C93 1.378 . S
C91 H103 0.929 . S
C92 C88 1.413 . S
C92 C93 1.348 . S
C92 H108 0.931 . S
C93 C91 1.378 . S
C93 C92 1.348 . S
C93 H109 0.930 . S
Gd94 N114 2.622 . S
Gd94 N121 2.570 . S
Gd94 O128 2.353 . S
Gd94 O129 2.468 . S
Gd94 O130 2.427 . S
Gd94 O132 2.388 . S
Gd94 O133 2.386 . S
Gd94 O137 2.307 . S
Gd94 C147 2.805 . S
Gd95 N90 2.622 . S
Gd95 N96 2.570 . S
Gd95 O127 2.386 . S
Gd95 O131 2.307 . S
Gd95 O134 2.353 . S
Gd95 O135 2.468 . S
Gd95 O136 2.427 . S
Gd95 O138 2.388 . S
Gd95 C159 2.805 . S
N96 C86 1.359 . S
N96 Gd95 2.570 . S
N96 C98 1.343 . S
C97 C85 1.422 . S
C97 C99 1.321 . S
C97 H105 0.931 . S
C98 N96 1.343 . S
C98 C99 1.390 . S
C98 H100 0.931 . S
C99 C97 1.321 . S
C99 C98 1.390 . S
C99 H101 0.930 . S
H100 C98 0.931 . S
H101 C99 0.930 . S
H102 C125 0.931 . S
H103 C91 0.929 . S
H104 C126 0.930 . S
H105 C97 0.931 . S
H106 C87 0.930 . S
H107 C116 0.929 . S
H108 C92 0.931 . S
H109 C93 0.930 . S
H110 C148 0.930 . S
H111 C89 0.929 . S
H112 C117 0.931 . S
H113 C118 0.930 . S
N114 Gd94 2.622 . S
N114 C115 1.369 . S
N114 C116 1.338 . S
C115 N114 1.369 . S
C115 C119 1.415 . S
C115 C122 1.422 . S
C116 H107 0.929 . S
C116 N114 1.338 . S
C116 C118 1.378 . S
C117 H112 0.931 . S
C117 C118 1.348 . S
C117 C119 1.413 . S
C118 H113 0.930 . S
C118 C116 1.378 . S
C118 C117 1.348 . S
C119 C115 1.415 . S
C119 C117 1.413 . S
C119 C149 1.437 . S
H120 C149 0.929 . S
N121 Gd94 2.570 . S
N121 C122 1.359 . S
N121 C125 1.343 . S
C122 C115 1.422 . S
C122 N121 1.359 . S
C122 C124 1.421 . S
C123 C124 1.422 . S
C123 C126 1.321 . S
C123 H150 0.931 . S
C124 C122 1.421 . S
C124 C123 1.422 . S
C124 C148 1.417 . S
C125 H102 0.931 . S
C125 N121 1.343 . S
C125 C126 1.390 . S
C126 H104 0.930 . S
C126 C123 1.321 . S
C126 C125 1.390 . S
O127 Gd95 2.386 . S
O127 C139 1.265 . S
O128 Gd94 2.353 . S
O128 C139 1.242 . S
O129 Gd94 2.468 . S
O129 C147 1.263 . S
O130 Gd94 2.427 . S
O130 C147 1.252 . S
O131 Gd95 2.307 . S
O131 C140 1.261 . S
O132 Gd94 2.388 . S
O132 C140 1.252 . S
O133 Gd94 2.386 . S
O133 C151 1.265 . S
O134 Gd95 2.353 . S
O134 C151 1.242 . S
O135 Gd95 2.468 . S
O135 C159 1.263 . S
O136 Gd95 2.427 . S
O136 C159 1.252 . S
O137 Gd94 2.307 . S
O137 C152 1.261 . S
O138 Gd95 2.388 . S
O138 C152 1.252 . S
C139 O127 1.265 . S
C139 O128 1.242 . S
C140 O131 1.261 . S
C140 O132 1.252 . S
C141 C144 1.394 . S
C141 C146 1.370 . S
C141 C147 1.500 . S
C142 C145 1.383 . S
C142 C146 1.395 . S
C143 C144 1.396 . S
C143 C145 1.365 . S
C143 H160 0.929 . S
C144 C141 1.394 . S
C144 C143 1.396 . S
C144 H161 0.930 . S
C145 C142 1.383 . S
C145 C143 1.365 . S
C145 H162 0.931 . S
C146 C141 1.370 . S
C146 C142 1.395 . S
C146 H163 0.930 . S
C147 Gd94 2.805 . S
C147 O129 1.263 . S
C147 O130 1.252 . S
C147 C141 1.500 . S
C148 H110 0.930 . S
C148 C124 1.417 . S
C148 C149 1.329 . S
C149 C119 1.437 . S
C149 H120 0.929 . S
C149 C148 1.329 . S
H150 C123 0.931 . S
C151 O133 1.265 . S
C151 O134 1.242 . S
C152 O137 1.261 . S
C152 O138 1.252 . S
C153 C156 1.394 . S
C153 C158 1.370 . S
C153 C159 1.500 . S
C154 C157 1.383 . S
C154 C158 1.395 . S
C155 C156 1.396 . S
C155 C157 1.365 . S
C155 H164 0.929 . S
C156 C153 1.394 . S
C156 C155 1.396 . S
C156 H165 0.930 . S
C157 C154 1.383 . S
C157 C155 1.365 . S
C157 H166 0.931 . S
C158 C153 1.370 . S
C158 C154 1.395 . S
C158 H167 0.930 . S
C159 Gd95 2.805 . S
C159 O135 1.263 . S
C159 O136 1.252 . S
C159 C153 1.500 . S
H160 C143 0.929 . S
H161 C144 0.930 . S
H162 C145 0.931 . S
H163 C146 0.930 . S
H164 C155 0.929 . S
H165 C156 0.930 . S
H166 C157 0.931 . S
H167 C158 0.930 . S
C168 C170 1.422 . S
C168 C172 1.415 . S
C168 N174 1.369 . S
C169 C170 1.421 . S
C169 C171 1.417 . S
C169 C181 1.422 . S
C170 C168 1.422 . S
C170 C169 1.421 . S
C170 N180 1.359 . S
C171 C169 1.417 . S
C171 C173 1.329 . S
C171 H190 0.930 1_554 S
C172 C168 1.415 . S
C172 C173 1.437 . S
C172 C176 1.413 . S
C173 C171 1.329 . S
C173 C172 1.437 . S
C173 H195 0.929 . S
N174 C168 1.369 . S
N174 C175 1.338 . S
N174 Gd179 2.622 . S
C175 N174 1.338 . S
C175 C177 1.378 . S
C175 H187 0.929 . S
C176 C172 1.413 . S
C176 C177 1.348 . S
C176 H192 0.931 . S
C177 C175 1.378 . S
C177 C176 1.348 . S
C177 H193 0.930 . S
Gd178 N198 2.622 . S
Gd178 N205 2.570 . S
Gd178 O212 2.353 . S
Gd178 O213 2.468 . S
Gd178 O214 2.427 . S
Gd178 O216 2.388 . S
Gd178 O217 2.386 . S
Gd178 O221 2.307 . S
Gd178 C231 2.805 . S
Gd179 N174 2.622 . S
Gd179 N180 2.570 . S
Gd179 O211 2.386 . S
Gd179 O215 2.307 . S
Gd179 O218 2.353 . S
Gd179 O219 2.468 . S
Gd179 O220 2.427 . S
Gd179 O222 2.388 . S
Gd179 C243 2.805 . S
N180 C170 1.359 . S
N180 Gd179 2.570 . S
N180 C182 1.343 . S
C181 C169 1.422 . S
C181 C183 1.321 . S
C181 H189 0.931 1_554 S
C182 N180 1.343 . S
C182 C183 1.390 . S
C182 H184 0.931 . S
C183 C181 1.321 . S
C183 C182 1.390 . S
C183 H185 0.930 . S
H184 C182 0.931 . S
H185 C183 0.930 . S
H186 C209 0.931 . S
H187 C175 0.929 . S
H188 C210 0.930 . S
H189 C181 0.931 1_556 S
H190 C171 0.930 1_556 S
H191 C200 0.929 . S
H192 C176 0.931 . S
H193 C177 0.930 . S
H194 C232 0.930 . S
H195 C173 0.929 . S
H196 C201 0.931 . S
H197 C202 0.930 . S
N198 Gd178 2.622 . S
N198 C199 1.369 . S
N198 C200 1.338 . S
C199 N198 1.369 . S
C199 C203 1.415 . S
C199 C206 1.422 . S
C200 H191 0.929 . S
C200 N198 1.338 . S
C200 C202 1.378 . S
C201 H196 0.931 . S
C201 C202 1.348 . S
C201 C203 1.413 . S
C202 H197 0.930 . S
C202 C200 1.378 . S
C202 C201 1.348 . S
C203 C199 1.415 . S
C203 C201 1.413 . S
C203 C233 1.437 . S
H204 C233 0.929 . S
N205 Gd178 2.570 . S
N205 C206 1.359 . S
N205 C209 1.343 . S
C206 C199 1.422 . S
C206 N205 1.359 . S
C206 C208 1.421 . S
C207 C208 1.422 . S
C207 C210 1.321 . S
C207 H234 0.931 . S
C208 C206 1.421 . S
C208 C207 1.422 . S
C208 C232 1.417 . S
C209 H186 0.931 . S
C209 N205 1.343 . S
C209 C210 1.390 . S
C210 H188 0.930 . S
C210 C207 1.321 . S
C210 C209 1.390 . S
O211 Gd179 2.386 . S
O211 C223 1.265 . S
O212 Gd178 2.353 . S
O212 C223 1.242 . S
O213 Gd178 2.468 . S
O213 C231 1.263 . S
O214 Gd178 2.427 . S
O214 C231 1.252 . S
O215 Gd179 2.307 . S
O215 C224 1.261 . S
O216 Gd178 2.388 . S
O216 C224 1.252 . S
O217 Gd178 2.386 . S
O217 C235 1.265 . S
O218 Gd179 2.353 . S
O218 C235 1.242 . S
O219 Gd179 2.468 . S
O219 C243 1.263 . S
O220 Gd179 2.427 . S
O220 C243 1.252 . S
O221 Gd178 2.307 . S
O221 C236 1.261 . S
O222 Gd179 2.388 . S
O222 C236 1.252 . S
C223 O211 1.265 . S
C223 O212 1.242 . S
C224 O215 1.261 . S
C224 O216 1.252 . S
C225 C228 1.394 . S
C225 C230 1.370 . S
C225 C231 1.500 . S
C226 C229 1.383 . S
C226 C230 1.395 . S
C227 C228 1.396 . S
C227 C229 1.365 . S
C227 H244 0.929 . S
C228 C225 1.394 . S
C228 C227 1.396 . S
C228 H245 0.930 . S
C229 C226 1.383 . S
C229 C227 1.365 . S
C229 H246 0.931 . S
C230 C225 1.370 . S
C230 C226 1.395 . S
C230 H247 0.930 . S
C231 Gd178 2.805 . S
C231 O213 1.263 . S
C231 O214 1.252 . S
C231 C225 1.500 . S
C232 H194 0.930 . S
C232 C208 1.417 . S
C232 C233 1.329 . S
C233 C203 1.437 . S
C233 H204 0.929 . S
C233 C232 1.329 . S
H234 C207 0.931 . S
C235 O217 1.265 . S
C235 O218 1.242 . S
C236 O221 1.261 . S
C236 O222 1.252 . S
C237 C240 1.394 . S
C237 C242 1.370 . S
C237 C243 1.500 . S
C238 C241 1.383 . S
C238 C242 1.395 . S
C239 C240 1.396 . S
C239 C241 1.365 . S
C239 H248 0.929 . S
C240 C237 1.394 . S
C240 C239 1.396 . S
C240 H249 0.930 . S
C241 C238 1.383 . S
C241 C239 1.365 . S
C241 H250 0.931 . S
C242 C237 1.370 . S
C242 C238 1.395 . S
C242 H251 0.930 . S
C243 Gd179 2.805 . S
C243 O219 1.263 . S
C243 O220 1.252 . S
C243 C237 1.500 . S
H244 C227 0.929 . S
H245 C228 0.930 . S
H246 C229 0.931 . S
H247 C230 0.930 . S
H248 C239 0.929 . S
H249 C240 0.930 . S
H250 C241 0.931 . S
H251 C242 0.930 . S
C252 C254 1.422 . S
C252 C256 1.415 . S
C252 N258 1.369 . S
C253 C254 1.421 . S
C253 C255 1.417 . S
C253 C265 1.422 . S
C254 C252 1.422 . S
C254 C253 1.421 . S
C254 N264 1.359 . S
C255 C253 1.417 . S
C255 C257 1.329 . S
C255 H274 0.930 . S
C256 C252 1.415 . S
C256 C257 1.437 . S
C256 C260 1.413 . S
C257 C255 1.329 . S
C257 C256 1.437 . S
C257 H279 0.929 . S
N258 C252 1.369 . S
N258 C259 1.338 . S
N258 Gd263 2.622 . S
C259 N258 1.338 . S
C259 C261 1.378 . S
C259 H271 0.929 . S
C260 C256 1.413 . S
C260 C261 1.348 . S
C260 H276 0.931 . S
C261 C259 1.378 . S
C261 C260 1.348 . S
C261 H277 0.930 . S
Gd262 N282 2.622 . S
Gd262 N289 2.570 . S
Gd262 O296 2.353 . S
Gd262 O297 2.468 . S
Gd262 O298 2.427 . S
Gd262 O300 2.388 . S
Gd262 O301 2.386 . S
Gd262 O305 2.307 . S
Gd262 C315 2.805 . S
Gd263 N258 2.622 . S
Gd263 N264 2.570 . S
Gd263 O295 2.386 . S
Gd263 O299 2.307 . S
Gd263 O302 2.353 . S
Gd263 O303 2.468 . S
Gd263 O304 2.427 . S
Gd263 O306 2.388 . S
Gd263 C327 2.805 . S
N264 C254 1.359 . S
N264 Gd263 2.570 . S
N264 C266 1.343 . S
C265 C253 1.422 . S
C265 C267 1.321 . S
C265 H273 0.931 . S
C266 N264 1.343 . S
C266 C267 1.390 . S
C266 H268 0.931 . S
C267 C265 1.321 . S
C267 C266 1.390 . S
C267 H269 0.930 . S
H268 C266 0.931 . S
H269 C267 0.930 . S
H270 C293 0.931 . S
H271 C259 0.929 . S
H272 C294 0.930 . S
H273 C265 0.931 . S
H274 C255 0.930 . S
H275 C284 0.929 . S
H276 C260 0.931 . S
H277 C261 0.930 . S
H278 C316 0.930 . S
H279 C257 0.929 . S
H280 C285 0.931 . S
H281 C286 0.930 . S
N282 Gd262 2.622 . S
N282 C283 1.369 . S
N282 C284 1.338 . S
C283 N282 1.369 . S
C283 C287 1.415 . S
C283 C290 1.422 . S
C284 H275 0.929 . S
C284 N282 1.338 . S
C284 C286 1.378 . S
C285 H280 0.931 . S
C285 C286 1.348 . S
C285 C287 1.413 . S
C286 H281 0.930 . S
C286 C284 1.378 . S
C286 C285 1.348 . S
C287 C283 1.415 . S
C287 C285 1.413 . S
C287 C317 1.437 . S
H288 C317 0.929 . S
N289 Gd262 2.570 . S
N289 C290 1.359 . S
N289 C293 1.343 . S
C290 C283 1.422 . S
C290 N289 1.359 . S
C290 C292 1.421 . S
C291 C292 1.422 . S
C291 C294 1.321 . S
C291 H318 0.931 . S
C292 C290 1.421 . S
C292 C291 1.422 . S
C292 C316 1.417 . S
C293 H270 0.931 . S
C293 N289 1.343 . S
C293 C294 1.390 . S
C294 H272 0.930 . S
C294 C291 1.321 . S
C294 C293 1.390 . S
O295 Gd263 2.386 . S
O295 C307 1.265 . S
O296 Gd262 2.353 . S
O296 C307 1.242 . S
O297 Gd262 2.468 . S
O297 C315 1.263 . S
O298 Gd262 2.427 . S
O298 C315 1.252 . S
O299 Gd263 2.307 . S
O299 C308 1.261 . S
O300 Gd262 2.388 . S
O300 C308 1.252 . S
O301 Gd262 2.386 . S
O301 C319 1.265 . S
O302 Gd263 2.353 . S
O302 C319 1.242 . S
O303 Gd263 2.468 . S
O303 C327 1.263 . S
O304 Gd263 2.427 . S
O304 C327 1.252 . S
O305 Gd262 2.307 . S
O305 C320 1.261 . S
O306 Gd263 2.388 . S
O306 C320 1.252 . S
C307 O295 1.265 . S
C307 O296 1.242 . S
C308 O299 1.261 . S
C308 O300 1.252 . S
C309 C312 1.394 . S
C309 C314 1.370 . S
C309 C315 1.500 . S
C310 C313 1.383 . S
C310 C314 1.395 . S
C311 C312 1.396 . S
C311 C313 1.365 . S
C311 H328 0.929 . S
C312 C309 1.394 . S
C312 C311 1.396 . S
C312 H329 0.930 . S
C313 C310 1.383 . S
C313 C311 1.365 . S
C313 H330 0.931 . S
C314 C309 1.370 . S
C314 C310 1.395 . S
C314 H331 0.930 . S
C315 Gd262 2.805 . S
C315 O297 1.263 . S
C315 O298 1.252 . S
C315 C309 1.500 . S
C316 H278 0.930 . S
C316 C292 1.417 . S
C316 C317 1.329 . S
C317 C287 1.437 . S
C317 H288 0.929 . S
C317 C316 1.329 . S
H318 C291 0.931 . S
C319 O301 1.265 . S
C319 O302 1.242 . S
C320 O305 1.261 . S
C320 O306 1.252 . S
C321 C324 1.394 . S
C321 C326 1.370 . S
C321 C327 1.500 . S
C322 C325 1.383 . S
C322 C326 1.395 . S
C323 C324 1.396 . S
C323 C325 1.365 . S
C323 H332 0.929 . S
C324 C321 1.394 . S
C324 C323 1.396 . S
C324 H333 0.930 . S
C325 C322 1.383 . S
C325 C323 1.365 . S
C325 H334 0.931 . S
C326 C321 1.370 . S
C326 C322 1.395 . S
C326 H335 0.930 . S
C327 Gd263 2.805 . S
C327 O303 1.263 . S
C327 O304 1.252 . S
C327 C321 1.500 . S
H328 C311 0.929 . S
H329 C312 0.930 . S
H330 C313 0.931 . S
H331 C314 0.930 . S
H332 C323 0.929 . S
H333 C324 0.930 . S
H334 C325 0.931 . S
H335 C326 0.930 . S
C336 C338 1.422 . S
C336 C340 1.415 . S
C336 N342 1.369 . S
C337 C338 1.421 . S
C337 C339 1.417 . S
C337 C349 1.422 . S
C338 C336 1.422 . S
C338 C337 1.421 . S
C338 N348 1.359 . S
C339 C337 1.417 . S
C339 C341 1.329 . S
C339 H358 0.930 . S
C340 C336 1.415 . S
C340 C341 1.437 . S
C340 C344 1.413 . S
C341 C339 1.329 . S
C341 C340 1.437 . S
C341 H363 0.929 . S
N342 C336 1.369 . S
N342 C343 1.338 . S
N342 Gd347 2.622 . S
C343 N342 1.338 . S
C343 C345 1.378 . S
C343 H355 0.929 . S
C344 C340 1.413 . S
C344 C345 1.348 . S
C344 H360 0.931 . S
C345 C343 1.378 . S
C345 C344 1.348 . S
C345 H361 0.930 . S
Gd346 N366 2.622 . S
Gd346 N373 2.570 . S
Gd346 O380 2.353 . S
Gd346 O381 2.468 . S
Gd346 O382 2.427 . S
Gd346 O384 2.388 . S
Gd346 O385 2.386 . S
Gd346 O389 2.307 . S
Gd346 C399 2.805 . S
Gd347 N342 2.622 . S
Gd347 N348 2.570 . S
Gd347 O379 2.386 . S
Gd347 O383 2.307 . S
Gd347 O386 2.353 . S
Gd347 O387 2.468 . S
Gd347 O388 2.427 . S
Gd347 O390 2.388 . S
Gd347 C411 2.805 . S
N348 C338 1.359 . S
N348 Gd347 2.570 . S
N348 C350 1.343 . S
C349 C337 1.422 . S
C349 C351 1.321 . S
C349 H357 0.931 . S
C350 N348 1.343 . S
C350 C351 1.390 . S
C350 H352 0.931 . S
C351 C349 1.321 . S
C351 C350 1.390 . S
C351 H353 0.930 . S
H352 C350 0.931 . S
H353 C351 0.930 . S
H354 C377 0.931 . S
H355 C343 0.929 . S
H356 C378 0.930 . S
H357 C349 0.931 . S
H358 C339 0.930 . S
H359 C368 0.929 . S
H360 C344 0.931 . S
H361 C345 0.930 . S
H362 C400 0.930 . S
H363 C341 0.929 . S
H364 C369 0.931 . S
H365 C370 0.930 . S
N366 Gd346 2.622 . S
N366 C367 1.369 . S
N366 C368 1.338 . S
C367 N366 1.369 . S
C367 C371 1.415 . S
C367 C374 1.422 . S
C368 H359 0.929 . S
C368 N366 1.338 . S
C368 C370 1.378 . S
C369 H364 0.931 . S
C369 C370 1.348 . S
C369 C371 1.413 . S
C370 H365 0.930 . S
C370 C368 1.378 . S
C370 C369 1.348 . S
C371 C367 1.415 . S
C371 C369 1.413 . S
C371 C401 1.437 . S
H372 C401 0.929 . S
N373 Gd346 2.570 . S
N373 C374 1.359 . S
N373 C377 1.343 . S
C374 C367 1.422 . S
C374 N373 1.359 . S
C374 C376 1.421 . S
C375 C376 1.422 . S
C375 C378 1.321 . S
C375 H402 0.931 . S
C376 C374 1.421 . S
C376 C375 1.422 . S
C376 C400 1.417 . S
C377 H354 0.931 . S
C377 N373 1.343 . S
C377 C378 1.390 . S
C378 H356 0.930 . S
C378 C375 1.321 . S
C378 C377 1.390 . S
O379 Gd347 2.386 . S
O379 C391 1.265 . S
O380 Gd346 2.353 . S
O380 C391 1.242 . S
O381 Gd346 2.468 . S
O381 C399 1.263 . S
O382 Gd346 2.427 . S
O382 C399 1.252 . S
O383 Gd347 2.307 . S
O383 C392 1.261 . S
O384 Gd346 2.388 . S
O384 C392 1.252 . S
O385 Gd346 2.386 . S
O385 C403 1.265 . S
O386 Gd347 2.353 . S
O386 C403 1.242 . S
O387 Gd347 2.468 . S
O387 C411 1.263 . S
O388 Gd347 2.427 . S
O388 C411 1.252 . S
O389 Gd346 2.307 . S
O389 C404 1.261 . S
O390 Gd347 2.388 . S
O390 C404 1.252 . S
C391 O379 1.265 . S
C391 O380 1.242 . S
C392 O383 1.261 . S
C392 O384 1.252 . S
C393 C396 1.394 . S
C393 C398 1.370 . S
C393 C399 1.500 . S
C394 C397 1.383 . S
C394 C398 1.395 . S
C395 C396 1.396 . S
C395 C397 1.365 . S
C395 H412 0.929 . S
C396 C393 1.394 . S
C396 C395 1.396 . S
C396 H413 0.930 . S
C397 C394 1.383 . S
C397 C395 1.365 . S
C397 H414 0.931 . S
C398 C393 1.370 . S
C398 C394 1.395 . S
C398 H415 0.930 . S
C399 Gd346 2.805 . S
C399 O381 1.263 . S
C399 O382 1.252 . S
C399 C393 1.500 . S
C400 H362 0.930 . S
C400 C376 1.417 . S
C400 C401 1.329 . S
C401 C371 1.437 . S
C401 H372 0.929 . S
C401 C400 1.329 . S
H402 C375 0.931 . S
C403 O385 1.265 . S
C403 O386 1.242 . S
C404 O389 1.261 . S
C404 O390 1.252 . S
C405 C408 1.394 . S
C405 C410 1.370 . S
C405 C411 1.500 . S
C406 C409 1.383 . S
C406 C410 1.395 . S
C407 C408 1.396 . S
C407 C409 1.365 . S
C407 H416 0.929 . S
C408 C405 1.394 . S
C408 C407 1.396 . S
C408 H417 0.930 . S
C409 C406 1.383 . S
C409 C407 1.365 . S
C409 H418 0.931 . S
C410 C405 1.370 . S
C410 C406 1.395 . S
C410 H419 0.930 . S
C411 Gd347 2.805 . S
C411 O387 1.263 . S
C411 O388 1.252 . S
C411 C405 1.500 . S
H412 C395 0.929 . S
H413 C396 0.930 . S
H414 C397 0.931 . S
H415 C398 0.930 . S
H416 C407 0.929 . S
H417 C408 0.930 . S
H418 C409 0.931 . S
H419 C410 0.930 . S
C420 C422 1.422 . S
C420 C424 1.415 . S
C420 N426 1.369 . S
C421 C422 1.421 . S
C421 C423 1.417 . S
C421 C433 1.422 . S
C422 C420 1.422 . S
C422 C421 1.421 . S
C422 N432 1.359 . S
C423 C421 1.417 . S
C423 C425 1.329 . S
C423 H442 0.930 . S
C424 C420 1.415 . S
C424 C425 1.437 . S
C424 C428 1.413 . S
C425 C423 1.329 . S
C425 C424 1.437 . S
C425 H447 0.929 . S
N426 C420 1.369 . S
N426 C427 1.338 . S
N426 Gd431 2.622 . S
C427 N426 1.338 . S
C427 C429 1.378 . S
C427 H439 0.929 . S
C428 C424 1.413 . S
C428 C429 1.348 . S
C428 H444 0.931 . S
C429 C427 1.378 . S
C429 C428 1.348 . S
C429 H445 0.930 . S
Gd430 N450 2.622 . S
Gd430 N457 2.570 . S
Gd430 O464 2.353 . S
Gd430 O465 2.468 . S
Gd430 O466 2.427 . S
Gd430 O468 2.388 . S
Gd430 O469 2.386 . S
Gd430 O473 2.307 . S
Gd430 C483 2.805 . S
Gd431 N426 2.622 . S
Gd431 N432 2.570 . S
Gd431 O463 2.386 . S
Gd431 O467 2.307 . S
Gd431 O470 2.353 . S
Gd431 O471 2.468 . S
Gd431 O472 2.427 . S
Gd431 O474 2.388 . S
Gd431 C495 2.805 . S
N432 C422 1.359 . S
N432 Gd431 2.570 . S
N432 C434 1.343 . S
C433 C421 1.422 . S
C433 C435 1.321 . S
C433 H441 0.931 . S
C434 N432 1.343 . S
C434 C435 1.390 . S
C434 H436 0.931 . S
C435 C433 1.321 . S
C435 C434 1.390 . S
C435 H437 0.930 . S
H436 C434 0.931 . S
H437 C435 0.930 . S
H438 C461 0.931 . S
H439 C427 0.929 . S
H440 C462 0.930 . S
H441 C433 0.931 . S
H442 C423 0.930 . S
H443 C452 0.929 . S
H444 C428 0.931 . S
H445 C429 0.930 . S
H446 C484 0.930 1_554 S
H447 C425 0.929 . S
H448 C453 0.931 . S
H449 C454 0.930 . S
N450 Gd430 2.622 . S
N450 C451 1.369 . S
N450 C452 1.338 . S
C451 N450 1.369 . S
C451 C455 1.415 . S
C451 C458 1.422 . S
C452 H443 0.929 . S
C452 N450 1.338 . S
C452 C454 1.378 . S
C453 H448 0.931 . S
C453 C454 1.348 . S
C453 C455 1.413 . S
C454 H449 0.930 . S
C454 C452 1.378 . S
C454 C453 1.348 . S
C455 C451 1.415 . S
C455 C453 1.413 . S
C455 C485 1.437 . S
H456 C485 0.929 . S
N457 Gd430 2.570 . S
N457 C458 1.359 . S
N457 C461 1.343 . S
C458 C451 1.422 . S
C458 N457 1.359 . S
C458 C460 1.421 . S
C459 C460 1.422 . S
C459 C462 1.321 . S
C459 H486 0.931 1_556 S
C460 C458 1.421 . S
C460 C459 1.422 . S
C460 C484 1.417 . S
C461 H438 0.931 . S
C461 N457 1.343 . S
C461 C462 1.390 . S
C462 H440 0.930 . S
C462 C459 1.321 . S
C462 C461 1.390 . S
O463 Gd431 2.386 . S
O463 C475 1.265 . S
O464 Gd430 2.353 . S
O464 C475 1.242 . S
O465 Gd430 2.468 . S
O465 C483 1.263 . S
O466 Gd430 2.427 . S
O466 C483 1.252 . S
O467 Gd431 2.307 . S
O467 C476 1.261 . S
O468 Gd430 2.388 . S
O468 C476 1.252 . S
O469 Gd430 2.386 . S
O469 C487 1.265 . S
O470 Gd431 2.353 . S
O470 C487 1.242 . S
O471 Gd431 2.468 . S
O471 C495 1.263 . S
O472 Gd431 2.427 . S
O472 C495 1.252 . S
O473 Gd430 2.307 . S
O473 C488 1.261 . S
O474 Gd431 2.388 . S
O474 C488 1.252 . S
C475 O463 1.265 . S
C475 O464 1.242 . S
C476 O467 1.261 . S
C476 O468 1.252 . S
C477 C480 1.394 . S
C477 C482 1.370 . S
C477 C483 1.500 . S
C478 C481 1.383 . S
C478 C482 1.395 . S
C479 C480 1.396 . S
C479 C481 1.365 . S
C479 H496 0.929 . S
C480 C477 1.394 . S
C480 C479 1.396 . S
C480 H497 0.930 . S
C481 C478 1.383 . S
C481 C479 1.365 . S
C481 H498 0.931 . S
C482 C477 1.370 . S
C482 C478 1.395 . S
C482 H499 0.930 . S
C483 Gd430 2.805 . S
C483 O465 1.263 . S
C483 O466 1.252 . S
C483 C477 1.500 . S
C484 H446 0.930 1_556 S
C484 C460 1.417 . S
C484 C485 1.329 . S
C485 C455 1.437 . S
C485 H456 0.929 . S
C485 C484 1.329 . S
H486 C459 0.931 1_554 S
C487 O469 1.265 . S
C487 O470 1.242 . S
C488 O473 1.261 . S
C488 O474 1.252 . S
C489 C492 1.394 . S
C489 C494 1.370 . S
C489 C495 1.500 . S
C490 C493 1.383 . S
C490 C494 1.395 . S
C491 C492 1.396 . S
C491 C493 1.365 . S
C491 H500 0.929 . S
C492 C489 1.394 . S
C492 C491 1.396 . S
C492 H501 0.930 . S
C493 C490 1.383 . S
C493 C491 1.365 . S
C493 H502 0.931 . S
C494 C489 1.370 . S
C494 C490 1.395 . S
C494 H503 0.930 . S
C495 Gd431 2.805 . S
C495 O471 1.263 . S
C495 O472 1.252 . S
C495 C489 1.500 . S
H496 C479 0.929 . S
H497 C480 0.930 . S
H498 C481 0.931 . S
H499 C482 0.930 . S
H500 C491 0.929 . S
H501 C492 0.930 . S
H502 C493 0.931 . S
H503 C494 0.930 . S
C504 C506 1.422 . S
C504 C508 1.415 . S
C504 N510 1.369 . S
C505 C506 1.421 . S
C505 C507 1.417 . S
C505 C517 1.422 . S
C506 C504 1.422 . S
C506 C505 1.421 . S
C506 N516 1.359 . S
C507 C505 1.417 . S
C507 C509 1.329 . S
C507 H526 0.930 . S
C508 C504 1.415 . S
C508 C509 1.437 . S
C508 C512 1.413 . S
C509 C507 1.329 . S
C509 C508 1.437 . S
C509 H531 0.929 . S
N510 C504 1.369 . S
N510 C511 1.338 . S
N510 Gd515 2.622 . S
C511 N510 1.338 . S
C511 C513 1.378 . S
C511 H523 0.929 . S
C512 C508 1.413 . S
C512 C513 1.348 . S
C512 H528 0.931 . S
C513 C511 1.378 . S
C513 C512 1.348 . S
C513 H529 0.930 . S
Gd514 N534 2.622 . S
Gd514 N541 2.570 . S
Gd514 O548 2.353 . S
Gd514 O549 2.468 . S
Gd514 O550 2.427 . S
Gd514 O552 2.388 . S
Gd514 O553 2.386 . S
Gd514 O557 2.307 . S
Gd514 C567 2.805 . S
Gd515 N510 2.622 . S
Gd515 N516 2.570 . S
Gd515 O547 2.386 . S
Gd515 O551 2.307 . S
Gd515 O554 2.353 . S
Gd515 O555 2.468 . S
Gd515 O556 2.427 . S
Gd515 O558 2.388 . S
Gd515 C579 2.805 . S
N516 C506 1.359 . S
N516 Gd515 2.570 . S
N516 C518 1.343 . S
C517 C505 1.422 . S
C517 C519 1.321 . S
C517 H525 0.931 . S
C518 N516 1.343 . S
C518 C519 1.390 . S
C518 H520 0.931 . S
C519 C517 1.321 . S
C519 C518 1.390 . S
C519 H521 0.930 . S
H520 C518 0.931 . S
H521 C519 0.930 . S
H522 C545 0.931 . S
H523 C511 0.929 . S
H524 C546 0.930 . S
H525 C517 0.931 . S
H526 C507 0.930 . S
H527 C536 0.929 . S
H528 C512 0.931 . S
H529 C513 0.930 . S
H530 C568 0.930 . S
H531 C509 0.929 . S
H532 C537 0.931 . S
H533 C538 0.930 . S
N534 Gd514 2.622 . S
N534 C535 1.369 . S
N534 C536 1.338 . S
C535 N534 1.369 . S
C535 C539 1.415 . S
C535 C542 1.422 . S
C536 H527 0.929 . S
C536 N534 1.338 . S
C536 C538 1.378 . S
C537 H532 0.931 . S
C537 C538 1.348 . S
C537 C539 1.413 . S
C538 H533 0.930 . S
C538 C536 1.378 . S
C538 C537 1.348 . S
C539 C535 1.415 . S
C539 C537 1.413 . S
C539 C569 1.437 . S
H540 C569 0.929 . S
N541 Gd514 2.570 . S
N541 C542 1.359 . S
N541 C545 1.343 . S
C542 C535 1.422 . S
C542 N541 1.359 . S
C542 C544 1.421 . S
C543 C544 1.422 . S
C543 C546 1.321 . S
C543 H570 0.931 . S
C544 C542 1.421 . S
C544 C543 1.422 . S
C544 C568 1.417 . S
C545 H522 0.931 . S
C545 N541 1.343 . S
C545 C546 1.390 . S
C546 H524 0.930 . S
C546 C543 1.321 . S
C546 C545 1.390 . S
O547 Gd515 2.386 . S
O547 C559 1.265 . S
O548 Gd514 2.353 . S
O548 C559 1.242 . S
O549 Gd514 2.468 . S
O549 C567 1.263 . S
O550 Gd514 2.427 . S
O550 C567 1.252 . S
O551 Gd515 2.307 . S
O551 C560 1.261 . S
O552 Gd514 2.388 . S
O552 C560 1.252 . S
O553 Gd514 2.386 . S
O553 C571 1.265 . S
O554 Gd515 2.353 . S
O554 C571 1.242 . S
O555 Gd515 2.468 . S
O555 C579 1.263 . S
O556 Gd515 2.427 . S
O556 C579 1.252 . S
O557 Gd514 2.307 . S
O557 C572 1.261 . S
O558 Gd515 2.388 . S
O558 C572 1.252 . S
C559 O547 1.265 . S
C559 O548 1.242 . S
C560 O551 1.261 . S
C560 O552 1.252 . S
C561 C564 1.394 . S
C561 C566 1.370 . S
C561 C567 1.500 . S
C562 C565 1.383 . S
C562 C566 1.395 . S
C563 C564 1.396 . S
C563 C565 1.365 . S
C563 H580 0.929 . S
C564 C561 1.394 . S
C564 C563 1.396 . S
C564 H581 0.930 . S
C565 C562 1.383 . S
C565 C563 1.365 . S
C565 H582 0.931 . S
C566 C561 1.370 . S
C566 C562 1.395 . S
C566 H583 0.930 . S
C567 Gd514 2.805 . S
C567 O549 1.263 . S
C567 O550 1.252 . S
C567 C561 1.500 . S
C568 H530 0.930 . S
C568 C544 1.417 . S
C568 C569 1.329 . S
C569 C539 1.437 . S
C569 H540 0.929 . S
C569 C568 1.329 . S
H570 C543 0.931 . S
C571 O553 1.265 . S
C571 O554 1.242 . S
C572 O557 1.261 . S
C572 O558 1.252 . S
C573 C576 1.394 . S
C573 C578 1.370 . S
C573 C579 1.500 . S
C574 C577 1.383 . S
C574 C578 1.395 . S
C575 C576 1.396 . S
C575 C577 1.365 . S
C575 H584 0.929 . S
C576 C573 1.394 . S
C576 C575 1.396 . S
C576 H585 0.930 . S
C577 C574 1.383 . S
C577 C575 1.365 . S
C577 H586 0.931 . S
C578 C573 1.370 . S
C578 C574 1.395 . S
C578 H587 0.930 . S
C579 Gd515 2.805 . S
C579 O555 1.263 . S
C579 O556 1.252 . S
C579 C573 1.500 . S
H580 C563 0.929 . S
H581 C564 0.930 . S
H582 C565 0.931 . S
H583 C566 0.930 . S
H584 C575 0.929 . S
H585 C576 0.930 . S
H586 C577 0.931 . S
H587 C578 0.930 . S
C588 C590 1.422 . S
C588 C592 1.415 . S
C588 N594 1.369 . S
C589 C590 1.421 . S
C589 C591 1.417 . S
C589 C601 1.422 . S
C590 C588 1.422 . S
C590 C589 1.421 . S
C590 N600 1.359 . S
C591 C589 1.417 . S
C591 C593 1.329 . S
C591 H610 0.930 1_556 S
C592 C588 1.415 . S
C592 C593 1.437 . S
C592 C596 1.413 . S
C593 C591 1.329 . S
C593 C592 1.437 . S
C593 H615 0.929 . S
N594 C588 1.369 . S
N594 C595 1.338 . S
N594 Gd599 2.622 . S
C595 N594 1.338 . S
C595 C597 1.378 . S
C595 H607 0.929 . S
C596 C592 1.413 . S
C596 C597 1.348 . S
C596 H612 0.931 . S
C597 C595 1.378 . S
C597 C596 1.348 . S
C597 H613 0.930 . S
Gd598 N618 2.622 . S
Gd598 N625 2.570 . S
Gd598 O632 2.353 . S
Gd598 O633 2.468 . S
Gd598 O634 2.427 . S
Gd598 O636 2.388 . S
Gd598 O637 2.386 . S
Gd598 O641 2.307 . S
Gd598 C651 2.805 . S
Gd599 N594 2.622 . S
Gd599 N600 2.570 . S
Gd599 O631 2.386 . S
Gd599 O635 2.307 . S
Gd599 O638 2.353 . S
Gd599 O639 2.468 . S
Gd599 O640 2.427 . S
Gd599 O642 2.388 . S
Gd599 C663 2.805 . S
N600 C590 1.359 . S
N600 Gd599 2.570 . S
N600 C602 1.343 . S
C601 C589 1.422 . S
C601 C603 1.321 . S
C601 H609 0.931 1_556 S
C602 N600 1.343 . S
C602 C603 1.390 . S
C602 H604 0.931 . S
C603 C601 1.321 . S
C603 C602 1.390 . S
C603 H605 0.930 . S
H604 C602 0.931 . S
H605 C603 0.930 . S
H606 C629 0.931 . S
H607 C595 0.929 . S
H608 C630 0.930 . S
H609 C601 0.931 1_554 S
H610 C591 0.930 1_554 S
H611 C620 0.929 . S
H612 C596 0.931 . S
H613 C597 0.930 . S
H614 C652 0.930 . S
H615 C593 0.929 . S
H616 C621 0.931 . S
H617 C622 0.930 . S
N618 Gd598 2.622 . S
N618 C619 1.369 . S
N618 C620 1.338 . S
C619 N618 1.369 . S
C619 C623 1.415 . S
C619 C626 1.422 . S
C620 H611 0.929 . S
C620 N618 1.338 . S
C620 C622 1.378 . S
C621 H616 0.931 . S
C621 C622 1.348 . S
C621 C623 1.413 . S
C622 H617 0.930 . S
C622 C620 1.378 . S
C622 C621 1.348 . S
C623 C619 1.415 . S
C623 C621 1.413 . S
C623 C653 1.437 . S
H624 C653 0.929 . S
N625 Gd598 2.570 . S
N625 C626 1.359 . S
N625 C629 1.343 . S
C626 C619 1.422 . S
C626 N625 1.359 . S
C626 C628 1.421 . S
C627 C628 1.422 . S
C627 C630 1.321 . S
C627 H654 0.931 . S
C628 C626 1.421 . S
C628 C627 1.422 . S
C628 C652 1.417 . S
C629 H606 0.931 . S
C629 N625 1.343 . S
C629 C630 1.390 . S
C630 H608 0.930 . S
C630 C627 1.321 . S
C630 C629 1.390 . S
O631 Gd599 2.386 . S
O631 C643 1.265 . S
O632 Gd598 2.353 . S
O632 C643 1.242 . S
O633 Gd598 2.468 . S
O633 C651 1.263 . S
O634 Gd598 2.427 . S
O634 C651 1.252 . S
O635 Gd599 2.307 . S
O635 C644 1.261 . S
O636 Gd598 2.388 . S
O636 C644 1.252 . S
O637 Gd598 2.386 . S
O637 C655 1.265 . S
O638 Gd599 2.353 . S
O638 C655 1.242 . S
O639 Gd599 2.468 . S
O639 C663 1.263 . S
O640 Gd599 2.427 . S
O640 C663 1.252 . S
O641 Gd598 2.307 . S
O641 C656 1.261 . S
O642 Gd599 2.388 . S
O642 C656 1.252 . S
C643 O631 1.265 . S
C643 O632 1.242 . S
C644 O635 1.261 . S
C644 O636 1.252 . S
C645 C648 1.394 . S
C645 C650 1.370 . S
C645 C651 1.500 . S
C646 C649 1.383 . S
C646 C650 1.395 . S
C647 C648 1.396 . S
C647 C649 1.365 . S
C647 H664 0.929 . S
C648 C645 1.394 . S
C648 C647 1.396 . S
C648 H665 0.930 . S
C649 C646 1.383 . S
C649 C647 1.365 . S
C649 H666 0.931 . S
C650 C645 1.370 . S
C650 C646 1.395 . S
C650 H667 0.930 . S
C651 Gd598 2.805 . S
C651 O633 1.263 . S
C651 O634 1.252 . S
C651 C645 1.500 . S
C652 H614 0.930 . S
C652 C628 1.417 . S
C652 C653 1.329 . S
C653 C623 1.437 . S
C653 H624 0.929 . S
C653 C652 1.329 . S
H654 C627 0.931 . S
C655 O637 1.265 . S
C655 O638 1.242 . S
C656 O641 1.261 . S
C656 O642 1.252 . S
C657 C660 1.394 . S
C657 C662 1.370 . S
C657 C663 1.500 . S
C658 C661 1.383 . S
C658 C662 1.395 . S
C659 C660 1.396 . S
C659 C661 1.365 . S
C659 H668 0.929 . S
C660 C657 1.394 . S
C660 C659 1.396 . S
C660 H669 0.930 . S
C661 C658 1.383 . S
C661 C659 1.365 . S
C661 H670 0.931 . S
C662 C657 1.370 . S
C662 C658 1.395 . S
C662 H671 0.930 . S
C663 Gd599 2.805 . S
C663 O639 1.263 . S
C663 O640 1.252 . S
C663 C657 1.500 . S
H664 C647 0.929 . S
H665 C648 0.930 . S
H666 C649 0.931 . S
H667 C650 0.930 . S
H668 C659 0.929 . S
H669 C660 0.930 . S
H670 C661 0.931 . S
H671 C662 0.930 . S
Co672 O675 2.042 . S
Co672 O682 2.264 . S
Co672 O701 2.286 . S
Co672 O702 2.069 . S
Co672 O704 2.015 1_455 S
Co673 O675 2.122 . S
Co673 O681 2.073 . S
Co673 O682 2.327 . S
Co673 O683 1.976 1_455 S
Co674 O675 2.087 1_545 S
Co674 O677 2.087 1_455 S
Co674 O684 2.111 1_445 S
Co674 O685 2.143 . S
Co674 O689 2.111 . S
Co674 O703 2.143 1_445 S
O675 Co672 2.042 . S
O675 Co673 2.122 . S
O675 Co674 2.087 1_565 S
O675 H676 0.980 . S
H676 O675 0.980 . S
O677 Co674 2.087 1_655 S
O677 Co678 2.042 . S
O677 Co679 2.122 . S
O677 H680 0.980 . S
Co678 O677 2.042 . S
Co678 O686 2.286 . S
Co678 O687 2.069 . S
Co678 O688 2.015 1_655 S
Co678 O691 2.264 . S
Co679 O677 2.122 . S
Co679 O690 1.976 1_655 S
Co679 O691 2.327 . S
Co679 O692 2.073 . S
H680 O677 0.980 . S
O681 Co673 2.073 . S
O681 C696 1.245 . S
O682 Co672 2.264 . S
O682 Co673 2.327 . S
O682 C696 1.257 . S
O683 Co673 1.976 1_655 S
O683 C695 1.251 . S
O684 Co674 2.111 1_665 S
O684 C695 1.274 . S
O685 Co674 2.143 . S
O685 C698 1.246 . S
O686 Co678 2.286 . S
O686 C697 1.259 . S
O687 Co678 2.069 . S
O687 C697 1.289 . S
O688 Co678 2.015 1_455 S
O688 C698 1.257 . S
O689 Co674 2.111 . S
O689 C699 1.274 . S
O690 Co679 1.976 1_455 S
O690 C699 1.251 . S
O691 Co678 2.264 . S
O691 Co679 2.327 . S
O691 C700 1.257 . S
O692 Co679 2.073 . S
O692 C700 1.245 . S
C693 O701 1.259 . S
C693 O702 1.289 . S
C694 O703 1.246 . S
C694 O704 1.257 . S
C695 O683 1.251 . S
C695 O684 1.274 . S
C696 O681 1.245 . S
C696 O682 1.257 . S
C697 O686 1.259 . S
C697 O687 1.289 . S
C698 O685 1.246 . S
C698 O688 1.257 . S
C699 O689 1.274 . S
C699 O690 1.251 . S
C700 O691 1.257 . S
C700 O692 1.245 . S
O701 Co672 2.286 . S
O701 C693 1.259 . S
O702 Co672 2.069 . S
O702 C693 1.289 . S
O703 Co674 2.143 1_665 S
O703 C694 1.246 . S
O704 Co672 2.015 1_655 S
O704 C694 1.257 . S
Co705 O708 2.042 1_556 S
Co705 O715 2.264 1_556 S
Co705 O734 2.286 . S
Co705 O735 2.069 . S
Co705 O737 2.015 . S
Co706 O708 2.122 . S
Co706 O714 2.073 . S
Co706 O715 2.327 . S
Co706 O716 1.976 . S
Co707 O708 2.087 1_545 S
Co707 O710 2.087 1_554 S
Co707 O717 2.111 1_545 S
Co707 O718 2.143 . S
Co707 O722 2.111 1_554 S
Co707 O736 2.143 1_544 S
O708 Co705 2.042 1_554 S
O708 Co706 2.122 . S
O708 Co707 2.087 1_565 S
O708 H709 0.980 . S
H709 O708 0.980 . S
O710 Co707 2.087 1_556 S
O710 Co711 2.042 1_556 S
O710 Co712 2.122 . S
O710 H713 0.980 . S
Co711 O710 2.042 1_554 S
Co711 O719 2.286 . S
Co711 O720 2.069 . S
Co711 O721 2.015 . S
Co711 O724 2.264 1_554 S
Co712 O710 2.122 . S
Co712 O723 1.976 . S
Co712 O724 2.327 . S
Co712 O725 2.073 . S
H713 O710 0.980 . S
O714 Co706 2.073 . S
O714 C729 1.245 . S
O715 Co705 2.264 1_554 S
O715 Co706 2.327 . S
O715 C729 1.257 . S
O716 Co706 1.976 . S
O716 C728 1.251 . S
O717 Co707 2.111 1_565 S
O717 C728 1.274 . S
O718 Co707 2.143 . S
O718 C731 1.246 . S
O719 Co711 2.286 . S
O719 C730 1.259 . S
O720 Co711 2.069 . S
O720 C730 1.289 . S
O721 Co711 2.015 . S
O721 C731 1.257 . S
O722 Co707 2.111 1_556 S
O722 C732 1.274 . S
O723 Co712 1.976 . S
O723 C732 1.251 . S
O724 Co711 2.264 1_556 S
O724 Co712 2.327 . S
O724 C733 1.257 . S
O725 Co712 2.073 . S
O725 C733 1.245 . S
C726 O734 1.259 . S
C726 O735 1.289 . S
C727 O736 1.246 . S
C727 O737 1.257 . S
C728 O716 1.251 . S
C728 O717 1.274 . S
C729 O714 1.245 . S
C729 O715 1.257 . S
C730 O719 1.259 . S
C730 O720 1.289 . S
C731 O718 1.246 . S
C731 O721 1.257 . S
C732 O722 1.274 . S
C732 O723 1.251 . S
C733 O724 1.257 . S
C733 O725 1.245 . S
O734 Co705 2.286 . S
O734 C726 1.259 . S
O735 Co705 2.069 . S
O735 C726 1.289 . S
O736 Co707 2.143 1_566 S
O736 C727 1.246 . S
O737 Co705 2.015 . S
O737 C727 1.257 . S
Co738 O741 2.042 1_556 S
Co738 O748 2.264 1_556 S
Co738 O767 2.286 . S
Co738 O768 2.069 . S
Co738 O770 2.015 1_455 S
Co739 O741 2.122 . S
Co739 O747 2.073 . S
Co739 O748 2.327 . S
Co739 O749 1.976 1_455 S
Co740 O741 2.087 . S
Co740 O743 2.087 1_454 S
Co740 O750 2.111 1_455 S
Co740 O751 2.143 . S
Co740 O755 2.111 1_554 S
Co740 O769 2.143 1_454 S
O741 Co738 2.042 1_554 S
O741 Co739 2.122 . S
O741 Co740 2.087 . S
O741 H742 0.980 . S
H742 O741 0.980 . S
O743 Co740 2.087 1_656 S
O743 Co744 2.042 1_556 S
O743 Co745 2.122 . S
O743 H746 0.980 . S
Co744 O743 2.042 1_554 S
Co744 O752 2.286 . S
Co744 O753 2.069 . S
Co744 O754 2.015 1_655 S
Co744 O757 2.264 1_554 S
Co745 O743 2.122 . S
Co745 O756 1.976 1_655 S
Co745 O757 2.327 . S
Co745 O758 2.073 . S
H746 O743 0.980 . S
O747 Co739 2.073 . S
O747 C762 1.245 . S
O748 Co738 2.264 1_554 S
O748 Co739 2.327 . S
O748 C762 1.257 . S
O749 Co739 1.976 1_655 S
O749 C761 1.251 . S
O750 Co740 2.111 1_655 S
O750 C761 1.274 . S
O751 Co740 2.143 . S
O751 C764 1.246 . S
O752 Co744 2.286 . S
O752 C763 1.259 . S
O753 Co744 2.069 . S
O753 C763 1.289 . S
O754 Co744 2.015 1_455 S
O754 C764 1.257 . S
O755 Co740 2.111 1_556 S
O755 C765 1.274 . S
O756 Co745 1.976 1_455 S
O756 C765 1.251 . S
O757 Co744 2.264 1_556 S
O757 Co745 2.327 . S
O757 C766 1.257 . S
O758 Co745 2.073 . S
O758 C766 1.245 . S
C759 O767 1.259 . S
C759 O768 1.289 . S
C760 O769 1.246 . S
C760 O770 1.257 . S
C761 O749 1.251 . S
C761 O750 1.274 . S
C762 O747 1.245 . S
C762 O748 1.257 . S
C763 O752 1.259 . S
C763 O753 1.289 . S
C764 O751 1.246 . S
C764 O754 1.257 . S
C765 O755 1.274 . S
C765 O756 1.251 . S
C766 O757 1.257 . S
C766 O758 1.245 . S
O767 Co738 2.286 . S
O767 C759 1.259 . S
O768 Co738 2.069 . S
O768 C759 1.289 . S
O769 Co740 2.143 1_656 S
O769 C760 1.246 . S
O770 Co738 2.015 1_655 S
O770 C760 1.257 . S
Co771 O774 2.042 1_556 S
Co771 O781 2.264 1_556 S
Co771 O800 2.286 . S
Co771 O801 2.069 . S
Co771 O803 2.015 . S
Co772 O774 2.122 . S
Co772 O780 2.073 . S
Co772 O781 2.327 . S
Co772 O782 1.976 . S
Co773 O774 2.087 . S
Co773 O776 2.087 1_554 S
Co773 O783 2.111 . S
Co773 O784 2.143 . S
Co773 O788 2.111 1_554 S
Co773 O802 2.143 1_554 S
O774 Co771 2.042 1_554 S
O774 Co772 2.122 . S
O774 Co773 2.087 . S
O774 H775 0.980 . S
H775 O774 0.980 . S
O776 Co773 2.087 1_556 S
O776 Co777 2.042 1_556 S
O776 Co778 2.122 . S
O776 H779 0.980 . S
Co777 O776 2.042 1_554 S
Co777 O785 2.286 . S
Co777 O786 2.069 . S
Co777 O787 2.015 . S
Co777 O790 2.264 1_554 S
Co778 O776 2.122 . S
Co778 O789 1.976 . S
Co778 O790 2.327 . S
Co778 O791 2.073 . S
H779 O776 0.980 . S
O780 Co772 2.073 . S
O780 C795 1.245 . S
O781 Co771 2.264 1_554 S
O781 Co772 2.327 . S
O781 C795 1.257 . S
O782 Co772 1.976 . S
O782 C794 1.251 . S
O783 Co773 2.111 . S
O783 C794 1.274 . S
O784 Co773 2.143 . S
O784 C797 1.246 . S
O785 Co777 2.286 . S
O785 C796 1.259 . S
O786 Co777 2.069 . S
O786 C796 1.289 . S
O787 Co777 2.015 . S
O787 C797 1.257 . S
O788 Co773 2.111 1_556 S
O788 C798 1.274 . S
O789 Co778 1.976 . S
O789 C798 1.251 . S
O790 Co777 2.264 1_556 S
O790 Co778 2.327 . S
O790 C799 1.257 . S
O791 Co778 2.073 . S
O791 C799 1.245 . S
C792 O800 1.259 . S
C792 O801 1.289 . S
C793 O802 1.246 . S
C793 O803 1.257 . S
C794 O782 1.251 . S
C794 O783 1.274 . S
C795 O780 1.245 . S
C795 O781 1.257 . S
C796 O785 1.259 . S
C796 O786 1.289 . S
C797 O784 1.246 . S
C797 O787 1.257 . S
C798 O788 1.274 . S
C798 O789 1.251 . S
C799 O790 1.257 . S
C799 O791 1.245 . S
O800 Co771 2.286 . S
O800 C792 1.259 . S
O801 Co771 2.069 . S
O801 C792 1.289 . S
O802 Co773 2.143 1_556 S
O802 C793 1.246 . S
O803 Co771 2.015 . S
O803 C793 1.257 . S
Co804 O807 2.042 . S
Co804 O814 2.264 . S
Co804 O833 2.286 . S
Co804 O834 2.069 . S
Co804 O836 2.015 . S
Co805 O807 2.122 . S
Co805 O813 2.073 . S
Co805 O814 2.327 . S
Co805 O815 1.976 . S
Co806 O807 2.087 . S
Co806 O809 2.087 1_455 S
Co806 O816 2.111 . S
Co806 O817 2.143 1_455 S
Co806 O821 2.111 1_455 S
Co806 O835 2.143 . S
O807 Co804 2.042 . S
O807 Co805 2.122 . S
O807 Co806 2.087 . S
O807 H808 0.980 . S
H808 O807 0.980 . S
O809 Co806 2.087 1_655 S
O809 Co810 2.042 . S
O809 Co811 2.122 . S
O809 H812 0.980 . S
Co810 O809 2.042 . S
Co810 O818 2.286 . S
Co810 O819 2.069 . S
Co810 O820 2.015 . S
Co810 O823 2.264 . S
Co811 O809 2.122 . S
Co811 O822 1.976 . S
Co811 O823 2.327 . S
Co811 O824 2.073 . S
H812 O809 0.980 . S
O813 Co805 2.073 . S
O813 C828 1.245 . S
O814 Co804 2.264 . S
O814 Co805 2.327 . S
O814 C828 1.257 . S
O815 Co805 1.976 . S
O815 C827 1.251 . S
O816 Co806 2.111 . S
O816 C827 1.274 . S
O817 Co806 2.143 1_655 S
O817 C830 1.246 . S
O818 Co810 2.286 . S
O818 C829 1.259 . S
O819 Co810 2.069 . S
O819 C829 1.289 . S
O820 Co810 2.015 . S
O820 C830 1.257 . S
O821 Co806 2.111 1_655 S
O821 C831 1.274 . S
O822 Co811 1.976 . S
O822 C831 1.251 . S
O823 Co810 2.264 . S
O823 Co811 2.327 . S
O823 C832 1.257 . S
O824 Co811 2.073 . S
O824 C832 1.245 . S
C825 O833 1.259 . S
C825 O834 1.289 . S
C826 O835 1.246 . S
C826 O836 1.257 . S
C827 O815 1.251 . S
C827 O816 1.274 . S
C828 O813 1.245 . S
C828 O814 1.257 . S
C829 O818 1.259 . S
C829 O819 1.289 . S
C830 O817 1.246 . S
C830 O820 1.257 . S
C831 O821 1.274 . S
C831 O822 1.251 . S
C832 O823 1.257 . S
C832 O824 1.245 . S
O833 Co804 2.286 . S
O833 C825 1.259 . S
O834 Co804 2.069 . S
O834 C825 1.289 . S
O835 Co806 2.143 . S
O835 C826 1.246 . S
O836 Co804 2.015 . S
O836 C826 1.257 . S
Co837 O840 2.042 . S
Co837 O847 2.264 . S
Co837 O866 2.286 . S
Co837 O867 2.069 . S
Co837 O869 2.015 1_565 S
Co838 O840 2.122 . S
Co838 O846 2.073 . S
Co838 O847 2.327 . S
Co838 O848 1.976 1_565 S
Co839 O840 2.087 1_545 S
Co839 O842 2.087 . S
Co839 O849 2.111 . S
Co839 O850 2.143 1_545 S
Co839 O854 2.111 1_545 S
Co839 O868 2.143 . S
O840 Co837 2.042 . S
O840 Co838 2.122 . S
O840 Co839 2.087 1_565 S
O840 H841 0.980 . S
H841 O840 0.980 . S
O842 Co839 2.087 . S
O842 Co843 2.042 . S
O842 Co844 2.122 . S
O842 H845 0.980 . S
Co843 O842 2.042 . S
Co843 O851 2.286 . S
Co843 O852 2.069 . S
Co843 O853 2.015 1_545 S
Co843 O856 2.264 . S
Co844 O842 2.122 . S
Co844 O855 1.976 1_545 S
Co844 O856 2.327 . S
Co844 O857 2.073 . S
H845 O842 0.980 . S
O846 Co838 2.073 . S
O846 C861 1.245 . S
O847 Co837 2.264 . S
O847 Co838 2.327 . S
O847 C861 1.257 . S
O848 Co838 1.976 1_545 S
O848 C860 1.251 . S
O849 Co839 2.111 . S
O849 C860 1.274 . S
O850 Co839 2.143 1_565 S
O850 C863 1.246 . S
O851 Co843 2.286 . S
O851 C862 1.259 . S
O852 Co843 2.069 . S
O852 C862 1.289 . S
O853 Co843 2.015 1_565 S
O853 C863 1.257 . S
O854 Co839 2.111 1_565 S
O854 C864 1.274 . S
O855 Co844 1.976 1_565 S
O855 C864 1.251 . S
O856 Co843 2.264 . S
O856 Co844 2.327 . S
O856 C865 1.257 . S
O857 Co844 2.073 . S
O857 C865 1.245 . S
C858 O866 1.259 . S
C858 O867 1.289 . S
C859 O868 1.246 . S
C859 O869 1.257 . S
C860 O848 1.251 . S
C860 O849 1.274 . S
C861 O846 1.245 . S
C861 O847 1.257 . S
C862 O851 1.259 . S
C862 O852 1.289 . S
C863 O850 1.246 . S
C863 O853 1.257 . S
C864 O854 1.274 . S
C864 O855 1.251 . S
C865 O856 1.257 . S
C865 O857 1.245 . S
O866 Co837 2.286 . S
O866 C858 1.259 . S
O867 Co837 2.069 . S
O867 C858 1.289 . S
O868 Co839 2.143 . S
O868 C859 1.246 . S
O869 Co837 2.015 1_545 S
O869 C859 1.257 . S
C870 C871 1.363 . S
C870 C876 1.379 . S
C870 N878 1.356 . S
C871 C870 1.363 . S
C871 C877 1.363 . S
C872 C873 1.363 . S
C872 C877 1.379 . S
C872 N879 1.356 . S
C873 C872 1.363 . S
C873 C876 1.363 . S
N874 C876 1.356 . S
N874 H886 0.984 . S
N874 H887 0.985 . S
N875 C877 1.356 . S
N875 H880 0.984 . S
N875 H881 0.985 . S
C876 C870 1.379 . S
C876 C873 1.363 . S
C876 N874 1.356 . S
C877 C871 1.363 . S
C877 C872 1.379 . S
C877 N875 1.356 . S
N878 C870 1.356 . S
N878 H884 0.984 . S
N878 H885 0.984 . S
N879 C872 1.356 . S
N879 H882 0.984 . S
N879 H883 0.985 . S
H880 N875 0.984 . S
H881 N875 0.985 . S
H882 N879 0.984 . S
H883 N879 0.985 . S
H884 N878 0.984 . S
H885 N878 0.984 . S
H886 N874 0.984 . S
H887 N874 0.985 . S
C888 C889 1.363 . S
C888 C894 1.379 . S
C888 N896 1.356 . S
C889 C888 1.363 . S
C889 C895 1.363 . S
C890 C891 1.363 . S
C890 C895 1.379 . S
C890 N897 1.356 . S
C891 C890 1.363 . S
C891 C894 1.363 . S
N892 C894 1.356 . S
N892 H904 0.984 . S
N892 H905 0.985 . S
N893 C895 1.356 . S
N893 H898 0.984 . S
N893 H899 0.985 . S
C894 C888 1.379 . S
C894 C891 1.363 . S
C894 N892 1.356 . S
C895 C889 1.363 . S
C895 C890 1.379 . S
C895 N893 1.356 . S
N896 C888 1.356 . S
N896 H902 0.984 . S
N896 H903 0.984 . S
N897 C890 1.356 . S
N897 H900 0.984 . S
N897 H901 0.985 . S
H898 N893 0.984 . S
H899 N893 0.985 . S
H900 N897 0.984 . S
H901 N897 0.985 . S
H902 N896 0.984 . S
H903 N896 0.984 . S
H904 N892 0.984 . S
H905 N892 0.985 . S
C906 C907 1.363 . S
C906 C912 1.379 . S
C906 N914 1.356 . S
C907 C906 1.363 . S
C907 C913 1.363 . S
C908 C909 1.363 . S
C908 C913 1.379 . S
C908 N915 1.356 . S
C909 C908 1.363 . S
C909 C912 1.363 . S
N910 C912 1.356 . S
N910 H922 0.984 . S
N910 H923 0.985 . S
N911 C913 1.356 . S
N911 H916 0.984 . S
N911 H917 0.985 . S
C912 C906 1.379 . S
C912 C909 1.363 . S
C912 N910 1.356 . S
C913 C907 1.363 . S
C913 C908 1.379 . S
C913 N911 1.356 . S
N914 C906 1.356 . S
N914 H920 0.984 . S
N914 H921 0.984 . S
N915 C908 1.356 . S
N915 H918 0.984 . S
N915 H919 0.985 . S
H916 N911 0.984 . S
H917 N911 0.985 . S
H918 N915 0.984 . S
H919 N915 0.985 . S
H920 N914 0.984 . S
H921 N914 0.984 . S
H922 N910 0.984 . S
H923 N910 0.985 . S
C924 C925 1.363 . S
C924 C930 1.379 . S
C924 N932 1.356 . S
C925 C924 1.363 . S
C925 C931 1.363 . S
C926 C927 1.363 . S
C926 C931 1.379 . S
C926 N933 1.356 . S
C927 C926 1.363 . S
C927 C930 1.363 . S
N928 C930 1.356 . S
N928 H940 0.984 1_455 S
N928 H941 0.985 . S
N929 C931 1.356 . S
N929 H934 0.984 . S
N929 H935 0.985 . S
C930 C924 1.379 . S
C930 C927 1.363 . S
C930 N928 1.356 . S
C931 C925 1.363 . S
C931 C926 1.379 . S
C931 N929 1.356 . S
N932 C924 1.356 . S
N932 H938 0.984 . S
N932 H939 0.984 . S
N933 C926 1.356 . S
N933 H936 0.984 . S
N933 H937 0.985 . S
H934 N929 0.984 . S
H935 N929 0.985 . S
H936 N933 0.984 . S
H937 N933 0.985 . S
H938 N932 0.984 . S
H939 N932 0.984 . S
H940 N928 0.984 1_655 S
H941 N928 0.985 . S
C942 C943 1.363 . S
C942 C948 1.379 . S
C942 N950 1.356 . S
C943 C942 1.363 . S
C943 C949 1.363 . S
C944 C945 1.363 . S
C944 C949 1.379 . S
C944 N951 1.356 . S
C945 C944 1.363 . S
C945 C948 1.363 . S
N946 C948 1.356 . S
N946 H958 0.984 . S
N946 H959 0.985 . S
N947 C949 1.356 . S
N947 H952 0.984 . S
N947 H953 0.985 . S
C948 C942 1.379 . S
C948 C945 1.363 . S
C948 N946 1.356 . S
C949 C943 1.363 . S
C949 C944 1.379 . S
C949 N947 1.356 . S
N950 C942 1.356 . S
N950 H956 0.984 . S
N950 H957 0.984 . S
N951 C944 1.356 . S
N951 H954 0.984 . S
N951 H955 0.985 . S
H952 N947 0.984 . S
H953 N947 0.985 . S
H954 N951 0.984 . S
H955 N951 0.985 . S
H956 N950 0.984 . S
H957 N950 0.984 . S
H958 N946 0.984 . S
H959 N946 0.985 . S
C960 C961 1.363 . S
C960 C966 1.379 . S
C960 N968 1.356 . S
C961 C960 1.363 . S
C961 C967 1.363 . S
C962 C963 1.363 . S
C962 C967 1.379 . S
C962 N969 1.356 . S
C963 C962 1.363 . S
C963 C966 1.363 . S
N964 C966 1.356 . S
N964 H976 0.984 . S
N964 H977 0.985 . S
N965 C967 1.356 . S
N965 H970 0.984 . S
N965 H971 0.985 . S
C966 C960 1.379 . S
C966 C963 1.363 . S
C966 N964 1.356 . S
C967 C961 1.363 . S
C967 C962 1.379 . S
C967 N965 1.356 . S
N968 C960 1.356 . S
N968 H974 0.984 . S
N968 H975 0.984 . S
N969 C962 1.356 . S
N969 H972 0.984 . S
N969 H973 0.985 . S
H970 N965 0.984 . S
H971 N965 0.985 . S
H972 N969 0.984 . S
H973 N969 0.985 . S
H974 N968 0.984 . S
H975 N968 0.984 . S
H976 N964 0.984 . S
H977 N964 0.985 . S
C978 C979 1.363 . S
C978 C984 1.379 . S
C978 N986 1.356 . S
C979 C978 1.363 . S
C979 C985 1.363 . S
C980 C981 1.363 . S
C980 C985 1.379 . S
C980 N987 1.356 . S
C981 C980 1.363 . S
C981 C984 1.363 . S
N982 C984 1.356 . S
N982 H994 0.984 . S
N982 H995 0.985 . S
N983 C985 1.356 . S
N983 H988 0.984 . S
N983 H989 0.985 . S
C984 C978 1.379 . S
C984 C981 1.363 . S
C984 N982 1.356 . S
C985 C979 1.363 . S
C985 C980 1.379 . S
C985 N983 1.356 . S
N986 C978 1.356 . S
N986 H992 0.984 . S
N986 H993 0.984 . S
N987 C980 1.356 . S
N987 H990 0.984 . S
N987 H991 0.985 . S
H988 N983 0.984 . S
H989 N983 0.985 . S
H990 N987 0.984 . S
H991 N987 0.985 . S
H992 N986 0.984 . S
H993 N986 0.984 . S
H994 N982 0.984 . S
H995 N982 0.985 . S
C996 C997 1.363 . S
C996 C1002 1.379 . S
C996 N1004 1.356 . S
C997 C996 1.363 . S
C997 C1003 1.363 . S
C998 C999 1.363 . S
C998 C1003 1.379 . S
C998 N1005 1.356 . S
C999 C998 1.363 . S
C999 C1002 1.363 . S
N1000 C1002 1.356 . S
N1000 H1012 0.984 . S
N1000 H1013 0.985 . S
N1001 C1003 1.356 . S
N1001 H1006 0.984 . S
N1001 H1007 0.985 . S
C1002 C996 1.379 . S
C1002 C999 1.363 . S
C1002 N1000 1.356 . S
C1003 C997 1.363 . S
C1003 C998 1.379 . S
C1003 N1001 1.356 . S
N1004 C996 1.356 . S
N1004 H1010 0.984 . S
N1004 H1011 0.984 . S
N1005 C998 1.356 . S
N1005 H1008 0.984 . S
N1005 H1009 0.985 . S
H1006 N1001 0.984 . S
H1007 N1001 0.985 . S
H1008 N1005 0.984 . S
H1009 N1005 0.985 . S
H1010 N1004 0.984 . S
H1011 N1004 0.984 . S
H1012 N1000 0.984 . S
H1013 N1000 0.985 . S
C1014 C1015 1.363 . S
C1014 C1020 1.379 . S
C1014 N1022 1.356 . S
C1015 C1014 1.363 . S
C1015 C1021 1.363 . S
C1016 C1017 1.363 . S
C1016 C1021 1.379 . S
C1016 N1023 1.356 . S
C1017 C1016 1.363 . S
C1017 C1020 1.363 . S
N1018 C1020 1.356 . S
N1018 H1030 0.984 . S
N1018 H1031 0.985 . S
N1019 C1021 1.356 . S
N1019 H1024 0.984 . S
N1019 H1025 0.985 . S
C1020 C1014 1.379 . S
C1020 C1017 1.363 . S
C1020 N1018 1.356 . S
C1021 C1015 1.363 . S
C1021 C1016 1.379 . S
C1021 N1019 1.356 . S
N1022 C1014 1.356 . S
N1022 H1028 0.984 . S
N1022 H1029 0.984 . S
N1023 C1016 1.356 . S
N1023 H1026 0.984 . S
N1023 H1027 0.985 . S
H1024 N1019 0.984 . S
H1025 N1019 0.985 . S
H1026 N1023 0.984 . S
H1027 N1023 0.985 . S
H1028 N1022 0.984 . S
H1029 N1022 0.984 . S
H1030 N1018 0.984 . S
H1031 N1018 0.985 . S
C1032 C1033 1.363 . S
C1032 C1038 1.379 . S
C1032 N1040 1.356 . S
C1033 C1032 1.363 . S
C1033 C1039 1.363 . S
C1034 C1035 1.363 . S
C1034 C1039 1.379 . S
C1034 N1041 1.356 . S
C1035 C1034 1.363 . S
C1035 C1038 1.363 . S
N1036 C1038 1.356 . S
N1036 H1048 0.984 . S
N1036 H1049 0.985 . S
N1037 C1039 1.356 . S
N1037 H1042 0.984 . S
N1037 H1043 0.985 . S
C1038 C1032 1.379 . S
C1038 C1035 1.363 . S
C1038 N1036 1.356 . S
C1039 C1033 1.363 . S
C1039 C1034 1.379 . S
C1039 N1037 1.356 . S
N1040 C1032 1.356 . S
N1040 H1046 0.984 . S
N1040 H1047 0.984 . S
N1041 C1034 1.356 . S
N1041 H1044 0.984 . S
N1041 H1045 0.985 . S
H1042 N1037 0.984 . S
H1043 N1037 0.985 . S
H1044 N1041 0.984 . S
H1045 N1041 0.985 . S
H1046 N1040 0.984 . S
H1047 N1040 0.984 . S
H1048 N1036 0.984 . S
H1049 N1036 0.985 . S
C1050 C1051 1.363 . S
C1050 C1056 1.379 . S
C1050 N1058 1.356 . S
C1051 C1050 1.363 . S
C1051 C1057 1.363 . S
C1052 C1053 1.363 . S
C1052 C1057 1.379 . S
C1052 N1059 1.356 . S
C1053 C1052 1.363 . S
C1053 C1056 1.363 . S
N1054 C1056 1.356 1_556 S
N1054 H1066 0.984 . S
N1054 H1067 0.985 . S
N1055 C1057 1.356 . S
N1055 H1060 0.984 . S
N1055 H1061 0.985 . S
C1056 C1050 1.379 . S
C1056 C1053 1.363 . S
C1056 N1054 1.356 1_554 S
C1057 C1051 1.363 . S
C1057 C1052 1.379 . S
C1057 N1055 1.356 . S
N1058 C1050 1.356 . S
N1058 H1064 0.984 1_554 S
N1058 H1065 0.984 . S
N1059 C1052 1.356 . S
N1059 H1062 0.984 . S
N1059 H1063 0.985 . S
H1060 N1055 0.984 . S
H1061 N1055 0.985 . S
H1062 N1059 0.984 . S
H1063 N1059 0.985 . S
H1064 N1058 0.984 1_556 S
H1065 N1058 0.984 . S
H1066 N1054 0.984 . S
H1067 N1054 0.985 . S
C1068 C1069 1.363 . S
C1068 C1074 1.379 . S
C1068 N1076 1.356 . S
C1069 C1068 1.363 . S
C1069 C1075 1.363 . S
C1070 C1071 1.363 . S
C1070 C1075 1.379 . S
C1070 N1077 1.356 . S
C1071 C1070 1.363 . S
C1071 C1074 1.363 . S
N1072 C1074 1.356 . S
N1072 H1084 0.984 . S
N1072 H1085 0.985 . S
N1073 C1075 1.356 . S
N1073 H1078 0.984 . S
N1073 H1079 0.985 . S
C1074 C1068 1.379 . S
C1074 C1071 1.363 . S
C1074 N1072 1.356 . S
C1075 C1069 1.363 . S
C1075 C1070 1.379 . S
C1075 N1073 1.356 . S
N1076 C1068 1.356 . S
N1076 H1082 0.984 . S
N1076 H1083 0.984 . S
N1077 C1070 1.356 . S
N1077 H1080 0.984 . S
N1077 H1081 0.985 . S
H1078 N1073 0.984 . S
H1079 N1073 0.985 . S
H1080 N1077 0.984 . S
H1081 N1077 0.985 . S
H1082 N1076 0.984 . S
H1083 N1076 0.984 . S
H1084 N1072 0.984 . S
H1085 N1072 0.985 . S
C1086 C1087 1.363 . S
C1086 C1092 1.379 . S
C1086 N1094 1.356 . S
C1087 C1086 1.363 . S
C1087 C1093 1.363 . S
C1088 C1089 1.363 . S
C1088 C1093 1.379 . S
C1088 N1095 1.356 . S
C1089 C1088 1.363 . S
C1089 C1092 1.363 . S
N1090 C1092 1.356 . S
N1090 H1102 0.984 . S
N1090 H1103 0.985 . S
N1091 C1093 1.356 . S
N1091 H1096 0.984 . S
N1091 H1097 0.985 . S
C1092 C1086 1.379 . S
C1092 C1089 1.363 . S
C1092 N1090 1.356 . S
C1093 C1087 1.363 . S
C1093 C1088 1.379 . S
C1093 N1091 1.356 . S
N1094 C1086 1.356 . S
N1094 H1100 0.984 . S
N1094 H1101 0.984 . S
N1095 C1088 1.356 . S
N1095 H1098 0.984 . S
N1095 H1099 0.985 . S
H1096 N1091 0.984 . S
H1097 N1091 0.985 . S
H1098 N1095 0.984 . S
H1099 N1095 0.985 . S
H1100 N1094 0.984 . S
H1101 N1094 0.984 . S
H1102 N1090 0.984 . S
H1103 N1090 0.985 . S
C1104 C1105 1.363 . S
C1104 C1110 1.379 . S
C1104 N1112 1.356 . S
C1105 C1104 1.363 . S
C1105 C1111 1.363 . S
C1106 C1107 1.363 . S
C1106 C1111 1.379 . S
C1106 N1113 1.356 . S
C1107 C1106 1.363 . S
C1107 C1110 1.363 . S
N1108 C1110 1.356 . S
N1108 H1120 0.984 . S
N1108 H1121 0.985 . S
N1109 C1111 1.356 . S
N1109 H1114 0.984 . S
N1109 H1115 0.985 . S
C1110 C1104 1.379 . S
C1110 C1107 1.363 . S
C1110 N1108 1.356 . S
C1111 C1105 1.363 . S
C1111 C1106 1.379 . S
C1111 N1109 1.356 . S
N1112 C1104 1.356 . S
N1112 H1118 0.984 . S
N1112 H1119 0.984 . S
N1113 C1106 1.356 . S
N1113 H1116 0.984 . S
N1113 H1117 0.985 . S
H1114 N1109 0.984 . S
H1115 N1109 0.985 . S
H1116 N1113 0.984 . S
H1117 N1113 0.985 . S
H1118 N1112 0.984 . S
H1119 N1112 0.984 . S
H1120 N1108 0.984 . S
H1121 N1108 0.985 . S
C1122 C1123 1.363 . S
C1122 C1128 1.379 . S
C1122 N1130 1.356 . S
C1123 C1122 1.363 . S
C1123 C1129 1.363 . S
C1124 C1125 1.363 . S
C1124 C1129 1.379 . S
C1124 N1131 1.356 . S
C1125 C1124 1.363 . S
C1125 C1128 1.363 . S
N1126 C1128 1.356 . S
N1126 H1138 0.984 1_556 S
N1126 H1139 0.985 1_556 S
N1127 C1129 1.356 . S
N1127 H1132 0.984 . S
N1127 H1133 0.985 . S
C1128 C1122 1.379 . S
C1128 C1125 1.363 . S
C1128 N1126 1.356 . S
C1129 C1123 1.363 . S
C1129 C1124 1.379 . S
C1129 N1127 1.356 . S
N1130 C1122 1.356 . S
N1130 H1136 0.984 . S
N1130 H1137 0.984 . S
N1131 C1124 1.356 . S
N1131 H1134 0.984 . S
N1131 H1135 0.985 . S
H1132 N1127 0.984 . S
H1133 N1127 0.985 . S
H1134 N1131 0.984 . S
H1135 N1131 0.985 . S
H1136 N1130 0.984 . S
H1137 N1130 0.984 . S
H1138 N1126 0.984 1_554 S
H1139 N1126 0.985 1_554 S
C1140 C1141 1.363 . S
C1140 C1146 1.379 . S
C1140 N1148 1.356 . S
C1141 C1140 1.363 . S
C1141 C1147 1.363 . S
C1142 C1143 1.363 . S
C1142 C1147 1.379 . S
C1142 N1149 1.356 . S
C1143 C1142 1.363 . S
C1143 C1146 1.363 . S
N1144 C1146 1.356 1_554 S
N1144 H1156 0.984 . S
N1144 H1157 0.985 . S
N1145 C1147 1.356 . S
N1145 H1150 0.984 . S
N1145 H1151 0.985 . S
C1146 C1140 1.379 . S
C1146 C1143 1.363 . S
C1146 N1144 1.356 1_556 S
C1147 C1141 1.363 . S
C1147 C1142 1.379 . S
C1147 N1145 1.356 . S
N1148 C1140 1.356 . S
N1148 H1154 0.984 1_556 S
N1148 H1155 0.984 . S
N1149 C1142 1.356 . S
N1149 H1152 0.984 . S
N1149 H1153 0.985 . S
H1150 N1145 0.984 . S
H1151 N1145 0.985 . S
H1152 N1149 0.984 . S
H1153 N1149 0.985 . S
H1154 N1148 0.984 1_554 S
H1155 N1148 0.984 . S
H1156 N1144 0.984 . S
H1157 N1144 0.985 . S
C1158 C1159 1.363 . S
C1158 C1164 1.379 . S
C1158 N1166 1.356 . S
C1159 C1158 1.363 . S
C1159 C1165 1.363 . S
C1160 C1161 1.363 . S
C1160 C1165 1.379 . S
C1160 N1167 1.356 1_554 S
C1161 C1160 1.363 . S
C1161 C1164 1.363 . S
N1162 C1164 1.356 . S
N1162 H1174 0.984 . S
N1162 H1175 0.985 . S
N1163 C1165 1.357 . S
N1163 H1168 0.986 . S
N1163 H1169 0.982 1_554 S
C1164 C1158 1.379 . S
C1164 C1161 1.363 . S
C1164 N1162 1.356 . S
C1165 C1159 1.363 . S
C1165 C1160 1.379 . S
C1165 N1163 1.357 . S
N1166 C1158 1.356 . S
N1166 H1172 0.984 . S
N1166 H1173 0.984 . S
N1167 C1160 1.356 1_556 S
N1167 H1170 0.984 . S
N1167 H1171 0.985 . S
H1168 N1163 0.986 . S
H1169 N1163 0.982 1_556 S
H1170 N1167 0.984 . S
H1171 N1167 0.985 . S
H1172 N1166 0.984 . S
H1173 N1166 0.984 . S
H1174 N1162 0.984 . S
H1175 N1162 0.985 . S
C1176 C1177 1.363 . S
C1176 C1182 1.379 . S
C1176 N1184 1.356 . S
C1177 C1176 1.363 . S
C1177 C1183 1.363 . S
C1178 C1179 1.363 . S
C1178 C1183 1.379 . S
C1178 N1185 1.356 . S
C1179 C1178 1.363 . S
C1179 C1182 1.363 . S
N1180 C1182 1.356 . S
N1180 H1192 0.984 . S
N1180 H1193 0.985 . S
N1181 C1183 1.356 . S
N1181 H1186 0.984 . S
N1181 H1187 0.985 . S
C1182 C1176 1.379 . S
C1182 C1179 1.363 . S
C1182 N1180 1.356 . S
C1183 C1177 1.363 . S
C1183 C1178 1.379 . S
C1183 N1181 1.356 . S
N1184 C1176 1.356 . S
N1184 H1190 0.984 . S
N1184 H1191 0.984 . S
N1185 C1178 1.356 . S
N1185 H1188 0.984 . S
N1185 H1189 0.985 . S
H1186 N1181 0.984 . S
H1187 N1181 0.985 . S
H1188 N1185 0.984 . S
H1189 N1185 0.985 . S
H1190 N1184 0.984 . S
H1191 N1184 0.984 . S
H1192 N1180 0.984 . S
H1193 N1180 0.985 . S
C1194 C1195 1.363 . S
C1194 C1200 1.379 . S
C1194 N1202 1.356 . S
C1195 C1194 1.363 . S
C1195 C1201 1.363 . S
C1196 C1197 1.363 . S
C1196 C1201 1.379 . S
C1196 N1203 1.356 . S
C1197 C1196 1.363 . S
C1197 C1200 1.363 . S
N1198 C1200 1.356 . S
N1198 H1210 0.984 . S
N1198 H1211 0.985 . S
N1199 C1201 1.356 . S
N1199 H1204 0.984 . S
N1199 H1205 0.985 . S
C1200 C1194 1.379 . S
C1200 C1197 1.363 . S
C1200 N1198 1.356 . S
C1201 C1195 1.363 . S
C1201 C1196 1.379 . S
C1201 N1199 1.356 . S
N1202 C1194 1.356 . S
N1202 H1208 0.984 . S
N1202 H1209 0.984 . S
N1203 C1196 1.356 . S
N1203 H1206 0.984 . S
N1203 H1207 0.985 . S
H1204 N1199 0.984 . S
H1205 N1199 0.985 . S
H1206 N1203 0.984 . S
H1207 N1203 0.985 . S
H1208 N1202 0.984 . S
H1209 N1202 0.984 . S
H1210 N1198 0.984 . S
H1211 N1198 0.985 . S
C1212 C1213 1.363 . S
C1212 C1218 1.379 . S
C1212 N1220 1.356 . S
C1213 C1212 1.363 . S
C1213 C1219 1.363 . S
C1214 C1215 1.363 . S
C1214 C1219 1.379 . S
C1214 N1221 1.356 . S
C1215 C1214 1.363 . S
C1215 C1218 1.363 . S
N1216 C1218 1.356 . S
N1216 H1228 0.984 . S
N1216 H1229 0.985 . S
N1217 C1219 1.356 . S
N1217 H1222 0.984 . S
N1217 H1223 0.985 . S
C1218 C1212 1.379 . S
C1218 C1215 1.363 . S
C1218 N1216 1.356 . S
C1219 C1213 1.363 . S
C1219 C1214 1.379 . S
C1219 N1217 1.356 . S
N1220 C1212 1.356 . S
N1220 H1226 0.984 . S
N1220 H1227 0.984 . S
N1221 C1214 1.356 . S
N1221 H1224 0.984 . S
N1221 H1225 0.985 . S
H1222 N1217 0.984 . S
H1223 N1217 0.985 . S
H1224 N1221 0.984 . S
H1225 N1221 0.985 . S
H1226 N1220 0.984 . S
H1227 N1220 0.984 . S
H1228 N1216 0.984 . S
H1229 N1216 0.985 . S
C1230 C1231 1.363 . S
C1230 C1236 1.379 . S
C1230 N1238 1.356 . S
C1231 C1230 1.363 . S
C1231 C1237 1.363 . S
C1232 C1233 1.363 . S
C1232 C1237 1.379 . S
C1232 N1239 1.356 . S
C1233 C1232 1.363 . S
C1233 C1236 1.363 . S
N1234 C1236 1.356 . S
N1234 H1246 0.984 . S
N1234 H1247 0.985 . S
N1235 C1237 1.356 . S
N1235 H1240 0.984 . S
N1235 H1241 0.985 . S
C1236 C1230 1.379 . S
C1236 C1233 1.363 . S
C1236 N1234 1.356 . S
C1237 C1231 1.363 . S
C1237 C1232 1.379 . S
C1237 N1235 1.356 . S
N1238 C1230 1.356 . S
N1238 H1244 0.984 . S
N1238 H1245 0.984 . S
N1239 C1232 1.356 . S
N1239 H1242 0.984 . S
N1239 H1243 0.985 . S
H1240 N1235 0.984 . S
H1241 N1235 0.985 . S
H1242 N1239 0.984 . S
H1243 N1239 0.985 . S
H1244 N1238 0.984 . S
H1245 N1238 0.984 . S
H1246 N1234 0.984 . S
H1247 N1234 0.985 . S
C1248 C1249 1.363 . S
C1248 C1254 1.379 . S
C1248 N1256 1.356 . S
C1249 C1248 1.363 . S
C1249 C1255 1.363 . S
C1250 C1251 1.363 . S
C1250 C1255 1.379 . S
C1250 N1257 1.356 . S
C1251 C1250 1.363 . S
C1251 C1254 1.363 . S
N1252 C1254 1.356 . S
N1252 H1264 0.984 . S
N1252 H1265 0.985 . S
N1253 C1255 1.356 . S
N1253 H1258 0.984 . S
N1253 H1259 0.985 . S
C1254 C1248 1.379 . S
C1254 C1251 1.363 . S
C1254 N1252 1.356 . S
C1255 C1249 1.363 . S
C1255 C1250 1.379 . S
C1255 N1253 1.356 . S
N1256 C1248 1.356 . S
N1256 H1262 0.984 . S
N1256 H1263 0.984 . S
N1257 C1250 1.356 . S
N1257 H1260 0.984 . S
N1257 H1261 0.985 . S
H1258 N1253 0.984 . S
H1259 N1253 0.985 . S
H1260 N1257 0.984 . S
H1261 N1257 0.985 . S
H1262 N1256 0.984 . S
H1263 N1256 0.984 . S
H1264 N1252 0.984 . S
H1265 N1252 0.985 . S
C1266 C1267 1.363 . S
C1266 C1272 1.379 . S
C1266 N1274 1.356 . S
C1267 C1266 1.363 . S
C1267 C1273 1.363 . S
C1268 C1269 1.363 . S
C1268 C1273 1.379 . S
C1268 N1275 1.356 . S
C1269 C1268 1.363 . S
C1269 C1272 1.363 . S
N1270 C1272 1.356 . S
N1270 H1282 0.984 . S
N1270 H1283 0.985 . S
N1271 C1273 1.356 . S
N1271 H1276 0.984 . S
N1271 H1277 0.985 . S
C1272 C1266 1.379 . S
C1272 C1269 1.363 . S
C1272 N1270 1.356 . S
C1273 C1267 1.363 . S
C1273 C1268 1.379 . S
C1273 N1271 1.356 . S
N1274 C1266 1.356 . S
N1274 H1280 0.984 . S
N1274 H1281 0.984 . S
N1275 C1268 1.356 . S
N1275 H1278 0.984 . S
N1275 H1279 0.985 . S
H1276 N1271 0.984 . S
H1277 N1271 0.985 . S
H1278 N1275 0.984 . S
H1279 N1275 0.985 . S
H1280 N1274 0.984 . S
H1281 N1274 0.984 . S
H1282 N1270 0.984 . S
H1283 N1270 0.985 . S
C1284 C1285 1.363 . S
C1284 C1290 1.379 . S
C1284 N1292 1.356 . S
C1285 C1284 1.363 . S
C1285 C1291 1.363 . S
C1286 C1287 1.363 . S
C1286 C1291 1.379 . S
C1286 N1293 1.356 . S
C1287 C1286 1.363 . S
C1287 C1290 1.363 . S
N1288 C1290 1.356 . S
N1288 H1300 0.984 . S
N1288 H1301 0.985 . S
N1289 C1291 1.356 . S
N1289 H1294 0.984 . S
N1289 H1295 0.985 . S
C1290 C1284 1.379 . S
C1290 C1287 1.363 . S
C1290 N1288 1.356 . S
C1291 C1285 1.363 . S
C1291 C1286 1.379 . S
C1291 N1289 1.356 . S
N1292 C1284 1.356 . S
N1292 H1298 0.984 . S
N1292 H1299 0.984 . S
N1293 C1286 1.356 . S
N1293 H1296 0.984 . S
N1293 H1297 0.985 . S
H1294 N1289 0.984 . S
H1295 N1289 0.985 . S
H1296 N1293 0.984 . S
H1297 N1293 0.985 . S
H1298 N1292 0.984 . S
H1299 N1292 0.984 . S
H1300 N1288 0.984 . S
H1301 N1288 0.985 . S
C1302 C1303 1.363 . S
C1302 C1308 1.379 . S
C1302 N1310 1.356 . S
C1303 C1302 1.363 . S
C1303 C1309 1.363 . S
C1304 C1305 1.363 . S
C1304 C1309 1.379 . S
C1304 N1311 1.356 . S
C1305 C1304 1.363 . S
C1305 C1308 1.363 . S
N1306 C1308 1.356 . S
N1306 H1318 0.990 . S
N1306 H1319 0.985 . S
N1307 C1309 1.356 . S
N1307 H1312 0.984 . S
N1307 H1313 0.985 . S
C1308 C1302 1.379 . S
C1308 C1305 1.363 . S
C1308 N1306 1.356 . S
C1309 C1303 1.363 . S
C1309 C1304 1.379 . S
C1309 N1307 1.356 . S
N1310 C1302 1.356 . S
N1310 H1316 0.984 . S
N1310 H1317 0.984 . S
N1311 C1304 1.356 . S
N1311 H1314 0.984 . S
N1311 H1315 0.985 . S
H1312 N1307 0.984 . S
H1313 N1307 0.985 . S
H1314 N1311 0.984 . S
H1315 N1311 0.985 . S
H1316 N1310 0.984 . S
H1317 N1310 0.984 . S
H1318 N1306 0.990 . S
H1319 N1306 0.985 . S
C1320 C1321 1.363 . S
C1320 C1326 1.379 . S
C1320 N1328 1.356 . S
C1321 C1320 1.363 . S
C1321 C1327 1.363 . S
C1322 C1323 1.363 . S
C1322 C1327 1.379 . S
C1322 N1329 1.356 . S
C1323 C1322 1.363 . S
C1323 C1326 1.363 . S
N1324 C1326 1.356 . S
N1324 H1336 0.984 . S
N1324 H1337 0.985 . S
N1325 C1327 1.356 . S
N1325 H1330 0.984 . S
N1325 H1331 0.985 . S
C1326 C1320 1.379 . S
C1326 C1323 1.363 . S
C1326 N1324 1.356 . S
C1327 C1321 1.363 . S
C1327 C1322 1.379 . S
C1327 N1325 1.356 . S
N1328 C1320 1.356 . S
N1328 H1334 0.984 . S
N1328 H1335 0.984 . S
N1329 C1322 1.356 . S
N1329 H1332 0.984 . S
N1329 H1333 0.985 . S
H1330 N1325 0.984 . S
H1331 N1325 0.985 . S
H1332 N1329 0.984 . S
H1333 N1329 0.985 . S
H1334 N1328 0.984 . S
H1335 N1328 0.984 . S
H1336 N1324 0.984 . S
H1337 N1324 0.985 . S
C1338 C1339 1.363 . S
C1338 C1344 1.379 . S
C1338 N1346 1.356 . S
C1339 C1338 1.363 . S
C1339 C1345 1.363 . S
C1340 C1341 1.363 . S
C1340 C1345 1.379 . S
C1340 N1347 1.356 . S
C1341 C1340 1.363 . S
C1341 C1344 1.363 . S
N1342 C1344 1.356 . S
N1342 H1354 0.984 . S
N1342 H1355 0.985 . S
N1343 C1345 1.356 . S
N1343 H1348 0.984 . S
N1343 H1349 0.985 . S
C1344 C1338 1.379 . S
C1344 C1341 1.363 . S
C1344 N1342 1.356 . S
C1345 C1339 1.363 . S
C1345 C1340 1.379 . S
C1345 N1343 1.356 . S
N1346 C1338 1.356 . S
N1346 H1352 0.984 . S
N1346 H1353 0.984 . S
N1347 C1340 1.356 . S
N1347 H1350 0.984 . S
N1347 H1351 0.985 . S
H1348 N1343 0.984 . S
H1349 N1343 0.985 . S
H1350 N1347 0.984 . S
H1351 N1347 0.985 . S
H1352 N1346 0.984 . S
H1353 N1346 0.984 . S
H1354 N1342 0.984 . S
H1355 N1342 0.985 . S
C1356 C1357 1.363 . S
C1356 C1362 1.379 . S
C1356 N1364 1.356 . S
C1357 C1356 1.363 . S
C1357 C1363 1.363 . S
C1358 C1359 1.363 . S
C1358 C1363 1.379 . S
C1358 N1365 1.356 . S
C1359 C1358 1.363 . S
C1359 C1362 1.363 . S
N1360 C1362 1.356 . S
N1360 H1372 0.984 . S
N1360 H1373 0.985 . S
N1361 C1363 1.356 . S
N1361 H1366 0.984 . S
N1361 H1367 0.985 . S
C1362 C1356 1.379 . S
C1362 C1359 1.363 . S
C1362 N1360 1.356 . S
C1363 C1357 1.363 . S
C1363 C1358 1.379 . S
C1363 N1361 1.356 . S
N1364 C1356 1.356 . S
N1364 H1370 0.984 . S
N1364 H1371 0.984 . S
N1365 C1358 1.356 . S
N1365 H1368 0.984 . S
N1365 H1369 0.985 . S
H1366 N1361 0.984 . S
H1367 N1361 0.985 . S
H1368 N1365 0.984 . S
H1369 N1365 0.985 . S
H1370 N1364 0.984 . S
H1371 N1364 0.984 . S
H1372 N1360 0.984 . S
H1373 N1360 0.985 . S
C1374 C1375 1.363 . S
C1374 C1380 1.379 . S
C1374 N1382 1.356 . S
C1375 C1374 1.363 . S
C1375 C1381 1.363 . S
C1376 C1377 1.363 . S
C1376 C1381 1.379 . S
C1376 N1383 1.356 . S
C1377 C1376 1.363 . S
C1377 C1380 1.363 . S
N1378 C1380 1.356 1_556 S
N1378 H1390 0.984 . S
N1378 H1391 0.985 . S
N1379 C1381 1.356 . S
N1379 H1384 0.984 . S
N1379 H1385 0.985 . S
C1380 C1374 1.379 . S
C1380 C1377 1.363 . S
C1380 N1378 1.356 1_554 S
C1381 C1375 1.363 . S
C1381 C1376 1.379 . S
C1381 N1379 1.356 . S
N1382 C1374 1.356 . S
N1382 H1388 0.984 . S
N1382 H1389 0.984 . S
N1383 C1376 1.356 . S
N1383 H1386 0.984 . S
N1383 H1387 0.985 . S
H1384 N1379 0.984 . S
H1385 N1379 0.985 . S
H1386 N1383 0.984 . S
H1387 N1383 0.985 . S
H1388 N1382 0.984 . S
H1389 N1382 0.984 . S
H1390 N1378 0.984 . S
H1391 N1378 0.985 . S
C1392 C1393 1.363 . S
C1392 C1398 1.379 . S
C1392 N1400 1.356 . S
C1393 C1392 1.363 . S
C1393 C1399 1.363 . S
C1394 C1395 1.363 . S
C1394 C1399 1.379 . S
C1394 N1401 1.356 . S
C1395 C1394 1.363 . S
C1395 C1398 1.363 . S
N1396 C1398 1.356 . S
N1396 H1408 0.984 . S
N1396 H1409 0.985 . S
N1397 C1399 1.356 . S
N1397 H1402 0.984 . S
N1397 H1403 0.985 . S
C1398 C1392 1.379 . S
C1398 C1395 1.363 . S
C1398 N1396 1.356 . S
C1399 C1393 1.363 . S
C1399 C1394 1.379 . S
C1399 N1397 1.356 . S
N1400 C1392 1.356 . S
N1400 H1406 0.984 . S
N1400 H1407 0.984 . S
N1401 C1394 1.356 . S
N1401 H1404 0.984 . S
N1401 H1405 0.985 . S
H1402 N1397 0.984 . S
H1403 N1397 0.985 . S
H1404 N1401 0.984 . S
H1405 N1401 0.985 . S
H1406 N1400 0.984 . S
H1407 N1400 0.984 . S
H1408 N1396 0.984 . S
H1409 N1396 0.985 . S
C1410 C1411 1.363 . S
C1410 C1416 1.379 . S
C1410 N1418 1.356 . S
C1411 C1410 1.363 . S
C1411 C1417 1.363 . S
C1412 C1413 1.363 . S
C1412 C1417 1.379 . S
C1412 N1419 1.356 . S
C1413 C1412 1.363 . S
C1413 C1416 1.363 . S
N1414 C1416 1.356 . S
N1414 H1426 0.984 . S
N1414 H1427 0.985 . S
N1415 C1417 1.356 1_556 S
N1415 H1420 0.984 . S
N1415 H1421 0.985 . S
C1416 C1410 1.379 . S
C1416 C1413 1.363 . S
C1416 N1414 1.356 . S
C1417 C1411 1.363 . S
C1417 C1412 1.379 . S
C1417 N1415 1.356 1_554 S
N1418 C1410 1.356 . S
N1418 H1424 0.984 . S
N1418 H1425 0.984 . S
N1419 C1412 1.356 . S
N1419 H1422 0.984 . S
N1419 H1423 0.985 . S
H1420 N1415 0.984 . S
H1421 N1415 0.985 . S
H1422 N1419 0.984 . S
H1423 N1419 0.985 . S
H1424 N1418 0.984 . S
H1425 N1418 0.984 . S
H1426 N1414 0.984 . S
H1427 N1414 0.985 . S
C1428 C1429 1.363 . S
C1428 C1434 1.379 . S
C1428 N1436 1.356 . S
C1429 C1428 1.363 . S
C1429 C1435 1.363 . S
C1430 C1431 1.363 . S
C1430 C1435 1.379 . S
C1430 N1437 1.356 . S
C1431 C1430 1.363 . S
C1431 C1434 1.363 . S
N1432 C1434 1.356 . S
N1432 H1444 0.984 . S
N1432 H1445 0.985 . S
N1433 C1435 1.356 . S
N1433 H1438 0.984 . S
N1433 H1439 0.985 . S
C1434 C1428 1.379 . S
C1434 C1431 1.363 . S
C1434 N1432 1.356 . S
C1435 C1429 1.363 . S
C1435 C1430 1.379 . S
C1435 N1433 1.356 . S
N1436 C1428 1.356 . S
N1436 H1442 0.984 . S
N1436 H1443 0.984 . S
N1437 C1430 1.356 . S
N1437 H1440 0.984 . S
N1437 H1441 0.985 . S
H1438 N1433 0.984 . S
H1439 N1433 0.985 . S
H1440 N1437 0.984 . S
H1441 N1437 0.985 . S
H1442 N1436 0.984 . S
H1443 N1436 0.984 . S
H1444 N1432 0.984 . S
H1445 N1432 0.985 . S
C1446 C1447 1.363 . S
C1446 C1452 1.379 . S
C1446 N1454 1.356 . S
C1447 C1446 1.363 . S
C1447 C1453 1.363 . S
C1448 C1449 1.363 . S
C1448 C1453 1.379 . S
C1448 N1455 1.356 . S
C1449 C1448 1.363 . S
C1449 C1452 1.363 . S
N1450 C1452 1.356 . S
N1450 H1462 0.984 . S
N1450 H1463 0.985 . S
N1451 C1453 1.356 . S
N1451 H1456 0.984 . S
N1451 H1457 0.985 . S
C1452 C1446 1.379 . S
C1452 C1449 1.363 . S
C1452 N1450 1.356 . S
C1453 C1447 1.363 . S
C1453 C1448 1.379 . S
C1453 N1451 1.356 . S
N1454 C1446 1.356 . S
N1454 H1460 0.984 . S
N1454 H1461 0.984 . S
N1455 C1448 1.356 . S
N1455 H1458 0.984 . S
N1455 H1459 0.985 . S
H1456 N1451 0.984 . S
H1457 N1451 0.985 . S
H1458 N1455 0.984 . S
H1459 N1455 0.985 . S
H1460 N1454 0.984 . S
H1461 N1454 0.984 . S
H1462 N1450 0.984 . S
H1463 N1450 0.985 . S
C1464 C1465 1.363 . S
C1464 C1470 1.379 . S
C1464 N1472 1.356 . S
C1465 C1464 1.363 . S
C1465 C1471 1.363 . S
C1466 C1467 1.363 . S
C1466 C1471 1.379 . S
C1466 N1473 1.356 . S
C1467 C1466 1.363 . S
C1467 C1470 1.363 . S
N1468 C1470 1.356 . S
N1468 H1480 0.984 . S
N1468 H1481 0.985 . S
N1469 C1471 1.356 . S
N1469 H1474 0.984 . S
N1469 H1475 0.985 . S
C1470 C1464 1.379 . S
C1470 C1467 1.363 . S
C1470 N1468 1.356 . S
C1471 C1465 1.363 . S
C1471 C1466 1.379 . S
C1471 N1469 1.356 . S
N1472 C1464 1.356 . S
N1472 H1478 0.984 . S
N1472 H1479 0.984 . S
N1473 C1466 1.356 . S
N1473 H1476 0.984 . S
N1473 H1477 0.985 . S
H1474 N1469 0.984 . S
H1475 N1469 0.985 . S
H1476 N1473 0.984 . S
H1477 N1473 0.985 . S
H1478 N1472 0.984 . S
H1479 N1472 0.984 . S
H1480 N1468 0.984 . S
H1481 N1468 0.985 . S
C1482 C1483 1.363 . S
C1482 C1488 1.379 . S
C1482 N1490 1.356 . S
C1483 C1482 1.363 . S
C1483 C1489 1.363 . S
C1484 C1485 1.363 . S
C1484 C1489 1.379 . S
C1484 N1491 1.356 . S
C1485 C1484 1.363 . S
C1485 C1488 1.363 . S
N1486 C1488 1.356 . S
N1486 H1498 0.984 . S
N1486 H1499 0.985 . S
N1487 C1489 1.356 . S
N1487 H1492 0.984 . S
N1487 H1493 0.985 . S
C1488 C1482 1.379 . S
C1488 C1485 1.363 . S
C1488 N1486 1.356 . S
C1489 C1483 1.363 . S
C1489 C1484 1.379 . S
C1489 N1487 1.356 . S
N1490 C1482 1.356 . S
N1490 H1496 0.984 . S
N1490 H1497 0.984 . S
N1491 C1484 1.356 . S
N1491 H1494 0.984 . S
N1491 H1495 0.985 . S
H1492 N1487 0.984 . S
H1493 N1487 0.985 . S
H1494 N1491 0.984 . S
H1495 N1491 0.985 . S
H1496 N1490 0.984 . S
H1497 N1490 0.984 . S
H1498 N1486 0.984 . S
H1499 N1486 0.985 . S
C1500 C1501 1.363 . S
C1500 C1506 1.379 . S
C1500 N1508 1.356 . S
C1501 C1500 1.363 . S
C1501 C1507 1.363 . S
C1502 C1503 1.363 . S
C1502 C1507 1.379 . S
C1502 N1509 1.356 . S
C1503 C1502 1.363 . S
C1503 C1506 1.363 . S
N1504 C1506 1.356 . S
N1504 H1516 0.984 . S
N1504 H1517 0.985 . S
N1505 C1507 1.356 . S
N1505 H1510 0.984 . S
N1505 H1511 0.985 . S
C1506 C1500 1.379 . S
C1506 C1503 1.363 . S
C1506 N1504 1.356 . S
C1507 C1501 1.363 . S
C1507 C1502 1.379 . S
C1507 N1505 1.356 . S
N1508 C1500 1.356 . S
N1508 H1514 0.984 . S
N1508 H1515 0.984 . S
N1509 C1502 1.356 . S
N1509 H1512 0.984 . S
N1509 H1513 0.985 . S
H1510 N1505 0.984 . S
H1511 N1505 0.985 . S
H1512 N1509 0.984 . S
H1513 N1509 0.985 . S
H1514 N1508 0.984 . S
H1515 N1508 0.984 . S
H1516 N1504 0.984 . S
H1517 N1504 0.985 . S
C1518 C1519 1.363 . S
C1518 C1524 1.379 . S
C1518 N1526 1.356 . S
C1519 C1518 1.363 . S
C1519 C1525 1.363 . S
C1520 C1521 1.363 . S
C1520 C1525 1.379 . S
C1520 N1527 1.356 . S
C1521 C1520 1.363 . S
C1521 C1524 1.363 . S
N1522 C1524 1.356 . S
N1522 H1534 0.984 . S
N1522 H1535 0.985 . S
N1523 C1525 1.356 . S
N1523 H1528 0.984 . S
N1523 H1529 0.985 . S
C1524 C1518 1.379 . S
C1524 C1521 1.363 . S
C1524 N1522 1.356 . S
C1525 C1519 1.363 . S
C1525 C1520 1.379 . S
C1525 N1523 1.356 . S
N1526 C1518 1.356 . S
N1526 H1532 0.984 . S
N1526 H1533 0.984 . S
N1527 C1520 1.356 . S
N1527 H1530 0.984 . S
N1527 H1531 0.985 . S
H1528 N1523 0.984 . S
H1529 N1523 0.985 . S
H1530 N1527 0.984 . S
H1531 N1527 0.985 . S
H1532 N1526 0.984 . S
H1533 N1526 0.984 . S
H1534 N1522 0.984 . S
H1535 N1522 0.985 . S
C1536 C1537 1.363 . S
C1536 C1542 1.379 . S
C1536 N1544 1.356 . S
C1537 C1536 1.363 . S
C1537 C1543 1.363 . S
C1538 C1539 1.363 . S
C1538 C1543 1.379 . S
C1538 N1545 1.356 . S
C1539 C1538 1.363 . S
C1539 C1542 1.363 . S
N1540 C1542 1.356 . S
N1540 H1552 0.984 . S
N1540 H1553 0.985 . S
N1541 C1543 1.356 . S
N1541 H1546 0.984 . S
N1541 H1547 0.985 . S
C1542 C1536 1.379 . S
C1542 C1539 1.363 . S
C1542 N1540 1.356 . S
C1543 C1537 1.363 . S
C1543 C1538 1.379 . S
C1543 N1541 1.356 . S
N1544 C1536 1.356 . S
N1544 H1550 0.984 . S
N1544 H1551 0.984 . S
N1545 C1538 1.356 . S
N1545 H1548 0.984 . S
N1545 H1549 0.985 . S
H1546 N1541 0.984 . S
H1547 N1541 0.985 . S
H1548 N1545 0.984 . S
H1549 N1545 0.985 . S
H1550 N1544 0.984 . S
H1551 N1544 0.984 . S
H1552 N1540 0.984 . S
H1553 N1540 0.985 . S
C1554 C1555 1.363 . S
C1554 C1560 1.379 . S
C1554 N1562 1.356 . S
C1555 C1554 1.363 . S
C1555 C1561 1.363 . S
C1556 C1557 1.363 . S
C1556 C1561 1.379 . S
C1556 N1563 1.356 . S
C1557 C1556 1.363 . S
C1557 C1560 1.363 . S
N1558 C1560 1.356 . S
N1558 H1570 0.984 . S
N1558 H1571 0.985 . S
N1559 C1561 1.356 . S
N1559 H1564 0.984 . S
N1559 H1565 0.985 . S
C1560 C1554 1.379 . S
C1560 C1557 1.363 . S
C1560 N1558 1.356 . S
C1561 C1555 1.363 . S
C1561 C1556 1.379 . S
C1561 N1559 1.356 . S
N1562 C1554 1.356 . S
N1562 H1568 0.984 . S
N1562 H1569 0.984 . S
N1563 C1556 1.356 . S
N1563 H1566 0.984 . S
N1563 H1567 0.985 . S
H1564 N1559 0.984 . S
H1565 N1559 0.985 . S
H1566 N1563 0.984 . S
H1567 N1563 0.985 . S
H1568 N1562 0.984 . S
H1569 N1562 0.984 . S
H1570 N1558 0.984 . S
H1571 N1558 0.985 . S
C1572 C1573 1.363 . S
C1572 C1578 1.379 . S
C1572 N1580 1.356 . S
C1573 C1572 1.363 . S
C1573 C1579 1.363 . S
C1574 C1575 1.363 . S
C1574 C1579 1.379 . S
C1574 N1581 1.356 . S
C1575 C1574 1.363 . S
C1575 C1578 1.363 . S
N1576 C1578 1.356 . S
N1576 H1588 0.984 . S
N1576 H1589 0.985 . S
N1577 C1579 1.356 . S
N1577 H1582 0.984 . S
N1577 H1583 0.985 . S
C1578 C1572 1.379 . S
C1578 C1575 1.363 . S
C1578 N1576 1.356 . S
C1579 C1573 1.363 . S
C1579 C1574 1.379 . S
C1579 N1577 1.356 . S
N1580 C1572 1.356 . S
N1580 H1586 0.984 . S
N1580 H1587 0.984 . S
N1581 C1574 1.356 . S
N1581 H1584 0.984 . S
N1581 H1585 0.985 . S
H1582 N1577 0.984 . S
H1583 N1577 0.985 . S
H1584 N1581 0.984 . S
H1585 N1581 0.985 . S
H1586 N1580 0.984 . S
H1587 N1580 0.984 . S
H1588 N1576 0.984 . S
H1589 N1576 0.985 . S
C1590 C1591 1.363 . S
C1590 C1596 1.379 . S
C1590 N1598 1.356 . S
C1591 C1590 1.363 . S
C1591 C1597 1.363 . S
C1592 C1593 1.363 . S
C1592 C1597 1.379 . S
C1592 N1599 1.356 . S
C1593 C1592 1.363 . S
C1593 C1596 1.363 . S
N1594 C1596 1.356 . S
N1594 H1606 0.984 . S
N1594 H1607 0.985 . S
N1595 C1597 1.356 . S
N1595 H1600 0.984 . S
N1595 H1601 0.985 . S
C1596 C1590 1.379 . S
C1596 C1593 1.363 . S
C1596 N1594 1.356 . S
C1597 C1591 1.363 . S
C1597 C1592 1.379 . S
C1597 N1595 1.356 . S
N1598 C1590 1.356 . S
N1598 H1604 0.984 . S
N1598 H1605 0.984 . S
N1599 C1592 1.356 . S
N1599 H1602 0.984 . S
N1599 H1603 0.985 . S
H1600 N1595 0.984 . S
H1601 N1595 0.985 . S
H1602 N1599 0.984 . S
H1603 N1599 0.985 . S
H1604 N1598 0.984 . S
H1605 N1598 0.984 . S
H1606 N1594 0.984 . S
H1607 N1594 0.985 . S
C1608 C1609 1.363 . S
C1608 C1614 1.379 . S
C1608 N1616 1.356 . S
C1609 C1608 1.363 . S
C1609 C1615 1.363 . S
C1610 C1611 1.363 . S
C1610 C1615 1.379 . S
C1610 N1617 1.356 . S
C1611 C1610 1.363 . S
C1611 C1614 1.363 . S
N1612 C1614 1.356 . S
N1612 H1624 0.984 . S
N1612 H1625 0.985 . S
N1613 C1615 1.356 . S
N1613 H1618 0.984 . S
N1613 H1619 0.985 . S
C1614 C1608 1.379 . S
C1614 C1611 1.363 . S
C1614 N1612 1.356 . S
C1615 C1609 1.363 . S
C1615 C1610 1.379 . S
C1615 N1613 1.356 . S
N1616 C1608 1.356 . S
N1616 H1622 0.984 . S
N1616 H1623 0.984 . S
N1617 C1610 1.356 . S
N1617 H1620 0.984 . S
N1617 H1621 0.985 . S
H1618 N1613 0.984 . S
H1619 N1613 0.985 . S
H1620 N1617 0.984 . S
H1621 N1617 0.985 . S
H1622 N1616 0.984 . S
H1623 N1616 0.984 . S
H1624 N1612 0.984 . S
H1625 N1612 0.985 . S
C1626 C1627 1.363 . S
C1626 C1632 1.379 . S
C1626 N1634 1.356 . S
C1627 C1626 1.363 . S
C1627 C1633 1.363 . S
C1628 C1629 1.363 . S
C1628 C1633 1.379 . S
C1628 N1635 1.356 . S
C1629 C1628 1.363 . S
C1629 C1632 1.363 . S
N1630 C1632 1.356 . S
N1630 H1642 0.984 . S
N1630 H1643 0.985 . S
N1631 C1633 1.356 . S
N1631 H1636 0.984 . S
N1631 H1637 0.985 . S
C1632 C1626 1.379 . S
C1632 C1629 1.363 . S
C1632 N1630 1.356 . S
C1633 C1627 1.363 . S
C1633 C1628 1.379 . S
C1633 N1631 1.356 . S
N1634 C1626 1.356 . S
N1634 H1640 0.984 . S
N1634 H1641 0.984 . S
N1635 C1628 1.356 . S
N1635 H1638 0.984 . S
N1635 H1639 0.985 . S
H1636 N1631 0.984 . S
H1637 N1631 0.985 . S
H1638 N1635 0.984 . S
H1639 N1635 0.985 . S
H1640 N1634 0.984 . S
H1641 N1634 0.984 . S
H1642 N1630 0.984 . S
H1643 N1630 0.985 . S
C1644 C1645 1.363 . S
C1644 C1650 1.379 . S
C1644 N1652 1.356 . S
C1645 C1644 1.363 . S
C1645 C1651 1.363 . S
C1646 C1647 1.363 . S
C1646 C1651 1.379 . S
C1646 N1653 1.356 . S
C1647 C1646 1.363 . S
C1647 C1650 1.363 . S
N1648 C1650 1.356 . S
N1648 H1660 0.984 . S
N1648 H1661 0.985 . S
N1649 C1651 1.356 . S
N1649 H1654 0.984 . S
N1649 H1655 0.985 . S
C1650 C1644 1.379 . S
C1650 C1647 1.363 . S
C1650 N1648 1.356 . S
C1651 C1645 1.363 . S
C1651 C1646 1.379 . S
C1651 N1649 1.356 . S
N1652 C1644 1.356 . S
N1652 H1658 0.984 . S
N1652 H1659 0.984 . S
N1653 C1646 1.356 . S
N1653 H1656 0.984 . S
N1653 H1657 0.985 . S
H1654 N1649 0.984 . S
H1655 N1649 0.985 . S
H1656 N1653 0.984 . S
H1657 N1653 0.985 . S
H1658 N1652 0.984 . S
H1659 N1652 0.984 . S
H1660 N1648 0.984 . S
H1661 N1648 0.985 . S
C1662 C1663 1.363 . S
C1662 C1668 1.379 . S
C1662 N1670 1.356 . S
C1663 C1662 1.363 . S
C1663 C1669 1.363 . S
C1664 C1665 1.363 . S
C1664 C1669 1.379 . S
C1664 N1671 1.356 . S
C1665 C1664 1.363 . S
C1665 C1668 1.363 . S
N1666 C1668 1.356 . S
N1666 H1678 0.984 . S
N1666 H1679 0.985 . S
N1667 C1669 1.356 . S
N1667 H1672 0.984 . S
N1667 H1673 0.985 . S
C1668 C1662 1.379 . S
C1668 C1665 1.363 . S
C1668 N1666 1.356 . S
C1669 C1663 1.363 . S
C1669 C1664 1.379 . S
C1669 N1667 1.356 . S
N1670 C1662 1.356 . S
N1670 H1676 0.984 . S
N1670 H1677 0.984 . S
N1671 C1664 1.356 . S
N1671 H1674 0.984 . S
N1671 H1675 0.985 . S
H1672 N1667 0.984 . S
H1673 N1667 0.985 . S
H1674 N1671 0.984 . S
H1675 N1671 0.985 . S
H1676 N1670 0.984 . S
H1677 N1670 0.984 . S
H1678 N1666 0.984 . S
H1679 N1666 0.985 . S
C1680 C1681 1.363 . S
C1680 C1686 1.379 . S
C1680 N1688 1.356 . S
C1681 C1680 1.363 . S
C1681 C1687 1.363 . S
C1682 C1683 1.363 . S
C1682 C1687 1.379 . S
C1682 N1689 1.356 . S
C1683 C1682 1.363 . S
C1683 C1686 1.363 . S
N1684 C1686 1.356 . S
N1684 H1696 0.984 . S
N1684 H1697 0.985 . S
N1685 C1687 1.356 . S
N1685 H1690 0.984 . S
N1685 H1691 0.985 . S
C1686 C1680 1.379 . S
C1686 C1683 1.363 . S
C1686 N1684 1.356 . S
C1687 C1681 1.363 . S
C1687 C1682 1.379 . S
C1687 N1685 1.356 . S
N1688 C1680 1.356 . S
N1688 H1694 0.984 . S
N1688 H1695 0.984 . S
N1689 C1682 1.356 . S
N1689 H1692 0.984 . S
N1689 H1693 0.985 . S
H1690 N1685 0.984 . S
H1691 N1685 0.985 . S
H1692 N1689 0.984 . S
H1693 N1689 0.985 . S
H1694 N1688 0.984 . S
H1695 N1688 0.984 . S
H1696 N1684 0.984 . S
H1697 N1684 0.985 . S
C1698 C1699 1.363 . S
C1698 C1704 1.379 . S
C1698 N1706 1.356 . S
C1699 C1698 1.363 . S
C1699 C1705 1.363 . S
C1700 C1701 1.363 . S
C1700 C1705 1.379 . S
C1700 N1707 1.356 . S
C1701 C1700 1.363 . S
C1701 C1704 1.363 . S
N1702 C1704 1.356 . S
N1702 H1714 0.984 . S
N1702 H1715 0.985 . S
N1703 C1705 1.356 . S
N1703 H1708 0.984 . S
N1703 H1709 0.985 . S
C1704 C1698 1.379 . S
C1704 C1701 1.363 . S
C1704 N1702 1.356 . S
C1705 C1699 1.363 . S
C1705 C1700 1.379 . S
C1705 N1703 1.356 . S
N1706 C1698 1.356 . S
N1706 H1712 0.984 . S
N1706 H1713 0.984 . S
N1707 C1700 1.356 . S
N1707 H1710 0.984 . S
N1707 H1711 0.985 . S
H1708 N1703 0.984 . S
H1709 N1703 0.985 . S
H1710 N1707 0.984 . S
H1711 N1707 0.985 . S
H1712 N1706 0.984 . S
H1713 N1706 0.984 . S
H1714 N1702 0.984 . S
H1715 N1702 0.985 . S
C1716 C1717 1.363 . S
C1716 C1722 1.379 . S
C1716 N1724 1.356 . S
C1717 C1716 1.363 . S
C1717 C1723 1.363 . S
C1718 C1719 1.363 . S
C1718 C1723 1.379 . S
C1718 N1725 1.356 . S
C1719 C1718 1.363 . S
C1719 C1722 1.363 . S
N1720 C1722 1.356 . S
N1720 H1732 0.984 . S
N1720 H1733 0.985 . S
N1721 C1723 1.356 . S
N1721 H1726 0.984 . S
N1721 H1727 0.985 . S
C1722 C1716 1.379 . S
C1722 C1719 1.363 . S
C1722 N1720 1.356 . S
C1723 C1717 1.363 . S
C1723 C1718 1.379 . S
C1723 N1721 1.356 . S
N1724 C1716 1.356 . S
N1724 H1730 0.984 . S
N1724 H1731 0.984 . S
N1725 C1718 1.356 . S
N1725 H1728 0.984 . S
N1725 H1729 0.985 . S
H1726 N1721 0.984 . S
H1727 N1721 0.985 . S
H1728 N1725 0.984 . S
H1729 N1725 0.985 . S
H1730 N1724 0.984 . S
H1731 N1724 0.984 . S
H1732 N1720 0.984 . S
H1733 N1720 0.985 . S
C873 C699 1.431 . S
C871 C56 1.605 . S
C891 C700 1.483 . S
C889 C154 1.440 . S
C909 C694 1.700 . S
C907 C236 1.739 . S
C925 C310 1.130 . S
C927 C693 0.559 . S
C943 C394 1.440 . S
C945 C696 1.483 . S
C963 C698 1.700 . S
C961 C476 1.737 . S
C979 C574 1.130 . S
C981 C697 0.559 . S
C997 C656 1.606 . S
C999 C695 1.433 . S
C1017 C730 2.629 . S
C1015 C67 2.606 . S
C1033 C139 1.694 . S
C1035 C761 1.550 . S
C1053 C729 1.365 . S
C1051 C238 1.267 . S
C1071 C764 1.515 . S
C1069 C308 1.449 . S
C1087 C392 1.728 . S
C1089 C727 1.719 . S
C1107 C759 2.614 . S
C1105 C487 2.610 . S
C1123 C559 1.465 . S
C1125 C732 1.331 . S
C1141 C658 1.231 . S
C1143 C766 1.319 . S
C1159 C58 1.231 . S
C1161 C762 1.316 . S
C1177 C403 1.694 . S
C1179 C765 1.550 . S
C1197 C733 1.365 . S
C1195 C478 1.268 . S
C1215 C760 1.515 . S
C1213 C572 1.453 . S
C1231 C643 2.608 . S
C1233 C726 2.631 . S
C1249 C223 2.611 . S
C1251 C763 2.615 . S
C1269 C728 1.331 . S
C1267 C319 1.465 . S
C1285 C152 1.728 . S
C1287 C731 1.716 . S
C1303 C644 1.623 . S
C1305 C798 1.486 . S
C1321 C406 1.281 . S
C1323 C799 1.243 . S
C1341 C793 1.521 . S
C1339 C488 1.548 . S
C1359 C792 0.590 . S
C1357 C562 0.834 . S
C1375 C142 1.281 . S
C1377 C795 1.241 . S
C1395 C797 1.521 . S
C1393 C224 1.545 . S
C1411 C322 0.832 . S
C1413 C796 0.589 . S
C1429 C68 1.623 . S
C1431 C794 1.484 . S
C1447 C655 2.802 . S
C1449 C832 2.726 . S
C1467 C864 1.438 . S
C1465 C391 1.518 . S
C1483 C490 1.116 . S
C1485 C825 1.289 . S
C1501 C560 1.709 . S
C1503 C859 1.679 . S
C1521 C830 1.448 . S
C1519 C140 1.440 . S
C1537 C235 2.845 . S
C1539 C861 2.780 . S
C1557 C827 1.762 . S
C1555 C307 1.823 . S
C1575 C862 1.325 . S
C1573 C70 1.229 . S
C1593 C858 1.325 . S
C1591 C646 1.232 . S
C1609 C151 1.517 . S
C1611 C860 1.436 . S
C1627 C226 1.116 . S
C1629 C829 1.291 . S
C1647 C863 1.680 . S
C1645 C320 1.710 . S
C1663 C55 2.802 . S
C1665 C828 2.724 . S
C1681 C475 2.845 . S
C1683 C865 2.777 . S
C1701 C831 1.762 . S
C1699 C571 1.823 . S
C1719 C826 1.448 . S
C1717 C404 1.439 . S
