# Generated by pormake.
# Topology ssa, (4,4)-cn, num edge types: 1
# Building blocks:
#     Node 0, Type 0, BuildingBlock: KOZSID_clean_sbu_0, # of connection points: 4
#     Node 1, Type 0, BuildingBlock: KOZSID_clean_sbu_0, # of connection points: 4
#     Node 2, Type 0, BuildingBlock: KOZSID_clean_sbu_0, # of connection points: 4
#     Node 3, Type 0, BuildingBlock: KOZSID_clean_sbu_0, # of connection points: 4
#     Node 4, Type 0, BuildingBlock: KOZSID_clean_sbu_0, # of connection points: 4
#     Node 5, Type 0, BuildingBlock: KOZSID_clean_sbu_0, # of connection points: 4
#     Node 6, Type 1, BuildingBlock: NAWXER_clean_sbu_0, # of connection points: 4
#     Node 7, Type 1, BuildingBlock: NAWXER_clean_sbu_0, # of connection points: 4
#     Node 8, Type 1, BuildingBlock: NAWXER_clean_sbu_0, # of connection points: 4
#     Node 9, Type 1, BuildingBlock: NAWXER_clean_sbu_0, # of connection points: 4
#     Node 10, Type 1, BuildingBlock: NAWXER_clean_sbu_0, # of connection points: 4
#     Node 11, Type 1, BuildingBlock: NAWXER_clean_sbu_0, # of connection points: 4
#     Edge 12, Type (0, 1), BuildingBlock: TEMPAE_clean_linker_10, # of connection points: 2
#     Edge 13, Type (0, 1), BuildingBlock: TEMPAE_clean_linker_10, # of connection points: 2
#     Edge 14, Type (0, 1), BuildingBlock: TEMPAE_clean_linker_10, # of connection points: 2
#     Edge 15, Type (0, 1), BuildingBlock: TEMPAE_clean_linker_10, # of connection points: 2
#     Edge 16, Type (0, 1), BuildingBlock: TEMPAE_clean_linker_10, # of connection points: 2
#     Edge 17, Type (0, 1), BuildingBlock: TEMPAE_clean_linker_10, # of connection points: 2
#     Edge 18, Type (0, 1), BuildingBlock: TEMPAE_clean_linker_10, # of connection points: 2
#     Edge 19, Type (0, 1), BuildingBlock: TEMPAE_clean_linker_10, # of connection points: 2
#     Edge 20, Type (0, 1), BuildingBlock: TEMPAE_clean_linker_10, # of connection points: 2
#     Edge 21, Type (0, 1), BuildingBlock: TEMPAE_clean_linker_10, # of connection points: 2
#     Edge 22, Type (0, 1), BuildingBlock: TEMPAE_clean_linker_10, # of connection points: 2
#     Edge 23, Type (0, 1), BuildingBlock: TEMPAE_clean_linker_10, # of connection points: 2
#     Edge 24, Type (0, 1), BuildingBlock: TEMPAE_clean_linker_10, # of connection points: 2
#     Edge 25, Type (0, 1), BuildingBlock: TEMPAE_clean_linker_10, # of connection points: 2
#     Edge 26, Type (0, 1), BuildingBlock: TEMPAE_clean_linker_10, # of connection points: 2
#     Edge 27, Type (0, 1), BuildingBlock: TEMPAE_clean_linker_10, # of connection points: 2
#     Edge 28, Type (0, 1), BuildingBlock: TEMPAE_clean_linker_10, # of connection points: 2
#     Edge 29, Type (0, 1), BuildingBlock: TEMPAE_clean_linker_10, # of connection points: 2
#     Edge 30, Type (0, 1), BuildingBlock: TEMPAE_clean_linker_10, # of connection points: 2
#     Edge 31, Type (0, 1), BuildingBlock: TEMPAE_clean_linker_10, # of connection points: 2
#     Edge 32, Type (0, 1), BuildingBlock: TEMPAE_clean_linker_10, # of connection points: 2
#     Edge 33, Type (0, 1), BuildingBlock: TEMPAE_clean_linker_10, # of connection points: 2
#     Edge 34, Type (0, 1), BuildingBlock: TEMPAE_clean_linker_10, # of connection points: 2
#     Edge 35, Type (0, 1), BuildingBlock: TEMPAE_clean_linker_10, # of connection points: 2
# Relax obj value: 0.011
# Max RMSD: 0.029
# Mean RMSD: 0.017
data_MOF--net-ssa--node1-KOZSID_clean_sbu_0--node2-NAWXER_clean_sbu_0--edge1-TEMPAE_clean_linker_10
_symmetry_space_group_name_H-M    P1
_symmetry_Int_Tables_number       1
_symmetry_cell_setting            triclinic
loop_
_symmetry_equiv_pos_as_xyz
'x, y, z'
_cell_length_a     49.867727
_cell_length_b     51.177736
_cell_length_c     42.469716
_cell_angle_alpha  87.362385
_cell_angle_beta   89.90672
_cell_angle_gamma 122.75836
loop_
_atom_site_label
_atom_site_type_symbol
_atom_site_fract_x
_atom_site_fract_y
_atom_site_fract_z
_atom_type_partial_charge
C0 C 0.93726 0.48082 0.99785 0.0
C1 C 0.9095 0.46643 0.01653 0.0
C2 C 0.91384 0.45124 0.04127 0.0
C3 C 0.94381 0.45708 0.03631 0.0
N4 N 0.95911 0.47558 0.01014 0.0
Co5 Co 0.00236 0.4885 0.99304 0.0
N6 N 0.00672 0.46261 0.02683 0.0
C7 C 0.98442 0.44259 0.04871 0.0
C8 C 0.99544 0.42972 0.06989 0.0
C9 C 0.02688 0.44306 0.06155 0.0
C10 C 0.03313 0.46337 0.03575 0.0
N11 N 0.04622 0.50239 0.97689 0.0
C12 C 0.06909 0.50022 0.99161 0.0
C13 C 0.09786 0.51622 0.9746 0.0
C14 C 0.09325 0.52975 0.94848 0.0
C15 C 0.06211 0.52137 0.95119 0.0
N16 N 0.99768 0.51366 0.9586 0.0
C17 C 0.01893 0.53114 0.9348 0.0
C18 C 0.00826 0.54441 0.91378 0.0
C19 C 0.97805 0.53409 0.92428 0.0
C20 C 0.97202 0.51494 0.95113 0.0
N21 N 0.02229 0.52445 0.02047 0.0
C22 C 0.05686 0.57436 0.06022 0.0
C23 C 0.06109 0.57898 0.02741 0.0
C24 C 0.04382 0.55397 0.00818 0.0
C25 C 0.03374 0.54448 0.0726 0.0
C26 C 0.01667 0.52018 0.05247 0.0
N27 N 0.98226 0.45244 0.9654 0.0
C28 C 0.97683 0.4319 0.91383 0.0
C29 C 0.94798 0.40448 0.92319 0.0
C30 C 0.93766 0.40091 0.95465 0.0
C31 C 0.95515 0.42473 0.97518 0.0
C32 C 0.9934 0.4553 0.93507 0.0
H33 H 0.94563 0.42043 0.99863 0.0
H34 H 0.01479 0.47574 0.92611 0.0
H35 H 0.04883 0.55897 0.98347 0.0
H36 H 0.9997 0.4979 0.06341 0.0
C37 C 0.95609 0.44167 0.05276 0.0
C38 C 0.94079 0.49659 0.9672 0.0
C39 C 0.06513 0.48583 0.02305 0.0
C40 C 0.04837 0.53397 0.93244 0.0
H41 H 0.88776 0.46568 0.01209 0.0
H42 H 0.89644 0.43614 0.05959 0.0
H43 H 0.9829 0.41453 0.09051 0.0
H44 H 0.04382 0.43985 0.07417 0.0
H45 H 0.12021 0.51907 0.98114 0.0
H46 H 0.11103 0.54546 0.93073 0.0
H47 H 0.02063 0.55913 0.89285 0.0
H48 H 0.96186 0.5392 0.91291 0.0
H49 H 0.07798 0.60178 0.01645 0.0
H50 H 0.02952 0.53943 0.09781 0.0
H51 H 0.98653 0.4356 0.89004 0.0
H52 H 0.9155 0.38028 0.96334 0.0
C53 C 0.50865 0.01019 0.57111 0.0
C54 C 0.4997 0.00136 0.60272 0.0
C55 C 0.47266 0.97225 0.6039 0.0
C56 C 0.46521 0.9658 0.57308 0.0
N57 N 0.48539 0.98941 0.55243 0.0
Co58 Co 0.47535 0.99578 0.50808 0.0
N59 N 0.43525 0.95309 0.50919 0.0
C60 C 0.42399 0.93153 0.5336 0.0
C61 C 0.39772 0.90337 0.52674 0.0
C62 C 0.39201 0.90698 0.49596 0.0
C63 C 0.41499 0.93745 0.48587 0.0
N64 N 0.46499 0.00266 0.46407 0.0
C65 C 0.44101 0.98298 0.44547 0.0
C66 C 0.44243 0.99748 0.41648 0.0
C67 C 0.46863 0.02707 0.41648 0.0
C68 C 0.48151 0.02906 0.44541 0.0
N69 N 0.51601 0.0381 0.50671 0.0
C70 C 0.52644 0.06039 0.48306 0.0
C71 C 0.55103 0.08901 0.49118 0.0
C72 C 0.55725 0.08455 0.5215 0.0
C73 C 0.5372 0.05296 0.5297 0.0
N74 N 0.49846 0.97779 0.49123 0.0
C75 C 0.51405 0.94158 0.45754 0.0
C76 C 0.52318 0.97145 0.44592 0.0
C77 C 0.51548 0.98922 0.46323 0.0
C78 C 0.50054 0.93198 0.48811 0.0
C79 C 0.49351 0.95063 0.50467 0.0
N80 N 0.45141 0.01353 0.52507 0.0
C81 C 0.44729 0.058 0.53168 0.0
C82 C 0.42586 0.04271 0.55725 0.0
C83 C 0.41507 0.0116 0.56445 0.0
C84 C 0.42766 0.99746 0.54786 0.0
C85 C 0.45931 0.04297 0.51583 0.0
H86 H 0.41805 0.97369 0.55443 0.0
H87 H 0.47543 0.05606 0.49668 0.0
H88 H 0.52198 0.01146 0.45295 0.0
H89 H 0.48232 0.94188 0.52756 0.0
C90 C 0.4381 0.9389 0.56294 0.0
C91 C 0.53936 0.03776 0.55912 0.0
C92 C 0.41687 0.95033 0.45387 0.0
C93 C 0.50983 0.05484 0.45519 0.0
H94 H 0.51026 0.01497 0.62303 0.0
H95 H 0.45907 0.95822 0.62474 0.0
H96 H 0.38441 0.88263 0.54223 0.0
H97 H 0.37314 0.88905 0.4825 0.0
H98 H 0.42642 0.9876 0.39714 0.0
H99 H 0.47751 0.04485 0.39746 0.0
H100 H 0.5621 0.11081 0.47724 0.0
H101 H 0.57462 0.10269 0.5359 0.0
H102 H 0.53517 0.98064 0.42306 0.0
H103 H 0.49359 0.9094 0.49858 0.0
H104 H 0.45603 0.08201 0.52476 0.0
H105 H 0.39746 0.99836 0.58329 0.0
C106 C 0.5449 0.54367 0.95668 0.0
C107 C 0.55146 0.56357 0.9304 0.0
C108 C 0.52457 0.56382 0.92538 0.0
C109 C 0.50329 0.54424 0.94888 0.0
N110 N 0.51524 0.53215 0.96914 0.0
Co111 Co 0.49189 0.50082 0.00522 0.0
N112 N 0.45083 0.49745 0.99512 0.0
C113 C 0.4461 0.51297 0.97138 0.0
C114 C 0.41609 0.50772 0.9718 0.0
C115 C 0.40091 0.48823 0.99774 0.0
C116 C 0.42259 0.48254 0.01164 0.0
N117 N 0.46855 0.46915 0.041 0.0
C118 C 0.4384 0.45638 0.05258 0.0
C119 C 0.43163 0.43578 0.07828 0.0
C120 C 0.45884 0.43624 0.08374 0.0
C121 C 0.48049 0.45689 0.06104 0.0
N122 N 0.53308 0.50447 0.01548 0.0
C123 C 0.53812 0.4899 0.03996 0.0
C124 C 0.56811 0.49512 0.03962 0.0
C125 C 0.58294 0.51354 0.01299 0.0
C126 C 0.56109 0.5187 0.99858 0.0
N127 N 0.50177 0.53442 0.03395 0.0
C128 C 0.50417 0.57528 0.07809 0.0
C129 C 0.51136 0.55307 0.08669 0.0
C130 C 0.51017 0.53318 0.06444 0.0
C131 C 0.49769 0.57785 0.04648 0.0
C132 C 0.49698 0.55763 0.02498 0.0
N133 N 0.48152 0.46705 0.97674 0.0
C134 C 0.48121 0.42109 0.96501 0.0
C135 C 0.46863 0.4202 0.9354 0.0
C136 C 0.46232 0.44306 0.92704 0.0
C137 C 0.469 0.4661 0.9478 0.0
C138 C 0.48727 0.44439 0.98515 0.0
H139 H 0.46402 0.483 0.93979 0.0
H140 H 0.49698 0.44377 0.00726 0.0
H141 H 0.51537 0.51649 0.07269 0.0
H142 H 0.49152 0.56067 0.00145 0.0
C143 C 0.47114 0.53442 0.95077 0.0
C144 C 0.56678 0.53476 0.96754 0.0
C145 C 0.41637 0.46504 0.04182 0.0
C146 C 0.51291 0.46773 0.05996 0.0
H147 H 0.57304 0.57567 0.91571 0.0
H148 H 0.52052 0.5757 0.90606 0.0
H149 H 0.40683 0.51798 0.95597 0.0
H150 H 0.37701 0.48019 0.00602 0.0
H151 H 0.40967 0.42276 0.09235 0.0
H152 H 0.46281 0.42409 0.10284 0.0
H153 H 0.5774 0.48507 0.05569 0.0
H154 H 0.6066 0.52091 0.00457 0.0
H155 H 0.51765 0.55079 0.1106 0.0
H156 H 0.49212 0.59472 0.03841 0.0
H157 H 0.48702 0.40425 0.9725 0.0
H158 H 0.45214 0.44321 0.90457 0.0
C159 C 0.93488 0.45436 0.50798 0.0
C160 C 0.90597 0.43995 0.49289 0.0
C161 C 0.90997 0.4588 0.46713 0.0
C162 C 0.94088 0.48361 0.468 0.0
N163 N 0.95714 0.48142 0.49239 0.0
Co164 Co 0.00173 0.51363 0.50434 0.0
N165 N 0.00616 0.54301 0.46893 0.0
C166 C 0.9836 0.53912 0.44859 0.0
C167 C 0.99477 0.5624 0.42526 0.0
C168 C 0.02658 0.58174 0.43044 0.0
C169 C 0.03288 0.56899 0.45666 0.0
N170 N 0.04648 0.54581 0.51595 0.0
C171 C 0.06933 0.57133 0.49873 0.0
C172 C 0.09844 0.58584 0.51336 0.0
C173 C 0.09403 0.56837 0.54046 0.0
C174 C 0.06267 0.54423 0.54072 0.0
N175 N 0.9974 0.48434 0.53982 0.0
C176 C 0.01968 0.48909 0.56097 0.0
C177 C 0.00911 0.46525 0.58353 0.0
C178 C 0.97799 0.44442 0.57689 0.0
C179 C 0.97134 0.45694 0.55066 0.0
N180 N 0.01921 0.49628 0.47583 0.0
C181 C 0.05021 0.47989 0.43268 0.0
C182 C 0.05959 0.48543 0.46397 0.0
C183 C 0.04364 0.49306 0.48501 0.0
C184 C 0.02388 0.4812 0.42394 0.0
C185 C 0.00897 0.48949 0.44563 0.0
N186 N 0.98404 0.53086 0.5331 0.0
C187 C 0.97893 0.54458 0.58563 0.0
C188 C 0.95099 0.54337 0.57806 0.0
C189 C 0.94137 0.53807 0.54682 0.0
C190 C 0.95836 0.53242 0.52487 0.0
C191 C 0.99488 0.53832 0.56305 0.0
H192 H 0.94951 0.52831 0.50166 0.0
H193 H 0.01539 0.53877 0.57076 0.0
H194 H 0.05217 0.4972 0.50837 0.0
H195 H 0.9897 0.49098 0.43722 0.0
C196 C 0.954 0.51097 0.44876 0.0
C197 C 0.93934 0.44323 0.53854 0.0
C198 C 0.06502 0.58028 0.46702 0.0
C199 C 0.0493 0.5173 0.56066 0.0
H200 H 0.8838 0.41877 0.50038 0.0
H201 H 0.89195 0.45565 0.45077 0.0
H202 H 0.98189 0.56389 0.4055 0.0
H203 H 0.04359 0.60191 0.41561 0.0
H204 H 0.12093 0.60593 0.50458 0.0
H205 H 0.11213 0.57159 0.55674 0.0
H206 H 0.02206 0.46382 0.60326 0.0
H207 H 0.96163 0.42305 0.59053 0.0
H208 H 0.0799 0.485 0.47215 0.0
H209 H 0.01494 0.47628 0.40031 0.0
H210 H 0.98828 0.54978 0.60909 0.0
H211 H 0.92004 0.53699 0.53941 0.0
C212 C 0.46261 0.97694 0.05363 0.0
C213 C 0.45239 0.98377 0.08064 0.0
C214 C 0.47407 0.01444 0.08528 0.0
C215 C 0.49608 0.02455 0.06085 0.0
N216 N 0.48916 0.00241 0.04033 0.0
Co217 Co 0.51581 0.00589 0.00306 0.0
N218 N 0.55077 0.04909 0.01303 0.0
C219 C 0.55183 0.06505 0.03802 0.0
C220 C 0.57727 0.09537 0.03652 0.0
C221 C 0.59276 0.09927 0.00845 0.0
C222 C 0.57588 0.07094 0.9945 0.0
N223 N 0.54234 0.0094 0.96572 0.0
C224 C 0.56882 0.03493 0.95255 0.0
C225 C 0.57899 0.02841 0.9253 0.0
C226 C 0.55728 0.9978 0.92038 0.0
C227 C 0.53531 0.98751 0.94487 0.0
N228 N 0.48094 0.9626 0.99323 0.0
C229 C 0.48012 0.94654 0.96842 0.0
C230 C 0.45466 0.91625 0.96979 0.0
C231 C 0.43882 0.91244 0.99757 0.0
C232 C 0.4555 0.94081 0.01153 0.0
N233 N 0.49683 0.02417 0.97597 0.0
C234 C 0.49042 0.06318 0.93186 0.0
C235 C 0.4865 0.03532 0.923 0.0
C236 C 0.4894 0.0161 0.94539 0.0
C237 C 0.49331 0.06882 0.96397 0.0
C238 C 0.4961 0.049 0.98548 0.0
N239 N 0.53529 0.98798 0.02992 0.0
C240 C 0.55015 0.95043 0.03847 0.0
C241 C 0.55592 0.9572 0.0702 0.0
C242 C 0.55267 0.98082 0.08092 0.0
C243 C 0.54283 0.99602 0.06048 0.0
C244 C 0.53978 0.96579 0.01903 0.0
H245 H 0.54066 0.01361 0.07021 0.0
H246 H 0.53487 0.95873 0.99548 0.0
H247 H 0.48746 0.99583 0.93705 0.0
H248 H 0.49942 0.05525 0.00937 0.0
C249 C 0.52568 0.05288 0.05914 0.0
C250 C 0.44841 0.94538 0.04342 0.0
C251 C 0.58203 0.06642 0.96232 0.0
C252 C 0.50599 0.95896 0.9469 0.0
H253 H 0.43234 0.96776 0.09626 0.0
H254 H 0.47485 0.02725 0.10522 0.0
H255 H 0.58248 0.11319 0.05267 0.0
H256 H 0.61304 0.12096 0.99867 0.0
H257 H 0.59883 0.04468 0.90958 0.0
H258 H 0.55645 0.98518 0.90025 0.0
H259 H 0.44949 0.89846 0.95361 0.0
H260 H 0.41832 0.89078 0.0071 0.0
H261 H 0.48345 0.02931 0.89858 0.0
H262 H 0.49459 0.08909 0.97245 0.0
H263 H 0.55312 0.93297 0.02863 0.0
H264 H 0.55661 0.98696 0.10529 0.0
C265 C 0.53374 0.57065 0.49201 0.0
C266 C 0.52592 0.58943 0.50674 0.0
C267 C 0.50279 0.57089 0.52913 0.0
C268 C 0.49766 0.54192 0.52672 0.0
N269 N 0.51674 0.54102 0.50469 0.0
Co270 Co 0.51443 0.50302 0.49063 0.0
N271 N 0.47942 0.47546 0.52246 0.0
C272 C 0.46495 0.48384 0.54293 0.0
C273 C 0.44461 0.46034 0.5644 0.0
C274 C 0.44736 0.43592 0.55811 0.0
C275 C 0.46923 0.44608 0.53309 0.0
N276 N 0.51137 0.46481 0.47621 0.0
C277 C 0.49796 0.43643 0.49151 0.0
C278 C 0.50378 0.417 0.47529 0.0
C279 C 0.52225 0.43406 0.44928 0.0
C280 C 0.52683 0.4629 0.45114 0.0
N281 N 0.55047 0.53047 0.45984 0.0
C282 C 0.5645 0.52154 0.43945 0.0
C283 C 0.58835 0.5457 0.42089 0.0
C284 C 0.5891 0.57146 0.42952 0.0
C285 C 0.56541 0.56139 0.45276 0.0
N286 N 0.54541 0.50745 0.5223 0.0
C287 C 0.58118 0.50201 0.57023 0.0
C288 C 0.58577 0.49788 0.5388 0.0
C289 C 0.56782 0.50077 0.51537 0.0
C290 C 0.56013 0.5113 0.57676 0.0
C291 C 0.54286 0.51417 0.55256 0.0
N292 N 0.48317 0.49882 0.45868 0.0
C293 C 0.47159 0.50463 0.40431 0.0
C294 C 0.44522 0.50549 0.41373 0.0
C295 C 0.43691 0.50065 0.44585 0.0
C296 C 0.45591 0.49731 0.46763 0.0
C297 C 0.4898 0.50088 0.42694 0.0
H298 H 0.44825 0.49425 0.49158 0.0
H299 H 0.50961 0.5006 0.4181 0.0
H300 H 0.57163 0.49641 0.49198 0.0
H301 H 0.52655 0.5205 0.55909 0.0
C302 C 0.47414 0.51492 0.54375 0.0
C303 C 0.55522 0.58114 0.46431 0.0
C304 C 0.48303 0.42886 0.52304 0.0
C305 C 0.5518 0.48996 0.43548 0.0
H306 H 0.53507 0.61374 0.50124 0.0
H307 H 0.49037 0.5775 0.54452 0.0
H308 H 0.4312 0.46153 0.58373 0.0
H309 H 0.43626 0.41386 0.5716 0.0
H310 H 0.49728 0.39369 0.48231 0.0
H311 H 0.53368 0.42721 0.43286 0.0
H312 H 0.60226 0.54447 0.4021 0.0
H313 H 0.6041 0.59475 0.41877 0.0
H314 H 0.60271 0.4919 0.53225 0.0
H315 H 0.55564 0.51487 0.60064 0.0
H316 H 0.47884 0.50779 0.37966 0.0
H317 H 0.4159 0.49971 0.45435 0.0
C318 C 0.29132 0.51368 0.26712 0.0
C319 C 0.21811 0.51123 0.18873 0.0
O320 O 0.26733 0.48627 0.26277 0.0
Zn321 Zn 0.22655 0.4641 0.234 0.0
O322 O 0.29424 0.53693 0.25145 0.0
Zn323 Zn 0.25541 0.51384 0.2278 0.0
O324 O 0.21801 0.49553 0.26364 0.0
O325 O 0.19136 0.44418 0.26463 0.0
O326 O 0.24342 0.53536 0.19766 0.0
O327 O 0.20999 0.48431 0.20048 0.0
O328 O 0.23593 0.43916 0.20845 0.0
O329 O 0.26757 0.48967 0.19712 0.0
C330 C 0.19526 0.46887 0.27512 0.0
C331 C 0.25883 0.4617 0.19205 0.0
C332 C 0.77086 0.27887 0.68973 0.0
C333 C 0.6975 0.20648 0.77351 0.0
O334 O 0.74692 0.27803 0.70147 0.0
Zn335 Zn 0.73252 0.24214 0.73061 0.0
O336 O 0.77639 0.25799 0.69856 0.0
Zn337 Zn 0.75678 0.2181 0.73051 0.0
O338 O 0.74189 0.18342 0.70301 0.0
O339 O 0.71287 0.20396 0.70027 0.0
O340 O 0.71795 0.20036 0.7643 0.0
O341 O 0.69743 0.2293 0.76038 0.0
O342 O 0.77155 0.25864 0.76213 0.0
O343 O 0.79295 0.23081 0.75773 0.0
C344 C 0.71829 0.18347 0.69174 0.0
C345 C 0.79254 0.2527 0.77033 0.0
C346 C 0.52254 0.79213 0.31608 0.0
C347 C 0.51653 0.72077 0.23885 0.0
O348 O 0.54991 0.7987 0.30601 0.0
Zn349 Zn 0.56922 0.78102 0.27401 0.0
O350 O 0.49732 0.7685 0.30623 0.0
Zn351 Zn 0.51821 0.75589 0.27775 0.0
O352 O 0.54002 0.74015 0.31011 0.0
O353 O 0.59224 0.76895 0.30152 0.0
O354 O 0.49324 0.72033 0.25173 0.0
O355 O 0.54509 0.74197 0.24541 0.0
O356 O 0.59217 0.81565 0.24282 0.0
O357 O 0.54008 0.79461 0.24404 0.0
C358 C 0.568 0.74674 0.31683 0.0
C359 C 0.56799 0.81543 0.23292 0.0
C360 C 0.77635 0.49257 0.82831 0.0
C361 C 0.70692 0.487 0.74502 0.0
O362 O 0.75181 0.46821 0.81871 0.0
Zn363 Zn 0.73962 0.48896 0.78831 0.0
O364 O 0.7837 0.51943 0.81712 0.0
Zn365 Zn 0.76635 0.53855 0.78318 0.0
O366 O 0.75233 0.56079 0.80749 0.0
O367 O 0.72247 0.51007 0.81755 0.0
O368 O 0.72902 0.51492 0.75063 0.0
O369 O 0.7034 0.46423 0.76211 0.0
O370 O 0.77916 0.51016 0.75406 0.0
O371 O 0.80317 0.56127 0.75445 0.0
C372 C 0.72899 0.53739 0.82251 0.0
C373 C 0.80128 0.53758 0.74354 0.0
C374 C 0.3036 0.78703 0.21283 0.0
C375 C 0.22603 0.71347 0.2946 0.0
O376 O 0.28164 0.7918 0.21964 0.0
Zn377 Zn 0.24009 0.77221 0.24912 0.0
O378 O 0.3032 0.76409 0.22629 0.0
Zn379 Zn 0.26525 0.74887 0.25372 0.0
O380 O 0.22712 0.72934 0.22151 0.0
O381 O 0.20592 0.75761 0.21897 0.0
O382 O 0.25041 0.71396 0.28458 0.0
O383 O 0.22032 0.73359 0.28324 0.0
O384 O 0.25151 0.80691 0.27531 0.0
O385 O 0.27963 0.78583 0.28465 0.0
C386 C 0.20638 0.73438 0.2103 0.0
C387 C 0.27289 0.80599 0.29073 0.0
C388 C 0.45009 0.26709 0.78167 0.0
C389 C 0.43648 0.19604 0.7012 0.0
O390 O 0.47669 0.27292 0.77004 0.0
Zn391 Zn 0.49296 0.25515 0.73489 0.0
O392 O 0.42397 0.24472 0.77174 0.0
Zn393 Zn 0.44234 0.23124 0.74157 0.0
O394 O 0.46494 0.21404 0.77129 0.0
O395 O 0.51653 0.24121 0.75918 0.0
O396 O 0.41453 0.1957 0.71686 0.0
O397 O 0.46571 0.21681 0.70603 0.0
O398 O 0.51488 0.28994 0.70352 0.0
O399 O 0.46299 0.26943 0.70701 0.0
C400 C 0.49292 0.21944 0.77558 0.0
C401 C 0.49047 0.28982 0.69461 0.0
C402 C 0.11404 0.48782 0.0404 0.0
C403 C 0.09254 0.49706 0.04404 0.0
C404 C 0.13748 0.49497 0.06272 0.0
C405 C 0.13904 0.51141 0.08938 0.0
C406 C 0.1183 0.52215 0.09217 0.0
C407 C 0.09517 0.51471 0.06945 0.0
C408 C 0.15927 0.4833 0.05875 0.0
C409 C 0.11907 0.53972 0.12011 0.0
C410 C 0.16583 0.48854 0.1631 0.0
C411 C 0.19772 0.51329 0.16475 0.0
C412 C 0.14631 0.48832 0.13932 0.0
C413 C 0.15905 0.51329 0.11624 0.0
C414 C 0.19097 0.53884 0.1182 0.0
C415 C 0.20994 0.53865 0.14265 0.0
C416 C 0.11223 0.46086 0.13847 0.0
C417 C 0.20535 0.56579 0.09393 0.0
H418 H 0.11168 0.47397 0.02078 0.0
H419 H 0.07834 0.52172 0.0721 0.0
H420 H 0.18437 0.50208 0.06261 0.0
H421 H 0.15262 0.46408 0.07663 0.0
H422 H 0.15781 0.4745 0.03496 0.0
H423 H 0.10521 0.55074 0.11616 0.0
H424 H 0.10869 0.52341 0.14123 0.0
H425 H 0.14395 0.55804 0.12538 0.0
H426 H 0.1561 0.46904 0.18035 0.0
H427 H 0.2346 0.5578 0.1438 0.0
H428 H 0.10885 0.44828 0.11675 0.0
H429 H 0.09562 0.46899 0.13779 0.0
H430 H 0.1055 0.4442 0.15918 0.0
H431 H 0.20666 0.55759 0.07058 0.0
H432 H 0.22972 0.58482 0.09997 0.0
H433 H 0.19002 0.57531 0.09155 0.0
C434 C 0.57359 0.04236 0.60721 0.0
C435 C 0.57125 0.05102 0.57579 0.0
C436 C 0.60055 0.06145 0.62497 0.0
C437 C 0.62719 0.08845 0.61033 0.0
C438 C 0.62799 0.09309 0.57722 0.0
C439 C 0.60047 0.07359 0.56028 0.0
C440 C 0.5998 0.05368 0.65981 0.0
C441 C 0.65714 0.11983 0.55997 0.0
C442 C 0.66943 0.15954 0.65938 0.0
C443 C 0.69624 0.15969 0.66972 0.0
C444 C 0.64731 0.13677 0.63979 0.0
C445 C 0.65197 0.11341 0.62988 0.0
C446 C 0.67938 0.11376 0.63954 0.0
C447 C 0.70105 0.13675 0.65954 0.0
C448 C 0.61849 0.13738 0.63015 0.0
C449 C 0.68568 0.08955 0.6297 0.0
H450 H 0.55504 0.02088 0.61856 0.0
H451 H 0.60191 0.07703 0.5349 0.0
H452 H 0.62106 0.05301 0.66581 0.0
H453 H 0.60066 0.07211 0.67343 0.0
H454 H 0.57802 0.03097 0.66746 0.0
H455 H 0.65563 0.11799 0.53399 0.0
H456 H 0.65975 0.14203 0.56568 0.0
H457 H 0.67893 0.1209 0.56776 0.0
H458 H 0.66535 0.17707 0.66698 0.0
H459 H 0.72162 0.13655 0.66736 0.0
H460 H 0.59637 0.11549 0.6389 0.0
H461 H 0.61767 0.13883 0.60405 0.0
H462 H 0.61852 0.15733 0.63948 0.0
H463 H 0.67465 0.06976 0.64759 0.0
H464 H 0.71168 0.09914 0.62845 0.0
H465 H 0.67549 0.08044 0.60654 0.0
C466 C 0.51425 0.62659 0.09399 0.0
C467 C 0.50311 0.59531 0.10189 0.0
C468 C 0.51365 0.64573 0.11628 0.0
C469 C 0.50205 0.63352 0.14743 0.0
C470 C 0.49027 0.60186 0.15546 0.0
C471 C 0.49077 0.58312 0.13259 0.0
C472 C 0.52621 0.6793 0.10666 0.0
C473 C 0.47791 0.58797 0.18846 0.0
C474 C 0.53633 0.69249 0.21056 0.0
C475 C 0.51154 0.69711 0.21659 0.0
C476 C 0.53314 0.6713 0.18877 0.0
C477 C 0.50459 0.65453 0.17209 0.0
C478 C 0.47923 0.65869 0.17832 0.0
C479 C 0.4829 0.67977 0.20074 0.0
C480 C 0.56057 0.66721 0.18329 0.0
C481 C 0.44857 0.64147 0.16074 0.0
H482 H 0.52414 0.6364 0.07051 0.0
H483 H 0.48143 0.55883 0.1388 0.0
H484 H 0.50846 0.68504 0.11306 0.0
H485 H 0.54819 0.69478 0.11955 0.0
H486 H 0.53188 0.68452 0.08095 0.0
H487 H 0.46786 0.56256 0.19044 0.0
H488 H 0.49759 0.59956 0.2052 0.0
H489 H 0.45918 0.59203 0.1959 0.0
H490 H 0.55843 0.70552 0.22297 0.0
H491 H 0.46369 0.68328 0.20523 0.0
H492 H 0.56982 0.67466 0.15858 0.0
H493 H 0.55227 0.64229 0.18683 0.0
H494 H 0.58052 0.68087 0.1993 0.0
H495 H 0.4536 0.64822 0.13518 0.0
H496 H 0.43071 0.64641 0.1691 0.0
H497 H 0.43802 0.61603 0.16346 0.0
C498 C 0.91407 0.55991 0.59541 0.0
C499 C 0.93131 0.54609 0.60278 0.0
C500 C 0.89367 0.56043 0.61792 0.0
C501 C 0.89085 0.54742 0.64884 0.0
C502 C 0.90893 0.53437 0.65678 0.0
C503 C 0.92859 0.53354 0.63364 0.0
C504 C 0.87441 0.57411 0.60835 0.0
C505 C 0.9069 0.52051 0.68955 0.0
C506 C 0.85477 0.56799 0.7151 0.0
C507 C 0.82404 0.54104 0.71863 0.0
C508 C 0.87682 0.57049 0.69246 0.0
C509 C 0.86764 0.54575 0.67241 0.0
C510 C 0.83633 0.51887 0.67536 0.0
C511 C 0.81508 0.51671 0.69862 0.0
C512 C 0.91018 0.59922 0.69053 0.0
C513 C 0.82528 0.49224 0.65405 0.0
H514 H 0.91629 0.57018 0.5719 0.0
H515 H 0.94114 0.5222 0.63964 0.0
H516 H 0.84858 0.55581 0.61071 0.0
H517 H 0.879 0.59263 0.62421 0.0
H518 H 0.87994 0.58408 0.58365 0.0
H519 H 0.92463 0.5139 0.69274 0.0
H520 H 0.91082 0.5373 0.70742 0.0
H521 H 0.8827 0.49943 0.69425 0.0
H522 H 0.86186 0.58678 0.73062 0.0
H523 H 0.79125 0.49592 0.70102 0.0
H524 H 0.9158 0.61032 0.66633 0.0
H525 H 0.92767 0.59265 0.69558 0.0
H526 H 0.91344 0.61659 0.70742 0.0
H527 H 0.82897 0.5009 0.62898 0.0
H528 H 0.79969 0.47371 0.6583 0.0
H529 H 0.83963 0.48178 0.6578 0.0
C530 C 0.39648 0.89822 0.06338 0.0
C531 C 0.42935 0.91856 0.06656 0.0
C532 C 0.37791 0.87459 0.08668 0.0
C533 C 0.39252 0.87175 0.11413 0.0
C534 C 0.42596 0.89181 0.11696 0.0
C535 C 0.44398 0.91496 0.09307 0.0
C536 C 0.34242 0.85354 0.08255 0.0
C537 C 0.44249 0.88995 0.14592 0.0
C538 C 0.33754 0.8399 0.18681 0.0
C539 C 0.329 0.80888 0.18955 0.0
C540 C 0.35921 0.86081 0.16321 0.0
C541 C 0.37225 0.85034 0.14122 0.0
C542 C 0.36446 0.81924 0.14436 0.0
C543 C 0.34312 0.79889 0.16877 0.0
C544 C 0.36738 0.89392 0.16128 0.0
C545 C 0.37761 0.80715 0.12117 0.0
H546 H 0.38518 0.90136 0.04305 0.0
H547 H 0.46946 0.93092 0.09548 0.0
H548 H 0.33453 0.82884 0.08726 0.0
H549 H 0.32954 0.85889 0.09979 0.0
H550 H 0.33537 0.85634 0.05845 0.0
H551 H 0.4689 0.90454 0.14281 0.0
H552 H 0.43546 0.89799 0.16632 0.0
H553 H 0.43509 0.86556 0.15184 0.0
H554 H 0.32695 0.84782 0.20306 0.0
H555 H 0.33644 0.77488 0.17073 0.0
H556 H 0.35813 0.89827 0.13926 0.0
H557 H 0.39364 0.91049 0.16046 0.0
H558 H 0.35713 0.89897 0.18159 0.0
H559 H 0.36824 0.80711 0.09747 0.0
H560 H 0.37107 0.78315 0.12806 0.0
H561 H 0.40398 0.82263 0.11909 0.0
C562 C 0.47417 0.37766 0.54354 0.0
C563 C 0.48767 0.40947 0.54693 0.0
C564 C 0.47762 0.35932 0.56681 0.0
C565 C 0.49399 0.37291 0.59464 0.0
C566 C 0.50761 0.40505 0.59817 0.0
C567 C 0.50436 0.4229 0.57422 0.0
C568 C 0.46297 0.32519 0.56203 0.0
C569 C 0.52464 0.42035 0.6277 0.0
C570 C 0.46809 0.31784 0.66741 0.0
C571 C 0.49292 0.31265 0.67001 0.0
C572 C 0.46862 0.33795 0.64349 0.0
C573 C 0.4944 0.35296 0.62115 0.0
C574 C 0.51993 0.34839 0.62396 0.0
C575 C 0.51898 0.32839 0.6485 0.0
C576 C 0.44136 0.34285 0.64197 0.0
C577 C 0.54765 0.36372 0.60041 0.0
H578 H 0.46019 0.36692 0.52309 0.0
H579 H 0.51424 0.44733 0.57712 0.0
H580 H 0.48085 0.31893 0.56612 0.0
H581 H 0.44295 0.311 0.57938 0.0
H582 H 0.45376 0.31887 0.53793 0.0
H583 H 0.5343 0.44568 0.62657 0.0
H584 H 0.50797 0.4093 0.64846 0.0
H585 H 0.54455 0.41694 0.63168 0.0
H586 H 0.44803 0.30608 0.68416 0.0
H587 H 0.53819 0.32441 0.65029 0.0
H588 H 0.42853 0.3341 0.61976 0.0
H589 H 0.45065 0.36805 0.64183 0.0
H590 H 0.424 0.33076 0.66212 0.0
H591 H 0.53953 0.35257 0.57759 0.0
H592 H 0.56766 0.36163 0.60837 0.0
H593 H 0.55662 0.38872 0.59604 0.0
C594 C 0.52392 0.89884 0.44996 0.0
C595 C 0.51643 0.91986 0.43721 0.0
C596 C 0.52421 0.87704 0.43124 0.0
C597 C 0.5172 0.87642 0.39888 0.0
C598 C 0.50986 0.89769 0.3858 0.0
C599 C 0.50938 0.91897 0.40511 0.0
C600 C 0.53198 0.85463 0.44611 0.0
C601 C 0.50247 0.89796 0.35135 0.0
C602 C 0.54843 0.84215 0.34318 0.0
C603 C 0.52089 0.813 0.33806 0.0
C604 C 0.54753 0.86287 0.36298 0.0
C605 C 0.51847 0.85419 0.37843 0.0
C606 C 0.49064 0.82463 0.37376 0.0
C607 C 0.49213 0.80445 0.35345 0.0
C608 C 0.57763 0.89431 0.36695 0.0
C609 C 0.45929 0.81442 0.3901 0.0
H610 H 0.52968 0.89947 0.47462 0.0
H611 H 0.50281 0.93455 0.39512 0.0
H612 H 0.51232 0.83032 0.44244 0.0
H613 H 0.55383 0.85826 0.43461 0.0
H614 H 0.53582 0.85739 0.47181 0.0
H615 H 0.49732 0.91605 0.3448 0.0
H616 H 0.52294 0.90226 0.33647 0.0
H617 H 0.48155 0.87494 0.34572 0.0
H618 H 0.57075 0.8491 0.33127 0.0
H619 H 0.47079 0.78196 0.3497 0.0
H620 H 0.58353 0.89739 0.39223 0.0
H621 H 0.5739 0.91301 0.35885 0.0
H622 H 0.59837 0.8974 0.3535 0.0
H623 H 0.46216 0.81559 0.416 0.0
H624 H 0.44011 0.79034 0.38483 0.0
H625 H 0.45162 0.8304 0.38267 0.0
C626 C 0.62456 0.55822 0.95226 0.0
C627 C 0.59224 0.53872 0.94553 0.0
C628 C 0.64845 0.5604 0.93251 0.0
C629 C 0.6398 0.54347 0.90483 0.0
C630 C 0.60718 0.52495 0.89719 0.0
C631 C 0.5838 0.5226 0.91779 0.0
C632 C 0.68281 0.57994 0.94184 0.0
C633 C 0.5969 0.50706 0.86761 0.0
C634 C 0.70298 0.56493 0.84033 0.0
C635 C 0.70844 0.54089 0.84492 0.0
C636 C 0.68087 0.56628 0.85975 0.0
C637 C 0.66453 0.54353 0.88484 0.0
C638 C 0.67097 0.51996 0.89027 0.0
C639 C 0.69247 0.51869 0.87001 0.0
C640 C 0.67414 0.59134 0.85272 0.0
C641 C 0.65472 0.4957 0.91717 0.0
H642 H 0.63106 0.57118 0.97341 0.0
H643 H 0.55877 0.50777 0.91247 0.0
H644 H 0.69224 0.56484 0.94606 0.0
H645 H 0.69761 0.59723 0.92246 0.0
H646 H 0.68567 0.59247 0.96351 0.0
H647 H 0.57097 0.4959 0.86376 0.0
H648 H 0.61042 0.52278 0.84676 0.0
H649 H 0.60228 0.48867 0.86915 0.0
H650 H 0.71503 0.58196 0.82077 0.0
H651 H 0.69676 0.50016 0.87378 0.0
H652 H 0.67766 0.60452 0.87398 0.0
H653 H 0.64884 0.5805 0.84627 0.0
H654 H 0.68963 0.60793 0.83311 0.0
H655 H 0.65798 0.5071 0.9397 0.0
H656 H 0.66407 0.48035 0.91958 0.0
H657 H 0.62871 0.48102 0.91339 0.0
C658 C 0.09432 0.58244 0.41831 0.0
C659 C 0.09232 0.59757 0.444 0.0
C660 C 0.11802 0.59896 0.39447 0.0
C661 C 0.14012 0.63137 0.39647 0.0
C662 C 0.13889 0.64641 0.42315 0.0
C663 C 0.11479 0.62933 0.44651 0.0
C664 C 0.11831 0.58206 0.36639 0.0
C665 C 0.16208 0.68085 0.42629 0.0
C666 C 0.21368 0.67609 0.34131 0.0
C667 C 0.20382 0.69023 0.31928 0.0
C668 C 0.19305 0.65631 0.36638 0.0
C669 C 0.16181 0.65028 0.36906 0.0
C670 C 0.15143 0.66353 0.34606 0.0
C671 C 0.17258 0.68344 0.32167 0.0
C672 C 0.20498 0.64271 0.39056 0.0
C673 C 0.11816 0.6573 0.34764 0.0
H674 H 0.07674 0.55781 0.41648 0.0
H675 H 0.11289 0.64097 0.46628 0.0
H676 H 0.11055 0.58962 0.34532 0.0
H677 H 0.14279 0.58784 0.36108 0.0
H678 H 0.10218 0.55643 0.37022 0.0
H679 H 0.1603 0.68824 0.44999 0.0
H680 H 0.18691 0.68722 0.42194 0.0
H681 H 0.15721 0.69409 0.40832 0.0
H682 H 0.23782 0.68133 0.33961 0.0
H683 H 0.16464 0.69398 0.30448 0.0
H684 H 0.18831 0.61708 0.39331 0.0
H685 H 0.20589 0.65213 0.41383 0.0
H686 H 0.22913 0.64809 0.38415 0.0
H687 H 0.10017 0.63188 0.34899 0.0
H688 H 0.11323 0.66796 0.32691 0.0
H689 H 0.11493 0.66678 0.36929 0.0
C690 C 0.47559 0.07831 0.88049 0.0
C691 C 0.49344 0.08704 0.90792 0.0
C692 C 0.47852 0.1008 0.85796 0.0
C693 C 0.49937 0.13285 0.86316 0.0
C694 C 0.51807 0.14183 0.89033 0.0
C695 C 0.5151 0.11888 0.91217 0.0
C696 C 0.45882 0.09026 0.82882 0.0
C697 C 0.54053 0.17569 0.89686 0.0
C698 C 0.52023 0.19268 0.79486 0.0
C699 C 0.4968 0.1995 0.79909 0.0
C700 C 0.52154 0.17106 0.81551 0.0
C701 C 0.49953 0.15678 0.84152 0.0
C702 C 0.47674 0.16468 0.84653 0.0
C703 C 0.47538 0.18556 0.82506 0.0
C704 C 0.54609 0.16316 0.80913 0.0
C705 C 0.45339 0.15071 0.87438 0.0
H706 H 0.45883 0.05388 0.87683 0.0
H707 H 0.52989 0.12598 0.93265 0.0
H708 H 0.44099 0.09686 0.82936 0.0
H709 H 0.47432 0.10203 0.80739 0.0
H710 H 0.446 0.06468 0.82682 0.0
H711 H 0.55438 0.17883 0.91839 0.0
H712 H 0.55751 0.18827 0.87659 0.0
H713 H 0.52675 0.1867 0.89988 0.0
H714 H 0.53675 0.20332 0.77473 0.0
H715 H 0.45739 0.19098 0.82858 0.0
H716 H 0.53493 0.13758 0.81074 0.0
H717 H 0.56463 0.1732 0.82715 0.0
H718 H 0.558 0.17247 0.78551 0.0
H719 H 0.43735 0.1252 0.87249 0.0
H720 H 0.43851 0.16074 0.87599 0.0
H721 H 0.46639 0.15457 0.89662 0.0
C722 C 0.41431 0.52956 0.39836 0.0
C723 C 0.42637 0.51135 0.39056 0.0
C724 C 0.39453 0.53349 0.37791 0.0
C725 C 0.38687 0.51921 0.3487 0.0
C726 C 0.40022 0.5021 0.33996 0.0
C727 C 0.41967 0.49824 0.36104 0.0
C728 C 0.38072 0.55183 0.38817 0.0
C729 C 0.39288 0.48675 0.30888 0.0
C730 C 0.30711 0.49409 0.31351 0.0
C731 C 0.31566 0.51724 0.28949 0.0
C732 C 0.32998 0.49499 0.33335 0.0
C733 C 0.3624 0.51942 0.32881 0.0
C734 C 0.37118 0.54329 0.30503 0.0
C735 C 0.3476 0.54206 0.28576 0.0
C736 C 0.31947 0.46938 0.35877 0.0
C737 C 0.40556 0.56949 0.29927 0.0
H738 H 0.42001 0.54048 0.42074 0.0
H739 H 0.42871 0.48404 0.3548 0.0
H740 H 0.38497 0.56968 0.36952 0.0
H741 H 0.35451 0.536 0.39191 0.0
H742 H 0.39103 0.56356 0.41038 0.0
H743 H 0.40773 0.47713 0.30415 0.0
H744 H 0.36739 0.46749 0.30898 0.0
H745 H 0.39684 0.50365 0.28923 0.0
H746 H 0.28241 0.47497 0.31664 0.0
H747 H 0.35435 0.55985 0.26705 0.0
H748 H 0.32744 0.4795 0.38208 0.0
H749 H 0.33067 0.45614 0.35418 0.0
H750 H 0.29316 0.45287 0.36011 0.0
H751 H 0.41589 0.58122 0.32143 0.0
H752 H 0.40826 0.5871 0.28103 0.0
H753 H 0.41971 0.55997 0.29146 0.0
C754 C 0.90981 0.34868 0.90961 0.0
C755 C 0.92809 0.3805 0.90016 0.0
C756 C 0.88889 0.32624 0.8889 0.0
C757 C 0.88646 0.33567 0.85773 0.0
C758 C 0.90575 0.36754 0.84761 0.0
C759 C 0.92606 0.38952 0.86895 0.0
C760 C 0.86853 0.29257 0.90076 0.0
C761 C 0.9041 0.37862 0.81452 0.0
C762 C 0.846 0.27555 0.79531 0.0
C763 C 0.81609 0.27198 0.79402 0.0
C764 C 0.86914 0.29597 0.81613 0.0
C765 C 0.86194 0.31272 0.83649 0.0
C766 C 0.83137 0.30834 0.83594 0.0
C767 C 0.80901 0.28829 0.81459 0.0
C768 C 0.90159 0.30035 0.81566 0.0
C769 C 0.82241 0.32525 0.85758 0.0
H770 H 0.91153 0.34124 0.9334 0.0
H771 H 0.93955 0.41398 0.86136 0.0
H772 H 0.84301 0.28486 0.90088 0.0
H773 H 0.87137 0.27763 0.88479 0.0
H774 H 0.87456 0.28873 0.92499 0.0
H775 H 0.92285 0.40356 0.80936 0.0
H776 H 0.90669 0.36461 0.79704 0.0
H777 H 0.88045 0.37544 0.81127 0.0
H778 H 0.8517 0.26317 0.77935 0.0
H779 H 0.78585 0.28547 0.81395 0.0
H780 H 0.90745 0.2959 0.83969 0.0
H781 H 0.92003 0.32482 0.80814 0.0
H782 H 0.90305 0.28473 0.79941 0.0
H783 H 0.82634 0.32088 0.88246 0.0
H784 H 0.79712 0.318 0.85543 0.0
H785 H 0.83785 0.3507 0.85205 0.0
C786 C 0.89501 0.50339 0.96049 0.0
C787 C 0.91233 0.491 0.95022 0.0
C788 C 0.86986 0.50051 0.94286 0.0
C789 C 0.86266 0.48571 0.9139 0.0
C790 C 0.87967 0.47246 0.90391 0.0
C791 C 0.90419 0.47509 0.92238 0.0
C792 C 0.85192 0.51446 0.95454 0.0
C793 C 0.87321 0.45706 0.87291 0.0
C794 C 0.78669 0.46434 0.87162 0.0
C795 C 0.79776 0.49046 0.85079 0.0
C796 C 0.80739 0.4626 0.8928 0.0
C797 C 0.83995 0.48717 0.89244 0.0
C798 C 0.85123 0.5134 0.87119 0.0
C799 C 0.82993 0.51487 0.85092 0.0
C800 C 0.79447 0.43461 0.91563 0.0
C801 C 0.88593 0.53979 0.86955 0.0
H802 H 0.90167 0.51596 0.98191 0.0
H803 H 0.91784 0.46564 0.91455 0.0
H804 H 0.85819 0.53531 0.93929 0.0
H805 H 0.82582 0.49761 0.9532 0.0
H806 H 0.85759 0.52149 0.97923 0.0
H807 H 0.88665 0.44567 0.8699 0.0
H808 H 0.84739 0.43936 0.87105 0.0
H809 H 0.88016 0.47476 0.85319 0.0
H810 H 0.7618 0.4455 0.87164 0.0
H811 H 0.83868 0.53496 0.8346 0.0
H812 H 0.79925 0.44219 0.94017 0.0
H813 H 0.80679 0.42235 0.91142 0.0
H814 H 0.76839 0.41791 0.91352 0.0
H815 H 0.89294 0.55063 0.8926 0.0
H816 H 0.89096 0.5581 0.85108 0.0
H817 H 0.90121 0.53074 0.86451 0.0
C818 C 0.40594 0.92395 0.403 0.0
C819 C 0.39437 0.93031 0.42969 0.0
C820 C 0.38514 0.90513 0.37994 0.0
C821 C 0.35189 0.89185 0.38405 0.0
C822 C 0.34016 0.89844 0.41095 0.0
C823 C 0.36162 0.91793 0.43327 0.0
C824 C 0.39872 0.8991 0.35141 0.0
C825 C 0.30488 0.88422 0.41658 0.0
C826 C 0.29965 0.85886 0.31267 0.0
C827 C 0.29037 0.82766 0.31576 0.0
C828 C 0.31947 0.8801 0.33491 0.0
C829 C 0.32937 0.86958 0.36117 0.0
C830 C 0.31875 0.83774 0.36502 0.0
C831 C 0.2998 0.81731 0.34206 0.0
C832 C 0.33084 0.91398 0.32964 0.0
C833 C 0.32799 0.82535 0.39307 0.0
H834 H 0.43134 0.9337 0.40027 0.0
H835 H 0.35282 0.92316 0.45385 0.0
H836 H 0.39014 0.87406 0.35158 0.0
H837 H 0.39036 0.90478 0.32951 0.0
H838 H 0.42523 0.91292 0.35065 0.0
H839 H 0.29972 0.89236 0.43821 0.0
H840 H 0.29482 0.88999 0.39615 0.0
H841 H 0.29235 0.85849 0.41892 0.0
H842 H 0.29261 0.86692 0.29219 0.0
H843 H 0.29241 0.7931 0.3446 0.0
H844 H 0.35717 0.92814 0.32608 0.0
H845 H 0.3251 0.92229 0.35072 0.0
H846 H 0.32 0.91822 0.30879 0.0
H847 H 0.35411 0.83567 0.39215 0.0
H848 H 0.31567 0.7996 0.39386 0.0
H849 H 0.3222 0.83209 0.41531 0.0
C850 C 0.4513 0.36543 0.9244 0.0
C851 C 0.46285 0.39609 0.9132 0.0
C852 C 0.44724 0.3429 0.90388 0.0
C853 C 0.45454 0.35108 0.8713 0.0
C854 C 0.46539 0.38171 0.85969 0.0
C855 C 0.46962 0.40388 0.88078 0.0
C856 C 0.43586 0.31053 0.91718 0.0
C857 C 0.47327 0.39131 0.82506 0.0
C858 C 0.47842 0.30663 0.82178 0.0
C859 C 0.45031 0.28709 0.80591 0.0
C860 C 0.47983 0.32699 0.84366 0.0
C861 C 0.45257 0.32817 0.84955 0.0
C862 C 0.42396 0.30821 0.83396 0.0
C863 C 0.42309 0.28771 0.81245 0.0
C864 C 0.51067 0.34759 0.86014 0.0
C865 C 0.39454 0.30909 0.83938 0.0
H866 H 0.44548 0.35902 0.9493 0.0
H867 H 0.47901 0.42757 0.8719 0.0
H868 H 0.4143 0.29303 0.90494 0.0
H869 H 0.45454 0.30546 0.91304 0.0
H870 H 0.43014 0.30759 0.94289 0.0
H871 H 0.47928 0.41536 0.81953 0.0
H872 H 0.49388 0.39002 0.81773 0.0
H873 H 0.45282 0.37511 0.81074 0.0
H874 H 0.49949 0.30612 0.81703 0.0
H875 H 0.40134 0.27276 0.80015 0.0
H876 H 0.50637 0.34424 0.88608 0.0
H877 H 0.52007 0.37239 0.8536 0.0
H878 H 0.52922 0.3428 0.85401 0.0
H879 H 0.38782 0.30516 0.86487 0.0
H880 H 0.37387 0.29134 0.82623 0.0
H881 H 0.39961 0.33243 0.83185 0.0
C882 C 0.08353 0.45845 0.4183 0.0
C883 C 0.06867 0.47428 0.40918 0.0
C884 C 0.10328 0.45551 0.39709 0.0
C885 C 0.10782 0.46809 0.36572 0.0
C886 C 0.09195 0.48298 0.35595 0.0
C887 C 0.07283 0.48611 0.3778 0.0
C888 C 0.12011 0.43983 0.40856 0.0
C889 C 0.0959 0.49647 0.32262 0.0
C890 C 0.18356 0.49258 0.31881 0.0
C891 C 0.1733 0.46741 0.29967 0.0
C892 C 0.16271 0.49266 0.34097 0.0
C893 C 0.13054 0.46725 0.34358 0.0
C894 C 0.12007 0.44161 0.3245 0.0
C895 C 0.1417 0.44183 0.30301 0.0
C896 C 0.17503 0.52015 0.36134 0.0
C897 C 0.0858 0.41443 0.32608 0.0
H898 H 0.08 0.44855 0.4422 0.0
H899 H 0.06193 0.49873 0.3704 0.0
H900 H 0.11458 0.42051 0.39344 0.0
H901 H 0.14631 0.45675 0.40682 0.0
H902 H 0.11331 0.43042 0.43338 0.0
H903 H 0.07964 0.50468 0.31799 0.0
H904 H 0.12081 0.51643 0.31825 0.0
H905 H 0.09125 0.47884 0.30549 0.0
H906 H 0.20803 0.51232 0.31647 0.0
H907 H 0.13359 0.42246 0.28805 0.0
H908 H 0.1701 0.51208 0.38661 0.0
H909 H 0.16248 0.53222 0.35605 0.0
H910 H 0.20108 0.53721 0.35763 0.0
H911 H 0.07879 0.40413 0.35056 0.0
H912 H 0.08163 0.39597 0.31025 0.0
H913 H 0.06994 0.42261 0.31931 0.0
C914 C 0.62838 0.11569 0.9371 0.0
C915 C 0.5959 0.09236 0.93779 0.0
C916 C 0.64235 0.13738 0.91125 0.0
C917 C 0.62346 0.13505 0.88528 0.0
C918 C 0.59028 0.11245 0.88672 0.0
C919 C 0.57694 0.09142 0.91304 0.0
C920 C 0.67776 0.16141 0.91078 0.0
C921 C 0.56926 0.10918 0.85965 0.0
C922 C 0.6622 0.19921 0.81984 0.0
C923 C 0.67524 0.18732 0.80011 0.0
C924 C 0.64432 0.18213 0.84734 0.0
C925 C 0.63929 0.15252 0.85494 0.0
C926 C 0.65091 0.1398 0.83409 0.0
C927 C 0.66889 0.15742 0.80711 0.0
C928 C 0.63228 0.19644 0.86899 0.0
C929 C 0.64521 0.10786 0.84074 0.0
H930 H 0.6431 0.11605 0.95604 0.0
H931 H 0.55191 0.07314 0.91359 0.0
H932 H 0.69005 0.1551 0.89385 0.0
H933 H 0.68274 0.18461 0.90275 0.0
H934 H 0.68806 0.16312 0.93434 0.0
H935 H 0.54395 0.09012 0.86441 0.0
H936 H 0.57039 0.13125 0.855 0.0
H937 H 0.57791 0.10448 0.83787 0.0
H938 H 0.66711 0.22236 0.81453 0.0
H939 H 0.6785 0.14792 0.79168 0.0
H940 H 0.64715 0.2041 0.89016 0.0
H941 H 0.60735 0.17919 0.87723 0.0
H942 H 0.63338 0.2169 0.85736 0.0
H943 H 0.65757 0.10778 0.86241 0.0
H944 H 0.65393 0.10053 0.82105 0.0
H945 H 0.61936 0.09033 0.84498 0.0
C946 C 0.57984 0.6384 0.45289 0.0
C947 C 0.56052 0.60782 0.44364 0.0
C948 C 0.58414 0.66347 0.43349 0.0
C949 C 0.56921 0.65766 0.404 0.0
C950 C 0.5504 0.62675 0.39428 0.0
C951 C 0.54615 0.60219 0.41434 0.0
C952 C 0.60394 0.69601 0.44485 0.0
C953 C 0.53428 0.61953 0.36295 0.0
C954 C 0.54743 0.71161 0.36532 0.0
C955 C 0.57112 0.72723 0.34141 0.0
C956 C 0.54751 0.69007 0.38684 0.0
C957 C 0.57152 0.68349 0.384 0.0
C958 C 0.59618 0.69998 0.36057 0.0
C959 C 0.59587 0.72196 0.33969 0.0
C960 C 0.52112 0.67344 0.41184 0.0
C961 C 0.62191 0.69324 0.35653 0.0
H962 H 0.5912 0.64259 0.47546 0.0
H963 H 0.53133 0.57842 0.40728 0.0
H964 H 0.62318 0.7115 0.4272 0.0
H965 H 0.58877 0.70558 0.44754 0.0
H966 H 0.6149 0.69671 0.4678 0.0
H967 H 0.52218 0.59451 0.35812 0.0
H968 H 0.51624 0.62588 0.3626 0.0
H969 H 0.55202 0.63358 0.34358 0.0
H970 H 0.52839 0.71585 0.36688 0.0
H971 H 0.61409 0.73385 0.32109 0.0
H972 H 0.53126 0.67468 0.43537 0.0
H973 H 0.50556 0.64847 0.4069 0.0
H974 H 0.50613 0.68339 0.41283 0.0
H975 H 0.63318 0.69439 0.37935 0.0
H976 H 0.64074 0.70975 0.33894 0.0
H977 H 0.61114 0.66926 0.34864 0.0
C978 C 0.41155 0.08216 0.56494 0.0
C979 C 0.41731 0.05998 0.57786 0.0
C980 C 0.40891 0.10225 0.58427 0.0
C981 C 0.41236 0.10021 0.61721 0.0
C982 C 0.41592 0.07643 0.63056 0.0
C983 C 0.41832 0.05659 0.61072 0.0
C984 C 0.40472 0.12705 0.56919 0.0
C985 C 0.41986 0.07353 0.66555 0.0
C986 C 0.45431 0.17455 0.66063 0.0
C987 C 0.4292 0.17232 0.67816 0.0
C988 C 0.44887 0.1516 0.6402 0.0
C989 C 0.41746 0.12567 0.63699 0.0
C990 C 0.39177 0.12362 0.6538 0.0
C991 C 0.39795 0.14701 0.67429 0.0
C992 C 0.477 0.15473 0.62273 0.0
C993 C 0.35796 0.09638 0.65075 0.0
H994 H 0.41023 0.08454 0.53959 0.0
H995 H 0.42305 0.03971 0.62088 0.0
H996 H 0.38675 0.12882 0.5827 0.0
H997 H 0.42764 0.14995 0.56937 0.0
H998 H 0.39725 0.12242 0.54437 0.0
H999 H 0.41812 0.05148 0.67263 0.0
H1000 H 0.44358 0.09327 0.67214 0.0
H1001 H 0.40155 0.07465 0.67918 0.0
H1002 H 0.47854 0.19409 0.66323 0.0
H1003 H 0.37841 0.14515 0.68769 0.0
H1004 H 0.4731 0.1537 0.59699 0.0
H1005 H 0.47947 0.13507 0.63015 0.0
H1006 H 0.49978 0.17685 0.62709 0.0
H1007 H 0.35186 0.09293 0.62553 0.0
H1008 H 0.3404 0.09955 0.66323 0.0
H1009 H 0.35567 0.07481 0.6607 0.0
C1010 C 0.35864 0.4403 0.05749 0.0
C1011 C 0.39089 0.46053 0.06393 0.0
C1012 C 0.33463 0.43713 0.07776 0.0
C1013 C 0.34323 0.45409 0.10541 0.0
C1014 C 0.37588 0.47363 0.11255 0.0
C1015 C 0.39932 0.47674 0.09158 0.0
C1016 C 0.30018 0.4165 0.06908 0.0
C1017 C 0.38611 0.49185 0.14193 0.0
C1018 C 0.29068 0.47789 0.14178 0.0
C1019 C 0.27671 0.45666 0.16791 0.0
C1020 C 0.31114 0.47629 0.12043 0.0
C1021 C 0.31844 0.45334 0.12575 0.0
C1022 C 0.30359 0.43116 0.15155 0.0
C1023 C 0.28254 0.43287 0.17219 0.0
C1024 C 0.32587 0.49995 0.09285 0.0
C1025 C 0.31119 0.40667 0.15827 0.0
H1026 H 0.35229 0.42747 0.03625 0.0
H1027 H 0.42437 0.49221 0.09654 0.0
H1028 H 0.28606 0.3994 0.08885 0.0
H1029 H 0.28989 0.43084 0.06472 0.0
H1030 H 0.2974 0.40369 0.04765 0.0
H1031 H 0.41225 0.50414 0.14517 0.0
H1032 H 0.37952 0.50938 0.14062 0.0
H1033 H 0.37354 0.47609 0.16303 0.0
H1034 H 0.28601 0.49618 0.13831 0.0
H1035 H 0.27197 0.41662 0.19256 0.0
H1036 H 0.32255 0.48813 0.07059 0.0
H1037 H 0.35192 0.51563 0.09593 0.0
H1038 H 0.31544 0.51437 0.09041 0.0
H1039 H 0.30822 0.39384 0.13686 0.0
H1040 H 0.29585 0.38972 0.17772 0.0
H1041 H 0.3365 0.41806 0.16488 0.0
C1042 C 0.90526 0.42946 0.58724 0.0
C1043 C 0.91137 0.42032 0.55894 0.0
C1044 C 0.88052 0.40772 0.60815 0.0
C1045 C 0.86132 0.37622 0.60029 0.0
C1046 C 0.86675 0.3672 0.5711 0.0
C1047 C 0.89205 0.38934 0.55095 0.0
C1048 C 0.87596 0.41821 0.63924 0.0
C1049 C 0.84656 0.33396 0.56168 0.0
C1050 C 0.82536 0.31263 0.6656 0.0
C1051 C 0.79361 0.30444 0.66726 0.0
C1052 C 0.84769 0.33646 0.64447 0.0
C1053 C 0.83792 0.3521 0.62389 0.0
C1054 C 0.80591 0.34408 0.62547 0.0
C1055 C 0.78414 0.32053 0.64749 0.0
C1056 C 0.88175 0.34475 0.64407 0.0
C1057 C 0.79456 0.35992 0.60349 0.0
H1058 H 0.92043 0.45352 0.5933 0.0
H1059 H 0.89713 0.38237 0.52915 0.0
H1060 H 0.8506 0.41027 0.64322 0.0
H1061 H 0.88236 0.40758 0.65875 0.0
H1062 H 0.89091 0.44392 0.64049 0.0
H1063 H 0.85148 0.33152 0.53682 0.0
H1064 H 0.85138 0.319 0.57719 0.0
H1065 H 0.82085 0.3251 0.5647 0.0
H1066 H 0.83291 0.30054 0.68116 0.0
H1067 H 0.75959 0.31419 0.64869 0.0
H1068 H 0.89834 0.36997 0.64734 0.0
H1069 H 0.88793 0.33993 0.62087 0.0
H1070 H 0.88582 0.33147 0.66277 0.0
H1071 H 0.80916 0.38544 0.60594 0.0
H1072 H 0.76908 0.35139 0.60807 0.0
H1073 H 0.79765 0.35581 0.5787 0.0
C1074 C 0.58387 0.95242 0.11742 0.0
C1075 C 0.56344 0.93862 0.09225 0.0
C1076 C 0.58857 0.93444 0.14 0.0
C1077 C 0.57293 0.90195 0.13706 0.0
C1078 C 0.5536 0.88814 0.11089 0.0
C1079 C 0.54882 0.90652 0.08905 0.0
C1080 C 0.60906 0.94997 0.16778 0.0
C1081 C 0.5367 0.85361 0.10673 0.0
C1082 C 0.59608 0.85352 0.1866 0.0
C1083 C 0.57127 0.83934 0.2095 0.0
C1084 C 0.59739 0.87448 0.16302 0.0
C1085 C 0.57374 0.88181 0.16295 0.0
C1086 C 0.54945 0.86847 0.18686 0.0
C1087 C 0.54835 0.84719 0.2096 0.0
C1088 C 0.6233 0.88785 0.13757 0.0
C1089 C 0.52413 0.8761 0.18805 0.0
H1090 H 0.59581 0.97725 0.11985 0.0
H1091 H 0.53256 0.89538 0.07011 0.0
H1092 H 0.59385 0.94181 0.18965 0.0
H1093 H 0.62684 0.94347 0.17084 0.0
H1094 H 0.62183 0.97573 0.16519 0.0
H1095 H 0.52579 0.84714 0.08328 0.0
H1096 H 0.55354 0.84589 0.10952 0.0
H1097 H 0.51753 0.84068 0.12518 0.0
H1098 H 0.61377 0.84739 0.18645 0.0
H1099 H 0.52936 0.8366 0.22756 0.0
H1100 H 0.6359 0.91358 0.13556 0.0
H1101 H 0.61248 0.87915 0.11449 0.0
H1102 H 0.64105 0.88146 0.14209 0.0
H1103 H 0.53539 0.90167 0.18757 0.0
H1104 H 0.50831 0.86548 0.20948 0.0
H1105 H 0.50917 0.86754 0.16701 0.0
C1106 C 0.60253 0.47137 0.59442 0.0
C1107 C 0.59745 0.49574 0.59603 0.0
C1108 C 0.61841 0.46559 0.61827 0.0
C1109 C 0.62862 0.48406 0.64479 0.0
C1110 C 0.62251 0.50788 0.64715 0.0
C1111 C 0.60741 0.51371 0.62258 0.0
C1112 C 0.62471 0.44012 0.61483 0.0
C1113 C 0.63279 0.52791 0.67525 0.0
C1114 C 0.65352 0.46139 0.72043 0.0
C1115 C 0.68665 0.48219 0.718 0.0
C1116 C 0.63407 0.46068 0.6961 0.0
C1117 C 0.64838 0.48073 0.66872 0.0
C1118 C 0.68201 0.50009 0.66542 0.0
C1119 C 0.7007 0.50089 0.69031 0.0
C1120 C 0.59827 0.43999 0.7005 0.0
C1121 C 0.69824 0.52108 0.63618 0.0
H1122 H 0.59401 0.45664 0.57455 0.0
H1123 H 0.60399 0.5328 0.62399 0.0
H1124 H 0.65036 0.44927 0.61798 0.0
H1125 H 0.61101 0.42135 0.6334 0.0
H1126 H 0.61785 0.42984 0.59145 0.0
H1127 H 0.62347 0.54332 0.67496 0.0
H1128 H 0.62443 0.5131 0.69749 0.0
H1129 H 0.65922 0.54268 0.67544 0.0
H1130 H 0.64277 0.44704 0.74199 0.0
H1131 H 0.72642 0.51668 0.68838 0.0
H1132 H 0.58757 0.42607 0.67959 0.0
H1133 H 0.58822 0.45461 0.70282 0.0
H1134 H 0.59097 0.42392 0.7218 0.0
H1135 H 0.68871 0.50772 0.61472 0.0
H1136 H 0.72451 0.53209 0.63595 0.0
H1137 H 0.69328 0.53977 0.63488 0.0
C1138 C 0.10964 0.62167 0.0733 0.0
C1139 C 0.07728 0.6001 0.08131 0.0
C1140 C 0.12962 0.64516 0.09345 0.0
C1141 C 0.11723 0.64689 0.12273 0.0
C1142 C 0.08453 0.62558 0.13083 0.0
C1143 C 0.06493 0.60263 0.10996 0.0
C1144 C 0.1643 0.66751 0.08381 0.0
C1145 C 0.07049 0.62636 0.16202 0.0
C1146 C 0.17714 0.68223 0.18751 0.0
C1147 C 0.18273 0.71219 0.18833 0.0
C1148 C 0.1554 0.66066 0.16679 0.0
C1149 C 0.1391 0.66932 0.14588 0.0
C1150 C 0.14444 0.69946 0.14664 0.0
C1151 C 0.166 0.72048 0.1681 0.0
C1152 C 0.15007 0.62862 0.16715 0.0
C1153 C 0.12788 0.70968 0.12434 0.0
H1154 H 0.11973 0.61972 0.0516 0.0
H1155 H 0.03991 0.5865 0.11624 0.0
H1156 H 0.17126 0.69186 0.08643 0.0
H1157 H 0.17949 0.66324 0.09947 0.0
H1158 H 0.16948 0.66507 0.05904 0.0
H1159 H 0.04431 0.60926 0.1641 0.0
H1160 H 0.08192 0.62115 0.18157 0.0
H1161 H 0.07537 0.64994 0.16515 0.0
H1162 H 0.18968 0.67546 0.20331 0.0
H1163 H 0.17027 0.74359 0.16857 0.0
H1164 H 0.15749 0.62492 0.14401 0.0
H1165 H 0.12432 0.61054 0.17102 0.0
H1166 H 0.16358 0.62511 0.18582 0.0
H1167 H 0.13462 0.70899 0.09962 0.0
H1168 H 0.13406 0.73361 0.12833 0.0
H1169 H 0.10164 0.69345 0.12707 0.0
loop_
_geom_bond_atom_site_label_1
_geom_bond_atom_site_label_2
_geom_bond_distance
_geom_bond_site_symmetry_2
_ccdc_geom_bond_type
C0 C1 1.443 . S
C0 N4 1.376 1_556 S
C0 C38 1.389 . S
C1 C0 1.443 . S
C1 C2 1.340 1_556 S
C1 H41 0.951 . S
C2 C1 1.340 1_554 S
C2 C3 1.439 . S
C2 H42 0.950 . S
C3 C2 1.439 . S
C3 N4 1.374 . S
C3 C37 1.395 . S
N4 C0 1.376 1_554 S
N4 C3 1.374 . S
N4 Co5 1.994 1_655 S
Co5 N4 1.994 1_455 S
Co5 N6 2.013 1_455 S
Co5 N11 2.023 1_554 S
Co5 N16 1.977 1_554 S
Co5 N21 2.296 . S
Co5 N27 2.269 1_454 S
N6 Co5 2.013 1_655 S
N6 C7 1.376 . S
N6 C10 1.383 1_655 S
C7 N6 1.376 . S
C7 C8 1.446 . S
C7 C37 1.391 . S
C8 C7 1.446 . S
C8 C9 1.339 . S
C8 H43 0.949 . S
C9 C8 1.339 . S
C9 C10 1.439 1_655 S
C9 H44 0.950 1_655 S
C10 N6 1.383 1_455 S
C10 C9 1.439 1_455 S
C10 C39 1.392 . S
N11 Co5 2.023 1_556 S
N11 C12 1.376 1_556 S
N11 C15 1.374 . S
C12 N11 1.376 1_554 S
C12 C13 1.443 . S
C12 C39 1.389 . S
C13 C12 1.443 . S
C13 C14 1.340 1_554 S
C13 H45 0.951 . S
C14 C13 1.340 1_556 S
C14 C15 1.439 . S
C14 H46 0.950 . S
C15 N11 1.374 . S
C15 C14 1.439 . S
C15 C40 1.395 . S
N16 Co5 1.977 1_556 S
N16 C17 1.376 . S
N16 C20 1.383 1_455 S
C17 N16 1.376 . S
C17 C18 1.446 . S
C17 C40 1.391 . S
C18 C17 1.446 . S
C18 C19 1.339 . S
C18 H47 0.949 . S
C19 C18 1.339 . S
C19 C20 1.439 1_455 S
C19 H48 0.950 1_455 S
C20 N16 1.383 1_655 S
C20 C19 1.439 1_655 S
C20 C38 1.392 . S
N21 Co5 2.296 . S
N21 C24 1.332 . S
N21 C26 1.332 . S
C22 C23 1.386 . S
C22 C25 1.388 . S
C23 C22 1.386 . S
C23 C24 1.382 . S
C23 H49 0.950 . S
C24 N21 1.332 . S
C24 C23 1.382 . S
C24 H35 0.952 . S
C25 C22 1.388 . S
C25 C26 1.382 . S
C25 H50 0.950 . S
C26 N21 1.332 . S
C26 C25 1.382 . S
C26 H36 0.948 1_455 S
N27 Co5 2.269 1_656 S
N27 C31 1.332 . S
N27 C32 1.332 . S
C28 C29 1.388 . S
C28 C32 1.382 . S
C28 H51 0.950 . S
C29 C28 1.388 . S
C29 C30 1.386 . S
C30 C29 1.386 . S
C30 C31 1.382 . S
C30 H52 0.950 . S
C31 N27 1.332 . S
C31 C30 1.382 . S
C31 H33 0.956 . S
C32 N27 1.332 . S
C32 C28 1.382 . S
C32 H34 0.948 1_655 S
H33 C31 0.956 . S
H34 C32 0.948 1_455 S
H35 C24 0.952 . S
H36 C26 0.948 1_655 S
C37 C3 1.395 . S
C37 C7 1.391 . S
C38 C0 1.389 . S
C38 C20 1.392 . S
C39 C10 1.392 . S
C39 C12 1.389 . S
C40 C15 1.395 . S
C40 C17 1.391 . S
H41 C1 0.951 . S
H42 C2 0.950 . S
H43 C8 0.949 . S
H44 C9 0.950 1_455 S
H45 C13 0.951 . S
H46 C14 0.950 . S
H47 C18 0.949 . S
H48 C19 0.950 1_655 S
H49 C23 0.950 . S
H50 C25 0.950 . S
H51 C28 0.950 . S
H52 C30 0.950 . S
C53 C54 1.439 1_545 S
C53 N57 1.376 1_545 S
C53 C91 1.389 . S
C54 C53 1.439 1_565 S
C54 C55 1.346 . S
C54 H94 0.950 1_565 S
C55 C54 1.346 . S
C55 C56 1.439 . S
C55 H95 0.950 . S
C56 C55 1.439 . S
C56 N57 1.374 . S
C56 C90 1.395 . S
N57 C53 1.376 1_565 S
N57 C56 1.374 . S
N57 Co58 1.997 1_565 S
Co58 N57 1.997 1_545 S
Co58 N59 1.977 1_545 S
Co58 N64 2.020 . S
Co58 N69 2.012 . S
Co58 N74 2.252 1_545 S
Co58 N80 2.313 . S
N59 Co58 1.977 1_565 S
N59 C60 1.376 . S
N59 C63 1.383 . S
C60 N59 1.376 . S
C60 C61 1.446 . S
C60 C90 1.391 . S
C61 C60 1.446 . S
C61 C62 1.339 . S
C61 H96 0.949 . S
C62 C61 1.339 . S
C62 C63 1.439 . S
C62 H97 0.950 . S
C63 N59 1.383 . S
C63 C62 1.439 . S
C63 C92 1.392 . S
N64 Co58 2.020 . S
N64 C65 1.376 1_545 S
N64 C68 1.374 . S
C65 N64 1.376 1_565 S
C65 C66 1.443 1_565 S
C65 C92 1.389 . S
C66 C65 1.443 1_545 S
C66 C67 1.340 . S
C66 H98 0.951 1_545 S
C67 C66 1.340 . S
C67 C68 1.439 . S
C67 H99 0.950 . S
C68 N64 1.374 . S
C68 C67 1.439 . S
C68 C93 1.395 . S
N69 Co58 2.012 . S
N69 C70 1.376 . S
N69 C73 1.383 . S
C70 N69 1.376 . S
C70 C71 1.446 . S
C70 C93 1.391 . S
C71 C70 1.446 . S
C71 C72 1.339 . S
C71 H100 0.949 . S
C72 C71 1.339 . S
C72 C73 1.439 . S
C72 H101 0.950 . S
C73 N69 1.383 . S
C73 C72 1.439 . S
C73 C91 1.392 . S
N74 Co58 2.252 1_565 S
N74 C77 1.332 . S
N74 C79 1.332 . S
C75 C76 1.386 . S
C75 C78 1.388 . S
C76 C75 1.386 . S
C76 C77 1.382 . S
C76 H102 0.950 . S
C77 N74 1.332 . S
C77 C76 1.382 . S
C77 H88 0.952 1_565 S
C78 C75 1.388 . S
C78 C79 1.382 . S
C78 H103 0.950 . S
C79 N74 1.332 . S
C79 C78 1.382 . S
C79 H89 0.948 . S
N80 Co58 2.313 . S
N80 C84 1.332 . S
N80 C85 1.332 . S
C81 C82 1.388 . S
C81 C85 1.382 . S
C81 H104 0.950 . S
C82 C81 1.388 . S
C82 C83 1.386 . S
C83 C82 1.386 . S
C83 C84 1.382 . S
C83 H105 0.950 . S
C84 N80 1.332 . S
C84 C83 1.382 . S
C84 H86 0.952 1_545 S
C85 N80 1.332 . S
C85 C81 1.382 . S
C85 H87 0.948 . S
H86 C84 0.952 1_565 S
H87 C85 0.948 . S
H88 C77 0.952 1_545 S
H89 C79 0.948 . S
C90 C56 1.395 . S
C90 C60 1.391 . S
C91 C53 1.389 . S
C91 C73 1.392 . S
C92 C63 1.392 . S
C92 C65 1.389 . S
C93 C68 1.395 . S
C93 C70 1.391 . S
H94 C54 0.950 1_545 S
H95 C55 0.950 . S
H96 C61 0.949 . S
H97 C62 0.950 . S
H98 C66 0.951 1_565 S
H99 C67 0.950 . S
H100 C71 0.949 . S
H101 C72 0.950 . S
H102 C76 0.950 . S
H103 C78 0.950 . S
H104 C81 0.950 . S
H105 C83 0.950 . S
C106 C107 1.443 . S
C106 N110 1.376 . S
C106 C144 1.389 . S
C107 C106 1.443 . S
C107 C108 1.340 . S
C107 H147 0.951 . S
C108 C107 1.340 . S
C108 C109 1.439 . S
C108 H148 0.950 . S
C109 C108 1.439 . S
C109 N110 1.374 . S
C109 C143 1.395 . S
N110 C106 1.376 . S
N110 C109 1.374 . S
N110 Co111 1.991 1_556 S
Co111 N110 1.991 1_554 S
Co111 N112 1.993 1_554 S
Co111 N117 2.026 . S
Co111 N122 1.997 . S
Co111 N127 2.295 . S
Co111 N133 2.271 1_554 S
N112 Co111 1.993 1_556 S
N112 C113 1.376 . S
N112 C116 1.383 1_556 S
C113 N112 1.376 . S
C113 C114 1.446 . S
C113 C143 1.391 . S
C114 C113 1.446 . S
C114 C115 1.339 1_556 S
C114 H149 0.949 . S
C115 C114 1.339 1_554 S
C115 C116 1.439 . S
C115 H150 0.950 . S
C116 N112 1.383 1_554 S
C116 C115 1.439 . S
C116 C145 1.392 . S
N117 Co111 2.026 . S
N117 C118 1.376 . S
N117 C121 1.374 . S
C118 N117 1.376 . S
C118 C119 1.443 . S
C118 C145 1.389 . S
C119 C118 1.443 . S
C119 C120 1.340 . S
C119 H151 0.951 . S
C120 C119 1.340 . S
C120 C121 1.439 . S
C120 H152 0.950 . S
C121 N117 1.374 . S
C121 C120 1.439 . S
C121 C146 1.395 . S
N122 Co111 1.997 . S
N122 C123 1.376 . S
N122 C126 1.383 1_554 S
C123 N122 1.376 . S
C123 C124 1.446 . S
C123 C146 1.391 . S
C124 C123 1.446 . S
C124 C125 1.339 1_554 S
C124 H153 0.949 . S
C125 C124 1.339 1_556 S
C125 C126 1.439 . S
C125 H154 0.950 . S
C126 N122 1.383 1_556 S
C126 C125 1.439 . S
C126 C144 1.392 . S
N127 Co111 2.295 . S
N127 C130 1.332 . S
N127 C132 1.332 . S
C128 C129 1.386 . S
C128 C131 1.388 . S
C129 C128 1.386 . S
C129 C130 1.382 . S
C129 H155 0.950 . S
C130 N127 1.332 . S
C130 C129 1.382 . S
C130 H141 0.952 . S
C131 C128 1.388 . S
C131 C132 1.382 . S
C131 H156 0.950 . S
C132 N127 1.332 . S
C132 C131 1.382 . S
C132 H142 0.948 . S
N133 Co111 2.271 1_556 S
N133 C137 1.332 . S
N133 C138 1.332 . S
C134 C135 1.388 . S
C134 C138 1.382 . S
C134 H157 0.950 . S
C135 C134 1.388 . S
C135 C136 1.386 . S
C136 C135 1.386 . S
C136 C137 1.382 . S
C136 H158 0.950 . S
C137 N133 1.332 . S
C137 C136 1.382 . S
C137 H139 0.952 . S
C138 N133 1.332 . S
C138 C134 1.382 . S
C138 H140 0.948 . S
H139 C137 0.952 . S
H140 C138 0.948 . S
H141 C130 0.952 . S
H142 C132 0.948 . S
C143 C109 1.395 . S
C143 C113 1.391 . S
C144 C106 1.389 . S
C144 C126 1.392 . S
C145 C116 1.392 . S
C145 C118 1.389 . S
C146 C121 1.395 . S
C146 C123 1.391 . S
H147 C107 0.951 . S
H148 C108 0.950 . S
H149 C114 0.949 . S
H150 C115 0.950 . S
H151 C119 0.951 . S
H152 C120 0.950 . S
H153 C124 0.949 . S
H154 C125 0.950 . S
H155 C129 0.950 . S
H156 C131 0.950 . S
H157 C134 0.950 . S
H158 C136 0.950 . S
C159 C160 1.443 . S
C159 N163 1.376 . S
C159 C197 1.389 . S
C160 C159 1.443 . S
C160 C161 1.340 . S
C160 H200 0.951 . S
C161 C160 1.340 . S
C161 C162 1.439 . S
C161 H201 0.950 . S
C162 C161 1.439 . S
C162 N163 1.374 . S
C162 C196 1.395 . S
N163 C159 1.376 . S
N163 C162 1.374 . S
N163 Co164 1.999 1_655 S
Co164 N163 1.999 1_455 S
Co164 N165 1.987 1_455 S
Co164 N170 2.017 . S
Co164 N175 2.002 . S
Co164 N180 2.293 . S
Co164 N186 2.272 1_455 S
N165 Co164 1.987 1_655 S
N165 C166 1.376 . S
N165 C169 1.383 1_655 S
C166 N165 1.376 . S
C166 C167 1.446 . S
C166 C196 1.391 . S
C167 C166 1.446 . S
C167 C168 1.339 . S
C167 H202 0.949 . S
C168 C167 1.339 . S
C168 C169 1.439 1_655 S
C168 H203 0.950 1_655 S
C169 N165 1.383 1_455 S
C169 C168 1.439 1_455 S
C169 C198 1.392 . S
N170 Co164 2.017 . S
N170 C171 1.376 . S
N170 C174 1.374 . S
C171 N170 1.376 . S
C171 C172 1.443 . S
C171 C198 1.389 . S
C172 C171 1.443 . S
C172 C173 1.340 . S
C172 H204 0.951 . S
C173 C172 1.340 . S
C173 C174 1.439 . S
C173 H205 0.950 . S
C174 N170 1.374 . S
C174 C173 1.439 . S
C174 C199 1.395 . S
N175 Co164 2.002 . S
N175 C176 1.376 . S
N175 C179 1.383 1_455 S
C176 N175 1.376 . S
C176 C177 1.446 . S
C176 C199 1.391 . S
C177 C176 1.446 . S
C177 C178 1.339 . S
C177 H206 0.949 . S
C178 C177 1.339 . S
C178 C179 1.439 1_455 S
C178 H207 0.950 1_455 S
C179 N175 1.383 1_655 S
C179 C178 1.439 1_655 S
C179 C197 1.392 . S
N180 Co164 2.293 . S
N180 C183 1.332 . S
N180 C185 1.332 . S
C181 C182 1.386 . S
C181 C184 1.388 . S
C182 C181 1.386 . S
C182 C183 1.382 . S
C182 H208 0.950 . S
C183 N180 1.332 . S
C183 C182 1.382 . S
C183 H194 0.952 . S
C184 C181 1.388 . S
C184 C185 1.382 . S
C184 H209 0.950 . S
C185 N180 1.332 . S
C185 C184 1.382 . S
C185 H195 0.948 1_455 S
N186 Co164 2.272 1_655 S
N186 C190 1.332 . S
N186 C191 1.332 . S
C187 C188 1.388 . S
C187 C191 1.382 . S
C187 H210 0.950 . S
C188 C187 1.388 . S
C188 C189 1.386 . S
C189 C188 1.386 . S
C189 C190 1.382 . S
C189 H211 0.950 . S
C190 N186 1.332 . S
C190 C189 1.382 . S
C190 H192 0.952 . S
C191 N186 1.332 . S
C191 C187 1.382 . S
C191 H193 0.948 1_655 S
H192 C190 0.952 . S
H193 C191 0.948 1_455 S
H194 C183 0.952 . S
H195 C185 0.948 1_655 S
C196 C162 1.395 . S
C196 C166 1.391 . S
C197 C159 1.389 . S
C197 C179 1.392 . S
C198 C169 1.392 . S
C198 C171 1.389 . S
C199 C174 1.395 . S
C199 C176 1.391 . S
H200 C160 0.951 . S
H201 C161 0.950 . S
H202 C167 0.949 . S
H203 C168 0.950 1_455 S
H204 C172 0.951 . S
H205 C173 0.950 . S
H206 C177 0.949 . S
H207 C178 0.950 1_655 S
H208 C182 0.950 . S
H209 C184 0.950 . S
H210 C187 0.950 . S
H211 C189 0.950 . S
C212 C213 1.443 1_565 S
C212 N216 1.376 1_565 S
C212 C250 1.389 . S
C213 C212 1.443 1_545 S
C213 C214 1.340 . S
C213 H253 0.951 1_545 S
C214 C213 1.340 . S
C214 C215 1.439 . S
C214 H254 0.950 . S
C215 C214 1.439 . S
C215 N216 1.374 . S
C215 C249 1.395 . S
N216 C212 1.376 1_545 S
N216 C215 1.374 . S
N216 Co217 2.042 . S
Co217 N216 2.042 . S
Co217 N218 2.013 . S
Co217 N223 1.975 1_544 S
Co217 N228 1.977 1_545 S
Co217 N233 2.301 1_554 S
Co217 N239 2.265 1_545 S
N218 Co217 2.013 . S
N218 C219 1.390 . S
N218 C222 1.369 1_554 S
C219 N218 1.390 . S
C219 C220 1.446 . S
C219 C249 1.391 . S
C220 C219 1.446 . S
C220 C221 1.339 1_554 S
C220 H255 0.949 . S
C221 C220 1.339 1_556 S
C221 C222 1.439 . S
C221 H256 0.950 . S
C222 N218 1.369 1_556 S
C222 C221 1.439 . S
C222 C251 1.392 . S
N223 Co217 1.975 1_566 S
N223 C224 1.376 1_565 S
N223 C227 1.374 . S
C224 N223 1.376 1_545 S
C224 C225 1.456 . S
C224 C251 1.389 . S
C225 C224 1.456 . S
C225 C226 1.326 1_545 S
C225 H257 0.954 . S
C226 C225 1.326 1_565 S
C226 C227 1.439 . S
C226 H258 0.950 . S
C227 N223 1.374 . S
C227 C226 1.439 . S
C227 C252 1.395 . S
N228 Co217 1.977 1_565 S
N228 C229 1.359 1_554 S
N228 C232 1.400 . S
C229 N228 1.359 1_556 S
C229 C230 1.446 . S
C229 C252 1.391 . S
C230 C229 1.446 . S
C230 C231 1.339 1_556 S
C230 H259 0.949 . S
C231 C230 1.339 1_554 S
C231 C232 1.439 . S
C231 H260 0.950 . S
C232 N228 1.400 . S
C232 C231 1.439 . S
C232 C250 1.392 . S
N233 Co217 2.301 1_556 S
N233 C236 1.332 . S
N233 C238 1.332 . S
C234 C235 1.386 . S
C234 C237 1.388 . S
C235 C234 1.386 . S
C235 C236 1.382 . S
C235 H261 0.950 . S
C236 N233 1.332 . S
C236 C235 1.382 . S
C236 H247 0.952 1_545 S
C237 C234 1.388 . S
C237 C238 1.382 . S
C237 H262 0.950 . S
C238 N233 1.332 . S
C238 C237 1.382 . S
C238 H248 0.948 . S
N239 Co217 2.265 1_565 S
N239 C243 1.332 . S
N239 C244 1.332 . S
C240 C241 1.388 . S
C240 C244 1.382 . S
C240 H263 0.950 . S
C241 C240 1.388 . S
C241 C242 1.386 . S
C242 C241 1.386 . S
C242 C243 1.382 . S
C242 H264 0.950 . S
C243 N239 1.332 . S
C243 C242 1.382 . S
C243 H245 0.952 1_565 S
C244 N239 1.332 . S
C244 C240 1.382 . S
C244 H246 0.948 . S
H245 C243 0.952 1_545 S
H246 C244 0.948 . S
H247 C236 0.952 1_565 S
H248 C238 0.948 . S
C249 C215 1.395 . S
C249 C219 1.391 . S
C250 C212 1.389 . S
C250 C232 1.392 . S
C251 C222 1.392 . S
C251 C224 1.389 . S
C252 C227 1.395 . S
C252 C229 1.391 . S
H253 C213 0.951 1_565 S
H254 C214 0.950 . S
H255 C220 0.949 . S
H256 C221 0.950 . S
H257 C225 0.954 . S
H258 C226 0.950 . S
H259 C230 0.949 . S
H260 C231 0.950 . S
H261 C235 0.950 . S
H262 C237 0.950 . S
H263 C240 0.950 . S
H264 C242 0.950 . S
C265 C266 1.443 . S
C265 N269 1.376 . S
C265 C303 1.389 . S
C266 C265 1.443 . S
C266 C267 1.340 . S
C266 H306 0.951 . S
C267 C266 1.340 . S
C267 C268 1.439 . S
C267 H307 0.950 . S
C268 C267 1.439 . S
C268 N269 1.374 . S
C268 C302 1.395 . S
N269 C265 1.376 . S
N269 C268 1.374 . S
N269 Co270 2.008 . S
Co270 N269 2.008 . S
Co270 N271 1.995 . S
Co270 N276 2.008 . S
Co270 N281 1.995 . S
Co270 N286 2.282 . S
Co270 N292 2.282 . S
N271 Co270 1.995 . S
N271 C272 1.376 . S
N271 C275 1.383 . S
C272 N271 1.376 . S
C272 C273 1.446 . S
C272 C302 1.391 . S
C273 C272 1.446 . S
C273 C274 1.339 . S
C273 H308 0.949 . S
C274 C273 1.339 . S
C274 C275 1.439 . S
C274 H309 0.950 . S
C275 N271 1.383 . S
C275 C274 1.439 . S
C275 C304 1.392 . S
N276 Co270 2.008 . S
N276 C277 1.376 . S
N276 C280 1.374 . S
C277 N276 1.376 . S
C277 C278 1.443 . S
C277 C304 1.389 . S
C278 C277 1.443 . S
C278 C279 1.340 . S
C278 H310 0.951 . S
C279 C278 1.340 . S
C279 C280 1.439 . S
C279 H311 0.950 . S
C280 N276 1.374 . S
C280 C279 1.439 . S
C280 C305 1.395 . S
N281 Co270 1.995 . S
N281 C282 1.376 . S
N281 C285 1.383 . S
C282 N281 1.376 . S
C282 C283 1.446 . S
C282 C305 1.391 . S
C283 C282 1.446 . S
C283 C284 1.339 . S
C283 H312 0.949 . S
C284 C283 1.339 . S
C284 C285 1.439 . S
C284 H313 0.950 . S
C285 N281 1.383 . S
C285 C284 1.439 . S
C285 C303 1.392 . S
N286 Co270 2.282 . S
N286 C289 1.332 . S
N286 C291 1.332 . S
C287 C288 1.386 . S
C287 C290 1.388 . S
C288 C287 1.386 . S
C288 C289 1.382 . S
C288 H314 0.950 . S
C289 N286 1.332 . S
C289 C288 1.382 . S
C289 H300 0.952 . S
C290 C287 1.388 . S
C290 C291 1.382 . S
C290 H315 0.950 . S
C291 N286 1.332 . S
C291 C290 1.382 . S
C291 H301 0.948 . S
N292 Co270 2.282 . S
N292 C296 1.332 . S
N292 C297 1.332 . S
C293 C294 1.388 . S
C293 C297 1.382 . S
C293 H316 0.950 . S
C294 C293 1.388 . S
C294 C295 1.386 . S
C295 C294 1.386 . S
C295 C296 1.382 . S
C295 H317 0.950 . S
C296 N292 1.332 . S
C296 C295 1.382 . S
C296 H298 0.952 . S
C297 N292 1.332 . S
C297 C293 1.382 . S
C297 H299 0.948 . S
H298 C296 0.952 . S
H299 C297 0.948 . S
H300 C289 0.952 . S
H301 C291 0.948 . S
C302 C268 1.395 . S
C302 C272 1.391 . S
C303 C265 1.389 . S
C303 C285 1.392 . S
C304 C275 1.392 . S
C304 C277 1.389 . S
C305 C280 1.395 . S
C305 C282 1.391 . S
H306 C266 0.951 . S
H307 C267 0.950 . S
H308 C273 0.949 . S
H309 C274 0.950 . S
H310 C278 0.951 . S
H311 C279 0.950 . S
H312 C283 0.949 . S
H313 C284 0.950 . S
H314 C288 0.950 . S
H315 C290 0.950 . S
H316 C293 0.950 . S
H317 C295 0.950 . S
C318 O320 1.247 . S
C318 O322 1.258 . S
C319 O326 1.247 . S
C319 O327 1.258 . S
O320 C318 1.247 . S
O320 Zn321 2.028 . S
Zn321 O320 2.028 . S
Zn321 O325 2.035 . S
Zn321 O327 2.035 . S
Zn321 O328 2.028 . S
O322 C318 1.258 . S
O322 Zn323 2.035 . S
Zn323 O322 2.035 . S
Zn323 O324 2.028 . S
Zn323 O326 2.028 . S
Zn323 O329 2.035 . S
O324 Zn323 2.028 . S
O324 C330 1.247 . S
O325 Zn321 2.035 . S
O325 C330 1.258 . S
O326 C319 1.247 . S
O326 Zn323 2.028 . S
O327 C319 1.258 . S
O327 Zn321 2.035 . S
O328 Zn321 2.028 . S
O328 C331 1.247 . S
O329 Zn323 2.035 . S
O329 C331 1.258 . S
C330 O324 1.247 . S
C330 O325 1.258 . S
C331 O328 1.247 . S
C331 O329 1.258 . S
C332 O334 1.247 . S
C332 O336 1.258 . S
C333 O340 1.247 . S
C333 O341 1.258 . S
O334 C332 1.247 . S
O334 Zn335 2.028 . S
Zn335 O334 2.028 . S
Zn335 O339 2.035 . S
Zn335 O341 2.035 . S
Zn335 O342 2.028 . S
O336 C332 1.258 . S
O336 Zn337 2.035 . S
Zn337 O336 2.035 . S
Zn337 O338 2.028 . S
Zn337 O340 2.028 . S
Zn337 O343 2.035 . S
O338 Zn337 2.028 . S
O338 C344 1.247 . S
O339 Zn335 2.035 . S
O339 C344 1.258 . S
O340 C333 1.247 . S
O340 Zn337 2.028 . S
O341 C333 1.258 . S
O341 Zn335 2.035 . S
O342 Zn335 2.028 . S
O342 C345 1.247 . S
O343 Zn337 2.035 . S
O343 C345 1.258 . S
C344 O338 1.247 . S
C344 O339 1.258 . S
C345 O342 1.247 . S
C345 O343 1.258 . S
C346 O348 1.247 . S
C346 O350 1.258 . S
C347 O354 1.247 . S
C347 O355 1.258 . S
O348 C346 1.247 . S
O348 Zn349 2.028 . S
Zn349 O348 2.028 . S
Zn349 O353 2.035 . S
Zn349 O355 2.035 . S
Zn349 O356 2.028 . S
O350 C346 1.258 . S
O350 Zn351 2.035 . S
Zn351 O350 2.035 . S
Zn351 O352 2.028 . S
Zn351 O354 2.028 . S
Zn351 O357 2.035 . S
O352 Zn351 2.028 . S
O352 C358 1.247 . S
O353 Zn349 2.035 . S
O353 C358 1.258 . S
O354 C347 1.247 . S
O354 Zn351 2.028 . S
O355 C347 1.258 . S
O355 Zn349 2.035 . S
O356 Zn349 2.028 . S
O356 C359 1.247 . S
O357 Zn351 2.035 . S
O357 C359 1.258 . S
C358 O352 1.247 . S
C358 O353 1.258 . S
C359 O356 1.247 . S
C359 O357 1.258 . S
C360 O362 1.247 . S
C360 O364 1.258 . S
C361 O368 1.247 . S
C361 O369 1.258 . S
O362 C360 1.247 . S
O362 Zn363 2.028 . S
Zn363 O362 2.028 . S
Zn363 O367 2.035 . S
Zn363 O369 2.035 . S
Zn363 O370 2.028 . S
O364 C360 1.258 . S
O364 Zn365 2.035 . S
Zn365 O364 2.035 . S
Zn365 O366 2.028 . S
Zn365 O368 2.028 . S
Zn365 O371 2.035 . S
O366 Zn365 2.028 . S
O366 C372 1.247 . S
O367 Zn363 2.035 . S
O367 C372 1.258 . S
O368 C361 1.247 . S
O368 Zn365 2.028 . S
O369 C361 1.258 . S
O369 Zn363 2.035 . S
O370 Zn363 2.028 . S
O370 C373 1.247 . S
O371 Zn365 2.035 . S
O371 C373 1.258 . S
C372 O366 1.247 . S
C372 O367 1.258 . S
C373 O370 1.247 . S
C373 O371 1.258 . S
C374 O376 1.247 . S
C374 O378 1.258 . S
C375 O382 1.247 . S
C375 O383 1.258 . S
O376 C374 1.247 . S
O376 Zn377 2.028 . S
Zn377 O376 2.028 . S
Zn377 O381 2.035 . S
Zn377 O383 2.035 . S
Zn377 O384 2.028 . S
O378 C374 1.258 . S
O378 Zn379 2.035 . S
Zn379 O378 2.035 . S
Zn379 O380 2.028 . S
Zn379 O382 2.028 . S
Zn379 O385 2.035 . S
O380 Zn379 2.028 . S
O380 C386 1.247 . S
O381 Zn377 2.035 . S
O381 C386 1.258 . S
O382 C375 1.247 . S
O382 Zn379 2.028 . S
O383 C375 1.258 . S
O383 Zn377 2.035 . S
O384 Zn377 2.028 . S
O384 C387 1.247 . S
O385 Zn379 2.035 . S
O385 C387 1.258 . S
C386 O380 1.247 . S
C386 O381 1.258 . S
C387 O384 1.247 . S
C387 O385 1.258 . S
C388 O390 1.247 . S
C388 O392 1.258 . S
C389 O396 1.247 . S
C389 O397 1.258 . S
O390 C388 1.247 . S
O390 Zn391 2.028 . S
Zn391 O390 2.028 . S
Zn391 O395 2.035 . S
Zn391 O397 2.035 . S
Zn391 O398 2.028 . S
O392 C388 1.258 . S
O392 Zn393 2.035 . S
Zn393 O392 2.035 . S
Zn393 O394 2.028 . S
Zn393 O396 2.028 . S
Zn393 O399 2.035 . S
O394 Zn393 2.028 . S
O394 C400 1.247 . S
O395 Zn391 2.035 . S
O395 C400 1.258 . S
O396 C389 1.247 . S
O396 Zn393 2.028 . S
O397 C389 1.258 . S
O397 Zn391 2.035 . S
O398 Zn391 2.028 . S
O398 C401 1.247 . S
O399 Zn393 2.035 . S
O399 C401 1.258 . S
C400 O394 1.247 . S
C400 O395 1.258 . S
C401 O398 1.247 . S
C401 O399 1.258 . S
C402 C403 1.391 . S
C402 C404 1.394 . S
C402 H418 0.931 . S
C403 C402 1.391 . S
C403 C407 1.376 . S
C404 C402 1.394 . S
C404 C405 1.369 . S
C404 C408 1.531 . S
C405 C404 1.369 . S
C405 C406 1.410 . S
C405 C413 1.503 . S
C406 C405 1.410 . S
C406 C407 1.392 . S
C406 C409 1.511 . S
C407 C403 1.376 . S
C407 C406 1.392 . S
C407 H419 0.929 . S
C408 C404 1.531 . S
C408 H420 0.960 . S
C408 H421 0.962 . S
C408 H422 0.960 . S
C409 C406 1.511 . S
C409 H423 0.961 . S
C409 H424 0.961 . S
C409 H425 0.961 . S
C410 C411 1.370 . S
C410 C412 1.363 . S
C410 H426 0.931 . S
C411 C410 1.370 . S
C411 C415 1.408 . S
C412 C410 1.363 . S
C412 C413 1.370 . S
C412 C416 1.524 . S
C413 C405 1.503 . S
C413 C412 1.370 . S
C413 C414 1.403 . S
C414 C413 1.403 . S
C414 C415 1.404 . S
C414 C417 1.539 . S
C415 C411 1.408 . S
C415 C414 1.404 . S
C415 H427 0.930 . S
C416 C412 1.524 . S
C416 H428 0.956 . S
C416 H429 0.961 . S
C416 H430 0.961 . S
C417 C414 1.539 . S
C417 H431 0.958 . S
C417 H432 0.961 . S
C417 H433 0.960 . S
H418 C402 0.931 . S
H419 C407 0.929 . S
H420 C408 0.960 . S
H421 C408 0.962 . S
H422 C408 0.960 . S
H423 C409 0.961 . S
H424 C409 0.961 . S
H425 C409 0.961 . S
H426 C410 0.931 . S
H427 C415 0.930 . S
H428 C416 0.956 . S
H429 C416 0.961 . S
H430 C416 0.961 . S
H431 C417 0.958 . S
H432 C417 0.961 . S
H433 C417 0.960 . S
C434 C435 1.391 . S
C434 C436 1.394 . S
C434 H450 0.931 . S
C435 C434 1.391 . S
C435 C439 1.376 . S
C436 C434 1.394 . S
C436 C437 1.369 . S
C436 C440 1.531 . S
C437 C436 1.369 . S
C437 C438 1.410 . S
C437 C445 1.503 . S
C438 C437 1.410 . S
C438 C439 1.392 . S
C438 C441 1.511 . S
C439 C435 1.376 . S
C439 C438 1.392 . S
C439 H451 0.929 . S
C440 C436 1.531 . S
C440 H452 0.960 . S
C440 H453 0.962 . S
C440 H454 0.960 . S
C441 C438 1.511 . S
C441 H455 0.961 . S
C441 H456 0.961 . S
C441 H457 0.961 . S
C442 C443 1.370 . S
C442 C444 1.363 . S
C442 H458 0.931 . S
C443 C442 1.370 . S
C443 C447 1.408 . S
C444 C442 1.363 . S
C444 C445 1.370 . S
C444 C448 1.524 . S
C445 C437 1.503 . S
C445 C444 1.370 . S
C445 C446 1.403 . S
C446 C445 1.403 . S
C446 C447 1.404 . S
C446 C449 1.539 . S
C447 C443 1.408 . S
C447 C446 1.404 . S
C447 H459 0.930 . S
C448 C444 1.524 . S
C448 H460 0.956 . S
C448 H461 0.961 . S
C448 H462 0.961 . S
C449 C446 1.539 . S
C449 H463 0.958 . S
C449 H464 0.961 . S
C449 H465 0.960 . S
H450 C434 0.931 . S
H451 C439 0.929 . S
H452 C440 0.960 . S
H453 C440 0.962 . S
H454 C440 0.960 . S
H455 C441 0.961 . S
H456 C441 0.961 . S
H457 C441 0.961 . S
H458 C442 0.931 . S
H459 C447 0.930 . S
H460 C448 0.956 . S
H461 C448 0.961 . S
H462 C448 0.961 . S
H463 C449 0.958 . S
H464 C449 0.961 . S
H465 C449 0.960 . S
C466 C467 1.391 . S
C466 C468 1.394 . S
C466 H482 0.931 . S
C467 C466 1.391 . S
C467 C471 1.376 . S
C468 C466 1.394 . S
C468 C469 1.369 . S
C468 C472 1.531 . S
C469 C468 1.369 . S
C469 C470 1.410 . S
C469 C477 1.503 . S
C470 C469 1.410 . S
C470 C471 1.392 . S
C470 C473 1.511 . S
C471 C467 1.376 . S
C471 C470 1.392 . S
C471 H483 0.929 . S
C472 C468 1.531 . S
C472 H484 0.960 . S
C472 H485 0.962 . S
C472 H486 0.960 . S
C473 C470 1.511 . S
C473 H487 0.961 . S
C473 H488 0.961 . S
C473 H489 0.961 . S
C474 C475 1.370 . S
C474 C476 1.363 . S
C474 H490 0.931 . S
C475 C474 1.370 . S
C475 C479 1.408 . S
C476 C474 1.363 . S
C476 C477 1.370 . S
C476 C480 1.524 . S
C477 C469 1.503 . S
C477 C476 1.370 . S
C477 C478 1.403 . S
C478 C477 1.403 . S
C478 C479 1.404 . S
C478 C481 1.539 . S
C479 C475 1.408 . S
C479 C478 1.404 . S
C479 H491 0.930 . S
C480 C476 1.524 . S
C480 H492 0.956 . S
C480 H493 0.961 . S
C480 H494 0.961 . S
C481 C478 1.539 . S
C481 H495 0.958 . S
C481 H496 0.961 . S
C481 H497 0.960 . S
H482 C466 0.931 . S
H483 C471 0.929 . S
H484 C472 0.960 . S
H485 C472 0.962 . S
H486 C472 0.960 . S
H487 C473 0.961 . S
H488 C473 0.961 . S
H489 C473 0.961 . S
H490 C474 0.931 . S
H491 C479 0.930 . S
H492 C480 0.956 . S
H493 C480 0.961 . S
H494 C480 0.961 . S
H495 C481 0.958 . S
H496 C481 0.961 . S
H497 C481 0.960 . S
C498 C499 1.391 . S
C498 C500 1.394 . S
C498 H514 0.931 . S
C499 C498 1.391 . S
C499 C503 1.376 . S
C500 C498 1.394 . S
C500 C501 1.369 . S
C500 C504 1.531 . S
C501 C500 1.369 . S
C501 C502 1.410 . S
C501 C509 1.503 . S
C502 C501 1.410 . S
C502 C503 1.392 . S
C502 C505 1.511 . S
C503 C499 1.376 . S
C503 C502 1.392 . S
C503 H515 0.929 . S
C504 C500 1.531 . S
C504 H516 0.960 . S
C504 H517 0.962 . S
C504 H518 0.960 . S
C505 C502 1.511 . S
C505 H519 0.961 . S
C505 H520 0.961 . S
C505 H521 0.961 . S
C506 C507 1.370 . S
C506 C508 1.363 . S
C506 H522 0.931 . S
C507 C506 1.370 . S
C507 C511 1.408 . S
C508 C506 1.363 . S
C508 C509 1.370 . S
C508 C512 1.524 . S
C509 C501 1.503 . S
C509 C508 1.370 . S
C509 C510 1.403 . S
C510 C509 1.403 . S
C510 C511 1.404 . S
C510 C513 1.539 . S
C511 C507 1.408 . S
C511 C510 1.404 . S
C511 H523 0.930 . S
C512 C508 1.524 . S
C512 H524 0.956 . S
C512 H525 0.961 . S
C512 H526 0.961 . S
C513 C510 1.539 . S
C513 H527 0.958 . S
C513 H528 0.961 . S
C513 H529 0.960 . S
H514 C498 0.931 . S
H515 C503 0.929 . S
H516 C504 0.960 . S
H517 C504 0.962 . S
H518 C504 0.960 . S
H519 C505 0.961 . S
H520 C505 0.961 . S
H521 C505 0.961 . S
H522 C506 0.931 . S
H523 C511 0.930 . S
H524 C512 0.956 . S
H525 C512 0.961 . S
H526 C512 0.961 . S
H527 C513 0.958 . S
H528 C513 0.961 . S
H529 C513 0.960 . S
C530 C531 1.391 . S
C530 C532 1.394 . S
C530 H546 0.931 . S
C531 C530 1.391 . S
C531 C535 1.376 . S
C532 C530 1.394 . S
C532 C533 1.369 . S
C532 C536 1.531 . S
C533 C532 1.369 . S
C533 C534 1.410 . S
C533 C541 1.503 . S
C534 C533 1.410 . S
C534 C535 1.392 . S
C534 C537 1.511 . S
C535 C531 1.376 . S
C535 C534 1.392 . S
C535 H547 0.929 . S
C536 C532 1.531 . S
C536 H548 0.960 . S
C536 H549 0.962 . S
C536 H550 0.960 . S
C537 C534 1.511 . S
C537 H551 0.961 . S
C537 H552 0.961 . S
C537 H553 0.961 . S
C538 C539 1.370 . S
C538 C540 1.363 . S
C538 H554 0.931 . S
C539 C538 1.370 . S
C539 C543 1.408 . S
C540 C538 1.363 . S
C540 C541 1.370 . S
C540 C544 1.524 . S
C541 C533 1.503 . S
C541 C540 1.370 . S
C541 C542 1.403 . S
C542 C541 1.403 . S
C542 C543 1.404 . S
C542 C545 1.539 . S
C543 C539 1.408 . S
C543 C542 1.404 . S
C543 H555 0.930 . S
C544 C540 1.524 . S
C544 H556 0.956 . S
C544 H557 0.961 . S
C544 H558 0.961 . S
C545 C542 1.539 . S
C545 H559 0.958 . S
C545 H560 0.961 . S
C545 H561 0.960 . S
H546 C530 0.931 . S
H547 C535 0.929 . S
H548 C536 0.960 . S
H549 C536 0.962 . S
H550 C536 0.960 . S
H551 C537 0.961 . S
H552 C537 0.961 . S
H553 C537 0.961 . S
H554 C538 0.931 . S
H555 C543 0.930 . S
H556 C544 0.956 . S
H557 C544 0.961 . S
H558 C544 0.961 . S
H559 C545 0.958 . S
H560 C545 0.961 . S
H561 C545 0.960 . S
C562 C563 1.391 . S
C562 C564 1.394 . S
C562 H578 0.931 . S
C563 C562 1.391 . S
C563 C567 1.376 . S
C564 C562 1.394 . S
C564 C565 1.369 . S
C564 C568 1.531 . S
C565 C564 1.369 . S
C565 C566 1.410 . S
C565 C573 1.503 . S
C566 C565 1.410 . S
C566 C567 1.392 . S
C566 C569 1.511 . S
C567 C563 1.376 . S
C567 C566 1.392 . S
C567 H579 0.929 . S
C568 C564 1.531 . S
C568 H580 0.960 . S
C568 H581 0.962 . S
C568 H582 0.960 . S
C569 C566 1.511 . S
C569 H583 0.961 . S
C569 H584 0.961 . S
C569 H585 0.961 . S
C570 C571 1.370 . S
C570 C572 1.363 . S
C570 H586 0.931 . S
C571 C570 1.370 . S
C571 C575 1.408 . S
C572 C570 1.363 . S
C572 C573 1.370 . S
C572 C576 1.524 . S
C573 C565 1.503 . S
C573 C572 1.370 . S
C573 C574 1.403 . S
C574 C573 1.403 . S
C574 C575 1.404 . S
C574 C577 1.539 . S
C575 C571 1.408 . S
C575 C574 1.404 . S
C575 H587 0.930 . S
C576 C572 1.524 . S
C576 H588 0.956 . S
C576 H589 0.961 . S
C576 H590 0.961 . S
C577 C574 1.539 . S
C577 H591 0.958 . S
C577 H592 0.961 . S
C577 H593 0.960 . S
H578 C562 0.931 . S
H579 C567 0.929 . S
H580 C568 0.960 . S
H581 C568 0.962 . S
H582 C568 0.960 . S
H583 C569 0.961 . S
H584 C569 0.961 . S
H585 C569 0.961 . S
H586 C570 0.931 . S
H587 C575 0.930 . S
H588 C576 0.956 . S
H589 C576 0.961 . S
H590 C576 0.961 . S
H591 C577 0.958 . S
H592 C577 0.961 . S
H593 C577 0.960 . S
C594 C595 1.391 . S
C594 C596 1.394 . S
C594 H610 0.931 . S
C595 C594 1.391 . S
C595 C599 1.376 . S
C596 C594 1.394 . S
C596 C597 1.369 . S
C596 C600 1.531 . S
C597 C596 1.369 . S
C597 C598 1.410 . S
C597 C605 1.503 . S
C598 C597 1.410 . S
C598 C599 1.392 . S
C598 C601 1.511 . S
C599 C595 1.376 . S
C599 C598 1.392 . S
C599 H611 0.929 . S
C600 C596 1.531 . S
C600 H612 0.960 . S
C600 H613 0.962 . S
C600 H614 0.960 . S
C601 C598 1.511 . S
C601 H615 0.961 . S
C601 H616 0.961 . S
C601 H617 0.961 . S
C602 C603 1.370 . S
C602 C604 1.363 . S
C602 H618 0.931 . S
C603 C602 1.370 . S
C603 C607 1.408 . S
C604 C602 1.363 . S
C604 C605 1.370 . S
C604 C608 1.524 . S
C605 C597 1.503 . S
C605 C604 1.370 . S
C605 C606 1.403 . S
C606 C605 1.403 . S
C606 C607 1.404 . S
C606 C609 1.539 . S
C607 C603 1.408 . S
C607 C606 1.404 . S
C607 H619 0.930 . S
C608 C604 1.524 . S
C608 H620 0.956 . S
C608 H621 0.961 . S
C608 H622 0.961 . S
C609 C606 1.539 . S
C609 H623 0.958 . S
C609 H624 0.961 . S
C609 H625 0.960 . S
H610 C594 0.931 . S
H611 C599 0.929 . S
H612 C600 0.960 . S
H613 C600 0.962 . S
H614 C600 0.960 . S
H615 C601 0.961 . S
H616 C601 0.961 . S
H617 C601 0.961 . S
H618 C602 0.931 . S
H619 C607 0.930 . S
H620 C608 0.956 . S
H621 C608 0.961 . S
H622 C608 0.961 . S
H623 C609 0.958 . S
H624 C609 0.961 . S
H625 C609 0.960 . S
C626 C627 1.391 . S
C626 C628 1.394 . S
C626 H642 0.931 . S
C627 C626 1.391 . S
C627 C631 1.376 . S
C628 C626 1.394 . S
C628 C629 1.369 . S
C628 C632 1.531 . S
C629 C628 1.369 . S
C629 C630 1.410 . S
C629 C637 1.503 . S
C630 C629 1.410 . S
C630 C631 1.392 . S
C630 C633 1.511 . S
C631 C627 1.376 . S
C631 C630 1.392 . S
C631 H643 0.929 . S
C632 C628 1.531 . S
C632 H644 0.960 . S
C632 H645 0.962 . S
C632 H646 0.960 . S
C633 C630 1.511 . S
C633 H647 0.961 . S
C633 H648 0.961 . S
C633 H649 0.961 . S
C634 C635 1.370 . S
C634 C636 1.363 . S
C634 H650 0.931 . S
C635 C634 1.370 . S
C635 C639 1.408 . S
C636 C634 1.363 . S
C636 C637 1.370 . S
C636 C640 1.524 . S
C637 C629 1.503 . S
C637 C636 1.370 . S
C637 C638 1.403 . S
C638 C637 1.403 . S
C638 C639 1.404 . S
C638 C641 1.539 . S
C639 C635 1.408 . S
C639 C638 1.404 . S
C639 H651 0.930 . S
C640 C636 1.524 . S
C640 H652 0.956 . S
C640 H653 0.961 . S
C640 H654 0.961 . S
C641 C638 1.539 . S
C641 H655 0.958 . S
C641 H656 0.961 . S
C641 H657 0.960 . S
H642 C626 0.931 . S
H643 C631 0.929 . S
H644 C632 0.960 . S
H645 C632 0.962 . S
H646 C632 0.960 . S
H647 C633 0.961 . S
H648 C633 0.961 . S
H649 C633 0.961 . S
H650 C634 0.931 . S
H651 C639 0.930 . S
H652 C640 0.956 . S
H653 C640 0.961 . S
H654 C640 0.961 . S
H655 C641 0.958 . S
H656 C641 0.961 . S
H657 C641 0.960 . S
C658 C659 1.391 . S
C658 C660 1.394 . S
C658 H674 0.931 . S
C659 C658 1.391 . S
C659 C663 1.376 . S
C660 C658 1.394 . S
C660 C661 1.369 . S
C660 C664 1.531 . S
C661 C660 1.369 . S
C661 C662 1.410 . S
C661 C669 1.503 . S
C662 C661 1.410 . S
C662 C663 1.392 . S
C662 C665 1.511 . S
C663 C659 1.376 . S
C663 C662 1.392 . S
C663 H675 0.929 . S
C664 C660 1.531 . S
C664 H676 0.960 . S
C664 H677 0.962 . S
C664 H678 0.960 . S
C665 C662 1.511 . S
C665 H679 0.961 . S
C665 H680 0.961 . S
C665 H681 0.961 . S
C666 C667 1.370 . S
C666 C668 1.363 . S
C666 H682 0.931 . S
C667 C666 1.370 . S
C667 C671 1.408 . S
C668 C666 1.363 . S
C668 C669 1.370 . S
C668 C672 1.524 . S
C669 C661 1.503 . S
C669 C668 1.370 . S
C669 C670 1.403 . S
C670 C669 1.403 . S
C670 C671 1.404 . S
C670 C673 1.539 . S
C671 C667 1.408 . S
C671 C670 1.404 . S
C671 H683 0.930 . S
C672 C668 1.524 . S
C672 H684 0.956 . S
C672 H685 0.961 . S
C672 H686 0.961 . S
C673 C670 1.539 . S
C673 H687 0.958 . S
C673 H688 0.961 . S
C673 H689 0.960 . S
H674 C658 0.931 . S
H675 C663 0.929 . S
H676 C664 0.960 . S
H677 C664 0.962 . S
H678 C664 0.960 . S
H679 C665 0.961 . S
H680 C665 0.961 . S
H681 C665 0.961 . S
H682 C666 0.931 . S
H683 C671 0.930 . S
H684 C672 0.956 . S
H685 C672 0.961 . S
H686 C672 0.961 . S
H687 C673 0.958 . S
H688 C673 0.961 . S
H689 C673 0.960 . S
C690 C691 1.391 . S
C690 C692 1.394 . S
C690 H706 0.931 . S
C691 C690 1.391 . S
C691 C695 1.376 . S
C692 C690 1.394 . S
C692 C693 1.369 . S
C692 C696 1.531 . S
C693 C692 1.369 . S
C693 C694 1.410 . S
C693 C701 1.503 . S
C694 C693 1.410 . S
C694 C695 1.392 . S
C694 C697 1.511 . S
C695 C691 1.376 . S
C695 C694 1.392 . S
C695 H707 0.929 . S
C696 C692 1.531 . S
C696 H708 0.960 . S
C696 H709 0.962 . S
C696 H710 0.960 . S
C697 C694 1.511 . S
C697 H711 0.961 . S
C697 H712 0.961 . S
C697 H713 0.961 . S
C698 C699 1.370 . S
C698 C700 1.363 . S
C698 H714 0.931 . S
C699 C698 1.370 . S
C699 C703 1.408 . S
C700 C698 1.363 . S
C700 C701 1.370 . S
C700 C704 1.524 . S
C701 C693 1.503 . S
C701 C700 1.370 . S
C701 C702 1.403 . S
C702 C701 1.403 . S
C702 C703 1.404 . S
C702 C705 1.539 . S
C703 C699 1.408 . S
C703 C702 1.404 . S
C703 H715 0.930 . S
C704 C700 1.524 . S
C704 H716 0.956 . S
C704 H717 0.961 . S
C704 H718 0.961 . S
C705 C702 1.539 . S
C705 H719 0.958 . S
C705 H720 0.961 . S
C705 H721 0.960 . S
H706 C690 0.931 . S
H707 C695 0.929 . S
H708 C696 0.960 . S
H709 C696 0.962 . S
H710 C696 0.960 . S
H711 C697 0.961 . S
H712 C697 0.961 . S
H713 C697 0.961 . S
H714 C698 0.931 . S
H715 C703 0.930 . S
H716 C704 0.956 . S
H717 C704 0.961 . S
H718 C704 0.961 . S
H719 C705 0.958 . S
H720 C705 0.961 . S
H721 C705 0.960 . S
C722 C723 1.391 . S
C722 C724 1.394 . S
C722 H738 0.931 . S
C723 C722 1.391 . S
C723 C727 1.376 . S
C724 C722 1.394 . S
C724 C725 1.369 . S
C724 C728 1.531 . S
C725 C724 1.369 . S
C725 C726 1.410 . S
C725 C733 1.503 . S
C726 C725 1.410 . S
C726 C727 1.392 . S
C726 C729 1.511 . S
C727 C723 1.376 . S
C727 C726 1.392 . S
C727 H739 0.929 . S
C728 C724 1.531 . S
C728 H740 0.960 . S
C728 H741 0.962 . S
C728 H742 0.960 . S
C729 C726 1.511 . S
C729 H743 0.961 . S
C729 H744 0.961 . S
C729 H745 0.961 . S
C730 C731 1.370 . S
C730 C732 1.363 . S
C730 H746 0.931 . S
C731 C730 1.370 . S
C731 C735 1.408 . S
C732 C730 1.363 . S
C732 C733 1.370 . S
C732 C736 1.524 . S
C733 C725 1.503 . S
C733 C732 1.370 . S
C733 C734 1.403 . S
C734 C733 1.403 . S
C734 C735 1.404 . S
C734 C737 1.539 . S
C735 C731 1.408 . S
C735 C734 1.404 . S
C735 H747 0.930 . S
C736 C732 1.524 . S
C736 H748 0.956 . S
C736 H749 0.961 . S
C736 H750 0.961 . S
C737 C734 1.539 . S
C737 H751 0.958 . S
C737 H752 0.961 . S
C737 H753 0.960 . S
H738 C722 0.931 . S
H739 C727 0.929 . S
H740 C728 0.960 . S
H741 C728 0.962 . S
H742 C728 0.960 . S
H743 C729 0.961 . S
H744 C729 0.961 . S
H745 C729 0.961 . S
H746 C730 0.931 . S
H747 C735 0.930 . S
H748 C736 0.956 . S
H749 C736 0.961 . S
H750 C736 0.961 . S
H751 C737 0.958 . S
H752 C737 0.961 . S
H753 C737 0.960 . S
C754 C755 1.391 . S
C754 C756 1.394 . S
C754 H770 0.931 . S
C755 C754 1.391 . S
C755 C759 1.376 . S
C756 C754 1.394 . S
C756 C757 1.369 . S
C756 C760 1.531 . S
C757 C756 1.369 . S
C757 C758 1.410 . S
C757 C765 1.503 . S
C758 C757 1.410 . S
C758 C759 1.392 . S
C758 C761 1.511 . S
C759 C755 1.376 . S
C759 C758 1.392 . S
C759 H771 0.929 . S
C760 C756 1.531 . S
C760 H772 0.960 . S
C760 H773 0.962 . S
C760 H774 0.960 . S
C761 C758 1.511 . S
C761 H775 0.961 . S
C761 H776 0.961 . S
C761 H777 0.961 . S
C762 C763 1.370 . S
C762 C764 1.363 . S
C762 H778 0.931 . S
C763 C762 1.370 . S
C763 C767 1.408 . S
C764 C762 1.363 . S
C764 C765 1.370 . S
C764 C768 1.524 . S
C765 C757 1.503 . S
C765 C764 1.370 . S
C765 C766 1.403 . S
C766 C765 1.403 . S
C766 C767 1.404 . S
C766 C769 1.539 . S
C767 C763 1.408 . S
C767 C766 1.404 . S
C767 H779 0.930 . S
C768 C764 1.524 . S
C768 H780 0.956 . S
C768 H781 0.961 . S
C768 H782 0.961 . S
C769 C766 1.539 . S
C769 H783 0.958 . S
C769 H784 0.961 . S
C769 H785 0.960 . S
H770 C754 0.931 . S
H771 C759 0.929 . S
H772 C760 0.960 . S
H773 C760 0.962 . S
H774 C760 0.960 . S
H775 C761 0.961 . S
H776 C761 0.961 . S
H777 C761 0.961 . S
H778 C762 0.931 . S
H779 C767 0.930 . S
H780 C768 0.956 . S
H781 C768 0.961 . S
H782 C768 0.961 . S
H783 C769 0.958 . S
H784 C769 0.961 . S
H785 C769 0.960 . S
C786 C787 1.391 . S
C786 C788 1.394 . S
C786 H802 0.931 . S
C787 C786 1.391 . S
C787 C791 1.376 . S
C788 C786 1.394 . S
C788 C789 1.369 . S
C788 C792 1.531 . S
C789 C788 1.369 . S
C789 C790 1.410 . S
C789 C797 1.503 . S
C790 C789 1.410 . S
C790 C791 1.392 . S
C790 C793 1.511 . S
C791 C787 1.376 . S
C791 C790 1.392 . S
C791 H803 0.929 . S
C792 C788 1.531 . S
C792 H804 0.960 . S
C792 H805 0.962 . S
C792 H806 0.960 . S
C793 C790 1.511 . S
C793 H807 0.961 . S
C793 H808 0.961 . S
C793 H809 0.961 . S
C794 C795 1.370 . S
C794 C796 1.363 . S
C794 H810 0.931 . S
C795 C794 1.370 . S
C795 C799 1.408 . S
C796 C794 1.363 . S
C796 C797 1.370 . S
C796 C800 1.524 . S
C797 C789 1.503 . S
C797 C796 1.370 . S
C797 C798 1.403 . S
C798 C797 1.403 . S
C798 C799 1.404 . S
C798 C801 1.539 . S
C799 C795 1.408 . S
C799 C798 1.404 . S
C799 H811 0.930 . S
C800 C796 1.524 . S
C800 H812 0.956 . S
C800 H813 0.961 . S
C800 H814 0.961 . S
C801 C798 1.539 . S
C801 H815 0.958 . S
C801 H816 0.961 . S
C801 H817 0.960 . S
H802 C786 0.931 . S
H803 C791 0.929 . S
H804 C792 0.960 . S
H805 C792 0.962 . S
H806 C792 0.960 . S
H807 C793 0.961 . S
H808 C793 0.961 . S
H809 C793 0.961 . S
H810 C794 0.931 . S
H811 C799 0.930 . S
H812 C800 0.956 . S
H813 C800 0.961 . S
H814 C800 0.961 . S
H815 C801 0.958 . S
H816 C801 0.961 . S
H817 C801 0.960 . S
C818 C819 1.391 . S
C818 C820 1.394 . S
C818 H834 0.931 . S
C819 C818 1.391 . S
C819 C823 1.376 . S
C820 C818 1.394 . S
C820 C821 1.369 . S
C820 C824 1.531 . S
C821 C820 1.369 . S
C821 C822 1.410 . S
C821 C829 1.503 . S
C822 C821 1.410 . S
C822 C823 1.392 . S
C822 C825 1.511 . S
C823 C819 1.376 . S
C823 C822 1.392 . S
C823 H835 0.929 . S
C824 C820 1.531 . S
C824 H836 0.960 . S
C824 H837 0.962 . S
C824 H838 0.960 . S
C825 C822 1.511 . S
C825 H839 0.961 . S
C825 H840 0.961 . S
C825 H841 0.961 . S
C826 C827 1.370 . S
C826 C828 1.363 . S
C826 H842 0.931 . S
C827 C826 1.370 . S
C827 C831 1.408 . S
C828 C826 1.363 . S
C828 C829 1.370 . S
C828 C832 1.524 . S
C829 C821 1.503 . S
C829 C828 1.370 . S
C829 C830 1.403 . S
C830 C829 1.403 . S
C830 C831 1.404 . S
C830 C833 1.539 . S
C831 C827 1.408 . S
C831 C830 1.404 . S
C831 H843 0.930 . S
C832 C828 1.524 . S
C832 H844 0.956 . S
C832 H845 0.961 . S
C832 H846 0.961 . S
C833 C830 1.539 . S
C833 H847 0.958 . S
C833 H848 0.961 . S
C833 H849 0.960 . S
H834 C818 0.931 . S
H835 C823 0.929 . S
H836 C824 0.960 . S
H837 C824 0.962 . S
H838 C824 0.960 . S
H839 C825 0.961 . S
H840 C825 0.961 . S
H841 C825 0.961 . S
H842 C826 0.931 . S
H843 C831 0.930 . S
H844 C832 0.956 . S
H845 C832 0.961 . S
H846 C832 0.961 . S
H847 C833 0.958 . S
H848 C833 0.961 . S
H849 C833 0.960 . S
C850 C851 1.391 . S
C850 C852 1.394 . S
C850 H866 0.931 . S
C851 C850 1.391 . S
C851 C855 1.376 . S
C852 C850 1.394 . S
C852 C853 1.369 . S
C852 C856 1.531 . S
C853 C852 1.369 . S
C853 C854 1.410 . S
C853 C861 1.503 . S
C854 C853 1.410 . S
C854 C855 1.392 . S
C854 C857 1.511 . S
C855 C851 1.376 . S
C855 C854 1.392 . S
C855 H867 0.929 . S
C856 C852 1.531 . S
C856 H868 0.960 . S
C856 H869 0.962 . S
C856 H870 0.960 . S
C857 C854 1.511 . S
C857 H871 0.961 . S
C857 H872 0.961 . S
C857 H873 0.961 . S
C858 C859 1.370 . S
C858 C860 1.363 . S
C858 H874 0.931 . S
C859 C858 1.370 . S
C859 C863 1.408 . S
C860 C858 1.363 . S
C860 C861 1.370 . S
C860 C864 1.524 . S
C861 C853 1.503 . S
C861 C860 1.370 . S
C861 C862 1.403 . S
C862 C861 1.403 . S
C862 C863 1.404 . S
C862 C865 1.539 . S
C863 C859 1.408 . S
C863 C862 1.404 . S
C863 H875 0.930 . S
C864 C860 1.524 . S
C864 H876 0.956 . S
C864 H877 0.961 . S
C864 H878 0.961 . S
C865 C862 1.539 . S
C865 H879 0.958 . S
C865 H880 0.961 . S
C865 H881 0.960 . S
H866 C850 0.931 . S
H867 C855 0.929 . S
H868 C856 0.960 . S
H869 C856 0.962 . S
H870 C856 0.960 . S
H871 C857 0.961 . S
H872 C857 0.961 . S
H873 C857 0.961 . S
H874 C858 0.931 . S
H875 C863 0.930 . S
H876 C864 0.956 . S
H877 C864 0.961 . S
H878 C864 0.961 . S
H879 C865 0.958 . S
H880 C865 0.961 . S
H881 C865 0.960 . S
C882 C883 1.391 . S
C882 C884 1.394 . S
C882 H898 0.931 . S
C883 C882 1.391 . S
C883 C887 1.376 . S
C884 C882 1.394 . S
C884 C885 1.369 . S
C884 C888 1.531 . S
C885 C884 1.369 . S
C885 C886 1.410 . S
C885 C893 1.503 . S
C886 C885 1.410 . S
C886 C887 1.392 . S
C886 C889 1.511 . S
C887 C883 1.376 . S
C887 C886 1.392 . S
C887 H899 0.929 . S
C888 C884 1.531 . S
C888 H900 0.960 . S
C888 H901 0.962 . S
C888 H902 0.960 . S
C889 C886 1.511 . S
C889 H903 0.961 . S
C889 H904 0.961 . S
C889 H905 0.961 . S
C890 C891 1.370 . S
C890 C892 1.363 . S
C890 H906 0.931 . S
C891 C890 1.370 . S
C891 C895 1.408 . S
C892 C890 1.363 . S
C892 C893 1.370 . S
C892 C896 1.524 . S
C893 C885 1.503 . S
C893 C892 1.370 . S
C893 C894 1.403 . S
C894 C893 1.403 . S
C894 C895 1.404 . S
C894 C897 1.539 . S
C895 C891 1.408 . S
C895 C894 1.404 . S
C895 H907 0.930 . S
C896 C892 1.524 . S
C896 H908 0.956 . S
C896 H909 0.961 . S
C896 H910 0.961 . S
C897 C894 1.539 . S
C897 H911 0.958 . S
C897 H912 0.961 . S
C897 H913 0.960 . S
H898 C882 0.931 . S
H899 C887 0.929 . S
H900 C888 0.960 . S
H901 C888 0.962 . S
H902 C888 0.960 . S
H903 C889 0.961 . S
H904 C889 0.961 . S
H905 C889 0.961 . S
H906 C890 0.931 . S
H907 C895 0.930 . S
H908 C896 0.956 . S
H909 C896 0.961 . S
H910 C896 0.961 . S
H911 C897 0.958 . S
H912 C897 0.961 . S
H913 C897 0.960 . S
C914 C915 1.391 . S
C914 C916 1.394 . S
C914 H930 0.931 . S
C915 C914 1.391 . S
C915 C919 1.376 . S
C916 C914 1.394 . S
C916 C917 1.369 . S
C916 C920 1.531 . S
C917 C916 1.369 . S
C917 C918 1.410 . S
C917 C925 1.503 . S
C918 C917 1.410 . S
C918 C919 1.392 . S
C918 C921 1.511 . S
C919 C915 1.376 . S
C919 C918 1.392 . S
C919 H931 0.929 . S
C920 C916 1.531 . S
C920 H932 0.960 . S
C920 H933 0.962 . S
C920 H934 0.960 . S
C921 C918 1.511 . S
C921 H935 0.961 . S
C921 H936 0.961 . S
C921 H937 0.961 . S
C922 C923 1.370 . S
C922 C924 1.363 . S
C922 H938 0.931 . S
C923 C922 1.370 . S
C923 C927 1.408 . S
C924 C922 1.363 . S
C924 C925 1.370 . S
C924 C928 1.524 . S
C925 C917 1.503 . S
C925 C924 1.370 . S
C925 C926 1.403 . S
C926 C925 1.403 . S
C926 C927 1.404 . S
C926 C929 1.539 . S
C927 C923 1.408 . S
C927 C926 1.404 . S
C927 H939 0.930 . S
C928 C924 1.524 . S
C928 H940 0.956 . S
C928 H941 0.961 . S
C928 H942 0.961 . S
C929 C926 1.539 . S
C929 H943 0.958 . S
C929 H944 0.961 . S
C929 H945 0.960 . S
H930 C914 0.931 . S
H931 C919 0.929 . S
H932 C920 0.960 . S
H933 C920 0.962 . S
H934 C920 0.960 . S
H935 C921 0.961 . S
H936 C921 0.961 . S
H937 C921 0.961 . S
H938 C922 0.931 . S
H939 C927 0.930 . S
H940 C928 0.956 . S
H941 C928 0.961 . S
H942 C928 0.961 . S
H943 C929 0.958 . S
H944 C929 0.961 . S
H945 C929 0.960 . S
C946 C947 1.391 . S
C946 C948 1.394 . S
C946 H962 0.931 . S
C947 C946 1.391 . S
C947 C951 1.376 . S
C948 C946 1.394 . S
C948 C949 1.369 . S
C948 C952 1.531 . S
C949 C948 1.369 . S
C949 C950 1.410 . S
C949 C957 1.503 . S
C950 C949 1.410 . S
C950 C951 1.392 . S
C950 C953 1.511 . S
C951 C947 1.376 . S
C951 C950 1.392 . S
C951 H963 0.929 . S
C952 C948 1.531 . S
C952 H964 0.960 . S
C952 H965 0.962 . S
C952 H966 0.960 . S
C953 C950 1.511 . S
C953 H967 0.961 . S
C953 H968 0.961 . S
C953 H969 0.961 . S
C954 C955 1.370 . S
C954 C956 1.363 . S
C954 H970 0.931 . S
C955 C954 1.370 . S
C955 C959 1.408 . S
C956 C954 1.363 . S
C956 C957 1.370 . S
C956 C960 1.524 . S
C957 C949 1.503 . S
C957 C956 1.370 . S
C957 C958 1.403 . S
C958 C957 1.403 . S
C958 C959 1.404 . S
C958 C961 1.539 . S
C959 C955 1.408 . S
C959 C958 1.404 . S
C959 H971 0.930 . S
C960 C956 1.524 . S
C960 H972 0.956 . S
C960 H973 0.961 . S
C960 H974 0.961 . S
C961 C958 1.539 . S
C961 H975 0.958 . S
C961 H976 0.961 . S
C961 H977 0.960 . S
H962 C946 0.931 . S
H963 C951 0.929 . S
H964 C952 0.960 . S
H965 C952 0.962 . S
H966 C952 0.960 . S
H967 C953 0.961 . S
H968 C953 0.961 . S
H969 C953 0.961 . S
H970 C954 0.931 . S
H971 C959 0.930 . S
H972 C960 0.956 . S
H973 C960 0.961 . S
H974 C960 0.961 . S
H975 C961 0.958 . S
H976 C961 0.961 . S
H977 C961 0.960 . S
C978 C979 1.391 . S
C978 C980 1.394 . S
C978 H994 0.931 . S
C979 C978 1.391 . S
C979 C983 1.376 . S
C980 C978 1.394 . S
C980 C981 1.369 . S
C980 C984 1.531 . S
C981 C980 1.369 . S
C981 C982 1.410 . S
C981 C989 1.503 . S
C982 C981 1.410 . S
C982 C983 1.392 . S
C982 C985 1.511 . S
C983 C979 1.376 . S
C983 C982 1.392 . S
C983 H995 0.929 . S
C984 C980 1.531 . S
C984 H996 0.960 . S
C984 H997 0.962 . S
C984 H998 0.960 . S
C985 C982 1.511 . S
C985 H999 0.961 . S
C985 H1000 0.961 . S
C985 H1001 0.961 . S
C986 C987 1.370 . S
C986 C988 1.363 . S
C986 H1002 0.931 . S
C987 C986 1.370 . S
C987 C991 1.408 . S
C988 C986 1.363 . S
C988 C989 1.370 . S
C988 C992 1.524 . S
C989 C981 1.503 . S
C989 C988 1.370 . S
C989 C990 1.403 . S
C990 C989 1.403 . S
C990 C991 1.404 . S
C990 C993 1.539 . S
C991 C987 1.408 . S
C991 C990 1.404 . S
C991 H1003 0.930 . S
C992 C988 1.524 . S
C992 H1004 0.956 . S
C992 H1005 0.961 . S
C992 H1006 0.961 . S
C993 C990 1.539 . S
C993 H1007 0.958 . S
C993 H1008 0.961 . S
C993 H1009 0.960 . S
H994 C978 0.931 . S
H995 C983 0.929 . S
H996 C984 0.960 . S
H997 C984 0.962 . S
H998 C984 0.960 . S
H999 C985 0.961 . S
H1000 C985 0.961 . S
H1001 C985 0.961 . S
H1002 C986 0.931 . S
H1003 C991 0.930 . S
H1004 C992 0.956 . S
H1005 C992 0.961 . S
H1006 C992 0.961 . S
H1007 C993 0.958 . S
H1008 C993 0.961 . S
H1009 C993 0.960 . S
C1010 C1011 1.391 . S
C1010 C1012 1.394 . S
C1010 H1026 0.931 . S
C1011 C1010 1.391 . S
C1011 C1015 1.376 . S
C1012 C1010 1.394 . S
C1012 C1013 1.369 . S
C1012 C1016 1.531 . S
C1013 C1012 1.369 . S
C1013 C1014 1.410 . S
C1013 C1021 1.503 . S
C1014 C1013 1.410 . S
C1014 C1015 1.392 . S
C1014 C1017 1.511 . S
C1015 C1011 1.376 . S
C1015 C1014 1.392 . S
C1015 H1027 0.929 . S
C1016 C1012 1.531 . S
C1016 H1028 0.960 . S
C1016 H1029 0.962 . S
C1016 H1030 0.960 . S
C1017 C1014 1.511 . S
C1017 H1031 0.961 . S
C1017 H1032 0.961 . S
C1017 H1033 0.961 . S
C1018 C1019 1.370 . S
C1018 C1020 1.363 . S
C1018 H1034 0.931 . S
C1019 C1018 1.370 . S
C1019 C1023 1.408 . S
C1020 C1018 1.363 . S
C1020 C1021 1.370 . S
C1020 C1024 1.524 . S
C1021 C1013 1.503 . S
C1021 C1020 1.370 . S
C1021 C1022 1.403 . S
C1022 C1021 1.403 . S
C1022 C1023 1.404 . S
C1022 C1025 1.539 . S
C1023 C1019 1.408 . S
C1023 C1022 1.404 . S
C1023 H1035 0.930 . S
C1024 C1020 1.524 . S
C1024 H1036 0.956 . S
C1024 H1037 0.961 . S
C1024 H1038 0.961 . S
C1025 C1022 1.539 . S
C1025 H1039 0.958 . S
C1025 H1040 0.961 . S
C1025 H1041 0.960 . S
H1026 C1010 0.931 . S
H1027 C1015 0.929 . S
H1028 C1016 0.960 . S
H1029 C1016 0.962 . S
H1030 C1016 0.960 . S
H1031 C1017 0.961 . S
H1032 C1017 0.961 . S
H1033 C1017 0.961 . S
H1034 C1018 0.931 . S
H1035 C1023 0.930 . S
H1036 C1024 0.956 . S
H1037 C1024 0.961 . S
H1038 C1024 0.961 . S
H1039 C1025 0.958 . S
H1040 C1025 0.961 . S
H1041 C1025 0.960 . S
C1042 C1043 1.391 . S
C1042 C1044 1.394 . S
C1042 H1058 0.931 . S
C1043 C1042 1.391 . S
C1043 C1047 1.376 . S
C1044 C1042 1.394 . S
C1044 C1045 1.369 . S
C1044 C1048 1.531 . S
C1045 C1044 1.369 . S
C1045 C1046 1.410 . S
C1045 C1053 1.503 . S
C1046 C1045 1.410 . S
C1046 C1047 1.392 . S
C1046 C1049 1.511 . S
C1047 C1043 1.376 . S
C1047 C1046 1.392 . S
C1047 H1059 0.929 . S
C1048 C1044 1.531 . S
C1048 H1060 0.960 . S
C1048 H1061 0.962 . S
C1048 H1062 0.960 . S
C1049 C1046 1.511 . S
C1049 H1063 0.961 . S
C1049 H1064 0.961 . S
C1049 H1065 0.961 . S
C1050 C1051 1.370 . S
C1050 C1052 1.363 . S
C1050 H1066 0.931 . S
C1051 C1050 1.370 . S
C1051 C1055 1.408 . S
C1052 C1050 1.363 . S
C1052 C1053 1.370 . S
C1052 C1056 1.524 . S
C1053 C1045 1.503 . S
C1053 C1052 1.370 . S
C1053 C1054 1.403 . S
C1054 C1053 1.403 . S
C1054 C1055 1.404 . S
C1054 C1057 1.539 . S
C1055 C1051 1.408 . S
C1055 C1054 1.404 . S
C1055 H1067 0.930 . S
C1056 C1052 1.524 . S
C1056 H1068 0.956 . S
C1056 H1069 0.961 . S
C1056 H1070 0.961 . S
C1057 C1054 1.539 . S
C1057 H1071 0.958 . S
C1057 H1072 0.961 . S
C1057 H1073 0.960 . S
H1058 C1042 0.931 . S
H1059 C1047 0.929 . S
H1060 C1048 0.960 . S
H1061 C1048 0.962 . S
H1062 C1048 0.960 . S
H1063 C1049 0.961 . S
H1064 C1049 0.961 . S
H1065 C1049 0.961 . S
H1066 C1050 0.931 . S
H1067 C1055 0.930 . S
H1068 C1056 0.956 . S
H1069 C1056 0.961 . S
H1070 C1056 0.961 . S
H1071 C1057 0.958 . S
H1072 C1057 0.961 . S
H1073 C1057 0.960 . S
C1074 C1075 1.391 . S
C1074 C1076 1.394 . S
C1074 H1090 0.931 . S
C1075 C1074 1.391 . S
C1075 C1079 1.376 . S
C1076 C1074 1.394 . S
C1076 C1077 1.369 . S
C1076 C1080 1.531 . S
C1077 C1076 1.369 . S
C1077 C1078 1.410 . S
C1077 C1085 1.503 . S
C1078 C1077 1.410 . S
C1078 C1079 1.392 . S
C1078 C1081 1.511 . S
C1079 C1075 1.376 . S
C1079 C1078 1.392 . S
C1079 H1091 0.929 . S
C1080 C1076 1.531 . S
C1080 H1092 0.960 . S
C1080 H1093 0.962 . S
C1080 H1094 0.960 . S
C1081 C1078 1.511 . S
C1081 H1095 0.961 . S
C1081 H1096 0.961 . S
C1081 H1097 0.961 . S
C1082 C1083 1.370 . S
C1082 C1084 1.363 . S
C1082 H1098 0.931 . S
C1083 C1082 1.370 . S
C1083 C1087 1.408 . S
C1084 C1082 1.363 . S
C1084 C1085 1.370 . S
C1084 C1088 1.524 . S
C1085 C1077 1.503 . S
C1085 C1084 1.370 . S
C1085 C1086 1.403 . S
C1086 C1085 1.403 . S
C1086 C1087 1.404 . S
C1086 C1089 1.539 . S
C1087 C1083 1.408 . S
C1087 C1086 1.404 . S
C1087 H1099 0.930 . S
C1088 C1084 1.524 . S
C1088 H1100 0.956 . S
C1088 H1101 0.961 . S
C1088 H1102 0.961 . S
C1089 C1086 1.539 . S
C1089 H1103 0.958 . S
C1089 H1104 0.961 . S
C1089 H1105 0.960 . S
H1090 C1074 0.931 . S
H1091 C1079 0.929 . S
H1092 C1080 0.960 . S
H1093 C1080 0.962 . S
H1094 C1080 0.960 . S
H1095 C1081 0.961 . S
H1096 C1081 0.961 . S
H1097 C1081 0.961 . S
H1098 C1082 0.931 . S
H1099 C1087 0.930 . S
H1100 C1088 0.956 . S
H1101 C1088 0.961 . S
H1102 C1088 0.961 . S
H1103 C1089 0.958 . S
H1104 C1089 0.961 . S
H1105 C1089 0.960 . S
C1106 C1107 1.391 . S
C1106 C1108 1.394 . S
C1106 H1122 0.931 . S
C1107 C1106 1.391 . S
C1107 C1111 1.376 . S
C1108 C1106 1.394 . S
C1108 C1109 1.369 . S
C1108 C1112 1.531 . S
C1109 C1108 1.369 . S
C1109 C1110 1.410 . S
C1109 C1117 1.503 . S
C1110 C1109 1.410 . S
C1110 C1111 1.392 . S
C1110 C1113 1.511 . S
C1111 C1107 1.376 . S
C1111 C1110 1.392 . S
C1111 H1123 0.929 . S
C1112 C1108 1.531 . S
C1112 H1124 0.960 . S
C1112 H1125 0.962 . S
C1112 H1126 0.960 . S
C1113 C1110 1.511 . S
C1113 H1127 0.961 . S
C1113 H1128 0.961 . S
C1113 H1129 0.961 . S
C1114 C1115 1.370 . S
C1114 C1116 1.363 . S
C1114 H1130 0.931 . S
C1115 C1114 1.370 . S
C1115 C1119 1.408 . S
C1116 C1114 1.363 . S
C1116 C1117 1.370 . S
C1116 C1120 1.524 . S
C1117 C1109 1.503 . S
C1117 C1116 1.370 . S
C1117 C1118 1.403 . S
C1118 C1117 1.403 . S
C1118 C1119 1.404 . S
C1118 C1121 1.539 . S
C1119 C1115 1.408 . S
C1119 C1118 1.404 . S
C1119 H1131 0.930 . S
C1120 C1116 1.524 . S
C1120 H1132 0.956 . S
C1120 H1133 0.961 . S
C1120 H1134 0.961 . S
C1121 C1118 1.539 . S
C1121 H1135 0.958 . S
C1121 H1136 0.961 . S
C1121 H1137 0.960 . S
H1122 C1106 0.931 . S
H1123 C1111 0.929 . S
H1124 C1112 0.960 . S
H1125 C1112 0.962 . S
H1126 C1112 0.960 . S
H1127 C1113 0.961 . S
H1128 C1113 0.961 . S
H1129 C1113 0.961 . S
H1130 C1114 0.931 . S
H1131 C1119 0.930 . S
H1132 C1120 0.956 . S
H1133 C1120 0.961 . S
H1134 C1120 0.961 . S
H1135 C1121 0.958 . S
H1136 C1121 0.961 . S
H1137 C1121 0.960 . S
C1138 C1139 1.391 . S
C1138 C1140 1.394 . S
C1138 H1154 0.931 . S
C1139 C1138 1.391 . S
C1139 C1143 1.376 . S
C1140 C1138 1.394 . S
C1140 C1141 1.369 . S
C1140 C1144 1.531 . S
C1141 C1140 1.369 . S
C1141 C1142 1.410 . S
C1141 C1149 1.503 . S
C1142 C1141 1.410 . S
C1142 C1143 1.392 . S
C1142 C1145 1.511 . S
C1143 C1139 1.376 . S
C1143 C1142 1.392 . S
C1143 H1155 0.929 . S
C1144 C1140 1.531 . S
C1144 H1156 0.960 . S
C1144 H1157 0.962 . S
C1144 H1158 0.960 . S
C1145 C1142 1.511 . S
C1145 H1159 0.961 . S
C1145 H1160 0.961 . S
C1145 H1161 0.961 . S
C1146 C1147 1.370 . S
C1146 C1148 1.363 . S
C1146 H1162 0.931 . S
C1147 C1146 1.370 . S
C1147 C1151 1.408 . S
C1148 C1146 1.363 . S
C1148 C1149 1.370 . S
C1148 C1152 1.524 . S
C1149 C1141 1.503 . S
C1149 C1148 1.370 . S
C1149 C1150 1.403 . S
C1150 C1149 1.403 . S
C1150 C1151 1.404 . S
C1150 C1153 1.539 . S
C1151 C1147 1.408 . S
C1151 C1150 1.404 . S
C1151 H1163 0.930 . S
C1152 C1148 1.524 . S
C1152 H1164 0.956 . S
C1152 H1165 0.961 . S
C1152 H1166 0.961 . S
C1153 C1150 1.539 . S
C1153 H1167 0.958 . S
C1153 H1168 0.961 . S
C1153 H1169 0.960 . S
H1154 C1138 0.931 . S
H1155 C1143 0.929 . S
H1156 C1144 0.960 . S
H1157 C1144 0.962 . S
H1158 C1144 0.960 . S
H1159 C1145 0.961 . S
H1160 C1145 0.961 . S
H1161 C1145 0.961 . S
H1162 C1146 0.931 . S
H1163 C1151 0.930 . S
H1164 C1152 0.956 . S
H1165 C1152 0.961 . S
H1166 C1152 0.961 . S
H1167 C1153 0.958 . S
H1168 C1153 0.961 . S
H1169 C1153 0.960 . S
C403 C39 1.696 . S
C411 C319 1.689 . S
C435 C91 1.702 . S
C443 C344 1.699 . S
C475 C347 1.525 . S
C467 C128 1.555 . S
C507 C373 1.494 . S
C499 C188 1.524 . S
C539 C374 1.613 . S
C531 C250 1.640 . S
C571 C401 1.638 . S
C563 C304 1.664 . S
C595 C75 1.574 . S
C603 C346 1.553 . S
C627 C144 1.692 . S
C635 C372 1.676 . S
C667 C375 1.644 . S
C659 C198 1.654 . S
C699 C400 1.485 . S
C691 C234 1.497 . S
C723 C294 1.509 . S
C731 C318 1.492 . S
C763 C345 1.523 . S
C755 C29 1.543 . S
C795 C360 1.682 . S
C787 C38 1.706 . S
C819 C92 1.706 . S
C827 C387 1.696 . S
C859 C388 1.541 . S
C851 C135 1.548 . S
C883 C181 1.511 . S
C891 C330 1.510 . S
C915 C251 1.634 . S
C923 C333 1.622 . S
C947 C303 1.670 . S
C955 C358 1.636 . S
C979 C82 1.568 . S
C987 C389 1.566 . S
C1019 C331 1.684 . S
C1011 C145 1.687 . S
C1043 C197 1.659 . S
C1051 C332 1.633 . S
C1075 C241 1.500 . S
C1083 C359 1.488 . S
C1107 C287 1.508 . S
C1115 C361 1.491 . S
C1139 C22 1.537 . S
C1147 C386 1.534 . S
