# Generated by pormake.
# Topology soc, (4,6)-cn, num edge types: 1
# Building blocks:
#     Node 0, Type 0, BuildingBlock: ESEHIV_clean_sbu_0, # of connection points: 4
#     Node 1, Type 0, BuildingBlock: ESEHIV_clean_sbu_0, # of connection points: 4
#     Node 2, Type 0, BuildingBlock: ESEHIV_clean_sbu_0, # of connection points: 4
#     Node 3, Type 0, BuildingBlock: ESEHIV_clean_sbu_0, # of connection points: 4
#     Node 4, Type 0, BuildingBlock: ESEHIV_clean_sbu_0, # of connection points: 4
#     Node 5, Type 0, BuildingBlock: ESEHIV_clean_sbu_0, # of connection points: 4
#     Node 6, Type 0, BuildingBlock: ESEHIV_clean_sbu_0, # of connection points: 4
#     Node 7, Type 0, BuildingBlock: ESEHIV_clean_sbu_0, # of connection points: 4
#     Node 8, Type 0, BuildingBlock: ESEHIV_clean_sbu_0, # of connection points: 4
#     Node 9, Type 0, BuildingBlock: ESEHIV_clean_sbu_0, # of connection points: 4
#     Node 10, Type 0, BuildingBlock: ESEHIV_clean_sbu_0, # of connection points: 4
#     Node 11, Type 0, BuildingBlock: ESEHIV_clean_sbu_0, # of connection points: 4
#     Node 12, Type 1, BuildingBlock: BETDIP_clean_sbu_0, # of connection points: 6
#     Node 13, Type 1, BuildingBlock: BETDIP_clean_sbu_0, # of connection points: 6
#     Node 14, Type 1, BuildingBlock: BETDIP_clean_sbu_0, # of connection points: 6
#     Node 15, Type 1, BuildingBlock: BETDIP_clean_sbu_0, # of connection points: 6
#     Node 16, Type 1, BuildingBlock: BETDIP_clean_sbu_0, # of connection points: 6
#     Node 17, Type 1, BuildingBlock: BETDIP_clean_sbu_0, # of connection points: 6
#     Node 18, Type 1, BuildingBlock: BETDIP_clean_sbu_0, # of connection points: 6
#     Node 19, Type 1, BuildingBlock: BETDIP_clean_sbu_0, # of connection points: 6
#     Edge 20, Type (0, 1), BuildingBlock: MIFKUJ_clean_linker_0, # of connection points: 2
#     Edge 21, Type (0, 1), BuildingBlock: MIFKUJ_clean_linker_0, # of connection points: 2
#     Edge 22, Type (0, 1), BuildingBlock: MIFKUJ_clean_linker_0, # of connection points: 2
#     Edge 23, Type (0, 1), BuildingBlock: MIFKUJ_clean_linker_0, # of connection points: 2
#     Edge 24, Type (0, 1), BuildingBlock: MIFKUJ_clean_linker_0, # of connection points: 2
#     Edge 25, Type (0, 1), BuildingBlock: MIFKUJ_clean_linker_0, # of connection points: 2
#     Edge 26, Type (0, 1), BuildingBlock: MIFKUJ_clean_linker_0, # of connection points: 2
#     Edge 27, Type (0, 1), BuildingBlock: MIFKUJ_clean_linker_0, # of connection points: 2
#     Edge 28, Type (0, 1), BuildingBlock: MIFKUJ_clean_linker_0, # of connection points: 2
#     Edge 29, Type (0, 1), BuildingBlock: MIFKUJ_clean_linker_0, # of connection points: 2
#     Edge 30, Type (0, 1), BuildingBlock: MIFKUJ_clean_linker_0, # of connection points: 2
#     Edge 31, Type (0, 1), BuildingBlock: MIFKUJ_clean_linker_0, # of connection points: 2
#     Edge 32, Type (0, 1), BuildingBlock: MIFKUJ_clean_linker_0, # of connection points: 2
#     Edge 33, Type (0, 1), BuildingBlock: MIFKUJ_clean_linker_0, # of connection points: 2
#     Edge 34, Type (0, 1), BuildingBlock: MIFKUJ_clean_linker_0, # of connection points: 2
#     Edge 35, Type (0, 1), BuildingBlock: MIFKUJ_clean_linker_0, # of connection points: 2
#     Edge 36, Type (0, 1), BuildingBlock: MIFKUJ_clean_linker_0, # of connection points: 2
#     Edge 37, Type (0, 1), BuildingBlock: MIFKUJ_clean_linker_0, # of connection points: 2
#     Edge 38, Type (0, 1), BuildingBlock: MIFKUJ_clean_linker_0, # of connection points: 2
#     Edge 39, Type (0, 1), BuildingBlock: MIFKUJ_clean_linker_0, # of connection points: 2
#     Edge 40, Type (0, 1), BuildingBlock: MIFKUJ_clean_linker_0, # of connection points: 2
#     Edge 41, Type (0, 1), BuildingBlock: MIFKUJ_clean_linker_0, # of connection points: 2
#     Edge 42, Type (0, 1), BuildingBlock: MIFKUJ_clean_linker_0, # of connection points: 2
#     Edge 43, Type (0, 1), BuildingBlock: MIFKUJ_clean_linker_0, # of connection points: 2
#     Edge 44, Type (0, 1), BuildingBlock: MIFKUJ_clean_linker_0, # of connection points: 2
#     Edge 45, Type (0, 1), BuildingBlock: MIFKUJ_clean_linker_0, # of connection points: 2
#     Edge 46, Type (0, 1), BuildingBlock: MIFKUJ_clean_linker_0, # of connection points: 2
#     Edge 47, Type (0, 1), BuildingBlock: MIFKUJ_clean_linker_0, # of connection points: 2
#     Edge 48, Type (0, 1), BuildingBlock: MIFKUJ_clean_linker_0, # of connection points: 2
#     Edge 49, Type (0, 1), BuildingBlock: MIFKUJ_clean_linker_0, # of connection points: 2
#     Edge 50, Type (0, 1), BuildingBlock: MIFKUJ_clean_linker_0, # of connection points: 2
#     Edge 51, Type (0, 1), BuildingBlock: MIFKUJ_clean_linker_0, # of connection points: 2
#     Edge 52, Type (0, 1), BuildingBlock: MIFKUJ_clean_linker_0, # of connection points: 2
#     Edge 53, Type (0, 1), BuildingBlock: MIFKUJ_clean_linker_0, # of connection points: 2
#     Edge 54, Type (0, 1), BuildingBlock: MIFKUJ_clean_linker_0, # of connection points: 2
#     Edge 55, Type (0, 1), BuildingBlock: MIFKUJ_clean_linker_0, # of connection points: 2
#     Edge 56, Type (0, 1), BuildingBlock: MIFKUJ_clean_linker_0, # of connection points: 2
#     Edge 57, Type (0, 1), BuildingBlock: MIFKUJ_clean_linker_0, # of connection points: 2
#     Edge 58, Type (0, 1), BuildingBlock: MIFKUJ_clean_linker_0, # of connection points: 2
#     Edge 59, Type (0, 1), BuildingBlock: MIFKUJ_clean_linker_0, # of connection points: 2
#     Edge 60, Type (0, 1), BuildingBlock: MIFKUJ_clean_linker_0, # of connection points: 2
#     Edge 61, Type (0, 1), BuildingBlock: MIFKUJ_clean_linker_0, # of connection points: 2
#     Edge 62, Type (0, 1), BuildingBlock: MIFKUJ_clean_linker_0, # of connection points: 2
#     Edge 63, Type (0, 1), BuildingBlock: MIFKUJ_clean_linker_0, # of connection points: 2
#     Edge 64, Type (0, 1), BuildingBlock: MIFKUJ_clean_linker_0, # of connection points: 2
#     Edge 65, Type (0, 1), BuildingBlock: MIFKUJ_clean_linker_0, # of connection points: 2
#     Edge 66, Type (0, 1), BuildingBlock: MIFKUJ_clean_linker_0, # of connection points: 2
#     Edge 67, Type (0, 1), BuildingBlock: MIFKUJ_clean_linker_0, # of connection points: 2
# Relax obj value: 0.191
# Max RMSD: 0.249
# Mean RMSD: 0.183
data_MOF--net-soc--node1-ESEHIV_clean_sbu_0--node2-BETDIP_clean_sbu_0--edge1-MIFKUJ_clean_linker_0
_symmetry_space_group_name_H-M    P1
_symmetry_Int_Tables_number       1
_symmetry_cell_setting            triclinic
loop_
_symmetry_equiv_pos_as_xyz
'x, y, z'
_cell_length_a     59.119371
_cell_length_b     68.10263
_cell_length_c     54.954758
_cell_angle_alpha  91.438585
_cell_angle_beta   91.52842
_cell_angle_gamma 74.492835
loop_
_atom_site_label
_atom_site_type_symbol
_atom_site_fract_x
_atom_site_fract_y
_atom_site_fract_z
_atom_type_partial_charge
Cu0 Cu 0.03065 0.0435 0.3 0.0
N1 N 0.04713 0.05639 0.32155 0.0
N2 N 0.06735 0.07819 0.33465 0.0
C3 C 0.05517 0.07237 0.31594 0.0
C4 C 0.06692 0.06521 0.35274 0.0
C5 C 0.0545 0.05175 0.34457 0.0
O6 O 0.05447 0.02225 0.28224 0.0
C7 C 0.99207 0.07711 0.29418 0.0
O8 O 0.9913 0.07353 0.31744 0.0
H9 H 0.05264 0.07911 0.29812 0.0
H10 H 0.05143 0.03927 0.35458 0.0
N11 N 1.01235 0.02999 0.31685 0.0
N12 N 0.99018 0.0089 0.32355 0.0
C13 C 1.00349 0.01512 0.30744 0.0
C14 C 1.00449 0.03318 0.33979 0.0
C15 C 0.99066 0.02026 0.34392 0.0
C16 C 0.06482 0.00664 0.29475 0.0
O17 O 0.05893 0.006 0.31752 0.0
H18 H 1.00636 0.0093 0.28894 0.0
H19 H 1.00813 0.0444 0.35246 0.0
O20 O 1.00856 0.06558 0.28159 0.0
H21 H 0.07505 0.0653 0.3706 0.0
H22 H 0.9817 0.01924 0.36058 0.0
Cu23 Cu 1.01995 0.0426 0.74946 0.0
N24 N 1.00143 0.03045 0.72934 0.0
N25 N 0.97953 0.00925 0.71894 0.0
C26 C 0.99345 0.01476 0.73621 0.0
C27 C 0.97873 0.02215 0.70044 0.0
C28 C 0.9922 0.03526 0.70695 0.0
O29 O 0.99786 0.06387 0.76869 0.0
C30 C 0.05602 0.00781 0.75072 0.0
O31 O 0.05262 0.01175 0.72743 0.0
H32 H 0.99733 0.00797 0.75394 0.0
H33 H 0.99472 0.0476 0.69629 0.0
N34 N 0.03798 0.056 0.73202 0.0
N35 N 0.06122 0.07637 0.72571 0.0
C36 C 0.04925 0.06898 0.7422 0.0
C37 C 0.04296 0.05504 0.7082 0.0
C38 C 0.05732 0.06759 0.70425 0.0
C39 C 0.98725 0.07957 0.75649 0.0
O40 O 0.99197 0.08009 0.73334 0.0
H41 H 0.04889 0.07266 0.76148 0.0
H42 H 0.03679 0.04578 0.69468 0.0
O43 O 0.0427 0.01986 0.76586 0.0
H44 H 0.96908 0.02223 0.68342 0.0
H45 H 0.06413 0.07019 0.68688 0.0
Cu46 Cu 0.2327 0.09789 0.01672 0.0
N47 N 0.20843 0.0886 1.00253 0.0
N48 N 0.19086 0.06568 0.98727 0.0
C49 C 0.20828 0.06891 1.00176 0.0
C50 C 0.17946 0.0841 0.97854 0.0
C51 C 0.19025 0.0983 0.98818 0.0
O52 O 0.25291 0.07434 0.0332 0.0
C53 C 0.2373 0.12543 0.98209 0.0
O54 O 0.2168 0.13508 0.99092 0.0
H55 H 0.22187 0.05687 1.01004 0.0
H56 H 0.18591 0.1143 0.98393 0.0
N57 N 0.22101 0.11841 0.03974 0.0
N58 N 0.22056 0.13902 0.07196 0.0
C59 C 0.23394 0.12687 0.05513 0.0
C60 C 0.19866 0.12561 0.04688 0.0
C61 C 0.19834 0.1383 0.06689 0.0
C62 C 0.24579 0.06948 0.05331 0.0
O63 O 0.22663 0.08135 0.06269 0.0
H64 H 0.25292 0.12318 0.05491 0.0
H65 H 0.18384 0.12117 0.03882 0.0
O66 O 0.24834 0.10848 0.99127 0.0
H67 H 0.16516 0.0869 0.96526 0.0
H68 H 0.18311 0.14595 0.07731 0.0
Cu69 Cu 0.02724 0.30982 0.02539 0.0
N70 N 0.04292 0.32502 1.00716 0.0
N71 N 0.06816 0.33112 0.9804 0.0
C72 C 0.05606 0.31802 0.98745 0.0
C73 C 0.06228 0.34702 0.99631 0.0
C74 C 0.04682 0.34319 0.01278 0.0
O75 O 0.05194 0.29541 0.04968 0.0
C76 C 0.99714 0.30803 0.98581 0.0
O77 O 0.99737 0.32727 0.98691 0.0
H78 H 0.05769 0.30309 0.97927 0.0
H79 H 0.03982 0.3526 0.0284 0.0
N80 N 1.00255 0.32601 0.04382 0.0
N81 N 0.97235 0.33319 0.06938 0.0
C82 C 0.98996 0.31848 0.05949 0.0
C83 C 0.9925 0.34622 0.04362 0.0
C84 C 0.97398 0.35071 0.05948 0.0
C85 C 0.05681 0.30678 0.06708 0.0
O86 O 0.04462 0.32596 0.06804 0.0
H87 H 0.99367 0.30243 0.06343 0.0
H88 H 0.99782 0.35689 0.03232 0.0
O89 O 1.01025 0.29587 1.00122 0.0
H90 H 0.06908 0.36028 0.99641 0.0
H91 H 0.96219 0.36563 0.06285 0.0
Cu92 Cu 0.81078 0.99071 1.0068 0.0
N93 N 0.83511 0.99895 0.99314 0.0
N94 N 0.8525 0.02071 0.97684 0.0
C95 C 0.83409 0.01857 0.98945 0.0
C96 C 0.86572 1.00154 0.97236 0.0
C97 C 0.85492 0.9881 0.9825 0.0
O98 O 0.79106 0.01524 0.02218 0.0
C99 C 0.80458 0.96105 0.97378 0.0
O100 O 0.82422 0.95106 0.9846 0.0
H101 H 0.81926 0.03099 0.99465 0.0
H102 H 0.86061 0.97164 0.98136 0.0
N103 N 0.82207 0.97109 0.03045 0.0
N104 N 0.82222 0.95018 0.06114 0.0
C105 C 0.80889 0.9638 0.04561 0.0
C106 C 0.84451 0.96182 0.03653 0.0
C107 C 0.84467 0.94885 0.05542 0.0
C108 C 0.7976 0.02054 0.04305 0.0
O109 O 0.81593 0.00852 0.05403 0.0
H110 H 0.78989 0.96844 0.04519 0.0
H111 H 0.85968 0.9645 0.02805 0.0
O112 O 0.79485 0.97925 0.98082 0.0
H113 H 0.88165 0.99748 0.96197 0.0
H114 H 0.86011 0.93955 0.06461 0.0
Cu115 Cu 0.02364 0.7796 0.01543 0.0
N116 N 1.0103 0.76456 0.99266 0.0
N117 N 0.98622 0.75826 0.96295 0.0
C118 C 0.99131 0.77242 0.9783 0.0
C119 C 1.00274 0.74079 0.96795 0.0
C120 C 1.01752 0.74471 0.98624 0.0
O121 O 0.99818 0.79293 0.03868 0.0
C122 C 0.05558 0.78443 0.98105 0.0
O123 O 0.05856 0.76463 0.98054 0.0
H124 H 0.98172 0.78836 0.97883 0.0
H125 H 0.03261 0.73388 0.99409 0.0
N126 N 0.04749 0.76339 0.03503 0.0
N127 N 0.07814 0.75655 0.06142 0.0
C128 C 0.06504 0.77002 0.04548 0.0
C129 C 0.04942 0.74502 0.04455 0.0
C130 C 0.06832 0.74072 0.06073 0.0
C131 C 0.98599 0.78141 0.04656 0.0
O132 O 0.99059 0.76256 0.03819 0.0
H133 H 0.06762 0.78479 0.04182 0.0
H134 H 0.03736 0.7358 0.04083 0.0
O135 O 0.04026 0.79539 0.99551 0.0
H136 H 1.004 0.72614 0.95918 0.0
H137 H 0.07364 0.72734 0.07188 0.0
Cu138 Cu 0.52019 0.5425 0.79018 0.0
N139 N 0.53796 0.55641 0.80906 0.0
N140 N 0.55949 0.57832 0.81741 0.0
C141 C 0.54579 0.57178 0.80078 0.0
C142 C 0.5603 0.56651 0.83698 0.0
C143 C 0.54703 0.553 0.83176 0.0
O144 O 0.54351 0.52031 0.77318 0.0
C145 C 0.48371 0.57674 0.78726 0.0
O146 O 0.48872 0.57438 0.81062 0.0
H147 H 0.54209 0.57753 0.78251 0.0
H148 H 0.54467 0.54124 0.8435 0.0
N149 N 0.50262 0.52953 0.80892 0.0
N150 N 0.48031 0.5087 0.8171 0.0
C151 C 0.49174 0.51585 0.79983 0.0
C152 C 0.49788 0.53128 0.8328 0.0
C153 C 0.48418 0.51843 0.83791 0.0
C154 C 0.55474 0.50642 0.78772 0.0
O155 O 0.54956 0.5085 0.81089 0.0
H156 H 0.4921 0.51147 0.78077 0.0
H157 H 0.50385 0.54122 0.8456 0.0
O158 O 0.49638 0.5638 0.77243 0.0
H159 H 0.56988 0.56745 0.85383 0.0
H160 H 0.47786 0.51631 0.85568 0.0
Cu161 Cu 0.52911 0.54013 0.2421 0.0
N162 N 0.51043 0.52746 0.22282 0.0
N163 N 0.48567 0.50851 0.21396 0.0
C164 C 0.49445 0.51877 0.23151 0.0
C165 C 0.49651 0.51094 0.19338 0.0
C166 C 0.5118 0.52261 0.1989 0.0
O167 O 0.50777 0.56105 0.26251 0.0
C168 C 0.56637 0.5057 0.24208 0.0
O169 O 0.56291 0.51011 0.21891 0.0
H170 H 0.49039 0.519 0.25062 0.0
H171 H 0.52388 0.52636 0.18657 0.0
N172 N 0.5448 0.55454 0.22328 0.0
N173 N 0.56909 0.57355 0.21511 0.0
C174 C 0.56304 0.56137 0.23135 0.0
C175 C 0.53903 0.56263 0.20115 0.0
C176 C 0.55405 0.57427 0.19601 0.0
C177 C 0.49207 0.57416 0.25057 0.0
O178 O 0.49101 0.57223 0.22678 0.0
H179 H 0.57121 0.55786 0.24913 0.0
H180 H 0.52421 0.56111 0.19005 0.0
O181 O 0.55336 0.5177 0.25751 0.0
H182 H 0.49406 0.5043 0.17573 0.0
H183 H 0.55307 0.58342 0.18 0.0
Cu184 Cu 0.74676 0.59597 0.5084 0.0
N185 N 0.74631 0.61402 0.48335 0.0
N186 N 0.75623 0.62944 0.4516 0.0
C187 C 0.76368 0.61482 0.46834 0.0
C188 C 0.73349 0.63827 0.45641 0.0
C189 C 0.72747 0.62882 0.47612 0.0
O190 O 0.74706 0.60989 0.53969 0.0
C191 C 0.71516 0.5783 0.48358 0.0
O192 O 0.72073 0.58736 0.46472 0.0
H193 H 0.78122 0.60466 0.46933 0.0
H194 H 0.71043 0.63221 0.4844 0.0
N195 N 0.77228 0.5732 0.50683 0.0
N196 N 0.78452 0.5404 0.51731 0.0
C197 C 0.77615 0.55994 0.52513 0.0
C198 C 0.77926 0.56182 0.48665 0.0
C199 C 0.787 0.54163 0.49307 0.0
C200 C 0.76343 0.61849 0.54402 0.0
O201 O 0.77926 0.6174 0.52734 0.0
H202 H 0.76976 0.5645 0.54319 0.0
H203 H 0.77552 0.56731 0.46829 0.0
O204 O 0.72112 0.58325 0.50482 0.0
H205 H 0.7221 0.65074 0.44646 0.0
H206 H 0.79121 0.52881 0.48042 0.0
Cu207 Cu 0.53053 0.7912 0.51855 0.0
N208 N 0.55184 0.77681 0.49431 0.0
N209 N 0.57802 0.77204 0.46393 0.0
C210 C 0.56904 0.7834 0.48382 0.0
C211 C 0.56602 0.75778 0.46177 0.0
C212 C 0.5501 0.76066 0.48044 0.0
O213 O 0.54804 0.80618 0.53935 0.0
C214 C 0.49004 0.79606 0.4915 0.0
O215 O 0.49585 0.77656 0.49641 0.0
H216 H 0.57395 0.79698 0.48984 0.0
H217 H 0.53736 0.75212 0.48297 0.0
N218 N 0.51823 0.77584 0.54105 0.0
N219 N 0.49477 0.76979 0.57028 0.0
C220 C 0.49739 0.78251 0.55256 0.0
C221 C 0.52909 0.75823 0.55194 0.0
C222 C 0.51479 0.75452 0.56988 0.0
C223 C 0.56762 0.79495 0.54733 0.0
O224 O 0.57398 0.77573 0.54025 0.0
H225 H 0.48481 0.79692 0.54874 0.0
H226 H 0.54657 0.74907 0.54777 0.0
O227 O 0.50318 0.80696 0.49982 0.0
H228 H 0.56822 0.74634 0.44735 0.0
H229 H 0.51898 0.74166 0.58193 0.0
Cu230 Cu 0.31465 0.48754 0.52577 0.0
N231 N 0.33591 0.49862 0.51025 0.0
N232 N 0.3489 0.52223 0.49169 0.0
C233 C 0.33165 0.51845 0.50488 0.0
C234 C 0.36472 0.50396 0.48866 0.0
C235 C 0.35666 0.4894 0.50022 0.0
O236 O 0.29141 0.51094 0.53846 0.0
C237 C 0.31212 0.45519 0.49419 0.0
O238 O 0.33293 0.4467 0.5038 0.0
H239 H 0.3156 0.52973 0.50959 0.0
H240 H 0.36499 0.47321 0.50069 0.0
N241 N 0.32915 0.47099 0.55146 0.0
N242 N 0.3331 0.45127 0.58413 0.0
C243 C 0.32008 0.45823 0.56398 0.0
C244 C 0.34885 0.47183 0.56376 0.0
C245 C 0.35135 0.45969 0.5839 0.0
C246 C 0.27975 0.51171 0.55772 0.0
O247 O 0.2809 0.49492 0.56946 0.0
H248 H 0.30336 0.45531 0.5593 0.0
H249 H 0.35997 0.4814 0.55906 0.0
O250 O 0.30078 0.47276 0.50178 0.0
H251 H 0.38074 0.50125 0.47853 0.0
H252 H 0.36513 0.45778 0.5977 0.0
Cu253 Cu 0.52511 0.27619 0.52506 0.0
N254 N 0.54786 0.26118 0.50365 0.0
N255 N 0.57733 0.2551 0.47727 0.0
C256 C 0.56266 0.26916 0.4914 0.0
C257 C 0.57145 0.23755 0.48077 0.0
C258 C 0.55319 0.24136 0.49694 0.0
O259 O 0.54298 0.29087 0.54749 0.0
C260 C 0.48664 0.27781 0.49327 0.0
O261 O 0.49397 0.25838 0.49844 0.0
H262 H 0.56279 0.285 0.49309 0.0
H263 H 0.54435 0.23048 0.50317 0.0
N264 N 0.5135 0.25977 0.54602 0.0
N265 N 0.49114 0.25207 0.57472 0.0
C266 C 0.49363 0.26619 0.55888 0.0
C267 C 0.5238 0.24083 0.55388 0.0
C268 C 0.51012 0.2361 0.57164 0.0
C269 C 0.56046 0.27876 0.55869 0.0
O270 O 0.56488 0.25922 0.5534 0.0
H271 H 0.48174 0.28128 0.5574 0.0
H272 H 0.5405 0.23136 0.54783 0.0
O273 O 0.49772 0.28994 0.50332 0.0
H274 H 0.57945 0.22306 0.47194 0.0
H275 H 0.51396 0.22209 0.58171 0.0
Tb276 Tb 0.25432 0.29129 0.2929 0.0
Tb277 Tb 0.29232 0.30005 0.2602 0.0
C278 C 0.21664 0.28426 0.30505 0.0
C279 C 0.20869 0.26593 0.30946 0.0
C280 C 0.21375 0.24921 0.29305 0.0
C281 C 0.20444 0.23269 0.29643 0.0
C282 C 0.19023 0.23246 0.31642 0.0
C283 C 0.18597 0.24876 0.33334 0.0
C284 C 0.19503 0.26544 0.32979 0.0
C285 C 0.29572 0.28556 0.31746 0.0
C286 C 0.28749 0.25558 0.26148 0.0
C287 C 0.32486 0.3118 0.24235 0.0
C288 C 0.33725 0.32763 0.24731 0.0
C289 C 0.36153 0.32288 0.24408 0.0
C290 C 0.37324 0.33819 0.24555 0.0
C291 C 0.3608 0.35861 0.25008 0.0
C292 C 0.33662 0.36313 0.25461 0.0
C293 C 0.32496 0.34778 0.25328 0.0
C294 C 0.25281 0.298 0.23728 0.0
C295 C 0.26343 0.33398 0.29747 0.0
O296 O 0.22177 0.28691 0.28256 0.0
O297 O 0.23176 0.28846 0.32082 0.0
O298 O 0.29043 0.29038 0.29566 0.0
O299 O 0.27679 0.2825 0.3262 0.0
O300 O 0.26797 0.26235 0.27391 0.0
O301 O 0.30186 0.26699 0.25701 0.0
O302 O 0.32859 0.2968 0.2578 0.0
O303 O 0.30279 0.3183 0.23532 0.0
O304 O 0.25444 0.30583 0.25837 0.0
O305 O 0.2736 0.29237 0.22828 0.0
O306 O 0.28235 0.32695 0.28415 0.0
O307 O 0.24772 0.32364 0.30031 0.0
H308 H 0.22449 0.24906 0.27735 0.0
H309 H 0.20818 0.22013 0.28335 0.0
H310 H 0.17498 0.24891 0.34885 0.0
H311 H 0.19097 0.27814 0.34267 0.0
H312 H 0.37135 0.30741 0.23963 0.0
H313 H 0.39196 0.33409 0.24254 0.0
H314 H 0.32646 0.37867 0.25803 0.0
H315 H 0.30618 0.35183 0.25599 0.0
Tb316 Tb 0.78916 0.30665 0.2957 0.0
Tb317 Tb 0.77217 0.27601 0.26053 0.0
C318 C 0.79496 0.33448 0.32409 0.0
C319 C 0.78366 0.35004 0.34227 0.0
C320 C 0.75918 0.35774 0.34341 0.0
C321 C 0.74931 0.37419 0.35908 0.0
C322 C 0.76378 0.38292 0.37417 0.0
C323 C 0.78824 0.37457 0.3736 0.0
C324 C 0.79804 0.35837 0.35774 0.0
C325 C 0.81855 0.26997 0.28919 0.0
C326 C 0.75128 0.28475 0.31314 0.0
C327 C 0.77077 0.24332 0.23918 0.0
C328 C 0.76748 0.23346 0.21558 0.0
C329 C 0.7835 0.23153 0.19664 0.0
C330 C 0.78245 0.21882 0.17643 0.0
C331 C 0.76532 0.20791 0.17476 0.0
C332 C 0.74854 0.2108 0.19307 0.0
C333 C 0.74969 0.22337 0.21329 0.0
C334 C 0.74427 0.31408 0.25723 0.0
C335 C 0.80539 0.3019 0.24111 0.0
O336 O 0.78748 0.33748 0.30141 0.0
O337 O 0.79966 0.3153 0.33026 0.0
O338 O 0.79649 0.2741 0.29051 0.0
O339 O 0.82489 0.28654 0.29335 0.0
O340 O 0.75999 0.30077 0.31557 0.0
O341 O 0.75683 0.27145 0.29481 0.0
O342 O 0.79015 0.24903 0.24283 0.0
O343 O 0.75232 0.25608 0.24874 0.0
O344 O 0.76221 0.3071 0.27022 0.0
O345 O 0.74173 0.29881 0.24375 0.0
O346 O 0.79752 0.28541 0.23834 0.0
O347 O 0.80117 0.31403 0.26072 0.0
H348 H 0.74772 0.35131 0.33201 0.0
H349 H 0.7304 0.38016 0.3593 0.0
H350 H 0.79988 0.38108 0.38476 0.0
H351 H 0.81698 0.35268 0.35709 0.0
H352 H 0.79747 0.23907 0.19789 0.0
H353 H 0.79553 0.21698 0.16251 0.0
H354 H 0.73531 0.20244 0.19249 0.0
H355 H 0.73729 0.22441 0.22776 0.0
Tb356 Tb 0.80106 0.79336 0.28015 0.0
Tb357 Tb 0.76826 0.77916 0.24408 0.0
C358 C 0.82932 0.80911 0.30294 0.0
C359 C 0.8413 0.82531 0.30007 0.0
C360 C 0.85875 0.82371 0.2827 0.0
C361 C 0.8706 0.83885 0.2813 0.0
C362 C 0.86513 0.856 0.29708 0.0
C363 C 0.84769 0.85745 0.31448 0.0
C364 C 0.83597 0.84228 0.31596 0.0
C365 C 0.76369 0.78547 0.30008 0.0
C366 C 0.77066 0.82411 0.24089 0.0
C367 C 0.73381 0.76818 0.22634 0.0
C368 C 0.72214 0.75216 0.23073 0.0
C369 C 0.73238 0.73604 0.24629 0.0
C370 C 0.72316 0.71919 0.24728 0.0
C371 C 0.70343 0.71833 0.23284 0.0
C372 C 0.69254 0.73509 0.21829 0.0
C373 C 0.70192 0.7518 0.21714 0.0
C374 C 0.80761 0.78034 0.22109 0.0
C375 C 0.80514 0.74726 0.27614 0.0
O376 O 0.8359 0.79273 0.28899 0.0
O377 O 0.8065 0.81515 0.30554 0.0
O378 O 0.76416 0.79375 0.27969 0.0
O379 O 0.78432 0.78245 0.31006 0.0
O380 O 0.78808 0.82006 0.25726 0.0
O381 O 0.75864 0.81094 0.23449 0.0
O382 O 0.7318 0.7826 0.24299 0.0
O383 O 0.75524 0.76158 0.21851 0.0
O384 O 0.80243 0.78432 0.24318 0.0
O385 O 0.78994 0.77506 0.21127 0.0
O386 O 0.78427 0.75209 0.26511 0.0
O387 O 0.81726 0.7608 0.28006 0.0
H388 H 0.86346 0.8107 0.27035 0.0
H389 H 0.88395 0.83711 0.26772 0.0
H390 H 0.84343 0.87009 0.32742 0.0
H391 H 0.82288 0.84369 0.32981 0.0
H392 H 0.74796 0.73616 0.25698 0.0
H393 H 0.73197 0.70659 0.25869 0.0
H394 H 0.67693 0.73519 0.20747 0.0
H395 H 0.69377 0.76416 0.20508 0.0
Tb396 Tb 0.27472 0.78193 0.28566 0.0
Tb397 Tb 0.29539 0.80623 0.25344 0.0
C398 C 0.2658 0.75702 0.31465 0.0
C399 C 0.27759 0.74167 0.33246 0.0
C400 C 0.30187 0.73254 0.33204 0.0
C401 C 0.3121 0.71642 0.3476 0.0
C402 C 0.29821 0.70936 0.36395 0.0
C403 C 0.27403 0.71908 0.36473 0.0
C404 C 0.26385 0.73503 0.34911 0.0
C405 C 0.24677 0.81899 0.27748 0.0
C406 C 0.3137 0.80225 0.30683 0.0
C407 C 0.30568 0.83062 0.22469 0.0
C408 C 0.29675 0.84607 0.20595 0.0
C409 C 0.27593 0.86166 0.20889 0.0
C410 C 0.2703 0.87815 0.19308 0.0
C411 C 0.2853 0.87934 0.17397 0.0
C412 C 0.30547 0.86309 0.17043 0.0
C413 C 0.31111 0.84668 0.18626 0.0
C414 C 0.32298 0.76895 0.26177 0.0
C415 C 0.25649 0.78589 0.23231 0.0
O416 O 0.27128 0.75272 0.29189 0.0
O417 O 0.26404 0.77612 0.32037 0.0
O418 O 0.26885 0.81445 0.28041 0.0
O419 O 0.23983 0.80289 0.28119 0.0
O420 O 0.3042 0.78678 0.30791 0.0
O421 O 0.3098 0.81429 0.28787 0.0
O422 O 0.29882 0.83539 0.24702 0.0
O423 O 0.30724 0.81154 0.219 0.0
O424 O 0.30099 0.77385 0.25866 0.0
O425 O 0.33025 0.78489 0.25821 0.0
O426 O 0.26561 0.80161 0.23128 0.0
O427 O 0.26088 0.77366 0.25109 0.0
H428 H 0.31279 0.73759 0.3194 0.0
H429 H 0.3308 0.7094 0.34672 0.0
H430 H 0.26276 0.71386 0.37682 0.0
H431 H 0.24506 0.74183 0.34959 0.0
H432 H 0.2645 0.86155 0.22393 0.0
H433 H 0.25456 0.89026 0.19626 0.0
H434 H 0.31766 0.86353 0.15622 0.0
H435 H 0.32737 0.8349 0.1838 0.0
Tb436 Tb 0.2842 0.80065 0.79514 0.0
Tb437 Tb 0.2563 0.77989 0.7554 0.0
C438 C 0.29728 0.82721 0.81968 0.0
C439 C 0.28723 0.84435 0.83625 0.0
C440 C 0.26679 0.84529 0.84918 0.0
C441 C 0.25807 0.86147 0.8655 0.0
C442 C 0.26955 0.87699 0.8689 0.0
C443 C 0.28991 0.87599 0.85579 0.0
C444 C 0.29871 0.85976 0.83965 0.0
C445 C 0.30362 0.76061 0.78888 0.0
C446 C 0.23739 0.78899 0.81029 0.0
C447 C 0.24291 0.753 0.73194 0.0
C448 C 0.25144 0.73443 0.71685 0.0
C449 C 0.26673 0.7166 0.72625 0.0
C450 C 0.27192 0.69851 0.71238 0.0
C451 C 0.26185 0.69794 0.68896 0.0
C452 C 0.24728 0.716 0.67937 0.0
C453 C 0.24212 0.73402 0.69319 0.0
C454 C 0.23651 0.81982 0.76134 0.0
C455 C 0.30369 0.79103 0.74059 0.0
O456 O 0.29055 0.82951 0.79668 0.0
O457 O 0.29818 0.80902 0.82778 0.0
O458 O 0.28576 0.77206 0.77891 0.0
O459 O 0.3111 0.77209 0.80462 0.0
O460 O 0.25354 0.79887 0.81588 0.0
O461 O 0.23652 0.77952 0.78887 0.0
O462 O 0.24819 0.75188 0.75535 0.0
O463 O 0.24385 0.77029 0.72244 0.0
O464 O 0.25445 0.80863 0.7716 0.0
O465 O 0.22925 0.80818 0.74566 0.0
O466 O 0.28736 0.78133 0.73491 0.0
O467 O 0.30445 0.80072 0.76192 0.0
H468 H 0.25763 0.83356 0.84667 0.0
H469 H 0.24208 0.86209 0.87504 0.0
H470 H 0.29908 0.88774 0.8581 0.0
H471 H 0.31454 0.8592 0.82985 0.0
H472 H 0.27413 0.71644 0.74451 0.0
H473 H 0.2834 0.68488 0.72017 0.0
H474 H 0.23893 0.71604 0.66157 0.0
H475 H 0.23008 0.74751 0.68568 0.0
Tb476 Tb 0.29862 0.28905 0.79074 0.0
Tb477 Tb 0.25757 0.28427 0.76087 0.0
C478 C 0.33601 0.29719 0.80485 0.0
C479 C 0.34601 0.31466 0.8023 0.0
C480 C 0.34268 0.32612 0.78092 0.0
C481 C 0.35123 0.34337 0.77962 0.0
C482 C 0.36315 0.34949 0.7997 0.0
C483 C 0.36673 0.33773 0.82086 0.0
C484 C 0.35823 0.32054 0.82213 0.0
C485 C 0.25899 0.29654 0.81446 0.0
C486 C 0.27014 0.32511 0.75622 0.0
C487 C 0.22071 0.27613 0.74495 0.0
C488 C 0.20927 0.25962 0.74777 0.0
C489 C 0.21131 0.24883 0.76952 0.0
C490 C 0.20185 0.23212 0.771 0.0
C491 C 0.19 0.22612 0.75084 0.0
C492 C 0.18786 0.23708 0.72918 0.0
C493 C 0.19744 0.25365 0.72768 0.0
C494 C 0.29701 0.27727 0.73684 0.0
C495 C 0.28489 0.2493 0.79747 0.0
O496 O 0.33426 0.28651 0.78511 0.0
O497 O 0.31723 0.30067 0.81803 0.0
O498 O 0.26119 0.30154 0.79282 0.0
O499 O 0.27953 0.28824 0.82392 0.0
O500 O 0.28938 0.3166 0.76897 0.0
O501 O 0.25307 0.3161 0.75267 0.0
O502 O 0.22126 0.28813 0.76386 0.0
O503 O 0.24075 0.27078 0.73385 0.0
O504 O 0.29511 0.27189 0.75845 0.0
O505 O 0.27636 0.28572 0.72788 0.0
O506 O 0.26535 0.25828 0.78538 0.0
O507 O 0.30299 0.25722 0.79877 0.0
H508 H 0.33326 0.32192 0.76534 0.0
H509 H 0.34806 0.35216 0.76311 0.0
H510 H 0.37621 0.34178 0.83649 0.0
H511 H 0.361 0.31191 0.83876 0.0
H512 H 0.22039 0.25319 0.78521 0.0
H513 H 0.20413 0.22367 0.78773 0.0
H514 H 0.17865 0.23289 0.71342 0.0
H515 H 0.19582 0.2617 0.71069 0.0
Tb516 Tb 0.7665 0.28355 0.78805 0.0
Tb517 Tb 0.78778 0.30809 0.75736 0.0
C518 C 0.75845 0.25739 0.81554 0.0
C519 C 0.77263 0.24155 0.83135 0.0
C520 C 0.79725 0.2358 0.83037 0.0
C521 C 0.81039 0.2197 0.84441 0.0
C522 C 0.79907 0.20944 0.85992 0.0
C523 C 0.77446 0.21567 0.86131 0.0
C524 C 0.76135 0.23156 0.84707 0.0
C525 C 0.74061 0.3217 0.78426 0.0
C526 C 0.8101 0.29881 0.80942 0.0
C527 C 0.79842 0.33323 0.73017 0.0
C528 C 0.78897 0.349 0.71191 0.0
C529 C 0.78933 0.36914 0.71737 0.0
C530 C 0.78456 0.38375 0.69927 0.0
C531 C 0.77943 0.3785 0.67525 0.0
C532 C 0.77789 0.35857 0.67003 0.0
C533 C 0.78262 0.34393 0.68821 0.0
C534 C 0.81326 0.26972 0.76138 0.0
C535 C 0.744 0.29307 0.73607 0.0
O536 O 0.76213 0.25437 0.79221 0.0
O537 O 0.75685 0.27623 0.82244 0.0
O538 O 0.76284 0.31604 0.78577 0.0
O539 O 0.73258 0.30613 0.78753 0.0
O540 O 0.79797 0.28505 0.81004 0.0
O541 O 0.80658 0.31188 0.79137 0.0
O542 O 0.79175 0.33745 0.75267 0.0
O543 O 0.80025 0.31421 0.72388 0.0
O544 O 0.79112 0.27571 0.75948 0.0
O545 O 0.82158 0.28523 0.75903 0.0
O546 O 0.75626 0.30677 0.7353 0.0
O547 O 0.74749 0.27998 0.75413 0.0
H548 H 0.80625 0.24357 0.81854 0.0
H549 H 0.82933 0.21525 0.84315 0.0
H550 H 0.76528 0.20783 0.87289 0.0
H551 H 0.74237 0.23582 0.84801 0.0
H552 H 0.79443 0.37338 0.73542 0.0
H553 H 0.78619 0.39888 0.70385 0.0
H554 H 0.77368 0.35415 0.65175 0.0
H555 H 0.7822 0.3285 0.68342 0.0
Tb556 Tb 0.74591 0.79289 0.77421 0.0
Tb557 Tb 0.78648 0.79858 0.74669 0.0
C558 C 0.70907 0.78467 0.78734 0.0
C559 C 0.69907 0.76696 0.78644 0.0
C560 C 0.6952 0.75727 0.76439 0.0
C561 C 0.68549 0.7406 0.76444 0.0
C562 C 0.67978 0.73322 0.78651 0.0
C563 C 0.68379 0.74293 0.80844 0.0
C564 C 0.69321 0.75964 0.80838 0.0
C565 C 0.78561 0.78703 0.79946 0.0
C566 C 0.77509 0.75699 0.73951 0.0
C567 C 0.82398 0.80576 0.7338 0.0
C568 C 0.83543 0.82246 0.73554 0.0
C569 C 0.83266 0.83588 0.75576 0.0
C570 C 0.84337 0.85192 0.75634 0.0
C571 C 0.85682 0.8548 0.7367 0.0
C572 C 0.85947 0.84136 0.71655 0.0
C573 C 0.84893 0.82531 0.71603 0.0
C574 C 0.74694 0.80446 0.72123 0.0
C575 C 0.7568 0.83458 0.78103 0.0
O576 O 0.71067 0.79355 0.76683 0.0
O577 O 0.7277 0.78283 0.80137 0.0
O578 O 0.78346 0.78143 0.77763 0.0
O579 O 0.76504 0.79514 0.8082 0.0
O580 O 0.75552 0.76513 0.75141 0.0
O581 O 0.79183 0.76644 0.7381 0.0
O582 O 0.82207 0.79651 0.75394 0.0
O583 O 0.80491 0.80922 0.7202 0.0
O584 O 0.74892 0.80999 0.74313 0.0
O585 O 0.76761 0.79653 0.71259 0.0
O586 O 0.77659 0.82639 0.76948 0.0
O587 O 0.74005 0.82513 0.78225 0.0
H588 H 0.69964 0.76252 0.74717 0.0
H589 H 0.68268 0.73334 0.74727 0.0
H590 H 0.67924 0.73779 0.82569 0.0
H591 H 0.69591 0.76691 0.82558 0.0
H592 H 0.82217 0.83405 0.77098 0.0
H593 H 0.8408 0.86232 0.77184 0.0
H594 H 0.86987 0.84319 0.70125 0.0
H595 H 0.8512 0.81514 0.70026 0.0
H596 H 0.05944 0.11008 0.30378 0.0
H597 H 0.08143 0.13555 0.30192 0.0
H598 H 0.1238 0.10904 0.36389 0.0
H599 H 0.1025 0.08294 0.36548 0.0
H600 H 0.10657 0.15321 0.36517 0.0
H601 H 0.14729 0.09812 0.31208 0.0
H602 H 0.14971 0.07323 0.27822 0.0
H603 H 0.12346 0.122 0.2283 0.0
H604 H 0.12055 0.14718 0.26194 0.0
H605 H 0.19212 0.20811 0.3555 0.0
H606 H 0.17239 0.18102 0.3597 0.0
H607 H 0.14192 0.19319 0.28749 0.0
H608 H 0.16269 0.21945 0.28289 0.0
H609 H 0.1539 0.15507 0.29245 0.0
H610 H 0.11089 0.21019 0.34284 0.0
H611 H 0.10532 0.23656 0.37537 0.0
H612 H 0.13157 0.19041 0.42856 0.0
H613 H 0.13758 0.16378 0.39628 0.0
C614 C 0.07355 0.10942 0.31692 0.0
C615 C 0.07931 0.09414 0.33459 0.0
C616 C 0.086 0.12413 0.3159 0.0
C617 C 0.10434 0.12402 0.33262 0.0
C618 C 0.10967 0.10933 0.35082 0.0
C619 C 0.09738 0.09445 0.35172 0.0
C620 C 0.11828 0.13899 0.33069 0.0
C621 C 0.11721 0.15351 0.34946 0.0
C622 C 0.13154 0.13965 0.30985 0.0
C623 C 0.1335 0.12452 0.28957 0.0
C624 C 0.14186 0.10353 0.29391 0.0
C625 C 0.14335 0.08937 0.27476 0.0
C626 C 0.13669 0.09603 0.25113 0.0
C627 C 0.12859 0.11686 0.24661 0.0
C628 C 0.12704 0.13108 0.26571 0.0
C629 C 0.18126 0.20486 0.34056 0.0
C630 C 0.17884 0.21579 0.3189 0.0
C631 C 0.16986 0.18951 0.34299 0.0
C632 C 0.15522 0.18529 0.32411 0.0
C633 C 0.15308 0.19611 0.30234 0.0
C634 C 0.16491 0.21111 0.2997 0.0
C635 C 0.14213 0.16962 0.32689 0.0
C636 C 0.14334 0.15488 0.30825 0.0
C637 C 0.12859 0.16905 0.34766 0.0
C638 C 0.12491 0.18502 0.36711 0.0
C639 C 0.11562 0.20568 0.36145 0.0
C640 C 0.11237 0.22067 0.37984 0.0
C641 C 0.11815 0.21517 0.404 0.0
C642 C 0.12714 0.19466 0.40983 0.0
C643 C 0.13045 0.17961 0.3915 0.0
H644 H 0.11562 0.22679 0.41822 0.0
H645 H 0.13786 0.08504 0.23632 0.0
H646 H 0.9973 0.10876 0.26638 0.0
H647 H 0.96737 0.1412 0.25915 0.0
H648 H 0.91565 0.11763 0.29352 0.0
H649 H 0.94541 0.0856 0.30106 0.0
H650 H 0.89681 0.14203 0.25306 0.0
H651 H 0.94359 0.14493 0.32649 0.0
H652 H 0.98103 0.14199 0.34889 0.0
H653 H 0.99524 0.18816 0.30455 0.0
H654 H 0.95801 0.19115 0.28164 0.0
H655 H 0.81083 0.23189 0.292 0.0
H656 H 0.83973 0.19868 0.2873 0.0
H657 H 0.89266 0.229 0.27035 0.0
H658 H 0.86413 0.26201 0.27615 0.0
H659 H 0.912 0.20112 0.29867 0.0
H660 H 0.86638 0.20019 0.22584 0.0
H661 H 0.83062 0.20303 0.2006 0.0
H662 H 0.81533 0.15454 0.23986 0.0
H663 H 0.85116 0.15132 0.26528 0.0
C664 C 0.97937 0.11031 0.27162 0.0
C665 C 0.97366 0.09456 0.28409 0.0
C666 C 0.9623 0.12892 0.26771 0.0
C667 C 0.93918 0.132 0.27596 0.0
C668 C 0.93323 0.11572 0.28691 0.0
C669 C 0.95029 0.09737 0.29118 0.0
C670 C 0.92174 0.15256 0.27548 0.0
C671 C 0.90008 0.15495 0.26309 0.0
C672 C 0.92603 0.16963 0.28814 0.0
C673 C 0.94816 0.1681 0.3022 0.0
C674 C 0.95478 0.15436 0.32143 0.0
C675 C 0.97595 0.15269 0.33422 0.0
C676 C 0.99054 0.16483 0.3281 0.0
C677 C 0.98394 0.17874 0.30924 0.0
C678 C 0.96281 0.18043 0.29635 0.0
C679 C 0.8286 0.2314 0.28709 0.0
C680 C 0.83518 0.2496 0.28451 0.0
C681 C 0.84517 0.21236 0.28422 0.0
C682 C 0.8686 0.21105 0.27817 0.0
C683 C 0.8749 0.22934 0.27513 0.0
C684 C 0.85849 0.24829 0.27837 0.0
C685 C 0.88684 0.19084 0.2761 0.0
C686 C 0.90868 0.18841 0.28826 0.0
C687 C 0.88282 0.17386 0.26285 0.0
C688 C 0.86132 0.17565 0.24761 0.0
C689 C 0.85531 0.19021 0.22918 0.0
C690 C 0.83504 0.19187 0.21482 0.0
C691 C 0.82058 0.17909 0.21874 0.0
C692 C 0.82651 0.16447 0.23689 0.0
C693 C 0.84685 0.16266 0.25122 0.0
H694 H 0.80484 0.18044 0.20768 0.0
H695 H 1.00694 0.16351 0.33801 0.0
H696 H 1.00439 0.97382 0.29752 0.0
H697 H 0.98302 0.94788 0.2908 0.0
H698 H 0.92573 0.98417 0.33313 0.0
H699 H 0.94755 0.00969 0.34059 0.0
H700 H 0.93294 0.94724 0.3453 0.0
H701 H 0.92396 0.98 0.26852 0.0
H702 H 0.9365 0.99338 0.23139 0.0
H703 H 0.97629 0.93309 0.21063 0.0
H704 H 0.96424 0.91938 0.24782 0.0
H705 H 0.8473 0.89724 0.30382 0.0
H706 H 0.8689 0.92321 0.30614 0.0
H707 H 0.93286 0.8778 0.28877 0.0
H708 H 0.91174 0.85142 0.28766 0.0
H709 H 0.92191 0.91885 0.26312 0.0
H710 H 0.92963 0.8874 0.34246 0.0
H711 H 0.91375 0.87571 0.37879 0.0
H712 H 0.87198 0.93669 0.39336 0.0
H713 H 0.88735 0.94867 0.35685 0.0
C714 C 0.98719 0.97623 0.30525 0.0
C715 C 0.97756 0.99372 0.31953 0.0
C716 C 0.97493 0.96147 0.30134 0.0
C717 C 0.95254 0.96419 0.3111 0.0
C718 C 0.94296 0.98169 0.32541 0.0
C719 C 0.95541 0.99625 0.3297 0.0
C720 C 0.93935 0.94858 0.30698 0.0
C721 C 0.93032 0.94129 0.32725 0.0
C722 C 0.9361 0.94051 0.28349 0.0
C723 C 0.94339 0.9487 0.26109 0.0
C724 C 0.93554 0.96962 0.25613 0.0
C725 C 0.94253 0.97726 0.23506 0.0
C726 C 0.95724 0.9641 0.21869 0.0
C727 C 0.96493 0.94327 0.22334 0.0
C728 C 0.95801 0.93555 0.24441 0.0
C729 C 0.86599 0.89267 0.30068 0.0
C730 C 0.87782 0.87211 0.29598 0.0
C731 C 0.87823 0.90759 0.30175 0.0
C732 C 0.90242 0.90233 0.29776 0.0
C733 C 0.91414 0.8821 0.29183 0.0
C734 C 0.90199 0.86707 0.29114 0.0
C735 C 0.91569 0.91776 0.30137 0.0
C736 C 0.92465 0.92493 0.28106 0.0
C737 C 0.9185 0.92604 0.32472 0.0
C738 C 0.90944 0.91888 0.34679 0.0
C739 C 0.91689 0.89827 0.35328 0.0
C740 C 0.90802 0.8916 0.37393 0.0
C741 C 0.89181 0.90544 0.38834 0.0
C742 C 0.8845 0.92598 0.38216 0.0
C743 C 0.8933 0.93273 0.3615 0.0
H744 H 0.88497 0.90024 0.40432 0.0
H745 H 0.96263 0.97005 0.20238 0.0
H746 H 0.06631 0.96702 0.29929 0.0
H747 H 0.09922 0.9373 0.29182 0.0
H748 H 0.13857 0.97594 0.26261 0.0
H749 H 0.10488 0.00593 0.26933 0.0
H750 H 0.14976 0.9389 0.23905 0.0
H751 H 0.14713 0.96097 0.32188 0.0
H752 H 0.12924 0.97209 0.36164 0.0
H753 H 0.11375 0.91443 0.36885 0.0
H754 H 0.13123 0.90306 0.32894 0.0
H755 H 0.25636 0.85596 0.2688 0.0
H756 H 0.22791 0.88991 0.26691 0.0
H757 H 0.17179 0.86281 0.28173 0.0
H758 H 0.19966 0.82921 0.28284 0.0
H759 H 0.17391 0.89716 0.31274 0.0
H760 H 0.17628 0.8763 0.22776 0.0
H761 H 0.1951 0.86622 0.18824 0.0
H762 H 0.21359 0.92297 0.18598 0.0
H763 H 0.19537 0.93319 0.22584 0.0
C764 C 0.08173 0.96916 0.29066 0.0
C765 C 0.08295 0.98883 0.28485 0.0
C766 C 0.1007 0.95213 0.28659 0.0
C767 C 0.12182 0.95428 0.27729 0.0
C768 C 0.12261 0.97379 0.26997 0.0
C769 C 0.1033 0.99094 0.27369 0.0
C770 C 0.14318 0.93632 0.27705 0.0
C771 C 0.15529 0.93 0.25529 0.0
C772 C 0.15067 0.92455 0.29817 0.0
C773 C 0.14036 0.93122 0.32233 0.0
C774 C 0.13979 0.9507 0.33188 0.0
C775 C 0.12972 0.95705 0.35445 0.0
C776 C 0.12033 0.94399 0.36774 0.0
C777 C 0.12102 0.92453 0.35852 0.0
C778 C 0.13103 0.91812 0.33594 0.0
C779 C 0.23793 0.85729 0.27145 0.0
C780 C 0.23033 0.83984 0.27602 0.0
C781 C 0.22167 0.87668 0.27033 0.0
C782 C 0.19762 0.87898 0.27419 0.0
C783 C 0.19018 0.86152 0.27872 0.0
C784 C 0.20621 0.84226 0.27936 0.0
C785 C 0.18 0.8994 0.27465 0.0
C786 C 0.1686 0.90622 0.29658 0.0
C787 C 0.17353 0.91168 0.25379 0.0
C788 C 0.18475 0.90539 0.22999 0.0
C789 C 0.18465 0.88652 0.21904 0.0
C790 C 0.19514 0.88081 0.19651 0.0
C791 C 0.20552 0.89395 0.1846 0.0
C792 C 0.20549 0.91282 0.19522 0.0
C793 C 0.19515 0.91855 0.2178 0.0
H794 H 0.21364 0.88951 0.16717 0.0
H795 H 0.11254 0.94894 0.38521 0.0
H796 H 0.09401 0.9894 0.72439 0.0
H797 H 0.12373 0.95783 0.73218 0.0
H798 H 0.09182 0.95245 0.80047 0.0
H799 H 0.06172 0.98481 0.79282 0.0
H800 H 0.13907 0.93983 0.80499 0.0
H801 H 0.08325 0.92362 0.75175 0.0
H802 H 0.05584 0.92683 0.7166 0.0
H803 H 0.11351 0.91621 0.66772 0.0
H804 H 0.14127 0.91338 0.70259 0.0
H805 H 0.2133 0.83462 0.80325 0.0
H806 H 0.18189 0.8664 0.80752 0.0
H807 H 0.19702 0.88415 0.73618 0.0
H808 H 0.22728 0.85197 0.73153 0.0
H809 H 0.15303 0.8882 0.73798 0.0
H810 H 0.20853 0.90533 0.79777 0.0
H811 H 0.23156 0.9013 0.83613 0.0
H812 H 0.16874 0.90798 0.87668 0.0
H813 H 0.14546 0.91115 0.83847 0.0
C814 C 0.09323 0.98166 0.7412 0.0
C815 C 0.07523 0.98961 0.75785 0.0
C816 C 0.11029 0.96345 0.74558 0.0
C817 C 0.1098 0.95232 0.7666 0.0
C818 C 0.0925 0.96061 0.78397 0.0
C819 C 0.07533 0.97913 0.77963 0.0
C820 C 0.12728 0.93199 0.76967 0.0
C821 C 0.14194 0.92838 0.79049 0.0
C822 C 0.13093 0.91683 0.75096 0.0
C823 C 0.11436 0.91842 0.72983 0.0
C824 C 0.0901 0.92212 0.73351 0.0
C825 C 0.07449 0.92385 0.71363 0.0
C826 C 0.08292 0.92172 0.68994 0.0
C827 C 0.107 0.91785 0.68609 0.0
C828 C 0.12269 0.91618 0.70592 0.0
C829 C 0.21044 0.8457 0.78891 0.0
C830 C 0.22315 0.84105 0.76726 0.0
C831 C 0.19233 0.86389 0.79128 0.0
C832 C 0.18688 0.878 0.77221 0.0
C833 C 0.20059 0.87368 0.75119 0.0
C834 C 0.2182 0.85537 0.74863 0.0
C835 C 0.16593 0.89639 0.77277 0.0
C836 C 0.15031 0.89957 0.75256 0.0
C837 C 0.16098 0.91075 0.79246 0.0
C838 C 0.1753 0.90822 0.81523 0.0
C839 C 0.19968 0.90563 0.81484 0.0
C840 C 0.21278 0.9035 0.8366 0.0
C841 C 0.2016 0.90435 0.85887 0.0
C842 C 0.17736 0.90726 0.85942 0.0
C843 C 0.16424 0.9091 0.83772 0.0
H844 H 0.21158 0.9028 0.87575 0.0
H845 H 0.07081 0.92305 0.67457 0.0
H846 H 0.05658 0.10437 0.76259 0.0
H847 H 0.08032 0.12822 0.77046 0.0
H848 H 0.12083 0.10526 0.70677 0.0
H849 H 0.09765 0.08079 0.69924 0.0
H850 H 0.14891 0.11071 0.74455 0.0
H851 H 0.07798 0.15005 0.7056 0.0
H852 H 0.03515 0.16379 0.7002 0.0
H853 H 0.03141 0.19304 0.77067 0.0
H854 H 0.0742 0.17924 0.77663 0.0
H855 H 0.19418 0.19454 0.71831 0.0
H856 H 0.17445 0.16721 0.7188 0.0
H857 H 0.14242 0.191 0.78678 0.0
H858 H 0.1623 0.21838 0.78646 0.0
H859 H 0.11039 0.18489 0.7505 0.0
H860 H 0.18129 0.14629 0.78921 0.0
H861 H 0.22397 0.13182 0.79516 0.0
H862 H 0.2278 0.10205 0.72503 0.0
H863 H 0.18507 0.1161 0.71878 0.0
C864 C 0.07069 0.10418 0.75038 0.0
C865 C 0.07515 0.09062 0.73023 0.0
C866 C 0.08413 0.11798 0.7548 0.0
C867 C 0.10221 0.11868 0.73907 0.0
C868 C 0.10693 0.10502 0.71913 0.0
C869 C 0.0935 0.09117 0.7147 0.0
C870 C 0.11595 0.13386 0.74321 0.0
C871 C 0.1405 0.12694 0.7456 0.0
C872 C 0.10496 0.15502 0.74526 0.0
C873 C 0.07925 0.16343 0.74166 0.0
C874 C 0.06799 0.15928 0.72002 0.0
C875 C 0.04373 0.1671 0.71685 0.0
C876 C 0.03055 0.17923 0.73511 0.0
C877 C 0.04163 0.18362 0.75656 0.0
C878 C 0.06589 0.17581 0.75983 0.0
C879 C 0.18306 0.19384 0.73344 0.0
C880 C 0.1796 0.20865 0.75225 0.0
C881 C 0.17196 0.17815 0.7338 0.0
C882 C 0.15703 0.17706 0.75285 0.0
C883 C 0.15392 0.19157 0.77194 0.0
C884 C 0.1653 0.20713 0.77177 0.0
C885 C 0.14331 0.16173 0.75165 0.0
C886 C 0.11877 0.16864 0.7497 0.0
C887 C 0.1543 0.1406 0.74997 0.0
C888 C 0.18003 0.13238 0.75344 0.0
C889 C 0.19126 0.13677 0.77498 0.0
C890 C 0.21544 0.12858 0.77845 0.0
C891 C 0.22861 0.11616 0.76041 0.0
C892 C 0.21758 0.11172 0.73896 0.0
C893 C 0.19337 0.1197 0.7355 0.0
H894 H 0.24734 0.10991 0.76311 0.0
H895 H 1.01177 0.18526 0.73263 0.0
H896 H 0.9475 0.08083 0.78233 0.0
H897 H 0.9149 0.11137 0.79049 0.0
H898 H 0.95515 0.14914 0.76098 0.0
H899 H 0.98724 0.11889 0.75257 0.0
H900 H 0.93062 0.16702 0.80174 0.0
H901 H 0.91604 0.13328 0.72577 0.0
H902 H 0.90958 0.10415 0.70167 0.0
H903 H 0.84996 0.10446 0.7448 0.0
H904 H 0.8563 0.13345 0.76938 0.0
H905 H 0.86023 0.25721 0.75654 0.0
H906 H 0.88656 0.22348 0.76194 0.0
H907 H 0.82779 0.20015 0.77848 0.0
H908 H 0.8009 0.2341 0.77128 0.0
H909 H 0.85747 0.17259 0.75284 0.0
H910 H 0.8677 0.21047 0.82416 0.0
H911 H 0.87354 0.24025 0.8474 0.0
H912 H 0.94078 0.232 0.81492 0.0
H913 H 0.93518 0.20238 0.79122 0.0
C914 C 0.94958 0.09574 0.77835 0.0
C915 C 0.96999 0.09753 0.76707 0.0
C916 C 0.93087 0.11316 0.78275 0.0
C917 C 0.93243 0.13263 0.77616 0.0
C918 C 0.95344 0.1344 0.76629 0.0
C919 C 0.97183 0.11707 0.76154 0.0
C920 C 0.91196 0.15113 0.7777 0.0
C921 C 0.9146 0.16823 0.7911 0.0
C922 C 0.89068 0.15264 0.76444 0.0
C923 C 0.88681 0.13534 0.74958 0.0
C924 C 0.90167 0.12703 0.73023 0.0
C925 C 0.89801 0.11056 0.71647 0.0
C926 C 0.87942 0.10241 0.72175 0.0
C927 C 0.86439 0.11076 0.74077 0.0
C928 C 0.868 0.1272 0.75461 0.0
C929 C 0.85277 0.24494 0.76122 0.0
C930 C 0.82841 0.2485 0.76383 0.0
C931 C 0.86797 0.22558 0.76459 0.0
C932 C 0.85946 0.2092 0.77153 0.0
C933 C 0.83497 0.2125 0.77346 0.0
C934 C 0.81957 0.23195 0.76945 0.0
C935 C 0.8764 0.18881 0.77627 0.0
C936 C 0.87315 0.17134 0.76404 0.0
C937 C 0.89708 0.1869 0.79085 0.0
C938 C 0.90093 0.20425 0.80581 0.0
C939 C 0.8837 0.21504 0.82195 0.0
C940 C 0.88696 0.23191 0.83518 0.0
C941 C 0.90749 0.23805 0.83256 0.0
C942 C 0.92488 0.22722 0.8169 0.0
C943 C 0.92169 0.21037 0.8036 0.0
H944 H 0.90995 0.25121 0.84257 0.0
H945 H 0.87661 0.08967 0.71108 0.0
H946 H 0.9901 0.97705 0.74946 0.0
H947 H 0.96868 0.95151 0.75379 0.0
H948 H 0.92076 0.97889 0.69594 0.0
H949 H 0.94134 0.00531 0.69237 0.0
H950 H 0.89707 0.96961 0.73141 0.0
H951 H 0.96523 0.93385 0.68776 0.0
H952 H 1.00752 0.92116 0.67967 0.0
H953 H 1.01814 0.88794 0.74625 0.0
H954 H 0.97595 0.90068 0.75494 0.0
H955 H 0.85354 0.88314 0.70185 0.0
H956 H 0.87399 0.91003 0.70094 0.0
H957 H 0.90657 0.8912 0.77073 0.0
H958 H 0.88567 0.86447 0.77197 0.0
H959 H 0.93794 0.89577 0.7306 0.0
H960 H 0.86853 0.93157 0.77293 0.0
H961 H 0.82587 0.94371 0.77905 0.0
H962 H 0.81748 0.9763 0.71208 0.0
H963 H 0.86009 0.96406 0.70534 0.0
C964 C 0.97489 0.97788 0.73776 0.0
C965 C 0.96748 0.99344 0.72061 0.0
C966 C 0.96279 0.96302 0.74008 0.0
C967 C 0.94325 0.96307 0.72499 0.0
C968 C 0.93582 0.97849 0.70777 0.0
C969 C 0.94779 0.99351 0.70558 0.0
C970 C 0.93038 0.94722 0.72746 0.0
C971 C 0.90601 0.95347 0.73091 0.0
C972 C 0.94206 0.92612 0.72734 0.0
C973 C 0.96744 0.91838 0.72212 0.0
C974 C 0.9766 0.92396 0.70078 0.0
C975 C 1.00056 0.91674 0.69606 0.0
C976 C 1.01551 0.90378 0.71245 0.0
C977 C 1.00653 0.898 0.73358 0.0
C978 C 0.9826 0.9052 0.7384 0.0
C979 C 0.86495 0.88485 0.71705 0.0
C980 C 0.8681 0.87177 0.73696 0.0
C981 C 0.87656 0.90019 0.71653 0.0
C982 C 0.89178 0.90252 0.73574 0.0
C983 C 0.89489 0.88957 0.75574 0.0
C984 C 0.8829 0.87444 0.75649 0.0
C985 C 0.90481 0.91825 0.73447 0.0
C986 C 0.92914 0.91194 0.73118 0.0
C987 C 0.8931 0.93925 0.73445 0.0
C988 C 0.86748 0.94672 0.7385 0.0
C989 C 0.85757 0.94116 0.75938 0.0
C990 C 0.8334 0.94809 0.76299 0.0
C991 C 0.81896 0.96073 0.74594 0.0
C992 C 0.82868 0.96649 0.72526 0.0
C993 C 0.85284 0.95957 0.72154 0.0
H994 H 0.80025 0.96609 0.74877 0.0
H995 H 0.03404 0.89816 0.70874 0.0
H996 H 0.25517 0.15797 0.0728 0.0
H997 H 0.26996 0.17362 0.10822 0.0
H998 H 0.22012 0.15632 0.15351 0.0
H999 H 0.20465 0.1416 0.11781 0.0
H1000 H 0.22101 0.19164 0.16618 0.0
H1001 H 0.28165 0.13082 0.15319 0.0
H1002 H 0.3112 0.10509 0.13027 0.0
H1003 H 0.34838 0.14968 0.11613 0.0
H1004 H 0.31886 0.17577 0.13869 0.0
H1005 H 0.26967 0.22389 0.27264 0.0
H1006 H 0.26228 0.19831 0.24378 0.0
H1007 H 0.30157 0.21904 0.18952 0.0
H1008 H 0.30957 0.24421 0.21844 0.0
H1009 H 0.30628 0.17883 0.18443 0.0
H1010 H 0.24123 0.23963 0.20014 0.0
H1011 H 0.21089 0.262 0.22587 0.0
H1012 H 0.18067 0.21257 0.23792 0.0
H1013 H 0.21141 0.18957 0.21339 0.0
C1014 C 0.24744 0.15758 0.09036 0.0
C1015 C 0.22881 0.14864 0.09265 0.0
C1016 C 0.25599 0.16635 0.11064 0.0
C1017 C 0.24655 0.16577 0.13374 0.0
C1018 C 0.22776 0.15695 0.13595 0.0
C1019 C 0.21888 0.1486 0.11556 0.0
C1020 C 0.25573 0.17491 0.15546 0.0
C1021 C 0.23965 0.1885 0.17041 0.0
C1022 C 0.28007 0.17095 0.161 0.0
C1023 C 0.29792 0.1553 0.14747 0.0
C1024 C 0.29604 0.13518 0.14505 0.0
C1025 C 0.3128 0.12052 0.13214 0.0
C1026 C 0.33163 0.12576 0.12171 0.0
C1027 C 0.33377 0.14565 0.12421 0.0
C1028 C 0.31704 0.16038 0.13708 0.0
C1029 C 0.27749 0.22248 0.25485 0.0
C1030 C 0.28997 0.23624 0.24771 0.0
C1031 C 0.27306 0.20797 0.2383 0.0
C1032 C 0.28067 0.20726 0.21424 0.0
C1033 C 0.29528 0.21947 0.20792 0.0
C1034 C 0.29999 0.2338 0.22456 0.0
C1035 C 0.27154 0.19559 0.19496 0.0
C1036 C 0.28764 0.18165 0.18036 0.0
C1037 C 0.24713 0.19877 0.19017 0.0
C1038 C 0.22882 0.21279 0.20509 0.0
C1039 C 0.22827 0.23346 0.20845 0.0
C1040 C 0.21097 0.24627 0.22276 0.0
C1041 C 0.19376 0.23879 0.23323 0.0
C1042 C 0.19396 0.21838 0.2297 0.0
C1043 C 0.2114 0.20541 0.21575 0.0
H1044 H 0.18037 0.24879 0.24422 0.0
H1045 H 0.34458 0.11439 0.11172 0.0
H1046 H 0.94856 0.36088 0.10246 0.0
H1047 H 0.91917 0.35644 0.13085 0.0
H1048 H 0.92736 0.29517 0.10324 0.0
H1049 H 0.95641 0.29964 0.07453 0.0
H1050 H 0.88122 0.31524 0.10866 0.0
H1051 H 0.95218 0.30353 0.15729 0.0
H1052 H 0.98736 0.31183 0.17494 0.0
H1053 H 0.94391 0.36523 0.20992 0.0
H1054 H 0.90846 0.35739 0.19219 0.0
H1055 H 0.82512 0.27742 0.20265 0.0
H1056 H 0.85233 0.28366 0.17306 0.0
H1057 H 0.8476 0.34261 0.20637 0.0
H1058 H 0.82082 0.33625 0.23651 0.0
H1059 H 0.89148 0.3246 0.19769 0.0
H1060 H 0.82039 0.33629 0.14988 0.0
H1061 H 0.78505 0.32829 0.13218 0.0
H1062 H 0.82818 0.27566 0.09549 0.0
H1063 H 0.86378 0.2832 0.11323 0.0
C1064 C 0.94402 0.34651 0.10231 0.0
C1065 C 0.95499 0.3306 0.08623 0.0
C1066 C 0.92731 0.34393 0.11869 0.0
C1067 C 0.92116 0.32539 0.11939 0.0
C1068 C 0.93183 0.30959 0.10314 0.0
C1069 C 0.94863 0.31211 0.08685 0.0
C1070 C 0.90366 0.32242 0.13705 0.0
C1071 C 0.88359 0.31706 0.12815 0.0
C1072 C 0.9064 0.32528 0.16246 0.0
C1073 C 0.92768 0.32999 0.1732 0.0
C1074 C 0.95014 0.31713 0.16858 0.0
C1075 C 0.97012 0.32174 0.17863 0.0
C1076 C 0.96788 0.33908 0.19349 0.0
C1077 C 0.94562 0.35182 0.19838 0.0
C1078 C 0.92558 0.3473 0.18835 0.0
C1079 C 0.82964 0.29182 0.20359 0.0
C1080 C 0.82063 0.30636 0.22199 0.0
C1081 C 0.84521 0.2954 0.18654 0.0
C1082 C 0.85189 0.31374 0.18717 0.0
C1083 C 0.84277 0.32834 0.20541 0.0
C1084 C 0.82735 0.3247 0.22262 0.0
C1085 C 0.86894 0.31741 0.16934 0.0
C1086 C 0.88898 0.32287 0.1782 0.0
C1087 C 0.86611 0.31472 0.14387 0.0
C1088 C 0.84474 0.31021 0.13306 0.0
C1089 C 0.82233 0.32293 0.13817 0.0
C1090 C 0.80225 0.31849 0.12811 0.0
C1091 C 0.80436 0.30145 0.11277 0.0
C1092 C 0.82657 0.28885 0.1074 0.0
C1093 C 0.8467 0.29321 0.11743 0.0
H1094 H 0.7888 0.29804 0.105 0.0
H1095 H 0.98337 0.34261 0.20126 0.0
H1096 H 0.84455 0.91345 0.07968 0.0
H1097 H 0.83125 0.89587 0.11238 0.0
H1098 H 0.76857 0.94556 0.11884 0.0
H1099 H 0.78177 0.96319 0.08609 0.0
H1100 H 0.82309 0.90612 0.15852 0.0
H1101 H 0.72363 0.92664 0.13638 0.0
H1102 H 0.69672 0.93442 0.10069 0.0
H1103 H 0.75102 0.89952 0.05452 0.0
H1104 H 0.77813 0.89133 0.08997 0.0
H1105 H 0.77835 0.86094 0.25408 0.0
H1106 H 0.78108 0.88798 0.22655 0.0
H1107 H 0.76228 0.85361 0.16577 0.0
H1108 H 0.75784 0.82767 0.19326 0.0
H1109 H 0.74633 0.88961 0.15559 0.0
H1110 H 0.82127 0.85227 0.1915 0.0
H1111 H 0.85348 0.84125 0.22171 0.0
H1112 H 0.85331 0.90354 0.23603 0.0
H1113 H 0.82101 0.91497 0.206 0.0
C1114 C 0.828 0.92068 0.08812 0.0
C1115 C 0.81422 0.93971 0.08023 0.0
C1116 C 0.82039 0.91061 0.10679 0.0
C1117 C 0.79885 0.91934 0.11797 0.0
C1118 C 0.78507 0.93838 0.11022 0.0
C1119 C 0.79263 0.94842 0.09146 0.0
C1120 C 0.79108 0.90854 0.13794 0.0
C1121 C 0.80626 0.90255 0.15801 0.0
C1122 C 0.76917 0.90389 0.13716 0.0
C1123 C 0.75296 0.90862 0.11577 0.0
C1124 C 0.72979 0.92061 0.11861 0.0
C1125 C 0.71451 0.92508 0.09843 0.0
C1126 C 0.72219 0.91754 0.07534 0.0
C1127 C 0.74513 0.90544 0.0724 0.0
C1128 C 0.76047 0.90091 0.09252 0.0
C1129 C 0.77411 0.85958 0.23492 0.0
C1130 C 0.76787 0.84224 0.2258 0.0
C1131 C 0.77592 0.8749 0.21915 0.0
C1132 C 0.7726 0.87263 0.19389 0.0
C1133 C 0.76499 0.85585 0.1851 0.0
C1134 C 0.76241 0.84095 0.2009 0.0
C1135 C 0.77866 0.88653 0.17617 0.0
C1136 C 0.76306 0.89334 0.15646 0.0
C1137 C 0.80057 0.89143 0.177 0.0
C1138 C 0.81867 0.88448 0.19645 0.0
C1139 C 0.82799 0.86363 0.20115 0.0
C1140 C 0.84628 0.85731 0.21824 0.0
C1141 C 0.85552 0.8717 0.2306 0.0
C1142 C 0.84617 0.89243 0.22634 0.0
C1143 C 0.82786 0.89883 0.20932 0.0
H1144 H 0.87007 0.86685 0.24331 0.0
H1145 H 0.71033 0.92102 0.05974 0.0
H1146 H 0.11013 0.7274 0.08685 0.0
H1147 H 0.14104 0.73234 0.11473 0.0
H1148 H 0.1212 0.79658 0.09989 0.0
H1149 H 0.08999 0.79199 0.07242 0.0
H1150 H 0.16915 0.78063 0.10029 0.0
H1151 H 0.10475 0.78015 0.15166 0.0
H1152 H 0.07395 0.76613 0.16789 0.0
H1153 H 0.12637 0.71299 0.1917 0.0
H1154 H 0.15747 0.72657 0.17528 0.0
H1155 H 0.23154 0.81335 0.19926 0.0
H1156 H 0.20206 0.80842 0.16935 0.0
H1157 H 0.2144 0.74598 0.19136 0.0
H1158 H 0.24314 0.75111 0.22192 0.0
H1159 H 0.17008 0.76115 0.18674 0.0
H1160 H 0.23469 0.76113 0.13549 0.0
H1161 H 0.26572 0.77471 0.11896 0.0
H1162 H 0.21374 0.8279 0.09453 0.0
H1163 H 0.18242 0.81474 0.11118 0.0
C1164 C 0.11211 0.74264 0.08954 0.0
C1165 C 0.0972 0.75927 0.07726 0.0
C1166 C 0.12993 0.74542 0.1055 0.0
C1167 C 0.13336 0.76488 0.1096 0.0
C1168 C 0.11895 0.78141 0.09701 0.0
C1169 C 0.10105 0.77869 0.08115 0.0
C1170 C 0.15165 0.76807 0.12734 0.0
C1171 C 0.16924 0.77657 0.11926 0.0
C1172 C 0.15208 0.76242 0.152 0.0
C1173 C 0.13342 0.75428 0.16202 0.0
C1174 C 0.1097 0.7654 0.16018 0.0
C1175 C 0.09219 0.75755 0.16945 0.0
C1176 C 0.0982 0.73866 0.18076 0.0
C1177 C 0.12174 0.72761 0.1829 0.0
C1178 C 0.13932 0.73538 0.17363 0.0
C1179 C 0.22813 0.79851 0.19756 0.0
C1180 C 0.23978 0.78261 0.21294 0.0
C1181 C 0.21128 0.79567 0.18035 0.0
C1182 C 0.2061 0.77671 0.17772 0.0
C1183 C 0.21795 0.76077 0.19295 0.0
C1184 C 0.23449 0.7637 0.2104 0.0
C1185 C 0.18788 0.77356 0.15972 0.0
C1186 C 0.17018 0.76513 0.16776 0.0
C1187 C 0.18746 0.77917 0.13499 0.0
C1188 C 0.20624 0.78703 0.12478 0.0
C1189 C 0.2299 0.77578 0.12672 0.0
C1190 C 0.24753 0.78339 0.11731 0.0
C1191 C 0.24171 0.80218 0.10576 0.0
C1192 C 0.21823 0.81336 0.10351 0.0
C1193 C 0.20053 0.80582 0.11291 0.0
H1194 H 0.25539 0.80805 0.0985 0.0
H1195 H 0.08462 0.7326 0.18792 0.0
H1196 H 0.18391 0.05438 0.94094 0.0
H1197 H 0.19024 0.0195 0.92551 0.0
H1198 H 0.20048 0.99747 0.9991 0.0
H1199 H 0.19521 0.03247 0.01437 0.0
H1200 H 0.23462 0.97767 0.97507 0.0
H1201 H 0.15325 0.99186 0.95977 0.0
H1202 H 0.11351 0.0105 0.94587 0.0
H1203 H 0.13649 0.00575 0.87197 0.0
H1204 H 0.17648 0.98736 0.88543 0.0
H1205 H 0.25356 0.87716 0.91529 0.0
H1206 H 0.23442 0.90712 0.9404 0.0
H1207 H 0.24302 0.94662 0.88328 0.0
H1208 H 0.26255 0.91697 0.85844 0.0
H1209 H 0.19454 0.95318 0.90485 0.0
H1210 H 0.27817 0.94334 0.92498 0.0
H1211 H 0.31659 0.92348 0.94104 0.0
H1212 H 0.28575 0.91837 1.00965 0.0
H1213 H 0.24701 0.93795 0.99381 0.0
C1214 C 0.18674 0.04214 0.95381 0.0
C1215 C 0.18913 0.04602 0.9788 0.0
C1216 C 0.1903 0.02215 0.94502 0.0
C1217 C 0.19572 0.00573 0.96112 0.0
C1218 C 0.19643 0.00981 0.98628 0.0
C1219 C 0.19333 0.02977 0.99501 0.0
C1220 C 0.20378 0.98446 0.95149 0.0
C1221 C 0.22542 0.97218 0.96015 0.0
C1222 C 0.19198 0.97715 0.93194 0.0
C1223 C 0.16795 0.98831 0.92367 0.0
C1224 C 0.1499 0.99492 0.94057 0.0
C1225 C 0.12731 0.00543 0.93276 0.0
C1226 C 0.12249 0.00933 0.90806 0.0
C1227 C 0.14025 1.00271 0.8911 0.0
C1228 C 0.16288 0.99221 0.89882 0.0
C1229 C 0.25151 0.89226 0.90825 0.0
C1230 C 0.25955 0.89479 0.88496 0.0
C1231 C 0.24056 0.90928 0.92253 0.0
C1232 C 0.23723 0.92895 0.91351 0.0
C1233 C 0.24539 0.93149 0.89042 0.0
C1234 C 0.25674 0.91458 0.87639 0.0
C1235 C 0.2254 0.94712 0.92803 0.0
C1236 C 0.20317 0.95868 0.92022 0.0
C1237 C 0.23636 0.95359 0.94868 0.0
C1238 C 0.25962 0.94176 0.95807 0.0
C1239 C 0.2795 0.93774 0.94337 0.0
C1240 C 0.30136 0.9266 0.95246 0.0
C1241 C 0.30358 0.91958 0.97631 0.0
C1242 C 0.28397 0.92375 0.99115 0.0
C1243 C 0.26207 0.93485 0.98212 0.0
H1244 H 0.32052 0.91098 0.98333 0.0
H1245 H 0.10498 0.01746 0.90205 0.0
H1246 H 0.10679 0.34544 0.97956 0.0
H1247 H 0.13609 0.33979 0.94788 0.0
H1248 H 0.09799 0.30416 0.90604 0.0
H1249 H 0.06883 0.30943 0.93813 0.0
H1250 H 0.14173 0.28599 0.9033 0.0
H1251 H 0.09792 0.3545 0.89068 0.0
H1252 H 0.07877 0.39034 0.90153 0.0
H1253 H 0.14555 0.39963 0.92308 0.0
H1254 H 0.16508 0.36375 0.91267 0.0
H1255 H 0.21486 0.32049 0.80214 0.0
H1256 H 0.17897 0.32647 0.82619 0.0
H1257 H 0.21755 0.28584 0.88099 0.0
H1258 H 0.25307 0.27984 0.85718 0.0
H1259 H 0.16922 0.34295 0.87138 0.0
H1260 H 0.18609 0.26005 0.90486 0.0
H1261 H 0.20094 0.22498 0.88835 0.0
H1262 H 0.17952 0.24623 0.81627 0.0
H1263 H 0.16515 0.28132 0.83219 0.0
C1264 C 0.10447 0.33658 0.96352 0.0
C1265 C 0.08531 0.32801 0.96136 0.0
C1266 C 0.12128 0.33337 0.94531 0.0
C1267 C 0.11918 0.32183 0.9242 0.0
C1268 C 0.10011 0.31314 0.92206 0.0
C1269 C 0.08342 0.31616 0.94044 0.0
C1270 C 0.13715 0.3185 0.90471 0.0
C1271 C 0.14762 0.29851 0.89637 0.0
C1272 C 0.14457 0.33477 0.89486 0.0
C1273 C 0.13294 0.35639 0.90107 0.0
C1274 C 0.10851 0.36415 0.89789 0.0
C1275 C 0.09759 0.38447 0.90393 0.0
C1276 C 0.11093 0.39724 0.91303 0.0
C1277 C 0.13524 0.38972 0.91605 0.0
C1278 C 0.14624 0.36939 0.91005 0.0
C1279 C 0.21554 0.31274 0.81923 0.0
C1280 C 0.23677 0.29975 0.82782 0.0
C1281 C 0.19508 0.31622 0.83301 0.0
C1282 C 0.19545 0.30651 0.85539 0.0
C1283 C 0.21664 0.29333 0.8637 0.0
C1284 C 0.23701 0.29 0.8501 0.0
C1285 C 0.17412 0.31048 0.87071 0.0
C1286 C 0.16313 0.33052 0.87829 0.0
C1287 C 0.16566 0.29439 0.87928 0.0
C1288 C 0.17468 0.27329 0.86971 0.0
C1289 C 0.18465 0.25719 0.88548 0.0
C1290 C 0.1931 0.23733 0.87619 0.0
C1291 C 0.19134 0.23338 0.85123 0.0
C1292 C 0.18122 0.24929 0.83551 0.0
C1293 C 0.17302 0.26917 0.84464 0.0
H1294 H 0.1977 0.21802 0.84406 0.0
H1295 H 0.10244 0.41298 0.91771 0.0
H1296 H 0.87469 0.02602 0.93568 0.0
H1297 H 0.87294 0.05862 0.91675 0.0
H1298 H 0.83325 0.09065 0.97708 0.0
H1299 H 0.83569 0.0584 0.99653 0.0
H1300 H 0.81099 0.10088 0.93408 0.0
H1301 H 0.88857 0.09317 0.96844 0.0
H1302 H 0.93034 0.07562 0.9757 0.0
H1303 H 0.94293 0.07582 0.89912 0.0
H1304 H 0.90113 0.09313 0.89135 0.0
H1305 H 0.7955 0.20213 0.90791 0.0
H1306 H 0.81219 0.17013 0.92894 0.0
H1307 H 0.84901 0.14418 0.86407 0.0
H1308 H 0.83261 0.1764 0.84301 0.0
H1309 H 0.87447 0.12989 0.90688 0.0
H1310 H 0.79731 0.137 0.87239 0.0
H1311 H 0.75561 0.15455 0.86468 0.0
H1312 H 0.74227 0.15449 0.94111 0.0
H1313 H 0.78401 0.13725 0.94932 0.0
C1314 C 0.86624 0.04001 0.94528 0.0
C1315 C 0.855 0.03958 0.96745 0.0
C1316 C 0.8652 0.05863 0.9344 0.0
C1317 C 0.85294 0.07703 0.94557 0.0
C1318 C 0.84282 0.07661 0.96824 0.0
C1319 C 0.84406 0.05814 0.9792 0.0
C1320 C 0.84839 0.09662 0.93278 0.0
C1321 C 0.82491 0.10732 0.92843 0.0
C1322 C 0.86655 0.10465 0.92465 0.0
C1323 C 0.89167 0.09424 0.92929 0.0
C1324 C 0.90019 0.0893 0.95312 0.0
C1325 C 0.92389 0.07943 0.95733 0.0
C1326 C 0.93926 0.07455 0.93787 0.0
C1327 C 0.93099 0.07958 0.91417 0.0
C1328 C 0.9073 0.08943 0.90985 0.0
C1329 C 0.80751 0.18973 0.89831 0.0
C1330 C 0.81249 0.19157 0.87377 0.0
C1331 C 0.81707 0.1715 0.91032 0.0
C1332 C 0.83143 0.15469 0.89787 0.0
C1333 C 0.83791 0.15697 0.87395 0.0
C1334 C 0.82852 0.17534 0.86195 0.0
C1335 C 0.83711 0.13429 0.90889 0.0
C1336 C 0.86065 0.12339 0.91261 0.0
C1337 C 0.81902 0.1259 0.91641 0.0
C1338 C 0.79383 0.13599 0.91148 0.0
C1339 C 0.78552 0.14085 0.88757 0.0
C1340 C 0.76187 0.15073 0.88311 0.0
C1341 C 0.74631 0.15567 0.9024 0.0
C1342 C 0.75435 0.15068 0.92618 0.0
C1343 C 0.778 0.14084 0.93075 0.0
H1344 H 0.72801 0.16332 0.89891 0.0
H1345 H 0.9576 0.06691 0.94117 0.0
H1346 H 0.94442 0.78724 0.96358 0.0
H1347 H 0.91213 0.7918 0.93376 0.0
H1348 H 0.95198 0.7404 0.89186 0.0
H1349 H 0.98463 0.73602 0.92137 0.0
H1350 H 0.92909 0.77192 0.86227 0.0
H1351 H 0.90907 0.73485 0.92787 0.0
H1352 H 0.90252 0.72833 0.9707 0.0
H1353 H 0.84836 0.78463 0.975 0.0
H1354 H 0.85482 0.79163 0.93226 0.0
H1355 H 0.82938 0.76182 0.78965 0.0
H1356 H 0.86498 0.7563 0.81554 0.0
H1357 H 0.8274 0.80153 0.86692 0.0
H1358 H 0.79186 0.80643 0.84165 0.0
H1359 H 0.85056 0.77095 0.8909 0.0
H1360 H 0.87097 0.80892 0.82628 0.0
H1361 H 0.87721 0.81624 0.78358 0.0
H1362 H 0.93026 0.75942 0.77741 0.0
H1363 H 0.92407 0.7517 0.81998 0.0
C1364 C 0.94649 0.77702 0.94792 0.0
C1365 C 0.9672 0.76118 0.94505 0.0
C1366 C 0.92789 0.77956 0.93092 0.0
C1367 C 0.92945 0.76631 0.91063 0.0
C1368 C 0.95028 0.75078 0.90737 0.0
C1369 C 0.96888 0.74818 0.92443 0.0
C1370 C 0.90909 0.76837 0.89326 0.0
C1371 C 0.91197 0.77146 0.86845 0.0
C1372 C 0.88663 0.7681 0.90129 0.0
C1373 C 0.88257 0.76385 0.92693 0.0
C1374 C 0.89588 0.74591 0.938 0.0
C1375 C 0.89216 0.74212 0.96225 0.0
C1376 C 0.87507 0.75608 0.97558 0.0
C1377 C 0.86161 0.77384 0.96466 0.0
C1378 C 0.86527 0.77772 0.94042 0.0
C1379 C 0.82886 0.77063 0.8064 0.0
C1380 C 0.80783 0.78445 0.81371 0.0
C1381 C 0.84924 0.76756 0.82117 0.0
C1382 C 0.84909 0.77857 0.84328 0.0
C1383 C 0.8281 0.79268 0.85017 0.0
C1384 C 0.80775 0.79553 0.83563 0.0
C1385 C 0.87028 0.775 0.85985 0.0
C1386 C 0.86762 0.77147 0.88459 0.0
C1387 C 0.89286 0.775 0.85172 0.0
C1388 C 0.89683 0.77966 0.82621 0.0
C1389 C 0.88381 0.79795 0.81573 0.0
C1390 C 0.88735 0.80218 0.79158 0.0
C1391 C 0.90404 0.78827 0.77776 0.0
C1392 C 0.9173 0.77016 0.78812 0.0
C1393 C 0.91379 0.76587 0.81227 0.0
H1394 H 0.90675 0.79156 0.75906 0.0
H1395 H 0.87223 0.75312 0.99436 0.0
H1396 H 0.10206 0.28069 0.06296 0.0
H1397 H 0.13468 0.27661 0.09301 0.0
H1398 H 0.08741 0.31435 0.14436 0.0
H1399 H 0.05541 0.31879 0.11444 0.0
H1400 H 0.1233 0.3275 0.14474 0.0
H1401 H 0.11431 0.25971 0.14877 0.0
H1402 H 0.11308 0.22544 0.13434 0.0
H1403 H 0.18423 0.21316 0.11067 0.0
H1404 H 0.18573 0.24753 0.1245 0.0
H1405 H 0.2051 0.31539 0.2467 0.0
H1406 H 0.17118 0.31437 0.22002 0.0
H1407 H 0.2181 0.27895 0.16673 0.0
H1408 H 0.25152 0.27945 0.19333 0.0
H1409 H 0.18226 0.26398 0.16837 0.0
H1410 H 0.19027 0.3322 0.16161 0.0
H1411 H 0.19229 0.36605 0.17698 0.0
H1412 H 0.12334 0.37681 0.20629 0.0
H1413 H 0.12104 0.3429 0.19133 0.0
C1414 C 0.09854 0.28762 0.08089 0.0
C1415 C 0.07592 0.29997 0.08619 0.0
C1416 C 0.1173 0.28537 0.09818 0.0
C1417 C 0.11389 0.29521 0.12134 0.0
C1418 C 0.09098 0.3067 0.1268 0.0
C1419 C 0.07248 0.3091 0.1096 0.0
C1420 C 0.13395 0.29487 0.13943 0.0
C1421 C 0.1359 0.31346 0.15005 0.0
C1422 C 0.15113 0.2768 0.14633 0.0
C1423 C 0.15 0.25635 0.13735 0.0
C1424 C 0.12959 0.24983 0.14018 0.0
C1425 C 0.12886 0.23035 0.13216 0.0
C1426 C 0.14852 0.21716 0.12149 0.0
C1427 C 0.16897 0.22342 0.11884 0.0
C1428 C 0.16976 0.24291 0.12674 0.0
C1429 C 0.20813 0.30725 0.22941 0.0
C1430 C 0.23121 0.29749 0.22234 0.0
C1431 C 0.18868 0.3068 0.21395 0.0
C1432 C 0.19178 0.29673 0.19092 0.0
C1433 C 0.21486 0.28685 0.18418 0.0
C1434 C 0.23412 0.28725 0.19952 0.0
C1435 C 0.17142 0.29655 0.17354 0.0
C1436 C 0.16951 0.27794 0.16303 0.0
C1437 C 0.15427 0.31456 0.16666 0.0
C1438 C 0.15559 0.33494 0.17559 0.0
C1439 C 0.17561 0.34173 0.17148 0.0
C1440 C 0.1768 0.36093 0.1801 0.0
C1441 C 0.15798 0.37354 0.19267 0.0
C1442 C 0.13792 0.36701 0.19659 0.0
C1443 C 0.13666 0.34781 0.18804 0.0
H1444 H 0.15893 0.3884 0.19932 0.0
H1445 H 0.14795 0.20207 0.11537 0.0
H1446 H 0.05235 0.78524 0.93181 0.0
H1447 H 0.0821 0.78906 0.90353 0.0
H1448 H 0.1237 0.80297 0.96385 0.0
H1449 H 0.09333 0.79973 0.99217 0.0
H1450 H 0.12999 0.824 0.92504 0.0
H1451 H 0.13398 0.75404 0.93829 0.0
H1452 H 0.11885 0.72371 0.94017 0.0
H1453 H 0.10079 0.72843 0.86394 0.0
H1454 H 0.11552 0.75898 0.86168 0.0
H1455 H 0.23729 0.79885 0.85932 0.0
H1456 H 0.20662 0.80015 0.88876 0.0
H1457 H 0.16365 0.78249 0.83216 0.0
H1458 H 0.19479 0.7802 0.80294 0.0
H1459 H 0.15869 0.76383 0.87046 0.0
H1460 H 0.15628 0.83451 0.85794 0.0
H1461 H 0.17478 0.86293 0.85711 0.0
H1462 H 0.19218 0.85576 0.93331 0.0
H1463 H 0.17419 0.82704 0.93449 0.0
C1464 C 0.06739 0.78992 0.93898 0.0
C1465 C 0.0701 0.7927 0.96423 0.0
C1466 C 0.08469 0.79177 0.92278 0.0
C1467 C 0.10568 0.79585 0.93136 0.0
C1468 C 0.10783 0.79979 0.95654 0.0
C1469 C 0.09031 0.79813 0.97278 0.0
C1470 C 0.12579 0.79454 0.91431 0.0
C1471 C 0.13635 0.81075 0.91327 0.0
C1472 C 0.13434 0.77737 0.89863 0.0
C1473 C 0.12565 0.75891 0.89987 0.0
C1474 C 0.12665 0.74868 0.92196 0.0
C1475 C 0.11815 0.73145 0.9231 0.0
C1476 C 0.10881 0.72418 0.9022 0.0
C1477 C 0.108 0.7341 0.88012 0.0
C1478 C 0.11643 0.75137 0.87889 0.0
C1479 C 0.22136 0.79517 0.85308 0.0
C1480 C 0.21871 0.78941 0.82856 0.0
C1481 C 0.20359 0.79611 0.87001 0.0
C1482 C 0.18223 0.7919 0.86288 0.0
C1483 C 0.17972 0.78591 0.83843 0.0
C1484 C 0.19766 0.78461 0.8216 0.0
C1485 C 0.16266 0.79346 0.88072 0.0
C1486 C 0.15224 0.7772 0.88202 0.0
C1487 C 0.15442 0.81052 0.89671 0.0
C1488 C 0.16405 0.82851 0.89626 0.0
C1489 C 0.16405 0.83899 0.87452 0.0
C1490 C 0.17449 0.85514 0.87397 0.0
C1491 C 0.18472 0.8611 0.89514 0.0
C1492 C 0.1843 0.85109 0.91693 0.0
C1493 C 0.17397 0.83489 0.91755 0.0
H1494 H 0.193 0.87345 0.89471 0.0
H1495 H 0.10224 0.71084 0.90312 0.0
H1496 H 0.28182 0.11415 0.96319 0.0
H1497 H 0.29608 0.12937 0.92854 0.0
H1498 H 0.22749 0.17112 0.91906 0.0
H1499 H 0.21328 0.15629 0.95339 0.0
H1500 H 0.24643 0.15323 0.87541 0.0
H1501 H 0.26979 0.18675 0.94766 0.0
H1502 H 0.29099 0.18714 0.98686 0.0
H1503 H 0.35643 0.15929 0.95238 0.0
H1504 H 0.33554 0.1585 0.91301 0.0
H1505 H 0.24672 0.24176 0.81715 0.0
H1506 H 0.24495 0.21505 0.84467 0.0
H1507 H 0.32022 0.19119 0.84224 0.0
H1508 H 0.32213 0.21861 0.81458 0.0
H1509 H 0.3059 0.19218 0.8876 0.0
H1510 H 0.28256 0.16612 0.81314 0.0
H1511 H 0.26089 0.16746 0.774 0.0
H1512 H 0.19569 0.18071 0.81162 0.0
H1513 H 0.21688 0.17972 0.851 0.0
C1514 C 0.26982 0.12655 0.95366 0.0
C1515 C 0.24645 0.13406 0.96113 0.0
C1516 C 0.27798 0.13522 0.9339 0.0
C1517 C 0.26281 0.15137 0.92122 0.0
C1518 C 0.23946 0.15862 0.92849 0.0
C1519 C 0.23141 0.15017 0.94826 0.0
C1520 C 0.27098 0.16135 0.90071 0.0
C1521 C 0.25947 0.16171 0.87799 0.0
C1522 C 0.28858 0.17182 0.90387 0.0
C1523 C 0.30109 0.17231 0.9275 0.0
C1524 C 0.28867 0.18053 0.9485 0.0
C1525 C 0.30063 0.18087 0.97073 0.0
C1526 C 0.32503 0.17317 0.97213 0.0
C1527 C 0.33752 0.16519 0.95128 0.0
C1528 C 0.32564 0.1648 0.92901 0.0
C1529 C 0.26289 0.23055 0.8218 0.0
C1530 C 0.28451 0.23196 0.81304 0.0
C1531 C 0.26185 0.21525 0.83771 0.0
C1532 C 0.28236 0.20067 0.84504 0.0
C1533 C 0.30412 0.2021 0.83659 0.0
C1534 C 0.3052 0.2177 0.82076 0.0
C1535 C 0.28067 0.18475 0.86247 0.0
C1536 C 0.29336 0.18323 0.88463 0.0
C1537 C 0.26419 0.17312 0.85874 0.0
C1538 C 0.25136 0.173 0.83509 0.0
C1539 C 0.26359 0.16942 0.81309 0.0
C1540 C 0.25138 0.17014 0.79085 0.0
C1541 C 0.22693 0.17432 0.79032 0.0
C1542 C 0.21463 0.17758 0.81205 0.0
C1543 C 0.22675 0.17686 0.83436 0.0
H1544 H 0.21755 0.17479 0.77309 0.0
H1545 H 0.33426 0.17345 0.98936 0.0
H1546 H 0.97254 0.27806 0.98704 0.0
H1547 H 0.94103 0.27397 0.95855 0.0
H1548 H 0.95307 0.3212 0.9139 0.0
H1549 H 0.98377 0.3255 0.94218 0.0
H1550 H 0.90887 0.3291 0.91942 0.0
H1551 H 0.96742 0.26746 0.89775 0.0
H1552 H 0.99548 0.23397 0.9046 0.0
H1553 H 0.93976 0.21056 0.9296 0.0
H1554 H 0.91141 0.24401 0.92321 0.0
H1555 H 0.84152 0.32243 0.81245 0.0
H1556 H 0.87297 0.32138 0.84259 0.0
H1557 H 0.8537 0.27364 0.88018 0.0
H1558 H 0.82261 0.27421 0.84957 0.0
H1559 H 0.89887 0.265 0.88187 0.0
H1560 H 0.84047 0.32578 0.90164 0.0
H1561 H 0.81196 0.35902 0.89463 0.0
H1562 H 0.86759 0.38401 0.87293 0.0
H1563 H 0.89641 0.35083 0.87951 0.0
C1564 C 0.9688 0.28722 0.97086 0.0
C1565 C 0.9809 0.30211 0.96706 0.0
C1566 C 0.95063 0.28494 0.9545 0.0
C1567 C 0.94425 0.29734 0.93377 0.0
C1568 C 0.95711 0.31154 0.92966 0.0
C1569 C 0.97494 0.31389 0.94593 0.0
C1570 C 0.92369 0.29661 0.91683 0.0
C1571 C 0.90708 0.31503 0.91092 0.0
C1572 C 0.92031 0.27834 0.90618 0.0
C1573 C 0.93736 0.25832 0.91033 0.0
C1574 C 0.9612 0.25523 0.90496 0.0
C1575 C 0.97714 0.23624 0.9087 0.0
C1576 C 0.96943 0.22017 0.91762 0.0
C1577 C 0.94573 0.22304 0.92276 0.0
C1578 C 0.92972 0.24201 0.91908 0.0
C1579 C 0.8438 0.31175 0.82717 0.0
C1580 C 0.82908 0.2986 0.8285 0.0
C1581 C 0.86188 0.31121 0.84463 0.0
C1582 C 0.86576 0.29771 0.86433 0.0
C1583 C 0.85128 0.28434 0.86547 0.0
C1584 C 0.83328 0.28477 0.84789 0.0
C1585 C 0.88484 0.2976 0.8835 0.0
C1586 C 0.90092 0.27907 0.89009 0.0
C1587 C 0.88783 0.31577 0.89477 0.0
C1588 C 0.87057 0.33577 0.89086 0.0
C1589 C 0.84661 0.33833 0.89522 0.0
C1590 C 0.83039 0.35716 0.89134 0.0
C1591 C 0.83795 0.3736 0.88328 0.0
C1592 C 0.86176 0.37125 0.87914 0.0
C1593 C 0.87804 0.35245 0.88297 0.0
H1594 H 0.82537 0.38817 0.88029 0.0
H1595 H 0.98179 0.20547 0.92048 0.0
H1596 H 0.77235 0.97897 0.93829 0.0
H1597 H 0.7599 0.96214 0.90223 0.0
H1598 H 0.80252 0.90404 0.92708 0.0
H1599 H 0.81538 0.92069 0.96244 0.0
H1600 H 0.81054 0.90768 0.88175 0.0
H1601 H 0.74111 0.91886 0.93001 0.0
H1602 H 0.70738 0.93946 0.95295 0.0
H1603 H 0.68064 0.97354 0.88887 0.0
H1604 H 0.7144 0.95329 0.86561 0.0
H1605 H 0.7315 0.84677 0.82196 0.0
H1606 H 0.73537 0.87338 0.85101 0.0
H1607 H 0.78135 0.8921 0.80215 0.0
H1608 H 0.77862 0.8646 0.77365 0.0
H1609 H 0.72827 0.91194 0.85637 0.0
H1610 H 0.8245 0.90639 0.83435 0.0
H1611 H 0.85873 0.88271 0.81514 0.0
H1612 H 0.83224 0.83201 0.83259 0.0
H1613 H 0.79825 0.85527 0.85248 0.0
C1614 C 0.77884 0.96259 0.93611 0.0
C1615 C 0.79497 0.95118 0.95313 0.0
C1616 C 0.7717 0.95298 0.91553 0.0
C1617 C 0.78031 0.93179 0.91186 0.0
C1618 C 0.79581 0.92041 0.9293 0.0
C1619 C 0.80311 0.92997 0.9496 0.0
C1620 C 0.77413 0.92125 0.8896 0.0
C1621 C 0.79252 0.90874 0.87614 0.0
C1622 C 0.75067 0.92254 0.88221 0.0
C1623 C 0.73041 0.93474 0.89616 0.0
C1624 C 0.72814 0.93087 0.92087 0.0
C1625 C 0.709 0.94245 0.93392 0.0
C1626 C 0.69192 0.95785 0.92239 0.0
C1627 C 0.69391 0.96164 0.89778 0.0
C1628 C 0.71304 0.95011 0.88466 0.0
C1629 C 0.74204 0.85682 0.81716 0.0
C1630 C 0.75498 0.85344 0.79566 0.0
C1631 C 0.74424 0.87209 0.83381 0.0
C1632 C 0.75913 0.8845 0.82914 0.0
C1633 C 0.77028 0.88238 0.80655 0.0
C1634 C 0.7686 0.86674 0.79018 0.0
C1635 C 0.76473 0.89798 0.8489 0.0
C1636 C 0.74628 0.91112 0.86178 0.0
C1637 C 0.78821 0.89685 0.85627 0.0
C1638 C 0.80871 0.88261 0.84464 0.0
C1639 C 0.82608 0.89016 0.83421 0.0
C1640 C 0.84548 0.87681 0.8233 0.0
C1641 C 0.84772 0.85586 0.82277 0.0
C1642 C 0.83058 0.84821 0.83315 0.0
C1643 C 0.81125 0.86147 0.84427 0.0
H1644 H 0.8627 0.84561 0.81419 0.0
H1645 H 0.67711 0.9668 0.93252 0.0
H1646 H 0.98415 0.80528 0.0889 0.0
H1647 H 0.95511 0.80991 0.12156 0.0
H1648 H 0.91613 0.77583 0.07858 0.0
H1649 H 0.9449 0.77106 0.04648 0.0
H1650 H 0.88653 0.8088 0.10007 0.0
H1651 H 0.95382 0.75419 0.12531 0.0
H1652 H 0.99551 0.73981 0.13671 0.0
H1653 H 0.98915 0.78383 0.19522 0.0
H1654 H 0.94747 0.79864 0.18394 0.0
H1655 H 0.81659 0.76942 0.17413 0.0
H1656 H 0.84678 0.77491 0.14812 0.0
H1657 H 0.87465 0.80402 0.20791 0.0
H1658 H 0.84386 0.79837 0.23452 0.0
H1659 H 0.91062 0.7799 0.18166 0.0
H1660 H 0.8452 0.83411 0.15925 0.0
H1661 H 0.8042 0.85177 0.14806 0.0
H1662 H 0.80757 0.81231 0.08539 0.0
H1663 H 0.8486 0.79445 0.09623 0.0
C1664 C 0.9691 0.7992 0.08624 0.0
C1665 C 0.96684 0.78794 0.06486 0.0
C1666 C 0.9526 0.80162 0.10509 0.0
C1667 C 0.93332 0.79305 0.10287 0.0
C1668 C 0.93067 0.78262 0.08103 0.0
C1669 C 0.94721 0.77994 0.06254 0.0
C1670 C 0.91598 0.7943 0.12302 0.0
C1671 C 0.8919 0.80237 0.11784 0.0
C1672 C 0.92267 0.78668 0.14674 0.0
C1673 C 0.94763 0.77767 0.1536 0.0
C1674 C 0.96136 0.7609 0.14049 0.0
C1675 C 0.98498 0.75266 0.14695 0.0
C1676 C 0.99499 0.76094 0.16663 0.0
C1677 C 0.98138 0.77745 0.17994 0.0
C1678 C 0.95777 0.78577 0.17353 0.0
C1679 C 0.82908 0.77701 0.18197 0.0
C1680 C 0.82763 0.78342 0.2066 0.0
C1681 C 0.84639 0.7803 0.16685 0.0
C1682 C 0.863 0.7903 0.17559 0.0
C1683 C 0.86207 0.79639 0.20044 0.0
C1684 C 0.84448 0.7931 0.21575 0.0
C1685 C 0.88111 0.7939 0.15841 0.0
C1686 C 0.90527 0.78664 0.16405 0.0
C1687 C 0.87459 0.80258 0.13516 0.0
C1688 C 0.8498 0.81283 0.12875 0.0
C1689 C 0.83704 0.82909 0.14327 0.0
C1690 C 0.81387 0.83918 0.13694 0.0
C1691 C 0.80323 0.83311 0.11613 0.0
C1692 C 0.81581 0.81698 0.10154 0.0
C1693 C 0.83905 0.80691 0.10773 0.0
H1694 H 0.78528 0.84096 0.11127 0.0
H1695 H 1.01328 0.75455 0.17159 0.0
H1696 H 0.24268 0.05949 0.10026 0.0
H1697 H 0.25418 0.02567 0.11778 0.0
H1698 H 0.28337 1.00004 0.04926 0.0
H1699 H 0.27173 0.03415 0.03146 0.0
H1700 H 0.2536 0.97937 0.06782 0.0
H1701 H 0.31972 1.00108 0.09676 0.0
H1702 H 0.34066 0.02443 0.11602 0.0
H1703 H 0.30599 0.02263 0.18327 0.0
H1704 H 0.28457 0.9995 0.16433 0.0
H1705 H 0.29325 0.88212 0.12517 0.0
H1706 H 0.29056 0.91297 0.10224 0.0
H1707 H 0.26458 0.94982 0.1657 0.0
H1708 H 0.26831 0.91913 0.18906 0.0
H1709 H 0.29798 0.96274 0.14585 0.0
H1710 H 0.22866 0.94461 0.11587 0.0
H1711 H 0.20673 0.92189 0.0969 0.0
H1712 H 0.24677 0.91729 0.03199 0.0
H1713 H 0.2691 0.9399 0.05063 0.0
C1714 C 0.25194 0.04673 0.089 0.0
C1715 C 0.25637 0.04949 0.0645 0.0
C1716 C 0.25856 0.02739 0.09907 0.0
C1717 C 0.26975 0.01031 0.08489 0.0
C1718 C 0.27481 0.01303 0.06055 0.0
C1719 C 0.26835 0.03252 0.05047 0.0
C1720 C 0.27464 0.98965 0.09536 0.0
C1721 C 0.26375 0.97552 0.0846 0.0
C1722 C 0.28746 0.98481 0.11751 0.0
C1723 C 0.30042 0.99864 0.12906 0.0
C1724 C 0.31643 0.00577 0.11561 0.0
C1725 C 0.32841 0.01895 0.12648 0.0
C1726 C 0.32463 0.02504 0.15084 0.0
C1727 C 0.3089 0.01791 0.1644 0.0
C1728 C 0.29686 0.00473 0.15361 0.0
C1729 C 0.287 0.89678 0.13429 0.0
C1730 C 0.28109 0.89805 0.15906 0.0
C1731 C 0.28525 0.91444 0.12105 0.0
C1732 C 0.27729 0.93377 0.13219 0.0
C1733 C 0.27083 0.93509 0.1567 0.0
C1734 C 0.2727 0.91747 0.16998 0.0
C1735 C 0.27638 0.95266 0.1187 0.0
C1736 C 0.28809 0.96644 0.1289 0.0
C1737 C 0.26425 0.95719 0.09609 0.0
C1738 C 0.25074 0.94374 0.08476 0.0
C1739 C 0.2329 0.93865 0.09761 0.0
C1740 C 0.22037 0.92583 0.08689 0.0
C1741 C 0.2254 0.91813 0.06327 0.0
C1742 C 0.24291 0.92329 0.05027 0.0
C1743 C 0.25549 0.93612 0.06089 0.0
H1744 H 0.21569 0.90819 0.05501 0.0
H1745 H 0.33391 0.03525 0.15921 0.0
H1746 H 0.77812 0.05617 0.01917 0.0
H1747 H 0.76794 0.09077 0.03718 0.0
H1748 H 0.78461 0.06555 0.10872 0.0
H1749 H 0.79503 0.03118 0.09088 0.0
H1750 H 0.74538 0.09777 0.1089 0.0
H1751 H 0.8243 0.08063 0.08082 0.0
H1752 H 0.85675 0.0707 0.05192 0.0
H1753 H 0.82546 0.12345 1.00937 0.0
H1754 H 0.79252 0.13351 0.03781 0.0
H1755 H 0.80387 0.179 0.15904 0.0
H1756 H 0.80486 0.14983 0.13197 0.0
H1757 H 0.72996 0.17148 0.11989 0.0
H1758 H 0.72883 0.20056 0.14743 0.0
H1759 H 0.79502 0.14264 0.08664 0.0
H1760 H 0.70667 0.13073 0.11599 0.0
H1761 H 0.68004 0.13876 0.15084 0.0
H1762 H 0.73815 0.1401 0.19885 0.0
H1763 H 0.76513 0.13181 0.16435 0.0
C1764 C 0.77903 0.05805 0.03877 0.0
C1765 C 0.78733 0.04103 0.05367 0.0
C1766 C 0.7734 0.07779 0.04901 0.0
C1767 C 0.77568 0.08072 0.07427 0.0
C1768 C 0.78268 0.06365 0.0892 0.0
C1769 C 0.78865 0.04403 0.07899 0.0
C1770 C 0.7724 0.1014 0.08528 0.0
C1771 C 0.75597 0.10773 0.10377 0.0
C1772 C 0.78663 0.11417 0.07903 0.0
C1773 C 0.80577 0.10766 0.06125 0.0
C1774 C 0.82413 0.08994 0.06509 0.0
C1775 C 0.84266 0.08434 0.04886 0.0
C1776 C 0.84319 0.09647 0.02888 0.0
C1777 C 0.82504 0.1141 0.02491 0.0
C1778 C 0.80641 0.11974 0.04104 0.0
C1779 C 0.78767 0.17779 0.15024 0.0
C1780 C 0.76624 0.19201 0.1555 0.0
C1781 C 0.78825 0.16107 0.13476 0.0
C1782 C 0.76744 0.15824 0.12415 0.0
C1783 C 0.74619 0.17309 0.12823 0.0
C1784 C 0.74557 0.18972 0.14393 0.0
C1785 C 0.76795 0.13908 0.11026 0.0
C1786 C 0.78391 0.13298 0.09128 0.0
C1787 C 0.75383 0.12621 0.11661 0.0
C1788 C 0.73783 0.13092 0.13754 0.0
C1789 C 0.71374 0.13269 0.134 0.0
C1790 C 0.6986 0.13728 0.15369 0.0
C1791 C 0.70738 0.14002 0.17703 0.0
C1792 C 0.73135 0.13806 0.18075 0.0
C1793 C 0.74657 0.13343 0.16113 0.0
H1794 H 0.69562 0.14359 0.19223 0.0
H1795 H 0.85771 0.09222 0.0165 0.0
H1796 H 0.54726 0.61024 0.78672 0.0
H1797 H 0.56853 0.63578 0.78022 0.0
H1798 H 0.62035 0.60766 0.83445 0.0
H1799 H 0.59928 0.58192 0.84092 0.0
H1800 H 0.60729 0.64872 0.83995 0.0
H1801 H 0.63206 0.60054 0.77409 0.0
H1802 H 0.6263 0.5795 0.73849 0.0
H1803 H 0.59034 0.6334 0.70002 0.0
H1804 H 0.5956 0.65475 0.73553 0.0
H1805 H 0.69238 0.70018 0.81583 0.0
H1806 H 0.67272 0.6731 0.81958 0.0
H1807 H 0.62338 0.69989 0.76253 0.0
H1808 H 0.64339 0.72685 0.75837 0.0
H1809 H 0.63489 0.65955 0.75812 0.0
H1810 H 0.60945 0.70778 0.82342 0.0
H1811 H 0.61443 0.72926 0.85889 0.0
H1812 H 0.65039 0.67592 0.89834 0.0
H1813 H 0.64591 0.65413 0.86297 0.0
C1814 C 0.56328 0.60934 0.79713 0.0
C1815 C 0.57161 0.59388 0.81424 0.0
C1816 C 0.57542 0.62399 0.79341 0.0
C1817 C 0.59622 0.62348 0.8066 0.0
C1818 C 0.60435 0.60834 0.82403 0.0
C1819 C 0.59221 0.59367 0.82778 0.0
C1820 C 0.6094 0.63881 0.80238 0.0
C1821 C 0.61361 0.65089 0.82213 0.0
C1822 C 0.61709 0.64204 0.77898 0.0
C1823 C 0.61403 0.62923 0.75756 0.0
C1824 C 0.62277 0.6079 0.75811 0.0
C1825 C 0.61962 0.59592 0.73793 0.0
C1826 C 0.60791 0.6051 0.71703 0.0
C1827 C 0.59938 0.6263 0.71623 0.0
C1828 C 0.60246 0.63835 0.73637 0.0
C1829 C 0.67741 0.70023 0.804 0.0
C1830 C 0.66924 0.71575 0.78699 0.0
C1831 C 0.66614 0.68478 0.8062 0.0
C1832 C 0.64621 0.68471 0.79175 0.0
C1833 C 0.63864 0.69969 0.77398 0.0
C1834 C 0.65009 0.71505 0.77159 0.0
C1835 C 0.63289 0.66941 0.79574 0.0
C1836 C 0.6286 0.65737 0.77595 0.0
C1837 C 0.62498 0.66629 0.81909 0.0
C1838 C 0.62753 0.67934 0.84046 0.0
C1839 C 0.61856 0.70064 0.8396 0.0
C1840 C 0.62127 0.71287 0.8597 0.0
C1841 C 0.63277 0.70396 0.88084 0.0
C1842 C 0.64152 0.6828 0.88195 0.0
C1843 C 0.63888 0.6705 0.86189 0.0
H1844 H 0.63486 0.71345 0.89637 0.0
H1845 H 0.60549 0.5958 0.70143 0.0
H1846 H 0.46774 0.59121 0.74083 0.0
H1847 H 0.43359 0.62025 0.7312 0.0
H1848 H 0.41962 0.62999 0.80778 0.0
H1849 H 0.45279 0.60164 0.81734 0.0
H1850 H 0.37993 0.63148 0.78322 0.0
H1851 H 0.44776 0.65893 0.77407 0.0
H1852 H 0.48387 0.66176 0.75464 0.0
H1853 H 0.44665 0.67434 0.68618 0.0
H1854 H 0.41041 0.67129 0.70515 0.0
H1855 H 0.33153 0.73337 0.81881 0.0
H1856 H 0.3576 0.70001 0.80848 0.0
H1857 H 0.3328 0.70667 0.73388 0.0
H1858 H 0.3059 0.74016 0.74444 0.0
H1859 H 0.38704 0.69462 0.74484 0.0
H1860 H 0.31788 0.6734 0.75538 0.0
H1861 H 0.28124 0.67257 0.77516 0.0
H1862 H 0.32024 0.64883 0.8399 0.0
H1863 H 0.35711 0.64985 0.82064 0.0
C1864 C 0.4573 0.59956 0.75552 0.0
C1865 C 0.4632 0.59395 0.77987 0.0
C1866 C 0.43781 0.6162 0.75003 0.0
C1867 C 0.42386 0.62742 0.76878 0.0
C1868 C 0.42981 0.62165 0.7929 0.0
C1869 C 0.44906 0.60531 0.79834 0.0
C1870 C 0.40302 0.64527 0.76423 0.0
C1871 C 0.38153 0.64521 0.77464 0.0
C1872 C 0.40457 0.66311 0.75233 0.0
C1873 C 0.42649 0.66454 0.74093 0.0
C1874 C 0.44736 0.66205 0.75481 0.0
C1875 C 0.46783 0.66375 0.74389 0.0
C1876 C 0.46758 0.66814 0.71916 0.0
C1877 C 0.44685 0.67087 0.70531 0.0
C1878 C 0.42635 0.66914 0.71613 0.0
C1879 C 0.33126 0.72759 0.80029 0.0
C1880 C 0.31649 0.7393 0.78251 0.0
C1881 C 0.34628 0.70856 0.79436 0.0
C1882 C 0.34734 0.70085 0.77038 0.0
C1883 C 0.33238 0.71235 0.75249 0.0
C1884 C 0.31685 0.73135 0.75859 0.0
C1885 C 0.36452 0.68089 0.76467 0.0
C1886 C 0.38526 0.68063 0.7526 0.0
C1887 C 0.36233 0.66268 0.77493 0.0
C1888 C 0.34027 0.66181 0.78659 0.0
C1889 C 0.31864 0.66814 0.7739 0.0
C1890 C 0.29782 0.66762 0.78501 0.0
C1891 C 0.29841 0.66067 0.80879 0.0
C1892 C 0.31982 0.6542 0.82148 0.0
C1893 C 0.34069 0.65472 0.81046 0.0
H1894 H 0.28227 0.66027 0.81737 0.0
H1895 H 0.48343 0.66951 0.71076 0.0
H1896 H 0.44776 0.50164 0.84746 0.0
H1897 H 0.42623 0.47579 0.84248 0.0
H1898 H 0.46028 0.45611 0.77436 0.0
H1899 H 0.48239 0.48149 0.77938 0.0
H1900 H 0.41156 0.45962 0.77243 0.0
H1901 H 0.47949 0.42874 0.82218 0.0
H1902 H 0.50686 0.42697 0.85722 0.0
H1903 H 0.45059 0.43055 0.90639 0.0
H1904 H 0.42281 0.43263 0.87163 0.0
H1905 H 0.38541 0.36241 0.7624 0.0
H1906 H 0.40271 0.39135 0.76306 0.0
H1907 H 0.37763 0.40746 0.83583 0.0
H1908 H 0.36041 0.37866 0.83528 0.0
H1909 H 0.42212 0.40599 0.83435 0.0
H1910 H 0.35402 0.43644 0.78618 0.0
H1911 H 0.32512 0.44051 0.75225 0.0
H1912 H 0.37921 0.43936 0.70123 0.0
H1913 H 0.40856 0.43494 0.73484 0.0
C1914 C 0.4509 0.49177 0.83149 0.0
C1915 C 0.46703 0.49374 0.81392 0.0
C1916 C 0.43842 0.47705 0.82861 0.0
C1917 C 0.44173 0.46398 0.80809 0.0
C1918 C 0.45738 0.46612 0.79027 0.0
C1919 C 0.47 0.48074 0.7932 0.0
C1920 C 0.42945 0.44763 0.80567 0.0
C1921 C 0.41405 0.4477 0.78575 0.0
C1922 C 0.43233 0.43242 0.82339 0.0
C1923 C 0.44903 0.43104 0.84431 0.0
C1924 C 0.47292 0.42931 0.84047 0.0
C1925 C 0.48851 0.42823 0.86028 0.0
C1926 C 0.48046 0.4287 0.88402 0.0
C1927 C 0.4568 0.43021 0.88799 0.0
C1928 C 0.44113 0.43133 0.86825 0.0
C1929 C 0.38328 0.37232 0.77838 0.0
C1930 C 0.37182 0.36806 0.79893 0.0
C1931 C 0.39316 0.38888 0.77873 0.0
C1932 C 0.39154 0.40159 0.79954 0.0
C1933 C 0.37932 0.39778 0.81966 0.0
C1934 C 0.36955 0.38124 0.81936 0.0
C1935 C 0.40389 0.41798 0.80118 0.0
C1936 C 0.41949 0.41787 0.82095 0.0
C1937 C 0.40098 0.43322 0.7834 0.0
C1938 C 0.38355 0.43518 0.76305 0.0
C1939 C 0.35982 0.43681 0.76771 0.0
C1940 C 0.34334 0.43928 0.74854 0.0
C1941 C 0.35031 0.44031 0.72463 0.0
C1942 C 0.37382 0.43869 0.7198 0.0
C1943 C 0.3904 0.43617 0.7389 0.0
H1944 H 0.3375 0.44224 0.70984 0.0
H1945 H 0.49256 0.42785 0.89933 0.0
H1946 H 0.58856 0.502 0.75211 0.0
H1947 H 0.6235 0.47278 0.74699 0.0
H1948 H 0.59816 0.44045 0.80209 0.0
H1949 H 0.56395 0.46925 0.80734 0.0
H1950 H 0.64179 0.44 0.81253 0.0
H1951 H 0.59895 0.42709 0.74043 0.0
H1952 H 0.57901 0.43512 0.7005 0.0
H1953 H 0.64256 0.44256 0.67069 0.0
H1954 H 0.66279 0.43482 0.71057 0.0
H1955 H 0.69631 0.33506 0.80041 0.0
H1956 H 0.66885 0.36872 0.79671 0.0
H1957 H 0.72112 0.39006 0.7602 0.0
H1958 H 0.74919 0.35615 0.76447 0.0
H1959 H 0.67009 0.39967 0.73771 0.0
H1960 H 0.71376 0.40842 0.80998 0.0
H1961 H 0.73285 0.39867 0.84995 0.0
H1962 H 0.6665 0.39812 0.87945 0.0
H1963 H 0.64706 0.40756 0.83954 0.0
C1964 C 0.59025 0.48843 0.76264 0.0
C1965 C 0.57348 0.48801 0.78019 0.0
C1966 C 0.61029 0.47175 0.75982 0.0
C1967 C 0.61375 0.45435 0.77437 0.0
C1968 C 0.59627 0.45367 0.79087 0.0
C1969 C 0.57655 0.47019 0.79375 0.0
C1970 C 0.63583 0.43715 0.77389 0.0
C1971 C 0.64787 0.43124 0.79609 0.0
C1972 C 0.64446 0.42589 0.75245 0.0
C1973 C 0.63228 0.43067 0.72856 0.0
C1974 C 0.6086 0.43064 0.72543 0.0
C1975 C 0.59726 0.43509 0.70279 0.0
C1976 C 0.60948 0.43943 0.68309 0.0
C1977 C 0.63309 0.43926 0.68598 0.0
C1978 C 0.6445 0.43483 0.70859 0.0
C1979 C 0.70214 0.34691 0.79175 0.0
C1980 C 0.7251 0.3429 0.78295 0.0
C1981 C 0.68633 0.36617 0.78957 0.0
C1982 C 0.6928 0.38196 0.77811 0.0
C1983 C 0.71568 0.3781 0.76907 0.0
C1984 C 0.7318 0.35877 0.77171 0.0
C1985 C 0.67543 0.40241 0.7764 0.0
C1986 C 0.66425 0.40881 0.75395 0.0
C1987 C 0.66742 0.41412 0.79761 0.0
C1988 C 0.67899 0.40855 0.8217 0.0
C1989 C 0.70327 0.40605 0.82493 0.0
C1990 C 0.71415 0.40061 0.84759 0.0
C1991 C 0.7009 0.39774 0.86721 0.0
C1992 C 0.67674 0.40034 0.86423 0.0
C1993 C 0.66578 0.40576 0.8416 0.0
H1994 H 0.70935 0.39354 0.88475 0.0
H1995 H 0.60068 0.44285 0.66558 0.0
H1996 H 0.58663 0.47439 0.21165 0.0
H1997 H 0.61652 0.44313 0.22041 0.0
H1998 H 0.61805 0.46135 0.29596 0.0
H1999 H 0.58742 0.49323 0.28726 0.0
H2000 H 0.66465 0.44446 0.2739 0.0
H2001 H 0.59314 0.42603 0.28433 0.0
H2002 H 0.55291 0.42442 0.27356 0.0
H2003 H 0.57759 0.39144 0.2076 0.0
H2004 H 0.61793 0.39312 0.21778 0.0
H2005 H 0.74014 0.34315 0.29319 0.0
H2006 H 0.71019 0.37592 0.29676 0.0
H2007 H 0.6813 0.3645 0.22648 0.0
H2008 H 0.7104 0.33142 0.22387 0.0
H2009 H 0.64712 0.37858 0.25377 0.0
H2010 H 0.71715 0.4007 0.24025 0.0
H2011 H 0.75754 0.4026 0.24974 0.0
H2012 H 0.73614 0.42886 0.32003 0.0
H2013 H 0.69567 0.42678 0.31115 0.0
C2014 C 0.59318 0.47195 0.23023 0.0
C2015 C 0.58445 0.48649 0.24876 0.0
C2016 C 0.61036 0.45391 0.2352 0.0
C2017 C 0.61959 0.44972 0.25884 0.0
C2018 C 0.61122 0.46422 0.27753 0.0
C2019 C 0.59362 0.48238 0.27258 0.0
C2020 C 0.63763 0.42995 0.26339 0.0
C2021 C 0.66075 0.43 0.27001 0.0
C2022 C 0.63277 0.41104 0.25787 0.0
C2023 C 0.60855 0.40981 0.25177 0.0
C2024 C 0.58997 0.41855 0.26745 0.0
C2025 C 0.56715 0.41761 0.26146 0.0
C2026 C 0.56269 0.40787 0.23989 0.0
C2027 C 0.58107 0.39899 0.2243 0.0
C2028 C 0.60392 0.39991 0.23019 0.0
C2029 C 0.72749 0.34785 0.27853 0.0
C2030 C 0.72771 0.33482 0.25829 0.0
C2031 C 0.71036 0.36664 0.28045 0.0
C2032 C 0.69337 0.3731 0.26174 0.0
C2033 C 0.69397 0.36008 0.24129 0.0
C2034 C 0.71076 0.34116 0.23969 0.0
C2035 C 0.67454 0.39297 0.26344 0.0
C2036 C 0.65115 0.39294 0.25798 0.0
C2037 C 0.67926 0.41186 0.26988 0.0
C2038 C 0.70346 0.4134 0.27512 0.0
C2039 C 0.72109 0.40676 0.25779 0.0
C2040 C 0.74399 0.40786 0.26307 0.0
C2041 C 0.74942 0.41575 0.28553 0.0
C2042 C 0.73192 0.42265 0.30271 0.0
C2043 C 0.709 0.42154 0.29755 0.0
H2044 H 0.76716 0.41657 0.28959 0.0
H2045 H 0.54501 0.40716 0.23528 0.0
H2046 H 0.59013 0.58924 0.17994 0.0
H2047 H 0.61706 0.61059 0.18572 0.0
H2048 H 0.61477 0.60492 0.26356 0.0
H2049 H 0.58695 0.58439 0.25801 0.0
H2050 H 0.61029 0.64297 0.25301 0.0
H2051 H 0.66372 0.5799 0.231 0.0
H2052 H 0.67949 0.54847 0.2068 0.0
H2053 H 0.68527 0.58401 0.14498 0.0
H2054 H 0.66921 0.61569 0.16871 0.0
H2055 H 0.69951 0.69435 0.27121 0.0
H2056 H 0.68164 0.66585 0.27064 0.0
H2057 H 0.66925 0.67206 0.19318 0.0
H2058 H 0.68737 0.70033 0.19348 0.0
H2059 H 0.6844 0.63137 0.20777 0.0
H2060 H 0.62696 0.69439 0.23042 0.0
H2061 H 0.61385 0.72529 0.25627 0.0
H2062 H 0.61779 0.6883 0.31919 0.0
H2063 H 0.63139 0.65716 0.29376 0.0
C2064 C 0.59525 0.59256 0.1983 0.0
C2065 C 0.58625 0.58505 0.21847 0.0
C2066 C 0.61091 0.60459 0.20158 0.0
C2067 C 0.6182 0.60916 0.22508 0.0
C2068 C 0.60948 0.60153 0.24525 0.0
C2069 C 0.5937 0.58959 0.242 0.0
C2070 C 0.63404 0.62268 0.22855 0.0
C2071 C 0.62671 0.64019 0.24346 0.0
C2072 C 0.65539 0.61919 0.21597 0.0
C2073 C 0.66508 0.60018 0.2016 0.0
C2074 C 0.66818 0.58102 0.21219 0.0
C2075 C 0.6772 0.56316 0.19856 0.0
C2076 C 0.68333 0.56424 0.17435 0.0
C2077 C 0.6805 0.5832 0.16373 0.0
C2078 C 0.67146 0.60111 0.17727 0.0
C2079 C 0.69325 0.68953 0.254 0.0
C2080 C 0.69435 0.69998 0.23248 0.0
C2081 C 0.68303 0.67325 0.25373 0.0
C2082 C 0.67388 0.66706 0.23191 0.0
C2083 C 0.67611 0.67669 0.21021 0.0
C2084 C 0.6862 0.69302 0.21049 0.0
C2085 C 0.66038 0.65165 0.23181 0.0
C2086 C 0.66813 0.63388 0.21753 0.0
C2087 C 0.63955 0.65477 0.24515 0.0
C2088 C 0.6304 0.67345 0.26024 0.0
C2089 C 0.62511 0.69284 0.24979 0.0
C2090 C 0.61762 0.7104 0.26436 0.0
C2091 C 0.61505 0.70876 0.28936 0.0
C2092 C 0.61983 0.68954 0.29982 0.0
C2093 C 0.62743 0.67194 0.28534 0.0
H2094 H 0.60931 0.72237 0.30063 0.0
H2095 H 0.69032 0.55039 0.16384 0.0
H2096 H 0.49733 0.61231 0.24998 0.0
H2097 H 0.46742 0.64421 0.25821 0.0
H2098 H 0.42043 0.61016 0.28205 0.0
H2099 H 0.45054 0.57811 0.27356 0.0
H2100 H 0.3986 0.63812 0.24979 0.0
H2101 H 0.4436 0.64024 0.32282 0.0
H2102 H 0.47937 0.63847 0.34776 0.0
H2103 H 0.49115 0.68889 0.30941 0.0
H2104 H 0.4556 0.69082 0.28404 0.0
H2105 H 0.31177 0.73301 0.27138 0.0
H2106 H 0.3389 0.69903 0.27652 0.0
H2107 H 0.39721 0.7235 0.26151 0.0
H2108 H 0.3704 0.75742 0.25809 0.0
H2109 H 0.41098 0.69846 0.29489 0.0
H2110 H 0.3695 0.69348 0.21845 0.0
H2111 H 0.33433 0.69517 0.19252 0.0
H2112 H 0.31664 0.65019 0.23615 0.0
H2113 H 0.35159 0.6484 0.26248 0.0
C2114 C 0.48095 0.61167 0.2579 0.0
C2115 C 0.47655 0.59274 0.26189 0.0
C2116 C 0.46375 0.62995 0.26249 0.0
C2117 C 0.44155 0.62979 0.27101 0.0
C2118 C 0.43737 0.61081 0.27563 0.0
C2119 C 0.4547 0.59248 0.27112 0.0
C2120 C 0.42238 0.64932 0.27316 0.0
C2121 C 0.40117 0.6512 0.26005 0.0
C2122 C 0.42567 0.66664 0.28611 0.0
C2123 C 0.44701 0.66558 0.30141 0.0
C2124 C 0.45391 0.65086 0.31959 0.0
C2125 C 0.47413 0.64985 0.33383 0.0
C2126 C 0.48755 0.66353 0.33014 0.0
C2127 C 0.48074 0.6783 0.31225 0.0
C2128 C 0.46053 0.67938 0.29796 0.0
C2129 C 0.33038 0.7311 0.26933 0.0
C2130 C 0.33886 0.74797 0.26434 0.0
C2131 C 0.34596 0.71158 0.27205 0.0
C2132 C 0.37034 0.70834 0.26902 0.0
C2133 C 0.37865 0.72532 0.26405 0.0
C2134 C 0.3632 0.7448 0.26192 0.0
C2135 C 0.38742 0.68753 0.27086 0.0
C2136 C 0.40826 0.68537 0.28479 0.0
C2137 C 0.38386 0.67 0.25848 0.0
C2138 C 0.36299 0.67097 0.24256 0.0
C2139 C 0.35803 0.68404 0.22257 0.0
C2140 C 0.33815 0.68501 0.2078 0.0
C2141 C 0.32322 0.67284 0.21273 0.0
C2142 C 0.32819 0.65963 0.23238 0.0
C2143 C 0.34803 0.65862 0.24722 0.0
H2144 H 0.30783 0.67362 0.20128 0.0
H2145 H 0.50321 0.66271 0.34117 0.0
H2146 H 0.48469 0.47433 0.18814 0.0
H2147 H 0.46009 0.45155 0.19529 0.0
H2148 H 0.42709 0.49049 0.25464 0.0
H2149 H 0.45189 0.51334 0.24763 0.0
H2150 H 0.43862 0.45181 0.26768 0.0
H2151 H 0.39766 0.48874 0.20005 0.0
H2152 H 0.39296 0.50365 0.15919 0.0
H2153 H 0.41751 0.44395 0.12674 0.0
H2154 H 0.42267 0.42869 0.16743 0.0
H2155 H 0.35455 0.39359 0.27829 0.0
H2156 H 0.37252 0.42166 0.27308 0.0
H2157 H 0.41195 0.38912 0.21275 0.0
H2158 H 0.39338 0.36156 0.21709 0.0
H2159 H 0.39291 0.4279 0.20178 0.0
H2160 H 0.43718 0.39165 0.27006 0.0
H2161 H 0.44153 0.37695 0.31104 0.0
H2162 H 0.4098 0.43601 0.3423 0.0
H2163 H 0.40501 0.45102 0.30145 0.0
C2164 C 0.47194 0.47825 0.20244 0.0
C2165 C 0.47018 0.49569 0.21727 0.0
C2166 C 0.45788 0.46519 0.20654 0.0
C2167 C 0.44153 0.46943 0.22533 0.0
C2168 C 0.43959 0.48691 0.24005 0.0
C2169 C 0.45377 0.49993 0.23605 0.0
C2170 C 0.42716 0.45513 0.23008 0.0
C2171 C 0.42827 0.44686 0.25338 0.0
C2172 C 0.41389 0.44847 0.21136 0.0
C2173 C 0.41071 0.45758 0.18682 0.0
C2174 C 0.40221 0.4788 0.18421 0.0
C2175 C 0.39944 0.48731 0.16108 0.0
C2176 C 0.40498 0.47476 0.14039 0.0
C2177 C 0.41324 0.45366 0.14279 0.0
C2178 C 0.41606 0.44506 0.16588 0.0
C2179 C 0.36698 0.39245 0.26386 0.0
C2180 C 0.37263 0.37522 0.24822 0.0
C2181 C 0.37738 0.40844 0.26103 0.0
C2182 C 0.39373 0.40741 0.24263 0.0
C2183 C 0.39941 0.39024 0.22709 0.0
C2184 C 0.38898 0.37435 0.22981 0.0
C2185 C 0.40486 0.42423 0.23918 0.0
C2186 C 0.40307 0.43302 0.21613 0.0
C2187 C 0.41743 0.4314 0.25813 0.0
C2188 C 0.42052 0.42241 0.28269 0.0
C2189 C 0.43099 0.40147 0.28566 0.0
C2190 C 0.43356 0.39309 0.30886 0.0
C2191 C 0.42588 0.40553 0.32925 0.0
C2192 C 0.4157 0.42639 0.32649 0.0
C2193 C 0.41308 0.43485 0.30332 0.0
H2194 H 0.42787 0.39901 0.3472 0.0
H2195 H 0.40282 0.48138 0.1225 0.0
H2196 H 0.79337 0.64164 0.5559 0.0
H2197 H 0.79556 0.66074 0.59351 0.0
H2198 H 0.73905 0.64011 0.62267 0.0
H2199 H 0.73634 0.62123 0.58456 0.0
H2200 H 0.73251 0.67916 0.63261 0.0
H2201 H 0.79668 0.62068 0.64289 0.0
H2202 H 0.83257 0.59426 0.63186 0.0
H2203 H 0.86977 0.64005 0.62569 0.0
H2204 H 0.83401 0.6668 0.63635 0.0
H2205 H 0.74897 0.72954 0.74371 0.0
H2206 H 0.74793 0.70117 0.71589 0.0
H2207 H 0.80299 0.71384 0.67408 0.0
H2208 H 0.8048 0.7416 0.70233 0.0
H2209 H 0.80877 0.67439 0.67526 0.0
H2210 H 0.74152 0.73308 0.66171 0.0
H2211 H 0.70565 0.75825 0.67518 0.0
H2212 H 0.67341 0.71026 0.68885 0.0
H2213 H 0.70946 0.68466 0.67625 0.0
C2214 C 0.78143 0.64105 0.5703 0.0
C2215 C 0.76473 0.62981 0.56722 0.0
C2216 C 0.78281 0.65191 0.59192 0.0
C2217 C 0.76778 0.65159 0.61119 0.0
C2218 C 0.75093 0.64051 0.60814 0.0
C2219 C 0.74942 0.6297 0.58636 0.0
C2220 C 0.76933 0.66343 0.63406 0.0
C2221 C 0.74911 0.67784 0.64221 0.0
C2222 C 0.79098 0.66181 0.64661 0.0
C2223 C 0.81259 0.64577 0.64027 0.0
C2224 C 0.81247 0.62514 0.63902 0.0
C2225 C 0.8328 0.6101 0.63286 0.0
C2226 C 0.85342 0.61548 0.62804 0.0
C2227 C 0.85377 0.63591 0.62942 0.0
C2228 C 0.83348 0.65101 0.63556 0.0
C2229 C 0.76119 0.72602 0.72886 0.0
C2230 C 0.77689 0.73793 0.72515 0.0
C2231 C 0.76046 0.70986 0.71286 0.0
C2232 C 0.77496 0.70565 0.69248 0.0
C2233 C 0.79153 0.71681 0.68957 0.0
C2234 C 0.79256 0.73272 0.70578 0.0
C2235 C 0.77214 0.69058 0.67328 0.0
C2236 C 0.79212 0.67552 0.66584 0.0
C2237 C 0.75021 0.69148 0.66155 0.0
C2238 C 0.72831 0.70694 0.66833 0.0
C2239 C 0.72684 0.72787 0.66771 0.0
C2240 C 0.70647 0.74222 0.67523 0.0
C2241 C 0.68725 0.73588 0.6829 0.0
C2242 C 0.68834 0.71515 0.68299 0.0
C2243 C 0.70876 0.7007 0.67573 0.0
H2244 H 0.6715 0.74703 0.68871 0.0
H2245 H 0.86914 0.60381 0.62327 0.0
H2246 H 0.49761 0.76056 0.61828 0.0
H2247 H 0.4655 0.76473 0.64669 0.0
H2248 H 0.4155 0.78811 0.58882 0.0
H2249 H 0.44796 0.78513 0.5608 0.0
H2250 H 0.39847 0.80786 0.62475 0.0
H2251 H 0.42899 0.73594 0.61649 0.0
H2252 H 0.45775 0.7022 0.6169 0.0
H2253 H 0.47204 0.71018 0.69298 0.0
H2254 H 0.44365 0.74412 0.69295 0.0
H2255 H 0.30261 0.78501 0.69075 0.0
H2256 H 0.3344 0.78224 0.66184 0.0
H2257 H 0.38052 0.79075 0.72077 0.0
H2258 H 0.34862 0.79424 0.74966 0.0
H2259 H 0.39813 0.75449 0.68434 0.0
H2260 H 0.3652 0.82783 0.68971 0.0
H2261 H 0.33275 0.85923 0.68721 0.0
H2262 H 0.31921 0.84485 0.61263 0.0
H2263 H 0.35137 0.81318 0.61482 0.0
C2264 C 0.47977 0.76655 0.61159 0.0
C2265 C 0.47547 0.77238 0.58712 0.0
C2266 C 0.46121 0.76878 0.62789 0.0
C2267 C 0.43756 0.77624 0.62015 0.0
C2268 C 0.43333 0.78227 0.59565 0.0
C2269 C 0.45197 0.78053 0.57948 0.0
C2270 C 0.41743 0.77816 0.63757 0.0
C2271 C 0.39848 0.79592 0.63744 0.0
C2272 C 0.41687 0.7629 0.65468 0.0
C2273 C 0.43439 0.7427 0.65463 0.0
C2274 C 0.43845 0.7306 0.63325 0.0
C2275 C 0.45466 0.71142 0.63342 0.0
C2276 C 0.46678 0.70409 0.65493 0.0
C2277 C 0.4627 0.71591 0.67632 0.0
C2278 C 0.44655 0.73512 0.67623 0.0
C2279 C 0.31945 0.78645 0.69759 0.0
C2280 C 0.32285 0.79 0.72266 0.0
C2281 C 0.33767 0.78485 0.68098 0.0
C2282 C 0.36002 0.78626 0.68899 0.0
C2283 C 0.36353 0.78961 0.71401 0.0
C2284 C 0.34516 0.79172 0.73055 0.0
C2285 C 0.37972 0.78404 0.67136 0.0
C2286 C 0.39841 0.76626 0.6715 0.0
C2287 C 0.37974 0.79896 0.65387 0.0
C2288 C 0.3605 0.81802 0.65252 0.0
C2289 C 0.35514 0.83125 0.67286 0.0
C2290 C 0.33684 0.84913 0.67148 0.0
C2291 C 0.32387 0.854 0.6498 0.0
C2292 C 0.32924 0.84104 0.62943 0.0
C2293 C 0.34751 0.82314 0.63072 0.0
H2294 H 0.30971 0.86785 0.64876 0.0
H2295 H 0.47926 0.68921 0.65505 0.0
H2296 H 0.34562 0.45177 0.63211 0.0
H2297 H 0.33297 0.43392 0.66493 0.0
H2298 H 0.29344 0.40703 0.6131 0.0
H2299 H 0.30612 0.42477 0.58014 0.0
H2300 H 0.26754 0.42174 0.65121 0.0
H2301 H 0.3459 0.38095 0.63883 0.0
H2302 H 0.389 0.37206 0.63637 0.0
H2303 H 0.39426 0.38938 0.71155 0.0
H2304 H 0.35118 0.39855 0.71439 0.0
H2305 H 0.24994 0.3372 0.71199 0.0
H2306 H 0.25752 0.36369 0.68683 0.0
H2307 H 0.29722 0.382 0.74618 0.0
H2308 H 0.29057 0.35485 0.77092 0.0
H2309 H 0.32189 0.3767 0.70913 0.0
H2310 H 0.24333 0.41407 0.72188 0.0
H2311 H 0.20039 0.42052 0.7245 0.0
H2312 H 0.19578 0.40613 0.64832 0.0
H2313 H 0.23874 0.39931 0.64529 0.0
C2314 C 0.33455 0.44181 0.62758 0.0
C2315 C 0.32689 0.43974 0.60339 0.0
C2316 C 0.32725 0.43166 0.64645 0.0
C2317 C 0.31227 0.41908 0.64154 0.0
C2318 C 0.30486 0.41676 0.61739 0.0
C2319 C 0.31211 0.42693 0.59854 0.0
C2320 C 0.30377 0.4087 0.66152 0.0
C2321 C 0.27945 0.41162 0.66366 0.0
C2322 C 0.31924 0.39622 0.6785 0.0
C2323 C 0.34519 0.39114 0.67659 0.0
C2324 C 0.35619 0.38328 0.6547 0.0
C2325 C 0.38066 0.37804 0.65329 0.0
C2326 C 0.39436 0.38035 0.67372 0.0
C2327 C 0.38363 0.38776 0.69567 0.0
C2328 C 0.35918 0.39302 0.69717 0.0
C2329 C 0.25962 0.34732 0.71991 0.0
C2330 C 0.26963 0.34401 0.74339 0.0
C2331 C 0.26393 0.36254 0.70552 0.0
C2332 C 0.27781 0.37507 0.7146 0.0
C2333 C 0.2865 0.37257 0.73868 0.0
C2334 C 0.28259 0.35711 0.75286 0.0
C2335 C 0.28572 0.38883 0.69806 0.0
C2336 C 0.30991 0.38692 0.69684 0.0
C2337 C 0.2702 0.40191 0.68171 0.0
C2338 C 0.24431 0.40606 0.6834 0.0
C2339 C 0.23319 0.41214 0.70571 0.0
C2340 C 0.20884 0.41589 0.70727 0.0
C2341 C 0.19537 0.41371 0.6866 0.0
C2342 C 0.20623 0.40782 0.66432 0.0
C2343 C 0.23059 0.40404 0.66266 0.0
H2344 H 0.17652 0.41661 0.68784 0.0
H2345 H 0.4133 0.37626 0.67258 0.0
H2346 H 0.5818 0.25617 0.59665 0.0
H2347 H 0.61064 0.26241 0.62595 0.0
H2348 H 0.6042 0.32118 0.59492 0.0
H2349 H 0.57486 0.31481 0.56486 0.0
H2350 H 0.65112 0.30045 0.60355 0.0
H2351 H 0.58233 0.31755 0.65134 0.0
H2352 H 0.54597 0.31305 0.6685 0.0
H2353 H 0.58523 0.25821 0.70309 0.0
H2354 H 0.62181 0.26222 0.68586 0.0
H2355 H 0.72672 0.32125 0.70022 0.0
H2356 H 0.69446 0.32254 0.67093 0.0
H2357 H 0.68537 0.26676 0.69931 0.0
H2358 H 0.71713 0.26577 0.72914 0.0
H2359 H 0.64428 0.29043 0.69184 0.0
H2360 H 0.71228 0.27153 0.64114 0.0
H2361 H 0.74877 0.27547 0.62363 0.0
H2362 H 0.71119 0.33324 0.59445 0.0
H2363 H 0.67451 0.32974 0.61203 0.0
C2364 C 0.58618 0.27061 0.59605 0.0
C2365 C 0.57569 0.285 0.57825 0.0
C2366 C 0.6028 0.27419 0.61305 0.0
C2367 C 0.60977 0.29235 0.6131 0.0
C2368 C 0.59923 0.30701 0.5955 0.0
C2369 C 0.58221 0.30347 0.57841 0.0
C2370 C 0.62842 0.29531 0.63125 0.0
C2371 C 0.64937 0.29868 0.62291 0.0
C2372 C 0.62674 0.29254 0.65662 0.0
C2373 C 0.6048 0.29012 0.66716 0.0
C2374 C 0.5832 0.30446 0.66247 0.0
C2375 C 0.56255 0.302 0.67223 0.0
C2376 C 0.56328 0.28534 0.68684 0.0
C2377 C 0.58469 0.27111 0.69176 0.0
C2378 C 0.60539 0.27348 0.68203 0.0
C2379 C 0.718 0.30914 0.70019 0.0
C2380 C 0.72487 0.29332 0.71718 0.0
C2381 C 0.69946 0.30984 0.68321 0.0
C2382 C 0.68731 0.29459 0.68231 0.0
C2383 C 0.69419 0.2788 0.69932 0.0
C2384 C 0.71258 0.27819 0.71643 0.0
C2385 C 0.66727 0.29515 0.66417 0.0
C2386 C 0.64602 0.2924 0.67253 0.0
C2387 C 0.66874 0.29843 0.63884 0.0
C2388 C 0.69072 0.30047 0.62812 0.0
C2389 C 0.71184 0.28513 0.63112 0.0
C2390 C 0.73254 0.28727 0.62116 0.0
C2391 C 0.73231 0.30462 0.608 0.0
C2392 C 0.71135 0.31983 0.60469 0.0
C2393 C 0.69059 0.31777 0.61462 0.0
H2394 H 0.74837 0.30626 0.60032 0.0
H2395 H 0.54728 0.28346 0.69437 0.0
H2396 H 0.69247 0.56613 0.44476 0.0
H2397 H 0.69497 0.53097 0.43206 0.0
H2398 H 0.73219 0.50956 0.49899 0.0
H2399 H 0.72933 0.54468 0.51196 0.0
H2400 H 0.75656 0.49308 0.45909 0.0
H2401 H 0.67903 0.50149 0.48712 0.0
H2402 H 0.63687 0.51818 0.49162 0.0
H2403 H 0.62561 0.51199 0.41463 0.0
H2404 H 0.66779 0.4955 0.40959 0.0
H2405 H 0.77509 0.3902 0.42156 0.0
H2406 H 0.76181 0.42194 0.44517 0.0
H2407 H 0.71718 0.4492 0.38487 0.0
H2408 H 0.72992 0.41728 0.36146 0.0
H2409 H 0.69557 0.46151 0.42562 0.0
H2410 H 0.77359 0.45545 0.39729 0.0
H2411 H 0.81593 0.43952 0.39267 0.0
H2412 H 0.82657 0.44271 0.47012 0.0
H2413 H 0.78426 0.45844 0.47525 0.0
C2414 C 0.70034 0.55396 0.45718 0.0
C2415 C 0.71059 0.55818 0.47937 0.0
C2416 C 0.70179 0.53386 0.4499 0.0
C2417 C 0.71372 0.5176 0.46458 0.0
C2418 C 0.72271 0.52184 0.48745 0.0
C2419 C 0.72091 0.54197 0.49492 0.0
C2420 C 0.71946 0.49642 0.45458 0.0
C2421 C 0.74322 0.48598 0.45221 0.0
C2422 C 0.70205 0.48744 0.44502 0.0
C2423 C 0.67665 0.49737 0.44796 0.0
C2424 C 0.66762 0.50382 0.47111 0.0
C2425 C 0.6437 0.51322 0.47377 0.0
C2426 C 0.62857 0.51618 0.45342 0.0
C2427 C 0.63734 0.50969 0.43037 0.0
C2428 C 0.66126 0.50029 0.42761 0.0
C2429 C 0.76231 0.40293 0.41342 0.0
C2430 C 0.75377 0.40133 0.38953 0.0
C2431 C 0.75476 0.42108 0.42692 0.0
C2432 C 0.7389 0.43818 0.41664 0.0
C2433 C 0.72952 0.4363 0.3932 0.0
C2434 C 0.73681 0.41803 0.37981 0.0
C2435 C 0.73273 0.45821 0.42986 0.0
C2436 C 0.70892 0.4685 0.43271 0.0
C2437 C 0.75013 0.46714 0.43979 0.0
C2438 C 0.77564 0.45774 0.43668 0.0
C2439 C 0.78491 0.45255 0.41336 0.0
C2440 C 0.80893 0.4436 0.41065 0.0
C2441 C 0.82391 0.43999 0.4311 0.0
C2442 C 0.81493 0.44541 0.4543 0.0
C2443 C 0.79092 0.45433 0.45712 0.0
H2444 H 0.84251 0.43308 0.42895 0.0
H2445 H 0.61005 0.52346 0.45552 0.0
H2446 H 0.62229 0.7746 0.47445 0.0
H2447 H 0.65229 0.77726 0.44568 0.0
H2448 H 0.60221 0.78058 0.38624 0.0
H2449 H 0.57311 0.77603 0.41502 0.0
H2450 H 0.63827 0.76162 0.36855 0.0
H2451 H 0.62537 0.82387 0.41367 0.0
H2452 H 0.62169 0.84674 0.44971 0.0
H2453 H 0.69352 0.81888 0.47015 0.0
H2454 H 0.69755 0.79566 0.43438 0.0
H2455 H 0.71576 0.79652 0.28707 0.0
H2456 H 0.68247 0.79532 0.31271 0.0
H2457 H 0.73079 0.77146 0.37159 0.0
H2458 H 0.76369 0.77219 0.34619 0.0
H2459 H 0.69393 0.80314 0.38728 0.0
H2460 H 0.70372 0.74183 0.33654 0.0
H2461 H 0.70376 0.72306 0.29767 0.0
H2462 H 0.63185 0.75566 0.28395 0.0
H2463 H 0.63155 0.77504 0.32251 0.0
C2464 C 0.61774 0.77603 0.45524 0.0
C2465 C 0.59525 0.77525 0.44709 0.0
C2466 C 0.63489 0.77776 0.43863 0.0
C2467 C 0.62982 0.77971 0.41333 0.0
C2468 C 0.60709 0.7791 0.40537 0.0
C2469 C 0.59025 0.77664 0.4219 0.0
C2470 C 0.64813 0.78179 0.39521 0.0
C2471 C 0.65005 0.77107 0.37268 0.0
C2472 C 0.664 0.79398 0.39994 0.0
C2473 C 0.66169 0.80789 0.42147 0.0
C2474 C 0.64034 0.82253 0.42594 0.0
C2475 C 0.63819 0.83557 0.4463 0.0
C2476 C 0.65734 0.83423 0.46224 0.0
C2477 C 0.67869 0.81988 0.45781 0.0
C2478 C 0.68093 0.80679 0.43748 0.0
C2479 C 0.71928 0.7908 0.30535 0.0
C2480 C 0.7426 0.78442 0.31438 0.0
C2481 C 0.70018 0.79015 0.32011 0.0
C2482 C 0.70389 0.7833 0.34435 0.0
C2483 C 0.72717 0.77691 0.35316 0.0
C2484 C 0.74611 0.77731 0.33845 0.0
C2485 C 0.68394 0.78295 0.36097 0.0
C2486 C 0.68185 0.79393 0.38322 0.0
C2487 C 0.66735 0.77168 0.35553 0.0
C2488 C 0.66772 0.76009 0.33228 0.0
C2489 C 0.68801 0.74519 0.32511 0.0
C2490 C 0.68805 0.73441 0.30312 0.0
C2491 C 0.66782 0.73821 0.28829 0.0
C2492 C 0.64752 0.75279 0.29541 0.0
C2493 C 0.64742 0.76369 0.31731 0.0
H2494 H 0.66777 0.72986 0.27131 0.0
H2495 H 0.65564 0.84433 0.478 0.0
H2496 H 0.32842 0.55985 0.50988 0.0
H2497 H 0.3245 0.59237 0.49028 0.0
H2498 H 0.36455 0.561 0.4297 0.0
H2499 H 0.36894 0.52835 0.44959 0.0
H2500 H 0.37507 0.59676 0.43984 0.0
H2501 H 0.3048 0.57489 0.42665 0.0
H2502 H 0.27115 0.5628 0.43913 0.0
H2503 H 0.24564 0.6174 0.48215 0.0
H2504 H 0.27932 0.6297 0.47015 0.0
H2505 H 0.32969 0.67346 0.35082 0.0
H2506 H 0.3427 0.64245 0.37467 0.0
H2507 H 0.30242 0.67323 0.4354 0.0
H2508 H 0.28939 0.70427 0.41169 0.0
H2509 H 0.29301 0.63779 0.42545 0.0
H2510 H 0.36289 0.66038 0.43673 0.0
H2511 H 0.39646 0.6722 0.42348 0.0
H2512 H 0.42256 0.61633 0.38295 0.0
H2513 H 0.38896 0.60426 0.39573 0.0
C2514 C 0.33661 0.55987 0.49252 0.0
C2515 C 0.34881 0.54147 0.48122 0.0
C2516 C 0.33434 0.57848 0.4813 0.0
C2517 C 0.34382 0.57911 0.45827 0.0
C2518 C 0.35703 0.56089 0.44745 0.0
C2519 C 0.35954 0.54223 0.45884 0.0
C2520 C 0.33855 0.59858 0.44486 0.0
C2521 C 0.35714 0.60565 0.43646 0.0
C2522 C 0.31516 0.61033 0.44073 0.0
C2523 C 0.29468 0.60313 0.44767 0.0
C2524 C 0.29208 0.58426 0.43887 0.0
C2525 C 0.273 0.57738 0.44585 0.0
C2526 C 0.2563 0.58931 0.46147 0.0
C2527 C 0.2586 0.60817 0.47007 0.0
C2528 C 0.27767 0.61512 0.46317 0.0
C2529 C 0.32402 0.67376 0.36944 0.0
C2530 C 0.30839 0.69131 0.37931 0.0
C2531 C 0.33146 0.656 0.38306 0.0
C2532 C 0.32359 0.6555 0.40688 0.0
C2533 C 0.30863 0.67321 0.41703 0.0
C2534 C 0.30116 0.69093 0.40344 0.0
C2535 C 0.32952 0.63618 0.42062 0.0
C2536 C 0.31098 0.62902 0.42894 0.0
C2537 C 0.35293 0.62437 0.42453 0.0
C2538 C 0.37329 0.63149 0.41702 0.0
C2539 C 0.3757 0.65067 0.42486 0.0
C2540 C 0.39475 0.6574 0.41746 0.0
C2541 C 0.4116 0.64505 0.40233 0.0
C2542 C 0.40948 0.62589 0.39465 0.0
C2543 C 0.39045 0.61908 0.402 0.0
H2544 H 0.42633 0.6503 0.39659 0.0
H2545 H 0.24154 0.58394 0.46687 0.0
H2546 H 0.44892 0.26246 0.49062 0.0
H2547 H 0.4182 0.26686 0.45929 0.0
H2548 H 0.44631 0.3107 0.42394 0.0
H2549 H 0.47719 0.30664 0.45616 0.0
H2550 H 0.39852 0.32151 0.41856 0.0
H2551 H 0.45797 0.26042 0.40288 0.0
H2552 H 0.48586 0.22734 0.41213 0.0
H2553 H 0.42863 0.20275 0.42947 0.0
H2554 H 0.4004 0.23579 0.42066 0.0
H2555 H 0.33001 0.30593 0.30948 0.0
H2556 H 0.36311 0.30803 0.33699 0.0
H2557 H 0.34292 0.26837 0.38708 0.0
H2558 H 0.31 0.26655 0.36009 0.0
H2559 H 0.39016 0.25691 0.38062 0.0
H2560 H 0.33077 0.3195 0.39622 0.0
H2561 H 0.304 0.35297 0.38678 0.0
H2562 H 0.36252 0.37529 0.36804 0.0
H2563 H 0.38967 0.34165 0.3765 0.0
C2564 C 0.44845 0.27335 0.47645 0.0
C2565 C 0.46573 0.28415 0.4761 0.0
C2566 C 0.43084 0.27574 0.45827 0.0
C2567 C 0.43 0.28869 0.43852 0.0
C2568 C 0.44646 0.30044 0.43871 0.0
C2569 C 0.46412 0.29821 0.45728 0.0
C2570 C 0.41259 0.28892 0.41756 0.0
C2571 C 0.39703 0.30739 0.40997 0.0
C2572 C 0.41018 0.2706 0.40612 0.0
C2573 C 0.42707 0.25064 0.41127 0.0
C2574 C 0.45133 0.24799 0.40881 0.0
C2575 C 0.46721 0.22925 0.41396 0.0
C2576 C 0.45902 0.21297 0.42143 0.0
C2577 C 0.43494 0.21539 0.4237 0.0
C2578 C 0.41899 0.23411 0.4186 0.0
C2579 C 0.33284 0.29748 0.32622 0.0
C2580 C 0.31738 0.28588 0.33237 0.0
C2581 C 0.35169 0.29884 0.34212 0.0
C2582 C 0.35573 0.28843 0.36444 0.0
C2583 C 0.34048 0.27657 0.37016 0.0
C2584 C 0.32156 0.27551 0.35458 0.0
C2585 C 0.3757 0.28942 0.38196 0.0
C2586 C 0.39179 0.27109 0.38895 0.0
C2587 C 0.37868 0.3079 0.39251 0.0
C2588 C 0.36226 0.32793 0.38671 0.0
C2589 C 0.33794 0.33142 0.38972 0.0
C2590 C 0.32268 0.35047 0.38463 0.0
C2591 C 0.33155 0.3663 0.37695 0.0
C2592 C 0.35568 0.36302 0.37403 0.0
C2593 C 0.371 0.34394 0.37888 0.0
H2594 H 0.31978 0.38112 0.37335 0.0
H2595 H 0.47134 0.19846 0.42541 0.0
H2596 H 0.61461 0.78065 0.55239 0.0
H2597 H 0.63977 0.78697 0.58574 0.0
H2598 H 0.58094 0.83096 0.61743 0.0
H2599 H 0.5554 0.82482 0.58341 0.0
H2600 H 0.62281 0.84266 0.62324 0.0
H2601 H 0.59663 0.78422 0.63916 0.0
H2602 H 0.58832 0.75096 0.63178 0.0
H2603 H 0.66178 0.72263 0.62239 0.0
H2604 H 0.67049 0.75579 0.62906 0.0
H2605 H 0.70171 0.82644 0.73242 0.0
H2606 H 0.66595 0.82987 0.70675 0.0
H2607 H 0.70733 0.79158 0.65151 0.0
H2608 H 0.74262 0.78808 0.67676 0.0
H2609 H 0.66642 0.77997 0.66558 0.0
H2610 H 0.6908 0.84005 0.6429 0.0
H2611 H 0.69907 0.87315 0.65187 0.0
H2612 H 0.62866 0.89769 0.67664 0.0
H2613 H 0.62009 0.86461 0.66813 0.0
C2614 C 0.60701 0.79194 0.56622 0.0
C2615 C 0.58295 0.80211 0.56536 0.0
C2616 C 0.62143 0.79546 0.58538 0.0
C2617 C 0.61218 0.80904 0.60449 0.0
C2618 C 0.58845 0.82028 0.603 0.0
C2619 C 0.57389 0.81684 0.58352 0.0
C2620 C 0.62737 0.81033 0.62628 0.0
C2621 C 0.63202 0.829 0.6328 0.0
C2622 C 0.63941 0.79256 0.63896 0.0
C2623 C 0.63418 0.77258 0.63445 0.0
C2624 C 0.61099 0.77096 0.63524 0.0
C2625 C 0.60621 0.7521 0.6312 0.0
C2626 C 0.6245 0.7347 0.62656 0.0
C2627 C 0.64761 0.73612 0.62592 0.0
C2628 C 0.65248 0.75496 0.62981 0.0
C2629 C 0.70305 0.81877 0.71481 0.0
C2630 C 0.72494 0.80694 0.70662 0.0
C2631 C 0.68269 0.82083 0.70013 0.0
C2632 C 0.684 0.81098 0.6772 0.0
C2633 C 0.70588 0.7993 0.66912 0.0
C2634 C 0.72606 0.79732 0.6836 0.0
C2635 C 0.66283 0.81191 0.6615 0.0
C2636 C 0.65695 0.79363 0.65625 0.0
C2637 C 0.64973 0.82997 0.65017 0.0
C2638 C 0.65491 0.8498 0.6552 0.0
C2639 C 0.67716 0.85244 0.6505 0.0
C2640 C 0.68188 0.87121 0.65544 0.0
C2641 C 0.66443 0.88749 0.66491 0.0
C2642 C 0.64218 0.88505 0.66937 0.0
C2643 C 0.63738 0.86631 0.66448 0.0
H2644 H 0.66811 0.90201 0.66871 0.0
H2645 H 0.62076 0.72011 0.62351 0.0
H2646 H 0.57751 0.28985 0.45419 0.0
H2647 H 0.60767 0.29513 0.42737 0.0
H2648 H 0.64802 0.23296 0.43762 0.0
H2649 H 0.61797 0.22763 0.46466 0.0
H2650 H 0.67584 0.26017 0.44029 0.0
H2651 H 0.61672 0.24484 0.38672 0.0
H2652 H 0.57654 0.24941 0.37007 0.0
H2653 H 0.57369 0.31067 0.35042 0.0
H2654 H 0.61376 0.30655 0.36728 0.0
H2655 H 0.72441 0.25769 0.31012 0.0
H2656 H 0.69559 0.25307 0.33885 0.0
H2657 H 0.7101 0.30014 0.38571 0.0
H2658 H 0.73904 0.305 0.35688 0.0
H2659 H 0.65513 0.28012 0.35465 0.0
H2660 H 0.7041 0.28574 0.44549 0.0
H2661 H 0.74473 0.27949 0.46158 0.0
H2662 H 0.76877 0.23439 0.40531 0.0
H2663 H 0.72827 0.24018 0.38911 0.0
C2664 C 0.59288 0.27734 0.45093 0.0
C2665 C 0.59526 0.25829 0.46157 0.0
C2666 C 0.61007 0.28036 0.43546 0.0
C2667 C 0.63009 0.26442 0.43035 0.0
C2668 C 0.63274 0.24549 0.44127 0.0
C2669 C 0.61544 0.2424 0.45657 0.0
C2670 C 0.64801 0.26736 0.41321 0.0
C2671 C 0.67128 0.26461 0.4216 0.0
C2672 C 0.64218 0.27298 0.38873 0.0
C2673 C 0.61815 0.27545 0.37848 0.0
C2674 C 0.60746 0.25934 0.37902 0.0
C2675 C 0.58471 0.26184 0.36952 0.0
C2676 C 0.57254 0.28034 0.35925 0.0
C2677 C 0.58312 0.29636 0.35841 0.0
C2678 C 0.60586 0.29394 0.36792 0.0
C2679 C 0.72163 0.26705 0.32656 0.0
C2680 C 0.7342 0.28169 0.33116 0.0
C2681 C 0.705 0.26444 0.34294 0.0
C2682 C 0.70068 0.27619 0.3645 0.0
C2683 C 0.71324 0.29078 0.36928 0.0
C2684 C 0.72977 0.29356 0.35275 0.0
C2685 C 0.68293 0.27314 0.38178 0.0
C2686 C 0.65966 0.27586 0.3734 0.0
C2687 C 0.68881 0.26737 0.4062 0.0
C2688 C 0.71319 0.26357 0.41595 0.0
C2689 C 0.71806 0.27445 0.43661 0.0
C2690 C 0.74106 0.27099 0.44574 0.0
C2691 C 0.75933 0.25661 0.43442 0.0
C2692 C 0.75462 0.24559 0.414 0.0
C2693 C 0.73165 0.24898 0.40481 0.0
H2694 H 0.77713 0.25396 0.44151 0.0
H2695 H 0.55494 0.28224 0.3519 0.0
H2696 H 0.80147 0.63103 0.45387 0.0
H2697 H 0.82249 0.64339 0.42207 0.0
H2698 H 0.76175 0.65171 0.37426 0.0
H2699 H 0.74072 0.63968 0.40599 0.0
H2700 H 0.80667 0.63474 0.35094 0.0
H2701 H 0.76622 0.69069 0.40544 0.0
H2702 H 0.75862 0.70743 0.44585 0.0
H2703 H 0.83156 0.70562 0.45449 0.0
H2704 H 0.83961 0.68861 0.41421 0.0
H2705 H 0.78535 0.71545 0.27175 0.0
H2706 H 0.79016 0.68766 0.29974 0.0
H2707 H 0.8471 0.70562 0.33656 0.0
H2708 H 0.84155 0.7343 0.3091 0.0
H2709 H 0.81678 0.70381 0.36786 0.0
H2710 H 0.85473 0.65685 0.30796 0.0
H2711 H 0.86251 0.64045 0.26743 0.0
H2712 H 0.79707 0.62441 0.26835 0.0
H2713 H 0.78871 0.64096 0.30873 0.0
C2714 C 0.79285 0.63518 0.4364 0.0
C2715 C 0.76945 0.63463 0.43236 0.0
C2716 C 0.80482 0.64221 0.41831 0.0
C2717 C 0.79363 0.64844 0.39586 0.0
C2718 C 0.7707 0.64687 0.39142 0.0
C2719 C 0.75865 0.64021 0.40959 0.0
C2720 C 0.80453 0.65862 0.37782 0.0
C2721 C 0.80906 0.6498 0.35452 0.0
C2722 C 0.80843 0.6779 0.3829 0.0
C2723 C 0.80357 0.68814 0.40703 0.0
C2724 C 0.78066 0.6937 0.41607 0.0
C2725 C 0.77627 0.70326 0.43891 0.0
C2726 C 0.79461 0.70751 0.45277 0.0
C2727 C 0.81738 0.70226 0.44377 0.0
C2728 C 0.82187 0.69266 0.42094 0.0
C2729 C 0.79926 0.7133 0.28542 0.0
C2730 C 0.81269 0.72741 0.28848 0.0
C2731 C 0.80222 0.69714 0.30133 0.0
C2732 C 0.81905 0.69443 0.32035 0.0
C2733 C 0.83394 0.70743 0.32209 0.0
C2734 C 0.83081 0.72378 0.30628 0.0
C2735 C 0.81824 0.68033 0.34035 0.0
C2736 C 0.81541 0.68844 0.36418 0.0
C2737 C 0.81615 0.66031 0.33572 0.0
C2738 C 0.82108 0.65021 0.31142 0.0
C2739 C 0.84193 0.64993 0.29948 0.0
C2740 C 0.84645 0.64059 0.27652 0.0
C2741 C 0.83029 0.6314 0.26532 0.0
C2742 C 0.80959 0.63151 0.27707 0.0
C2743 C 0.80498 0.64083 0.30003 0.0
H2744 H 0.83382 0.62419 0.24754 0.0
H2745 H 0.79118 0.71493 0.47045 0.0
H2746 H 0.45027 0.78399 0.49087 0.0
H2747 H 0.41938 0.79012 0.45956 0.0
H2748 H 0.45161 0.83116 0.42396 0.0
H2749 H 0.48283 0.82516 0.45582 0.0
H2750 H 0.40025 0.84302 0.42187 0.0
H2751 H 0.46457 0.78532 0.40336 0.0
H2752 H 0.49431 0.75312 0.4121 0.0
H2753 H 0.43981 0.72409 0.42553 0.0
H2754 H 0.40973 0.75624 0.41729 0.0
H2755 H 0.34016 0.8299 0.30914 0.0
H2756 H 0.36908 0.83326 0.34054 0.0
H2757 H 0.35366 0.78493 0.38068 0.0
H2758 H 0.32512 0.7812 0.34919 0.0
H2759 H 0.39921 0.77875 0.37778 0.0
H2760 H 0.33496 0.83652 0.3986 0.0
H2761 H 0.30485 0.86875 0.39093 0.0
H2762 H 0.35853 0.89755 0.37335 0.0
H2763 H 0.38896 0.8654 0.38062 0.0
C2764 C 0.45053 0.79472 0.47672 0.0
C2765 C 0.46906 0.80398 0.47567 0.0
C2766 C 0.43286 0.79817 0.45878 0.0
C2767 C 0.43342 0.81076 0.43913 0.0
C2768 C 0.4509 0.82132 0.43894 0.0
C2769 C 0.46865 0.81796 0.45716 0.0
C2770 C 0.41709 0.81097 0.41796 0.0
C2771 C 0.40024 0.82907 0.4119 0.0
C2772 C 0.41684 0.79269 0.40519 0.0
C2773 C 0.4349 0.77325 0.40988 0.0
C2774 C 0.45893 0.77211 0.40835 0.0
C2775 C 0.47585 0.75386 0.4132 0.0
C2776 C 0.46896 0.73658 0.41941 0.0
C2777 C 0.44512 0.7375 0.42073 0.0
C2778 C 0.42813 0.75573 0.41595 0.0
C2779 C 0.34277 0.82008 0.32474 0.0
C2780 C 0.33026 0.80526 0.32657 0.0
C2781 C 0.35929 0.82209 0.34277 0.0
C2782 C 0.36351 0.80946 0.36316 0.0
C2783 C 0.3508 0.79485 0.36514 0.0
C2784 C 0.33439 0.79277 0.34711 0.0
C2785 C 0.38183 0.81071 0.38196 0.0
C2786 C 0.39922 0.7928 0.38754 0.0
C2787 C 0.38247 0.82916 0.39421 0.0
C2788 C 0.36421 0.84849 0.38989 0.0
C2789 C 0.34033 0.84968 0.39291 0.0
C2790 C 0.32321 0.86794 0.38867 0.0
C2791 C 0.32976 0.88517 0.38158 0.0
C2792 C 0.35347 0.88418 0.3788 0.0
C2793 C 0.37066 0.86595 0.38299 0.0
H2794 H 0.31648 0.89929 0.37831 0.0
H2795 H 0.48209 0.72246 0.42315 0.0
H2796 H 0.27438 0.47142 0.46419 0.0
H2797 H 0.26021 0.45488 0.42908 0.0
H2798 H 0.31457 0.3996 0.44255 0.0
H2799 H 0.32893 0.41599 0.47756 0.0
H2800 H 0.28489 0.43742 0.38699 0.0
H2801 H 0.29069 0.35998 0.43042 0.0
H2802 H 0.28714 0.34617 0.47076 0.0
H2803 H 0.24118 0.4036 0.49309 0.0
H2804 H 0.2442 0.41767 0.45276 0.0
H2805 H 0.29606 0.35567 0.30264 0.0
H2806 H 0.29772 0.3811 0.33381 0.0
H2807 H 0.22965 0.37961 0.35887 0.0
H2808 H 0.22804 0.35365 0.32784 0.0
H2809 H 0.25912 0.37436 0.39536 0.0
H2810 H 0.23994 0.42347 0.33168 0.0
H2811 H 0.24395 0.43683 0.29117 0.0
H2812 H 0.31522 0.43654 0.30889 0.0
H2813 H 0.3117 0.42301 0.34944 0.0
C2814 C 0.28323 0.4557 0.45978 0.0
C2815 C 0.30276 0.44499 0.4737 0.0
C2816 C 0.27518 0.44633 0.43965 0.0
C2817 C 0.28629 0.42603 0.43332 0.0
C2818 C 0.30565 0.41525 0.44728 0.0
C2819 C 0.31384 0.42465 0.46725 0.0
C2820 C 0.27786 0.41605 0.412 0.0
C2821 C 0.27908 0.42372 0.38875 0.0
C2822 C 0.27005 0.39833 0.41442 0.0
C2823 C 0.26781 0.38991 0.4386 0.0
C2824 C 0.27972 0.36963 0.44388 0.0
C2825 C 0.27783 0.36176 0.46676 0.0
C2826 C 0.26399 0.37401 0.4845 0.0
C2827 C 0.25196 0.39414 0.47936 0.0
C2828 C 0.25378 0.40208 0.4565 0.0
C2829 C 0.28111 0.36108 0.31431 0.0
C2830 C 0.26195 0.35248 0.31277 0.0
C2831 C 0.28208 0.37574 0.3322 0.0
C2832 C 0.2638 0.38235 0.34877 0.0
C2833 C 0.24401 0.3747 0.34635 0.0
C2834 C 0.24307 0.35991 0.32851 0.0
C2835 C 0.26658 0.39543 0.37009 0.0
C2836 C 0.26445 0.3883 0.39345 0.0
C2837 C 0.27356 0.41362 0.36773 0.0
C2838 C 0.27555 0.42221 0.34358 0.0
C2839 C 0.25648 0.42623 0.32692 0.0
C2840 C 0.25867 0.43383 0.30395 0.0
C2841 C 0.27983 0.43753 0.29747 0.0
C2842 C 0.29883 0.43371 0.31396 0.0
C2843 C 0.29672 0.42613 0.33696 0.0
H2844 H 0.2815 0.44337 0.27966 0.0
H2845 H 0.26256 0.3679 0.50221 0.0
H2846 H 0.49591 0.23845 0.62094 0.0
H2847 H 0.46499 0.24242 0.65085 0.0
H2848 H 0.4137 0.27359 0.59765 0.0
H2849 H 0.44492 0.27052 0.56824 0.0
H2850 H 0.40332 0.29208 0.63728 0.0
H2851 H 0.42231 0.22079 0.6164 0.0
H2852 H 0.44794 0.18593 0.61105 0.0
H2853 H 0.46641 0.18417 0.68722 0.0
H2854 H 0.44109 0.21913 0.69296 0.0
H2855 H 0.29919 0.28478 0.68911 0.0
H2856 H 0.33348 0.27922 0.66385 0.0
H2857 H 0.37831 0.25532 0.72541 0.0
H2858 H 0.34342 0.25946 0.75057 0.0
H2859 H 0.39406 0.23403 0.68513 0.0
H2860 H 0.36757 0.30667 0.70374 0.0
H2861 H 0.3365 0.33908 0.70501 0.0
H2862 H 0.32816 0.33664 0.62722 0.0
H2863 H 0.35864 0.30395 0.62553 0.0
C2864 C 0.478 0.24606 0.61566 0.0
C2865 C 0.4728 0.2541 0.59222 0.0
C2866 C 0.46025 0.24825 0.63274 0.0
C2867 C 0.43673 0.25798 0.62656 0.0
C2868 C 0.43161 0.26604 0.60307 0.0
C2869 C 0.44944 0.26426 0.58619 0.0
C2870 C 0.41748 0.26015 0.6445 0.0
C2871 C 0.40126 0.27928 0.64753 0.0
C2872 C 0.41481 0.24366 0.65844 0.0
C2873 C 0.43002 0.22265 0.65505 0.0
C2874 C 0.43197 0.21302 0.63197 0.0
C2875 C 0.44642 0.19323 0.62887 0.0
C2876 C 0.45885 0.18287 0.64877 0.0
C2877 C 0.4568 0.19224 0.67182 0.0
C2878 C 0.4424 0.21203 0.67501 0.0
C2879 C 0.31631 0.27826 0.69738 0.0
C2880 C 0.31857 0.27303 0.7221 0.0
C2881 C 0.33601 0.27525 0.68288 0.0
C2882 C 0.3587 0.26757 0.69282 0.0
C2883 C 0.36105 0.26164 0.71735 0.0
C2884 C 0.34113 0.2642 0.73183 0.0
C2885 C 0.3797 0.26582 0.67741 0.0
C2886 C 0.39632 0.24683 0.67502 0.0
C2887 C 0.38239 0.28232 0.66351 0.0
C2888 C 0.3653 0.30275 0.66455 0.0
C2889 C 0.35914 0.31306 0.68691 0.0
C2890 C 0.34156 0.33147 0.68769 0.0
C2891 C 0.3303 0.33984 0.66618 0.0
C2892 C 0.33685 0.33007 0.64385 0.0
C2893 C 0.35426 0.31161 0.64297 0.0
H2894 H 0.31637 0.35381 0.6667 0.0
H2895 H 0.47003 0.16755 0.64634 0.0
H2896 H 0.80598 0.50077 0.50511 0.0
H2897 H 0.80519 0.47038 0.52771 0.0
H2898 H 0.76242 0.50841 0.58217 0.0
H2899 H 0.76235 0.53842 0.55983 0.0
H2900 H 0.80139 0.48139 0.6016 0.0
H2901 H 0.73792 0.48164 0.54429 0.0
H2902 H 0.71644 0.47871 0.50588 0.0
H2903 H 0.76455 0.42055 0.49058 0.0
H2904 H 0.78641 0.42315 0.52882 0.0
H2905 H 0.75709 0.41926 0.67599 0.0
H2906 H 0.75928 0.44437 0.64574 0.0
H2907 H 0.8005 0.39652 0.59979 0.0
H2908 H 0.79862 0.37131 0.63008 0.0
H2909 H 0.7674 0.42533 0.57379 0.0
H2910 H 0.82805 0.4239 0.63359 0.0
H2911 H 0.84459 0.4248 0.67513 0.0
H2912 H 0.8 0.48521 0.68664 0.0
H2913 H 0.78291 0.48456 0.64528 0.0
C2914 C 0.79625 0.5027 0.52178 0.0
C2915 C 0.7846 0.52231 0.53066 0.0
C2916 C 0.79579 0.48527 0.53464 0.0
C2917 C 0.7838 0.48719 0.55664 0.0
C2918 C 0.77194 0.50661 0.56532 0.0
C2919 C 0.7722 0.5239 0.55249 0.0
C2920 C 0.78453 0.46933 0.57174 0.0
C2921 C 0.79388 0.46917 0.59551 0.0
C2922 C 0.77536 0.45309 0.56357 0.0
C2923 C 0.76399 0.45272 0.53927 0.0
C2924 C 0.74425 0.46844 0.53248 0.0
C2925 C 0.7319 0.46677 0.51081 0.0
C2926 C 0.73912 0.44947 0.49582 0.0
C2927 C 0.75896 0.43395 0.50221 0.0
C2928 C 0.77135 0.43552 0.52385 0.0
C2929 C 0.76651 0.41407 0.65939 0.0
C2930 C 0.77784 0.39333 0.65553 0.0
C2931 C 0.76775 0.42841 0.64214 0.0
C2932 C 0.78043 0.42231 0.62077 0.0
C2933 C 0.79071 0.40152 0.61622 0.0
C2934 C 0.7895 0.38714 0.6335 0.0
C2935 C 0.78365 0.43777 0.60371 0.0
C2936 C 0.77526 0.4374 0.57965 0.0
C2937 C 0.79366 0.45358 0.61157 0.0
C2938 C 0.80407 0.45412 0.63638 0.0
C2939 C 0.82165 0.43733 0.64503 0.0
C2940 C 0.83114 0.43779 0.66854 0.0
C2941 C 0.82332 0.45503 0.68353 0.0
C2942 C 0.80603 0.47186 0.67502 0.0
C2943 C 0.79645 0.47146 0.65153 0.0
H2944 H 0.83069 0.45537 0.70173 0.0
H2945 H 0.72922 0.44799 0.47938 0.0
H2946 H 0.27089 0.54904 0.53699 0.0
H2947 H 0.26345 0.58195 0.55831 0.0
H2948 H 0.25957 0.5528 0.62628 0.0
H2949 H 0.26653 0.51983 0.60503 0.0
H2950 H 0.22935 0.59115 0.62456 0.0
H2951 H 0.31121 0.55918 0.6091 0.0
H2952 H 0.34465 0.54315 0.58296 0.0
H2953 H 0.33151 0.59767 0.54123 0.0
H2954 H 0.29777 0.61395 0.56697 0.0
H2955 H 0.26116 0.66094 0.70662 0.0
H2956 H 0.26177 0.62979 0.6833 0.0
H2957 H 0.26867 0.6599 0.61683 0.0
H2958 H 0.26897 0.69089 0.64013 0.0
H2959 H 0.29612 0.62177 0.6167 0.0
H2960 H 0.21555 0.65458 0.63351 0.0
H2961 H 0.18185 0.67053 0.65934 0.0
H2962 H 0.19208 0.61475 0.69807 0.0
H2963 H 0.22607 0.59854 0.67269 0.0
C2964 C 0.26784 0.54969 0.55638 0.0
C2965 C 0.26971 0.5318 0.56942 0.0
C2966 C 0.26367 0.5685 0.56853 0.0
C2967 C 0.26161 0.56967 0.59393 0.0
C2968 C 0.26131 0.55216 0.60668 0.0
C2969 C 0.26529 0.53333 0.5945 0.0
C2970 C 0.26237 0.58857 0.60744 0.0
C2971 C 0.24401 0.59778 0.62303 0.0
C2972 C 0.28137 0.59735 0.60508 0.0
C2973 C 0.30188 0.58772 0.58985 0.0
C2974 C 0.31539 0.56772 0.59428 0.0
C2975 C 0.33441 0.55859 0.57956 0.0
C2976 C 0.34022 0.5694 0.56048 0.0
C2977 C 0.32701 0.58934 0.55607 0.0
C2978 C 0.30795 0.59853 0.57072 0.0
C2979 C 0.26332 0.66081 0.6871 0.0
C2980 C 0.26487 0.67842 0.67519 0.0
C2981 C 0.26335 0.64308 0.67377 0.0
C2982 C 0.26475 0.64269 0.64829 0.0
C2983 C 0.26735 0.65994 0.63646 0.0
C2984 C 0.26739 0.67766 0.64978 0.0
C2985 C 0.2631 0.62442 0.63392 0.0
C2986 C 0.28136 0.61526 0.61817 0.0
C2987 C 0.244 0.61573 0.63613 0.0
C2988 C 0.22349 0.62541 0.65135 0.0
C2989 C 0.21072 0.64576 0.64766 0.0
C2990 C 0.19155 0.65484 0.6622 0.0
C2991 C 0.18486 0.64368 0.68038 0.0
C2992 C 0.1973 0.62339 0.684 0.0
C2993 C 0.2165 0.61424 0.66953 0.0
H2994 H 0.17001 0.65074 0.69161 0.0
H2995 H 0.35495 0.56231 0.5491 0.0
loop_
_geom_bond_atom_site_label_1
_geom_bond_atom_site_label_2
_geom_bond_distance
_geom_bond_site_symmetry_2
_ccdc_geom_bond_type
Cu0 N1 1.999 . S
Cu0 O6 1.974 . S
Cu0 N11 1.985 1_455 S
Cu0 O20 1.959 1_455 S
N1 Cu0 1.999 . S
N1 C3 1.263 . S
N1 C5 1.389 . S
N2 C3 1.358 . S
N2 C4 1.400 . S
C3 N1 1.263 . S
C3 N2 1.358 . S
C3 H9 0.930 . S
C4 N2 1.400 . S
C4 C5 1.351 . S
C4 H21 0.930 . S
C5 N1 1.389 . S
C5 C4 1.351 . S
C5 H10 0.930 . S
O6 Cu0 1.974 . S
O6 C16 1.282 . S
C7 O8 1.261 . S
C7 O20 1.251 . S
O8 C7 1.261 . S
H9 C3 0.930 . S
H10 C5 0.930 . S
N11 Cu0 1.985 1_655 S
N11 C13 1.335 . S
N11 C14 1.435 . S
N12 C13 1.345 . S
N12 C15 1.336 1_545 S
C13 N11 1.335 . S
C13 N12 1.345 . S
C13 H18 0.930 . S
C14 N11 1.435 . S
C14 C15 1.315 1_545 S
C14 H19 0.920 1_645 S
C15 N12 1.336 1_565 S
C15 C14 1.315 1_565 S
C15 H22 0.929 . S
C16 O6 1.282 . S
C16 O17 1.216 . S
O17 C16 1.216 . S
H18 C13 0.930 . S
H19 C14 0.920 1_465 S
O20 Cu0 1.959 1_655 S
O20 C7 1.251 . S
H21 C4 0.930 . S
H22 C15 0.929 . S
Cu23 N24 1.999 1_455 S
Cu23 O29 1.974 1_455 S
Cu23 N34 1.985 . S
Cu23 O43 1.959 . S
N24 Cu23 1.999 1_655 S
N24 C26 1.263 . S
N24 C28 1.389 1_545 S
N25 C26 1.399 . S
N25 C27 1.380 1_545 S
C26 N24 1.263 . S
C26 N25 1.399 . S
C26 H32 0.930 . S
C27 N25 1.380 1_565 S
C27 C28 1.351 . S
C27 H44 0.930 . S
C28 N24 1.389 1_565 S
C28 C27 1.351 . S
C28 H33 0.930 1_655 S
O29 Cu23 1.974 1_655 S
O29 C39 1.282 . S
C30 O31 1.261 . S
C30 O43 1.251 . S
O31 C30 1.261 . S
H32 C26 0.930 . S
H33 C28 0.930 1_455 S
N34 Cu23 1.985 . S
N34 C36 1.335 . S
N34 C37 1.390 . S
N35 C36 1.345 . S
N35 C38 1.336 . S
C36 N34 1.335 . S
C36 N35 1.345 . S
C36 H41 0.930 . S
C37 N34 1.390 . S
C37 C38 1.346 . S
C37 H42 0.899 1_455 S
C38 N35 1.336 . S
C38 C37 1.346 . S
C38 H45 0.929 . S
C39 O29 1.282 . S
C39 O40 1.216 . S
O40 C39 1.216 . S
H41 C36 0.930 . S
H42 C37 0.899 1_655 S
O43 Cu23 1.959 . S
O43 C30 1.251 . S
H44 C27 0.930 . S
H45 C38 0.929 . S
Cu46 N47 1.999 1_554 S
Cu46 O52 1.974 . S
Cu46 N57 1.985 . S
Cu46 O66 1.959 1_554 S
N47 Cu46 1.999 1_556 S
N47 C49 1.263 . S
N47 C51 1.389 . S
N48 C49 1.358 . S
N48 C50 1.400 . S
C49 N47 1.263 . S
C49 N48 1.358 . S
C49 H55 0.954 . S
C50 N48 1.400 . S
C50 C51 1.351 . S
C50 H67 0.930 . S
C51 N47 1.389 . S
C51 C50 1.351 . S
C51 H56 0.930 . S
O52 Cu46 1.974 . S
O52 C62 1.282 . S
C53 O54 1.261 . S
C53 O66 1.251 . S
O54 C53 1.261 . S
H55 C49 0.954 . S
H56 C51 0.930 . S
N57 Cu46 1.985 . S
N57 C59 1.335 . S
N57 C60 1.390 . S
N58 C59 1.345 . S
N58 C61 1.336 . S
C59 N57 1.335 . S
C59 N58 1.345 . S
C59 H64 0.930 . S
C60 N57 1.390 . S
C60 C61 1.346 . S
C60 H65 0.930 . S
C61 N58 1.336 . S
C61 C60 1.346 . S
C61 H68 0.929 . S
C62 O52 1.282 . S
C62 O63 1.216 . S
O63 C62 1.216 . S
H64 C59 0.930 . S
H65 C60 0.930 . S
O66 Cu46 1.959 1_556 S
O66 C53 1.251 . S
H67 C50 0.930 . S
H68 C61 0.929 . S
Cu69 N70 1.999 1_654 S
Cu69 O75 1.974 1_655 S
Cu69 N80 1.985 . S
Cu69 O89 1.959 1_554 S
N70 Cu69 1.999 1_456 S
N70 C72 1.263 . S
N70 C74 1.389 . S
N71 C72 1.358 . S
N71 C73 1.400 . S
C72 N70 1.263 . S
C72 N71 1.358 . S
C72 H78 0.930 . S
C73 N71 1.400 . S
C73 C74 1.351 . S
C73 H90 0.930 . S
C74 N70 1.389 . S
C74 C73 1.351 . S
C74 H79 0.889 1_455 S
O75 Cu69 1.974 1_455 S
O75 C85 1.282 . S
C76 O77 1.261 . S
C76 O89 1.251 . S
O77 C76 1.261 . S
H78 C72 0.930 . S
H79 C74 0.889 1_655 S
N80 Cu69 1.985 . S
N80 C82 1.335 . S
N80 C83 1.390 . S
N81 C82 1.345 . S
N81 C84 1.336 . S
C82 N80 1.335 . S
C82 N81 1.345 . S
C82 H87 0.930 . S
C83 N80 1.390 . S
C83 C84 1.346 . S
C83 H88 0.930 1_655 S
C84 N81 1.336 . S
C84 C83 1.346 . S
C84 H91 0.929 . S
C85 O75 1.282 . S
C85 O86 1.216 . S
O86 C85 1.216 . S
H87 C82 0.930 . S
H88 C83 0.930 1_455 S
O89 Cu69 1.959 1_556 S
O89 C76 1.251 . S
H90 C73 0.930 . S
H91 C84 0.929 . S
Cu92 N93 1.999 1_554 S
Cu92 O98 1.974 . S
Cu92 N103 1.985 1_545 S
Cu92 O112 1.959 1_544 S
N93 Cu92 1.999 1_556 S
N93 C95 1.263 . S
N93 C97 1.389 . S
N94 C95 1.358 . S
N94 C96 1.400 . S
C95 N93 1.263 . S
C95 N94 1.358 . S
C95 H101 0.930 . S
C96 N94 1.400 . S
C96 C97 1.351 . S
C96 H113 0.930 . S
C97 N93 1.389 . S
C97 C96 1.351 . S
C97 H102 0.930 . S
O98 Cu92 1.974 . S
O98 C108 1.282 . S
C99 O100 1.261 . S
C99 O112 1.251 . S
O100 C99 1.261 . S
H101 C95 0.930 . S
H102 C97 0.930 . S
N103 Cu92 1.985 1_565 S
N103 C105 1.335 . S
N103 C106 1.390 . S
N104 C105 1.345 . S
N104 C107 1.336 . S
C105 N103 1.335 . S
C105 N104 1.345 . S
C105 H110 0.930 . S
C106 N103 1.390 . S
C106 C107 1.346 . S
C106 H111 0.930 . S
C107 N104 1.336 . S
C107 C106 1.346 . S
C107 H114 0.929 . S
C108 O98 1.282 . S
C108 O109 1.216 . S
O109 C108 1.216 . S
H110 C105 0.930 . S
H111 C106 0.930 . S
O112 Cu92 1.959 1_566 S
O112 C99 1.251 . S
H113 C96 0.930 . S
H114 C107 0.929 . S
Cu115 N116 1.999 1_454 S
Cu115 O121 1.974 1_455 S
Cu115 N126 1.985 . S
Cu115 O135 1.959 1_554 S
N116 Cu115 1.999 1_656 S
N116 C118 1.263 . S
N116 C120 1.389 . S
N117 C118 1.358 . S
N117 C119 1.400 . S
C118 N116 1.263 . S
C118 N117 1.358 . S
C118 H124 0.930 . S
C119 N117 1.400 . S
C119 C120 1.351 . S
C119 H136 0.930 . S
C120 N116 1.389 . S
C120 C119 1.351 . S
C120 H125 0.930 1_655 S
O121 Cu115 1.974 1_655 S
O121 C131 1.282 . S
C122 O123 1.261 . S
C122 O135 1.251 . S
O123 C122 1.261 . S
H124 C118 0.930 . S
H125 C120 0.930 1_455 S
N126 Cu115 1.985 . S
N126 C128 1.335 . S
N126 C129 1.390 . S
N127 C128 1.345 . S
N127 C130 1.336 . S
C128 N126 1.335 . S
C128 N127 1.345 . S
C128 H133 0.930 . S
C129 N126 1.390 . S
C129 C130 1.346 . S
C129 H134 0.930 . S
C130 N127 1.336 . S
C130 C129 1.346 . S
C130 H137 0.929 . S
C131 O121 1.282 . S
C131 O132 1.216 . S
O132 C131 1.216 . S
H133 C128 0.930 . S
H134 C129 0.930 . S
O135 Cu115 1.959 1_556 S
O135 C122 1.251 . S
H136 C119 0.930 . S
H137 C130 0.929 . S
Cu138 N139 1.999 . S
Cu138 O144 1.974 . S
Cu138 N149 1.985 . S
Cu138 O158 1.959 . S
N139 Cu138 1.999 . S
N139 C141 1.263 . S
N139 C143 1.389 . S
N140 C141 1.358 . S
N140 C142 1.400 . S
C141 N139 1.263 . S
C141 N140 1.358 . S
C141 H147 0.930 . S
C142 N140 1.400 . S
C142 C143 1.351 . S
C142 H159 0.930 . S
C143 N139 1.389 . S
C143 C142 1.351 . S
C143 H148 0.930 . S
O144 Cu138 1.974 . S
O144 C154 1.282 . S
C145 O146 1.261 . S
C145 O158 1.251 . S
O146 C145 1.261 . S
H147 C141 0.930 . S
H148 C143 0.930 . S
N149 Cu138 1.985 . S
N149 C151 1.335 . S
N149 C152 1.390 . S
N150 C151 1.345 . S
N150 C153 1.336 . S
C151 N149 1.335 . S
C151 N150 1.345 . S
C151 H156 0.930 . S
C152 N149 1.390 . S
C152 C153 1.346 . S
C152 H157 0.930 . S
C153 N150 1.336 . S
C153 C152 1.346 . S
C153 H160 0.929 . S
C154 O144 1.282 . S
C154 O155 1.216 . S
O155 C154 1.216 . S
H156 C151 0.930 . S
H157 C152 0.930 . S
O158 Cu138 1.959 . S
O158 C145 1.251 . S
H159 C142 0.930 . S
H160 C153 0.929 . S
Cu161 N162 1.999 . S
Cu161 O167 1.974 . S
Cu161 N172 1.985 . S
Cu161 O181 1.959 . S
N162 Cu161 1.999 . S
N162 C164 1.263 . S
N162 C166 1.389 . S
N163 C164 1.358 . S
N163 C165 1.400 . S
C164 N162 1.263 . S
C164 N163 1.358 . S
C164 H170 0.930 . S
C165 N163 1.400 . S
C165 C166 1.351 . S
C165 H182 0.930 . S
C166 N162 1.389 . S
C166 C165 1.351 . S
C166 H171 0.930 . S
O167 Cu161 1.974 . S
O167 C177 1.282 . S
C168 O169 1.261 . S
C168 O181 1.251 . S
O169 C168 1.261 . S
H170 C164 0.930 . S
H171 C166 0.930 . S
N172 Cu161 1.985 . S
N172 C174 1.335 . S
N172 C175 1.390 . S
N173 C174 1.345 . S
N173 C176 1.336 . S
C174 N172 1.335 . S
C174 N173 1.345 . S
C174 H179 0.930 . S
C175 N172 1.390 . S
C175 C176 1.346 . S
C175 H180 0.930 . S
C176 N173 1.336 . S
C176 C175 1.346 . S
C176 H183 0.929 . S
C177 O167 1.282 . S
C177 O178 1.216 . S
O178 C177 1.216 . S
H179 C174 0.930 . S
H180 C175 0.930 . S
O181 Cu161 1.959 . S
O181 C168 1.251 . S
H182 C165 0.930 . S
H183 C176 0.929 . S
Cu184 N185 1.999 . S
Cu184 O190 1.974 . S
Cu184 N195 1.985 . S
Cu184 O204 1.959 . S
N185 Cu184 1.999 . S
N185 C187 1.263 . S
N185 C189 1.389 . S
N186 C187 1.358 . S
N186 C188 1.400 . S
C187 N185 1.263 . S
C187 N186 1.358 . S
C187 H193 0.930 . S
C188 N186 1.400 . S
C188 C189 1.351 . S
C188 H205 0.930 . S
C189 N185 1.389 . S
C189 C188 1.351 . S
C189 H194 0.930 . S
O190 Cu184 1.974 . S
O190 C200 1.282 . S
C191 O192 1.261 . S
C191 O204 1.251 . S
O192 C191 1.261 . S
H193 C187 0.930 . S
H194 C189 0.930 . S
N195 Cu184 1.985 . S
N195 C197 1.335 . S
N195 C198 1.390 . S
N196 C197 1.345 . S
N196 C199 1.336 . S
C197 N195 1.335 . S
C197 N196 1.345 . S
C197 H202 0.930 . S
C198 N195 1.390 . S
C198 C199 1.346 . S
C198 H203 0.930 . S
C199 N196 1.336 . S
C199 C198 1.346 . S
C199 H206 0.929 . S
C200 O190 1.282 . S
C200 O201 1.216 . S
O201 C200 1.216 . S
H202 C197 0.930 . S
H203 C198 0.930 . S
O204 Cu184 1.959 . S
O204 C191 1.251 . S
H205 C188 0.930 . S
H206 C199 0.929 . S
Cu207 N208 1.999 . S
Cu207 O213 1.974 . S
Cu207 N218 1.985 . S
Cu207 O227 1.959 . S
N208 Cu207 1.999 . S
N208 C210 1.263 . S
N208 C212 1.389 . S
N209 C210 1.358 . S
N209 C211 1.400 . S
C210 N208 1.263 . S
C210 N209 1.358 . S
C210 H216 0.930 . S
C211 N209 1.400 . S
C211 C212 1.351 . S
C211 H228 0.930 . S
C212 N208 1.389 . S
C212 C211 1.351 . S
C212 H217 0.930 . S
O213 Cu207 1.974 . S
O213 C223 1.282 . S
C214 O215 1.261 . S
C214 O227 1.251 . S
O215 C214 1.261 . S
H216 C210 0.930 . S
H217 C212 0.930 . S
N218 Cu207 1.985 . S
N218 C220 1.335 . S
N218 C221 1.390 . S
N219 C220 1.345 . S
N219 C222 1.336 . S
C220 N218 1.335 . S
C220 N219 1.345 . S
C220 H225 0.930 . S
C221 N218 1.390 . S
C221 C222 1.346 . S
C221 H226 0.930 . S
C222 N219 1.336 . S
C222 C221 1.346 . S
C222 H229 0.929 . S
C223 O213 1.282 . S
C223 O224 1.216 . S
O224 C223 1.216 . S
H225 C220 0.930 . S
H226 C221 0.930 . S
O227 Cu207 1.959 . S
O227 C214 1.251 . S
H228 C211 0.930 . S
H229 C222 0.929 . S
Cu230 N231 1.999 . S
Cu230 O236 1.974 . S
Cu230 N241 1.985 . S
Cu230 O250 1.959 . S
N231 Cu230 1.999 . S
N231 C233 1.263 . S
N231 C235 1.389 . S
N232 C233 1.358 . S
N232 C234 1.400 . S
C233 N231 1.263 . S
C233 N232 1.358 . S
C233 H239 0.930 . S
C234 N232 1.400 . S
C234 C235 1.351 . S
C234 H251 0.930 . S
C235 N231 1.389 . S
C235 C234 1.351 . S
C235 H240 0.930 . S
O236 Cu230 1.974 . S
O236 C246 1.282 . S
C237 O238 1.261 . S
C237 O250 1.251 . S
O238 C237 1.261 . S
H239 C233 0.930 . S
H240 C235 0.930 . S
N241 Cu230 1.985 . S
N241 C243 1.335 . S
N241 C244 1.390 . S
N242 C243 1.345 . S
N242 C245 1.336 . S
C243 N241 1.335 . S
C243 N242 1.345 . S
C243 H248 0.930 . S
C244 N241 1.390 . S
C244 C245 1.346 . S
C244 H249 0.930 . S
C245 N242 1.336 . S
C245 C244 1.346 . S
C245 H252 0.929 . S
C246 O236 1.282 . S
C246 O247 1.216 . S
O247 C246 1.216 . S
H248 C243 0.930 . S
H249 C244 0.930 . S
O250 Cu230 1.959 . S
O250 C237 1.251 . S
H251 C234 0.930 . S
H252 C245 0.929 . S
Cu253 N254 1.999 . S
Cu253 O259 1.974 . S
Cu253 N264 1.985 . S
Cu253 O273 1.959 . S
N254 Cu253 1.999 . S
N254 C256 1.263 . S
N254 C258 1.389 . S
N255 C256 1.358 . S
N255 C257 1.400 . S
C256 N254 1.263 . S
C256 N255 1.358 . S
C256 H262 0.930 . S
C257 N255 1.400 . S
C257 C258 1.351 . S
C257 H274 0.930 . S
C258 N254 1.389 . S
C258 C257 1.351 . S
C258 H263 0.930 . S
O259 Cu253 1.974 . S
O259 C269 1.282 . S
C260 O261 1.261 . S
C260 O273 1.251 . S
O261 C260 1.261 . S
H262 C256 0.930 . S
H263 C258 0.930 . S
N264 Cu253 1.985 . S
N264 C266 1.335 . S
N264 C267 1.390 . S
N265 C266 1.345 . S
N265 C268 1.336 . S
C266 N264 1.335 . S
C266 N265 1.345 . S
C266 H271 0.930 . S
C267 N264 1.390 . S
C267 C268 1.346 . S
C267 H272 0.930 . S
C268 N265 1.336 . S
C268 C267 1.346 . S
C268 H275 0.929 . S
C269 O259 1.282 . S
C269 O270 1.216 . S
O270 C269 1.216 . S
H271 C266 0.930 . S
H272 C267 0.930 . S
O273 Cu253 1.959 . S
O273 C260 1.251 . S
H274 C257 0.930 . S
H275 C268 0.929 . S
Tb276 C278 2.809 . S
Tb276 O296 2.484 . S
Tb276 O297 2.440 . S
Tb276 O298 2.658 . S
Tb276 O299 2.409 . S
Tb276 O300 2.378 . S
Tb276 O304 2.325 . S
Tb276 O307 2.341 . S
Tb277 C287 2.809 . S
Tb277 O298 2.325 . S
Tb277 O301 2.341 . S
Tb277 O302 2.484 . S
Tb277 O303 2.440 . S
Tb277 O304 2.658 . S
Tb277 O305 2.409 . S
Tb277 O306 2.378 . S
C278 Tb276 2.809 . S
C278 C279 1.514 . S
C278 O296 1.248 . S
C278 O297 1.266 . S
C279 C278 1.514 . S
C279 C280 1.359 . S
C279 C284 1.348 . S
C280 C279 1.359 . S
C280 C281 1.380 . S
C280 H308 0.929 . S
C281 C280 1.380 . S
C281 C282 1.347 . S
C281 H309 0.931 . S
C282 C281 1.347 . S
C282 C283 1.369 . S
C283 C282 1.369 . S
C283 C284 1.408 . S
C283 H310 0.930 . S
C284 C279 1.348 . S
C284 C283 1.408 . S
C284 H311 0.930 . S
C285 O298 1.281 . S
C285 O299 1.254 . S
C286 O300 1.236 . S
C286 O301 1.266 . S
C287 Tb277 2.809 . S
C287 C288 1.514 . S
C287 O302 1.248 . S
C287 O303 1.266 . S
C288 C287 1.514 . S
C288 C289 1.359 . S
C288 C293 1.348 . S
C289 C288 1.359 . S
C289 C290 1.380 . S
C289 H312 0.929 . S
C290 C289 1.380 . S
C290 C291 1.347 . S
C290 H313 0.931 . S
C291 C290 1.347 . S
C291 C292 1.369 . S
C292 C291 1.369 . S
C292 C293 1.408 . S
C292 H314 0.930 . S
C293 C288 1.348 . S
C293 C292 1.408 . S
C293 H315 0.930 . S
C294 O304 1.281 . S
C294 O305 1.254 . S
C295 O306 1.236 . S
C295 O307 1.266 . S
O296 Tb276 2.484 . S
O296 C278 1.248 . S
O297 Tb276 2.440 . S
O297 C278 1.266 . S
O298 Tb276 2.658 . S
O298 Tb277 2.325 . S
O298 C285 1.281 . S
O299 Tb276 2.409 . S
O299 C285 1.254 . S
O300 Tb276 2.378 . S
O300 C286 1.236 . S
O301 Tb277 2.341 . S
O301 C286 1.266 . S
O302 Tb277 2.484 . S
O302 C287 1.248 . S
O303 Tb277 2.440 . S
O303 C287 1.266 . S
O304 Tb276 2.325 . S
O304 Tb277 2.658 . S
O304 C294 1.281 . S
O305 Tb277 2.409 . S
O305 C294 1.254 . S
O306 Tb277 2.378 . S
O306 C295 1.236 . S
O307 Tb276 2.341 . S
O307 C295 1.266 . S
H308 C280 0.929 . S
H309 C281 0.931 . S
H310 C283 0.930 . S
H311 C284 0.930 . S
H312 C289 0.929 . S
H313 C290 0.931 . S
H314 C292 0.930 . S
H315 C293 0.930 . S
Tb316 C318 2.809 . S
Tb316 O336 2.484 . S
Tb316 O337 2.440 . S
Tb316 O338 2.658 . S
Tb316 O339 2.409 . S
Tb316 O340 2.378 . S
Tb316 O344 2.325 . S
Tb316 O347 2.341 . S
Tb317 C327 2.809 . S
Tb317 O338 2.325 . S
Tb317 O341 2.341 . S
Tb317 O342 2.484 . S
Tb317 O343 2.440 . S
Tb317 O344 2.658 . S
Tb317 O345 2.409 . S
Tb317 O346 2.378 . S
C318 Tb316 2.809 . S
C318 C319 1.514 . S
C318 O336 1.248 . S
C318 O337 1.266 . S
C319 C318 1.514 . S
C319 C320 1.359 . S
C319 C324 1.348 . S
C320 C319 1.359 . S
C320 C321 1.380 . S
C320 H348 0.929 . S
C321 C320 1.380 . S
C321 C322 1.347 . S
C321 H349 0.931 . S
C322 C321 1.347 . S
C322 C323 1.369 . S
C323 C322 1.369 . S
C323 C324 1.408 . S
C323 H350 0.930 . S
C324 C319 1.348 . S
C324 C323 1.408 . S
C324 H351 0.930 . S
C325 O338 1.281 . S
C325 O339 1.254 . S
C326 O340 1.236 . S
C326 O341 1.266 . S
C327 Tb317 2.809 . S
C327 C328 1.514 . S
C327 O342 1.248 . S
C327 O343 1.266 . S
C328 C327 1.514 . S
C328 C329 1.359 . S
C328 C333 1.348 . S
C329 C328 1.359 . S
C329 C330 1.380 . S
C329 H352 0.929 . S
C330 C329 1.380 . S
C330 C331 1.347 . S
C330 H353 0.931 . S
C331 C330 1.347 . S
C331 C332 1.369 . S
C332 C331 1.369 . S
C332 C333 1.408 . S
C332 H354 0.930 . S
C333 C328 1.348 . S
C333 C332 1.408 . S
C333 H355 0.930 . S
C334 O344 1.281 . S
C334 O345 1.254 . S
C335 O346 1.236 . S
C335 O347 1.266 . S
O336 Tb316 2.484 . S
O336 C318 1.248 . S
O337 Tb316 2.440 . S
O337 C318 1.266 . S
O338 Tb316 2.658 . S
O338 Tb317 2.325 . S
O338 C325 1.281 . S
O339 Tb316 2.409 . S
O339 C325 1.254 . S
O340 Tb316 2.378 . S
O340 C326 1.236 . S
O341 Tb317 2.341 . S
O341 C326 1.266 . S
O342 Tb317 2.484 . S
O342 C327 1.248 . S
O343 Tb317 2.440 . S
O343 C327 1.266 . S
O344 Tb316 2.325 . S
O344 Tb317 2.658 . S
O344 C334 1.281 . S
O345 Tb317 2.409 . S
O345 C334 1.254 . S
O346 Tb317 2.378 . S
O346 C335 1.236 . S
O347 Tb316 2.341 . S
O347 C335 1.266 . S
H348 C320 0.929 . S
H349 C321 0.931 . S
H350 C323 0.930 . S
H351 C324 0.930 . S
H352 C329 0.929 . S
H353 C330 0.931 . S
H354 C332 0.930 . S
H355 C333 0.930 . S
Tb356 C358 2.809 . S
Tb356 O376 2.484 . S
Tb356 O377 2.440 . S
Tb356 O378 2.658 . S
Tb356 O379 2.409 . S
Tb356 O380 2.378 . S
Tb356 O384 2.325 . S
Tb356 O387 2.341 . S
Tb357 C367 2.809 . S
Tb357 O378 2.325 . S
Tb357 O381 2.341 . S
Tb357 O382 2.484 . S
Tb357 O383 2.440 . S
Tb357 O384 2.658 . S
Tb357 O385 2.409 . S
Tb357 O386 2.378 . S
C358 Tb356 2.809 . S
C358 C359 1.514 . S
C358 O376 1.248 . S
C358 O377 1.266 . S
C359 C358 1.514 . S
C359 C360 1.359 . S
C359 C364 1.348 . S
C360 C359 1.359 . S
C360 C361 1.380 . S
C360 H388 0.929 . S
C361 C360 1.380 . S
C361 C362 1.347 . S
C361 H389 0.931 . S
C362 C361 1.347 . S
C362 C363 1.369 . S
C363 C362 1.369 . S
C363 C364 1.408 . S
C363 H390 0.930 . S
C364 C359 1.348 . S
C364 C363 1.408 . S
C364 H391 0.930 . S
C365 O378 1.281 . S
C365 O379 1.254 . S
C366 O380 1.236 . S
C366 O381 1.266 . S
C367 Tb357 2.809 . S
C367 C368 1.514 . S
C367 O382 1.248 . S
C367 O383 1.266 . S
C368 C367 1.514 . S
C368 C369 1.359 . S
C368 C373 1.348 . S
C369 C368 1.359 . S
C369 C370 1.380 . S
C369 H392 0.929 . S
C370 C369 1.380 . S
C370 C371 1.347 . S
C370 H393 0.931 . S
C371 C370 1.347 . S
C371 C372 1.369 . S
C372 C371 1.369 . S
C372 C373 1.408 . S
C372 H394 0.930 . S
C373 C368 1.348 . S
C373 C372 1.408 . S
C373 H395 0.930 . S
C374 O384 1.281 . S
C374 O385 1.254 . S
C375 O386 1.236 . S
C375 O387 1.266 . S
O376 Tb356 2.484 . S
O376 C358 1.248 . S
O377 Tb356 2.440 . S
O377 C358 1.266 . S
O378 Tb356 2.658 . S
O378 Tb357 2.325 . S
O378 C365 1.281 . S
O379 Tb356 2.409 . S
O379 C365 1.254 . S
O380 Tb356 2.378 . S
O380 C366 1.236 . S
O381 Tb357 2.341 . S
O381 C366 1.266 . S
O382 Tb357 2.484 . S
O382 C367 1.248 . S
O383 Tb357 2.440 . S
O383 C367 1.266 . S
O384 Tb356 2.325 . S
O384 Tb357 2.658 . S
O384 C374 1.281 . S
O385 Tb357 2.409 . S
O385 C374 1.254 . S
O386 Tb357 2.378 . S
O386 C375 1.236 . S
O387 Tb356 2.341 . S
O387 C375 1.266 . S
H388 C360 0.929 . S
H389 C361 0.931 . S
H390 C363 0.930 . S
H391 C364 0.930 . S
H392 C369 0.929 . S
H393 C370 0.931 . S
H394 C372 0.930 . S
H395 C373 0.930 . S
Tb396 C398 2.809 . S
Tb396 O416 2.484 . S
Tb396 O417 2.440 . S
Tb396 O418 2.658 . S
Tb396 O419 2.409 . S
Tb396 O420 2.378 . S
Tb396 O424 2.325 . S
Tb396 O427 2.341 . S
Tb397 C407 2.809 . S
Tb397 O418 2.325 . S
Tb397 O421 2.341 . S
Tb397 O422 2.484 . S
Tb397 O423 2.440 . S
Tb397 O424 2.658 . S
Tb397 O425 2.409 . S
Tb397 O426 2.378 . S
C398 Tb396 2.809 . S
C398 C399 1.514 . S
C398 O416 1.248 . S
C398 O417 1.266 . S
C399 C398 1.514 . S
C399 C400 1.359 . S
C399 C404 1.348 . S
C400 C399 1.359 . S
C400 C401 1.380 . S
C400 H428 0.929 . S
C401 C400 1.380 . S
C401 C402 1.347 . S
C401 H429 0.931 . S
C402 C401 1.347 . S
C402 C403 1.369 . S
C403 C402 1.369 . S
C403 C404 1.408 . S
C403 H430 0.930 . S
C404 C399 1.348 . S
C404 C403 1.408 . S
C404 H431 0.930 . S
C405 O418 1.281 . S
C405 O419 1.254 . S
C406 O420 1.236 . S
C406 O421 1.266 . S
C407 Tb397 2.809 . S
C407 C408 1.514 . S
C407 O422 1.248 . S
C407 O423 1.266 . S
C408 C407 1.514 . S
C408 C409 1.359 . S
C408 C413 1.348 . S
C409 C408 1.359 . S
C409 C410 1.380 . S
C409 H432 0.929 . S
C410 C409 1.380 . S
C410 C411 1.347 . S
C410 H433 0.931 . S
C411 C410 1.347 . S
C411 C412 1.369 . S
C412 C411 1.369 . S
C412 C413 1.408 . S
C412 H434 0.930 . S
C413 C408 1.348 . S
C413 C412 1.408 . S
C413 H435 0.930 . S
C414 O424 1.281 . S
C414 O425 1.254 . S
C415 O426 1.236 . S
C415 O427 1.266 . S
O416 Tb396 2.484 . S
O416 C398 1.248 . S
O417 Tb396 2.440 . S
O417 C398 1.266 . S
O418 Tb396 2.658 . S
O418 Tb397 2.325 . S
O418 C405 1.281 . S
O419 Tb396 2.409 . S
O419 C405 1.254 . S
O420 Tb396 2.378 . S
O420 C406 1.236 . S
O421 Tb397 2.341 . S
O421 C406 1.266 . S
O422 Tb397 2.484 . S
O422 C407 1.248 . S
O423 Tb397 2.440 . S
O423 C407 1.266 . S
O424 Tb396 2.325 . S
O424 Tb397 2.658 . S
O424 C414 1.281 . S
O425 Tb397 2.409 . S
O425 C414 1.254 . S
O426 Tb397 2.378 . S
O426 C415 1.236 . S
O427 Tb396 2.341 . S
O427 C415 1.266 . S
H428 C400 0.929 . S
H429 C401 0.931 . S
H430 C403 0.930 . S
H431 C404 0.930 . S
H432 C409 0.929 . S
H433 C410 0.931 . S
H434 C412 0.930 . S
H435 C413 0.930 . S
Tb436 C438 2.809 . S
Tb436 O456 2.484 . S
Tb436 O457 2.440 . S
Tb436 O458 2.658 . S
Tb436 O459 2.409 . S
Tb436 O460 2.378 . S
Tb436 O464 2.325 . S
Tb436 O467 2.341 . S
Tb437 C447 2.809 . S
Tb437 O458 2.325 . S
Tb437 O461 2.341 . S
Tb437 O462 2.484 . S
Tb437 O463 2.440 . S
Tb437 O464 2.658 . S
Tb437 O465 2.409 . S
Tb437 O466 2.378 . S
C438 Tb436 2.809 . S
C438 C439 1.514 . S
C438 O456 1.248 . S
C438 O457 1.266 . S
C439 C438 1.514 . S
C439 C440 1.359 . S
C439 C444 1.348 . S
C440 C439 1.359 . S
C440 C441 1.380 . S
C440 H468 0.929 . S
C441 C440 1.380 . S
C441 C442 1.347 . S
C441 H469 0.931 . S
C442 C441 1.347 . S
C442 C443 1.369 . S
C443 C442 1.369 . S
C443 C444 1.408 . S
C443 H470 0.930 . S
C444 C439 1.348 . S
C444 C443 1.408 . S
C444 H471 0.930 . S
C445 O458 1.281 . S
C445 O459 1.254 . S
C446 O460 1.236 . S
C446 O461 1.266 . S
C447 Tb437 2.809 . S
C447 C448 1.514 . S
C447 O462 1.248 . S
C447 O463 1.266 . S
C448 C447 1.514 . S
C448 C449 1.359 . S
C448 C453 1.348 . S
C449 C448 1.359 . S
C449 C450 1.380 . S
C449 H472 0.929 . S
C450 C449 1.380 . S
C450 C451 1.347 . S
C450 H473 0.931 . S
C451 C450 1.347 . S
C451 C452 1.369 . S
C452 C451 1.369 . S
C452 C453 1.408 . S
C452 H474 0.930 . S
C453 C448 1.348 . S
C453 C452 1.408 . S
C453 H475 0.930 . S
C454 O464 1.281 . S
C454 O465 1.254 . S
C455 O466 1.236 . S
C455 O467 1.266 . S
O456 Tb436 2.484 . S
O456 C438 1.248 . S
O457 Tb436 2.440 . S
O457 C438 1.266 . S
O458 Tb436 2.658 . S
O458 Tb437 2.325 . S
O458 C445 1.281 . S
O459 Tb436 2.409 . S
O459 C445 1.254 . S
O460 Tb436 2.378 . S
O460 C446 1.236 . S
O461 Tb437 2.341 . S
O461 C446 1.266 . S
O462 Tb437 2.484 . S
O462 C447 1.248 . S
O463 Tb437 2.440 . S
O463 C447 1.266 . S
O464 Tb436 2.325 . S
O464 Tb437 2.658 . S
O464 C454 1.281 . S
O465 Tb437 2.409 . S
O465 C454 1.254 . S
O466 Tb437 2.378 . S
O466 C455 1.236 . S
O467 Tb436 2.341 . S
O467 C455 1.266 . S
H468 C440 0.929 . S
H469 C441 0.931 . S
H470 C443 0.930 . S
H471 C444 0.930 . S
H472 C449 0.929 . S
H473 C450 0.931 . S
H474 C452 0.930 . S
H475 C453 0.930 . S
Tb476 C478 2.809 . S
Tb476 O496 2.484 . S
Tb476 O497 2.440 . S
Tb476 O498 2.658 . S
Tb476 O499 2.409 . S
Tb476 O500 2.378 . S
Tb476 O504 2.325 . S
Tb476 O507 2.341 . S
Tb477 C487 2.809 . S
Tb477 O498 2.325 . S
Tb477 O501 2.341 . S
Tb477 O502 2.484 . S
Tb477 O503 2.440 . S
Tb477 O504 2.658 . S
Tb477 O505 2.409 . S
Tb477 O506 2.378 . S
C478 Tb476 2.809 . S
C478 C479 1.514 . S
C478 O496 1.248 . S
C478 O497 1.266 . S
C479 C478 1.514 . S
C479 C480 1.359 . S
C479 C484 1.348 . S
C480 C479 1.359 . S
C480 C481 1.380 . S
C480 H508 0.929 . S
C481 C480 1.380 . S
C481 C482 1.347 . S
C481 H509 0.931 . S
C482 C481 1.347 . S
C482 C483 1.369 . S
C483 C482 1.369 . S
C483 C484 1.408 . S
C483 H510 0.930 . S
C484 C479 1.348 . S
C484 C483 1.408 . S
C484 H511 0.930 . S
C485 O498 1.281 . S
C485 O499 1.254 . S
C486 O500 1.236 . S
C486 O501 1.266 . S
C487 Tb477 2.809 . S
C487 C488 1.514 . S
C487 O502 1.248 . S
C487 O503 1.266 . S
C488 C487 1.514 . S
C488 C489 1.359 . S
C488 C493 1.348 . S
C489 C488 1.359 . S
C489 C490 1.380 . S
C489 H512 0.929 . S
C490 C489 1.380 . S
C490 C491 1.347 . S
C490 H513 0.931 . S
C491 C490 1.347 . S
C491 C492 1.369 . S
C492 C491 1.369 . S
C492 C493 1.408 . S
C492 H514 0.930 . S
C493 C488 1.348 . S
C493 C492 1.408 . S
C493 H515 0.930 . S
C494 O504 1.281 . S
C494 O505 1.254 . S
C495 O506 1.236 . S
C495 O507 1.266 . S
O496 Tb476 2.484 . S
O496 C478 1.248 . S
O497 Tb476 2.440 . S
O497 C478 1.266 . S
O498 Tb476 2.658 . S
O498 Tb477 2.325 . S
O498 C485 1.281 . S
O499 Tb476 2.409 . S
O499 C485 1.254 . S
O500 Tb476 2.378 . S
O500 C486 1.236 . S
O501 Tb477 2.341 . S
O501 C486 1.266 . S
O502 Tb477 2.484 . S
O502 C487 1.248 . S
O503 Tb477 2.440 . S
O503 C487 1.266 . S
O504 Tb476 2.325 . S
O504 Tb477 2.658 . S
O504 C494 1.281 . S
O505 Tb477 2.409 . S
O505 C494 1.254 . S
O506 Tb477 2.378 . S
O506 C495 1.236 . S
O507 Tb476 2.341 . S
O507 C495 1.266 . S
H508 C480 0.929 . S
H509 C481 0.931 . S
H510 C483 0.930 . S
H511 C484 0.930 . S
H512 C489 0.929 . S
H513 C490 0.931 . S
H514 C492 0.930 . S
H515 C493 0.930 . S
Tb516 C518 2.809 . S
Tb516 O536 2.484 . S
Tb516 O537 2.440 . S
Tb516 O538 2.658 . S
Tb516 O539 2.409 . S
Tb516 O540 2.378 . S
Tb516 O544 2.325 . S
Tb516 O547 2.341 . S
Tb517 C527 2.809 . S
Tb517 O538 2.325 . S
Tb517 O541 2.341 . S
Tb517 O542 2.484 . S
Tb517 O543 2.440 . S
Tb517 O544 2.658 . S
Tb517 O545 2.409 . S
Tb517 O546 2.378 . S
C518 Tb516 2.809 . S
C518 C519 1.514 . S
C518 O536 1.248 . S
C518 O537 1.266 . S
C519 C518 1.514 . S
C519 C520 1.359 . S
C519 C524 1.348 . S
C520 C519 1.359 . S
C520 C521 1.380 . S
C520 H548 0.929 . S
C521 C520 1.380 . S
C521 C522 1.347 . S
C521 H549 0.931 . S
C522 C521 1.347 . S
C522 C523 1.369 . S
C523 C522 1.369 . S
C523 C524 1.408 . S
C523 H550 0.930 . S
C524 C519 1.348 . S
C524 C523 1.408 . S
C524 H551 0.930 . S
C525 O538 1.281 . S
C525 O539 1.254 . S
C526 O540 1.236 . S
C526 O541 1.266 . S
C527 Tb517 2.809 . S
C527 C528 1.514 . S
C527 O542 1.248 . S
C527 O543 1.266 . S
C528 C527 1.514 . S
C528 C529 1.359 . S
C528 C533 1.348 . S
C529 C528 1.359 . S
C529 C530 1.380 . S
C529 H552 0.929 . S
C530 C529 1.380 . S
C530 C531 1.347 . S
C530 H553 0.931 . S
C531 C530 1.347 . S
C531 C532 1.369 . S
C532 C531 1.369 . S
C532 C533 1.408 . S
C532 H554 0.930 . S
C533 C528 1.348 . S
C533 C532 1.408 . S
C533 H555 0.930 . S
C534 O544 1.281 . S
C534 O545 1.254 . S
C535 O546 1.236 . S
C535 O547 1.266 . S
O536 Tb516 2.484 . S
O536 C518 1.248 . S
O537 Tb516 2.440 . S
O537 C518 1.266 . S
O538 Tb516 2.658 . S
O538 Tb517 2.325 . S
O538 C525 1.281 . S
O539 Tb516 2.409 . S
O539 C525 1.254 . S
O540 Tb516 2.378 . S
O540 C526 1.236 . S
O541 Tb517 2.341 . S
O541 C526 1.266 . S
O542 Tb517 2.484 . S
O542 C527 1.248 . S
O543 Tb517 2.440 . S
O543 C527 1.266 . S
O544 Tb516 2.325 . S
O544 Tb517 2.658 . S
O544 C534 1.281 . S
O545 Tb517 2.409 . S
O545 C534 1.254 . S
O546 Tb517 2.378 . S
O546 C535 1.236 . S
O547 Tb516 2.341 . S
O547 C535 1.266 . S
H548 C520 0.929 . S
H549 C521 0.931 . S
H550 C523 0.930 . S
H551 C524 0.930 . S
H552 C529 0.929 . S
H553 C530 0.931 . S
H554 C532 0.930 . S
H555 C533 0.930 . S
Tb556 C558 2.809 . S
Tb556 O576 2.484 . S
Tb556 O577 2.440 . S
Tb556 O578 2.658 . S
Tb556 O579 2.409 . S
Tb556 O580 2.378 . S
Tb556 O584 2.325 . S
Tb556 O587 2.341 . S
Tb557 C567 2.809 . S
Tb557 O578 2.325 . S
Tb557 O581 2.341 . S
Tb557 O582 2.484 . S
Tb557 O583 2.440 . S
Tb557 O584 2.658 . S
Tb557 O585 2.409 . S
Tb557 O586 2.378 . S
C558 Tb556 2.809 . S
C558 C559 1.514 . S
C558 O576 1.248 . S
C558 O577 1.266 . S
C559 C558 1.514 . S
C559 C560 1.359 . S
C559 C564 1.348 . S
C560 C559 1.359 . S
C560 C561 1.380 . S
C560 H588 0.929 . S
C561 C560 1.380 . S
C561 C562 1.347 . S
C561 H589 0.931 . S
C562 C561 1.347 . S
C562 C563 1.369 . S
C563 C562 1.369 . S
C563 C564 1.408 . S
C563 H590 0.930 . S
C564 C559 1.348 . S
C564 C563 1.408 . S
C564 H591 0.930 . S
C565 O578 1.281 . S
C565 O579 1.254 . S
C566 O580 1.236 . S
C566 O581 1.266 . S
C567 Tb557 2.809 . S
C567 C568 1.514 . S
C567 O582 1.248 . S
C567 O583 1.266 . S
C568 C567 1.514 . S
C568 C569 1.359 . S
C568 C573 1.348 . S
C569 C568 1.359 . S
C569 C570 1.380 . S
C569 H592 0.929 . S
C570 C569 1.380 . S
C570 C571 1.347 . S
C570 H593 0.931 . S
C571 C570 1.347 . S
C571 C572 1.369 . S
C572 C571 1.369 . S
C572 C573 1.408 . S
C572 H594 0.930 . S
C573 C568 1.348 . S
C573 C572 1.408 . S
C573 H595 0.930 . S
C574 O584 1.281 . S
C574 O585 1.254 . S
C575 O586 1.236 . S
C575 O587 1.266 . S
O576 Tb556 2.484 . S
O576 C558 1.248 . S
O577 Tb556 2.440 . S
O577 C558 1.266 . S
O578 Tb556 2.658 . S
O578 Tb557 2.325 . S
O578 C565 1.281 . S
O579 Tb556 2.409 . S
O579 C565 1.254 . S
O580 Tb556 2.378 . S
O580 C566 1.236 . S
O581 Tb557 2.341 . S
O581 C566 1.266 . S
O582 Tb557 2.484 . S
O582 C567 1.248 . S
O583 Tb557 2.440 . S
O583 C567 1.266 . S
O584 Tb556 2.325 . S
O584 Tb557 2.658 . S
O584 C574 1.281 . S
O585 Tb557 2.409 . S
O585 C574 1.254 . S
O586 Tb557 2.378 . S
O586 C575 1.236 . S
O587 Tb556 2.341 . S
O587 C575 1.266 . S
H588 C560 0.929 . S
H589 C561 0.931 . S
H590 C563 0.930 . S
H591 C564 0.930 . S
H592 C569 0.929 . S
H593 C570 0.931 . S
H594 C572 0.930 . S
H595 C573 0.930 . S
H596 C614 0.951 . S
H597 C616 0.951 . S
H598 C618 0.950 . S
H599 C619 0.950 . S
H600 C621 0.950 . S
H601 C624 0.950 . S
H602 C625 0.950 . S
H603 C627 0.950 . S
H604 C628 0.950 . S
H605 C629 0.951 . S
H606 C631 0.951 . S
H607 C633 0.950 . S
H608 C634 0.950 . S
H609 C636 0.950 . S
H610 C639 0.950 . S
H611 C640 0.950 . S
H612 C642 0.950 . S
H613 C643 0.950 . S
C614 H596 0.951 . S
C614 C615 1.366 . S
C614 C616 1.388 . S
C615 C614 1.366 . S
C615 C619 1.385 . S
C616 H597 0.951 . S
C616 C614 1.388 . S
C616 C617 1.366 . S
C617 C616 1.366 . S
C617 C618 1.414 . S
C617 C620 1.499 . S
C618 H598 0.950 . S
C618 C617 1.414 . S
C618 C619 1.374 . S
C619 H599 0.950 . S
C619 C615 1.385 . S
C619 C618 1.374 . S
C620 C617 1.499 . S
C620 C621 1.373 . S
C620 C622 1.389 . S
C621 H600 0.950 . S
C621 C620 1.373 . S
C621 C637 1.377 . S
C622 C620 1.389 . S
C622 C623 1.524 . S
C622 C636 1.377 . S
C623 C622 1.524 . S
C623 C624 1.397 . S
C623 C628 1.363 . S
C624 H601 0.950 . S
C624 C623 1.397 . S
C624 C625 1.334 . S
C625 H602 0.950 . S
C625 C624 1.334 . S
C625 C626 1.287 . S
C626 C625 1.287 . S
C626 C627 1.524 . S
C626 H645 0.913 . S
C627 H603 0.950 . S
C627 C626 1.524 . S
C627 C628 1.415 . S
C628 H604 0.950 . S
C628 C623 1.363 . S
C628 C627 1.415 . S
C629 H605 0.951 . S
C629 C630 1.366 . S
C629 C631 1.388 . S
C630 C629 1.366 . S
C630 C634 1.385 . S
C631 H606 0.951 . S
C631 C629 1.388 . S
C631 C632 1.366 . S
C632 C631 1.366 . S
C632 C633 1.414 . S
C632 C635 1.499 . S
C633 H607 0.950 . S
C633 C632 1.414 . S
C633 C634 1.374 . S
C634 H608 0.950 . S
C634 C630 1.385 . S
C634 C633 1.374 . S
C635 C632 1.499 . S
C635 C636 1.373 . S
C635 C637 1.389 . S
C636 H609 0.950 . S
C636 C622 1.377 . S
C636 C635 1.373 . S
C637 C621 1.377 . S
C637 C635 1.389 . S
C637 C638 1.524 . S
C638 C637 1.524 . S
C638 C639 1.397 . S
C638 C643 1.363 . S
C639 H610 0.950 . S
C639 C638 1.397 . S
C639 C640 1.334 . S
C640 H611 0.950 . S
C640 C639 1.334 . S
C640 C641 1.287 . S
C641 C640 1.287 . S
C641 C642 1.524 . S
C641 H644 0.999 . S
C642 H612 0.950 . S
C642 C641 1.524 . S
C642 C643 1.415 . S
C643 H613 0.950 . S
C643 C638 1.363 . S
C643 C642 1.415 . S
H644 C641 0.999 . S
H645 C626 0.913 . S
H646 C664 0.951 . S
H647 C666 0.951 . S
H648 C668 0.950 . S
H649 C669 0.950 . S
H650 C671 0.950 . S
H651 C674 0.950 . S
H652 C675 0.950 . S
H653 C677 0.950 . S
H654 C678 0.950 . S
H655 C679 0.951 . S
H656 C681 0.951 . S
H657 C683 0.950 . S
H658 C684 0.950 . S
H659 C686 0.950 . S
H660 C689 0.950 . S
H661 C690 0.950 . S
H662 C692 0.950 . S
H663 C693 0.950 . S
C664 H646 0.951 . S
C664 C665 1.366 . S
C664 C666 1.388 . S
C665 C664 1.366 . S
C665 C669 1.385 . S
C666 H647 0.951 . S
C666 C664 1.388 . S
C666 C667 1.366 . S
C667 C666 1.366 . S
C667 C668 1.414 . S
C667 C670 1.499 . S
C668 H648 0.950 . S
C668 C667 1.414 . S
C668 C669 1.374 . S
C669 H649 0.950 . S
C669 C665 1.385 . S
C669 C668 1.374 . S
C670 C667 1.499 . S
C670 C671 1.373 . S
C670 C672 1.389 . S
C671 H650 0.950 . S
C671 C670 1.373 . S
C671 C687 1.377 . S
C672 C670 1.389 . S
C672 C673 1.524 . S
C672 C686 1.377 . S
C673 C672 1.524 . S
C673 C674 1.397 . S
C673 C678 1.363 . S
C674 H651 0.950 . S
C674 C673 1.397 . S
C674 C675 1.334 . S
C675 H652 0.950 . S
C675 C674 1.334 . S
C675 C676 1.287 . S
C676 C675 1.287 . S
C676 C677 1.524 . S
C676 H695 0.913 . S
C677 H653 0.950 . S
C677 C676 1.524 . S
C677 C678 1.415 . S
C678 H654 0.950 . S
C678 C673 1.363 . S
C678 C677 1.415 . S
C679 H655 0.951 . S
C679 C680 1.366 . S
C679 C681 1.388 . S
C680 C679 1.366 . S
C680 C684 1.385 . S
C681 H656 0.951 . S
C681 C679 1.388 . S
C681 C682 1.366 . S
C682 C681 1.366 . S
C682 C683 1.414 . S
C682 C685 1.499 . S
C683 H657 0.950 . S
C683 C682 1.414 . S
C683 C684 1.374 . S
C684 H658 0.950 . S
C684 C680 1.385 . S
C684 C683 1.374 . S
C685 C682 1.499 . S
C685 C686 1.373 . S
C685 C687 1.389 . S
C686 H659 0.950 . S
C686 C672 1.377 . S
C686 C685 1.373 . S
C687 C671 1.377 . S
C687 C685 1.389 . S
C687 C688 1.524 . S
C688 C687 1.524 . S
C688 C689 1.397 . S
C688 C693 1.363 . S
C689 H660 0.950 . S
C689 C688 1.397 . S
C689 C690 1.334 . S
C690 H661 0.950 . S
C690 C689 1.334 . S
C690 C691 1.287 . S
C691 C690 1.287 . S
C691 C692 1.524 . S
C691 H694 0.999 . S
C692 H662 0.950 . S
C692 C691 1.524 . S
C692 C693 1.415 . S
C693 H663 0.950 . S
C693 C688 1.363 . S
C693 C692 1.415 . S
H694 C691 0.999 . S
H695 C676 0.913 . S
H696 C714 0.951 . S
H697 C716 0.951 . S
H698 C718 0.950 . S
H699 C719 0.915 1_545 S
H700 C721 0.950 . S
H701 C724 0.950 . S
H702 C725 0.950 1_545 S
H703 C727 0.950 . S
H704 C728 0.950 . S
H705 C729 0.951 . S
H706 C731 0.951 . S
H707 C733 0.950 . S
H708 C734 0.950 . S
H709 C736 0.950 . S
H710 C739 0.950 . S
H711 C740 0.950 . S
H712 C742 0.950 . S
H713 C743 0.950 . S
C714 H696 0.951 . S
C714 C715 1.366 . S
C714 C716 1.388 . S
C715 C714 1.366 . S
C715 C719 1.380 . S
C716 H697 0.951 . S
C716 C714 1.388 . S
C716 C717 1.366 . S
C717 C716 1.366 . S
C717 C718 1.414 . S
C717 C720 1.499 . S
C718 H698 0.950 . S
C718 C717 1.414 . S
C718 C719 1.416 . S
C719 H699 0.915 1_565 S
C719 C715 1.380 . S
C719 C718 1.416 . S
C720 C717 1.499 . S
C720 C721 1.373 . S
C720 C722 1.389 . S
C721 H700 0.950 . S
C721 C720 1.373 . S
C721 C737 1.377 . S
C722 C720 1.389 . S
C722 C723 1.524 . S
C722 C736 1.377 . S
C723 C722 1.524 . S
C723 C724 1.397 . S
C723 C728 1.363 . S
C724 H701 0.950 . S
C724 C723 1.397 . S
C724 C725 1.334 . S
C725 H702 0.950 1_565 S
C725 C724 1.334 . S
C725 C726 1.287 . S
C726 C725 1.287 . S
C726 C727 1.524 . S
C726 H745 0.913 . S
C727 H703 0.950 . S
C727 C726 1.524 . S
C727 C728 1.415 . S
C728 H704 0.950 . S
C728 C723 1.363 . S
C728 C727 1.415 . S
C729 H705 0.951 . S
C729 C730 1.366 . S
C729 C731 1.388 . S
C730 C729 1.366 . S
C730 C734 1.385 . S
C731 H706 0.951 . S
C731 C729 1.388 . S
C731 C732 1.366 . S
C732 C731 1.366 . S
C732 C733 1.414 . S
C732 C735 1.499 . S
C733 H707 0.950 . S
C733 C732 1.414 . S
C733 C734 1.374 . S
C734 H708 0.950 . S
C734 C730 1.385 . S
C734 C733 1.374 . S
C735 C732 1.499 . S
C735 C736 1.373 . S
C735 C737 1.389 . S
C736 H709 0.950 . S
C736 C722 1.377 . S
C736 C735 1.373 . S
C737 C721 1.377 . S
C737 C735 1.389 . S
C737 C738 1.524 . S
C738 C737 1.524 . S
C738 C739 1.397 . S
C738 C743 1.363 . S
C739 H710 0.950 . S
C739 C738 1.397 . S
C739 C740 1.334 . S
C740 H711 0.950 . S
C740 C739 1.334 . S
C740 C741 1.287 . S
C741 C740 1.287 . S
C741 C742 1.524 . S
C741 H744 0.999 . S
C742 H712 0.950 . S
C742 C741 1.524 . S
C742 C743 1.415 . S
C743 H713 0.950 . S
C743 C738 1.363 . S
C743 C742 1.415 . S
H744 C741 0.999 . S
H745 C726 0.913 . S
H746 C764 0.951 . S
H747 C766 0.951 . S
H748 C768 0.950 . S
H749 C769 0.950 . S
H750 C771 0.950 . S
H751 C774 0.950 . S
H752 C775 0.950 . S
H753 C777 0.950 . S
H754 C778 0.950 . S
H755 C779 0.951 . S
H756 C781 0.951 . S
H757 C783 0.950 . S
H758 C784 0.950 . S
H759 C786 0.950 . S
H760 C789 0.950 . S
H761 C790 0.950 . S
H762 C792 0.950 . S
H763 C793 0.950 . S
C764 H746 0.951 . S
C764 C765 1.366 . S
C764 C766 1.388 . S
C765 C764 1.366 . S
C765 C769 1.385 . S
C766 H747 0.951 . S
C766 C764 1.388 . S
C766 C767 1.366 . S
C767 C766 1.366 . S
C767 C768 1.414 . S
C767 C770 1.499 . S
C768 H748 0.950 . S
C768 C767 1.414 . S
C768 C769 1.374 . S
C769 H749 0.950 . S
C769 C765 1.385 . S
C769 C768 1.374 . S
C770 C767 1.499 . S
C770 C771 1.373 . S
C770 C772 1.389 . S
C771 H750 0.950 . S
C771 C770 1.373 . S
C771 C787 1.377 . S
C772 C770 1.389 . S
C772 C773 1.524 . S
C772 C786 1.377 . S
C773 C772 1.524 . S
C773 C774 1.397 . S
C773 C778 1.363 . S
C774 H751 0.950 . S
C774 C773 1.397 . S
C774 C775 1.334 . S
C775 H752 0.950 . S
C775 C774 1.334 . S
C775 C776 1.287 . S
C776 C775 1.287 . S
C776 C777 1.524 . S
C776 H795 0.913 . S
C777 H753 0.950 . S
C777 C776 1.524 . S
C777 C778 1.415 . S
C778 H754 0.950 . S
C778 C773 1.363 . S
C778 C777 1.415 . S
C779 H755 0.951 . S
C779 C780 1.366 . S
C779 C781 1.388 . S
C780 C779 1.366 . S
C780 C784 1.385 . S
C781 H756 0.951 . S
C781 C779 1.388 . S
C781 C782 1.366 . S
C782 C781 1.366 . S
C782 C783 1.414 . S
C782 C785 1.499 . S
C783 H757 0.950 . S
C783 C782 1.414 . S
C783 C784 1.374 . S
C784 H758 0.950 . S
C784 C780 1.385 . S
C784 C783 1.374 . S
C785 C782 1.499 . S
C785 C786 1.373 . S
C785 C787 1.389 . S
C786 H759 0.950 . S
C786 C772 1.377 . S
C786 C785 1.373 . S
C787 C771 1.377 . S
C787 C785 1.389 . S
C787 C788 1.524 . S
C788 C787 1.524 . S
C788 C789 1.397 . S
C788 C793 1.363 . S
C789 H760 0.950 . S
C789 C788 1.397 . S
C789 C790 1.334 . S
C790 H761 0.950 . S
C790 C789 1.334 . S
C790 C791 1.287 . S
C791 C790 1.287 . S
C791 C792 1.524 . S
C791 H794 0.999 . S
C792 H762 0.950 . S
C792 C791 1.524 . S
C792 C793 1.415 . S
C793 H763 0.950 . S
C793 C788 1.363 . S
C793 C792 1.415 . S
H794 C791 0.999 . S
H795 C776 0.913 . S
H796 C814 0.951 . S
H797 C816 0.951 . S
H798 C818 0.950 . S
H799 C819 0.950 . S
H800 C821 0.950 . S
H801 C824 0.950 . S
H802 C825 0.950 . S
H803 C827 0.950 . S
H804 C828 0.950 . S
H805 C829 0.951 . S
H806 C831 0.951 . S
H807 C833 0.950 . S
H808 C834 0.950 . S
H809 C836 0.950 . S
H810 C839 0.950 . S
H811 C840 0.950 . S
H812 C842 0.950 . S
H813 C843 0.950 . S
C814 H796 0.951 . S
C814 C815 1.366 . S
C814 C816 1.388 . S
C815 C814 1.366 . S
C815 C819 1.385 . S
C816 H797 0.951 . S
C816 C814 1.388 . S
C816 C817 1.366 . S
C817 C816 1.366 . S
C817 C818 1.414 . S
C817 C820 1.499 . S
C818 H798 0.950 . S
C818 C817 1.414 . S
C818 C819 1.374 . S
C819 H799 0.950 . S
C819 C815 1.385 . S
C819 C818 1.374 . S
C820 C817 1.499 . S
C820 C821 1.373 . S
C820 C822 1.389 . S
C821 H800 0.950 . S
C821 C820 1.373 . S
C821 C837 1.377 . S
C822 C820 1.389 . S
C822 C823 1.524 . S
C822 C836 1.377 . S
C823 C822 1.524 . S
C823 C824 1.397 . S
C823 C828 1.363 . S
C824 H801 0.950 . S
C824 C823 1.397 . S
C824 C825 1.334 . S
C825 H802 0.950 . S
C825 C824 1.334 . S
C825 C826 1.287 . S
C826 C825 1.287 . S
C826 C827 1.524 . S
C826 H845 0.913 . S
C827 H803 0.950 . S
C827 C826 1.524 . S
C827 C828 1.415 . S
C828 H804 0.950 . S
C828 C823 1.363 . S
C828 C827 1.415 . S
C829 H805 0.951 . S
C829 C830 1.366 . S
C829 C831 1.388 . S
C830 C829 1.366 . S
C830 C834 1.385 . S
C831 H806 0.951 . S
C831 C829 1.388 . S
C831 C832 1.366 . S
C832 C831 1.366 . S
C832 C833 1.414 . S
C832 C835 1.499 . S
C833 H807 0.950 . S
C833 C832 1.414 . S
C833 C834 1.374 . S
C834 H808 0.950 . S
C834 C830 1.385 . S
C834 C833 1.374 . S
C835 C832 1.499 . S
C835 C836 1.373 . S
C835 C837 1.389 . S
C836 H809 0.950 . S
C836 C822 1.377 . S
C836 C835 1.373 . S
C837 C821 1.377 . S
C837 C835 1.389 . S
C837 C838 1.524 . S
C838 C837 1.524 . S
C838 C839 1.397 . S
C838 C843 1.363 . S
C839 H810 0.950 . S
C839 C838 1.397 . S
C839 C840 1.334 . S
C840 H811 0.950 . S
C840 C839 1.334 . S
C840 C841 1.287 . S
C841 C840 1.287 . S
C841 C842 1.524 . S
C841 H844 0.999 . S
C842 H812 0.950 . S
C842 C841 1.524 . S
C842 C843 1.415 . S
C843 H813 0.950 . S
C843 C838 1.363 . S
C843 C842 1.415 . S
H844 C841 0.999 . S
H845 C826 0.913 . S
H846 C864 0.951 . S
H847 C866 0.951 . S
H848 C868 0.950 . S
H849 C869 0.950 . S
H850 C871 0.950 . S
H851 C874 0.950 . S
H852 C875 0.950 . S
H853 C877 0.950 . S
H854 C878 0.950 . S
H855 C879 0.951 . S
H856 C881 0.951 . S
H857 C883 0.950 . S
H858 C884 0.950 . S
H859 C886 0.950 . S
H860 C889 0.950 . S
H861 C890 0.950 . S
H862 C892 0.950 . S
H863 C893 0.950 . S
C864 H846 0.951 . S
C864 C865 1.366 . S
C864 C866 1.388 . S
C865 C864 1.366 . S
C865 C869 1.385 . S
C866 H847 0.951 . S
C866 C864 1.388 . S
C866 C867 1.366 . S
C867 C866 1.366 . S
C867 C868 1.414 . S
C867 C870 1.499 . S
C868 H848 0.950 . S
C868 C867 1.414 . S
C868 C869 1.374 . S
C869 H849 0.950 . S
C869 C865 1.385 . S
C869 C868 1.374 . S
C870 C867 1.499 . S
C870 C871 1.373 . S
C870 C872 1.389 . S
C871 H850 0.950 . S
C871 C870 1.373 . S
C871 C887 1.377 . S
C872 C870 1.389 . S
C872 C873 1.524 . S
C872 C886 1.377 . S
C873 C872 1.524 . S
C873 C874 1.397 . S
C873 C878 1.363 . S
C874 H851 0.950 . S
C874 C873 1.397 . S
C874 C875 1.334 . S
C875 H852 0.950 . S
C875 C874 1.334 . S
C875 C876 1.287 . S
C876 C875 1.287 . S
C876 C877 1.524 . S
C876 H895 0.913 . S
C877 H853 0.950 . S
C877 C876 1.524 . S
C877 C878 1.415 . S
C878 H854 0.950 . S
C878 C873 1.363 . S
C878 C877 1.415 . S
C879 H855 0.951 . S
C879 C880 1.366 . S
C879 C881 1.388 . S
C880 C879 1.366 . S
C880 C884 1.385 . S
C881 H856 0.951 . S
C881 C879 1.388 . S
C881 C882 1.366 . S
C882 C881 1.366 . S
C882 C883 1.414 . S
C882 C885 1.499 . S
C883 H857 0.950 . S
C883 C882 1.414 . S
C883 C884 1.374 . S
C884 H858 0.950 . S
C884 C880 1.385 . S
C884 C883 1.374 . S
C885 C882 1.499 . S
C885 C886 1.373 . S
C885 C887 1.389 . S
C886 H859 0.950 . S
C886 C872 1.377 . S
C886 C885 1.373 . S
C887 C871 1.377 . S
C887 C885 1.389 . S
C887 C888 1.524 . S
C888 C887 1.524 . S
C888 C889 1.397 . S
C888 C893 1.363 . S
C889 H860 0.950 . S
C889 C888 1.397 . S
C889 C890 1.334 . S
C890 H861 0.950 . S
C890 C889 1.334 . S
C890 C891 1.287 . S
C891 C890 1.287 . S
C891 C892 1.524 . S
C891 H894 0.999 . S
C892 H862 0.950 . S
C892 C891 1.524 . S
C892 C893 1.415 . S
C893 H863 0.950 . S
C893 C888 1.363 . S
C893 C892 1.415 . S
H894 C891 0.999 . S
H895 C876 0.913 . S
H896 C914 0.951 . S
H897 C916 0.951 . S
H898 C918 0.950 . S
H899 C919 0.950 . S
H900 C921 0.950 . S
H901 C924 0.950 . S
H902 C925 0.950 . S
H903 C927 0.950 . S
H904 C928 0.950 . S
H905 C929 0.951 . S
H906 C931 0.951 . S
H907 C933 0.950 . S
H908 C934 0.950 . S
H909 C936 0.950 . S
H910 C939 0.950 . S
H911 C940 0.950 . S
H912 C942 0.950 . S
H913 C943 0.950 . S
C914 H896 0.951 . S
C914 C915 1.366 . S
C914 C916 1.388 . S
C915 C914 1.366 . S
C915 C919 1.385 . S
C916 H897 0.951 . S
C916 C914 1.388 . S
C916 C917 1.366 . S
C917 C916 1.366 . S
C917 C918 1.414 . S
C917 C920 1.499 . S
C918 H898 0.950 . S
C918 C917 1.414 . S
C918 C919 1.374 . S
C919 H899 0.950 . S
C919 C915 1.385 . S
C919 C918 1.374 . S
C920 C917 1.499 . S
C920 C921 1.373 . S
C920 C922 1.389 . S
C921 H900 0.950 . S
C921 C920 1.373 . S
C921 C937 1.377 . S
C922 C920 1.389 . S
C922 C923 1.524 . S
C922 C936 1.377 . S
C923 C922 1.524 . S
C923 C924 1.397 . S
C923 C928 1.363 . S
C924 H901 0.950 . S
C924 C923 1.397 . S
C924 C925 1.334 . S
C925 H902 0.950 . S
C925 C924 1.334 . S
C925 C926 1.287 . S
C926 C925 1.287 . S
C926 C927 1.524 . S
C926 H945 0.913 . S
C927 H903 0.950 . S
C927 C926 1.524 . S
C927 C928 1.415 . S
C928 H904 0.950 . S
C928 C923 1.363 . S
C928 C927 1.415 . S
C929 H905 0.951 . S
C929 C930 1.366 . S
C929 C931 1.388 . S
C930 C929 1.366 . S
C930 C934 1.385 . S
C931 H906 0.951 . S
C931 C929 1.388 . S
C931 C932 1.366 . S
C932 C931 1.366 . S
C932 C933 1.414 . S
C932 C935 1.499 . S
C933 H907 0.950 . S
C933 C932 1.414 . S
C933 C934 1.374 . S
C934 H908 0.950 . S
C934 C930 1.385 . S
C934 C933 1.374 . S
C935 C932 1.499 . S
C935 C936 1.373 . S
C935 C937 1.389 . S
C936 H909 0.950 . S
C936 C922 1.377 . S
C936 C935 1.373 . S
C937 C921 1.377 . S
C937 C935 1.389 . S
C937 C938 1.524 . S
C938 C937 1.524 . S
C938 C939 1.397 . S
C938 C943 1.363 . S
C939 H910 0.950 . S
C939 C938 1.397 . S
C939 C940 1.334 . S
C940 H911 0.950 . S
C940 C939 1.334 . S
C940 C941 1.287 . S
C941 C940 1.287 . S
C941 C942 1.524 . S
C941 H944 0.999 . S
C942 H912 0.950 . S
C942 C941 1.524 . S
C942 C943 1.415 . S
C943 H913 0.950 . S
C943 C938 1.363 . S
C943 C942 1.415 . S
H944 C941 0.999 . S
H945 C926 0.913 . S
H946 C964 0.951 . S
H947 C966 0.951 . S
H948 C968 0.950 . S
H949 C969 0.950 1_545 S
H950 C971 0.950 . S
H951 C974 0.950 . S
H952 C975 0.950 . S
H953 C977 0.950 . S
H954 C978 0.950 . S
H955 C979 0.951 . S
H956 C981 0.951 . S
H957 C983 0.950 . S
H958 C984 0.950 . S
H959 C986 0.950 . S
H960 C989 0.950 . S
H961 C990 0.950 . S
H962 C992 0.950 . S
H963 C993 0.950 . S
C964 H946 0.951 . S
C964 C965 1.366 . S
C964 C966 1.388 . S
C965 C964 1.366 . S
C965 C969 1.385 . S
C966 H947 0.951 . S
C966 C964 1.388 . S
C966 C967 1.366 . S
C967 C966 1.366 . S
C967 C968 1.414 . S
C967 C970 1.499 . S
C968 H948 0.950 . S
C968 C967 1.414 . S
C968 C969 1.374 . S
C969 H949 0.950 1_565 S
C969 C965 1.385 . S
C969 C968 1.374 . S
C970 C967 1.499 . S
C970 C971 1.373 . S
C970 C972 1.389 . S
C971 H950 0.950 . S
C971 C970 1.373 . S
C971 C987 1.377 . S
C972 C970 1.389 . S
C972 C973 1.524 . S
C972 C986 1.377 . S
C973 C972 1.524 . S
C973 C974 1.397 . S
C973 C978 1.363 . S
C974 H951 0.950 . S
C974 C973 1.397 . S
C974 C975 1.334 . S
C975 H952 0.950 . S
C975 C974 1.334 . S
C975 C976 1.287 . S
C976 C975 1.287 . S
C976 C977 1.524 . S
C976 H995 0.913 . S
C977 H953 0.950 . S
C977 C976 1.524 . S
C977 C978 1.415 . S
C978 H954 0.950 . S
C978 C973 1.363 . S
C978 C977 1.415 . S
C979 H955 0.951 . S
C979 C980 1.366 . S
C979 C981 1.388 . S
C980 C979 1.366 . S
C980 C984 1.385 . S
C981 H956 0.951 . S
C981 C979 1.388 . S
C981 C982 1.366 . S
C982 C981 1.366 . S
C982 C983 1.414 . S
C982 C985 1.499 . S
C983 H957 0.950 . S
C983 C982 1.414 . S
C983 C984 1.374 . S
C984 H958 0.950 . S
C984 C980 1.385 . S
C984 C983 1.374 . S
C985 C982 1.499 . S
C985 C986 1.373 . S
C985 C987 1.389 . S
C986 H959 0.950 . S
C986 C972 1.377 . S
C986 C985 1.373 . S
C987 C971 1.377 . S
C987 C985 1.389 . S
C987 C988 1.524 . S
C988 C987 1.524 . S
C988 C989 1.397 . S
C988 C993 1.363 . S
C989 H960 0.950 . S
C989 C988 1.397 . S
C989 C990 1.334 . S
C990 H961 0.950 . S
C990 C989 1.334 . S
C990 C991 1.287 . S
C991 C990 1.287 . S
C991 C992 1.524 . S
C991 H994 0.999 . S
C992 H962 0.950 . S
C992 C991 1.524 . S
C992 C993 1.415 . S
C993 H963 0.950 . S
C993 C988 1.363 . S
C993 C992 1.415 . S
H994 C991 0.999 . S
H995 C976 0.913 . S
H996 C1014 0.951 . S
H997 C1016 0.951 . S
H998 C1018 0.950 . S
H999 C1019 0.950 . S
H1000 C1021 0.950 . S
H1001 C1024 0.950 . S
H1002 C1025 0.950 . S
H1003 C1027 0.950 . S
H1004 C1028 0.950 . S
H1005 C1029 0.951 . S
H1006 C1031 0.951 . S
H1007 C1033 0.950 . S
H1008 C1034 0.950 . S
H1009 C1036 0.950 . S
H1010 C1039 0.950 . S
H1011 C1040 0.950 . S
H1012 C1042 0.950 . S
H1013 C1043 0.950 . S
C1014 H996 0.951 . S
C1014 C1015 1.366 . S
C1014 C1016 1.388 . S
C1015 C1014 1.366 . S
C1015 C1019 1.385 . S
C1016 H997 0.951 . S
C1016 C1014 1.388 . S
C1016 C1017 1.366 . S
C1017 C1016 1.366 . S
C1017 C1018 1.414 . S
C1017 C1020 1.499 . S
C1018 H998 0.950 . S
C1018 C1017 1.414 . S
C1018 C1019 1.374 . S
C1019 H999 0.950 . S
C1019 C1015 1.385 . S
C1019 C1018 1.374 . S
C1020 C1017 1.499 . S
C1020 C1021 1.373 . S
C1020 C1022 1.389 . S
C1021 H1000 0.950 . S
C1021 C1020 1.373 . S
C1021 C1037 1.377 . S
C1022 C1020 1.389 . S
C1022 C1023 1.524 . S
C1022 C1036 1.377 . S
C1023 C1022 1.524 . S
C1023 C1024 1.397 . S
C1023 C1028 1.363 . S
C1024 H1001 0.950 . S
C1024 C1023 1.397 . S
C1024 C1025 1.334 . S
C1025 H1002 0.950 . S
C1025 C1024 1.334 . S
C1025 C1026 1.287 . S
C1026 C1025 1.287 . S
C1026 C1027 1.524 . S
C1026 H1045 0.913 . S
C1027 H1003 0.950 . S
C1027 C1026 1.524 . S
C1027 C1028 1.415 . S
C1028 H1004 0.950 . S
C1028 C1023 1.363 . S
C1028 C1027 1.415 . S
C1029 H1005 0.951 . S
C1029 C1030 1.366 . S
C1029 C1031 1.388 . S
C1030 C1029 1.366 . S
C1030 C1034 1.385 . S
C1031 H1006 0.951 . S
C1031 C1029 1.388 . S
C1031 C1032 1.366 . S
C1032 C1031 1.366 . S
C1032 C1033 1.414 . S
C1032 C1035 1.499 . S
C1033 H1007 0.950 . S
C1033 C1032 1.414 . S
C1033 C1034 1.374 . S
C1034 H1008 0.950 . S
C1034 C1030 1.385 . S
C1034 C1033 1.374 . S
C1035 C1032 1.499 . S
C1035 C1036 1.373 . S
C1035 C1037 1.389 . S
C1036 H1009 0.950 . S
C1036 C1022 1.377 . S
C1036 C1035 1.373 . S
C1037 C1021 1.377 . S
C1037 C1035 1.389 . S
C1037 C1038 1.524 . S
C1038 C1037 1.524 . S
C1038 C1039 1.397 . S
C1038 C1043 1.363 . S
C1039 H1010 0.950 . S
C1039 C1038 1.397 . S
C1039 C1040 1.334 . S
C1040 H1011 0.950 . S
C1040 C1039 1.334 . S
C1040 C1041 1.287 . S
C1041 C1040 1.287 . S
C1041 C1042 1.524 . S
C1041 H1044 0.999 . S
C1042 H1012 0.950 . S
C1042 C1041 1.524 . S
C1042 C1043 1.415 . S
C1043 H1013 0.950 . S
C1043 C1038 1.363 . S
C1043 C1042 1.415 . S
H1044 C1041 0.999 . S
H1045 C1026 0.913 . S
H1046 C1064 0.951 . S
H1047 C1066 0.951 . S
H1048 C1068 0.950 . S
H1049 C1069 0.950 . S
H1050 C1071 0.950 . S
H1051 C1074 0.950 . S
H1052 C1075 0.950 . S
H1053 C1077 0.950 . S
H1054 C1078 0.950 . S
H1055 C1079 0.951 . S
H1056 C1081 0.951 . S
H1057 C1083 0.950 . S
H1058 C1084 0.950 . S
H1059 C1086 0.950 . S
H1060 C1089 0.950 . S
H1061 C1090 0.950 . S
H1062 C1092 0.950 . S
H1063 C1093 0.950 . S
C1064 H1046 0.951 . S
C1064 C1065 1.366 . S
C1064 C1066 1.388 . S
C1065 C1064 1.366 . S
C1065 C1069 1.385 . S
C1066 H1047 0.951 . S
C1066 C1064 1.388 . S
C1066 C1067 1.366 . S
C1067 C1066 1.366 . S
C1067 C1068 1.414 . S
C1067 C1070 1.499 . S
C1068 H1048 0.950 . S
C1068 C1067 1.414 . S
C1068 C1069 1.374 . S
C1069 H1049 0.950 . S
C1069 C1065 1.385 . S
C1069 C1068 1.374 . S
C1070 C1067 1.499 . S
C1070 C1071 1.373 . S
C1070 C1072 1.389 . S
C1071 H1050 0.950 . S
C1071 C1070 1.373 . S
C1071 C1087 1.377 . S
C1072 C1070 1.389 . S
C1072 C1073 1.524 . S
C1072 C1086 1.377 . S
C1073 C1072 1.524 . S
C1073 C1074 1.397 . S
C1073 C1078 1.363 . S
C1074 H1051 0.950 . S
C1074 C1073 1.397 . S
C1074 C1075 1.334 . S
C1075 H1052 0.950 . S
C1075 C1074 1.334 . S
C1075 C1076 1.287 . S
C1076 C1075 1.287 . S
C1076 C1077 1.524 . S
C1076 H1095 0.913 . S
C1077 H1053 0.950 . S
C1077 C1076 1.524 . S
C1077 C1078 1.415 . S
C1078 H1054 0.950 . S
C1078 C1073 1.363 . S
C1078 C1077 1.415 . S
C1079 H1055 0.951 . S
C1079 C1080 1.366 . S
C1079 C1081 1.388 . S
C1080 C1079 1.366 . S
C1080 C1084 1.385 . S
C1081 H1056 0.951 . S
C1081 C1079 1.388 . S
C1081 C1082 1.366 . S
C1082 C1081 1.366 . S
C1082 C1083 1.414 . S
C1082 C1085 1.499 . S
C1083 H1057 0.950 . S
C1083 C1082 1.414 . S
C1083 C1084 1.374 . S
C1084 H1058 0.950 . S
C1084 C1080 1.385 . S
C1084 C1083 1.374 . S
C1085 C1082 1.499 . S
C1085 C1086 1.373 . S
C1085 C1087 1.389 . S
C1086 H1059 0.950 . S
C1086 C1072 1.377 . S
C1086 C1085 1.373 . S
C1087 C1071 1.377 . S
C1087 C1085 1.389 . S
C1087 C1088 1.524 . S
C1088 C1087 1.524 . S
C1088 C1089 1.397 . S
C1088 C1093 1.363 . S
C1089 H1060 0.950 . S
C1089 C1088 1.397 . S
C1089 C1090 1.334 . S
C1090 H1061 0.950 . S
C1090 C1089 1.334 . S
C1090 C1091 1.287 . S
C1091 C1090 1.287 . S
C1091 C1092 1.524 . S
C1091 H1094 0.999 . S
C1092 H1062 0.950 . S
C1092 C1091 1.524 . S
C1092 C1093 1.415 . S
C1093 H1063 0.950 . S
C1093 C1088 1.363 . S
C1093 C1092 1.415 . S
H1094 C1091 0.999 . S
H1095 C1076 0.913 . S
H1096 C1114 0.951 . S
H1097 C1116 0.951 . S
H1098 C1118 0.950 . S
H1099 C1119 0.950 . S
H1100 C1121 0.950 . S
H1101 C1124 0.950 . S
H1102 C1125 0.950 . S
H1103 C1127 0.950 . S
H1104 C1128 0.950 . S
H1105 C1129 0.951 . S
H1106 C1131 0.951 . S
H1107 C1133 0.950 . S
H1108 C1134 0.950 . S
H1109 C1136 0.950 . S
H1110 C1139 0.950 . S
H1111 C1140 0.950 . S
H1112 C1142 0.950 . S
H1113 C1143 0.950 . S
C1114 H1096 0.951 . S
C1114 C1115 1.366 . S
C1114 C1116 1.388 . S
C1115 C1114 1.366 . S
C1115 C1119 1.385 . S
C1116 H1097 0.951 . S
C1116 C1114 1.388 . S
C1116 C1117 1.366 . S
C1117 C1116 1.366 . S
C1117 C1118 1.414 . S
C1117 C1120 1.499 . S
C1118 H1098 0.950 . S
C1118 C1117 1.414 . S
C1118 C1119 1.374 . S
C1119 H1099 0.950 . S
C1119 C1115 1.385 . S
C1119 C1118 1.374 . S
C1120 C1117 1.499 . S
C1120 C1121 1.373 . S
C1120 C1122 1.389 . S
C1121 H1100 0.950 . S
C1121 C1120 1.373 . S
C1121 C1137 1.377 . S
C1122 C1120 1.389 . S
C1122 C1123 1.524 . S
C1122 C1136 1.377 . S
C1123 C1122 1.524 . S
C1123 C1124 1.397 . S
C1123 C1128 1.363 . S
C1124 H1101 0.950 . S
C1124 C1123 1.397 . S
C1124 C1125 1.334 . S
C1125 H1102 0.950 . S
C1125 C1124 1.334 . S
C1125 C1126 1.287 . S
C1126 C1125 1.287 . S
C1126 C1127 1.524 . S
C1126 H1145 0.913 . S
C1127 H1103 0.950 . S
C1127 C1126 1.524 . S
C1127 C1128 1.415 . S
C1128 H1104 0.950 . S
C1128 C1123 1.363 . S
C1128 C1127 1.415 . S
C1129 H1105 0.951 . S
C1129 C1130 1.366 . S
C1129 C1131 1.388 . S
C1130 C1129 1.366 . S
C1130 C1134 1.385 . S
C1131 H1106 0.951 . S
C1131 C1129 1.388 . S
C1131 C1132 1.366 . S
C1132 C1131 1.366 . S
C1132 C1133 1.414 . S
C1132 C1135 1.499 . S
C1133 H1107 0.950 . S
C1133 C1132 1.414 . S
C1133 C1134 1.374 . S
C1134 H1108 0.950 . S
C1134 C1130 1.385 . S
C1134 C1133 1.374 . S
C1135 C1132 1.499 . S
C1135 C1136 1.373 . S
C1135 C1137 1.389 . S
C1136 H1109 0.950 . S
C1136 C1122 1.377 . S
C1136 C1135 1.373 . S
C1137 C1121 1.377 . S
C1137 C1135 1.389 . S
C1137 C1138 1.524 . S
C1138 C1137 1.524 . S
C1138 C1139 1.397 . S
C1138 C1143 1.363 . S
C1139 H1110 0.950 . S
C1139 C1138 1.397 . S
C1139 C1140 1.334 . S
C1140 H1111 0.950 . S
C1140 C1139 1.334 . S
C1140 C1141 1.287 . S
C1141 C1140 1.287 . S
C1141 C1142 1.524 . S
C1141 H1144 0.999 . S
C1142 H1112 0.950 . S
C1142 C1141 1.524 . S
C1142 C1143 1.415 . S
C1143 H1113 0.950 . S
C1143 C1138 1.363 . S
C1143 C1142 1.415 . S
H1144 C1141 0.999 . S
H1145 C1126 0.913 . S
H1146 C1164 0.951 . S
H1147 C1166 0.951 . S
H1148 C1168 0.950 . S
H1149 C1169 0.950 . S
H1150 C1171 0.950 . S
H1151 C1174 0.950 . S
H1152 C1175 0.950 . S
H1153 C1177 0.950 . S
H1154 C1178 0.950 . S
H1155 C1179 0.951 . S
H1156 C1181 0.951 . S
H1157 C1183 0.950 . S
H1158 C1184 0.950 . S
H1159 C1186 0.950 . S
H1160 C1189 0.950 . S
H1161 C1190 0.950 . S
H1162 C1192 0.950 . S
H1163 C1193 0.950 . S
C1164 H1146 0.951 . S
C1164 C1165 1.366 . S
C1164 C1166 1.388 . S
C1165 C1164 1.366 . S
C1165 C1169 1.385 . S
C1166 H1147 0.951 . S
C1166 C1164 1.388 . S
C1166 C1167 1.366 . S
C1167 C1166 1.366 . S
C1167 C1168 1.414 . S
C1167 C1170 1.499 . S
C1168 H1148 0.950 . S
C1168 C1167 1.414 . S
C1168 C1169 1.374 . S
C1169 H1149 0.950 . S
C1169 C1165 1.385 . S
C1169 C1168 1.374 . S
C1170 C1167 1.499 . S
C1170 C1171 1.373 . S
C1170 C1172 1.389 . S
C1171 H1150 0.950 . S
C1171 C1170 1.373 . S
C1171 C1187 1.377 . S
C1172 C1170 1.389 . S
C1172 C1173 1.524 . S
C1172 C1186 1.377 . S
C1173 C1172 1.524 . S
C1173 C1174 1.397 . S
C1173 C1178 1.363 . S
C1174 H1151 0.950 . S
C1174 C1173 1.397 . S
C1174 C1175 1.334 . S
C1175 H1152 0.950 . S
C1175 C1174 1.334 . S
C1175 C1176 1.287 . S
C1176 C1175 1.287 . S
C1176 C1177 1.524 . S
C1176 H1195 0.913 . S
C1177 H1153 0.950 . S
C1177 C1176 1.524 . S
C1177 C1178 1.415 . S
C1178 H1154 0.950 . S
C1178 C1173 1.363 . S
C1178 C1177 1.415 . S
C1179 H1155 0.951 . S
C1179 C1180 1.366 . S
C1179 C1181 1.388 . S
C1180 C1179 1.366 . S
C1180 C1184 1.385 . S
C1181 H1156 0.951 . S
C1181 C1179 1.388 . S
C1181 C1182 1.366 . S
C1182 C1181 1.366 . S
C1182 C1183 1.414 . S
C1182 C1185 1.499 . S
C1183 H1157 0.950 . S
C1183 C1182 1.414 . S
C1183 C1184 1.374 . S
C1184 H1158 0.950 . S
C1184 C1180 1.385 . S
C1184 C1183 1.374 . S
C1185 C1182 1.499 . S
C1185 C1186 1.373 . S
C1185 C1187 1.389 . S
C1186 H1159 0.950 . S
C1186 C1172 1.377 . S
C1186 C1185 1.373 . S
C1187 C1171 1.377 . S
C1187 C1185 1.389 . S
C1187 C1188 1.524 . S
C1188 C1187 1.524 . S
C1188 C1189 1.397 . S
C1188 C1193 1.363 . S
C1189 H1160 0.950 . S
C1189 C1188 1.397 . S
C1189 C1190 1.334 . S
C1190 H1161 0.950 . S
C1190 C1189 1.334 . S
C1190 C1191 1.287 . S
C1191 C1190 1.287 . S
C1191 C1192 1.524 . S
C1191 H1194 0.999 . S
C1192 H1162 0.950 . S
C1192 C1191 1.524 . S
C1192 C1193 1.415 . S
C1193 H1163 0.950 . S
C1193 C1188 1.363 . S
C1193 C1192 1.415 . S
H1194 C1191 0.999 . S
H1195 C1176 0.913 . S
H1196 C1214 0.951 . S
H1197 C1216 0.951 . S
H1198 C1218 0.950 . S
H1199 C1219 0.950 . S
H1200 C1221 0.950 . S
H1201 C1224 0.950 . S
H1202 C1225 0.950 . S
H1203 C1227 0.950 . S
H1204 C1228 0.950 . S
H1205 C1229 0.951 . S
H1206 C1231 0.951 . S
H1207 C1233 0.950 . S
H1208 C1234 0.950 . S
H1209 C1236 0.950 . S
H1210 C1239 0.950 . S
H1211 C1240 0.950 . S
H1212 C1242 0.950 . S
H1213 C1243 0.950 . S
C1214 H1196 0.951 . S
C1214 C1215 1.366 . S
C1214 C1216 1.388 . S
C1215 C1214 1.366 . S
C1215 C1219 1.385 . S
C1216 H1197 0.951 . S
C1216 C1214 1.388 . S
C1216 C1217 1.366 1_545 S
C1217 C1216 1.366 1_565 S
C1217 C1218 1.414 . S
C1217 C1220 1.499 . S
C1218 H1198 0.950 . S
C1218 C1217 1.414 . S
C1218 C1219 1.374 1_565 S
C1219 H1199 0.950 . S
C1219 C1215 1.385 . S
C1219 C1218 1.374 1_545 S
C1220 C1217 1.499 . S
C1220 C1221 1.373 . S
C1220 C1222 1.389 . S
C1221 H1200 0.950 . S
C1221 C1220 1.373 . S
C1221 C1237 1.377 . S
C1222 C1220 1.389 . S
C1222 C1223 1.524 . S
C1222 C1236 1.377 . S
C1223 C1222 1.524 . S
C1223 C1224 1.397 . S
C1223 C1228 1.363 . S
C1224 H1201 0.950 . S
C1224 C1223 1.397 . S
C1224 C1225 1.334 . S
C1225 H1202 0.950 . S
C1225 C1224 1.334 . S
C1225 C1226 1.287 . S
C1226 C1225 1.287 . S
C1226 C1227 1.524 . S
C1226 H1245 0.913 1_565 S
C1227 H1203 0.950 . S
C1227 C1226 1.524 . S
C1227 C1228 1.415 . S
C1228 H1204 0.950 . S
C1228 C1223 1.363 . S
C1228 C1227 1.415 . S
C1229 H1205 0.951 . S
C1229 C1230 1.366 . S
C1229 C1231 1.388 . S
C1230 C1229 1.366 . S
C1230 C1234 1.385 . S
C1231 H1206 0.951 . S
C1231 C1229 1.388 . S
C1231 C1232 1.366 . S
C1232 C1231 1.366 . S
C1232 C1233 1.414 . S
C1232 C1235 1.499 . S
C1233 H1207 0.950 . S
C1233 C1232 1.414 . S
C1233 C1234 1.374 . S
C1234 H1208 0.950 . S
C1234 C1230 1.385 . S
C1234 C1233 1.374 . S
C1235 C1232 1.499 . S
C1235 C1236 1.373 . S
C1235 C1237 1.389 . S
C1236 H1209 0.950 . S
C1236 C1222 1.377 . S
C1236 C1235 1.373 . S
C1237 C1221 1.377 . S
C1237 C1235 1.389 . S
C1237 C1238 1.524 . S
C1238 C1237 1.524 . S
C1238 C1239 1.397 . S
C1238 C1243 1.363 . S
C1239 H1210 0.950 . S
C1239 C1238 1.397 . S
C1239 C1240 1.334 . S
C1240 H1211 0.950 . S
C1240 C1239 1.334 . S
C1240 C1241 1.287 . S
C1241 C1240 1.287 . S
C1241 C1242 1.524 . S
C1241 H1244 0.999 . S
C1242 H1212 0.950 . S
C1242 C1241 1.524 . S
C1242 C1243 1.415 . S
C1243 H1213 0.950 . S
C1243 C1238 1.363 . S
C1243 C1242 1.415 . S
H1244 C1241 0.999 . S
H1245 C1226 0.913 1_545 S
H1246 C1264 0.951 . S
H1247 C1266 0.951 . S
H1248 C1268 0.950 . S
H1249 C1269 0.950 . S
H1250 C1271 0.950 . S
H1251 C1274 0.950 . S
H1252 C1275 0.950 . S
H1253 C1277 0.950 . S
H1254 C1278 0.950 . S
H1255 C1279 0.951 . S
H1256 C1281 0.951 . S
H1257 C1283 0.950 . S
H1258 C1284 0.950 . S
H1259 C1286 0.950 . S
H1260 C1289 0.950 . S
H1261 C1290 0.950 . S
H1262 C1292 0.950 . S
H1263 C1293 0.950 . S
C1264 H1246 0.951 . S
C1264 C1265 1.366 . S
C1264 C1266 1.388 . S
C1265 C1264 1.366 . S
C1265 C1269 1.385 . S
C1266 H1247 0.951 . S
C1266 C1264 1.388 . S
C1266 C1267 1.366 . S
C1267 C1266 1.366 . S
C1267 C1268 1.414 . S
C1267 C1270 1.499 . S
C1268 H1248 0.950 . S
C1268 C1267 1.414 . S
C1268 C1269 1.374 . S
C1269 H1249 0.950 . S
C1269 C1265 1.385 . S
C1269 C1268 1.374 . S
C1270 C1267 1.499 . S
C1270 C1271 1.373 . S
C1270 C1272 1.389 . S
C1271 H1250 0.950 . S
C1271 C1270 1.373 . S
C1271 C1287 1.377 . S
C1272 C1270 1.389 . S
C1272 C1273 1.524 . S
C1272 C1286 1.377 . S
C1273 C1272 1.524 . S
C1273 C1274 1.397 . S
C1273 C1278 1.363 . S
C1274 H1251 0.950 . S
C1274 C1273 1.397 . S
C1274 C1275 1.334 . S
C1275 H1252 0.950 . S
C1275 C1274 1.334 . S
C1275 C1276 1.287 . S
C1276 C1275 1.287 . S
C1276 C1277 1.524 . S
C1276 H1295 0.913 . S
C1277 H1253 0.950 . S
C1277 C1276 1.524 . S
C1277 C1278 1.415 . S
C1278 H1254 0.950 . S
C1278 C1273 1.363 . S
C1278 C1277 1.415 . S
C1279 H1255 0.951 . S
C1279 C1280 1.366 . S
C1279 C1281 1.388 . S
C1280 C1279 1.366 . S
C1280 C1284 1.385 . S
C1281 H1256 0.951 . S
C1281 C1279 1.388 . S
C1281 C1282 1.366 . S
C1282 C1281 1.366 . S
C1282 C1283 1.414 . S
C1282 C1285 1.499 . S
C1283 H1257 0.950 . S
C1283 C1282 1.414 . S
C1283 C1284 1.374 . S
C1284 H1258 0.950 . S
C1284 C1280 1.385 . S
C1284 C1283 1.374 . S
C1285 C1282 1.499 . S
C1285 C1286 1.373 . S
C1285 C1287 1.389 . S
C1286 H1259 0.950 . S
C1286 C1272 1.377 . S
C1286 C1285 1.373 . S
C1287 C1271 1.377 . S
C1287 C1285 1.389 . S
C1287 C1288 1.524 . S
C1288 C1287 1.524 . S
C1288 C1289 1.397 . S
C1288 C1293 1.363 . S
C1289 H1260 0.950 . S
C1289 C1288 1.397 . S
C1289 C1290 1.334 . S
C1290 H1261 0.950 . S
C1290 C1289 1.334 . S
C1290 C1291 1.287 . S
C1291 C1290 1.287 . S
C1291 C1292 1.524 . S
C1291 H1294 0.999 . S
C1292 H1262 0.950 . S
C1292 C1291 1.524 . S
C1292 C1293 1.415 . S
C1293 H1263 0.950 . S
C1293 C1288 1.363 . S
C1293 C1292 1.415 . S
H1294 C1291 0.999 . S
H1295 C1276 0.913 . S
H1296 C1314 0.951 . S
H1297 C1316 0.951 . S
H1298 C1318 0.950 . S
H1299 C1319 0.950 . S
H1300 C1321 0.950 . S
H1301 C1324 0.950 . S
H1302 C1325 0.950 . S
H1303 C1327 0.950 . S
H1304 C1328 0.950 . S
H1305 C1329 0.951 . S
H1306 C1331 0.951 . S
H1307 C1333 0.950 . S
H1308 C1334 0.950 . S
H1309 C1336 0.950 . S
H1310 C1339 0.950 . S
H1311 C1340 0.950 . S
H1312 C1342 0.950 . S
H1313 C1343 0.950 . S
C1314 H1296 0.951 . S
C1314 C1315 1.366 . S
C1314 C1316 1.388 . S
C1315 C1314 1.366 . S
C1315 C1319 1.385 . S
C1316 H1297 0.951 . S
C1316 C1314 1.388 . S
C1316 C1317 1.366 . S
C1317 C1316 1.366 . S
C1317 C1318 1.414 . S
C1317 C1320 1.499 . S
C1318 H1298 0.950 . S
C1318 C1317 1.414 . S
C1318 C1319 1.374 . S
C1319 H1299 0.950 . S
C1319 C1315 1.385 . S
C1319 C1318 1.374 . S
C1320 C1317 1.499 . S
C1320 C1321 1.373 . S
C1320 C1322 1.389 . S
C1321 H1300 0.950 . S
C1321 C1320 1.373 . S
C1321 C1337 1.377 . S
C1322 C1320 1.389 . S
C1322 C1323 1.524 . S
C1322 C1336 1.377 . S
C1323 C1322 1.524 . S
C1323 C1324 1.397 . S
C1323 C1328 1.363 . S
C1324 H1301 0.950 . S
C1324 C1323 1.397 . S
C1324 C1325 1.334 . S
C1325 H1302 0.950 . S
C1325 C1324 1.334 . S
C1325 C1326 1.287 . S
C1326 C1325 1.287 . S
C1326 C1327 1.524 . S
C1326 H1345 0.913 . S
C1327 H1303 0.950 . S
C1327 C1326 1.524 . S
C1327 C1328 1.415 . S
C1328 H1304 0.950 . S
C1328 C1323 1.363 . S
C1328 C1327 1.415 . S
C1329 H1305 0.951 . S
C1329 C1330 1.366 . S
C1329 C1331 1.388 . S
C1330 C1329 1.366 . S
C1330 C1334 1.385 . S
C1331 H1306 0.951 . S
C1331 C1329 1.388 . S
C1331 C1332 1.366 . S
C1332 C1331 1.366 . S
C1332 C1333 1.414 . S
C1332 C1335 1.499 . S
C1333 H1307 0.950 . S
C1333 C1332 1.414 . S
C1333 C1334 1.374 . S
C1334 H1308 0.950 . S
C1334 C1330 1.385 . S
C1334 C1333 1.374 . S
C1335 C1332 1.499 . S
C1335 C1336 1.373 . S
C1335 C1337 1.389 . S
C1336 H1309 0.950 . S
C1336 C1322 1.377 . S
C1336 C1335 1.373 . S
C1337 C1321 1.377 . S
C1337 C1335 1.389 . S
C1337 C1338 1.524 . S
C1338 C1337 1.524 . S
C1338 C1339 1.397 . S
C1338 C1343 1.363 . S
C1339 H1310 0.950 . S
C1339 C1338 1.397 . S
C1339 C1340 1.334 . S
C1340 H1311 0.950 . S
C1340 C1339 1.334 . S
C1340 C1341 1.287 . S
C1341 C1340 1.287 . S
C1341 C1342 1.524 . S
C1341 H1344 0.999 . S
C1342 H1312 0.950 . S
C1342 C1341 1.524 . S
C1342 C1343 1.415 . S
C1343 H1313 0.950 . S
C1343 C1338 1.363 . S
C1343 C1342 1.415 . S
H1344 C1341 0.999 . S
H1345 C1326 0.913 . S
H1346 C1364 0.951 . S
H1347 C1366 0.951 . S
H1348 C1368 0.950 . S
H1349 C1369 0.950 . S
H1350 C1371 0.950 . S
H1351 C1374 0.950 . S
H1352 C1375 0.950 . S
H1353 C1377 0.950 . S
H1354 C1378 0.950 . S
H1355 C1379 0.951 . S
H1356 C1381 0.951 . S
H1357 C1383 0.950 . S
H1358 C1384 0.950 . S
H1359 C1386 0.950 . S
H1360 C1389 0.950 . S
H1361 C1390 0.950 . S
H1362 C1392 0.950 . S
H1363 C1393 0.950 . S
C1364 H1346 0.951 . S
C1364 C1365 1.366 . S
C1364 C1366 1.388 . S
C1365 C1364 1.366 . S
C1365 C1369 1.385 . S
C1366 H1347 0.951 . S
C1366 C1364 1.388 . S
C1366 C1367 1.366 . S
C1367 C1366 1.366 . S
C1367 C1368 1.414 . S
C1367 C1370 1.499 . S
C1368 H1348 0.950 . S
C1368 C1367 1.414 . S
C1368 C1369 1.374 . S
C1369 H1349 0.950 . S
C1369 C1365 1.385 . S
C1369 C1368 1.374 . S
C1370 C1367 1.499 . S
C1370 C1371 1.373 . S
C1370 C1372 1.389 . S
C1371 H1350 0.950 . S
C1371 C1370 1.373 . S
C1371 C1387 1.377 . S
C1372 C1370 1.389 . S
C1372 C1373 1.524 . S
C1372 C1386 1.377 . S
C1373 C1372 1.524 . S
C1373 C1374 1.397 . S
C1373 C1378 1.363 . S
C1374 H1351 0.950 . S
C1374 C1373 1.397 . S
C1374 C1375 1.334 . S
C1375 H1352 0.950 . S
C1375 C1374 1.334 . S
C1375 C1376 1.287 . S
C1376 C1375 1.287 . S
C1376 C1377 1.524 . S
C1376 H1395 0.913 . S
C1377 H1353 0.950 . S
C1377 C1376 1.524 . S
C1377 C1378 1.415 . S
C1378 H1354 0.950 . S
C1378 C1373 1.363 . S
C1378 C1377 1.415 . S
C1379 H1355 0.951 . S
C1379 C1380 1.366 . S
C1379 C1381 1.388 . S
C1380 C1379 1.366 . S
C1380 C1384 1.385 . S
C1381 H1356 0.951 . S
C1381 C1379 1.388 . S
C1381 C1382 1.366 . S
C1382 C1381 1.366 . S
C1382 C1383 1.414 . S
C1382 C1385 1.499 . S
C1383 H1357 0.950 . S
C1383 C1382 1.414 . S
C1383 C1384 1.374 . S
C1384 H1358 0.950 . S
C1384 C1380 1.385 . S
C1384 C1383 1.374 . S
C1385 C1382 1.499 . S
C1385 C1386 1.373 . S
C1385 C1387 1.389 . S
C1386 H1359 0.950 . S
C1386 C1372 1.377 . S
C1386 C1385 1.373 . S
C1387 C1371 1.377 . S
C1387 C1385 1.389 . S
C1387 C1388 1.524 . S
C1388 C1387 1.524 . S
C1388 C1389 1.397 . S
C1388 C1393 1.363 . S
C1389 H1360 0.950 . S
C1389 C1388 1.397 . S
C1389 C1390 1.334 . S
C1390 H1361 0.950 . S
C1390 C1389 1.334 . S
C1390 C1391 1.287 . S
C1391 C1390 1.287 . S
C1391 C1392 1.524 . S
C1391 H1394 0.999 . S
C1392 H1362 0.950 . S
C1392 C1391 1.524 . S
C1392 C1393 1.415 . S
C1393 H1363 0.950 . S
C1393 C1388 1.363 . S
C1393 C1392 1.415 . S
H1394 C1391 0.999 . S
H1395 C1376 0.913 . S
H1396 C1414 0.951 . S
H1397 C1416 0.951 . S
H1398 C1418 0.950 . S
H1399 C1419 0.950 . S
H1400 C1421 0.950 . S
H1401 C1424 0.950 . S
H1402 C1425 0.950 . S
H1403 C1427 0.950 . S
H1404 C1428 0.950 . S
H1405 C1429 0.951 . S
H1406 C1431 0.951 . S
H1407 C1433 0.950 . S
H1408 C1434 0.950 . S
H1409 C1436 0.950 . S
H1410 C1439 0.950 . S
H1411 C1440 0.950 . S
H1412 C1442 0.950 . S
H1413 C1443 0.950 . S
C1414 H1396 0.951 . S
C1414 C1415 1.366 . S
C1414 C1416 1.388 . S
C1415 C1414 1.366 . S
C1415 C1419 1.385 . S
C1416 H1397 0.951 . S
C1416 C1414 1.388 . S
C1416 C1417 1.366 . S
C1417 C1416 1.366 . S
C1417 C1418 1.414 . S
C1417 C1420 1.499 . S
C1418 H1398 0.950 . S
C1418 C1417 1.414 . S
C1418 C1419 1.374 . S
C1419 H1399 0.950 . S
C1419 C1415 1.385 . S
C1419 C1418 1.374 . S
C1420 C1417 1.499 . S
C1420 C1421 1.373 . S
C1420 C1422 1.389 . S
C1421 H1400 0.950 . S
C1421 C1420 1.373 . S
C1421 C1437 1.377 . S
C1422 C1420 1.389 . S
C1422 C1423 1.524 . S
C1422 C1436 1.377 . S
C1423 C1422 1.524 . S
C1423 C1424 1.397 . S
C1423 C1428 1.363 . S
C1424 H1401 0.950 . S
C1424 C1423 1.397 . S
C1424 C1425 1.334 . S
C1425 H1402 0.950 . S
C1425 C1424 1.334 . S
C1425 C1426 1.287 . S
C1426 C1425 1.287 . S
C1426 C1427 1.524 . S
C1426 H1445 0.913 . S
C1427 H1403 0.950 . S
C1427 C1426 1.524 . S
C1427 C1428 1.415 . S
C1428 H1404 0.950 . S
C1428 C1423 1.363 . S
C1428 C1427 1.415 . S
C1429 H1405 0.951 . S
C1429 C1430 1.366 . S
C1429 C1431 1.388 . S
C1430 C1429 1.366 . S
C1430 C1434 1.385 . S
C1431 H1406 0.951 . S
C1431 C1429 1.388 . S
C1431 C1432 1.366 . S
C1432 C1431 1.366 . S
C1432 C1433 1.414 . S
C1432 C1435 1.499 . S
C1433 H1407 0.950 . S
C1433 C1432 1.414 . S
C1433 C1434 1.374 . S
C1434 H1408 0.950 . S
C1434 C1430 1.385 . S
C1434 C1433 1.374 . S
C1435 C1432 1.499 . S
C1435 C1436 1.373 . S
C1435 C1437 1.389 . S
C1436 H1409 0.950 . S
C1436 C1422 1.377 . S
C1436 C1435 1.373 . S
C1437 C1421 1.377 . S
C1437 C1435 1.389 . S
C1437 C1438 1.524 . S
C1438 C1437 1.524 . S
C1438 C1439 1.397 . S
C1438 C1443 1.363 . S
C1439 H1410 0.950 . S
C1439 C1438 1.397 . S
C1439 C1440 1.334 . S
C1440 H1411 0.950 . S
C1440 C1439 1.334 . S
C1440 C1441 1.287 . S
C1441 C1440 1.287 . S
C1441 C1442 1.524 . S
C1441 H1444 0.999 . S
C1442 H1412 0.950 . S
C1442 C1441 1.524 . S
C1442 C1443 1.415 . S
C1443 H1413 0.950 . S
C1443 C1438 1.363 . S
C1443 C1442 1.415 . S
H1444 C1441 0.999 . S
H1445 C1426 0.913 . S
H1446 C1464 0.951 . S
H1447 C1466 0.951 . S
H1448 C1468 0.950 . S
H1449 C1469 0.950 . S
H1450 C1471 0.950 . S
H1451 C1474 0.950 . S
H1452 C1475 0.950 . S
H1453 C1477 0.950 . S
H1454 C1478 0.950 . S
H1455 C1479 0.951 . S
H1456 C1481 0.951 . S
H1457 C1483 0.950 . S
H1458 C1484 0.950 . S
H1459 C1486 0.950 . S
H1460 C1489 0.950 . S
H1461 C1490 0.950 . S
H1462 C1492 0.950 . S
H1463 C1493 0.950 . S
C1464 H1446 0.951 . S
C1464 C1465 1.366 . S
C1464 C1466 1.388 . S
C1465 C1464 1.366 . S
C1465 C1469 1.385 . S
C1466 H1447 0.951 . S
C1466 C1464 1.388 . S
C1466 C1467 1.366 . S
C1467 C1466 1.366 . S
C1467 C1468 1.414 . S
C1467 C1470 1.499 . S
C1468 H1448 0.950 . S
C1468 C1467 1.414 . S
C1468 C1469 1.374 . S
C1469 H1449 0.950 . S
C1469 C1465 1.385 . S
C1469 C1468 1.374 . S
C1470 C1467 1.499 . S
C1470 C1471 1.373 . S
C1470 C1472 1.389 . S
C1471 H1450 0.950 . S
C1471 C1470 1.373 . S
C1471 C1487 1.377 . S
C1472 C1470 1.389 . S
C1472 C1473 1.524 . S
C1472 C1486 1.377 . S
C1473 C1472 1.524 . S
C1473 C1474 1.397 . S
C1473 C1478 1.363 . S
C1474 H1451 0.950 . S
C1474 C1473 1.397 . S
C1474 C1475 1.334 . S
C1475 H1452 0.950 . S
C1475 C1474 1.334 . S
C1475 C1476 1.287 . S
C1476 C1475 1.287 . S
C1476 C1477 1.524 . S
C1476 H1495 0.913 . S
C1477 H1453 0.950 . S
C1477 C1476 1.524 . S
C1477 C1478 1.415 . S
C1478 H1454 0.950 . S
C1478 C1473 1.363 . S
C1478 C1477 1.415 . S
C1479 H1455 0.951 . S
C1479 C1480 1.366 . S
C1479 C1481 1.388 . S
C1480 C1479 1.366 . S
C1480 C1484 1.385 . S
C1481 H1456 0.951 . S
C1481 C1479 1.388 . S
C1481 C1482 1.366 . S
C1482 C1481 1.366 . S
C1482 C1483 1.414 . S
C1482 C1485 1.499 . S
C1483 H1457 0.950 . S
C1483 C1482 1.414 . S
C1483 C1484 1.374 . S
C1484 H1458 0.950 . S
C1484 C1480 1.385 . S
C1484 C1483 1.374 . S
C1485 C1482 1.499 . S
C1485 C1486 1.373 . S
C1485 C1487 1.389 . S
C1486 H1459 0.950 . S
C1486 C1472 1.377 . S
C1486 C1485 1.373 . S
C1487 C1471 1.377 . S
C1487 C1485 1.389 . S
C1487 C1488 1.524 . S
C1488 C1487 1.524 . S
C1488 C1489 1.397 . S
C1488 C1493 1.363 . S
C1489 H1460 0.950 . S
C1489 C1488 1.397 . S
C1489 C1490 1.334 . S
C1490 H1461 0.950 . S
C1490 C1489 1.334 . S
C1490 C1491 1.287 . S
C1491 C1490 1.287 . S
C1491 C1492 1.524 . S
C1491 H1494 0.999 . S
C1492 H1462 0.950 . S
C1492 C1491 1.524 . S
C1492 C1493 1.415 . S
C1493 H1463 0.950 . S
C1493 C1488 1.363 . S
C1493 C1492 1.415 . S
H1494 C1491 0.999 . S
H1495 C1476 0.913 . S
H1496 C1514 0.951 . S
H1497 C1516 0.951 . S
H1498 C1518 0.950 . S
H1499 C1519 0.950 . S
H1500 C1521 0.950 . S
H1501 C1524 0.950 . S
H1502 C1525 0.950 . S
H1503 C1527 0.950 . S
H1504 C1528 0.950 . S
H1505 C1529 0.951 . S
H1506 C1531 0.951 . S
H1507 C1533 0.950 . S
H1508 C1534 0.950 . S
H1509 C1536 0.950 . S
H1510 C1539 0.950 . S
H1511 C1540 0.950 . S
H1512 C1542 0.950 . S
H1513 C1543 0.950 . S
C1514 H1496 0.951 . S
C1514 C1515 1.366 . S
C1514 C1516 1.388 . S
C1515 C1514 1.366 . S
C1515 C1519 1.385 . S
C1516 H1497 0.951 . S
C1516 C1514 1.388 . S
C1516 C1517 1.366 . S
C1517 C1516 1.366 . S
C1517 C1518 1.414 . S
C1517 C1520 1.499 . S
C1518 H1498 0.950 . S
C1518 C1517 1.414 . S
C1518 C1519 1.374 . S
C1519 H1499 0.950 . S
C1519 C1515 1.385 . S
C1519 C1518 1.374 . S
C1520 C1517 1.499 . S
C1520 C1521 1.373 . S
C1520 C1522 1.389 . S
C1521 H1500 0.950 . S
C1521 C1520 1.373 . S
C1521 C1537 1.377 . S
C1522 C1520 1.389 . S
C1522 C1523 1.524 . S
C1522 C1536 1.377 . S
C1523 C1522 1.524 . S
C1523 C1524 1.397 . S
C1523 C1528 1.363 . S
C1524 H1501 0.950 . S
C1524 C1523 1.397 . S
C1524 C1525 1.334 . S
C1525 H1502 0.950 . S
C1525 C1524 1.334 . S
C1525 C1526 1.287 . S
C1526 C1525 1.287 . S
C1526 C1527 1.524 . S
C1526 H1545 0.913 . S
C1527 H1503 0.950 . S
C1527 C1526 1.524 . S
C1527 C1528 1.415 . S
C1528 H1504 0.950 . S
C1528 C1523 1.363 . S
C1528 C1527 1.415 . S
C1529 H1505 0.951 . S
C1529 C1530 1.366 . S
C1529 C1531 1.388 . S
C1530 C1529 1.366 . S
C1530 C1534 1.385 . S
C1531 H1506 0.951 . S
C1531 C1529 1.388 . S
C1531 C1532 1.366 . S
C1532 C1531 1.366 . S
C1532 C1533 1.414 . S
C1532 C1535 1.499 . S
C1533 H1507 0.950 . S
C1533 C1532 1.414 . S
C1533 C1534 1.374 . S
C1534 H1508 0.950 . S
C1534 C1530 1.385 . S
C1534 C1533 1.374 . S
C1535 C1532 1.499 . S
C1535 C1536 1.373 . S
C1535 C1537 1.389 . S
C1536 H1509 0.950 . S
C1536 C1522 1.377 . S
C1536 C1535 1.373 . S
C1537 C1521 1.377 . S
C1537 C1535 1.389 . S
C1537 C1538 1.524 . S
C1538 C1537 1.524 . S
C1538 C1539 1.397 . S
C1538 C1543 1.363 . S
C1539 H1510 0.950 . S
C1539 C1538 1.397 . S
C1539 C1540 1.334 . S
C1540 H1511 0.950 . S
C1540 C1539 1.334 . S
C1540 C1541 1.287 . S
C1541 C1540 1.287 . S
C1541 C1542 1.524 . S
C1541 H1544 0.999 . S
C1542 H1512 0.950 . S
C1542 C1541 1.524 . S
C1542 C1543 1.415 . S
C1543 H1513 0.950 . S
C1543 C1538 1.363 . S
C1543 C1542 1.415 . S
H1544 C1541 0.999 . S
H1545 C1526 0.913 . S
H1546 C1564 0.951 . S
H1547 C1566 0.951 . S
H1548 C1568 0.950 . S
H1549 C1569 0.950 . S
H1550 C1571 0.950 . S
H1551 C1574 0.950 . S
H1552 C1575 0.950 . S
H1553 C1577 0.950 . S
H1554 C1578 0.950 . S
H1555 C1579 0.951 . S
H1556 C1581 0.951 . S
H1557 C1583 0.950 . S
H1558 C1584 0.950 . S
H1559 C1586 0.950 . S
H1560 C1589 0.950 . S
H1561 C1590 0.950 . S
H1562 C1592 0.950 . S
H1563 C1593 0.950 . S
C1564 H1546 0.951 . S
C1564 C1565 1.366 . S
C1564 C1566 1.388 . S
C1565 C1564 1.366 . S
C1565 C1569 1.385 . S
C1566 H1547 0.951 . S
C1566 C1564 1.388 . S
C1566 C1567 1.366 . S
C1567 C1566 1.366 . S
C1567 C1568 1.414 . S
C1567 C1570 1.499 . S
C1568 H1548 0.950 . S
C1568 C1567 1.414 . S
C1568 C1569 1.374 . S
C1569 H1549 0.950 . S
C1569 C1565 1.385 . S
C1569 C1568 1.374 . S
C1570 C1567 1.499 . S
C1570 C1571 1.373 . S
C1570 C1572 1.389 . S
C1571 H1550 0.950 . S
C1571 C1570 1.373 . S
C1571 C1587 1.377 . S
C1572 C1570 1.389 . S
C1572 C1573 1.524 . S
C1572 C1586 1.377 . S
C1573 C1572 1.524 . S
C1573 C1574 1.397 . S
C1573 C1578 1.363 . S
C1574 H1551 0.950 . S
C1574 C1573 1.397 . S
C1574 C1575 1.334 . S
C1575 H1552 0.950 . S
C1575 C1574 1.334 . S
C1575 C1576 1.287 . S
C1576 C1575 1.287 . S
C1576 C1577 1.524 . S
C1576 H1595 0.913 . S
C1577 H1553 0.950 . S
C1577 C1576 1.524 . S
C1577 C1578 1.415 . S
C1578 H1554 0.950 . S
C1578 C1573 1.363 . S
C1578 C1577 1.415 . S
C1579 H1555 0.951 . S
C1579 C1580 1.366 . S
C1579 C1581 1.388 . S
C1580 C1579 1.366 . S
C1580 C1584 1.385 . S
C1581 H1556 0.951 . S
C1581 C1579 1.388 . S
C1581 C1582 1.366 . S
C1582 C1581 1.366 . S
C1582 C1583 1.414 . S
C1582 C1585 1.499 . S
C1583 H1557 0.950 . S
C1583 C1582 1.414 . S
C1583 C1584 1.374 . S
C1584 H1558 0.950 . S
C1584 C1580 1.385 . S
C1584 C1583 1.374 . S
C1585 C1582 1.499 . S
C1585 C1586 1.373 . S
C1585 C1587 1.389 . S
C1586 H1559 0.950 . S
C1586 C1572 1.377 . S
C1586 C1585 1.373 . S
C1587 C1571 1.377 . S
C1587 C1585 1.389 . S
C1587 C1588 1.524 . S
C1588 C1587 1.524 . S
C1588 C1589 1.397 . S
C1588 C1593 1.363 . S
C1589 H1560 0.950 . S
C1589 C1588 1.397 . S
C1589 C1590 1.334 . S
C1590 H1561 0.950 . S
C1590 C1589 1.334 . S
C1590 C1591 1.287 . S
C1591 C1590 1.287 . S
C1591 C1592 1.524 . S
C1591 H1594 0.999 . S
C1592 H1562 0.950 . S
C1592 C1591 1.524 . S
C1592 C1593 1.415 . S
C1593 H1563 0.950 . S
C1593 C1588 1.363 . S
C1593 C1592 1.415 . S
H1594 C1591 0.999 . S
H1595 C1576 0.913 . S
H1596 C1614 0.951 . S
H1597 C1616 0.951 . S
H1598 C1618 0.950 . S
H1599 C1619 0.950 . S
H1600 C1621 0.950 . S
H1601 C1624 0.950 . S
H1602 C1625 0.950 . S
H1603 C1627 0.950 . S
H1604 C1628 0.950 . S
H1605 C1629 0.951 . S
H1606 C1631 0.951 . S
H1607 C1633 0.950 . S
H1608 C1634 0.950 . S
H1609 C1636 0.950 . S
H1610 C1639 0.950 . S
H1611 C1640 0.950 . S
H1612 C1642 0.950 . S
H1613 C1643 0.950 . S
C1614 H1596 0.951 . S
C1614 C1615 1.366 . S
C1614 C1616 1.388 . S
C1615 C1614 1.366 . S
C1615 C1619 1.385 . S
C1616 H1597 0.951 . S
C1616 C1614 1.388 . S
C1616 C1617 1.366 . S
C1617 C1616 1.366 . S
C1617 C1618 1.414 . S
C1617 C1620 1.499 . S
C1618 H1598 0.950 . S
C1618 C1617 1.414 . S
C1618 C1619 1.374 . S
C1619 H1599 0.950 . S
C1619 C1615 1.385 . S
C1619 C1618 1.374 . S
C1620 C1617 1.499 . S
C1620 C1621 1.373 . S
C1620 C1622 1.389 . S
C1621 H1600 0.950 . S
C1621 C1620 1.373 . S
C1621 C1637 1.377 . S
C1622 C1620 1.389 . S
C1622 C1623 1.524 . S
C1622 C1636 1.377 . S
C1623 C1622 1.524 . S
C1623 C1624 1.397 . S
C1623 C1628 1.363 . S
C1624 H1601 0.950 . S
C1624 C1623 1.397 . S
C1624 C1625 1.334 . S
C1625 H1602 0.950 . S
C1625 C1624 1.334 . S
C1625 C1626 1.287 . S
C1626 C1625 1.287 . S
C1626 C1627 1.524 . S
C1626 H1645 0.913 . S
C1627 H1603 0.950 . S
C1627 C1626 1.524 . S
C1627 C1628 1.415 . S
C1628 H1604 0.950 . S
C1628 C1623 1.363 . S
C1628 C1627 1.415 . S
C1629 H1605 0.951 . S
C1629 C1630 1.366 . S
C1629 C1631 1.388 . S
C1630 C1629 1.366 . S
C1630 C1634 1.385 . S
C1631 H1606 0.951 . S
C1631 C1629 1.388 . S
C1631 C1632 1.366 . S
C1632 C1631 1.366 . S
C1632 C1633 1.414 . S
C1632 C1635 1.499 . S
C1633 H1607 0.950 . S
C1633 C1632 1.414 . S
C1633 C1634 1.374 . S
C1634 H1608 0.950 . S
C1634 C1630 1.385 . S
C1634 C1633 1.374 . S
C1635 C1632 1.499 . S
C1635 C1636 1.373 . S
C1635 C1637 1.389 . S
C1636 H1609 0.950 . S
C1636 C1622 1.377 . S
C1636 C1635 1.373 . S
C1637 C1621 1.377 . S
C1637 C1635 1.389 . S
C1637 C1638 1.524 . S
C1638 C1637 1.524 . S
C1638 C1639 1.397 . S
C1638 C1643 1.363 . S
C1639 H1610 0.950 . S
C1639 C1638 1.397 . S
C1639 C1640 1.334 . S
C1640 H1611 0.950 . S
C1640 C1639 1.334 . S
C1640 C1641 1.287 . S
C1641 C1640 1.287 . S
C1641 C1642 1.524 . S
C1641 H1644 0.999 . S
C1642 H1612 0.950 . S
C1642 C1641 1.524 . S
C1642 C1643 1.415 . S
C1643 H1613 0.950 . S
C1643 C1638 1.363 . S
C1643 C1642 1.415 . S
H1644 C1641 0.999 . S
H1645 C1626 0.913 . S
H1646 C1664 0.951 . S
H1647 C1666 0.951 . S
H1648 C1668 0.950 . S
H1649 C1669 0.950 . S
H1650 C1671 0.950 . S
H1651 C1674 0.950 . S
H1652 C1675 0.950 . S
H1653 C1677 0.950 . S
H1654 C1678 0.950 . S
H1655 C1679 0.951 . S
H1656 C1681 0.951 . S
H1657 C1683 0.950 . S
H1658 C1684 0.950 . S
H1659 C1686 0.950 . S
H1660 C1689 0.950 . S
H1661 C1690 0.950 . S
H1662 C1692 0.950 . S
H1663 C1693 0.950 . S
C1664 H1646 0.951 . S
C1664 C1665 1.366 . S
C1664 C1666 1.388 . S
C1665 C1664 1.366 . S
C1665 C1669 1.385 . S
C1666 H1647 0.951 . S
C1666 C1664 1.388 . S
C1666 C1667 1.366 . S
C1667 C1666 1.366 . S
C1667 C1668 1.414 . S
C1667 C1670 1.499 . S
C1668 H1648 0.950 . S
C1668 C1667 1.414 . S
C1668 C1669 1.374 . S
C1669 H1649 0.950 . S
C1669 C1665 1.385 . S
C1669 C1668 1.374 . S
C1670 C1667 1.499 . S
C1670 C1671 1.373 . S
C1670 C1672 1.389 . S
C1671 H1650 0.950 . S
C1671 C1670 1.373 . S
C1671 C1687 1.377 . S
C1672 C1670 1.389 . S
C1672 C1673 1.524 . S
C1672 C1686 1.377 . S
C1673 C1672 1.524 . S
C1673 C1674 1.397 . S
C1673 C1678 1.363 . S
C1674 H1651 0.950 . S
C1674 C1673 1.397 . S
C1674 C1675 1.334 . S
C1675 H1652 0.950 . S
C1675 C1674 1.334 . S
C1675 C1676 1.287 . S
C1676 C1675 1.287 . S
C1676 C1677 1.524 . S
C1676 H1695 0.913 . S
C1677 H1653 0.950 . S
C1677 C1676 1.524 . S
C1677 C1678 1.415 . S
C1678 H1654 0.950 . S
C1678 C1673 1.363 . S
C1678 C1677 1.415 . S
C1679 H1655 0.951 . S
C1679 C1680 1.366 . S
C1679 C1681 1.388 . S
C1680 C1679 1.366 . S
C1680 C1684 1.385 . S
C1681 H1656 0.951 . S
C1681 C1679 1.388 . S
C1681 C1682 1.366 . S
C1682 C1681 1.366 . S
C1682 C1683 1.414 . S
C1682 C1685 1.499 . S
C1683 H1657 0.950 . S
C1683 C1682 1.414 . S
C1683 C1684 1.374 . S
C1684 H1658 0.950 . S
C1684 C1680 1.385 . S
C1684 C1683 1.374 . S
C1685 C1682 1.499 . S
C1685 C1686 1.373 . S
C1685 C1687 1.389 . S
C1686 H1659 0.950 . S
C1686 C1672 1.377 . S
C1686 C1685 1.373 . S
C1687 C1671 1.377 . S
C1687 C1685 1.389 . S
C1687 C1688 1.524 . S
C1688 C1687 1.524 . S
C1688 C1689 1.397 . S
C1688 C1693 1.363 . S
C1689 H1660 0.950 . S
C1689 C1688 1.397 . S
C1689 C1690 1.334 . S
C1690 H1661 0.950 . S
C1690 C1689 1.334 . S
C1690 C1691 1.287 . S
C1691 C1690 1.287 . S
C1691 C1692 1.524 . S
C1691 H1694 0.999 . S
C1692 H1662 0.950 . S
C1692 C1691 1.524 . S
C1692 C1693 1.415 . S
C1693 H1663 0.950 . S
C1693 C1688 1.363 . S
C1693 C1692 1.415 . S
H1694 C1691 0.999 . S
H1695 C1676 0.913 . S
H1696 C1714 0.951 . S
H1697 C1716 0.951 . S
H1698 C1718 0.950 1_565 S
H1699 C1719 0.950 . S
H1700 C1721 0.950 . S
H1701 C1724 0.950 1_565 S
H1702 C1725 0.950 . S
H1703 C1727 0.950 . S
H1704 C1728 0.950 . S
H1705 C1729 0.951 . S
H1706 C1731 0.951 . S
H1707 C1733 0.950 . S
H1708 C1734 0.950 . S
H1709 C1736 0.950 . S
H1710 C1739 0.950 . S
H1711 C1740 0.950 . S
H1712 C1742 0.950 . S
H1713 C1743 0.950 . S
C1714 H1696 0.951 . S
C1714 C1715 1.366 . S
C1714 C1716 1.388 . S
C1715 C1714 1.366 . S
C1715 C1719 1.385 . S
C1716 H1697 0.951 . S
C1716 C1714 1.388 . S
C1716 C1717 1.366 1_545 S
C1717 C1716 1.366 1_565 S
C1717 C1718 1.414 1_565 S
C1717 C1720 1.499 . S
C1718 H1698 0.950 1_545 S
C1718 C1717 1.414 1_545 S
C1718 C1719 1.374 . S
C1719 H1699 0.950 . S
C1719 C1715 1.385 . S
C1719 C1718 1.374 . S
C1720 C1717 1.499 . S
C1720 C1721 1.373 . S
C1720 C1722 1.389 . S
C1721 H1700 0.950 . S
C1721 C1720 1.373 . S
C1721 C1737 1.377 . S
C1722 C1720 1.389 . S
C1722 C1723 1.524 . S
C1722 C1736 1.377 . S
C1723 C1722 1.524 . S
C1723 C1724 1.397 1_565 S
C1723 C1728 1.363 . S
C1724 H1701 0.950 1_545 S
C1724 C1723 1.397 1_545 S
C1724 C1725 1.334 . S
C1725 H1702 0.950 . S
C1725 C1724 1.334 . S
C1725 C1726 1.287 . S
C1726 C1725 1.287 . S
C1726 C1727 1.524 . S
C1726 H1745 0.913 . S
C1727 H1703 0.950 . S
C1727 C1726 1.524 . S
C1727 C1728 1.415 1_545 S
C1728 H1704 0.950 . S
C1728 C1723 1.363 . S
C1728 C1727 1.415 1_565 S
C1729 H1705 0.951 . S
C1729 C1730 1.366 . S
C1729 C1731 1.388 . S
C1730 C1729 1.366 . S
C1730 C1734 1.385 . S
C1731 H1706 0.951 . S
C1731 C1729 1.388 . S
C1731 C1732 1.366 . S
C1732 C1731 1.366 . S
C1732 C1733 1.414 . S
C1732 C1735 1.499 . S
C1733 H1707 0.950 . S
C1733 C1732 1.414 . S
C1733 C1734 1.374 . S
C1734 H1708 0.950 . S
C1734 C1730 1.385 . S
C1734 C1733 1.374 . S
C1735 C1732 1.499 . S
C1735 C1736 1.373 . S
C1735 C1737 1.389 . S
C1736 H1709 0.950 . S
C1736 C1722 1.377 . S
C1736 C1735 1.373 . S
C1737 C1721 1.377 . S
C1737 C1735 1.389 . S
C1737 C1738 1.524 . S
C1738 C1737 1.524 . S
C1738 C1739 1.397 . S
C1738 C1743 1.363 . S
C1739 H1710 0.950 . S
C1739 C1738 1.397 . S
C1739 C1740 1.334 . S
C1740 H1711 0.950 . S
C1740 C1739 1.334 . S
C1740 C1741 1.287 . S
C1741 C1740 1.287 . S
C1741 C1742 1.524 . S
C1741 H1744 0.999 . S
C1742 H1712 0.950 . S
C1742 C1741 1.524 . S
C1742 C1743 1.415 . S
C1743 H1713 0.950 . S
C1743 C1738 1.363 . S
C1743 C1742 1.415 . S
H1744 C1741 0.999 . S
H1745 C1726 0.913 . S
H1746 C1764 0.951 . S
H1747 C1766 0.951 . S
H1748 C1768 0.950 . S
H1749 C1769 0.950 . S
H1750 C1771 0.950 . S
H1751 C1774 0.950 . S
H1752 C1775 0.950 . S
H1753 C1777 0.950 1_556 S
H1754 C1778 0.950 . S
H1755 C1779 0.951 . S
H1756 C1781 0.951 . S
H1757 C1783 0.950 . S
H1758 C1784 0.950 . S
H1759 C1786 0.950 . S
H1760 C1789 0.950 . S
H1761 C1790 0.950 . S
H1762 C1792 0.950 . S
H1763 C1793 0.950 . S
C1764 H1746 0.951 . S
C1764 C1765 1.366 . S
C1764 C1766 1.388 . S
C1765 C1764 1.366 . S
C1765 C1769 1.385 . S
C1766 H1747 0.951 . S
C1766 C1764 1.388 . S
C1766 C1767 1.366 . S
C1767 C1766 1.366 . S
C1767 C1768 1.414 . S
C1767 C1770 1.499 . S
C1768 H1748 0.950 . S
C1768 C1767 1.414 . S
C1768 C1769 1.374 . S
C1769 H1749 0.950 . S
C1769 C1765 1.385 . S
C1769 C1768 1.374 . S
C1770 C1767 1.499 . S
C1770 C1771 1.373 . S
C1770 C1772 1.389 . S
C1771 H1750 0.950 . S
C1771 C1770 1.373 . S
C1771 C1787 1.377 . S
C1772 C1770 1.389 . S
C1772 C1773 1.524 . S
C1772 C1786 1.377 . S
C1773 C1772 1.524 . S
C1773 C1774 1.397 . S
C1773 C1778 1.363 . S
C1774 H1751 0.950 . S
C1774 C1773 1.397 . S
C1774 C1775 1.334 . S
C1775 H1752 0.950 . S
C1775 C1774 1.334 . S
C1775 C1776 1.287 . S
C1776 C1775 1.287 . S
C1776 C1777 1.524 . S
C1776 H1795 0.913 . S
C1777 H1753 0.950 1_554 S
C1777 C1776 1.524 . S
C1777 C1778 1.415 . S
C1778 H1754 0.950 . S
C1778 C1773 1.363 . S
C1778 C1777 1.415 . S
C1779 H1755 0.951 . S
C1779 C1780 1.366 . S
C1779 C1781 1.388 . S
C1780 C1779 1.366 . S
C1780 C1784 1.385 . S
C1781 H1756 0.951 . S
C1781 C1779 1.388 . S
C1781 C1782 1.366 . S
C1782 C1781 1.366 . S
C1782 C1783 1.414 . S
C1782 C1785 1.499 . S
C1783 H1757 0.950 . S
C1783 C1782 1.414 . S
C1783 C1784 1.374 . S
C1784 H1758 0.950 . S
C1784 C1780 1.385 . S
C1784 C1783 1.374 . S
C1785 C1782 1.499 . S
C1785 C1786 1.373 . S
C1785 C1787 1.389 . S
C1786 H1759 0.950 . S
C1786 C1772 1.377 . S
C1786 C1785 1.373 . S
C1787 C1771 1.377 . S
C1787 C1785 1.389 . S
C1787 C1788 1.524 . S
C1788 C1787 1.524 . S
C1788 C1789 1.397 . S
C1788 C1793 1.363 . S
C1789 H1760 0.950 . S
C1789 C1788 1.397 . S
C1789 C1790 1.334 . S
C1790 H1761 0.950 . S
C1790 C1789 1.334 . S
C1790 C1791 1.287 . S
C1791 C1790 1.287 . S
C1791 C1792 1.524 . S
C1791 H1794 0.999 . S
C1792 H1762 0.950 . S
C1792 C1791 1.524 . S
C1792 C1793 1.415 . S
C1793 H1763 0.950 . S
C1793 C1788 1.363 . S
C1793 C1792 1.415 . S
H1794 C1791 0.999 . S
H1795 C1776 0.913 . S
H1796 C1814 0.951 . S
H1797 C1816 0.951 . S
H1798 C1818 0.950 . S
H1799 C1819 0.950 . S
H1800 C1821 0.950 . S
H1801 C1824 0.950 . S
H1802 C1825 0.950 . S
H1803 C1827 0.950 . S
H1804 C1828 0.950 . S
H1805 C1829 0.951 . S
H1806 C1831 0.951 . S
H1807 C1833 0.950 . S
H1808 C1834 0.950 . S
H1809 C1836 0.950 . S
H1810 C1839 0.950 . S
H1811 C1840 0.950 . S
H1812 C1842 0.950 . S
H1813 C1843 0.950 . S
C1814 H1796 0.951 . S
C1814 C1815 1.366 . S
C1814 C1816 1.388 . S
C1815 C1814 1.366 . S
C1815 C1819 1.385 . S
C1816 H1797 0.951 . S
C1816 C1814 1.388 . S
C1816 C1817 1.366 . S
C1817 C1816 1.366 . S
C1817 C1818 1.414 . S
C1817 C1820 1.499 . S
C1818 H1798 0.950 . S
C1818 C1817 1.414 . S
C1818 C1819 1.374 . S
C1819 H1799 0.950 . S
C1819 C1815 1.385 . S
C1819 C1818 1.374 . S
C1820 C1817 1.499 . S
C1820 C1821 1.373 . S
C1820 C1822 1.389 . S
C1821 H1800 0.950 . S
C1821 C1820 1.373 . S
C1821 C1837 1.377 . S
C1822 C1820 1.389 . S
C1822 C1823 1.524 . S
C1822 C1836 1.377 . S
C1823 C1822 1.524 . S
C1823 C1824 1.397 . S
C1823 C1828 1.363 . S
C1824 H1801 0.950 . S
C1824 C1823 1.397 . S
C1824 C1825 1.334 . S
C1825 H1802 0.950 . S
C1825 C1824 1.334 . S
C1825 C1826 1.287 . S
C1826 C1825 1.287 . S
C1826 C1827 1.524 . S
C1826 H1845 0.913 . S
C1827 H1803 0.950 . S
C1827 C1826 1.524 . S
C1827 C1828 1.415 . S
C1828 H1804 0.950 . S
C1828 C1823 1.363 . S
C1828 C1827 1.415 . S
C1829 H1805 0.951 . S
C1829 C1830 1.366 . S
C1829 C1831 1.388 . S
C1830 C1829 1.366 . S
C1830 C1834 1.385 . S
C1831 H1806 0.951 . S
C1831 C1829 1.388 . S
C1831 C1832 1.366 . S
C1832 C1831 1.366 . S
C1832 C1833 1.414 . S
C1832 C1835 1.499 . S
C1833 H1807 0.950 . S
C1833 C1832 1.414 . S
C1833 C1834 1.374 . S
C1834 H1808 0.950 . S
C1834 C1830 1.385 . S
C1834 C1833 1.374 . S
C1835 C1832 1.499 . S
C1835 C1836 1.373 . S
C1835 C1837 1.389 . S
C1836 H1809 0.950 . S
C1836 C1822 1.377 . S
C1836 C1835 1.373 . S
C1837 C1821 1.377 . S
C1837 C1835 1.389 . S
C1837 C1838 1.524 . S
C1838 C1837 1.524 . S
C1838 C1839 1.397 . S
C1838 C1843 1.363 . S
C1839 H1810 0.950 . S
C1839 C1838 1.397 . S
C1839 C1840 1.334 . S
C1840 H1811 0.950 . S
C1840 C1839 1.334 . S
C1840 C1841 1.287 . S
C1841 C1840 1.287 . S
C1841 C1842 1.524 . S
C1841 H1844 0.999 . S
C1842 H1812 0.950 . S
C1842 C1841 1.524 . S
C1842 C1843 1.415 . S
C1843 H1813 0.950 . S
C1843 C1838 1.363 . S
C1843 C1842 1.415 . S
H1844 C1841 0.999 . S
H1845 C1826 0.913 . S
H1846 C1864 0.951 . S
H1847 C1866 0.951 . S
H1848 C1868 0.950 . S
H1849 C1869 0.950 . S
H1850 C1871 0.950 . S
H1851 C1874 0.950 . S
H1852 C1875 0.950 . S
H1853 C1877 0.950 . S
H1854 C1878 0.950 . S
H1855 C1879 0.951 . S
H1856 C1881 0.951 . S
H1857 C1883 0.950 . S
H1858 C1884 0.950 . S
H1859 C1886 0.950 . S
H1860 C1889 0.950 . S
H1861 C1890 0.950 . S
H1862 C1892 0.950 . S
H1863 C1893 0.950 . S
C1864 H1846 0.951 . S
C1864 C1865 1.366 . S
C1864 C1866 1.388 . S
C1865 C1864 1.366 . S
C1865 C1869 1.385 . S
C1866 H1847 0.951 . S
C1866 C1864 1.388 . S
C1866 C1867 1.366 . S
C1867 C1866 1.366 . S
C1867 C1868 1.414 . S
C1867 C1870 1.499 . S
C1868 H1848 0.950 . S
C1868 C1867 1.414 . S
C1868 C1869 1.374 . S
C1869 H1849 0.950 . S
C1869 C1865 1.385 . S
C1869 C1868 1.374 . S
C1870 C1867 1.499 . S
C1870 C1871 1.373 . S
C1870 C1872 1.389 . S
C1871 H1850 0.950 . S
C1871 C1870 1.373 . S
C1871 C1887 1.377 . S
C1872 C1870 1.389 . S
C1872 C1873 1.524 . S
C1872 C1886 1.377 . S
C1873 C1872 1.524 . S
C1873 C1874 1.397 . S
C1873 C1878 1.363 . S
C1874 H1851 0.950 . S
C1874 C1873 1.397 . S
C1874 C1875 1.334 . S
C1875 H1852 0.950 . S
C1875 C1874 1.334 . S
C1875 C1876 1.287 . S
C1876 C1875 1.287 . S
C1876 C1877 1.524 . S
C1876 H1895 0.913 . S
C1877 H1853 0.950 . S
C1877 C1876 1.524 . S
C1877 C1878 1.415 . S
C1878 H1854 0.950 . S
C1878 C1873 1.363 . S
C1878 C1877 1.415 . S
C1879 H1855 0.951 . S
C1879 C1880 1.366 . S
C1879 C1881 1.388 . S
C1880 C1879 1.366 . S
C1880 C1884 1.385 . S
C1881 H1856 0.951 . S
C1881 C1879 1.388 . S
C1881 C1882 1.366 . S
C1882 C1881 1.366 . S
C1882 C1883 1.414 . S
C1882 C1885 1.499 . S
C1883 H1857 0.950 . S
C1883 C1882 1.414 . S
C1883 C1884 1.374 . S
C1884 H1858 0.950 . S
C1884 C1880 1.385 . S
C1884 C1883 1.374 . S
C1885 C1882 1.499 . S
C1885 C1886 1.373 . S
C1885 C1887 1.389 . S
C1886 H1859 0.950 . S
C1886 C1872 1.377 . S
C1886 C1885 1.373 . S
C1887 C1871 1.377 . S
C1887 C1885 1.389 . S
C1887 C1888 1.524 . S
C1888 C1887 1.524 . S
C1888 C1889 1.397 . S
C1888 C1893 1.363 . S
C1889 H1860 0.950 . S
C1889 C1888 1.397 . S
C1889 C1890 1.334 . S
C1890 H1861 0.950 . S
C1890 C1889 1.334 . S
C1890 C1891 1.287 . S
C1891 C1890 1.287 . S
C1891 C1892 1.524 . S
C1891 H1894 0.999 . S
C1892 H1862 0.950 . S
C1892 C1891 1.524 . S
C1892 C1893 1.415 . S
C1893 H1863 0.950 . S
C1893 C1888 1.363 . S
C1893 C1892 1.415 . S
H1894 C1891 0.999 . S
H1895 C1876 0.913 . S
H1896 C1914 0.951 . S
H1897 C1916 0.951 . S
H1898 C1918 0.950 . S
H1899 C1919 0.950 . S
H1900 C1921 0.950 . S
H1901 C1924 0.950 . S
H1902 C1925 0.950 . S
H1903 C1927 0.950 . S
H1904 C1928 0.950 . S
H1905 C1929 0.951 . S
H1906 C1931 0.951 . S
H1907 C1933 0.950 . S
H1908 C1934 0.950 . S
H1909 C1936 0.950 . S
H1910 C1939 0.950 . S
H1911 C1940 0.950 . S
H1912 C1942 0.950 . S
H1913 C1943 0.950 . S
C1914 H1896 0.951 . S
C1914 C1915 1.366 . S
C1914 C1916 1.388 . S
C1915 C1914 1.366 . S
C1915 C1919 1.385 . S
C1916 H1897 0.951 . S
C1916 C1914 1.388 . S
C1916 C1917 1.366 . S
C1917 C1916 1.366 . S
C1917 C1918 1.414 . S
C1917 C1920 1.499 . S
C1918 H1898 0.950 . S
C1918 C1917 1.414 . S
C1918 C1919 1.374 . S
C1919 H1899 0.950 . S
C1919 C1915 1.385 . S
C1919 C1918 1.374 . S
C1920 C1917 1.499 . S
C1920 C1921 1.373 . S
C1920 C1922 1.389 . S
C1921 H1900 0.950 . S
C1921 C1920 1.373 . S
C1921 C1937 1.377 . S
C1922 C1920 1.389 . S
C1922 C1923 1.524 . S
C1922 C1936 1.377 . S
C1923 C1922 1.524 . S
C1923 C1924 1.397 . S
C1923 C1928 1.363 . S
C1924 H1901 0.950 . S
C1924 C1923 1.397 . S
C1924 C1925 1.334 . S
C1925 H1902 0.950 . S
C1925 C1924 1.334 . S
C1925 C1926 1.287 . S
C1926 C1925 1.287 . S
C1926 C1927 1.524 . S
C1926 H1945 0.913 . S
C1927 H1903 0.950 . S
C1927 C1926 1.524 . S
C1927 C1928 1.415 . S
C1928 H1904 0.950 . S
C1928 C1923 1.363 . S
C1928 C1927 1.415 . S
C1929 H1905 0.951 . S
C1929 C1930 1.366 . S
C1929 C1931 1.388 . S
C1930 C1929 1.366 . S
C1930 C1934 1.385 . S
C1931 H1906 0.951 . S
C1931 C1929 1.388 . S
C1931 C1932 1.366 . S
C1932 C1931 1.366 . S
C1932 C1933 1.414 . S
C1932 C1935 1.499 . S
C1933 H1907 0.950 . S
C1933 C1932 1.414 . S
C1933 C1934 1.374 . S
C1934 H1908 0.950 . S
C1934 C1930 1.385 . S
C1934 C1933 1.374 . S
C1935 C1932 1.499 . S
C1935 C1936 1.373 . S
C1935 C1937 1.389 . S
C1936 H1909 0.950 . S
C1936 C1922 1.377 . S
C1936 C1935 1.373 . S
C1937 C1921 1.377 . S
C1937 C1935 1.389 . S
C1937 C1938 1.524 . S
C1938 C1937 1.524 . S
C1938 C1939 1.397 . S
C1938 C1943 1.363 . S
C1939 H1910 0.950 . S
C1939 C1938 1.397 . S
C1939 C1940 1.334 . S
C1940 H1911 0.950 . S
C1940 C1939 1.334 . S
C1940 C1941 1.287 . S
C1941 C1940 1.287 . S
C1941 C1942 1.524 . S
C1941 H1944 0.999 . S
C1942 H1912 0.950 . S
C1942 C1941 1.524 . S
C1942 C1943 1.415 . S
C1943 H1913 0.950 . S
C1943 C1938 1.363 . S
C1943 C1942 1.415 . S
H1944 C1941 0.999 . S
H1945 C1926 0.913 . S
H1946 C1964 0.951 . S
H1947 C1966 0.951 . S
H1948 C1968 0.950 . S
H1949 C1969 0.950 . S
H1950 C1971 0.950 . S
H1951 C1974 0.950 . S
H1952 C1975 0.950 . S
H1953 C1977 0.950 . S
H1954 C1978 0.950 . S
H1955 C1979 0.951 . S
H1956 C1981 0.951 . S
H1957 C1983 0.950 . S
H1958 C1984 0.950 . S
H1959 C1986 0.950 . S
H1960 C1989 0.950 . S
H1961 C1990 0.950 . S
H1962 C1992 0.950 . S
H1963 C1993 0.950 . S
C1964 H1946 0.951 . S
C1964 C1965 1.366 . S
C1964 C1966 1.388 . S
C1965 C1964 1.366 . S
C1965 C1969 1.385 . S
C1966 H1947 0.951 . S
C1966 C1964 1.388 . S
C1966 C1967 1.366 . S
C1967 C1966 1.366 . S
C1967 C1968 1.414 . S
C1967 C1970 1.499 . S
C1968 H1948 0.950 . S
C1968 C1967 1.414 . S
C1968 C1969 1.374 . S
C1969 H1949 0.950 . S
C1969 C1965 1.385 . S
C1969 C1968 1.374 . S
C1970 C1967 1.499 . S
C1970 C1971 1.373 . S
C1970 C1972 1.389 . S
C1971 H1950 0.950 . S
C1971 C1970 1.373 . S
C1971 C1987 1.377 . S
C1972 C1970 1.389 . S
C1972 C1973 1.524 . S
C1972 C1986 1.377 . S
C1973 C1972 1.524 . S
C1973 C1974 1.397 . S
C1973 C1978 1.363 . S
C1974 H1951 0.950 . S
C1974 C1973 1.397 . S
C1974 C1975 1.334 . S
C1975 H1952 0.950 . S
C1975 C1974 1.334 . S
C1975 C1976 1.287 . S
C1976 C1975 1.287 . S
C1976 C1977 1.524 . S
C1976 H1995 0.913 . S
C1977 H1953 0.950 . S
C1977 C1976 1.524 . S
C1977 C1978 1.415 . S
C1978 H1954 0.950 . S
C1978 C1973 1.363 . S
C1978 C1977 1.415 . S
C1979 H1955 0.951 . S
C1979 C1980 1.366 . S
C1979 C1981 1.388 . S
C1980 C1979 1.366 . S
C1980 C1984 1.385 . S
C1981 H1956 0.951 . S
C1981 C1979 1.388 . S
C1981 C1982 1.366 . S
C1982 C1981 1.366 . S
C1982 C1983 1.414 . S
C1982 C1985 1.499 . S
C1983 H1957 0.950 . S
C1983 C1982 1.414 . S
C1983 C1984 1.374 . S
C1984 H1958 0.950 . S
C1984 C1980 1.385 . S
C1984 C1983 1.374 . S
C1985 C1982 1.499 . S
C1985 C1986 1.373 . S
C1985 C1987 1.389 . S
C1986 H1959 0.950 . S
C1986 C1972 1.377 . S
C1986 C1985 1.373 . S
C1987 C1971 1.377 . S
C1987 C1985 1.389 . S
C1987 C1988 1.524 . S
C1988 C1987 1.524 . S
C1988 C1989 1.397 . S
C1988 C1993 1.363 . S
C1989 H1960 0.950 . S
C1989 C1988 1.397 . S
C1989 C1990 1.334 . S
C1990 H1961 0.950 . S
C1990 C1989 1.334 . S
C1990 C1991 1.287 . S
C1991 C1990 1.287 . S
C1991 C1992 1.524 . S
C1991 H1994 0.999 . S
C1992 H1962 0.950 . S
C1992 C1991 1.524 . S
C1992 C1993 1.415 . S
C1993 H1963 0.950 . S
C1993 C1988 1.363 . S
C1993 C1992 1.415 . S
H1994 C1991 0.999 . S
H1995 C1976 0.913 . S
H1996 C2014 0.951 . S
H1997 C2016 0.951 . S
H1998 C2018 0.950 . S
H1999 C2019 0.950 . S
H2000 C2021 0.950 . S
H2001 C2024 0.950 . S
H2002 C2025 0.950 . S
H2003 C2027 0.950 . S
H2004 C2028 0.950 . S
H2005 C2029 0.951 . S
H2006 C2031 0.951 . S
H2007 C2033 0.950 . S
H2008 C2034 0.950 . S
H2009 C2036 0.950 . S
H2010 C2039 0.950 . S
H2011 C2040 0.950 . S
H2012 C2042 0.950 . S
H2013 C2043 0.950 . S
C2014 H1996 0.951 . S
C2014 C2015 1.366 . S
C2014 C2016 1.388 . S
C2015 C2014 1.366 . S
C2015 C2019 1.385 . S
C2016 H1997 0.951 . S
C2016 C2014 1.388 . S
C2016 C2017 1.366 . S
C2017 C2016 1.366 . S
C2017 C2018 1.414 . S
C2017 C2020 1.499 . S
C2018 H1998 0.950 . S
C2018 C2017 1.414 . S
C2018 C2019 1.374 . S
C2019 H1999 0.950 . S
C2019 C2015 1.385 . S
C2019 C2018 1.374 . S
C2020 C2017 1.499 . S
C2020 C2021 1.373 . S
C2020 C2022 1.389 . S
C2021 H2000 0.950 . S
C2021 C2020 1.373 . S
C2021 C2037 1.377 . S
C2022 C2020 1.389 . S
C2022 C2023 1.524 . S
C2022 C2036 1.377 . S
C2023 C2022 1.524 . S
C2023 C2024 1.397 . S
C2023 C2028 1.363 . S
C2024 H2001 0.950 . S
C2024 C2023 1.397 . S
C2024 C2025 1.334 . S
C2025 H2002 0.950 . S
C2025 C2024 1.334 . S
C2025 C2026 1.287 . S
C2026 C2025 1.287 . S
C2026 C2027 1.524 . S
C2026 H2045 0.913 . S
C2027 H2003 0.950 . S
C2027 C2026 1.524 . S
C2027 C2028 1.415 . S
C2028 H2004 0.950 . S
C2028 C2023 1.363 . S
C2028 C2027 1.415 . S
C2029 H2005 0.951 . S
C2029 C2030 1.366 . S
C2029 C2031 1.388 . S
C2030 C2029 1.366 . S
C2030 C2034 1.385 . S
C2031 H2006 0.951 . S
C2031 C2029 1.388 . S
C2031 C2032 1.366 . S
C2032 C2031 1.366 . S
C2032 C2033 1.414 . S
C2032 C2035 1.499 . S
C2033 H2007 0.950 . S
C2033 C2032 1.414 . S
C2033 C2034 1.374 . S
C2034 H2008 0.950 . S
C2034 C2030 1.385 . S
C2034 C2033 1.374 . S
C2035 C2032 1.499 . S
C2035 C2036 1.373 . S
C2035 C2037 1.389 . S
C2036 H2009 0.950 . S
C2036 C2022 1.377 . S
C2036 C2035 1.373 . S
C2037 C2021 1.377 . S
C2037 C2035 1.389 . S
C2037 C2038 1.524 . S
C2038 C2037 1.524 . S
C2038 C2039 1.397 . S
C2038 C2043 1.363 . S
C2039 H2010 0.950 . S
C2039 C2038 1.397 . S
C2039 C2040 1.334 . S
C2040 H2011 0.950 . S
C2040 C2039 1.334 . S
C2040 C2041 1.287 . S
C2041 C2040 1.287 . S
C2041 C2042 1.524 . S
C2041 H2044 0.999 . S
C2042 H2012 0.950 . S
C2042 C2041 1.524 . S
C2042 C2043 1.415 . S
C2043 H2013 0.950 . S
C2043 C2038 1.363 . S
C2043 C2042 1.415 . S
H2044 C2041 0.999 . S
H2045 C2026 0.913 . S
H2046 C2064 0.951 . S
H2047 C2066 0.951 . S
H2048 C2068 0.950 . S
H2049 C2069 0.950 . S
H2050 C2071 0.950 . S
H2051 C2074 0.950 . S
H2052 C2075 0.950 . S
H2053 C2077 0.950 . S
H2054 C2078 0.950 . S
H2055 C2079 0.951 . S
H2056 C2081 0.951 . S
H2057 C2083 0.950 . S
H2058 C2084 0.950 . S
H2059 C2086 0.950 . S
H2060 C2089 0.950 . S
H2061 C2090 0.950 . S
H2062 C2092 0.950 . S
H2063 C2093 0.950 . S
C2064 H2046 0.951 . S
C2064 C2065 1.366 . S
C2064 C2066 1.388 . S
C2065 C2064 1.366 . S
C2065 C2069 1.385 . S
C2066 H2047 0.951 . S
C2066 C2064 1.388 . S
C2066 C2067 1.366 . S
C2067 C2066 1.366 . S
C2067 C2068 1.414 . S
C2067 C2070 1.499 . S
C2068 H2048 0.950 . S
C2068 C2067 1.414 . S
C2068 C2069 1.374 . S
C2069 H2049 0.950 . S
C2069 C2065 1.385 . S
C2069 C2068 1.374 . S
C2070 C2067 1.499 . S
C2070 C2071 1.373 . S
C2070 C2072 1.389 . S
C2071 H2050 0.950 . S
C2071 C2070 1.373 . S
C2071 C2087 1.377 . S
C2072 C2070 1.389 . S
C2072 C2073 1.524 . S
C2072 C2086 1.377 . S
C2073 C2072 1.524 . S
C2073 C2074 1.397 . S
C2073 C2078 1.363 . S
C2074 H2051 0.950 . S
C2074 C2073 1.397 . S
C2074 C2075 1.334 . S
C2075 H2052 0.950 . S
C2075 C2074 1.334 . S
C2075 C2076 1.287 . S
C2076 C2075 1.287 . S
C2076 C2077 1.524 . S
C2076 H2095 0.913 . S
C2077 H2053 0.950 . S
C2077 C2076 1.524 . S
C2077 C2078 1.415 . S
C2078 H2054 0.950 . S
C2078 C2073 1.363 . S
C2078 C2077 1.415 . S
C2079 H2055 0.951 . S
C2079 C2080 1.366 . S
C2079 C2081 1.388 . S
C2080 C2079 1.366 . S
C2080 C2084 1.385 . S
C2081 H2056 0.951 . S
C2081 C2079 1.388 . S
C2081 C2082 1.366 . S
C2082 C2081 1.366 . S
C2082 C2083 1.414 . S
C2082 C2085 1.499 . S
C2083 H2057 0.950 . S
C2083 C2082 1.414 . S
C2083 C2084 1.374 . S
C2084 H2058 0.950 . S
C2084 C2080 1.385 . S
C2084 C2083 1.374 . S
C2085 C2082 1.499 . S
C2085 C2086 1.373 . S
C2085 C2087 1.389 . S
C2086 H2059 0.950 . S
C2086 C2072 1.377 . S
C2086 C2085 1.373 . S
C2087 C2071 1.377 . S
C2087 C2085 1.389 . S
C2087 C2088 1.524 . S
C2088 C2087 1.524 . S
C2088 C2089 1.397 . S
C2088 C2093 1.363 . S
C2089 H2060 0.950 . S
C2089 C2088 1.397 . S
C2089 C2090 1.334 . S
C2090 H2061 0.950 . S
C2090 C2089 1.334 . S
C2090 C2091 1.287 . S
C2091 C2090 1.287 . S
C2091 C2092 1.524 . S
C2091 H2094 0.999 . S
C2092 H2062 0.950 . S
C2092 C2091 1.524 . S
C2092 C2093 1.415 . S
C2093 H2063 0.950 . S
C2093 C2088 1.363 . S
C2093 C2092 1.415 . S
H2094 C2091 0.999 . S
H2095 C2076 0.913 . S
H2096 C2114 0.951 . S
H2097 C2116 0.951 . S
H2098 C2118 0.950 . S
H2099 C2119 0.950 . S
H2100 C2121 0.950 . S
H2101 C2124 0.950 . S
H2102 C2125 0.950 . S
H2103 C2127 0.950 . S
H2104 C2128 0.950 . S
H2105 C2129 0.951 . S
H2106 C2131 0.951 . S
H2107 C2133 0.950 . S
H2108 C2134 0.950 . S
H2109 C2136 0.950 . S
H2110 C2139 0.950 . S
H2111 C2140 0.950 . S
H2112 C2142 0.950 . S
H2113 C2143 0.950 . S
C2114 H2096 0.951 . S
C2114 C2115 1.366 . S
C2114 C2116 1.388 . S
C2115 C2114 1.366 . S
C2115 C2119 1.385 . S
C2116 H2097 0.951 . S
C2116 C2114 1.388 . S
C2116 C2117 1.366 . S
C2117 C2116 1.366 . S
C2117 C2118 1.414 . S
C2117 C2120 1.499 . S
C2118 H2098 0.950 . S
C2118 C2117 1.414 . S
C2118 C2119 1.374 . S
C2119 H2099 0.950 . S
C2119 C2115 1.385 . S
C2119 C2118 1.374 . S
C2120 C2117 1.499 . S
C2120 C2121 1.373 . S
C2120 C2122 1.389 . S
C2121 H2100 0.950 . S
C2121 C2120 1.373 . S
C2121 C2137 1.377 . S
C2122 C2120 1.389 . S
C2122 C2123 1.524 . S
C2122 C2136 1.377 . S
C2123 C2122 1.524 . S
C2123 C2124 1.397 . S
C2123 C2128 1.363 . S
C2124 H2101 0.950 . S
C2124 C2123 1.397 . S
C2124 C2125 1.334 . S
C2125 H2102 0.950 . S
C2125 C2124 1.334 . S
C2125 C2126 1.287 . S
C2126 C2125 1.287 . S
C2126 C2127 1.524 . S
C2126 H2145 0.913 . S
C2127 H2103 0.950 . S
C2127 C2126 1.524 . S
C2127 C2128 1.415 . S
C2128 H2104 0.950 . S
C2128 C2123 1.363 . S
C2128 C2127 1.415 . S
C2129 H2105 0.951 . S
C2129 C2130 1.366 . S
C2129 C2131 1.388 . S
C2130 C2129 1.366 . S
C2130 C2134 1.385 . S
C2131 H2106 0.951 . S
C2131 C2129 1.388 . S
C2131 C2132 1.366 . S
C2132 C2131 1.366 . S
C2132 C2133 1.414 . S
C2132 C2135 1.499 . S
C2133 H2107 0.950 . S
C2133 C2132 1.414 . S
C2133 C2134 1.374 . S
C2134 H2108 0.950 . S
C2134 C2130 1.385 . S
C2134 C2133 1.374 . S
C2135 C2132 1.499 . S
C2135 C2136 1.373 . S
C2135 C2137 1.389 . S
C2136 H2109 0.950 . S
C2136 C2122 1.377 . S
C2136 C2135 1.373 . S
C2137 C2121 1.377 . S
C2137 C2135 1.389 . S
C2137 C2138 1.524 . S
C2138 C2137 1.524 . S
C2138 C2139 1.397 . S
C2138 C2143 1.363 . S
C2139 H2110 0.950 . S
C2139 C2138 1.397 . S
C2139 C2140 1.334 . S
C2140 H2111 0.950 . S
C2140 C2139 1.334 . S
C2140 C2141 1.287 . S
C2141 C2140 1.287 . S
C2141 C2142 1.524 . S
C2141 H2144 0.999 . S
C2142 H2112 0.950 . S
C2142 C2141 1.524 . S
C2142 C2143 1.415 . S
C2143 H2113 0.950 . S
C2143 C2138 1.363 . S
C2143 C2142 1.415 . S
H2144 C2141 0.999 . S
H2145 C2126 0.913 . S
H2146 C2164 0.951 . S
H2147 C2166 0.951 . S
H2148 C2168 0.950 . S
H2149 C2169 0.950 . S
H2150 C2171 0.950 . S
H2151 C2174 0.950 . S
H2152 C2175 0.950 . S
H2153 C2177 0.950 . S
H2154 C2178 0.950 . S
H2155 C2179 0.951 . S
H2156 C2181 0.951 . S
H2157 C2183 0.950 . S
H2158 C2184 0.950 . S
H2159 C2186 0.950 . S
H2160 C2189 0.950 . S
H2161 C2190 0.950 . S
H2162 C2192 0.950 . S
H2163 C2193 0.950 . S
C2164 H2146 0.951 . S
C2164 C2165 1.366 . S
C2164 C2166 1.388 . S
C2165 C2164 1.366 . S
C2165 C2169 1.385 . S
C2166 H2147 0.951 . S
C2166 C2164 1.388 . S
C2166 C2167 1.366 . S
C2167 C2166 1.366 . S
C2167 C2168 1.414 . S
C2167 C2170 1.499 . S
C2168 H2148 0.950 . S
C2168 C2167 1.414 . S
C2168 C2169 1.374 . S
C2169 H2149 0.950 . S
C2169 C2165 1.385 . S
C2169 C2168 1.374 . S
C2170 C2167 1.499 . S
C2170 C2171 1.373 . S
C2170 C2172 1.389 . S
C2171 H2150 0.950 . S
C2171 C2170 1.373 . S
C2171 C2187 1.377 . S
C2172 C2170 1.389 . S
C2172 C2173 1.524 . S
C2172 C2186 1.377 . S
C2173 C2172 1.524 . S
C2173 C2174 1.397 . S
C2173 C2178 1.363 . S
C2174 H2151 0.950 . S
C2174 C2173 1.397 . S
C2174 C2175 1.334 . S
C2175 H2152 0.950 . S
C2175 C2174 1.334 . S
C2175 C2176 1.287 . S
C2176 C2175 1.287 . S
C2176 C2177 1.524 . S
C2176 H2195 0.913 . S
C2177 H2153 0.950 . S
C2177 C2176 1.524 . S
C2177 C2178 1.415 . S
C2178 H2154 0.950 . S
C2178 C2173 1.363 . S
C2178 C2177 1.415 . S
C2179 H2155 0.951 . S
C2179 C2180 1.366 . S
C2179 C2181 1.388 . S
C2180 C2179 1.366 . S
C2180 C2184 1.385 . S
C2181 H2156 0.951 . S
C2181 C2179 1.388 . S
C2181 C2182 1.366 . S
C2182 C2181 1.366 . S
C2182 C2183 1.414 . S
C2182 C2185 1.499 . S
C2183 H2157 0.950 . S
C2183 C2182 1.414 . S
C2183 C2184 1.374 . S
C2184 H2158 0.950 . S
C2184 C2180 1.385 . S
C2184 C2183 1.374 . S
C2185 C2182 1.499 . S
C2185 C2186 1.373 . S
C2185 C2187 1.389 . S
C2186 H2159 0.950 . S
C2186 C2172 1.377 . S
C2186 C2185 1.373 . S
C2187 C2171 1.377 . S
C2187 C2185 1.389 . S
C2187 C2188 1.524 . S
C2188 C2187 1.524 . S
C2188 C2189 1.397 . S
C2188 C2193 1.363 . S
C2189 H2160 0.950 . S
C2189 C2188 1.397 . S
C2189 C2190 1.334 . S
C2190 H2161 0.950 . S
C2190 C2189 1.334 . S
C2190 C2191 1.287 . S
C2191 C2190 1.287 . S
C2191 C2192 1.524 . S
C2191 H2194 0.999 . S
C2192 H2162 0.950 . S
C2192 C2191 1.524 . S
C2192 C2193 1.415 . S
C2193 H2163 0.950 . S
C2193 C2188 1.363 . S
C2193 C2192 1.415 . S
H2194 C2191 0.999 . S
H2195 C2176 0.913 . S
H2196 C2214 0.951 . S
H2197 C2216 0.951 . S
H2198 C2218 0.950 . S
H2199 C2219 0.950 . S
H2200 C2221 0.950 . S
H2201 C2224 0.950 . S
H2202 C2225 0.950 . S
H2203 C2227 0.950 . S
H2204 C2228 0.950 . S
H2205 C2229 0.951 . S
H2206 C2231 0.951 . S
H2207 C2233 0.950 . S
H2208 C2234 0.950 . S
H2209 C2236 0.950 . S
H2210 C2239 0.950 . S
H2211 C2240 0.950 . S
H2212 C2242 0.950 . S
H2213 C2243 0.950 . S
C2214 H2196 0.951 . S
C2214 C2215 1.366 . S
C2214 C2216 1.388 . S
C2215 C2214 1.366 . S
C2215 C2219 1.385 . S
C2216 H2197 0.951 . S
C2216 C2214 1.388 . S
C2216 C2217 1.366 . S
C2217 C2216 1.366 . S
C2217 C2218 1.414 . S
C2217 C2220 1.499 . S
C2218 H2198 0.950 . S
C2218 C2217 1.414 . S
C2218 C2219 1.374 . S
C2219 H2199 0.950 . S
C2219 C2215 1.385 . S
C2219 C2218 1.374 . S
C2220 C2217 1.499 . S
C2220 C2221 1.373 . S
C2220 C2222 1.389 . S
C2221 H2200 0.950 . S
C2221 C2220 1.373 . S
C2221 C2237 1.377 . S
C2222 C2220 1.389 . S
C2222 C2223 1.524 . S
C2222 C2236 1.377 . S
C2223 C2222 1.524 . S
C2223 C2224 1.397 . S
C2223 C2228 1.363 . S
C2224 H2201 0.950 . S
C2224 C2223 1.397 . S
C2224 C2225 1.334 . S
C2225 H2202 0.950 . S
C2225 C2224 1.334 . S
C2225 C2226 1.287 . S
C2226 C2225 1.287 . S
C2226 C2227 1.524 . S
C2226 H2245 0.913 . S
C2227 H2203 0.950 . S
C2227 C2226 1.524 . S
C2227 C2228 1.415 . S
C2228 H2204 0.950 . S
C2228 C2223 1.363 . S
C2228 C2227 1.415 . S
C2229 H2205 0.951 . S
C2229 C2230 1.366 . S
C2229 C2231 1.388 . S
C2230 C2229 1.366 . S
C2230 C2234 1.385 . S
C2231 H2206 0.951 . S
C2231 C2229 1.388 . S
C2231 C2232 1.366 . S
C2232 C2231 1.366 . S
C2232 C2233 1.414 . S
C2232 C2235 1.499 . S
C2233 H2207 0.950 . S
C2233 C2232 1.414 . S
C2233 C2234 1.374 . S
C2234 H2208 0.950 . S
C2234 C2230 1.385 . S
C2234 C2233 1.374 . S
C2235 C2232 1.499 . S
C2235 C2236 1.373 . S
C2235 C2237 1.389 . S
C2236 H2209 0.950 . S
C2236 C2222 1.377 . S
C2236 C2235 1.373 . S
C2237 C2221 1.377 . S
C2237 C2235 1.389 . S
C2237 C2238 1.524 . S
C2238 C2237 1.524 . S
C2238 C2239 1.397 . S
C2238 C2243 1.363 . S
C2239 H2210 0.950 . S
C2239 C2238 1.397 . S
C2239 C2240 1.334 . S
C2240 H2211 0.950 . S
C2240 C2239 1.334 . S
C2240 C2241 1.287 . S
C2241 C2240 1.287 . S
C2241 C2242 1.524 . S
C2241 H2244 0.999 . S
C2242 H2212 0.950 . S
C2242 C2241 1.524 . S
C2242 C2243 1.415 . S
C2243 H2213 0.950 . S
C2243 C2238 1.363 . S
C2243 C2242 1.415 . S
H2244 C2241 0.999 . S
H2245 C2226 0.913 . S
H2246 C2264 0.951 . S
H2247 C2266 0.951 . S
H2248 C2268 0.950 . S
H2249 C2269 0.950 . S
H2250 C2271 0.950 . S
H2251 C2274 0.950 . S
H2252 C2275 0.950 . S
H2253 C2277 0.950 . S
H2254 C2278 0.950 . S
H2255 C2279 0.951 . S
H2256 C2281 0.951 . S
H2257 C2283 0.950 . S
H2258 C2284 0.950 . S
H2259 C2286 0.950 . S
H2260 C2289 0.950 . S
H2261 C2290 0.950 . S
H2262 C2292 0.950 . S
H2263 C2293 0.950 . S
C2264 H2246 0.951 . S
C2264 C2265 1.366 . S
C2264 C2266 1.388 . S
C2265 C2264 1.366 . S
C2265 C2269 1.385 . S
C2266 H2247 0.951 . S
C2266 C2264 1.388 . S
C2266 C2267 1.366 . S
C2267 C2266 1.366 . S
C2267 C2268 1.414 . S
C2267 C2270 1.499 . S
C2268 H2248 0.950 . S
C2268 C2267 1.414 . S
C2268 C2269 1.374 . S
C2269 H2249 0.950 . S
C2269 C2265 1.385 . S
C2269 C2268 1.374 . S
C2270 C2267 1.499 . S
C2270 C2271 1.373 . S
C2270 C2272 1.389 . S
C2271 H2250 0.950 . S
C2271 C2270 1.373 . S
C2271 C2287 1.377 . S
C2272 C2270 1.389 . S
C2272 C2273 1.524 . S
C2272 C2286 1.377 . S
C2273 C2272 1.524 . S
C2273 C2274 1.397 . S
C2273 C2278 1.363 . S
C2274 H2251 0.950 . S
C2274 C2273 1.397 . S
C2274 C2275 1.334 . S
C2275 H2252 0.950 . S
C2275 C2274 1.334 . S
C2275 C2276 1.287 . S
C2276 C2275 1.287 . S
C2276 C2277 1.524 . S
C2276 H2295 0.913 . S
C2277 H2253 0.950 . S
C2277 C2276 1.524 . S
C2277 C2278 1.415 . S
C2278 H2254 0.950 . S
C2278 C2273 1.363 . S
C2278 C2277 1.415 . S
C2279 H2255 0.951 . S
C2279 C2280 1.366 . S
C2279 C2281 1.388 . S
C2280 C2279 1.366 . S
C2280 C2284 1.385 . S
C2281 H2256 0.951 . S
C2281 C2279 1.388 . S
C2281 C2282 1.366 . S
C2282 C2281 1.366 . S
C2282 C2283 1.414 . S
C2282 C2285 1.499 . S
C2283 H2257 0.950 . S
C2283 C2282 1.414 . S
C2283 C2284 1.374 . S
C2284 H2258 0.950 . S
C2284 C2280 1.385 . S
C2284 C2283 1.374 . S
C2285 C2282 1.499 . S
C2285 C2286 1.373 . S
C2285 C2287 1.389 . S
C2286 H2259 0.950 . S
C2286 C2272 1.377 . S
C2286 C2285 1.373 . S
C2287 C2271 1.377 . S
C2287 C2285 1.389 . S
C2287 C2288 1.524 . S
C2288 C2287 1.524 . S
C2288 C2289 1.397 . S
C2288 C2293 1.363 . S
C2289 H2260 0.950 . S
C2289 C2288 1.397 . S
C2289 C2290 1.334 . S
C2290 H2261 0.950 . S
C2290 C2289 1.334 . S
C2290 C2291 1.287 . S
C2291 C2290 1.287 . S
C2291 C2292 1.524 . S
C2291 H2294 0.999 . S
C2292 H2262 0.950 . S
C2292 C2291 1.524 . S
C2292 C2293 1.415 . S
C2293 H2263 0.950 . S
C2293 C2288 1.363 . S
C2293 C2292 1.415 . S
H2294 C2291 0.999 . S
H2295 C2276 0.913 . S
H2296 C2314 0.951 . S
H2297 C2316 0.951 . S
H2298 C2318 0.950 . S
H2299 C2319 0.950 . S
H2300 C2321 0.950 . S
H2301 C2324 0.950 . S
H2302 C2325 0.950 . S
H2303 C2327 0.950 . S
H2304 C2328 0.950 . S
H2305 C2329 0.951 . S
H2306 C2331 0.951 . S
H2307 C2333 0.950 . S
H2308 C2334 0.950 . S
H2309 C2336 0.950 . S
H2310 C2339 0.950 . S
H2311 C2340 0.950 . S
H2312 C2342 0.950 . S
H2313 C2343 0.950 . S
C2314 H2296 0.951 . S
C2314 C2315 1.366 . S
C2314 C2316 1.388 . S
C2315 C2314 1.366 . S
C2315 C2319 1.385 . S
C2316 H2297 0.951 . S
C2316 C2314 1.388 . S
C2316 C2317 1.366 . S
C2317 C2316 1.366 . S
C2317 C2318 1.414 . S
C2317 C2320 1.499 . S
C2318 H2298 0.950 . S
C2318 C2317 1.414 . S
C2318 C2319 1.374 . S
C2319 H2299 0.950 . S
C2319 C2315 1.385 . S
C2319 C2318 1.374 . S
C2320 C2317 1.499 . S
C2320 C2321 1.373 . S
C2320 C2322 1.389 . S
C2321 H2300 0.950 . S
C2321 C2320 1.373 . S
C2321 C2337 1.377 . S
C2322 C2320 1.389 . S
C2322 C2323 1.524 . S
C2322 C2336 1.377 . S
C2323 C2322 1.524 . S
C2323 C2324 1.397 . S
C2323 C2328 1.363 . S
C2324 H2301 0.950 . S
C2324 C2323 1.397 . S
C2324 C2325 1.334 . S
C2325 H2302 0.950 . S
C2325 C2324 1.334 . S
C2325 C2326 1.287 . S
C2326 C2325 1.287 . S
C2326 C2327 1.524 . S
C2326 H2345 0.913 . S
C2327 H2303 0.950 . S
C2327 C2326 1.524 . S
C2327 C2328 1.415 . S
C2328 H2304 0.950 . S
C2328 C2323 1.363 . S
C2328 C2327 1.415 . S
C2329 H2305 0.951 . S
C2329 C2330 1.366 . S
C2329 C2331 1.388 . S
C2330 C2329 1.366 . S
C2330 C2334 1.385 . S
C2331 H2306 0.951 . S
C2331 C2329 1.388 . S
C2331 C2332 1.366 . S
C2332 C2331 1.366 . S
C2332 C2333 1.414 . S
C2332 C2335 1.499 . S
C2333 H2307 0.950 . S
C2333 C2332 1.414 . S
C2333 C2334 1.374 . S
C2334 H2308 0.950 . S
C2334 C2330 1.385 . S
C2334 C2333 1.374 . S
C2335 C2332 1.499 . S
C2335 C2336 1.373 . S
C2335 C2337 1.389 . S
C2336 H2309 0.950 . S
C2336 C2322 1.377 . S
C2336 C2335 1.373 . S
C2337 C2321 1.377 . S
C2337 C2335 1.389 . S
C2337 C2338 1.524 . S
C2338 C2337 1.524 . S
C2338 C2339 1.397 . S
C2338 C2343 1.363 . S
C2339 H2310 0.950 . S
C2339 C2338 1.397 . S
C2339 C2340 1.334 . S
C2340 H2311 0.950 . S
C2340 C2339 1.334 . S
C2340 C2341 1.287 . S
C2341 C2340 1.287 . S
C2341 C2342 1.524 . S
C2341 H2344 0.999 . S
C2342 H2312 0.950 . S
C2342 C2341 1.524 . S
C2342 C2343 1.415 . S
C2343 H2313 0.950 . S
C2343 C2338 1.363 . S
C2343 C2342 1.415 . S
H2344 C2341 0.999 . S
H2345 C2326 0.913 . S
H2346 C2364 0.951 . S
H2347 C2366 0.951 . S
H2348 C2368 0.950 . S
H2349 C2369 0.950 . S
H2350 C2371 0.950 . S
H2351 C2374 0.950 . S
H2352 C2375 0.950 . S
H2353 C2377 0.950 . S
H2354 C2378 0.950 . S
H2355 C2379 0.951 . S
H2356 C2381 0.951 . S
H2357 C2383 0.950 . S
H2358 C2384 0.950 . S
H2359 C2386 0.950 . S
H2360 C2389 0.950 . S
H2361 C2390 0.950 . S
H2362 C2392 0.950 . S
H2363 C2393 0.950 . S
C2364 H2346 0.951 . S
C2364 C2365 1.366 . S
C2364 C2366 1.388 . S
C2365 C2364 1.366 . S
C2365 C2369 1.385 . S
C2366 H2347 0.951 . S
C2366 C2364 1.388 . S
C2366 C2367 1.366 . S
C2367 C2366 1.366 . S
C2367 C2368 1.414 . S
C2367 C2370 1.499 . S
C2368 H2348 0.950 . S
C2368 C2367 1.414 . S
C2368 C2369 1.374 . S
C2369 H2349 0.950 . S
C2369 C2365 1.385 . S
C2369 C2368 1.374 . S
C2370 C2367 1.499 . S
C2370 C2371 1.373 . S
C2370 C2372 1.389 . S
C2371 H2350 0.950 . S
C2371 C2370 1.373 . S
C2371 C2387 1.377 . S
C2372 C2370 1.389 . S
C2372 C2373 1.524 . S
C2372 C2386 1.377 . S
C2373 C2372 1.524 . S
C2373 C2374 1.397 . S
C2373 C2378 1.363 . S
C2374 H2351 0.950 . S
C2374 C2373 1.397 . S
C2374 C2375 1.334 . S
C2375 H2352 0.950 . S
C2375 C2374 1.334 . S
C2375 C2376 1.287 . S
C2376 C2375 1.287 . S
C2376 C2377 1.524 . S
C2376 H2395 0.913 . S
C2377 H2353 0.950 . S
C2377 C2376 1.524 . S
C2377 C2378 1.415 . S
C2378 H2354 0.950 . S
C2378 C2373 1.363 . S
C2378 C2377 1.415 . S
C2379 H2355 0.951 . S
C2379 C2380 1.366 . S
C2379 C2381 1.388 . S
C2380 C2379 1.366 . S
C2380 C2384 1.385 . S
C2381 H2356 0.951 . S
C2381 C2379 1.388 . S
C2381 C2382 1.366 . S
C2382 C2381 1.366 . S
C2382 C2383 1.414 . S
C2382 C2385 1.499 . S
C2383 H2357 0.950 . S
C2383 C2382 1.414 . S
C2383 C2384 1.374 . S
C2384 H2358 0.950 . S
C2384 C2380 1.385 . S
C2384 C2383 1.374 . S
C2385 C2382 1.499 . S
C2385 C2386 1.373 . S
C2385 C2387 1.389 . S
C2386 H2359 0.950 . S
C2386 C2372 1.377 . S
C2386 C2385 1.373 . S
C2387 C2371 1.377 . S
C2387 C2385 1.389 . S
C2387 C2388 1.524 . S
C2388 C2387 1.524 . S
C2388 C2389 1.397 . S
C2388 C2393 1.363 . S
C2389 H2360 0.950 . S
C2389 C2388 1.397 . S
C2389 C2390 1.334 . S
C2390 H2361 0.950 . S
C2390 C2389 1.334 . S
C2390 C2391 1.287 . S
C2391 C2390 1.287 . S
C2391 C2392 1.524 . S
C2391 H2394 0.999 . S
C2392 H2362 0.950 . S
C2392 C2391 1.524 . S
C2392 C2393 1.415 . S
C2393 H2363 0.950 . S
C2393 C2388 1.363 . S
C2393 C2392 1.415 . S
H2394 C2391 0.999 . S
H2395 C2376 0.913 . S
H2396 C2414 0.951 . S
H2397 C2416 0.951 . S
H2398 C2418 0.950 . S
H2399 C2419 0.950 . S
H2400 C2421 0.950 . S
H2401 C2424 0.950 . S
H2402 C2425 0.950 . S
H2403 C2427 0.950 . S
H2404 C2428 0.950 . S
H2405 C2429 0.951 . S
H2406 C2431 0.951 . S
H2407 C2433 0.950 . S
H2408 C2434 0.950 . S
H2409 C2436 0.950 . S
H2410 C2439 0.950 . S
H2411 C2440 0.950 . S
H2412 C2442 0.950 . S
H2413 C2443 0.950 . S
C2414 H2396 0.951 . S
C2414 C2415 1.366 . S
C2414 C2416 1.388 . S
C2415 C2414 1.366 . S
C2415 C2419 1.385 . S
C2416 H2397 0.951 . S
C2416 C2414 1.388 . S
C2416 C2417 1.366 . S
C2417 C2416 1.366 . S
C2417 C2418 1.414 . S
C2417 C2420 1.499 . S
C2418 H2398 0.950 . S
C2418 C2417 1.414 . S
C2418 C2419 1.374 . S
C2419 H2399 0.950 . S
C2419 C2415 1.385 . S
C2419 C2418 1.374 . S
C2420 C2417 1.499 . S
C2420 C2421 1.373 . S
C2420 C2422 1.389 . S
C2421 H2400 0.950 . S
C2421 C2420 1.373 . S
C2421 C2437 1.377 . S
C2422 C2420 1.389 . S
C2422 C2423 1.524 . S
C2422 C2436 1.377 . S
C2423 C2422 1.524 . S
C2423 C2424 1.397 . S
C2423 C2428 1.363 . S
C2424 H2401 0.950 . S
C2424 C2423 1.397 . S
C2424 C2425 1.334 . S
C2425 H2402 0.950 . S
C2425 C2424 1.334 . S
C2425 C2426 1.287 . S
C2426 C2425 1.287 . S
C2426 C2427 1.524 . S
C2426 H2445 0.913 . S
C2427 H2403 0.950 . S
C2427 C2426 1.524 . S
C2427 C2428 1.415 . S
C2428 H2404 0.950 . S
C2428 C2423 1.363 . S
C2428 C2427 1.415 . S
C2429 H2405 0.951 . S
C2429 C2430 1.366 . S
C2429 C2431 1.388 . S
C2430 C2429 1.366 . S
C2430 C2434 1.385 . S
C2431 H2406 0.951 . S
C2431 C2429 1.388 . S
C2431 C2432 1.366 . S
C2432 C2431 1.366 . S
C2432 C2433 1.414 . S
C2432 C2435 1.499 . S
C2433 H2407 0.950 . S
C2433 C2432 1.414 . S
C2433 C2434 1.374 . S
C2434 H2408 0.950 . S
C2434 C2430 1.385 . S
C2434 C2433 1.374 . S
C2435 C2432 1.499 . S
C2435 C2436 1.373 . S
C2435 C2437 1.389 . S
C2436 H2409 0.950 . S
C2436 C2422 1.377 . S
C2436 C2435 1.373 . S
C2437 C2421 1.377 . S
C2437 C2435 1.389 . S
C2437 C2438 1.524 . S
C2438 C2437 1.524 . S
C2438 C2439 1.397 . S
C2438 C2443 1.363 . S
C2439 H2410 0.950 . S
C2439 C2438 1.397 . S
C2439 C2440 1.334 . S
C2440 H2411 0.950 . S
C2440 C2439 1.334 . S
C2440 C2441 1.287 . S
C2441 C2440 1.287 . S
C2441 C2442 1.524 . S
C2441 H2444 0.999 . S
C2442 H2412 0.950 . S
C2442 C2441 1.524 . S
C2442 C2443 1.415 . S
C2443 H2413 0.950 . S
C2443 C2438 1.363 . S
C2443 C2442 1.415 . S
H2444 C2441 0.999 . S
H2445 C2426 0.913 . S
H2446 C2464 0.951 . S
H2447 C2466 0.951 . S
H2448 C2468 0.950 . S
H2449 C2469 0.950 . S
H2450 C2471 0.950 . S
H2451 C2474 0.950 . S
H2452 C2475 0.950 . S
H2453 C2477 0.950 . S
H2454 C2478 0.950 . S
H2455 C2479 0.951 . S
H2456 C2481 0.951 . S
H2457 C2483 0.950 . S
H2458 C2484 0.950 . S
H2459 C2486 0.950 . S
H2460 C2489 0.950 . S
H2461 C2490 0.950 . S
H2462 C2492 0.950 . S
H2463 C2493 0.950 . S
C2464 H2446 0.951 . S
C2464 C2465 1.366 . S
C2464 C2466 1.388 . S
C2465 C2464 1.366 . S
C2465 C2469 1.385 . S
C2466 H2447 0.951 . S
C2466 C2464 1.388 . S
C2466 C2467 1.366 . S
C2467 C2466 1.366 . S
C2467 C2468 1.414 . S
C2467 C2470 1.499 . S
C2468 H2448 0.950 . S
C2468 C2467 1.414 . S
C2468 C2469 1.374 . S
C2469 H2449 0.950 . S
C2469 C2465 1.385 . S
C2469 C2468 1.374 . S
C2470 C2467 1.499 . S
C2470 C2471 1.373 . S
C2470 C2472 1.389 . S
C2471 H2450 0.950 . S
C2471 C2470 1.373 . S
C2471 C2487 1.377 . S
C2472 C2470 1.389 . S
C2472 C2473 1.524 . S
C2472 C2486 1.377 . S
C2473 C2472 1.524 . S
C2473 C2474 1.397 . S
C2473 C2478 1.363 . S
C2474 H2451 0.950 . S
C2474 C2473 1.397 . S
C2474 C2475 1.334 . S
C2475 H2452 0.950 . S
C2475 C2474 1.334 . S
C2475 C2476 1.287 . S
C2476 C2475 1.287 . S
C2476 C2477 1.524 . S
C2476 H2495 0.913 . S
C2477 H2453 0.950 . S
C2477 C2476 1.524 . S
C2477 C2478 1.415 . S
C2478 H2454 0.950 . S
C2478 C2473 1.363 . S
C2478 C2477 1.415 . S
C2479 H2455 0.951 . S
C2479 C2480 1.366 . S
C2479 C2481 1.388 . S
C2480 C2479 1.366 . S
C2480 C2484 1.385 . S
C2481 H2456 0.951 . S
C2481 C2479 1.388 . S
C2481 C2482 1.366 . S
C2482 C2481 1.366 . S
C2482 C2483 1.414 . S
C2482 C2485 1.499 . S
C2483 H2457 0.950 . S
C2483 C2482 1.414 . S
C2483 C2484 1.374 . S
C2484 H2458 0.950 . S
C2484 C2480 1.385 . S
C2484 C2483 1.374 . S
C2485 C2482 1.499 . S
C2485 C2486 1.373 . S
C2485 C2487 1.389 . S
C2486 H2459 0.950 . S
C2486 C2472 1.377 . S
C2486 C2485 1.373 . S
C2487 C2471 1.377 . S
C2487 C2485 1.389 . S
C2487 C2488 1.524 . S
C2488 C2487 1.524 . S
C2488 C2489 1.397 . S
C2488 C2493 1.363 . S
C2489 H2460 0.950 . S
C2489 C2488 1.397 . S
C2489 C2490 1.334 . S
C2490 H2461 0.950 . S
C2490 C2489 1.334 . S
C2490 C2491 1.287 . S
C2491 C2490 1.287 . S
C2491 C2492 1.524 . S
C2491 H2494 0.999 . S
C2492 H2462 0.950 . S
C2492 C2491 1.524 . S
C2492 C2493 1.415 . S
C2493 H2463 0.950 . S
C2493 C2488 1.363 . S
C2493 C2492 1.415 . S
H2494 C2491 0.999 . S
H2495 C2476 0.913 . S
H2496 C2514 0.951 . S
H2497 C2516 0.951 . S
H2498 C2518 0.950 . S
H2499 C2519 0.950 . S
H2500 C2521 0.950 . S
H2501 C2524 0.950 . S
H2502 C2525 0.950 . S
H2503 C2527 0.950 . S
H2504 C2528 0.950 . S
H2505 C2529 0.951 . S
H2506 C2531 0.951 . S
H2507 C2533 0.950 . S
H2508 C2534 0.950 . S
H2509 C2536 0.950 . S
H2510 C2539 0.950 . S
H2511 C2540 0.950 . S
H2512 C2542 0.950 . S
H2513 C2543 0.950 . S
C2514 H2496 0.951 . S
C2514 C2515 1.366 . S
C2514 C2516 1.388 . S
C2515 C2514 1.366 . S
C2515 C2519 1.385 . S
C2516 H2497 0.951 . S
C2516 C2514 1.388 . S
C2516 C2517 1.366 . S
C2517 C2516 1.366 . S
C2517 C2518 1.414 . S
C2517 C2520 1.499 . S
C2518 H2498 0.950 . S
C2518 C2517 1.414 . S
C2518 C2519 1.374 . S
C2519 H2499 0.950 . S
C2519 C2515 1.385 . S
C2519 C2518 1.374 . S
C2520 C2517 1.499 . S
C2520 C2521 1.373 . S
C2520 C2522 1.389 . S
C2521 H2500 0.950 . S
C2521 C2520 1.373 . S
C2521 C2537 1.377 . S
C2522 C2520 1.389 . S
C2522 C2523 1.524 . S
C2522 C2536 1.377 . S
C2523 C2522 1.524 . S
C2523 C2524 1.397 . S
C2523 C2528 1.363 . S
C2524 H2501 0.950 . S
C2524 C2523 1.397 . S
C2524 C2525 1.334 . S
C2525 H2502 0.950 . S
C2525 C2524 1.334 . S
C2525 C2526 1.287 . S
C2526 C2525 1.287 . S
C2526 C2527 1.524 . S
C2526 H2545 0.913 . S
C2527 H2503 0.950 . S
C2527 C2526 1.524 . S
C2527 C2528 1.415 . S
C2528 H2504 0.950 . S
C2528 C2523 1.363 . S
C2528 C2527 1.415 . S
C2529 H2505 0.951 . S
C2529 C2530 1.366 . S
C2529 C2531 1.388 . S
C2530 C2529 1.366 . S
C2530 C2534 1.385 . S
C2531 H2506 0.951 . S
C2531 C2529 1.388 . S
C2531 C2532 1.366 . S
C2532 C2531 1.366 . S
C2532 C2533 1.414 . S
C2532 C2535 1.499 . S
C2533 H2507 0.950 . S
C2533 C2532 1.414 . S
C2533 C2534 1.374 . S
C2534 H2508 0.950 . S
C2534 C2530 1.385 . S
C2534 C2533 1.374 . S
C2535 C2532 1.499 . S
C2535 C2536 1.373 . S
C2535 C2537 1.389 . S
C2536 H2509 0.950 . S
C2536 C2522 1.377 . S
C2536 C2535 1.373 . S
C2537 C2521 1.377 . S
C2537 C2535 1.389 . S
C2537 C2538 1.524 . S
C2538 C2537 1.524 . S
C2538 C2539 1.397 . S
C2538 C2543 1.363 . S
C2539 H2510 0.950 . S
C2539 C2538 1.397 . S
C2539 C2540 1.334 . S
C2540 H2511 0.950 . S
C2540 C2539 1.334 . S
C2540 C2541 1.287 . S
C2541 C2540 1.287 . S
C2541 C2542 1.524 . S
C2541 H2544 0.999 . S
C2542 H2512 0.950 . S
C2542 C2541 1.524 . S
C2542 C2543 1.415 . S
C2543 H2513 0.950 . S
C2543 C2538 1.363 . S
C2543 C2542 1.415 . S
H2544 C2541 0.999 . S
H2545 C2526 0.913 . S
H2546 C2564 0.951 . S
H2547 C2566 0.951 . S
H2548 C2568 0.950 . S
H2549 C2569 0.950 . S
H2550 C2571 0.950 . S
H2551 C2574 0.950 . S
H2552 C2575 0.950 . S
H2553 C2577 0.950 . S
H2554 C2578 0.950 . S
H2555 C2579 0.951 . S
H2556 C2581 0.951 . S
H2557 C2583 0.950 . S
H2558 C2584 0.950 . S
H2559 C2586 0.950 . S
H2560 C2589 0.950 . S
H2561 C2590 0.950 . S
H2562 C2592 0.950 . S
H2563 C2593 0.950 . S
C2564 H2546 0.951 . S
C2564 C2565 1.366 . S
C2564 C2566 1.388 . S
C2565 C2564 1.366 . S
C2565 C2569 1.385 . S
C2566 H2547 0.951 . S
C2566 C2564 1.388 . S
C2566 C2567 1.366 . S
C2567 C2566 1.366 . S
C2567 C2568 1.414 . S
C2567 C2570 1.499 . S
C2568 H2548 0.950 . S
C2568 C2567 1.414 . S
C2568 C2569 1.374 . S
C2569 H2549 0.950 . S
C2569 C2565 1.385 . S
C2569 C2568 1.374 . S
C2570 C2567 1.499 . S
C2570 C2571 1.373 . S
C2570 C2572 1.389 . S
C2571 H2550 0.950 . S
C2571 C2570 1.373 . S
C2571 C2587 1.377 . S
C2572 C2570 1.389 . S
C2572 C2573 1.524 . S
C2572 C2586 1.377 . S
C2573 C2572 1.524 . S
C2573 C2574 1.397 . S
C2573 C2578 1.363 . S
C2574 H2551 0.950 . S
C2574 C2573 1.397 . S
C2574 C2575 1.334 . S
C2575 H2552 0.950 . S
C2575 C2574 1.334 . S
C2575 C2576 1.287 . S
C2576 C2575 1.287 . S
C2576 C2577 1.524 . S
C2576 H2595 0.913 . S
C2577 H2553 0.950 . S
C2577 C2576 1.524 . S
C2577 C2578 1.415 . S
C2578 H2554 0.950 . S
C2578 C2573 1.363 . S
C2578 C2577 1.415 . S
C2579 H2555 0.951 . S
C2579 C2580 1.366 . S
C2579 C2581 1.388 . S
C2580 C2579 1.366 . S
C2580 C2584 1.385 . S
C2581 H2556 0.951 . S
C2581 C2579 1.388 . S
C2581 C2582 1.366 . S
C2582 C2581 1.366 . S
C2582 C2583 1.414 . S
C2582 C2585 1.499 . S
C2583 H2557 0.950 . S
C2583 C2582 1.414 . S
C2583 C2584 1.374 . S
C2584 H2558 0.950 . S
C2584 C2580 1.385 . S
C2584 C2583 1.374 . S
C2585 C2582 1.499 . S
C2585 C2586 1.373 . S
C2585 C2587 1.389 . S
C2586 H2559 0.950 . S
C2586 C2572 1.377 . S
C2586 C2585 1.373 . S
C2587 C2571 1.377 . S
C2587 C2585 1.389 . S
C2587 C2588 1.524 . S
C2588 C2587 1.524 . S
C2588 C2589 1.397 . S
C2588 C2593 1.363 . S
C2589 H2560 0.950 . S
C2589 C2588 1.397 . S
C2589 C2590 1.334 . S
C2590 H2561 0.950 . S
C2590 C2589 1.334 . S
C2590 C2591 1.287 . S
C2591 C2590 1.287 . S
C2591 C2592 1.524 . S
C2591 H2594 0.999 . S
C2592 H2562 0.950 . S
C2592 C2591 1.524 . S
C2592 C2593 1.415 . S
C2593 H2563 0.950 . S
C2593 C2588 1.363 . S
C2593 C2592 1.415 . S
H2594 C2591 0.999 . S
H2595 C2576 0.913 . S
H2596 C2614 0.951 . S
H2597 C2616 0.951 . S
H2598 C2618 0.950 . S
H2599 C2619 0.950 . S
H2600 C2621 0.950 . S
H2601 C2624 0.950 . S
H2602 C2625 0.950 . S
H2603 C2627 0.950 . S
H2604 C2628 0.950 . S
H2605 C2629 0.951 . S
H2606 C2631 0.951 . S
H2607 C2633 0.950 . S
H2608 C2634 0.950 . S
H2609 C2636 0.950 . S
H2610 C2639 0.950 . S
H2611 C2640 0.950 . S
H2612 C2642 0.950 . S
H2613 C2643 0.950 . S
C2614 H2596 0.951 . S
C2614 C2615 1.366 . S
C2614 C2616 1.388 . S
C2615 C2614 1.366 . S
C2615 C2619 1.385 . S
C2616 H2597 0.951 . S
C2616 C2614 1.388 . S
C2616 C2617 1.366 . S
C2617 C2616 1.366 . S
C2617 C2618 1.414 . S
C2617 C2620 1.499 . S
C2618 H2598 0.950 . S
C2618 C2617 1.414 . S
C2618 C2619 1.374 . S
C2619 H2599 0.950 . S
C2619 C2615 1.385 . S
C2619 C2618 1.374 . S
C2620 C2617 1.499 . S
C2620 C2621 1.373 . S
C2620 C2622 1.389 . S
C2621 H2600 0.950 . S
C2621 C2620 1.373 . S
C2621 C2637 1.377 . S
C2622 C2620 1.389 . S
C2622 C2623 1.524 . S
C2622 C2636 1.377 . S
C2623 C2622 1.524 . S
C2623 C2624 1.397 . S
C2623 C2628 1.363 . S
C2624 H2601 0.950 . S
C2624 C2623 1.397 . S
C2624 C2625 1.334 . S
C2625 H2602 0.950 . S
C2625 C2624 1.334 . S
C2625 C2626 1.287 . S
C2626 C2625 1.287 . S
C2626 C2627 1.524 . S
C2626 H2645 0.913 . S
C2627 H2603 0.950 . S
C2627 C2626 1.524 . S
C2627 C2628 1.415 . S
C2628 H2604 0.950 . S
C2628 C2623 1.363 . S
C2628 C2627 1.415 . S
C2629 H2605 0.951 . S
C2629 C2630 1.366 . S
C2629 C2631 1.388 . S
C2630 C2629 1.366 . S
C2630 C2634 1.385 . S
C2631 H2606 0.951 . S
C2631 C2629 1.388 . S
C2631 C2632 1.366 . S
C2632 C2631 1.366 . S
C2632 C2633 1.414 . S
C2632 C2635 1.499 . S
C2633 H2607 0.950 . S
C2633 C2632 1.414 . S
C2633 C2634 1.374 . S
C2634 H2608 0.950 . S
C2634 C2630 1.385 . S
C2634 C2633 1.374 . S
C2635 C2632 1.499 . S
C2635 C2636 1.373 . S
C2635 C2637 1.389 . S
C2636 H2609 0.950 . S
C2636 C2622 1.377 . S
C2636 C2635 1.373 . S
C2637 C2621 1.377 . S
C2637 C2635 1.389 . S
C2637 C2638 1.524 . S
C2638 C2637 1.524 . S
C2638 C2639 1.397 . S
C2638 C2643 1.363 . S
C2639 H2610 0.950 . S
C2639 C2638 1.397 . S
C2639 C2640 1.334 . S
C2640 H2611 0.950 . S
C2640 C2639 1.334 . S
C2640 C2641 1.287 . S
C2641 C2640 1.287 . S
C2641 C2642 1.524 . S
C2641 H2644 0.999 . S
C2642 H2612 0.950 . S
C2642 C2641 1.524 . S
C2642 C2643 1.415 . S
C2643 H2613 0.950 . S
C2643 C2638 1.363 . S
C2643 C2642 1.415 . S
H2644 C2641 0.999 . S
H2645 C2626 0.913 . S
H2646 C2664 0.951 . S
H2647 C2666 0.951 . S
H2648 C2668 0.950 . S
H2649 C2669 0.950 . S
H2650 C2671 0.950 . S
H2651 C2674 0.950 . S
H2652 C2675 0.950 . S
H2653 C2677 0.950 . S
H2654 C2678 0.950 . S
H2655 C2679 0.951 . S
H2656 C2681 0.951 . S
H2657 C2683 0.950 . S
H2658 C2684 0.950 . S
H2659 C2686 0.950 . S
H2660 C2689 0.950 . S
H2661 C2690 0.950 . S
H2662 C2692 0.950 . S
H2663 C2693 0.950 . S
C2664 H2646 0.951 . S
C2664 C2665 1.366 . S
C2664 C2666 1.388 . S
C2665 C2664 1.366 . S
C2665 C2669 1.385 . S
C2666 H2647 0.951 . S
C2666 C2664 1.388 . S
C2666 C2667 1.366 . S
C2667 C2666 1.366 . S
C2667 C2668 1.414 . S
C2667 C2670 1.499 . S
C2668 H2648 0.950 . S
C2668 C2667 1.414 . S
C2668 C2669 1.374 . S
C2669 H2649 0.950 . S
C2669 C2665 1.385 . S
C2669 C2668 1.374 . S
C2670 C2667 1.499 . S
C2670 C2671 1.373 . S
C2670 C2672 1.389 . S
C2671 H2650 0.950 . S
C2671 C2670 1.373 . S
C2671 C2687 1.377 . S
C2672 C2670 1.389 . S
C2672 C2673 1.524 . S
C2672 C2686 1.377 . S
C2673 C2672 1.524 . S
C2673 C2674 1.397 . S
C2673 C2678 1.363 . S
C2674 H2651 0.950 . S
C2674 C2673 1.397 . S
C2674 C2675 1.334 . S
C2675 H2652 0.950 . S
C2675 C2674 1.334 . S
C2675 C2676 1.287 . S
C2676 C2675 1.287 . S
C2676 C2677 1.524 . S
C2676 H2695 0.913 . S
C2677 H2653 0.950 . S
C2677 C2676 1.524 . S
C2677 C2678 1.415 . S
C2678 H2654 0.950 . S
C2678 C2673 1.363 . S
C2678 C2677 1.415 . S
C2679 H2655 0.951 . S
C2679 C2680 1.366 . S
C2679 C2681 1.388 . S
C2680 C2679 1.366 . S
C2680 C2684 1.385 . S
C2681 H2656 0.951 . S
C2681 C2679 1.388 . S
C2681 C2682 1.366 . S
C2682 C2681 1.366 . S
C2682 C2683 1.414 . S
C2682 C2685 1.499 . S
C2683 H2657 0.950 . S
C2683 C2682 1.414 . S
C2683 C2684 1.374 . S
C2684 H2658 0.950 . S
C2684 C2680 1.385 . S
C2684 C2683 1.374 . S
C2685 C2682 1.499 . S
C2685 C2686 1.373 . S
C2685 C2687 1.389 . S
C2686 H2659 0.950 . S
C2686 C2672 1.377 . S
C2686 C2685 1.373 . S
C2687 C2671 1.377 . S
C2687 C2685 1.389 . S
C2687 C2688 1.524 . S
C2688 C2687 1.524 . S
C2688 C2689 1.397 . S
C2688 C2693 1.363 . S
C2689 H2660 0.950 . S
C2689 C2688 1.397 . S
C2689 C2690 1.334 . S
C2690 H2661 0.950 . S
C2690 C2689 1.334 . S
C2690 C2691 1.287 . S
C2691 C2690 1.287 . S
C2691 C2692 1.524 . S
C2691 H2694 0.999 . S
C2692 H2662 0.950 . S
C2692 C2691 1.524 . S
C2692 C2693 1.415 . S
C2693 H2663 0.950 . S
C2693 C2688 1.363 . S
C2693 C2692 1.415 . S
H2694 C2691 0.999 . S
H2695 C2676 0.913 . S
H2696 C2714 0.951 . S
H2697 C2716 0.951 . S
H2698 C2718 0.950 . S
H2699 C2719 0.950 . S
H2700 C2721 0.950 . S
H2701 C2724 0.950 . S
H2702 C2725 0.950 . S
H2703 C2727 0.950 . S
H2704 C2728 0.950 . S
H2705 C2729 0.951 . S
H2706 C2731 0.951 . S
H2707 C2733 0.950 . S
H2708 C2734 0.950 . S
H2709 C2736 0.950 . S
H2710 C2739 0.950 . S
H2711 C2740 0.950 . S
H2712 C2742 0.950 . S
H2713 C2743 0.950 . S
C2714 H2696 0.951 . S
C2714 C2715 1.366 . S
C2714 C2716 1.388 . S
C2715 C2714 1.366 . S
C2715 C2719 1.385 . S
C2716 H2697 0.951 . S
C2716 C2714 1.388 . S
C2716 C2717 1.366 . S
C2717 C2716 1.366 . S
C2717 C2718 1.414 . S
C2717 C2720 1.499 . S
C2718 H2698 0.950 . S
C2718 C2717 1.414 . S
C2718 C2719 1.374 . S
C2719 H2699 0.950 . S
C2719 C2715 1.385 . S
C2719 C2718 1.374 . S
C2720 C2717 1.499 . S
C2720 C2721 1.373 . S
C2720 C2722 1.389 . S
C2721 H2700 0.950 . S
C2721 C2720 1.373 . S
C2721 C2737 1.377 . S
C2722 C2720 1.389 . S
C2722 C2723 1.524 . S
C2722 C2736 1.377 . S
C2723 C2722 1.524 . S
C2723 C2724 1.397 . S
C2723 C2728 1.363 . S
C2724 H2701 0.950 . S
C2724 C2723 1.397 . S
C2724 C2725 1.334 . S
C2725 H2702 0.950 . S
C2725 C2724 1.334 . S
C2725 C2726 1.287 . S
C2726 C2725 1.287 . S
C2726 C2727 1.524 . S
C2726 H2745 0.913 . S
C2727 H2703 0.950 . S
C2727 C2726 1.524 . S
C2727 C2728 1.415 . S
C2728 H2704 0.950 . S
C2728 C2723 1.363 . S
C2728 C2727 1.415 . S
C2729 H2705 0.951 . S
C2729 C2730 1.366 . S
C2729 C2731 1.388 . S
C2730 C2729 1.366 . S
C2730 C2734 1.385 . S
C2731 H2706 0.951 . S
C2731 C2729 1.388 . S
C2731 C2732 1.366 . S
C2732 C2731 1.366 . S
C2732 C2733 1.414 . S
C2732 C2735 1.499 . S
C2733 H2707 0.950 . S
C2733 C2732 1.414 . S
C2733 C2734 1.374 . S
C2734 H2708 0.950 . S
C2734 C2730 1.385 . S
C2734 C2733 1.374 . S
C2735 C2732 1.499 . S
C2735 C2736 1.373 . S
C2735 C2737 1.389 . S
C2736 H2709 0.950 . S
C2736 C2722 1.377 . S
C2736 C2735 1.373 . S
C2737 C2721 1.377 . S
C2737 C2735 1.389 . S
C2737 C2738 1.524 . S
C2738 C2737 1.524 . S
C2738 C2739 1.397 . S
C2738 C2743 1.363 . S
C2739 H2710 0.950 . S
C2739 C2738 1.397 . S
C2739 C2740 1.334 . S
C2740 H2711 0.950 . S
C2740 C2739 1.334 . S
C2740 C2741 1.287 . S
C2741 C2740 1.287 . S
C2741 C2742 1.524 . S
C2741 H2744 0.999 . S
C2742 H2712 0.950 . S
C2742 C2741 1.524 . S
C2742 C2743 1.415 . S
C2743 H2713 0.950 . S
C2743 C2738 1.363 . S
C2743 C2742 1.415 . S
H2744 C2741 0.999 . S
H2745 C2726 0.913 . S
H2746 C2764 0.951 . S
H2747 C2766 0.951 . S
H2748 C2768 0.950 . S
H2749 C2769 0.950 . S
H2750 C2771 0.950 . S
H2751 C2774 0.950 . S
H2752 C2775 0.950 . S
H2753 C2777 0.950 . S
H2754 C2778 0.950 . S
H2755 C2779 0.951 . S
H2756 C2781 0.951 . S
H2757 C2783 0.950 . S
H2758 C2784 0.950 . S
H2759 C2786 0.950 . S
H2760 C2789 0.950 . S
H2761 C2790 0.950 . S
H2762 C2792 0.950 . S
H2763 C2793 0.950 . S
C2764 H2746 0.951 . S
C2764 C2765 1.366 . S
C2764 C2766 1.388 . S
C2765 C2764 1.366 . S
C2765 C2769 1.385 . S
C2766 H2747 0.951 . S
C2766 C2764 1.388 . S
C2766 C2767 1.366 . S
C2767 C2766 1.366 . S
C2767 C2768 1.414 . S
C2767 C2770 1.499 . S
C2768 H2748 0.950 . S
C2768 C2767 1.414 . S
C2768 C2769 1.374 . S
C2769 H2749 0.950 . S
C2769 C2765 1.385 . S
C2769 C2768 1.374 . S
C2770 C2767 1.499 . S
C2770 C2771 1.373 . S
C2770 C2772 1.389 . S
C2771 H2750 0.950 . S
C2771 C2770 1.373 . S
C2771 C2787 1.377 . S
C2772 C2770 1.389 . S
C2772 C2773 1.524 . S
C2772 C2786 1.377 . S
C2773 C2772 1.524 . S
C2773 C2774 1.397 . S
C2773 C2778 1.363 . S
C2774 H2751 0.950 . S
C2774 C2773 1.397 . S
C2774 C2775 1.334 . S
C2775 H2752 0.950 . S
C2775 C2774 1.334 . S
C2775 C2776 1.287 . S
C2776 C2775 1.287 . S
C2776 C2777 1.524 . S
C2776 H2795 0.913 . S
C2777 H2753 0.950 . S
C2777 C2776 1.524 . S
C2777 C2778 1.415 . S
C2778 H2754 0.950 . S
C2778 C2773 1.363 . S
C2778 C2777 1.415 . S
C2779 H2755 0.951 . S
C2779 C2780 1.366 . S
C2779 C2781 1.388 . S
C2780 C2779 1.366 . S
C2780 C2784 1.385 . S
C2781 H2756 0.951 . S
C2781 C2779 1.388 . S
C2781 C2782 1.366 . S
C2782 C2781 1.366 . S
C2782 C2783 1.414 . S
C2782 C2785 1.499 . S
C2783 H2757 0.950 . S
C2783 C2782 1.414 . S
C2783 C2784 1.374 . S
C2784 H2758 0.950 . S
C2784 C2780 1.385 . S
C2784 C2783 1.374 . S
C2785 C2782 1.499 . S
C2785 C2786 1.373 . S
C2785 C2787 1.389 . S
C2786 H2759 0.950 . S
C2786 C2772 1.377 . S
C2786 C2785 1.373 . S
C2787 C2771 1.377 . S
C2787 C2785 1.389 . S
C2787 C2788 1.524 . S
C2788 C2787 1.524 . S
C2788 C2789 1.397 . S
C2788 C2793 1.363 . S
C2789 H2760 0.950 . S
C2789 C2788 1.397 . S
C2789 C2790 1.334 . S
C2790 H2761 0.950 . S
C2790 C2789 1.334 . S
C2790 C2791 1.287 . S
C2791 C2790 1.287 . S
C2791 C2792 1.524 . S
C2791 H2794 0.999 . S
C2792 H2762 0.950 . S
C2792 C2791 1.524 . S
C2792 C2793 1.415 . S
C2793 H2763 0.950 . S
C2793 C2788 1.363 . S
C2793 C2792 1.415 . S
H2794 C2791 0.999 . S
H2795 C2776 0.913 . S
H2796 C2814 0.951 . S
H2797 C2816 0.951 . S
H2798 C2818 0.950 . S
H2799 C2819 0.950 . S
H2800 C2821 0.950 . S
H2801 C2824 0.950 . S
H2802 C2825 0.950 . S
H2803 C2827 0.950 . S
H2804 C2828 0.950 . S
H2805 C2829 0.951 . S
H2806 C2831 0.951 . S
H2807 C2833 0.950 . S
H2808 C2834 0.950 . S
H2809 C2836 0.950 . S
H2810 C2839 0.950 . S
H2811 C2840 0.950 . S
H2812 C2842 0.950 . S
H2813 C2843 0.950 . S
C2814 H2796 0.951 . S
C2814 C2815 1.366 . S
C2814 C2816 1.388 . S
C2815 C2814 1.366 . S
C2815 C2819 1.385 . S
C2816 H2797 0.951 . S
C2816 C2814 1.388 . S
C2816 C2817 1.366 . S
C2817 C2816 1.366 . S
C2817 C2818 1.414 . S
C2817 C2820 1.499 . S
C2818 H2798 0.950 . S
C2818 C2817 1.414 . S
C2818 C2819 1.374 . S
C2819 H2799 0.950 . S
C2819 C2815 1.385 . S
C2819 C2818 1.374 . S
C2820 C2817 1.499 . S
C2820 C2821 1.373 . S
C2820 C2822 1.389 . S
C2821 H2800 0.950 . S
C2821 C2820 1.373 . S
C2821 C2837 1.377 . S
C2822 C2820 1.389 . S
C2822 C2823 1.524 . S
C2822 C2836 1.377 . S
C2823 C2822 1.524 . S
C2823 C2824 1.397 . S
C2823 C2828 1.363 . S
C2824 H2801 0.950 . S
C2824 C2823 1.397 . S
C2824 C2825 1.334 . S
C2825 H2802 0.950 . S
C2825 C2824 1.334 . S
C2825 C2826 1.287 . S
C2826 C2825 1.287 . S
C2826 C2827 1.524 . S
C2826 H2845 0.913 . S
C2827 H2803 0.950 . S
C2827 C2826 1.524 . S
C2827 C2828 1.415 . S
C2828 H2804 0.950 . S
C2828 C2823 1.363 . S
C2828 C2827 1.415 . S
C2829 H2805 0.951 . S
C2829 C2830 1.366 . S
C2829 C2831 1.388 . S
C2830 C2829 1.366 . S
C2830 C2834 1.385 . S
C2831 H2806 0.951 . S
C2831 C2829 1.388 . S
C2831 C2832 1.366 . S
C2832 C2831 1.366 . S
C2832 C2833 1.414 . S
C2832 C2835 1.499 . S
C2833 H2807 0.950 . S
C2833 C2832 1.414 . S
C2833 C2834 1.374 . S
C2834 H2808 0.950 . S
C2834 C2830 1.385 . S
C2834 C2833 1.374 . S
C2835 C2832 1.499 . S
C2835 C2836 1.373 . S
C2835 C2837 1.389 . S
C2836 H2809 0.950 . S
C2836 C2822 1.377 . S
C2836 C2835 1.373 . S
C2837 C2821 1.377 . S
C2837 C2835 1.389 . S
C2837 C2838 1.524 . S
C2838 C2837 1.524 . S
C2838 C2839 1.397 . S
C2838 C2843 1.363 . S
C2839 H2810 0.950 . S
C2839 C2838 1.397 . S
C2839 C2840 1.334 . S
C2840 H2811 0.950 . S
C2840 C2839 1.334 . S
C2840 C2841 1.287 . S
C2841 C2840 1.287 . S
C2841 C2842 1.524 . S
C2841 H2844 0.999 . S
C2842 H2812 0.950 . S
C2842 C2841 1.524 . S
C2842 C2843 1.415 . S
C2843 H2813 0.950 . S
C2843 C2838 1.363 . S
C2843 C2842 1.415 . S
H2844 C2841 0.999 . S
H2845 C2826 0.913 . S
H2846 C2864 0.951 . S
H2847 C2866 0.951 . S
H2848 C2868 0.950 . S
H2849 C2869 0.950 . S
H2850 C2871 0.950 . S
H2851 C2874 0.950 . S
H2852 C2875 0.950 . S
H2853 C2877 0.950 . S
H2854 C2878 0.950 . S
H2855 C2879 0.951 . S
H2856 C2881 0.951 . S
H2857 C2883 0.950 . S
H2858 C2884 0.950 . S
H2859 C2886 0.950 . S
H2860 C2889 0.950 . S
H2861 C2890 0.950 . S
H2862 C2892 0.950 . S
H2863 C2893 0.950 . S
C2864 H2846 0.951 . S
C2864 C2865 1.366 . S
C2864 C2866 1.388 . S
C2865 C2864 1.366 . S
C2865 C2869 1.385 . S
C2866 H2847 0.951 . S
C2866 C2864 1.388 . S
C2866 C2867 1.366 . S
C2867 C2866 1.366 . S
C2867 C2868 1.414 . S
C2867 C2870 1.499 . S
C2868 H2848 0.950 . S
C2868 C2867 1.414 . S
C2868 C2869 1.374 . S
C2869 H2849 0.950 . S
C2869 C2865 1.385 . S
C2869 C2868 1.374 . S
C2870 C2867 1.499 . S
C2870 C2871 1.373 . S
C2870 C2872 1.389 . S
C2871 H2850 0.950 . S
C2871 C2870 1.373 . S
C2871 C2887 1.377 . S
C2872 C2870 1.389 . S
C2872 C2873 1.524 . S
C2872 C2886 1.377 . S
C2873 C2872 1.524 . S
C2873 C2874 1.397 . S
C2873 C2878 1.363 . S
C2874 H2851 0.950 . S
C2874 C2873 1.397 . S
C2874 C2875 1.334 . S
C2875 H2852 0.950 . S
C2875 C2874 1.334 . S
C2875 C2876 1.287 . S
C2876 C2875 1.287 . S
C2876 C2877 1.524 . S
C2876 H2895 0.913 . S
C2877 H2853 0.950 . S
C2877 C2876 1.524 . S
C2877 C2878 1.415 . S
C2878 H2854 0.950 . S
C2878 C2873 1.363 . S
C2878 C2877 1.415 . S
C2879 H2855 0.951 . S
C2879 C2880 1.366 . S
C2879 C2881 1.388 . S
C2880 C2879 1.366 . S
C2880 C2884 1.385 . S
C2881 H2856 0.951 . S
C2881 C2879 1.388 . S
C2881 C2882 1.366 . S
C2882 C2881 1.366 . S
C2882 C2883 1.414 . S
C2882 C2885 1.499 . S
C2883 H2857 0.950 . S
C2883 C2882 1.414 . S
C2883 C2884 1.374 . S
C2884 H2858 0.950 . S
C2884 C2880 1.385 . S
C2884 C2883 1.374 . S
C2885 C2882 1.499 . S
C2885 C2886 1.373 . S
C2885 C2887 1.389 . S
C2886 H2859 0.950 . S
C2886 C2872 1.377 . S
C2886 C2885 1.373 . S
C2887 C2871 1.377 . S
C2887 C2885 1.389 . S
C2887 C2888 1.524 . S
C2888 C2887 1.524 . S
C2888 C2889 1.397 . S
C2888 C2893 1.363 . S
C2889 H2860 0.950 . S
C2889 C2888 1.397 . S
C2889 C2890 1.334 . S
C2890 H2861 0.950 . S
C2890 C2889 1.334 . S
C2890 C2891 1.287 . S
C2891 C2890 1.287 . S
C2891 C2892 1.524 . S
C2891 H2894 0.999 . S
C2892 H2862 0.950 . S
C2892 C2891 1.524 . S
C2892 C2893 1.415 . S
C2893 H2863 0.950 . S
C2893 C2888 1.363 . S
C2893 C2892 1.415 . S
H2894 C2891 0.999 . S
H2895 C2876 0.913 . S
H2896 C2914 0.951 . S
H2897 C2916 0.951 . S
H2898 C2918 0.950 . S
H2899 C2919 0.950 . S
H2900 C2921 0.950 . S
H2901 C2924 0.950 . S
H2902 C2925 0.950 . S
H2903 C2927 0.950 . S
H2904 C2928 0.950 . S
H2905 C2929 0.951 . S
H2906 C2931 0.951 . S
H2907 C2933 0.950 . S
H2908 C2934 0.950 . S
H2909 C2936 0.950 . S
H2910 C2939 0.950 . S
H2911 C2940 0.950 . S
H2912 C2942 0.950 . S
H2913 C2943 0.950 . S
C2914 H2896 0.951 . S
C2914 C2915 1.366 . S
C2914 C2916 1.388 . S
C2915 C2914 1.366 . S
C2915 C2919 1.385 . S
C2916 H2897 0.951 . S
C2916 C2914 1.388 . S
C2916 C2917 1.366 . S
C2917 C2916 1.366 . S
C2917 C2918 1.414 . S
C2917 C2920 1.499 . S
C2918 H2898 0.950 . S
C2918 C2917 1.414 . S
C2918 C2919 1.374 . S
C2919 H2899 0.950 . S
C2919 C2915 1.385 . S
C2919 C2918 1.374 . S
C2920 C2917 1.499 . S
C2920 C2921 1.373 . S
C2920 C2922 1.389 . S
C2921 H2900 0.950 . S
C2921 C2920 1.373 . S
C2921 C2937 1.377 . S
C2922 C2920 1.389 . S
C2922 C2923 1.524 . S
C2922 C2936 1.377 . S
C2923 C2922 1.524 . S
C2923 C2924 1.397 . S
C2923 C2928 1.363 . S
C2924 H2901 0.950 . S
C2924 C2923 1.397 . S
C2924 C2925 1.334 . S
C2925 H2902 0.950 . S
C2925 C2924 1.334 . S
C2925 C2926 1.287 . S
C2926 C2925 1.287 . S
C2926 C2927 1.524 . S
C2926 H2945 0.913 . S
C2927 H2903 0.950 . S
C2927 C2926 1.524 . S
C2927 C2928 1.415 . S
C2928 H2904 0.950 . S
C2928 C2923 1.363 . S
C2928 C2927 1.415 . S
C2929 H2905 0.951 . S
C2929 C2930 1.366 . S
C2929 C2931 1.388 . S
C2930 C2929 1.366 . S
C2930 C2934 1.385 . S
C2931 H2906 0.951 . S
C2931 C2929 1.388 . S
C2931 C2932 1.366 . S
C2932 C2931 1.366 . S
C2932 C2933 1.414 . S
C2932 C2935 1.499 . S
C2933 H2907 0.950 . S
C2933 C2932 1.414 . S
C2933 C2934 1.374 . S
C2934 H2908 0.950 . S
C2934 C2930 1.385 . S
C2934 C2933 1.374 . S
C2935 C2932 1.499 . S
C2935 C2936 1.373 . S
C2935 C2937 1.389 . S
C2936 H2909 0.950 . S
C2936 C2922 1.377 . S
C2936 C2935 1.373 . S
C2937 C2921 1.377 . S
C2937 C2935 1.389 . S
C2937 C2938 1.524 . S
C2938 C2937 1.524 . S
C2938 C2939 1.397 . S
C2938 C2943 1.363 . S
C2939 H2910 0.950 . S
C2939 C2938 1.397 . S
C2939 C2940 1.334 . S
C2940 H2911 0.950 . S
C2940 C2939 1.334 . S
C2940 C2941 1.287 . S
C2941 C2940 1.287 . S
C2941 C2942 1.524 . S
C2941 H2944 0.999 . S
C2942 H2912 0.950 . S
C2942 C2941 1.524 . S
C2942 C2943 1.415 . S
C2943 H2913 0.950 . S
C2943 C2938 1.363 . S
C2943 C2942 1.415 . S
H2944 C2941 0.999 . S
H2945 C2926 0.913 . S
H2946 C2964 0.951 . S
H2947 C2966 0.951 . S
H2948 C2968 0.950 . S
H2949 C2969 0.950 . S
H2950 C2971 0.950 . S
H2951 C2974 0.950 . S
H2952 C2975 0.950 . S
H2953 C2977 0.950 . S
H2954 C2978 0.950 . S
H2955 C2979 0.951 . S
H2956 C2981 0.951 . S
H2957 C2983 0.950 . S
H2958 C2984 0.950 . S
H2959 C2986 0.950 . S
H2960 C2989 0.950 . S
H2961 C2990 0.950 . S
H2962 C2992 0.950 . S
H2963 C2993 0.950 . S
C2964 H2946 0.951 . S
C2964 C2965 1.366 . S
C2964 C2966 1.388 . S
C2965 C2964 1.366 . S
C2965 C2969 1.385 . S
C2966 H2947 0.951 . S
C2966 C2964 1.388 . S
C2966 C2967 1.366 . S
C2967 C2966 1.366 . S
C2967 C2968 1.414 . S
C2967 C2970 1.499 . S
C2968 H2948 0.950 . S
C2968 C2967 1.414 . S
C2968 C2969 1.374 . S
C2969 H2949 0.950 . S
C2969 C2965 1.385 . S
C2969 C2968 1.374 . S
C2970 C2967 1.499 . S
C2970 C2971 1.373 . S
C2970 C2972 1.389 . S
C2971 H2950 0.950 . S
C2971 C2970 1.373 . S
C2971 C2987 1.377 . S
C2972 C2970 1.389 . S
C2972 C2973 1.524 . S
C2972 C2986 1.377 . S
C2973 C2972 1.524 . S
C2973 C2974 1.397 . S
C2973 C2978 1.363 . S
C2974 H2951 0.950 . S
C2974 C2973 1.397 . S
C2974 C2975 1.334 . S
C2975 H2952 0.950 . S
C2975 C2974 1.334 . S
C2975 C2976 1.287 . S
C2976 C2975 1.287 . S
C2976 C2977 1.524 . S
C2976 H2995 0.913 . S
C2977 H2953 0.950 . S
C2977 C2976 1.524 . S
C2977 C2978 1.415 . S
C2978 H2954 0.950 . S
C2978 C2973 1.363 . S
C2978 C2977 1.415 . S
C2979 H2955 0.951 . S
C2979 C2980 1.366 . S
C2979 C2981 1.388 . S
C2980 C2979 1.366 . S
C2980 C2984 1.385 . S
C2981 H2956 0.951 . S
C2981 C2979 1.388 . S
C2981 C2982 1.366 . S
C2982 C2981 1.366 . S
C2982 C2983 1.414 . S
C2982 C2985 1.499 . S
C2983 H2957 0.950 . S
C2983 C2982 1.414 . S
C2983 C2984 1.374 . S
C2984 H2958 0.950 . S
C2984 C2980 1.385 . S
C2984 C2983 1.374 . S
C2985 C2982 1.499 . S
C2985 C2986 1.373 . S
C2985 C2987 1.389 . S
C2986 H2959 0.950 . S
C2986 C2972 1.377 . S
C2986 C2985 1.373 . S
C2987 C2971 1.377 . S
C2987 C2985 1.389 . S
C2987 C2988 1.524 . S
C2988 C2987 1.524 . S
C2988 C2989 1.397 . S
C2988 C2993 1.363 . S
C2989 H2960 0.950 . S
C2989 C2988 1.397 . S
C2989 C2990 1.334 . S
C2990 H2961 0.950 . S
C2990 C2989 1.334 . S
C2990 C2991 1.287 . S
C2991 C2990 1.287 . S
C2991 C2992 1.524 . S
C2991 H2994 0.999 . S
C2992 H2962 0.950 . S
C2992 C2991 1.524 . S
C2992 C2993 1.415 . S
C2993 H2963 0.950 . S
C2993 C2988 1.363 . S
C2993 C2992 1.415 . S
H2994 C2991 0.999 . S
H2995 C2976 0.913 . S
C630 C282 1.559 . S
C615 N2 1.528 . S
C680 C325 2.446 . S
C665 C7 2.438 . S
C730 C362 1.572 . S
C715 N12 1.456 1_565 S
C765 C16 2.362 1_565 S
C780 C405 2.417 . S
C830 C454 2.581 . S
C815 C30 2.556 1_565 S
C880 C491 1.390 . S
C865 N35 1.339 . S
C915 C39 2.563 . S
C930 C534 2.561 . S
C980 C571 1.382 . S
C965 N25 1.244 1_565 S
C1030 C286 1.367 . S
C1015 N58 1.316 . S
C1065 N81 1.945 . S
C1080 C335 1.975 . S
C1130 C366 1.358 . S
C1115 N104 1.306 . S
C1165 N127 2.001 . S
C1180 C415 2.031 . S
C1230 C442 0.536 . S
C1215 N48 0.480 . S
C1280 C485 1.612 . S
C1265 N71 1.647 . S
C1315 N94 0.450 . S
C1330 C522 0.516 . S
C1380 C565 1.623 . S
C1365 N117 1.661 . S
C1415 C85 2.105 . S
C1430 C294 2.023 . S
C1465 C122 2.379 . S
C1480 C446 2.348 . S
C1515 C53 2.000 . S
C1530 C495 2.009 . S
C1580 C526 2.402 . S
C1565 C76 2.434 . S
C1630 C575 2.014 . S
C1615 C99 2.006 . S
C1680 C374 2.002 . S
C1665 C131 2.079 . S
C1730 C411 0.767 . S
C1715 C62 0.771 . S
C1765 C108 0.792 . S
C1780 C331 0.788 . S
C1830 C562 1.665 . S
C1815 N140 1.640 . S
C1865 C145 2.435 . S
C1880 C445 2.441 . S
C1930 C482 1.486 . S
C1915 N150 1.373 . S
C1965 C154 2.371 . S
C1980 C525 2.427 . S
C2030 C334 2.559 . S
C2015 C168 2.536 . S
C2065 N173 1.235 . S
C2080 C371 1.287 . S
C2130 C414 2.555 . S
C2115 C177 2.556 . S
C2180 C291 1.465 . S
C2165 N163 1.348 . S
C2230 C566 1.868 . S
C2215 C200 1.848 . S
C2280 C455 2.275 . S
C2265 N219 2.244 . S
C2315 N242 1.573 . S
C2330 C486 1.634 . S
C2380 C535 2.368 . S
C2365 C269 2.419 . S
C2430 C322 0.789 . S
C2415 C191 0.795 . S
C2465 N209 1.904 . S
C2480 C365 1.863 . S
C2515 N232 0.718 . S
C2530 C402 0.721 . S
C2565 C260 2.133 . S
C2580 C285 2.061 . S
C2615 C223 1.820 . S
C2630 C574 1.748 . S
C2665 N255 1.936 . S
C2680 C326 1.984 . S
C2715 N186 1.468 . S
C2730 C375 1.505 . S
C2780 C406 2.081 . S
C2765 C214 2.109 . S
C2830 C295 1.734 . S
C2815 C237 1.726 . S
C2880 C494 1.571 . S
C2865 N265 1.604 . S
C2930 C531 0.495 . S
C2915 N196 0.445 . S
C2980 C451 0.556 . S
C2965 C246 0.512 . S
