# Generated by pormake.
# Topology anh, (6,3)-cn, num edge types: 1
# Building blocks:
#     Node 0, Type 0, BuildingBlock: BETFAJ_clean_sbu_0, # of connection points: 6
#     Node 1, Type 0, BuildingBlock: BETFAJ_clean_sbu_0, # of connection points: 6
#     Node 2, Type 0, BuildingBlock: BETFAJ_clean_sbu_0, # of connection points: 6
#     Node 3, Type 1, BuildingBlock: OLANEW_clean_sbu_2, # of connection points: 3
#     Node 4, Type 1, BuildingBlock: OLANEW_clean_sbu_2, # of connection points: 3
#     Node 5, Type 1, BuildingBlock: OLANEW_clean_sbu_2, # of connection points: 3
#     Node 6, Type 1, BuildingBlock: OLANEW_clean_sbu_2, # of connection points: 3
#     Node 7, Type 1, BuildingBlock: OLANEW_clean_sbu_2, # of connection points: 3
#     Node 8, Type 1, BuildingBlock: OLANEW_clean_sbu_2, # of connection points: 3
#     Edge 9, Type (0, 1), BuildingBlock: CIFDUS_clean_linker_0, # of connection points: 2
#     Edge 10, Type (0, 1), BuildingBlock: CIFDUS_clean_linker_0, # of connection points: 2
#     Edge 11, Type (0, 1), BuildingBlock: CIFDUS_clean_linker_0, # of connection points: 2
#     Edge 12, Type (0, 1), BuildingBlock: CIFDUS_clean_linker_0, # of connection points: 2
#     Edge 13, Type (0, 1), BuildingBlock: CIFDUS_clean_linker_0, # of connection points: 2
#     Edge 14, Type (0, 1), BuildingBlock: CIFDUS_clean_linker_0, # of connection points: 2
#     Edge 15, Type (0, 1), BuildingBlock: CIFDUS_clean_linker_0, # of connection points: 2
#     Edge 16, Type (0, 1), BuildingBlock: CIFDUS_clean_linker_0, # of connection points: 2
#     Edge 17, Type (0, 1), BuildingBlock: CIFDUS_clean_linker_0, # of connection points: 2
#     Edge 18, Type (0, 1), BuildingBlock: CIFDUS_clean_linker_0, # of connection points: 2
#     Edge 19, Type (0, 1), BuildingBlock: CIFDUS_clean_linker_0, # of connection points: 2
#     Edge 20, Type (0, 1), BuildingBlock: CIFDUS_clean_linker_0, # of connection points: 2
#     Edge 21, Type (0, 1), BuildingBlock: CIFDUS_clean_linker_0, # of connection points: 2
#     Edge 22, Type (0, 1), BuildingBlock: CIFDUS_clean_linker_0, # of connection points: 2
#     Edge 23, Type (0, 1), BuildingBlock: CIFDUS_clean_linker_0, # of connection points: 2
#     Edge 24, Type (0, 1), BuildingBlock: CIFDUS_clean_linker_0, # of connection points: 2
#     Edge 25, Type (0, 1), BuildingBlock: CIFDUS_clean_linker_0, # of connection points: 2
#     Edge 26, Type (0, 1), BuildingBlock: CIFDUS_clean_linker_0, # of connection points: 2
# Relax obj value: 0.161
# Max RMSD: 0.178
# Mean RMSD: 0.118
data_MOF--net-anh--node1-BETFAJ_clean_sbu_0--node2-OLANEW_clean_sbu_2--edge1-CIFDUS_clean_linker_0
_symmetry_space_group_name_H-M    P1
_symmetry_Int_Tables_number       1
_symmetry_cell_setting            triclinic
loop_
_symmetry_equiv_pos_as_xyz
'x, y, z'
_cell_length_a     33.138818
_cell_length_b     37.541283
_cell_length_c     45.107495
_cell_angle_alpha  91.933843
_cell_angle_beta   88.925401
_cell_angle_gamma 131.13159
loop_
_atom_site_label
_atom_site_type_symbol
_atom_site_fract_x
_atom_site_fract_y
_atom_site_fract_z
_atom_type_partial_charge
Sm0 Sm 0.05456 0.50134 0.12497 0.0
Sm1 Sm 0.97964 0.52664 0.13873 0.0
C2 C 0.11311 0.48501 0.0993 0.0
C3 C 0.16279 0.49595 0.10767 0.0
C4 C 0.20167 0.53644 0.12516 0.0
C5 C 0.24592 0.54365 0.13585 0.0
C6 C 0.25132 0.51007 0.12957 0.0
C7 C 0.21273 0.47002 0.11165 0.0
C8 C 0.16883 0.46308 0.10076 0.0
C9 C 0.05178 0.51596 0.18512 0.0
C10 C 0.10817 0.61283 0.13496 0.0
C11 C 0.91093 0.53351 0.16115 0.0
C12 C 0.85457 0.5004 0.17049 0.0
C13 C 0.84013 0.50774 0.19791 0.0
C14 C 0.78618 0.47958 0.2057 0.0
C15 C 0.74572 0.44408 0.18593 0.0
C16 C 0.76077 0.43482 0.15936 0.0
C17 C 0.81463 0.46249 0.15182 0.0
C18 C 1.00408 0.52506 0.0803 0.0
C19 C 0.92509 0.41448 0.13497 0.0
O20 O 0.11703 0.52096 0.09259 0.0
O21 O 0.07201 0.45439 0.11619 0.0
O22 O 0.02882 0.51804 0.16444 0.0
O23 O 0.08007 0.50624 0.17397 0.0
O24 O 0.1123 0.58316 0.12177 0.0
O25 O 0.06283 0.59856 0.1466 0.0
O26 O 0.94484 0.53595 0.1776 0.0
O27 O 0.92002 0.53467 0.13264 0.0
O28 O 0.99362 0.49692 0.09984 0.0
O29 O 0.99874 0.55449 0.09082 0.0
O30 O 0.92019 0.44572 0.14301 0.0
O31 O 0.97052 0.42699 0.12474 0.0
H32 H 0.19716 0.56185 0.13116 0.0
H33 H 0.27505 0.57469 0.14969 0.0
H34 H 0.21645 0.44398 0.10612 0.0
H35 H 0.13891 0.43145 0.08753 0.0
H36 H 0.8705 0.53626 0.21288 0.0
H37 H 0.77616 0.48698 0.22665 0.0
H38 H 0.73104 0.40819 0.14338 0.0
H39 H 0.82478 0.45542 0.13077 0.0
Sm40 Sm 0.58486 0.00885 0.47688 0.0
Sm41 Sm 0.52875 0.05644 0.46386 0.0
C42 C 0.61984 0.97184 0.50331 0.0
C43 C 0.61277 0.92862 0.50277 0.0
C44 C 0.56242 0.88377 0.50744 0.0
C45 C 0.5577 0.84412 0.50994 0.0
C46 C 0.60316 0.84842 0.50773 0.0
C47 C 0.65306 0.89302 0.50179 0.0
C48 C 0.6578 0.93268 0.49947 0.0
C49 C 0.57052 0.01241 0.41704 0.0
C50 C 0.45458 0.93994 0.46421 0.0
C51 C 0.49585 0.09758 0.44139 0.0
C52 C 0.50155 0.13931 0.44979 0.0
C53 C 0.54166 0.18313 0.43676 0.0
C54 C 0.5497 0.22337 0.44588 0.0
C55 C 0.51755 0.22075 0.46808 0.0
C56 C 0.47626 0.17663 0.48043 0.0
C57 C 0.46833 0.13637 0.47139 0.0
C58 C 0.54329 0.05183 0.52358 0.0
C59 C 0.65988 0.12503 0.47293 0.0
O60 O 0.57972 0.96804 0.5132 0.0
O61 O 0.64476 1.00007 0.48083 0.0
O62 O 0.5592 0.02604 0.43886 0.0
O63 O 0.59055 0.99463 0.42686 0.0
O64 O 0.49445 0.94442 0.47564 0.0
O65 O 0.45982 0.97624 0.45529 0.0
O66 O 0.53967 0.10649 0.43264 0.0
O67 O 0.46553 0.06059 0.45832 0.0
O68 O 0.55419 0.03892 0.50131 0.0
O69 O 0.52339 0.06999 0.5145 0.0
O70 O 0.61898 0.11993 0.46282 0.0
O71 O 0.65574 0.08944 0.48211 0.0
H72 H 0.52685 0.87945 0.51 0.0
H73 H 0.51874 0.81049 0.51481 0.0
H74 H 0.68875 0.8975 0.49944 0.0
H75 H 0.69701 0.96683 0.49579 0.0
H76 H 0.56748 0.18653 0.41977 0.0
H77 H 0.58125 0.25664 0.43555 0.0
H78 H 0.45099 0.17343 0.49771 0.0
H79 H 0.43677 0.10316 0.48176 0.0
Sm80 Sm 0.59215 0.57898 0.84194 0.0
Sm81 Sm 0.5219 0.47591 0.85893 0.0
C82 C 0.63592 0.66009 0.81684 0.0
C83 C 0.62742 0.69376 0.81316 0.0
C84 C 0.58451 0.68173 0.79628 0.0
C85 C 0.57957 0.71536 0.79146 0.0
C86 C 0.61736 0.76169 0.80343 0.0
C87 C 0.65948 0.77318 0.82087 0.0
C88 C 0.66457 0.7397 0.82553 0.0
C89 C 0.58854 0.56465 0.90155 0.0
C90 C 0.46357 0.5187 0.85635 0.0
C91 C 0.47929 0.3938 0.88195 0.0
C92 C 0.48241 0.35678 0.87589 0.0
C93 C 0.49646 0.34221 0.89876 0.0
C94 C 0.50122 0.30822 0.89308 0.0
C95 C 0.49144 0.2879 0.86447 0.0
C96 C 0.47703 0.30235 0.84168 0.0
C97 C 0.47278 0.33655 0.84728 0.0
C98 C 0.52712 0.4893 0.79891 0.0
C99 C 0.65248 0.53883 0.8484 0.0
O100 O 0.60325 0.61891 0.80286 0.0
O101 O 0.6491 0.65758 0.84336 0.0
O102 O 0.54929 0.54071 0.884 0.0
O103 O 0.63172 0.59997 0.88834 0.0
O104 O 0.50653 0.55405 0.84182 0.0
O105 O 0.46271 0.48715 0.86934 0.0
O106 O 0.52268 0.43434 0.89261 0.0
O107 O 0.45509 0.39862 0.86203 0.0
O108 O 0.566 0.51394 0.81674 0.0
O109 O 0.48411 0.4542 0.8122 0.0
O110 O 0.60821 0.50242 0.86153 0.0
O111 O 0.65408 0.57041 0.83488 0.0
H112 H 0.55523 0.64663 0.78634 0.0
H113 H 0.54696 0.70537 0.77765 0.0
H114 H 0.68877 0.80821 0.8309 0.0
H115 H 0.69808 0.74994 0.83857 0.0
H116 H 0.50416 0.3574 0.92097 0.0
H117 H 0.51223 0.29762 0.91106 0.0
H118 H 0.47016 0.28792 0.8193 0.0
H119 H 0.46247 0.34743 0.82909 0.0
O120 O 0.56068 0.04272 0.2302 0.0
Cd121 Cd 0.56132 0.05825 0.17775 0.0
O122 O 0.53411 0.97129 0.22398 0.0
Cd123 Cd 0.50545 0.95347 0.17803 0.0
O124 O 0.43946 0.88923 0.15315 0.0
C125 C 0.39232 0.87259 0.15923 0.0
O126 O 0.38654 0.89667 0.17781 0.0
C127 C 0.55101 0.00673 0.24068 0.0
C128 C 0.64861 0.15344 0.16576 0.0
O129 O 0.60333 0.14006 0.17403 0.0
O130 O 0.65266 0.12181 0.1629 0.0
O131 O 0.54265 0.50552 0.60959 0.0
Cd132 Cd 0.54843 0.50906 0.55539 0.0
O133 O 0.46177 0.48192 0.60977 0.0
Cd134 Cd 0.46947 0.50635 0.565 0.0
O135 O 0.48394 0.56131 0.53817 0.0
C136 C 0.5268 0.60352 0.54374 0.0
O137 O 0.56051 0.61072 0.56335 0.0
C138 C 0.50036 0.49005 0.62354 0.0
C139 C 0.52811 0.42906 0.53072 0.0
O140 O 0.5759 0.46685 0.53734 0.0
O141 O 0.48997 0.42919 0.53553 0.0
O142 O 0.10693 0.53362 0.90417 0.0
Cd143 Cd 0.1418 0.52623 0.8573 0.0
O144 O 0.04601 0.53423 0.88564 0.0
Cd145 Cd 0.97673 0.5316 0.88759 0.0
O146 O 0.90264 0.52171 0.8864 0.0
C147 C 0.89821 0.54586 0.86984 0.0
O148 O 0.939 0.57802 0.85317 0.0
C149 C 0.07009 0.53557 0.908 0.0
C150 C 0.23442 0.53639 0.85991 0.0
O151 O 0.23781 0.57181 0.85533 0.0
O152 O 0.18758 0.4964 0.86426 0.0
O153 O 0.09916 0.5632 0.37893 0.0
Cd154 Cd 0.09914 0.574 0.43263 0.0
O155 O 1.01169 0.51041 0.37151 0.0
Cd156 Cd 0.98551 0.49002 0.41736 0.0
O157 O 0.91931 0.42905 0.44243 0.0
C158 C 0.91694 0.39426 0.44613 0.0
O159 O 0.95709 0.39742 0.43706 0.0
C160 C 0.05915 0.53828 0.36139 0.0
C161 C 0.19425 0.66498 0.44809 0.0
O162 O 0.19097 0.62905 0.44887 0.0
O163 O 0.15218 0.65778 0.44073 0.0
O164 O 0.55403 0.01473 0.70812 0.0
Cd165 Cd 0.54891 0.99919 0.76096 0.0
O166 O 0.58014 0.08513 0.71759 0.0
Cd167 Cd 0.57116 0.08144 0.76568 0.0
O168 O 0.54835 0.10955 0.79838 0.0
C169 C 0.50348 0.09831 0.79365 0.0
O170 O 0.47324 0.068 0.77185 0.0
C171 C 0.56913 0.05357 0.699 0.0
C172 C 0.55359 0.92904 0.77167 0.0
O173 O 0.5085 0.91859 0.76827 0.0
O174 O 0.59636 0.97256 0.76986 0.0
O175 O 0.46955 0.44289 0.07742 0.0
Cd176 Cd 0.42557 0.40965 0.12589 0.0
O177 O 0.55718 0.50016 0.08416 0.0
Cd178 Cd 0.55229 0.50631 0.1317 0.0
O179 O 0.50888 0.52313 0.15527 0.0
C180 C 0.52063 0.562 0.14995 0.0
O181 O 0.56384 0.59341 0.13444 0.0
C182 C 0.51667 0.47364 0.06699 0.0
C183 C 0.48876 0.40728 0.16392 0.0
O184 O 0.46075 0.37525 0.14354 0.0
O185 O 0.48449 0.43867 0.16715 0.0
H186 H 0.35665 0.58919 0.12864 0.0
H187 H 0.24784 0.44493 0.15725 0.0
H188 H 0.32334 0.4515 0.17134 0.0
H189 H 0.41903 0.49451 0.16939 0.0
H190 H 0.52831 0.63721 0.1378 0.0
H191 H 0.45397 0.63561 0.13202 0.0
C192 C 0.34963 0.55959 0.13851 0.0
C193 C 0.29699 0.51643 0.1415 0.0
C194 C 0.39323 0.56334 0.146 0.0
C195 C 0.28819 0.4782 0.15423 0.0
C196 C 0.33125 0.482 0.16238 0.0
C197 C 0.4269 0.5257 0.16184 0.0
C198 C 0.47901 0.56561 0.15354 0.0
C199 C 0.38386 0.52387 0.15746 0.0
C200 C 0.48846 0.60582 0.14405 0.0
C201 C 0.44592 0.60483 0.14055 0.0
H202 H 0.6813 0.20826 0.47236 0.0
H203 H 0.75856 0.1503 0.47314 0.0
H204 H 0.84589 0.22946 0.46724 0.0
H205 H 0.89918 0.31407 0.45769 0.0
H206 H 0.82103 0.37132 0.45726 0.0
H207 H 0.73526 0.29349 0.46745 0.0
C208 C 0.71725 0.2129 0.47143 0.0
C209 C 0.7133 0.17328 0.47279 0.0
C210 C 0.76718 0.25839 0.46799 0.0
C211 C 0.76041 0.18013 0.47209 0.0
C212 C 0.81035 0.22538 0.46859 0.0
C213 C 0.86351 0.30967 0.46016 0.0
C214 C 0.86658 0.34849 0.45635 0.0
C215 C 0.81408 0.26463 0.4659 0.0
C216 C 0.81996 0.34214 0.45993 0.0
C217 C 0.77076 0.29755 0.46566 0.0
H218 H 0.52762 0.75123 0.80052 0.0
H219 H 0.69971 0.85488 0.79168 0.0
H220 H 0.69516 0.91551 0.78166 0.0
H221 H 0.64261 0.93931 0.77498 0.0
H222 H 0.47033 0.83547 0.78199 0.0
H223 H 0.47472 0.77469 0.79262 0.0
C224 C 0.56411 0.78695 0.79612 0.0
C225 C 0.61396 0.79836 0.79709 0.0
C226 C 0.56122 0.82169 0.78992 0.0
C227 C 0.66084 0.84512 0.79169 0.0
C228 C 0.65829 0.87984 0.78571 0.0
C229 C 0.60598 0.90339 0.77882 0.0
C230 C 0.55624 0.89205 0.77773 0.0
C231 C 0.60874 0.86856 0.7848 0.0
C232 C 0.50918 0.84523 0.78266 0.0
C233 C 0.51164 0.81042 0.78878 0.0
H234 H 0.70944 0.48584 0.2098 0.0
H235 H 0.6539 0.35316 0.17153 0.0
H236 H 0.56442 0.32624 0.16544 0.0
H237 H 0.50783 0.34689 0.16257 0.0
H238 H 0.56469 0.4798 0.20119 0.0
H239 H 0.64726 0.49918 0.21665 0.0
C240 C 0.67753 0.45027 0.20119 0.0
C241 C 0.689 0.42219 0.19033 0.0
C242 C 0.62641 0.43518 0.19753 0.0
C243 C 0.64671 0.37621 0.17917 0.0
C244 C 0.59545 0.36071 0.17573 0.0
C245 C 0.53771 0.37953 0.17504 0.0
C246 C 0.53075 0.41238 0.18002 0.0
C247 C 0.58569 0.39095 0.18341 0.0
C248 C 0.56934 0.45415 0.19667 0.0
C249 C 0.61677 0.46542 0.20541 0.0
H250 H 0.42902 0.85617 0.47535 0.0
H251 H 0.36026 0.91436 0.44528 0.0
H252 H 0.2735 0.83476 0.43882 0.0
H253 H 0.21744 0.74847 0.44054 0.0
H254 H 0.28688 0.69051 0.46955 0.0
H255 H 0.37289 0.77024 0.47772 0.0
C256 C 0.39513 0.85163 0.46746 0.0
C257 C 0.4015 0.89148 0.46077 0.0
C258 C 0.34531 0.8057 0.4636 0.0
C259 C 0.35685 0.88454 0.45054 0.0
C260 C 0.30707 0.83894 0.44684 0.0
C261 C 0.25128 0.75325 0.44883 0.0
C262 C 0.24562 0.71348 0.45442 0.0
C263 C 0.30089 0.79925 0.45316 0.0
C264 C 0.29004 0.72041 0.46502 0.0
C265 C 0.33931 0.76603 0.46968 0.0
H266 H 0.42345 0.20496 0.83325 0.0
H267 H 0.57361 0.29229 0.88089 0.0
H268 H 0.58838 0.2385 0.86558 0.0
H269 H 0.56229 0.17063 0.83488 0.0
H270 H 0.41251 0.08443 0.78659 0.0
H271 H 0.39389 0.13365 0.80603 0.0
C272 C 0.45929 0.21206 0.84036 0.0
C273 C 0.49764 0.25275 0.85788 0.0
C274 C 0.46771 0.1813 0.83125 0.0
C275 C 0.54342 0.26109 0.86745 0.0
C276 C 0.55201 0.23051 0.85856 0.0
C277 C 0.52523 0.1622 0.82893 0.0
C278 C 0.48918 0.12417 0.80902 0.0
C279 C 0.51495 0.19103 0.83994 0.0
C280 C 0.4412 0.11366 0.80169 0.0
C281 C 0.43052 0.14187 0.81273 0.0
H282 H 0.52388 0.75545 0.49056 0.0
H283 H 0.6734 0.84907 0.53898 0.0
H284 H 0.665 0.7821 0.55208 0.0
H285 H 0.61265 0.69675 0.55286 0.0
H286 H 0.46134 0.60201 0.50631 0.0
H287 H 0.47297 0.66955 0.48959 0.0
C288 C 0.55461 0.7612 0.504 0.0
C289 C 0.5992 0.80741 0.51374 0.0
C290 C 0.54911 0.72228 0.51196 0.0
C291 C 0.63902 0.81415 0.53076 0.0
C292 C 0.63407 0.77576 0.53851 0.0
C293 C 0.58233 0.69076 0.53885 0.0
C294 C 0.53602 0.64429 0.53105 0.0
C295 C 0.58894 0.72965 0.52962 0.0
C296 C 0.49735 0.63736 0.51274 0.0
C297 C 0.50389 0.67599 0.50323 0.0
H298 H 0.67015 0.48827 0.87925 0.0
H299 H 0.74597 0.60292 0.81854 0.0
H300 H 0.82757 0.61478 0.81977 0.0
H301 H 0.87834 0.59365 0.83829 0.0
H302 H 0.80404 0.4799 0.89947 0.0
H303 H 0.72139 0.46686 0.89781 0.0
C304 C 0.70442 0.51574 0.86618 0.0
C305 C 0.70155 0.5446 0.8488 0.0
C306 C 0.7518 0.52272 0.86713 0.0
C307 C 0.74669 0.58014 0.83217 0.0
C308 C 0.79358 0.58702 0.83285 0.0
C309 C 0.84415 0.56594 0.8513 0.0
C310 C 0.84773 0.53786 0.869 0.0
C311 C 0.79672 0.55869 0.85031 0.0
C312 C 0.80272 0.50217 0.88567 0.0
C313 C 0.7553 0.49464 0.88471 0.0
H314 H 0.21207 0.65766 0.11928 0.0
H315 H 0.11265 0.68358 0.15761 0.0
H316 H 0.19109 0.76628 0.1665 0.0
H317 H 0.28807 0.83045 0.16632 0.0
H318 H 0.38908 0.8062 0.12862 0.0
H319 H 0.30994 0.72411 0.11628 0.0
C320 C 0.20748 0.68146 0.12933 0.0
C321 C 0.15629 0.66398 0.13795 0.0
C322 C 0.25312 0.72943 0.13459 0.0
C323 C 0.15135 0.6956 0.1509 0.0
C324 C 0.19629 0.74312 0.15602 0.0
C325 C 0.29291 0.80741 0.15517 0.0
C326 C 0.34454 0.82448 0.14863 0.0
C327 C 0.24739 0.76025 0.1484 0.0
C328 C 0.34984 0.79406 0.13397 0.0
C329 C 0.30457 0.747 0.127 0.0
H330 H 0.44476 0.23114 0.48063 0.0
H331 H 0.61454 0.30802 0.48018 0.0
H332 H 0.63279 0.37919 0.49887 0.0
H333 H 0.60067 0.41935 0.51629 0.0
H334 H 0.43088 0.34258 0.51711 0.0
H335 H 0.41261 0.27169 0.4976 0.0
C336 C 0.48573 0.2634 0.48478 0.0
C337 C 0.52818 0.26416 0.47896 0.0
C338 C 0.49599 0.30426 0.49567 0.0
C339 C 0.5811 0.30652 0.48408 0.0
C340 C 0.5916 0.34721 0.49495 0.0
C341 C 0.55965 0.38715 0.51217 0.0
C342 C 0.51725 0.38636 0.51825 0.0
C343 C 0.54937 0.34647 0.50091 0.0
C344 C 0.46434 0.34428 0.51267 0.0
C345 C 0.45381 0.30365 0.50152 0.0
H346 H 0.45691 0.5856 0.84367 0.0
H347 H 0.36311 0.44373 0.8753 0.0
H348 H 0.28472 0.43686 0.87959 0.0
H349 H 0.24193 0.47053 0.87383 0.0
H350 H 0.33617 0.61315 0.84356 0.0
H351 H 0.4148 0.62024 0.83945 0.0
C352 C 0.41933 0.55314 0.85148 0.0
C353 C 0.41613 0.51519 0.85903 0.0
C354 C 0.37426 0.54953 0.85422 0.0
C355 C 0.36702 0.47359 0.86934 0.0
C356 C 0.322 0.46957 0.87179 0.0
C357 C 0.27969 0.50326 0.86644 0.0
C358 C 0.28284 0.54119 0.85897 0.0
C359 C 0.32505 0.50724 0.86425 0.0
C360 C 0.33236 0.58335 0.84953 0.0
C361 C 0.37745 0.58743 0.84709 0.0
H362 H 0.82389 0.37488 0.15163 0.0
H363 H 0.91924 0.33875 0.12494 0.0
H364 H 0.8422 0.25509 0.13164 0.0
H365 H 0.74823 0.19215 0.14621 0.0
H366 H 0.65322 0.22862 0.17274 0.0
H367 H 0.72969 0.31206 0.16493 0.0
C368 C 0.82797 0.34881 0.14717 0.0
C369 C 0.8776 0.36337 0.13785 0.0
C370 C 0.78351 0.30068 0.15112 0.0
C371 C 0.88171 0.32879 0.13212 0.0
C372 C 0.83762 0.28084 0.136 0.0
C373 C 0.74417 0.2183 0.15022 0.0
C374 C 0.69496 0.20399 0.16015 0.0
C375 C 0.78841 0.26638 0.14567 0.0
C376 C 0.69052 0.23849 0.16513 0.0
C377 C 0.7343 0.2863 0.16069 0.0
H378 H 1.00898 0.57068 0.0327 0.0
H379 H 0.02783 0.47267 0.05834 0.0
H380 H 0.05118 0.46828 0.00756 0.0
H381 H 0.06594 0.49189 0.95574 0.0
H382 H 0.04135 0.58546 0.92877 0.0
H383 H 1.01973 0.59149 0.97993 0.0
C384 C 1.01834 0.54849 0.0271 0.0
C385 C 1.01765 0.52269 0.04932 0.0
C386 C 0.03016 0.54499 -0.00245 0.0
C387 C 0.02897 0.49347 0.04173 0.0
C388 C 0.04206 0.49074 0.01266 0.0
C389 C 0.05575 0.51354 0.9611 0.0
C390 C 0.0549 0.53797 0.93855 0.0
C391 C 0.04281 0.51634 0.9904 0.0
C392 C 0.04132 0.56566 0.94568 0.0
C393 C 0.02941 0.56941 0.97496 0.0
H394 H 0.58213 0.97263 0.37093 0.0
H395 H 0.54363 0.05997 0.39217 0.0
H396 H 0.53685 0.06824 0.33923 0.0
H397 H 0.54194 0.05013 0.28669 0.0
H398 H 0.57536 0.95861 0.26641 0.0
H399 H 0.58441 0.95264 0.31915 0.0
C400 C 0.57216 0.99344 0.36397 0.0
C401 C 0.56369 0.01597 0.38535 0.0
C402 C 0.56771 0.99739 0.33364 0.0
C403 C 0.55042 0.04246 0.37608 0.0
C404 C 0.54667 0.04722 0.34582 0.0
C405 C 0.55159 0.02921 0.29388 0.0
C406 C 0.55833 0.0051 0.2727 0.0
C407 C 0.55544 0.02495 0.32437 0.0
C408 C 0.56996 0.97747 0.28229 0.0
C409 C 0.57512 0.97401 0.31243 0.0
H410 H 0.44598 0.44413 0.75915 0.0
H411 H 0.61828 0.54739 0.76619 0.0
H412 H 0.62537 0.55514 0.71226 0.0
H413 H 0.58234 0.53277 0.66312 0.0
H414 H 0.4098 0.4327 0.65663 0.0
H415 H 0.403 0.42324 0.7103 0.0
C416 C 0.48505 0.46828 0.74883 0.0
C417 C 0.53153 0.49494 0.7665 0.0
C418 C 0.48874 0.47297 0.71793 0.0
C419 C 0.58193 0.52645 0.75297 0.0
C420 C 0.58599 0.53081 0.72216 0.0
C421 C 0.54328 0.50864 0.67345 0.0
C422 C 0.49664 0.48323 0.65591 0.0
C423 C 0.53965 0.50419 0.70441 0.0
C424 C 0.44629 0.45265 0.66965 0.0
C425 C 0.44236 0.44723 0.70033 0.0
H426 H 0.57052 0.11206 0.56917 0.0
H427 H 0.52836 0.9786 0.54775 0.0
H428 H 0.53604 0.96827 0.60007 0.0
H429 H 0.55043 0.99581 0.65233 0.0
H430 H 0.59196 0.12965 0.67328 0.0
H431 H 0.58885 0.14123 0.62092 0.0
C432 C 0.56348 0.08096 0.57605 0.0
C433 C 0.5502 0.04659 0.55477 0.0
C434 C 0.56751 0.07524 0.60613 0.0
C435 C 0.54077 0.00628 0.56373 0.0
C436 C 0.54438 1.00011 0.59367 0.0
C437 C 0.55919 0.02766 0.64543 0.0
C438 C 0.57109 0.0616 0.66684 0.0
C439 C 0.55737 0.03425 0.61513 0.0
C440 C 0.58254 0.10279 0.6574 0.0
C441 C 0.58068 0.10949 0.62741 0.0
H442 H 0.5024 0.48855 0.92954 0.0
H443 H 0.6677 0.61438 0.94345 0.0
H444 H 0.6612 0.59547 -0.00429 0.0
H445 H 0.60717 0.54496 0.03773 0.0
H446 H 0.44145 0.41944 0.02341 0.0
H447 H 0.44981 0.43615 0.97084 0.0
C448 C 0.53704 0.51178 0.94401 0.0
C449 C 0.58532 0.553 0.93284 0.0
C450 C 0.53299 0.50065 0.97387 0.0
C451 C 0.63002 0.5826 0.95168 0.0
C452 C 0.62632 0.57176 0.9815 0.0
C453 C 0.57301 0.52093 0.02308 0.0
C454 C 0.52367 0.48112 0.03461 0.0
C455 C 0.57783 0.53108 -0.00711 0.0
C456 C 0.47984 0.45046 0.01524 0.0
C457 C 0.48451 0.46003 0.98515 0.0
H458 H 0.12448 0.54618 0.22793 0.0
H459 H 0.96666 0.49719 0.21344 0.0
H460 H 0.95538 0.50111 0.26693 0.0
H461 H 0.9891 0.5149 0.3179 0.0
H462 H 0.14851 0.56673 0.33218 0.0
H463 H 0.16069 0.56543 0.27868 0.0
C464 C 0.08785 0.53675 0.23657 0.0
C465 C 0.04651 0.52169 0.21698 0.0
C466 C 0.08192 0.53936 0.26725 0.0
C467 C 0.99929 0.50971 0.2282 0.0
C468 C 0.99271 0.51153 0.25875 0.0
C469 C 0.02657 0.52606 0.30928 0.0
C470 C 0.06765 0.54046 0.32897 0.0
C471 C 0.03355 0.52581 0.2785 0.0
C472 C 0.11627 0.55548 0.31749 0.0
C473 C 0.12321 0.55462 0.28691 0.0
loop_
_geom_bond_atom_site_label_1
_geom_bond_atom_site_label_2
_geom_bond_distance
_geom_bond_site_symmetry_2
_ccdc_geom_bond_type
Sm0 C2 2.846 . S
Sm0 O20 2.543 . S
Sm0 O21 2.450 . S
Sm0 O22 2.681 . S
Sm0 O23 2.464 . S
Sm0 O24 2.396 . S
Sm0 O28 2.386 . S
Sm0 O31 2.408 1_455 S
Sm1 C11 2.846 . S
Sm1 O22 2.386 1_655 S
Sm1 O25 2.408 1_655 S
Sm1 O26 2.543 . S
Sm1 O27 2.450 . S
Sm1 O28 2.681 1_655 S
Sm1 O29 2.464 . S
Sm1 O30 2.396 . S
C2 Sm0 2.846 . S
C2 C3 1.506 . S
C2 O20 1.261 . S
C2 O21 1.242 . S
C3 C2 1.506 . S
C3 C4 1.358 . S
C3 C8 1.382 . S
C4 C3 1.358 . S
C4 C5 1.385 . S
C4 H32 0.930 . S
C5 C4 1.385 . S
C5 C6 1.395 . S
C5 H33 0.929 . S
C6 C5 1.395 . S
C6 C7 1.335 . S
C7 C6 1.335 . S
C7 C8 1.398 . S
C7 H34 0.930 . S
C8 C3 1.382 . S
C8 C7 1.398 . S
C8 H35 0.929 . S
C9 O22 1.271 . S
C9 O23 1.251 . S
C10 O24 1.252 . S
C10 O25 1.272 . S
C11 Sm1 2.846 . S
C11 C12 1.506 . S
C11 O26 1.261 . S
C11 O27 1.242 . S
C12 C11 1.506 . S
C12 C13 1.358 . S
C12 C17 1.382 . S
C13 C12 1.358 . S
C13 C14 1.385 . S
C13 H36 0.930 . S
C14 C13 1.385 . S
C14 C15 1.395 . S
C14 H37 0.929 . S
C15 C14 1.395 . S
C15 C16 1.335 . S
C16 C15 1.335 . S
C16 C17 1.398 . S
C16 H38 0.930 . S
C17 C12 1.382 . S
C17 C16 1.398 . S
C17 H39 0.929 . S
C18 O28 1.271 . S
C18 O29 1.251 1_455 S
C19 O30 1.252 . S
C19 O31 1.272 . S
O20 Sm0 2.543 . S
O20 C2 1.261 . S
O21 Sm0 2.450 . S
O21 C2 1.242 . S
O22 Sm0 2.681 . S
O22 Sm1 2.386 1_455 S
O22 C9 1.271 . S
O23 Sm0 2.464 . S
O23 C9 1.251 . S
O24 Sm0 2.396 . S
O24 C10 1.252 . S
O25 Sm1 2.408 1_455 S
O25 C10 1.272 . S
O26 Sm1 2.543 . S
O26 C11 1.261 . S
O27 Sm1 2.450 . S
O27 C11 1.242 . S
O28 Sm0 2.386 . S
O28 Sm1 2.681 1_455 S
O28 C18 1.271 . S
O29 Sm1 2.464 . S
O29 C18 1.251 1_655 S
O30 Sm1 2.396 . S
O30 C19 1.252 . S
O31 Sm0 2.408 1_655 S
O31 C19 1.272 . S
H32 C4 0.930 . S
H33 C5 0.929 . S
H34 C7 0.930 . S
H35 C8 0.929 . S
H36 C13 0.930 . S
H37 C14 0.929 . S
H38 C16 0.930 . S
H39 C17 0.929 . S
Sm40 C42 2.846 . S
Sm40 O60 2.543 . S
Sm40 O61 2.450 . S
Sm40 O62 2.681 1_565 S
Sm40 O63 2.464 . S
Sm40 O64 2.396 . S
Sm40 O68 2.386 . S
Sm40 O71 2.408 1_565 S
Sm41 C51 2.846 . S
Sm41 O62 2.386 . S
Sm41 O65 2.408 1_545 S
Sm41 O66 2.543 . S
Sm41 O67 2.450 . S
Sm41 O68 2.682 1_545 S
Sm41 O69 2.464 . S
Sm41 O70 2.396 . S
C42 Sm40 2.846 . S
C42 C43 1.506 . S
C42 O60 1.261 . S
C42 O61 1.242 . S
C43 C42 1.506 . S
C43 C44 1.358 . S
C43 C48 1.382 . S
C44 C43 1.358 . S
C44 C45 1.385 . S
C44 H72 0.930 . S
C45 C44 1.385 . S
C45 C46 1.395 . S
C45 H73 0.929 . S
C46 C45 1.395 . S
C46 C47 1.335 . S
C47 C46 1.335 . S
C47 C48 1.398 . S
C47 H74 0.930 . S
C48 C43 1.382 . S
C48 C47 1.398 . S
C48 H75 0.929 . S
C49 O62 1.271 . S
C49 O63 1.251 1_545 S
C50 O64 1.252 . S
C50 O65 1.272 . S
C51 Sm41 2.846 . S
C51 C52 1.506 . S
C51 O66 1.261 . S
C51 O67 1.242 . S
C52 C51 1.506 . S
C52 C53 1.358 . S
C52 C57 1.382 . S
C53 C52 1.358 . S
C53 C54 1.385 . S
C53 H76 0.930 . S
C54 C53 1.385 . S
C54 C55 1.395 . S
C54 H77 0.929 . S
C55 C54 1.395 . S
C55 C56 1.335 . S
C56 C55 1.335 . S
C56 C57 1.398 . S
C56 H78 0.930 . S
C57 C52 1.382 . S
C57 C56 1.398 . S
C57 H79 0.929 . S
C58 O68 1.272 1_545 S
C58 O69 1.251 . S
C59 O70 1.252 . S
C59 O71 1.272 . S
O60 Sm40 2.543 . S
O60 C42 1.261 . S
O61 Sm40 2.450 . S
O61 C42 1.242 . S
O62 Sm40 2.681 1_545 S
O62 Sm41 2.386 . S
O62 C49 1.271 . S
O63 Sm40 2.464 . S
O63 C49 1.251 1_565 S
O64 Sm40 2.396 . S
O64 C50 1.252 . S
O65 Sm41 2.408 1_565 S
O65 C50 1.272 . S
O66 Sm41 2.543 . S
O66 C51 1.261 . S
O67 Sm41 2.450 . S
O67 C51 1.242 . S
O68 Sm40 2.386 . S
O68 Sm41 2.682 1_565 S
O68 C58 1.272 1_565 S
O69 Sm41 2.464 . S
O69 C58 1.251 . S
O70 Sm41 2.396 . S
O70 C59 1.252 . S
O71 Sm40 2.408 1_545 S
O71 C59 1.272 . S
H72 C44 0.930 . S
H73 C45 0.929 . S
H74 C47 0.930 . S
H75 C48 0.929 . S
H76 C53 0.930 . S
H77 C54 0.929 . S
H78 C56 0.930 . S
H79 C57 0.929 . S
Sm80 C82 2.846 . S
Sm80 O100 2.543 . S
Sm80 O101 2.450 . S
Sm80 O102 2.681 . S
Sm80 O103 2.464 . S
Sm80 O104 2.396 . S
Sm80 O108 2.386 . S
Sm80 O111 2.408 . S
Sm81 C91 2.846 . S
Sm81 O102 2.386 . S
Sm81 O105 2.408 . S
Sm81 O106 2.543 . S
Sm81 O107 2.450 . S
Sm81 O108 2.681 . S
Sm81 O109 2.464 . S
Sm81 O110 2.396 . S
C82 Sm80 2.846 . S
C82 C83 1.506 . S
C82 O100 1.261 . S
C82 O101 1.242 . S
C83 C82 1.506 . S
C83 C84 1.358 . S
C83 C88 1.382 . S
C84 C83 1.358 . S
C84 C85 1.385 . S
C84 H112 0.930 . S
C85 C84 1.385 . S
C85 C86 1.395 . S
C85 H113 0.929 . S
C86 C85 1.395 . S
C86 C87 1.335 . S
C87 C86 1.335 . S
C87 C88 1.398 . S
C87 H114 0.930 . S
C88 C83 1.382 . S
C88 C87 1.398 . S
C88 H115 0.929 . S
C89 O102 1.271 . S
C89 O103 1.251 . S
C90 O104 1.252 . S
C90 O105 1.272 . S
C91 Sm81 2.846 . S
C91 C92 1.506 . S
C91 O106 1.261 . S
C91 O107 1.242 . S
C92 C91 1.506 . S
C92 C93 1.358 . S
C92 C97 1.382 . S
C93 C92 1.358 . S
C93 C94 1.385 . S
C93 H116 0.930 . S
C94 C93 1.385 . S
C94 C95 1.395 . S
C94 H117 0.929 . S
C95 C94 1.395 . S
C95 C96 1.335 . S
C96 C95 1.335 . S
C96 C97 1.398 . S
C96 H118 0.930 . S
C97 C92 1.382 . S
C97 C96 1.398 . S
C97 H119 0.929 . S
C98 O108 1.271 . S
C98 O109 1.251 . S
C99 O110 1.252 . S
C99 O111 1.272 . S
O100 Sm80 2.543 . S
O100 C82 1.261 . S
O101 Sm80 2.450 . S
O101 C82 1.242 . S
O102 Sm80 2.681 . S
O102 Sm81 2.386 . S
O102 C89 1.271 . S
O103 Sm80 2.464 . S
O103 C89 1.251 . S
O104 Sm80 2.396 . S
O104 C90 1.252 . S
O105 Sm81 2.408 . S
O105 C90 1.272 . S
O106 Sm81 2.543 . S
O106 C91 1.261 . S
O107 Sm81 2.450 . S
O107 C91 1.242 . S
O108 Sm80 2.386 . S
O108 Sm81 2.681 . S
O108 C98 1.271 . S
O109 Sm81 2.464 . S
O109 C98 1.251 . S
O110 Sm81 2.396 . S
O110 C99 1.252 . S
O111 Sm80 2.408 . S
O111 C99 1.272 . S
H112 C84 0.930 . S
H113 C85 0.929 . S
H114 C87 0.930 . S
H115 C88 0.929 . S
H116 C93 0.930 . S
H117 C94 0.929 . S
H118 C96 0.930 . S
H119 C97 0.929 . S
O120 Cd121 2.300 . S
O120 C127 1.275 . S
Cd121 O120 2.300 . S
Cd121 O129 2.381 . S
Cd121 O130 2.378 . S
O122 Cd123 2.385 . S
O122 C127 1.255 1_565 S
Cd123 O122 2.385 . S
Cd123 O124 2.317 . S
O124 Cd123 2.317 . S
O124 C125 1.232 . S
C125 O124 1.232 . S
C125 O126 1.218 . S
O126 C125 1.218 . S
C127 O120 1.275 . S
C127 O122 1.255 1_545 S
C128 O129 1.258 . S
C128 O130 1.256 . S
O129 Cd121 2.381 . S
O129 C128 1.258 . S
O130 Cd121 2.378 . S
O130 C128 1.256 . S
O131 Cd132 2.300 . S
O131 C138 1.275 . S
Cd132 O131 2.300 . S
Cd132 O140 2.381 . S
Cd132 O141 2.378 . S
O133 Cd134 2.385 . S
O133 C138 1.255 . S
Cd134 O133 2.385 . S
Cd134 O135 2.317 . S
O135 Cd134 2.317 . S
O135 C136 1.232 . S
C136 O135 1.232 . S
C136 O137 1.218 . S
O137 C136 1.218 . S
C138 O131 1.275 . S
C138 O133 1.255 . S
C139 O140 1.258 . S
C139 O141 1.256 . S
O140 Cd132 2.381 . S
O140 C139 1.258 . S
O141 Cd132 2.378 . S
O141 C139 1.256 . S
O142 Cd143 2.300 . S
O142 C149 1.275 . S
Cd143 O142 2.300 . S
Cd143 O151 2.381 . S
Cd143 O152 2.378 . S
O144 Cd145 2.385 . S
O144 C149 1.255 1_655 S
Cd145 O144 2.385 . S
Cd145 O146 2.317 . S
O146 Cd145 2.317 . S
O146 C147 1.232 . S
C147 O146 1.232 . S
C147 O148 1.218 . S
O148 C147 1.218 . S
C149 O142 1.275 . S
C149 O144 1.255 1_455 S
C150 O151 1.258 . S
C150 O152 1.256 . S
O151 Cd143 2.381 . S
O151 C150 1.258 . S
O152 Cd143 2.378 . S
O152 C150 1.256 . S
O153 Cd154 2.300 . S
O153 C160 1.275 1_455 S
Cd154 O153 2.300 . S
Cd154 O162 2.381 . S
Cd154 O163 2.378 . S
O155 Cd156 2.385 . S
O155 C160 1.255 . S
Cd156 O155 2.385 . S
Cd156 O157 2.317 . S
O157 Cd156 2.317 . S
O157 C158 1.232 . S
C158 O157 1.232 . S
C158 O159 1.218 . S
O159 C158 1.218 . S
C160 O153 1.275 1_655 S
C160 O155 1.255 . S
C161 O162 1.258 . S
C161 O163 1.256 . S
O162 Cd154 2.381 . S
O162 C161 1.258 . S
O163 Cd154 2.378 . S
O163 C161 1.256 . S
O164 Cd165 2.300 . S
O164 C171 1.275 1_565 S
Cd165 O164 2.300 . S
Cd165 O173 2.381 . S
Cd165 O174 2.378 . S
O166 Cd167 2.385 . S
O166 C171 1.255 . S
Cd167 O166 2.385 . S
Cd167 O168 2.317 . S
O168 Cd167 2.317 . S
O168 C169 1.232 . S
C169 O168 1.232 . S
C169 O170 1.218 . S
O170 C169 1.218 . S
C171 O164 1.275 1_545 S
C171 O166 1.255 . S
C172 O173 1.258 . S
C172 O174 1.256 . S
O173 Cd165 2.381 . S
O173 C172 1.258 . S
O174 Cd165 2.378 . S
O174 C172 1.256 . S
O175 Cd176 2.300 . S
O175 C182 1.275 . S
Cd176 O175 2.300 . S
Cd176 O184 2.381 . S
Cd176 O185 2.378 . S
O177 Cd178 2.385 . S
O177 C182 1.255 . S
Cd178 O177 2.385 . S
Cd178 O179 2.317 . S
O179 Cd178 2.317 . S
O179 C180 1.232 . S
C180 O179 1.232 . S
C180 O181 1.218 . S
O181 C180 1.218 . S
C182 O175 1.275 . S
C182 O177 1.255 . S
C183 O184 1.258 . S
C183 O185 1.256 . S
O184 Cd176 2.381 . S
O184 C183 1.258 . S
O185 Cd176 2.378 . S
O185 C183 1.256 . S
H186 C192 0.930 . S
H187 C195 0.930 . S
H188 C196 0.930 . S
H189 C197 0.930 . S
H190 C200 0.930 . S
H191 C201 0.930 . S
C192 H186 0.930 . S
C192 C193 1.355 . S
C192 C194 1.415 . S
C193 C192 1.355 . S
C193 C195 1.419 . S
C194 C192 1.415 . S
C194 C199 1.425 . S
C194 C201 1.409 . S
C195 H187 0.930 . S
C195 C193 1.419 . S
C195 C196 1.362 . S
C196 H188 0.930 . S
C196 C195 1.362 . S
C196 C199 1.409 . S
C197 H189 0.930 . S
C197 C198 1.355 . S
C197 C199 1.415 . S
C198 C197 1.355 . S
C198 C200 1.419 . S
C199 C194 1.425 . S
C199 C196 1.409 . S
C199 C197 1.415 . S
C200 H190 0.930 . S
C200 C198 1.419 . S
C200 C201 1.362 . S
C201 H191 0.930 . S
C201 C194 1.409 . S
C201 C200 1.362 . S
H202 C208 0.930 . S
H203 C211 0.930 . S
H204 C212 0.930 . S
H205 C213 0.930 . S
H206 C216 0.930 . S
H207 C217 0.930 . S
C208 H202 0.930 . S
C208 C209 1.355 . S
C208 C210 1.415 . S
C209 C208 1.355 . S
C209 C211 1.419 . S
C210 C208 1.415 . S
C210 C215 1.425 . S
C210 C217 1.409 . S
C211 H203 0.930 . S
C211 C209 1.419 . S
C211 C212 1.362 . S
C212 H204 0.930 . S
C212 C211 1.362 . S
C212 C215 1.409 . S
C213 H205 0.930 . S
C213 C214 1.355 . S
C213 C215 1.415 . S
C214 C213 1.355 . S
C214 C216 1.419 . S
C215 C210 1.425 . S
C215 C212 1.409 . S
C215 C213 1.415 . S
C216 H206 0.930 . S
C216 C214 1.419 . S
C216 C217 1.362 . S
C217 H207 0.930 . S
C217 C210 1.409 . S
C217 C216 1.362 . S
H218 C224 0.930 . S
H219 C227 0.930 . S
H220 C228 0.930 . S
H221 C229 0.930 . S
H222 C232 0.930 . S
H223 C233 0.930 . S
C224 H218 0.930 . S
C224 C225 1.355 . S
C224 C226 1.415 . S
C225 C224 1.355 . S
C225 C227 1.419 . S
C226 C224 1.415 . S
C226 C231 1.425 . S
C226 C233 1.409 . S
C227 H219 0.930 . S
C227 C225 1.419 . S
C227 C228 1.362 . S
C228 H220 0.930 . S
C228 C227 1.362 . S
C228 C231 1.409 . S
C229 H221 0.930 . S
C229 C230 1.355 . S
C229 C231 1.415 . S
C230 C229 1.355 . S
C230 C232 1.419 . S
C231 C226 1.425 . S
C231 C228 1.409 . S
C231 C229 1.415 . S
C232 H222 0.930 . S
C232 C230 1.419 . S
C232 C233 1.362 . S
C233 H223 0.930 . S
C233 C226 1.409 . S
C233 C232 1.362 . S
H234 C240 0.930 . S
H235 C243 0.930 . S
H236 C244 0.930 . S
H237 C245 0.930 . S
H238 C248 0.930 . S
H239 C249 0.930 . S
C240 H234 0.930 . S
C240 C241 1.355 . S
C240 C242 1.415 . S
C241 C240 1.355 . S
C241 C243 1.419 . S
C242 C240 1.415 . S
C242 C247 1.425 . S
C242 C249 1.409 . S
C243 H235 0.930 . S
C243 C241 1.419 . S
C243 C244 1.362 . S
C244 H236 0.930 . S
C244 C243 1.362 . S
C244 C247 1.409 . S
C245 H237 0.930 . S
C245 C246 1.355 . S
C245 C247 1.415 . S
C246 C245 1.355 . S
C246 C248 1.419 . S
C247 C242 1.425 . S
C247 C244 1.409 . S
C247 C245 1.415 . S
C248 H238 0.930 . S
C248 C246 1.419 . S
C248 C249 1.362 . S
C249 H239 0.930 . S
C249 C242 1.409 . S
C249 C248 1.362 . S
H250 C256 0.930 . S
H251 C259 0.930 . S
H252 C260 0.930 . S
H253 C261 0.930 . S
H254 C264 0.930 . S
H255 C265 0.930 . S
C256 H250 0.930 . S
C256 C257 1.355 . S
C256 C258 1.415 . S
C257 C256 1.355 . S
C257 C259 1.419 . S
C258 C256 1.415 . S
C258 C263 1.425 . S
C258 C265 1.409 . S
C259 H251 0.930 . S
C259 C257 1.419 . S
C259 C260 1.362 . S
C260 H252 0.930 . S
C260 C259 1.362 . S
C260 C263 1.409 . S
C261 H253 0.930 . S
C261 C262 1.355 . S
C261 C263 1.415 . S
C262 C261 1.355 . S
C262 C264 1.419 . S
C263 C258 1.425 . S
C263 C260 1.409 . S
C263 C261 1.415 . S
C264 H254 0.930 . S
C264 C262 1.419 . S
C264 C265 1.362 . S
C265 H255 0.930 . S
C265 C258 1.409 . S
C265 C264 1.362 . S
H266 C272 0.930 . S
H267 C275 0.930 . S
H268 C276 0.930 . S
H269 C277 0.930 . S
H270 C280 0.930 . S
H271 C281 0.930 . S
C272 H266 0.930 . S
C272 C273 1.355 . S
C272 C274 1.415 . S
C273 C272 1.355 . S
C273 C275 1.419 . S
C274 C272 1.415 . S
C274 C279 1.425 . S
C274 C281 1.409 . S
C275 H267 0.930 . S
C275 C273 1.419 . S
C275 C276 1.362 . S
C276 H268 0.930 . S
C276 C275 1.362 . S
C276 C279 1.409 . S
C277 H269 0.930 . S
C277 C278 1.355 . S
C277 C279 1.415 . S
C278 C277 1.355 . S
C278 C280 1.419 . S
C279 C274 1.425 . S
C279 C276 1.409 . S
C279 C277 1.415 . S
C280 H270 0.930 . S
C280 C278 1.419 . S
C280 C281 1.362 . S
C281 H271 0.930 . S
C281 C274 1.409 . S
C281 C280 1.362 . S
H282 C288 0.930 . S
H283 C291 0.930 . S
H284 C292 0.930 . S
H285 C293 0.930 . S
H286 C296 0.930 . S
H287 C297 0.930 . S
C288 H282 0.930 . S
C288 C289 1.355 . S
C288 C290 1.415 . S
C289 C288 1.355 . S
C289 C291 1.419 . S
C290 C288 1.415 . S
C290 C295 1.425 . S
C290 C297 1.409 . S
C291 H283 0.930 . S
C291 C289 1.419 . S
C291 C292 1.362 . S
C292 H284 0.930 . S
C292 C291 1.362 . S
C292 C295 1.409 . S
C293 H285 0.930 . S
C293 C294 1.355 . S
C293 C295 1.415 . S
C294 C293 1.355 . S
C294 C296 1.419 . S
C295 C290 1.425 . S
C295 C292 1.409 . S
C295 C293 1.415 . S
C296 H286 0.930 . S
C296 C294 1.419 . S
C296 C297 1.362 . S
C297 H287 0.930 . S
C297 C290 1.409 . S
C297 C296 1.362 . S
H298 C304 0.930 . S
H299 C307 0.930 . S
H300 C308 0.930 . S
H301 C309 0.930 . S
H302 C312 0.930 . S
H303 C313 0.930 . S
C304 H298 0.930 . S
C304 C305 1.355 . S
C304 C306 1.415 . S
C305 C304 1.355 . S
C305 C307 1.419 . S
C306 C304 1.415 . S
C306 C311 1.425 . S
C306 C313 1.409 . S
C307 H299 0.930 . S
C307 C305 1.419 . S
C307 C308 1.362 . S
C308 H300 0.930 . S
C308 C307 1.362 . S
C308 C311 1.409 . S
C309 H301 0.930 . S
C309 C310 1.355 . S
C309 C311 1.415 . S
C310 C309 1.355 . S
C310 C312 1.419 . S
C311 C306 1.425 . S
C311 C308 1.409 . S
C311 C309 1.415 . S
C312 H302 0.930 . S
C312 C310 1.419 . S
C312 C313 1.362 . S
C313 H303 0.930 . S
C313 C306 1.409 . S
C313 C312 1.362 . S
H314 C320 0.930 . S
H315 C323 0.930 . S
H316 C324 0.930 . S
H317 C325 0.930 . S
H318 C328 0.930 . S
H319 C329 0.930 . S
C320 H314 0.930 . S
C320 C321 1.355 . S
C320 C322 1.415 . S
C321 C320 1.355 . S
C321 C323 1.419 . S
C322 C320 1.415 . S
C322 C327 1.425 . S
C322 C329 1.409 . S
C323 H315 0.930 . S
C323 C321 1.419 . S
C323 C324 1.362 . S
C324 H316 0.930 . S
C324 C323 1.362 . S
C324 C327 1.409 . S
C325 H317 0.930 . S
C325 C326 1.355 . S
C325 C327 1.415 . S
C326 C325 1.355 . S
C326 C328 1.419 . S
C327 C322 1.425 . S
C327 C324 1.409 . S
C327 C325 1.415 . S
C328 H318 0.930 . S
C328 C326 1.419 . S
C328 C329 1.362 . S
C329 H319 0.930 . S
C329 C322 1.409 . S
C329 C328 1.362 . S
H330 C336 0.930 . S
H331 C339 0.930 . S
H332 C340 0.930 . S
H333 C341 0.930 . S
H334 C344 0.930 . S
H335 C345 0.930 . S
C336 H330 0.930 . S
C336 C337 1.355 . S
C336 C338 1.415 . S
C337 C336 1.355 . S
C337 C339 1.419 . S
C338 C336 1.415 . S
C338 C343 1.425 . S
C338 C345 1.409 . S
C339 H331 0.930 . S
C339 C337 1.419 . S
C339 C340 1.362 . S
C340 H332 0.930 . S
C340 C339 1.362 . S
C340 C343 1.409 . S
C341 H333 0.930 . S
C341 C342 1.355 . S
C341 C343 1.415 . S
C342 C341 1.355 . S
C342 C344 1.419 . S
C343 C338 1.425 . S
C343 C340 1.409 . S
C343 C341 1.415 . S
C344 H334 0.930 . S
C344 C342 1.419 . S
C344 C345 1.362 . S
C345 H335 0.930 . S
C345 C338 1.409 . S
C345 C344 1.362 . S
H346 C352 0.930 . S
H347 C355 0.930 . S
H348 C356 0.930 . S
H349 C357 0.930 . S
H350 C360 0.930 . S
H351 C361 0.930 . S
C352 H346 0.930 . S
C352 C353 1.355 . S
C352 C354 1.415 . S
C353 C352 1.355 . S
C353 C355 1.419 . S
C354 C352 1.415 . S
C354 C359 1.425 . S
C354 C361 1.409 . S
C355 H347 0.930 . S
C355 C353 1.419 . S
C355 C356 1.362 . S
C356 H348 0.930 . S
C356 C355 1.362 . S
C356 C359 1.409 . S
C357 H349 0.930 . S
C357 C358 1.355 . S
C357 C359 1.415 . S
C358 C357 1.355 . S
C358 C360 1.419 . S
C359 C354 1.425 . S
C359 C356 1.409 . S
C359 C357 1.415 . S
C360 H350 0.930 . S
C360 C358 1.419 . S
C360 C361 1.362 . S
C361 H351 0.930 . S
C361 C354 1.409 . S
C361 C360 1.362 . S
H362 C368 0.930 . S
H363 C371 0.930 . S
H364 C372 0.930 . S
H365 C373 0.930 . S
H366 C376 0.930 . S
H367 C377 0.930 . S
C368 H362 0.930 . S
C368 C369 1.355 . S
C368 C370 1.415 . S
C369 C368 1.355 . S
C369 C371 1.419 . S
C370 C368 1.415 . S
C370 C375 1.425 . S
C370 C377 1.409 . S
C371 H363 0.930 . S
C371 C369 1.419 . S
C371 C372 1.362 . S
C372 H364 0.930 . S
C372 C371 1.362 . S
C372 C375 1.409 . S
C373 H365 0.930 . S
C373 C374 1.355 . S
C373 C375 1.415 . S
C374 C373 1.355 . S
C374 C376 1.419 . S
C375 C370 1.425 . S
C375 C372 1.409 . S
C375 C373 1.415 . S
C376 H366 0.930 . S
C376 C374 1.419 . S
C376 C377 1.362 . S
C377 H367 0.930 . S
C377 C370 1.409 . S
C377 C376 1.362 . S
H378 C384 0.930 . S
H379 C387 0.930 . S
H380 C388 0.930 . S
H381 C389 0.930 . S
H382 C392 0.930 . S
H383 C393 0.930 . S
C384 H378 0.930 . S
C384 C385 1.355 . S
C384 C386 1.415 . S
C385 C384 1.355 . S
C385 C387 1.419 . S
C386 C384 1.415 . S
C386 C391 1.425 . S
C386 C393 1.409 . S
C387 H379 0.930 . S
C387 C385 1.419 . S
C387 C388 1.362 . S
C388 H380 0.930 . S
C388 C387 1.362 . S
C388 C391 1.409 . S
C389 H381 0.930 . S
C389 C390 1.355 . S
C389 C391 1.415 1_556 S
C390 C389 1.355 . S
C390 C392 1.419 . S
C391 C386 1.425 . S
C391 C388 1.409 . S
C391 C389 1.415 1_554 S
C392 H382 0.930 . S
C392 C390 1.419 . S
C392 C393 1.362 1_556 S
C393 H383 0.930 . S
C393 C386 1.409 . S
C393 C392 1.362 1_554 S
H394 C400 0.930 . S
H395 C403 0.930 . S
H396 C404 0.930 . S
H397 C405 0.930 . S
H398 C408 0.930 . S
H399 C409 0.930 . S
C400 H394 0.930 . S
C400 C401 1.355 1_565 S
C400 C402 1.415 . S
C401 C400 1.355 1_545 S
C401 C403 1.419 . S
C402 C400 1.415 . S
C402 C407 1.425 1_565 S
C402 C409 1.409 . S
C403 H395 0.930 . S
C403 C401 1.419 . S
C403 C404 1.362 . S
C404 H396 0.930 . S
C404 C403 1.362 . S
C404 C407 1.409 . S
C405 H397 0.930 . S
C405 C406 1.355 . S
C405 C407 1.415 . S
C406 C405 1.355 . S
C406 C408 1.419 1_545 S
C407 C402 1.425 1_545 S
C407 C404 1.409 . S
C407 C405 1.415 . S
C408 H398 0.930 . S
C408 C406 1.419 1_565 S
C408 C409 1.362 . S
C409 H399 0.930 . S
C409 C402 1.409 . S
C409 C408 1.362 . S
H410 C416 0.930 . S
H411 C419 0.930 . S
H412 C420 0.930 . S
H413 C421 0.930 . S
H414 C424 0.930 . S
H415 C425 0.930 . S
C416 H410 0.930 . S
C416 C417 1.355 . S
C416 C418 1.415 . S
C417 C416 1.355 . S
C417 C419 1.419 . S
C418 C416 1.415 . S
C418 C423 1.425 . S
C418 C425 1.409 . S
C419 H411 0.930 . S
C419 C417 1.419 . S
C419 C420 1.362 . S
C420 H412 0.930 . S
C420 C419 1.362 . S
C420 C423 1.409 . S
C421 H413 0.930 . S
C421 C422 1.355 . S
C421 C423 1.415 . S
C422 C421 1.355 . S
C422 C424 1.419 . S
C423 C418 1.425 . S
C423 C420 1.409 . S
C423 C421 1.415 . S
C424 H414 0.930 . S
C424 C422 1.419 . S
C424 C425 1.362 . S
C425 H415 0.930 . S
C425 C418 1.409 . S
C425 C424 1.362 . S
H426 C432 0.930 . S
H427 C435 0.930 . S
H428 C436 0.930 . S
H429 C437 0.930 . S
H430 C440 0.930 . S
H431 C441 0.930 . S
C432 H426 0.930 . S
C432 C433 1.355 . S
C432 C434 1.415 . S
C433 C432 1.355 . S
C433 C435 1.419 1_545 S
C434 C432 1.415 . S
C434 C439 1.425 1_545 S
C434 C441 1.409 . S
C435 H427 0.930 . S
C435 C433 1.419 1_565 S
C435 C436 1.362 . S
C436 H428 0.930 . S
C436 C435 1.362 . S
C436 C439 1.409 . S
C437 H429 0.930 . S
C437 C438 1.355 1_565 S
C437 C439 1.415 . S
C438 C437 1.355 1_545 S
C438 C440 1.419 . S
C439 C434 1.425 1_565 S
C439 C436 1.409 . S
C439 C437 1.415 . S
C440 H430 0.930 . S
C440 C438 1.419 . S
C440 C441 1.362 . S
C441 H431 0.930 . S
C441 C434 1.409 . S
C441 C440 1.362 . S
H442 C448 0.930 . S
H443 C451 0.930 . S
H444 C452 0.930 . S
H445 C453 0.930 . S
H446 C456 0.930 . S
H447 C457 0.930 . S
C448 H442 0.930 . S
C448 C449 1.355 . S
C448 C450 1.415 . S
C449 C448 1.355 . S
C449 C451 1.419 . S
C450 C448 1.415 . S
C450 C455 1.425 . S
C450 C457 1.409 . S
C451 H443 0.930 . S
C451 C449 1.419 . S
C451 C452 1.362 . S
C452 H444 0.930 . S
C452 C451 1.362 . S
C452 C455 1.409 . S
C453 H445 0.930 . S
C453 C454 1.355 . S
C453 C455 1.415 1_554 S
C454 C453 1.355 . S
C454 C456 1.419 . S
C455 C450 1.425 . S
C455 C452 1.409 . S
C455 C453 1.415 1_556 S
C456 H446 0.930 . S
C456 C454 1.419 . S
C456 C457 1.362 1_554 S
C457 H447 0.930 . S
C457 C450 1.409 . S
C457 C456 1.362 1_556 S
H458 C464 0.930 . S
H459 C467 0.930 . S
H460 C468 0.930 . S
H461 C469 0.930 . S
H462 C472 0.930 . S
H463 C473 0.930 . S
C464 H458 0.930 . S
C464 C465 1.355 . S
C464 C466 1.415 . S
C465 C464 1.355 . S
C465 C467 1.419 1_455 S
C466 C464 1.415 . S
C466 C471 1.425 1_455 S
C466 C473 1.409 . S
C467 H459 0.930 . S
C467 C465 1.419 1_655 S
C467 C468 1.362 . S
C468 H460 0.930 . S
C468 C467 1.362 . S
C468 C471 1.409 . S
C469 H461 0.930 . S
C469 C470 1.355 . S
C469 C471 1.415 . S
C470 C469 1.355 . S
C470 C472 1.419 1_655 S
C471 C466 1.425 1_655 S
C471 C468 1.409 . S
C471 C469 1.415 . S
C472 H462 0.930 . S
C472 C470 1.419 1_455 S
C472 C473 1.362 . S
C473 H463 0.930 . S
C473 C466 1.409 . S
C473 C472 1.362 . S
C193 C6 0.735 . S
C198 C180 0.647 . S
C209 C59 2.041 . S
C214 C158 1.803 . S
C225 C86 1.119 . S
C230 C172 1.134 . S
C241 C15 0.555 . S
C246 C183 0.221 . S
C262 C161 1.835 . S
C257 C50 1.879 . S
C278 C169 1.209 . S
C273 C95 1.414 . S
C289 C46 1.342 . S
C294 C136 1.074 . S
C305 C99 3.249 . S
C310 C147 2.874 . S
C321 C10 2.083 . S
C326 C125 1.760 . S
C342 C139 1.097 . S
C337 C55 1.126 . S
C358 C150 2.876 . S
C353 C90 2.926 . S
C369 C19 1.802 . S
C374 C128 1.757 . S
C390 C149 1.681 . S
C385 C18 1.680 . S
C401 C49 1.404 . S
C406 C127 1.417 . S
C417 C98 1.514 . S
C422 C138 1.461 . S
C438 C171 1.464 . S
C433 C58 1.478 . S
C454 C182 1.149 . S
C449 C89 1.180 . S
C465 C9 1.436 . S
C470 C160 1.386 . S
