# Generated by pormake.
# Topology ocu, (6,8)-cn, num edge types: 1
# Building blocks:
#     Node 0, Type 0, BuildingBlock: KUMBOL_clean_sbu_1, # of connection points: 6
#     Node 1, Type 0, BuildingBlock: KUMBOL_clean_sbu_1, # of connection points: 6
#     Node 2, Type 0, BuildingBlock: KUMBOL_clean_sbu_1, # of connection points: 6
#     Node 3, Type 0, BuildingBlock: KUMBOL_clean_sbu_1, # of connection points: 6
#     Node 4, Type 0, BuildingBlock: KUMBOL_clean_sbu_1, # of connection points: 6
#     Node 5, Type 0, BuildingBlock: KUMBOL_clean_sbu_1, # of connection points: 6
#     Node 6, Type 0, BuildingBlock: KUMBOL_clean_sbu_1, # of connection points: 6
#     Node 7, Type 0, BuildingBlock: KUMBOL_clean_sbu_1, # of connection points: 6
#     Node 8, Type 1, BuildingBlock: TAGTUT_clean_sbu_1, # of connection points: 8
#     Node 9, Type 1, BuildingBlock: TAGTUT_clean_sbu_1, # of connection points: 8
#     Node 10, Type 1, BuildingBlock: TAGTUT_clean_sbu_1, # of connection points: 8
#     Node 11, Type 1, BuildingBlock: TAGTUT_clean_sbu_1, # of connection points: 8
#     Node 12, Type 1, BuildingBlock: TAGTUT_clean_sbu_1, # of connection points: 8
#     Node 13, Type 1, BuildingBlock: TAGTUT_clean_sbu_1, # of connection points: 8
#     Edge 14, Type (0, 1), BuildingBlock: XIVTED_clean_linker_0, # of connection points: 2
#     Edge 15, Type (0, 1), BuildingBlock: XIVTED_clean_linker_0, # of connection points: 2
#     Edge 16, Type (0, 1), BuildingBlock: XIVTED_clean_linker_0, # of connection points: 2
#     Edge 17, Type (0, 1), BuildingBlock: XIVTED_clean_linker_0, # of connection points: 2
#     Edge 18, Type (0, 1), BuildingBlock: XIVTED_clean_linker_0, # of connection points: 2
#     Edge 19, Type (0, 1), BuildingBlock: XIVTED_clean_linker_0, # of connection points: 2
#     Edge 20, Type (0, 1), BuildingBlock: XIVTED_clean_linker_0, # of connection points: 2
#     Edge 21, Type (0, 1), BuildingBlock: XIVTED_clean_linker_0, # of connection points: 2
#     Edge 22, Type (0, 1), BuildingBlock: XIVTED_clean_linker_0, # of connection points: 2
#     Edge 23, Type (0, 1), BuildingBlock: XIVTED_clean_linker_0, # of connection points: 2
#     Edge 24, Type (0, 1), BuildingBlock: XIVTED_clean_linker_0, # of connection points: 2
#     Edge 25, Type (0, 1), BuildingBlock: XIVTED_clean_linker_0, # of connection points: 2
#     Edge 26, Type (0, 1), BuildingBlock: XIVTED_clean_linker_0, # of connection points: 2
#     Edge 27, Type (0, 1), BuildingBlock: XIVTED_clean_linker_0, # of connection points: 2
#     Edge 28, Type (0, 1), BuildingBlock: XIVTED_clean_linker_0, # of connection points: 2
#     Edge 29, Type (0, 1), BuildingBlock: XIVTED_clean_linker_0, # of connection points: 2
#     Edge 30, Type (0, 1), BuildingBlock: XIVTED_clean_linker_0, # of connection points: 2
#     Edge 31, Type (0, 1), BuildingBlock: XIVTED_clean_linker_0, # of connection points: 2
#     Edge 32, Type (0, 1), BuildingBlock: XIVTED_clean_linker_0, # of connection points: 2
#     Edge 33, Type (0, 1), BuildingBlock: XIVTED_clean_linker_0, # of connection points: 2
#     Edge 34, Type (0, 1), BuildingBlock: XIVTED_clean_linker_0, # of connection points: 2
#     Edge 35, Type (0, 1), BuildingBlock: XIVTED_clean_linker_0, # of connection points: 2
#     Edge 36, Type (0, 1), BuildingBlock: XIVTED_clean_linker_0, # of connection points: 2
#     Edge 37, Type (0, 1), BuildingBlock: XIVTED_clean_linker_0, # of connection points: 2
#     Edge 38, Type (0, 1), BuildingBlock: XIVTED_clean_linker_0, # of connection points: 2
#     Edge 39, Type (0, 1), BuildingBlock: XIVTED_clean_linker_0, # of connection points: 2
#     Edge 40, Type (0, 1), BuildingBlock: XIVTED_clean_linker_0, # of connection points: 2
#     Edge 41, Type (0, 1), BuildingBlock: XIVTED_clean_linker_0, # of connection points: 2
#     Edge 42, Type (0, 1), BuildingBlock: XIVTED_clean_linker_0, # of connection points: 2
#     Edge 43, Type (0, 1), BuildingBlock: XIVTED_clean_linker_0, # of connection points: 2
#     Edge 44, Type (0, 1), BuildingBlock: XIVTED_clean_linker_0, # of connection points: 2
#     Edge 45, Type (0, 1), BuildingBlock: XIVTED_clean_linker_0, # of connection points: 2
#     Edge 46, Type (0, 1), BuildingBlock: XIVTED_clean_linker_0, # of connection points: 2
#     Edge 47, Type (0, 1), BuildingBlock: XIVTED_clean_linker_0, # of connection points: 2
#     Edge 48, Type (0, 1), BuildingBlock: XIVTED_clean_linker_0, # of connection points: 2
#     Edge 49, Type (0, 1), BuildingBlock: XIVTED_clean_linker_0, # of connection points: 2
#     Edge 50, Type (0, 1), BuildingBlock: XIVTED_clean_linker_0, # of connection points: 2
#     Edge 51, Type (0, 1), BuildingBlock: XIVTED_clean_linker_0, # of connection points: 2
#     Edge 52, Type (0, 1), BuildingBlock: XIVTED_clean_linker_0, # of connection points: 2
#     Edge 53, Type (0, 1), BuildingBlock: XIVTED_clean_linker_0, # of connection points: 2
#     Edge 54, Type (0, 1), BuildingBlock: XIVTED_clean_linker_0, # of connection points: 2
#     Edge 55, Type (0, 1), BuildingBlock: XIVTED_clean_linker_0, # of connection points: 2
#     Edge 56, Type (0, 1), BuildingBlock: XIVTED_clean_linker_0, # of connection points: 2
#     Edge 57, Type (0, 1), BuildingBlock: XIVTED_clean_linker_0, # of connection points: 2
#     Edge 58, Type (0, 1), BuildingBlock: XIVTED_clean_linker_0, # of connection points: 2
#     Edge 59, Type (0, 1), BuildingBlock: XIVTED_clean_linker_0, # of connection points: 2
#     Edge 60, Type (0, 1), BuildingBlock: XIVTED_clean_linker_0, # of connection points: 2
#     Edge 61, Type (0, 1), BuildingBlock: XIVTED_clean_linker_0, # of connection points: 2
# Relax obj value: 0.069
# Max RMSD: 0.176
# Mean RMSD: 0.096
data_MOF--net-ocu--node1-KUMBOL_clean_sbu_1--node2-TAGTUT_clean_sbu_1--edge1-XIVTED_clean_linker_0
_symmetry_space_group_name_H-M    P1
_symmetry_Int_Tables_number       1
_symmetry_cell_setting            triclinic
loop_
_symmetry_equiv_pos_as_xyz
'x, y, z'
_cell_length_a     41.214565
_cell_length_b     39.323644
_cell_length_c     43.846609
_cell_angle_alpha  100.40873
_cell_angle_beta   81.234915
_cell_angle_gamma 113.55572
loop_
_atom_site_label
_atom_site_type_symbol
_atom_site_fract_x
_atom_site_fract_y
_atom_site_fract_z
_atom_type_partial_charge
C0 C 0.32607 0.34156 0.31821 0.0
C1 C 0.29188 0.33119 0.36831 0.0
C2 C 0.29897 0.31815 0.33687 0.0
C3 C 0.31203 0.36803 0.3806 0.0
C4 C 0.34644 0.37855 0.33057 0.0
C5 C 0.3392 0.39164 0.36179 0.0
N6 N 0.33306 0.32791 0.28825 0.0
C7 C 0.36044 0.34961 0.26966 0.0
C8 C 0.37394 0.40114 0.31136 0.0
C9 C 0.38099 0.38656 0.2808 0.0
Gd10 Gd 0.22478 0.23368 0.21475 0.0
Gd11 Gd 0.29932 0.26429 0.27344 0.0
N12 N 0.28008 0.28242 0.32449 0.0
C13 C 0.26526 0.3065 0.3867 0.0
C14 C 0.25541 0.25782 0.34272 0.0
C15 C 0.24712 0.26959 0.37389 0.0
H16 H 0.24306 0.22883 0.33376 0.0
H17 H 0.22733 0.24993 0.38819 0.0
H18 H 0.28513 0.26301 0.15502 0.0
H19 H 0.36755 0.33825 0.24661 0.0
H20 H 0.2996 0.23837 0.10127 0.0
H21 H 0.25913 0.3154 0.41098 0.0
H22 H 0.30706 0.37843 0.40474 0.0
H23 H 0.15419 0.16324 0.24434 0.0
H24 H 0.39024 0.42964 0.32004 0.0
H25 H 0.4027 0.40355 0.26597 0.0
H26 H 0.214 0.11217 0.0883 0.0
H27 H 0.35473 0.41989 0.3717 0.0
H28 H 0.12929 0.06819 0.17424 0.0
H29 H 0.11744 0.0977 0.22718 0.0
N30 N 0.18928 0.17005 0.2028 0.0
C31 C 0.19613 0.15443 0.17344 0.0
C32 C 0.16116 0.15027 0.22189 0.0
C33 C 0.1464 0.09671 0.18202 0.0
C34 C 0.13968 0.11323 0.21197 0.0
C35 C 0.1746 0.1174 0.16222 0.0
H36 H 0.16492 0.07411 0.12245 0.0
N37 N 0.24474 0.21156 0.16545 0.0
C38 C 0.22422 0.17589 0.15412 0.0
C39 C 0.2587 0.18351 0.10424 0.0
C40 C 0.23092 0.16085 0.12323 0.0
C41 C 0.27092 0.23413 0.14672 0.0
C42 C 0.27868 0.22034 0.11602 0.0
O43 O 0.26551 0.30011 0.28087 0.0
O44 O 0.2111 0.26193 0.26215 0.0
O45 O 0.21574 0.27193 0.18958 0.0
O46 O 0.17363 0.21902 0.19837 0.0
O47 O 0.25283 0.20789 0.27456 0.0
O48 O 0.20462 0.21657 0.26236 0.0
O49 O 0.25895 0.19845 0.20829 0.0
O50 O 0.31298 0.23889 0.22522 0.0
O51 O 0.31127 0.22573 0.29686 0.0
O52 O 0.3528 0.27748 0.28286 0.0
O53 O 0.27034 0.29042 0.21286 0.0
O54 O 0.31896 0.28381 0.22649 0.0
C55 C 0.23109 0.29127 0.28028 0.0
C56 C 0.21851 0.20079 0.27775 0.0
C57 C 0.15575 0.26588 0.1891 0.0
C58 C 0.12873 0.299 0.16623 0.0
C59 C 0.09806 0.2665 0.21065 0.0
C60 C 0.12617 0.25548 0.21122 0.0
C61 C 0.09924 0.28804 0.18821 0.0
C62 C 0.15703 0.28795 0.16668 0.0
C63 C 0.18275 0.24964 0.18621 0.0
C64 C 0.20937 0.12407 0.11205 0.0
C65 C 0.1814 0.10238 0.1315 0.0
H66 H 0.26452 0.17305 0.08031 0.0
C67 C 0.29356 0.2086 0.20796 0.0
C68 C 0.30487 0.29927 0.21099 0.0
C69 C 0.37314 0.24076 0.30766 0.0
C70 C 0.39406 0.20354 0.33254 0.0
C71 C 0.43616 0.26055 0.31326 0.0
C72 C 0.40851 0.26629 0.3033 0.0
C73 C 0.42905 0.22932 0.32768 0.0
C74 C 0.36587 0.20929 0.32269 0.0
C75 C 0.3449 0.24766 0.29581 0.0
H76 H 0.07502 0.25777 0.22729 0.0
H77 H 0.12427 0.23795 0.22837 0.0
H78 H 0.07689 0.29578 0.18767 0.0
H79 H 0.17929 0.29535 0.14902 0.0
H80 H 0.46322 0.2804 0.30981 0.0
H81 H 0.415 0.29082 0.292 0.0
H82 H 0.45093 0.22547 0.33548 0.0
H83 H 0.33881 0.18949 0.32654 0.0
C84 C 0.83711 0.20633 0.17433 0.0
C85 C 0.89501 0.2572 0.17811 0.0
C86 C 0.86017 0.23828 0.19104 0.0
C87 C 0.90647 0.24348 0.14841 0.0
C88 C 0.84841 0.19286 0.14432 0.0
C89 C 0.88322 0.21149 0.13155 0.0
N90 N 0.80343 0.18895 0.1871 0.0
C91 C 0.78014 0.15748 0.17162 0.0
C92 C 0.82431 0.16114 0.12794 0.0
C93 C 0.79005 0.14334 0.14169 0.0
Gd94 Gd 0.73549 0.28333 0.25062 0.0
Gd95 Gd 0.79015 0.2146 0.23748 0.0
N96 N 0.84793 0.25181 0.21929 0.0
C97 C 0.91718 0.28967 0.19524 0.0
C98 C 0.86957 0.28312 0.23625 0.0
C99 C 0.9044 0.30264 0.22443 0.0
H100 H 0.86011 0.29323 0.25876 0.0
H101 H 0.92139 0.32766 0.23788 0.0
H102 H 0.66363 0.21092 0.22315 0.0
H103 H 0.75429 0.14261 0.1827 0.0
H104 H 0.60183 0.17546 0.2416 0.0
H105 H 0.94414 0.30497 0.18611 0.0
H106 H 0.93317 0.25763 0.13814 0.0
H107 H 0.76241 0.36262 0.30037 0.0
H108 H 0.83196 0.15001 0.10478 0.0
H109 H 0.77141 0.11847 0.12942 0.0
H110 H 0.5857 0.24103 0.34248 0.0
H111 H 0.8924 0.20146 0.10856 0.0
H112 H 0.68187 0.354 0.37612 0.0
H113 H 0.7416 0.38872 0.35153 0.0
N114 N 0.71648 0.31233 0.2975 0.0
C115 C 0.68287 0.29389 0.30965 0.0
C116 C 0.73694 0.34661 0.31159 0.0
C117 C 0.69121 0.34214 0.35398 0.0
C118 C 0.72495 0.36177 0.34024 0.0
C119 C 0.66941 0.30811 0.33841 0.0
H120 H 0.6238 0.29874 0.37252 0.0
N121 N 0.67525 0.24857 0.26498 0.0
C122 C 0.66146 0.26129 0.29275 0.0
C123 C 0.6046 0.21045 0.28577 0.0
C124 C 0.62596 0.24217 0.30415 0.0
C125 C 0.65392 0.21896 0.24625 0.0
C126 C 0.6185 0.19918 0.25647 0.0
O127 O 0.7996 0.25395 0.20216 0.0
O128 O 0.7932 0.3047 0.23268 0.0
O129 O 0.71275 0.29362 0.21232 0.0
O130 O 0.74031 0.33898 0.24772 0.0
O131 O 0.79576 0.2548 0.2821 0.0
O132 O 0.78585 0.30695 0.27466 0.0
O133 O 0.72191 0.24344 0.28643 0.0
O134 O 0.73494 0.19223 0.26186 0.0
O135 O 0.82089 0.20642 0.26977 0.0
O136 O 0.79466 0.16102 0.23478 0.0
O137 O 0.73149 0.24066 0.20784 0.0
O138 O 0.73538 0.18805 0.2206 0.0
C139 C 0.80549 0.28974 0.20684 0.0
C140 C 0.79865 0.28979 0.28996 0.0
C141 C 0.71969 0.35795 0.20801 0.0
C142 C 0.68901 0.37686 0.17519 0.0
C143 C 0.7388 0.42352 0.20175 0.0
C144 C 0.74262 0.39561 0.21467 0.0
C145 C 0.71203 0.41426 0.18219 0.0
C146 C 0.69299 0.34856 0.18791 0.0
C147 C 0.7237 0.32927 0.22279 0.0
C148 C 0.6128 0.25556 0.33323 0.0
C149 C 0.6345 0.28841 0.35035 0.0
H150 H 0.57714 0.19508 0.29361 0.0
C151 C 0.71842 0.20828 0.28422 0.0
C152 C 0.72304 0.20425 0.20401 0.0
C153 C 0.80738 0.1446 0.28005 0.0
C154 C 0.82996 0.12172 0.31714 0.0
C155 C 0.77065 0.08634 0.30051 0.0
C156 C 0.77531 0.11319 0.28153 0.0
C157 C 0.79778 0.09053 0.31822 0.0
C158 C 0.83471 0.14872 0.29798 0.0
C159 C 0.81413 0.17162 0.25814 0.0
H160 H 0.75649 0.45243 0.20707 0.0
H161 H 0.76354 0.40355 0.22994 0.0
H162 H 0.70914 0.43632 0.17257 0.0
H163 H 0.675 0.3197 0.18272 0.0
H164 H 0.74608 0.06194 0.3012 0.0
H165 H 0.75408 0.10906 0.26767 0.0
H166 H 0.79391 0.06908 0.33239 0.0
H167 H 0.85985 0.17242 0.29651 0.0
C168 C 0.8461 0.81977 0.17482 0.0
C169 C 0.83664 0.78628 0.12251 0.0
C170 C 0.82381 0.79297 0.15376 0.0
C171 C 0.87231 0.80641 0.11278 0.0
C172 C 0.88181 0.8404 0.16491 0.0
C173 C 0.89483 0.83332 0.13392 0.0
N174 N 0.83266 0.82635 0.20465 0.0
C175 C 0.85304 0.85478 0.22504 0.0
C176 C 0.90325 0.86808 0.18627 0.0
C177 C 0.88869 0.87551 0.21636 0.0
Gd178 Gd 0.74807 0.70961 0.27314 0.0
Gd179 Gd 0.77206 0.78994 0.21564 0.0
N180 N 0.78958 0.77322 0.16393 0.0
C181 C 0.81311 0.75971 0.10192 0.0
C182 C 0.76608 0.74895 0.14371 0.0
C183 C 0.77757 0.74126 0.11251 0.0
H184 H 0.73836 0.73637 0.15147 0.0
H185 H 0.75892 0.72157 0.09657 0.0
H186 H 0.78191 0.77074 0.33474 0.0
H187 H 0.84192 0.86254 0.24781 0.0
H188 H 0.76216 0.78691 0.38949 0.0
H189 H 0.82193 0.75383 0.07771 0.0
H190 H 0.88269 0.80158 0.08887 0.0
H191 H 0.67735 0.63762 0.24196 0.0
H192 H 0.9308 0.8845 0.17954 0.0
H193 H 0.90476 0.89769 0.23274 0.0
H194 H 0.64066 0.70144 0.40125 0.0
H195 H 0.92219 0.84888 0.12595 0.0
H196 H 0.59124 0.61425 0.313 0.0
H197 H 0.61545 0.60111 0.25908 0.0
N198 N 0.68783 0.67378 0.28501 0.0
C199 C 0.67528 0.68104 0.31503 0.0
C200 C 0.66698 0.6451 0.26514 0.0
C201 C 0.61836 0.63116 0.30543 0.0
C202 C 0.63188 0.62373 0.27493 0.0
C203 C 0.64014 0.65984 0.32599 0.0
H204 H 0.60105 0.65138 0.36592 0.0
N205 N 0.73144 0.73002 0.32406 0.0
C206 C 0.69773 0.70958 0.33513 0.0
C207 C 0.70884 0.7457 0.38598 0.0
C208 C 0.68546 0.7172 0.36641 0.0
C209 C 0.75468 0.75683 0.3432 0.0
C210 C 0.74365 0.76546 0.37435 0.0
O211 O 0.80025 0.74863 0.20014 0.0
O212 O 0.77565 0.69636 0.22683 0.0
O213 O 0.78392 0.69973 0.30014 0.0
O214 O 0.73835 0.65355 0.27986 0.0
O215 O 0.71987 0.74021 0.2179 0.0
O216 O 0.7283 0.68858 0.22604 0.0
O217 O 0.7161 0.74761 0.28334 0.0
O218 O 0.75027 0.80417 0.26473 0.0
O219 O 0.73208 0.79956 0.19355 0.0
O220 O 0.78159 0.84525 0.20712 0.0
O221 O 0.80176 0.75662 0.2686 0.0
O222 O 0.79358 0.80904 0.26235 0.0
C223 C 0.79718 0.71499 0.20468 0.0
C224 C 0.71669 0.70537 0.20966 0.0
C225 C 0.77339 0.63524 0.30805 0.0
C226 C 0.81205 0.61569 0.33174 0.0
C227 C 0.75721 0.56946 0.31216 0.0
C228 C 0.74985 0.59757 0.3031 0.0
C229 C 0.78815 0.57837 0.3262 0.0
C230 C 0.80449 0.64436 0.32291 0.0
C231 C 0.76556 0.66367 0.2959 0.0
C232 C 0.65049 0.69604 0.37726 0.0
C233 C 0.62791 0.66752 0.35712 0.0
H234 H 0.70044 0.75227 0.41019 0.0
C235 C 0.72399 0.7837 0.28311 0.0
C236 C 0.80824 0.79234 0.27583 0.0
C237 C 0.7429 0.86348 0.18354 0.0
C238 C 0.70501 0.88202 0.1578 0.0
C239 C 0.7574 0.92925 0.18065 0.0
C240 C 0.76502 0.90149 0.19002 0.0
C241 C 0.72757 0.91966 0.16478 0.0
C242 C 0.71286 0.85371 0.16699 0.0
C243 C 0.752 0.83517 0.19454 0.0
H244 H 0.73897 0.54059 0.30805 0.0
H245 H 0.72575 0.58959 0.29183 0.0
H246 H 0.79344 0.55599 0.33292 0.0
H247 H 0.82305 0.67316 0.3268 0.0
H248 H 0.77463 0.95836 0.18584 0.0
H249 H 0.78831 0.90999 0.20256 0.0
H250 H 0.72211 0.94177 0.15778 0.0
H251 H 0.69553 0.82461 0.16174 0.0
C252 C 0.28075 0.67636 0.30438 0.0
C253 C 0.2387 0.61312 0.2904 0.0
C254 C 0.25825 0.64988 0.28319 0.0
C255 C 0.24261 0.60325 0.31846 0.0
C256 C 0.28523 0.66627 0.33227 0.0
C257 C 0.26608 0.6296 0.33915 0.0
N258 N 0.29868 0.7119 0.29753 0.0
C259 C 0.32273 0.73807 0.31643 0.0
C260 C 0.30936 0.69322 0.3522 0.0
C261 C 0.3283 0.72924 0.34416 0.0
Gd262 Gd 0.22959 0.7766 0.24538 0.0
Gd263 Gd 0.29341 0.72225 0.24831 0.0
N264 N 0.25626 0.65969 0.25537 0.0
C265 C 0.21631 0.58699 0.26891 0.0
C266 C 0.23611 0.63334 0.2336 0.0
C267 C 0.21513 0.59713 0.24038 0.0
H268 H 0.23666 0.63904 0.21051 0.0
H269 H 0.19878 0.5767 0.22317 0.0
H270 H 0.28528 0.85992 0.2774 0.0
H271 H 0.33836 0.7654 0.30962 0.0
H272 H 0.31297 0.92492 0.26616 0.0
H273 H 0.2006 0.55863 0.27374 0.0
H274 H 0.22805 0.57504 0.32414 0.0
H275 H 0.17795 0.7279 0.18701 0.0
H276 H 0.31393 0.68637 0.3736 0.0
H277 H 0.34754 0.75001 0.35908 0.0
H278 H 0.26768 0.92128 0.17064 0.0
H279 H 0.26932 0.6213 0.36039 0.0
H280 H 0.18876 0.80313 0.12359 0.0
H281 H 0.16272 0.73942 0.13884 0.0
N282 N 0.21562 0.78336 0.19734 0.0
C283 C 0.22914 0.81891 0.18999 0.0
C284 C 0.19131 0.75524 0.17976 0.0
C285 C 0.1965 0.79795 0.1443 0.0
C286 C 0.18188 0.76192 0.15275 0.0
C287 C 0.2201 0.8271 0.16317 0.0
H288 H 0.22747 0.8709 0.1359 0.0
N289 N 0.25932 0.83889 0.23561 0.0
C290 C 0.25129 0.84752 0.20985 0.0
C291 C 0.28839 0.91273 0.22339 0.0
C292 C 0.26563 0.88476 0.20305 0.0
C293 C 0.28053 0.86632 0.25608 0.0
C294 C 0.29584 0.90343 0.25003 0.0
O295 O 0.25384 0.72531 0.28942 0.0
O296 O 0.20885 0.72055 0.26296 0.0
O297 O 0.20869 0.81222 0.27741 0.0
O298 O 0.17233 0.76363 0.25118 0.0
O299 O 0.2632 0.703 0.20491 0.0
O300 O 0.21351 0.71773 0.22083 0.0
O301 O 0.28419 0.79829 0.21979 0.0
O302 O 0.30148 0.7483 0.20396 0.0
O303 O 0.32399 0.68736 0.23692 0.0
O304 O 0.3511 0.74748 0.2455 0.0
O305 O 0.26067 0.79298 0.28784 0.0
O306 O 0.31125 0.7837 0.2656 0.0
C307 C 0.21985 0.71444 0.28703 0.0
C308 C 0.23108 0.70046 0.20107 0.0
C309 C 0.15378 0.78092 0.30351 0.0
C310 C 0.15349 0.8061 0.35769 0.0
C311 C 0.09785 0.77498 0.33337 0.0
C312 C 0.11687 0.76995 0.30482 0.0
C313 C 0.11625 0.7946 0.35954 0.0
C314 C 0.17054 0.79298 0.33119 0.0
C315 C 0.17575 0.79022 0.27429 0.0
C316 C 0.257 0.89286 0.1762 0.0
C317 C 0.23421 0.86414 0.15636 0.0
H318 H 0.30011 0.94159 0.21887 0.0
C319 C 0.30391 0.7822 0.20157 0.0
C320 C 0.29479 0.80001 0.28749 0.0
C321 C 0.37362 0.71489 0.20418 0.0
C322 C 0.36992 0.69954 0.14842 0.0
C323 C 0.42658 0.71881 0.17029 0.0
C324 C 0.40996 0.72217 0.20033 0.0
C325 C 0.40668 0.70719 0.1444 0.0
C326 C 0.35427 0.70485 0.1783 0.0
C327 C 0.35417 0.71575 0.23465 0.0
H328 H 0.06945 0.76748 0.33438 0.0
H329 H 0.10329 0.76003 0.28372 0.0
H330 H 0.10192 0.80397 0.37985 0.0
H331 H 0.19904 0.80086 0.33045 0.0
H332 H 0.45462 0.72387 0.16713 0.0
H333 H 0.42515 0.72987 0.22034 0.0
H334 H 0.41967 0.70224 0.12162 0.0
H335 H 0.32613 0.69916 0.1816 0.0
C336 C 0.3401 0.71346 0.67696 0.0
C337 C 0.39997 0.75884 0.68499 0.0
C338 C 0.36404 0.74147 0.69602 0.0
C339 C 0.41122 0.7489 0.65405 0.0
C340 C 0.35174 0.70243 0.64624 0.0
C341 C 0.38715 0.72087 0.6347 0.0
N342 N 0.30628 0.69521 0.68912 0.0
C343 C 0.28416 0.66352 0.67275 0.0
C344 C 0.32791 0.67208 0.62844 0.0
C345 C 0.29415 0.65217 0.64195 0.0
Gd346 Gd 0.23554 0.78252 0.74946 0.0
Gd347 Gd 0.29292 0.71716 0.7412 0.0
N348 N 0.35242 0.7509 0.72579 0.0
C349 C 0.42371 0.78495 0.70567 0.0
C350 C 0.37569 0.77467 0.74657 0.0
C351 C 0.4116 0.79252 0.7367 0.0
H352 H 0.36628 0.78001 0.77064 0.0
H353 H 0.42991 0.81192 0.75302 0.0
H354 H 0.16155 0.71777 0.7196 0.0
H355 H 0.25925 0.64599 0.68356 0.0
H356 H 0.09735 0.69053 0.73583 0.0
H357 H 0.45157 0.79874 0.69809 0.0
H358 H 0.43868 0.76211 0.64506 0.0
H359 H 0.2719 0.85047 0.80776 0.0
H360 H 0.33584 0.66275 0.60477 0.0
H361 H 0.27616 0.62746 0.62895 0.0
H362 H 0.0865 0.75033 0.84028 0.0
H363 H 0.39648 0.71284 0.61112 0.0
H364 H 0.19149 0.84316 0.88296 0.0
H365 H 0.25385 0.872 0.86124 0.0
N366 N 0.22171 0.80618 0.80049 0.0
C367 C 0.18679 0.79149 0.81114 0.0
C368 C 0.24527 0.83587 0.81751 0.0
C369 C 0.19959 0.83268 0.85972 0.0
C370 C 0.23485 0.84891 0.84763 0.0
C371 C 0.17488 0.80421 0.84121 0.0
H372 H 0.12913 0.79815 0.87471 0.0
N373 N 0.17479 0.75195 0.76286 0.0
C374 C 0.16262 0.76416 0.79166 0.0
C375 C 0.10252 0.72258 0.78147 0.0
C376 C 0.12614 0.7494 0.80185 0.0
C377 C 0.15192 0.72612 0.74279 0.0
C378 C 0.11547 0.71099 0.75181 0.0
O379 O 0.31719 0.77395 0.72425 0.0
O380 O 0.27015 0.77695 0.70538 0.0
O381 O 0.20329 0.80081 0.72653 0.0
O382 O 0.25194 0.84189 0.74662 0.0
O383 O 0.28957 0.75582 0.78509 0.0
O384 O 0.28904 0.80788 0.76877 0.0
O385 O 0.21961 0.73991 0.78341 0.0
O386 O 0.23569 0.69029 0.75959 0.0
O387 O 0.31182 0.70698 0.78123 0.0
O388 O 0.30738 0.66938 0.73798 0.0
O389 O 0.22839 0.73857 0.70785 0.0
O390 O 0.24071 0.68928 0.71856 0.0
C391 C 0.30427 0.78501 0.70424 0.0
C392 C 0.29933 0.79223 0.78746 0.0
C393 C 0.21789 0.86595 0.72192 0.0
C394 C 0.19252 0.88831 0.68681 0.0
C395 C 0.22452 0.93091 0.72964 0.0
C396 C 0.23088 0.90202 0.7385 0.0
C397 C 0.20562 0.92421 0.70395 0.0
C398 C 0.19828 0.85898 0.6962 0.0
C399 C 0.22438 0.83576 0.73202 0.0
C400 C 0.11439 0.76162 0.83198 0.0
C401 C 0.13869 0.7888 0.85163 0.0
H402 H 0.07428 0.71067 0.78841 0.0
C403 C 0.21635 0.70473 0.78027 0.0
C404 C 0.22463 0.70322 0.70328 0.0
C405 C 0.31109 0.64645 0.78341 0.0
C406 C 0.333 0.62265 0.82007 0.0
C407 C 0.28458 0.58047 0.78947 0.0
C408 C 0.28608 0.61023 0.77529 0.0
C409 C 0.30792 0.5866 0.81175 0.0
C410 C 0.33446 0.65251 0.80588 0.0
C411 C 0.31669 0.67744 0.76624 0.0
H412 H 0.23428 0.95862 0.74272 0.0
H413 H 0.24558 0.90777 0.75857 0.0
H414 H 0.20097 0.94715 0.69756 0.0
H415 H 0.18828 0.8312 0.68318 0.0
H416 H 0.26571 0.55247 0.78278 0.0
H417 H 0.26834 0.60479 0.75755 0.0
H418 H 0.30692 0.56309 0.82204 0.0
H419 H 0.35447 0.68021 0.81167 0.0
C420 C 0.34594 0.31848 0.67664 0.0
C421 C 0.3373 0.28499 0.62421 0.0
C422 C 0.32395 0.29145 0.65535 0.0
C423 C 0.373 0.30544 0.6148 0.0
C424 C 0.38171 0.33932 0.66702 0.0
C425 C 0.39512 0.33246 0.63613 0.0
N426 N 0.33224 0.32493 0.70642 0.0
C427 C 0.35248 0.3529 0.72717 0.0
C428 C 0.40288 0.36695 0.68859 0.0
C429 C 0.38813 0.37389 0.71871 0.0
Gd430 Gd 0.2493 0.20838 0.77265 0.0
Gd431 Gd 0.27147 0.28901 0.71641 0.0
N432 N 0.28942 0.27183 0.66496 0.0
C433 C 0.31415 0.25863 0.60324 0.0
C434 C 0.26639 0.24758 0.64438 0.0
C435 C 0.27845 0.24012 0.61332 0.0
H436 H 0.23851 0.23515 0.65166 0.0
H437 H 0.26009 0.22065 0.59705 0.0
H438 H 0.28357 0.25474 0.83827 0.0
H439 H 0.34126 0.36009 0.75005 0.0
H440 H 0.26337 0.26567 0.89406 0.0
H441 H 0.32336 0.25304 0.57909 0.0
H442 H 0.38369 0.30086 0.59096 0.0
H443 H 0.17881 0.13698 0.73923 0.0
H444 H 0.43044 0.38357 0.68206 0.0
H445 H 0.40407 0.39586 0.7353 0.0
H446 H 0.13808 0.19132 0.89947 0.0
H447 H 0.42251 0.34826 0.62839 0.0
H448 H 0.08927 0.11509 0.80658 0.0
H449 H 0.11569 0.10295 0.75334 0.0
N450 N 0.18808 0.17264 0.78275 0.0
C451 C 0.17449 0.17809 0.81273 0.0
C452 C 0.16766 0.14482 0.76194 0.0
C453 C 0.11698 0.13133 0.80022 0.0
C454 C 0.13176 0.1245 0.77011 0.0
C455 C 0.13854 0.15771 0.82217 0.0
H456 H 0.09793 0.14801 0.86098 0.0
N457 N 0.23172 0.22123 0.82508 0.0
C458 C 0.19707 0.2025 0.8346 0.0
C459 C 0.2085 0.2307 0.88766 0.0
C460 C 0.18441 0.20715 0.86619 0.0
C461 C 0.25571 0.24249 0.84602 0.0
C462 C 0.24439 0.24817 0.87756 0.0
O463 O 0.30476 0.25221 0.70659 0.0
O464 O 0.26939 0.19492 0.72297 0.0
O465 O 0.29198 0.19908 0.79052 0.0
O466 O 0.24055 0.15351 0.78212 0.0
O467 O 0.21885 0.24002 0.71274 0.0
O468 O 0.22714 0.18978 0.72571 0.0
O469 O 0.22986 0.2554 0.79412 0.0
O470 O 0.22779 0.28713 0.75502 0.0
O471 O 0.24225 0.30315 0.68663 0.0
O472 O 0.27986 0.34731 0.71693 0.0
O473 O 0.30111 0.25848 0.77027 0.0
O474 O 0.28934 0.30892 0.76445 0.0
C475 C 0.29638 0.21586 0.70557 0.0
C476 C 0.21218 0.20419 0.70998 0.0
C477 C 0.28297 0.13619 0.80098 0.0
C478 C 0.3212 0.11983 0.82796 0.0
C479 C 0.2728 0.07091 0.80119 0.0
C480 C 0.26354 0.09786 0.79229 0.0
C481 C 0.30146 0.08178 0.81891 0.0
C482 C 0.31196 0.14719 0.819 0.0
C483 C 0.27195 0.1638 0.79142 0.0
C484 C 0.14838 0.18788 0.87536 0.0
C485 C 0.12551 0.16328 0.85341 0.0
H486 H 0.19979 0.23503 0.91213 0.0
C487 C 0.21951 0.27864 0.78367 0.0
C488 C 0.30353 0.29296 0.77921 0.0
C489 C 0.24806 0.36707 0.68573 0.0
C490 C 0.20898 0.38387 0.66028 0.0
C491 C 0.2576 0.43238 0.68709 0.0
C492 C 0.26738 0.40522 0.695 0.0
C493 C 0.22844 0.4218 0.66998 0.0
C494 C 0.21896 0.35646 0.66793 0.0
C495 C 0.25656 0.33868 0.69688 0.0
H496 H 0.25757 0.04149 0.79448 0.0
H497 H 0.24109 0.08859 0.77853 0.0
H498 H 0.308 0.06042 0.82598 0.0
H499 H 0.32684 0.17658 0.82634 0.0
H500 H 0.27255 0.46171 0.6944 0.0
H501 H 0.28978 0.4141 0.70875 0.0
H502 H 0.22125 0.44328 0.66397 0.0
H503 H 0.20373 0.32715 0.66057 0.0
C504 C 0.78383 0.17845 0.8029 0.0
C505 C 0.74455 0.11486 0.78602 0.0
C506 C 0.7635 0.15227 0.78025 0.0
C507 C 0.74659 0.10423 0.81438 0.0
C508 C 0.78673 0.16763 0.83099 0.0
C509 C 0.76791 0.13043 0.83664 0.0
N510 N 0.80098 0.21456 0.79736 0.0
C511 C 0.82328 0.24066 0.81766 0.0
C512 C 0.80886 0.1945 0.85244 0.0
C513 C 0.82742 0.23112 0.84562 0.0
Gd514 Gd 0.72882 0.27655 0.74605 0.0
Gd515 Gd 0.79631 0.22745 0.74887 0.0
N516 N 0.76303 0.16308 0.75245 0.0
C517 C 0.72462 0.08895 0.76289 0.0
C518 C 0.74564 0.13703 0.72908 0.0
C519 C 0.72543 0.10003 0.73424 0.0
H520 H 0.74769 0.14373 0.70602 0.0
H521 H 0.7111 0.07982 0.7158 0.0
H522 H 0.78103 0.36089 0.779 0.0
H523 H 0.83837 0.26866 0.81196 0.0
H524 H 0.81089 0.42532 0.76609 0.0
H525 H 0.70941 0.06007 0.76656 0.0
H526 H 0.7323 0.07559 0.81907 0.0
H527 H 0.67723 0.22723 0.68794 0.0
H528 H 0.81215 0.18716 0.87411 0.0
H529 H 0.84511 0.25189 0.86175 0.0
H530 H 0.77494 0.41785 0.66524 0.0
H531 H 0.76977 0.1216 0.85811 0.0
H532 H 0.694 0.29961 0.62021 0.0
H533 H 0.66443 0.23732 0.63808 0.0
N534 N 0.71665 0.28209 0.6969 0.0
C535 C 0.73205 0.31699 0.68813 0.0
C536 C 0.69187 0.25397 0.67972 0.0
C537 C 0.7006 0.29505 0.64172 0.0
C538 C 0.68394 0.25982 0.65168 0.0
C539 C 0.72465 0.32432 0.66017 0.0
H540 H 0.73517 0.36685 0.63057 0.0
N541 N 0.75928 0.33846 0.73532 0.0
C542 C 0.75392 0.34603 0.70793 0.0
C543 C 0.7909 0.41136 0.72093 0.0
C544 C 0.76966 0.38273 0.69997 0.0
C545 C 0.77852 0.36661 0.75655 0.0
C546 C 0.79514 0.40328 0.74945 0.0
O547 O 0.7555 0.22661 0.78963 0.0
O548 O 0.70927 0.22063 0.76402 0.0
O549 O 0.70656 0.31155 0.77748 0.0
O550 O 0.67146 0.2629 0.75045 0.0
O551 O 0.76586 0.20786 0.70523 0.0
O552 O 0.71367 0.21758 0.72142 0.0
O553 O 0.78527 0.30149 0.72385 0.0
O554 O 0.8001 0.25118 0.70452 0.0
O555 O 0.83232 0.19848 0.73862 0.0
O556 O 0.85341 0.25898 0.74497 0.0
O557 O 0.75738 0.29262 0.78994 0.0
O558 O 0.81064 0.28794 0.76974 0.0
C559 C 0.72132 0.21421 0.78739 0.0
C560 C 0.73286 0.20262 0.70136 0.0
C561 C 0.65171 0.27824 0.80284 0.0
C562 C 0.65055 0.30396 0.85668 0.0
C563 C 0.59521 0.27056 0.83233 0.0
C564 C 0.61468 0.266 0.8039 0.0
C565 C 0.61324 0.29128 0.85846 0.0
C566 C 0.66804 0.29046 0.83075 0.0
C567 C 0.67393 0.28886 0.77391 0.0
C568 C 0.76316 0.38983 0.67173 0.0
C569 C 0.74057 0.36075 0.65196 0.0
H570 H 0.80355 0.43987 0.7156 0.0
C571 C 0.80366 0.28564 0.70368 0.0
C572 C 0.79157 0.30149 0.7913 0.0
C573 C 0.87843 0.22849 0.70381 0.0
C574 C 0.87125 0.20554 0.64925 0.0
C575 C 0.93001 0.23127 0.66827 0.0
C576 C 0.91502 0.23728 0.69861 0.0
C577 C 0.90819 0.21484 0.64369 0.0
C578 C 0.85734 0.21487 0.67889 0.0
C579 C 0.86011 0.22905 0.73485 0.0
H580 H 0.5667 0.26211 0.83316 0.0
H581 H 0.60132 0.25559 0.78269 0.0
H582 H 0.59864 0.30081 0.87847 0.0
H583 H 0.69666 0.29944 0.83025 0.0
H584 H 0.95823 0.23739 0.66409 0.0
H585 H 0.93159 0.24771 0.71785 0.0
H586 H 0.91983 0.20714 0.62101 0.0
H587 H 0.82895 0.20721 0.6832 0.0
C588 C 0.83042 0.84166 0.81916 0.0
C589 C 0.79681 0.83191 0.86954 0.0
C590 C 0.80323 0.81877 0.83795 0.0
C591 C 0.8179 0.8684 0.88183 0.0
C592 C 0.85208 0.87813 0.83164 0.0
C593 C 0.84546 0.89144 0.86294 0.0
N594 N 0.83649 0.82786 0.78904 0.0
C595 C 0.86496 0.84852 0.77078 0.0
C596 C 0.88034 0.89987 0.81253 0.0
C597 C 0.887 0.88484 0.78205 0.0
Gd598 Gd 0.7248 0.73316 0.71347 0.0
Gd599 Gd 0.80015 0.7649 0.7737 0.0
N600 N 0.78286 0.78373 0.82532 0.0
C601 C 0.76939 0.80793 0.88785 0.0
C602 C 0.75721 0.75981 0.84345 0.0
C603 C 0.74966 0.77162 0.87477 0.0
H604 H 0.74321 0.73142 0.83406 0.0
H605 H 0.729 0.7525 0.88893 0.0
H606 H 0.78768 0.76096 0.65493 0.0
H607 H 0.87196 0.83645 0.74811 0.0
H608 H 0.80164 0.73624 0.60102 0.0
H609 H 0.76361 0.81696 0.91218 0.0
H610 H 0.81327 0.87897 0.90599 0.0
H611 H 0.65452 0.66252 0.74367 0.0
H612 H 0.89771 0.92788 0.82131 0.0
H613 H 0.90959 0.90089 0.76741 0.0
H614 H 0.71292 0.61177 0.58711 0.0
H615 H 0.8618 0.91937 0.87286 0.0
H616 H 0.62822 0.56814 0.67307 0.0
H617 H 0.61713 0.59736 0.72631 0.0
N618 N 0.68947 0.66935 0.70205 0.0
C619 C 0.69593 0.65386 0.67253 0.0
C620 C 0.66134 0.64961 0.72117 0.0
C621 C 0.64569 0.59645 0.68098 0.0
C622 C 0.63943 0.6128 0.7111 0.0
C623 C 0.67394 0.61706 0.66117 0.0
H624 H 0.66347 0.5741 0.62116 0.0
N625 N 0.74522 0.71056 0.66463 0.0
C626 C 0.72409 0.6752 0.65318 0.0
C627 C 0.75899 0.68233 0.60344 0.0
C628 C 0.73059 0.66013 0.62223 0.0
C629 C 0.77235 0.73256 0.64623 0.0
C630 C 0.77997 0.71867 0.61552 0.0
O631 O 0.76247 0.79611 0.78567 0.0
O632 O 0.71173 0.76574 0.75847 0.0
O633 O 0.71527 0.76845 0.68532 0.0
O634 O 0.67302 0.71748 0.698 0.0
O635 O 0.75386 0.70844 0.77234 0.0
O636 O 0.70464 0.71584 0.76129 0.0
O637 O 0.76094 0.70013 0.70734 0.0
O638 O 0.81435 0.74198 0.72473 0.0
O639 O 0.81041 0.72367 0.79547 0.0
O640 O 0.85276 0.77588 0.78336 0.0
O641 O 0.76929 0.79054 0.71164 0.0
O642 O 0.81894 0.78793 0.72777 0.0
C643 C 0.73012 0.79135 0.78011 0.0
C644 C 0.7197 0.70191 0.77736 0.0
C645 C 0.6552 0.76319 0.68573 0.0
C646 C 0.6316 0.80072 0.66423 0.0
C647 C 0.59645 0.76288 0.70454 0.0
C648 C 0.62367 0.75068 0.70552 0.0
C649 C 0.60038 0.7878 0.68407 0.0
C650 C 0.65897 0.78821 0.6649 0.0
C651 C 0.68189 0.7465 0.68368 0.0
C652 C 0.70849 0.62365 0.6109 0.0
C653 C 0.68033 0.60217 0.63031 0.0
H654 H 0.76474 0.67179 0.57951 0.0
C655 C 0.7956 0.71095 0.70785 0.0
C656 C 0.80399 0.80129 0.711 0.0
C657 C 0.87211 0.73746 0.80663 0.0
C658 C 0.89257 0.69979 0.83136 0.0
C659 C 0.93502 0.75698 0.81262 0.0
C660 C 0.90758 0.76291 0.80252 0.0
C661 C 0.92763 0.7256 0.82687 0.0
C662 C 0.86455 0.70579 0.82144 0.0
C663 C 0.84412 0.74529 0.79534 0.0
H664 H 0.57201 0.75254 0.71936 0.0
H665 H 0.61956 0.73074 0.72124 0.0
H666 H 0.57869 0.79646 0.68323 0.0
H667 H 0.68262 0.7972 0.64885 0.0
H668 H 0.96213 0.77683 0.80943 0.0
H669 H 0.91435 0.78764 0.79142 0.0
H670 H 0.94938 0.72161 0.83478 0.0
H671 H 0.83742 0.68606 0.82509 0.0
C672 C 0.91172 0.04211 0.53506 0.0
C673 C 0.97043 0.06621 0.44955 0.0
C674 C 0.96024 0.91945 0.45051 0.0
Mg675 Mg 0.99162 0.06984 0.51591 0.0
O676 O 0.9805 0.01888 0.50572 0.0
Mg677 Mg 0.93938 0.98607 0.48185 0.0
Mg678 Mg 0.01341 0.9933 0.4914 0.0
O679 O 0.04617 0.96705 0.47902 0.0
Mg680 Mg 0.02486 0.91108 0.47279 0.0
Mg681 Mg 0.09322 0.00594 0.49951 0.0
C682 C 0.05913 0.06397 0.53946 0.0
C683 C 0.08104 0.04926 0.44892 0.0
O684 O 0.90693 0.01585 0.51228 0.0
O685 O 0.94244 0.06465 0.54321 0.0
O686 O 0.95443 0.03053 0.44836 0.0
O687 O 0.98752 0.08675 0.47269 0.0
O688 O 0.04007 0.08297 0.53885 0.0
O689 O 0.05196 0.03077 0.52499 0.0
C690 C 0.94615 0.93974 0.53339 0.0
O691 O 0.98017 0.95397 0.52852 0.0
O692 O 0.92633 0.94667 0.51768 0.0
O693 O 0.06842 0.96275 0.45855 0.0
O694 O 0.0598 0.90928 0.43033 0.0
O695 O 0.07964 0.95968 0.53084 0.0
C696 C 0.07951 0.94387 0.43519 0.0
O697 O 0.04052 0.90161 0.51503 0.0
O698 O 0.97268 0.89842 0.45986 0.0
C699 C 0.06222 0.925 0.53435 0.0
O700 O 0.97446 0.95522 0.45589 0.0
O701 O 0.04713 0.03324 0.45436 0.0
O702 O 0.10271 0.04526 0.46463 0.0
C703 C 0.4301 0.0729 0.05854 0.0
C704 C 0.46176 0.06957 0.96214 0.0
C705 C 0.45012 0.92932 0.95796 0.0
Mg706 Mg 0.50241 0.08044 0.01806 0.0
O707 O 0.48471 0.02877 0.01992 0.0
Mg708 Mg 0.43598 0.99912 0.006 0.0
Mg709 Mg 0.51185 0.99842 0.99486 0.0
O710 O 0.53883 0.96855 0.96969 0.0
Mg711 Mg 0.52062 0.91619 0.9666 0.0
Mg712 Mg 0.58678 0.99679 0.98551 0.0
C713 C 0.57284 0.0683 0.03042 0.0
C714 C 0.57102 0.04967 0.9452 0.0
O715 O 0.41547 0.03915 0.04474 0.0
O716 O 0.46318 0.09284 0.05255 0.0
O717 O 0.44139 0.03855 0.97171 0.0
O718 O 0.49097 0.09002 0.97404 0.0
O719 O 0.55577 0.08947 0.02978 0.0
O720 O 0.5601 0.03286 0.02116 0.0
C721 C 0.45511 0.94879 0.04649 0.0
O722 O 0.48638 0.95735 0.0322 0.0
O723 O 0.43292 0.9615 0.04058 0.0
O724 O 0.60783 0.95749 0.94618 0.0
O725 O 0.55976 0.90726 0.93082 0.0
O726 O 0.57728 0.95521 0.02009 0.0
C727 C 0.59335 0.92645 0.92833 0.0
O728 O 0.53106 0.90179 0.00858 0.0
O729 O 0.46721 0.90764 0.95585 0.0
C730 C 0.55642 0.9222 0.02543 0.0
O731 O 0.46301 0.96406 0.96931 0.0
O732 O 0.53864 0.03951 0.95739 0.0
O733 O 0.59296 0.03727 0.95222 0.0
C734 C 0.9342 0.57919 0.05675 0.0
C735 C 0.96708 0.57101 0.95997 0.0
C736 C 0.94806 0.42988 0.95958 0.0
Mg737 Mg 1.00598 0.58274 0.01786 0.0
O738 O 0.98596 0.53112 0.01962 0.0
Mg739 Mg 0.937 0.50282 0.00573 0.0
Mg740 Mg 0.0116 0.49906 -0.00461 0.0
O741 O 0.03712 0.46703 0.9711 0.0
Mg742 Mg 0.01693 0.41486 0.97062 0.0
Mg743 Mg 0.08509 0.49432 0.9874 0.0
C744 C 0.07373 0.5675 0.03228 0.0
C745 C 0.07287 0.54754 0.94559 0.0
O746 O 0.9185 0.54547 0.04327 0.0
O747 O 0.96762 0.59776 0.05111 0.0
O748 O 0.94475 0.5407 0.96939 0.0
O749 O 0.99534 0.59124 0.97342 0.0
O750 O 0.05801 0.58994 0.03178 0.0
O751 O 0.06004 0.53242 0.02197 0.0
C752 C 0.9534 0.45307 0.0483 0.0
O753 O 0.98437 0.45977 0.03368 0.0
O754 O 0.93196 0.46645 0.04197 0.0
O755 O 0.10483 0.45302 0.94968 0.0
O756 O 0.05646 0.40132 0.93738 0.0
O757 O 0.07465 0.4544 0.02263 0.0
C758 C 0.09003 0.42045 0.93402 0.0
O759 O 0.02516 0.40362 0.01472 0.0
O760 O 0.96406 0.40732 0.95851 0.0
C761 C 0.05221 0.42298 0.02999 0.0
O762 O 0.96211 0.46488 0.97015 0.0
O763 O 0.04035 0.53933 0.95715 0.0
O764 O 0.0927 0.53316 0.95349 0.0
C765 C 0.4225 0.54722 0.04726 0.0
C766 C 0.4713 0.5734 0.95683 0.0
C767 C 0.4581 0.42506 0.94949 0.0
Mg768 Mg 0.49863 0.57299 0.01866 0.0
O769 O 0.48495 0.52213 0.00806 0.0
Mg770 Mg 0.44136 0.49194 0.98709 0.0
Mg771 Mg 0.51525 0.49455 0.99242 0.0
O772 O 0.54526 0.46611 0.97826 0.0
Mg773 Mg 0.52178 0.41048 0.96747 0.0
Mg774 Mg 0.59311 0.50181 -0.00042 0.0
C775 C 0.56479 0.56364 0.03893 0.0
C776 C 0.58459 0.55128 0.95161 0.0
O777 O 0.41365 0.52253 0.02336 0.0
O778 O 0.45477 0.56829 0.05171 0.0
O779 O 0.45461 0.5378 0.95517 0.0
O780 O 0.49022 0.59288 0.97911 0.0
O781 O 0.54805 0.58445 0.03705 0.0
O782 O 0.5549 0.52931 0.02643 0.0
C783 C 0.44794 0.442 0.0354 0.0
O784 O 0.48179 0.45442 0.02932 0.0
O785 O 0.42866 0.4509 0.02081 0.0
O786 O 0.56695 0.46304 0.95733 0.0
O787 O 0.55793 0.41203 0.92528 0.0
O788 O 0.57626 0.45253 0.02899 0.0
C789 C 0.57834 0.44588 0.93289 0.0
O790 O 0.53647 0.39689 0.00824 0.0
O791 O 0.46955 0.40109 0.95492 0.0
C792 C 0.55725 0.41741 0.02931 0.0
O793 O 0.4742 0.46028 0.95704 0.0
O794 O 0.55049 0.53553 0.95623 0.0
O795 O 0.60512 0.545 0.96711 0.0
C796 C 0.92953 0.57287 0.55792 0.0
C797 C 0.96095 0.5691 0.45978 0.0
C798 C 0.95254 0.42725 0.46161 0.0
Mg799 Mg 1.00016 0.58034 0.51676 0.0
O800 O 0.98381 0.52912 0.51863 0.0
Mg801 Mg 0.93555 0.49885 0.50452 0.0
Mg802 Mg 0.01202 0.49971 0.49458 0.0
O803 O 0.04022 0.47039 0.47019 0.0
Mg804 Mg 0.02416 0.41977 0.4752 0.0
Mg805 Mg 0.08901 0.50182 0.48307 0.0
C806 C 0.07176 0.57204 0.52916 0.0
C807 C 0.06753 0.5497 0.44216 0.0
O808 O 0.9147 0.53977 0.54287 0.0
O809 O 0.9627 0.59258 0.55259 0.0
O810 O 0.94064 0.53695 0.46757 0.0
O811 O 0.9879 0.59047 0.47433 0.0
O812 O 0.05379 0.5914 0.52625 0.0
O813 O 0.06103 0.53656 0.52009 0.0
C814 C 0.95541 0.4508 0.54716 0.0
O815 O 0.98695 0.45973 0.53317 0.0
O816 O 0.93287 0.46264 0.54053 0.0
O817 O 0.10952 0.46116 0.44418 0.0
O818 O 0.06255 0.40622 0.44033 0.0
O819 O 0.08587 0.46419 0.51834 0.0
C820 C 0.09496 0.42649 0.43216 0.0
O821 O 0.03612 0.41323 0.51949 0.0
O822 O 0.97014 0.4078 0.46536 0.0
C823 C 0.06602 0.4342 0.52975 0.0
O824 O 0.96362 0.46294 0.46928 0.0
O825 O 0.03604 0.53949 0.45615 0.0
O826 O 0.09092 0.53887 0.44834 0.0
C827 C 0.43334 0.07817 0.55986 0.0
C828 C 0.4683 0.07598 0.46323 0.0
C829 C 0.4495 0.93243 0.45836 0.0
Mg830 Mg 0.50578 0.08399 0.52158 0.0
O831 O 0.48575 0.03186 0.5209 0.0
Mg832 Mg 0.43725 0.00428 0.50544 0.0
Mg833 Mg 0.51159 0.00036 0.49643 0.0
O834 O 0.53722 0.96849 0.47196 0.0
Mg835 Mg 0.51707 0.91657 0.47194 0.0
Mg836 Mg 0.5858 0.99587 0.4866 0.0
C837 C 0.57489 0.06919 0.53303 0.0
C838 C 0.57035 0.04656 0.44409 0.0
O839 O 0.41795 0.04571 0.5441 0.0
O840 O 0.46702 0.09656 0.55597 0.0
O841 O 0.44647 0.04424 0.47037 0.0
O842 O 0.49517 0.09607 0.47853 0.0
O843 O 0.55891 0.09167 0.53363 0.0
O844 O 0.56096 0.0341 0.52245 0.0
C845 C 0.45092 0.95059 0.54596 0.0
O846 O 0.4833 0.95972 0.53399 0.0
O847 O 0.43005 0.9643 0.53895 0.0
O848 O 0.60456 0.95358 0.44837 0.0
O849 O 0.55542 0.90218 0.43823 0.0
O850 O 0.57669 0.95668 0.52241 0.0
C851 C 0.58901 0.92054 0.43357 0.0
O852 O 0.52662 0.90603 0.51583 0.0
O853 O 0.46538 0.90997 0.45814 0.0
C854 C 0.55428 0.92548 0.53034 0.0
O855 O 0.46281 0.96716 0.46984 0.0
O856 O 0.53919 0.04009 0.45832 0.0
O857 O 0.59141 0.03296 0.45093 0.0
H858 H 0.15334 0.19729 0.30574 0.0
H859 H 0.13165 0.03795 0.4068 0.0
H860 H 0.22959 0.14634 0.30078 0.0
H861 H 0.06564 0.10243 0.42688 0.0
H862 H 0.16197 0.07137 0.36249 0.0
H863 H 0.11629 0.15796 0.34526 0.0
C864 C 0.16213 0.17756 0.31273 0.0
C865 C 0.19471 0.17518 0.29999 0.0
C866 C 0.14098 0.07843 0.37653 0.0
C867 C 0.15226 0.12992 0.34507 0.0
C868 C 0.12365 0.05937 0.40186 0.0
C869 C 0.0966 0.06802 0.42083 0.0
C870 C 0.13158 0.10682 0.37014 0.0
C871 C 0.08656 0.09519 0.4129 0.0
C872 C 0.14099 0.15521 0.33536 0.0
C873 C 0.2048 0.14925 0.31004 0.0
N874 N 0.1044 0.11404 0.38829 0.0
N875 N 0.18367 0.12767 0.33194 0.0
H876 H 0.88444 0.09948 0.29488 0.0
H877 H 0.95869 0.13113 0.4605 0.0
H878 H 0.84044 0.14755 0.3786 0.0
H879 H 0.95913 0.04091 0.38825 0.0
H880 H 0.92989 0.15227 0.42693 0.0
H881 H 0.92675 0.09334 0.32527 0.0
C882 C 0.8843 0.10946 0.31958 0.0
C883 C 0.85913 0.12402 0.33437 0.0
C884 C 0.93708 0.1284 0.41821 0.0
C885 C 0.90707 0.11696 0.36921 0.0
C886 C 0.95393 0.11658 0.43715 0.0
C887 C 0.96166 0.08438 0.42697 0.0
C888 C 0.92863 0.10834 0.38866 0.0
C889 C 0.9539 0.06599 0.39687 0.0
C890 C 0.90822 0.10578 0.33691 0.0
C891 C 0.85963 0.13626 0.36646 0.0
N892 N 0.9378 0.0782 0.37881 0.0
N893 N 0.88317 0.13234 0.38292 0.0
H894 H 0.86028 0.77646 0.2936 0.0
H895 H 0.9195 0.94949 0.4282 0.0
H896 H 0.81216 0.85835 0.31135 0.0
H897 H 0.94068 0.84892 0.42029 0.0
H898 H 0.88329 0.92106 0.38371 0.0
H899 H 0.89661 0.8094 0.33662 0.0
C900 C 0.85754 0.80154 0.30652 0.0
C901 C 0.83309 0.81458 0.29923 0.0
C902 C 0.89578 0.90535 0.39204 0.0
C903 C 0.87391 0.852 0.34891 0.0
C904 C 0.91616 0.92137 0.41751 0.0
C905 C 0.93312 0.90156 0.42807 0.0
C906 C 0.89314 0.86977 0.37693 0.0
C907 C 0.92799 0.86528 0.41327 0.0
C908 C 0.87812 0.82026 0.33118 0.0
C909 C 0.83086 0.84751 0.31638 0.0
N910 N 0.90887 0.85085 0.38832 0.0
N911 N 0.85085 0.86504 0.34077 0.0
H912 H 0.14706 0.82922 0.42065 0.0
H913 H 0.10577 0.93988 0.37502 0.0
H914 H 0.20839 0.86554 0.3351 0.0
H915 H 0.13711 0.9764 0.4685 0.0
H916 H 0.1623 0.93386 0.35806 0.0
H917 H 0.1634 0.89449 0.443 0.0
C918 C 0.16514 0.85081 0.40705 0.0
C919 C 0.17482 0.84186 0.37565 0.0
C920 C 0.1579 0.9451 0.38208 0.0
C921 C 0.19218 0.91632 0.4003 0.0
C922 C 0.12538 0.94814 0.39167 0.0
C923 C 0.11661 0.95658 0.4233 0.0
C924 C 0.17937 0.94688 0.40492 0.0
C925 C 0.1428 0.96812 0.44402 0.0
C926 C 0.17488 0.88823 0.41982 0.0
C927 C 0.19912 0.87101 0.35922 0.0
N928 N 0.17282 0.96135 0.43474 0.0
N929 N 0.20576 0.9071 0.37129 0.0
H930 H 0.21437 0.92922 0.63878 0.0
H931 H 0.05048 0.85216 0.54146 0.0
H932 H 0.12687 0.83479 0.67227 0.0
H933 H 0.09798 0.96691 0.58389 0.0
H934 H 0.08097 0.83403 0.57629 0.0
H935 H 0.17769 0.93028 0.6005 0.0
C936 C 0.18759 0.90828 0.63768 0.0
C937 C 0.17321 0.88263 0.65926 0.0
C938 C 0.08404 0.86297 0.57805 0.0
C939 C 0.13127 0.88375 0.6156 0.0
C940 C 0.06658 0.87335 0.55844 0.0
C941 C 0.0723 0.91131 0.55931 0.0
C942 C 0.1075 0.89092 0.59797 0.0
C943 C 0.09335 0.93751 0.5818 0.0
C944 C 0.16675 0.90891 0.6159 0.0
C945 C 0.13863 0.8554 0.65627 0.0
N946 N 0.11069 0.92693 0.59971 0.0
N947 N 0.11834 0.85705 0.63512 0.0
H948 H 0.23467 0.16641 0.65885 0.0
H949 H 0.04458 0.0537 0.59926 0.0
H950 H 0.14224 0.18596 0.70436 0.0
H951 H 0.13131 0.1056 0.53284 0.0
H952 H 0.08382 0.08423 0.64126 0.0
H953 H 0.19999 0.12798 0.61504 0.0
C954 C 0.20691 0.16206 0.65971 0.0
C955 C 0.19109 0.17941 0.68484 0.0
C956 C 0.09432 0.08853 0.61745 0.0
C957 C 0.15148 0.13491 0.63598 0.0
C958 C 0.07214 0.07113 0.59359 0.0
C959 C 0.08485 0.07767 0.5629 0.0
C960 C 0.12954 0.11232 0.61045 0.0
C961 C 0.12071 0.1002 0.55643 0.0
C962 C 0.18738 0.14048 0.63477 0.0
C963 C 0.15528 0.17333 0.6851 0.0
N964 N 0.14201 0.11705 0.5802 0.0
N965 N 0.13648 0.15117 0.6611 0.0
H966 H 0.87369 0.20207 0.58574 0.0
H967 H 0.8903 0.04911 0.59667 0.0
H968 H 0.81131 0.14501 0.66319 0.0
H969 H 0.86364 0.05128 0.50593 0.0
H970 H 0.84581 0.07443 0.62036 0.0
H971 H 0.8503 0.14345 0.55135 0.0
C972 C 0.85414 0.17762 0.59531 0.0
C973 C 0.84649 0.17773 0.62746 0.0
C974 C 0.84851 0.06798 0.59523 0.0
C975 C 0.82112 0.11095 0.58896 0.0
C976 C 0.87429 0.05416 0.5819 0.0
C977 C 0.88082 0.04942 0.54962 0.0
C978 C 0.83119 0.07924 0.57598 0.0
C979 C 0.85936 0.05549 0.53109 0.0
C980 C 0.84032 0.14417 0.57569 0.0
C981 C 0.81953 0.14584 0.6386 0.0
N982 N 0.83623 0.07157 0.54454 0.0
N983 N 0.80877 0.11308 0.61947 0.0
H984 H 0.87654 0.82363 0.69712 0.0
H985 H 0.87875 0.88814 0.53748 0.0
H986 H 0.78462 0.83328 0.66962 0.0
H987 H 0.97216 0.94028 0.58822 0.0
H988 H 0.84541 0.85795 0.58265 0.0
H989 H 0.91336 0.86001 0.65621 0.0
C990 C 0.86407 0.83426 0.68327 0.0
C991 C 0.82727 0.82606 0.68771 0.0
C992 C 0.87318 0.87603 0.58394 0.0
C993 C 0.8693 0.86525 0.63894 0.0
C994 C 0.89236 0.89305 0.55809 0.0
C995 C 0.92828 0.91697 0.55909 0.0
C996 C 0.88993 0.88257 0.6111 0.0
C997 C 0.94459 0.92183 0.58635 0.0
C998 C 0.88522 0.85457 0.6595 0.0
C999 C 0.81279 0.83907 0.66747 0.0
N1000 N 0.92522 0.90478 0.61142 0.0
N1001 N 0.8337 0.8574 0.64368 0.0
H1002 H 0.3633 0.23441 0.18517 0.0
H1003 H 0.35998 0.04099 0.08366 0.0
H1004 H 0.267 0.13534 0.17847 0.0
H1005 H 0.45008 0.14626 0.08482 0.0
H1006 H 0.32546 0.07281 0.1194 0.0
H1007 H 0.39501 0.20086 0.14928 0.0
C1008 C 0.34876 0.20544 0.1763 0.0
C1009 C 0.31236 0.1877 0.18526 0.0
C1010 C 0.35278 0.08885 0.11174 0.0
C1011 C 0.34902 0.14854 0.14369 0.0
C1012 C 0.37258 0.07068 0.09135 0.0
C1013 C 0.40824 0.09074 0.08106 0.0
C1014 C 0.36863 0.12748 0.12195 0.0
C1015 C 0.42291 0.12926 0.09204 0.0
C1016 C 0.36697 0.18622 0.15561 0.0
C1017 C 0.29504 0.1502 0.17234 0.0
N1018 N 0.40317 0.14614 0.11166 0.0
N1019 N 0.31353 0.13181 0.15242 0.0
H1020 H 0.83151 0.26802 0.14867 0.0
H1021 H 0.9356 0.47596 0.10776 0.0
H1022 H 0.83681 0.36645 0.21344 0.0
H1023 H 0.94218 0.37931 0.04707 0.0
H1024 H 0.90342 0.43647 0.14832 0.0
H1025 H 0.87442 0.30788 0.11238 0.0
C1026 C 0.84188 0.29802 0.15541 0.0
C1027 C 0.83073 0.31386 0.18434 0.0
C1028 C 0.9123 0.42383 0.12638 0.0
C1029 C 0.87955 0.35981 0.14249 0.0
C1030 C 0.93087 0.44641 0.10334 0.0
C1031 C 0.9416 0.43074 0.07428 0.0
C1032 C 0.90364 0.38506 0.12004 0.0
C1033 C 0.93461 0.39236 0.0694 0.0
C1034 C 0.86642 0.32078 0.1346 0.0
C1035 C 0.8446 0.35297 0.19143 0.0
N1036 N 0.91555 0.37063 0.09195 0.0
N1037 N 0.86817 0.37457 0.17061 0.0
H1038 H 0.69053 0.84551 0.09889 0.0
H1039 H 0.56312 0.94748 0.08711 0.0
H1040 H 0.64934 0.90257 0.17865 0.0
H1041 H 0.57469 0.86174 0.0151 0.0
H1042 H 0.59163 0.92793 0.12197 0.0
H1043 H 0.64586 0.84697 0.06825 0.0
C1044 C 0.67128 0.85718 0.11016 0.0
C1045 C 0.6734 0.87384 0.14129 0.0
C1046 C 0.58735 0.91281 0.09876 0.0
C1047 C 0.62305 0.8765 0.10646 0.0
C1048 C 0.57093 0.9239 0.07899 0.0
C1049 C 0.56616 0.90577 0.04851 0.0
C1050 C 0.60028 0.88429 0.08758 0.0
C1051 C 0.57735 0.87587 0.03874 0.0
C1052 C 0.64598 0.85826 0.09268 0.0
C1053 C 0.64846 0.88941 0.15469 0.0
N1054 N 0.59453 0.86647 0.05802 0.0
N1055 N 0.62467 0.89081 0.13714 0.0
H1056 H 0.2557 0.67927 0.1415 0.0
H1057 H 0.05683 0.57446 0.09326 0.0
H1058 H 0.1606 0.6586 0.2044 0.0
H1059 H 0.14691 0.5872 0.02548 0.0
H1060 H 0.09632 0.59931 0.13462 0.0
H1061 H 0.21878 0.63966 0.09922 0.0
C1062 C 0.2272 0.66597 0.14646 0.0
C1063 C 0.21103 0.67278 0.17622 0.0
C1064 C 0.1078 0.5965 0.11085 0.0
C1065 C 0.16897 0.62798 0.12844 0.0
C1066 C 0.08517 0.58227 0.08724 0.0
C1067 C 0.09882 0.57912 0.05614 0.0
C1068 C 0.14469 0.60831 0.10342 0.0
C1069 C 0.1356 0.58947 0.04936 0.0
C1070 C 0.20617 0.64357 0.12239 0.0
C1071 C 0.17411 0.65478 0.18162 0.0
N1072 N 0.1575 0.60412 0.07292 0.0
N1073 N 0.15443 0.63363 0.15797 0.0
H1074 H 0.34473 0.86586 0.79226 0.0
H1075 H 0.39418 0.86297 0.96026 0.0
H1076 H 0.29657 0.77141 0.84378 0.0
H1077 H 0.43674 0.96209 0.91457 0.0
H1078 H 0.35262 0.83172 0.92035 0.0
H1079 H 0.37547 0.90368 0.83801 0.0
C1080 C 0.34052 0.85325 0.81329 0.0
C1081 C 0.31826 0.81556 0.81437 0.0
C1082 C 0.37053 0.86055 0.91927 0.0
C1083 C 0.35277 0.85839 0.86659 0.0
C1084 C 0.39391 0.87844 0.94226 0.0
C1085 C 0.41855 0.91504 0.94066 0.0
C1086 C 0.37258 0.8791 0.89405 0.0
C1087 C 0.41766 0.93392 0.91673 0.0
C1088 C 0.35789 0.87479 0.83937 0.0
C1089 C 0.3138 0.8003 0.84193 0.0
N1090 N 0.39551 0.91544 0.8939 0.0
N1091 N 0.33091 0.82177 0.86691 0.0
H1092 H 0.19635 0.33141 0.77178 0.0
H1093 H 0.1134 0.36934 0.94673 0.0
H1094 H 0.20072 0.27693 0.84708 0.0
H1095 H 0.11608 0.42988 0.87322 0.0
H1096 H 0.14577 0.33561 0.91082 0.0
H1097 H 0.16742 0.3676 0.8083 0.0
C1098 C 0.19098 0.32657 0.79591 0.0
C1099 C 0.20061 0.30008 0.80599 0.0
C1100 C 0.13955 0.35641 0.90248 0.0
C1101 C 0.1672 0.34218 0.8484 0.0
C1102 C 0.12119 0.37576 0.92304 0.0
C1103 C 0.11241 0.40268 0.91299 0.0
C1104 C 0.14891 0.3636 0.87137 0.0
C1105 C 0.1227 0.40963 0.88197 0.0
C1106 C 0.17447 0.34752 0.81686 0.0
C1107 C 0.19322 0.29603 0.83785 0.0
N1108 N 0.14024 0.39015 0.86227 0.0
N1109 N 0.17694 0.31659 0.85776 0.0
H1110 H 0.73455 0.21245 0.84592 0.0
H1111 H 0.55042 0.04752 0.88769 0.0
H1112 H 0.65132 0.16644 0.78362 0.0
H1113 H 0.62605 0.11553 0.95377 0.0
H1114 H 0.58492 0.09001 0.84888 0.0
H1115 H 0.69421 0.17559 0.8851 0.0
C1116 C 0.70772 0.19453 0.84047 0.0
C1117 C 0.69635 0.19244 0.81141 0.0
C1118 C 0.59347 0.09603 0.8721 0.0
C1119 C 0.64962 0.14996 0.85643 0.0
C1120 C 0.57364 0.07202 0.89425 0.0
C1121 C 0.58545 0.07834 0.92389 0.0
C1122 C 0.62523 0.1262 0.87984 0.0
C1123 C 0.61612 0.10982 0.93113 0.0
C1124 C 0.68454 0.1736 0.86296 0.0
C1125 C 0.66111 0.16895 0.8058 0.0
N1126 N 0.63503 0.13235 0.90925 0.0
N1127 N 0.63902 0.14835 0.82803 0.0
H1128 H 0.86481 0.68942 0.8909 0.0
H1129 H 0.97021 0.5585 0.8962 0.0
H1130 H 0.91089 0.64044 0.80908 0.0
H1131 H 0.93183 0.61656 0.97708 0.0
H1132 H 0.94083 0.5801 0.86328 0.0
H1133 H 0.8778 0.65157 0.92235 0.0
C1134 C 0.87629 0.66946 0.87945 0.0
C1135 C 0.8869 0.6679 0.84752 0.0
C1136 C 0.93892 0.5882 0.88823 0.0
C1137 C 0.90337 0.62601 0.88321 0.0
C1138 C 0.95608 0.57633 0.90682 0.0
C1139 C 0.95438 0.58711 0.93902 0.0
C1140 C 0.91953 0.61032 0.90219 0.0
C1141 C 0.93467 0.60891 0.9521 0.0
C1142 C 0.88428 0.64834 0.89739 0.0
C1143 C 0.90232 0.64222 0.83372 0.0
N1144 N 0.91808 0.61991 0.93365 0.0
N1145 N 0.91073 0.62275 0.85172 0.0
H1146 H 0.15122 0.37442 0.16837 0.0
H1147 H 0.0256 0.3494 0.039 0.0
H1148 H 0.10236 0.27022 0.11021 0.0
H1149 H 0.1029 0.45773 0.07138 0.0
H1150 H 0.05082 0.32043 0.06858 0.0
H1151 H 0.13453 0.40679 0.1342 0.0
C1152 C 0.13785 0.35868 0.14785 0.0
C1153 C 0.12793 0.31982 0.14191 0.0
C1154 C 0.06219 0.35056 0.06926 0.0
C1155 C 0.10761 0.3559 0.10378 0.0
C1156 C 0.0474 0.36717 0.05279 0.0
C1157 C 0.06208 0.40604 0.05271 0.0
C1158 C 0.09157 0.37297 0.08611 0.0
C1159 C 0.0907 0.42762 0.07078 0.0
C1160 C 0.12809 0.37698 0.12856 0.0
C1161 C 0.11033 0.30029 0.1154 0.0
N1162 N 0.10453 0.41079 0.08677 0.0
N1163 N 0.10019 0.31847 0.09751 0.0
H1164 H 0.23419 0.66574 0.81483 0.0
H1165 H 0.04281 0.57074 0.90426 0.0
H1166 H 0.14565 0.68918 0.79784 0.0
H1167 H 0.14297 0.58722 0.9359 0.0
H1168 H 0.07624 0.61009 0.86281 0.0
H1169 H 0.19698 0.6293 0.85567 0.0
C1170 C 0.20679 0.6632 0.81981 0.0
C1171 C 0.19305 0.68123 0.80366 0.0
C1172 C 0.09058 0.60502 0.87909 0.0
C1173 C 0.15012 0.63963 0.85031 0.0
C1174 C 0.07158 0.58281 0.90273 0.0
C1175 C 0.0901 0.57492 0.92311 0.0
C1176 C 0.12802 0.61891 0.87606 0.0
C1177 C 0.1274 0.59155 0.92029 0.0
C1178 C 0.18557 0.64264 0.84322 0.0
C1179 C 0.15737 0.6769 0.81074 0.0
N1180 N 0.14494 0.61224 0.89713 0.0
N1181 N 0.13691 0.65644 0.83361 0.0
H1182 H 0.38961 0.12584 0.81119 0.0
H1183 H 0.39379 0.06234 0.96741 0.0
H1184 H 0.31603 0.1322 0.89089 0.0
H1185 H 0.49363 0.11282 0.91372 0.0
H1186 H 0.36533 0.08639 0.93706 0.0
H1187 H 0.42996 0.12267 0.8457 0.0
C1188 C 0.38268 0.12798 0.83611 0.0
C1189 C 0.34974 0.12953 0.84842 0.0
C1190 C 0.39352 0.09257 0.93191 0.0
C1191 C 0.39468 0.12448 0.88754 0.0
C1192 C 0.40977 0.07841 0.94899 0.0
C1193 C 0.44606 0.08508 0.94274 0.0
C1194 C 0.41331 0.11305 0.90771 0.0
C1195 C 0.46552 0.10683 0.91906 0.0
C1196 C 0.40554 0.126 0.85571 0.0
C1197 C 0.34138 0.13137 0.88065 0.0
N1198 N 0.44869 0.11956 0.90188 0.0
N1199 N 0.36339 0.12808 0.89904 0.0
H1200 H 0.85448 0.36094 0.79128 0.0
H1201 H 0.89226 0.36233 0.95937 0.0
H1202 H 0.76963 0.29527 0.85266 0.0
H1203 H 0.93367 0.46502 0.9186 0.0
H1204 H 0.84864 0.33421 0.92039 0.0
H1205 H 0.88716 0.39672 0.83656 0.0
C1206 C 0.84259 0.35454 0.81442 0.0
C1207 C 0.80924 0.32568 0.81852 0.0
C1208 C 0.86672 0.36317 0.92051 0.0
C1209 C 0.84668 0.36544 0.87003 0.0
C1210 C 0.89144 0.37923 0.94275 0.0
C1211 C 0.91628 0.41608 0.94228 0.0
C1212 C 0.86782 0.38376 0.89708 0.0
C1213 C 0.91459 0.43668 0.91999 0.0
C1214 C 0.86112 0.37492 0.84015 0.0
C1215 C 0.79503 0.3179 0.84879 0.0
N1216 N 0.89134 0.41995 0.89777 0.0
N1217 N 0.81416 0.33726 0.87347 0.0
H1218 H 0.75317 0.84242 0.83243 0.0
H1219 H 0.57426 0.88254 0.87302 0.0
H1220 H 0.66517 0.79407 0.77537 0.0
H1221 H 0.66282 0.9339 0.92947 0.0
H1222 H 0.60826 0.85195 0.83623 0.0
H1223 H 0.72143 0.87652 0.86769 0.0
C1224 C 0.72716 0.83862 0.8273 0.0
C1225 C 0.71182 0.8143 0.80105 0.0
C1226 C 0.62041 0.86996 0.85657 0.0
C1227 C 0.67535 0.85492 0.84112 0.0
C1228 C 0.60099 0.88755 0.87764 0.0
C1229 C 0.61563 0.91092 0.90449 0.0
C1230 C 0.65479 0.87517 0.86239 0.0
C1231 C 0.65052 0.91643 0.90901 0.0
C1232 C 0.70907 0.85854 0.84742 0.0
C1233 C 0.67816 0.81189 0.79543 0.0
N1234 N 0.66875 0.89845 0.88837 0.0
N1235 N 0.66119 0.83181 0.8152 0.0
H1236 H 0.78576 0.64035 0.19758 0.0
H1237 H 0.95127 0.65453 0.07133 0.0
H1238 H 0.85404 0.74271 0.16091 0.0
H1239 H 0.86953 0.54897 0.09151 0.0
H1240 H 0.91793 0.68725 0.10632 0.0
H1241 H 0.81804 0.60708 0.16184 0.0
C1242 C 0.80742 0.65599 0.18193 0.0
C1243 C 0.81678 0.69468 0.18224 0.0
C1244 C 0.9072 0.65695 0.10317 0.0
C1245 C 0.85414 0.65612 0.14089 0.0
C1246 C 0.92634 0.63811 0.08324 0.0
C1247 C 0.91335 0.59873 0.07837 0.0
C1248 C 0.87482 0.63653 0.11898 0.0
C1249 C 0.88061 0.57925 0.09435 0.0
C1250 C 0.82579 0.63675 0.16138 0.0
C1251 C 0.84526 0.71297 0.16127 0.0
N1252 N 0.86264 0.59831 0.11406 0.0
N1253 N 0.86292 0.69363 0.14161 0.0
H1254 H 0.3544 0.76462 0.15873 0.0
H1255 H 0.42817 0.96726 0.10343 0.0
H1256 H 0.31663 0.85307 0.19253 0.0
H1257 H 0.45543 0.87863 0.04789 0.0
H1258 H 0.39701 0.92646 0.14272 0.0
H1259 H 0.39929 0.80556 0.12319 0.0
C1260 C 0.35516 0.79226 0.15868 0.0
C1261 C 0.33095 0.80488 0.17868 0.0
C1262 C 0.40997 0.91569 0.12216 0.0
C1263 C 0.3819 0.85178 0.13809 0.0
C1264 C 0.42804 0.93919 0.09983 0.0
C1265 C 0.44398 0.9261 0.07235 0.0
C1266 C 0.40697 0.87827 0.11689 0.0
C1267 C 0.44325 0.88957 0.06887 0.0
C1268 C 0.38075 0.8156 0.13833 0.0
C1269 C 0.33352 0.84124 0.17743 0.0
N1270 N 0.42436 0.86647 0.09074 0.0
N1271 N 0.35813 0.86302 0.15762 0.0
H1272 H 0.70703 0.23138 0.15813 0.0
H1273 H 0.59508 0.03354 0.06696 0.0
H1274 H 0.69163 0.12723 0.18895 0.0
H1275 H 0.61949 0.14054 0.03722 0.0
H1276 H 0.63423 0.06532 0.109 0.0
H1277 H 0.67602 0.19684 0.11295 0.0
C1278 C 0.69739 0.20112 0.15532 0.0
C1279 C 0.70287 0.18225 0.17708 0.0
C1280 C 0.63153 0.08169 0.09286 0.0
C1281 C 0.66716 0.14213 0.12463 0.0
C1282 C 0.60961 0.06355 0.06861 0.0
C1283 C 0.60389 0.08457 0.04877 0.0
C1284 C 0.64775 0.12094 0.09702 0.0
C1285 C 0.62295 0.12334 0.05217 0.0
C1286 C 0.67973 0.18132 0.12926 0.0
C1287 C 0.68895 0.14294 0.17227 0.0
N1288 N 0.64364 0.14026 0.07606 0.0
N1289 N 0.67176 0.12407 0.14642 0.0
H1290 H 0.73883 0.65892 0.80803 0.0
H1291 H 0.55326 0.56635 0.90648 0.0
H1292 H 0.64964 0.68702 0.79997 0.0
H1293 H 0.65544 0.58913 0.93739 0.0
H1294 H 0.58418 0.60111 0.86209 0.0
H1295 H 0.70426 0.62227 0.84959 0.0
C1296 C 0.71181 0.65705 0.81467 0.0
C1297 C 0.69729 0.67633 0.80042 0.0
C1298 C 0.59961 0.5986 0.87885 0.0
C1299 C 0.65728 0.6339 0.84815 0.0
C1300 C 0.58203 0.57891 0.90424 0.0
C1301 C 0.60165 0.57482 0.92597 0.0
C1302 C 0.63698 0.61375 0.87498 0.0
C1303 C 0.63896 0.59135 0.92146 0.0
C1304 C 0.69213 0.63622 0.83857 0.0
C1305 C 0.66197 0.67259 0.81016 0.0
N1306 N 0.65525 0.60973 0.89652 0.0
N1307 N 0.64314 0.65181 0.83343 0.0
H1308 H 0.32258 0.62562 0.88321 0.0
H1309 H 0.48184 0.56997 0.89344 0.0
H1310 H 0.4021 0.63115 0.80608 0.0
H1311 H 0.43538 0.61889 0.97511 0.0
H1312 H 0.45403 0.59343 0.86077 0.0
H1313 H 0.36366 0.62471 0.91795 0.0
C1314 C 0.34897 0.62729 0.87381 0.0
C1315 C 0.35911 0.62818 0.84191 0.0
C1316 C 0.45054 0.59973 0.88584 0.0
C1317 C 0.40568 0.62623 0.88097 0.0
C1318 C 0.46643 0.58639 0.90436 0.0
C1319 C 0.46112 0.59298 0.93678 0.0
C1320 C 0.42808 0.61835 0.89996 0.0
C1321 C 0.44046 0.61383 0.95006 0.0
C1322 C 0.3724 0.62686 0.89354 0.0
C1323 C 0.39344 0.63028 0.83061 0.0
N1324 N 0.42404 0.62515 0.93161 0.0
N1325 N 0.41533 0.62853 0.85004 0.0
H1326 H 0.28088 0.32648 0.83282 0.0
H1327 H 0.467 0.44657 0.8932 0.0
H1328 H 0.37355 0.31053 0.78342 0.0
H1329 H 0.38977 0.37312 0.95466 0.0
H1330 H 0.42769 0.41621 0.85111 0.0
H1331 H 0.31618 0.36237 0.87698 0.0
C1332 C 0.30874 0.33093 0.8313 0.0
C1333 C 0.32454 0.31539 0.80499 0.0
C1334 C 0.41912 0.40748 0.87405 0.0
C1335 C 0.36468 0.3571 0.85407 0.0
C1336 C 0.4412 0.42487 0.89802 0.0
C1337 C 0.43122 0.41231 0.92725 0.0
C1338 C 0.38655 0.37822 0.87978 0.0
C1339 C 0.39805 0.38353 0.93234 0.0
C1340 C 0.32862 0.35112 0.85633 0.0
C1341 C 0.36057 0.32173 0.80371 0.0
N1342 N 0.37659 0.36738 0.90871 0.0
N1343 N 0.3797 0.34259 0.8279 0.0
H1344 H 0.69669 0.36341 0.82865 0.0
H1345 H 0.6322 0.46851 0.96958 0.0
H1346 H 0.65012 0.33107 0.91931 0.0
H1347 H 0.60956 0.45134 0.87402 0.0
H1348 H 0.68775 0.45986 0.95221 0.0
H1349 H 0.71291 0.42845 0.85016 0.0
C1350 C 0.69159 0.36991 0.85355 0.0
C1351 C 0.67101 0.34161 0.87222 0.0
C1352 C 0.67184 0.4605 0.93496 0.0
C1353 C 0.68967 0.41639 0.89657 0.0
C1354 C 0.63998 0.46506 0.94485 0.0
C1355 C 0.61593 0.45826 0.92301 0.0
C1356 C 0.67811 0.44779 0.90352 0.0
C1357 C 0.62704 0.45462 0.89141 0.0
C1358 C 0.70135 0.40732 0.86577 0.0
C1359 C 0.665 0.35199 0.90404 0.0
N1360 N 0.65746 0.44874 0.88241 0.0
N1361 N 0.67368 0.38875 0.91517 0.0
H1362 H 0.62532 0.38256 0.19268 0.0
H1363 H 0.57961 0.36 0.01756 0.0
H1364 H 0.68912 0.35445 0.11271 0.0
H1365 H 0.55378 0.43492 0.09256 0.0
H1366 H 0.60489 0.33915 0.05434 0.0
H1367 H 0.58366 0.38224 0.15795 0.0
C1368 C 0.62992 0.37538 0.16781 0.0
C1369 C 0.66036 0.36844 0.15531 0.0
C1370 C 0.59284 0.35941 0.06285 0.0
C1371 C 0.61359 0.36859 0.11572 0.0
C1372 C 0.57819 0.37104 0.04201 0.0
C1373 C 0.56459 0.39902 0.05225 0.0
C1374 C 0.59321 0.37544 0.09417 0.0
C1375 C 0.56405 0.41323 0.08392 0.0
C1376 C 0.6064 0.37542 0.14807 0.0
C1377 C 0.66564 0.35962 0.12304 0.0
N1378 N 0.57829 0.40133 0.10382 0.0
N1379 N 0.6426 0.36028 0.10422 0.0
H1380 H 0.73371 0.65726 0.16412 0.0
H1381 H 0.5453 0.57821 0.09848 0.0
H1382 H 0.6527 0.70169 0.19735 0.0
H1383 H 0.63719 0.57986 0.03583 0.0
H1384 H 0.5834 0.61049 0.14045 0.0
H1385 H 0.69809 0.61826 0.12108 0.0
C1386 C 0.70828 0.65849 0.16234 0.0
C1387 C 0.69578 0.68242 0.18401 0.0
C1388 C 0.59532 0.60361 0.11763 0.0
C1389 C 0.65516 0.63783 0.13597 0.0
C1390 C 0.57365 0.58503 0.09381 0.0
C1391 C 0.58839 0.57686 0.06389 0.0
C1392 C 0.63209 0.61416 0.11154 0.0
C1393 C 0.6251 0.58586 0.05879 0.0
C1394 C 0.68825 0.63654 0.13785 0.0
C1395 C 0.66313 0.68367 0.18087 0.0
N1396 N 0.64604 0.6045 0.08256 0.0
N1397 N 0.64368 0.66129 0.15741 0.0
H1398 H 0.38116 0.70687 0.08558 0.0
H1399 H 0.35028 0.50866 0.04856 0.0
H1400 H 0.30262 0.64347 0.15279 0.0
H1401 H 0.4312 0.60943 0.08913 0.0
H1402 H 0.30811 0.54046 0.0598 0.0
H1403 H 0.36108 0.65196 0.04668 0.0
C1404 C 0.35902 0.68205 0.09201 0.0
C1405 C 0.34657 0.67834 0.12326 0.0
C1406 C 0.33517 0.55517 0.06599 0.0
C1407 C 0.32705 0.61605 0.08038 0.0
C1408 C 0.35894 0.53714 0.06025 0.0
C1409 C 0.39472 0.55754 0.06601 0.0
C1410 C 0.34802 0.59321 0.0773 0.0
C1411 C 0.40431 0.59326 0.08287 0.0
C1412 C 0.34687 0.65081 0.06966 0.0
C1413 C 0.31595 0.64653 0.12963 0.0
N1414 N 0.38122 0.6104 0.08719 0.0
N1415 N 0.30741 0.61565 0.10815 0.0
H1416 H 0.28844 0.34302 0.1789 0.0
H1417 H 0.47661 0.41954 0.07817 0.0
H1418 H 0.37488 0.31231 0.19067 0.0
H1419 H 0.37733 0.41544 0.05361 0.0
H1420 H 0.44392 0.38769 0.12373 0.0
H1421 H 0.32551 0.37919 0.13788 0.0
C1422 C 0.31532 0.34415 0.17309 0.0
C1423 C 0.32841 0.32445 0.18826 0.0
C1424 C 0.42954 0.39378 0.10813 0.0
C1425 C 0.37115 0.36573 0.14093 0.0
C1426 C 0.44811 0.41174 0.08208 0.0
C1427 C 0.42979 0.42005 0.06174 0.0
C1428 C 0.39264 0.38465 0.11393 0.0
C1429 C 0.39284 0.40964 0.06831 0.0
C1430 C 0.3365 0.36471 0.14955 0.0
C1431 C 0.36366 0.32717 0.17971 0.0
N1432 N 0.37573 0.3928 0.09372 0.0
N1433 N 0.38378 0.34726 0.15651 0.0
H1434 H 0.86751 0.72748 0.69896 0.0
H1435 H 0.85619 0.5499 0.56987 0.0
H1436 H 0.76818 0.64404 0.66888 0.0
H1437 H 0.95414 0.63617 0.60007 0.0
H1438 H 0.82306 0.58216 0.60676 0.0
H1439 H 0.89904 0.69275 0.66404 0.0
C1440 C 0.85218 0.70195 0.68494 0.0
C1441 C 0.8149 0.68919 0.68676 0.0
C1442 C 0.85182 0.59389 0.60537 0.0
C1443 C 0.85132 0.64889 0.64617 0.0
C1444 C 0.87078 0.57536 0.58435 0.0
C1445 C 0.90817 0.59017 0.58157 0.0
C1446 C 0.87025 0.62748 0.62399 0.0
C1447 C 0.92542 0.62354 0.60103 0.0
C1448 C 0.87033 0.68205 0.66488 0.0
C1449 C 0.79684 0.65558 0.66798 0.0
N1450 N 0.90645 0.6409 0.62118 0.0
N1451 N 0.81515 0.63677 0.64848 0.0
H1452 H 0.37582 0.82686 0.70505 0.0
H1453 H 0.38919 0.89196 0.53951 0.0
H1454 H 0.28783 0.79546 0.64967 0.0
H1455 H 0.47509 0.9427 0.59888 0.0
H1456 H 0.35549 0.84917 0.57704 0.0
H1457 H 0.41546 0.86336 0.66472 0.0
C1458 C 0.36493 0.82729 0.68426 0.0
C1459 C 0.32856 0.80766 0.68049 0.0
C1460 C 0.38178 0.86937 0.58195 0.0
C1461 C 0.37355 0.84972 0.63459 0.0
C1462 C 0.40112 0.89367 0.56042 0.0
C1463 C 0.43479 0.92095 0.56628 0.0
C1464 C 0.39592 0.87249 0.60993 0.0
C1465 C 0.4492 0.92188 0.59355 0.0
C1466 C 0.38752 0.84834 0.66138 0.0
C1467 C 0.31566 0.81006 0.65354 0.0
N1468 N 0.42942 0.8982 0.6147 0.0
N1469 N 0.33812 0.83062 0.63167 0.0
H1470 H 0.1414 0.37975 0.67921 0.0
H1471 H 0.13532 0.44688 0.52767 0.0
H1472 H 0.21101 0.36866 0.59756 0.0
H1473 H 0.03392 0.38833 0.57609 0.0
H1474 H 0.16363 0.42185 0.55728 0.0
H1475 H 0.09974 0.3825 0.64581 0.0
C1476 C 0.14719 0.37657 0.65416 0.0
C1477 C 0.17951 0.37411 0.6409 0.0
C1478 C 0.13516 0.41426 0.56143 0.0
C1479 C 0.13314 0.37851 0.60314 0.0
C1480 C 0.11898 0.42903 0.54488 0.0
C1481 C 0.08224 0.42015 0.5498 0.0
C1482 C 0.1148 0.39103 0.58376 0.0
C1483 C 0.06239 0.39609 0.57189 0.0
C1484 C 0.12355 0.37819 0.63521 0.0
C1485 C 0.18627 0.37052 0.60851 0.0
N1486 N 0.07908 0.38277 0.58862 0.0
N1487 N 0.16366 0.37371 0.59074 0.0
H1488 H 0.75395 0.21128 0.64022 0.0
H1489 H 0.58569 0.03543 0.57717 0.0
H1490 H 0.67201 0.14035 0.70033 0.0
H1491 H 0.63254 0.13559 0.5328 0.0
H1492 H 0.62816 0.06516 0.61688 0.0
H1493 H 0.71988 0.17571 0.59527 0.0
C1494 C 0.72928 0.18754 0.64374 0.0
C1495 C 0.71585 0.17822 0.67377 0.0
C1496 C 0.6297 0.08027 0.59801 0.0
C1497 C 0.67713 0.13755 0.62286 0.0
C1498 C 0.60581 0.06316 0.57513 0.0
C1499 C 0.6059 0.083 0.55152 0.0
C1500 C 0.65439 0.11717 0.5969 0.0
C1501 C 0.63183 0.11932 0.55053 0.0
C1502 C 0.70976 0.16756 0.61824 0.0
C1503 C 0.6833 0.14804 0.67741 0.0
N1504 N 0.65508 0.13528 0.57291 0.0
N1505 N 0.66512 0.12863 0.65225 0.0
H1506 H 0.79638 0.35272 0.32765 0.0
H1507 H 0.96667 0.38829 0.40858 0.0
H1508 H 0.85085 0.27691 0.31166 0.0
H1509 H 0.8878 0.43058 0.45585 0.0
H1510 H 0.92957 0.35755 0.36621 0.0
H1511 H 0.83327 0.38932 0.36932 0.0
C1512 C 0.81598 0.34374 0.33265 0.0
C1513 C 0.82034 0.31176 0.31583 0.0
C1514 C 0.92007 0.37311 0.38596 0.0
C1515 C 0.86332 0.3539 0.36323 0.0
C1516 C 0.94107 0.39053 0.41026 0.0
C1517 C 0.92933 0.41047 0.43635 0.0
C1518 C 0.88698 0.37555 0.38759 0.0
C1519 C 0.89706 0.41443 0.43645 0.0
C1520 C 0.83705 0.36467 0.35661 0.0
C1521 C 0.84639 0.30137 0.32388 0.0
N1522 N 0.87652 0.39656 0.41236 0.0
N1523 N 0.86718 0.32266 0.34682 0.0
H1524 H 0.6611 0.75327 0.31977 0.0
H1525 H 0.65801 0.95122 0.40607 0.0
H1526 H 0.74091 0.85947 0.29857 0.0
H1527 H 0.56824 0.84622 0.40994 0.0
H1528 H 0.691 0.91823 0.36984 0.0
H1529 H 0.62925 0.7867 0.35644 0.0
C1530 C 0.67212 0.78355 0.32287 0.0
C1531 C 0.70396 0.80334 0.3059 0.0
C1532 C 0.66406 0.90247 0.37866 0.0
C1533 C 0.66722 0.84213 0.348 0.0
C1534 C 0.6452 0.92132 0.39942 0.0
C1535 C 0.61011 0.90169 0.41121 0.0
C1536 C 0.64803 0.8635 0.36987 0.0
C1537 C 0.59507 0.86282 0.4015 0.0
C1538 C 0.65374 0.80271 0.34375 0.0
C1539 C 0.71648 0.84277 0.3109 0.0
N1540 N 0.61405 0.84515 0.38168 0.0
N1541 N 0.69822 0.86074 0.33141 0.0
H1542 H 0.22706 0.71871 0.34843 0.0
H1543 H 0.05714 0.53699 0.38028 0.0
H1544 H 0.15397 0.65974 0.27821 0.0
H1545 H 0.10762 0.62316 0.4533 0.0
H1546 H 0.09146 0.5796 0.34167 0.0
H1547 H 0.18419 0.68153 0.38665 0.0
C1548 C 0.20192 0.69791 0.34112 0.0
C1549 C 0.19392 0.69234 0.31025 0.0
C1550 C 0.0943 0.5895 0.3662 0.0
C1551 C 0.14487 0.64934 0.35369 0.0
C1552 C 0.07449 0.56536 0.38817 0.0
C1553 C 0.07929 0.57702 0.4199 0.0
C1554 C 0.11947 0.62504 0.37619 0.0
C1555 C 0.10293 0.61347 0.42902 0.0
C1556 C 0.17737 0.67685 0.36294 0.0
C1557 C 0.16095 0.66507 0.30193 0.0
N1558 N 0.12245 0.63604 0.40728 0.0
N1559 N 0.13774 0.64423 0.32346 0.0
H1560 H 0.40827 0.14142 0.3103 0.0
H1561 H 0.44904 0.13489 0.47864 0.0
H1562 H 0.37107 0.19719 0.39338 0.0
H1563 H 0.45664 0.05244 0.40163 0.0
H1564 H 0.41899 0.15672 0.44717 0.0
H1565 H 0.42161 0.10433 0.34228 0.0
C1566 C 0.40154 0.14463 0.33523 0.0
C1567 C 0.38854 0.17219 0.34936 0.0
C1568 C 0.4275 0.1341 0.43693 0.0
C1569 C 0.40533 0.13154 0.38608 0.0
C1570 C 0.44528 0.12221 0.45468 0.0
C1571 C 0.45645 0.09292 0.44218 0.0
C1572 C 0.42137 0.11699 0.40619 0.0
C1573 C 0.44931 0.07592 0.41165 0.0
C1574 C 0.40955 0.12385 0.3535 0.0
C1575 C 0.38089 0.17599 0.38171 0.0
N1576 N 0.43263 0.08858 0.39445 0.0
N1577 N 0.39012 0.15648 0.39908 0.0
H1578 H 0.64073 0.87404 0.67571 0.0
H1579 H 0.53704 0.85141 0.53227 0.0
H1580 H 0.62364 0.78127 0.60236 0.0
H1581 H 0.5981 0.96137 0.57708 0.0
H1582 H 0.56461 0.82447 0.5616 0.0
H1583 H 0.62506 0.90766 0.642 0.0
C1584 C 0.63476 0.86137 0.6521 0.0
C1585 C 0.63335 0.82501 0.64162 0.0
C1586 C 0.57184 0.85449 0.5651 0.0
C1587 C 0.61389 0.86217 0.60376 0.0
C1588 C 0.55559 0.8698 0.54884 0.0
C1589 C 0.56499 0.90863 0.55251 0.0
C1590 C 0.59715 0.87806 0.58564 0.0
C1591 C 0.58992 0.93123 0.57376 0.0
C1592 C 0.62556 0.88033 0.63302 0.0
C1593 C 0.62505 0.80935 0.61111 0.0
N1594 N 0.60504 0.91559 0.5897 0.0
N1595 N 0.61487 0.82774 0.59339 0.0
H1596 H 0.68093 0.22944 0.33669 0.0
H1597 H 0.59827 0.02534 0.38825 0.0
H1598 H 0.69736 0.13285 0.28384 0.0
H1599 H 0.5717 0.11635 0.43976 0.0
H1600 H 0.63004 0.06393 0.34739 0.0
H1601 H 0.63769 0.18897 0.37269 0.0
C1602 C 0.67521 0.19974 0.33236 0.0
C1603 C 0.69255 0.18457 0.30679 0.0
C1604 C 0.617 0.07558 0.36734 0.0
C1605 C 0.64367 0.13822 0.34847 0.0
C1606 C 0.59871 0.05344 0.39062 0.0
C1607 C 0.58263 0.06787 0.41738 0.0
C1608 C 0.61992 0.11286 0.371 0.0
C1609 C 0.58379 0.10431 0.41936 0.0
C1610 C 0.65057 0.17667 0.35306 0.0
C1611 C 0.68467 0.14597 0.30303 0.0
N1612 N 0.60273 0.12591 0.39663 0.0
N1613 N 0.661 0.12429 0.32364 0.0
H1614 H 0.86601 0.59338 0.30773 0.0
H1615 H 0.94292 0.62939 0.47263 0.0
H1616 H 0.83038 0.65212 0.38982 0.0
H1617 H 0.94914 0.54336 0.39846 0.0
H1618 H 0.91389 0.65051 0.43926 0.0
H1619 H 0.91026 0.5894 0.33689 0.0
C1620 C 0.86829 0.60639 0.33172 0.0
C1621 C 0.84462 0.62304 0.34648 0.0
C1622 C 0.92226 0.62754 0.43004 0.0
C1623 C 0.89436 0.61768 0.38022 0.0
C1624 C 0.93898 0.61564 0.44895 0.0
C1625 C 0.94858 0.58484 0.43802 0.0
C1626 C 0.91565 0.60882 0.39981 0.0
C1627 C 0.94218 0.56729 0.40758 0.0
C1628 C 0.89325 0.60379 0.34842 0.0
C1629 C 0.84837 0.63927 0.37762 0.0
N1630 N 0.92615 0.57958 0.38949 0.0
N1631 N 0.87247 0.63573 0.39366 0.0
H1632 H 0.36632 0.83663 0.28381 0.0
H1633 H 0.37722 0.91817 0.46454 0.0
H1634 H 0.2721 0.82572 0.34633 0.0
H1635 H 0.46617 0.92157 0.3975 0.0
H1636 H 0.3376 0.8922 0.42173 0.0
H1637 H 0.40268 0.87585 0.32496 0.0
C1638 C 0.35322 0.84273 0.30626 0.0
C1639 C 0.31612 0.82736 0.31181 0.0
C1640 C 0.36586 0.89908 0.41649 0.0
C1641 C 0.35792 0.87243 0.35958 0.0
C1642 C 0.38832 0.91391 0.44081 0.0
C1643 C 0.42471 0.92145 0.43431 0.0
C1644 C 0.38029 0.89212 0.38585 0.0
C1645 C 0.43811 0.91567 0.40338 0.0
C1646 C 0.37407 0.86525 0.32986 0.0
C1647 C 0.30068 0.83679 0.34124 0.0
N1648 N 0.41595 0.90119 0.38043 0.0
N1649 N 0.32172 0.85839 0.36428 0.0
H1650 H 0.2557 0.36744 0.30106 0.0
H1651 H 0.07697 0.35157 0.41238 0.0
H1652 H 0.16493 0.26482 0.3111 0.0
H1653 H 0.16118 0.45824 0.39911 0.0
H1654 H 0.11045 0.32037 0.3762 0.0
H1655 H 0.22351 0.40184 0.33703 0.0
C1656 C 0.22915 0.35209 0.31098 0.0
C1657 C 0.21298 0.31309 0.30282 0.0
C1658 C 0.12173 0.35061 0.38096 0.0
C1659 C 0.1761 0.35225 0.34452 0.0
C1660 C 0.10247 0.36867 0.40176 0.0
C1661 C 0.11599 0.40792 0.4091 0.0
C1662 C 0.15515 0.37158 0.36687 0.0
C1663 C 0.14956 0.42801 0.39444 0.0
C1664 C 0.21073 0.37177 0.33148 0.0
C1665 C 0.1784 0.29482 0.31633 0.0
N1666 N 0.1679 0.4097 0.37409 0.0
N1667 N 0.16138 0.31439 0.33646 0.0
H1668 H 0.36511 0.2454 0.67826 0.0
H1669 H 0.36034 0.05205 0.57573 0.0
H1670 H 0.2738 0.14165 0.68153 0.0
H1671 H 0.45736 0.14714 0.59518 0.0
H1672 H 0.32681 0.08546 0.61058 0.0
H1673 H 0.39803 0.2113 0.6435 0.0
C1674 C 0.35187 0.21558 0.67148 0.0
C1675 C 0.31661 0.19649 0.683 0.0
C1676 C 0.35547 0.09888 0.60725 0.0
C1677 C 0.35407 0.15715 0.64286 0.0
C1678 C 0.37468 0.07976 0.58735 0.0
C1679 C 0.41192 0.09658 0.58227 0.0
C1680 C 0.37348 0.13535 0.62201 0.0
C1681 C 0.42878 0.13279 0.5981 0.0
C1682 C 0.37072 0.19604 0.65174 0.0
C1683 C 0.30098 0.15764 0.67346 0.0
N1684 N 0.40954 0.15086 0.61696 0.0
N1685 N 0.31966 0.1394 0.65393 0.0
H1686 H 0.83598 0.26242 0.64844 0.0
H1687 H 0.93495 0.47144 0.60633 0.0
H1688 H 0.83485 0.36161 0.70871 0.0
H1689 H 0.94726 0.3774 0.54568 0.0
H1690 H 0.90294 0.43087 0.64598 0.0
H1691 H 0.88022 0.30245 0.61209 0.0
C1692 C 0.84516 0.29254 0.65416 0.0
C1693 C 0.83124 0.30865 0.68155 0.0
C1694 C 0.91301 0.41892 0.62428 0.0
C1695 C 0.88161 0.35454 0.64007 0.0
C1696 C 0.93158 0.44225 0.60174 0.0
C1697 C 0.94397 0.42778 0.5729 0.0
C1698 C 0.90586 0.38039 0.61782 0.0
C1699 C 0.93845 0.38964 0.56786 0.0
C1700 C 0.87034 0.31536 0.63337 0.0
C1701 C 0.844 0.34782 0.68763 0.0
N1702 N 0.91929 0.36704 0.58997 0.0
N1703 N 0.86815 0.36924 0.6671 0.0
H1704 H 0.19678 0.62551 0.68916 0.0
H1705 H 0.08068 0.63646 0.56773 0.0
H1706 H 0.20157 0.72683 0.65986 0.0
H1707 H 0.11852 0.54596 0.54783 0.0
H1708 H 0.11432 0.66134 0.61195 0.0
H1709 H 0.16016 0.58894 0.64576 0.0
C1710 C 0.19067 0.64006 0.67352 0.0
C1711 C 0.20279 0.67938 0.67793 0.0
C1712 C 0.11593 0.63642 0.59765 0.0
C1713 C 0.16058 0.63808 0.62959 0.0
C1714 C 0.09684 0.62209 0.57197 0.0
C1715 C 0.09735 0.58931 0.55313 0.0
C1716 C 0.13701 0.61898 0.60455 0.0
C1717 C 0.11802 0.57174 0.56125 0.0
C1718 C 0.16978 0.6192 0.64897 0.0
C1719 C 0.19313 0.69672 0.6576 0.0
N1720 N 0.13754 0.58709 0.5864 0.0
N1721 N 0.17258 0.67598 0.63459 0.0
loop_
_geom_bond_atom_site_label_1
_geom_bond_atom_site_label_2
_geom_bond_distance
_geom_bond_site_symmetry_2
_ccdc_geom_bond_type
C0 C2 1.422 . S
C0 C4 1.415 . S
C0 N6 1.369 . S
C1 C2 1.421 . S
C1 C3 1.417 . S
C1 C13 1.422 . S
C2 C0 1.422 . S
C2 C1 1.421 . S
C2 N12 1.359 . S
C3 C1 1.417 . S
C3 C5 1.329 . S
C3 H22 0.930 . S
C4 C0 1.415 . S
C4 C5 1.437 . S
C4 C8 1.413 . S
C5 C3 1.329 . S
C5 C4 1.437 . S
C5 H27 0.929 . S
N6 C0 1.369 . S
N6 C7 1.338 . S
N6 Gd11 2.622 . S
C7 N6 1.338 . S
C7 C9 1.378 . S
C7 H19 0.929 . S
C8 C4 1.413 . S
C8 C9 1.348 . S
C8 H24 0.931 . S
C9 C7 1.378 . S
C9 C8 1.348 . S
C9 H25 0.930 . S
Gd10 N30 2.622 . S
Gd10 N37 2.570 . S
Gd10 O44 2.353 . S
Gd10 O45 2.468 . S
Gd10 O46 2.427 . S
Gd10 O48 2.388 . S
Gd10 O49 2.386 . S
Gd10 O53 2.307 . S
Gd10 C63 2.805 . S
Gd11 N6 2.622 . S
Gd11 N12 2.570 . S
Gd11 O43 2.386 . S
Gd11 O47 2.307 . S
Gd11 O50 2.353 . S
Gd11 O51 2.468 . S
Gd11 O52 2.427 . S
Gd11 O54 2.388 . S
Gd11 C75 2.805 . S
N12 C2 1.359 . S
N12 Gd11 2.570 . S
N12 C14 1.343 . S
C13 C1 1.422 . S
C13 C15 1.321 . S
C13 H21 0.931 . S
C14 N12 1.343 . S
C14 C15 1.390 . S
C14 H16 0.931 . S
C15 C13 1.321 . S
C15 C14 1.390 . S
C15 H17 0.930 . S
H16 C14 0.931 . S
H17 C15 0.930 . S
H18 C41 0.931 . S
H19 C7 0.929 . S
H20 C42 0.930 . S
H21 C13 0.931 . S
H22 C3 0.930 . S
H23 C32 0.929 . S
H24 C8 0.931 . S
H25 C9 0.930 . S
H26 C64 0.930 . S
H27 C5 0.929 . S
H28 C33 0.931 . S
H29 C34 0.930 . S
N30 Gd10 2.622 . S
N30 C31 1.369 . S
N30 C32 1.338 . S
C31 N30 1.369 . S
C31 C35 1.415 . S
C31 C38 1.422 . S
C32 H23 0.929 . S
C32 N30 1.338 . S
C32 C34 1.378 . S
C33 H28 0.931 . S
C33 C34 1.348 . S
C33 C35 1.413 . S
C34 H29 0.930 . S
C34 C32 1.378 . S
C34 C33 1.348 . S
C35 C31 1.415 . S
C35 C33 1.413 . S
C35 C65 1.437 . S
H36 C65 0.929 . S
N37 Gd10 2.570 . S
N37 C38 1.359 . S
N37 C41 1.343 . S
C38 C31 1.422 . S
C38 N37 1.359 . S
C38 C40 1.421 . S
C39 C40 1.422 . S
C39 C42 1.321 . S
C39 H66 0.931 . S
C40 C38 1.421 . S
C40 C39 1.422 . S
C40 C64 1.417 . S
C41 H18 0.931 . S
C41 N37 1.343 . S
C41 C42 1.390 . S
C42 H20 0.930 . S
C42 C39 1.321 . S
C42 C41 1.390 . S
O43 Gd11 2.386 . S
O43 C55 1.265 . S
O44 Gd10 2.353 . S
O44 C55 1.242 . S
O45 Gd10 2.468 . S
O45 C63 1.263 . S
O46 Gd10 2.427 . S
O46 C63 1.252 . S
O47 Gd11 2.307 . S
O47 C56 1.261 . S
O48 Gd10 2.388 . S
O48 C56 1.252 . S
O49 Gd10 2.386 . S
O49 C67 1.265 . S
O50 Gd11 2.353 . S
O50 C67 1.242 . S
O51 Gd11 2.468 . S
O51 C75 1.263 . S
O52 Gd11 2.427 . S
O52 C75 1.252 . S
O53 Gd10 2.307 . S
O53 C68 1.261 . S
O54 Gd11 2.388 . S
O54 C68 1.252 . S
C55 O43 1.265 . S
C55 O44 1.242 . S
C56 O47 1.261 . S
C56 O48 1.252 . S
C57 C60 1.394 . S
C57 C62 1.370 . S
C57 C63 1.500 . S
C58 C61 1.383 . S
C58 C62 1.395 . S
C59 C60 1.396 . S
C59 C61 1.365 . S
C59 H76 0.929 . S
C60 C57 1.394 . S
C60 C59 1.396 . S
C60 H77 0.930 . S
C61 C58 1.383 . S
C61 C59 1.365 . S
C61 H78 0.931 . S
C62 C57 1.370 . S
C62 C58 1.395 . S
C62 H79 0.930 . S
C63 Gd10 2.805 . S
C63 O45 1.263 . S
C63 O46 1.252 . S
C63 C57 1.500 . S
C64 H26 0.930 . S
C64 C40 1.417 . S
C64 C65 1.329 . S
C65 C35 1.437 . S
C65 H36 0.929 . S
C65 C64 1.329 . S
H66 C39 0.931 . S
C67 O49 1.265 . S
C67 O50 1.242 . S
C68 O53 1.261 . S
C68 O54 1.252 . S
C69 C72 1.394 . S
C69 C74 1.370 . S
C69 C75 1.500 . S
C70 C73 1.383 . S
C70 C74 1.395 . S
C71 C72 1.396 . S
C71 C73 1.365 . S
C71 H80 0.929 . S
C72 C69 1.394 . S
C72 C71 1.396 . S
C72 H81 0.930 . S
C73 C70 1.383 . S
C73 C71 1.365 . S
C73 H82 0.931 . S
C74 C69 1.370 . S
C74 C70 1.395 . S
C74 H83 0.930 . S
C75 Gd11 2.805 . S
C75 O51 1.263 . S
C75 O52 1.252 . S
C75 C69 1.500 . S
H76 C59 0.929 . S
H77 C60 0.930 . S
H78 C61 0.931 . S
H79 C62 0.930 . S
H80 C71 0.929 . S
H81 C72 0.930 . S
H82 C73 0.931 . S
H83 C74 0.930 . S
C84 C86 1.422 . S
C84 C88 1.415 . S
C84 N90 1.369 . S
C85 C86 1.421 . S
C85 C87 1.417 . S
C85 C97 1.422 . S
C86 C84 1.422 . S
C86 C85 1.421 . S
C86 N96 1.359 . S
C87 C85 1.417 . S
C87 C89 1.329 . S
C87 H106 0.930 . S
C88 C84 1.415 . S
C88 C89 1.437 . S
C88 C92 1.413 . S
C89 C87 1.329 . S
C89 C88 1.437 . S
C89 H111 0.929 . S
N90 C84 1.369 . S
N90 C91 1.338 . S
N90 Gd95 2.622 . S
C91 N90 1.338 . S
C91 C93 1.378 . S
C91 H103 0.929 . S
C92 C88 1.413 . S
C92 C93 1.348 . S
C92 H108 0.931 . S
C93 C91 1.378 . S
C93 C92 1.348 . S
C93 H109 0.930 . S
Gd94 N114 2.622 . S
Gd94 N121 2.570 . S
Gd94 O128 2.353 . S
Gd94 O129 2.468 . S
Gd94 O130 2.427 . S
Gd94 O132 2.388 . S
Gd94 O133 2.386 . S
Gd94 O137 2.307 . S
Gd94 C147 2.805 . S
Gd95 N90 2.622 . S
Gd95 N96 2.570 . S
Gd95 O127 2.386 . S
Gd95 O131 2.307 . S
Gd95 O134 2.353 . S
Gd95 O135 2.468 . S
Gd95 O136 2.427 . S
Gd95 O138 2.388 . S
Gd95 C159 2.805 . S
N96 C86 1.359 . S
N96 Gd95 2.570 . S
N96 C98 1.343 . S
C97 C85 1.422 . S
C97 C99 1.321 . S
C97 H105 0.931 . S
C98 N96 1.343 . S
C98 C99 1.390 . S
C98 H100 0.931 . S
C99 C97 1.321 . S
C99 C98 1.390 . S
C99 H101 0.930 . S
H100 C98 0.931 . S
H101 C99 0.930 . S
H102 C125 0.931 . S
H103 C91 0.929 . S
H104 C126 0.930 . S
H105 C97 0.931 . S
H106 C87 0.930 . S
H107 C116 0.929 . S
H108 C92 0.931 . S
H109 C93 0.930 . S
H110 C148 0.930 . S
H111 C89 0.929 . S
H112 C117 0.931 . S
H113 C118 0.930 . S
N114 Gd94 2.622 . S
N114 C115 1.369 . S
N114 C116 1.338 . S
C115 N114 1.369 . S
C115 C119 1.415 . S
C115 C122 1.422 . S
C116 H107 0.929 . S
C116 N114 1.338 . S
C116 C118 1.378 . S
C117 H112 0.931 . S
C117 C118 1.348 . S
C117 C119 1.413 . S
C118 H113 0.930 . S
C118 C116 1.378 . S
C118 C117 1.348 . S
C119 C115 1.415 . S
C119 C117 1.413 . S
C119 C149 1.437 . S
H120 C149 0.929 . S
N121 Gd94 2.570 . S
N121 C122 1.359 . S
N121 C125 1.343 . S
C122 C115 1.422 . S
C122 N121 1.359 . S
C122 C124 1.421 . S
C123 C124 1.422 . S
C123 C126 1.321 . S
C123 H150 0.931 . S
C124 C122 1.421 . S
C124 C123 1.422 . S
C124 C148 1.417 . S
C125 H102 0.931 . S
C125 N121 1.343 . S
C125 C126 1.390 . S
C126 H104 0.930 . S
C126 C123 1.321 . S
C126 C125 1.390 . S
O127 Gd95 2.386 . S
O127 C139 1.265 . S
O128 Gd94 2.353 . S
O128 C139 1.242 . S
O129 Gd94 2.468 . S
O129 C147 1.263 . S
O130 Gd94 2.427 . S
O130 C147 1.252 . S
O131 Gd95 2.307 . S
O131 C140 1.261 . S
O132 Gd94 2.388 . S
O132 C140 1.252 . S
O133 Gd94 2.386 . S
O133 C151 1.265 . S
O134 Gd95 2.353 . S
O134 C151 1.242 . S
O135 Gd95 2.468 . S
O135 C159 1.263 . S
O136 Gd95 2.427 . S
O136 C159 1.252 . S
O137 Gd94 2.307 . S
O137 C152 1.261 . S
O138 Gd95 2.388 . S
O138 C152 1.252 . S
C139 O127 1.265 . S
C139 O128 1.242 . S
C140 O131 1.261 . S
C140 O132 1.252 . S
C141 C144 1.394 . S
C141 C146 1.370 . S
C141 C147 1.500 . S
C142 C145 1.383 . S
C142 C146 1.395 . S
C143 C144 1.396 . S
C143 C145 1.365 . S
C143 H160 0.929 . S
C144 C141 1.394 . S
C144 C143 1.396 . S
C144 H161 0.930 . S
C145 C142 1.383 . S
C145 C143 1.365 . S
C145 H162 0.931 . S
C146 C141 1.370 . S
C146 C142 1.395 . S
C146 H163 0.930 . S
C147 Gd94 2.805 . S
C147 O129 1.263 . S
C147 O130 1.252 . S
C147 C141 1.500 . S
C148 H110 0.930 . S
C148 C124 1.417 . S
C148 C149 1.329 . S
C149 C119 1.437 . S
C149 H120 0.929 . S
C149 C148 1.329 . S
H150 C123 0.931 . S
C151 O133 1.265 . S
C151 O134 1.242 . S
C152 O137 1.261 . S
C152 O138 1.252 . S
C153 C156 1.394 . S
C153 C158 1.370 . S
C153 C159 1.500 . S
C154 C157 1.383 . S
C154 C158 1.395 . S
C155 C156 1.396 . S
C155 C157 1.365 . S
C155 H164 0.929 . S
C156 C153 1.394 . S
C156 C155 1.396 . S
C156 H165 0.930 . S
C157 C154 1.383 . S
C157 C155 1.365 . S
C157 H166 0.931 . S
C158 C153 1.370 . S
C158 C154 1.395 . S
C158 H167 0.930 . S
C159 Gd95 2.805 . S
C159 O135 1.263 . S
C159 O136 1.252 . S
C159 C153 1.500 . S
H160 C143 0.929 . S
H161 C144 0.930 . S
H162 C145 0.931 . S
H163 C146 0.930 . S
H164 C155 0.929 . S
H165 C156 0.930 . S
H166 C157 0.931 . S
H167 C158 0.930 . S
C168 C170 1.422 . S
C168 C172 1.415 . S
C168 N174 1.369 . S
C169 C170 1.421 . S
C169 C171 1.417 . S
C169 C181 1.422 . S
C170 C168 1.422 . S
C170 C169 1.421 . S
C170 N180 1.359 . S
C171 C169 1.417 . S
C171 C173 1.329 . S
C171 H190 0.930 . S
C172 C168 1.415 . S
C172 C173 1.437 . S
C172 C176 1.413 . S
C173 C171 1.329 . S
C173 C172 1.437 . S
C173 H195 0.929 . S
N174 C168 1.369 . S
N174 C175 1.338 . S
N174 Gd179 2.622 . S
C175 N174 1.338 . S
C175 C177 1.378 . S
C175 H187 0.929 . S
C176 C172 1.413 . S
C176 C177 1.348 . S
C176 H192 0.931 . S
C177 C175 1.378 . S
C177 C176 1.348 . S
C177 H193 0.930 . S
Gd178 N198 2.622 . S
Gd178 N205 2.570 . S
Gd178 O212 2.353 . S
Gd178 O213 2.468 . S
Gd178 O214 2.427 . S
Gd178 O216 2.388 . S
Gd178 O217 2.386 . S
Gd178 O221 2.307 . S
Gd178 C231 2.805 . S
Gd179 N174 2.622 . S
Gd179 N180 2.570 . S
Gd179 O211 2.386 . S
Gd179 O215 2.307 . S
Gd179 O218 2.353 . S
Gd179 O219 2.468 . S
Gd179 O220 2.427 . S
Gd179 O222 2.388 . S
Gd179 C243 2.805 . S
N180 C170 1.359 . S
N180 Gd179 2.570 . S
N180 C182 1.343 . S
C181 C169 1.422 . S
C181 C183 1.321 . S
C181 H189 0.931 . S
C182 N180 1.343 . S
C182 C183 1.390 . S
C182 H184 0.931 . S
C183 C181 1.321 . S
C183 C182 1.390 . S
C183 H185 0.930 . S
H184 C182 0.931 . S
H185 C183 0.930 . S
H186 C209 0.931 . S
H187 C175 0.929 . S
H188 C210 0.930 . S
H189 C181 0.931 . S
H190 C171 0.930 . S
H191 C200 0.929 . S
H192 C176 0.931 . S
H193 C177 0.930 . S
H194 C232 0.930 . S
H195 C173 0.929 . S
H196 C201 0.931 . S
H197 C202 0.930 . S
N198 Gd178 2.622 . S
N198 C199 1.369 . S
N198 C200 1.338 . S
C199 N198 1.369 . S
C199 C203 1.415 . S
C199 C206 1.422 . S
C200 H191 0.929 . S
C200 N198 1.338 . S
C200 C202 1.378 . S
C201 H196 0.931 . S
C201 C202 1.348 . S
C201 C203 1.413 . S
C202 H197 0.930 . S
C202 C200 1.378 . S
C202 C201 1.348 . S
C203 C199 1.415 . S
C203 C201 1.413 . S
C203 C233 1.437 . S
H204 C233 0.929 . S
N205 Gd178 2.570 . S
N205 C206 1.359 . S
N205 C209 1.343 . S
C206 C199 1.422 . S
C206 N205 1.359 . S
C206 C208 1.421 . S
C207 C208 1.422 . S
C207 C210 1.321 . S
C207 H234 0.931 . S
C208 C206 1.421 . S
C208 C207 1.422 . S
C208 C232 1.417 . S
C209 H186 0.931 . S
C209 N205 1.343 . S
C209 C210 1.390 . S
C210 H188 0.930 . S
C210 C207 1.321 . S
C210 C209 1.390 . S
O211 Gd179 2.386 . S
O211 C223 1.265 . S
O212 Gd178 2.353 . S
O212 C223 1.242 . S
O213 Gd178 2.468 . S
O213 C231 1.263 . S
O214 Gd178 2.427 . S
O214 C231 1.252 . S
O215 Gd179 2.307 . S
O215 C224 1.261 . S
O216 Gd178 2.388 . S
O216 C224 1.252 . S
O217 Gd178 2.386 . S
O217 C235 1.265 . S
O218 Gd179 2.353 . S
O218 C235 1.242 . S
O219 Gd179 2.468 . S
O219 C243 1.263 . S
O220 Gd179 2.427 . S
O220 C243 1.252 . S
O221 Gd178 2.307 . S
O221 C236 1.261 . S
O222 Gd179 2.388 . S
O222 C236 1.252 . S
C223 O211 1.265 . S
C223 O212 1.242 . S
C224 O215 1.261 . S
C224 O216 1.252 . S
C225 C228 1.394 . S
C225 C230 1.370 . S
C225 C231 1.500 . S
C226 C229 1.383 . S
C226 C230 1.395 . S
C227 C228 1.396 . S
C227 C229 1.365 . S
C227 H244 0.929 . S
C228 C225 1.394 . S
C228 C227 1.396 . S
C228 H245 0.930 . S
C229 C226 1.383 . S
C229 C227 1.365 . S
C229 H246 0.931 . S
C230 C225 1.370 . S
C230 C226 1.395 . S
C230 H247 0.930 . S
C231 Gd178 2.805 . S
C231 O213 1.263 . S
C231 O214 1.252 . S
C231 C225 1.500 . S
C232 H194 0.930 . S
C232 C208 1.417 . S
C232 C233 1.329 . S
C233 C203 1.437 . S
C233 H204 0.929 . S
C233 C232 1.329 . S
H234 C207 0.931 . S
C235 O217 1.265 . S
C235 O218 1.242 . S
C236 O221 1.261 . S
C236 O222 1.252 . S
C237 C240 1.394 . S
C237 C242 1.370 . S
C237 C243 1.500 . S
C238 C241 1.383 . S
C238 C242 1.395 . S
C239 C240 1.396 . S
C239 C241 1.365 . S
C239 H248 0.929 . S
C240 C237 1.394 . S
C240 C239 1.396 . S
C240 H249 0.930 . S
C241 C238 1.383 . S
C241 C239 1.365 . S
C241 H250 0.931 . S
C242 C237 1.370 . S
C242 C238 1.395 . S
C242 H251 0.930 . S
C243 Gd179 2.805 . S
C243 O219 1.263 . S
C243 O220 1.252 . S
C243 C237 1.500 . S
H244 C227 0.929 . S
H245 C228 0.930 . S
H246 C229 0.931 . S
H247 C230 0.930 . S
H248 C239 0.929 . S
H249 C240 0.930 . S
H250 C241 0.931 . S
H251 C242 0.930 . S
C252 C254 1.422 . S
C252 C256 1.415 . S
C252 N258 1.369 . S
C253 C254 1.421 . S
C253 C255 1.417 . S
C253 C265 1.422 . S
C254 C252 1.422 . S
C254 C253 1.421 . S
C254 N264 1.359 . S
C255 C253 1.417 . S
C255 C257 1.329 . S
C255 H274 0.930 . S
C256 C252 1.415 . S
C256 C257 1.437 . S
C256 C260 1.413 . S
C257 C255 1.329 . S
C257 C256 1.437 . S
C257 H279 0.929 . S
N258 C252 1.369 . S
N258 C259 1.338 . S
N258 Gd263 2.622 . S
C259 N258 1.338 . S
C259 C261 1.378 . S
C259 H271 0.929 . S
C260 C256 1.413 . S
C260 C261 1.348 . S
C260 H276 0.931 . S
C261 C259 1.378 . S
C261 C260 1.348 . S
C261 H277 0.930 . S
Gd262 N282 2.622 . S
Gd262 N289 2.570 . S
Gd262 O296 2.353 . S
Gd262 O297 2.468 . S
Gd262 O298 2.427 . S
Gd262 O300 2.388 . S
Gd262 O301 2.386 . S
Gd262 O305 2.307 . S
Gd262 C315 2.805 . S
Gd263 N258 2.622 . S
Gd263 N264 2.570 . S
Gd263 O295 2.386 . S
Gd263 O299 2.307 . S
Gd263 O302 2.353 . S
Gd263 O303 2.468 . S
Gd263 O304 2.427 . S
Gd263 O306 2.388 . S
Gd263 C327 2.805 . S
N264 C254 1.359 . S
N264 Gd263 2.570 . S
N264 C266 1.343 . S
C265 C253 1.422 . S
C265 C267 1.321 . S
C265 H273 0.931 . S
C266 N264 1.343 . S
C266 C267 1.390 . S
C266 H268 0.931 . S
C267 C265 1.321 . S
C267 C266 1.390 . S
C267 H269 0.930 . S
H268 C266 0.931 . S
H269 C267 0.930 . S
H270 C293 0.931 . S
H271 C259 0.929 . S
H272 C294 0.930 . S
H273 C265 0.931 . S
H274 C255 0.930 . S
H275 C284 0.929 . S
H276 C260 0.931 . S
H277 C261 0.930 . S
H278 C316 0.930 . S
H279 C257 0.929 . S
H280 C285 0.931 . S
H281 C286 0.930 . S
N282 Gd262 2.622 . S
N282 C283 1.369 . S
N282 C284 1.338 . S
C283 N282 1.369 . S
C283 C287 1.415 . S
C283 C290 1.422 . S
C284 H275 0.929 . S
C284 N282 1.338 . S
C284 C286 1.378 . S
C285 H280 0.931 . S
C285 C286 1.348 . S
C285 C287 1.413 . S
C286 H281 0.930 . S
C286 C284 1.378 . S
C286 C285 1.348 . S
C287 C283 1.415 . S
C287 C285 1.413 . S
C287 C317 1.437 . S
H288 C317 0.929 . S
N289 Gd262 2.570 . S
N289 C290 1.359 . S
N289 C293 1.343 . S
C290 C283 1.422 . S
C290 N289 1.359 . S
C290 C292 1.421 . S
C291 C292 1.422 . S
C291 C294 1.321 . S
C291 H318 0.931 . S
C292 C290 1.421 . S
C292 C291 1.422 . S
C292 C316 1.417 . S
C293 H270 0.931 . S
C293 N289 1.343 . S
C293 C294 1.390 . S
C294 H272 0.930 . S
C294 C291 1.321 . S
C294 C293 1.390 . S
O295 Gd263 2.386 . S
O295 C307 1.265 . S
O296 Gd262 2.353 . S
O296 C307 1.242 . S
O297 Gd262 2.468 . S
O297 C315 1.263 . S
O298 Gd262 2.427 . S
O298 C315 1.252 . S
O299 Gd263 2.307 . S
O299 C308 1.261 . S
O300 Gd262 2.388 . S
O300 C308 1.252 . S
O301 Gd262 2.386 . S
O301 C319 1.265 . S
O302 Gd263 2.353 . S
O302 C319 1.242 . S
O303 Gd263 2.468 . S
O303 C327 1.263 . S
O304 Gd263 2.427 . S
O304 C327 1.252 . S
O305 Gd262 2.307 . S
O305 C320 1.261 . S
O306 Gd263 2.388 . S
O306 C320 1.252 . S
C307 O295 1.265 . S
C307 O296 1.242 . S
C308 O299 1.261 . S
C308 O300 1.252 . S
C309 C312 1.394 . S
C309 C314 1.370 . S
C309 C315 1.500 . S
C310 C313 1.383 . S
C310 C314 1.395 . S
C311 C312 1.396 . S
C311 C313 1.365 . S
C311 H328 0.929 . S
C312 C309 1.394 . S
C312 C311 1.396 . S
C312 H329 0.930 . S
C313 C310 1.383 . S
C313 C311 1.365 . S
C313 H330 0.931 . S
C314 C309 1.370 . S
C314 C310 1.395 . S
C314 H331 0.930 . S
C315 Gd262 2.805 . S
C315 O297 1.263 . S
C315 O298 1.252 . S
C315 C309 1.500 . S
C316 H278 0.930 . S
C316 C292 1.417 . S
C316 C317 1.329 . S
C317 C287 1.437 . S
C317 H288 0.929 . S
C317 C316 1.329 . S
H318 C291 0.931 . S
C319 O301 1.265 . S
C319 O302 1.242 . S
C320 O305 1.261 . S
C320 O306 1.252 . S
C321 C324 1.394 . S
C321 C326 1.370 . S
C321 C327 1.500 . S
C322 C325 1.383 . S
C322 C326 1.395 . S
C323 C324 1.396 . S
C323 C325 1.365 . S
C323 H332 0.929 . S
C324 C321 1.394 . S
C324 C323 1.396 . S
C324 H333 0.930 . S
C325 C322 1.383 . S
C325 C323 1.365 . S
C325 H334 0.931 . S
C326 C321 1.370 . S
C326 C322 1.395 . S
C326 H335 0.930 . S
C327 Gd263 2.805 . S
C327 O303 1.263 . S
C327 O304 1.252 . S
C327 C321 1.500 . S
H328 C311 0.929 . S
H329 C312 0.930 . S
H330 C313 0.931 . S
H331 C314 0.930 . S
H332 C323 0.929 . S
H333 C324 0.930 . S
H334 C325 0.931 . S
H335 C326 0.930 . S
C336 C338 1.422 . S
C336 C340 1.415 . S
C336 N342 1.369 . S
C337 C338 1.421 . S
C337 C339 1.417 . S
C337 C349 1.422 . S
C338 C336 1.422 . S
C338 C337 1.421 . S
C338 N348 1.359 . S
C339 C337 1.417 . S
C339 C341 1.329 . S
C339 H358 0.930 . S
C340 C336 1.415 . S
C340 C341 1.437 . S
C340 C344 1.413 . S
C341 C339 1.329 . S
C341 C340 1.437 . S
C341 H363 0.929 . S
N342 C336 1.369 . S
N342 C343 1.338 . S
N342 Gd347 2.622 . S
C343 N342 1.338 . S
C343 C345 1.378 . S
C343 H355 0.929 . S
C344 C340 1.413 . S
C344 C345 1.348 . S
C344 H360 0.931 . S
C345 C343 1.378 . S
C345 C344 1.348 . S
C345 H361 0.930 . S
Gd346 N366 2.622 . S
Gd346 N373 2.570 . S
Gd346 O380 2.353 . S
Gd346 O381 2.468 . S
Gd346 O382 2.427 . S
Gd346 O384 2.388 . S
Gd346 O385 2.386 . S
Gd346 O389 2.307 . S
Gd346 C399 2.805 . S
Gd347 N342 2.622 . S
Gd347 N348 2.570 . S
Gd347 O379 2.386 . S
Gd347 O383 2.307 . S
Gd347 O386 2.353 . S
Gd347 O387 2.468 . S
Gd347 O388 2.427 . S
Gd347 O390 2.388 . S
Gd347 C411 2.805 . S
N348 C338 1.359 . S
N348 Gd347 2.570 . S
N348 C350 1.343 . S
C349 C337 1.422 . S
C349 C351 1.321 . S
C349 H357 0.931 . S
C350 N348 1.343 . S
C350 C351 1.390 . S
C350 H352 0.931 . S
C351 C349 1.321 . S
C351 C350 1.390 . S
C351 H353 0.930 . S
H352 C350 0.931 . S
H353 C351 0.930 . S
H354 C377 0.931 . S
H355 C343 0.929 . S
H356 C378 0.930 . S
H357 C349 0.931 . S
H358 C339 0.930 . S
H359 C368 0.929 . S
H360 C344 0.931 . S
H361 C345 0.930 . S
H362 C400 0.930 . S
H363 C341 0.929 . S
H364 C369 0.931 . S
H365 C370 0.930 . S
N366 Gd346 2.622 . S
N366 C367 1.369 . S
N366 C368 1.338 . S
C367 N366 1.369 . S
C367 C371 1.415 . S
C367 C374 1.422 . S
C368 H359 0.929 . S
C368 N366 1.338 . S
C368 C370 1.378 . S
C369 H364 0.931 . S
C369 C370 1.348 . S
C369 C371 1.413 . S
C370 H365 0.930 . S
C370 C368 1.378 . S
C370 C369 1.348 . S
C371 C367 1.415 . S
C371 C369 1.413 . S
C371 C401 1.437 . S
H372 C401 0.929 . S
N373 Gd346 2.570 . S
N373 C374 1.359 . S
N373 C377 1.343 . S
C374 C367 1.422 . S
C374 N373 1.359 . S
C374 C376 1.421 . S
C375 C376 1.422 . S
C375 C378 1.321 . S
C375 H402 0.931 . S
C376 C374 1.421 . S
C376 C375 1.422 . S
C376 C400 1.417 . S
C377 H354 0.931 . S
C377 N373 1.343 . S
C377 C378 1.390 . S
C378 H356 0.930 . S
C378 C375 1.321 . S
C378 C377 1.390 . S
O379 Gd347 2.386 . S
O379 C391 1.265 . S
O380 Gd346 2.353 . S
O380 C391 1.242 . S
O381 Gd346 2.468 . S
O381 C399 1.263 . S
O382 Gd346 2.427 . S
O382 C399 1.252 . S
O383 Gd347 2.307 . S
O383 C392 1.261 . S
O384 Gd346 2.388 . S
O384 C392 1.252 . S
O385 Gd346 2.386 . S
O385 C403 1.265 . S
O386 Gd347 2.353 . S
O386 C403 1.242 . S
O387 Gd347 2.468 . S
O387 C411 1.263 . S
O388 Gd347 2.427 . S
O388 C411 1.252 . S
O389 Gd346 2.307 . S
O389 C404 1.261 . S
O390 Gd347 2.388 . S
O390 C404 1.252 . S
C391 O379 1.265 . S
C391 O380 1.242 . S
C392 O383 1.261 . S
C392 O384 1.252 . S
C393 C396 1.394 . S
C393 C398 1.370 . S
C393 C399 1.500 . S
C394 C397 1.383 . S
C394 C398 1.395 . S
C395 C396 1.396 . S
C395 C397 1.365 . S
C395 H412 0.929 . S
C396 C393 1.394 . S
C396 C395 1.396 . S
C396 H413 0.930 . S
C397 C394 1.383 . S
C397 C395 1.365 . S
C397 H414 0.931 . S
C398 C393 1.370 . S
C398 C394 1.395 . S
C398 H415 0.930 . S
C399 Gd346 2.805 . S
C399 O381 1.263 . S
C399 O382 1.252 . S
C399 C393 1.500 . S
C400 H362 0.930 . S
C400 C376 1.417 . S
C400 C401 1.329 . S
C401 C371 1.437 . S
C401 H372 0.929 . S
C401 C400 1.329 . S
H402 C375 0.931 . S
C403 O385 1.265 . S
C403 O386 1.242 . S
C404 O389 1.261 . S
C404 O390 1.252 . S
C405 C408 1.394 . S
C405 C410 1.370 . S
C405 C411 1.500 . S
C406 C409 1.383 . S
C406 C410 1.395 . S
C407 C408 1.396 . S
C407 C409 1.365 . S
C407 H416 0.929 . S
C408 C405 1.394 . S
C408 C407 1.396 . S
C408 H417 0.930 . S
C409 C406 1.383 . S
C409 C407 1.365 . S
C409 H418 0.931 . S
C410 C405 1.370 . S
C410 C406 1.395 . S
C410 H419 0.930 . S
C411 Gd347 2.805 . S
C411 O387 1.263 . S
C411 O388 1.252 . S
C411 C405 1.500 . S
H412 C395 0.929 . S
H413 C396 0.930 . S
H414 C397 0.931 . S
H415 C398 0.930 . S
H416 C407 0.929 . S
H417 C408 0.930 . S
H418 C409 0.931 . S
H419 C410 0.930 . S
C420 C422 1.422 . S
C420 C424 1.415 . S
C420 N426 1.369 . S
C421 C422 1.421 . S
C421 C423 1.417 . S
C421 C433 1.422 . S
C422 C420 1.422 . S
C422 C421 1.421 . S
C422 N432 1.359 . S
C423 C421 1.417 . S
C423 C425 1.329 . S
C423 H442 0.930 . S
C424 C420 1.415 . S
C424 C425 1.437 . S
C424 C428 1.413 . S
C425 C423 1.329 . S
C425 C424 1.437 . S
C425 H447 0.929 . S
N426 C420 1.369 . S
N426 C427 1.338 . S
N426 Gd431 2.622 . S
C427 N426 1.338 . S
C427 C429 1.378 . S
C427 H439 0.929 . S
C428 C424 1.413 . S
C428 C429 1.348 . S
C428 H444 0.931 . S
C429 C427 1.378 . S
C429 C428 1.348 . S
C429 H445 0.930 . S
Gd430 N450 2.622 . S
Gd430 N457 2.570 . S
Gd430 O464 2.353 . S
Gd430 O465 2.468 . S
Gd430 O466 2.427 . S
Gd430 O468 2.388 . S
Gd430 O469 2.386 . S
Gd430 O473 2.307 . S
Gd430 C483 2.805 . S
Gd431 N426 2.622 . S
Gd431 N432 2.570 . S
Gd431 O463 2.386 . S
Gd431 O467 2.307 . S
Gd431 O470 2.353 . S
Gd431 O471 2.468 . S
Gd431 O472 2.427 . S
Gd431 O474 2.388 . S
Gd431 C495 2.805 . S
N432 C422 1.359 . S
N432 Gd431 2.570 . S
N432 C434 1.343 . S
C433 C421 1.422 . S
C433 C435 1.321 . S
C433 H441 0.931 . S
C434 N432 1.343 . S
C434 C435 1.390 . S
C434 H436 0.931 . S
C435 C433 1.321 . S
C435 C434 1.390 . S
C435 H437 0.930 . S
H436 C434 0.931 . S
H437 C435 0.930 . S
H438 C461 0.931 . S
H439 C427 0.929 . S
H440 C462 0.930 . S
H441 C433 0.931 . S
H442 C423 0.930 . S
H443 C452 0.929 . S
H444 C428 0.931 . S
H445 C429 0.930 . S
H446 C484 0.930 . S
H447 C425 0.929 . S
H448 C453 0.931 . S
H449 C454 0.930 . S
N450 Gd430 2.622 . S
N450 C451 1.369 . S
N450 C452 1.338 . S
C451 N450 1.369 . S
C451 C455 1.415 . S
C451 C458 1.422 . S
C452 H443 0.929 . S
C452 N450 1.338 . S
C452 C454 1.378 . S
C453 H448 0.931 . S
C453 C454 1.348 . S
C453 C455 1.413 . S
C454 H449 0.930 . S
C454 C452 1.378 . S
C454 C453 1.348 . S
C455 C451 1.415 . S
C455 C453 1.413 . S
C455 C485 1.437 . S
H456 C485 0.929 . S
N457 Gd430 2.570 . S
N457 C458 1.359 . S
N457 C461 1.343 . S
C458 C451 1.422 . S
C458 N457 1.359 . S
C458 C460 1.421 . S
C459 C460 1.422 . S
C459 C462 1.321 . S
C459 H486 0.931 . S
C460 C458 1.421 . S
C460 C459 1.422 . S
C460 C484 1.417 . S
C461 H438 0.931 . S
C461 N457 1.343 . S
C461 C462 1.390 . S
C462 H440 0.930 . S
C462 C459 1.321 . S
C462 C461 1.390 . S
O463 Gd431 2.386 . S
O463 C475 1.265 . S
O464 Gd430 2.353 . S
O464 C475 1.242 . S
O465 Gd430 2.468 . S
O465 C483 1.263 . S
O466 Gd430 2.427 . S
O466 C483 1.252 . S
O467 Gd431 2.307 . S
O467 C476 1.261 . S
O468 Gd430 2.388 . S
O468 C476 1.252 . S
O469 Gd430 2.386 . S
O469 C487 1.265 . S
O470 Gd431 2.353 . S
O470 C487 1.242 . S
O471 Gd431 2.468 . S
O471 C495 1.263 . S
O472 Gd431 2.427 . S
O472 C495 1.252 . S
O473 Gd430 2.307 . S
O473 C488 1.261 . S
O474 Gd431 2.388 . S
O474 C488 1.252 . S
C475 O463 1.265 . S
C475 O464 1.242 . S
C476 O467 1.261 . S
C476 O468 1.252 . S
C477 C480 1.394 . S
C477 C482 1.370 . S
C477 C483 1.500 . S
C478 C481 1.383 . S
C478 C482 1.395 . S
C479 C480 1.396 . S
C479 C481 1.365 . S
C479 H496 0.929 . S
C480 C477 1.394 . S
C480 C479 1.396 . S
C480 H497 0.930 . S
C481 C478 1.383 . S
C481 C479 1.365 . S
C481 H498 0.931 . S
C482 C477 1.370 . S
C482 C478 1.395 . S
C482 H499 0.930 . S
C483 Gd430 2.805 . S
C483 O465 1.263 . S
C483 O466 1.252 . S
C483 C477 1.500 . S
C484 H446 0.930 . S
C484 C460 1.417 . S
C484 C485 1.329 . S
C485 C455 1.437 . S
C485 H456 0.929 . S
C485 C484 1.329 . S
H486 C459 0.931 . S
C487 O469 1.265 . S
C487 O470 1.242 . S
C488 O473 1.261 . S
C488 O474 1.252 . S
C489 C492 1.394 . S
C489 C494 1.370 . S
C489 C495 1.500 . S
C490 C493 1.383 . S
C490 C494 1.395 . S
C491 C492 1.396 . S
C491 C493 1.365 . S
C491 H500 0.929 . S
C492 C489 1.394 . S
C492 C491 1.396 . S
C492 H501 0.930 . S
C493 C490 1.383 . S
C493 C491 1.365 . S
C493 H502 0.931 . S
C494 C489 1.370 . S
C494 C490 1.395 . S
C494 H503 0.930 . S
C495 Gd431 2.805 . S
C495 O471 1.263 . S
C495 O472 1.252 . S
C495 C489 1.500 . S
H496 C479 0.929 . S
H497 C480 0.930 . S
H498 C481 0.931 . S
H499 C482 0.930 . S
H500 C491 0.929 . S
H501 C492 0.930 . S
H502 C493 0.931 . S
H503 C494 0.930 . S
C504 C506 1.422 . S
C504 C508 1.415 . S
C504 N510 1.369 . S
C505 C506 1.421 . S
C505 C507 1.417 . S
C505 C517 1.422 . S
C506 C504 1.422 . S
C506 C505 1.421 . S
C506 N516 1.359 . S
C507 C505 1.417 . S
C507 C509 1.329 . S
C507 H526 0.930 . S
C508 C504 1.415 . S
C508 C509 1.437 . S
C508 C512 1.413 . S
C509 C507 1.329 . S
C509 C508 1.437 . S
C509 H531 0.929 . S
N510 C504 1.369 . S
N510 C511 1.338 . S
N510 Gd515 2.622 . S
C511 N510 1.338 . S
C511 C513 1.378 . S
C511 H523 0.929 . S
C512 C508 1.413 . S
C512 C513 1.348 . S
C512 H528 0.931 . S
C513 C511 1.378 . S
C513 C512 1.348 . S
C513 H529 0.930 . S
Gd514 N534 2.622 . S
Gd514 N541 2.570 . S
Gd514 O548 2.353 . S
Gd514 O549 2.468 . S
Gd514 O550 2.427 . S
Gd514 O552 2.388 . S
Gd514 O553 2.386 . S
Gd514 O557 2.307 . S
Gd514 C567 2.805 . S
Gd515 N510 2.622 . S
Gd515 N516 2.570 . S
Gd515 O547 2.386 . S
Gd515 O551 2.307 . S
Gd515 O554 2.353 . S
Gd515 O555 2.468 . S
Gd515 O556 2.427 . S
Gd515 O558 2.388 . S
Gd515 C579 2.805 . S
N516 C506 1.359 . S
N516 Gd515 2.570 . S
N516 C518 1.343 . S
C517 C505 1.422 . S
C517 C519 1.321 . S
C517 H525 0.931 . S
C518 N516 1.343 . S
C518 C519 1.390 . S
C518 H520 0.931 . S
C519 C517 1.321 . S
C519 C518 1.390 . S
C519 H521 0.930 . S
H520 C518 0.931 . S
H521 C519 0.930 . S
H522 C545 0.931 . S
H523 C511 0.929 . S
H524 C546 0.930 . S
H525 C517 0.931 . S
H526 C507 0.930 . S
H527 C536 0.929 . S
H528 C512 0.931 . S
H529 C513 0.930 . S
H530 C568 0.930 . S
H531 C509 0.929 . S
H532 C537 0.931 . S
H533 C538 0.930 . S
N534 Gd514 2.622 . S
N534 C535 1.369 . S
N534 C536 1.338 . S
C535 N534 1.369 . S
C535 C539 1.415 . S
C535 C542 1.422 . S
C536 H527 0.929 . S
C536 N534 1.338 . S
C536 C538 1.378 . S
C537 H532 0.931 . S
C537 C538 1.348 . S
C537 C539 1.413 . S
C538 H533 0.930 . S
C538 C536 1.378 . S
C538 C537 1.348 . S
C539 C535 1.415 . S
C539 C537 1.413 . S
C539 C569 1.437 . S
H540 C569 0.929 . S
N541 Gd514 2.570 . S
N541 C542 1.359 . S
N541 C545 1.343 . S
C542 C535 1.422 . S
C542 N541 1.359 . S
C542 C544 1.421 . S
C543 C544 1.422 . S
C543 C546 1.321 . S
C543 H570 0.931 . S
C544 C542 1.421 . S
C544 C543 1.422 . S
C544 C568 1.417 . S
C545 H522 0.931 . S
C545 N541 1.343 . S
C545 C546 1.390 . S
C546 H524 0.930 . S
C546 C543 1.321 . S
C546 C545 1.390 . S
O547 Gd515 2.386 . S
O547 C559 1.265 . S
O548 Gd514 2.353 . S
O548 C559 1.242 . S
O549 Gd514 2.468 . S
O549 C567 1.263 . S
O550 Gd514 2.427 . S
O550 C567 1.252 . S
O551 Gd515 2.307 . S
O551 C560 1.261 . S
O552 Gd514 2.388 . S
O552 C560 1.252 . S
O553 Gd514 2.386 . S
O553 C571 1.265 . S
O554 Gd515 2.353 . S
O554 C571 1.242 . S
O555 Gd515 2.468 . S
O555 C579 1.263 . S
O556 Gd515 2.427 . S
O556 C579 1.252 . S
O557 Gd514 2.307 . S
O557 C572 1.261 . S
O558 Gd515 2.388 . S
O558 C572 1.252 . S
C559 O547 1.265 . S
C559 O548 1.242 . S
C560 O551 1.261 . S
C560 O552 1.252 . S
C561 C564 1.394 . S
C561 C566 1.370 . S
C561 C567 1.500 . S
C562 C565 1.383 . S
C562 C566 1.395 . S
C563 C564 1.396 . S
C563 C565 1.365 . S
C563 H580 0.929 . S
C564 C561 1.394 . S
C564 C563 1.396 . S
C564 H581 0.930 . S
C565 C562 1.383 . S
C565 C563 1.365 . S
C565 H582 0.931 . S
C566 C561 1.370 . S
C566 C562 1.395 . S
C566 H583 0.930 . S
C567 Gd514 2.805 . S
C567 O549 1.263 . S
C567 O550 1.252 . S
C567 C561 1.500 . S
C568 H530 0.930 . S
C568 C544 1.417 . S
C568 C569 1.329 . S
C569 C539 1.437 . S
C569 H540 0.929 . S
C569 C568 1.329 . S
H570 C543 0.931 . S
C571 O553 1.265 . S
C571 O554 1.242 . S
C572 O557 1.261 . S
C572 O558 1.252 . S
C573 C576 1.394 . S
C573 C578 1.370 . S
C573 C579 1.500 . S
C574 C577 1.383 . S
C574 C578 1.395 . S
C575 C576 1.396 . S
C575 C577 1.365 . S
C575 H584 0.929 . S
C576 C573 1.394 . S
C576 C575 1.396 . S
C576 H585 0.930 . S
C577 C574 1.383 . S
C577 C575 1.365 . S
C577 H586 0.931 . S
C578 C573 1.370 . S
C578 C574 1.395 . S
C578 H587 0.930 . S
C579 Gd515 2.805 . S
C579 O555 1.263 . S
C579 O556 1.252 . S
C579 C573 1.500 . S
H580 C563 0.929 . S
H581 C564 0.930 . S
H582 C565 0.931 . S
H583 C566 0.930 . S
H584 C575 0.929 . S
H585 C576 0.930 . S
H586 C577 0.931 . S
H587 C578 0.930 . S
C588 C590 1.422 . S
C588 C592 1.415 . S
C588 N594 1.369 . S
C589 C590 1.421 . S
C589 C591 1.417 . S
C589 C601 1.422 . S
C590 C588 1.422 . S
C590 C589 1.421 . S
C590 N600 1.359 . S
C591 C589 1.417 . S
C591 C593 1.329 . S
C591 H610 0.930 . S
C592 C588 1.415 . S
C592 C593 1.437 . S
C592 C596 1.413 . S
C593 C591 1.329 . S
C593 C592 1.437 . S
C593 H615 0.929 . S
N594 C588 1.369 . S
N594 C595 1.338 . S
N594 Gd599 2.622 . S
C595 N594 1.338 . S
C595 C597 1.378 . S
C595 H607 0.929 . S
C596 C592 1.413 . S
C596 C597 1.348 . S
C596 H612 0.931 . S
C597 C595 1.378 . S
C597 C596 1.348 . S
C597 H613 0.930 . S
Gd598 N618 2.622 . S
Gd598 N625 2.570 . S
Gd598 O632 2.353 . S
Gd598 O633 2.468 . S
Gd598 O634 2.427 . S
Gd598 O636 2.388 . S
Gd598 O637 2.386 . S
Gd598 O641 2.307 . S
Gd598 C651 2.805 . S
Gd599 N594 2.622 . S
Gd599 N600 2.570 . S
Gd599 O631 2.386 . S
Gd599 O635 2.307 . S
Gd599 O638 2.353 . S
Gd599 O639 2.468 . S
Gd599 O640 2.427 . S
Gd599 O642 2.388 . S
Gd599 C663 2.805 . S
N600 C590 1.359 . S
N600 Gd599 2.570 . S
N600 C602 1.343 . S
C601 C589 1.422 . S
C601 C603 1.321 . S
C601 H609 0.931 . S
C602 N600 1.343 . S
C602 C603 1.390 . S
C602 H604 0.931 . S
C603 C601 1.321 . S
C603 C602 1.390 . S
C603 H605 0.930 . S
H604 C602 0.931 . S
H605 C603 0.930 . S
H606 C629 0.931 . S
H607 C595 0.929 . S
H608 C630 0.930 . S
H609 C601 0.931 . S
H610 C591 0.930 . S
H611 C620 0.929 . S
H612 C596 0.931 . S
H613 C597 0.930 . S
H614 C652 0.930 . S
H615 C593 0.929 . S
H616 C621 0.931 . S
H617 C622 0.930 . S
N618 Gd598 2.622 . S
N618 C619 1.369 . S
N618 C620 1.338 . S
C619 N618 1.369 . S
C619 C623 1.415 . S
C619 C626 1.422 . S
C620 H611 0.929 . S
C620 N618 1.338 . S
C620 C622 1.378 . S
C621 H616 0.931 . S
C621 C622 1.348 . S
C621 C623 1.413 . S
C622 H617 0.930 . S
C622 C620 1.378 . S
C622 C621 1.348 . S
C623 C619 1.415 . S
C623 C621 1.413 . S
C623 C653 1.437 . S
H624 C653 0.929 . S
N625 Gd598 2.570 . S
N625 C626 1.359 . S
N625 C629 1.343 . S
C626 C619 1.422 . S
C626 N625 1.359 . S
C626 C628 1.421 . S
C627 C628 1.422 . S
C627 C630 1.321 . S
C627 H654 0.931 . S
C628 C626 1.421 . S
C628 C627 1.422 . S
C628 C652 1.417 . S
C629 H606 0.931 . S
C629 N625 1.343 . S
C629 C630 1.390 . S
C630 H608 0.930 . S
C630 C627 1.321 . S
C630 C629 1.390 . S
O631 Gd599 2.386 . S
O631 C643 1.265 . S
O632 Gd598 2.353 . S
O632 C643 1.242 . S
O633 Gd598 2.468 . S
O633 C651 1.263 . S
O634 Gd598 2.427 . S
O634 C651 1.252 . S
O635 Gd599 2.307 . S
O635 C644 1.261 . S
O636 Gd598 2.388 . S
O636 C644 1.252 . S
O637 Gd598 2.386 . S
O637 C655 1.265 . S
O638 Gd599 2.353 . S
O638 C655 1.242 . S
O639 Gd599 2.468 . S
O639 C663 1.263 . S
O640 Gd599 2.427 . S
O640 C663 1.252 . S
O641 Gd598 2.307 . S
O641 C656 1.261 . S
O642 Gd599 2.388 . S
O642 C656 1.252 . S
C643 O631 1.265 . S
C643 O632 1.242 . S
C644 O635 1.261 . S
C644 O636 1.252 . S
C645 C648 1.394 . S
C645 C650 1.370 . S
C645 C651 1.500 . S
C646 C649 1.383 . S
C646 C650 1.395 . S
C647 C648 1.396 . S
C647 C649 1.365 . S
C647 H664 0.929 . S
C648 C645 1.394 . S
C648 C647 1.396 . S
C648 H665 0.930 . S
C649 C646 1.383 . S
C649 C647 1.365 . S
C649 H666 0.931 . S
C650 C645 1.370 . S
C650 C646 1.395 . S
C650 H667 0.930 . S
C651 Gd598 2.805 . S
C651 O633 1.263 . S
C651 O634 1.252 . S
C651 C645 1.500 . S
C652 H614 0.930 . S
C652 C628 1.417 . S
C652 C653 1.329 . S
C653 C623 1.437 . S
C653 H624 0.929 . S
C653 C652 1.329 . S
H654 C627 0.931 . S
C655 O637 1.265 . S
C655 O638 1.242 . S
C656 O641 1.261 . S
C656 O642 1.252 . S
C657 C660 1.394 . S
C657 C662 1.370 . S
C657 C663 1.500 . S
C658 C661 1.383 . S
C658 C662 1.395 . S
C659 C660 1.396 . S
C659 C661 1.365 . S
C659 H668 0.929 . S
C660 C657 1.394 . S
C660 C659 1.396 . S
C660 H669 0.930 . S
C661 C658 1.383 . S
C661 C659 1.365 . S
C661 H670 0.931 . S
C662 C657 1.370 . S
C662 C658 1.395 . S
C662 H671 0.930 . S
C663 Gd599 2.805 . S
C663 O639 1.263 . S
C663 O640 1.252 . S
C663 C657 1.500 . S
H664 C647 0.929 . S
H665 C648 0.930 . S
H666 C649 0.931 . S
H667 C650 0.930 . S
H668 C659 0.929 . S
H669 C660 0.930 . S
H670 C661 0.931 . S
H671 C662 0.930 . S
C672 O684 1.241 . S
C672 O685 1.280 . S
C673 O686 1.277 . S
C673 O687 1.245 . S
C674 O698 1.247 . S
C674 O700 1.289 . S
Mg675 O676 1.926 . S
Mg675 O685 1.984 . S
Mg675 O687 1.988 . S
Mg675 O688 2.061 1_655 S
O676 Mg675 1.926 . S
O676 Mg677 1.986 1_545 S
O676 Mg678 1.910 1_655 S
Mg677 O676 1.986 1_565 S
Mg677 O684 2.042 1_565 S
Mg677 O686 2.041 1_565 S
Mg677 O692 2.038 . S
Mg677 O700 2.238 . S
Mg678 O676 1.910 1_455 S
Mg678 O679 1.924 1_545 S
Mg678 O689 2.113 . S
Mg678 O691 2.078 1_445 S
Mg678 O700 2.100 1_445 S
Mg678 O701 2.080 . S
O679 Mg678 1.924 1_565 S
O679 Mg680 1.926 . S
O679 Mg681 1.986 1_565 S
Mg680 O679 1.926 . S
Mg680 O694 1.984 . S
Mg680 O697 1.988 . S
Mg680 O698 2.061 1_455 S
Mg681 O679 1.986 1_545 S
Mg681 O689 2.238 . S
Mg681 O693 2.042 1_545 S
Mg681 O695 2.041 1_545 S
Mg681 O702 2.038 . S
C682 O688 1.247 . S
C682 O689 1.289 . S
C683 O701 1.245 . S
C683 O702 1.274 . S
O684 C672 1.241 . S
O684 Mg677 2.042 1_545 S
O685 C672 1.280 . S
O685 Mg675 1.984 . S
O686 C673 1.277 . S
O686 Mg677 2.041 1_545 S
O687 C673 1.245 . S
O687 Mg675 1.988 . S
O688 Mg675 2.061 1_455 S
O688 C682 1.247 . S
O689 Mg678 2.113 . S
O689 Mg681 2.238 . S
O689 C682 1.289 . S
C690 O691 1.245 . S
C690 O692 1.274 . S
O691 Mg678 2.078 1_665 S
O691 C690 1.245 . S
O692 Mg677 2.038 . S
O692 C690 1.274 . S
O693 Mg681 2.042 1_565 S
O693 C696 1.241 . S
O694 Mg680 1.984 . S
O694 C696 1.280 . S
O695 Mg681 2.041 1_565 S
O695 C699 1.277 . S
C696 O693 1.241 . S
C696 O694 1.280 . S
O697 Mg680 1.988 . S
O697 C699 1.245 . S
O698 C674 1.247 . S
O698 Mg680 2.061 1_655 S
C699 O695 1.277 . S
C699 O697 1.245 . S
O700 C674 1.289 . S
O700 Mg677 2.238 . S
O700 Mg678 2.100 1_665 S
O701 Mg678 2.080 . S
O701 C683 1.245 . S
O702 Mg681 2.038 . S
O702 C683 1.274 . S
C703 O715 1.241 . S
C703 O716 1.280 . S
C704 O717 1.277 . S
C704 O718 1.245 . S
C705 O729 1.247 . S
C705 O731 1.289 . S
Mg706 O707 1.926 . S
Mg706 O716 1.984 . S
Mg706 O718 1.988 1_554 S
Mg706 O719 2.061 . S
O707 Mg706 1.926 . S
O707 Mg708 1.986 1_545 S
O707 Mg709 1.918 . S
Mg708 O707 1.986 1_565 S
Mg708 O715 2.042 1_565 S
Mg708 O717 2.041 1_564 S
Mg708 O723 2.038 . S
Mg708 O731 2.238 1_554 S
Mg709 O707 1.918 . S
Mg709 O710 1.916 1_544 S
Mg709 O720 2.109 . S
Mg709 O722 2.083 1_545 S
Mg709 O731 2.104 1_544 S
Mg709 O732 2.074 1_554 S
O710 Mg709 1.916 1_566 S
O710 Mg711 1.926 . S
O710 Mg712 1.986 1_565 S
Mg711 O710 1.926 . S
Mg711 O725 1.984 . S
Mg711 O728 1.988 1_556 S
Mg711 O729 2.061 . S
Mg712 O710 1.986 1_545 S
Mg712 O720 2.238 1_556 S
Mg712 O724 2.042 1_545 S
Mg712 O726 2.041 1_546 S
Mg712 O733 2.038 . S
C713 O719 1.247 . S
C713 O720 1.289 . S
C714 O732 1.245 . S
C714 O733 1.274 . S
O715 C703 1.241 . S
O715 Mg708 2.042 1_545 S
O716 C703 1.280 . S
O716 Mg706 1.984 . S
O717 C704 1.277 . S
O717 Mg708 2.041 1_546 S
O718 C704 1.245 . S
O718 Mg706 1.988 1_556 S
O719 Mg706 2.061 . S
O719 C713 1.247 . S
O720 Mg709 2.109 . S
O720 Mg712 2.238 1_554 S
O720 C713 1.289 . S
C721 O722 1.245 . S
C721 O723 1.274 . S
O722 Mg709 2.083 1_565 S
O722 C721 1.245 . S
O723 Mg708 2.038 . S
O723 C721 1.274 . S
O724 Mg712 2.042 1_565 S
O724 C727 1.241 . S
O725 Mg711 1.984 . S
O725 C727 1.280 . S
O726 Mg712 2.041 1_564 S
O726 C730 1.277 . S
C727 O724 1.241 . S
C727 O725 1.280 . S
O728 Mg711 1.988 1_554 S
O728 C730 1.245 . S
O729 C705 1.247 . S
O729 Mg711 2.061 . S
C730 O726 1.277 . S
C730 O728 1.245 . S
O731 C705 1.289 . S
O731 Mg708 2.238 1_556 S
O731 Mg709 2.104 1_566 S
O732 Mg709 2.074 1_556 S
O732 C714 1.245 . S
O733 Mg712 2.038 . S
O733 C714 1.274 . S
C734 O746 1.241 . S
C734 O747 1.280 . S
C735 O748 1.277 . S
C735 O749 1.245 . S
C736 O760 1.247 . S
C736 O762 1.289 . S
Mg737 O738 1.926 . S
Mg737 O747 1.984 . S
Mg737 O749 1.988 1_554 S
Mg737 O750 2.061 1_655 S
O738 Mg737 1.926 . S
O738 Mg739 1.986 . S
O738 Mg740 1.911 1_655 S
Mg739 O738 1.986 . S
Mg739 O746 2.042 . S
Mg739 O748 2.041 1_554 S
Mg739 O754 2.038 . S
Mg739 O762 2.238 1_554 S
Mg740 O738 1.911 1_455 S
Mg740 O741 1.923 1_554 S
Mg740 O751 2.116 . S
Mg740 O753 2.082 1_455 S
Mg740 O762 2.097 1_454 S
Mg740 O763 2.076 1_554 S
O741 Mg740 1.923 1_556 S
O741 Mg742 1.926 . S
O741 Mg743 1.986 . S
Mg742 O741 1.926 . S
Mg742 O756 1.984 . S
Mg742 O759 1.988 1_556 S
Mg742 O760 2.061 1_455 S
Mg743 O741 1.986 . S
Mg743 O751 2.238 1_556 S
Mg743 O755 2.042 . S
Mg743 O757 2.041 1_556 S
Mg743 O764 2.038 . S
C744 O750 1.247 . S
C744 O751 1.289 . S
C745 O763 1.245 . S
C745 O764 1.274 . S
O746 C734 1.241 . S
O746 Mg739 2.042 . S
O747 C734 1.280 . S
O747 Mg737 1.984 . S
O748 C735 1.277 . S
O748 Mg739 2.041 1_556 S
O749 C735 1.245 . S
O749 Mg737 1.988 1_556 S
O750 Mg737 2.061 1_455 S
O750 C744 1.247 . S
O751 Mg740 2.116 . S
O751 Mg743 2.238 1_554 S
O751 C744 1.289 . S
C752 O753 1.245 . S
C752 O754 1.274 . S
O753 Mg740 2.082 1_655 S
O753 C752 1.245 . S
O754 Mg739 2.038 . S
O754 C752 1.274 . S
O755 Mg743 2.042 . S
O755 C758 1.241 . S
O756 Mg742 1.984 . S
O756 C758 1.280 . S
O757 Mg743 2.041 1_554 S
O757 C761 1.277 . S
C758 O755 1.241 . S
C758 O756 1.280 . S
O759 Mg742 1.988 1_554 S
O759 C761 1.245 . S
O760 C736 1.247 . S
O760 Mg742 2.061 1_655 S
C761 O757 1.277 . S
C761 O759 1.245 . S
O762 C736 1.289 . S
O762 Mg739 2.238 1_556 S
O762 Mg740 2.097 1_656 S
O763 Mg740 2.076 1_556 S
O763 C745 1.245 . S
O764 Mg743 2.038 . S
O764 C745 1.274 . S
C765 O777 1.241 . S
C765 O778 1.280 . S
C766 O779 1.277 . S
C766 O780 1.245 . S
C767 O791 1.247 . S
C767 O793 1.289 . S
Mg768 O769 1.926 . S
Mg768 O778 1.984 . S
Mg768 O780 1.988 1_554 S
Mg768 O781 2.061 . S
O769 Mg768 1.926 . S
O769 Mg770 1.986 . S
O769 Mg771 1.918 . S
Mg770 O769 1.986 . S
Mg770 O777 2.042 . S
Mg770 O779 2.041 1_554 S
Mg770 O785 2.038 . S
Mg770 O793 2.238 1_554 S
Mg771 O769 1.918 . S
Mg771 O772 1.916 1_554 S
Mg771 O782 2.109 . S
Mg771 O784 2.083 . S
Mg771 O793 2.104 1_554 S
Mg771 O794 2.075 1_554 S
O772 Mg771 1.916 1_556 S
O772 Mg773 1.926 . S
O772 Mg774 1.986 . S
Mg773 O772 1.926 . S
Mg773 O787 1.984 . S
Mg773 O790 1.988 1_556 S
Mg773 O791 2.061 . S
Mg774 O772 1.986 . S
Mg774 O782 2.238 1_556 S
Mg774 O786 2.042 . S
Mg774 O788 2.041 1_556 S
Mg774 O795 2.038 . S
C775 O781 1.247 . S
C775 O782 1.289 . S
C776 O794 1.245 . S
C776 O795 1.274 . S
O777 C765 1.241 . S
O777 Mg770 2.042 . S
O778 C765 1.280 . S
O778 Mg768 1.984 . S
O779 C766 1.277 . S
O779 Mg770 2.041 1_556 S
O780 C766 1.245 . S
O780 Mg768 1.988 1_556 S
O781 Mg768 2.061 . S
O781 C775 1.247 . S
O782 Mg771 2.109 . S
O782 Mg774 2.238 1_554 S
O782 C775 1.289 . S
C783 O784 1.245 . S
C783 O785 1.274 . S
O784 Mg771 2.083 . S
O784 C783 1.245 . S
O785 Mg770 2.038 . S
O785 C783 1.274 . S
O786 Mg774 2.042 . S
O786 C789 1.241 . S
O787 Mg773 1.984 . S
O787 C789 1.280 . S
O788 Mg774 2.041 1_554 S
O788 C792 1.277 . S
C789 O786 1.241 . S
C789 O787 1.280 . S
O790 Mg773 1.988 1_554 S
O790 C792 1.245 . S
O791 C767 1.247 . S
O791 Mg773 2.061 . S
C792 O788 1.277 . S
C792 O790 1.245 . S
O793 C767 1.289 . S
O793 Mg770 2.238 1_556 S
O793 Mg771 2.104 1_556 S
O794 Mg771 2.075 1_556 S
O794 C776 1.245 . S
O795 Mg774 2.038 . S
O795 C776 1.274 . S
C796 O808 1.241 . S
C796 O809 1.280 . S
C797 O810 1.277 . S
C797 O811 1.245 . S
C798 O822 1.247 . S
C798 O824 1.289 . S
Mg799 O800 1.926 . S
Mg799 O809 1.984 . S
Mg799 O811 1.988 . S
Mg799 O812 2.061 1_655 S
O800 Mg799 1.926 . S
O800 Mg801 1.986 . S
O800 Mg802 1.910 1_655 S
Mg801 O800 1.986 . S
Mg801 O808 2.042 . S
Mg801 O810 2.041 . S
Mg801 O816 2.038 . S
Mg801 O824 2.238 . S
Mg802 O800 1.910 1_455 S
Mg802 O803 1.923 . S
Mg802 O813 2.112 . S
Mg802 O815 2.078 1_455 S
Mg802 O824 2.100 1_455 S
Mg802 O825 2.080 . S
O803 Mg802 1.923 . S
O803 Mg804 1.926 . S
O803 Mg805 1.986 . S
Mg804 O803 1.926 . S
Mg804 O818 1.984 . S
Mg804 O821 1.988 . S
Mg804 O822 2.061 1_455 S
Mg805 O803 1.986 . S
Mg805 O813 2.238 . S
Mg805 O817 2.042 . S
Mg805 O819 2.041 . S
Mg805 O826 2.038 . S
C806 O812 1.247 . S
C806 O813 1.289 . S
C807 O825 1.245 . S
C807 O826 1.274 . S
O808 C796 1.241 . S
O808 Mg801 2.042 . S
O809 C796 1.280 . S
O809 Mg799 1.984 . S
O810 C797 1.277 . S
O810 Mg801 2.041 . S
O811 C797 1.245 . S
O811 Mg799 1.988 . S
O812 Mg799 2.061 1_455 S
O812 C806 1.247 . S
O813 Mg802 2.112 . S
O813 Mg805 2.238 . S
O813 C806 1.289 . S
C814 O815 1.245 . S
C814 O816 1.274 . S
O815 Mg802 2.078 1_655 S
O815 C814 1.245 . S
O816 Mg801 2.038 . S
O816 C814 1.274 . S
O817 Mg805 2.042 . S
O817 C820 1.241 . S
O818 Mg804 1.984 . S
O818 C820 1.280 . S
O819 Mg805 2.041 . S
O819 C823 1.277 . S
C820 O817 1.241 . S
C820 O818 1.280 . S
O821 Mg804 1.988 . S
O821 C823 1.245 . S
O822 C798 1.247 . S
O822 Mg804 2.061 1_655 S
C823 O819 1.277 . S
C823 O821 1.245 . S
O824 C798 1.289 . S
O824 Mg801 2.238 . S
O824 Mg802 2.100 1_655 S
O825 Mg802 2.080 . S
O825 C807 1.245 . S
O826 Mg805 2.038 . S
O826 C807 1.274 . S
C827 O839 1.241 . S
C827 O840 1.280 . S
C828 O841 1.277 . S
C828 O842 1.245 . S
C829 O853 1.247 . S
C829 O855 1.289 . S
Mg830 O831 1.926 . S
Mg830 O840 1.984 . S
Mg830 O842 1.988 . S
Mg830 O843 2.061 . S
O831 Mg830 1.926 . S
O831 Mg832 1.986 1_545 S
O831 Mg833 1.917 . S
Mg832 O831 1.986 1_565 S
Mg832 O839 2.042 1_565 S
Mg832 O841 2.041 1_565 S
Mg832 O847 2.038 . S
Mg832 O855 2.238 . S
Mg833 O831 1.917 . S
Mg833 O834 1.917 1_545 S
Mg833 O844 2.106 . S
Mg833 O846 2.079 1_545 S
Mg833 O855 2.106 1_545 S
Mg833 O856 2.079 . S
O834 Mg833 1.917 1_565 S
O834 Mg835 1.926 . S
O834 Mg836 1.986 1_565 S
Mg835 O834 1.926 . S
Mg835 O849 1.984 . S
Mg835 O852 1.988 . S
Mg835 O853 2.061 . S
Mg836 O834 1.986 1_545 S
Mg836 O844 2.238 . S
Mg836 O848 2.042 1_545 S
Mg836 O850 2.041 1_545 S
Mg836 O857 2.038 . S
C837 O843 1.247 . S
C837 O844 1.289 . S
C838 O856 1.245 . S
C838 O857 1.274 . S
O839 C827 1.241 . S
O839 Mg832 2.042 1_545 S
O840 C827 1.280 . S
O840 Mg830 1.984 . S
O841 C828 1.277 . S
O841 Mg832 2.041 1_545 S
O842 C828 1.245 . S
O842 Mg830 1.988 . S
O843 Mg830 2.061 . S
O843 C837 1.247 . S
O844 Mg833 2.106 . S
O844 Mg836 2.238 . S
O844 C837 1.289 . S
C845 O846 1.245 . S
C845 O847 1.274 . S
O846 Mg833 2.079 1_565 S
O846 C845 1.245 . S
O847 Mg832 2.038 . S
O847 C845 1.274 . S
O848 Mg836 2.042 1_565 S
O848 C851 1.241 . S
O849 Mg835 1.984 . S
O849 C851 1.280 . S
O850 Mg836 2.041 1_565 S
O850 C854 1.277 . S
C851 O848 1.241 . S
C851 O849 1.280 . S
O852 Mg835 1.988 . S
O852 C854 1.245 . S
O853 C829 1.247 . S
O853 Mg835 2.061 . S
C854 O850 1.277 . S
C854 O852 1.245 . S
O855 C829 1.289 . S
O855 Mg832 2.238 . S
O855 Mg833 2.106 1_565 S
O856 Mg833 2.079 . S
O856 C838 1.245 . S
O857 Mg836 2.038 . S
O857 C838 1.274 . S
H858 C864 0.930 . S
H859 C868 0.930 . S
H860 C873 0.929 . S
H861 C871 0.929 . S
H862 C866 0.929 . S
H863 C872 0.929 . S
C864 H858 0.930 . S
C864 C865 1.367 . S
C864 C872 1.378 . S
C865 C864 1.367 . S
C865 C873 1.433 . S
C866 H862 0.929 . S
C866 C868 1.378 . S
C866 C870 1.350 . S
C867 C870 1.463 . S
C867 C872 1.350 . S
C867 N875 1.427 . S
C868 H859 0.930 . S
C868 C866 1.378 . S
C868 C869 1.367 . S
C869 C868 1.367 . S
C869 C871 1.433 . S
C870 C866 1.350 . S
C870 C867 1.463 . S
C870 N874 1.427 . S
C871 H861 0.929 . S
C871 C869 1.433 . S
C871 N874 1.384 . S
C872 H863 0.929 . S
C872 C864 1.378 . S
C872 C867 1.350 . S
C873 H860 0.929 . S
C873 C865 1.433 . S
C873 N875 1.384 . S
N874 C870 1.427 . S
N874 C871 1.384 . S
N875 C867 1.427 . S
N875 C873 1.384 . S
H876 C882 0.930 . S
H877 C886 0.930 . S
H878 C891 0.929 . S
H879 C889 0.929 . S
H880 C884 0.929 . S
H881 C890 0.929 . S
C882 H876 0.930 . S
C882 C883 1.367 . S
C882 C890 1.378 . S
C883 C882 1.367 . S
C883 C891 1.433 . S
C884 H880 0.929 . S
C884 C886 1.378 . S
C884 C888 1.350 . S
C885 C888 1.463 . S
C885 C890 1.350 . S
C885 N893 1.427 . S
C886 H877 0.930 . S
C886 C884 1.378 . S
C886 C887 1.367 . S
C887 C886 1.367 . S
C887 C889 1.433 . S
C888 C884 1.350 . S
C888 C885 1.463 . S
C888 N892 1.427 . S
C889 H879 0.929 . S
C889 C887 1.433 . S
C889 N892 1.384 . S
C890 H881 0.929 . S
C890 C882 1.378 . S
C890 C885 1.350 . S
C891 H878 0.929 . S
C891 C883 1.433 . S
C891 N893 1.384 . S
N892 C888 1.427 . S
N892 C889 1.384 . S
N893 C885 1.427 . S
N893 C891 1.384 . S
H894 C900 0.930 . S
H895 C904 0.930 . S
H896 C909 0.929 . S
H897 C907 0.929 . S
H898 C902 0.929 . S
H899 C908 0.929 . S
C900 H894 0.930 . S
C900 C901 1.367 . S
C900 C908 1.378 . S
C901 C900 1.367 . S
C901 C909 1.433 . S
C902 H898 0.929 . S
C902 C904 1.378 . S
C902 C906 1.350 . S
C903 C906 1.463 . S
C903 C908 1.350 . S
C903 N911 1.427 . S
C904 H895 0.930 . S
C904 C902 1.378 . S
C904 C905 1.367 . S
C905 C904 1.367 . S
C905 C907 1.433 . S
C906 C902 1.350 . S
C906 C903 1.463 . S
C906 N910 1.427 . S
C907 H897 0.929 . S
C907 C905 1.433 . S
C907 N910 1.384 . S
C908 H899 0.929 . S
C908 C900 1.378 . S
C908 C903 1.350 . S
C909 H896 0.929 . S
C909 C901 1.433 . S
C909 N911 1.384 . S
N910 C906 1.427 . S
N910 C907 1.384 . S
N911 C903 1.427 . S
N911 C909 1.384 . S
H912 C918 0.930 . S
H913 C922 0.930 . S
H914 C927 0.929 . S
H915 C925 0.929 . S
H916 C920 0.929 . S
H917 C926 0.929 . S
C918 H912 0.930 . S
C918 C919 1.367 . S
C918 C926 1.378 . S
C919 C918 1.367 . S
C919 C927 1.433 . S
C920 H916 0.929 . S
C920 C922 1.378 . S
C920 C924 1.350 . S
C921 C924 1.463 . S
C921 C926 1.350 . S
C921 N929 1.427 . S
C922 H913 0.930 . S
C922 C920 1.378 . S
C922 C923 1.367 . S
C923 C922 1.367 . S
C923 C925 1.433 . S
C924 C920 1.350 . S
C924 C921 1.463 . S
C924 N928 1.427 . S
C925 H915 0.929 . S
C925 C923 1.433 . S
C925 N928 1.384 . S
C926 H917 0.929 . S
C926 C918 1.378 . S
C926 C921 1.350 . S
C927 H914 0.929 . S
C927 C919 1.433 . S
C927 N929 1.384 . S
N928 C924 1.427 . S
N928 C925 1.384 . S
N929 C921 1.427 . S
N929 C927 1.384 . S
H930 C936 0.930 . S
H931 C940 0.930 . S
H932 C945 0.929 . S
H933 C943 0.929 . S
H934 C938 0.929 . S
H935 C944 0.929 . S
C936 H930 0.930 . S
C936 C937 1.367 . S
C936 C944 1.378 . S
C937 C936 1.367 . S
C937 C945 1.433 . S
C938 H934 0.929 . S
C938 C940 1.378 . S
C938 C942 1.350 . S
C939 C942 1.463 . S
C939 C944 1.350 . S
C939 N947 1.427 . S
C940 H931 0.930 . S
C940 C938 1.378 . S
C940 C941 1.367 . S
C941 C940 1.367 . S
C941 C943 1.433 . S
C942 C938 1.350 . S
C942 C939 1.463 . S
C942 N946 1.427 . S
C943 H933 0.929 . S
C943 C941 1.433 . S
C943 N946 1.384 . S
C944 H935 0.929 . S
C944 C936 1.378 . S
C944 C939 1.350 . S
C945 H932 0.929 . S
C945 C937 1.433 . S
C945 N947 1.384 . S
N946 C942 1.427 . S
N946 C943 1.384 . S
N947 C939 1.427 . S
N947 C945 1.384 . S
H948 C954 0.930 . S
H949 C958 0.930 . S
H950 C963 0.929 . S
H951 C961 0.929 . S
H952 C956 0.929 . S
H953 C962 0.929 . S
C954 H948 0.930 . S
C954 C955 1.367 . S
C954 C962 1.378 . S
C955 C954 1.367 . S
C955 C963 1.433 . S
C956 H952 0.929 . S
C956 C958 1.378 . S
C956 C960 1.350 . S
C957 C960 1.463 . S
C957 C962 1.350 . S
C957 N965 1.427 . S
C958 H949 0.930 . S
C958 C956 1.378 . S
C958 C959 1.367 . S
C959 C958 1.367 . S
C959 C961 1.433 . S
C960 C956 1.350 . S
C960 C957 1.463 . S
C960 N964 1.427 . S
C961 H951 0.929 . S
C961 C959 1.433 . S
C961 N964 1.384 . S
C962 H953 0.929 . S
C962 C954 1.378 . S
C962 C957 1.350 . S
C963 H950 0.929 . S
C963 C955 1.433 . S
C963 N965 1.384 . S
N964 C960 1.427 . S
N964 C961 1.384 . S
N965 C957 1.427 . S
N965 C963 1.384 . S
H966 C972 0.930 . S
H967 C976 0.930 . S
H968 C981 0.929 . S
H969 C979 0.929 . S
H970 C974 0.929 . S
H971 C980 0.929 . S
C972 H966 0.930 . S
C972 C973 1.367 . S
C972 C980 1.378 . S
C973 C972 1.367 . S
C973 C981 1.433 . S
C974 H970 0.929 . S
C974 C976 1.378 . S
C974 C978 1.350 . S
C975 C978 1.463 . S
C975 C980 1.350 . S
C975 N983 1.427 . S
C976 H967 0.930 . S
C976 C974 1.378 . S
C976 C977 1.367 . S
C977 C976 1.367 . S
C977 C979 1.433 . S
C978 C974 1.350 . S
C978 C975 1.463 . S
C978 N982 1.427 . S
C979 H969 0.929 . S
C979 C977 1.433 . S
C979 N982 1.384 . S
C980 H971 0.929 . S
C980 C972 1.378 . S
C980 C975 1.350 . S
C981 H968 0.929 . S
C981 C973 1.433 . S
C981 N983 1.384 . S
N982 C978 1.427 . S
N982 C979 1.384 . S
N983 C975 1.427 . S
N983 C981 1.384 . S
H984 C990 0.930 . S
H985 C994 0.930 . S
H986 C999 0.929 . S
H987 C997 0.929 . S
H988 C992 0.929 . S
H989 C998 0.929 . S
C990 H984 0.930 . S
C990 C991 1.367 . S
C990 C998 1.378 . S
C991 C990 1.367 . S
C991 C999 1.433 . S
C992 H988 0.929 . S
C992 C994 1.378 . S
C992 C996 1.350 . S
C993 C996 1.463 . S
C993 C998 1.350 . S
C993 N1001 1.427 . S
C994 H985 0.930 . S
C994 C992 1.378 . S
C994 C995 1.367 . S
C995 C994 1.367 . S
C995 C997 1.433 . S
C996 C992 1.350 . S
C996 C993 1.463 . S
C996 N1000 1.427 . S
C997 H987 0.929 . S
C997 C995 1.433 . S
C997 N1000 1.384 . S
C998 H989 0.929 . S
C998 C990 1.378 . S
C998 C993 1.350 . S
C999 H986 0.929 . S
C999 C991 1.433 . S
C999 N1001 1.384 . S
N1000 C996 1.427 . S
N1000 C997 1.384 . S
N1001 C993 1.427 . S
N1001 C999 1.384 . S
H1002 C1008 0.930 . S
H1003 C1012 0.930 . S
H1004 C1017 0.929 . S
H1005 C1015 0.929 . S
H1006 C1010 0.929 . S
H1007 C1016 0.929 . S
C1008 H1002 0.930 . S
C1008 C1009 1.367 . S
C1008 C1016 1.378 . S
C1009 C1008 1.367 . S
C1009 C1017 1.433 . S
C1010 H1006 0.929 . S
C1010 C1012 1.378 . S
C1010 C1014 1.350 . S
C1011 C1014 1.463 . S
C1011 C1016 1.350 . S
C1011 N1019 1.427 . S
C1012 H1003 0.930 . S
C1012 C1010 1.378 . S
C1012 C1013 1.367 . S
C1013 C1012 1.367 . S
C1013 C1015 1.433 . S
C1014 C1010 1.350 . S
C1014 C1011 1.463 . S
C1014 N1018 1.427 . S
C1015 H1005 0.929 . S
C1015 C1013 1.433 . S
C1015 N1018 1.384 . S
C1016 H1007 0.929 . S
C1016 C1008 1.378 . S
C1016 C1011 1.350 . S
C1017 H1004 0.929 . S
C1017 C1009 1.433 . S
C1017 N1019 1.384 . S
N1018 C1014 1.427 . S
N1018 C1015 1.384 . S
N1019 C1011 1.427 . S
N1019 C1017 1.384 . S
H1020 C1026 0.930 . S
H1021 C1030 0.930 . S
H1022 C1035 0.929 . S
H1023 C1033 0.929 . S
H1024 C1028 0.929 . S
H1025 C1034 0.929 . S
C1026 H1020 0.930 . S
C1026 C1027 1.367 . S
C1026 C1034 1.378 . S
C1027 C1026 1.367 . S
C1027 C1035 1.433 . S
C1028 H1024 0.929 . S
C1028 C1030 1.378 . S
C1028 C1032 1.350 . S
C1029 C1032 1.463 . S
C1029 C1034 1.350 . S
C1029 N1037 1.427 . S
C1030 H1021 0.930 . S
C1030 C1028 1.378 . S
C1030 C1031 1.367 . S
C1031 C1030 1.367 . S
C1031 C1033 1.433 . S
C1032 C1028 1.350 . S
C1032 C1029 1.463 . S
C1032 N1036 1.427 . S
C1033 H1023 0.929 . S
C1033 C1031 1.433 . S
C1033 N1036 1.384 . S
C1034 H1025 0.929 . S
C1034 C1026 1.378 . S
C1034 C1029 1.350 . S
C1035 H1022 0.929 . S
C1035 C1027 1.433 . S
C1035 N1037 1.384 . S
N1036 C1032 1.427 . S
N1036 C1033 1.384 . S
N1037 C1029 1.427 . S
N1037 C1035 1.384 . S
H1038 C1044 0.930 . S
H1039 C1048 0.930 . S
H1040 C1053 0.929 . S
H1041 C1051 0.929 . S
H1042 C1046 0.929 . S
H1043 C1052 0.929 . S
C1044 H1038 0.930 . S
C1044 C1045 1.367 . S
C1044 C1052 1.378 . S
C1045 C1044 1.367 . S
C1045 C1053 1.433 . S
C1046 H1042 0.929 . S
C1046 C1048 1.378 . S
C1046 C1050 1.350 . S
C1047 C1050 1.463 . S
C1047 C1052 1.350 . S
C1047 N1055 1.427 . S
C1048 H1039 0.930 . S
C1048 C1046 1.378 . S
C1048 C1049 1.367 . S
C1049 C1048 1.367 . S
C1049 C1051 1.433 . S
C1050 C1046 1.350 . S
C1050 C1047 1.463 . S
C1050 N1054 1.427 . S
C1051 H1041 0.929 . S
C1051 C1049 1.433 . S
C1051 N1054 1.384 . S
C1052 H1043 0.929 . S
C1052 C1044 1.378 . S
C1052 C1047 1.350 . S
C1053 H1040 0.929 . S
C1053 C1045 1.433 . S
C1053 N1055 1.384 . S
N1054 C1050 1.427 . S
N1054 C1051 1.384 . S
N1055 C1047 1.427 . S
N1055 C1053 1.384 . S
H1056 C1062 0.930 . S
H1057 C1066 0.930 . S
H1058 C1071 0.929 . S
H1059 C1069 0.929 . S
H1060 C1064 0.929 . S
H1061 C1070 0.929 . S
C1062 H1056 0.930 . S
C1062 C1063 1.367 . S
C1062 C1070 1.378 . S
C1063 C1062 1.367 . S
C1063 C1071 1.433 . S
C1064 H1060 0.929 . S
C1064 C1066 1.378 . S
C1064 C1068 1.350 . S
C1065 C1068 1.463 . S
C1065 C1070 1.350 . S
C1065 N1073 1.427 . S
C1066 H1057 0.930 . S
C1066 C1064 1.378 . S
C1066 C1067 1.367 . S
C1067 C1066 1.367 . S
C1067 C1069 1.433 . S
C1068 C1064 1.350 . S
C1068 C1065 1.463 . S
C1068 N1072 1.427 . S
C1069 H1059 0.929 . S
C1069 C1067 1.433 . S
C1069 N1072 1.384 . S
C1070 H1061 0.929 . S
C1070 C1062 1.378 . S
C1070 C1065 1.350 . S
C1071 H1058 0.929 . S
C1071 C1063 1.433 . S
C1071 N1073 1.384 . S
N1072 C1068 1.427 . S
N1072 C1069 1.384 . S
N1073 C1065 1.427 . S
N1073 C1071 1.384 . S
H1074 C1080 0.930 . S
H1075 C1084 0.930 . S
H1076 C1089 0.929 . S
H1077 C1087 0.929 . S
H1078 C1082 0.929 . S
H1079 C1088 0.929 . S
C1080 H1074 0.930 . S
C1080 C1081 1.367 . S
C1080 C1088 1.378 . S
C1081 C1080 1.367 . S
C1081 C1089 1.433 . S
C1082 H1078 0.929 . S
C1082 C1084 1.378 . S
C1082 C1086 1.350 . S
C1083 C1086 1.463 . S
C1083 C1088 1.350 . S
C1083 N1091 1.427 . S
C1084 H1075 0.930 . S
C1084 C1082 1.378 . S
C1084 C1085 1.367 . S
C1085 C1084 1.367 . S
C1085 C1087 1.433 . S
C1086 C1082 1.350 . S
C1086 C1083 1.463 . S
C1086 N1090 1.427 . S
C1087 H1077 0.929 . S
C1087 C1085 1.433 . S
C1087 N1090 1.384 . S
C1088 H1079 0.929 . S
C1088 C1080 1.378 . S
C1088 C1083 1.350 . S
C1089 H1076 0.929 . S
C1089 C1081 1.433 . S
C1089 N1091 1.384 . S
N1090 C1086 1.427 . S
N1090 C1087 1.384 . S
N1091 C1083 1.427 . S
N1091 C1089 1.384 . S
H1092 C1098 0.930 . S
H1093 C1102 0.930 . S
H1094 C1107 0.929 . S
H1095 C1105 0.929 . S
H1096 C1100 0.929 . S
H1097 C1106 0.929 . S
C1098 H1092 0.930 . S
C1098 C1099 1.367 . S
C1098 C1106 1.378 . S
C1099 C1098 1.367 . S
C1099 C1107 1.433 . S
C1100 H1096 0.929 . S
C1100 C1102 1.378 . S
C1100 C1104 1.350 . S
C1101 C1104 1.463 . S
C1101 C1106 1.350 . S
C1101 N1109 1.427 . S
C1102 H1093 0.930 . S
C1102 C1100 1.378 . S
C1102 C1103 1.367 . S
C1103 C1102 1.367 . S
C1103 C1105 1.433 . S
C1104 C1100 1.350 . S
C1104 C1101 1.463 . S
C1104 N1108 1.427 . S
C1105 H1095 0.929 . S
C1105 C1103 1.433 . S
C1105 N1108 1.384 . S
C1106 H1097 0.929 . S
C1106 C1098 1.378 . S
C1106 C1101 1.350 . S
C1107 H1094 0.929 . S
C1107 C1099 1.433 . S
C1107 N1109 1.384 . S
N1108 C1104 1.427 . S
N1108 C1105 1.384 . S
N1109 C1101 1.427 . S
N1109 C1107 1.384 . S
H1110 C1116 0.930 . S
H1111 C1120 0.930 . S
H1112 C1125 0.929 . S
H1113 C1123 0.929 . S
H1114 C1118 0.929 . S
H1115 C1124 0.929 . S
C1116 H1110 0.930 . S
C1116 C1117 1.367 . S
C1116 C1124 1.378 . S
C1117 C1116 1.367 . S
C1117 C1125 1.433 . S
C1118 H1114 0.929 . S
C1118 C1120 1.378 . S
C1118 C1122 1.350 . S
C1119 C1122 1.463 . S
C1119 C1124 1.350 . S
C1119 N1127 1.427 . S
C1120 H1111 0.930 . S
C1120 C1118 1.378 . S
C1120 C1121 1.367 . S
C1121 C1120 1.367 . S
C1121 C1123 1.433 . S
C1122 C1118 1.350 . S
C1122 C1119 1.463 . S
C1122 N1126 1.427 . S
C1123 H1113 0.929 . S
C1123 C1121 1.433 . S
C1123 N1126 1.384 . S
C1124 H1115 0.929 . S
C1124 C1116 1.378 . S
C1124 C1119 1.350 . S
C1125 H1112 0.929 . S
C1125 C1117 1.433 . S
C1125 N1127 1.384 . S
N1126 C1122 1.427 . S
N1126 C1123 1.384 . S
N1127 C1119 1.427 . S
N1127 C1125 1.384 . S
H1128 C1134 0.930 . S
H1129 C1138 0.930 . S
H1130 C1143 0.929 . S
H1131 C1141 0.929 . S
H1132 C1136 0.929 . S
H1133 C1142 0.929 . S
C1134 H1128 0.930 . S
C1134 C1135 1.367 . S
C1134 C1142 1.378 . S
C1135 C1134 1.367 . S
C1135 C1143 1.433 . S
C1136 H1132 0.929 . S
C1136 C1138 1.378 . S
C1136 C1140 1.350 . S
C1137 C1140 1.463 . S
C1137 C1142 1.350 . S
C1137 N1145 1.427 . S
C1138 H1129 0.930 . S
C1138 C1136 1.378 . S
C1138 C1139 1.367 . S
C1139 C1138 1.367 . S
C1139 C1141 1.433 . S
C1140 C1136 1.350 . S
C1140 C1137 1.463 . S
C1140 N1144 1.427 . S
C1141 H1131 0.929 . S
C1141 C1139 1.433 . S
C1141 N1144 1.384 . S
C1142 H1133 0.929 . S
C1142 C1134 1.378 . S
C1142 C1137 1.350 . S
C1143 H1130 0.929 . S
C1143 C1135 1.433 . S
C1143 N1145 1.384 . S
N1144 C1140 1.427 . S
N1144 C1141 1.384 . S
N1145 C1137 1.427 . S
N1145 C1143 1.384 . S
H1146 C1152 0.930 . S
H1147 C1156 0.930 . S
H1148 C1161 0.929 . S
H1149 C1159 0.929 . S
H1150 C1154 0.929 . S
H1151 C1160 0.929 . S
C1152 H1146 0.930 . S
C1152 C1153 1.367 . S
C1152 C1160 1.378 . S
C1153 C1152 1.367 . S
C1153 C1161 1.433 . S
C1154 H1150 0.929 . S
C1154 C1156 1.378 . S
C1154 C1158 1.350 . S
C1155 C1158 1.463 . S
C1155 C1160 1.350 . S
C1155 N1163 1.427 . S
C1156 H1147 0.930 . S
C1156 C1154 1.378 . S
C1156 C1157 1.367 . S
C1157 C1156 1.367 . S
C1157 C1159 1.433 . S
C1158 C1154 1.350 . S
C1158 C1155 1.463 . S
C1158 N1162 1.427 . S
C1159 H1149 0.929 . S
C1159 C1157 1.433 . S
C1159 N1162 1.384 . S
C1160 H1151 0.929 . S
C1160 C1152 1.378 . S
C1160 C1155 1.350 . S
C1161 H1148 0.929 . S
C1161 C1153 1.433 . S
C1161 N1163 1.384 . S
N1162 C1158 1.427 . S
N1162 C1159 1.384 . S
N1163 C1155 1.427 . S
N1163 C1161 1.384 . S
H1164 C1170 0.930 . S
H1165 C1174 0.930 . S
H1166 C1179 0.929 . S
H1167 C1177 0.929 . S
H1168 C1172 0.929 . S
H1169 C1178 0.929 . S
C1170 H1164 0.930 . S
C1170 C1171 1.367 . S
C1170 C1178 1.378 . S
C1171 C1170 1.367 . S
C1171 C1179 1.433 . S
C1172 H1168 0.929 . S
C1172 C1174 1.378 . S
C1172 C1176 1.350 . S
C1173 C1176 1.463 . S
C1173 C1178 1.350 . S
C1173 N1181 1.427 . S
C1174 H1165 0.930 . S
C1174 C1172 1.378 . S
C1174 C1175 1.367 . S
C1175 C1174 1.367 . S
C1175 C1177 1.433 . S
C1176 C1172 1.350 . S
C1176 C1173 1.463 . S
C1176 N1180 1.427 . S
C1177 H1167 0.929 . S
C1177 C1175 1.433 . S
C1177 N1180 1.384 . S
C1178 H1169 0.929 . S
C1178 C1170 1.378 . S
C1178 C1173 1.350 . S
C1179 H1166 0.929 . S
C1179 C1171 1.433 . S
C1179 N1181 1.384 . S
N1180 C1176 1.427 . S
N1180 C1177 1.384 . S
N1181 C1173 1.427 . S
N1181 C1179 1.384 . S
H1182 C1188 0.930 . S
H1183 C1192 0.930 . S
H1184 C1197 0.929 . S
H1185 C1195 0.929 . S
H1186 C1190 0.929 . S
H1187 C1196 0.929 . S
C1188 H1182 0.930 . S
C1188 C1189 1.367 . S
C1188 C1196 1.378 . S
C1189 C1188 1.367 . S
C1189 C1197 1.433 . S
C1190 H1186 0.929 . S
C1190 C1192 1.378 . S
C1190 C1194 1.350 . S
C1191 C1194 1.463 . S
C1191 C1196 1.350 . S
C1191 N1199 1.427 . S
C1192 H1183 0.930 . S
C1192 C1190 1.378 . S
C1192 C1193 1.367 . S
C1193 C1192 1.367 . S
C1193 C1195 1.433 . S
C1194 C1190 1.350 . S
C1194 C1191 1.463 . S
C1194 N1198 1.427 . S
C1195 H1185 0.929 . S
C1195 C1193 1.433 . S
C1195 N1198 1.384 . S
C1196 H1187 0.929 . S
C1196 C1188 1.378 . S
C1196 C1191 1.350 . S
C1197 H1184 0.929 . S
C1197 C1189 1.433 . S
C1197 N1199 1.384 . S
N1198 C1194 1.427 . S
N1198 C1195 1.384 . S
N1199 C1191 1.427 . S
N1199 C1197 1.384 . S
H1200 C1206 0.930 . S
H1201 C1210 0.930 . S
H1202 C1215 0.929 . S
H1203 C1213 0.929 . S
H1204 C1208 0.929 . S
H1205 C1214 0.929 . S
C1206 H1200 0.930 . S
C1206 C1207 1.367 . S
C1206 C1214 1.378 . S
C1207 C1206 1.367 . S
C1207 C1215 1.433 . S
C1208 H1204 0.929 . S
C1208 C1210 1.378 . S
C1208 C1212 1.350 . S
C1209 C1212 1.463 . S
C1209 C1214 1.350 . S
C1209 N1217 1.427 . S
C1210 H1201 0.930 . S
C1210 C1208 1.378 . S
C1210 C1211 1.367 . S
C1211 C1210 1.367 . S
C1211 C1213 1.433 . S
C1212 C1208 1.350 . S
C1212 C1209 1.463 . S
C1212 N1216 1.427 . S
C1213 H1203 0.929 . S
C1213 C1211 1.433 . S
C1213 N1216 1.384 . S
C1214 H1205 0.929 . S
C1214 C1206 1.378 . S
C1214 C1209 1.350 . S
C1215 H1202 0.929 . S
C1215 C1207 1.433 . S
C1215 N1217 1.384 . S
N1216 C1212 1.427 . S
N1216 C1213 1.384 . S
N1217 C1209 1.427 . S
N1217 C1215 1.384 . S
H1218 C1224 0.930 . S
H1219 C1228 0.930 . S
H1220 C1233 0.929 . S
H1221 C1231 0.929 . S
H1222 C1226 0.929 . S
H1223 C1232 0.929 . S
C1224 H1218 0.930 . S
C1224 C1225 1.367 . S
C1224 C1232 1.378 . S
C1225 C1224 1.367 . S
C1225 C1233 1.433 . S
C1226 H1222 0.929 . S
C1226 C1228 1.378 . S
C1226 C1230 1.350 . S
C1227 C1230 1.463 . S
C1227 C1232 1.350 . S
C1227 N1235 1.427 . S
C1228 H1219 0.930 . S
C1228 C1226 1.378 . S
C1228 C1229 1.367 . S
C1229 C1228 1.367 . S
C1229 C1231 1.433 . S
C1230 C1226 1.350 . S
C1230 C1227 1.463 . S
C1230 N1234 1.427 . S
C1231 H1221 0.929 . S
C1231 C1229 1.433 . S
C1231 N1234 1.384 . S
C1232 H1223 0.929 . S
C1232 C1224 1.378 . S
C1232 C1227 1.350 . S
C1233 H1220 0.929 . S
C1233 C1225 1.433 . S
C1233 N1235 1.384 . S
N1234 C1230 1.427 . S
N1234 C1231 1.384 . S
N1235 C1227 1.427 . S
N1235 C1233 1.384 . S
H1236 C1242 0.930 . S
H1237 C1246 0.930 . S
H1238 C1251 0.929 . S
H1239 C1249 0.929 . S
H1240 C1244 0.929 . S
H1241 C1250 0.929 . S
C1242 H1236 0.930 . S
C1242 C1243 1.367 . S
C1242 C1250 1.378 . S
C1243 C1242 1.367 . S
C1243 C1251 1.433 . S
C1244 H1240 0.929 . S
C1244 C1246 1.378 . S
C1244 C1248 1.350 . S
C1245 C1248 1.463 . S
C1245 C1250 1.350 . S
C1245 N1253 1.427 . S
C1246 H1237 0.930 . S
C1246 C1244 1.378 . S
C1246 C1247 1.367 . S
C1247 C1246 1.367 . S
C1247 C1249 1.433 . S
C1248 C1244 1.350 . S
C1248 C1245 1.463 . S
C1248 N1252 1.427 . S
C1249 H1239 0.929 . S
C1249 C1247 1.433 . S
C1249 N1252 1.384 . S
C1250 H1241 0.929 . S
C1250 C1242 1.378 . S
C1250 C1245 1.350 . S
C1251 H1238 0.929 . S
C1251 C1243 1.433 . S
C1251 N1253 1.384 . S
N1252 C1248 1.427 . S
N1252 C1249 1.384 . S
N1253 C1245 1.427 . S
N1253 C1251 1.384 . S
H1254 C1260 0.930 . S
H1255 C1264 0.930 . S
H1256 C1269 0.929 . S
H1257 C1267 0.929 . S
H1258 C1262 0.929 . S
H1259 C1268 0.929 . S
C1260 H1254 0.930 . S
C1260 C1261 1.367 . S
C1260 C1268 1.378 . S
C1261 C1260 1.367 . S
C1261 C1269 1.433 . S
C1262 H1258 0.929 . S
C1262 C1264 1.378 . S
C1262 C1266 1.350 . S
C1263 C1266 1.463 . S
C1263 C1268 1.350 . S
C1263 N1271 1.427 . S
C1264 H1255 0.930 . S
C1264 C1262 1.378 . S
C1264 C1265 1.367 . S
C1265 C1264 1.367 . S
C1265 C1267 1.433 . S
C1266 C1262 1.350 . S
C1266 C1263 1.463 . S
C1266 N1270 1.427 . S
C1267 H1257 0.929 . S
C1267 C1265 1.433 . S
C1267 N1270 1.384 . S
C1268 H1259 0.929 . S
C1268 C1260 1.378 . S
C1268 C1263 1.350 . S
C1269 H1256 0.929 . S
C1269 C1261 1.433 . S
C1269 N1271 1.384 . S
N1270 C1266 1.427 . S
N1270 C1267 1.384 . S
N1271 C1263 1.427 . S
N1271 C1269 1.384 . S
H1272 C1278 0.930 . S
H1273 C1282 0.930 . S
H1274 C1287 0.929 . S
H1275 C1285 0.929 . S
H1276 C1280 0.929 . S
H1277 C1286 0.929 . S
C1278 H1272 0.930 . S
C1278 C1279 1.367 . S
C1278 C1286 1.378 . S
C1279 C1278 1.367 . S
C1279 C1287 1.433 . S
C1280 H1276 0.929 . S
C1280 C1282 1.378 . S
C1280 C1284 1.350 . S
C1281 C1284 1.463 . S
C1281 C1286 1.350 . S
C1281 N1289 1.427 . S
C1282 H1273 0.930 . S
C1282 C1280 1.378 . S
C1282 C1283 1.367 . S
C1283 C1282 1.367 . S
C1283 C1285 1.433 . S
C1284 C1280 1.350 . S
C1284 C1281 1.463 . S
C1284 N1288 1.427 . S
C1285 H1275 0.929 . S
C1285 C1283 1.433 . S
C1285 N1288 1.384 . S
C1286 H1277 0.929 . S
C1286 C1278 1.378 . S
C1286 C1281 1.350 . S
C1287 H1274 0.929 . S
C1287 C1279 1.433 . S
C1287 N1289 1.384 . S
N1288 C1284 1.427 . S
N1288 C1285 1.384 . S
N1289 C1281 1.427 . S
N1289 C1287 1.384 . S
H1290 C1296 0.930 . S
H1291 C1300 0.930 . S
H1292 C1305 0.929 . S
H1293 C1303 0.929 . S
H1294 C1298 0.929 . S
H1295 C1304 0.929 . S
C1296 H1290 0.930 . S
C1296 C1297 1.367 . S
C1296 C1304 1.378 . S
C1297 C1296 1.367 . S
C1297 C1305 1.433 . S
C1298 H1294 0.929 . S
C1298 C1300 1.378 . S
C1298 C1302 1.350 . S
C1299 C1302 1.463 . S
C1299 C1304 1.350 . S
C1299 N1307 1.427 . S
C1300 H1291 0.930 . S
C1300 C1298 1.378 . S
C1300 C1301 1.367 . S
C1301 C1300 1.367 . S
C1301 C1303 1.433 . S
C1302 C1298 1.350 . S
C1302 C1299 1.463 . S
C1302 N1306 1.427 . S
C1303 H1293 0.929 . S
C1303 C1301 1.433 . S
C1303 N1306 1.384 . S
C1304 H1295 0.929 . S
C1304 C1296 1.378 . S
C1304 C1299 1.350 . S
C1305 H1292 0.929 . S
C1305 C1297 1.433 . S
C1305 N1307 1.384 . S
N1306 C1302 1.427 . S
N1306 C1303 1.384 . S
N1307 C1299 1.427 . S
N1307 C1305 1.384 . S
H1308 C1314 0.930 . S
H1309 C1318 0.930 . S
H1310 C1323 0.929 . S
H1311 C1321 0.929 . S
H1312 C1316 0.929 . S
H1313 C1322 0.929 . S
C1314 H1308 0.930 . S
C1314 C1315 1.367 . S
C1314 C1322 1.378 . S
C1315 C1314 1.367 . S
C1315 C1323 1.433 . S
C1316 H1312 0.929 . S
C1316 C1318 1.378 . S
C1316 C1320 1.350 . S
C1317 C1320 1.463 . S
C1317 C1322 1.350 . S
C1317 N1325 1.427 . S
C1318 H1309 0.930 . S
C1318 C1316 1.378 . S
C1318 C1319 1.367 . S
C1319 C1318 1.367 . S
C1319 C1321 1.433 . S
C1320 C1316 1.350 . S
C1320 C1317 1.463 . S
C1320 N1324 1.427 . S
C1321 H1311 0.929 . S
C1321 C1319 1.433 . S
C1321 N1324 1.384 . S
C1322 H1313 0.929 . S
C1322 C1314 1.378 . S
C1322 C1317 1.350 . S
C1323 H1310 0.929 . S
C1323 C1315 1.433 . S
C1323 N1325 1.384 . S
N1324 C1320 1.427 . S
N1324 C1321 1.384 . S
N1325 C1317 1.427 . S
N1325 C1323 1.384 . S
H1326 C1332 0.930 . S
H1327 C1336 0.930 . S
H1328 C1341 0.929 . S
H1329 C1339 0.929 . S
H1330 C1334 0.929 . S
H1331 C1340 0.929 . S
C1332 H1326 0.930 . S
C1332 C1333 1.367 . S
C1332 C1340 1.378 . S
C1333 C1332 1.367 . S
C1333 C1341 1.433 . S
C1334 H1330 0.929 . S
C1334 C1336 1.378 . S
C1334 C1338 1.350 . S
C1335 C1338 1.463 . S
C1335 C1340 1.350 . S
C1335 N1343 1.427 . S
C1336 H1327 0.930 . S
C1336 C1334 1.378 . S
C1336 C1337 1.367 . S
C1337 C1336 1.367 . S
C1337 C1339 1.433 . S
C1338 C1334 1.350 . S
C1338 C1335 1.463 . S
C1338 N1342 1.427 . S
C1339 H1329 0.929 . S
C1339 C1337 1.433 . S
C1339 N1342 1.384 . S
C1340 H1331 0.929 . S
C1340 C1332 1.378 . S
C1340 C1335 1.350 . S
C1341 H1328 0.929 . S
C1341 C1333 1.433 . S
C1341 N1343 1.384 . S
N1342 C1338 1.427 . S
N1342 C1339 1.384 . S
N1343 C1335 1.427 . S
N1343 C1341 1.384 . S
H1344 C1350 0.930 . S
H1345 C1354 0.930 . S
H1346 C1359 0.929 . S
H1347 C1357 0.929 . S
H1348 C1352 0.929 . S
H1349 C1358 0.929 . S
C1350 H1344 0.930 . S
C1350 C1351 1.367 . S
C1350 C1358 1.378 . S
C1351 C1350 1.367 . S
C1351 C1359 1.433 . S
C1352 H1348 0.929 . S
C1352 C1354 1.378 . S
C1352 C1356 1.350 . S
C1353 C1356 1.463 . S
C1353 C1358 1.350 . S
C1353 N1361 1.427 . S
C1354 H1345 0.930 . S
C1354 C1352 1.378 . S
C1354 C1355 1.367 . S
C1355 C1354 1.367 . S
C1355 C1357 1.433 . S
C1356 C1352 1.350 . S
C1356 C1353 1.463 . S
C1356 N1360 1.427 . S
C1357 H1347 0.929 . S
C1357 C1355 1.433 . S
C1357 N1360 1.384 . S
C1358 H1349 0.929 . S
C1358 C1350 1.378 . S
C1358 C1353 1.350 . S
C1359 H1346 0.929 . S
C1359 C1351 1.433 . S
C1359 N1361 1.384 . S
N1360 C1356 1.427 . S
N1360 C1357 1.384 . S
N1361 C1353 1.427 . S
N1361 C1359 1.384 . S
H1362 C1368 0.930 . S
H1363 C1372 0.930 . S
H1364 C1377 0.929 . S
H1365 C1375 0.929 . S
H1366 C1370 0.929 . S
H1367 C1376 0.929 . S
C1368 H1362 0.930 . S
C1368 C1369 1.367 . S
C1368 C1376 1.378 . S
C1369 C1368 1.367 . S
C1369 C1377 1.433 . S
C1370 H1366 0.929 . S
C1370 C1372 1.378 . S
C1370 C1374 1.350 . S
C1371 C1374 1.463 . S
C1371 C1376 1.350 . S
C1371 N1379 1.427 . S
C1372 H1363 0.930 . S
C1372 C1370 1.378 . S
C1372 C1373 1.367 . S
C1373 C1372 1.367 . S
C1373 C1375 1.433 . S
C1374 C1370 1.350 . S
C1374 C1371 1.463 . S
C1374 N1378 1.427 . S
C1375 H1365 0.929 . S
C1375 C1373 1.433 . S
C1375 N1378 1.384 . S
C1376 H1367 0.929 . S
C1376 C1368 1.378 . S
C1376 C1371 1.350 . S
C1377 H1364 0.929 . S
C1377 C1369 1.433 . S
C1377 N1379 1.384 . S
N1378 C1374 1.427 . S
N1378 C1375 1.384 . S
N1379 C1371 1.427 . S
N1379 C1377 1.384 . S
H1380 C1386 0.930 . S
H1381 C1390 0.930 . S
H1382 C1395 0.929 . S
H1383 C1393 0.929 . S
H1384 C1388 0.929 . S
H1385 C1394 0.929 . S
C1386 H1380 0.930 . S
C1386 C1387 1.367 . S
C1386 C1394 1.378 . S
C1387 C1386 1.367 . S
C1387 C1395 1.433 . S
C1388 H1384 0.929 . S
C1388 C1390 1.378 . S
C1388 C1392 1.350 . S
C1389 C1392 1.463 . S
C1389 C1394 1.350 . S
C1389 N1397 1.427 . S
C1390 H1381 0.930 . S
C1390 C1388 1.378 . S
C1390 C1391 1.367 . S
C1391 C1390 1.367 . S
C1391 C1393 1.433 . S
C1392 C1388 1.350 . S
C1392 C1389 1.463 . S
C1392 N1396 1.427 . S
C1393 H1383 0.929 . S
C1393 C1391 1.433 . S
C1393 N1396 1.384 . S
C1394 H1385 0.929 . S
C1394 C1386 1.378 . S
C1394 C1389 1.350 . S
C1395 H1382 0.929 . S
C1395 C1387 1.433 . S
C1395 N1397 1.384 . S
N1396 C1392 1.427 . S
N1396 C1393 1.384 . S
N1397 C1389 1.427 . S
N1397 C1395 1.384 . S
H1398 C1404 0.930 . S
H1399 C1408 0.930 . S
H1400 C1413 0.929 . S
H1401 C1411 0.929 . S
H1402 C1406 0.929 . S
H1403 C1412 0.929 . S
C1404 H1398 0.930 . S
C1404 C1405 1.367 . S
C1404 C1412 1.378 . S
C1405 C1404 1.367 . S
C1405 C1413 1.433 . S
C1406 H1402 0.929 . S
C1406 C1408 1.378 . S
C1406 C1410 1.350 . S
C1407 C1410 1.463 . S
C1407 C1412 1.350 . S
C1407 N1415 1.427 . S
C1408 H1399 0.930 . S
C1408 C1406 1.378 . S
C1408 C1409 1.367 . S
C1409 C1408 1.367 . S
C1409 C1411 1.433 . S
C1410 C1406 1.350 . S
C1410 C1407 1.463 . S
C1410 N1414 1.427 . S
C1411 H1401 0.929 . S
C1411 C1409 1.433 . S
C1411 N1414 1.384 . S
C1412 H1403 0.929 . S
C1412 C1404 1.378 . S
C1412 C1407 1.350 . S
C1413 H1400 0.929 . S
C1413 C1405 1.433 . S
C1413 N1415 1.384 . S
N1414 C1410 1.427 . S
N1414 C1411 1.384 . S
N1415 C1407 1.427 . S
N1415 C1413 1.384 . S
H1416 C1422 0.930 . S
H1417 C1426 0.930 . S
H1418 C1431 0.929 . S
H1419 C1429 0.929 . S
H1420 C1424 0.929 . S
H1421 C1430 0.929 . S
C1422 H1416 0.930 . S
C1422 C1423 1.367 . S
C1422 C1430 1.378 . S
C1423 C1422 1.367 . S
C1423 C1431 1.433 . S
C1424 H1420 0.929 . S
C1424 C1426 1.378 . S
C1424 C1428 1.350 . S
C1425 C1428 1.463 . S
C1425 C1430 1.350 . S
C1425 N1433 1.427 . S
C1426 H1417 0.930 . S
C1426 C1424 1.378 . S
C1426 C1427 1.367 . S
C1427 C1426 1.367 . S
C1427 C1429 1.433 . S
C1428 C1424 1.350 . S
C1428 C1425 1.463 . S
C1428 N1432 1.427 . S
C1429 H1419 0.929 . S
C1429 C1427 1.433 . S
C1429 N1432 1.384 . S
C1430 H1421 0.929 . S
C1430 C1422 1.378 . S
C1430 C1425 1.350 . S
C1431 H1418 0.929 . S
C1431 C1423 1.433 . S
C1431 N1433 1.384 . S
N1432 C1428 1.427 . S
N1432 C1429 1.384 . S
N1433 C1425 1.427 . S
N1433 C1431 1.384 . S
H1434 C1440 0.930 . S
H1435 C1444 0.930 . S
H1436 C1449 0.929 . S
H1437 C1447 0.929 . S
H1438 C1442 0.929 . S
H1439 C1448 0.929 . S
C1440 H1434 0.930 . S
C1440 C1441 1.367 . S
C1440 C1448 1.378 . S
C1441 C1440 1.367 . S
C1441 C1449 1.433 . S
C1442 H1438 0.929 . S
C1442 C1444 1.378 . S
C1442 C1446 1.350 . S
C1443 C1446 1.463 . S
C1443 C1448 1.350 . S
C1443 N1451 1.427 . S
C1444 H1435 0.930 . S
C1444 C1442 1.378 . S
C1444 C1445 1.367 . S
C1445 C1444 1.367 . S
C1445 C1447 1.433 . S
C1446 C1442 1.350 . S
C1446 C1443 1.463 . S
C1446 N1450 1.427 . S
C1447 H1437 0.929 . S
C1447 C1445 1.433 . S
C1447 N1450 1.384 . S
C1448 H1439 0.929 . S
C1448 C1440 1.378 . S
C1448 C1443 1.350 . S
C1449 H1436 0.929 . S
C1449 C1441 1.433 . S
C1449 N1451 1.384 . S
N1450 C1446 1.427 . S
N1450 C1447 1.384 . S
N1451 C1443 1.427 . S
N1451 C1449 1.384 . S
H1452 C1458 0.930 . S
H1453 C1462 0.930 . S
H1454 C1467 0.929 . S
H1455 C1465 0.929 . S
H1456 C1460 0.929 . S
H1457 C1466 0.929 . S
C1458 H1452 0.930 . S
C1458 C1459 1.367 . S
C1458 C1466 1.378 . S
C1459 C1458 1.367 . S
C1459 C1467 1.433 . S
C1460 H1456 0.929 . S
C1460 C1462 1.378 . S
C1460 C1464 1.350 . S
C1461 C1464 1.463 . S
C1461 C1466 1.350 . S
C1461 N1469 1.427 . S
C1462 H1453 0.930 . S
C1462 C1460 1.378 . S
C1462 C1463 1.367 . S
C1463 C1462 1.367 . S
C1463 C1465 1.433 . S
C1464 C1460 1.350 . S
C1464 C1461 1.463 . S
C1464 N1468 1.427 . S
C1465 H1455 0.929 . S
C1465 C1463 1.433 . S
C1465 N1468 1.384 . S
C1466 H1457 0.929 . S
C1466 C1458 1.378 . S
C1466 C1461 1.350 . S
C1467 H1454 0.929 . S
C1467 C1459 1.433 . S
C1467 N1469 1.384 . S
N1468 C1464 1.427 . S
N1468 C1465 1.384 . S
N1469 C1461 1.427 . S
N1469 C1467 1.384 . S
H1470 C1476 0.930 . S
H1471 C1480 0.930 . S
H1472 C1485 0.929 . S
H1473 C1483 0.929 . S
H1474 C1478 0.929 . S
H1475 C1484 0.929 . S
C1476 H1470 0.930 . S
C1476 C1477 1.367 . S
C1476 C1484 1.378 . S
C1477 C1476 1.367 . S
C1477 C1485 1.433 . S
C1478 H1474 0.929 . S
C1478 C1480 1.378 . S
C1478 C1482 1.350 . S
C1479 C1482 1.463 . S
C1479 C1484 1.350 . S
C1479 N1487 1.427 . S
C1480 H1471 0.930 . S
C1480 C1478 1.378 . S
C1480 C1481 1.367 . S
C1481 C1480 1.367 . S
C1481 C1483 1.433 . S
C1482 C1478 1.350 . S
C1482 C1479 1.463 . S
C1482 N1486 1.427 . S
C1483 H1473 0.929 . S
C1483 C1481 1.433 . S
C1483 N1486 1.384 . S
C1484 H1475 0.929 . S
C1484 C1476 1.378 . S
C1484 C1479 1.350 . S
C1485 H1472 0.929 . S
C1485 C1477 1.433 . S
C1485 N1487 1.384 . S
N1486 C1482 1.427 . S
N1486 C1483 1.384 . S
N1487 C1479 1.427 . S
N1487 C1485 1.384 . S
H1488 C1494 0.930 . S
H1489 C1498 0.930 . S
H1490 C1503 0.929 . S
H1491 C1501 0.929 . S
H1492 C1496 0.929 . S
H1493 C1502 0.929 . S
C1494 H1488 0.930 . S
C1494 C1495 1.367 . S
C1494 C1502 1.378 . S
C1495 C1494 1.367 . S
C1495 C1503 1.433 . S
C1496 H1492 0.929 . S
C1496 C1498 1.378 . S
C1496 C1500 1.350 . S
C1497 C1500 1.463 . S
C1497 C1502 1.350 . S
C1497 N1505 1.427 . S
C1498 H1489 0.930 . S
C1498 C1496 1.378 . S
C1498 C1499 1.367 . S
C1499 C1498 1.367 . S
C1499 C1501 1.433 . S
C1500 C1496 1.350 . S
C1500 C1497 1.463 . S
C1500 N1504 1.427 . S
C1501 H1491 0.929 . S
C1501 C1499 1.433 . S
C1501 N1504 1.384 . S
C1502 H1493 0.929 . S
C1502 C1494 1.378 . S
C1502 C1497 1.350 . S
C1503 H1490 0.929 . S
C1503 C1495 1.433 . S
C1503 N1505 1.384 . S
N1504 C1500 1.427 . S
N1504 C1501 1.384 . S
N1505 C1497 1.427 . S
N1505 C1503 1.384 . S
H1506 C1512 0.930 . S
H1507 C1516 0.930 . S
H1508 C1521 0.929 . S
H1509 C1519 0.929 . S
H1510 C1514 0.929 . S
H1511 C1520 0.929 . S
C1512 H1506 0.930 . S
C1512 C1513 1.367 . S
C1512 C1520 1.378 . S
C1513 C1512 1.367 . S
C1513 C1521 1.433 . S
C1514 H1510 0.929 . S
C1514 C1516 1.378 . S
C1514 C1518 1.350 . S
C1515 C1518 1.463 . S
C1515 C1520 1.350 . S
C1515 N1523 1.427 . S
C1516 H1507 0.930 . S
C1516 C1514 1.378 . S
C1516 C1517 1.367 . S
C1517 C1516 1.367 . S
C1517 C1519 1.433 . S
C1518 C1514 1.350 . S
C1518 C1515 1.463 . S
C1518 N1522 1.427 . S
C1519 H1509 0.929 . S
C1519 C1517 1.433 . S
C1519 N1522 1.384 . S
C1520 H1511 0.929 . S
C1520 C1512 1.378 . S
C1520 C1515 1.350 . S
C1521 H1508 0.929 . S
C1521 C1513 1.433 . S
C1521 N1523 1.384 . S
N1522 C1518 1.427 . S
N1522 C1519 1.384 . S
N1523 C1515 1.427 . S
N1523 C1521 1.384 . S
H1524 C1530 0.930 . S
H1525 C1534 0.930 . S
H1526 C1539 0.929 . S
H1527 C1537 0.929 . S
H1528 C1532 0.929 . S
H1529 C1538 0.929 . S
C1530 H1524 0.930 . S
C1530 C1531 1.367 . S
C1530 C1538 1.378 . S
C1531 C1530 1.367 . S
C1531 C1539 1.433 . S
C1532 H1528 0.929 . S
C1532 C1534 1.378 . S
C1532 C1536 1.350 . S
C1533 C1536 1.463 . S
C1533 C1538 1.350 . S
C1533 N1541 1.427 . S
C1534 H1525 0.930 . S
C1534 C1532 1.378 . S
C1534 C1535 1.367 . S
C1535 C1534 1.367 . S
C1535 C1537 1.433 . S
C1536 C1532 1.350 . S
C1536 C1533 1.463 . S
C1536 N1540 1.427 . S
C1537 H1527 0.929 . S
C1537 C1535 1.433 . S
C1537 N1540 1.384 . S
C1538 H1529 0.929 . S
C1538 C1530 1.378 . S
C1538 C1533 1.350 . S
C1539 H1526 0.929 . S
C1539 C1531 1.433 . S
C1539 N1541 1.384 . S
N1540 C1536 1.427 . S
N1540 C1537 1.384 . S
N1541 C1533 1.427 . S
N1541 C1539 1.384 . S
H1542 C1548 0.930 . S
H1543 C1552 0.930 . S
H1544 C1557 0.929 . S
H1545 C1555 0.929 . S
H1546 C1550 0.929 . S
H1547 C1556 0.929 . S
C1548 H1542 0.930 . S
C1548 C1549 1.367 . S
C1548 C1556 1.378 . S
C1549 C1548 1.367 . S
C1549 C1557 1.433 . S
C1550 H1546 0.929 . S
C1550 C1552 1.378 . S
C1550 C1554 1.350 . S
C1551 C1554 1.463 . S
C1551 C1556 1.350 . S
C1551 N1559 1.427 . S
C1552 H1543 0.930 . S
C1552 C1550 1.378 . S
C1552 C1553 1.367 . S
C1553 C1552 1.367 . S
C1553 C1555 1.433 . S
C1554 C1550 1.350 . S
C1554 C1551 1.463 . S
C1554 N1558 1.427 . S
C1555 H1545 0.929 . S
C1555 C1553 1.433 . S
C1555 N1558 1.384 . S
C1556 H1547 0.929 . S
C1556 C1548 1.378 . S
C1556 C1551 1.350 . S
C1557 H1544 0.929 . S
C1557 C1549 1.433 . S
C1557 N1559 1.384 . S
N1558 C1554 1.427 . S
N1558 C1555 1.384 . S
N1559 C1551 1.427 . S
N1559 C1557 1.384 . S
H1560 C1566 0.930 . S
H1561 C1570 0.930 . S
H1562 C1575 0.929 . S
H1563 C1573 0.929 . S
H1564 C1568 0.929 . S
H1565 C1574 0.929 . S
C1566 H1560 0.930 . S
C1566 C1567 1.367 . S
C1566 C1574 1.378 . S
C1567 C1566 1.367 . S
C1567 C1575 1.433 . S
C1568 H1564 0.929 . S
C1568 C1570 1.378 . S
C1568 C1572 1.350 . S
C1569 C1572 1.463 . S
C1569 C1574 1.350 . S
C1569 N1577 1.427 . S
C1570 H1561 0.930 . S
C1570 C1568 1.378 . S
C1570 C1571 1.367 . S
C1571 C1570 1.367 . S
C1571 C1573 1.433 . S
C1572 C1568 1.350 . S
C1572 C1569 1.463 . S
C1572 N1576 1.427 . S
C1573 H1563 0.929 . S
C1573 C1571 1.433 . S
C1573 N1576 1.384 . S
C1574 H1565 0.929 . S
C1574 C1566 1.378 . S
C1574 C1569 1.350 . S
C1575 H1562 0.929 . S
C1575 C1567 1.433 . S
C1575 N1577 1.384 . S
N1576 C1572 1.427 . S
N1576 C1573 1.384 . S
N1577 C1569 1.427 . S
N1577 C1575 1.384 . S
H1578 C1584 0.930 . S
H1579 C1588 0.930 . S
H1580 C1593 0.929 . S
H1581 C1591 0.929 . S
H1582 C1586 0.929 . S
H1583 C1592 0.929 . S
C1584 H1578 0.930 . S
C1584 C1585 1.367 . S
C1584 C1592 1.378 . S
C1585 C1584 1.367 . S
C1585 C1593 1.433 . S
C1586 H1582 0.929 . S
C1586 C1588 1.378 . S
C1586 C1590 1.350 . S
C1587 C1590 1.463 . S
C1587 C1592 1.350 . S
C1587 N1595 1.427 . S
C1588 H1579 0.930 . S
C1588 C1586 1.378 . S
C1588 C1589 1.367 . S
C1589 C1588 1.367 . S
C1589 C1591 1.433 . S
C1590 C1586 1.350 . S
C1590 C1587 1.463 . S
C1590 N1594 1.427 . S
C1591 H1581 0.929 . S
C1591 C1589 1.433 . S
C1591 N1594 1.384 . S
C1592 H1583 0.929 . S
C1592 C1584 1.378 . S
C1592 C1587 1.350 . S
C1593 H1580 0.929 . S
C1593 C1585 1.433 . S
C1593 N1595 1.384 . S
N1594 C1590 1.427 . S
N1594 C1591 1.384 . S
N1595 C1587 1.427 . S
N1595 C1593 1.384 . S
H1596 C1602 0.930 . S
H1597 C1606 0.930 . S
H1598 C1611 0.929 . S
H1599 C1609 0.929 . S
H1600 C1604 0.929 . S
H1601 C1610 0.929 . S
C1602 H1596 0.930 . S
C1602 C1603 1.367 . S
C1602 C1610 1.378 . S
C1603 C1602 1.367 . S
C1603 C1611 1.433 . S
C1604 H1600 0.929 . S
C1604 C1606 1.378 . S
C1604 C1608 1.350 . S
C1605 C1608 1.463 . S
C1605 C1610 1.350 . S
C1605 N1613 1.427 . S
C1606 H1597 0.930 . S
C1606 C1604 1.378 . S
C1606 C1607 1.367 . S
C1607 C1606 1.367 . S
C1607 C1609 1.433 . S
C1608 C1604 1.350 . S
C1608 C1605 1.463 . S
C1608 N1612 1.427 . S
C1609 H1599 0.929 . S
C1609 C1607 1.433 . S
C1609 N1612 1.384 . S
C1610 H1601 0.929 . S
C1610 C1602 1.378 . S
C1610 C1605 1.350 . S
C1611 H1598 0.929 . S
C1611 C1603 1.433 . S
C1611 N1613 1.384 . S
N1612 C1608 1.427 . S
N1612 C1609 1.384 . S
N1613 C1605 1.427 . S
N1613 C1611 1.384 . S
H1614 C1620 0.930 . S
H1615 C1624 0.930 . S
H1616 C1629 0.929 . S
H1617 C1627 0.929 . S
H1618 C1622 0.929 . S
H1619 C1628 0.929 . S
C1620 H1614 0.930 . S
C1620 C1621 1.367 . S
C1620 C1628 1.378 . S
C1621 C1620 1.367 . S
C1621 C1629 1.433 . S
C1622 H1618 0.929 . S
C1622 C1624 1.378 . S
C1622 C1626 1.350 . S
C1623 C1626 1.463 . S
C1623 C1628 1.350 . S
C1623 N1631 1.427 . S
C1624 H1615 0.930 . S
C1624 C1622 1.378 . S
C1624 C1625 1.367 . S
C1625 C1624 1.367 . S
C1625 C1627 1.433 . S
C1626 C1622 1.350 . S
C1626 C1623 1.463 . S
C1626 N1630 1.427 . S
C1627 H1617 0.929 . S
C1627 C1625 1.433 . S
C1627 N1630 1.384 . S
C1628 H1619 0.929 . S
C1628 C1620 1.378 . S
C1628 C1623 1.350 . S
C1629 H1616 0.929 . S
C1629 C1621 1.433 . S
C1629 N1631 1.384 . S
N1630 C1626 1.427 . S
N1630 C1627 1.384 . S
N1631 C1623 1.427 . S
N1631 C1629 1.384 . S
H1632 C1638 0.930 . S
H1633 C1642 0.930 . S
H1634 C1647 0.929 . S
H1635 C1645 0.929 . S
H1636 C1640 0.929 . S
H1637 C1646 0.929 . S
C1638 H1632 0.930 . S
C1638 C1639 1.367 . S
C1638 C1646 1.378 . S
C1639 C1638 1.367 . S
C1639 C1647 1.433 . S
C1640 H1636 0.929 . S
C1640 C1642 1.378 . S
C1640 C1644 1.350 . S
C1641 C1644 1.463 . S
C1641 C1646 1.350 . S
C1641 N1649 1.427 . S
C1642 H1633 0.930 . S
C1642 C1640 1.378 . S
C1642 C1643 1.367 . S
C1643 C1642 1.367 . S
C1643 C1645 1.433 . S
C1644 C1640 1.350 . S
C1644 C1641 1.463 . S
C1644 N1648 1.427 . S
C1645 H1635 0.929 . S
C1645 C1643 1.433 . S
C1645 N1648 1.384 . S
C1646 H1637 0.929 . S
C1646 C1638 1.378 . S
C1646 C1641 1.350 . S
C1647 H1634 0.929 . S
C1647 C1639 1.433 . S
C1647 N1649 1.384 . S
N1648 C1644 1.427 . S
N1648 C1645 1.384 . S
N1649 C1641 1.427 . S
N1649 C1647 1.384 . S
H1650 C1656 0.930 . S
H1651 C1660 0.930 . S
H1652 C1665 0.929 . S
H1653 C1663 0.929 . S
H1654 C1658 0.929 . S
H1655 C1664 0.929 . S
C1656 H1650 0.930 . S
C1656 C1657 1.367 . S
C1656 C1664 1.378 . S
C1657 C1656 1.367 . S
C1657 C1665 1.433 . S
C1658 H1654 0.929 . S
C1658 C1660 1.378 . S
C1658 C1662 1.350 . S
C1659 C1662 1.463 . S
C1659 C1664 1.350 . S
C1659 N1667 1.427 . S
C1660 H1651 0.930 . S
C1660 C1658 1.378 . S
C1660 C1661 1.367 . S
C1661 C1660 1.367 . S
C1661 C1663 1.433 . S
C1662 C1658 1.350 . S
C1662 C1659 1.463 . S
C1662 N1666 1.427 . S
C1663 H1653 0.929 . S
C1663 C1661 1.433 . S
C1663 N1666 1.384 . S
C1664 H1655 0.929 . S
C1664 C1656 1.378 . S
C1664 C1659 1.350 . S
C1665 H1652 0.929 . S
C1665 C1657 1.433 . S
C1665 N1667 1.384 . S
N1666 C1662 1.427 . S
N1666 C1663 1.384 . S
N1667 C1659 1.427 . S
N1667 C1665 1.384 . S
H1668 C1674 0.930 . S
H1669 C1678 0.930 . S
H1670 C1683 0.929 . S
H1671 C1681 0.929 . S
H1672 C1676 0.929 . S
H1673 C1682 0.929 . S
C1674 H1668 0.930 . S
C1674 C1675 1.367 . S
C1674 C1682 1.378 . S
C1675 C1674 1.367 . S
C1675 C1683 1.433 . S
C1676 H1672 0.929 . S
C1676 C1678 1.378 . S
C1676 C1680 1.350 . S
C1677 C1680 1.463 . S
C1677 C1682 1.350 . S
C1677 N1685 1.427 . S
C1678 H1669 0.930 . S
C1678 C1676 1.378 . S
C1678 C1679 1.367 . S
C1679 C1678 1.367 . S
C1679 C1681 1.433 . S
C1680 C1676 1.350 . S
C1680 C1677 1.463 . S
C1680 N1684 1.427 . S
C1681 H1671 0.929 . S
C1681 C1679 1.433 . S
C1681 N1684 1.384 . S
C1682 H1673 0.929 . S
C1682 C1674 1.378 . S
C1682 C1677 1.350 . S
C1683 H1670 0.929 . S
C1683 C1675 1.433 . S
C1683 N1685 1.384 . S
N1684 C1680 1.427 . S
N1684 C1681 1.384 . S
N1685 C1677 1.427 . S
N1685 C1683 1.384 . S
H1686 C1692 0.930 . S
H1687 C1696 0.930 . S
H1688 C1701 0.929 . S
H1689 C1699 0.929 . S
H1690 C1694 0.929 . S
H1691 C1700 0.929 . S
C1692 H1686 0.930 . S
C1692 C1693 1.367 . S
C1692 C1700 1.378 . S
C1693 C1692 1.367 . S
C1693 C1701 1.433 . S
C1694 H1690 0.929 . S
C1694 C1696 1.378 . S
C1694 C1698 1.350 . S
C1695 C1698 1.463 . S
C1695 C1700 1.350 . S
C1695 N1703 1.427 . S
C1696 H1687 0.930 . S
C1696 C1694 1.378 . S
C1696 C1697 1.367 . S
C1697 C1696 1.367 . S
C1697 C1699 1.433 . S
C1698 C1694 1.350 . S
C1698 C1695 1.463 . S
C1698 N1702 1.427 . S
C1699 H1689 0.929 . S
C1699 C1697 1.433 . S
C1699 N1702 1.384 . S
C1700 H1691 0.929 . S
C1700 C1692 1.378 . S
C1700 C1695 1.350 . S
C1701 H1688 0.929 . S
C1701 C1693 1.433 . S
C1701 N1703 1.384 . S
N1702 C1698 1.427 . S
N1702 C1699 1.384 . S
N1703 C1695 1.427 . S
N1703 C1701 1.384 . S
H1704 C1710 0.930 . S
H1705 C1714 0.930 . S
H1706 C1719 0.929 . S
H1707 C1717 0.929 . S
H1708 C1712 0.929 . S
H1709 C1718 0.929 . S
C1710 H1704 0.930 . S
C1710 C1711 1.367 . S
C1710 C1718 1.378 . S
C1711 C1710 1.367 . S
C1711 C1719 1.433 . S
C1712 H1708 0.929 . S
C1712 C1714 1.378 . S
C1712 C1716 1.350 . S
C1713 C1716 1.463 . S
C1713 C1718 1.350 . S
C1713 N1721 1.427 . S
C1714 H1705 0.930 . S
C1714 C1712 1.378 . S
C1714 C1715 1.367 . S
C1715 C1714 1.367 . S
C1715 C1717 1.433 . S
C1716 C1712 1.350 . S
C1716 C1713 1.463 . S
C1716 N1720 1.427 . S
C1717 H1707 0.929 . S
C1717 C1715 1.433 . S
C1717 N1720 1.384 . S
C1718 H1709 0.929 . S
C1718 C1710 1.378 . S
C1718 C1713 1.350 . S
C1719 H1706 0.929 . S
C1719 C1711 1.433 . S
C1719 N1721 1.384 . S
N1720 C1716 1.427 . S
N1720 C1717 1.384 . S
N1721 C1713 1.427 . S
N1721 C1719 1.384 . S
C869 C683 1.653 . S
C865 C56 1.640 . S
C887 C673 1.386 . S
C883 C154 1.307 . S
C905 C674 1.253 . S
C901 C236 1.251 . S
C919 C310 0.799 . S
C923 C696 0.595 . S
C937 C394 1.307 . S
C941 C699 1.389 . S
C959 C682 1.249 . S
C955 C476 1.240 . S
C973 C574 0.793 . S
C977 C672 0.602 . S
C991 C656 1.647 . S
C995 C690 1.652 . S
C1013 C703 2.460 . S
C1009 C67 2.540 . S
C1027 C139 1.611 . S
C1031 C752 1.572 . S
C1049 C730 1.424 . S
C1045 C238 1.383 . S
C1067 C744 1.230 . S
C1063 C308 1.233 . S
C1081 C392 1.227 . S
C1085 C705 1.213 . S
C1103 C758 2.449 . S
C1099 C487 2.550 . S
C1117 C559 1.614 . S
C1121 C714 1.585 . S
C1135 C658 1.334 . S
C1139 C735 1.402 . S
C1153 C58 1.338 . S
C1157 C761 1.393 . S
C1171 C403 1.611 . S
C1175 C745 1.576 . S
C1193 C704 1.410 . S
C1189 C478 1.382 . S
C1211 C736 1.224 . S
C1207 C572 1.224 . S
C1225 C643 2.542 . S
C1229 C727 2.462 . S
C1243 C223 2.550 . S
C1247 C734 2.449 . S
C1265 C721 1.578 . S
C1261 C319 1.617 . S
C1279 C152 1.237 . S
C1283 C713 1.226 . S
C1297 C644 1.650 . S
C1301 C776 1.661 . S
C1315 C406 1.324 . S
C1319 C766 1.397 . S
C1337 C767 1.250 . S
C1333 C488 1.241 . S
C1355 C789 0.559 . S
C1351 C562 0.752 . S
C1369 C142 1.310 . S
C1373 C792 1.384 . S
C1391 C775 1.247 . S
C1387 C224 1.238 . S
C1405 C322 0.774 . S
C1409 C765 0.595 . S
C1423 C68 1.651 . S
C1427 C783 1.661 . S
C1441 C655 2.541 . S
C1445 C796 2.457 . S
C1463 C845 1.565 . S
C1459 C391 1.614 . S
C1477 C490 1.383 . S
C1481 C823 1.410 . S
C1495 C560 1.229 . S
C1499 C837 1.236 . S
C1517 C798 1.215 . S
C1513 C140 1.229 . S
C1531 C235 2.552 . S
C1535 C851 2.458 . S
C1553 C807 1.585 . S
C1549 C307 1.614 . S
C1571 C828 1.387 . S
C1567 C70 1.324 . S
C1589 C854 1.390 . S
C1585 C646 1.335 . S
C1603 C151 1.612 . S
C1607 C838 1.568 . S
C1621 C226 1.375 . S
C1625 C797 1.410 . S
C1643 C829 1.230 . S
C1639 C320 1.219 . S
C1657 C55 2.542 . S
C1661 C820 2.454 . S
C1675 C475 2.552 . S
C1679 C827 2.453 . S
C1697 C814 1.580 . S
C1693 C571 1.616 . S
C1715 C806 1.214 . S
C1711 C404 1.228 . S
