# Generated by pormake.
# Topology ssa, (4,4)-cn, num edge types: 1
# Building blocks:
#     Node 0, Type 0, BuildingBlock: NAWXER_clean_sbu_0, # of connection points: 4
#     Node 1, Type 0, BuildingBlock: NAWXER_clean_sbu_0, # of connection points: 4
#     Node 2, Type 0, BuildingBlock: NAWXER_clean_sbu_0, # of connection points: 4
#     Node 3, Type 0, BuildingBlock: NAWXER_clean_sbu_0, # of connection points: 4
#     Node 4, Type 0, BuildingBlock: NAWXER_clean_sbu_0, # of connection points: 4
#     Node 5, Type 0, BuildingBlock: NAWXER_clean_sbu_0, # of connection points: 4
#     Node 6, Type 1, BuildingBlock: MUDLON_clean_sbu_0, # of connection points: 4
#     Node 7, Type 1, BuildingBlock: MUDLON_clean_sbu_0, # of connection points: 4
#     Node 8, Type 1, BuildingBlock: MUDLON_clean_sbu_0, # of connection points: 4
#     Node 9, Type 1, BuildingBlock: MUDLON_clean_sbu_0, # of connection points: 4
#     Node 10, Type 1, BuildingBlock: MUDLON_clean_sbu_0, # of connection points: 4
#     Node 11, Type 1, BuildingBlock: MUDLON_clean_sbu_0, # of connection points: 4
#     Edge 12, Type (0, 1), BuildingBlock: EYOCIG_clean_linker_4, # of connection points: 2
#     Edge 13, Type (0, 1), BuildingBlock: EYOCIG_clean_linker_4, # of connection points: 2
#     Edge 14, Type (0, 1), BuildingBlock: EYOCIG_clean_linker_4, # of connection points: 2
#     Edge 15, Type (0, 1), BuildingBlock: EYOCIG_clean_linker_4, # of connection points: 2
#     Edge 16, Type (0, 1), BuildingBlock: EYOCIG_clean_linker_4, # of connection points: 2
#     Edge 17, Type (0, 1), BuildingBlock: EYOCIG_clean_linker_4, # of connection points: 2
#     Edge 18, Type (0, 1), BuildingBlock: EYOCIG_clean_linker_4, # of connection points: 2
#     Edge 19, Type (0, 1), BuildingBlock: EYOCIG_clean_linker_4, # of connection points: 2
#     Edge 20, Type (0, 1), BuildingBlock: EYOCIG_clean_linker_4, # of connection points: 2
#     Edge 21, Type (0, 1), BuildingBlock: EYOCIG_clean_linker_4, # of connection points: 2
#     Edge 22, Type (0, 1), BuildingBlock: EYOCIG_clean_linker_4, # of connection points: 2
#     Edge 23, Type (0, 1), BuildingBlock: EYOCIG_clean_linker_4, # of connection points: 2
#     Edge 24, Type (0, 1), BuildingBlock: EYOCIG_clean_linker_4, # of connection points: 2
#     Edge 25, Type (0, 1), BuildingBlock: EYOCIG_clean_linker_4, # of connection points: 2
#     Edge 26, Type (0, 1), BuildingBlock: EYOCIG_clean_linker_4, # of connection points: 2
#     Edge 27, Type (0, 1), BuildingBlock: EYOCIG_clean_linker_4, # of connection points: 2
#     Edge 28, Type (0, 1), BuildingBlock: EYOCIG_clean_linker_4, # of connection points: 2
#     Edge 29, Type (0, 1), BuildingBlock: EYOCIG_clean_linker_4, # of connection points: 2
#     Edge 30, Type (0, 1), BuildingBlock: EYOCIG_clean_linker_4, # of connection points: 2
#     Edge 31, Type (0, 1), BuildingBlock: EYOCIG_clean_linker_4, # of connection points: 2
#     Edge 32, Type (0, 1), BuildingBlock: EYOCIG_clean_linker_4, # of connection points: 2
#     Edge 33, Type (0, 1), BuildingBlock: EYOCIG_clean_linker_4, # of connection points: 2
#     Edge 34, Type (0, 1), BuildingBlock: EYOCIG_clean_linker_4, # of connection points: 2
#     Edge 35, Type (0, 1), BuildingBlock: EYOCIG_clean_linker_4, # of connection points: 2
# Relax obj value: 0.034
# Max RMSD: 0.048
# Mean RMSD: 0.037
data_MOF--net-ssa--node1-NAWXER_clean_sbu_0--node2-MUDLON_clean_sbu_0--edge1-EYOCIG_clean_linker_4
_symmetry_space_group_name_H-M    P1
_symmetry_Int_Tables_number       1
_symmetry_cell_setting            triclinic
loop_
_symmetry_equiv_pos_as_xyz
'x, y, z'
_cell_length_a     33.756094
_cell_length_b     33.607524
_cell_length_c     30.731815
_cell_angle_alpha  90.005676
_cell_angle_beta   90.024196
_cell_angle_gamma 119.91846
loop_
_atom_site_label
_atom_site_type_symbol
_atom_site_fract_x
_atom_site_fract_y
_atom_site_fract_z
_atom_type_partial_charge
C0 C 0.06147 0.5959 0.07836 0.0
C1 C 0.99189 0.4503 0.97874 0.0
O2 O 0.02171 0.56259 0.08566 0.0
Zn3 Zn 0.98675 0.50344 0.05283 0.0
O4 O 0.08537 0.59464 0.04706 0.0
Zn5 Zn 0.06522 0.54252 1.00426 0.0
O6 O 0.0301 0.56739 0.97165 0.0
O7 O 0.96671 0.5357 1.01062 0.0
O8 O 0.03167 0.48332 0.97066 0.0
O9 O 0.96855 0.45225 1.01009 0.0
O10 O 0.01946 0.47762 0.08683 0.0
O11 O 0.08284 0.50916 0.04777 0.0
C12 C 0.99042 0.56105 0.97934 0.0
C13 C 0.05915 0.48407 0.07915 0.0
C14 C 0.4827 0.05689 0.58069 0.0
C15 C 0.55999 0.9886 0.47967 0.0
O16 O 0.47602 0.01677 0.58752 0.0
Zn17 Zn 0.50241 0.98601 0.55124 0.0
O18 O 0.50802 0.08113 0.54961 0.0
Zn19 Zn 0.54146 0.06398 0.50508 0.0
O20 O 0.48377 0.03304 0.46924 0.0
O21 O 0.45165 0.96891 0.50745 0.0
O22 O 0.56641 0.02859 0.4725 0.0
O23 O 0.53423 0.96429 0.51048 0.0
O24 O 0.56138 0.02058 0.58467 0.0
O25 O 0.59403 0.08499 0.54683 0.0
C26 C 0.45035 0.99309 0.47637 0.0
C27 C 0.5948 0.06051 0.5779 0.0
C28 C 0.47513 0.44908 0.97781 0.0
C29 C 0.5533 0.59483 0.07872 0.0
O30 O 0.46933 0.48299 0.97028 0.0
Zn31 Zn 0.49687 0.54208 1.00465 0.0
O32 O 0.50071 0.45041 1.00871 0.0
Zn33 Zn 0.53501 0.50213 0.05153 0.0
O34 O 0.47798 0.47708 0.08738 0.0
O35 O 0.44652 0.50955 0.0488 0.0
O36 O 0.55956 0.56113 0.08534 0.0
O37 O 0.52842 0.59432 0.04745 0.0
O38 O 0.55666 0.56654 0.97194 0.0
O39 O 0.5881 0.53399 1.01032 0.0
C40 C 0.44519 0.48447 0.08026 0.0
C41 C 0.58984 0.55978 0.97931 0.0
C42 C 0.04506 0.58767 0.47712 0.0
C43 C 0.97704 0.44268 0.57781 0.0
O44 O 0.06876 0.58614 0.50845 0.0
Zn45 Zn 0.05144 0.53554 0.55242 0.0
O46 O 1.00514 0.55448 0.46976 0.0
Zn47 Zn 0.97233 0.49598 0.50464 0.0
O48 O 0.95495 0.52895 0.54907 0.0
O49 O 0.01887 0.56078 0.58736 0.0
O50 O 0.95287 0.44376 0.54671 0.0
O51 O 0.0168 0.47606 0.58502 0.0
O52 O 0.07133 0.50314 0.51084 0.0
O53 O 1.00747 0.47127 0.47241 0.0
C54 C 0.97894 0.55402 0.5804 0.0
C55 C 0.04724 0.47777 0.47978 0.0
C56 C 0.5541 0.97823 0.07994 0.0
C57 C 0.47705 0.04632 0.97846 0.0
O58 O 0.56008 0.01803 0.08695 0.0
Zn59 Zn 0.53415 0.05072 0.05281 0.0
O60 O 0.52905 0.95382 0.04875 0.0
Zn61 Zn 0.49575 0.97224 1.00548 0.0
O62 O 0.55478 0.00701 0.972 0.0
O63 O 0.58596 0.07084 1.01083 0.0
O64 O 0.47057 1.00629 0.97122 0.0
O65 O 0.50202 0.0702 1.00986 0.0
O66 O 0.47603 0.01751 0.08694 0.0
O67 O 0.44416 0.95338 0.04862 0.0
C68 C 0.58759 0.04718 0.97949 0.0
C69 C 0.44289 0.9775 0.07981 0.0
C70 C 0.59447 0.55449 0.5806 0.0
C71 C 0.45041 0.4792 0.47929 0.0
O72 O 0.56107 0.56089 0.58773 0.0
Zn73 Zn 0.50345 0.53517 0.55277 0.0
O74 O 0.59339 0.52916 0.54942 0.0
Zn75 Zn 0.54231 0.49581 0.50567 0.0
O76 O 0.56767 0.55484 0.47124 0.0
O77 O 0.53586 0.58692 0.50979 0.0
O78 O 0.48337 0.4721 0.47202 0.0
O79 O 0.45164 0.50418 0.51076 0.0
O80 O 0.47724 0.47575 0.5859 0.0
O81 O 0.50866 0.44301 0.54776 0.0
C82 C 0.56105 0.58828 0.47851 0.0
C83 C 0.48308 0.44189 0.57861 0.0
Mg84 Mg 0.20383 0.38881 0.28356 0.0
C85 C 0.14364 0.38743 0.21134 0.0
O86 O 0.13049 0.34353 0.21174 0.0
C87 C 0.26867 0.38731 0.34835 0.0
O88 O 0.24445 0.34316 0.34033 0.0
C89 C 0.13729 0.38578 0.34888 0.0
O90 O 0.11812 0.34175 0.34039 0.0
O91 O 0.17409 0.41402 0.33004 0.0
O92 O 0.17409 0.41465 0.23757 0.0
O93 O 0.25984 0.4155 0.23826 0.0
C94 C 0.26423 0.38883 0.21209 0.0
O95 O 0.23414 0.34482 0.21182 0.0
O96 O 0.25906 0.41499 0.32962 0.0
Mg97 Mg 0.83385 0.20375 0.78338 0.0
C98 C 0.77461 0.14316 0.71128 0.0
O99 O 0.80507 0.12979 0.71147 0.0
C100 C 0.90136 0.26762 0.84828 0.0
O101 O 0.92031 0.24262 0.83973 0.0
C102 C 0.76905 0.13773 0.84827 0.0
O103 O 0.79322 0.1178 0.84024 0.0
O104 O 0.7786 0.17498 0.82942 0.0
O105 O 0.77825 0.1739 0.7375 0.0
O106 O 0.86326 0.25929 0.73732 0.0
C107 C 0.89362 0.26245 0.71106 0.0
O108 O 0.90675 0.2317 0.71157 0.0
O109 O 0.86442 0.259 0.82969 0.0
Mg110 Mg 0.67795 0.84813 0.2828 0.0
C111 C 0.63316 0.88297 0.21747 0.0
O112 O 0.59593 0.84615 0.2301 0.0
C113 C 0.63411 0.76542 0.3434 0.0
O114 O 0.59714 0.76039 0.32441 0.0
C115 C 0.63492 0.88723 0.34404 0.0
O116 O 0.59782 0.85595 0.3246 0.0
O117 O 0.67342 0.89167 0.33387 0.0
O118 O 0.67164 0.89234 0.23344 0.0
O119 O 0.67113 0.79801 0.23273 0.0
C120 C 0.63242 0.76867 0.21731 0.0
O121 O 0.5953 0.76782 0.23093 0.0
O122 O 0.67284 0.7992 0.3332 0.0
Mg123 Mg 0.84763 0.67648 0.78297 0.0
C124 C 0.76906 0.63357 0.71693 0.0
O125 O 0.7681 0.59588 0.72938 0.0
C126 C 0.88832 0.63533 0.84426 0.0
O127 O 0.85707 0.59772 0.82538 0.0
C128 C 0.76577 0.63382 0.84397 0.0
O129 O 0.7599 0.59653 0.8246 0.0
O130 O 0.79987 0.67243 0.83388 0.0
O131 O 0.79833 0.67198 0.73321 0.0
O132 O 0.89156 0.6705 0.73338 0.0
C133 C 0.88206 0.63183 0.71739 0.0
O134 O 0.84537 0.59452 0.73014 0.0
O135 O 0.89234 0.67377 0.83372 0.0
Mg136 Mg 0.19017 0.84805 0.28258 0.0
C137 C 0.15579 0.76957 0.21641 0.0
O138 O 0.19096 0.76717 0.23097 0.0
C139 C 0.27248 0.88829 0.34324 0.0
O140 O 0.27739 0.85566 0.32527 0.0
C141 C 0.14984 0.76505 0.34292 0.0
O142 O 0.18238 0.7601 0.32515 0.0
O143 O 0.14518 0.79904 0.33225 0.0
O144 O 0.14705 0.79958 0.2316 0.0
O145 O 0.2399 0.89147 0.23269 0.0
C146 C 0.26892 0.88171 0.2171 0.0
O147 O 0.26949 0.84504 0.23047 0.0
O148 O 0.23864 0.89303 0.33265 0.0
Mg149 Mg 0.36132 0.18972 0.78265 0.0
C150 C 0.40417 0.15398 0.71679 0.0
O151 O 0.44145 0.19108 0.72893 0.0
C152 C 0.40194 0.27132 0.84427 0.0
O153 O 0.43949 0.27748 0.82561 0.0
C154 C 0.40406 0.15028 0.84325 0.0
O155 O 0.44106 0.18227 0.8243 0.0
O156 O 0.3654 0.14546 0.83309 0.0
O157 O 0.36588 0.14458 0.73323 0.0
O158 O 0.36555 0.23841 0.73226 0.0
C159 C 0.40375 0.26789 0.71606 0.0
O160 O 0.44144 0.26962 0.72924 0.0
O161 O 0.36373 0.2371 0.83345 0.0
C162 C 0.09159 0.44345 0.12932 0.0
C163 C 0.0772 0.46222 0.10615 0.0
C164 C 0.1084 0.42196 0.15704 0.0
C165 C 0.12374 0.40501 0.18137 0.0
C166 C 0.66669 0.09138 0.6293 0.0
C167 C 0.63408 0.07771 0.60559 0.0
C168 C 0.70472 0.10786 0.65726 0.0
C169 C 0.73704 0.12324 0.68148 0.0
C170 C 0.59505 0.66669 0.13077 0.0
C171 C 0.57566 0.63426 0.10661 0.0
C172 C 0.61566 0.70414 0.15992 0.0
C173 C 0.62789 0.73505 0.18583 0.0
C174 C 0.94768 0.59513 0.63174 0.0
C175 C 0.9613 0.57604 0.60792 0.0
C176 C 0.9304 0.61549 0.66063 0.0
C177 C 0.91147 0.62751 0.68634 0.0
C178 C 0.37068 0.94655 0.13098 0.0
C179 C 0.40325 0.95992 0.10718 0.0
C180 C 0.33326 0.92952 0.15995 0.0
C181 C 0.30248 0.9108 0.18579 0.0
C182 C 0.43955 0.36877 0.62889 0.0
C183 C 0.45978 0.40174 0.6055 0.0
C184 C 0.41878 0.33122 0.65793 0.0
C185 C 0.40709 0.30072 0.6842 0.0
C186 C 0.60158 0.95649 0.42969 0.0
C187 C 0.58249 0.97092 0.45262 0.0
C188 C 0.62046 0.93684 0.40162 0.0
C189 C 0.63104 0.91635 0.37613 0.0
C190 C 0.66341 0.60074 0.92937 0.0
C191 C 0.62992 0.58195 0.95228 0.0
C192 C 0.70182 0.61948 0.90133 0.0
C193 C 0.73282 0.63001 0.87594 0.0
C194 C 0.0784 0.66108 0.42656 0.0
C195 C 0.06347 0.62771 0.44981 0.0
C196 C 0.09857 0.69972 0.39865 0.0
C197 C 0.11973 0.73128 0.37386 0.0
C198 C 0.43728 0.07993 0.92786 0.0
C199 C 0.45544 0.06462 0.95097 0.0
C200 C 0.41886 0.10012 0.89991 0.0
C201 C 0.40824 0.12087 0.87478 0.0
C202 C 0.37813 0.44091 0.42832 0.0
C203 C 0.41109 0.45846 0.45167 0.0
C204 C 0.33964 0.42084 0.4009 0.0
C205 C 0.30707 0.40469 0.37704 0.0
C206 C 0.95805 0.37672 0.92914 0.0
C207 C 0.97304 0.4101 0.95209 0.0
C208 C 0.93971 0.33811 0.90168 0.0
C209 C 0.923 0.30571 0.87746 0.0
C210 C 0.95798 0.60257 0.92964 0.0
C211 C 0.97248 0.58347 0.95251 0.0
C212 C 0.93834 0.62153 0.90167 0.0
C213 C 0.91775 0.63199 0.87625 0.0
C214 C 0.37655 0.95969 0.42661 0.0
C215 C 0.41033 0.97514 0.44919 0.0
C216 C 0.33771 0.9394 0.39906 0.0
C217 C 0.30616 0.91838 0.37428 0.0
C218 C 0.43379 0.37418 0.92922 0.0
C219 C 0.45243 0.40859 0.95111 0.0
C220 C 0.41534 0.33517 0.90172 0.0
C221 C 0.40508 0.30411 0.87626 0.0
C222 C 0.08084 0.43813 0.42988 0.0
C223 C 0.06525 0.45611 0.45253 0.0
C224 C 0.09952 0.41812 0.40259 0.0
C225 C 0.11601 0.40238 0.37822 0.0
C226 C 0.66006 0.08175 0.92877 0.0
C227 C 0.62705 0.06614 0.95205 0.0
C228 C 0.69844 0.10032 0.90122 0.0
C229 C 0.73083 0.11679 0.87717 0.0
C230 C 0.60071 0.66216 0.42851 0.0
C231 C 0.58268 0.62836 0.45124 0.0
C232 C 0.6191 0.70083 0.4006 0.0
C233 C 0.62981 0.73202 0.37523 0.0
C234 C 0.44087 0.0879 0.6315 0.0
C235 C 0.46029 0.07442 0.60793 0.0
C236 C 0.42024 0.10507 0.66024 0.0
C237 C 0.40817 0.12409 0.68589 0.0
C238 C 0.3731 0.44565 0.13143 0.0
C239 C 0.40582 0.46359 0.10781 0.0
C240 C 0.33487 0.42441 0.15911 0.0
C241 C 0.30227 0.40717 0.1829 0.0
C242 C 0.94551 0.37017 0.62863 0.0
C243 C 0.9595 0.40308 0.60517 0.0
C244 C 0.92883 0.33203 0.65656 0.0
C245 C 0.91348 0.29983 0.681 0.0
C246 C 0.59627 0.94823 0.13145 0.0
C247 C 0.57668 0.96118 0.10751 0.0
C248 C 0.61692 0.93142 0.16054 0.0
C249 C 0.62901 0.91255 0.18633 0.0
C250 C 0.66704 0.59701 0.63133 0.0
C251 C 0.6343 0.57724 0.60773 0.0
C252 C 0.70466 0.61784 0.66012 0.0
C253 C 0.73557 0.62988 0.68585 0.0
C254 C 0.09187 0.66879 0.12898 0.0
C255 C 0.07877 0.63592 0.10541 0.0
C256 C 0.10866 0.70636 0.15795 0.0
C257 C 0.12711 0.73685 0.18424 0.0
loop_
_geom_bond_atom_site_label_1
_geom_bond_atom_site_label_2
_geom_bond_distance
_geom_bond_site_symmetry_2
_ccdc_geom_bond_type
C0 O2 1.247 . S
C0 O4 1.258 . S
C1 O8 1.247 1_655 S
C1 O9 1.258 . S
O2 C0 1.247 . S
O2 Zn3 2.028 1_455 S
Zn3 O2 2.028 1_655 S
Zn3 O7 2.035 1_554 S
Zn3 O9 2.035 1_554 S
Zn3 O10 2.028 1_655 S
O4 C0 1.258 . S
O4 Zn5 2.035 1_554 S
Zn5 O4 2.035 1_556 S
Zn5 O6 2.028 . S
Zn5 O8 2.028 . S
Zn5 O11 2.035 1_556 S
O6 Zn5 2.028 . S
O6 C12 1.247 1_455 S
O7 Zn3 2.035 1_556 S
O7 C12 1.258 . S
O8 C1 1.247 1_455 S
O8 Zn5 2.028 . S
O9 C1 1.258 . S
O9 Zn3 2.035 1_556 S
O10 Zn3 2.028 1_455 S
O10 C13 1.247 . S
O11 Zn5 2.035 1_554 S
O11 C13 1.258 . S
C12 O6 1.247 1_655 S
C12 O7 1.258 . S
C13 O10 1.247 . S
C13 O11 1.258 . S
C14 O16 1.247 . S
C14 O18 1.258 . S
C15 O22 1.247 1_565 S
C15 O23 1.258 . S
O16 C14 1.247 . S
O16 Zn17 2.028 1_545 S
Zn17 O16 2.028 1_565 S
Zn17 O21 2.035 . S
Zn17 O23 2.035 . S
Zn17 O24 2.028 1_565 S
O18 C14 1.258 . S
O18 Zn19 2.035 . S
Zn19 O18 2.035 . S
Zn19 O20 2.028 . S
Zn19 O22 2.028 . S
Zn19 O25 2.035 . S
O20 Zn19 2.028 . S
O20 C26 1.247 1_545 S
O21 Zn17 2.035 . S
O21 C26 1.258 . S
O22 C15 1.247 1_545 S
O22 Zn19 2.028 . S
O23 C15 1.258 . S
O23 Zn17 2.035 . S
O24 Zn17 2.028 1_545 S
O24 C27 1.247 . S
O25 Zn19 2.035 . S
O25 C27 1.258 . S
C26 O20 1.247 1_565 S
C26 O21 1.258 . S
C27 O24 1.247 . S
C27 O25 1.258 . S
C28 O30 1.247 . S
C28 O32 1.258 . S
C29 O36 1.247 . S
C29 O37 1.258 . S
O30 C28 1.247 . S
O30 Zn31 2.028 . S
Zn31 O30 2.028 . S
Zn31 O35 2.035 1_556 S
Zn31 O37 2.035 1_556 S
Zn31 O38 2.028 . S
O32 C28 1.258 . S
O32 Zn33 2.035 1_556 S
Zn33 O32 2.035 1_554 S
Zn33 O34 2.028 . S
Zn33 O36 2.028 . S
Zn33 O39 2.035 1_554 S
O34 Zn33 2.028 . S
O34 C40 1.247 . S
O35 Zn31 2.035 1_554 S
O35 C40 1.258 . S
O36 C29 1.247 . S
O36 Zn33 2.028 . S
O37 C29 1.258 . S
O37 Zn31 2.035 1_554 S
O38 Zn31 2.028 . S
O38 C41 1.247 . S
O39 Zn33 2.035 1_556 S
O39 C41 1.258 . S
C40 O34 1.247 . S
C40 O35 1.258 . S
C41 O38 1.247 . S
C41 O39 1.258 . S
C42 O44 1.247 . S
C42 O46 1.246 1_455 S
C43 O50 1.247 . S
C43 O51 1.258 1_655 S
O44 C42 1.247 . S
O44 Zn45 2.028 . S
Zn45 O44 2.028 . S
Zn45 O49 2.035 . S
Zn45 O51 2.035 . S
Zn45 O52 2.028 . S
O46 C42 1.246 1_655 S
O46 Zn47 2.038 . S
Zn47 O46 2.038 . S
Zn47 O48 2.028 . S
Zn47 O50 2.028 . S
Zn47 O53 2.050 . S
O48 Zn47 2.028 . S
O48 C54 1.247 . S
O49 Zn45 2.035 . S
O49 C54 1.258 1_455 S
O50 C43 1.247 . S
O50 Zn47 2.028 . S
O51 C43 1.258 1_455 S
O51 Zn45 2.035 . S
O52 Zn45 2.028 . S
O52 C55 1.247 . S
O53 Zn47 2.050 . S
O53 C55 1.241 1_655 S
C54 O48 1.247 . S
C54 O49 1.258 1_655 S
C55 O52 1.247 . S
C55 O53 1.241 1_455 S
C56 O58 1.247 1_565 S
C56 O60 1.258 . S
C57 O64 1.259 . S
C57 O65 1.258 . S
O58 C56 1.247 1_545 S
O58 Zn59 2.028 . S
Zn59 O58 2.028 . S
Zn59 O63 2.035 1_554 S
Zn59 O65 2.035 1_554 S
Zn59 O66 2.028 . S
O60 C56 1.258 . S
O60 Zn61 2.035 1_554 S
Zn61 O60 2.035 1_556 S
Zn61 O62 2.026 1_565 S
Zn61 O64 2.017 1_565 S
Zn61 O67 2.035 1_556 S
O62 Zn61 2.026 1_545 S
O62 C68 1.255 . S
O63 Zn59 2.035 1_556 S
O63 C68 1.258 . S
O64 C57 1.259 . S
O64 Zn61 2.017 1_545 S
O65 C57 1.258 . S
O65 Zn59 2.035 1_556 S
O66 Zn59 2.028 . S
O66 C69 1.247 1_545 S
O67 Zn61 2.035 1_554 S
O67 C69 1.258 . S
C68 O62 1.255 . S
C68 O63 1.258 . S
C69 O66 1.247 1_565 S
C69 O67 1.258 . S
C70 O72 1.247 . S
C70 O74 1.258 . S
C71 O78 1.247 . S
C71 O79 1.258 . S
O72 C70 1.247 . S
O72 Zn73 2.028 . S
Zn73 O72 2.028 . S
Zn73 O77 2.035 . S
Zn73 O79 2.035 . S
Zn73 O80 2.028 . S
O74 C70 1.258 . S
O74 Zn75 2.035 . S
Zn75 O74 2.035 . S
Zn75 O76 2.028 . S
Zn75 O78 2.028 . S
Zn75 O81 2.035 . S
O76 Zn75 2.028 . S
O76 C82 1.247 . S
O77 Zn73 2.035 . S
O77 C82 1.258 . S
O78 C71 1.247 . S
O78 Zn75 2.028 . S
O79 C71 1.258 . S
O79 Zn73 2.035 . S
O80 Zn73 2.028 . S
O80 C83 1.247 . S
O81 Zn75 2.035 . S
O81 C83 1.258 . S
C82 O76 1.247 . S
C82 O77 1.258 . S
C83 O80 1.247 . S
C83 O81 1.258 . S
Mg84 O91 2.141 . S
Mg84 O92 2.048 . S
Mg84 O93 2.048 . S
Mg84 O96 2.141 . S
C85 O86 1.313 . S
C85 O92 1.195 . S
O86 C85 1.313 . S
C87 O88 1.245 . S
C87 O96 1.289 . S
O88 C87 1.245 . S
C89 O90 1.245 . S
C89 O91 1.289 . S
O90 C89 1.245 . S
O91 Mg84 2.141 . S
O91 C89 1.289 . S
O92 Mg84 2.048 . S
O92 C85 1.195 . S
O93 Mg84 2.048 . S
O93 C94 1.195 . S
C94 O93 1.195 . S
C94 O95 1.313 . S
O95 C94 1.313 . S
O96 Mg84 2.141 . S
O96 C87 1.289 . S
Mg97 O104 2.141 . S
Mg97 O105 2.048 . S
Mg97 O106 2.048 . S
Mg97 O109 2.141 . S
C98 O99 1.313 . S
C98 O105 1.195 . S
O99 C98 1.313 . S
C100 O101 1.245 . S
C100 O109 1.289 . S
O101 C100 1.245 . S
C102 O103 1.245 . S
C102 O104 1.289 . S
O103 C102 1.245 . S
O104 Mg97 2.141 . S
O104 C102 1.289 . S
O105 Mg97 2.048 . S
O105 C98 1.195 . S
O106 Mg97 2.048 . S
O106 C107 1.195 . S
C107 O106 1.195 . S
C107 O108 1.313 . S
O108 C107 1.313 . S
O109 Mg97 2.141 . S
O109 C100 1.289 . S
Mg110 O117 2.141 . S
Mg110 O118 2.048 . S
Mg110 O119 2.048 . S
Mg110 O122 2.141 . S
C111 O112 1.313 . S
C111 O118 1.195 . S
O112 C111 1.313 . S
C113 O114 1.245 . S
C113 O122 1.289 . S
O114 C113 1.245 . S
C115 O116 1.245 . S
C115 O117 1.289 . S
O116 C115 1.245 . S
O117 Mg110 2.141 . S
O117 C115 1.289 . S
O118 Mg110 2.048 . S
O118 C111 1.195 . S
O119 Mg110 2.048 . S
O119 C120 1.195 . S
C120 O119 1.195 . S
C120 O121 1.313 . S
O121 C120 1.313 . S
O122 Mg110 2.141 . S
O122 C113 1.289 . S
Mg123 O130 2.141 . S
Mg123 O131 2.048 . S
Mg123 O132 2.048 . S
Mg123 O135 2.141 . S
C124 O125 1.313 . S
C124 O131 1.195 . S
O125 C124 1.313 . S
C126 O127 1.245 . S
C126 O135 1.289 . S
O127 C126 1.245 . S
C128 O129 1.245 . S
C128 O130 1.289 . S
O129 C128 1.245 . S
O130 Mg123 2.141 . S
O130 C128 1.289 . S
O131 Mg123 2.048 . S
O131 C124 1.195 . S
O132 Mg123 2.048 . S
O132 C133 1.195 . S
C133 O132 1.195 . S
C133 O134 1.313 . S
O134 C133 1.313 . S
O135 Mg123 2.141 . S
O135 C126 1.289 . S
Mg136 O143 2.141 . S
Mg136 O144 2.048 . S
Mg136 O145 2.048 . S
Mg136 O148 2.141 . S
C137 O138 1.313 . S
C137 O144 1.195 . S
O138 C137 1.313 . S
C139 O140 1.245 . S
C139 O148 1.289 . S
O140 C139 1.245 . S
C141 O142 1.245 . S
C141 O143 1.289 . S
O142 C141 1.245 . S
O143 Mg136 2.141 . S
O143 C141 1.289 . S
O144 Mg136 2.048 . S
O144 C137 1.195 . S
O145 Mg136 2.048 . S
O145 C146 1.195 . S
C146 O145 1.195 . S
C146 O147 1.313 . S
O147 C146 1.313 . S
O148 Mg136 2.141 . S
O148 C139 1.289 . S
Mg149 O156 2.141 . S
Mg149 O157 2.048 . S
Mg149 O158 2.048 . S
Mg149 O161 2.141 . S
C150 O151 1.313 . S
C150 O157 1.195 . S
O151 C150 1.313 . S
C152 O153 1.245 . S
C152 O161 1.289 . S
O153 C152 1.245 . S
C154 O155 1.245 . S
C154 O156 1.289 . S
O155 C154 1.245 . S
O156 Mg149 2.141 . S
O156 C154 1.289 . S
O157 Mg149 2.048 . S
O157 C150 1.195 . S
O158 Mg149 2.048 . S
O158 C159 1.195 . S
C159 O158 1.195 . S
C159 O160 1.313 . S
O160 C159 1.313 . S
O161 Mg149 2.141 . S
O161 C152 1.289 . S
C162 C163 1.170 . S
C162 C164 1.380 . S
C163 C162 1.170 . S
C164 C162 1.380 . S
C164 C165 1.170 . S
C165 C164 1.170 . S
C166 C167 1.170 . S
C166 C168 1.380 . S
C167 C166 1.170 . S
C168 C166 1.380 . S
C168 C169 1.170 . S
C169 C168 1.170 . S
C170 C171 1.170 . S
C170 C172 1.380 . S
C171 C170 1.170 . S
C172 C170 1.380 . S
C172 C173 1.170 . S
C173 C172 1.170 . S
C174 C175 1.170 . S
C174 C176 1.380 . S
C175 C174 1.170 . S
C176 C174 1.380 . S
C176 C177 1.170 . S
C177 C176 1.170 . S
C178 C179 1.170 . S
C178 C180 1.380 . S
C179 C178 1.170 . S
C180 C178 1.380 . S
C180 C181 1.170 . S
C181 C180 1.170 . S
C182 C183 1.170 . S
C182 C184 1.380 . S
C183 C182 1.170 . S
C184 C182 1.380 . S
C184 C185 1.170 . S
C185 C184 1.170 . S
C186 C187 1.170 . S
C186 C188 1.380 . S
C187 C186 1.170 . S
C188 C186 1.380 . S
C188 C189 1.170 . S
C189 C188 1.170 . S
C190 C191 1.170 . S
C190 C192 1.380 . S
C191 C190 1.170 . S
C192 C190 1.380 . S
C192 C193 1.170 . S
C193 C192 1.170 . S
C194 C195 1.170 . S
C194 C196 1.380 . S
C195 C194 1.170 . S
C196 C194 1.380 . S
C196 C197 1.170 . S
C197 C196 1.170 . S
C198 C199 1.170 . S
C198 C200 1.380 . S
C199 C198 1.170 . S
C200 C198 1.380 . S
C200 C201 1.170 . S
C201 C200 1.170 . S
C202 C203 1.170 . S
C202 C204 1.380 . S
C203 C202 1.170 . S
C204 C202 1.380 . S
C204 C205 1.170 . S
C205 C204 1.170 . S
C206 C207 1.170 . S
C206 C208 1.380 . S
C207 C206 1.170 . S
C208 C206 1.380 . S
C208 C209 1.170 . S
C209 C208 1.170 . S
C210 C211 1.170 . S
C210 C212 1.380 . S
C211 C210 1.170 . S
C212 C210 1.380 . S
C212 C213 1.170 . S
C213 C212 1.170 . S
C214 C215 1.170 . S
C214 C216 1.380 . S
C215 C214 1.170 . S
C216 C214 1.380 . S
C216 C217 1.170 . S
C217 C216 1.170 . S
C218 C219 1.170 . S
C218 C220 1.380 . S
C219 C218 1.170 . S
C220 C218 1.380 . S
C220 C221 1.170 . S
C221 C220 1.170 . S
C222 C223 1.170 . S
C222 C224 1.380 . S
C223 C222 1.170 . S
C224 C222 1.380 . S
C224 C225 1.170 . S
C225 C224 1.170 . S
C226 C227 1.170 . S
C226 C228 1.380 . S
C227 C226 1.170 . S
C228 C226 1.380 . S
C228 C229 1.170 . S
C229 C228 1.170 . S
C230 C231 1.170 . S
C230 C232 1.380 . S
C231 C230 1.170 . S
C232 C230 1.380 . S
C232 C233 1.170 . S
C233 C232 1.170 . S
C234 C235 1.170 . S
C234 C236 1.380 . S
C235 C234 1.170 . S
C236 C234 1.380 . S
C236 C237 1.170 . S
C237 C236 1.170 . S
C238 C239 1.170 . S
C238 C240 1.380 . S
C239 C238 1.170 . S
C240 C238 1.380 . S
C240 C241 1.170 . S
C241 C240 1.170 . S
C242 C243 1.170 . S
C242 C244 1.380 . S
C243 C242 1.170 . S
C244 C242 1.380 . S
C244 C245 1.170 . S
C245 C244 1.170 . S
C246 C247 1.170 . S
C246 C248 1.380 . S
C247 C246 1.170 . S
C248 C246 1.380 . S
C248 C249 1.170 . S
C249 C248 1.170 . S
C250 C251 1.170 . S
C250 C252 1.380 . S
C251 C250 1.170 . S
C252 C250 1.380 . S
C252 C253 1.170 . S
C253 C252 1.170 . S
C254 C255 1.170 . S
C254 C256 1.380 . S
C255 C254 1.170 . S
C256 C254 1.380 . S
C256 C257 1.170 . S
C257 C256 1.170 . S
C163 C13 1.676 . S
C165 C85 1.682 . S
C167 C27 1.676 . S
C169 C98 1.682 . S
C173 C120 1.574 . S
C171 C29 1.690 . S
C177 C133 1.575 . S
C175 C54 1.688 . S
C181 C146 1.574 . S
C179 C69 1.689 . S
C185 C159 1.619 . S
C183 C83 1.676 . S
C187 C15 1.679 . S
C189 C115 1.574 . S
C191 C41 1.680 . S
C193 C128 1.567 . S
C197 C141 1.562 . S
C195 C42 1.677 . S
C201 C154 1.551 . S
C199 C57 1.683 . S
C203 C71 1.682 . S
C205 C87 1.664 . S
C209 C100 1.680 . S
C207 C1 1.670 . S
C213 C126 1.579 . S
C211 C12 1.670 . S
C215 C26 1.679 . S
C217 C139 1.583 . S
C221 C152 1.591 . S
C219 C28 1.669 . S
C223 C55 1.670 . S
C225 C89 1.674 . S
C227 C68 1.680 . S
C229 C102 1.662 . S
C231 C82 1.680 . S
C233 C113 1.550 . S
C235 C14 1.683 . S
C237 C150 1.610 . S
C241 C94 1.674 . S
C239 C40 1.686 . S
C243 C43 1.676 . S
C245 C107 1.677 . S
C247 C56 1.688 . S
C249 C111 1.596 . S
C251 C70 1.682 . S
C253 C124 1.612 . S
C255 C0 1.683 . S
C257 C137 1.582 . S
