# Generated by pormake.
# Topology anh, (6,3)-cn, num edge types: 1
# Building blocks:
#     Node 0, Type 0, BuildingBlock: CUKXOW_clean_sbu_0, # of connection points: 6
#     Node 1, Type 0, BuildingBlock: CUKXOW_clean_sbu_0, # of connection points: 6
#     Node 2, Type 0, BuildingBlock: CUKXOW_clean_sbu_0, # of connection points: 6
#     Node 3, Type 1, BuildingBlock: OLANEW_clean_sbu_2, # of connection points: 3
#     Node 4, Type 1, BuildingBlock: OLANEW_clean_sbu_2, # of connection points: 3
#     Node 5, Type 1, BuildingBlock: OLANEW_clean_sbu_2, # of connection points: 3
#     Node 6, Type 1, BuildingBlock: OLANEW_clean_sbu_2, # of connection points: 3
#     Node 7, Type 1, BuildingBlock: OLANEW_clean_sbu_2, # of connection points: 3
#     Node 8, Type 1, BuildingBlock: OLANEW_clean_sbu_2, # of connection points: 3
#     Edge 9, Type (0, 1), BuildingBlock: EZIPEK_clean_linker_0, # of connection points: 2
#     Edge 10, Type (0, 1), BuildingBlock: EZIPEK_clean_linker_0, # of connection points: 2
#     Edge 11, Type (0, 1), BuildingBlock: EZIPEK_clean_linker_0, # of connection points: 2
#     Edge 12, Type (0, 1), BuildingBlock: EZIPEK_clean_linker_0, # of connection points: 2
#     Edge 13, Type (0, 1), BuildingBlock: EZIPEK_clean_linker_0, # of connection points: 2
#     Edge 14, Type (0, 1), BuildingBlock: EZIPEK_clean_linker_0, # of connection points: 2
#     Edge 15, Type (0, 1), BuildingBlock: EZIPEK_clean_linker_0, # of connection points: 2
#     Edge 16, Type (0, 1), BuildingBlock: EZIPEK_clean_linker_0, # of connection points: 2
#     Edge 17, Type (0, 1), BuildingBlock: EZIPEK_clean_linker_0, # of connection points: 2
#     Edge 18, Type (0, 1), BuildingBlock: EZIPEK_clean_linker_0, # of connection points: 2
#     Edge 19, Type (0, 1), BuildingBlock: EZIPEK_clean_linker_0, # of connection points: 2
#     Edge 20, Type (0, 1), BuildingBlock: EZIPEK_clean_linker_0, # of connection points: 2
#     Edge 21, Type (0, 1), BuildingBlock: EZIPEK_clean_linker_0, # of connection points: 2
#     Edge 22, Type (0, 1), BuildingBlock: EZIPEK_clean_linker_0, # of connection points: 2
#     Edge 23, Type (0, 1), BuildingBlock: EZIPEK_clean_linker_0, # of connection points: 2
#     Edge 24, Type (0, 1), BuildingBlock: EZIPEK_clean_linker_0, # of connection points: 2
#     Edge 25, Type (0, 1), BuildingBlock: EZIPEK_clean_linker_0, # of connection points: 2
#     Edge 26, Type (0, 1), BuildingBlock: EZIPEK_clean_linker_0, # of connection points: 2
# Relax obj value: 0.085
# Max RMSD: 0.151
# Mean RMSD: 0.111
data_MOF--net-anh--node1-CUKXOW_clean_sbu_0--node2-OLANEW_clean_sbu_2--edge1-EZIPEK_clean_linker_0
_symmetry_space_group_name_H-M    P1
_symmetry_Int_Tables_number       1
_symmetry_cell_setting            triclinic
loop_
_symmetry_equiv_pos_as_xyz
'x, y, z'
_cell_length_a     25.013877
_cell_length_b     23.696497
_cell_length_c     36.266237
_cell_angle_alpha  95.10133
_cell_angle_beta   90.214192
_cell_angle_gamma 115.10895
loop_
_atom_site_label
_atom_site_type_symbol
_atom_site_fract_x
_atom_site_fract_y
_atom_site_fract_z
_atom_type_partial_charge
Tb0 Tb 0.0972 0.60359 0.16434 0.0
C1 C 0.03643 0.51148 0.22415 0.0
Tb2 Tb 0.99062 0.47775 0.13813 0.0
O3 O 0.03864 0.64099 0.19177 0.0
O4 O 0.0086 0.57258 0.14701 0.0
O5 O 0.07931 0.56584 0.21732 0.0
C6 C 0.87949 0.39189 0.1369 0.0
O7 O -0.00042 0.47041 0.19781 0.0
C8 C 0.09491 0.48079 0.12865 0.0
C9 C 0.04982 0.57433 0.08008 0.0
O10 O 0.89971 0.4475 0.15431 0.0
O11 O 0.92159 0.38448 0.11915 0.0
O12 O 0.04832 0.44241 0.10836 0.0
O13 O 0.07952 0.50811 0.15502 0.0
O14 O -0.00044 0.52833 0.08911 0.0
O15 O 0.09606 0.60376 0.10393 0.0
C16 C 0.20881 0.6866 0.1761 0.0
O17 O 0.16455 0.70047 0.17052 0.0
O18 O 0.19021 0.62642 0.17517 0.0
C19 C 0.99218 0.60107 0.17198 0.0
Tb20 Tb 0.44991 0.95615 0.48879 0.0
C21 C 0.51574 0.01206 0.41888 0.0
Tb22 Tb 0.57943 0.05659 0.49953 0.0
O23 O 0.41938 0.02698 0.47611 0.0
O24 O 0.49466 0.05115 0.51021 0.0
O25 O 0.47446 0.96112 0.43114 0.0
C26 C 0.67466 0.16501 0.49882 0.0
O27 O 0.5562 0.05757 0.44139 0.0
C28 C 0.56616 0.94072 0.49675 0.0
C29 C 0.51259 0.99903 0.57041 0.0
O30 O 0.62431 0.1586 0.51184 0.0
O31 O 0.67171 0.11034 0.48716 0.0
O32 O 0.61319 0.98843 0.51105 0.0
O33 O 0.53487 0.96127 0.47978 0.0
O34 O 0.56174 0.04168 0.55765 0.0
O35 O 0.46474 0.96339 0.54887 0.0
C36 C 0.35597 0.84595 0.48737 0.0
O37 O 0.35495 0.89755 0.47873 0.0
O38 O 0.40963 0.85653 0.49691 0.0
C39 C 0.46484 0.07305 0.49327 0.0
Tb40 Tb 0.46698 0.50932 0.8555 0.0
C41 C 0.53053 0.49713 0.92759 0.0
Tb42 Tb 0.58314 0.49234 0.84763 0.0
O43 O 0.41549 0.41023 0.86306 0.0
O44 O 0.49242 0.43947 0.83357 0.0
O45 O 0.49193 0.51592 0.91407 0.0
C46 C 0.66276 0.44546 0.84696 0.0
O47 O 0.56752 0.48275 0.90671 0.0
C48 C 0.59593 0.60827 0.85408 0.0
C49 C 0.51731 0.50226 0.77508 0.0
O50 O 0.67239 0.50117 0.83912 0.0
O51 O 0.60773 0.41518 0.85453 0.0
O52 O 0.63602 0.59175 0.84112 0.0
O53 O 0.55755 0.56217 0.86808 0.0
O54 O 0.55839 0.48706 0.78895 0.0
O55 O 0.4783 0.51317 0.79581 0.0
C56 C 0.39626 0.56709 0.85543 0.0
O57 O 0.38062 0.51017 0.86383 0.0
O58 O 0.4511 0.59077 0.84688 0.0
C59 C 0.45466 0.39381 0.84811 0.0
O60 O 0.53732 0.14074 0.26882 0.0
Cd61 Cd 0.53523 0.17385 0.20686 0.0
O62 O 0.55567 0.06377 0.24328 0.0
Cd63 Cd 0.5518 0.97094 0.246 0.0
O64 O 0.47641 0.88057 0.23644 0.0
C65 C 0.44994 0.86953 0.20487 0.0
O66 O 0.47257 0.90901 0.17985 0.0
C67 C 0.54486 0.09158 0.27182 0.0
C68 C 0.6458 0.23575 0.17839 0.0
O69 O 0.62143 0.26623 0.19708 0.0
O70 O 0.61821 0.17593 0.17318 0.0
O71 O 0.53682 0.48265 0.59609 0.0
Cd72 Cd 0.53395 0.46145 0.52899 0.0
O73 O 0.47946 0.53264 0.60036 0.0
Cd74 Cd 0.48482 0.55969 0.54366 0.0
O75 O 0.50548 0.64256 0.51344 0.0
C76 C 0.48796 0.68228 0.52796 0.0
O77 O 0.45768 0.67008 0.55805 0.0
C78 C 0.50803 0.50663 0.61547 0.0
C79 C 0.51036 0.33521 0.51439 0.0
O80 O 0.56367 0.37738 0.51856 0.0
O81 O 0.4682 0.35235 0.51608 0.0
O82 O 0.15091 0.73307 0.94307 0.0
Cd83 Cd 0.19418 0.77694 0.88654 0.0
O84 O 0.08356 0.65408 0.90859 0.0
Cd85 Cd 0.00393 0.56618 0.9017 0.0
O86 O 0.91004 0.50896 0.89007 0.0
C87 C 0.88721 0.45672 0.87029 0.0
O88 O 0.92078 0.43071 0.85644 0.0
C89 C 0.10668 0.67997 0.94044 0.0
C90 C 0.26191 0.7136 0.86716 0.0
O91 O 0.28391 0.76535 0.88805 0.0
O92 O 0.2089 0.69331 0.8537 0.0
O93 O 0.05201 0.45944 0.39821 0.0
Cd94 Cd 0.07037 0.47921 0.46526 0.0
O95 O 0.00057 0.5154 0.39949 0.0
Cd96 Cd 0.97998 0.49959 0.45707 0.0
O97 O 0.91442 0.42375 0.48464 0.0
C98 C 0.86368 0.40013 0.46816 0.0
O99 O 0.85515 0.42526 0.43912 0.0
C100 C 0.02692 0.48712 0.38135 0.0
C101 C 0.16085 0.59957 0.47815 0.0
O102 O 0.17248 0.55187 0.4728 0.0
O103 O 0.10663 0.59057 0.47888 0.0
O104 O 0.52157 0.9192 0.73744 0.0
Cd105 Cd 0.51227 0.90731 0.80377 0.0
O106 O 0.48982 0.99101 0.7506 0.0
Cd107 Cd 0.46421 0.06447 0.73855 0.0
O108 O 0.45513 0.14965 0.75648 0.0
C109 C 0.43861 0.15353 0.7893 0.0
O110 O 0.42529 0.10595 0.80913 0.0
C111 C 0.50682 0.96039 0.72674 0.0
C112 C 0.54746 0.8179 0.82433 0.0
O113 O 0.49418 0.80227 0.81267 0.0
O114 O 0.58413 0.87581 0.82669 0.0
O115 O 0.59928 0.46608 0.09422 0.0
Cd116 Cd 0.61887 0.46099 0.15986 0.0
O117 O 0.52553 0.48884 0.10917 0.0
Cd118 Cd 0.4483 0.50614 0.09791 0.0
O119 O 0.35654 0.49303 0.09854 0.0
C120 C 0.34131 0.53045 0.11815 0.0
O121 O 0.38164 0.57979 0.13751 0.0
C122 C 0.55774 0.47977 0.08448 0.0
C123 C 0.74041 0.51568 0.1738 0.0
O124 O 0.71231 0.45668 0.16476 0.0
O125 O 0.71115 0.54883 0.17742 0.0
C126 C 0.18578 0.50801 0.09097 0.0
C127 C 0.15629 0.48752 0.12401 0.0
C128 C 0.24871 0.49758 0.15349 0.0
C129 C 0.27794 0.51669 0.12026 0.0
N130 N 0.27414 0.53342 0.05586 0.0
N131 N 0.15526 0.44593 0.18228 0.0
C132 C 0.24629 0.5196 0.08847 0.0
C133 C 0.1866 0.47782 0.15412 0.0
N134 N 0.15658 0.51867 0.06248 0.0
N135 N 0.28021 0.4982 0.18454 0.0
H136 H 0.10936 0.42849 0.18289 0.0
H137 H 0.17372 0.43133 0.20314 0.0
H138 H 0.32504 0.50831 0.18479 0.0
H139 H 0.26274 0.4926 0.2107 0.0
H140 H 0.17702 0.54197 0.03987 0.0
H141 H 0.11154 0.50632 0.0622 0.0
H142 H 0.25224 0.52872 0.03052 0.0
H143 H 0.31934 0.54672 0.05356 0.0
C144 C 0.7448 0.23383 0.45552 0.0
C145 C 0.72365 0.22535 0.49181 0.0
C146 C 0.79264 0.33363 0.51276 0.0
C147 C 0.81751 0.33951 0.47741 0.0
N148 N 0.82675 0.28994 0.41816 0.0
N149 N 0.73306 0.26349 0.55654 0.0
C150 C 0.79641 0.28802 0.44968 0.0
C151 C 0.74906 0.27428 0.52094 0.0
N152 N 0.71387 0.19207 0.4261 0.0
N153 N 0.80899 0.38512 0.53798 0.0
H154 H 0.70169 0.22053 0.56361 0.0
H155 H 0.75442 0.29523 0.57942 0.0
H156 H 0.84084 0.42922 0.53298 0.0
H157 H 0.78773 0.38529 0.5626 0.0
H158 H 0.72437 0.19968 0.39865 0.0
H159 H 0.67384 0.15342 0.42852 0.0
H160 H 0.81651 0.25114 0.39884 0.0
H161 H 0.86595 0.32807 0.41322 0.0
C162 C 0.5639 0.69247 0.87535 0.0
C163 C 0.59122 0.66759 0.84831 0.0
C164 C 0.60351 0.75321 0.81055 0.0
C165 C 0.56626 0.76965 0.83413 0.0
N166 N 0.5063 0.7517 0.88763 0.0
N167 N 0.631 0.67146 0.78685 0.0
C168 C 0.54499 0.73828 0.86613 0.0
C169 C 0.61056 0.69778 0.81528 0.0
N170 N 0.5578 0.67404 0.91033 0.0
N171 N 0.63086 0.78942 0.78289 0.0
H172 H 0.63178 0.62798 0.78632 0.0
H173 H 0.64005 0.68874 0.76107 0.0
H174 H 0.62377 0.82792 0.77675 0.0
H175 H 0.6644 0.78445 0.768 0.0
H176 H 0.54262 0.69452 0.93195 0.0
H177 H 0.57448 0.64367 0.91894 0.0
H178 H 0.48352 0.72449 0.90841 0.0
H179 H 0.49385 0.7874 0.88307 0.0
C180 C 0.90109 0.57875 0.2089 0.0
C181 C 0.92996 0.59291 0.175 0.0
C182 C 0.83491 0.56865 0.14267 0.0
C183 C 0.80566 0.54582 0.17522 0.0
N184 N 0.80856 0.52631 0.23899 0.0
N185 N 0.92612 0.60829 0.11039 0.0
C186 C 0.83812 0.55071 0.20839 0.0
C187 C 0.89724 0.59019 0.14216 0.0
N188 N 0.93354 0.59212 0.24152 0.0
N189 N 0.80294 0.57044 0.1124 0.0
H190 H 0.97178 0.63291 0.11035 0.0
H191 H 0.9055 0.59872 0.08415 0.0
H192 H 0.757 0.5533 0.11133 0.0
H193 H 0.82157 0.59218 0.08898 0.0
H194 H 0.91534 0.58915 0.26744 0.0
H195 H 0.97943 0.61066 0.24317 0.0
H196 H 0.829 0.52146 0.26278 0.0
H197 H 0.76259 0.50716 0.2398 0.0
C198 C 0.26888 0.75911 0.45233 0.0
C199 C 0.30451 0.78399 0.48558 0.0
C200 C 0.24747 0.68651 0.51354 0.0
C201 C 0.20907 0.66377 0.48138 0.0
N202 N 0.1776 0.68116 0.42208 0.0
N203 N 0.32168 0.77663 0.55014 0.0
C204 C 0.21782 0.70116 0.45149 0.0
C205 C 0.29235 0.74903 0.51682 0.0
N206 N 0.28586 0.7887 0.42081 0.0
N207 N 0.24112 0.64831 0.54092 0.0
H208 H 0.3534 0.82296 0.55401 0.0
H209 H 0.31083 0.75588 0.57482 0.0
H210 H 0.20666 0.60362 0.54057 0.0
H211 H 0.27203 0.65928 0.56282 0.0
H212 H 0.26547 0.76925 0.39477 0.0
H213 H 0.32398 0.8301 0.41974 0.0
H214 H 0.17776 0.70957 0.40173 0.0
H215 H 0.14133 0.63754 0.41923 0.0
C216 C 0.4719 0.29935 0.85528 0.0
C217 C 0.44326 0.32862 0.83582 0.0
C218 C 0.40308 0.23777 0.78927 0.0
C219 C 0.43853 0.21269 0.80598 0.0
N220 N 0.51449 0.22473 0.85149 0.0
N221 N 0.38477 0.32909 0.78287 0.0
C222 C 0.47474 0.24453 0.83828 0.0
C223 C 0.40942 0.29867 0.80247 0.0
N224 N 0.49581 0.32358 0.89021 0.0
N225 N 0.36209 0.2026 0.76163 0.0
H226 H 0.38666 0.37283 0.79226 0.0
H227 H 0.36602 0.31306 0.75613 0.0
H228 H 0.35568 0.15743 0.75161 0.0
H229 H 0.33085 0.21574 0.75092 0.0
H230 H 0.51242 0.30099 0.90722 0.0
H231 H 0.49367 0.36332 0.90351 0.0
H232 H 0.54651 0.25034 0.87239 0.0
H233 H 0.51956 0.18589 0.83926 0.0
C234 C 0.5684 0.85868 0.53669 0.0
C235 C 0.54983 0.87385 0.50309 0.0
C236 C 0.49097 0.76136 0.48475 0.0
C237 C 0.51274 0.747 0.51701 0.0
N238 N 0.5849 0.78095 0.56794 0.0
N239 N 0.508 0.83721 0.44051 0.0
C240 C 0.55578 0.7954 0.54097 0.0
C241 C 0.51528 0.82448 0.4757 0.0
N242 N 0.59382 0.90313 0.56602 0.0
N243 N 0.44626 0.71513 0.46317 0.0
H244 H 0.52909 0.88186 0.43178 0.0
H245 H 0.48711 0.80243 0.41886 0.0
H246 H 0.42865 0.66825 0.46849 0.0
H247 H 0.42391 0.72415 0.4418 0.0
H248 H 0.60205 0.89234 0.59205 0.0
H249 H 0.59922 0.9491 0.56676 0.0
H250 H 0.62139 0.81454 0.58354 0.0
H251 H 0.57668 0.735 0.57204 0.0
C252 C 0.74546 0.42876 0.81873 0.0
C253 C 0.70985 0.42383 0.84957 0.0
C254 C 0.78292 0.41068 0.88861 0.0
C255 C 0.82342 0.43009 0.86013 0.0
N256 N 0.84388 0.45481 0.7971 0.0
N257 N 0.69157 0.40577 0.91377 0.0
C258 C 0.80448 0.43666 0.82451 0.0
C259 C 0.72682 0.41167 0.88431 0.0
N260 N 0.72252 0.4263 0.78405 0.0
N261 N 0.79883 0.39213 0.91983 0.0
H262 H 0.64947 0.40428 0.91154 0.0
H263 H 0.70489 0.40497 0.94087 0.0
H264 H 0.83987 0.39108 0.92321 0.0
H265 H 0.76994 0.37246 0.94053 0.0
H266 H 0.74425 0.42444 0.75986 0.0
H267 H 0.67898 0.41985 0.77941 0.0
H268 H 0.83477 0.46812 0.7721 0.0
H269 H 0.88708 0.4595 0.8 0.0
C270 C 0.28459 0.78014 0.21365 0.0
C271 C 0.27083 0.73224 0.18403 0.0
C272 C 0.37611 0.76875 0.17209 0.0
C273 C 0.38886 0.8206 0.19887 0.0
N274 N 0.3546 0.88203 0.24081 0.0
N275 N 0.30185 0.68479 0.13171 0.0
C276 C 0.34297 0.82804 0.21856 0.0
C277 C 0.31617 0.72722 0.16242 0.0
N278 N 0.24261 0.77841 0.23816 0.0
N279 N 0.42135 0.75862 0.15651 0.0
H280 H 0.25843 0.65454 0.12315 0.0
H281 H 0.33246 0.68303 0.11282 0.0
H282 H 0.46573 0.78851 0.16287 0.0
H283 H 0.41519 0.71812 0.13975 0.0
H284 H 0.252 0.80831 0.26254 0.0
H285 H 0.19958 0.74316 0.23622 0.0
H286 H 0.32168 0.89292 0.2524 0.0
H287 H 0.39672 0.91866 0.24511 0.0
C288 C 0.47839 0.17338 0.46716 0.0
C289 C 0.47357 0.13952 0.49841 0.0
C290 C 0.4961 0.23522 0.53994 0.0
C291 C 0.49765 0.26799 0.50879 0.0
N292 N 0.4815 0.26716 0.44321 0.0
N293 N 0.46235 0.13444 0.56424 0.0
C294 C 0.48598 0.23663 0.47252 0.0
C295 C 0.47838 0.16944 0.53478 0.0
N296 N 0.47822 0.146 0.43239 0.0
N297 N 0.51193 0.26701 0.57449 0.0
H298 H 0.44626 0.08577 0.56146 0.0
H299 H 0.45911 0.15268 0.5909 0.0
H300 H 0.52293 0.31476 0.57963 0.0
H301 H 0.51841 0.24708 0.59759 0.0
H302 H 0.48888 0.17018 0.40891 0.0
H303 H 0.47141 0.0996 0.42733 0.0
H304 H 0.46631 0.24495 0.41669 0.0
H305 H 0.48897 0.31415 0.44592 0.0
C306 C 0.32787 0.60321 0.88982 0.0
C307 C 0.3592 0.60186 0.85744 0.0
C308 C 0.32958 0.67747 0.83209 0.0
C309 C 0.29421 0.67419 0.8629 0.0
N310 N 0.25058 0.62591 0.9178 0.0
N311 N 0.3815 0.62862 0.79478 0.0
C312 C 0.29037 0.63435 0.89068 0.0
C313 C 0.35792 0.63664 0.82772 0.0
N314 N 0.33686 0.57861 0.92072 0.0
N315 N 0.33684 0.72028 0.80742 0.0
H316 H 0.40053 0.59727 0.7899 0.0
H317 H 0.37713 0.64831 0.77106 0.0
H318 H 0.31531 0.74965 0.80935 0.0
H319 H 0.36736 0.7299 0.78674 0.0
H320 H 0.31996 0.58439 0.94626 0.0
H321 H 0.36617 0.55807 0.9222 0.0
H322 H 0.24105 0.59189 0.9362 0.0
H323 H 0.22332 0.64923 0.92004 0.0
C324 C 0.77031 0.35329 0.12776 0.0
C325 C 0.819 0.34358 0.14076 0.0
C326 C 0.75354 0.25983 0.17641 0.0
C327 C 0.7047 0.26929 0.16331 0.0
N328 N 0.66368 0.31435 0.12056 0.0
N329 N 0.85655 0.28013 0.1709 0.0
C330 C 0.71224 0.31288 0.13712 0.0
C331 C 0.81033 0.29396 0.16267 0.0
N332 N 0.77993 0.40184 0.10695 0.0
N333 N 0.74646 0.22146 0.20383 0.0
H334 H 0.89933 0.30554 0.16264 0.0
H335 H 0.85172 0.24035 0.18328 0.0
H336 H 0.7058 0.19599 0.21496 0.0
H337 H 0.78146 0.21843 0.21777 0.0
H338 H 0.74754 0.41613 0.09993 0.0
H339 H 0.82147 0.42988 0.09773 0.0
H340 H 0.66563 0.34093 0.09883 0.0
H341 H 0.62054 0.28477 0.12647 0.0
C342 C 0.0519 0.55867 0.01059 0.0
C343 C 0.05419 0.59786 0.0431 0.0
C344 C 0.07348 0.68457 0.00516 0.0
C345 C 0.08292 0.64916 0.97444 0.0
N346 N 0.09145 0.55487 0.95028 0.0
N347 N 0.07336 0.70159 0.07169 0.0
C348 C 0.07423 0.5865 0.97752 0.0
C349 C 0.0667 0.66183 0.04052 0.0
N350 N 0.02958 0.49522 0.01111 0.0
N351 N 0.06919 0.73909 1.00037 0.0
H352 H 0.067 0.68745 0.09831 0.0
H353 H 0.08952 0.74994 0.07132 0.0
H354 H 0.07151 0.75586 0.9745 0.0
H355 H 0.05665 0.76372 0.02116 0.0
H356 H 0.02173 0.46465 0.98711 0.0
H357 H 0.014 0.47259 0.03478 0.0
H358 H 0.09216 0.51185 0.95327 0.0
H359 H 0.1107 0.57398 0.92625 0.0
C360 C 0.57438 0.03694 0.36217 0.0
C361 C 0.51889 0.0199 0.37856 0.0
C362 C 0.47774 0.03655 0.32105 0.0
C363 C 0.53548 0.06361 0.30755 0.0
N364 N 0.63998 0.09336 0.31574 0.0
N365 N 0.41713 0.00533 0.374 0.0
C366 C 0.58411 0.06429 0.32806 0.0
C367 C 0.47002 0.01915 0.35793 0.0
N368 N 0.61726 0.02526 0.37885 0.0
N369 N 0.43014 0.0264 0.29832 0.0
H370 H 0.40858 0.99122 0.40053 0.0
H371 H 0.38273 0.01224 0.36208 0.0
H372 H 0.43421 0.03886 0.27124 0.0
H373 H 0.38652 0.00049 0.30492 0.0
H374 H 0.65676 0.03134 0.36673 0.0
H375 H 0.61067 0.00313 0.40317 0.0
H376 H 0.67792 0.10204 0.33164 0.0
H377 H 0.64882 0.11316 0.29062 0.0
C378 C 0.50098 0.44699 0.71051 0.0
C379 C 0.51147 0.50214 0.73424 0.0
C380 C 0.52303 0.5606 0.68007 0.0
C381 C 0.50826 0.50471 0.65631 0.0
N382 N 0.46961 0.3919 0.64911 0.0
N383 N 0.51621 0.60695 0.74075 0.0
C384 C 0.49366 0.44704 0.67155 0.0
C385 C 0.51704 0.55739 0.7188 0.0
N386 N 0.4969 0.39408 0.72504 0.0
N387 N 0.54625 0.61745 0.66604 0.0
H388 H 0.51352 0.60832 0.76939 0.0
H389 H 0.51328 0.645 0.73008 0.0
H390 H 0.55414 0.62258 0.63806 0.0
H391 H 0.56378 0.65992 0.68272 0.0
H392 H 0.49717 0.35551 0.709 0.0
H393 H 0.49616 0.38954 0.75336 0.0
H394 H 0.45238 0.34803 0.65905 0.0
H395 H 0.46113 0.3896 0.62071 0.0
C396 C 0.53438 0.042 0.63804 0.0
C397 C 0.5105 0.9897 0.61067 0.0
C398 C 0.47648 0.91979 0.6602 0.0
C399 C 0.50771 0.97099 0.68698 0.0
N400 N 0.57621 0.07961 0.70053 0.0
N401 N 0.46966 0.87652 0.59685 0.0
C402 C 0.53948 0.03182 0.67569 0.0
C403 C 0.48445 0.9279 0.62202 0.0
N404 N 0.5495 0.10129 0.62866 0.0
N405 N 0.43731 0.86374 0.67105 0.0
H406 H 0.47626 0.87884 0.56866 0.0
H407 H 0.45684 0.83141 0.60455 0.0
H408 H 0.4287 0.85609 0.69872 0.0
H409 H 0.40868 0.82709 0.65244 0.0
H410 H 0.56136 0.14001 0.64825 0.0
H411 H 0.54388 0.11112 0.6019 0.0
H412 H 0.60501 0.1232 0.69279 0.0
H413 H 0.58218 0.07392 0.7282 0.0
C414 C 0.48862 0.44973 0.98625 0.0
C415 C 0.53533 0.49533 0.96824 0.0
C416 C 0.59547 0.53191 0.02662 0.0
C417 C 0.54861 0.4866 0.04483 0.0
N418 N 0.44892 0.40564 0.04347 0.0
N419 N 0.62953 0.58531 0.9713 0.0
C420 C 0.49448 0.44682 0.02511 0.0
C421 C 0.58787 0.53776 0.98843 0.0
N422 N 0.43996 0.40706 0.96573 0.0
N423 N 0.64749 0.56938 0.04595 0.0
H424 H 0.62618 0.59046 0.94326 0.0
H425 H 0.66571 0.62234 0.98501 0.0
H426 H 0.65295 0.57183 0.07465 0.0
H427 H 0.68629 0.59674 0.03365 0.0
H428 H 0.40728 0.36793 0.97581 0.0
H429 H 0.43345 0.40851 0.9375 0.0
H430 H 0.40596 0.38114 0.0323 0.0
H431 H 0.45306 0.3977 0.07091 0.0
C432 C 0.97665 0.4729 0.28062 0.0
C433 C 0.03189 0.49582 0.26325 0.0
C434 C 0.08375 0.51254 0.32361 0.0
C435 C 0.0287 0.48695 0.34057 0.0
N436 N 0.92294 0.42757 0.33407 0.0
N437 N 0.13566 0.51833 0.26712 0.0
C438 C 0.97516 0.46234 0.31868 0.0
C439 C 0.08472 0.50971 0.28444 0.0
N440 N 0.92596 0.46439 0.26175 0.0
N441 N 0.13518 0.54235 0.34482 0.0
H442 H 0.1379 0.51439 0.2384 0.0
H443 H 0.1738 0.52238 0.28108 0.0
H444 H 0.13674 0.54643 0.3737 0.0
H445 H 0.17582 0.56812 0.33379 0.0
H446 H 0.88622 0.45485 0.2745 0.0
H447 H 0.92408 0.47232 0.23415 0.0
H448 H 0.88334 0.40274 0.31857 0.0
H449 H 0.92024 0.41825 0.36175 0.0
loop_
_geom_bond_atom_site_label_1
_geom_bond_atom_site_label_2
_geom_bond_distance
_geom_bond_site_symmetry_2
_ccdc_geom_bond_type
Tb0 O3 2.453 1_455 S
Tb0 O4 2.596 1_455 S
Tb0 O5 2.374 . S
Tb0 O13 2.343 . S
Tb0 O15 2.353 . S
Tb0 O17 2.427 . S
Tb0 O18 2.513 . S
C1 O5 1.251 . S
C1 O7 1.263 . S
Tb2 O4 2.329 1_455 S
Tb2 O7 2.353 . S
Tb2 O10 2.413 1_455 S
Tb2 O11 2.498 1_455 S
Tb2 O12 2.472 . S
Tb2 O13 2.605 . S
Tb2 O14 2.374 . S
O3 Tb0 2.453 1_655 S
O3 C19 1.245 . S
O4 Tb0 2.596 1_655 S
O4 Tb2 2.329 1_655 S
O4 C19 1.259 . S
O5 Tb0 2.374 . S
O5 C1 1.251 . S
C6 O10 1.275 . S
C6 O11 1.246 . S
O7 C1 1.263 . S
O7 Tb2 2.353 . S
C8 O12 1.245 . S
C8 O13 1.259 . S
C9 O14 1.250 . S
C9 O15 1.263 . S
O10 Tb2 2.413 1_655 S
O10 C6 1.275 . S
O11 Tb2 2.498 1_655 S
O11 C6 1.246 . S
O12 Tb2 2.472 . S
O12 C8 1.245 . S
O13 Tb0 2.343 . S
O13 Tb2 2.605 . S
O13 C8 1.259 . S
O14 Tb2 2.374 . S
O14 C9 1.250 . S
O15 Tb0 2.353 . S
O15 C9 1.263 . S
C16 O17 1.275 . S
C16 O18 1.246 . S
O17 Tb0 2.427 . S
O17 C16 1.275 . S
O18 Tb0 2.513 . S
O18 C16 1.246 . S
C19 O3 1.245 . S
C19 O4 1.259 . S
Tb20 O23 2.453 . S
Tb20 O24 2.596 . S
Tb20 O25 2.374 . S
Tb20 O33 2.343 1_545 S
Tb20 O35 2.353 . S
Tb20 O37 2.427 1_545 S
Tb20 O38 2.513 1_545 S
C21 O25 1.251 . S
C21 O27 1.263 . S
Tb22 O24 2.343 . S
Tb22 O27 2.353 . S
Tb22 O30 2.427 . S
Tb22 O31 2.513 . S
Tb22 O32 2.453 1_545 S
Tb22 O33 2.596 1_545 S
Tb22 O34 2.374 . S
O23 Tb20 2.453 . S
O23 C39 1.245 . S
O24 Tb20 2.596 . S
O24 Tb22 2.343 . S
O24 C39 1.259 . S
O25 Tb20 2.374 . S
O25 C21 1.251 . S
C26 O30 1.275 . S
C26 O31 1.246 . S
O27 C21 1.263 . S
O27 Tb22 2.353 . S
C28 O32 1.245 . S
C28 O33 1.259 . S
C29 O34 1.250 . S
C29 O35 1.263 . S
O30 Tb22 2.427 . S
O30 C26 1.275 . S
O31 Tb22 2.513 . S
O31 C26 1.246 . S
O32 Tb22 2.453 1_565 S
O32 C28 1.245 . S
O33 Tb20 2.343 1_565 S
O33 Tb22 2.596 1_565 S
O33 C28 1.259 . S
O34 Tb22 2.374 . S
O34 C29 1.250 . S
O35 Tb20 2.353 . S
O35 C29 1.263 . S
C36 O37 1.275 . S
C36 O38 1.246 . S
O37 Tb20 2.427 1_565 S
O37 C36 1.275 . S
O38 Tb20 2.513 1_565 S
O38 C36 1.246 . S
C39 O23 1.245 . S
C39 O24 1.259 . S
Tb40 O43 2.453 . S
Tb40 O44 2.596 . S
Tb40 O45 2.374 . S
Tb40 O53 2.343 . S
Tb40 O55 2.353 . S
Tb40 O57 2.427 . S
Tb40 O58 2.513 . S
C41 O45 1.251 . S
C41 O47 1.263 . S
Tb42 O44 2.343 . S
Tb42 O47 2.353 . S
Tb42 O50 2.427 . S
Tb42 O51 2.513 . S
Tb42 O52 2.453 . S
Tb42 O53 2.596 . S
Tb42 O54 2.374 . S
O43 Tb40 2.453 . S
O43 C59 1.245 . S
O44 Tb40 2.596 . S
O44 Tb42 2.343 . S
O44 C59 1.259 . S
O45 Tb40 2.374 . S
O45 C41 1.251 . S
C46 O50 1.275 . S
C46 O51 1.246 . S
O47 C41 1.263 . S
O47 Tb42 2.353 . S
C48 O52 1.245 . S
C48 O53 1.259 . S
C49 O54 1.250 . S
C49 O55 1.263 . S
O50 Tb42 2.427 . S
O50 C46 1.275 . S
O51 Tb42 2.513 . S
O51 C46 1.246 . S
O52 Tb42 2.453 . S
O52 C48 1.245 . S
O53 Tb40 2.343 . S
O53 Tb42 2.596 . S
O53 C48 1.259 . S
O54 Tb42 2.374 . S
O54 C49 1.250 . S
O55 Tb40 2.353 . S
O55 C49 1.263 . S
C56 O57 1.275 . S
C56 O58 1.246 . S
O57 Tb40 2.427 . S
O57 C56 1.275 . S
O58 Tb40 2.513 . S
O58 C56 1.246 . S
C59 O43 1.245 . S
C59 O44 1.259 . S
O60 Cd61 2.300 . S
O60 C67 1.275 . S
Cd61 O60 2.300 . S
Cd61 O69 2.381 . S
Cd61 O70 2.378 . S
O62 Cd63 2.385 . S
O62 C67 1.255 1_565 S
Cd63 O62 2.385 . S
Cd63 O64 2.317 . S
O64 Cd63 2.317 . S
O64 C65 1.232 . S
C65 O64 1.232 . S
C65 O66 1.218 . S
O66 C65 1.218 . S
C67 O60 1.275 . S
C67 O62 1.255 1_545 S
C68 O69 1.258 . S
C68 O70 1.256 . S
O69 Cd61 2.381 . S
O69 C68 1.258 . S
O70 Cd61 2.378 . S
O70 C68 1.256 . S
O71 Cd72 2.300 . S
O71 C78 1.275 . S
Cd72 O71 2.300 . S
Cd72 O80 2.381 . S
Cd72 O81 2.378 . S
O73 Cd74 2.385 . S
O73 C78 1.255 . S
Cd74 O73 2.385 . S
Cd74 O75 2.317 . S
O75 Cd74 2.317 . S
O75 C76 1.232 . S
C76 O75 1.232 . S
C76 O77 1.218 . S
O77 C76 1.218 . S
C78 O71 1.275 . S
C78 O73 1.255 . S
C79 O80 1.258 . S
C79 O81 1.256 . S
O80 Cd72 2.381 . S
O80 C79 1.258 . S
O81 Cd72 2.378 . S
O81 C79 1.256 . S
O82 Cd83 2.300 . S
O82 C89 1.275 . S
Cd83 O82 2.300 . S
Cd83 O91 2.381 . S
Cd83 O92 2.378 . S
O84 Cd85 2.385 1_455 S
O84 C89 1.255 . S
Cd85 O84 2.385 1_655 S
Cd85 O86 2.317 . S
O86 Cd85 2.317 . S
O86 C87 1.232 . S
C87 O86 1.232 . S
C87 O88 1.218 . S
O88 C87 1.218 . S
C89 O82 1.275 . S
C89 O84 1.255 . S
C90 O91 1.258 . S
C90 O92 1.256 . S
O91 Cd83 2.381 . S
O91 C90 1.258 . S
O92 Cd83 2.378 . S
O92 C90 1.256 . S
O93 Cd94 2.300 . S
O93 C100 1.275 1_455 S
Cd94 O93 2.300 . S
Cd94 O102 2.381 . S
Cd94 O103 2.378 . S
O95 Cd96 2.385 . S
O95 C100 1.255 . S
Cd96 O95 2.385 . S
Cd96 O97 2.317 . S
O97 Cd96 2.317 . S
O97 C98 1.232 . S
C98 O97 1.232 . S
C98 O99 1.218 . S
O99 C98 1.218 . S
C100 O93 1.275 1_655 S
C100 O95 1.255 . S
C101 O102 1.258 . S
C101 O103 1.256 . S
O102 Cd94 2.381 . S
O102 C101 1.258 . S
O103 Cd94 2.378 . S
O103 C101 1.256 . S
O104 Cd105 2.300 . S
O104 C111 1.275 1_565 S
Cd105 O104 2.300 . S
Cd105 O113 2.381 . S
Cd105 O114 2.378 . S
O106 Cd107 2.385 . S
O106 C111 1.255 . S
Cd107 O106 2.385 . S
Cd107 O108 2.317 . S
O108 Cd107 2.317 . S
O108 C109 1.232 . S
C109 O108 1.232 . S
C109 O110 1.218 . S
O110 C109 1.218 . S
C111 O104 1.275 1_545 S
C111 O106 1.255 . S
C112 O113 1.258 . S
C112 O114 1.256 . S
O113 Cd105 2.381 . S
O113 C112 1.258 . S
O114 Cd105 2.378 . S
O114 C112 1.256 . S
O115 Cd116 2.300 . S
O115 C122 1.275 . S
Cd116 O115 2.300 . S
Cd116 O124 2.381 . S
Cd116 O125 2.378 . S
O117 Cd118 2.385 . S
O117 C122 1.255 . S
Cd118 O117 2.385 . S
Cd118 O119 2.317 . S
O119 Cd118 2.317 . S
O119 C120 1.232 . S
C120 O119 1.232 . S
C120 O121 1.218 . S
O121 C120 1.218 . S
C122 O115 1.275 . S
C122 O117 1.255 . S
C123 O124 1.258 . S
C123 O125 1.256 . S
O124 Cd116 2.381 . S
O124 C123 1.258 . S
O125 Cd116 2.378 . S
O125 C123 1.256 . S
C126 C127 1.363 . S
C126 C132 1.379 . S
C126 N134 1.356 . S
C127 C126 1.363 . S
C127 C133 1.363 . S
C128 C129 1.363 . S
C128 C133 1.379 . S
C128 N135 1.356 . S
C129 C128 1.363 . S
C129 C132 1.363 . S
N130 C132 1.356 . S
N130 H142 0.984 . S
N130 H143 0.985 . S
N131 C133 1.356 . S
N131 H136 0.984 . S
N131 H137 0.985 . S
C132 C126 1.379 . S
C132 C129 1.363 . S
C132 N130 1.356 . S
C133 C127 1.363 . S
C133 C128 1.379 . S
C133 N131 1.356 . S
N134 C126 1.356 . S
N134 H140 0.984 . S
N134 H141 0.984 . S
N135 C128 1.356 . S
N135 H138 0.984 . S
N135 H139 0.985 . S
H136 N131 0.984 . S
H137 N131 0.985 . S
H138 N135 0.984 . S
H139 N135 0.985 . S
H140 N134 0.984 . S
H141 N134 0.984 . S
H142 N130 0.984 . S
H143 N130 0.985 . S
C144 C145 1.363 . S
C144 C150 1.379 . S
C144 N152 1.356 . S
C145 C144 1.363 . S
C145 C151 1.363 . S
C146 C147 1.363 . S
C146 C151 1.379 . S
C146 N153 1.356 . S
C147 C146 1.363 . S
C147 C150 1.363 . S
N148 C150 1.356 . S
N148 H160 0.984 . S
N148 H161 0.985 . S
N149 C151 1.356 . S
N149 H154 0.984 . S
N149 H155 0.985 . S
C150 C144 1.379 . S
C150 C147 1.363 . S
C150 N148 1.356 . S
C151 C145 1.363 . S
C151 C146 1.379 . S
C151 N149 1.356 . S
N152 C144 1.356 . S
N152 H158 0.984 . S
N152 H159 0.984 . S
N153 C146 1.356 . S
N153 H156 0.984 . S
N153 H157 0.985 . S
H154 N149 0.984 . S
H155 N149 0.985 . S
H156 N153 0.984 . S
H157 N153 0.985 . S
H158 N152 0.984 . S
H159 N152 0.984 . S
H160 N148 0.984 . S
H161 N148 0.985 . S
C162 C163 1.363 . S
C162 C168 1.379 . S
C162 N170 1.356 . S
C163 C162 1.363 . S
C163 C169 1.363 . S
C164 C165 1.363 . S
C164 C169 1.379 . S
C164 N171 1.356 . S
C165 C164 1.363 . S
C165 C168 1.363 . S
N166 C168 1.356 . S
N166 H178 0.984 . S
N166 H179 0.985 . S
N167 C169 1.356 . S
N167 H172 0.984 . S
N167 H173 0.985 . S
C168 C162 1.379 . S
C168 C165 1.363 . S
C168 N166 1.356 . S
C169 C163 1.363 . S
C169 C164 1.379 . S
C169 N167 1.356 . S
N170 C162 1.356 . S
N170 H176 0.984 . S
N170 H177 0.984 . S
N171 C164 1.356 . S
N171 H174 0.984 . S
N171 H175 0.985 . S
H172 N167 0.984 . S
H173 N167 0.985 . S
H174 N171 0.984 . S
H175 N171 0.985 . S
H176 N170 0.984 . S
H177 N170 0.984 . S
H178 N166 0.984 . S
H179 N166 0.985 . S
C180 C181 1.363 . S
C180 C186 1.379 . S
C180 N188 1.356 . S
C181 C180 1.363 . S
C181 C187 1.363 . S
C182 C183 1.363 . S
C182 C187 1.379 . S
C182 N189 1.356 . S
C183 C182 1.363 . S
C183 C186 1.363 . S
N184 C186 1.356 . S
N184 H196 0.984 . S
N184 H197 0.985 . S
N185 C187 1.356 . S
N185 H190 0.984 . S
N185 H191 0.985 . S
C186 C180 1.379 . S
C186 C183 1.363 . S
C186 N184 1.356 . S
C187 C181 1.363 . S
C187 C182 1.379 . S
C187 N185 1.356 . S
N188 C180 1.356 . S
N188 H194 0.984 . S
N188 H195 0.984 . S
N189 C182 1.356 . S
N189 H192 0.984 . S
N189 H193 0.985 . S
H190 N185 0.984 . S
H191 N185 0.985 . S
H192 N189 0.984 . S
H193 N189 0.985 . S
H194 N188 0.984 . S
H195 N188 0.984 . S
H196 N184 0.984 . S
H197 N184 0.985 . S
C198 C199 1.363 . S
C198 C204 1.379 . S
C198 N206 1.356 . S
C199 C198 1.363 . S
C199 C205 1.363 . S
C200 C201 1.363 . S
C200 C205 1.379 . S
C200 N207 1.356 . S
C201 C200 1.363 . S
C201 C204 1.363 . S
N202 C204 1.356 . S
N202 H214 0.984 . S
N202 H215 0.985 . S
N203 C205 1.356 . S
N203 H208 0.984 . S
N203 H209 0.985 . S
C204 C198 1.379 . S
C204 C201 1.363 . S
C204 N202 1.356 . S
C205 C199 1.363 . S
C205 C200 1.379 . S
C205 N203 1.356 . S
N206 C198 1.356 . S
N206 H212 0.984 . S
N206 H213 0.984 . S
N207 C200 1.356 . S
N207 H210 0.984 . S
N207 H211 0.985 . S
H208 N203 0.984 . S
H209 N203 0.985 . S
H210 N207 0.984 . S
H211 N207 0.985 . S
H212 N206 0.984 . S
H213 N206 0.984 . S
H214 N202 0.984 . S
H215 N202 0.985 . S
C216 C217 1.363 . S
C216 C222 1.379 . S
C216 N224 1.356 . S
C217 C216 1.363 . S
C217 C223 1.363 . S
C218 C219 1.363 . S
C218 C223 1.379 . S
C218 N225 1.356 . S
C219 C218 1.363 . S
C219 C222 1.363 . S
N220 C222 1.356 . S
N220 H232 0.984 . S
N220 H233 0.985 . S
N221 C223 1.356 . S
N221 H226 0.984 . S
N221 H227 0.985 . S
C222 C216 1.379 . S
C222 C219 1.363 . S
C222 N220 1.356 . S
C223 C217 1.363 . S
C223 C218 1.379 . S
C223 N221 1.356 . S
N224 C216 1.356 . S
N224 H230 0.984 . S
N224 H231 0.984 . S
N225 C218 1.356 . S
N225 H228 0.984 . S
N225 H229 0.985 . S
H226 N221 0.984 . S
H227 N221 0.985 . S
H228 N225 0.984 . S
H229 N225 0.985 . S
H230 N224 0.984 . S
H231 N224 0.984 . S
H232 N220 0.984 . S
H233 N220 0.985 . S
C234 C235 1.363 . S
C234 C240 1.379 . S
C234 N242 1.356 . S
C235 C234 1.363 . S
C235 C241 1.363 . S
C236 C237 1.363 . S
C236 C241 1.379 . S
C236 N243 1.356 . S
C237 C236 1.363 . S
C237 C240 1.363 . S
N238 C240 1.356 . S
N238 H250 0.984 . S
N238 H251 0.985 . S
N239 C241 1.356 . S
N239 H244 0.984 . S
N239 H245 0.985 . S
C240 C234 1.379 . S
C240 C237 1.363 . S
C240 N238 1.356 . S
C241 C235 1.363 . S
C241 C236 1.379 . S
C241 N239 1.356 . S
N242 C234 1.356 . S
N242 H248 0.984 . S
N242 H249 0.984 . S
N243 C236 1.356 . S
N243 H246 0.984 . S
N243 H247 0.985 . S
H244 N239 0.984 . S
H245 N239 0.985 . S
H246 N243 0.984 . S
H247 N243 0.985 . S
H248 N242 0.984 . S
H249 N242 0.984 . S
H250 N238 0.984 . S
H251 N238 0.985 . S
C252 C253 1.363 . S
C252 C258 1.379 . S
C252 N260 1.356 . S
C253 C252 1.363 . S
C253 C259 1.363 . S
C254 C255 1.363 . S
C254 C259 1.379 . S
C254 N261 1.356 . S
C255 C254 1.363 . S
C255 C258 1.363 . S
N256 C258 1.356 . S
N256 H268 0.984 . S
N256 H269 0.985 . S
N257 C259 1.356 . S
N257 H262 0.984 . S
N257 H263 0.985 . S
C258 C252 1.379 . S
C258 C255 1.363 . S
C258 N256 1.356 . S
C259 C253 1.363 . S
C259 C254 1.379 . S
C259 N257 1.356 . S
N260 C252 1.356 . S
N260 H266 0.984 . S
N260 H267 0.984 . S
N261 C254 1.356 . S
N261 H264 0.984 . S
N261 H265 0.985 . S
H262 N257 0.984 . S
H263 N257 0.985 . S
H264 N261 0.984 . S
H265 N261 0.985 . S
H266 N260 0.984 . S
H267 N260 0.984 . S
H268 N256 0.984 . S
H269 N256 0.985 . S
C270 C271 1.363 . S
C270 C276 1.379 . S
C270 N278 1.356 . S
C271 C270 1.363 . S
C271 C277 1.363 . S
C272 C273 1.363 . S
C272 C277 1.379 . S
C272 N279 1.356 . S
C273 C272 1.363 . S
C273 C276 1.363 . S
N274 C276 1.356 . S
N274 H286 0.984 . S
N274 H287 0.985 . S
N275 C277 1.356 . S
N275 H280 0.984 . S
N275 H281 0.985 . S
C276 C270 1.379 . S
C276 C273 1.363 . S
C276 N274 1.356 . S
C277 C271 1.363 . S
C277 C272 1.379 . S
C277 N275 1.356 . S
N278 C270 1.356 . S
N278 H284 0.984 . S
N278 H285 0.984 . S
N279 C272 1.356 . S
N279 H282 0.984 . S
N279 H283 0.985 . S
H280 N275 0.984 . S
H281 N275 0.985 . S
H282 N279 0.984 . S
H283 N279 0.985 . S
H284 N278 0.984 . S
H285 N278 0.984 . S
H286 N274 0.984 . S
H287 N274 0.985 . S
C288 C289 1.363 . S
C288 C294 1.379 . S
C288 N296 1.356 . S
C289 C288 1.363 . S
C289 C295 1.363 . S
C290 C291 1.363 . S
C290 C295 1.379 . S
C290 N297 1.356 . S
C291 C290 1.363 . S
C291 C294 1.363 . S
N292 C294 1.356 . S
N292 H304 0.984 . S
N292 H305 0.985 . S
N293 C295 1.356 . S
N293 H298 0.984 . S
N293 H299 0.985 . S
C294 C288 1.379 . S
C294 C291 1.363 . S
C294 N292 1.356 . S
C295 C289 1.363 . S
C295 C290 1.379 . S
C295 N293 1.356 . S
N296 C288 1.356 . S
N296 H302 0.984 . S
N296 H303 0.984 . S
N297 C290 1.356 . S
N297 H300 0.984 . S
N297 H301 0.985 . S
H298 N293 0.984 . S
H299 N293 0.985 . S
H300 N297 0.984 . S
H301 N297 0.985 . S
H302 N296 0.984 . S
H303 N296 0.984 . S
H304 N292 0.984 . S
H305 N292 0.985 . S
C306 C307 1.363 . S
C306 C312 1.379 . S
C306 N314 1.356 . S
C307 C306 1.363 . S
C307 C313 1.363 . S
C308 C309 1.363 . S
C308 C313 1.379 . S
C308 N315 1.356 . S
C309 C308 1.363 . S
C309 C312 1.363 . S
N310 C312 1.356 . S
N310 H322 0.984 . S
N310 H323 0.985 . S
N311 C313 1.356 . S
N311 H316 0.984 . S
N311 H317 0.985 . S
C312 C306 1.379 . S
C312 C309 1.363 . S
C312 N310 1.356 . S
C313 C307 1.363 . S
C313 C308 1.379 . S
C313 N311 1.356 . S
N314 C306 1.356 . S
N314 H320 0.984 . S
N314 H321 0.984 . S
N315 C308 1.356 . S
N315 H318 0.984 . S
N315 H319 0.985 . S
H316 N311 0.984 . S
H317 N311 0.985 . S
H318 N315 0.984 . S
H319 N315 0.985 . S
H320 N314 0.984 . S
H321 N314 0.984 . S
H322 N310 0.984 . S
H323 N310 0.985 . S
C324 C325 1.363 . S
C324 C330 1.379 . S
C324 N332 1.356 . S
C325 C324 1.363 . S
C325 C331 1.363 . S
C326 C327 1.363 . S
C326 C331 1.379 . S
C326 N333 1.356 . S
C327 C326 1.363 . S
C327 C330 1.363 . S
N328 C330 1.356 . S
N328 H340 0.984 . S
N328 H341 0.985 . S
N329 C331 1.356 . S
N329 H334 0.984 . S
N329 H335 0.985 . S
C330 C324 1.379 . S
C330 C327 1.363 . S
C330 N328 1.356 . S
C331 C325 1.363 . S
C331 C326 1.379 . S
C331 N329 1.356 . S
N332 C324 1.356 . S
N332 H338 0.984 . S
N332 H339 0.984 . S
N333 C326 1.356 . S
N333 H336 0.984 . S
N333 H337 0.985 . S
H334 N329 0.984 . S
H335 N329 0.985 . S
H336 N333 0.984 . S
H337 N333 0.985 . S
H338 N332 0.984 . S
H339 N332 0.984 . S
H340 N328 0.984 . S
H341 N328 0.985 . S
C342 C343 1.363 . S
C342 C348 1.379 1_554 S
C342 N350 1.356 . S
C343 C342 1.363 . S
C343 C349 1.363 . S
C344 C345 1.363 1_554 S
C344 C349 1.379 . S
C344 N351 1.356 1_554 S
C345 C344 1.363 1_556 S
C345 C348 1.363 . S
N346 C348 1.356 . S
N346 H358 0.984 . S
N346 H359 0.985 . S
N347 C349 1.356 . S
N347 H352 0.984 . S
N347 H353 0.985 . S
C348 C342 1.379 1_556 S
C348 C345 1.363 . S
C348 N346 1.356 . S
C349 C343 1.363 . S
C349 C344 1.379 . S
C349 N347 1.356 . S
N350 C342 1.356 . S
N350 H356 0.984 . S
N350 H357 0.984 . S
N351 C344 1.356 1_556 S
N351 H354 0.984 . S
N351 H355 0.985 . S
H352 N347 0.984 . S
H353 N347 0.985 . S
H354 N351 0.984 . S
H355 N351 0.985 . S
H356 N350 0.984 . S
H357 N350 0.984 . S
H358 N346 0.984 . S
H359 N346 0.985 . S
C360 C361 1.363 1_565 S
C360 C366 1.379 . S
C360 N368 1.356 . S
C361 C360 1.363 1_545 S
C361 C367 1.363 . S
C362 C363 1.363 . S
C362 C367 1.379 . S
C362 N369 1.356 . S
C363 C362 1.363 . S
C363 C366 1.363 1_545 S
N364 C366 1.356 . S
N364 H376 0.984 . S
N364 H377 0.985 . S
N365 C367 1.356 . S
N365 H370 0.984 . S
N365 H371 0.985 . S
C366 C360 1.379 . S
C366 C363 1.363 1_565 S
C366 N364 1.356 . S
C367 C361 1.363 . S
C367 C362 1.379 . S
C367 N365 1.356 . S
N368 C360 1.356 . S
N368 H374 0.984 . S
N368 H375 0.984 . S
N369 C362 1.356 . S
N369 H372 0.984 . S
N369 H373 0.985 . S
H370 N365 0.984 . S
H371 N365 0.985 . S
H372 N369 0.984 . S
H373 N369 0.985 . S
H374 N368 0.984 . S
H375 N368 0.984 . S
H376 N364 0.984 . S
H377 N364 0.985 . S
C378 C379 1.363 . S
C378 C384 1.379 . S
C378 N386 1.356 . S
C379 C378 1.363 . S
C379 C385 1.363 . S
C380 C381 1.363 . S
C380 C385 1.379 . S
C380 N387 1.356 . S
C381 C380 1.363 . S
C381 C384 1.363 . S
N382 C384 1.356 . S
N382 H394 0.984 . S
N382 H395 0.985 . S
N383 C385 1.356 . S
N383 H388 0.984 . S
N383 H389 0.985 . S
C384 C378 1.379 . S
C384 C381 1.363 . S
C384 N382 1.356 . S
C385 C379 1.363 . S
C385 C380 1.379 . S
C385 N383 1.356 . S
N386 C378 1.356 . S
N386 H392 0.984 . S
N386 H393 0.984 . S
N387 C380 1.356 . S
N387 H390 0.984 . S
N387 H391 0.985 . S
H388 N383 0.984 . S
H389 N383 0.985 . S
H390 N387 0.984 . S
H391 N387 0.985 . S
H392 N386 0.984 . S
H393 N386 0.984 . S
H394 N382 0.984 . S
H395 N382 0.985 . S
C396 C397 1.363 . S
C396 C402 1.379 . S
C396 N404 1.356 . S
C397 C396 1.363 . S
C397 C403 1.363 1_545 S
C398 C399 1.363 1_565 S
C398 C403 1.379 . S
C398 N405 1.356 . S
C399 C398 1.363 1_545 S
C399 C402 1.363 . S
N400 C402 1.356 . S
N400 H412 0.984 . S
N400 H413 0.985 . S
N401 C403 1.356 . S
N401 H406 0.984 . S
N401 H407 0.985 . S
C402 C396 1.379 . S
C402 C399 1.363 . S
C402 N400 1.356 . S
C403 C397 1.363 1_565 S
C403 C398 1.379 . S
C403 N401 1.356 . S
N404 C396 1.356 . S
N404 H410 0.984 . S
N404 H411 0.984 . S
N405 C398 1.356 . S
N405 H408 0.984 . S
N405 H409 0.985 . S
H406 N401 0.984 . S
H407 N401 0.985 . S
H408 N405 0.984 . S
H409 N405 0.985 . S
H410 N404 0.984 . S
H411 N404 0.984 . S
H412 N400 0.984 . S
H413 N400 0.985 . S
C414 C415 1.363 . S
C414 C420 1.379 . S
C414 N422 1.356 . S
C415 C414 1.363 . S
C415 C421 1.363 . S
C416 C417 1.363 . S
C416 C421 1.379 1_554 S
C416 N423 1.356 . S
C417 C416 1.363 . S
C417 C420 1.363 1_554 S
N418 C420 1.356 1_554 S
N418 H430 0.984 1_554 S
N418 H431 0.985 . S
N419 C421 1.356 . S
N419 H424 0.984 . S
N419 H425 0.985 . S
C420 C414 1.379 . S
C420 C417 1.363 1_556 S
C420 N418 1.356 1_556 S
C421 C415 1.363 . S
C421 C416 1.379 1_556 S
C421 N419 1.356 . S
N422 C414 1.356 . S
N422 H428 0.984 . S
N422 H429 0.984 . S
N423 C416 1.356 . S
N423 H426 0.984 . S
N423 H427 0.985 . S
H424 N419 0.984 . S
H425 N419 0.985 . S
H426 N423 0.984 . S
H427 N423 0.985 . S
H428 N422 0.984 . S
H429 N422 0.984 . S
H430 N418 0.984 1_556 S
H431 N418 0.985 . S
C432 C433 1.363 1_655 S
C432 C438 1.379 . S
C432 N440 1.356 . S
C433 C432 1.363 1_455 S
C433 C439 1.363 . S
C434 C435 1.363 1_455 S
C434 C439 1.379 . S
C434 N441 1.356 . S
C435 C434 1.363 1_655 S
C435 C438 1.363 . S
N436 C438 1.356 . S
N436 H448 0.984 . S
N436 H449 0.985 . S
N437 C439 1.356 . S
N437 H442 0.984 . S
N437 H443 0.985 . S
C438 C432 1.379 . S
C438 C435 1.363 . S
C438 N436 1.356 . S
C439 C433 1.363 . S
C439 C434 1.379 . S
C439 N437 1.356 . S
N440 C432 1.356 . S
N440 H446 0.984 . S
N440 H447 0.984 . S
N441 C434 1.356 . S
N441 H444 0.984 . S
N441 H445 0.985 . S
H442 N437 0.984 . S
H443 N437 0.985 . S
H444 N441 0.984 . S
H445 N441 0.985 . S
H446 N440 0.984 . S
H447 N440 0.984 . S
H448 N436 0.984 . S
H449 N436 0.985 . S
C127 C8 2.062 . S
C129 C120 1.806 . S
C145 C26 1.479 . S
C147 C98 1.316 . S
C163 C48 1.458 . S
C165 C112 1.477 . S
C181 C19 1.795 . S
C183 C123 1.754 . S
C201 C101 1.383 . S
C199 C36 1.388 . S
C219 C109 1.480 . S
C217 C59 1.689 . S
C235 C28 1.643 . S
C237 C76 1.452 . S
C253 C46 1.267 . S
C255 C87 1.071 . S
C271 C16 1.572 . S
C273 C65 1.286 . S
C291 C79 1.564 . S
C289 C39 1.579 . S
C309 C90 0.973 . S
C307 C56 0.974 . S
C325 C6 1.353 . S
C327 C68 1.291 . S
C345 C89 1.404 . S
C343 C9 1.451 . S
C361 C21 1.495 . S
C363 C67 1.444 . S
C379 C49 1.546 . S
C381 C78 1.461 . S
C399 C111 1.420 . S
C397 C29 1.460 . S
C417 C122 1.504 . S
C415 C41 1.584 . S
C433 C1 1.544 . S
C435 C100 1.469 . S
