# Generated by pormake.
# Topology fgl, (4,4)-cn, num edge types: 1
# Building blocks:
#     Node 0, Type 0, BuildingBlock: ESEHIV_clean_sbu_0, # of connection points: 4
#     Node 1, Type 0, BuildingBlock: ESEHIV_clean_sbu_0, # of connection points: 4
#     Node 2, Type 0, BuildingBlock: ESEHIV_clean_sbu_0, # of connection points: 4
#     Node 3, Type 0, BuildingBlock: ESEHIV_clean_sbu_0, # of connection points: 4
#     Node 4, Type 0, BuildingBlock: ESEHIV_clean_sbu_0, # of connection points: 4
#     Node 5, Type 0, BuildingBlock: ESEHIV_clean_sbu_0, # of connection points: 4
#     Node 6, Type 0, BuildingBlock: ESEHIV_clean_sbu_0, # of connection points: 4
#     Node 7, Type 0, BuildingBlock: ESEHIV_clean_sbu_0, # of connection points: 4
#     Node 8, Type 0, BuildingBlock: ESEHIV_clean_sbu_0, # of connection points: 4
#     Node 9, Type 0, BuildingBlock: ESEHIV_clean_sbu_0, # of connection points: 4
#     Node 10, Type 0, BuildingBlock: ESEHIV_clean_sbu_0, # of connection points: 4
#     Node 11, Type 0, BuildingBlock: ESEHIV_clean_sbu_0, # of connection points: 4
#     Node 12, Type 0, BuildingBlock: ESEHIV_clean_sbu_0, # of connection points: 4
#     Node 13, Type 0, BuildingBlock: ESEHIV_clean_sbu_0, # of connection points: 4
#     Node 14, Type 0, BuildingBlock: ESEHIV_clean_sbu_0, # of connection points: 4
#     Node 15, Type 0, BuildingBlock: ESEHIV_clean_sbu_0, # of connection points: 4
#     Node 16, Type 0, BuildingBlock: ESEHIV_clean_sbu_0, # of connection points: 4
#     Node 17, Type 0, BuildingBlock: ESEHIV_clean_sbu_0, # of connection points: 4
#     Node 18, Type 1, BuildingBlock: KUFVIS_clean_sbu_0, # of connection points: 4
#     Node 19, Type 1, BuildingBlock: KUFVIS_clean_sbu_0, # of connection points: 4
#     Node 20, Type 1, BuildingBlock: KUFVIS_clean_sbu_0, # of connection points: 4
#     Node 21, Type 1, BuildingBlock: KUFVIS_clean_sbu_0, # of connection points: 4
#     Node 22, Type 1, BuildingBlock: KUFVIS_clean_sbu_0, # of connection points: 4
#     Node 23, Type 1, BuildingBlock: KUFVIS_clean_sbu_0, # of connection points: 4
#     Node 24, Type 1, BuildingBlock: KUFVIS_clean_sbu_0, # of connection points: 4
#     Node 25, Type 1, BuildingBlock: KUFVIS_clean_sbu_0, # of connection points: 4
#     Node 26, Type 1, BuildingBlock: KUFVIS_clean_sbu_0, # of connection points: 4
#     Node 27, Type 1, BuildingBlock: KUFVIS_clean_sbu_0, # of connection points: 4
#     Node 28, Type 1, BuildingBlock: KUFVIS_clean_sbu_0, # of connection points: 4
#     Node 29, Type 1, BuildingBlock: KUFVIS_clean_sbu_0, # of connection points: 4
#     Node 30, Type 1, BuildingBlock: KUFVIS_clean_sbu_0, # of connection points: 4
#     Node 31, Type 1, BuildingBlock: KUFVIS_clean_sbu_0, # of connection points: 4
#     Node 32, Type 1, BuildingBlock: KUFVIS_clean_sbu_0, # of connection points: 4
#     Node 33, Type 1, BuildingBlock: KUFVIS_clean_sbu_0, # of connection points: 4
#     Node 34, Type 1, BuildingBlock: KUFVIS_clean_sbu_0, # of connection points: 4
#     Node 35, Type 1, BuildingBlock: KUFVIS_clean_sbu_0, # of connection points: 4
#     Edge 36, Type (0, 1), BuildingBlock: CIFDUS_clean_linker_0, # of connection points: 2
#     Edge 37, Type (0, 1), BuildingBlock: CIFDUS_clean_linker_0, # of connection points: 2
#     Edge 38, Type (0, 1), BuildingBlock: CIFDUS_clean_linker_0, # of connection points: 2
#     Edge 39, Type (0, 1), BuildingBlock: CIFDUS_clean_linker_0, # of connection points: 2
#     Edge 40, Type (0, 1), BuildingBlock: CIFDUS_clean_linker_0, # of connection points: 2
#     Edge 41, Type (0, 1), BuildingBlock: CIFDUS_clean_linker_0, # of connection points: 2
#     Edge 42, Type (0, 1), BuildingBlock: CIFDUS_clean_linker_0, # of connection points: 2
#     Edge 43, Type (0, 1), BuildingBlock: CIFDUS_clean_linker_0, # of connection points: 2
#     Edge 44, Type (0, 1), BuildingBlock: CIFDUS_clean_linker_0, # of connection points: 2
#     Edge 45, Type (0, 1), BuildingBlock: CIFDUS_clean_linker_0, # of connection points: 2
#     Edge 46, Type (0, 1), BuildingBlock: CIFDUS_clean_linker_0, # of connection points: 2
#     Edge 47, Type (0, 1), BuildingBlock: CIFDUS_clean_linker_0, # of connection points: 2
#     Edge 48, Type (0, 1), BuildingBlock: CIFDUS_clean_linker_0, # of connection points: 2
#     Edge 49, Type (0, 1), BuildingBlock: CIFDUS_clean_linker_0, # of connection points: 2
#     Edge 50, Type (0, 1), BuildingBlock: CIFDUS_clean_linker_0, # of connection points: 2
#     Edge 51, Type (0, 1), BuildingBlock: CIFDUS_clean_linker_0, # of connection points: 2
#     Edge 52, Type (0, 1), BuildingBlock: CIFDUS_clean_linker_0, # of connection points: 2
#     Edge 53, Type (0, 1), BuildingBlock: CIFDUS_clean_linker_0, # of connection points: 2
#     Edge 54, Type (0, 1), BuildingBlock: CIFDUS_clean_linker_0, # of connection points: 2
#     Edge 55, Type (0, 1), BuildingBlock: CIFDUS_clean_linker_0, # of connection points: 2
#     Edge 56, Type (0, 1), BuildingBlock: CIFDUS_clean_linker_0, # of connection points: 2
#     Edge 57, Type (0, 1), BuildingBlock: CIFDUS_clean_linker_0, # of connection points: 2
#     Edge 58, Type (0, 1), BuildingBlock: CIFDUS_clean_linker_0, # of connection points: 2
#     Edge 59, Type (0, 1), BuildingBlock: CIFDUS_clean_linker_0, # of connection points: 2
#     Edge 60, Type (0, 1), BuildingBlock: CIFDUS_clean_linker_0, # of connection points: 2
#     Edge 61, Type (0, 1), BuildingBlock: CIFDUS_clean_linker_0, # of connection points: 2
#     Edge 62, Type (0, 1), BuildingBlock: CIFDUS_clean_linker_0, # of connection points: 2
#     Edge 63, Type (0, 1), BuildingBlock: CIFDUS_clean_linker_0, # of connection points: 2
#     Edge 64, Type (0, 1), BuildingBlock: CIFDUS_clean_linker_0, # of connection points: 2
#     Edge 65, Type (0, 1), BuildingBlock: CIFDUS_clean_linker_0, # of connection points: 2
#     Edge 66, Type (0, 1), BuildingBlock: CIFDUS_clean_linker_0, # of connection points: 2
#     Edge 67, Type (0, 1), BuildingBlock: CIFDUS_clean_linker_0, # of connection points: 2
#     Edge 68, Type (0, 1), BuildingBlock: CIFDUS_clean_linker_0, # of connection points: 2
#     Edge 69, Type (0, 1), BuildingBlock: CIFDUS_clean_linker_0, # of connection points: 2
#     Edge 70, Type (0, 1), BuildingBlock: CIFDUS_clean_linker_0, # of connection points: 2
#     Edge 71, Type (0, 1), BuildingBlock: CIFDUS_clean_linker_0, # of connection points: 2
#     Edge 72, Type (0, 1), BuildingBlock: CIFDUS_clean_linker_0, # of connection points: 2
#     Edge 73, Type (0, 1), BuildingBlock: CIFDUS_clean_linker_0, # of connection points: 2
#     Edge 74, Type (0, 1), BuildingBlock: CIFDUS_clean_linker_0, # of connection points: 2
#     Edge 75, Type (0, 1), BuildingBlock: CIFDUS_clean_linker_0, # of connection points: 2
#     Edge 76, Type (0, 1), BuildingBlock: CIFDUS_clean_linker_0, # of connection points: 2
#     Edge 77, Type (0, 1), BuildingBlock: CIFDUS_clean_linker_0, # of connection points: 2
#     Edge 78, Type (0, 1), BuildingBlock: CIFDUS_clean_linker_0, # of connection points: 2
#     Edge 79, Type (0, 1), BuildingBlock: CIFDUS_clean_linker_0, # of connection points: 2
#     Edge 80, Type (0, 1), BuildingBlock: CIFDUS_clean_linker_0, # of connection points: 2
#     Edge 81, Type (0, 1), BuildingBlock: CIFDUS_clean_linker_0, # of connection points: 2
#     Edge 82, Type (0, 1), BuildingBlock: CIFDUS_clean_linker_0, # of connection points: 2
#     Edge 83, Type (0, 1), BuildingBlock: CIFDUS_clean_linker_0, # of connection points: 2
#     Edge 84, Type (0, 1), BuildingBlock: CIFDUS_clean_linker_0, # of connection points: 2
#     Edge 85, Type (0, 1), BuildingBlock: CIFDUS_clean_linker_0, # of connection points: 2
#     Edge 86, Type (0, 1), BuildingBlock: CIFDUS_clean_linker_0, # of connection points: 2
#     Edge 87, Type (0, 1), BuildingBlock: CIFDUS_clean_linker_0, # of connection points: 2
#     Edge 88, Type (0, 1), BuildingBlock: CIFDUS_clean_linker_0, # of connection points: 2
#     Edge 89, Type (0, 1), BuildingBlock: CIFDUS_clean_linker_0, # of connection points: 2
#     Edge 90, Type (0, 1), BuildingBlock: CIFDUS_clean_linker_0, # of connection points: 2
#     Edge 91, Type (0, 1), BuildingBlock: CIFDUS_clean_linker_0, # of connection points: 2
#     Edge 92, Type (0, 1), BuildingBlock: CIFDUS_clean_linker_0, # of connection points: 2
#     Edge 93, Type (0, 1), BuildingBlock: CIFDUS_clean_linker_0, # of connection points: 2
#     Edge 94, Type (0, 1), BuildingBlock: CIFDUS_clean_linker_0, # of connection points: 2
#     Edge 95, Type (0, 1), BuildingBlock: CIFDUS_clean_linker_0, # of connection points: 2
#     Edge 96, Type (0, 1), BuildingBlock: CIFDUS_clean_linker_0, # of connection points: 2
#     Edge 97, Type (0, 1), BuildingBlock: CIFDUS_clean_linker_0, # of connection points: 2
#     Edge 98, Type (0, 1), BuildingBlock: CIFDUS_clean_linker_0, # of connection points: 2
#     Edge 99, Type (0, 1), BuildingBlock: CIFDUS_clean_linker_0, # of connection points: 2
#     Edge 100, Type (0, 1), BuildingBlock: CIFDUS_clean_linker_0, # of connection points: 2
#     Edge 101, Type (0, 1), BuildingBlock: CIFDUS_clean_linker_0, # of connection points: 2
#     Edge 102, Type (0, 1), BuildingBlock: CIFDUS_clean_linker_0, # of connection points: 2
#     Edge 103, Type (0, 1), BuildingBlock: CIFDUS_clean_linker_0, # of connection points: 2
#     Edge 104, Type (0, 1), BuildingBlock: CIFDUS_clean_linker_0, # of connection points: 2
#     Edge 105, Type (0, 1), BuildingBlock: CIFDUS_clean_linker_0, # of connection points: 2
#     Edge 106, Type (0, 1), BuildingBlock: CIFDUS_clean_linker_0, # of connection points: 2
#     Edge 107, Type (0, 1), BuildingBlock: CIFDUS_clean_linker_0, # of connection points: 2
# Relax obj value: 0.020
# Max RMSD: 0.139
# Mean RMSD: 0.073
data_MOF--net-fgl--node1-ESEHIV_clean_sbu_0--node2-KUFVIS_clean_sbu_0--edge1-CIFDUS_clean_linker_0
_symmetry_space_group_name_H-M    P1
_symmetry_Int_Tables_number       1
_symmetry_cell_setting            triclinic
loop_
_symmetry_equiv_pos_as_xyz
'x, y, z'
_cell_length_a     65.055563
_cell_length_b     67.182589
_cell_length_c     44.594185
_cell_angle_alpha  89.541579
_cell_angle_beta   89.470724
_cell_angle_gamma 119.91348
loop_
_atom_site_label
_atom_site_type_symbol
_atom_site_fract_x
_atom_site_fract_y
_atom_site_fract_z
_atom_type_partial_charge
Cu0 Cu 0.01887 0.54337 1.0112 0.0
N1 N 0.03616 0.56889 0.03652 0.0
N2 N 0.04236 0.59399 0.07347 0.0
C3 C 0.02943 0.57197 0.06417 0.0
C4 C 0.05814 0.60502 0.05091 0.0
C5 C 0.05419 0.58965 0.02826 0.0
O6 O 0.99351 0.54713 0.9948 0.0
C7 C 0.02508 0.51212 0.04397 0.0
O8 O 0.04651 0.5301 0.04496 0.0
H9 H 1.01459 0.55851 0.07663 0.0
H10 H 0.06278 0.59375 1.00642 0.0
N11 N 0.03581 0.54178 0.97768 0.0
N12 N 0.04166 0.52642 0.93595 0.0
C13 C 0.02558 0.52655 0.9554 0.0
C14 C 0.05927 0.55174 0.9723 0.0
C15 C 0.06293 0.54243 0.94658 0.0
C16 C 0.98104 0.55264 1.01105 0.0
O17 O 0.98067 0.54979 0.04023 0.0
H18 H 1.00661 0.51531 0.95416 0.0
H19 H 0.07281 0.56408 0.98675 0.0
O20 O 1.00863 0.51452 0.0323 0.0
H21 H 0.07064 0.62327 0.04984 0.0
H22 H 0.08003 0.54645 0.93737 0.0
Cu23 Cu 0.5215 0.56199 0.03313 0.0
N24 N 0.52694 0.57481 0.99228 0.0
N25 N 0.54702 0.59135 0.94976 0.0
C26 C 0.54483 0.57798 0.97377 0.0
C27 C 0.52941 0.59632 0.95307 0.0
C28 C 0.51712 0.58619 0.97943 0.0
O29 O 0.54518 0.59439 0.04927 0.0
C30 C 0.49685 0.51184 1.01718 0.0
O31 O 0.51685 0.51282 0.02449 0.0
H32 H 0.55671 0.5715 0.97862 0.0
H33 H 0.50303 0.58815 0.98941 0.0
N34 N 0.51701 0.54915 0.07367 0.0
N35 N 0.50038 0.53149 0.11714 0.0
C36 C 0.49724 0.53986 0.09095 0.0
C37 C 0.53317 0.54662 0.08922 0.0
C38 C 0.52298 0.53574 0.11609 0.0
C39 C 0.56735 0.60583 0.04294 0.0
O40 O 0.57683 0.59633 0.02638 0.0
H41 H 0.48081 0.53883 0.08415 0.0
H42 H 0.55104 0.55215 0.08141 0.0
O43 O 0.49549 0.53019 0.01805 0.0
H44 H 0.5266 0.60773 0.93859 0.0
H45 H 0.53164 0.53153 0.13361 0.0
Cu46 Cu 0.54345 0.07525 0.05461 0.0
N47 N 0.54444 0.08945 0.01838 0.0
N48 N 0.5344 0.09325 0.97199 0.0
C49 C 0.52784 0.08029 0.99724 0.0
C50 C 0.55593 0.11146 0.97759 0.0
C51 C 0.56218 0.10896 1.00629 0.0
O52 O 0.51012 0.05462 0.06569 0.0
C53 C 0.56838 0.05644 0.02433 0.0
O54 O 0.55554 0.05545 1.00125 0.0
H55 H 0.51137 0.06425 1.00032 0.0
H56 H 0.57868 0.1202 1.01728 0.0
N57 N 0.55749 0.09733 0.084 0.0
N58 N 0.57917 0.11481 0.12401 0.0
C59 C 0.56968 0.09577 0.10713 0.0
C60 C 0.55928 0.11811 0.08608 0.0
C61 C 0.57269 0.12897 0.11082 0.0
C62 C 0.49727 0.06405 0.06653 0.0
O63 O 0.50736 0.08615 0.06052 0.0
H64 H 0.57222 0.0812 0.11077 0.0
H65 H 0.55178 0.12503 0.07041 0.0
O66 O 0.56356 0.0615 0.04995 0.0
H67 H 0.56663 0.12525 0.96187 0.0
H68 H 0.57739 0.14598 0.11835 0.0
Cu69 Cu 0.53257 0.07397 0.53547 0.0
N70 N 0.55749 0.09842 0.5147 0.0
N71 N 0.58622 0.11578 0.47998 0.0
C72 C 0.56791 0.0957 0.49014 0.0
C73 C 0.58725 0.13182 0.49896 0.0
C74 C 0.56953 0.12103 0.52044 0.0
O75 O 0.54279 0.05032 0.53655 0.0
C76 C 0.49933 0.0853 0.51415 0.0
O77 O 0.51668 0.10527 0.52267 0.0
H78 H 0.562 0.07919 0.47996 0.0
H79 H 0.56584 0.12911 0.53898 0.0
N80 N 0.52947 0.08212 0.5744 0.0
N81 N 0.51073 0.08119 0.61704 0.0
C82 C 0.50875 0.07213 0.58964 0.0
C83 C 0.54531 0.09814 0.59272 0.0
C84 C 0.53378 0.09754 0.61919 0.0
C85 C 0.55271 0.04758 0.55979 0.0
O86 O 0.5519 0.0572 0.58491 0.0
H87 H 0.49255 0.05826 0.58072 0.0
H88 H 0.56388 0.10935 0.58732 0.0
O89 O 0.50231 0.0678 0.51635 0.0
H90 H 0.60016 0.14996 0.49785 0.0
H91 H 0.54167 0.1085 0.63828 0.0
Cu92 Cu 0.03719 0.56163 0.5132 0.0
N93 N 0.05754 0.55491 0.53565 0.0
N94 N 0.06704 0.53514 0.5683 0.0
C95 C 0.04981 0.53901 0.55812 0.0
C96 C 0.08652 0.54952 0.55185 0.0
C97 C 0.08066 0.56169 0.53188 0.0
O98 O 1.00924 0.53088 0.5114 0.0
C99 C 0.05347 0.60418 0.53812 0.0
O100 O 0.07334 0.60496 0.53006 0.0
H101 H 0.03155 0.52967 0.56589 0.0
H102 H 0.09234 0.57416 0.51535 0.0
N103 N 0.04787 0.5738 0.47395 0.0
N104 N 0.04973 0.59108 0.42968 0.0
C105 C 0.03781 0.5829 0.45607 0.0
C106 C 0.06672 0.57619 0.45816 0.0
C107 C 0.06797 0.58689 0.43104 0.0
C108 C 1.00586 0.51844 0.48843 0.0
O109 O 0.01544 0.52854 0.46265 0.0
H110 H 0.02227 0.58387 0.46259 0.0
H111 H 0.07873 0.57053 0.46568 0.0
O112 O 0.03394 0.58555 0.53403 0.0
H113 H 0.10376 0.55089 0.5537 0.0
H114 H 0.08117 0.59103 0.4135 0.0
Cu115 Cu 0.52152 0.56124 0.53408 0.0
N116 N 0.54288 0.59106 0.52105 0.0
N117 N 0.57843 0.62152 0.51074 0.0
C118 C 0.56637 0.59927 0.51959 0.0
C119 C 0.56168 0.62754 0.50659 0.0
C120 C 0.53972 0.6087 0.51312 0.0
O121 O 0.5364 0.55709 0.56983 0.0
C122 C 0.50795 0.54527 0.4774 0.0
O123 O 0.50881 0.56522 0.47648 0.0
H124 H 0.57439 0.58904 0.52548 0.0
H125 H 0.52272 0.6079 0.51208 0.0
N126 N 0.49169 0.55717 0.54396 0.0
N127 N 0.45246 0.53746 0.55039 0.0
C128 C 0.47177 0.53688 0.54072 0.0
C129 C 0.48465 0.57125 0.55581 0.0
C130 C 0.46033 0.55891 0.56032 0.0
C131 C 0.5385 0.57069 0.59091 0.0
O132 O 0.52904 0.58381 0.58727 0.0
H133 H 0.47152 0.52166 0.53241 0.0
H134 H 0.49633 0.58904 0.56135 0.0
O135 O 0.51491 0.53982 0.50116 0.0
H136 H 0.56494 0.64419 0.49887 0.0
H137 H 0.44934 0.56504 0.57037 0.0
Cu138 Cu 0.68838 0.89672 0.3484 0.0
N139 N 0.70655 0.92701 0.33467 0.0
N140 N 0.71571 0.96348 0.3274 0.0
C141 C 0.69851 0.94194 0.33457 0.0
C142 C 0.73543 0.96197 0.32264 0.0
C143 C 0.72973 0.93942 0.32723 0.0
O144 O 0.67126 0.89931 0.38487 0.0
C145 C 0.68705 0.87827 0.29172 0.0
O146 O 0.7096 0.89339 0.295 0.0
H147 H 0.6806 0.9372 0.34129 0.0
H148 H 0.74178 0.93274 0.32615 0.0
N149 N 0.70751 0.88528 0.36174 0.0
N150 N 0.7178 0.85852 0.36929 0.0
C151 C 0.70098 0.86301 0.35944 0.0
C152 C 0.72934 0.89553 0.37344 0.0
C153 C 0.73573 0.879 0.37824 0.0
C154 C 0.68499 0.91395 0.40426 0.0
O155 O 0.70791 0.92443 0.39868 0.0
H156 H 0.6843 0.85052 0.34992 0.0
H157 H 0.73995 0.91366 0.37794 0.0
O158 O 0.67255 0.8768 0.31269 0.0
H159 H 0.7528 0.97615 0.3167 0.0
H160 H 0.75223 0.88195 0.38775 0.0
Cu161 Cu 0.19243 0.88869 0.36602 0.0
N162 N 0.16153 0.87108 0.35147 0.0
N163 N 0.13066 0.83939 0.3331 0.0
C164 C 0.15448 0.85179 0.33555 0.0
C165 C 0.1224 0.85147 0.34799 0.0
C166 C 0.14145 0.87093 0.3594 0.0
O167 O 0.1917 0.87094 0.40207 0.0
C168 C 0.20952 0.90123 0.30838 0.0
O169 O 0.19025 0.9029 0.3082 0.0
H170 H 0.16654 0.84615 0.32784 0.0
H171 H 0.14051 0.8832 0.37403 0.0
N172 N 0.20167 0.91901 0.37711 0.0
N173 N 0.22706 0.95586 0.38793 0.0
C174 C 0.22457 0.93532 0.38047 0.0
C175 C 0.18914 0.92968 0.38237 0.0
C176 C 0.20474 0.95235 0.38929 0.0
C177 C 0.18058 0.87296 0.42463 0.0
O178 O 0.17334 0.88799 0.42275 0.0
H179 H 0.23917 0.93207 0.37757 0.0
H180 H 0.17008 0.92169 0.38116 0.0
O181 O 0.2143 0.89368 0.33225 0.0
H182 H 0.10387 0.84622 0.35139 0.0
H183 H 0.20005 0.96534 0.39425 0.0
Cu184 Cu 0.18308 0.38289 0.35947 0.0
N185 N 0.16511 0.36708 0.32653 0.0
N186 N 0.14661 0.36161 0.28284 0.0
C187 C 0.1642 0.37672 0.3004 0.0
C188 C 0.13633 0.34157 0.2985 0.0
C189 C 0.14772 0.34503 0.32548 0.0
O190 O 0.16643 0.39687 0.37864 0.0
C191 C 0.22512 0.39398 0.32983 0.0
O192 O 0.21079 0.37429 0.31727 0.0
H193 H 0.17565 0.39473 0.29502 0.0
H194 H 0.14275 0.33273 0.34375 0.0
N195 N 0.18313 0.3629 0.38823 0.0
N196 N 0.19276 0.35411 0.43226 0.0
C197 C 0.18864 0.36906 0.41686 0.0
C198 C 0.18357 0.34321 0.38519 0.0
C199 C 0.18951 0.33771 0.41246 0.0
C200 C 0.15815 0.40824 0.36558 0.0
O201 O 0.16532 0.41615 0.33819 0.0
H202 H 0.19184 0.38541 0.42535 0.0
H203 H 0.18149 0.33447 0.36422 0.0
O204 O 0.21656 0.40244 0.34833 0.0
H205 H 0.12068 0.32592 0.29191 0.0
H206 H 0.19255 0.32352 0.41684 0.0
Cu207 Cu 0.17847 0.35408 0.86386 0.0
N208 N 0.17333 0.33703 0.82917 0.0
N209 N 0.18018 0.33 0.78246 0.0
C210 C 0.18988 0.34118 0.80798 0.0
C211 C 0.15655 0.31852 0.78754 0.0
C212 C 0.15236 0.32277 0.81657 0.0
O213 O 0.2115 0.3658 0.87757 0.0
C214 C 0.16356 0.38193 0.82979 0.0
O215 O 0.17466 0.37973 0.80644 0.0
H216 H 0.20846 0.35384 0.81022 0.0
H217 H 0.13524 0.3174 0.82691 0.0
N218 N 0.15881 0.33597 0.89526 0.0
N219 N 0.13308 0.32952 0.93267 0.0
C220 C 0.1393 0.33662 0.90402 0.0
C221 C 0.16493 0.32776 0.91913 0.0
C222 C 0.14909 0.32383 0.94234 0.0
C223 C 0.2201 0.35229 0.8763 0.0
O224 O 0.20721 0.33181 0.86491 0.0
H225 H 0.13171 0.34497 0.89111 0.0
H226 H 0.18117 0.32714 0.92073 0.0
O227 O 0.16638 0.37537 0.85568 0.0
H228 H 0.1433 0.30893 0.77093 0.0
H229 H 0.15041 0.31906 0.96519 0.0
Cu230 Cu 0.70299 0.88315 0.83603 0.0
N231 N 0.71718 0.86806 0.81719 0.0
N232 N 0.72323 0.83918 0.80452 0.0
C233 C 0.70757 0.84507 0.81536 0.0
C234 C 0.74344 0.8592 0.7992 0.0
C235 C 0.73962 0.87699 0.80686 0.0
O236 O 0.6851 0.86188 0.87042 0.0
C237 C 0.70068 0.90767 0.78498 0.0
O238 O 0.72369 0.91623 0.78722 0.0
H239 H 0.68987 0.83288 0.82339 0.0
H240 H 0.75258 0.89511 0.80609 0.0
N241 N 0.72623 0.91046 0.8528 0.0
N242 N 0.74205 0.94466 0.87483 0.0
C243 C 0.72345 0.92845 0.85959 0.0
C244 C 0.74737 0.91539 0.86396 0.0
C245 C 0.75721 0.93652 0.87751 0.0
C246 C 0.68754 0.86747 0.89823 0.0
O247 O 0.69773 0.88929 0.90507 0.0
H248 H 0.70738 0.92889 0.85494 0.0
H249 H 0.75467 0.90404 0.86337 0.0
O250 O 0.68714 0.89214 0.80431 0.0
H251 H 0.75992 0.86083 0.79097 0.0
H252 H 0.77397 0.94494 0.88899 0.0
Cu253 Cu 0.19257 0.88238 0.88038 0.0
N254 N 0.17666 0.88499 0.84664 0.0
N255 N 0.15878 0.87733 0.80182 0.0
C256 C 0.17092 0.87194 0.82178 0.0
C257 C 0.1569 0.89447 0.81497 0.0
C258 C 0.1679 0.89913 0.84236 0.0
O259 O 0.17571 0.85002 0.89215 0.0
C260 C 0.23512 0.91751 0.86342 0.0
O261 O 0.22137 0.92664 0.86478 0.0
H262 H 0.17562 0.85876 0.81858 0.0
H263 H 0.16923 0.91184 0.85814 0.0
N264 N 0.19215 0.89894 0.91421 0.0
N265 N 0.2039 0.9185 0.95727 0.0
C266 C 0.2091 0.90781 0.93533 0.0
C267 C 0.17551 0.90399 0.92323 0.0
C268 C 0.18272 0.91607 0.9496 0.0
C269 C 0.1534 0.84192 0.8949 0.0
O270 O 0.14458 0.85543 0.88992 0.0
H271 H 0.22512 0.9067 0.93432 0.0
H272 H 0.15919 0.8991 0.91162 0.0
O273 O 0.22591 0.89605 0.86887 0.0
H274 H 0.14783 0.90292 0.80589 0.0
H275 H 0.17287 0.92229 0.96234 0.0
Cu276 Cu 0.37886 0.23529 0.71267 0.0
N277 N 0.39694 0.26601 0.70084 0.0
N278 N 0.40106 0.29927 0.68443 0.0
C279 C 0.38642 0.27649 0.68765 0.0
C280 C 0.42187 0.30342 0.69613 0.0
C281 C 0.41932 0.28272 0.70615 0.0
O282 O 0.35908 0.23618 0.74681 0.0
C283 C 0.38266 0.22204 0.65585 0.0
O284 O 0.4045 0.23625 0.66406 0.0
H285 H 0.36776 0.26762 0.68227 0.0
H286 H 0.43245 0.28027 0.71768 0.0
N287 N 0.39639 0.22242 0.72742 0.0
N288 N 0.40289 0.19368 0.73871 0.0
C289 C 0.38868 0.19989 0.7248 0.0
C290 C 0.41644 0.23093 0.7434 0.0
C291 C 0.42038 0.21308 0.75066 0.0
C292 C 0.37164 0.24927 0.76813 0.0
O293 O 0.39477 0.25907 0.76529 0.0
H294 H 0.37232 0.18805 0.71389 0.0
H295 H 0.42712 0.24862 0.74998 0.0
O296 O 0.36587 0.21823 0.67454 0.0
H297 H 0.43752 0.32019 0.698 0.0
H298 H 0.43474 0.21418 0.76395 0.0
Cu299 Cu 0.85946 0.21351 0.69129 0.0
N300 N 0.8816 0.21715 0.66094 0.0
N301 N 0.90666 0.2365 0.62283 0.0
C302 C 0.8969 0.23793 0.64884 0.0
C303 C 0.8971 0.21388 0.61777 0.0
C304 C 0.88167 0.20195 0.64136 0.0
O305 O 0.87067 0.24628 0.7021 0.0
C306 C 0.82283 0.17029 0.67453 0.0
O307 O 0.83942 0.16607 0.6837 0.0
H308 H 0.89912 0.25391 0.65715 0.0
H309 H 0.87016 0.18357 0.64272 0.0
N310 N 0.86061 0.19967 0.72743 0.0
N311 N 0.84789 0.18489 0.77358 0.0
C312 C 0.84556 0.19649 0.75025 0.0
C313 C 0.87313 0.18975 0.73646 0.0
C314 C 0.86525 0.18054 0.76498 0.0
C315 C 0.89072 0.25601 0.71563 0.0
O316 O 0.89997 0.24322 0.72303 0.0
H317 H 0.83245 0.20188 0.74909 0.0
H318 H 0.88656 0.18882 0.72306 0.0
O319 O 0.82707 0.19117 0.67579 0.0
H320 H 0.90025 0.20657 0.59791 0.0
H321 H 0.87168 0.17125 0.77819 0.0
Cu322 Cu 0.8721 0.71777 0.68549 0.0
N323 N 0.86878 0.73566 0.65616 0.0
N324 N 0.85196 0.74179 0.61643 0.0
C325 C 0.85111 0.7263 0.63643 0.0
C326 C 0.87127 0.76188 0.62367 0.0
C327 C 0.88166 0.75803 0.64837 0.0
O328 O 0.83961 0.6922 0.68994 0.0
C329 C 0.91787 0.72711 0.67349 0.0
O330 O 0.92216 0.74653 0.68559 0.0
H331 H 0.83813 0.70817 0.63636 0.0
H332 H 0.89748 0.77052 0.65962 0.0
N333 N 0.88226 0.73309 0.72171 0.0
N334 N 0.90053 0.74235 0.76585 0.0
C335 C 0.89222 0.72697 0.7435 0.0
C336 C 0.88396 0.75294 0.73047 0.0
C337 C 0.89522 0.7587 0.75774 0.0
C338 C 0.82724 0.68733 0.71402 0.0
O339 O 0.83796 0.69389 0.73982 0.0
H340 H 0.8937 0.71166 0.74236 0.0
H341 H 0.87822 0.7629 0.71748 0.0
O342 O 0.89641 0.71099 0.67083 0.0
H343 H 0.87736 0.77814 0.61212 0.0
H344 H 0.89989 0.77421 0.76993 0.0
Cu345 Cu 0.84207 0.71201 0.16554 0.0
N346 N 0.8428 0.70047 0.12803 0.0
N347 N 0.86054 0.6991 0.08564 0.0
C348 C 0.86181 0.71156 0.10975 0.0
C349 C 0.83973 0.67925 0.08874 0.0
C350 C 0.82869 0.68019 0.11496 0.0
O351 O 0.87443 0.72163 0.18017 0.0
C352 C 0.80896 0.72511 0.15201 0.0
O353 O 0.79728 0.70281 0.14794 0.0
H354 H 0.87701 0.72799 0.11508 0.0
H355 H 0.81207 0.66675 0.12426 0.0
N356 N 0.82024 0.68978 0.19205 0.0
N357 N 0.79798 0.67677 0.23365 0.0
C358 C 0.8127 0.69537 0.21701 0.0
C359 C 0.80985 0.6667 0.19273 0.0
C360 C 0.79583 0.65857 0.2184 0.0
C361 C 0.87835 0.71255 0.20324 0.0
O362 O 0.86109 0.70108 0.22277 0.0
H363 H 0.8181 0.71289 0.22292 0.0
H364 H 0.81263 0.65656 0.17621 0.0
O365 O 0.83077 0.73438 0.15966 0.0
H366 H 0.83322 0.66494 0.07355 0.0
H367 H 0.78538 0.64081 0.22566 0.0
Cu368 Cu 0.36573 0.2247 0.2059 0.0
N369 N 0.37861 0.20791 0.18828 0.0
N370 N 0.37957 0.17685 0.17205 0.0
C371 C 0.36814 0.18476 0.18941 0.0
C372 C 0.39805 0.19579 0.1596 0.0
C373 C 0.3975 0.21491 0.16976 0.0
O374 O 0.34755 0.20434 0.24073 0.0
C375 C 0.36473 0.24796 0.15367 0.0
O376 O 0.38756 0.25663 0.1579 0.0
H377 H 0.35176 0.17384 0.20159 0.0
H378 H 0.40963 0.23258 0.16339 0.0
N379 N 0.3888 0.25303 0.22107 0.0
N380 N 0.40408 0.28833 0.24018 0.0
C381 C 0.38471 0.27015 0.2287 0.0
C382 C 0.41161 0.26059 0.2277 0.0
C383 C 0.42108 0.28233 0.23952 0.0
C384 C 0.35293 0.20965 0.26833 0.0
O385 O 0.36678 0.23129 0.27508 0.0
H386 H 0.36753 0.26887 0.22671 0.0
H387 H 0.42062 0.25088 0.22449 0.0
O388 O 0.35033 0.23269 0.17266 0.0
H389 H 0.41087 0.19579 0.14395 0.0
H390 H 0.43911 0.29286 0.24701 0.0
Cu391 Cu 0.85604 0.21041 0.20842 0.0
N392 N 0.82922 0.20359 0.18607 0.0
N393 N 0.80396 0.19135 0.1479 0.0
C394 C 0.82377 0.19287 0.15951 0.0
C395 C 0.79685 0.20181 0.16782 0.0
C396 C 0.81253 0.20942 0.19127 0.0
O397 O 0.86193 0.18477 0.20733 0.0
C398 C 0.88436 0.25601 0.18905 0.0
O399 O 0.86761 0.25865 0.20185 0.0
H400 H 0.83445 0.18671 0.14867 0.0
H401 H 0.81214 0.21907 0.21031 0.0
N402 N 0.85449 0.21892 0.24789 0.0
N403 N 0.86658 0.23755 0.29121 0.0
C404 C 0.87329 0.23274 0.26477 0.0
C405 C 0.83527 0.21482 0.26428 0.0
C406 C 0.84268 0.22618 0.29103 0.0
C407 C 0.84594 0.16367 0.20841 0.0
O408 O 0.8519 0.14787 0.20436 0.0
H409 H 0.89152 0.24006 0.25715 0.0
H410 H 0.81716 0.20474 0.25708 0.0
O411 O 0.88257 0.23629 0.1892 0.0
H412 H 0.78149 0.20392 0.16556 0.0
H413 H 0.83143 0.22638 0.30882 0.0
Mn414 Mn 1.01172 0.67814 0.25731 0.0
Mn415 Mn 0.95821 0.63023 0.25806 0.0
C416 C 0.97866 0.67943 0.23903 0.0
C417 C 0.03892 0.71187 0.282 0.0
C418 C 0.9978 0.63855 0.21331 0.0
O419 O 0.01598 0.65716 0.28763 0.0
O420 O 0.97852 0.62729 0.28931 0.0
C421 C 0.94034 0.63342 0.31811 0.0
N422 N 0.93783 0.63199 0.28778 0.0
C423 C 0.90111 0.63241 0.29136 0.0
C424 C 0.9032 0.63368 0.32264 0.0
C425 C 0.92292 0.63421 0.33606 0.0
C426 C 0.91886 0.63134 0.27464 0.0
H427 H 0.95557 0.63405 0.32852 0.0
C428 C 1.00001 0.63777 0.29859 0.0
O429 O 0.04585 0.7034 0.26063 0.0
O430 O 0.0167 0.70033 0.28947 0.0
N431 N 0.93707 0.63143 0.22943 0.0
C432 C 0.93886 0.6324 0.19892 0.0
C433 C 0.92124 0.63331 0.18203 0.0
C434 C 0.90197 0.63321 0.19664 0.0
C435 C 0.9005 0.63221 0.22805 0.0
C436 C 0.91851 0.63116 0.24372 0.0
H437 H 0.95374 0.63271 0.18756 0.0
O438 O 0.99995 0.69461 0.23047 0.0
O439 O 0.97751 0.66371 0.25735 0.0
O440 O 1.01293 0.65884 0.22172 0.0
O441 O 0.97747 0.62668 0.22611 0.0
C442 C 0.88222 0.63283 0.24444 0.0
C443 C 0.88248 0.63287 0.27606 0.0
H444 H 0.88995 0.63456 0.33655 0.0
H445 H 0.92475 0.63537 0.36017 0.0
H446 H 0.92258 0.63424 0.15779 0.0
H447 H 0.88855 0.63418 0.18353 0.0
H448 H 0.86808 0.63369 0.23293 0.0
H449 H 0.86854 0.63375 0.2884 0.0
Mn450 Mn 0.39625 0.43076 0.30973 0.0
Mn451 Mn 0.38633 0.47503 0.29891 0.0
C452 C 0.36134 0.42842 0.32795 0.0
C453 C 0.39444 0.39725 0.2912 0.0
C454 C 0.42206 0.47574 0.34347 0.0
O455 O 0.42006 0.4502 0.2766 0.0
O456 O 0.40785 0.47562 0.2667 0.0
C457 C 0.35989 0.46155 0.24211 0.0
N458 N 0.36113 0.46731 0.27151 0.0
C459 C 0.32309 0.4651 0.26978 0.0
C460 C 0.32145 0.45925 0.23943 0.0
C461 C 0.33989 0.45739 0.22558 0.0
C462 C 0.34344 0.46904 0.28511 0.0
H463 H 0.37406 0.46015 0.23138 0.0
C464 C 0.42069 0.46654 0.26091 0.0
O465 O 0.40957 0.40954 0.31148 0.0
O466 O 0.38032 0.40435 0.28191 0.0
N467 N 0.36552 0.47626 0.32851 0.0
C468 C 0.3692 0.48065 0.35835 0.0
C469 C 0.35198 0.48218 0.3758 0.0
C470 C 0.33126 0.47938 0.36237 0.0
C471 C 0.32796 0.47507 0.33157 0.0
C472 C 0.34578 0.47381 0.3153 0.0
H473 H 0.38512 0.48291 0.36877 0.0
O474 O 0.3686 0.41504 0.33886 0.0
O475 O 0.37457 0.4424 0.30676 0.0
O476 O 0.4166 0.45473 0.34116 0.0
O477 O 0.41239 0.48479 0.32783 0.0
C478 C 0.30752 0.4716 0.31648 0.0
C479 C 0.30509 0.46664 0.28561 0.0
H480 H 0.306 0.45592 0.22665 0.0
H481 H 0.3387 0.45278 0.2022 0.0
H482 H 0.35465 0.4855 0.39956 0.0
H483 H 0.31795 0.48042 0.37595 0.0
H484 H 0.29339 0.47238 0.3285 0.0
H485 H 0.28912 0.46362 0.27437 0.0
Mn486 Mn 0.68229 0.09438 0.29558 0.0
Mn487 Mn 0.69856 0.15044 0.29711 0.0
C488 C 0.71617 0.12111 0.27037 0.0
C489 C 0.68235 0.06167 0.31279 0.0
C490 C 0.65943 0.11643 0.25812 0.0
O491 O 0.6638 0.09565 0.33163 0.0
O492 O 0.67476 0.13319 0.32966 0.0
C493 C 0.72289 0.16229 0.35549 0.0
N494 N 0.72335 0.16585 0.32532 0.0
C495 C 0.76282 0.19836 0.32721 0.0
C496 C 0.76275 0.19512 0.35832 0.0
C497 C 0.74274 0.17691 0.37249 0.0
C498 C 0.74261 0.18314 0.31142 0.0
H499 H 0.70745 0.1485 0.36654 0.0
C500 C 0.66291 0.113 0.34144 0.0
O501 O 0.66518 0.06037 0.29682 0.0
O502 O 0.69897 0.08203 0.32017 0.0
N503 N 0.72168 0.16912 0.2673 0.0
C504 C 0.7194 0.16906 0.23696 0.0
C505 C 0.73823 0.18564 0.21927 0.0
C506 C 0.75904 0.20226 0.233 0.0
C507 C 0.76103 0.20189 0.26425 0.0
C508 C 0.74174 0.18487 0.28069 0.0
H509 H 0.70331 0.15647 0.22636 0.0
O510 O 0.70476 0.09987 0.26195 0.0
O511 O 0.70709 0.12628 0.29312 0.0
O512 O 0.66048 0.09906 0.26754 0.0
O513 O 0.67332 0.13677 0.267 0.0
C514 C 0.78133 0.21778 0.27975 0.0
C515 C 0.78217 0.21607 0.31123 0.0
H516 H 0.77799 0.20642 0.37152 0.0
H517 H 0.74257 0.17426 0.39648 0.0
H518 H 0.73663 0.18577 0.19514 0.0
H519 H 0.77333 0.21529 0.21934 0.0
H520 H 0.79644 0.23132 0.26769 0.0
H521 H 0.79777 0.22845 0.32299 0.0
Mn522 Mn 0.03748 0.42364 0.76189 0.0
Mn523 Mn 0.06167 0.40811 0.70604 0.0
C524 C 0.0634 0.40967 0.77294 0.0
C525 C 0.04017 0.45216 0.79518 0.0
C526 C 1.00933 0.37943 0.72555 0.0
O527 O 0.03396 0.44023 0.7246 0.0
O528 O 0.0539 0.43145 0.69041 0.0
C529 C 0.10639 0.45169 0.69404 0.0
N530 N 0.09497 0.42894 0.70156 0.0
C531 C 0.1319 0.42888 0.70376 0.0
C532 C 0.14402 0.45226 0.69575 0.0
C533 C 0.13121 0.46371 0.69095 0.0
C534 C 0.10712 0.41772 0.70617 0.0
H535 H 0.09665 0.46062 0.69053 0.0
C536 C 0.0433 0.4424 0.69838 0.0
O537 O 0.01993 0.43417 0.78927 0.0
O538 O 0.05847 0.45391 0.781 0.0
N539 N 0.07047 0.38612 0.71881 0.0
C540 C 0.05637 0.36428 0.72943 0.0
C541 C 0.06662 0.35089 0.73722 0.0
C542 C 0.09121 0.36004 0.73395 0.0
C543 C 0.10537 0.38256 0.723 0.0
C544 C 0.09416 0.39507 0.71547 0.0
H545 H 0.03749 0.3572 0.73223 0.0
O546 O 0.04807 0.40843 0.79277 0.0
O547 O 0.06249 0.41833 0.74717 0.0
O548 O 1.01008 0.39183 0.74768 0.0
O549 O 0.02745 0.38492 0.70869 0.0
C550 C 0.13023 0.39329 0.72006 0.0
C551 C 0.14348 0.41641 0.71037 0.0
H552 H 0.16318 0.46166 0.69366 0.0
H553 H 0.14045 0.48179 0.685 0.0
H554 H 0.05559 0.33358 0.74586 0.0
H555 H 0.09908 0.34974 0.74028 0.0
H556 H 0.13939 0.38405 0.72576 0.0
H557 H 0.16263 0.4246 0.70875 0.0
Mn558 Mn 0.65918 0.66078 0.75152 0.0
Mn559 Mn 0.69572 0.67231 0.81039 0.0
C560 C 0.69693 0.66593 0.74377 0.0
C561 C 0.62817 0.63568 0.72093 0.0
C562 C 0.68509 0.7075 0.78245 0.0
O563 O 0.63673 0.65101 0.78776 0.0
O564 O 0.66208 0.65669 0.82515 0.0
C565 C 0.6818 0.62492 0.82969 0.0
N566 N 0.69888 0.64631 0.82059 0.0
C567 C 0.72947 0.63645 0.8265 0.0
C568 C 0.71223 0.61435 0.83611 0.0
C569 C 0.68828 0.60854 0.83762 0.0
C570 C 0.72197 0.65207 0.819 0.0
H571 H 0.66339 0.62041 0.83092 0.0
C572 C 0.64112 0.64976 0.81536 0.0
O573 O 0.63328 0.65672 0.72488 0.0
O574 O 0.64129 0.62894 0.73452 0.0
N575 N 0.72867 0.68708 0.79956 0.0
C576 C 0.74274 0.70836 0.78724 0.0
C577 C 0.76706 0.71644 0.78285 0.0
C578 C 0.7767 0.70266 0.7914 0.0
C579 C 0.76188 0.68085 0.80414 0.0
C580 C 0.73778 0.67373 0.80801 0.0
H581 H 0.73543 0.719 0.78055 0.0
O582 O 0.68566 0.66893 0.72186 0.0
O583 O 0.68583 0.66012 0.7696 0.0
O584 O 0.67207 0.69462 0.76168 0.0
O585 O 0.69453 0.70079 0.8021 0.0
C586 C 0.76993 0.66563 0.81231 0.0
C587 C 0.75374 0.64344 0.82345 0.0
H588 H 0.71713 0.60163 0.84211 0.0
H589 H 0.67486 0.59149 0.84488 0.0
H590 H 0.77835 0.73323 0.77281 0.0
H591 H 0.79542 0.70886 0.78769 0.0
H592 H 0.78846 0.67064 0.8095 0.0
H593 H 0.76008 0.63174 0.82912 0.0
Mn594 Mn 0.40533 0.04642 0.81969 0.0
Mn595 Mn 0.36702 0.02387 0.7626 0.0
C596 C 0.3664 0.01983 0.8304 0.0
C597 C 0.43567 0.0496 0.84959 0.0
C598 C 0.38478 0.07186 0.78584 0.0
O599 O 0.42663 0.05467 0.78281 0.0
O600 O 0.39995 0.03561 0.74705 0.0
C601 C 0.37327 0.98403 0.74992 0.0
N602 N 0.35884 0.99261 0.75712 0.0
C603 C 0.32435 0.95486 0.75749 0.0
C604 C 0.33882 0.94561 0.74991 0.0
C605 C 0.36339 0.96026 0.74621 0.0
C606 C 0.33522 0.97866 0.76104 0.0
H607 H 0.39216 0.99525 0.74704 0.0
C608 C 0.42133 0.04798 0.7559 0.0
O609 O 0.4327 0.06687 0.84373 0.0
O610 O 0.42066 0.02987 0.83818 0.0
N611 N 0.33442 1.01178 0.7738 0.0
C612 C 0.323 0.02341 0.78151 0.0
C613 C 0.29832 1.01125 0.78624 0.0
C614 C 0.28559 0.98734 0.78256 0.0
C615 C 0.29764 0.97582 0.77396 0.0
C616 C 0.32223 0.98886 0.76946 0.0
H617 H 0.33266 0.04181 0.78414 0.0
O618 O 0.37994 0.03353 0.851 0.0
O619 O 0.37627 0.02156 0.80416 0.0
O620 O 0.39587 0.06973 0.80771 0.0
O621 O 0.374 0.05616 0.76655 0.0
C622 C 0.28625 0.95188 0.77 0.0
C623 C 0.29961 0.9414 0.7619 0.0
H624 H 0.33127 0.9273 0.74701 0.0
H625 H 0.37468 0.95324 0.74048 0.0
H626 H 0.28914 0.02029 0.79274 0.0
H627 H 0.26658 0.978 0.78645 0.0
H628 H 0.26727 0.94133 0.77353 0.0
H629 H 0.2907 0.92294 0.75931 0.0
Mn630 Mn 0.68652 1.01108 0.60152 0.0
Mn631 Mn 0.63314 0.96228 0.60725 0.0
C632 C 0.65179 1.01088 0.58642 0.0
C633 C 0.71862 0.04647 0.61927 0.0
C634 C 0.66917 0.96976 0.55798 0.0
O635 O 0.69235 0.99124 0.63256 0.0
O636 O 0.65581 0.95992 0.63558 0.0
C637 C 0.6205 0.96726 0.66968 0.0
N638 N 0.6154 0.96491 0.63991 0.0
C639 C 0.57924 0.96564 0.64897 0.0
C640 C 0.58404 0.96788 0.67973 0.0
C641 C 0.60477 0.96873 0.69011 0.0
C642 C 0.59547 0.96405 0.62969 0.0
H643 H 0.63648 0.96809 0.6778 0.0
C644 C 0.67749 0.97146 0.64403 0.0
O645 O 0.72117 0.03447 0.5985 0.0
O646 O 0.69735 0.03771 0.6307 0.0
N647 N 0.60955 0.96251 0.58208 0.0
C648 C 0.60829 0.96186 0.55158 0.0
C649 C 0.58899 0.96173 0.53754 0.0
C650 C 0.57118 0.96224 0.55497 0.0
C651 C 0.5728 0.96283 0.58631 0.0
C652 C 0.59234 0.96272 0.59908 0.0
H653 H 0.622 0.96164 0.53801 0.0
O654 O 0.67242 0.02594 0.57547 0.0
O655 O 0.65217 0.99621 0.60538 0.0
O656 O 0.68449 0.98977 0.56688 0.0
O657 O 0.64938 0.95756 0.57184 0.0
C658 C 0.55606 0.96403 0.60534 0.0
C659 C 0.55927 0.96543 0.63664 0.0
H660 H 0.57205 0.9692 0.69554 0.0
H661 H 0.60867 0.9706 0.71379 0.0
H662 H 0.58793 0.96139 0.51333 0.0
H663 H 0.55647 0.96241 0.54404 0.0
H664 H 0.54082 0.96423 0.59609 0.0
H665 H 0.54645 0.96667 0.65101 0.0
Mn666 Mn 0.08385 0.76177 0.61146 0.0
Mn667 Mn 0.0668 0.80177 0.60943 0.0
C668 C 0.04806 0.75396 0.63356 0.0
C669 C 0.08427 0.72978 0.59114 0.0
C670 C 0.10221 0.80316 0.65432 0.0
O671 O 0.10597 0.78406 0.57836 0.0
O672 O 0.09317 0.80954 0.58026 0.0
C673 C 0.04674 0.79091 0.54847 0.0
N674 N 0.04408 0.79351 0.57826 0.0
C675 C 1.00353 0.78403 0.57166 0.0
C676 C 1.00588 0.78138 0.54088 0.0
C677 C 0.02756 0.78477 0.52927 0.0
C678 C 0.0232 0.79 0.58973 0.0
H679 H 0.06336 0.79345 0.53946 0.0
C680 C 0.10693 0.80269 0.56965 0.0
O681 O 0.10023 0.74321 0.60993 0.0
O682 O 0.069 0.73569 0.58284 0.0
N683 N 0.0415 0.79712 0.63609 0.0
C684 C 0.04237 0.80103 0.66613 0.0
C685 C 0.02224 0.79878 0.68116 0.0
C686 C 1.00156 0.79293 0.6651 0.0
C687 C 1.00131 0.78968 0.63406 0.0
C688 C 0.02197 0.79232 0.62027 0.0
H689 H 0.05829 0.80574 0.67857 0.0
O690 O 0.0584 0.74257 0.64148 0.0
O691 O 0.05877 0.76951 0.61261 0.0
O692 O 0.10262 0.78543 0.64457 0.0
O693 O 0.08951 0.81075 0.64265 0.0
C694 C 0.98136 0.78389 0.61628 0.0
C695 C 0.98242 0.78091 0.58513 0.0
H696 H 0.99115 0.77669 0.52598 0.0
H697 H 0.02949 0.78268 0.50555 0.0
H698 H 0.02264 0.80151 0.70508 0.0
H699 H 0.98599 0.79101 0.67681 0.0
H700 H 0.96505 0.7815 0.62638 0.0
H701 H 0.9669 0.77626 0.57173 0.0
Mn702 Mn 0.31509 0.38247 0.60998 0.0
Mn703 Mn 0.29743 0.42163 0.61887 0.0
C704 C 0.33959 0.42004 0.59498 0.0
C705 C 0.3326 0.36131 0.62533 0.0
C706 C 0.27909 0.38627 0.57007 0.0
O707 O 0.28841 0.3671 0.64101 0.0
O708 O 0.27821 0.39456 0.64561 0.0
C709 C 0.31297 0.43492 0.68131 0.0
N710 N 0.3137 0.44086 0.65189 0.0
C711 C 0.34076 0.48065 0.66208 0.0
C712 C 0.34017 0.47498 0.69254 0.0
C713 C 0.32624 0.45202 0.70217 0.0
C714 C 0.32701 0.46291 0.64238 0.0
H715 H 0.30238 0.41728 0.68879 0.0
C716 C 0.27583 0.37492 0.65242 0.0
O717 O 0.31654 0.35411 0.60489 0.0
O718 O 0.33819 0.38079 0.63778 0.0
N719 N 0.31475 0.4487 0.59448 0.0
C720 C 0.31458 0.45104 0.56411 0.0
C721 C 0.32832 0.47284 0.55069 0.0
C722 C 0.34195 0.49199 0.56861 0.0
C723 C 0.34165 0.4892 0.59984 0.0
C724 C 0.32748 0.46708 0.61198 0.0
H725 H 0.30423 0.43635 0.55022 0.0
O726 O 0.3419 0.40366 0.58307 0.0
O727 O 0.32289 0.41394 0.61519 0.0
O728 O 0.29141 0.37715 0.57727 0.0
O729 O 0.27986 0.40312 0.58404 0.0
C730 C 0.3553 0.50738 0.61933 0.0
C731 C 0.35486 0.50311 0.65042 0.0
H732 H 0.35051 0.48809 0.70866 0.0
H733 H 0.32579 0.44749 0.72561 0.0
H734 H 0.32852 0.47484 0.52657 0.0
H735 H 0.35274 0.50873 0.55814 0.0
H736 H 0.36648 0.52465 0.61058 0.0
H737 H 0.36569 0.51717 0.66512 0.0
Mn738 Mn 0.68871 0.78122 0.10957 0.0
Mn739 Mn 0.71886 0.77303 0.05276 0.0
C740 C 0.71555 0.7682 0.12038 0.0
C741 C 0.68717 0.80689 0.14589 0.0
C742 C 0.66751 0.73807 0.06905 0.0
O743 O 0.68389 0.7982 0.07341 0.0
O744 O 0.70535 0.79225 0.03853 0.0
C745 C 0.75785 0.82125 0.04804 0.0
N746 N 0.75048 0.79851 0.05163 0.0
C747 C 0.79072 0.80619 0.05397 0.0
C748 C 0.79876 0.8297 0.05011 0.0
C749 C 0.78225 0.83726 0.04726 0.0
C750 C 0.7662 0.79109 0.05489 0.0
H751 H 0.7452 0.82711 0.04583 0.0
C752 C 0.69226 0.80055 0.0466 0.0
O753 O 0.66818 0.7883 0.13793 0.0
O754 O 0.70644 0.81078 0.13208 0.0
N755 N 0.73313 0.75472 0.06138 0.0
C756 C 0.72246 0.73142 0.06402 0.0
C757 C 0.73648 0.721 0.06664 0.0
C758 C 0.76132 0.73458 0.06579 0.0
C759 C 0.77191 0.75844 0.06197 0.0
C760 C 0.75701 0.76784 0.05941 0.0
H761 H 0.70338 0.72084 0.06423 0.0
O762 O 0.6994 0.76588 0.13956 0.0
O763 O 0.7161 0.77874 0.0954 0.0
O764 O 0.66489 0.74899 0.09111 0.0
O765 O 0.68679 0.74608 0.05366 0.0
C766 C 0.79665 0.77328 0.06074 0.0
C767 C 0.80605 0.79716 0.05699 0.0
H768 H 0.81757 0.84209 0.04937 0.0
H769 H 0.78831 0.85538 0.04438 0.0
H770 H 0.72817 0.70255 0.06928 0.0
H771 H 0.77208 0.7265 0.06802 0.0
H772 H 0.80861 0.76653 0.06293 0.0
H773 H 0.82511 0.80842 0.05635 0.0
Mn774 Mn 0.32206 1.00158 0.12686 0.0
Mn775 Mn 0.36504 0.01539 0.17848 0.0
C776 C 0.36156 0.01816 0.11132 0.0
C777 C 0.2931 0.9758 0.09361 0.0
C778 C 0.3426 0.04475 0.16602 0.0
O779 O 0.30317 0.98344 0.16464 0.0
O780 O 0.33366 0.99233 0.19542 0.0
C781 C 0.36284 0.97033 0.18184 0.0
N782 N 0.37562 0.99349 0.17738 0.0
C783 C 0.41192 0.99249 0.17184 0.0
C784 C 0.39917 0.96863 0.17651 0.0
C785 C 0.37451 0.95749 0.18138 0.0
C786 C 0.39929 1.00433 0.17223 0.0
H787 H 0.3439 0.96173 0.18575 0.0
C788 C 0.31148 0.98145 0.18973 0.0
O789 O 0.29236 0.9933 0.10443 0.0
O790 O 0.31001 0.97257 0.10327 0.0
N791 N 0.3967 0.03744 0.16608 0.0
C792 C 0.40634 0.0605 0.1615 0.0
C793 C 0.43084 0.07416 0.15606 0.0
C794 C 0.44527 0.06408 0.15603 0.0
C795 C 0.43505 0.04043 0.16154 0.0
C796 C 0.41052 0.02767 0.16675 0.0
H797 H 0.39543 0.06843 0.16189 0.0
O798 O 0.34582 0.01868 0.09421 0.0
O799 O 0.35375 1.00739 0.13696 0.0
O800 O 0.32901 0.03246 0.1451 0.0
O801 O 0.35588 0.03937 0.18084 0.0
C802 C 0.44821 0.02895 0.16174 0.0
C803 C 0.43663 1.00498 0.16669 0.0
H804 H 0.40812 0.95868 0.17629 0.0
H805 H 0.36454 0.93907 0.18491 0.0
H806 H 0.43861 0.09243 0.15196 0.0
H807 H 0.46414 0.07465 0.15167 0.0
H808 H 0.4672 0.03835 0.15762 0.0
H809 H 0.44689 0.9963 0.16633 0.0
Mn810 Mn 0.0499 0.36992 0.11 0.0
Mn811 Mn 1.01026 0.35044 0.05418 0.0
C812 C 1.00993 0.34809 0.12085 0.0
C813 C 0.07533 0.36516 0.14185 0.0
C814 C 0.03512 0.39994 0.07495 0.0
O815 O 0.07007 0.37286 0.07346 0.0
O816 O 0.04187 0.35696 0.03832 0.0
C817 C 1.0089 0.30647 0.04225 0.0
N818 N 0.99747 0.31807 0.04997 0.0
C819 C 0.96009 0.28286 0.05441 0.0
C820 C 0.97144 0.27058 0.04627 0.0
C821 C 0.99596 0.28245 0.0402 0.0
C822 C 0.97386 0.30682 0.0558 0.0
H823 H 0.02776 0.31545 0.03778 0.0
C824 C 0.06333 0.36528 0.04709 0.0
O825 O 0.07829 0.3854 0.13591 0.0
O826 O 0.05798 0.34786 0.12876 0.0
N827 N 0.97895 0.34275 0.06718 0.0
C828 C 0.971 0.35689 0.07708 0.0
C829 C 0.94699 0.34759 0.08512 0.0
C830 C 0.93141 0.32385 0.08302 0.0
C831 C 0.93999 0.30962 0.07288 0.0
C832 C 0.96405 0.31989 0.06485 0.0
H833 H 0.98292 0.37508 0.07925 0.0
O834 O 0.02435 0.36149 0.14101 0.0
O835 O 0.01938 0.34811 0.09511 0.0
O836 O 0.04676 0.39731 0.09596 0.0
O837 O 0.02169 0.3838 0.05736 0.0
C838 C 0.92572 0.28558 0.07114 0.0
C839 C 0.93576 0.27221 0.0619 0.0
H840 H 0.96157 0.25203 0.04492 0.0
H841 H 1.00488 0.27308 0.03409 0.0
H842 H 0.94056 0.35867 0.0932 0.0
H843 H 0.91297 0.31671 0.08963 0.0
H844 H 0.90708 0.27716 0.07732 0.0
H845 H 0.92469 0.25371 0.06108 0.0
Mn846 Mn 0.36563 0.34726 0.95633 0.0
Mn847 Mn 0.31041 0.30044 0.9599 0.0
C848 C 0.33433 0.34804 0.932 0.0
C849 C 0.39731 0.3825 0.97415 0.0
C850 C 0.34876 0.30362 0.91739 0.0
O851 O 0.36759 0.32863 0.99202 0.0
O852 O 0.33054 0.29832 0.99249 0.0
C853 C 0.29633 0.31128 0.01823 0.0
N854 N 0.29221 0.30654 0.98852 0.0
C855 C 0.25683 0.30946 0.99114 0.0
C856 C 0.26063 0.31422 0.02178 0.0
C857 C 0.2805 0.3152 0.03536 0.0
C858 C 0.27329 0.30583 0.97517 0.0
H859 H 0.31161 0.31214 0.02879 0.0
C860 C 0.35147 0.30948 1.00335 0.0
O861 O 0.40071 0.36896 0.95691 0.0
O862 O 0.37539 0.37539 0.98196 0.0
N863 N 0.28831 0.29946 0.93099 0.0
C864 C 0.28691 0.29427 0.90131 0.0
C865 C 0.26779 0.29223 0.88457 0.0
C866 C 0.25015 0.29528 0.89853 0.0
C867 C 0.25164 0.30007 0.92922 0.0
C868 C 0.27099 0.30167 0.94484 0.0
H869 H 0.30037 0.29189 0.89039 0.0
O870 O 0.35621 0.36185 0.92392 0.0
O871 O 0.33124 0.33412 0.9544 0.0
O872 O 0.36455 0.32341 0.9264 0.0
O873 O 0.32772 0.29299 0.92859 0.0
C874 C 0.23475 0.30345 0.94489 0.0
C875 C 0.23742 0.30828 0.97579 0.0
H876 H 0.24845 0.31723 0.03509 0.0
H877 H 0.28361 0.31895 0.05897 0.0
H878 H 0.26672 0.28843 0.86091 0.0
H879 H 0.23556 0.29395 0.88548 0.0
H880 H 0.21974 0.30256 0.93334 0.0
H881 H 0.22443 0.31105 0.98754 0.0
Mn882 Mn 0.73093 0.08219 0.9545 0.0
Mn883 Mn 0.72176 0.12707 0.94598 0.0
C884 C 0.69477 0.07812 0.96881 0.0
C885 C 0.73129 0.05084 0.93296 0.0
C886 C 0.75042 0.12307 0.99682 0.0
O887 O 0.75776 0.10385 0.92653 0.0
O888 O 0.74841 0.13146 0.91865 0.0
C889 C 0.70472 0.11895 0.88351 0.0
N890 N 0.70119 0.12175 0.91297 0.0
C891 C 0.66309 0.11783 0.90276 0.0
C892 C 0.6664 0.11507 0.87228 0.0
C893 C 0.68728 0.11559 0.86264 0.0
C894 C 0.68114 0.12122 0.9225 0.0
H895 H 0.72071 0.11925 0.87601 0.0
C896 C 0.76118 0.12218 0.91338 0.0
O897 O 0.7442 0.06103 0.95608 0.0
O898 O 0.71814 0.05876 0.92274 0.0
N899 N 0.69646 0.12518 0.97043 0.0
C900 C 0.69546 0.12696 1.00077 0.0
C901 C 0.67543 0.1262 1.01413 0.0
C902 C 0.65672 0.12377 0.99617 0.0
C903 C 0.65824 0.12221 0.96498 0.0
C904 C 0.67871 0.12324 0.95291 0.0
H905 H 0.7097 0.12872 1.01474 0.0
O906 O 0.70133 0.06404 0.97901 0.0
O907 O 0.70937 0.09384 0.94989 0.0
O908 O 0.74727 0.10328 0.9901 0.0
O909 O 0.74245 0.1337 0.98113 0.0
C910 C 0.64003 0.1192 0.94546 0.0
C911 C 0.64244 0.11697 0.91438 0.0
H912 H 0.65294 0.11237 0.85612 0.0
H913 H 0.68991 0.11335 0.83917 0.0
H914 H 0.67436 0.12733 0.03823 0.0
H915 H 0.64118 0.1229 1.00659 0.0
H916 H 0.62395 0.11823 0.95417 0.0
H917 H 0.62818 0.11436 0.89964 0.0
Mn918 Mn 0.99302 0.70201 0.93518 0.0
Mn919 Mn 1.00696 0.75708 0.94481 0.0
C920 C 0.03054 0.73088 0.92137 0.0
C921 C 0.98812 0.66834 0.95718 0.0
C922 C 0.97641 0.72744 0.8941 0.0
O923 O 0.96635 0.69973 0.96151 0.0
O924 O 0.98008 0.73681 0.97235 0.0
C925 C 0.02541 0.76297 1.00643 0.0
N926 N 0.02857 0.76988 0.97715 0.0
C927 C 0.06754 0.80154 0.98674 0.0
C928 C 0.06467 0.79484 1.01705 0.0
C929 C 0.04355 0.7754 0.0269 0.0
C930 C 0.04896 0.78831 0.96733 0.0
H931 H 1.00916 0.74808 1.01405 0.0
C932 C 0.96486 0.7154 0.97549 0.0
O933 O 0.97666 0.6678 0.93321 0.0
O934 O 1.00273 0.68838 0.96783 0.0
N935 N 0.03243 0.77911 0.91989 0.0
C936 C 0.03232 0.78338 0.88997 0.0
C937 C 0.05209 0.80233 0.87655 0.0
C938 C 0.07157 0.81695 0.8941 0.0
C939 C 0.07104 0.81257 0.92497 0.0
C940 C 0.05084 0.79344 0.9371 0.0
H941 H 0.01726 0.77242 0.87643 0.0
O942 O 0.02255 0.71014 0.91186 0.0
O943 O 0.01669 0.73387 0.93988 0.0
O944 O 0.9791 0.7101 0.8991 0.0
O945 O 0.98512 0.74522 0.91062 0.0
C946 C 0.08978 0.8264 0.94418 0.0
C947 C 0.0881 0.82079 0.975 0.0
H948 H 0.07857 0.80444 0.03294 0.0
H949 H 0.04123 0.77008 0.05024 0.0
H950 H 0.05229 0.80568 0.85275 0.0
H951 H 0.08683 0.83148 0.88365 0.0
H952 H 0.10567 0.84123 0.93542 0.0
H953 H 0.10276 0.83137 0.98947 0.0
Mn954 Mn 0.36393 0.12074 0.47074 0.0
Mn955 Mn 0.38717 0.11 0.40858 0.0
C956 C 0.39192 0.10819 0.47486 0.0
C957 C 0.36239 0.14392 0.50999 0.0
C958 C 0.33755 0.0773 0.43192 0.0
O959 O 0.35697 0.13806 0.43705 0.0
O960 O 0.3729 0.12933 0.39761 0.0
C961 C 0.42612 0.15753 0.3969 0.0
N962 N 0.41873 0.13494 0.40224 0.0
C963 C 0.45881 0.14205 0.39965 0.0
C964 C 0.46684 0.16536 0.39394 0.0
C965 C 0.45042 0.17313 0.39262 0.0
C966 C 0.43439 0.1273 0.40369 0.0
H967 H 0.41358 0.16359 0.39599 0.0
C968 C 0.36199 0.13906 0.40888 0.0
O969 O 0.34384 0.12543 0.50119 0.0
O970 O 0.38193 0.14969 0.49514 0.0
N971 N 0.40169 0.09166 0.41545 0.0
C972 C 0.3911 0.06875 0.42188 0.0
C973 C 0.40509 0.05827 0.42423 0.0
C974 C 0.42976 0.07141 0.41973 0.0
C975 C 0.4402 0.09489 0.41273 0.0
C976 C 0.42534 0.10433 0.41038 0.0
H977 H 0.37215 0.05856 0.42536 0.0
O978 O 0.37729 0.10508 0.49676 0.0
O979 O 0.38969 0.11843 0.45124 0.0
O980 O 0.3386 0.08972 0.45401 0.0
O981 O 0.35485 0.08306 0.41355 0.0
C982 C 0.46481 0.10935 0.40835 0.0
C983 C 0.47412 0.13293 0.40191 0.0
H984 H 0.48557 0.17747 0.39072 0.0
H985 H 0.45648 0.19112 0.38836 0.0
H986 H 0.39689 0.04015 0.42964 0.0
H987 H 0.44052 0.06333 0.4219 0.0
H988 H 0.47677 0.10257 0.41022 0.0
H989 H 0.4931 0.14392 0.39892 0.0
Mn990 Mn 0.98795 0.35359 0.436 0.0
Mn991 Mn 0.02505 0.37517 0.49441 0.0
C992 C 0.02875 0.3728 0.42769 0.0
C993 C 0.96362 0.32393 0.4039 0.0
C994 C 0.99726 0.39682 0.46965 0.0
O995 O 0.96711 0.33589 0.47226 0.0
O996 O 0.99421 0.34901 0.50897 0.0
C997 C 0.03159 0.33576 0.51 0.0
N998 N 0.04098 0.35818 0.50145 0.0
C999 C 0.08055 0.36384 0.50133 0.0
C1000 C 0.07131 0.34086 0.51029 0.0
C1001 C 0.04672 0.32676 0.51461 0.0
C1002 C 0.06464 0.37194 0.49738 0.0
H1003 H 1.0127 0.3248 0.51323 0.0
C1004 C 0.97337 0.33524 0.49922 0.0
O1005 O 0.96008 0.34089 0.40949 0.0
O1006 O 0.98143 0.32404 0.41706 0.0
N1007 N 0.05561 0.39999 0.48261 0.0
C1008 C 0.06149 0.42115 0.47149 0.0
C1009 C 0.08531 0.437 0.46451 0.0
C1010 C 0.10284 0.43095 0.46907 0.0
C1011 C 0.09639 0.40909 0.48057 0.0
C1012 C 0.07238 0.39406 0.48731 0.0
H1013 H 0.0481 0.42588 0.46774 0.0
O1014 O 1.01458 0.37115 0.40627 0.0
O1015 O 0.01856 0.3634 0.4532 0.0
O1016 O 0.98839 0.38303 0.44798 0.0
O1017 O 1.01026 0.39478 0.48933 0.0
C1018 C 0.11276 0.40144 0.48492 0.0
C1019 C 0.10486 0.37885 0.49534 0.0
H1020 H 0.08289 0.33378 0.51358 0.0
H1021 H 0.03944 0.30896 0.52137 0.0
H1022 H 0.09013 0.45379 0.45549 0.0
H1023 H 0.12116 0.44314 0.46336 0.0
H1024 H 0.13143 0.41267 0.47983 0.0
H1025 H 0.11757 0.37305 0.49812 0.0
Mn1026 Mn 0.74727 0.72573 0.43944 0.0
Mn1027 Mn 0.69962 0.69604 0.39525 0.0
C1028 C 0.7092 0.71051 0.45903 0.0
C1029 C 0.77697 0.7296 0.47148 0.0
C1030 C 0.72909 0.74782 0.3945 0.0
O1031 O 0.76157 0.71787 0.4038 0.0
O1032 O 0.72854 0.69833 0.37654 0.0
C1033 C 0.69684 0.65075 0.40047 0.0
N1034 N 0.68633 0.66386 0.40285 0.0
C1035 C 0.6485 0.63067 0.41465 0.0
C1036 C 0.65887 0.61678 0.4121 0.0
C1037 C 0.68318 0.6269 0.40519 0.0
C1038 C 0.66307 0.65436 0.41012 0.0
H1039 H 0.71548 0.65843 0.39499 0.0
C1040 C 0.75073 0.70641 0.38076 0.0
O1041 O 0.77915 0.74666 0.45533 0.0
O1042 O 0.75778 0.70985 0.46832 0.0
N1043 N 0.66997 0.69183 0.41008 0.0
C1044 C 0.66294 0.70772 0.41315 0.0
C1045 C 0.63921 0.70049 0.42072 0.0
C1046 C 0.62287 0.67698 0.42463 0.0
C1047 C 0.63045 0.66092 0.42105 0.0
C1048 C 0.65433 0.66915 0.41358 0.0
H1049 H 0.67539 0.72578 0.41018 0.0
O1050 O 0.72689 0.72772 0.47186 0.0
O1051 O 0.71415 0.7026 0.4352 0.0
O1052 O 0.74382 0.7489 0.41378 0.0
O1053 O 0.71145 0.72895 0.38603 0.0
C1054 C 0.61529 0.63707 0.42488 0.0
C1055 C 0.62432 0.62196 0.42178 0.0
H1056 H 0.64837 0.59837 0.41557 0.0
H1057 H 0.69135 0.61631 0.40332 0.0
H1058 H 0.63353 0.71301 0.42354 0.0
H1059 H 0.60461 0.67147 0.43059 0.0
H1060 H 0.59674 0.6302 0.43074 0.0
H1061 H 0.61259 0.6037 0.42532 0.0
H1062 H 0.05498 0.5021 0.07385 0.0
H1063 H 0.98793 0.47023 0.02847 0.0
H1064 H 0.98547 0.43281 0.03324 0.0
H1065 H 1.00338 0.4095 0.04809 0.0
H1066 H 0.06976 0.44136 0.0951 0.0
H1067 H 0.07165 0.4785 0.09134 0.0
C1068 C 0.03968 0.48694 0.06527 0.0
C1069 C 0.0217 0.48902 0.05074 0.0
C1070 C 0.03845 0.46552 0.06794 0.0
C1071 C 1.00196 0.46915 0.03991 0.0
C1072 C 1.00065 0.44775 0.04239 0.0
C1073 C 0.01827 0.42454 0.05754 0.0
C1074 C 0.03647 0.42259 0.07173 0.0
C1075 C 0.01899 0.4458 0.05593 0.0
C1076 C 0.05552 0.44231 0.08401 0.0
C1077 C 0.0566 0.46357 0.08195 0.0
H1078 H 0.60532 0.63957 1.01324 0.0
H1079 H 0.563 0.62734 0.09334 0.0
H1080 H 0.58925 0.66727 0.10872 0.0
H1081 H 0.62592 0.70585 0.09993 0.0
H1082 H 0.66542 0.71665 1.01704 0.0
H1083 H 0.63872 0.67766 1.00255 0.0
C1084 C 0.60178 0.64557 0.03412 0.0
C1085 C 0.58237 0.63029 0.05225 0.0
C1086 C 0.6166 0.66859 0.04244 0.0
C1087 C 0.57786 0.63865 0.07893 0.0
C1088 C 0.59293 0.66154 0.08775 0.0
C1089 C 0.62849 0.69977 0.07856 0.0
C1090 C 0.6482 0.71455 0.06004 0.0
C1091 C 0.61259 0.67676 0.06977 0.0
C1092 C 0.6509 0.70601 0.03231 0.0
C1093 C 0.63554 0.68349 0.02378 0.0
H1094 H 0.46679 0.08038 0.06632 0.0
H1095 H 0.46948 0.01837 0.08306 0.0
H1096 H 0.42716 0.9981 0.09686 0.0
H1097 H 0.38981 0.99885 0.107 0.0
H1098 H 0.38828 0.06132 0.09005 0.0
H1099 H 0.42973 0.08055 0.07321 0.0
C1100 C 0.45823 0.0624 0.07292 0.0
C1101 C 0.47145 0.05101 0.07392 0.0
C1102 C 0.43408 0.05098 0.08091 0.0
C1103 C 0.45982 0.02762 0.08222 0.0
C1104 C 0.4356 0.01602 0.09005 0.0
C1105 C 0.39872 0.01671 0.09975 0.0
C1106 C 0.38647 0.02904 0.10086 0.0
C1107 C 0.42264 0.02765 0.09002 0.0
C1108 C 0.39766 0.05177 0.0901 0.0
C1109 C 0.42131 0.06273 0.08048 0.0
H1110 H 0.49393 0.12018 0.49261 0.0
H1111 H 0.45339 0.04806 0.51518 0.0
H1112 H 0.41642 0.04862 0.5059 0.0
H1113 H 0.39544 0.07046 0.49329 0.0
H1114 H 0.4373 0.14221 0.46926 0.0
H1115 H 0.47371 0.14109 0.47788 0.0
C1116 C 0.47704 0.10445 0.49537 0.0
C1117 C 0.47661 0.08409 0.50473 0.0
C1118 C 0.45596 0.10498 0.49015 0.0
C1119 C 0.45442 0.06394 0.50782 0.0
C1120 C 0.43323 0.06434 0.5028 0.0
C1121 C 0.41258 0.08578 0.48991 0.0
C1122 C 0.41361 0.10637 0.48012 0.0
C1123 C 0.43372 0.08487 0.49435 0.0
C1124 C 0.43596 0.12611 0.47622 0.0
C1125 C 0.45683 0.12547 0.4812 0.0
H1126 H 0.99088 0.48621 0.44518 0.0
H1127 H 1.00514 0.49513 0.53981 0.0
H1128 H 1.00312 0.45787 0.54288 0.0
H1129 H 1.00147 0.4244 0.5173 0.0
H1130 H 0.98565 0.41536 0.4229 0.0
H1131 H 0.98404 0.45074 0.42126 0.0
C1132 C 0.99303 0.4798 0.46664 0.0
C1133 C 0.9985 0.4937 0.4921 0.0
C1134 C 0.99189 0.45834 0.46823 0.0
C1135 C 1.00102 0.48496 0.51977 0.0
C1136 C 1.00005 0.46365 0.5215 0.0
C1137 C 0.99743 0.43006 0.49646 0.0
C1138 C 0.99394 0.41723 0.47021 0.0
C1139 C 0.99623 0.45049 0.49566 0.0
C1140 C 0.98844 0.42476 0.44349 0.0
C1141 C 0.98756 0.4451 0.44247 0.0
H1142 H 0.60519 0.668 0.50997 0.0
H1143 H 0.60907 0.60606 0.49953 0.0
H1144 H 0.65088 0.62867 0.48677 0.0
H1145 H 0.68514 0.66556 0.47213 0.0
H1146 H 0.68211 0.72778 0.4812 0.0
H1147 H 0.64125 0.70563 0.50089 0.0
C1148 C 0.61515 0.65943 0.50492 0.0
C1149 C 0.60369 0.63526 0.50539 0.0
C1150 C 0.63934 0.67259 0.49706 0.0
C1151 C 0.61719 0.62455 0.49961 0.0
C1152 C 0.64122 0.63749 0.49214 0.0
C1153 C 0.6755 0.67421 0.47867 0.0
C1154 C 0.68595 0.69798 0.47421 0.0
C1155 C 0.65223 0.66142 0.48982 0.0
C1156 C 0.67397 0.70932 0.48386 0.0
C1157 C 0.65067 0.69667 0.49502 0.0
H1158 H 0.98561 0.59017 0.03831 0.0
H1159 H 0.96491 0.55362 0.95502 0.0
H1160 H 0.96311 0.58578 0.93133 0.0
H1161 H 0.9716 0.62595 0.93313 0.0
H1162 H 0.99655 0.66344 1.01539 0.0
H1163 H 0.99261 0.62935 0.04067 0.0
C1164 C 0.98003 0.58897 1.01521 0.0
C1165 C 0.97504 0.56946 0.9985 0.0
C1166 C 0.98031 0.60793 1.00142 0.0
C1167 C 0.96856 0.56841 0.96835 0.0
C1168 C 0.96775 0.58685 0.95478 0.0
C1169 C 0.97594 0.62652 0.95665 0.0
C1170 C 0.98449 0.64718 0.97234 0.0
C1171 C 0.97426 0.60698 0.97087 0.0
C1172 C 0.99018 0.64779 1.00276 0.0
C1173 C 0.98784 0.62829 1.01727 0.0
H1174 H 0.49536 0.47133 1.0041 0.0
H1175 H 0.45022 0.501 1.01318 0.0
H1176 H 0.41543 0.46377 1.00253 0.0
H1177 H 0.3975 0.42232 0.99009 0.0
H1178 H 0.44346 0.39377 0.97842 0.0
H1179 H 0.47783 0.43061 0.99078 0.0
C1180 C 0.47794 0.46973 1.00374 0.0
C1181 C 0.47563 0.48918 1.0095 0.0
C1182 C 0.45793 0.44823 0.99723 0.0
C1183 C 0.45275 0.48654 1.00873 0.0
C1184 C 0.43274 0.46514 1.00272 0.0
C1185 C 0.41502 0.42413 0.99052 0.0
C1186 C 0.41773 0.40507 0.9835 0.0
C1187 C 0.43505 0.44578 0.99695 0.0
C1188 C 0.4407 0.40798 0.98372 0.0
C1189 C 0.46046 0.42914 0.99077 0.0
H1190 H 0.58879 0.05638 0.97085 0.0
H1191 H 0.59988 0.05856 0.06636 0.0
H1192 H 0.63988 0.06492 0.05755 0.0
H1193 H 0.67265 0.07212 0.02255 0.0
H1194 H 0.66173 0.07097 0.92736 0.0
H1195 H 0.62067 0.06178 0.93612 0.0
C1196 C 0.59976 0.05785 0.98982 0.0
C1197 C 0.59123 0.05692 0.01926 0.0
C1198 C 0.6229 0.06197 0.9846 0.0
C1199 C 0.60589 0.05911 0.04347 0.0
C1200 C 0.62883 0.06286 0.03846 0.0
C1201 C 0.6612 0.06991 1.00383 0.0
C1202 C 0.67029 0.07311 0.9744 0.0
C1203 C 0.63768 0.06475 1.00912 0.0
C1204 C 0.65525 0.06948 0.9502 0.0
C1205 C 0.63176 0.06401 0.95522 0.0
H1206 H 0.56976 0.03431 0.60667 0.0
H1207 H 0.57188 0.0378 0.51003 0.0
H1208 H 0.60233 0.02633 0.50931 0.0
H1209 H 0.6307 0.01784 0.53673 0.0
H1210 H 0.62785 0.01501 0.63335 0.0
H1211 H 0.59582 0.02396 0.63346 0.0
C1212 C 0.57662 0.03235 0.58532 0.0
C1213 C 0.56837 0.03703 0.55842 0.0
C1214 C 0.59438 0.02611 0.58512 0.0
C1215 C 0.5776 0.03421 0.53111 0.0
C1216 C 0.59525 0.02784 0.53072 0.0
C1217 C 0.62288 0.01902 0.55773 0.0
C1218 C 0.63138 0.01523 0.58505 0.0
C1219 C 0.60417 0.02418 0.55763 0.0
C1220 C 0.62133 0.01726 0.61205 0.0
C1221 C 0.60304 0.0225 0.61213 0.0
H1222 H 0.09187 0.64215 0.55904 0.0
H1223 H 0.01748 0.61445 0.54146 0.0
H1224 H 0.0207 0.65119 0.55511 0.0
H1225 H 0.04504 0.69159 0.57107 0.0
H1226 H 0.11896 0.71826 0.59063 0.0
H1227 H 0.11561 0.6816 0.57681 0.0
C1228 C 0.07628 0.64405 0.5583 0.0
C1229 C 0.05445 0.62551 0.54912 0.0
C1230 C 0.07828 0.66516 0.56623 0.0
C1231 C 0.03445 0.62833 0.54858 0.0
C1232 C 0.03634 0.64941 0.55619 0.0
C1233 C 0.06045 0.68942 0.57207 0.0
C1234 C 0.08234 0.70778 0.58152 0.0
C1235 C 0.05823 0.66803 0.56478 0.0
C1236 C 0.10199 0.70451 0.58329 0.0
C1237 C 0.10006 0.68351 0.57546 0.0
H1238 H 0.42723 0.52012 0.6009 0.0
H1239 H 0.42664 0.51055 0.50564 0.0
H1240 H 0.38981 0.47347 0.5106 0.0
H1241 H 0.35993 0.44228 0.54289 0.0
H1242 H 0.36327 0.45023 0.63873 0.0
H1243 H 0.39688 0.48927 0.63311 0.0
C1244 C 0.41857 0.51005 0.58131 0.0
C1245 C 0.42913 0.51792 0.55294 0.0
C1246 C 0.39816 0.48838 0.5846 0.0
C1247 C 0.41842 0.50469 0.52759 0.0
C1248 C 0.39757 0.48351 0.53048 0.0
C1249 C 0.36792 0.45278 0.5624 0.0
C1250 C 0.35874 0.44394 0.59107 0.0
C1251 C 0.38762 0.47493 0.55897 0.0
C1252 C 0.36958 0.45719 0.61638 0.0
C1253 C 0.38888 0.47939 0.61319 0.0
H1254 H 0.75423 0.85013 0.37489 0.0
H1255 H 0.67816 0.81645 0.36517 0.0
H1256 H 0.67565 0.77928 0.36702 0.0
H1257 H 0.69436 0.75598 0.37541 0.0
H1258 H 0.76966 0.7893 0.39057 0.0
H1259 H 0.77312 0.8268 0.3821 0.0
C1260 C 0.73706 0.83474 0.37333 0.0
C1261 C 0.71649 0.8364 0.36993 0.0
C1262 C 0.73556 0.81318 0.37527 0.0
C1263 C 0.69446 0.81604 0.36742 0.0
C1264 C 0.69291 0.79459 0.36863 0.0
C1265 C 0.71155 0.77139 0.37656 0.0
C1266 C 0.73163 0.76985 0.38399 0.0
C1267 C 0.71328 0.79294 0.37299 0.0
C1268 C 0.75385 0.79005 0.38515 0.0
C1269 C 0.75585 0.8115 0.38045 0.0
H1270 H 0.23425 0.99011 0.42545 0.0
H1271 H 0.26958 0.96955 0.36092 0.0
H1272 H 0.30687 1.00513 0.3688 0.0
H1273 H 0.32959 0.04232 0.3939 0.0
H1274 H 0.29435 0.06256 0.45925 0.0
H1275 H 0.25712 0.02711 0.4511 0.0
C1276 C 0.25007 0.9935 0.41298 0.0
C1277 C 0.24903 0.97709 0.39262 0.0
C1278 C 0.27159 0.01401 0.4178 0.0
C1279 C 0.26986 0.98167 0.37697 0.0
C1280 C 0.29121 1.00211 0.38137 0.0
C1281 C 0.31379 0.03904 0.40638 0.0
C1282 C 0.31496 0.0553 0.42715 0.0
C1283 C 0.29232 0.01843 0.40175 0.0
C1284 C 0.29418 0.05048 0.44318 0.0
C1285 C 0.27278 0.03016 0.43849 0.0
H1286 H 0.12604 0.37635 0.40408 0.0
H1287 H 0.14099 0.43747 0.35417 0.0
H1288 H 0.10259 0.43276 0.37019 0.0
H1289 H 0.06342 0.40958 0.39605 0.0
H1290 H 0.04792 0.34652 0.44106 0.0
H1291 H 0.08761 0.35344 0.42902 0.0
C1292 C 0.12113 0.38891 0.39709 0.0
C1293 C 0.1365 0.40739 0.3782 0.0
C1294 C 0.09871 0.38553 0.40526 0.0
C1295 C 0.12955 0.42317 0.36886 0.0
C1296 C 0.10754 0.4204 0.37787 0.0
C1297 C 0.06894 0.39755 0.40336 0.0
C1298 C 0.05318 0.37804 0.42047 0.0
C1299 C 0.09175 0.40139 0.39565 0.0
C1300 C 0.06012 0.36212 0.42893 0.0
C1301 C 0.08275 0.36598 0.42186 0.0
H1302 H 0.16276 0.41673 0.7982 0.0
H1303 H 0.11794 0.35448 0.84823 0.0
H1304 H 0.08296 0.35708 0.83521 0.0
H1305 H 0.06456 0.37633 0.80763 0.0
H1306 H 0.10971 0.44056 0.76188 0.0
H1307 H 0.14479 0.43817 0.77527 0.0
C1308 C 0.14537 0.40398 0.80664 0.0
C1309 C 0.14309 0.38564 0.82464 0.0
C1310 C 0.12523 0.4058 0.79943 0.0
C1311 C 0.12036 0.36912 0.83511 0.0
C1312 C 0.10024 0.37045 0.82734 0.0
C1313 C 0.0821 0.38973 0.80056 0.0
C1314 C 0.08442 0.40794 0.78226 0.0
C1315 C 0.10237 0.38859 0.80924 0.0
C1316 C 0.10734 0.42571 0.7745 0.0
C1317 C 0.12746 0.42449 0.78248 0.0
H1318 H 0.68507 0.8019 0.78297 0.0
H1319 H 0.75389 0.82522 0.82079 0.0
H1320 H 0.74808 0.78634 0.81806 0.0
H1321 H 0.72321 0.74553 0.80516 0.0
H1322 H 0.65558 0.72282 0.76368 0.0
H1323 H 0.66104 0.76143 0.76756 0.0
C1324 C 0.69871 0.79836 0.79061 0.0
C1325 C 0.71983 0.81632 0.80216 0.0
C1326 C 0.69545 0.77606 0.78829 0.0
C1327 C 0.73757 0.81167 0.81165 0.0
C1328 C 0.7342 0.78944 0.81018 0.0
C1329 C 0.70969 0.74904 0.79693 0.0
C1330 C 0.68897 0.73123 0.78423 0.0
C1331 C 0.7132 0.77147 0.79857 0.0
C1332 C 0.67173 0.73618 0.77343 0.0
C1333 C 0.67481 0.75827 0.77573 0.0
H1334 H 0.25953 0.96319 0.87004 0.0
H1335 H 0.26836 0.90626 0.84357 0.0
H1336 H 0.31032 0.93302 0.83116 0.0
H1337 H 0.34406 0.9732 0.82599 0.0
H1338 H 0.33415 0.02909 0.85415 0.0
H1339 H 0.29291 1.00208 0.86798 0.0
C1340 C 0.27057 0.95652 0.86154 0.0
C1341 C 0.26079 0.93279 0.85738 0.0
C1342 C 0.29442 0.97187 0.85471 0.0
C1343 C 0.27549 0.92447 0.84693 0.0
C1344 C 0.29943 0.93977 0.83983 0.0
C1345 C 0.33268 0.97931 0.83493 0.0
C1346 C 0.3416 1.00305 0.83798 0.0
C1347 C 0.30901 0.96357 0.84323 0.0
C1348 C 0.32728 1.01089 0.85091 0.0
C1349 C 0.3038 0.99548 0.85886 0.0
H1350 H 0.67587 0.96529 0.31796 0.0
H1351 H 0.75046 1.00758 0.33591 0.0
H1352 H 0.74634 0.04179 0.33542 0.0
H1353 H 0.72167 0.05979 0.32838 0.0
H1354 H 0.64719 0.01714 0.30993 0.0
H1355 H 0.65101 0.98285 0.31319 0.0
C1356 C 0.6912 0.98191 0.32218 0.0
C1357 C 0.71344 0.98378 0.32693 0.0
C1358 C 0.68867 1.00145 0.32207 0.0
C1359 C 0.73319 1.00561 0.33175 0.0
C1360 C 0.7308 0.02519 0.33173 0.0
C1361 C 0.70621 0.04295 0.32559 0.0
C1362 C 0.68416 0.04098 0.319 0.0
C1363 C 0.70864 0.02332 0.32678 0.0
C1364 C 0.66435 0.01909 0.31504 0.0
C1365 C 0.66653 0.99949 0.31675 0.0
H1366 H 0.08766 0.80549 0.35177 0.0
H1367 H 0.14318 0.82199 0.28628 0.0
H1368 H 0.1205 0.78348 0.26536 0.0
H1369 H 0.08407 0.74513 0.26489 0.0
H1370 H 0.02891 0.72939 0.33093 0.0
H1371 H 0.05219 0.76734 0.35229 0.0
C1372 C 0.09472 0.80077 0.33274 0.0
C1373 C 0.11704 0.81674 0.32049 0.0
C1374 C 0.08164 0.77857 0.32095 0.0
C1375 C 0.1261 0.81005 0.29623 0.0
C1376 C 0.1131 0.78801 0.28422 0.0
C1377 C 0.07729 0.74995 0.28414 0.0
C1378 C 0.0547 0.73434 0.29618 0.0
C1379 C 0.09078 0.77208 0.29635 0.0
C1380 C 0.04617 0.74098 0.32107 0.0
C1381 C 0.05946 0.76276 0.33333 0.0
H1382 H 0.26014 0.4098 0.37151 0.0
H1383 H 0.24736 0.39867 0.27681 0.0
H1384 H 0.28843 0.40825 0.26801 0.0
H1385 H 0.32743 0.41797 0.28734 0.0
H1386 H 0.34043 0.42718 0.38203 0.0
H1387 H 0.29983 0.4198 0.39101 0.0
C1388 C 0.26661 0.41007 0.34892 0.0
C1389 C 0.25092 0.40397 0.32472 0.0
C1390 C 0.29012 0.41479 0.34417 0.0
C1391 C 0.25922 0.4036 0.29568 0.0
C1392 C 0.28261 0.40883 0.29068 0.0
C1393 C 0.32136 0.41853 0.3099 0.0
C1394 C 0.33694 0.42373 0.33392 0.0
C1395 C 0.29809 0.41412 0.31477 0.0
C1396 C 0.32875 0.42358 0.36319 0.0
C1397 C 0.30561 0.41944 0.36826 0.0
H1398 H 0.25605 0.34926 0.85006 0.0
H1399 H 0.23481 0.36574 0.93365 0.0
H1400 H 0.26831 0.36582 0.9588 0.0
H1401 H 0.302 0.35795 0.95759 0.0
H1402 H 0.32459 0.34444 0.87286 0.0
H1403 H 0.29263 0.34679 0.84747 0.0
C1404 C 0.25917 0.35351 0.87362 0.0
C1405 C 0.2431 0.35773 0.8899 0.0
C1406 C 0.2786 0.35375 0.88777 0.0
C1407 C 0.24718 0.36292 0.92049 0.0
C1408 C 0.26622 0.36273 0.93492 0.0
C1409 C 0.29982 0.3555 0.93359 0.0
C1410 C 0.31493 0.34995 0.91726 0.0
C1411 C 0.28173 0.35758 0.91895 0.0
C1412 C 0.31271 0.34798 0.88599 0.0
C1413 C 0.2945 0.34943 0.87146 0.0
H1414 H 0.72037 0.96777 0.85636 0.0
H1415 H 0.76798 0.96779 0.92311 0.0
H1416 H 0.76942 1.0011 0.9467 0.0
H1417 H 0.75595 0.0295 0.94948 0.0
H1418 H 0.70728 0.02827 0.88336 0.0
H1419 H 0.70716 0.99596 0.85886 0.0
C1420 C 0.73094 0.9749 0.87619 0.0
C1421 C 0.74393 0.9651 0.88793 0.0
C1422 C 0.73138 0.99381 0.88995 0.0
C1423 C 0.75796 0.97502 0.9133 0.0
C1424 C 0.75866 0.99401 0.927 0.0
C1425 C 0.74534 0.02216 0.92971 0.0
C1426 C 0.73159 0.03126 0.91838 0.0
C1427 C 0.74527 1.00343 0.91567 0.0
C1428 C 0.71798 0.02158 0.89267 0.0
C1429 C 0.71791 1.00309 0.87857 0.0
H1430 H 0.12176 0.81006 0.85882 0.0
H1431 H 0.14656 0.82128 0.9496 0.0
H1432 H 0.11047 0.78628 0.96626 0.0
H1433 H 0.06916 0.75597 0.95569 0.0
H1434 H 0.04505 0.74488 0.86452 0.0
H1435 H 0.08358 0.77616 0.84703 0.0
C1436 C 0.11963 0.80424 0.88201 0.0
C1437 C 0.13675 0.81785 0.90295 0.0
C1438 C 0.09871 0.78448 0.89136 0.0
C1439 C 0.13375 0.81064 0.93307 0.0
C1440 C 0.113 0.79083 0.94261 0.0
C1441 C 0.07252 0.76047 0.93204 0.0
C1442 C 0.05417 0.74911 0.91145 0.0
C1443 C 0.09488 0.77823 0.92215 0.0
C1444 C 0.05883 0.75409 0.88072 0.0
C1445 C 0.08084 0.77183 0.87074 0.0
H1446 H 0.40821 0.17475 0.78884 0.0
H1447 H 0.38684 0.16082 0.6968 0.0
H1448 H 0.37754 0.1209 0.70343 0.0
H1449 H 0.37651 0.09024 0.73546 0.0
H1450 H 0.397 0.10463 0.82812 0.0
H1451 H 0.40525 0.14385 0.82134 0.0
C1452 C 0.40175 0.16297 0.77024 0.0
C1453 C 0.39849 0.17063 0.74234 0.0
C1454 C 0.39602 0.14006 0.77442 0.0
C1455 C 0.38953 0.15517 0.71848 0.0
C1456 C 0.38418 0.1324 0.72229 0.0
C1457 C 0.38244 0.10186 0.75424 0.0
C1458 C 0.3863 0.09448 0.78214 0.0
C1459 C 0.38736 0.12462 0.7502 0.0
C1460 C 0.39407 0.10984 0.80626 0.0
C1461 C 0.39889 0.13236 0.80244 0.0
H1462 H 0.93261 0.27889 0.68719 0.0
H1463 H 0.88724 0.28976 0.74733 0.0
H1464 H 0.91964 0.3293 0.75602 0.0
H1465 H 0.9627 0.36005 0.74903 0.0
H1466 H 1.00595 0.34695 0.68695 0.0
H1467 H 0.97276 0.30959 0.67647 0.0
C1468 C 0.92944 0.29014 0.70137 0.0
C1469 C 0.90722 0.28144 0.71589 0.0
C1470 C 0.94814 0.31259 0.70638 0.0
C1471 C 0.90386 0.29611 0.73514 0.0
C1472 C 0.92259 0.31867 0.74041 0.0
C1473 C 0.96482 0.34909 0.73309 0.0
C1474 C 0.98732 0.35676 0.71913 0.0
C1475 C 0.94512 0.32702 0.72662 0.0
C1476 C 0.98928 0.34203 0.69833 0.0
C1477 C 0.97016 0.3204 0.69218 0.0
H1478 H 0.78652 0.65281 0.7397 0.0
H1479 H 0.81382 0.71422 0.68504 0.0
H1480 H 0.77564 0.71287 0.68838 0.0
H1481 H 0.73536 0.69599 0.71052 0.0
H1482 H 0.70654 0.63259 0.76092 0.0
H1483 H 0.7439 0.63237 0.75477 0.0
C1484 C 0.78385 0.66553 0.72799 0.0
C1485 C 0.80286 0.68353 0.71208 0.0
C1486 C 0.7616 0.66437 0.72944 0.0
C1487 C 0.79931 0.70003 0.6971 0.0
C1488 C 0.77753 0.69937 0.69918 0.0
C1489 C 0.73732 0.68214 0.72004 0.0
C1490 C 0.71888 0.66509 0.73774 0.0
C1491 C 0.75871 0.68193 0.71588 0.0
C1492 C 0.72109 0.6466 0.74868 0.0
C1493 C 0.74235 0.64635 0.74491 0.0
H1494 H 0.76146 0.70742 0.1529 0.0
H1495 H 0.82663 0.77189 0.14213 0.0
H1496 H 0.80374 0.7913 0.13182 0.0
H1497 H 0.76456 0.78931 0.12345 0.0
H1498 H 0.7003 0.72424 0.13557 0.0
H1499 H 0.72339 0.70581 0.14799 0.0
C1500 C 0.77082 0.72577 0.1484 0.0
C1501 C 0.79587 0.73807 0.14806 0.0
C1502 C 0.75757 0.73671 0.1426 0.0
C1503 C 0.80745 0.76192 0.1426 0.0
C1504 C 0.7943 0.77301 0.13664 0.0
C1505 C 0.75573 0.77108 0.1286 0.0
C1506 C 0.73069 0.75792 0.12734 0.0
C1507 C 0.76929 0.76051 0.1361 0.0
C1508 C 0.71947 0.73457 0.13551 0.0
C1509 C 0.7327 0.72403 0.1427 0.0
H1510 H 0.36159 0.14139 0.21177 0.0
H1511 H 0.3814 0.15899 0.11879 0.0
H1512 H 0.36936 0.119 0.10811 0.0
H1513 H 0.35449 0.07909 0.12553 0.0
H1514 H 0.33843 0.0621 0.21931 0.0
H1515 H 0.34728 0.10144 0.22942 0.0
C1516 C 0.3631 0.13637 0.18918 0.0
C1517 C 0.37237 0.15315 0.16609 0.0
C1518 C 0.35665 0.11336 0.18336 0.0
C1519 C 0.37454 0.14647 0.13697 0.0
C1520 C 0.36754 0.12357 0.13084 0.0
C1521 C 0.35251 0.08396 0.14805 0.0
C1522 C 0.34529 0.06764 0.17156 0.0
C1523 C 0.35868 0.10687 0.15385 0.0
C1524 C 0.34359 0.07431 0.20083 0.0
C1525 C 0.34879 0.09682 0.20661 0.0
H1526 H 0.91949 0.25527 0.15717 0.0
H1527 H 0.89743 0.30152 0.19214 0.0
H1528 H 0.93439 0.33446 0.17366 0.0
H1529 H 0.97394 0.35011 0.14927 0.0
H1530 H 0.99525 0.30333 0.11468 0.0
H1531 H 0.95773 0.27055 0.13163 0.0
C1532 C 0.92269 0.27254 0.16073 0.0
C1533 C 0.90584 0.27595 0.17623 0.0
C1534 C 0.94392 0.29129 0.15027 0.0
C1535 C 0.91017 0.29844 0.18034 0.0
C1536 C 0.93133 0.31728 0.16989 0.0
C1537 C 0.97013 0.33268 0.14538 0.0
C1538 C 0.98682 0.32892 0.13019 0.0
C1539 C 0.94847 0.31392 0.15514 0.0
C1540 C 0.98221 0.30644 0.12568 0.0
C1541 C 0.96088 0.28775 0.13548 0.0
H1542 H 0.36951 0.29159 0.64195 0.0
H1543 H 0.41666 0.34283 0.70342 0.0
H1544 H 0.39995 0.36736 0.6902 0.0
H1545 H 0.36969 0.37275 0.66338 0.0
H1546 H 0.32189 0.31979 0.60371 0.0
H1547 H 0.34069 0.2972 0.61459 0.0
C1548 C 0.37614 0.30814 0.65246 0.0
C1549 C 0.39406 0.31528 0.67385 0.0
C1550 C 0.36604 0.32168 0.64541 0.0
C1551 C 0.40294 0.33701 0.68675 0.0
C1552 C 0.3932 0.3509 0.67943 0.0
C1553 C 0.36341 0.35625 0.65285 0.0
C1554 C 0.34429 0.34793 0.63293 0.0
C1555 C 0.37436 0.34317 0.65922 0.0
C1556 C 0.33648 0.32661 0.61924 0.0
C1557 C 0.34726 0.31365 0.62535 0.0
H1558 H 0.81856 0.13207 0.64956 0.0
H1559 H 0.77639 0.16266 0.67413 0.0
H1560 H 0.74013 0.12692 0.66058 0.0
H1561 H 0.72024 0.08582 0.64283 0.0
H1562 H 0.76453 0.05759 0.61714 0.0
H1563 H 0.79978 0.09319 0.63044 0.0
C1564 C 0.80148 0.13111 0.65189 0.0
C1565 C 0.80041 0.15023 0.66301 0.0
C1566 C 0.78087 0.1106 0.64413 0.0
C1567 C 0.77796 0.14846 0.66544 0.0
C1568 C 0.75716 0.12785 0.65791 0.0
C1569 C 0.73761 0.08746 0.64035 0.0
C1570 C 0.73951 0.06869 0.62914 0.0
C1571 C 0.75831 0.1086 0.64752 0.0
C1572 C 0.76231 0.07147 0.62567 0.0
C1573 C 0.7826 0.09195 0.63325 0.0
H1574 H 0.95569 0.73385 0.70501 0.0
H1575 H 0.92611 0.71781 0.61664 0.0
H1576 H 0.96414 0.72427 0.59604 0.0
H1577 H 1.00713 0.73857 0.60282 0.0
H1578 H 0.03564 0.75227 0.69186 0.0
H1579 H 0.99668 0.74232 0.71283 0.0
C1580 C 0.95745 0.73113 0.68138 0.0
C1581 C 0.93824 0.72526 0.66231 0.0
C1582 C 0.97924 0.73477 0.66987 0.0
C1583 C 0.94061 0.72195 0.63174 0.0
C1584 C 0.9624 0.72586 0.61996 0.0
C1585 C 1.00467 0.73931 0.62679 0.0
C1586 C 0.02428 0.74716 0.64577 0.0
C1587 C 0.98205 0.73299 0.6387 0.0
C1588 C 0.02084 0.74699 0.67688 0.0
C1589 C 0.99859 0.74121 0.68883 0.0
H1590 H 0.89481 0.70104 0.25248 0.0
H1591 H 0.91056 0.71844 0.15858 0.0
H1592 H 0.94246 0.70908 0.16083 0.0
H1593 H 0.96506 0.69429 0.18936 0.0
H1594 H 0.95033 0.67942 0.28376 0.0
H1595 H 0.91889 0.68916 0.28141 0.0
C1596 C 0.90539 0.7031 0.23252 0.0
C1597 C 0.90021 0.71055 0.20541 0.0
C1598 C 0.92367 0.69764 0.23397 0.0
C1599 C 0.91423 0.71305 0.17986 0.0
C1600 C 0.93237 0.70747 0.18108 0.0
C1601 C 0.95477 0.69302 0.20929 0.0
C1602 C 0.95913 0.68484 0.2364 0.0
C1603 C 0.93706 0.69941 0.20792 0.0
C1604 C 0.94643 0.68434 0.2623 0.0
C1605 C 0.92867 0.69028 0.26106 0.0
H1606 H 0.3769 0.307 0.2257 0.0
H1607 H 0.43512 0.31696 0.28132 0.0
H1608 H 0.43749 0.35159 0.30184 0.0
H1609 H 0.4226 0.37891 0.30474 0.0
H1610 H 0.36397 0.3684 0.24951 0.0
H1611 H 0.36202 0.33407 0.22858 0.0
C1612 C 0.38999 0.31657 0.24249 0.0
C1613 C 0.40577 0.30916 0.25188 0.0
C1614 C 0.39115 0.33643 0.25444 0.0
C1615 C 0.4229 0.32223 0.2733 0.0
C1616 C 0.42418 0.34203 0.28525 0.0
C1617 C 0.40937 0.36909 0.28815 0.0
C1618 C 0.39342 0.37628 0.27882 0.0
C1619 C 0.40834 0.34928 0.27608 0.0
C1620 C 0.37646 0.36333 0.2572 0.0
C1621 C 0.37533 0.34366 0.24516 0.0
H1622 H 0.82703 0.17012 0.25858 0.0
H1623 H 0.80906 0.1402 0.17111 0.0
H1624 H 0.7671 0.12758 0.18078 0.0
H1625 H 0.73535 0.12268 0.21584 0.0
H1626 H 0.75329 0.14855 0.30551 0.0
H1627 H 0.79542 0.16623 0.2931 0.0
C1628 C 0.8139 0.16141 0.24146 0.0
C1629 C 0.82094 0.15671 0.2139 0.0
C1630 C 0.78988 0.15377 0.24757 0.0
C1631 C 0.80385 0.14422 0.19234 0.0
C1632 C 0.77997 0.1371 0.19785 0.0
C1633 C 0.74857 0.13271 0.23233 0.0
C1634 C 0.74129 0.13526 0.26112 0.0
C1635 C 0.77274 0.14152 0.22556 0.0
C1636 C 0.75848 0.14752 0.28271 0.0
C1637 C 0.78258 0.15714 0.27582 0.0
H1638 H 0.07152 0.53198 0.88941 0.0
H1639 H 1.00144 0.48571 0.92519 0.0
H1640 H 0.99414 0.4596 0.88399 0.0
H1641 H 1.00811 0.44867 0.83851 0.0
H1642 H 0.07879 0.49422 0.80421 0.0
H1643 H 0.08526 0.52144 0.84391 0.0
C1644 C 0.05467 0.51617 0.88844 0.0
C1645 C 0.03715 0.51111 0.91081 0.0
C1646 C 0.05061 0.50087 0.86472 0.0
C1647 C 0.0153 0.49051 0.90845 0.0
C1648 C 1.01109 0.47535 0.88483 0.0
C1649 C 0.02483 0.46466 0.83954 0.0
C1650 C 0.0429 0.46931 0.81823 0.0
C1651 C 0.02865 0.48023 0.86289 0.0
C1652 C 0.06454 0.49008 0.82021 0.0
C1653 C 0.0683 0.50571 0.843 0.0
H1654 H 0.54573 0.60466 0.89274 0.0
H1655 H 0.59225 0.60099 0.95809 0.0
H1656 H 0.62531 0.61877 0.9224 0.0
H1657 H 0.64134 0.63579 0.87289 0.0
H1658 H 0.59511 0.63947 0.80696 0.0
H1659 H 0.56184 0.62154 0.84263 0.0
C1660 C 0.56312 0.60781 0.89916 0.0
C1661 C 0.56635 0.60129 0.92807 0.0
C1662 C 0.58221 0.61818 0.87845 0.0
C1663 C 0.58902 0.60536 0.9359 0.0
C1664 C 0.60806 0.61574 0.91554 0.0
C1665 C 0.62404 0.6328 0.86627 0.0
C1666 C 0.62088 0.63915 0.83722 0.0
C1667 C 0.60489 0.62227 0.88679 0.0
C1668 C 0.59817 0.63483 0.82911 0.0
C1669 C 0.57908 0.62455 0.84953 0.0
H1670 H 0.50307 0.05161 0.95082 0.0
H1671 H 0.53514 0.12433 0.93264 0.0
H1672 H 0.50882 0.11665 0.89033 0.0
H1673 H 0.47425 0.08974 0.86224 0.0
H1674 H 0.44061 0.017 0.88116 0.0
H1675 H 0.47019 0.02417 0.91961 0.0
C1676 C 0.50427 0.06576 0.9376 0.0
C1677 C 0.52075 0.08855 0.94516 0.0
C1678 C 0.4888 0.0612 0.91366 0.0
C1679 C 0.52264 0.10668 0.92727 0.0
C1680 C 0.5075 0.1023 0.90321 0.0
C1681 C 0.47347 0.07539 0.87459 0.0
C1682 C 0.4551 0.0529 0.86933 0.0
C1683 C 0.49016 0.07969 0.89677 0.0
C1684 C 0.45457 0.03445 0.88499 0.0
C1685 C 0.47137 0.03858 0.90703 0.0
H1686 H 0.51501 0.08481 0.67723 0.0
H1687 H 0.46388 0.06262 0.60627 0.0
H1688 H 0.43172 0.04972 0.64303 0.0
H1689 H 0.41796 0.04473 0.69518 0.0
H1690 H 0.46893 0.06787 0.76648 0.0
H1691 H 0.50122 0.08055 0.72972 0.0
C1692 C 0.49687 0.07738 0.66981 0.0
C1693 C 0.49194 0.07454 0.639 0.0
C1694 C 0.47837 0.07011 0.69113 0.0
C1695 C 0.46823 0.06463 0.62981 0.0
C1696 C 0.44978 0.05735 0.65083 0.0
C1697 C 0.4361 0.05245 0.70277 0.0
C1698 C 0.44092 0.05525 0.73361 0.0
C1699 C 0.45463 0.05989 0.68154 0.0
C1700 C 0.46463 0.0655 0.7429 0.0
C1701 C 0.48315 0.07278 0.72188 0.0
H1702 H 0.0378 0.51858 0.6175 0.0
H1703 H 0.09064 0.51159 0.56694 0.0
H1704 H 0.08713 0.48197 0.60189 0.0
H1705 H 0.06971 0.4583 0.64685 0.0
H1706 H 0.01805 0.46561 0.69977 0.0
H1707 H 0.02028 0.49454 0.66386 0.0
C1708 C 0.04846 0.51049 0.61412 0.0
C1709 C 0.06461 0.51754 0.58954 0.0
C1710 C 0.04653 0.49343 0.63473 0.0
C1711 C 0.07838 0.50691 0.58575 0.0
C1712 C 0.07627 0.4898 0.60569 0.0
C1713 C 0.05875 0.46603 0.65066 0.0
C1714 C 0.04359 0.45948 0.67617 0.0
C1715 C 0.0605 0.48297 0.63029 0.0
C1716 C 0.02983 0.47011 0.68046 0.0
C1717 C 0.03114 0.48673 0.65988 0.0
H1718 H 0.53739 0.59061 0.64221 0.0
H1719 H 0.57524 0.5615 0.59786 0.0
H1720 H 0.60556 0.57687 0.6369 0.0
H1721 H 0.62383 0.60316 0.68029 0.0
H1722 H 0.58631 0.6343 0.72041 0.0
H1723 H 0.5534 0.61361 0.68652 0.0
C1724 C 0.55208 0.58729 0.64123 0.0
C1725 C 0.55415 0.57512 0.617 0.0
C1726 C 0.56971 0.59686 0.66294 0.0
C1727 C 0.57317 0.57076 0.61633 0.0
C1728 C 0.59063 0.57976 0.63851 0.0
C1729 C 0.60821 0.60499 0.68184 0.0
C1730 C 0.60749 0.62032 0.70268 0.0
C1731 C 0.5895 0.59351 0.66143 0.0
C1732 C 0.58732 0.62276 0.70438 0.0
C1733 C 0.56849 0.61093 0.68503 0.0
H1734 H 1.0012 0.57914 0.10506 0.0
H1735 H 0.07441 0.63297 0.10132 0.0
H1736 H 0.06744 0.6519 0.14359 0.0
H1737 H 0.04029 0.65345 0.18199 0.0
H1738 H 0.96721 0.59885 0.18524 0.0
H1739 H 0.97454 0.58022 0.14346 0.0
C1740 C 0.01577 0.59482 0.11365 0.0
C1741 C 0.03835 0.60446 0.09973 0.0
C1742 C 1.01165 0.60571 0.13812 0.0
C1743 C 0.05678 0.62514 0.11117 0.0
C1744 C 0.05281 0.636 0.13553 0.0
C1745 C 0.02596 0.6375 0.17358 0.0
C1746 C 1.0032 0.62775 0.18719 0.0
C1747 C 0.03027 0.62654 0.14918 0.0
C1748 C 0.98497 0.60694 0.17568 0.0
C1749 C 0.98911 0.59614 0.15158 0.0
H1750 H 0.49835 0.50006 0.1571 0.0
H1751 H 0.46406 0.53843 0.1319 0.0
H1752 H 0.436 0.52111 0.17371 0.0
H1753 H 0.42195 0.49611 0.21805 0.0
H1754 H 0.45611 0.4577 0.24405 0.0
H1755 H 0.4836 0.47416 0.2013 0.0
C1756 C 0.48484 0.50475 0.16086 0.0
C1757 C 0.48341 0.52063 0.14138 0.0
C1758 C 0.46879 0.49478 0.1851 0.0
C1759 C 0.46545 0.52613 0.14628 0.0
C1760 C 0.44948 0.51633 0.17033 0.0
C1761 C 0.4354 0.49128 0.21452 0.0
C1762 C 0.43702 0.47577 0.2345 0.0
C1763 C 0.45109 0.50077 0.18996 0.0
C1764 C 0.45444 0.4696 0.22915 0.0
C1765 C 0.4702 0.47904 0.20471 0.0
H1766 H 0.57921 0.08343 0.16172 0.0
H1767 H 0.6131 0.15633 0.14401 0.0
H1768 H 0.64032 0.16349 0.18523 0.0
H1769 H 0.65591 0.14878 0.22447 0.0
H1770 H 0.62249 0.07554 0.24033 0.0
H1771 H 0.59396 0.06884 0.2013 0.0
C1772 C 0.59264 0.10089 0.16668 0.0
C1773 C 0.59422 0.11927 0.14954 0.0
C1774 C 0.60845 0.10483 0.18999 0.0
C1775 C 0.61135 0.14184 0.15691 0.0
C1776 C 0.62705 0.14594 0.18036 0.0
C1777 C 0.6423 0.13136 0.21955 0.0
C1778 C 0.6415 0.11272 0.23529 0.0
C1779 C 0.62596 0.12753 0.19681 0.0
C1780 C 0.62371 0.09025 0.2285 0.0
C1781 C 0.60732 0.08636 0.20618 0.0
H1782 H 0.59535 0.0843 0.45546 0.0
H1783 H 0.6119 0.15483 0.44695 0.0
H1784 H 0.63743 0.16029 0.40357 0.0
H1785 H 0.65448 0.14488 0.36759 0.0
H1786 H 0.6369 0.07393 0.37543 0.0
H1787 H 0.61198 0.06877 0.41928 0.0
C1788 C 0.60427 0.10081 0.44398 0.0
C1789 C 0.60154 0.11909 0.45452 0.0
C1790 C 0.61869 0.10376 0.41883 0.0
C1791 C 0.6138 0.14051 0.43963 0.0
C1792 C 0.6283 0.14361 0.41466 0.0
C1793 C 0.64521 0.12825 0.37881 0.0
C1794 C 0.64761 0.10983 0.36804 0.0
C1795 C 0.63082 0.12533 0.40402 0.0
C1796 C 0.6354 0.08844 0.38304 0.0
C1797 C 0.62114 0.08545 0.40819 0.0
H1798 H 1.00646 0.58214 0.41099 0.0
H1799 H 0.08127 0.62515 0.39286 0.0
H1800 H 0.07287 0.64369 0.35105 0.0
H1801 H 0.0441 0.64768 0.31908 0.0
H1802 H 0.96918 0.60322 0.33629 0.0
H1803 H 0.97778 0.58555 0.37856 0.0
C1804 C 0.02091 0.59568 0.39802 0.0
C1805 C 0.04449 0.60221 0.40524 0.0
C1806 C 0.01592 0.60607 0.37357 0.0
C1807 C 0.06297 0.61959 0.38777 0.0
C1808 C 0.05816 0.63028 0.36384 0.0
C1809 C 0.02964 0.63414 0.33205 0.0
C1810 C 1.00597 0.62695 0.32419 0.0
C1811 C 0.03468 0.62364 0.3564 0.0
C1812 C 0.98757 0.6092 0.34142 0.0
C1813 C 0.99246 0.59903 0.36581 0.0
H1814 H 0.49748 0.55508 0.42305 0.0
H1815 H 0.48921 0.49812 0.47742 0.0
H1816 H 0.46277 0.47116 0.43982 0.0
H1817 H 0.43924 0.46395 0.3931 0.0
H1818 H 0.4473 0.52219 0.34144 0.0
H1819 H 0.47632 0.54829 0.37646 0.0
C1820 C 0.49014 0.53677 0.42667 0.0
C1821 C 0.49527 0.52868 0.45313 0.0
C1822 C 0.47456 0.52151 0.40551 0.0
C1823 C 0.48568 0.50486 0.45719 0.0
C1824 C 0.47038 0.48944 0.43579 0.0
C1825 C 0.44751 0.48234 0.38943 0.0
C1826 C 0.44076 0.49098 0.36471 0.0
C1827 C 0.46424 0.49756 0.41011 0.0
C1828 C 0.45174 0.51492 0.36038 0.0
C1829 C 0.46849 0.52996 0.38037 0.0
H1830 H 0.71369 0.88505 0.24161 0.0
H1831 H 0.64605 0.83617 0.28085 0.0
H1832 H 0.63914 0.81005 0.23874 0.0
H1833 H 0.6539 0.80015 0.19148 0.0
H1834 H 0.72249 0.85023 0.1552 0.0
H1835 H 0.72725 0.87644 0.19514 0.0
C1836 C 0.69725 0.86876 0.2411 0.0
C1837 C 0.68046 0.86278 0.26479 0.0
C1838 C 0.69361 0.85378 0.21711 0.0
C1839 C 0.6593 0.8415 0.26311 0.0
C1840 C 0.65543 0.82645 0.23899 0.0
C1841 C 0.66975 0.81689 0.19215 0.0
C1842 C 0.68785 0.82296 0.16994 0.0
C1843 C 0.67265 0.83223 0.21592 0.0
C1844 C 0.70827 0.84479 0.17166 0.0
C1845 C 0.71107 0.85994 0.19466 0.0
H1846 H 0.25817 0.92467 0.3078 0.0
H1847 H 0.19775 0.9009 0.25031 0.0
H1848 H 0.22355 0.92298 0.20818 0.0
H1849 H 0.26314 0.9515 0.18832 0.0
H1850 H 0.32344 0.97593 0.24654 0.0
H1851 H 0.29805 0.95149 0.28712 0.0
C1852 C 0.25077 0.92387 0.28585 0.0
C1853 C 0.22608 0.91099 0.28221 0.0
C1854 C 0.26571 0.93719 0.26175 0.0
C1855 C 0.21672 0.9106 0.25373 0.0
C1856 C 0.23146 0.92337 0.22961 0.0
C1857 C 0.27076 0.95146 0.20983 0.0
C1858 C 0.29528 0.96586 0.21408 0.0
C1859 C 0.25596 0.93721 0.23347 0.0
C1860 C 0.30468 0.96527 0.24228 0.0
C1861 C 0.29015 0.95118 0.26571 0.0
H1862 H 0.12107 0.33182 0.2397 0.0
H1863 H 0.1525 0.40291 0.26484 0.0
H1864 H 0.13505 0.41074 0.22155 0.0
H1865 H 0.10808 0.39682 0.1789 0.0
H1866 H 0.07502 0.32535 0.15511 0.0
H1867 H 0.09574 0.31829 0.19551 0.0
C1868 C 0.12411 0.34902 0.23573 0.0
C1869 C 0.13802 0.36665 0.25573 0.0
C1870 C 0.11357 0.35335 0.21107 0.0
C1871 C 0.14213 0.38897 0.24981 0.0
C1872 C 0.13197 0.39348 0.22511 0.0
C1873 C 0.10563 0.37976 0.18233 0.0
C1874 C 0.08992 0.36162 0.16416 0.0
C1875 C 0.1173 0.37571 0.20592 0.0
C1876 C 0.08693 0.33961 0.16889 0.0
C1877 C 0.09874 0.33553 0.19203 0.0
H1878 H 0.14252 0.35054 0.98578 0.0
H1879 H 0.08885 0.31935 0.91872 0.0
H1880 H 0.06279 0.32919 0.94721 0.0
H1881 H 0.05526 0.34616 0.99154 0.0
H1882 H 0.10977 0.37851 0.05796 0.0
H1883 H 0.13571 0.36918 0.02903 0.0
C1884 C 0.12497 0.34564 0.97774 0.0
C1885 C 0.11728 0.33381 0.95063 0.0
C1886 C 0.11045 0.35191 0.99382 0.0
C1887 C 0.09486 0.32818 0.9398 0.0
C1888 C 0.0801 0.33393 0.95596 0.0
C1889 C 0.07292 0.35148 0.99958 0.0
C1890 C 0.0804 0.36298 0.02706 0.0
C1891 C 0.08773 0.34584 0.98299 0.0
C1892 C 0.10342 0.36967 0.03694 0.0
C1893 C 0.11827 0.36418 0.02052 0.0
H1894 H 0.68376 0.87157 0.95919 0.0
H1895 H 0.68333 0.8249 0.89294 0.0
H1896 H 0.68379 0.79994 0.93281 0.0
H1897 H 0.68755 0.79274 0.98639 0.0
H1898 H 0.68616 0.83813 0.05312 0.0
H1899 H 0.68305 0.86199 1.01339 0.0
C1900 C 0.68337 0.85574 0.95341 0.0
C1901 C 0.68356 0.85031 0.92276 0.0
C1902 C 0.68355 0.84128 0.97667 0.0
C1903 C 0.683 0.82961 0.91604 0.0
C1904 C 0.68346 0.81535 0.93895 0.0
C1905 C 0.68634 0.80774 0.99235 0.0
C1906 C 0.68732 0.81366 0.02294 0.0
C1907 C 0.68424 0.82123 0.96931 0.0
C1908 C 0.68541 0.83304 0.02999 0.0
C1909 C 0.68374 0.84678 1.00716 0.0
H1910 H 0.23636 0.91103 0.98565 0.0
H1911 H 0.2036 0.95324 0.98741 0.0
H1912 H 0.22722 0.9737 0.03052 0.0
H1913 H 0.25811 0.98063 0.06707 0.0
H1914 H 0.29145 0.93896 0.06533 0.0
H1915 H 0.26682 0.91745 0.02314 0.0
C1916 C 0.23446 0.92478 0.99533 0.0
C1917 C 0.21806 0.93046 0.98305 0.0
C1918 C 0.24824 0.93663 0.0203 0.0
C1919 C 0.21574 0.94818 0.99638 0.0
C1920 C 0.22938 0.96003 0.02105 0.0
C1921 C 0.25989 0.96672 0.05766 0.0
C1922 C 0.27669 0.96148 0.06953 0.0
C1923 C 0.24575 0.95449 0.03318 0.0
C1924 C 0.27869 0.9434 0.05683 0.0
C1925 C 0.26463 0.93111 0.03256 0.0
H1926 H 0.71218 0.94783 0.44275 0.0
H1927 H 0.63941 0.89546 0.42984 0.0
H1928 H 0.62798 0.90739 0.47633 0.0
H1929 H 0.63905 0.93334 0.52113 0.0
H1930 H 0.71241 0.98573 0.53105 0.0
H1931 H 0.72297 0.97302 0.4856 0.0
C1932 C 0.69371 0.93881 0.44987 0.0
C1933 C 0.67675 0.92056 0.4324 0.0
C1934 C 0.68733 0.94584 0.47644 0.0
C1935 C 0.65296 0.90948 0.44249 0.0
C1936 C 0.64644 0.91635 0.46923 0.0
C1937 C 0.65737 0.94191 0.51345 0.0
C1938 C 0.67487 0.96064 0.53005 0.0
C1939 C 0.6635 0.93457 0.48653 0.0
C1940 C 0.69844 0.97145 0.51919 0.0
C1941 C 0.70457 0.96415 0.49301 0.0
H1942 H 0.17248 0.88286 0.48012 0.0
H1943 H 0.1696 0.82746 0.42898 0.0
H1944 H 0.14814 0.80046 0.47066 0.0
H1945 H 0.12595 0.7921 0.51997 0.0
H1946 H 0.12885 0.84882 0.56845 0.0
H1947 H 0.15439 0.87555 0.52978 0.0
C1948 C 0.16756 0.86494 0.47822 0.0
C1949 C 0.17262 0.85724 0.45138 0.0
C1950 C 0.15482 0.84958 0.50185 0.0
C1951 C 0.16617 0.83395 0.44945 0.0
C1952 C 0.15364 0.81846 0.47322 0.0
C1953 C 0.13253 0.81035 0.52223 0.0
C1954 C 0.12512 0.81831 0.54709 0.0
C1955 C 0.14721 0.82595 0.4993 0.0
C1956 C 0.13385 0.84206 0.5495 0.0
C1957 C 0.14856 0.85747 0.52736 0.0
H1958 H 0.2247 0.34244 0.45071 0.0
H1959 H 0.18599 0.37593 0.47854 0.0
H1960 H 0.20918 0.38877 0.5243 0.0
H1961 H 0.24222 0.39253 0.55471 0.0
H1962 H 0.2806 0.3586 0.52673 0.0
H1963 H 0.25568 0.34379 0.48285 0.0
C1964 C 0.22095 0.35207 0.4671 0.0
C1965 C 0.20375 0.35834 0.46116 0.0
C1966 C 0.23451 0.35958 0.49316 0.0
C1967 C 0.19935 0.37113 0.48248 0.0
C1968 C 0.21262 0.3785 0.5086 0.0
C1969 C 0.24511 0.38188 0.53904 0.0
C1970 C 0.2634 0.37688 0.54393 0.0
C1971 C 0.23062 0.37327 0.51384 0.0
C1972 C 0.26669 0.36278 0.52355 0.0
C1973 C 0.25244 0.35427 0.4984 0.0
H1974 H 0.21911 0.32734 0.77119 0.0
H1975 H 0.16909 0.34335 0.73107 0.0
H1976 H 0.19389 0.35754 0.68554 0.0
H1977 H 0.23181 0.3689 0.65955 0.0
H1978 H 0.281 0.35106 0.69846 0.0
H1979 H 0.25449 0.33376 0.74204 0.0
C1980 C 0.21355 0.33352 0.75212 0.0
C1981 C 0.19249 0.33442 0.75421 0.0
C1982 C 0.2278 0.34143 0.72607 0.0
C1983 C 0.18518 0.34237 0.72961 0.0
C1984 C 0.19943 0.35062 0.70378 0.0
C1985 C 0.23649 0.3609 0.67742 0.0
C1986 C 0.25833 0.3614 0.67612 0.0
C1987 C 0.22106 0.35077 0.7021 0.0
C1988 C 0.2642 0.35078 0.69907 0.0
C1989 C 0.24914 0.34103 0.72402 0.0
H1990 H 0.72688 0.94344 0.74611 0.0
H1991 H 0.65438 0.89242 0.76691 0.0
H1992 H 0.64096 0.90712 0.72525 0.0
H1993 H 0.64992 0.93464 0.68247 0.0
H1994 H 0.72274 0.98595 0.66333 0.0
H1995 H 0.73572 0.97089 0.7045 0.0
C1996 C 0.70807 0.93539 0.7417 0.0
C1997 C 0.69172 0.91661 0.75998 0.0
C1998 C 0.70049 0.94403 0.71772 0.0
C1999 C 0.66746 0.90678 0.75356 0.0
C2000 C 0.65978 0.91522 0.72957 0.0
C2001 C 0.66868 0.94252 0.68711 0.0
C2002 C 0.68528 0.96154 0.66922 0.0
C2003 C 0.67614 0.93383 0.71137 0.0
C2004 C 0.70944 0.97142 0.67626 0.0
C2005 C 0.71693 0.96277 0.69997 0.0
H2006 H 0.15293 0.83687 0.7798 0.0
H2007 H 0.14359 0.89454 0.75717 0.0
H2008 H 0.12616 0.87702 0.70992 0.0
H2009 H 0.11235 0.8451 0.67513 0.0
H2010 H 0.12251 0.78777 0.69579 0.0
H2011 H 0.14123 0.80568 0.74306 0.0
C2012 C 0.14736 0.84582 0.76454 0.0
C2013 C 0.14945 0.86705 0.77285 0.0
C2014 C 0.13749 0.83573 0.73672 0.0
C2015 C 0.14189 0.87806 0.75229 0.0
C2016 C 0.13199 0.86809 0.72489 0.0
C2017 C 0.11877 0.8365 0.68979 0.0
C2018 C 0.11585 0.81498 0.68171 0.0
C2019 C 0.12949 0.84687 0.71697 0.0
C2020 C 0.12453 0.80434 0.70116 0.0
C2021 C 0.13515 0.81455 0.72836 0.0
H2022 H 0.34503 0.18111 0.63386 0.0
H2023 H 0.41375 0.23823 0.60936 0.0
H2024 H 0.41367 0.21989 0.56278 0.0
H2025 H 0.39565 0.18665 0.52948 0.0
H2026 H 0.3265 0.12969 0.55183 0.0
H2027 H 0.32528 0.1487 0.59781 0.0
C2028 C 0.35976 0.18969 0.61811 0.0
C2029 C 0.37945 0.21108 0.62566 0.0
C2030 C 0.35975 0.1789 0.59071 0.0
C2031 C 0.3984 0.22172 0.6047 0.0
C2032 C 0.39846 0.21121 0.57781 0.0
C2033 C 0.38023 0.17844 0.54427 0.0
C2034 C 0.3613 0.15663 0.53701 0.0
C2035 C 0.3795 0.18961 0.57074 0.0
C2036 C 0.34142 0.14645 0.5566 0.0
C2037 C 0.34069 0.15734 0.5831 0.0
H2038 H 0.89952 0.24189 0.56459 0.0
H2039 H 0.9467 0.27435 0.63796 0.0
H2040 H 0.97089 0.3086 0.60681 0.0
H2041 H 0.97876 0.32908 0.55862 0.0
H2042 H 0.93093 0.2973 0.48514 0.0
H2043 H 0.90668 0.26329 0.51641 0.0
C2044 C 0.91528 0.25641 0.57346 0.0
C2045 C 0.92161 0.25562 0.60334 0.0
C2046 C 0.92876 0.27626 0.55552 0.0
C2047 C 0.94168 0.27468 0.61498 0.0
C2048 C 0.95541 0.29422 0.5972 0.0
C2049 C 0.96291 0.31486 0.54942 0.0
C2050 C 0.9568 0.31592 0.51942 0.0
C2051 C 0.94909 0.29525 0.56746 0.0
C2052 C 0.9361 0.29718 0.50813 0.0
C2053 C 0.92227 0.27757 0.52595 0.0
H2054 H 0.86085 0.76415 0.56305 0.0
H2055 H 0.80588 0.70856 0.61564 0.0
H2056 H 0.77858 0.69839 0.57418 0.0
H2057 H 0.76979 0.70565 0.52328 0.0
H2058 H 0.82351 0.76275 0.47157 0.0
H2059 H 0.85179 0.77186 0.51212 0.0
C2060 C 0.84285 0.74997 0.56549 0.0
C2061 C 0.83558 0.73702 0.59233 0.0
C2062 C 0.82702 0.74433 0.54157 0.0
C2063 C 0.81217 0.71855 0.59505 0.0
C2064 C 0.79645 0.71274 0.57136 0.0
C2065 C 0.7878 0.71986 0.52075 0.0
C2066 C 0.79466 0.73337 0.49446 0.0
C2067 C 0.80369 0.72543 0.54449 0.0
C2068 C 0.81789 0.75204 0.49165 0.0
C2069 C 0.83402 0.75732 0.51486 0.0
H2070 H 0.81797 0.70729 0.27756 0.0
H2071 H 0.7535 0.64659 0.2526 0.0
H2072 H 0.73338 0.64964 0.29758 0.0
H2073 H 0.73343 0.67145 0.34142 0.0
H2074 H 0.7981 0.73199 0.36695 0.0
H2075 H 0.81901 0.72713 0.32422 0.0
C2076 C 0.79954 0.69471 0.28213 0.0
C2077 C 0.78705 0.67693 0.26171 0.0
C2078 C 0.78819 0.69665 0.30791 0.0
C2079 C 0.76338 0.66037 0.26808 0.0
C2080 C 0.75189 0.66222 0.29364 0.0
C2081 C 0.75215 0.68352 0.33778 0.0
C2082 C 0.76414 0.70226 0.35707 0.0
C2083 C 0.764 0.68058 0.31331 0.0
C2084 C 0.78848 0.71748 0.35237 0.0
C2085 C 0.80039 0.71476 0.3279 0.0
H2086 H 0.354 0.2139 0.32956 0.0
H2087 H 0.34284 0.1652 0.26027 0.0
H2088 H 0.34341 0.13873 0.29778 0.0
H2089 H 0.35081 0.13083 0.34966 0.0
H2090 H 0.36038 0.1786 0.41949 0.0
H2091 H 0.35651 0.20379 0.38259 0.0
C2092 C 0.35123 0.1973 0.32268 0.0
C2093 C 0.34844 0.19172 0.29185 0.0
C2094 C 0.35154 0.18203 0.34455 0.0
C2095 C 0.34484 0.17004 0.28362 0.0
C2096 C 0.34537 0.15492 0.30514 0.0
C2097 C 0.35176 0.14663 0.35694 0.0
C2098 C 0.35611 0.15282 0.38748 0.0
C2099 C 0.34928 0.16095 0.33556 0.0
C2100 C 0.35699 0.17327 0.39635 0.0
C2101 C 0.35491 0.18777 0.37513 0.0
H2102 H 0.90956 0.24544 0.30908 0.0
H2103 H 0.85727 0.26617 0.32288 0.0
H2104 H 0.88263 0.29443 0.35935 0.0
H2105 H 0.91989 0.3139 0.38648 0.0
H2106 H 0.97209 0.2928 0.37486 0.0
H2107 H 0.94662 0.26403 0.33848 0.0
C2108 C 0.90382 0.2562 0.32011 0.0
C2109 C 0.88157 0.25372 0.31328 0.0
C2110 C 0.91846 0.27232 0.34141 0.0
C2111 C 0.87417 0.26756 0.32797 0.0
C2112 C 0.88872 0.28381 0.34872 0.0
C2113 C 0.92571 0.30299 0.37604 0.0
C2114 C 0.94792 0.30559 0.38319 0.0
C2115 C 0.91091 0.28641 0.35551 0.0
C2116 C 0.95506 0.29112 0.36974 0.0
C2117 C 0.94053 0.27473 0.34888 0.0
H2118 H 0.39692 0.27695 0.81339 0.0
H2119 H 0.32465 0.23508 0.78496 0.0
H2120 H 0.31085 0.2469 0.82948 0.0
H2121 H 0.31987 0.27057 0.87611 0.0
H2122 H 0.39308 0.31314 0.90111 0.0
H2123 H 0.40574 0.29938 0.85852 0.0
C2124 C 0.37804 0.27019 0.81668 0.0
C2125 C 0.36191 0.25504 0.79545 0.0
C2126 C 0.37037 0.27727 0.84197 0.0
C2127 C 0.33757 0.24669 0.80068 0.0
C2128 C 0.32969 0.25352 0.82622 0.0
C2129 C 0.33858 0.27674 0.87236 0.0
C2130 C 0.35546 0.29311 0.89213 0.0
C2131 C 0.34598 0.26899 0.84702 0.0
C2132 C 0.37961 0.30077 0.88653 0.0
C2133 C 0.38693 0.29289 0.86204 0.0
H2134 H 0.83762 0.14809 0.80922 0.0
H2135 H 0.82547 0.20533 0.79948 0.0
H2136 H 0.79813 0.19142 0.84227 0.0
H2137 H 0.77612 0.16209 0.8812 0.0
H2138 H 0.78873 0.10511 0.8916 0.0
H2139 H 0.81751 0.12002 0.85033 0.0
C2140 C 0.82929 0.15772 0.81669 0.0
C2141 C 0.83346 0.17759 0.80072 0.0
C2142 C 0.81351 0.14963 0.84152 0.0
C2143 C 0.82228 0.18971 0.81079 0.0
C2144 C 0.80667 0.18183 0.83544 0.0
C2145 C 0.78526 0.15298 0.87464 0.0
C2146 C 0.78004 0.1324 0.8896 0.0
C2147 C 0.80186 0.16162 0.85072 0.0
C2148 C 0.79225 0.12097 0.88065 0.0
C2149 C 0.80875 0.12946 0.85692 0.0
H2150 H 0.92191 0.71684 0.77392 0.0
H2151 H 0.90911 0.76723 0.81672 0.0
H2152 H 0.93192 0.76736 0.85974 0.0
H2153 H 0.95526 0.75307 0.88544 0.0
H2154 H 0.96613 0.70115 0.84389 0.0
H2155 H 0.94376 0.70142 0.80031 0.0
C2156 C 0.92368 0.72766 0.79268 0.0
C2157 C 0.91364 0.74204 0.79173 0.0
C2158 C 0.93646 0.72734 0.81769 0.0
C2159 C 0.91678 0.75619 0.81638 0.0
C2160 C 0.92975 0.75619 0.84117 0.0
C2161 C 0.95279 0.74182 0.86684 0.0
C2162 C 0.96245 0.72717 0.8679 0.0
C2163 C 0.93969 0.74186 0.84204 0.0
C2164 C 0.95883 0.71253 0.84372 0.0
C2165 C 0.94609 0.71273 0.81876 0.0
H2166 H 0.8726 0.67063 0.05826 0.0
H2167 H 0.89073 0.74154 0.06407 0.0
H2168 H 0.92496 0.75298 0.03085 0.0
H2169 H 0.95032 0.74302 1.00123 0.0
H2170 H 0.93235 0.67203 0.99511 0.0
H2171 H 0.89757 0.66048 0.02731 0.0
C2172 C 0.88385 0.68851 0.05184 0.0
C2173 C 0.87917 0.70522 0.06364 0.0
C2174 C 0.90368 0.695 0.03291 0.0
C2175 C 0.89411 0.7284 0.05549 0.0
C2176 C 0.91368 0.73495 0.0365 0.0
C2177 C 0.93888 0.72502 1.00699 0.0
C2178 C 0.94409 0.70848 0.99578 0.0
C2179 C 0.91881 0.71844 0.02538 0.0
C2180 C 0.92885 0.68519 1.00336 0.0
C2181 C 0.9089 0.67853 0.02177 0.0
H2182 H 0.39313 0.28296 0.11547 0.0
H2183 H 0.31953 0.23249 0.13077 0.0
H2184 H 0.30891 0.24664 0.08573 0.0
H2185 H 0.32085 0.27353 0.0414 0.0
H2186 H 0.3949 0.32389 0.02811 0.0
H2187 H 0.40482 0.3095 0.07273 0.0
C2188 C 0.37466 0.2749 0.10917 0.0
C2189 C 0.35718 0.25648 0.12684 0.0
C2190 C 0.36874 0.28315 0.08331 0.0
C2191 C 0.33342 0.24662 0.11792 0.0
C2192 C 0.32737 0.25473 0.09201 0.0
C2193 C 0.3392 0.28133 0.04815 0.0
C2194 C 0.35708 0.29989 0.03087 0.0
C2195 C 0.34491 0.27298 0.07439 0.0
C2196 C 0.38067 0.30972 0.04052 0.0
C2197 C 0.38641 0.30145 0.0662 0.0
H2198 H 0.80417 0.1559 0.12008 0.0
H2199 H 0.7795 0.20452 0.11198 0.0
H2200 H 0.76143 0.1881 0.06406 0.0
H2201 H 0.75253 0.15998 0.02463 0.0
H2202 H 0.77611 0.11044 0.03295 0.0
H2203 H 0.79503 0.12743 0.08038 0.0
C2204 C 0.79499 0.16299 0.10771 0.0
C2205 C 0.79322 0.18144 0.11966 0.0
C2206 C 0.78453 0.15337 0.08016 0.0
C2207 C 0.78092 0.19019 0.10353 0.0
C2208 C 0.7707 0.18089 0.07602 0.0
C2209 C 0.76188 0.15289 0.03664 0.0
C2210 C 0.76288 0.13392 0.02503 0.0
C2211 C 0.77238 0.16248 0.06413 0.0
C2212 C 0.775 0.12499 0.04123 0.0
C2213 C 0.78583 0.13469 0.06841 0.0
loop_
_geom_bond_atom_site_label_1
_geom_bond_atom_site_label_2
_geom_bond_distance
_geom_bond_site_symmetry_2
_ccdc_geom_bond_type
Cu0 N1 1.999 . S
Cu0 O6 1.974 1_554 S
Cu0 N11 1.985 1_554 S
Cu0 O20 1.959 . S
N1 Cu0 1.999 . S
N1 C3 1.263 . S
N1 C5 1.389 . S
N2 C3 1.358 . S
N2 C4 1.400 . S
C3 N1 1.263 . S
C3 N2 1.358 . S
C3 H9 0.930 . S
C4 N2 1.400 . S
C4 C5 1.351 . S
C4 H21 0.930 . S
C5 N1 1.389 . S
C5 C4 1.351 . S
C5 H10 0.930 . S
O6 Cu0 1.974 1_556 S
O6 C16 1.282 . S
C7 O8 1.261 . S
C7 O20 1.251 . S
O8 C7 1.261 . S
H9 C3 0.930 . S
H10 C5 0.930 . S
N11 Cu0 1.985 1_556 S
N11 C13 1.335 . S
N11 C14 1.390 . S
N12 C13 1.345 . S
N12 C15 1.336 . S
C13 N11 1.335 . S
C13 N12 1.345 . S
C13 H18 0.930 . S
C14 N11 1.390 . S
C14 C15 1.346 . S
C14 H19 0.930 . S
C15 N12 1.336 . S
C15 C14 1.346 . S
C15 H22 0.929 . S
C16 O6 1.282 . S
C16 O17 1.216 . S
O17 C16 1.216 . S
H18 C13 0.930 . S
H19 C14 0.930 . S
O20 Cu0 1.959 . S
O20 C7 1.251 . S
H21 C4 0.930 . S
H22 C15 0.929 . S
Cu23 N24 1.999 1_554 S
Cu23 O29 1.974 . S
Cu23 N34 1.985 . S
Cu23 O43 1.959 1_554 S
N24 Cu23 1.999 1_556 S
N24 C26 1.263 . S
N24 C28 1.389 . S
N25 C26 1.358 . S
N25 C27 1.400 . S
C26 N24 1.263 . S
C26 N25 1.358 . S
C26 H32 0.930 . S
C27 N25 1.400 . S
C27 C28 1.351 . S
C27 H44 0.930 . S
C28 N24 1.389 . S
C28 C27 1.351 . S
C28 H33 0.930 . S
O29 Cu23 1.974 . S
O29 C39 1.282 . S
C30 O31 1.257 1_556 S
C30 O43 1.251 . S
O31 C30 1.257 1_554 S
H32 C26 0.930 . S
H33 C28 0.930 . S
N34 Cu23 1.985 . S
N34 C36 1.335 . S
N34 C37 1.390 . S
N35 C36 1.345 . S
N35 C38 1.336 . S
C36 N34 1.335 . S
C36 N35 1.345 . S
C36 H41 0.930 . S
C37 N34 1.390 . S
C37 C38 1.346 . S
C37 H42 0.930 . S
C38 N35 1.336 . S
C38 C37 1.346 . S
C38 H45 0.929 . S
C39 O29 1.282 . S
C39 O40 1.216 . S
O40 C39 1.216 . S
H41 C36 0.930 . S
H42 C37 0.930 . S
O43 Cu23 1.959 1_556 S
O43 C30 1.251 . S
H44 C27 0.930 . S
H45 C38 0.929 . S
Cu46 N47 1.999 1_554 S
Cu46 O52 1.974 . S
Cu46 N57 1.985 1_565 S
Cu46 O66 1.961 . S
N47 Cu46 1.999 1_556 S
N47 C49 1.263 . S
N47 C51 1.389 . S
N48 C49 1.358 . S
N48 C50 1.400 . S
C49 N47 1.263 . S
C49 N48 1.358 . S
C49 H55 0.930 1_565 S
C50 N48 1.400 . S
C50 C51 1.351 . S
C50 H67 0.930 . S
C51 N47 1.389 . S
C51 C50 1.351 . S
C51 H56 0.930 . S
O52 Cu46 1.974 . S
O52 C62 1.282 1_565 S
C53 O54 1.261 . S
C53 O66 1.255 1_545 S
O54 C53 1.261 . S
H55 C49 0.930 1_545 S
H56 C51 0.930 . S
N57 Cu46 1.985 1_545 S
N57 C59 1.335 1_545 S
N57 C60 1.390 . S
N58 C59 1.345 1_545 S
N58 C61 1.336 . S
C59 N57 1.335 1_565 S
C59 N58 1.345 1_565 S
C59 H64 0.930 . S
C60 N57 1.390 . S
C60 C61 1.346 . S
C60 H65 0.930 . S
C61 N58 1.336 . S
C61 C60 1.346 . S
C61 H68 0.929 . S
C62 O52 1.282 1_545 S
C62 O63 1.216 . S
O63 C62 1.216 . S
H64 C59 0.930 . S
H65 C60 0.930 . S
O66 Cu46 1.961 . S
O66 C53 1.255 1_565 S
H67 C50 0.930 . S
H68 C61 0.929 . S
Cu69 N70 1.999 . S
Cu69 O75 1.974 . S
Cu69 N80 1.985 . S
Cu69 O89 1.959 . S
N70 Cu69 1.999 . S
N70 C72 1.263 . S
N70 C74 1.389 . S
N71 C72 1.358 . S
N71 C73 1.400 . S
C72 N70 1.263 . S
C72 N71 1.358 . S
C72 H78 0.930 . S
C73 N71 1.400 . S
C73 C74 1.351 . S
C73 H90 0.930 . S
C74 N70 1.389 . S
C74 C73 1.351 . S
C74 H79 0.930 . S
O75 Cu69 1.974 . S
O75 C85 1.282 . S
C76 O77 1.261 . S
C76 O89 1.251 . S
O77 C76 1.261 . S
H78 C72 0.930 . S
H79 C74 0.930 . S
N80 Cu69 1.985 . S
N80 C82 1.335 . S
N80 C83 1.390 . S
N81 C82 1.345 . S
N81 C84 1.336 . S
C82 N80 1.335 . S
C82 N81 1.345 . S
C82 H87 0.930 . S
C83 N80 1.390 . S
C83 C84 1.346 . S
C83 H88 0.930 . S
C84 N81 1.336 . S
C84 C83 1.346 . S
C84 H91 0.950 . S
C85 O75 1.282 . S
C85 O86 1.216 1_545 S
O86 C85 1.216 1_565 S
H87 C82 0.930 . S
H88 C83 0.930 . S
O89 Cu69 1.959 . S
O89 C76 1.251 . S
H90 C73 0.930 . S
H91 C84 0.950 . S
Cu92 N93 1.999 . S
Cu92 O98 1.974 . S
Cu92 N103 1.985 . S
Cu92 O112 1.959 . S
N93 Cu92 1.999 . S
N93 C95 1.263 . S
N93 C97 1.389 . S
N94 C95 1.358 . S
N94 C96 1.400 . S
C95 N93 1.263 . S
C95 N94 1.358 . S
C95 H101 0.930 . S
C96 N94 1.400 . S
C96 C97 1.351 . S
C96 H113 0.930 . S
C97 N93 1.389 . S
C97 C96 1.351 . S
C97 H102 0.930 . S
O98 Cu92 1.974 . S
O98 C108 1.282 . S
C99 O100 1.261 . S
C99 O112 1.251 . S
O100 C99 1.261 . S
H101 C95 0.930 . S
H102 C97 0.930 . S
N103 Cu92 1.985 . S
N103 C105 1.335 . S
N103 C106 1.390 . S
N104 C105 1.345 . S
N104 C107 1.336 . S
C105 N103 1.335 . S
C105 N104 1.345 . S
C105 H110 0.930 . S
C106 N103 1.390 . S
C106 C107 1.346 . S
C106 H111 0.930 . S
C107 N104 1.336 . S
C107 C106 1.346 . S
C107 H114 0.929 . S
C108 O98 1.282 . S
C108 O109 1.216 . S
O109 C108 1.216 . S
H110 C105 0.930 . S
H111 C106 0.930 . S
O112 Cu92 1.959 . S
O112 C99 1.251 . S
H113 C96 0.930 . S
H114 C107 0.929 . S
Cu115 N116 1.999 . S
Cu115 O121 1.974 . S
Cu115 N126 1.985 . S
Cu115 O135 1.959 . S
N116 Cu115 1.999 . S
N116 C118 1.263 . S
N116 C120 1.389 . S
N117 C118 1.358 . S
N117 C119 1.400 . S
C118 N116 1.263 . S
C118 N117 1.358 . S
C118 H124 0.930 . S
C119 N117 1.400 . S
C119 C120 1.351 . S
C119 H136 0.930 . S
C120 N116 1.389 . S
C120 C119 1.351 . S
C120 H125 0.930 . S
O121 Cu115 1.974 . S
O121 C131 1.282 . S
C122 O123 1.261 . S
C122 O135 1.251 . S
O123 C122 1.261 . S
H124 C118 0.930 . S
H125 C120 0.930 . S
N126 Cu115 1.985 . S
N126 C128 1.335 . S
N126 C129 1.390 . S
N127 C128 1.345 . S
N127 C130 1.336 . S
C128 N126 1.335 . S
C128 N127 1.345 . S
C128 H133 0.930 . S
C129 N126 1.390 . S
C129 C130 1.346 . S
C129 H134 0.930 . S
C130 N127 1.336 . S
C130 C129 1.346 . S
C130 H137 0.929 . S
C131 O121 1.282 . S
C131 O132 1.216 . S
O132 C131 1.216 . S
H133 C128 0.930 . S
H134 C129 0.930 . S
O135 Cu115 1.959 . S
O135 C122 1.251 . S
H136 C119 0.930 . S
H137 C130 0.929 . S
Cu138 N139 1.999 . S
Cu138 O144 1.974 . S
Cu138 N149 1.985 . S
Cu138 O158 1.959 . S
N139 Cu138 1.999 . S
N139 C141 1.263 . S
N139 C143 1.389 . S
N140 C141 1.358 . S
N140 C142 1.400 . S
C141 N139 1.263 . S
C141 N140 1.358 . S
C141 H147 0.930 . S
C142 N140 1.400 . S
C142 C143 1.351 . S
C142 H159 0.930 . S
C143 N139 1.389 . S
C143 C142 1.351 . S
C143 H148 0.930 . S
O144 Cu138 1.974 . S
O144 C154 1.282 . S
C145 O146 1.261 . S
C145 O158 1.251 . S
O146 C145 1.261 . S
H147 C141 0.930 . S
H148 C143 0.930 . S
N149 Cu138 1.985 . S
N149 C151 1.335 . S
N149 C152 1.390 . S
N150 C151 1.345 . S
N150 C153 1.336 . S
C151 N149 1.335 . S
C151 N150 1.345 . S
C151 H156 0.930 . S
C152 N149 1.390 . S
C152 C153 1.346 . S
C152 H157 0.930 . S
C153 N150 1.336 . S
C153 C152 1.346 . S
C153 H160 0.929 . S
C154 O144 1.282 . S
C154 O155 1.216 . S
O155 C154 1.216 . S
H156 C151 0.930 . S
H157 C152 0.930 . S
O158 Cu138 1.959 . S
O158 C145 1.251 . S
H159 C142 0.930 . S
H160 C153 0.929 . S
Cu161 N162 1.999 . S
Cu161 O167 1.974 . S
Cu161 N172 1.985 . S
Cu161 O181 1.959 . S
N162 Cu161 1.999 . S
N162 C164 1.263 . S
N162 C166 1.389 . S
N163 C164 1.358 . S
N163 C165 1.400 . S
C164 N162 1.263 . S
C164 N163 1.358 . S
C164 H170 0.930 . S
C165 N163 1.400 . S
C165 C166 1.351 . S
C165 H182 0.930 . S
C166 N162 1.389 . S
C166 C165 1.351 . S
C166 H171 0.930 . S
O167 Cu161 1.974 . S
O167 C177 1.282 . S
C168 O169 1.261 . S
C168 O181 1.251 . S
O169 C168 1.261 . S
H170 C164 0.930 . S
H171 C166 0.930 . S
N172 Cu161 1.985 . S
N172 C174 1.335 . S
N172 C175 1.390 . S
N173 C174 1.345 . S
N173 C176 1.336 . S
C174 N172 1.335 . S
C174 N173 1.345 . S
C174 H179 0.930 . S
C175 N172 1.390 . S
C175 C176 1.346 . S
C175 H180 0.930 . S
C176 N173 1.336 . S
C176 C175 1.346 . S
C176 H183 0.929 . S
C177 O167 1.282 . S
C177 O178 1.216 . S
O178 C177 1.216 . S
H179 C174 0.930 . S
H180 C175 0.930 . S
O181 Cu161 1.959 . S
O181 C168 1.251 . S
H182 C165 0.930 . S
H183 C176 0.929 . S
Cu184 N185 1.999 . S
Cu184 O190 1.974 . S
Cu184 N195 1.985 . S
Cu184 O204 1.959 . S
N185 Cu184 1.999 . S
N185 C187 1.263 . S
N185 C189 1.389 . S
N186 C187 1.358 . S
N186 C188 1.400 . S
C187 N185 1.263 . S
C187 N186 1.358 . S
C187 H193 0.930 . S
C188 N186 1.400 . S
C188 C189 1.351 . S
C188 H205 0.930 . S
C189 N185 1.389 . S
C189 C188 1.351 . S
C189 H194 0.930 . S
O190 Cu184 1.974 . S
O190 C200 1.282 . S
C191 O192 1.261 . S
C191 O204 1.251 . S
O192 C191 1.261 . S
H193 C187 0.930 . S
H194 C189 0.930 . S
N195 Cu184 1.985 . S
N195 C197 1.335 . S
N195 C198 1.390 . S
N196 C197 1.345 . S
N196 C199 1.336 . S
C197 N195 1.335 . S
C197 N196 1.345 . S
C197 H202 0.930 . S
C198 N195 1.390 . S
C198 C199 1.346 . S
C198 H203 0.930 . S
C199 N196 1.336 . S
C199 C198 1.346 . S
C199 H206 0.929 . S
C200 O190 1.282 . S
C200 O201 1.216 . S
O201 C200 1.216 . S
H202 C197 0.930 . S
H203 C198 0.930 . S
O204 Cu184 1.959 . S
O204 C191 1.251 . S
H205 C188 0.930 . S
H206 C199 0.929 . S
Cu207 N208 1.999 . S
Cu207 O213 1.974 . S
Cu207 N218 1.985 . S
Cu207 O227 1.959 . S
N208 Cu207 1.999 . S
N208 C210 1.263 . S
N208 C212 1.389 . S
N209 C210 1.358 . S
N209 C211 1.400 . S
C210 N208 1.263 . S
C210 N209 1.358 . S
C210 H216 0.930 . S
C211 N209 1.400 . S
C211 C212 1.351 . S
C211 H228 0.930 . S
C212 N208 1.389 . S
C212 C211 1.351 . S
C212 H217 0.930 . S
O213 Cu207 1.974 . S
O213 C223 1.282 . S
C214 O215 1.261 . S
C214 O227 1.251 . S
O215 C214 1.261 . S
H216 C210 0.930 . S
H217 C212 0.930 . S
N218 Cu207 1.985 . S
N218 C220 1.335 . S
N218 C221 1.390 . S
N219 C220 1.345 . S
N219 C222 1.336 . S
C220 N218 1.335 . S
C220 N219 1.345 . S
C220 H225 0.930 . S
C221 N218 1.390 . S
C221 C222 1.346 . S
C221 H226 0.930 . S
C222 N219 1.336 . S
C222 C221 1.346 . S
C222 H229 0.929 . S
C223 O213 1.282 . S
C223 O224 1.216 . S
O224 C223 1.216 . S
H225 C220 0.930 . S
H226 C221 0.930 . S
O227 Cu207 1.959 . S
O227 C214 1.251 . S
H228 C211 0.930 . S
H229 C222 0.929 . S
Cu230 N231 1.999 . S
Cu230 O236 1.974 . S
Cu230 N241 1.985 . S
Cu230 O250 1.959 . S
N231 Cu230 1.999 . S
N231 C233 1.263 . S
N231 C235 1.389 . S
N232 C233 1.358 . S
N232 C234 1.400 . S
C233 N231 1.263 . S
C233 N232 1.358 . S
C233 H239 0.930 . S
C234 N232 1.400 . S
C234 C235 1.351 . S
C234 H251 0.930 . S
C235 N231 1.389 . S
C235 C234 1.351 . S
C235 H240 0.930 . S
O236 Cu230 1.974 . S
O236 C246 1.282 . S
C237 O238 1.261 . S
C237 O250 1.251 . S
O238 C237 1.261 . S
H239 C233 0.930 . S
H240 C235 0.930 . S
N241 Cu230 1.985 . S
N241 C243 1.335 . S
N241 C244 1.390 . S
N242 C243 1.345 . S
N242 C245 1.336 . S
C243 N241 1.335 . S
C243 N242 1.345 . S
C243 H248 0.930 . S
C244 N241 1.390 . S
C244 C245 1.346 . S
C244 H249 0.930 . S
C245 N242 1.336 . S
C245 C244 1.346 . S
C245 H252 0.929 . S
C246 O236 1.282 . S
C246 O247 1.216 . S
O247 C246 1.216 . S
H248 C243 0.930 . S
H249 C244 0.930 . S
O250 Cu230 1.959 . S
O250 C237 1.251 . S
H251 C234 0.930 . S
H252 C245 0.929 . S
Cu253 N254 1.999 . S
Cu253 O259 1.974 . S
Cu253 N264 1.985 . S
Cu253 O273 1.959 . S
N254 Cu253 1.999 . S
N254 C256 1.263 . S
N254 C258 1.389 . S
N255 C256 1.358 . S
N255 C257 1.400 . S
C256 N254 1.263 . S
C256 N255 1.358 . S
C256 H262 0.930 . S
C257 N255 1.400 . S
C257 C258 1.351 . S
C257 H274 0.930 . S
C258 N254 1.389 . S
C258 C257 1.351 . S
C258 H263 0.930 . S
O259 Cu253 1.974 . S
O259 C269 1.282 . S
C260 O261 1.261 . S
C260 O273 1.251 . S
O261 C260 1.261 . S
H262 C256 0.930 . S
H263 C258 0.930 . S
N264 Cu253 1.985 . S
N264 C266 1.335 . S
N264 C267 1.390 . S
N265 C266 1.345 . S
N265 C268 1.336 . S
C266 N264 1.335 . S
C266 N265 1.345 . S
C266 H271 0.930 . S
C267 N264 1.390 . S
C267 C268 1.346 . S
C267 H272 0.930 . S
C268 N265 1.336 . S
C268 C267 1.346 . S
C268 H275 0.929 . S
C269 O259 1.282 . S
C269 O270 1.216 . S
O270 C269 1.216 . S
H271 C266 0.930 . S
H272 C267 0.930 . S
O273 Cu253 1.959 . S
O273 C260 1.251 . S
H274 C257 0.930 . S
H275 C268 0.929 . S
Cu276 N277 1.999 . S
Cu276 O282 1.974 . S
Cu276 N287 1.985 . S
Cu276 O296 1.959 . S
N277 Cu276 1.999 . S
N277 C279 1.263 . S
N277 C281 1.389 . S
N278 C279 1.358 . S
N278 C280 1.400 . S
C279 N277 1.263 . S
C279 N278 1.358 . S
C279 H285 0.930 . S
C280 N278 1.400 . S
C280 C281 1.351 . S
C280 H297 0.930 . S
C281 N277 1.389 . S
C281 C280 1.351 . S
C281 H286 0.930 . S
O282 Cu276 1.974 . S
O282 C292 1.282 . S
C283 O284 1.261 . S
C283 O296 1.251 . S
O284 C283 1.261 . S
H285 C279 0.930 . S
H286 C281 0.930 . S
N287 Cu276 1.985 . S
N287 C289 1.335 . S
N287 C290 1.390 . S
N288 C289 1.345 . S
N288 C291 1.336 . S
C289 N287 1.335 . S
C289 N288 1.345 . S
C289 H294 0.930 . S
C290 N287 1.390 . S
C290 C291 1.346 . S
C290 H295 0.930 . S
C291 N288 1.336 . S
C291 C290 1.346 . S
C291 H298 0.929 . S
C292 O282 1.282 . S
C292 O293 1.216 . S
O293 C292 1.216 . S
H294 C289 0.930 . S
H295 C290 0.930 . S
O296 Cu276 1.959 . S
O296 C283 1.251 . S
H297 C280 0.930 . S
H298 C291 0.929 . S
Cu299 N300 1.999 . S
Cu299 O305 1.974 . S
Cu299 N310 1.985 . S
Cu299 O319 1.959 . S
N300 Cu299 1.999 . S
N300 C302 1.263 . S
N300 C304 1.389 . S
N301 C302 1.358 . S
N301 C303 1.400 . S
C302 N300 1.263 . S
C302 N301 1.358 . S
C302 H308 0.930 . S
C303 N301 1.400 . S
C303 C304 1.351 . S
C303 H320 0.930 . S
C304 N300 1.389 . S
C304 C303 1.351 . S
C304 H309 0.930 . S
O305 Cu299 1.974 . S
O305 C315 1.282 . S
C306 O307 1.261 . S
C306 O319 1.251 . S
O307 C306 1.261 . S
H308 C302 0.930 . S
H309 C304 0.930 . S
N310 Cu299 1.985 . S
N310 C312 1.335 . S
N310 C313 1.390 . S
N311 C312 1.345 . S
N311 C314 1.336 . S
C312 N310 1.335 . S
C312 N311 1.345 . S
C312 H317 0.930 . S
C313 N310 1.390 . S
C313 C314 1.346 . S
C313 H318 0.930 . S
C314 N311 1.336 . S
C314 C313 1.346 . S
C314 H321 0.929 . S
C315 O305 1.282 . S
C315 O316 1.216 . S
O316 C315 1.216 . S
H317 C312 0.930 . S
H318 C313 0.930 . S
O319 Cu299 1.959 . S
O319 C306 1.251 . S
H320 C303 0.930 . S
H321 C314 0.929 . S
Cu322 N323 1.999 . S
Cu322 O328 1.974 . S
Cu322 N333 1.985 . S
Cu322 O342 1.959 . S
N323 Cu322 1.999 . S
N323 C325 1.263 . S
N323 C327 1.389 . S
N324 C325 1.358 . S
N324 C326 1.400 . S
C325 N323 1.263 . S
C325 N324 1.358 . S
C325 H331 0.930 . S
C326 N324 1.400 . S
C326 C327 1.351 . S
C326 H343 0.930 . S
C327 N323 1.389 . S
C327 C326 1.351 . S
C327 H332 0.930 . S
O328 Cu322 1.974 . S
O328 C338 1.282 . S
C329 O330 1.261 . S
C329 O342 1.251 . S
O330 C329 1.261 . S
H331 C325 0.930 . S
H332 C327 0.930 . S
N333 Cu322 1.985 . S
N333 C335 1.335 . S
N333 C336 1.390 . S
N334 C335 1.345 . S
N334 C337 1.336 . S
C335 N333 1.335 . S
C335 N334 1.345 . S
C335 H340 0.930 . S
C336 N333 1.390 . S
C336 C337 1.346 . S
C336 H341 0.930 . S
C337 N334 1.336 . S
C337 C336 1.346 . S
C337 H344 0.929 . S
C338 O328 1.282 . S
C338 O339 1.216 . S
O339 C338 1.216 . S
H340 C335 0.930 . S
H341 C336 0.930 . S
O342 Cu322 1.959 . S
O342 C329 1.251 . S
H343 C326 0.930 . S
H344 C337 0.929 . S
Cu345 N346 1.999 . S
Cu345 O351 1.974 . S
Cu345 N356 1.985 . S
Cu345 O365 1.959 . S
N346 Cu345 1.999 . S
N346 C348 1.263 . S
N346 C350 1.389 . S
N347 C348 1.358 . S
N347 C349 1.400 . S
C348 N346 1.263 . S
C348 N347 1.358 . S
C348 H354 0.930 . S
C349 N347 1.400 . S
C349 C350 1.351 . S
C349 H366 0.930 . S
C350 N346 1.389 . S
C350 C349 1.351 . S
C350 H355 0.930 . S
O351 Cu345 1.974 . S
O351 C361 1.282 . S
C352 O353 1.261 . S
C352 O365 1.251 . S
O353 C352 1.261 . S
H354 C348 0.930 . S
H355 C350 0.930 . S
N356 Cu345 1.985 . S
N356 C358 1.335 . S
N356 C359 1.390 . S
N357 C358 1.345 . S
N357 C360 1.336 . S
C358 N356 1.335 . S
C358 N357 1.345 . S
C358 H363 0.930 . S
C359 N356 1.390 . S
C359 C360 1.346 . S
C359 H364 0.930 . S
C360 N357 1.336 . S
C360 C359 1.346 . S
C360 H367 0.929 . S
C361 O351 1.282 . S
C361 O362 1.216 . S
O362 C361 1.216 . S
H363 C358 0.930 . S
H364 C359 0.930 . S
O365 Cu345 1.959 . S
O365 C352 1.251 . S
H366 C349 0.930 . S
H367 C360 0.929 . S
Cu368 N369 1.999 . S
Cu368 O374 1.974 . S
Cu368 N379 1.985 . S
Cu368 O388 1.959 . S
N369 Cu368 1.999 . S
N369 C371 1.263 . S
N369 C373 1.389 . S
N370 C371 1.358 . S
N370 C372 1.400 . S
C371 N369 1.263 . S
C371 N370 1.358 . S
C371 H377 0.930 . S
C372 N370 1.400 . S
C372 C373 1.351 . S
C372 H389 0.930 . S
C373 N369 1.389 . S
C373 C372 1.351 . S
C373 H378 0.930 . S
O374 Cu368 1.974 . S
O374 C384 1.282 . S
C375 O376 1.261 . S
C375 O388 1.251 . S
O376 C375 1.261 . S
H377 C371 0.930 . S
H378 C373 0.930 . S
N379 Cu368 1.985 . S
N379 C381 1.335 . S
N379 C382 1.390 . S
N380 C381 1.345 . S
N380 C383 1.336 . S
C381 N379 1.335 . S
C381 N380 1.345 . S
C381 H386 0.930 . S
C382 N379 1.390 . S
C382 C383 1.346 . S
C382 H387 0.930 . S
C383 N380 1.336 . S
C383 C382 1.346 . S
C383 H390 0.929 . S
C384 O374 1.282 . S
C384 O385 1.216 . S
O385 C384 1.216 . S
H386 C381 0.930 . S
H387 C382 0.930 . S
O388 Cu368 1.959 . S
O388 C375 1.251 . S
H389 C372 0.930 . S
H390 C383 0.929 . S
Cu391 N392 1.999 . S
Cu391 O397 1.974 . S
Cu391 N402 1.985 . S
Cu391 O411 1.959 . S
N392 Cu391 1.999 . S
N392 C394 1.263 . S
N392 C396 1.389 . S
N393 C394 1.358 . S
N393 C395 1.400 . S
C394 N392 1.263 . S
C394 N393 1.358 . S
C394 H400 0.930 . S
C395 N393 1.400 . S
C395 C396 1.351 . S
C395 H412 0.930 . S
C396 N392 1.389 . S
C396 C395 1.351 . S
C396 H401 0.930 . S
O397 Cu391 1.974 . S
O397 C407 1.282 . S
C398 O399 1.261 . S
C398 O411 1.251 . S
O399 C398 1.261 . S
H400 C394 0.930 . S
H401 C396 0.930 . S
N402 Cu391 1.985 . S
N402 C404 1.335 . S
N402 C405 1.390 . S
N403 C404 1.345 . S
N403 C406 1.336 . S
C404 N402 1.335 . S
C404 N403 1.345 . S
C404 H409 0.930 . S
C405 N402 1.390 . S
C405 C406 1.346 . S
C405 H410 0.930 . S
C406 N403 1.336 . S
C406 C405 1.346 . S
C406 H413 0.929 . S
C407 O397 1.282 . S
C407 O408 1.216 . S
O408 C407 1.216 . S
H409 C404 0.930 . S
H410 C405 0.930 . S
O411 Cu391 1.959 . S
O411 C398 1.251 . S
H412 C395 0.930 . S
H413 C406 0.929 . S
Mn414 O419 2.095 . S
Mn414 O429 2.162 . S
Mn414 O430 2.297 . S
Mn414 O438 2.385 1_455 S
Mn414 O439 2.209 1_455 S
Mn414 O440 2.094 . S
Mn415 O420 2.121 . S
Mn415 N422 2.257 . S
Mn415 N431 2.282 . S
Mn415 O439 2.215 . S
Mn415 O441 2.117 . S
C416 O438 1.234 . S
C416 O439 1.283 . S
C417 O429 1.281 . S
C417 O430 1.236 . S
C418 O440 1.240 . S
C418 O441 1.264 1_455 S
O419 Mn414 2.095 . S
O419 C428 1.250 . S
O420 Mn415 2.121 . S
O420 C428 1.258 1_655 S
C421 N422 1.326 . S
C421 C425 1.460 . S
C421 H427 0.929 . S
N422 Mn415 2.257 . S
N422 C421 1.326 . S
N422 C426 1.362 . S
C423 C424 1.258 . S
C423 C426 1.431 . S
C423 C443 1.449 . S
C424 C423 1.258 . S
C424 C425 1.477 . S
C424 H444 0.931 . S
C425 C421 1.460 . S
C425 C424 1.477 . S
C425 H445 0.930 . S
C426 N422 1.362 . S
C426 C423 1.431 . S
C426 C436 1.476 . S
H427 C421 0.929 . S
C428 O419 1.250 . S
C428 O420 1.258 1_455 S
O429 Mn414 2.162 . S
O429 C417 1.281 . S
O430 Mn414 2.297 . S
O430 C417 1.236 . S
N431 Mn415 2.282 . S
N431 C432 1.328 . S
N431 C436 1.318 . S
C432 N431 1.328 . S
C432 C433 1.457 . S
C432 H437 0.929 . S
C433 C432 1.457 . S
C433 C434 1.291 . S
C433 H446 0.931 . S
C434 C433 1.291 . S
C434 C435 1.373 . S
C434 H447 0.929 . S
C435 C434 1.373 . S
C435 C436 1.396 . S
C435 C442 1.403 . S
C436 C426 1.476 . S
C436 N431 1.318 . S
C436 C435 1.396 . S
H437 C432 0.929 . S
O438 Mn414 2.385 1_655 S
O438 C416 1.234 . S
O439 Mn414 2.209 1_655 S
O439 Mn415 2.215 . S
O439 C416 1.283 . S
O440 Mn414 2.094 . S
O440 C418 1.240 . S
O441 Mn415 2.117 . S
O441 C418 1.264 1_655 S
C442 C435 1.403 . S
C442 C443 1.399 . S
C442 H448 0.929 . S
C443 C423 1.449 . S
C443 C442 1.399 . S
C443 H449 0.930 . S
H444 C424 0.931 . S
H445 C425 0.930 . S
H446 C433 0.931 . S
H447 C434 0.929 . S
H448 C442 0.929 . S
H449 C443 0.930 . S
Mn450 O455 2.095 . S
Mn450 O465 2.162 . S
Mn450 O466 2.297 . S
Mn450 O474 2.385 . S
Mn450 O475 2.209 . S
Mn450 O476 2.094 . S
Mn451 O456 2.121 . S
Mn451 N458 2.257 . S
Mn451 N467 2.282 . S
Mn451 O475 2.215 . S
Mn451 O477 2.117 . S
C452 O474 1.234 . S
C452 O475 1.283 . S
C453 O465 1.281 . S
C453 O466 1.236 . S
C454 O476 1.240 . S
C454 O477 1.264 . S
O455 Mn450 2.095 . S
O455 C464 1.250 . S
O456 Mn451 2.121 . S
O456 C464 1.258 . S
C457 N458 1.326 . S
C457 C461 1.460 . S
C457 H463 0.929 . S
N458 Mn451 2.257 . S
N458 C457 1.326 . S
N458 C462 1.362 . S
C459 C460 1.258 . S
C459 C462 1.431 . S
C459 C479 1.449 . S
C460 C459 1.258 . S
C460 C461 1.477 . S
C460 H480 0.931 . S
C461 C457 1.460 . S
C461 C460 1.477 . S
C461 H481 0.930 . S
C462 N458 1.362 . S
C462 C459 1.431 . S
C462 C472 1.476 . S
H463 C457 0.929 . S
C464 O455 1.250 . S
C464 O456 1.258 . S
O465 Mn450 2.162 . S
O465 C453 1.281 . S
O466 Mn450 2.297 . S
O466 C453 1.236 . S
N467 Mn451 2.282 . S
N467 C468 1.328 . S
N467 C472 1.318 . S
C468 N467 1.328 . S
C468 C469 1.457 . S
C468 H473 0.929 . S
C469 C468 1.457 . S
C469 C470 1.291 . S
C469 H482 0.931 . S
C470 C469 1.291 . S
C470 C471 1.373 . S
C470 H483 0.929 . S
C471 C470 1.373 . S
C471 C472 1.396 . S
C471 C478 1.403 . S
C472 C462 1.476 . S
C472 N467 1.318 . S
C472 C471 1.396 . S
H473 C468 0.929 . S
O474 Mn450 2.385 . S
O474 C452 1.234 . S
O475 Mn450 2.209 . S
O475 Mn451 2.215 . S
O475 C452 1.283 . S
O476 Mn450 2.094 . S
O476 C454 1.240 . S
O477 Mn451 2.117 . S
O477 C454 1.264 . S
C478 C471 1.403 . S
C478 C479 1.399 . S
C478 H484 0.929 . S
C479 C459 1.449 . S
C479 C478 1.399 . S
C479 H485 0.930 . S
H480 C460 0.931 . S
H481 C461 0.930 . S
H482 C469 0.931 . S
H483 C470 0.929 . S
H484 C478 0.929 . S
H485 C479 0.930 . S
Mn486 O491 2.095 . S
Mn486 O501 2.162 . S
Mn486 O502 2.297 . S
Mn486 O510 2.385 . S
Mn486 O511 2.209 . S
Mn486 O512 2.094 . S
Mn487 O492 2.121 . S
Mn487 N494 2.257 . S
Mn487 N503 2.282 . S
Mn487 O511 2.215 . S
Mn487 O513 2.117 . S
C488 O510 1.234 . S
C488 O511 1.283 . S
C489 O501 1.281 . S
C489 O502 1.236 . S
C490 O512 1.240 . S
C490 O513 1.264 . S
O491 Mn486 2.095 . S
O491 C500 1.250 . S
O492 Mn487 2.121 . S
O492 C500 1.258 . S
C493 N494 1.326 . S
C493 C497 1.460 . S
C493 H499 0.929 . S
N494 Mn487 2.257 . S
N494 C493 1.326 . S
N494 C498 1.362 . S
C495 C496 1.258 . S
C495 C498 1.431 . S
C495 C515 1.449 . S
C496 C495 1.258 . S
C496 C497 1.477 . S
C496 H516 0.931 . S
C497 C493 1.460 . S
C497 C496 1.477 . S
C497 H517 0.930 . S
C498 N494 1.362 . S
C498 C495 1.431 . S
C498 C508 1.476 . S
H499 C493 0.929 . S
C500 O491 1.250 . S
C500 O492 1.258 . S
O501 Mn486 2.162 . S
O501 C489 1.281 . S
O502 Mn486 2.297 . S
O502 C489 1.236 . S
N503 Mn487 2.282 . S
N503 C504 1.328 . S
N503 C508 1.318 . S
C504 N503 1.328 . S
C504 C505 1.457 . S
C504 H509 0.929 . S
C505 C504 1.457 . S
C505 C506 1.291 . S
C505 H518 0.931 . S
C506 C505 1.291 . S
C506 C507 1.373 . S
C506 H519 0.929 . S
C507 C506 1.373 . S
C507 C508 1.396 . S
C507 C514 1.403 . S
C508 C498 1.476 . S
C508 N503 1.318 . S
C508 C507 1.396 . S
H509 C504 0.929 . S
O510 Mn486 2.385 . S
O510 C488 1.234 . S
O511 Mn486 2.209 . S
O511 Mn487 2.215 . S
O511 C488 1.283 . S
O512 Mn486 2.094 . S
O512 C490 1.240 . S
O513 Mn487 2.117 . S
O513 C490 1.264 . S
C514 C507 1.403 . S
C514 C515 1.399 . S
C514 H520 0.929 . S
C515 C495 1.449 . S
C515 C514 1.399 . S
C515 H521 0.930 . S
H516 C496 0.931 . S
H517 C497 0.930 . S
H518 C505 0.931 . S
H519 C506 0.929 . S
H520 C514 0.929 . S
H521 C515 0.930 . S
Mn522 O527 2.095 . S
Mn522 O537 2.162 . S
Mn522 O538 2.297 . S
Mn522 O546 2.385 . S
Mn522 O547 2.209 . S
Mn522 O548 2.094 1_455 S
Mn523 O528 2.121 . S
Mn523 N530 2.257 . S
Mn523 N539 2.282 . S
Mn523 O547 2.215 . S
Mn523 O549 2.117 1_455 S
C524 O546 1.234 . S
C524 O547 1.283 . S
C525 O537 1.281 . S
C525 O538 1.236 . S
C526 O548 1.240 . S
C526 O549 1.264 . S
O527 Mn522 2.095 . S
O527 C536 1.250 . S
O528 Mn523 2.121 . S
O528 C536 1.258 . S
C529 N530 1.326 . S
C529 C533 1.460 . S
C529 H535 0.929 . S
N530 Mn523 2.257 . S
N530 C529 1.326 . S
N530 C534 1.362 . S
C531 C532 1.258 . S
C531 C534 1.431 . S
C531 C551 1.449 . S
C532 C531 1.258 . S
C532 C533 1.477 . S
C532 H552 0.931 . S
C533 C529 1.460 . S
C533 C532 1.477 . S
C533 H553 0.930 . S
C534 N530 1.362 . S
C534 C531 1.431 . S
C534 C544 1.476 . S
H535 C529 0.929 . S
C536 O527 1.250 . S
C536 O528 1.258 . S
O537 Mn522 2.162 . S
O537 C525 1.281 . S
O538 Mn522 2.297 . S
O538 C525 1.236 . S
N539 Mn523 2.282 . S
N539 C540 1.328 . S
N539 C544 1.318 . S
C540 N539 1.328 . S
C540 C541 1.457 . S
C540 H545 0.929 . S
C541 C540 1.457 . S
C541 C542 1.291 . S
C541 H554 0.931 . S
C542 C541 1.291 . S
C542 C543 1.373 . S
C542 H555 0.929 . S
C543 C542 1.373 . S
C543 C544 1.396 . S
C543 C550 1.403 . S
C544 C534 1.476 . S
C544 N539 1.318 . S
C544 C543 1.396 . S
H545 C540 0.929 . S
O546 Mn522 2.385 . S
O546 C524 1.234 . S
O547 Mn522 2.209 . S
O547 Mn523 2.215 . S
O547 C524 1.283 . S
O548 Mn522 2.094 1_655 S
O548 C526 1.240 . S
O549 Mn523 2.117 1_655 S
O549 C526 1.264 . S
C550 C543 1.403 . S
C550 C551 1.399 . S
C550 H556 0.929 . S
C551 C531 1.449 . S
C551 C550 1.399 . S
C551 H557 0.930 . S
H552 C532 0.931 . S
H553 C533 0.930 . S
H554 C541 0.931 . S
H555 C542 0.929 . S
H556 C550 0.929 . S
H557 C551 0.930 . S
Mn558 O563 2.095 . S
Mn558 O573 2.162 . S
Mn558 O574 2.297 . S
Mn558 O582 2.385 . S
Mn558 O583 2.209 . S
Mn558 O584 2.094 . S
Mn559 O564 2.121 . S
Mn559 N566 2.257 . S
Mn559 N575 2.282 . S
Mn559 O583 2.215 . S
Mn559 O585 2.117 . S
C560 O582 1.234 . S
C560 O583 1.283 . S
C561 O573 1.281 . S
C561 O574 1.236 . S
C562 O584 1.240 . S
C562 O585 1.264 . S
O563 Mn558 2.095 . S
O563 C572 1.250 . S
O564 Mn559 2.121 . S
O564 C572 1.258 . S
C565 N566 1.326 . S
C565 C569 1.460 . S
C565 H571 0.929 . S
N566 Mn559 2.257 . S
N566 C565 1.326 . S
N566 C570 1.362 . S
C567 C568 1.258 . S
C567 C570 1.431 . S
C567 C587 1.449 . S
C568 C567 1.258 . S
C568 C569 1.477 . S
C568 H588 0.931 . S
C569 C565 1.460 . S
C569 C568 1.477 . S
C569 H589 0.930 . S
C570 N566 1.362 . S
C570 C567 1.431 . S
C570 C580 1.476 . S
H571 C565 0.929 . S
C572 O563 1.250 . S
C572 O564 1.258 . S
O573 Mn558 2.162 . S
O573 C561 1.281 . S
O574 Mn558 2.297 . S
O574 C561 1.236 . S
N575 Mn559 2.282 . S
N575 C576 1.328 . S
N575 C580 1.318 . S
C576 N575 1.328 . S
C576 C577 1.457 . S
C576 H581 0.929 . S
C577 C576 1.457 . S
C577 C578 1.291 . S
C577 H590 0.931 . S
C578 C577 1.291 . S
C578 C579 1.373 . S
C578 H591 0.929 . S
C579 C578 1.373 . S
C579 C580 1.396 . S
C579 C586 1.403 . S
C580 C570 1.476 . S
C580 N575 1.318 . S
C580 C579 1.396 . S
H581 C576 0.929 . S
O582 Mn558 2.385 . S
O582 C560 1.234 . S
O583 Mn558 2.209 . S
O583 Mn559 2.215 . S
O583 C560 1.283 . S
O584 Mn558 2.094 . S
O584 C562 1.240 . S
O585 Mn559 2.117 . S
O585 C562 1.264 . S
C586 C579 1.403 . S
C586 C587 1.399 . S
C586 H592 0.929 . S
C587 C567 1.449 . S
C587 C586 1.399 . S
C587 H593 0.930 . S
H588 C568 0.931 . S
H589 C569 0.930 . S
H590 C577 0.931 . S
H591 C578 0.929 . S
H592 C586 0.929 . S
H593 C587 0.930 . S
Mn594 O599 2.095 . S
Mn594 O609 2.162 . S
Mn594 O610 2.297 . S
Mn594 O618 2.385 . S
Mn594 O619 2.206 . S
Mn594 O620 2.094 . S
Mn595 O600 2.121 . S
Mn595 N602 2.257 1_545 S
Mn595 N611 2.282 . S
Mn595 O619 2.212 . S
Mn595 O621 2.117 . S
C596 O618 1.234 1_565 S
C596 O619 1.282 1_565 S
C597 O609 1.281 . S
C597 O610 1.236 . S
C598 O620 1.240 . S
C598 O621 1.264 . S
O599 Mn594 2.095 . S
O599 C608 1.250 . S
O600 Mn595 2.121 . S
O600 C608 1.258 . S
C601 N602 1.326 . S
C601 C605 1.460 . S
C601 H607 0.929 . S
N602 Mn595 2.257 1_565 S
N602 C601 1.326 . S
N602 C606 1.362 . S
C603 C604 1.258 . S
C603 C606 1.431 . S
C603 C623 1.449 . S
C604 C603 1.258 . S
C604 C605 1.477 . S
C604 H624 0.931 . S
C605 C601 1.460 . S
C605 C604 1.477 . S
C605 H625 0.930 . S
C606 N602 1.362 . S
C606 C603 1.431 . S
C606 C616 1.476 . S
H607 C601 0.929 . S
C608 O599 1.250 . S
C608 O600 1.258 . S
O609 Mn594 2.162 . S
O609 C597 1.281 . S
O610 Mn594 2.297 . S
O610 C597 1.236 . S
N611 Mn595 2.282 . S
N611 C612 1.328 . S
N611 C616 1.318 1_545 S
C612 N611 1.328 . S
C612 C613 1.457 . S
C612 H617 0.929 . S
C613 C612 1.457 . S
C613 C614 1.291 1_545 S
C613 H626 0.931 . S
C614 C613 1.291 1_565 S
C614 C615 1.373 . S
C614 H627 0.929 . S
C615 C614 1.373 . S
C615 C616 1.396 . S
C615 C622 1.403 . S
C616 C606 1.476 . S
C616 N611 1.318 1_565 S
C616 C615 1.396 . S
H617 C612 0.929 . S
O618 Mn594 2.385 . S
O618 C596 1.234 1_545 S
O619 Mn594 2.206 . S
O619 Mn595 2.212 . S
O619 C596 1.282 1_545 S
O620 Mn594 2.094 . S
O620 C598 1.240 . S
O621 Mn595 2.117 . S
O621 C598 1.264 . S
C622 C615 1.403 . S
C622 C623 1.399 . S
C622 H628 0.929 . S
C623 C603 1.449 . S
C623 C622 1.399 . S
C623 H629 0.930 . S
H624 C604 0.931 . S
H625 C605 0.930 . S
H626 C613 0.931 . S
H627 C614 0.929 . S
H628 C622 0.929 . S
H629 C623 0.930 . S
Mn630 O635 2.095 1_545 S
Mn630 O645 2.162 . S
Mn630 O646 2.297 . S
Mn630 O654 2.385 . S
Mn630 O655 2.209 1_545 S
Mn630 O656 2.094 1_545 S
Mn631 O636 2.121 . S
Mn631 N638 2.257 . S
Mn631 N647 2.282 . S
Mn631 O655 2.215 . S
Mn631 O657 2.117 . S
C632 O654 1.234 . S
C632 O655 1.283 1_545 S
C633 O645 1.281 . S
C633 O646 1.236 . S
C634 O656 1.240 . S
C634 O657 1.264 . S
O635 Mn630 2.095 1_565 S
O635 C644 1.250 . S
O636 Mn631 2.121 . S
O636 C644 1.258 . S
C637 N638 1.326 . S
C637 C641 1.460 . S
C637 H643 0.929 . S
N638 Mn631 2.257 . S
N638 C637 1.326 . S
N638 C642 1.362 . S
C639 C640 1.258 . S
C639 C642 1.431 . S
C639 C659 1.449 . S
C640 C639 1.258 . S
C640 C641 1.477 . S
C640 H660 0.931 . S
C641 C637 1.460 . S
C641 C640 1.477 . S
C641 H661 0.930 . S
C642 N638 1.362 . S
C642 C639 1.431 . S
C642 C652 1.476 . S
H643 C637 0.929 . S
C644 O635 1.250 . S
C644 O636 1.258 . S
O645 Mn630 2.162 . S
O645 C633 1.281 . S
O646 Mn630 2.297 . S
O646 C633 1.236 . S
N647 Mn631 2.282 . S
N647 C648 1.328 . S
N647 C652 1.318 . S
C648 N647 1.328 . S
C648 C649 1.457 . S
C648 H653 0.929 . S
C649 C648 1.457 . S
C649 C650 1.291 . S
C649 H662 0.931 . S
C650 C649 1.291 . S
C650 C651 1.373 . S
C650 H663 0.929 . S
C651 C650 1.373 . S
C651 C652 1.396 . S
C651 C658 1.403 . S
C652 C642 1.476 . S
C652 N647 1.318 . S
C652 C651 1.396 . S
H653 C648 0.929 . S
O654 Mn630 2.385 . S
O654 C632 1.234 . S
O655 Mn630 2.209 1_565 S
O655 Mn631 2.215 . S
O655 C632 1.283 1_565 S
O656 Mn630 2.094 1_565 S
O656 C634 1.240 . S
O657 Mn631 2.117 . S
O657 C634 1.264 . S
C658 C651 1.403 . S
C658 C659 1.399 . S
C658 H664 0.929 . S
C659 C639 1.449 . S
C659 C658 1.399 . S
C659 H665 0.930 . S
H660 C640 0.931 . S
H661 C641 0.930 . S
H662 C649 0.931 . S
H663 C650 0.929 . S
H664 C658 0.929 . S
H665 C659 0.930 . S
Mn666 O671 2.095 . S
Mn666 O681 2.162 . S
Mn666 O682 2.297 . S
Mn666 O690 2.385 . S
Mn666 O691 2.209 . S
Mn666 O692 2.094 . S
Mn667 O672 2.121 . S
Mn667 N674 2.257 . S
Mn667 N683 2.282 . S
Mn667 O691 2.215 . S
Mn667 O693 2.117 . S
C668 O690 1.234 . S
C668 O691 1.283 . S
C669 O681 1.281 . S
C669 O682 1.236 . S
C670 O692 1.240 . S
C670 O693 1.264 . S
O671 Mn666 2.095 . S
O671 C680 1.250 . S
O672 Mn667 2.121 . S
O672 C680 1.258 . S
C673 N674 1.326 . S
C673 C677 1.447 1_455 S
C673 H679 0.929 . S
N674 Mn667 2.257 . S
N674 C673 1.326 . S
N674 C678 1.362 . S
C675 C676 1.258 . S
C675 C678 1.431 1_655 S
C675 C695 1.449 . S
C676 C675 1.258 . S
C676 C677 1.487 . S
C676 H696 0.931 . S
C677 C673 1.447 1_655 S
C677 C676 1.487 . S
C677 H697 0.926 . S
C678 N674 1.362 . S
C678 C675 1.431 1_455 S
C678 C688 1.476 . S
H679 C673 0.929 . S
C680 O671 1.250 . S
C680 O672 1.258 . S
O681 Mn666 2.162 . S
O681 C669 1.281 . S
O682 Mn666 2.297 . S
O682 C669 1.236 . S
N683 Mn667 2.282 . S
N683 C684 1.328 . S
N683 C688 1.318 . S
C684 N683 1.328 . S
C684 C685 1.457 . S
C684 H689 0.929 . S
C685 C684 1.457 . S
C685 C686 1.291 1_455 S
C685 H698 0.931 . S
C686 C685 1.291 1_655 S
C686 C687 1.373 . S
C686 H699 0.929 . S
C687 C686 1.373 . S
C687 C688 1.396 1_655 S
C687 C694 1.403 . S
C688 C678 1.476 . S
C688 N683 1.318 . S
C688 C687 1.396 1_455 S
H689 C684 0.929 . S
O690 Mn666 2.385 . S
O690 C668 1.234 . S
O691 Mn666 2.209 . S
O691 Mn667 2.215 . S
O691 C668 1.283 . S
O692 Mn666 2.094 . S
O692 C670 1.240 . S
O693 Mn667 2.117 . S
O693 C670 1.264 . S
C694 C687 1.403 . S
C694 C695 1.399 . S
C694 H700 0.929 . S
C695 C675 1.449 . S
C695 C694 1.399 . S
C695 H701 0.930 . S
H696 C676 0.931 . S
H697 C677 0.926 . S
H698 C685 0.931 . S
H699 C686 0.929 . S
H700 C694 0.929 . S
H701 C695 0.930 . S
Mn702 O707 2.095 . S
Mn702 O717 2.162 . S
Mn702 O718 2.297 . S
Mn702 O726 2.385 . S
Mn702 O727 2.209 . S
Mn702 O728 2.094 . S
Mn703 O708 2.121 . S
Mn703 N710 2.257 . S
Mn703 N719 2.282 . S
Mn703 O727 2.215 . S
Mn703 O729 2.117 . S
C704 O726 1.234 . S
C704 O727 1.283 . S
C705 O717 1.281 . S
C705 O718 1.236 . S
C706 O728 1.240 . S
C706 O729 1.264 . S
O707 Mn702 2.095 . S
O707 C716 1.250 . S
O708 Mn703 2.121 . S
O708 C716 1.258 . S
C709 N710 1.326 . S
C709 C713 1.460 . S
C709 H715 0.929 . S
N710 Mn703 2.257 . S
N710 C709 1.326 . S
N710 C714 1.362 . S
C711 C712 1.258 . S
C711 C714 1.431 . S
C711 C731 1.449 . S
C712 C711 1.258 . S
C712 C713 1.477 . S
C712 H732 0.931 . S
C713 C709 1.460 . S
C713 C712 1.477 . S
C713 H733 0.930 . S
C714 N710 1.362 . S
C714 C711 1.431 . S
C714 C724 1.476 . S
H715 C709 0.929 . S
C716 O707 1.250 . S
C716 O708 1.258 . S
O717 Mn702 2.162 . S
O717 C705 1.281 . S
O718 Mn702 2.297 . S
O718 C705 1.236 . S
N719 Mn703 2.282 . S
N719 C720 1.328 . S
N719 C724 1.318 . S
C720 N719 1.328 . S
C720 C721 1.457 . S
C720 H725 0.929 . S
C721 C720 1.457 . S
C721 C722 1.291 . S
C721 H734 0.931 . S
C722 C721 1.291 . S
C722 C723 1.373 . S
C722 H735 0.929 . S
C723 C722 1.373 . S
C723 C724 1.396 . S
C723 C730 1.403 . S
C724 C714 1.476 . S
C724 N719 1.318 . S
C724 C723 1.396 . S
H725 C720 0.929 . S
O726 Mn702 2.385 . S
O726 C704 1.234 . S
O727 Mn702 2.209 . S
O727 Mn703 2.215 . S
O727 C704 1.283 . S
O728 Mn702 2.094 . S
O728 C706 1.240 . S
O729 Mn703 2.117 . S
O729 C706 1.264 . S
C730 C723 1.403 . S
C730 C731 1.399 . S
C730 H736 0.929 . S
C731 C711 1.449 . S
C731 C730 1.399 . S
C731 H737 0.930 . S
H732 C712 0.931 . S
H733 C713 0.930 . S
H734 C721 0.931 . S
H735 C722 0.929 . S
H736 C730 0.929 . S
H737 C731 0.930 . S
Mn738 O743 2.095 . S
Mn738 O753 2.162 . S
Mn738 O754 2.297 . S
Mn738 O762 2.385 . S
Mn738 O763 2.209 . S
Mn738 O764 2.094 . S
Mn739 O744 2.121 . S
Mn739 N746 2.257 . S
Mn739 N755 2.282 . S
Mn739 O763 2.215 . S
Mn739 O765 2.117 . S
C740 O762 1.234 . S
C740 O763 1.283 . S
C741 O753 1.281 . S
C741 O754 1.236 . S
C742 O764 1.240 . S
C742 O765 1.264 . S
O743 Mn738 2.095 . S
O743 C752 1.250 . S
O744 Mn739 2.121 . S
O744 C752 1.258 . S
C745 N746 1.326 . S
C745 C749 1.460 1_554 S
C745 H751 0.929 . S
N746 Mn739 2.257 . S
N746 C745 1.326 . S
N746 C750 1.362 . S
C747 C748 1.258 1_554 S
C747 C750 1.431 . S
C747 C767 1.449 . S
C748 C747 1.258 1_556 S
C748 C749 1.477 . S
C748 H768 0.931 . S
C749 C745 1.460 1_556 S
C749 C748 1.477 . S
C749 H769 0.930 . S
C750 N746 1.362 . S
C750 C747 1.431 . S
C750 C760 1.476 . S
H751 C745 0.929 . S
C752 O743 1.250 . S
C752 O744 1.258 . S
O753 Mn738 2.162 . S
O753 C741 1.281 . S
O754 Mn738 2.297 . S
O754 C741 1.236 . S
N755 Mn739 2.282 . S
N755 C756 1.328 . S
N755 C760 1.318 . S
C756 N755 1.328 . S
C756 C757 1.457 . S
C756 H761 0.929 . S
C757 C756 1.457 . S
C757 C758 1.291 . S
C757 H770 0.931 . S
C758 C757 1.291 . S
C758 C759 1.373 . S
C758 H771 0.929 . S
C759 C758 1.373 . S
C759 C760 1.396 . S
C759 C766 1.403 . S
C760 C750 1.476 . S
C760 N755 1.318 . S
C760 C759 1.396 . S
H761 C756 0.929 . S
O762 Mn738 2.385 . S
O762 C740 1.234 . S
O763 Mn738 2.209 . S
O763 Mn739 2.215 . S
O763 C740 1.283 . S
O764 Mn738 2.094 . S
O764 C742 1.240 . S
O765 Mn739 2.117 . S
O765 C742 1.264 . S
C766 C759 1.403 . S
C766 C767 1.399 . S
C766 H772 0.929 . S
C767 C747 1.449 . S
C767 C766 1.399 . S
C767 H773 0.930 . S
H768 C748 0.931 . S
H769 C749 0.930 . S
H770 C757 0.931 . S
H771 C758 0.929 . S
H772 C766 0.929 . S
H773 C767 0.930 . S
Mn774 O779 2.095 . S
Mn774 O789 2.162 . S
Mn774 O790 2.297 . S
Mn774 O798 2.385 1_565 S
Mn774 O799 2.209 . S
Mn774 O800 2.094 1_565 S
Mn775 O780 2.121 1_545 S
Mn775 N782 2.257 1_545 S
Mn775 N791 2.282 . S
Mn775 O799 2.215 1_545 S
Mn775 O801 2.117 . S
C776 O798 1.234 1_565 S
C776 O799 1.283 . S
C777 O789 1.281 . S
C777 O790 1.236 . S
C778 O800 1.240 . S
C778 O801 1.264 . S
O779 Mn774 2.095 . S
O779 C788 1.250 . S
O780 Mn775 2.121 1_565 S
O780 C788 1.258 . S
C781 N782 1.326 . S
C781 C785 1.460 . S
C781 H787 0.929 . S
N782 Mn775 2.257 1_565 S
N782 C781 1.326 . S
N782 C786 1.362 . S
C783 C784 1.258 . S
C783 C786 1.431 . S
C783 C803 1.449 . S
C784 C783 1.258 . S
C784 C785 1.477 . S
C784 H804 0.931 . S
C785 C781 1.460 . S
C785 C784 1.477 . S
C785 H805 0.930 . S
C786 N782 1.362 . S
C786 C783 1.431 . S
C786 C796 1.476 1_565 S
H787 C781 0.929 . S
C788 O779 1.250 . S
C788 O780 1.258 . S
O789 Mn774 2.162 . S
O789 C777 1.281 . S
O790 Mn774 2.297 . S
O790 C777 1.236 . S
N791 Mn775 2.282 . S
N791 C792 1.328 . S
N791 C796 1.318 . S
C792 N791 1.328 . S
C792 C793 1.457 . S
C792 H797 0.929 . S
C793 C792 1.457 . S
C793 C794 1.291 . S
C793 H806 0.931 . S
C794 C793 1.291 . S
C794 C795 1.373 . S
C794 H807 0.929 . S
C795 C794 1.373 . S
C795 C796 1.396 . S
C795 C802 1.403 . S
C796 C786 1.476 1_545 S
C796 N791 1.318 . S
C796 C795 1.396 . S
H797 C792 0.929 . S
O798 Mn774 2.385 1_545 S
O798 C776 1.234 1_545 S
O799 Mn774 2.209 . S
O799 Mn775 2.215 1_565 S
O799 C776 1.283 . S
O800 Mn774 2.094 1_545 S
O800 C778 1.240 . S
O801 Mn775 2.117 . S
O801 C778 1.264 . S
C802 C795 1.403 . S
C802 C803 1.399 1_545 S
C802 H808 0.929 . S
C803 C783 1.449 . S
C803 C802 1.399 1_565 S
C803 H809 0.930 . S
H804 C784 0.931 . S
H805 C785 0.930 . S
H806 C793 0.931 . S
H807 C794 0.929 . S
H808 C802 0.929 . S
H809 C803 0.930 . S
Mn810 O815 2.095 . S
Mn810 O825 2.162 . S
Mn810 O826 2.297 . S
Mn810 O834 2.385 . S
Mn810 O835 2.209 . S
Mn810 O836 2.094 . S
Mn811 O816 2.121 . S
Mn811 N818 2.257 1_455 S
Mn811 N827 2.282 1_455 S
Mn811 O835 2.215 . S
Mn811 O837 2.117 . S
C812 O834 1.234 . S
C812 O835 1.283 . S
C813 O825 1.281 . S
C813 O826 1.236 . S
C814 O836 1.240 . S
C814 O837 1.264 . S
O815 Mn810 2.095 . S
O815 C824 1.250 . S
O816 Mn811 2.121 . S
O816 C824 1.258 . S
C817 N818 1.326 . S
C817 C821 1.460 . S
C817 H823 0.929 1_655 S
N818 Mn811 2.257 1_655 S
N818 C817 1.326 . S
N818 C822 1.362 . S
C819 C820 1.258 . S
C819 C822 1.431 . S
C819 C839 1.449 . S
C820 C819 1.258 . S
C820 C821 1.477 . S
C820 H840 0.931 . S
C821 C817 1.460 . S
C821 C820 1.477 . S
C821 H841 0.939 . S
C822 N818 1.362 . S
C822 C819 1.431 . S
C822 C832 1.476 . S
H823 C817 0.929 1_455 S
C824 O815 1.250 . S
C824 O816 1.258 . S
O825 Mn810 2.162 . S
O825 C813 1.281 . S
O826 Mn810 2.297 . S
O826 C813 1.236 . S
N827 Mn811 2.282 1_655 S
N827 C828 1.328 . S
N827 C832 1.318 . S
C828 N827 1.328 . S
C828 C829 1.457 . S
C828 H833 0.929 . S
C829 C828 1.457 . S
C829 C830 1.291 . S
C829 H842 0.931 . S
C830 C829 1.291 . S
C830 C831 1.373 . S
C830 H843 0.929 . S
C831 C830 1.373 . S
C831 C832 1.396 . S
C831 C838 1.403 . S
C832 C822 1.476 . S
C832 N827 1.318 . S
C832 C831 1.396 . S
H833 C828 0.929 . S
O834 Mn810 2.385 . S
O834 C812 1.234 . S
O835 Mn810 2.209 . S
O835 Mn811 2.215 . S
O835 C812 1.283 . S
O836 Mn810 2.094 . S
O836 C814 1.240 . S
O837 Mn811 2.117 . S
O837 C814 1.264 . S
C838 C831 1.403 . S
C838 C839 1.399 . S
C838 H844 0.929 . S
C839 C819 1.449 . S
C839 C838 1.399 . S
C839 H845 0.930 . S
H840 C820 0.931 . S
H841 C821 0.939 . S
H842 C829 0.931 . S
H843 C830 0.929 . S
H844 C838 0.929 . S
H845 C839 0.930 . S
Mn846 O851 2.095 . S
Mn846 O861 2.162 . S
Mn846 O862 2.297 . S
Mn846 O870 2.385 . S
Mn846 O871 2.209 . S
Mn846 O872 2.094 . S
Mn847 O852 2.121 . S
Mn847 N854 2.257 . S
Mn847 N863 2.282 . S
Mn847 O871 2.215 . S
Mn847 O873 2.117 . S
C848 O870 1.234 . S
C848 O871 1.283 . S
C849 O861 1.281 . S
C849 O862 1.236 . S
C850 O872 1.240 . S
C850 O873 1.264 . S
O851 Mn846 2.095 . S
O851 C860 1.250 . S
O852 Mn847 2.121 . S
O852 C860 1.258 . S
C853 N854 1.326 . S
C853 C857 1.460 1_556 S
C853 H859 0.929 1_556 S
N854 Mn847 2.257 . S
N854 C853 1.326 . S
N854 C858 1.362 . S
C855 C856 1.258 . S
C855 C858 1.431 . S
C855 C875 1.449 . S
C856 C855 1.258 . S
C856 C857 1.477 1_556 S
C856 H876 0.931 . S
C857 C853 1.460 1_554 S
C857 C856 1.477 1_554 S
C857 H877 0.930 . S
C858 N854 1.362 . S
C858 C855 1.431 . S
C858 C868 1.476 . S
H859 C853 0.929 1_554 S
C860 O851 1.250 . S
C860 O852 1.258 . S
O861 Mn846 2.162 . S
O861 C849 1.281 . S
O862 Mn846 2.297 . S
O862 C849 1.236 . S
N863 Mn847 2.282 . S
N863 C864 1.328 . S
N863 C868 1.318 . S
C864 N863 1.328 . S
C864 C865 1.457 . S
C864 H869 0.929 . S
C865 C864 1.457 . S
C865 C866 1.291 . S
C865 H878 0.931 . S
C866 C865 1.291 . S
C866 C867 1.373 . S
C866 H879 0.929 . S
C867 C866 1.373 . S
C867 C868 1.396 . S
C867 C874 1.403 . S
C868 C858 1.476 . S
C868 N863 1.318 . S
C868 C867 1.396 . S
H869 C864 0.929 . S
O870 Mn846 2.385 . S
O870 C848 1.234 . S
O871 Mn846 2.209 . S
O871 Mn847 2.215 . S
O871 C848 1.283 . S
O872 Mn846 2.094 . S
O872 C850 1.240 . S
O873 Mn847 2.117 . S
O873 C850 1.264 . S
C874 C867 1.403 . S
C874 C875 1.399 . S
C874 H880 0.929 . S
C875 C855 1.449 . S
C875 C874 1.399 . S
C875 H881 0.930 . S
H876 C856 0.931 . S
H877 C857 0.930 . S
H878 C865 0.931 . S
H879 C866 0.929 . S
H880 C874 0.929 . S
H881 C875 0.930 . S
Mn882 O887 2.095 . S
Mn882 O897 2.162 . S
Mn882 O898 2.297 . S
Mn882 O906 2.385 . S
Mn882 O907 2.209 . S
Mn882 O908 2.094 . S
Mn883 O888 2.121 . S
Mn883 N890 2.257 . S
Mn883 N899 2.282 . S
Mn883 O907 2.215 . S
Mn883 O909 2.117 . S
C884 O906 1.234 . S
C884 O907 1.283 . S
C885 O897 1.281 . S
C885 O898 1.236 . S
C886 O908 1.240 . S
C886 O909 1.264 . S
O887 Mn882 2.095 . S
O887 C896 1.250 . S
O888 Mn883 2.121 . S
O888 C896 1.258 . S
C889 N890 1.326 . S
C889 C893 1.460 . S
C889 H895 0.929 . S
N890 Mn883 2.257 . S
N890 C889 1.326 . S
N890 C894 1.362 . S
C891 C892 1.258 . S
C891 C894 1.431 . S
C891 C911 1.449 . S
C892 C891 1.258 . S
C892 C893 1.477 . S
C892 H912 0.931 . S
C893 C889 1.460 . S
C893 C892 1.477 . S
C893 H913 0.930 . S
C894 N890 1.362 . S
C894 C891 1.431 . S
C894 C904 1.476 . S
H895 C889 0.929 . S
C896 O887 1.250 . S
C896 O888 1.258 . S
O897 Mn882 2.162 . S
O897 C885 1.281 . S
O898 Mn882 2.297 . S
O898 C885 1.236 . S
N899 Mn883 2.282 . S
N899 C900 1.328 . S
N899 C904 1.318 . S
C900 N899 1.328 . S
C900 C901 1.457 1_556 S
C900 H905 0.929 1_556 S
C901 C900 1.457 1_554 S
C901 C902 1.291 . S
C901 H914 0.931 . S
C902 C901 1.291 . S
C902 C903 1.373 1_554 S
C902 H915 0.929 . S
C903 C902 1.373 1_556 S
C903 C904 1.396 . S
C903 C910 1.403 . S
C904 C894 1.476 . S
C904 N899 1.318 . S
C904 C903 1.396 . S
H905 C900 0.929 1_554 S
O906 Mn882 2.385 . S
O906 C884 1.234 . S
O907 Mn882 2.209 . S
O907 Mn883 2.215 . S
O907 C884 1.283 . S
O908 Mn882 2.094 . S
O908 C886 1.240 . S
O909 Mn883 2.117 . S
O909 C886 1.264 . S
C910 C903 1.403 . S
C910 C911 1.399 . S
C910 H916 0.929 . S
C911 C891 1.449 . S
C911 C910 1.399 . S
C911 H917 0.930 . S
H912 C892 0.931 . S
H913 C893 0.930 . S
H914 C901 0.931 . S
H915 C902 0.929 . S
H916 C910 0.929 . S
H917 C911 0.930 . S
Mn918 O923 2.095 . S
Mn918 O933 2.162 . S
Mn918 O934 2.320 . S
Mn918 O942 2.385 1_655 S
Mn918 O943 2.209 . S
Mn918 O944 2.094 . S
Mn919 O924 2.121 . S
Mn919 N926 2.257 . S
Mn919 N935 2.282 . S
Mn919 O943 2.215 . S
Mn919 O945 2.117 . S
C920 O942 1.234 . S
C920 O943 1.283 1_455 S
C921 O933 1.281 . S
C921 O934 1.228 . S
C922 O944 1.240 . S
C922 O945 1.264 . S
O923 Mn918 2.095 . S
O923 C932 1.250 . S
O924 Mn919 2.121 . S
O924 C932 1.258 . S
C925 N926 1.326 . S
C925 C929 1.460 1_655 S
C925 H931 0.929 . S
N926 Mn919 2.257 . S
N926 C925 1.326 . S
N926 C930 1.362 1_655 S
C927 C928 1.258 . S
C927 C930 1.431 . S
C927 C947 1.449 . S
C928 C927 1.258 . S
C928 C929 1.477 . S
C928 H948 0.931 . S
C929 C925 1.460 1_455 S
C929 C928 1.477 . S
C929 H949 0.930 . S
C930 N926 1.362 1_455 S
C930 C927 1.431 . S
C930 C940 1.476 . S
H931 C925 0.929 . S
C932 O923 1.250 . S
C932 O924 1.258 . S
O933 Mn918 2.162 . S
O933 C921 1.281 . S
O934 Mn918 2.320 . S
O934 C921 1.228 . S
N935 Mn919 2.282 . S
N935 C936 1.328 . S
N935 C940 1.318 1_655 S
C936 N935 1.328 . S
C936 C937 1.457 1_655 S
C936 H941 0.929 . S
C937 C936 1.457 1_455 S
C937 C938 1.291 . S
C937 H950 0.931 . S
C938 C937 1.291 . S
C938 C939 1.373 . S
C938 H951 0.929 . S
C939 C938 1.373 . S
C939 C940 1.396 . S
C939 C946 1.403 . S
C940 C930 1.476 . S
C940 N935 1.318 1_455 S
C940 C939 1.396 . S
H941 C936 0.929 . S
O942 Mn918 2.385 1_455 S
O942 C920 1.234 . S
O943 Mn918 2.209 . S
O943 Mn919 2.215 . S
O943 C920 1.283 1_655 S
O944 Mn918 2.094 . S
O944 C922 1.240 . S
O945 Mn919 2.117 . S
O945 C922 1.264 . S
C946 C939 1.403 . S
C946 C947 1.399 . S
C946 H952 0.929 . S
C947 C927 1.449 . S
C947 C946 1.399 . S
C947 H953 0.930 . S
H948 C928 0.931 . S
H949 C929 0.930 . S
H950 C937 0.931 . S
H951 C938 0.929 . S
H952 C946 0.929 . S
H953 C947 0.930 . S
Mn954 O959 2.095 . S
Mn954 O969 2.162 . S
Mn954 O970 2.297 . S
Mn954 O978 2.385 . S
Mn954 O979 2.209 . S
Mn954 O980 2.094 . S
Mn955 O960 2.121 . S
Mn955 N962 2.257 . S
Mn955 N971 2.282 . S
Mn955 O979 2.215 . S
Mn955 O981 2.117 . S
C956 O978 1.234 . S
C956 O979 1.283 . S
C957 O969 1.281 . S
C957 O970 1.236 . S
C958 O980 1.240 . S
C958 O981 1.264 . S
O959 Mn954 2.095 . S
O959 C968 1.250 . S
O960 Mn955 2.121 . S
O960 C968 1.258 . S
C961 N962 1.326 . S
C961 C965 1.460 . S
C961 H967 0.929 . S
N962 Mn955 2.257 . S
N962 C961 1.326 . S
N962 C966 1.362 . S
C963 C964 1.258 . S
C963 C966 1.431 . S
C963 C983 1.449 . S
C964 C963 1.258 . S
C964 C965 1.477 . S
C964 H984 0.931 . S
C965 C961 1.460 . S
C965 C964 1.477 . S
C965 H985 0.930 . S
C966 N962 1.362 . S
C966 C963 1.431 . S
C966 C976 1.476 . S
H967 C961 0.929 . S
C968 O959 1.250 . S
C968 O960 1.258 . S
O969 Mn954 2.162 . S
O969 C957 1.281 . S
O970 Mn954 2.297 . S
O970 C957 1.236 . S
N971 Mn955 2.282 . S
N971 C972 1.328 . S
N971 C976 1.318 . S
C972 N971 1.328 . S
C972 C973 1.457 . S
C972 H977 0.929 . S
C973 C972 1.457 . S
C973 C974 1.291 . S
C973 H986 0.931 . S
C974 C973 1.291 . S
C974 C975 1.373 . S
C974 H987 0.929 . S
C975 C974 1.373 . S
C975 C976 1.396 . S
C975 C982 1.403 . S
C976 C966 1.476 . S
C976 N971 1.318 . S
C976 C975 1.396 . S
H977 C972 0.929 . S
O978 Mn954 2.385 . S
O978 C956 1.234 . S
O979 Mn954 2.209 . S
O979 Mn955 2.215 . S
O979 C956 1.283 . S
O980 Mn954 2.094 . S
O980 C958 1.240 . S
O981 Mn955 2.117 . S
O981 C958 1.264 . S
C982 C975 1.403 . S
C982 C983 1.399 . S
C982 H988 0.929 . S
C983 C963 1.449 . S
C983 C982 1.399 . S
C983 H989 0.930 . S
H984 C964 0.931 . S
H985 C965 0.930 . S
H986 C973 0.931 . S
H987 C974 0.929 . S
H988 C982 0.929 . S
H989 C983 0.930 . S
Mn990 O995 2.095 . S
Mn990 O1005 2.162 . S
Mn990 O1006 2.297 . S
Mn990 O1014 2.385 1_655 S
Mn990 O1015 2.209 . S
Mn990 O1016 2.094 . S
Mn991 O996 2.098 1_455 S
Mn991 N998 2.286 . S
Mn991 N1007 2.312 . S
Mn991 O1015 2.215 1_455 S
Mn991 O1017 2.097 1_455 S
C992 O1014 1.234 . S
C992 O1015 1.283 1_455 S
C993 O1005 1.281 . S
C993 O1006 1.236 . S
C994 O1016 1.240 . S
C994 O1017 1.264 . S
O995 Mn990 2.095 . S
O995 C1004 1.250 . S
O996 Mn991 2.098 1_655 S
O996 C1004 1.258 . S
C997 N998 1.326 . S
C997 C1001 1.460 . S
C997 H1003 0.929 1_455 S
N998 Mn991 2.286 . S
N998 C997 1.326 . S
N998 C1002 1.362 . S
C999 C1000 1.258 . S
C999 C1002 1.431 . S
C999 C1019 1.449 . S
C1000 C999 1.258 . S
C1000 C1001 1.477 . S
C1000 H1020 0.931 . S
C1001 C997 1.460 . S
C1001 C1000 1.477 . S
C1001 H1021 0.930 . S
C1002 N998 1.362 . S
C1002 C999 1.431 . S
C1002 C1012 1.476 . S
H1003 C997 0.929 1_655 S
C1004 O995 1.250 . S
C1004 O996 1.258 . S
O1005 Mn990 2.162 . S
O1005 C993 1.281 . S
O1006 Mn990 2.297 . S
O1006 C993 1.236 . S
N1007 Mn991 2.312 . S
N1007 C1008 1.328 . S
N1007 C1012 1.318 . S
C1008 N1007 1.328 . S
C1008 C1009 1.457 . S
C1008 H1013 0.929 . S
C1009 C1008 1.457 . S
C1009 C1010 1.291 . S
C1009 H1022 0.931 . S
C1010 C1009 1.291 . S
C1010 C1011 1.373 . S
C1010 H1023 0.929 . S
C1011 C1010 1.373 . S
C1011 C1012 1.396 . S
C1011 C1018 1.403 . S
C1012 C1002 1.476 . S
C1012 N1007 1.318 . S
C1012 C1011 1.396 . S
H1013 C1008 0.929 . S
O1014 Mn990 2.385 1_455 S
O1014 C992 1.234 . S
O1015 Mn990 2.209 . S
O1015 Mn991 2.215 1_655 S
O1015 C992 1.283 1_655 S
O1016 Mn990 2.094 . S
O1016 C994 1.240 . S
O1017 Mn991 2.097 1_655 S
O1017 C994 1.264 . S
C1018 C1011 1.403 . S
C1018 C1019 1.399 . S
C1018 H1024 0.929 . S
C1019 C999 1.449 . S
C1019 C1018 1.399 . S
C1019 H1025 0.930 . S
H1020 C1000 0.931 . S
H1021 C1001 0.930 . S
H1022 C1009 0.931 . S
H1023 C1010 0.929 . S
H1024 C1018 0.929 . S
H1025 C1019 0.930 . S
Mn1026 O1031 2.095 . S
Mn1026 O1041 2.162 . S
Mn1026 O1042 2.297 . S
Mn1026 O1050 2.385 . S
Mn1026 O1051 2.209 . S
Mn1026 O1052 2.094 . S
Mn1027 O1032 2.121 . S
Mn1027 N1034 2.257 . S
Mn1027 N1043 2.282 . S
Mn1027 O1051 2.215 . S
Mn1027 O1053 2.117 . S
C1028 O1050 1.234 . S
C1028 O1051 1.283 . S
C1029 O1041 1.281 . S
C1029 O1042 1.236 . S
C1030 O1052 1.240 . S
C1030 O1053 1.264 . S
O1031 Mn1026 2.095 . S
O1031 C1040 1.250 . S
O1032 Mn1027 2.121 . S
O1032 C1040 1.258 . S
C1033 N1034 1.326 . S
C1033 C1037 1.460 . S
C1033 H1039 0.929 . S
N1034 Mn1027 2.257 . S
N1034 C1033 1.326 . S
N1034 C1038 1.362 . S
C1035 C1036 1.258 . S
C1035 C1038 1.431 . S
C1035 C1055 1.449 . S
C1036 C1035 1.258 . S
C1036 C1037 1.477 . S
C1036 H1056 0.931 . S
C1037 C1033 1.460 . S
C1037 C1036 1.477 . S
C1037 H1057 0.930 . S
C1038 N1034 1.362 . S
C1038 C1035 1.431 . S
C1038 C1048 1.476 . S
H1039 C1033 0.929 . S
C1040 O1031 1.250 . S
C1040 O1032 1.258 . S
O1041 Mn1026 2.162 . S
O1041 C1029 1.281 . S
O1042 Mn1026 2.297 . S
O1042 C1029 1.236 . S
N1043 Mn1027 2.282 . S
N1043 C1044 1.328 . S
N1043 C1048 1.318 . S
C1044 N1043 1.328 . S
C1044 C1045 1.457 . S
C1044 H1049 0.929 . S
C1045 C1044 1.457 . S
C1045 C1046 1.291 . S
C1045 H1058 0.931 . S
C1046 C1045 1.291 . S
C1046 C1047 1.373 . S
C1046 H1059 0.929 . S
C1047 C1046 1.373 . S
C1047 C1048 1.396 . S
C1047 C1054 1.403 . S
C1048 C1038 1.476 . S
C1048 N1043 1.318 . S
C1048 C1047 1.396 . S
H1049 C1044 0.929 . S
O1050 Mn1026 2.385 . S
O1050 C1028 1.234 . S
O1051 Mn1026 2.209 . S
O1051 Mn1027 2.215 . S
O1051 C1028 1.283 . S
O1052 Mn1026 2.094 . S
O1052 C1030 1.240 . S
O1053 Mn1027 2.117 . S
O1053 C1030 1.264 . S
C1054 C1047 1.403 . S
C1054 C1055 1.399 . S
C1054 H1060 0.929 . S
C1055 C1035 1.449 . S
C1055 C1054 1.399 . S
C1055 H1061 0.930 . S
H1056 C1036 0.931 . S
H1057 C1037 0.930 . S
H1058 C1045 0.931 . S
H1059 C1046 0.929 . S
H1060 C1054 0.929 . S
H1061 C1055 0.930 . S
H1062 C1068 0.930 . S
H1063 C1071 0.930 1_556 S
H1064 C1072 0.930 1_556 S
H1065 C1073 0.930 . S
H1066 C1076 0.930 . S
H1067 C1077 0.930 . S
C1068 H1062 0.930 . S
C1068 C1069 1.355 . S
C1068 C1070 1.415 . S
C1069 C1068 1.355 . S
C1069 C1071 1.419 . S
C1070 C1068 1.415 . S
C1070 C1075 1.425 . S
C1070 C1077 1.409 . S
C1071 H1063 0.930 1_554 S
C1071 C1069 1.419 . S
C1071 C1072 1.362 . S
C1072 H1064 0.930 1_554 S
C1072 C1071 1.362 . S
C1072 C1075 1.409 . S
C1073 H1065 0.930 . S
C1073 C1074 1.355 . S
C1073 C1075 1.415 . S
C1074 C1073 1.355 . S
C1074 C1076 1.419 . S
C1075 C1070 1.425 . S
C1075 C1072 1.409 . S
C1075 C1073 1.415 . S
C1076 H1066 0.930 . S
C1076 C1074 1.419 . S
C1076 C1077 1.362 . S
C1077 H1067 0.930 . S
C1077 C1070 1.409 . S
C1077 C1076 1.362 . S
H1078 C1084 0.930 . S
H1079 C1087 0.930 . S
H1080 C1088 0.930 . S
H1081 C1089 0.930 . S
H1082 C1092 0.930 . S
H1083 C1093 0.930 . S
C1084 H1078 0.930 . S
C1084 C1085 1.355 . S
C1084 C1086 1.415 . S
C1085 C1084 1.355 . S
C1085 C1087 1.419 . S
C1086 C1084 1.415 . S
C1086 C1091 1.425 . S
C1086 C1093 1.409 . S
C1087 H1079 0.930 . S
C1087 C1085 1.419 . S
C1087 C1088 1.362 . S
C1088 H1080 0.930 . S
C1088 C1087 1.362 . S
C1088 C1091 1.409 . S
C1089 H1081 0.930 . S
C1089 C1090 1.355 . S
C1089 C1091 1.415 . S
C1090 C1089 1.355 . S
C1090 C1092 1.419 . S
C1091 C1086 1.425 . S
C1091 C1088 1.409 . S
C1091 C1089 1.415 . S
C1092 H1082 0.930 . S
C1092 C1090 1.419 . S
C1092 C1093 1.362 . S
C1093 H1083 0.930 . S
C1093 C1086 1.409 . S
C1093 C1092 1.362 . S
H1094 C1100 0.930 . S
H1095 C1103 0.930 . S
H1096 C1104 0.930 . S
H1097 C1105 0.930 . S
H1098 C1108 0.930 . S
H1099 C1109 0.930 . S
C1100 H1094 0.930 . S
C1100 C1101 1.355 1_545 S
C1100 C1102 1.415 . S
C1101 C1100 1.355 1_565 S
C1101 C1103 1.419 . S
C1102 C1100 1.415 . S
C1102 C1107 1.425 1_545 S
C1102 C1109 1.409 . S
C1103 H1095 0.930 . S
C1103 C1101 1.419 . S
C1103 C1104 1.362 . S
C1104 H1096 0.930 . S
C1104 C1103 1.362 . S
C1104 C1107 1.409 . S
C1105 H1097 0.930 . S
C1105 C1106 1.355 . S
C1105 C1107 1.415 . S
C1106 C1105 1.355 . S
C1106 C1108 1.419 1_565 S
C1107 C1102 1.425 1_565 S
C1107 C1104 1.409 . S
C1107 C1105 1.415 . S
C1108 H1098 0.930 . S
C1108 C1106 1.419 1_545 S
C1108 C1109 1.362 . S
C1109 H1099 0.930 . S
C1109 C1102 1.409 . S
C1109 C1108 1.362 . S
H1110 C1116 0.930 . S
H1111 C1119 0.930 . S
H1112 C1120 0.930 . S
H1113 C1121 0.930 . S
H1114 C1124 0.930 . S
H1115 C1125 0.930 . S
C1116 H1110 0.930 . S
C1116 C1117 1.355 . S
C1116 C1118 1.415 . S
C1117 C1116 1.355 . S
C1117 C1119 1.419 . S
C1118 C1116 1.415 . S
C1118 C1123 1.425 . S
C1118 C1125 1.409 . S
C1119 H1111 0.930 . S
C1119 C1117 1.419 . S
C1119 C1120 1.362 . S
C1120 H1112 0.930 . S
C1120 C1119 1.362 . S
C1120 C1123 1.409 . S
C1121 H1113 0.930 . S
C1121 C1122 1.355 . S
C1121 C1123 1.415 . S
C1122 C1121 1.355 . S
C1122 C1124 1.419 . S
C1123 C1118 1.425 . S
C1123 C1120 1.409 . S
C1123 C1121 1.415 . S
C1124 H1114 0.930 . S
C1124 C1122 1.419 . S
C1124 C1125 1.362 . S
C1125 H1115 0.930 . S
C1125 C1118 1.409 . S
C1125 C1124 1.362 . S
H1126 C1132 0.930 . S
H1127 C1135 0.930 . S
H1128 C1136 0.930 . S
H1129 C1137 0.930 . S
H1130 C1140 0.930 . S
H1131 C1141 0.930 . S
C1132 H1126 0.930 . S
C1132 C1133 1.355 . S
C1132 C1134 1.415 . S
C1133 C1132 1.355 . S
C1133 C1135 1.419 . S
C1134 C1132 1.415 . S
C1134 C1139 1.425 . S
C1134 C1141 1.409 . S
C1135 H1127 0.930 . S
C1135 C1133 1.419 . S
C1135 C1136 1.362 1_455 S
C1136 H1128 0.930 . S
C1136 C1135 1.362 1_655 S
C1136 C1139 1.409 1_655 S
C1137 H1129 0.930 . S
C1137 C1138 1.355 . S
C1137 C1139 1.415 1_655 S
C1138 C1137 1.355 . S
C1138 C1140 1.419 1_655 S
C1139 C1134 1.425 . S
C1139 C1136 1.409 1_455 S
C1139 C1137 1.415 1_455 S
C1140 H1130 0.930 . S
C1140 C1138 1.419 1_455 S
C1140 C1141 1.362 . S
C1141 H1131 0.930 . S
C1141 C1134 1.409 . S
C1141 C1140 1.362 . S
H1142 C1148 0.930 . S
H1143 C1151 0.930 . S
H1144 C1152 0.930 . S
H1145 C1153 0.930 . S
H1146 C1156 0.930 . S
H1147 C1157 0.930 . S
C1148 H1142 0.930 . S
C1148 C1149 1.355 . S
C1148 C1150 1.415 . S
C1149 C1148 1.355 . S
C1149 C1151 1.419 . S
C1150 C1148 1.415 . S
C1150 C1155 1.425 . S
C1150 C1157 1.409 . S
C1151 H1143 0.930 . S
C1151 C1149 1.419 . S
C1151 C1152 1.362 . S
C1152 H1144 0.930 . S
C1152 C1151 1.362 . S
C1152 C1155 1.409 . S
C1153 H1145 0.930 . S
C1153 C1154 1.355 . S
C1153 C1155 1.415 . S
C1154 C1153 1.355 . S
C1154 C1156 1.419 . S
C1155 C1150 1.425 . S
C1155 C1152 1.409 . S
C1155 C1153 1.415 . S
C1156 H1146 0.930 . S
C1156 C1154 1.419 . S
C1156 C1157 1.362 . S
C1157 H1147 0.930 . S
C1157 C1150 1.409 . S
C1157 C1156 1.362 . S
H1158 C1164 0.930 . S
H1159 C1167 0.930 1_655 S
H1160 C1168 0.930 . S
H1161 C1169 0.930 . S
H1162 C1172 0.930 . S
H1163 C1173 0.930 . S
C1164 H1158 0.930 . S
C1164 C1165 1.355 . S
C1164 C1166 1.415 . S
C1165 C1164 1.355 . S
C1165 C1167 1.419 . S
C1166 C1164 1.415 . S
C1166 C1171 1.425 . S
C1166 C1173 1.409 . S
C1167 H1159 0.930 1_455 S
C1167 C1165 1.419 . S
C1167 C1168 1.362 1_455 S
C1168 H1160 0.930 . S
C1168 C1167 1.362 1_655 S
C1168 C1171 1.409 1_655 S
C1169 H1161 0.930 . S
C1169 C1170 1.355 1_655 S
C1169 C1171 1.415 1_655 S
C1170 C1169 1.355 1_455 S
C1170 C1172 1.419 . S
C1171 C1166 1.425 . S
C1171 C1168 1.409 1_455 S
C1171 C1169 1.415 1_455 S
C1172 H1162 0.930 . S
C1172 C1170 1.419 . S
C1172 C1173 1.362 . S
C1173 H1163 0.930 . S
C1173 C1166 1.409 . S
C1173 C1172 1.362 . S
H1174 C1180 0.930 . S
H1175 C1183 0.930 . S
H1176 C1184 0.930 . S
H1177 C1185 0.930 . S
H1178 C1188 0.930 . S
H1179 C1189 0.930 . S
C1180 H1174 0.930 . S
C1180 C1181 1.355 . S
C1180 C1182 1.415 . S
C1181 C1180 1.355 . S
C1181 C1183 1.419 . S
C1182 C1180 1.415 . S
C1182 C1187 1.425 . S
C1182 C1189 1.409 . S
C1183 H1175 0.930 . S
C1183 C1181 1.419 . S
C1183 C1184 1.362 . S
C1184 H1176 0.930 . S
C1184 C1183 1.362 . S
C1184 C1187 1.409 . S
C1185 H1177 0.930 . S
C1185 C1186 1.355 . S
C1185 C1187 1.415 . S
C1186 C1185 1.355 . S
C1186 C1188 1.419 . S
C1187 C1182 1.425 . S
C1187 C1184 1.409 . S
C1187 C1185 1.415 . S
C1188 H1178 0.930 . S
C1188 C1186 1.419 . S
C1188 C1189 1.362 . S
C1189 H1179 0.930 . S
C1189 C1182 1.409 . S
C1189 C1188 1.362 . S
H1190 C1196 0.930 . S
H1191 C1199 0.930 . S
H1192 C1200 0.930 . S
H1193 C1201 0.930 . S
H1194 C1204 0.930 . S
H1195 C1205 0.930 . S
C1196 H1190 0.930 . S
C1196 C1197 1.355 . S
C1196 C1198 1.415 . S
C1197 C1196 1.355 . S
C1197 C1199 1.419 1_556 S
C1198 C1196 1.415 . S
C1198 C1203 1.425 . S
C1198 C1205 1.409 . S
C1199 H1191 0.930 . S
C1199 C1197 1.419 1_554 S
C1199 C1200 1.362 . S
C1200 H1192 0.930 . S
C1200 C1199 1.362 . S
C1200 C1203 1.409 1_554 S
C1201 H1193 0.930 . S
C1201 C1202 1.355 . S
C1201 C1203 1.415 . S
C1202 C1201 1.355 . S
C1202 C1204 1.419 . S
C1203 C1198 1.425 . S
C1203 C1200 1.409 1_556 S
C1203 C1201 1.415 . S
C1204 H1194 0.930 . S
C1204 C1202 1.419 . S
C1204 C1205 1.362 . S
C1205 H1195 0.930 . S
C1205 C1198 1.409 . S
C1205 C1204 1.362 . S
H1206 C1212 0.930 . S
H1207 C1215 0.928 . S
H1208 C1216 0.930 . S
H1209 C1217 0.930 . S
H1210 C1220 0.930 . S
H1211 C1221 0.930 . S
C1212 H1206 0.930 . S
C1212 C1213 1.355 . S
C1212 C1214 1.415 . S
C1213 C1212 1.355 . S
C1213 C1215 1.409 1_545 S
C1214 C1212 1.415 . S
C1214 C1219 1.424 1_545 S
C1214 C1221 1.409 . S
C1215 H1207 0.928 . S
C1215 C1213 1.409 1_565 S
C1215 C1216 1.375 . S
C1216 H1208 0.930 . S
C1216 C1215 1.375 . S
C1216 C1219 1.409 . S
C1217 H1209 0.930 . S
C1217 C1218 1.355 1_565 S
C1217 C1219 1.416 . S
C1218 C1217 1.355 1_545 S
C1218 C1220 1.421 . S
C1219 C1214 1.424 1_565 S
C1219 C1216 1.409 . S
C1219 C1217 1.416 . S
C1220 H1210 0.930 . S
C1220 C1218 1.421 . S
C1220 C1221 1.362 . S
C1221 H1211 0.930 . S
C1221 C1214 1.409 . S
C1221 C1220 1.362 . S
H1222 C1228 0.930 . S
H1223 C1231 0.930 . S
H1224 C1232 0.930 . S
H1225 C1233 0.930 . S
H1226 C1236 0.930 . S
H1227 C1237 0.930 . S
C1228 H1222 0.930 . S
C1228 C1229 1.355 . S
C1228 C1230 1.415 . S
C1229 C1228 1.355 . S
C1229 C1231 1.419 . S
C1230 C1228 1.415 . S
C1230 C1235 1.425 . S
C1230 C1237 1.409 . S
C1231 H1223 0.930 . S
C1231 C1229 1.419 . S
C1231 C1232 1.362 . S
C1232 H1224 0.930 . S
C1232 C1231 1.362 . S
C1232 C1235 1.409 . S
C1233 H1225 0.930 . S
C1233 C1234 1.355 . S
C1233 C1235 1.415 . S
C1234 C1233 1.355 . S
C1234 C1236 1.419 . S
C1235 C1230 1.425 . S
C1235 C1232 1.409 . S
C1235 C1233 1.415 . S
C1236 H1226 0.930 . S
C1236 C1234 1.419 . S
C1236 C1237 1.362 . S
C1237 H1227 0.930 . S
C1237 C1230 1.409 . S
C1237 C1236 1.362 . S
H1238 C1244 0.930 . S
H1239 C1247 0.930 . S
H1240 C1248 0.930 . S
H1241 C1249 0.930 . S
H1242 C1252 0.930 . S
H1243 C1253 0.930 . S
C1244 H1238 0.930 . S
C1244 C1245 1.355 . S
C1244 C1246 1.415 . S
C1245 C1244 1.355 . S
C1245 C1247 1.419 . S
C1246 C1244 1.415 . S
C1246 C1251 1.425 . S
C1246 C1253 1.409 . S
C1247 H1239 0.930 . S
C1247 C1245 1.419 . S
C1247 C1248 1.362 . S
C1248 H1240 0.930 . S
C1248 C1247 1.362 . S
C1248 C1251 1.409 . S
C1249 H1241 0.930 . S
C1249 C1250 1.355 . S
C1249 C1251 1.415 . S
C1250 C1249 1.355 . S
C1250 C1252 1.419 . S
C1251 C1246 1.425 . S
C1251 C1248 1.409 . S
C1251 C1249 1.415 . S
C1252 H1242 0.930 . S
C1252 C1250 1.419 . S
C1252 C1253 1.362 . S
C1253 H1243 0.930 . S
C1253 C1246 1.409 . S
C1253 C1252 1.362 . S
H1254 C1260 0.930 . S
H1255 C1263 0.930 . S
H1256 C1264 0.930 . S
H1257 C1265 0.930 . S
H1258 C1268 0.930 . S
H1259 C1269 0.930 . S
C1260 H1254 0.930 . S
C1260 C1261 1.355 . S
C1260 C1262 1.415 . S
C1261 C1260 1.355 . S
C1261 C1263 1.419 . S
C1262 C1260 1.415 . S
C1262 C1267 1.425 . S
C1262 C1269 1.409 . S
C1263 H1255 0.930 . S
C1263 C1261 1.419 . S
C1263 C1264 1.362 . S
C1264 H1256 0.930 . S
C1264 C1263 1.362 . S
C1264 C1267 1.409 . S
C1265 H1257 0.930 . S
C1265 C1266 1.355 . S
C1265 C1267 1.415 . S
C1266 C1265 1.355 . S
C1266 C1268 1.419 . S
C1267 C1262 1.425 . S
C1267 C1264 1.409 . S
C1267 C1265 1.415 . S
C1268 H1258 0.930 . S
C1268 C1266 1.419 . S
C1268 C1269 1.362 . S
C1269 H1259 0.930 . S
C1269 C1262 1.409 . S
C1269 C1268 1.362 . S
H1270 C1276 0.930 . S
H1271 C1279 0.930 . S
H1272 C1280 0.930 . S
H1273 C1281 0.930 . S
H1274 C1284 0.930 . S
H1275 C1285 0.930 1_565 S
C1276 H1270 0.930 . S
C1276 C1277 1.355 . S
C1276 C1278 1.415 1_565 S
C1277 C1276 1.355 . S
C1277 C1279 1.419 . S
C1278 C1276 1.415 1_545 S
C1278 C1283 1.425 . S
C1278 C1285 1.409 . S
C1279 H1271 0.930 . S
C1279 C1277 1.419 . S
C1279 C1280 1.362 1_565 S
C1280 H1272 0.930 . S
C1280 C1279 1.362 1_545 S
C1280 C1283 1.409 . S
C1281 H1273 0.930 . S
C1281 C1282 1.355 . S
C1281 C1283 1.415 . S
C1282 C1281 1.355 . S
C1282 C1284 1.419 . S
C1283 C1278 1.425 . S
C1283 C1280 1.409 . S
C1283 C1281 1.415 . S
C1284 H1274 0.930 . S
C1284 C1282 1.419 . S
C1284 C1285 1.362 . S
C1285 H1275 0.930 1_545 S
C1285 C1278 1.409 . S
C1285 C1284 1.362 . S
H1286 C1292 0.930 . S
H1287 C1295 0.930 . S
H1288 C1296 0.930 . S
H1289 C1297 0.930 . S
H1290 C1300 0.930 . S
H1291 C1301 0.930 . S
C1292 H1286 0.930 . S
C1292 C1293 1.355 . S
C1292 C1294 1.415 . S
C1293 C1292 1.355 . S
C1293 C1295 1.419 . S
C1294 C1292 1.415 . S
C1294 C1299 1.425 . S
C1294 C1301 1.409 . S
C1295 H1287 0.930 . S
C1295 C1293 1.419 . S
C1295 C1296 1.362 . S
C1296 H1288 0.930 . S
C1296 C1295 1.362 . S
C1296 C1299 1.409 . S
C1297 H1289 0.930 . S
C1297 C1298 1.355 . S
C1297 C1299 1.415 . S
C1298 C1297 1.355 . S
C1298 C1300 1.419 . S
C1299 C1294 1.425 . S
C1299 C1296 1.409 . S
C1299 C1297 1.415 . S
C1300 H1290 0.930 . S
C1300 C1298 1.419 . S
C1300 C1301 1.362 . S
C1301 H1291 0.930 . S
C1301 C1294 1.409 . S
C1301 C1300 1.362 . S
H1302 C1308 0.930 . S
H1303 C1311 0.930 . S
H1304 C1312 0.930 . S
H1305 C1313 0.930 . S
H1306 C1316 0.930 . S
H1307 C1317 0.930 . S
C1308 H1302 0.930 . S
C1308 C1309 1.355 . S
C1308 C1310 1.415 . S
C1309 C1308 1.355 . S
C1309 C1311 1.419 . S
C1310 C1308 1.415 . S
C1310 C1315 1.425 . S
C1310 C1317 1.409 . S
C1311 H1303 0.930 . S
C1311 C1309 1.419 . S
C1311 C1312 1.362 . S
C1312 H1304 0.930 . S
C1312 C1311 1.362 . S
C1312 C1315 1.409 . S
C1313 H1305 0.930 . S
C1313 C1314 1.355 . S
C1313 C1315 1.415 . S
C1314 C1313 1.355 . S
C1314 C1316 1.419 . S
C1315 C1310 1.425 . S
C1315 C1312 1.409 . S
C1315 C1313 1.415 . S
C1316 H1306 0.930 . S
C1316 C1314 1.419 . S
C1316 C1317 1.362 . S
C1317 H1307 0.930 . S
C1317 C1310 1.409 . S
C1317 C1316 1.362 . S
H1318 C1324 0.930 . S
H1319 C1327 0.930 . S
H1320 C1328 0.930 . S
H1321 C1329 0.930 . S
H1322 C1332 0.930 . S
H1323 C1333 0.930 . S
C1324 H1318 0.930 . S
C1324 C1325 1.355 . S
C1324 C1326 1.415 . S
C1325 C1324 1.355 . S
C1325 C1327 1.419 . S
C1326 C1324 1.415 . S
C1326 C1331 1.425 . S
C1326 C1333 1.409 . S
C1327 H1319 0.930 . S
C1327 C1325 1.419 . S
C1327 C1328 1.362 . S
C1328 H1320 0.930 . S
C1328 C1327 1.362 . S
C1328 C1331 1.409 . S
C1329 H1321 0.930 . S
C1329 C1330 1.355 . S
C1329 C1331 1.415 . S
C1330 C1329 1.355 . S
C1330 C1332 1.419 . S
C1331 C1326 1.425 . S
C1331 C1328 1.409 . S
C1331 C1329 1.415 . S
C1332 H1322 0.930 . S
C1332 C1330 1.419 . S
C1332 C1333 1.362 . S
C1333 H1323 0.930 . S
C1333 C1326 1.409 . S
C1333 C1332 1.362 . S
H1334 C1340 0.930 . S
H1335 C1343 0.930 . S
H1336 C1344 0.930 . S
H1337 C1345 0.930 . S
H1338 C1348 0.930 1_545 S
H1339 C1349 0.930 . S
C1340 H1334 0.930 . S
C1340 C1341 1.355 . S
C1340 C1342 1.415 . S
C1341 C1340 1.355 . S
C1341 C1343 1.419 . S
C1342 C1340 1.415 . S
C1342 C1347 1.425 . S
C1342 C1349 1.409 . S
C1343 H1335 0.930 . S
C1343 C1341 1.419 . S
C1343 C1344 1.362 . S
C1344 H1336 0.930 . S
C1344 C1343 1.362 . S
C1344 C1347 1.409 . S
C1345 H1337 0.930 . S
C1345 C1346 1.355 . S
C1345 C1347 1.415 . S
C1346 C1345 1.355 . S
C1346 C1348 1.419 . S
C1347 C1342 1.425 . S
C1347 C1344 1.409 . S
C1347 C1345 1.415 . S
C1348 H1338 0.930 1_565 S
C1348 C1346 1.419 . S
C1348 C1349 1.362 . S
C1349 H1339 0.930 . S
C1349 C1342 1.409 . S
C1349 C1348 1.362 . S
H1350 C1356 0.930 . S
H1351 C1359 0.930 . S
H1352 C1360 0.930 . S
H1353 C1361 0.930 . S
H1354 C1364 0.930 . S
H1355 C1365 0.930 . S
C1356 H1350 0.930 . S
C1356 C1357 1.355 . S
C1356 C1358 1.415 . S
C1357 C1356 1.355 . S
C1357 C1359 1.419 . S
C1358 C1356 1.415 . S
C1358 C1363 1.425 1_565 S
C1358 C1365 1.409 . S
C1359 H1351 0.930 . S
C1359 C1357 1.419 . S
C1359 C1360 1.362 1_565 S
C1360 H1352 0.930 . S
C1360 C1359 1.362 1_545 S
C1360 C1363 1.409 . S
C1361 H1353 0.930 . S
C1361 C1362 1.355 . S
C1361 C1363 1.415 . S
C1362 C1361 1.355 . S
C1362 C1364 1.419 1_545 S
C1363 C1358 1.425 1_545 S
C1363 C1360 1.409 . S
C1363 C1361 1.415 . S
C1364 H1354 0.930 . S
C1364 C1362 1.419 1_565 S
C1364 C1365 1.362 . S
C1365 H1355 0.930 . S
C1365 C1358 1.409 . S
C1365 C1364 1.362 . S
H1366 C1372 0.930 . S
H1367 C1375 0.930 . S
H1368 C1376 0.930 . S
H1369 C1377 0.930 . S
H1370 C1380 0.930 . S
H1371 C1381 0.930 . S
C1372 H1366 0.930 . S
C1372 C1373 1.355 . S
C1372 C1374 1.415 . S
C1373 C1372 1.355 . S
C1373 C1375 1.419 . S
C1374 C1372 1.415 . S
C1374 C1379 1.425 . S
C1374 C1381 1.409 . S
C1375 H1367 0.930 . S
C1375 C1373 1.419 . S
C1375 C1376 1.362 . S
C1376 H1368 0.930 . S
C1376 C1375 1.362 . S
C1376 C1379 1.409 . S
C1377 H1369 0.930 . S
C1377 C1378 1.355 . S
C1377 C1379 1.415 . S
C1378 C1377 1.355 . S
C1378 C1380 1.419 . S
C1379 C1374 1.425 . S
C1379 C1376 1.409 . S
C1379 C1377 1.415 . S
C1380 H1370 0.930 . S
C1380 C1378 1.419 . S
C1380 C1381 1.362 . S
C1381 H1371 0.930 . S
C1381 C1374 1.409 . S
C1381 C1380 1.362 . S
H1382 C1388 0.930 . S
H1383 C1391 0.930 . S
H1384 C1392 0.930 . S
H1385 C1393 0.930 . S
H1386 C1396 0.930 . S
H1387 C1397 0.930 . S
C1388 H1382 0.930 . S
C1388 C1389 1.355 . S
C1388 C1390 1.415 . S
C1389 C1388 1.355 . S
C1389 C1391 1.419 . S
C1390 C1388 1.415 . S
C1390 C1395 1.425 . S
C1390 C1397 1.409 . S
C1391 H1383 0.930 . S
C1391 C1389 1.419 . S
C1391 C1392 1.362 . S
C1392 H1384 0.930 . S
C1392 C1391 1.362 . S
C1392 C1395 1.409 . S
C1393 H1385 0.930 . S
C1393 C1394 1.355 . S
C1393 C1395 1.415 . S
C1394 C1393 1.355 . S
C1394 C1396 1.419 . S
C1395 C1390 1.425 . S
C1395 C1392 1.409 . S
C1395 C1393 1.415 . S
C1396 H1386 0.930 . S
C1396 C1394 1.419 . S
C1396 C1397 1.362 . S
C1397 H1387 0.930 . S
C1397 C1390 1.409 . S
C1397 C1396 1.362 . S
H1398 C1404 0.930 . S
H1399 C1407 0.930 . S
H1400 C1408 0.930 . S
H1401 C1409 0.930 . S
H1402 C1412 0.930 . S
H1403 C1413 0.930 . S
C1404 H1398 0.930 . S
C1404 C1405 1.355 . S
C1404 C1406 1.415 . S
C1405 C1404 1.355 . S
C1405 C1407 1.419 . S
C1406 C1404 1.415 . S
C1406 C1411 1.425 . S
C1406 C1413 1.409 . S
C1407 H1399 0.930 . S
C1407 C1405 1.419 . S
C1407 C1408 1.362 . S
C1408 H1400 0.930 . S
C1408 C1407 1.362 . S
C1408 C1411 1.409 . S
C1409 H1401 0.930 . S
C1409 C1410 1.355 . S
C1409 C1411 1.415 . S
C1410 C1409 1.355 . S
C1410 C1412 1.419 . S
C1411 C1406 1.425 . S
C1411 C1408 1.409 . S
C1411 C1409 1.415 . S
C1412 H1402 0.930 . S
C1412 C1410 1.419 . S
C1412 C1413 1.362 . S
C1413 H1403 0.930 . S
C1413 C1406 1.409 . S
C1413 C1412 1.362 . S
H1414 C1420 0.930 . S
H1415 C1423 0.930 . S
H1416 C1424 0.930 . S
H1417 C1425 0.930 . S
H1418 C1428 0.930 . S
H1419 C1429 0.930 . S
C1420 H1414 0.930 . S
C1420 C1421 1.355 . S
C1420 C1422 1.415 . S
C1421 C1420 1.355 . S
C1421 C1423 1.419 . S
C1422 C1420 1.415 . S
C1422 C1427 1.425 1_565 S
C1422 C1429 1.409 . S
C1423 H1415 0.930 . S
C1423 C1421 1.419 . S
C1423 C1424 1.362 1_565 S
C1424 H1416 0.930 . S
C1424 C1423 1.362 1_545 S
C1424 C1427 1.409 . S
C1425 H1417 0.930 . S
C1425 C1426 1.355 . S
C1425 C1427 1.415 . S
C1426 C1425 1.355 . S
C1426 C1428 1.419 . S
C1427 C1422 1.425 1_545 S
C1427 C1424 1.409 . S
C1427 C1425 1.415 . S
C1428 H1418 0.930 . S
C1428 C1426 1.419 . S
C1428 C1429 1.362 1_545 S
C1429 H1419 0.930 . S
C1429 C1422 1.409 . S
C1429 C1428 1.362 1_565 S
H1430 C1436 0.930 . S
H1431 C1439 0.930 . S
H1432 C1440 0.930 . S
H1433 C1441 0.930 . S
H1434 C1444 0.930 . S
H1435 C1445 0.930 . S
C1436 H1430 0.930 . S
C1436 C1437 1.355 . S
C1436 C1438 1.415 . S
C1437 C1436 1.355 . S
C1437 C1439 1.419 . S
C1438 C1436 1.415 . S
C1438 C1443 1.425 . S
C1438 C1445 1.409 . S
C1439 H1431 0.930 . S
C1439 C1437 1.419 . S
C1439 C1440 1.362 . S
C1440 H1432 0.930 . S
C1440 C1439 1.362 . S
C1440 C1443 1.409 . S
C1441 H1433 0.930 . S
C1441 C1442 1.355 . S
C1441 C1443 1.415 . S
C1442 C1441 1.355 . S
C1442 C1444 1.419 . S
C1443 C1438 1.425 . S
C1443 C1440 1.409 . S
C1443 C1441 1.415 . S
C1444 H1434 0.930 . S
C1444 C1442 1.419 . S
C1444 C1445 1.362 . S
C1445 H1435 0.930 . S
C1445 C1438 1.409 . S
C1445 C1444 1.362 . S
H1446 C1452 0.930 . S
H1447 C1455 0.930 . S
H1448 C1456 0.930 . S
H1449 C1457 0.930 . S
H1450 C1460 0.930 . S
H1451 C1461 0.930 . S
C1452 H1446 0.930 . S
C1452 C1453 1.355 . S
C1452 C1454 1.415 . S
C1453 C1452 1.355 . S
C1453 C1455 1.419 . S
C1454 C1452 1.415 . S
C1454 C1459 1.425 . S
C1454 C1461 1.409 . S
C1455 H1447 0.930 . S
C1455 C1453 1.419 . S
C1455 C1456 1.362 . S
C1456 H1448 0.930 . S
C1456 C1455 1.362 . S
C1456 C1459 1.409 . S
C1457 H1449 0.930 . S
C1457 C1458 1.355 . S
C1457 C1459 1.415 . S
C1458 C1457 1.355 . S
C1458 C1460 1.419 . S
C1459 C1454 1.425 . S
C1459 C1456 1.409 . S
C1459 C1457 1.415 . S
C1460 H1450 0.930 . S
C1460 C1458 1.419 . S
C1460 C1461 1.362 . S
C1461 H1451 0.930 . S
C1461 C1454 1.409 . S
C1461 C1460 1.362 . S
H1462 C1468 0.930 . S
H1463 C1471 0.930 . S
H1464 C1472 0.930 . S
H1465 C1473 0.930 . S
H1466 C1476 0.930 . S
H1467 C1477 0.930 . S
C1468 H1462 0.930 . S
C1468 C1469 1.355 . S
C1468 C1470 1.415 . S
C1469 C1468 1.355 . S
C1469 C1471 1.419 . S
C1470 C1468 1.415 . S
C1470 C1475 1.425 . S
C1470 C1477 1.409 . S
C1471 H1463 0.930 . S
C1471 C1469 1.419 . S
C1471 C1472 1.362 . S
C1472 H1464 0.930 . S
C1472 C1471 1.362 . S
C1472 C1475 1.409 . S
C1473 H1465 0.930 . S
C1473 C1474 1.355 . S
C1473 C1475 1.415 . S
C1474 C1473 1.355 . S
C1474 C1476 1.419 . S
C1475 C1470 1.425 . S
C1475 C1472 1.409 . S
C1475 C1473 1.415 . S
C1476 H1466 0.930 . S
C1476 C1474 1.419 . S
C1476 C1477 1.362 . S
C1477 H1467 0.930 . S
C1477 C1470 1.409 . S
C1477 C1476 1.362 . S
H1478 C1484 0.930 . S
H1479 C1487 0.930 . S
H1480 C1488 0.930 . S
H1481 C1489 0.930 . S
H1482 C1492 0.930 . S
H1483 C1493 0.930 . S
C1484 H1478 0.930 . S
C1484 C1485 1.355 . S
C1484 C1486 1.415 . S
C1485 C1484 1.355 . S
C1485 C1487 1.419 . S
C1486 C1484 1.415 . S
C1486 C1491 1.425 . S
C1486 C1493 1.409 . S
C1487 H1479 0.930 . S
C1487 C1485 1.419 . S
C1487 C1488 1.362 . S
C1488 H1480 0.930 . S
C1488 C1487 1.362 . S
C1488 C1491 1.409 . S
C1489 H1481 0.930 . S
C1489 C1490 1.355 . S
C1489 C1491 1.415 . S
C1490 C1489 1.355 . S
C1490 C1492 1.419 . S
C1491 C1486 1.425 . S
C1491 C1488 1.409 . S
C1491 C1489 1.415 . S
C1492 H1482 0.930 . S
C1492 C1490 1.419 . S
C1492 C1493 1.362 . S
C1493 H1483 0.930 . S
C1493 C1486 1.409 . S
C1493 C1492 1.362 . S
H1494 C1500 0.930 . S
H1495 C1503 0.930 . S
H1496 C1504 0.930 . S
H1497 C1505 0.930 . S
H1498 C1508 0.930 . S
H1499 C1509 0.930 . S
C1500 H1494 0.930 . S
C1500 C1501 1.355 . S
C1500 C1502 1.415 . S
C1501 C1500 1.355 . S
C1501 C1503 1.419 . S
C1502 C1500 1.415 . S
C1502 C1507 1.425 . S
C1502 C1509 1.409 . S
C1503 H1495 0.930 . S
C1503 C1501 1.419 . S
C1503 C1504 1.362 . S
C1504 H1496 0.930 . S
C1504 C1503 1.362 . S
C1504 C1507 1.409 . S
C1505 H1497 0.930 . S
C1505 C1506 1.355 . S
C1505 C1507 1.415 . S
C1506 C1505 1.355 . S
C1506 C1508 1.419 . S
C1507 C1502 1.425 . S
C1507 C1504 1.409 . S
C1507 C1505 1.415 . S
C1508 H1498 0.930 . S
C1508 C1506 1.419 . S
C1508 C1509 1.362 . S
C1509 H1499 0.930 . S
C1509 C1502 1.409 . S
C1509 C1508 1.362 . S
H1510 C1516 0.930 . S
H1511 C1519 0.930 . S
H1512 C1520 0.930 . S
H1513 C1521 0.930 . S
H1514 C1524 0.930 . S
H1515 C1525 0.930 . S
C1516 H1510 0.930 . S
C1516 C1517 1.355 . S
C1516 C1518 1.415 . S
C1517 C1516 1.355 . S
C1517 C1519 1.419 . S
C1518 C1516 1.415 . S
C1518 C1523 1.425 . S
C1518 C1525 1.409 . S
C1519 H1511 0.930 . S
C1519 C1517 1.419 . S
C1519 C1520 1.362 . S
C1520 H1512 0.930 . S
C1520 C1519 1.362 . S
C1520 C1523 1.409 . S
C1521 H1513 0.930 . S
C1521 C1522 1.355 . S
C1521 C1523 1.415 . S
C1522 C1521 1.355 . S
C1522 C1524 1.419 . S
C1523 C1518 1.425 . S
C1523 C1520 1.409 . S
C1523 C1521 1.415 . S
C1524 H1514 0.930 . S
C1524 C1522 1.419 . S
C1524 C1525 1.362 . S
C1525 H1515 0.930 . S
C1525 C1518 1.409 . S
C1525 C1524 1.362 . S
H1526 C1532 0.930 . S
H1527 C1535 0.930 . S
H1528 C1536 0.930 . S
H1529 C1537 0.930 . S
H1530 C1540 0.930 . S
H1531 C1541 0.930 . S
C1532 H1526 0.930 . S
C1532 C1533 1.355 . S
C1532 C1534 1.415 . S
C1533 C1532 1.355 . S
C1533 C1535 1.419 . S
C1534 C1532 1.415 . S
C1534 C1539 1.425 . S
C1534 C1541 1.409 . S
C1535 H1527 0.930 . S
C1535 C1533 1.419 . S
C1535 C1536 1.362 . S
C1536 H1528 0.930 . S
C1536 C1535 1.362 . S
C1536 C1539 1.409 . S
C1537 H1529 0.930 . S
C1537 C1538 1.355 . S
C1537 C1539 1.415 . S
C1538 C1537 1.355 . S
C1538 C1540 1.419 . S
C1539 C1534 1.425 . S
C1539 C1536 1.409 . S
C1539 C1537 1.415 . S
C1540 H1530 0.930 . S
C1540 C1538 1.419 . S
C1540 C1541 1.362 . S
C1541 H1531 0.930 . S
C1541 C1534 1.409 . S
C1541 C1540 1.362 . S
H1542 C1548 0.930 . S
H1543 C1551 0.930 . S
H1544 C1552 0.930 . S
H1545 C1553 0.930 . S
H1546 C1556 0.930 . S
H1547 C1557 0.930 . S
C1548 H1542 0.930 . S
C1548 C1549 1.355 . S
C1548 C1550 1.415 . S
C1549 C1548 1.355 . S
C1549 C1551 1.419 . S
C1550 C1548 1.415 . S
C1550 C1555 1.425 . S
C1550 C1557 1.409 . S
C1551 H1543 0.930 . S
C1551 C1549 1.419 . S
C1551 C1552 1.362 . S
C1552 H1544 0.930 . S
C1552 C1551 1.362 . S
C1552 C1555 1.409 . S
C1553 H1545 0.930 . S
C1553 C1554 1.355 . S
C1553 C1555 1.415 . S
C1554 C1553 1.355 . S
C1554 C1556 1.419 . S
C1555 C1550 1.425 . S
C1555 C1552 1.409 . S
C1555 C1553 1.415 . S
C1556 H1546 0.930 . S
C1556 C1554 1.419 . S
C1556 C1557 1.362 . S
C1557 H1547 0.930 . S
C1557 C1550 1.409 . S
C1557 C1556 1.362 . S
H1558 C1564 0.930 . S
H1559 C1567 0.930 . S
H1560 C1568 0.930 . S
H1561 C1569 0.930 . S
H1562 C1572 0.930 . S
H1563 C1573 0.930 . S
C1564 H1558 0.930 . S
C1564 C1565 1.355 . S
C1564 C1566 1.415 . S
C1565 C1564 1.355 . S
C1565 C1567 1.419 . S
C1566 C1564 1.415 . S
C1566 C1571 1.425 . S
C1566 C1573 1.409 . S
C1567 H1559 0.930 . S
C1567 C1565 1.419 . S
C1567 C1568 1.362 . S
C1568 H1560 0.930 . S
C1568 C1567 1.362 . S
C1568 C1571 1.409 . S
C1569 H1561 0.930 . S
C1569 C1570 1.355 . S
C1569 C1571 1.415 . S
C1570 C1569 1.355 . S
C1570 C1572 1.419 . S
C1571 C1566 1.425 . S
C1571 C1568 1.409 . S
C1571 C1569 1.415 . S
C1572 H1562 0.930 . S
C1572 C1570 1.419 . S
C1572 C1573 1.362 . S
C1573 H1563 0.930 . S
C1573 C1566 1.409 . S
C1573 C1572 1.362 . S
H1574 C1580 0.930 . S
H1575 C1583 0.930 . S
H1576 C1584 0.930 . S
H1577 C1585 0.930 . S
H1578 C1588 0.930 1_455 S
H1579 C1589 0.930 . S
C1580 H1574 0.930 . S
C1580 C1581 1.355 . S
C1580 C1582 1.415 . S
C1581 C1580 1.355 . S
C1581 C1583 1.419 . S
C1582 C1580 1.415 . S
C1582 C1587 1.425 . S
C1582 C1589 1.409 . S
C1583 H1575 0.930 . S
C1583 C1581 1.419 . S
C1583 C1584 1.362 . S
C1584 H1576 0.930 . S
C1584 C1583 1.362 . S
C1584 C1587 1.409 . S
C1585 H1577 0.930 . S
C1585 C1586 1.355 . S
C1585 C1587 1.415 . S
C1586 C1585 1.355 . S
C1586 C1588 1.419 . S
C1587 C1582 1.425 . S
C1587 C1584 1.409 . S
C1587 C1585 1.415 . S
C1588 H1578 0.930 1_655 S
C1588 C1586 1.419 . S
C1588 C1589 1.362 . S
C1589 H1579 0.930 . S
C1589 C1582 1.409 . S
C1589 C1588 1.362 . S
H1590 C1596 0.930 . S
H1591 C1599 0.930 . S
H1592 C1600 0.930 . S
H1593 C1601 0.930 . S
H1594 C1604 0.930 . S
H1595 C1605 0.930 . S
C1596 H1590 0.930 . S
C1596 C1597 1.355 . S
C1596 C1598 1.415 . S
C1597 C1596 1.355 . S
C1597 C1599 1.419 . S
C1598 C1596 1.415 . S
C1598 C1603 1.425 . S
C1598 C1605 1.409 . S
C1599 H1591 0.930 . S
C1599 C1597 1.419 . S
C1599 C1600 1.362 . S
C1600 H1592 0.930 . S
C1600 C1599 1.362 . S
C1600 C1603 1.409 . S
C1601 H1593 0.930 . S
C1601 C1602 1.355 . S
C1601 C1603 1.415 . S
C1602 C1601 1.355 . S
C1602 C1604 1.419 . S
C1603 C1598 1.425 . S
C1603 C1600 1.409 . S
C1603 C1601 1.415 . S
C1604 H1594 0.930 . S
C1604 C1602 1.419 . S
C1604 C1605 1.362 . S
C1605 H1595 0.930 . S
C1605 C1598 1.409 . S
C1605 C1604 1.362 . S
H1606 C1612 0.930 . S
H1607 C1615 0.930 . S
H1608 C1616 0.930 . S
H1609 C1617 0.930 . S
H1610 C1620 0.930 . S
H1611 C1621 0.930 . S
C1612 H1606 0.930 . S
C1612 C1613 1.355 . S
C1612 C1614 1.415 . S
C1613 C1612 1.355 . S
C1613 C1615 1.419 . S
C1614 C1612 1.415 . S
C1614 C1619 1.425 . S
C1614 C1621 1.409 . S
C1615 H1607 0.930 . S
C1615 C1613 1.419 . S
C1615 C1616 1.362 . S
C1616 H1608 0.930 . S
C1616 C1615 1.362 . S
C1616 C1619 1.409 . S
C1617 H1609 0.930 . S
C1617 C1618 1.355 . S
C1617 C1619 1.415 . S
C1618 C1617 1.355 . S
C1618 C1620 1.419 . S
C1619 C1614 1.425 . S
C1619 C1616 1.409 . S
C1619 C1617 1.415 . S
C1620 H1610 0.930 . S
C1620 C1618 1.419 . S
C1620 C1621 1.362 . S
C1621 H1611 0.930 . S
C1621 C1614 1.409 . S
C1621 C1620 1.362 . S
H1622 C1628 0.930 . S
H1623 C1631 0.930 . S
H1624 C1632 0.930 . S
H1625 C1633 0.930 . S
H1626 C1636 0.930 . S
H1627 C1637 0.930 . S
C1628 H1622 0.930 . S
C1628 C1629 1.355 . S
C1628 C1630 1.415 . S
C1629 C1628 1.355 . S
C1629 C1631 1.419 . S
C1630 C1628 1.415 . S
C1630 C1635 1.425 . S
C1630 C1637 1.409 . S
C1631 H1623 0.930 . S
C1631 C1629 1.419 . S
C1631 C1632 1.362 . S
C1632 H1624 0.930 . S
C1632 C1631 1.362 . S
C1632 C1635 1.409 . S
C1633 H1625 0.930 . S
C1633 C1634 1.355 . S
C1633 C1635 1.415 . S
C1634 C1633 1.355 . S
C1634 C1636 1.419 . S
C1635 C1630 1.425 . S
C1635 C1632 1.409 . S
C1635 C1633 1.415 . S
C1636 H1626 0.930 . S
C1636 C1634 1.419 . S
C1636 C1637 1.362 . S
C1637 H1627 0.930 . S
C1637 C1630 1.409 . S
C1637 C1636 1.362 . S
H1638 C1644 0.930 . S
H1639 C1647 0.930 . S
H1640 C1648 0.926 . S
H1641 C1649 0.930 . S
H1642 C1652 0.930 . S
H1643 C1653 0.930 . S
C1644 H1638 0.930 . S
C1644 C1645 1.355 . S
C1644 C1646 1.415 . S
C1645 C1644 1.355 . S
C1645 C1647 1.419 . S
C1646 C1644 1.415 . S
C1646 C1651 1.425 . S
C1646 C1653 1.409 . S
C1647 H1639 0.930 . S
C1647 C1645 1.419 . S
C1647 C1648 1.362 . S
C1648 H1640 0.926 . S
C1648 C1647 1.362 . S
C1648 C1651 1.409 . S
C1649 H1641 0.930 . S
C1649 C1650 1.355 . S
C1649 C1651 1.415 . S
C1650 C1649 1.355 . S
C1650 C1652 1.419 . S
C1651 C1646 1.425 . S
C1651 C1648 1.409 . S
C1651 C1649 1.415 . S
C1652 H1642 0.930 . S
C1652 C1650 1.419 . S
C1652 C1653 1.362 . S
C1653 H1643 0.930 . S
C1653 C1646 1.409 . S
C1653 C1652 1.362 . S
H1654 C1660 0.930 . S
H1655 C1663 0.930 . S
H1656 C1664 0.930 . S
H1657 C1665 0.930 . S
H1658 C1668 0.930 . S
H1659 C1669 0.930 . S
C1660 H1654 0.930 . S
C1660 C1661 1.355 . S
C1660 C1662 1.415 . S
C1661 C1660 1.355 . S
C1661 C1663 1.419 . S
C1662 C1660 1.415 . S
C1662 C1667 1.425 . S
C1662 C1669 1.409 . S
C1663 H1655 0.930 . S
C1663 C1661 1.419 . S
C1663 C1664 1.362 . S
C1664 H1656 0.930 . S
C1664 C1663 1.362 . S
C1664 C1667 1.409 . S
C1665 H1657 0.930 . S
C1665 C1666 1.355 . S
C1665 C1667 1.415 . S
C1666 C1665 1.355 . S
C1666 C1668 1.419 . S
C1667 C1662 1.425 . S
C1667 C1664 1.409 . S
C1667 C1665 1.415 . S
C1668 H1658 0.930 . S
C1668 C1666 1.419 . S
C1668 C1669 1.362 . S
C1669 H1659 0.930 . S
C1669 C1662 1.409 . S
C1669 C1668 1.362 . S
H1670 C1676 0.930 . S
H1671 C1679 0.930 . S
H1672 C1680 0.930 . S
H1673 C1681 0.930 . S
H1674 C1684 0.930 . S
H1675 C1685 0.930 . S
C1676 H1670 0.930 . S
C1676 C1677 1.355 . S
C1676 C1678 1.415 1_565 S
C1677 C1676 1.355 . S
C1677 C1679 1.419 . S
C1678 C1676 1.415 1_545 S
C1678 C1683 1.425 . S
C1678 C1685 1.409 . S
C1679 H1671 0.930 . S
C1679 C1677 1.419 . S
C1679 C1680 1.362 1_565 S
C1680 H1672 0.930 . S
C1680 C1679 1.362 1_545 S
C1680 C1683 1.409 . S
C1681 H1673 0.930 . S
C1681 C1682 1.355 . S
C1681 C1683 1.415 . S
C1682 C1681 1.355 . S
C1682 C1684 1.419 . S
C1683 C1678 1.425 . S
C1683 C1680 1.409 . S
C1683 C1681 1.415 . S
C1684 H1674 0.930 . S
C1684 C1682 1.419 . S
C1684 C1685 1.362 . S
C1685 H1675 0.930 . S
C1685 C1678 1.409 . S
C1685 C1684 1.362 . S
H1686 C1692 0.930 . S
H1687 C1695 0.930 . S
H1688 C1696 0.930 . S
H1689 C1697 0.930 . S
H1690 C1700 0.930 . S
H1691 C1701 0.930 . S
C1692 H1686 0.930 . S
C1692 C1693 1.355 . S
C1692 C1694 1.415 . S
C1693 C1692 1.355 . S
C1693 C1695 1.419 . S
C1694 C1692 1.415 . S
C1694 C1699 1.425 . S
C1694 C1701 1.409 . S
C1695 H1687 0.930 . S
C1695 C1693 1.419 . S
C1695 C1696 1.362 . S
C1696 H1688 0.930 . S
C1696 C1695 1.362 . S
C1696 C1699 1.409 . S
C1697 H1689 0.930 . S
C1697 C1698 1.355 . S
C1697 C1699 1.415 . S
C1698 C1697 1.355 . S
C1698 C1700 1.419 . S
C1699 C1694 1.425 . S
C1699 C1696 1.409 . S
C1699 C1697 1.415 . S
C1700 H1690 0.930 . S
C1700 C1698 1.419 . S
C1700 C1701 1.362 . S
C1701 H1691 0.930 . S
C1701 C1694 1.409 . S
C1701 C1700 1.362 . S
H1702 C1708 0.930 . S
H1703 C1711 0.930 . S
H1704 C1712 0.930 . S
H1705 C1713 0.930 . S
H1706 C1716 0.930 . S
H1707 C1717 0.930 . S
C1708 H1702 0.930 . S
C1708 C1709 1.355 . S
C1708 C1710 1.415 . S
C1709 C1708 1.355 . S
C1709 C1711 1.419 . S
C1710 C1708 1.415 . S
C1710 C1715 1.425 . S
C1710 C1717 1.409 . S
C1711 H1703 0.930 . S
C1711 C1709 1.419 . S
C1711 C1712 1.362 . S
C1712 H1704 0.930 . S
C1712 C1711 1.362 . S
C1712 C1715 1.409 . S
C1713 H1705 0.930 . S
C1713 C1714 1.355 . S
C1713 C1715 1.415 . S
C1714 C1713 1.355 . S
C1714 C1716 1.419 . S
C1715 C1710 1.425 . S
C1715 C1712 1.409 . S
C1715 C1713 1.415 . S
C1716 H1706 0.930 . S
C1716 C1714 1.419 . S
C1716 C1717 1.362 . S
C1717 H1707 0.930 . S
C1717 C1710 1.409 . S
C1717 C1716 1.362 . S
H1718 C1724 0.930 . S
H1719 C1727 0.930 . S
H1720 C1728 0.930 . S
H1721 C1729 0.930 . S
H1722 C1732 0.930 . S
H1723 C1733 0.930 . S
C1724 H1718 0.930 . S
C1724 C1725 1.355 . S
C1724 C1726 1.415 . S
C1725 C1724 1.355 . S
C1725 C1727 1.419 . S
C1726 C1724 1.415 . S
C1726 C1731 1.425 . S
C1726 C1733 1.409 . S
C1727 H1719 0.930 . S
C1727 C1725 1.419 . S
C1727 C1728 1.362 . S
C1728 H1720 0.930 . S
C1728 C1727 1.362 . S
C1728 C1731 1.409 . S
C1729 H1721 0.930 . S
C1729 C1730 1.355 . S
C1729 C1731 1.415 . S
C1730 C1729 1.355 . S
C1730 C1732 1.419 . S
C1731 C1726 1.425 . S
C1731 C1728 1.409 . S
C1731 C1729 1.415 . S
C1732 H1722 0.930 . S
C1732 C1730 1.419 . S
C1732 C1733 1.362 . S
C1733 H1723 0.930 . S
C1733 C1726 1.409 . S
C1733 C1732 1.362 . S
H1734 C1740 0.930 . S
H1735 C1743 0.930 . S
H1736 C1744 0.930 . S
H1737 C1745 0.930 . S
H1738 C1748 0.930 1_655 S
H1739 C1749 0.930 1_655 S
C1740 H1734 0.930 . S
C1740 C1741 1.355 . S
C1740 C1742 1.415 . S
C1741 C1740 1.355 . S
C1741 C1743 1.419 . S
C1742 C1740 1.415 . S
C1742 C1747 1.425 . S
C1742 C1749 1.409 . S
C1743 H1735 0.930 . S
C1743 C1741 1.419 . S
C1743 C1744 1.362 . S
C1744 H1736 0.930 . S
C1744 C1743 1.362 . S
C1744 C1747 1.409 . S
C1745 H1737 0.930 . S
C1745 C1746 1.355 . S
C1745 C1747 1.415 . S
C1746 C1745 1.355 . S
C1746 C1748 1.419 . S
C1747 C1742 1.425 . S
C1747 C1744 1.409 . S
C1747 C1745 1.415 . S
C1748 H1738 0.930 1_455 S
C1748 C1746 1.419 . S
C1748 C1749 1.362 . S
C1749 H1739 0.930 1_455 S
C1749 C1742 1.409 . S
C1749 C1748 1.362 . S
H1750 C1756 0.930 . S
H1751 C1759 0.930 . S
H1752 C1760 0.930 . S
H1753 C1761 0.930 . S
H1754 C1764 0.930 . S
H1755 C1765 0.930 . S
C1756 H1750 0.930 . S
C1756 C1757 1.355 . S
C1756 C1758 1.415 . S
C1757 C1756 1.355 . S
C1757 C1759 1.419 . S
C1758 C1756 1.415 . S
C1758 C1763 1.425 . S
C1758 C1765 1.409 . S
C1759 H1751 0.930 . S
C1759 C1757 1.419 . S
C1759 C1760 1.362 . S
C1760 H1752 0.930 . S
C1760 C1759 1.362 . S
C1760 C1763 1.409 . S
C1761 H1753 0.930 . S
C1761 C1762 1.355 . S
C1761 C1763 1.415 . S
C1762 C1761 1.355 . S
C1762 C1764 1.419 . S
C1763 C1758 1.425 . S
C1763 C1760 1.409 . S
C1763 C1761 1.415 . S
C1764 H1754 0.930 . S
C1764 C1762 1.419 . S
C1764 C1765 1.362 . S
C1765 H1755 0.930 . S
C1765 C1758 1.409 . S
C1765 C1764 1.362 . S
H1766 C1772 0.930 1_565 S
H1767 C1775 0.930 . S
H1768 C1776 0.930 . S
H1769 C1777 0.930 . S
H1770 C1780 0.930 . S
H1771 C1781 0.930 1_565 S
C1772 H1766 0.930 1_545 S
C1772 C1773 1.355 . S
C1772 C1774 1.415 . S
C1773 C1772 1.355 . S
C1773 C1775 1.419 . S
C1774 C1772 1.415 . S
C1774 C1779 1.425 . S
C1774 C1781 1.409 . S
C1775 H1767 0.930 . S
C1775 C1773 1.419 . S
C1775 C1776 1.362 . S
C1776 H1768 0.930 . S
C1776 C1775 1.362 . S
C1776 C1779 1.409 . S
C1777 H1769 0.930 . S
C1777 C1778 1.355 . S
C1777 C1779 1.415 . S
C1778 C1777 1.355 . S
C1778 C1780 1.419 . S
C1779 C1774 1.425 . S
C1779 C1776 1.409 . S
C1779 C1777 1.415 . S
C1780 H1770 0.930 . S
C1780 C1778 1.419 . S
C1780 C1781 1.362 . S
C1781 H1771 0.930 1_545 S
C1781 C1774 1.409 . S
C1781 C1780 1.362 . S
H1782 C1788 0.930 . S
H1783 C1791 0.930 . S
H1784 C1792 0.930 . S
H1785 C1793 0.930 . S
H1786 C1796 0.930 . S
H1787 C1797 0.930 . S
C1788 H1782 0.930 . S
C1788 C1789 1.355 . S
C1788 C1790 1.415 . S
C1789 C1788 1.355 . S
C1789 C1791 1.419 . S
C1790 C1788 1.415 . S
C1790 C1795 1.425 . S
C1790 C1797 1.409 . S
C1791 H1783 0.930 . S
C1791 C1789 1.419 . S
C1791 C1792 1.362 . S
C1792 H1784 0.930 . S
C1792 C1791 1.362 . S
C1792 C1795 1.409 . S
C1793 H1785 0.930 . S
C1793 C1794 1.355 . S
C1793 C1795 1.415 . S
C1794 C1793 1.355 . S
C1794 C1796 1.419 . S
C1795 C1790 1.425 . S
C1795 C1792 1.409 . S
C1795 C1793 1.415 . S
C1796 H1786 0.930 . S
C1796 C1794 1.419 . S
C1796 C1797 1.362 . S
C1797 H1787 0.930 . S
C1797 C1790 1.409 . S
C1797 C1796 1.362 . S
H1798 C1804 0.930 . S
H1799 C1807 0.930 . S
H1800 C1808 0.930 . S
H1801 C1809 0.930 . S
H1802 C1812 0.930 . S
H1803 C1813 0.930 . S
C1804 H1798 0.930 . S
C1804 C1805 1.355 . S
C1804 C1806 1.415 . S
C1805 C1804 1.355 . S
C1805 C1807 1.419 . S
C1806 C1804 1.415 . S
C1806 C1811 1.425 . S
C1806 C1813 1.409 1_455 S
C1807 H1799 0.930 . S
C1807 C1805 1.419 . S
C1807 C1808 1.362 . S
C1808 H1800 0.930 . S
C1808 C1807 1.362 . S
C1808 C1811 1.409 . S
C1809 H1801 0.930 . S
C1809 C1810 1.355 . S
C1809 C1811 1.415 . S
C1810 C1809 1.355 . S
C1810 C1812 1.419 1_455 S
C1811 C1806 1.425 . S
C1811 C1808 1.409 . S
C1811 C1809 1.415 . S
C1812 H1802 0.930 . S
C1812 C1810 1.419 1_655 S
C1812 C1813 1.362 . S
C1813 H1803 0.930 . S
C1813 C1806 1.409 1_655 S
C1813 C1812 1.362 . S
H1814 C1820 0.930 . S
H1815 C1823 0.930 . S
H1816 C1824 0.930 . S
H1817 C1825 0.930 . S
H1818 C1828 0.930 . S
H1819 C1829 0.930 . S
C1820 H1814 0.930 . S
C1820 C1821 1.355 . S
C1820 C1822 1.415 . S
C1821 C1820 1.355 . S
C1821 C1823 1.419 . S
C1822 C1820 1.415 . S
C1822 C1827 1.425 . S
C1822 C1829 1.409 . S
C1823 H1815 0.930 . S
C1823 C1821 1.419 . S
C1823 C1824 1.362 . S
C1824 H1816 0.930 . S
C1824 C1823 1.362 . S
C1824 C1827 1.409 . S
C1825 H1817 0.930 . S
C1825 C1826 1.355 . S
C1825 C1827 1.415 . S
C1826 C1825 1.355 . S
C1826 C1828 1.419 . S
C1827 C1822 1.425 . S
C1827 C1824 1.409 . S
C1827 C1825 1.415 . S
C1828 H1818 0.930 . S
C1828 C1826 1.419 . S
C1828 C1829 1.362 . S
C1829 H1819 0.930 . S
C1829 C1822 1.409 . S
C1829 C1828 1.362 . S
H1830 C1836 0.930 . S
H1831 C1839 0.930 . S
H1832 C1840 0.930 . S
H1833 C1841 0.930 . S
H1834 C1844 0.930 . S
H1835 C1845 0.930 . S
C1836 H1830 0.930 . S
C1836 C1837 1.355 . S
C1836 C1838 1.415 . S
C1837 C1836 1.355 . S
C1837 C1839 1.419 . S
C1838 C1836 1.415 . S
C1838 C1843 1.425 . S
C1838 C1845 1.409 . S
C1839 H1831 0.930 . S
C1839 C1837 1.419 . S
C1839 C1840 1.362 . S
C1840 H1832 0.930 . S
C1840 C1839 1.362 . S
C1840 C1843 1.409 . S
C1841 H1833 0.930 . S
C1841 C1842 1.355 . S
C1841 C1843 1.415 . S
C1842 C1841 1.355 . S
C1842 C1844 1.419 . S
C1843 C1838 1.425 . S
C1843 C1840 1.409 . S
C1843 C1841 1.415 . S
C1844 H1834 0.930 . S
C1844 C1842 1.419 . S
C1844 C1845 1.362 . S
C1845 H1835 0.930 . S
C1845 C1838 1.409 . S
C1845 C1844 1.362 . S
H1846 C1852 0.930 . S
H1847 C1855 0.930 . S
H1848 C1856 0.930 . S
H1849 C1857 0.930 . S
H1850 C1860 0.930 . S
H1851 C1861 0.930 . S
C1852 H1846 0.930 . S
C1852 C1853 1.355 . S
C1852 C1854 1.415 . S
C1853 C1852 1.355 . S
C1853 C1855 1.419 . S
C1854 C1852 1.415 . S
C1854 C1859 1.425 . S
C1854 C1861 1.409 . S
C1855 H1847 0.930 . S
C1855 C1853 1.419 . S
C1855 C1856 1.362 . S
C1856 H1848 0.930 . S
C1856 C1855 1.362 . S
C1856 C1859 1.409 . S
C1857 H1849 0.930 . S
C1857 C1858 1.355 . S
C1857 C1859 1.415 . S
C1858 C1857 1.355 . S
C1858 C1860 1.419 . S
C1859 C1854 1.425 . S
C1859 C1856 1.409 . S
C1859 C1857 1.415 . S
C1860 H1850 0.930 . S
C1860 C1858 1.419 . S
C1860 C1861 1.362 . S
C1861 H1851 0.930 . S
C1861 C1854 1.409 . S
C1861 C1860 1.362 . S
H1862 C1868 0.930 . S
H1863 C1871 0.930 . S
H1864 C1872 0.930 . S
H1865 C1873 0.930 . S
H1866 C1876 0.930 . S
H1867 C1877 0.930 . S
C1868 H1862 0.930 . S
C1868 C1869 1.355 . S
C1868 C1870 1.415 . S
C1869 C1868 1.355 . S
C1869 C1871 1.419 . S
C1870 C1868 1.415 . S
C1870 C1875 1.425 . S
C1870 C1877 1.409 . S
C1871 H1863 0.930 . S
C1871 C1869 1.419 . S
C1871 C1872 1.362 . S
C1872 H1864 0.930 . S
C1872 C1871 1.362 . S
C1872 C1875 1.409 . S
C1873 H1865 0.930 . S
C1873 C1874 1.355 . S
C1873 C1875 1.415 . S
C1874 C1873 1.355 . S
C1874 C1876 1.419 . S
C1875 C1870 1.425 . S
C1875 C1872 1.409 . S
C1875 C1873 1.415 . S
C1876 H1866 0.930 . S
C1876 C1874 1.419 . S
C1876 C1877 1.362 . S
C1877 H1867 0.930 . S
C1877 C1870 1.409 . S
C1877 C1876 1.362 . S
H1878 C1884 0.930 . S
H1879 C1887 0.930 . S
H1880 C1888 0.930 . S
H1881 C1889 0.930 1_556 S
H1882 C1892 0.930 . S
H1883 C1893 0.930 . S
C1884 H1878 0.930 . S
C1884 C1885 1.355 . S
C1884 C1886 1.415 . S
C1885 C1884 1.355 . S
C1885 C1887 1.419 . S
C1886 C1884 1.415 . S
C1886 C1891 1.425 . S
C1886 C1893 1.409 1_556 S
C1887 H1879 0.930 . S
C1887 C1885 1.419 . S
C1887 C1888 1.362 . S
C1888 H1880 0.930 . S
C1888 C1887 1.362 . S
C1888 C1891 1.409 . S
C1889 H1881 0.930 1_554 S
C1889 C1890 1.355 . S
C1889 C1891 1.415 1_554 S
C1890 C1889 1.355 . S
C1890 C1892 1.419 . S
C1891 C1886 1.425 . S
C1891 C1888 1.409 . S
C1891 C1889 1.415 1_556 S
C1892 H1882 0.930 . S
C1892 C1890 1.419 . S
C1892 C1893 1.362 . S
C1893 H1883 0.930 . S
C1893 C1886 1.409 1_554 S
C1893 C1892 1.362 . S
H1894 C1900 0.930 . S
H1895 C1903 0.930 . S
H1896 C1904 0.930 . S
H1897 C1905 0.930 . S
H1898 C1908 0.930 . S
H1899 C1909 0.938 . S
C1900 H1894 0.930 . S
C1900 C1901 1.355 . S
C1900 C1902 1.415 . S
C1901 C1900 1.355 . S
C1901 C1903 1.419 . S
C1902 C1900 1.415 . S
C1902 C1907 1.425 . S
C1902 C1909 1.409 . S
C1903 H1895 0.930 . S
C1903 C1901 1.419 . S
C1903 C1904 1.362 . S
C1904 H1896 0.930 . S
C1904 C1903 1.362 . S
C1904 C1907 1.409 . S
C1905 H1897 0.930 . S
C1905 C1906 1.355 1_556 S
C1905 C1907 1.415 . S
C1906 C1905 1.355 1_554 S
C1906 C1908 1.419 . S
C1907 C1902 1.425 . S
C1907 C1904 1.409 . S
C1907 C1905 1.415 . S
C1908 H1898 0.930 . S
C1908 C1906 1.419 . S
C1908 C1909 1.362 1_554 S
C1909 H1899 0.938 . S
C1909 C1902 1.409 . S
C1909 C1908 1.362 1_556 S
H1910 C1916 0.930 . S
H1911 C1919 0.930 . S
H1912 C1920 0.930 . S
H1913 C1921 0.930 . S
H1914 C1924 0.930 . S
H1915 C1925 0.930 . S
C1916 H1910 0.930 . S
C1916 C1917 1.355 . S
C1916 C1918 1.415 . S
C1917 C1916 1.355 . S
C1917 C1919 1.419 . S
C1918 C1916 1.415 . S
C1918 C1923 1.425 . S
C1918 C1925 1.409 1_556 S
C1919 H1911 0.930 . S
C1919 C1917 1.419 . S
C1919 C1920 1.362 . S
C1920 H1912 0.930 . S
C1920 C1919 1.362 . S
C1920 C1923 1.409 . S
C1921 H1913 0.930 . S
C1921 C1922 1.355 . S
C1921 C1923 1.415 1_554 S
C1922 C1921 1.355 . S
C1922 C1924 1.419 . S
C1923 C1918 1.425 . S
C1923 C1920 1.409 . S
C1923 C1921 1.415 1_556 S
C1924 H1914 0.930 . S
C1924 C1922 1.419 . S
C1924 C1925 1.362 . S
C1925 H1915 0.930 . S
C1925 C1918 1.409 1_554 S
C1925 C1924 1.362 . S
H1926 C1932 0.930 . S
H1927 C1935 0.930 . S
H1928 C1936 0.930 . S
H1929 C1937 0.930 . S
H1930 C1940 0.930 . S
H1931 C1941 0.930 . S
C1932 H1926 0.930 . S
C1932 C1933 1.355 . S
C1932 C1934 1.415 . S
C1933 C1932 1.355 . S
C1933 C1935 1.419 . S
C1934 C1932 1.415 . S
C1934 C1939 1.425 . S
C1934 C1941 1.409 . S
C1935 H1927 0.930 . S
C1935 C1933 1.419 . S
C1935 C1936 1.362 . S
C1936 H1928 0.930 . S
C1936 C1935 1.362 . S
C1936 C1939 1.409 . S
C1937 H1929 0.930 . S
C1937 C1938 1.355 . S
C1937 C1939 1.415 . S
C1938 C1937 1.355 . S
C1938 C1940 1.419 . S
C1939 C1934 1.425 . S
C1939 C1936 1.409 . S
C1939 C1937 1.415 . S
C1940 H1930 0.930 . S
C1940 C1938 1.419 . S
C1940 C1941 1.362 . S
C1941 H1931 0.930 . S
C1941 C1934 1.409 . S
C1941 C1940 1.362 . S
H1942 C1948 0.930 . S
H1943 C1951 0.930 . S
H1944 C1952 0.930 . S
H1945 C1953 0.930 . S
H1946 C1956 0.930 . S
H1947 C1957 0.930 . S
C1948 H1942 0.930 . S
C1948 C1949 1.355 . S
C1948 C1950 1.415 . S
C1949 C1948 1.355 . S
C1949 C1951 1.419 . S
C1950 C1948 1.415 . S
C1950 C1955 1.425 . S
C1950 C1957 1.409 . S
C1951 H1943 0.930 . S
C1951 C1949 1.419 . S
C1951 C1952 1.362 . S
C1952 H1944 0.930 . S
C1952 C1951 1.362 . S
C1952 C1955 1.409 . S
C1953 H1945 0.930 . S
C1953 C1954 1.355 . S
C1953 C1955 1.415 . S
C1954 C1953 1.355 . S
C1954 C1956 1.419 . S
C1955 C1950 1.425 . S
C1955 C1952 1.409 . S
C1955 C1953 1.415 . S
C1956 H1946 0.930 . S
C1956 C1954 1.419 . S
C1956 C1957 1.362 . S
C1957 H1947 0.930 . S
C1957 C1950 1.409 . S
C1957 C1956 1.362 . S
H1958 C1964 0.930 . S
H1959 C1967 0.930 . S
H1960 C1968 0.930 . S
H1961 C1969 0.930 . S
H1962 C1972 0.930 . S
H1963 C1973 0.930 . S
C1964 H1958 0.930 . S
C1964 C1965 1.355 . S
C1964 C1966 1.415 . S
C1965 C1964 1.355 . S
C1965 C1967 1.419 . S
C1966 C1964 1.415 . S
C1966 C1971 1.425 . S
C1966 C1973 1.409 . S
C1967 H1959 0.930 . S
C1967 C1965 1.419 . S
C1967 C1968 1.362 . S
C1968 H1960 0.930 . S
C1968 C1967 1.362 . S
C1968 C1971 1.409 . S
C1969 H1961 0.930 . S
C1969 C1970 1.355 . S
C1969 C1971 1.415 . S
C1970 C1969 1.355 . S
C1970 C1972 1.419 . S
C1971 C1966 1.425 . S
C1971 C1968 1.409 . S
C1971 C1969 1.415 . S
C1972 H1962 0.930 . S
C1972 C1970 1.419 . S
C1972 C1973 1.362 . S
C1973 H1963 0.930 . S
C1973 C1966 1.409 . S
C1973 C1972 1.362 . S
H1974 C1980 0.930 . S
H1975 C1983 0.930 . S
H1976 C1984 0.930 . S
H1977 C1985 0.930 . S
H1978 C1988 0.930 . S
H1979 C1989 0.930 . S
C1980 H1974 0.930 . S
C1980 C1981 1.355 . S
C1980 C1982 1.415 . S
C1981 C1980 1.355 . S
C1981 C1983 1.419 . S
C1982 C1980 1.415 . S
C1982 C1987 1.425 . S
C1982 C1989 1.409 . S
C1983 H1975 0.930 . S
C1983 C1981 1.419 . S
C1983 C1984 1.362 . S
C1984 H1976 0.930 . S
C1984 C1983 1.362 . S
C1984 C1987 1.409 . S
C1985 H1977 0.930 . S
C1985 C1986 1.355 . S
C1985 C1987 1.415 . S
C1986 C1985 1.355 . S
C1986 C1988 1.419 . S
C1987 C1982 1.425 . S
C1987 C1984 1.409 . S
C1987 C1985 1.415 . S
C1988 H1978 0.930 . S
C1988 C1986 1.419 . S
C1988 C1989 1.362 . S
C1989 H1979 0.930 . S
C1989 C1982 1.409 . S
C1989 C1988 1.362 . S
H1990 C1996 0.930 . S
H1991 C1999 0.930 . S
H1992 C2000 0.930 . S
H1993 C2001 0.930 . S
H1994 C2004 0.930 . S
H1995 C2005 0.930 . S
C1996 H1990 0.930 . S
C1996 C1997 1.355 . S
C1996 C1998 1.415 . S
C1997 C1996 1.355 . S
C1997 C1999 1.419 . S
C1998 C1996 1.415 . S
C1998 C2003 1.425 . S
C1998 C2005 1.409 . S
C1999 H1991 0.930 . S
C1999 C1997 1.419 . S
C1999 C2000 1.362 . S
C2000 H1992 0.930 . S
C2000 C1999 1.362 . S
C2000 C2003 1.409 . S
C2001 H1993 0.930 . S
C2001 C2002 1.355 . S
C2001 C2003 1.415 . S
C2002 C2001 1.355 . S
C2002 C2004 1.419 . S
C2003 C1998 1.425 . S
C2003 C2000 1.409 . S
C2003 C2001 1.415 . S
C2004 H1994 0.930 . S
C2004 C2002 1.419 . S
C2004 C2005 1.362 . S
C2005 H1995 0.930 . S
C2005 C1998 1.409 . S
C2005 C2004 1.362 . S
H2006 C2012 0.930 . S
H2007 C2015 0.930 . S
H2008 C2016 0.930 . S
H2009 C2017 0.930 . S
H2010 C2020 0.930 . S
H2011 C2021 0.930 . S
C2012 H2006 0.930 . S
C2012 C2013 1.355 . S
C2012 C2014 1.415 . S
C2013 C2012 1.355 . S
C2013 C2015 1.419 . S
C2014 C2012 1.415 . S
C2014 C2019 1.425 . S
C2014 C2021 1.409 . S
C2015 H2007 0.930 . S
C2015 C2013 1.419 . S
C2015 C2016 1.362 . S
C2016 H2008 0.930 . S
C2016 C2015 1.362 . S
C2016 C2019 1.409 . S
C2017 H2009 0.930 . S
C2017 C2018 1.355 . S
C2017 C2019 1.415 . S
C2018 C2017 1.355 . S
C2018 C2020 1.419 . S
C2019 C2014 1.425 . S
C2019 C2016 1.409 . S
C2019 C2017 1.415 . S
C2020 H2010 0.930 . S
C2020 C2018 1.419 . S
C2020 C2021 1.362 . S
C2021 H2011 0.930 . S
C2021 C2014 1.409 . S
C2021 C2020 1.362 . S
H2022 C2028 0.930 . S
H2023 C2031 0.930 . S
H2024 C2032 0.930 . S
H2025 C2033 0.930 . S
H2026 C2036 0.930 . S
H2027 C2037 0.930 . S
C2028 H2022 0.930 . S
C2028 C2029 1.355 . S
C2028 C2030 1.415 . S
C2029 C2028 1.355 . S
C2029 C2031 1.419 . S
C2030 C2028 1.415 . S
C2030 C2035 1.425 . S
C2030 C2037 1.409 . S
C2031 H2023 0.930 . S
C2031 C2029 1.419 . S
C2031 C2032 1.362 . S
C2032 H2024 0.930 . S
C2032 C2031 1.362 . S
C2032 C2035 1.409 . S
C2033 H2025 0.930 . S
C2033 C2034 1.355 . S
C2033 C2035 1.415 . S
C2034 C2033 1.355 . S
C2034 C2036 1.419 . S
C2035 C2030 1.425 . S
C2035 C2032 1.409 . S
C2035 C2033 1.415 . S
C2036 H2026 0.930 . S
C2036 C2034 1.419 . S
C2036 C2037 1.362 . S
C2037 H2027 0.930 . S
C2037 C2030 1.409 . S
C2037 C2036 1.362 . S
H2038 C2044 0.930 . S
H2039 C2047 0.930 . S
H2040 C2048 0.930 . S
H2041 C2049 0.930 . S
H2042 C2052 0.930 . S
H2043 C2053 0.930 . S
C2044 H2038 0.930 . S
C2044 C2045 1.355 . S
C2044 C2046 1.415 . S
C2045 C2044 1.355 . S
C2045 C2047 1.419 . S
C2046 C2044 1.415 . S
C2046 C2051 1.425 . S
C2046 C2053 1.409 . S
C2047 H2039 0.930 . S
C2047 C2045 1.419 . S
C2047 C2048 1.362 . S
C2048 H2040 0.930 . S
C2048 C2047 1.362 . S
C2048 C2051 1.409 . S
C2049 H2041 0.930 . S
C2049 C2050 1.355 . S
C2049 C2051 1.415 . S
C2050 C2049 1.355 . S
C2050 C2052 1.419 . S
C2051 C2046 1.425 . S
C2051 C2048 1.409 . S
C2051 C2049 1.415 . S
C2052 H2042 0.930 . S
C2052 C2050 1.419 . S
C2052 C2053 1.362 . S
C2053 H2043 0.930 . S
C2053 C2046 1.409 . S
C2053 C2052 1.362 . S
H2054 C2060 0.930 . S
H2055 C2063 0.930 . S
H2056 C2064 0.930 . S
H2057 C2065 0.930 . S
H2058 C2068 0.930 . S
H2059 C2069 0.930 . S
C2060 H2054 0.930 . S
C2060 C2061 1.355 . S
C2060 C2062 1.415 . S
C2061 C2060 1.355 . S
C2061 C2063 1.419 . S
C2062 C2060 1.415 . S
C2062 C2067 1.425 . S
C2062 C2069 1.409 . S
C2063 H2055 0.930 . S
C2063 C2061 1.419 . S
C2063 C2064 1.362 . S
C2064 H2056 0.930 . S
C2064 C2063 1.362 . S
C2064 C2067 1.409 . S
C2065 H2057 0.930 . S
C2065 C2066 1.355 . S
C2065 C2067 1.415 . S
C2066 C2065 1.355 . S
C2066 C2068 1.419 . S
C2067 C2062 1.425 . S
C2067 C2064 1.409 . S
C2067 C2065 1.415 . S
C2068 H2058 0.930 . S
C2068 C2066 1.419 . S
C2068 C2069 1.362 . S
C2069 H2059 0.930 . S
C2069 C2062 1.409 . S
C2069 C2068 1.362 . S
H2070 C2076 0.930 . S
H2071 C2079 0.930 . S
H2072 C2080 0.930 . S
H2073 C2081 0.930 . S
H2074 C2084 0.930 . S
H2075 C2085 0.930 . S
C2076 H2070 0.930 . S
C2076 C2077 1.355 . S
C2076 C2078 1.415 . S
C2077 C2076 1.355 . S
C2077 C2079 1.419 . S
C2078 C2076 1.415 . S
C2078 C2083 1.425 . S
C2078 C2085 1.409 . S
C2079 H2071 0.930 . S
C2079 C2077 1.419 . S
C2079 C2080 1.362 . S
C2080 H2072 0.930 . S
C2080 C2079 1.362 . S
C2080 C2083 1.409 . S
C2081 H2073 0.930 . S
C2081 C2082 1.355 . S
C2081 C2083 1.415 . S
C2082 C2081 1.355 . S
C2082 C2084 1.419 . S
C2083 C2078 1.425 . S
C2083 C2080 1.409 . S
C2083 C2081 1.415 . S
C2084 H2074 0.930 . S
C2084 C2082 1.419 . S
C2084 C2085 1.362 . S
C2085 H2075 0.930 . S
C2085 C2078 1.409 . S
C2085 C2084 1.362 . S
H2086 C2092 0.930 . S
H2087 C2095 0.930 . S
H2088 C2096 0.930 . S
H2089 C2097 0.930 . S
H2090 C2100 0.930 . S
H2091 C2101 0.930 . S
C2092 H2086 0.930 . S
C2092 C2093 1.355 . S
C2092 C2094 1.415 . S
C2093 C2092 1.355 . S
C2093 C2095 1.419 . S
C2094 C2092 1.415 . S
C2094 C2099 1.425 . S
C2094 C2101 1.409 . S
C2095 H2087 0.930 . S
C2095 C2093 1.419 . S
C2095 C2096 1.362 . S
C2096 H2088 0.930 . S
C2096 C2095 1.362 . S
C2096 C2099 1.409 . S
C2097 H2089 0.930 . S
C2097 C2098 1.355 . S
C2097 C2099 1.415 . S
C2098 C2097 1.355 . S
C2098 C2100 1.419 . S
C2099 C2094 1.425 . S
C2099 C2096 1.409 . S
C2099 C2097 1.415 . S
C2100 H2090 0.930 . S
C2100 C2098 1.419 . S
C2100 C2101 1.362 . S
C2101 H2091 0.930 . S
C2101 C2094 1.409 . S
C2101 C2100 1.362 . S
H2102 C2108 0.930 . S
H2103 C2111 0.930 . S
H2104 C2112 0.930 . S
H2105 C2113 0.930 . S
H2106 C2116 0.930 . S
H2107 C2117 0.930 . S
C2108 H2102 0.930 . S
C2108 C2109 1.355 . S
C2108 C2110 1.415 . S
C2109 C2108 1.355 . S
C2109 C2111 1.419 . S
C2110 C2108 1.415 . S
C2110 C2115 1.425 . S
C2110 C2117 1.409 . S
C2111 H2103 0.930 . S
C2111 C2109 1.419 . S
C2111 C2112 1.362 . S
C2112 H2104 0.930 . S
C2112 C2111 1.362 . S
C2112 C2115 1.409 . S
C2113 H2105 0.930 . S
C2113 C2114 1.355 . S
C2113 C2115 1.415 . S
C2114 C2113 1.355 . S
C2114 C2116 1.419 . S
C2115 C2110 1.425 . S
C2115 C2112 1.409 . S
C2115 C2113 1.415 . S
C2116 H2106 0.930 . S
C2116 C2114 1.419 . S
C2116 C2117 1.362 . S
C2117 H2107 0.930 . S
C2117 C2110 1.409 . S
C2117 C2116 1.362 . S
H2118 C2124 0.930 . S
H2119 C2127 0.930 . S
H2120 C2128 0.930 . S
H2121 C2129 0.930 . S
H2122 C2132 0.930 . S
H2123 C2133 0.930 . S
C2124 H2118 0.930 . S
C2124 C2125 1.355 . S
C2124 C2126 1.415 . S
C2125 C2124 1.355 . S
C2125 C2127 1.419 . S
C2126 C2124 1.415 . S
C2126 C2131 1.425 . S
C2126 C2133 1.409 . S
C2127 H2119 0.930 . S
C2127 C2125 1.419 . S
C2127 C2128 1.362 . S
C2128 H2120 0.930 . S
C2128 C2127 1.362 . S
C2128 C2131 1.409 . S
C2129 H2121 0.930 . S
C2129 C2130 1.355 . S
C2129 C2131 1.415 . S
C2130 C2129 1.355 . S
C2130 C2132 1.419 . S
C2131 C2126 1.425 . S
C2131 C2128 1.409 . S
C2131 C2129 1.415 . S
C2132 H2122 0.930 . S
C2132 C2130 1.419 . S
C2132 C2133 1.362 . S
C2133 H2123 0.930 . S
C2133 C2126 1.409 . S
C2133 C2132 1.362 . S
H2134 C2140 0.930 . S
H2135 C2143 0.930 . S
H2136 C2144 0.930 . S
H2137 C2145 0.930 . S
H2138 C2148 0.930 . S
H2139 C2149 0.930 . S
C2140 H2134 0.930 . S
C2140 C2141 1.355 . S
C2140 C2142 1.415 . S
C2141 C2140 1.355 . S
C2141 C2143 1.419 . S
C2142 C2140 1.415 . S
C2142 C2147 1.425 . S
C2142 C2149 1.409 . S
C2143 H2135 0.930 . S
C2143 C2141 1.419 . S
C2143 C2144 1.362 . S
C2144 H2136 0.930 . S
C2144 C2143 1.362 . S
C2144 C2147 1.409 . S
C2145 H2137 0.930 . S
C2145 C2146 1.355 . S
C2145 C2147 1.415 . S
C2146 C2145 1.355 . S
C2146 C2148 1.419 . S
C2147 C2142 1.425 . S
C2147 C2144 1.409 . S
C2147 C2145 1.415 . S
C2148 H2138 0.930 . S
C2148 C2146 1.419 . S
C2148 C2149 1.362 . S
C2149 H2139 0.930 . S
C2149 C2142 1.409 . S
C2149 C2148 1.362 . S
H2150 C2156 0.930 . S
H2151 C2159 0.930 . S
H2152 C2160 0.930 . S
H2153 C2161 0.930 . S
H2154 C2164 0.930 . S
H2155 C2165 0.930 . S
C2156 H2150 0.930 . S
C2156 C2157 1.355 . S
C2156 C2158 1.415 . S
C2157 C2156 1.355 . S
C2157 C2159 1.419 . S
C2158 C2156 1.415 . S
C2158 C2163 1.425 . S
C2158 C2165 1.409 . S
C2159 H2151 0.930 . S
C2159 C2157 1.419 . S
C2159 C2160 1.362 . S
C2160 H2152 0.930 . S
C2160 C2159 1.362 . S
C2160 C2163 1.409 . S
C2161 H2153 0.930 . S
C2161 C2162 1.355 . S
C2161 C2163 1.415 . S
C2162 C2161 1.355 . S
C2162 C2164 1.419 . S
C2163 C2158 1.425 . S
C2163 C2160 1.409 . S
C2163 C2161 1.415 . S
C2164 H2154 0.930 . S
C2164 C2162 1.419 . S
C2164 C2165 1.362 . S
C2165 H2155 0.930 . S
C2165 C2158 1.409 . S
C2165 C2164 1.362 . S
H2166 C2172 0.930 . S
H2167 C2175 0.930 . S
H2168 C2176 0.930 . S
H2169 C2177 0.930 . S
H2170 C2180 0.930 . S
H2171 C2181 0.930 . S
C2172 H2166 0.930 . S
C2172 C2173 1.355 . S
C2172 C2174 1.415 . S
C2173 C2172 1.355 . S
C2173 C2175 1.419 . S
C2174 C2172 1.415 . S
C2174 C2179 1.425 . S
C2174 C2181 1.409 1_554 S
C2175 H2167 0.930 . S
C2175 C2173 1.419 . S
C2175 C2176 1.362 . S
C2176 H2168 0.930 . S
C2176 C2175 1.362 . S
C2176 C2179 1.409 . S
C2177 H2169 0.930 . S
C2177 C2178 1.355 1_554 S
C2177 C2179 1.415 . S
C2178 C2177 1.355 1_556 S
C2178 C2180 1.419 . S
C2179 C2174 1.425 . S
C2179 C2176 1.409 . S
C2179 C2177 1.415 . S
C2180 H2170 0.930 . S
C2180 C2178 1.419 . S
C2180 C2181 1.362 . S
C2181 H2171 0.930 . S
C2181 C2174 1.409 1_556 S
C2181 C2180 1.362 . S
H2182 C2188 0.930 . S
H2183 C2191 0.930 . S
H2184 C2192 0.930 . S
H2185 C2193 0.930 . S
H2186 C2196 0.930 . S
H2187 C2197 0.930 . S
C2188 H2182 0.930 . S
C2188 C2189 1.355 . S
C2188 C2190 1.415 . S
C2189 C2188 1.355 . S
C2189 C2191 1.419 . S
C2190 C2188 1.415 . S
C2190 C2195 1.425 . S
C2190 C2197 1.409 . S
C2191 H2183 0.930 . S
C2191 C2189 1.419 . S
C2191 C2192 1.362 . S
C2192 H2184 0.930 . S
C2192 C2191 1.362 . S
C2192 C2195 1.409 . S
C2193 H2185 0.930 . S
C2193 C2194 1.355 . S
C2193 C2195 1.415 . S
C2194 C2193 1.355 . S
C2194 C2196 1.419 . S
C2195 C2190 1.425 . S
C2195 C2192 1.409 . S
C2195 C2193 1.415 . S
C2196 H2186 0.930 . S
C2196 C2194 1.419 . S
C2196 C2197 1.362 . S
C2197 H2187 0.930 . S
C2197 C2190 1.409 . S
C2197 C2196 1.362 . S
H2198 C2204 0.930 . S
H2199 C2207 0.930 . S
H2200 C2208 0.930 . S
H2201 C2209 0.930 . S
H2202 C2212 0.930 1_556 S
H2203 C2213 0.930 . S
C2204 H2198 0.930 . S
C2204 C2205 1.355 . S
C2204 C2206 1.415 . S
C2205 C2204 1.355 . S
C2205 C2207 1.419 . S
C2206 C2204 1.415 . S
C2206 C2211 1.425 . S
C2206 C2213 1.409 . S
C2207 H2199 0.930 . S
C2207 C2205 1.419 . S
C2207 C2208 1.362 . S
C2208 H2200 0.930 . S
C2208 C2207 1.362 . S
C2208 C2211 1.409 . S
C2209 H2201 0.930 . S
C2209 C2210 1.375 . S
C2209 C2211 1.415 . S
C2210 C2209 1.375 . S
C2210 C2212 1.426 . S
C2211 C2206 1.425 . S
C2211 C2208 1.409 . S
C2211 C2209 1.415 . S
C2212 H2202 0.930 1_554 S
C2212 C2210 1.426 . S
C2212 C2213 1.362 . S
C2213 H2203 0.930 . S
C2213 C2206 1.409 . S
C2213 C2212 1.362 . S
C1069 C7 1.392 . S
C1074 C814 1.393 . S
C1090 C742 1.760 . S
C1085 C39 1.751 . S
C1106 C776 1.549 . S
C1101 C62 1.565 1_565 S
C1117 C76 1.878 . S
C1122 C956 1.868 . S
C1133 C108 1.416 . S
C1138 C994 1.393 . S
C1149 N117 1.323 . S
C1154 C1028 1.296 . S
C1170 C921 1.390 1_455 S
C1165 C16 1.350 . S
C1181 C30 1.829 . S
C1186 C849 1.823 . S
C1202 C884 1.545 . S
C1197 C53 1.542 1_556 S
C1213 C85 1.860 . S
C1218 C632 1.854 . S
C1234 C669 1.647 . S
C1229 C99 1.640 . S
C1245 N127 1.224 . S
C1250 C704 1.303 . S
C1261 N150 1.119 . S
C1266 C1030 1.154 . S
C1282 C958 1.536 . S
C1277 N173 1.536 . S
C1298 C992 1.420 . S
C1293 C200 1.394 . S
C1309 C214 1.685 . S
C1314 C524 1.683 . S
C1325 N232 1.475 . S
C1330 C562 1.496 . S
C1341 C260 1.447 . S
C1346 C596 1.440 . S
C1362 C489 1.231 . S
C1357 N140 1.238 . S
C1373 N163 1.231 . S
C1378 C417 1.326 . S
C1394 C452 1.605 . S
C1389 C191 1.616 . S
C1410 C848 1.926 . S
C1405 C223 1.951 . S
C1426 C885 1.465 . S
C1421 N242 1.415 . S
C1442 C920 1.490 . S
C1437 C269 1.504 . S
C1453 N288 1.295 . S
C1458 C598 1.313 . S
C1469 C315 1.522 . S
C1474 C526 1.528 . S
C1485 C338 1.617 . S
C1490 C560 1.632 . S
C1501 C352 1.879 . S
C1506 C740 1.860 . S
C1522 C778 1.516 . S
C1517 N370 1.515 . S
C1538 C812 1.549 1_655 S
C1533 C398 1.552 . S
C1554 C705 1.199 . S
C1549 N278 1.193 . S
C1565 C306 1.742 . S
C1570 C633 1.745 . S
C1581 C329 1.632 . S
C1586 C668 1.614 1_655 S
C1602 C416 1.597 . S
C1597 C361 1.606 . S
C1613 N380 1.472 . S
C1618 C453 1.504 . S
C1634 C488 1.458 . S
C1629 C407 1.455 . S
C1650 C525 1.439 . S
C1645 N12 1.357 . S
C1661 N25 1.516 . S
C1666 C572 1.460 . S
C1682 C597 1.287 . S
C1677 N48 1.293 . S
C1698 C608 1.319 . S
C1693 N81 1.329 . S
C1714 C536 1.491 . S
C1709 N94 1.503 . S
C1730 C561 1.539 . S
C1725 C131 1.512 . S
C1746 C418 1.461 . S
C1741 N2 1.449 . S
C1757 N35 1.444 . S
C1762 C464 1.427 . S
C1773 N58 1.261 . S
C1778 C490 1.337 . S
C1794 C500 1.301 . S
C1789 N71 1.236 . S
C1810 C428 1.395 . S
C1805 N104 1.426 . S
C1826 C454 1.560 . S
C1821 C122 1.564 . S
C1837 C145 2.012 . S
C1842 C741 2.033 . S
C1853 C168 1.717 . S
C1858 C788 1.651 . S
C1869 N186 1.342 . S
C1874 C813 1.371 . S
C1890 C824 1.320 . S
C1885 N219 1.330 . S
C1906 C752 1.775 . S
C1901 C246 1.811 . S
C1922 C777 1.472 . S
C1917 N265 1.439 . S
C1938 C634 1.950 . S
C1933 C154 1.953 . S
C1949 C177 1.805 . S
C1954 C680 1.715 . S
C1965 N196 1.190 . S
C1970 C706 1.266 . S
C1981 N209 1.137 . S
C1986 C716 1.187 . S
C1997 C237 1.878 . S
C2002 C644 1.827 . S
C2018 C670 1.407 . S
C2013 N255 1.352 . S
C2029 C283 1.779 . S
C2034 C957 1.780 . S
C2045 N301 1.426 . S
C2050 C1004 1.417 . S
C2061 N324 1.287 . S
C2066 C1029 1.276 . S
C2082 C1040 1.175 . S
C2077 N357 1.183 . S
C2098 C968 1.701 . S
C2093 C384 1.782 . S
C2109 N403 1.272 . S
C2114 C993 1.312 . S
C2125 C292 1.891 . S
C2130 C850 1.885 . S
C2146 C896 1.357 . S
C2141 N311 1.313 . S
C2157 N334 1.339 . S
C2162 C922 1.421 . S
C2173 N347 1.344 . S
C2178 C932 1.266 . S
C2194 C860 1.899 1_554 S
C2189 C375 1.917 . S
C2205 N393 1.362 . S
C2210 C886 1.350 1_554 S
