# Generated by pormake.
# Topology zzz, (3,6)-cn, num edge types: 1
# Building blocks:
#     Node 0, Type 0, BuildingBlock: WUSLED_clean_sbu_0, # of connection points: 3
#     Node 1, Type 0, BuildingBlock: WUSLED_clean_sbu_0, # of connection points: 3
#     Node 2, Type 0, BuildingBlock: WUSLED_clean_sbu_0, # of connection points: 3
#     Node 3, Type 0, BuildingBlock: WUSLED_clean_sbu_0, # of connection points: 3
#     Node 4, Type 0, BuildingBlock: WUSLED_clean_sbu_0, # of connection points: 3
#     Node 5, Type 0, BuildingBlock: WUSLED_clean_sbu_0, # of connection points: 3
#     Node 6, Type 0, BuildingBlock: WUSLED_clean_sbu_0, # of connection points: 3
#     Node 7, Type 0, BuildingBlock: WUSLED_clean_sbu_0, # of connection points: 3
#     Node 8, Type 1, BuildingBlock: BETDAH_clean_sbu_0, # of connection points: 6
#     Node 9, Type 1, BuildingBlock: BETDAH_clean_sbu_0, # of connection points: 6
#     Node 10, Type 1, BuildingBlock: BETDAH_clean_sbu_0, # of connection points: 6
#     Node 11, Type 1, BuildingBlock: BETDAH_clean_sbu_0, # of connection points: 6
#     Edge 12, Type (0, 1), BuildingBlock: EZIPEK_clean_linker_0, # of connection points: 2
#     Edge 13, Type (0, 1), BuildingBlock: EZIPEK_clean_linker_0, # of connection points: 2
#     Edge 14, Type (0, 1), BuildingBlock: EZIPEK_clean_linker_0, # of connection points: 2
#     Edge 15, Type (0, 1), BuildingBlock: EZIPEK_clean_linker_0, # of connection points: 2
#     Edge 16, Type (0, 1), BuildingBlock: EZIPEK_clean_linker_0, # of connection points: 2
#     Edge 17, Type (0, 1), BuildingBlock: EZIPEK_clean_linker_0, # of connection points: 2
#     Edge 18, Type (0, 1), BuildingBlock: EZIPEK_clean_linker_0, # of connection points: 2
#     Edge 19, Type (0, 1), BuildingBlock: EZIPEK_clean_linker_0, # of connection points: 2
#     Edge 20, Type (0, 1), BuildingBlock: EZIPEK_clean_linker_0, # of connection points: 2
#     Edge 21, Type (0, 1), BuildingBlock: EZIPEK_clean_linker_0, # of connection points: 2
#     Edge 22, Type (0, 1), BuildingBlock: EZIPEK_clean_linker_0, # of connection points: 2
#     Edge 23, Type (0, 1), BuildingBlock: EZIPEK_clean_linker_0, # of connection points: 2
#     Edge 24, Type (0, 1), BuildingBlock: EZIPEK_clean_linker_0, # of connection points: 2
#     Edge 25, Type (0, 1), BuildingBlock: EZIPEK_clean_linker_0, # of connection points: 2
#     Edge 26, Type (0, 1), BuildingBlock: EZIPEK_clean_linker_0, # of connection points: 2
#     Edge 27, Type (0, 1), BuildingBlock: EZIPEK_clean_linker_0, # of connection points: 2
#     Edge 28, Type (0, 1), BuildingBlock: EZIPEK_clean_linker_0, # of connection points: 2
#     Edge 29, Type (0, 1), BuildingBlock: EZIPEK_clean_linker_0, # of connection points: 2
#     Edge 30, Type (0, 1), BuildingBlock: EZIPEK_clean_linker_0, # of connection points: 2
#     Edge 31, Type (0, 1), BuildingBlock: EZIPEK_clean_linker_0, # of connection points: 2
#     Edge 32, Type (0, 1), BuildingBlock: EZIPEK_clean_linker_0, # of connection points: 2
#     Edge 33, Type (0, 1), BuildingBlock: EZIPEK_clean_linker_0, # of connection points: 2
#     Edge 34, Type (0, 1), BuildingBlock: EZIPEK_clean_linker_0, # of connection points: 2
#     Edge 35, Type (0, 1), BuildingBlock: EZIPEK_clean_linker_0, # of connection points: 2
# Relax obj value: 0.456
# Max RMSD: 0.263
# Mean RMSD: 0.251
data_MOF--net-zzz--node1-WUSLED_clean_sbu_0--node2-BETDAH_clean_sbu_0--edge1-EZIPEK_clean_linker_0
_symmetry_space_group_name_H-M    P1
_symmetry_Int_Tables_number       1
_symmetry_cell_setting            triclinic
loop_
_symmetry_equiv_pos_as_xyz
'x, y, z'
_cell_length_a     50.035273
_cell_length_b     50.420391
_cell_length_c     15.288741
_cell_angle_alpha  89.756243
_cell_angle_beta   89.887872
_cell_angle_gamma 90.056573
loop_
_atom_site_label
_atom_site_type_symbol
_atom_site_fract_x
_atom_site_fract_y
_atom_site_fract_z
_atom_type_partial_charge
C0 C 0.79363 0.51745 0.57847 0.0
C1 C 0.81402 0.50948 0.52034 0.0
C2 C 0.84934 0.51935 0.62869 0.0
C3 C 0.84137 0.51042 0.54507 0.0
C4 C 0.82888 0.52706 0.68687 0.0
C5 C 0.80164 0.52619 0.66211 0.0
U6 U 0.73024 0.51328 0.42108 0.0
O7 O 0.69261 0.53622 0.42172 0.0
O8 O 0.691 0.49315 0.43485 0.0
C9 C 0.67756 0.51486 0.41601 0.0
C10 C 0.76408 0.51673 0.55552 0.0
C11 C 0.65926 0.51353 0.33747 0.0
C12 C 0.61476 0.50673 0.27256 0.0
C13 C 0.6319 0.50732 0.34626 0.0
C14 C 0.65187 0.51814 0.17879 0.0
C15 C 0.62437 0.51253 0.18757 0.0
C16 C 0.669 0.51857 0.25228 0.0
C17 C 0.77565 0.50575 0.22157 0.0
C18 C 0.80419 0.51754 0.10008 0.0
C19 C 0.81944 0.48635 0.21109 0.0
C20 C 0.79548 0.48905 0.25552 0.0
C21 C 0.82376 0.50055 0.13345 0.0
C22 C 0.78001 0.51997 0.14395 0.0
C23 C 0.75001 0.5082 0.26446 0.0
O24 O 0.754 0.53737 0.51429 0.0
O25 O 0.75381 0.49428 0.52733 0.0
O26 O 0.74525 0.5314 0.29998 0.0
O27 O 0.7427 0.4879 0.3132 0.0
H28 H 0.80884 0.50254 0.45566 0.0
H29 H 0.8564 0.50417 0.49849 0.0
H30 H 0.83401 0.53385 0.75184 0.0
H31 H 0.78666 0.53237 0.70903 0.0
H32 H 0.59378 0.50227 0.28219 0.0
H33 H 0.62366 0.50317 0.41045 0.0
H34 H 0.6601 0.52259 0.11482 0.0
H35 H 0.68994 0.52317 0.24251 0.0
H36 H 0.8077 0.5288 0.04064 0.0
H37 H 0.83477 0.47344 0.23756 0.0
H38 H 0.79244 0.47807 0.31579 0.0
H39 H 0.76472 0.53293 0.11757 0.0
C40 C 1.02184 0.78783 0.57628 0.0
C41 C 0.02617 0.80693 0.50982 0.0
C42 C 1.02028 0.84464 0.61961 0.0
C43 C 0.02589 0.83465 0.5238 0.0
C44 C 1.01611 0.82343 0.68717 0.0
C45 C 1.01692 0.79639 0.66303 0.0
U46 U 0.02486 0.72499 0.42128 0.0
O47 O 1.00272 0.68693 0.42472 0.0
O48 O 0.04625 0.6867 0.43201 0.0
C49 C 0.02456 0.67259 0.41744 0.0
C50 C 0.02254 0.7583 0.5566 0.0
C51 C 0.02555 0.65378 0.3408 0.0
C52 C 1.0176 0.60965 0.27762 0.0
C53 C 1.01811 0.62695 0.35028 0.0
C54 C 0.03274 0.64528 0.18405 0.0
C55 C 0.02483 0.61852 0.1931 0.0
C56 C 0.03302 0.66262 0.25652 0.0
C57 C 0.02918 0.77133 0.2229 0.0
C58 C 1.01689 0.79977 0.10186 0.0
C59 C 0.04942 0.81452 0.20916 0.0
C60 C 0.04653 0.79087 0.25466 0.0
C61 C 0.0349 0.81884 0.13223 0.0
C62 C 1.01419 0.7759 0.14702 0.0
C63 C 0.02756 0.7455 0.26473 0.0
O64 O 1.00142 0.74789 0.51867 0.0
O65 O 0.04491 0.74835 0.52525 0.0
O66 O 0.04871 0.73828 0.30973 0.0
O67 O 1.00476 0.74002 0.30353 0.0
H68 H 0.03 0.80014 0.44398 0.0
H69 H 0.02313 0.84443 0.56939 0.0
H70 H 1.01258 0.8287 0.7548 0.0
H71 H 1.01374 0.78166 0.71377 0.0
H72 H 1.01119 0.58933 0.28723 0.0
H73 H 1.01224 0.61941 0.41392 0.0
H74 H 0.03817 0.65296 0.12016 0.0
H75 H 0.03874 0.68312 0.24633 0.0
H76 H 1.00534 0.80324 0.04305 0.0
H77 H 0.0631 0.82944 0.2335 0.0
H78 H 0.05817 0.78771 0.31344 0.0
H79 H 1.00072 0.76088 0.1222 0.0
C80 C 0.75038 1.0167 0.57731 0.0
C81 C 0.73064 0.03086 0.53062 0.0
C82 C 0.69451 1.01412 0.62692 0.0
C83 C 0.70325 0.02948 0.55469 0.0
C84 C 0.71432 1.0003 0.67432 0.0
C85 C 0.74162 1.00151 0.6498 0.0
U86 U 0.81427 0.01907 0.42146 0.0
O87 O 0.85301 0.99812 0.42888 0.0
O88 O 0.85235 0.04139 0.42993 0.0
C89 C 0.86696 0.02003 0.41767 0.0
C90 C 0.78007 1.01828 0.55576 0.0
C91 C 0.88537 0.02059 0.33934 0.0
C92 C 0.92986 0.02704 0.27372 0.0
C93 C 0.91274 0.02673 0.34758 0.0
C94 C 0.8927 1.01534 0.18117 0.0
C95 C 0.92016 0.02106 0.1894 0.0
C96 C 0.87561 1.01513 0.25479 0.0
C97 C 0.76801 0.02083 0.22549 0.0
C98 C 0.73924 1.01274 0.10206 0.0
C99 C 0.72381 0.03956 0.2241 0.0
C100 C 0.74791 0.03564 0.26626 0.0
C101 C 0.71965 0.02848 0.14153 0.0
C102 C 0.76357 1.00905 0.14408 0.0
C103 C 0.79424 0.01918 0.26438 0.0
O104 O 0.79154 0.99696 0.52349 0.0
O105 O 0.7895 0.04018 0.51981 0.0
O106 O 0.80187 0.0408 0.30501 0.0
O107 O 0.79937 0.99718 0.30746 0.0
H108 H 0.73635 0.04322 0.47574 0.0
H109 H 0.6888 0.04061 0.51685 0.0
H110 H 0.70864 0.98852 0.73078 0.0
H111 H 0.75608 0.99064 0.6885 0.0
H112 H 0.95079 0.03182 0.28249 0.0
H113 H 0.92094 0.03127 0.4113 0.0
H114 H 0.88444 1.01097 0.1174 0.0
H115 H 0.85465 1.0106 0.24557 0.0
H116 H 0.73585 1.00392 0.03855 0.0
H117 H 0.70854 0.05154 0.25508 0.0
H118 H 0.75119 0.04485 0.32914 0.0
H119 H 0.77909 0.99755 0.11248 0.0
C120 C 0.51992 0.74793 0.58452 0.0
C121 C 0.49649 0.73269 0.59763 0.0
C122 C 0.52234 0.69262 0.63705 0.0
C123 C 0.49768 0.70564 0.62325 0.0
C124 C 0.54572 0.70794 0.62578 0.0
C125 C 0.54453 0.73501 0.60056 0.0
U126 U 0.51554 0.81099 0.4277 0.0
O127 O 0.49464 0.84957 0.43779 0.0
O128 O 0.53815 0.84877 0.42778 0.0
C129 C 0.51644 0.86331 0.42055 0.0
C130 C 0.51886 0.77753 0.563 0.0
C131 C 0.51541 0.88167 0.34223 0.0
C132 C 0.52413 0.92521 0.27465 0.0
C133 C 0.52334 0.9084 0.34896 0.0
C134 C 0.50829 0.88932 0.18466 0.0
C135 C 0.51688 0.91593 0.191 0.0
C136 C 0.50767 0.87246 0.25892 0.0
C137 C 0.5099 0.76487 0.23065 0.0
C138 C 0.52018 0.73746 0.10603 0.0
C139 C 0.4913 0.72091 0.22228 0.0
C140 C 0.49442 0.74449 0.26737 0.0
C141 C 0.50392 0.71753 0.14123 0.0
C142 C 0.52298 0.76125 0.15056 0.0
C143 C 0.51168 0.79054 0.27215 0.0
O144 O 0.53971 0.78826 0.52375 0.0
O145 O 0.49623 0.78776 0.53459 0.0
O146 O 0.49082 0.79754 0.31906 0.0
O147 O 0.53475 0.79597 0.30877 0.0
H148 H 0.47705 0.74171 0.58858 0.0
H149 H 0.47919 0.69474 0.63176 0.0
H150 H 0.56508 0.69889 0.63614 0.0
H151 H 0.56308 0.74593 0.59403 0.0
H152 H 0.53089 0.94548 0.28226 0.0
H153 H 0.52942 0.91623 0.41172 0.0
H154 H 0.50267 0.88137 0.12162 0.0
H155 H 0.50153 0.85202 0.25088 0.0
H156 H 0.53027 0.73471 0.04396 0.0
H157 H 0.47899 0.70531 0.2502 0.0
H158 H 0.48443 0.74695 0.32976 0.0
H159 H 0.53505 0.77695 0.12213 0.0
C160 C 0.25014 0.51235 0.91197 0.0
C161 C 0.23038 0.49963 0.96298 0.0
C162 C 0.19501 0.51157 0.85779 0.0
C163 C 0.20323 0.49952 0.93683 0.0
C164 C 0.21496 0.52338 0.80521 0.0
C165 C 0.24195 0.52396 0.83227 0.0
U166 U 0.31202 0.51136 0.07487 0.0
O167 O 0.34847 0.53609 0.07085 0.0
O168 O 0.35212 0.493 0.06486 0.0
C169 C 0.36457 0.51562 0.07857 0.0
C170 C 0.27932 0.51318 0.93757 0.0
C171 C 0.38335 0.5163 0.15524 0.0
C172 C 0.42865 0.5134 0.21598 0.0
C173 C 0.41113 0.51353 0.14361 0.0
C174 C 0.39116 0.5194 0.31354 0.0
C175 C 0.41891 0.51612 0.30213 0.0
C176 C 0.37366 0.51947 0.24126 0.0
C177 C 0.26645 0.50788 0.27697 0.0
C178 C 0.24339 0.52139 0.40797 0.0
C179 C 0.21911 0.5166 0.27137 0.0
C180 C 0.24257 0.50889 0.22971 0.0
C181 C 0.21978 0.52402 0.35972 0.0
C182 C 0.26663 0.51303 0.36674 0.0
C183 C 0.2919 0.50736 0.23212 0.0
O184 O 0.28793 0.53433 0.97909 0.0
O185 O 0.29032 0.49125 0.96758 0.0
O186 O 0.29718 0.48654 0.18361 0.0
O187 O 0.29808 0.53003 0.19475 0.0
H188 H 0.23592 0.4896 0.02281 0.0
H189 H 0.18857 0.48988 0.9784 0.0
H190 H 0.20956 0.53251 0.74348 0.0
H191 H 0.25658 0.5335 0.7903 0.0
H192 H 0.44986 0.51075 0.2048 0.0
H193 H 0.4193 0.51118 0.07845 0.0
H194 H 0.38295 0.52148 0.37876 0.0
H195 H 0.35242 0.52173 0.25274 0.0
H196 H 0.24411 0.52709 0.47617 0.0
H197 H 0.20093 0.51862 0.23353 0.0
H198 H 0.24249 0.50557 0.16 0.0
H199 H 0.28515 0.51259 0.4034 0.0
C200 C 0.03036 0.2464 0.92692 0.0
C201 C 1.02191 0.22784 0.99088 0.0
C202 C 0.02999 0.18978 0.88485 0.0
C203 C 1.02105 0.20016 0.97737 0.0
C204 C 0.03874 0.21036 0.82029 0.0
C205 C 0.03858 0.23739 0.84357 0.0
U206 U 0.03351 0.30954 0.07785 0.0
O207 O 1.00869 0.34578 0.07419 0.0
O208 O 0.0521 0.34921 0.06431 0.0
C209 C 0.02945 0.36168 0.07965 0.0
C210 C 0.02974 0.27591 0.94464 0.0
C211 C 0.0291 0.3804 0.15596 0.0
C212 C 1.01706 0.4233 0.22039 0.0
C213 C 1.01887 0.40629 0.14741 0.0
C214 C 0.03599 0.38913 0.3123 0.0
C215 C 0.02562 0.41501 0.30415 0.0
C216 C 0.03761 0.37208 0.23952 0.0
C217 C 0.03779 0.26316 0.27389 0.0
C218 C 1.01807 0.23625 0.38765 0.0
C219 C 0.03677 0.21553 0.25794 0.0
C220 C 0.04398 0.2404 0.22555 0.0
C221 C 0.0231 0.21354 0.33791 0.0
C222 C 0.02566 0.26095 0.35606 0.0
C223 C 0.03873 0.28926 0.23418 0.0
O224 O 1.00906 0.28525 0.98803 0.0
O225 O 0.05224 0.28734 0.96846 0.0
O226 O 0.05935 0.29479 0.18382 0.0
O227 O 1.01571 0.29645 0.20081 0.0
H228 H 1.01542 0.23503 0.05402 0.0
H229 H 0.0249 0.19017 0.93328 0.0
H230 H 0.04506 0.20463 0.75528 0.0
H231 H 0.04482 0.25177 0.79477 0.0
H232 H 1.00885 0.44299 0.21146 0.0
H233 H 1.01199 0.41329 0.0843 0.0
H234 H 0.04269 0.382 0.37547 0.0
H235 H 0.04531 0.3522 0.24879 0.0
H236 H 1.00749 0.23487 0.44941 0.0
H237 H 0.04065 0.19802 0.21906 0.0
H238 H 0.05306 0.24197 0.16135 0.0
H239 H 1.02053 0.2785 0.39322 0.0
C240 C 0.29409 0.02932 0.90879 0.0
C241 C 0.31346 0.04372 0.95591 0.0
C242 C 0.34916 0.03024 0.85406 0.0
C243 C 0.34061 0.04399 0.92932 0.0
C244 C 0.3297 1.01638 0.80596 0.0
C245 C 0.30269 1.01588 0.83302 0.0
U246 U 0.23247 0.03023 0.07257 0.0
O247 O 0.19598 1.00554 0.07047 0.0
O248 O 0.19233 0.04864 0.06465 0.0
C249 C 0.17993 0.02599 0.07914 0.0
C250 C 0.26488 0.02853 0.93433 0.0
C251 C 0.16139 0.0251 0.1568 0.0
C252 C 0.11641 0.02897 0.22011 0.0
C253 C 0.13373 0.02921 0.14695 0.0
C254 C 0.15385 0.01992 0.31498 0.0
C255 C 0.12621 0.0244 0.30534 0.0
C256 C 0.17117 0.02033 0.24193 0.0
C257 C 0.27838 0.03326 0.27397 0.0
C258 C 0.30111 1.01811 0.4036 0.0
C259 C 0.32609 0.0265 0.26972 0.0
C260 C 0.30258 0.0341 0.22792 0.0
C261 C 0.32514 1.01741 0.35664 0.0
C262 C 0.27785 0.02634 0.36256 0.0
C263 C 0.25305 0.03389 0.22875 0.0
O264 O 0.25619 1.00732 0.97601 0.0
O265 O 0.25391 0.05045 0.96418 0.0
O266 O 0.24774 0.05482 0.18029 0.0
O267 O 0.24682 1.01128 0.19176 0.0
H268 H 0.30764 0.05477 1.01332 0.0
H269 H 0.35501 0.05486 0.96796 0.0
H270 H 0.33551 1.00558 0.74785 0.0
H271 H 0.28839 1.00487 0.79434 0.0
H272 H 0.0953 0.03255 0.21025 0.0
H273 H 0.12548 0.03283 0.08256 0.0
H274 H 0.16212 1.01647 0.37944 0.0
H275 H 0.19233 1.01708 0.25212 0.0
H276 H 0.30015 1.01102 0.47055 0.0
H277 H 0.34459 0.0259 0.23286 0.0
H278 H 0.30297 0.03892 0.15894 0.0
H279 H 0.25911 0.02534 0.39815 0.0
C280 C 0.51686 0.29018 0.9272 0.0
C281 C 0.5254 0.30814 0.99221 0.0
C282 C 0.51588 0.34704 0.8904 0.0
C283 C 0.52556 0.33591 0.98136 0.0
C284 C 0.50712 0.32702 0.82457 0.0
C285 C 0.50797 0.29982 0.84534 0.0
U286 U 0.51438 0.22736 0.07783 0.0
O287 O 0.53877 0.19084 0.07411 0.0
O288 O 0.49522 0.18799 0.06695 0.0
C289 C 0.5178 0.17527 0.08139 0.0
C290 C 0.51754 0.26066 0.94318 0.0
C291 C 0.51817 0.15661 0.15807 0.0
C292 C 0.53254 0.11485 0.22595 0.0
C293 C 0.5311 0.1319 0.15268 0.0
C294 C 0.50789 0.14668 0.31175 0.0
C295 C 0.52075 0.12187 0.30656 0.0
C296 C 0.50679 0.16386 0.23889 0.0
C297 C 0.51249 0.27497 0.26874 0.0
C298 C 0.53595 0.30265 0.37094 0.0
C299 C 0.51259 0.32259 0.24794 0.0
C300 C 0.50456 0.29742 0.2208 0.0
C301 C 0.52903 0.32513 0.32171 0.0
C302 C 0.52735 0.27778 0.34535 0.0
C303 C 0.51056 0.2485 0.23268 0.0
O304 O 0.53848 0.2511 0.98466 0.0
O305 O 0.49513 0.24935 0.96893 0.0
O306 O 0.48947 0.24296 0.18487 0.0
O307 O 0.53318 0.24044 0.19847 0.0
H308 H 0.53239 0.30038 0.05413 0.0
H309 H 0.52133 0.34613 0.93828 0.0
H310 H 0.50011 0.33333 0.76082 0.0
H311 H 0.50158 0.28584 0.79598 0.0
H312 H 0.54286 0.09608 0.21967 0.0
H313 H 0.54033 0.12584 0.09184 0.0
H314 H 0.49885 0.15289 0.37274 0.0
H315 H 0.49713 0.18295 0.24593 0.0
H316 H 0.54857 0.30432 0.42818 0.0
H317 H 0.50706 0.33985 0.20967 0.0
H318 H 0.49335 0.29541 0.16065 0.0
H319 H 0.53379 0.26053 0.38226 0.0
Ho320 Ho 0.04869 1.01486 0.7981 0.0
Ho321 Ho 1.00056 0.02152 0.69193 0.0
C322 C 1.01846 0.9612 0.72065 0.0
C323 C 0.08275 0.9972 0.90858 0.0
C324 C 0.07737 0.97219 0.95338 0.0
C325 C 0.05057 0.96412 0.95753 0.0
C326 C 0.04402 0.93817 0.97688 0.0
C327 C 0.06411 0.92018 0.99866 0.0
C328 C 0.09104 0.92818 0.9982 0.0
C329 C 0.09773 0.95415 0.97375 0.0
C330 C 0.06024 0.02784 0.62738 0.0
C331 C 0.02856 0.07373 0.77902 0.0
C332 C 0.97113 0.03626 0.56321 0.0
C333 C 0.97427 0.06042 0.51047 0.0
C334 C 0.99907 0.06638 0.4717 0.0
C335 C 1.0043 0.09186 0.44117 0.0
C336 C 0.98501 0.11175 0.45012 0.0
C337 C 0.95989 0.10576 0.48556 0.0
C338 C 0.95444 0.08009 0.5148 0.0
C339 C 0.98153 1.01679 0.85921 0.0
O340 O 0.03687 0.97154 0.77283 0.0
O341 O 1.00114 0.97673 0.67988 0.0
O342 O 0.08589 0.99445 0.82446 0.0
O343 O 0.06615 1.01633 0.92769 0.0
O344 O 0.07249 0.03713 0.69556 0.0
O345 O 0.04237 1.01208 0.65538 0.0
O346 O 1.01717 0.06386 0.70783 0.0
O347 O 0.03974 0.05715 0.83478 0.0
O348 O 0.96501 0.04087 0.64463 0.0
O349 O 0.98968 1.01814 0.55531 0.0
O350 O 0.96706 1.01798 0.78966 0.0
O351 O 1.00612 1.01608 0.83692 0.0
H352 H 0.03464 0.9777 0.94105 0.0
H353 H 0.02321 0.93218 0.97686 0.0
H354 H 0.10669 0.9143 1.01554 0.0
H355 H 0.11853 0.95992 0.96871 0.0
H356 H 1.015 0.05186 0.46926 0.0
H357 H 0.02384 0.09641 0.41429 0.0
H358 H 0.94492 0.1211 0.49302 0.0
H359 H 0.9354 0.07601 0.54597 0.0
Ho360 Ho 0.52449 0.04034 0.79347 0.0
Ho361 Ho 0.51752 0.99484 0.69566 0.0
C362 C 0.57806 1.01138 0.71356 0.0
C363 C 0.54107 0.07328 0.9092 0.0
C364 C 0.5655 0.06857 0.95777 0.0
C365 C 0.57481 0.04235 0.96164 0.0
C366 C 0.60087 0.03716 0.98502 0.0
C367 C 0.61746 0.05789 1.0116 0.0
C368 C 0.60792 0.08408 1.01275 0.0
C369 C 0.58204 0.08951 0.98368 0.0
C370 C 0.51608 0.05436 0.62189 0.0
C371 C 0.46423 0.02607 0.765 0.0
C372 C 0.49858 0.95914 0.59307 0.0
C373 C 0.47305 0.96137 0.54648 0.0
C374 C 0.46671 0.9854 0.50488 0.0
C375 C 0.44102 0.99054 0.4768 0.0
C376 C 0.42081 0.97201 0.49195 0.0
C377 C 0.42674 0.94766 0.53221 0.0
C378 C 0.45293 0.94226 0.55882 0.0
C379 C 0.52846 0.98187 0.86787 0.0
O380 O 0.56786 0.02568 0.7781 0.0
O381 O 0.56155 0.99794 0.66318 0.0
O382 O 0.54512 0.07671 0.82592 0.0
O383 O 0.52209 0.05619 0.9247 0.0
O384 O 0.50508 0.06553 0.68918 0.0
O385 O 0.53024 0.03512 0.64932 0.0
O386 O 0.47452 1.01092 0.70292 0.0
O387 O 0.48031 0.03894 0.81744 0.0
O388 O 0.49613 0.95791 0.6777 0.0
O389 O 0.51734 0.97565 0.56905 0.0
O390 O 0.53846 0.97065 0.79912 0.0
O391 O 0.513 1.00002 0.8399 0.0
H392 H 0.5623 0.02586 0.94233 0.0
H393 H 0.608 1.01686 0.98416 0.0
H394 H 0.62067 0.10018 0.03399 0.0
H395 H 0.57524 0.10985 0.97914 0.0
H396 H 0.48108 1.00105 0.49881 0.0
H397 H 0.43661 1.00956 0.44677 0.0
H398 H 0.41107 0.93329 0.54468 0.0
H399 H 0.45717 0.92391 0.59314 0.0
Ho400 Ho 0.49621 0.52296 0.79305 0.0
Ho401 Ho 0.54315 0.51608 0.6974 0.0
C402 C 0.52654 0.57684 0.71955 0.0
C403 C 0.46189 0.54003 0.90405 0.0
C404 C 0.46632 0.56493 0.94932 0.0
C405 C 0.4928 0.57384 0.95346 0.0
C406 C 0.49853 0.59958 0.9767 0.0
C407 C 0.47789 0.61641 1.00198 0.0
C408 C 0.45122 0.60758 1.00104 0.0
C409 C 0.44536 0.58184 0.97297 0.0
C410 C 0.48461 0.51086 0.62254 0.0
C411 C 0.51192 0.46311 0.7821 0.0
C412 C 0.57318 0.49901 0.57155 0.0
C413 C 0.57229 0.47429 0.52061 0.0
C414 C 0.5487 0.46652 0.47759 0.0
C415 C 0.54696 0.44161 0.43917 0.0
C416 C 0.5687 0.42417 0.4427 0.0
C417 C 0.59266 0.43222 0.48171 0.0
C418 C 0.59442 0.45721 0.52055 0.0
C419 C 0.55742 0.5242 0.86733 0.0
O420 O 0.50779 0.56655 0.77039 0.0
O421 O 0.54368 0.56091 0.68034 0.0
O422 O 0.45887 0.54299 0.8199 0.0
O423 O 0.47922 0.52153 0.92331 0.0
O424 O 0.47203 0.50193 0.6907 0.0
O425 O 0.50257 0.5266 0.64998 0.0
O426 O 0.53244 0.4732 0.73745 0.0
O427 O 0.4931 0.47917 0.80875 0.0
O428 O 0.57958 0.49666 0.65383 0.0
O429 O 0.55316 0.51509 0.56025 0.0
O430 O 0.56979 0.53403 0.7995 0.0
O431 O 0.53717 0.51077 0.84126 0.0
H432 H 0.50905 0.56101 0.93467 0.0
H433 H 0.51914 0.60625 0.97691 0.0
H434 H 0.43516 0.62064 0.02083 0.0
H435 H 0.42477 0.57538 0.96813 0.0
H436 H 0.53118 0.47914 0.47663 0.0
H437 H 0.52826 0.4355 0.40964 0.0
H438 H 0.60947 0.41876 0.48544 0.0
H439 H 0.61272 0.46283 0.55335 0.0
Ho440 Ho 1.0199 0.49299 0.79399 0.0
Ho441 Ho 0.02613 0.54206 0.69229 0.0
C442 C 0.96558 0.52254 0.71556 0.0
C443 C 1.00469 0.46102 0.91428 0.0
C444 C 0.98059 0.4666 0.96377 0.0
C445 C 0.97164 0.49302 0.96426 0.0
C446 C 0.94547 0.49876 0.98557 0.0
C447 C 0.92829 0.47831 1.01085 0.0
C448 C 0.93739 0.45203 1.01534 0.0
C449 C 0.96356 0.44611 0.99064 0.0
C450 C 0.02873 0.48136 0.62099 0.0
C451 C 0.0797 0.51224 0.76757 0.0
C452 C 0.04241 0.57589 0.5776 0.0
C453 C 0.06811 0.57396 0.53213 0.0
C454 C 0.07759 0.54873 0.51036 0.0
C455 C 0.10356 0.54507 0.48274 0.0
C456 C 0.12153 0.56626 0.48359 0.0
C457 C 0.11269 0.59164 0.50789 0.0
C458 C 0.08582 0.59559 0.53024 0.0
C459 C 1.02035 0.55846 0.86261 0.0
O460 O 0.97602 0.50461 0.76989 0.0
O461 O 0.98128 0.53971 0.67414 0.0
O462 O 1.00004 0.45659 0.8317 0.0
O463 O 0.02402 0.47805 0.92622 0.0
O464 O 0.03877 0.46865 0.68728 0.0
O465 O 1.01485 0.50057 0.65096 0.0
O466 O 0.06933 0.5273 0.70514 0.0
O467 O 0.06393 0.49804 0.81818 0.0
O468 O 0.04503 0.57948 0.66126 0.0
O469 O 0.0246 0.55769 0.55981 0.0
O470 O 1.02093 0.5737 0.79493 0.0
O471 O 1.02025 0.53464 0.83534 0.0
H472 H 0.98439 0.50915 0.94268 0.0
H473 H 0.93857 0.51913 0.98244 0.0
H474 H 0.92409 0.43621 0.03588 0.0
H475 H 0.97008 0.42564 0.98874 0.0
H476 H 0.0658 0.53132 0.52185 0.0
H477 H 0.11012 0.5252 0.46637 0.0
H478 H 0.12658 0.6081 0.51068 0.0
H479 H 0.07931 0.61503 0.55136 0.0
C480 C 0.10725 0.04875 0.4376 0.0
C481 C 0.10778 0.0256 0.38469 0.0
C482 C 0.07199 1.0059 0.4778 0.0
C483 C 0.0731 0.02817 0.5359 0.0
N484 N 0.08872 0.07264 0.56195 0.0
N485 N 0.08826 0.98371 0.34608 0.0
C486 C 0.08984 0.05011 0.51251 0.0
C487 C 0.08948 1.00462 0.40281 0.0
N488 N 0.12256 0.07007 0.4132 0.0
N489 N 0.0546 0.98559 0.49444 0.0
H490 H 0.10162 0.98132 0.29429 0.0
H491 H 0.07352 0.96918 0.34699 0.0
H492 H 0.03782 0.98751 0.53384 0.0
H493 H 0.05613 0.96679 0.46724 0.0
H494 H 0.12216 0.08851 0.44319 0.0
H495 H 0.13524 0.06992 0.359 0.0
H496 H 0.10266 0.08791 0.55954 0.0
H497 H 0.0732 0.07636 0.60586 0.0
C498 C 0.51183 0.07742 0.38308 0.0
C499 C 0.52225 0.10366 0.38589 0.0
C500 C 0.53271 0.09654 0.5426 0.0
C501 C 0.52218 0.07024 0.53895 0.0
N502 N 0.51518 0.03323 0.44385 0.0
N503 N 0.55043 0.13456 0.46259 0.0
C504 C 0.51577 0.05991 0.45558 0.0
C505 C 0.53492 0.11223 0.46425 0.0
N506 N 0.49721 0.06925 0.31286 0.0
N507 N 0.54153 0.10632 0.62036 0.0
H508 H 0.55344 0.14579 0.40598 0.0
H509 H 0.5625 0.14044 0.51441 0.0
H510 H 0.54418 0.09435 0.67513 0.0
H511 H 0.5459 0.12627 0.63055 0.0
H512 H 0.48726 0.05107 0.31177 0.0
H513 H 0.49279 0.08161 0.26001 0.0
H514 H 0.51254 0.02447 0.3828 0.0
H515 H 0.52115 0.02031 0.49335 0.0
C516 C 0.43733 0.49064 0.43335 0.0
C517 C 0.43751 0.51391 0.38039 0.0
C518 C 0.47534 0.53088 0.46839 0.0
C519 C 0.47192 0.51009 0.53122 0.0
N520 N 0.4526 0.46726 0.56326 0.0
N521 N 0.45534 0.55753 0.35301 0.0
C522 C 0.45371 0.48915 0.51039 0.0
C523 C 0.45623 0.53432 0.39936 0.0
N524 N 0.42237 0.46934 0.4075 0.0
N525 N 0.49769 0.54636 0.47012 0.0
H526 H 0.44189 0.56081 0.30207 0.0
H527 H 0.46629 0.57431 0.37021 0.0
H528 H 0.51329 0.54325 0.51359 0.0
H529 H 0.5024 0.56006 0.42126 0.0
H530 H 0.4231 0.45074 0.43701 0.0
H531 H 0.41043 0.46955 0.3517 0.0
H532 H 0.43699 0.45361 0.5628 0.0
H533 H 0.46763 0.46259 0.60789 0.0
C534 C 0.03686 0.45804 0.38476 0.0
C535 C 0.02353 0.43315 0.3833 0.0
C536 C 1.00888 0.44141 0.53615 0.0
C537 C 0.02239 0.46641 0.5363 0.0
N538 N 0.03463 0.50236 0.44233 0.0
N539 N 0.98938 0.40584 0.44911 0.0
C540 C 0.03221 0.47588 0.45523 0.0
C541 C 1.0073 0.42616 0.45674 0.0
N542 N 0.05457 0.4647 0.32037 0.0
N543 N 0.99697 0.43248 0.61099 0.0
H544 H 0.98713 0.39504 0.39152 0.0
H545 H 0.97496 0.40147 0.49621 0.0
H546 H 0.99549 0.44412 0.66688 0.0
H547 H 0.98922 0.41341 0.61813 0.0
H548 H 0.06631 0.48179 0.32348 0.0
H549 H 0.0594 0.45202 0.26904 0.0
H550 H 0.04022 0.51076 0.38257 0.0
H551 H 0.02666 0.51543 0.4878 0.0
C552 C 0.93865 0.04325 0.05098 0.0
C553 C 0.93836 0.02112 0.10925 0.0
C554 C 0.96897 0.99721 1.00867 0.0
C555 C 0.96955 0.01928 0.95044 0.0
N556 N 0.95501 0.06356 0.91559 0.0
N557 N 0.95752 0.97925 0.1519 0.0
C558 C 0.95447 0.04245 0.97207 0.0
C559 C 0.95496 0.99888 0.09064 0.0
N560 N 0.92432 0.06537 0.07293 0.0
N561 N 0.97992 0.97375 0.9824 0.0
H562 H 0.94677 0.97903 0.2104 0.0
H563 H 0.97178 0.96428 0.14796 0.0
H564 H 0.98934 0.97149 0.92202 0.0
H565 H 0.97769 0.95598 1.01652 0.0
H566 H 0.92403 0.08294 0.03728 0.0
H567 H 0.91301 0.06664 0.13013 0.0
H568 H 0.94309 0.08034 0.92058 0.0
H569 H 0.9678 0.06434 0.86181 0.0
C570 C 0.54169 0.92934 0.05118 0.0
C571 C 0.52 0.93356 0.10984 0.0
C572 C 0.50725 0.97351 0.02255 0.0
C573 C 0.52725 0.96766 0.95792 0.0
N574 N 0.5666 0.94228 0.92146 0.0
N575 N 0.48175 0.95932 0.15167 0.0
C576 C 0.54524 0.94616 0.97568 0.0
C577 C 0.5027 0.9556 0.09533 0.0
N578 N 0.56005 0.9101 0.07086 0.0
N579 N 0.49344 0.99681 1.01714 0.0
H580 H 0.4779 0.94672 0.20448 0.0
H581 H 0.46714 0.97379 0.14472 0.0
H582 H 0.4988 1.0121 0.97504 0.0
H583 H 0.47851 1.00271 0.06014 0.0
H584 H 0.57782 0.90713 0.03704 0.0
H585 H 0.55846 0.89764 0.12517 0.0
H586 H 0.57696 0.92448 0.9164 0.0
H587 H 0.57456 0.9574 0.88269 0.0
C588 C 0.60437 0.49314 0.0461 0.0
C589 C 0.60568 0.51411 0.10841 0.0
C590 C 0.57445 0.54023 1.0159 0.0
C591 C 0.57261 0.51942 0.95344 0.0
N592 N 0.58804 0.47656 0.90562 0.0
N593 N 0.58779 0.55547 0.15999 0.0
C594 C 0.58803 0.49584 0.96826 0.0
C595 C 0.58939 0.53689 0.09535 0.0
N596 N 0.61822 0.4703 0.06313 0.0
N597 N 0.56319 0.56418 0.99669 0.0
H598 H 0.59948 0.55491 0.21631 0.0
H599 H 0.57344 0.5704 0.16118 0.0
H600 H 0.55261 0.5676 0.93942 0.0
H601 H 0.56626 0.58132 0.03299 0.0
H602 H 0.61721 0.4532 0.02562 0.0
H603 H 0.63003 0.46787 0.11875 0.0
H604 H 0.60015 0.45982 0.90667 0.0
H605 H 0.57642 0.4778 0.84928 0.0
C606 C 0.03966 0.57866 0.09928 0.0
C607 C 1.02215 0.60064 0.11304 0.0
C608 C 0.99985 0.59037 0.97239 0.0
C609 C 1.01819 0.56928 0.95564 0.0
N610 N 0.05532 0.54289 1.00437 0.0
N611 N 0.9818 0.62339 0.07213 0.0
C612 C 0.03767 0.56296 0.02056 0.0
C613 C 1.00127 0.60536 0.05189 0.0
N614 N 0.05831 0.5729 0.1618 0.0
N615 N 0.98108 0.59643 0.91074 0.0
H616 H 0.9818 0.63442 0.12964 0.0
H617 H 0.96438 0.62605 0.03615 0.0
H618 H 0.97694 0.58399 0.85837 0.0
H619 H 0.9701 0.61394 0.9097 0.0
H620 H 0.07026 0.55606 0.16213 0.0
H621 H 0.06144 0.58481 0.21641 0.0
H622 H 0.07171 0.53828 0.04315 0.0
H623 H 0.0539 0.53073 0.94979 0.0
C624 C 0.99076 0.1761 0.32268 0.0
C625 C 1.01247 0.18791 0.36789 0.0
C626 C 1.01127 0.15285 0.47748 0.0
C627 C 0.99207 0.13917 0.42643 0.0
N628 N 0.96518 0.13618 0.2959 0.0
N629 N 0.044 0.18746 0.48779 0.0
C630 C 0.98205 0.15044 0.34801 0.0
C631 C 0.02285 0.17628 0.44499 0.0
N632 N 0.97784 0.18981 0.25799 0.0
N633 N 1.01922 0.1438 0.55737 0.0
H634 H 0.05423 0.20408 0.46444 0.0
H635 H 0.05191 0.17936 0.54513 0.0
H636 H 1.01128 0.12702 0.58805 0.0
H637 H 1.01128 0.12702 0.58805 0.0
H638 H 0.96013 0.18337 0.22941 0.0
H639 H 0.98341 0.20885 0.23813 0.0
H640 H 0.95977 0.1421 0.23305 0.0
H641 H 0.95803 0.1174 0.31268 0.0
C642 C 0.36035 1.01497 0.4716 0.0
C643 C 0.34844 1.00425 0.39571 0.0
C644 C 0.38194 0.96906 0.39079 0.0
C645 C 0.39342 0.97947 0.4679 0.0
N646 N 0.3902 1.00955 0.5911 0.0
N647 N 0.34273 0.96672 0.2993 0.0
C648 C 0.38139 1.00115 0.51172 0.0
C649 C 0.35764 0.97993 0.36005 0.0
N650 N 0.35194 0.03859 0.50543 0.0
N651 N 0.39491 0.94988 0.34422 0.0
H652 H 0.32431 0.97357 0.27684 0.0
H653 H 0.3473 0.94766 0.27795 0.0
H654 H 0.41265 0.94107 0.365 0.0
H655 H 0.38905 0.94407 0.28181 0.0
H656 H 0.36045 0.04685 0.56138 0.0
H657 H 0.33742 0.05039 0.47568 0.0
H658 H 0.40515 0.99997 0.62677 0.0
H659 H 0.40515 0.99997 0.62677 0.0
C660 C 0.55848 0.36492 0.29516 0.0
C661 C 0.53971 0.35103 0.34861 0.0
C662 C 0.55087 0.37937 0.46994 0.0
C663 C 0.56471 0.39665 0.41328 0.0
N664 N 0.58194 0.40647 0.26986 0.0
N665 N 0.51537 0.34798 0.48566 0.0
C666 C 0.56866 0.38963 0.32488 0.0
C667 C 0.53478 0.35945 0.43516 0.0
N668 N 0.56765 0.354 0.21921 0.0
N669 N 0.55396 0.38061 0.55776 0.0
H670 H 0.50191 0.33404 0.46125 0.0
H671 H 0.51177 0.35405 0.54987 0.0
H672 H 0.56838 0.39262 0.58693 0.0
H673 H 0.56838 0.39262 0.58693 0.0
H674 H 0.58334 0.36215 0.18308 0.0
H675 H 0.56135 0.33556 0.19653 0.0
H676 H 0.58314 0.40354 0.20255 0.0
H677 H 0.59071 0.42404 0.29167 0.0
C678 C 0.18363 0.52583 0.4725 0.0
C679 C 0.19658 0.53725 0.39917 0.0
C680 C 0.16203 0.57112 0.38771 0.0
C681 C 0.14974 0.56041 0.46357 0.0
N682 N 0.1538 0.53354 0.594 0.0
N683 N 0.20322 0.57573 0.30658 0.0
C684 C 0.1624 0.53985 0.51168 0.0
C685 C 0.18748 0.56159 0.36314 0.0
N686 N 0.19046 0.50108 0.50159 0.0
N687 N 0.14891 0.58895 0.3358 0.0
H688 H 0.22244 0.56975 0.28905 0.0
H689 H 0.19829 0.59473 0.28486 0.0
H690 H 0.12985 0.59609 0.3496 0.0
H691 H 0.15611 0.59493 0.2748 0.0
H692 H 0.17966 0.49095 0.5496 0.0
H693 H 0.20527 0.48962 0.47211 0.0
H694 H 0.16371 0.52001 0.63409 0.0
H695 H 0.13849 0.54398 0.62498 0.0
C696 C 0.05483 0.84566 1.01107 0.0
C697 C 0.03836 0.84412 0.08642 0.0
C698 C 0.04043 0.89173 0.10616 0.0
C699 C 0.05605 0.8937 0.02885 0.0
N700 N 0.0728 0.87373 0.89617 0.0
N701 N 1.00901 0.86535 0.18948 0.0
C702 C 0.06166 0.871 0.97744 0.0
C703 C 0.02892 0.86714 0.12833 0.0
N704 N 0.06475 0.82308 0.97403 0.0
N705 N 0.03765 0.91305 0.1605 0.0
H706 H 1.00007 0.84734 0.20658 0.0
H707 H 0.99958 0.88186 0.2162 0.0
H708 H 0.04686 0.9313 0.14894 0.0
H709 H 0.02845 0.9119 0.22158 0.0
H710 H 0.07924 0.82315 0.92505 0.0
H711 H 0.05967 0.80411 0.99587 0.0
H712 H 0.0748 0.85807 0.85242 0.0
H713 H 0.078 0.8921 0.86946 0.0
C714 C 0.69271 0.05304 0.03126 0.0
C715 C 0.69426 0.03358 0.09817 0.0
C716 C 0.64617 0.03348 0.11561 0.0
C717 C 0.64419 0.05116 0.04358 0.0
N718 N 0.66499 0.0738 0.92129 0.0
N719 N 0.67302 1.00034 0.18821 0.0
C720 C 0.66729 0.05986 0.99773 0.0
C721 C 0.6711 0.0221 0.13495 0.0
N722 N 0.7153 0.0656 1.0022 0.0
N723 N 0.62447 0.02844 0.16764 0.0
H724 H 0.69127 0.99139 0.20309 0.0
H725 H 0.65644 0.98968 0.21011 0.0
H726 H 0.60598 0.03757 0.15841 0.0
H727 H 0.62554 1.01745 0.22536 0.0
H728 H 0.71494 0.08206 0.9608 0.0
H729 H 0.73441 0.06078 0.02423 0.0
H730 H 0.68123 0.07839 0.88126 0.0
H731 H 0.64661 0.0789 0.89396 0.0
C732 C 0.48349 0.69086 0.02172 0.0
C733 C 0.50046 0.6924 0.0956 0.0
C734 C 0.501 0.64455 0.1106 0.0
C735 C 0.48506 0.64275 0.03422 0.0
N736 N 0.46736 0.66341 0.90368 0.0
N737 N 0.53176 0.67146 0.19347 0.0
C738 C 0.47817 0.66568 0.98535 0.0
C739 C 0.51141 0.66941 0.13433 0.0
N740 N 0.47159 0.71315 0.9888 0.0
N741 N 0.50523 0.62277 0.1624 0.0
H742 H 0.54001 0.68966 0.21146 0.0
H743 H 0.54219 0.65511 0.21748 0.0
H744 H 0.49695 0.60421 0.14946 0.0
H745 H 0.51472 0.6237 0.22289 0.0
H746 H 0.45677 0.71261 0.94108 0.0
H747 H 0.4751 0.73208 1.01348 0.0
H748 H 0.46461 0.67955 0.86189 0.0
H749 H 0.46344 0.64515 0.87456 0.0
C750 C 0.87195 0.50941 0.13566 0.0
C751 C 0.8498 0.49856 0.09129 0.0
C752 C 0.87915 0.47811 0.98404 0.0
C753 C 0.90114 0.48514 0.03758 0.0
N754 N 0.91857 0.50425 0.1707 0.0
N755 N 0.83131 0.47127 0.97689 0.0
C756 C 0.89763 0.50008 0.11496 0.0
C757 C 0.85301 0.48273 1.01575 0.0
N758 N 0.86829 0.52859 0.19749 0.0
N759 N 0.88328 0.46762 0.90282 0.0
H760 H 0.81174 0.47457 0.99776 0.0
H761 H 0.8328 0.45716 0.92756 0.0
H762 H 0.90232 0.46405 0.8775 0.0
H763 H 0.86799 0.46458 0.85781 0.0
H764 H 0.88401 0.53897 0.22604 0.0
H765 H 0.84945 0.536 0.21366 0.0
H766 H 0.91635 0.51273 0.23228 0.0
H767 H 0.93776 0.49696 0.15945 0.0
C768 C 1.00829 0.14815 0.80453 0.0
C769 C 0.031 0.15907 0.84609 0.0
C770 C 0.05379 0.11551 0.83064 0.0
C771 C 0.02991 0.10374 0.79585 0.0
N772 N 0.98355 0.1114 0.75139 0.0
N773 N 0.07621 0.15432 0.89379 0.0
C774 C 1.00724 0.12068 0.7825 0.0
C775 C 0.05398 0.14294 0.85799 0.0
N776 N 0.98696 0.16411 0.78656 0.0
N777 N 0.07659 0.10061 0.83504 0.0
H778 H 0.07684 0.17423 0.91191 0.0
H779 H 0.09414 0.14463 0.90565 0.0
H780 H 0.07854 0.08235 0.80409 0.0
H781 H 0.09422 0.10647 0.86501 0.0
H782 H 0.9698 0.15724 0.75518 0.0
H783 H 0.98676 0.18433 0.80082 0.0
H784 H 0.97957 0.09175 0.7353 0.0
H785 H 0.97957 0.09175 0.7353 0.0
C786 C 0.39501 1.00829 0.86169 0.0
C787 C 0.37858 0.02902 0.8284 0.0
C788 C 0.41759 0.046 0.74386 0.0
C789 C 0.43439 0.02646 0.78269 0.0
N790 N 0.43959 0.99039 0.88482 0.0
N791 N 0.37437 0.0685 0.74059 0.0
C792 C 0.42314 1.00797 0.84309 0.0
C793 C 0.38997 0.04811 0.77005 0.0
N794 N 0.38352 0.98832 0.90952 0.0
N795 N 0.42795 0.06204 0.67993 0.0
H796 H 0.35412 0.07008 0.75608 0.0
H797 H 0.38157 0.08458 0.70479 0.0
H798 H 0.4479 0.06103 0.66025 0.0
H799 H 0.41662 0.07498 0.64204 0.0
H800 H 0.3934 0.97092 0.92681 0.0
H801 H 0.36336 0.98818 0.92693 0.0
H802 H 0.43373 0.97889 0.93823 0.0
H803 H 0.45978 0.98834 0.86942 0.0
C804 C 0.52977 0.38843 0.7889 0.0
C805 C 0.51312 0.37808 0.85586 0.0
C806 C 0.49563 0.42335 0.87876 0.0
C807 C 0.51071 0.43346 0.80545 0.0
N808 N 0.53626 0.42028 0.67699 0.0
N809 N 0.4742 0.38474 0.94463 0.0
C810 C 0.5259 0.4146 0.75694 0.0
C811 C 0.4941 0.39526 0.89416 0.0
N812 N 0.54938 0.37357 0.75193 0.0
N813 N 0.48445 0.44002 0.93877 0.0
H814 H 0.47256 0.36442 0.95669 0.0
H815 H 0.45789 0.39583 0.96606 0.0
H816 H 0.48804 0.46029 0.94102 0.0
H817 H 0.47481 0.43319 0.99501 0.0
H818 H 0.55406 0.35431 0.77186 0.0
H819 H 0.55406 0.35431 0.77186 0.0
H820 H 0.53174 0.4371 0.6401 0.0
H821 H 0.53174 0.4371 0.6401 0.0
C822 C 0.1505 0.53576 0.83495 0.0
C823 C 0.16564 0.51186 0.83045 0.0
C824 C 0.1251 0.48867 0.77498 0.0
C825 C 0.10969 0.5123 0.78444 0.0
N826 N 0.10701 0.55729 0.83594 0.0
N827 N 0.16841 0.4663 0.78556 0.0
C828 C 0.12234 0.53561 0.81673 0.0
C829 C 0.1531 0.48844 0.79795 0.0
N830 N 0.16316 0.55894 0.85542 0.0
N831 N 0.11277 0.46638 0.74408 0.0
H832 H 0.1888 0.46574 0.7995 0.0
H833 H 0.16166 0.44869 0.75845 0.0
H834 H 0.09306 0.46638 0.7221 0.0
H835 H 0.12151 0.44775 0.74057 0.0
H836 H 0.15454 0.57756 0.84718 0.0
H837 H 0.18306 0.55985 0.87528 0.0
H838 H 0.11403 0.57366 0.87023 0.0
H839 H 0.08652 0.55818 0.82411 0.0
C840 C 0.99626 0.88755 0.69174 0.0
C841 C 1.01997 0.87557 0.65829 0.0
C842 C 0.04232 0.91948 0.66554 0.0
C843 C 1.019 0.93141 0.70207 0.0
N844 N 0.97552 0.92505 0.76625 0.0
N845 N 0.06725 0.87913 0.6355 0.0
C846 C 0.99647 0.91487 0.71991 0.0
C847 C 0.04343 0.89133 0.65187 0.0
N848 N 0.97316 0.87316 0.6932 0.0
N849 N 0.06317 0.93517 0.6394 0.0
H850 H 0.06886 0.85868 0.62697 0.0
H851 H 0.08562 0.88877 0.63961 0.0
H852 H 0.06342 0.95568 0.64732 0.0
H853 H 0.0792 0.92818 0.60261 0.0
H854 H 0.95457 0.88119 0.70832 0.0
H855 H 0.97226 0.85348 0.67282 0.0
H856 H 0.95978 0.91359 0.79017 0.0
H857 H 0.97502 0.94469 0.78738 0.0
C858 C 0.65133 0.03614 0.6822 0.0
C859 C 0.66488 1.01293 0.65335 0.0
C860 C 0.62257 0.98781 0.67762 0.0
C861 C 0.60822 1.01169 0.69509 0.0
N862 N 0.60921 0.05963 0.69529 0.0
N863 N 0.66165 0.96693 0.61241 0.0
C864 C 0.62275 0.03612 0.69279 0.0
C865 C 0.64997 0.98882 0.64829 0.0
N866 N 0.66586 0.05826 0.70192 0.0
N867 N 0.61044 0.96392 0.69253 0.0
H868 H 0.68131 0.9668 0.58976 0.0
H869 H 0.65116 0.94966 0.59784 0.0
H870 H 0.59101 0.96223 0.71658 0.0
H871 H 0.62051 0.94587 0.68989 0.0
H872 H 0.65759 0.07502 0.73084 0.0
H873 H 0.68666 0.05889 0.69741 0.0
H874 H 0.61836 0.07796 0.6853 0.0
H875 H 0.58844 0.06089 0.69702 0.0
C876 C 0.51357 0.64369 0.59972 0.0
C877 C 0.52364 0.6629 0.65938 0.0
C878 C 0.53856 0.62551 0.75452 0.0
C879 C 0.52605 0.6066 0.69898 0.0
N880 N 0.49549 0.59945 0.58006 0.0
N881 N 0.54078 0.67133 0.80395 0.0
C882 C 0.5118 0.61627 0.62489 0.0
C883 C 0.53479 0.65355 0.73979 0.0
N884 N 0.50652 0.65136 0.51716 0.0
N885 N 0.55469 0.61675 0.82033 0.0
H886 H 0.53784 0.69169 0.79641 0.0
H887 H 0.54611 0.66569 0.86719 0.0
H888 H 0.5585 0.59666 0.83012 0.0
H889 H 0.56622 0.6293 0.85891 0.0
H890 H 0.5017 0.63791 0.46808 0.0
H891 H 0.50816 0.67088 0.49496 0.0
H892 H 0.48263 0.60575 0.53064 0.0
H893 H 0.49263 0.5798 0.59913 0.0
C894 C 0.89217 0.54503 0.67028 0.0
C895 C 0.8789 0.52039 0.65528 0.0
C896 C 0.92251 0.49765 0.67438 0.0
C897 C 0.93551 0.52197 0.6962 0.0
N898 N 0.93064 0.56839 0.7295 0.0
N899 N 0.88097 0.4728 0.66628 0.0
C900 C 0.91969 0.54553 0.69813 0.0
C901 C 0.89398 0.49662 0.66438 0.0
N902 N 0.87877 0.56818 0.65497 0.0
N903 N 0.9375 0.47563 0.65732 0.0
H904 H 0.86026 0.47119 0.6606 0.0
H905 H 0.8904 0.45505 0.68275 0.0
H906 H 0.95831 0.47572 0.6578 0.0
H907 H 0.92943 0.45814 0.63267 0.0
H908 H 0.88791 0.58674 0.65521 0.0
H909 H 0.85891 0.56876 0.63463 0.0
H910 H 0.91959 0.5854 0.74283 0.0
H911 H 0.95043 0.56966 0.7496 0.0
loop_
_geom_bond_atom_site_label_1
_geom_bond_atom_site_label_2
_geom_bond_distance
_geom_bond_site_symmetry_2
_ccdc_geom_bond_type
C0 C1 1.264 . S
C0 C5 1.479 . S
C0 C10 1.465 . S
C1 C0 1.264 . S
C1 C3 1.339 . S
C1 H28 0.931 . S
C2 C3 1.395 . S
C2 C4 1.320 . S
C3 C1 1.339 . S
C3 C2 1.395 . S
C3 H29 0.929 . S
C4 C2 1.320 . S
C4 C5 1.405 . S
C4 H30 0.930 . S
C5 C0 1.479 . S
C5 C4 1.405 . S
C5 H31 0.931 . S
U6 O7 2.454 . S
U6 O8 2.458 . S
U6 C9 2.984 . S
U6 C10 2.847 . S
U6 C23 2.882 . S
U6 O24 2.441 . S
U6 O25 2.420 . S
U6 O26 2.455 . S
U6 O27 2.449 . S
O7 U6 2.454 . S
O7 C9 1.353 . S
O8 U6 2.458 . S
O8 C9 1.286 . S
C9 U6 2.984 . S
C9 O7 1.353 . S
C9 O8 1.286 . S
C9 C11 1.363 . S
C10 C0 1.465 . S
C10 U6 2.847 . S
C10 O24 1.249 . S
C10 O25 1.202 . S
C11 C9 1.363 . S
C11 C13 1.408 . S
C11 C16 1.342 . S
C12 C13 1.310 . S
C12 C15 1.461 . S
C12 H32 0.932 . S
C13 C11 1.408 . S
C13 C12 1.310 . S
C13 H33 0.930 . S
C14 C15 1.474 . S
C14 C16 1.285 . S
C14 H34 0.929 . S
C15 C12 1.461 . S
C15 C14 1.474 . S
C16 C11 1.342 . S
C16 C14 1.285 . S
C16 H35 0.930 . S
C17 C20 1.424 . S
C17 C22 1.245 . S
C17 C23 1.428 . S
C18 C21 1.260 . S
C18 C22 1.477 . S
C18 H36 0.932 . S
C19 C20 1.384 . S
C19 C21 1.479 . S
C19 H37 0.929 . S
C20 C17 1.424 . S
C20 C19 1.384 . S
C20 H38 0.928 . S
C21 C18 1.260 . S
C21 C19 1.479 . S
C22 C17 1.245 . S
C22 C18 1.477 . S
C22 H39 0.932 . S
C23 U6 2.882 . S
C23 C17 1.428 . S
C23 O26 1.301 . S
C23 O27 1.282 . S
O24 U6 2.441 . S
O24 C10 1.249 . S
O25 U6 2.420 . S
O25 C10 1.202 . S
O26 U6 2.455 . S
O26 C23 1.301 . S
O27 U6 2.449 . S
O27 C23 1.282 . S
H28 C1 0.931 . S
H29 C3 0.929 . S
H30 C4 0.930 . S
H31 C5 0.931 . S
H32 C12 0.932 . S
H33 C13 0.930 . S
H34 C14 0.929 . S
H35 C16 0.930 . S
H36 C18 0.932 . S
H37 C19 0.929 . S
H38 C20 0.928 . S
H39 C22 0.932 . S
C40 C41 1.264 . S
C40 C45 1.479 . S
C40 C50 1.465 . S
C41 C40 1.264 . S
C41 C43 1.339 . S
C41 H68 0.931 . S
C42 C43 1.395 . S
C42 C44 1.320 . S
C43 C41 1.339 . S
C43 C42 1.395 . S
C43 H69 0.929 . S
C44 C42 1.320 . S
C44 C45 1.405 . S
C44 H70 0.921 1_455 S
C45 C40 1.479 . S
C45 C44 1.405 . S
C45 H71 0.931 . S
U46 O47 2.454 . S
U46 O48 2.458 . S
U46 C49 2.984 . S
U46 C50 2.847 . S
U46 C63 2.882 . S
U46 O64 2.441 . S
U46 O65 2.420 . S
U46 O66 2.455 . S
U46 O67 2.449 . S
O47 U46 2.454 . S
O47 C49 1.353 . S
O48 U46 2.458 . S
O48 C49 1.286 . S
C49 U46 2.984 . S
C49 O47 1.353 . S
C49 O48 1.286 . S
C49 C51 1.363 . S
C50 C40 1.465 . S
C50 U46 2.847 . S
C50 O64 1.249 . S
C50 O65 1.202 . S
C51 C49 1.363 . S
C51 C53 1.408 . S
C51 C56 1.342 . S
C52 C53 1.310 . S
C52 C55 1.461 . S
C52 H72 0.932 . S
C53 C51 1.408 . S
C53 C52 1.310 . S
C53 H73 0.930 . S
C54 C55 1.474 1_655 S
C54 C56 1.285 1_655 S
C54 H74 0.930 . S
C55 C52 1.461 . S
C55 C54 1.474 1_455 S
C56 C51 1.342 . S
C56 C54 1.285 1_455 S
C56 H75 0.933 . S
C57 C60 1.424 . S
C57 C62 1.245 . S
C57 C63 1.428 . S
C58 C61 1.260 . S
C58 C62 1.477 . S
C58 H76 0.932 . S
C59 C60 1.384 . S
C59 C61 1.479 . S
C59 H77 0.929 . S
C60 C57 1.424 . S
C60 C59 1.384 . S
C60 H78 0.928 . S
C61 C58 1.260 . S
C61 C59 1.479 . S
C62 C57 1.245 . S
C62 C58 1.477 . S
C62 H79 0.932 . S
C63 U46 2.882 . S
C63 C57 1.428 . S
C63 O66 1.301 . S
C63 O67 1.282 . S
O64 U46 2.441 . S
O64 C50 1.249 . S
O65 U46 2.420 . S
O65 C50 1.202 . S
O66 U46 2.455 . S
O66 C63 1.301 . S
O67 U46 2.449 . S
O67 C63 1.282 . S
H68 C41 0.931 . S
H69 C43 0.929 . S
H70 C44 0.921 1_655 S
H71 C45 0.931 . S
H72 C52 0.932 . S
H73 C53 0.930 . S
H74 C54 0.930 . S
H75 C56 0.933 . S
H76 C58 0.932 . S
H77 C59 0.929 . S
H78 C60 0.928 . S
H79 C62 0.932 . S
C80 C81 1.264 . S
C80 C85 1.479 . S
C80 C90 1.465 . S
C81 C80 1.264 . S
C81 C83 1.339 . S
C81 H108 0.931 . S
C82 C83 1.395 . S
C82 C84 1.320 . S
C83 C81 1.339 . S
C83 C82 1.395 . S
C83 H109 0.929 . S
C84 C82 1.320 . S
C84 C85 1.405 . S
C84 H110 0.921 1_545 S
C85 C80 1.479 . S
C85 C84 1.405 . S
C85 H111 0.931 . S
U86 O87 2.454 . S
U86 O88 2.458 . S
U86 C89 2.984 . S
U86 C90 2.847 . S
U86 C103 2.882 . S
U86 O104 2.441 . S
U86 O105 2.420 . S
U86 O106 2.455 . S
U86 O107 2.449 . S
O87 U86 2.454 . S
O87 C89 1.353 . S
O88 U86 2.458 . S
O88 C89 1.286 . S
C89 U86 2.984 . S
C89 O87 1.353 . S
C89 O88 1.286 . S
C89 C91 1.363 . S
C90 C80 1.465 . S
C90 U86 2.847 . S
C90 O104 1.249 . S
C90 O105 1.202 . S
C91 C89 1.363 . S
C91 C93 1.408 . S
C91 C96 1.342 . S
C92 C93 1.310 . S
C92 C95 1.461 . S
C92 H112 0.932 . S
C93 C91 1.408 . S
C93 C92 1.310 . S
C93 H113 0.930 . S
C94 C95 1.474 1_565 S
C94 C96 1.285 1_565 S
C94 H114 0.930 . S
C95 C92 1.461 . S
C95 C94 1.474 1_545 S
C96 C91 1.342 . S
C96 C94 1.285 1_545 S
C96 H115 0.933 . S
C97 C100 1.424 . S
C97 C102 1.245 . S
C97 C103 1.428 . S
C98 C101 1.260 . S
C98 C102 1.477 . S
C98 H116 0.932 . S
C99 C100 1.384 . S
C99 C101 1.479 . S
C99 H117 0.929 . S
C100 C97 1.424 . S
C100 C99 1.384 . S
C100 H118 0.928 . S
C101 C98 1.260 . S
C101 C99 1.479 . S
C102 C97 1.245 . S
C102 C98 1.477 . S
C102 H119 0.932 . S
C103 U86 2.882 . S
C103 C97 1.428 . S
C103 O106 1.301 . S
C103 O107 1.282 . S
O104 U86 2.441 . S
O104 C90 1.249 . S
O105 U86 2.420 . S
O105 C90 1.202 . S
O106 U86 2.455 . S
O106 C103 1.301 . S
O107 U86 2.449 . S
O107 C103 1.282 . S
H108 C81 0.931 . S
H109 C83 0.929 . S
H110 C84 0.921 1_565 S
H111 C85 0.931 . S
H112 C92 0.932 . S
H113 C93 0.930 . S
H114 C94 0.930 . S
H115 C96 0.933 . S
H116 C98 0.932 . S
H117 C99 0.929 . S
H118 C100 0.928 . S
H119 C102 0.932 . S
C120 C121 1.264 . S
C120 C125 1.479 . S
C120 C130 1.465 . S
C121 C120 1.264 . S
C121 C123 1.339 . S
C121 H148 0.931 . S
C122 C123 1.395 . S
C122 C124 1.320 . S
C123 C121 1.339 . S
C123 C122 1.395 . S
C123 H149 0.929 . S
C124 C122 1.320 . S
C124 C125 1.405 . S
C124 H150 0.930 . S
C125 C120 1.479 . S
C125 C124 1.405 . S
C125 H151 0.931 . S
U126 O127 2.454 . S
U126 O128 2.458 . S
U126 C129 2.984 . S
U126 C130 2.847 . S
U126 C143 2.882 . S
U126 O144 2.441 . S
U126 O145 2.420 . S
U126 O146 2.455 . S
U126 O147 2.449 . S
O127 U126 2.454 . S
O127 C129 1.353 . S
O128 U126 2.458 . S
O128 C129 1.286 . S
C129 U126 2.984 . S
C129 O127 1.353 . S
C129 O128 1.286 . S
C129 C131 1.363 . S
C130 C120 1.465 . S
C130 U126 2.847 . S
C130 O144 1.249 . S
C130 O145 1.202 . S
C131 C129 1.363 . S
C131 C133 1.408 . S
C131 C136 1.342 . S
C132 C133 1.310 . S
C132 C135 1.461 . S
C132 H152 0.932 . S
C133 C131 1.408 . S
C133 C132 1.310 . S
C133 H153 0.930 . S
C134 C135 1.474 . S
C134 C136 1.285 . S
C134 H154 0.929 . S
C135 C132 1.461 . S
C135 C134 1.474 . S
C136 C131 1.342 . S
C136 C134 1.285 . S
C136 H155 0.930 . S
C137 C140 1.424 . S
C137 C142 1.245 . S
C137 C143 1.428 . S
C138 C141 1.260 . S
C138 C142 1.477 . S
C138 H156 0.932 . S
C139 C140 1.384 . S
C139 C141 1.479 . S
C139 H157 0.929 . S
C140 C137 1.424 . S
C140 C139 1.384 . S
C140 H158 0.928 . S
C141 C138 1.260 . S
C141 C139 1.479 . S
C142 C137 1.245 . S
C142 C138 1.477 . S
C142 H159 0.932 . S
C143 U126 2.882 . S
C143 C137 1.428 . S
C143 O146 1.301 . S
C143 O147 1.282 . S
O144 U126 2.441 . S
O144 C130 1.249 . S
O145 U126 2.420 . S
O145 C130 1.202 . S
O146 U126 2.455 . S
O146 C143 1.301 . S
O147 U126 2.449 . S
O147 C143 1.282 . S
H148 C121 0.931 . S
H149 C123 0.929 . S
H150 C124 0.930 . S
H151 C125 0.931 . S
H152 C132 0.932 . S
H153 C133 0.930 . S
H154 C134 0.929 . S
H155 C136 0.930 . S
H156 C138 0.932 . S
H157 C139 0.929 . S
H158 C140 0.928 . S
H159 C142 0.932 . S
C160 C161 1.264 . S
C160 C165 1.479 . S
C160 C170 1.465 . S
C161 C160 1.264 . S
C161 C163 1.339 . S
C161 H188 0.931 . S
C162 C163 1.395 . S
C162 C164 1.320 . S
C163 C161 1.339 . S
C163 C162 1.395 . S
C163 H189 0.929 . S
C164 C162 1.320 . S
C164 C165 1.405 . S
C164 H190 0.930 . S
C165 C160 1.479 . S
C165 C164 1.405 . S
C165 H191 0.931 . S
U166 O167 2.457 . S
U166 O168 2.458 . S
U166 C169 2.984 . S
U166 C170 2.847 1_554 S
U166 C183 2.882 . S
U166 O184 2.441 1_554 S
U166 O185 2.420 1_554 S
U166 O186 2.455 . S
U166 O187 2.449 . S
O167 U166 2.457 . S
O167 C169 1.365 . S
O168 U166 2.458 . S
O168 C169 1.286 . S
C169 U166 2.984 . S
C169 O167 1.365 . S
C169 O168 1.286 . S
C169 C171 1.363 . S
C170 C160 1.465 . S
C170 U166 2.847 1_556 S
C170 O184 1.249 . S
C170 O185 1.202 . S
C171 C169 1.363 . S
C171 C173 1.408 . S
C171 C176 1.342 . S
C172 C173 1.310 . S
C172 C175 1.461 . S
C172 H192 0.932 . S
C173 C171 1.408 . S
C173 C172 1.310 . S
C173 H193 0.930 1_554 S
C174 C175 1.474 . S
C174 C176 1.285 . S
C174 H194 0.929 . S
C175 C172 1.461 . S
C175 C174 1.474 . S
C176 C171 1.342 . S
C176 C174 1.285 . S
C176 H195 0.930 . S
C177 C180 1.424 . S
C177 C182 1.245 . S
C177 C183 1.428 . S
C178 C181 1.260 . S
C178 C182 1.477 . S
C178 H196 0.932 . S
C179 C180 1.384 . S
C179 C181 1.479 . S
C179 H197 0.929 . S
C180 C177 1.424 . S
C180 C179 1.384 . S
C180 H198 0.928 . S
C181 C178 1.260 . S
C181 C179 1.479 . S
C182 C177 1.245 . S
C182 C178 1.477 . S
C182 H199 0.932 . S
C183 U166 2.882 . S
C183 C177 1.428 . S
C183 O186 1.301 . S
C183 O187 1.282 . S
O184 U166 2.441 1_556 S
O184 C170 1.249 . S
O185 U166 2.420 1_556 S
O185 C170 1.202 . S
O186 U166 2.455 . S
O186 C183 1.301 . S
O187 U166 2.449 . S
O187 C183 1.282 . S
H188 C161 0.931 . S
H189 C163 0.929 . S
H190 C164 0.930 . S
H191 C165 0.931 . S
H192 C172 0.932 . S
H193 C173 0.930 1_556 S
H194 C174 0.929 . S
H195 C176 0.930 . S
H196 C178 0.932 . S
H197 C179 0.929 . S
H198 C180 0.928 . S
H199 C182 0.932 . S
C200 C201 1.264 . S
C200 C205 1.479 . S
C200 C210 1.465 . S
C201 C200 1.264 . S
C201 C203 1.339 . S
C201 H228 0.931 . S
C202 C203 1.395 . S
C202 C204 1.320 . S
C203 C201 1.339 . S
C203 C202 1.395 . S
C203 H229 0.929 . S
C204 C202 1.320 . S
C204 C205 1.405 . S
C204 H230 0.923 1_455 S
C205 C200 1.479 . S
C205 C204 1.405 . S
C205 H231 0.931 . S
U206 O207 2.454 . S
U206 O208 2.458 . S
U206 C209 2.984 . S
U206 C210 2.847 1_554 S
U206 C223 2.882 . S
U206 O224 2.441 1_554 S
U206 O225 2.420 1_554 S
U206 O226 2.455 . S
U206 O227 2.449 . S
O207 U206 2.454 . S
O207 C209 1.353 . S
O208 U206 2.458 . S
O208 C209 1.286 . S
C209 U206 2.984 . S
C209 O207 1.353 . S
C209 O208 1.286 . S
C209 C211 1.363 . S
C210 C200 1.465 . S
C210 U206 2.847 1_556 S
C210 O224 1.249 . S
C210 O225 1.202 . S
C211 C209 1.363 . S
C211 C213 1.408 . S
C211 C216 1.342 . S
C212 C213 1.310 . S
C212 C215 1.462 . S
C212 H232 0.932 . S
C213 C211 1.408 . S
C213 C212 1.310 . S
C213 H233 0.930 1_554 S
C214 C215 1.474 1_655 S
C214 C216 1.286 1_655 S
C214 H234 0.929 . S
C215 C212 1.462 . S
C215 C214 1.474 1_455 S
C216 C211 1.342 . S
C216 C214 1.286 1_455 S
C216 H235 0.930 . S
C217 C220 1.424 . S
C217 C222 1.245 . S
C217 C223 1.428 . S
C218 C221 1.260 . S
C218 C222 1.477 . S
C218 H236 0.932 . S
C219 C220 1.384 . S
C219 C221 1.479 . S
C219 H237 0.929 . S
C220 C217 1.424 . S
C220 C219 1.384 . S
C220 H238 0.928 . S
C221 C218 1.260 . S
C221 C219 1.479 . S
C222 C217 1.245 . S
C222 C218 1.477 . S
C222 H239 0.932 . S
C223 U206 2.882 . S
C223 C217 1.428 . S
C223 O226 1.301 . S
C223 O227 1.282 . S
O224 U206 2.441 1_556 S
O224 C210 1.249 . S
O225 U206 2.420 1_556 S
O225 C210 1.202 . S
O226 U206 2.455 . S
O226 C223 1.301 . S
O227 U206 2.449 . S
O227 C223 1.282 . S
H228 C201 0.931 . S
H229 C203 0.929 . S
H230 C204 0.923 1_655 S
H231 C205 0.931 . S
H232 C212 0.932 . S
H233 C213 0.930 1_556 S
H234 C214 0.929 . S
H235 C216 0.930 . S
H236 C218 0.932 . S
H237 C219 0.929 . S
H238 C220 0.928 . S
H239 C222 0.932 . S
C240 C241 1.264 . S
C240 C245 1.479 . S
C240 C250 1.465 . S
C241 C240 1.264 . S
C241 C243 1.339 . S
C241 H268 0.931 . S
C242 C243 1.395 . S
C242 C244 1.320 . S
C243 C241 1.339 . S
C243 C242 1.395 . S
C243 H269 0.929 . S
C244 C242 1.320 . S
C244 C245 1.405 . S
C244 H270 0.923 1_545 S
C245 C240 1.479 . S
C245 C244 1.405 . S
C245 H271 0.931 . S
U246 O247 2.454 . S
U246 O248 2.458 . S
U246 C249 2.984 . S
U246 C250 2.847 1_554 S
U246 C263 2.882 . S
U246 O264 2.441 1_554 S
U246 O265 2.420 1_554 S
U246 O266 2.455 . S
U246 O267 2.449 . S
O247 U246 2.454 . S
O247 C249 1.353 . S
O248 U246 2.458 . S
O248 C249 1.286 . S
C249 U246 2.984 . S
C249 O247 1.353 . S
C249 O248 1.286 . S
C249 C251 1.363 . S
C250 C240 1.465 . S
C250 U246 2.847 1_556 S
C250 O264 1.249 . S
C250 O265 1.202 . S
C251 C249 1.363 . S
C251 C253 1.408 . S
C251 C256 1.342 . S
C252 C253 1.310 . S
C252 C255 1.462 . S
C252 H272 0.932 . S
C253 C251 1.408 . S
C253 C252 1.310 . S
C253 H273 0.930 1_554 S
C254 C255 1.474 1_565 S
C254 C256 1.286 1_565 S
C254 H274 0.929 . S
C255 C252 1.462 . S
C255 C254 1.474 1_545 S
C256 C251 1.342 . S
C256 C254 1.286 1_545 S
C256 H275 0.930 . S
C257 C260 1.424 . S
C257 C262 1.245 . S
C257 C263 1.428 . S
C258 C261 1.260 . S
C258 C262 1.477 . S
C258 H276 0.932 . S
C259 C260 1.384 . S
C259 C261 1.479 . S
C259 H277 0.929 . S
C260 C257 1.424 . S
C260 C259 1.384 . S
C260 H278 0.928 . S
C261 C258 1.260 . S
C261 C259 1.479 . S
C262 C257 1.245 . S
C262 C258 1.477 . S
C262 H279 0.932 . S
C263 U246 2.882 . S
C263 C257 1.428 . S
C263 O266 1.301 . S
C263 O267 1.282 . S
O264 U246 2.441 1_556 S
O264 C250 1.249 . S
O265 U246 2.420 1_556 S
O265 C250 1.202 . S
O266 U246 2.455 . S
O266 C263 1.301 . S
O267 U246 2.449 . S
O267 C263 1.282 . S
H268 C241 0.931 . S
H269 C243 0.929 . S
H270 C244 0.923 1_565 S
H271 C245 0.931 . S
H272 C252 0.932 . S
H273 C253 0.930 1_556 S
H274 C254 0.929 . S
H275 C256 0.930 . S
H276 C258 0.932 . S
H277 C259 0.929 . S
H278 C260 0.928 . S
H279 C262 0.932 . S
C280 C281 1.264 . S
C280 C285 1.479 . S
C280 C290 1.465 . S
C281 C280 1.264 . S
C281 C283 1.339 . S
C281 H308 0.931 . S
C282 C283 1.395 . S
C282 C284 1.320 . S
C283 C281 1.339 . S
C283 C282 1.395 . S
C283 H309 0.929 . S
C284 C282 1.320 . S
C284 C285 1.405 . S
C284 H310 0.930 . S
C285 C280 1.479 . S
C285 C284 1.405 . S
C285 H311 0.931 . S
U286 O287 2.454 . S
U286 O288 2.458 . S
U286 C289 2.984 . S
U286 C290 2.847 1_554 S
U286 C303 2.882 . S
U286 O304 2.441 1_554 S
U286 O305 2.420 1_554 S
U286 O306 2.455 . S
U286 O307 2.449 . S
O287 U286 2.454 . S
O287 C289 1.352 . S
O288 U286 2.458 . S
O288 C289 1.286 . S
C289 U286 2.984 . S
C289 O287 1.352 . S
C289 O288 1.286 . S
C289 C291 1.363 . S
C290 C280 1.465 . S
C290 U286 2.847 1_556 S
C290 O304 1.249 . S
C290 O305 1.202 . S
C291 C289 1.363 . S
C291 C293 1.408 . S
C291 C296 1.342 . S
C292 C293 1.310 . S
C292 C295 1.461 . S
C292 H312 0.932 . S
C293 C291 1.408 . S
C293 C292 1.310 . S
C293 H313 0.930 1_554 S
C294 C295 1.474 . S
C294 C296 1.285 . S
C294 H314 0.929 . S
C295 C292 1.461 . S
C295 C294 1.474 . S
C296 C291 1.342 . S
C296 C294 1.285 . S
C296 H315 0.930 . S
C297 C300 1.424 . S
C297 C302 1.245 . S
C297 C303 1.428 . S
C298 C301 1.260 . S
C298 C302 1.477 . S
C298 H316 0.932 . S
C299 C300 1.384 . S
C299 C301 1.479 . S
C299 H317 0.929 . S
C300 C297 1.424 . S
C300 C299 1.384 . S
C300 H318 0.928 . S
C301 C298 1.260 . S
C301 C299 1.479 . S
C302 C297 1.245 . S
C302 C298 1.477 . S
C302 H319 0.932 . S
C303 U286 2.882 . S
C303 C297 1.428 . S
C303 O306 1.301 . S
C303 O307 1.282 . S
O304 U286 2.441 1_556 S
O304 C290 1.249 . S
O305 U286 2.420 1_556 S
O305 C290 1.202 . S
O306 U286 2.455 . S
O306 C303 1.301 . S
O307 U286 2.449 . S
O307 C303 1.282 . S
H308 C281 0.931 . S
H309 C283 0.929 . S
H310 C284 0.930 . S
H311 C285 0.931 . S
H312 C292 0.932 . S
H313 C293 0.930 1_556 S
H314 C294 0.929 . S
H315 C296 0.930 . S
H316 C298 0.932 . S
H317 C299 0.929 . S
H318 C300 0.928 . S
H319 C302 0.932 . S
Ho320 C323 2.811 . S
Ho320 O340 2.322 . S
Ho320 O342 2.378 . S
Ho320 O343 2.524 . S
Ho320 O344 2.381 . S
Ho320 O345 2.669 1_565 S
Ho320 O347 2.346 1_565 S
Ho320 O351 2.305 1_455 S
Ho321 C332 2.811 . S
Ho321 O341 2.346 1_545 S
Ho321 O345 2.305 1_655 S
Ho321 O346 2.322 . S
Ho321 O348 2.378 . S
Ho321 O349 2.524 . S
Ho321 O350 2.381 . S
Ho321 O351 2.669 1_545 S
C322 O340 1.259 1_655 S
C322 O341 1.268 . S
C323 Ho320 2.811 . S
C323 C324 1.488 . S
C323 O342 1.215 . S
C323 O343 1.289 . S
C324 C323 1.488 . S
C324 C325 1.348 . S
C324 C329 1.413 . S
C325 C324 1.348 . S
C325 C326 1.442 1_556 S
C325 H352 0.930 1_455 S
C326 C325 1.442 1_554 S
C326 C327 1.381 . S
C326 H353 0.939 . S
C327 C326 1.381 . S
C327 C328 1.321 1_554 S
C328 C327 1.321 1_556 S
C328 C329 1.403 . S
C328 H354 0.934 . S
C329 C324 1.413 . S
C329 C328 1.403 . S
C329 H355 0.930 . S
C330 O344 1.275 . S
C330 O345 1.256 1_565 S
C331 O346 1.259 1_455 S
C331 O347 1.268 . S
C332 Ho321 2.811 . S
C332 C333 1.488 . S
C332 O348 1.215 . S
C332 O349 1.289 . S
C333 C332 1.488 . S
C333 C334 1.348 . S
C333 C338 1.413 . S
C334 C333 1.348 . S
C334 C335 1.442 . S
C334 H356 0.930 1_655 S
C335 C334 1.442 . S
C335 C336 1.381 . S
C335 H357 0.931 . S
C336 C335 1.381 . S
C336 C337 1.321 . S
C337 C336 1.321 . S
C337 C338 1.403 . S
C337 H358 0.934 . S
C338 C333 1.413 . S
C338 C337 1.403 . S
C338 H359 0.930 . S
C339 O350 1.275 . S
C339 O351 1.256 1_545 S
O340 Ho320 2.322 . S
O340 C322 1.259 1_455 S
O341 Ho321 2.346 1_565 S
O341 C322 1.268 . S
O342 Ho320 2.378 . S
O342 C323 1.215 . S
O343 Ho320 2.524 . S
O343 C323 1.289 . S
O344 Ho320 2.381 . S
O344 C330 1.275 . S
O345 Ho320 2.669 1_545 S
O345 Ho321 2.305 1_455 S
O345 C330 1.256 1_545 S
O346 Ho321 2.322 . S
O346 C331 1.259 1_655 S
O347 Ho320 2.346 1_545 S
O347 C331 1.268 . S
O348 Ho321 2.378 . S
O348 C332 1.215 . S
O349 Ho321 2.524 . S
O349 C332 1.289 . S
O350 Ho321 2.381 . S
O350 C339 1.275 . S
O351 Ho320 2.305 1_655 S
O351 Ho321 2.669 1_565 S
O351 C339 1.256 1_565 S
H352 C325 0.930 1_655 S
H353 C326 0.939 . S
H354 C328 0.934 . S
H355 C329 0.930 . S
H356 C334 0.930 1_455 S
H357 C335 0.931 . S
H358 C337 0.934 . S
H359 C338 0.930 . S
Ho360 C363 2.811 . S
Ho360 O380 2.322 . S
Ho360 O382 2.378 . S
Ho360 O383 2.524 . S
Ho360 O384 2.381 . S
Ho360 O385 2.669 . S
Ho360 O387 2.346 . S
Ho360 O391 2.305 1_545 S
Ho361 C372 2.811 . S
Ho361 O381 2.346 . S
Ho361 O385 2.305 1_565 S
Ho361 O386 2.322 . S
Ho361 O388 2.378 . S
Ho361 O389 2.524 . S
Ho361 O390 2.381 . S
Ho361 O391 2.669 . S
C362 O380 1.259 1_565 S
C362 O381 1.268 . S
C363 Ho360 2.811 . S
C363 C364 1.488 . S
C363 O382 1.215 . S
C363 O383 1.289 . S
C364 C363 1.488 . S
C364 C365 1.348 . S
C364 C369 1.413 . S
C365 C364 1.348 . S
C365 C366 1.442 1_556 S
C365 H392 0.930 1_545 S
C366 C365 1.442 1_554 S
C366 C367 1.381 . S
C366 H393 0.920 1_545 S
C367 C366 1.381 . S
C367 C368 1.321 1_554 S
C368 C367 1.321 1_556 S
C368 C369 1.403 . S
C368 H394 0.934 . S
C369 C364 1.413 . S
C369 C368 1.403 . S
C369 H395 0.930 . S
C370 O384 1.275 . S
C370 O385 1.256 . S
C371 O386 1.259 1_545 S
C371 O387 1.268 . S
C372 Ho361 2.811 . S
C372 C373 1.488 . S
C372 O388 1.215 . S
C372 O389 1.289 . S
C373 C372 1.488 . S
C373 C374 1.348 . S
C373 C378 1.413 . S
C374 C373 1.348 . S
C374 C375 1.442 . S
C374 H396 0.930 1_565 S
C375 C374 1.442 . S
C375 C376 1.381 . S
C375 H397 0.912 1_565 S
C376 C375 1.381 . S
C376 C377 1.321 . S
C377 C376 1.321 . S
C377 C378 1.403 . S
C377 H398 0.934 . S
C378 C373 1.413 . S
C378 C377 1.403 . S
C378 H399 0.930 . S
C379 O390 1.275 . S
C379 O391 1.256 . S
O380 Ho360 2.322 . S
O380 C362 1.259 1_545 S
O381 Ho361 2.346 . S
O381 C362 1.268 . S
O382 Ho360 2.378 . S
O382 C363 1.215 . S
O383 Ho360 2.524 . S
O383 C363 1.289 . S
O384 Ho360 2.381 . S
O384 C370 1.275 . S
O385 Ho360 2.669 . S
O385 Ho361 2.305 1_545 S
O385 C370 1.256 . S
O386 Ho361 2.322 . S
O386 C371 1.259 1_565 S
O387 Ho360 2.346 . S
O387 C371 1.268 . S
O388 Ho361 2.378 . S
O388 C372 1.215 . S
O389 Ho361 2.524 . S
O389 C372 1.289 . S
O390 Ho361 2.381 . S
O390 C379 1.275 . S
O391 Ho360 2.305 1_565 S
O391 Ho361 2.669 . S
O391 C379 1.256 . S
H392 C365 0.930 1_565 S
H393 C366 0.920 1_565 S
H394 C368 0.934 . S
H395 C369 0.930 . S
H396 C374 0.930 1_545 S
H397 C375 0.912 1_545 S
H398 C377 0.934 . S
H399 C378 0.930 . S
Ho400 C403 2.811 . S
Ho400 O420 2.322 . S
Ho400 O422 2.378 . S
Ho400 O423 2.524 . S
Ho400 O424 2.381 . S
Ho400 O425 2.669 . S
Ho400 O427 2.346 . S
Ho400 O431 2.305 . S
Ho401 C412 2.811 . S
Ho401 O421 2.346 . S
Ho401 O425 2.305 . S
Ho401 O426 2.322 . S
Ho401 O428 2.378 . S
Ho401 O429 2.524 . S
Ho401 O430 2.381 . S
Ho401 O431 2.669 . S
C402 O420 1.259 . S
C402 O421 1.268 . S
C403 Ho400 2.811 . S
C403 C404 1.488 . S
C403 O422 1.215 . S
C403 O423 1.289 . S
C404 C403 1.488 . S
C404 C405 1.348 . S
C404 C409 1.413 . S
C405 C404 1.348 . S
C405 C406 1.442 1_556 S
C405 H432 0.930 . S
C406 C405 1.442 1_554 S
C406 C407 1.381 . S
C406 H433 0.931 . S
C407 C406 1.381 . S
C407 C408 1.321 1_554 S
C408 C407 1.321 1_556 S
C408 C409 1.403 . S
C408 H434 0.934 . S
C409 C404 1.413 . S
C409 C408 1.403 . S
C409 H435 0.930 . S
C410 O424 1.275 . S
C410 O425 1.256 . S
C411 O426 1.259 . S
C411 O427 1.268 . S
C412 Ho401 2.811 . S
C412 C413 1.488 . S
C412 O428 1.215 . S
C412 O429 1.289 . S
C413 C412 1.488 . S
C413 C414 1.348 . S
C413 C418 1.413 . S
C414 C413 1.348 . S
C414 C415 1.442 . S
C414 H436 0.930 . S
C415 C414 1.442 . S
C415 C416 1.381 . S
C415 H437 0.931 . S
C416 C415 1.381 . S
C416 C417 1.321 . S
C417 C416 1.321 . S
C417 C418 1.403 . S
C417 H438 0.934 . S
C418 C413 1.413 . S
C418 C417 1.403 . S
C418 H439 0.930 . S
C419 O430 1.275 . S
C419 O431 1.256 . S
O420 Ho400 2.322 . S
O420 C402 1.259 . S
O421 Ho401 2.346 . S
O421 C402 1.268 . S
O422 Ho400 2.378 . S
O422 C403 1.215 . S
O423 Ho400 2.524 . S
O423 C403 1.289 . S
O424 Ho400 2.381 . S
O424 C410 1.275 . S
O425 Ho400 2.669 . S
O425 Ho401 2.305 . S
O425 C410 1.256 . S
O426 Ho401 2.322 . S
O426 C411 1.259 . S
O427 Ho400 2.346 . S
O427 C411 1.268 . S
O428 Ho401 2.378 . S
O428 C412 1.215 . S
O429 Ho401 2.524 . S
O429 C412 1.289 . S
O430 Ho401 2.381 . S
O430 C419 1.275 . S
O431 Ho400 2.305 . S
O431 Ho401 2.669 . S
O431 C419 1.256 . S
H432 C405 0.930 . S
H433 C406 0.931 . S
H434 C408 0.934 . S
H435 C409 0.930 . S
H436 C414 0.930 . S
H437 C415 0.931 . S
H438 C417 0.934 . S
H439 C418 0.930 . S
Ho440 C443 2.811 . S
Ho440 O460 2.322 . S
Ho440 O462 2.378 . S
Ho440 O463 2.524 . S
Ho440 O464 2.381 . S
Ho440 O465 2.669 1_655 S
Ho440 O467 2.346 1_655 S
Ho440 O471 2.305 . S
Ho441 C452 2.811 . S
Ho441 O461 2.346 1_455 S
Ho441 O465 2.305 . S
Ho441 O466 2.322 . S
Ho441 O468 2.378 . S
Ho441 O469 2.524 . S
Ho441 O470 2.381 . S
Ho441 O471 2.669 1_455 S
C442 O460 1.259 . S
C442 O461 1.268 . S
C443 Ho440 2.811 . S
C443 C444 1.488 . S
C443 O462 1.215 . S
C443 O463 1.289 . S
C444 C443 1.488 . S
C444 C445 1.348 . S
C444 C449 1.413 . S
C445 C444 1.348 . S
C445 C446 1.442 1_556 S
C445 H472 0.930 . S
C446 C445 1.442 1_554 S
C446 C447 1.381 . S
C446 H473 0.931 . S
C447 C446 1.381 . S
C447 C448 1.321 1_554 S
C448 C447 1.321 1_556 S
C448 C449 1.403 . S
C448 H474 0.934 . S
C449 C444 1.413 . S
C449 C448 1.403 . S
C449 H475 0.930 . S
C450 O464 1.286 . S
C450 O465 1.250 1_655 S
C451 O466 1.259 . S
C451 O467 1.268 . S
C452 Ho441 2.811 . S
C452 C453 1.488 . S
C452 O468 1.215 . S
C452 O469 1.289 . S
C453 C452 1.488 . S
C453 C454 1.348 . S
C453 C458 1.413 . S
C454 C453 1.348 . S
C454 C455 1.442 . S
C454 H476 0.930 . S
C455 C454 1.442 . S
C455 C456 1.381 . S
C455 H477 0.931 . S
C456 C455 1.381 . S
C456 C457 1.321 . S
C457 C456 1.321 . S
C457 C458 1.403 . S
C457 H478 0.934 . S
C458 C453 1.413 . S
C458 C457 1.403 . S
C458 H479 0.930 . S
C459 O470 1.291 . S
C459 O471 1.247 1_455 S
O460 Ho440 2.322 . S
O460 C442 1.259 . S
O461 Ho441 2.346 1_655 S
O461 C442 1.268 . S
O462 Ho440 2.378 . S
O462 C443 1.215 . S
O463 Ho440 2.524 . S
O463 C443 1.289 . S
O464 Ho440 2.381 . S
O464 C450 1.286 . S
O465 Ho440 2.669 1_455 S
O465 Ho441 2.305 . S
O465 C450 1.250 1_455 S
O466 Ho441 2.322 . S
O466 C451 1.259 . S
O467 Ho440 2.346 1_455 S
O467 C451 1.268 . S
O468 Ho441 2.378 . S
O468 C452 1.215 . S
O469 Ho441 2.524 . S
O469 C452 1.289 . S
O470 Ho441 2.381 . S
O470 C459 1.291 . S
O471 Ho440 2.305 . S
O471 Ho441 2.669 1_655 S
O471 C459 1.247 1_655 S
H472 C445 0.930 . S
H473 C446 0.931 . S
H474 C448 0.934 . S
H475 C449 0.930 . S
H476 C454 0.930 . S
H477 C455 0.931 . S
H478 C457 0.934 . S
H479 C458 0.930 . S
C480 C481 1.381 . S
C480 C486 1.379 . S
C480 N488 1.356 . S
C481 C480 1.381 . S
C481 C487 1.346 1_545 S
C482 C483 1.363 1_565 S
C482 C487 1.379 . S
C482 N489 1.356 . S
C483 C482 1.363 1_545 S
C483 C486 1.363 . S
N484 C486 1.356 . S
N484 H496 0.984 . S
N484 H497 0.985 . S
N485 C487 1.356 . S
N485 H490 0.984 . S
N485 H491 0.985 . S
C486 C480 1.379 . S
C486 C483 1.363 . S
C486 N484 1.356 . S
C487 C481 1.346 1_565 S
C487 C482 1.379 . S
C487 N485 1.356 . S
N488 C480 1.356 . S
N488 H494 0.984 . S
N488 H495 0.984 . S
N489 C482 1.356 . S
N489 H492 0.984 . S
N489 H493 0.985 . S
H490 N485 0.984 . S
H491 N485 0.985 . S
H492 N489 0.984 . S
H493 N489 0.985 . S
H494 N488 0.984 . S
H495 N488 0.984 . S
H496 N484 0.984 . S
H497 N484 0.985 . S
C498 C499 1.363 . S
C498 C504 1.379 . S
C498 N506 1.356 . S
C499 C498 1.363 . S
C499 C505 1.363 . S
C500 C501 1.363 . S
C500 C505 1.379 . S
C500 N507 1.356 . S
C501 C500 1.363 . S
C501 C504 1.363 . S
N502 C504 1.356 . S
N502 H514 0.984 . S
N502 H515 0.985 . S
N503 C505 1.356 . S
N503 H508 0.984 . S
N503 H509 0.985 . S
C504 C498 1.379 . S
C504 C501 1.363 . S
C504 N502 1.356 . S
C505 C499 1.363 . S
C505 C500 1.379 . S
C505 N503 1.356 . S
N506 C498 1.356 . S
N506 H512 0.984 . S
N506 H513 0.984 . S
N507 C500 1.356 . S
N507 H510 0.984 . S
N507 H511 0.985 . S
H508 N503 0.984 . S
H509 N503 0.985 . S
H510 N507 0.984 . S
H511 N507 0.985 . S
H512 N506 0.984 . S
H513 N506 0.984 . S
H514 N502 0.984 . S
H515 N502 0.985 . S
C516 C517 1.363 . S
C516 C522 1.379 . S
C516 N524 1.356 . S
C517 C516 1.363 . S
C517 C523 1.363 . S
C518 C519 1.363 . S
C518 C523 1.379 . S
C518 N525 1.356 . S
C519 C518 1.363 . S
C519 C522 1.363 . S
N520 C522 1.356 . S
N520 H532 0.984 . S
N520 H533 0.985 . S
N521 C523 1.356 . S
N521 H526 0.984 . S
N521 H527 0.985 . S
C522 C516 1.379 . S
C522 C519 1.363 . S
C522 N520 1.356 . S
C523 C517 1.363 . S
C523 C518 1.379 . S
C523 N521 1.356 . S
N524 C516 1.356 . S
N524 H530 0.984 . S
N524 H531 0.984 . S
N525 C518 1.356 . S
N525 H528 0.984 . S
N525 H529 0.985 . S
H526 N521 0.984 . S
H527 N521 0.985 . S
H528 N525 0.984 . S
H529 N525 0.985 . S
H530 N524 0.984 . S
H531 N524 0.984 . S
H532 N520 0.984 . S
H533 N520 0.985 . S
C534 C535 1.379 . S
C534 C540 1.379 . S
C534 N542 1.356 . S
C535 C534 1.379 . S
C535 C541 1.348 1_455 S
C536 C537 1.363 1_655 S
C536 C541 1.379 . S
C536 N543 1.356 . S
C537 C536 1.363 1_455 S
C537 C540 1.363 . S
N538 C540 1.356 . S
N538 H550 0.984 . S
N538 H551 0.985 . S
N539 C541 1.356 . S
N539 H544 0.984 . S
N539 H545 0.985 . S
C540 C534 1.379 . S
C540 C537 1.363 . S
C540 N538 1.356 . S
C541 C535 1.348 1_655 S
C541 C536 1.379 . S
C541 N539 1.356 . S
N542 C534 1.356 . S
N542 H548 0.984 . S
N542 H549 0.984 . S
N543 C536 1.356 . S
N543 H546 0.984 . S
N543 H547 0.985 . S
H544 N539 0.984 . S
H545 N539 0.985 . S
H546 N543 0.984 . S
H547 N543 0.985 . S
H548 N542 0.984 . S
H549 N542 0.984 . S
H550 N538 0.984 . S
H551 N538 0.985 . S
C552 C553 1.353 1_545 S
C552 C558 1.379 . S
C552 N560 1.356 . S
C553 C552 1.353 1_565 S
C553 C559 1.374 . S
C554 C555 1.395 1_554 S
C554 C559 1.379 . S
C554 N561 1.356 1_554 S
C555 C554 1.395 1_556 S
C555 C558 1.332 1_566 S
N556 C558 1.356 1_556 S
N556 H568 0.984 . S
N556 H569 0.985 . S
N557 C559 1.356 . S
N557 H562 0.984 . S
N557 H563 0.985 . S
C558 C552 1.379 . S
C558 C555 1.332 1_544 S
C558 N556 1.356 1_554 S
C559 C553 1.374 . S
C559 C554 1.379 . S
C559 N557 1.356 . S
N560 C552 1.356 . S
N560 H566 0.984 . S
N560 H567 0.984 . S
N561 C554 1.356 1_556 S
N561 H564 0.984 . S
N561 H565 0.985 . S
H562 N557 0.984 . S
H563 N557 0.985 . S
H564 N561 0.984 . S
H565 N561 0.985 . S
H566 N560 0.984 . S
H567 N560 0.984 . S
H568 N556 0.984 . S
H569 N556 0.985 . S
C570 C571 1.363 . S
C570 C576 1.379 . S
C570 N578 1.356 . S
C571 C570 1.363 . S
C571 C577 1.363 . S
C572 C573 1.363 1_554 S
C572 C577 1.379 . S
C572 N579 1.356 1_554 S
C573 C572 1.363 1_556 S
C573 C576 1.363 1_556 S
N574 C576 1.356 1_556 S
N574 H586 0.984 . S
N574 H587 0.985 . S
N575 C577 1.356 . S
N575 H580 0.984 . S
N575 H581 0.985 . S
C576 C570 1.379 . S
C576 C573 1.363 1_554 S
C576 N574 1.356 1_554 S
C577 C571 1.363 . S
C577 C572 1.379 . S
C577 N575 1.356 . S
N578 C570 1.356 . S
N578 H584 0.984 . S
N578 H585 0.984 . S
N579 C572 1.356 1_556 S
N579 H582 0.984 . S
N579 H583 0.985 . S
H580 N575 0.984 . S
H581 N575 0.985 . S
H582 N579 0.984 . S
H583 N579 0.985 . S
H584 N578 0.984 . S
H585 N578 0.984 . S
H586 N574 0.984 . S
H587 N574 0.985 . S
C588 C589 1.363 . S
C588 C594 1.379 . S
C588 N596 1.356 . S
C589 C588 1.363 . S
C589 C595 1.363 . S
C590 C591 1.363 1_554 S
C590 C595 1.379 . S
C590 N597 1.356 1_554 S
C591 C590 1.363 1_556 S
C591 C594 1.363 1_556 S
N592 C594 1.356 1_556 S
N592 H604 0.984 . S
N592 H605 0.985 . S
N593 C595 1.356 . S
N593 H598 0.984 . S
N593 H599 0.985 . S
C594 C588 1.379 . S
C594 C591 1.363 1_554 S
C594 N592 1.356 1_554 S
C595 C589 1.363 . S
C595 C590 1.379 . S
C595 N593 1.356 . S
N596 C588 1.356 . S
N596 H602 0.984 . S
N596 H603 0.984 . S
N597 C590 1.356 1_556 S
N597 H600 0.984 . S
N597 H601 0.985 . S
H598 N593 0.984 . S
H599 N593 0.985 . S
H600 N597 0.984 . S
H601 N597 0.985 . S
H602 N596 0.984 . S
H603 N596 0.984 . S
H604 N592 0.984 . S
H605 N592 0.985 . S
C606 C607 1.346 1_455 S
C606 C612 1.379 . S
C606 N614 1.356 . S
C607 C606 1.346 1_655 S
C607 C613 1.381 . S
C608 C609 1.363 1_554 S
C608 C613 1.379 . S
C608 N615 1.356 1_554 S
C609 C608 1.363 1_556 S
C609 C612 1.363 1_656 S
N610 C612 1.356 1_556 S
N610 H622 0.984 . S
N610 H623 0.985 . S
N611 C613 1.356 . S
N611 H616 0.984 . S
N611 H617 0.985 . S
C612 C606 1.379 . S
C612 C609 1.363 1_454 S
C612 N610 1.356 1_554 S
C613 C607 1.381 . S
C613 C608 1.379 . S
C613 N611 1.356 . S
N614 C606 1.356 . S
N614 H620 0.984 . S
N614 H621 0.984 . S
N615 C608 1.356 1_556 S
N615 H618 0.984 . S
N615 H619 0.985 . S
H616 N611 0.984 . S
H617 N611 0.985 . S
H618 N615 0.984 . S
H619 N615 0.985 . S
H620 N614 0.984 . S
H621 N614 0.984 . S
H622 N610 0.984 . S
H623 N610 0.985 . S
C624 C625 1.363 . S
C624 C630 1.379 . S
C624 N632 1.356 . S
C625 C624 1.363 . S
C625 C631 1.363 . S
C626 C627 1.363 . S
C626 C631 1.379 . S
C626 N633 1.356 . S
C627 C626 1.363 . S
C627 C630 1.363 . S
N628 C630 1.356 . S
N628 H640 0.984 . S
N628 H641 0.985 . S
N629 C631 1.356 1_455 S
N629 H634 0.984 . S
N629 H635 0.985 . S
C630 C624 1.379 . S
C630 C627 1.363 . S
C630 N628 1.356 . S
C631 C625 1.363 . S
C631 C626 1.379 . S
C631 N629 1.356 1_655 S
N632 C624 1.356 . S
N632 H638 0.984 . S
N632 H639 0.984 1_655 S
N633 C626 1.356 . S
N633 H636 0.984 . S
N633 H637 0.985 . S
H634 N629 0.984 . S
H635 N629 0.985 . S
H636 N633 0.984 . S
H637 N633 0.985 . S
H638 N632 0.984 . S
H639 N632 0.984 1_455 S
H640 N628 0.984 . S
H641 N628 0.985 . S
C642 C643 1.364 . S
C642 C648 1.410 . S
C642 N650 1.321 1_565 S
C643 C642 1.364 . S
C643 C649 1.363 . S
C644 C645 1.363 . S
C644 C649 1.379 . S
C644 N651 1.356 . S
C645 C644 1.363 . S
C645 C648 1.363 . S
N646 C648 1.356 . S
N646 H658 0.984 . S
N646 H659 0.985 . S
N647 C649 1.356 . S
N647 H652 0.987 . S
N647 H653 0.985 . S
C648 C642 1.410 . S
C648 C645 1.363 . S
C648 N646 1.356 . S
C649 C643 1.363 . S
C649 C644 1.379 . S
C649 N647 1.356 . S
N650 C642 1.321 1_545 S
N650 H656 0.984 . S
N650 H657 0.984 . S
N651 C644 1.356 . S
N651 H654 0.984 . S
N651 H655 0.985 . S
H652 N647 0.987 . S
H653 N647 0.985 . S
H654 N651 0.984 . S
H655 N651 0.985 . S
H656 N650 0.984 . S
H657 N650 0.984 . S
H658 N646 0.984 . S
H659 N646 0.985 . S
C660 C661 1.363 . S
C660 C666 1.379 . S
C660 N668 1.356 . S
C661 C660 1.363 . S
C661 C667 1.363 . S
C662 C663 1.363 . S
C662 C667 1.379 . S
C662 N669 1.356 . S
C663 C662 1.363 . S
C663 C666 1.363 . S
N664 C666 1.356 . S
N664 H676 0.984 . S
N664 H677 0.985 . S
N665 C667 1.356 . S
N665 H670 0.984 . S
N665 H671 0.985 . S
C666 C660 1.379 . S
C666 C663 1.363 . S
C666 N664 1.356 . S
C667 C661 1.363 . S
C667 C662 1.379 . S
C667 N665 1.356 . S
N668 C660 1.356 . S
N668 H674 0.984 . S
N668 H675 0.984 . S
N669 C662 1.356 . S
N669 H672 0.984 . S
N669 H673 0.985 . S
H670 N665 0.984 . S
H671 N665 0.985 . S
H672 N669 0.984 . S
H673 N669 0.985 . S
H674 N668 0.984 . S
H675 N668 0.984 . S
H676 N664 0.984 . S
H677 N664 0.985 . S
C678 C679 1.363 . S
C678 C684 1.379 . S
C678 N686 1.356 . S
C679 C678 1.363 . S
C679 C685 1.363 . S
C680 C681 1.363 . S
C680 C685 1.379 . S
C680 N687 1.356 . S
C681 C680 1.363 . S
C681 C684 1.363 . S
N682 C684 1.356 . S
N682 H694 0.984 . S
N682 H695 0.985 . S
N683 C685 1.356 . S
N683 H688 0.984 . S
N683 H689 0.985 . S
C684 C678 1.379 . S
C684 C681 1.363 . S
C684 N682 1.356 . S
C685 C679 1.363 . S
C685 C680 1.379 . S
C685 N683 1.356 . S
N686 C678 1.356 . S
N686 H692 0.984 . S
N686 H693 0.984 . S
N687 C680 1.356 . S
N687 H690 0.984 . S
N687 H691 0.985 . S
H688 N683 0.984 . S
H689 N683 0.985 . S
H690 N687 0.984 . S
H691 N687 0.985 . S
H692 N686 0.984 . S
H693 N686 0.984 . S
H694 N682 0.984 . S
H695 N682 0.985 . S
C696 C697 1.363 1_556 S
C696 C702 1.379 . S
C696 N704 1.356 . S
C697 C696 1.363 1_554 S
C697 C703 1.363 . S
C698 C699 1.363 . S
C698 C703 1.379 . S
C698 N705 1.356 . S
C699 C698 1.363 . S
C699 C702 1.363 1_554 S
N700 C702 1.356 . S
N700 H712 0.984 . S
N700 H713 0.985 . S
N701 C703 1.356 1_655 S
N701 H706 0.984 . S
N701 H707 0.985 . S
C702 C696 1.379 . S
C702 C699 1.363 1_556 S
C702 N700 1.356 . S
C703 C697 1.363 . S
C703 C698 1.379 . S
C703 N701 1.356 1_455 S
N704 C696 1.356 . S
N704 H710 0.984 . S
N704 H711 0.984 1_455 S
N705 C698 1.356 . S
N705 H708 0.984 . S
N705 H709 0.985 . S
H706 N701 0.984 . S
H707 N701 0.985 . S
H708 N705 0.984 . S
H709 N705 0.985 . S
H710 N704 0.984 . S
H711 N704 0.984 1_655 S
H712 N700 0.984 . S
H713 N700 0.985 . S
C714 C715 1.363 1_556 S
C714 C720 1.379 . S
C714 N722 1.356 . S
C715 C714 1.363 1_554 S
C715 C721 1.365 . S
C716 C717 1.363 . S
C716 C721 1.410 . S
C716 N723 1.356 . S
C717 C716 1.363 . S
C717 C720 1.363 1_554 S
N718 C720 1.356 . S
N718 H730 0.984 . S
N718 H731 0.985 . S
N719 C721 1.320 1_565 S
N719 H724 0.984 . S
N719 H725 0.985 . S
C720 C714 1.379 . S
C720 C717 1.363 1_556 S
C720 N718 1.356 . S
C721 C715 1.365 . S
C721 C716 1.410 . S
C721 N719 1.320 1_545 S
N722 C714 1.356 . S
N722 H728 0.984 . S
N722 H729 1.006 . S
N723 C716 1.356 . S
N723 H726 0.984 . S
N723 H727 0.985 . S
H724 N719 0.984 . S
H725 N719 0.985 . S
H726 N723 0.984 . S
H727 N723 0.985 . S
H728 N722 0.984 . S
H729 N722 1.006 . S
H730 N718 0.984 . S
H731 N718 0.985 . S
C732 C733 1.363 1_556 S
C732 C738 1.379 . S
C732 N740 1.356 . S
C733 C732 1.363 1_554 S
C733 C739 1.363 . S
C734 C735 1.363 . S
C734 C739 1.379 . S
C734 N741 1.356 . S
C735 C734 1.363 . S
C735 C738 1.363 1_554 S
N736 C738 1.356 . S
N736 H748 0.984 . S
N736 H749 0.985 . S
N737 C739 1.356 . S
N737 H742 0.984 . S
N737 H743 0.985 . S
C738 C732 1.379 . S
C738 C735 1.363 1_556 S
C738 N736 1.356 . S
C739 C733 1.363 . S
C739 C734 1.379 . S
C739 N737 1.356 . S
N740 C732 1.356 . S
N740 H746 0.984 . S
N740 H747 0.984 . S
N741 C734 1.356 . S
N741 H744 0.984 . S
N741 H745 0.985 . S
H742 N737 0.984 . S
H743 N737 0.985 . S
H744 N741 0.984 . S
H745 N741 0.985 . S
H746 N740 0.984 . S
H747 N740 0.984 . S
H748 N736 0.984 . S
H749 N736 0.985 . S
C750 C751 1.363 . S
C750 C756 1.379 . S
C750 N758 1.356 . S
C751 C750 1.363 . S
C751 C757 1.363 1_554 S
C752 C753 1.363 1_556 S
C752 C757 1.379 . S
C752 N759 1.356 . S
C753 C752 1.363 1_554 S
C753 C756 1.363 . S
N754 C756 1.356 . S
N754 H766 0.984 . S
N754 H767 0.985 . S
N755 C757 1.356 . S
N755 H760 0.984 . S
N755 H761 0.985 . S
C756 C750 1.379 . S
C756 C753 1.363 . S
C756 N754 1.356 . S
C757 C751 1.363 1_556 S
C757 C752 1.379 . S
C757 N755 1.356 . S
N758 C750 1.356 . S
N758 H764 0.984 . S
N758 H765 0.984 . S
N759 C752 1.356 . S
N759 H762 0.984 . S
N759 H763 0.985 . S
H760 N755 0.984 . S
H761 N755 0.985 . S
H762 N759 0.984 . S
H763 N759 0.985 . S
H764 N758 0.984 . S
H765 N758 0.984 . S
H766 N754 0.984 . S
H767 N754 0.985 . S
C768 C769 1.363 1_655 S
C768 C774 1.379 . S
C768 N776 1.356 . S
C769 C768 1.363 1_455 S
C769 C775 1.363 . S
C770 C771 1.363 . S
C770 C775 1.379 . S
C770 N777 1.356 . S
C771 C770 1.363 . S
C771 C774 1.363 1_455 S
N772 C774 1.356 . S
N772 H784 0.984 . S
N772 H785 0.985 . S
N773 C775 1.356 . S
N773 H778 0.984 . S
N773 H779 0.985 . S
C774 C768 1.379 . S
C774 C771 1.363 1_655 S
C774 N772 1.356 . S
C775 C769 1.363 . S
C775 C770 1.379 . S
C775 N773 1.356 . S
N776 C768 1.356 . S
N776 H782 0.984 . S
N776 H783 0.984 . S
N777 C770 1.356 . S
N777 H780 0.984 . S
N777 H781 0.985 . S
H778 N773 0.984 . S
H779 N773 0.985 . S
H780 N777 0.984 . S
H781 N777 0.985 . S
H782 N776 0.984 . S
H783 N776 0.984 . S
H784 N772 0.984 . S
H785 N772 0.985 . S
C786 C787 1.363 1_565 S
C786 C792 1.379 . S
C786 N794 1.356 . S
C787 C786 1.363 1_545 S
C787 C793 1.363 . S
C788 C789 1.363 . S
C788 C793 1.379 . S
C788 N795 1.356 . S
C789 C788 1.363 . S
C789 C792 1.363 1_545 S
N790 C792 1.356 . S
N790 H802 0.984 . S
N790 H803 0.985 . S
N791 C793 1.356 . S
N791 H796 0.984 . S
N791 H797 0.985 . S
C792 C786 1.379 . S
C792 C789 1.363 1_565 S
C792 N790 1.356 . S
C793 C787 1.363 . S
C793 C788 1.379 . S
C793 N791 1.356 . S
N794 C786 1.356 . S
N794 H800 0.984 . S
N794 H801 0.984 . S
N795 C788 1.356 . S
N795 H798 0.984 . S
N795 H799 0.985 . S
H796 N791 0.984 . S
H797 N791 0.985 . S
H798 N795 0.984 . S
H799 N795 0.985 . S
H800 N794 0.984 . S
H801 N794 0.984 . S
H802 N790 0.984 . S
H803 N790 0.985 . S
C804 C805 1.363 . S
C804 C810 1.379 . S
C804 N812 1.356 . S
C805 C804 1.363 . S
C805 C811 1.363 . S
C806 C807 1.363 . S
C806 C811 1.379 . S
C806 N813 1.356 . S
C807 C806 1.363 . S
C807 C810 1.363 . S
N808 C810 1.356 . S
N808 H820 0.984 . S
N808 H821 0.985 . S
N809 C811 1.356 . S
N809 H814 0.984 . S
N809 H815 0.985 . S
C810 C804 1.379 . S
C810 C807 1.363 . S
C810 N808 1.356 . S
C811 C805 1.363 . S
C811 C806 1.379 . S
C811 N809 1.356 . S
N812 C804 1.356 . S
N812 H818 0.984 . S
N812 H819 0.984 . S
N813 C806 1.356 . S
N813 H816 0.984 . S
N813 H817 0.985 . S
H814 N809 0.984 . S
H815 N809 0.985 . S
H816 N813 0.984 . S
H817 N813 0.985 . S
H818 N812 0.984 . S
H819 N812 0.984 . S
H820 N808 0.984 . S
H821 N808 0.985 . S
C822 C823 1.363 . S
C822 C828 1.379 . S
C822 N830 1.356 . S
C823 C822 1.363 . S
C823 C829 1.363 . S
C824 C825 1.363 . S
C824 C829 1.379 . S
C824 N831 1.356 . S
C825 C824 1.363 . S
C825 C828 1.363 . S
N826 C828 1.356 . S
N826 H838 0.984 . S
N826 H839 0.985 . S
N827 C829 1.356 . S
N827 H832 0.984 . S
N827 H833 0.985 . S
C828 C822 1.379 . S
C828 C825 1.363 . S
C828 N826 1.356 . S
C829 C823 1.363 . S
C829 C824 1.379 . S
C829 N827 1.356 . S
N830 C822 1.356 . S
N830 H836 0.984 . S
N830 H837 0.984 . S
N831 C824 1.356 . S
N831 H834 0.984 . S
N831 H835 0.985 . S
H832 N827 0.984 . S
H833 N827 0.985 . S
H834 N831 0.984 . S
H835 N831 0.985 . S
H836 N830 0.984 . S
H837 N830 0.984 . S
H838 N826 0.984 . S
H839 N826 0.985 . S
C840 C841 1.363 . S
C840 C846 1.379 . S
C840 N848 1.356 . S
C841 C840 1.363 . S
C841 C847 1.363 1_655 S
C842 C843 1.363 1_455 S
C842 C847 1.379 . S
C842 N849 1.356 . S
C843 C842 1.363 1_655 S
C843 C846 1.363 . S
N844 C846 1.356 . S
N844 H856 0.984 . S
N844 H857 0.985 . S
N845 C847 1.356 . S
N845 H850 0.984 . S
N845 H851 0.985 . S
C846 C840 1.379 . S
C846 C843 1.363 . S
C846 N844 1.356 . S
C847 C841 1.363 1_455 S
C847 C842 1.379 . S
C847 N845 1.356 . S
N848 C840 1.356 . S
N848 H854 0.984 . S
N848 H855 0.984 . S
N849 C842 1.356 . S
N849 H852 0.984 . S
N849 H853 0.985 . S
H850 N845 0.984 . S
H851 N845 0.985 . S
H852 N849 0.984 . S
H853 N849 0.985 . S
H854 N848 0.984 . S
H855 N848 0.984 . S
H856 N844 0.984 . S
H857 N844 0.985 . S
C858 C859 1.363 1_545 S
C858 C864 1.379 . S
C858 N866 1.356 . S
C859 C858 1.363 1_565 S
C859 C865 1.363 . S
C860 C861 1.363 . S
C860 C865 1.379 . S
C860 N867 1.356 . S
C861 C860 1.363 . S
C861 C864 1.363 1_565 S
N862 C864 1.356 . S
N862 H874 0.984 . S
N862 H875 0.985 . S
N863 C865 1.356 . S
N863 H868 0.984 . S
N863 H869 0.985 . S
C864 C858 1.379 . S
C864 C861 1.363 1_545 S
C864 N862 1.356 . S
C865 C859 1.363 . S
C865 C860 1.379 . S
C865 N863 1.356 . S
N866 C858 1.356 . S
N866 H872 0.984 . S
N866 H873 0.984 . S
N867 C860 1.356 . S
N867 H870 0.984 . S
N867 H871 0.985 . S
H868 N863 0.984 . S
H869 N863 0.985 . S
H870 N867 0.984 . S
H871 N867 0.985 . S
H872 N866 0.984 . S
H873 N866 0.984 . S
H874 N862 0.984 . S
H875 N862 0.985 . S
C876 C877 1.363 . S
C876 C882 1.379 . S
C876 N884 1.356 . S
C877 C876 1.363 . S
C877 C883 1.363 . S
C878 C879 1.363 . S
C878 C883 1.379 . S
C878 N885 1.356 . S
C879 C878 1.363 . S
C879 C882 1.363 . S
N880 C882 1.356 . S
N880 H892 0.984 . S
N880 H893 0.985 . S
N881 C883 1.356 . S
N881 H886 0.984 . S
N881 H887 0.985 . S
C882 C876 1.379 . S
C882 C879 1.363 . S
C882 N880 1.356 . S
C883 C877 1.363 . S
C883 C878 1.379 . S
C883 N881 1.356 . S
N884 C876 1.356 . S
N884 H890 0.984 . S
N884 H891 0.984 . S
N885 C878 1.356 . S
N885 H888 0.984 . S
N885 H889 0.985 . S
H886 N881 0.984 . S
H887 N881 0.985 . S
H888 N885 0.984 . S
H889 N885 0.985 . S
H890 N884 0.984 . S
H891 N884 0.984 . S
H892 N880 0.984 . S
H893 N880 0.985 . S
C894 C895 1.363 . S
C894 C900 1.379 . S
C894 N902 1.356 . S
C895 C894 1.363 . S
C895 C901 1.363 . S
C896 C897 1.363 . S
C896 C901 1.379 . S
C896 N903 1.356 . S
C897 C896 1.363 . S
C897 C900 1.363 . S
N898 C900 1.356 . S
N898 H910 0.984 . S
N898 H911 0.985 . S
N899 C901 1.356 . S
N899 H904 0.984 . S
N899 H905 0.985 . S
C900 C894 1.379 . S
C900 C897 1.363 . S
C900 N898 1.356 . S
C901 C895 1.363 . S
C901 C896 1.379 . S
C901 N899 1.356 . S
N902 C894 1.356 . S
N902 H908 0.984 . S
N902 H909 0.984 . S
N903 C896 1.356 . S
N903 H906 0.984 . S
N903 H907 0.985 . S
H904 N899 0.984 . S
H905 N899 0.985 . S
H906 N903 0.984 . S
H907 N903 0.985 . S
H908 N902 0.984 . S
H909 N902 0.984 . S
H910 N898 0.984 . S
H911 N898 0.985 . S
C481 C255 2.632 . S
C483 C330 2.965 1_545 S
C501 C370 2.976 . S
C499 C295 2.642 . S
C519 C410 2.978 . S
C517 C175 2.647 . S
C537 C450 2.967 1_455 S
C535 C215 2.635 . S
C555 C339 2.965 1_565 S
C553 C95 2.634 1_565 S
C571 C135 2.645 . S
C573 C379 2.977 . S
C589 C15 2.647 . S
C591 C419 2.977 . S
C607 C55 2.635 1_655 S
C609 C459 2.967 1_655 S
C627 C336 0.809 . S
C625 C221 0.823 1_655 S
C645 C376 0.808 . S
C643 C261 0.824 1_565 S
C663 C416 0.790 . S
C661 C301 0.801 . S
C679 C181 0.802 . S
C681 C456 0.786 . S
C697 C61 0.792 . S
C699 C327 0.812 . S
C717 C367 0.808 . S
C715 C101 0.790 . S
C735 C407 0.790 . S
C733 C141 0.779 . S
C751 C21 0.780 . S
C753 C447 0.795 . S
C769 C202 3.618 . S
C771 C331 4.096 . S
C787 C242 3.602 . S
C789 C371 4.085 . S
C807 C411 4.082 . S
C805 C282 3.594 . S
C825 C451 4.097 . S
C823 C162 3.606 . S
C841 C42 3.642 1_655 S
C843 C322 4.104 . S
C861 C362 4.085 . S
C859 C82 3.626 1_565 S
C879 C402 4.082 . S
C877 C122 3.628 . S
C895 C2 3.643 . S
C897 C442 4.102 . S
