# Generated by pormake.
# Topology zzz, (3,6)-cn, num edge types: 1
# Building blocks:
#     Node 0, Type 0, BuildingBlock: WUSLED_clean_sbu_0, # of connection points: 3
#     Node 1, Type 0, BuildingBlock: WUSLED_clean_sbu_0, # of connection points: 3
#     Node 2, Type 0, BuildingBlock: WUSLED_clean_sbu_0, # of connection points: 3
#     Node 3, Type 0, BuildingBlock: WUSLED_clean_sbu_0, # of connection points: 3
#     Node 4, Type 0, BuildingBlock: WUSLED_clean_sbu_0, # of connection points: 3
#     Node 5, Type 0, BuildingBlock: WUSLED_clean_sbu_0, # of connection points: 3
#     Node 6, Type 0, BuildingBlock: WUSLED_clean_sbu_0, # of connection points: 3
#     Node 7, Type 0, BuildingBlock: WUSLED_clean_sbu_0, # of connection points: 3
#     Node 8, Type 1, BuildingBlock: LEVNOQ01_clean_sbu_1, # of connection points: 6
#     Node 9, Type 1, BuildingBlock: LEVNOQ01_clean_sbu_1, # of connection points: 6
#     Node 10, Type 1, BuildingBlock: LEVNOQ01_clean_sbu_1, # of connection points: 6
#     Node 11, Type 1, BuildingBlock: LEVNOQ01_clean_sbu_1, # of connection points: 6
#     Edge 12, Type (0, 1), BuildingBlock: KIFKEQ_clean_linker_1, # of connection points: 2
#     Edge 13, Type (0, 1), BuildingBlock: KIFKEQ_clean_linker_1, # of connection points: 2
#     Edge 14, Type (0, 1), BuildingBlock: KIFKEQ_clean_linker_1, # of connection points: 2
#     Edge 15, Type (0, 1), BuildingBlock: KIFKEQ_clean_linker_1, # of connection points: 2
#     Edge 16, Type (0, 1), BuildingBlock: KIFKEQ_clean_linker_1, # of connection points: 2
#     Edge 17, Type (0, 1), BuildingBlock: KIFKEQ_clean_linker_1, # of connection points: 2
#     Edge 18, Type (0, 1), BuildingBlock: KIFKEQ_clean_linker_1, # of connection points: 2
#     Edge 19, Type (0, 1), BuildingBlock: KIFKEQ_clean_linker_1, # of connection points: 2
#     Edge 20, Type (0, 1), BuildingBlock: KIFKEQ_clean_linker_1, # of connection points: 2
#     Edge 21, Type (0, 1), BuildingBlock: KIFKEQ_clean_linker_1, # of connection points: 2
#     Edge 22, Type (0, 1), BuildingBlock: KIFKEQ_clean_linker_1, # of connection points: 2
#     Edge 23, Type (0, 1), BuildingBlock: KIFKEQ_clean_linker_1, # of connection points: 2
#     Edge 24, Type (0, 1), BuildingBlock: KIFKEQ_clean_linker_1, # of connection points: 2
#     Edge 25, Type (0, 1), BuildingBlock: KIFKEQ_clean_linker_1, # of connection points: 2
#     Edge 26, Type (0, 1), BuildingBlock: KIFKEQ_clean_linker_1, # of connection points: 2
#     Edge 27, Type (0, 1), BuildingBlock: KIFKEQ_clean_linker_1, # of connection points: 2
#     Edge 28, Type (0, 1), BuildingBlock: KIFKEQ_clean_linker_1, # of connection points: 2
#     Edge 29, Type (0, 1), BuildingBlock: KIFKEQ_clean_linker_1, # of connection points: 2
#     Edge 30, Type (0, 1), BuildingBlock: KIFKEQ_clean_linker_1, # of connection points: 2
#     Edge 31, Type (0, 1), BuildingBlock: KIFKEQ_clean_linker_1, # of connection points: 2
#     Edge 32, Type (0, 1), BuildingBlock: KIFKEQ_clean_linker_1, # of connection points: 2
#     Edge 33, Type (0, 1), BuildingBlock: KIFKEQ_clean_linker_1, # of connection points: 2
#     Edge 34, Type (0, 1), BuildingBlock: KIFKEQ_clean_linker_1, # of connection points: 2
#     Edge 35, Type (0, 1), BuildingBlock: KIFKEQ_clean_linker_1, # of connection points: 2
# Relax obj value: 0.289
# Max RMSD: 0.214
# Mean RMSD: 0.200
data_MOF--net-zzz--node1-WUSLED_clean_sbu_0--node2-LEVNOQ01_clean_sbu_1--edge1-KIFKEQ_clean_linker_1
_symmetry_space_group_name_H-M    P1
_symmetry_Int_Tables_number       1
_symmetry_cell_setting            triclinic
loop_
_symmetry_equiv_pos_as_xyz
'x, y, z'
_cell_length_a     59.177557
_cell_length_b     62.880388
_cell_length_c     22.818289
_cell_angle_alpha  89.95057
_cell_angle_beta   89.978788
_cell_angle_gamma 88.319498
loop_
_atom_site_label
_atom_site_type_symbol
_atom_site_fract_x
_atom_site_fract_y
_atom_site_fract_z
_atom_type_partial_charge
C0 C 0.80996 0.58668 0.29241 0.0
C1 C 0.82969 0.57817 0.2657 0.0
C2 C 0.84943 0.57839 0.35972 0.0
C3 C 0.84937 0.57421 0.29912 0.0
C4 C 0.83008 0.588 0.3852 0.0
C5 C 0.81065 0.59215 0.35192 0.0
U6 U 0.76401 0.59568 0.16792 0.0
O7 O 0.72867 0.60738 0.17869 0.0
O8 O 0.73604 0.57401 0.15606 0.0
C9 C 0.72042 0.58906 0.16283 0.0
C10 C 0.78759 0.58716 0.26325 0.0
C11 C 0.70268 0.58968 0.11739 0.0
C12 C 0.66288 0.58746 0.09245 0.0
C13 C 0.67994 0.58958 0.13434 0.0
C14 C 0.69109 0.58622 0.01558 0.0
C15 C 0.66823 0.58527 0.03256 0.0
C16 C 0.70815 0.58842 0.05757 0.0
C17 C 0.80765 0.61192 0.05441 0.0
C18 C 0.83339 0.61591 0.973 0.0
C19 C 0.84732 0.60249 0.06631 0.0
C20 C 0.82569 0.60501 0.09003 0.0
C21 C 0.85114 0.6069 0.00669 0.0
C22 C 0.81173 0.61825 0.99666 0.0
C23 C 0.78438 0.60895 0.07324 0.0
O24 O 0.77766 0.60581 0.2533 0.0
O25 O 0.78412 0.57314 0.22175 0.0
O26 O 0.77639 0.62199 0.11375 0.0
O27 O 0.77954 0.58898 0.0827 0.0
H28 H 0.8296 0.57368 0.2199 0.0
H29 H 0.86404 0.56675 0.27842 0.0
H30 H 0.82969 0.59155 0.43166 0.0
H31 H 0.79567 0.5986 0.3736 0.0
H32 H 0.6455 0.58719 0.10719 0.0
H33 H 0.67539 0.59053 0.18029 0.0
H34 H 0.69596 0.58436 0.97008 0.0
H35 H 0.72564 0.5884 0.04353 0.0
H36 H 0.83592 0.61987 0.9273 0.0
H37 H 0.86053 0.5954 0.09346 0.0
H38 H 0.8227 0.60005 0.13477 0.0
H39 H 0.79791 0.62365 0.96872 0.0
C40 C 1.00683 0.79053 0.35118 0.0
C41 C 0.01324 0.80942 0.3237 0.0
C42 C 1.00703 0.82924 0.41421 0.0
C43 C 0.0134 0.82853 0.35484 0.0
C44 C 1.0009 0.81018 0.44184 0.0
C45 C 1.00078 0.791 0.41053 0.0
U46 U 1.00201 0.76725 0.20263 0.0
O47 O 0.01972 0.7402 0.15917 0.0
O48 O 0.98207 0.74187 0.16272 0.0
C49 C 1.0005 0.73157 0.14488 0.0
C50 C 1.00524 0.77085 0.31649 0.0
C51 C 0.99967 0.71138 0.11225 0.0
C52 C 0.01725 0.67737 0.0854 0.0
C53 C 0.0166 0.69561 0.12041 0.0
C54 C 0.9838 0.69023 0.03388 0.0
C55 C 1.00123 0.67468 0.04055 0.0
C56 C 0.98298 0.70835 0.0696 0.0
C57 C 0.99997 0.81163 0.0845 0.0
C58 C 0.01699 0.81663 0.98887 0.0
C59 C 0.98708 0.8408 0.02262 0.0
C60 C 0.98535 0.82912 0.07414 0.0
C61 C 1.00366 0.83526 0.98082 0.0
C62 C 0.01512 0.80481 0.04045 0.0
C63 C 1.00117 0.80309 0.14428 0.0
O64 O 0.98581 0.76861 0.2896 0.0
O65 O 0.02276 0.76656 0.28259 0.0
O66 O 0.01999 0.79288 0.15936 0.0
O67 O 0.98282 0.7944 0.16452 0.0
H68 H 0.01775 0.80948 0.27769 0.0
H69 H 0.01791 0.84287 0.33182 0.0
H70 H 0.99617 0.81008 0.48768 0.0
H71 H 0.99569 0.77662 0.43243 0.0
H72 H 0.03063 0.66556 0.09278 0.0
H73 H 0.02958 0.69754 0.15331 0.0
H74 H 0.97134 0.68888 0.99943 0.0
H75 H 0.96986 0.72044 0.06216 0.0
H76 H 0.02985 0.81206 0.95712 0.0
H77 H 0.97683 0.85528 0.01813 0.0
H78 H 0.97364 0.83467 0.10773 0.0
H79 H 0.02647 0.79121 0.04735 0.0
C80 C 0.71812 0.93576 0.31598 0.0
C81 C 0.6964 0.93752 0.29106 0.0
C82 C 0.67936 0.94303 0.38738 0.0
C83 C 0.6773 0.94118 0.32621 0.0
C84 C 0.70109 0.94068 0.41243 0.0
C85 C 0.72027 0.93712 0.37704 0.0
U86 U 0.74014 0.91836 0.17039 0.0
O87 O 0.75938 0.93482 0.10225 0.0
O88 O 0.77147 0.9034 0.13457 0.0
C89 C 0.77427 0.91901 0.09703 0.0
C90 C 0.73826 0.93301 0.27769 0.0
C91 C 0.79717 0.92372 0.0762 0.0
C92 C 0.83505 0.93713 0.0883 0.0
C93 C 0.81399 0.93194 0.11228 0.0
C94 C 0.82261 0.92559 0.99273 0.0
C95 C 0.83955 0.93421 0.02793 0.0
C96 C 0.80177 0.9204 0.01662 0.0
C97 C 0.6924 0.89902 0.07211 0.0
C98 C 0.68981 0.90898 0.96973 0.0
C99 C 0.6569 0.89628 0.02069 0.0
C100 C 0.66991 0.89279 0.07086 0.0
C101 C 0.6663 0.90622 0.97152 0.0
C102 C 0.70282 0.90552 0.02009 0.0
C103 C 0.70193 0.90468 0.12893 0.0
O104 O 0.74461 0.91324 0.26565 0.0
O105 O 0.73804 0.94539 0.23124 0.0
O106 O 0.70672 0.92485 0.13322 0.0
O107 O 0.71745 0.89182 0.15181 0.0
H108 H 0.6942 0.93632 0.24409 0.0
H109 H 0.66088 0.94254 0.30536 0.0
H110 H 0.70338 0.94215 0.45931 0.0
H111 H 0.7368 0.93575 0.3973 0.0
H112 H 0.84772 0.94357 0.11694 0.0
H113 H 0.81075 0.9346 0.15845 0.0
H114 H 0.82505 0.92353 0.94603 0.0
H115 H 0.78894 0.91417 0.98797 0.0
H116 H 0.69756 0.91623 0.93192 0.0
H117 H 0.63888 0.89389 0.02357 0.0
H118 H 0.66166 0.88771 0.11069 0.0
H119 H 0.72026 0.91032 0.02032 0.0
C120 C 0.50166 0.73054 0.36039 0.0
C121 C 0.4966 0.71122 0.33323 0.0
C122 C 0.50365 0.69187 0.42401 0.0
C123 C 0.49762 0.69214 0.3645 0.0
C124 C 0.50822 0.71132 0.45175 0.0
C125 C 0.5074 0.73051 0.42001 0.0
U126 U 0.50164 0.74991 0.20958 0.0
O127 O 0.48688 0.77649 0.15849 0.0
O128 O 0.52392 0.77036 0.15773 0.0
C129 C 0.50665 0.78172 0.13722 0.0
C130 C 0.50274 0.74991 0.32391 0.0
C131 C 0.50988 0.80354 0.11565 0.0
C132 C 0.49583 0.83984 0.1 0.0
C133 C 0.49519 0.82058 0.13091 0.0
C134 C 0.52637 0.82551 0.03997 0.0
C135 C 0.51096 0.84231 0.05284 0.0
C136 C 0.52583 0.8064 0.07107 0.0
C137 C 0.49813 0.70242 0.10437 0.0
C138 C 0.48269 0.69652 0.00731 0.0
C139 C 0.51402 0.67445 0.04327 0.0
C140 C 0.51397 0.68583 0.09523 0.0
C141 C 0.49811 0.67933 0.99922 0.0
C142 C 0.48274 0.70809 0.05966 0.0
C143 C 0.49755 0.71237 0.16239 0.0
O144 O 0.52112 0.75069 0.29169 0.0
O145 O 0.4842 0.75472 0.29418 0.0
O146 O 0.48005 0.72488 0.17527 0.0
O147 O 0.51692 0.71963 0.18036 0.0
H148 H 0.49218 0.71081 0.28728 0.0
H149 H 0.49357 0.67757 0.34202 0.0
H150 H 0.51296 0.71163 0.49757 0.0
H151 H 0.51159 0.7452 0.44168 0.0
H152 H 0.48395 0.85254 0.11178 0.0
H153 H 0.48262 0.81873 0.1649 0.0
H154 H 0.538 0.82658 0.00351 0.0
H155 H 0.53706 0.79335 0.0578 0.0
H156 H 0.47023 0.70054 0.97405 0.0
H157 H 0.52572 0.66095 0.03926 0.0
H158 H 0.52585 0.68113 0.12933 0.0
H159 H 0.47039 0.72095 0.06573 0.0
C160 C 0.22256 0.42879 0.12228 0.0
C161 C 0.2026 0.41766 0.13158 0.0
C162 C 0.18393 0.43688 0.05122 0.0
C163 C 0.18353 0.4216 0.09633 0.0
C164 C 0.20413 0.44774 0.04166 0.0
C165 C 0.22319 0.44374 0.07683 0.0
U166 U 0.24129 0.41223 0.27166 0.0
O167 O 0.27216 0.39834 0.31226 0.0
O168 O 0.25844 0.42957 0.34194 0.0
C169 C 0.27369 0.4142 0.34954 0.0
C170 C 0.24154 0.42673 0.1642 0.0
C171 C 0.29597 0.41952 0.37291 0.0
C172 C 0.33492 0.43049 0.3637 0.0
C173 C 0.31402 0.42594 0.3378 0.0
C174 C 0.31965 0.42218 0.45925 0.0
C175 C 0.33799 0.4285 0.42484 0.0
C176 C 0.29898 0.41773 0.43357 0.0
C177 C 0.19346 0.39188 0.3658 0.0
C178 C 0.19119 0.40168 0.46834 0.0
C179 C 0.15817 0.389 0.41791 0.0
C180 C 0.17101 0.38565 0.36743 0.0
C181 C 0.16771 0.39875 0.46722 0.0
C182 C 0.20402 0.39839 0.41759 0.0
C183 C 0.20301 0.39735 0.30886 0.0
O184 O 0.23929 0.43915 0.21021 0.0
O185 O 0.24837 0.40719 0.17768 0.0
O186 O 0.21936 0.38496 0.28802 0.0
O187 O 0.20686 0.4177 0.30344 0.0
H188 H 0.20158 0.40626 0.16706 0.0
H189 H 0.16844 0.41274 0.10471 0.0
H190 H 0.20503 0.45989 0.00817 0.0
H191 H 0.23823 0.4528 0.06963 0.0
H192 H 0.34869 0.43533 0.33593 0.0
H193 H 0.31197 0.4274 0.29079 0.0
H194 H 0.3211 0.42099 0.50646 0.0
H195 H 0.2852 0.41288 0.46141 0.0
H196 H 0.19912 0.40869 0.5062 0.0
H197 H 0.14018 0.38647 0.41528 0.0
H198 H 0.16266 0.38059 0.32776 0.0
H199 H 0.22146 0.40319 0.41701 0.0
C200 C 0.02223 0.22343 0.09573 0.0
C201 C 0.02232 0.20408 0.12651 0.0
C202 C 0.02294 0.18431 0.03447 0.0
C203 C 0.02265 0.1847 0.09619 0.0
C204 C 0.02266 0.20384 0.00403 0.0
C205 C 0.02235 0.22317 0.03439 0.0
U206 U 0.02448 0.25406 0.23855 0.0
O207 O 0.04145 0.28378 0.26083 0.0
O208 O 1.00448 0.28211 0.26771 0.0
C209 C 0.02242 0.29363 0.27597 0.0
C210 C 0.02198 0.24391 0.12716 0.0
C211 C 0.02286 0.30723 0.32892 0.0
C212 C 0.035 0.34022 0.37343 0.0
C213 C 0.03642 0.32517 0.32832 0.0
C214 C 1.00699 0.31922 0.42216 0.0
C215 C 0.01992 0.33772 0.42045 0.0
C216 C 1.00839 0.30417 0.37685 0.0
C217 C 0.02965 0.21363 0.3716 0.0
C218 C 1.0087 0.20319 0.45792 0.0
C219 C 0.0425 0.18319 0.42914 0.0
C220 C 0.04571 0.19733 0.38301 0.0
C221 C 0.0231 0.18514 0.46449 0.0
C222 C 0.01191 0.21734 0.41156 0.0
C223 C 0.02855 0.22208 0.31156 0.0
O224 O 1.00413 0.24774 0.16014 0.0
O225 O 0.04101 0.24861 0.15313 0.0
O226 O 0.04615 0.23171 0.29004 0.0
O227 O 1.00896 0.22993 0.29315 0.0
H228 H 0.02223 0.20397 0.174 0.0
H229 H 0.02305 0.17004 0.12114 0.0
H230 H 0.02243 0.20422 0.9566 0.0
H231 H 0.02215 0.23794 0.0099 0.0
H232 H 0.04505 0.35428 0.36998 0.0
H233 H 0.04756 0.328 0.2916 0.0
H234 H 0.9955 0.31649 0.45816 0.0
H235 H 0.99773 0.29047 0.37861 0.0
H236 H 0.99387 0.20531 0.48536 0.0
H237 H 0.0539 0.16946 0.43278 0.0
H238 H 0.05946 0.19412 0.35259 0.0
H239 H 0.99937 0.22993 0.40398 0.0
C240 C 0.29838 0.09234 0.12652 0.0
C241 C 0.32063 0.09476 0.14659 0.0
C242 C 0.33581 0.08194 0.05321 0.0
C243 C 0.33913 0.0896 0.11041 0.0
C244 C 0.31342 0.08041 0.03261 0.0
C245 C 0.29493 0.08544 0.06899 0.0
U246 U 0.27894 0.10843 0.27611 0.0
O247 O 0.24841 0.12386 0.31514 0.0
O248 O 0.25956 0.09167 0.34293 0.0
C249 C 0.24489 0.10757 0.34989 0.0
C250 C 0.27909 0.0953 0.16723 0.0
C251 C 0.22144 0.10224 0.36434 0.0
C252 C 0.18917 0.07932 0.35718 0.0
C253 C 0.20992 0.08618 0.3353 0.0
C254 C 0.19106 0.10494 0.43602 0.0
C255 C 0.17977 0.08819 0.40893 0.0
C256 C 0.21158 0.11188 0.41383 0.0
C257 C 0.32736 0.12477 0.37541 0.0
C258 C 0.32938 0.11273 0.47616 0.0
C259 C 0.36277 0.1257 0.42792 0.0
C260 C 0.35 0.13044 0.37803 0.0
C261 C 0.35295 0.11503 0.47528 0.0
C262 C 0.3166 0.11753 0.42619 0.0
C263 C 0.31778 0.1204 0.31775 0.0
O264 O 0.27973 0.08229 0.21232 0.0
O265 O 0.27377 0.11508 0.18191 0.0
O266 O 0.30257 0.134 0.29675 0.0
O267 O 0.31245 0.10045 0.31074 0.0
H268 H 0.3237 0.10001 0.19098 0.0
H269 H 0.35601 0.09086 0.12815 0.0
H270 H 0.31013 0.07503 0.98845 0.0
H271 H 0.27794 0.08349 0.05259 0.0
H272 H 0.18084 0.06665 0.33442 0.0
H273 H 0.21729 0.07847 0.2971 0.0
H274 H 0.18476 0.11198 0.47634 0.0
H275 H 0.22035 0.12415 0.43728 0.0
H276 H 0.32136 0.10486 0.51259 0.0
H277 H 0.38087 0.12774 0.42591 0.0
H278 H 0.35851 0.13609 0.33918 0.0
H279 H 0.29903 0.11315 0.42489 0.0
C280 C 0.50899 0.2934 0.08379 0.0
C281 C 0.50745 0.31268 0.11472 0.0
C282 C 0.50857 0.3326 0.02301 0.0
C283 C 0.50723 0.3321 0.08463 0.0
C284 C 0.51029 0.31314 0.99246 0.0
C285 C 0.51044 0.29376 0.02259 0.0
U286 U 0.50596 0.26258 0.22611 0.0
O287 O 0.48782 0.23338 0.24632 0.0
O288 O 0.52479 0.23385 0.25572 0.0
C289 C 0.50637 0.22284 0.26188 0.0
C290 C 0.50889 0.2729 0.11493 0.0
C291 C 0.50481 0.20919 0.31419 0.0
C292 C 0.49609 0.17453 0.3541 0.0
C293 C 0.49664 0.18868 0.30697 0.0
C294 C 0.51159 0.20138 0.41727 0.0
C295 C 0.50372 0.18059 0.40982 0.0
C296 C 0.51211 0.2156 0.36982 0.0
C297 C 0.50099 0.3021 0.3608 0.0
C298 C 0.52124 0.31265 0.44812 0.0
C299 C 0.4861 0.33087 0.42156 0.0
C300 C 0.48389 0.31726 0.37387 0.0
C301 C 0.50556 0.32959 0.45681 0.0
C302 C 0.51901 0.29899 0.40028 0.0
C303 C 0.50243 0.29426 0.30013 0.0
O304 O 0.52664 0.26875 0.14806 0.0
O305 O 0.48973 0.2685 0.14068 0.0
O306 O 0.4847 0.28529 0.27716 0.0
O307 O 0.52191 0.28603 0.28219 0.0
H308 H 0.50629 0.31268 0.16212 0.0
H309 H 0.50567 0.3467 0.10963 0.0
H310 H 0.5118 0.31284 0.94518 0.0
H311 H 0.51172 0.27903 0.99804 0.0
H312 H 0.49031 0.1586 0.34634 0.0
H313 H 0.49106 0.1834 0.26429 0.0
H314 H 0.5174 0.20664 0.45971 0.0
H315 H 0.51845 0.23141 0.37637 0.0
H316 H 0.53622 0.31111 0.47524 0.0
H317 H 0.47378 0.34382 0.42672 0.0
H318 H 0.46993 0.32006 0.34384 0.0
H319 H 0.5324 0.28731 0.39143 0.0
O320 O 0.05318 0.9838 0.8055 0.0
Mg321 Mg 0.04704 0.9882 0.71584 0.0
O322 O 0.01723 0.98287 0.78657 0.0
Mg323 Mg 0.01002 0.00916 0.7161 0.0
O324 O 0.04698 0.01737 0.67535 0.0
O325 O 0.07655 0.99413 0.67817 0.0
O326 O 1.0027 0.03529 0.64457 0.0
O327 O 0.01665 0.03541 0.78664 0.0
Mg328 Mg 0.9732 0.03017 0.71606 0.0
O329 O 0.9733 0.00114 0.75817 0.0
O330 O 0.96657 0.03492 0.62657 0.0
O331 O 0.98815 0.05618 0.75867 0.0
O332 O 0.94419 0.02488 0.7577 0.0
C333 C 0.01478 0.96515 0.64202 0.0
C334 C 0.03402 0.97684 0.81773 0.0
C335 C 0.06797 0.01227 0.66208 0.0
C336 C 0.9859 0.04137 0.61339 0.0
C337 C 1.00586 0.05325 0.78889 0.0
C338 C 0.9528 0.00684 0.77445 0.0
O339 O 0.03281 0.96235 0.67104 0.0
O340 O 1.00349 0.9827 0.64589 0.0
O341 O 0.45134 0.00929 0.75393 0.0
Mg342 Mg 0.4701 0.98703 0.70197 0.0
O343 O 0.48131 0.02395 0.79334 0.0
Mg344 Mg 0.50824 0.0102 0.72545 0.0
O345 O 0.49754 0.97486 0.74602 0.0
O346 O 0.46672 0.95631 0.72528 0.0
O347 O 0.53506 0.99657 0.65726 0.0
O348 O 0.53314 1.00003 0.7995 0.0
Mg349 Mg 0.54831 0.03422 0.74647 0.0
O350 O 0.51923 0.04537 0.70752 0.0
O351 O 0.56572 0.01204 0.69079 0.0
O352 O 0.5487 0.02786 0.83672 0.0
O353 O 0.54922 0.06548 0.72492 0.0
C354 C 0.47249 0.0118 0.60962 0.0
C355 C 0.45983 0.02205 0.79042 0.0
C356 C 0.48635 0.95732 0.74956 0.0
C357 C 0.55652 0.9989 0.65659 0.0
C358 C 0.54542 0.00816 0.83868 0.0
C359 C 0.52919 0.06355 0.70358 0.0
O360 O 0.4702 0.99195 0.61105 0.0
O361 O 0.48359 0.02043 0.65041 0.0
O362 O 0.54293 0.46381 0.74808 0.0
Mg363 Mg 0.55334 0.48936 0.69418 0.0
O364 O 0.51105 0.48044 0.77448 0.0
Mg365 Mg 0.50964 0.50785 0.70526 0.0
O366 O 0.5466 0.51869 0.7305 0.0
O367 O 0.58148 0.5041 0.71989 0.0
O368 O 0.50732 0.53623 0.63779 0.0
O369 O 0.5025 0.53242 0.77684 0.0
Mg370 Mg 0.46518 0.52529 0.72256 0.0
O371 O 0.47269 0.49692 0.68241 0.0
O372 O 0.47444 0.55052 0.66659 0.0
O373 O 0.46864 0.53073 0.81332 0.0
O374 O 0.43733 0.50946 0.69971 0.0
C375 C 0.53267 0.4769 0.59704 0.0
C376 C 0.52505 0.46467 0.77879 0.0
C377 C 0.56844 0.51955 0.73791 0.0
C378 C 0.49215 0.5512 0.63515 0.0
C379 C 0.48807 0.53841 0.81489 0.0
C380 C 0.45086 0.49517 0.67743 0.0
O381 O 0.55209 0.48424 0.60364 0.0
O382 O 0.51702 0.4828 0.63215 0.0
O383 O 0.96687 0.49703 0.83725 0.0
Mg384 Mg 0.96714 0.48696 0.74853 0.0
O385 O 0.98693 0.52137 0.79535 0.0
Mg386 Mg 0.01104 0.50815 0.72489 0.0
O387 O 0.9963 0.47446 0.71251 0.0
O388 O 0.96612 0.45501 0.73011 0.0
O389 O 0.03568 0.49525 0.65525 0.0
O390 O 0.03627 0.4939 0.79573 0.0
Mg391 Mg 0.05595 0.53019 0.70527 0.0
O392 O 0.02582 0.54166 0.73759 0.0
O393 O 0.05696 0.51961 0.61757 0.0
O394 O 0.06888 0.50779 0.76805 0.0
O395 O 0.05539 0.56216 0.72385 0.0
C396 C 0.96423 0.52101 0.65087 0.0
C397 C 0.97358 0.51589 0.83577 0.0
C398 C 0.98621 0.4564 0.70865 0.0
C399 C 0.05029 0.5007 0.6178 0.0
C400 C 0.05776 0.49538 0.80053 0.0
C401 C 0.03507 0.56006 0.74311 0.0
O402 O 0.95349 0.50924 0.68609 0.0
O403 O 0.98583 0.52212 0.65339 0.0
H404 H 0.14542 0.10849 0.47191 0.0
H405 H 0.1687 0.04623 0.41345 0.0
H406 H 0.11657 0.09197 0.53226 0.0
H407 H 0.13932 0.03008 0.47086 0.0
H408 H 0.1128 0.0067 0.64177 0.0
H409 H 0.13678 0.02629 0.57717 0.0
H410 H 0.08104 0.06948 0.53529 0.0
H411 H 0.05655 0.04967 0.60225 0.0
C412 C 0.14425 0.09135 0.47114 0.0
C413 C 0.15973 0.07874 0.43809 0.0
C414 C 0.12751 0.08193 0.50529 0.0
C415 C 0.12587 0.0597 0.50712 0.0
C416 C 0.14039 0.04725 0.4713 0.0
C417 C 0.15711 0.05659 0.43758 0.0
C418 C 0.10542 0.02036 0.61913 0.0
C419 C 0.08248 0.02629 0.62646 0.0
C420 C 0.11926 0.03155 0.58156 0.0
C421 C 0.11072 0.04909 0.54969 0.0
C422 C 0.08806 0.05586 0.55882 0.0
C423 C 0.07402 0.04451 0.59695 0.0
H424 H 0.47207 0.15111 0.43811 0.0
H425 H 0.53695 0.17404 0.49191 0.0
H426 H 0.4745 0.12364 0.51364 0.0
H427 H 0.53946 0.14662 0.56692 0.0
H428 H 0.53383 0.10566 0.72386 0.0
H429 H 0.5246 0.13503 0.6576 0.0
H430 H 0.49495 0.091 0.53638 0.0
H431 H 0.50381 0.06172 0.60429 0.0
C432 C 0.48686 0.15032 0.46607 0.0
C433 C 0.50432 0.16484 0.45883 0.0
C434 C 0.48825 0.13453 0.50938 0.0
C435 C 0.50713 0.13286 0.54666 0.0
C436 C 0.52441 0.14763 0.53997 0.0
C437 C 0.52299 0.16342 0.49681 0.0
C438 C 0.52485 0.10238 0.68365 0.0
C439 C 0.51938 0.08146 0.66916 0.0
C440 C 0.51977 0.11917 0.64531 0.0
C441 C 0.50942 0.11542 0.59095 0.0
C442 C 0.50278 0.09458 0.57797 0.0
C443 C 0.50768 0.07778 0.61687 0.0
H444 H 0.35898 0.40715 0.51522 0.0
H445 H 0.36625 0.4614 0.40114 0.0
H446 H 0.39073 0.41868 0.574 0.0
H447 H 0.3984 0.47267 0.45954 0.0
H448 H 0.46177 0.48406 0.5653 0.0
H449 H 0.43824 0.46388 0.49763 0.0
H450 H 0.39265 0.45041 0.63988 0.0
H451 H 0.41602 0.47053 0.70661 0.0
C452 C 0.36751 0.42142 0.50222 0.0
C453 C 0.35974 0.43358 0.45401 0.0
C454 C 0.38578 0.42795 0.53581 0.0
C455 C 0.39696 0.44667 0.52174 0.0
C456 C 0.39026 0.45806 0.47122 0.0
C457 C 0.37181 0.4516 0.43774 0.0
C458 C 0.44724 0.47597 0.5823 0.0
C459 C 0.44083 0.47852 0.6412 0.0
C460 C 0.4336 0.46473 0.54351 0.0
C461 C 0.41353 0.45564 0.56335 0.0
C462 C 0.40809 0.45701 0.62326 0.0
C463 C 0.42148 0.4685 0.66157 0.0
H464 H 0.05215 0.36327 0.46916 0.0
H465 H 0.98057 0.35152 0.47341 0.0
H466 H 0.04651 0.39189 0.54077 0.0
H467 H 0.97516 0.37962 0.54557 0.0
H468 H 0.97561 0.4148 0.71709 0.0
H469 H 0.98538 0.38607 0.64937 0.0
H470 H 0.0269 0.42846 0.55013 0.0
H471 H 0.01649 0.45752 0.61749 0.0
C472 C 0.03522 0.36674 0.48516 0.0
C473 C 0.01686 0.35482 0.46567 0.0
C474 C 0.03203 0.38315 0.52629 0.0
C475 C 0.01044 0.3879 0.54938 0.0
C476 C 0.99211 0.37608 0.52967 0.0
C477 C 0.99525 0.35985 0.48836 0.0
C478 C 0.98712 0.41795 0.68141 0.0
C479 C 0.99557 0.43839 0.67326 0.0
C480 C 0.99261 0.40149 0.64234 0.0
C481 C 1.00674 0.40499 0.59398 0.0
C482 C 0.0161 0.42518 0.5872 0.0
C483 C 0.01039 0.44178 0.62619 0.0
H484 H 0.8634 0.96973 0.05433 0.0
H485 H 0.86417 0.9156 0.93772 0.0
H486 H 0.89434 0.98475 0.9994 0.0
H487 H 0.89456 0.93125 0.88109 0.0
H488 H 0.95898 0.96438 0.80807 0.0
H489 H 0.93513 0.94438 0.87629 0.0
H490 H 0.89254 0.00055 0.90148 0.0
H491 H 0.91574 0.02012 0.83492 0.0
C492 C 0.87041 0.96077 0.01778 0.0
C493 C 0.8609 0.94157 0.00015 0.0
C494 C 0.88806 0.96952 0.9858 0.0
C495 C 0.89667 0.9594 0.93511 0.0
C496 C 0.88834 0.93947 0.91981 0.0
C497 C 0.87068 0.93066 0.95195 0.0
C498 C 0.94453 0.97236 0.8284 0.0
C499 C 0.93924 0.99384 0.81547 0.0
C500 C 0.93088 0.96094 0.86737 0.0
C501 C 0.91204 0.97095 0.89493 0.0
C502 C 0.90709 0.9924 0.88214 0.0
C503 C 0.92037 0.0036 0.84313 0.0
H504 H 0.47261 0.86381 0.01653 0.0
H505 H 0.54532 0.86349 0.99814 0.0
H506 H 0.46915 0.89181 0.94354 0.0
H507 H 0.54169 0.89104 0.92274 0.0
H508 H 0.52248 0.9556 0.82562 0.0
H509 H 0.52995 0.92888 0.90235 0.0
H510 H 0.47454 0.89237 0.83767 0.0
H511 H 0.46698 0.9189 0.76259 0.0
C512 C 0.48792 0.8699 0.99768 0.0
C513 C 0.50925 0.86123 0.01329 0.0
C514 C 0.48591 0.88577 0.955 0.0
C515 C 0.50513 0.89338 0.92641 0.0
C516 C 0.52655 0.88549 0.94378 0.0
C517 C 0.52859 0.86957 0.98668 0.0
C518 C 0.51215 0.94172 0.82754 0.0
C519 C 0.49395 0.9396 0.7886 0.0
C520 C 0.5164 0.92642 0.87142 0.0
C521 C 0.50244 0.90877 0.87705 0.0
C522 C 0.48518 0.90608 0.83573 0.0
C523 C 0.481 0.92125 0.79218 0.0
H524 H 0.66422 0.59983 0.91901 0.0
H525 H 0.63154 0.56001 0.04598 0.0
H526 H 0.63699 0.58933 0.84489 0.0
H527 H 0.60427 0.54979 0.97223 0.0
H528 H 0.55122 0.54007 0.83509 0.0
H529 H 0.57279 0.56059 0.90621 0.0
H530 H 0.63119 0.55616 0.79277 0.0
H531 H 0.60972 0.53598 0.72236 0.0
C532 C 0.65119 0.58895 0.93132 0.0
C533 C 0.65027 0.58068 0.98859 0.0
C534 C 0.63549 0.583 0.88884 0.0
C535 C 0.61842 0.56868 0.90248 0.0
C536 C 0.61693 0.56112 0.96032 0.0
C537 C 0.63265 0.56699 0.00272 0.0
C538 C 0.5684 0.54419 0.8246 0.0
C539 C 0.57881 0.53644 0.77321 0.0
C540 C 0.58086 0.55569 0.86562 0.0
C541 C 0.60383 0.55984 0.85555 0.0
C542 C 0.61355 0.55344 0.80196 0.0
C543 C 0.60124 0.54181 0.76153 0.0
H544 H 0.96804 0.6508 0.98934 0.0
H545 H 0.04045 0.65788 0.9948 0.0
H546 H 0.97297 0.62316 0.91418 0.0
H547 H 0.04527 0.63005 0.92215 0.0
H548 H 0.04709 0.6013 0.74486 0.0
H549 H 0.03671 0.62832 0.81659 0.0
H550 H 0.99004 0.58558 0.89702 0.0
H551 H 1.00069 0.55824 0.82474 0.0
C552 C 0.98498 0.64643 0.97487 0.0
C553 C 1.00384 0.65668 0.99818 0.0
C554 C 0.98778 0.63048 0.9322 0.0
C555 C 0.00948 0.62464 0.91159 0.0
C556 C 0.02828 0.63445 0.93622 0.0
C557 C 0.02552 0.65025 0.97866 0.0
C558 C 0.0343 0.5977 0.77707 0.0
C559 C 0.02478 0.5775 0.77906 0.0
C560 C 0.02848 0.61318 0.81855 0.0
C561 C 0.01294 0.60895 0.86331 0.0
C562 C 1.00214 0.5893 0.86313 0.0
C563 C 1.0081 0.57367 0.82145 0.0
H564 H 0.98089 0.1693 0.4669 0.0
H565 H 0.04844 0.15784 0.53398 0.0
H566 H 0.97032 0.13423 0.49896 0.0
H567 H 0.03771 0.12262 0.56715 0.0
H568 H 0.0219 0.05331 0.5489 0.0
H569 H 0.03 0.08957 0.51888 0.0
H570 H 0.96353 0.11059 0.57755 0.0
H571 H 0.95538 0.07431 0.60583 0.0
C572 C 0.99329 0.15958 0.49041 0.0
C573 C 0.01557 0.16633 0.49759 0.0
C574 C 0.98725 0.13935 0.50844 0.0
C575 C 1.00331 0.12541 0.5343 0.0
C576 C 0.02513 0.13274 0.54559 0.0
C577 C 0.03122 0.15299 0.52726 0.0
C578 C 1.00889 0.06566 0.55381 0.0
C579 C 0.98807 0.06106 0.57945 0.0
C580 C 0.01361 0.08646 0.53762 0.0
C581 C 0.99761 0.10308 0.54721 0.0
C582 C 0.97621 0.09818 0.5694 0.0
C583 C 0.97143 0.07732 0.58502 0.0
H584 H 0.34738 0.07336 0.49816 0.0
H585 H 0.39243 0.12481 0.53145 0.0
H586 H 0.37599 0.04793 0.5302 0.0
H587 H 0.4212 0.09913 0.5664 0.0
H588 H 0.4765 0.04777 0.5438 0.0
H589 H 0.44622 0.07389 0.52221 0.0
H590 H 0.39794 0.03247 0.60268 0.0
H591 H 0.428 0.00634 0.62139 0.0
C592 C 0.36308 0.07935 0.51498 0.0
C593 C 0.36766 0.10112 0.51219 0.0
C594 C 0.37965 0.06466 0.53313 0.0
C595 C 0.40114 0.07139 0.54983 0.0
C596 C 0.40506 0.09335 0.55205 0.0
C597 C 0.38851 0.10809 0.533 0.0
C598 C 0.4593 0.04423 0.55551 0.0
C599 C 0.45445 0.02501 0.58313 0.0
C600 C 0.44199 0.05926 0.54414 0.0
C601 C 0.4196 0.05543 0.56133 0.0
C602 C 0.41483 0.03588 0.58787 0.0
C603 C 0.43203 0.02077 0.59809 0.0
H604 H 0.54608 0.34861 0.45893 0.0
H605 H 0.47864 0.35367 0.53099 0.0
H606 H 0.55352 0.38417 0.49217 0.0
H607 H 0.48633 0.38936 0.56653 0.0
H608 H 0.49495 0.46042 0.54863 0.0
H609 H 0.48939 0.42324 0.52348 0.0
H610 H 0.55943 0.40863 0.56561 0.0
H611 H 0.56511 0.44582 0.58694 0.0
C612 C 0.53311 0.35701 0.48402 0.0
C613 C 0.51169 0.34838 0.49189 0.0
C614 C 0.53735 0.37757 0.50294 0.0
C615 C 0.52034 0.38992 0.5308 0.0
C616 C 0.49956 0.38057 0.54336 0.0
C617 C 0.49522 0.36003 0.52376 0.0
C618 C 0.50924 0.4493 0.55059 0.0
C619 C 0.53051 0.45609 0.56848 0.0
C620 C 0.506 0.42791 0.53752 0.0
C621 C 0.52389 0.41278 0.54334 0.0
C622 C 0.54533 0.41978 0.55974 0.0
C623 C 0.54865 0.44121 0.57149 0.0
H624 H 0.12731 0.38652 0.51427 0.0
H625 H 0.1733 0.43871 0.50994 0.0
H626 H 0.09751 0.41061 0.55065 0.0
H627 H 0.14402 0.46231 0.54923 0.0
H628 H 0.08106 0.50412 0.52898 0.0
H629 H 0.11052 0.47785 0.50245 0.0
H630 H 0.08358 0.43367 0.62776 0.0
H631 H 0.05435 0.45959 0.65385 0.0
C632 C 0.13128 0.40293 0.52285 0.0
C633 C 0.15256 0.41072 0.50803 0.0
C634 C 0.11422 0.41673 0.54373 0.0
C635 C 0.11827 0.43849 0.55076 0.0
C636 C 0.14022 0.44575 0.54222 0.0
C637 C 0.15718 0.43204 0.52095 0.0
C638 C 0.08114 0.4886 0.54964 0.0
C639 C 0.06504 0.48382 0.5924 0.0
C640 C 0.09818 0.47369 0.53525 0.0
C641 C 0.0995 0.4538 0.56371 0.0
C642 C 0.08289 0.44874 0.60471 0.0
C643 C 0.06589 0.46358 0.61899 0.0
H644 H 0.04567 0.84925 0.9595 0.0
H645 H 0.97596 0.85839 0.90707 0.0
H646 H 0.05458 0.88334 0.91751 0.0
H647 H 0.985 0.89239 0.86247 0.0
H648 H 0.99833 0.96242 0.87916 0.0
H649 H 0.99202 0.92557 0.9062 0.0
H650 H 0.05864 0.90763 0.84152 0.0
H651 H 0.06532 0.94459 0.81821 0.0
C652 C 0.03245 0.85813 0.9365 0.0
C653 C 0.01004 0.85141 0.93741 0.0
C654 C 0.03753 0.8778 0.9126 0.0
C655 C 0.02032 0.89097 0.88854 0.0
C656 C 0.99846 0.88299 0.88292 0.0
C657 C 0.99332 0.86342 0.90757 0.0
C658 C 0.01185 0.95064 0.87279 0.0
C659 C 0.03244 0.95636 0.8479 0.0
C660 C 1.00808 0.92945 0.88676 0.0
C661 C 0.02465 0.91352 0.87481 0.0
C662 C 0.04558 0.91945 0.85179 0.0
C663 C 0.04952 0.9407 0.83906 0.0
H664 H 0.62618 0.89492 0.9206 0.0
H665 H 0.6715 0.94716 0.93892 0.0
H666 H 0.59682 0.91963 0.88373 0.0
H667 H 0.64244 0.9716 0.9047 0.0
H668 H 0.58947 0.01176 0.81645 0.0
H669 H 0.61934 0.98526 0.83239 0.0
H670 H 0.57238 0.94597 0.92565 0.0
H671 H 0.54203 0.97236 0.90607 0.0
C672 C 0.63004 0.91155 0.91534 0.0
C673 C 0.65113 0.91905 0.93281 0.0
C674 C 0.61316 0.92576 0.89509 0.0
C675 C 0.61705 0.94772 0.8925 0.0
C676 C 0.63876 0.95484 0.90546 0.0
C677 C 0.65562 0.94069 0.92492 0.0
C678 C 0.5857 0.99771 0.84177 0.0
C679 C 0.56366 0.99428 0.86156 0.0
C680 C 0.60278 0.98238 0.85046 0.0
C681 C 0.59838 0.96342 0.88046 0.0
C682 C 0.57632 0.9602 0.9014 0.0
C683 C 0.55903 0.97542 0.89136 0.0
H684 H 0.53185 0.66073 0.93438 0.0
H685 H 0.45926 0.66337 0.95482 0.0
H686 H 0.52964 0.6267 0.88624 0.0
H687 H 0.45668 0.6301 0.90129 0.0
H688 H 0.46221 0.5579 0.90017 0.0
H689 H 0.46377 0.59498 0.9306 0.0
H690 H 0.5206 0.6037 0.81434 0.0
H691 H 0.52023 0.56668 0.78831 0.0
C692 C 0.51531 0.65438 0.92632 0.0
C693 C 0.49584 0.66423 0.95028 0.0
C694 C 0.51397 0.63485 0.8983 0.0
C695 C 0.49299 0.62516 0.89194 0.0
C696 C 0.4732 0.63665 0.908 0.0
C697 C 0.47462 0.65599 0.93744 0.0
C698 C 0.47538 0.56768 0.88258 0.0
C699 C 0.49119 0.55927 0.84248 0.0
C700 C 0.47598 0.58906 0.89879 0.0
C701 C 0.49209 0.60253 0.87413 0.0
C702 C 0.50814 0.59389 0.83494 0.0
C703 C 0.50795 0.57249 0.82015 0.0
H704 H 0.85488 0.58732 0.90064 0.0
H705 H 0.89467 0.60718 0.04881 0.0
H706 H 0.88775 0.56855 0.86046 0.0
H707 H 0.92758 0.58755 0.00883 0.0
H708 H 0.96027 0.51888 0.95079 0.0
H709 H 0.93331 0.54545 0.99191 0.0
H710 H 0.92823 0.57628 0.82307 0.0
H711 H 0.9553 0.55032 0.78273 0.0
C712 C 0.87078 0.58824 0.92387 0.0
C713 C 0.87215 0.5988 0.97801 0.0
C714 C 0.88957 0.57732 0.90097 0.0
C715 C 0.91004 0.57656 0.93192 0.0
C716 C 0.91182 0.58779 0.98469 0.0
C717 C 0.89304 0.59898 0.00738 0.0
C718 C 0.95371 0.53165 0.9232 0.0
C719 C 0.95988 0.53275 0.86405 0.0
C720 C 0.93847 0.54684 0.94655 0.0
C721 C 0.92885 0.56283 0.91044 0.0
C722 C 0.93553 0.56416 0.85172 0.0
C723 C 0.95105 0.54937 0.82887 0.0
H724 H 1.00077 0.14753 0.0602 0.0
H725 H 0.04657 0.17433 0.93439 0.0
H726 H 1.00048 0.1146 0.00334 0.0
H727 H 0.04579 0.14165 0.87721 0.0
H728 H 1.00805 0.0943 0.75668 0.0
H729 H 0.01488 0.12497 0.81874 0.0
H730 H 0.02609 0.08325 0.967 0.0
H731 H 0.01958 0.05227 0.90384 0.0
C732 C 0.01102 0.14635 0.02096 0.0
C733 C 0.02354 0.16374 0.00171 0.0
C734 C 0.01086 0.12745 0.98844 0.0
C735 C 0.02308 0.12557 0.93577 0.0
C736 C 0.03601 0.14272 0.91731 0.0
C737 C 0.03632 0.16151 0.94994 0.0
C738 C 0.01243 0.09166 0.80229 0.0
C739 C 0.01345 0.07098 0.82552 0.0
C740 C 0.01637 0.1092 0.8378 0.0
C741 C 0.02098 0.10653 0.89777 0.0
C742 C 0.02249 0.08576 0.92093 0.0
C743 C 0.01901 0.06807 0.88485 0.0
H744 H 0.33813 0.04761 0.97981 0.0
H745 H 0.37832 0.09898 0.04367 0.0
H746 H 0.36932 0.03544 0.91835 0.0
H747 H 0.40992 0.08644 0.98202 0.0
H748 H 0.46706 0.03957 0.90038 0.0
H749 H 0.43811 0.05552 0.96594 0.0
H750 H 0.38789 0.04847 0.83067 0.0
H751 H 0.41623 0.03254 0.76658 0.0
C752 C 0.35351 0.05652 0.98031 0.0
C753 C 0.35541 0.07455 0.01618 0.0
C754 C 0.37151 0.04945 0.94511 0.0
C755 C 0.39208 0.06012 0.94456 0.0
C756 C 0.39435 0.07782 0.9815 0.0
C757 C 0.37619 0.085 0.0168 0.0
C758 C 0.44988 0.04173 0.88466 0.0
C759 C 0.44388 0.03441 0.82867 0.0
C760 C 0.43331 0.05085 0.92211 0.0
C761 C 0.41055 0.05282 0.904 0.0
C762 C 0.40506 0.04664 0.84677 0.0
C763 C 0.4214 0.03755 0.80986 0.0
H764 H 0.48791 0.3421 0.91827 0.0
H765 H 0.52854 0.36998 0.05392 0.0
H766 H 0.48986 0.37483 0.86135 0.0
H767 H 0.52969 0.40301 0.99745 0.0
H768 H 0.50781 0.4647 0.89063 0.0
H769 H 0.50188 0.43342 0.95337 0.0
H770 H 0.52468 0.39224 0.81268 0.0
H771 H 0.53117 0.42324 0.75121 0.0
C772 C 0.49724 0.35516 0.93608 0.0
C773 C 0.50831 0.35321 0.99049 0.0
C774 C 0.49818 0.37396 0.90361 0.0
C775 C 0.50994 0.3914 0.92502 0.0
C776 C 0.5203 0.38986 0.98028 0.0
C777 C 0.5196 0.37093 0.01257 0.0
C778 C 0.5114 0.44892 0.87334 0.0
C779 C 0.52002 0.4463 0.81637 0.0
C780 C 0.50813 0.4311 0.90914 0.0
C781 C 0.51279 0.41045 0.8877 0.0
C782 C 0.52082 0.40795 0.83017 0.0
C783 C 0.52464 0.42567 0.79516 0.0
H784 H 0.1816 0.44624 0.93395 0.0
H785 H 0.13934 0.43925 0.08674 0.0
H786 H 0.14879 0.45734 0.87693 0.0
H787 H 0.10608 0.44922 0.0285 0.0
H788 H 0.05916 0.49661 0.92051 0.0
H789 H 0.08824 0.47966 0.98291 0.0
H790 H 0.11558 0.4463 0.8319 0.0
H791 H 0.0872 0.46398 0.77004 0.0
C792 C 0.16528 0.44692 0.95542 0.0
C793 C 0.1633 0.44199 0.01527 0.0
C794 C 0.14628 0.45299 0.92233 0.0
C795 C 0.12458 0.45413 0.94778 0.0
C796 C 0.12248 0.44873 0.00738 0.0
C797 C 0.14158 0.44274 0.04067 0.0
C798 C 0.07105 0.48518 0.90134 0.0
C799 C 0.07097 0.48148 0.84073 0.0
C800 C 0.08777 0.47547 0.93693 0.0
C801 C 0.10465 0.46186 0.91242 0.0
C802 C 0.10334 0.4571 0.85225 0.0
C803 C 0.08689 0.46698 0.81682 0.0
H804 H 0.03676 0.8619 0.40742 0.0
H805 H 0.97528 0.84355 0.4936 0.0
H806 H 0.03484 0.89597 0.45843 0.0
H807 H 0.9736 0.87753 0.54522 0.0
H808 H 0.99961 0.92762 0.67976 0.0
H809 H 0.99576 0.89516 0.62231 0.0
H810 H 0.0117 0.92981 0.46475 0.0
H811 H 0.01541 0.96239 0.52289 0.0
C812 C 0.02272 0.86517 0.43683 0.0
C813 C 1.00619 0.8499 0.44639 0.0
C814 C 0.0216 0.88475 0.46595 0.0
C815 C 1.00399 0.88952 0.50562 0.0
C816 C 0.98748 0.87427 0.51526 0.0
C817 C 0.98853 0.85474 0.48592 0.0
C818 C 1.00152 0.92838 0.63256 0.0
C819 C 1.00732 0.94747 0.60538 0.0
C820 C 0.99941 0.90981 0.59967 0.0
C821 C 1.00353 0.90987 0.53899 0.0
C822 C 1.00857 0.92923 0.51149 0.0
C823 C 0.01038 0.94792 0.54445 0.0
H824 H 0.64373 0.97073 0.36375 0.0
H825 H 0.66877 0.92663 0.49533 0.0
H826 H 0.61182 0.98053 0.4268 0.0
H827 H 0.63683 0.93644 0.55839 0.0
H828 H 0.5987 0.98396 0.68076 0.0
H829 H 0.62625 0.96779 0.61437 0.0
H830 H 0.57666 0.96932 0.47544 0.0
H831 H 0.54879 0.98577 0.54291 0.0
C832 C 0.64225 0.96283 0.40571 0.0
C833 C 0.65903 0.948 0.42456 0.0
C834 C 0.62386 0.96844 0.44186 0.0
C835 C 0.62174 0.95939 0.49791 0.0
C836 C 0.63809 0.94401 0.51591 0.0
C837 C 0.65648 0.93842 0.4798 0.0
C838 C 0.59353 0.98061 0.63623 0.0
C839 C 0.57161 0.98628 0.61696 0.0
C840 C 0.60933 0.97117 0.59816 0.0
C841 C 0.60379 0.96728 0.53933 0.0
C842 C 0.58155 0.97227 0.52036 0.0
C843 C 0.56553 0.9815 0.55901 0.0
H844 H 0.52252 0.65379 0.38763 0.0
H845 H 0.48735 0.68332 0.53356 0.0
H846 H 0.52126 0.61926 0.43682 0.0
H847 H 0.48648 0.64892 0.58313 0.0
H848 H 0.46078 0.58259 0.61309 0.0
H849 H 0.46569 0.61618 0.56362 0.0
H850 H 0.53509 0.59823 0.52519 0.0
H851 H 0.5302 0.56406 0.57546 0.0
C852 C 0.51465 0.65293 0.43041 0.0
C853 C 0.50483 0.67129 0.45647 0.0
C854 C 0.51413 0.63318 0.45876 0.0
C855 C 0.5036 0.6313 0.51361 0.0
C856 C 0.49447 0.64978 0.54051 0.0
C857 C 0.49514 0.66954 0.51238 0.0
C858 C 0.47715 0.5856 0.59404 0.0
C859 C 0.49517 0.57056 0.59874 0.0
C860 C 0.47998 0.60503 0.56598 0.0
C861 C 0.50088 0.61008 0.54141 0.0
C862 C 0.51876 0.5948 0.54387 0.0
C863 C 0.51596 0.57522 0.5725 0.0
H864 H 0.89514 0.58598 0.35134 0.0
H865 H 0.84615 0.55306 0.4547 0.0
H866 H 0.92506 0.57464 0.42064 0.0
H867 H 0.87561 0.54114 0.52187 0.0
H868 H 0.9233 0.53979 0.66851 0.0
H869 H 0.8976 0.55534 0.59664 0.0
H870 H 0.94782 0.54501 0.46128 0.0
H871 H 0.97418 0.53008 0.53504 0.0
C872 C 0.89085 0.57618 0.38853 0.0
C873 C 0.86827 0.5707 0.39826 0.0
C874 C 0.90795 0.56963 0.42816 0.0
C875 C 0.90277 0.55733 0.47786 0.0
C876 C 0.88026 0.55122 0.48558 0.0
C877 C 0.8633 0.55793 0.44676 0.0
C878 C 0.92902 0.54108 0.62355 0.0
C879 C 0.95065 0.53343 0.60732 0.0
C880 C 0.91418 0.54985 0.58204 0.0
C881 C 0.92025 0.55085 0.52249 0.0
C882 C 0.94247 0.54441 0.50662 0.0
C883 C 0.9576 0.53586 0.5488 0.0
loop_
_geom_bond_atom_site_label_1
_geom_bond_atom_site_label_2
_geom_bond_distance
_geom_bond_site_symmetry_2
_ccdc_geom_bond_type
C0 C1 1.264 . S
C0 C5 1.479 . S
C0 C10 1.465 . S
C1 C0 1.264 . S
C1 C3 1.339 . S
C1 H28 0.931 . S
C2 C3 1.395 . S
C2 C4 1.320 . S
C3 C1 1.339 . S
C3 C2 1.395 . S
C3 H29 0.929 . S
C4 C2 1.320 . S
C4 C5 1.405 . S
C4 H30 0.930 . S
C5 C0 1.479 . S
C5 C4 1.405 . S
C5 H31 0.931 . S
U6 O7 2.454 . S
U6 O8 2.458 . S
U6 C9 2.984 . S
U6 C10 2.847 . S
U6 C23 2.882 . S
U6 O24 2.441 . S
U6 O25 2.420 . S
U6 O26 2.455 . S
U6 O27 2.449 . S
O7 U6 2.454 . S
O7 C9 1.353 . S
O8 U6 2.458 . S
O8 C9 1.286 . S
C9 U6 2.984 . S
C9 O7 1.353 . S
C9 O8 1.286 . S
C9 C11 1.363 . S
C10 C0 1.465 . S
C10 U6 2.847 . S
C10 O24 1.249 . S
C10 O25 1.202 . S
C11 C9 1.363 . S
C11 C13 1.408 . S
C11 C16 1.342 1_554 S
C12 C13 1.310 . S
C12 C15 1.461 . S
C12 H32 0.932 . S
C13 C11 1.408 . S
C13 C12 1.310 . S
C13 H33 0.930 . S
C14 C15 1.474 1_556 S
C14 C16 1.286 . S
C14 H34 0.929 . S
C15 C12 1.461 . S
C15 C14 1.474 1_554 S
C16 C11 1.342 1_556 S
C16 C14 1.286 . S
C16 H35 0.930 . S
C17 C20 1.424 . S
C17 C22 1.245 . S
C17 C23 1.428 1_556 S
C18 C21 1.260 . S
C18 C22 1.477 . S
C18 H36 0.932 . S
C19 C20 1.384 . S
C19 C21 1.479 . S
C19 H37 0.929 . S
C20 C17 1.424 . S
C20 C19 1.384 . S
C20 H38 0.928 1_556 S
C21 C18 1.260 . S
C21 C19 1.479 . S
C22 C17 1.245 . S
C22 C18 1.477 . S
C22 H39 0.932 . S
C23 U6 2.882 . S
C23 C17 1.428 1_554 S
C23 O26 1.301 . S
C23 O27 1.282 . S
O24 U6 2.441 . S
O24 C10 1.249 . S
O25 U6 2.420 . S
O25 C10 1.202 . S
O26 U6 2.455 . S
O26 C23 1.301 . S
O27 U6 2.449 . S
O27 C23 1.282 . S
H28 C1 0.931 . S
H29 C3 0.929 . S
H30 C4 0.930 . S
H31 C5 0.931 . S
H32 C12 0.932 . S
H33 C13 0.930 . S
H34 C14 0.929 . S
H35 C16 0.930 . S
H36 C18 0.932 . S
H37 C19 0.929 . S
H38 C20 0.928 1_554 S
H39 C22 0.932 . S
C40 C41 1.264 . S
C40 C45 1.479 . S
C40 C50 1.465 . S
C41 C40 1.264 . S
C41 C43 1.339 . S
C41 H68 0.931 . S
C42 C43 1.395 . S
C42 C44 1.320 . S
C43 C41 1.339 . S
C43 C42 1.395 . S
C43 H69 0.929 . S
C44 C42 1.320 . S
C44 C45 1.405 . S
C44 H70 0.920 1_455 S
C45 C40 1.479 . S
C45 C44 1.405 . S
C45 H71 0.931 . S
U46 O47 2.454 . S
U46 O48 2.458 . S
U46 C49 2.984 . S
U46 C50 2.847 . S
U46 C63 2.882 . S
U46 O64 2.441 . S
U46 O65 2.420 . S
U46 O66 2.455 . S
U46 O67 2.449 . S
O47 U46 2.454 . S
O47 C49 1.353 . S
O48 U46 2.458 . S
O48 C49 1.286 . S
C49 U46 2.984 . S
C49 O47 1.353 . S
C49 O48 1.286 . S
C49 C51 1.363 . S
C50 C40 1.465 . S
C50 U46 2.847 . S
C50 O64 1.249 . S
C50 O65 1.202 . S
C51 C49 1.363 . S
C51 C53 1.408 . S
C51 C56 1.342 . S
C52 C53 1.310 . S
C52 C55 1.461 . S
C52 H72 0.932 . S
C53 C51 1.408 . S
C53 C52 1.310 . S
C53 H73 0.930 . S
C54 C55 1.474 1_655 S
C54 C56 1.285 1_655 S
C54 H74 0.930 1_554 S
C55 C52 1.461 . S
C55 C54 1.474 1_455 S
C56 C51 1.342 . S
C56 C54 1.285 1_455 S
C56 H75 0.932 1_554 S
C57 C60 1.424 1_556 S
C57 C62 1.245 . S
C57 C63 1.428 1_556 S
C58 C61 1.260 . S
C58 C62 1.477 . S
C58 H76 0.932 . S
C59 C60 1.384 1_556 S
C59 C61 1.479 . S
C59 H77 0.929 . S
C60 C57 1.424 1_554 S
C60 C59 1.384 1_554 S
C60 H78 0.928 . S
C61 C58 1.260 . S
C61 C59 1.479 . S
C62 C57 1.245 . S
C62 C58 1.477 . S
C62 H79 0.932 . S
C63 U46 2.882 . S
C63 C57 1.428 1_554 S
C63 O66 1.301 . S
C63 O67 1.282 . S
O64 U46 2.441 . S
O64 C50 1.249 . S
O65 U46 2.420 . S
O65 C50 1.202 . S
O66 U46 2.455 . S
O66 C63 1.301 . S
O67 U46 2.449 . S
O67 C63 1.282 . S
H68 C41 0.931 . S
H69 C43 0.929 . S
H70 C44 0.920 1_655 S
H71 C45 0.931 . S
H72 C52 0.932 . S
H73 C53 0.930 . S
H74 C54 0.930 1_556 S
H75 C56 0.932 1_556 S
H76 C58 0.932 . S
H77 C59 0.929 . S
H78 C60 0.928 . S
H79 C62 0.932 . S
C80 C81 1.264 . S
C80 C85 1.479 . S
C80 C90 1.465 . S
C81 C80 1.264 . S
C81 C83 1.339 . S
C81 H108 0.931 . S
C82 C83 1.395 . S
C82 C84 1.320 . S
C83 C81 1.339 . S
C83 C82 1.395 . S
C83 H109 0.929 . S
C84 C82 1.320 . S
C84 C85 1.405 . S
C84 H110 0.930 . S
C85 C80 1.479 . S
C85 C84 1.405 . S
C85 H111 0.931 . S
U86 O87 2.454 . S
U86 O88 2.458 . S
U86 C89 2.984 . S
U86 C90 2.847 . S
U86 C103 2.882 . S
U86 O104 2.441 . S
U86 O105 2.420 . S
U86 O106 2.455 . S
U86 O107 2.449 . S
O87 U86 2.454 . S
O87 C89 1.353 . S
O88 U86 2.458 . S
O88 C89 1.286 . S
C89 U86 2.984 . S
C89 O87 1.353 . S
C89 O88 1.286 . S
C89 C91 1.363 . S
C90 C80 1.465 . S
C90 U86 2.847 . S
C90 O104 1.249 . S
C90 O105 1.202 . S
C91 C89 1.363 . S
C91 C93 1.408 . S
C91 C96 1.342 . S
C92 C93 1.310 . S
C92 C95 1.461 . S
C92 H112 0.932 . S
C93 C91 1.408 . S
C93 C92 1.310 . S
C93 H113 0.930 . S
C94 C95 1.474 1_556 S
C94 C96 1.285 1_556 S
C94 H114 0.929 . S
C95 C92 1.461 . S
C95 C94 1.474 1_554 S
C96 C91 1.342 . S
C96 C94 1.285 1_554 S
C96 H115 0.930 1_554 S
C97 C100 1.424 . S
C97 C102 1.245 . S
C97 C103 1.428 1_556 S
C98 C101 1.260 . S
C98 C102 1.477 . S
C98 H116 0.932 . S
C99 C100 1.384 . S
C99 C101 1.479 . S
C99 H117 0.929 . S
C100 C97 1.424 . S
C100 C99 1.384 . S
C100 H118 0.928 1_556 S
C101 C98 1.260 . S
C101 C99 1.479 . S
C102 C97 1.245 . S
C102 C98 1.477 . S
C102 H119 0.932 . S
C103 U86 2.882 . S
C103 C97 1.428 1_554 S
C103 O106 1.301 . S
C103 O107 1.282 . S
O104 U86 2.441 . S
O104 C90 1.249 . S
O105 U86 2.420 . S
O105 C90 1.202 . S
O106 U86 2.455 . S
O106 C103 1.301 . S
O107 U86 2.449 . S
O107 C103 1.282 . S
H108 C81 0.931 . S
H109 C83 0.929 . S
H110 C84 0.930 . S
H111 C85 0.931 . S
H112 C92 0.932 . S
H113 C93 0.930 . S
H114 C94 0.929 . S
H115 C96 0.930 1_556 S
H116 C98 0.932 . S
H117 C99 0.929 . S
H118 C100 0.928 1_554 S
H119 C102 0.932 . S
C120 C121 1.264 . S
C120 C125 1.479 . S
C120 C130 1.465 . S
C121 C120 1.264 . S
C121 C123 1.339 . S
C121 H148 0.931 . S
C122 C123 1.395 . S
C122 C124 1.320 . S
C123 C121 1.339 . S
C123 C122 1.395 . S
C123 H149 0.929 . S
C124 C122 1.320 . S
C124 C125 1.405 . S
C124 H150 0.930 . S
C125 C120 1.479 . S
C125 C124 1.405 . S
C125 H151 0.931 . S
U126 O127 2.454 . S
U126 O128 2.458 . S
U126 C129 2.984 . S
U126 C130 2.847 . S
U126 C143 2.882 . S
U126 O144 2.441 . S
U126 O145 2.420 . S
U126 O146 2.455 . S
U126 O147 2.449 . S
O127 U126 2.454 . S
O127 C129 1.353 . S
O128 U126 2.458 . S
O128 C129 1.286 . S
C129 U126 2.984 . S
C129 O127 1.353 . S
C129 O128 1.286 . S
C129 C131 1.363 . S
C130 C120 1.465 . S
C130 U126 2.847 . S
C130 O144 1.249 . S
C130 O145 1.202 . S
C131 C129 1.363 . S
C131 C133 1.408 . S
C131 C136 1.342 . S
C132 C133 1.310 . S
C132 C135 1.461 . S
C132 H152 0.932 . S
C133 C131 1.408 . S
C133 C132 1.310 . S
C133 H153 0.930 . S
C134 C135 1.474 . S
C134 C136 1.285 . S
C134 H154 0.929 1_554 S
C135 C132 1.461 . S
C135 C134 1.474 . S
C136 C131 1.342 . S
C136 C134 1.285 . S
C136 H155 0.930 1_554 S
C137 C140 1.424 1_556 S
C137 C142 1.245 . S
C137 C143 1.428 1_556 S
C138 C141 1.260 . S
C138 C142 1.477 . S
C138 H156 0.932 . S
C139 C140 1.384 1_556 S
C139 C141 1.479 . S
C139 H157 0.929 . S
C140 C137 1.424 1_554 S
C140 C139 1.384 1_554 S
C140 H158 0.928 . S
C141 C138 1.260 . S
C141 C139 1.479 . S
C142 C137 1.245 . S
C142 C138 1.477 . S
C142 H159 0.932 . S
C143 U126 2.882 . S
C143 C137 1.428 1_554 S
C143 O146 1.301 . S
C143 O147 1.282 . S
O144 U126 2.441 . S
O144 C130 1.249 . S
O145 U126 2.420 . S
O145 C130 1.202 . S
O146 U126 2.455 . S
O146 C143 1.301 . S
O147 U126 2.449 . S
O147 C143 1.282 . S
H148 C121 0.931 . S
H149 C123 0.929 . S
H150 C124 0.930 . S
H151 C125 0.931 . S
H152 C132 0.932 . S
H153 C133 0.930 . S
H154 C134 0.929 1_556 S
H155 C136 0.930 1_556 S
H156 C138 0.932 . S
H157 C139 0.929 . S
H158 C140 0.928 . S
H159 C142 0.932 . S
C160 C161 1.264 . S
C160 C165 1.479 . S
C160 C170 1.465 . S
C161 C160 1.264 . S
C161 C163 1.339 . S
C161 H188 0.931 . S
C162 C163 1.395 . S
C162 C164 1.320 . S
C163 C161 1.339 . S
C163 C162 1.395 . S
C163 H189 0.929 . S
C164 C162 1.320 . S
C164 C165 1.405 . S
C164 H190 0.930 . S
C165 C160 1.479 . S
C165 C164 1.405 . S
C165 H191 0.931 . S
U166 O167 2.454 . S
U166 O168 2.458 . S
U166 C169 2.984 . S
U166 C170 2.847 . S
U166 C183 2.882 . S
U166 O184 2.441 . S
U166 O185 2.420 . S
U166 O186 2.455 . S
U166 O187 2.449 . S
O167 U166 2.454 . S
O167 C169 1.353 . S
O168 U166 2.458 . S
O168 C169 1.286 . S
C169 U166 2.984 . S
C169 O167 1.353 . S
C169 O168 1.286 . S
C169 C171 1.363 . S
C170 C160 1.465 . S
C170 U166 2.847 . S
C170 O184 1.249 . S
C170 O185 1.202 . S
C171 C169 1.363 . S
C171 C173 1.408 . S
C171 C176 1.342 . S
C172 C173 1.310 . S
C172 C175 1.461 . S
C172 H192 0.932 . S
C173 C171 1.408 . S
C173 C172 1.310 . S
C173 H193 0.930 . S
C174 C175 1.474 . S
C174 C176 1.285 . S
C174 H194 0.929 . S
C175 C172 1.461 . S
C175 C174 1.474 . S
C176 C171 1.342 . S
C176 C174 1.285 . S
C176 H195 0.930 . S
C177 C180 1.424 . S
C177 C182 1.245 . S
C177 C183 1.428 . S
C178 C181 1.260 . S
C178 C182 1.477 . S
C178 H196 0.932 . S
C179 C180 1.384 . S
C179 C181 1.479 . S
C179 H197 0.929 . S
C180 C177 1.424 . S
C180 C179 1.384 . S
C180 H198 0.928 . S
C181 C178 1.260 . S
C181 C179 1.479 . S
C182 C177 1.245 . S
C182 C178 1.477 . S
C182 H199 0.932 . S
C183 U166 2.882 . S
C183 C177 1.428 . S
C183 O186 1.301 . S
C183 O187 1.282 . S
O184 U166 2.441 . S
O184 C170 1.249 . S
O185 U166 2.420 . S
O185 C170 1.202 . S
O186 U166 2.455 . S
O186 C183 1.301 . S
O187 U166 2.449 . S
O187 C183 1.282 . S
H188 C161 0.931 . S
H189 C163 0.929 . S
H190 C164 0.930 . S
H191 C165 0.931 . S
H192 C172 0.932 . S
H193 C173 0.930 . S
H194 C174 0.929 . S
H195 C176 0.930 . S
H196 C178 0.932 . S
H197 C179 0.929 . S
H198 C180 0.928 . S
H199 C182 0.932 . S
C200 C201 1.264 . S
C200 C205 1.479 . S
C200 C210 1.465 . S
C201 C200 1.264 . S
C201 C203 1.339 . S
C201 H228 0.931 . S
C202 C203 1.395 . S
C202 C204 1.320 . S
C203 C201 1.339 . S
C203 C202 1.395 . S
C203 H229 0.929 . S
C204 C202 1.320 . S
C204 C205 1.405 . S
C204 H230 0.924 1_455 S
C205 C200 1.479 . S
C205 C204 1.405 . S
C205 H231 0.931 . S
U206 O207 2.454 . S
U206 O208 2.458 . S
U206 C209 2.984 . S
U206 C210 2.847 . S
U206 C223 2.882 . S
U206 O224 2.441 . S
U206 O225 2.420 . S
U206 O226 2.455 . S
U206 O227 2.449 . S
O207 U206 2.454 . S
O207 C209 1.353 . S
O208 U206 2.458 . S
O208 C209 1.286 . S
C209 U206 2.984 . S
C209 O207 1.353 . S
C209 O208 1.286 . S
C209 C211 1.363 . S
C210 C200 1.465 . S
C210 U206 2.847 . S
C210 O224 1.249 . S
C210 O225 1.202 . S
C211 C209 1.363 . S
C211 C213 1.408 . S
C211 C216 1.342 . S
C212 C213 1.310 . S
C212 C215 1.462 . S
C212 H232 0.932 . S
C213 C211 1.408 . S
C213 C212 1.310 . S
C213 H233 0.930 . S
C214 C215 1.474 1_655 S
C214 C216 1.286 1_655 S
C214 H234 0.929 . S
C215 C212 1.462 . S
C215 C214 1.474 1_455 S
C216 C211 1.342 . S
C216 C214 1.286 1_455 S
C216 H235 0.935 . S
C217 C220 1.424 . S
C217 C222 1.245 . S
C217 C223 1.428 . S
C218 C221 1.260 . S
C218 C222 1.477 . S
C218 H236 0.932 . S
C219 C220 1.384 . S
C219 C221 1.479 . S
C219 H237 0.929 . S
C220 C217 1.424 . S
C220 C219 1.384 . S
C220 H238 0.928 . S
C221 C218 1.260 . S
C221 C219 1.479 . S
C222 C217 1.245 . S
C222 C218 1.477 . S
C222 H239 0.932 . S
C223 U206 2.882 . S
C223 C217 1.428 . S
C223 O226 1.301 . S
C223 O227 1.282 . S
O224 U206 2.441 . S
O224 C210 1.249 . S
O225 U206 2.420 . S
O225 C210 1.202 . S
O226 U206 2.455 . S
O226 C223 1.301 . S
O227 U206 2.449 . S
O227 C223 1.282 . S
H228 C201 0.931 . S
H229 C203 0.929 . S
H230 C204 0.924 1_655 S
H231 C205 0.931 . S
H232 C212 0.932 . S
H233 C213 0.930 . S
H234 C214 0.929 . S
H235 C216 0.935 . S
H236 C218 0.932 . S
H237 C219 0.929 . S
H238 C220 0.928 . S
H239 C222 0.932 . S
C240 C241 1.264 . S
C240 C245 1.479 . S
C240 C250 1.465 . S
C241 C240 1.264 . S
C241 C243 1.339 . S
C241 H268 0.931 . S
C242 C243 1.395 . S
C242 C244 1.320 . S
C243 C241 1.339 . S
C243 C242 1.395 . S
C243 H269 0.929 . S
C244 C242 1.320 . S
C244 C245 1.405 . S
C244 H270 0.930 . S
C245 C240 1.479 . S
C245 C244 1.405 . S
C245 H271 0.931 . S
U246 O247 2.454 . S
U246 O248 2.458 . S
U246 C249 2.984 . S
U246 C250 2.847 . S
U246 C263 2.882 . S
U246 O264 2.441 . S
U246 O265 2.420 . S
U246 O266 2.455 . S
U246 O267 2.449 . S
O247 U246 2.454 . S
O247 C249 1.353 . S
O248 U246 2.458 . S
O248 C249 1.286 . S
C249 U246 2.984 . S
C249 O247 1.353 . S
C249 O248 1.286 . S
C249 C251 1.363 . S
C250 C240 1.465 . S
C250 U246 2.847 . S
C250 O264 1.249 . S
C250 O265 1.202 . S
C251 C249 1.363 . S
C251 C253 1.408 . S
C251 C256 1.342 . S
C252 C253 1.310 . S
C252 C255 1.461 . S
C252 H272 0.932 . S
C253 C251 1.408 . S
C253 C252 1.310 . S
C253 H273 0.930 . S
C254 C255 1.474 . S
C254 C256 1.285 . S
C254 H274 0.929 . S
C255 C252 1.461 . S
C255 C254 1.474 . S
C256 C251 1.342 . S
C256 C254 1.285 . S
C256 H275 0.930 . S
C257 C260 1.424 . S
C257 C262 1.245 . S
C257 C263 1.428 . S
C258 C261 1.260 . S
C258 C262 1.477 . S
C258 H276 0.932 . S
C259 C260 1.384 . S
C259 C261 1.479 . S
C259 H277 0.929 . S
C260 C257 1.424 . S
C260 C259 1.384 . S
C260 H278 0.928 . S
C261 C258 1.260 . S
C261 C259 1.479 . S
C262 C257 1.245 . S
C262 C258 1.477 . S
C262 H279 0.932 . S
C263 U246 2.882 . S
C263 C257 1.428 . S
C263 O266 1.301 . S
C263 O267 1.282 . S
O264 U246 2.441 . S
O264 C250 1.249 . S
O265 U246 2.420 . S
O265 C250 1.202 . S
O266 U246 2.455 . S
O266 C263 1.301 . S
O267 U246 2.449 . S
O267 C263 1.282 . S
H268 C241 0.931 . S
H269 C243 0.929 . S
H270 C244 0.930 . S
H271 C245 0.931 . S
H272 C252 0.932 . S
H273 C253 0.930 . S
H274 C254 0.929 . S
H275 C256 0.930 . S
H276 C258 0.932 . S
H277 C259 0.929 . S
H278 C260 0.928 . S
H279 C262 0.932 . S
C280 C281 1.264 . S
C280 C285 1.479 . S
C280 C290 1.465 . S
C281 C280 1.264 . S
C281 C283 1.339 . S
C281 H308 0.931 . S
C282 C283 1.395 . S
C282 C284 1.320 . S
C283 C281 1.339 . S
C283 C282 1.395 . S
C283 H309 0.929 . S
C284 C282 1.320 . S
C284 C285 1.405 . S
C284 H310 0.930 . S
C285 C280 1.479 . S
C285 C284 1.405 . S
C285 H311 0.931 . S
U286 O287 2.454 . S
U286 O288 2.458 . S
U286 C289 2.984 . S
U286 C290 2.847 . S
U286 C303 2.882 . S
U286 O304 2.441 . S
U286 O305 2.420 . S
U286 O306 2.455 . S
U286 O307 2.449 . S
O287 U286 2.454 . S
O287 C289 1.353 . S
O288 U286 2.458 . S
O288 C289 1.286 . S
C289 U286 2.984 . S
C289 O287 1.353 . S
C289 O288 1.286 . S
C289 C291 1.363 . S
C290 C280 1.465 . S
C290 U286 2.847 . S
C290 O304 1.249 . S
C290 O305 1.202 . S
C291 C289 1.363 . S
C291 C293 1.408 . S
C291 C296 1.342 . S
C292 C293 1.310 . S
C292 C295 1.461 . S
C292 H312 0.932 . S
C293 C291 1.408 . S
C293 C292 1.310 . S
C293 H313 0.930 . S
C294 C295 1.474 . S
C294 C296 1.285 . S
C294 H314 0.929 . S
C295 C292 1.461 . S
C295 C294 1.474 . S
C296 C291 1.342 . S
C296 C294 1.285 . S
C296 H315 0.930 . S
C297 C300 1.424 . S
C297 C302 1.245 . S
C297 C303 1.428 . S
C298 C301 1.260 . S
C298 C302 1.477 . S
C298 H316 0.932 . S
C299 C300 1.384 . S
C299 C301 1.479 . S
C299 H317 0.929 . S
C300 C297 1.424 . S
C300 C299 1.384 . S
C300 H318 0.928 . S
C301 C298 1.260 . S
C301 C299 1.479 . S
C302 C297 1.245 . S
C302 C298 1.477 . S
C302 H319 0.932 . S
C303 U286 2.882 . S
C303 C297 1.428 . S
C303 O306 1.301 . S
C303 O307 1.282 . S
O304 U286 2.441 . S
O304 C290 1.249 . S
O305 U286 2.420 . S
O305 C290 1.202 . S
O306 U286 2.455 . S
O306 C303 1.301 . S
O307 U286 2.449 . S
O307 C303 1.282 . S
H308 C281 0.931 . S
H309 C283 0.929 . S
H310 C284 0.930 . S
H311 C285 0.931 . S
H312 C292 0.932 . S
H313 C293 0.930 . S
H314 C294 0.929 . S
H315 C296 0.930 . S
H316 C298 0.932 . S
H317 C299 0.929 . S
H318 C300 0.928 . S
H319 C302 0.932 . S
O320 Mg321 1.990 . S
O320 C334 1.253 . S
Mg321 O320 1.990 . S
Mg321 O324 2.180 1_565 S
Mg321 O325 2.117 . S
Mg321 O339 2.030 . S
O322 Mg323 2.070 1_465 S
O322 C334 1.260 . S
Mg323 O322 2.070 1_645 S
Mg323 O324 2.047 1_655 S
Mg323 O326 2.088 . S
Mg323 O327 2.055 1_655 S
Mg323 O329 2.151 . S
Mg323 O340 2.091 1_545 S
O324 Mg321 2.180 1_545 S
O324 Mg323 2.047 1_455 S
O324 C335 1.279 . S
O325 Mg321 2.117 . S
O325 C335 1.250 1_565 S
O326 Mg323 2.088 . S
O326 C336 1.264 . S
O327 Mg323 2.055 1_455 S
O327 C337 1.260 . S
Mg328 O329 2.180 . S
Mg328 O330 2.030 . S
Mg328 O331 1.990 . S
Mg328 O332 2.117 . S
O329 Mg323 2.151 . S
O329 Mg328 2.180 . S
O329 C338 1.279 . S
O330 Mg328 2.030 . S
O330 C336 1.248 . S
O331 Mg328 1.990 . S
O331 C337 1.253 1_655 S
O332 Mg328 2.117 . S
O332 C338 1.250 . S
C333 O339 1.204 1_655 S
C333 O340 1.281 . S
C334 O320 1.253 . S
C334 O322 1.260 . S
C335 O324 1.279 . S
C335 O325 1.250 1_545 S
C336 O326 1.264 . S
C336 O330 1.248 . S
C337 O327 1.260 . S
C337 O331 1.253 1_455 S
C338 O329 1.279 . S
C338 O332 1.250 . S
O339 Mg321 2.030 . S
O339 C333 1.204 1_455 S
O340 Mg323 2.091 1_565 S
O340 C333 1.281 . S
O341 Mg342 1.990 1_545 S
O341 C355 1.253 . S
Mg342 O341 1.990 1_565 S
Mg342 O345 2.180 . S
Mg342 O346 2.117 . S
Mg342 O360 2.030 1_565 S
O343 Mg344 2.072 . S
O343 C355 1.260 . S
Mg344 O343 2.072 . S
Mg344 O345 2.099 1_545 S
Mg344 O347 2.079 1_545 S
Mg344 O348 2.065 1_545 S
Mg344 O350 2.099 . S
Mg344 O361 2.079 . S
O345 Mg342 2.180 . S
O345 Mg344 2.099 1_565 S
O345 C356 1.279 . S
O346 Mg342 2.117 . S
O346 C356 1.250 . S
O347 Mg344 2.079 1_565 S
O347 C357 1.264 . S
O348 Mg344 2.065 1_565 S
O348 C358 1.249 1_565 S
Mg349 O350 2.180 . S
Mg349 O351 2.030 . S
Mg349 O352 1.990 . S
Mg349 O353 2.117 . S
O350 Mg344 2.099 . S
O350 Mg349 2.180 . S
O350 C359 1.279 . S
O351 Mg349 2.030 . S
O351 C357 1.248 1_545 S
O352 Mg349 1.990 . S
O352 C358 1.253 . S
O353 Mg349 2.117 . S
O353 C359 1.250 . S
C354 O360 1.248 . S
C354 O361 1.264 . S
C355 O341 1.253 . S
C355 O343 1.260 . S
C356 O345 1.279 . S
C356 O346 1.250 . S
C357 O347 1.264 . S
C357 O351 1.248 1_565 S
C358 O348 1.249 1_545 S
C358 O352 1.253 . S
C359 O350 1.279 . S
C359 O353 1.250 . S
O360 Mg342 2.030 1_545 S
O360 C354 1.248 . S
O361 Mg344 2.079 . S
O361 C354 1.264 . S
O362 Mg363 1.990 . S
O362 C376 1.253 . S
Mg363 O362 1.990 . S
Mg363 O366 2.180 . S
Mg363 O367 2.117 . S
Mg363 O381 2.030 . S
O364 Mg365 2.072 . S
O364 C376 1.260 . S
Mg365 O364 2.072 . S
Mg365 O366 2.099 . S
Mg365 O368 2.079 . S
Mg365 O369 2.072 . S
Mg365 O371 2.099 . S
Mg365 O382 2.079 . S
O366 Mg363 2.180 . S
O366 Mg365 2.099 . S
O366 C377 1.279 . S
O367 Mg363 2.117 . S
O367 C377 1.250 . S
O368 Mg365 2.079 . S
O368 C378 1.264 . S
O369 Mg365 2.072 . S
O369 C379 1.260 . S
Mg370 O371 2.180 . S
Mg370 O372 2.030 . S
Mg370 O373 1.990 . S
Mg370 O374 2.117 . S
O371 Mg365 2.099 . S
O371 Mg370 2.180 . S
O371 C380 1.279 . S
O372 Mg370 2.030 . S
O372 C378 1.248 . S
O373 Mg370 1.990 . S
O373 C379 1.253 . S
O374 Mg370 2.117 . S
O374 C380 1.250 . S
C375 O381 1.248 . S
C375 O382 1.264 . S
C376 O362 1.253 . S
C376 O364 1.260 . S
C377 O366 1.279 . S
C377 O367 1.250 . S
C378 O368 1.264 . S
C378 O372 1.248 . S
C379 O369 1.260 . S
C379 O373 1.253 . S
C380 O371 1.279 . S
C380 O374 1.250 . S
O381 Mg363 2.030 . S
O381 C375 1.248 . S
O382 Mg365 2.079 . S
O382 C375 1.264 . S
O383 Mg384 1.990 . S
O383 C397 1.253 . S
Mg384 O383 1.990 . S
Mg384 O387 2.180 . S
Mg384 O388 2.117 . S
Mg384 O402 2.030 . S
O385 Mg386 2.072 1_655 S
O385 C397 1.260 . S
Mg386 O385 2.072 1_455 S
Mg386 O387 2.099 1_455 S
Mg386 O389 2.079 . S
Mg386 O390 2.072 . S
Mg386 O392 2.099 . S
Mg386 O403 2.079 1_455 S
O387 Mg384 2.180 . S
O387 Mg386 2.099 1_655 S
O387 C398 1.279 . S
O388 Mg384 2.117 . S
O388 C398 1.250 . S
O389 Mg386 2.079 . S
O389 C399 1.264 . S
O390 Mg386 2.072 . S
O390 C400 1.260 . S
Mg391 O392 2.180 . S
Mg391 O393 2.030 . S
Mg391 O394 1.990 . S
Mg391 O395 2.117 . S
O392 Mg386 2.099 . S
O392 Mg391 2.180 . S
O392 C401 1.279 . S
O393 Mg391 2.030 . S
O393 C399 1.248 . S
O394 Mg391 1.990 . S
O394 C400 1.253 . S
O395 Mg391 2.117 . S
O395 C401 1.250 . S
C396 O402 1.248 . S
C396 O403 1.264 . S
C397 O383 1.253 . S
C397 O385 1.260 . S
C398 O387 1.279 . S
C398 O388 1.250 . S
C399 O389 1.264 . S
C399 O393 1.248 . S
C400 O390 1.260 . S
C400 O394 1.253 . S
C401 O392 1.279 . S
C401 O395 1.250 . S
O402 Mg384 2.030 . S
O402 C396 1.248 . S
O403 Mg386 2.079 1_655 S
O403 C396 1.264 . S
H404 C412 0.950 . S
H405 C417 0.950 . S
H406 C414 0.950 . S
H407 C416 0.950 . S
H408 C418 0.950 . S
H409 C420 0.950 . S
H410 C422 0.950 . S
H411 C423 0.950 . S
C412 H404 0.950 . S
C412 C413 1.386 . S
C412 C414 1.391 . S
C413 C412 1.386 . S
C413 C417 1.393 . S
C414 H406 0.950 . S
C414 C412 1.391 . S
C414 C415 1.400 . S
C415 C414 1.400 . S
C415 C416 1.398 . S
C415 C421 1.491 . S
C416 H407 0.950 . S
C416 C415 1.398 . S
C416 C417 1.391 . S
C417 H405 0.950 . S
C417 C413 1.393 . S
C417 C416 1.391 . S
C418 H408 0.950 . S
C418 C419 1.386 . S
C418 C420 1.391 . S
C419 C418 1.386 . S
C419 C423 1.393 . S
C420 H409 0.950 . S
C420 C418 1.391 . S
C420 C421 1.400 . S
C421 C415 1.491 . S
C421 C420 1.400 . S
C421 C422 1.398 . S
C422 H410 0.950 . S
C422 C421 1.398 . S
C422 C423 1.391 . S
C423 H411 0.950 . S
C423 C419 1.393 . S
C423 C422 1.391 . S
H424 C432 0.950 . S
H425 C437 0.950 . S
H426 C434 0.950 . S
H427 C436 0.950 . S
H428 C438 0.950 . S
H429 C440 0.950 . S
H430 C442 0.950 . S
H431 C443 0.950 . S
C432 H424 0.950 . S
C432 C433 1.386 . S
C432 C434 1.391 . S
C433 C432 1.386 . S
C433 C437 1.393 . S
C434 H426 0.950 . S
C434 C432 1.391 . S
C434 C435 1.400 . S
C435 C434 1.400 . S
C435 C436 1.398 . S
C435 C441 1.491 . S
C436 H427 0.950 . S
C436 C435 1.398 . S
C436 C437 1.391 . S
C437 H425 0.950 . S
C437 C433 1.393 . S
C437 C436 1.391 . S
C438 H428 0.950 . S
C438 C439 1.386 . S
C438 C440 1.391 . S
C439 C438 1.386 . S
C439 C443 1.393 . S
C440 H429 0.950 . S
C440 C438 1.391 . S
C440 C441 1.400 . S
C441 C435 1.491 . S
C441 C440 1.400 . S
C441 C442 1.398 . S
C442 H430 0.950 . S
C442 C441 1.398 . S
C442 C443 1.391 . S
C443 H431 0.950 . S
C443 C439 1.393 . S
C443 C442 1.391 . S
H444 C452 0.950 . S
H445 C457 0.950 . S
H446 C454 0.950 . S
H447 C456 0.950 . S
H448 C458 0.950 . S
H449 C460 0.950 . S
H450 C462 0.950 . S
H451 C463 0.950 . S
C452 H444 0.950 . S
C452 C453 1.386 . S
C452 C454 1.391 . S
C453 C452 1.386 . S
C453 C457 1.393 . S
C454 H446 0.950 . S
C454 C452 1.391 . S
C454 C455 1.400 . S
C455 C454 1.400 . S
C455 C456 1.398 . S
C455 C461 1.491 . S
C456 H447 0.950 . S
C456 C455 1.398 . S
C456 C457 1.391 . S
C457 H445 0.950 . S
C457 C453 1.393 . S
C457 C456 1.391 . S
C458 H448 0.950 . S
C458 C459 1.386 . S
C458 C460 1.391 . S
C459 C458 1.386 . S
C459 C463 1.393 . S
C460 H449 0.950 . S
C460 C458 1.391 . S
C460 C461 1.400 . S
C461 C455 1.491 . S
C461 C460 1.400 . S
C461 C462 1.398 . S
C462 H450 0.950 . S
C462 C461 1.398 . S
C462 C463 1.391 . S
C463 H451 0.950 . S
C463 C459 1.393 . S
C463 C462 1.391 . S
H464 C472 0.950 . S
H465 C477 0.950 . S
H466 C474 0.950 . S
H467 C476 0.950 . S
H468 C478 0.950 . S
H469 C480 0.950 . S
H470 C482 0.950 . S
H471 C483 0.950 . S
C472 H464 0.950 . S
C472 C473 1.347 1_455 S
C472 C474 1.391 . S
C473 C472 1.347 1_655 S
C473 C477 1.433 . S
C474 H466 0.950 . S
C474 C472 1.391 . S
C474 C475 1.400 1_455 S
C475 C474 1.400 1_655 S
C475 C476 1.398 . S
C475 C481 1.491 . S
C476 H467 0.950 . S
C476 C475 1.398 . S
C476 C477 1.391 . S
C477 H465 0.950 . S
C477 C473 1.433 . S
C477 C476 1.391 . S
C478 H468 0.950 . S
C478 C479 1.386 . S
C478 C480 1.391 . S
C479 C478 1.386 . S
C479 C483 1.393 1_655 S
C480 H469 0.950 . S
C480 C478 1.391 . S
C480 C481 1.400 . S
C481 C475 1.491 . S
C481 C480 1.400 . S
C481 C482 1.398 1_655 S
C482 H470 0.950 . S
C482 C481 1.398 1_455 S
C482 C483 1.391 . S
C483 H471 0.950 . S
C483 C479 1.393 1_455 S
C483 C482 1.391 . S
H484 C492 0.950 1_554 S
H485 C497 0.950 . S
H486 C494 0.950 . S
H487 C496 0.950 . S
H488 C498 0.950 . S
H489 C500 0.950 . S
H490 C502 0.950 . S
H491 C503 0.950 1_545 S
C492 H484 0.950 1_556 S
C492 C493 1.386 . S
C492 C494 1.391 . S
C493 C492 1.386 . S
C493 C497 1.393 . S
C494 H486 0.950 . S
C494 C492 1.391 . S
C494 C495 1.400 . S
C495 C494 1.400 . S
C495 C496 1.398 . S
C495 C501 1.491 . S
C496 H487 0.950 . S
C496 C495 1.398 . S
C496 C497 1.391 . S
C497 H485 0.950 . S
C497 C493 1.393 . S
C497 C496 1.391 . S
C498 H488 0.950 . S
C498 C499 1.386 . S
C498 C500 1.391 . S
C499 C498 1.386 . S
C499 C503 1.393 . S
C500 H489 0.950 . S
C500 C498 1.391 . S
C500 C501 1.400 . S
C501 C495 1.491 . S
C501 C500 1.400 . S
C501 C502 1.398 . S
C502 H490 0.950 . S
C502 C501 1.398 . S
C502 C503 1.391 . S
C503 H491 0.950 1_565 S
C503 C499 1.393 . S
C503 C502 1.391 . S
H504 C512 0.950 . S
H505 C517 0.950 . S
H506 C514 0.950 . S
H507 C516 0.950 . S
H508 C518 0.950 . S
H509 C520 0.950 . S
H510 C522 0.950 . S
H511 C523 0.950 . S
C512 H504 0.950 . S
C512 C513 1.386 1_556 S
C512 C514 1.391 . S
C513 C512 1.386 1_554 S
C513 C517 1.393 . S
C514 H506 0.950 . S
C514 C512 1.391 . S
C514 C515 1.400 . S
C515 C514 1.400 . S
C515 C516 1.398 . S
C515 C521 1.491 . S
C516 H507 0.950 . S
C516 C515 1.398 . S
C516 C517 1.391 1_556 S
C517 H505 0.950 . S
C517 C513 1.393 . S
C517 C516 1.391 1_554 S
C518 H508 0.950 . S
C518 C519 1.386 . S
C518 C520 1.391 . S
C519 C518 1.386 . S
C519 C523 1.393 . S
C520 H509 0.950 . S
C520 C518 1.391 . S
C520 C521 1.400 . S
C521 C515 1.491 . S
C521 C520 1.400 . S
C521 C522 1.398 . S
C522 H510 0.950 . S
C522 C521 1.398 . S
C522 C523 1.391 . S
C523 H511 0.950 . S
C523 C519 1.393 . S
C523 C522 1.391 . S
H524 C532 0.950 . S
H525 C537 0.950 . S
H526 C534 0.950 . S
H527 C536 0.950 . S
H528 C538 0.950 . S
H529 C540 0.950 . S
H530 C542 0.950 . S
H531 C543 0.950 . S
C532 H524 0.950 . S
C532 C533 1.386 . S
C532 C534 1.391 . S
C533 C532 1.386 . S
C533 C537 1.393 1_556 S
C534 H526 0.950 . S
C534 C532 1.391 . S
C534 C535 1.400 . S
C535 C534 1.400 . S
C535 C536 1.398 . S
C535 C541 1.491 . S
C536 H527 0.950 . S
C536 C535 1.398 . S
C536 C537 1.391 1_556 S
C537 H525 0.950 . S
C537 C533 1.393 1_554 S
C537 C536 1.391 1_554 S
C538 H528 0.950 . S
C538 C539 1.386 . S
C538 C540 1.391 . S
C539 C538 1.386 . S
C539 C543 1.393 . S
C540 H529 0.950 . S
C540 C538 1.391 . S
C540 C541 1.400 . S
C541 C535 1.491 . S
C541 C540 1.400 . S
C541 C542 1.398 . S
C542 H530 0.950 . S
C542 C541 1.398 . S
C542 C543 1.391 . S
C543 H531 0.950 . S
C543 C539 1.393 . S
C543 C542 1.391 . S
H544 C552 0.950 1_554 S
H545 C557 0.950 . S
H546 C554 0.950 . S
H547 C556 0.950 . S
H548 C558 0.950 . S
H549 C560 0.950 . S
H550 C562 0.950 . S
H551 C563 0.950 . S
C552 H544 0.950 1_556 S
C552 C553 1.374 1_656 S
C552 C554 1.391 . S
C553 C552 1.374 1_454 S
C553 C557 1.405 1_554 S
C554 H546 0.950 . S
C554 C552 1.391 . S
C554 C555 1.400 1_655 S
C555 C554 1.400 1_455 S
C555 C556 1.398 . S
C555 C561 1.491 . S
C556 H547 0.950 . S
C556 C555 1.398 . S
C556 C557 1.391 . S
C557 H545 0.950 . S
C557 C553 1.405 1_556 S
C557 C556 1.391 . S
C558 H548 0.950 . S
C558 C559 1.386 . S
C558 C560 1.391 . S
C559 C558 1.386 . S
C559 C563 1.393 1_455 S
C560 H549 0.950 . S
C560 C558 1.391 . S
C560 C561 1.400 . S
C561 C555 1.491 . S
C561 C560 1.400 . S
C561 C562 1.398 1_455 S
C562 H550 0.950 . S
C562 C561 1.398 1_655 S
C562 C563 1.391 . S
C563 H551 0.950 . S
C563 C559 1.393 1_655 S
C563 C562 1.391 . S
H564 C572 0.950 . S
H565 C577 0.950 . S
H566 C574 0.950 . S
H567 C576 0.950 . S
H568 C578 0.950 . S
H569 C580 0.950 . S
H570 C582 0.950 . S
H571 C583 0.950 . S
C572 H564 0.950 . S
C572 C573 1.386 1_655 S
C572 C574 1.391 . S
C573 C572 1.386 1_455 S
C573 C577 1.393 . S
C574 H566 0.950 . S
C574 C572 1.391 . S
C574 C575 1.400 . S
C575 C574 1.400 . S
C575 C576 1.398 1_655 S
C575 C581 1.491 . S
C576 H567 0.950 . S
C576 C575 1.398 1_455 S
C576 C577 1.391 . S
C577 H565 0.950 . S
C577 C573 1.393 . S
C577 C576 1.391 . S
C578 H568 0.950 . S
C578 C579 1.386 1_455 S
C578 C580 1.391 . S
C579 C578 1.386 1_655 S
C579 C583 1.393 . S
C580 H569 0.950 . S
C580 C578 1.391 . S
C580 C581 1.400 1_455 S
C581 C575 1.491 . S
C581 C580 1.400 1_655 S
C581 C582 1.398 . S
C582 H570 0.950 . S
C582 C581 1.398 . S
C582 C583 1.391 . S
C583 H571 0.950 . S
C583 C579 1.393 . S
C583 C582 1.391 . S
H584 C592 0.950 . S
H585 C597 0.950 . S
H586 C594 0.950 . S
H587 C596 0.950 . S
H588 C598 0.950 . S
H589 C600 0.950 . S
H590 C602 0.950 . S
H591 C603 0.950 . S
C592 H584 0.950 . S
C592 C593 1.386 . S
C592 C594 1.391 . S
C593 C592 1.386 . S
C593 C597 1.393 . S
C594 H586 0.950 . S
C594 C592 1.391 . S
C594 C595 1.400 . S
C595 C594 1.400 . S
C595 C596 1.398 . S
C595 C601 1.491 . S
C596 H587 0.950 . S
C596 C595 1.398 . S
C596 C597 1.391 . S
C597 H585 0.950 . S
C597 C593 1.393 . S
C597 C596 1.391 . S
C598 H588 0.950 . S
C598 C599 1.386 . S
C598 C600 1.391 . S
C599 C598 1.386 . S
C599 C603 1.393 . S
C600 H589 0.950 . S
C600 C598 1.391 . S
C600 C601 1.400 . S
C601 C595 1.491 . S
C601 C600 1.400 . S
C601 C602 1.398 . S
C602 H590 0.950 . S
C602 C601 1.398 . S
C602 C603 1.391 . S
C603 H591 0.950 . S
C603 C599 1.393 . S
C603 C602 1.391 . S
H604 C612 0.950 . S
H605 C617 0.950 . S
H606 C614 0.950 . S
H607 C616 0.950 . S
H608 C618 0.950 . S
H609 C620 0.950 . S
H610 C622 0.950 . S
H611 C623 0.950 . S
C612 H604 0.950 . S
C612 C613 1.386 . S
C612 C614 1.391 . S
C613 C612 1.386 . S
C613 C617 1.393 . S
C614 H606 0.950 . S
C614 C612 1.391 . S
C614 C615 1.400 . S
C615 C614 1.400 . S
C615 C616 1.398 . S
C615 C621 1.491 . S
C616 H607 0.950 . S
C616 C615 1.398 . S
C616 C617 1.391 . S
C617 H605 0.950 . S
C617 C613 1.393 . S
C617 C616 1.391 . S
C618 H608 0.950 . S
C618 C619 1.386 . S
C618 C620 1.391 . S
C619 C618 1.386 . S
C619 C623 1.393 . S
C620 H609 0.950 . S
C620 C618 1.391 . S
C620 C621 1.400 . S
C621 C615 1.491 . S
C621 C620 1.400 . S
C621 C622 1.398 . S
C622 H610 0.950 . S
C622 C621 1.398 . S
C622 C623 1.391 . S
C623 H611 0.950 . S
C623 C619 1.393 . S
C623 C622 1.391 . S
H624 C632 0.950 . S
H625 C637 0.950 . S
H626 C634 0.950 . S
H627 C636 0.950 . S
H628 C638 0.950 . S
H629 C640 0.950 . S
H630 C642 0.950 . S
H631 C643 0.950 . S
C632 H624 0.950 . S
C632 C633 1.386 . S
C632 C634 1.391 . S
C633 C632 1.386 . S
C633 C637 1.393 . S
C634 H626 0.950 . S
C634 C632 1.391 . S
C634 C635 1.400 . S
C635 C634 1.400 . S
C635 C636 1.398 . S
C635 C641 1.491 . S
C636 H627 0.950 . S
C636 C635 1.398 . S
C636 C637 1.391 . S
C637 H625 0.950 . S
C637 C633 1.393 . S
C637 C636 1.391 . S
C638 H628 0.950 . S
C638 C639 1.386 . S
C638 C640 1.391 . S
C639 C638 1.386 . S
C639 C643 1.393 . S
C640 H629 0.950 . S
C640 C638 1.391 . S
C640 C641 1.400 . S
C641 C635 1.491 . S
C641 C640 1.400 . S
C641 C642 1.398 . S
C642 H630 0.950 . S
C642 C641 1.398 . S
C642 C643 1.391 . S
C643 H631 0.950 . S
C643 C639 1.393 . S
C643 C642 1.391 . S
H644 C652 0.950 . S
H645 C657 0.950 . S
H646 C654 0.950 . S
H647 C656 0.950 . S
H648 C658 0.950 . S
H649 C660 0.950 . S
H650 C662 0.950 . S
H651 C663 0.950 . S
C652 H644 0.950 . S
C652 C653 1.386 1_455 S
C652 C654 1.391 . S
C653 C652 1.386 1_655 S
C653 C657 1.393 . S
C654 H646 0.950 . S
C654 C652 1.391 . S
C654 C655 1.400 . S
C655 C654 1.400 . S
C655 C656 1.398 1_455 S
C655 C661 1.491 . S
C656 H647 0.950 . S
C656 C655 1.398 1_655 S
C656 C657 1.391 . S
C657 H645 0.950 . S
C657 C653 1.393 . S
C657 C656 1.391 . S
C658 H648 0.950 . S
C658 C659 1.386 1_655 S
C658 C660 1.391 . S
C659 C658 1.386 1_455 S
C659 C663 1.393 . S
C660 H649 0.950 . S
C660 C658 1.391 . S
C660 C661 1.400 1_655 S
C661 C655 1.491 . S
C661 C660 1.400 1_455 S
C661 C662 1.398 . S
C662 H650 0.950 . S
C662 C661 1.398 . S
C662 C663 1.391 . S
C663 H651 0.950 . S
C663 C659 1.393 . S
C663 C662 1.391 . S
H664 C672 0.950 . S
H665 C677 0.950 . S
H666 C674 0.950 . S
H667 C676 0.950 . S
H668 C678 0.926 1_545 S
H669 C680 0.950 . S
H670 C682 0.950 . S
H671 C683 0.950 . S
C672 H664 0.950 . S
C672 C673 1.386 . S
C672 C674 1.391 . S
C673 C672 1.386 . S
C673 C677 1.393 . S
C674 H666 0.950 . S
C674 C672 1.391 . S
C674 C675 1.400 . S
C675 C674 1.400 . S
C675 C676 1.398 . S
C675 C681 1.491 . S
C676 H667 0.950 . S
C676 C675 1.398 . S
C676 C677 1.391 . S
C677 H665 0.950 . S
C677 C673 1.393 . S
C677 C676 1.391 . S
C678 H668 0.926 1_565 S
C678 C679 1.390 . S
C678 C680 1.411 . S
C679 C678 1.390 . S
C679 C683 1.393 . S
C680 H669 0.950 . S
C680 C678 1.411 . S
C680 C681 1.400 . S
C681 C675 1.491 . S
C681 C680 1.400 . S
C681 C682 1.398 . S
C682 H670 0.950 . S
C682 C681 1.398 . S
C682 C683 1.391 . S
C683 H671 0.950 . S
C683 C679 1.393 . S
C683 C682 1.391 . S
H684 C692 0.950 . S
H685 C697 0.950 . S
H686 C694 0.950 . S
H687 C696 0.950 . S
H688 C698 0.950 . S
H689 C700 0.950 . S
H690 C702 0.950 . S
H691 C703 0.950 . S
C692 H684 0.950 . S
C692 C693 1.386 . S
C692 C694 1.391 . S
C693 C692 1.386 . S
C693 C697 1.393 . S
C694 H686 0.950 . S
C694 C692 1.391 . S
C694 C695 1.400 . S
C695 C694 1.400 . S
C695 C696 1.398 . S
C695 C701 1.491 . S
C696 H687 0.950 . S
C696 C695 1.398 . S
C696 C697 1.391 . S
C697 H685 0.950 . S
C697 C693 1.393 . S
C697 C696 1.391 . S
C698 H688 0.950 . S
C698 C699 1.386 . S
C698 C700 1.391 . S
C699 C698 1.386 . S
C699 C703 1.393 . S
C700 H689 0.950 . S
C700 C698 1.391 . S
C700 C701 1.400 . S
C701 C695 1.491 . S
C701 C700 1.400 . S
C701 C702 1.398 . S
C702 H690 0.950 . S
C702 C701 1.398 . S
C702 C703 1.391 . S
C703 H691 0.950 . S
C703 C699 1.393 . S
C703 C702 1.391 . S
H704 C712 0.950 . S
H705 C717 0.950 . S
H706 C714 0.950 . S
H707 C716 0.950 . S
H708 C718 0.950 . S
H709 C720 0.950 . S
H710 C722 0.950 . S
H711 C723 0.950 . S
C712 H704 0.950 . S
C712 C713 1.386 . S
C712 C714 1.391 . S
C713 C712 1.386 . S
C713 C717 1.393 . S
C714 H706 0.950 . S
C714 C712 1.391 . S
C714 C715 1.400 . S
C715 C714 1.400 . S
C715 C716 1.398 . S
C715 C721 1.491 . S
C716 H707 0.950 . S
C716 C715 1.398 . S
C716 C717 1.391 . S
C717 H705 0.950 . S
C717 C713 1.393 . S
C717 C716 1.391 . S
C718 H708 0.950 . S
C718 C719 1.386 . S
C718 C720 1.391 . S
C719 C718 1.386 . S
C719 C723 1.393 . S
C720 H709 0.950 . S
C720 C718 1.391 . S
C720 C721 1.400 . S
C721 C715 1.491 . S
C721 C720 1.400 . S
C721 C722 1.398 . S
C722 H710 0.950 . S
C722 C721 1.398 . S
C722 C723 1.391 . S
C723 H711 0.950 . S
C723 C719 1.393 . S
C723 C722 1.391 . S
H724 C732 0.950 1_554 S
H725 C737 0.950 . S
H726 C734 0.950 . S
H727 C736 0.950 . S
H728 C738 0.950 . S
H729 C740 0.950 . S
H730 C742 0.950 . S
H731 C743 0.950 . S
C732 H724 0.950 1_556 S
C732 C733 1.361 1_655 S
C732 C734 1.391 . S
C733 C732 1.361 1_455 S
C733 C737 1.419 . S
C734 H726 0.950 . S
C734 C732 1.391 . S
C734 C735 1.400 1_655 S
C735 C734 1.400 1_455 S
C735 C736 1.398 . S
C735 C741 1.491 . S
C736 H727 0.950 . S
C736 C735 1.398 . S
C736 C737 1.391 . S
C737 H725 0.950 . S
C737 C733 1.419 . S
C737 C736 1.391 . S
C738 H728 0.950 . S
C738 C739 1.386 . S
C738 C740 1.391 . S
C739 C738 1.386 . S
C739 C743 1.393 1_455 S
C740 H729 0.950 . S
C740 C738 1.391 . S
C740 C741 1.400 . S
C741 C735 1.491 . S
C741 C740 1.400 . S
C741 C742 1.398 1_455 S
C742 H730 0.950 . S
C742 C741 1.398 1_655 S
C742 C743 1.391 . S
C743 H731 0.950 . S
C743 C739 1.393 1_655 S
C743 C742 1.391 . S
H744 C752 0.950 . S
H745 C757 0.950 1_554 S
H746 C754 0.950 . S
H747 C756 0.950 . S
H748 C758 0.950 . S
H749 C760 0.950 . S
H750 C762 0.950 . S
H751 C763 0.950 . S
C752 H744 0.950 . S
C752 C753 1.386 . S
C752 C754 1.391 . S
C753 C752 1.386 . S
C753 C757 1.393 . S
C754 H746 0.950 . S
C754 C752 1.391 . S
C754 C755 1.400 . S
C755 C754 1.400 . S
C755 C756 1.398 . S
C755 C761 1.491 . S
C756 H747 0.950 . S
C756 C755 1.398 . S
C756 C757 1.391 . S
C757 H745 0.950 1_556 S
C757 C753 1.393 . S
C757 C756 1.391 . S
C758 H748 0.950 . S
C758 C759 1.386 . S
C758 C760 1.391 . S
C759 C758 1.386 . S
C759 C763 1.393 . S
C760 H749 0.950 . S
C760 C758 1.391 . S
C760 C761 1.400 . S
C761 C755 1.491 . S
C761 C760 1.400 . S
C761 C762 1.398 . S
C762 H750 0.950 . S
C762 C761 1.398 . S
C762 C763 1.391 . S
C763 H751 0.950 . S
C763 C759 1.393 . S
C763 C762 1.391 . S
H764 C772 0.950 . S
H765 C777 0.950 . S
H766 C774 0.950 . S
H767 C776 0.950 . S
H768 C778 0.950 . S
H769 C780 0.950 . S
H770 C782 0.950 . S
H771 C783 0.950 . S
C772 H764 0.950 . S
C772 C773 1.386 . S
C772 C774 1.391 . S
C773 C772 1.386 . S
C773 C777 1.393 1_556 S
C774 H766 0.950 . S
C774 C772 1.391 . S
C774 C775 1.400 . S
C775 C774 1.400 . S
C775 C776 1.398 . S
C775 C781 1.491 . S
C776 H767 0.950 . S
C776 C775 1.398 . S
C776 C777 1.391 1_556 S
C777 H765 0.950 . S
C777 C773 1.393 1_554 S
C777 C776 1.391 1_554 S
C778 H768 0.950 . S
C778 C779 1.386 . S
C778 C780 1.391 . S
C779 C778 1.386 . S
C779 C783 1.393 . S
C780 H769 0.950 . S
C780 C778 1.391 . S
C780 C781 1.400 . S
C781 C775 1.491 . S
C781 C780 1.400 . S
C781 C782 1.398 . S
C782 H770 0.950 . S
C782 C781 1.398 . S
C782 C783 1.391 . S
C783 H771 0.950 . S
C783 C779 1.393 . S
C783 C782 1.391 . S
H784 C792 0.950 . S
H785 C797 0.950 . S
H786 C794 0.950 . S
H787 C796 0.950 1_554 S
H788 C798 0.950 . S
H789 C800 0.950 . S
H790 C802 0.950 . S
H791 C803 0.950 . S
C792 H784 0.950 . S
C792 C793 1.386 . S
C792 C794 1.391 . S
C793 C792 1.386 . S
C793 C797 1.393 1_556 S
C794 H786 0.950 . S
C794 C792 1.391 . S
C794 C795 1.400 . S
C795 C794 1.400 . S
C795 C796 1.398 . S
C795 C801 1.491 . S
C796 H787 0.950 1_556 S
C796 C795 1.398 . S
C796 C797 1.391 1_556 S
C797 H785 0.950 . S
C797 C793 1.393 1_554 S
C797 C796 1.391 1_554 S
C798 H788 0.950 . S
C798 C799 1.386 . S
C798 C800 1.391 . S
C799 C798 1.386 . S
C799 C803 1.393 . S
C800 H789 0.950 . S
C800 C798 1.391 . S
C800 C801 1.400 . S
C801 C795 1.491 . S
C801 C800 1.400 . S
C801 C802 1.398 . S
C802 H790 0.950 . S
C802 C801 1.398 . S
C802 C803 1.391 . S
C803 H791 0.950 . S
C803 C799 1.393 . S
C803 C802 1.391 . S
H804 C812 0.950 . S
H805 C817 0.950 . S
H806 C814 0.950 . S
H807 C816 0.950 . S
H808 C818 0.950 . S
H809 C820 0.950 . S
H810 C822 0.950 . S
H811 C823 0.950 . S
C812 H804 0.950 . S
C812 C813 1.386 1_455 S
C812 C814 1.391 . S
C813 C812 1.386 1_655 S
C813 C817 1.393 . S
C814 H806 0.950 . S
C814 C812 1.391 . S
C814 C815 1.400 1_455 S
C815 C814 1.400 1_655 S
C815 C816 1.398 . S
C815 C821 1.491 . S
C816 H807 0.950 . S
C816 C815 1.398 . S
C816 C817 1.391 . S
C817 H805 0.950 . S
C817 C813 1.393 . S
C817 C816 1.391 . S
C818 H808 0.950 . S
C818 C819 1.386 . S
C818 C820 1.391 . S
C819 C818 1.386 . S
C819 C823 1.393 1_655 S
C820 H809 0.950 . S
C820 C818 1.391 . S
C820 C821 1.400 . S
C821 C815 1.491 . S
C821 C820 1.400 . S
C821 C822 1.398 1_655 S
C822 H810 0.950 . S
C822 C821 1.398 1_455 S
C822 C823 1.391 . S
C823 H811 0.950 . S
C823 C819 1.393 1_455 S
C823 C822 1.391 . S
H824 C832 0.950 . S
H825 C837 0.950 . S
H826 C834 0.950 . S
H827 C836 0.950 . S
H828 C838 0.950 . S
H829 C840 0.950 . S
H830 C842 0.950 . S
H831 C843 0.950 . S
C832 H824 0.950 . S
C832 C833 1.386 . S
C832 C834 1.391 . S
C833 C832 1.386 . S
C833 C837 1.393 . S
C834 H826 0.950 . S
C834 C832 1.391 . S
C834 C835 1.400 . S
C835 C834 1.400 . S
C835 C836 1.398 . S
C835 C841 1.491 . S
C836 H827 0.950 . S
C836 C835 1.398 . S
C836 C837 1.391 . S
C837 H825 0.950 . S
C837 C833 1.393 . S
C837 C836 1.391 . S
C838 H828 0.950 . S
C838 C839 1.386 . S
C838 C840 1.391 . S
C839 C838 1.386 . S
C839 C843 1.393 . S
C840 H829 0.950 . S
C840 C838 1.391 . S
C840 C841 1.400 . S
C841 C835 1.491 . S
C841 C840 1.400 . S
C841 C842 1.398 . S
C842 H830 0.950 . S
C842 C841 1.398 . S
C842 C843 1.391 . S
C843 H831 0.950 . S
C843 C839 1.393 . S
C843 C842 1.391 . S
H844 C852 0.950 . S
H845 C857 0.950 . S
H846 C854 0.950 . S
H847 C856 0.950 . S
H848 C858 0.950 . S
H849 C860 0.950 . S
H850 C862 0.950 . S
H851 C863 0.950 . S
C852 H844 0.950 . S
C852 C853 1.386 . S
C852 C854 1.391 . S
C853 C852 1.386 . S
C853 C857 1.393 . S
C854 H846 0.950 . S
C854 C852 1.391 . S
C854 C855 1.400 . S
C855 C854 1.400 . S
C855 C856 1.398 . S
C855 C861 1.491 . S
C856 H847 0.950 . S
C856 C855 1.398 . S
C856 C857 1.391 . S
C857 H845 0.950 . S
C857 C853 1.393 . S
C857 C856 1.391 . S
C858 H848 0.950 . S
C858 C859 1.386 . S
C858 C860 1.391 . S
C859 C858 1.386 . S
C859 C863 1.393 . S
C860 H849 0.950 . S
C860 C858 1.391 . S
C860 C861 1.400 . S
C861 C855 1.491 . S
C861 C860 1.400 . S
C861 C862 1.398 . S
C862 H850 0.950 . S
C862 C861 1.398 . S
C862 C863 1.391 . S
C863 H851 0.950 . S
C863 C859 1.393 . S
C863 C862 1.391 . S
H864 C872 0.950 . S
H865 C877 0.950 . S
H866 C874 0.950 . S
H867 C876 0.950 . S
H868 C878 0.950 . S
H869 C880 0.950 . S
H870 C882 0.950 . S
H871 C883 0.950 . S
C872 H864 0.950 . S
C872 C873 1.386 . S
C872 C874 1.391 . S
C873 C872 1.386 . S
C873 C877 1.393 . S
C874 H866 0.950 . S
C874 C872 1.391 . S
C874 C875 1.400 . S
C875 C874 1.400 . S
C875 C876 1.398 . S
C875 C881 1.491 . S
C876 H867 0.950 . S
C876 C875 1.398 . S
C876 C877 1.391 . S
C877 H865 0.950 . S
C877 C873 1.393 . S
C877 C876 1.391 . S
C878 H868 0.950 . S
C878 C879 1.386 . S
C878 C880 1.391 . S
C879 C878 1.386 . S
C879 C883 1.393 . S
C880 H869 0.950 . S
C880 C878 1.391 . S
C880 C881 1.400 . S
C881 C875 1.491 . S
C881 C880 1.400 . S
C881 C882 1.398 . S
C882 H870 0.950 . S
C882 C881 1.398 . S
C882 C883 1.391 . S
C883 H871 0.950 . S
C883 C879 1.393 . S
C883 C882 1.391 . S
C413 C255 2.061 . S
C419 C335 2.028 . S
C439 C359 1.431 . S
C433 C295 1.609 . S
C459 C380 1.986 . S
C453 C175 2.046 . S
C479 C398 1.456 . S
C473 C215 1.628 1_655 S
C499 C338 1.912 1_565 S
C493 C95 1.954 1_556 S
C513 C135 1.504 . S
C519 C356 1.318 . S
C533 C15 1.905 1_556 S
C539 C377 1.893 . S
C553 C55 1.489 . S
C559 C401 1.320 . S
C579 C336 0.433 . S
C573 C221 0.382 . S
C599 C354 0.759 . S
C593 C261 0.759 . S
C619 C375 0.436 . S
C613 C301 0.394 . S
C633 C181 0.791 . S
C639 C399 0.801 . S
C653 C61 0.527 1_655 S
C659 C334 0.446 . S
C679 C358 0.833 1_565 S
C673 C101 0.763 . S
C699 C379 0.402 . S
C693 C141 0.452 . S
C713 C21 0.835 . S
C719 C397 0.854 . S
C733 C202 2.055 1_556 S
C739 C337 2.042 . S
C753 C242 2.355 1_556 S
C759 C355 2.328 . S
C779 C376 1.992 . S
C773 C282 2.001 1_556 S
C799 C400 2.341 . S
C793 C162 2.368 1_556 S
C813 C42 1.919 1_655 S
C819 C333 1.887 . S
C839 C357 2.166 . S
C833 C82 2.113 . S
C859 C378 1.864 . S
C853 C122 1.923 . S
C873 C2 2.144 . S
C879 C396 2.199 . S
