# Generated by pormake.
# Topology rtl, (3,6)-cn, num edge types: 1
# Building blocks:
#     Node 0, Type 0, BuildingBlock: OLANEW_clean_sbu_2, # of connection points: 3
#     Node 1, Type 0, BuildingBlock: OLANEW_clean_sbu_2, # of connection points: 3
#     Node 2, Type 0, BuildingBlock: OLANEW_clean_sbu_2, # of connection points: 3
#     Node 3, Type 0, BuildingBlock: OLANEW_clean_sbu_2, # of connection points: 3
#     Node 4, Type 1, BuildingBlock: LEVNOQ01_clean_sbu_1, # of connection points: 6
#     Node 5, Type 1, BuildingBlock: LEVNOQ01_clean_sbu_1, # of connection points: 6
#     Edge 6, Type (0, 1), BuildingBlock: XUDNAN_clean_linker_2, # of connection points: 2
#     Edge 7, Type (0, 1), BuildingBlock: XUDNAN_clean_linker_2, # of connection points: 2
#     Edge 8, Type (0, 1), BuildingBlock: XUDNAN_clean_linker_2, # of connection points: 2
#     Edge 9, Type (0, 1), BuildingBlock: XUDNAN_clean_linker_2, # of connection points: 2
#     Edge 10, Type (0, 1), BuildingBlock: XUDNAN_clean_linker_2, # of connection points: 2
#     Edge 11, Type (0, 1), BuildingBlock: XUDNAN_clean_linker_2, # of connection points: 2
#     Edge 12, Type (0, 1), BuildingBlock: XUDNAN_clean_linker_2, # of connection points: 2
#     Edge 13, Type (0, 1), BuildingBlock: XUDNAN_clean_linker_2, # of connection points: 2
#     Edge 14, Type (0, 1), BuildingBlock: XUDNAN_clean_linker_2, # of connection points: 2
#     Edge 15, Type (0, 1), BuildingBlock: XUDNAN_clean_linker_2, # of connection points: 2
#     Edge 16, Type (0, 1), BuildingBlock: XUDNAN_clean_linker_2, # of connection points: 2
#     Edge 17, Type (0, 1), BuildingBlock: XUDNAN_clean_linker_2, # of connection points: 2
# Relax obj value: 0.015
# Max RMSD: 0.121
# Mean RMSD: 0.076
data_MOF--net-rtl--node1-OLANEW_clean_sbu_2--node2-LEVNOQ01_clean_sbu_1--edge1-XUDNAN_clean_linker_2
_symmetry_space_group_name_H-M    P1
_symmetry_Int_Tables_number       1
_symmetry_cell_setting            triclinic
loop_
_symmetry_equiv_pos_as_xyz
'x, y, z'
_cell_length_a     38.307789
_cell_length_b     38.036393
_cell_length_c     24.349512
_cell_angle_alpha  87.267419
_cell_angle_beta   101.07067
_cell_angle_gamma 89.974354
loop_
_atom_site_label
_atom_site_type_symbol
_atom_site_fract_x
_atom_site_fract_y
_atom_site_fract_z
_atom_type_partial_charge
O0 O 0.16904 0.83279 0.98592 0.0
Cd1 Cd 0.20069 0.79704 0.0672 0.0
O2 O 0.18731 0.88007 0.03146 0.0
Cd3 Cd 0.20781 0.8551 0.11369 0.0
O4 O 0.19578 0.85603 0.19763 0.0
C5 C 0.18899 0.88608 0.21411 0.0
O6 O 0.19228 0.91417 0.18199 0.0
C7 C 0.17104 0.86615 0.98735 0.0
C8 C 0.25969 0.76102 0.04543 0.0
O9 O 0.23083 0.74462 0.04824 0.0
O10 O 0.26065 0.79415 0.05281 0.0
O11 O 0.66899 0.70329 0.67107 0.0
Cd12 Cd 0.68104 0.73634 0.58853 0.0
O13 O 0.67677 0.65152 0.63824 0.0
Cd14 Cd 0.6887 0.67273 0.55914 0.0
O15 O 0.67188 0.67126 0.46857 0.0
C16 C 0.63991 0.66117 0.45515 0.0
O17 O 0.62183 0.65482 0.49524 0.0
C18 C 0.66906 0.66988 0.67659 0.0
C19 C 0.74019 0.77965 0.61079 0.0
O20 O 0.70965 0.79019 0.61788 0.0
O21 O 0.74278 0.74848 0.59401 0.0
O22 O 0.77622 0.19653 0.10294 0.0
Cd23 Cd 0.74773 0.21325 0.00615 0.0
O24 O 0.81605 0.18098 0.05566 0.0
Cd25 Cd 0.86466 0.15742 0.04013 0.0
O26 O 0.89237 0.14394 0.97387 0.0
C27 C 0.87434 0.12785 0.93349 0.0
O28 O 0.84152 0.11885 0.93578 0.0
C29 C 0.80614 0.18244 0.10227 0.0
C30 C 0.70637 0.27426 0.99093 0.0
O31 O 0.69275 0.24406 -0.00137 0.0
O32 O 0.73987 0.27569 0.9915 0.0
O33 O 0.29098 0.32954 0.57887 0.0
Cd34 Cd 0.2645 0.30912 0.48588 0.0
O35 O 0.32326 0.3649 0.53497 0.0
Cd36 Cd 0.29269 0.36253 0.45022 0.0
O37 O 0.2899 0.38356 0.36495 0.0
C38 C 0.28865 0.4168 0.35636 0.0
O39 O 0.28573 0.43667 0.39798 0.0
C40 C 0.31657 0.35097 0.58022 0.0
C41 C 0.21731 0.25317 0.48139 0.0
O42 O 0.25071 0.24815 0.4991 0.0
O43 O 0.20595 0.28459 0.46707 0.0
O44 O 0.95181 0.07707 0.54906 0.0
Mg45 Mg 0.00119 0.05036 0.57582 0.0
O46 O 0.94853 0.02563 0.58785 0.0
Mg47 Mg -0.01263 0.00062 0.53107 0.0
O48 O 0.03254 0.04532 0.52014 0.0
O49 O 0.03804 0.08782 0.58238 0.0
O50 O 0.02556 0.97199 0.48086 0.0
O51 O 0.95377 0.03167 0.45302 0.0
Mg52 Mg 0.95118 0.95566 0.45198 0.0
O53 O 0.946 0.95395 0.53562 0.0
O54 O -0.00471 0.93089 0.43247 0.0
O55 O 0.92419 -0.00536 0.39561 0.0
O56 O 0.91785 0.91869 0.46958 0.0
C57 C 0.02601 0.99085 0.6571 0.0
C58 C 0.93826 0.05764 0.58239 0.0
C59 C 0.04819 0.07342 0.54128 0.0
C60 C 0.02435 0.94595 0.44943 0.0
C61 C 0.93197 0.0259 0.40791 0.0
C62 C 0.92421 0.92814 0.52065 0.0
O63 O 0.0148 0.02229 0.65491 0.0
O64 O 0.0219 0.97438 0.612 0.0
O65 O 0.52122 0.5153 0.1504 0.0
Mg66 Mg 0.50436 0.46887 0.10849 0.0
O67 O 0.50642 0.55253 0.07614 0.0
Mg68 Mg 0.47967 0.51915 0.00245 0.0
O69 O 0.51764 0.47208 0.03131 0.0
O70 O 0.54096 0.43171 0.09768 0.0
O71 O 0.45667 0.47948 0.93176 0.0
O72 O 0.52332 0.54075 0.95694 0.0
Mg73 Mg 0.44583 0.54439 0.90431 0.0
O74 O 0.4424 0.57001 0.9761 0.0
O75 O 0.4088 0.50448 0.88251 0.0
O76 O 0.49339 0.5472 0.87064 0.0
O77 O 0.42116 0.59127 0.88812 0.0
C78 C 0.42751 0.47506 0.08221 0.0
C79 C 0.51983 0.5462 0.12785 0.0
C80 C 0.53897 0.44557 0.04778 0.0
C81 C 0.42757 0.47725 0.89655 0.0
C82 C 0.52255 0.54801 0.90525 0.0
C83 C 0.4251 0.59411 0.94145 0.0
O84 O 0.45154 0.45339 0.10525 0.0
O85 O 0.43445 0.50043 0.04987 0.0
H86 H 0.20615 0.20789 0.56573 0.0
H87 H 0.1724 0.23272 0.38805 0.0
H88 H 0.13069 0.18247 0.38101 0.0
H89 H 0.19812 0.11237 0.56547 0.0
H90 H 0.17961 0.10967 0.62823 0.0
H91 H 0.20983 0.14456 0.61778 0.0
H92 H 0.16295 0.19114 0.6308 0.0
H93 H 0.13295 0.15638 0.64216 0.0
H94 H 0.11899 0.19025 0.58806 0.0
H95 H 0.09125 0.13018 0.39482 0.0
H96 H 0.05087 0.08757 0.43074 0.0
H97 H 0.1079 0.10084 0.60003 0.0
C98 C 0.19033 0.20226 0.52529 0.0
C99 C 0.19263 0.22347 0.4772 0.0
C100 C 0.17093 0.21634 0.42516 0.0
C101 C 0.14746 0.1878 0.42077 0.0
C102 C 0.14572 0.16717 0.46909 0.0
C103 C 0.16611 0.17457 0.52056 0.0
C104 C 0.15623 0.15139 0.56726 0.0
C105 C 0.18784 0.12812 0.59638 0.0
C106 C 0.14192 0.17361 0.60952 0.0
C107 C 0.12719 0.12975 0.53417 0.0
C108 C 0.12189 0.13861 0.47746 0.0
C109 C 0.09534 0.12287 0.43911 0.0
C110 C 0.07276 0.0985 0.45966 0.0
C111 C 0.07666 0.09089 0.51791 0.0
C112 C 0.10476 0.10599 0.55519 0.0
H113 H 0.28641 0.6953 0.08303 0.0
H114 H 0.30173 0.78568 0.97511 0.0
H115 H 0.35078 0.75442 0.94486 0.0
H116 H 0.38439 0.67353 0.12345 0.0
H117 H 0.37645 0.62685 0.12707 0.0
H118 H 0.34433 0.65725 0.14379 0.0
H119 H 0.2952 0.63054 0.06961 0.0
H120 H 0.32712 0.60012 0.05293 0.0
H121 H 0.30167 0.62859 -0.00163 0.0
H122 H 0.39181 0.71164 0.91741 0.0
H123 H 0.42535 0.66022 0.89691 0.0
H124 H 0.38836 0.59806 0.028 0.0
C125 C 0.3005 0.70851 0.05357 0.0
C126 C 0.29041 0.74278 0.03108 0.0
C127 C 0.30935 0.75952 -0.00705 0.0
C128 C 0.33721 0.742 0.97564 0.0
C129 C 0.34649 0.70818 -0.00173 0.0
C130 C 0.32923 0.69175 0.03717 0.0
C131 C 0.3444 0.65504 0.05409 0.0
C132 C 0.36353 0.65305 0.11577 0.0
C133 C 0.31536 0.62693 0.04303 0.0
C134 C 0.37086 0.65247 0.0153 0.0
C135 C 0.37194 0.68376 0.98427 0.0
C136 C 0.39191 0.68729 0.94232 0.0
C137 C 0.41079 0.65794 0.93091 0.0
C138 C 0.40979 0.62549 0.96145 0.0
C139 C 0.39028 0.6229 0.00516 0.0
H140 H 0.80191 0.77174 0.57259 0.0
H141 H 0.74735 0.84215 0.66364 0.0
H142 H 0.79638 0.88477 0.66664 0.0
H143 H 0.89513 0.79388 0.63768 0.0
H144 H 0.90952 0.79168 0.57164 0.0
H145 H 0.87385 0.76411 0.5864 0.0
H146 H 0.83278 0.78899 0.49559 0.0
H147 H 0.86828 0.81628 0.48043 0.0
H148 H 0.82612 0.83593 0.48474 0.0
H149 H 0.84761 0.92316 0.64798 0.0
H150 H 0.89238 0.95444 0.60269 0.0
H151 H 0.91189 0.85872 0.52351 0.0
C152 C 0.80078 0.79562 0.59474 0.0
C153 C 0.77106 0.80348 0.61842 0.0
C154 C 0.77005 0.83551 0.6455 0.0
C155 C 0.79789 0.85978 0.64771 0.0
C156 C 0.82653 0.85158 0.6227 0.0
C157 C 0.82804 0.82019 0.59668 0.0
C158 C 0.85885 0.81944 0.56624 0.0
C159 C 0.88595 0.79056 0.59207 0.0
C160 C 0.84571 0.81492 0.50305 0.0
C161 C 0.87382 0.85571 0.5776 0.0
C162 C 0.85544 0.87375 0.61119 0.0
C163 C 0.86264 0.90902 0.62258 0.0
C164 C 0.88822 0.92657 0.59708 0.0
C165 C 0.90561 0.90881 0.56014 0.0
C166 C 0.89923 0.87271 0.55227 0.0
H167 H 0.63429 0.27853 0.98055 0.0
H168 H 0.72805 0.34283 0.98345 0.0
H169 H 0.69085 0.39652 0.97699 0.0
H170 H 0.57011 0.34099 0.88618 0.0
H171 H 0.53531 0.3304 0.92443 0.0
H172 H 0.56799 0.29747 0.918 0.0
H173 H 0.58391 0.28807 0.02617 0.0
H174 H 0.55107 0.32039 0.03275 0.0
H175 H 0.5965 0.32543 0.06828 0.0
H176 H 0.64507 0.44256 0.9849 0.0
H177 H 0.59664 0.47541 0.01494 0.0
H178 H 0.53352 0.38095 0.00747 0.0
C179 C 0.64691 0.3039 0.97853 0.0
C180 C 0.68403 0.30651 0.98242 0.0
C181 C 0.69959 0.3402 0.98025 0.0
C182 C 0.67862 0.37085 0.97615 0.0
C183 C 0.64208 0.36736 0.97339 0.0
C184 C 0.6264 0.33463 0.9743 0.0
C185 C 0.58751 0.33765 0.97757 0.0
C186 C 0.56383 0.32593 0.92331 0.0
C187 C 0.57932 0.31668 0.02927 0.0
C188 C 0.58437 0.37692 0.98282 0.0
C189 C 0.61571 0.39388 0.97816 0.0
C190 C 0.62014 0.42974 0.98715 0.0
C191 C 0.59248 0.44829 0.0038 0.0
C192 C 0.56132 0.43066 0.01203 0.0
C193 C 0.55677 0.39503 -0.00045 0.0
H194 H 0.16767 0.94633 0.25634 0.0
H195 H 0.17248 0.83268 0.28398 0.0
H196 H 0.13778 0.83722 0.35883 0.0
H197 H 0.17032 0.96759 0.40662 0.0
H198 H 0.13952 0.00385 0.38619 0.0
H199 H 0.16979 0.99235 0.34146 0.0
H200 H 0.11658 0.98623 0.25901 0.0
H201 H 0.08625 -0.00243 0.30338 0.0
H202 H 0.08085 0.95691 0.26765 0.0
H203 H 0.0944 0.85266 0.41753 0.0
H204 H 0.04699 0.8784 0.45934 0.0
H205 H 0.07174 0.98239 0.39801 0.0
C206 C 0.16233 0.92246 0.27922 0.0
C207 C 0.1729 0.88913 0.26436 0.0
C208 C 0.16486 0.85851 0.29475 0.0
C209 C 0.14522 0.86083 0.33747 0.0
C210 C 0.13426 0.894 0.34988 0.0
C211 C 0.14288 0.92435 0.32217 0.0
C212 C 0.12505 0.95639 0.33995 0.0
C213 C 0.15283 0.98153 0.37038 0.0
C214 C 0.10074 0.97536 0.2895 0.0
C215 C 0.10369 0.93911 0.37996 0.0
C216 C 0.10976 0.90312 0.38551 0.0
C217 C 0.0902 0.88088 0.41492 0.0
C218 C 0.06332 0.89567 0.43839 0.0
C219 C 0.0565 0.93233 0.43282 0.0
C220 C 0.07744 0.95444 0.40441 0.0
H221 H 0.63975 0.6047 0.68166 0.0
H222 H 0.6683 0.69667 0.77869 0.0
H223 H 0.64088 0.67021 0.85467 0.0
H224 H 0.55585 0.59658 0.70964 0.0
H225 H 0.55502 0.54914 0.71359 0.0
H226 H 0.58291 0.57167 0.67212 0.0
H227 H 0.63797 0.53729 0.72746 0.0
H228 H 0.61015 0.51447 0.76916 0.0
H229 H 0.64838 0.53831 0.80277 0.0
H230 H 0.60678 0.63599 0.91668 0.0
H231 H 0.56238 0.6003 0.95513 0.0
H232 H 0.55077 0.53372 0.81334 0.0
C233 C 0.64125 0.61875 0.71968 0.0
C234 C 0.65672 0.65245 0.72483 0.0
C235 C 0.65699 0.67063 0.77428 0.0
C236 C 0.64163 0.65573 0.81771 0.0
C237 C 0.62596 0.62275 0.81085 0.0
C238 C 0.62543 0.60456 0.76289 0.0
C239 C 0.60301 0.57173 0.76278 0.0
C240 C 0.57238 0.57236 0.71152 0.0
C241 C 0.62627 0.53848 0.76572 0.0
C242 C 0.5895 0.57525 0.81677 0.0
C243 C 0.6042 0.60409 0.84491 0.0
C244 C 0.59539 0.61316 0.89534 0.0
C245 C 0.57031 0.59268 0.91696 0.0
C246 C 0.55357 0.56425 0.88726 0.0
C247 C 0.56357 0.55517 0.83693 0.0
H248 H 0.80917 0.11319 0.13353 0.0
H249 H 0.85113 0.21466 0.18496 0.0
H250 H 0.88809 0.18596 0.27046 0.0
H251 H 0.80371 0.07819 0.2727 0.0
H252 H 0.8158 0.03413 0.25894 0.0
H253 H 0.79296 0.06291 0.20254 0.0
H254 H 0.84353 0.05376 0.14731 0.0
H255 H 0.86649 0.02495 0.20351 0.0
H256 H 0.8888 0.06281 0.17977 0.0
H257 H 0.9209 0.14527 0.34971 0.0
H258 H 0.94656 0.09649 0.4161 0.0
H259 H 0.88167 0.02219 0.31205 0.0
C260 C 0.82614 0.12923 0.16303 0.0
C261 C 0.8276 0.16593 0.15334 0.0
C262 C 0.84984 0.18642 0.19232 0.0
C263 C 0.87082 0.17036 0.24074 0.0
C264 C 0.86881 0.13392 0.24935 0.0
C265 C 0.84688 0.11368 0.21163 0.0
C266 C 0.84929 0.07516 0.23055 0.0
C267 C 0.81331 0.06182 0.24186 0.0
C268 C 0.86285 0.05287 0.18774 0.0
C269 C 0.87646 0.0767 0.28434 0.0
C270 C 0.88734 0.11078 0.29474 0.0
C271 C 0.91247 0.1185 0.34202 0.0
C272 C 0.92687 0.09063 0.37951 0.0
C273 C 0.91616 0.05549 0.36934 0.0
C274 C 0.89051 0.04869 0.32113 0.0
H275 H 0.29809 0.36683 0.68008 0.0
H276 H 0.38793 0.35587 0.59764 0.0
H277 H 0.42821 0.37656 0.68095 0.0
H278 H 0.32206 0.44615 0.73405 0.0
H279 H 0.30786 0.43861 0.80004 0.0
H280 H 0.28725 0.41513 0.74024 0.0
H281 H 0.30323 0.356 0.79688 0.0
H282 H 0.32425 0.37947 0.85691 0.0
H283 H 0.34886 0.34645 0.82915 0.0
H284 H 0.45791 0.40374 0.7673 0.0
H285 H 0.47354 0.44418 0.84446 0.0
H286 H 0.36424 0.44357 0.86783 0.0
C287 C 0.32642 0.3676 0.68074 0.0
C288 C 0.34017 0.35908 0.63321 0.0
C289 C 0.3771 0.36182 0.63415 0.0
C290 C 0.4002 0.37328 0.6814 0.0
C291 C 0.38594 0.38217 0.72737 0.0
C292 C 0.34987 0.37982 0.7274 0.0
C293 C 0.34089 0.39617 0.77866 0.0
C294 C 0.31289 0.42578 0.76221 0.0
C295 C 0.32857 0.36783 0.81771 0.0
C296 C 0.37698 0.41029 0.80486 0.0
C297 C 0.40288 0.40032 0.77612 0.0
C298 C 0.43803 0.41129 0.79075 0.0
C299 C 0.44672 0.4341 0.83472 0.0
C300 C 0.4201 0.44652 0.86204 0.0
C301 C 0.38504 0.43387 0.84787 0.0
H302 H 0.57563 0.63151 0.41833 0.0
H303 H 0.66864 0.67237 0.36038 0.0
H304 H 0.64303 0.6547 0.26449 0.0
H305 H 0.56874 0.5561 0.34515 0.0
H306 H 0.5208 0.55533 0.33026 0.0
H307 H 0.54381 0.57634 0.39115 0.0
H308 H 0.50867 0.63421 0.35754 0.0
H309 H 0.4856 0.61332 0.29619 0.0
H310 H 0.50956 0.65348 0.28875 0.0
H311 H 0.60895 0.62802 0.17649 0.0
H312 H 0.57287 0.58974 0.10797 0.0
H313 H 0.50494 0.56403 0.22689 0.0
C314 C 0.59035 0.63753 0.38534 0.0
C315 C 0.62397 0.65364 0.3967 0.0
C316 C 0.64266 0.66033 0.35247 0.0
C317 C 0.62825 0.65054 0.29787 0.0
C318 C 0.59516 0.63422 0.28836 0.0
C319 C 0.57657 0.62769 0.33109 0.0
C320 C 0.54347 0.60654 0.31193 0.0
C321 C 0.5443 0.57151 0.34666 0.0
C322 C 0.50983 0.62819 0.31371 0.0
C323 C 0.54702 0.60078 0.25234 0.0
C324 C 0.57636 0.61781 0.23877 0.0
C325 C 0.58569 0.61499 0.18647 0.0
C326 C 0.56503 0.59343 0.14777 0.0
C327 C 0.53614 0.57451 0.16244 0.0
C328 C 0.52669 0.57876 0.21477 0.0
H329 H 0.84699 0.08586 0.84727 0.0
H330 H 0.9348 0.15547 0.90545 0.0
H331 H 0.95801 0.14685 0.81927 0.0
H332 H 0.89718 0.02388 0.78705 0.0
H333 H 0.86199 0.01611 0.7283 0.0
H334 H 0.85135 0.02889 0.79347 0.0
H335 H 0.81433 0.08174 0.74161 0.0
H336 H 0.82498 0.06923 0.67623 0.0
H337 H 0.83489 0.11293 0.69996 0.0
H338 H 0.9707 0.1325 0.72726 0.0
H339 H 0.97688 0.10797 0.63823 0.0
H340 H 0.88344 0.04375 0.64045 0.0
C341 C 0.87111 0.09928 0.84187 0.0
C342 C 0.88905 0.12143 0.88301 0.0
C343 C 0.92065 0.13835 0.87459 0.0
C344 C 0.93392 0.13377 0.82565 0.0
C345 C 0.91542 0.11202 0.78581 0.0
C346 C 0.88498 0.09468 0.79352 0.0
C347 C 0.87105 0.07179 0.74477 0.0
C348 C 0.87038 0.03286 0.7646 0.0
C349 C 0.83412 0.08469 0.71382 0.0
C350 C 0.89891 0.07844 0.70895 0.0
C351 C 0.92367 0.10243 0.73309 0.0
C352 C 0.95153 0.11372 0.70793 0.0
C353 C 0.95459 0.09979 0.65708 0.0
C354 C 0.93032 0.07432 0.63211 0.0
C355 C 0.9021 0.0634 0.65844 0.0
H356 H 0.30917 0.38293 0.27133 0.0
H357 H 0.28846 0.48694 0.32423 0.0
H358 H 0.31141 0.51363 0.24394 0.0
H359 H 0.38991 0.40087 0.24298 0.0
H360 H 0.38655 0.37399 0.18321 0.0
H361 H 0.36083 0.36341 0.23591 0.0
H362 H 0.30305 0.36631 0.16017 0.0
H363 H 0.32875 0.37709 0.107 0.0
H364 H 0.29269 0.40552 0.1154 0.0
H365 H 0.34451 0.52889 0.16652 0.0
H366 H 0.38979 0.53107 0.10651 0.0
H367 H 0.3914 0.41716 0.10801 0.0
C368 C 0.30822 0.41131 0.26493 0.0
C369 C 0.29662 0.43283 0.30366 0.0
C370 C 0.29682 0.4699 0.29469 0.0
C371 C 0.30966 0.48531 0.24902 0.0
C372 C 0.32196 0.46329 0.2125 0.0
C373 C 0.32128 0.42703 0.22004 0.0
C374 C 0.34073 0.40919 0.18037 0.0
C375 C 0.37131 0.38552 0.21256 0.0
C376 C 0.31475 0.38829 0.13823 0.0
C377 C 0.35444 0.44101 0.15178 0.0
C378 C 0.34223 0.47202 0.16923 0.0
C379 C 0.35362 0.5048 0.1517 0.0
C380 C 0.37918 0.50582 0.11733 0.0
C381 C 0.39366 0.47425 0.10237 0.0
C382 C 0.3802 0.44161 0.1182 0.0
H383 H 0.13713 0.84887 0.88033 0.0
H384 H 0.16147 0.93672 0.98889 0.0
H385 H 0.12639 0.97617 0.91676 0.0
H386 H 0.14174 0.90028 0.75015 0.0
H387 H 0.10566 0.87728 0.70857 0.0
H388 H 0.13322 0.85503 0.76846 0.0
H389 H 0.07712 0.83984 0.80929 0.0
H390 H 0.04944 0.86234 0.74979 0.0
H391 H 0.04756 0.87475 0.8197 0.0
H392 H 0.08654 0.00562 0.83859 0.0
H393 H 0.04856 0.02651 0.75071 0.0
H394 H 0.0508 0.92208 0.68589 0.0
C395 C 0.13528 0.87645 0.8886 0.0
C396 C 0.15206 0.88954 0.9406 0.0
C397 C 0.14903 0.92588 0.94965 0.0
C398 C 0.12899 0.94861 0.90895 0.0
C399 C 0.11236 0.93489 0.85887 0.0
C400 C 0.11561 0.89992 0.84776 0.0
C401 C 0.09515 0.89275 0.78937 0.0
C402 C 0.12046 0.88062 0.75192 0.0
C403 C 0.06556 0.86582 0.79224 0.0
C404 C 0.07973 0.92914 0.77015 0.0
C405 C 0.08991 0.95271 0.81154 0.0
C406 C 0.07863 0.9876 0.80548 0.0
C407 C 0.05683 -0.00088 0.75525 0.0
C408 C 0.0467 0.97603 0.711 0.0
C409 C 0.05818 0.94039 0.71877 0.0
loop_
_geom_bond_atom_site_label_1
_geom_bond_atom_site_label_2
_geom_bond_distance
_geom_bond_site_symmetry_2
_ccdc_geom_bond_type
O0 Cd1 2.300 1_556 S
O0 C7 1.275 1_556 S
Cd1 O0 2.300 1_554 S
Cd1 O9 2.381 . S
Cd1 O10 2.378 . S
O2 Cd3 2.385 . S
O2 C7 1.255 . S
Cd3 O2 2.385 . S
Cd3 O4 2.317 . S
O4 Cd3 2.317 . S
O4 C5 1.232 . S
C5 O4 1.232 . S
C5 O6 1.218 . S
O6 C5 1.218 . S
C7 O0 1.275 1_554 S
C7 O2 1.255 . S
C8 O9 1.258 . S
C8 O10 1.256 . S
O9 Cd1 2.381 . S
O9 C8 1.258 . S
O10 Cd1 2.378 . S
O10 C8 1.256 . S
O11 Cd12 2.300 . S
O11 C18 1.275 . S
Cd12 O11 2.300 . S
Cd12 O20 2.381 . S
Cd12 O21 2.378 . S
O13 Cd14 2.385 . S
O13 C18 1.255 . S
Cd14 O13 2.385 . S
Cd14 O15 2.317 . S
O15 Cd14 2.317 . S
O15 C16 1.232 . S
C16 O15 1.232 . S
C16 O17 1.218 . S
O17 C16 1.218 . S
C18 O11 1.275 . S
C18 O13 1.255 . S
C19 O20 1.258 . S
C19 O21 1.256 . S
O20 Cd12 2.381 . S
O20 C19 1.258 . S
O21 Cd12 2.378 . S
O21 C19 1.256 . S
O22 Cd23 2.300 . S
O22 C29 1.275 . S
Cd23 O22 2.300 . S
Cd23 O31 2.381 . S
Cd23 O32 2.378 1_554 S
O24 Cd25 2.385 1_554 S
O24 C29 1.255 . S
Cd25 O24 2.385 1_556 S
Cd25 O26 2.317 . S
O26 Cd25 2.317 . S
O26 C27 1.232 . S
C27 O26 1.232 . S
C27 O28 1.218 . S
O28 C27 1.218 . S
C29 O22 1.275 . S
C29 O24 1.255 . S
C30 O31 1.258 . S
C30 O32 1.256 1_554 S
O31 Cd23 2.381 . S
O31 C30 1.258 . S
O32 Cd23 2.378 1_556 S
O32 C30 1.256 1_556 S
O33 Cd34 2.300 . S
O33 C40 1.275 . S
Cd34 O33 2.300 . S
Cd34 O42 2.381 . S
Cd34 O43 2.378 . S
O35 Cd36 2.385 . S
O35 C40 1.255 . S
Cd36 O35 2.385 . S
Cd36 O37 2.317 . S
O37 Cd36 2.317 . S
O37 C38 1.232 . S
C38 O37 1.232 . S
C38 O39 1.218 . S
O39 C38 1.218 . S
C40 O33 1.275 . S
C40 O35 1.255 . S
C41 O42 1.258 . S
C41 O43 1.256 . S
O42 Cd34 2.381 . S
O42 C41 1.258 . S
O43 Cd34 2.378 . S
O43 C41 1.256 . S
O44 Mg45 1.990 . S
O44 C58 1.253 1_455 S
Mg45 O44 1.990 . S
Mg45 O48 2.180 . S
Mg45 O49 2.117 . S
Mg45 O63 2.030 . S
O46 Mg47 2.072 1_655 S
O46 C58 1.260 . S
Mg47 O46 2.072 1_455 S
Mg47 O48 2.099 . S
Mg47 O50 2.079 1_545 S
Mg47 O51 2.072 1_455 S
Mg47 O53 2.099 1_445 S
Mg47 O64 2.079 1_545 S
O48 Mg45 2.180 . S
O48 Mg47 2.099 . S
O48 C59 1.279 . S
O49 Mg45 2.117 . S
O49 C59 1.250 . S
O50 Mg47 2.079 1_565 S
O50 C60 1.264 . S
O51 Mg47 2.072 1_655 S
O51 C61 1.260 . S
Mg52 O53 2.180 . S
Mg52 O54 2.030 1_655 S
Mg52 O55 1.990 1_565 S
Mg52 O56 2.117 . S
O53 Mg47 2.099 1_665 S
O53 Mg52 2.180 . S
O53 C62 1.279 . S
O54 Mg52 2.030 1_455 S
O54 C60 1.248 . S
O55 Mg52 1.990 1_545 S
O55 C61 1.253 . S
O56 Mg52 2.117 . S
O56 C62 1.250 . S
C57 O63 1.248 1_565 S
C57 O64 1.264 . S
C58 O44 1.253 1_655 S
C58 O46 1.260 . S
C59 O48 1.279 . S
C59 O49 1.250 . S
C60 O50 1.264 . S
C60 O54 1.248 . S
C61 O51 1.260 . S
C61 O55 1.253 . S
C62 O53 1.279 . S
C62 O56 1.250 . S
O63 Mg45 2.030 . S
O63 C57 1.248 1_545 S
O64 Mg47 2.079 1_565 S
O64 C57 1.264 . S
O65 Mg66 1.990 . S
O65 C79 1.253 . S
Mg66 O65 1.990 . S
Mg66 O69 2.180 . S
Mg66 O70 2.117 . S
Mg66 O84 2.030 . S
O67 Mg68 2.072 . S
O67 C79 1.260 . S
Mg68 O67 2.072 . S
Mg68 O69 2.099 . S
Mg68 O71 2.079 1_554 S
Mg68 O72 2.072 1_554 S
Mg68 O74 2.099 1_554 S
Mg68 O85 2.079 . S
O69 Mg66 2.180 . S
O69 Mg68 2.099 . S
O69 C80 1.279 . S
O70 Mg66 2.117 . S
O70 C80 1.250 . S
O71 Mg68 2.079 1_556 S
O71 C81 1.264 . S
O72 Mg68 2.072 1_556 S
O72 C82 1.260 . S
Mg73 O74 2.180 . S
Mg73 O75 2.030 . S
Mg73 O76 1.990 . S
Mg73 O77 2.117 . S
O74 Mg68 2.099 1_556 S
O74 Mg73 2.180 . S
O74 C83 1.279 . S
O75 Mg73 2.030 . S
O75 C81 1.248 . S
O76 Mg73 1.990 . S
O76 C82 1.253 . S
O77 Mg73 2.117 . S
O77 C83 1.250 . S
C78 O84 1.248 . S
C78 O85 1.264 . S
C79 O65 1.253 . S
C79 O67 1.260 . S
C80 O69 1.279 . S
C80 O70 1.250 . S
C81 O71 1.264 . S
C81 O75 1.248 . S
C82 O72 1.260 . S
C82 O76 1.253 . S
C83 O74 1.279 . S
C83 O77 1.250 . S
O84 Mg66 2.030 . S
O84 C78 1.248 . S
O85 Mg68 2.079 . S
O85 C78 1.264 . S
H86 C98 0.930 . S
H87 C100 0.930 . S
H88 C101 0.930 . S
H89 C105 0.959 . S
H90 C105 0.959 . S
H91 C105 0.961 . S
H92 C106 0.960 . S
H93 C106 0.961 . S
H94 C106 0.959 . S
H95 C109 0.929 . S
H96 C110 0.931 . S
H97 C112 0.930 . S
C98 H86 0.930 . S
C98 C99 1.399 . S
C98 C103 1.399 . S
C99 C98 1.399 . S
C99 C100 1.376 . S
C100 H87 0.930 . S
C100 C99 1.376 . S
C100 C101 1.388 . S
C101 H88 0.930 . S
C101 C100 1.388 . S
C101 C102 1.390 . S
C102 C101 1.390 . S
C102 C103 1.394 . S
C102 C108 1.465 . S
C103 C98 1.399 . S
C103 C102 1.394 . S
C103 C104 1.516 . S
C104 C103 1.516 . S
C104 C105 1.502 . S
C104 C106 1.561 . S
C104 C107 1.526 . S
C105 H89 0.959 . S
C105 H90 0.959 . S
C105 H91 0.961 . S
C105 C104 1.502 . S
C106 H92 0.960 . S
C106 H93 0.961 . S
C106 H94 0.959 . S
C106 C104 1.561 . S
C107 C104 1.526 . S
C107 C108 1.396 . S
C107 C112 1.390 . S
C108 C102 1.465 . S
C108 C107 1.396 . S
C108 C109 1.399 . S
C109 H95 0.929 . S
C109 C108 1.399 . S
C109 C110 1.385 . S
C110 H96 0.931 . S
C110 C109 1.385 . S
C110 C111 1.389 . S
C111 C110 1.389 . S
C111 C112 1.387 . S
C112 H97 0.930 . S
C112 C107 1.390 . S
C112 C111 1.387 . S
H113 C125 0.930 . S
H114 C127 0.930 1_556 S
H115 C128 0.930 . S
H116 C132 0.959 . S
H117 C132 0.959 . S
H118 C132 0.961 . S
H119 C133 0.960 . S
H120 C133 0.961 . S
H121 C133 0.959 . S
H122 C136 0.929 . S
H123 C137 0.931 . S
H124 C139 0.930 . S
C125 H113 0.930 . S
C125 C126 1.399 . S
C125 C130 1.399 . S
C126 C125 1.399 . S
C126 C127 1.376 . S
C127 H114 0.930 1_554 S
C127 C126 1.376 . S
C127 C128 1.388 1_554 S
C128 H115 0.930 . S
C128 C127 1.388 1_556 S
C128 C129 1.390 1_556 S
C129 C128 1.390 1_554 S
C129 C130 1.394 . S
C129 C135 1.465 . S
C130 C125 1.399 . S
C130 C129 1.394 . S
C130 C131 1.516 . S
C131 C130 1.516 . S
C131 C132 1.502 . S
C131 C133 1.561 . S
C131 C134 1.526 . S
C132 H116 0.959 . S
C132 H117 0.959 . S
C132 H118 0.961 . S
C132 C131 1.502 . S
C133 H119 0.960 . S
C133 H120 0.961 . S
C133 H121 0.959 . S
C133 C131 1.561 . S
C134 C131 1.526 . S
C134 C135 1.396 . S
C134 C139 1.390 . S
C135 C129 1.465 . S
C135 C134 1.396 . S
C135 C136 1.399 1_554 S
C136 H122 0.929 . S
C136 C135 1.399 1_556 S
C136 C137 1.385 . S
C137 H123 0.931 . S
C137 C136 1.385 . S
C137 C138 1.389 1_556 S
C138 C137 1.389 1_554 S
C138 C139 1.387 . S
C139 H124 0.930 . S
C139 C134 1.390 . S
C139 C138 1.387 . S
H140 C152 0.930 . S
H141 C154 0.930 . S
H142 C155 0.930 . S
H143 C159 0.959 . S
H144 C159 0.959 . S
H145 C159 0.961 . S
H146 C160 0.960 . S
H147 C160 0.961 . S
H148 C160 0.959 . S
H149 C163 0.929 . S
H150 C164 0.931 . S
H151 C166 0.930 . S
C152 H140 0.930 . S
C152 C153 1.399 . S
C152 C157 1.399 . S
C153 C152 1.399 . S
C153 C154 1.376 . S
C154 H141 0.930 . S
C154 C153 1.376 . S
C154 C155 1.388 . S
C155 H142 0.930 . S
C155 C154 1.388 . S
C155 C156 1.390 . S
C156 C155 1.390 . S
C156 C157 1.394 . S
C156 C162 1.465 . S
C157 C152 1.399 . S
C157 C156 1.394 . S
C157 C158 1.516 . S
C158 C157 1.516 . S
C158 C159 1.502 . S
C158 C160 1.561 . S
C158 C161 1.526 . S
C159 H143 0.959 . S
C159 H144 0.959 . S
C159 H145 0.961 . S
C159 C158 1.502 . S
C160 H146 0.960 . S
C160 H147 0.961 . S
C160 H148 0.959 . S
C160 C158 1.561 . S
C161 C158 1.526 . S
C161 C162 1.396 . S
C161 C166 1.390 . S
C162 C156 1.465 . S
C162 C161 1.396 . S
C162 C163 1.399 . S
C163 H149 0.929 . S
C163 C162 1.399 . S
C163 C164 1.385 . S
C164 H150 0.931 . S
C164 C163 1.385 . S
C164 C165 1.389 . S
C165 C164 1.389 . S
C165 C166 1.387 . S
C166 H151 0.930 . S
C166 C161 1.390 . S
C166 C165 1.387 . S
H167 C179 0.930 . S
H168 C181 0.930 . S
H169 C182 0.930 . S
H170 C186 0.959 . S
H171 C186 0.959 . S
H172 C186 0.961 . S
H173 C187 0.960 . S
H174 C187 0.961 . S
H175 C187 0.959 . S
H176 C190 0.929 . S
H177 C191 0.931 . S
H178 C193 0.930 . S
C179 H167 0.930 . S
C179 C180 1.399 1_556 S
C179 C184 1.399 1_556 S
C180 C179 1.399 1_554 S
C180 C181 1.376 . S
C181 H168 0.930 . S
C181 C180 1.376 . S
C181 C182 1.388 . S
C182 H169 0.930 . S
C182 C181 1.388 . S
C182 C183 1.390 . S
C183 C182 1.390 . S
C183 C184 1.394 . S
C183 C189 1.465 . S
C184 C179 1.399 1_554 S
C184 C183 1.394 . S
C184 C185 1.516 1_554 S
C185 C184 1.516 1_556 S
C185 C186 1.502 . S
C185 C187 1.561 1_556 S
C185 C188 1.522 1_556 S
C186 H170 0.959 . S
C186 H171 0.959 . S
C186 H172 0.961 . S
C186 C185 1.502 . S
C187 H173 0.960 . S
C187 H174 0.961 . S
C187 H175 0.959 . S
C187 C185 1.561 1_554 S
C188 C185 1.522 1_554 S
C188 C189 1.400 . S
C188 C193 1.390 1_554 S
C189 C183 1.465 . S
C189 C188 1.400 . S
C189 C190 1.399 . S
C190 H176 0.929 . S
C190 C189 1.399 . S
C190 C191 1.385 . S
C191 H177 0.931 . S
C191 C190 1.385 . S
C191 C192 1.389 . S
C192 C191 1.389 . S
C192 C193 1.387 1_554 S
C193 H178 0.930 . S
C193 C188 1.390 1_556 S
C193 C192 1.387 1_556 S
H194 C206 0.930 . S
H195 C208 0.930 . S
H196 C209 0.930 . S
H197 C213 0.959 . S
H198 C213 0.970 . S
H199 C213 0.961 . S
H200 C214 0.960 1_545 S
H201 C214 0.961 1_545 S
H202 C214 0.959 . S
H203 C217 0.929 . S
H204 C218 0.931 . S
H205 C220 0.930 . S
C206 H194 0.930 . S
C206 C207 1.399 . S
C206 C211 1.399 . S
C207 C206 1.399 . S
C207 C208 1.376 . S
C208 H195 0.930 . S
C208 C207 1.376 . S
C208 C209 1.388 . S
C209 H196 0.930 . S
C209 C208 1.388 . S
C209 C210 1.390 . S
C210 C209 1.390 . S
C210 C211 1.394 . S
C210 C216 1.465 . S
C211 C206 1.399 . S
C211 C210 1.394 . S
C211 C212 1.516 . S
C212 C211 1.516 . S
C212 C213 1.502 . S
C212 C214 1.561 . S
C212 C215 1.526 . S
C213 H197 0.959 . S
C213 H198 0.970 . S
C213 H199 0.961 . S
C213 C212 1.502 . S
C214 H200 0.960 1_565 S
C214 H201 0.961 1_565 S
C214 H202 0.959 . S
C214 C212 1.561 . S
C215 C212 1.526 . S
C215 C216 1.396 . S
C215 C220 1.390 . S
C216 C210 1.465 . S
C216 C215 1.396 . S
C216 C217 1.399 . S
C217 H203 0.929 . S
C217 C216 1.399 . S
C217 C218 1.385 . S
C218 H204 0.931 . S
C218 C217 1.385 . S
C218 C219 1.389 . S
C219 C218 1.389 . S
C219 C220 1.387 . S
C220 H205 0.930 . S
C220 C215 1.390 . S
C220 C219 1.387 . S
H221 C233 0.930 . S
H222 C235 0.930 . S
H223 C236 0.930 . S
H224 C240 0.959 . S
H225 C240 0.959 . S
H226 C240 0.961 . S
H227 C241 0.960 . S
H228 C241 0.961 . S
H229 C241 0.959 . S
H230 C244 0.929 . S
H231 C245 0.931 . S
H232 C247 0.930 . S
C233 H221 0.930 . S
C233 C234 1.399 . S
C233 C238 1.399 . S
C234 C233 1.399 . S
C234 C235 1.376 . S
C235 H222 0.930 . S
C235 C234 1.376 . S
C235 C236 1.388 . S
C236 H223 0.930 . S
C236 C235 1.388 . S
C236 C237 1.390 . S
C237 C236 1.390 . S
C237 C238 1.394 . S
C237 C243 1.465 . S
C238 C233 1.399 . S
C238 C237 1.394 . S
C238 C239 1.516 . S
C239 C238 1.516 . S
C239 C240 1.502 . S
C239 C241 1.561 . S
C239 C242 1.526 . S
C240 H224 0.959 . S
C240 H225 0.959 . S
C240 H226 0.961 . S
C240 C239 1.502 . S
C241 H227 0.960 . S
C241 H228 0.961 . S
C241 H229 0.959 . S
C241 C239 1.561 . S
C242 C239 1.526 . S
C242 C243 1.396 . S
C242 C247 1.390 . S
C243 C237 1.465 . S
C243 C242 1.396 . S
C243 C244 1.399 . S
C244 H230 0.929 . S
C244 C243 1.399 . S
C244 C245 1.385 . S
C245 H231 0.931 . S
C245 C244 1.385 . S
C245 C246 1.389 . S
C246 C245 1.389 . S
C246 C247 1.387 . S
C247 H232 0.930 . S
C247 C242 1.390 . S
C247 C246 1.387 . S
H248 C260 0.930 . S
H249 C262 0.930 . S
H250 C263 0.930 . S
H251 C267 0.959 . S
H252 C267 0.959 . S
H253 C267 0.961 . S
H254 C268 0.960 . S
H255 C268 0.961 . S
H256 C268 0.959 . S
H257 C271 0.929 . S
H258 C272 0.931 . S
H259 C274 0.930 . S
C260 H248 0.930 . S
C260 C261 1.399 . S
C260 C265 1.399 . S
C261 C260 1.399 . S
C261 C262 1.376 . S
C262 H249 0.930 . S
C262 C261 1.376 . S
C262 C263 1.388 . S
C263 H250 0.930 . S
C263 C262 1.388 . S
C263 C264 1.390 . S
C264 C263 1.390 . S
C264 C265 1.394 . S
C264 C270 1.465 . S
C265 C260 1.399 . S
C265 C264 1.394 . S
C265 C266 1.516 . S
C266 C265 1.516 . S
C266 C267 1.502 . S
C266 C268 1.561 . S
C266 C269 1.526 . S
C267 H251 0.959 . S
C267 H252 0.959 . S
C267 H253 0.961 . S
C267 C266 1.502 . S
C268 H254 0.960 . S
C268 H255 0.961 . S
C268 H256 0.959 . S
C268 C266 1.561 . S
C269 C266 1.526 . S
C269 C270 1.396 . S
C269 C274 1.390 . S
C270 C264 1.465 . S
C270 C269 1.396 . S
C270 C271 1.399 . S
C271 H257 0.929 . S
C271 C270 1.399 . S
C271 C272 1.385 . S
C272 H258 0.931 . S
C272 C271 1.385 . S
C272 C273 1.389 . S
C273 C272 1.389 . S
C273 C274 1.387 . S
C274 H259 0.930 . S
C274 C269 1.390 . S
C274 C273 1.387 . S
H275 C287 0.930 . S
H276 C289 0.930 . S
H277 C290 0.930 . S
H278 C294 0.959 . S
H279 C294 0.959 . S
H280 C294 0.961 . S
H281 C295 0.960 . S
H282 C295 0.961 . S
H283 C295 0.959 . S
H284 C298 0.929 . S
H285 C299 0.931 . S
H286 C301 0.930 . S
C287 H275 0.930 . S
C287 C288 1.399 . S
C287 C292 1.399 . S
C288 C287 1.399 . S
C288 C289 1.376 . S
C289 H276 0.930 . S
C289 C288 1.376 . S
C289 C290 1.388 . S
C290 H277 0.930 . S
C290 C289 1.388 . S
C290 C291 1.390 . S
C291 C290 1.390 . S
C291 C292 1.394 . S
C291 C297 1.465 . S
C292 C287 1.399 . S
C292 C291 1.394 . S
C292 C293 1.516 . S
C293 C292 1.516 . S
C293 C294 1.502 . S
C293 C295 1.561 . S
C293 C296 1.526 . S
C294 H278 0.959 . S
C294 H279 0.959 . S
C294 H280 0.961 . S
C294 C293 1.502 . S
C295 H281 0.960 . S
C295 H282 0.961 . S
C295 H283 0.959 . S
C295 C293 1.561 . S
C296 C293 1.526 . S
C296 C297 1.396 . S
C296 C301 1.390 . S
C297 C291 1.465 . S
C297 C296 1.396 . S
C297 C298 1.399 . S
C298 H284 0.929 . S
C298 C297 1.399 . S
C298 C299 1.385 . S
C299 H285 0.931 . S
C299 C298 1.385 . S
C299 C300 1.389 . S
C300 C299 1.389 . S
C300 C301 1.387 . S
C301 H286 0.930 . S
C301 C296 1.390 . S
C301 C300 1.387 . S
H302 C314 0.930 . S
H303 C316 0.930 . S
H304 C317 0.930 . S
H305 C321 0.959 . S
H306 C321 0.959 . S
H307 C321 0.961 . S
H308 C322 0.960 . S
H309 C322 0.961 . S
H310 C322 0.959 . S
H311 C325 0.929 . S
H312 C326 0.931 . S
H313 C328 0.930 . S
C314 H302 0.930 . S
C314 C315 1.399 . S
C314 C319 1.399 . S
C315 C314 1.399 . S
C315 C316 1.376 . S
C316 H303 0.930 . S
C316 C315 1.376 . S
C316 C317 1.388 . S
C317 H304 0.930 . S
C317 C316 1.388 . S
C317 C318 1.390 . S
C318 C317 1.390 . S
C318 C319 1.394 . S
C318 C324 1.465 . S
C319 C314 1.399 . S
C319 C318 1.394 . S
C319 C320 1.516 . S
C320 C319 1.516 . S
C320 C321 1.502 . S
C320 C322 1.561 . S
C320 C323 1.526 . S
C321 H305 0.959 . S
C321 H306 0.959 . S
C321 H307 0.961 . S
C321 C320 1.502 . S
C322 H308 0.960 . S
C322 H309 0.961 . S
C322 H310 0.959 . S
C322 C320 1.561 . S
C323 C320 1.526 . S
C323 C324 1.396 . S
C323 C328 1.390 . S
C324 C318 1.465 . S
C324 C323 1.396 . S
C324 C325 1.399 . S
C325 H311 0.929 . S
C325 C324 1.399 . S
C325 C326 1.385 . S
C326 H312 0.931 . S
C326 C325 1.385 . S
C326 C327 1.389 . S
C327 C326 1.389 . S
C327 C328 1.387 . S
C328 H313 0.930 . S
C328 C323 1.390 . S
C328 C327 1.387 . S
H329 C341 0.930 . S
H330 C343 0.930 . S
H331 C344 0.930 . S
H332 C348 0.959 . S
H333 C348 0.959 . S
H334 C348 0.961 . S
H335 C349 0.960 . S
H336 C349 0.961 . S
H337 C349 0.959 . S
H338 C352 0.929 . S
H339 C353 0.931 1_455 S
H340 C355 0.930 . S
C341 H329 0.930 . S
C341 C342 1.399 . S
C341 C346 1.399 . S
C342 C341 1.399 . S
C342 C343 1.376 . S
C343 H330 0.930 . S
C343 C342 1.376 . S
C343 C344 1.388 . S
C344 H331 0.930 . S
C344 C343 1.388 . S
C344 C345 1.390 . S
C345 C344 1.390 . S
C345 C346 1.394 . S
C345 C351 1.465 . S
C346 C341 1.399 . S
C346 C345 1.394 . S
C346 C347 1.516 . S
C347 C346 1.516 . S
C347 C348 1.502 . S
C347 C349 1.561 . S
C347 C350 1.526 . S
C348 H332 0.959 . S
C348 H333 0.959 . S
C348 H334 0.961 . S
C348 C347 1.502 . S
C349 H335 0.960 . S
C349 H336 0.961 . S
C349 H337 0.959 . S
C349 C347 1.561 . S
C350 C347 1.526 . S
C350 C351 1.396 . S
C350 C355 1.390 . S
C351 C345 1.465 . S
C351 C350 1.396 . S
C351 C352 1.399 . S
C352 H338 0.929 . S
C352 C351 1.399 . S
C352 C353 1.385 . S
C353 H339 0.931 1_655 S
C353 C352 1.385 . S
C353 C354 1.389 . S
C354 C353 1.389 . S
C354 C355 1.387 . S
C355 H340 0.930 . S
C355 C350 1.390 . S
C355 C354 1.387 . S
H356 C368 0.930 . S
H357 C370 0.930 . S
H358 C371 0.930 . S
H359 C375 0.959 . S
H360 C375 0.959 . S
H361 C375 0.961 . S
H362 C376 0.960 . S
H363 C376 0.961 . S
H364 C376 0.959 . S
H365 C379 0.929 . S
H366 C380 0.931 . S
H367 C382 0.930 . S
C368 H356 0.930 . S
C368 C369 1.399 . S
C368 C373 1.399 . S
C369 C368 1.399 . S
C369 C370 1.376 . S
C370 H357 0.930 . S
C370 C369 1.376 . S
C370 C371 1.388 . S
C371 H358 0.930 . S
C371 C370 1.388 . S
C371 C372 1.390 . S
C372 C371 1.390 . S
C372 C373 1.394 . S
C372 C378 1.465 . S
C373 C368 1.399 . S
C373 C372 1.394 . S
C373 C374 1.516 . S
C374 C373 1.516 . S
C374 C375 1.502 . S
C374 C376 1.561 . S
C374 C377 1.526 . S
C375 H359 0.959 . S
C375 H360 0.959 . S
C375 H361 0.961 . S
C375 C374 1.502 . S
C376 H362 0.960 . S
C376 H363 0.961 . S
C376 H364 0.959 . S
C376 C374 1.561 . S
C377 C374 1.526 . S
C377 C378 1.396 . S
C377 C382 1.390 . S
C378 C372 1.465 . S
C378 C377 1.396 . S
C378 C379 1.399 . S
C379 H365 0.929 . S
C379 C378 1.399 . S
C379 C380 1.385 . S
C380 H366 0.931 . S
C380 C379 1.385 . S
C380 C381 1.389 . S
C381 C380 1.389 . S
C381 C382 1.387 . S
C382 H367 0.930 . S
C382 C377 1.390 . S
C382 C381 1.387 . S
H383 C395 0.930 . S
H384 C397 0.930 1_554 S
H385 C398 0.930 . S
H386 C402 0.959 . S
H387 C402 0.959 . S
H388 C402 0.961 . S
H389 C403 0.960 . S
H390 C403 0.961 . S
H391 C403 0.959 . S
H392 C406 0.930 . S
H393 C407 0.931 1_545 S
H394 C409 0.930 . S
C395 H383 0.930 . S
C395 C396 1.399 . S
C395 C400 1.399 . S
C396 C395 1.399 . S
C396 C397 1.376 . S
C397 H384 0.930 1_556 S
C397 C396 1.376 . S
C397 C398 1.388 . S
C398 H385 0.930 . S
C398 C397 1.388 . S
C398 C399 1.390 . S
C399 C398 1.390 . S
C399 C400 1.394 . S
C399 C405 1.465 . S
C400 C395 1.399 . S
C400 C399 1.394 . S
C400 C401 1.516 . S
C401 C400 1.516 . S
C401 C402 1.502 . S
C401 C403 1.561 . S
C401 C404 1.526 . S
C402 H386 0.959 . S
C402 H387 0.959 . S
C402 H388 0.961 . S
C402 C401 1.502 . S
C403 H389 0.960 . S
C403 H390 0.961 . S
C403 H391 0.959 . S
C403 C401 1.561 . S
C404 C401 1.526 . S
C404 C405 1.396 . S
C404 C409 1.390 . S
C405 C399 1.465 . S
C405 C404 1.396 . S
C405 C406 1.399 . S
C406 H392 0.930 . S
C406 C405 1.399 . S
C406 C407 1.385 . S
C407 H393 0.931 1_565 S
C407 C406 1.385 . S
C407 C408 1.389 . S
C408 C407 1.389 . S
C408 C409 1.387 . S
C409 H394 0.930 . S
C409 C404 1.390 . S
C409 C408 1.387 . S
C111 C59 1.317 . S
C99 C41 1.430 . S
C126 C8 1.433 . S
C138 C83 1.219 1_554 S
C153 C19 1.641 . S
C165 C62 1.479 . S
C180 C30 1.552 . S
C192 C80 1.312 . S
C219 C60 1.472 . S
C207 C5 1.422 . S
C246 C82 1.592 . S
C234 C18 1.652 . S
C261 C29 1.543 . S
C273 C61 1.590 . S
C288 C40 1.586 . S
C300 C81 1.531 . S
C327 C79 1.384 . S
C315 C16 1.265 . S
C354 C58 1.375 . S
C342 C27 1.226 . S
C381 C78 1.314 . S
C369 C38 1.163 . S
C396 C7 1.393 1_556 S
C408 C57 1.311 . S
