# Generated by pormake.
# Topology gar, (4,6)-cn, num edge types: 1
# Building blocks:
#     Node 0, Type 0, BuildingBlock: KUFVIS_clean_sbu_0, # of connection points: 4
#     Node 1, Type 0, BuildingBlock: KUFVIS_clean_sbu_0, # of connection points: 4
#     Node 2, Type 0, BuildingBlock: KUFVIS_clean_sbu_0, # of connection points: 4
#     Node 3, Type 0, BuildingBlock: KUFVIS_clean_sbu_0, # of connection points: 4
#     Node 4, Type 0, BuildingBlock: KUFVIS_clean_sbu_0, # of connection points: 4
#     Node 5, Type 0, BuildingBlock: KUFVIS_clean_sbu_0, # of connection points: 4
#     Node 6, Type 0, BuildingBlock: KUFVIS_clean_sbu_0, # of connection points: 4
#     Node 7, Type 0, BuildingBlock: KUFVIS_clean_sbu_0, # of connection points: 4
#     Node 8, Type 0, BuildingBlock: KUFVIS_clean_sbu_0, # of connection points: 4
#     Node 9, Type 0, BuildingBlock: KUFVIS_clean_sbu_0, # of connection points: 4
#     Node 10, Type 0, BuildingBlock: KUFVIS_clean_sbu_0, # of connection points: 4
#     Node 11, Type 0, BuildingBlock: KUFVIS_clean_sbu_0, # of connection points: 4
#     Node 12, Type 0, BuildingBlock: KUFVIS_clean_sbu_0, # of connection points: 4
#     Node 13, Type 0, BuildingBlock: KUFVIS_clean_sbu_0, # of connection points: 4
#     Node 14, Type 0, BuildingBlock: KUFVIS_clean_sbu_0, # of connection points: 4
#     Node 15, Type 0, BuildingBlock: KUFVIS_clean_sbu_0, # of connection points: 4
#     Node 16, Type 0, BuildingBlock: KUFVIS_clean_sbu_0, # of connection points: 4
#     Node 17, Type 0, BuildingBlock: KUFVIS_clean_sbu_0, # of connection points: 4
#     Node 18, Type 0, BuildingBlock: KUFVIS_clean_sbu_0, # of connection points: 4
#     Node 19, Type 0, BuildingBlock: KUFVIS_clean_sbu_0, # of connection points: 4
#     Node 20, Type 0, BuildingBlock: KUFVIS_clean_sbu_0, # of connection points: 4
#     Node 21, Type 0, BuildingBlock: KUFVIS_clean_sbu_0, # of connection points: 4
#     Node 22, Type 0, BuildingBlock: KUFVIS_clean_sbu_0, # of connection points: 4
#     Node 23, Type 0, BuildingBlock: KUFVIS_clean_sbu_0, # of connection points: 4
#     Node 24, Type 1, BuildingBlock: MIFKUJ_clean_sbu_0, # of connection points: 6
#     Node 25, Type 1, BuildingBlock: MIFKUJ_clean_sbu_0, # of connection points: 6
#     Node 26, Type 1, BuildingBlock: MIFKUJ_clean_sbu_0, # of connection points: 6
#     Node 27, Type 1, BuildingBlock: MIFKUJ_clean_sbu_0, # of connection points: 6
#     Node 28, Type 1, BuildingBlock: MIFKUJ_clean_sbu_0, # of connection points: 6
#     Node 29, Type 1, BuildingBlock: MIFKUJ_clean_sbu_0, # of connection points: 6
#     Node 30, Type 1, BuildingBlock: MIFKUJ_clean_sbu_0, # of connection points: 6
#     Node 31, Type 1, BuildingBlock: MIFKUJ_clean_sbu_0, # of connection points: 6
#     Node 32, Type 1, BuildingBlock: MIFKUJ_clean_sbu_0, # of connection points: 6
#     Node 33, Type 1, BuildingBlock: MIFKUJ_clean_sbu_0, # of connection points: 6
#     Node 34, Type 1, BuildingBlock: MIFKUJ_clean_sbu_0, # of connection points: 6
#     Node 35, Type 1, BuildingBlock: MIFKUJ_clean_sbu_0, # of connection points: 6
#     Node 36, Type 1, BuildingBlock: MIFKUJ_clean_sbu_0, # of connection points: 6
#     Node 37, Type 1, BuildingBlock: MIFKUJ_clean_sbu_0, # of connection points: 6
#     Node 38, Type 1, BuildingBlock: MIFKUJ_clean_sbu_0, # of connection points: 6
#     Node 39, Type 1, BuildingBlock: MIFKUJ_clean_sbu_0, # of connection points: 6
#     Edge 40, Type (0, 1), BuildingBlock: KIFKEQ_clean_linker_1, # of connection points: 2
#     Edge 41, Type (0, 1), BuildingBlock: KIFKEQ_clean_linker_1, # of connection points: 2
#     Edge 42, Type (0, 1), BuildingBlock: KIFKEQ_clean_linker_1, # of connection points: 2
#     Edge 43, Type (0, 1), BuildingBlock: KIFKEQ_clean_linker_1, # of connection points: 2
#     Edge 44, Type (0, 1), BuildingBlock: KIFKEQ_clean_linker_1, # of connection points: 2
#     Edge 45, Type (0, 1), BuildingBlock: KIFKEQ_clean_linker_1, # of connection points: 2
#     Edge 46, Type (0, 1), BuildingBlock: KIFKEQ_clean_linker_1, # of connection points: 2
#     Edge 47, Type (0, 1), BuildingBlock: KIFKEQ_clean_linker_1, # of connection points: 2
#     Edge 48, Type (0, 1), BuildingBlock: KIFKEQ_clean_linker_1, # of connection points: 2
#     Edge 49, Type (0, 1), BuildingBlock: KIFKEQ_clean_linker_1, # of connection points: 2
#     Edge 50, Type (0, 1), BuildingBlock: KIFKEQ_clean_linker_1, # of connection points: 2
#     Edge 51, Type (0, 1), BuildingBlock: KIFKEQ_clean_linker_1, # of connection points: 2
#     Edge 52, Type (0, 1), BuildingBlock: KIFKEQ_clean_linker_1, # of connection points: 2
#     Edge 53, Type (0, 1), BuildingBlock: KIFKEQ_clean_linker_1, # of connection points: 2
#     Edge 54, Type (0, 1), BuildingBlock: KIFKEQ_clean_linker_1, # of connection points: 2
#     Edge 55, Type (0, 1), BuildingBlock: KIFKEQ_clean_linker_1, # of connection points: 2
#     Edge 56, Type (0, 1), BuildingBlock: KIFKEQ_clean_linker_1, # of connection points: 2
#     Edge 57, Type (0, 1), BuildingBlock: KIFKEQ_clean_linker_1, # of connection points: 2
#     Edge 58, Type (0, 1), BuildingBlock: KIFKEQ_clean_linker_1, # of connection points: 2
#     Edge 59, Type (0, 1), BuildingBlock: KIFKEQ_clean_linker_1, # of connection points: 2
#     Edge 60, Type (0, 1), BuildingBlock: KIFKEQ_clean_linker_1, # of connection points: 2
#     Edge 61, Type (0, 1), BuildingBlock: KIFKEQ_clean_linker_1, # of connection points: 2
#     Edge 62, Type (0, 1), BuildingBlock: KIFKEQ_clean_linker_1, # of connection points: 2
#     Edge 63, Type (0, 1), BuildingBlock: KIFKEQ_clean_linker_1, # of connection points: 2
#     Edge 64, Type (0, 1), BuildingBlock: KIFKEQ_clean_linker_1, # of connection points: 2
#     Edge 65, Type (0, 1), BuildingBlock: KIFKEQ_clean_linker_1, # of connection points: 2
#     Edge 66, Type (0, 1), BuildingBlock: KIFKEQ_clean_linker_1, # of connection points: 2
#     Edge 67, Type (0, 1), BuildingBlock: KIFKEQ_clean_linker_1, # of connection points: 2
#     Edge 68, Type (0, 1), BuildingBlock: KIFKEQ_clean_linker_1, # of connection points: 2
#     Edge 69, Type (0, 1), BuildingBlock: KIFKEQ_clean_linker_1, # of connection points: 2
#     Edge 70, Type (0, 1), BuildingBlock: KIFKEQ_clean_linker_1, # of connection points: 2
#     Edge 71, Type (0, 1), BuildingBlock: KIFKEQ_clean_linker_1, # of connection points: 2
#     Edge 72, Type (0, 1), BuildingBlock: KIFKEQ_clean_linker_1, # of connection points: 2
#     Edge 73, Type (0, 1), BuildingBlock: KIFKEQ_clean_linker_1, # of connection points: 2
#     Edge 74, Type (0, 1), BuildingBlock: KIFKEQ_clean_linker_1, # of connection points: 2
#     Edge 75, Type (0, 1), BuildingBlock: KIFKEQ_clean_linker_1, # of connection points: 2
#     Edge 76, Type (0, 1), BuildingBlock: KIFKEQ_clean_linker_1, # of connection points: 2
#     Edge 77, Type (0, 1), BuildingBlock: KIFKEQ_clean_linker_1, # of connection points: 2
#     Edge 78, Type (0, 1), BuildingBlock: KIFKEQ_clean_linker_1, # of connection points: 2
#     Edge 79, Type (0, 1), BuildingBlock: KIFKEQ_clean_linker_1, # of connection points: 2
#     Edge 80, Type (0, 1), BuildingBlock: KIFKEQ_clean_linker_1, # of connection points: 2
#     Edge 81, Type (0, 1), BuildingBlock: KIFKEQ_clean_linker_1, # of connection points: 2
#     Edge 82, Type (0, 1), BuildingBlock: KIFKEQ_clean_linker_1, # of connection points: 2
#     Edge 83, Type (0, 1), BuildingBlock: KIFKEQ_clean_linker_1, # of connection points: 2
#     Edge 84, Type (0, 1), BuildingBlock: KIFKEQ_clean_linker_1, # of connection points: 2
#     Edge 85, Type (0, 1), BuildingBlock: KIFKEQ_clean_linker_1, # of connection points: 2
#     Edge 86, Type (0, 1), BuildingBlock: KIFKEQ_clean_linker_1, # of connection points: 2
#     Edge 87, Type (0, 1), BuildingBlock: KIFKEQ_clean_linker_1, # of connection points: 2
#     Edge 88, Type (0, 1), BuildingBlock: KIFKEQ_clean_linker_1, # of connection points: 2
#     Edge 89, Type (0, 1), BuildingBlock: KIFKEQ_clean_linker_1, # of connection points: 2
#     Edge 90, Type (0, 1), BuildingBlock: KIFKEQ_clean_linker_1, # of connection points: 2
#     Edge 91, Type (0, 1), BuildingBlock: KIFKEQ_clean_linker_1, # of connection points: 2
#     Edge 92, Type (0, 1), BuildingBlock: KIFKEQ_clean_linker_1, # of connection points: 2
#     Edge 93, Type (0, 1), BuildingBlock: KIFKEQ_clean_linker_1, # of connection points: 2
#     Edge 94, Type (0, 1), BuildingBlock: KIFKEQ_clean_linker_1, # of connection points: 2
#     Edge 95, Type (0, 1), BuildingBlock: KIFKEQ_clean_linker_1, # of connection points: 2
#     Edge 96, Type (0, 1), BuildingBlock: KIFKEQ_clean_linker_1, # of connection points: 2
#     Edge 97, Type (0, 1), BuildingBlock: KIFKEQ_clean_linker_1, # of connection points: 2
#     Edge 98, Type (0, 1), BuildingBlock: KIFKEQ_clean_linker_1, # of connection points: 2
#     Edge 99, Type (0, 1), BuildingBlock: KIFKEQ_clean_linker_1, # of connection points: 2
#     Edge 100, Type (0, 1), BuildingBlock: KIFKEQ_clean_linker_1, # of connection points: 2
#     Edge 101, Type (0, 1), BuildingBlock: KIFKEQ_clean_linker_1, # of connection points: 2
#     Edge 102, Type (0, 1), BuildingBlock: KIFKEQ_clean_linker_1, # of connection points: 2
#     Edge 103, Type (0, 1), BuildingBlock: KIFKEQ_clean_linker_1, # of connection points: 2
#     Edge 104, Type (0, 1), BuildingBlock: KIFKEQ_clean_linker_1, # of connection points: 2
#     Edge 105, Type (0, 1), BuildingBlock: KIFKEQ_clean_linker_1, # of connection points: 2
#     Edge 106, Type (0, 1), BuildingBlock: KIFKEQ_clean_linker_1, # of connection points: 2
#     Edge 107, Type (0, 1), BuildingBlock: KIFKEQ_clean_linker_1, # of connection points: 2
#     Edge 108, Type (0, 1), BuildingBlock: KIFKEQ_clean_linker_1, # of connection points: 2
#     Edge 109, Type (0, 1), BuildingBlock: KIFKEQ_clean_linker_1, # of connection points: 2
#     Edge 110, Type (0, 1), BuildingBlock: KIFKEQ_clean_linker_1, # of connection points: 2
#     Edge 111, Type (0, 1), BuildingBlock: KIFKEQ_clean_linker_1, # of connection points: 2
#     Edge 112, Type (0, 1), BuildingBlock: KIFKEQ_clean_linker_1, # of connection points: 2
#     Edge 113, Type (0, 1), BuildingBlock: KIFKEQ_clean_linker_1, # of connection points: 2
#     Edge 114, Type (0, 1), BuildingBlock: KIFKEQ_clean_linker_1, # of connection points: 2
#     Edge 115, Type (0, 1), BuildingBlock: KIFKEQ_clean_linker_1, # of connection points: 2
#     Edge 116, Type (0, 1), BuildingBlock: KIFKEQ_clean_linker_1, # of connection points: 2
#     Edge 117, Type (0, 1), BuildingBlock: KIFKEQ_clean_linker_1, # of connection points: 2
#     Edge 118, Type (0, 1), BuildingBlock: KIFKEQ_clean_linker_1, # of connection points: 2
#     Edge 119, Type (0, 1), BuildingBlock: KIFKEQ_clean_linker_1, # of connection points: 2
#     Edge 120, Type (0, 1), BuildingBlock: KIFKEQ_clean_linker_1, # of connection points: 2
#     Edge 121, Type (0, 1), BuildingBlock: KIFKEQ_clean_linker_1, # of connection points: 2
#     Edge 122, Type (0, 1), BuildingBlock: KIFKEQ_clean_linker_1, # of connection points: 2
#     Edge 123, Type (0, 1), BuildingBlock: KIFKEQ_clean_linker_1, # of connection points: 2
#     Edge 124, Type (0, 1), BuildingBlock: KIFKEQ_clean_linker_1, # of connection points: 2
#     Edge 125, Type (0, 1), BuildingBlock: KIFKEQ_clean_linker_1, # of connection points: 2
#     Edge 126, Type (0, 1), BuildingBlock: KIFKEQ_clean_linker_1, # of connection points: 2
#     Edge 127, Type (0, 1), BuildingBlock: KIFKEQ_clean_linker_1, # of connection points: 2
#     Edge 128, Type (0, 1), BuildingBlock: KIFKEQ_clean_linker_1, # of connection points: 2
#     Edge 129, Type (0, 1), BuildingBlock: KIFKEQ_clean_linker_1, # of connection points: 2
#     Edge 130, Type (0, 1), BuildingBlock: KIFKEQ_clean_linker_1, # of connection points: 2
#     Edge 131, Type (0, 1), BuildingBlock: KIFKEQ_clean_linker_1, # of connection points: 2
#     Edge 132, Type (0, 1), BuildingBlock: KIFKEQ_clean_linker_1, # of connection points: 2
#     Edge 133, Type (0, 1), BuildingBlock: KIFKEQ_clean_linker_1, # of connection points: 2
#     Edge 134, Type (0, 1), BuildingBlock: KIFKEQ_clean_linker_1, # of connection points: 2
#     Edge 135, Type (0, 1), BuildingBlock: KIFKEQ_clean_linker_1, # of connection points: 2
# Relax obj value: 0.095
# Max RMSD: 0.279
# Mean RMSD: 0.125
data_MOF--net-gar--node1-KUFVIS_clean_sbu_0--node2-MIFKUJ_clean_sbu_0--edge1-KIFKEQ_clean_linker_1
_symmetry_space_group_name_H-M    P1
_symmetry_Int_Tables_number       1
_symmetry_cell_setting            triclinic
loop_
_symmetry_equiv_pos_as_xyz
'x, y, z'
_cell_length_a     56.571993
_cell_length_b     56.833282
_cell_length_c     56.017826
_cell_angle_alpha  94.401092
_cell_angle_beta   94.525893
_cell_angle_gamma 99.169158
loop_
_atom_site_label
_atom_site_type_symbol
_atom_site_fract_x
_atom_site_fract_y
_atom_site_fract_z
_atom_type_partial_charge
Mn0 Mn 0.02718 0.2702 0.40989 0.0
Mn1 Mn 0.0239 0.3065 0.36514 0.0
C2 C 0.99063 0.27898 0.39552 0.0
C3 C 0.0268 0.23246 0.42329 0.0
C4 C 0.04087 0.32463 0.417 0.0
O5 O 0.05913 0.26998 0.39549 0.0
O6 O 0.05406 0.29293 0.36498 0.0
C7 C 0.01983 0.27057 0.32318 0.0
N8 N 0.01084 0.28813 0.33568 0.0
C9 C 0.97713 0.28501 0.30592 0.0
C10 C 0.98611 0.267 0.29266 0.0
C11 C 0.00753 0.25973 0.30136 0.0
C12 C 0.99026 0.29529 0.32747 0.0
H13 H 0.03625 0.26486 0.3298 0.0
C14 C 0.06599 0.2795 0.37671 0.0
O15 O 0.03663 0.25169 0.43674 0.0
O16 O 0.01807 0.23514 0.40172 0.0
N17 N 0.99518 0.32035 0.363 0.0
C18 C 0.98817 0.3369 0.37865 0.0
C19 C 0.96662 0.34544 0.37302 0.0
C20 C 0.9526 0.33702 0.35133 0.0
C21 C 0.96029 0.32016 0.33541 0.0
C22 C 0.982 0.31241 0.3419 0.0
H23 H 0.99883 0.34341 0.39537 0.0
O24 O 0.99337 0.27186 0.41687 0.0
O25 O 0.00928 0.28072 0.38328 0.0
O26 O 0.03807 0.30431 0.42547 0.0
O27 O 0.03687 0.32726 0.39468 0.0
C28 C 0.947 0.31037 0.31359 0.0
C29 C 0.95541 0.29281 0.29886 0.0
H30 H 0.9766 0.25849 0.27589 0.0
H31 H 0.01451 0.24576 0.29128 0.0
H32 H 0.96079 0.35842 0.38543 0.0
H33 H 0.93587 0.34347 0.34717 0.0
H34 H 0.93009 0.31595 0.30816 0.0
H35 H 0.94486 0.28517 0.28231 0.0
Mn36 Mn 0.00945 0.74494 0.64658 0.0
Mn37 Mn 0.03123 0.78664 0.69274 0.0
C38 C 0.04979 0.75159 0.65956 0.0
C39 C 0.99417 0.70607 0.63062 0.0
C40 C 0.01936 0.79883 0.64209 0.0
O41 O 0.97921 0.75018 0.66208 0.0
O42 O 0.9957 0.77772 0.69243 0.0
C43 C 0.02066 0.75677 0.73284 0.0
N44 N 0.03671 0.77125 0.72132 0.0
C45 C 0.06887 0.76886 0.75137 0.0
C46 C 0.05265 0.75403 0.76364 0.0
C47 C 0.02846 0.74791 0.75429 0.0
C48 C 0.06004 0.77717 0.73009 0.0
H49 H 0.00206 0.75202 0.72572 0.0
C50 C 0.97756 0.76421 0.68061 0.0
O51 O 0.9908 0.72426 0.61888 0.0
O52 O 0.00462 0.71062 0.65234 0.0
N53 N 0.06533 0.79699 0.69559 0.0
C54 C 0.07893 0.81039 0.6809 0.0
C55 C 0.10366 0.81763 0.6874 0.0
C56 C 0.11411 0.81124 0.70903 0.0
C57 C 0.09973 0.79762 0.72395 0.0
C58 C 0.07515 0.79105 0.71661 0.0
H59 H 0.07102 0.81535 0.66425 0.0
O60 O 0.04237 0.74225 0.6379 0.0
O61 O 0.03343 0.75696 0.67315 0.0
O62 O 0.01174 0.77746 0.6331 0.0
O63 O 0.02696 0.8043 0.66418 0.0
C64 C 0.10891 0.78986 0.74556 0.0
C65 C 0.0935 0.77543 0.75922 0.0
H66 H 0.0586 0.7471 0.78015 0.0
H67 H 0.01586 0.73639 0.7636 0.0
H68 H 0.11465 0.82806 0.67575 0.0
H69 H 0.13322 0.8167 0.7139 0.0
H70 H 0.12786 0.79457 0.75163 0.0
H71 H 0.10083 0.76929 0.77562 0.0
Mn72 Mn 0.51878 0.77022 0.9053 0.0
Mn73 Mn 0.51711 0.80445 0.85875 0.0
C74 C 0.48242 0.77705 0.88778 0.0
C75 C 0.51934 0.73372 0.92104 0.0
C76 C 0.5314 0.82467 0.91053 0.0
O77 O 0.55199 0.7708 0.89323 0.0
O78 O 0.54762 0.79149 0.8608 0.0
C79 C 0.51523 0.76713 0.81842 0.0
N80 N 0.50537 0.78482 0.82966 0.0
C81 C 0.47215 0.77928 0.79905 0.0
C82 C 0.48202 0.7611 0.78708 0.0
C83 C 0.50364 0.75498 0.79683 0.0
C84 C 0.48458 0.79086 0.82043 0.0
H85 H 0.53178 0.76228 0.8259 0.0
C86 C 0.55953 0.77935 0.87422 0.0
O87 O 0.52744 0.75378 0.93387 0.0
O88 O 0.51161 0.73479 0.89875 0.0
N89 N 0.48808 0.81759 0.85464 0.0
C90 C 0.48036 0.83475 0.86898 0.0
C91 C 0.45869 0.84251 0.86206 0.0
C92 C 0.44523 0.83264 0.84045 0.0
C93 C 0.45363 0.81515 0.8259 0.0
C94 C 0.47548 0.80829 0.8336 0.0
H95 H 0.49058 0.84237 0.88563 0.0
O96 O 0.48405 0.77078 0.90957 0.0
O97 O 0.50202 0.77906 0.87701 0.0
O98 O 0.52771 0.80477 0.91969 0.0
O99 O 0.52882 0.82649 0.88791 0.0
C100 C 0.44099 0.80398 0.80425 0.0
C101 C 0.45023 0.78604 0.79085 0.0
H102 H 0.47307 0.75159 0.77049 0.0
H103 H 0.51131 0.74089 0.78775 0.0
H104 H 0.4523 0.85599 0.87341 0.0
H105 H 0.42839 0.83848 0.83531 0.0
H106 H 0.42399 0.80884 0.7979 0.0
H107 H 0.44019 0.77738 0.7744 0.0
Mn108 Mn 0.5001 0.24179 0.14271 0.0
Mn109 Mn 0.45645 0.23496 0.09694 0.0
C110 C 0.48347 0.20414 0.12512 0.0
C111 C 0.53989 0.24667 0.15837 0.0
C112 C 0.44832 0.24807 0.14879 0.0
O113 O 0.50369 0.27493 0.13059 0.0
O114 O 0.47547 0.26772 0.09882 0.0
C115 C 0.48648 0.23808 0.05598 0.0
N116 N 0.46886 0.22568 0.06753 0.0
C117 C 0.46329 0.19251 0.0371 0.0
C118 C 0.48122 0.20502 0.02478 0.0
C119 C 0.49288 0.22789 0.03429 0.0
C120 C 0.45748 0.20368 0.05851 0.0
H121 H 0.49567 0.25555 0.06333 0.0
C122 C 0.49264 0.28136 0.112 0.0
O123 O 0.52333 0.25289 0.17108 0.0
O124 O 0.53355 0.23866 0.13605 0.0
N125 N 0.43745 0.20362 0.09324 0.0
C126 C 0.42202 0.19316 0.10831 0.0
C127 C 0.40966 0.16978 0.10197 0.0
C128 C 0.41328 0.15742 0.08023 0.0
C129 C 0.42921 0.16857 0.06498 0.0
C130 C 0.44084 0.19199 0.07213 0.0
H131 H 0.41933 0.20249 0.12515 0.0
O132 O 0.49349 0.20677 0.14703 0.0
O133 O 0.48301 0.2236 0.11459 0.0
O134 O 0.46955 0.2471 0.15739 0.0
O135 O 0.4414 0.24405 0.12638 0.0
C136 C 0.43446 0.15715 0.04327 0.0
C137 C 0.45146 0.16913 0.02933 0.0
H138 H 0.48639 0.19712 0.00818 0.0
H139 H 0.50686 0.23758 0.02499 0.0
H140 H 0.39749 0.16124 0.11389 0.0
H141 H 0.40393 0.13929 0.07554 0.0
H142 H 0.42582 0.13901 0.03734 0.0
H143 H 0.45564 0.16001 0.01288 0.0
Mn144 Mn 0.02906 0.76536 0.15142 0.0
Mn145 Mn 0.98859 0.74467 0.10391 0.0
C146 C 0.02258 0.7254 0.13776 0.0
C147 C 0.06785 0.78107 0.16798 0.0
C148 C 0.97479 0.75679 0.15398 0.0
O149 O 0.02384 0.79576 0.13614 0.0
O150 O 0.99888 0.77973 0.1035 0.0
C151 C 0.02024 0.75286 0.06472 0.0
N152 N 0.00491 0.7377 0.07631 0.0
C153 C 0.00783 0.7044 0.04808 0.0
C154 C 0.02356 0.71969 0.03575 0.0
C155 C 0.02985 0.744 0.04416 0.0
C156 C 0.99887 0.71424 0.06848 0.0
H157 H 0.0251 0.77156 0.07113 0.0
C158 C 0.01149 0.79764 0.11644 0.0
O159 O 0.04931 0.78368 0.17956 0.0
O160 O 0.06369 0.77076 0.14622 0.0
N161 N 0.97717 0.71094 0.102 0.0
C162 C 0.96244 0.69844 0.11642 0.0
C163 C 0.9548 0.67375 0.11076 0.0
C164 C 0.96215 0.66224 0.09021 0.0
C165 C 0.97702 0.67555 0.07546 0.0
C166 C 0.98401 0.70011 0.08197 0.0
H167 H 0.95662 0.7072 0.13217 0.0
O168 O 0.0318 0.7323 0.15959 0.0
O169 O 0.01752 0.74205 0.12454 0.0
O170 O 0.99608 0.76242 0.16418 0.0
O171 O 0.97004 0.75068 0.13149 0.0
C172 C 0.98537 0.66537 0.05467 0.0
C173 C 1.00087 0.67976 0.04107 0.0
H174 H 0.03103 0.71293 0.0199 0.0
H175 H 0.04206 0.75589 0.0348 0.0
H176 H 0.94329 0.66362 0.12222 0.0
H177 H 0.95634 0.64317 0.08597 0.0
H178 H 0.98022 0.64643 0.04916 0.0
H179 H 0.00746 0.67165 0.02533 0.0
Mn180 Mn 0.49636 0.74603 0.39402 0.0
Mn181 Mn 0.48693 0.77744 0.34622 0.0
C182 C 0.45775 0.74382 0.37609 0.0
C183 C 0.50709 0.71247 0.41066 0.0
C184 C 0.49739 0.79986 0.39761 0.0
O185 O 0.52971 0.75478 0.38258 0.0
O186 O 0.52038 0.77116 0.34838 0.0
C187 C 0.49111 0.74129 0.30653 0.0
N188 N 0.4784 0.75691 0.31721 0.0
C189 C 0.44728 0.74919 0.28441 0.0
C190 C 0.46007 0.73307 0.27298 0.0
C191 C 0.48202 0.72901 0.28415 0.0
C192 C 0.45716 0.76076 0.30676 0.0
H193 H 0.50806 0.73831 0.31502 0.0
C194 C 0.53532 0.76366 0.36312 0.0
O195 O 0.51006 0.73314 0.423 0.0
O196 O 0.49801 0.71128 0.38845 0.0
N197 N 0.45527 0.7851 0.34165 0.0
C198 C 0.44457 0.80018 0.35571 0.0
C199 C 0.42237 0.80598 0.34729 0.0
C200 C 0.41157 0.7965 0.32441 0.0
C201 C 0.42289 0.78099 0.31029 0.0
C202 C 0.44506 0.77597 0.31957 0.0
H203 H 0.45298 0.80787 0.37313 0.0
O204 O 0.46127 0.73809 0.39794 0.0
O205 O 0.47688 0.75034 0.3652 0.0
O206 O 0.49694 0.78052 0.40772 0.0
O207 O 0.49515 0.80057 0.37486 0.0
C208 C 0.41287 0.77002 0.28753 0.0
C209 C 0.425 0.75402 0.27466 0.0
H210 H 0.45315 0.7236 0.25569 0.0
H211 H 0.49195 0.71655 0.27547 0.0
H212 H 0.4137 0.8179 0.35832 0.0
H213 H 0.39451 0.80113 0.31791 0.0
H214 H 0.39566 0.77344 0.27996 0.0
H215 H 0.41693 0.74539 0.25738 0.0
Mn216 Mn 0.52918 0.26496 0.65195 0.0
Mn217 Mn 0.4903 0.24225 0.60365 0.0
C218 C 0.52612 0.22543 0.63767 0.0
C219 C 0.56673 0.28369 0.66961 0.0
C220 C 0.47495 0.25137 0.6536 0.0
O221 O 0.52142 0.2948 0.63721 0.0
O222 O 0.4974 0.27762 0.6044 0.0
C223 C 0.52175 0.255 0.56525 0.0
N224 N 0.50756 0.23814 0.57611 0.0
C225 C 0.51277 0.20709 0.54627 0.0
C226 C 0.52737 0.22413 0.53469 0.0
C227 C 0.53196 0.24817 0.54429 0.0
C228 C 0.50324 0.21493 0.56719 0.0
H229 H 0.5252 0.27351 0.57251 0.0
C230 C 0.50861 0.29601 0.61763 0.0
O231 O 0.54749 0.28393 0.68072 0.0
O232 O 0.56393 0.27382 0.64765 0.0
N233 N 0.48171 0.20812 0.6004 0.0
C234 C 0.46758 0.19386 0.61397 0.0
C235 C 0.46155 0.16921 0.60702 0.0
C236 C 0.46973 0.15956 0.58596 0.0
C237 C 0.48383 0.17468 0.57203 0.0
C238 C 0.48934 0.19907 0.57991 0.0
H239 H 0.46101 0.20121 0.63003 0.0
O240 O 0.53475 0.23256 0.65963 0.0
O241 O 0.51974 0.24164 0.62452 0.0
O242 O 0.49591 0.2588 0.66405 0.0
O243 O 0.47082 0.24528 0.63106 0.0
C244 C 0.4927 0.16649 0.55067 0.0
C245 C 0.50732 0.18264 0.5379 0.0
H246 H 0.53521 0.21895 0.51846 0.0
H247 H 0.54325 0.26141 0.53549 0.0
H248 H 0.45057 0.15769 0.61781 0.0
H249 H 0.46509 0.14054 0.58067 0.0
H250 H 0.48858 0.14775 0.54403 0.0
H251 H 0.51431 0.17606 0.52168 0.0
Mn252 Mn 0.99608 0.24671 0.89245 0.0
Mn253 Mn 0.98703 0.2788 0.84527 0.0
C254 C 0.95741 0.2453 0.87473 0.0
C255 C 0.00614 0.21244 0.90813 0.0
C256 C 0.99898 0.30057 0.89691 0.0
O257 O 0.0295 0.25537 0.8809 0.0
O258 O 0.01976 0.27067 0.84619 0.0
C259 C 0.98843 0.24289 0.80447 0.0
N260 N 0.97684 0.25897 0.81606 0.0
C261 C 0.94485 0.25321 0.78415 0.0
C262 C 0.95646 0.23662 0.77182 0.0
C263 C 0.97829 0.23136 0.78208 0.0
C264 C 0.95573 0.26399 0.80647 0.0
H265 H 0.00531 0.239 0.81225 0.0
C266 C 0.03482 0.26323 0.86087 0.0
O267 O 0.00936 0.23282 0.92105 0.0
O268 O 0.9973 0.21197 0.88594 0.0
N269 N 0.95593 0.288 0.84207 0.0
C270 C 0.94638 0.30335 0.85694 0.0
C271 C 0.92442 0.31028 0.8495 0.0
C272 C 0.91267 0.3016 0.82677 0.0
C273 C 0.9228 0.28575 0.81182 0.0
C274 C 0.94478 0.27958 0.82015 0.0
H275 H 0.95551 0.31045 0.87425 0.0
O276 O 0.96086 0.23909 0.8964 0.0
O277 O 0.97659 0.25175 0.86397 0.0
O278 O 0.99733 0.28106 0.90685 0.0
O279 O 0.99702 0.30138 0.87415 0.0
C280 C 0.9118 0.2756 0.78912 0.0
C281 C 0.92275 0.25923 0.77536 0.0
H282 H 0.94872 0.22771 0.75453 0.0
H283 H 0.98732 0.21853 0.77269 0.0
H284 H 0.91667 0.32246 0.86118 0.0
H285 H 0.89584 0.30714 0.82103 0.0
H286 H 0.89472 0.27994 0.78227 0.0
H287 H 0.91391 0.25122 0.75812 0.0
Mn288 Mn 0.40162 0.02152 0.28388 0.0
Mn289 Mn 0.35716 0.01491 0.32085 0.0
C290 C 0.38566 0.98394 0.29371 0.0
C291 C 0.4157 0.02348 0.2463 0.0
C292 C 0.40952 0.03341 0.33816 0.0
O293 O 0.38851 0.05283 0.28255 0.0
O294 O 0.35769 0.04534 0.30562 0.0
C295 C 0.31441 0.01036 0.28564 0.0
N296 N 0.32702 0.0013 0.30347 0.0
C297 C 0.29619 0.96669 0.30259 0.0
C298 C 0.28282 0.97573 0.28432 0.0
C299 C 0.29199 0.99764 0.2758 0.0
C300 C 0.3183 0.98029 0.31192 0.0
H301 H 0.3214 0.02716 0.27895 0.0
C302 C 0.3698 0.05828 0.29155 0.0
O303 O 0.42909 0.03284 0.26561 0.0
O304 O 0.39364 0.01398 0.24864 0.0
N305 N 0.35451 0.98568 0.33605 0.0
C306 C 0.37057 0.97846 0.35219 0.0
C307 C 0.3647 0.95627 0.36156 0.0
C308 C 0.34238 0.9418 0.35433 0.0
C309 C 0.32611 0.94964 0.33777 0.0
C310 C 0.33288 0.97199 0.32914 0.0
H311 H 0.38782 0.98942 0.35771 0.0
O312 O 0.40713 0.98798 0.2867 0.0
O313 O 0.37422 0.00203 0.29496 0.0
O314 O 0.41765 0.03145 0.31774 0.0
O315 O 0.38718 0.02847 0.34107 0.0
C316 C 0.30372 0.93588 0.329 0.0
C317 C 0.28875 0.94441 0.31146 0.0
H318 H 0.26562 0.96587 0.27653 0.0
H319 H 0.28183 0.00468 0.26162 0.0
H320 H 0.3774 0.95029 0.37424 0.0
H321 H 0.33802 0.92458 0.36141 0.0
H322 H 0.29801 0.91852 0.33531 0.0
H323 H 0.27176 0.93349 0.30457 0.0
Mn324 Mn 0.26187 0.13949 0.50659 0.0
Mn325 Mn 0.25143 0.09343 0.4634 0.0
C326 C 0.22272 0.1204 0.49448 0.0
C327 C 0.26889 0.15447 0.54712 0.0
C328 C 0.26603 0.14544 0.45311 0.0
O329 O 0.29475 0.1283 0.50605 0.0
O330 O 0.28443 0.09556 0.47951 0.0
C331 C 0.25237 0.05261 0.4931 0.0
N332 N 0.24049 0.06405 0.47666 0.0
C333 C 0.20549 0.03338 0.47395 0.0
C334 C 0.21743 0.02119 0.4907 0.0
C335 C 0.24095 0.03087 0.50033 0.0
C336 C 0.21786 0.05486 0.46723 0.0
H337 H 0.27037 0.06006 0.50072 0.0
C338 C 0.29949 0.1092 0.495 0.0
O339 O 0.27466 0.16786 0.53002 0.0
O340 O 0.26012 0.13217 0.54073 0.0
N341 N 0.21972 0.08944 0.44724 0.0
C342 C 0.21005 0.10429 0.4327 0.0
C343 C 0.18625 0.0977 0.42237 0.0
C344 C 0.17263 0.07593 0.42708 0.0
C345 C 0.18296 0.06091 0.44205 0.0
C346 C 0.20685 0.06831 0.45166 0.0
H347 H 0.22036 0.12112 0.42912 0.0
O348 O 0.22671 0.14218 0.50451 0.0
O349 O 0.24173 0.11086 0.49142 0.0
O350 O 0.26575 0.15461 0.47458 0.0
O351 O 0.26202 0.12284 0.44742 0.0
C352 C 0.17031 0.03915 0.44825 0.0
C353 C 0.18158 0.02538 0.46416 0.0
H354 H 0.2086 0.00454 0.49651 0.0
H355 H 0.25023 0.02165 0.5134 0.0
H356 H 0.17837 0.10944 0.41091 0.0
H357 H 0.15419 0.07103 0.41928 0.0
H358 H 0.15179 0.03303 0.44118 0.0
H359 H 0.17154 0.00887 0.46909 0.0
Mn360 Mn 0.1371 0.00926 0.79117 0.0
Mn361 Mn 0.18352 0.02123 0.83432 0.0
C362 C 0.15575 0.04856 0.80243 0.0
C363 C 0.12175 0.00145 0.75073 0.0
C364 C 0.13142 0.00645 0.84493 0.0
O365 O 0.14897 0.97686 0.79239 0.0
O366 O 0.18163 0.98812 0.81913 0.0
C367 C 0.22433 0.01985 0.80451 0.0
N368 N 0.21289 0.03192 0.82074 0.0
C369 C 0.24357 0.0668 0.8227 0.0
C370 C 0.25578 0.05465 0.80618 0.0
C371 C 0.24609 0.03109 0.79702 0.0
C372 C 0.22206 0.0546 0.82968 0.0
H373 H 0.21687 0.00181 0.79724 0.0
C374 C 0.16826 0.9727 0.8038 0.0
O375 O 0.10855 0.99576 0.76802 0.0
O376 O 0.14412 0.01051 0.75688 0.0
N377 N 0.18737 0.0531 0.84965 0.0
C378 C 0.17245 0.06296 0.86396 0.0
C379 C 0.17902 0.08682 0.87378 0.0
C380 C 0.20084 0.10028 0.86882 0.0
C381 C 0.21593 0.08975 0.8541 0.0
C382 C 0.20855 0.06582 0.84499 0.0
H383 H 0.15559 0.05276 0.86775 0.0
O384 O 0.13381 0.0441 0.7925 0.0
O385 O 0.1657 0.02995 0.80593 0.0
O386 O 0.12213 0.00581 0.82334 0.0
O387 O 0.15412 0.01099 0.85062 0.0
C388 C 0.23774 0.10221 0.84767 0.0
C389 C 0.25156 0.09074 0.83201 0.0
H390 H 0.27245 0.06334 0.80018 0.0
H391 H 0.25532 0.02166 0.78412 0.0
H392 H 0.16723 0.09485 0.88504 0.0
H393 H 0.20572 0.11876 0.87621 0.0
H394 H 0.24386 0.12076 0.85435 0.0
H395 H 0.26811 0.10063 0.82689 0.0
Mn396 Mn 0.25582 0.87295 0.00984 0.0
Mn397 Mn 0.26129 0.91766 0.97341 0.0
C398 C 0.29302 0.88937 0.99929 0.0
C399 C 0.25511 0.85914 0.04758 0.0
C400 C 0.2439 0.86557 0.95544 0.0
O401 O 0.22421 0.88532 0.01197 0.0
O402 O 0.23017 0.91525 0.98781 0.0
C403 C 0.26356 0.95852 0.01018 0.0
N404 N 0.27365 0.94721 0.99224 0.0
C405 C 0.30844 0.97821 0.99648 0.0
C406 C 0.29834 0.99025 0.01488 0.0
C407 C 0.27581 0.98034 0.02175 0.0
C408 C 0.2953 0.95661 0.98544 0.0
H409 H 0.24633 0.95094 0.01568 0.0
C410 C 0.2177 0.90312 0.0022 0.0
O411 O 0.2453 0.84554 0.02855 0.0
O412 O 0.26435 0.88104 0.04475 0.0
N413 N 0.29106 0.92226 0.95896 0.0
C414 C 0.29879 0.90792 0.94163 0.0
C415 C 0.3213 0.91503 0.93313 0.0
C416 C 0.33559 0.93679 0.94249 0.0
C417 C 0.32717 0.95134 0.96016 0.0
C418 C 0.30447 0.94346 0.96775 0.0
H419 H 0.28799 0.89109 0.9345 0.0
O420 O 0.28952 0.8679 0.00616 0.0
O421 O 0.27466 0.90044 0.99869 0.0
O422 O 0.24518 0.85747 0.97596 0.0
O423 O 0.24921 0.88781 0.95244 0.0
C424 C 0.34058 0.97316 0.97083 0.0
C425 C 0.33123 0.98658 0.98898 0.0
H426 H 0.3078 0.00701 0.02397 0.0
H427 H 0.26793 0.98947 0.03601 0.0
H428 H 0.3277 0.90368 0.91952 0.0
H429 H 0.35306 0.94208 0.93609 0.0
H430 H 0.35823 0.97965 0.96541 0.0
H431 H 0.34182 0.0032 0.99722 0.0
Mn432 Mn 0.2757 0.38407 0.0482 0.0
Mn433 Mn 0.28808 0.43266 0.01672 0.0
C434 C 0.3155 0.40245 0.04647 0.0
C435 C 0.2662 0.36502 0.08299 0.0
C436 C 0.27456 0.38195 0.99312 0.0
O437 O 0.24304 0.39576 0.04415 0.0
O438 O 0.25434 0.42856 0.02487 0.0
C439 C 0.28418 0.47061 0.05476 0.0
N440 N 0.29698 0.46119 0.03794 0.0
C441 C 0.32896 0.49501 0.04517 0.0
C442 C 0.31609 0.50515 0.06253 0.0
C443 C 0.29365 0.49285 0.06741 0.0
C444 C 0.31866 0.47278 0.03323 0.0
H445 H 0.26686 0.46125 0.05841 0.0
C446 C 0.23858 0.41448 0.03444 0.0
O447 O 0.26119 0.35411 0.0616 0.0
O448 O 0.276 0.38745 0.08428 0.0
N449 N 0.32 0.43924 0.00714 0.0
C450 C 0.33055 0.42649 0.99063 0.0
C451 C 0.35326 0.4361 0.98397 0.0
C452 C 0.3647 0.45887 0.99401 0.0
C453 C 0.35335 0.47178 0.01072 0.0
C454 C 0.33069 0.4613 0.01663 0.0
H455 H 0.32171 0.40912 0.98261 0.0
O456 O 0.31049 0.38037 0.05145 0.0
O457 O 0.29717 0.41337 0.0428 0.0
O458 O 0.27264 0.37154 0.0124 0.0
O459 O 0.27969 0.40461 0.993 0.0
C460 C 0.36385 0.4944 0.02214 0.0
C461 C 0.35171 0.50596 0.03943 0.0
H462 H 0.32331 0.52231 0.0723 0.0
H463 H 0.28364 0.50054 0.08081 0.0
H464 H 0.3619 0.42602 0.97107 0.0
H465 H 0.38227 0.46617 0.98891 0.0
H466 H 0.38142 0.50288 0.01805 0.0
H467 H 0.36011 0.52319 0.04833 0.0
Mn468 Mn 0.7704 0.14311 0.03232 0.0
Mn469 Mn 0.74757 0.09494 0.99321 0.0
C470 C 0.72969 0.12875 0.02818 0.0
C471 C 0.7864 0.16127 0.07015 0.0
C472 C 0.76234 0.1446 0.9779 0.0
O473 O 0.80009 0.12825 0.0258 0.0
O474 O 0.78251 0.09599 1.00097 0.0
C475 C 0.75427 0.05676 0.02495 0.0
N476 N 0.73956 0.0675 0.01048 0.0
C477 C 0.70537 0.03774 0.01539 0.0
C478 C 0.72018 0.0263 0.03028 0.0
C479 C 0.74471 0.03591 0.03515 0.0
C480 C 0.71589 0.05854 0.00586 0.0
H481 H 0.77316 0.06403 0.02862 0.0
C482 C 0.80095 0.10895 0.01278 0.0
O483 O 0.78991 0.17193 0.05076 0.0
O484 O 0.77495 0.13939 0.0674 0.0
N485 N 0.7138 0.09147 0.98402 0.0
C486 C 0.7019 0.10488 0.9696 0.0
C487 C 0.67712 0.09786 0.96323 0.0
C488 C 0.66491 0.07694 0.97142 0.0
C489 C 0.67762 0.0632 0.98585 0.0
C490 C 0.70229 0.0711 0.99165 0.0
H491 H 0.71123 0.12085 0.96305 0.0
O492 O 0.73773 0.15069 0.03667 0.0
O493 O 0.74564 0.1157 0.02248 0.0
O494 O 0.76883 0.15498 0.99887 0.0
O495 O 0.75464 0.1222 0.97372 0.0
C496 C 0.66677 0.042 0.99479 0.0
C497 C 0.68059 0.02938 0.00969 0.0
H498 H 0.71289 0.01017 0.03813 0.0
H499 H 0.75624 0.0272 0.04666 0.0
H500 H 0.66746 0.10852 0.952 0.0
H501 H 0.64578 0.0716 0.96651 0.0
H502 H 0.64775 0.03539 0.99051 0.0
H503 H 0.67197 0.01327 0.01671 0.0
Mn504 Mn 0.13181 0.50225 0.26306 0.0
Mn505 Mn 0.17976 0.52547 0.30249 0.0
C506 C 0.14689 0.54268 0.26575 0.0
C507 C 0.11374 0.48495 0.22579 0.0
C508 C 0.12933 0.51196 0.31696 0.0
O509 O 0.14599 0.4727 0.27138 0.0
O510 O 0.17873 0.49057 0.29552 0.0
C511 C 0.21874 0.51796 0.27193 0.0
N512 N 0.20776 0.53293 0.28577 0.0
C513 C 0.23811 0.5666 0.28097 0.0
C514 C 0.24981 0.55154 0.26674 0.0
C515 C 0.24003 0.52713 0.26212 0.0
C516 C 0.21688 0.55647 0.29012 0.0
H517 H 0.21134 0.49917 0.26845 0.0
C518 C 0.16551 0.472 0.28429 0.0
O519 O 0.10281 0.48262 0.24516 0.0
O520 O 0.13588 0.49602 0.2283 0.0
N521 N 0.18322 0.5592 0.31085 0.0
C522 C 0.16941 0.57142 0.32445 0.0
C523 C 0.17648 0.59614 0.33036 0.0
C524 C 0.19787 0.60796 0.3226 0.0
C525 C 0.21201 0.59493 0.30902 0.0
C526 C 0.20401 0.57035 0.30361 0.0
H527 H 0.15307 0.56241 0.33067 0.0
O528 O 0.12491 0.53472 0.25697 0.0
O529 O 0.15956 0.5268 0.27254 0.0
O530 O 0.11931 0.5054 0.2959 0.0
O531 O 0.15191 0.51901 0.32159 0.0
C532 C 0.23367 0.60538 0.30053 0.0
C533 C 0.24661 0.59127 0.28636 0.0
H534 H 0.26627 0.55852 0.25919 0.0
H535 H 0.24893 0.5154 0.25111 0.0
H536 H 0.16551 0.60606 0.34092 0.0
H537 H 0.20324 0.62705 0.32714 0.0
H538 H 0.24039 0.62433 0.30458 0.0
H539 H 0.26306 0.5996 0.27964 0.0
Mn540 Mn 0.77356 0.88235 0.54694 0.0
Mn541 Mn 0.78592 0.93237 0.51772 0.0
C542 C 0.81347 0.90015 0.54427 0.0
C543 C 0.76466 0.86277 0.58164 0.0
C544 C 0.76984 0.88257 0.49214 0.0
O545 O 0.74112 0.89482 0.54423 0.0
O546 O 0.75337 0.92968 0.52872 0.0
C547 C 0.787 0.96913 0.55838 0.0
N548 N 0.79778 0.9597 0.53986 0.0
C549 C 0.83135 0.992 0.54607 0.0
C550 C 0.82056 0.00217 0.56513 0.0
C551 C 0.79837 0.99058 0.57142 0.0
C552 C 0.81935 0.97043 0.53399 0.0
H553 H 0.76984 0.96036 0.56309 0.0
C554 C 0.7374 0.91508 0.53744 0.0
O555 O 0.75875 0.85227 0.56015 0.0
O556 O 0.77508 0.88499 0.58306 0.0
N557 N 0.81689 0.93769 0.50575 0.0
C558 C 0.8251 0.92531 0.4872 0.0
C559 C 0.84724 0.9343 0.47888 0.0
C560 C 0.86045 0.9562 0.48933 0.0
C561 C 0.85139 0.96888 0.50803 0.0
C562 C 0.82932 0.95893 0.5157 0.0
H563 H 0.81485 0.90869 0.47878 0.0
O564 O 0.80833 0.87795 0.54883 0.0
O565 O 0.79533 0.91141 0.54183 0.0
O566 O 0.76942 0.8711 0.51084 0.0
O567 O 0.7745 0.90537 0.49311 0.0
C568 C 0.86339 0.99101 0.51937 0.0
C569 C 0.85352 0.00243 0.53856 0.0
H570 H 0.82918 0.01881 0.5751 0.0
H571 H 0.78996 0.99828 0.58615 0.0
H572 H 0.85403 0.92446 0.46435 0.0
H573 H 0.87751 0.9631 0.48286 0.0
H574 H 0.8804 0.99924 0.51369 0.0
H575 H 0.86315 0.01923 0.54741 0.0
Mn576 Mn 0.89304 0.99582 0.24738 0.0
Mn577 Mn 0.84343 0.98352 0.27746 0.0
C578 C 0.87453 0.95624 0.24863 0.0
C579 C 0.91231 0.00605 0.21298 0.0
C580 C 0.89406 0.99794 0.30209 0.0
O581 O 0.88128 0.02828 0.25174 0.0
O582 O 0.84618 0.01627 0.2672 0.0
C583 C 0.80528 0.98387 0.2382 0.0
N584 N 0.81516 0.97258 0.25609 0.0
C585 C 0.78217 0.93963 0.25025 0.0
C586 C 0.77153 0.95099 0.23188 0.0
C587 C 0.7832 0.97314 0.22574 0.0
C588 C 0.80422 0.95115 0.26196 0.0
H589 H 0.81418 0.00093 0.23353 0.0
C590 C 0.86109 0.03215 0.25873 0.0
O591 O 0.92317 0.01076 0.23446 0.0
O592 O 0.88986 0.99597 0.2114 0.0
N593 N 0.83815 0.9523 0.28863 0.0
C594 C 0.85153 0.94306 0.30575 0.0
C595 C 0.8427 0.9207 0.31354 0.0
C596 C 0.82009 0.90824 0.30392 0.0
C597 C 0.80659 0.91815 0.28642 0.0
C598 C 0.81628 0.94053 0.27941 0.0
H599 H 0.86876 0.95269 0.31348 0.0
O600 O 0.89675 0.96117 0.24379 0.0
O601 O 0.86362 0.97448 0.25227 0.0
O602 O 0.90506 0.99818 0.28312 0.0
O603 O 0.87118 0.9941 0.30168 0.0
C604 C 0.78411 0.9065 0.27532 0.0
C605 C 0.77196 0.91719 0.25718 0.0
H606 H 0.7545 0.94278 0.22223 0.0
H607 H 0.77515 0.98196 0.2115 0.0
H608 H 0.85326 0.91314 0.32701 0.0
H609 H 0.81336 0.89099 0.30996 0.0
H610 H 0.77623 0.88911 0.28028 0.0
H611 H 0.75489 0.90787 0.24848 0.0
Mn612 Mn 0.2728 0.64409 0.53489 0.0
Mn613 Mn 0.24903 0.59732 0.49432 0.0
C614 C 0.23205 0.6298 0.53142 0.0
C615 C 0.28978 0.66156 0.5725 0.0
C616 C 0.26229 0.64775 0.48102 0.0
O617 O 0.30217 0.62962 0.52751 0.0
O618 O 0.28463 0.59991 0.49974 0.0
C619 C 0.2601 0.5586 0.5237 0.0
N620 N 0.24387 0.56873 0.51041 0.0
C621 C 0.21208 0.53622 0.51487 0.0
C622 C 0.22848 0.52539 0.5285 0.0
C623 C 0.25257 0.53668 0.53301 0.0
C624 C 0.22061 0.55812 0.50615 0.0
H625 H 0.27864 0.56717 0.52713 0.0
C626 C 0.30311 0.61189 0.51242 0.0
O627 O 0.29272 0.67257 0.55326 0.0
O628 O 0.27808 0.63976 0.56973 0.0
N629 N 0.21485 0.59188 0.48695 0.0
C630 C 0.20107 0.6051 0.47429 0.0
C631 C 0.17649 0.5964 0.46835 0.0
C632 C 0.16636 0.57403 0.47522 0.0
C633 C 0.18089 0.56065 0.48809 0.0
C634 C 0.20532 0.57019 0.49336 0.0
H635 H 0.20874 0.6222 0.46893 0.0
O636 O 0.24036 0.65164 0.54009 0.0
O637 O 0.24773 0.6167 0.52485 0.0
O638 O 0.27123 0.65677 0.50186 0.0
O639 O 0.25292 0.62582 0.47607 0.0
C640 C 0.17201 0.53842 0.4963 0.0
C641 C 0.18757 0.52627 0.50978 0.0
H642 H 0.22275 0.50846 0.5357 0.0
H643 H 0.26531 0.52846 0.54358 0.0
H644 H 0.16539 0.60691 0.4585 0.0
H645 H 0.14737 0.56742 0.47071 0.0
H646 H 0.15317 0.53067 0.49263 0.0
H647 H 0.18046 0.50932 0.51625 0.0
Mn648 Mn 0.38947 0.49704 0.74681 0.0
Mn649 Mn 0.33841 0.48477 0.77475 0.0
C650 C 0.37163 0.4573 0.74959 0.0
C651 C 0.41005 0.50577 0.71261 0.0
C652 C 0.38789 0.50094 0.8015 0.0
O653 O 0.37683 0.52928 0.7487 0.0
O654 O 0.34152 0.51715 0.76363 0.0
C655 C 0.30244 0.48376 0.73318 0.0
N656 N 0.31141 0.47302 0.75198 0.0
C657 C 0.27876 0.43981 0.7453 0.0
C658 C 0.26908 0.45055 0.72592 0.0
C659 C 0.28106 0.47255 0.71973 0.0
C660 C 0.3003 0.45164 0.75778 0.0
H661 H 0.31148 0.50079 0.72858 0.0
C662 C 0.35635 0.53301 0.75506 0.0
O663 O 0.42007 0.51178 0.7343 0.0
O664 O 0.38773 0.49531 0.71068 0.0
N665 N 0.33256 0.45399 0.78682 0.0
C666 C 0.34447 0.44584 0.80577 0.0
C667 C 0.33502 0.42391 0.81407 0.0
C668 C 0.31313 0.41087 0.80321 0.0
C669 C 0.30092 0.41988 0.78411 0.0
C670 C 0.31133 0.44172 0.77645 0.0
H671 H 0.36107 0.45597 0.81452 0.0
O672 O 0.39406 0.46251 0.74557 0.0
O673 O 0.36011 0.47527 0.7514 0.0
O674 O 0.39987 0.50146 0.78313 0.0
O675 O 0.36498 0.4961 0.79998 0.0
C676 C 0.2788 0.40808 0.77237 0.0
C677 C 0.26787 0.41787 0.75279 0.0
H678 H 0.25248 0.44207 0.71564 0.0
H679 H 0.27372 0.48093 0.70477 0.0
H680 H 0.34451 0.41715 0.82892 0.0
H681 H 0.30587 0.39397 0.80968 0.0
H682 H 0.27019 0.39128 0.77806 0.0
H683 H 0.25107 0.4084 0.74364 0.0
Mn684 Mn 0.63356 0.00445 0.7626 0.0
Mn685 Mn 0.68252 0.02638 0.80131 0.0
C686 C 0.64893 0.04478 0.76609 0.0
C687 C 0.61474 0.98811 0.72523 0.0
C688 C 0.63257 0.01305 0.81685 0.0
O689 O 0.64757 0.97451 0.76973 0.0
O690 O 0.68088 0.9915 0.7936 0.0
C691 C 0.72048 0.01914 0.76938 0.0
N692 N 0.71005 0.03396 0.78395 0.0
C693 C 0.74044 0.06759 0.77908 0.0
C694 C 0.75158 0.05267 0.76408 0.0
C695 C 0.7415 0.02836 0.75914 0.0
C696 C 0.71946 0.05742 0.78864 0.0
H697 H 0.71283 1.00043 0.76565 0.0
C698 C 0.66713 0.97328 0.78234 0.0
O699 O 0.60413 0.98542 0.74476 0.0
O700 O 0.63695 0.99896 0.7276 0.0
N701 N 0.68654 0.06002 0.81051 0.0
C702 C 0.67333 0.07208 0.82497 0.0
C703 C 0.68079 0.09668 0.83138 0.0
C704 C 0.70196 0.10853 0.82323 0.0
C705 C 0.7155 0.09564 0.80876 0.0
C706 C 0.70715 0.07117 0.80292 0.0
H707 H 0.65717 0.06304 0.8315 0.0
O708 O 0.62681 0.03715 0.75758 0.0
O709 O 0.66164 0.02862 0.77204 0.0
O710 O 0.62184 0.0071 0.79596 0.0
O711 O 0.65523 0.01975 0.82096 0.0
C712 C 0.7369 0.10612 0.79982 0.0
C713 C 0.74927 0.09216 0.78484 0.0
H714 H 0.76783 0.05969 0.7562 0.0
H715 H 0.74997 0.01675 0.74754 0.0
H716 H 0.67028 0.10648 0.84263 0.0
H717 H 0.70763 0.12752 0.82815 0.0
H718 H 0.74388 0.12498 0.80416 0.0
H719 H 0.76553 0.10051 0.77782 0.0
Mn720 Mn 0.7628 0.63945 0.00616 0.0
Mn721 Mn 0.75223 0.59304 0.96329 0.0
C722 C 0.72362 0.62019 0.99427 0.0
C723 C 0.77 0.6549 0.04659 0.0
C724 C 0.76641 0.64495 0.95245 0.0
O725 O 0.79576 0.62831 0.00564 0.0
O726 O 0.78534 0.59555 0.97917 0.0
C727 C 0.75375 0.55272 0.99355 0.0
N728 N 0.74165 0.56382 0.97698 0.0
C729 C 0.70693 0.53288 0.97472 0.0
C730 C 0.7191 0.52103 0.99162 0.0
C731 C 0.7426 0.53102 1.00109 0.0
C732 C 0.71904 0.55435 0.96773 0.0
H733 H 0.77175 0.56039 1.00103 0.0
C734 C 0.80047 0.6092 0.99458 0.0
O735 O 0.77562 0.66807 0.0293 0.0
O736 O 0.76127 0.63254 0.04047 0.0
N737 N 0.72043 0.58861 0.94728 0.0
C738 C 0.71058 0.60307 0.9324 0.0
C739 C 0.68682 0.59607 0.92206 0.0
C740 C 0.67345 0.57428 0.92707 0.0
C741 C 0.68397 0.55966 0.94237 0.0
C742 C 0.70781 0.56746 0.95197 0.0
H743 H 0.72071 0.61988 0.92855 0.0
O744 O 0.72759 0.64202 0.00417 0.0
O745 O 0.74264 0.61067 0.99125 0.0
O746 O 0.76642 0.65426 0.97392 0.0
O747 O 0.76241 0.62232 0.94693 0.0
C748 C 0.67158 0.53791 0.94885 0.0
C749 C 0.68306 0.52452 0.96501 0.0
H750 H 0.71048 0.50439 0.99764 0.0
H751 H 0.75205 0.52206 0.01425 0.0
H752 H 0.67879 0.60749 0.91034 0.0
H753 H 0.65504 0.56907 0.91926 0.0
H754 H 0.6531 0.53148 0.9418 0.0
H755 H 0.67322 0.508 0.97013 0.0
Mn756 Mn 0.90142 0.51923 0.78643 0.0
Mn757 Mn 0.85582 0.51157 0.82185 0.0
C758 C 0.88615 0.48152 0.79631 0.0
C759 C 0.91629 0.52169 0.74929 0.0
C760 C 0.90754 0.53117 0.84078 0.0
O761 O 0.88754 0.54996 0.7843 0.0
O762 O 0.85643 0.54222 0.80689 0.0
C763 C 0.81458 0.50651 0.78472 0.0
N764 N 0.82659 0.49753 0.80304 0.0
C765 C 0.79666 0.46196 0.80003 0.0
C766 C 0.78389 0.47092 0.78125 0.0
C767 C 0.79292 0.49327 0.77355 0.0
C768 C 0.81804 0.47605 0.81062 0.0
H769 H 0.82148 0.52362 0.77864 0.0
C770 C 0.8687 0.55529 0.79305 0.0
O771 O 0.929 0.53167 0.76879 0.0
O772 O 0.89454 0.51103 0.75124 0.0
N773 N 0.85296 0.48219 0.83679 0.0
C774 C 0.86822 0.47539 0.85401 0.0
C775 C 0.86226 0.45305 0.86304 0.0
C776 C 0.84065 0.43798 0.85437 0.0
C777 C 0.82517 0.44542 0.83675 0.0
C778 C 0.83198 0.46795 0.82853 0.0
H779 H 0.88492 0.48682 0.86067 0.0
O780 O 0.90786 0.48605 0.78993 0.0
O781 O 0.87418 0.4992 0.79688 0.0
O782 O 0.9162 0.52984 0.82057 0.0
O783 O 0.88514 0.52542 0.84318 0.0
C784 C 0.80348 0.43115 0.82667 0.0
C785 C 0.78925 0.43941 0.80831 0.0
H786 H 0.76727 0.46069 0.77248 0.0
H787 H 0.78324 0.50025 0.75899 0.0
H788 H 0.87435 0.4474 0.87658 0.0
H789 H 0.83622 0.42066 0.86121 0.0
H790 H 0.79777 0.41363 0.83265 0.0
H791 H 0.7728 0.42811 0.80045 0.0
Mn792 Mn 0.75684 0.37085 0.50458 0.0
Mn793 Mn 0.7621 0.41736 0.47037 0.0
C794 C 0.79427 0.38918 0.49599 0.0
C795 C 0.75512 0.3557 0.5419 0.0
C796 C 0.74594 0.36564 0.44995 0.0
O797 O 0.72441 0.3821 0.50601 0.0
O798 O 0.73094 0.41434 0.48482 0.0
C799 C 0.76449 0.45692 0.50861 0.0
N800 N 0.77452 0.4463 0.4902 0.0
C801 C 0.80948 0.47713 0.49558 0.0
C802 C 0.79941 0.48849 0.51445 0.0
C803 C 0.77683 0.47832 0.521 0.0
C804 C 0.79624 0.45596 0.48373 0.0
H805 H 0.74724 0.44909 0.5139 0.0
C806 C 0.71812 0.40085 0.49791 0.0
O807 O 0.74651 0.34244 0.52226 0.0
O808 O 0.76383 0.37792 0.53986 0.0
N809 N 0.79198 0.42243 0.45613 0.0
C810 C 0.79982 0.40854 0.4385 0.0
C811 C 0.82246 0.41586 0.43036 0.0
C812 C 0.83678 0.43736 0.44042 0.0
C813 C 0.82828 0.45142 0.45845 0.0
C814 C 0.80545 0.44336 0.46564 0.0
H815 H 0.78898 0.39192 0.4308 0.0
O816 O 0.79126 0.3674 0.50205 0.0
O817 O 0.7753 0.39932 0.49498 0.0
O818 O 0.74801 0.35647 0.4699 0.0
O819 O 0.74989 0.38821 0.44819 0.0
C820 C 0.84177 0.47286 0.46989 0.0
C821 C 0.83238 0.48571 0.48845 0.0
H822 H 0.80897 0.50489 0.52418 0.0
H823 H 0.769 0.4869 0.53565 0.0
H824 H 0.82893 0.40488 0.41649 0.0
H825 H 0.85435 0.44279 0.4343 0.0
H826 H 0.85952 0.47947 0.46478 0.0
H827 H 0.84306 0.502 0.49732 0.0
Mn828 Mn 0.63529 0.51375 0.29165 0.0
Mn829 Mn 0.68245 0.52477 0.33404 0.0
C830 C 0.65472 0.55266 0.3029 0.0
C831 C 0.61957 0.50624 0.2514 0.0
C832 C 0.63052 0.51128 0.34557 0.0
O833 O 0.64623 0.48111 0.29247 0.0
O834 O 0.6791 0.4914 0.31909 0.0
C835 C 0.72214 0.52148 0.30312 0.0
N836 N 0.71163 0.53422 0.31965 0.0
C837 C 0.74338 0.56806 0.32075 0.0
C838 C 0.75465 0.55522 0.30392 0.0
C839 C 0.74395 0.53185 0.29504 0.0
C840 C 0.72177 0.55673 0.32831 0.0
H841 H 0.71391 0.5036 0.29607 0.0
C842 C 0.66521 0.47633 0.30385 0.0
O843 O 0.60637 0.50084 0.26878 0.0
O844 O 0.64205 0.51497 0.25738 0.0
N845 N 0.68779 0.5568 0.34917 0.0
C846 C 0.67373 0.56741 0.36391 0.0
C847 C 0.68142 0.59118 0.3736 0.0
C848 C 0.70345 0.60378 0.36808 0.0
C849 C 0.71763 0.59248 0.35291 0.0
C850 C 0.70916 0.56868 0.34397 0.0
H851 H 0.6567 0.5579 0.36808 0.0
O852 O 0.63266 0.5487 0.29331 0.0
O853 O 0.66438 0.53381 0.30605 0.0
O854 O 0.6209 0.51023 0.32404 0.0
O855 O 0.65327 0.51588 0.35096 0.0
C856 C 0.73956 0.60408 0.3459 0.0
C857 C 0.75244 0.59188 0.32984 0.0
H858 H 0.77136 0.56322 0.29747 0.0
H859 H 0.75244 0.52188 0.2819 0.0
H860 H 0.67031 0.59982 0.3852 0.0
H861 H 0.70918 0.6222 0.37538 0.0
H862 H 0.7465 0.62251 0.35245 0.0
H863 H 0.76908 0.60112 0.32427 0.0
Zn864 Zn 0.03859 0.00159 0.0414 0.0
Zn865 Zn 0.99513 0.02207 0.00953 0.0
C866 C 0.01809 0.96359 0.06418 0.0
O867 O 0.02947 0.97928 0.08138 0.0
C868 C 0.0083 0.05592 0.97909 0.0
O869 O 0.99614 0.03721 0.96573 0.0
O870 O 0.07125 0.99353 0.05139 0.0
O871 O 0.04369 0.01227 0.00829 0.0
O872 O 0.00898 0.99764 0.98809 0.0
C873 C 0.07396 0.97438 0.03929 0.0
O874 O 0.05684 0.96394 0.02292 0.0
O875 O 0.01713 0.96947 0.04266 0.0
C876 C 0.95701 0.04495 0.01076 0.0
O877 O 0.97431 0.05707 0.02602 0.0
O878 O 0.96072 0.02578 0.99929 0.0
O879 O 0.99237 0.01932 0.04541 0.0
O880 O 0.02768 0.02395 0.06638 0.0
O881 O 0.01288 0.05413 1.00147 0.0
C882 C 0.03176 0.00325 0.98865 0.0
C883 C 0.00503 0.0231 0.06554 0.0
Zn884 Zn 0.25283 0.75546 0.29283 0.0
Zn885 Zn 0.27582 0.77096 0.24812 0.0
C886 C 0.2199 0.71542 0.27392 0.0
O887 O 0.20623 0.72955 0.28346 0.0
C888 C 0.30909 0.81125 0.27079 0.0
O889 O 0.32459 0.79809 0.2633 0.0
O890 O 0.24765 0.74862 0.32683 0.0
O891 O 0.28849 0.76618 0.29539 0.0
O892 O 0.29559 0.74739 0.26177 0.0
C893 C 0.26045 0.73305 0.33256 0.0
O894 O 0.27272 0.72398 0.31624 0.0
O895 O 0.24235 0.72297 0.27435 0.0
C896 C 0.27278 0.79636 0.2097 0.0
O897 O 0.2618 0.80652 0.22646 0.0
O898 O 0.28257 0.77835 0.21445 0.0
O899 O 0.23967 0.76269 0.24448 0.0
O900 O 0.2317 0.77771 0.2797 0.0
O901 O 0.2867 0.80316 0.26731 0.0
C902 C 0.30169 0.75423 0.28383 0.0
C903 C 0.22632 0.77345 0.25716 0.0
Zn904 Zn 0.49189 0.01856 0.53722 0.0
Zn905 Zn 0.54002 1.00024 0.5197 0.0
C906 C 0.51272 0.05714 0.56901 0.0
O907 O 0.50018 0.0429 0.58252 0.0
C908 C 0.52 0.96163 0.4877 0.0
O909 O 0.53166 0.97658 0.47422 0.0
O910 O 0.45795 0.02707 0.53909 0.0
O911 O 0.49284 0.00794 0.5025 0.0
O912 O 0.5299 0.02293 0.49588 0.0
C913 C 0.45534 0.04604 0.52898 0.0
O914 O 0.47358 0.05713 0.51883 0.0
O915 O 0.51328 0.05029 0.54695 0.0
C916 C 0.57799 0.97574 0.53037 0.0
O917 O 0.56086 0.96629 0.54298 0.0
O918 O 0.57403 0.99267 0.51763 0.0
O919 O 0.53896 0.01073 0.55441 0.0
O920 O 0.50187 0.99585 0.56116 0.0
O921 O 0.51972 0.96788 0.50995 0.0
C922 C 0.50753 0.01818 0.489 0.0
C923 C 0.52428 1.00059 0.56797 0.0
Zn924 Zn 0.28803 0.24207 0.76512 0.0
Zn925 Zn 0.24214 0.26369 0.786 0.0
C926 C 0.26799 0.21411 0.72171 0.0
O927 O 0.27092 0.19718 0.73582 0.0
C928 C 0.25253 0.29516 0.82644 0.0
O929 O 0.24259 0.30667 0.80993 0.0
O930 O 0.32181 0.23768 0.75919 0.0
O931 O 0.29276 0.27699 0.77828 0.0
O932 O 0.25876 0.28649 0.76381 0.0
C933 C 0.32944 0.25253 0.7445 0.0
O934 O 0.31533 0.26721 0.73693 0.0
O935 O 0.27198 0.23582 0.7307 0.0
C936 C 0.19882 0.25592 0.80494 0.0
O937 O 0.21187 0.24192 0.81562 0.0
O938 O 0.2079 0.26861 0.78909 0.0
O939 O 0.23718 0.22778 0.77778 0.0
O940 O 0.27245 0.21682 0.78537 0.0
O941 O 0.25703 0.27439 0.8203 0.0
C942 C 0.28144 0.29183 0.76844 0.0
C943 C 0.24961 0.21211 0.78389 0.0
Zn944 Zn 0.0308 0.98528 0.53314 0.0
Zn945 Zn 0.00717 0.03001 0.50989 0.0
C946 C 0.05892 0.00413 0.57695 0.0
O947 O 0.07591 0.00361 0.56233 0.0
C948 C 0.97567 0.00897 0.46993 0.0
O949 O 0.96085 0.01474 0.48545 0.0
O950 O 0.0367 0.95168 0.53662 0.0
O951 O 0.99545 0.98018 0.52056 0.0
O952 O 0.98475 0.01419 0.53294 0.0
C953 C 0.02093 0.94091 0.54876 0.0
O954 O 0.00426 0.95233 0.55666 0.0
O955 O 0.03703 0.999 0.56827 0.0
C956 C 0.01269 0.07004 0.4861 0.0
O957 O 0.02612 0.05577 0.47634 0.0
O958 O 1.00075 0.06306 0.50337 0.0
O959 O 0.04315 0.03708 0.51904 0.0
O960 O 0.05558 0.00243 0.51326 0.0
O961 O 0.99807 0.01206 0.47663 0.0
C962 C 0.98014 0.99145 0.52962 0.0
C963 C 0.05949 0.02514 0.51381 0.0
Zn964 Zn 0.26048 0.78184 0.76175 0.0
Zn965 Zn 0.27446 0.73128 0.77578 0.0
C966 C 0.22092 0.77141 0.73008 0.0
O967 O 0.23653 0.78665 0.7204 0.0
C968 C 0.31576 0.74187 0.8055 0.0
O969 O 0.30175 0.72533 0.81534 0.0
O970 O 0.25447 0.8168 0.76258 0.0
O971 O 0.27073 0.77763 0.79605 0.0
O972 O 0.25341 0.74096 0.80118 0.0
C973 C 0.23604 0.81949 0.77368 0.0
O974 O 0.22515 0.80118 0.78382 0.0
O975 O 0.22729 0.76385 0.75 0.0
C976 C 0.2967 0.69232 0.76143 0.0
O977 O 0.30691 0.70974 0.74966 0.0
O978 O 0.28009 0.69642 0.77459 0.0
O979 O 0.26277 0.73583 0.74218 0.0
O980 O 0.28233 0.77147 0.73709 0.0
O981 O 0.30774 0.74973 0.78634 0.0
C982 C 0.26001 0.7628 0.8091 0.0
C983 C 0.27533 0.74957 0.72947 0.0
Zn984 Zn 0.51669 0.02372 1.00128 0.0
Zn985 Zn 0.50462 0.00103 0.04584 0.0
C986 C 0.55577 0.05781 0.02117 0.0
O987 O 0.54151 0.07104 0.01101 0.0
C988 C 0.46434 0.9668 0.0318 0.0
O989 O 0.47751 0.95575 0.04613 0.0
O990 O 0.52466 0.03092 0.96794 0.0
O991 O 0.50856 0.98809 0.99782 0.0
O992 O 0.52844 0.98216 0.03138 0.0
C993 C 0.54385 0.02292 0.96375 0.0
O994 O 0.55426 0.01165 0.98013 0.0
O995 O 0.54844 0.03546 0.02111 0.0
C996 C 0.48021 0.00156 0.08595 0.0
O997 O 0.46689 0.01054 0.06989 0.0
O998 O 0.49961 0.99486 0.08022 0.0
O999 O 0.51041 0.03686 0.04879 0.0
O1000 O 0.49241 0.04254 0.01409 0.0
O1001 O 0.47247 0.988 0.02736 0.0
C1002 C 0.52157 0.97576 0.00933 0.0
C1003 C 0.49751 0.04866 0.03642 0.0
Zn1004 Zn 0.27228 0.23787 0.25527 0.0
Zn1005 Zn 0.25731 0.28081 0.28562 0.0
C1006 C 0.32445 0.26565 0.26321 0.0
O1007 O 0.32712 0.26296 0.28629 0.0
C1008 C 0.21939 0.26186 0.30898 0.0
O1009 O 0.23599 0.27271 0.32569 0.0
O1010 O 0.27781 0.20474 0.24309 0.0
O1011 O 0.26508 0.23267 0.28961 0.0
O1012 O 0.27928 0.26728 0.31 0.0
C1013 C 0.29602 0.20016 0.25567 0.0
O1014 O 0.30623 0.2156 0.27354 0.0
O1015 O 0.30452 0.25756 0.25106 0.0
C1016 C 0.23397 0.3185 0.281 0.0
O1017 O 0.22541 0.30249 0.26295 0.0
O1018 O 0.25035 0.31384 0.29606 0.0
O1019 O 0.2675 0.28561 0.25199 0.0
O1020 O 0.24953 0.25179 0.23239 0.0
O1021 O 0.2242 0.26126 0.2871 0.0
C1022 C 0.27371 0.24459 0.30936 0.0
C1023 C 0.25747 0.27407 0.2325 0.0
Zn1024 Zn 0.53118 0.48684 0.03436 0.0
Zn1025 Zn 0.50597 0.53219 0.0092 0.0
C1026 C 0.55884 0.5079 0.07734 0.0
O1027 O 0.57587 0.5054 0.06318 0.0
C1028 C 0.46926 0.52139 0.97132 0.0
O1029 O 0.45919 0.53292 0.98791 0.0
O1030 O 0.53573 0.45333 0.0406 0.0
O1031 O 0.49623 0.48215 0.02048 0.0
O1032 O 0.48708 0.51619 0.0349 0.0
C1033 C 0.52349 0.44599 0.05751 0.0
O1034 O 0.50967 0.45986 0.06721 0.0
O1035 O 0.537 0.50336 0.06845 0.0
C1036 C 0.50865 0.57409 0.98804 0.0
O1037 O 0.51751 0.55963 0.97304 0.0
O1038 O 0.50171 0.56672 0.00764 0.0
O1039 O 0.54207 0.53494 0.00961 0.0
O1040 O 0.55742 0.50216 0.01512 0.0
O1041 O 0.49013 0.51651 0.97662 0.0
C1042 C 0.4816 0.49362 0.03048 0.0
C1043 C 0.55984 0.52379 0.01005 0.0
Zn1044 Zn 0.7493 0.28287 0.25404 0.0
Zn1045 Zn 0.78633 0.23363 0.27907 0.0
C1046 C 0.7082 0.2483 0.23074 0.0
O1047 O 0.72333 0.24133 0.21619 0.0
C1048 C 0.82604 0.26638 0.30948 0.0
O1049 O 0.81124 0.2812 0.31472 0.0
O1050 O 0.74341 0.31749 0.25779 0.0
O1051 O 0.76768 0.27446 0.28318 0.0
O1052 O 0.76267 0.24271 0.30243 0.0
C1053 C 0.72511 0.32006 0.26907 0.0
O1054 O 0.71351 0.30142 0.27812 0.0
O1055 O 0.71604 0.26336 0.24865 0.0
C1056 C 0.80804 0.19434 0.26557 0.0
O1057 O 0.82306 0.21269 0.25983 0.0
O1058 O 0.78865 0.19815 0.27426 0.0
O1059 O 0.78119 0.24717 0.24662 0.0
O1060 O 0.76664 0.27354 0.22538 0.0
O1061 O 0.81887 0.24781 0.29506 0.0
C1062 C 0.75784 0.26347 0.29962 0.0
C1063 C 0.77786 0.2558 0.22651 0.0
Zn1064 Zn 0.01716 0.51985 0.50204 0.0
Zn1065 Zn 0.00658 0.50193 0.55007 0.0
C1066 C 0.05913 0.55213 0.50966 0.0
O1067 O 0.04466 0.5622 0.4957 0.0
C1068 C 0.96312 0.47149 0.53939 0.0
O1069 O 0.97507 0.46043 0.55483 0.0
O1070 O 0.02044 0.52203 0.46655 0.0
O1071 O 0.00687 0.48427 0.50356 0.0
O1072 O 0.02772 0.47957 0.53695 0.0
C1073 C 0.03554 0.50873 0.46064 0.0
O1074 O 0.04527 0.49719 0.47722 0.0
O1075 O 0.05129 0.53181 0.5167 0.0
C1076 C 0.98564 0.5109 0.59093 0.0
O1077 O 0.97518 0.52225 0.57466 0.0
O1078 O 0.00152 0.49863 0.5849 0.0
O1079 O 0.01796 0.53718 0.54983 0.0
O1080 O 0.9972 0.54295 0.51668 0.0
O1081 O 0.97317 0.49136 0.53301 0.0
C1082 C 0.01967 0.47199 0.51547 0.0
C1083 C 0.0055 0.55 0.53826 0.0
Zn1084 Zn 0.78763 0.74553 0.26434 0.0
Zn1085 Zn 0.74065 0.76672 0.28373 0.0
C1086 C 0.76947 0.71704 0.22073 0.0
O1087 O 0.77239 0.70043 0.23524 0.0
C1088 C 0.75122 0.80037 0.32313 0.0
O1089 O 0.74056 0.81114 0.30645 0.0
O1090 O 0.82214 0.74295 0.2597 0.0
O1091 O 0.7898 0.78004 0.27816 0.0
O1092 O 0.75664 0.78776 0.25981 0.0
C1093 C 0.82997 0.75859 0.24585 0.0
O1094 O 0.81567 0.77313 0.23838 0.0
O1095 O 0.77289 0.73885 0.22941 0.0
C1096 C 0.69883 0.7605 0.30487 0.0
O1097 O 0.71326 0.74863 0.31679 0.0
O1098 O 0.70619 0.77097 0.28685 0.0
O1099 O 0.73671 0.7308 0.27846 0.0
O1100 O 0.7722 0.71951 0.28369 0.0
O1101 O 0.75609 0.77965 0.31742 0.0
C1102 C 0.77887 0.79405 0.26658 0.0
C1103 C 0.7494 0.71493 0.28316 0.0
Zn1104 Zn 0.75298 0.25918 0.79199 0.0
Zn1105 Zn 0.77364 0.27066 0.74553 0.0
C1106 C 0.71978 0.21844 0.77514 0.0
O1107 O 0.70633 0.23249 0.78521 0.0
C1108 C 0.80762 0.31087 0.76254 0.0
O1109 O 0.8206 0.29704 0.7514 0.0
O1110 O 0.7469 0.25295 0.82612 0.0
O1111 O 0.78867 0.26861 0.79401 0.0
O1112 O 0.79447 0.24851 0.76048 0.0
C1113 C 0.75644 0.23505 0.83168 0.0
O1114 O 0.76847 0.22466 0.81603 0.0
O1115 O 0.742 0.22632 0.7743 0.0
C1116 C 0.7673 0.29299 0.70507 0.0
O1117 O 0.75596 0.3032 0.7215 0.0
O1118 O 0.77859 0.27624 0.71081 0.0
O1119 O 0.73766 0.26176 0.74409 0.0
O1120 O 0.73233 0.28155 0.77785 0.0
O1121 O 0.78527 0.30341 0.76314 0.0
C1122 C 0.80146 0.25635 0.78221 0.0
C1123 C 0.72525 0.27435 0.75603 0.0
Zn1124 Zn 0.77296 0.73671 0.75489 0.0
Zn1125 Zn 0.75234 0.77885 0.7856 0.0
C1126 C 0.8113 0.75762 0.73276 0.0
O1127 O 0.79571 0.74639 0.71536 0.0
C1128 C 0.71628 0.76005 0.81239 0.0
O1129 O 0.73381 0.77045 0.82836 0.0
O1130 O 0.78122 0.70422 0.74481 0.0
O1131 O 0.76236 0.73104 0.78797 0.0
O1132 O 0.77649 0.76567 0.80813 0.0
C1133 C 0.7999 0.70131 0.75779 0.0
O1134 O 0.80979 0.71827 0.77449 0.0
O1135 O 0.80528 0.75812 0.75421 0.0
C1136 C 0.72759 0.81601 0.78519 0.0
O1137 O 0.71604 0.79936 0.76897 0.0
O1138 O 0.74662 0.81208 0.79694 0.0
O1139 O 0.75762 0.78373 0.75051 0.0
O1140 O 0.7506 0.74833 0.72991 0.0
O1141 O 0.71999 0.75926 0.79021 0.0
C1142 C 0.77124 0.74297 0.80762 0.0
C1143 C 0.75254 0.771 0.73051 0.0
Zn1144 Zn 0.53711 0.49605 0.54125 0.0
Zn1145 Zn 0.49654 0.52423 0.51049 0.0
C1146 C 0.51369 0.45979 0.56387 0.0
O1147 O 0.52593 0.47502 0.58098 0.0
C1148 C 0.517 0.55989 0.48407 0.0
O1149 O 0.50618 0.54285 0.4679 0.0
O1150 O 0.56901 0.48564 0.55103 0.0
O1151 O 0.54331 0.50531 0.50789 0.0
O1152 O 0.50772 0.49949 0.48745 0.0
C1153 C 0.57084 0.46633 0.5386 0.0
O1154 O 0.553 0.45647 0.52274 0.0
O1155 O 0.51368 0.46531 0.54226 0.0
C1156 C 0.45983 0.54981 0.51066 0.0
O1157 O 0.47658 0.56121 0.52693 0.0
O1158 O 0.46352 0.53066 0.49922 0.0
O1159 O 0.49204 0.51882 0.5455 0.0
O1160 O 0.52704 0.51959 0.56622 0.0
O1161 O 0.51718 0.5561 0.50619 0.0
C1162 C 0.53034 0.5001 0.48806 0.0
C1163 C 0.50464 0.52051 0.56559 0.0
Zn1164 Zn 0.99214 0.51713 0.03784 0.0
Zn1165 Zn 0.04249 0.5019 0.02211 0.0
C1166 C 0.01096 0.55633 0.06948 0.0
O1167 O 0.99835 0.54179 0.08266 0.0
C1168 C 0.03335 0.46235 0.99089 0.0
O1169 O 0.04792 0.4785 0.98113 0.0
O1170 O 0.95785 0.52519 0.03848 0.0
O1171 O 0.99459 0.50533 0.00372 0.0
O1172 O 0.03085 0.52303 0.99735 0.0
C1173 C 0.95536 0.54408 0.02817 0.0
O1174 O 0.97372 0.55509 0.01814 0.0
O1175 O 0.01265 0.54939 0.04764 0.0
C1176 C 0.08216 0.48058 0.03495 0.0
O1177 O 0.06481 0.47018 0.04674 0.0
O1178 O 0.07792 0.49751 0.02232 0.0
O1179 O 0.0387 0.51164 0.0565 0.0
O1180 O 0.00193 0.49492 0.06227 0.0
O1181 O 0.02559 0.4683 0.01082 0.0
C1182 C 0.00869 0.51631 0.99016 0.0
C1183 C 0.02424 0.50012 0.06937 0.0
H1184 H 0.01341 0.17088 0.8844 0.0
H1185 H 0.01061 0.20466 0.95557 0.0
H1186 H 0.0193 0.13392 0.9015 0.0
H1187 H 0.01493 0.16733 0.97272 0.0
H1188 H 0.03336 0.09919 1.0 0.0
H1189 H 0.03749 0.13772 0.98266 0.0
H1190 H 0.99602 0.10325 0.91759 0.0
H1191 H 0.9932 0.06518 0.93421 0.0
C1192 C 0.01399 0.17034 0.90372 0.0
C1193 C 0.01131 0.19054 0.91862 0.0
C1194 C 0.01721 0.1491 0.91358 0.0
C1195 C 0.01719 0.14735 0.93855 0.0
C1196 C 0.01533 0.16793 0.95349 0.0
C1197 C 0.01264 0.18933 0.94363 0.0
C1198 C 0.02555 0.09991 0.98184 0.0
C1199 C 0.01299 0.07911 0.96852 0.0
C1200 C 0.02771 0.12201 0.97194 0.0
C1201 C 0.01709 0.12377 0.94863 0.0
C1202 C 0.00498 0.10275 0.9353 0.0
C1203 C 0.00316 0.08078 0.945 0.0
H1204 H 0.08325 0.80525 0.21217 0.0
H1205 H 0.10783 0.76717 0.15175 0.0
H1206 H 0.12269 0.80789 0.23438 0.0
H1207 H 0.14637 0.76849 0.17409 0.0
H1208 H 0.21882 0.78274 0.2108 0.0
H1209 H 0.18239 0.79061 0.18972 0.0
H1210 H 0.14633 0.78383 0.25477 0.0
H1211 H 0.1839 0.77795 0.27646 0.0
C1212 C 0.09716 0.7977 0.20354 0.0
C1213 C 0.09247 0.78607 0.18019 0.0
C1214 C 0.11968 0.79895 0.21637 0.0
C1215 C 0.13784 0.78832 0.20618 0.0
C1216 C 0.13319 0.77738 0.18249 0.0
C1217 C 0.11093 0.7765 0.1696 0.0
C1218 C 0.20328 0.78341 0.22077 0.0
C1219 C 0.20421 0.7797 0.24529 0.0
C1220 C 0.1822 0.78764 0.20857 0.0
C1221 C 0.16111 0.78738 0.2203 0.0
C1222 C 0.16222 0.78441 0.24512 0.0
C1223 C 0.18368 0.78086 0.25756 0.0
H1224 H 0.48635 0.80716 0.44415 0.0
H1225 H 0.51382 0.84429 0.38506 0.0
H1226 H 0.48759 0.84558 0.46754 0.0
H1227 H 0.51598 0.88231 0.40852 0.0
H1228 H 0.49854 0.94826 0.44296 0.0
H1229 H 0.49034 0.90806 0.42255 0.0
H1230 H 0.51399 0.87968 0.48813 0.0
H1231 H 0.52099 0.92004 0.50881 0.0
C1232 C 0.49293 0.8235 0.43629 0.0
C1233 C 0.49981 0.82274 0.4127 0.0
C1234 C 0.49364 0.8455 0.44968 0.0
C1235 C 0.50146 0.86709 0.43978 0.0
C1236 C 0.50907 0.86613 0.41647 0.0
C1237 C 0.50807 0.84428 0.40306 0.0
C1238 C 0.5014 0.93331 0.4531 0.0
C1239 C 0.5105 0.93712 0.47732 0.0
C1240 C 0.49698 0.91031 0.44139 0.0
C1241 C 0.50218 0.89069 0.4535 0.0
C1242 C 0.50978 0.89435 0.47825 0.0
C1243 C 0.51375 0.91743 0.49013 0.0
H1244 H 0.47543 0.25111 0.70253 0.0
H1245 H 0.4277 0.24838 0.63776 0.0
H1246 H 0.44107 0.25049 0.72664 0.0
H1247 H 0.39369 0.24796 0.66189 0.0
H1248 H 0.34893 0.28302 0.7138 0.0
H1249 H 0.38483 0.28146 0.69321 0.0
H1250 H 0.39904 0.22114 0.73107 0.0
H1251 H 0.36248 0.22239 0.75186 0.0
C1252 C 0.45765 0.25032 0.69345 0.0
C1253 C 0.45428 0.24999 0.66825 0.0
C1254 C 0.43806 0.24979 0.70724 0.0
C1255 C 0.41491 0.2493 0.69605 0.0
C1256 C 0.41147 0.24851 0.67089 0.0
C1257 C 0.43093 0.24869 0.65711 0.0
C1258 C 0.35965 0.26942 0.71793 0.0
C1259 C 0.35268 0.25259 0.73425 0.0
C1260 C 0.38019 0.26855 0.70606 0.0
C1261 C 0.39438 0.25099 0.71036 0.0
C1262 C 0.38823 0.23481 0.72749 0.0
C1263 C 0.36738 0.23551 0.73931 0.0
H1264 H 0.04419 0.84446 0.65072 0.0
H1265 H 0.99707 0.79705 0.59666 0.0
H1266 H 0.04644 0.87622 0.62374 0.0
H1267 H 0.99922 0.82911 0.56984 0.0
H1268 H 0.98331 0.90661 0.55377 0.0
H1269 H 0.98421 0.86995 0.57359 0.0
H1270 H 0.06183 0.88518 0.58192 0.0
H1271 H 0.06091 0.92185 0.56159 0.0
C1272 C 0.03435 0.84077 0.6331 0.0
C1273 C 0.02039 0.81822 0.62587 0.0
C1274 C 0.03587 0.85889 0.61758 0.0
C1275 C 0.0232 0.85495 0.59469 0.0
C1276 C 0.00922 0.83249 0.58741 0.0
C1277 C 0.00798 0.81421 0.60278 0.0
C1278 C 1.00057 0.90177 0.55929 0.0
C1279 C 0.02205 0.91691 0.55624 0.0
C1280 C 0.00107 0.88081 0.57054 0.0
C1281 C 0.02307 0.87492 0.57936 0.0
C1282 C 0.04465 0.88949 0.57532 0.0
C1283 C 0.04415 0.91027 0.56357 0.0
H1284 H 0.44481 0.79956 0.89821 0.0
H1285 H 0.46675 0.74789 0.84772 0.0
H1286 H 0.40469 0.7934 0.87582 0.0
H1287 H 0.42683 0.74146 0.82571 0.0
H1288 H 0.34359 0.71327 0.82572 0.0
H1289 H 0.38476 0.72399 0.84418 0.0
H1290 H 0.38598 0.79693 0.82718 0.0
H1291 H 0.34447 0.78599 0.8079 0.0
C1292 C 0.44103 0.78712 0.88222 0.0
C1293 C 0.45878 0.77458 0.87424 0.0
C1294 C 0.41831 0.78373 0.86939 0.0
C1295 C 0.41296 0.76718 0.84898 0.0
C1296 C 0.43069 0.75445 0.84128 0.0
C1297 C 0.45342 0.75814 0.85381 0.0
C1298 C 0.35264 0.73159 0.82582 0.0
C1299 C 0.34094 0.74886 0.8155 0.0
C1300 C 0.37617 0.73766 0.83628 0.0
C1301 C 0.38832 0.76123 0.83709 0.0
C1302 C 0.37677 0.77864 0.82677 0.0
C1303 C 0.35324 0.7724 0.8157 0.0
H1304 H 0.45982 0.16082 0.1353 0.0
H1305 H 0.50351 0.19533 0.08417 0.0
H1306 H 0.45846 0.122 0.11219 0.0
H1307 H 0.50227 0.15694 0.06116 0.0
H1308 H 0.48276 0.08666 0.01536 0.0
H1309 H 0.47505 0.12392 0.03603 0.0
H1310 H 0.48903 0.09643 0.10462 0.0
H1311 H 0.49646 0.05947 0.0842 0.0
C1312 C 0.46884 0.16004 0.11897 0.0
C1313 C 0.48114 0.18094 0.11101 0.0
C1314 C 0.46811 0.13796 0.10578 0.0
C1315 C 0.48 0.13651 0.08469 0.0
C1316 C 0.49243 0.15753 0.07696 0.0
C1317 C 0.49318 0.17947 0.09013 0.0
C1318 C 0.48379 0.08851 0.03482 0.0
C1319 C 0.49045 0.07029 0.04816 0.0
C1320 C 0.47948 0.10981 0.04664 0.0
C1321 C 0.48149 0.11306 0.07194 0.0
C1322 C 0.48707 0.09437 0.08514 0.0
C1323 C 0.49157 0.07328 0.0734 0.0
H1324 H 0.0893 0.30067 0.34116 0.0
H1325 H 0.09189 0.24436 0.38856 0.0
H1326 H 0.1237 0.28979 0.32253 0.0
H1327 H 0.12629 0.23311 0.36937 0.0
H1328 H 0.20685 0.24942 0.35238 0.0
H1329 H 0.16797 0.24965 0.36778 0.0
H1330 H 0.13727 0.25943 0.29681 0.0
H1331 H 0.17668 0.25989 0.28152 0.0
C1332 C 0.09716 0.28589 0.3476 0.0
C1333 C 0.08791 0.27352 0.36655 0.0
C1334 C 0.11672 0.27942 0.33662 0.0
C1335 C 0.12756 0.26036 0.3442 0.0
C1336 C 0.11837 0.24794 0.36316 0.0
C1337 C 0.09876 0.25447 0.37425 0.0
C1338 C 0.19165 0.251 0.33992 0.0
C1339 C 0.19481 0.25501 0.31586 0.0
C1340 C 0.1693 0.25101 0.34874 0.0
C1341 C 0.14962 0.25505 0.33365 0.0
C1342 C 0.15227 0.2568 0.309 0.0
C1343 C 0.17472 0.25675 0.30015 0.0
H1344 H 0.89688 0.9922 0.16556 0.0
H1345 H 0.95789 0.03039 0.21162 0.0
H1346 H 0.91971 0.99769 0.13067 0.0
H1347 H 0.98049 0.03662 0.17673 0.0
H1348 H 0.02295 0.01997 0.11226 0.0
H1349 H 1.00051 0.01678 0.1477 0.0
H1350 H 0.93607 0.02556 0.10489 0.0
H1351 H 0.95822 0.0279 0.06952 0.0
C1352 C 0.91506 0.00207 0.16821 0.0
C1353 C 0.9255 0.01084 0.19142 0.0
C1354 C 0.92819 0.00533 0.14814 0.0
C1355 C 0.9521 0.01763 0.15071 0.0
C1356 C 0.96235 0.02672 0.17396 0.0
C1357 C 0.94927 0.02332 0.19401 0.0
C1358 C 0.00405 0.02144 0.11048 0.0
C1359 C 0.99244 0.02406 0.08793 0.0
C1360 C 0.99112 0.01967 0.13086 0.0
C1361 C 0.96628 0.02067 0.12928 0.0
C1362 C 0.95497 0.02413 0.10685 0.0
C1363 C 0.9678 0.02571 0.08651 0.0
H1364 H 0.2244 0.65397 0.4507 0.0
H1365 H 0.30054 0.67775 0.46828 0.0
H1366 H 0.2249 0.67909 0.41739 0.0
H1367 H 0.30117 0.70293 0.43458 0.0
H1368 H 0.29297 0.70762 0.35103 0.0
H1369 H 0.2942 0.69082 0.38954 0.0
H1370 H 0.23297 0.72291 0.40777 0.0
H1371 H 0.23159 0.73989 0.3688 0.0
C1372 C 0.24123 0.66455 0.44738 0.0
C1373 C 0.2625 0.66368 0.46167 0.0
C1374 C 0.24145 0.6792 0.42857 0.0
C1375 C 0.26306 0.69292 0.42351 0.0
C1376 C 0.28429 0.69247 0.43817 0.0
C1377 C 0.28395 0.67813 0.45733 0.0
C1378 C 0.27985 0.71133 0.36328 0.0
C1379 C 0.26197 0.72484 0.35683 0.0
C1380 C 0.28075 0.70189 0.38544 0.0
C1381 C 0.26372 0.70564 0.40155 0.0
C1382 C 0.24624 0.71975 0.3955 0.0
C1383 C 0.24547 0.72945 0.37331 0.0
H1384 H 0.56655 0.97163 0.71527 0.0
H1385 H 0.63152 0.99338 0.68129 0.0
H1386 H 0.5426 0.97221 0.67717 0.0
H1387 H 0.60762 0.99342 0.64319 0.0
H1388 H 0.56045 0.02959 0.59478 0.0
H1389 H 0.58156 0.02205 0.63201 0.0
H1390 H 0.53177 0.95627 0.63387 0.0
H1391 H 0.51016 0.96413 0.59614 0.0
C1392 C 0.57577 0.97588 0.69953 0.0
C1393 C 0.60092 0.98284 0.70137 0.0
C1394 C 0.56201 0.97616 0.6777 0.0
C1395 C 0.57318 0.9834 0.65736 0.0
C1396 C 0.59846 0.98835 0.65876 0.0
C1397 C 0.61218 0.98814 0.68054 0.0
C1398 C 0.55384 0.01357 0.60318 0.0
C1399 C 0.53384 0.99729 0.59249 0.0
C1400 C 0.5661 0.00913 0.6244 0.0
C1401 C 0.55879 0.9882 0.63548 0.0
C1402 C 0.53793 0.97245 0.62557 0.0
C1403 C 0.52548 0.97699 0.60415 0.0
H1404 H 0.27307 0.39835 0.94872 0.0
H1405 H 0.26878 0.33273 0.98364 0.0
H1406 H 0.26831 0.37571 0.90986 0.0
H1407 H 0.26353 0.30978 0.94406 0.0
H1408 H 0.27977 0.28269 0.86532 0.0
H1409 H 0.28493 0.30201 0.90671 0.0
H1410 H 0.23592 0.34939 0.88588 0.0
H1411 H 0.23136 0.33089 0.84509 0.0
C1412 C 0.271 0.37904 0.94818 0.0
C1413 C 0.27115 0.36743 0.96946 0.0
C1414 C 0.26815 0.366 0.92576 0.0
C1415 C 0.26528 0.34089 0.92379 0.0
C1416 C 0.26577 0.32912 0.94499 0.0
C1417 C 0.26858 0.34226 0.96763 0.0
C1418 C 0.27017 0.29725 0.86971 0.0
C1419 C 0.25558 0.30559 0.8518 0.0
C1420 C 0.27298 0.30819 0.89339 0.0
C1421 C 0.26113 0.32752 0.89949 0.0
C1422 C 0.24583 0.33503 0.8817 0.0
C1423 C 0.24322 0.32435 0.85824 0.0
H1424 H 0.87885 0.00934 0.3458 0.0
H1425 H 0.94111 0.99234 0.3125 0.0
H1426 H 0.9002 0.0103 0.38521 0.0
H1427 H 0.96239 0.99247 0.35227 0.0
H1428 H 0.93103 0.98674 0.45253 0.0
H1429 H 0.91294 0.98328 0.41131 0.0
H1430 H 0.98067 0.01625 0.38842 0.0
H1431 H 0.99902 0.01872 0.42981 0.0
C1432 C 0.89713 0.00577 0.34688 0.0
C1433 C 0.90818 1.00064 0.32594 0.0
C1434 C 0.90935 0.00608 0.36957 0.0
C1435 C 0.93291 0.00093 0.37206 0.0
C1436 C 0.9443 0.99655 0.35109 0.0
C1437 C 0.93209 0.99648 0.32827 0.0
C1438 C 0.94217 0.99281 0.4386 0.0
C1439 C 0.96639 0.00305 0.44438 0.0
C1440 C 0.93174 0.99111 0.41498 0.0
C1441 C 0.94513 1.00007 0.39654 0.0
C1442 C 0.96978 0.00913 0.4021 0.0
C1443 C 0.98035 0.01051 0.42581 0.0
H1444 H 0.30633 0.70935 0.58331 0.0
H1445 H 0.28652 0.6435 0.61608 0.0
H1446 H 0.30652 0.73217 0.62204 0.0
H1447 H 0.28745 0.66627 0.65489 0.0
H1448 H 0.24882 0.71147 0.70316 0.0
H1449 H 0.25798 0.6907 0.66671 0.0
H1450 H 0.32224 0.74289 0.66518 0.0
H1451 H 0.31274 0.76424 0.70225 0.0
C1452 C 0.30275 0.69969 0.59892 0.0
C1453 C 0.29591 0.67464 0.59658 0.0
C1454 C 0.30294 0.71281 0.62113 0.0
C1455 C 0.29642 0.70106 0.64136 0.0
C1456 C 0.29193 0.67587 0.63944 0.0
C1457 C 0.29156 0.66279 0.61725 0.0
C1458 C 0.26492 0.71866 0.69512 0.0
C1459 C 0.28018 0.73941 0.70567 0.0
C1460 C 0.27031 0.70655 0.67431 0.0
C1461 C 0.29121 0.71473 0.66343 0.0
C1462 C 0.30611 0.73607 0.67333 0.0
C1463 C 0.30062 0.74835 0.69438 0.0
H1464 H 0.64452 0.00294 0.86234 0.0
H1465 H 0.58788 0.02489 0.81743 0.0
H1466 H 0.62157 0.00651 0.89695 0.0
H1467 H 0.56539 0.02999 0.85235 0.0
H1468 H 0.52228 0.01415 0.91791 0.0
H1469 H 0.54285 0.01119 0.8812 0.0
H1470 H 0.61116 0.03605 0.92304 0.0
H1471 H 0.59065 0.0374 0.95946 0.0
C1472 C 0.62716 0.00866 0.85998 0.0
C1473 C 0.61794 0.01367 0.83734 0.0
C1474 C 0.61408 0.01097 0.87982 0.0
C1475 C 0.59179 0.01903 0.87759 0.0
C1476 C 0.58237 0.02357 0.85473 0.0
C1477 C 0.59525 0.0207 0.83474 0.0
C1478 C 0.54163 0.01936 0.91897 0.0
C1479 C 0.555 0.0259 0.94127 0.0
C1480 C 0.55346 0.01765 0.89803 0.0
C1481 C 0.57876 0.02288 0.89919 0.0
C1482 C 0.59178 0.03104 0.92151 0.0
C1483 C 0.58005 0.03218 0.94235 0.0
H1484 H 0.2552 0.31667 0.08509 0.0
H1485 H 0.26873 0.38334 0.13014 0.0
H1486 H 0.25215 0.29456 0.12051 0.0
H1487 H 0.26443 0.36135 0.16568 0.0
H1488 H 0.28357 0.31715 0.22578 0.0
H1489 H 0.28428 0.33856 0.19012 0.0
H1490 H 0.23111 0.28194 0.15262 0.0
H1491 H 0.23135 0.25982 0.18844 0.0
C1492 C 0.25714 0.32666 0.10259 0.0
C1493 C 0.26235 0.35183 0.10473 0.0
C1494 C 0.25523 0.31392 0.12302 0.0
C1495 C 0.25818 0.32596 0.14626 0.0
C1496 C 0.26262 0.35125 0.14826 0.0
C1497 C 0.26488 0.36397 0.12782 0.0
C1498 C 0.27197 0.30917 0.20997 0.0
C1499 C 0.25736 0.28668 0.21009 0.0
C1500 C 0.2722 0.32166 0.18942 0.0
C1501 C 0.25757 0.31232 0.16826 0.0
C1502 C 0.24289 0.28974 0.16836 0.0
C1503 C 0.2429 0.27702 0.18896 0.0
H1504 H 0.18796 0.88667 0.03604 0.0
H1505 H 0.19857 0.94054 0.98558 0.0
H1506 H 0.15467 0.90461 0.05071 0.0
H1507 H 0.16561 0.95822 1.0003 0.0
H1508 H 0.12018 0.99824 0.04458 0.0
H1509 H 0.15626 0.98036 0.03874 0.0
H1510 H 0.11329 0.9098 0.03282 0.0
H1511 H 0.07743 0.92766 0.03843 0.0
C1512 C 0.18312 0.90214 0.02794 0.0
C1513 C 0.19596 0.9121 0.0096 0.0
C1514 C 0.1642 0.91248 0.03646 0.0
C1515 C 0.15794 0.93306 0.02694 0.0
C1516 C 0.17047 0.94273 0.00838 0.0
C1517 C 0.18918 0.93236 0.99975 0.0
C1518 C 0.1187 0.97893 0.0428 0.0
C1519 C 0.0962 0.96425 0.0418 0.0
C1520 C 0.1392 0.96871 0.03924 0.0
C1521 C 0.13743 0.94372 0.03506 0.0
C1522 C 0.11518 0.92907 0.03607 0.0
C1523 C 0.09469 0.93928 0.0392 0.0
H1524 H 0.68064 0.62781 0.97291 0.0
H1525 H 0.71266 0.57998 0.01661 0.0
H1526 H 0.64102 0.60335 0.974 0.0
H1527 H 0.67326 0.55601 0.0187 0.0
H1528 H 0.60195 0.50615 0.00434 0.0
H1529 H 0.64118 0.52865 0.99806 0.0
H1530 H 0.611 0.59394 0.99979 0.0
H1531 H 0.57191 0.57146 0.00497 0.0
C1532 C 0.67911 0.61202 0.98273 0.0
C1533 C 0.69965 0.60537 0.99415 0.0
C1534 C 0.65643 0.59805 0.98354 0.0
C1535 C 0.65376 0.5775 0.99639 0.0
C1536 C 0.67448 0.57127 0.00816 0.0
C1537 C 0.6971 0.58506 0.00707 0.0
C1538 C 0.60368 0.52527 0.00313 0.0
C1539 C 0.58369 0.53691 0.00517 0.0
C1540 C 0.62624 0.53825 0.99969 0.0
C1541 C 0.62946 0.56325 0.99845 0.0
C1542 C 0.60932 0.57473 1.00018 0.0
C1543 C 0.5868 0.56177 0.00336 0.0
H1544 H 0.70838 0.46345 0.31765 0.0
H1545 H 0.64027 0.43629 0.27644 0.0
H1546 H 0.72261 0.42633 0.30687 0.0
H1547 H 0.65475 0.3988 0.26577 0.0
H1548 H 0.68105 0.32699 0.28112 0.0
H1549 H 0.66611 0.36455 0.2878 0.0
H1550 H 0.73364 0.40319 0.27021 0.0
H1551 H 0.74874 0.36529 0.26339 0.0
C1552 C 0.69632 0.44955 0.30636 0.0
C1553 C 0.67303 0.45293 0.29804 0.0
C1554 C 0.70467 0.42833 0.29998 0.0
C1555 C 0.68991 0.40972 0.28533 0.0
C1556 C 0.66652 0.41285 0.27715 0.0
C1557 C 0.65823 0.4343 0.28329 0.0
C1558 C 0.69276 0.34346 0.27856 0.0
C1559 C 0.71619 0.34317 0.27189 0.0
C1560 C 0.68406 0.36498 0.28221 0.0
C1561 C 0.69867 0.38682 0.27956 0.0
C1562 C 0.72202 0.3866 0.27254 0.0
C1563 C 0.73065 0.36494 0.26856 0.0
H1564 H 0.8094 0.42853 0.52636 0.0
H1565 H 0.83352 0.38096 0.47323 0.0
H1566 H 0.85033 0.45079 0.5346 0.0
H1567 H 0.8747 0.40365 0.48124 0.0
H1568 H 0.93845 0.47489 0.49595 0.0
H1569 H 0.89667 0.45611 0.48242 0.0
H1570 H 0.88975 0.42743 0.5511 0.0
H1571 H 0.93127 0.44537 0.56434 0.0
C1572 C 0.82344 0.42324 0.51608 0.0
C1573 C 0.81844 0.40346 0.49882 0.0
C1574 C 0.84673 0.43591 0.5208 0.0
C1575 C 0.86536 0.429 0.5083 0.0
C1576 C 0.86038 0.40944 0.49075 0.0
C1577 C 0.83704 0.39646 0.48629 0.0
C1578 C 0.92789 0.46459 0.50807 0.0
C1579 C 0.93798 0.46142 0.53111 0.0
C1580 C 0.90419 0.45385 0.50032 0.0
C1581 C 0.8903 0.44042 0.5158 0.0
C1582 C 0.90026 0.43773 0.53893 0.0
C1583 C 0.92396 0.44792 0.54642 0.0
H1584 H 0.32996 0.07479 0.30596 0.0
H1585 H 0.38639 0.08898 0.25859 0.0
H1586 H 0.31135 0.10694 0.29084 0.0
H1587 H 0.36742 0.12129 0.24335 0.0
H1588 H 0.34269 0.19671 0.25509 0.0
H1589 H 0.36074 0.16106 0.26002 0.0
H1590 H 0.28993 0.11805 0.25383 0.0
H1591 H 0.27184 0.15411 0.24891 0.0
C1592 C 0.33849 0.08477 0.29235 0.0
C1593 C 0.35983 0.07931 0.28362 0.0
C1594 C 0.32755 0.10301 0.28342 0.0
C1595 C 0.33769 0.11637 0.26562 0.0
C1596 C 0.35918 0.11122 0.25704 0.0
C1597 C 0.37011 0.09282 0.2659 0.0
C1598 C 0.33104 0.17948 0.25398 0.0
C1599 C 0.30594 0.178 0.25164 0.0
C1600 C 0.34136 0.15908 0.25677 0.0
C1601 C 0.32676 0.13682 0.25763 0.0
C1602 C 0.3016 0.13507 0.25351 0.0
C1603 C 0.29124 0.15556 0.2504 0.0
H1604 H 0.31237 0.06626 0.48085 0.0
H1605 H 0.33951 0.133 0.5238 0.0
H1606 H 0.34925 0.05149 0.49195 0.0
H1607 H 0.37679 0.11796 0.53489 0.0
H1608 H 0.44934 0.09143 0.52126 0.0
H1609 H 0.41198 0.10719 0.51504 0.0
H1610 H 0.37176 0.03866 0.52724 0.0
H1611 H 0.40944 0.02277 0.5335 0.0
C1612 C 0.32621 0.07791 0.49263 0.0
C1613 C 0.32284 0.101 0.5013 0.0
C1614 C 0.34734 0.06924 0.4992 0.0
C1615 C 0.36595 0.0834 0.51447 0.0
C1616 C 0.36281 0.10658 0.52303 0.0
C1617 C 0.34144 0.11522 0.51666 0.0
C1618 C 0.43256 0.07971 0.52284 0.0
C1619 C 0.43239 0.05574 0.52772 0.0
C1620 C 0.41111 0.08885 0.51943 0.0
C1621 C 0.38882 0.07421 0.52051 0.0
C1622 C 0.38863 0.05037 0.52605 0.0
C1623 C 0.4102 0.04129 0.52979 0.0
H1624 H 0.64676 0.59571 0.32288 0.0
H1625 H 0.69527 0.56282 0.28076 0.0
H1626 H 0.67117 0.63506 0.32065 0.0
H1627 H 0.71944 0.60193 0.27797 0.0
H1628 H 0.76855 0.67452 0.29296 0.0
H1629 H 0.74653 0.63534 0.30018 0.0
H1630 H 0.6795 0.66228 0.29063 0.0
H1631 H 0.7012 0.70108 0.28404 0.0
C1632 C 0.66272 0.59699 0.31325 0.0
C1633 C 0.66957 0.57635 0.30253 0.0
C1634 C 0.67666 0.61944 0.31185 0.0
C1635 C 0.69738 0.62168 0.2992 0.0
C1636 C 0.70394 0.60089 0.28827 0.0
C1637 C 0.69009 0.5785 0.2898 0.0
C1638 C 0.74914 0.67205 0.29254 0.0
C1639 C 0.73672 0.69099 0.28787 0.0
C1640 C 0.7365 0.6496 0.2966 0.0
C1641 C 0.71121 0.64567 0.29611 0.0
C1642 C 0.69894 0.66471 0.29162 0.0
C1643 C 0.71148 0.687 0.28759 0.0
H1644 H 0.90133 0.44503 0.81886 0.0
H1645 H 0.84467 0.46197 0.77038 0.0
H1646 H 0.88156 0.40299 0.81523 0.0
H1647 H 0.8249 0.42034 0.7667 0.0
H1648 H 0.78514 0.34783 0.77759 0.0
H1649 H 0.80385 0.38922 0.78983 0.0
H1650 H 0.87398 0.3701 0.7824 0.0
H1651 H 0.85539 0.32881 0.77039 0.0
C1652 C 0.88451 0.43972 0.80769 0.0
C1653 C 0.874 0.45664 0.79552 0.0
C1654 C 0.87324 0.41578 0.80557 0.0
C1655 C 0.85151 0.40847 0.79095 0.0
C1656 C 0.84127 0.42551 0.77859 0.0
C1657 C 0.85256 0.44931 0.78067 0.0
C1658 C 0.80456 0.35241 0.77895 0.0
C1659 C 0.81878 0.33518 0.77273 0.0
C1660 C 0.81526 0.3761 0.78588 0.0
C1661 C 0.84036 0.38291 0.78692 0.0
C1662 C 0.85462 0.36537 0.78195 0.0
C1663 C 0.84393 0.34176 0.77486 0.0
H1664 H 0.03369 0.84116 0.1387 0.0
H1665 H 0.98883 0.80876 0.07479 0.0
H1666 H 0.03254 0.88058 0.12484 0.0
H1667 H 0.9873 0.8482 0.0613 0.0
H1668 H 0.01506 0.9225 0.03424 0.0
H1669 H 0.01258 0.88179 0.04641 0.0
H1670 H 0.00418 0.90791 0.11924 0.0
H1671 H 0.00714 0.94843 0.10719 0.0
C1672 C 0.02354 0.8424 0.12176 0.0
C1673 C 0.0113 0.82172 0.10796 0.0
C1674 C 0.02271 0.86503 0.11388 0.0
C1675 C 0.00963 0.86755 0.09205 0.0
C1676 C 0.99765 0.84689 0.07811 0.0
C1677 C 0.99846 0.82426 0.08597 0.0
C1678 C 0.01206 0.91938 0.05268 0.0
C1679 C 0.01135 0.9386 0.06979 0.0
C1680 C 0.01075 0.89611 0.0597 0.0
C1681 C 0.00862 0.89169 0.08391 0.0
C1682 C 0.00645 0.91078 0.10061 0.0
C1683 C 0.00787 0.93395 0.09364 0.0
H1684 H 0.94118 0.22137 0.83129 0.0
H1685 H 0.9185 0.26077 0.89167 0.0
H1686 H 0.90248 0.22105 0.80863 0.0
H1687 H 0.87914 0.25925 0.86996 0.0
H1688 H 0.82923 0.28623 0.81662 0.0
H1689 H 0.86476 0.27966 0.84006 0.0
H1690 H 0.86135 0.21114 0.79931 0.0
H1691 H 0.82561 0.21836 0.77512 0.0
C1692 C 0.92769 0.22981 0.8397 0.0
C1693 C 0.93306 0.24234 0.86252 0.0
C1694 C 0.90533 0.22929 0.82692 0.0
C1695 C 0.88783 0.24098 0.83701 0.0
C1696 C 0.89252 0.25112 0.86105 0.0
C1697 C 0.91495 0.25183 0.87366 0.0
C1698 C 0.83611 0.26978 0.81256 0.0
C1699 C 0.82463 0.25275 0.79411 0.0
C1700 C 0.85643 0.26582 0.82625 0.0
C1701 C 0.86589 0.2446 0.82207 0.0
C1702 C 0.85473 0.22775 0.80308 0.0
C1703 C 0.83431 0.23186 0.78912 0.0
H1704 H 0.50846 0.18405 0.65533 0.0
H1705 H 0.54846 0.21283 0.59881 0.0
H1706 H 0.51034 0.14358 0.63882 0.0
H1707 H 0.55167 0.17235 0.5827 0.0
H1708 H 0.52094 0.09684 0.54433 0.0
H1709 H 0.52858 0.13829 0.56151 0.0
H1710 H 0.53433 0.11448 0.63294 0.0
H1711 H 0.52604 0.07312 0.61567 0.0
C1712 C 0.51787 0.18154 0.63945 0.0
C1713 C 0.5276 0.20121 0.62777 0.0
C1714 C 0.51928 0.15842 0.63012 0.0
C1715 C 0.53125 0.15457 0.60938 0.0
C1716 C 0.54197 0.17454 0.5984 0.0
C1717 C 0.54014 0.19768 0.60755 0.0
C1718 C 0.52433 0.10055 0.56367 0.0
C1719 C 0.52245 0.08186 0.57873 0.0
C1720 C 0.52862 0.12433 0.57358 0.0
C1721 C 0.53117 0.12978 0.5987 0.0
C1722 C 0.53147 0.11097 0.61356 0.0
C1723 C 0.52695 0.08726 0.60369 0.0
H1724 H 0.56766 0.73484 0.37586 0.0
H1725 H 0.55872 0.79463 0.33479 0.0
H1726 H 0.6071 0.73436 0.36138 0.0
H1727 H 0.59853 0.79497 0.32121 0.0
H1728 H 0.65914 0.77243 0.28029 0.0
H1729 H 0.61974 0.7735 0.29501 0.0
H1730 H 0.64667 0.75485 0.36428 0.0
H1731 H 0.68532 0.75271 0.34924 0.0
C1732 C 0.57435 0.74816 0.36411 0.0
C1733 C 0.56012 0.76471 0.3564 0.0
C1734 C 0.59698 0.74796 0.35582 0.0
C1735 C 0.60602 0.76458 0.33999 0.0
C1736 C 0.59197 0.78156 0.3329 0.0
C1737 C 0.56923 0.7815 0.34087 0.0
C1738 C 0.65653 0.76859 0.29863 0.0
C1739 C 0.67519 0.76231 0.31353 0.0
C1740 C 0.63403 0.76932 0.30716 0.0
C1741 C 0.62994 0.76415 0.33086 0.0
C1742 C 0.6489 0.75838 0.3458 0.0
C1743 C 0.67116 0.7573 0.33719 0.0
H1744 H 0.03765 0.22193 0.46926 0.0
H1745 H 0.00958 0.18925 0.39836 0.0
H1746 H 0.03198 0.18255 0.48474 0.0
H1747 H 0.00378 0.15003 0.41387 0.0
H1748 H 0.02833 0.08423 0.44426 0.0
H1749 H 0.03074 0.12345 0.42949 0.0
H1750 H 0.99884 0.14891 0.49198 0.0
H1751 H 0.99654 0.10923 0.50708 0.0
C1752 C 0.03033 0.20635 0.45698 0.0
C1753 C 0.02424 0.20864 0.43255 0.0
C1754 C 0.02685 0.18386 0.46591 0.0
C1755 C 0.01739 0.16325 0.45053 0.0
C1756 C 0.01128 0.16559 0.42611 0.0
C1757 C 0.01461 0.18805 0.41723 0.0
C1758 C 0.0217 0.0981 0.45489 0.0
C1759 C 0.01231 0.09366 0.47691 0.0
C1760 C 0.02296 0.12055 0.4463 0.0
C1761 C 0.01498 0.13923 0.45956 0.0
C1762 C 0.00529 0.13483 0.48149 0.0
C1763 C 0.00382 0.11214 0.49004 0.0
H1764 H 0.55438 0.25078 0.20609 0.0
H1765 H 0.5803 0.24175 0.13603 0.0
H1766 H 0.59366 0.24749 0.22505 0.0
H1767 H 0.62015 0.23966 0.155 0.0
H1768 H 0.67341 0.26972 0.2501 0.0
H1769 H 0.63266 0.26871 0.23284 0.0
H1770 H 0.64273 0.21536 0.17692 0.0
H1771 H 0.68419 0.21728 0.19366 0.0
C1772 C 0.56863 0.24848 0.19473 0.0
C1773 C 0.56433 0.24663 0.16958 0.0
C1774 C 0.5912 0.24662 0.20562 0.0
C1775 C 0.61014 0.24326 0.1916 0.0
C1776 C 0.60587 0.24173 0.16637 0.0
C1777 C 0.58314 0.24323 0.15547 0.0
C1778 C 0.66688 0.25745 0.23435 0.0
C1779 C 0.68215 0.24374 0.22311 0.0
C1780 C 0.64338 0.25683 0.22444 0.0
C1781 C 0.63443 0.24218 0.20327 0.0
C1782 C 0.64924 0.22732 0.19289 0.0
C1783 C 0.67291 0.22818 0.20265 0.0
H1784 H 0.549 0.86991 0.89977 0.0
H1785 H 0.52597 0.82974 0.95868 0.0
H1786 H 0.55236 0.90701 0.9255 0.0
H1787 H 0.52843 0.8669 0.98411 0.0
H1788 H 0.54305 0.93977 0.02784 0.0
H1789 H 0.55131 0.90356 0.00538 0.0
H1790 H 0.52185 0.92729 0.93958 0.0
H1791 H 0.51438 0.96309 0.96149 0.0
C1792 C 0.54486 0.86897 0.91826 0.0
C1793 C 0.53685 0.84688 0.92702 0.0
C1794 C 0.5467 0.89025 0.93301 0.0
C1795 C 0.5402 0.88997 0.95675 0.0
C1796 C 0.5337 0.8678 0.96599 0.0
C1797 C 0.53214 0.84647 0.95131 0.0
C1798 C 0.53865 0.93726 0.00855 0.0
C1799 C 0.52793 0.95422 0.99651 0.0
C1800 C 0.54328 0.91653 0.9957 0.0
C1801 C 0.53741 0.91258 0.97063 0.0
C1802 C 0.52713 0.92988 0.95874 0.0
C1803 C 0.52254 0.95037 0.97145 0.0
H1804 H 0.96694 0.78806 0.72176 0.0
H1805 H 0.93361 0.74227 0.65889 0.0
H1806 H 0.92743 0.79013 0.73543 0.0
H1807 H 0.89422 0.74408 0.67285 0.0
H1808 H 0.82642 0.76955 0.69004 0.0
H1809 H 0.86718 0.77316 0.67809 0.0
H1810 H 0.89362 0.76443 0.75082 0.0
H1811 H 0.85263 0.76118 0.76289 0.0
C1812 C 0.95123 0.77842 0.71082 0.0
C1813 C 0.9535 0.76508 0.6891 0.0
C1814 C 0.92859 0.77953 0.71878 0.0
C1815 C 0.9077 0.76745 0.70515 0.0
C1816 C 0.90996 0.75397 0.68355 0.0
C1817 C 0.93258 0.75278 0.67563 0.0
C1818 C 0.841 0.76889 0.7036 0.0
C1819 C 0.83637 0.76497 0.72736 0.0
C1820 C 0.86431 0.77072 0.6967 0.0
C1821 C 0.88354 0.76857 0.71338 0.0
C1822 C 0.87916 0.7662 0.73755 0.0
C1823 C 0.85573 0.76445 0.74451 0.0
H1824 H 0.08281 0.00805 0.84392 0.0
H1825 H 0.1434 0.99691 0.89105 0.0
H1826 H 0.05773 0.006 0.87758 0.0
H1827 H 0.11832 0.99388 0.92423 0.0
H1828 H 0.07906 0.01954 0.98494 0.0
H1829 H 0.1013 0.01894 0.94999 0.0
H1830 H 0.03725 0.98334 0.90651 0.0
H1831 H 0.01439 0.98485 0.94196 0.0
C1832 C 0.09072 0.00479 0.86135 0.0
C1833 C 0.11528 0.0029 0.86473 0.0
C1834 C 0.07626 0.00351 0.8807 0.0
C1835 C 0.08593 1.00013 0.90392 0.0
C1836 C 0.11024 0.99721 0.90691 0.0
C1837 C 0.12469 0.99877 0.88773 0.0
C1838 C 0.06952 0.01151 0.96801 0.0
C1839 C 0.0448 0.00213 0.96647 0.0
C1840 C 0.08247 0.01096 0.94782 0.0
C1841 C 0.07136 1.00074 0.92524 0.0
C1842 C 0.04651 0.99148 0.92351 0.0
C1843 C 0.03338 0.99219 0.94388 0.0
H1844 H 0.74564 0.30868 0.55126 0.0
H1845 H 0.76808 0.38032 0.58575 0.0
H1846 H 0.74957 0.29252 0.59042 0.0
H1847 H 0.77212 0.36421 0.62459 0.0
H1848 H 0.74681 0.33003 0.69057 0.0
H1849 H 0.74379 0.34403 0.65092 0.0
H1850 H 0.78187 0.28895 0.62404 0.0
H1851 H 0.78481 0.27451 0.66426 0.0
C1852 C 0.7513 0.32096 0.56718 0.0
C1853 C 0.75637 0.34578 0.56548 0.0
C1854 C 0.75378 0.31169 0.58952 0.0
C1855 C 0.76114 0.32711 0.61052 0.0
C1856 C 0.76619 0.3519 0.60873 0.0
C1857 C 0.76388 0.36113 0.58647 0.0
C1858 C 0.75465 0.32081 0.67633 0.0
C1859 C 0.76619 0.30118 0.68063 0.0
C1860 C 0.75297 0.32896 0.65358 0.0
C1861 C 0.76273 0.31771 0.63444 0.0
C1862 C 0.77409 0.29788 0.63851 0.0
C1863 C 0.7759 0.28973 0.6615 0.0
H1864 H 0.45896 0.03979 0.34062 0.0
H1865 H 0.39961 0.03828 0.38504 0.0
H1866 H 0.48644 0.03915 0.3765 0.0
H1867 H 0.4271 0.03765 0.4205 0.0
H1868 H 0.5236 0.05356 0.46019 0.0
H1869 H 0.50228 0.06234 0.42254 0.0
H1870 H 0.44883 0.99966 0.42588 0.0
H1871 H 0.46979 0.99088 0.46275 0.0
C1872 C 0.45184 0.03996 0.35801 0.0
C1873 C 0.42694 0.03859 0.35987 0.0
C1874 C 0.46763 0.03969 0.3785 0.0
C1875 C 0.45873 0.03798 0.40106 0.0
C1876 C 0.43429 0.03868 0.40317 0.0
C1877 C 0.41856 0.03906 0.38283 0.0
C1878 C 0.50758 0.04149 0.45249 0.0
C1879 C 0.49808 0.0218 0.46452 0.0
C1880 C 0.49539 0.04655 0.43113 0.0
C1881 C 0.47365 0.03197 0.42183 0.0
C1882 C 0.46521 0.0115 0.43308 0.0
C1883 C 0.47727 0.00647 0.45414 0.0
H1884 H 0.77181 0.70174 0.06325 0.0
H1885 H 0.77082 0.63126 0.08714 0.0
H1886 H 0.7696 0.71794 0.10444 0.0
H1887 H 0.77012 0.64746 0.12847 0.0
H1888 H 0.74601 0.67524 0.19737 0.0
H1889 H 0.74576 0.66134 0.15521 0.0
H1890 H 0.7882 0.72893 0.1429 0.0
H1891 H 0.787 0.7432 0.18495 0.0
C1892 C 0.7716 0.68979 0.07741 0.0
C1893 C 0.77142 0.6652 0.07193 0.0
C1894 C 0.77039 0.69909 0.10113 0.0
C1895 C 0.76937 0.68409 0.12007 0.0
C1896 C 0.7701 0.65959 0.1145 0.0
C1897 C 0.77082 0.65026 0.09076 0.0
C1898 C 0.75487 0.68727 0.1855 0.0
C1899 C 0.76641 0.71033 0.19444 0.0
C1900 C 0.75508 0.67919 0.16131 0.0
C1901 C 0.76743 0.69371 0.14544 0.0
C1902 C 0.7783 0.71718 0.15431 0.0
C1903 C 0.77762 0.72545 0.17848 0.0
H1904 H 0.07442 0.99766 0.73391 0.0
H1905 H 0.14567 0.00251 0.71032 0.0
H1906 H 0.05795 1.00011 0.69279 0.0
H1907 H 0.12926 0.00357 0.66905 0.0
H1908 H 0.10001 0.02883 0.60113 0.0
H1909 H 0.11402 0.02826 0.64321 0.0
H1910 H 0.04794 0.98196 0.65388 0.0
H1911 H 0.03348 0.98384 0.61195 0.0
C1912 C 0.08651 0.99876 0.71983 0.0
C1913 C 0.11137 0.99996 0.72538 0.0
C1914 C 0.07706 1.00012 0.69615 0.0
C1915 C 0.0922 0.00237 0.67736 0.0
C1916 C 0.117 0.00262 0.68296 0.0
C1917 C 0.12645 0.00169 0.70665 0.0
C1918 C 0.08831 0.0189 0.61262 0.0
C1919 C 0.06563 0.00646 0.60325 0.0
C1920 C 0.09648 0.01825 0.63674 0.0
C1921 C 0.08242 0.00462 0.6521 0.0
C1922 C 0.05929 0.99283 0.64284 0.0
C1923 C 0.05093 0.9939 0.61875 0.0
H1924 H 0.7497 0.3182 0.44437 0.0
H1925 H 0.7312 0.37592 0.40462 0.0
H1926 H 0.74733 0.29284 0.40711 0.0
H1927 H 0.72764 0.35012 0.36727 0.0
H1928 H 0.73433 0.24674 0.33764 0.0
H1929 H 0.7255 0.27037 0.3732 0.0
H1930 H 0.75408 0.33529 0.3425 0.0
H1931 H 0.76206 0.3119 0.30711 0.0
C1932 C 0.74451 0.32532 0.42771 0.0
C1933 C 0.74089 0.34923 0.42752 0.0
C1934 C 0.74299 0.31065 0.40624 0.0
C1935 C 0.73749 0.31937 0.38398 0.0
C1936 C 0.73248 0.34288 0.38396 0.0
C1937 C 0.73435 0.35768 0.40542 0.0
C1938 C 0.73818 0.26608 0.33834 0.0
C1939 C 0.7488 0.27737 0.31946 0.0
C1940 C 0.73333 0.27966 0.35882 0.0
C1941 C 0.73923 0.30485 0.36096 0.0
C1942 C 0.74885 0.31605 0.34152 0.0
C1943 C 0.75352 0.30253 0.3211 0.0
H1944 H 0.39299 0.02291 0.20149 0.0
H1945 H 0.46141 0.01845 0.23917 0.0
H1946 H 0.40976 0.01687 0.16318 0.0
H1947 H 0.47782 0.01042 0.20117 0.0
H1948 H 0.50695 0.01871 0.12794 0.0
H1949 H 0.49175 0.02512 0.16708 0.0
H1950 H 0.42125 0.98852 0.13746 0.0
H1951 H 0.4363 0.984 0.09818 0.0
C1952 C 0.41161 0.02051 0.20147 0.0
C1953 C 0.42599 0.0213 0.22313 0.0
C1954 C 0.42121 0.01671 0.17956 0.0
C1955 C 0.44518 0.0128 0.1789 0.0
C1956 C 0.45949 0.01376 0.20077 0.0
C1957 C 0.45007 0.01828 0.22262 0.0
C1958 C 0.48835 0.0117 0.13012 0.0
C1959 C 0.47274 1.00081 0.11032 0.0
C1960 C 0.47955 0.01536 0.1525 0.0
C1961 C 0.45508 0.00767 0.15554 0.0
C1962 C 0.43995 0.99545 0.13579 0.0
C1963 C 0.44861 0.99244 0.11335 0.0
H1964 H 0.7785 0.63332 0.90724 0.0
H1965 H 0.76261 0.69279 0.95236 0.0
H1966 H 0.78197 0.65803 0.87383 0.0
H1967 H 0.76505 0.71744 0.91843 0.0
H1968 H 0.78729 0.76098 0.85471 0.0
H1969 H 0.78831 0.73858 0.89046 0.0
H1970 H 0.75727 0.67358 0.84641 0.0
H1971 H 0.75719 0.69544 0.81118 0.0
C1972 C 0.77568 0.6517 0.91006 0.0
C1973 C 0.77012 0.66091 0.93257 0.0
C1974 C 0.77748 0.66593 0.89074 0.0
C1975 C 0.77338 0.68979 0.89307 0.0
C1976 C 0.76851 0.69927 0.91583 0.0
C1977 C 0.767 0.68506 0.93533 0.0
C1978 C 0.78088 0.74187 0.85273 0.0
C1979 C 0.77232 0.73011 0.82992 0.0
C1980 C 0.7813 0.729 0.87327 0.0
C1981 C 0.77312 0.70405 0.87151 0.0
C1982 C 0.76436 0.69254 0.84866 0.0
C1983 C 0.76411 0.70526 0.8283 0.0
H1984 H 0.81231 0.07697 0.97855 0.0
H1985 H 0.84213 0.12142 0.04338 0.0
H1986 H 0.84984 0.06165 0.97619 0.0
H1987 H 0.87951 0.10542 0.04149 0.0
H1988 H 0.95072 0.0907 0.01997 0.0
H1989 H 0.9134 0.10652 0.01915 0.0
H1990 H 0.87392 0.03607 0.99493 0.0
H1991 H 0.91182 0.02032 0.99498 0.0
C1992 C 0.82687 0.08341 0.9924 0.0
C1993 C 0.82424 0.10047 0.01118 0.0
C1994 C 0.84836 0.07446 0.9911 0.0
C1995 C 0.86772 0.0822 0.00865 0.0
C1996 C 0.86511 0.09933 0.02741 0.0
C1997 C 0.84366 0.10849 0.02857 0.0
C1998 C 0.93409 0.07856 0.01431 0.0
C1999 C 0.93413 0.0542 0.00771 0.0
C2000 C 0.91264 0.08763 0.01403 0.0
C2001 C 0.89058 0.07254 0.00741 0.0
C2002 C 0.89063 0.04825 1.00002 0.0
C2003 C 0.91227 0.03917 1.00005 0.0
H2004 H 0.33562 0.44551 0.07014 0.0
H2005 H 0.35276 0.38575 0.02684 0.0
H2006 H 0.37588 0.46755 0.06801 0.0
H2007 H 0.39367 0.40669 0.02596 0.0
H2008 H 0.45427 0.45738 1.00145 0.0
H2009 H 0.41523 0.43521 0.00739 0.0
H2010 H 0.41603 0.4774 0.07529 0.0
H2011 H 0.4544 0.50085 0.06796 0.0
C2012 C 0.3482 0.4371 0.06022 0.0
C2013 C 0.34077 0.41459 0.04746 0.0
C2014 C 0.37155 0.44955 0.05931 0.0
C2015 C 0.38825 0.4395 0.04599 0.0
C2016 C 0.38125 0.4158 0.03531 0.0
C2017 C 0.35781 0.40354 0.03603 0.0
C2018 C 0.44598 0.46195 0.01759 0.0
C2019 C 0.45738 0.48084 0.03424 0.0
C2020 C 0.42361 0.44896 0.02127 0.0
C2021 C 0.41222 0.45388 0.04217 0.0
C2022 C 0.42376 0.47299 0.05881 0.0
C2023 C 0.4459 0.48649 0.05472 0.0
H2024 H 0.38404 0.5775 0.75239 0.0
H2025 H 0.31068 0.54226 0.75385 0.0
H2026 H 0.37017 0.61638 0.75407 0.0
H2027 H 0.29703 0.58049 0.75514 0.0
H2028 H 0.28244 0.6526 0.78523 0.0
H2029 H 0.29804 0.61489 0.78306 0.0
H2030 H 0.34675 0.64162 0.732 0.0
H2031 H 0.33152 0.67936 0.73451 0.0
C2032 C 0.36501 0.57798 0.75273 0.0
C2033 C 0.34858 0.55671 0.75323 0.0
C2034 C 0.35702 0.60024 0.75373 0.0
C2035 C 0.33247 0.60164 0.75519 0.0
C2036 C 0.3161 0.58026 0.75474 0.0
C2037 C 0.324 0.55822 0.75381 0.0
C2038 C 0.29643 0.65041 0.77352 0.0
C2039 C 0.30557 0.66901 0.75998 0.0
C2040 C 0.30536 0.62875 0.77219 0.0
C2041 C 0.32365 0.62511 0.75725 0.0
C2042 C 0.3329 0.64382 0.74388 0.0
C2043 C 0.32397 0.66544 0.7452 0.0
H2044 H 0.19377 0.65081 0.5189 0.0
H2045 H 0.21333 0.58795 0.54819 0.0
H2046 H 0.15133 0.63369 0.51803 0.0
H2047 H 0.17103 0.56985 0.54599 0.0
H2048 H 0.09071 0.54594 0.54758 0.0
H2049 H 0.13205 0.56687 0.55722 0.0
H2050 H 0.12549 0.60468 0.49347 0.0
H2051 H 0.08428 0.5849 0.48484 0.0
C2052 C 0.18885 0.63322 0.52504 0.0
C2053 C 0.20657 0.62004 0.53237 0.0
C2054 C 0.16459 0.62328 0.5244 0.0
C2055 C 0.15763 0.59995 0.53109 0.0
C2056 C 0.17554 0.58776 0.54053 0.0
C2057 C 0.19981 0.59787 0.54137 0.0
C2058 C 0.09822 0.55886 0.53581 0.0
C2059 C 0.08427 0.56397 0.51561 0.0
C2060 C 0.1219 0.57081 0.54125 0.0
C2061 C 0.13216 0.5878 0.52634 0.0
C2062 C 0.11812 0.59244 0.50592 0.0
C2063 C 0.09447 0.58087 0.50078 0.0
H2064 H 0.65344 0.93224 0.75209 0.0
H2065 H 0.69847 0.96119 0.81692 0.0
H2066 H 0.66819 0.89437 0.75442 0.0
H2067 H 0.71246 0.92319 0.81982 0.0
H2068 H 0.75253 0.8605 0.80192 0.0
H2069 H 0.73742 0.89851 0.80189 0.0
H2070 H 0.66647 0.86041 0.77622 0.0
H2071 H 0.6818 0.82287 0.77538 0.0
C2072 C 0.66623 0.93041 0.767 0.0
C2073 C 0.67484 0.94975 0.78423 0.0
C2074 C 0.67464 0.90866 0.76844 0.0
C2075 C 0.69158 0.90566 0.78734 0.0
C2076 C 0.69981 0.92493 0.80478 0.0
C2077 C 0.69164 0.94672 0.80317 0.0
C2078 C 0.73368 0.86035 0.79656 0.0
C2079 C 0.71841 0.83882 0.78846 0.0
C2080 C 0.72496 0.88209 0.79654 0.0
C2081 C 0.70073 0.8826 0.78873 0.0
C2082 C 0.68534 0.86083 0.7817 0.0
C2083 C 0.6941 0.83926 0.78143 0.0
H2084 H 0.72831 0.9606 0.5389 0.0
H2085 H 0.69252 0.88755 0.53899 0.0
H2086 H 0.68994 0.97432 0.53701 0.0
H2087 H 0.65352 0.90144 0.53663 0.0
H2088 H 0.59016 0.93971 0.55583 0.0
H2089 H 0.62786 0.92422 0.5583 0.0
H2090 H 0.65578 0.97409 0.50887 0.0
H2091 H 0.61807 0.99 0.5068 0.0
C2092 C 0.71219 0.94737 0.53852 0.0
C2093 C 0.71359 0.92286 0.53892 0.0
C2094 C 0.69008 0.9553 0.53721 0.0
C2095 C 0.66851 0.93903 0.53618 0.0
C2096 C 0.66979 0.91453 0.53742 0.0
C2097 C 0.69212 0.90652 0.53883 0.0
C2098 C 0.60431 0.94743 0.54545 0.0
C2099 C 0.60108 0.96628 0.53122 0.0
C2100 C 0.62592 0.93836 0.54675 0.0
C2101 C 0.64498 0.94788 0.53389 0.0
C2102 C 0.64164 0.96653 0.51936 0.0
C2103 C 0.61997 0.97563 0.51806 0.0
H2104 H 0.33221 0.43413 0.72133 0.0
H2105 H 0.38508 0.42373 0.77742 0.0
H2106 H 0.31142 0.39324 0.72277 0.0
H2107 H 0.36372 0.38351 0.78036 0.0
H2108 H 0.33005 0.30666 0.77394 0.0
H2109 H 0.35263 0.34469 0.76614 0.0
H2110 H 0.28628 0.36865 0.74342 0.0
H2111 H 0.26373 0.33018 0.75081 0.0
C2112 C 0.33925 0.423 0.73409 0.0
C2113 C 0.35982 0.43216 0.74972 0.0
C2114 C 0.32727 0.39956 0.73509 0.0
C2115 C 0.33546 0.38476 0.75195 0.0
C2116 C 0.35681 0.39388 0.76683 0.0
C2117 C 0.36905 0.4171 0.76538 0.0
C2118 C 0.3202 0.32007 0.76736 0.0
C2119 C 0.29495 0.31535 0.7633 0.0
C2120 C 0.33324 0.34214 0.76303 0.0
C2121 C 0.32149 0.36043 0.75475 0.0
C2122 C 0.29621 0.35539 0.75003 0.0
C2123 C 0.28313 0.33321 0.75431 0.0
H2124 H 0.1866 0.55921 0.24403 0.0
H2125 H 0.12987 0.58207 0.28226 0.0
H2126 H 0.20392 0.60093 0.2406 0.0
H2127 H 0.14755 0.62375 0.28014 0.0
H2128 H 0.17283 0.69684 0.26196 0.0
H2129 H 0.15473 0.65485 0.25578 0.0
H2130 H 0.22546 0.63499 0.26316 0.0
H2131 H 0.24351 0.67711 0.26877 0.0
C2132 C 0.17806 0.57332 0.25192 0.0
C2133 C 0.1574 0.56772 0.26401 0.0
C2134 C 0.18792 0.59718 0.24999 0.0
C2135 C 0.17725 0.61587 0.26015 0.0
C2136 C 0.15609 0.60998 0.27166 0.0
C2137 C 0.14605 0.58613 0.27318 0.0
C2138 C 0.18452 0.68347 0.26197 0.0
C2139 C 0.20956 0.69022 0.26623 0.0
C2140 C 0.17413 0.65936 0.25865 0.0
C2141 C 0.18853 0.64138 0.25983 0.0
C2142 C 0.21372 0.64823 0.26242 0.0
C2143 C 0.22413 0.67242 0.26557 0.0
H2144 H 0.52916 0.71062 0.45549 0.0
H2145 H 0.4985 0.66612 0.39103 0.0
H2146 H 0.53736 0.67522 0.47457 0.0
H2147 H 0.50597 0.63073 0.41025 0.0
H2148 H 0.53387 0.57096 0.4418 0.0
H2149 H 0.53609 0.60922 0.42456 0.0
H2150 H 0.51576 0.64118 0.4908 0.0
H2151 H 0.51448 0.60296 0.50827 0.0
C2152 C 0.52423 0.69327 0.44537 0.0
C2153 C 0.51314 0.69114 0.42176 0.0
C2154 C 0.52883 0.67297 0.45636 0.0
C2155 C 0.52238 0.65008 0.44399 0.0
C2156 C 0.51164 0.64808 0.4202 0.0
C2157 C 0.50716 0.66837 0.4092 0.0
C2158 C 0.53055 0.58637 0.45287 0.0
C2159 C 0.52394 0.58404 0.47631 0.0
C2160 C 0.53154 0.60823 0.44292 0.0
C2161 C 0.52555 0.62818 0.45606 0.0
C2162 C 0.5206 0.62624 0.48017 0.0
C2163 C 0.51992 0.60437 0.49025 0.0
H2164 H 0.60994 0.29001 0.6505 0.0
H2165 H 0.57816 0.2923 0.71808 0.0
H2166 H 0.64953 0.29273 0.67205 0.0
H2167 H 0.61757 0.29394 0.73963 0.0
H2168 H 0.69545 0.30455 0.77291 0.0
H2169 H 0.65839 0.31301 0.75203 0.0
H2170 H 0.66685 0.26347 0.69201 0.0
H2171 H 0.70368 0.2557 0.71226 0.0
C2172 C 0.61147 0.2915 0.66998 0.0
C2173 C 0.59092 0.29062 0.68257 0.0
C2174 C 0.63413 0.29283 0.68235 0.0
C2175 C 0.63667 0.29291 0.70757 0.0
C2176 C 0.61633 0.29394 0.72024 0.0
C2177 C 0.59368 0.29293 0.70785 0.0
C2178 C 0.68933 0.29558 0.75523 0.0
C2179 C 0.70252 0.27948 0.74427 0.0
C2180 C 0.66813 0.30041 0.74326 0.0
C2181 C 0.65977 0.28918 0.72017 0.0
C2182 C 0.67301 0.27301 0.70943 0.0
C2183 C 0.69409 0.26833 0.72124 0.0
H2184 H 0.00811 0.3454 0.88218 0.0
H2185 H 0.99914 0.30803 0.94614 0.0
H2186 H 0.0154 0.38333 0.90655 0.0
H2187 H 0.00683 0.34652 0.97074 0.0
H2188 H 0.99807 0.42538 0.99967 0.0
H2189 H 0.98913 0.38505 0.9783 0.0
H2190 H 0.0486 0.40351 0.93565 0.0
H2191 H 0.05714 0.44333 0.95631 0.0
C2192 C 0.0077 0.34521 0.90146 0.0
C2193 C 0.00322 0.32358 0.91218 0.0
C2194 C 0.01199 0.36703 0.91546 0.0
C2195 C 0.01192 0.36788 0.94056 0.0
C2196 C 0.00692 0.34636 0.9514 0.0
C2197 C 0.00271 0.32436 0.93733 0.0
C2198 C 0.00918 0.42068 0.98575 0.0
C2199 C 0.02799 0.43763 0.97934 0.0
C2200 C 0.00417 0.39764 0.97364 0.0
C2201 C 0.01796 0.39132 0.95507 0.0
C2202 C 0.03729 0.40804 0.94946 0.0
C2203 C 0.04217 0.4309 0.96135 0.0
H2204 H 0.97544 0.75493 0.20272 0.0
H2205 H 0.9282 0.75877 0.13907 0.0
H2206 H 0.94156 0.75529 0.22733 0.0
H2207 H 0.89464 0.7593 0.1637 0.0
H2208 H 0.85036 0.79123 0.21763 0.0
H2209 H 0.88636 0.79056 0.19694 0.0
H2210 H 0.89926 0.72747 0.23072 0.0
H2211 H 0.86268 0.72787 0.25158 0.0
C2212 C 0.95789 0.75592 0.19401 0.0
C2213 C 0.9545 0.75699 0.16897 0.0
C2214 C 0.93854 0.75594 0.20807 0.0
C2215 C 0.91564 0.75743 0.19735 0.0
C2216 C 0.91223 0.75835 0.17236 0.0
C2217 C 0.93142 0.75797 0.15829 0.0
C2218 C 0.86087 0.77724 0.22088 0.0
C2219 C 0.85349 0.75938 0.23602 0.0
C2220 C 0.88146 0.77688 0.20895 0.0
C2221 C 0.89528 0.75879 0.21202 0.0
C2222 C 0.88878 0.74159 0.22811 0.0
C2223 C 0.86791 0.74182 0.23998 0.0
H2224 H 0.48175 0.2976 0.06861 0.0
H2225 H 0.52142 0.31981 0.13802 0.0
H2226 H 0.49381 0.33731 0.05592 0.0
H2227 H 0.53344 0.35983 0.1251 0.0
H2228 H 0.51327 0.43265 0.10136 0.0
H2229 H 0.50963 0.3927 0.11502 0.0
H2230 H 0.53112 0.36574 0.04728 0.0
H2231 H 0.5349 0.40603 0.03354 0.0
C2232 C 0.49311 0.31092 0.08118 0.0
C2233 C 0.50045 0.30556 0.10445 0.0
C2234 C 0.50023 0.3336 0.07375 0.0
C2235 C 0.51465 0.35156 0.08947 0.0
C2236 C 0.52227 0.34625 0.11266 0.0
C2237 C 0.51538 0.32338 0.12003 0.0
C2238 C 0.51749 0.41826 0.08947 0.0
C2239 C 0.52411 0.42231 0.06629 0.0
C2240 C 0.51561 0.39544 0.09739 0.0
C2241 C 0.52001 0.37616 0.08218 0.0
C2242 C 0.5275 0.38035 0.05929 0.0
C2243 C 0.52974 0.40333 0.05147 0.0
H2244 H 0.97259 0.2542 0.3537 0.0
H2245 H 0.95418 0.30012 0.4118 0.0
H2246 H 0.93306 0.25256 0.33279 0.0
H2247 H 0.91364 0.29757 0.39149 0.0
H2248 H 0.85197 0.30643 0.3355 0.0
H2249 H 0.89198 0.31008 0.35705 0.0
H2250 H 0.8932 0.23563 0.3353 0.0
H2251 H 0.85436 0.23242 0.31301 0.0
C2252 C 0.95992 0.264 0.36191 0.0
C2253 C 0.96645 0.278 0.38378 0.0
C2254 C 0.93715 0.26279 0.35016 0.0
C2255 C 0.92015 0.27499 0.36044 0.0
C2256 C 0.92649 0.28837 0.38288 0.0
C2257 C 0.9495 0.2897 0.39458 0.0
C2258 C 0.86099 0.29098 0.33525 0.0
C2259 C 0.8502 0.26926 0.32235 0.0
C2260 C 0.88375 0.29298 0.34774 0.0
C2261 C 0.89584 0.27318 0.34778 0.0
C2262 C 0.88472 0.25142 0.33518 0.0
C2263 C 0.86233 0.24956 0.32244 0.0
H2264 H 0.96561 0.68788 0.58923 0.0
H2265 H 0.01641 0.6698 0.64359 0.0
H2266 H 0.96503 0.64919 0.56655 0.0
H2267 H 0.01758 0.63265 0.62048 0.0
H2268 H 0.00803 0.56037 0.58632 0.0
H2269 H 0.99961 0.59536 0.6085 0.0
H2270 H 0.98607 0.62692 0.54187 0.0
H2271 H 0.99166 0.5898 0.51934 0.0
C2272 C 0.97644 0.67551 0.59642 0.0
C2273 C 0.99077 0.68169 0.61835 0.0
C2274 C 0.97642 0.65348 0.58327 0.0
C2275 C 0.9912 0.63747 0.59153 0.0
C2276 C 0.00528 0.64383 0.61367 0.0
C2277 C 0.00474 0.66538 0.62703 0.0
C2278 C 0.0027 0.57447 0.57624 0.0
C2279 C 1.0003 0.57214 0.55099 0.0
C2280 C 0.99829 0.59494 0.58909 0.0
C2281 C 0.99272 0.61453 0.5772 0.0
C2282 C 0.99008 0.61221 0.55179 0.0
C2283 C 0.99351 0.59104 0.5388 0.0
H2284 H 0.58736 0.7475 0.89114 0.0
H2285 H 0.58334 0.79831 0.8379 0.0
H2286 H 0.62345 0.7367 0.87481 0.0
H2287 H 0.61923 0.78783 0.82205 0.0
H2288 H 0.67317 0.75489 0.78491 0.0
H2289 H 0.63379 0.75548 0.79978 0.0
H2290 H 0.6652 0.75477 0.87253 0.0
H2291 H 0.70426 0.75355 0.85765 0.0
C2292 C 0.59424 0.7565 0.87614 0.0
C2293 C 0.58243 0.77381 0.8659 0.0
C2294 C 0.61484 0.75024 0.86673 0.0
C2295 C 0.62399 0.76114 0.84688 0.0
C2296 C 0.61231 0.7786 0.8369 0.0
C2297 C 0.59184 0.78483 0.84625 0.0
C2298 C 0.67148 0.75409 0.80397 0.0
C2299 C 0.69182 0.75451 0.82015 0.0
C2300 C 0.649 0.75471 0.81254 0.0
C2301 C 0.64649 0.7557 0.8374 0.0
C2302 C 0.66648 0.75402 0.8533 0.0
C2303 C 0.68891 0.75343 0.84476 0.0
H2304 H 0.3952 0.49176 0.66509 0.0
H2305 H 0.45659 0.52822 0.71172 0.0
H2306 H 0.4186 0.49628 0.63049 0.0
H2307 H 0.47987 0.53336 0.67707 0.0
H2308 H 0.52206 0.51571 0.61226 0.0
H2309 H 0.49944 0.51273 0.64768 0.0
H2310 H 0.43593 0.52433 0.60517 0.0
H2311 H 0.45819 0.52659 0.5699 0.0
C2312 C 0.41362 0.50098 0.66795 0.0
C2313 C 0.42392 0.50966 0.69125 0.0
C2314 C 0.42709 0.5037 0.64804 0.0
C2315 C 0.45127 0.51526 0.65079 0.0
C2316 C 0.46148 0.52407 0.67414 0.0
C2317 C 0.44802 0.5213 0.69406 0.0
C2318 C 0.50332 0.51779 0.61052 0.0
C2319 C 0.49202 0.52123 0.58806 0.0
C2320 C 0.4903 0.51615 0.6309 0.0
C2321 C 0.46564 0.51802 0.62941 0.0
C2322 C 0.45465 0.52221 0.60707 0.0
C2323 C 0.46758 0.52374 0.58678 0.0
H2324 H 0.75704 0.19152 0.97834 0.0
H2325 H 0.76727 0.1309 0.93122 0.0
H2326 H 0.75297 0.21469 0.94381 0.0
H2327 H 0.7646 0.1543 0.89691 0.0
H2328 H 0.73586 0.19006 0.83648 0.0
H2329 H 0.73627 0.16919 0.87279 0.0
H2330 H 0.77249 0.2345 0.91364 0.0
H2331 H 0.77051 0.25559 0.87719 0.0
C2332 C 0.75886 0.18332 0.96061 0.0
C2333 C 0.76233 0.15938 0.9574 0.0
C2334 C 0.75657 0.1966 0.94082 0.0
C2335 C 0.75808 0.18632 0.91745 0.0
C2336 C 0.76252 0.16263 0.91449 0.0
C2337 C 0.76433 0.14924 0.93418 0.0
C2338 C 0.74329 0.2 0.85343 0.0
C2339 C 0.75295 0.22434 0.85432 0.0
C2340 C 0.74392 0.18801 0.87417 0.0
C2341 C 0.75494 0.19997 0.89613 0.0
C2342 C 0.76372 0.22472 0.89712 0.0
C2343 C 0.76257 0.23686 0.87634 0.0
H2344 H 0.06573 0.46792 0.21547 0.0
H2345 H 0.13099 0.48978 0.182 0.0
H2346 H 0.04203 0.46862 0.17725 0.0
H2347 H 0.10734 0.48993 0.14378 0.0
H2348 H 0.06047 0.52823 0.097 0.0
H2349 H 0.08143 0.51938 0.13373 0.0
H2350 H 0.03153 0.45332 0.1334 0.0
H2351 H 0.01007 0.46247 0.0961 0.0
C2352 C 0.07508 0.47217 0.19981 0.0
C2353 C 0.10022 0.47924 0.20183 0.0
C2354 C 0.06146 0.47251 0.17791 0.0
C2355 C 0.0728 0.47989 0.15772 0.0
C2356 C 0.09808 0.48474 0.15925 0.0
C2357 C 0.11166 0.48448 0.18109 0.0
C2358 C 0.05381 0.51185 0.10478 0.0
C2359 C 0.03379 0.49589 0.09361 0.0
C2360 C 0.06599 0.50667 0.12572 0.0
C2361 C 0.05858 0.4853 0.13603 0.0
C2362 C 0.03774 0.46982 0.12565 0.0
C2363 C 0.02539 0.4751 0.1045 0.0
H2364 H 0.7689 0.90115 0.44871 0.0
H2365 H 0.76283 0.83363 0.48031 0.0
H2366 H 0.76519 0.8803 0.40903 0.0
H2367 H 0.75837 0.81249 0.43997 0.0
H2368 H 0.77616 0.7866 0.36275 0.0
H2369 H 0.78011 0.80519 0.40426 0.0
H2370 H 0.73542 0.85594 0.38184 0.0
H2371 H 0.73225 0.8382 0.34086 0.0
C2372 C 0.76651 0.88178 0.44725 0.0
C2373 C 0.76604 0.86914 0.46788 0.0
C2374 C 0.76426 0.86976 0.42434 0.0
C2375 C 0.76127 0.84465 0.42119 0.0
C2376 C 0.76081 0.83185 0.44174 0.0
C2377 C 0.76314 0.84397 0.46486 0.0
C2378 C 0.76736 0.80183 0.36677 0.0
C2379 C 0.75426 0.81116 0.34839 0.0
C2380 C 0.76943 0.81235 0.39056 0.0
C2381 C 0.75832 0.83228 0.39639 0.0
C2382 C 0.74476 0.84106 0.378 0.0
C2383 C 0.74291 0.83079 0.3544 0.0
H2384 H 0.36819 0.50101 0.8444 0.0
H2385 H 0.43688 0.5091 0.81449 0.0
H2386 H 0.38838 0.50494 0.8845 0.0
H2387 H 0.4573 0.51378 0.8552 0.0
H2388 H 0.4833 0.49668 0.932 0.0
H2389 H 0.4646 0.49213 0.89054 0.0
H2390 H 0.41173 0.53443 0.91261 0.0
H2391 H 0.4297 0.53821 0.95369 0.0
C2392 C 0.38766 0.5039 0.84632 0.0
C2393 C 0.40084 0.50485 0.82604 0.0
C2394 C 0.39929 0.50627 0.86947 0.0
C2395 C 0.42452 0.50984 0.8732 0.0
C2396 C 0.43783 0.51084 0.85299 0.0
C2397 C 0.42613 0.50838 0.82965 0.0
C2398 C 0.46755 0.5048 0.92795 0.0
C2399 C 0.45782 0.51753 0.94625 0.0
C2400 C 0.45697 0.5024 0.90417 0.0
C2401 C 0.43653 0.51278 0.8982 0.0
C2402 C 0.4271 0.52572 0.91654 0.0
C2403 C 0.43748 0.52794 0.94019 0.0
H2404 H 0.77643 0.14524 0.11356 0.0
H2405 H 0.80786 0.20791 0.08104 0.0
H2406 H 0.77831 0.16913 0.15181 0.0
H2407 H 0.81029 0.23179 0.11952 0.0
H2408 H 0.77509 0.26987 0.1807 0.0
H2409 H 0.78163 0.24719 0.14373 0.0
H2410 H 0.80289 0.19167 0.18512 0.0
H2411 H 0.79528 0.21379 0.22173 0.0
C2412 C 0.78431 0.164 0.11472 0.0
C2413 C 0.79185 0.17468 0.09421 0.0
C2414 C 0.78545 0.17774 0.1367 0.0
C2415 C 0.79425 0.20249 0.13873 0.0
C2416 C 0.80301 0.21289 0.1185 0.0
C2417 C 0.80183 0.19913 0.09649 0.0
C2418 C 0.78148 0.25299 0.18193 0.0
C2419 C 0.78485 0.24376 0.2043 0.0
C2420 C 0.78538 0.24002 0.16072 0.0
C2421 C 0.79274 0.21752 0.1614 0.0
C2422 C 0.79696 0.20877 0.18386 0.0
C2423 C 0.79294 0.22167 0.20497 0.0
H2424 H 0.08117 0.51333 0.31444 0.0
H2425 H 0.14259 0.51034 0.36456 0.0
H2426 H 0.05542 0.51232 0.3476 0.0
H2427 H 0.11674 0.50907 0.39748 0.0
H2428 H 0.05934 0.47523 0.44188 0.0
H2429 H 0.08047 0.47628 0.40579 0.0
H2430 H 0.05308 0.54023 0.38865 0.0
H2431 H 0.03189 0.53948 0.42535 0.0
C2432 C 0.08915 0.5124 0.3325 0.0
C2433 C 0.11387 0.51172 0.33694 0.0
C2434 C 0.07444 0.512 0.3514 0.0
C2435 C 0.08416 0.51049 0.3749 0.0
C2436 C 0.10886 0.51005 0.37938 0.0
C2437 C 0.12363 0.51084 0.3606 0.0
C2438 C 0.05758 0.48944 0.43036 0.0
C2439 C 0.04433 0.50755 0.43661 0.0
C2440 C 0.06971 0.49001 0.40975 0.0
C2441 C 0.0687 0.50857 0.39485 0.0
C2442 C 0.05412 0.5258 0.40005 0.0
C2443 C 0.04201 0.52534 0.42092 0.0
H2444 H 0.78045 0.87798 0.6287 0.0
H2445 H 0.74066 0.81719 0.58381 0.0
H2446 H 0.77646 0.85537 0.66381 0.0
H2447 H 0.73589 0.79475 0.61902 0.0
H2448 H 0.75409 0.75272 0.68357 0.0
H2449 H 0.75622 0.77473 0.64775 0.0
H2450 H 0.74987 0.83949 0.69075 0.0
H2451 H 0.7486 0.81776 0.7264 0.0
C2452 C 0.77056 0.85988 0.62635 0.0
C2453 C 0.76086 0.84949 0.60338 0.0
C2454 C 0.76814 0.84686 0.64657 0.0
C2455 C 0.75578 0.82307 0.64448 0.0
C2456 C 0.74584 0.81281 0.62146 0.0
C2457 C 0.7484 0.8258 0.60122 0.0
C2458 C 0.75297 0.77161 0.68531 0.0
C2459 C 0.75133 0.78342 0.70798 0.0
C2460 C 0.75412 0.7843 0.66471 0.0
C2461 C 0.75347 0.8091 0.66618 0.0
C2462 C 0.75104 0.82062 0.6888 0.0
C2463 C 0.75009 0.80803 0.70933 0.0
H2464 H 0.7022 0.44246 0.48888 0.0
H2465 H 0.68435 0.37839 0.52525 0.0
H2466 H 0.66804 0.45779 0.50382 0.0
H2467 H 0.64984 0.394 0.54021 0.0
H2468 H 0.57447 0.4198 0.52881 0.0
H2469 H 0.61071 0.40316 0.52197 0.0
H2470 H 0.65385 0.47258 0.54271 0.0
H2471 H 0.61733 0.48932 0.54956 0.0
C2472 C 0.69096 0.43153 0.49999 0.0
C2473 C 0.69606 0.40905 0.50572 0.0
C2474 C 0.67152 0.44053 0.50882 0.0
C2475 C 0.65647 0.42727 0.52347 0.0
C2476 C 0.66121 0.40464 0.52898 0.0
C2477 C 0.6809 0.39567 0.52032 0.0
C2478 C 0.59175 0.43141 0.53242 0.0
C2479 C 0.59313 0.45589 0.53954 0.0
C2480 C 0.6125 0.42183 0.5286 0.0
C2481 C 0.63508 0.43661 0.53154 0.0
C2482 C 0.63661 0.46084 0.54005 0.0
C2483 C 0.61579 0.47038 0.54418 0.0
H2484 H 0.17937 0.12872 0.47469 0.0
H2485 H 0.21221 0.07957 0.51594 0.0
H2486 H 0.13968 0.10468 0.47698 0.0
H2487 H 0.17284 0.05577 0.51875 0.0
H2488 H 0.10038 0.00693 0.50392 0.0
H2489 H 0.13946 0.02922 0.49674 0.0
H2490 H 0.11167 0.09551 0.50625 0.0
H2491 H 0.07272 0.07338 0.5128 0.0
C2492 C 0.17803 0.11268 0.4841 0.0
C2493 C 0.19879 0.10558 0.49456 0.0
C2494 C 0.15535 0.09896 0.48556 0.0
C2495 C 0.15298 0.07814 0.49797 0.0
C2496 C 0.17391 0.07133 0.50862 0.0
C2497 C 0.19649 0.08498 0.50706 0.0
C2498 C 0.1026 0.02625 0.50437 0.0
C2499 C 0.08336 0.03829 0.50908 0.0
C2500 C 0.12505 0.03906 0.50034 0.0
C2501 C 0.1288 0.06423 0.5009 0.0
C2502 C 0.10943 0.07617 0.5053 0.0
C2503 C 0.08707 0.06341 0.50931 0.0
H2504 H 0.14535 0.93196 0.77567 0.0
H2505 H 0.21187 0.96131 0.81866 0.0
H2506 H 0.16161 0.89528 0.76561 0.0
H2507 H 0.22785 0.92508 0.80853 0.0
H2508 H 0.25838 0.86541 0.76823 0.0
H2509 H 0.24136 0.90243 0.7735 0.0
H2510 H 0.17354 0.86129 0.78703 0.0
H2511 H 0.19041 0.82463 0.78189 0.0
C2512 C 0.16333 0.93065 0.78303 0.0
C2513 C 0.17713 0.94969 0.79812 0.0
C2514 C 0.17267 0.90963 0.77725 0.0
C2515 C 0.19615 0.90732 0.7861 0.0
C2516 C 0.20989 0.92637 0.80106 0.0
C2517 C 0.20052 0.94712 0.80708 0.0
C2518 C 0.23981 0.86432 0.7721 0.0
C2519 C 0.22588 0.84209 0.77487 0.0
C2520 C 0.23006 0.88549 0.77524 0.0
C2521 C 0.20607 0.88483 0.78079 0.0
C2522 C 0.19197 0.86249 0.78261 0.0
C2523 C 0.20177 0.84146 0.77985 0.0
H2524 H 0.31118 0.93007 0.02668 0.0
H2525 H 0.33007 0.87717 0.97539 0.0
H2526 H 0.35297 0.9505 0.03186 0.0
H2527 H 0.3721 0.89796 0.98035 0.0
H2528 H 0.43807 0.96901 0.98908 0.0
H2529 H 0.39558 0.951 0.97794 0.0
H2530 H 0.39185 0.9241 0.04773 0.0
H2531 H 0.43409 0.94124 0.05856 0.0
C2532 C 0.32425 0.92321 0.01611 0.0
C2533 C 0.31757 0.90248 1.00023 0.0
C2534 C 0.34801 0.93483 0.01909 0.0
C2535 C 0.36539 0.92585 0.00622 0.0
C2536 C 0.35873 0.9053 0.99007 0.0
C2537 C 0.33492 0.89342 0.98736 0.0
C2538 C 0.42808 0.95912 1.00188 0.0
C2539 C 0.4392 0.95622 0.02454 0.0
C2540 C 0.404 0.94885 0.99552 0.0
C2541 C 0.39082 0.93625 0.01206 0.0
C2542 C 0.40187 0.9337 0.03476 0.0
C2543 C 0.42595 0.94338 0.04086 0.0
H2544 H 0.88877 0.58893 0.76453 0.0
H2545 H 0.82668 0.56979 0.80379 0.0
H2546 H 0.87167 0.62285 0.75056 0.0
H2547 H 0.80989 0.60361 0.78993 0.0
H2548 H 0.77611 0.65534 0.74701 0.0
H2549 H 0.79305 0.61868 0.75224 0.0
H2550 H 0.86353 0.66113 0.77035 0.0
H2551 H 0.84668 0.69742 0.76515 0.0
C2552 C 0.87157 0.59196 0.77027 0.0
C2553 C 0.85923 0.57669 0.78545 0.0
C2554 C 0.86176 0.61133 0.76219 0.0
C2555 C 0.83934 0.6157 0.76895 0.0
C2556 C 0.82698 0.60041 0.78402 0.0
C2557 C 0.83682 0.5812 0.79223 0.0
C2558 C 0.79529 0.65666 0.75145 0.0
C2559 C 0.81011 0.67908 0.75584 0.0
C2560 C 0.80495 0.63579 0.75466 0.0
C2561 C 0.82958 0.63712 0.76193 0.0
C2562 C 0.84455 0.65951 0.76463 0.0
C2563 C 0.83488 0.68028 0.76176 0.0
H2564 H 0.84045 0.63243 0.02395 0.0
H2565 H 0.81335 0.5665 0.97963 0.0
H2566 H 0.87753 0.61694 0.03496 0.0
H2567 H 0.84997 0.55131 0.99066 0.0
H2568 H 0.90917 0.52115 0.03207 0.0
H2569 H 0.8718 0.53761 0.02594 0.0
H2570 H 0.91292 0.60614 0.01517 0.0
H2571 H 0.94998 0.5898 0.02121 0.0
C2572 C 0.84235 0.61475 0.01648 0.0
C2573 C 0.82379 0.60087 1.00078 0.0
C2574 C 0.8636 0.60585 0.02282 0.0
C2575 C 0.86665 0.58274 0.01389 0.0
C2576 C 0.84811 0.56897 0.99823 0.0
C2577 C 0.82713 0.5779 0.9917 0.0
C2578 C 0.91019 0.53977 0.02868 0.0
C2579 C 0.93255 0.55406 0.02693 0.0
C2580 C 0.8888 0.5492 0.02503 0.0
C2581 C 0.88934 0.57321 0.01992 0.0
C2582 C 0.91179 0.58767 0.0192 0.0
C2583 C 0.93306 0.5782 0.0225 0.0
H2584 H 0.19677 0.05946 0.7811 0.0
H2585 H 0.14652 0.09157 0.82149 0.0
H2586 H 0.22035 0.09887 0.77836 0.0
H2587 H 0.17028 0.13126 0.81919 0.0
H2588 H 0.20119 0.19786 0.78327 0.0
H2589 H 0.1794 0.15884 0.78941 0.0
H2590 H 0.24655 0.13254 0.80108 0.0
H2591 H 0.2686 0.17186 0.79449 0.0
C2592 C 0.19106 0.07503 0.78978 0.0
C2593 C 0.17024 0.07253 0.80207 0.0
C2594 C 0.20457 0.09762 0.78824 0.0
C2595 C 0.19739 0.11831 0.7987 0.0
C2596 C 0.1763 0.11574 0.8108 0.0
C2597 C 0.16273 0.09308 0.81224 0.0
C2598 C 0.21145 0.18386 0.78722 0.0
C2599 C 0.23675 0.18809 0.7883 0.0
C2600 C 0.19886 0.16144 0.79096 0.0
C2601 C 0.21114 0.14249 0.79587 0.0
C2602 C 0.23648 0.14668 0.79715 0.0
C2603 C 0.24915 0.16925 0.79346 0.0
H2604 H 0.40263 0.94628 0.31223 0.0
H2605 H 0.3416 0.96574 0.27221 0.0
H2606 H 0.3828 0.90462 0.30838 0.0
H2607 H 0.32033 0.92515 0.27082 0.0
H2608 H 0.29925 0.84709 0.24534 0.0
H2609 H 0.31738 0.88886 0.25199 0.0
H2610 H 0.35482 0.87479 0.31862 0.0
H2611 H 0.33822 0.83226 0.31017 0.0
C2612 C 0.38463 0.94163 0.30322 0.0
C2613 C 0.37315 0.95921 0.29336 0.0
C2614 C 0.37306 0.91781 0.30122 0.0
C2615 C 0.34969 0.91118 0.28941 0.0
C2616 C 0.3384 0.9291 0.27964 0.0
C2617 C 0.35031 0.95263 0.28096 0.0
C2618 C 0.31114 0.85314 0.26153 0.0
C2619 C 0.31729 0.83679 0.27738 0.0
C2620 C 0.32149 0.87719 0.26555 0.0
C2621 C 0.33769 0.88561 0.28599 0.0
C2622 C 0.34296 0.86911 0.30239 0.0
C2623 C 0.33321 0.8448 0.29784 0.0
H2624 H 0.53131 0.34006 0.63799 0.0
H2625 H 0.48104 0.30589 0.57846 0.0
H2626 H 0.52797 0.37897 0.62385 0.0
H2627 H 0.47758 0.34487 0.56463 0.0
H2628 H 0.50176 0.44606 0.60706 0.0
H2629 H 0.49765 0.40574 0.61983 0.0
H2630 H 0.50354 0.37767 0.54705 0.0
H2631 H 0.50746 0.41819 0.53418 0.0
C2632 C 0.51943 0.34081 0.62203 0.0
C2633 C 0.50646 0.3198 0.60943 0.0
C2634 C 0.5174 0.36312 0.614 0.0
C2635 C 0.50236 0.36493 0.59322 0.0
C2636 C 0.4894 0.34399 0.5806 0.0
C2637 C 0.49138 0.32167 0.58863 0.0
C2638 C 0.50161 0.43121 0.59367 0.0
C2639 C 0.50515 0.43523 0.56968 0.0
C2640 C 0.49947 0.40817 0.60103 0.0
C2641 C 0.50082 0.38867 0.58455 0.0
C2642 C 0.50244 0.39241 0.56015 0.0
C2643 C 0.50457 0.41557 0.55274 0.0
H2644 H 0.44156 0.71987 0.3326 0.0
H2645 H 0.41862 0.75829 0.39347 0.0
H2646 H 0.40263 0.71909 0.31024 0.0
H2647 H 0.37901 0.75614 0.37215 0.0
H2648 H 0.32841 0.78321 0.31961 0.0
H2649 H 0.36398 0.77663 0.34294 0.0
H2650 H 0.36179 0.70918 0.30055 0.0
H2651 H 0.32623 0.71663 0.27627 0.0
C2652 C 0.42796 0.72801 0.34117 0.0
C2653 C 0.43333 0.7405 0.36401 0.0
C2654 C 0.40546 0.72719 0.32857 0.0
C2655 C 0.38781 0.73849 0.3389 0.0
C2656 C 0.3925 0.7484 0.36302 0.0
C2657 C 0.41508 0.74947 0.3754 0.0
C2658 C 0.33557 0.76699 0.31519 0.0
C2659 C 0.32457 0.75041 0.29615 0.0
C2660 C 0.35588 0.76298 0.32885 0.0
C2661 C 0.36573 0.74206 0.32414 0.0
C2662 C 0.35491 0.72557 0.30471 0.0
C2663 C 0.33458 0.72981 0.29073 0.0
H2664 H 0.00304 0.68412 0.15473 0.0
H2665 H 0.04489 0.71226 0.09918 0.0
H2666 H 0.00423 0.64344 0.13811 0.0
H2667 H 0.04729 0.67162 0.08297 0.0
H2668 H 0.01808 0.59599 0.04459 0.0
H2669 H 0.02387 0.63754 0.06145 0.0
H2670 H 0.02879 0.61438 0.13319 0.0
H2671 H 0.02226 0.57293 0.11624 0.0
C2672 C 0.01262 0.68143 0.13901 0.0
C2673 C 0.0232 0.701 0.12768 0.0
C2674 C 0.01361 0.6582 0.12961 0.0
C2675 C 0.02594 0.65416 0.10917 0.0
C2676 C 0.03731 0.67399 0.09844 0.0
C2677 C 0.03594 0.69722 0.10766 0.0
C2678 C 0.0209 0.59989 0.06394 0.0
C2679 C 0.01941 0.58132 0.07915 0.0
C2680 C 0.02414 0.62371 0.07366 0.0
C2681 C 0.02607 0.62933 0.09874 0.0
C2682 C 0.02648 0.61071 0.11382 0.0
C2683 C 0.02299 0.58696 0.10413 0.0
H2684 H 0.05078 0.27343 0.81754 0.0
H2685 H 0.07451 0.25299 0.88715 0.0
H2686 H 0.09032 0.27223 0.80432 0.0
H2687 H 0.11455 0.25245 0.87395 0.0
H2688 H 0.17024 0.28928 0.79492 0.0
H2689 H 0.13125 0.29242 0.80969 0.0
H2690 H 0.134 0.22872 0.84661 0.0
H2691 H 0.17302 0.22599 0.83246 0.0
C2692 C 0.0645 0.26892 0.83018 0.0
C2693 C 0.05939 0.26327 0.85347 0.0
C2694 C 0.08728 0.26839 0.82257 0.0
C2695 C 0.10563 0.2623 0.83805 0.0
C2696 C 0.10069 0.25692 0.86146 0.0
C2697 C 0.07778 0.25734 0.86908 0.0
C2698 C 0.16242 0.27594 0.8061 0.0
C2699 C 0.17468 0.25742 0.81252 0.0
C2700 C 0.1401 0.2777 0.81456 0.0
C2701 C 0.12956 0.26088 0.82945 0.0
C2702 C 0.14179 0.24225 0.83561 0.0
C2703 C 0.1641 0.24058 0.8273 0.0
H2704 H 0.51854 0.68953 0.89822 0.0
H2705 H 0.516 0.72625 0.96808 0.0
H2706 H 0.51467 0.65149 0.91589 0.0
H2707 H 0.51041 0.68814 0.98569 0.0
H2708 H 0.5256 0.61724 0.01323 0.0
H2709 H 0.52825 0.65646 0.99755 0.0
H2710 H 0.48791 0.62319 0.93133 0.0
H2711 H 0.48699 0.58416 0.94658 0.0
C2712 C 0.51694 0.68937 0.91736 0.0
C2713 C 0.51765 0.71076 0.9318 0.0
C2714 C 0.51443 0.66754 0.92753 0.0
C2715 C 0.51189 0.66654 0.95229 0.0
C2716 C 0.51265 0.6881 0.96668 0.0
C2717 C 0.51576 0.70998 0.95658 0.0
C2718 C 0.517 0.61858 0.99552 0.0
C2719 C 0.50613 0.59793 0.98103 0.0
C2720 C 0.51848 0.641 0.98646 0.0
C2721 C 0.50865 0.6431 0.96292 0.0
C2722 C 0.49643 0.62233 0.94917 0.0
C2723 C 0.49554 0.59998 0.95799 0.0
H2724 H 0.08978 0.7664 0.63782 0.0
H2725 H 0.06549 0.73475 0.7009 0.0
H2726 H 0.13144 0.7674 0.65338 0.0
H2727 H 0.10712 0.73705 0.71749 0.0
H2728 H 0.18629 0.73291 0.73565 0.0
H2729 H 0.14485 0.72478 0.71689 0.0
H2730 H 0.15784 0.79088 0.68287 0.0
H2731 H 0.19901 0.7981 0.70037 0.0
C2732 C 0.09351 0.75988 0.65518 0.0
C2733 C 0.07474 0.75171 0.66885 0.0
C2734 C 0.1173 0.76055 0.66421 0.0
C2735 C 0.12274 0.75301 0.68709 0.0
C2736 C 0.10372 0.74311 0.69989 0.0
C2737 C 0.07989 0.74224 0.69067 0.0
C2738 C 0.18018 0.74548 0.72397 0.0
C2739 C 0.19589 0.76594 0.7192 0.0
C2740 C 0.15645 0.74094 0.71332 0.0
C2741 C 0.14801 0.757 0.69805 0.0
C2742 C 0.1638 0.77765 0.69379 0.0
C2743 C 0.18745 0.78191 0.70401 0.0
H2744 H 0.0536 0.37088 0.40663 0.0
H2745 H 0.03865 0.32803 0.46591 0.0
H2746 H 0.05262 0.40693 0.43265 0.0
H2747 H 0.0373 0.36426 0.49182 0.0
H2748 H 0.04753 0.44045 0.53353 0.0
H2749 H 0.05834 0.40513 0.51152 0.0
H2750 H 0.01608 0.41896 0.44808 0.0
H2751 H 0.00537 0.45361 0.46959 0.0
C2752 C 0.05058 0.36915 0.42532 0.0
C2753 C 0.04577 0.3465 0.43403 0.0
C2754 C 0.04993 0.38981 0.4402 0.0
C2755 C 0.04436 0.38833 0.46411 0.0
C2756 C 0.04163 0.36594 0.47347 0.0
C2757 C 0.04236 0.34518 0.45856 0.0
C2758 C 0.04055 0.43582 0.51491 0.0
C2759 C 0.02566 0.4499 0.50333 0.0
C2760 C 0.04676 0.41568 0.50233 0.0
C2761 C 0.03841 0.40958 0.47796 0.0
C2762 C 0.0233 0.42352 0.46665 0.0
C2763 C 0.01697 0.44331 0.47914 0.0
H2764 H 0.39922 0.24327 0.141 0.0
H2765 H 0.45854 0.26708 0.19541 0.0
H2766 H 0.37115 0.25213 0.16993 0.0
H2767 H 0.4306 0.27661 0.22403 0.0
H2768 H 0.37026 0.25794 0.27461 0.0
H2769 H 0.40125 0.25643 0.24695 0.0
H2770 H 0.35689 0.2835 0.19256 0.0
H2771 H 0.32564 0.28423 0.22003 0.0
C2772 C 0.40629 0.25065 0.15902 0.0
C2773 C 0.43111 0.25429 0.16589 0.0
C2774 C 0.39022 0.25592 0.1756 0.0
C2775 C 0.39861 0.26516 0.19936 0.0
C2776 C 0.42347 0.26922 0.20603 0.0
C2777 C 0.4395 0.26379 0.18955 0.0
C2778 C 0.36748 0.26428 0.25703 0.0
C2779 C 0.34553 0.27111 0.24944 0.0
C2780 C 0.38521 0.26333 0.24108 0.0
C2781 C 0.38138 0.26942 0.21733 0.0
C2782 C 0.36016 0.27808 0.21048 0.0
C2783 C 0.34239 0.27881 0.22632 0.0
H2784 H 0.64309 0.52188 0.39374 0.0
H2785 H 0.58199 0.49321 0.3429 0.0
H2786 H 0.61777 0.51767 0.4265 0.0
H2787 H 0.55658 0.48787 0.37606 0.0
H2788 H 0.51366 0.50479 0.44103 0.0
H2789 H 0.53704 0.50673 0.4061 0.0
H2790 H 0.59791 0.49018 0.4494 0.0
H2791 H 0.57518 0.48979 0.48426 0.0
C2792 C 0.62426 0.51435 0.38952 0.0
C2793 C 0.6147 0.50782 0.36556 0.0
C2794 C 0.60965 0.51173 0.40845 0.0
C2795 C 0.58499 0.5021 0.40419 0.0
C2796 C 0.57537 0.49555 0.38018 0.0
C2797 C 0.59001 0.49847 0.36111 0.0
C2798 C 0.53204 0.50158 0.44303 0.0
C2799 C 0.54268 0.49774 0.46565 0.0
C2800 C 0.54546 0.50252 0.42292 0.0
C2801 C 0.56971 0.49917 0.42485 0.0
C2802 C 0.57968 0.49378 0.4472 0.0
C2803 C 0.56649 0.4933 0.46726 0.0
H2804 H 0.24394 0.8127 0.058 0.0
H2805 H 0.27212 0.88418 0.09041 0.0
H2806 H 0.24993 0.797 0.09708 0.0
H2807 H 0.27835 0.86848 0.1292 0.0
H2808 H 0.25609 0.83617 0.1974 0.0
H2809 H 0.25199 0.85056 0.15802 0.0
H2810 H 0.28349 0.79183 0.12793 0.0
H2811 H 0.28731 0.77691 0.16782 0.0
C2812 C 0.2513 0.82504 0.07347 0.0
C2813 C 0.25738 0.84968 0.07124 0.0
C2814 C 0.25498 0.81602 0.09573 0.0
C2815 C 0.26464 0.83152 0.1161 0.0
C2816 C 0.27067 0.85615 0.11381 0.0
C2817 C 0.2671 0.86513 0.09161 0.0
C2818 C 0.2623 0.82628 0.18249 0.0
C2819 C 0.27206 0.80538 0.18572 0.0
C2820 C 0.26003 0.83465 0.15992 0.0
C2821 C 0.26751 0.82238 0.13997 0.0
C2822 C 0.27744 0.80152 0.14307 0.0
C2823 C 0.2798 0.7931 0.16585 0.0
H2824 H 0.897 0.53287 0.88761 0.0
H2825 H 0.95695 0.54104 0.8438 0.0
H2826 H 0.92472 0.53249 0.92298 0.0
H2827 H 0.98462 0.54051 0.87949 0.0
H2828 H 0.97082 0.4886 0.96452 0.0
H2829 H 0.94846 0.49736 0.92853 0.0
H2830 H 1.00022 0.56122 0.92462 0.0
H2831 H 0.02299 0.55245 0.96142 0.0
C2832 C 0.91609 0.53515 0.88554 0.0
C2833 C 0.92463 0.53649 0.86273 0.0
C2834 C 0.93195 0.53487 0.90582 0.0
C2835 C 0.9567 0.53603 0.9038 0.0
C2836 C 0.9656 0.53955 0.88147 0.0
C2837 C 0.94968 0.53976 0.86106 0.0
C2838 C 0.97765 0.50446 0.95597 0.0
C2839 C 0.99845 0.52006 0.96597 0.0
C2840 C 0.96473 0.50952 0.93544 0.0
C2841 C 0.97226 0.5303 0.92428 0.0
C2842 C 0.99397 0.54521 0.93316 0.0
C2843 C 0.00702 0.54013 0.95402 0.0
H2844 H 0.26874 0.13017 0.58721 0.0
H2845 H 0.27128 0.20124 0.56436 0.0
H2846 H 0.26771 0.14585 0.62865 0.0
H2847 H 0.26878 0.21695 0.60567 0.0
H2848 H 0.28621 0.24062 0.68655 0.0
H2849 H 0.28733 0.22698 0.64434 0.0
H2850 H 0.24317 0.15987 0.65524 0.0
H2851 H 0.24348 0.1731 0.69761 0.0
C2852 C 0.26902 0.14919 0.59108 0.0
C2853 C 0.27015 0.16445 0.57252 0.0
C2854 C 0.2681 0.15822 0.61488 0.0
C2855 C 0.26773 0.18274 0.62076 0.0
C2856 C 0.26928 0.19805 0.6021 0.0
C2857 C 0.27067 0.18904 0.57832 0.0
C2858 C 0.27641 0.22313 0.67974 0.0
C2859 C 0.26475 0.20792 0.69536 0.0
C2860 C 0.27705 0.21523 0.65548 0.0
C2861 C 0.26569 0.19205 0.64618 0.0
C2862 C 0.25285 0.17748 0.6617 0.0
C2863 C 0.25268 0.18519 0.68599 0.0
H2864 H 0.64333 0.50461 0.21107 0.0
H2865 H 0.57258 0.50488 0.23466 0.0
H2866 H 0.62728 0.50566 0.16969 0.0
H2867 H 0.55655 0.50735 0.19336 0.0
H2868 H 0.53201 0.49012 0.11252 0.0
H2869 H 0.54582 0.48855 0.15466 0.0
H2870 H 0.61386 0.53126 0.14363 0.0
H2871 H 0.60042 0.53151 0.10136 0.0
C2872 C 0.6243 0.50492 0.20736 0.0
C2873 C 0.60923 0.50465 0.2261 0.0
C2874 C 0.61508 0.50584 0.18362 0.0
C2875 C 0.5906 0.50707 0.17799 0.0
C2876 C 0.57542 0.50623 0.19679 0.0
C2877 C 0.58461 0.50484 0.22054 0.0
C2878 C 0.54975 0.49952 0.11928 0.0
C2879 C 0.56516 0.51095 0.10366 0.0
C2880 C 0.55774 0.4986 0.14349 0.0
C2881 C 0.5812 0.50941 0.15268 0.0
C2882 C 0.596 0.52202 0.13719 0.0
C2883 C 0.58818 0.52251 0.11297 0.0
H2884 H 0.23216 0.8166 0.95379 0.0
H2885 H 0.24527 0.87467 0.90832 0.0
H2886 H 0.23335 0.78781 0.91929 0.0
H2887 H 0.24646 0.84584 0.87421 0.0
H2888 H 0.29041 0.79641 0.83752 0.0
H2889 H 0.28162 0.81914 0.87328 0.0
H2890 H 0.21277 0.77343 0.87197 0.0
H2891 H 0.22155 0.75042 0.83546 0.0
C2892 C 0.23472 0.82323 0.9364 0.0
C2893 C 0.23911 0.84803 0.93394 0.0
C2894 C 0.23529 0.8067 0.9167 0.0
C2895 C 0.24037 0.81474 0.89436 0.0
C2896 C 0.2428 0.83931 0.89144 0.0
C2897 C 0.24206 0.85579 0.91099 0.0
C2898 C 0.27355 0.79088 0.84505 0.0
C2899 C 0.2565 0.77189 0.83362 0.0
C2900 C 0.26849 0.80398 0.8654 0.0
C2901 C 0.2463 0.79835 0.87485 0.0
C2902 C 0.22992 0.77815 0.86473 0.0
C2903 C 0.23499 0.76493 0.84408 0.0
H2904 H 0.9555 0.55096 0.73702 0.0
H2905 H 0.90126 0.49038 0.70979 0.0
H2906 H 0.97456 0.54814 0.69939 0.0
H2907 H 0.92071 0.48733 0.67241 0.0
H2908 H 0.98211 0.47656 0.62263 0.0
H2909 H 0.96576 0.47921 0.66199 0.0
H2910 H 0.95731 0.55235 0.65355 0.0
H2911 H 0.97283 0.54954 0.6142 0.0
C2912 C 0.94767 0.53709 0.72299 0.0
C2913 C 0.92687 0.52096 0.72618 0.0
C2914 C 0.95859 0.53546 0.70159 0.0
C2915 C 0.94916 0.51736 0.68333 0.0
C2916 C 0.92839 0.50122 0.68647 0.0
C2917 C 0.91718 0.50315 0.70768 0.0
C2918 C 0.97704 0.49323 0.62943 0.0
C2919 C 0.97866 0.51285 0.61556 0.0
C2920 C 0.9676 0.49469 0.65173 0.0
C2921 C 0.96034 0.51597 0.66055 0.0
C2922 C 0.96291 0.53583 0.64707 0.0
C2923 C 0.97173 0.53419 0.62462 0.0
H2924 H 0.26226 0.19327 0.45319 0.0
H2925 H 0.27919 0.13417 0.40828 0.0
H2926 H 0.26556 0.21823 0.41954 0.0
H2927 H 0.28351 0.15919 0.37517 0.0
H2928 H 0.25973 0.19699 0.31243 0.0
H2929 H 0.25921 0.17488 0.34745 0.0
H2930 H 0.28961 0.23961 0.39224 0.0
H2931 H 0.28919 0.2623 0.35665 0.0
C2932 C 0.26706 0.18569 0.43627 0.0
C2933 C 0.2702 0.16156 0.43346 0.0
C2934 C 0.26906 0.20008 0.41694 0.0
C2935 C 0.27448 0.19078 0.39432 0.0
C2936 C 0.27862 0.16694 0.39196 0.0
C2937 C 0.27631 0.15253 0.4111 0.0
C2938 C 0.2664 0.20671 0.32966 0.0
C2939 C 0.2746 0.23157 0.33154 0.0
C2940 C 0.2663 0.19384 0.34991 0.0
C2941 C 0.27469 0.2052 0.37289 0.0
C2942 C 0.28288 0.23016 0.37492 0.0
C2943 C 0.28281 0.24319 0.35448 0.0
H2944 H 0.34421 0.62385 0.5429 0.0
H2945 H 0.31492 0.58149 0.47668 0.0
H2946 H 0.38183 0.60877 0.54025 0.0
H2947 H 0.35295 0.56704 0.47357 0.0
H2948 H 0.41524 0.52556 0.49275 0.0
H2949 H 0.37727 0.54114 0.4917 0.0
H2950 H 0.41598 0.61129 0.5183 0.0
H2951 H 0.45343 0.59555 0.52017 0.0
C2952 C 0.34591 0.6116 0.52757 0.0
C2953 C 0.32654 0.60391 0.51001 0.0
C2954 C 0.36756 0.603 0.52598 0.0
C2955 C 0.37049 0.58673 0.50662 0.0
C2956 C 0.35122 0.57928 0.48888 0.0
C2957 C 0.32946 0.58771 0.49059 0.0
C2958 C 0.41554 0.54434 0.49809 0.0
C2959 C 0.43717 0.55927 0.50682 0.0
C2960 C 0.39384 0.55331 0.49746 0.0
C2961 C 0.39352 0.57742 0.50528 0.0
C2962 C 0.41543 0.59251 0.5128 0.0
C2963 C 0.43694 0.58351 0.51371 0.0
H2964 H 0.84803 0.88712 0.51742 0.0
H2965 H 0.83578 0.93968 0.57257 0.0
H2966 H 0.88835 0.90888 0.51519 0.0
H2967 H 0.87677 0.96084 0.57195 0.0
H2968 H 0.94089 0.00875 0.54596 0.0
H2969 H 0.90193 0.98604 0.55201 0.0
H2970 H 0.92698 0.92035 0.53007 0.0
H2971 H 0.9653 0.94308 0.52328 0.0
C2972 C 0.85428 0.90316 0.52942 0.0
C2973 C 0.83869 0.91216 0.54462 0.0
C2974 C 0.87757 0.91564 0.5284 0.0
C2975 C 0.88621 0.937 0.54327 0.0
C2976 C 0.87085 0.94499 0.55965 0.0
C2977 C 0.84735 0.93278 0.5602 0.0
C2978 C 0.93798 0.98946 0.54234 0.0
C2979 C 0.95629 0.97788 0.53397 0.0
C2980 C 0.91554 0.97628 0.54588 0.0
C2981 C 0.91069 0.95113 0.54104 0.0
C2982 C 0.92937 0.93963 0.53328 0.0
C2983 C 0.95166 0.95277 0.52962 0.0
H2984 H 0.8896 0.07623 0.25753 0.0
H2985 H 0.81561 0.04206 0.25677 0.0
H2986 H 0.87655 0.11535 0.2588 0.0
H2987 H 0.8026 0.08059 0.25711 0.0
H2988 H 0.78835 0.1537 0.28522 0.0
H2989 H 0.80184 0.11495 0.28296 0.0
H2990 H 0.85614 0.14153 0.23706 0.0
H2991 H 0.8432 0.18035 0.24008 0.0
C2992 C 0.87058 0.07703 0.25727 0.0
C2993 C 0.85373 0.056 0.25725 0.0
C2994 C 0.86303 0.09944 0.25795 0.0
C2995 C 0.83845 0.10126 0.25834 0.0
C2996 C 0.82168 0.08008 0.2575 0.0
C2997 C 0.82919 0.05787 0.25709 0.0
C2998 C 0.80305 0.15118 0.27454 0.0
C2999 C 0.81468 0.17012 0.26287 0.0
C3000 C 0.8108 0.12893 0.27315 0.0
C3001 C 0.83019 0.12499 0.25982 0.0
C3002 C 0.8415 0.14391 0.24785 0.0
C3003 C 0.8339 0.16617 0.24942 0.0
H3004 H 0.69053 0.14549 0.01004 0.0
H3005 H 0.71252 0.09017 0.05087 0.0
H3006 H 0.64846 0.12844 0.01208 0.0
H3007 H 0.67045 0.07356 0.0542 0.0
H3008 H 0.59404 0.03421 0.02682 0.0
H3009 H 0.63639 0.05186 0.03153 0.0
H3010 H 0.6171 0.12259 0.03671 0.0
H3011 H 0.57477 0.10485 0.03133 0.0
C3012 C 0.68619 0.12975 0.01964 0.0
C3013 C 0.70445 0.1186 0.02963 0.0
C3014 C 0.66214 0.1201 0.02111 0.0
C3015 C 0.65594 0.09956 0.03336 0.0
C3016 C 0.67447 0.08907 0.04425 0.0
C3017 C 0.69852 0.09853 0.04238 0.0
C3018 C 0.59889 0.05352 0.02939 0.0
C3019 C 0.58113 0.06818 0.02841 0.0
C3020 C 0.62322 0.06369 0.03202 0.0
C3021 C 0.63026 0.08871 0.03382 0.0
C3022 C 0.61238 0.10328 0.03454 0.0
C3023 C 0.5881 0.09312 0.0317 0.0
H3024 H 0.20819 0.46447 0.30621 0.0
H3025 H 0.14274 0.427 0.2662 0.0
H3026 H 0.22399 0.42732 0.30695 0.0
H3027 H 0.15841 0.3895 0.26764 0.0
H3028 H 0.20608 0.33528 0.24693 0.0
H3029 H 0.1886 0.37147 0.24948 0.0
H3030 H 0.22096 0.3889 0.32251 0.0
H3031 H 0.23922 0.35258 0.31965 0.0
C3032 C 0.19697 0.44825 0.29781 0.0
C3033 C 0.17419 0.44883 0.28596 0.0
C3034 C 0.20604 0.42686 0.29842 0.0
C3035 C 0.19256 0.4054 0.2873 0.0
C3036 C 0.16947 0.4058 0.27605 0.0
C3037 C 0.16041 0.42728 0.27531 0.0
C3038 C 0.2095 0.34676 0.2636 0.0
C3039 C 0.22407 0.34105 0.28312 0.0
C3040 C 0.19925 0.36747 0.26512 0.0
C3041 C 0.20311 0.38302 0.28627 0.0
C3042 C 0.21776 0.37739 0.30586 0.0
C3043 C 0.22822 0.35661 0.30428 0.0
H3044 H 0.2056 0.40836 0.06813 0.0
H3045 H 0.21679 0.43642 0.99975 0.0
H3046 H 0.16821 0.42488 0.06901 0.0
H3047 H 0.17926 0.4519 0.99996 0.0
H3048 H 0.12455 0.4993 0.01707 0.0
H3049 H 0.16176 0.48257 0.01754 0.0
H3050 H 0.12839 0.42269 0.05308 0.0
H3051 H 0.0919 0.43993 0.05356 0.0
C3052 C 0.1998 0.41759 0.05307 0.0
C3053 C 0.21422 0.42118 0.03396 0.0
C3054 C 0.17836 0.42712 0.05352 0.0
C3055 C 0.17069 0.44015 0.03469 0.0
C3056 C 0.18475 0.44272 0.01516 0.0
C3057 C 0.20623 0.43355 0.0149 0.0
C3058 C 0.12527 0.48265 0.02509 0.0
C3059 C 0.10521 0.47105 0.03529 0.0
C3060 C 0.14656 0.47287 0.02521 0.0
C3061 C 0.14825 0.45107 0.03526 0.0
C3062 C 0.12812 0.43962 0.04553 0.0
C3063 C 0.10701 0.44952 0.04565 0.0
H3064 H 0.89025 0.91908 0.2692 0.0
H3065 H 0.83186 0.93669 0.22373 0.0
H3066 H 0.8683 0.87871 0.27023 0.0
H3067 H 0.80883 0.89705 0.22593 0.0
H3068 H 0.77345 0.81972 0.22752 0.0
H3069 H 0.79842 0.8569 0.21939 0.0
H3070 H 0.83833 0.85932 0.28901 0.0
H3071 H 0.81456 0.82159 0.29598 0.0
C3072 C 0.87258 0.91422 0.25952 0.0
C3073 C 0.86213 0.93123 0.24746 0.0
C3074 C 0.85975 0.89115 0.2603 0.0
C3075 C 0.8361 0.88456 0.24909 0.0
C3076 C 0.82676 0.90113 0.23507 0.0
C3077 C 0.83977 0.92411 0.2341 0.0
C3078 C 0.78758 0.82838 0.24101 0.0
C3079 C 0.79213 0.81776 0.26232 0.0
C3080 C 0.80196 0.84978 0.23642 0.0
C3081 C 0.82089 0.86133 0.25333 0.0
C3082 C 0.82472 0.85083 0.275 0.0
C3083 C 0.81079 0.82925 0.27925 0.0
H3084 H 0.63218 0.08347 0.7847 0.0
H3085 H 0.68811 0.06233 0.74406 0.0
H3086 H 0.6494 0.12543 0.78349 0.0
H3087 H 0.70497 0.10438 0.74163 0.0
H3088 H 0.74396 0.1806 0.77 0.0
H3089 H 0.72655 0.13828 0.76493 0.0
H3090 H 0.65524 0.15689 0.75915 0.0
H3091 H 0.67271 0.19908 0.76488 0.0
C3092 C 0.64811 0.08798 0.77534 0.0
C3093 C 0.65936 0.06995 0.76516 0.0
C3094 C 0.65787 0.11198 0.77435 0.0
C3095 C 0.67863 0.11842 0.7624 0.0
C3096 C 0.68927 0.10016 0.75135 0.0
C3097 C 0.67967 0.07612 0.75271 0.0
C3098 C 0.72458 0.17559 0.76728 0.0
C3099 C 0.70966 0.19309 0.76814 0.0
C3100 C 0.71455 0.1513 0.76443 0.0
C3101 C 0.68942 0.14407 0.76231 0.0
C3102 C 0.67464 0.16173 0.76158 0.0
C3103 C 0.68464 0.18594 0.76464 0.0
loop_
_geom_bond_atom_site_label_1
_geom_bond_atom_site_label_2
_geom_bond_distance
_geom_bond_site_symmetry_2
_ccdc_geom_bond_type
Mn0 O5 2.095 . S
Mn0 O15 2.162 . S
Mn0 O16 2.297 . S
Mn0 O24 2.385 1_455 S
Mn0 O25 2.209 . S
Mn0 O26 2.094 . S
Mn1 O6 2.121 . S
Mn1 N8 2.257 . S
Mn1 N17 2.282 1_455 S
Mn1 O25 2.215 . S
Mn1 O27 2.117 . S
C2 O24 1.234 . S
C2 O25 1.283 1_655 S
C3 O15 1.281 . S
C3 O16 1.236 . S
C4 O26 1.240 . S
C4 O27 1.264 . S
O5 Mn0 2.095 . S
O5 C14 1.250 . S
O6 Mn1 2.121 . S
O6 C14 1.258 . S
C7 N8 1.326 . S
C7 C11 1.460 . S
C7 H13 0.929 . S
N8 Mn1 2.257 . S
N8 C7 1.326 . S
N8 C12 1.362 1_455 S
C9 C10 1.258 . S
C9 C12 1.431 . S
C9 C29 1.449 . S
C10 C9 1.258 . S
C10 C11 1.477 1_655 S
C10 H30 0.931 . S
C11 C7 1.460 . S
C11 C10 1.477 1_455 S
C11 H31 0.930 . S
C12 N8 1.362 1_655 S
C12 C9 1.431 . S
C12 C22 1.476 . S
H13 C7 0.929 . S
C14 O5 1.250 . S
C14 O6 1.258 . S
O15 Mn0 2.162 . S
O15 C3 1.281 . S
O16 Mn0 2.297 . S
O16 C3 1.236 . S
N17 Mn1 2.282 1_655 S
N17 C18 1.328 . S
N17 C22 1.318 . S
C18 N17 1.328 . S
C18 C19 1.457 . S
C18 H23 0.929 . S
C19 C18 1.457 . S
C19 C20 1.291 . S
C19 H32 0.931 . S
C20 C19 1.291 . S
C20 C21 1.373 . S
C20 H33 0.929 . S
C21 C20 1.373 . S
C21 C22 1.396 . S
C21 C28 1.403 . S
C22 C12 1.476 . S
C22 N17 1.318 . S
C22 C21 1.396 . S
H23 C18 0.929 . S
O24 Mn0 2.385 1_655 S
O24 C2 1.234 . S
O25 Mn0 2.209 . S
O25 Mn1 2.215 . S
O25 C2 1.283 1_455 S
O26 Mn0 2.094 . S
O26 C4 1.240 . S
O27 Mn1 2.117 . S
O27 C4 1.264 . S
C28 C21 1.403 . S
C28 C29 1.399 . S
C28 H34 0.929 . S
C29 C9 1.449 . S
C29 C28 1.399 . S
C29 H35 0.930 . S
H30 C10 0.931 . S
H31 C11 0.930 . S
H32 C19 0.931 . S
H33 C20 0.929 . S
H34 C28 0.929 . S
H35 C29 0.930 . S
Mn36 O41 2.095 1_455 S
Mn36 O51 2.162 . S
Mn36 O52 2.297 . S
Mn36 O60 2.385 . S
Mn36 O61 2.209 . S
Mn36 O62 2.094 . S
Mn37 O42 2.121 1_455 S
Mn37 N44 2.257 . S
Mn37 N53 2.282 . S
Mn37 O61 2.215 . S
Mn37 O63 2.117 . S
C38 O60 1.234 . S
C38 O61 1.283 . S
C39 O51 1.281 . S
C39 O52 1.236 . S
C40 O62 1.240 . S
C40 O63 1.264 . S
O41 Mn36 2.095 1_655 S
O41 C50 1.250 . S
O42 Mn37 2.121 1_655 S
O42 C50 1.258 . S
C43 N44 1.326 . S
C43 C47 1.460 . S
C43 H49 0.929 1_455 S
N44 Mn37 2.257 . S
N44 C43 1.326 . S
N44 C48 1.362 . S
C45 C46 1.258 . S
C45 C48 1.431 . S
C45 C65 1.449 . S
C46 C45 1.258 . S
C46 C47 1.477 . S
C46 H66 0.931 . S
C47 C43 1.460 . S
C47 C46 1.477 . S
C47 H67 0.930 . S
C48 N44 1.362 . S
C48 C45 1.431 . S
C48 C58 1.476 . S
H49 C43 0.929 1_655 S
C50 O41 1.250 . S
C50 O42 1.258 . S
O51 Mn36 2.162 . S
O51 C39 1.281 . S
O52 Mn36 2.297 . S
O52 C39 1.236 . S
N53 Mn37 2.282 . S
N53 C54 1.328 . S
N53 C58 1.318 . S
C54 N53 1.328 . S
C54 C55 1.457 . S
C54 H59 0.929 . S
C55 C54 1.457 . S
C55 C56 1.291 . S
C55 H68 0.931 . S
C56 C55 1.291 . S
C56 C57 1.373 . S
C56 H69 0.929 . S
C57 C56 1.373 . S
C57 C58 1.396 . S
C57 C64 1.403 . S
C58 C48 1.476 . S
C58 N53 1.318 . S
C58 C57 1.396 . S
H59 C54 0.929 . S
O60 Mn36 2.385 . S
O60 C38 1.234 . S
O61 Mn36 2.209 . S
O61 Mn37 2.215 . S
O61 C38 1.283 . S
O62 Mn36 2.094 . S
O62 C40 1.240 . S
O63 Mn37 2.117 . S
O63 C40 1.264 . S
C64 C57 1.403 . S
C64 C65 1.399 . S
C64 H70 0.929 . S
C65 C45 1.449 . S
C65 C64 1.399 . S
C65 H71 0.930 . S
H66 C46 0.931 . S
H67 C47 0.930 . S
H68 C55 0.931 . S
H69 C56 0.929 . S
H70 C64 0.929 . S
H71 C65 0.930 . S
Mn72 O77 2.095 . S
Mn72 O87 2.162 . S
Mn72 O88 2.297 . S
Mn72 O96 2.385 . S
Mn72 O97 2.209 . S
Mn72 O98 2.094 . S
Mn73 O78 2.121 . S
Mn73 N80 2.257 . S
Mn73 N89 2.282 . S
Mn73 O97 2.215 . S
Mn73 O99 2.117 . S
C74 O96 1.234 . S
C74 O97 1.283 . S
C75 O87 1.281 . S
C75 O88 1.236 . S
C76 O98 1.240 . S
C76 O99 1.264 . S
O77 Mn72 2.095 . S
O77 C86 1.250 . S
O78 Mn73 2.121 . S
O78 C86 1.258 . S
C79 N80 1.326 . S
C79 C83 1.460 . S
C79 H85 0.929 . S
N80 Mn73 2.257 . S
N80 C79 1.326 . S
N80 C84 1.362 . S
C81 C82 1.258 . S
C81 C84 1.431 . S
C81 C101 1.449 . S
C82 C81 1.258 . S
C82 C83 1.477 . S
C82 H102 0.931 . S
C83 C79 1.460 . S
C83 C82 1.477 . S
C83 H103 0.930 . S
C84 N80 1.362 . S
C84 C81 1.431 . S
C84 C94 1.476 . S
H85 C79 0.929 . S
C86 O77 1.250 . S
C86 O78 1.258 . S
O87 Mn72 2.162 . S
O87 C75 1.281 . S
O88 Mn72 2.297 . S
O88 C75 1.236 . S
N89 Mn73 2.282 . S
N89 C90 1.328 . S
N89 C94 1.318 . S
C90 N89 1.328 . S
C90 C91 1.457 . S
C90 H95 0.929 . S
C91 C90 1.457 . S
C91 C92 1.291 . S
C91 H104 0.931 . S
C92 C91 1.291 . S
C92 C93 1.373 . S
C92 H105 0.929 . S
C93 C92 1.373 . S
C93 C94 1.396 . S
C93 C100 1.403 . S
C94 C84 1.476 . S
C94 N89 1.318 . S
C94 C93 1.396 . S
H95 C90 0.929 . S
O96 Mn72 2.385 . S
O96 C74 1.234 . S
O97 Mn72 2.209 . S
O97 Mn73 2.215 . S
O97 C74 1.283 . S
O98 Mn72 2.094 . S
O98 C76 1.240 . S
O99 Mn73 2.117 . S
O99 C76 1.264 . S
C100 C93 1.403 . S
C100 C101 1.399 . S
C100 H106 0.929 . S
C101 C81 1.449 . S
C101 C100 1.399 . S
C101 H107 0.930 . S
H102 C82 0.931 . S
H103 C83 0.930 . S
H104 C91 0.931 . S
H105 C92 0.929 . S
H106 C100 0.929 . S
H107 C101 0.930 . S
Mn108 O113 2.095 . S
Mn108 O123 2.162 . S
Mn108 O124 2.297 . S
Mn108 O132 2.385 . S
Mn108 O133 2.209 . S
Mn108 O134 2.094 . S
Mn109 O114 2.121 . S
Mn109 N116 2.257 . S
Mn109 N125 2.282 . S
Mn109 O133 2.215 . S
Mn109 O135 2.117 . S
C110 O132 1.234 . S
C110 O133 1.283 . S
C111 O123 1.281 . S
C111 O124 1.236 . S
C112 O134 1.240 . S
C112 O135 1.264 . S
O113 Mn108 2.095 . S
O113 C122 1.250 . S
O114 Mn109 2.121 . S
O114 C122 1.258 . S
C115 N116 1.326 . S
C115 C119 1.460 . S
C115 H121 0.929 . S
N116 Mn109 2.257 . S
N116 C115 1.326 . S
N116 C120 1.362 . S
C117 C118 1.258 . S
C117 C120 1.431 . S
C117 C137 1.449 . S
C118 C117 1.258 . S
C118 C119 1.477 . S
C118 H138 0.931 . S
C119 C115 1.460 . S
C119 C118 1.477 . S
C119 H139 0.930 . S
C120 N116 1.362 . S
C120 C117 1.431 . S
C120 C130 1.476 . S
H121 C115 0.929 . S
C122 O113 1.250 . S
C122 O114 1.258 . S
O123 Mn108 2.162 . S
O123 C111 1.281 . S
O124 Mn108 2.297 . S
O124 C111 1.236 . S
N125 Mn109 2.282 . S
N125 C126 1.328 . S
N125 C130 1.318 . S
C126 N125 1.328 . S
C126 C127 1.457 . S
C126 H131 0.929 . S
C127 C126 1.457 . S
C127 C128 1.291 . S
C127 H140 0.931 . S
C128 C127 1.291 . S
C128 C129 1.373 . S
C128 H141 0.929 . S
C129 C128 1.373 . S
C129 C130 1.396 . S
C129 C136 1.403 . S
C130 C120 1.476 . S
C130 N125 1.318 . S
C130 C129 1.396 . S
H131 C126 0.929 . S
O132 Mn108 2.385 . S
O132 C110 1.234 . S
O133 Mn108 2.209 . S
O133 Mn109 2.215 . S
O133 C110 1.283 . S
O134 Mn108 2.094 . S
O134 C112 1.240 . S
O135 Mn109 2.117 . S
O135 C112 1.264 . S
C136 C129 1.403 . S
C136 C137 1.399 . S
C136 H142 0.929 . S
C137 C117 1.449 . S
C137 C136 1.399 . S
C137 H143 0.930 . S
H138 C118 0.931 . S
H139 C119 0.930 . S
H140 C127 0.931 . S
H141 C128 0.929 . S
H142 C136 0.929 . S
H143 C137 0.930 . S
Mn144 O149 2.095 . S
Mn144 O159 2.162 . S
Mn144 O160 2.297 . S
Mn144 O168 2.385 . S
Mn144 O169 2.209 . S
Mn144 O170 2.094 . S
Mn145 O150 2.121 1_655 S
Mn145 N152 2.257 . S
Mn145 N161 2.282 . S
Mn145 O169 2.215 1_655 S
Mn145 O171 2.117 . S
C146 O168 1.234 . S
C146 O169 1.283 . S
C147 O159 1.281 . S
C147 O160 1.236 . S
C148 O170 1.240 1_655 S
C148 O171 1.264 . S
O149 Mn144 2.095 . S
O149 C158 1.250 . S
O150 Mn145 2.121 1_455 S
O150 C158 1.258 . S
C151 N152 1.326 1_455 S
C151 C155 1.458 . S
C151 H157 0.929 . S
N152 Mn145 2.257 . S
N152 C151 1.326 1_655 S
N152 C156 1.362 . S
C153 C154 1.258 . S
C153 C156 1.431 . S
C153 C173 1.449 . S
C154 C153 1.258 . S
C154 C155 1.471 1_655 S
C154 H174 0.931 . S
C155 C151 1.458 . S
C155 C154 1.471 1_455 S
C155 H175 0.938 . S
C156 N152 1.362 . S
C156 C153 1.431 . S
C156 C166 1.476 . S
H157 C151 0.929 . S
C158 O149 1.250 . S
C158 O150 1.258 . S
O159 Mn144 2.162 . S
O159 C147 1.281 . S
O160 Mn144 2.297 . S
O160 C147 1.236 . S
N161 Mn145 2.282 . S
N161 C162 1.328 . S
N161 C166 1.318 . S
C162 N161 1.328 . S
C162 C163 1.457 . S
C162 H167 0.929 . S
C163 C162 1.457 . S
C163 C164 1.291 . S
C163 H176 0.931 . S
C164 C163 1.291 . S
C164 C165 1.373 . S
C164 H177 0.929 . S
C165 C164 1.373 . S
C165 C166 1.396 . S
C165 C172 1.403 . S
C166 C156 1.476 . S
C166 N161 1.318 . S
C166 C165 1.396 . S
H167 C162 0.929 . S
O168 Mn144 2.385 . S
O168 C146 1.234 . S
O169 Mn144 2.209 . S
O169 Mn145 2.215 1_455 S
O169 C146 1.283 . S
O170 Mn144 2.094 . S
O170 C148 1.240 1_455 S
O171 Mn145 2.117 . S
O171 C148 1.264 . S
C172 C165 1.403 . S
C172 C173 1.399 . S
C172 H178 0.929 . S
C173 C153 1.449 . S
C173 C172 1.399 . S
C173 H179 0.930 . S
H174 C154 0.931 . S
H175 C155 0.938 . S
H176 C163 0.931 . S
H177 C164 0.929 . S
H178 C172 0.929 . S
H179 C173 0.930 . S
Mn180 O185 2.095 . S
Mn180 O195 2.162 . S
Mn180 O196 2.297 . S
Mn180 O204 2.385 . S
Mn180 O205 2.209 . S
Mn180 O206 2.094 . S
Mn181 O186 2.121 . S
Mn181 N188 2.257 . S
Mn181 N197 2.282 . S
Mn181 O205 2.215 . S
Mn181 O207 2.117 . S
C182 O204 1.234 . S
C182 O205 1.283 . S
C183 O195 1.281 . S
C183 O196 1.236 . S
C184 O206 1.240 . S
C184 O207 1.264 . S
O185 Mn180 2.095 . S
O185 C194 1.250 . S
O186 Mn181 2.121 . S
O186 C194 1.258 . S
C187 N188 1.326 . S
C187 C191 1.460 . S
C187 H193 0.929 . S
N188 Mn181 2.257 . S
N188 C187 1.326 . S
N188 C192 1.362 . S
C189 C190 1.258 . S
C189 C192 1.431 . S
C189 C209 1.449 . S
C190 C189 1.258 . S
C190 C191 1.477 . S
C190 H210 0.931 . S
C191 C187 1.460 . S
C191 C190 1.477 . S
C191 H211 0.930 . S
C192 N188 1.362 . S
C192 C189 1.431 . S
C192 C202 1.476 . S
H193 C187 0.929 . S
C194 O185 1.250 . S
C194 O186 1.258 . S
O195 Mn180 2.162 . S
O195 C183 1.281 . S
O196 Mn180 2.297 . S
O196 C183 1.236 . S
N197 Mn181 2.282 . S
N197 C198 1.328 . S
N197 C202 1.318 . S
C198 N197 1.328 . S
C198 C199 1.457 . S
C198 H203 0.929 . S
C199 C198 1.457 . S
C199 C200 1.291 . S
C199 H212 0.931 . S
C200 C199 1.291 . S
C200 C201 1.373 . S
C200 H213 0.929 . S
C201 C200 1.373 . S
C201 C202 1.396 . S
C201 C208 1.403 . S
C202 C192 1.476 . S
C202 N197 1.318 . S
C202 C201 1.396 . S
H203 C198 0.929 . S
O204 Mn180 2.385 . S
O204 C182 1.234 . S
O205 Mn180 2.209 . S
O205 Mn181 2.215 . S
O205 C182 1.283 . S
O206 Mn180 2.094 . S
O206 C184 1.240 . S
O207 Mn181 2.117 . S
O207 C184 1.264 . S
C208 C201 1.403 . S
C208 C209 1.399 . S
C208 H214 0.929 . S
C209 C189 1.449 . S
C209 C208 1.399 . S
C209 H215 0.930 . S
H210 C190 0.931 . S
H211 C191 0.930 . S
H212 C199 0.931 . S
H213 C200 0.929 . S
H214 C208 0.929 . S
H215 C209 0.930 . S
Mn216 O221 2.095 . S
Mn216 O231 2.162 . S
Mn216 O232 2.297 . S
Mn216 O240 2.385 . S
Mn216 O241 2.209 . S
Mn216 O242 2.094 . S
Mn217 O222 2.121 . S
Mn217 N224 2.257 . S
Mn217 N233 2.282 . S
Mn217 O241 2.215 . S
Mn217 O243 2.117 . S
C218 O240 1.234 . S
C218 O241 1.283 . S
C219 O231 1.281 . S
C219 O232 1.236 . S
C220 O242 1.240 . S
C220 O243 1.264 . S
O221 Mn216 2.095 . S
O221 C230 1.250 . S
O222 Mn217 2.121 . S
O222 C230 1.258 . S
C223 N224 1.326 . S
C223 C227 1.460 . S
C223 H229 0.929 . S
N224 Mn217 2.257 . S
N224 C223 1.326 . S
N224 C228 1.362 . S
C225 C226 1.258 . S
C225 C228 1.431 . S
C225 C245 1.449 . S
C226 C225 1.258 . S
C226 C227 1.477 . S
C226 H246 0.931 . S
C227 C223 1.460 . S
C227 C226 1.477 . S
C227 H247 0.930 . S
C228 N224 1.362 . S
C228 C225 1.431 . S
C228 C238 1.476 . S
H229 C223 0.929 . S
C230 O221 1.250 . S
C230 O222 1.258 . S
O231 Mn216 2.162 . S
O231 C219 1.281 . S
O232 Mn216 2.297 . S
O232 C219 1.236 . S
N233 Mn217 2.282 . S
N233 C234 1.328 . S
N233 C238 1.318 . S
C234 N233 1.328 . S
C234 C235 1.457 . S
C234 H239 0.929 . S
C235 C234 1.457 . S
C235 C236 1.291 . S
C235 H248 0.931 . S
C236 C235 1.291 . S
C236 C237 1.373 . S
C236 H249 0.929 . S
C237 C236 1.373 . S
C237 C238 1.396 . S
C237 C244 1.403 . S
C238 C228 1.476 . S
C238 N233 1.318 . S
C238 C237 1.396 . S
H239 C234 0.929 . S
O240 Mn216 2.385 . S
O240 C218 1.234 . S
O241 Mn216 2.209 . S
O241 Mn217 2.215 . S
O241 C218 1.283 . S
O242 Mn216 2.094 . S
O242 C220 1.240 . S
O243 Mn217 2.117 . S
O243 C220 1.264 . S
C244 C237 1.403 . S
C244 C245 1.399 . S
C244 H250 0.929 . S
C245 C225 1.449 . S
C245 C244 1.399 . S
C245 H251 0.930 . S
H246 C226 0.931 . S
H247 C227 0.930 . S
H248 C235 0.931 . S
H249 C236 0.929 . S
H250 C244 0.929 . S
H251 C245 0.930 . S
Mn252 O257 2.054 1_655 S
Mn252 O267 2.156 1_655 S
Mn252 O268 2.294 . S
Mn252 O276 2.430 . S
Mn252 O277 2.229 . S
Mn252 O278 2.098 1_655 S
Mn253 O258 2.121 1_655 S
Mn253 N260 2.257 . S
Mn253 N269 2.282 . S
Mn253 O277 2.215 . S
Mn253 O279 2.117 1_655 S
C254 O276 1.234 . S
C254 O277 1.283 . S
C255 O267 1.282 1_655 S
C255 O268 1.236 . S
C256 O278 1.240 . S
C256 O279 1.264 . S
O257 Mn252 2.054 1_455 S
O257 C266 1.250 . S
O258 Mn253 2.121 1_455 S
O258 C266 1.258 . S
C259 N260 1.326 . S
C259 C263 1.460 . S
C259 H265 0.929 1_655 S
N260 Mn253 2.257 . S
N260 C259 1.326 . S
N260 C264 1.362 . S
C261 C262 1.258 . S
C261 C264 1.431 . S
C261 C281 1.449 . S
C262 C261 1.258 . S
C262 C263 1.477 . S
C262 H282 0.931 . S
C263 C259 1.460 . S
C263 C262 1.477 . S
C263 H283 0.930 . S
C264 N260 1.362 . S
C264 C261 1.431 . S
C264 C274 1.476 . S
H265 C259 0.929 1_455 S
C266 O257 1.250 . S
C266 O258 1.258 . S
O267 Mn252 2.156 1_455 S
O267 C255 1.282 1_455 S
O268 Mn252 2.294 . S
O268 C255 1.236 . S
N269 Mn253 2.282 . S
N269 C270 1.328 . S
N269 C274 1.318 . S
C270 N269 1.328 . S
C270 C271 1.457 . S
C270 H275 0.929 . S
C271 C270 1.457 . S
C271 C272 1.291 . S
C271 H284 0.931 . S
C272 C271 1.291 . S
C272 C273 1.373 . S
C272 H285 0.929 . S
C273 C272 1.373 . S
C273 C274 1.396 . S
C273 C280 1.403 . S
C274 C264 1.476 . S
C274 N269 1.318 . S
C274 C273 1.396 . S
H275 C270 0.929 . S
O276 Mn252 2.430 . S
O276 C254 1.234 . S
O277 Mn252 2.229 . S
O277 Mn253 2.215 . S
O277 C254 1.283 . S
O278 Mn252 2.098 1_455 S
O278 C256 1.240 . S
O279 Mn253 2.117 1_455 S
O279 C256 1.264 . S
C280 C273 1.403 . S
C280 C281 1.399 . S
C280 H286 0.929 . S
C281 C261 1.449 . S
C281 C280 1.399 . S
C281 H287 0.930 . S
H282 C262 0.931 . S
H283 C263 0.930 . S
H284 C271 0.931 . S
H285 C272 0.929 . S
H286 C280 0.929 . S
H287 C281 0.930 . S
Mn288 O293 2.095 . S
Mn288 O303 2.162 . S
Mn288 O304 2.297 . S
Mn288 O312 2.385 1_545 S
Mn288 O313 2.209 1_545 S
Mn288 O314 2.094 . S
Mn289 O294 2.121 . S
Mn289 N296 2.256 1_545 S
Mn289 N305 2.282 1_545 S
Mn289 O313 2.215 1_545 S
Mn289 O315 2.117 . S
C290 O312 1.234 . S
C290 O313 1.283 . S
C291 O303 1.281 . S
C291 O304 1.236 . S
C292 O314 1.240 . S
C292 O315 1.264 . S
O293 Mn288 2.095 . S
O293 C302 1.250 . S
O294 Mn289 2.121 . S
O294 C302 1.258 . S
C295 N296 1.323 1_545 S
C295 C299 1.462 . S
C295 H301 0.929 . S
N296 Mn289 2.256 1_565 S
N296 C295 1.323 1_565 S
N296 C300 1.367 . S
C297 C298 1.258 . S
C297 C300 1.431 . S
C297 C317 1.449 . S
C298 C297 1.258 . S
C298 C299 1.471 1_565 S
C298 H318 0.931 . S
C299 C295 1.462 . S
C299 C298 1.471 1_545 S
C299 H319 0.935 . S
C300 N296 1.367 . S
C300 C297 1.431 . S
C300 C310 1.476 . S
H301 C295 0.929 . S
C302 O293 1.250 . S
C302 O294 1.258 . S
O303 Mn288 2.162 . S
O303 C291 1.281 . S
O304 Mn288 2.297 . S
O304 C291 1.236 . S
N305 Mn289 2.282 1_565 S
N305 C306 1.328 . S
N305 C310 1.318 . S
C306 N305 1.328 . S
C306 C307 1.457 . S
C306 H311 0.929 . S
C307 C306 1.457 . S
C307 C308 1.291 . S
C307 H320 0.931 . S
C308 C307 1.291 . S
C308 C309 1.373 . S
C308 H321 0.929 . S
C309 C308 1.373 . S
C309 C310 1.396 . S
C309 C316 1.403 . S
C310 C300 1.476 . S
C310 N305 1.318 . S
C310 C309 1.396 . S
H311 C306 0.929 . S
O312 Mn288 2.385 1_565 S
O312 C290 1.234 . S
O313 Mn288 2.209 1_565 S
O313 Mn289 2.215 1_565 S
O313 C290 1.283 . S
O314 Mn288 2.094 . S
O314 C292 1.240 . S
O315 Mn289 2.117 . S
O315 C292 1.264 . S
C316 C309 1.403 . S
C316 C317 1.399 . S
C316 H322 0.929 . S
C317 C297 1.449 . S
C317 C316 1.399 . S
C317 H323 0.930 . S
H318 C298 0.931 . S
H319 C299 0.935 . S
H320 C307 0.931 . S
H321 C308 0.929 . S
H322 C316 0.929 . S
H323 C317 0.930 . S
Mn324 O329 2.095 . S
Mn324 O339 2.162 . S
Mn324 O340 2.297 . S
Mn324 O348 2.385 . S
Mn324 O349 2.209 . S
Mn324 O350 2.094 . S
Mn325 O330 2.121 . S
Mn325 N332 2.257 . S
Mn325 N341 2.282 . S
Mn325 O349 2.215 . S
Mn325 O351 2.117 . S
C326 O348 1.234 . S
C326 O349 1.283 . S
C327 O339 1.281 . S
C327 O340 1.236 . S
C328 O350 1.240 . S
C328 O351 1.264 . S
O329 Mn324 2.095 . S
O329 C338 1.250 . S
O330 Mn325 2.121 . S
O330 C338 1.258 . S
C331 N332 1.326 . S
C331 C335 1.460 . S
C331 H337 0.929 . S
N332 Mn325 2.257 . S
N332 C331 1.326 . S
N332 C336 1.362 . S
C333 C334 1.258 . S
C333 C336 1.431 . S
C333 C353 1.449 . S
C334 C333 1.258 . S
C334 C335 1.477 . S
C334 H354 0.931 1_545 S
C335 C331 1.460 . S
C335 C334 1.477 . S
C335 H355 0.930 . S
C336 N332 1.362 . S
C336 C333 1.431 . S
C336 C346 1.476 . S
H337 C331 0.929 . S
C338 O329 1.250 . S
C338 O330 1.258 . S
O339 Mn324 2.162 . S
O339 C327 1.281 . S
O340 Mn324 2.297 . S
O340 C327 1.236 . S
N341 Mn325 2.282 . S
N341 C342 1.328 . S
N341 C346 1.318 . S
C342 N341 1.328 . S
C342 C343 1.457 . S
C342 H347 0.929 . S
C343 C342 1.457 . S
C343 C344 1.291 . S
C343 H356 0.931 . S
C344 C343 1.291 . S
C344 C345 1.373 . S
C344 H357 0.929 . S
C345 C344 1.373 . S
C345 C346 1.396 . S
C345 C352 1.403 . S
C346 C336 1.476 . S
C346 N341 1.318 . S
C346 C345 1.396 . S
H347 C342 0.929 . S
O348 Mn324 2.385 . S
O348 C326 1.234 . S
O349 Mn324 2.209 . S
O349 Mn325 2.215 . S
O349 C326 1.283 . S
O350 Mn324 2.094 . S
O350 C328 1.240 . S
O351 Mn325 2.117 . S
O351 C328 1.264 . S
C352 C345 1.403 . S
C352 C353 1.399 . S
C352 H358 0.929 . S
C353 C333 1.449 . S
C353 C352 1.399 . S
C353 H359 0.930 . S
H354 C334 0.931 1_565 S
H355 C335 0.930 . S
H356 C343 0.931 . S
H357 C344 0.929 . S
H358 C352 0.929 . S
H359 C353 0.930 . S
Mn360 O365 2.095 1_545 S
Mn360 O375 2.162 1_545 S
Mn360 O376 2.297 . S
Mn360 O384 2.385 . S
Mn360 O385 2.209 . S
Mn360 O386 2.094 . S
Mn361 O366 2.121 1_545 S
Mn361 N368 2.257 . S
Mn361 N377 2.282 . S
Mn361 O385 2.215 . S
Mn361 O387 2.117 . S
C362 O384 1.234 . S
C362 O385 1.283 . S
C363 O375 1.279 1_545 S
C363 O376 1.236 . S
C364 O386 1.240 . S
C364 O387 1.264 . S
O365 Mn360 2.095 1_565 S
O365 C374 1.250 . S
O366 Mn361 2.121 1_565 S
O366 C374 1.258 . S
C367 N368 1.326 . S
C367 C371 1.460 . S
C367 H373 0.929 . S
N368 Mn361 2.257 . S
N368 C367 1.326 . S
N368 C372 1.362 . S
C369 C370 1.258 . S
C369 C372 1.431 . S
C369 C389 1.449 . S
C370 C369 1.258 . S
C370 C371 1.477 . S
C370 H390 0.931 . S
C371 C367 1.460 . S
C371 C370 1.477 . S
C371 H391 0.930 . S
C372 N368 1.362 . S
C372 C369 1.431 . S
C372 C382 1.476 . S
H373 C367 0.929 . S
C374 O365 1.250 . S
C374 O366 1.258 . S
O375 Mn360 2.162 1_565 S
O375 C363 1.279 1_565 S
O376 Mn360 2.297 . S
O376 C363 1.236 . S
N377 Mn361 2.282 . S
N377 C378 1.328 . S
N377 C382 1.318 . S
C378 N377 1.328 . S
C378 C379 1.457 . S
C378 H383 0.929 . S
C379 C378 1.457 . S
C379 C380 1.291 . S
C379 H392 0.931 . S
C380 C379 1.291 . S
C380 C381 1.373 . S
C380 H393 0.929 . S
C381 C380 1.373 . S
C381 C382 1.396 . S
C381 C388 1.403 . S
C382 C372 1.476 . S
C382 N377 1.318 . S
C382 C381 1.396 . S
H383 C378 0.929 . S
O384 Mn360 2.385 . S
O384 C362 1.234 . S
O385 Mn360 2.209 . S
O385 Mn361 2.215 . S
O385 C362 1.283 . S
O386 Mn360 2.094 . S
O386 C364 1.240 . S
O387 Mn361 2.117 . S
O387 C364 1.264 . S
C388 C381 1.403 . S
C388 C389 1.399 . S
C388 H394 0.929 . S
C389 C369 1.449 . S
C389 C388 1.399 . S
C389 H395 0.930 . S
H390 C370 0.931 . S
H391 C371 0.930 . S
H392 C379 0.931 . S
H393 C380 0.929 . S
H394 C388 0.929 . S
H395 C389 0.930 . S
Mn396 O401 2.095 . S
Mn396 O411 2.162 . S
Mn396 O412 2.297 . S
Mn396 O420 2.385 . S
Mn396 O421 2.209 . S
Mn396 O422 2.094 1_554 S
Mn397 O402 2.121 . S
Mn397 N404 2.257 . S
Mn397 N413 2.282 . S
Mn397 O421 2.215 1_556 S
Mn397 O423 2.117 . S
C398 O420 1.234 . S
C398 O421 1.283 . S
C399 O411 1.281 . S
C399 O412 1.236 . S
C400 O422 1.240 . S
C400 O423 1.264 . S
O401 Mn396 2.095 . S
O401 C410 1.250 . S
O402 Mn397 2.121 . S
O402 C410 1.258 1_556 S
C403 N404 1.331 . S
C403 C407 1.460 1_556 S
C403 H409 0.925 1_556 S
N404 Mn397 2.257 . S
N404 C403 1.331 . S
N404 C408 1.362 . S
C405 C406 1.258 . S
C405 C408 1.431 . S
C405 C425 1.449 . S
C406 C405 1.258 . S
C406 C407 1.477 1_556 S
C406 H426 0.931 1_565 S
C407 C403 1.460 1_554 S
C407 C406 1.477 1_554 S
C407 H427 0.930 1_565 S
C408 N404 1.362 . S
C408 C405 1.431 . S
C408 C418 1.476 . S
H409 C403 0.925 1_554 S
C410 O401 1.250 . S
C410 O402 1.258 1_554 S
O411 Mn396 2.162 . S
O411 C399 1.281 . S
O412 Mn396 2.297 . S
O412 C399 1.236 . S
N413 Mn397 2.282 . S
N413 C414 1.328 . S
N413 C418 1.318 . S
C414 N413 1.328 . S
C414 C415 1.457 . S
C414 H419 0.929 . S
C415 C414 1.457 . S
C415 C416 1.291 . S
C415 H428 0.931 . S
C416 C415 1.291 . S
C416 C417 1.373 . S
C416 H429 0.929 . S
C417 C416 1.373 . S
C417 C418 1.396 . S
C417 C424 1.403 . S
C418 C408 1.476 . S
C418 N413 1.318 . S
C418 C417 1.396 . S
H419 C414 0.929 . S
O420 Mn396 2.385 . S
O420 C398 1.234 . S
O421 Mn396 2.209 . S
O421 Mn397 2.215 1_554 S
O421 C398 1.283 . S
O422 Mn396 2.094 1_556 S
O422 C400 1.240 . S
O423 Mn397 2.117 . S
O423 C400 1.264 . S
C424 C417 1.403 . S
C424 C425 1.399 . S
C424 H430 0.929 . S
C425 C405 1.449 . S
C425 C424 1.399 . S
C425 H431 0.930 1_565 S
H426 C406 0.931 1_545 S
H427 C407 0.930 1_545 S
H428 C415 0.931 . S
H429 C416 0.929 . S
H430 C424 0.929 . S
H431 C425 0.930 1_545 S
Mn432 O437 2.095 . S
Mn432 O447 2.162 . S
Mn432 O448 2.297 . S
Mn432 O456 2.385 . S
Mn432 O457 2.209 . S
Mn432 O458 2.094 . S
Mn433 O438 2.121 . S
Mn433 N440 2.257 . S
Mn433 N449 2.282 1_554 S
Mn433 O457 2.215 . S
Mn433 O459 2.117 1_554 S
C434 O456 1.234 . S
C434 O457 1.283 . S
C435 O447 1.281 . S
C435 O448 1.236 . S
C436 O458 1.240 1_556 S
C436 O459 1.264 . S
O437 Mn432 2.095 . S
O437 C446 1.250 . S
O438 Mn433 2.121 . S
O438 C446 1.258 . S
C439 N440 1.326 . S
C439 C443 1.460 . S
C439 H445 0.929 . S
N440 Mn433 2.257 . S
N440 C439 1.326 . S
N440 C444 1.362 . S
C441 C442 1.258 . S
C441 C444 1.431 . S
C441 C461 1.444 1_554 S
C442 C441 1.258 . S
C442 C443 1.477 . S
C442 H462 0.931 . S
C443 C439 1.460 . S
C443 C442 1.477 . S
C443 H463 0.930 . S
C444 N440 1.362 . S
C444 C441 1.431 . S
C444 C454 1.476 1_554 S
H445 C439 0.929 . S
C446 O437 1.250 . S
C446 O438 1.258 . S
O447 Mn432 2.162 . S
O447 C435 1.281 . S
O448 Mn432 2.297 . S
O448 C435 1.236 . S
N449 Mn433 2.282 1_556 S
N449 C450 1.328 . S
N449 C454 1.318 . S
C450 N449 1.328 . S
C450 C451 1.457 . S
C450 H455 0.929 . S
C451 C450 1.457 . S
C451 C452 1.291 . S
C451 H464 0.931 . S
C452 C451 1.291 . S
C452 C453 1.373 . S
C452 H465 0.929 . S
C453 C452 1.373 . S
C453 C454 1.396 . S
C453 C460 1.403 . S
C454 C444 1.476 1_556 S
C454 N449 1.318 . S
C454 C453 1.396 . S
H455 C450 0.929 . S
O456 Mn432 2.385 . S
O456 C434 1.234 . S
O457 Mn432 2.209 . S
O457 Mn433 2.215 . S
O457 C434 1.283 . S
O458 Mn432 2.094 . S
O458 C436 1.240 1_554 S
O459 Mn433 2.117 1_556 S
O459 C436 1.264 . S
C460 C453 1.403 . S
C460 C461 1.404 . S
C460 H466 0.929 . S
C461 C441 1.444 1_556 S
C461 C460 1.404 . S
C461 H467 0.933 1_556 S
H462 C442 0.931 . S
H463 C443 0.930 . S
H464 C451 0.931 . S
H465 C452 0.929 . S
H466 C460 0.929 . S
H467 C461 0.933 1_554 S
Mn468 O473 2.095 . S
Mn468 O483 2.162 . S
Mn468 O484 2.297 . S
Mn468 O492 2.385 . S
Mn468 O493 2.209 . S
Mn468 O494 2.091 1_554 S
Mn469 O474 2.121 1_556 S
Mn469 N476 2.257 . S
Mn469 N485 2.282 . S
Mn469 O493 2.215 1_556 S
Mn469 O495 2.117 . S
C470 O492 1.234 . S
C470 O493 1.283 . S
C471 O483 1.281 . S
C471 O484 1.236 . S
C472 O494 1.244 . S
C472 O495 1.264 . S
O473 Mn468 2.095 . S
O473 C482 1.250 . S
O474 Mn469 2.121 1_554 S
O474 C482 1.258 . S
C475 N476 1.339 . S
C475 C479 1.458 . S
C475 H481 0.919 1_556 S
N476 Mn469 2.257 . S
N476 C475 1.339 . S
N476 C480 1.362 . S
C477 C478 1.258 . S
C477 C480 1.431 . S
C477 C497 1.449 . S
C478 C477 1.258 . S
C478 C479 1.477 . S
C478 H498 0.931 . S
C479 C475 1.458 . S
C479 C478 1.477 . S
C479 H499 0.930 1_556 S
C480 N476 1.362 . S
C480 C477 1.431 . S
C480 C490 1.476 . S
H481 C475 0.919 1_554 S
C482 O473 1.250 . S
C482 O474 1.258 . S
O483 Mn468 2.162 . S
O483 C471 1.281 . S
O484 Mn468 2.297 . S
O484 C471 1.236 . S
N485 Mn469 2.282 . S
N485 C486 1.328 . S
N485 C490 1.318 . S
C486 N485 1.328 . S
C486 C487 1.457 . S
C486 H491 0.929 . S
C487 C486 1.457 . S
C487 C488 1.291 . S
C487 H500 0.931 . S
C488 C487 1.291 . S
C488 C489 1.373 . S
C488 H501 0.929 . S
C489 C488 1.373 . S
C489 C490 1.396 . S
C489 C496 1.403 . S
C490 C480 1.476 . S
C490 N485 1.318 . S
C490 C489 1.396 . S
H491 C486 0.929 . S
O492 Mn468 2.385 . S
O492 C470 1.234 . S
O493 Mn468 2.209 . S
O493 Mn469 2.215 1_554 S
O493 C470 1.283 . S
O494 Mn468 2.091 1_556 S
O494 C472 1.244 . S
O495 Mn469 2.117 . S
O495 C472 1.264 . S
C496 C489 1.403 . S
C496 C497 1.399 . S
C496 H502 0.929 . S
C497 C477 1.449 . S
C497 C496 1.399 . S
C497 H503 0.930 . S
H498 C478 0.931 . S
H499 C479 0.930 1_554 S
H500 C487 0.931 . S
H501 C488 0.929 . S
H502 C496 0.929 . S
H503 C497 0.930 . S
Mn504 O509 2.095 . S
Mn504 O519 2.162 . S
Mn504 O520 2.297 . S
Mn504 O528 2.385 . S
Mn504 O529 2.209 . S
Mn504 O530 2.094 . S
Mn505 O510 2.121 . S
Mn505 N512 2.257 . S
Mn505 N521 2.282 . S
Mn505 O529 2.215 . S
Mn505 O531 2.117 . S
C506 O528 1.234 . S
C506 O529 1.283 . S
C507 O519 1.281 . S
C507 O520 1.236 . S
C508 O530 1.240 . S
C508 O531 1.264 . S
O509 Mn504 2.095 . S
O509 C518 1.250 . S
O510 Mn505 2.121 . S
O510 C518 1.258 . S
C511 N512 1.326 . S
C511 C515 1.460 . S
C511 H517 0.929 . S
N512 Mn505 2.257 . S
N512 C511 1.326 . S
N512 C516 1.362 . S
C513 C514 1.258 . S
C513 C516 1.431 . S
C513 C533 1.449 . S
C514 C513 1.258 . S
C514 C515 1.477 . S
C514 H534 0.931 . S
C515 C511 1.460 . S
C515 C514 1.477 . S
C515 H535 0.930 . S
C516 N512 1.362 . S
C516 C513 1.431 . S
C516 C526 1.476 . S
H517 C511 0.929 . S
C518 O509 1.250 . S
C518 O510 1.258 . S
O519 Mn504 2.162 . S
O519 C507 1.281 . S
O520 Mn504 2.297 . S
O520 C507 1.236 . S
N521 Mn505 2.282 . S
N521 C522 1.328 . S
N521 C526 1.318 . S
C522 N521 1.328 . S
C522 C523 1.457 . S
C522 H527 0.929 . S
C523 C522 1.457 . S
C523 C524 1.291 . S
C523 H536 0.931 . S
C524 C523 1.291 . S
C524 C525 1.373 . S
C524 H537 0.929 . S
C525 C524 1.373 . S
C525 C526 1.396 . S
C525 C532 1.403 . S
C526 C516 1.476 . S
C526 N521 1.318 . S
C526 C525 1.396 . S
H527 C522 0.929 . S
O528 Mn504 2.385 . S
O528 C506 1.234 . S
O529 Mn504 2.209 . S
O529 Mn505 2.215 . S
O529 C506 1.283 . S
O530 Mn504 2.094 . S
O530 C508 1.240 . S
O531 Mn505 2.117 . S
O531 C508 1.264 . S
C532 C525 1.403 . S
C532 C533 1.399 . S
C532 H538 0.929 . S
C533 C513 1.449 . S
C533 C532 1.399 . S
C533 H539 0.930 . S
H534 C514 0.931 . S
H535 C515 0.930 . S
H536 C523 0.931 . S
H537 C524 0.929 . S
H538 C532 0.929 . S
H539 C533 0.930 . S
Mn540 O545 2.095 . S
Mn540 O555 2.162 . S
Mn540 O556 2.297 . S
Mn540 O564 2.385 . S
Mn540 O565 2.209 . S
Mn540 O566 2.094 . S
Mn541 O546 2.121 . S
Mn541 N548 2.257 . S
Mn541 N557 2.282 . S
Mn541 O565 2.215 . S
Mn541 O567 2.117 . S
C542 O564 1.234 . S
C542 O565 1.283 . S
C543 O555 1.281 . S
C543 O556 1.236 . S
C544 O566 1.240 . S
C544 O567 1.264 . S
O545 Mn540 2.095 . S
O545 C554 1.250 . S
O546 Mn541 2.121 . S
O546 C554 1.258 . S
C547 N548 1.326 . S
C547 C551 1.460 . S
C547 H553 0.929 . S
N548 Mn541 2.257 . S
N548 C547 1.326 . S
N548 C552 1.362 . S
C549 C550 1.258 1_565 S
C549 C552 1.431 . S
C549 C569 1.449 . S
C550 C549 1.258 1_545 S
C550 C551 1.477 1_545 S
C550 H570 0.931 . S
C551 C547 1.460 . S
C551 C550 1.477 1_565 S
C551 H571 0.930 1_565 S
C552 N548 1.362 . S
C552 C549 1.431 . S
C552 C562 1.476 . S
H553 C547 0.929 . S
C554 O545 1.250 . S
C554 O546 1.258 . S
O555 Mn540 2.162 . S
O555 C543 1.281 . S
O556 Mn540 2.297 . S
O556 C543 1.236 . S
N557 Mn541 2.282 . S
N557 C558 1.328 . S
N557 C562 1.318 . S
C558 N557 1.328 . S
C558 C559 1.457 . S
C558 H563 0.929 . S
C559 C558 1.457 . S
C559 C560 1.291 . S
C559 H572 0.931 . S
C560 C559 1.291 . S
C560 C561 1.373 . S
C560 H573 0.929 . S
C561 C560 1.373 . S
C561 C562 1.396 . S
C561 C568 1.403 . S
C562 C552 1.476 . S
C562 N557 1.318 . S
C562 C561 1.396 . S
H563 C558 0.929 . S
O564 Mn540 2.385 . S
O564 C542 1.234 . S
O565 Mn540 2.209 . S
O565 Mn541 2.215 . S
O565 C542 1.283 . S
O566 Mn540 2.094 . S
O566 C544 1.240 . S
O567 Mn541 2.117 . S
O567 C544 1.264 . S
C568 C561 1.403 . S
C568 C569 1.399 . S
C568 H574 0.929 . S
C569 C549 1.449 . S
C569 C568 1.399 . S
C569 H575 0.930 1_565 S
H570 C550 0.931 . S
H571 C551 0.930 1_545 S
H572 C559 0.931 . S
H573 C560 0.929 . S
H574 C568 0.929 . S
H575 C569 0.930 1_545 S
Mn576 O581 2.095 . S
Mn576 O591 2.162 . S
Mn576 O592 2.297 . S
Mn576 O600 2.385 1_545 S
Mn576 O601 2.209 1_545 S
Mn576 O602 2.094 . S
Mn577 O582 2.121 . S
Mn577 N584 2.257 1_545 S
Mn577 N593 2.282 1_545 S
Mn577 O601 2.215 1_545 S
Mn577 O603 2.117 . S
C578 O600 1.234 . S
C578 O601 1.283 . S
C579 O591 1.281 . S
C579 O592 1.236 . S
C580 O602 1.240 . S
C580 O603 1.264 . S
O581 Mn576 2.095 . S
O581 C590 1.250 . S
O582 Mn577 2.121 . S
O582 C590 1.258 . S
C583 N584 1.326 1_545 S
C583 C587 1.460 1_545 S
C583 H589 0.930 . S
N584 Mn577 2.257 1_565 S
N584 C583 1.326 1_565 S
N584 C588 1.362 . S
C585 C586 1.258 . S
C585 C588 1.431 . S
C585 C605 1.449 . S
C586 C585 1.258 . S
C586 C587 1.477 . S
C586 H606 0.931 . S
C587 C583 1.460 1_565 S
C587 C586 1.477 . S
C587 H607 0.930 . S
C588 N584 1.362 . S
C588 C585 1.431 . S
C588 C598 1.476 . S
H589 C583 0.930 . S
C590 O581 1.250 . S
C590 O582 1.258 . S
O591 Mn576 2.162 . S
O591 C579 1.281 . S
O592 Mn576 2.297 . S
O592 C579 1.236 . S
N593 Mn577 2.282 1_565 S
N593 C594 1.328 . S
N593 C598 1.318 . S
C594 N593 1.328 . S
C594 C595 1.457 . S
C594 H599 0.929 . S
C595 C594 1.457 . S
C595 C596 1.291 . S
C595 H608 0.931 . S
C596 C595 1.291 . S
C596 C597 1.373 . S
C596 H609 0.929 . S
C597 C596 1.373 . S
C597 C598 1.396 . S
C597 C604 1.403 . S
C598 C588 1.476 . S
C598 N593 1.318 . S
C598 C597 1.396 . S
H599 C594 0.929 . S
O600 Mn576 2.385 1_565 S
O600 C578 1.234 . S
O601 Mn576 2.209 1_565 S
O601 Mn577 2.215 1_565 S
O601 C578 1.283 . S
O602 Mn576 2.094 . S
O602 C580 1.240 . S
O603 Mn577 2.117 . S
O603 C580 1.264 . S
C604 C597 1.403 . S
C604 C605 1.399 . S
C604 H610 0.929 . S
C605 C585 1.449 . S
C605 C604 1.399 . S
C605 H611 0.930 . S
H606 C586 0.931 . S
H607 C587 0.930 . S
H608 C595 0.931 . S
H609 C596 0.929 . S
H610 C604 0.929 . S
H611 C605 0.930 . S
Mn612 O617 2.095 . S
Mn612 O627 2.162 . S
Mn612 O628 2.297 . S
Mn612 O636 2.385 . S
Mn612 O637 2.209 . S
Mn612 O638 2.094 . S
Mn613 O618 2.121 . S
Mn613 N620 2.257 . S
Mn613 N629 2.282 . S
Mn613 O637 2.215 . S
Mn613 O639 2.117 . S
C614 O636 1.234 . S
C614 O637 1.283 . S
C615 O627 1.281 . S
C615 O628 1.236 . S
C616 O638 1.240 . S
C616 O639 1.264 . S
O617 Mn612 2.095 . S
O617 C626 1.250 . S
O618 Mn613 2.121 . S
O618 C626 1.258 . S
C619 N620 1.326 . S
C619 C623 1.460 . S
C619 H625 0.929 . S
N620 Mn613 2.257 . S
N620 C619 1.326 . S
N620 C624 1.362 . S
C621 C622 1.258 . S
C621 C624 1.431 . S
C621 C641 1.449 . S
C622 C621 1.258 . S
C622 C623 1.477 . S
C622 H642 0.931 . S
C623 C619 1.460 . S
C623 C622 1.477 . S
C623 H643 0.930 . S
C624 N620 1.362 . S
C624 C621 1.431 . S
C624 C634 1.476 . S
H625 C619 0.929 . S
C626 O617 1.250 . S
C626 O618 1.258 . S
O627 Mn612 2.162 . S
O627 C615 1.281 . S
O628 Mn612 2.297 . S
O628 C615 1.236 . S
N629 Mn613 2.282 . S
N629 C630 1.328 . S
N629 C634 1.318 . S
C630 N629 1.328 . S
C630 C631 1.457 . S
C630 H635 0.929 . S
C631 C630 1.457 . S
C631 C632 1.291 . S
C631 H644 0.931 . S
C632 C631 1.291 . S
C632 C633 1.373 . S
C632 H645 0.929 . S
C633 C632 1.373 . S
C633 C634 1.396 . S
C633 C640 1.403 . S
C634 C624 1.476 . S
C634 N629 1.318 . S
C634 C633 1.396 . S
H635 C630 0.929 . S
O636 Mn612 2.385 . S
O636 C614 1.234 . S
O637 Mn612 2.209 . S
O637 Mn613 2.215 . S
O637 C614 1.283 . S
O638 Mn612 2.094 . S
O638 C616 1.240 . S
O639 Mn613 2.117 . S
O639 C616 1.264 . S
C640 C633 1.403 . S
C640 C641 1.399 . S
C640 H646 0.929 . S
C641 C621 1.449 . S
C641 C640 1.399 . S
C641 H647 0.930 . S
H642 C622 0.931 . S
H643 C623 0.930 . S
H644 C631 0.931 . S
H645 C632 0.929 . S
H646 C640 0.929 . S
H647 C641 0.930 . S
Mn648 O653 2.095 . S
Mn648 O663 2.162 . S
Mn648 O664 2.297 . S
Mn648 O672 2.385 . S
Mn648 O673 2.209 . S
Mn648 O674 2.094 . S
Mn649 O654 2.121 . S
Mn649 N656 2.257 . S
Mn649 N665 2.282 . S
Mn649 O673 2.215 . S
Mn649 O675 2.117 . S
C650 O672 1.234 . S
C650 O673 1.283 . S
C651 O663 1.281 . S
C651 O664 1.236 . S
C652 O674 1.240 . S
C652 O675 1.264 . S
O653 Mn648 2.095 . S
O653 C662 1.250 . S
O654 Mn649 2.121 . S
O654 C662 1.258 . S
C655 N656 1.326 . S
C655 C659 1.460 . S
C655 H661 0.929 . S
N656 Mn649 2.257 . S
N656 C655 1.326 . S
N656 C660 1.362 . S
C657 C658 1.258 . S
C657 C660 1.431 . S
C657 C677 1.449 . S
C658 C657 1.258 . S
C658 C659 1.477 . S
C658 H678 0.931 . S
C659 C655 1.460 . S
C659 C658 1.477 . S
C659 H679 0.930 . S
C660 N656 1.362 . S
C660 C657 1.431 . S
C660 C670 1.476 . S
H661 C655 0.929 . S
C662 O653 1.250 . S
C662 O654 1.258 . S
O663 Mn648 2.162 . S
O663 C651 1.281 . S
O664 Mn648 2.297 . S
O664 C651 1.236 . S
N665 Mn649 2.282 . S
N665 C666 1.328 . S
N665 C670 1.318 . S
C666 N665 1.328 . S
C666 C667 1.457 . S
C666 H671 0.929 . S
C667 C666 1.457 . S
C667 C668 1.291 . S
C667 H680 0.931 . S
C668 C667 1.291 . S
C668 C669 1.373 . S
C668 H681 0.929 . S
C669 C668 1.373 . S
C669 C670 1.396 . S
C669 C676 1.403 . S
C670 C660 1.476 . S
C670 N665 1.318 . S
C670 C669 1.396 . S
H671 C666 0.929 . S
O672 Mn648 2.385 . S
O672 C650 1.234 . S
O673 Mn648 2.209 . S
O673 Mn649 2.215 . S
O673 C650 1.283 . S
O674 Mn648 2.094 . S
O674 C652 1.240 . S
O675 Mn649 2.117 . S
O675 C652 1.264 . S
C676 C669 1.403 . S
C676 C677 1.399 . S
C676 H682 0.929 . S
C677 C657 1.449 . S
C677 C676 1.399 . S
C677 H683 0.930 . S
H678 C658 0.931 . S
H679 C659 0.930 . S
H680 C667 0.931 . S
H681 C668 0.929 . S
H682 C676 0.929 . S
H683 C677 0.930 . S
Mn684 O689 2.081 1_545 S
Mn684 O699 2.162 1_545 S
Mn684 O700 2.298 1_545 S
Mn684 O708 2.400 . S
Mn684 O709 2.214 . S
Mn684 O710 2.094 1_545 S
Mn685 O690 2.121 1_545 S
Mn685 N692 2.257 . S
Mn685 N701 2.282 . S
Mn685 O709 2.215 . S
Mn685 O711 2.117 . S
C686 O708 1.234 . S
C686 O709 1.283 . S
C687 O699 1.281 . S
C687 O700 1.235 . S
C688 O710 1.241 1_545 S
C688 O711 1.264 . S
O689 Mn684 2.081 1_565 S
O689 C698 1.250 . S
O690 Mn685 2.121 1_565 S
O690 C698 1.258 . S
C691 N692 1.326 . S
C691 C695 1.460 . S
C691 H697 0.929 1_545 S
N692 Mn685 2.257 . S
N692 C691 1.326 . S
N692 C696 1.362 . S
C693 C694 1.258 . S
C693 C696 1.431 . S
C693 C713 1.449 . S
C694 C693 1.258 . S
C694 C695 1.477 . S
C694 H714 0.931 . S
C695 C691 1.460 . S
C695 C694 1.477 . S
C695 H715 0.930 . S
C696 N692 1.362 . S
C696 C693 1.431 . S
C696 C706 1.476 . S
H697 C691 0.929 1_565 S
C698 O689 1.250 . S
C698 O690 1.258 . S
O699 Mn684 2.162 1_565 S
O699 C687 1.281 . S
O700 Mn684 2.298 1_565 S
O700 C687 1.235 . S
N701 Mn685 2.282 . S
N701 C702 1.328 . S
N701 C706 1.318 . S
C702 N701 1.328 . S
C702 C703 1.457 . S
C702 H707 0.929 . S
C703 C702 1.457 . S
C703 C704 1.291 . S
C703 H716 0.931 . S
C704 C703 1.291 . S
C704 C705 1.373 . S
C704 H717 0.929 . S
C705 C704 1.373 . S
C705 C706 1.396 . S
C705 C712 1.403 . S
C706 C696 1.476 . S
C706 N701 1.318 . S
C706 C705 1.396 . S
H707 C702 0.929 . S
O708 Mn684 2.400 . S
O708 C686 1.234 . S
O709 Mn684 2.214 . S
O709 Mn685 2.215 . S
O709 C686 1.283 . S
O710 Mn684 2.094 1_565 S
O710 C688 1.241 1_565 S
O711 Mn685 2.117 . S
O711 C688 1.264 . S
C712 C705 1.403 . S
C712 C713 1.399 . S
C712 H718 0.929 . S
C713 C693 1.449 . S
C713 C712 1.399 . S
C713 H719 0.930 . S
H714 C694 0.931 . S
H715 C695 0.930 . S
H716 C703 0.931 . S
H717 C704 0.929 . S
H718 C712 0.929 . S
H719 C713 0.930 . S
Mn720 O725 2.095 1_554 S
Mn720 O735 2.162 . S
Mn720 O736 2.297 . S
Mn720 O744 2.385 . S
Mn720 O745 2.209 1_554 S
Mn720 O746 2.094 1_554 S
Mn721 O726 2.121 . S
Mn721 N728 2.257 . S
Mn721 N737 2.282 . S
Mn721 O745 2.215 . S
Mn721 O747 2.117 . S
C722 O744 1.234 1_556 S
C722 O745 1.283 . S
C723 O735 1.281 . S
C723 O736 1.236 . S
C724 O746 1.240 . S
C724 O747 1.264 . S
O725 Mn720 2.095 1_556 S
O725 C734 1.250 . S
O726 Mn721 2.121 . S
O726 C734 1.258 . S
C727 N728 1.326 . S
C727 C731 1.460 . S
C727 H733 0.929 . S
N728 Mn721 2.257 . S
N728 C727 1.326 . S
N728 C732 1.362 . S
C729 C730 1.258 . S
C729 C732 1.431 . S
C729 C749 1.449 . S
C730 C729 1.258 . S
C730 C731 1.477 . S
C730 H750 0.931 . S
C731 C727 1.460 . S
C731 C730 1.477 . S
C731 H751 0.930 . S
C732 N728 1.362 . S
C732 C729 1.431 . S
C732 C742 1.476 . S
H733 C727 0.929 . S
C734 O725 1.250 . S
C734 O726 1.258 . S
O735 Mn720 2.162 . S
O735 C723 1.281 . S
O736 Mn720 2.297 . S
O736 C723 1.236 . S
N737 Mn721 2.282 . S
N737 C738 1.328 . S
N737 C742 1.318 . S
C738 N737 1.328 . S
C738 C739 1.457 . S
C738 H743 0.929 . S
C739 C738 1.457 . S
C739 C740 1.291 . S
C739 H752 0.931 . S
C740 C739 1.291 . S
C740 C741 1.373 . S
C740 H753 0.929 . S
C741 C740 1.373 . S
C741 C742 1.396 . S
C741 C748 1.403 . S
C742 C732 1.476 . S
C742 N737 1.318 . S
C742 C741 1.396 . S
H743 C738 0.929 . S
O744 Mn720 2.385 . S
O744 C722 1.234 1_554 S
O745 Mn720 2.209 1_556 S
O745 Mn721 2.215 . S
O745 C722 1.283 . S
O746 Mn720 2.094 1_556 S
O746 C724 1.240 . S
O747 Mn721 2.117 . S
O747 C724 1.264 . S
C748 C741 1.403 . S
C748 C749 1.399 . S
C748 H754 0.929 . S
C749 C729 1.449 . S
C749 C748 1.399 . S
C749 H755 0.930 . S
H750 C730 0.931 . S
H751 C731 0.930 . S
H752 C739 0.931 . S
H753 C740 0.929 . S
H754 C748 0.929 . S
H755 C749 0.930 . S
Mn756 O761 2.095 . S
Mn756 O771 2.162 . S
Mn756 O772 2.297 . S
Mn756 O780 2.385 . S
Mn756 O781 2.209 . S
Mn756 O782 2.094 . S
Mn757 O762 2.121 . S
Mn757 N764 2.257 . S
Mn757 N773 2.282 . S
Mn757 O781 2.215 . S
Mn757 O783 2.117 . S
C758 O780 1.234 . S
C758 O781 1.283 . S
C759 O771 1.281 . S
C759 O772 1.236 . S
C760 O782 1.240 . S
C760 O783 1.264 . S
O761 Mn756 2.095 . S
O761 C770 1.250 . S
O762 Mn757 2.121 . S
O762 C770 1.258 . S
C763 N764 1.326 . S
C763 C767 1.460 . S
C763 H769 0.929 . S
N764 Mn757 2.257 . S
N764 C763 1.326 . S
N764 C768 1.362 . S
C765 C766 1.258 . S
C765 C768 1.431 . S
C765 C785 1.449 . S
C766 C765 1.258 . S
C766 C767 1.477 . S
C766 H786 0.931 . S
C767 C763 1.460 . S
C767 C766 1.477 . S
C767 H787 0.930 . S
C768 N764 1.362 . S
C768 C765 1.431 . S
C768 C778 1.476 . S
H769 C763 0.929 . S
C770 O761 1.250 . S
C770 O762 1.258 . S
O771 Mn756 2.162 . S
O771 C759 1.281 . S
O772 Mn756 2.297 . S
O772 C759 1.236 . S
N773 Mn757 2.282 . S
N773 C774 1.328 . S
N773 C778 1.318 . S
C774 N773 1.328 . S
C774 C775 1.457 . S
C774 H779 0.929 . S
C775 C774 1.457 . S
C775 C776 1.291 . S
C775 H788 0.931 . S
C776 C775 1.291 . S
C776 C777 1.373 . S
C776 H789 0.929 . S
C777 C776 1.373 . S
C777 C778 1.396 . S
C777 C784 1.403 . S
C778 C768 1.476 . S
C778 N773 1.318 . S
C778 C777 1.396 . S
H779 C774 0.929 . S
O780 Mn756 2.385 . S
O780 C758 1.234 . S
O781 Mn756 2.209 . S
O781 Mn757 2.215 . S
O781 C758 1.283 . S
O782 Mn756 2.094 . S
O782 C760 1.240 . S
O783 Mn757 2.117 . S
O783 C760 1.264 . S
C784 C777 1.403 . S
C784 C785 1.399 . S
C784 H790 0.929 . S
C785 C765 1.449 . S
C785 C784 1.399 . S
C785 H791 0.930 . S
H786 C766 0.931 . S
H787 C767 0.930 . S
H788 C775 0.931 . S
H789 C776 0.929 . S
H790 C784 0.929 . S
H791 C785 0.930 . S
Mn792 O797 2.095 . S
Mn792 O807 2.162 . S
Mn792 O808 2.297 . S
Mn792 O816 2.385 . S
Mn792 O817 2.209 . S
Mn792 O818 2.094 . S
Mn793 O798 2.121 . S
Mn793 N800 2.257 . S
Mn793 N809 2.282 . S
Mn793 O817 2.215 . S
Mn793 O819 2.117 . S
C794 O816 1.234 . S
C794 O817 1.283 . S
C795 O807 1.281 . S
C795 O808 1.236 . S
C796 O818 1.240 . S
C796 O819 1.264 . S
O797 Mn792 2.095 . S
O797 C806 1.250 . S
O798 Mn793 2.121 . S
O798 C806 1.258 . S
C799 N800 1.326 . S
C799 C803 1.460 . S
C799 H805 0.929 . S
N800 Mn793 2.257 . S
N800 C799 1.326 . S
N800 C804 1.362 . S
C801 C802 1.258 . S
C801 C804 1.431 . S
C801 C821 1.449 . S
C802 C801 1.258 . S
C802 C803 1.477 . S
C802 H822 0.931 . S
C803 C799 1.460 . S
C803 C802 1.477 . S
C803 H823 0.930 . S
C804 N800 1.362 . S
C804 C801 1.431 . S
C804 C814 1.476 . S
H805 C799 0.929 . S
C806 O797 1.250 . S
C806 O798 1.258 . S
O807 Mn792 2.162 . S
O807 C795 1.281 . S
O808 Mn792 2.297 . S
O808 C795 1.236 . S
N809 Mn793 2.282 . S
N809 C810 1.328 . S
N809 C814 1.318 . S
C810 N809 1.328 . S
C810 C811 1.457 . S
C810 H815 0.929 . S
C811 C810 1.457 . S
C811 C812 1.291 . S
C811 H824 0.931 . S
C812 C811 1.291 . S
C812 C813 1.373 . S
C812 H825 0.929 . S
C813 C812 1.373 . S
C813 C814 1.396 . S
C813 C820 1.403 . S
C814 C804 1.476 . S
C814 N809 1.318 . S
C814 C813 1.396 . S
H815 C810 0.929 . S
O816 Mn792 2.385 . S
O816 C794 1.234 . S
O817 Mn792 2.209 . S
O817 Mn793 2.215 . S
O817 C794 1.283 . S
O818 Mn792 2.094 . S
O818 C796 1.240 . S
O819 Mn793 2.117 . S
O819 C796 1.264 . S
C820 C813 1.403 . S
C820 C821 1.399 . S
C820 H826 0.929 . S
C821 C801 1.449 . S
C821 C820 1.399 . S
C821 H827 0.930 . S
H822 C802 0.931 . S
H823 C803 0.930 . S
H824 C811 0.931 . S
H825 C812 0.929 . S
H826 C820 0.929 . S
H827 C821 0.930 . S
Mn828 O833 2.095 . S
Mn828 O843 2.162 . S
Mn828 O844 2.297 . S
Mn828 O852 2.385 . S
Mn828 O853 2.209 . S
Mn828 O854 2.094 . S
Mn829 O834 2.121 . S
Mn829 N836 2.257 . S
Mn829 N845 2.282 . S
Mn829 O853 2.215 . S
Mn829 O855 2.117 . S
C830 O852 1.234 . S
C830 O853 1.283 . S
C831 O843 1.281 . S
C831 O844 1.236 . S
C832 O854 1.240 . S
C832 O855 1.264 . S
O833 Mn828 2.095 . S
O833 C842 1.250 . S
O834 Mn829 2.121 . S
O834 C842 1.258 . S
C835 N836 1.326 . S
C835 C839 1.460 . S
C835 H841 0.929 . S
N836 Mn829 2.257 . S
N836 C835 1.326 . S
N836 C840 1.362 . S
C837 C838 1.258 . S
C837 C840 1.431 . S
C837 C857 1.449 . S
C838 C837 1.258 . S
C838 C839 1.477 . S
C838 H858 0.931 . S
C839 C835 1.460 . S
C839 C838 1.477 . S
C839 H859 0.930 . S
C840 N836 1.362 . S
C840 C837 1.431 . S
C840 C850 1.476 . S
H841 C835 0.929 . S
C842 O833 1.250 . S
C842 O834 1.258 . S
O843 Mn828 2.162 . S
O843 C831 1.281 . S
O844 Mn828 2.297 . S
O844 C831 1.236 . S
N845 Mn829 2.282 . S
N845 C846 1.328 . S
N845 C850 1.318 . S
C846 N845 1.328 . S
C846 C847 1.457 . S
C846 H851 0.929 . S
C847 C846 1.457 . S
C847 C848 1.291 . S
C847 H860 0.931 . S
C848 C847 1.291 . S
C848 C849 1.373 . S
C848 H861 0.929 . S
C849 C848 1.373 . S
C849 C850 1.396 . S
C849 C856 1.403 . S
C850 C840 1.476 . S
C850 N845 1.318 . S
C850 C849 1.396 . S
H851 C846 0.929 . S
O852 Mn828 2.385 . S
O852 C830 1.234 . S
O853 Mn828 2.209 . S
O853 Mn829 2.215 . S
O853 C830 1.283 . S
O854 Mn828 2.094 . S
O854 C832 1.240 . S
O855 Mn829 2.117 . S
O855 C832 1.264 . S
C856 C849 1.403 . S
C856 C857 1.399 . S
C856 H862 0.929 . S
C857 C837 1.449 . S
C857 C856 1.399 . S
C857 H863 0.930 . S
H858 C838 0.931 . S
H859 C839 0.930 . S
H860 C847 0.931 . S
H861 C848 0.929 . S
H862 C856 0.929 . S
H863 C857 0.930 . S
Zn864 O870 1.969 . S
Zn864 O871 1.965 . S
Zn864 O875 2.024 . S
Zn864 O880 1.969 . S
Zn865 O872 1.969 1_654 S
Zn865 O878 1.969 1_554 S
Zn865 O879 1.965 . S
Zn865 O881 2.024 1_655 S
C866 O867 1.229 . S
C866 O875 1.058 . S
O867 C866 1.229 . S
C868 O869 1.229 1_454 S
C868 O881 1.058 . S
O869 C868 1.229 1_656 S
O870 Zn864 1.969 . S
O870 C873 1.267 . S
O871 Zn864 1.965 . S
O871 C882 1.260 1_554 S
O872 Zn865 1.969 1_456 S
O872 C882 1.258 1_545 S
C873 O870 1.267 . S
C873 O874 1.228 . S
O874 C873 1.228 . S
O875 Zn864 2.024 . S
O875 C866 1.058 . S
C876 O877 1.228 . S
C876 O878 1.267 1_554 S
O877 C876 1.228 . S
O878 Zn865 1.969 1_556 S
O878 C876 1.267 1_556 S
O879 Zn865 1.965 . S
O879 C883 1.252 1_655 S
O880 Zn864 1.969 . S
O880 C883 1.271 1_565 S
O881 Zn865 2.024 1_455 S
O881 C868 1.058 . S
C882 O871 1.260 1_556 S
C882 O872 1.258 1_565 S
C883 O879 1.252 1_455 S
C883 O880 1.271 1_545 S
Zn884 O890 1.969 . S
Zn884 O891 1.965 . S
Zn884 O895 2.024 . S
Zn884 O900 1.969 . S
Zn885 O892 1.969 . S
Zn885 O898 1.969 . S
Zn885 O899 1.965 . S
Zn885 O901 2.024 . S
C886 O887 1.229 . S
C886 O895 1.058 . S
O887 C886 1.229 . S
C888 O889 1.229 . S
C888 O901 1.058 . S
O889 C888 1.229 . S
O890 Zn884 1.969 . S
O890 C893 1.267 . S
O891 Zn884 1.965 . S
O891 C902 1.260 . S
O892 Zn885 1.969 . S
O892 C902 1.258 . S
C893 O890 1.267 . S
C893 O894 1.228 . S
O894 C893 1.228 . S
O895 Zn884 2.024 . S
O895 C886 1.058 . S
C896 O897 1.228 . S
C896 O898 1.267 . S
O897 C896 1.228 . S
O898 Zn885 1.969 . S
O898 C896 1.267 . S
O899 Zn885 1.965 . S
O899 C903 1.260 . S
O900 Zn884 1.969 . S
O900 C903 1.258 . S
O901 Zn885 2.024 . S
O901 C888 1.058 . S
C902 O891 1.260 . S
C902 O892 1.258 . S
C903 O899 1.260 . S
C903 O900 1.258 . S
Zn904 O910 1.969 . S
Zn904 O911 1.965 . S
Zn904 O915 2.024 . S
Zn904 O920 1.969 . S
Zn905 O912 1.969 1_565 S
Zn905 O918 1.969 . S
Zn905 O919 1.965 1_565 S
Zn905 O921 2.024 . S
C906 O907 1.229 . S
C906 O915 1.058 . S
O907 C906 1.229 . S
C908 O909 1.229 . S
C908 O921 1.058 . S
O909 C908 1.229 . S
O910 Zn904 1.969 . S
O910 C913 1.267 . S
O911 Zn904 1.965 . S
O911 C922 1.260 . S
O912 Zn905 1.969 1_545 S
O912 C922 1.258 . S
C913 O910 1.267 . S
C913 O914 1.228 . S
O914 C913 1.228 . S
O915 Zn904 2.024 . S
O915 C906 1.058 . S
C916 O917 1.228 . S
C916 O918 1.267 . S
O917 C916 1.228 . S
O918 Zn905 1.969 . S
O918 C916 1.267 . S
O919 Zn905 1.965 1_545 S
O919 C923 1.260 . S
O920 Zn904 1.969 . S
O920 C923 1.258 . S
O921 Zn905 2.024 . S
O921 C908 1.058 . S
C922 O911 1.260 . S
C922 O912 1.258 . S
C923 O919 1.260 . S
C923 O920 1.258 . S
Zn924 O930 1.969 . S
Zn924 O931 1.965 . S
Zn924 O935 2.024 . S
Zn924 O940 1.969 . S
Zn925 O932 1.969 . S
Zn925 O938 1.969 . S
Zn925 O939 1.965 . S
Zn925 O941 2.024 . S
C926 O927 1.229 . S
C926 O935 1.058 . S
O927 C926 1.229 . S
C928 O929 1.229 . S
C928 O941 1.058 . S
O929 C928 1.229 . S
O930 Zn924 1.969 . S
O930 C933 1.267 . S
O931 Zn924 1.965 . S
O931 C942 1.260 . S
O932 Zn925 1.969 . S
O932 C942 1.258 . S
C933 O930 1.267 . S
C933 O934 1.228 . S
O934 C933 1.228 . S
O935 Zn924 2.024 . S
O935 C926 1.058 . S
C936 O937 1.228 . S
C936 O938 1.267 . S
O937 C936 1.228 . S
O938 Zn925 1.969 . S
O938 C936 1.267 . S
O939 Zn925 1.965 . S
O939 C943 1.260 . S
O940 Zn924 1.969 . S
O940 C943 1.258 . S
O941 Zn925 2.024 . S
O941 C928 1.058 . S
C942 O931 1.260 . S
C942 O932 1.258 . S
C943 O939 1.260 . S
C943 O940 1.258 . S
Zn944 O950 1.969 . S
Zn944 O951 1.965 1_455 S
Zn944 O955 2.024 1_565 S
Zn944 O960 1.969 1_565 S
Zn945 O952 1.969 1_455 S
Zn945 O958 1.969 1_455 S
Zn945 O959 1.965 . S
Zn945 O961 2.024 . S
C946 O947 1.229 1_545 S
C946 O955 1.058 . S
O947 C946 1.229 1_565 S
C948 O949 1.229 . S
C948 O961 1.058 1_655 S
O949 C948 1.229 . S
O950 Zn944 1.969 . S
O950 C953 1.267 . S
O951 Zn944 1.965 1_655 S
O951 C962 1.260 . S
O952 Zn945 1.969 1_655 S
O952 C962 1.258 1_545 S
C953 O950 1.267 . S
C953 O954 1.228 . S
O954 C953 1.228 . S
O955 Zn944 2.024 1_545 S
O955 C946 1.058 . S
C956 O957 1.228 . S
C956 O958 1.267 1_455 S
O957 C956 1.228 . S
O958 Zn945 1.969 1_655 S
O958 C956 1.267 1_655 S
O959 Zn945 1.965 . S
O959 C963 1.260 . S
O960 Zn944 1.969 1_545 S
O960 C963 1.258 . S
O961 Zn945 2.024 . S
O961 C948 1.058 1_455 S
C962 O951 1.260 . S
C962 O952 1.258 1_565 S
C963 O959 1.260 . S
C963 O960 1.258 . S
Zn964 O970 1.969 . S
Zn964 O971 1.965 . S
Zn964 O975 2.024 . S
Zn964 O980 1.969 . S
Zn965 O972 1.969 . S
Zn965 O978 1.969 . S
Zn965 O979 1.965 . S
Zn965 O981 2.024 . S
C966 O967 1.229 . S
C966 O975 1.058 . S
O967 C966 1.229 . S
C968 O969 1.229 . S
C968 O981 1.058 . S
O969 C968 1.229 . S
O970 Zn964 1.969 . S
O970 C973 1.267 . S
O971 Zn964 1.965 . S
O971 C982 1.260 . S
O972 Zn965 1.969 . S
O972 C982 1.258 . S
C973 O970 1.267 . S
C973 O974 1.228 . S
O974 C973 1.228 . S
O975 Zn964 2.024 . S
O975 C966 1.058 . S
C976 O977 1.228 . S
C976 O978 1.267 . S
O977 C976 1.228 . S
O978 Zn965 1.969 . S
O978 C976 1.267 . S
O979 Zn965 1.965 . S
O979 C983 1.260 . S
O980 Zn964 1.969 . S
O980 C983 1.258 . S
O981 Zn965 2.024 . S
O981 C968 1.058 . S
C982 O971 1.260 . S
C982 O972 1.258 . S
C983 O979 1.260 . S
C983 O980 1.258 . S
Zn984 O990 1.969 . S
Zn984 O991 1.965 1_545 S
Zn984 O995 2.024 1_556 S
Zn984 O1000 1.969 1_556 S
Zn985 O992 1.994 . S
Zn985 O998 1.981 . S
Zn985 O999 1.940 1_565 S
Zn985 O1001 2.015 1_565 S
C986 O987 1.229 . S
C986 O995 1.058 . S
O987 C986 1.229 . S
C988 O989 1.229 . S
C988 O1001 1.058 1_565 S
O989 C988 1.229 . S
O990 Zn984 1.969 . S
O990 C993 1.267 . S
O991 Zn984 1.965 1_565 S
O991 C1002 1.260 1_556 S
O992 Zn985 1.994 . S
O992 C1002 1.258 . S
C993 O990 1.267 . S
C993 O994 1.228 . S
O994 C993 1.228 . S
O995 Zn984 2.024 1_554 S
O995 C986 1.058 . S
C996 O997 1.228 . S
C996 O998 1.267 1_545 S
O997 C996 1.228 . S
O998 Zn985 1.981 . S
O998 C996 1.267 1_565 S
O999 Zn985 1.940 1_545 S
O999 C1003 1.260 . S
O1000 Zn984 1.969 1_554 S
O1000 C1003 1.258 . S
O1001 Zn985 2.015 1_545 S
O1001 C988 1.058 1_545 S
C1002 O991 1.260 1_554 S
C1002 O992 1.258 . S
C1003 O999 1.260 . S
C1003 O1000 1.258 . S
Zn1004 O1010 1.969 . S
Zn1004 O1011 1.965 . S
Zn1004 O1015 2.024 . S
Zn1004 O1020 1.969 . S
Zn1005 O1012 1.969 . S
Zn1005 O1018 1.969 . S
Zn1005 O1019 1.965 . S
Zn1005 O1021 2.024 . S
C1006 O1007 1.229 . S
C1006 O1015 1.058 . S
O1007 C1006 1.229 . S
C1008 O1009 1.229 . S
C1008 O1021 1.058 . S
O1009 C1008 1.229 . S
O1010 Zn1004 1.969 . S
O1010 C1013 1.267 . S
O1011 Zn1004 1.965 . S
O1011 C1022 1.260 . S
O1012 Zn1005 1.969 . S
O1012 C1022 1.258 . S
C1013 O1010 1.267 . S
C1013 O1014 1.228 . S
O1014 C1013 1.228 . S
O1015 Zn1004 2.024 . S
O1015 C1006 1.058 . S
C1016 O1017 1.228 . S
C1016 O1018 1.267 . S
O1017 C1016 1.228 . S
O1018 Zn1005 1.969 . S
O1018 C1016 1.267 . S
O1019 Zn1005 1.965 . S
O1019 C1023 1.260 . S
O1020 Zn1004 1.969 . S
O1020 C1023 1.258 . S
O1021 Zn1005 2.024 . S
O1021 C1008 1.058 . S
C1022 O1011 1.260 . S
C1022 O1012 1.258 . S
C1023 O1019 1.260 . S
C1023 O1020 1.258 . S
Zn1024 O1030 1.969 . S
Zn1024 O1031 1.965 . S
Zn1024 O1035 2.024 . S
Zn1024 O1040 1.969 . S
Zn1025 O1032 1.969 1_556 S
Zn1025 O1038 1.969 1_556 S
Zn1025 O1039 1.965 1_556 S
Zn1025 O1041 2.024 . S
C1026 O1027 1.229 . S
C1026 O1035 1.058 . S
O1027 C1026 1.229 . S
C1028 O1029 1.229 . S
C1028 O1041 1.058 . S
O1029 C1028 1.229 . S
O1030 Zn1024 1.969 . S
O1030 C1033 1.267 . S
O1031 Zn1024 1.965 . S
O1031 C1042 1.260 . S
O1032 Zn1025 1.969 1_554 S
O1032 C1042 1.258 . S
C1033 O1030 1.267 . S
C1033 O1034 1.228 . S
O1034 C1033 1.228 . S
O1035 Zn1024 2.024 . S
O1035 C1026 1.058 . S
C1036 O1037 1.228 . S
C1036 O1038 1.267 1_556 S
O1037 C1036 1.228 . S
O1038 Zn1025 1.969 1_554 S
O1038 C1036 1.267 1_554 S
O1039 Zn1025 1.965 1_554 S
O1039 C1043 1.260 . S
O1040 Zn1024 1.969 . S
O1040 C1043 1.258 . S
O1041 Zn1025 2.024 . S
O1041 C1028 1.058 . S
C1042 O1031 1.260 . S
C1042 O1032 1.258 . S
C1043 O1039 1.260 . S
C1043 O1040 1.258 . S
Zn1044 O1050 1.969 . S
Zn1044 O1051 1.965 . S
Zn1044 O1055 2.024 . S
Zn1044 O1060 1.969 . S
Zn1045 O1052 1.969 . S
Zn1045 O1058 1.969 . S
Zn1045 O1059 1.965 . S
Zn1045 O1061 2.024 . S
C1046 O1047 1.229 . S
C1046 O1055 1.058 . S
O1047 C1046 1.229 . S
C1048 O1049 1.229 . S
C1048 O1061 1.058 . S
O1049 C1048 1.229 . S
O1050 Zn1044 1.969 . S
O1050 C1053 1.267 . S
O1051 Zn1044 1.965 . S
O1051 C1062 1.260 . S
O1052 Zn1045 1.969 . S
O1052 C1062 1.258 . S
C1053 O1050 1.267 . S
C1053 O1054 1.228 . S
O1054 C1053 1.228 . S
O1055 Zn1044 2.024 . S
O1055 C1046 1.058 . S
C1056 O1057 1.228 . S
C1056 O1058 1.267 . S
O1057 C1056 1.228 . S
O1058 Zn1045 1.969 . S
O1058 C1056 1.267 . S
O1059 Zn1045 1.965 . S
O1059 C1063 1.260 . S
O1060 Zn1044 1.969 . S
O1060 C1063 1.258 . S
O1061 Zn1045 2.024 . S
O1061 C1048 1.058 . S
C1062 O1051 1.260 . S
C1062 O1052 1.258 . S
C1063 O1059 1.260 . S
C1063 O1060 1.258 . S
Zn1064 O1070 1.969 . S
Zn1064 O1071 1.965 . S
Zn1064 O1075 2.024 . S
Zn1064 O1080 1.969 . S
Zn1065 O1072 1.969 1_655 S
Zn1065 O1078 1.969 . S
Zn1065 O1079 1.965 1_655 S
Zn1065 O1081 2.024 . S
C1066 O1067 1.229 . S
C1066 O1075 1.058 . S
O1067 C1066 1.229 . S
C1068 O1069 1.229 . S
C1068 O1081 1.058 . S
O1069 C1068 1.229 . S
O1070 Zn1064 1.969 . S
O1070 C1073 1.267 . S
O1071 Zn1064 1.965 . S
O1071 C1082 1.260 . S
O1072 Zn1065 1.969 1_455 S
O1072 C1082 1.258 . S
C1073 O1070 1.267 . S
C1073 O1074 1.228 . S
O1074 C1073 1.228 . S
O1075 Zn1064 2.024 . S
O1075 C1066 1.058 . S
C1076 O1077 1.228 . S
C1076 O1078 1.267 . S
O1077 C1076 1.228 . S
O1078 Zn1065 1.969 . S
O1078 C1076 1.267 . S
O1079 Zn1065 1.965 1_455 S
O1079 C1083 1.260 . S
O1080 Zn1064 1.969 . S
O1080 C1083 1.258 . S
O1081 Zn1065 2.024 . S
O1081 C1068 1.058 . S
C1082 O1071 1.260 . S
C1082 O1072 1.258 . S
C1083 O1079 1.260 . S
C1083 O1080 1.258 . S
Zn1084 O1090 1.969 . S
Zn1084 O1091 1.965 . S
Zn1084 O1095 2.024 . S
Zn1084 O1100 1.969 . S
Zn1085 O1092 1.969 . S
Zn1085 O1098 1.969 . S
Zn1085 O1099 1.965 . S
Zn1085 O1101 2.024 . S
C1086 O1087 1.229 . S
C1086 O1095 1.058 . S
O1087 C1086 1.229 . S
C1088 O1089 1.229 . S
C1088 O1101 1.058 . S
O1089 C1088 1.229 . S
O1090 Zn1084 1.969 . S
O1090 C1093 1.267 . S
O1091 Zn1084 1.965 . S
O1091 C1102 1.260 . S
O1092 Zn1085 1.969 . S
O1092 C1102 1.258 . S
C1093 O1090 1.267 . S
C1093 O1094 1.228 . S
O1094 C1093 1.228 . S
O1095 Zn1084 2.024 . S
O1095 C1086 1.058 . S
C1096 O1097 1.228 . S
C1096 O1098 1.267 . S
O1097 C1096 1.228 . S
O1098 Zn1085 1.969 . S
O1098 C1096 1.267 . S
O1099 Zn1085 1.965 . S
O1099 C1103 1.260 . S
O1100 Zn1084 1.969 . S
O1100 C1103 1.258 . S
O1101 Zn1085 2.024 . S
O1101 C1088 1.058 . S
C1102 O1091 1.260 . S
C1102 O1092 1.258 . S
C1103 O1099 1.260 . S
C1103 O1100 1.258 . S
Zn1104 O1110 1.969 . S
Zn1104 O1111 1.965 . S
Zn1104 O1115 2.024 . S
Zn1104 O1120 1.969 . S
Zn1105 O1112 1.969 . S
Zn1105 O1118 1.969 . S
Zn1105 O1119 1.965 . S
Zn1105 O1121 2.024 . S
C1106 O1107 1.229 . S
C1106 O1115 1.058 . S
O1107 C1106 1.229 . S
C1108 O1109 1.229 . S
C1108 O1121 1.058 . S
O1109 C1108 1.229 . S
O1110 Zn1104 1.969 . S
O1110 C1113 1.267 . S
O1111 Zn1104 1.965 . S
O1111 C1122 1.260 . S
O1112 Zn1105 1.969 . S
O1112 C1122 1.258 . S
C1113 O1110 1.267 . S
C1113 O1114 1.228 . S
O1114 C1113 1.228 . S
O1115 Zn1104 2.024 . S
O1115 C1106 1.058 . S
C1116 O1117 1.228 . S
C1116 O1118 1.267 . S
O1117 C1116 1.228 . S
O1118 Zn1105 1.969 . S
O1118 C1116 1.267 . S
O1119 Zn1105 1.965 . S
O1119 C1123 1.260 . S
O1120 Zn1104 1.969 . S
O1120 C1123 1.258 . S
O1121 Zn1105 2.024 . S
O1121 C1108 1.058 . S
C1122 O1111 1.260 . S
C1122 O1112 1.258 . S
C1123 O1119 1.260 . S
C1123 O1120 1.258 . S
Zn1124 O1130 1.969 . S
Zn1124 O1131 1.965 . S
Zn1124 O1135 2.024 . S
Zn1124 O1140 1.969 . S
Zn1125 O1132 1.969 . S
Zn1125 O1138 1.969 . S
Zn1125 O1139 1.965 . S
Zn1125 O1141 2.024 . S
C1126 O1127 1.229 . S
C1126 O1135 1.058 . S
O1127 C1126 1.229 . S
C1128 O1129 1.229 . S
C1128 O1141 1.058 . S
O1129 C1128 1.229 . S
O1130 Zn1124 1.969 . S
O1130 C1133 1.267 . S
O1131 Zn1124 1.965 . S
O1131 C1142 1.260 . S
O1132 Zn1125 1.969 . S
O1132 C1142 1.258 . S
C1133 O1130 1.267 . S
C1133 O1134 1.228 . S
O1134 C1133 1.228 . S
O1135 Zn1124 2.024 . S
O1135 C1126 1.058 . S
C1136 O1137 1.228 . S
C1136 O1138 1.267 . S
O1137 C1136 1.228 . S
O1138 Zn1125 1.969 . S
O1138 C1136 1.267 . S
O1139 Zn1125 1.965 . S
O1139 C1143 1.260 . S
O1140 Zn1124 1.969 . S
O1140 C1143 1.258 . S
O1141 Zn1125 2.024 . S
O1141 C1128 1.058 . S
C1142 O1131 1.260 . S
C1142 O1132 1.258 . S
C1143 O1139 1.260 . S
C1143 O1140 1.258 . S
Zn1144 O1150 1.969 . S
Zn1144 O1151 1.965 . S
Zn1144 O1155 2.024 . S
Zn1144 O1160 1.969 . S
Zn1145 O1152 1.969 . S
Zn1145 O1158 1.969 . S
Zn1145 O1159 1.965 . S
Zn1145 O1161 2.024 . S
C1146 O1147 1.229 . S
C1146 O1155 1.058 . S
O1147 C1146 1.229 . S
C1148 O1149 1.229 . S
C1148 O1161 1.058 . S
O1149 C1148 1.229 . S
O1150 Zn1144 1.969 . S
O1150 C1153 1.267 . S
O1151 Zn1144 1.965 . S
O1151 C1162 1.260 . S
O1152 Zn1145 1.969 . S
O1152 C1162 1.258 . S
C1153 O1150 1.267 . S
C1153 O1154 1.228 . S
O1154 C1153 1.228 . S
O1155 Zn1144 2.024 . S
O1155 C1146 1.058 . S
C1156 O1157 1.228 . S
C1156 O1158 1.267 . S
O1157 C1156 1.228 . S
O1158 Zn1145 1.969 . S
O1158 C1156 1.267 . S
O1159 Zn1145 1.965 . S
O1159 C1163 1.260 . S
O1160 Zn1144 1.969 . S
O1160 C1163 1.258 . S
O1161 Zn1145 2.024 . S
O1161 C1148 1.058 . S
C1162 O1151 1.260 . S
C1162 O1152 1.258 . S
C1163 O1159 1.260 . S
C1163 O1160 1.258 . S
Zn1164 O1170 1.969 . S
Zn1164 O1171 1.965 . S
Zn1164 O1175 2.024 1_655 S
Zn1164 O1180 1.969 1_655 S
Zn1165 O1172 1.969 1_554 S
Zn1165 O1178 1.975 . S
Zn1165 O1179 1.965 . S
Zn1165 O1181 2.024 . S
C1166 O1167 1.229 . S
C1166 O1175 1.058 . S
O1167 C1166 1.229 . S
C1168 O1169 1.229 . S
C1168 O1181 1.058 1_556 S
O1169 C1168 1.229 . S
O1170 Zn1164 1.969 . S
O1170 C1173 1.267 . S
O1171 Zn1164 1.965 . S
O1171 C1182 1.260 1_654 S
O1172 Zn1165 1.969 1_556 S
O1172 C1182 1.258 . S
C1173 O1170 1.267 . S
C1173 O1174 1.228 . S
O1174 C1173 1.228 . S
O1175 Zn1164 2.024 1_455 S
O1175 C1166 1.058 . S
C1176 O1177 1.228 . S
C1176 O1178 1.276 . S
O1177 C1176 1.228 . S
O1178 Zn1165 1.975 . S
O1178 C1176 1.276 . S
O1179 Zn1165 1.965 . S
O1179 C1183 1.260 . S
O1180 Zn1164 1.969 1_455 S
O1180 C1183 1.258 . S
O1181 Zn1165 2.024 . S
O1181 C1168 1.058 1_554 S
C1182 O1171 1.260 1_456 S
C1182 O1172 1.258 . S
C1183 O1179 1.260 . S
C1183 O1180 1.258 . S
H1184 C1192 0.950 . S
H1185 C1197 0.950 . S
H1186 C1194 0.950 . S
H1187 C1196 0.950 . S
H1188 C1198 0.950 . S
H1189 C1200 0.950 . S
H1190 C1202 0.950 . S
H1191 C1203 0.950 . S
C1192 H1184 0.950 . S
C1192 C1193 1.386 . S
C1192 C1194 1.391 . S
C1193 C1192 1.386 . S
C1193 C1197 1.393 1_655 S
C1194 H1186 0.950 . S
C1194 C1192 1.391 . S
C1194 C1195 1.400 1_655 S
C1195 C1194 1.400 1_455 S
C1195 C1196 1.398 . S
C1195 C1201 1.491 . S
C1196 H1187 0.950 . S
C1196 C1195 1.398 . S
C1196 C1197 1.391 . S
C1197 H1185 0.950 . S
C1197 C1193 1.393 1_455 S
C1197 C1196 1.391 . S
C1198 H1188 0.950 . S
C1198 C1199 1.386 1_554 S
C1198 C1200 1.391 1_554 S
C1199 C1198 1.386 1_556 S
C1199 C1203 1.393 1_455 S
C1200 H1189 0.950 . S
C1200 C1198 1.391 1_556 S
C1200 C1201 1.400 . S
C1201 C1195 1.491 . S
C1201 C1200 1.400 . S
C1201 C1202 1.398 1_455 S
C1202 H1190 0.950 . S
C1202 C1201 1.398 1_655 S
C1202 C1203 1.391 . S
C1203 H1191 0.950 . S
C1203 C1199 1.393 1_655 S
C1203 C1202 1.391 . S
H1204 C1212 0.950 . S
H1205 C1217 0.950 . S
H1206 C1214 0.950 . S
H1207 C1216 0.950 . S
H1208 C1218 0.950 . S
H1209 C1220 0.950 . S
H1210 C1222 0.950 . S
H1211 C1223 0.950 . S
C1212 H1204 0.950 . S
C1212 C1213 1.386 . S
C1212 C1214 1.391 . S
C1213 C1212 1.386 . S
C1213 C1217 1.393 . S
C1214 H1206 0.950 . S
C1214 C1212 1.391 . S
C1214 C1215 1.400 . S
C1215 C1214 1.400 . S
C1215 C1216 1.398 . S
C1215 C1221 1.491 . S
C1216 H1207 0.950 . S
C1216 C1215 1.398 . S
C1216 C1217 1.391 . S
C1217 H1205 0.950 . S
C1217 C1213 1.393 . S
C1217 C1216 1.391 . S
C1218 H1208 0.950 . S
C1218 C1219 1.386 . S
C1218 C1220 1.391 . S
C1219 C1218 1.386 . S
C1219 C1223 1.393 . S
C1220 H1209 0.950 . S
C1220 C1218 1.391 . S
C1220 C1221 1.400 . S
C1221 C1215 1.491 . S
C1221 C1220 1.400 . S
C1221 C1222 1.398 . S
C1222 H1210 0.950 . S
C1222 C1221 1.398 . S
C1222 C1223 1.391 . S
C1223 H1211 0.950 . S
C1223 C1219 1.393 . S
C1223 C1222 1.391 . S
H1224 C1232 0.950 . S
H1225 C1237 0.950 . S
H1226 C1234 0.950 . S
H1227 C1236 0.950 . S
H1228 C1238 0.950 . S
H1229 C1240 0.950 . S
H1230 C1242 0.950 . S
H1231 C1243 0.950 . S
C1232 H1224 0.950 . S
C1232 C1233 1.386 . S
C1232 C1234 1.391 . S
C1233 C1232 1.386 . S
C1233 C1237 1.393 . S
C1234 H1226 0.950 . S
C1234 C1232 1.391 . S
C1234 C1235 1.400 . S
C1235 C1234 1.400 . S
C1235 C1236 1.398 . S
C1235 C1241 1.491 . S
C1236 H1227 0.950 . S
C1236 C1235 1.398 . S
C1236 C1237 1.391 . S
C1237 H1225 0.950 . S
C1237 C1233 1.393 . S
C1237 C1236 1.391 . S
C1238 H1228 0.950 . S
C1238 C1239 1.386 . S
C1238 C1240 1.391 . S
C1239 C1238 1.386 . S
C1239 C1243 1.393 . S
C1240 H1229 0.950 . S
C1240 C1238 1.391 . S
C1240 C1241 1.400 . S
C1241 C1235 1.491 . S
C1241 C1240 1.400 . S
C1241 C1242 1.398 . S
C1242 H1230 0.950 . S
C1242 C1241 1.398 . S
C1242 C1243 1.391 . S
C1243 H1231 0.950 . S
C1243 C1239 1.393 . S
C1243 C1242 1.391 . S
H1244 C1252 0.950 . S
H1245 C1257 0.950 . S
H1246 C1254 0.950 . S
H1247 C1256 0.950 . S
H1248 C1258 0.950 . S
H1249 C1260 0.950 . S
H1250 C1262 0.950 . S
H1251 C1263 0.950 . S
C1252 H1244 0.950 . S
C1252 C1253 1.386 . S
C1252 C1254 1.391 . S
C1253 C1252 1.386 . S
C1253 C1257 1.393 . S
C1254 H1246 0.950 . S
C1254 C1252 1.391 . S
C1254 C1255 1.400 . S
C1255 C1254 1.400 . S
C1255 C1256 1.398 . S
C1255 C1261 1.491 . S
C1256 H1247 0.950 . S
C1256 C1255 1.398 . S
C1256 C1257 1.391 . S
C1257 H1245 0.950 . S
C1257 C1253 1.393 . S
C1257 C1256 1.391 . S
C1258 H1248 0.950 . S
C1258 C1259 1.386 . S
C1258 C1260 1.391 . S
C1259 C1258 1.386 . S
C1259 C1263 1.393 . S
C1260 H1249 0.950 . S
C1260 C1258 1.391 . S
C1260 C1261 1.400 . S
C1261 C1255 1.491 . S
C1261 C1260 1.400 . S
C1261 C1262 1.398 . S
C1262 H1250 0.950 . S
C1262 C1261 1.398 . S
C1262 C1263 1.391 . S
C1263 H1251 0.950 . S
C1263 C1259 1.393 . S
C1263 C1262 1.391 . S
H1264 C1272 0.950 . S
H1265 C1277 0.950 . S
H1266 C1274 0.950 . S
H1267 C1276 0.950 . S
H1268 C1278 0.950 . S
H1269 C1280 0.950 . S
H1270 C1282 0.950 . S
H1271 C1283 0.950 . S
C1272 H1264 0.950 . S
C1272 C1273 1.386 . S
C1272 C1274 1.391 . S
C1273 C1272 1.386 . S
C1273 C1277 1.393 . S
C1274 H1266 0.950 . S
C1274 C1272 1.391 . S
C1274 C1275 1.400 . S
C1275 C1274 1.400 . S
C1275 C1276 1.398 . S
C1275 C1281 1.491 . S
C1276 H1267 0.950 . S
C1276 C1275 1.398 . S
C1276 C1277 1.391 . S
C1277 H1265 0.950 . S
C1277 C1273 1.393 . S
C1277 C1276 1.391 . S
C1278 H1268 0.950 . S
C1278 C1279 1.386 . S
C1278 C1280 1.391 . S
C1279 C1278 1.386 . S
C1279 C1283 1.393 . S
C1280 H1269 0.950 . S
C1280 C1278 1.391 . S
C1280 C1281 1.400 . S
C1281 C1275 1.491 . S
C1281 C1280 1.400 . S
C1281 C1282 1.398 . S
C1282 H1270 0.950 . S
C1282 C1281 1.398 . S
C1282 C1283 1.391 . S
C1283 H1271 0.950 . S
C1283 C1279 1.393 . S
C1283 C1282 1.391 . S
H1284 C1292 0.950 . S
H1285 C1297 0.950 . S
H1286 C1294 0.950 . S
H1287 C1296 0.950 . S
H1288 C1298 0.950 . S
H1289 C1300 0.950 . S
H1290 C1302 0.950 . S
H1291 C1303 0.950 . S
C1292 H1284 0.950 . S
C1292 C1293 1.386 . S
C1292 C1294 1.391 . S
C1293 C1292 1.386 . S
C1293 C1297 1.393 . S
C1294 H1286 0.950 . S
C1294 C1292 1.391 . S
C1294 C1295 1.400 . S
C1295 C1294 1.400 . S
C1295 C1296 1.398 . S
C1295 C1301 1.491 . S
C1296 H1287 0.950 . S
C1296 C1295 1.398 . S
C1296 C1297 1.391 . S
C1297 H1285 0.950 . S
C1297 C1293 1.393 . S
C1297 C1296 1.391 . S
C1298 H1288 0.950 . S
C1298 C1299 1.386 . S
C1298 C1300 1.391 . S
C1299 C1298 1.386 . S
C1299 C1303 1.393 . S
C1300 H1289 0.950 . S
C1300 C1298 1.391 . S
C1300 C1301 1.400 . S
C1301 C1295 1.491 . S
C1301 C1300 1.400 . S
C1301 C1302 1.398 . S
C1302 H1290 0.950 . S
C1302 C1301 1.398 . S
C1302 C1303 1.391 . S
C1303 H1291 0.950 . S
C1303 C1299 1.393 . S
C1303 C1302 1.391 . S
H1304 C1312 0.950 . S
H1305 C1317 0.950 . S
H1306 C1314 0.950 . S
H1307 C1316 0.950 . S
H1308 C1318 0.950 . S
H1309 C1320 0.950 . S
H1310 C1322 0.950 . S
H1311 C1323 0.950 . S
C1312 H1304 0.950 . S
C1312 C1313 1.386 . S
C1312 C1314 1.391 . S
C1313 C1312 1.386 . S
C1313 C1317 1.393 . S
C1314 H1306 0.950 . S
C1314 C1312 1.391 . S
C1314 C1315 1.400 . S
C1315 C1314 1.400 . S
C1315 C1316 1.398 . S
C1315 C1321 1.491 . S
C1316 H1307 0.950 . S
C1316 C1315 1.398 . S
C1316 C1317 1.391 . S
C1317 H1305 0.950 . S
C1317 C1313 1.393 . S
C1317 C1316 1.391 . S
C1318 H1308 0.950 . S
C1318 C1319 1.386 . S
C1318 C1320 1.391 . S
C1319 C1318 1.386 . S
C1319 C1323 1.393 . S
C1320 H1309 0.950 . S
C1320 C1318 1.391 . S
C1320 C1321 1.400 . S
C1321 C1315 1.491 . S
C1321 C1320 1.400 . S
C1321 C1322 1.398 . S
C1322 H1310 0.950 . S
C1322 C1321 1.398 . S
C1322 C1323 1.391 . S
C1323 H1311 0.950 . S
C1323 C1319 1.393 . S
C1323 C1322 1.391 . S
H1324 C1332 0.950 . S
H1325 C1337 0.950 . S
H1326 C1334 0.950 . S
H1327 C1336 0.950 . S
H1328 C1338 0.950 . S
H1329 C1340 0.950 . S
H1330 C1342 0.950 . S
H1331 C1343 0.950 . S
C1332 H1324 0.950 . S
C1332 C1333 1.386 . S
C1332 C1334 1.391 . S
C1333 C1332 1.386 . S
C1333 C1337 1.393 . S
C1334 H1326 0.950 . S
C1334 C1332 1.391 . S
C1334 C1335 1.400 . S
C1335 C1334 1.400 . S
C1335 C1336 1.398 . S
C1335 C1341 1.491 . S
C1336 H1327 0.950 . S
C1336 C1335 1.398 . S
C1336 C1337 1.391 . S
C1337 H1325 0.950 . S
C1337 C1333 1.393 . S
C1337 C1336 1.391 . S
C1338 H1328 0.950 . S
C1338 C1339 1.386 . S
C1338 C1340 1.391 . S
C1339 C1338 1.386 . S
C1339 C1343 1.393 . S
C1340 H1329 0.950 . S
C1340 C1338 1.391 . S
C1340 C1341 1.400 . S
C1341 C1335 1.491 . S
C1341 C1340 1.400 . S
C1341 C1342 1.398 . S
C1342 H1330 0.950 . S
C1342 C1341 1.398 . S
C1342 C1343 1.391 . S
C1343 H1331 0.950 . S
C1343 C1339 1.393 . S
C1343 C1342 1.391 . S
H1344 C1352 0.950 . S
H1345 C1357 0.950 . S
H1346 C1354 0.950 . S
H1347 C1356 0.950 . S
H1348 C1358 0.950 1_455 S
H1349 C1360 0.950 . S
H1350 C1362 0.950 . S
H1351 C1363 0.950 . S
C1352 H1344 0.950 . S
C1352 C1353 1.386 . S
C1352 C1354 1.391 . S
C1353 C1352 1.386 . S
C1353 C1357 1.393 1_545 S
C1354 H1346 0.950 . S
C1354 C1352 1.391 . S
C1354 C1355 1.400 . S
C1355 C1354 1.400 . S
C1355 C1356 1.398 1_545 S
C1355 C1361 1.491 . S
C1356 H1347 0.950 . S
C1356 C1355 1.398 1_565 S
C1356 C1357 1.391 . S
C1357 H1345 0.950 . S
C1357 C1353 1.393 1_565 S
C1357 C1356 1.391 . S
C1358 H1348 0.950 1_655 S
C1358 C1359 1.386 1_565 S
C1358 C1360 1.391 . S
C1359 C1358 1.386 1_545 S
C1359 C1363 1.393 . S
C1360 H1349 0.950 . S
C1360 C1358 1.391 . S
C1360 C1361 1.400 1_565 S
C1361 C1355 1.491 . S
C1361 C1360 1.400 1_545 S
C1361 C1362 1.398 . S
C1362 H1350 0.950 . S
C1362 C1361 1.398 . S
C1362 C1363 1.391 . S
C1363 H1351 0.950 . S
C1363 C1359 1.393 . S
C1363 C1362 1.391 . S
H1364 C1372 0.950 . S
H1365 C1377 0.950 . S
H1366 C1374 0.950 . S
H1367 C1376 0.950 . S
H1368 C1378 0.950 . S
H1369 C1380 0.950 . S
H1370 C1382 0.950 . S
H1371 C1383 0.950 . S
C1372 H1364 0.950 . S
C1372 C1373 1.386 . S
C1372 C1374 1.391 . S
C1373 C1372 1.386 . S
C1373 C1377 1.393 . S
C1374 H1366 0.950 . S
C1374 C1372 1.391 . S
C1374 C1375 1.400 . S
C1375 C1374 1.400 . S
C1375 C1376 1.398 . S
C1375 C1381 1.491 . S
C1376 H1367 0.950 . S
C1376 C1375 1.398 . S
C1376 C1377 1.391 . S
C1377 H1365 0.950 . S
C1377 C1373 1.393 . S
C1377 C1376 1.391 . S
C1378 H1368 0.950 . S
C1378 C1379 1.386 . S
C1378 C1380 1.391 . S
C1379 C1378 1.386 . S
C1379 C1383 1.393 . S
C1380 H1369 0.950 . S
C1380 C1378 1.391 . S
C1380 C1381 1.400 . S
C1381 C1375 1.491 . S
C1381 C1380 1.400 . S
C1381 C1382 1.398 . S
C1382 H1370 0.950 . S
C1382 C1381 1.398 . S
C1382 C1383 1.391 . S
C1383 H1371 0.950 . S
C1383 C1379 1.393 . S
C1383 C1382 1.391 . S
H1384 C1392 0.950 . S
H1385 C1397 0.950 . S
H1386 C1394 0.950 . S
H1387 C1396 0.950 . S
H1388 C1398 0.950 . S
H1389 C1400 0.950 . S
H1390 C1402 0.950 . S
H1391 C1403 0.950 . S
C1392 H1384 0.950 . S
C1392 C1393 1.386 . S
C1392 C1394 1.391 . S
C1393 C1392 1.386 . S
C1393 C1397 1.393 1_565 S
C1394 H1386 0.950 . S
C1394 C1392 1.391 . S
C1394 C1395 1.379 1_565 S
C1395 C1394 1.379 1_545 S
C1395 C1396 1.414 . S
C1395 C1401 1.495 . S
C1396 H1387 0.950 . S
C1396 C1395 1.414 . S
C1396 C1397 1.391 . S
C1397 H1385 0.950 . S
C1397 C1393 1.393 1_545 S
C1397 C1396 1.391 . S
C1398 H1388 0.950 . S
C1398 C1399 1.386 . S
C1398 C1400 1.391 . S
C1399 C1398 1.386 . S
C1399 C1403 1.393 1_545 S
C1400 H1389 0.950 . S
C1400 C1398 1.391 . S
C1400 C1401 1.400 . S
C1401 C1395 1.495 . S
C1401 C1400 1.400 . S
C1401 C1402 1.398 1_545 S
C1402 H1390 0.950 . S
C1402 C1401 1.398 1_565 S
C1402 C1403 1.391 . S
C1403 H1391 0.950 . S
C1403 C1399 1.393 1_565 S
C1403 C1402 1.391 . S
H1404 C1412 0.950 . S
H1405 C1417 0.950 . S
H1406 C1414 0.950 . S
H1407 C1416 0.950 . S
H1408 C1418 0.950 . S
H1409 C1420 0.950 . S
H1410 C1422 0.950 . S
H1411 C1423 0.950 . S
C1412 H1404 0.950 . S
C1412 C1413 1.386 . S
C1412 C1414 1.391 . S
C1413 C1412 1.386 . S
C1413 C1417 1.393 . S
C1414 H1406 0.950 . S
C1414 C1412 1.391 . S
C1414 C1415 1.400 . S
C1415 C1414 1.400 . S
C1415 C1416 1.398 . S
C1415 C1421 1.491 . S
C1416 H1407 0.950 . S
C1416 C1415 1.398 . S
C1416 C1417 1.391 . S
C1417 H1405 0.950 . S
C1417 C1413 1.393 . S
C1417 C1416 1.391 . S
C1418 H1408 0.950 . S
C1418 C1419 1.386 . S
C1418 C1420 1.391 . S
C1419 C1418 1.386 . S
C1419 C1423 1.393 . S
C1420 H1409 0.950 . S
C1420 C1418 1.391 . S
C1420 C1421 1.400 . S
C1421 C1415 1.491 . S
C1421 C1420 1.400 . S
C1421 C1422 1.398 . S
C1422 H1410 0.950 . S
C1422 C1421 1.398 . S
C1422 C1423 1.391 . S
C1423 H1411 0.950 . S
C1423 C1419 1.393 . S
C1423 C1422 1.391 . S
H1424 C1432 0.950 . S
H1425 C1437 0.950 . S
H1426 C1434 0.950 . S
H1427 C1436 0.950 . S
H1428 C1438 0.950 . S
H1429 C1440 0.950 . S
H1430 C1442 0.950 . S
H1431 C1443 0.950 . S
C1432 H1424 0.950 . S
C1432 C1433 1.386 . S
C1432 C1434 1.391 . S
C1433 C1432 1.386 . S
C1433 C1437 1.393 1_545 S
C1434 H1426 0.950 . S
C1434 C1432 1.391 . S
C1434 C1435 1.400 . S
C1435 C1434 1.400 . S
C1435 C1436 1.398 1_545 S
C1435 C1441 1.491 . S
C1436 H1427 0.950 . S
C1436 C1435 1.398 1_565 S
C1436 C1437 1.391 . S
C1437 H1425 0.950 . S
C1437 C1433 1.393 1_565 S
C1437 C1436 1.391 . S
C1438 H1428 0.950 . S
C1438 C1439 1.386 1_565 S
C1438 C1440 1.391 . S
C1439 C1438 1.386 1_545 S
C1439 C1443 1.393 . S
C1440 H1429 0.950 . S
C1440 C1438 1.391 . S
C1440 C1441 1.400 1_565 S
C1441 C1435 1.491 . S
C1441 C1440 1.400 1_545 S
C1441 C1442 1.398 . S
C1442 H1430 0.950 . S
C1442 C1441 1.398 . S
C1442 C1443 1.391 . S
C1443 H1431 0.950 . S
C1443 C1439 1.393 . S
C1443 C1442 1.391 . S
H1444 C1452 0.950 . S
H1445 C1457 0.950 . S
H1446 C1454 0.950 . S
H1447 C1456 0.950 . S
H1448 C1458 0.950 . S
H1449 C1460 0.950 . S
H1450 C1462 0.950 . S
H1451 C1463 0.950 . S
C1452 H1444 0.950 . S
C1452 C1453 1.386 . S
C1452 C1454 1.391 . S
C1453 C1452 1.386 . S
C1453 C1457 1.393 . S
C1454 H1446 0.950 . S
C1454 C1452 1.391 . S
C1454 C1455 1.400 . S
C1455 C1454 1.400 . S
C1455 C1456 1.398 . S
C1455 C1461 1.491 . S
C1456 H1447 0.950 . S
C1456 C1455 1.398 . S
C1456 C1457 1.391 . S
C1457 H1445 0.950 . S
C1457 C1453 1.393 . S
C1457 C1456 1.391 . S
C1458 H1448 0.950 . S
C1458 C1459 1.386 . S
C1458 C1460 1.391 . S
C1459 C1458 1.386 . S
C1459 C1463 1.393 . S
C1460 H1449 0.950 . S
C1460 C1458 1.391 . S
C1460 C1461 1.400 . S
C1461 C1455 1.491 . S
C1461 C1460 1.400 . S
C1461 C1462 1.398 . S
C1462 H1450 0.950 . S
C1462 C1461 1.398 . S
C1462 C1463 1.391 . S
C1463 H1451 0.950 . S
C1463 C1459 1.393 . S
C1463 C1462 1.391 . S
H1464 C1472 0.950 . S
H1465 C1477 0.950 . S
H1466 C1474 0.950 . S
H1467 C1476 0.950 . S
H1468 C1478 0.950 . S
H1469 C1480 0.950 . S
H1470 C1482 0.950 1_565 S
H1471 C1483 0.950 . S
C1472 H1464 0.950 . S
C1472 C1473 1.386 1_565 S
C1472 C1474 1.391 . S
C1473 C1472 1.386 1_545 S
C1473 C1477 1.393 . S
C1474 H1466 0.950 . S
C1474 C1472 1.391 . S
C1474 C1475 1.400 1_565 S
C1475 C1474 1.400 1_545 S
C1475 C1476 1.398 . S
C1475 C1481 1.491 . S
C1476 H1467 0.950 . S
C1476 C1475 1.398 . S
C1476 C1477 1.391 . S
C1477 H1465 0.950 . S
C1477 C1473 1.393 . S
C1477 C1476 1.391 . S
C1478 H1468 0.950 . S
C1478 C1479 1.386 . S
C1478 C1480 1.391 . S
C1479 C1478 1.386 . S
C1479 C1483 1.393 . S
C1480 H1469 0.950 . S
C1480 C1478 1.391 . S
C1480 C1481 1.400 . S
C1481 C1475 1.491 . S
C1481 C1480 1.400 . S
C1481 C1482 1.398 . S
C1482 H1470 0.950 1_545 S
C1482 C1481 1.398 . S
C1482 C1483 1.391 . S
C1483 H1471 0.950 . S
C1483 C1479 1.393 . S
C1483 C1482 1.391 . S
H1484 C1492 0.950 . S
H1485 C1497 0.950 . S
H1486 C1494 0.950 . S
H1487 C1496 0.950 . S
H1488 C1498 0.950 . S
H1489 C1500 0.950 . S
H1490 C1502 0.950 . S
H1491 C1503 0.950 . S
C1492 H1484 0.950 . S
C1492 C1493 1.386 . S
C1492 C1494 1.391 . S
C1493 C1492 1.386 . S
C1493 C1497 1.393 . S
C1494 H1486 0.950 . S
C1494 C1492 1.391 . S
C1494 C1495 1.400 . S
C1495 C1494 1.400 . S
C1495 C1496 1.398 . S
C1495 C1501 1.491 . S
C1496 H1487 0.950 . S
C1496 C1495 1.398 . S
C1496 C1497 1.391 . S
C1497 H1485 0.950 . S
C1497 C1493 1.393 . S
C1497 C1496 1.391 . S
C1498 H1488 0.950 . S
C1498 C1499 1.386 . S
C1498 C1500 1.391 . S
C1499 C1498 1.386 . S
C1499 C1503 1.393 . S
C1500 H1489 0.950 . S
C1500 C1498 1.391 . S
C1500 C1501 1.400 . S
C1501 C1495 1.491 . S
C1501 C1500 1.400 . S
C1501 C1502 1.398 . S
C1502 H1490 0.950 . S
C1502 C1501 1.398 . S
C1502 C1503 1.391 . S
C1503 H1491 0.950 . S
C1503 C1499 1.393 . S
C1503 C1502 1.391 . S
H1504 C1512 0.950 . S
H1505 C1517 0.950 . S
H1506 C1514 0.950 . S
H1507 C1516 0.950 1_556 S
H1508 C1518 0.946 . S
H1509 C1520 0.950 1_556 S
H1510 C1522 0.950 . S
H1511 C1523 0.950 . S
C1512 H1504 0.950 . S
C1512 C1513 1.386 . S
C1512 C1514 1.391 . S
C1513 C1512 1.386 . S
C1513 C1517 1.393 1_554 S
C1514 H1506 0.950 . S
C1514 C1512 1.391 . S
C1514 C1515 1.400 . S
C1515 C1514 1.400 . S
C1515 C1516 1.398 . S
C1515 C1521 1.491 . S
C1516 H1507 0.950 1_554 S
C1516 C1515 1.398 . S
C1516 C1517 1.391 1_554 S
C1517 H1505 0.950 . S
C1517 C1513 1.393 1_556 S
C1517 C1516 1.391 1_556 S
C1518 H1508 0.946 . S
C1518 C1519 1.386 . S
C1518 C1520 1.391 . S
C1519 C1518 1.386 . S
C1519 C1523 1.393 . S
C1520 H1509 0.950 1_554 S
C1520 C1518 1.391 . S
C1520 C1521 1.400 . S
C1521 C1515 1.491 . S
C1521 C1520 1.400 . S
C1521 C1522 1.398 . S
C1522 H1510 0.950 . S
C1522 C1521 1.398 . S
C1522 C1523 1.391 . S
C1523 H1511 0.950 . S
C1523 C1519 1.393 . S
C1523 C1522 1.391 . S
H1524 C1532 0.950 . S
H1525 C1537 0.950 . S
H1526 C1534 0.950 . S
H1527 C1536 0.950 . S
H1528 C1538 0.950 . S
H1529 C1540 0.950 . S
H1530 C1542 0.950 . S
H1531 C1543 0.950 . S
C1532 H1524 0.950 . S
C1532 C1533 1.386 . S
C1532 C1534 1.391 . S
C1533 C1532 1.386 . S
C1533 C1537 1.393 1_556 S
C1534 H1526 0.950 . S
C1534 C1532 1.391 . S
C1534 C1535 1.400 1_556 S
C1535 C1534 1.400 1_554 S
C1535 C1536 1.398 . S
C1535 C1541 1.491 . S
C1536 H1527 0.950 . S
C1536 C1535 1.398 . S
C1536 C1537 1.391 . S
C1537 H1525 0.950 . S
C1537 C1533 1.393 1_554 S
C1537 C1536 1.391 . S
C1538 H1528 0.950 . S
C1538 C1539 1.386 . S
C1538 C1540 1.391 . S
C1539 C1538 1.386 . S
C1539 C1543 1.393 1_554 S
C1540 H1529 0.950 . S
C1540 C1538 1.391 . S
C1540 C1541 1.400 . S
C1541 C1535 1.491 . S
C1541 C1540 1.400 . S
C1541 C1542 1.398 1_554 S
C1542 H1530 0.950 . S
C1542 C1541 1.398 1_556 S
C1542 C1543 1.391 . S
C1543 H1531 0.950 . S
C1543 C1539 1.393 1_556 S
C1543 C1542 1.391 . S
H1544 C1552 0.950 . S
H1545 C1557 0.950 . S
H1546 C1554 0.950 . S
H1547 C1556 0.950 . S
H1548 C1558 0.950 . S
H1549 C1560 0.950 . S
H1550 C1562 0.950 . S
H1551 C1563 0.950 . S
C1552 H1544 0.950 . S
C1552 C1553 1.386 . S
C1552 C1554 1.391 . S
C1553 C1552 1.386 . S
C1553 C1557 1.393 . S
C1554 H1546 0.950 . S
C1554 C1552 1.391 . S
C1554 C1555 1.400 . S
C1555 C1554 1.400 . S
C1555 C1556 1.398 . S
C1555 C1561 1.491 . S
C1556 H1547 0.950 . S
C1556 C1555 1.398 . S
C1556 C1557 1.391 . S
C1557 H1545 0.950 . S
C1557 C1553 1.393 . S
C1557 C1556 1.391 . S
C1558 H1548 0.950 . S
C1558 C1559 1.386 . S
C1558 C1560 1.391 . S
C1559 C1558 1.386 . S
C1559 C1563 1.393 . S
C1560 H1549 0.950 . S
C1560 C1558 1.391 . S
C1560 C1561 1.400 . S
C1561 C1555 1.491 . S
C1561 C1560 1.400 . S
C1561 C1562 1.398 . S
C1562 H1550 0.950 . S
C1562 C1561 1.398 . S
C1562 C1563 1.391 . S
C1563 H1551 0.950 . S
C1563 C1559 1.393 . S
C1563 C1562 1.391 . S
H1564 C1572 0.950 . S
H1565 C1577 0.950 . S
H1566 C1574 0.950 . S
H1567 C1576 0.950 . S
H1568 C1578 0.950 . S
H1569 C1580 0.950 . S
H1570 C1582 0.950 . S
H1571 C1583 0.950 . S
C1572 H1564 0.950 . S
C1572 C1573 1.386 . S
C1572 C1574 1.391 . S
C1573 C1572 1.386 . S
C1573 C1577 1.393 . S
C1574 H1566 0.950 . S
C1574 C1572 1.391 . S
C1574 C1575 1.400 . S
C1575 C1574 1.400 . S
C1575 C1576 1.398 . S
C1575 C1581 1.491 . S
C1576 H1567 0.950 . S
C1576 C1575 1.398 . S
C1576 C1577 1.391 . S
C1577 H1565 0.950 . S
C1577 C1573 1.393 . S
C1577 C1576 1.391 . S
C1578 H1568 0.950 . S
C1578 C1579 1.386 . S
C1578 C1580 1.391 . S
C1579 C1578 1.386 . S
C1579 C1583 1.393 . S
C1580 H1569 0.950 . S
C1580 C1578 1.391 . S
C1580 C1581 1.400 . S
C1581 C1575 1.491 . S
C1581 C1580 1.400 . S
C1581 C1582 1.398 . S
C1582 H1570 0.950 . S
C1582 C1581 1.398 . S
C1582 C1583 1.391 . S
C1583 H1571 0.950 . S
C1583 C1579 1.393 . S
C1583 C1582 1.391 . S
H1584 C1592 0.950 . S
H1585 C1597 0.950 . S
H1586 C1594 0.950 . S
H1587 C1596 0.950 . S
H1588 C1598 0.950 . S
H1589 C1600 0.950 . S
H1590 C1602 0.950 . S
H1591 C1603 0.950 . S
C1592 H1584 0.950 . S
C1592 C1593 1.386 . S
C1592 C1594 1.391 . S
C1593 C1592 1.386 . S
C1593 C1597 1.393 . S
C1594 H1586 0.950 . S
C1594 C1592 1.391 . S
C1594 C1595 1.400 . S
C1595 C1594 1.400 . S
C1595 C1596 1.398 . S
C1595 C1601 1.491 . S
C1596 H1587 0.950 . S
C1596 C1595 1.398 . S
C1596 C1597 1.391 . S
C1597 H1585 0.950 . S
C1597 C1593 1.393 . S
C1597 C1596 1.391 . S
C1598 H1588 0.950 . S
C1598 C1599 1.386 . S
C1598 C1600 1.391 . S
C1599 C1598 1.386 . S
C1599 C1603 1.393 . S
C1600 H1589 0.950 . S
C1600 C1598 1.391 . S
C1600 C1601 1.400 . S
C1601 C1595 1.491 . S
C1601 C1600 1.400 . S
C1601 C1602 1.398 . S
C1602 H1590 0.950 . S
C1602 C1601 1.398 . S
C1602 C1603 1.391 . S
C1603 H1591 0.950 . S
C1603 C1599 1.393 . S
C1603 C1602 1.391 . S
H1604 C1612 0.950 . S
H1605 C1617 0.950 . S
H1606 C1614 0.950 . S
H1607 C1616 0.950 . S
H1608 C1618 0.950 . S
H1609 C1620 0.950 . S
H1610 C1622 0.950 . S
H1611 C1623 0.950 . S
C1612 H1604 0.950 . S
C1612 C1613 1.386 . S
C1612 C1614 1.391 . S
C1613 C1612 1.386 . S
C1613 C1617 1.393 . S
C1614 H1606 0.950 . S
C1614 C1612 1.391 . S
C1614 C1615 1.400 . S
C1615 C1614 1.400 . S
C1615 C1616 1.398 . S
C1615 C1621 1.491 . S
C1616 H1607 0.950 . S
C1616 C1615 1.398 . S
C1616 C1617 1.391 . S
C1617 H1605 0.950 . S
C1617 C1613 1.393 . S
C1617 C1616 1.391 . S
C1618 H1608 0.950 . S
C1618 C1619 1.386 . S
C1618 C1620 1.391 . S
C1619 C1618 1.386 . S
C1619 C1623 1.393 . S
C1620 H1609 0.950 . S
C1620 C1618 1.391 . S
C1620 C1621 1.400 . S
C1621 C1615 1.491 . S
C1621 C1620 1.400 . S
C1621 C1622 1.398 . S
C1622 H1610 0.950 . S
C1622 C1621 1.398 . S
C1622 C1623 1.391 . S
C1623 H1611 0.950 . S
C1623 C1619 1.393 . S
C1623 C1622 1.391 . S
H1624 C1632 0.950 . S
H1625 C1637 0.950 . S
H1626 C1634 0.950 . S
H1627 C1636 0.950 . S
H1628 C1638 0.950 . S
H1629 C1640 0.950 . S
H1630 C1642 0.950 . S
H1631 C1643 0.950 . S
C1632 H1624 0.950 . S
C1632 C1633 1.386 . S
C1632 C1634 1.391 . S
C1633 C1632 1.386 . S
C1633 C1637 1.393 . S
C1634 H1626 0.950 . S
C1634 C1632 1.391 . S
C1634 C1635 1.400 . S
C1635 C1634 1.400 . S
C1635 C1636 1.398 . S
C1635 C1641 1.491 . S
C1636 H1627 0.950 . S
C1636 C1635 1.398 . S
C1636 C1637 1.391 . S
C1637 H1625 0.950 . S
C1637 C1633 1.393 . S
C1637 C1636 1.391 . S
C1638 H1628 0.950 . S
C1638 C1639 1.386 . S
C1638 C1640 1.391 . S
C1639 C1638 1.386 . S
C1639 C1643 1.393 . S
C1640 H1629 0.950 . S
C1640 C1638 1.391 . S
C1640 C1641 1.400 . S
C1641 C1635 1.491 . S
C1641 C1640 1.400 . S
C1641 C1642 1.398 . S
C1642 H1630 0.950 . S
C1642 C1641 1.398 . S
C1642 C1643 1.391 . S
C1643 H1631 0.950 . S
C1643 C1639 1.393 . S
C1643 C1642 1.391 . S
H1644 C1652 0.950 . S
H1645 C1657 0.950 . S
H1646 C1654 0.950 . S
H1647 C1656 0.950 . S
H1648 C1658 0.950 . S
H1649 C1660 0.950 . S
H1650 C1662 0.950 . S
H1651 C1663 0.950 . S
C1652 H1644 0.950 . S
C1652 C1653 1.386 . S
C1652 C1654 1.391 . S
C1653 C1652 1.386 . S
C1653 C1657 1.393 . S
C1654 H1646 0.950 . S
C1654 C1652 1.391 . S
C1654 C1655 1.400 . S
C1655 C1654 1.400 . S
C1655 C1656 1.398 . S
C1655 C1661 1.491 . S
C1656 H1647 0.950 . S
C1656 C1655 1.398 . S
C1656 C1657 1.391 . S
C1657 H1645 0.950 . S
C1657 C1653 1.393 . S
C1657 C1656 1.391 . S
C1658 H1648 0.950 . S
C1658 C1659 1.386 . S
C1658 C1660 1.391 . S
C1659 C1658 1.386 . S
C1659 C1663 1.393 . S
C1660 H1649 0.950 . S
C1660 C1658 1.391 . S
C1660 C1661 1.400 . S
C1661 C1655 1.491 . S
C1661 C1660 1.400 . S
C1661 C1662 1.398 . S
C1662 H1650 0.950 . S
C1662 C1661 1.398 . S
C1662 C1663 1.391 . S
C1663 H1651 0.950 . S
C1663 C1659 1.393 . S
C1663 C1662 1.391 . S
H1664 C1672 0.950 . S
H1665 C1677 0.950 . S
H1666 C1674 0.950 . S
H1667 C1676 0.950 . S
H1668 C1678 0.950 . S
H1669 C1680 0.950 . S
H1670 C1682 0.950 . S
H1671 C1683 0.950 . S
C1672 H1664 0.950 . S
C1672 C1673 1.386 . S
C1672 C1674 1.391 . S
C1673 C1672 1.386 . S
C1673 C1677 1.393 . S
C1674 H1666 0.950 . S
C1674 C1672 1.391 . S
C1674 C1675 1.400 . S
C1675 C1674 1.400 . S
C1675 C1676 1.398 . S
C1675 C1681 1.491 . S
C1676 H1667 0.950 . S
C1676 C1675 1.398 . S
C1676 C1677 1.391 . S
C1677 H1665 0.950 . S
C1677 C1673 1.393 . S
C1677 C1676 1.391 . S
C1678 H1668 0.950 . S
C1678 C1679 1.386 . S
C1678 C1680 1.391 . S
C1679 C1678 1.386 . S
C1679 C1683 1.393 . S
C1680 H1669 0.950 . S
C1680 C1678 1.391 . S
C1680 C1681 1.400 . S
C1681 C1675 1.491 . S
C1681 C1680 1.400 . S
C1681 C1682 1.398 . S
C1682 H1670 0.950 . S
C1682 C1681 1.398 . S
C1682 C1683 1.391 . S
C1683 H1671 0.950 . S
C1683 C1679 1.393 . S
C1683 C1682 1.391 . S
H1684 C1692 0.950 . S
H1685 C1697 0.950 . S
H1686 C1694 0.950 . S
H1687 C1696 0.950 . S
H1688 C1698 0.950 . S
H1689 C1700 0.950 . S
H1690 C1702 0.950 . S
H1691 C1703 0.950 . S
C1692 H1684 0.950 . S
C1692 C1693 1.386 . S
C1692 C1694 1.391 . S
C1693 C1692 1.386 . S
C1693 C1697 1.393 . S
C1694 H1686 0.950 . S
C1694 C1692 1.391 . S
C1694 C1695 1.400 . S
C1695 C1694 1.400 . S
C1695 C1696 1.398 . S
C1695 C1701 1.491 . S
C1696 H1687 0.950 . S
C1696 C1695 1.398 . S
C1696 C1697 1.391 . S
C1697 H1685 0.950 . S
C1697 C1693 1.393 . S
C1697 C1696 1.391 . S
C1698 H1688 0.950 . S
C1698 C1699 1.386 . S
C1698 C1700 1.391 . S
C1699 C1698 1.386 . S
C1699 C1703 1.393 . S
C1700 H1689 0.950 . S
C1700 C1698 1.391 . S
C1700 C1701 1.400 . S
C1701 C1695 1.491 . S
C1701 C1700 1.400 . S
C1701 C1702 1.398 . S
C1702 H1690 0.950 . S
C1702 C1701 1.398 . S
C1702 C1703 1.391 . S
C1703 H1691 0.950 . S
C1703 C1699 1.393 . S
C1703 C1702 1.391 . S
H1704 C1712 0.950 . S
H1705 C1717 0.950 . S
H1706 C1714 0.950 . S
H1707 C1716 0.950 . S
H1708 C1718 0.950 . S
H1709 C1720 0.950 . S
H1710 C1722 0.950 . S
H1711 C1723 0.950 . S
C1712 H1704 0.950 . S
C1712 C1713 1.386 . S
C1712 C1714 1.391 . S
C1713 C1712 1.386 . S
C1713 C1717 1.393 . S
C1714 H1706 0.950 . S
C1714 C1712 1.391 . S
C1714 C1715 1.400 . S
C1715 C1714 1.400 . S
C1715 C1716 1.398 . S
C1715 C1721 1.491 . S
C1716 H1707 0.950 . S
C1716 C1715 1.398 . S
C1716 C1717 1.391 . S
C1717 H1705 0.950 . S
C1717 C1713 1.393 . S
C1717 C1716 1.391 . S
C1718 H1708 0.950 . S
C1718 C1719 1.386 . S
C1718 C1720 1.391 . S
C1719 C1718 1.386 . S
C1719 C1723 1.393 . S
C1720 H1709 0.950 . S
C1720 C1718 1.391 . S
C1720 C1721 1.400 . S
C1721 C1715 1.491 . S
C1721 C1720 1.400 . S
C1721 C1722 1.398 . S
C1722 H1710 0.950 . S
C1722 C1721 1.398 . S
C1722 C1723 1.391 . S
C1723 H1711 0.950 . S
C1723 C1719 1.393 . S
C1723 C1722 1.391 . S
H1724 C1732 0.950 . S
H1725 C1737 0.950 . S
H1726 C1734 0.950 . S
H1727 C1736 0.950 . S
H1728 C1738 0.950 . S
H1729 C1740 0.950 . S
H1730 C1742 0.950 . S
H1731 C1743 0.950 . S
C1732 H1724 0.950 . S
C1732 C1733 1.386 . S
C1732 C1734 1.391 . S
C1733 C1732 1.386 . S
C1733 C1737 1.393 . S
C1734 H1726 0.950 . S
C1734 C1732 1.391 . S
C1734 C1735 1.400 . S
C1735 C1734 1.400 . S
C1735 C1736 1.398 . S
C1735 C1741 1.491 . S
C1736 H1727 0.950 . S
C1736 C1735 1.398 . S
C1736 C1737 1.391 . S
C1737 H1725 0.950 . S
C1737 C1733 1.393 . S
C1737 C1736 1.391 . S
C1738 H1728 0.950 . S
C1738 C1739 1.386 . S
C1738 C1740 1.391 . S
C1739 C1738 1.386 . S
C1739 C1743 1.393 . S
C1740 H1729 0.950 . S
C1740 C1738 1.391 . S
C1740 C1741 1.400 . S
C1741 C1735 1.491 . S
C1741 C1740 1.400 . S
C1741 C1742 1.398 . S
C1742 H1730 0.950 . S
C1742 C1741 1.398 . S
C1742 C1743 1.391 . S
C1743 H1731 0.950 . S
C1743 C1739 1.393 . S
C1743 C1742 1.391 . S
H1744 C1752 0.950 . S
H1745 C1757 0.950 . S
H1746 C1754 0.950 . S
H1747 C1756 0.950 . S
H1748 C1758 0.950 . S
H1749 C1760 0.950 . S
H1750 C1762 0.950 . S
H1751 C1763 0.950 . S
C1752 H1744 0.950 . S
C1752 C1753 1.386 . S
C1752 C1754 1.391 . S
C1753 C1752 1.386 . S
C1753 C1757 1.393 . S
C1754 H1746 0.950 . S
C1754 C1752 1.391 . S
C1754 C1755 1.400 . S
C1755 C1754 1.400 . S
C1755 C1756 1.398 . S
C1755 C1761 1.491 . S
C1756 H1747 0.950 . S
C1756 C1755 1.398 . S
C1756 C1757 1.391 . S
C1757 H1745 0.950 . S
C1757 C1753 1.393 . S
C1757 C1756 1.391 . S
C1758 H1748 0.950 . S
C1758 C1759 1.386 . S
C1758 C1760 1.391 . S
C1759 C1758 1.386 . S
C1759 C1763 1.393 . S
C1760 H1749 0.950 . S
C1760 C1758 1.391 . S
C1760 C1761 1.400 . S
C1761 C1755 1.491 . S
C1761 C1760 1.400 . S
C1761 C1762 1.398 . S
C1762 H1750 0.950 . S
C1762 C1761 1.398 . S
C1762 C1763 1.391 . S
C1763 H1751 0.950 . S
C1763 C1759 1.393 . S
C1763 C1762 1.391 . S
H1764 C1772 0.950 . S
H1765 C1777 0.950 . S
H1766 C1774 0.950 . S
H1767 C1776 0.950 . S
H1768 C1778 0.950 . S
H1769 C1780 0.950 . S
H1770 C1782 0.950 . S
H1771 C1783 0.950 . S
C1772 H1764 0.950 . S
C1772 C1773 1.386 . S
C1772 C1774 1.391 . S
C1773 C1772 1.386 . S
C1773 C1777 1.393 . S
C1774 H1766 0.950 . S
C1774 C1772 1.391 . S
C1774 C1775 1.400 . S
C1775 C1774 1.400 . S
C1775 C1776 1.398 . S
C1775 C1781 1.491 . S
C1776 H1767 0.950 . S
C1776 C1775 1.398 . S
C1776 C1777 1.391 . S
C1777 H1765 0.950 . S
C1777 C1773 1.393 . S
C1777 C1776 1.391 . S
C1778 H1768 0.950 . S
C1778 C1779 1.386 . S
C1778 C1780 1.391 . S
C1779 C1778 1.386 . S
C1779 C1783 1.393 . S
C1780 H1769 0.950 . S
C1780 C1778 1.391 . S
C1780 C1781 1.400 . S
C1781 C1775 1.491 . S
C1781 C1780 1.400 . S
C1781 C1782 1.398 . S
C1782 H1770 0.950 . S
C1782 C1781 1.398 . S
C1782 C1783 1.391 . S
C1783 H1771 0.950 . S
C1783 C1779 1.393 . S
C1783 C1782 1.391 . S
H1784 C1792 0.950 . S
H1785 C1797 0.950 . S
H1786 C1794 0.950 . S
H1787 C1796 0.950 . S
H1788 C1798 0.950 . S
H1789 C1800 0.950 1_554 S
H1790 C1802 0.950 . S
H1791 C1803 0.950 . S
C1792 H1784 0.950 . S
C1792 C1793 1.386 . S
C1792 C1794 1.391 . S
C1793 C1792 1.386 . S
C1793 C1797 1.393 . S
C1794 H1786 0.950 . S
C1794 C1792 1.391 . S
C1794 C1795 1.400 . S
C1795 C1794 1.400 . S
C1795 C1796 1.398 . S
C1795 C1801 1.491 . S
C1796 H1787 0.950 . S
C1796 C1795 1.398 . S
C1796 C1797 1.391 . S
C1797 H1785 0.950 . S
C1797 C1793 1.393 . S
C1797 C1796 1.391 . S
C1798 H1788 0.950 . S
C1798 C1799 1.372 1_554 S
C1798 C1800 1.391 1_554 S
C1799 C1798 1.372 1_556 S
C1799 C1803 1.419 . S
C1800 H1789 0.950 1_556 S
C1800 C1798 1.391 1_556 S
C1800 C1801 1.400 . S
C1801 C1795 1.491 . S
C1801 C1800 1.400 . S
C1801 C1802 1.398 . S
C1802 H1790 0.950 . S
C1802 C1801 1.398 . S
C1802 C1803 1.391 . S
C1803 H1791 0.950 . S
C1803 C1799 1.419 . S
C1803 C1802 1.391 . S
H1804 C1812 0.950 . S
H1805 C1817 0.950 . S
H1806 C1814 0.950 . S
H1807 C1816 0.950 . S
H1808 C1818 0.950 . S
H1809 C1820 0.950 . S
H1810 C1822 0.950 . S
H1811 C1823 0.950 . S
C1812 H1804 0.950 . S
C1812 C1813 1.386 . S
C1812 C1814 1.391 . S
C1813 C1812 1.386 . S
C1813 C1817 1.393 . S
C1814 H1806 0.950 . S
C1814 C1812 1.391 . S
C1814 C1815 1.400 . S
C1815 C1814 1.400 . S
C1815 C1816 1.398 . S
C1815 C1821 1.491 . S
C1816 H1807 0.950 . S
C1816 C1815 1.398 . S
C1816 C1817 1.391 . S
C1817 H1805 0.950 . S
C1817 C1813 1.393 . S
C1817 C1816 1.391 . S
C1818 H1808 0.950 . S
C1818 C1819 1.386 . S
C1818 C1820 1.391 . S
C1819 C1818 1.386 . S
C1819 C1823 1.393 . S
C1820 H1809 0.950 . S
C1820 C1818 1.391 . S
C1820 C1821 1.400 . S
C1821 C1815 1.491 . S
C1821 C1820 1.400 . S
C1821 C1822 1.398 . S
C1822 H1810 0.950 . S
C1822 C1821 1.398 . S
C1822 C1823 1.391 . S
C1823 H1811 0.950 . S
C1823 C1819 1.393 . S
C1823 C1822 1.391 . S
H1824 C1832 0.950 . S
H1825 C1837 0.950 . S
H1826 C1834 0.950 . S
H1827 C1836 0.950 . S
H1828 C1838 0.950 . S
H1829 C1840 0.950 . S
H1830 C1842 0.950 . S
H1831 C1843 0.950 . S
C1832 H1824 0.950 . S
C1832 C1833 1.386 1_565 S
C1832 C1834 1.391 . S
C1833 C1832 1.386 1_545 S
C1833 C1837 1.393 . S
C1834 H1826 0.950 . S
C1834 C1832 1.391 . S
C1834 C1835 1.400 . S
C1835 C1834 1.400 . S
C1835 C1836 1.398 1_565 S
C1835 C1841 1.491 . S
C1836 H1827 0.950 . S
C1836 C1835 1.398 1_545 S
C1836 C1837 1.391 . S
C1837 H1825 0.950 . S
C1837 C1833 1.393 . S
C1837 C1836 1.391 . S
C1838 H1828 0.950 . S
C1838 C1839 1.386 1_545 S
C1838 C1840 1.391 . S
C1839 C1838 1.386 1_565 S
C1839 C1843 1.393 . S
C1840 H1829 0.950 . S
C1840 C1838 1.391 . S
C1840 C1841 1.400 1_545 S
C1841 C1835 1.491 . S
C1841 C1840 1.400 1_565 S
C1841 C1842 1.398 . S
C1842 H1830 0.950 . S
C1842 C1841 1.398 . S
C1842 C1843 1.391 . S
C1843 H1831 0.950 . S
C1843 C1839 1.393 . S
C1843 C1842 1.391 . S
H1844 C1852 0.950 . S
H1845 C1857 0.950 . S
H1846 C1854 0.950 . S
H1847 C1856 0.950 . S
H1848 C1858 0.950 . S
H1849 C1860 0.950 . S
H1850 C1862 0.950 . S
H1851 C1863 0.950 . S
C1852 H1844 0.950 . S
C1852 C1853 1.386 . S
C1852 C1854 1.391 . S
C1853 C1852 1.386 . S
C1853 C1857 1.393 . S
C1854 H1846 0.950 . S
C1854 C1852 1.391 . S
C1854 C1855 1.400 . S
C1855 C1854 1.400 . S
C1855 C1856 1.398 . S
C1855 C1861 1.491 . S
C1856 H1847 0.950 . S
C1856 C1855 1.398 . S
C1856 C1857 1.391 . S
C1857 H1845 0.950 . S
C1857 C1853 1.393 . S
C1857 C1856 1.391 . S
C1858 H1848 0.950 . S
C1858 C1859 1.386 . S
C1858 C1860 1.391 . S
C1859 C1858 1.386 . S
C1859 C1863 1.393 . S
C1860 H1849 0.950 . S
C1860 C1858 1.391 . S
C1860 C1861 1.400 . S
C1861 C1855 1.491 . S
C1861 C1860 1.400 . S
C1861 C1862 1.398 . S
C1862 H1850 0.950 . S
C1862 C1861 1.398 . S
C1862 C1863 1.391 . S
C1863 H1851 0.950 . S
C1863 C1859 1.393 . S
C1863 C1862 1.391 . S
H1864 C1872 0.950 1_565 S
H1865 C1877 0.950 . S
H1866 C1874 0.950 1_565 S
H1867 C1876 0.950 . S
H1868 C1878 0.950 . S
H1869 C1880 0.950 . S
H1870 C1882 0.950 1_565 S
H1871 C1883 0.950 1_565 S
C1872 H1864 0.950 1_545 S
C1872 C1873 1.386 . S
C1872 C1874 1.391 . S
C1873 C1872 1.386 . S
C1873 C1877 1.393 . S
C1874 H1866 0.950 1_545 S
C1874 C1872 1.391 . S
C1874 C1875 1.400 . S
C1875 C1874 1.400 . S
C1875 C1876 1.398 . S
C1875 C1881 1.491 . S
C1876 H1867 0.950 . S
C1876 C1875 1.398 . S
C1876 C1877 1.391 . S
C1877 H1865 0.950 . S
C1877 C1873 1.393 . S
C1877 C1876 1.391 . S
C1878 H1868 0.950 . S
C1878 C1879 1.386 . S
C1878 C1880 1.391 . S
C1879 C1878 1.386 . S
C1879 C1883 1.393 . S
C1880 H1869 0.950 . S
C1880 C1878 1.391 . S
C1880 C1881 1.400 . S
C1881 C1875 1.491 . S
C1881 C1880 1.400 . S
C1881 C1882 1.398 . S
C1882 H1870 0.950 1_545 S
C1882 C1881 1.398 . S
C1882 C1883 1.391 . S
C1883 H1871 0.950 1_545 S
C1883 C1879 1.393 . S
C1883 C1882 1.391 . S
H1884 C1892 0.950 . S
H1885 C1897 0.950 . S
H1886 C1894 0.950 . S
H1887 C1896 0.950 . S
H1888 C1898 0.950 . S
H1889 C1900 0.950 . S
H1890 C1902 0.950 . S
H1891 C1903 0.950 . S
C1892 H1884 0.950 . S
C1892 C1893 1.386 . S
C1892 C1894 1.391 . S
C1893 C1892 1.386 . S
C1893 C1897 1.393 . S
C1894 H1886 0.950 . S
C1894 C1892 1.391 . S
C1894 C1895 1.400 . S
C1895 C1894 1.400 . S
C1895 C1896 1.398 . S
C1895 C1901 1.491 . S
C1896 H1887 0.950 . S
C1896 C1895 1.398 . S
C1896 C1897 1.391 . S
C1897 H1885 0.950 . S
C1897 C1893 1.393 . S
C1897 C1896 1.391 . S
C1898 H1888 0.950 . S
C1898 C1899 1.386 . S
C1898 C1900 1.391 . S
C1899 C1898 1.386 . S
C1899 C1903 1.393 . S
C1900 H1889 0.950 . S
C1900 C1898 1.391 . S
C1900 C1901 1.400 . S
C1901 C1895 1.491 . S
C1901 C1900 1.400 . S
C1901 C1902 1.398 . S
C1902 H1890 0.950 . S
C1902 C1901 1.398 . S
C1902 C1903 1.391 . S
C1903 H1891 0.950 . S
C1903 C1899 1.393 . S
C1903 C1902 1.391 . S
H1904 C1912 0.950 . S
H1905 C1917 0.950 . S
H1906 C1914 0.950 . S
H1907 C1916 0.950 . S
H1908 C1918 0.950 . S
H1909 C1920 0.950 . S
H1910 C1922 0.950 1_565 S
H1911 C1923 0.949 1_565 S
C1912 H1904 0.950 . S
C1912 C1913 1.386 1_565 S
C1912 C1914 1.392 . S
C1913 C1912 1.386 1_545 S
C1913 C1917 1.393 . S
C1914 H1906 0.950 . S
C1914 C1912 1.392 . S
C1914 C1915 1.400 1_565 S
C1915 C1914 1.400 1_545 S
C1915 C1916 1.398 . S
C1915 C1921 1.491 . S
C1916 H1907 0.950 . S
C1916 C1915 1.398 . S
C1916 C1917 1.391 . S
C1917 H1905 0.950 . S
C1917 C1913 1.393 . S
C1917 C1916 1.391 . S
C1918 H1908 0.950 . S
C1918 C1919 1.386 . S
C1918 C1920 1.391 . S
C1919 C1918 1.386 . S
C1919 C1923 1.393 . S
C1920 H1909 0.950 . S
C1920 C1918 1.391 . S
C1920 C1921 1.400 . S
C1921 C1915 1.491 . S
C1921 C1920 1.400 . S
C1921 C1922 1.398 . S
C1922 H1910 0.950 1_545 S
C1922 C1921 1.398 . S
C1922 C1923 1.391 . S
C1923 H1911 0.949 1_545 S
C1923 C1919 1.393 . S
C1923 C1922 1.391 . S
H1924 C1932 0.950 . S
H1925 C1937 0.950 . S
H1926 C1934 0.950 . S
H1927 C1936 0.950 . S
H1928 C1938 0.950 . S
H1929 C1940 0.950 . S
H1930 C1942 0.950 . S
H1931 C1943 0.950 . S
C1932 H1924 0.950 . S
C1932 C1933 1.386 . S
C1932 C1934 1.391 . S
C1933 C1932 1.386 . S
C1933 C1937 1.393 . S
C1934 H1926 0.950 . S
C1934 C1932 1.391 . S
C1934 C1935 1.400 . S
C1935 C1934 1.400 . S
C1935 C1936 1.398 . S
C1935 C1941 1.491 . S
C1936 H1927 0.950 . S
C1936 C1935 1.398 . S
C1936 C1937 1.391 . S
C1937 H1925 0.950 . S
C1937 C1933 1.393 . S
C1937 C1936 1.391 . S
C1938 H1928 0.950 . S
C1938 C1939 1.386 . S
C1938 C1940 1.391 . S
C1939 C1938 1.386 . S
C1939 C1943 1.393 . S
C1940 H1929 0.950 . S
C1940 C1938 1.391 . S
C1940 C1941 1.400 . S
C1941 C1935 1.491 . S
C1941 C1940 1.400 . S
C1941 C1942 1.398 . S
C1942 H1930 0.950 . S
C1942 C1941 1.398 . S
C1942 C1943 1.391 . S
C1943 H1931 0.950 . S
C1943 C1939 1.393 . S
C1943 C1942 1.391 . S
H1944 C1952 0.950 . S
H1945 C1957 0.950 . S
H1946 C1954 0.950 . S
H1947 C1956 0.951 1_565 S
H1948 C1958 0.950 . S
H1949 C1960 0.950 . S
H1950 C1962 0.950 . S
H1951 C1963 0.950 . S
C1952 H1944 0.950 . S
C1952 C1953 1.386 . S
C1952 C1954 1.391 . S
C1953 C1952 1.386 . S
C1953 C1957 1.393 . S
C1954 H1946 0.950 . S
C1954 C1952 1.391 . S
C1954 C1955 1.400 . S
C1955 C1954 1.400 . S
C1955 C1956 1.398 . S
C1955 C1961 1.491 . S
C1956 H1947 0.951 1_545 S
C1956 C1955 1.398 . S
C1956 C1957 1.391 . S
C1957 H1945 0.950 . S
C1957 C1953 1.393 . S
C1957 C1956 1.391 . S
C1958 H1948 0.950 . S
C1958 C1959 1.386 . S
C1958 C1960 1.391 . S
C1959 C1958 1.386 . S
C1959 C1963 1.393 1_565 S
C1960 H1949 0.950 . S
C1960 C1958 1.391 . S
C1960 C1961 1.400 1_565 S
C1961 C1955 1.491 . S
C1961 C1960 1.400 1_545 S
C1961 C1962 1.398 . S
C1962 H1950 0.950 . S
C1962 C1961 1.398 . S
C1962 C1963 1.391 . S
C1963 H1951 0.950 . S
C1963 C1959 1.393 1_545 S
C1963 C1962 1.391 . S
H1964 C1972 0.950 . S
H1965 C1977 0.950 . S
H1966 C1974 0.950 . S
H1967 C1976 0.950 . S
H1968 C1978 0.950 . S
H1969 C1980 0.950 . S
H1970 C1982 0.950 . S
H1971 C1983 0.950 . S
C1972 H1964 0.950 . S
C1972 C1973 1.386 . S
C1972 C1974 1.391 . S
C1973 C1972 1.386 . S
C1973 C1977 1.393 . S
C1974 H1966 0.950 . S
C1974 C1972 1.391 . S
C1974 C1975 1.400 . S
C1975 C1974 1.400 . S
C1975 C1976 1.398 . S
C1975 C1981 1.491 . S
C1976 H1967 0.950 . S
C1976 C1975 1.398 . S
C1976 C1977 1.391 . S
C1977 H1965 0.950 . S
C1977 C1973 1.393 . S
C1977 C1976 1.391 . S
C1978 H1968 0.950 . S
C1978 C1979 1.386 . S
C1978 C1980 1.391 . S
C1979 C1978 1.386 . S
C1979 C1983 1.393 . S
C1980 H1969 0.950 . S
C1980 C1978 1.391 . S
C1980 C1981 1.400 . S
C1981 C1975 1.491 . S
C1981 C1980 1.400 . S
C1981 C1982 1.398 . S
C1982 H1970 0.950 . S
C1982 C1981 1.398 . S
C1982 C1983 1.391 . S
C1983 H1971 0.950 . S
C1983 C1979 1.393 . S
C1983 C1982 1.391 . S
H1984 C1992 0.950 1_556 S
H1985 C1997 0.950 . S
H1986 C1994 0.940 1_556 S
H1987 C1996 0.950 . S
H1988 C1998 0.950 . S
H1989 C2000 0.950 . S
H1990 C2002 0.950 . S
H1991 C2003 0.950 . S
C1992 H1984 0.950 1_554 S
C1992 C1993 1.386 . S
C1992 C1994 1.394 . S
C1993 C1992 1.386 . S
C1993 C1997 1.393 . S
C1994 H1986 0.940 1_554 S
C1994 C1992 1.394 . S
C1994 C1995 1.407 . S
C1995 C1994 1.407 . S
C1995 C1996 1.398 . S
C1995 C2001 1.491 . S
C1996 H1987 0.950 . S
C1996 C1995 1.398 . S
C1996 C1997 1.391 . S
C1997 H1985 0.950 . S
C1997 C1993 1.393 . S
C1997 C1996 1.391 . S
C1998 H1988 0.950 . S
C1998 C1999 1.406 . S
C1998 C2000 1.391 . S
C1999 C1998 1.406 . S
C1999 C2003 1.379 1_554 S
C2000 H1989 0.950 . S
C2000 C1998 1.391 . S
C2000 C2001 1.400 . S
C2001 C1995 1.491 . S
C2001 C2000 1.400 . S
C2001 C2002 1.398 1_554 S
C2002 H1990 0.950 . S
C2002 C2001 1.398 1_556 S
C2002 C2003 1.391 . S
C2003 H1991 0.950 . S
C2003 C1999 1.379 1_556 S
C2003 C2002 1.391 . S
H2004 C2012 0.950 . S
H2005 C2017 0.950 . S
H2006 C2014 0.950 . S
H2007 C2016 0.950 . S
H2008 C2018 0.950 . S
H2009 C2020 0.950 . S
H2010 C2022 0.950 . S
H2011 C2023 0.950 . S
C2012 H2004 0.950 . S
C2012 C2013 1.386 . S
C2012 C2014 1.391 . S
C2013 C2012 1.386 . S
C2013 C2017 1.393 . S
C2014 H2006 0.950 . S
C2014 C2012 1.391 . S
C2014 C2015 1.400 . S
C2015 C2014 1.400 . S
C2015 C2016 1.398 . S
C2015 C2021 1.491 . S
C2016 H2007 0.950 . S
C2016 C2015 1.398 . S
C2016 C2017 1.391 . S
C2017 H2005 0.950 . S
C2017 C2013 1.393 . S
C2017 C2016 1.391 . S
C2018 H2008 0.950 . S
C2018 C2019 1.386 . S
C2018 C2020 1.391 . S
C2019 C2018 1.386 . S
C2019 C2023 1.393 . S
C2020 H2009 0.950 . S
C2020 C2018 1.391 . S
C2020 C2021 1.400 . S
C2021 C2015 1.491 . S
C2021 C2020 1.400 . S
C2021 C2022 1.398 . S
C2022 H2010 0.950 . S
C2022 C2021 1.398 . S
C2022 C2023 1.391 . S
C2023 H2011 0.950 . S
C2023 C2019 1.393 . S
C2023 C2022 1.391 . S
H2024 C2032 0.950 . S
H2025 C2037 0.950 . S
H2026 C2034 0.950 . S
H2027 C2036 0.950 . S
H2028 C2038 0.950 . S
H2029 C2040 0.950 . S
H2030 C2042 0.950 . S
H2031 C2043 0.950 . S
C2032 H2024 0.950 . S
C2032 C2033 1.386 . S
C2032 C2034 1.391 . S
C2033 C2032 1.386 . S
C2033 C2037 1.393 . S
C2034 H2026 0.950 . S
C2034 C2032 1.391 . S
C2034 C2035 1.400 . S
C2035 C2034 1.400 . S
C2035 C2036 1.398 . S
C2035 C2041 1.491 . S
C2036 H2027 0.950 . S
C2036 C2035 1.398 . S
C2036 C2037 1.391 . S
C2037 H2025 0.950 . S
C2037 C2033 1.393 . S
C2037 C2036 1.391 . S
C2038 H2028 0.950 . S
C2038 C2039 1.386 . S
C2038 C2040 1.391 . S
C2039 C2038 1.386 . S
C2039 C2043 1.393 . S
C2040 H2029 0.950 . S
C2040 C2038 1.391 . S
C2040 C2041 1.400 . S
C2041 C2035 1.491 . S
C2041 C2040 1.400 . S
C2041 C2042 1.398 . S
C2042 H2030 0.950 . S
C2042 C2041 1.398 . S
C2042 C2043 1.391 . S
C2043 H2031 0.950 . S
C2043 C2039 1.393 . S
C2043 C2042 1.391 . S
H2044 C2052 0.950 . S
H2045 C2057 0.950 . S
H2046 C2054 0.950 . S
H2047 C2056 0.950 . S
H2048 C2058 0.950 . S
H2049 C2060 0.950 . S
H2050 C2062 0.950 . S
H2051 C2063 0.950 . S
C2052 H2044 0.950 . S
C2052 C2053 1.386 . S
C2052 C2054 1.391 . S
C2053 C2052 1.386 . S
C2053 C2057 1.393 . S
C2054 H2046 0.950 . S
C2054 C2052 1.391 . S
C2054 C2055 1.400 . S
C2055 C2054 1.400 . S
C2055 C2056 1.398 . S
C2055 C2061 1.491 . S
C2056 H2047 0.950 . S
C2056 C2055 1.398 . S
C2056 C2057 1.391 . S
C2057 H2045 0.950 . S
C2057 C2053 1.393 . S
C2057 C2056 1.391 . S
C2058 H2048 0.950 . S
C2058 C2059 1.386 . S
C2058 C2060 1.391 . S
C2059 C2058 1.386 . S
C2059 C2063 1.393 . S
C2060 H2049 0.950 . S
C2060 C2058 1.391 . S
C2060 C2061 1.400 . S
C2061 C2055 1.491 . S
C2061 C2060 1.400 . S
C2061 C2062 1.398 . S
C2062 H2050 0.950 . S
C2062 C2061 1.398 . S
C2062 C2063 1.391 . S
C2063 H2051 0.950 . S
C2063 C2059 1.393 . S
C2063 C2062 1.391 . S
H2064 C2072 0.950 . S
H2065 C2077 0.950 . S
H2066 C2074 0.950 . S
H2067 C2076 0.950 . S
H2068 C2078 0.950 . S
H2069 C2080 0.950 . S
H2070 C2082 0.950 . S
H2071 C2083 0.950 . S
C2072 H2064 0.950 . S
C2072 C2073 1.386 . S
C2072 C2074 1.391 . S
C2073 C2072 1.386 . S
C2073 C2077 1.393 . S
C2074 H2066 0.950 . S
C2074 C2072 1.391 . S
C2074 C2075 1.400 . S
C2075 C2074 1.400 . S
C2075 C2076 1.398 . S
C2075 C2081 1.491 . S
C2076 H2067 0.950 . S
C2076 C2075 1.398 . S
C2076 C2077 1.391 . S
C2077 H2065 0.950 . S
C2077 C2073 1.393 . S
C2077 C2076 1.391 . S
C2078 H2068 0.950 . S
C2078 C2079 1.386 . S
C2078 C2080 1.391 . S
C2079 C2078 1.386 . S
C2079 C2083 1.393 . S
C2080 H2069 0.950 . S
C2080 C2078 1.391 . S
C2080 C2081 1.400 . S
C2081 C2075 1.491 . S
C2081 C2080 1.400 . S
C2081 C2082 1.398 . S
C2082 H2070 0.950 . S
C2082 C2081 1.398 . S
C2082 C2083 1.391 . S
C2083 H2071 0.950 . S
C2083 C2079 1.393 . S
C2083 C2082 1.391 . S
H2084 C2092 0.950 . S
H2085 C2097 0.950 . S
H2086 C2094 0.950 . S
H2087 C2096 0.950 . S
H2088 C2098 0.950 . S
H2089 C2100 0.950 . S
H2090 C2102 0.950 . S
H2091 C2103 0.950 1_545 S
C2092 H2084 0.950 . S
C2092 C2093 1.386 . S
C2092 C2094 1.391 . S
C2093 C2092 1.386 . S
C2093 C2097 1.393 . S
C2094 H2086 0.950 . S
C2094 C2092 1.391 . S
C2094 C2095 1.400 . S
C2095 C2094 1.400 . S
C2095 C2096 1.398 . S
C2095 C2101 1.491 . S
C2096 H2087 0.950 . S
C2096 C2095 1.398 . S
C2096 C2097 1.391 . S
C2097 H2085 0.950 . S
C2097 C2093 1.393 . S
C2097 C2096 1.391 . S
C2098 H2088 0.950 . S
C2098 C2099 1.386 . S
C2098 C2100 1.391 . S
C2099 C2098 1.386 . S
C2099 C2103 1.393 . S
C2100 H2089 0.950 . S
C2100 C2098 1.391 . S
C2100 C2101 1.400 . S
C2101 C2095 1.491 . S
C2101 C2100 1.400 . S
C2101 C2102 1.398 . S
C2102 H2090 0.950 . S
C2102 C2101 1.398 . S
C2102 C2103 1.391 . S
C2103 H2091 0.950 1_565 S
C2103 C2099 1.393 . S
C2103 C2102 1.391 . S
H2104 C2112 0.950 . S
H2105 C2117 0.950 . S
H2106 C2114 0.950 . S
H2107 C2116 0.950 . S
H2108 C2118 0.950 . S
H2109 C2120 0.950 . S
H2110 C2122 0.950 . S
H2111 C2123 0.950 . S
C2112 H2104 0.950 . S
C2112 C2113 1.386 . S
C2112 C2114 1.391 . S
C2113 C2112 1.386 . S
C2113 C2117 1.393 . S
C2114 H2106 0.950 . S
C2114 C2112 1.391 . S
C2114 C2115 1.400 . S
C2115 C2114 1.400 . S
C2115 C2116 1.398 . S
C2115 C2121 1.491 . S
C2116 H2107 0.950 . S
C2116 C2115 1.398 . S
C2116 C2117 1.391 . S
C2117 H2105 0.950 . S
C2117 C2113 1.393 . S
C2117 C2116 1.391 . S
C2118 H2108 0.950 . S
C2118 C2119 1.386 . S
C2118 C2120 1.391 . S
C2119 C2118 1.386 . S
C2119 C2123 1.393 . S
C2120 H2109 0.950 . S
C2120 C2118 1.391 . S
C2120 C2121 1.400 . S
C2121 C2115 1.491 . S
C2121 C2120 1.400 . S
C2121 C2122 1.398 . S
C2122 H2110 0.950 . S
C2122 C2121 1.398 . S
C2122 C2123 1.391 . S
C2123 H2111 0.950 . S
C2123 C2119 1.393 . S
C2123 C2122 1.391 . S
H2124 C2132 0.950 . S
H2125 C2137 0.950 . S
H2126 C2134 0.950 . S
H2127 C2136 0.950 . S
H2128 C2138 0.950 . S
H2129 C2140 0.950 . S
H2130 C2142 0.950 . S
H2131 C2143 0.950 . S
C2132 H2124 0.950 . S
C2132 C2133 1.386 . S
C2132 C2134 1.391 . S
C2133 C2132 1.386 . S
C2133 C2137 1.393 . S
C2134 H2126 0.950 . S
C2134 C2132 1.391 . S
C2134 C2135 1.400 . S
C2135 C2134 1.400 . S
C2135 C2136 1.398 . S
C2135 C2141 1.491 . S
C2136 H2127 0.950 . S
C2136 C2135 1.398 . S
C2136 C2137 1.391 . S
C2137 H2125 0.950 . S
C2137 C2133 1.393 . S
C2137 C2136 1.391 . S
C2138 H2128 0.950 . S
C2138 C2139 1.386 . S
C2138 C2140 1.391 . S
C2139 C2138 1.386 . S
C2139 C2143 1.393 . S
C2140 H2129 0.950 . S
C2140 C2138 1.391 . S
C2140 C2141 1.400 . S
C2141 C2135 1.491 . S
C2141 C2140 1.400 . S
C2141 C2142 1.398 . S
C2142 H2130 0.950 . S
C2142 C2141 1.398 . S
C2142 C2143 1.391 . S
C2143 H2131 0.950 . S
C2143 C2139 1.393 . S
C2143 C2142 1.391 . S
H2144 C2152 0.950 . S
H2145 C2157 0.950 . S
H2146 C2154 0.950 . S
H2147 C2156 0.950 . S
H2148 C2158 0.950 . S
H2149 C2160 0.950 . S
H2150 C2162 0.950 . S
H2151 C2163 0.950 . S
C2152 H2144 0.950 . S
C2152 C2153 1.386 . S
C2152 C2154 1.391 . S
C2153 C2152 1.386 . S
C2153 C2157 1.393 . S
C2154 H2146 0.950 . S
C2154 C2152 1.391 . S
C2154 C2155 1.400 . S
C2155 C2154 1.400 . S
C2155 C2156 1.398 . S
C2155 C2161 1.491 . S
C2156 H2147 0.950 . S
C2156 C2155 1.398 . S
C2156 C2157 1.391 . S
C2157 H2145 0.950 . S
C2157 C2153 1.393 . S
C2157 C2156 1.391 . S
C2158 H2148 0.950 . S
C2158 C2159 1.386 . S
C2158 C2160 1.391 . S
C2159 C2158 1.386 . S
C2159 C2163 1.393 . S
C2160 H2149 0.950 . S
C2160 C2158 1.391 . S
C2160 C2161 1.400 . S
C2161 C2155 1.491 . S
C2161 C2160 1.400 . S
C2161 C2162 1.398 . S
C2162 H2150 0.950 . S
C2162 C2161 1.398 . S
C2162 C2163 1.391 . S
C2163 H2151 0.950 . S
C2163 C2159 1.393 . S
C2163 C2162 1.391 . S
H2164 C2172 0.950 . S
H2165 C2177 0.950 . S
H2166 C2174 0.950 . S
H2167 C2176 0.950 . S
H2168 C2178 0.950 . S
H2169 C2180 0.950 . S
H2170 C2182 0.950 . S
H2171 C2183 0.950 . S
C2172 H2164 0.950 . S
C2172 C2173 1.386 . S
C2172 C2174 1.391 . S
C2173 C2172 1.386 . S
C2173 C2177 1.393 . S
C2174 H2166 0.950 . S
C2174 C2172 1.391 . S
C2174 C2175 1.400 . S
C2175 C2174 1.400 . S
C2175 C2176 1.398 . S
C2175 C2181 1.491 . S
C2176 H2167 0.950 . S
C2176 C2175 1.398 . S
C2176 C2177 1.391 . S
C2177 H2165 0.950 . S
C2177 C2173 1.393 . S
C2177 C2176 1.391 . S
C2178 H2168 0.950 . S
C2178 C2179 1.386 . S
C2178 C2180 1.391 . S
C2179 C2178 1.386 . S
C2179 C2183 1.393 . S
C2180 H2169 0.950 . S
C2180 C2178 1.391 . S
C2180 C2181 1.400 . S
C2181 C2175 1.491 . S
C2181 C2180 1.400 . S
C2181 C2182 1.398 . S
C2182 H2170 0.950 . S
C2182 C2181 1.398 . S
C2182 C2183 1.391 . S
C2183 H2171 0.950 . S
C2183 C2179 1.393 . S
C2183 C2182 1.391 . S
H2184 C2192 0.950 . S
H2185 C2197 0.950 . S
H2186 C2194 0.950 . S
H2187 C2196 0.950 . S
H2188 C2198 0.950 . S
H2189 C2200 0.950 . S
H2190 C2202 0.950 . S
H2191 C2203 0.950 . S
C2192 H2184 0.950 . S
C2192 C2193 1.386 . S
C2192 C2194 1.391 . S
C2193 C2192 1.386 . S
C2193 C2197 1.393 1_455 S
C2194 H2186 0.950 . S
C2194 C2192 1.391 . S
C2194 C2195 1.400 . S
C2195 C2194 1.400 . S
C2195 C2196 1.398 1_455 S
C2195 C2201 1.491 . S
C2196 H2187 0.950 . S
C2196 C2195 1.398 1_655 S
C2196 C2197 1.391 . S
C2197 H2185 0.950 . S
C2197 C2193 1.393 1_655 S
C2197 C2196 1.391 . S
C2198 H2188 0.950 . S
C2198 C2199 1.386 1_655 S
C2198 C2200 1.391 . S
C2199 C2198 1.386 1_455 S
C2199 C2203 1.393 . S
C2200 H2189 0.950 . S
C2200 C2198 1.391 . S
C2200 C2201 1.400 1_655 S
C2201 C2195 1.491 . S
C2201 C2200 1.400 1_455 S
C2201 C2202 1.398 . S
C2202 H2190 0.950 . S
C2202 C2201 1.398 . S
C2202 C2203 1.391 . S
C2203 H2191 0.950 . S
C2203 C2199 1.393 . S
C2203 C2202 1.391 . S
H2204 C2212 0.950 . S
H2205 C2217 0.950 . S
H2206 C2214 0.950 . S
H2207 C2216 0.950 . S
H2208 C2218 0.950 . S
H2209 C2220 0.950 . S
H2210 C2222 0.950 . S
H2211 C2223 0.950 . S
C2212 H2204 0.950 . S
C2212 C2213 1.386 . S
C2212 C2214 1.391 . S
C2213 C2212 1.386 . S
C2213 C2217 1.393 . S
C2214 H2206 0.950 . S
C2214 C2212 1.391 . S
C2214 C2215 1.400 . S
C2215 C2214 1.400 . S
C2215 C2216 1.398 . S
C2215 C2221 1.491 . S
C2216 H2207 0.950 . S
C2216 C2215 1.398 . S
C2216 C2217 1.391 . S
C2217 H2205 0.950 . S
C2217 C2213 1.393 . S
C2217 C2216 1.391 . S
C2218 H2208 0.950 . S
C2218 C2219 1.386 . S
C2218 C2220 1.391 . S
C2219 C2218 1.386 . S
C2219 C2223 1.393 . S
C2220 H2209 0.950 . S
C2220 C2218 1.391 . S
C2220 C2221 1.400 . S
C2221 C2215 1.491 . S
C2221 C2220 1.400 . S
C2221 C2222 1.398 . S
C2222 H2210 0.950 . S
C2222 C2221 1.398 . S
C2222 C2223 1.391 . S
C2223 H2211 0.950 . S
C2223 C2219 1.393 . S
C2223 C2222 1.391 . S
H2224 C2232 0.950 . S
H2225 C2237 0.950 . S
H2226 C2234 0.950 . S
H2227 C2236 0.950 . S
H2228 C2238 0.950 . S
H2229 C2240 0.950 . S
H2230 C2242 0.950 . S
H2231 C2243 0.950 . S
C2232 H2224 0.950 . S
C2232 C2233 1.386 . S
C2232 C2234 1.391 . S
C2233 C2232 1.386 . S
C2233 C2237 1.393 . S
C2234 H2226 0.950 . S
C2234 C2232 1.391 . S
C2234 C2235 1.400 . S
C2235 C2234 1.400 . S
C2235 C2236 1.398 . S
C2235 C2241 1.491 . S
C2236 H2227 0.950 . S
C2236 C2235 1.398 . S
C2236 C2237 1.391 . S
C2237 H2225 0.950 . S
C2237 C2233 1.393 . S
C2237 C2236 1.391 . S
C2238 H2228 0.950 . S
C2238 C2239 1.386 . S
C2238 C2240 1.391 . S
C2239 C2238 1.386 . S
C2239 C2243 1.393 . S
C2240 H2229 0.950 . S
C2240 C2238 1.391 . S
C2240 C2241 1.400 . S
C2241 C2235 1.491 . S
C2241 C2240 1.400 . S
C2241 C2242 1.398 . S
C2242 H2230 0.950 . S
C2242 C2241 1.398 . S
C2242 C2243 1.391 . S
C2243 H2231 0.950 . S
C2243 C2239 1.393 . S
C2243 C2242 1.391 . S
H2244 C2252 0.950 . S
H2245 C2257 0.950 . S
H2246 C2254 0.950 . S
H2247 C2256 0.950 . S
H2248 C2258 0.950 . S
H2249 C2260 0.950 . S
H2250 C2262 0.950 . S
H2251 C2263 0.950 . S
C2252 H2244 0.950 . S
C2252 C2253 1.386 . S
C2252 C2254 1.391 . S
C2253 C2252 1.386 . S
C2253 C2257 1.393 . S
C2254 H2246 0.950 . S
C2254 C2252 1.391 . S
C2254 C2255 1.400 . S
C2255 C2254 1.400 . S
C2255 C2256 1.398 . S
C2255 C2261 1.491 . S
C2256 H2247 0.950 . S
C2256 C2255 1.398 . S
C2256 C2257 1.391 . S
C2257 H2245 0.950 . S
C2257 C2253 1.393 . S
C2257 C2256 1.391 . S
C2258 H2248 0.950 . S
C2258 C2259 1.386 . S
C2258 C2260 1.391 . S
C2259 C2258 1.386 . S
C2259 C2263 1.393 . S
C2260 H2249 0.950 . S
C2260 C2258 1.391 . S
C2260 C2261 1.400 . S
C2261 C2255 1.491 . S
C2261 C2260 1.400 . S
C2261 C2262 1.398 . S
C2262 H2250 0.950 . S
C2262 C2261 1.398 . S
C2262 C2263 1.391 . S
C2263 H2251 0.950 . S
C2263 C2259 1.393 . S
C2263 C2262 1.391 . S
H2264 C2272 0.950 . S
H2265 C2277 0.950 . S
H2266 C2274 0.950 . S
H2267 C2276 0.950 . S
H2268 C2278 0.950 . S
H2269 C2280 0.950 . S
H2270 C2282 0.950 . S
H2271 C2283 0.950 . S
C2272 H2264 0.950 . S
C2272 C2273 1.386 1_655 S
C2272 C2274 1.391 . S
C2273 C2272 1.386 1_455 S
C2273 C2277 1.393 . S
C2274 H2266 0.950 . S
C2274 C2272 1.391 . S
C2274 C2275 1.400 1_655 S
C2275 C2274 1.400 1_455 S
C2275 C2276 1.398 . S
C2275 C2281 1.491 . S
C2276 H2267 0.950 . S
C2276 C2275 1.398 . S
C2276 C2277 1.391 . S
C2277 H2265 0.950 . S
C2277 C2273 1.393 . S
C2277 C2276 1.391 . S
C2278 H2268 0.950 . S
C2278 C2279 1.386 . S
C2278 C2280 1.391 . S
C2279 C2278 1.386 . S
C2279 C2283 1.393 1_455 S
C2280 H2269 0.950 . S
C2280 C2278 1.391 . S
C2280 C2281 1.400 . S
C2281 C2275 1.491 . S
C2281 C2280 1.400 . S
C2281 C2282 1.398 1_455 S
C2282 H2270 0.950 . S
C2282 C2281 1.398 1_655 S
C2282 C2283 1.391 . S
C2283 H2271 0.950 . S
C2283 C2279 1.393 1_655 S
C2283 C2282 1.391 . S
H2284 C2292 0.950 . S
H2285 C2297 0.950 . S
H2286 C2294 0.950 . S
H2287 C2296 0.950 . S
H2288 C2298 0.950 . S
H2289 C2300 0.950 . S
H2290 C2302 0.950 . S
H2291 C2303 0.950 . S
C2292 H2284 0.950 . S
C2292 C2293 1.386 . S
C2292 C2294 1.391 . S
C2293 C2292 1.386 . S
C2293 C2297 1.393 . S
C2294 H2286 0.950 . S
C2294 C2292 1.391 . S
C2294 C2295 1.400 . S
C2295 C2294 1.400 . S
C2295 C2296 1.398 . S
C2295 C2301 1.491 . S
C2296 H2287 0.950 . S
C2296 C2295 1.398 . S
C2296 C2297 1.391 . S
C2297 H2285 0.950 . S
C2297 C2293 1.393 . S
C2297 C2296 1.391 . S
C2298 H2288 0.950 . S
C2298 C2299 1.386 . S
C2298 C2300 1.391 . S
C2299 C2298 1.386 . S
C2299 C2303 1.393 . S
C2300 H2289 0.950 . S
C2300 C2298 1.391 . S
C2300 C2301 1.400 . S
C2301 C2295 1.491 . S
C2301 C2300 1.400 . S
C2301 C2302 1.398 . S
C2302 H2290 0.950 . S
C2302 C2301 1.398 . S
C2302 C2303 1.391 . S
C2303 H2291 0.950 . S
C2303 C2299 1.393 . S
C2303 C2302 1.391 . S
H2304 C2312 0.950 . S
H2305 C2317 0.950 . S
H2306 C2314 0.950 . S
H2307 C2316 0.950 . S
H2308 C2318 0.950 . S
H2309 C2320 0.950 . S
H2310 C2322 0.950 . S
H2311 C2323 0.950 . S
C2312 H2304 0.950 . S
C2312 C2313 1.386 . S
C2312 C2314 1.391 . S
C2313 C2312 1.386 . S
C2313 C2317 1.393 . S
C2314 H2306 0.950 . S
C2314 C2312 1.391 . S
C2314 C2315 1.400 . S
C2315 C2314 1.400 . S
C2315 C2316 1.398 . S
C2315 C2321 1.491 . S
C2316 H2307 0.950 . S
C2316 C2315 1.398 . S
C2316 C2317 1.391 . S
C2317 H2305 0.950 . S
C2317 C2313 1.393 . S
C2317 C2316 1.391 . S
C2318 H2308 0.950 . S
C2318 C2319 1.386 . S
C2318 C2320 1.391 . S
C2319 C2318 1.386 . S
C2319 C2323 1.393 . S
C2320 H2309 0.950 . S
C2320 C2318 1.391 . S
C2320 C2321 1.400 . S
C2321 C2315 1.491 . S
C2321 C2320 1.400 . S
C2321 C2322 1.398 . S
C2322 H2310 0.950 . S
C2322 C2321 1.398 . S
C2322 C2323 1.391 . S
C2323 H2311 0.950 . S
C2323 C2319 1.393 . S
C2323 C2322 1.391 . S
H2324 C2332 0.950 . S
H2325 C2337 0.950 . S
H2326 C2334 0.950 . S
H2327 C2336 0.950 . S
H2328 C2338 0.950 . S
H2329 C2340 0.950 . S
H2330 C2342 0.950 . S
H2331 C2343 0.950 . S
C2332 H2324 0.950 . S
C2332 C2333 1.386 . S
C2332 C2334 1.391 . S
C2333 C2332 1.386 . S
C2333 C2337 1.393 . S
C2334 H2326 0.950 . S
C2334 C2332 1.391 . S
C2334 C2335 1.400 . S
C2335 C2334 1.400 . S
C2335 C2336 1.398 . S
C2335 C2341 1.491 . S
C2336 H2327 0.950 . S
C2336 C2335 1.398 . S
C2336 C2337 1.391 . S
C2337 H2325 0.950 . S
C2337 C2333 1.393 . S
C2337 C2336 1.391 . S
C2338 H2328 0.950 . S
C2338 C2339 1.386 . S
C2338 C2340 1.391 . S
C2339 C2338 1.386 . S
C2339 C2343 1.393 . S
C2340 H2329 0.950 . S
C2340 C2338 1.391 . S
C2340 C2341 1.400 . S
C2341 C2335 1.491 . S
C2341 C2340 1.400 . S
C2341 C2342 1.398 . S
C2342 H2330 0.950 . S
C2342 C2341 1.398 . S
C2342 C2343 1.391 . S
C2343 H2331 0.950 . S
C2343 C2339 1.393 . S
C2343 C2342 1.391 . S
H2344 C2352 0.950 . S
H2345 C2357 0.950 . S
H2346 C2354 0.950 . S
H2347 C2356 0.950 . S
H2348 C2358 0.950 . S
H2349 C2360 0.950 . S
H2350 C2362 0.950 . S
H2351 C2363 0.950 . S
C2352 H2344 0.950 . S
C2352 C2353 1.386 . S
C2352 C2354 1.391 . S
C2353 C2352 1.386 . S
C2353 C2357 1.393 . S
C2354 H2346 0.950 . S
C2354 C2352 1.391 . S
C2354 C2355 1.400 . S
C2355 C2354 1.400 . S
C2355 C2356 1.398 . S
C2355 C2361 1.491 . S
C2356 H2347 0.950 . S
C2356 C2355 1.398 . S
C2356 C2357 1.391 . S
C2357 H2345 0.950 . S
C2357 C2353 1.393 . S
C2357 C2356 1.391 . S
C2358 H2348 0.950 . S
C2358 C2359 1.386 . S
C2358 C2360 1.391 . S
C2359 C2358 1.386 . S
C2359 C2363 1.393 . S
C2360 H2349 0.950 . S
C2360 C2358 1.391 . S
C2360 C2361 1.400 . S
C2361 C2355 1.491 . S
C2361 C2360 1.400 . S
C2361 C2362 1.398 . S
C2362 H2350 0.950 . S
C2362 C2361 1.398 . S
C2362 C2363 1.391 . S
C2363 H2351 0.950 . S
C2363 C2359 1.393 . S
C2363 C2362 1.391 . S
H2364 C2372 0.950 . S
H2365 C2377 0.950 . S
H2366 C2374 0.950 . S
H2367 C2376 0.950 . S
H2368 C2378 0.950 . S
H2369 C2380 0.950 . S
H2370 C2382 0.950 . S
H2371 C2383 0.950 . S
C2372 H2364 0.950 . S
C2372 C2373 1.386 . S
C2372 C2374 1.391 . S
C2373 C2372 1.386 . S
C2373 C2377 1.393 . S
C2374 H2366 0.950 . S
C2374 C2372 1.391 . S
C2374 C2375 1.400 . S
C2375 C2374 1.400 . S
C2375 C2376 1.398 . S
C2375 C2381 1.491 . S
C2376 H2367 0.950 . S
C2376 C2375 1.398 . S
C2376 C2377 1.391 . S
C2377 H2365 0.950 . S
C2377 C2373 1.393 . S
C2377 C2376 1.391 . S
C2378 H2368 0.950 . S
C2378 C2379 1.386 . S
C2378 C2380 1.391 . S
C2379 C2378 1.386 . S
C2379 C2383 1.393 . S
C2380 H2369 0.950 . S
C2380 C2378 1.391 . S
C2380 C2381 1.400 . S
C2381 C2375 1.491 . S
C2381 C2380 1.400 . S
C2381 C2382 1.398 . S
C2382 H2370 0.950 . S
C2382 C2381 1.398 . S
C2382 C2383 1.391 . S
C2383 H2371 0.950 . S
C2383 C2379 1.393 . S
C2383 C2382 1.391 . S
H2384 C2392 0.950 . S
H2385 C2397 0.950 . S
H2386 C2394 0.950 . S
H2387 C2396 0.950 . S
H2388 C2398 0.950 . S
H2389 C2400 0.950 . S
H2390 C2402 0.950 . S
H2391 C2403 0.950 . S
C2392 H2384 0.950 . S
C2392 C2393 1.386 . S
C2392 C2394 1.391 . S
C2393 C2392 1.386 . S
C2393 C2397 1.393 . S
C2394 H2386 0.950 . S
C2394 C2392 1.391 . S
C2394 C2395 1.400 . S
C2395 C2394 1.400 . S
C2395 C2396 1.398 . S
C2395 C2401 1.491 . S
C2396 H2387 0.950 . S
C2396 C2395 1.398 . S
C2396 C2397 1.391 . S
C2397 H2385 0.950 . S
C2397 C2393 1.393 . S
C2397 C2396 1.391 . S
C2398 H2388 0.950 . S
C2398 C2399 1.386 . S
C2398 C2400 1.391 . S
C2399 C2398 1.386 . S
C2399 C2403 1.393 . S
C2400 H2389 0.950 . S
C2400 C2398 1.391 . S
C2400 C2401 1.400 . S
C2401 C2395 1.491 . S
C2401 C2400 1.400 . S
C2401 C2402 1.398 . S
C2402 H2390 0.950 . S
C2402 C2401 1.398 . S
C2402 C2403 1.391 . S
C2403 H2391 0.950 . S
C2403 C2399 1.393 . S
C2403 C2402 1.391 . S
H2404 C2412 0.950 . S
H2405 C2417 0.950 . S
H2406 C2414 0.950 . S
H2407 C2416 0.950 . S
H2408 C2418 0.950 . S
H2409 C2420 0.950 . S
H2410 C2422 0.950 . S
H2411 C2423 0.950 . S
C2412 H2404 0.950 . S
C2412 C2413 1.386 . S
C2412 C2414 1.391 . S
C2413 C2412 1.386 . S
C2413 C2417 1.393 . S
C2414 H2406 0.950 . S
C2414 C2412 1.391 . S
C2414 C2415 1.400 . S
C2415 C2414 1.400 . S
C2415 C2416 1.398 . S
C2415 C2421 1.491 . S
C2416 H2407 0.950 . S
C2416 C2415 1.398 . S
C2416 C2417 1.391 . S
C2417 H2405 0.950 . S
C2417 C2413 1.393 . S
C2417 C2416 1.391 . S
C2418 H2408 0.950 . S
C2418 C2419 1.386 . S
C2418 C2420 1.391 . S
C2419 C2418 1.386 . S
C2419 C2423 1.393 . S
C2420 H2409 0.950 . S
C2420 C2418 1.391 . S
C2420 C2421 1.400 . S
C2421 C2415 1.491 . S
C2421 C2420 1.400 . S
C2421 C2422 1.398 . S
C2422 H2410 0.950 . S
C2422 C2421 1.398 . S
C2422 C2423 1.391 . S
C2423 H2411 0.950 . S
C2423 C2419 1.393 . S
C2423 C2422 1.391 . S
H2424 C2432 0.950 . S
H2425 C2437 0.950 . S
H2426 C2434 0.950 . S
H2427 C2436 0.950 . S
H2428 C2438 0.950 . S
H2429 C2440 0.950 . S
H2430 C2442 0.950 . S
H2431 C2443 0.950 . S
C2432 H2424 0.950 . S
C2432 C2433 1.386 . S
C2432 C2434 1.391 . S
C2433 C2432 1.386 . S
C2433 C2437 1.393 . S
C2434 H2426 0.950 . S
C2434 C2432 1.391 . S
C2434 C2435 1.400 . S
C2435 C2434 1.400 . S
C2435 C2436 1.398 . S
C2435 C2441 1.491 . S
C2436 H2427 0.950 . S
C2436 C2435 1.398 . S
C2436 C2437 1.391 . S
C2437 H2425 0.950 . S
C2437 C2433 1.393 . S
C2437 C2436 1.391 . S
C2438 H2428 0.950 . S
C2438 C2439 1.386 . S
C2438 C2440 1.391 . S
C2439 C2438 1.386 . S
C2439 C2443 1.393 . S
C2440 H2429 0.950 . S
C2440 C2438 1.391 . S
C2440 C2441 1.400 . S
C2441 C2435 1.491 . S
C2441 C2440 1.400 . S
C2441 C2442 1.398 . S
C2442 H2430 0.950 . S
C2442 C2441 1.398 . S
C2442 C2443 1.391 . S
C2443 H2431 0.950 . S
C2443 C2439 1.393 . S
C2443 C2442 1.391 . S
H2444 C2452 0.950 . S
H2445 C2457 0.950 . S
H2446 C2454 0.950 . S
H2447 C2456 0.950 . S
H2448 C2458 0.950 . S
H2449 C2460 0.950 . S
H2450 C2462 0.950 . S
H2451 C2463 0.950 . S
C2452 H2444 0.950 . S
C2452 C2453 1.386 . S
C2452 C2454 1.391 . S
C2453 C2452 1.386 . S
C2453 C2457 1.393 . S
C2454 H2446 0.950 . S
C2454 C2452 1.391 . S
C2454 C2455 1.400 . S
C2455 C2454 1.400 . S
C2455 C2456 1.398 . S
C2455 C2461 1.491 . S
C2456 H2447 0.950 . S
C2456 C2455 1.398 . S
C2456 C2457 1.391 . S
C2457 H2445 0.950 . S
C2457 C2453 1.393 . S
C2457 C2456 1.391 . S
C2458 H2448 0.950 . S
C2458 C2459 1.386 . S
C2458 C2460 1.391 . S
C2459 C2458 1.386 . S
C2459 C2463 1.393 . S
C2460 H2449 0.950 . S
C2460 C2458 1.391 . S
C2460 C2461 1.400 . S
C2461 C2455 1.491 . S
C2461 C2460 1.400 . S
C2461 C2462 1.398 . S
C2462 H2450 0.950 . S
C2462 C2461 1.398 . S
C2462 C2463 1.391 . S
C2463 H2451 0.950 . S
C2463 C2459 1.393 . S
C2463 C2462 1.391 . S
H2464 C2472 0.950 . S
H2465 C2477 0.950 . S
H2466 C2474 0.950 . S
H2467 C2476 0.950 . S
H2468 C2478 0.950 . S
H2469 C2480 0.950 . S
H2470 C2482 0.950 . S
H2471 C2483 0.950 . S
C2472 H2464 0.950 . S
C2472 C2473 1.386 . S
C2472 C2474 1.391 . S
C2473 C2472 1.386 . S
C2473 C2477 1.393 . S
C2474 H2466 0.950 . S
C2474 C2472 1.391 . S
C2474 C2475 1.400 . S
C2475 C2474 1.400 . S
C2475 C2476 1.398 . S
C2475 C2481 1.491 . S
C2476 H2467 0.950 . S
C2476 C2475 1.398 . S
C2476 C2477 1.391 . S
C2477 H2465 0.950 . S
C2477 C2473 1.393 . S
C2477 C2476 1.391 . S
C2478 H2468 0.950 . S
C2478 C2479 1.386 . S
C2478 C2480 1.391 . S
C2479 C2478 1.386 . S
C2479 C2483 1.393 . S
C2480 H2469 0.950 . S
C2480 C2478 1.391 . S
C2480 C2481 1.400 . S
C2481 C2475 1.491 . S
C2481 C2480 1.400 . S
C2481 C2482 1.398 . S
C2482 H2470 0.950 . S
C2482 C2481 1.398 . S
C2482 C2483 1.391 . S
C2483 H2471 0.950 . S
C2483 C2479 1.393 . S
C2483 C2482 1.391 . S
H2484 C2492 0.950 . S
H2485 C2497 0.950 . S
H2486 C2494 0.950 . S
H2487 C2496 0.950 . S
H2488 C2498 0.950 . S
H2489 C2500 0.950 . S
H2490 C2502 0.950 . S
H2491 C2503 0.950 . S
C2492 H2484 0.950 . S
C2492 C2493 1.386 . S
C2492 C2494 1.391 . S
C2493 C2492 1.386 . S
C2493 C2497 1.393 . S
C2494 H2486 0.950 . S
C2494 C2492 1.391 . S
C2494 C2495 1.400 . S
C2495 C2494 1.400 . S
C2495 C2496 1.398 . S
C2495 C2501 1.491 . S
C2496 H2487 0.950 . S
C2496 C2495 1.398 . S
C2496 C2497 1.391 . S
C2497 H2485 0.950 . S
C2497 C2493 1.393 . S
C2497 C2496 1.391 . S
C2498 H2488 0.950 . S
C2498 C2499 1.386 . S
C2498 C2500 1.391 . S
C2499 C2498 1.386 . S
C2499 C2503 1.393 . S
C2500 H2489 0.950 . S
C2500 C2498 1.391 . S
C2500 C2501 1.400 . S
C2501 C2495 1.491 . S
C2501 C2500 1.400 . S
C2501 C2502 1.398 . S
C2502 H2490 0.950 . S
C2502 C2501 1.398 . S
C2502 C2503 1.391 . S
C2503 H2491 0.950 . S
C2503 C2499 1.393 . S
C2503 C2502 1.391 . S
H2504 C2512 0.950 . S
H2505 C2517 0.950 . S
H2506 C2514 0.950 . S
H2507 C2516 0.950 . S
H2508 C2518 0.950 . S
H2509 C2520 0.950 . S
H2510 C2522 0.950 . S
H2511 C2523 0.950 . S
C2512 H2504 0.950 . S
C2512 C2513 1.386 . S
C2512 C2514 1.391 . S
C2513 C2512 1.386 . S
C2513 C2517 1.393 . S
C2514 H2506 0.950 . S
C2514 C2512 1.391 . S
C2514 C2515 1.400 . S
C2515 C2514 1.400 . S
C2515 C2516 1.398 . S
C2515 C2521 1.491 . S
C2516 H2507 0.950 . S
C2516 C2515 1.398 . S
C2516 C2517 1.391 . S
C2517 H2505 0.950 . S
C2517 C2513 1.393 . S
C2517 C2516 1.391 . S
C2518 H2508 0.950 . S
C2518 C2519 1.386 . S
C2518 C2520 1.391 . S
C2519 C2518 1.386 . S
C2519 C2523 1.393 . S
C2520 H2509 0.950 . S
C2520 C2518 1.391 . S
C2520 C2521 1.400 . S
C2521 C2515 1.491 . S
C2521 C2520 1.400 . S
C2521 C2522 1.398 . S
C2522 H2510 0.950 . S
C2522 C2521 1.398 . S
C2522 C2523 1.391 . S
C2523 H2511 0.950 . S
C2523 C2519 1.393 . S
C2523 C2522 1.391 . S
H2524 C2532 0.950 . S
H2525 C2537 0.950 . S
H2526 C2534 0.950 . S
H2527 C2536 0.950 . S
H2528 C2538 0.950 . S
H2529 C2540 0.950 . S
H2530 C2542 0.950 . S
H2531 C2543 0.950 1_545 S
C2532 H2524 0.950 . S
C2532 C2533 1.386 . S
C2532 C2534 1.391 . S
C2533 C2532 1.386 . S
C2533 C2537 1.393 . S
C2534 H2526 0.950 . S
C2534 C2532 1.391 . S
C2534 C2535 1.400 . S
C2535 C2534 1.400 . S
C2535 C2536 1.398 . S
C2535 C2541 1.491 . S
C2536 H2527 0.950 . S
C2536 C2535 1.398 . S
C2536 C2537 1.391 . S
C2537 H2525 0.950 . S
C2537 C2533 1.393 . S
C2537 C2536 1.391 . S
C2538 H2528 0.950 . S
C2538 C2539 1.386 . S
C2538 C2540 1.391 . S
C2539 C2538 1.386 . S
C2539 C2543 1.393 . S
C2540 H2529 0.950 . S
C2540 C2538 1.391 . S
C2540 C2541 1.400 . S
C2541 C2535 1.491 . S
C2541 C2540 1.400 . S
C2541 C2542 1.398 . S
C2542 H2530 0.950 . S
C2542 C2541 1.398 . S
C2542 C2543 1.391 . S
C2543 H2531 0.950 1_565 S
C2543 C2539 1.393 . S
C2543 C2542 1.391 . S
H2544 C2552 0.950 . S
H2545 C2557 0.950 . S
H2546 C2554 0.950 . S
H2547 C2556 0.950 . S
H2548 C2558 0.950 . S
H2549 C2560 0.950 . S
H2550 C2562 0.950 . S
H2551 C2563 0.950 . S
C2552 H2544 0.950 . S
C2552 C2553 1.386 . S
C2552 C2554 1.391 . S
C2553 C2552 1.386 . S
C2553 C2557 1.393 . S
C2554 H2546 0.950 . S
C2554 C2552 1.391 . S
C2554 C2555 1.400 . S
C2555 C2554 1.400 . S
C2555 C2556 1.398 . S
C2555 C2561 1.491 . S
C2556 H2547 0.950 . S
C2556 C2555 1.398 . S
C2556 C2557 1.391 . S
C2557 H2545 0.950 . S
C2557 C2553 1.393 . S
C2557 C2556 1.391 . S
C2558 H2548 0.950 . S
C2558 C2559 1.386 . S
C2558 C2560 1.391 . S
C2559 C2558 1.386 . S
C2559 C2563 1.393 . S
C2560 H2549 0.950 . S
C2560 C2558 1.391 . S
C2560 C2561 1.400 . S
C2561 C2555 1.491 . S
C2561 C2560 1.400 . S
C2561 C2562 1.398 . S
C2562 H2550 0.950 . S
C2562 C2561 1.398 . S
C2562 C2563 1.391 . S
C2563 H2551 0.950 . S
C2563 C2559 1.393 . S
C2563 C2562 1.391 . S
H2564 C2572 0.950 . S
H2565 C2577 0.950 . S
H2566 C2574 0.950 . S
H2567 C2576 0.950 . S
H2568 C2578 0.950 1_556 S
H2569 C2580 0.950 1_556 S
H2570 C2582 0.950 . S
H2571 C2583 0.950 . S
C2572 H2564 0.950 . S
C2572 C2573 1.386 . S
C2572 C2574 1.391 . S
C2573 C2572 1.386 . S
C2573 C2577 1.393 1_554 S
C2574 H2566 0.950 . S
C2574 C2572 1.391 . S
C2574 C2575 1.400 . S
C2575 C2574 1.400 . S
C2575 C2576 1.398 1_554 S
C2575 C2581 1.491 . S
C2576 H2567 0.950 . S
C2576 C2575 1.398 1_556 S
C2576 C2577 1.391 . S
C2577 H2565 0.950 . S
C2577 C2573 1.393 1_556 S
C2577 C2576 1.391 . S
C2578 H2568 0.950 1_554 S
C2578 C2579 1.386 . S
C2578 C2580 1.391 . S
C2579 C2578 1.386 . S
C2579 C2583 1.393 . S
C2580 H2569 0.950 1_554 S
C2580 C2578 1.391 . S
C2580 C2581 1.400 . S
C2581 C2575 1.491 . S
C2581 C2580 1.400 . S
C2581 C2582 1.398 . S
C2582 H2570 0.950 . S
C2582 C2581 1.398 . S
C2582 C2583 1.391 . S
C2583 H2571 0.950 . S
C2583 C2579 1.393 . S
C2583 C2582 1.391 . S
H2584 C2592 0.950 . S
H2585 C2597 0.950 . S
H2586 C2594 0.950 . S
H2587 C2596 0.950 . S
H2588 C2598 0.950 . S
H2589 C2600 0.950 . S
H2590 C2602 0.950 . S
H2591 C2603 0.950 . S
C2592 H2584 0.950 . S
C2592 C2593 1.386 . S
C2592 C2594 1.391 . S
C2593 C2592 1.386 . S
C2593 C2597 1.393 . S
C2594 H2586 0.950 . S
C2594 C2592 1.391 . S
C2594 C2595 1.400 . S
C2595 C2594 1.400 . S
C2595 C2596 1.398 . S
C2595 C2601 1.491 . S
C2596 H2587 0.950 . S
C2596 C2595 1.398 . S
C2596 C2597 1.391 . S
C2597 H2585 0.950 . S
C2597 C2593 1.393 . S
C2597 C2596 1.391 . S
C2598 H2588 0.950 . S
C2598 C2599 1.386 . S
C2598 C2600 1.391 . S
C2599 C2598 1.386 . S
C2599 C2603 1.393 . S
C2600 H2589 0.950 . S
C2600 C2598 1.391 . S
C2600 C2601 1.400 . S
C2601 C2595 1.491 . S
C2601 C2600 1.400 . S
C2601 C2602 1.398 . S
C2602 H2590 0.950 . S
C2602 C2601 1.398 . S
C2602 C2603 1.391 . S
C2603 H2591 0.950 . S
C2603 C2599 1.393 . S
C2603 C2602 1.391 . S
H2604 C2612 0.950 . S
H2605 C2617 0.950 . S
H2606 C2614 0.950 . S
H2607 C2616 0.950 . S
H2608 C2618 0.950 . S
H2609 C2620 0.950 . S
H2610 C2622 0.950 . S
H2611 C2623 0.950 . S
C2612 H2604 0.950 . S
C2612 C2613 1.386 . S
C2612 C2614 1.391 . S
C2613 C2612 1.386 . S
C2613 C2617 1.393 . S
C2614 H2606 0.950 . S
C2614 C2612 1.391 . S
C2614 C2615 1.400 . S
C2615 C2614 1.400 . S
C2615 C2616 1.398 . S
C2615 C2621 1.491 . S
C2616 H2607 0.950 . S
C2616 C2615 1.398 . S
C2616 C2617 1.391 . S
C2617 H2605 0.950 . S
C2617 C2613 1.393 . S
C2617 C2616 1.391 . S
C2618 H2608 0.950 . S
C2618 C2619 1.386 . S
C2618 C2620 1.391 . S
C2619 C2618 1.386 . S
C2619 C2623 1.393 . S
C2620 H2609 0.950 . S
C2620 C2618 1.391 . S
C2620 C2621 1.400 . S
C2621 C2615 1.491 . S
C2621 C2620 1.400 . S
C2621 C2622 1.398 . S
C2622 H2610 0.950 . S
C2622 C2621 1.398 . S
C2622 C2623 1.391 . S
C2623 H2611 0.950 . S
C2623 C2619 1.393 . S
C2623 C2622 1.391 . S
H2624 C2632 0.950 . S
H2625 C2637 0.950 . S
H2626 C2634 0.950 . S
H2627 C2636 0.950 . S
H2628 C2638 0.950 . S
H2629 C2640 0.950 . S
H2630 C2642 0.950 . S
H2631 C2643 0.950 . S
C2632 H2624 0.950 . S
C2632 C2633 1.386 . S
C2632 C2634 1.391 . S
C2633 C2632 1.386 . S
C2633 C2637 1.393 . S
C2634 H2626 0.950 . S
C2634 C2632 1.391 . S
C2634 C2635 1.400 . S
C2635 C2634 1.400 . S
C2635 C2636 1.398 . S
C2635 C2641 1.491 . S
C2636 H2627 0.950 . S
C2636 C2635 1.398 . S
C2636 C2637 1.391 . S
C2637 H2625 0.950 . S
C2637 C2633 1.393 . S
C2637 C2636 1.391 . S
C2638 H2628 0.950 . S
C2638 C2639 1.386 . S
C2638 C2640 1.391 . S
C2639 C2638 1.386 . S
C2639 C2643 1.393 . S
C2640 H2629 0.950 . S
C2640 C2638 1.391 . S
C2640 C2641 1.400 . S
C2641 C2635 1.491 . S
C2641 C2640 1.400 . S
C2641 C2642 1.398 . S
C2642 H2630 0.950 . S
C2642 C2641 1.398 . S
C2642 C2643 1.391 . S
C2643 H2631 0.950 . S
C2643 C2639 1.393 . S
C2643 C2642 1.391 . S
H2644 C2652 0.950 . S
H2645 C2657 0.950 . S
H2646 C2654 0.950 . S
H2647 C2656 0.950 . S
H2648 C2658 0.950 . S
H2649 C2660 0.950 . S
H2650 C2662 0.950 . S
H2651 C2663 0.950 . S
C2652 H2644 0.950 . S
C2652 C2653 1.386 . S
C2652 C2654 1.391 . S
C2653 C2652 1.386 . S
C2653 C2657 1.393 . S
C2654 H2646 0.950 . S
C2654 C2652 1.391 . S
C2654 C2655 1.400 . S
C2655 C2654 1.400 . S
C2655 C2656 1.398 . S
C2655 C2661 1.491 . S
C2656 H2647 0.950 . S
C2656 C2655 1.398 . S
C2656 C2657 1.391 . S
C2657 H2645 0.950 . S
C2657 C2653 1.393 . S
C2657 C2656 1.391 . S
C2658 H2648 0.950 . S
C2658 C2659 1.386 . S
C2658 C2660 1.391 . S
C2659 C2658 1.386 . S
C2659 C2663 1.393 . S
C2660 H2649 0.950 . S
C2660 C2658 1.391 . S
C2660 C2661 1.400 . S
C2661 C2655 1.491 . S
C2661 C2660 1.400 . S
C2661 C2662 1.398 . S
C2662 H2650 0.950 . S
C2662 C2661 1.398 . S
C2662 C2663 1.391 . S
C2663 H2651 0.950 . S
C2663 C2659 1.393 . S
C2663 C2662 1.391 . S
H2664 C2672 0.950 . S
H2665 C2677 0.950 . S
H2666 C2674 0.950 . S
H2667 C2676 0.950 . S
H2668 C2678 0.950 . S
H2669 C2680 0.950 . S
H2670 C2682 0.950 . S
H2671 C2683 0.950 . S
C2672 H2664 0.950 . S
C2672 C2673 1.386 . S
C2672 C2674 1.391 . S
C2673 C2672 1.386 . S
C2673 C2677 1.393 . S
C2674 H2666 0.950 . S
C2674 C2672 1.391 . S
C2674 C2675 1.400 . S
C2675 C2674 1.400 . S
C2675 C2676 1.398 . S
C2675 C2681 1.491 . S
C2676 H2667 0.950 . S
C2676 C2675 1.398 . S
C2676 C2677 1.391 . S
C2677 H2665 0.950 . S
C2677 C2673 1.393 . S
C2677 C2676 1.391 . S
C2678 H2668 0.950 . S
C2678 C2679 1.386 . S
C2678 C2680 1.391 . S
C2679 C2678 1.386 . S
C2679 C2683 1.393 . S
C2680 H2669 0.950 . S
C2680 C2678 1.391 . S
C2680 C2681 1.400 . S
C2681 C2675 1.491 . S
C2681 C2680 1.400 . S
C2681 C2682 1.398 . S
C2682 H2670 0.950 . S
C2682 C2681 1.398 . S
C2682 C2683 1.391 . S
C2683 H2671 0.950 . S
C2683 C2679 1.393 . S
C2683 C2682 1.391 . S
H2684 C2692 0.950 . S
H2685 C2697 0.950 . S
H2686 C2694 0.950 . S
H2687 C2696 0.950 . S
H2688 C2698 0.950 . S
H2689 C2700 0.950 . S
H2690 C2702 0.950 . S
H2691 C2703 0.950 . S
C2692 H2684 0.950 . S
C2692 C2693 1.386 . S
C2692 C2694 1.391 . S
C2693 C2692 1.386 . S
C2693 C2697 1.393 . S
C2694 H2686 0.950 . S
C2694 C2692 1.391 . S
C2694 C2695 1.400 . S
C2695 C2694 1.400 . S
C2695 C2696 1.398 . S
C2695 C2701 1.491 . S
C2696 H2687 0.950 . S
C2696 C2695 1.398 . S
C2696 C2697 1.391 . S
C2697 H2685 0.950 . S
C2697 C2693 1.393 . S
C2697 C2696 1.391 . S
C2698 H2688 0.950 . S
C2698 C2699 1.386 . S
C2698 C2700 1.391 . S
C2699 C2698 1.386 . S
C2699 C2703 1.393 . S
C2700 H2689 0.950 . S
C2700 C2698 1.391 . S
C2700 C2701 1.400 . S
C2701 C2695 1.491 . S
C2701 C2700 1.400 . S
C2701 C2702 1.398 . S
C2702 H2690 0.950 . S
C2702 C2701 1.398 . S
C2702 C2703 1.391 . S
C2703 H2691 0.950 . S
C2703 C2699 1.393 . S
C2703 C2702 1.391 . S
H2704 C2712 0.950 . S
H2705 C2717 0.950 . S
H2706 C2714 0.950 . S
H2707 C2716 0.950 . S
H2708 C2718 0.950 1_554 S
H2709 C2720 0.950 . S
H2710 C2722 0.950 . S
H2711 C2723 0.950 . S
C2712 H2704 0.950 . S
C2712 C2713 1.386 . S
C2712 C2714 1.391 . S
C2713 C2712 1.386 . S
C2713 C2717 1.393 . S
C2714 H2706 0.950 . S
C2714 C2712 1.391 . S
C2714 C2715 1.400 . S
C2715 C2714 1.400 . S
C2715 C2716 1.398 . S
C2715 C2721 1.491 . S
C2716 H2707 0.950 . S
C2716 C2715 1.398 . S
C2716 C2717 1.391 . S
C2717 H2705 0.950 . S
C2717 C2713 1.393 . S
C2717 C2716 1.391 . S
C2718 H2708 0.950 1_556 S
C2718 C2719 1.386 . S
C2718 C2720 1.391 . S
C2719 C2718 1.386 . S
C2719 C2723 1.393 . S
C2720 H2709 0.950 . S
C2720 C2718 1.391 . S
C2720 C2721 1.400 . S
C2721 C2715 1.491 . S
C2721 C2720 1.400 . S
C2721 C2722 1.398 . S
C2722 H2710 0.950 . S
C2722 C2721 1.398 . S
C2722 C2723 1.391 . S
C2723 H2711 0.950 . S
C2723 C2719 1.393 . S
C2723 C2722 1.391 . S
H2724 C2732 0.950 . S
H2725 C2737 0.950 . S
H2726 C2734 0.950 . S
H2727 C2736 0.950 . S
H2728 C2738 0.950 . S
H2729 C2740 0.950 . S
H2730 C2742 0.950 . S
H2731 C2743 0.950 . S
C2732 H2724 0.950 . S
C2732 C2733 1.386 . S
C2732 C2734 1.391 . S
C2733 C2732 1.386 . S
C2733 C2737 1.393 . S
C2734 H2726 0.950 . S
C2734 C2732 1.391 . S
C2734 C2735 1.400 . S
C2735 C2734 1.400 . S
C2735 C2736 1.398 . S
C2735 C2741 1.491 . S
C2736 H2727 0.950 . S
C2736 C2735 1.398 . S
C2736 C2737 1.391 . S
C2737 H2725 0.950 . S
C2737 C2733 1.393 . S
C2737 C2736 1.391 . S
C2738 H2728 0.950 . S
C2738 C2739 1.386 . S
C2738 C2740 1.391 . S
C2739 C2738 1.386 . S
C2739 C2743 1.393 . S
C2740 H2729 0.950 . S
C2740 C2738 1.391 . S
C2740 C2741 1.400 . S
C2741 C2735 1.491 . S
C2741 C2740 1.400 . S
C2741 C2742 1.398 . S
C2742 H2730 0.950 . S
C2742 C2741 1.398 . S
C2742 C2743 1.391 . S
C2743 H2731 0.950 . S
C2743 C2739 1.393 . S
C2743 C2742 1.391 . S
H2744 C2752 0.950 . S
H2745 C2757 0.950 . S
H2746 C2754 0.950 . S
H2747 C2756 0.950 1_655 S
H2748 C2758 0.950 1_655 S
H2749 C2760 0.934 1_655 S
H2750 C2762 0.950 . S
H2751 C2763 0.950 . S
C2752 H2744 0.950 . S
C2752 C2753 1.386 . S
C2752 C2754 1.391 . S
C2753 C2752 1.386 . S
C2753 C2757 1.393 . S
C2754 H2746 0.950 . S
C2754 C2752 1.391 . S
C2754 C2755 1.400 . S
C2755 C2754 1.400 . S
C2755 C2756 1.398 . S
C2755 C2761 1.491 . S
C2756 H2747 0.950 1_455 S
C2756 C2755 1.398 . S
C2756 C2757 1.391 . S
C2757 H2745 0.950 . S
C2757 C2753 1.393 . S
C2757 C2756 1.391 . S
C2758 H2748 0.950 1_455 S
C2758 C2759 1.386 . S
C2758 C2760 1.391 . S
C2759 C2758 1.386 . S
C2759 C2763 1.393 . S
C2760 H2749 0.934 1_455 S
C2760 C2758 1.391 . S
C2760 C2761 1.400 . S
C2761 C2755 1.491 . S
C2761 C2760 1.400 . S
C2761 C2762 1.398 . S
C2762 H2750 0.950 . S
C2762 C2761 1.398 . S
C2762 C2763 1.391 . S
C2763 H2751 0.950 . S
C2763 C2759 1.393 . S
C2763 C2762 1.391 . S
H2764 C2772 0.950 . S
H2765 C2777 0.950 . S
H2766 C2774 0.950 . S
H2767 C2776 0.950 . S
H2768 C2778 0.950 . S
H2769 C2780 0.950 . S
H2770 C2782 0.950 . S
H2771 C2783 0.950 . S
C2772 H2764 0.950 . S
C2772 C2773 1.386 . S
C2772 C2774 1.391 . S
C2773 C2772 1.386 . S
C2773 C2777 1.393 . S
C2774 H2766 0.950 . S
C2774 C2772 1.391 . S
C2774 C2775 1.400 . S
C2775 C2774 1.400 . S
C2775 C2776 1.398 . S
C2775 C2781 1.491 . S
C2776 H2767 0.950 . S
C2776 C2775 1.398 . S
C2776 C2777 1.391 . S
C2777 H2765 0.950 . S
C2777 C2773 1.393 . S
C2777 C2776 1.391 . S
C2778 H2768 0.950 . S
C2778 C2779 1.386 . S
C2778 C2780 1.391 . S
C2779 C2778 1.386 . S
C2779 C2783 1.393 . S
C2780 H2769 0.950 . S
C2780 C2778 1.391 . S
C2780 C2781 1.400 . S
C2781 C2775 1.491 . S
C2781 C2780 1.400 . S
C2781 C2782 1.398 . S
C2782 H2770 0.950 . S
C2782 C2781 1.398 . S
C2782 C2783 1.391 . S
C2783 H2771 0.950 . S
C2783 C2779 1.393 . S
C2783 C2782 1.391 . S
H2784 C2792 0.950 . S
H2785 C2797 0.950 . S
H2786 C2794 0.950 . S
H2787 C2796 0.950 . S
H2788 C2798 0.950 . S
H2789 C2800 0.950 . S
H2790 C2802 0.950 . S
H2791 C2803 0.950 . S
C2792 H2784 0.950 . S
C2792 C2793 1.386 . S
C2792 C2794 1.391 . S
C2793 C2792 1.386 . S
C2793 C2797 1.393 . S
C2794 H2786 0.950 . S
C2794 C2792 1.391 . S
C2794 C2795 1.400 . S
C2795 C2794 1.400 . S
C2795 C2796 1.398 . S
C2795 C2801 1.491 . S
C2796 H2787 0.950 . S
C2796 C2795 1.398 . S
C2796 C2797 1.391 . S
C2797 H2785 0.950 . S
C2797 C2793 1.393 . S
C2797 C2796 1.391 . S
C2798 H2788 0.950 . S
C2798 C2799 1.386 . S
C2798 C2800 1.391 . S
C2799 C2798 1.386 . S
C2799 C2803 1.393 . S
C2800 H2789 0.950 . S
C2800 C2798 1.391 . S
C2800 C2801 1.400 . S
C2801 C2795 1.491 . S
C2801 C2800 1.400 . S
C2801 C2802 1.398 . S
C2802 H2790 0.950 . S
C2802 C2801 1.398 . S
C2802 C2803 1.391 . S
C2803 H2791 0.950 . S
C2803 C2799 1.393 . S
C2803 C2802 1.391 . S
H2804 C2812 0.950 . S
H2805 C2817 0.950 . S
H2806 C2814 0.950 . S
H2807 C2816 0.950 . S
H2808 C2818 0.950 . S
H2809 C2820 0.950 . S
H2810 C2822 0.950 . S
H2811 C2823 0.950 . S
C2812 H2804 0.950 . S
C2812 C2813 1.386 . S
C2812 C2814 1.391 . S
C2813 C2812 1.386 . S
C2813 C2817 1.393 . S
C2814 H2806 0.950 . S
C2814 C2812 1.391 . S
C2814 C2815 1.400 . S
C2815 C2814 1.400 . S
C2815 C2816 1.398 . S
C2815 C2821 1.491 . S
C2816 H2807 0.950 . S
C2816 C2815 1.398 . S
C2816 C2817 1.391 . S
C2817 H2805 0.950 . S
C2817 C2813 1.393 . S
C2817 C2816 1.391 . S
C2818 H2808 0.950 . S
C2818 C2819 1.386 . S
C2818 C2820 1.391 . S
C2819 C2818 1.386 . S
C2819 C2823 1.393 . S
C2820 H2809 0.950 . S
C2820 C2818 1.391 . S
C2820 C2821 1.400 . S
C2821 C2815 1.491 . S
C2821 C2820 1.400 . S
C2821 C2822 1.398 . S
C2822 H2810 0.950 . S
C2822 C2821 1.398 . S
C2822 C2823 1.391 . S
C2823 H2811 0.950 . S
C2823 C2819 1.393 . S
C2823 C2822 1.391 . S
H2824 C2832 0.950 . S
H2825 C2837 0.950 . S
H2826 C2834 0.950 . S
H2827 C2836 0.950 . S
H2828 C2838 0.950 . S
H2829 C2840 0.950 . S
H2830 C2842 0.950 . S
H2831 C2843 0.950 1_455 S
C2832 H2824 0.950 . S
C2832 C2833 1.386 . S
C2832 C2834 1.391 . S
C2833 C2832 1.386 . S
C2833 C2837 1.393 . S
C2834 H2826 0.950 . S
C2834 C2832 1.391 . S
C2834 C2835 1.400 . S
C2835 C2834 1.400 . S
C2835 C2836 1.398 . S
C2835 C2841 1.491 . S
C2836 H2827 0.950 . S
C2836 C2835 1.398 . S
C2836 C2837 1.391 . S
C2837 H2825 0.950 . S
C2837 C2833 1.393 . S
C2837 C2836 1.391 . S
C2838 H2828 0.950 . S
C2838 C2839 1.386 . S
C2838 C2840 1.391 . S
C2839 C2838 1.386 . S
C2839 C2843 1.393 . S
C2840 H2829 0.950 . S
C2840 C2838 1.391 . S
C2840 C2841 1.400 . S
C2841 C2835 1.491 . S
C2841 C2840 1.400 . S
C2841 C2842 1.398 . S
C2842 H2830 0.950 . S
C2842 C2841 1.398 . S
C2842 C2843 1.391 . S
C2843 H2831 0.950 1_655 S
C2843 C2839 1.393 . S
C2843 C2842 1.391 . S
H2844 C2852 0.950 . S
H2845 C2857 0.950 . S
H2846 C2854 0.950 . S
H2847 C2856 0.950 . S
H2848 C2858 0.950 . S
H2849 C2860 0.950 . S
H2850 C2862 0.950 . S
H2851 C2863 0.950 . S
C2852 H2844 0.950 . S
C2852 C2853 1.386 . S
C2852 C2854 1.391 . S
C2853 C2852 1.386 . S
C2853 C2857 1.393 . S
C2854 H2846 0.950 . S
C2854 C2852 1.391 . S
C2854 C2855 1.400 . S
C2855 C2854 1.400 . S
C2855 C2856 1.398 . S
C2855 C2861 1.491 . S
C2856 H2847 0.950 . S
C2856 C2855 1.398 . S
C2856 C2857 1.391 . S
C2857 H2845 0.950 . S
C2857 C2853 1.393 . S
C2857 C2856 1.391 . S
C2858 H2848 0.950 . S
C2858 C2859 1.386 . S
C2858 C2860 1.391 . S
C2859 C2858 1.386 . S
C2859 C2863 1.393 . S
C2860 H2849 0.950 . S
C2860 C2858 1.391 . S
C2860 C2861 1.400 . S
C2861 C2855 1.491 . S
C2861 C2860 1.400 . S
C2861 C2862 1.398 . S
C2862 H2850 0.950 . S
C2862 C2861 1.398 . S
C2862 C2863 1.391 . S
C2863 H2851 0.950 . S
C2863 C2859 1.393 . S
C2863 C2862 1.391 . S
H2864 C2872 0.950 . S
H2865 C2877 0.950 . S
H2866 C2874 0.950 . S
H2867 C2876 0.950 . S
H2868 C2878 0.950 . S
H2869 C2880 0.950 . S
H2870 C2882 0.950 . S
H2871 C2883 0.950 . S
C2872 H2864 0.950 . S
C2872 C2873 1.386 . S
C2872 C2874 1.391 . S
C2873 C2872 1.386 . S
C2873 C2877 1.393 . S
C2874 H2866 0.950 . S
C2874 C2872 1.391 . S
C2874 C2875 1.400 . S
C2875 C2874 1.400 . S
C2875 C2876 1.398 . S
C2875 C2881 1.491 . S
C2876 H2867 0.950 . S
C2876 C2875 1.398 . S
C2876 C2877 1.391 . S
C2877 H2865 0.950 . S
C2877 C2873 1.393 . S
C2877 C2876 1.391 . S
C2878 H2868 0.950 . S
C2878 C2879 1.386 . S
C2878 C2880 1.391 . S
C2879 C2878 1.386 . S
C2879 C2883 1.393 . S
C2880 H2869 0.950 . S
C2880 C2878 1.391 . S
C2880 C2881 1.400 . S
C2881 C2875 1.491 . S
C2881 C2880 1.400 . S
C2881 C2882 1.398 . S
C2882 H2870 0.950 . S
C2882 C2881 1.398 . S
C2882 C2883 1.391 . S
C2883 H2871 0.950 . S
C2883 C2879 1.393 . S
C2883 C2882 1.391 . S
H2884 C2892 0.950 . S
H2885 C2897 0.950 . S
H2886 C2894 0.950 . S
H2887 C2896 0.950 . S
H2888 C2898 0.950 . S
H2889 C2900 0.950 . S
H2890 C2902 0.950 . S
H2891 C2903 0.950 . S
C2892 H2884 0.950 . S
C2892 C2893 1.386 . S
C2892 C2894 1.391 . S
C2893 C2892 1.386 . S
C2893 C2897 1.393 . S
C2894 H2886 0.950 . S
C2894 C2892 1.391 . S
C2894 C2895 1.400 . S
C2895 C2894 1.400 . S
C2895 C2896 1.398 . S
C2895 C2901 1.491 . S
C2896 H2887 0.950 . S
C2896 C2895 1.398 . S
C2896 C2897 1.391 . S
C2897 H2885 0.950 . S
C2897 C2893 1.393 . S
C2897 C2896 1.391 . S
C2898 H2888 0.950 . S
C2898 C2899 1.386 . S
C2898 C2900 1.391 . S
C2899 C2898 1.386 . S
C2899 C2903 1.393 . S
C2900 H2889 0.950 . S
C2900 C2898 1.391 . S
C2900 C2901 1.400 . S
C2901 C2895 1.491 . S
C2901 C2900 1.400 . S
C2901 C2902 1.398 . S
C2902 H2890 0.950 . S
C2902 C2901 1.398 . S
C2902 C2903 1.391 . S
C2903 H2891 0.950 . S
C2903 C2899 1.393 . S
C2903 C2902 1.391 . S
H2904 C2912 0.950 . S
H2905 C2917 0.950 . S
H2906 C2914 0.950 . S
H2907 C2916 0.950 . S
H2908 C2918 0.950 . S
H2909 C2920 0.950 . S
H2910 C2922 0.950 . S
H2911 C2923 0.950 1_455 S
C2912 H2904 0.950 . S
C2912 C2913 1.386 . S
C2912 C2914 1.391 . S
C2913 C2912 1.386 . S
C2913 C2917 1.393 . S
C2914 H2906 0.950 . S
C2914 C2912 1.391 . S
C2914 C2915 1.400 . S
C2915 C2914 1.400 . S
C2915 C2916 1.398 . S
C2915 C2921 1.491 . S
C2916 H2907 0.950 . S
C2916 C2915 1.398 . S
C2916 C2917 1.391 . S
C2917 H2905 0.950 . S
C2917 C2913 1.393 . S
C2917 C2916 1.391 . S
C2918 H2908 0.950 . S
C2918 C2919 1.386 . S
C2918 C2920 1.391 . S
C2919 C2918 1.386 . S
C2919 C2923 1.393 . S
C2920 H2909 0.950 . S
C2920 C2918 1.391 . S
C2920 C2921 1.400 . S
C2921 C2915 1.491 . S
C2921 C2920 1.400 . S
C2921 C2922 1.398 . S
C2922 H2910 0.950 . S
C2922 C2921 1.398 . S
C2922 C2923 1.391 . S
C2923 H2911 0.950 1_655 S
C2923 C2919 1.393 . S
C2923 C2922 1.391 . S
H2924 C2932 0.950 . S
H2925 C2937 0.950 . S
H2926 C2934 0.950 . S
H2927 C2936 0.950 . S
H2928 C2938 0.950 . S
H2929 C2940 0.950 . S
H2930 C2942 0.950 . S
H2931 C2943 0.950 . S
C2932 H2924 0.950 . S
C2932 C2933 1.386 . S
C2932 C2934 1.391 . S
C2933 C2932 1.386 . S
C2933 C2937 1.393 . S
C2934 H2926 0.950 . S
C2934 C2932 1.391 . S
C2934 C2935 1.400 . S
C2935 C2934 1.400 . S
C2935 C2936 1.398 . S
C2935 C2941 1.491 . S
C2936 H2927 0.950 . S
C2936 C2935 1.398 . S
C2936 C2937 1.391 . S
C2937 H2925 0.950 . S
C2937 C2933 1.393 . S
C2937 C2936 1.391 . S
C2938 H2928 0.950 . S
C2938 C2939 1.386 . S
C2938 C2940 1.391 . S
C2939 C2938 1.386 . S
C2939 C2943 1.393 . S
C2940 H2929 0.950 . S
C2940 C2938 1.391 . S
C2940 C2941 1.400 . S
C2941 C2935 1.491 . S
C2941 C2940 1.400 . S
C2941 C2942 1.398 . S
C2942 H2930 0.950 . S
C2942 C2941 1.398 . S
C2942 C2943 1.391 . S
C2943 H2931 0.950 . S
C2943 C2939 1.393 . S
C2943 C2942 1.391 . S
H2944 C2952 0.950 . S
H2945 C2957 0.950 . S
H2946 C2954 0.950 . S
H2947 C2956 0.950 . S
H2948 C2958 0.950 . S
H2949 C2960 0.950 . S
H2950 C2962 0.950 . S
H2951 C2963 0.950 . S
C2952 H2944 0.950 . S
C2952 C2953 1.386 . S
C2952 C2954 1.391 . S
C2953 C2952 1.386 . S
C2953 C2957 1.393 . S
C2954 H2946 0.950 . S
C2954 C2952 1.391 . S
C2954 C2955 1.400 . S
C2955 C2954 1.400 . S
C2955 C2956 1.398 . S
C2955 C2961 1.491 . S
C2956 H2947 0.950 . S
C2956 C2955 1.398 . S
C2956 C2957 1.391 . S
C2957 H2945 0.950 . S
C2957 C2953 1.393 . S
C2957 C2956 1.391 . S
C2958 H2948 0.950 . S
C2958 C2959 1.386 . S
C2958 C2960 1.391 . S
C2959 C2958 1.386 . S
C2959 C2963 1.393 . S
C2960 H2949 0.950 . S
C2960 C2958 1.391 . S
C2960 C2961 1.400 . S
C2961 C2955 1.491 . S
C2961 C2960 1.400 . S
C2961 C2962 1.398 . S
C2962 H2950 0.950 . S
C2962 C2961 1.398 . S
C2962 C2963 1.391 . S
C2963 H2951 0.950 . S
C2963 C2959 1.393 . S
C2963 C2962 1.391 . S
H2964 C2972 0.950 . S
H2965 C2977 0.950 . S
H2966 C2974 0.950 . S
H2967 C2976 0.950 . S
H2968 C2978 0.950 1_545 S
H2969 C2980 0.950 . S
H2970 C2982 0.950 . S
H2971 C2983 0.950 . S
C2972 H2964 0.950 . S
C2972 C2973 1.386 . S
C2972 C2974 1.391 . S
C2973 C2972 1.386 . S
C2973 C2977 1.393 . S
C2974 H2966 0.950 . S
C2974 C2972 1.391 . S
C2974 C2975 1.400 . S
C2975 C2974 1.400 . S
C2975 C2976 1.398 . S
C2975 C2981 1.491 . S
C2976 H2967 0.950 . S
C2976 C2975 1.398 . S
C2976 C2977 1.391 . S
C2977 H2965 0.950 . S
C2977 C2973 1.393 . S
C2977 C2976 1.391 . S
C2978 H2968 0.950 1_565 S
C2978 C2979 1.386 . S
C2978 C2980 1.391 . S
C2979 C2978 1.386 . S
C2979 C2983 1.393 . S
C2980 H2969 0.950 . S
C2980 C2978 1.391 . S
C2980 C2981 1.400 . S
C2981 C2975 1.491 . S
C2981 C2980 1.400 . S
C2981 C2982 1.398 . S
C2982 H2970 0.950 . S
C2982 C2981 1.398 . S
C2982 C2983 1.391 . S
C2983 H2971 0.950 . S
C2983 C2979 1.393 . S
C2983 C2982 1.391 . S
H2984 C2992 0.950 . S
H2985 C2997 0.950 . S
H2986 C2994 0.950 . S
H2987 C2996 0.950 . S
H2988 C2998 0.950 . S
H2989 C3000 0.950 . S
H2990 C3002 0.950 . S
H2991 C3003 0.950 . S
C2992 H2984 0.950 . S
C2992 C2993 1.386 . S
C2992 C2994 1.391 . S
C2993 C2992 1.386 . S
C2993 C2997 1.393 . S
C2994 H2986 0.950 . S
C2994 C2992 1.391 . S
C2994 C2995 1.400 . S
C2995 C2994 1.400 . S
C2995 C2996 1.398 . S
C2995 C3001 1.491 . S
C2996 H2987 0.950 . S
C2996 C2995 1.398 . S
C2996 C2997 1.391 . S
C2997 H2985 0.950 . S
C2997 C2993 1.393 . S
C2997 C2996 1.391 . S
C2998 H2988 0.950 . S
C2998 C2999 1.386 . S
C2998 C3000 1.391 . S
C2999 C2998 1.386 . S
C2999 C3003 1.393 . S
C3000 H2989 0.950 . S
C3000 C2998 1.391 . S
C3000 C3001 1.400 . S
C3001 C2995 1.491 . S
C3001 C3000 1.400 . S
C3001 C3002 1.398 . S
C3002 H2990 0.950 . S
C3002 C3001 1.398 . S
C3002 C3003 1.391 . S
C3003 H2991 0.950 . S
C3003 C2999 1.393 . S
C3003 C3002 1.391 . S
H3004 C3012 0.950 . S
H3005 C3017 0.950 . S
H3006 C3014 0.950 . S
H3007 C3016 0.950 . S
H3008 C3018 0.950 . S
H3009 C3020 0.950 . S
H3010 C3022 0.950 . S
H3011 C3023 0.950 . S
C3012 H3004 0.950 . S
C3012 C3013 1.386 . S
C3012 C3014 1.391 . S
C3013 C3012 1.386 . S
C3013 C3017 1.393 . S
C3014 H3006 0.950 . S
C3014 C3012 1.391 . S
C3014 C3015 1.400 . S
C3015 C3014 1.400 . S
C3015 C3016 1.398 . S
C3015 C3021 1.491 . S
C3016 H3007 0.950 . S
C3016 C3015 1.398 . S
C3016 C3017 1.391 . S
C3017 H3005 0.950 . S
C3017 C3013 1.393 . S
C3017 C3016 1.391 . S
C3018 H3008 0.950 . S
C3018 C3019 1.386 . S
C3018 C3020 1.391 . S
C3019 C3018 1.386 . S
C3019 C3023 1.393 . S
C3020 H3009 0.950 . S
C3020 C3018 1.391 . S
C3020 C3021 1.400 . S
C3021 C3015 1.491 . S
C3021 C3020 1.400 . S
C3021 C3022 1.398 . S
C3022 H3010 0.950 . S
C3022 C3021 1.398 . S
C3022 C3023 1.391 . S
C3023 H3011 0.950 . S
C3023 C3019 1.393 . S
C3023 C3022 1.391 . S
H3024 C3032 0.950 . S
H3025 C3037 0.950 . S
H3026 C3034 0.950 . S
H3027 C3036 0.950 . S
H3028 C3038 0.950 . S
H3029 C3040 0.950 . S
H3030 C3042 0.950 . S
H3031 C3043 0.950 . S
C3032 H3024 0.950 . S
C3032 C3033 1.386 . S
C3032 C3034 1.391 . S
C3033 C3032 1.386 . S
C3033 C3037 1.393 . S
C3034 H3026 0.950 . S
C3034 C3032 1.391 . S
C3034 C3035 1.400 . S
C3035 C3034 1.400 . S
C3035 C3036 1.398 . S
C3035 C3041 1.491 . S
C3036 H3027 0.950 . S
C3036 C3035 1.398 . S
C3036 C3037 1.391 . S
C3037 H3025 0.950 . S
C3037 C3033 1.393 . S
C3037 C3036 1.391 . S
C3038 H3028 0.950 . S
C3038 C3039 1.386 . S
C3038 C3040 1.391 . S
C3039 C3038 1.386 . S
C3039 C3043 1.393 . S
C3040 H3029 0.950 . S
C3040 C3038 1.391 . S
C3040 C3041 1.400 . S
C3041 C3035 1.491 . S
C3041 C3040 1.400 . S
C3041 C3042 1.398 . S
C3042 H3030 0.950 . S
C3042 C3041 1.398 . S
C3042 C3043 1.391 . S
C3043 H3031 0.950 . S
C3043 C3039 1.393 . S
C3043 C3042 1.391 . S
H3044 C3052 0.950 . S
H3045 C3057 0.950 . S
H3046 C3054 0.950 . S
H3047 C3056 0.950 . S
H3048 C3058 0.985 . S
H3049 C3060 0.950 1_556 S
H3050 C3062 0.950 . S
H3051 C3063 0.950 . S
C3052 H3044 0.950 . S
C3052 C3053 1.386 . S
C3052 C3054 1.391 . S
C3053 C3052 1.386 . S
C3053 C3057 1.393 . S
C3054 H3046 0.950 . S
C3054 C3052 1.391 . S
C3054 C3055 1.400 . S
C3055 C3054 1.400 . S
C3055 C3056 1.398 . S
C3055 C3061 1.491 . S
C3056 H3047 0.950 . S
C3056 C3055 1.398 . S
C3056 C3057 1.391 . S
C3057 H3045 0.950 . S
C3057 C3053 1.393 . S
C3057 C3056 1.391 . S
C3058 H3048 0.985 . S
C3058 C3059 1.359 1_556 S
C3058 C3060 1.384 1_556 S
C3059 C3058 1.359 1_554 S
C3059 C3063 1.393 . S
C3060 H3049 0.950 1_554 S
C3060 C3058 1.384 1_554 S
C3060 C3061 1.400 . S
C3061 C3055 1.491 . S
C3061 C3060 1.400 . S
C3061 C3062 1.398 . S
C3062 H3050 0.950 . S
C3062 C3061 1.398 . S
C3062 C3063 1.391 . S
C3063 H3051 0.950 . S
C3063 C3059 1.393 . S
C3063 C3062 1.391 . S
H3064 C3072 0.950 . S
H3065 C3077 0.950 . S
H3066 C3074 0.950 . S
H3067 C3076 0.950 . S
H3068 C3078 0.950 . S
H3069 C3080 0.950 . S
H3070 C3082 0.950 . S
H3071 C3083 0.950 . S
C3072 H3064 0.950 . S
C3072 C3073 1.386 . S
C3072 C3074 1.391 . S
C3073 C3072 1.386 . S
C3073 C3077 1.393 . S
C3074 H3066 0.950 . S
C3074 C3072 1.391 . S
C3074 C3075 1.400 . S
C3075 C3074 1.400 . S
C3075 C3076 1.398 . S
C3075 C3081 1.491 . S
C3076 H3067 0.950 . S
C3076 C3075 1.398 . S
C3076 C3077 1.391 . S
C3077 H3065 0.950 . S
C3077 C3073 1.393 . S
C3077 C3076 1.391 . S
C3078 H3068 0.950 . S
C3078 C3079 1.386 . S
C3078 C3080 1.391 . S
C3079 C3078 1.386 . S
C3079 C3083 1.393 . S
C3080 H3069 0.950 . S
C3080 C3078 1.391 . S
C3080 C3081 1.400 . S
C3081 C3075 1.491 . S
C3081 C3080 1.400 . S
C3081 C3082 1.398 . S
C3082 H3070 0.950 . S
C3082 C3081 1.398 . S
C3082 C3083 1.391 . S
C3083 H3071 0.950 . S
C3083 C3079 1.393 . S
C3083 C3082 1.391 . S
H3084 C3092 0.950 . S
H3085 C3097 0.950 . S
H3086 C3094 0.950 . S
H3087 C3096 0.950 . S
H3088 C3098 0.950 . S
H3089 C3100 0.950 . S
H3090 C3102 0.950 . S
H3091 C3103 0.950 . S
C3092 H3084 0.950 . S
C3092 C3093 1.386 . S
C3092 C3094 1.391 . S
C3093 C3092 1.386 . S
C3093 C3097 1.393 . S
C3094 H3086 0.950 . S
C3094 C3092 1.391 . S
C3094 C3095 1.400 . S
C3095 C3094 1.400 . S
C3095 C3096 1.398 . S
C3095 C3101 1.491 . S
C3096 H3087 0.950 . S
C3096 C3095 1.398 . S
C3096 C3097 1.391 . S
C3097 H3085 0.950 . S
C3097 C3093 1.393 . S
C3097 C3096 1.391 . S
C3098 H3088 0.950 . S
C3098 C3099 1.386 . S
C3098 C3100 1.391 . S
C3099 C3098 1.386 . S
C3099 C3103 1.393 . S
C3100 H3089 0.950 . S
C3100 C3098 1.391 . S
C3100 C3101 1.400 . S
C3101 C3095 1.491 . S
C3101 C3100 1.400 . S
C3101 C3102 1.398 . S
C3102 H3090 0.950 . S
C3102 C3101 1.398 . S
C3102 C3103 1.391 . S
C3103 H3091 0.950 . S
C3103 C3099 1.393 . S
C3103 C3102 1.391 . S
C1193 C255 1.363 . S
C1199 C868 1.207 1_556 S
C1213 C147 1.468 . S
C1219 C903 1.444 . S
C1233 C184 1.061 . S
C1239 C908 0.995 . S
C1259 C933 1.364 . S
C1253 C220 1.447 . S
C1273 C40 1.400 . S
C1279 C953 1.310 . S
C1299 C968 1.013 . S
C1293 C74 1.128 . S
C1319 C1003 1.471 . S
C1313 C110 1.511 . S
C1333 C14 1.329 . S
C1339 C1008 1.197 . S
C1359 C883 1.524 1_655 S
C1353 C579 1.604 . S
C1373 C616 1.053 . S
C1379 C893 0.995 . S
C1399 C923 1.456 . S
C1393 C687 1.496 . S
C1419 C928 1.136 . S
C1413 C436 1.224 . S
C1433 C580 1.202 . S
C1439 C948 1.129 . S
C1459 C983 1.442 . S
C1453 C615 1.478 . S
C1479 C993 0.997 . S
C1473 C688 1.040 . S
C1499 C1023 1.528 . S
C1493 C435 1.591 . S
C1519 C873 1.293 . S
C1513 C410 1.392 . S
C1533 C722 1.801 . S
C1539 C1043 1.763 . S
C1559 C1053 1.501 . S
C1553 C842 1.571 . S
C1579 C1068 1.038 . S
C1573 C794 1.084 . S
C1593 C302 1.441 . S
C1599 C1013 1.349 . S
C1613 C338 1.535 . S
C1619 C913 1.477 . S
C1633 C830 1.829 . S
C1639 C1103 1.801 . S
C1659 C1108 1.041 . S
C1653 C758 1.106 . S
C1679 C866 1.209 . S
C1673 C158 1.305 . S
C1699 C1122 1.424 . S
C1693 C254 1.462 . S
C1713 C218 1.067 . S
C1719 C906 1.006 . S
C1733 C194 1.376 . S
C1739 C1096 1.335 . S
C1759 C956 1.305 . S
C1753 C3 1.390 . S
C1773 C111 1.012 . S
C1779 C1046 0.942 . S
C1799 C1002 1.433 1_556 S
C1793 C76 1.460 . S
C1819 C1126 1.201 . S
C1813 C50 1.305 . S
C1839 C882 1.485 . S
C1833 C364 1.580 . S
C1859 C1116 0.975 . S
C1853 C795 1.021 . S
C1873 C292 1.438 . S
C1879 C922 1.397 . S
C1893 C723 1.184 . S
C1899 C1086 1.071 . S
C1913 C363 1.188 . S
C1919 C946 1.066 . S
C1939 C1062 1.427 . S
C1933 C796 1.459 . S
C1953 C291 1.025 . S
C1959 C996 0.973 1_565 S
C1973 C724 1.595 . S
C1979 C1142 1.532 . S
C1993 C482 1.348 . S
C1999 C876 1.303 . S
C2013 C434 1.771 . S
C2019 C1042 1.751 . S
C2033 C662 1.485 . S
C2039 C976 1.463 . S
C2053 C614 1.084 . S
C2059 C1066 0.987 . S
C2079 C1136 1.314 . S
C2073 C698 1.374 . S
C2093 C554 1.453 . S
C2099 C916 1.434 . S
C2119 C942 1.737 . S
C2113 C650 1.772 . S
C2139 C886 0.981 . S
C2133 C506 1.089 . S
C2153 C183 1.371 . S
C2159 C1148 1.233 . S
C2179 C1123 1.422 . S
C2173 C219 1.467 . S
C2193 C256 1.046 . S
C2199 C1168 0.978 . S
C2213 C148 1.445 . S
C2219 C1093 1.354 . S
C2233 C122 1.431 . S
C2239 C1033 1.404 . S
C2259 C1048 1.001 . S
C2253 C2 1.056 . S
C2279 C1083 1.375 . S
C2273 C39 1.399 . S
C2299 C1128 1.210 . S
C2293 C86 1.375 . S
C2319 C1163 1.543 . S
C2313 C651 1.616 . S
C2333 C472 1.054 . S
C2339 C1113 1.008 . S
C2359 C1183 1.444 . S
C2353 C507 1.485 . S
C2379 C1088 1.132 . S
C2373 C544 1.227 . S
C2399 C1028 1.106 . S
C2393 C652 1.201 . S
C2413 C471 1.460 . S
C2419 C1063 1.408 . S
C2439 C1073 0.976 . S
C2433 C508 1.045 . S
C2453 C543 1.601 . S
C2459 C1143 1.522 . S
C2479 C1153 1.347 . S
C2473 C806 1.416 . S
C2493 C326 1.774 . S
C2499 C963 1.749 . S
C2519 C973 1.454 . S
C2513 C374 1.554 . S
C2539 C988 1.054 . S
C2533 C398 1.110 . S
C2559 C1133 1.303 . S
C2553 C770 1.420 . S
C2573 C734 1.528 1_554 S
C2579 C1173 1.438 . S
C2599 C943 1.808 . S
C2593 C362 1.811 . S
C2619 C888 1.034 . S
C2613 C290 1.133 . S
C2633 C230 1.277 . S
C2639 C1146 1.169 . S
C2659 C902 1.425 . S
C2653 C182 1.467 . S
C2673 C146 1.064 . S
C2679 C1166 1.006 . S
C2693 C266 1.357 . S
C2699 C936 1.322 . S
C2713 C75 1.444 . S
C2719 C1036 1.368 . S
C2739 C966 1.015 . S
C2733 C38 1.115 . S
C2753 C4 1.382 . S
C2759 C1082 1.368 . S
C2773 C112 1.354 . S
C2779 C1006 1.185 . S
C2799 C1162 1.511 . S
C2793 C832 1.583 . S
C2813 C399 1.035 . S
C2819 C896 0.992 . S
C2839 C1182 1.399 1_655 S
C2833 C760 1.427 . S
C2853 C327 1.182 . S
C2859 C926 1.101 . S
C2873 C831 1.212 . S
C2879 C1026 1.116 . S
C2899 C982 1.421 . S
C2893 C400 1.456 . S
C2913 C759 1.028 . S
C2919 C1076 0.956 . S
C2939 C1022 1.507 . S
C2933 C328 1.597 . S
C2959 C1156 1.296 . S
C2953 C626 1.361 . S
C2979 C962 1.759 . S
C2973 C542 1.772 . S
C2993 C590 1.464 . S
C2999 C1056 1.445 . S
C3019 C986 1.013 . S
C3013 C470 1.083 . S
C3033 C518 1.344 . S
C3039 C1016 1.313 . S
C3053 C446 1.459 . S
C3059 C1176 1.426 . S
C3079 C1102 1.759 . S
C3073 C578 1.778 . S
C3099 C1106 1.013 . S
C3093 C686 1.070 . S
