# Generated by pormake.
# Topology anh, (6,3)-cn, num edge types: 1
# Building blocks:
#     Node 0, Type 0, BuildingBlock: BETDIP_clean_sbu_0, # of connection points: 6
#     Node 1, Type 0, BuildingBlock: BETDIP_clean_sbu_0, # of connection points: 6
#     Node 2, Type 0, BuildingBlock: BETDIP_clean_sbu_0, # of connection points: 6
#     Node 3, Type 1, BuildingBlock: OLANEW_clean_sbu_2, # of connection points: 3
#     Node 4, Type 1, BuildingBlock: OLANEW_clean_sbu_2, # of connection points: 3
#     Node 5, Type 1, BuildingBlock: OLANEW_clean_sbu_2, # of connection points: 3
#     Node 6, Type 1, BuildingBlock: OLANEW_clean_sbu_2, # of connection points: 3
#     Node 7, Type 1, BuildingBlock: OLANEW_clean_sbu_2, # of connection points: 3
#     Node 8, Type 1, BuildingBlock: OLANEW_clean_sbu_2, # of connection points: 3
#     Edge 9, Type (0, 1), BuildingBlock: FUNLAD_clean_linker_0, # of connection points: 2
#     Edge 10, Type (0, 1), BuildingBlock: FUNLAD_clean_linker_0, # of connection points: 2
#     Edge 11, Type (0, 1), BuildingBlock: FUNLAD_clean_linker_0, # of connection points: 2
#     Edge 12, Type (0, 1), BuildingBlock: FUNLAD_clean_linker_0, # of connection points: 2
#     Edge 13, Type (0, 1), BuildingBlock: FUNLAD_clean_linker_0, # of connection points: 2
#     Edge 14, Type (0, 1), BuildingBlock: FUNLAD_clean_linker_0, # of connection points: 2
#     Edge 15, Type (0, 1), BuildingBlock: FUNLAD_clean_linker_0, # of connection points: 2
#     Edge 16, Type (0, 1), BuildingBlock: FUNLAD_clean_linker_0, # of connection points: 2
#     Edge 17, Type (0, 1), BuildingBlock: FUNLAD_clean_linker_0, # of connection points: 2
#     Edge 18, Type (0, 1), BuildingBlock: FUNLAD_clean_linker_0, # of connection points: 2
#     Edge 19, Type (0, 1), BuildingBlock: FUNLAD_clean_linker_0, # of connection points: 2
#     Edge 20, Type (0, 1), BuildingBlock: FUNLAD_clean_linker_0, # of connection points: 2
#     Edge 21, Type (0, 1), BuildingBlock: FUNLAD_clean_linker_0, # of connection points: 2
#     Edge 22, Type (0, 1), BuildingBlock: FUNLAD_clean_linker_0, # of connection points: 2
#     Edge 23, Type (0, 1), BuildingBlock: FUNLAD_clean_linker_0, # of connection points: 2
#     Edge 24, Type (0, 1), BuildingBlock: FUNLAD_clean_linker_0, # of connection points: 2
#     Edge 25, Type (0, 1), BuildingBlock: FUNLAD_clean_linker_0, # of connection points: 2
#     Edge 26, Type (0, 1), BuildingBlock: FUNLAD_clean_linker_0, # of connection points: 2
# Relax obj value: 0.190
# Max RMSD: 0.124
# Mean RMSD: 0.110
data_MOF--net-anh--node1-BETDIP_clean_sbu_0--node2-OLANEW_clean_sbu_2--edge1-FUNLAD_clean_linker_0
_symmetry_space_group_name_H-M    P1
_symmetry_Int_Tables_number       1
_symmetry_cell_setting            triclinic
loop_
_symmetry_equiv_pos_as_xyz
'x, y, z'
_cell_length_a     41.365641
_cell_length_b     41.425461
_cell_length_c     57.665188
_cell_angle_alpha  89.893371
_cell_angle_beta   89.554135
_cell_angle_gamma 120.19111
loop_
_atom_site_label
_atom_site_type_symbol
_atom_site_fract_x
_atom_site_fract_y
_atom_site_fract_z
_atom_type_partial_charge
Tb0 Tb 0.05512 0.54853 0.1839 0.0
Tb1 Tb 1.02213 0.472 0.16561 0.0
C2 C 0.09073 0.60612 0.20806 0.0
C3 C 0.12986 0.63649 0.20986 0.0
C4 C 0.13757 0.67351 0.20898 0.0
C5 C 0.17441 0.70305 0.2093 0.0
C6 C 0.20431 0.69616 0.21064 0.0
C7 C 0.1966 0.65905 0.21201 0.0
C8 C 0.15964 0.6294 0.2115 0.0
C9 C 0.04628 0.54448 0.13876 0.0
C10 C 0.10875 0.51582 0.16828 0.0
C11 C 0.98358 0.41246 0.14378 0.0
C12 C 0.94314 0.38552 0.14383 0.0
C13 C 0.92453 0.37131 0.12283 0.0
C14 C 0.88568 0.34764 0.12262 0.0
C15 C 0.86503 0.3376 0.14348 0.0
C16 C 0.88381 0.35171 0.16449 0.0
C17 C 0.92244 0.37565 0.16466 0.0
C18 C 0.02955 0.47788 0.21122 0.0
C19 C 0.96908 0.50633 0.176 0.0
O20 O 0.08278 0.57272 0.21495 0.0
O21 O 0.07423 0.60539 0.18866 0.0
O22 O 0.05684 0.52606 0.15075 0.0
O23 O 0.04355 0.56833 0.15187 0.0
O24 O 0.105 0.5413 0.18023 0.0
O25 O 0.07963 0.48788 0.15815 0.0
O26 O 0.99339 0.44546 0.13527 0.0
O27 O 1.00135 0.41447 0.16289 0.0
O28 O 1.01907 0.49506 0.19819 0.0
O29 O 0.03449 0.45461 0.19891 0.0
O30 O 0.97412 0.48104 0.16516 0.0
O31 O 0.9965 0.53347 0.18791 0.0
H32 H 0.11503 0.67957 0.20776 0.0
H33 H 0.1795 0.73138 0.20857 0.0
H34 H 0.21915 0.65298 0.21294 0.0
H35 H 0.15443 0.60104 0.21212 0.0
H36 H 0.93998 0.37896 0.10657 0.0
H37 H 0.87181 0.3371 0.10621 0.0
H38 H 0.86846 0.34493 0.18077 0.0
H39 H 0.93601 0.38686 0.18107 0.0
Tb40 Tb 0.55619 0.02909 0.5126 0.0
Tb41 Tb 0.50832 0.06278 0.50371 0.0
C42 C 0.58465 0.99322 0.52941 0.0
C43 C 0.58107 0.95682 0.52491 0.0
C44 C 0.60526 0.94737 0.53586 0.0
C45 C 0.6048 0.91446 0.53003 0.0
C46 C 0.58013 0.89052 0.5131 0.0
C47 C 0.55519 0.89968 0.50258 0.0
C48 C 0.55577 0.9327 0.50839 0.0
C49 C 0.55154 0.04302 0.46868 0.0
C50 C 0.4671 0.97557 0.50412 0.0
C51 C 0.48112 0.10136 0.48932 0.0
C52 C 0.4973 0.14018 0.48133 0.0
C53 C 0.47746 0.1499 0.46596 0.0
C54 C 0.49215 0.1871 0.459 0.0
C55 C 0.52709 0.215 0.46718 0.0
C56 C 0.54727 0.20487 0.48209 0.0
C57 C 0.53243 0.16785 0.48919 0.0
C58 C 0.51303 0.04715 0.54755 0.0
C59 C 0.59719 0.1145 0.50634 0.0
O60 O 0.55532 0.99289 0.53845 0.0
O61 O 0.59971 0.01733 0.51241 0.0
O62 O 0.52587 0.03147 0.48364 0.0
O63 O 0.58043 0.04359 0.47759 0.0
O64 O 0.4994 0.97893 0.51085 0.0
O65 O 0.4645 1.00519 0.4985 0.0
O66 O 0.4874 0.07959 0.47598 0.0
O67 O 0.48582 0.09694 0.51126 0.0
O68 O 0.53943 0.06096 0.5329 0.0
O69 O 0.48302 0.04326 0.53806 0.0
O70 O 0.56571 0.109 0.49695 0.0
O71 O 0.59779 0.08751 0.51825 0.0
H72 H 0.62504 0.96583 0.54859 0.0
H73 H 0.62387 0.90782 0.53872 0.0
H74 H 0.53605 0.88191 0.48938 0.0
H75 H 0.53718 0.93989 0.49958 0.0
H76 H 0.45037 0.12883 0.45965 0.0
H77 H 0.47608 0.19413 0.44742 0.0
H78 H 0.57393 0.22579 0.48902 0.0
H79 H 0.54805 0.16106 0.50126 0.0
Tb80 Tb 0.47294 0.47851 0.84521 0.0
Tb81 Tb 0.55452 0.52131 0.83759 0.0
C82 C 0.40833 0.45776 0.86032 0.0
C83 C 0.38658 0.4769 0.8605 0.0
C84 C 0.36156 0.47076 0.87875 0.0
C85 C 0.34357 0.49165 0.88012 0.0
C86 C 0.35047 0.51906 0.86326 0.0
C87 C 0.37493 0.52445 0.8447 0.0
C88 C 0.39285 0.50361 0.84336 0.0
C89 C 0.49444 0.48293 0.80179 0.0
C90 C 0.51454 0.56757 0.83569 0.0
C91 C 0.621 0.54552 0.82441 0.0
C92 C 0.64933 0.53494 0.82886 0.0
C93 C 0.68718 0.56122 0.82522 0.0
C94 C 0.71469 0.55273 0.83131 0.0
C95 C 0.70466 0.51766 0.8409 0.0
C96 C 0.66667 0.49098 0.84392 0.0
C97 C 0.63921 0.49974 0.8382 0.0
C98 C 0.5331 0.51706 0.88134 0.0
C99 C 0.51172 0.43137 0.84141 0.0
O100 O 0.43802 0.47281 0.87342 0.0
O101 O 0.41512 0.4488 0.83985 0.0
O102 O 0.50813 0.50857 0.81649 0.0
O103 O 0.4657 0.45382 0.81067 0.0
O104 O 0.48536 0.53759 0.84503 0.0
O105 O 0.54356 0.56555 0.8278 0.0
O106 O 0.59185 0.52184 0.81253 0.0
O107 O 0.61171 0.55842 0.84235 0.0
O108 O 0.51935 0.49093 0.86681 0.0
O109 O 0.56118 0.54587 0.87186 0.0
O110 O 0.54176 0.46298 0.8348 0.0
O111 O 0.48172 0.43122 0.8497 0.0
H112 H 0.35655 0.45039 0.89218 0.0
H113 H 0.32459 0.48665 0.89451 0.0
H114 H 0.38133 0.54574 0.83166 0.0
H115 H 0.41241 0.50911 0.82923 0.0
H116 H 0.69548 0.58862 0.8182 0.0
H117 H 0.74386 0.5737 0.82879 0.0
H118 H 0.65831 0.46395 0.85157 0.0
H119 H 0.61021 0.47943 0.84165 0.0
O120 O 0.55262 0.18927 0.26869 0.0
Cd121 Cd 0.57176 0.21097 0.22897 0.0
O122 O 0.53536 0.1336 0.25532 0.0
Cd123 Cd 0.51671 0.07406 0.2577 0.0
O124 O 0.4852 1.01319 0.25802 0.0
C125 C 0.48447 0.9953 0.23997 0.0
O126 O 0.50412 1.014 0.22166 0.0
C127 C 0.53948 0.15465 0.27243 0.0
C128 C 0.5465 0.20624 0.20262 0.0
O129 O 0.53323 0.2277 0.20779 0.0
O130 O 0.52415 0.17056 0.20288 0.0
O131 O 0.631 0.5484 0.59383 0.0
Cd132 Cd 0.65991 0.57951 0.55693 0.0
O133 O 0.5732 0.53075 0.58371 0.0
Cd134 Cd 0.58788 0.55793 0.54993 0.0
O135 O 0.58925 0.59639 0.52373 0.0
C136 C 0.61974 0.62497 0.51748 0.0
O137 O 0.65137 0.62974 0.52571 0.0
C138 C 0.59619 0.53176 0.5986 0.0
C139 C 0.65407 0.52794 0.52389 0.0
O140 O 0.63015 0.5389 0.52489 0.0
O141 O 0.68118 0.5419 0.53825 0.0
O142 O 0.14847 0.71254 0.94562 0.0
Cd143 Cd 0.17304 0.74787 0.9096 0.0
O144 O 0.11078 0.66552 0.92379 0.0
Cd145 Cd 0.06632 0.60831 0.9172 0.0
O146 O 1.01044 0.56568 0.90682 0.0
C147 C 0.98506 0.54771 0.92194 0.0
O148 O 0.99384 0.55283 0.944 0.0
C149 C 0.12256 0.67873 0.94383 0.0
C150 C 0.20825 0.71536 0.88621 0.0
O151 O 0.2264 0.74285 0.89997 0.0
O152 O 0.17364 0.70424 0.88276 0.0
O153 O 0.08165 0.56795 0.42767 0.0
Cd154 Cd 0.10629 0.60059 0.46535 0.0
O155 O 0.02711 0.52106 0.43952 0.0
Cd156 Cd 0.97131 0.46815 0.43966 0.0
O157 O 0.91552 0.41735 0.44727 0.0
C158 C 0.91276 0.39281 0.46182 0.0
O159 O 0.94333 0.39781 0.47188 0.0
C160 C 0.05063 0.5384 0.42311 0.0
C161 C 0.17329 0.67137 0.46645 0.0
O162 O 0.17404 0.64093 0.46856 0.0
O163 O 0.14136 0.66849 0.46294 0.0
O164 O 0.50331 0.95986 0.76445 0.0
Cd165 Cd 0.49744 0.92761 0.80229 0.0
O166 O 0.50116 1.00915 0.77702 0.0
Cd167 Cd 0.50259 0.0641 0.77817 0.0
O168 O 0.50516 0.11844 0.78601 0.0
C169 C 0.479 0.11927 0.7974 0.0
O170 O 0.45009 0.08744 0.80419 0.0
C171 C 0.50374 0.99043 0.76018 0.0
C172 C 0.49545 0.85787 0.80404 0.0
O173 O 0.46555 0.85951 0.80142 0.0
O174 O 0.52645 0.88896 0.80485 0.0
O175 O 0.58061 0.51708 0.10111 0.0
Cd176 Cd 0.60308 0.51057 0.13994 0.0
O177 O 0.52758 0.51526 0.11001 0.0
Cd178 Cd 0.47538 0.51883 0.10743 0.0
O179 O 0.42449 0.5236 0.11458 0.0
C180 C 0.39708 0.49793 0.12607 0.0
O181 O 0.39942 0.46895 0.13302 0.0
C182 C 0.55145 0.51794 0.09476 0.0
C183 C 0.67384 0.51499 0.14347 0.0
O184 O 0.64387 0.48379 0.13985 0.0
O185 O 0.67079 0.54426 0.14462 0.0
C186 C 0.14901 0.49112 0.15275 0.0
C187 C 0.1463 0.51951 0.16445 0.0
C188 C 0.18374 0.49407 0.14838 0.0
C189 C 0.21713 0.52548 0.15568 0.0
C190 C 0.21457 0.55412 0.16719 0.0
C191 C 0.17961 0.55111 0.17166 0.0
C192 C 0.25477 0.52949 0.15081 0.0
C193 C 0.25981 0.49985 0.14799 0.0
C194 C 0.29637 0.50176 0.14288 0.0
C195 C 0.29899 0.46978 0.14728 0.0
C196 C 0.3316 0.46892 0.14193 0.0
C197 C 0.36273 0.49992 0.13169 0.0
H198 H 0.32655 0.55805 0.12863 0.0
C199 C 0.36033 0.53211 0.12717 0.0
C200 C 0.32756 0.53309 0.13275 0.0
H201 H 0.38372 0.55652 0.11928 0.0
H202 H 0.12416 0.46644 0.14671 0.0
H203 H 0.18417 0.47187 0.13878 0.0
H204 H 0.23971 0.57888 0.17284 0.0
H205 H 0.17876 0.57368 0.18054 0.0
H206 H 0.27891 0.55751 0.15043 0.0
H207 H 0.23587 0.47203 0.15046 0.0
H208 H 0.27554 0.44508 0.1549 0.0
H209 H 0.33215 0.44357 0.14568 0.0
C210 C 0.66682 0.15749 0.51135 0.0
C211 C 0.63265 0.15059 0.50192 0.0
C212 C 0.70043 0.19045 0.5059 0.0
C213 C 0.70086 0.21743 0.49069 0.0
C214 C 0.66651 0.21075 0.48172 0.0
C215 C 0.63301 0.17785 0.48713 0.0
C216 C 0.73595 0.253 0.48393 0.0
C217 C 0.77108 0.25904 0.4866 0.0
C218 C 0.80645 0.29428 0.47989 0.0
C219 C 0.84046 0.29977 0.48866 0.0
C220 C 0.87454 0.33159 0.48279 0.0
C221 C 0.87593 0.35903 0.46773 0.0
H222 H 0.78247 0.31851 0.45707 0.0
C223 C 0.84201 0.35363 0.45872 0.0
C224 C 0.80769 0.3217 0.46471 0.0
H225 H 0.84195 0.37407 0.44701 0.0
H226 H 0.66773 0.13728 0.52286 0.0
H227 H 0.72578 0.19454 0.51385 0.0
H228 H 0.66558 0.23087 0.47012 0.0
H229 H 0.60745 0.17358 0.47933 0.0
H230 H 0.73227 0.27475 0.47612 0.0
H231 H 0.77466 0.23716 0.4943 0.0
H232 H 0.84075 0.2793 0.50026 0.0
H233 H 0.89992 0.33452 0.49009 0.0
C234 C 0.48297 0.60659 0.8386 0.0
C235 C 0.51393 0.60304 0.83208 0.0
C236 C 0.48295 0.64018 0.83462 0.0
C237 C 0.51403 0.6711 0.824 0.0
C238 C 0.5449 0.66738 0.81776 0.0
C239 C 0.54486 0.63401 0.82165 0.0
C240 C 0.51654 0.70809 0.81957 0.0
C241 C 0.48748 0.71446 0.82023 0.0
C242 C 0.49087 0.75177 0.81532 0.0
C243 C 0.45828 0.75323 0.81062 0.0
C244 C 0.45982 0.78741 0.80652 0.0
C245 C 0.49406 0.82132 0.80709 0.0
H246 H 0.55102 0.78658 0.82001 0.0
C247 C 0.52674 0.81999 0.81173 0.0
C248 C 0.52521 0.78581 0.81587 0.0
H249 H 0.55358 0.84551 0.81257 0.0
H250 H 0.45876 0.58348 0.84684 0.0
H251 H 0.45878 0.64176 0.8402 0.0
H252 H 0.56938 0.6905 0.8097 0.0
H253 H 0.56932 0.63263 0.81639 0.0
H254 H 0.54393 0.73088 0.8146 0.0
H255 H 0.45957 0.69122 0.82368 0.0
H256 H 0.43135 0.72775 0.81018 0.0
H257 H 0.43401 0.78723 0.80315 0.0
C258 C 0.92667 0.53372 0.18039 0.0
C259 C 0.93183 0.50372 0.17425 0.0
C260 C 0.89201 0.53169 0.177 0.0
C261 C 0.86159 0.49945 0.16746 0.0
C262 C 0.86665 0.46923 0.16198 0.0
C263 C 0.90121 0.47138 0.16514 0.0
C264 C 0.82392 0.49543 0.16337 0.0
C265 C 0.81759 0.52432 0.16085 0.0
C266 C 0.7801 0.52054 0.15599 0.0
C267 C 0.77713 0.55294 0.15616 0.0
C268 C 0.74296 0.55123 0.15183 0.0
C269 C 0.71056 0.51699 0.14709 0.0
H270 H 0.74811 0.46044 0.15017 0.0
C271 C 0.71344 0.48456 0.14661 0.0
C272 C 0.74764 0.48623 0.15094 0.0
H273 H 0.68913 0.45767 0.14299 0.0
H274 H 0.94958 0.55905 0.18746 0.0
H275 H 0.88922 0.55529 0.1821 0.0
H276 H 0.84385 0.44386 0.15483 0.0
H277 H 0.90389 0.44757 0.16029 0.0
H278 H 0.80085 0.46712 0.16165 0.0
H279 H 0.84114 0.55255 0.16214 0.0
H280 H 0.80138 0.57986 0.15983 0.0
H281 H 0.74194 0.57684 0.15238 0.0
C282 C 0.39928 0.93341 0.49392 0.0
C283 C 0.43364 0.93757 0.50108 0.0
C284 C 0.36801 0.89791 0.49035 0.0
C285 C 0.37017 0.8653 0.4937 0.0
C286 C 0.40442 0.86954 0.50119 0.0
C287 C 0.4357 0.90507 0.50479 0.0
C288 C 0.3375 0.82655 0.49024 0.0
C289 C 0.30589 0.8186 0.47873 0.0
C290 C 0.27274 0.78013 0.47558 0.0
C291 C 0.23856 0.77679 0.46885 0.0
C292 C 0.20661 0.7417 0.46566 0.0
C293 C 0.20786 0.70869 0.46888 0.0
H294 H 0.29994 0.748 0.4831 0.0
C295 C 0.24217 0.71186 0.4752 0.0
C296 C 0.27419 0.74706 0.47851 0.0
H297 H 0.24427 0.68708 0.47778 0.0
H298 H 0.3964 0.95768 0.49104 0.0
H299 H 0.34224 0.89648 0.48527 0.0
H300 H 0.40714 0.84517 0.50415 0.0
H301 H 0.46157 0.907 0.51033 0.0
H302 H 0.33999 0.80378 0.49756 0.0
H303 H 0.30343 0.84134 0.47135 0.0
H304 H 0.23638 0.80154 0.46625 0.0
H305 H 0.1808 0.7405 0.46078 0.0
C306 C 0.48002 0.36069 0.84365 0.0
C307 C 0.51156 0.39546 0.83803 0.0
C308 C 0.47947 0.32708 0.83888 0.0
C309 C 0.51051 0.32736 0.82826 0.0
C310 C 0.54217 0.36219 0.82314 0.0
C311 C 0.54265 0.3956 0.8278 0.0
C312 C 0.51174 0.2926 0.82239 0.0
C313 C 0.48151 0.2578 0.82139 0.0
C314 C 0.4827 0.22315 0.81515 0.0
C315 C 0.45134 0.18823 0.82053 0.0
C316 C 0.45038 0.1549 0.81479 0.0
C317 C 0.48068 0.15527 0.80326 0.0
H318 H 0.53757 0.2497 0.79843 0.0
C319 C 0.51208 0.19015 0.79765 0.0
C320 C 0.51313 0.22366 0.80349 0.0
H321 H 0.53588 0.19159 0.78868 0.0
H322 H 0.45554 0.35936 0.85155 0.0
H323 H 0.45472 0.30117 0.84372 0.0
H324 H 0.56664 0.36365 0.81509 0.0
H325 H 0.56738 0.42158 0.82294 0.0
H326 H 0.53909 0.29636 0.81837 0.0
H327 H 0.45416 0.25395 0.82548 0.0
H328 H 0.42733 0.18663 0.82932 0.0
H329 H 0.42561 0.12873 0.8194 0.0
C330 C 0.61531 0.85774 0.5032 0.0
C331 C 0.58097 0.85647 0.50627 0.0
C332 C 0.61638 0.82537 0.49813 0.0
C333 C 0.583 0.79091 0.49586 0.0
C334 C 0.54868 0.78988 0.49837 0.0
C335 C 0.54763 0.82233 0.5034 0.0
C336 C 0.58277 0.75509 0.49354 0.0
C337 C 0.61242 0.75245 0.48627 0.0
C338 C 0.61443 0.71799 0.4897 0.0
C339 C 0.64921 0.72148 0.49463 0.0
C340 C 0.65139 0.69059 0.50226 0.0
C341 C 0.61876 0.65561 0.50491 0.0
H342 H 0.5552 0.67827 0.48554 0.0
C343 C 0.58443 0.65144 0.49782 0.0
C344 C 0.58227 0.6823 0.49022 0.0
H345 H 0.55886 0.62466 0.49916 0.0
H346 H 0.64148 0.88376 0.50504 0.0
H347 H 0.64347 0.82747 0.49699 0.0
H348 H 0.52254 0.76369 0.49697 0.0
H349 H 0.52073 0.82043 0.50583 0.0
H350 H 0.55777 0.73027 0.49976 0.0
H351 H 0.63758 0.77711 0.48012 0.0
H352 H 0.6745 0.74859 0.49402 0.0
H353 H 0.67836 0.69466 0.50729 0.0
C354 C 0.76141 0.53515 0.86426 0.0
C355 C 0.73382 0.50995 0.8492 0.0
C356 C 0.78889 0.52814 0.87249 0.0
C357 C 0.78951 0.49587 0.86567 0.0
C358 C 0.76221 0.47087 0.85037 0.0
C359 C 0.73417 0.47756 0.84245 0.0
C360 C 0.82023 0.48977 0.87311 0.0
C361 C 0.83517 0.49963 0.89437 0.0
C362 C 0.87152 0.50343 0.90095 0.0
C363 C 0.88033 0.50579 0.92458 0.0
C364 C 0.91684 0.51745 0.93151 0.0
C365 C 0.94541 0.52752 0.91489 0.0
H366 H 0.89409 0.50971 0.86597 0.0
C367 C 0.93606 0.52252 0.89128 0.0
C368 C 0.89949 0.5106 0.88434 0.0
H369 H 0.95742 0.52983 0.87805 0.0
H370 H 0.76159 0.56023 0.86978 0.0
H371 H 0.8102 0.54854 0.88373 0.0
H372 H 0.76249 0.44612 0.84463 0.0
H373 H 0.71319 0.45783 0.83076 0.0
H374 H 0.83129 0.47815 0.86061 0.0
H375 H 0.82128 0.50774 0.90725 0.0
H376 H 0.85933 0.50048 0.93772 0.0
H377 H 0.92305 0.52083 0.94985 0.0
C378 C 0.26944 0.72969 0.22657 0.0
C379 C 0.24331 0.72786 0.21042 0.0
C380 C 0.30532 0.76116 0.22738 0.0
C381 C 0.31566 0.79127 0.21196 0.0
C382 C 0.29009 0.78849 0.19513 0.0
C383 C 0.25423 0.75728 0.19446 0.0
C384 C 0.35223 0.8265 0.2132 0.0
C385 C 0.37122 0.83975 0.23308 0.0
C386 C 0.40347 0.87836 0.23506 0.0
C387 C 0.40951 0.89694 0.25629 0.0
C388 C 0.43672 0.93464 0.25814 0.0
C389 C 0.45876 0.95445 0.2388 0.0
H390 H 0.42412 0.88376 0.19966 0.0
C391 C 0.45434 0.93523 0.21793 0.0
C392 C 0.42702 0.89755 0.21607 0.0
H393 H 0.47124 0.94953 0.2028 0.0
H394 H 0.26178 0.70731 0.23901 0.0
H395 H 0.32468 0.76185 0.24015 0.0
H396 H 0.29746 0.81107 0.18287 0.0
H397 H 0.23488 0.7563 0.18154 0.0
H398 H 0.36133 0.84409 0.19778 0.0
H399 H 0.36017 0.82379 0.24903 0.0
H400 H 0.39207 0.8827 0.27126 0.0
H401 H 0.43969 0.94849 0.27455 0.0
C402 C 0.5794 0.27926 0.4571 0.0
C403 C 0.54128 0.25498 0.46197 0.0
C404 C 0.59391 0.31784 0.45612 0.0
C405 C 0.57055 0.33287 0.46035 0.0
C406 C 0.53197 0.30835 0.46334 0.0
C407 C 0.51746 0.2698 0.4642 0.0
C408 C 0.58532 0.37345 0.4639 0.0
C409 C 0.62037 0.39699 0.47122 0.0
C410 C 0.63198 0.43408 0.48157 0.0
C411 C 0.66218 0.44923 0.49696 0.0
C412 C 0.67057 0.48087 0.50994 0.0
C413 C 0.64891 0.49808 0.50776 0.0
H414 H 0.58981 0.44348 0.46564 0.0
C415 C 0.62044 0.48464 0.49116 0.0
C416 C 0.61221 0.45313 0.47804 0.0
H417 H 0.60375 0.49781 0.48874 0.0
H418 H 0.59822 0.26845 0.45474 0.0
H419 H 0.62351 0.33562 0.4527 0.0
H420 H 0.51323 0.31909 0.46637 0.0
H421 H 0.48796 0.25182 0.46801 0.0
H422 H 0.56491 0.38256 0.4638 0.0
H423 H 0.63993 0.38694 0.47289 0.0
H424 H 0.67824 0.43549 0.49983 0.0
H425 H 0.69296 0.49078 0.52243 0.0
C426 C 0.32057 0.55334 0.84608 0.0
C427 C 0.33391 0.54342 0.8656 0.0
C428 C 0.30707 0.5781 0.84813 0.0
C429 C 0.30651 0.59332 0.86983 0.0
C430 C 0.31973 0.58325 0.8893 0.0
C431 C 0.33314 0.55848 0.88725 0.0
C432 C 0.29374 0.62073 0.87289 0.0
C433 C 0.27061 0.6245 0.85825 0.0
C434 C 0.2566 0.65049 0.8631 0.0
C435 C 0.22023 0.64063 0.85649 0.0
C436 C 0.2049 0.66261 0.86311 0.0
C437 C 0.22592 0.69508 0.87625 0.0
H438 H 0.30712 0.69345 0.87947 0.0
C439 C 0.2632 0.70625 0.88147 0.0
C440 C 0.27844 0.68425 0.87491 0.0
H441 H 0.28032 0.7314 0.89128 0.0
H442 H 0.32075 0.54212 0.82916 0.0
H443 H 0.29798 0.5858 0.8326 0.0
H444 H 0.3199 0.59476 0.90619 0.0
H445 H 0.34385 0.55194 0.90254 0.0
H446 H 0.30213 0.63701 0.88873 0.0
H447 H 0.25894 0.60594 0.84356 0.0
H448 H 0.20305 0.61504 0.84708 0.0
H449 H 0.17616 0.6534 0.85866 0.0
C450 C 0.80161 0.3209 0.12882 0.0
C451 C 0.82385 0.31328 0.14357 0.0
C452 C 0.76258 0.30028 0.13075 0.0
C453 C 0.74522 0.27157 0.14743 0.0
C454 C 0.76754 0.26272 0.16122 0.0
C455 C 0.80644 0.28353 0.15947 0.0
C456 C 0.70427 0.2513 0.15184 0.0
C457 C 0.68285 0.26699 0.1489 0.0
C458 C 0.64452 0.25014 0.15892 0.0
C459 C 0.63209 0.27384 0.16733 0.0
C460 C 0.59901 0.25942 0.18035 0.0
C461 C 0.57738 0.22086 0.18492 0.0
H462 H 0.62959 0.19212 0.15503 0.0
C463 C 0.58845 0.1969 0.17496 0.0
C464 C 0.62153 0.21134 0.16198 0.0
H465 H 0.57249 0.16705 0.17806 0.0
H466 H 0.8144 0.34368 0.11638 0.0
H467 H 0.74619 0.30718 0.11939 0.0
H468 H 0.75488 0.24051 0.17405 0.0
H469 H 0.82297 0.27677 0.17082 0.0
H470 H 0.69261 0.22458 0.16077 0.0
H471 H 0.69537 0.29526 0.14207 0.0
H472 H 0.64912 0.30382 0.16503 0.0
H473 H 0.59146 0.27874 0.1878 0.0
C474 C 0.03603 0.56912 0.10203 0.0
C475 C 0.04995 0.54871 0.11338 0.0
C476 C 0.04365 0.57807 0.07855 0.0
C477 C 0.06549 0.56682 0.0659 0.0
C478 C 0.07823 0.54518 0.07709 0.0
C479 C 0.0702 0.53584 0.10061 0.0
C480 C 0.07892 0.58097 0.04202 0.0
C481 C 0.06054 0.59153 0.02749 0.0
C482 C 0.07717 0.61202 1.00547 0.0
C483 C 0.05353 0.60919 0.98728 0.0
C484 C 0.06828 0.63041 0.96701 0.0
C485 C 0.10687 0.65532 0.96478 0.0
H486 H 0.13481 0.64084 0.01711 0.0
C487 C 0.1305 0.65855 0.98304 0.0
C488 C 0.11587 0.63696 1.00315 0.0
H489 H 0.16035 0.67783 0.98177 0.0
H490 H 1.02036 0.57938 0.11155 0.0
H491 H 0.03409 0.59555 0.07078 0.0
H492 H 0.09533 0.53641 0.06779 0.0
H493 H 0.08136 0.52016 0.10901 0.0
H494 H 0.10538 0.5837 0.03653 0.0
H495 H 0.03243 0.58541 0.0319 0.0
H496 H 1.02356 0.5908 0.98885 0.0
H497 H 0.04937 0.62826 0.95344 0.0
C498 C 0.51656 0.05031 0.43587 0.0
C499 C 0.55055 0.05748 0.44553 0.0
C500 C 0.51602 0.06556 0.41431 0.0
C501 C 0.54958 0.08798 0.40192 0.0
C502 C 0.58347 0.09486 0.41168 0.0
C503 C 0.58395 0.07964 0.43319 0.0
C504 C 0.55088 0.10557 0.37917 0.0
C505 C 0.52139 0.09382 0.36494 0.0
C506 C 0.5245 0.11085 0.34172 0.0
C507 C 0.50042 0.08884 0.32402 0.0
C508 C 0.50436 0.10329 0.30157 0.0
C509 C 0.53244 0.14007 0.29645 0.0
H510 H 0.56907 0.16678 0.35026 0.0
C511 C 0.55499 0.16282 0.31445 0.0
C512 C 0.55108 0.14842 0.33687 0.0
H513 H 0.57646 0.19151 0.31108 0.0
H514 H 0.49039 0.03303 0.44503 0.0
H515 H 0.48937 0.06022 0.40775 0.0
H516 H 0.60976 0.11216 0.40262 0.0
H517 H 0.61057 0.08574 0.44034 0.0
H518 H 0.57806 0.12796 0.3734 0.0
H519 H 0.49489 0.06929 0.36949 0.0
H520 H 0.47908 0.06011 0.32742 0.0
H521 H 0.48539 0.08567 0.2883 0.0
C522 C 0.49662 0.45663 0.76325 0.0
C523 C 0.50582 0.48772 0.77724 0.0
C524 C 0.50722 0.46154 0.73982 0.0
C525 C 0.52647 0.4976 0.73004 0.0
C526 C 0.53539 0.52854 0.74406 0.0
C527 C 0.52571 0.52371 0.76755 0.0
C528 C 0.53571 0.50373 0.70503 0.0
C529 C 0.54827 0.4845 0.6929 0.0
C530 C 0.55891 0.49321 0.66816 0.0
C531 C 0.59271 0.49705 0.65999 0.0
C532 C 0.60471 0.50892 0.63718 0.0
C533 C 0.58253 0.51611 0.62205 0.0
H534 H 0.50961 0.49567 0.65864 0.0
C535 C 0.54772 0.5102 0.62997 0.0
C536 C 0.53616 0.49914 0.65284 0.0
H537 H 0.52992 0.51539 0.61875 0.0
H538 H 0.48133 0.42862 0.77044 0.0
H539 H 0.49948 0.43717 0.72926 0.0
H540 H 0.55002 0.55655 0.73682 0.0
H541 H 0.53303 0.54812 0.77799 0.0
H542 H 0.53444 0.52662 0.69667 0.0
H543 H 0.55361 0.46439 0.70163 0.0
H544 H 0.61051 0.49234 0.67152 0.0
H545 H 0.63153 0.51297 0.6315 0.0
C546 C 0.48612 0.03108 0.58772 0.0
C547 C 0.51678 0.042 0.57263 0.0
C548 C 0.48938 0.02669 0.61152 0.0
C549 C 0.52349 0.03313 0.62082 0.0
C550 C 0.55397 0.04352 0.60561 0.0
C551 C 0.55077 0.04818 0.5818 0.0
C552 C 0.52764 0.02733 0.64597 0.0
C553 C 0.50623 0.02967 0.66299 0.0
C554 C 0.50862 0.02169 0.68803 0.0
C555 C 0.49377 0.0352 0.70495 0.0
C556 C 0.49309 0.02613 0.72847 0.0
C557 C 0.507 1.00303 0.73564 0.0
H558 H 0.53366 0.98693 0.68291 0.0
C559 C 0.52208 0.98972 0.71874 0.0
C560 C 0.52293 0.99889 0.69528 0.0
H561 H 0.53281 0.97162 0.72361 0.0
H562 H 0.45947 0.02585 0.58114 0.0
H563 H 0.46484 0.01746 0.62242 0.0
H564 H 0.58047 0.04825 0.61218 0.0
H565 H 0.57485 0.05651 0.57057 0.0
H566 H 0.54992 0.02196 0.65053 0.0
H567 H 0.48634 0.03847 0.65858 0.0
H568 H 0.48208 0.0524 0.69991 0.0
H569 H 0.48032 0.03604 0.74082 0.0
C570 C 0.54174 0.54639 0.92012 0.0
C571 C 0.52476 0.51399 0.90655 0.0
C572 C 0.53696 0.54431 0.9442 0.0
C573 C 0.51543 0.50959 0.95545 0.0
C574 C 0.4969 0.4773 0.94174 0.0
C575 C 0.50156 0.47944 0.9175 0.0
C576 C 0.51261 0.50637 0.98135 0.0
C577 C 0.54028 0.53084 0.99522 0.0
C578 C 0.54109 0.5274 0.02094 0.0
C579 C 0.57615 0.54442 0.03166 0.0
C580 C 0.57907 0.54182 0.05559 0.0
C581 C 0.54696 0.52278 0.06967 0.0
H582 H 0.48115 0.49595 0.02739 0.0
C583 C 0.51162 0.50667 0.05919 0.0
C584 C 0.50868 0.50875 0.03498 0.0
H585 H 0.48637 0.49155 0.06957 0.0
H586 H 0.55921 0.57353 0.91214 0.0
H587 H 0.55039 0.57008 0.95389 0.0
H588 H 0.4797 0.45022 0.94985 0.0
H589 H 0.48787 0.45404 0.90743 0.0
H590 H 0.48883 0.48183 0.98895 0.0
H591 H 0.56549 0.55326 0.98724 0.0
H592 H 0.6016 0.55928 0.0214 0.0
H593 H 0.60671 0.55469 0.06308 0.0
C594 C 1.01905 0.50188 0.24876 0.0
C595 C 0.03265 0.48155 0.23677 0.0
C596 C 1.02215 0.50551 0.27293 0.0
C597 C 0.03923 0.48911 0.2856 0.0
C598 C 0.05309 0.46911 0.2735 0.0
C599 C 0.0495 0.46503 0.24939 0.0
C600 C 0.04521 0.49435 0.31112 0.0
C601 C 1.02243 0.49935 0.32572 0.0
C602 C 0.02987 0.50677 0.35102 0.0
C603 C 0.99988 0.49721 0.3665 0.0
C604 C 1.00626 0.5061 0.39012 0.0
C605 C 0.04289 0.52537 0.39871 0.0
H606 H 0.09043 0.53431 0.34836 0.0
C607 C 0.07285 0.53476 0.38324 0.0
C608 C 0.06647 0.5255 0.35974 0.0
H609 H 0.10145 0.54985 0.38924 0.0
H610 H 1.0061 0.51509 0.23945 0.0
H611 H 1.01205 0.52199 0.28152 0.0
H612 H 0.06674 0.45653 0.28275 0.0
H613 H 0.0604 0.44937 0.24058 0.0
H614 H 0.06873 0.49288 0.31813 0.0
H615 H 0.9969 0.49717 0.31909 0.0
H616 H 0.97141 0.4832 0.36024 0.0
H617 H 0.98262 0.49924 0.40141 0.0
loop_
_geom_bond_atom_site_label_1
_geom_bond_atom_site_label_2
_geom_bond_distance
_geom_bond_site_symmetry_2
_ccdc_geom_bond_type
Tb0 C2 2.809 . S
Tb0 O20 2.484 . S
Tb0 O21 2.440 . S
Tb0 O22 2.658 . S
Tb0 O23 2.409 . S
Tb0 O24 2.378 . S
Tb0 O28 2.325 . S
Tb0 O31 2.341 1_455 S
Tb1 C11 2.809 . S
Tb1 O22 2.325 1_655 S
Tb1 O25 2.341 1_655 S
Tb1 O26 2.484 . S
Tb1 O27 2.440 . S
Tb1 O28 2.658 1_655 S
Tb1 O29 2.409 . S
Tb1 O30 2.378 . S
C2 Tb0 2.809 . S
C2 C3 1.514 . S
C2 O20 1.248 . S
C2 O21 1.266 . S
C3 C2 1.514 . S
C3 C4 1.359 . S
C3 C8 1.348 . S
C4 C3 1.359 . S
C4 C5 1.380 . S
C4 H32 0.929 . S
C5 C4 1.380 . S
C5 C6 1.347 . S
C5 H33 0.931 . S
C6 C5 1.347 . S
C6 C7 1.369 . S
C7 C6 1.369 . S
C7 C8 1.408 . S
C7 H34 0.930 . S
C8 C3 1.348 . S
C8 C7 1.408 . S
C8 H35 0.930 . S
C9 O22 1.281 . S
C9 O23 1.254 . S
C10 O24 1.236 . S
C10 O25 1.266 . S
C11 Tb1 2.809 . S
C11 C12 1.514 . S
C11 O26 1.248 . S
C11 O27 1.266 . S
C12 C11 1.514 . S
C12 C13 1.359 . S
C12 C17 1.348 . S
C13 C12 1.359 . S
C13 C14 1.380 . S
C13 H36 0.929 . S
C14 C13 1.380 . S
C14 C15 1.347 . S
C14 H37 0.931 . S
C15 C14 1.347 . S
C15 C16 1.369 . S
C16 C15 1.369 . S
C16 C17 1.408 . S
C16 H38 0.930 . S
C17 C12 1.348 . S
C17 C16 1.408 . S
C17 H39 0.930 . S
C18 O28 1.281 . S
C18 O29 1.254 1_455 S
C19 O30 1.236 . S
C19 O31 1.266 . S
O20 Tb0 2.484 . S
O20 C2 1.248 . S
O21 Tb0 2.440 . S
O21 C2 1.266 . S
O22 Tb0 2.658 . S
O22 Tb1 2.325 1_455 S
O22 C9 1.281 . S
O23 Tb0 2.409 . S
O23 C9 1.254 . S
O24 Tb0 2.378 . S
O24 C10 1.236 . S
O25 Tb1 2.341 1_455 S
O25 C10 1.266 . S
O26 Tb1 2.484 . S
O26 C11 1.248 . S
O27 Tb1 2.440 . S
O27 C11 1.266 . S
O28 Tb0 2.325 . S
O28 Tb1 2.658 1_455 S
O28 C18 1.281 . S
O29 Tb1 2.409 . S
O29 C18 1.254 1_655 S
O30 Tb1 2.378 . S
O30 C19 1.236 . S
O31 Tb0 2.341 1_655 S
O31 C19 1.266 . S
H32 C4 0.929 . S
H33 C5 0.931 . S
H34 C7 0.930 . S
H35 C8 0.930 . S
H36 C13 0.929 . S
H37 C14 0.931 . S
H38 C16 0.930 . S
H39 C17 0.930 . S
Tb40 C42 2.809 . S
Tb40 O60 2.484 . S
Tb40 O61 2.440 . S
Tb40 O62 2.658 1_565 S
Tb40 O63 2.409 1_565 S
Tb40 O64 2.378 . S
Tb40 O68 2.325 1_565 S
Tb40 O71 2.341 1_565 S
Tb41 C51 2.809 . S
Tb41 O62 2.325 . S
Tb41 O65 2.341 1_545 S
Tb41 O66 2.484 . S
Tb41 O67 2.440 . S
Tb41 O68 2.658 . S
Tb41 O69 2.409 . S
Tb41 O70 2.378 . S
C42 Tb40 2.809 . S
C42 C43 1.514 . S
C42 O60 1.248 . S
C42 O61 1.266 . S
C43 C42 1.514 . S
C43 C44 1.359 . S
C43 C48 1.348 . S
C44 C43 1.359 . S
C44 C45 1.380 . S
C44 H72 0.929 . S
C45 C44 1.380 . S
C45 C46 1.347 . S
C45 H73 0.931 . S
C46 C45 1.347 . S
C46 C47 1.369 . S
C47 C46 1.369 . S
C47 C48 1.408 . S
C47 H74 0.930 . S
C48 C43 1.348 . S
C48 C47 1.408 . S
C48 H75 0.930 . S
C49 O62 1.281 . S
C49 O63 1.254 . S
C50 O64 1.236 . S
C50 O65 1.266 . S
C51 Tb41 2.809 . S
C51 C52 1.514 . S
C51 O66 1.248 . S
C51 O67 1.266 . S
C52 C51 1.514 . S
C52 C53 1.359 . S
C52 C57 1.348 . S
C53 C52 1.359 . S
C53 C54 1.380 . S
C53 H76 0.929 . S
C54 C53 1.380 . S
C54 C55 1.347 . S
C54 H77 0.931 . S
C55 C54 1.347 . S
C55 C56 1.369 . S
C56 C55 1.369 . S
C56 C57 1.408 . S
C56 H78 0.930 . S
C57 C52 1.348 . S
C57 C56 1.408 . S
C57 H79 0.930 . S
C58 O68 1.281 . S
C58 O69 1.254 . S
C59 O70 1.236 . S
C59 O71 1.266 . S
O60 Tb40 2.484 . S
O60 C42 1.248 . S
O61 Tb40 2.440 . S
O61 C42 1.266 . S
O62 Tb40 2.658 1_545 S
O62 Tb41 2.325 . S
O62 C49 1.281 . S
O63 Tb40 2.409 1_545 S
O63 C49 1.254 . S
O64 Tb40 2.378 . S
O64 C50 1.236 . S
O65 Tb41 2.341 1_565 S
O65 C50 1.266 . S
O66 Tb41 2.484 . S
O66 C51 1.248 . S
O67 Tb41 2.440 . S
O67 C51 1.266 . S
O68 Tb40 2.325 1_545 S
O68 Tb41 2.658 . S
O68 C58 1.281 . S
O69 Tb41 2.409 . S
O69 C58 1.254 . S
O70 Tb41 2.378 . S
O70 C59 1.236 . S
O71 Tb40 2.341 1_545 S
O71 C59 1.266 . S
H72 C44 0.929 . S
H73 C45 0.931 . S
H74 C47 0.930 . S
H75 C48 0.930 . S
H76 C53 0.929 . S
H77 C54 0.931 . S
H78 C56 0.930 . S
H79 C57 0.930 . S
Tb80 C82 2.809 . S
Tb80 O100 2.484 . S
Tb80 O101 2.440 . S
Tb80 O102 2.658 . S
Tb80 O103 2.409 . S
Tb80 O104 2.378 . S
Tb80 O108 2.325 . S
Tb80 O111 2.341 . S
Tb81 C91 2.809 . S
Tb81 O102 2.325 . S
Tb81 O105 2.341 . S
Tb81 O106 2.484 . S
Tb81 O107 2.440 . S
Tb81 O108 2.658 . S
Tb81 O109 2.409 . S
Tb81 O110 2.378 . S
C82 Tb80 2.809 . S
C82 C83 1.514 . S
C82 O100 1.248 . S
C82 O101 1.266 . S
C83 C82 1.514 . S
C83 C84 1.359 . S
C83 C88 1.348 . S
C84 C83 1.359 . S
C84 C85 1.380 . S
C84 H112 0.929 . S
C85 C84 1.380 . S
C85 C86 1.347 . S
C85 H113 0.931 . S
C86 C85 1.347 . S
C86 C87 1.369 . S
C87 C86 1.369 . S
C87 C88 1.408 . S
C87 H114 0.930 . S
C88 C83 1.348 . S
C88 C87 1.408 . S
C88 H115 0.930 . S
C89 O102 1.281 . S
C89 O103 1.254 . S
C90 O104 1.236 . S
C90 O105 1.266 . S
C91 Tb81 2.809 . S
C91 C92 1.514 . S
C91 O106 1.248 . S
C91 O107 1.266 . S
C92 C91 1.514 . S
C92 C93 1.359 . S
C92 C97 1.348 . S
C93 C92 1.359 . S
C93 C94 1.380 . S
C93 H116 0.929 . S
C94 C93 1.380 . S
C94 C95 1.347 . S
C94 H117 0.931 . S
C95 C94 1.347 . S
C95 C96 1.369 . S
C96 C95 1.369 . S
C96 C97 1.408 . S
C96 H118 0.930 . S
C97 C92 1.348 . S
C97 C96 1.408 . S
C97 H119 0.930 . S
C98 O108 1.281 . S
C98 O109 1.254 . S
C99 O110 1.236 . S
C99 O111 1.266 . S
O100 Tb80 2.484 . S
O100 C82 1.248 . S
O101 Tb80 2.440 . S
O101 C82 1.266 . S
O102 Tb80 2.658 . S
O102 Tb81 2.325 . S
O102 C89 1.281 . S
O103 Tb80 2.409 . S
O103 C89 1.254 . S
O104 Tb80 2.378 . S
O104 C90 1.236 . S
O105 Tb81 2.341 . S
O105 C90 1.266 . S
O106 Tb81 2.484 . S
O106 C91 1.248 . S
O107 Tb81 2.440 . S
O107 C91 1.266 . S
O108 Tb80 2.325 . S
O108 Tb81 2.658 . S
O108 C98 1.281 . S
O109 Tb81 2.409 . S
O109 C98 1.254 . S
O110 Tb81 2.378 . S
O110 C99 1.236 . S
O111 Tb80 2.341 . S
O111 C99 1.266 . S
H112 C84 0.929 . S
H113 C85 0.931 . S
H114 C87 0.930 . S
H115 C88 0.930 . S
H116 C93 0.929 . S
H117 C94 0.931 . S
H118 C96 0.930 . S
H119 C97 0.930 . S
O120 Cd121 2.300 . S
O120 C127 1.275 . S
Cd121 O120 2.300 . S
Cd121 O129 2.381 . S
Cd121 O130 2.378 . S
O122 Cd123 2.385 1_545 S
O122 C127 1.255 . S
Cd123 O122 2.385 1_565 S
Cd123 O124 2.317 . S
O124 Cd123 2.317 . S
O124 C125 1.232 . S
C125 O124 1.232 . S
C125 O126 1.218 . S
O126 C125 1.218 . S
C127 O120 1.275 . S
C127 O122 1.255 . S
C128 O129 1.258 . S
C128 O130 1.256 . S
O129 Cd121 2.381 . S
O129 C128 1.258 . S
O130 Cd121 2.378 . S
O130 C128 1.256 . S
O131 Cd132 2.300 . S
O131 C138 1.275 . S
Cd132 O131 2.300 . S
Cd132 O140 2.381 . S
Cd132 O141 2.378 . S
O133 Cd134 2.385 . S
O133 C138 1.255 . S
Cd134 O133 2.385 . S
Cd134 O135 2.317 . S
O135 Cd134 2.317 . S
O135 C136 1.232 . S
C136 O135 1.232 . S
C136 O137 1.218 . S
O137 C136 1.218 . S
C138 O131 1.275 . S
C138 O133 1.255 . S
C139 O140 1.258 . S
C139 O141 1.256 . S
O140 Cd132 2.381 . S
O140 C139 1.258 . S
O141 Cd132 2.378 . S
O141 C139 1.256 . S
O142 Cd143 2.300 . S
O142 C149 1.292 . S
Cd143 O142 2.300 . S
Cd143 O151 2.381 . S
Cd143 O152 2.378 . S
O144 Cd145 2.385 . S
O144 C149 1.247 1_655 S
Cd145 O144 2.385 . S
Cd145 O146 2.317 . S
O146 Cd145 2.317 . S
O146 C147 1.232 . S
C147 O146 1.232 . S
C147 O148 1.218 . S
O148 C147 1.218 . S
C149 O142 1.292 . S
C149 O144 1.247 1_455 S
C150 O151 1.258 . S
C150 O152 1.256 . S
O151 Cd143 2.381 . S
O151 C150 1.258 . S
O152 Cd143 2.378 . S
O152 C150 1.256 . S
O153 Cd154 2.300 . S
O153 C160 1.275 . S
Cd154 O153 2.300 . S
Cd154 O162 2.381 . S
Cd154 O163 2.378 . S
O155 Cd156 2.382 . S
O155 C160 1.258 1_655 S
Cd156 O155 2.382 . S
Cd156 O157 2.317 . S
O157 Cd156 2.317 . S
O157 C158 1.232 . S
C158 O157 1.232 . S
C158 O159 1.218 . S
O159 C158 1.218 . S
C160 O153 1.275 . S
C160 O155 1.258 1_455 S
C161 O162 1.258 . S
C161 O163 1.256 . S
O162 Cd154 2.381 . S
O162 C161 1.258 . S
O163 Cd154 2.378 . S
O163 C161 1.256 . S
O164 Cd165 2.300 . S
O164 C171 1.275 1_565 S
Cd165 O164 2.300 . S
Cd165 O173 2.381 . S
Cd165 O174 2.378 . S
O166 Cd167 2.385 . S
O166 C171 1.255 . S
Cd167 O166 2.385 . S
Cd167 O168 2.317 . S
O168 Cd167 2.317 . S
O168 C169 1.232 . S
C169 O168 1.232 . S
C169 O170 1.218 . S
O170 C169 1.218 . S
C171 O164 1.275 1_545 S
C171 O166 1.255 . S
C172 O173 1.258 . S
C172 O174 1.256 . S
O173 Cd165 2.381 . S
O173 C172 1.258 . S
O174 Cd165 2.378 . S
O174 C172 1.256 . S
O175 Cd176 2.300 . S
O175 C182 1.275 . S
Cd176 O175 2.300 . S
Cd176 O184 2.381 . S
Cd176 O185 2.378 . S
O177 Cd178 2.385 . S
O177 C182 1.255 . S
Cd178 O177 2.385 . S
Cd178 O179 2.317 . S
O179 Cd178 2.317 . S
O179 C180 1.232 . S
C180 O179 1.232 . S
C180 O181 1.218 . S
O181 C180 1.218 . S
C182 O175 1.275 . S
C182 O177 1.255 . S
C183 O184 1.258 . S
C183 O185 1.256 . S
O184 Cd176 2.381 . S
O184 C183 1.258 . S
O185 Cd176 2.378 . S
O185 C183 1.256 . S
C186 C187 1.386 . S
C186 C188 1.383 . S
C186 H202 0.951 . S
C187 C186 1.386 . S
C187 C191 1.383 . S
C188 C186 1.383 . S
C188 C189 1.402 . S
C188 H203 0.951 . S
C189 C188 1.402 . S
C189 C190 1.375 . S
C189 C192 1.481 . S
C190 C189 1.375 . S
C190 C191 1.367 . S
C190 H204 0.951 . S
C191 C187 1.383 . S
C191 C190 1.367 . S
C191 H205 0.950 . S
C192 C189 1.481 . S
C192 C193 1.297 . S
C192 H206 0.950 . S
C193 C192 1.297 . S
C193 C194 1.479 . S
C193 H207 0.950 . S
C194 C193 1.479 . S
C194 C195 1.375 . S
C194 C200 1.404 . S
C195 C194 1.375 . S
C195 C196 1.369 . S
C195 H208 0.950 . S
C196 C195 1.369 . S
C196 C197 1.392 . S
C196 H209 0.951 . S
C197 C196 1.392 . S
C197 C199 1.384 . S
H198 C200 0.949 . S
C199 C197 1.384 . S
C199 C200 1.385 . S
C199 H201 0.950 . S
C200 C194 1.404 . S
C200 H198 0.949 . S
C200 C199 1.385 . S
H201 C199 0.950 . S
H202 C186 0.951 . S
H203 C188 0.951 . S
H204 C190 0.951 . S
H205 C191 0.950 . S
H206 C192 0.950 . S
H207 C193 0.950 . S
H208 C195 0.950 . S
H209 C196 0.951 . S
C210 C211 1.386 . S
C210 C212 1.383 . S
C210 H226 0.951 . S
C211 C210 1.386 . S
C211 C215 1.383 . S
C212 C210 1.383 . S
C212 C213 1.402 . S
C212 H227 0.951 . S
C213 C212 1.402 . S
C213 C214 1.375 . S
C213 C216 1.481 . S
C214 C213 1.375 . S
C214 C215 1.367 . S
C214 H228 0.951 . S
C215 C211 1.383 . S
C215 C214 1.367 . S
C215 H229 0.950 . S
C216 C213 1.481 . S
C216 C217 1.297 . S
C216 H230 0.950 . S
C217 C216 1.297 . S
C217 C218 1.479 . S
C217 H231 0.950 . S
C218 C217 1.479 . S
C218 C219 1.375 . S
C218 C224 1.404 . S
C219 C218 1.375 . S
C219 C220 1.369 . S
C219 H232 0.950 . S
C220 C219 1.369 . S
C220 C221 1.392 . S
C220 H233 0.951 . S
C221 C220 1.392 . S
C221 C223 1.384 . S
H222 C224 0.949 . S
C223 C221 1.384 . S
C223 C224 1.385 . S
C223 H225 0.950 . S
C224 C218 1.404 . S
C224 H222 0.949 . S
C224 C223 1.385 . S
H225 C223 0.950 . S
H226 C210 0.951 . S
H227 C212 0.951 . S
H228 C214 0.951 . S
H229 C215 0.950 . S
H230 C216 0.950 . S
H231 C217 0.950 . S
H232 C219 0.950 . S
H233 C220 0.951 . S
C234 C235 1.386 . S
C234 C236 1.383 . S
C234 H250 0.951 . S
C235 C234 1.386 . S
C235 C239 1.383 . S
C236 C234 1.383 . S
C236 C237 1.402 . S
C236 H251 0.951 . S
C237 C236 1.402 . S
C237 C238 1.375 . S
C237 C240 1.481 . S
C238 C237 1.375 . S
C238 C239 1.367 . S
C238 H252 0.951 . S
C239 C235 1.383 . S
C239 C238 1.367 . S
C239 H253 0.950 . S
C240 C237 1.481 . S
C240 C241 1.297 . S
C240 H254 0.950 . S
C241 C240 1.297 . S
C241 C242 1.479 . S
C241 H255 0.950 . S
C242 C241 1.479 . S
C242 C243 1.375 . S
C242 C248 1.404 . S
C243 C242 1.375 . S
C243 C244 1.369 . S
C243 H256 0.950 . S
C244 C243 1.369 . S
C244 C245 1.392 . S
C244 H257 0.951 . S
C245 C244 1.392 . S
C245 C247 1.384 . S
H246 C248 0.949 . S
C247 C245 1.384 . S
C247 C248 1.385 . S
C247 H249 0.950 . S
C248 C242 1.404 . S
C248 H246 0.949 . S
C248 C247 1.385 . S
H249 C247 0.950 . S
H250 C234 0.951 . S
H251 C236 0.951 . S
H252 C238 0.951 . S
H253 C239 0.950 . S
H254 C240 0.950 . S
H255 C241 0.950 . S
H256 C243 0.950 . S
H257 C244 0.951 . S
C258 C259 1.386 . S
C258 C260 1.383 . S
C258 H274 0.951 . S
C259 C258 1.386 . S
C259 C263 1.383 . S
C260 C258 1.383 . S
C260 C261 1.402 . S
C260 H275 0.951 . S
C261 C260 1.402 . S
C261 C262 1.375 . S
C261 C264 1.481 . S
C262 C261 1.375 . S
C262 C263 1.367 . S
C262 H276 0.951 . S
C263 C259 1.383 . S
C263 C262 1.367 . S
C263 H277 0.950 . S
C264 C261 1.481 . S
C264 C265 1.297 . S
C264 H278 0.950 . S
C265 C264 1.297 . S
C265 C266 1.479 . S
C265 H279 0.950 . S
C266 C265 1.479 . S
C266 C267 1.375 . S
C266 C272 1.404 . S
C267 C266 1.375 . S
C267 C268 1.369 . S
C267 H280 0.950 . S
C268 C267 1.369 . S
C268 C269 1.392 . S
C268 H281 0.951 . S
C269 C268 1.392 . S
C269 C271 1.384 . S
H270 C272 0.949 . S
C271 C269 1.384 . S
C271 C272 1.385 . S
C271 H273 0.950 . S
C272 C266 1.404 . S
C272 H270 0.949 . S
C272 C271 1.385 . S
H273 C271 0.950 . S
H274 C258 0.951 . S
H275 C260 0.951 . S
H276 C262 0.951 . S
H277 C263 0.950 . S
H278 C264 0.950 . S
H279 C265 0.950 . S
H280 C267 0.950 . S
H281 C268 0.951 . S
C282 C283 1.386 . S
C282 C284 1.383 . S
C282 H298 0.951 . S
C283 C282 1.386 . S
C283 C287 1.383 . S
C284 C282 1.383 . S
C284 C285 1.402 . S
C284 H299 0.951 . S
C285 C284 1.402 . S
C285 C286 1.375 . S
C285 C288 1.481 . S
C286 C285 1.375 . S
C286 C287 1.367 . S
C286 H300 0.951 . S
C287 C283 1.383 . S
C287 C286 1.367 . S
C287 H301 0.950 . S
C288 C285 1.481 . S
C288 C289 1.297 . S
C288 H302 0.950 . S
C289 C288 1.297 . S
C289 C290 1.479 . S
C289 H303 0.950 . S
C290 C289 1.479 . S
C290 C291 1.375 . S
C290 C296 1.404 . S
C291 C290 1.375 . S
C291 C292 1.369 . S
C291 H304 0.950 . S
C292 C291 1.369 . S
C292 C293 1.392 . S
C292 H305 0.951 . S
C293 C292 1.392 . S
C293 C295 1.384 . S
H294 C296 0.949 . S
C295 C293 1.384 . S
C295 C296 1.385 . S
C295 H297 0.950 . S
C296 C290 1.404 . S
C296 H294 0.949 . S
C296 C295 1.385 . S
H297 C295 0.950 . S
H298 C282 0.951 . S
H299 C284 0.951 . S
H300 C286 0.951 . S
H301 C287 0.950 . S
H302 C288 0.950 . S
H303 C289 0.950 . S
H304 C291 0.950 . S
H305 C292 0.951 . S
C306 C307 1.386 . S
C306 C308 1.383 . S
C306 H322 0.951 . S
C307 C306 1.386 . S
C307 C311 1.383 . S
C308 C306 1.383 . S
C308 C309 1.402 . S
C308 H323 0.951 . S
C309 C308 1.402 . S
C309 C310 1.375 . S
C309 C312 1.481 . S
C310 C309 1.375 . S
C310 C311 1.367 . S
C310 H324 0.951 . S
C311 C307 1.383 . S
C311 C310 1.367 . S
C311 H325 0.950 . S
C312 C309 1.481 . S
C312 C313 1.297 . S
C312 H326 0.950 . S
C313 C312 1.297 . S
C313 C314 1.479 . S
C313 H327 0.950 . S
C314 C313 1.479 . S
C314 C315 1.375 . S
C314 C320 1.404 . S
C315 C314 1.375 . S
C315 C316 1.369 . S
C315 H328 0.950 . S
C316 C315 1.369 . S
C316 C317 1.392 . S
C316 H329 0.951 . S
C317 C316 1.392 . S
C317 C319 1.384 . S
H318 C320 0.949 . S
C319 C317 1.384 . S
C319 C320 1.385 . S
C319 H321 0.950 . S
C320 C314 1.404 . S
C320 H318 0.949 . S
C320 C319 1.385 . S
H321 C319 0.950 . S
H322 C306 0.951 . S
H323 C308 0.951 . S
H324 C310 0.951 . S
H325 C311 0.950 . S
H326 C312 0.950 . S
H327 C313 0.950 . S
H328 C315 0.950 . S
H329 C316 0.951 . S
C330 C331 1.386 . S
C330 C332 1.383 . S
C330 H346 0.951 . S
C331 C330 1.386 . S
C331 C335 1.383 . S
C332 C330 1.383 . S
C332 C333 1.402 . S
C332 H347 0.951 . S
C333 C332 1.402 . S
C333 C334 1.375 . S
C333 C336 1.481 . S
C334 C333 1.375 . S
C334 C335 1.367 . S
C334 H348 0.951 . S
C335 C331 1.383 . S
C335 C334 1.367 . S
C335 H349 0.950 . S
C336 C333 1.481 . S
C336 C337 1.297 . S
C336 H350 0.950 . S
C337 C336 1.297 . S
C337 C338 1.479 . S
C337 H351 0.950 . S
C338 C337 1.479 . S
C338 C339 1.375 . S
C338 C344 1.404 . S
C339 C338 1.375 . S
C339 C340 1.369 . S
C339 H352 0.950 . S
C340 C339 1.369 . S
C340 C341 1.392 . S
C340 H353 0.951 . S
C341 C340 1.392 . S
C341 C343 1.384 . S
H342 C344 0.949 . S
C343 C341 1.384 . S
C343 C344 1.385 . S
C343 H345 0.950 . S
C344 C338 1.404 . S
C344 H342 0.949 . S
C344 C343 1.385 . S
H345 C343 0.950 . S
H346 C330 0.951 . S
H347 C332 0.951 . S
H348 C334 0.951 . S
H349 C335 0.950 . S
H350 C336 0.950 . S
H351 C337 0.950 . S
H352 C339 0.950 . S
H353 C340 0.951 . S
C354 C355 1.386 . S
C354 C356 1.383 . S
C354 H370 0.951 . S
C355 C354 1.386 . S
C355 C359 1.383 . S
C356 C354 1.383 . S
C356 C357 1.402 . S
C356 H371 0.951 . S
C357 C356 1.402 . S
C357 C358 1.375 . S
C357 C360 1.481 . S
C358 C357 1.375 . S
C358 C359 1.367 . S
C358 H372 0.951 . S
C359 C355 1.383 . S
C359 C358 1.367 . S
C359 H373 0.950 . S
C360 C357 1.481 . S
C360 C361 1.297 . S
C360 H374 0.950 . S
C361 C360 1.297 . S
C361 C362 1.479 . S
C361 H375 0.950 . S
C362 C361 1.479 . S
C362 C363 1.375 . S
C362 C368 1.404 . S
C363 C362 1.375 . S
C363 C364 1.369 . S
C363 H376 0.950 . S
C364 C363 1.369 . S
C364 C365 1.392 . S
C364 H377 0.951 . S
C365 C364 1.392 . S
C365 C367 1.384 . S
H366 C368 0.949 . S
C367 C365 1.384 . S
C367 C368 1.385 . S
C367 H369 0.950 . S
C368 C362 1.404 . S
C368 H366 0.949 . S
C368 C367 1.385 . S
H369 C367 0.950 . S
H370 C354 0.951 . S
H371 C356 0.951 . S
H372 C358 0.951 . S
H373 C359 0.950 . S
H374 C360 0.950 . S
H375 C361 0.950 . S
H376 C363 0.950 . S
H377 C364 0.951 . S
C378 C379 1.386 . S
C378 C380 1.383 . S
C378 H394 0.951 . S
C379 C378 1.386 . S
C379 C383 1.383 . S
C380 C378 1.383 . S
C380 C381 1.402 . S
C380 H395 0.951 . S
C381 C380 1.402 . S
C381 C382 1.375 . S
C381 C384 1.481 . S
C382 C381 1.375 . S
C382 C383 1.367 . S
C382 H396 0.951 . S
C383 C379 1.383 . S
C383 C382 1.367 . S
C383 H397 0.950 . S
C384 C381 1.481 . S
C384 C385 1.297 . S
C384 H398 0.950 . S
C385 C384 1.297 . S
C385 C386 1.479 . S
C385 H399 0.950 . S
C386 C385 1.479 . S
C386 C387 1.375 . S
C386 C392 1.404 . S
C387 C386 1.375 . S
C387 C388 1.369 . S
C387 H400 0.950 . S
C388 C387 1.369 . S
C388 C389 1.392 . S
C388 H401 0.951 . S
C389 C388 1.392 . S
C389 C391 1.384 . S
H390 C392 0.949 . S
C391 C389 1.384 . S
C391 C392 1.385 . S
C391 H393 0.950 . S
C392 C386 1.404 . S
C392 H390 0.949 . S
C392 C391 1.385 . S
H393 C391 0.950 . S
H394 C378 0.951 . S
H395 C380 0.951 . S
H396 C382 0.951 . S
H397 C383 0.950 . S
H398 C384 0.950 . S
H399 C385 0.950 . S
H400 C387 0.950 . S
H401 C388 0.951 . S
C402 C403 1.386 . S
C402 C404 1.383 . S
C402 H418 0.951 . S
C403 C402 1.386 . S
C403 C407 1.383 . S
C404 C402 1.383 . S
C404 C405 1.402 . S
C404 H419 0.951 . S
C405 C404 1.402 . S
C405 C406 1.375 . S
C405 C408 1.481 . S
C406 C405 1.375 . S
C406 C407 1.367 . S
C406 H420 0.951 . S
C407 C403 1.383 . S
C407 C406 1.367 . S
C407 H421 0.950 . S
C408 C405 1.481 . S
C408 C409 1.297 . S
C408 H422 0.950 . S
C409 C408 1.297 . S
C409 C410 1.479 . S
C409 H423 0.950 . S
C410 C409 1.479 . S
C410 C411 1.375 . S
C410 C416 1.404 . S
C411 C410 1.375 . S
C411 C412 1.369 . S
C411 H424 0.950 . S
C412 C411 1.369 . S
C412 C413 1.392 . S
C412 H425 0.951 . S
C413 C412 1.392 . S
C413 C415 1.384 . S
H414 C416 0.949 . S
C415 C413 1.384 . S
C415 C416 1.385 . S
C415 H417 0.950 . S
C416 C410 1.404 . S
C416 H414 0.949 . S
C416 C415 1.385 . S
H417 C415 0.950 . S
H418 C402 0.951 . S
H419 C404 0.951 . S
H420 C406 0.951 . S
H421 C407 0.950 . S
H422 C408 0.950 . S
H423 C409 0.950 . S
H424 C411 0.950 . S
H425 C412 0.951 . S
C426 C427 1.386 . S
C426 C428 1.383 . S
C426 H442 0.951 . S
C427 C426 1.386 . S
C427 C431 1.383 . S
C428 C426 1.383 . S
C428 C429 1.402 . S
C428 H443 0.951 . S
C429 C428 1.402 . S
C429 C430 1.375 . S
C429 C432 1.481 . S
C430 C429 1.375 . S
C430 C431 1.367 . S
C430 H444 0.951 . S
C431 C427 1.383 . S
C431 C430 1.367 . S
C431 H445 0.950 . S
C432 C429 1.481 . S
C432 C433 1.297 . S
C432 H446 0.950 . S
C433 C432 1.297 . S
C433 C434 1.479 . S
C433 H447 0.950 . S
C434 C433 1.479 . S
C434 C435 1.375 . S
C434 C440 1.404 . S
C435 C434 1.375 . S
C435 C436 1.369 . S
C435 H448 0.950 . S
C436 C435 1.369 . S
C436 C437 1.392 . S
C436 H449 0.951 . S
C437 C436 1.392 . S
C437 C439 1.384 . S
H438 C440 0.949 . S
C439 C437 1.384 . S
C439 C440 1.385 . S
C439 H441 0.950 . S
C440 C434 1.404 . S
C440 H438 0.949 . S
C440 C439 1.385 . S
H441 C439 0.950 . S
H442 C426 0.951 . S
H443 C428 0.951 . S
H444 C430 0.951 . S
H445 C431 0.950 . S
H446 C432 0.950 . S
H447 C433 0.950 . S
H448 C435 0.950 . S
H449 C436 0.951 . S
C450 C451 1.386 . S
C450 C452 1.383 . S
C450 H466 0.951 . S
C451 C450 1.386 . S
C451 C455 1.383 . S
C452 C450 1.383 . S
C452 C453 1.402 . S
C452 H467 0.951 . S
C453 C452 1.402 . S
C453 C454 1.375 . S
C453 C456 1.481 . S
C454 C453 1.375 . S
C454 C455 1.367 . S
C454 H468 0.951 . S
C455 C451 1.383 . S
C455 C454 1.367 . S
C455 H469 0.950 . S
C456 C453 1.481 . S
C456 C457 1.297 . S
C456 H470 0.950 . S
C457 C456 1.297 . S
C457 C458 1.479 . S
C457 H471 0.950 . S
C458 C457 1.479 . S
C458 C459 1.375 . S
C458 C464 1.404 . S
C459 C458 1.375 . S
C459 C460 1.369 . S
C459 H472 0.950 . S
C460 C459 1.369 . S
C460 C461 1.392 . S
C460 H473 0.951 . S
C461 C460 1.392 . S
C461 C463 1.384 . S
H462 C464 0.949 . S
C463 C461 1.384 . S
C463 C464 1.385 . S
C463 H465 0.950 . S
C464 C458 1.404 . S
C464 H462 0.949 . S
C464 C463 1.385 . S
H465 C463 0.950 . S
H466 C450 0.951 . S
H467 C452 0.951 . S
H468 C454 0.951 . S
H469 C455 0.950 . S
H470 C456 0.950 . S
H471 C457 0.950 . S
H472 C459 0.950 . S
H473 C460 0.951 . S
C474 C475 1.386 1_655 S
C474 C476 1.383 . S
C474 H490 0.951 . S
C475 C474 1.386 1_455 S
C475 C479 1.383 . S
C476 C474 1.383 . S
C476 C477 1.402 1_655 S
C476 H491 0.951 . S
C477 C476 1.402 1_455 S
C477 C478 1.375 . S
C477 C480 1.481 . S
C478 C477 1.375 . S
C478 C479 1.367 . S
C478 H492 0.951 . S
C479 C475 1.383 . S
C479 C478 1.367 . S
C479 H493 0.950 . S
C480 C477 1.481 . S
C480 C481 1.297 1_455 S
C480 H494 0.950 . S
C481 C480 1.297 1_655 S
C481 C482 1.479 1_554 S
C481 H495 0.950 . S
C482 C481 1.479 1_556 S
C482 C483 1.375 . S
C482 C488 1.404 1_655 S
C483 C482 1.375 . S
C483 C484 1.369 . S
C483 H496 0.950 . S
C484 C483 1.369 . S
C484 C485 1.392 . S
C484 H497 0.951 . S
C485 C484 1.392 . S
C485 C487 1.384 1_655 S
H486 C488 0.949 . S
C487 C485 1.384 1_455 S
C487 C488 1.385 . S
C487 H489 0.950 . S
C488 C482 1.404 1_455 S
C488 H486 0.949 . S
C488 C487 1.385 . S
H489 C487 0.950 . S
H490 C474 0.951 . S
H491 C476 0.951 . S
H492 C478 0.951 . S
H493 C479 0.950 . S
H494 C480 0.950 . S
H495 C481 0.950 . S
H496 C483 0.950 . S
H497 C484 0.951 . S
C498 C499 1.386 . S
C498 C500 1.383 . S
C498 H514 0.951 1_545 S
C499 C498 1.386 . S
C499 C503 1.383 . S
C500 C498 1.383 . S
C500 C501 1.402 . S
C500 H515 0.951 1_545 S
C501 C500 1.402 . S
C501 C502 1.375 . S
C501 C504 1.481 . S
C502 C501 1.375 . S
C502 C503 1.367 . S
C502 H516 0.951 . S
C503 C499 1.383 . S
C503 C502 1.367 . S
C503 H517 0.950 . S
C504 C501 1.481 . S
C504 C505 1.297 . S
C504 H518 0.950 . S
C505 C504 1.297 . S
C505 C506 1.479 . S
C505 H519 0.950 1_545 S
C506 C505 1.479 . S
C506 C507 1.375 . S
C506 C512 1.404 . S
C507 C506 1.375 . S
C507 C508 1.369 . S
C507 H520 0.950 1_545 S
C508 C507 1.369 . S
C508 C509 1.392 . S
C508 H521 0.951 1_545 S
C509 C508 1.392 . S
C509 C511 1.384 . S
H510 C512 0.949 . S
C511 C509 1.384 . S
C511 C512 1.385 . S
C511 H513 0.950 . S
C512 C506 1.404 . S
C512 H510 0.949 . S
C512 C511 1.385 . S
H513 C511 0.950 . S
H514 C498 0.951 1_565 S
H515 C500 0.951 1_565 S
H516 C502 0.951 . S
H517 C503 0.950 . S
H518 C504 0.950 . S
H519 C505 0.950 1_565 S
H520 C507 0.950 1_565 S
H521 C508 0.951 1_565 S
C522 C523 1.386 . S
C522 C524 1.383 . S
C522 H538 0.951 . S
C523 C522 1.386 . S
C523 C527 1.383 . S
C524 C522 1.383 . S
C524 C525 1.402 . S
C524 H539 0.951 . S
C525 C524 1.402 . S
C525 C526 1.375 . S
C525 C528 1.481 . S
C526 C525 1.375 . S
C526 C527 1.367 . S
C526 H540 0.951 . S
C527 C523 1.383 . S
C527 C526 1.367 . S
C527 H541 0.950 . S
C528 C525 1.481 . S
C528 C529 1.297 . S
C528 H542 0.950 . S
C529 C528 1.297 . S
C529 C530 1.479 . S
C529 H543 0.950 . S
C530 C529 1.479 . S
C530 C531 1.375 . S
C530 C536 1.404 . S
C531 C530 1.375 . S
C531 C532 1.369 . S
C531 H544 0.950 . S
C532 C531 1.369 . S
C532 C533 1.392 . S
C532 H545 0.951 . S
C533 C532 1.392 . S
C533 C535 1.384 . S
H534 C536 0.949 . S
C535 C533 1.384 . S
C535 C536 1.385 . S
C535 H537 0.950 . S
C536 C530 1.404 . S
C536 H534 0.949 . S
C536 C535 1.385 . S
H537 C535 0.950 . S
H538 C522 0.951 . S
H539 C524 0.951 . S
H540 C526 0.951 . S
H541 C527 0.950 . S
H542 C528 0.950 . S
H543 C529 0.950 . S
H544 C531 0.950 . S
H545 C532 0.951 . S
C546 C547 1.386 . S
C546 C548 1.383 . S
C546 H562 0.951 . S
C547 C546 1.386 . S
C547 C551 1.383 1_545 S
C548 C546 1.383 . S
C548 C549 1.402 . S
C548 H563 0.951 . S
C549 C548 1.402 . S
C549 C550 1.375 1_545 S
C549 C552 1.481 . S
C550 C549 1.375 1_565 S
C550 C551 1.367 . S
C550 H564 0.951 . S
C551 C547 1.383 1_565 S
C551 C550 1.367 . S
C551 H565 0.950 . S
C552 C549 1.481 . S
C552 C553 1.297 . S
C552 H566 0.950 1_545 S
C553 C552 1.297 . S
C553 C554 1.479 . S
C553 H567 0.950 . S
C554 C553 1.479 . S
C554 C555 1.375 . S
C554 C560 1.404 1_545 S
C555 C554 1.375 . S
C555 C556 1.369 . S
C555 H568 0.950 . S
C556 C555 1.369 . S
C556 C557 1.392 . S
C556 H569 0.951 . S
C557 C556 1.392 . S
C557 C559 1.384 1_545 S
H558 C560 0.949 . S
C559 C557 1.384 1_565 S
C559 C560 1.385 . S
C559 H561 0.950 . S
C560 C554 1.404 1_565 S
C560 H558 0.949 . S
C560 C559 1.385 . S
H561 C559 0.950 . S
H562 C546 0.951 . S
H563 C548 0.951 . S
H564 C550 0.951 . S
H565 C551 0.950 . S
H566 C552 0.950 1_565 S
H567 C553 0.950 . S
H568 C555 0.950 . S
H569 C556 0.951 . S
C570 C571 1.386 . S
C570 C572 1.383 . S
C570 H586 0.951 . S
C571 C570 1.386 . S
C571 C575 1.383 . S
C572 C570 1.383 . S
C572 C573 1.402 . S
C572 H587 0.951 . S
C573 C572 1.402 . S
C573 C574 1.375 . S
C573 C576 1.481 . S
C574 C573 1.375 . S
C574 C575 1.367 . S
C574 H588 0.951 . S
C575 C571 1.383 . S
C575 C574 1.367 . S
C575 H589 0.950 . S
C576 C573 1.481 . S
C576 C577 1.297 . S
C576 H590 0.950 . S
C577 C576 1.297 . S
C577 C578 1.479 1_556 S
C577 H591 0.950 . S
C578 C577 1.479 1_554 S
C578 C579 1.375 . S
C578 C584 1.404 . S
C579 C578 1.375 . S
C579 C580 1.369 . S
C579 H592 0.950 . S
C580 C579 1.369 . S
C580 C581 1.392 . S
C580 H593 0.951 . S
C581 C580 1.392 . S
C581 C583 1.384 . S
H582 C584 0.949 . S
C583 C581 1.384 . S
C583 C584 1.385 . S
C583 H585 0.950 . S
C584 C578 1.404 . S
C584 H582 0.949 . S
C584 C583 1.385 . S
H585 C583 0.950 . S
H586 C570 0.951 . S
H587 C572 0.951 . S
H588 C574 0.951 . S
H589 C575 0.950 . S
H590 C576 0.950 . S
H591 C577 0.950 . S
H592 C579 0.950 . S
H593 C580 0.951 . S
C594 C595 1.386 . S
C594 C596 1.383 . S
C594 H610 0.951 1_455 S
C595 C594 1.386 . S
C595 C599 1.383 . S
C596 C594 1.383 . S
C596 C597 1.402 . S
C596 H611 0.951 1_455 S
C597 C596 1.402 . S
C597 C598 1.375 . S
C597 C600 1.481 . S
C598 C597 1.375 . S
C598 C599 1.367 . S
C598 H612 0.951 . S
C599 C595 1.383 . S
C599 C598 1.367 . S
C599 H613 0.950 . S
C600 C597 1.481 . S
C600 C601 1.297 . S
C600 H614 0.950 . S
C601 C600 1.297 . S
C601 C602 1.479 . S
C601 H615 0.950 1_455 S
C602 C601 1.479 . S
C602 C603 1.375 1_455 S
C602 C608 1.404 . S
C603 C602 1.375 1_655 S
C603 C604 1.369 . S
C603 H616 0.950 . S
C604 C603 1.369 . S
C604 C605 1.392 1_655 S
C604 H617 0.951 . S
C605 C604 1.392 1_455 S
C605 C607 1.384 . S
H606 C608 0.949 . S
C607 C605 1.384 . S
C607 C608 1.385 . S
C607 H609 0.950 . S
C608 C602 1.404 . S
C608 H606 0.949 . S
C608 C607 1.385 . S
H609 C607 0.950 . S
H610 C594 0.951 1_655 S
H611 C596 0.951 1_655 S
H612 C598 0.951 . S
H613 C599 0.950 . S
H614 C600 0.950 . S
H615 C601 0.950 1_655 S
H616 C603 0.950 . S
H617 C604 0.951 . S
C187 C10 3.170 . S
C197 C180 2.827 . S
C211 C59 3.260 . S
C221 C158 2.870 . S
C235 C90 2.851 . S
C245 C172 2.803 . S
C259 C19 2.925 . S
C269 C183 2.821 . S
C293 C161 2.755 . S
C283 C50 2.839 . S
C317 C169 2.852 . S
C307 C99 3.255 . S
C331 C46 0.562 . S
C341 C136 0.542 . S
C355 C95 0.376 . S
C365 C147 0.660 . S
C379 C6 0.459 . S
C389 C125 0.838 . S
C413 C139 0.462 . S
C403 C55 0.286 . S
C437 C150 0.154 . S
C427 C86 0.311 . S
C451 C15 0.158 . S
C461 C128 0.296 . S
C485 C149 1.250 1_655 S
C475 C9 1.189 . S
C499 C49 1.259 . S
C509 C127 1.257 . S
C523 C89 1.215 . S
C533 C138 1.144 . S
C557 C171 1.690 . S
C547 C58 1.623 . S
C581 C182 1.602 . S
C571 C98 1.658 . S
C595 C18 1.616 . S
C605 C160 1.683 . S
