# Generated by pormake.
# Topology iac, (4,6)-cn, num edge types: 1
# Building blocks:
#     Node 0, Type 0, BuildingBlock: QUQFOY_clean_sbu_3, # of connection points: 4
#     Node 1, Type 0, BuildingBlock: QUQFOY_clean_sbu_3, # of connection points: 4
#     Node 2, Type 0, BuildingBlock: QUQFOY_clean_sbu_3, # of connection points: 4
#     Node 3, Type 0, BuildingBlock: QUQFOY_clean_sbu_3, # of connection points: 4
#     Node 4, Type 0, BuildingBlock: QUQFOY_clean_sbu_3, # of connection points: 4
#     Node 5, Type 0, BuildingBlock: QUQFOY_clean_sbu_3, # of connection points: 4
#     Node 6, Type 0, BuildingBlock: QUQFOY_clean_sbu_3, # of connection points: 4
#     Node 7, Type 0, BuildingBlock: QUQFOY_clean_sbu_3, # of connection points: 4
#     Node 8, Type 0, BuildingBlock: QUQFOY_clean_sbu_3, # of connection points: 4
#     Node 9, Type 0, BuildingBlock: QUQFOY_clean_sbu_3, # of connection points: 4
#     Node 10, Type 0, BuildingBlock: QUQFOY_clean_sbu_3, # of connection points: 4
#     Node 11, Type 0, BuildingBlock: QUQFOY_clean_sbu_3, # of connection points: 4
#     Node 12, Type 0, BuildingBlock: QUQFOY_clean_sbu_3, # of connection points: 4
#     Node 13, Type 0, BuildingBlock: QUQFOY_clean_sbu_3, # of connection points: 4
#     Node 14, Type 0, BuildingBlock: QUQFOY_clean_sbu_3, # of connection points: 4
#     Node 15, Type 0, BuildingBlock: QUQFOY_clean_sbu_3, # of connection points: 4
#     Node 16, Type 0, BuildingBlock: QUQFOY_clean_sbu_3, # of connection points: 4
#     Node 17, Type 0, BuildingBlock: QUQFOY_clean_sbu_3, # of connection points: 4
#     Node 18, Type 0, BuildingBlock: QUQFOY_clean_sbu_3, # of connection points: 4
#     Node 19, Type 0, BuildingBlock: QUQFOY_clean_sbu_3, # of connection points: 4
#     Node 20, Type 0, BuildingBlock: QUQFOY_clean_sbu_3, # of connection points: 4
#     Node 21, Type 0, BuildingBlock: QUQFOY_clean_sbu_3, # of connection points: 4
#     Node 22, Type 0, BuildingBlock: QUQFOY_clean_sbu_3, # of connection points: 4
#     Node 23, Type 0, BuildingBlock: QUQFOY_clean_sbu_3, # of connection points: 4
#     Node 24, Type 1, BuildingBlock: LEVNOQ01_clean_sbu_1, # of connection points: 6
#     Node 25, Type 1, BuildingBlock: LEVNOQ01_clean_sbu_1, # of connection points: 6
#     Node 26, Type 1, BuildingBlock: LEVNOQ01_clean_sbu_1, # of connection points: 6
#     Node 27, Type 1, BuildingBlock: LEVNOQ01_clean_sbu_1, # of connection points: 6
#     Node 28, Type 1, BuildingBlock: LEVNOQ01_clean_sbu_1, # of connection points: 6
#     Node 29, Type 1, BuildingBlock: LEVNOQ01_clean_sbu_1, # of connection points: 6
#     Node 30, Type 1, BuildingBlock: LEVNOQ01_clean_sbu_1, # of connection points: 6
#     Node 31, Type 1, BuildingBlock: LEVNOQ01_clean_sbu_1, # of connection points: 6
#     Node 32, Type 1, BuildingBlock: LEVNOQ01_clean_sbu_1, # of connection points: 6
#     Node 33, Type 1, BuildingBlock: LEVNOQ01_clean_sbu_1, # of connection points: 6
#     Node 34, Type 1, BuildingBlock: LEVNOQ01_clean_sbu_1, # of connection points: 6
#     Node 35, Type 1, BuildingBlock: LEVNOQ01_clean_sbu_1, # of connection points: 6
#     Node 36, Type 1, BuildingBlock: LEVNOQ01_clean_sbu_1, # of connection points: 6
#     Node 37, Type 1, BuildingBlock: LEVNOQ01_clean_sbu_1, # of connection points: 6
#     Node 38, Type 1, BuildingBlock: LEVNOQ01_clean_sbu_1, # of connection points: 6
#     Node 39, Type 1, BuildingBlock: LEVNOQ01_clean_sbu_1, # of connection points: 6
#     Edge 40, Type (0, 1), BuildingBlock: UVAHIK_clean_linker_0, # of connection points: 2
#     Edge 41, Type (0, 1), BuildingBlock: UVAHIK_clean_linker_0, # of connection points: 2
#     Edge 42, Type (0, 1), BuildingBlock: UVAHIK_clean_linker_0, # of connection points: 2
#     Edge 43, Type (0, 1), BuildingBlock: UVAHIK_clean_linker_0, # of connection points: 2
#     Edge 44, Type (0, 1), BuildingBlock: UVAHIK_clean_linker_0, # of connection points: 2
#     Edge 45, Type (0, 1), BuildingBlock: UVAHIK_clean_linker_0, # of connection points: 2
#     Edge 46, Type (0, 1), BuildingBlock: UVAHIK_clean_linker_0, # of connection points: 2
#     Edge 47, Type (0, 1), BuildingBlock: UVAHIK_clean_linker_0, # of connection points: 2
#     Edge 48, Type (0, 1), BuildingBlock: UVAHIK_clean_linker_0, # of connection points: 2
#     Edge 49, Type (0, 1), BuildingBlock: UVAHIK_clean_linker_0, # of connection points: 2
#     Edge 50, Type (0, 1), BuildingBlock: UVAHIK_clean_linker_0, # of connection points: 2
#     Edge 51, Type (0, 1), BuildingBlock: UVAHIK_clean_linker_0, # of connection points: 2
#     Edge 52, Type (0, 1), BuildingBlock: UVAHIK_clean_linker_0, # of connection points: 2
#     Edge 53, Type (0, 1), BuildingBlock: UVAHIK_clean_linker_0, # of connection points: 2
#     Edge 54, Type (0, 1), BuildingBlock: UVAHIK_clean_linker_0, # of connection points: 2
#     Edge 55, Type (0, 1), BuildingBlock: UVAHIK_clean_linker_0, # of connection points: 2
#     Edge 56, Type (0, 1), BuildingBlock: UVAHIK_clean_linker_0, # of connection points: 2
#     Edge 57, Type (0, 1), BuildingBlock: UVAHIK_clean_linker_0, # of connection points: 2
#     Edge 58, Type (0, 1), BuildingBlock: UVAHIK_clean_linker_0, # of connection points: 2
#     Edge 59, Type (0, 1), BuildingBlock: UVAHIK_clean_linker_0, # of connection points: 2
#     Edge 60, Type (0, 1), BuildingBlock: UVAHIK_clean_linker_0, # of connection points: 2
#     Edge 61, Type (0, 1), BuildingBlock: UVAHIK_clean_linker_0, # of connection points: 2
#     Edge 62, Type (0, 1), BuildingBlock: UVAHIK_clean_linker_0, # of connection points: 2
#     Edge 63, Type (0, 1), BuildingBlock: UVAHIK_clean_linker_0, # of connection points: 2
#     Edge 64, Type (0, 1), BuildingBlock: UVAHIK_clean_linker_0, # of connection points: 2
#     Edge 65, Type (0, 1), BuildingBlock: UVAHIK_clean_linker_0, # of connection points: 2
#     Edge 66, Type (0, 1), BuildingBlock: UVAHIK_clean_linker_0, # of connection points: 2
#     Edge 67, Type (0, 1), BuildingBlock: UVAHIK_clean_linker_0, # of connection points: 2
#     Edge 68, Type (0, 1), BuildingBlock: UVAHIK_clean_linker_0, # of connection points: 2
#     Edge 69, Type (0, 1), BuildingBlock: UVAHIK_clean_linker_0, # of connection points: 2
#     Edge 70, Type (0, 1), BuildingBlock: UVAHIK_clean_linker_0, # of connection points: 2
#     Edge 71, Type (0, 1), BuildingBlock: UVAHIK_clean_linker_0, # of connection points: 2
#     Edge 72, Type (0, 1), BuildingBlock: UVAHIK_clean_linker_0, # of connection points: 2
#     Edge 73, Type (0, 1), BuildingBlock: UVAHIK_clean_linker_0, # of connection points: 2
#     Edge 74, Type (0, 1), BuildingBlock: UVAHIK_clean_linker_0, # of connection points: 2
#     Edge 75, Type (0, 1), BuildingBlock: UVAHIK_clean_linker_0, # of connection points: 2
#     Edge 76, Type (0, 1), BuildingBlock: UVAHIK_clean_linker_0, # of connection points: 2
#     Edge 77, Type (0, 1), BuildingBlock: UVAHIK_clean_linker_0, # of connection points: 2
#     Edge 78, Type (0, 1), BuildingBlock: UVAHIK_clean_linker_0, # of connection points: 2
#     Edge 79, Type (0, 1), BuildingBlock: UVAHIK_clean_linker_0, # of connection points: 2
#     Edge 80, Type (0, 1), BuildingBlock: UVAHIK_clean_linker_0, # of connection points: 2
#     Edge 81, Type (0, 1), BuildingBlock: UVAHIK_clean_linker_0, # of connection points: 2
#     Edge 82, Type (0, 1), BuildingBlock: UVAHIK_clean_linker_0, # of connection points: 2
#     Edge 83, Type (0, 1), BuildingBlock: UVAHIK_clean_linker_0, # of connection points: 2
#     Edge 84, Type (0, 1), BuildingBlock: UVAHIK_clean_linker_0, # of connection points: 2
#     Edge 85, Type (0, 1), BuildingBlock: UVAHIK_clean_linker_0, # of connection points: 2
#     Edge 86, Type (0, 1), BuildingBlock: UVAHIK_clean_linker_0, # of connection points: 2
#     Edge 87, Type (0, 1), BuildingBlock: UVAHIK_clean_linker_0, # of connection points: 2
#     Edge 88, Type (0, 1), BuildingBlock: UVAHIK_clean_linker_0, # of connection points: 2
#     Edge 89, Type (0, 1), BuildingBlock: UVAHIK_clean_linker_0, # of connection points: 2
#     Edge 90, Type (0, 1), BuildingBlock: UVAHIK_clean_linker_0, # of connection points: 2
#     Edge 91, Type (0, 1), BuildingBlock: UVAHIK_clean_linker_0, # of connection points: 2
#     Edge 92, Type (0, 1), BuildingBlock: UVAHIK_clean_linker_0, # of connection points: 2
#     Edge 93, Type (0, 1), BuildingBlock: UVAHIK_clean_linker_0, # of connection points: 2
#     Edge 94, Type (0, 1), BuildingBlock: UVAHIK_clean_linker_0, # of connection points: 2
#     Edge 95, Type (0, 1), BuildingBlock: UVAHIK_clean_linker_0, # of connection points: 2
#     Edge 96, Type (0, 1), BuildingBlock: UVAHIK_clean_linker_0, # of connection points: 2
#     Edge 97, Type (0, 1), BuildingBlock: UVAHIK_clean_linker_0, # of connection points: 2
#     Edge 98, Type (0, 1), BuildingBlock: UVAHIK_clean_linker_0, # of connection points: 2
#     Edge 99, Type (0, 1), BuildingBlock: UVAHIK_clean_linker_0, # of connection points: 2
#     Edge 100, Type (0, 1), BuildingBlock: UVAHIK_clean_linker_0, # of connection points: 2
#     Edge 101, Type (0, 1), BuildingBlock: UVAHIK_clean_linker_0, # of connection points: 2
#     Edge 102, Type (0, 1), BuildingBlock: UVAHIK_clean_linker_0, # of connection points: 2
#     Edge 103, Type (0, 1), BuildingBlock: UVAHIK_clean_linker_0, # of connection points: 2
#     Edge 104, Type (0, 1), BuildingBlock: UVAHIK_clean_linker_0, # of connection points: 2
#     Edge 105, Type (0, 1), BuildingBlock: UVAHIK_clean_linker_0, # of connection points: 2
#     Edge 106, Type (0, 1), BuildingBlock: UVAHIK_clean_linker_0, # of connection points: 2
#     Edge 107, Type (0, 1), BuildingBlock: UVAHIK_clean_linker_0, # of connection points: 2
#     Edge 108, Type (0, 1), BuildingBlock: UVAHIK_clean_linker_0, # of connection points: 2
#     Edge 109, Type (0, 1), BuildingBlock: UVAHIK_clean_linker_0, # of connection points: 2
#     Edge 110, Type (0, 1), BuildingBlock: UVAHIK_clean_linker_0, # of connection points: 2
#     Edge 111, Type (0, 1), BuildingBlock: UVAHIK_clean_linker_0, # of connection points: 2
#     Edge 112, Type (0, 1), BuildingBlock: UVAHIK_clean_linker_0, # of connection points: 2
#     Edge 113, Type (0, 1), BuildingBlock: UVAHIK_clean_linker_0, # of connection points: 2
#     Edge 114, Type (0, 1), BuildingBlock: UVAHIK_clean_linker_0, # of connection points: 2
#     Edge 115, Type (0, 1), BuildingBlock: UVAHIK_clean_linker_0, # of connection points: 2
#     Edge 116, Type (0, 1), BuildingBlock: UVAHIK_clean_linker_0, # of connection points: 2
#     Edge 117, Type (0, 1), BuildingBlock: UVAHIK_clean_linker_0, # of connection points: 2
#     Edge 118, Type (0, 1), BuildingBlock: UVAHIK_clean_linker_0, # of connection points: 2
#     Edge 119, Type (0, 1), BuildingBlock: UVAHIK_clean_linker_0, # of connection points: 2
#     Edge 120, Type (0, 1), BuildingBlock: UVAHIK_clean_linker_0, # of connection points: 2
#     Edge 121, Type (0, 1), BuildingBlock: UVAHIK_clean_linker_0, # of connection points: 2
#     Edge 122, Type (0, 1), BuildingBlock: UVAHIK_clean_linker_0, # of connection points: 2
#     Edge 123, Type (0, 1), BuildingBlock: UVAHIK_clean_linker_0, # of connection points: 2
#     Edge 124, Type (0, 1), BuildingBlock: UVAHIK_clean_linker_0, # of connection points: 2
#     Edge 125, Type (0, 1), BuildingBlock: UVAHIK_clean_linker_0, # of connection points: 2
#     Edge 126, Type (0, 1), BuildingBlock: UVAHIK_clean_linker_0, # of connection points: 2
#     Edge 127, Type (0, 1), BuildingBlock: UVAHIK_clean_linker_0, # of connection points: 2
#     Edge 128, Type (0, 1), BuildingBlock: UVAHIK_clean_linker_0, # of connection points: 2
#     Edge 129, Type (0, 1), BuildingBlock: UVAHIK_clean_linker_0, # of connection points: 2
#     Edge 130, Type (0, 1), BuildingBlock: UVAHIK_clean_linker_0, # of connection points: 2
#     Edge 131, Type (0, 1), BuildingBlock: UVAHIK_clean_linker_0, # of connection points: 2
#     Edge 132, Type (0, 1), BuildingBlock: UVAHIK_clean_linker_0, # of connection points: 2
#     Edge 133, Type (0, 1), BuildingBlock: UVAHIK_clean_linker_0, # of connection points: 2
#     Edge 134, Type (0, 1), BuildingBlock: UVAHIK_clean_linker_0, # of connection points: 2
#     Edge 135, Type (0, 1), BuildingBlock: UVAHIK_clean_linker_0, # of connection points: 2
# Relax obj value: 0.089
# Max RMSD: 0.168
# Mean RMSD: 0.086
data_MOF--net-iac--node1-QUQFOY_clean_sbu_3--node2-LEVNOQ01_clean_sbu_1--edge1-UVAHIK_clean_linker_0
_symmetry_space_group_name_H-M    P1
_symmetry_Int_Tables_number       1
_symmetry_cell_setting            triclinic
loop_
_symmetry_equiv_pos_as_xyz
'x, y, z'
_cell_length_a     70.248229
_cell_length_b     71.185519
_cell_length_c     70.665732
_cell_angle_alpha  90.963846
_cell_angle_beta   89.987807
_cell_angle_gamma 90.652604
loop_
_atom_site_label
_atom_site_type_symbol
_atom_site_fract_x
_atom_site_fract_y
_atom_site_fract_z
_atom_type_partial_charge
C0 C 0.95619 0.23552 0.13947 0.0
O1 O 0.96845 0.22808 0.15012 0.0
Cd2 Cd 0.00154 0.22614 0.14345 0.0
O3 O 0.9611 0.24273 0.12379 0.0
Cd4 Cd -0.00977 0.24899 0.10487 0.0
C5 C 9e-05 0.20268 0.09986 0.0
O6 O 0.00945 0.25616 0.13192 0.0
O7 O 0.02544 0.25287 0.10615 0.0
O8 O 0.9762 0.27942 0.10393 0.0
C9 C 0.02543 0.25663 0.12376 0.0
O10 O 0.00427 0.20373 0.11739 0.0
C11 C 0.97779 0.28205 0.08632 0.0
O12 O -0.0068 0.21678 0.09133 0.0
O13 O 0.98511 0.26879 0.07652 0.0
C14 C 0.96204 0.74612 0.33058 0.0
O15 O 0.97524 0.75251 0.32015 0.0
Cd16 Cd 0.0076 0.75411 0.33036 0.0
O17 O 0.96564 0.73968 0.34685 0.0
Cd18 Cd -0.00755 0.73429 0.368 0.0
C19 C -0.00013 0.78121 0.37001 0.0
O20 O 0.01392 0.72415 0.34418 0.0
O21 O 0.02718 0.73116 0.37093 0.0
O22 O 0.97808 0.70473 0.37688 0.0
C23 C 0.02879 0.72452 0.35425 0.0
O24 O 0.00672 0.7804 0.35333 0.0
C25 C 0.97869 0.70825 0.39455 0.0
O26 O -0.00669 0.76661 0.37794 0.0
O27 O 0.98549 0.72411 0.39978 0.0
C28 C 0.45627 0.73912 0.64155 0.0
O29 O 0.46843 0.73172 0.65233 0.0
Cd30 Cd 0.50128 0.72848 0.64553 0.0
O31 O 0.46125 0.74608 0.62578 0.0
Cd32 Cd 0.49076 0.7515 0.60711 0.0
C33 C 0.4974 0.70485 0.60215 0.0
O34 O 0.51076 0.75786 0.6336 0.0
O35 O 0.52613 0.75266 0.60769 0.0
O36 O 0.48227 0.78378 0.60664 0.0
C37 C 0.52658 0.75718 0.62514 0.0
O38 O 0.50144 0.70574 0.61971 0.0
C39 C 0.48065 0.78532 0.58891 0.0
O40 O 0.49216 0.71941 0.59327 0.0
O41 O 0.48367 0.77065 0.57881 0.0
C42 C 0.46429 0.24252 0.83458 0.0
O43 O 0.47591 0.24753 0.8218 0.0
Cd44 Cd 0.5086 0.2536 0.82944 0.0
O45 O 0.46999 0.23922 0.85125 0.0
Cd46 Cd 0.49822 0.23693 0.871 0.0
C47 C 0.50258 0.28397 0.86751 0.0
O48 O 0.51753 0.22577 0.84585 0.0
O49 O 0.53312 0.23326 0.87114 0.0
O50 O 0.48225 0.20923 0.88225 0.0
C51 C 0.53336 0.22678 0.85432 0.0
O52 O 0.50729 0.28192 0.85017 0.0
C53 C 0.48534 0.21275 0.89965 0.0
O54 O 0.49833 0.26988 0.87755 0.0
O55 O 0.49457 0.22772 0.90377 0.0
C56 C 0.09109 -0.00156 0.28433 0.0
O57 O 0.07925 0.00703 0.27411 0.0
Cd58 Cd 0.08396 0.01052 0.24054 0.0
O59 O 0.10599 -0.00862 0.27705 0.0
Cd60 Cd 0.12224 0.98694 0.24677 0.0
C61 C 0.12733 0.0334 0.23875 0.0
O62 O 0.09326 0.98004 0.22934 0.0
O63 O 0.11874 0.98254 0.21254 0.0
O64 O 0.1297 0.95731 0.26102 0.0
C65 C 0.10097 0.97931 0.21316 0.0
O66 O 0.10954 0.03356 0.23524 0.0
C67 C 0.14715 0.95745 0.25643 0.0
O68 O 0.13527 0.01866 0.2448 0.0
O69 O 0.15316 0.97141 0.24708 0.0
C70 C 0.26895 0.90839 0.4897 0.0
O71 O 0.25597 0.91832 0.48258 0.0
Cd72 Cd 0.22414 0.90715 0.47886 0.0
O73 O 0.26525 0.89219 0.49621 0.0
Cd74 Cd 0.23865 0.87015 0.50112 0.0
C75 C 0.23558 0.86707 0.45345 0.0
O76 O 0.21575 0.8932 0.50839 0.0
O77 O 0.20365 0.86608 0.50128 0.0
O78 O 0.25022 0.86317 0.53252 0.0
C79 C 0.20104 0.88292 0.50674 0.0
O80 O 0.22878 0.8836 0.45351 0.0
C81 C 0.25136 0.84559 0.52945 0.0
O82 O 0.24055 0.85927 0.46871 0.0
O83 O 0.24658 0.8395 0.51312 0.0
C84 C 0.40501 -0.00793 0.77204 0.0
O85 O 0.41567 0.98526 0.7592 0.0
Cd86 Cd 0.40649 0.98227 0.72691 0.0
O87 O 0.3886 -0.00166 0.76812 0.0
Cd88 Cd 0.36812 0.00158 0.74032 0.0
C89 C 0.36839 0.95427 0.73656 0.0
O90 O 0.39258 0.01196 0.71955 0.0
O91 O 0.36691 0.00243 0.7056 0.0
O92 O 0.3567 0.03013 0.75502 0.0
C93 C 0.38311 0.01034 0.70441 0.0
O94 O 0.38449 0.9552 0.72832 0.0
C95 C 0.33938 0.02728 0.75057 0.0
O96 O 0.36028 0.969 0.74276 0.0
O97 O 0.33532 0.01209 0.74171 0.0
C98 C 0.27236 0.08272 -0.00648 0.0
O99 O 0.26 0.07354 0.0028 0.0
Cd100 Cd 0.22914 0.08577 0.01001 0.0
O101 O 0.26843 0.09876 0.98697 0.0
Cd102 Cd 0.24179 0.12091 0.98487 0.0
C103 C 0.24235 0.12728 0.03237 0.0
O104 O 0.21629 0.09819 0.98157 0.0
O105 O 0.20732 0.12665 0.98722 0.0
O106 O 0.24877 0.12264 0.95164 0.0
C107 C 0.20275 0.10966 0.98364 0.0
O108 O 0.23522 0.11079 0.03321 0.0
C109 C 0.25277 0.14004 0.95144 0.0
O110 O 0.24695 0.13436 0.01653 0.0
O111 O 0.25147 0.14908 0.96707 0.0
C112 C 0.77572 0.40686 -0.00999 0.0
O113 O 0.76301 0.41702 0.98275 0.0
Cd114 Cd 0.73068 0.40668 0.98029 0.0
O115 O 0.77164 0.3908 -0.00338 0.0
Cd116 Cd 0.7445 0.36959 0.00123 0.0
C117 C 0.73878 0.36683 0.95382 0.0
O118 O 0.72288 0.39339 0.01047 0.0
O119 O 0.70966 0.36666 0.00354 0.0
O120 O 0.75736 0.36131 0.0317 0.0
C121 C 0.70796 0.3833 0.00994 0.0
O122 O 0.73235 0.3835 0.95424 0.0
C123 C 0.75679 0.34371 0.02848 0.0
O124 O 0.74459 0.35905 0.96877 0.0
O125 O 0.75078 0.33821 0.01235 0.0
C126 C 0.90382 0.48989 0.27539 0.0
O127 O 0.91474 0.48254 0.26307 0.0
Cd128 Cd 0.9087 0.48179 0.22987 0.0
O129 O 0.88833 0.49767 0.27068 0.0
Cd130 Cd 0.86988 0.50304 0.24186 0.0
C131 C 0.86838 0.45559 0.23437 0.0
O132 O 0.897 0.51275 0.22388 0.0
O133 O 0.87122 0.50879 0.20786 0.0
O134 O 0.85689 0.5304 0.25801 0.0
C135 C 0.88854 0.51392 0.20818 0.0
O136 O 0.88529 0.45593 0.22788 0.0
C137 C 0.84011 0.52776 0.2517 0.0
O138 O 0.86062 0.47049 0.24063 0.0
O139 O 0.83719 0.51341 0.24115 0.0
C140 C 0.77865 0.58026 0.49375 0.0
O141 O 0.76623 0.57078 0.50265 0.0
Cd142 Cd 0.73531 0.5828 0.51004 0.0
O143 O 0.7747 0.59643 0.48753 0.0
Cd144 Cd 0.74785 0.6184 0.48524 0.0
C145 C 0.74806 0.62437 0.53281 0.0
O146 O 0.72242 0.59514 0.4815 0.0
O147 O 0.7135 0.62365 0.4869 0.0
O148 O 0.75927 0.62099 0.45293 0.0
C149 C 0.70889 0.60668 0.48342 0.0
O150 O 0.74115 0.60777 0.53351 0.0
C151 C 0.7588 0.63877 0.4524 0.0
O152 O 0.75269 0.63162 0.51705 0.0
O153 O 0.75332 0.64733 0.46735 0.0
C154 C 0.59101 0.49804 0.77711 0.0
O155 O 0.58029 0.50668 0.76577 0.0
Cd156 Cd 0.58627 0.50876 0.73251 0.0
O157 O 0.60611 0.49018 0.7712 0.0
Cd158 Cd 0.62418 0.48385 0.74201 0.0
C159 C 0.63095 0.52986 0.73183 0.0
O160 O 0.5955 0.47764 0.72459 0.0
O161 O 0.62096 0.47711 0.70776 0.0
O162 O 0.62729 0.45513 0.75887 0.0
C163 C 0.603 0.47532 0.7085 0.0
O164 O 0.61323 0.53013 0.72798 0.0
C165 C 0.64452 0.45208 0.75468 0.0
O166 O 0.63858 0.51527 0.73867 0.0
O167 O 0.65291 0.46421 0.74449 0.0
C168 C 0.97161 0.75276 0.83337 0.0
O169 O 0.98494 0.76085 0.82439 0.0
Cd170 Cd 0.01587 0.76538 0.83773 0.0
O171 O 0.9748 0.74553 0.84947 0.0
Cd172 Cd 0.00197 0.74108 0.87176 0.0
C173 C 0.00144 0.78793 0.87872 0.0
O174 O 0.02674 0.73553 0.84842 0.0
O175 O 0.03661 0.74202 0.87673 0.0
O176 O -0.00846 0.70869 0.8752 0.0
C177 C 0.04044 0.73625 0.8601 0.0
O178 O 0.00935 0.78863 0.86253 0.0
C179 C -0.00679 0.70836 0.89307 0.0
O180 O -0.00336 0.77222 0.88577 0.0
O181 O -0.00222 0.72375 0.90134 0.0
C182 C 0.96595 0.23403 0.65321 0.0
O183 O 0.98016 0.22788 0.66221 0.0
Cd184 Cd 0.01263 0.22869 0.65227 0.0
O185 O 0.96803 0.24259 0.63763 0.0
Cd186 Cd -0.00646 0.2521 0.61563 0.0
C187 C 0.00243 0.20577 0.61003 0.0
O188 O 0.01834 0.25797 0.63791 0.0
O189 O 0.02757 0.25581 0.60894 0.0
O190 O 0.98058 0.28298 0.61151 0.0
C191 C 0.03205 0.25774 0.62625 0.0
O192 O 0.0101 0.206 0.62638 0.0
C193 C 0.97917 0.28159 0.59361 0.0
O194 O -0.00523 0.22031 0.60317 0.0
O195 O 0.98384 0.26602 0.58594 0.0
C196 C 0.47168 0.25413 0.33345 0.0
O197 O 0.48458 0.264 0.32572 0.0
Cd198 Cd 0.51496 0.2688 0.34022 0.0
O199 O 0.47501 0.24567 0.34887 0.0
Cd200 Cd 0.50202 0.24137 0.37134 0.0
C201 C 0.49948 0.28743 0.38256 0.0
O202 O 0.52695 0.23824 0.34768 0.0
O203 O 0.53671 0.2425 0.37639 0.0
O204 O 0.49216 0.20857 0.37329 0.0
C205 C 0.5406 0.23802 0.3594 0.0
O206 O 0.50762 0.29 0.3667 0.0
C207 C 0.49416 0.20752 0.39109 0.0
O208 O 0.49517 0.27092 0.38784 0.0
O209 O 0.49871 0.2226 0.39991 0.0
C210 C 0.47113 0.7385 0.15683 0.0
O211 O 0.48544 0.73205 0.16543 0.0
Cd212 Cd 0.51555 0.7292 0.15028 0.0
O213 O 0.4728 0.74517 0.14027 0.0
Cd214 Cd 0.4962 0.75218 0.11521 0.0
C215 C 0.49914 0.70571 0.10986 0.0
O216 O 0.52256 0.75844 0.13568 0.0
O217 O 0.53009 0.75346 0.10652 0.0
O218 O 0.4832 0.78317 0.1127 0.0
C219 C 0.53551 0.75735 0.12326 0.0
O220 O 0.50756 0.7058 0.12583 0.0
C221 C 0.48097 0.78244 0.09487 0.0
O222 O 0.49314 0.72069 0.10247 0.0
O223 O 0.48544 0.76724 0.0864 0.0
C224 C 0.90234 0.98358 0.76407 0.0
O225 O 0.91174 0.97512 0.75125 0.0
Cd226 Cd 0.89947 0.97156 0.71981 0.0
O227 O 0.88644 -0.0089 0.7603 0.0
Cd228 Cd 0.86472 -0.00423 0.7333 0.0
C229 C 0.85783 0.94893 0.73236 0.0
O230 O 0.88894 0.00166 0.70963 0.0
O231 O 0.86065 -0.00431 0.69898 0.0
O232 O 0.86303 0.02747 0.74587 0.0
C233 C 0.87748 0.0014 0.69576 0.0
O234 O 0.87414 0.9486 0.72451 0.0
C235 C 0.84544 0.02961 0.74268 0.0
O236 O 0.85066 0.96443 0.73798 0.0
O237 O 0.83623 0.01535 0.73636 0.0
C238 C 0.76783 0.07878 0.49875 0.0
O239 O 0.75309 0.07038 0.50494 0.0
Cd240 Cd 0.72111 0.08161 0.50359 0.0
O241 O 0.76662 0.09433 0.49018 0.0
Cd242 Cd 0.7428 0.11735 0.48068 0.0
C243 C 0.73226 0.1229 0.52729 0.0
O244 O 0.71713 0.09624 0.47401 0.0
O245 O 0.70929 0.12531 0.47604 0.0
O246 O 0.75657 0.1227 0.44983 0.0
C247 C 0.70401 0.10832 0.47396 0.0
O248 O 0.7236 0.10706 0.52686 0.0
C249 C 0.75901 0.14027 0.45248 0.0
O250 O 0.74095 0.12919 0.51283 0.0
O251 O 0.7547 0.14697 0.46869 0.0
C252 C 0.57123 0.00463 0.26277 0.0
O253 O 0.5627 0.01199 0.24897 0.0
Cd254 Cd 0.57584 0.01166 0.21751 0.0
O255 O 0.58733 -0.00313 0.26066 0.0
Cd256 Cd 0.61181 -0.00932 0.23702 0.0
C257 C 0.61621 0.03692 0.22945 0.0
O258 O 0.59123 0.98265 0.21047 0.0
O259 O 0.62056 0.98931 0.20417 0.0
O260 O 0.61798 0.95987 0.24974 0.0
C261 C 0.60426 0.98431 0.19816 0.0
O262 O 0.60077 0.0353 0.22007 0.0
C263 C 0.63593 0.9621 0.25043 0.0
O264 O 0.6228 0.02325 0.23874 0.0
O265 O 0.64255 0.97809 0.2459 0.0
C266 C 0.76956 0.90674 -0.003 0.0
O267 O 0.75996 0.91769 0.98685 0.0
Cd268 Cd 0.72703 0.91085 0.98006 0.0
O269 O 0.76184 0.8924 0.00432 0.0
Cd270 Cd 0.73076 0.87674 0.00518 0.0
C271 C 0.73405 0.86846 0.95839 0.0
O272 O 0.70778 0.90222 0.00716 0.0
O273 O 0.69733 0.87437 -0.00089 0.0
O274 O 0.73298 0.87399 0.03917 0.0
C275 C 0.69371 0.89102 0.00454 0.0
O276 O 0.72986 0.88569 0.9568 0.0
C277 C 0.73238 0.85618 0.03917 0.0
O278 O 0.73603 0.86117 0.9746 0.0
O279 O 0.73163 0.84777 0.02316 0.0
C280 C 0.26593 0.57828 -0.00416 0.0
O281 O 0.25124 0.57017 0.00245 0.0
Cd282 Cd 0.22117 0.58515 0.00454 0.0
O283 O 0.26486 0.59446 0.98846 0.0
Cd284 Cd 0.242 0.61926 0.98067 0.0
C285 C 0.23781 0.62557 0.02744 0.0
O286 O 0.21498 0.59932 0.9749 0.0
O287 O 0.20837 0.6285 0.97929 0.0
O288 O 0.25421 0.62285 0.94885 0.0
C289 C 0.20241 0.61191 0.97586 0.0
O290 O 0.22896 0.60986 0.02766 0.0
C291 C 0.25781 0.64032 0.95071 0.0
O292 O 0.24443 0.6324 0.01226 0.0
O293 O 0.25456 0.64785 0.96679 0.0
C294 C 0.07733 0.5053 0.76585 0.0
O295 O 0.06703 0.51134 0.75253 0.0
Cd296 Cd 0.07598 0.51062 0.71972 0.0
O297 O 0.09321 0.49749 0.76242 0.0
Cd298 Cd 0.11429 0.4889 0.73636 0.0
C299 C 0.11826 0.53488 0.72688 0.0
O300 O 0.0898 0.4809 0.71375 0.0
O301 O 0.11824 0.48355 0.70284 0.0
O302 O 0.12218 0.45952 0.75084 0.0
C303 C 0.10081 0.48016 0.6996 0.0
O304 O 0.1017 0.53377 0.71956 0.0
C305 C 0.14 0.46139 0.74815 0.0
O306 O 0.12568 0.52099 0.73513 0.0
O307 O 0.14585 0.47666 0.74102 0.0
C308 C 0.26671 0.4052 0.49799 0.0
O309 O 0.25583 0.41723 0.49074 0.0
Cd310 Cd 0.22324 0.40913 0.48342 0.0
O311 O 0.26003 0.38942 0.50313 0.0
Cd312 Cd 0.22942 0.37253 0.50488 0.0
C313 C 0.2303 0.36879 0.45748 0.0
O314 O 0.20606 0.39739 0.51049 0.0
O315 O 0.19546 0.37011 0.50101 0.0
O316 O 0.23569 0.36698 0.5378 0.0
C317 C 0.19192 0.3864 0.50751 0.0
O318 O 0.22557 0.386 0.4577 0.0
C319 C 0.23379 0.34924 0.53679 0.0
O320 O 0.23347 0.36025 0.47284 0.0
O321 O 0.23066 0.34201 0.52049 0.0
C322 C 0.40375 0.48179 0.26212 0.0
O323 O 0.41253 0.47267 0.2493 0.0
Cd324 Cd 0.39928 0.46907 0.21826 0.0
O325 O 0.38801 0.48971 0.25858 0.0
Cd326 Cd 0.3654 0.49442 0.23234 0.0
C327 C 0.35757 0.44764 0.23245 0.0
O328 O 0.38923 0.49944 0.20815 0.0
O329 O 0.36055 0.49451 0.19806 0.0
O330 O 0.3645 0.5262 0.24492 0.0
C331 C 0.37752 0.49956 0.1945 0.0
O332 O 0.37367 0.44672 0.22423 0.0
C333 C 0.34682 0.52854 0.24235 0.0
O334 O 0.35088 0.46344 0.23778 0.0
O335 O 0.33728 0.5144 0.23626 0.0
O336 O 0.94749 0.00878 0.96753 0.0
Mg337 Mg 0.94488 0.01375 -0.00276 0.0
O338 O 0.97517 -0.00648 0.96596 0.0
Mg339 Mg -0.01218 -0.0069 -0.00345 0.0
O340 O 0.97207 0.01889 0.00434 0.0
O341 O 0.95095 0.04091 0.00869 0.0
O342 O -0.00037 -0.007 0.02714 0.0
O343 O 0.01278 0.01275 0.98712 0.0
Mg344 Mg 0.03039 0.97222 -0.00211 0.0
O345 O 0.00358 0.96696 0.98929 0.0
O346 O 0.02779 0.97871 0.02723 0.0
O347 O 0.03868 -0.00436 0.98167 0.0
O348 O 0.02525 0.94514 0.98611 0.0
C349 C 0.94652 0.9743 0.01269 0.0
C350 C 0.96036 0.00031 0.95809 0.0
C351 C 0.96843 0.03577 0.00959 0.0
C352 C 0.01438 0.98725 0.03573 0.0
C353 C 0.02989 0.01115 0.98117 0.0
C354 C 0.00796 0.95036 0.9836 0.0
O355 O 0.93722 -0.01045 0.0131 0.0
O356 O 0.96337 0.97349 0.00604 0.0
O357 O 0.23463 0.73408 0.29321 0.0
Mg358 Mg 0.22685 0.71086 0.27527 0.0
O359 O 0.24459 0.75486 0.27197 0.0
Mg360 Mg 0.23991 0.74066 0.24256 0.0
O361 O 0.24576 0.7121 0.25399 0.0
O362 O 0.2438 0.68703 0.27181 0.0
O363 O 0.23473 0.72329 0.21474 0.0
O364 O 0.27192 0.74275 0.2358 0.0
Mg365 Mg 0.24064 0.75991 0.20697 0.0
O366 O 0.23425 0.77115 0.23261 0.0
O367 O 0.21955 0.7418 0.1958 0.0
O368 O 0.26977 0.75251 0.20622 0.0
O369 O 0.23499 0.7877 0.20589 0.0
C370 C 0.19527 0.72672 0.25278 0.0
C371 C 0.2414 0.75019 0.2891 0.0
C372 C 0.25157 0.69554 0.2578 0.0
C373 C 0.22423 0.72545 0.20032 0.0
C374 C 0.27964 0.74684 0.22002 0.0
C375 C 0.23207 0.78691 0.2239 0.0
O376 O 0.20009 0.71231 0.26184 0.0
O377 O 0.20744 0.73898 0.24758 0.0
O378 O 0.53266 0.96424 0.46049 0.0
Mg379 Mg 0.53722 0.96209 0.49018 0.0
O380 O 0.50937 0.98538 0.46139 0.0
Mg381 Mg 0.49804 -0.01022 0.49143 0.0
O382 O 0.51103 0.96352 0.5011 0.0
O383 O 0.52886 0.93961 0.50798 0.0
O384 O 0.4879 -0.0058 0.52201 0.0
O385 O 0.47126 0.97169 0.48364 0.0
Mg386 Mg 0.45906 0.01415 0.49341 0.0
O387 O 0.48502 0.01697 0.48118 0.0
O388 O 0.46403 0.01452 0.52292 0.0
O389 O 0.44591 -0.01 0.48147 0.0
O390 O 0.46245 0.03823 0.4778 0.0
C391 C 0.54305 0.00364 0.50217 0.0
C392 C 0.5216 0.97564 0.45235 0.0
C393 C 0.5129 0.94811 0.50992 0.0
C394 C 0.47614 0.00436 0.53111 0.0
C395 C 0.45373 0.97409 0.47981 0.0
C396 C 0.47957 0.03279 0.47445 0.0
O397 O 0.54982 0.98715 0.50088 0.0
O398 O 0.52548 0.007 0.49897 0.0
O399 O 0.28956 0.25521 0.7508 0.0
Mg400 Mg 0.27868 0.24264 0.72561 0.0
O401 O 0.26385 0.24868 0.76797 0.0
Mg402 Mg 0.23754 0.24371 0.74898 0.0
O403 O 0.25235 0.25303 0.72263 0.0
O404 O 0.27412 0.25755 0.70069 0.0
O405 O 0.21036 0.23855 0.73081 0.0
O406 O 0.22923 0.27442 0.7547 0.0
Mg407 Mg 0.19788 0.24759 0.77643 0.0
O408 O 0.22279 0.23449 0.77477 0.0
O409 O 0.18522 0.23954 0.75023 0.0
O410 O 0.20678 0.27635 0.77697 0.0
O411 O 0.20409 0.22865 0.79869 0.0
C412 C 0.25987 0.20452 0.73513 0.0
C413 C 0.28114 0.25402 0.76664 0.0
C414 C 0.25684 0.25957 0.70638 0.0
C415 C 0.19242 0.23737 0.73379 0.0
C416 C 0.21877 0.28404 0.7659 0.0
C417 C 0.22016 0.22605 0.79038 0.0
O418 O 0.2734 0.21306 0.72674 0.0
O419 O 0.24654 0.21323 0.74371 0.0
O420 O -0.00426 0.94088 0.50295 0.0
Mg421 Mg 0.00686 0.96073 0.52337 0.0
O422 O -0.01164 0.96136 0.48071 0.0
Mg423 Mg -0.0074 -0.00831 0.49154 0.0
O424 O -0.01073 0.98294 0.52184 0.0
O425 O -0.0074 0.96784 0.54861 0.0
O426 O -0.00349 0.02216 0.50201 0.0
O427 O 0.95981 -0.00388 0.48987 0.0
Mg428 Mg 0.9798 0.02225 0.45748 0.0
O429 O -0.00329 0.00049 0.46209 0.0
O430 O -0.01052 0.04177 0.4787 0.0
O431 O 0.95249 0.01086 0.46323 0.0
O432 O -0.00213 0.01427 0.43472 0.0
C433 C 0.03816 0.98148 0.5028 0.0
C434 C -0.01035 0.94452 0.48645 0.0
C435 C 0.98467 0.98104 0.53932 0.0
C436 C -0.00495 0.03873 0.49553 0.0
C437 C 0.94754 0.00247 0.47825 0.0
C438 C 0.00445 0.00174 0.44579 0.0
O439 O 0.03428 0.97174 0.51723 0.0
O440 O 0.02519 0.98801 0.49224 0.0
O441 O 0.24014 0.71413 0.76795 0.0
Mg442 Mg 0.24837 0.71611 0.73903 0.0
O443 O 0.2369 0.74474 0.77193 0.0
Mg444 Mg 0.23287 0.75062 0.7404 0.0
O445 O 0.26316 0.73959 0.73217 0.0
O446 O 0.27612 0.71096 0.73382 0.0
O447 O 0.22878 0.75619 0.70907 0.0
O448 O 0.24863 0.77876 0.74438 0.0
Mg449 Mg 0.20335 0.78729 0.73206 0.0
O450 O 0.20566 0.76376 0.7471 0.0
O451 O 0.2066 0.77743 0.70327 0.0
O452 O 0.22801 0.80241 0.7424 0.0
O453 O 0.17946 0.77962 0.74953 0.0
C454 C 0.2142 0.71017 0.72491 0.0
C455 C 0.23763 0.72833 0.77871 0.0
C456 C 0.27762 0.72855 0.72987 0.0
C457 C 0.21872 0.76541 0.69754 0.0
C458 C 0.24472 0.79621 0.74538 0.0
C459 C 0.18926 0.76541 0.75458 0.0
O460 O 0.23003 0.70626 0.71761 0.0
O461 O 0.2134 0.72377 0.73676 0.0
O462 O 0.4901 0.97643 0.03405 0.0
Mg463 Mg 0.4855 0.00578 0.03034 0.0
O464 O 0.49338 0.9688 0.00364 0.0
Mg465 Mg 0.4966 -0.00271 -0.01033 0.0
O466 O 0.47091 0.00918 0.00595 0.0
O467 O 0.4588 0.01636 0.03428 0.0
O468 O 0.50047 0.02568 0.97593 0.0
O469 O 0.47464 0.98791 0.96701 0.0
Mg470 Mg 0.51765 -0.00574 0.94585 0.0
O471 O 0.51983 0.98603 0.97259 0.0
O472 O 0.51711 0.02435 0.94905 0.0
O473 O 0.49034 0.9821 0.93992 0.0
O474 O 0.54194 0.9775 0.95277 0.0
C475 C 0.52286 0.01781 0.02446 0.0
C476 C 0.49203 0.96413 0.02092 0.0
C477 C 0.45705 0.01572 0.0161 0.0
C478 C 0.50852 0.03366 0.96199 0.0
C479 C 0.47521 0.98187 0.9499 0.0
C480 C 0.53511 0.97703 0.96963 0.0
O481 O 0.50837 0.02488 0.03221 0.0
O482 O 0.52072 0.00575 0.0111 0.0
O483 O 0.24005 0.25724 0.19598 0.0
Mg484 Mg 0.22615 0.27651 0.21472 0.0
O485 O 0.24592 0.23472 0.21667 0.0
Mg486 Mg 0.23729 0.24497 0.2467 0.0
O487 O 0.24097 0.27543 0.23914 0.0
O488 O 0.23834 0.30202 0.22379 0.0
O489 O 0.22806 0.25789 0.27585 0.0
O490 O 0.26971 0.2452 0.25581 0.0
Mg491 Mg 0.24025 0.22084 0.27989 0.0
O492 O 0.23291 0.21307 0.25298 0.0
O493 O 0.22055 0.23602 0.29607 0.0
O494 O 0.26901 0.22845 0.28192 0.0
O495 O 0.23527 0.193 0.27701 0.0
C496 C 0.19294 0.25467 0.23015 0.0
C497 C 0.24625 0.24099 0.19982 0.0
C498 C 0.24511 0.29303 0.2379 0.0
C499 C 0.22104 0.25313 0.29171 0.0
C500 C 0.27819 0.23809 0.27 0.0
C501 C 0.23152 0.19609 0.25945 0.0
O502 O 0.1978 0.26952 0.22165 0.0
O503 O 0.2051 0.24418 0.23809 0.0
O504 O 0.46393 0.52677 0.97761 0.0
Mg505 Mg 0.49324 0.52872 0.97132 0.0
O506 O 0.46325 0.4991 -0.0082 0.0
Mg507 Mg 0.49528 0.49169 -0.0061 0.0
O508 O 0.50161 0.50257 0.96417 0.0
O509 O 0.50189 0.52613 0.94379 0.0
O510 O 0.52737 0.48574 -0.00427 0.0
O511 O 0.48967 0.46304 0.97917 0.0
Mg512 Mg 0.50566 0.45681 0.02354 0.0
O513 O 0.48936 0.47968 0.02226 0.0
O514 O 0.53349 0.46822 0.02083 0.0
O515 O 0.49586 0.4404 -0.00029 0.0
O516 O 0.48893 0.46258 0.04783 0.0
C517 C 0.50956 0.53505 0.00804 0.0
C518 C 0.45477 0.51346 0.98538 0.0
C519 C 0.50516 0.50875 0.9474 0.0
C520 C 0.53896 0.47852 0.00731 0.0
C521 C 0.49055 0.44568 0.9834 0.0
C522 C 0.48283 0.47694 0.03894 0.0
O523 O 0.51176 0.54094 -0.0086 0.0
O524 O 0.50151 0.51925 0.01091 0.0
O525 O 0.74298 0.21238 0.26792 0.0
Mg526 Mg 0.75024 0.21523 0.23885 0.0
O527 O 0.73896 0.24282 0.27266 0.0
Mg528 Mg 0.73478 0.25049 0.2416 0.0
O529 O 0.76463 0.23917 0.23238 0.0
O530 O 0.77782 0.21057 0.23249 0.0
O531 O 0.73034 0.25793 0.21073 0.0
O532 O 0.75123 0.27822 0.24711 0.0
Mg533 Mg 0.70593 0.28814 0.23594 0.0
O534 O 0.70782 0.26364 0.24944 0.0
O535 O 0.70867 0.28008 0.20659 0.0
O536 O 0.73086 0.30217 0.24697 0.0
O537 O 0.682 0.27997 0.25301 0.0
C538 C 0.71541 0.21034 0.22495 0.0
C539 C 0.74026 0.22628 0.27902 0.0
C540 C 0.77909 0.22833 0.22922 0.0
C541 C 0.72036 0.26808 0.19995 0.0
C542 C 0.74753 0.29565 0.24934 0.0
C543 C 0.69146 0.26521 0.25708 0.0
O544 O 0.73118 0.2058 0.21789 0.0
O545 O 0.71489 0.22412 0.23663 0.0
O546 O -0.00881 0.47157 0.5347 0.0
Mg547 Mg 0.9851 0.50104 0.53764 0.0
O548 O -0.00437 0.46799 0.50351 0.0
Mg549 Mg -0.00318 0.49795 0.49235 0.0
O550 O 0.97398 0.50618 0.51231 0.0
O551 O 0.95664 0.51074 0.53764 0.0
O552 O -0.00132 0.52815 0.48217 0.0
O553 O 0.97334 0.49064 0.47069 0.0
Mg554 Mg 0.01493 0.50164 0.44738 0.0
O555 O 0.01856 0.48941 0.4722 0.0
O556 O 0.01592 0.53075 0.45578 0.0
O557 O 0.9865 0.49185 0.44176 0.0
O558 O 0.03867 0.4827 0.44978 0.0
C559 C 0.02328 0.51524 0.52835 0.0
C560 C -0.00573 0.46124 0.52009 0.0
C561 C 0.95799 0.51097 0.51948 0.0
C562 C 0.00696 0.53809 0.4697 0.0
C563 C 0.97239 0.48884 0.45272 0.0
C564 C 0.03305 0.4802 0.46687 0.0
O565 O 0.00904 0.51934 0.5386 0.0
O566 O 0.02132 0.50537 0.51322 0.0
O567 O 0.69926 0.77477 0.26156 0.0
Mg568 Mg 0.6947 0.74599 0.26867 0.0
O569 O 0.72721 0.77364 0.24634 0.0
Mg570 Mg 0.73782 0.74297 0.24711 0.0
O571 O 0.7213 0.73733 0.27283 0.0
O572 O 0.70034 0.73299 0.29514 0.0
O573 O 0.7474 0.71209 0.248 0.0
O574 O 0.76243 0.75279 0.26684 0.0
Mg575 Mg 0.77974 0.73644 0.22649 0.0
O576 O 0.75456 0.74845 0.22066 0.0
O577 O 0.77301 0.70758 0.22995 0.0
O578 O 0.78972 0.75144 0.25074 0.0
O579 O 0.77791 0.74857 0.19982 0.0
C580 C 0.69562 0.7276 0.22935 0.0
C581 C 0.71268 0.78261 0.25231 0.0
C582 C 0.71739 0.73058 0.28902 0.0
C583 C 0.75962 0.70132 0.24025 0.0
C584 C 0.7803 0.75574 0.26552 0.0
C585 C 0.76073 0.75303 0.20422 0.0
O586 O 0.68636 0.72942 0.24474 0.0
O587 O 0.71292 0.73309 0.22774 0.0
O588 O 0.73442 0.23374 0.79187 0.0
Mg589 Mg 0.7252 0.21343 0.77118 0.0
O590 O 0.7445 0.25555 0.77188 0.0
Mg591 Mg 0.74223 0.2443 0.74116 0.0
O592 O 0.74495 0.21424 0.75044 0.0
O593 O 0.7395 0.18828 0.76638 0.0
O594 O 0.74055 0.23337 0.71042 0.0
O595 O 0.77505 0.24525 0.73887 0.0
Mg596 Mg 0.75881 0.27698 0.71093 0.0
O597 O 0.73951 0.27351 0.73147 0.0
O598 O 0.75071 0.25569 0.69087 0.0
O599 O 0.78496 0.27133 0.72467 0.0
O600 O 0.74115 0.30032 0.71681 0.0
C601 C 0.69584 0.233 0.74796 0.0
C602 C 0.74144 0.24996 0.78869 0.0
C603 C 0.7489 0.19692 0.75345 0.0
C604 C 0.74412 0.23924 0.69379 0.0
C605 C 0.78839 0.25628 0.73346 0.0
C606 C 0.73306 0.29008 0.72939 0.0
O607 O 0.69904 0.21857 0.75772 0.0
O608 O 0.7092 0.24401 0.74273 0.0
O609 O 0.73736 0.75554 0.69719 0.0
Mg610 Mg 0.72625 0.77611 0.71645 0.0
O611 O 0.7449 0.73317 0.71751 0.0
Mg612 Mg 0.73734 0.74417 0.74767 0.0
O613 O 0.74269 0.77426 0.73968 0.0
O614 O 0.74089 0.80079 0.72408 0.0
O615 O 0.72904 0.75791 0.77669 0.0
O616 O 0.76964 0.7433 0.75655 0.0
Mg617 Mg 0.73944 0.72022 0.78138 0.0
O618 O 0.73166 0.71264 0.75454 0.0
O619 O 0.72015 0.73655 0.79695 0.0
O620 O 0.76854 0.72719 0.78307 0.0
O621 O 0.73311 0.69257 0.77862 0.0
C622 C 0.69298 0.75619 0.73324 0.0
C623 C 0.74379 0.73928 0.70062 0.0
C624 C 0.74792 0.79152 0.73788 0.0
C625 C 0.72154 0.75359 0.79245 0.0
C626 C 0.77793 0.73639 0.77094 0.0
C627 C 0.72945 0.69577 0.76106 0.0
O628 O 0.6981 0.77144 0.72564 0.0
O629 O 0.70506 0.74462 0.73962 0.0
O630 O 0.54205 0.4978 0.47496 0.0
Mg631 Mg 0.53509 0.47291 0.48948 0.0
O632 O 0.51651 0.51393 0.48409 0.0
Mg633 Mg 0.49196 0.49299 0.49261 0.0
O634 O 0.50778 0.46817 0.48251 0.0
O635 O 0.52896 0.44683 0.47554 0.0
O636 O 0.4677 0.47203 0.50127 0.0
O637 O 0.47833 0.49516 0.46284 0.0
Mg638 Mg 0.44899 0.51307 0.49625 0.0
O639 O 0.47628 0.51784 0.5031 0.0
O640 O 0.44234 0.48819 0.51092 0.0
O641 O 0.4499 0.50864 0.46633 0.0
O642 O 0.45493 0.53894 0.51047 0.0
C643 C 0.52051 0.48457 0.52948 0.0
C644 C 0.53325 0.51322 0.47695 0.0
C645 C 0.51147 0.45199 0.47537 0.0
C646 C 0.45121 0.47281 0.50889 0.0
C647 C 0.46265 0.50102 0.45602 0.0
C648 C 0.4724 0.53371 0.51086 0.0
O649 O 0.53368 0.47721 0.5195 0.0
O650 O 0.50511 0.49054 0.52225 0.0
O651 O 0.03715 0.47052 0.96575 0.0
Mg652 Mg 0.03974 0.47019 -0.00389 0.0
O653 O 0.01026 0.48672 0.96404 0.0
Mg654 Mg -0.00319 0.49151 -0.00728 0.0
O655 O 0.01253 0.46776 0.00424 0.0
O656 O 0.03234 0.44589 0.01215 0.0
O657 O 0.98339 0.49615 0.02156 0.0
O658 O 0.9738 0.46901 0.98432 0.0
Mg659 Mg 0.95436 0.508 0.98704 0.0
O660 O 0.98121 0.51628 0.98064 0.0
O661 O 0.95371 0.506 0.0172 0.0
O662 O 0.94913 0.48311 0.97142 0.0
O663 O 0.95641 0.53357 0.97321 0.0
C664 C 0.03778 0.51211 0.00767 0.0
C665 C 0.02431 0.47859 0.95616 0.0
C666 C 0.01523 0.45211 0.01231 0.0
C667 C 0.96729 0.50122 0.02797 0.0
C668 C 0.95831 0.46836 0.97494 0.0
C669 C 0.97457 0.53127 0.97322 0.0
O670 O 0.04709 0.49687 0.00846 0.0
O671 O 0.02076 0.51266 0.0013 0.0
C672 C 0.00013 0.18255 0.07014 0.0
C673 C 0.00357 0.18467 0.08965 0.0
C674 C 0.00341 0.1653 0.06092 0.0
C675 C 0.00551 0.1149 0.07099 0.0
H676 H 0.02289 0.11105 0.01901 0.0
C677 C -0.00467 0.0461 0.0305 0.0
C678 C 0.98329 0.04937 0.01511 0.0
C679 C 0.00581 0.06103 0.03863 0.0
C680 C 0.01828 0.11188 0.03362 0.0
H681 H 0.01361 0.17035 0.11463 0.0
H682 H 0.01931 0.14059 0.09859 0.0
H683 H 0.02453 0.14139 0.03578 0.0
H684 H 0.97428 0.06972 -0.00532 0.0
H685 H -0.00726 0.09558 0.00847 0.0
H686 H -0.00162 0.08571 0.06862 0.0
C687 C 0.01391 0.15212 0.09043 0.0
C688 C 0.01904 0.12926 0.04315 0.0
C689 C 0.01066 0.16927 0.09961 0.0
C690 C 0.9834 0.06703 0.00668 0.0
C691 C -0.00589 0.08177 0.0145 0.0
C692 C 0.00479 0.09757 0.06149 0.0
C693 C 0.01015 0.14985 0.07103 0.0
C694 C 0.01201 0.13108 0.06171 0.0
C695 C 0.00455 0.07921 0.03119 0.0
C696 C 0.01046 0.09602 0.04248 0.0
H697 H -0.00524 0.19412 0.06203 0.0
H698 H 0.00012 0.16393 0.04598 0.0
H699 H -0.00017 0.1158 0.08522 0.0
H700 H -0.00459 0.0325 0.03716 0.0
H701 H 0.01387 0.05865 0.05142 0.0
C702 C 0.06197 0.73557 0.34879 0.0
C703 C 0.0473 0.72248 0.34509 0.0
C704 C 0.07766 0.73649 0.33672 0.0
C705 C 0.10472 0.71098 0.30106 0.0
H706 H 0.11215 0.75934 0.27738 0.0
C707 C 0.16207 0.71636 0.24734 0.0
C708 C 0.175 0.73085 0.25189 0.0
C709 C 0.14332 0.71743 0.25359 0.0
C710 C 0.11024 0.74577 0.28387 0.0
H711 H 0.03798 0.69915 0.3272 0.0
H712 H 0.06581 0.70026 0.30654 0.0
H713 H 0.08823 0.75584 0.30231 0.0
H714 H 0.17829 0.75886 0.26391 0.0
H715 H 0.14588 0.76038 0.27578 0.0
H716 H 0.12704 0.7009 0.28348 0.0
C717 C 0.06503 0.71 0.31845 0.0
C718 C 0.09671 0.74383 0.29819 0.0
C719 C 0.0492 0.70934 0.33024 0.0
C720 C 0.16845 0.7475 0.26035 0.0
C721 C 0.14984 0.74835 0.26713 0.0
C722 C 0.11836 0.71294 0.28697 0.0
C723 C 0.07895 0.72405 0.32116 0.0
C724 C 0.09394 0.72642 0.30688 0.0
C725 C 0.13762 0.73264 0.26513 0.0
C726 C 0.12132 0.73035 0.27819 0.0
H727 H 0.06066 0.74591 0.36013 0.0
H728 H 0.08843 0.74729 0.33911 0.0
H729 H 0.10281 0.69745 0.30765 0.0
H730 H 0.1669 0.70351 0.24053 0.0
H731 H 0.13393 0.70546 0.25113 0.0
C732 C 0.48017 0.82006 0.59146 0.0
C733 C 0.47592 0.80367 0.5809 0.0
C734 C 0.47574 0.83766 0.58453 0.0
C735 C 0.4662 0.86153 0.53972 0.0
H736 H 0.46096 0.90406 0.57434 0.0
C737 C 0.4808 0.9337 0.51248 0.0
C738 C 0.49767 0.93984 0.52128 0.0
C739 C 0.46904 0.92056 0.52136 0.0
C740 C 0.46198 0.8923 0.56447 0.0
H741 H 0.46325 0.79272 0.55501 0.0
H742 H 0.45481 0.82361 0.54301 0.0
H743 H 0.45745 0.87217 0.58615 0.0
H744 H 0.51463 0.93903 0.54677 0.0
H745 H 0.49395 0.91638 0.5625 0.0
H746 H 0.47118 0.88166 0.51818 0.0
C747 C 0.46203 0.82289 0.5565 0.0
C748 C 0.46025 0.87402 0.57122 0.0
C749 C 0.46685 0.80519 0.56332 0.0
C750 C 0.50159 0.93444 0.53983 0.0
C751 C 0.48968 0.92159 0.54884 0.0
C752 C 0.46751 0.87977 0.53293 0.0
C753 C 0.46656 0.83939 0.56698 0.0
C754 C 0.46348 0.85841 0.55913 0.0
C755 C 0.47401 0.91361 0.53916 0.0
C756 C 0.46642 0.89529 0.5454 0.0
H757 H 0.48733 0.81933 0.605 0.0
H758 H 0.4801 0.84991 0.59278 0.0
H759 H 0.46888 0.85001 0.52993 0.0
H760 H 0.47777 0.93748 0.49803 0.0
H761 H 0.45704 0.91458 0.51363 0.0
C762 C 0.43717 0.23942 0.81187 0.0
C763 C 0.44381 0.24124 0.83053 0.0
C764 C 0.41767 0.23946 0.8082 0.0
C765 C 0.36989 0.23641 0.83049 0.0
H766 H 0.35632 0.26788 0.78847 0.0
C767 C 0.3034 0.27164 0.78751 0.0
C768 C 0.29293 0.25522 0.78358 0.0
C769 C 0.31941 0.27095 0.79909 0.0
C770 C 0.35983 0.25936 0.80052 0.0
H771 H 0.43541 0.24391 0.86002 0.0
H772 H 0.40147 0.24465 0.85353 0.0
H773 H 0.38952 0.2626 0.79528 0.0
H774 H 0.28955 0.22569 0.78963 0.0
H775 H 0.31783 0.22428 0.80949 0.0
H776 H 0.33991 0.23334 0.83563 0.0
C777 C 0.41121 0.24273 0.84179 0.0
C778 C 0.37889 0.25598 0.80414 0.0
C779 C 0.43066 0.24245 0.84548 0.0
C780 C 0.29734 0.23857 0.79285 0.0
C781 C 0.31355 0.23778 0.80417 0.0
C782 C 0.35068 0.23982 0.82684 0.0
C783 C 0.40454 0.24163 0.8231 0.0
C784 C 0.38415 0.24442 0.81908 0.0
C785 C 0.32543 0.25368 0.80624 0.0
C786 C 0.34552 0.25139 0.81182 0.0
H787 H 0.44702 0.23817 0.80013 0.0
H788 H 0.41288 0.23819 0.79366 0.0
H789 H 0.37356 0.22735 0.84206 0.0
H790 H 0.30014 0.28459 0.78041 0.0
H791 H 0.32812 0.28352 0.80089 0.0
C792 C -0.00159 0.81639 0.3703 0.0
C793 C -0.00162 0.79939 0.38014 0.0
C794 C -0.00519 0.83332 0.37991 0.0
C795 C 0.97317 0.85112 0.42445 0.0
H796 H 0.00299 0.89618 0.41514 0.0
C797 C 0.98568 0.91019 0.47917 0.0
C798 C 0.98518 0.92888 0.47312 0.0
C799 C 0.98358 0.89538 0.46615 0.0
C800 C -0.00568 0.88378 0.41764 0.0
H801 H -0.00436 0.78686 0.4078 0.0
H802 H -0.01 0.81628 0.42455 0.0
H803 H 0.00765 0.86827 0.39517 0.0
H804 H 0.98084 0.94665 0.44884 0.0
H805 H 0.9778 0.92066 0.42603 0.0
H806 H 0.96057 0.86638 0.44752 0.0
C807 C -0.00793 0.81656 0.40937 0.0
C808 C -0.00302 0.86782 0.40623 0.0
C809 C -0.00452 0.79971 0.39979 0.0
C810 C 0.98163 0.93242 0.45392 0.0
C811 C 0.97985 0.91759 0.44085 0.0
C812 C 0.97067 0.86699 0.43595 0.0
C813 C -0.00874 0.83349 0.3995 0.0
C814 C 0.98683 0.85115 0.40989 0.0
C815 C 0.98115 0.89897 0.44683 0.0
C816 C 0.98157 0.88327 0.43294 0.0
H817 H 0.00052 0.81653 0.35512 0.0
H818 H -0.00572 0.84616 0.37193 0.0
H819 H 0.96475 0.83864 0.42729 0.0
H820 H -0.01176 0.90696 0.49387 0.0
H821 H 0.98475 0.8811 0.47108 0.0
C822 C 0.43021 0.7297 0.66332 0.0
C823 C 0.43643 0.74069 0.64818 0.0
C824 C 0.41241 0.73261 0.67139 0.0
C825 C 0.36508 0.75166 0.66467 0.0
H826 H 0.36524 0.75114 0.71959 0.0
C827 C 0.29628 0.75181 0.71087 0.0
C828 C 0.29571 0.73576 0.72221 0.0
C829 C 0.31327 0.75719 0.70197 0.0
C830 C 0.365 0.75155 0.70427 0.0
H831 H 0.42847 0.76269 0.62891 0.0
H832 H 0.39707 0.7678 0.64322 0.0
H833 H 0.39531 0.75085 0.70244 0.0
H834 H 0.31246 0.71331 0.73385 0.0
H835 H 0.34197 0.72286 0.71871 0.0
H836 H 0.33458 0.7516 0.66667 0.0
C837 C 0.40613 0.75699 0.64878 0.0
C838 C 0.38216 0.75127 0.69446 0.0
C839 C 0.42404 0.75403 0.64061 0.0
C840 C 0.31247 0.7257 0.72515 0.0
C841 C 0.32939 0.73123 0.71658 0.0
C842 C 0.34781 0.752 0.67456 0.0
C843 C 0.40043 0.74664 0.6646 0.0
C844 C 0.38235 0.75047 0.67459 0.0
C845 C 0.3299 0.74682 0.70469 0.0
C846 C 0.34768 0.75113 0.69442 0.0
H847 H 0.43927 0.71909 0.66925 0.0
H848 H 0.40813 0.72403 0.68321 0.0
H849 H 0.36487 0.75113 0.64935 0.0
H850 H 0.2835 0.75976 0.70831 0.0
H851 H 0.31337 0.76926 0.69284 0.0
C852 C 0.48957 0.19971 0.93181 0.0
C853 C 0.48067 0.19874 0.91402 0.0
C854 C 0.48966 0.18398 0.94329 0.0
C855 C 0.50499 0.14389 0.94443 0.0
H856 H 0.46614 0.1086 0.96075 0.0
C857 C 0.51374 0.0637 0.9447 0.0
C858 C 0.50712 0.05423 0.96073 0.0
C859 C 0.51077 0.08294 0.943 0.0
C860 C 0.47713 0.11845 0.95648 0.0
H861 H 0.4625 0.18178 0.8955 0.0
H862 H 0.46253 0.15437 0.91573 0.0
H863 H 0.45715 0.14062 0.95237 0.0
H864 H 0.49308 0.05769 0.988 0.0
H865 H 0.48778 0.0912 0.9848 0.0
H866 H 0.52477 0.12146 0.94723 0.0
C867 C 0.46961 0.16715 0.92064 0.0
C868 C 0.47199 0.13665 0.95174 0.0
C869 C 0.46974 0.18277 0.90903 0.0
C870 C 0.49816 0.06451 0.97534 0.0
C871 C 0.49509 0.08367 0.97356 0.0
C872 C 0.51006 0.12563 0.94879 0.0
C873 C 0.48053 0.16733 0.93724 0.0
C874 C 0.48588 0.14938 0.94549 0.0
C875 C 0.50107 0.09293 0.95726 0.0
C876 C 0.49612 0.11271 0.95454 0.0
H877 H 0.49788 0.21196 0.9361 0.0
H878 H 0.49808 0.18432 0.95613 0.0
H879 H 0.51584 0.15345 0.93924 0.0
H880 H 0.52071 0.05618 0.93323 0.0
H881 H 0.51539 0.08986 0.93022 0.0
C882 C 0.04302 0.26605 0.15283 0.0
C883 C 0.04292 0.25677 0.13516 0.0
C884 C 0.05845 0.26433 0.16503 0.0
C885 C 0.09589 0.23272 0.17835 0.0
H886 H 0.12015 0.27725 0.20001 0.0
C887 C 0.16876 0.2333 0.21597 0.0
C888 C 0.17308 0.24852 0.22811 0.0
C889 C 0.15066 0.23161 0.20785 0.0
C890 C 0.11326 0.2646 0.19456 0.0
H891 H 0.05884 0.23859 0.11617 0.0
H892 H 0.08592 0.23534 0.13782 0.0
H893 H 0.09402 0.28055 0.17794 0.0
H894 H 0.1617 0.27251 0.24326 0.0
H895 H 0.12968 0.26882 0.23029 0.0
H896 H 0.115 0.21672 0.19515 0.0
C897 C 0.07403 0.244 0.14208 0.0
C898 C 0.09844 0.26656 0.1817 0.0
C899 C 0.0587 0.24603 0.12967 0.0
C900 C 0.15858 0.26066 0.23389 0.0
C901 C 0.14037 0.2587 0.2262 0.0
C902 C 0.11061 0.23072 0.19148 0.0
C903 C 0.0739 0.25301 0.15993 0.0
C904 C 0.08973 0.25068 0.17338 0.0
C905 C 0.13662 0.24503 0.21202 0.0
C906 C 0.11958 0.24668 0.19966 0.0
H907 H 0.03097 0.27436 0.15737 0.0
H908 H 0.05804 0.27139 0.17872 0.0
H909 H 0.08916 0.22026 0.17225 0.0
H910 H 0.17989 0.22392 0.21118 0.0
H911 H 0.14834 0.22088 0.19704 0.0
C912 C 0.07037 0.97239 0.19634 0.0
C913 C 0.08927 0.97905 0.19588 0.0
C914 C 0.05857 0.97418 0.18057 0.0
C915 C 0.05207 0.00417 0.14003 0.0
H916 H 0.02514 0.96218 0.11627 0.0
C917 C 0.03331 0.00072 0.06206 0.0
C918 C 0.01678 -0.0087 0.05595 0.0
C919 C 0.03764 0.002 0.08124 0.0
C920 C 0.03213 0.97416 0.12304 0.0
H921 H 0.11087 -0.00773 0.17847 0.0
H922 H 0.09016 -0.00434 0.15105 0.0
H923 H 0.04252 0.95753 0.14578 0.0
H924 H -0.00881 0.97665 0.0647 0.0
H925 H -0.001 0.97847 0.09864 0.0
H926 H 0.04222 0.0207 0.11709 0.0
C927 C 0.08449 0.98908 0.16361 0.0
C928 C 0.04217 0.97144 0.13982 0.0
C929 C 0.09637 0.98698 0.17921 0.0
C930 C 0.004 0.98403 0.06927 0.0
C931 C 0.00851 0.985 0.08856 0.0
C932 C 0.04195 0.00692 0.12337 0.0
C933 C 0.06542 0.98301 0.16428 0.0
C934 C 0.05275 0.98628 0.14805 0.0
C935 C 0.02565 -0.00644 0.09465 0.0
C936 C 0.03247 -0.00822 0.11433 0.0
H937 H 0.0646 0.96613 0.20901 0.0
H938 H 0.04393 0.96929 0.18133 0.0
H939 H 0.05983 0.01591 0.14638 0.0
H940 H 0.04329 0.00645 0.05191 0.0
H941 H 0.05103 0.00852 0.08544 0.0
C942 C 0.24348 0.86655 0.41897 0.0
C943 C 0.23841 0.85689 0.43541 0.0
C944 C 0.24744 0.85663 0.4022 0.0
C945 C 0.25864 0.80845 0.38457 0.0
H946 H 0.23933 0.82625 0.33676 0.0
C947 C 0.23992 0.75904 0.32334 0.0
C948 C 0.24498 0.76383 0.30476 0.0
C949 C 0.24266 0.77176 0.33825 0.0
C950 C 0.24511 0.82128 0.34995 0.0
H951 H 0.23289 0.8295 0.44724 0.0
H952 H 0.23881 0.81223 0.4179 0.0
H953 H 0.23701 0.8462 0.3651 0.0
H954 H 0.25687 0.78588 0.28733 0.0
H955 H 0.26164 0.8083 0.31372 0.0
H956 H 0.26585 0.78316 0.3696 0.0
C957 C 0.24055 0.82737 0.41799 0.0
C958 C 0.24379 0.83269 0.36619 0.0
C959 C 0.23696 0.83724 0.43477 0.0
C960 C 0.25288 0.78174 0.30148 0.0
C961 C 0.25557 0.79457 0.31652 0.0
C962 C 0.25979 0.79702 0.36842 0.0
C963 C 0.2461 0.83689 0.40156 0.0
C964 C 0.24994 0.82611 0.38382 0.0
C965 C 0.25051 0.78963 0.33504 0.0
C966 C 0.25247 0.80308 0.35111 0.0
H967 H 0.24491 0.88173 0.41921 0.0
H968 H 0.25184 0.86439 0.38987 0.0
H969 H 0.26408 0.80318 0.39778 0.0
H970 H 0.23359 0.74549 0.32642 0.0
H971 H 0.23823 0.76774 0.35232 0.0
C972 C 0.38959 -0.00068 0.67155 0.0
C973 C 0.3928 0.01244 0.68626 0.0
C974 C 0.40159 -0.00096 0.65584 0.0
C975 C 0.43295 0.02619 0.62703 0.0
H976 H 0.46052 0.97989 0.61826 0.0
C977 C 0.47908 0.02024 0.56223 0.0
C978 C 0.47575 0.00375 0.55165 0.0
C979 C 0.4743 0.02096 0.58134 0.0
C980 C 0.4529 -0.00712 0.62047 0.0
H981 H 0.40989 0.03631 0.69577 0.0
H982 H 0.43041 0.03633 0.66775 0.0
H983 H 0.43863 0.98248 0.64505 0.0
H984 H 0.46652 0.9747 0.5524 0.0
H985 H 0.45699 0.97615 0.58551 0.0
H986 H 0.44598 0.03636 0.60201 0.0
C987 C 0.41895 0.02605 0.66863 0.0
C988 C 0.44041 -0.00568 0.63575 0.0
C989 C 0.40725 0.02606 0.68453 0.0
C990 C 0.46914 0.98753 0.56052 0.0
C991 C 0.46382 0.98839 0.57951 0.0
C992 C 0.44511 0.02466 0.61157 0.0
C993 C 0.41657 0.01215 0.65455 0.0
C994 C 0.43018 0.01088 0.63889 0.0
C995 C 0.46541 0.00544 0.58983 0.0
C996 C 0.45502 0.00788 0.60792 0.0
H997 H 0.37859 0.98861 0.6727 0.0
H998 H 0.39948 0.98835 0.64492 0.0
H999 H 0.42513 0.03907 0.62931 0.0
H1000 H 0.48441 0.0328 0.55548 0.0
H1001 H 0.47636 0.03409 0.58908 0.0
C1002 C 0.25502 0.13964 0.91632 0.0
C1003 C 0.25837 0.1491 0.93361 0.0
C1004 C 0.2596 0.14809 0.89926 0.0
C1005 C 0.26609 0.19492 0.87911 0.0
H1006 H 0.27427 0.16478 0.83363 0.0
C1007 C 0.25071 0.22574 0.80757 0.0
C1008 C 0.23523 0.21574 0.79975 0.0
C1009 C 0.26217 0.21742 0.82116 0.0
C1010 C 0.27236 0.17343 0.84623 0.0
H1011 H 0.26991 0.17451 0.94667 0.0
H1012 H 0.27842 0.18922 0.91673 0.0
H1013 H 0.27876 0.15084 0.86463 0.0
H1014 H 0.22025 0.18907 0.79853 0.0
H1015 H 0.24059 0.17424 0.82188 0.0
H1016 H 0.25915 0.21731 0.86069 0.0
C1017 C 0.27183 0.17539 0.91637 0.0
C1018 C 0.27472 0.16545 0.86399 0.0
C1019 C 0.26697 0.167 0.93352 0.0
C1020 C 0.2323 0.19688 0.80431 0.0
C1021 C 0.24398 0.18843 0.81759 0.0
C1022 C 0.26408 0.20297 0.86137 0.0
C1023 C 0.26793 0.16614 0.89899 0.0
C1024 C 0.2705 0.17578 0.88062 0.0
C1025 C 0.25837 0.19895 0.82685 0.0
C1026 C 0.2662 0.19202 0.84481 0.0
H1027 H 0.24834 0.12585 0.9159 0.0
H1028 H 0.25586 0.14067 0.88626 0.0
H1029 H 0.26263 0.20334 0.8915 0.0
H1030 H 0.25292 0.24045 0.80445 0.0
H1031 H 0.27314 0.22581 0.82814 0.0
C1032 C 0.10011 0.98546 0.31573 0.0
C1033 C 0.08688 -0.00508 0.30446 0.0
C1034 C 0.09547 0.98031 0.33415 0.0
C1035 C 0.05394 0.97066 0.36403 0.0
H1036 H 0.08702 0.98289 0.40651 0.0
C1037 C 0.03815 0.00193 0.43685 0.0
C1038 C 0.02157 -0.00849 0.44044 0.0
C1039 C 0.05222 -0.00548 0.42514 0.0
C1040 C 0.0778 0.97899 0.39476 0.0
H1041 H 0.05866 0.00697 0.30397 0.0
H1042 H 0.05064 -0.00186 0.3362 0.0
H1043 H 0.09849 0.98744 0.3742 0.0
H1044 H 0.00753 0.96452 0.43708 0.0
H1045 H 0.03215 0.95139 0.41636 0.0
H1046 H 0.03277 0.96356 0.38428 0.0
C1047 C 0.06448 -0.00559 0.33061 0.0
C1048 C 0.08434 0.98163 0.37629 0.0
C1049 C 0.06914 -0.00035 0.31223 0.0
C1050 C 0.02028 0.97272 0.4344 0.0
C1051 C 0.03433 0.96529 0.42252 0.0
C1052 C 0.04744 0.96798 0.3824 0.0
C1053 C 0.07747 0.98441 0.34161 0.0
C1054 C 0.07209 0.9784 0.36084 0.0
C1055 C 0.04958 0.97674 0.4165 0.0
C1056 C 0.05892 0.97308 0.39801 0.0
H1057 H 0.11393 0.98163 0.31018 0.0
H1058 H 0.10575 0.97267 0.34235 0.0
H1059 H 0.04438 0.96762 0.35232 0.0
H1060 H 0.03936 0.01647 0.44155 0.0
H1061 H 0.06378 0.00374 0.42094 0.0
C1062 C 0.25787 0.83928 0.56343 0.0
C1063 C 0.25644 0.83266 0.54465 0.0
C1064 C 0.25938 0.82664 0.5782 0.0
C1065 C 0.24153 0.78073 0.58882 0.0
H1066 H 0.26777 0.78946 0.63648 0.0
C1067 C 0.24061 0.75592 0.67141 0.0
C1068 C 0.22323 0.76385 0.6772 0.0
C1069 C 0.24712 0.75815 0.65295 0.0
C1070 C 0.26065 0.78658 0.62312 0.0
H1071 H 0.25738 0.80788 0.5264 0.0
H1072 H 0.25994 0.78577 0.55233 0.0
H1073 H 0.27797 0.80654 0.60843 0.0
H1074 H 0.1981 0.77838 0.66769 0.0
H1075 H 0.20939 0.7819 0.63522 0.0
H1076 H 0.22323 0.76193 0.60398 0.0
C1077 C 0.25962 0.80069 0.55557 0.0
C1078 C 0.26641 0.79639 0.60716 0.0
C1079 C 0.25812 0.81333 0.54078 0.0
C1080 C 0.21162 0.77232 0.66369 0.0
C1081 C 0.218 0.77422 0.64512 0.0
C1082 C 0.23557 0.77116 0.60487 0.0
C1083 C 0.25951 0.80721 0.57441 0.0
C1084 C 0.25649 0.794 0.59004 0.0
C1085 C 0.23616 0.76791 0.63992 0.0
C1086 C 0.24474 0.77447 0.62222 0.0
H1087 H 0.25672 0.85412 0.56683 0.0
H1088 H 0.2591 0.83204 0.59263 0.0
H1089 H 0.23352 0.77878 0.57583 0.0
H1090 H 0.24986 0.74917 0.68144 0.0
H1091 H 0.26116 0.75319 0.64914 0.0
C1092 C 0.40191 0.00157 0.80604 0.0
C1093 C 0.41053 -0.00959 0.79197 0.0
C1094 C 0.40544 -0.0017 0.82513 0.0
C1095 C 0.43896 0.9739 0.85647 0.0
H1096 H 0.39895 0.98053 0.89382 0.0
C1097 C 0.45727 0.95904 0.93023 0.0
C1098 C 0.45766 0.97617 0.94026 0.0
C1099 C 0.44507 0.95658 0.91486 0.0
C1100 C 0.4101 0.97841 0.88344 0.0
H1101 H 0.42961 0.96716 0.7867 0.0
H1102 H 0.43522 0.96098 0.81982 0.0
H1103 H 0.39218 0.98585 0.86029 0.0
H1104 H 0.44416 0.00313 0.94415 0.0
H1105 H 0.42314 -0.0009 0.91678 0.0
H1106 H 0.45686 0.96652 0.8794 0.0
C1107 C 0.4262 0.97264 0.81628 0.0
C1108 C 0.40637 0.98168 0.86433 0.0
C1109 C 0.42299 0.97617 0.79725 0.0
C1110 C 0.44393 -0.01023 0.93656 0.0
C1111 C 0.4319 0.98744 0.92093 0.0
C1112 C 0.44255 0.97032 0.87537 0.0
C1113 C 0.41738 0.98358 0.83046 0.0
C1114 C 0.42086 0.97965 0.85068 0.0
C1115 C 0.43358 0.97146 0.90914 0.0
C1116 C 0.42824 0.97267 0.88905 0.0
H1117 H 0.39228 0.01269 0.80229 0.0
H1118 H 0.39877 0.00726 0.83567 0.0
H1119 H 0.45061 0.97268 0.84651 0.0
H1120 H 0.46778 0.94839 0.93299 0.0
H1121 H 0.44636 0.94403 0.90607 0.0
C1122 C 0.24399 0.12926 0.06769 0.0
C1123 C 0.2454 0.13817 0.05013 0.0
C1124 C 0.24684 0.13941 0.08452 0.0
C1125 C 0.26737 0.18403 0.10367 0.0
H1126 H 0.23377 0.17412 0.14599 0.0
C1127 C 0.25469 0.23578 0.16578 0.0
C1128 C 0.2521 0.2285 0.18399 0.0
C1129 C 0.25728 0.22376 0.15022 0.0
C1130 C 0.2435 0.17683 0.13442 0.0
H1131 H 0.2507 0.16478 0.03649 0.0
H1132 H 0.25521 0.18264 0.06592 0.0
H1133 H 0.23075 0.15528 0.11707 0.0
H1134 H 0.2513 0.20293 0.20029 0.0
H1135 H 0.25578 0.18192 0.17302 0.0
H1136 H 0.27962 0.20606 0.12092 0.0
C1137 C 0.25238 0.16768 0.06665 0.0
C1138 C 0.24176 0.16604 0.11783 0.0
C1139 C 0.24968 0.15748 0.04978 0.0
C1140 C 0.25323 0.20899 0.18645 0.0
C1141 C 0.25567 0.19695 0.17084 0.0
C1142 C 0.26902 0.1949 0.12024 0.0
C1143 C 0.25101 0.15876 0.08422 0.0
C1144 C 0.25353 0.16965 0.10217 0.0
C1145 C 0.25721 0.20421 0.15253 0.0
C1146 C 0.25695 0.19153 0.1357 0.0
H1147 H 0.24082 0.11436 0.06846 0.0
H1148 H 0.24593 0.13204 0.09778 0.0
H1149 H 0.27691 0.18693 0.09201 0.0
H1150 H 0.254 0.25075 0.16341 0.0
H1151 H 0.25831 0.22975 0.13627 0.0
C1152 C 0.17835 0.08484 0.97709 0.0
C1153 C 0.18278 0.10302 0.98379 0.0
C1154 C 0.15972 0.07802 0.97776 0.0
C1155 C 0.10961 0.0921 0.98075 0.0
H1156 H 0.10296 0.03927 -0.00813 0.0
C1157 C 0.03975 0.04436 0.98804 0.0
C1158 C 0.04131 0.02797 0.97676 0.0
C1159 C 0.05475 0.05752 0.98866 0.0
C1160 C 0.10462 0.05407 0.98882 0.0
H1161 H 0.17119 0.12841 -0.00358 0.0
H1162 H 0.13842 0.11629 -0.00216 0.0
H1163 H 0.1342 0.05394 -0.00444 0.0
H1164 H 0.05831 0.01365 0.95553 0.0
H1165 H 0.08424 0.03665 0.95645 0.0
H1166 H 0.07971 0.09189 0.97396 0.0
C1167 C 0.1494 0.10744 -0.00815 0.0
C1168 C 0.12249 0.06245 -0.00916 0.0
C1169 C 0.16813 0.11435 -0.00895 0.0
C1170 C 0.05685 0.02609 0.96443 0.0
C1171 C 0.07169 0.03919 0.965 0.0
C1172 C 0.09155 0.08367 0.97889 0.0
C1173 C 0.14505 0.08913 0.98534 0.0
C1174 C 0.12538 0.08136 0.98611 0.0
C1175 C 0.07124 0.05436 0.9779 0.0
C1176 C 0.08918 0.06443 0.98227 0.0
H1177 H 0.18929 0.07584 0.97126 0.0
H1178 H 0.1568 0.06402 0.97218 0.0
H1179 H 0.1114 0.10672 0.97707 0.0
H1180 H 0.02794 0.04606 -0.00224 0.0
H1181 H 0.05418 0.06916 -0.00129 0.0
C1182 C 0.68729 0.40694 0.02505 0.0
C1183 C 0.68943 0.39221 0.01185 0.0
C1184 C 0.67131 0.41826 0.02446 0.0
C1185 C 0.63948 0.43766 -0.00923 0.0
H1186 H 0.60798 0.45025 0.03404 0.0
C1187 C 0.56654 0.47181 0.98692 0.0
C1188 C 0.55934 0.47974 0.00368 0.0
C1189 C 0.58539 0.46594 0.98623 0.0
C1190 C 0.61697 0.44737 0.02192 0.0
H1191 H 0.67641 0.37694 0.98832 0.0
H1192 H 0.6484 0.39717 0.98703 0.0
H1193 H 0.63298 0.42733 0.03731 0.0
H1194 H 0.56634 0.49089 0.0315 0.0
H1195 H 0.5997 0.48189 0.02985 0.0
H1196 H 0.62361 0.45784 0.97537 0.0
C1197 C 0.65909 0.39982 -0.00216 0.0
C1198 C 0.63106 0.43399 0.02378 0.0
C1199 C 0.67492 0.3882 -0.00129 0.0
C1200 C 0.57171 0.4845 0.01856 0.0
C1201 C 0.59069 0.47918 0.01765 0.0
C1202 C 0.62552 0.4513 0.98895 0.0
C1203 C 0.65751 0.41521 0.0104 0.0
C1204 C 0.64224 0.42889 0.00819 0.0
C1205 C 0.59718 0.46829 0.00222 0.0
C1206 C 0.61397 0.45616 0.00448 0.0
H1207 H 0.69838 0.41019 0.03529 0.0
H1208 H 0.67029 0.43005 0.03429 0.0
H1209 H 0.64827 0.4341 0.97866 0.0
H1210 H 0.5571 0.4681 0.97529 0.0
H1211 H 0.58994 0.45775 0.97403 0.0
C1212 C 0.86526 0.4206 0.22902 0.0
C1213 C 0.85783 0.43762 0.23603 0.0
C1214 C 0.85523 0.40369 0.23151 0.0
C1215 C 0.80659 0.38656 0.2401 0.0
H1216 H 0.82989 0.34083 0.25755 0.0
C1217 C 0.75942 0.32634 0.26207 0.0
C1218 C 0.76323 0.30905 0.25315 0.0
C1219 C 0.7732 0.34055 0.26247 0.0
C1220 C 0.82327 0.35351 0.25261 0.0
H1221 H 0.83426 0.45013 0.25148 0.0
H1222 H 0.81711 0.42093 0.25589 0.0
H1223 H 0.84983 0.36876 0.25175 0.0
H1224 H 0.78486 0.29239 0.23906 0.0
H1225 H 0.80887 0.31757 0.23928 0.0
H1226 H 0.78016 0.37166 0.24089 0.0
C1227 C 0.83044 0.4206 0.24817 0.0
C1228 C 0.83465 0.3694 0.2492 0.0
C1229 C 0.84033 0.43736 0.24564 0.0
C1230 C 0.78157 0.30565 0.24599 0.0
C1231 C 0.79532 0.32002 0.24616 0.0
C1232 C 0.79532 0.37084 0.24354 0.0
C1233 C 0.83765 0.40361 0.241 0.0
C1234 C 0.8263 0.38615 0.24321 0.0
C1235 C 0.79091 0.33785 0.25364 0.0
C1236 C 0.80344 0.35426 0.25012 0.0
H1237 H 0.87878 0.42033 0.22164 0.0
H1238 H 0.86105 0.39077 0.22577 0.0
H1239 H 0.79982 0.39912 0.23504 0.0
H1240 H 0.74551 0.32917 0.26803 0.0
H1241 H 0.76962 0.35402 0.26879 0.0
C1242 C 0.81126 0.58216 0.47938 0.0
C1243 C 0.79776 0.57237 0.49028 0.0
C1244 C 0.82926 0.57462 0.476 0.0
C1245 C 0.8559 0.52994 0.47788 0.0
H1246 H 0.89991 0.56232 0.48659 0.0
C1247 C 0.92344 0.50786 0.51384 0.0
C1248 C 0.94121 0.5146 0.50782 0.0
C1249 C 0.90694 0.51295 0.50447 0.0
C1250 C 0.88781 0.55319 0.48354 0.0
H1251 H 0.79269 0.54708 0.50633 0.0
H1252 H 0.8241 0.53414 0.50075 0.0
H1253 H 0.86829 0.57601 0.48501 0.0
H1254 H 0.95605 0.53093 0.48673 0.0
H1255 H 0.92672 0.54078 0.47073 0.0
H1256 H 0.87537 0.507 0.47785 0.0
C1257 C 0.82065 0.54742 0.4944 0.0
C1258 C 0.86968 0.56101 0.48272 0.0
C1259 C 0.80268 0.55493 0.49776 0.0
C1260 C 0.9424 0.52571 0.49163 0.0
C1261 C 0.92572 0.53128 0.48251 0.0
C1262 C 0.87399 0.52214 0.47883 0.0
C1263 C 0.83413 0.55714 0.48344 0.0
C1264 C 0.85347 0.54936 0.48072 0.0
C1265 C 0.90784 0.52524 0.48917 0.0
C1266 C 0.88999 0.53362 0.48248 0.0
H1267 H 0.80794 0.59564 0.4734 0.0
H1268 H 0.83932 0.58243 0.46748 0.0
H1269 H 0.84372 0.52066 0.47582 0.0
H1270 H 0.92226 0.49907 0.52617 0.0
H1271 H 0.89335 0.50823 0.51001 0.0
C1272 C 0.13221 0.06462 0.22352 0.0
C1273 C 0.1391 0.05029 0.23503 0.0
C1274 C 0.1436 0.08028 0.2195 0.0
C1275 C 0.1937 0.09779 0.22149 0.0
H1276 H 0.17033 0.14666 0.22677 0.0
C1277 C 0.23099 0.16191 0.25245 0.0
C1278 C 0.22567 0.18006 0.24727 0.0
C1279 C 0.22279 0.1462 0.24364 0.0
C1280 C 0.17705 0.13317 0.22468 0.0
H1281 H 0.16326 0.04123 0.2515 0.0
H1282 H 0.18287 0.06876 0.24503 0.0
H1283 H 0.15041 0.11853 0.22644 0.0
H1284 H 0.20903 0.19615 0.22762 0.0
H1285 H 0.19426 0.1684 0.21224 0.0
H1286 H 0.22045 0.11248 0.22087 0.0
C1287 C 0.16889 0.06768 0.23861 0.0
C1288 C 0.16561 0.11699 0.22458 0.0
C1289 C 0.15758 0.05197 0.24249 0.0
C1290 C 0.21321 0.18227 0.23196 0.0
C1291 C 0.20476 0.16643 0.22323 0.0
C1292 C 0.20514 0.11396 0.22164 0.0
C1293 C 0.16207 0.08201 0.22702 0.0
C1294 C 0.17387 0.0991 0.22378 0.0
C1295 C 0.20894 0.14827 0.22953 0.0
C1296 C 0.19697 0.13178 0.22405 0.0
H1297 H 0.11809 0.06365 0.2174 0.0
H1298 H 0.13796 0.09099 0.21042 0.0
H1299 H 0.20046 0.08422 0.22034 0.0
H1300 H 0.24081 0.1598 0.26403 0.0
H1301 H 0.22625 0.13246 0.24895 0.0
C1302 C 0.29466 0.92571 0.47305 0.0
C1303 C 0.28892 0.91445 0.48816 0.0
C1304 C 0.31393 0.929 0.46966 0.0
C1305 C 0.36187 0.91068 0.48135 0.0
H1306 H 0.37832 0.95895 0.46235 0.0
C1307 C 0.43539 0.9462 0.48969 0.0
C1308 C 0.44135 0.95805 0.47515 0.0
C1309 C 0.41873 0.93549 0.48762 0.0
C1310 C 0.37391 0.94522 0.46724 0.0
H1311 H 0.29857 0.89865 0.51221 0.0
H1312 H 0.33226 0.90535 0.507 0.0
H1313 H 0.34478 0.9531 0.46774 0.0
H1314 H 0.43599 0.96694 0.44656 0.0
H1315 H 0.40689 0.94806 0.44278 0.0
H1316 H 0.39147 0.90348 0.48199 0.0
C1317 C 0.32198 0.91092 0.49723 0.0
C1318 C 0.35465 0.94187 0.47039 0.0
C1319 C 0.30269 0.9073 0.50039 0.0
C1320 C 0.43166 0.95769 0.45784 0.0
C1321 C 0.41503 0.94698 0.45573 0.0
C1322 C 0.38127 0.91418 0.47849 0.0
C1323 C 0.32785 0.92146 0.48157 0.0
C1324 C 0.34837 0.92464 0.47765 0.0
C1325 C 0.4078 0.9368 0.47106 0.0
C1326 C 0.38743 0.93156 0.47153 0.0
H1327 H 0.28432 0.93118 0.46326 0.0
H1328 H 0.31788 0.93697 0.45732 0.0
H1329 H 0.35749 0.89709 0.48659 0.0
H1330 H 0.44234 0.94683 0.50336 0.0
H1331 H 0.41335 0.92792 0.49971 0.0
C1332 C 0.81079 0.5441 0.24161 0.0
C1333 C 0.82511 0.54161 0.25514 0.0
C1334 C 0.79834 0.55917 0.24331 0.0
C1335 C 0.79728 0.60617 0.26624 0.0
H1336 H 0.74811 0.60848 0.24146 0.0
C1337 C 0.75605 0.67455 0.26213 0.0
C1338 C 0.75869 0.68111 0.24371 0.0
C1339 C 0.75851 0.65555 0.26592 0.0
C1340 C 0.76168 0.60786 0.24869 0.0
H1341 H 0.83667 0.55165 0.28189 0.0
H1342 H 0.81421 0.57725 0.28557 0.0
H1343 H 0.76344 0.57802 0.24523 0.0
H1344 H 0.76425 0.67314 0.21453 0.0
H1345 H 0.76805 0.63972 0.2211 0.0
H1346 H 0.79543 0.63598 0.26965 0.0
C1347 C 0.81311 0.56824 0.27311 0.0
C1348 C 0.77059 0.59053 0.25068 0.0
C1349 C 0.8259 0.5535 0.27112 0.0
C1350 C 0.76227 0.6683 0.22886 0.0
C1351 C 0.76425 0.64926 0.23256 0.0
C1352 C 0.78818 0.62331 0.26467 0.0
C1353 C 0.7997 0.57177 0.25882 0.0
C1354 C 0.78876 0.58954 0.25906 0.0
C1355 C 0.76311 0.64292 0.25121 0.0
C1356 C 0.77056 0.62432 0.25555 0.0
H1357 H 0.80995 0.5351 0.22911 0.0
H1358 H 0.78842 0.56146 0.23188 0.0
H1359 H 0.81145 0.60621 0.27225 0.0
H1360 H 0.75346 0.68428 0.27376 0.0
H1361 H 0.75786 0.65088 0.28042 0.0
C1362 C 0.64379 0.42226 0.77259 0.0
C1363 C 0.65355 0.43441 0.76034 0.0
C1364 C 0.65062 0.40431 0.77593 0.0
C1365 C 0.69216 0.37379 0.7721 0.0
H1366 H 0.65567 0.33455 0.75823 0.0
C1367 C 0.70171 0.30514 0.73011 0.0
C1368 C 0.71682 0.2973 0.74007 0.0
C1369 C 0.68946 0.31761 0.7392 0.0
C1370 C 0.66585 0.34531 0.76264 0.0
H1371 H 0.67871 0.43775 0.74291 0.0
H1372 H 0.69075 0.40626 0.74884 0.0
H1373 H 0.64516 0.3671 0.76152 0.0
H1374 H 0.72994 0.29435 0.76747 0.0
H1375 H 0.70893 0.31692 0.78341 0.0
H1376 H 0.71304 0.35219 0.77223 0.0
C1377 C 0.67781 0.41072 0.75585 0.0
C1378 C 0.65989 0.3639 0.76447 0.0
C1379 C 0.67091 0.4287 0.75241 0.0
C1380 C 0.71831 0.30031 0.75964 0.0
C1381 C 0.70634 0.3132 0.7687 0.0
C1382 C 0.69804 0.35518 0.77058 0.0
C1383 C 0.66742 0.39821 0.76722 0.0
C1384 C 0.67315 0.37837 0.76853 0.0
C1385 C 0.69259 0.32276 0.75822 0.0
C1386 C 0.68509 0.34089 0.76514 0.0
H1387 H 0.63047 0.42634 0.7791 0.0
H1388 H 0.6425 0.395 0.78492 0.0
H1389 H 0.7026 0.38469 0.77532 0.0
H1390 H 0.70036 0.30287 0.71496 0.0
H1391 H 0.67902 0.32481 0.73079 0.0
C1392 C -0.00267 0.82271 0.87885 0.0
C1393 C -0.00329 0.80572 0.88868 0.0
C1394 C -0.00763 0.83954 0.88782 0.0
C1395 C 0.96938 0.8597 0.93113 0.0
H1396 H 0.00201 0.90232 0.91982 0.0
C1397 C -0.01008 0.92037 0.98165 0.0
C1398 C -0.0055 0.9378 0.97383 0.0
C1399 C 0.98256 0.90587 0.97017 0.0
C1400 C -0.00761 0.89074 0.92283 0.0
H1401 H -0.00977 0.79307 0.91566 0.0
H1402 H 0.98236 0.82265 0.93164 0.0
H1403 H 0.00561 0.8733 0.90203 0.0
H1404 H -0.0057 0.95434 0.9486 0.0
H1405 H 0.98098 0.92919 0.92841 0.0
H1406 H 0.95713 0.87714 0.95294 0.0
C1407 C 0.98617 0.82288 0.9168 0.0
C1408 C -0.00551 0.874 0.91263 0.0
C1409 C -0.0091 0.80594 0.90771 0.0
C1410 C -0.00987 0.94117 0.9549 0.0
C1411 C 0.98283 0.9267 0.94338 0.0
C1412 C 0.96742 0.87648 0.94155 0.0
C1413 C 0.98695 0.83991 0.90697 0.0
C1414 C 0.98328 0.85814 0.91685 0.0
C1415 C 0.9801 0.9086 0.95066 0.0
C1416 C 0.97918 0.89205 0.93769 0.0
H1417 H 0.00146 0.82303 0.86409 0.0
H1418 H -0.00721 0.85229 0.87967 0.0
H1419 H 0.96026 0.84786 0.93453 0.0
H1420 H -0.00653 0.91751 -0.00377 0.0
H1421 H 0.98071 0.89207 0.97617 0.0
C1422 C 0.94311 0.21539 0.67254 0.0
C1423 C 0.94668 0.23066 0.66066 0.0
C1424 C 0.92506 0.21257 0.68027 0.0
C1425 C 0.87502 0.22926 0.67833 0.0
H1426 H 0.87619 0.22098 0.73251 0.0
C1427 C 0.82308 0.26212 0.72923 0.0
C1428 C 0.80814 0.24954 0.73326 0.0
C1429 C 0.84043 0.25539 0.72265 0.0
C1430 C 0.87569 0.22297 0.71735 0.0
H1431 H 0.93411 0.25444 0.64681 0.0
H1432 H 0.90285 0.25013 0.66098 0.0
H1433 H 0.90505 0.21643 0.71374 0.0
H1434 H 0.8003 0.22012 0.73541 0.0
H1435 H 0.83093 0.20836 0.72423 0.0
H1436 H 0.84593 0.23707 0.68237 0.0
C1437 C 0.91377 0.23999 0.66399 0.0
C1438 C 0.8921 0.22029 0.70655 0.0
C1439 C 0.93174 0.24262 0.65602 0.0
C1440 C 0.81161 0.23011 0.73267 0.0
C1441 C 0.82903 0.22336 0.72611 0.0
C1442 C 0.85871 0.23209 0.68916 0.0
C1443 C 0.91033 0.22516 0.67651 0.0
C1444 C 0.89213 0.22414 0.68705 0.0
C1445 C 0.84311 0.23603 0.72022 0.0
C1446 C 0.85919 0.22956 0.70878 0.0
H1447 H 0.95431 0.20567 0.67595 0.0
H1448 H 0.92275 0.20078 0.68952 0.0
H1449 H 0.87444 0.23192 0.6633 0.0
H1450 H 0.82085 0.27716 0.72965 0.0
H1451 H 0.85129 0.2653 0.71818 0.0
C1452 C 0.48851 0.1728 0.3904 0.0
C1453 C 0.4934 0.18922 0.40065 0.0
C1454 C 0.49043 0.15519 0.39854 0.0
C1455 C 0.49609 0.13126 0.44425 0.0
H1456 H 0.51484 0.09079 0.41209 0.0
C1457 C 0.50378 0.05803 0.47393 0.0
C1458 C 0.49218 0.04521 0.46387 0.0
C1459 C 0.50945 0.07486 0.46559 0.0
C1460 C 0.50974 0.102 0.42125 0.0
H1461 H 0.5034 0.20011 0.42777 0.0
H1462 H 0.50691 0.16935 0.44194 0.0
H1463 H 0.51183 0.12231 0.39936 0.0
H1464 H 0.4788 0.03877 0.43696 0.0
H1465 H 0.48918 0.06783 0.42212 0.0
H1466 H 0.49374 0.11087 0.46604 0.0
C1467 C 0.50148 0.17007 0.42764 0.0
C1468 C 0.50782 0.12 0.41394 0.0
C1469 C 0.49947 0.18771 0.41951 0.0
C1470 C 0.48806 0.04837 0.4448 0.0
C1471 C 0.49393 0.06505 0.43637 0.0
C1472 C 0.49816 0.1133 0.45159 0.0
C1473 C 0.49738 0.15358 0.41709 0.0
C1474 C 0.50057 0.13475 0.42524 0.0
C1475 C 0.50366 0.07893 0.44707 0.0
C1476 C 0.50467 0.09842 0.44006 0.0
H1477 H 0.48367 0.1735 0.37587 0.0
H1478 H 0.48664 0.1428 0.39019 0.0
H1479 H 0.49029 0.14221 0.4533 0.0
H1480 H 0.50678 0.05595 0.48879 0.0
H1481 H 0.51711 0.08527 0.47407 0.0
C1482 C 0.56137 0.76183 0.14681 0.0
C1483 C 0.55541 0.75494 0.12907 0.0
C1484 C 0.5788 0.75648 0.15422 0.0
C1485 C 0.62463 0.73354 0.14391 0.0
H1486 H 0.62047 0.72147 0.19704 0.0
C1487 C 0.68744 0.73129 0.19545 0.0
C1488 C 0.68491 0.72164 0.21242 0.0
C1489 C 0.67342 0.73024 0.18145 0.0
C1490 C 0.6219 0.72429 0.18209 0.0
H1491 H 0.56344 0.73813 0.10451 0.0
H1492 H 0.59388 0.72842 0.1177 0.0
H1493 H 0.59269 0.73174 0.18023 0.0
H1494 H 0.66755 0.70117 0.22706 0.0
H1495 H 0.64359 0.6985 0.20222 0.0
H1496 H 0.654 0.72593 0.14592 0.0
C1497 C 0.58515 0.73809 0.12579 0.0
C1498 C 0.60598 0.7306 0.17254 0.0
C1499 C 0.56774 0.74366 0.11825 0.0
C1500 C 0.66959 0.70899 0.21417 0.0
C1501 C 0.65583 0.70759 0.20001 0.0
C1502 C 0.64065 0.72707 0.15349 0.0
C1503 C 0.59047 0.74389 0.14416 0.0
C1504 C 0.60729 0.73585 0.15353 0.0
C1505 C 0.65688 0.71927 0.18418 0.0
C1506 C 0.63955 0.7228 0.17283 0.0
H1507 H 0.5522 0.77075 0.15531 0.0
H1508 H 0.58281 0.76165 0.16818 0.0
H1509 H 0.626 0.73735 0.12919 0.0
H1510 H 0.69919 0.74112 0.1938 0.0
H1511 H 0.67474 0.73941 0.16945 0.0
C1512 C 0.0033 0.17086 0.60821 0.0
C1513 C 0.00214 0.18813 0.599 0.0
C1514 C 0.00275 0.15407 0.59779 0.0
C1515 C -0.01135 0.13469 0.55111 0.0
H1516 H 0.02211 0.09388 0.56421 0.0
C1517 C 0.0008 0.07298 0.50057 0.0
C1518 C -0.00125 0.05498 0.50817 0.0
C1519 C 0.00213 0.08869 0.51246 0.0
C1520 C 0.01261 0.10513 0.56053 0.0
H1521 H -0.00016 0.20157 0.57181 0.0
H1522 H -0.00048 0.17228 0.55352 0.0
H1523 H 0.0222 0.12266 0.58356 0.0
H1524 H -0.00271 0.03918 0.53418 0.0
H1525 H -0.00044 0.06686 0.55502 0.0
H1526 H 0.97933 0.11732 0.52791 0.0
C1527 C 0.00029 0.17164 0.5688 0.0
C1528 C 0.0126 0.12155 0.5716 0.0
C1529 C 0.00057 0.1884 0.57924 0.0
C1530 C -0.00108 0.0529 0.52793 0.0
C1531 C 0.00022 0.06869 0.53985 0.0
C1532 C -0.01122 0.11838 0.54 0.0
C1533 C 0.00127 0.1543 0.57798 0.0
C1534 C 0.00076 0.13656 0.56685 0.0
C1535 C 0.00139 0.08672 0.53216 0.0
C1536 C 0.00091 0.10358 0.54449 0.0
H1537 H 0.00432 0.17029 0.62348 0.0
H1538 H 0.00322 0.14093 0.60527 0.0
H1539 H 0.97904 0.14582 0.54737 0.0
H1540 H 0.00097 0.07499 0.48541 0.0
H1541 H 0.00342 0.10246 0.50623 0.0
C1542 C 0.57543 0.23395 0.36608 0.0
C1543 C 0.56003 0.23287 0.35338 0.0
C1544 C 0.59384 0.22956 0.35999 0.0
C1545 C 0.62068 0.20802 0.3196 0.0
H1546 H 0.65705 0.24823 0.32984 0.0
C1547 C 0.66584 0.24261 0.26475 0.0
C1548 C 0.6834 0.25087 0.26942 0.0
C1549 C 0.65596 0.23204 0.27803 0.0
C1550 C 0.6474 0.23649 0.32724 0.0
H1551 H 0.55173 0.22565 0.32459 0.0
H1552 H 0.58365 0.21835 0.31392 0.0
H1553 H 0.62832 0.246 0.34881 0.0
H1554 H 0.70525 0.25378 0.29088 0.0
H1555 H 0.68759 0.23572 0.31459 0.0
H1556 H 0.63907 0.19961 0.29687 0.0
C1557 C 0.5816 0.22229 0.32865 0.0
C1558 C 0.63085 0.23524 0.33812 0.0
C1559 C 0.56329 0.22674 0.3347 0.0
C1560 C 0.69171 0.24736 0.28704 0.0
C1561 C 0.68163 0.23709 0.30055 0.0
C1562 C 0.63718 0.20935 0.30865 0.0
C1563 C 0.59715 0.22387 0.34112 0.0
C1564 C 0.61678 0.2217 0.33363 0.0
C1565 C 0.66329 0.23002 0.2964 0.0
C1566 C 0.6501 0.2243 0.31165 0.0
H1567 H 0.57332 0.2385 0.38063 0.0
H1568 H 0.60552 0.23088 0.36994 0.0
H1569 H 0.61032 0.1971 0.31616 0.0
H1570 H 0.65928 0.24517 0.25116 0.0
H1571 H 0.64181 0.22694 0.27443 0.0
C1572 C 0.47236 0.8162 0.09432 0.0
C1573 C 0.47532 0.79923 0.08443 0.0
C1574 C 0.47033 0.83288 0.08456 0.0
C1575 C 0.48582 0.85372 0.04034 0.0
H1576 H 0.45744 0.89611 0.06015 0.0
C1577 C 0.48936 0.93012 0.01156 0.0
C1578 C 0.49133 0.94409 0.02577 0.0
C1579 C 0.48625 0.91139 0.01641 0.0
C1580 C 0.46542 0.88436 0.05447 0.0
H1581 H 0.47687 0.78608 0.05656 0.0
H1582 H 0.47302 0.81535 0.03942 0.0
H1583 H 0.45089 0.86479 0.07209 0.0
H1584 H 0.49308 0.94921 0.05611 0.0
H1585 H 0.48764 0.91659 0.06447 0.0
H1586 H 0.50052 0.87355 0.02289 0.0
C1587 C 0.47271 0.81576 0.05475 0.0
C1588 C 0.46166 0.86646 0.06126 0.0
C1589 C 0.47481 0.79902 0.06455 0.0
C1590 C 0.49124 0.93885 0.04483 0.0
C1591 C 0.48807 0.9202 0.04964 0.0
C1592 C 0.48945 0.87167 0.03339 0.0
C1593 C 0.47109 0.83293 0.06469 0.0
C1594 C 0.47229 0.85105 0.05477 0.0
C1595 C 0.48499 0.90644 0.0355 0.0
C1596 C 0.47972 0.88718 0.04091 0.0
H1597 H 0.4726 0.81682 0.10964 0.0
H1598 H 0.46933 0.84586 0.09269 0.0
H1599 H 0.49439 0.84217 0.03517 0.0
H1600 H 0.48948 0.93373 -0.00327 0.0
H1601 H 0.48402 0.90095 0.00528 0.0
C1602 C 0.93759 0.74184 0.83399 0.0
C1603 C 0.95207 0.75251 0.82548 0.0
C1604 C 0.91901 0.74217 0.82699 0.0
C1605 C 0.89065 0.75298 0.78463 0.0
H1606 H 0.84908 0.75207 0.8207 0.0
C1607 C 0.80962 0.75223 0.76421 0.0
C1608 C 0.79859 0.73927 0.77442 0.0
C1609 C 0.82868 0.75582 0.76924 0.0
C1610 C 0.86054 0.75229 0.81044 0.0
H1611 H 0.95834 0.77199 0.80293 0.0
H1612 H 0.92582 0.77268 0.79085 0.0
H1613 H 0.88168 0.75479 0.83208 0.0
H1614 H 0.7994 0.71902 0.79711 0.0
H1615 H 0.83224 0.72506 0.80552 0.0
H1616 H 0.86928 0.75021 0.763 0.0
C1617 C 0.92892 0.76385 0.80277 0.0
C1618 C 0.87923 0.75378 0.81696 0.0
C1619 C 0.94755 0.76346 0.80973 0.0
C1620 C 0.80726 0.72939 0.78912 0.0
C1621 C 0.82613 0.73291 0.79406 0.0
C1622 C 0.87186 0.75151 0.77808 0.0
C1623 C 0.91442 0.75327 0.81138 0.0
C1624 C 0.89454 0.75362 0.80418 0.0
C1625 C 0.83694 0.74645 0.78451 0.0
C1626 C 0.85667 0.7506 0.79096 0.0
H1627 H 0.94058 0.73321 0.84609 0.0
H1628 H 0.90825 0.73357 0.83375 0.0
H1629 H 0.90214 0.75281 0.77442 0.0
H1630 H 0.80345 0.75986 0.75268 0.0
H1631 H 0.83675 0.76626 0.76155 0.0
C1632 C 0.92259 0.97106 0.79003 0.0
C1633 C 0.90959 0.98441 0.78365 0.0
C1634 C 0.92885 0.97153 0.80881 0.0
C1635 C 0.91624 -0.00859 0.85599 0.0
H1636 H 0.96894 0.98135 0.86824 0.0
C1637 C 0.94731 0.01208 0.92789 0.0
C1638 C 0.95761 -0.00163 0.93746 0.0
C1639 C 0.94272 0.00958 0.90884 0.0
C1640 C 0.95416 0.98403 0.865 0.0
H1641 H 0.89325 0.00892 0.79173 0.0
H1642 H 0.90467 0.01021 0.82418 0.0
H1643 H 0.95808 0.97824 0.83544 0.0
H1644 H 0.97151 0.97156 0.93449 0.0
H1645 H 0.9635 0.9671 0.90096 0.0
H1646 H 0.91241 -0.00239 0.88542 0.0
C1647 C 0.90961 -0.00101 0.81495 0.0
C1648 C 0.9479 0.9822 0.84626 0.0
C1649 C 0.90316 -0.00164 0.79629 0.0
C1650 C 0.96385 0.98242 0.92739 0.0
C1651 C 0.95919 0.97987 0.90825 0.0
C1652 C 0.92252 -0.00661 0.87461 0.0
C1653 C 0.9224 0.9855 0.8215 0.0
C1654 C 0.92892 0.98617 0.8415 0.0
C1655 C 0.9482 -0.00674 0.89894 0.0
C1656 C 0.94159 -0.00998 0.87927 0.0
H1657 H 0.92762 0.96002 0.78062 0.0
H1658 H 0.93849 0.96077 0.81345 0.0
H1659 H 0.90141 -0.00595 0.85295 0.0
H1660 H 0.94251 0.02464 0.93524 0.0
H1661 H 0.93459 0.02032 0.9019 0.0
C1662 C 0.73899 0.15274 0.54509 0.0
C1663 C 0.73275 0.13394 0.54506 0.0
C1664 C 0.74015 0.16301 0.56199 0.0
C1665 C 0.72255 0.16452 0.61091 0.0
H1666 H 0.76592 0.19803 0.61841 0.0
C1667 C 0.7368 0.20728 0.68012 0.0
C1668 C 0.74162 0.22629 0.67747 0.0
C1669 C 0.73574 0.19486 0.66465 0.0
C1670 C 0.75371 0.18877 0.61645 0.0
H1671 H 0.72271 0.11114 0.56265 0.0
H1672 H 0.72504 0.12908 0.59226 0.0
H1673 H 0.76415 0.17825 0.58999 0.0
H1674 H 0.74869 0.24723 0.65649 0.0
H1675 H 0.74672 0.22558 0.62962 0.0
H1676 H 0.71215 0.17517 0.63744 0.0
C1677 C 0.72877 0.13592 0.57917 0.0
C1678 C 0.75266 0.17751 0.6002 0.0
C1679 C 0.72748 0.12566 0.56223 0.0
C1680 C 0.74502 0.23267 0.65905 0.0
C1681 C 0.74403 0.22027 0.64366 0.0
C1682 C 0.72365 0.17575 0.62725 0.0
C1683 C 0.73523 0.15465 0.5792 0.0
C1684 C 0.7369 0.16554 0.59709 0.0
C1685 C 0.73958 0.20125 0.64634 0.0
C1686 C 0.73907 0.18821 0.62994 0.0
H1687 H 0.74298 0.15955 0.53206 0.0
H1688 H 0.7448 0.17756 0.56155 0.0
H1689 H 0.71018 0.1555 0.60881 0.0
H1690 H 0.73421 0.2019 0.69415 0.0
H1691 H 0.73236 0.1802 0.66704 0.0
C1692 C 0.56481 -0.01017 0.29332 0.0
C1693 C 0.56311 0.0055 0.28182 0.0
C1694 C 0.56015 -0.00891 0.31236 0.0
C1695 C 0.53467 0.01708 0.34891 0.0
H1696 H 0.56972 0.9892 0.3798 0.0
C1697 C 0.51239 0.98546 0.4199 0.0
C1698 C 0.52648 0.98149 0.43322 0.0
C1699 C 0.5175 -0.00696 0.40248 0.0
C1700 C 0.55993 -0.00248 0.37173 0.0
H1701 H 0.55464 0.03464 0.28069 0.0
H1702 H 0.54672 0.03701 0.31459 0.0
H1703 H 0.57752 -0.00495 0.34731 0.0
H1704 H 0.55655 0.98367 0.43979 0.0
H1705 H 0.56535 -0.00213 0.41017 0.0
H1706 H 0.51722 0.01986 0.37361 0.0
C1707 C 0.55144 0.02371 0.30871 0.0
C1708 C 0.56433 0.00062 0.35291 0.0
C1709 C 0.55587 0.02234 0.2894 0.0
C1710 C 0.54554 0.98589 0.42933 0.0
C1711 C 0.55055 -0.00589 0.41234 0.0
C1712 C 0.5304 0.01433 0.36801 0.0
C1713 C 0.55413 0.0082 0.3204 0.0
C1714 C 0.55126 0.00939 0.34106 0.0
C1715 C 0.5367 -0.0026 0.39846 0.0
C1716 C 0.54256 0.00367 0.37938 0.0
H1717 H 0.57022 0.97668 0.28767 0.0
H1718 H 0.56173 0.97872 0.32091 0.0
H1719 H 0.52451 0.02418 0.34009 0.0
H1720 H 0.49753 0.98256 0.42291 0.0
H1721 H 0.50644 -0.00489 0.39209 0.0
C1722 C 0.73508 0.82635 0.05696 0.0
C1723 C 0.73219 0.84581 0.05704 0.0
C1724 C 0.73504 0.81658 0.0739 0.0
C1725 C 0.71917 0.81774 0.12334 0.0
H1726 H 0.76123 0.78372 0.13008 0.0
C1727 C 0.7417 0.78001 0.19302 0.0
C1728 C 0.74876 0.76183 0.19007 0.0
C1729 C 0.73556 0.79039 0.17753 0.0
C1730 C 0.74925 0.79298 0.12831 0.0
H1731 H 0.72648 0.87028 0.07481 0.0
H1732 H 0.72636 0.85308 0.10448 0.0
H1733 H 0.75943 0.80201 0.10147 0.0
H1734 H 0.75302 0.73934 0.16961 0.0
H1735 H 0.74169 0.75709 0.14279 0.0
H1736 H 0.70913 0.80857 0.15047 0.0
C1737 C 0.72865 0.84545 0.0913 0.0
C1738 C 0.74825 0.80346 0.11195 0.0
C1739 C 0.72889 0.85528 0.07435 0.0
C1740 C 0.74771 0.75341 0.17207 0.0
C1741 C 0.74136 0.7636 0.15676 0.0
C1742 C 0.72016 0.80714 0.13984 0.0
C1743 C 0.73194 0.82605 0.09122 0.0
C1744 C 0.73308 0.81571 0.10914 0.0
C1745 C 0.73638 0.78253 0.15914 0.0
C1746 C 0.73505 0.79441 0.14225 0.0
H1747 H 0.73758 0.81868 0.04384 0.0
H1748 H 0.73745 0.80157 0.07346 0.0
H1749 H 0.70734 0.82716 0.12147 0.0
H1750 H 0.74252 0.7867 0.20688 0.0
H1751 H 0.7317 0.80496 0.17971 0.0
C1752 C 0.90218 0.01393 0.67381 0.0
C1753 C 0.88382 0.00646 0.6766 0.0
C1754 C 0.90874 0.01755 0.65559 0.0
C1755 C 0.90317 -0.00155 0.60847 0.0
H1756 H 0.93806 0.03868 0.59502 0.0
C1757 C 0.95092 0.98808 0.54488 0.0
C1758 C 0.97004 -0.00759 0.54843 0.0
C1759 C 0.9367 -0.00428 0.55632 0.0
C1760 C 0.92831 0.02737 0.59852 0.0
H1761 H 0.85752 -0.00204 0.66266 0.0
H1762 H 0.86917 0.004 0.63071 0.0
H1763 H 0.91939 0.04125 0.62414 0.0
H1764 H -0.01028 0.00798 0.56637 0.0
H1765 H 0.96509 0.02072 0.58709 0.0
H1766 H 0.91294 0.98381 0.58394 0.0
C1767 C 0.87845 0.00701 0.64265 0.0
C1768 C 0.91759 0.02889 0.61514 0.0
C1769 C 0.87182 0.00351 0.6609 0.0
C1770 C 0.97491 0.00487 0.56321 0.0
C1771 C 0.96075 0.01224 0.57495 0.0
C1772 C 0.914 -0.00318 0.59203 0.0
C1773 C 0.89712 0.01366 0.6398 0.0
C1774 C 0.90542 0.01414 0.62057 0.0
C1775 C 0.9415 0.00714 0.5721 0.0
C1776 C 0.92722 0.01095 0.58718 0.0
H1777 H 0.91168 0.01654 0.68566 0.0
H1778 H 0.92328 0.02245 0.65381 0.0
H1779 H 0.8941 0.98674 0.6124 0.0
H1780 H 0.94712 0.97773 0.53408 0.0
H1781 H 0.92205 -0.00832 0.55351 0.0
C1782 C 0.76322 0.14545 0.418 0.0
C1783 C 0.76357 0.15272 0.4366 0.0
C1784 C 0.76235 0.15754 0.40275 0.0
C1785 C 0.76956 0.2013 0.38169 0.0
H1786 H 0.71855 0.1947 0.36126 0.0
C1787 C 0.74594 0.23649 0.31261 0.0
C1788 C 0.73928 0.22296 0.29944 0.0
C1789 C 0.74756 0.23197 0.33173 0.0
C1790 C 0.73277 0.19683 0.3669 0.0
H1791 H 0.7656 0.17825 0.45376 0.0
H1792 H 0.76436 0.19944 0.4268 0.0
H1793 H 0.72758 0.17832 0.38992 0.0
H1794 H 0.72762 0.1948 0.29591 0.0
H1795 H 0.73023 0.18698 0.3291 0.0
H1796 H 0.77513 0.21892 0.35797 0.0
C1797 C 0.76447 0.18439 0.42422 0.0
C1798 C 0.7379 0.18748 0.38322 0.0
C1799 C 0.76515 0.17227 0.43956 0.0
C1800 C 0.73302 0.20539 0.30578 0.0
C1801 C 0.73436 0.20099 0.32481 0.0
C1802 C 0.76446 0.21061 0.36519 0.0
C1803 C 0.76215 0.17704 0.40586 0.0
C1804 C 0.75647 0.18919 0.39033 0.0
C1805 C 0.74215 0.21402 0.33788 0.0
C1806 C 0.74621 0.20788 0.35732 0.0
H1807 H 0.76212 0.13046 0.41524 0.0
H1808 H 0.76064 0.15169 0.38859 0.0
H1809 H 0.78395 0.20275 0.38708 0.0
H1810 H 0.75079 0.25017 0.308 0.0
H1811 H 0.7535 0.24227 0.34158 0.0
C1812 C 0.6113 -0.00297 0.16642 0.0
C1813 C 0.59969 0.98585 0.17799 0.0
C1814 C 0.60614 0.0003 0.14777 0.0
C1815 C 0.56415 0.00131 0.11744 0.0
H1816 H 0.60117 0.0047 0.07675 0.0
C1817 C 0.55233 0.00275 0.03596 0.0
C1818 C 0.54078 0.01873 0.03523 0.0
C1819 C 0.56443 0.00024 0.05136 0.0
C1820 C 0.59081 0.00385 0.08807 0.0
H1821 H 0.57403 0.96877 0.17909 0.0
H1822 H 0.56524 0.97399 0.14609 0.0
H1823 H 0.6114 -0.00495 0.10832 0.0
H1824 H 0.53496 0.04585 0.04824 0.0
H1825 H 0.556 0.04134 0.07522 0.0
H1826 H 0.5436 0.01009 0.09721 0.0
C1827 C 0.5781 0.98056 0.15163 0.0
C1828 C 0.59658 -0.00164 0.10605 0.0
C1829 C 0.58315 0.97748 0.17043 0.0
C1830 C 0.54356 0.03332 0.0486 0.0
C1831 C 0.55554 0.03075 0.06402 0.0
C1832 C 0.55846 0.00695 0.09958 0.0
C1833 C 0.58941 -0.00774 0.14023 0.0
C1834 C 0.58328 -0.00293 0.12091 0.0
C1835 C 0.56505 0.01371 0.06604 0.0
C1836 C 0.57176 0.00837 0.08485 0.0
H1837 H 0.62399 0.00391 0.17199 0.0
H1838 H 0.61492 0.00969 0.13949 0.0
H1839 H 0.55362 0.00067 0.12863 0.0
H1840 H 0.55034 -0.00879 0.02597 0.0
H1841 H 0.57165 0.98696 0.05276 0.0
C1842 C 0.73125 0.83761 0.94126 0.0
C1843 C 0.73587 0.85682 0.94109 0.0
C1844 C 0.73062 0.82719 0.92435 0.0
C1845 C 0.72466 0.83405 0.87293 0.0
H1846 H 0.73552 0.78081 0.87064 0.0
C1847 C 0.72581 0.78646 0.80494 0.0
C1848 C 0.71806 0.76829 0.80698 0.0
C1849 C 0.72674 0.79885 0.82048 0.0
C1850 C 0.73228 0.79566 0.87116 0.0
H1851 H 0.74497 0.87991 0.92351 0.0
H1852 H 0.74465 0.86157 0.89408 0.0
H1853 H 0.74261 0.79873 0.89946 0.0
H1854 H 0.7032 0.74969 0.82616 0.0
H1855 H 0.70475 0.77136 0.85317 0.0
H1856 H 0.71471 0.83086 0.84434 0.0
C1857 C 0.74071 0.85469 0.90709 0.0
C1858 C 0.73634 0.80592 0.88765 0.0
C1859 C 0.74101 0.86517 0.92394 0.0
C1860 C 0.70957 0.76345 0.82425 0.0
C1861 C 0.71053 0.7758 0.83972 0.0
C1862 C 0.72082 0.82379 0.85631 0.0
C1863 C 0.73494 0.83573 0.90701 0.0
C1864 C 0.73227 0.82518 0.88888 0.0
C1865 C 0.71992 0.79321 0.8382 0.0
C1866 C 0.72426 0.80444 0.85544 0.0
H1867 H 0.7272 0.83086 0.9543 0.0
H1868 H 0.72593 0.81267 0.92484 0.0
H1869 H 0.72111 0.84882 0.87344 0.0
H1870 H 0.73237 0.79065 0.79176 0.0
H1871 H 0.73395 0.81227 0.81894 0.0
C1872 C 0.79919 0.90708 0.01615 0.0
C1873 C 0.79023 0.90916 -0.00137 0.0
C1874 C 0.81901 0.90765 0.01743 0.0
C1875 C 0.86185 0.92238 -0.00995 0.0
H1876 H 0.88739 0.9016 0.03352 0.0
C1877 C 0.9384 0.94116 0.00431 0.0
C1878 C 0.93612 0.95675 0.01656 0.0
C1879 C 0.92431 0.92718 0.00332 0.0
C1880 C 0.88049 0.90702 0.02108 0.0
H1881 H 0.7946 0.91253 0.96858 0.0
H1882 H 0.82916 0.91236 0.97046 0.0
H1883 H 0.85411 0.89324 0.02723 0.0
H1884 H 0.91917 0.9686 0.0393 0.0
H1885 H 0.89494 0.94374 0.03806 0.0
H1886 H 0.88834 0.93601 0.98395 0.0
C1887 C 0.82113 0.91131 0.98347 0.0
C1888 C 0.86133 0.90261 0.01762 0.0
C1889 C 0.80129 0.91142 0.98232 0.0
C1890 C 0.92113 0.95677 0.02968 0.0
C1891 C 0.90737 0.9425 0.02906 0.0
C1892 C 0.88107 0.92623 -0.00685 0.0
C1893 C 0.83032 0.9096 0.00109 0.0
C1894 C 0.85148 0.91106 0.00263 0.0
C1895 C 0.90821 0.92838 0.015 0.0
C1896 C 0.89027 0.91927 0.00912 0.0
H1897 H 0.79083 0.90515 0.02887 0.0
H1898 H 0.82534 0.90683 0.03135 0.0
H1899 H 0.85499 0.92943 0.97851 0.0
H1900 H 0.94984 0.94085 -0.00597 0.0
H1901 H 0.92506 0.91647 -0.00773 0.0
C1902 C 0.28714 0.55383 0.0094 0.0
C1903 C 0.28469 0.56941 -0.00232 0.0
C1904 C 0.30518 0.54615 0.01183 0.0
C1905 C 0.35605 0.55787 0.00652 0.0
H1906 H 0.36315 0.5043 -0.00131 0.0
C1907 C 0.42495 0.53015 0.97805 0.0
C1908 C 0.43406 0.51573 0.98776 0.0
C1909 C 0.40623 0.53467 0.98216 0.0
C1910 C 0.36131 0.51921 0.00127 0.0
H1911 H 0.29914 0.58901 0.9792 0.0
H1912 H 0.33039 0.57544 0.98315 0.0
H1913 H 0.33086 0.51683 0.00138 0.0
H1914 H 0.43004 0.49352 0.00795 0.0
H1915 H 0.397 0.50172 0.01552 0.0
H1916 H 0.38634 0.56042 0.00557 0.0
C1917 C 0.31849 0.56939 -0.00923 0.0
C1918 C 0.34291 0.52638 0.00282 0.0
C1919 C 0.30055 0.57706 0.98837 0.0
C1920 C 0.42353 0.50498 0.00067 0.0
C1921 C 0.40465 0.5096 0.0049 0.0
C1922 C 0.37433 0.55075 0.00494 0.0
C1923 C 0.32101 0.55395 0.0026 0.0
C1924 C 0.34016 0.54586 0.00464 0.0
C1925 C 0.39615 0.52492 -0.0039 0.0
C1926 C 0.37707 0.53149 0.0015 0.0
H1927 H 0.2752 0.54775 0.01692 0.0
H1928 H 0.30678 0.5343 0.02108 0.0
H1929 H 0.35433 0.57289 0.00842 0.0
H1930 H 0.43245 0.53842 0.96763 0.0
H1931 H 0.39974 0.54615 0.97473 0.0
C1932 C 0.12324 0.5667 0.71372 0.0
C1933 C 0.12835 0.55306 0.72683 0.0
C1934 C 0.13134 0.58461 0.71475 0.0
C1935 C 0.17208 0.61148 0.73297 0.0
H1936 H 0.13886 0.654 0.72546 0.0
C1937 C 0.18593 0.69408 0.73892 0.0
C1938 C 0.19883 0.69604 0.72383 0.0
C1939 C 0.17475 0.67779 0.74027 0.0
C1940 C 0.14816 0.64222 0.72777 0.0
H1941 H 0.14636 0.54715 0.7509 0.0
H1942 H 0.16045 0.57866 0.75279 0.0
H1943 H 0.12528 0.62214 0.72645 0.0
H1944 H 0.20877 0.68371 0.69741 0.0
H1945 H 0.18919 0.65531 0.69983 0.0
H1946 H 0.19497 0.63159 0.73378 0.0
C1947 C 0.15025 0.57542 0.74169 0.0
C1948 C 0.1405 0.62407 0.72817 0.0
C1949 C 0.14222 0.55742 0.74058 0.0
C1950 C 0.1991 0.6824 0.70927 0.0
C1951 C 0.188 0.6662 0.71066 0.0
C1952 C 0.17971 0.62959 0.73241 0.0
C1953 C 0.14459 0.58926 0.72898 0.0
C1954 C 0.15246 0.60852 0.73036 0.0
C1955 C 0.1764 0.66351 0.72651 0.0
C1956 C 0.16783 0.64496 0.72942 0.0
H1957 H 0.11281 0.56361 0.70279 0.0
H1958 H 0.12716 0.59487 0.70443 0.0
H1959 H 0.1816 0.59976 0.73464 0.0
H1960 H 0.1855 0.70438 0.75038 0.0
H1961 H 0.16581 0.67583 0.75259 0.0
C1962 C 0.15701 0.37936 0.50826 0.0
C1963 C 0.17211 0.39226 0.51098 0.0
C1964 C 0.13818 0.38507 0.51029 0.0
C1965 C 0.10769 0.42454 0.5268 0.0
H1966 H 0.07795 0.41121 0.48227 0.0
C1967 C 0.05847 0.47461 0.49008 0.0
C1968 C 0.04299 0.46771 0.47957 0.0
C1969 C 0.06964 0.46234 0.50033 0.0
C1970 C 0.08571 0.4147 0.49512 0.0
H1971 H 0.17936 0.42101 0.51889 0.0
H1972 H 0.14646 0.43113 0.52199 0.0
H1973 H 0.10726 0.3948 0.48842 0.0
H1974 H 0.0259 0.44319 0.47226 0.0
H1975 H 0.04563 0.42144 0.49012 0.0
H1976 H 0.08657 0.4453 0.53276 0.0
C1977 C 0.14916 0.41651 0.51858 0.0
C1978 C 0.1026 0.40529 0.49864 0.0
C1979 C 0.16802 0.41078 0.51659 0.0
C1980 C 0.03798 0.44863 0.48024 0.0
C1981 C 0.04921 0.43628 0.49045 0.0
C1982 C 0.09075 0.43397 0.52328 0.0
C1983 C 0.13403 0.40381 0.51503 0.0
C1984 C 0.11423 0.41073 0.51401 0.0
C1985 C 0.06556 0.44294 0.50005 0.0
C1986 C 0.08011 0.42976 0.50687 0.0
H1987 H 0.15971 0.3649 0.50416 0.0
H1988 H 0.12684 0.37491 0.50767 0.0
H1989 H 0.11615 0.42872 0.53901 0.0
H1990 H 0.06237 0.48937 0.48974 0.0
H1991 H 0.08221 0.46792 0.5074 0.0
C1992 C 0.85686 0.91385 0.73092 0.0
C1993 C 0.84818 0.93081 0.73637 0.0
C1994 C 0.84886 0.89663 0.73588 0.0
C1995 C 0.81413 0.87447 0.76848 0.0
H1996 H 0.8133 0.83512 0.72992 0.0
C1997 C 0.75751 0.81715 0.7598 0.0
C1998 C 0.76226 0.80059 0.75 0.0
C1999 C 0.77168 0.83017 0.76486 0.0
C2000 C 0.81386 0.8457 0.7411 0.0
H2001 H 0.82404 0.94288 0.75114 0.0
H2002 H 0.80969 0.91265 0.75933 0.0
H2003 H 0.82972 0.86443 0.72375 0.0
H2004 H 0.78524 0.78363 0.73926 0.0
H2005 H 0.81025 0.80618 0.74843 0.0
H2006 H 0.79723 0.85587 0.78539 0.0
C2007 C 0.82299 0.91277 0.75159 0.0
C2008 C 0.82321 0.86262 0.7375 0.0
C2009 C 0.83108 0.93009 0.74668 0.0
C2010 C 0.78142 0.79613 0.74726 0.0
C2011 C 0.79564 0.80918 0.75225 0.0
C2012 C 0.80464 0.8575 0.77206 0.0
C2013 C 0.83186 0.89584 0.7463 0.0
C2014 C 0.82312 0.87737 0.75096 0.0
C2015 C 0.79074 0.82688 0.75983 0.0
C2016 C 0.80405 0.8431 0.75821 0.0
H2017 H 0.87009 0.91382 0.72304 0.0
H2018 H 0.85619 0.8839 0.73173 0.0
H2019 H 0.81414 0.88543 0.7793 0.0
H2020 H 0.74272 0.82086 0.76184 0.0
H2021 H 0.76741 0.84365 0.77066 0.0
C2022 C 0.67083 0.11599 0.48432 0.0
C2023 C 0.68422 0.10267 0.47808 0.0
C2024 C 0.65319 0.11012 0.49144 0.0
C2025 C 0.63193 0.07015 0.51489 0.0
H2026 H 0.58371 0.082 0.49146 0.0
C2027 C 0.57612 0.01595 0.50255 0.0
C2028 C 0.55667 0.01926 0.50555 0.0
C2029 C 0.58938 0.03037 0.5046 0.0
C2030 C 0.59694 0.07905 0.49863 0.0
H2031 H 0.68921 0.07296 0.47323 0.0
H2032 H 0.65849 0.06281 0.48554 0.0
H2033 H 0.61236 0.10028 0.48353 0.0
H2034 H 0.53584 0.04043 0.51292 0.0
H2035 H 0.55954 0.06609 0.51658 0.0
H2036 H 0.61698 0.04819 0.52901 0.0
C2037 C 0.66179 0.07771 0.48528 0.0
C2038 C 0.61331 0.08939 0.494 0.0
C2039 C 0.67927 0.08353 0.47809 0.0
C2040 C 0.55077 0.03748 0.51067 0.0
C2041 C 0.56424 0.05209 0.51276 0.0
C2042 C 0.61565 0.05998 0.51961 0.0
C2043 C 0.64885 0.09091 0.49249 0.0
C2044 C 0.63106 0.08415 0.5012 0.0
C2045 C 0.58366 0.04853 0.50981 0.0
C2046 C 0.59832 0.06351 0.51052 0.0
H2047 H 0.67427 0.13086 0.48449 0.0
H2048 H 0.6433 0.1205 0.49679 0.0
H2049 H 0.64547 0.06613 0.52086 0.0
H2050 H 0.58118 0.00226 0.49808 0.0
H2051 H 0.60417 0.02739 0.50156 0.0
C2052 C 0.14668 0.4298 0.76088 0.0
C2053 C 0.15296 0.44562 0.75101 0.0
C2054 C 0.15768 0.41368 0.76112 0.0
C2055 C 0.20544 0.39486 0.75381 0.0
H2056 H 0.17679 0.34829 0.74721 0.0
C2057 C 0.22679 0.31353 0.74868 0.0
C2058 C 0.21909 0.30468 0.76468 0.0
C2059 C 0.22338 0.33255 0.74562 0.0
C2060 C 0.18495 0.36123 0.74882 0.0
H2061 H 0.17598 0.45733 0.73426 0.0
H2062 H 0.19522 0.42892 0.7346 0.0
H2063 H 0.16065 0.37819 0.74403 0.0
H2064 H 0.20376 0.30918 0.79102 0.0
H2065 H 0.19781 0.34229 0.78555 0.0
H2066 H 0.22968 0.37749 0.75907 0.0
C2067 C 0.18185 0.42911 0.74224 0.0
C2068 C 0.17574 0.37828 0.74719 0.0
C2069 C 0.17086 0.44534 0.74209 0.0
C2070 C 0.2096 0.31553 0.77843 0.0
C2071 C 0.2063 0.33446 0.7754 0.0
C2072 C 0.21471 0.37767 0.75542 0.0
C2073 C 0.1751 0.413 0.75136 0.0
C2074 C 0.18571 0.39524 0.7504 0.0
C2075 C 0.21247 0.34282 0.75865 0.0
C2076 C 0.20429 0.36085 0.75353 0.0
H2077 H 0.13301 0.42969 0.76799 0.0
H2078 H 0.15237 0.40159 0.76869 0.0
H2079 H 0.21344 0.40777 0.75622 0.0
H2080 H 0.23425 0.30553 0.73788 0.0
H2081 H 0.22809 0.33885 0.73256 0.0
C2082 C 0.34946 0.56253 0.25142 0.0
C2083 C 0.33851 0.54747 0.24401 0.0
C2084 C 0.34301 0.58095 0.25023 0.0
C2085 C 0.31081 0.61009 0.22235 0.0
H2086 H 0.31355 0.64439 0.26544 0.0
C2087 C 0.26054 0.67105 0.23471 0.0
C2088 C 0.26615 0.68595 0.2467 0.0
C2089 C 0.27354 0.65721 0.22958 0.0
C2090 C 0.31315 0.63523 0.25305 0.0
H2091 H 0.31185 0.53983 0.2303 0.0
H2092 H 0.30047 0.57205 0.22844 0.0
H2093 H 0.32697 0.61322 0.26781 0.0
H2094 H 0.28977 0.69934 0.26138 0.0
H2095 H 0.31281 0.67536 0.25203 0.0
H2096 H 0.2965 0.63196 0.20776 0.0
C2097 C 0.3142 0.56959 0.23485 0.0
C2098 C 0.32071 0.61727 0.2545 0.0
C2099 C 0.3206 0.55113 0.23614 0.0
C2100 C 0.2853 0.688 0.25191 0.0
C2101 C 0.29836 0.67416 0.24675 0.0
C2102 C 0.30332 0.62811 0.22086 0.0
C2103 C 0.32553 0.58471 0.24153 0.0
C2104 C 0.3191 0.60433 0.23937 0.0
C2105 C 0.29229 0.65801 0.23657 0.0
C2106 C 0.30387 0.64069 0.2364 0.0
H2107 H 0.36332 0.56016 0.25757 0.0
H2108 H 0.35202 0.59231 0.25554 0.0
H2109 H 0.3098 0.60054 0.21029 0.0
H2110 H 0.24572 0.66918 0.23078 0.0
H2111 H 0.2683 0.64499 0.22179 0.0
C2112 C 0.50148 0.68451 0.57292 0.0
C2113 C 0.49853 0.68631 0.59253 0.0
C2114 C 0.50331 0.66665 0.56446 0.0
C2115 C 0.48919 0.61773 0.57183 0.0
H2116 H 0.52831 0.60517 0.53513 0.0
C2117 C 0.48841 0.5451 0.53989 0.0
C2118 C 0.48673 0.54565 0.52018 0.0
C2119 C 0.49614 0.56048 0.54984 0.0
C2120 C 0.51738 0.6085 0.54544 0.0
H2121 H 0.49491 0.6709 0.61857 0.0
H2122 H 0.49782 0.64006 0.60386 0.0
H2123 H 0.5277 0.6368 0.54957 0.0
H2124 H 0.49338 0.56133 0.49507 0.0
H2125 H 0.5069 0.58832 0.51237 0.0
H2126 H 0.47842 0.5899 0.56748 0.0
C2127 C 0.49886 0.65231 0.59501 0.0
C2128 C 0.51695 0.62658 0.55356 0.0
C2129 C 0.49726 0.67002 0.60343 0.0
C2130 C 0.49472 0.5607 0.51032 0.0
C2131 C 0.50246 0.57611 0.52025 0.0
C2132 C 0.48962 0.59977 0.56377 0.0
C2133 C 0.5019 0.6504 0.57546 0.0
C2134 C 0.50275 0.63136 0.56675 0.0
C2135 C 0.50199 0.57666 0.54014 0.0
C2136 C 0.50361 0.59495 0.55039 0.0
H2137 H 0.50264 0.69684 0.56421 0.0
H2138 H 0.50549 0.66552 0.54931 0.0
H2139 H 0.47789 0.62109 0.58172 0.0
H2140 H 0.48219 0.53358 0.5477 0.0
H2141 H 0.49597 0.56037 0.56517 0.0
C2142 C 0.56645 0.23758 0.84747 0.0
C2143 C 0.551 0.22553 0.84333 0.0
C2144 C 0.58138 0.23933 0.83455 0.0
C2145 C 0.60525 0.21669 0.7948 0.0
H2146 H 0.61554 0.26725 0.77747 0.0
C2147 C 0.66228 0.22552 0.74086 0.0
C2148 C 0.67602 0.23879 0.74667 0.0
C2149 C 0.64374 0.22672 0.74773 0.0
C2150 C 0.61286 0.25307 0.78216 0.0
H2151 H 0.53958 0.2048 0.82348 0.0
H2152 H 0.56602 0.20737 0.80122 0.0
H2153 H 0.592 0.2621 0.80242 0.0
H2154 H 0.68094 0.2651 0.76174 0.0
H2155 H 0.64892 0.26681 0.77454 0.0
H2156 H 0.6265 0.20753 0.77546 0.0
C2157 C 0.56642 0.21571 0.81419 0.0
C2158 C 0.5995 0.25016 0.79649 0.0
C2159 C 0.55136 0.21422 0.8269 0.0
C2160 C 0.67045 0.25472 0.75709 0.0
C2161 C 0.65205 0.25564 0.76447 0.0
C2162 C 0.61874 0.21959 0.78071 0.0
C2163 C 0.58118 0.22876 0.8176 0.0
C2164 C 0.59569 0.23195 0.80295 0.0
C2165 C 0.63902 0.24078 0.76111 0.0
C2166 C 0.62279 0.23782 0.77422 0.0
H2167 H 0.56643 0.2465 0.86005 0.0
H2168 H 0.59281 0.2493 0.83753 0.0
H2169 H 0.60257 0.20254 0.79965 0.0
H2170 H 0.66635 0.21318 0.73269 0.0
H2171 H 0.63374 0.21551 0.74419 0.0
C2172 C 0.96672 0.31496 0.09064 0.0
C2173 C 0.97256 0.30038 0.07834 0.0
C2174 C 0.96404 0.33305 0.08399 0.0
C2175 C 0.95761 0.36224 0.04225 0.0
H2176 H -0.00902 0.39739 0.06896 0.0
C2177 C -0.0076 0.42588 0.00802 0.0
C2178 C -0.0004 0.44052 0.01947 0.0
C2179 C 0.98173 0.41137 0.01597 0.0
C2180 C 0.98107 0.38808 0.06161 0.0
H2181 H 0.9789 0.29311 0.04912 0.0
H2182 H 0.97402 0.32497 0.03738 0.0
H2183 H 0.98638 0.36604 0.081 0.0
H2184 H -2e-05 0.45286 0.04762 0.0
H2185 H 0.98079 0.42776 0.06164 0.0
H2186 H 0.95254 0.38427 0.02264 0.0
C2187 C 0.9716 0.32223 0.05223 0.0
C2188 C 0.97858 0.36998 0.06847 0.0
C2189 C 0.97451 0.30406 0.05895 0.0
C2190 C -0.00549 0.44158 0.0386 0.0
C2191 C 0.9837 0.42712 0.04659 0.0
C2192 C 0.95987 0.38052 0.03549 0.0
C2193 C 0.96691 0.33698 0.06483 0.0
C2194 C 0.96729 0.35673 0.05858 0.0
C2195 C 0.97819 0.41127 0.03558 0.0
C2196 C 0.97217 0.39347 0.04474 0.0
H2197 H 0.96493 0.31262 0.10565 0.0
H2198 H 0.96031 0.34414 0.09396 0.0
H2199 H 0.94863 0.35231 0.03452 0.0
H2200 H -0.00374 0.4249 -0.00681 0.0
H2201 H 0.97781 0.39948 0.00699 0.0
C2202 C 0.9369 0.76217 0.31233 0.0
C2203 C 0.94206 0.74806 0.32488 0.0
C2204 C 0.91777 0.76593 0.30912 0.0
C2205 C 0.8697 0.7584 0.32977 0.0
H2206 H 0.85352 0.77222 0.27954 0.0
C2207 C 0.79539 0.75017 0.29634 0.0
C2208 C 0.79114 0.76267 0.28186 0.0
C2209 C 0.81184 0.75297 0.30719 0.0
C2210 C 0.85785 0.76884 0.29379 0.0
H2211 H 0.93145 0.72608 0.3431 0.0
H2212 H 0.89797 0.73201 0.33676 0.0
H2213 H 0.88672 0.76586 0.28521 0.0
H2214 H 0.79861 0.78909 0.269 0.0
H2215 H 0.82698 0.79436 0.28838 0.0
H2216 H 0.84028 0.7603 0.33784 0.0
C2217 C 0.90865 0.74071 0.33001 0.0
C2218 C 0.87693 0.76511 0.29702 0.0
C2219 C 0.92781 0.73716 0.33347 0.0
C2220 C 0.80173 0.77933 0.28016 0.0
C2221 C 0.81797 0.78227 0.29116 0.0
C2222 C 0.85044 0.76189 0.32643 0.0
C2223 C 0.90342 0.7554 0.31812 0.0
C2224 C 0.8831 0.75974 0.315 0.0
C2225 C 0.824 0.7683 0.30354 0.0
C2226 C 0.84439 0.7671 0.30837 0.0
H2227 H 0.94761 0.77091 0.30567 0.0
H2228 H 0.91427 0.77748 0.30003 0.0
H2229 H 0.87405 0.75456 0.34387 0.0
H2230 H 0.78743 0.73713 0.29766 0.0
H2231 H 0.81616 0.742 0.31667 0.0
C2232 C 0.49972 0.30466 0.89596 0.0
C2233 C 0.50091 0.30287 0.87618 0.0
C2234 C 0.49583 0.32193 0.90446 0.0
C2235 C 0.49784 0.37241 0.89915 0.0
H2236 H 0.46101 0.37083 0.94006 0.0
C2237 C 0.48486 0.43598 0.94953 0.0
C2238 C 0.48647 0.43119 0.96871 0.0
C2239 C 0.48296 0.42193 0.93555 0.0
C2240 C 0.47123 0.37153 0.9286 0.0
H2241 H 0.49988 0.31797 0.84979 0.0
H2242 H 0.49312 0.34852 0.86488 0.0
H2243 H 0.46568 0.34308 0.92003 0.0
H2244 H 0.48663 0.40799 0.98826 0.0
H2245 H 0.4834 0.38368 0.96401 0.0
H2246 H 0.504 0.40067 0.90834 0.0
C2247 C 0.49511 0.33638 0.87367 0.0
C2248 C 0.47391 0.35567 0.91717 0.0
C2249 C 0.49902 0.31896 0.86508 0.0
C2250 C 0.48543 0.41218 0.97365 0.0
C2251 C 0.48342 0.39823 0.95974 0.0
C2252 C 0.49517 0.38835 0.91065 0.0
C2253 C 0.49301 0.33784 0.89341 0.0
C2254 C 0.4878 0.35572 0.90287 0.0
C2255 C 0.48245 0.40292 0.94054 0.0
C2256 C 0.48239 0.38776 0.92597 0.0
H2257 H 0.50143 0.29261 0.90494 0.0
H2258 H 0.49486 0.3228 0.91975 0.0
H2259 H 0.50861 0.37278 0.88818 0.0
H2260 H 0.48567 0.45051 0.94526 0.0
H2261 H 0.48218 0.42591 0.92084 0.0
C2262 C 0.92409 0.25065 0.13844 0.0
C2263 C 0.93648 0.23757 0.14645 0.0
C2264 C 0.9065 0.25445 0.14693 0.0
C2265 C 0.88327 0.25157 0.19343 0.0
H2266 H 0.83539 0.25121 0.16612 0.0
C2267 C 0.814 0.22627 0.22482 0.0
C2268 C 0.79706 0.23596 0.22169 0.0
C2269 C 0.83086 0.23206 0.21632 0.0
C2270 C 0.8487 0.25185 0.17386 0.0
H2271 H 0.93964 0.21737 0.16885 0.0
H2272 H 0.90901 0.22374 0.18337 0.0
H2273 H 0.86544 0.24968 0.14853 0.0
H2274 H 0.78444 0.25964 0.20763 0.0
H2275 H 0.81422 0.26956 0.19215 0.0
H2276 H 0.8666 0.25263 0.21874 0.0
C2277 C 0.91307 0.23147 0.17089 0.0
C2278 C 0.86586 0.25089 0.16382 0.0
C2279 C 0.93056 0.2277 0.16247 0.0
C2280 C 0.79738 0.25198 0.2103 0.0
C2281 C 0.81431 0.2576 0.20143 0.0
C2282 C 0.86621 0.25247 0.20341 0.0
C2283 C 0.9011 0.24524 0.16355 0.0
C2284 C 0.88322 0.24986 0.1736 0.0
C2285 C 0.83113 0.24753 0.20427 0.0
C2286 C 0.84877 0.25177 0.19374 0.0
H2287 H 0.92828 0.25851 0.12609 0.0
H2288 H 0.89746 0.26504 0.14092 0.0
H2289 H 0.8965 0.25132 0.20129 0.0
H2290 H 0.81418 0.21393 0.23359 0.0
H2291 H 0.84358 0.22391 0.21854 0.0
C2292 C 0.9761 0.69747 0.42784 0.0
C2293 C 0.97385 0.69374 0.40838 0.0
C2294 C 0.97555 0.6828 0.44067 0.0
C2295 C 0.96465 0.63251 0.44656 0.0
H2296 H 0.01423 0.63081 0.47077 0.0
C2297 C 0.0156 0.57038 0.45903 0.0
C2298 C 0.00481 0.55863 0.47079 0.0
C2299 C 0.01135 0.58941 0.45795 0.0
C2300 C 0.00019 0.63132 0.46445 0.0
H2301 H 0.96731 0.67215 0.38724 0.0
H2302 H 0.96644 0.64657 0.40963 0.0
H2303 H 0.00379 0.6599 0.4562 0.0
H2304 H 0.9823 0.55788 0.4919 0.0
H2305 H 0.9745 0.59103 0.48935 0.0
H2306 H 0.96152 0.60363 0.45399 0.0
C2307 C 0.96861 0.66078 0.41498 0.0
C2308 C -0.00583 0.6479 0.45622 0.0
C2309 C 0.96923 0.67542 0.40216 0.0
C2310 C -0.00928 0.56653 0.48252 0.0
C2311 C 0.98627 0.58547 0.48118 0.0
C2312 C 0.97053 0.61606 0.45508 0.0
C2313 C 0.9726 0.66427 0.4342 0.0
C2314 C 0.97667 0.64838 0.44659 0.0
C2315 C -0.00386 0.59683 0.46844 0.0
C2316 C -0.0114 0.61522 0.46347 0.0
H2317 H 0.97941 0.71153 0.43305 0.0
H2318 H 0.97846 0.68579 0.45548 0.0
H2319 H 0.95115 0.63257 0.43914 0.0
H2320 H 0.02671 0.56473 0.45003 0.0
H2321 H 0.01903 0.59802 0.44793 0.0
C2322 C 0.54494 0.768 0.65319 0.0
C2323 C 0.54424 0.75746 0.63625 0.0
C2324 C 0.56041 0.76657 0.66535 0.0
C2325 C 0.59612 0.7345 0.6811 0.0
H2326 H 0.62253 0.77931 0.69935 0.0
C2327 C 0.66811 0.73469 0.72041 0.0
C2328 C 0.67291 0.75073 0.73125 0.0
C2329 C 0.65014 0.73313 0.71201 0.0
C2330 C 0.61503 0.76664 0.69485 0.0
H2331 H 0.55917 0.73739 0.61844 0.0
H2332 H 0.58638 0.73465 0.64007 0.0
H2333 H 0.59699 0.78211 0.67654 0.0
H2334 H 0.66231 0.7763 0.74417 0.0
H2335 H 0.63047 0.77294 0.73074 0.0
H2336 H 0.61399 0.71901 0.69965 0.0
C2337 C 0.5749 0.74406 0.64378 0.0
C2338 C 0.60057 0.76828 0.68155 0.0
C2339 C 0.55952 0.74578 0.63137 0.0
C2340 C 0.65885 0.76387 0.73573 0.0
C2341 C 0.64076 0.76206 0.72778 0.0
C2342 C 0.61048 0.73284 0.69467 0.0
C2343 C 0.57532 0.75431 0.66094 0.0
C2344 C 0.59107 0.75225 0.6745 0.0
C2345 C 0.6367 0.74747 0.71466 0.0
C2346 C 0.62016 0.74893 0.70167 0.0
H2347 H 0.53328 0.77706 0.65724 0.0
H2348 H 0.56044 0.77459 0.67851 0.0
H2349 H 0.58875 0.72196 0.67598 0.0
H2350 H 0.67886 0.72447 0.7167 0.0
H2351 H 0.64754 0.72165 0.70207 0.0
C2352 C 0.57166 0.47093 0.6924 0.0
C2353 C 0.59116 0.47545 0.69135 0.0
C2354 C 0.55984 0.47339 0.67677 0.0
C2355 C 0.55657 0.50165 0.63435 0.0
H2356 H 0.52507 0.46148 0.61309 0.0
C2357 C 0.54189 0.49253 0.55628 0.0
C2358 C 0.52374 0.48713 0.54986 0.0
C2359 C 0.54557 0.49423 0.57556 0.0
C2360 C 0.53337 0.473 0.61917 0.0
H2361 H 0.61375 0.48549 0.67307 0.0
H2362 H 0.59308 0.48992 0.64582 0.0
H2363 H 0.54102 0.45714 0.6435 0.0
H2364 H 0.49498 0.47979 0.55828 0.0
H2365 H 0.50174 0.48194 0.59245 0.0
H2366 H 0.54975 0.51715 0.60963 0.0
C2367 C 0.58694 0.48459 0.65876 0.0
C2368 C 0.54255 0.47048 0.63646 0.0
C2369 C 0.59879 0.48186 0.67426 0.0
C2370 C 0.50911 0.48392 0.56301 0.0
C2371 C 0.51294 0.48516 0.58244 0.0
C2372 C 0.54739 0.50418 0.61714 0.0
C2373 C 0.56732 0.48072 0.66001 0.0
C2374 C 0.55489 0.48448 0.64372 0.0
C2375 C 0.53127 0.4902 0.58881 0.0
C2376 C 0.53644 0.48955 0.609 0.0
H2377 H 0.56547 0.46589 0.70544 0.0
H2378 H 0.54478 0.47018 0.67798 0.0
H2379 H 0.56567 0.51281 0.63994 0.0
H2380 H 0.5533 0.49531 0.54636 0.0
H2381 H 0.55988 0.49793 0.58011 0.0
C2382 C 0.74283 0.36584 0.91863 0.0
C2383 C 0.74018 0.3564 0.93573 0.0
C2384 C 0.74579 0.35567 0.9018 0.0
C2385 C 0.75948 0.30806 0.88462 0.0
H2386 H 0.73539 0.32292 0.83792 0.0
C2387 C 0.742 0.257 0.82347 0.0
C2388 C 0.74552 0.26281 0.80487 0.0
C2389 C 0.74466 0.26946 0.83869 0.0
C2390 C 0.74245 0.31878 0.8508 0.0
H2391 H 0.73764 0.32908 0.94863 0.0
H2392 H 0.74192 0.31138 0.91931 0.0
H2393 H 0.73292 0.34313 0.86604 0.0
H2394 H 0.75554 0.28601 0.7878 0.0
H2395 H 0.75959 0.30796 0.81449 0.0
H2396 H 0.76818 0.28327 0.86956 0.0
C2397 C 0.74255 0.32657 0.91887 0.0
C2398 C 0.74107 0.33035 0.8669 0.0
C2399 C 0.73991 0.3367 0.93566 0.0
C2400 C 0.75233 0.2812 0.8019 0.0
C2401 C 0.75472 0.29375 0.81714 0.0
C2402 C 0.76066 0.29643 0.86862 0.0
C2403 C 0.74587 0.3359 0.90179 0.0
C2404 C 0.74913 0.32485 0.88412 0.0
C2405 C 0.75074 0.28801 0.83563 0.0
C2406 C 0.75178 0.30148 0.85171 0.0
H2407 H 0.74324 0.38105 0.91836 0.0
H2408 H 0.74841 0.36329 0.8889 0.0
H2409 H 0.76635 0.30368 0.89751 0.0
H2410 H 0.73684 0.24293 0.8263 0.0
H2411 H 0.74133 0.26475 0.85283 0.0
C2412 C 0.91812 0.52334 0.19122 0.0
C2413 C 0.89951 0.51587 0.19066 0.0
C2414 C 0.92974 0.52224 0.17524 0.0
C2415 C 0.93645 0.49184 0.13448 0.0
H2416 H 0.96034 0.53393 0.10922 0.0
C2417 C 0.94668 0.49549 0.05567 0.0
C2418 C 0.96429 0.50128 0.04841 0.0
C2419 C 0.94361 0.49576 0.07508 0.0
C2420 C 0.9542 0.522 0.11645 0.0
H2421 H 0.878 0.5025 0.17281 0.0
H2422 H 0.89838 0.50041 0.14499 0.0
H2423 H 0.94469 0.53898 0.1399 0.0
H2424 H -0.00738 0.51168 0.05537 0.0
H2425 H 0.98683 0.51298 0.08968 0.0
H2426 H 0.94492 0.47508 0.11062 0.0
C2427 C 0.90399 0.50695 0.15781 0.0
C2428 C 0.94522 0.52491 0.13386 0.0
C2429 C 0.89231 0.5083 0.17364 0.0
C2430 C 0.97892 0.50716 0.06079 0.0
C2431 C 0.97566 0.50788 0.08027 0.0
C2432 C 0.94539 0.48896 0.11716 0.0
C2433 C 0.92293 0.51339 0.15869 0.0
C2434 C 0.93554 0.50998 0.14248 0.0
C2435 C 0.95797 0.50218 0.08747 0.0
C2436 C 0.95353 0.50418 0.10766 0.0
H2437 H 0.92389 0.52941 0.20419 0.0
H2438 H 0.94427 0.52747 0.17606 0.0
H2439 H 0.92938 0.48009 0.14118 0.0
H2440 H 0.93532 0.49074 0.04632 0.0
H2441 H 0.92978 0.4915 0.08041 0.0
C2442 C 0.77201 0.63945 0.4195 0.0
C2443 C 0.76284 0.64874 0.43465 0.0
C2444 C 0.77311 0.64773 0.40171 0.0
C2445 C 0.74319 0.67181 0.37237 0.0
H2446 H 0.78442 0.69262 0.34242 0.0
C2447 C 0.74572 0.72617 0.30967 0.0
C2448 C 0.73049 0.7185 0.29917 0.0
C2449 C 0.75496 0.7152 0.32307 0.0
C2450 C 0.77286 0.68669 0.3506 0.0
H2451 H 0.74874 0.67439 0.44338 0.0
H2452 H 0.75017 0.68855 0.4121 0.0
H2453 H 0.79118 0.67928 0.37371 0.0
H2454 H 0.71419 0.69329 0.29261 0.0
H2455 H 0.73057 0.674 0.31558 0.0
H2456 H 0.72474 0.67927 0.34989 0.0
C2457 C 0.75673 0.67503 0.41416 0.0
C2458 C 0.77672 0.67911 0.3684 0.0
C2459 C 0.75588 0.66691 0.432 0.0
C2460 C 0.72582 0.69944 0.30077 0.0
C2461 C 0.73517 0.68845 0.3139 0.0
C2462 C 0.73939 0.67906 0.35464 0.0
C2463 C 0.76489 0.66528 0.39882 0.0
C2464 C 0.76178 0.67202 0.37949 0.0
C2465 C 0.74899 0.69653 0.326 0.0
C2466 C 0.75408 0.68684 0.34366 0.0
H2467 H 0.77763 0.62547 0.42119 0.0
H2468 H 0.77929 0.63994 0.38997 0.0
H2469 H 0.73151 0.66632 0.38072 0.0
H2470 H 0.74944 0.74092 0.30857 0.0
H2471 H 0.76555 0.72179 0.33221 0.0
C2472 C 0.56657 0.50094 0.80261 0.0
C2473 C 0.58457 0.49477 0.79671 0.0
C2474 C 0.55915 0.49541 0.81995 0.0
C2475 C 0.57072 0.4805 0.86702 0.0
H2476 H 0.5176 0.46496 0.86683 0.0
C2477 C 0.52628 0.48322 0.935 0.0
C2478 C 0.51196 0.49644 0.93205 0.0
C2479 C 0.53534 0.47472 0.91942 0.0
C2480 C 0.53255 0.46888 0.86712 0.0
H2481 H 0.60932 0.47875 0.80488 0.0
H2482 H 0.59634 0.46946 0.83551 0.0
H2483 H 0.53465 0.46791 0.83693 0.0
H2484 H 0.49446 0.50982 0.91107 0.0
H2485 H 0.50978 0.49491 0.88418 0.0
H2486 H 0.56816 0.48295 0.89715 0.0
C2487 C 0.58797 0.47833 0.82648 0.0
C2488 C 0.54224 0.4707 0.85004 0.0
C2489 C 0.59538 0.48373 0.80899 0.0
C2490 C 0.50559 0.49975 0.91364 0.0
C2491 C 0.51427 0.49105 0.89824 0.0
C2492 C 0.56096 0.47879 0.88416 0.0
C2493 C 0.56958 0.48372 0.83183 0.0
C2494 C 0.56106 0.47753 0.84982 0.0
C2495 C 0.52973 0.47905 0.90089 0.0
C2496 C 0.54147 0.47405 0.88424 0.0
H2497 H 0.55791 0.50952 0.79358 0.0
H2498 H 0.54511 0.50017 0.82402 0.0
H2499 H 0.58528 0.48567 0.86718 0.0
H2500 H 0.53136 0.48049 0.94915 0.0
H2501 H 0.54724 0.46551 0.92179 0.0
C2502 C 0.76481 0.33682 0.06198 0.0
C2503 C 0.76087 0.33028 0.04352 0.0
C2504 C 0.76487 0.32436 0.07698 0.0
C2505 C 0.73919 0.28292 0.09007 0.0
H2506 H 0.77011 0.28666 0.13544 0.0
C2507 C 0.74028 0.25771 0.17259 0.0
C2508 C 0.72411 0.26717 0.17942 0.0
C2509 C 0.74606 0.25967 0.15386 0.0
C2510 C 0.76156 0.28518 0.12273 0.0
H2511 H 0.75585 0.30542 0.02595 0.0
H2512 H 0.75584 0.28364 0.05229 0.0
H2513 H 0.78124 0.30142 0.1064 0.0
H2514 H 0.70031 0.28455 0.17153 0.0
H2515 H 0.71033 0.28771 0.13862 0.0
H2516 H 0.71889 0.26785 0.10685 0.0
C2517 C 0.75864 0.29842 0.05511 0.0
C2518 C 0.76788 0.29366 0.10621 0.0
C2519 C 0.75865 0.31088 0.04009 0.0
C2520 C 0.71292 0.27726 0.16673 0.0
C2521 C 0.71857 0.27896 0.1479 0.0
C2522 C 0.73274 0.27469 0.10669 0.0
C2523 C 0.76098 0.30518 0.07374 0.0
C2524 C 0.75648 0.29305 0.0899 0.0
C2525 C 0.73557 0.27079 0.14158 0.0
C2526 C 0.74366 0.27621 0.12324 0.0
H2527 H 0.76669 0.35169 0.06504 0.0
H2528 H 0.76657 0.32996 0.09124 0.0
H2529 H 0.73003 0.28244 0.07773 0.0
H2530 H 0.74917 0.24969 0.18195 0.0
H2531 H 0.75918 0.25321 0.14919 0.0
C2532 C 0.9182 0.47201 0.30154 0.0
C2533 C 0.90805 0.48768 0.29556 0.0
C2534 C 0.92049 0.46869 0.32076 0.0
C2535 C 0.9023 0.48317 0.3684 0.0
H2536 H 0.9507 0.46342 0.38454 0.0
C2537 C 0.94212 0.49738 0.4378 0.0
C2538 C 0.95444 0.48334 0.44381 0.0
C2539 C 0.92961 0.49369 0.42283 0.0
C2540 C 0.93689 0.46848 0.38027 0.0
H2541 H 0.89285 0.51252 0.30476 0.0
H2542 H 0.89788 0.50742 0.3384 0.0
H2543 H 0.94445 0.4666 0.35118 0.0
H2544 H 0.96195 0.45407 0.44106 0.0
H2545 H 0.93987 0.44746 0.41502 0.0
H2546 H 0.89562 0.48644 0.39793 0.0
C2547 C 0.90334 0.4972 0.32833 0.0
C2548 C 0.9333 0.47035 0.36107 0.0
C2549 C 0.90067 0.50028 0.30908 0.0
C2550 C 0.95242 0.465 0.43659 0.0
C2551 C 0.93987 0.46127 0.4217 0.0
C2552 C 0.90607 0.48162 0.38773 0.0
C2553 C 0.91308 0.48124 0.33441 0.0
C2554 C 0.9161 0.47799 0.35487 0.0
C2555 C 0.92955 0.47597 0.41375 0.0
C2556 C 0.92352 0.47447 0.39379 0.0
H2557 H 0.92378 0.46192 0.29138 0.0
H2558 H 0.9278 0.45609 0.32488 0.0
H2559 H 0.88873 0.48877 0.36409 0.0
H2560 H 0.94369 0.51167 0.44319 0.0
H2561 H 0.92182 0.50526 0.41692 0.0
C2562 C 0.75129 0.62625 0.56803 0.0
C2563 C 0.75038 0.63538 0.55058 0.0
C2564 C 0.75305 0.63661 0.58491 0.0
C2565 C 0.76588 0.68418 0.60365 0.0
H2566 H 0.73698 0.66843 0.6475 0.0
C2567 C 0.7483 0.7338 0.66589 0.0
C2568 C 0.74874 0.72684 0.68439 0.0
C2569 C 0.75108 0.72186 0.65033 0.0
C2570 C 0.74538 0.67284 0.63547 0.0
H2571 H 0.75028 0.66251 0.53713 0.0
H2572 H 0.75275 0.68064 0.56659 0.0
H2573 H 0.73632 0.64912 0.6187 0.0
H2574 H 0.75299 0.70187 0.70102 0.0
H2575 H 0.75792 0.68096 0.67367 0.0
H2576 H 0.77441 0.70822 0.62029 0.0
C2577 C 0.75272 0.66546 0.56725 0.0
C2578 C 0.74501 0.66178 0.61894 0.0
C2579 C 0.75121 0.65508 0.55035 0.0
C2580 C 0.75258 0.7077 0.68697 0.0
C2581 C 0.75528 0.6957 0.67133 0.0
C2582 C 0.76614 0.69528 0.62012 0.0
C2583 C 0.7537 0.65635 0.58475 0.0
C2584 C 0.75503 0.66747 0.60273 0.0
C2585 C 0.75433 0.70264 0.65284 0.0
C2586 C 0.75566 0.68988 0.6361 0.0
H2587 H 0.75078 0.61105 0.56865 0.0
H2588 H 0.75404 0.62912 0.59808 0.0
H2589 H 0.77412 0.68877 0.59159 0.0
H2590 H 0.74534 0.74844 0.66333 0.0
H2591 H 0.75 0.72758 0.63626 0.0
C2592 C 0.67442 0.61198 0.49078 0.0
C2593 C 0.68882 0.60028 0.48362 0.0
C2594 C 0.65552 0.60557 0.49151 0.0
C2595 C 0.62686 0.56147 0.48981 0.0
H2596 H 0.58545 0.59331 0.47408 0.0
C2597 C 0.55919 0.53043 0.46075 0.0
C2598 C 0.54458 0.53053 0.4743 0.0
C2599 C 0.57435 0.54315 0.46228 0.0
C2600 C 0.59689 0.58443 0.47872 0.0
H2601 H 0.69472 0.57287 0.47133 0.0
H2602 H 0.66184 0.56189 0.47206 0.0
H2603 H 0.61781 0.60652 0.47707 0.0
H2604 H 0.5333 0.54519 0.49893 0.0
H2605 H 0.56001 0.56766 0.50151 0.0
H2606 H 0.60615 0.53923 0.49059 0.0
C2607 C 0.66511 0.57582 0.47762 0.0
C2608 C 0.61537 0.59192 0.48049 0.0
C2609 C 0.68396 0.58216 0.47705 0.0
C2610 C 0.54427 0.54497 0.48815 0.0
C2611 C 0.55957 0.55773 0.48972 0.0
C2612 C 0.60854 0.55401 0.4879 0.0
C2613 C 0.65066 0.58738 0.48499 0.0
C2614 C 0.63066 0.58034 0.48549 0.0
C2615 C 0.57512 0.5562 0.47734 0.0
C2616 C 0.59355 0.56529 0.48188 0.0
H2617 H 0.67778 0.62599 0.49608 0.0
H2618 H 0.64478 0.61476 0.49741 0.0
H2619 H 0.63816 0.55229 0.49422 0.0
H2620 H 0.55976 0.51946 0.44996 0.0
H2621 H 0.58623 0.54181 0.45259 0.0
C2622 C 0.17813 0.90691 0.51709 0.0
C2623 C 0.18258 0.89195 0.50484 0.0
C2624 C 0.16338 0.91896 0.51271 0.0
C2625 C 0.12174 0.92559 0.48194 0.0
H2626 H 0.13193 0.9779 0.49521 0.0
C2627 C 0.06239 0.9775 0.47765 0.0
C2628 C 0.05802 0.98217 0.49652 0.0
C2629 C 0.08063 0.97143 0.47291 0.0
C2630 C 0.12909 0.96342 0.49106 0.0
H2631 H 0.17468 0.877 0.47902 0.0
H2632 H 0.14897 0.89835 0.47108 0.0
H2633 H 0.15676 0.95464 0.49939 0.0
H2634 H 0.06949 0.98679 0.52466 0.0
H2635 H 0.10146 0.97671 0.51635 0.0
H2636 H 0.09387 0.93435 0.47413 0.0
C2637 C 0.15669 0.90067 0.48418 0.0
C2638 C 0.14313 0.95005 0.49372 0.0
C2639 C 0.17129 0.88837 0.48878 0.0
C2640 C 0.0726 0.98318 0.51003 0.0
C2641 C 0.0909 0.9775 0.50523 0.0
C2642 C 0.10778 0.93901 0.47905 0.0
C2643 C 0.15313 0.91652 0.49575 0.0
C2644 C 0.13926 0.93088 0.49007 0.0
C2645 C 0.09466 0.97034 0.48698 0.0
C2646 C 0.11107 0.95788 0.48439 0.0
H2647 H 0.18667 0.90981 0.5296 0.0
H2648 H 0.16048 0.9306 0.52231 0.0
H2649 H 0.11833 0.91096 0.47895 0.0
H2650 H 0.05128 0.97646 0.46706 0.0
H2651 H 0.08328 0.96602 0.45874 0.0
C2652 C 0.36457 0.91959 0.72987 0.0
C2653 C 0.359 0.93597 0.7397 0.0
C2654 C 0.3546 0.90268 0.73246 0.0
C2655 C 0.3069 0.88741 0.74423 0.0
H2656 H 0.32764 0.83823 0.75382 0.0
C2657 C 0.25656 0.82674 0.75853 0.0
C2658 C 0.26023 0.8098 0.74893 0.0
C2659 C 0.27061 0.84064 0.75988 0.0
C2660 C 0.32169 0.85187 0.75101 0.0
H2661 H 0.33961 0.94716 0.76094 0.0
H2662 H 0.32243 0.91787 0.76534 0.0
H2663 H 0.34922 0.86539 0.75056 0.0
H2664 H 0.28162 0.79355 0.73403 0.0
H2665 H 0.30599 0.81827 0.73559 0.0
H2666 H 0.27957 0.87427 0.7441 0.0
C2667 C 0.33417 0.91814 0.7554 0.0
C2668 C 0.33402 0.86733 0.74914 0.0
C2669 C 0.34399 0.93493 0.7528 0.0
C2670 C 0.27849 0.80655 0.74152 0.0
C2671 C 0.29246 0.82066 0.74251 0.0
C2672 C 0.29469 0.87208 0.74593 0.0
C2673 C 0.33903 0.90202 0.74492 0.0
C2674 C 0.32662 0.88524 0.74599 0.0
C2675 C 0.28843 0.83808 0.75118 0.0
C2676 C 0.30186 0.85417 0.7496 0.0
H2677 H 0.3762 0.91998 0.71981 0.0
H2678 H 0.35854 0.89036 0.72421 0.0
H2679 H 0.30089 0.90103 0.74141 0.0
H2680 H 0.24268 0.82939 0.76464 0.0
H2681 H 0.26727 0.85369 0.76719 0.0
C2682 C 0.29731 0.05905 0.00044 0.0
C2683 C 0.29153 0.07487 -0.00956 0.0
C2684 C 0.31553 0.05186 -0.0021 0.0
C2685 C 0.36378 0.0651 0.98243 0.0
H2686 H 0.37156 0.01154 0.98728 0.0
C2687 C 0.43773 0.02755 0.98891 0.0
C2688 C 0.43883 0.021 0.00754 0.0
C2689 C 0.42023 0.0334 0.98162 0.0
C2690 C 0.36956 0.02648 0.9855 0.0
H2691 H 0.30027 0.09544 0.96974 0.0
H2692 H 0.33205 0.08264 0.96509 0.0
H2693 H 0.3393 0.02346 0.98411 0.0
H2694 H 0.4226 0.01466 0.03282 0.0
H2695 H 0.39222 0.02426 0.01992 0.0
H2696 H 0.39418 0.06798 0.98445 0.0
C2697 C 0.32255 0.07596 0.97507 0.0
C2698 C 0.35113 0.03335 0.98393 0.0
C2699 C 0.30433 0.08325 0.97771 0.0
C2700 C 0.4222 0.01979 0.01848 0.0
C2701 C 0.40481 0.02516 0.01109 0.0
C2702 C 0.38227 0.05817 0.98378 0.0
C2703 C 0.32837 0.06018 0.98517 0.0
C2704 C 0.34798 0.05279 0.98324 0.0
C2705 C 0.4037 0.03217 -0.00727 0.0
C2706 C 0.38518 0.03889 0.98606 0.0
H2707 H 0.28788 0.05238 0.0105 0.0
H2708 H 0.31969 0.03999 0.00629 0.0
H2709 H 0.36186 0.08016 0.98199 0.0
H2710 H 0.45041 0.02861 0.98024 0.0
H2711 H 0.41959 0.03885 0.96742 0.0
C2712 C 0.6611 0.5488 0.73557 0.0
C2713 C 0.64266 0.54683 0.7281 0.0
C2714 C 0.67179 0.56515 0.7325 0.0
C2715 C 0.66575 0.61511 0.72188 0.0
H2716 H 0.72084 0.61413 0.71899 0.0
C2717 C 0.71081 0.68238 0.73352 0.0
C2718 C 0.72318 0.6799 0.74886 0.0
C2719 C 0.70262 0.66668 0.72425 0.0
C2720 C 0.70544 0.61463 0.71953 0.0
H2721 H 0.62125 0.56021 0.71091 0.0
H2722 H 0.64 0.58856 0.70536 0.0
H2723 H 0.70264 0.58482 0.71593 0.0
H2724 H 0.73804 0.65933 0.76546 0.0
H2725 H 0.72408 0.63224 0.74935 0.0
H2726 H 0.66864 0.64482 0.72634 0.0
C2727 C 0.64607 0.57764 0.71389 0.0
C2728 C 0.69503 0.59785 0.71794 0.0
C2729 C 0.63534 0.56137 0.71708 0.0
C2730 C 0.72838 0.66165 0.75381 0.0
C2731 C 0.72052 0.6461 0.74442 0.0
C2732 C 0.67618 0.6319 0.72341 0.0
C2733 C 0.66435 0.57983 0.72174 0.0
C2734 C 0.67512 0.59781 0.71992 0.0
C2735 C 0.70709 0.64839 0.72997 0.0
C2736 C 0.69616 0.63171 0.7231 0.0
H2737 H 0.66714 0.53791 0.74416 0.0
H2738 H 0.68568 0.5665 0.73907 0.0
H2739 H 0.65044 0.61561 0.72354 0.0
H2740 H 0.70664 0.69634 0.72942 0.0
H2741 H 0.69233 0.66881 0.7131 0.0
C2742 C 0.809 0.40565 0.00185 0.0
C2743 C 0.79581 0.41253 0.98886 0.0
C2744 C 0.82845 0.40861 -0.00088 0.0
C2745 C 0.86292 0.43665 0.97126 0.0
H2746 H 0.89759 0.39675 0.98423 0.0
C2747 C 0.93856 0.4479 0.95433 0.0
C2748 C 0.94841 0.45044 0.97144 0.0
C2749 C 0.92227 0.43659 0.95364 0.0
C2750 C 0.88798 0.40785 0.98038 0.0
H2751 H 0.79236 0.42828 0.96314 0.0
H2752 H 0.82624 0.43288 0.95791 0.0
H2753 H 0.86338 0.39271 -0.01017 0.0
H2754 H 0.95113 0.44104 0.00029 0.0
H2755 H 0.92234 0.4215 -0.0008 0.0
H2756 H 0.88736 0.45174 0.96174 0.0
C2757 C 0.82172 0.42563 0.97051 0.0
C2758 C 0.86847 0.40571 0.9838 0.0
C2759 C 0.80227 0.42301 0.97347 0.0
C2760 C 0.94371 0.4392 0.98692 0.0
C2761 C 0.92721 0.42805 0.98631 0.0
C2762 C 0.88225 0.43862 0.96754 0.0
C2763 C 0.83506 0.41819 0.98313 0.0
C2764 C 0.85575 0.42018 0.97941 0.0
C2765 C 0.91555 0.42807 0.97016 0.0
C2766 C 0.89497 0.42431 0.97212 0.0
H2767 H 0.80428 0.39764 0.01393 0.0
H2768 H 0.83829 0.40317 0.00942 0.0
H2769 H 0.8537 0.44828 0.96813 0.0
H2770 H 0.94208 0.45639 0.94221 0.0
H2771 H 0.91364 0.43648 0.94092 0.0
C2772 C 0.3287 0.05649 0.7669 0.0
C2773 C 0.32517 0.042 0.75364 0.0
C2774 C 0.31732 0.07237 0.76729 0.0
C2775 C 0.27351 0.09382 0.7482 0.0
H2776 H 0.30513 0.1389 0.74917 0.0
C2777 C 0.26833 0.17332 0.72152 0.0
C2778 C 0.26078 0.18404 0.73651 0.0
C2779 C 0.27221 0.15437 0.72396 0.0
C2780 C 0.29619 0.12639 0.74897 0.0
H2781 H 0.30623 0.03198 0.73135 0.0
H2782 H 0.28664 0.06005 0.73162 0.0
H2783 H 0.31957 0.10855 0.75463 0.0
H2784 H 0.2507 0.18347 0.76551 0.0
H2785 H 0.25792 0.15019 0.76985 0.0
H2786 H 0.2502 0.11209 0.74203 0.0
C2787 C 0.29798 0.05904 0.74193 0.0
C2788 C 0.30435 0.10906 0.75228 0.0
C2789 C 0.30923 0.04299 0.74173 0.0
C2790 C 0.25622 0.17535 0.75366 0.0
C2791 C 0.2603 0.15642 0.75615 0.0
C2792 C 0.26531 0.11129 0.74496 0.0
C2793 C 0.30241 0.07419 0.75421 0.0
C2794 C 0.29314 0.09257 0.7519 0.0
C2795 C 0.26869 0.146 0.74144 0.0
C2796 C 0.27669 0.12757 0.74523 0.0
H2797 H 0.34076 0.05591 0.77642 0.0
H2798 H 0.32075 0.08364 0.77726 0.0
H2799 H 0.26455 0.08134 0.7478 0.0
H2800 H 0.27187 0.17978 0.70817 0.0
H2801 H 0.27884 0.14646 0.71255 0.0
C2802 C 0.1534 0.92807 0.27403 0.0
C2803 C 0.15949 0.94155 0.26099 0.0
C2804 C 0.16397 0.91187 0.27681 0.0
C2805 C 0.21008 0.88892 0.2649 0.0
H2806 H 0.17876 0.8437 0.26268 0.0
C2807 C 0.23086 0.82168 0.22621 0.0
C2808 C 0.22699 0.80419 0.23435 0.0
C2809 C 0.22525 0.8382 0.23525 0.0
C2810 C 0.18772 0.85615 0.2638 0.0
H2811 H 0.18188 0.94921 0.24139 0.0
H2812 H 0.20002 0.9207 0.24569 0.0
H2813 H 0.16386 0.87398 0.2681 0.0
H2814 H 0.21471 0.7902 0.25857 0.0
H2815 H 0.20423 0.8194 0.27423 0.0
H2816 H 0.23376 0.87101 0.2591 0.0
C2817 C 0.18731 0.92273 0.25412 0.0
C2818 C 0.17921 0.87355 0.26691 0.0
C2819 C 0.17684 0.93903 0.25151 0.0
C2820 C 0.21783 0.80353 0.25201 0.0
C2821 C 0.21186 0.82016 0.26094 0.0
C2822 C 0.21855 0.87153 0.26158 0.0
C2823 C 0.18074 0.90873 0.26644 0.0
C2824 C 0.19022 0.8902 0.26681 0.0
C2825 C 0.21542 0.8376 0.25251 0.0
C2826 C 0.20734 0.85511 0.26035 0.0
H2827 H 0.1402 0.9298 0.28176 0.0
H2828 H 0.15871 0.90156 0.28668 0.0
H2829 H 0.21901 0.90142 0.26517 0.0
H2830 H 0.23803 0.82263 0.21268 0.0
H2831 H 0.22789 0.85144 0.22832 0.0
C2832 C 0.49518 0.32205 0.38675 0.0
C2833 C 0.49393 0.30392 0.39427 0.0
C2834 C 0.48926 0.33764 0.39731 0.0
C2835 C 0.48404 0.35471 0.44566 0.0
H2836 H 0.4594 0.39627 0.42108 0.0
C2837 C 0.48759 0.42678 0.48034 0.0
C2838 C 0.49671 0.43923 0.46804 0.0
C2839 C 0.47848 0.41063 0.4731 0.0
C2840 C 0.46607 0.38472 0.42823 0.0
H2841 H 0.48551 0.28799 0.41888 0.0
H2842 H 0.47548 0.31544 0.43753 0.0
H2843 H 0.46144 0.36584 0.40473 0.0
H2844 H 0.50217 0.44595 0.43884 0.0
H2845 H 0.48623 0.41796 0.42607 0.0
H2846 H 0.4898 0.3738 0.46862 0.0
C2847 C 0.48092 0.31746 0.42335 0.0
C2848 C 0.4673 0.36735 0.41886 0.0
C2849 C 0.48669 0.30177 0.41269 0.0
C2850 C 0.49503 0.4365 0.44848 0.0
C2851 C 0.48584 0.42048 0.44122 0.0
C2852 C 0.48285 0.3721 0.45501 0.0
C2853 C 0.48206 0.33554 0.41571 0.0
C2854 C 0.47708 0.35244 0.42713 0.0
C2855 C 0.47849 0.40681 0.4535 0.0
C2856 C 0.47465 0.38753 0.44602 0.0
H2857 H 0.50062 0.32424 0.37261 0.0
H2858 H 0.49071 0.35143 0.39118 0.0
H2859 H 0.4917 0.34351 0.45238 0.0
H2860 H 0.48889 0.42869 0.49553 0.0
H2861 H 0.47272 0.40048 0.48288 0.0
C2862 C 0.44887 0.72647 0.18168 0.0
C2863 C 0.45213 0.73749 0.16563 0.0
C2864 C 0.43056 0.72473 0.18923 0.0
C2865 C 0.38035 0.72994 0.17587 0.0
H2866 H 0.37094 0.73738 0.22958 0.0
C2867 C 0.30905 0.75444 0.20231 0.0
C2868 C 0.30026 0.74477 0.21714 0.0
C2869 C 0.32799 0.75127 0.19784 0.0
C2870 C 0.37342 0.73495 0.21461 0.0
H2871 H 0.43889 0.75565 0.1452 0.0
H2872 H 0.40715 0.75287 0.15852 0.0
H2873 H 0.40377 0.73568 0.2179 0.0
H2874 H 0.30461 0.72487 0.23959 0.0
H2875 H 0.33816 0.7192 0.2316 0.0
H2876 H 0.35016 0.72985 0.17242 0.0
C2877 C 0.41862 0.74525 0.16503 0.0
C2878 C 0.39214 0.73398 0.20793 0.0
C2879 C 0.43683 0.74695 0.15748 0.0
C2880 C 0.31107 0.73246 0.22805 0.0
C2881 C 0.33018 0.72922 0.2235 0.0
C2882 C 0.36176 0.73094 0.1825 0.0
C2883 C 0.41525 0.73396 0.18084 0.0
C2884 C 0.39572 0.73214 0.18841 0.0
C2885 C 0.33858 0.73827 0.20802 0.0
C2886 C 0.35815 0.73411 0.20182 0.0
H2887 H 0.46037 0.7189 0.18819 0.0
H2888 H 0.4283 0.71589 0.20137 0.0
H2889 H 0.3827 0.72802 0.16081 0.0
H2890 H 0.3012 0.76428 0.19387 0.0
H2891 H 0.3343 0.75881 0.18616 0.0
C2892 C -0.00351 0.68968 0.92271 0.0
C2893 C -0.00789 0.69041 0.90332 0.0
C2894 C -0.00181 0.67235 0.93162 0.0
C2895 C 0.00789 0.62249 0.92023 0.0
H2896 H 0.98621 0.61282 0.9696 0.0
C2897 C 0.98573 0.54986 0.94622 0.0
C2898 C 0.98682 0.54605 0.96556 0.0
C2899 C -0.00797 0.56714 0.93945 0.0
C2900 C -0.00724 0.61541 0.956 0.0
H2901 H 0.98515 0.67359 0.87833 0.0
H2902 H -0.01217 0.64352 0.89389 0.0
H2903 H 0.98415 0.64419 0.95643 0.0
H2904 H -0.00377 0.55649 -0.00706 0.0
H2905 H 0.00725 0.58698 0.98114 0.0
H2906 H 0.01583 0.59352 0.91951 0.0
C2907 C -0.00961 0.65627 0.90213 0.0
C2908 C -0.00852 0.63337 0.94842 0.0
C2909 C -0.01136 0.67353 0.89326 0.0
C2910 C -0.00444 0.55913 0.9779 0.0
C2911 C 0.00164 0.57659 0.97118 0.0
C2912 C 0.00912 0.60454 0.92779 0.0
C2913 C -0.00437 0.65546 0.92129 0.0
C2914 C -0.00143 0.63697 0.93023 0.0
C2915 C -0.00085 0.58104 0.95203 0.0
C2916 C 0.00114 0.60069 0.94555 0.0
H2917 H -0.00074 0.70245 0.93084 0.0
H2918 H 0.00219 0.67219 0.94642 0.0
H2919 H 0.01392 0.62494 0.90637 0.0
H2920 H 0.97874 0.54 0.93657 0.0
H2921 H -0.01021 0.57017 0.92465 0.0
C2922 C 0.06535 0.24711 0.61982 0.0
C2923 C 0.05146 0.25354 0.63268 0.0
C2924 C 0.08277 0.24048 0.62639 0.0
C2925 C 0.10389 0.22074 0.66893 0.0
H2926 H 0.1518 0.24314 0.65313 0.0
C2927 C 0.16031 0.24068 0.72007 0.0
C2928 C 0.17913 0.23462 0.71783 0.0
C2929 C 0.14712 0.2379 0.7057 0.0
C2930 C 0.13864 0.23626 0.65723 0.0
H2931 H 0.04525 0.25895 0.66232 0.0
H2932 H 0.07564 0.24766 0.67371 0.0
H2933 H 0.12282 0.24854 0.6347 0.0
H2934 H 0.19914 0.22151 0.69846 0.0
H2935 H 0.17556 0.2166 0.67286 0.0
H2936 H 0.11929 0.20971 0.69224 0.0
C2937 C 0.0729 0.24731 0.65862 0.0
C2938 C 0.12208 0.23942 0.6468 0.0
C2939 C 0.0556 0.25396 0.65209 0.0
C2940 C 0.18466 0.22618 0.70056 0.0
C2941 C 0.17127 0.22335 0.68601 0.0
C2942 C 0.12036 0.21754 0.67925 0.0
C2943 C 0.08646 0.24012 0.64588 0.0
C2944 C 0.10443 0.23266 0.65332 0.0
C2945 C 0.15234 0.22894 0.68872 0.0
C2946 C 0.13757 0.22626 0.67415 0.0
H2947 H 0.06252 0.24656 0.60476 0.0
H2948 H 0.09309 0.23514 0.61632 0.0
H2949 H 0.09049 0.21504 0.67398 0.0
H2950 H 0.1557 0.24772 0.73296 0.0
H2951 H 0.13273 0.24285 0.70785 0.0
C2952 C 0.48807 0.6726 0.10838 0.0
C2953 C 0.49691 0.68788 0.09961 0.0
C2954 C 0.48775 0.65499 0.09944 0.0
C2955 C 0.49849 0.63068 0.05367 0.0
H2956 H 0.50849 0.58826 0.08591 0.0
C2957 C 0.52541 0.56353 0.02145 0.0
C2958 C 0.51284 0.54831 0.02386 0.0
C2959 C 0.52449 0.57911 0.03352 0.0
C2960 C 0.50566 0.60002 0.07683 0.0
H2961 H 0.512 0.69732 0.07479 0.0
H2962 H 0.51249 0.6664 0.05952 0.0
H2963 H 0.50245 0.61913 0.1002 0.0
H2964 H 0.49117 0.53627 0.04207 0.0
H2965 H 0.48951 0.56378 0.06321 0.0
H2966 H 0.50242 0.61168 0.03033 0.0
C2967 C 0.50511 0.66793 0.0729 0.0
C2968 C 0.50201 0.61764 0.08494 0.0
C2969 C 0.50496 0.68562 0.08163 0.0
C2970 C 0.50096 0.54791 0.03987 0.0
C2971 C 0.49998 0.56361 0.05194 0.0
C2972 C 0.50245 0.61321 0.04562 0.0
C2973 C 0.49678 0.65233 0.08185 0.0
C2974 C 0.4987 0.63325 0.07341 0.0
C2975 C 0.51096 0.57969 0.04811 0.0
C2976 C 0.5064 0.59786 0.05711 0.0
H2977 H 0.48163 0.67425 0.12223 0.0
H2978 H 0.48079 0.6434 0.10649 0.0
H2979 H 0.49548 0.64222 0.04438 0.0
H2980 H 0.53495 0.56398 0.00941 0.0
H2981 H 0.53339 0.59126 0.03063 0.0
C2982 C 0.07545 0.7339 0.86672 0.0
C2983 C 0.05999 0.73138 0.85426 0.0
C2984 C 0.09401 0.73012 0.86065 0.0
C2985 C 0.12163 0.70829 0.82093 0.0
H2986 H 0.15552 0.75104 0.82876 0.0
C2987 C 0.1644 0.74255 0.76382 0.0
C2988 C 0.18163 0.75176 0.76792 0.0
C2989 C 0.15506 0.73235 0.77776 0.0
C2990 C 0.14659 0.73864 0.82685 0.0
H2991 H 0.05174 0.7221 0.82602 0.0
H2992 H 0.08391 0.71587 0.81537 0.0
H2993 H 0.12722 0.74794 0.84824 0.0
H2994 H 0.2034 0.75686 0.78911 0.0
H2995 H 0.18667 0.73943 0.81392 0.0
H2996 H 0.14022 0.7 0.79832 0.0
C2997 C 0.08182 0.72048 0.8299 0.0
C2998 C 0.13029 0.73688 0.83802 0.0
C2999 C 0.06335 0.72431 0.83592 0.0
C3000 C 0.19013 0.74968 0.78571 0.0
C3001 C 0.18057 0.73978 0.79985 0.0
C3002 C 0.13786 0.71013 0.80967 0.0
C3003 C 0.09742 0.72363 0.84206 0.0
C3004 C 0.11705 0.72231 0.83438 0.0
C3005 C 0.16259 0.73164 0.79617 0.0
C3006 C 0.14985 0.72594 0.81179 0.0
H3007 H 0.07327 0.73918 0.88101 0.0
H3008 H 0.10572 0.73261 0.87037 0.0
H3009 H 0.11195 0.69661 0.81815 0.0
H3010 H 0.15772 0.744 0.75011 0.0
H3011 H 0.14115 0.7264 0.77453 0.0
C3012 C 0.97211 0.31561 0.5911 0.0
C3013 C 0.97438 0.29802 0.58219 0.0
C3014 C 0.97087 0.33179 0.5804 0.0
C3015 C 0.98704 0.34995 0.53511 0.0
H3016 H 0.96026 0.39401 0.55333 0.0
C3017 C -0.01017 0.42832 0.50761 0.0
C3018 C -0.00518 0.44076 0.52254 0.0
C3019 C 0.98679 0.40923 0.51113 0.0
C3020 C 0.96765 0.38174 0.54797 0.0
H3021 H 0.97566 0.28336 0.55506 0.0
H3022 H 0.97317 0.31178 0.53627 0.0
H3023 H 0.95231 0.36336 0.56619 0.0
H3024 H 0.00266 0.44277 0.5522 0.0
H3025 H -0.00266 0.40955 0.55826 0.0
H3026 H 0.00263 0.36875 0.51715 0.0
C3027 C 0.97277 0.31303 0.55156 0.0
C3028 C 0.96318 0.36425 0.55535 0.0
C3029 C 0.97409 0.29678 0.56231 0.0
C3030 C -0.00162 0.43358 0.54055 0.0
C3031 C -0.00462 0.41462 0.54402 0.0
C3032 C -0.00862 0.36753 0.52755 0.0
C3033 C 0.9717 0.33075 0.56053 0.0
C3034 C 0.9734 0.34829 0.54963 0.0
C3035 C -0.01119 0.40251 0.52955 0.0
C3036 C 0.98221 0.38358 0.53454 0.0
H3037 H 0.97229 0.31705 0.60638 0.0
H3038 H 0.97035 0.34522 0.58781 0.0
H3039 H -0.00476 0.33794 0.53048 0.0
H3040 H 0.98712 0.4335 0.49355 0.0
H3041 H 0.9818 0.39999 0.4998 0.0
C3042 C 0.43844 0.24107 0.33229 0.0
C3043 C 0.45242 0.25315 0.32493 0.0
C3044 C 0.42 0.24084 0.32491 0.0
C3045 C 0.39126 0.25342 0.28337 0.0
H3046 H 0.34985 0.25008 0.31946 0.0
C3047 C 0.31001 0.25395 0.26354 0.0
C3048 C 0.29891 0.24071 0.2733 0.0
C3049 C 0.32919 0.25703 0.26846 0.0
C3050 C 0.36125 0.25095 0.30917 0.0
H3051 H 0.45803 0.27435 0.30383 0.0
H3052 H 0.42573 0.27404 0.29108 0.0
H3053 H 0.38245 0.25228 0.33082 0.0
H3054 H 0.2998 0.21927 0.29487 0.0
H3055 H 0.3328 0.22435 0.303 0.0
H3056 H 0.36981 0.25181 0.2617 0.0
C3057 C 0.42913 0.2646 0.30242 0.0
C3058 C 0.37994 0.25215 0.31569 0.0
C3059 C 0.44761 0.26479 0.30978 0.0
C3060 C 0.30767 0.22995 0.2873 0.0
C3061 C 0.32665 0.2329 0.29208 0.0
C3062 C 0.37244 0.25219 0.2768 0.0
C3063 C 0.41507 0.25276 0.31005 0.0
C3064 C 0.3952 0.25295 0.30289 0.0
C3065 C 0.33752 0.24679 0.28312 0.0
C3066 C 0.3573 0.25046 0.28967 0.0
H3067 H 0.44168 0.23183 0.34385 0.0
H3068 H 0.40959 0.23128 0.33086 0.0
H3069 H 0.40273 0.25403 0.27315 0.0
H3070 H 0.30385 0.26216 0.25243 0.0
H3071 H 0.33732 0.26773 0.2612 0.0
C3072 C 0.40713 0.49828 0.29325 0.0
C3073 C 0.41148 0.48289 0.28148 0.0
C3074 C 0.41365 0.49911 0.31186 0.0
C3075 C 0.44804 0.47804 0.3452 0.0
H3076 H 0.41457 0.50146 0.382 0.0
C3077 C 0.47195 0.4975 0.42182 0.0
C3078 C 0.458 0.4971 0.43602 0.0
C3079 C 0.46687 0.4942 0.40287 0.0
C3080 C 0.42404 0.49459 0.37205 0.0
H3081 H 0.42598 0.4562 0.27983 0.0
H3082 H 0.43676 0.45721 0.31271 0.0
H3083 H 0.4043 0.49802 0.34956 0.0
H3084 H 0.4282 0.49156 0.44191 0.0
H3085 H 0.41953 0.48492 0.4093 0.0
H3086 H 0.46742 0.47386 0.36811 0.0
C3087 C 0.42882 0.46896 0.30741 0.0
C3088 C 0.41826 0.49294 0.35327 0.0
C3089 C 0.42259 0.46833 0.28861 0.0
C3090 C 0.43915 0.49249 0.43115 0.0
C3091 C 0.43418 0.48874 0.41241 0.0
C3092 C 0.45373 0.47942 0.36416 0.0
C3093 C 0.4243 0.48432 0.31931 0.0
C3094 C 0.43028 0.48496 0.3395 0.0
C3095 C 0.44783 0.49002 0.39793 0.0
C3096 C 0.44184 0.48787 0.3778 0.0
H3097 H 0.39874 0.50978 0.28804 0.0
H3098 H 0.41033 0.51141 0.3204 0.0
H3099 H 0.45772 0.47189 0.33498 0.0
H3100 H 0.48663 0.5009 0.4253 0.0
H3101 H 0.47775 0.49543 0.3921 0.0
C3102 C 0.2494 0.62817 0.06042 0.0
C3103 C 0.23989 0.63614 0.04517 0.0
C3104 C 0.2494 0.63719 0.07809 0.0
C3105 C 0.23624 0.68188 0.10262 0.0
H3106 H 0.22811 0.64931 0.14549 0.0
C3107 C 0.20891 0.71215 0.17133 0.0
C3108 C 0.22164 0.71003 0.18642 0.0
C3109 C 0.21016 0.70053 0.15537 0.0
C3110 C 0.2304 0.65849 0.13361 0.0
H3111 H 0.22338 0.65965 0.03576 0.0
H3112 H 0.22242 0.67505 0.06681 0.0
H3113 H 0.23469 0.63553 0.1143 0.0
H3114 H 0.24393 0.6926 0.19782 0.0
H3115 H 0.24611 0.67227 0.16972 0.0
H3116 H 0.2313 0.70477 0.12185 0.0
C3117 C 0.2305 0.66226 0.0652 0.0
C3118 C 0.23437 0.65068 0.1158 0.0
C3119 C 0.23092 0.65346 0.04745 0.0
C3120 C 0.23406 0.69467 0.18628 0.0
C3121 C 0.23533 0.68302 0.17024 0.0
C3122 C 0.23198 0.68962 0.12029 0.0
C3123 C 0.23941 0.65403 0.08082 0.0
C3124 C 0.23707 0.6623 0.10005 0.0
C3125 C 0.22412 0.68662 0.15431 0.0
C3126 C 0.22874 0.67799 0.13583 0.0
H3127 H 0.25653 0.61483 0.05873 0.0
H3128 H 0.25682 0.63073 0.08968 0.0
H3129 H 0.23873 0.69126 0.09095 0.0
H3130 H 0.19891 0.72363 0.17128 0.0
H3131 H 0.20106 0.7032 0.14335 0.0
C3132 C 0.05375 0.51602 0.79029 0.0
C3133 C 0.07094 0.50711 0.78563 0.0
C3134 C 0.0474 0.51657 0.80903 0.0
C3135 C 0.06308 0.50856 0.85822 0.0
H3136 H 0.0117 0.48945 0.8656 0.0
C3137 C 0.04236 0.47277 0.92625 0.0
C3138 C 0.02639 0.48017 0.93552 0.0
C3139 C 0.04589 0.47708 0.90742 0.0
C3140 C 0.026 0.49495 0.8637 0.0
H3141 H 0.09538 0.49269 0.79705 0.0
H3142 H 0.08418 0.49333 0.82937 0.0
H3143 H 0.02212 0.49841 0.83394 0.0
H3144 H 0.00062 0.49642 0.93186 0.0
H3145 H 0.00696 0.50394 0.89898 0.0
H3146 H 0.06722 0.50439 0.88778 0.0
C3147 C 0.07569 0.50009 0.81871 0.0
C3148 C 0.03191 0.50024 0.84568 0.0
C3149 C 0.08201 0.49954 0.80011 0.0
C3150 C 0.01321 0.49069 0.92519 0.0
C3151 C 0.01675 0.49496 0.90635 0.0
C3152 C 0.05725 0.50313 0.87612 0.0
C3153 C 0.05819 0.5083 0.82332 0.0
C3154 C 0.05071 0.50649 0.84271 0.0
C3155 C 0.03349 0.4888 0.8976 0.0
C3156 C 0.03888 0.49575 0.87886 0.0
H3157 H 0.04505 0.52223 0.77946 0.0
H3158 H 0.03394 0.52316 0.81229 0.0
H3159 H 0.07752 0.51371 0.85637 0.0
H3160 H 0.05257 0.46435 0.93372 0.0
H3161 H 0.05868 0.47182 0.9007 0.0
C3162 C 0.23092 0.31834 0.5532 0.0
C3163 C 0.23363 0.33793 0.55411 0.0
C3164 C 0.2289 0.30808 0.56981 0.0
C3165 C 0.21589 0.31421 0.62022 0.0
H3166 H 0.24392 0.2683 0.6273 0.0
C3167 C 0.24119 0.28638 0.69137 0.0
C3168 C 0.2428 0.26693 0.69333 0.0
C3169 C 0.23363 0.29362 0.67477 0.0
C3170 C 0.2356 0.28085 0.62539 0.0
H3171 H 0.23697 0.36202 0.57311 0.0
H3172 H 0.23365 0.34416 0.60193 0.0
H3173 H 0.24496 0.28362 0.59675 0.0
H3174 H 0.23665 0.23968 0.68064 0.0
H3175 H 0.22337 0.25231 0.65155 0.0
H3176 H 0.2073 0.31187 0.64921 0.0
C3177 C 0.2327 0.33675 0.58844 0.0
C3178 C 0.23627 0.28966 0.60791 0.0
C3179 C 0.23482 0.34696 0.57191 0.0
C3180 C 0.23524 0.25476 0.6794 0.0
C3181 C 0.22784 0.26197 0.66274 0.0
C3182 C 0.21528 0.30545 0.63774 0.0
C3183 C 0.22942 0.31726 0.58758 0.0
C3184 C 0.22685 0.3067 0.60531 0.0
C3185 C 0.22794 0.28145 0.65987 0.0
C3186 C 0.22551 0.28893 0.64062 0.0
H3187 H 0.22997 0.31101 0.53967 0.0
H3188 H 0.22646 0.29305 0.56873 0.0
H3189 H 0.20816 0.32715 0.61849 0.0
H3190 H 0.24728 0.29593 0.70189 0.0
H3191 H 0.23397 0.3087 0.67291 0.0
C3192 C 0.40217 0.51155 0.17222 0.0
C3193 C 0.38367 0.50456 0.17526 0.0
C3194 C 0.40851 0.51525 0.15395 0.0
C3195 C 0.40141 0.49765 0.10629 0.0
H3196 H 0.43825 0.53661 0.09415 0.0
C3197 C 0.44956 0.48698 0.04293 0.0
C3198 C 0.46876 0.4892 0.04774 0.0
C3199 C 0.43552 0.49526 0.05417 0.0
C3200 C 0.42788 0.52572 0.09725 0.0
H3201 H 0.35692 0.49694 0.16168 0.0
H3202 H 0.36815 0.50317 0.1296 0.0
H3203 H 0.41961 0.53921 0.12326 0.0
H3204 H 0.48879 0.50212 0.06731 0.0
H3205 H 0.46442 0.51624 0.08736 0.0
H3206 H 0.41049 0.48341 0.08119 0.0
C3207 C 0.37773 0.50572 0.14141 0.0
C3208 C 0.41721 0.52722 0.11389 0.0
C3209 C 0.37133 0.50212 0.15974 0.0
C3210 C 0.47396 0.50054 0.06328 0.0
C3211 C 0.45997 0.50871 0.07465 0.0
C3212 C 0.41213 0.49609 0.08975 0.0
C3213 C 0.3965 0.51197 0.13831 0.0
C3214 C 0.40446 0.5128 0.11894 0.0
C3215 C 0.44055 0.50546 0.0707 0.0
C3216 C 0.42608 0.50969 0.08545 0.0
H3217 H 0.41194 0.51375 0.18393 0.0
H3218 H 0.42313 0.51981 0.15202 0.0
H3219 H 0.39183 0.48622 0.10987 0.0
H3220 H 0.44542 0.47768 0.03133 0.0
H3221 H 0.42071 0.49264 0.05062 0.0
C3222 C 0.26732 0.67102 0.93663 0.0
C3223 C 0.26325 0.65175 0.93433 0.0
C3224 C 0.26875 0.68253 0.92086 0.0
C3225 C 0.27029 0.68154 0.86815 0.0
H3226 H 0.23841 0.72561 0.87285 0.0
C3227 C 0.23012 0.70833 0.80597 0.0
C3228 C 0.23726 0.72542 0.7992 0.0
C3229 C 0.23402 0.70299 0.82437 0.0
C3230 C 0.24757 0.71351 0.87148 0.0
H3231 H 0.25904 0.62912 0.91377 0.0
H3232 H 0.26106 0.6491 0.88642 0.0
H3233 H 0.24743 0.70855 0.90124 0.0
H3234 H 0.25224 0.75127 0.80669 0.0
H3235 H 0.25917 0.74174 0.83927 0.0
H3236 H 0.2693 0.68584 0.83829 0.0
C3237 C 0.2634 0.65543 0.90028 0.0
C3238 C 0.25286 0.70381 0.88766 0.0
C3239 C 0.26212 0.64394 0.916 0.0
C3240 C 0.24664 0.738 0.81167 0.0
C3241 C 0.25063 0.73258 0.8302 0.0
C3242 C 0.26482 0.69109 0.85205 0.0
C3243 C 0.26605 0.67496 0.90256 0.0
C3244 C 0.26374 0.68733 0.88607 0.0
C3245 C 0.24511 0.71466 0.83624 0.0
C3246 C 0.25297 0.70676 0.85359 0.0
H3247 H 0.26852 0.67738 0.95062 0.0
H3248 H 0.2712 0.69746 0.92304 0.0
H3249 H 0.27899 0.66916 0.86648 0.0
H3250 H 0.22255 0.69857 0.79666 0.0
H3251 H 0.22942 0.68921 0.82896 0.0
C3252 C 0.09462 0.50273 0.67461 0.0
C3253 C 0.09361 0.4842 0.68086 0.0
C3254 C 0.09005 0.50682 0.65602 0.0
C3255 C 0.06608 0.4878 0.61343 0.0
H3256 H 0.09747 0.5251 0.58823 0.0
C3257 C 0.05374 0.50099 0.53719 0.0
C3258 C 0.04204 0.51685 0.53734 0.0
C3259 C 0.06649 0.49834 0.55196 0.0
C3260 C 0.08883 0.51452 0.59511 0.0
H3261 H 0.08661 0.45539 0.67336 0.0
H3262 H 0.07881 0.46238 0.64041 0.0
H3263 H 0.1046 0.51668 0.62093 0.0
H3264 H 0.03669 0.54382 0.5508 0.0
H3265 H 0.05941 0.53936 0.57646 0.0
H3266 H 0.0504 0.48565 0.58756 0.0
C3267 C 0.08292 0.47383 0.64988 0.0
C3268 C 0.09267 0.50986 0.61382 0.0
C3269 C 0.08737 0.46978 0.66863 0.0
C3270 C 0.04555 0.53145 0.55051 0.0
C3271 C 0.05854 0.52892 0.56513 0.0
C3272 C 0.06248 0.49223 0.59469 0.0
C3273 C 0.08464 0.49236 0.64332 0.0
C3274 C 0.08115 0.49664 0.62324 0.0
C3275 C 0.06785 0.51171 0.56669 0.0
C3276 C 0.07373 0.50568 0.5855 0.0
H3277 H 0.09937 0.514 0.68404 0.0
H3278 H 0.09098 0.52128 0.65156 0.0
H3279 H 0.05672 0.47787 0.62038 0.0
H3280 H 0.05114 0.48945 0.52733 0.0
H3281 H 0.07357 0.48495 0.55304 0.0
C3282 C 0.23155 0.36827 0.42206 0.0
C3283 C 0.23147 0.35851 0.43919 0.0
C3284 C 0.23141 0.35848 0.40476 0.0
C3285 C 0.23854 0.31093 0.38346 0.0
H3286 H 0.20473 0.32865 0.34432 0.0
C3287 C 0.21205 0.26209 0.32474 0.0
C3288 C 0.21716 0.26759 0.3064 0.0
C3289 C 0.21292 0.27495 0.33979 0.0
C3290 C 0.2143 0.32367 0.35511 0.0
H3291 H 0.23167 0.33087 0.45163 0.0
H3292 H 0.23086 0.31383 0.4216 0.0
H3293 H 0.2099 0.34776 0.37302 0.0
H3294 H 0.22526 0.29137 0.28916 0.0
H3295 H 0.22641 0.31397 0.31565 0.0
H3296 H 0.24229 0.28652 0.36586 0.0
C3297 C 0.23144 0.32903 0.42142 0.0
C3298 C 0.21739 0.33462 0.37147 0.0
C3299 C 0.23178 0.3388 0.43868 0.0
C3300 C 0.22136 0.28666 0.30315 0.0
C3301 C 0.22205 0.2996 0.31826 0.0
C3302 C 0.23523 0.29992 0.36729 0.0
C3303 C 0.23103 0.33874 0.40424 0.0
C3304 C 0.22927 0.32818 0.38601 0.0
C3305 C 0.21866 0.29359 0.33677 0.0
C3306 C 0.22281 0.30603 0.35318 0.0
H3307 H 0.23155 0.38348 0.42199 0.0
H3308 H 0.23147 0.36639 0.3918 0.0
H3309 H 0.24818 0.30578 0.3941 0.0
H3310 H 0.20852 0.24758 0.32771 0.0
H3311 H 0.20991 0.27013 0.35396 0.0
C3312 C 0.2953 0.42623 0.49404 0.0
C3313 C 0.28738 0.40907 0.4999 0.0
C3314 C 0.31487 0.42962 0.49563 0.0
C3315 C 0.36135 0.40681 0.50025 0.0
H3316 H 0.37647 0.45467 0.52284 0.0
C3317 C 0.42949 0.4544 0.52895 0.0
C3318 C 0.44017 0.4556 0.51226 0.0
C3319 C 0.41303 0.44333 0.52939 0.0
C3320 C 0.3725 0.44111 0.51676 0.0
H3321 H 0.29387 0.38193 0.51178 0.0
H3322 H 0.32798 0.38798 0.5146 0.0
H3323 H 0.34289 0.44739 0.51849 0.0
H3324 H 0.4436 0.44454 0.48375 0.0
H3325 H 0.41448 0.42538 0.48436 0.0
H3326 H 0.39123 0.40081 0.49824 0.0
C3327 C 0.31905 0.39869 0.50866 0.0
C3328 C 0.35327 0.43708 0.51401 0.0
C3329 C 0.29949 0.39533 0.50718 0.0
C3330 C 0.43562 0.44367 0.49684 0.0
C3331 C 0.4189 0.43278 0.49717 0.0
C3332 C 0.38074 0.41096 0.50281 0.0
C3333 C 0.32691 0.41591 0.50303 0.0
C3334 C 0.34747 0.41995 0.5057 0.0
C3335 C 0.4068 0.43364 0.51301 0.0
C3336 C 0.38647 0.42813 0.51121 0.0
H3337 H 0.28642 0.43705 0.48823 0.0
H3338 H 0.32061 0.44297 0.49102 0.0
H3339 H 0.35721 0.39352 0.4937 0.0
H3340 H 0.4328 0.46349 0.54099 0.0
H3341 H 0.40416 0.44385 0.54194 0.0
C3342 C 0.78952 0.05811 0.5169 0.0
C3343 C 0.78675 0.07086 0.50222 0.0
C3344 C 0.8075 0.05062 0.5201 0.0
C3345 C 0.85848 0.05583 0.50638 0.0
H3346 H 0.85897 0.00153 0.51067 0.0
C3347 C 0.91404 0.01109 0.47126 0.0
C3348 C 0.92733 0.00364 0.48388 0.0
C3349 C 0.89659 0.01751 0.47788 0.0
C3350 C 0.859 0.01671 0.50983 0.0
H3351 H 0.80059 0.08617 0.4797 0.0
H3352 H 0.83165 0.07258 0.48467 0.0
H3353 H 0.82919 0.01843 0.51547 0.0
H3354 H 0.9318 -0.00478 0.51272 0.0
H3355 H 0.90094 0.00613 0.52432 0.0
H3356 H 0.88802 0.0538 0.49928 0.0
C3357 C 0.82018 0.0687 0.49413 0.0
C3358 C 0.84205 0.02643 0.51266 0.0
C3359 C 0.80231 0.07634 0.49109 0.0
C3360 C 0.92191 0.00089 0.50278 0.0
C3361 C 0.90434 0.00721 0.50942 0.0
C3362 C 0.8753 0.04609 0.50333 0.0
C3363 C 0.82295 0.05561 0.50853 0.0
C3364 C 0.84146 0.04599 0.51007 0.0
C3365 C 0.89204 0.01632 0.49712 0.0
C3366 C 0.87543 0.02645 0.5043 0.0
H3367 H 0.77782 0.05394 0.52595 0.0
H3368 H 0.80925 0.04078 0.53148 0.0
H3369 H 0.8586 0.07094 0.50483 0.0
H3370 H 0.91761 0.01322 0.45653 0.0
H3371 H 0.88706 0.02434 0.46816 0.0
C3372 C 0.63881 0.06025 0.2444 0.0
C3373 C 0.62612 0.05524 0.22975 0.0
C3374 C 0.64693 0.07826 0.24519 0.0
C3375 C 0.63924 0.12618 0.22789 0.0
H3376 H 0.69324 0.13337 0.23716 0.0
C3377 C 0.69947 0.18289 0.20942 0.0
C3378 C 0.69952 0.19675 0.22378 0.0
C3379 C 0.68777 0.16708 0.21089 0.0
C3380 C 0.67809 0.13147 0.23475 0.0
H3381 H 0.61275 0.06468 0.20396 0.0
H3382 H 0.62719 0.09583 0.20515 0.0
H3383 H 0.67921 0.10184 0.23912 0.0
H3384 H 0.68615 0.20589 0.25004 0.0
H3385 H 0.66546 0.17807 0.25242 0.0
H3386 H 0.6384 0.15586 0.22304 0.0
C3387 C 0.63038 0.08614 0.21634 0.0
C3388 C 0.67007 0.11353 0.23595 0.0
C3389 C 0.62221 0.06826 0.21561 0.0
C3390 C 0.68635 0.19543 0.23872 0.0
C3391 C 0.6746 0.17955 0.24017 0.0
C3392 C 0.64726 0.14415 0.22683 0.0
C3393 C 0.64252 0.09144 0.2313 0.0
C3394 C 0.65066 0.11066 0.23208 0.0
C3395 C 0.67589 0.16501 0.22664 0.0
C3396 C 0.66678 0.14675 0.22987 0.0
H3397 H 0.64203 0.05046 0.25549 0.0
H3398 H 0.65629 0.08201 0.25687 0.0
H3399 H 0.62416 0.12435 0.22511 0.0
H3400 H 0.70935 0.18368 0.19767 0.0
H3401 H 0.68874 0.15598 0.20026 0.0
C3402 C 0.65923 0.88303 0.00825 0.0
C3403 C 0.67398 0.89655 0.00878 0.0
C3404 C 0.64052 0.88812 0.01229 0.0
C3405 C 0.61114 0.92756 0.03119 0.0
H3406 H 0.57546 0.91053 -0.00743 0.0
C3407 C 0.56218 0.97371 -0.00862 0.0
C3408 C 0.54468 0.96697 0.9846 0.0
C3409 C 0.5731 0.96266 0.00315 0.0
C3410 C 0.58495 0.915 0.00391 0.0
H3411 H 0.68081 0.92589 0.01431 0.0
H3412 H 0.6481 0.93496 0.02067 0.0
H3413 H 0.60566 0.89478 -0.00426 0.0
H3414 H 0.52406 0.94419 0.98526 0.0
H3415 H 0.5437 0.92424 0.00534 0.0
H3416 H 0.59098 0.94901 0.03799 0.0
C3417 C 0.651 0.92031 0.01766 0.0
C3418 C 0.60236 0.906 0.0057 0.0
C3419 C 0.66973 0.91519 0.01375 0.0
C3420 C 0.53758 0.94955 -0.00946 0.0
C3421 C 0.54872 0.93824 0.002 0.0
C3422 C 0.59378 0.93668 0.02927 0.0
C3423 C 0.63615 0.90687 0.01681 0.0
C3424 C 0.61609 0.91293 0.01858 0.0
C3425 C 0.56689 0.94448 0.00783 0.0
C3426 C 0.58108 0.93116 0.01484 0.0
H3427 H 0.6621 0.86848 0.00466 0.0
H3428 H 0.62946 0.87741 0.01163 0.0
H3429 H 0.62122 0.93283 0.04165 0.0
H3430 H 0.56777 0.98717 0.9869 0.0
H3431 H 0.58714 0.96773 0.00723 0.0
C3432 C 0.35653 0.41259 0.23363 0.0
C3433 C 0.34763 0.42988 0.23725 0.0
C3434 C 0.34806 0.39579 0.23926 0.0
C3435 C 0.31028 0.37613 0.27037 0.0
H3436 H 0.31226 0.33427 0.23467 0.0
C3437 C 0.25296 0.32025 0.25858 0.0
C3438 C 0.25818 0.30277 0.25093 0.0
C3439 C 0.26692 0.33314 0.26448 0.0
C3440 C 0.31199 0.34559 0.24511 0.0
H3441 H 0.32266 0.443 0.24946 0.0
H3442 H 0.30747 0.41351 0.25869 0.0
H3443 H 0.32997 0.36278 0.22816 0.0
H3444 H 0.28148 0.28416 0.24501 0.0
H3445 H 0.30614 0.30665 0.25539 0.0
H3446 H 0.29115 0.35909 0.28665 0.0
C3447 C 0.32131 0.41303 0.25195 0.0
C3448 C 0.3221 0.36205 0.24131 0.0
C3449 C 0.32989 0.42993 0.24645 0.0
C3450 C 0.27728 0.29744 0.25129 0.0
C3451 C 0.29132 0.3104 0.25699 0.0
C3452 C 0.29998 0.35965 0.27409 0.0
C3453 C 0.33034 0.39576 0.24847 0.0
C3454 C 0.32101 0.3777 0.25364 0.0
C3455 C 0.28628 0.32881 0.26238 0.0
C3456 C 0.30037 0.34439 0.26123 0.0
H3457 H 0.37027 0.41198 0.22672 0.0
H3458 H 0.35556 0.38281 0.23655 0.0
H3459 H 0.30946 0.38779 0.28037 0.0
H3460 H 0.23823 0.32461 0.25829 0.0
H3461 H 0.26256 0.34719 0.26855 0.0
C3462 C 0.16958 0.61904 0.9876 0.0
C3463 C 0.18224 0.60668 0.97848 0.0
C3464 C 0.15154 0.6127 -0.0068 0.0
C3465 C 0.12841 0.5685 0.00617 0.0
H3466 H 0.08063 0.59465 0.00103 0.0
C3467 C 0.04719 0.54475 -0.00052 0.0
C3468 C 0.04814 0.52969 0.01199 0.0
C3469 C 0.06122 0.55883 -1e-05 0.0
C3470 C 0.09389 0.58725 0.00267 0.0
H3471 H 0.18547 0.57864 0.9666 0.0
H3472 H 0.15396 0.56774 0.97594 0.0
H3473 H 0.11027 0.60955 -0.00971 0.0
H3474 H 0.0625 0.5188 0.03651 0.0
H3475 H 0.08633 0.54391 0.03814 0.0
H3476 H 0.1124 0.54584 0.01748 0.0
C3477 C 0.15812 0.58211 0.97931 0.0
C3478 C 0.11083 0.5958 -0.0034 0.0
C3479 C 0.1761 0.58838 0.97383 0.0
C3480 C 0.06171 0.53016 0.02653 0.0
C3481 C 0.07541 0.54446 0.02735 0.0
C3482 C 0.11162 0.55998 0.01216 0.0
C3483 C 0.14595 0.59397 -0.01032 0.0
C3484 C 0.12814 0.58619 -0.00225 0.0
C3485 C 0.07617 0.55815 0.01323 0.0
C3486 C 0.09405 0.569 0.01006 0.0
H3487 H 0.17395 0.63326 -0.00866 0.0
H3488 H 0.14241 0.62214 0.00111 0.0
H3489 H 0.14162 0.56094 0.00767 0.0
H3490 H 0.03682 0.54464 0.98814 0.0
H3491 H 0.0613 0.56915 0.98891 0.0
C3492 C 0.64092 0.92896 0.26007 0.0
C3493 C 0.64857 0.94614 0.254 0.0
C3494 C 0.65222 0.913 0.2605 0.0
C3495 C 0.69238 0.89186 0.23644 0.0
H3496 H 0.6886 0.85561 0.27666 0.0
C3497 C 0.72576 0.81541 0.24996 0.0
C3498 C 0.71057 0.80255 0.24782 0.0
C3499 C 0.72243 0.83474 0.24881 0.0
C3500 C 0.69001 0.86578 0.26548 0.0
H3501 H 0.67427 0.96029 0.24445 0.0
H3502 H 0.694 0.93221 0.24508 0.0
H3503 H 0.67443 0.88658 0.28096 0.0
H3504 H 0.68067 0.79934 0.24079 0.0
H3505 H 0.67499 0.83299 0.23852 0.0
H3506 H 0.70713 0.87041 0.22063 0.0
C3507 C 0.67924 0.93118 0.24942 0.0
C3508 C 0.68183 0.88338 0.26787 0.0
C3509 C 0.66798 0.94724 0.24921 0.0
C3510 C 0.6925 0.80906 0.24284 0.0
C3511 C 0.68928 0.82822 0.24139 0.0
C3512 C 0.7005 0.87411 0.234 0.0
C3513 C 0.67135 0.91386 0.25473 0.0
C3514 C 0.68251 0.89641 0.25322 0.0
C3515 C 0.70401 0.84117 0.2451 0.0
C3516 C 0.69898 0.8609 0.24841 0.0
H3517 H 0.62601 0.92768 0.26383 0.0
H3518 H 0.64573 0.89977 0.26452 0.0
H3519 H 0.6929 0.90162 0.22484 0.0
H3520 H 0.73981 0.81062 0.25375 0.0
H3521 H 0.73389 0.84464 0.25187 0.0
C3522 C 0.81944 0.05201 0.73508 0.0
C3523 C 0.83694 0.04848 0.74387 0.0
C3524 C 0.81302 0.07043 0.73342 0.0
C3525 C 0.81805 0.11795 0.75368 0.0
H3526 H 0.79612 0.13298 0.70595 0.0
C3527 C 0.78269 0.18861 0.75003 0.0
C3528 C 0.76397 0.18697 0.74338 0.0
C3529 C 0.79592 0.17473 0.74555 0.0
C3530 C 0.80228 0.12902 0.71934 0.0
H3531 H 0.861 0.06135 0.75856 0.0
H3532 H 0.84963 0.09342 0.75591 0.0
H3533 H 0.80955 0.10163 0.70881 0.0
H3534 H 0.74446 0.17058 0.72599 0.0
H3535 H 0.76731 0.14616 0.71831 0.0
H3536 H 0.81009 0.14483 0.76456 0.0
C3537 C 0.84096 0.082 0.75018 0.0
C3538 C 0.80986 0.11105 0.721 0.0
C3539 C 0.84744 0.06362 0.75173 0.0
C3540 C 0.75899 0.1722 0.73095 0.0
C3541 C 0.77213 0.15824 0.72657 0.0
C3542 C 0.81039 0.13584 0.75206 0.0
C3543 C 0.82389 0.08562 0.74065 0.0
C3544 C 0.81737 0.10518 0.73834 0.0
C3545 C 0.7904 0.15879 0.73476 0.0
C3546 C 0.80194 0.14142 0.73503 0.0
H3547 H 0.81106 0.04065 0.72884 0.0
H3548 H 0.7996 0.07279 0.72634 0.0
H3549 H 0.82367 0.1138 0.76724 0.0
H3550 H 0.78661 0.19972 0.76 0.0
H3551 H 0.81 0.17575 0.75177 0.0
loop_
_geom_bond_atom_site_label_1
_geom_bond_atom_site_label_2
_geom_bond_distance
_geom_bond_site_symmetry_2
_ccdc_geom_bond_type
C0 O1 1.306 . S
C0 O3 1.160 . S
O1 C0 1.306 . S
O1 Cd2 2.228 1_655 S
Cd2 O1 2.228 1_455 S
Cd2 O6 2.273 . S
Cd2 O10 2.277 . S
O3 C0 1.160 . S
O3 Cd4 2.203 1_655 S
Cd4 O3 2.203 1_455 S
Cd4 O6 2.411 . S
Cd4 O7 2.333 . S
Cd4 O8 2.352 . S
Cd4 O12 2.277 . S
Cd4 O13 2.356 . S
C5 O10 1.209 . S
C5 O12 1.226 . S
O6 Cd2 2.273 . S
O6 Cd4 2.411 . S
O6 C9 1.320 . S
O7 Cd4 2.333 . S
O7 C9 1.214 . S
O8 Cd4 2.352 . S
O8 C11 1.258 . S
C9 O6 1.320 . S
C9 O7 1.214 . S
O10 Cd2 2.277 . S
O10 C5 1.209 . S
C11 O8 1.258 . S
C11 O13 1.282 . S
O12 Cd4 2.277 . S
O12 C5 1.226 . S
O13 Cd4 2.356 . S
O13 C11 1.282 . S
C14 O15 1.306 . S
C14 O17 1.160 . S
O15 C14 1.306 . S
O15 Cd16 2.228 1_655 S
Cd16 O15 2.228 1_455 S
Cd16 O20 2.273 . S
Cd16 O24 2.277 . S
O17 C14 1.160 . S
O17 Cd18 2.203 1_655 S
Cd18 O17 2.203 1_455 S
Cd18 O20 2.411 . S
Cd18 O21 2.333 . S
Cd18 O22 2.352 . S
Cd18 O26 2.277 . S
Cd18 O27 2.356 . S
C19 O24 1.209 . S
C19 O26 1.226 . S
O20 Cd16 2.273 . S
O20 Cd18 2.411 . S
O20 C23 1.320 . S
O21 Cd18 2.333 . S
O21 C23 1.214 . S
O22 Cd18 2.352 . S
O22 C25 1.258 . S
C23 O20 1.320 . S
C23 O21 1.214 . S
O24 Cd16 2.277 . S
O24 C19 1.209 . S
C25 O22 1.258 . S
C25 O27 1.282 . S
O26 Cd18 2.277 . S
O26 C19 1.226 . S
O27 Cd18 2.356 . S
O27 C25 1.282 . S
C28 O29 1.306 . S
C28 O31 1.160 . S
O29 C28 1.306 . S
O29 Cd30 2.228 . S
Cd30 O29 2.228 . S
Cd30 O34 2.273 . S
Cd30 O38 2.277 . S
O31 C28 1.160 . S
O31 Cd32 2.203 . S
Cd32 O31 2.203 . S
Cd32 O34 2.411 . S
Cd32 O35 2.333 . S
Cd32 O36 2.352 . S
Cd32 O40 2.277 . S
Cd32 O41 2.356 . S
C33 O38 1.209 . S
C33 O40 1.226 . S
O34 Cd30 2.273 . S
O34 Cd32 2.411 . S
O34 C37 1.320 . S
O35 Cd32 2.333 . S
O35 C37 1.214 . S
O36 Cd32 2.352 . S
O36 C39 1.258 . S
C37 O34 1.320 . S
C37 O35 1.214 . S
O38 Cd30 2.277 . S
O38 C33 1.209 . S
C39 O36 1.258 . S
C39 O41 1.282 . S
O40 Cd32 2.277 . S
O40 C33 1.226 . S
O41 Cd32 2.356 . S
O41 C39 1.282 . S
C42 O43 1.306 . S
C42 O45 1.160 . S
O43 C42 1.306 . S
O43 Cd44 2.228 . S
Cd44 O43 2.228 . S
Cd44 O48 2.273 . S
Cd44 O52 2.277 . S
O45 C42 1.160 . S
O45 Cd46 2.203 . S
Cd46 O45 2.203 . S
Cd46 O48 2.411 . S
Cd46 O49 2.333 . S
Cd46 O50 2.352 . S
Cd46 O54 2.277 . S
Cd46 O55 2.356 . S
C47 O52 1.209 . S
C47 O54 1.226 . S
O48 Cd44 2.273 . S
O48 Cd46 2.411 . S
O48 C51 1.320 . S
O49 Cd46 2.333 . S
O49 C51 1.214 . S
O50 Cd46 2.352 . S
O50 C53 1.258 . S
C51 O48 1.320 . S
C51 O49 1.214 . S
O52 Cd44 2.277 . S
O52 C47 1.209 . S
C53 O50 1.258 . S
C53 O55 1.282 . S
O54 Cd46 2.277 . S
O54 C47 1.226 . S
O55 Cd46 2.356 . S
O55 C53 1.282 . S
C56 O57 1.306 . S
C56 O59 1.172 . S
O57 C56 1.306 . S
O57 Cd58 2.228 . S
Cd58 O57 2.228 . S
Cd58 O62 2.273 . S
Cd58 O66 2.277 . S
O59 C56 1.172 . S
O59 Cd60 2.203 1_545 S
Cd60 O59 2.203 1_565 S
Cd60 O62 2.407 1_565 S
Cd60 O63 2.333 . S
Cd60 O64 2.382 . S
Cd60 O68 2.253 1_565 S
Cd60 O69 2.376 . S
C61 O66 1.209 . S
C61 O68 1.226 . S
O62 Cd58 2.273 . S
O62 Cd60 2.407 1_545 S
O62 C65 1.320 . S
O63 Cd60 2.333 . S
O63 C65 1.207 1_565 S
O64 Cd60 2.382 . S
O64 C67 1.258 . S
C65 O62 1.320 . S
C65 O63 1.207 1_545 S
O66 Cd58 2.277 . S
O66 C61 1.209 . S
C67 O64 1.258 . S
C67 O69 1.282 . S
O68 Cd60 2.253 1_545 S
O68 C61 1.226 . S
O69 Cd60 2.376 . S
O69 C67 1.282 . S
C70 O71 1.306 . S
C70 O73 1.160 . S
O71 C70 1.306 . S
O71 Cd72 2.228 . S
Cd72 O71 2.228 . S
Cd72 O76 2.273 . S
Cd72 O80 2.277 . S
O73 C70 1.160 . S
O73 Cd74 2.203 . S
Cd74 O73 2.203 . S
Cd74 O76 2.411 . S
Cd74 O77 2.333 . S
Cd74 O78 2.352 . S
Cd74 O82 2.277 . S
Cd74 O83 2.356 . S
C75 O80 1.209 . S
C75 O82 1.226 . S
O76 Cd72 2.273 . S
O76 Cd74 2.411 . S
O76 C79 1.320 . S
O77 Cd74 2.333 . S
O77 C79 1.214 . S
O78 Cd74 2.352 . S
O78 C81 1.258 . S
C79 O76 1.320 . S
C79 O77 1.214 . S
O80 Cd72 2.277 . S
O80 C75 1.209 . S
C81 O78 1.258 . S
C81 O83 1.282 . S
O82 Cd74 2.277 . S
O82 C75 1.226 . S
O83 Cd74 2.356 . S
O83 C81 1.282 . S
C84 O85 1.306 1_545 S
C84 O87 1.160 . S
O85 C84 1.306 1_565 S
O85 Cd86 2.228 . S
Cd86 O85 2.228 . S
Cd86 O90 2.273 1_565 S
Cd86 O94 2.277 . S
O87 C84 1.160 . S
O87 Cd88 2.203 . S
Cd88 O87 2.203 . S
Cd88 O90 2.411 . S
Cd88 O91 2.333 . S
Cd88 O92 2.352 . S
Cd88 O96 2.277 1_545 S
Cd88 O97 2.356 . S
C89 O94 1.209 . S
C89 O96 1.226 . S
O90 Cd86 2.273 1_545 S
O90 Cd88 2.411 . S
O90 C93 1.320 . S
O91 Cd88 2.333 . S
O91 C93 1.214 . S
O92 Cd88 2.352 . S
O92 C95 1.258 . S
C93 O90 1.320 . S
C93 O91 1.214 . S
O94 Cd86 2.277 . S
O94 C89 1.209 . S
C95 O92 1.258 . S
C95 O97 1.282 . S
O96 Cd88 2.277 1_565 S
O96 C89 1.226 . S
O97 Cd88 2.356 . S
O97 C95 1.282 . S
C98 O99 1.306 . S
C98 O101 1.160 . S
O99 C98 1.306 . S
O99 Cd100 2.228 . S
Cd100 O99 2.228 . S
Cd100 O104 2.273 . S
Cd100 O108 2.277 . S
O101 C98 1.160 . S
O101 Cd102 2.206 . S
Cd102 O101 2.206 . S
Cd102 O104 2.420 . S
Cd102 O105 2.334 . S
Cd102 O106 2.290 1_554 S
Cd102 O110 2.325 . S
Cd102 O111 2.316 1_554 S
C103 O108 1.209 . S
C103 O110 1.226 . S
O104 Cd100 2.273 . S
O104 Cd102 2.420 . S
O104 C107 1.320 . S
O105 Cd102 2.334 . S
O105 C107 1.214 . S
O106 Cd102 2.290 1_556 S
O106 C109 1.258 . S
C107 O104 1.320 . S
C107 O105 1.214 . S
O108 Cd100 2.277 . S
O108 C103 1.209 . S
C109 O106 1.258 . S
C109 O111 1.282 . S
O110 Cd102 2.325 . S
O110 C103 1.226 . S
O111 Cd102 2.316 1_556 S
O111 C109 1.282 . S
C112 O113 1.306 1_554 S
C112 O115 1.160 . S
O113 C112 1.306 1_556 S
O113 Cd114 2.228 . S
Cd114 O113 2.228 . S
Cd114 O118 2.273 1_556 S
Cd114 O122 2.277 . S
O115 C112 1.160 . S
O115 Cd116 2.203 . S
Cd116 O115 2.203 . S
Cd116 O118 2.411 . S
Cd116 O119 2.333 . S
Cd116 O120 2.352 . S
Cd116 O124 2.277 1_554 S
Cd116 O125 2.356 . S
C117 O122 1.209 . S
C117 O124 1.226 . S
O118 Cd114 2.273 1_554 S
O118 Cd116 2.411 . S
O118 C121 1.320 . S
O119 Cd116 2.333 . S
O119 C121 1.214 . S
O120 Cd116 2.352 . S
O120 C123 1.258 . S
C121 O118 1.320 . S
C121 O119 1.214 . S
O122 Cd114 2.277 . S
O122 C117 1.209 . S
C123 O120 1.258 . S
C123 O125 1.282 . S
O124 Cd116 2.277 1_556 S
O124 C117 1.226 . S
O125 Cd116 2.356 . S
O125 C123 1.282 . S
C126 O127 1.306 . S
C126 O129 1.160 . S
O127 C126 1.306 . S
O127 Cd128 2.228 . S
Cd128 O127 2.228 . S
Cd128 O132 2.273 . S
Cd128 O136 2.277 . S
O129 C126 1.160 . S
O129 Cd130 2.203 . S
Cd130 O129 2.203 . S
Cd130 O132 2.411 . S
Cd130 O133 2.333 . S
Cd130 O134 2.352 . S
Cd130 O138 2.277 . S
Cd130 O139 2.356 . S
C131 O136 1.209 . S
C131 O138 1.226 . S
O132 Cd128 2.273 . S
O132 Cd130 2.411 . S
O132 C135 1.320 . S
O133 Cd130 2.333 . S
O133 C135 1.214 . S
O134 Cd130 2.352 . S
O134 C137 1.258 . S
C135 O132 1.320 . S
C135 O133 1.214 . S
O136 Cd128 2.277 . S
O136 C131 1.209 . S
C137 O134 1.258 . S
C137 O139 1.282 . S
O138 Cd130 2.277 . S
O138 C131 1.226 . S
O139 Cd130 2.356 . S
O139 C137 1.282 . S
C140 O141 1.306 . S
C140 O143 1.160 . S
O141 C140 1.306 . S
O141 Cd142 2.228 . S
Cd142 O141 2.228 . S
Cd142 O146 2.273 . S
Cd142 O150 2.277 . S
O143 C140 1.160 . S
O143 Cd144 2.203 . S
Cd144 O143 2.203 . S
Cd144 O146 2.411 . S
Cd144 O147 2.333 . S
Cd144 O148 2.352 . S
Cd144 O152 2.277 . S
Cd144 O153 2.356 . S
C145 O150 1.209 . S
C145 O152 1.226 . S
O146 Cd142 2.273 . S
O146 Cd144 2.411 . S
O146 C149 1.320 . S
O147 Cd144 2.333 . S
O147 C149 1.214 . S
O148 Cd144 2.352 . S
O148 C151 1.258 . S
C149 O146 1.320 . S
C149 O147 1.214 . S
O150 Cd142 2.277 . S
O150 C145 1.209 . S
C151 O148 1.258 . S
C151 O153 1.282 . S
O152 Cd144 2.277 . S
O152 C145 1.226 . S
O153 Cd144 2.356 . S
O153 C151 1.282 . S
C154 O155 1.306 . S
C154 O157 1.160 . S
O155 C154 1.306 . S
O155 Cd156 2.228 . S
Cd156 O155 2.228 . S
Cd156 O160 2.273 . S
Cd156 O164 2.277 . S
O157 C154 1.160 . S
O157 Cd158 2.203 . S
Cd158 O157 2.203 . S
Cd158 O160 2.411 . S
Cd158 O161 2.333 . S
Cd158 O162 2.352 . S
Cd158 O166 2.277 . S
Cd158 O167 2.356 . S
C159 O164 1.209 . S
C159 O166 1.226 . S
O160 Cd156 2.273 . S
O160 Cd158 2.411 . S
O160 C163 1.320 . S
O161 Cd158 2.333 . S
O161 C163 1.214 . S
O162 Cd158 2.352 . S
O162 C165 1.258 . S
C163 O160 1.320 . S
C163 O161 1.214 . S
O164 Cd156 2.277 . S
O164 C159 1.209 . S
C165 O162 1.258 . S
C165 O167 1.282 . S
O166 Cd158 2.277 . S
O166 C159 1.226 . S
O167 Cd158 2.356 . S
O167 C165 1.282 . S
C168 O169 1.306 . S
C168 O171 1.160 . S
O169 C168 1.306 . S
O169 Cd170 2.228 1_655 S
Cd170 O169 2.228 1_455 S
Cd170 O174 2.273 . S
Cd170 O178 2.277 . S
O171 C168 1.160 . S
O171 Cd172 2.203 1_655 S
Cd172 O171 2.203 1_455 S
Cd172 O174 2.411 . S
Cd172 O175 2.333 . S
Cd172 O176 2.352 . S
Cd172 O180 2.277 . S
Cd172 O181 2.356 . S
C173 O178 1.209 . S
C173 O180 1.226 . S
O174 Cd170 2.273 . S
O174 Cd172 2.411 . S
O174 C177 1.320 . S
O175 Cd172 2.333 . S
O175 C177 1.214 . S
O176 Cd172 2.352 . S
O176 C179 1.258 . S
C177 O174 1.320 . S
C177 O175 1.214 . S
O178 Cd170 2.277 . S
O178 C173 1.209 . S
C179 O176 1.258 . S
C179 O181 1.282 . S
O180 Cd172 2.277 . S
O180 C173 1.226 . S
O181 Cd172 2.356 . S
O181 C179 1.282 . S
C182 O183 1.306 . S
C182 O185 1.160 . S
O183 C182 1.306 . S
O183 Cd184 2.228 1_655 S
Cd184 O183 2.228 1_455 S
Cd184 O188 2.273 . S
Cd184 O192 2.277 . S
O185 C182 1.160 . S
O185 Cd186 2.203 1_655 S
Cd186 O185 2.203 1_455 S
Cd186 O188 2.411 . S
Cd186 O189 2.333 . S
Cd186 O190 2.352 . S
Cd186 O194 2.277 . S
Cd186 O195 2.356 . S
C187 O192 1.209 . S
C187 O194 1.226 . S
O188 Cd184 2.273 . S
O188 Cd186 2.411 . S
O188 C191 1.320 . S
O189 Cd186 2.333 . S
O189 C191 1.214 . S
O190 Cd186 2.352 . S
O190 C193 1.258 . S
C191 O188 1.320 . S
C191 O189 1.214 . S
O192 Cd184 2.277 . S
O192 C187 1.209 . S
C193 O190 1.258 . S
C193 O195 1.282 . S
O194 Cd186 2.277 . S
O194 C187 1.226 . S
O195 Cd186 2.356 . S
O195 C193 1.282 . S
C196 O197 1.306 . S
C196 O199 1.160 . S
O197 C196 1.306 . S
O197 Cd198 2.228 . S
Cd198 O197 2.228 . S
Cd198 O202 2.273 . S
Cd198 O206 2.277 . S
O199 C196 1.160 . S
O199 Cd200 2.203 . S
Cd200 O199 2.203 . S
Cd200 O202 2.411 . S
Cd200 O203 2.333 . S
Cd200 O204 2.352 . S
Cd200 O208 2.277 . S
Cd200 O209 2.356 . S
C201 O206 1.209 . S
C201 O208 1.226 . S
O202 Cd198 2.273 . S
O202 Cd200 2.411 . S
O202 C205 1.320 . S
O203 Cd200 2.333 . S
O203 C205 1.214 . S
O204 Cd200 2.352 . S
O204 C207 1.258 . S
C205 O202 1.320 . S
C205 O203 1.214 . S
O206 Cd198 2.277 . S
O206 C201 1.209 . S
C207 O204 1.258 . S
C207 O209 1.282 . S
O208 Cd200 2.277 . S
O208 C201 1.226 . S
O209 Cd200 2.356 . S
O209 C207 1.282 . S
C210 O211 1.306 . S
C210 O213 1.160 . S
O211 C210 1.306 . S
O211 Cd212 2.228 . S
Cd212 O211 2.228 . S
Cd212 O216 2.273 . S
Cd212 O220 2.277 . S
O213 C210 1.160 . S
O213 Cd214 2.203 . S
Cd214 O213 2.203 . S
Cd214 O216 2.411 . S
Cd214 O217 2.333 . S
Cd214 O218 2.352 . S
Cd214 O222 2.277 . S
Cd214 O223 2.356 . S
C215 O220 1.209 . S
C215 O222 1.226 . S
O216 Cd212 2.273 . S
O216 Cd214 2.411 . S
O216 C219 1.320 . S
O217 Cd214 2.333 . S
O217 C219 1.214 . S
O218 Cd214 2.352 . S
O218 C221 1.258 . S
C219 O216 1.320 . S
C219 O217 1.214 . S
O220 Cd212 2.277 . S
O220 C215 1.209 . S
C221 O218 1.258 . S
C221 O223 1.282 . S
O222 Cd214 2.277 . S
O222 C215 1.226 . S
O223 Cd214 2.356 . S
O223 C221 1.282 . S
C224 O225 1.315 . S
C224 O227 1.154 1_565 S
O225 C224 1.315 . S
O225 Cd226 2.228 . S
Cd226 O225 2.228 . S
Cd226 O230 2.234 1_565 S
Cd226 O234 2.277 . S
O227 C224 1.154 1_545 S
O227 Cd228 2.203 . S
Cd228 O227 2.203 . S
Cd228 O230 2.417 . S
Cd228 O231 2.333 . S
Cd228 O232 2.352 . S
Cd228 O236 2.277 1_545 S
Cd228 O237 2.356 . S
C229 O234 1.209 . S
C229 O236 1.226 . S
O230 Cd226 2.234 1_545 S
O230 Cd228 2.417 . S
O230 C233 1.325 . S
O231 Cd228 2.333 . S
O231 C233 1.214 . S
O232 Cd228 2.352 . S
O232 C235 1.258 . S
C233 O230 1.325 . S
C233 O231 1.214 . S
O234 Cd226 2.277 . S
O234 C229 1.209 . S
C235 O232 1.258 . S
C235 O237 1.282 . S
O236 Cd228 2.277 1_565 S
O236 C229 1.226 . S
O237 Cd228 2.356 . S
O237 C235 1.282 . S
C238 O239 1.306 . S
C238 O241 1.160 . S
O239 C238 1.306 . S
O239 Cd240 2.228 . S
Cd240 O239 2.228 . S
Cd240 O244 2.273 . S
Cd240 O248 2.277 . S
O241 C238 1.160 . S
O241 Cd242 2.203 . S
Cd242 O241 2.203 . S
Cd242 O244 2.411 . S
Cd242 O245 2.333 . S
Cd242 O246 2.352 . S
Cd242 O250 2.277 . S
Cd242 O251 2.356 . S
C243 O248 1.209 . S
C243 O250 1.226 . S
O244 Cd240 2.273 . S
O244 Cd242 2.411 . S
O244 C247 1.320 . S
O245 Cd242 2.333 . S
O245 C247 1.214 . S
O246 Cd242 2.352 . S
O246 C249 1.258 . S
C247 O244 1.320 . S
C247 O245 1.214 . S
O248 Cd240 2.277 . S
O248 C243 1.209 . S
C249 O246 1.258 . S
C249 O251 1.282 . S
O250 Cd242 2.277 . S
O250 C243 1.226 . S
O251 Cd242 2.356 . S
O251 C249 1.282 . S
C252 O253 1.306 . S
C252 O255 1.160 . S
O253 C252 1.306 . S
O253 Cd254 2.228 . S
Cd254 O253 2.228 . S
Cd254 O258 2.273 . S
Cd254 O262 2.277 . S
O255 C252 1.160 . S
O255 Cd256 2.204 . S
Cd256 O255 2.204 . S
Cd256 O258 2.415 . S
Cd256 O259 2.333 . S
Cd256 O260 2.326 1_545 S
Cd256 O264 2.297 . S
Cd256 O265 2.339 1_545 S
C257 O262 1.209 . S
C257 O264 1.226 . S
O258 Cd254 2.273 . S
O258 Cd256 2.415 . S
O258 C261 1.320 . S
O259 Cd256 2.333 . S
O259 C261 1.213 . S
O260 Cd256 2.326 1_565 S
O260 C263 1.258 . S
C261 O258 1.320 . S
C261 O259 1.213 . S
O262 Cd254 2.277 . S
O262 C257 1.209 . S
C263 O260 1.258 . S
C263 O265 1.282 . S
O264 Cd256 2.297 . S
O264 C257 1.226 . S
O265 Cd256 2.339 1_565 S
O265 C263 1.282 . S
C266 O267 1.306 1_554 S
C266 O269 1.160 . S
O267 C266 1.306 1_556 S
O267 Cd268 2.228 . S
Cd268 O267 2.228 . S
Cd268 O272 2.273 1_556 S
Cd268 O276 2.277 . S
O269 C266 1.160 . S
O269 Cd270 2.203 . S
Cd270 O269 2.203 . S
Cd270 O272 2.411 . S
Cd270 O273 2.333 . S
Cd270 O274 2.352 . S
Cd270 O278 2.277 1_554 S
Cd270 O279 2.356 . S
C271 O276 1.209 . S
C271 O278 1.226 . S
O272 Cd268 2.273 1_554 S
O272 Cd270 2.411 . S
O272 C275 1.320 . S
O273 Cd270 2.333 . S
O273 C275 1.214 . S
O274 Cd270 2.352 . S
O274 C277 1.258 . S
C275 O272 1.320 . S
C275 O273 1.214 . S
O276 Cd268 2.277 . S
O276 C271 1.209 . S
C277 O274 1.258 . S
C277 O279 1.282 . S
O278 Cd270 2.277 1_556 S
O278 C271 1.226 . S
O279 Cd270 2.356 . S
O279 C277 1.282 . S
C280 O281 1.306 . S
C280 O283 1.160 1_554 S
O281 C280 1.306 . S
O281 Cd282 2.228 . S
Cd282 O281 2.228 . S
Cd282 O286 2.273 . S
Cd282 O290 2.277 . S
O283 C280 1.160 1_556 S
O283 Cd284 2.203 . S
Cd284 O283 2.203 . S
Cd284 O286 2.411 1_556 S
Cd284 O287 2.333 . S
Cd284 O288 2.352 . S
Cd284 O292 2.277 1_556 S
Cd284 O293 2.356 . S
C285 O290 1.209 . S
C285 O292 1.226 . S
O286 Cd282 2.273 . S
O286 Cd284 2.411 1_554 S
O286 C289 1.319 1_554 S
O287 Cd284 2.333 . S
O287 C289 1.215 . S
O288 Cd284 2.352 . S
O288 C291 1.258 . S
C289 O286 1.319 1_556 S
C289 O287 1.215 . S
O290 Cd282 2.277 . S
O290 C285 1.209 . S
C291 O288 1.258 . S
C291 O293 1.282 . S
O292 Cd284 2.277 1_554 S
O292 C285 1.226 . S
O293 Cd284 2.356 . S
O293 C291 1.282 . S
C294 O295 1.306 . S
C294 O297 1.160 . S
O295 C294 1.306 . S
O295 Cd296 2.228 . S
Cd296 O295 2.228 . S
Cd296 O300 2.273 . S
Cd296 O304 2.277 . S
O297 C294 1.160 . S
O297 Cd298 2.203 . S
Cd298 O297 2.203 . S
Cd298 O300 2.411 . S
Cd298 O301 2.333 . S
Cd298 O302 2.352 . S
Cd298 O306 2.277 . S
Cd298 O307 2.356 . S
C299 O304 1.209 . S
C299 O306 1.226 . S
O300 Cd296 2.273 . S
O300 Cd298 2.411 . S
O300 C303 1.320 . S
O301 Cd298 2.333 . S
O301 C303 1.214 . S
O302 Cd298 2.352 . S
O302 C305 1.258 . S
C303 O300 1.320 . S
C303 O301 1.214 . S
O304 Cd296 2.277 . S
O304 C299 1.209 . S
C305 O302 1.258 . S
C305 O307 1.282 . S
O306 Cd298 2.277 . S
O306 C299 1.226 . S
O307 Cd298 2.356 . S
O307 C305 1.282 . S
C308 O309 1.306 . S
C308 O311 1.160 . S
O309 C308 1.306 . S
O309 Cd310 2.228 . S
Cd310 O309 2.228 . S
Cd310 O314 2.273 . S
Cd310 O318 2.277 . S
O311 C308 1.160 . S
O311 Cd312 2.203 . S
Cd312 O311 2.203 . S
Cd312 O314 2.411 . S
Cd312 O315 2.333 . S
Cd312 O316 2.352 . S
Cd312 O320 2.277 . S
Cd312 O321 2.356 . S
C313 O318 1.209 . S
C313 O320 1.226 . S
O314 Cd310 2.273 . S
O314 Cd312 2.411 . S
O314 C317 1.320 . S
O315 Cd312 2.333 . S
O315 C317 1.214 . S
O316 Cd312 2.352 . S
O316 C319 1.258 . S
C317 O314 1.320 . S
C317 O315 1.214 . S
O318 Cd310 2.277 . S
O318 C313 1.209 . S
C319 O316 1.258 . S
C319 O321 1.282 . S
O320 Cd312 2.277 . S
O320 C313 1.226 . S
O321 Cd312 2.356 . S
O321 C319 1.282 . S
C322 O323 1.306 . S
C322 O325 1.160 . S
O323 C322 1.306 . S
O323 Cd324 2.228 . S
Cd324 O323 2.228 . S
Cd324 O328 2.273 . S
Cd324 O332 2.277 . S
O325 C322 1.160 . S
O325 Cd326 2.203 . S
Cd326 O325 2.203 . S
Cd326 O328 2.411 . S
Cd326 O329 2.333 . S
Cd326 O330 2.352 . S
Cd326 O334 2.277 . S
Cd326 O335 2.356 . S
C327 O332 1.209 . S
C327 O334 1.226 . S
O328 Cd324 2.273 . S
O328 Cd326 2.411 . S
O328 C331 1.320 . S
O329 Cd326 2.333 . S
O329 C331 1.214 . S
O330 Cd326 2.352 . S
O330 C333 1.258 . S
C331 O328 1.320 . S
C331 O329 1.214 . S
O332 Cd324 2.277 . S
O332 C327 1.209 . S
C333 O330 1.258 . S
C333 O335 1.282 . S
O334 Cd326 2.277 . S
O334 C327 1.226 . S
O335 Cd326 2.356 . S
O335 C333 1.282 . S
O336 Mg337 1.990 . S
O336 C350 1.253 . S
Mg337 O336 1.990 . S
Mg337 O340 2.180 1_556 S
Mg337 O341 2.117 1_556 S
Mg337 O355 2.030 1_556 S
O338 Mg339 2.072 1_656 S
O338 C350 1.260 . S
Mg339 O338 2.072 1_454 S
Mg339 O340 2.099 1_455 S
Mg339 O342 2.079 1_545 S
Mg339 O343 2.072 . S
Mg339 O345 2.099 1_545 S
Mg339 O356 2.079 1_445 S
O340 Mg337 2.180 1_554 S
O340 Mg339 2.099 1_655 S
O340 C351 1.279 . S
O341 Mg337 2.117 1_554 S
O341 C351 1.250 . S
O342 Mg339 2.079 1_565 S
O342 C352 1.264 . S
O343 Mg339 2.072 . S
O343 C353 1.258 1_554 S
Mg344 O345 2.180 . S
Mg344 O346 2.030 . S
Mg344 O347 2.004 1_554 S
Mg344 O348 2.117 1_554 S
O345 Mg339 2.099 1_565 S
O345 Mg344 2.180 . S
O345 C354 1.279 1_554 S
O346 Mg344 2.030 . S
O346 C352 1.248 . S
O347 Mg344 2.004 1_556 S
O347 C353 1.240 1_565 S
O348 Mg344 2.117 1_556 S
O348 C354 1.250 . S
C349 O355 1.248 1_565 S
C349 O356 1.264 . S
C350 O336 1.253 . S
C350 O338 1.260 . S
C351 O340 1.279 . S
C351 O341 1.250 . S
C352 O342 1.264 . S
C352 O346 1.248 . S
C353 O343 1.258 1_556 S
C353 O347 1.240 1_545 S
C354 O345 1.279 1_556 S
C354 O348 1.250 . S
O355 Mg337 2.030 1_554 S
O355 C349 1.248 1_545 S
O356 Mg339 2.079 1_665 S
O356 C349 1.264 . S
O357 Mg358 1.990 . S
O357 C371 1.253 . S
Mg358 O357 1.990 . S
Mg358 O361 2.180 . S
Mg358 O362 2.117 . S
Mg358 O376 2.030 . S
O359 Mg360 2.072 . S
O359 C371 1.260 . S
Mg360 O359 2.072 . S
Mg360 O361 2.099 . S
Mg360 O363 2.079 . S
Mg360 O364 2.072 . S
Mg360 O366 2.099 . S
Mg360 O377 2.079 . S
O361 Mg358 2.180 . S
O361 Mg360 2.099 . S
O361 C372 1.279 . S
O362 Mg358 2.117 . S
O362 C372 1.250 . S
O363 Mg360 2.079 . S
O363 C373 1.264 . S
O364 Mg360 2.072 . S
O364 C374 1.260 . S
Mg365 O366 2.180 . S
Mg365 O367 2.030 . S
Mg365 O368 1.990 . S
Mg365 O369 2.117 . S
O366 Mg360 2.099 . S
O366 Mg365 2.180 . S
O366 C375 1.279 . S
O367 Mg365 2.030 . S
O367 C373 1.248 . S
O368 Mg365 1.990 . S
O368 C374 1.253 . S
O369 Mg365 2.117 . S
O369 C375 1.250 . S
C370 O376 1.248 . S
C370 O377 1.264 . S
C371 O357 1.253 . S
C371 O359 1.260 . S
C372 O361 1.279 . S
C372 O362 1.250 . S
C373 O363 1.264 . S
C373 O367 1.248 . S
C374 O364 1.260 . S
C374 O368 1.253 . S
C375 O366 1.279 . S
C375 O369 1.250 . S
O376 Mg358 2.030 . S
O376 C370 1.248 . S
O377 Mg360 2.079 . S
O377 C370 1.264 . S
O378 Mg379 1.990 . S
O378 C392 1.253 . S
Mg379 O378 1.990 . S
Mg379 O382 2.180 . S
Mg379 O383 2.117 . S
Mg379 O397 2.030 1_565 S
O380 Mg381 2.072 . S
O380 C392 1.260 1_545 S
Mg381 O380 2.072 . S
Mg381 O382 2.099 1_545 S
Mg381 O384 2.079 . S
Mg381 O385 2.072 1_545 S
Mg381 O387 2.099 . S
Mg381 O398 2.079 . S
O382 Mg379 2.180 . S
O382 Mg381 2.099 1_565 S
O382 C393 1.279 . S
O383 Mg379 2.117 . S
O383 C393 1.250 . S
O384 Mg381 2.079 . S
O384 C394 1.264 . S
O385 Mg381 2.072 1_565 S
O385 C395 1.260 . S
Mg386 O387 2.180 . S
Mg386 O388 2.030 . S
Mg386 O389 1.990 . S
Mg386 O390 2.117 . S
O387 Mg381 2.099 . S
O387 Mg386 2.180 . S
O387 C396 1.279 . S
O388 Mg386 2.030 . S
O388 C394 1.248 . S
O389 Mg386 1.990 . S
O389 C395 1.253 1_545 S
O390 Mg386 2.117 . S
O390 C396 1.250 . S
C391 O397 1.248 . S
C391 O398 1.264 . S
C392 O378 1.253 . S
C392 O380 1.260 1_565 S
C393 O382 1.279 . S
C393 O383 1.250 . S
C394 O384 1.264 . S
C394 O388 1.248 . S
C395 O385 1.260 . S
C395 O389 1.253 1_565 S
C396 O387 1.279 . S
C396 O390 1.250 . S
O397 Mg379 2.030 1_545 S
O397 C391 1.248 . S
O398 Mg381 2.079 . S
O398 C391 1.264 . S
O399 Mg400 1.990 . S
O399 C413 1.253 . S
Mg400 O399 1.990 . S
Mg400 O403 2.180 . S
Mg400 O404 2.117 . S
Mg400 O418 2.030 . S
O401 Mg402 2.072 . S
O401 C413 1.260 . S
Mg402 O401 2.072 . S
Mg402 O403 2.099 . S
Mg402 O405 2.079 . S
Mg402 O406 2.072 . S
Mg402 O408 2.099 . S
Mg402 O419 2.079 . S
O403 Mg400 2.180 . S
O403 Mg402 2.099 . S
O403 C414 1.279 . S
O404 Mg400 2.117 . S
O404 C414 1.250 . S
O405 Mg402 2.079 . S
O405 C415 1.264 . S
O406 Mg402 2.072 . S
O406 C416 1.260 . S
Mg407 O408 2.180 . S
Mg407 O409 2.030 . S
Mg407 O410 1.990 . S
Mg407 O411 2.117 . S
O408 Mg402 2.099 . S
O408 Mg407 2.180 . S
O408 C417 1.279 . S
O409 Mg407 2.030 . S
O409 C415 1.248 . S
O410 Mg407 1.990 . S
O410 C416 1.253 . S
O411 Mg407 2.117 . S
O411 C417 1.250 . S
C412 O418 1.248 . S
C412 O419 1.264 . S
C413 O399 1.253 . S
C413 O401 1.260 . S
C414 O403 1.279 . S
C414 O404 1.250 . S
C415 O405 1.264 . S
C415 O409 1.248 . S
C416 O406 1.260 . S
C416 O410 1.253 . S
C417 O408 1.279 . S
C417 O411 1.250 . S
O418 Mg400 2.030 . S
O418 C412 1.248 . S
O419 Mg402 2.079 . S
O419 C412 1.264 . S
O420 Mg421 1.986 1_655 S
O420 C434 1.251 1_655 S
Mg421 O420 1.986 1_455 S
Mg421 O424 2.180 . S
Mg421 O425 2.117 1_455 S
Mg421 O439 2.030 . S
O422 Mg423 2.072 1_565 S
O422 C434 1.268 . S
Mg423 O422 2.072 1_545 S
Mg423 O424 2.099 1_545 S
Mg423 O426 2.079 . S
Mg423 O427 2.072 1_455 S
Mg423 O429 2.099 . S
Mg423 O440 2.079 1_545 S
O424 Mg421 2.180 . S
O424 Mg423 2.099 1_565 S
O424 C435 1.279 1_455 S
O425 Mg421 2.117 1_655 S
O425 C435 1.250 . S
O426 Mg423 2.079 . S
O426 C436 1.264 . S
O427 Mg423 2.072 1_655 S
O427 C437 1.260 . S
Mg428 O429 2.199 . S
Mg428 O430 2.033 . S
Mg428 O431 1.957 1_455 S
Mg428 O432 2.126 . S
O429 Mg423 2.099 . S
O429 Mg428 2.199 . S
O429 C438 1.279 . S
O430 Mg428 2.033 . S
O430 C436 1.248 . S
O431 Mg428 1.957 1_655 S
O431 C437 1.253 . S
O432 Mg428 2.126 . S
O432 C438 1.250 . S
C433 O439 1.248 . S
C433 O440 1.264 . S
C434 O420 1.251 1_455 S
C434 O422 1.268 . S
C435 O424 1.279 1_655 S
C435 O425 1.250 . S
C436 O426 1.264 . S
C436 O430 1.248 . S
C437 O427 1.260 . S
C437 O431 1.253 . S
C438 O429 1.279 . S
C438 O432 1.250 . S
O439 Mg421 2.030 . S
O439 C433 1.248 . S
O440 Mg423 2.079 1_565 S
O440 C433 1.264 . S
O441 Mg442 1.990 . S
O441 C455 1.253 . S
Mg442 O441 1.990 . S
Mg442 O445 2.180 . S
Mg442 O446 2.117 . S
Mg442 O460 2.030 . S
O443 Mg444 2.072 . S
O443 C455 1.260 . S
Mg444 O443 2.072 . S
Mg444 O445 2.099 . S
Mg444 O447 2.079 . S
Mg444 O448 2.072 . S
Mg444 O450 2.099 . S
Mg444 O461 2.079 . S
O445 Mg442 2.180 . S
O445 Mg444 2.099 . S
O445 C456 1.279 . S
O446 Mg442 2.117 . S
O446 C456 1.250 . S
O447 Mg444 2.079 . S
O447 C457 1.264 . S
O448 Mg444 2.072 . S
O448 C458 1.260 . S
Mg449 O450 2.180 . S
Mg449 O451 2.030 . S
Mg449 O452 1.990 . S
Mg449 O453 2.117 . S
O450 Mg444 2.099 . S
O450 Mg449 2.180 . S
O450 C459 1.279 . S
O451 Mg449 2.030 . S
O451 C457 1.248 . S
O452 Mg449 1.990 . S
O452 C458 1.253 . S
O453 Mg449 2.117 . S
O453 C459 1.250 . S
C454 O460 1.248 . S
C454 O461 1.264 . S
C455 O441 1.253 . S
C455 O443 1.260 . S
C456 O445 1.279 . S
C456 O446 1.250 . S
C457 O447 1.264 . S
C457 O451 1.248 . S
C458 O448 1.260 . S
C458 O452 1.253 . S
C459 O450 1.279 . S
C459 O453 1.250 . S
O460 Mg442 2.030 . S
O460 C454 1.248 . S
O461 Mg444 2.079 . S
O461 C454 1.264 . S
O462 Mg463 1.990 . S
O462 C476 1.253 . S
Mg463 O462 1.990 . S
Mg463 O466 2.180 1_565 S
Mg463 O467 2.117 1_565 S
Mg463 O481 2.030 1_565 S
O464 Mg465 2.072 1_565 S
O464 C476 1.260 . S
Mg465 O464 2.072 1_545 S
Mg465 O466 2.099 . S
Mg465 O468 2.079 1_554 S
Mg465 O469 2.072 1_554 S
Mg465 O471 2.106 1_554 S
Mg465 O482 2.079 . S
O466 Mg463 2.180 1_545 S
O466 Mg465 2.099 . S
O466 C477 1.279 . S
O467 Mg463 2.117 1_545 S
O467 C477 1.250 . S
O468 Mg465 2.079 1_556 S
O468 C478 1.264 . S
O469 Mg465 2.072 1_556 S
O469 C479 1.260 1_545 S
Mg470 O471 2.192 . S
Mg470 O472 2.030 . S
Mg470 O473 1.990 1_545 S
Mg470 O474 2.117 1_545 S
O471 Mg465 2.106 1_556 S
O471 Mg470 2.192 . S
O471 C480 1.254 1_545 S
O472 Mg470 2.030 . S
O472 C478 1.248 . S
O473 Mg470 1.990 1_565 S
O473 C479 1.253 . S
O474 Mg470 2.117 1_565 S
O474 C480 1.250 . S
C475 O481 1.248 . S
C475 O482 1.264 . S
C476 O462 1.253 . S
C476 O464 1.260 . S
C477 O466 1.279 . S
C477 O467 1.250 . S
C478 O468 1.264 . S
C478 O472 1.248 . S
C479 O469 1.260 1_565 S
C479 O473 1.253 . S
C480 O471 1.254 1_565 S
C480 O474 1.250 . S
O481 Mg463 2.030 1_545 S
O481 C475 1.248 . S
O482 Mg465 2.079 . S
O482 C475 1.264 . S
O483 Mg484 1.990 . S
O483 C497 1.253 . S
Mg484 O483 1.990 . S
Mg484 O487 2.180 . S
Mg484 O488 2.117 . S
Mg484 O502 2.030 . S
O485 Mg486 2.072 . S
O485 C497 1.260 . S
Mg486 O485 2.072 . S
Mg486 O487 2.099 . S
Mg486 O489 2.079 . S
Mg486 O490 2.072 . S
Mg486 O492 2.099 . S
Mg486 O503 2.079 . S
O487 Mg484 2.180 . S
O487 Mg486 2.099 . S
O487 C498 1.279 . S
O488 Mg484 2.117 . S
O488 C498 1.250 . S
O489 Mg486 2.079 . S
O489 C499 1.264 . S
O490 Mg486 2.072 . S
O490 C500 1.260 . S
Mg491 O492 2.180 . S
Mg491 O493 2.030 . S
Mg491 O494 1.990 . S
Mg491 O495 2.117 . S
O492 Mg486 2.099 . S
O492 Mg491 2.180 . S
O492 C501 1.279 . S
O493 Mg491 2.030 . S
O493 C499 1.248 . S
O494 Mg491 1.990 . S
O494 C500 1.253 . S
O495 Mg491 2.117 . S
O495 C501 1.250 . S
C496 O502 1.248 . S
C496 O503 1.264 . S
C497 O483 1.253 . S
C497 O485 1.260 . S
C498 O487 1.279 . S
C498 O488 1.250 . S
C499 O489 1.264 . S
C499 O493 1.248 . S
C500 O490 1.260 . S
C500 O494 1.253 . S
C501 O492 1.279 . S
C501 O495 1.250 . S
O502 Mg484 2.030 . S
O502 C496 1.248 . S
O503 Mg486 2.079 . S
O503 C496 1.264 . S
O504 Mg505 1.990 . S
O504 C518 1.253 . S
Mg505 O504 1.990 . S
Mg505 O508 2.180 . S
Mg505 O509 2.117 . S
Mg505 O523 2.030 1_556 S
O506 Mg507 2.072 . S
O506 C518 1.260 1_554 S
Mg507 O506 2.072 . S
Mg507 O508 2.099 1_554 S
Mg507 O510 2.079 . S
Mg507 O511 2.072 1_554 S
Mg507 O513 2.099 . S
Mg507 O524 2.079 . S
O508 Mg505 2.180 . S
O508 Mg507 2.099 1_556 S
O508 C519 1.279 . S
O509 Mg505 2.117 . S
O509 C519 1.250 . S
O510 Mg507 2.079 . S
O510 C520 1.264 . S
O511 Mg507 2.072 1_556 S
O511 C521 1.260 . S
Mg512 O513 2.180 . S
Mg512 O514 2.030 . S
Mg512 O515 1.990 . S
Mg512 O516 2.117 . S
O513 Mg507 2.099 . S
O513 Mg512 2.180 . S
O513 C522 1.279 . S
O514 Mg512 2.030 . S
O514 C520 1.248 . S
O515 Mg512 1.990 . S
O515 C521 1.253 1_554 S
O516 Mg512 2.117 . S
O516 C522 1.250 . S
C517 O523 1.248 . S
C517 O524 1.264 . S
C518 O504 1.253 . S
C518 O506 1.260 1_556 S
C519 O508 1.279 . S
C519 O509 1.250 . S
C520 O510 1.264 . S
C520 O514 1.248 . S
C521 O511 1.260 . S
C521 O515 1.253 1_556 S
C522 O513 1.279 . S
C522 O516 1.250 . S
O523 Mg505 2.030 1_554 S
O523 C517 1.248 . S
O524 Mg507 2.079 . S
O524 C517 1.264 . S
O525 Mg526 1.990 . S
O525 C539 1.253 . S
Mg526 O525 1.990 . S
Mg526 O529 2.180 . S
Mg526 O530 2.117 . S
Mg526 O544 2.030 . S
O527 Mg528 2.072 . S
O527 C539 1.260 . S
Mg528 O527 2.072 . S
Mg528 O529 2.099 . S
Mg528 O531 2.079 . S
Mg528 O532 2.072 . S
Mg528 O534 2.099 . S
Mg528 O545 2.079 . S
O529 Mg526 2.180 . S
O529 Mg528 2.099 . S
O529 C540 1.279 . S
O530 Mg526 2.117 . S
O530 C540 1.250 . S
O531 Mg528 2.079 . S
O531 C541 1.264 . S
O532 Mg528 2.072 . S
O532 C542 1.260 . S
Mg533 O534 2.180 . S
Mg533 O535 2.030 . S
Mg533 O536 1.990 . S
Mg533 O537 2.117 . S
O534 Mg528 2.099 . S
O534 Mg533 2.180 . S
O534 C543 1.279 . S
O535 Mg533 2.030 . S
O535 C541 1.248 . S
O536 Mg533 1.990 . S
O536 C542 1.253 . S
O537 Mg533 2.117 . S
O537 C543 1.250 . S
C538 O544 1.248 . S
C538 O545 1.264 . S
C539 O525 1.253 . S
C539 O527 1.260 . S
C540 O529 1.279 . S
C540 O530 1.250 . S
C541 O531 1.264 . S
C541 O535 1.248 . S
C542 O532 1.260 . S
C542 O536 1.253 . S
C543 O534 1.279 . S
C543 O537 1.250 . S
O544 Mg526 2.030 . S
O544 C538 1.248 . S
O545 Mg528 2.079 . S
O545 C538 1.264 . S
O546 Mg547 1.990 . S
O546 C560 1.253 . S
Mg547 O546 1.990 . S
Mg547 O550 2.180 . S
Mg547 O551 2.117 . S
Mg547 O565 2.030 1_655 S
O548 Mg549 2.072 . S
O548 C560 1.260 1_455 S
Mg549 O548 2.072 . S
Mg549 O550 2.099 1_455 S
Mg549 O552 2.079 . S
Mg549 O553 2.072 1_455 S
Mg549 O555 2.099 . S
Mg549 O566 2.079 . S
O550 Mg547 2.180 . S
O550 Mg549 2.099 1_655 S
O550 C561 1.279 . S
O551 Mg547 2.117 . S
O551 C561 1.250 . S
O552 Mg549 2.079 . S
O552 C562 1.264 . S
O553 Mg549 2.072 1_655 S
O553 C563 1.260 . S
Mg554 O555 2.180 . S
Mg554 O556 2.030 . S
Mg554 O557 1.990 . S
Mg554 O558 2.117 . S
O555 Mg549 2.099 . S
O555 Mg554 2.180 . S
O555 C564 1.279 . S
O556 Mg554 2.030 . S
O556 C562 1.248 . S
O557 Mg554 1.990 . S
O557 C563 1.253 1_455 S
O558 Mg554 2.117 . S
O558 C564 1.250 . S
C559 O565 1.248 . S
C559 O566 1.264 . S
C560 O546 1.253 . S
C560 O548 1.260 1_655 S
C561 O550 1.279 . S
C561 O551 1.250 . S
C562 O552 1.264 . S
C562 O556 1.248 . S
C563 O553 1.260 . S
C563 O557 1.253 1_655 S
C564 O555 1.279 . S
C564 O558 1.250 . S
O565 Mg547 2.030 1_455 S
O565 C559 1.248 . S
O566 Mg549 2.079 . S
O566 C559 1.264 . S
O567 Mg568 1.990 . S
O567 C581 1.253 . S
Mg568 O567 1.990 . S
Mg568 O571 2.180 . S
Mg568 O572 2.117 . S
Mg568 O586 2.030 . S
O569 Mg570 2.072 . S
O569 C581 1.260 . S
Mg570 O569 2.072 . S
Mg570 O571 2.099 . S
Mg570 O573 2.079 . S
Mg570 O574 2.072 . S
Mg570 O576 2.099 . S
Mg570 O587 2.079 . S
O571 Mg568 2.180 . S
O571 Mg570 2.099 . S
O571 C582 1.279 . S
O572 Mg568 2.117 . S
O572 C582 1.250 . S
O573 Mg570 2.079 . S
O573 C583 1.264 . S
O574 Mg570 2.072 . S
O574 C584 1.260 . S
Mg575 O576 2.180 . S
Mg575 O577 2.030 . S
Mg575 O578 1.990 . S
Mg575 O579 2.117 . S
O576 Mg570 2.099 . S
O576 Mg575 2.180 . S
O576 C585 1.279 . S
O577 Mg575 2.030 . S
O577 C583 1.248 . S
O578 Mg575 1.990 . S
O578 C584 1.253 . S
O579 Mg575 2.117 . S
O579 C585 1.250 . S
C580 O586 1.248 . S
C580 O587 1.264 . S
C581 O567 1.253 . S
C581 O569 1.260 . S
C582 O571 1.279 . S
C582 O572 1.250 . S
C583 O573 1.264 . S
C583 O577 1.248 . S
C584 O574 1.260 . S
C584 O578 1.253 . S
C585 O576 1.279 . S
C585 O579 1.250 . S
O586 Mg568 2.030 . S
O586 C580 1.248 . S
O587 Mg570 2.079 . S
O587 C580 1.264 . S
O588 Mg589 1.990 . S
O588 C602 1.253 . S
Mg589 O588 1.990 . S
Mg589 O592 2.180 . S
Mg589 O593 2.117 . S
Mg589 O607 2.030 . S
O590 Mg591 2.072 . S
O590 C602 1.260 . S
Mg591 O590 2.072 . S
Mg591 O592 2.099 . S
Mg591 O594 2.079 . S
Mg591 O595 2.072 . S
Mg591 O597 2.099 . S
Mg591 O608 2.079 . S
O592 Mg589 2.180 . S
O592 Mg591 2.099 . S
O592 C603 1.279 . S
O593 Mg589 2.117 . S
O593 C603 1.250 . S
O594 Mg591 2.079 . S
O594 C604 1.264 . S
O595 Mg591 2.072 . S
O595 C605 1.260 . S
Mg596 O597 2.180 . S
Mg596 O598 2.030 . S
Mg596 O599 1.990 . S
Mg596 O600 2.117 . S
O597 Mg591 2.099 . S
O597 Mg596 2.180 . S
O597 C606 1.279 . S
O598 Mg596 2.030 . S
O598 C604 1.248 . S
O599 Mg596 1.990 . S
O599 C605 1.253 . S
O600 Mg596 2.117 . S
O600 C606 1.250 . S
C601 O607 1.248 . S
C601 O608 1.264 . S
C602 O588 1.253 . S
C602 O590 1.260 . S
C603 O592 1.279 . S
C603 O593 1.250 . S
C604 O594 1.264 . S
C604 O598 1.248 . S
C605 O595 1.260 . S
C605 O599 1.253 . S
C606 O597 1.279 . S
C606 O600 1.250 . S
O607 Mg589 2.030 . S
O607 C601 1.248 . S
O608 Mg591 2.079 . S
O608 C601 1.264 . S
O609 Mg610 1.990 . S
O609 C623 1.253 . S
Mg610 O609 1.990 . S
Mg610 O613 2.180 . S
Mg610 O614 2.117 . S
Mg610 O628 2.030 . S
O611 Mg612 2.072 . S
O611 C623 1.260 . S
Mg612 O611 2.072 . S
Mg612 O613 2.099 . S
Mg612 O615 2.079 . S
Mg612 O616 2.072 . S
Mg612 O618 2.099 . S
Mg612 O629 2.079 . S
O613 Mg610 2.180 . S
O613 Mg612 2.099 . S
O613 C624 1.279 . S
O614 Mg610 2.117 . S
O614 C624 1.250 . S
O615 Mg612 2.079 . S
O615 C625 1.264 . S
O616 Mg612 2.072 . S
O616 C626 1.260 . S
Mg617 O618 2.180 . S
Mg617 O619 2.030 . S
Mg617 O620 1.990 . S
Mg617 O621 2.117 . S
O618 Mg612 2.099 . S
O618 Mg617 2.180 . S
O618 C627 1.279 . S
O619 Mg617 2.030 . S
O619 C625 1.248 . S
O620 Mg617 1.990 . S
O620 C626 1.253 . S
O621 Mg617 2.117 . S
O621 C627 1.250 . S
C622 O628 1.248 . S
C622 O629 1.264 . S
C623 O609 1.253 . S
C623 O611 1.260 . S
C624 O613 1.279 . S
C624 O614 1.250 . S
C625 O615 1.264 . S
C625 O619 1.248 . S
C626 O616 1.260 . S
C626 O620 1.253 . S
C627 O618 1.279 . S
C627 O621 1.250 . S
O628 Mg610 2.030 . S
O628 C622 1.248 . S
O629 Mg612 2.079 . S
O629 C622 1.264 . S
O630 Mg631 1.990 . S
O630 C644 1.253 . S
Mg631 O630 1.990 . S
Mg631 O634 2.180 . S
Mg631 O635 2.117 . S
Mg631 O649 2.030 . S
O632 Mg633 2.072 . S
O632 C644 1.260 . S
Mg633 O632 2.072 . S
Mg633 O634 2.099 . S
Mg633 O636 2.079 . S
Mg633 O637 2.072 . S
Mg633 O639 2.099 . S
Mg633 O650 2.079 . S
O634 Mg631 2.180 . S
O634 Mg633 2.099 . S
O634 C645 1.279 . S
O635 Mg631 2.117 . S
O635 C645 1.250 . S
O636 Mg633 2.079 . S
O636 C646 1.264 . S
O637 Mg633 2.072 . S
O637 C647 1.260 . S
Mg638 O639 2.180 . S
Mg638 O640 2.030 . S
Mg638 O641 1.990 . S
Mg638 O642 2.117 . S
O639 Mg633 2.099 . S
O639 Mg638 2.180 . S
O639 C648 1.279 . S
O640 Mg638 2.030 . S
O640 C646 1.248 . S
O641 Mg638 1.990 . S
O641 C647 1.253 . S
O642 Mg638 2.117 . S
O642 C648 1.250 . S
C643 O649 1.248 . S
C643 O650 1.264 . S
C644 O630 1.253 . S
C644 O632 1.260 . S
C645 O634 1.279 . S
C645 O635 1.250 . S
C646 O636 1.264 . S
C646 O640 1.248 . S
C647 O637 1.260 . S
C647 O641 1.253 . S
C648 O639 1.279 . S
C648 O642 1.250 . S
O649 Mg631 2.030 . S
O649 C643 1.248 . S
O650 Mg633 2.079 . S
O650 C643 1.264 . S
O651 Mg652 1.990 . S
O651 C665 1.253 . S
Mg652 O651 1.990 . S
Mg652 O655 2.180 1_556 S
Mg652 O656 2.117 1_556 S
Mg652 O670 2.032 . S
O653 Mg654 2.072 1_556 S
O653 C665 1.260 . S
Mg654 O653 2.072 1_554 S
Mg654 O655 2.099 . S
Mg654 O657 2.068 1_455 S
Mg654 O658 2.081 1_455 S
Mg654 O660 2.107 1_455 S
Mg654 O671 2.079 . S
O655 Mg652 2.180 1_554 S
O655 Mg654 2.099 . S
O655 C666 1.279 . S
O656 Mg652 2.117 1_554 S
O656 C666 1.250 . S
O657 Mg654 2.068 1_655 S
O657 C667 1.298 . S
O658 Mg654 2.081 1_655 S
O658 C668 1.255 1_554 S
Mg659 O660 2.193 . S
Mg659 O661 2.030 . S
Mg659 O662 1.990 1_554 S
Mg659 O663 2.117 1_554 S
O660 Mg654 2.107 1_655 S
O660 Mg659 2.193 . S
O660 C669 1.251 1_554 S
O661 Mg659 2.030 . S
O661 C667 1.248 . S
O662 Mg659 1.990 1_556 S
O662 C668 1.253 . S
O663 Mg659 2.117 1_556 S
O663 C669 1.250 . S
C664 O670 1.237 1_554 S
C664 O671 1.264 . S
C665 O651 1.253 . S
C665 O653 1.260 . S
C666 O655 1.279 . S
C666 O656 1.250 . S
C667 O657 1.298 . S
C667 O661 1.248 . S
C668 O658 1.255 1_556 S
C668 O662 1.253 . S
C669 O660 1.251 1_556 S
C669 O663 1.250 . S
O670 Mg652 2.032 . S
O670 C664 1.237 1_556 S
O671 Mg654 2.079 . S
O671 C664 1.264 . S
C672 C673 1.349 . S
C672 C674 1.327 . S
C672 H697 0.950 . S
C673 C672 1.349 . S
C673 C689 1.349 1_455 S
C674 C672 1.327 . S
C674 C693 1.429 . S
C674 H698 0.950 . S
C675 C692 1.574 . S
C675 C694 1.368 1_655 S
C675 H699 0.949 . S
H676 C680 0.949 . S
C677 C678 1.364 . S
C677 C679 1.327 . S
C677 H700 0.950 . S
C678 C677 1.364 . S
C678 C690 1.335 1_655 S
C679 C677 1.327 . S
C679 C695 1.431 1_655 S
C679 H701 0.950 . S
C680 H676 0.949 . S
C680 C688 1.574 . S
C680 C696 1.377 . S
H681 C689 0.950 . S
H682 C687 0.950 . S
H683 C688 0.949 . S
H684 C690 0.950 . S
H685 C691 0.950 . S
H686 C692 0.949 . S
C687 H682 0.950 . S
C687 C689 1.327 . S
C687 C693 1.429 1_655 S
C688 C680 1.574 . S
C688 H683 0.949 . S
C688 C694 1.368 . S
C689 C673 1.349 1_655 S
C689 H681 0.950 . S
C689 C687 1.327 . S
C690 C678 1.335 1_455 S
C690 H684 0.950 . S
C690 C691 1.327 . S
C691 H685 0.950 . S
C691 C690 1.327 . S
C691 C695 1.427 . S
C692 C675 1.574 . S
C692 H686 0.949 . S
C692 C696 1.361 1_655 S
C693 C674 1.429 . S
C693 C687 1.429 1_455 S
C693 C694 1.523 . S
C694 C675 1.368 1_455 S
C694 C688 1.368 . S
C694 C693 1.523 . S
C695 C679 1.431 1_455 S
C695 C691 1.427 . S
C695 C696 1.523 . S
C696 C680 1.377 . S
C696 C692 1.361 1_455 S
C696 C695 1.523 . S
H697 C672 0.950 . S
H698 C674 0.950 . S
H699 C675 0.949 . S
H700 C677 0.950 . S
H701 C679 0.950 . S
C702 C703 1.349 . S
C702 C704 1.327 . S
C702 H727 0.950 . S
C703 C702 1.349 . S
C703 C719 1.349 . S
C704 C702 1.327 . S
C704 C723 1.429 . S
C704 H728 0.950 . S
C705 C722 1.574 . S
C705 C724 1.368 . S
C705 H729 0.949 . S
H706 C710 0.949 . S
C707 C708 1.349 . S
C707 C709 1.327 . S
C707 H730 0.950 . S
C708 C707 1.349 . S
C708 C720 1.349 . S
C709 C707 1.327 . S
C709 C725 1.429 . S
C709 H731 0.950 . S
C710 H706 0.949 . S
C710 C718 1.574 . S
C710 C726 1.368 . S
H711 C719 0.950 . S
H712 C717 0.950 . S
H713 C718 0.949 . S
H714 C720 0.950 . S
H715 C721 0.950 . S
H716 C722 0.949 . S
C717 H712 0.950 . S
C717 C719 1.327 . S
C717 C723 1.429 . S
C718 C710 1.574 . S
C718 H713 0.949 . S
C718 C724 1.368 . S
C719 C703 1.349 . S
C719 H711 0.950 . S
C719 C717 1.327 . S
C720 C708 1.349 . S
C720 H714 0.950 . S
C720 C721 1.327 . S
C721 H715 0.950 . S
C721 C720 1.327 . S
C721 C725 1.429 . S
C722 C705 1.574 . S
C722 H716 0.949 . S
C722 C726 1.368 . S
C723 C704 1.429 . S
C723 C717 1.429 . S
C723 C724 1.523 . S
C724 C705 1.368 . S
C724 C718 1.368 . S
C724 C723 1.523 . S
C725 C709 1.429 . S
C725 C721 1.429 . S
C725 C726 1.523 . S
C726 C710 1.368 . S
C726 C722 1.368 . S
C726 C725 1.523 . S
H727 C702 0.950 . S
H728 C704 0.950 . S
H729 C705 0.949 . S
H730 C707 0.950 . S
H731 C709 0.950 . S
C732 C733 1.349 . S
C732 C734 1.327 . S
C732 H757 0.950 . S
C733 C732 1.349 . S
C733 C749 1.349 . S
C734 C732 1.327 . S
C734 C753 1.429 . S
C734 H758 0.950 . S
C735 C752 1.574 . S
C735 C754 1.368 . S
C735 H759 0.949 . S
H736 C740 0.949 . S
C737 C738 1.349 . S
C737 C739 1.327 . S
C737 H760 0.950 . S
C738 C737 1.349 . S
C738 C750 1.349 . S
C739 C737 1.327 . S
C739 C755 1.429 . S
C739 H761 0.950 . S
C740 H736 0.949 . S
C740 C748 1.574 . S
C740 C756 1.368 . S
H741 C749 0.950 . S
H742 C747 0.950 . S
H743 C748 0.949 . S
H744 C750 0.950 . S
H745 C751 0.950 . S
H746 C752 0.949 . S
C747 H742 0.950 . S
C747 C749 1.327 . S
C747 C753 1.429 . S
C748 C740 1.574 . S
C748 H743 0.949 . S
C748 C754 1.368 . S
C749 C733 1.349 . S
C749 H741 0.950 . S
C749 C747 1.327 . S
C750 C738 1.349 . S
C750 H744 0.950 . S
C750 C751 1.327 . S
C751 H745 0.950 . S
C751 C750 1.327 . S
C751 C755 1.429 . S
C752 C735 1.574 . S
C752 H746 0.949 . S
C752 C756 1.368 . S
C753 C734 1.429 . S
C753 C747 1.429 . S
C753 C754 1.523 . S
C754 C735 1.368 . S
C754 C748 1.368 . S
C754 C753 1.523 . S
C755 C739 1.429 . S
C755 C751 1.429 . S
C755 C756 1.523 . S
C756 C740 1.368 . S
C756 C752 1.368 . S
C756 C755 1.523 . S
H757 C732 0.950 . S
H758 C734 0.950 . S
H759 C735 0.949 . S
H760 C737 0.950 . S
H761 C739 0.950 . S
C762 C763 1.349 . S
C762 C764 1.327 . S
C762 H787 0.950 . S
C763 C762 1.349 . S
C763 C779 1.349 . S
C764 C762 1.327 . S
C764 C783 1.429 . S
C764 H788 0.950 . S
C765 C782 1.574 . S
C765 C784 1.368 . S
C765 H789 0.949 . S
H766 C770 0.949 . S
C767 C768 1.349 . S
C767 C769 1.327 . S
C767 H790 0.950 . S
C768 C767 1.349 . S
C768 C780 1.349 . S
C769 C767 1.327 . S
C769 C785 1.429 . S
C769 H791 0.950 . S
C770 H766 0.949 . S
C770 C778 1.574 . S
C770 C786 1.368 . S
H771 C779 0.950 . S
H772 C777 0.950 . S
H773 C778 0.949 . S
H774 C780 0.950 . S
H775 C781 0.950 . S
H776 C782 0.949 . S
C777 H772 0.950 . S
C777 C779 1.327 . S
C777 C783 1.429 . S
C778 C770 1.574 . S
C778 H773 0.949 . S
C778 C784 1.368 . S
C779 C763 1.349 . S
C779 H771 0.950 . S
C779 C777 1.327 . S
C780 C768 1.349 . S
C780 H774 0.950 . S
C780 C781 1.327 . S
C781 H775 0.950 . S
C781 C780 1.327 . S
C781 C785 1.429 . S
C782 C765 1.574 . S
C782 H776 0.949 . S
C782 C786 1.368 . S
C783 C764 1.429 . S
C783 C777 1.429 . S
C783 C784 1.523 . S
C784 C765 1.368 . S
C784 C778 1.368 . S
C784 C783 1.523 . S
C785 C769 1.429 . S
C785 C781 1.429 . S
C785 C786 1.523 . S
C786 C770 1.368 . S
C786 C782 1.368 . S
C786 C785 1.523 . S
H787 C762 0.950 . S
H788 C764 0.950 . S
H789 C765 0.949 . S
H790 C767 0.950 . S
H791 C769 0.950 . S
C792 C793 1.349 . S
C792 C794 1.327 . S
C792 H817 0.950 . S
C793 C792 1.349 . S
C793 C809 1.349 . S
C794 C792 1.327 . S
C794 C813 1.429 . S
C794 H818 0.950 . S
C795 C812 1.574 . S
C795 C814 1.368 . S
C795 H819 0.949 . S
H796 C800 0.950 1_655 S
C797 C798 1.355 . S
C797 C799 1.327 . S
C797 H820 0.950 . S
C798 C797 1.355 . S
C798 C810 1.345 1_455 S
C799 C797 1.327 . S
C799 C815 1.429 . S
C799 H821 0.950 . S
C800 H796 0.950 1_455 S
C800 C808 1.572 . S
C800 C816 1.368 . S
H801 C809 0.950 . S
H802 C807 0.950 . S
H803 C808 0.943 1_655 S
H804 C810 0.950 . S
H805 C811 0.950 . S
H806 C812 0.949 . S
C807 H802 0.950 . S
C807 C809 1.327 . S
C807 C813 1.429 . S
C808 C800 1.572 . S
C808 H803 0.943 1_455 S
C808 C814 1.377 . S
C809 C793 1.349 . S
C809 H801 0.950 . S
C809 C807 1.327 . S
C810 C798 1.345 1_655 S
C810 H804 0.950 . S
C810 C811 1.327 . S
C811 H805 0.950 . S
C811 C810 1.327 . S
C811 C815 1.429 1_655 S
C812 C795 1.574 . S
C812 H806 0.949 . S
C812 C816 1.368 . S
C813 C794 1.429 . S
C813 C807 1.429 . S
C813 C814 1.523 . S
C814 C795 1.368 . S
C814 C808 1.377 . S
C814 C813 1.523 . S
C815 C799 1.429 . S
C815 C811 1.429 1_455 S
C815 C816 1.523 . S
C816 C800 1.368 . S
C816 C812 1.368 . S
C816 C815 1.523 . S
H817 C792 0.950 . S
H818 C794 0.950 . S
H819 C795 0.949 . S
H820 C797 0.950 . S
H821 C799 0.950 . S
C822 C823 1.349 . S
C822 C824 1.327 . S
C822 H847 0.950 . S
C823 C822 1.349 . S
C823 C839 1.349 . S
C824 C822 1.327 . S
C824 C843 1.429 . S
C824 H848 0.950 . S
C825 C842 1.574 . S
C825 C844 1.368 . S
C825 H849 0.949 . S
H826 C830 0.949 . S
C827 C828 1.349 . S
C827 C829 1.327 . S
C827 H850 0.950 . S
C828 C827 1.349 . S
C828 C840 1.349 . S
C829 C827 1.327 . S
C829 C845 1.429 . S
C829 H851 0.950 . S
C830 H826 0.949 . S
C830 C838 1.574 . S
C830 C846 1.368 . S
H831 C839 0.950 . S
H832 C837 0.950 . S
H833 C838 0.949 . S
H834 C840 0.950 . S
H835 C841 0.950 . S
H836 C842 0.949 . S
C837 H832 0.950 . S
C837 C839 1.327 . S
C837 C843 1.429 . S
C838 C830 1.574 . S
C838 H833 0.949 . S
C838 C844 1.368 . S
C839 C823 1.349 . S
C839 H831 0.950 . S
C839 C837 1.327 . S
C840 C828 1.349 . S
C840 H834 0.950 . S
C840 C841 1.327 . S
C841 H835 0.950 . S
C841 C840 1.327 . S
C841 C845 1.429 . S
C842 C825 1.574 . S
C842 H836 0.949 . S
C842 C846 1.368 . S
C843 C824 1.429 . S
C843 C837 1.429 . S
C843 C844 1.523 . S
C844 C825 1.368 . S
C844 C838 1.368 . S
C844 C843 1.523 . S
C845 C829 1.429 . S
C845 C841 1.429 . S
C845 C846 1.523 . S
C846 C830 1.368 . S
C846 C842 1.368 . S
C846 C845 1.523 . S
H847 C822 0.950 . S
H848 C824 0.950 . S
H849 C825 0.949 . S
H850 C827 0.950 . S
H851 C829 0.950 . S
C852 C853 1.349 . S
C852 C854 1.327 . S
C852 H877 0.950 . S
C853 C852 1.349 . S
C853 C869 1.349 . S
C854 C852 1.327 . S
C854 C873 1.429 . S
C854 H878 0.950 . S
C855 C872 1.574 . S
C855 C874 1.368 . S
C855 H879 0.949 . S
H856 C860 0.949 . S
C857 C858 1.349 . S
C857 C859 1.327 . S
C857 H880 0.950 . S
C858 C857 1.349 . S
C858 C870 1.349 . S
C859 C857 1.327 . S
C859 C875 1.429 . S
C859 H881 0.950 . S
C860 H856 0.949 . S
C860 C868 1.574 . S
C860 C876 1.368 . S
H861 C869 0.950 . S
H862 C867 0.950 . S
H863 C868 0.949 . S
H864 C870 0.950 1_554 S
H865 C871 0.950 . S
H866 C872 0.949 . S
C867 H862 0.950 . S
C867 C869 1.327 . S
C867 C873 1.429 . S
C868 C860 1.574 . S
C868 H863 0.949 . S
C868 C874 1.368 . S
C869 C853 1.349 . S
C869 H861 0.950 . S
C869 C867 1.327 . S
C870 C858 1.349 . S
C870 H864 0.950 1_556 S
C870 C871 1.327 . S
C871 H865 0.950 . S
C871 C870 1.327 . S
C871 C875 1.429 . S
C872 C855 1.574 . S
C872 H866 0.949 . S
C872 C876 1.368 . S
C873 C854 1.429 . S
C873 C867 1.429 . S
C873 C874 1.523 . S
C874 C855 1.368 . S
C874 C868 1.368 . S
C874 C873 1.523 . S
C875 C859 1.429 . S
C875 C871 1.429 . S
C875 C876 1.523 . S
C876 C860 1.368 . S
C876 C872 1.368 . S
C876 C875 1.523 . S
H877 C852 0.950 . S
H878 C854 0.950 . S
H879 C855 0.949 . S
H880 C857 0.950 . S
H881 C859 0.950 . S
C882 C883 1.349 . S
C882 C884 1.327 . S
C882 H907 0.950 . S
C883 C882 1.349 . S
C883 C899 1.349 . S
C884 C882 1.327 . S
C884 C903 1.429 . S
C884 H908 0.950 . S
C885 C902 1.574 . S
C885 C904 1.368 . S
C885 H909 0.949 . S
H886 C890 0.949 . S
C887 C888 1.349 . S
C887 C889 1.327 . S
C887 H910 0.950 . S
C888 C887 1.349 . S
C888 C900 1.349 . S
C889 C887 1.327 . S
C889 C905 1.429 . S
C889 H911 0.950 . S
C890 H886 0.949 . S
C890 C898 1.574 . S
C890 C906 1.368 . S
H891 C899 0.950 . S
H892 C897 0.950 . S
H893 C898 0.949 . S
H894 C900 0.950 . S
H895 C901 0.950 . S
H896 C902 0.949 . S
C897 H892 0.950 . S
C897 C899 1.327 . S
C897 C903 1.429 . S
C898 C890 1.574 . S
C898 H893 0.949 . S
C898 C904 1.368 . S
C899 C883 1.349 . S
C899 H891 0.950 . S
C899 C897 1.327 . S
C900 C888 1.349 . S
C900 H894 0.950 . S
C900 C901 1.327 . S
C901 H895 0.950 . S
C901 C900 1.327 . S
C901 C905 1.429 . S
C902 C885 1.574 . S
C902 H896 0.949 . S
C902 C906 1.368 . S
C903 C884 1.429 . S
C903 C897 1.429 . S
C903 C904 1.523 . S
C904 C885 1.368 . S
C904 C898 1.368 . S
C904 C903 1.523 . S
C905 C889 1.429 . S
C905 C901 1.429 . S
C905 C906 1.523 . S
C906 C890 1.368 . S
C906 C902 1.368 . S
C906 C905 1.523 . S
H907 C882 0.950 . S
H908 C884 0.950 . S
H909 C885 0.949 . S
H910 C887 0.950 . S
H911 C889 0.950 . S
C912 C913 1.349 1_565 S
C912 C914 1.327 . S
C912 H937 0.950 . S
C913 C912 1.349 1_545 S
C913 C929 1.349 . S
C914 C912 1.327 . S
C914 C933 1.429 1_565 S
C914 H938 0.950 . S
C915 C932 1.574 . S
C915 C934 1.377 . S
C915 H939 0.949 . S
H916 C920 0.949 . S
C917 C918 1.349 1_545 S
C917 C919 1.327 . S
C917 H940 0.950 . S
C918 C917 1.349 1_565 S
C918 C930 1.349 . S
C919 C917 1.327 . S
C919 C935 1.429 1_545 S
C919 H941 0.950 . S
C920 H916 0.949 . S
C920 C928 1.574 . S
C920 C936 1.368 . S
H921 C929 0.950 . S
H922 C927 0.950 . S
H923 C928 0.949 . S
H924 C930 0.950 . S
H925 C931 0.950 . S
H926 C932 0.949 . S
C927 H922 0.950 . S
C927 C929 1.327 . S
C927 C933 1.429 . S
C928 C920 1.574 . S
C928 H923 0.949 . S
C928 C934 1.359 1_565 S
C929 C913 1.349 . S
C929 H921 0.950 . S
C929 C927 1.327 . S
C930 C918 1.349 . S
C930 H924 0.950 . S
C930 C931 1.327 . S
C931 H925 0.950 . S
C931 C930 1.327 . S
C931 C935 1.429 . S
C932 C915 1.574 . S
C932 H926 0.949 . S
C932 C936 1.368 1_545 S
C933 C914 1.429 1_545 S
C933 C927 1.429 . S
C933 C934 1.523 . S
C934 C915 1.377 . S
C934 C928 1.359 1_545 S
C934 C933 1.523 . S
C935 C919 1.429 1_565 S
C935 C931 1.429 . S
C935 C936 1.523 . S
C936 C920 1.368 . S
C936 C932 1.368 1_565 S
C936 C935 1.523 . S
H937 C912 0.950 . S
H938 C914 0.950 . S
H939 C915 0.949 . S
H940 C917 0.950 . S
H941 C919 0.950 . S
C942 C943 1.349 . S
C942 C944 1.327 . S
C942 H967 0.950 . S
C943 C942 1.349 . S
C943 C959 1.349 . S
C944 C942 1.327 . S
C944 C963 1.429 . S
C944 H968 0.950 . S
C945 C962 1.574 . S
C945 C964 1.368 . S
C945 H969 0.949 . S
H946 C950 0.949 . S
C947 C948 1.349 . S
C947 C949 1.327 . S
C947 H970 0.950 . S
C948 C947 1.349 . S
C948 C960 1.349 . S
C949 C947 1.327 . S
C949 C965 1.429 . S
C949 H971 0.950 . S
C950 H946 0.949 . S
C950 C958 1.574 . S
C950 C966 1.368 . S
H951 C959 0.950 . S
H952 C957 0.950 . S
H953 C958 0.949 . S
H954 C960 0.950 . S
H955 C961 0.950 . S
H956 C962 0.949 . S
C957 H952 0.950 . S
C957 C959 1.327 . S
C957 C963 1.429 . S
C958 C950 1.574 . S
C958 H953 0.949 . S
C958 C964 1.368 . S
C959 C943 1.349 . S
C959 H951 0.950 . S
C959 C957 1.327 . S
C960 C948 1.349 . S
C960 H954 0.950 . S
C960 C961 1.327 . S
C961 H955 0.950 . S
C961 C960 1.327 . S
C961 C965 1.429 . S
C962 C945 1.574 . S
C962 H956 0.949 . S
C962 C966 1.368 . S
C963 C944 1.429 . S
C963 C957 1.429 . S
C963 C964 1.523 . S
C964 C945 1.368 . S
C964 C958 1.368 . S
C964 C963 1.523 . S
C965 C949 1.429 . S
C965 C961 1.429 . S
C965 C966 1.523 . S
C966 C950 1.368 . S
C966 C962 1.368 . S
C966 C965 1.523 . S
H967 C942 0.950 . S
H968 C944 0.950 . S
H969 C945 0.949 . S
H970 C947 0.950 . S
H971 C949 0.950 . S
C972 C973 1.349 1_565 S
C972 C974 1.327 . S
C972 H997 0.950 . S
C973 C972 1.349 1_545 S
C973 C989 1.349 . S
C974 C972 1.327 . S
C974 C993 1.429 1_565 S
C974 H998 0.950 . S
C975 C992 1.574 . S
C975 C994 1.368 . S
C975 H999 0.949 . S
H976 C980 0.949 . S
C977 C978 1.349 . S
C977 C979 1.327 . S
C977 H1000 0.950 . S
C978 C977 1.349 . S
C978 C990 1.349 1_545 S
C979 C977 1.327 . S
C979 C995 1.429 . S
C979 H1001 0.950 . S
C980 H976 0.949 . S
C980 C988 1.574 . S
C980 C996 1.368 1_565 S
H981 C989 0.950 . S
H982 C987 0.950 . S
H983 C988 0.949 . S
H984 C990 0.950 . S
H985 C991 0.950 . S
H986 C992 0.949 . S
C987 H982 0.950 . S
C987 C989 1.327 . S
C987 C993 1.429 . S
C988 C980 1.574 . S
C988 H983 0.949 . S
C988 C994 1.368 1_565 S
C989 C973 1.349 . S
C989 H981 0.950 . S
C989 C987 1.327 . S
C990 C978 1.349 1_565 S
C990 H984 0.950 . S
C990 C991 1.327 . S
C991 H985 0.950 . S
C991 C990 1.327 . S
C991 C995 1.429 1_565 S
C992 C975 1.574 . S
C992 H986 0.949 . S
C992 C996 1.368 . S
C993 C974 1.429 1_545 S
C993 C987 1.429 . S
C993 C994 1.523 . S
C994 C975 1.368 . S
C994 C988 1.368 1_545 S
C994 C993 1.523 . S
C995 C979 1.429 . S
C995 C991 1.429 1_545 S
C995 C996 1.523 . S
C996 C980 1.368 1_545 S
C996 C992 1.368 . S
C996 C995 1.523 . S
H997 C972 0.950 . S
H998 C974 0.950 . S
H999 C975 0.949 . S
H1000 C977 0.950 . S
H1001 C979 0.950 . S
C1002 C1003 1.349 . S
C1002 C1004 1.327 . S
C1002 H1027 0.950 . S
C1003 C1002 1.349 . S
C1003 C1019 1.349 . S
C1004 C1002 1.327 . S
C1004 C1023 1.429 . S
C1004 H1028 0.950 . S
C1005 C1022 1.574 . S
C1005 C1024 1.368 . S
C1005 H1029 0.949 . S
H1006 C1010 0.949 . S
C1007 C1008 1.349 . S
C1007 C1009 1.327 . S
C1007 H1030 0.950 . S
C1008 C1007 1.349 . S
C1008 C1020 1.349 . S
C1009 C1007 1.327 . S
C1009 C1025 1.429 . S
C1009 H1031 0.950 . S
C1010 H1006 0.949 . S
C1010 C1018 1.574 . S
C1010 C1026 1.368 . S
H1011 C1019 0.950 . S
H1012 C1017 0.950 . S
H1013 C1018 0.949 . S
H1014 C1020 0.950 . S
H1015 C1021 0.950 . S
H1016 C1022 0.949 . S
C1017 H1012 0.950 . S
C1017 C1019 1.327 . S
C1017 C1023 1.429 . S
C1018 C1010 1.574 . S
C1018 H1013 0.949 . S
C1018 C1024 1.368 . S
C1019 C1003 1.349 . S
C1019 H1011 0.950 . S
C1019 C1017 1.327 . S
C1020 C1008 1.349 . S
C1020 H1014 0.950 . S
C1020 C1021 1.327 . S
C1021 H1015 0.950 . S
C1021 C1020 1.327 . S
C1021 C1025 1.429 . S
C1022 C1005 1.574 . S
C1022 H1016 0.949 . S
C1022 C1026 1.368 . S
C1023 C1004 1.429 . S
C1023 C1017 1.429 . S
C1023 C1024 1.523 . S
C1024 C1005 1.368 . S
C1024 C1018 1.368 . S
C1024 C1023 1.523 . S
C1025 C1009 1.429 . S
C1025 C1021 1.429 . S
C1025 C1026 1.523 . S
C1026 C1010 1.368 . S
C1026 C1022 1.368 . S
C1026 C1025 1.523 . S
H1027 C1002 0.950 . S
H1028 C1004 0.950 . S
H1029 C1005 0.949 . S
H1030 C1007 0.950 . S
H1031 C1009 0.950 . S
C1032 C1033 1.349 1_565 S
C1032 C1034 1.327 . S
C1032 H1057 0.950 . S
C1033 C1032 1.349 1_545 S
C1033 C1049 1.349 . S
C1034 C1032 1.327 . S
C1034 C1053 1.429 1_565 S
C1034 H1058 0.950 . S
C1035 C1052 1.574 . S
C1035 C1054 1.368 . S
C1035 H1059 0.949 . S
H1036 C1040 0.949 . S
C1037 C1038 1.349 . S
C1037 C1039 1.327 . S
C1037 H1060 0.950 . S
C1038 C1037 1.349 . S
C1038 C1050 1.349 1_545 S
C1039 C1037 1.327 . S
C1039 C1055 1.429 . S
C1039 H1061 0.950 . S
C1040 H1036 0.949 . S
C1040 C1048 1.574 . S
C1040 C1056 1.368 1_565 S
H1041 C1049 0.950 . S
H1042 C1047 0.950 . S
H1043 C1048 0.949 . S
H1044 C1050 0.950 . S
H1045 C1051 0.950 . S
H1046 C1052 0.949 . S
C1047 H1042 0.950 . S
C1047 C1049 1.327 . S
C1047 C1053 1.429 . S
C1048 C1040 1.574 . S
C1048 H1043 0.949 . S
C1048 C1054 1.368 1_565 S
C1049 C1033 1.349 . S
C1049 H1041 0.950 . S
C1049 C1047 1.327 . S
C1050 C1038 1.349 1_565 S
C1050 H1044 0.950 . S
C1050 C1051 1.327 . S
C1051 H1045 0.950 . S
C1051 C1050 1.327 . S
C1051 C1055 1.429 1_565 S
C1052 C1035 1.574 . S
C1052 H1046 0.949 . S
C1052 C1056 1.368 . S
C1053 C1034 1.429 1_545 S
C1053 C1047 1.429 . S
C1053 C1054 1.523 . S
C1054 C1035 1.368 . S
C1054 C1048 1.368 1_545 S
C1054 C1053 1.523 . S
C1055 C1039 1.429 . S
C1055 C1051 1.429 1_545 S
C1055 C1056 1.523 . S
C1056 C1040 1.368 1_545 S
C1056 C1052 1.368 . S
C1056 C1055 1.523 . S
H1057 C1032 0.950 . S
H1058 C1034 0.950 . S
H1059 C1035 0.949 . S
H1060 C1037 0.950 . S
H1061 C1039 0.950 . S
C1062 C1063 1.349 . S
C1062 C1064 1.327 . S
C1062 H1087 0.950 . S
C1063 C1062 1.349 . S
C1063 C1079 1.349 . S
C1064 C1062 1.327 . S
C1064 C1083 1.429 . S
C1064 H1088 0.950 . S
C1065 C1082 1.574 . S
C1065 C1084 1.368 . S
C1065 H1089 0.949 . S
H1066 C1070 0.949 . S
C1067 C1068 1.349 . S
C1067 C1069 1.327 . S
C1067 H1090 0.950 . S
C1068 C1067 1.349 . S
C1068 C1080 1.349 . S
C1069 C1067 1.327 . S
C1069 C1085 1.429 . S
C1069 H1091 0.950 . S
C1070 H1066 0.949 . S
C1070 C1078 1.574 . S
C1070 C1086 1.368 . S
H1071 C1079 0.950 . S
H1072 C1077 0.950 . S
H1073 C1078 0.949 . S
H1074 C1080 0.950 . S
H1075 C1081 0.950 . S
H1076 C1082 0.949 . S
C1077 H1072 0.950 . S
C1077 C1079 1.327 . S
C1077 C1083 1.429 . S
C1078 C1070 1.574 . S
C1078 H1073 0.949 . S
C1078 C1084 1.368 . S
C1079 C1063 1.349 . S
C1079 H1071 0.950 . S
C1079 C1077 1.327 . S
C1080 C1068 1.349 . S
C1080 H1074 0.950 . S
C1080 C1081 1.327 . S
C1081 H1075 0.950 . S
C1081 C1080 1.327 . S
C1081 C1085 1.429 . S
C1082 C1065 1.574 . S
C1082 H1076 0.949 . S
C1082 C1086 1.368 . S
C1083 C1064 1.429 . S
C1083 C1077 1.429 . S
C1083 C1084 1.523 . S
C1084 C1065 1.368 . S
C1084 C1078 1.368 . S
C1084 C1083 1.523 . S
C1085 C1069 1.429 . S
C1085 C1081 1.429 . S
C1085 C1086 1.523 . S
C1086 C1070 1.368 . S
C1086 C1082 1.368 . S
C1086 C1085 1.523 . S
H1087 C1062 0.950 . S
H1088 C1064 0.950 . S
H1089 C1065 0.949 . S
H1090 C1067 0.950 . S
H1091 C1069 0.950 . S
C1092 C1093 1.349 . S
C1092 C1094 1.327 . S
C1092 H1117 0.950 . S
C1093 C1092 1.349 . S
C1093 C1109 1.349 1_545 S
C1094 C1092 1.327 . S
C1094 C1113 1.429 . S
C1094 H1118 0.950 . S
C1095 C1112 1.574 . S
C1095 C1114 1.368 1_565 S
C1095 H1119 0.949 . S
H1096 C1100 0.949 . S
C1097 C1098 1.349 . S
C1097 C1099 1.327 . S
C1097 H1120 0.950 . S
C1098 C1097 1.349 . S
C1098 C1110 1.349 1_565 S
C1099 C1097 1.327 . S
C1099 C1115 1.427 1_565 S
C1099 H1121 0.950 . S
C1100 H1096 0.949 . S
C1100 C1108 1.574 . S
C1100 C1116 1.417 . S
H1101 C1109 0.950 . S
H1102 C1107 0.950 . S
H1103 C1108 0.949 . S
H1104 C1110 0.950 . S
H1105 C1111 0.950 . S
H1106 C1112 0.949 . S
C1107 H1102 0.950 . S
C1107 C1109 1.327 . S
C1107 C1113 1.429 1_565 S
C1108 C1100 1.574 . S
C1108 H1103 0.949 . S
C1108 C1114 1.368 . S
C1109 C1093 1.349 1_565 S
C1109 H1101 0.950 . S
C1109 C1107 1.327 . S
C1110 C1098 1.349 1_545 S
C1110 H1104 0.950 . S
C1110 C1111 1.327 . S
C1111 H1105 0.950 . S
C1111 C1110 1.327 . S
C1111 C1115 1.430 . S
C1112 C1095 1.574 . S
C1112 H1106 0.949 . S
C1112 C1116 1.323 1_565 S
C1113 C1094 1.429 . S
C1113 C1107 1.429 1_545 S
C1113 C1114 1.523 . S
C1114 C1095 1.368 1_545 S
C1114 C1108 1.368 . S
C1114 C1113 1.523 . S
C1115 C1099 1.427 1_545 S
C1115 C1111 1.430 . S
C1115 C1116 1.520 . S
C1116 C1100 1.417 . S
C1116 C1112 1.323 1_545 S
C1116 C1115 1.520 . S
H1117 C1092 0.950 . S
H1118 C1094 0.950 . S
H1119 C1095 0.949 . S
H1120 C1097 0.950 . S
H1121 C1099 0.950 . S
C1122 C1123 1.349 . S
C1122 C1124 1.327 . S
C1122 H1147 0.950 . S
C1123 C1122 1.349 . S
C1123 C1139 1.349 . S
C1124 C1122 1.327 . S
C1124 C1143 1.429 . S
C1124 H1148 0.950 . S
C1125 C1142 1.574 . S
C1125 C1144 1.368 . S
C1125 H1149 0.949 . S
H1126 C1130 0.949 . S
C1127 C1128 1.349 . S
C1127 C1129 1.327 . S
C1127 H1150 0.950 . S
C1128 C1127 1.349 . S
C1128 C1140 1.349 . S
C1129 C1127 1.327 . S
C1129 C1145 1.429 . S
C1129 H1151 0.950 . S
C1130 H1126 0.949 . S
C1130 C1138 1.574 . S
C1130 C1146 1.368 . S
H1131 C1139 0.950 . S
H1132 C1137 0.950 . S
H1133 C1138 0.949 . S
H1134 C1140 0.950 . S
H1135 C1141 0.950 . S
H1136 C1142 0.949 . S
C1137 H1132 0.950 . S
C1137 C1139 1.327 . S
C1137 C1143 1.429 . S
C1138 C1130 1.574 . S
C1138 H1133 0.949 . S
C1138 C1144 1.368 . S
C1139 C1123 1.349 . S
C1139 H1131 0.950 . S
C1139 C1137 1.327 . S
C1140 C1128 1.349 . S
C1140 H1134 0.950 . S
C1140 C1141 1.327 . S
C1141 H1135 0.950 . S
C1141 C1140 1.327 . S
C1141 C1145 1.429 . S
C1142 C1125 1.574 . S
C1142 H1136 0.949 . S
C1142 C1146 1.368 . S
C1143 C1124 1.429 . S
C1143 C1137 1.429 . S
C1143 C1144 1.523 . S
C1144 C1125 1.368 . S
C1144 C1138 1.368 . S
C1144 C1143 1.523 . S
C1145 C1129 1.429 . S
C1145 C1141 1.429 . S
C1145 C1146 1.523 . S
C1146 C1130 1.368 . S
C1146 C1142 1.368 . S
C1146 C1145 1.523 . S
H1147 C1122 0.950 . S
H1148 C1124 0.950 . S
H1149 C1125 0.949 . S
H1150 C1127 0.950 . S
H1151 C1129 0.950 . S
C1152 C1153 1.349 1_556 S
C1152 C1154 1.327 . S
C1152 H1177 0.950 . S
C1153 C1152 1.349 1_554 S
C1153 C1169 1.349 . S
C1154 C1152 1.327 . S
C1154 C1173 1.429 1_556 S
C1154 H1178 0.950 . S
C1155 C1172 1.574 . S
C1155 C1174 1.368 . S
C1155 H1179 0.949 . S
H1156 C1160 0.949 . S
C1157 C1158 1.319 1_554 S
C1157 C1159 1.327 . S
C1157 H1180 0.950 . S
C1158 C1157 1.319 1_556 S
C1158 C1170 1.379 . S
C1159 C1157 1.327 . S
C1159 C1175 1.450 . S
C1159 H1181 0.950 . S
C1160 H1156 0.949 . S
C1160 C1168 1.574 . S
C1160 C1176 1.368 1_556 S
H1161 C1169 0.950 . S
H1162 C1167 0.950 . S
H1163 C1168 0.949 . S
H1164 C1170 0.950 . S
H1165 C1171 0.950 . S
H1166 C1172 0.949 . S
C1167 H1162 0.950 . S
C1167 C1169 1.327 . S
C1167 C1173 1.429 . S
C1168 C1160 1.574 . S
C1168 H1163 0.949 . S
C1168 C1174 1.368 1_556 S
C1169 C1153 1.349 . S
C1169 H1161 0.950 . S
C1169 C1167 1.327 . S
C1170 C1158 1.379 . S
C1170 H1164 0.950 . S
C1170 C1171 1.327 . S
C1171 H1165 0.950 . S
C1171 C1170 1.327 . S
C1171 C1175 1.406 1_556 S
C1172 C1155 1.574 . S
C1172 H1166 0.949 . S
C1172 C1176 1.368 . S
C1173 C1154 1.429 1_554 S
C1173 C1167 1.429 . S
C1173 C1174 1.523 . S
C1174 C1155 1.368 . S
C1174 C1168 1.368 1_554 S
C1174 C1173 1.523 . S
C1175 C1159 1.450 . S
C1175 C1171 1.406 1_554 S
C1175 C1176 1.524 . S
C1176 C1160 1.368 1_554 S
C1176 C1172 1.368 . S
C1176 C1175 1.524 . S
H1177 C1152 0.950 . S
H1178 C1154 0.950 . S
H1179 C1155 0.949 . S
H1180 C1157 0.950 . S
H1181 C1159 0.950 . S
C1182 C1183 1.349 . S
C1182 C1184 1.327 . S
C1182 H1207 0.950 . S
C1183 C1182 1.349 . S
C1183 C1199 1.349 1_554 S
C1184 C1182 1.327 . S
C1184 C1203 1.429 . S
C1184 H1208 0.950 . S
C1185 C1202 1.574 . S
C1185 C1204 1.368 1_556 S
C1185 H1209 0.949 . S
H1186 C1190 0.949 . S
C1187 C1188 1.349 1_556 S
C1187 C1189 1.327 . S
C1187 H1210 0.950 . S
C1188 C1187 1.349 1_554 S
C1188 C1200 1.349 . S
C1189 C1187 1.327 . S
C1189 C1205 1.429 1_556 S
C1189 H1211 0.950 . S
C1190 H1186 0.949 . S
C1190 C1198 1.574 . S
C1190 C1206 1.368 . S
H1191 C1199 0.950 . S
H1192 C1197 0.950 . S
H1193 C1198 0.949 . S
H1194 C1200 0.950 . S
H1195 C1201 0.950 . S
H1196 C1202 0.949 . S
C1197 H1192 0.950 . S
C1197 C1199 1.327 . S
C1197 C1203 1.429 1_556 S
C1198 C1190 1.574 . S
C1198 H1193 0.949 . S
C1198 C1204 1.368 . S
C1199 C1183 1.349 1_556 S
C1199 H1191 0.950 . S
C1199 C1197 1.327 . S
C1200 C1188 1.349 . S
C1200 H1194 0.950 . S
C1200 C1201 1.327 . S
C1201 H1195 0.950 . S
C1201 C1200 1.327 . S
C1201 C1205 1.429 . S
C1202 C1185 1.574 . S
C1202 H1196 0.949 . S
C1202 C1206 1.368 1_556 S
C1203 C1184 1.429 . S
C1203 C1197 1.429 1_554 S
C1203 C1204 1.523 . S
C1204 C1185 1.368 1_554 S
C1204 C1198 1.368 . S
C1204 C1203 1.523 . S
C1205 C1189 1.429 1_554 S
C1205 C1201 1.429 . S
C1205 C1206 1.523 . S
C1206 C1190 1.368 . S
C1206 C1202 1.368 1_554 S
C1206 C1205 1.523 . S
H1207 C1182 0.950 . S
H1208 C1184 0.950 . S
H1209 C1185 0.949 . S
H1210 C1187 0.950 . S
H1211 C1189 0.950 . S
C1212 C1213 1.349 . S
C1212 C1214 1.327 . S
C1212 H1237 0.950 . S
C1213 C1212 1.349 . S
C1213 C1229 1.349 . S
C1214 C1212 1.327 . S
C1214 C1233 1.429 . S
C1214 H1238 0.950 . S
C1215 C1232 1.574 . S
C1215 C1234 1.368 . S
C1215 H1239 0.949 . S
H1216 C1220 0.949 . S
C1217 C1218 1.349 . S
C1217 C1219 1.327 . S
C1217 H1240 0.950 . S
C1218 C1217 1.349 . S
C1218 C1230 1.349 . S
C1219 C1217 1.327 . S
C1219 C1235 1.429 . S
C1219 H1241 0.950 . S
C1220 H1216 0.949 . S
C1220 C1228 1.574 . S
C1220 C1236 1.368 . S
H1221 C1229 0.950 . S
H1222 C1227 0.950 . S
H1223 C1228 0.949 . S
H1224 C1230 0.950 . S
H1225 C1231 0.950 . S
H1226 C1232 0.949 . S
C1227 H1222 0.950 . S
C1227 C1229 1.327 . S
C1227 C1233 1.429 . S
C1228 C1220 1.574 . S
C1228 H1223 0.949 . S
C1228 C1234 1.368 . S
C1229 C1213 1.349 . S
C1229 H1221 0.950 . S
C1229 C1227 1.327 . S
C1230 C1218 1.349 . S
C1230 H1224 0.950 . S
C1230 C1231 1.327 . S
C1231 H1225 0.950 . S
C1231 C1230 1.327 . S
C1231 C1235 1.429 . S
C1232 C1215 1.574 . S
C1232 H1226 0.949 . S
C1232 C1236 1.368 . S
C1233 C1214 1.429 . S
C1233 C1227 1.429 . S
C1233 C1234 1.523 . S
C1234 C1215 1.368 . S
C1234 C1228 1.368 . S
C1234 C1233 1.523 . S
C1235 C1219 1.429 . S
C1235 C1231 1.429 . S
C1235 C1236 1.523 . S
C1236 C1220 1.368 . S
C1236 C1232 1.368 . S
C1236 C1235 1.523 . S
H1237 C1212 0.950 . S
H1238 C1214 0.950 . S
H1239 C1215 0.949 . S
H1240 C1217 0.950 . S
H1241 C1219 0.950 . S
C1242 C1243 1.349 . S
C1242 C1244 1.327 . S
C1242 H1267 0.950 . S
C1243 C1242 1.349 . S
C1243 C1259 1.349 . S
C1244 C1242 1.327 . S
C1244 C1263 1.429 . S
C1244 H1268 0.950 . S
C1245 C1262 1.574 . S
C1245 C1264 1.368 . S
C1245 H1269 0.949 . S
H1246 C1250 0.949 . S
C1247 C1248 1.349 . S
C1247 C1249 1.327 . S
C1247 H1270 0.950 . S
C1248 C1247 1.349 . S
C1248 C1260 1.349 . S
C1249 C1247 1.327 . S
C1249 C1265 1.429 . S
C1249 H1271 0.950 . S
C1250 H1246 0.949 . S
C1250 C1258 1.574 . S
C1250 C1266 1.368 . S
H1251 C1259 0.950 . S
H1252 C1257 0.950 . S
H1253 C1258 0.949 . S
H1254 C1260 0.950 . S
H1255 C1261 0.950 . S
H1256 C1262 0.949 . S
C1257 H1252 0.950 . S
C1257 C1259 1.327 . S
C1257 C1263 1.429 . S
C1258 C1250 1.574 . S
C1258 H1253 0.949 . S
C1258 C1264 1.368 . S
C1259 C1243 1.349 . S
C1259 H1251 0.950 . S
C1259 C1257 1.327 . S
C1260 C1248 1.349 . S
C1260 H1254 0.950 . S
C1260 C1261 1.327 . S
C1261 H1255 0.950 . S
C1261 C1260 1.327 . S
C1261 C1265 1.429 . S
C1262 C1245 1.574 . S
C1262 H1256 0.949 . S
C1262 C1266 1.368 . S
C1263 C1244 1.429 . S
C1263 C1257 1.429 . S
C1263 C1264 1.523 . S
C1264 C1245 1.368 . S
C1264 C1258 1.368 . S
C1264 C1263 1.523 . S
C1265 C1249 1.429 . S
C1265 C1261 1.429 . S
C1265 C1266 1.523 . S
C1266 C1250 1.368 . S
C1266 C1262 1.368 . S
C1266 C1265 1.523 . S
H1267 C1242 0.950 . S
H1268 C1244 0.950 . S
H1269 C1245 0.949 . S
H1270 C1247 0.950 . S
H1271 C1249 0.950 . S
C1272 C1273 1.349 . S
C1272 C1274 1.327 . S
C1272 H1297 0.950 . S
C1273 C1272 1.349 . S
C1273 C1289 1.349 . S
C1274 C1272 1.327 . S
C1274 C1293 1.429 . S
C1274 H1298 0.950 . S
C1275 C1292 1.574 . S
C1275 C1294 1.368 . S
C1275 H1299 0.949 . S
H1276 C1280 0.949 . S
C1277 C1278 1.349 . S
C1277 C1279 1.327 . S
C1277 H1300 0.950 . S
C1278 C1277 1.349 . S
C1278 C1290 1.349 . S
C1279 C1277 1.327 . S
C1279 C1295 1.429 . S
C1279 H1301 0.950 . S
C1280 H1276 0.949 . S
C1280 C1288 1.574 . S
C1280 C1296 1.368 . S
H1281 C1289 0.950 . S
H1282 C1287 0.950 . S
H1283 C1288 0.949 . S
H1284 C1290 0.950 . S
H1285 C1291 0.950 . S
H1286 C1292 0.949 . S
C1287 H1282 0.950 . S
C1287 C1289 1.327 . S
C1287 C1293 1.429 . S
C1288 C1280 1.574 . S
C1288 H1283 0.949 . S
C1288 C1294 1.368 . S
C1289 C1273 1.349 . S
C1289 H1281 0.950 . S
C1289 C1287 1.327 . S
C1290 C1278 1.349 . S
C1290 H1284 0.950 . S
C1290 C1291 1.327 . S
C1291 H1285 0.950 . S
C1291 C1290 1.327 . S
C1291 C1295 1.429 . S
C1292 C1275 1.574 . S
C1292 H1286 0.949 . S
C1292 C1296 1.368 . S
C1293 C1274 1.429 . S
C1293 C1287 1.429 . S
C1293 C1294 1.523 . S
C1294 C1275 1.368 . S
C1294 C1288 1.368 . S
C1294 C1293 1.523 . S
C1295 C1279 1.429 . S
C1295 C1291 1.429 . S
C1295 C1296 1.523 . S
C1296 C1280 1.368 . S
C1296 C1292 1.368 . S
C1296 C1295 1.523 . S
H1297 C1272 0.950 . S
H1298 C1274 0.950 . S
H1299 C1275 0.949 . S
H1300 C1277 0.950 . S
H1301 C1279 0.950 . S
C1302 C1303 1.349 . S
C1302 C1304 1.327 . S
C1302 H1327 0.950 . S
C1303 C1302 1.349 . S
C1303 C1319 1.349 . S
C1304 C1302 1.327 . S
C1304 C1323 1.429 . S
C1304 H1328 0.950 . S
C1305 C1322 1.574 . S
C1305 C1324 1.368 . S
C1305 H1329 0.949 . S
H1306 C1310 0.949 . S
C1307 C1308 1.349 . S
C1307 C1309 1.327 . S
C1307 H1330 0.950 . S
C1308 C1307 1.349 . S
C1308 C1320 1.349 . S
C1309 C1307 1.327 . S
C1309 C1325 1.429 . S
C1309 H1331 0.950 . S
C1310 H1306 0.949 . S
C1310 C1318 1.574 . S
C1310 C1326 1.368 . S
H1311 C1319 0.950 . S
H1312 C1317 0.950 . S
H1313 C1318 0.949 . S
H1314 C1320 0.950 . S
H1315 C1321 0.950 . S
H1316 C1322 0.949 . S
C1317 H1312 0.950 . S
C1317 C1319 1.327 . S
C1317 C1323 1.429 . S
C1318 C1310 1.574 . S
C1318 H1313 0.949 . S
C1318 C1324 1.368 . S
C1319 C1303 1.349 . S
C1319 H1311 0.950 . S
C1319 C1317 1.327 . S
C1320 C1308 1.349 . S
C1320 H1314 0.950 . S
C1320 C1321 1.327 . S
C1321 H1315 0.950 . S
C1321 C1320 1.327 . S
C1321 C1325 1.429 . S
C1322 C1305 1.574 . S
C1322 H1316 0.949 . S
C1322 C1326 1.368 . S
C1323 C1304 1.429 . S
C1323 C1317 1.429 . S
C1323 C1324 1.523 . S
C1324 C1305 1.368 . S
C1324 C1318 1.368 . S
C1324 C1323 1.523 . S
C1325 C1309 1.429 . S
C1325 C1321 1.429 . S
C1325 C1326 1.523 . S
C1326 C1310 1.368 . S
C1326 C1322 1.368 . S
C1326 C1325 1.523 . S
H1327 C1302 0.950 . S
H1328 C1304 0.950 . S
H1329 C1305 0.949 . S
H1330 C1307 0.950 . S
H1331 C1309 0.950 . S
C1332 C1333 1.349 . S
C1332 C1334 1.327 . S
C1332 H1357 0.950 . S
C1333 C1332 1.349 . S
C1333 C1349 1.349 . S
C1334 C1332 1.327 . S
C1334 C1353 1.429 . S
C1334 H1358 0.950 . S
C1335 C1352 1.574 . S
C1335 C1354 1.368 . S
C1335 H1359 0.949 . S
H1336 C1340 0.949 . S
C1337 C1338 1.349 . S
C1337 C1339 1.327 . S
C1337 H1360 0.950 . S
C1338 C1337 1.349 . S
C1338 C1350 1.349 . S
C1339 C1337 1.327 . S
C1339 C1355 1.429 . S
C1339 H1361 0.950 . S
C1340 H1336 0.949 . S
C1340 C1348 1.574 . S
C1340 C1356 1.368 . S
H1341 C1349 0.950 . S
H1342 C1347 0.950 . S
H1343 C1348 0.949 . S
H1344 C1350 0.950 . S
H1345 C1351 0.950 . S
H1346 C1352 0.949 . S
C1347 H1342 0.950 . S
C1347 C1349 1.327 . S
C1347 C1353 1.429 . S
C1348 C1340 1.574 . S
C1348 H1343 0.949 . S
C1348 C1354 1.368 . S
C1349 C1333 1.349 . S
C1349 H1341 0.950 . S
C1349 C1347 1.327 . S
C1350 C1338 1.349 . S
C1350 H1344 0.950 . S
C1350 C1351 1.327 . S
C1351 H1345 0.950 . S
C1351 C1350 1.327 . S
C1351 C1355 1.429 . S
C1352 C1335 1.574 . S
C1352 H1346 0.949 . S
C1352 C1356 1.368 . S
C1353 C1334 1.429 . S
C1353 C1347 1.429 . S
C1353 C1354 1.523 . S
C1354 C1335 1.368 . S
C1354 C1348 1.368 . S
C1354 C1353 1.523 . S
C1355 C1339 1.429 . S
C1355 C1351 1.429 . S
C1355 C1356 1.523 . S
C1356 C1340 1.368 . S
C1356 C1352 1.368 . S
C1356 C1355 1.523 . S
H1357 C1332 0.950 . S
H1358 C1334 0.950 . S
H1359 C1335 0.949 . S
H1360 C1337 0.950 . S
H1361 C1339 0.950 . S
C1362 C1363 1.349 . S
C1362 C1364 1.327 . S
C1362 H1387 0.950 . S
C1363 C1362 1.349 . S
C1363 C1379 1.349 . S
C1364 C1362 1.327 . S
C1364 C1383 1.429 . S
C1364 H1388 0.950 . S
C1365 C1382 1.574 . S
C1365 C1384 1.368 . S
C1365 H1389 0.949 . S
H1366 C1370 0.949 . S
C1367 C1368 1.349 . S
C1367 C1369 1.327 . S
C1367 H1390 0.950 . S
C1368 C1367 1.349 . S
C1368 C1380 1.349 . S
C1369 C1367 1.327 . S
C1369 C1385 1.429 . S
C1369 H1391 0.950 . S
C1370 H1366 0.949 . S
C1370 C1378 1.574 . S
C1370 C1386 1.368 . S
H1371 C1379 0.950 . S
H1372 C1377 0.950 . S
H1373 C1378 0.949 . S
H1374 C1380 0.950 . S
H1375 C1381 0.950 . S
H1376 C1382 0.949 . S
C1377 H1372 0.950 . S
C1377 C1379 1.327 . S
C1377 C1383 1.429 . S
C1378 C1370 1.574 . S
C1378 H1373 0.949 . S
C1378 C1384 1.368 . S
C1379 C1363 1.349 . S
C1379 H1371 0.950 . S
C1379 C1377 1.327 . S
C1380 C1368 1.349 . S
C1380 H1374 0.950 . S
C1380 C1381 1.327 . S
C1381 H1375 0.950 . S
C1381 C1380 1.327 . S
C1381 C1385 1.429 . S
C1382 C1365 1.574 . S
C1382 H1376 0.949 . S
C1382 C1386 1.368 . S
C1383 C1364 1.429 . S
C1383 C1377 1.429 . S
C1383 C1384 1.523 . S
C1384 C1365 1.368 . S
C1384 C1378 1.368 . S
C1384 C1383 1.523 . S
C1385 C1369 1.429 . S
C1385 C1381 1.429 . S
C1385 C1386 1.523 . S
C1386 C1370 1.368 . S
C1386 C1382 1.368 . S
C1386 C1385 1.523 . S
H1387 C1362 0.950 . S
H1388 C1364 0.950 . S
H1389 C1365 0.949 . S
H1390 C1367 0.950 . S
H1391 C1369 0.950 . S
C1392 C1393 1.349 . S
C1392 C1394 1.327 . S
C1392 H1417 0.950 . S
C1393 C1392 1.349 . S
C1393 C1409 1.349 1_455 S
C1394 C1392 1.327 . S
C1394 C1413 1.429 . S
C1394 H1418 0.950 . S
C1395 C1412 1.573 1_655 S
C1395 C1414 1.368 1_655 S
C1395 H1419 0.949 . S
H1396 C1400 0.949 . S
C1397 C1398 1.349 . S
C1397 C1399 1.327 . S
C1397 H1420 0.995 1_455 S
C1398 C1397 1.349 . S
C1398 C1410 1.349 . S
C1399 C1397 1.327 . S
C1399 C1415 1.429 . S
C1399 H1421 0.950 1_455 S
C1400 H1396 0.949 . S
C1400 C1408 1.574 . S
C1400 C1416 1.368 . S
H1401 C1409 0.950 . S
H1402 C1407 0.950 . S
H1403 C1408 0.949 . S
H1404 C1410 0.950 . S
H1405 C1411 0.950 . S
H1406 C1412 0.928 1_655 S
C1407 H1402 0.950 . S
C1407 C1409 1.327 . S
C1407 C1413 1.429 1_655 S
C1408 C1400 1.574 . S
C1408 H1403 0.949 . S
C1408 C1414 1.368 . S
C1409 C1393 1.349 1_655 S
C1409 H1401 0.950 . S
C1409 C1407 1.327 . S
C1410 C1398 1.349 . S
C1410 H1404 0.950 . S
C1410 C1411 1.327 . S
C1411 H1405 0.950 . S
C1411 C1410 1.327 . S
C1411 C1415 1.429 . S
C1412 C1395 1.573 1_455 S
C1412 H1406 0.928 1_455 S
C1412 C1416 1.395 . S
C1413 C1394 1.429 . S
C1413 C1407 1.429 1_455 S
C1413 C1414 1.523 . S
C1414 C1395 1.368 1_455 S
C1414 C1408 1.368 . S
C1414 C1413 1.523 . S
C1415 C1399 1.429 . S
C1415 C1411 1.429 . S
C1415 C1416 1.523 . S
C1416 C1400 1.368 . S
C1416 C1412 1.395 . S
C1416 C1415 1.523 . S
H1417 C1392 0.950 . S
H1418 C1394 0.950 . S
H1419 C1395 0.949 . S
H1420 C1397 0.995 1_655 S
H1421 C1399 0.950 1_655 S
C1422 C1423 1.349 . S
C1422 C1424 1.327 . S
C1422 H1447 0.950 . S
C1423 C1422 1.349 . S
C1423 C1439 1.349 . S
C1424 C1422 1.327 . S
C1424 C1443 1.429 . S
C1424 H1448 0.950 . S
C1425 C1442 1.574 . S
C1425 C1444 1.368 . S
C1425 H1449 0.949 . S
H1426 C1430 0.949 . S
C1427 C1428 1.349 . S
C1427 C1429 1.327 . S
C1427 H1450 0.950 . S
C1428 C1427 1.349 . S
C1428 C1440 1.349 . S
C1429 C1427 1.327 . S
C1429 C1445 1.429 . S
C1429 H1451 0.950 . S
C1430 H1426 0.949 . S
C1430 C1438 1.574 . S
C1430 C1446 1.368 . S
H1431 C1439 0.950 . S
H1432 C1437 0.950 . S
H1433 C1438 0.949 . S
H1434 C1440 0.950 . S
H1435 C1441 0.950 . S
H1436 C1442 0.949 . S
C1437 H1432 0.950 . S
C1437 C1439 1.327 . S
C1437 C1443 1.429 . S
C1438 C1430 1.574 . S
C1438 H1433 0.949 . S
C1438 C1444 1.368 . S
C1439 C1423 1.349 . S
C1439 H1431 0.950 . S
C1439 C1437 1.327 . S
C1440 C1428 1.349 . S
C1440 H1434 0.950 . S
C1440 C1441 1.327 . S
C1441 H1435 0.950 . S
C1441 C1440 1.327 . S
C1441 C1445 1.429 . S
C1442 C1425 1.574 . S
C1442 H1436 0.949 . S
C1442 C1446 1.368 . S
C1443 C1424 1.429 . S
C1443 C1437 1.429 . S
C1443 C1444 1.523 . S
C1444 C1425 1.368 . S
C1444 C1438 1.368 . S
C1444 C1443 1.523 . S
C1445 C1429 1.429 . S
C1445 C1441 1.429 . S
C1445 C1446 1.523 . S
C1446 C1430 1.368 . S
C1446 C1442 1.368 . S
C1446 C1445 1.523 . S
H1447 C1422 0.950 . S
H1448 C1424 0.950 . S
H1449 C1425 0.949 . S
H1450 C1427 0.950 . S
H1451 C1429 0.950 . S
C1452 C1453 1.349 . S
C1452 C1454 1.327 . S
C1452 H1477 0.950 . S
C1453 C1452 1.349 . S
C1453 C1469 1.349 . S
C1454 C1452 1.327 . S
C1454 C1473 1.429 . S
C1454 H1478 0.950 . S
C1455 C1472 1.574 . S
C1455 C1474 1.368 . S
C1455 H1479 0.949 . S
H1456 C1460 0.949 . S
C1457 C1458 1.349 . S
C1457 C1459 1.327 . S
C1457 H1480 0.950 . S
C1458 C1457 1.349 . S
C1458 C1470 1.349 . S
C1459 C1457 1.327 . S
C1459 C1475 1.429 . S
C1459 H1481 0.950 . S
C1460 H1456 0.949 . S
C1460 C1468 1.574 . S
C1460 C1476 1.368 . S
H1461 C1469 0.950 . S
H1462 C1467 0.950 . S
H1463 C1468 0.949 . S
H1464 C1470 0.950 . S
H1465 C1471 0.950 . S
H1466 C1472 0.949 . S
C1467 H1462 0.950 . S
C1467 C1469 1.327 . S
C1467 C1473 1.429 . S
C1468 C1460 1.574 . S
C1468 H1463 0.949 . S
C1468 C1474 1.368 . S
C1469 C1453 1.349 . S
C1469 H1461 0.950 . S
C1469 C1467 1.327 . S
C1470 C1458 1.349 . S
C1470 H1464 0.950 . S
C1470 C1471 1.327 . S
C1471 H1465 0.950 . S
C1471 C1470 1.327 . S
C1471 C1475 1.429 . S
C1472 C1455 1.574 . S
C1472 H1466 0.949 . S
C1472 C1476 1.368 . S
C1473 C1454 1.429 . S
C1473 C1467 1.429 . S
C1473 C1474 1.523 . S
C1474 C1455 1.368 . S
C1474 C1468 1.368 . S
C1474 C1473 1.523 . S
C1475 C1459 1.429 . S
C1475 C1471 1.429 . S
C1475 C1476 1.523 . S
C1476 C1460 1.368 . S
C1476 C1472 1.368 . S
C1476 C1475 1.523 . S
H1477 C1452 0.950 . S
H1478 C1454 0.950 . S
H1479 C1455 0.949 . S
H1480 C1457 0.950 . S
H1481 C1459 0.950 . S
C1482 C1483 1.349 . S
C1482 C1484 1.327 . S
C1482 H1507 0.950 . S
C1483 C1482 1.349 . S
C1483 C1499 1.349 . S
C1484 C1482 1.327 . S
C1484 C1503 1.429 . S
C1484 H1508 0.950 . S
C1485 C1502 1.574 . S
C1485 C1504 1.368 . S
C1485 H1509 0.949 . S
H1486 C1490 0.949 . S
C1487 C1488 1.349 . S
C1487 C1489 1.327 . S
C1487 H1510 0.950 . S
C1488 C1487 1.349 . S
C1488 C1500 1.349 . S
C1489 C1487 1.327 . S
C1489 C1505 1.429 . S
C1489 H1511 0.950 . S
C1490 H1486 0.949 . S
C1490 C1498 1.574 . S
C1490 C1506 1.368 . S
H1491 C1499 0.950 . S
H1492 C1497 0.950 . S
H1493 C1498 0.949 . S
H1494 C1500 0.950 . S
H1495 C1501 0.950 . S
H1496 C1502 0.949 . S
C1497 H1492 0.950 . S
C1497 C1499 1.327 . S
C1497 C1503 1.429 . S
C1498 C1490 1.574 . S
C1498 H1493 0.949 . S
C1498 C1504 1.368 . S
C1499 C1483 1.349 . S
C1499 H1491 0.950 . S
C1499 C1497 1.327 . S
C1500 C1488 1.349 . S
C1500 H1494 0.950 . S
C1500 C1501 1.327 . S
C1501 H1495 0.950 . S
C1501 C1500 1.327 . S
C1501 C1505 1.429 . S
C1502 C1485 1.574 . S
C1502 H1496 0.949 . S
C1502 C1506 1.368 . S
C1503 C1484 1.429 . S
C1503 C1497 1.429 . S
C1503 C1504 1.523 . S
C1504 C1485 1.368 . S
C1504 C1498 1.368 . S
C1504 C1503 1.523 . S
C1505 C1489 1.429 . S
C1505 C1501 1.429 . S
C1505 C1506 1.523 . S
C1506 C1490 1.368 . S
C1506 C1502 1.368 . S
C1506 C1505 1.523 . S
H1507 C1482 0.950 . S
H1508 C1484 0.950 . S
H1509 C1485 0.949 . S
H1510 C1487 0.950 . S
H1511 C1489 0.950 . S
C1512 C1513 1.349 1_655 S
C1512 C1514 1.327 . S
C1512 H1537 0.950 . S
C1513 C1512 1.349 1_455 S
C1513 C1529 1.349 . S
C1514 C1512 1.327 . S
C1514 C1533 1.429 1_655 S
C1514 H1538 0.950 . S
C1515 C1532 1.574 . S
C1515 C1534 1.368 . S
C1515 H1539 0.949 . S
H1516 C1520 0.944 1_655 S
C1517 C1518 1.349 . S
C1517 C1519 1.327 . S
C1517 H1540 0.950 . S
C1518 C1517 1.349 . S
C1518 C1530 1.349 . S
C1519 C1517 1.327 . S
C1519 C1535 1.429 . S
C1519 H1541 0.950 . S
C1520 H1516 0.944 1_455 S
C1520 C1528 1.573 1_455 S
C1520 C1536 1.375 . S
H1521 C1529 0.950 . S
H1522 C1527 0.950 . S
H1523 C1528 0.949 . S
H1524 C1530 0.934 1_655 S
H1525 C1531 0.950 1_655 S
H1526 C1532 0.949 . S
C1527 H1522 0.950 . S
C1527 C1529 1.327 . S
C1527 C1533 1.429 . S
C1528 C1520 1.573 1_655 S
C1528 H1523 0.949 . S
C1528 C1534 1.368 1_655 S
C1529 C1513 1.349 . S
C1529 H1521 0.950 . S
C1529 C1527 1.327 . S
C1530 C1518 1.349 . S
C1530 H1524 0.934 1_455 S
C1530 C1531 1.327 . S
C1531 H1525 0.950 1_455 S
C1531 C1530 1.327 . S
C1531 C1535 1.429 . S
C1532 C1515 1.574 . S
C1532 H1526 0.949 . S
C1532 C1536 1.368 . S
C1533 C1514 1.429 1_455 S
C1533 C1527 1.429 . S
C1533 C1534 1.523 . S
C1534 C1515 1.368 . S
C1534 C1528 1.368 1_455 S
C1534 C1533 1.523 . S
C1535 C1519 1.429 . S
C1535 C1531 1.429 . S
C1535 C1536 1.523 . S
C1536 C1520 1.375 . S
C1536 C1532 1.368 . S
C1536 C1535 1.523 . S
H1537 C1512 0.950 . S
H1538 C1514 0.950 . S
H1539 C1515 0.949 . S
H1540 C1517 0.950 . S
H1541 C1519 0.950 . S
C1542 C1543 1.349 . S
C1542 C1544 1.327 . S
C1542 H1567 0.950 . S
C1543 C1542 1.349 . S
C1543 C1559 1.349 . S
C1544 C1542 1.327 . S
C1544 C1563 1.429 . S
C1544 H1568 0.950 . S
C1545 C1562 1.574 . S
C1545 C1564 1.368 . S
C1545 H1569 0.949 . S
H1546 C1550 0.949 . S
C1547 C1548 1.349 . S
C1547 C1549 1.327 . S
C1547 H1570 0.950 . S
C1548 C1547 1.349 . S
C1548 C1560 1.349 . S
C1549 C1547 1.327 . S
C1549 C1565 1.429 . S
C1549 H1571 0.950 . S
C1550 H1546 0.949 . S
C1550 C1558 1.574 . S
C1550 C1566 1.368 . S
H1551 C1559 0.950 . S
H1552 C1557 0.950 . S
H1553 C1558 0.949 . S
H1554 C1560 0.950 . S
H1555 C1561 0.950 . S
H1556 C1562 0.949 . S
C1557 H1552 0.950 . S
C1557 C1559 1.327 . S
C1557 C1563 1.429 . S
C1558 C1550 1.574 . S
C1558 H1553 0.949 . S
C1558 C1564 1.368 . S
C1559 C1543 1.349 . S
C1559 H1551 0.950 . S
C1559 C1557 1.327 . S
C1560 C1548 1.349 . S
C1560 H1554 0.950 . S
C1560 C1561 1.327 . S
C1561 H1555 0.950 . S
C1561 C1560 1.327 . S
C1561 C1565 1.429 . S
C1562 C1545 1.574 . S
C1562 H1556 0.949 . S
C1562 C1566 1.368 . S
C1563 C1544 1.429 . S
C1563 C1557 1.429 . S
C1563 C1564 1.523 . S
C1564 C1545 1.368 . S
C1564 C1558 1.368 . S
C1564 C1563 1.523 . S
C1565 C1549 1.429 . S
C1565 C1561 1.429 . S
C1565 C1566 1.523 . S
C1566 C1550 1.368 . S
C1566 C1562 1.368 . S
C1566 C1565 1.523 . S
H1567 C1542 0.950 . S
H1568 C1544 0.950 . S
H1569 C1545 0.949 . S
H1570 C1547 0.950 . S
H1571 C1549 0.950 . S
C1572 C1573 1.349 . S
C1572 C1574 1.327 . S
C1572 H1597 0.950 . S
C1573 C1572 1.349 . S
C1573 C1589 1.349 . S
C1574 C1572 1.327 . S
C1574 C1593 1.429 . S
C1574 H1598 0.950 . S
C1575 C1592 1.574 . S
C1575 C1594 1.368 . S
C1575 H1599 0.949 . S
H1576 C1580 0.949 . S
C1577 C1578 1.349 . S
C1577 C1579 1.327 . S
C1577 H1600 0.950 . S
C1578 C1577 1.349 . S
C1578 C1590 1.349 . S
C1579 C1577 1.327 . S
C1579 C1595 1.429 . S
C1579 H1601 0.950 . S
C1580 H1576 0.949 . S
C1580 C1588 1.574 . S
C1580 C1596 1.368 . S
H1581 C1589 0.950 . S
H1582 C1587 0.950 . S
H1583 C1588 0.949 . S
H1584 C1590 0.950 . S
H1585 C1591 0.950 . S
H1586 C1592 0.949 . S
C1587 H1582 0.950 . S
C1587 C1589 1.327 . S
C1587 C1593 1.429 . S
C1588 C1580 1.574 . S
C1588 H1583 0.949 . S
C1588 C1594 1.368 . S
C1589 C1573 1.349 . S
C1589 H1581 0.950 . S
C1589 C1587 1.327 . S
C1590 C1578 1.349 . S
C1590 H1584 0.950 . S
C1590 C1591 1.327 . S
C1591 H1585 0.950 . S
C1591 C1590 1.327 . S
C1591 C1595 1.429 . S
C1592 C1575 1.574 . S
C1592 H1586 0.949 . S
C1592 C1596 1.368 . S
C1593 C1574 1.429 . S
C1593 C1587 1.429 . S
C1593 C1594 1.523 . S
C1594 C1575 1.368 . S
C1594 C1588 1.368 . S
C1594 C1593 1.523 . S
C1595 C1579 1.429 . S
C1595 C1591 1.429 . S
C1595 C1596 1.523 . S
C1596 C1580 1.368 . S
C1596 C1592 1.368 . S
C1596 C1595 1.523 . S
H1597 C1572 0.950 . S
H1598 C1574 0.950 . S
H1599 C1575 0.949 . S
H1600 C1577 0.950 . S
H1601 C1579 0.950 . S
C1602 C1603 1.349 . S
C1602 C1604 1.327 . S
C1602 H1627 0.950 . S
C1603 C1602 1.349 . S
C1603 C1619 1.349 . S
C1604 C1602 1.327 . S
C1604 C1623 1.429 . S
C1604 H1628 0.950 . S
C1605 C1622 1.574 . S
C1605 C1624 1.368 . S
C1605 H1629 0.949 . S
H1606 C1610 0.949 . S
C1607 C1608 1.349 . S
C1607 C1609 1.327 . S
C1607 H1630 0.950 . S
C1608 C1607 1.349 . S
C1608 C1620 1.349 . S
C1609 C1607 1.327 . S
C1609 C1625 1.429 . S
C1609 H1631 0.950 . S
C1610 H1606 0.949 . S
C1610 C1618 1.574 . S
C1610 C1626 1.368 . S
H1611 C1619 0.950 . S
H1612 C1617 0.950 . S
H1613 C1618 0.949 . S
H1614 C1620 0.950 . S
H1615 C1621 0.950 . S
H1616 C1622 0.949 . S
C1617 H1612 0.950 . S
C1617 C1619 1.327 . S
C1617 C1623 1.429 . S
C1618 C1610 1.574 . S
C1618 H1613 0.949 . S
C1618 C1624 1.368 . S
C1619 C1603 1.349 . S
C1619 H1611 0.950 . S
C1619 C1617 1.327 . S
C1620 C1608 1.349 . S
C1620 H1614 0.950 . S
C1620 C1621 1.327 . S
C1621 H1615 0.950 . S
C1621 C1620 1.327 . S
C1621 C1625 1.429 . S
C1622 C1605 1.574 . S
C1622 H1616 0.949 . S
C1622 C1626 1.368 . S
C1623 C1604 1.429 . S
C1623 C1617 1.429 . S
C1623 C1624 1.523 . S
C1624 C1605 1.368 . S
C1624 C1618 1.368 . S
C1624 C1623 1.523 . S
C1625 C1609 1.429 . S
C1625 C1621 1.429 . S
C1625 C1626 1.523 . S
C1626 C1610 1.368 . S
C1626 C1622 1.368 . S
C1626 C1625 1.523 . S
H1627 C1602 0.950 . S
H1628 C1604 0.950 . S
H1629 C1605 0.949 . S
H1630 C1607 0.950 . S
H1631 C1609 0.950 . S
C1632 C1633 1.349 1_565 S
C1632 C1634 1.327 . S
C1632 H1657 0.950 . S
C1633 C1632 1.349 1_545 S
C1633 C1649 1.349 . S
C1634 C1632 1.327 . S
C1634 C1653 1.429 1_565 S
C1634 H1658 0.950 . S
C1635 C1652 1.574 . S
C1635 C1654 1.368 . S
C1635 H1659 0.949 . S
H1636 C1640 0.949 . S
C1637 C1638 1.349 . S
C1637 C1639 1.327 . S
C1637 H1660 0.950 . S
C1638 C1637 1.349 . S
C1638 C1650 1.349 1_545 S
C1639 C1637 1.327 . S
C1639 C1655 1.429 . S
C1639 H1661 0.950 . S
C1640 H1636 0.949 . S
C1640 C1648 1.574 . S
C1640 C1656 1.368 1_565 S
H1641 C1649 0.950 . S
H1642 C1647 0.950 . S
H1643 C1648 0.949 . S
H1644 C1650 0.950 . S
H1645 C1651 0.950 . S
H1646 C1652 0.949 . S
C1647 H1642 0.950 . S
C1647 C1649 1.327 . S
C1647 C1653 1.429 . S
C1648 C1640 1.574 . S
C1648 H1643 0.949 . S
C1648 C1654 1.368 1_565 S
C1649 C1633 1.349 . S
C1649 H1641 0.950 . S
C1649 C1647 1.327 . S
C1650 C1638 1.349 1_565 S
C1650 H1644 0.950 . S
C1650 C1651 1.327 . S
C1651 H1645 0.950 . S
C1651 C1650 1.327 . S
C1651 C1655 1.429 1_565 S
C1652 C1635 1.574 . S
C1652 H1646 0.949 . S
C1652 C1656 1.368 . S
C1653 C1634 1.429 1_545 S
C1653 C1647 1.429 . S
C1653 C1654 1.523 . S
C1654 C1635 1.368 . S
C1654 C1648 1.368 1_545 S
C1654 C1653 1.523 . S
C1655 C1639 1.429 . S
C1655 C1651 1.429 1_545 S
C1655 C1656 1.523 . S
C1656 C1640 1.368 1_545 S
C1656 C1652 1.368 . S
C1656 C1655 1.523 . S
H1657 C1632 0.950 . S
H1658 C1634 0.950 . S
H1659 C1635 0.949 . S
H1660 C1637 0.950 . S
H1661 C1639 0.950 . S
C1662 C1663 1.349 . S
C1662 C1664 1.327 . S
C1662 H1687 0.950 . S
C1663 C1662 1.349 . S
C1663 C1679 1.349 . S
C1664 C1662 1.327 . S
C1664 C1683 1.429 . S
C1664 H1688 0.950 . S
C1665 C1682 1.574 . S
C1665 C1684 1.368 . S
C1665 H1689 0.949 . S
H1666 C1670 0.949 . S
C1667 C1668 1.349 . S
C1667 C1669 1.327 . S
C1667 H1690 0.950 . S
C1668 C1667 1.349 . S
C1668 C1680 1.349 . S
C1669 C1667 1.327 . S
C1669 C1685 1.429 . S
C1669 H1691 0.950 . S
C1670 H1666 0.949 . S
C1670 C1678 1.574 . S
C1670 C1686 1.368 . S
H1671 C1679 0.950 . S
H1672 C1677 0.950 . S
H1673 C1678 0.949 . S
H1674 C1680 0.950 . S
H1675 C1681 0.950 . S
H1676 C1682 0.949 . S
C1677 H1672 0.950 . S
C1677 C1679 1.327 . S
C1677 C1683 1.429 . S
C1678 C1670 1.574 . S
C1678 H1673 0.949 . S
C1678 C1684 1.368 . S
C1679 C1663 1.349 . S
C1679 H1671 0.950 . S
C1679 C1677 1.327 . S
C1680 C1668 1.349 . S
C1680 H1674 0.950 . S
C1680 C1681 1.327 . S
C1681 H1675 0.950 . S
C1681 C1680 1.327 . S
C1681 C1685 1.429 . S
C1682 C1665 1.574 . S
C1682 H1676 0.949 . S
C1682 C1686 1.368 . S
C1683 C1664 1.429 . S
C1683 C1677 1.429 . S
C1683 C1684 1.523 . S
C1684 C1665 1.368 . S
C1684 C1678 1.368 . S
C1684 C1683 1.523 . S
C1685 C1669 1.429 . S
C1685 C1681 1.429 . S
C1685 C1686 1.523 . S
C1686 C1670 1.368 . S
C1686 C1682 1.368 . S
C1686 C1685 1.523 . S
H1687 C1662 0.950 . S
H1688 C1664 0.950 . S
H1689 C1665 0.949 . S
H1690 C1667 0.950 . S
H1691 C1669 0.950 . S
C1692 C1693 1.349 1_565 S
C1692 C1694 1.327 . S
C1692 H1717 0.950 . S
C1693 C1692 1.349 1_545 S
C1693 C1709 1.349 . S
C1694 C1692 1.327 . S
C1694 C1713 1.429 1_565 S
C1694 H1718 0.950 . S
C1695 C1712 1.574 . S
C1695 C1714 1.368 . S
C1695 H1719 0.949 . S
H1696 C1700 0.949 . S
C1697 C1698 1.382 . S
C1697 C1699 1.327 . S
C1697 H1720 0.950 . S
C1698 C1697 1.382 . S
C1698 C1710 1.318 1_545 S
C1699 C1697 1.327 . S
C1699 C1715 1.429 . S
C1699 H1721 0.950 . S
C1700 H1696 0.949 . S
C1700 C1708 1.574 . S
C1700 C1716 1.368 1_565 S
H1701 C1709 0.950 . S
H1702 C1707 0.950 . S
H1703 C1708 0.949 . S
H1704 C1710 0.950 . S
H1705 C1711 0.950 . S
H1706 C1712 0.949 . S
C1707 H1702 0.950 . S
C1707 C1709 1.327 . S
C1707 C1713 1.429 . S
C1708 C1700 1.574 . S
C1708 H1703 0.949 . S
C1708 C1714 1.368 1_565 S
C1709 C1693 1.349 . S
C1709 H1701 0.950 . S
C1709 C1707 1.327 . S
C1710 C1698 1.318 1_565 S
C1710 H1704 0.950 . S
C1710 C1711 1.327 . S
C1711 H1705 0.950 . S
C1711 C1710 1.327 . S
C1711 C1715 1.429 1_565 S
C1712 C1695 1.574 . S
C1712 H1706 0.949 . S
C1712 C1716 1.368 . S
C1713 C1694 1.429 1_545 S
C1713 C1707 1.429 . S
C1713 C1714 1.523 . S
C1714 C1695 1.368 . S
C1714 C1708 1.368 1_545 S
C1714 C1713 1.523 . S
C1715 C1699 1.429 . S
C1715 C1711 1.429 1_545 S
C1715 C1716 1.523 . S
C1716 C1700 1.368 1_545 S
C1716 C1712 1.368 . S
C1716 C1715 1.523 . S
H1717 C1692 0.950 . S
H1718 C1694 0.950 . S
H1719 C1695 0.949 . S
H1720 C1697 0.950 . S
H1721 C1699 0.950 . S
C1722 C1723 1.349 . S
C1722 C1724 1.327 . S
C1722 H1747 0.950 . S
C1723 C1722 1.349 . S
C1723 C1739 1.349 . S
C1724 C1722 1.327 . S
C1724 C1743 1.429 . S
C1724 H1748 0.950 . S
C1725 C1742 1.574 . S
C1725 C1744 1.368 . S
C1725 H1749 0.949 . S
H1726 C1730 0.949 . S
C1727 C1728 1.349 . S
C1727 C1729 1.327 . S
C1727 H1750 0.950 . S
C1728 C1727 1.349 . S
C1728 C1740 1.349 . S
C1729 C1727 1.327 . S
C1729 C1745 1.429 . S
C1729 H1751 0.950 . S
C1730 H1726 0.949 . S
C1730 C1738 1.574 . S
C1730 C1746 1.368 . S
H1731 C1739 0.950 . S
H1732 C1737 0.950 . S
H1733 C1738 0.949 . S
H1734 C1740 0.950 . S
H1735 C1741 0.950 . S
H1736 C1742 0.949 . S
C1737 H1732 0.950 . S
C1737 C1739 1.327 . S
C1737 C1743 1.429 . S
C1738 C1730 1.574 . S
C1738 H1733 0.949 . S
C1738 C1744 1.368 . S
C1739 C1723 1.349 . S
C1739 H1731 0.950 . S
C1739 C1737 1.327 . S
C1740 C1728 1.349 . S
C1740 H1734 0.950 . S
C1740 C1741 1.327 . S
C1741 H1735 0.950 . S
C1741 C1740 1.327 . S
C1741 C1745 1.429 . S
C1742 C1725 1.574 . S
C1742 H1736 0.949 . S
C1742 C1746 1.368 . S
C1743 C1724 1.429 . S
C1743 C1737 1.429 . S
C1743 C1744 1.523 . S
C1744 C1725 1.368 . S
C1744 C1738 1.368 . S
C1744 C1743 1.523 . S
C1745 C1729 1.429 . S
C1745 C1741 1.429 . S
C1745 C1746 1.523 . S
C1746 C1730 1.368 . S
C1746 C1742 1.368 . S
C1746 C1745 1.523 . S
H1747 C1722 0.950 . S
H1748 C1724 0.950 . S
H1749 C1725 0.949 . S
H1750 C1727 0.950 . S
H1751 C1729 0.950 . S
C1752 C1753 1.377 . S
C1752 C1754 1.327 . S
C1752 H1777 0.950 . S
C1753 C1752 1.377 . S
C1753 C1769 1.321 1_545 S
C1754 C1752 1.327 . S
C1754 C1773 1.399 1_545 S
C1754 H1778 0.950 . S
C1755 C1772 1.574 . S
C1755 C1774 1.368 . S
C1755 H1779 0.949 . S
H1756 C1760 0.949 . S
C1757 C1758 1.349 . S
C1757 C1759 1.327 . S
C1757 H1780 0.950 . S
C1758 C1757 1.349 . S
C1758 C1770 1.349 1_565 S
C1759 C1757 1.327 . S
C1759 C1775 1.429 . S
C1759 H1781 0.950 . S
C1760 H1756 0.949 . S
C1760 C1768 1.574 . S
C1760 C1776 1.368 1_545 S
H1761 C1769 0.950 . S
H1762 C1767 0.950 . S
H1763 C1768 0.949 . S
H1764 C1770 0.950 . S
H1765 C1771 0.950 . S
H1766 C1772 0.949 . S
C1767 H1762 0.950 . S
C1767 C1769 1.327 . S
C1767 C1773 1.457 . S
C1768 C1760 1.574 . S
C1768 H1763 0.949 . S
C1768 C1774 1.368 1_545 S
C1769 C1753 1.321 1_565 S
C1769 H1761 0.950 . S
C1769 C1767 1.327 . S
C1770 C1758 1.349 1_545 S
C1770 H1764 0.950 . S
C1770 C1771 1.327 . S
C1771 H1765 0.950 . S
C1771 C1770 1.327 . S
C1771 C1775 1.429 1_545 S
C1772 C1755 1.574 . S
C1772 H1766 0.949 . S
C1772 C1776 1.368 . S
C1773 C1754 1.399 1_565 S
C1773 C1767 1.457 . S
C1773 C1774 1.524 . S
C1774 C1755 1.368 . S
C1774 C1768 1.368 1_565 S
C1774 C1773 1.524 . S
C1775 C1759 1.429 . S
C1775 C1771 1.429 1_565 S
C1775 C1776 1.523 . S
C1776 C1760 1.368 1_565 S
C1776 C1772 1.368 . S
C1776 C1775 1.523 . S
H1777 C1752 0.950 . S
H1778 C1754 0.950 . S
H1779 C1755 0.949 . S
H1780 C1757 0.950 . S
H1781 C1759 0.950 . S
C1782 C1783 1.349 . S
C1782 C1784 1.327 . S
C1782 H1807 0.950 . S
C1783 C1782 1.349 . S
C1783 C1799 1.349 . S
C1784 C1782 1.327 . S
C1784 C1803 1.429 . S
C1784 H1808 0.950 . S
C1785 C1802 1.574 . S
C1785 C1804 1.368 . S
C1785 H1809 0.949 . S
H1786 C1790 0.949 . S
C1787 C1788 1.349 . S
C1787 C1789 1.327 . S
C1787 H1810 0.950 . S
C1788 C1787 1.349 . S
C1788 C1800 1.349 . S
C1789 C1787 1.327 . S
C1789 C1805 1.429 . S
C1789 H1811 0.950 . S
C1790 H1786 0.949 . S
C1790 C1798 1.574 . S
C1790 C1806 1.368 . S
H1791 C1799 0.950 . S
H1792 C1797 0.950 . S
H1793 C1798 0.949 . S
H1794 C1800 0.950 . S
H1795 C1801 0.950 . S
H1796 C1802 0.949 . S
C1797 H1792 0.950 . S
C1797 C1799 1.327 . S
C1797 C1803 1.429 . S
C1798 C1790 1.574 . S
C1798 H1793 0.949 . S
C1798 C1804 1.368 . S
C1799 C1783 1.349 . S
C1799 H1791 0.950 . S
C1799 C1797 1.327 . S
C1800 C1788 1.349 . S
C1800 H1794 0.950 . S
C1800 C1801 1.327 . S
C1801 H1795 0.950 . S
C1801 C1800 1.327 . S
C1801 C1805 1.429 . S
C1802 C1785 1.574 . S
C1802 H1796 0.949 . S
C1802 C1806 1.368 . S
C1803 C1784 1.429 . S
C1803 C1797 1.429 . S
C1803 C1804 1.523 . S
C1804 C1785 1.368 . S
C1804 C1798 1.368 . S
C1804 C1803 1.523 . S
C1805 C1789 1.429 . S
C1805 C1801 1.429 . S
C1805 C1806 1.523 . S
C1806 C1790 1.368 . S
C1806 C1802 1.368 . S
C1806 C1805 1.523 . S
H1807 C1782 0.950 . S
H1808 C1784 0.950 . S
H1809 C1785 0.949 . S
H1810 C1787 0.950 . S
H1811 C1789 0.950 . S
C1812 C1813 1.349 . S
C1812 C1814 1.327 . S
C1812 H1837 0.950 . S
C1813 C1812 1.349 . S
C1813 C1829 1.349 1_545 S
C1814 C1812 1.327 . S
C1814 C1833 1.429 . S
C1814 H1838 0.950 . S
C1815 C1832 1.574 . S
C1815 C1834 1.368 1_565 S
C1815 H1839 0.949 . S
H1816 C1820 0.949 . S
C1817 C1818 1.349 1_565 S
C1817 C1819 1.327 . S
C1817 H1840 0.950 . S
C1818 C1817 1.349 1_545 S
C1818 C1830 1.349 . S
C1819 C1817 1.327 . S
C1819 C1835 1.429 1_565 S
C1819 H1841 0.950 . S
C1820 H1816 0.949 . S
C1820 C1828 1.574 . S
C1820 C1836 1.368 . S
H1821 C1829 0.950 . S
H1822 C1827 0.950 . S
H1823 C1828 0.949 . S
H1824 C1830 0.950 . S
H1825 C1831 0.950 . S
H1826 C1832 0.949 . S
C1827 H1822 0.950 . S
C1827 C1829 1.327 . S
C1827 C1833 1.429 1_565 S
C1828 C1820 1.574 . S
C1828 H1823 0.949 . S
C1828 C1834 1.368 . S
C1829 C1813 1.349 1_565 S
C1829 H1821 0.950 . S
C1829 C1827 1.327 . S
C1830 C1818 1.349 . S
C1830 H1824 0.950 . S
C1830 C1831 1.327 . S
C1831 H1825 0.950 . S
C1831 C1830 1.327 . S
C1831 C1835 1.429 . S
C1832 C1815 1.574 . S
C1832 H1826 0.949 . S
C1832 C1836 1.368 1_565 S
C1833 C1814 1.429 . S
C1833 C1827 1.429 1_545 S
C1833 C1834 1.523 . S
C1834 C1815 1.368 1_545 S
C1834 C1828 1.368 . S
C1834 C1833 1.523 . S
C1835 C1819 1.429 1_545 S
C1835 C1831 1.429 . S
C1835 C1836 1.523 . S
C1836 C1820 1.368 . S
C1836 C1832 1.368 1_545 S
C1836 C1835 1.523 . S
H1837 C1812 0.950 . S
H1838 C1814 0.950 . S
H1839 C1815 0.949 . S
H1840 C1817 0.950 . S
H1841 C1819 0.950 . S
C1842 C1843 1.349 . S
C1842 C1844 1.327 . S
C1842 H1867 0.950 . S
C1843 C1842 1.349 . S
C1843 C1859 1.349 . S
C1844 C1842 1.327 . S
C1844 C1863 1.429 . S
C1844 H1868 0.950 . S
C1845 C1862 1.574 . S
C1845 C1864 1.368 . S
C1845 H1869 0.949 . S
H1846 C1850 0.949 . S
C1847 C1848 1.349 . S
C1847 C1849 1.327 . S
C1847 H1870 0.950 . S
C1848 C1847 1.349 . S
C1848 C1860 1.349 . S
C1849 C1847 1.327 . S
C1849 C1865 1.429 . S
C1849 H1871 0.950 . S
C1850 H1846 0.949 . S
C1850 C1858 1.574 . S
C1850 C1866 1.368 . S
H1851 C1859 0.950 . S
H1852 C1857 0.950 . S
H1853 C1858 0.949 . S
H1854 C1860 0.950 . S
H1855 C1861 0.950 . S
H1856 C1862 0.949 . S
C1857 H1852 0.950 . S
C1857 C1859 1.327 . S
C1857 C1863 1.429 . S
C1858 C1850 1.574 . S
C1858 H1853 0.949 . S
C1858 C1864 1.368 . S
C1859 C1843 1.349 . S
C1859 H1851 0.950 . S
C1859 C1857 1.327 . S
C1860 C1848 1.349 . S
C1860 H1854 0.950 . S
C1860 C1861 1.327 . S
C1861 H1855 0.950 . S
C1861 C1860 1.327 . S
C1861 C1865 1.429 . S
C1862 C1845 1.574 . S
C1862 H1856 0.949 . S
C1862 C1866 1.368 . S
C1863 C1844 1.429 . S
C1863 C1857 1.429 . S
C1863 C1864 1.523 . S
C1864 C1845 1.368 . S
C1864 C1858 1.368 . S
C1864 C1863 1.523 . S
C1865 C1849 1.429 . S
C1865 C1861 1.429 . S
C1865 C1866 1.523 . S
C1866 C1850 1.368 . S
C1866 C1862 1.368 . S
C1866 C1865 1.523 . S
H1867 C1842 0.950 . S
H1868 C1844 0.950 . S
H1869 C1845 0.949 . S
H1870 C1847 0.950 . S
H1871 C1849 0.950 . S
C1872 C1873 1.349 . S
C1872 C1874 1.327 . S
C1872 H1897 0.950 . S
C1873 C1872 1.349 . S
C1873 C1889 1.349 1_554 S
C1874 C1872 1.327 . S
C1874 C1893 1.429 . S
C1874 H1898 0.950 . S
C1875 C1892 1.574 . S
C1875 C1894 1.368 1_556 S
C1875 H1899 0.949 . S
H1876 C1880 0.949 . S
C1877 C1878 1.349 1_556 S
C1877 C1879 1.327 . S
C1877 H1900 0.950 . S
C1878 C1877 1.349 1_554 S
C1878 C1890 1.349 . S
C1879 C1877 1.327 . S
C1879 C1895 1.429 1_556 S
C1879 H1901 0.950 . S
C1880 H1876 0.949 . S
C1880 C1888 1.574 . S
C1880 C1896 1.368 . S
H1881 C1889 0.950 . S
H1882 C1887 0.950 . S
H1883 C1888 0.949 . S
H1884 C1890 0.950 . S
H1885 C1891 0.950 . S
H1886 C1892 0.949 . S
C1887 H1882 0.950 . S
C1887 C1889 1.327 . S
C1887 C1893 1.429 1_556 S
C1888 C1880 1.574 . S
C1888 H1883 0.949 . S
C1888 C1894 1.368 . S
C1889 C1873 1.349 1_556 S
C1889 H1881 0.950 . S
C1889 C1887 1.327 . S
C1890 C1878 1.349 . S
C1890 H1884 0.950 . S
C1890 C1891 1.327 . S
C1891 H1885 0.950 . S
C1891 C1890 1.327 . S
C1891 C1895 1.429 . S
C1892 C1875 1.574 . S
C1892 H1886 0.949 . S
C1892 C1896 1.368 1_556 S
C1893 C1874 1.429 . S
C1893 C1887 1.429 1_554 S
C1893 C1894 1.523 . S
C1894 C1875 1.368 1_554 S
C1894 C1888 1.368 . S
C1894 C1893 1.523 . S
C1895 C1879 1.429 1_554 S
C1895 C1891 1.429 . S
C1895 C1896 1.523 . S
C1896 C1880 1.368 . S
C1896 C1892 1.368 1_554 S
C1896 C1895 1.523 . S
H1897 C1872 0.950 . S
H1898 C1874 0.950 . S
H1899 C1875 0.949 . S
H1900 C1877 0.950 . S
H1901 C1879 0.950 . S
C1902 C1903 1.349 . S
C1902 C1904 1.327 . S
C1902 H1927 0.950 . S
C1903 C1902 1.349 . S
C1903 C1919 1.349 1_554 S
C1904 C1902 1.327 . S
C1904 C1923 1.458 . S
C1904 H1928 0.950 . S
C1905 C1922 1.574 . S
C1905 C1924 1.362 1_556 S
C1905 H1929 0.949 . S
H1906 C1910 0.949 . S
C1907 C1908 1.349 . S
C1907 C1909 1.327 . S
C1907 H1930 0.950 . S
C1908 C1907 1.349 . S
C1908 C1920 1.349 1_556 S
C1909 C1907 1.327 . S
C1909 C1925 1.429 . S
C1909 H1931 0.950 . S
C1910 H1906 0.949 . S
C1910 C1918 1.574 . S
C1910 C1926 1.341 1_554 S
H1911 C1919 0.950 . S
H1912 C1917 0.950 . S
H1913 C1918 0.949 . S
H1914 C1920 0.950 . S
H1915 C1921 0.950 . S
H1916 C1922 0.949 . S
C1917 H1912 0.950 . S
C1917 C1919 1.327 . S
C1917 C1923 1.400 1_556 S
C1918 C1910 1.574 . S
C1918 H1913 0.949 . S
C1918 C1924 1.375 . S
C1919 C1903 1.349 1_556 S
C1919 H1911 0.950 . S
C1919 C1917 1.327 . S
C1920 C1908 1.349 1_554 S
C1920 H1914 0.950 . S
C1920 C1921 1.327 . S
C1921 H1915 0.950 . S
C1921 C1920 1.327 . S
C1921 C1925 1.429 1_554 S
C1922 C1905 1.574 . S
C1922 H1916 0.949 . S
C1922 C1926 1.395 . S
C1923 C1904 1.458 . S
C1923 C1917 1.400 1_554 S
C1923 C1924 1.523 . S
C1924 C1905 1.362 1_554 S
C1924 C1918 1.375 . S
C1924 C1923 1.523 . S
C1925 C1909 1.429 . S
C1925 C1921 1.429 1_556 S
C1925 C1926 1.524 . S
C1926 C1910 1.341 1_556 S
C1926 C1922 1.395 . S
C1926 C1925 1.524 . S
H1927 C1902 0.950 . S
H1928 C1904 0.950 . S
H1929 C1905 0.949 . S
H1930 C1907 0.950 . S
H1931 C1909 0.950 . S
C1932 C1933 1.349 . S
C1932 C1934 1.327 . S
C1932 H1957 0.950 . S
C1933 C1932 1.349 . S
C1933 C1949 1.349 . S
C1934 C1932 1.327 . S
C1934 C1953 1.429 . S
C1934 H1958 0.950 . S
C1935 C1952 1.574 . S
C1935 C1954 1.368 . S
C1935 H1959 0.949 . S
H1936 C1940 0.949 . S
C1937 C1938 1.349 . S
C1937 C1939 1.327 . S
C1937 H1960 0.950 . S
C1938 C1937 1.349 . S
C1938 C1950 1.349 . S
C1939 C1937 1.327 . S
C1939 C1955 1.429 . S
C1939 H1961 0.950 . S
C1940 H1936 0.949 . S
C1940 C1948 1.574 . S
C1940 C1956 1.368 . S
H1941 C1949 0.950 . S
H1942 C1947 0.950 . S
H1943 C1948 0.949 . S
H1944 C1950 0.950 . S
H1945 C1951 0.950 . S
H1946 C1952 0.949 . S
C1947 H1942 0.950 . S
C1947 C1949 1.327 . S
C1947 C1953 1.429 . S
C1948 C1940 1.574 . S
C1948 H1943 0.949 . S
C1948 C1954 1.368 . S
C1949 C1933 1.349 . S
C1949 H1941 0.950 . S
C1949 C1947 1.327 . S
C1950 C1938 1.349 . S
C1950 H1944 0.950 . S
C1950 C1951 1.327 . S
C1951 H1945 0.950 . S
C1951 C1950 1.327 . S
C1951 C1955 1.429 . S
C1952 C1935 1.574 . S
C1952 H1946 0.949 . S
C1952 C1956 1.368 . S
C1953 C1934 1.429 . S
C1953 C1947 1.429 . S
C1953 C1954 1.523 . S
C1954 C1935 1.368 . S
C1954 C1948 1.368 . S
C1954 C1953 1.523 . S
C1955 C1939 1.429 . S
C1955 C1951 1.429 . S
C1955 C1956 1.523 . S
C1956 C1940 1.368 . S
C1956 C1952 1.368 . S
C1956 C1955 1.523 . S
H1957 C1932 0.950 . S
H1958 C1934 0.950 . S
H1959 C1935 0.949 . S
H1960 C1937 0.950 . S
H1961 C1939 0.950 . S
C1962 C1963 1.349 . S
C1962 C1964 1.327 . S
C1962 H1987 0.950 . S
C1963 C1962 1.349 . S
C1963 C1979 1.349 . S
C1964 C1962 1.327 . S
C1964 C1983 1.429 . S
C1964 H1988 0.950 . S
C1965 C1982 1.574 . S
C1965 C1984 1.368 . S
C1965 H1989 0.949 . S
H1966 C1970 0.949 . S
C1967 C1968 1.349 . S
C1967 C1969 1.327 . S
C1967 H1990 0.950 . S
C1968 C1967 1.349 . S
C1968 C1980 1.349 . S
C1969 C1967 1.327 . S
C1969 C1985 1.429 . S
C1969 H1991 0.950 . S
C1970 H1966 0.949 . S
C1970 C1978 1.574 . S
C1970 C1986 1.368 . S
H1971 C1979 0.950 . S
H1972 C1977 0.950 . S
H1973 C1978 0.949 . S
H1974 C1980 0.950 . S
H1975 C1981 0.950 . S
H1976 C1982 0.949 . S
C1977 H1972 0.950 . S
C1977 C1979 1.327 . S
C1977 C1983 1.429 . S
C1978 C1970 1.574 . S
C1978 H1973 0.949 . S
C1978 C1984 1.368 . S
C1979 C1963 1.349 . S
C1979 H1971 0.950 . S
C1979 C1977 1.327 . S
C1980 C1968 1.349 . S
C1980 H1974 0.950 . S
C1980 C1981 1.327 . S
C1981 H1975 0.950 . S
C1981 C1980 1.327 . S
C1981 C1985 1.429 . S
C1982 C1965 1.574 . S
C1982 H1976 0.949 . S
C1982 C1986 1.368 . S
C1983 C1964 1.429 . S
C1983 C1977 1.429 . S
C1983 C1984 1.523 . S
C1984 C1965 1.368 . S
C1984 C1978 1.368 . S
C1984 C1983 1.523 . S
C1985 C1969 1.429 . S
C1985 C1981 1.429 . S
C1985 C1986 1.523 . S
C1986 C1970 1.368 . S
C1986 C1982 1.368 . S
C1986 C1985 1.523 . S
H1987 C1962 0.950 . S
H1988 C1964 0.950 . S
H1989 C1965 0.949 . S
H1990 C1967 0.950 . S
H1991 C1969 0.950 . S
C1992 C1993 1.349 . S
C1992 C1994 1.327 . S
C1992 H2017 0.950 . S
C1993 C1992 1.349 . S
C1993 C2009 1.349 . S
C1994 C1992 1.327 . S
C1994 C2013 1.429 . S
C1994 H2018 0.950 . S
C1995 C2012 1.574 . S
C1995 C2014 1.368 . S
C1995 H2019 0.949 . S
H1996 C2000 0.949 . S
C1997 C1998 1.349 . S
C1997 C1999 1.327 . S
C1997 H2020 0.950 . S
C1998 C1997 1.349 . S
C1998 C2010 1.349 . S
C1999 C1997 1.327 . S
C1999 C2015 1.429 . S
C1999 H2021 0.950 . S
C2000 H1996 0.949 . S
C2000 C2008 1.574 . S
C2000 C2016 1.368 . S
H2001 C2009 0.950 . S
H2002 C2007 0.950 . S
H2003 C2008 0.949 . S
H2004 C2010 0.950 . S
H2005 C2011 0.950 . S
H2006 C2012 0.949 . S
C2007 H2002 0.950 . S
C2007 C2009 1.327 . S
C2007 C2013 1.429 . S
C2008 C2000 1.574 . S
C2008 H2003 0.949 . S
C2008 C2014 1.368 . S
C2009 C1993 1.349 . S
C2009 H2001 0.950 . S
C2009 C2007 1.327 . S
C2010 C1998 1.349 . S
C2010 H2004 0.950 . S
C2010 C2011 1.327 . S
C2011 H2005 0.950 . S
C2011 C2010 1.327 . S
C2011 C2015 1.429 . S
C2012 C1995 1.574 . S
C2012 H2006 0.949 . S
C2012 C2016 1.368 . S
C2013 C1994 1.429 . S
C2013 C2007 1.429 . S
C2013 C2014 1.523 . S
C2014 C1995 1.368 . S
C2014 C2008 1.368 . S
C2014 C2013 1.523 . S
C2015 C1999 1.429 . S
C2015 C2011 1.429 . S
C2015 C2016 1.523 . S
C2016 C2000 1.368 . S
C2016 C2012 1.368 . S
C2016 C2015 1.523 . S
H2017 C1992 0.950 . S
H2018 C1994 0.950 . S
H2019 C1995 0.949 . S
H2020 C1997 0.950 . S
H2021 C1999 0.950 . S
C2022 C2023 1.349 . S
C2022 C2024 1.327 . S
C2022 H2047 0.950 . S
C2023 C2022 1.349 . S
C2023 C2039 1.349 . S
C2024 C2022 1.327 . S
C2024 C2043 1.429 . S
C2024 H2048 0.950 . S
C2025 C2042 1.574 . S
C2025 C2044 1.368 . S
C2025 H2049 0.949 . S
H2026 C2030 0.949 . S
C2027 C2028 1.349 . S
C2027 C2029 1.327 . S
C2027 H2050 0.950 . S
C2028 C2027 1.349 . S
C2028 C2040 1.349 . S
C2029 C2027 1.327 . S
C2029 C2045 1.429 . S
C2029 H2051 0.950 . S
C2030 H2026 0.949 . S
C2030 C2038 1.574 . S
C2030 C2046 1.368 . S
H2031 C2039 0.950 . S
H2032 C2037 0.950 . S
H2033 C2038 0.949 . S
H2034 C2040 0.950 . S
H2035 C2041 0.950 . S
H2036 C2042 0.949 . S
C2037 H2032 0.950 . S
C2037 C2039 1.327 . S
C2037 C2043 1.429 . S
C2038 C2030 1.574 . S
C2038 H2033 0.949 . S
C2038 C2044 1.368 . S
C2039 C2023 1.349 . S
C2039 H2031 0.950 . S
C2039 C2037 1.327 . S
C2040 C2028 1.349 . S
C2040 H2034 0.950 . S
C2040 C2041 1.327 . S
C2041 H2035 0.950 . S
C2041 C2040 1.327 . S
C2041 C2045 1.429 . S
C2042 C2025 1.574 . S
C2042 H2036 0.949 . S
C2042 C2046 1.368 . S
C2043 C2024 1.429 . S
C2043 C2037 1.429 . S
C2043 C2044 1.523 . S
C2044 C2025 1.368 . S
C2044 C2038 1.368 . S
C2044 C2043 1.523 . S
C2045 C2029 1.429 . S
C2045 C2041 1.429 . S
C2045 C2046 1.523 . S
C2046 C2030 1.368 . S
C2046 C2042 1.368 . S
C2046 C2045 1.523 . S
H2047 C2022 0.950 . S
H2048 C2024 0.950 . S
H2049 C2025 0.949 . S
H2050 C2027 0.950 . S
H2051 C2029 0.950 . S
C2052 C2053 1.349 . S
C2052 C2054 1.327 . S
C2052 H2077 0.950 . S
C2053 C2052 1.349 . S
C2053 C2069 1.349 . S
C2054 C2052 1.327 . S
C2054 C2073 1.429 . S
C2054 H2078 0.950 . S
C2055 C2072 1.574 . S
C2055 C2074 1.368 . S
C2055 H2079 0.949 . S
H2056 C2060 0.949 . S
C2057 C2058 1.349 . S
C2057 C2059 1.327 . S
C2057 H2080 0.950 . S
C2058 C2057 1.349 . S
C2058 C2070 1.349 . S
C2059 C2057 1.327 . S
C2059 C2075 1.429 . S
C2059 H2081 0.950 . S
C2060 H2056 0.949 . S
C2060 C2068 1.574 . S
C2060 C2076 1.368 . S
H2061 C2069 0.950 . S
H2062 C2067 0.950 . S
H2063 C2068 0.949 . S
H2064 C2070 0.950 . S
H2065 C2071 0.950 . S
H2066 C2072 0.949 . S
C2067 H2062 0.950 . S
C2067 C2069 1.327 . S
C2067 C2073 1.429 . S
C2068 C2060 1.574 . S
C2068 H2063 0.949 . S
C2068 C2074 1.368 . S
C2069 C2053 1.349 . S
C2069 H2061 0.950 . S
C2069 C2067 1.327 . S
C2070 C2058 1.349 . S
C2070 H2064 0.950 . S
C2070 C2071 1.327 . S
C2071 H2065 0.950 . S
C2071 C2070 1.327 . S
C2071 C2075 1.429 . S
C2072 C2055 1.574 . S
C2072 H2066 0.949 . S
C2072 C2076 1.368 . S
C2073 C2054 1.429 . S
C2073 C2067 1.429 . S
C2073 C2074 1.523 . S
C2074 C2055 1.368 . S
C2074 C2068 1.368 . S
C2074 C2073 1.523 . S
C2075 C2059 1.429 . S
C2075 C2071 1.429 . S
C2075 C2076 1.523 . S
C2076 C2060 1.368 . S
C2076 C2072 1.368 . S
C2076 C2075 1.523 . S
H2077 C2052 0.950 . S
H2078 C2054 0.950 . S
H2079 C2055 0.949 . S
H2080 C2057 0.950 . S
H2081 C2059 0.950 . S
C2082 C2083 1.349 . S
C2082 C2084 1.327 . S
C2082 H2107 0.950 . S
C2083 C2082 1.349 . S
C2083 C2099 1.349 . S
C2084 C2082 1.327 . S
C2084 C2103 1.429 . S
C2084 H2108 0.950 . S
C2085 C2102 1.574 . S
C2085 C2104 1.368 . S
C2085 H2109 0.949 . S
H2086 C2090 0.949 . S
C2087 C2088 1.349 . S
C2087 C2089 1.327 . S
C2087 H2110 0.950 . S
C2088 C2087 1.349 . S
C2088 C2100 1.349 . S
C2089 C2087 1.327 . S
C2089 C2105 1.429 . S
C2089 H2111 0.950 . S
C2090 H2086 0.949 . S
C2090 C2098 1.574 . S
C2090 C2106 1.368 . S
H2091 C2099 0.950 . S
H2092 C2097 0.950 . S
H2093 C2098 0.949 . S
H2094 C2100 0.950 . S
H2095 C2101 0.950 . S
H2096 C2102 0.949 . S
C2097 H2092 0.950 . S
C2097 C2099 1.327 . S
C2097 C2103 1.429 . S
C2098 C2090 1.574 . S
C2098 H2093 0.949 . S
C2098 C2104 1.368 . S
C2099 C2083 1.349 . S
C2099 H2091 0.950 . S
C2099 C2097 1.327 . S
C2100 C2088 1.349 . S
C2100 H2094 0.950 . S
C2100 C2101 1.327 . S
C2101 H2095 0.950 . S
C2101 C2100 1.327 . S
C2101 C2105 1.429 . S
C2102 C2085 1.574 . S
C2102 H2096 0.949 . S
C2102 C2106 1.368 . S
C2103 C2084 1.429 . S
C2103 C2097 1.429 . S
C2103 C2104 1.523 . S
C2104 C2085 1.368 . S
C2104 C2098 1.368 . S
C2104 C2103 1.523 . S
C2105 C2089 1.429 . S
C2105 C2101 1.429 . S
C2105 C2106 1.523 . S
C2106 C2090 1.368 . S
C2106 C2102 1.368 . S
C2106 C2105 1.523 . S
H2107 C2082 0.950 . S
H2108 C2084 0.950 . S
H2109 C2085 0.949 . S
H2110 C2087 0.950 . S
H2111 C2089 0.950 . S
C2112 C2113 1.349 . S
C2112 C2114 1.327 . S
C2112 H2137 0.950 . S
C2113 C2112 1.349 . S
C2113 C2129 1.349 . S
C2114 C2112 1.327 . S
C2114 C2133 1.429 . S
C2114 H2138 0.950 . S
C2115 C2132 1.574 . S
C2115 C2134 1.368 . S
C2115 H2139 0.949 . S
H2116 C2120 0.949 . S
C2117 C2118 1.349 . S
C2117 C2119 1.327 . S
C2117 H2140 0.950 . S
C2118 C2117 1.349 . S
C2118 C2130 1.349 . S
C2119 C2117 1.327 . S
C2119 C2135 1.429 . S
C2119 H2141 0.950 . S
C2120 H2116 0.949 . S
C2120 C2128 1.574 . S
C2120 C2136 1.368 . S
H2121 C2129 0.950 . S
H2122 C2127 0.950 . S
H2123 C2128 0.949 . S
H2124 C2130 0.950 . S
H2125 C2131 0.950 . S
H2126 C2132 0.949 . S
C2127 H2122 0.950 . S
C2127 C2129 1.327 . S
C2127 C2133 1.429 . S
C2128 C2120 1.574 . S
C2128 H2123 0.949 . S
C2128 C2134 1.368 . S
C2129 C2113 1.349 . S
C2129 H2121 0.950 . S
C2129 C2127 1.327 . S
C2130 C2118 1.349 . S
C2130 H2124 0.950 . S
C2130 C2131 1.327 . S
C2131 H2125 0.950 . S
C2131 C2130 1.327 . S
C2131 C2135 1.429 . S
C2132 C2115 1.574 . S
C2132 H2126 0.949 . S
C2132 C2136 1.368 . S
C2133 C2114 1.429 . S
C2133 C2127 1.429 . S
C2133 C2134 1.523 . S
C2134 C2115 1.368 . S
C2134 C2128 1.368 . S
C2134 C2133 1.523 . S
C2135 C2119 1.429 . S
C2135 C2131 1.429 . S
C2135 C2136 1.523 . S
C2136 C2120 1.368 . S
C2136 C2132 1.368 . S
C2136 C2135 1.523 . S
H2137 C2112 0.950 . S
H2138 C2114 0.950 . S
H2139 C2115 0.949 . S
H2140 C2117 0.950 . S
H2141 C2119 0.950 . S
C2142 C2143 1.349 . S
C2142 C2144 1.327 . S
C2142 H2167 0.950 . S
C2143 C2142 1.349 . S
C2143 C2159 1.349 . S
C2144 C2142 1.327 . S
C2144 C2163 1.429 . S
C2144 H2168 0.950 . S
C2145 C2162 1.574 . S
C2145 C2164 1.368 . S
C2145 H2169 0.949 . S
H2146 C2150 0.949 . S
C2147 C2148 1.349 . S
C2147 C2149 1.327 . S
C2147 H2170 0.950 . S
C2148 C2147 1.349 . S
C2148 C2160 1.349 . S
C2149 C2147 1.327 . S
C2149 C2165 1.429 . S
C2149 H2171 0.950 . S
C2150 H2146 0.949 . S
C2150 C2158 1.574 . S
C2150 C2166 1.368 . S
H2151 C2159 0.950 . S
H2152 C2157 0.950 . S
H2153 C2158 0.949 . S
H2154 C2160 0.950 . S
H2155 C2161 0.950 . S
H2156 C2162 0.949 . S
C2157 H2152 0.950 . S
C2157 C2159 1.327 . S
C2157 C2163 1.429 . S
C2158 C2150 1.574 . S
C2158 H2153 0.949 . S
C2158 C2164 1.368 . S
C2159 C2143 1.349 . S
C2159 H2151 0.950 . S
C2159 C2157 1.327 . S
C2160 C2148 1.349 . S
C2160 H2154 0.950 . S
C2160 C2161 1.327 . S
C2161 H2155 0.950 . S
C2161 C2160 1.327 . S
C2161 C2165 1.429 . S
C2162 C2145 1.574 . S
C2162 H2156 0.949 . S
C2162 C2166 1.368 . S
C2163 C2144 1.429 . S
C2163 C2157 1.429 . S
C2163 C2164 1.523 . S
C2164 C2145 1.368 . S
C2164 C2158 1.368 . S
C2164 C2163 1.523 . S
C2165 C2149 1.429 . S
C2165 C2161 1.429 . S
C2165 C2166 1.523 . S
C2166 C2150 1.368 . S
C2166 C2162 1.368 . S
C2166 C2165 1.523 . S
H2167 C2142 0.950 . S
H2168 C2144 0.950 . S
H2169 C2145 0.949 . S
H2170 C2147 0.950 . S
H2171 C2149 0.950 . S
C2172 C2173 1.349 . S
C2172 C2174 1.327 . S
C2172 H2197 0.950 . S
C2173 C2172 1.349 . S
C2173 C2189 1.349 1_455 S
C2174 C2172 1.327 . S
C2174 C2193 1.429 . S
C2174 H2198 0.950 . S
C2175 C2192 1.574 . S
C2175 C2194 1.368 1_655 S
C2175 H2199 0.949 . S
H2176 C2180 0.949 . S
C2177 C2178 1.349 1_655 S
C2177 C2179 1.327 . S
C2177 H2200 0.950 . S
C2178 C2177 1.349 1_455 S
C2178 C2190 1.349 . S
C2179 C2177 1.327 . S
C2179 C2195 1.429 1_655 S
C2179 H2201 0.950 . S
C2180 H2176 0.949 . S
C2180 C2188 1.574 . S
C2180 C2196 1.368 . S
H2181 C2189 0.950 . S
H2182 C2187 0.950 . S
H2183 C2188 0.949 . S
H2184 C2190 0.950 . S
H2185 C2191 0.950 . S
H2186 C2192 0.949 . S
C2187 H2182 0.950 . S
C2187 C2189 1.327 . S
C2187 C2193 1.429 1_655 S
C2188 C2180 1.574 . S
C2188 H2183 0.949 . S
C2188 C2194 1.368 . S
C2189 C2173 1.349 1_655 S
C2189 H2181 0.950 . S
C2189 C2187 1.327 . S
C2190 C2178 1.349 . S
C2190 H2184 0.950 . S
C2190 C2191 1.327 . S
C2191 H2185 0.950 . S
C2191 C2190 1.327 . S
C2191 C2195 1.429 . S
C2192 C2175 1.574 . S
C2192 H2186 0.949 . S
C2192 C2196 1.368 1_655 S
C2193 C2174 1.429 . S
C2193 C2187 1.429 1_455 S
C2193 C2194 1.523 . S
C2194 C2175 1.368 1_455 S
C2194 C2188 1.368 . S
C2194 C2193 1.523 . S
C2195 C2179 1.429 1_455 S
C2195 C2191 1.429 . S
C2195 C2196 1.523 . S
C2196 C2180 1.368 . S
C2196 C2192 1.368 1_455 S
C2196 C2195 1.523 . S
H2197 C2172 0.950 . S
H2198 C2174 0.950 . S
H2199 C2175 0.949 . S
H2200 C2177 0.950 . S
H2201 C2179 0.950 . S
C2202 C2203 1.349 . S
C2202 C2204 1.327 . S
C2202 H2227 0.950 . S
C2203 C2202 1.349 . S
C2203 C2219 1.349 . S
C2204 C2202 1.327 . S
C2204 C2223 1.429 . S
C2204 H2228 0.950 . S
C2205 C2222 1.574 . S
C2205 C2224 1.368 . S
C2205 H2229 0.949 . S
H2206 C2210 0.949 . S
C2207 C2208 1.349 . S
C2207 C2209 1.327 . S
C2207 H2230 0.950 . S
C2208 C2207 1.349 . S
C2208 C2220 1.349 . S
C2209 C2207 1.327 . S
C2209 C2225 1.429 . S
C2209 H2231 0.950 . S
C2210 H2206 0.949 . S
C2210 C2218 1.574 . S
C2210 C2226 1.368 . S
H2211 C2219 0.950 . S
H2212 C2217 0.950 . S
H2213 C2218 0.949 . S
H2214 C2220 0.950 . S
H2215 C2221 0.950 . S
H2216 C2222 0.949 . S
C2217 H2212 0.950 . S
C2217 C2219 1.327 . S
C2217 C2223 1.429 . S
C2218 C2210 1.574 . S
C2218 H2213 0.949 . S
C2218 C2224 1.368 . S
C2219 C2203 1.349 . S
C2219 H2211 0.950 . S
C2219 C2217 1.327 . S
C2220 C2208 1.349 . S
C2220 H2214 0.950 . S
C2220 C2221 1.327 . S
C2221 H2215 0.950 . S
C2221 C2220 1.327 . S
C2221 C2225 1.429 . S
C2222 C2205 1.574 . S
C2222 H2216 0.949 . S
C2222 C2226 1.368 . S
C2223 C2204 1.429 . S
C2223 C2217 1.429 . S
C2223 C2224 1.523 . S
C2224 C2205 1.368 . S
C2224 C2218 1.368 . S
C2224 C2223 1.523 . S
C2225 C2209 1.429 . S
C2225 C2221 1.429 . S
C2225 C2226 1.523 . S
C2226 C2210 1.368 . S
C2226 C2222 1.368 . S
C2226 C2225 1.523 . S
H2227 C2202 0.950 . S
H2228 C2204 0.950 . S
H2229 C2205 0.949 . S
H2230 C2207 0.950 . S
H2231 C2209 0.950 . S
C2232 C2233 1.349 . S
C2232 C2234 1.327 . S
C2232 H2257 0.950 . S
C2233 C2232 1.349 . S
C2233 C2249 1.349 . S
C2234 C2232 1.327 . S
C2234 C2253 1.429 . S
C2234 H2258 0.950 . S
C2235 C2252 1.574 . S
C2235 C2254 1.368 . S
C2235 H2259 0.949 . S
H2236 C2240 0.949 . S
C2237 C2238 1.349 . S
C2237 C2239 1.327 . S
C2237 H2260 0.950 . S
C2238 C2237 1.349 . S
C2238 C2250 1.349 . S
C2239 C2237 1.327 . S
C2239 C2255 1.429 . S
C2239 H2261 0.950 . S
C2240 H2236 0.949 . S
C2240 C2248 1.574 . S
C2240 C2256 1.368 . S
H2241 C2249 0.950 . S
H2242 C2247 0.950 . S
H2243 C2248 0.949 . S
H2244 C2250 0.950 1_554 S
H2245 C2251 0.950 . S
H2246 C2252 0.949 . S
C2247 H2242 0.950 . S
C2247 C2249 1.327 . S
C2247 C2253 1.429 . S
C2248 C2240 1.574 . S
C2248 H2243 0.949 . S
C2248 C2254 1.368 . S
C2249 C2233 1.349 . S
C2249 H2241 0.950 . S
C2249 C2247 1.327 . S
C2250 C2238 1.349 . S
C2250 H2244 0.950 1_556 S
C2250 C2251 1.327 . S
C2251 H2245 0.950 . S
C2251 C2250 1.327 . S
C2251 C2255 1.429 . S
C2252 C2235 1.574 . S
C2252 H2246 0.949 . S
C2252 C2256 1.368 . S
C2253 C2234 1.429 . S
C2253 C2247 1.429 . S
C2253 C2254 1.523 . S
C2254 C2235 1.368 . S
C2254 C2248 1.368 . S
C2254 C2253 1.523 . S
C2255 C2239 1.429 . S
C2255 C2251 1.429 . S
C2255 C2256 1.523 . S
C2256 C2240 1.368 . S
C2256 C2252 1.368 . S
C2256 C2255 1.523 . S
H2257 C2232 0.950 . S
H2258 C2234 0.950 . S
H2259 C2235 0.949 . S
H2260 C2237 0.950 . S
H2261 C2239 0.950 . S
C2262 C2263 1.349 . S
C2262 C2264 1.327 . S
C2262 H2287 0.950 . S
C2263 C2262 1.349 . S
C2263 C2279 1.349 . S
C2264 C2262 1.327 . S
C2264 C2283 1.429 . S
C2264 H2288 0.950 . S
C2265 C2282 1.574 . S
C2265 C2284 1.368 . S
C2265 H2289 0.949 . S
H2266 C2270 0.949 . S
C2267 C2268 1.349 . S
C2267 C2269 1.327 . S
C2267 H2290 0.950 . S
C2268 C2267 1.349 . S
C2268 C2280 1.349 . S
C2269 C2267 1.327 . S
C2269 C2285 1.429 . S
C2269 H2291 0.950 . S
C2270 H2266 0.949 . S
C2270 C2278 1.574 . S
C2270 C2286 1.368 . S
H2271 C2279 0.950 . S
H2272 C2277 0.950 . S
H2273 C2278 0.949 . S
H2274 C2280 0.950 . S
H2275 C2281 0.950 . S
H2276 C2282 0.949 . S
C2277 H2272 0.950 . S
C2277 C2279 1.327 . S
C2277 C2283 1.429 . S
C2278 C2270 1.574 . S
C2278 H2273 0.949 . S
C2278 C2284 1.368 . S
C2279 C2263 1.349 . S
C2279 H2271 0.950 . S
C2279 C2277 1.327 . S
C2280 C2268 1.349 . S
C2280 H2274 0.950 . S
C2280 C2281 1.327 . S
C2281 H2275 0.950 . S
C2281 C2280 1.327 . S
C2281 C2285 1.429 . S
C2282 C2265 1.574 . S
C2282 H2276 0.949 . S
C2282 C2286 1.368 . S
C2283 C2264 1.429 . S
C2283 C2277 1.429 . S
C2283 C2284 1.523 . S
C2284 C2265 1.368 . S
C2284 C2278 1.368 . S
C2284 C2283 1.523 . S
C2285 C2269 1.429 . S
C2285 C2281 1.429 . S
C2285 C2286 1.523 . S
C2286 C2270 1.368 . S
C2286 C2282 1.368 . S
C2286 C2285 1.523 . S
H2287 C2262 0.950 . S
H2288 C2264 0.950 . S
H2289 C2265 0.949 . S
H2290 C2267 0.950 . S
H2291 C2269 0.950 . S
C2292 C2293 1.349 1_655 S
C2292 C2294 1.327 . S
C2292 H2317 0.950 . S
C2293 C2292 1.349 1_455 S
C2293 C2309 1.349 . S
C2294 C2292 1.327 . S
C2294 C2313 1.429 1_655 S
C2294 H2318 0.950 . S
C2295 C2312 1.574 . S
C2295 C2314 1.368 . S
C2295 H2319 0.949 . S
H2296 C2300 0.940 1_655 S
C2297 C2298 1.349 . S
C2297 C2299 1.327 . S
C2297 H2320 0.950 . S
C2298 C2297 1.349 . S
C2298 C2310 1.349 . S
C2299 C2297 1.327 . S
C2299 C2315 1.429 . S
C2299 H2321 0.950 . S
C2300 H2296 0.940 1_455 S
C2300 C2308 1.571 1_455 S
C2300 C2316 1.380 . S
H2301 C2309 0.950 . S
H2302 C2307 0.950 . S
H2303 C2308 0.970 . S
H2304 C2310 0.950 1_655 S
H2305 C2311 0.950 1_655 S
H2306 C2312 0.949 . S
C2307 H2302 0.950 . S
C2307 C2309 1.327 . S
C2307 C2313 1.429 . S
C2308 C2300 1.571 1_655 S
C2308 H2303 0.970 . S
C2308 C2314 1.348 1_655 S
C2309 C2293 1.349 . S
C2309 H2301 0.950 . S
C2309 C2307 1.327 . S
C2310 C2298 1.349 . S
C2310 H2304 0.950 1_455 S
C2310 C2311 1.327 . S
C2311 H2305 0.950 1_455 S
C2311 C2310 1.327 . S
C2311 C2315 1.429 . S
C2312 C2295 1.574 . S
C2312 H2306 0.949 . S
C2312 C2316 1.368 . S
C2313 C2294 1.429 1_455 S
C2313 C2307 1.429 . S
C2313 C2314 1.523 . S
C2314 C2295 1.368 . S
C2314 C2308 1.348 1_455 S
C2314 C2313 1.523 . S
C2315 C2299 1.429 . S
C2315 C2311 1.429 . S
C2315 C2316 1.523 . S
C2316 C2300 1.380 . S
C2316 C2312 1.368 . S
C2316 C2315 1.523 . S
H2317 C2292 0.950 . S
H2318 C2294 0.950 . S
H2319 C2295 0.949 . S
H2320 C2297 0.950 . S
H2321 C2299 0.950 . S
C2322 C2323 1.349 . S
C2322 C2324 1.327 . S
C2322 H2347 0.950 . S
C2323 C2322 1.349 . S
C2323 C2339 1.349 . S
C2324 C2322 1.327 . S
C2324 C2343 1.429 . S
C2324 H2348 0.950 . S
C2325 C2342 1.574 . S
C2325 C2344 1.368 . S
C2325 H2349 0.949 . S
H2326 C2330 0.949 . S
C2327 C2328 1.349 . S
C2327 C2329 1.327 . S
C2327 H2350 0.950 . S
C2328 C2327 1.349 . S
C2328 C2340 1.349 . S
C2329 C2327 1.327 . S
C2329 C2345 1.429 . S
C2329 H2351 0.950 . S
C2330 H2326 0.949 . S
C2330 C2338 1.574 . S
C2330 C2346 1.368 . S
H2331 C2339 0.950 . S
H2332 C2337 0.950 . S
H2333 C2338 0.949 . S
H2334 C2340 0.950 . S
H2335 C2341 0.950 . S
H2336 C2342 0.949 . S
C2337 H2332 0.950 . S
C2337 C2339 1.327 . S
C2337 C2343 1.429 . S
C2338 C2330 1.574 . S
C2338 H2333 0.949 . S
C2338 C2344 1.368 . S
C2339 C2323 1.349 . S
C2339 H2331 0.950 . S
C2339 C2337 1.327 . S
C2340 C2328 1.349 . S
C2340 H2334 0.950 . S
C2340 C2341 1.327 . S
C2341 H2335 0.950 . S
C2341 C2340 1.327 . S
C2341 C2345 1.429 . S
C2342 C2325 1.574 . S
C2342 H2336 0.949 . S
C2342 C2346 1.368 . S
C2343 C2324 1.429 . S
C2343 C2337 1.429 . S
C2343 C2344 1.523 . S
C2344 C2325 1.368 . S
C2344 C2338 1.368 . S
C2344 C2343 1.523 . S
C2345 C2329 1.429 . S
C2345 C2341 1.429 . S
C2345 C2346 1.523 . S
C2346 C2330 1.368 . S
C2346 C2342 1.368 . S
C2346 C2345 1.523 . S
H2347 C2322 0.950 . S
H2348 C2324 0.950 . S
H2349 C2325 0.949 . S
H2350 C2327 0.950 . S
H2351 C2329 0.950 . S
C2352 C2353 1.349 . S
C2352 C2354 1.327 . S
C2352 H2377 0.950 . S
C2353 C2352 1.349 . S
C2353 C2369 1.349 . S
C2354 C2352 1.327 . S
C2354 C2373 1.429 . S
C2354 H2378 0.950 . S
C2355 C2372 1.574 . S
C2355 C2374 1.368 . S
C2355 H2379 0.949 . S
H2356 C2360 0.949 . S
C2357 C2358 1.349 . S
C2357 C2359 1.327 . S
C2357 H2380 0.950 . S
C2358 C2357 1.349 . S
C2358 C2370 1.349 . S
C2359 C2357 1.327 . S
C2359 C2375 1.429 . S
C2359 H2381 0.950 . S
C2360 H2356 0.949 . S
C2360 C2368 1.574 . S
C2360 C2376 1.368 . S
H2361 C2369 0.950 . S
H2362 C2367 0.950 . S
H2363 C2368 0.949 . S
H2364 C2370 0.950 . S
H2365 C2371 0.950 . S
H2366 C2372 0.949 . S
C2367 H2362 0.950 . S
C2367 C2369 1.327 . S
C2367 C2373 1.429 . S
C2368 C2360 1.574 . S
C2368 H2363 0.949 . S
C2368 C2374 1.368 . S
C2369 C2353 1.349 . S
C2369 H2361 0.950 . S
C2369 C2367 1.327 . S
C2370 C2358 1.349 . S
C2370 H2364 0.950 . S
C2370 C2371 1.327 . S
C2371 H2365 0.950 . S
C2371 C2370 1.327 . S
C2371 C2375 1.429 . S
C2372 C2355 1.574 . S
C2372 H2366 0.949 . S
C2372 C2376 1.368 . S
C2373 C2354 1.429 . S
C2373 C2367 1.429 . S
C2373 C2374 1.523 . S
C2374 C2355 1.368 . S
C2374 C2368 1.368 . S
C2374 C2373 1.523 . S
C2375 C2359 1.429 . S
C2375 C2371 1.429 . S
C2375 C2376 1.523 . S
C2376 C2360 1.368 . S
C2376 C2372 1.368 . S
C2376 C2375 1.523 . S
H2377 C2352 0.950 . S
H2378 C2354 0.950 . S
H2379 C2355 0.949 . S
H2380 C2357 0.950 . S
H2381 C2359 0.950 . S
C2382 C2383 1.349 . S
C2382 C2384 1.327 . S
C2382 H2407 0.950 . S
C2383 C2382 1.349 . S
C2383 C2399 1.349 . S
C2384 C2382 1.327 . S
C2384 C2403 1.429 . S
C2384 H2408 0.950 . S
C2385 C2402 1.574 . S
C2385 C2404 1.368 . S
C2385 H2409 0.949 . S
H2386 C2390 0.949 . S
C2387 C2388 1.349 . S
C2387 C2389 1.327 . S
C2387 H2410 0.950 . S
C2388 C2387 1.349 . S
C2388 C2400 1.349 . S
C2389 C2387 1.327 . S
C2389 C2405 1.429 . S
C2389 H2411 0.950 . S
C2390 H2386 0.949 . S
C2390 C2398 1.574 . S
C2390 C2406 1.368 . S
H2391 C2399 0.950 . S
H2392 C2397 0.950 . S
H2393 C2398 0.949 . S
H2394 C2400 0.950 . S
H2395 C2401 0.950 . S
H2396 C2402 0.949 . S
C2397 H2392 0.950 . S
C2397 C2399 1.327 . S
C2397 C2403 1.429 . S
C2398 C2390 1.574 . S
C2398 H2393 0.949 . S
C2398 C2404 1.368 . S
C2399 C2383 1.349 . S
C2399 H2391 0.950 . S
C2399 C2397 1.327 . S
C2400 C2388 1.349 . S
C2400 H2394 0.950 . S
C2400 C2401 1.327 . S
C2401 H2395 0.950 . S
C2401 C2400 1.327 . S
C2401 C2405 1.429 . S
C2402 C2385 1.574 . S
C2402 H2396 0.949 . S
C2402 C2406 1.368 . S
C2403 C2384 1.429 . S
C2403 C2397 1.429 . S
C2403 C2404 1.523 . S
C2404 C2385 1.368 . S
C2404 C2398 1.368 . S
C2404 C2403 1.523 . S
C2405 C2389 1.429 . S
C2405 C2401 1.429 . S
C2405 C2406 1.523 . S
C2406 C2390 1.368 . S
C2406 C2402 1.368 . S
C2406 C2405 1.523 . S
H2407 C2382 0.950 . S
H2408 C2384 0.950 . S
H2409 C2385 0.949 . S
H2410 C2387 0.950 . S
H2411 C2389 0.950 . S
C2412 C2413 1.349 . S
C2412 C2414 1.327 . S
C2412 H2437 0.950 . S
C2413 C2412 1.349 . S
C2413 C2429 1.349 . S
C2414 C2412 1.327 . S
C2414 C2433 1.429 . S
C2414 H2438 0.950 . S
C2415 C2432 1.574 . S
C2415 C2434 1.368 . S
C2415 H2439 0.949 . S
H2416 C2420 0.949 . S
C2417 C2418 1.349 . S
C2417 C2419 1.327 . S
C2417 H2440 0.950 . S
C2418 C2417 1.349 . S
C2418 C2430 1.349 . S
C2419 C2417 1.327 . S
C2419 C2435 1.429 . S
C2419 H2441 0.950 . S
C2420 H2416 0.949 . S
C2420 C2428 1.574 . S
C2420 C2436 1.368 . S
H2421 C2429 0.950 . S
H2422 C2427 0.950 . S
H2423 C2428 0.949 . S
H2424 C2430 0.950 . S
H2425 C2431 0.950 . S
H2426 C2432 0.949 . S
C2427 H2422 0.950 . S
C2427 C2429 1.327 . S
C2427 C2433 1.429 . S
C2428 C2420 1.574 . S
C2428 H2423 0.949 . S
C2428 C2434 1.368 . S
C2429 C2413 1.349 . S
C2429 H2421 0.950 . S
C2429 C2427 1.327 . S
C2430 C2418 1.349 . S
C2430 H2424 0.950 . S
C2430 C2431 1.327 . S
C2431 H2425 0.950 . S
C2431 C2430 1.327 . S
C2431 C2435 1.429 . S
C2432 C2415 1.574 . S
C2432 H2426 0.949 . S
C2432 C2436 1.368 . S
C2433 C2414 1.429 . S
C2433 C2427 1.429 . S
C2433 C2434 1.523 . S
C2434 C2415 1.368 . S
C2434 C2428 1.368 . S
C2434 C2433 1.523 . S
C2435 C2419 1.429 . S
C2435 C2431 1.429 . S
C2435 C2436 1.523 . S
C2436 C2420 1.368 . S
C2436 C2432 1.368 . S
C2436 C2435 1.523 . S
H2437 C2412 0.950 . S
H2438 C2414 0.950 . S
H2439 C2415 0.949 . S
H2440 C2417 0.950 . S
H2441 C2419 0.950 . S
C2442 C2443 1.349 . S
C2442 C2444 1.327 . S
C2442 H2467 0.950 . S
C2443 C2442 1.349 . S
C2443 C2459 1.349 . S
C2444 C2442 1.327 . S
C2444 C2463 1.429 . S
C2444 H2468 0.950 . S
C2445 C2462 1.574 . S
C2445 C2464 1.368 . S
C2445 H2469 0.949 . S
H2446 C2450 0.949 . S
C2447 C2448 1.349 . S
C2447 C2449 1.327 . S
C2447 H2470 0.950 . S
C2448 C2447 1.349 . S
C2448 C2460 1.349 . S
C2449 C2447 1.327 . S
C2449 C2465 1.429 . S
C2449 H2471 0.950 . S
C2450 H2446 0.949 . S
C2450 C2458 1.574 . S
C2450 C2466 1.368 . S
H2451 C2459 0.950 . S
H2452 C2457 0.950 . S
H2453 C2458 0.949 . S
H2454 C2460 0.950 . S
H2455 C2461 0.950 . S
H2456 C2462 0.949 . S
C2457 H2452 0.950 . S
C2457 C2459 1.327 . S
C2457 C2463 1.429 . S
C2458 C2450 1.574 . S
C2458 H2453 0.949 . S
C2458 C2464 1.368 . S
C2459 C2443 1.349 . S
C2459 H2451 0.950 . S
C2459 C2457 1.327 . S
C2460 C2448 1.349 . S
C2460 H2454 0.950 . S
C2460 C2461 1.327 . S
C2461 H2455 0.950 . S
C2461 C2460 1.327 . S
C2461 C2465 1.429 . S
C2462 C2445 1.574 . S
C2462 H2456 0.949 . S
C2462 C2466 1.368 . S
C2463 C2444 1.429 . S
C2463 C2457 1.429 . S
C2463 C2464 1.523 . S
C2464 C2445 1.368 . S
C2464 C2458 1.368 . S
C2464 C2463 1.523 . S
C2465 C2449 1.429 . S
C2465 C2461 1.429 . S
C2465 C2466 1.523 . S
C2466 C2450 1.368 . S
C2466 C2462 1.368 . S
C2466 C2465 1.523 . S
H2467 C2442 0.950 . S
H2468 C2444 0.950 . S
H2469 C2445 0.949 . S
H2470 C2447 0.950 . S
H2471 C2449 0.950 . S
C2472 C2473 1.349 . S
C2472 C2474 1.327 . S
C2472 H2497 0.950 . S
C2473 C2472 1.349 . S
C2473 C2489 1.349 . S
C2474 C2472 1.327 . S
C2474 C2493 1.429 . S
C2474 H2498 0.950 . S
C2475 C2492 1.574 . S
C2475 C2494 1.368 . S
C2475 H2499 0.949 . S
H2476 C2480 0.949 . S
C2477 C2478 1.349 . S
C2477 C2479 1.327 . S
C2477 H2500 0.950 . S
C2478 C2477 1.349 . S
C2478 C2490 1.349 . S
C2479 C2477 1.327 . S
C2479 C2495 1.429 . S
C2479 H2501 0.950 . S
C2480 H2476 0.949 . S
C2480 C2488 1.574 . S
C2480 C2496 1.368 . S
H2481 C2489 0.950 . S
H2482 C2487 0.950 . S
H2483 C2488 0.949 . S
H2484 C2490 0.950 . S
H2485 C2491 0.950 . S
H2486 C2492 0.949 . S
C2487 H2482 0.950 . S
C2487 C2489 1.327 . S
C2487 C2493 1.429 . S
C2488 C2480 1.574 . S
C2488 H2483 0.949 . S
C2488 C2494 1.368 . S
C2489 C2473 1.349 . S
C2489 H2481 0.950 . S
C2489 C2487 1.327 . S
C2490 C2478 1.349 . S
C2490 H2484 0.950 . S
C2490 C2491 1.327 . S
C2491 H2485 0.950 . S
C2491 C2490 1.327 . S
C2491 C2495 1.429 . S
C2492 C2475 1.574 . S
C2492 H2486 0.949 . S
C2492 C2496 1.368 . S
C2493 C2474 1.429 . S
C2493 C2487 1.429 . S
C2493 C2494 1.523 . S
C2494 C2475 1.368 . S
C2494 C2488 1.368 . S
C2494 C2493 1.523 . S
C2495 C2479 1.429 . S
C2495 C2491 1.429 . S
C2495 C2496 1.523 . S
C2496 C2480 1.368 . S
C2496 C2492 1.368 . S
C2496 C2495 1.523 . S
H2497 C2472 0.950 . S
H2498 C2474 0.950 . S
H2499 C2475 0.949 . S
H2500 C2477 0.950 . S
H2501 C2479 0.950 . S
C2502 C2503 1.349 . S
C2502 C2504 1.327 . S
C2502 H2527 0.950 . S
C2503 C2502 1.349 . S
C2503 C2519 1.349 . S
C2504 C2502 1.327 . S
C2504 C2523 1.429 . S
C2504 H2528 0.950 . S
C2505 C2522 1.574 . S
C2505 C2524 1.368 . S
C2505 H2529 0.949 . S
H2506 C2510 0.949 . S
C2507 C2508 1.349 . S
C2507 C2509 1.327 . S
C2507 H2530 0.950 . S
C2508 C2507 1.349 . S
C2508 C2520 1.349 . S
C2509 C2507 1.327 . S
C2509 C2525 1.429 . S
C2509 H2531 0.950 . S
C2510 H2506 0.949 . S
C2510 C2518 1.574 . S
C2510 C2526 1.368 . S
H2511 C2519 0.950 . S
H2512 C2517 0.950 . S
H2513 C2518 0.949 . S
H2514 C2520 0.950 . S
H2515 C2521 0.950 . S
H2516 C2522 0.949 . S
C2517 H2512 0.950 . S
C2517 C2519 1.327 . S
C2517 C2523 1.429 . S
C2518 C2510 1.574 . S
C2518 H2513 0.949 . S
C2518 C2524 1.368 . S
C2519 C2503 1.349 . S
C2519 H2511 0.950 . S
C2519 C2517 1.327 . S
C2520 C2508 1.349 . S
C2520 H2514 0.950 . S
C2520 C2521 1.327 . S
C2521 H2515 0.950 . S
C2521 C2520 1.327 . S
C2521 C2525 1.429 . S
C2522 C2505 1.574 . S
C2522 H2516 0.949 . S
C2522 C2526 1.368 . S
C2523 C2504 1.429 . S
C2523 C2517 1.429 . S
C2523 C2524 1.523 . S
C2524 C2505 1.368 . S
C2524 C2518 1.368 . S
C2524 C2523 1.523 . S
C2525 C2509 1.429 . S
C2525 C2521 1.429 . S
C2525 C2526 1.523 . S
C2526 C2510 1.368 . S
C2526 C2522 1.368 . S
C2526 C2525 1.523 . S
H2527 C2502 0.950 . S
H2528 C2504 0.950 . S
H2529 C2505 0.949 . S
H2530 C2507 0.950 . S
H2531 C2509 0.950 . S
C2532 C2533 1.349 . S
C2532 C2534 1.327 . S
C2532 H2557 0.950 . S
C2533 C2532 1.349 . S
C2533 C2549 1.349 . S
C2534 C2532 1.327 . S
C2534 C2553 1.429 . S
C2534 H2558 0.950 . S
C2535 C2552 1.574 . S
C2535 C2554 1.368 . S
C2535 H2559 0.949 . S
H2536 C2540 0.949 . S
C2537 C2538 1.349 . S
C2537 C2539 1.327 . S
C2537 H2560 0.950 . S
C2538 C2537 1.349 . S
C2538 C2550 1.349 . S
C2539 C2537 1.327 . S
C2539 C2555 1.429 . S
C2539 H2561 0.950 . S
C2540 H2536 0.949 . S
C2540 C2548 1.574 . S
C2540 C2556 1.368 . S
H2541 C2549 0.950 . S
H2542 C2547 0.950 . S
H2543 C2548 0.949 . S
H2544 C2550 0.950 . S
H2545 C2551 0.950 . S
H2546 C2552 0.949 . S
C2547 H2542 0.950 . S
C2547 C2549 1.327 . S
C2547 C2553 1.429 . S
C2548 C2540 1.574 . S
C2548 H2543 0.949 . S
C2548 C2554 1.368 . S
C2549 C2533 1.349 . S
C2549 H2541 0.950 . S
C2549 C2547 1.327 . S
C2550 C2538 1.349 . S
C2550 H2544 0.950 . S
C2550 C2551 1.327 . S
C2551 H2545 0.950 . S
C2551 C2550 1.327 . S
C2551 C2555 1.429 . S
C2552 C2535 1.574 . S
C2552 H2546 0.949 . S
C2552 C2556 1.368 . S
C2553 C2534 1.429 . S
C2553 C2547 1.429 . S
C2553 C2554 1.523 . S
C2554 C2535 1.368 . S
C2554 C2548 1.368 . S
C2554 C2553 1.523 . S
C2555 C2539 1.429 . S
C2555 C2551 1.429 . S
C2555 C2556 1.523 . S
C2556 C2540 1.368 . S
C2556 C2552 1.368 . S
C2556 C2555 1.523 . S
H2557 C2532 0.950 . S
H2558 C2534 0.950 . S
H2559 C2535 0.949 . S
H2560 C2537 0.950 . S
H2561 C2539 0.950 . S
C2562 C2563 1.349 . S
C2562 C2564 1.327 . S
C2562 H2587 0.950 . S
C2563 C2562 1.349 . S
C2563 C2579 1.349 . S
C2564 C2562 1.327 . S
C2564 C2583 1.429 . S
C2564 H2588 0.950 . S
C2565 C2582 1.574 . S
C2565 C2584 1.368 . S
C2565 H2589 0.949 . S
H2566 C2570 0.949 . S
C2567 C2568 1.349 . S
C2567 C2569 1.327 . S
C2567 H2590 0.950 . S
C2568 C2567 1.349 . S
C2568 C2580 1.349 . S
C2569 C2567 1.327 . S
C2569 C2585 1.429 . S
C2569 H2591 0.950 . S
C2570 H2566 0.949 . S
C2570 C2578 1.574 . S
C2570 C2586 1.368 . S
H2571 C2579 0.950 . S
H2572 C2577 0.950 . S
H2573 C2578 0.949 . S
H2574 C2580 0.950 . S
H2575 C2581 0.950 . S
H2576 C2582 0.949 . S
C2577 H2572 0.950 . S
C2577 C2579 1.327 . S
C2577 C2583 1.429 . S
C2578 C2570 1.574 . S
C2578 H2573 0.949 . S
C2578 C2584 1.368 . S
C2579 C2563 1.349 . S
C2579 H2571 0.950 . S
C2579 C2577 1.327 . S
C2580 C2568 1.349 . S
C2580 H2574 0.950 . S
C2580 C2581 1.327 . S
C2581 H2575 0.950 . S
C2581 C2580 1.327 . S
C2581 C2585 1.429 . S
C2582 C2565 1.574 . S
C2582 H2576 0.949 . S
C2582 C2586 1.368 . S
C2583 C2564 1.429 . S
C2583 C2577 1.429 . S
C2583 C2584 1.523 . S
C2584 C2565 1.368 . S
C2584 C2578 1.368 . S
C2584 C2583 1.523 . S
C2585 C2569 1.429 . S
C2585 C2581 1.429 . S
C2585 C2586 1.523 . S
C2586 C2570 1.368 . S
C2586 C2582 1.368 . S
C2586 C2585 1.523 . S
H2587 C2562 0.950 . S
H2588 C2564 0.950 . S
H2589 C2565 0.949 . S
H2590 C2567 0.950 . S
H2591 C2569 0.950 . S
C2592 C2593 1.349 . S
C2592 C2594 1.327 . S
C2592 H2617 0.950 . S
C2593 C2592 1.349 . S
C2593 C2609 1.349 . S
C2594 C2592 1.327 . S
C2594 C2613 1.429 . S
C2594 H2618 0.950 . S
C2595 C2612 1.574 . S
C2595 C2614 1.368 . S
C2595 H2619 0.949 . S
H2596 C2600 0.949 . S
C2597 C2598 1.349 . S
C2597 C2599 1.327 . S
C2597 H2620 0.950 . S
C2598 C2597 1.349 . S
C2598 C2610 1.349 . S
C2599 C2597 1.327 . S
C2599 C2615 1.429 . S
C2599 H2621 0.950 . S
C2600 H2596 0.949 . S
C2600 C2608 1.574 . S
C2600 C2616 1.368 . S
H2601 C2609 0.950 . S
H2602 C2607 0.950 . S
H2603 C2608 0.949 . S
H2604 C2610 0.950 . S
H2605 C2611 0.950 . S
H2606 C2612 0.949 . S
C2607 H2602 0.950 . S
C2607 C2609 1.327 . S
C2607 C2613 1.429 . S
C2608 C2600 1.574 . S
C2608 H2603 0.949 . S
C2608 C2614 1.368 . S
C2609 C2593 1.349 . S
C2609 H2601 0.950 . S
C2609 C2607 1.327 . S
C2610 C2598 1.349 . S
C2610 H2604 0.950 . S
C2610 C2611 1.327 . S
C2611 H2605 0.950 . S
C2611 C2610 1.327 . S
C2611 C2615 1.429 . S
C2612 C2595 1.574 . S
C2612 H2606 0.949 . S
C2612 C2616 1.368 . S
C2613 C2594 1.429 . S
C2613 C2607 1.429 . S
C2613 C2614 1.523 . S
C2614 C2595 1.368 . S
C2614 C2608 1.368 . S
C2614 C2613 1.523 . S
C2615 C2599 1.429 . S
C2615 C2611 1.429 . S
C2615 C2616 1.523 . S
C2616 C2600 1.368 . S
C2616 C2612 1.368 . S
C2616 C2615 1.523 . S
H2617 C2592 0.950 . S
H2618 C2594 0.950 . S
H2619 C2595 0.949 . S
H2620 C2597 0.950 . S
H2621 C2599 0.950 . S
C2622 C2623 1.349 . S
C2622 C2624 1.327 . S
C2622 H2647 0.950 . S
C2623 C2622 1.349 . S
C2623 C2639 1.349 . S
C2624 C2622 1.327 . S
C2624 C2643 1.429 . S
C2624 H2648 0.950 . S
C2625 C2642 1.574 . S
C2625 C2644 1.368 . S
C2625 H2649 0.949 . S
H2626 C2630 0.949 . S
C2627 C2628 1.349 . S
C2627 C2629 1.327 . S
C2627 H2650 0.950 . S
C2628 C2627 1.349 . S
C2628 C2640 1.349 . S
C2629 C2627 1.327 . S
C2629 C2645 1.429 . S
C2629 H2651 0.950 . S
C2630 H2626 0.949 . S
C2630 C2638 1.574 . S
C2630 C2646 1.368 . S
H2631 C2639 0.950 . S
H2632 C2637 0.950 . S
H2633 C2638 0.949 . S
H2634 C2640 0.950 . S
H2635 C2641 0.950 . S
H2636 C2642 0.949 . S
C2637 H2632 0.950 . S
C2637 C2639 1.327 . S
C2637 C2643 1.429 . S
C2638 C2630 1.574 . S
C2638 H2633 0.949 . S
C2638 C2644 1.368 . S
C2639 C2623 1.349 . S
C2639 H2631 0.950 . S
C2639 C2637 1.327 . S
C2640 C2628 1.349 . S
C2640 H2634 0.950 . S
C2640 C2641 1.327 . S
C2641 H2635 0.950 . S
C2641 C2640 1.327 . S
C2641 C2645 1.429 . S
C2642 C2625 1.574 . S
C2642 H2636 0.949 . S
C2642 C2646 1.368 . S
C2643 C2624 1.429 . S
C2643 C2637 1.429 . S
C2643 C2644 1.523 . S
C2644 C2625 1.368 . S
C2644 C2638 1.368 . S
C2644 C2643 1.523 . S
C2645 C2629 1.429 . S
C2645 C2641 1.429 . S
C2645 C2646 1.523 . S
C2646 C2630 1.368 . S
C2646 C2642 1.368 . S
C2646 C2645 1.523 . S
H2647 C2622 0.950 . S
H2648 C2624 0.950 . S
H2649 C2625 0.949 . S
H2650 C2627 0.950 . S
H2651 C2629 0.950 . S
C2652 C2653 1.349 . S
C2652 C2654 1.327 . S
C2652 H2677 0.950 . S
C2653 C2652 1.349 . S
C2653 C2669 1.349 . S
C2654 C2652 1.327 . S
C2654 C2673 1.429 . S
C2654 H2678 0.950 . S
C2655 C2672 1.574 . S
C2655 C2674 1.368 . S
C2655 H2679 0.949 . S
H2656 C2660 0.949 . S
C2657 C2658 1.349 . S
C2657 C2659 1.327 . S
C2657 H2680 0.950 . S
C2658 C2657 1.349 . S
C2658 C2670 1.349 . S
C2659 C2657 1.327 . S
C2659 C2675 1.429 . S
C2659 H2681 0.950 . S
C2660 H2656 0.949 . S
C2660 C2668 1.574 . S
C2660 C2676 1.368 . S
H2661 C2669 0.950 . S
H2662 C2667 0.950 . S
H2663 C2668 0.949 . S
H2664 C2670 0.950 . S
H2665 C2671 0.950 . S
H2666 C2672 0.949 . S
C2667 H2662 0.950 . S
C2667 C2669 1.327 . S
C2667 C2673 1.429 . S
C2668 C2660 1.574 . S
C2668 H2663 0.949 . S
C2668 C2674 1.368 . S
C2669 C2653 1.349 . S
C2669 H2661 0.950 . S
C2669 C2667 1.327 . S
C2670 C2658 1.349 . S
C2670 H2664 0.950 . S
C2670 C2671 1.327 . S
C2671 H2665 0.950 . S
C2671 C2670 1.327 . S
C2671 C2675 1.429 . S
C2672 C2655 1.574 . S
C2672 H2666 0.949 . S
C2672 C2676 1.368 . S
C2673 C2654 1.429 . S
C2673 C2667 1.429 . S
C2673 C2674 1.523 . S
C2674 C2655 1.368 . S
C2674 C2668 1.368 . S
C2674 C2673 1.523 . S
C2675 C2659 1.429 . S
C2675 C2671 1.429 . S
C2675 C2676 1.523 . S
C2676 C2660 1.368 . S
C2676 C2672 1.368 . S
C2676 C2675 1.523 . S
H2677 C2652 0.950 . S
H2678 C2654 0.950 . S
H2679 C2655 0.949 . S
H2680 C2657 0.950 . S
H2681 C2659 0.950 . S
C2682 C2683 1.349 . S
C2682 C2684 1.327 . S
C2682 H2707 0.950 . S
C2683 C2682 1.349 . S
C2683 C2699 1.349 1_554 S
C2684 C2682 1.327 . S
C2684 C2703 1.429 . S
C2684 H2708 0.950 . S
C2685 C2702 1.574 . S
C2685 C2704 1.368 1_556 S
C2685 H2709 0.949 . S
H2686 C2690 0.949 . S
C2687 C2688 1.349 1_556 S
C2687 C2689 1.327 . S
C2687 H2710 0.950 . S
C2688 C2687 1.349 1_554 S
C2688 C2700 1.349 . S
C2689 C2687 1.327 . S
C2689 C2705 1.429 1_556 S
C2689 H2711 0.950 . S
C2690 H2686 0.949 . S
C2690 C2698 1.574 . S
C2690 C2706 1.368 . S
H2691 C2699 0.950 . S
H2692 C2697 0.950 . S
H2693 C2698 0.949 . S
H2694 C2700 0.950 . S
H2695 C2701 0.950 . S
H2696 C2702 0.949 . S
C2697 H2692 0.950 . S
C2697 C2699 1.327 . S
C2697 C2703 1.429 1_556 S
C2698 C2690 1.574 . S
C2698 H2693 0.949 . S
C2698 C2704 1.368 . S
C2699 C2683 1.349 1_556 S
C2699 H2691 0.950 . S
C2699 C2697 1.327 . S
C2700 C2688 1.349 . S
C2700 H2694 0.950 . S
C2700 C2701 1.327 . S
C2701 H2695 0.950 . S
C2701 C2700 1.327 . S
C2701 C2705 1.429 . S
C2702 C2685 1.574 . S
C2702 H2696 0.949 . S
C2702 C2706 1.368 1_556 S
C2703 C2684 1.429 . S
C2703 C2697 1.429 1_554 S
C2703 C2704 1.523 . S
C2704 C2685 1.368 1_554 S
C2704 C2698 1.368 . S
C2704 C2703 1.523 . S
C2705 C2689 1.429 1_554 S
C2705 C2701 1.429 . S
C2705 C2706 1.523 . S
C2706 C2690 1.368 . S
C2706 C2702 1.368 1_554 S
C2706 C2705 1.523 . S
H2707 C2682 0.950 . S
H2708 C2684 0.950 . S
H2709 C2685 0.949 . S
H2710 C2687 0.950 . S
H2711 C2689 0.950 . S
C2712 C2713 1.349 . S
C2712 C2714 1.327 . S
C2712 H2737 0.950 . S
C2713 C2712 1.349 . S
C2713 C2729 1.349 . S
C2714 C2712 1.327 . S
C2714 C2733 1.429 . S
C2714 H2738 0.950 . S
C2715 C2732 1.574 . S
C2715 C2734 1.368 . S
C2715 H2739 0.949 . S
H2716 C2720 0.949 . S
C2717 C2718 1.349 . S
C2717 C2719 1.327 . S
C2717 H2740 0.950 . S
C2718 C2717 1.349 . S
C2718 C2730 1.349 . S
C2719 C2717 1.327 . S
C2719 C2735 1.429 . S
C2719 H2741 0.950 . S
C2720 H2716 0.949 . S
C2720 C2728 1.574 . S
C2720 C2736 1.368 . S
H2721 C2729 0.950 . S
H2722 C2727 0.950 . S
H2723 C2728 0.949 . S
H2724 C2730 0.950 . S
H2725 C2731 0.950 . S
H2726 C2732 0.949 . S
C2727 H2722 0.950 . S
C2727 C2729 1.327 . S
C2727 C2733 1.429 . S
C2728 C2720 1.574 . S
C2728 H2723 0.949 . S
C2728 C2734 1.368 . S
C2729 C2713 1.349 . S
C2729 H2721 0.950 . S
C2729 C2727 1.327 . S
C2730 C2718 1.349 . S
C2730 H2724 0.950 . S
C2730 C2731 1.327 . S
C2731 H2725 0.950 . S
C2731 C2730 1.327 . S
C2731 C2735 1.429 . S
C2732 C2715 1.574 . S
C2732 H2726 0.949 . S
C2732 C2736 1.368 . S
C2733 C2714 1.429 . S
C2733 C2727 1.429 . S
C2733 C2734 1.523 . S
C2734 C2715 1.368 . S
C2734 C2728 1.368 . S
C2734 C2733 1.523 . S
C2735 C2719 1.429 . S
C2735 C2731 1.429 . S
C2735 C2736 1.523 . S
C2736 C2720 1.368 . S
C2736 C2732 1.368 . S
C2736 C2735 1.523 . S
H2737 C2712 0.950 . S
H2738 C2714 0.950 . S
H2739 C2715 0.949 . S
H2740 C2717 0.950 . S
H2741 C2719 0.950 . S
C2742 C2743 1.349 . S
C2742 C2744 1.327 . S
C2742 H2767 0.950 . S
C2743 C2742 1.349 . S
C2743 C2759 1.349 1_554 S
C2744 C2742 1.327 . S
C2744 C2763 1.429 . S
C2744 H2768 0.950 . S
C2745 C2762 1.574 . S
C2745 C2764 1.368 1_556 S
C2745 H2769 0.949 . S
H2746 C2750 0.949 . S
C2747 C2748 1.349 . S
C2747 C2749 1.327 . S
C2747 H2770 0.950 . S
C2748 C2747 1.349 . S
C2748 C2760 1.349 1_556 S
C2749 C2747 1.327 . S
C2749 C2765 1.442 . S
C2749 H2771 0.950 . S
C2750 H2746 0.949 . S
C2750 C2758 1.574 . S
C2750 C2766 1.385 . S
H2751 C2759 0.950 . S
H2752 C2757 0.950 . S
H2753 C2758 0.949 . S
H2754 C2760 0.950 . S
H2755 C2761 0.950 . S
H2756 C2762 0.949 . S
C2757 H2752 0.950 . S
C2757 C2759 1.327 . S
C2757 C2763 1.429 1_556 S
C2758 C2750 1.574 . S
C2758 H2753 0.949 . S
C2758 C2764 1.368 . S
C2759 C2743 1.349 1_556 S
C2759 H2751 0.950 . S
C2759 C2757 1.327 . S
C2760 C2748 1.349 1_554 S
C2760 H2754 0.950 . S
C2760 C2761 1.327 . S
C2761 H2755 0.950 . S
C2761 C2760 1.327 . S
C2761 C2765 1.415 1_554 S
C2762 C2745 1.574 . S
C2762 H2756 0.949 . S
C2762 C2766 1.352 1_556 S
C2763 C2744 1.429 . S
C2763 C2757 1.429 1_554 S
C2763 C2764 1.523 . S
C2764 C2745 1.368 1_554 S
C2764 C2758 1.368 . S
C2764 C2763 1.523 . S
C2765 C2749 1.442 . S
C2765 C2761 1.415 1_556 S
C2765 C2766 1.522 1_556 S
C2766 C2750 1.385 . S
C2766 C2762 1.352 1_554 S
C2766 C2765 1.522 1_554 S
H2767 C2742 0.950 . S
H2768 C2744 0.950 . S
H2769 C2745 0.949 . S
H2770 C2747 0.950 . S
H2771 C2749 0.950 . S
C2772 C2773 1.349 . S
C2772 C2774 1.327 . S
C2772 H2797 0.950 . S
C2773 C2772 1.349 . S
C2773 C2789 1.349 . S
C2774 C2772 1.327 . S
C2774 C2793 1.429 . S
C2774 H2798 0.950 . S
C2775 C2792 1.574 . S
C2775 C2794 1.368 . S
C2775 H2799 0.949 . S
H2776 C2780 0.949 . S
C2777 C2778 1.349 . S
C2777 C2779 1.327 . S
C2777 H2800 0.950 . S
C2778 C2777 1.349 . S
C2778 C2790 1.349 . S
C2779 C2777 1.327 . S
C2779 C2795 1.429 . S
C2779 H2801 0.950 . S
C2780 H2776 0.949 . S
C2780 C2788 1.574 . S
C2780 C2796 1.368 . S
H2781 C2789 0.950 . S
H2782 C2787 0.950 . S
H2783 C2788 0.949 . S
H2784 C2790 0.950 . S
H2785 C2791 0.950 . S
H2786 C2792 0.949 . S
C2787 H2782 0.950 . S
C2787 C2789 1.327 . S
C2787 C2793 1.429 . S
C2788 C2780 1.574 . S
C2788 H2783 0.949 . S
C2788 C2794 1.368 . S
C2789 C2773 1.349 . S
C2789 H2781 0.950 . S
C2789 C2787 1.327 . S
C2790 C2778 1.349 . S
C2790 H2784 0.950 . S
C2790 C2791 1.327 . S
C2791 H2785 0.950 . S
C2791 C2790 1.327 . S
C2791 C2795 1.429 . S
C2792 C2775 1.574 . S
C2792 H2786 0.949 . S
C2792 C2796 1.368 . S
C2793 C2774 1.429 . S
C2793 C2787 1.429 . S
C2793 C2794 1.523 . S
C2794 C2775 1.368 . S
C2794 C2788 1.368 . S
C2794 C2793 1.523 . S
C2795 C2779 1.429 . S
C2795 C2791 1.429 . S
C2795 C2796 1.523 . S
C2796 C2780 1.368 . S
C2796 C2792 1.368 . S
C2796 C2795 1.523 . S
H2797 C2772 0.950 . S
H2798 C2774 0.950 . S
H2799 C2775 0.949 . S
H2800 C2777 0.950 . S
H2801 C2779 0.950 . S
C2802 C2803 1.349 . S
C2802 C2804 1.327 . S
C2802 H2827 0.950 . S
C2803 C2802 1.349 . S
C2803 C2819 1.349 . S
C2804 C2802 1.327 . S
C2804 C2823 1.429 . S
C2804 H2828 0.950 . S
C2805 C2822 1.574 . S
C2805 C2824 1.368 . S
C2805 H2829 0.949 . S
H2806 C2810 0.949 . S
C2807 C2808 1.349 . S
C2807 C2809 1.327 . S
C2807 H2830 0.950 . S
C2808 C2807 1.349 . S
C2808 C2820 1.349 . S
C2809 C2807 1.327 . S
C2809 C2825 1.429 . S
C2809 H2831 0.950 . S
C2810 H2806 0.949 . S
C2810 C2818 1.574 . S
C2810 C2826 1.368 . S
H2811 C2819 0.950 . S
H2812 C2817 0.950 . S
H2813 C2818 0.949 . S
H2814 C2820 0.950 . S
H2815 C2821 0.950 . S
H2816 C2822 0.949 . S
C2817 H2812 0.950 . S
C2817 C2819 1.327 . S
C2817 C2823 1.429 . S
C2818 C2810 1.574 . S
C2818 H2813 0.949 . S
C2818 C2824 1.368 . S
C2819 C2803 1.349 . S
C2819 H2811 0.950 . S
C2819 C2817 1.327 . S
C2820 C2808 1.349 . S
C2820 H2814 0.950 . S
C2820 C2821 1.327 . S
C2821 H2815 0.950 . S
C2821 C2820 1.327 . S
C2821 C2825 1.429 . S
C2822 C2805 1.574 . S
C2822 H2816 0.949 . S
C2822 C2826 1.368 . S
C2823 C2804 1.429 . S
C2823 C2817 1.429 . S
C2823 C2824 1.523 . S
C2824 C2805 1.368 . S
C2824 C2818 1.368 . S
C2824 C2823 1.523 . S
C2825 C2809 1.429 . S
C2825 C2821 1.429 . S
C2825 C2826 1.523 . S
C2826 C2810 1.368 . S
C2826 C2822 1.368 . S
C2826 C2825 1.523 . S
H2827 C2802 0.950 . S
H2828 C2804 0.950 . S
H2829 C2805 0.949 . S
H2830 C2807 0.950 . S
H2831 C2809 0.950 . S
C2832 C2833 1.349 . S
C2832 C2834 1.327 . S
C2832 H2857 0.950 . S
C2833 C2832 1.349 . S
C2833 C2849 1.349 . S
C2834 C2832 1.327 . S
C2834 C2853 1.429 . S
C2834 H2858 0.950 . S
C2835 C2852 1.574 . S
C2835 C2854 1.368 . S
C2835 H2859 0.949 . S
H2836 C2840 0.949 . S
C2837 C2838 1.349 . S
C2837 C2839 1.327 . S
C2837 H2860 0.950 . S
C2838 C2837 1.349 . S
C2838 C2850 1.349 . S
C2839 C2837 1.327 . S
C2839 C2855 1.429 . S
C2839 H2861 0.950 . S
C2840 H2836 0.949 . S
C2840 C2848 1.574 . S
C2840 C2856 1.368 . S
H2841 C2849 0.950 . S
H2842 C2847 0.950 . S
H2843 C2848 0.949 . S
H2844 C2850 0.950 . S
H2845 C2851 0.950 . S
H2846 C2852 0.949 . S
C2847 H2842 0.950 . S
C2847 C2849 1.327 . S
C2847 C2853 1.429 . S
C2848 C2840 1.574 . S
C2848 H2843 0.949 . S
C2848 C2854 1.368 . S
C2849 C2833 1.349 . S
C2849 H2841 0.950 . S
C2849 C2847 1.327 . S
C2850 C2838 1.349 . S
C2850 H2844 0.950 . S
C2850 C2851 1.327 . S
C2851 H2845 0.950 . S
C2851 C2850 1.327 . S
C2851 C2855 1.429 . S
C2852 C2835 1.574 . S
C2852 H2846 0.949 . S
C2852 C2856 1.368 . S
C2853 C2834 1.429 . S
C2853 C2847 1.429 . S
C2853 C2854 1.523 . S
C2854 C2835 1.368 . S
C2854 C2848 1.368 . S
C2854 C2853 1.523 . S
C2855 C2839 1.429 . S
C2855 C2851 1.429 . S
C2855 C2856 1.523 . S
C2856 C2840 1.368 . S
C2856 C2852 1.368 . S
C2856 C2855 1.523 . S
H2857 C2832 0.950 . S
H2858 C2834 0.950 . S
H2859 C2835 0.949 . S
H2860 C2837 0.950 . S
H2861 C2839 0.950 . S
C2862 C2863 1.349 . S
C2862 C2864 1.327 . S
C2862 H2887 0.950 . S
C2863 C2862 1.349 . S
C2863 C2879 1.349 . S
C2864 C2862 1.327 . S
C2864 C2883 1.429 . S
C2864 H2888 0.950 . S
C2865 C2882 1.574 . S
C2865 C2884 1.368 . S
C2865 H2889 0.949 . S
H2866 C2870 0.949 . S
C2867 C2868 1.349 . S
C2867 C2869 1.327 . S
C2867 H2890 0.950 . S
C2868 C2867 1.349 . S
C2868 C2880 1.349 . S
C2869 C2867 1.327 . S
C2869 C2885 1.429 . S
C2869 H2891 0.950 . S
C2870 H2866 0.949 . S
C2870 C2878 1.574 . S
C2870 C2886 1.368 . S
H2871 C2879 0.950 . S
H2872 C2877 0.950 . S
H2873 C2878 0.949 . S
H2874 C2880 0.950 . S
H2875 C2881 0.950 . S
H2876 C2882 0.949 . S
C2877 H2872 0.950 . S
C2877 C2879 1.327 . S
C2877 C2883 1.429 . S
C2878 C2870 1.574 . S
C2878 H2873 0.949 . S
C2878 C2884 1.368 . S
C2879 C2863 1.349 . S
C2879 H2871 0.950 . S
C2879 C2877 1.327 . S
C2880 C2868 1.349 . S
C2880 H2874 0.950 . S
C2880 C2881 1.327 . S
C2881 H2875 0.950 . S
C2881 C2880 1.327 . S
C2881 C2885 1.429 . S
C2882 C2865 1.574 . S
C2882 H2876 0.949 . S
C2882 C2886 1.368 . S
C2883 C2864 1.429 . S
C2883 C2877 1.429 . S
C2883 C2884 1.523 . S
C2884 C2865 1.368 . S
C2884 C2878 1.368 . S
C2884 C2883 1.523 . S
C2885 C2869 1.429 . S
C2885 C2881 1.429 . S
C2885 C2886 1.523 . S
C2886 C2870 1.368 . S
C2886 C2882 1.368 . S
C2886 C2885 1.523 . S
H2887 C2862 0.950 . S
H2888 C2864 0.950 . S
H2889 C2865 0.949 . S
H2890 C2867 0.950 . S
H2891 C2869 0.950 . S
C2892 C2893 1.349 1_655 S
C2892 C2894 1.327 . S
C2892 H2917 0.950 . S
C2893 C2892 1.349 1_455 S
C2893 C2909 1.349 . S
C2894 C2892 1.327 . S
C2894 C2913 1.429 1_655 S
C2894 H2918 0.950 . S
C2895 C2912 1.574 . S
C2895 C2914 1.368 . S
C2895 H2919 0.949 . S
H2896 C2900 0.949 . S
C2897 C2898 1.349 1_455 S
C2897 C2899 1.327 . S
C2897 H2920 0.950 . S
C2898 C2897 1.349 1_655 S
C2898 C2910 1.349 . S
C2899 C2897 1.327 . S
C2899 C2915 1.410 1_455 S
C2899 H2921 0.950 . S
C2900 H2896 0.949 . S
C2900 C2908 1.574 . S
C2900 C2916 1.349 1_655 S
H2901 C2909 0.950 . S
H2902 C2907 0.950 . S
H2903 C2908 0.949 . S
H2904 C2910 0.950 . S
H2905 C2911 0.950 . S
H2906 C2912 0.949 . S
C2907 H2902 0.950 . S
C2907 C2909 1.327 . S
C2907 C2913 1.429 . S
C2908 C2900 1.574 . S
C2908 H2903 0.949 . S
C2908 C2914 1.368 1_655 S
C2909 C2893 1.349 . S
C2909 H2901 0.950 . S
C2909 C2907 1.327 . S
C2910 C2898 1.349 . S
C2910 H2904 0.950 . S
C2910 C2911 1.327 . S
C2911 H2905 0.950 . S
C2911 C2910 1.327 . S
C2911 C2915 1.450 . S
C2912 C2895 1.574 . S
C2912 H2906 0.949 . S
C2912 C2916 1.389 . S
C2913 C2894 1.429 1_455 S
C2913 C2907 1.429 . S
C2913 C2914 1.523 . S
C2914 C2895 1.368 . S
C2914 C2908 1.368 1_455 S
C2914 C2913 1.523 . S
C2915 C2899 1.410 1_655 S
C2915 C2911 1.450 . S
C2915 C2916 1.521 1_655 S
C2916 C2900 1.349 1_455 S
C2916 C2912 1.389 . S
C2916 C2915 1.521 1_455 S
H2917 C2892 0.950 . S
H2918 C2894 0.950 . S
H2919 C2895 0.949 . S
H2920 C2897 0.950 . S
H2921 C2899 0.950 . S
C2922 C2923 1.349 . S
C2922 C2924 1.327 . S
C2922 H2947 0.950 . S
C2923 C2922 1.349 . S
C2923 C2939 1.349 . S
C2924 C2922 1.327 . S
C2924 C2943 1.429 . S
C2924 H2948 0.950 . S
C2925 C2942 1.574 . S
C2925 C2944 1.368 . S
C2925 H2949 0.949 . S
H2926 C2930 0.949 . S
C2927 C2928 1.349 . S
C2927 C2929 1.327 . S
C2927 H2950 0.950 . S
C2928 C2927 1.349 . S
C2928 C2940 1.349 . S
C2929 C2927 1.327 . S
C2929 C2945 1.429 . S
C2929 H2951 0.950 . S
C2930 H2926 0.949 . S
C2930 C2938 1.574 . S
C2930 C2946 1.368 . S
H2931 C2939 0.950 . S
H2932 C2937 0.950 . S
H2933 C2938 0.949 . S
H2934 C2940 0.950 . S
H2935 C2941 0.950 . S
H2936 C2942 0.949 . S
C2937 H2932 0.950 . S
C2937 C2939 1.327 . S
C2937 C2943 1.429 . S
C2938 C2930 1.574 . S
C2938 H2933 0.949 . S
C2938 C2944 1.368 . S
C2939 C2923 1.349 . S
C2939 H2931 0.950 . S
C2939 C2937 1.327 . S
C2940 C2928 1.349 . S
C2940 H2934 0.950 . S
C2940 C2941 1.327 . S
C2941 H2935 0.950 . S
C2941 C2940 1.327 . S
C2941 C2945 1.429 . S
C2942 C2925 1.574 . S
C2942 H2936 0.949 . S
C2942 C2946 1.368 . S
C2943 C2924 1.429 . S
C2943 C2937 1.429 . S
C2943 C2944 1.523 . S
C2944 C2925 1.368 . S
C2944 C2938 1.368 . S
C2944 C2943 1.523 . S
C2945 C2929 1.429 . S
C2945 C2941 1.429 . S
C2945 C2946 1.523 . S
C2946 C2930 1.368 . S
C2946 C2942 1.368 . S
C2946 C2945 1.523 . S
H2947 C2922 0.950 . S
H2948 C2924 0.950 . S
H2949 C2925 0.949 . S
H2950 C2927 0.950 . S
H2951 C2929 0.950 . S
C2952 C2953 1.349 . S
C2952 C2954 1.327 . S
C2952 H2977 0.950 . S
C2953 C2952 1.349 . S
C2953 C2969 1.349 . S
C2954 C2952 1.327 . S
C2954 C2973 1.429 . S
C2954 H2978 0.950 . S
C2955 C2972 1.574 . S
C2955 C2974 1.368 . S
C2955 H2979 0.949 . S
H2956 C2960 0.949 . S
C2957 C2958 1.349 . S
C2957 C2959 1.327 . S
C2957 H2980 0.950 . S
C2958 C2957 1.349 . S
C2958 C2970 1.349 . S
C2959 C2957 1.327 . S
C2959 C2975 1.429 . S
C2959 H2981 0.950 . S
C2960 H2956 0.949 . S
C2960 C2968 1.574 . S
C2960 C2976 1.368 . S
H2961 C2969 0.950 . S
H2962 C2967 0.950 . S
H2963 C2968 0.949 . S
H2964 C2970 0.950 . S
H2965 C2971 0.950 . S
H2966 C2972 0.949 . S
C2967 H2962 0.950 . S
C2967 C2969 1.327 . S
C2967 C2973 1.429 . S
C2968 C2960 1.574 . S
C2968 H2963 0.949 . S
C2968 C2974 1.368 . S
C2969 C2953 1.349 . S
C2969 H2961 0.950 . S
C2969 C2967 1.327 . S
C2970 C2958 1.349 . S
C2970 H2964 0.950 . S
C2970 C2971 1.327 . S
C2971 H2965 0.950 . S
C2971 C2970 1.327 . S
C2971 C2975 1.429 . S
C2972 C2955 1.574 . S
C2972 H2966 0.949 . S
C2972 C2976 1.368 . S
C2973 C2954 1.429 . S
C2973 C2967 1.429 . S
C2973 C2974 1.523 . S
C2974 C2955 1.368 . S
C2974 C2968 1.368 . S
C2974 C2973 1.523 . S
C2975 C2959 1.429 . S
C2975 C2971 1.429 . S
C2975 C2976 1.523 . S
C2976 C2960 1.368 . S
C2976 C2972 1.368 . S
C2976 C2975 1.523 . S
H2977 C2952 0.950 . S
H2978 C2954 0.950 . S
H2979 C2955 0.949 . S
H2980 C2957 0.950 . S
H2981 C2959 0.950 . S
C2982 C2983 1.349 . S
C2982 C2984 1.327 . S
C2982 H3007 0.950 . S
C2983 C2982 1.349 . S
C2983 C2999 1.349 . S
C2984 C2982 1.327 . S
C2984 C3003 1.429 . S
C2984 H3008 0.950 . S
C2985 C3002 1.574 . S
C2985 C3004 1.368 . S
C2985 H3009 0.949 . S
H2986 C2990 0.949 . S
C2987 C2988 1.349 . S
C2987 C2989 1.327 . S
C2987 H3010 0.950 . S
C2988 C2987 1.349 . S
C2988 C3000 1.349 . S
C2989 C2987 1.327 . S
C2989 C3005 1.429 . S
C2989 H3011 0.950 . S
C2990 H2986 0.949 . S
C2990 C2998 1.574 . S
C2990 C3006 1.368 . S
H2991 C2999 0.950 . S
H2992 C2997 0.950 . S
H2993 C2998 0.949 . S
H2994 C3000 0.950 . S
H2995 C3001 0.950 . S
H2996 C3002 0.949 . S
C2997 H2992 0.950 . S
C2997 C2999 1.327 . S
C2997 C3003 1.429 . S
C2998 C2990 1.574 . S
C2998 H2993 0.949 . S
C2998 C3004 1.368 . S
C2999 C2983 1.349 . S
C2999 H2991 0.950 . S
C2999 C2997 1.327 . S
C3000 C2988 1.349 . S
C3000 H2994 0.950 . S
C3000 C3001 1.327 . S
C3001 H2995 0.950 . S
C3001 C3000 1.327 . S
C3001 C3005 1.429 . S
C3002 C2985 1.574 . S
C3002 H2996 0.949 . S
C3002 C3006 1.368 . S
C3003 C2984 1.429 . S
C3003 C2997 1.429 . S
C3003 C3004 1.523 . S
C3004 C2985 1.368 . S
C3004 C2998 1.368 . S
C3004 C3003 1.523 . S
C3005 C2989 1.429 . S
C3005 C3001 1.429 . S
C3005 C3006 1.523 . S
C3006 C2990 1.368 . S
C3006 C3002 1.368 . S
C3006 C3005 1.523 . S
H3007 C2982 0.950 . S
H3008 C2984 0.950 . S
H3009 C2985 0.949 . S
H3010 C2987 0.950 . S
H3011 C2989 0.950 . S
C3012 C3013 1.349 . S
C3012 C3014 1.327 . S
C3012 H3037 0.950 . S
C3013 C3012 1.349 . S
C3013 C3029 1.349 1_455 S
C3014 C3012 1.327 . S
C3014 C3033 1.429 . S
C3014 H3038 0.950 . S
C3015 C3032 1.574 . S
C3015 C3034 1.368 1_655 S
C3015 H3039 0.949 . S
H3016 C3020 0.949 . S
C3017 C3018 1.349 . S
C3017 C3019 1.327 . S
C3017 H3040 0.950 . S
C3018 C3017 1.349 . S
C3018 C3030 1.349 1_655 S
C3019 C3017 1.327 . S
C3019 C3035 1.433 . S
C3019 H3041 0.950 . S
C3020 H3016 0.949 . S
C3020 C3028 1.574 . S
C3020 C3036 1.390 . S
H3021 C3029 0.950 . S
H3022 C3027 0.950 . S
H3023 C3028 0.949 . S
H3024 C3030 0.950 . S
H3025 C3031 0.950 . S
H3026 C3032 0.949 . S
C3027 H3022 0.950 . S
C3027 C3029 1.327 . S
C3027 C3033 1.429 1_655 S
C3028 C3020 1.574 . S
C3028 H3023 0.949 . S
C3028 C3034 1.368 . S
C3029 C3013 1.349 1_655 S
C3029 H3021 0.950 . S
C3029 C3027 1.327 . S
C3030 C3018 1.349 1_455 S
C3030 H3024 0.950 . S
C3030 C3031 1.327 . S
C3031 H3025 0.950 . S
C3031 C3030 1.327 . S
C3031 C3035 1.425 1_455 S
C3032 C3015 1.574 . S
C3032 H3026 0.949 . S
C3032 C3036 1.348 1_655 S
C3033 C3014 1.429 . S
C3033 C3027 1.429 1_455 S
C3033 C3034 1.523 . S
C3034 C3015 1.368 1_455 S
C3034 C3028 1.368 . S
C3034 C3033 1.523 . S
C3035 C3019 1.433 . S
C3035 C3031 1.425 1_655 S
C3035 C3036 1.521 1_655 S
C3036 C3020 1.390 . S
C3036 C3032 1.348 1_455 S
C3036 C3035 1.521 1_455 S
H3037 C3012 0.950 . S
H3038 C3014 0.950 . S
H3039 C3015 0.949 . S
H3040 C3017 0.950 . S
H3041 C3019 0.950 . S
C3042 C3043 1.349 . S
C3042 C3044 1.327 . S
C3042 H3067 0.950 . S
C3043 C3042 1.349 . S
C3043 C3059 1.349 . S
C3044 C3042 1.327 . S
C3044 C3063 1.429 . S
C3044 H3068 0.950 . S
C3045 C3062 1.574 . S
C3045 C3064 1.368 . S
C3045 H3069 0.949 . S
H3046 C3050 0.949 . S
C3047 C3048 1.349 . S
C3047 C3049 1.327 . S
C3047 H3070 0.950 . S
C3048 C3047 1.349 . S
C3048 C3060 1.349 . S
C3049 C3047 1.327 . S
C3049 C3065 1.429 . S
C3049 H3071 0.950 . S
C3050 H3046 0.949 . S
C3050 C3058 1.574 . S
C3050 C3066 1.368 . S
H3051 C3059 0.950 . S
H3052 C3057 0.950 . S
H3053 C3058 0.949 . S
H3054 C3060 0.950 . S
H3055 C3061 0.950 . S
H3056 C3062 0.949 . S
C3057 H3052 0.950 . S
C3057 C3059 1.327 . S
C3057 C3063 1.429 . S
C3058 C3050 1.574 . S
C3058 H3053 0.949 . S
C3058 C3064 1.368 . S
C3059 C3043 1.349 . S
C3059 H3051 0.950 . S
C3059 C3057 1.327 . S
C3060 C3048 1.349 . S
C3060 H3054 0.950 . S
C3060 C3061 1.327 . S
C3061 H3055 0.950 . S
C3061 C3060 1.327 . S
C3061 C3065 1.429 . S
C3062 C3045 1.574 . S
C3062 H3056 0.949 . S
C3062 C3066 1.368 . S
C3063 C3044 1.429 . S
C3063 C3057 1.429 . S
C3063 C3064 1.523 . S
C3064 C3045 1.368 . S
C3064 C3058 1.368 . S
C3064 C3063 1.523 . S
C3065 C3049 1.429 . S
C3065 C3061 1.429 . S
C3065 C3066 1.523 . S
C3066 C3050 1.368 . S
C3066 C3062 1.368 . S
C3066 C3065 1.523 . S
H3067 C3042 0.950 . S
H3068 C3044 0.950 . S
H3069 C3045 0.949 . S
H3070 C3047 0.950 . S
H3071 C3049 0.950 . S
C3072 C3073 1.349 . S
C3072 C3074 1.327 . S
C3072 H3097 0.950 . S
C3073 C3072 1.349 . S
C3073 C3089 1.349 . S
C3074 C3072 1.327 . S
C3074 C3093 1.429 . S
C3074 H3098 0.950 . S
C3075 C3092 1.574 . S
C3075 C3094 1.368 . S
C3075 H3099 0.949 . S
H3076 C3080 0.949 . S
C3077 C3078 1.349 . S
C3077 C3079 1.327 . S
C3077 H3100 0.950 . S
C3078 C3077 1.349 . S
C3078 C3090 1.349 . S
C3079 C3077 1.327 . S
C3079 C3095 1.429 . S
C3079 H3101 0.950 . S
C3080 H3076 0.949 . S
C3080 C3088 1.574 . S
C3080 C3096 1.368 . S
H3081 C3089 0.950 . S
H3082 C3087 0.950 . S
H3083 C3088 0.949 . S
H3084 C3090 0.950 . S
H3085 C3091 0.950 . S
H3086 C3092 0.949 . S
C3087 H3082 0.950 . S
C3087 C3089 1.327 . S
C3087 C3093 1.429 . S
C3088 C3080 1.574 . S
C3088 H3083 0.949 . S
C3088 C3094 1.368 . S
C3089 C3073 1.349 . S
C3089 H3081 0.950 . S
C3089 C3087 1.327 . S
C3090 C3078 1.349 . S
C3090 H3084 0.950 . S
C3090 C3091 1.327 . S
C3091 H3085 0.950 . S
C3091 C3090 1.327 . S
C3091 C3095 1.429 . S
C3092 C3075 1.574 . S
C3092 H3086 0.949 . S
C3092 C3096 1.368 . S
C3093 C3074 1.429 . S
C3093 C3087 1.429 . S
C3093 C3094 1.523 . S
C3094 C3075 1.368 . S
C3094 C3088 1.368 . S
C3094 C3093 1.523 . S
C3095 C3079 1.429 . S
C3095 C3091 1.429 . S
C3095 C3096 1.523 . S
C3096 C3080 1.368 . S
C3096 C3092 1.368 . S
C3096 C3095 1.523 . S
H3097 C3072 0.950 . S
H3098 C3074 0.950 . S
H3099 C3075 0.949 . S
H3100 C3077 0.950 . S
H3101 C3079 0.950 . S
C3102 C3103 1.349 . S
C3102 C3104 1.327 . S
C3102 H3127 0.950 . S
C3103 C3102 1.349 . S
C3103 C3119 1.349 . S
C3104 C3102 1.327 . S
C3104 C3123 1.429 . S
C3104 H3128 0.950 . S
C3105 C3122 1.574 . S
C3105 C3124 1.368 . S
C3105 H3129 0.949 . S
H3106 C3110 0.949 . S
C3107 C3108 1.349 . S
C3107 C3109 1.327 . S
C3107 H3130 0.950 . S
C3108 C3107 1.349 . S
C3108 C3120 1.349 . S
C3109 C3107 1.327 . S
C3109 C3125 1.429 . S
C3109 H3131 0.950 . S
C3110 H3106 0.949 . S
C3110 C3118 1.574 . S
C3110 C3126 1.368 . S
H3111 C3119 0.950 . S
H3112 C3117 0.950 . S
H3113 C3118 0.949 . S
H3114 C3120 0.950 . S
H3115 C3121 0.950 . S
H3116 C3122 0.949 . S
C3117 H3112 0.950 . S
C3117 C3119 1.327 . S
C3117 C3123 1.429 . S
C3118 C3110 1.574 . S
C3118 H3113 0.949 . S
C3118 C3124 1.368 . S
C3119 C3103 1.349 . S
C3119 H3111 0.950 . S
C3119 C3117 1.327 . S
C3120 C3108 1.349 . S
C3120 H3114 0.950 . S
C3120 C3121 1.327 . S
C3121 H3115 0.950 . S
C3121 C3120 1.327 . S
C3121 C3125 1.429 . S
C3122 C3105 1.574 . S
C3122 H3116 0.949 . S
C3122 C3126 1.368 . S
C3123 C3104 1.429 . S
C3123 C3117 1.429 . S
C3123 C3124 1.523 . S
C3124 C3105 1.368 . S
C3124 C3118 1.368 . S
C3124 C3123 1.523 . S
C3125 C3109 1.429 . S
C3125 C3121 1.429 . S
C3125 C3126 1.523 . S
C3126 C3110 1.368 . S
C3126 C3122 1.368 . S
C3126 C3125 1.523 . S
H3127 C3102 0.950 . S
H3128 C3104 0.950 . S
H3129 C3105 0.949 . S
H3130 C3107 0.950 . S
H3131 C3109 0.950 . S
C3132 C3133 1.349 . S
C3132 C3134 1.327 . S
C3132 H3157 0.950 . S
C3133 C3132 1.349 . S
C3133 C3149 1.349 . S
C3134 C3132 1.327 . S
C3134 C3153 1.429 . S
C3134 H3158 0.950 . S
C3135 C3152 1.574 . S
C3135 C3154 1.368 . S
C3135 H3159 0.949 . S
H3136 C3140 0.949 . S
C3137 C3138 1.349 . S
C3137 C3139 1.327 . S
C3137 H3160 0.950 . S
C3138 C3137 1.349 . S
C3138 C3150 1.349 . S
C3139 C3137 1.327 . S
C3139 C3155 1.429 . S
C3139 H3161 0.950 . S
C3140 H3136 0.949 . S
C3140 C3148 1.574 . S
C3140 C3156 1.368 . S
H3141 C3149 0.950 . S
H3142 C3147 0.950 . S
H3143 C3148 0.949 . S
H3144 C3150 0.950 . S
H3145 C3151 0.950 . S
H3146 C3152 0.949 . S
C3147 H3142 0.950 . S
C3147 C3149 1.327 . S
C3147 C3153 1.429 . S
C3148 C3140 1.574 . S
C3148 H3143 0.949 . S
C3148 C3154 1.368 . S
C3149 C3133 1.349 . S
C3149 H3141 0.950 . S
C3149 C3147 1.327 . S
C3150 C3138 1.349 . S
C3150 H3144 0.950 . S
C3150 C3151 1.327 . S
C3151 H3145 0.950 . S
C3151 C3150 1.327 . S
C3151 C3155 1.429 . S
C3152 C3135 1.574 . S
C3152 H3146 0.949 . S
C3152 C3156 1.368 . S
C3153 C3134 1.429 . S
C3153 C3147 1.429 . S
C3153 C3154 1.523 . S
C3154 C3135 1.368 . S
C3154 C3148 1.368 . S
C3154 C3153 1.523 . S
C3155 C3139 1.429 . S
C3155 C3151 1.429 . S
C3155 C3156 1.523 . S
C3156 C3140 1.368 . S
C3156 C3152 1.368 . S
C3156 C3155 1.523 . S
H3157 C3132 0.950 . S
H3158 C3134 0.950 . S
H3159 C3135 0.949 . S
H3160 C3137 0.950 . S
H3161 C3139 0.950 . S
C3162 C3163 1.349 . S
C3162 C3164 1.327 . S
C3162 H3187 0.950 . S
C3163 C3162 1.349 . S
C3163 C3179 1.349 . S
C3164 C3162 1.327 . S
C3164 C3183 1.429 . S
C3164 H3188 0.950 . S
C3165 C3182 1.574 . S
C3165 C3184 1.368 . S
C3165 H3189 0.949 . S
H3166 C3170 0.949 . S
C3167 C3168 1.349 . S
C3167 C3169 1.327 . S
C3167 H3190 0.950 . S
C3168 C3167 1.349 . S
C3168 C3180 1.349 . S
C3169 C3167 1.327 . S
C3169 C3185 1.429 . S
C3169 H3191 0.950 . S
C3170 H3166 0.949 . S
C3170 C3178 1.574 . S
C3170 C3186 1.368 . S
H3171 C3179 0.950 . S
H3172 C3177 0.950 . S
H3173 C3178 0.949 . S
H3174 C3180 0.950 . S
H3175 C3181 0.950 . S
H3176 C3182 0.949 . S
C3177 H3172 0.950 . S
C3177 C3179 1.327 . S
C3177 C3183 1.429 . S
C3178 C3170 1.574 . S
C3178 H3173 0.949 . S
C3178 C3184 1.368 . S
C3179 C3163 1.349 . S
C3179 H3171 0.950 . S
C3179 C3177 1.327 . S
C3180 C3168 1.349 . S
C3180 H3174 0.950 . S
C3180 C3181 1.327 . S
C3181 H3175 0.950 . S
C3181 C3180 1.327 . S
C3181 C3185 1.429 . S
C3182 C3165 1.574 . S
C3182 H3176 0.949 . S
C3182 C3186 1.368 . S
C3183 C3164 1.429 . S
C3183 C3177 1.429 . S
C3183 C3184 1.523 . S
C3184 C3165 1.368 . S
C3184 C3178 1.368 . S
C3184 C3183 1.523 . S
C3185 C3169 1.429 . S
C3185 C3181 1.429 . S
C3185 C3186 1.523 . S
C3186 C3170 1.368 . S
C3186 C3182 1.368 . S
C3186 C3185 1.523 . S
H3187 C3162 0.950 . S
H3188 C3164 0.950 . S
H3189 C3165 0.949 . S
H3190 C3167 0.950 . S
H3191 C3169 0.950 . S
C3192 C3193 1.349 . S
C3192 C3194 1.327 . S
C3192 H3217 0.950 . S
C3193 C3192 1.349 . S
C3193 C3209 1.349 . S
C3194 C3192 1.327 . S
C3194 C3213 1.429 . S
C3194 H3218 0.950 . S
C3195 C3212 1.574 . S
C3195 C3214 1.368 . S
C3195 H3219 0.949 . S
H3196 C3200 0.949 . S
C3197 C3198 1.349 . S
C3197 C3199 1.327 . S
C3197 H3220 0.950 . S
C3198 C3197 1.349 . S
C3198 C3210 1.349 . S
C3199 C3197 1.327 . S
C3199 C3215 1.429 . S
C3199 H3221 0.950 . S
C3200 H3196 0.949 . S
C3200 C3208 1.574 . S
C3200 C3216 1.368 . S
H3201 C3209 0.950 . S
H3202 C3207 0.950 . S
H3203 C3208 0.949 . S
H3204 C3210 0.950 . S
H3205 C3211 0.950 . S
H3206 C3212 0.949 . S
C3207 H3202 0.950 . S
C3207 C3209 1.327 . S
C3207 C3213 1.429 . S
C3208 C3200 1.574 . S
C3208 H3203 0.949 . S
C3208 C3214 1.368 . S
C3209 C3193 1.349 . S
C3209 H3201 0.950 . S
C3209 C3207 1.327 . S
C3210 C3198 1.349 . S
C3210 H3204 0.950 . S
C3210 C3211 1.327 . S
C3211 H3205 0.950 . S
C3211 C3210 1.327 . S
C3211 C3215 1.429 . S
C3212 C3195 1.574 . S
C3212 H3206 0.949 . S
C3212 C3216 1.368 . S
C3213 C3194 1.429 . S
C3213 C3207 1.429 . S
C3213 C3214 1.523 . S
C3214 C3195 1.368 . S
C3214 C3208 1.368 . S
C3214 C3213 1.523 . S
C3215 C3199 1.429 . S
C3215 C3211 1.429 . S
C3215 C3216 1.523 . S
C3216 C3200 1.368 . S
C3216 C3212 1.368 . S
C3216 C3215 1.523 . S
H3217 C3192 0.950 . S
H3218 C3194 0.950 . S
H3219 C3195 0.949 . S
H3220 C3197 0.950 . S
H3221 C3199 0.950 . S
C3222 C3223 1.349 . S
C3222 C3224 1.327 . S
C3222 H3247 0.950 . S
C3223 C3222 1.349 . S
C3223 C3239 1.349 . S
C3224 C3222 1.327 . S
C3224 C3243 1.429 . S
C3224 H3248 0.950 . S
C3225 C3242 1.574 . S
C3225 C3244 1.368 . S
C3225 H3249 0.949 . S
H3226 C3230 0.949 . S
C3227 C3228 1.349 . S
C3227 C3229 1.327 . S
C3227 H3250 0.950 . S
C3228 C3227 1.349 . S
C3228 C3240 1.349 . S
C3229 C3227 1.327 . S
C3229 C3245 1.429 . S
C3229 H3251 0.950 . S
C3230 H3226 0.949 . S
C3230 C3238 1.574 . S
C3230 C3246 1.368 . S
H3231 C3239 0.950 . S
H3232 C3237 0.950 . S
H3233 C3238 0.949 . S
H3234 C3240 0.950 . S
H3235 C3241 0.950 . S
H3236 C3242 0.949 . S
C3237 H3232 0.950 . S
C3237 C3239 1.327 . S
C3237 C3243 1.429 . S
C3238 C3230 1.574 . S
C3238 H3233 0.949 . S
C3238 C3244 1.368 . S
C3239 C3223 1.349 . S
C3239 H3231 0.950 . S
C3239 C3237 1.327 . S
C3240 C3228 1.349 . S
C3240 H3234 0.950 . S
C3240 C3241 1.327 . S
C3241 H3235 0.950 . S
C3241 C3240 1.327 . S
C3241 C3245 1.429 . S
C3242 C3225 1.574 . S
C3242 H3236 0.949 . S
C3242 C3246 1.368 . S
C3243 C3224 1.429 . S
C3243 C3237 1.429 . S
C3243 C3244 1.523 . S
C3244 C3225 1.368 . S
C3244 C3238 1.368 . S
C3244 C3243 1.523 . S
C3245 C3229 1.429 . S
C3245 C3241 1.429 . S
C3245 C3246 1.523 . S
C3246 C3230 1.368 . S
C3246 C3242 1.368 . S
C3246 C3245 1.523 . S
H3247 C3222 0.950 . S
H3248 C3224 0.950 . S
H3249 C3225 0.949 . S
H3250 C3227 0.950 . S
H3251 C3229 0.950 . S
C3252 C3253 1.349 . S
C3252 C3254 1.327 . S
C3252 H3277 0.950 . S
C3253 C3252 1.349 . S
C3253 C3269 1.349 . S
C3254 C3252 1.327 . S
C3254 C3273 1.429 . S
C3254 H3278 0.950 . S
C3255 C3272 1.574 . S
C3255 C3274 1.368 . S
C3255 H3279 0.949 . S
H3256 C3260 0.949 . S
C3257 C3258 1.349 . S
C3257 C3259 1.327 . S
C3257 H3280 0.950 . S
C3258 C3257 1.349 . S
C3258 C3270 1.349 . S
C3259 C3257 1.327 . S
C3259 C3275 1.429 . S
C3259 H3281 0.950 . S
C3260 H3256 0.949 . S
C3260 C3268 1.574 . S
C3260 C3276 1.368 . S
H3261 C3269 0.950 . S
H3262 C3267 0.950 . S
H3263 C3268 0.949 . S
H3264 C3270 0.950 . S
H3265 C3271 0.950 . S
H3266 C3272 0.949 . S
C3267 H3262 0.950 . S
C3267 C3269 1.327 . S
C3267 C3273 1.429 . S
C3268 C3260 1.574 . S
C3268 H3263 0.949 . S
C3268 C3274 1.368 . S
C3269 C3253 1.349 . S
C3269 H3261 0.950 . S
C3269 C3267 1.327 . S
C3270 C3258 1.349 . S
C3270 H3264 0.950 . S
C3270 C3271 1.327 . S
C3271 H3265 0.950 . S
C3271 C3270 1.327 . S
C3271 C3275 1.429 . S
C3272 C3255 1.574 . S
C3272 H3266 0.949 . S
C3272 C3276 1.368 . S
C3273 C3254 1.429 . S
C3273 C3267 1.429 . S
C3273 C3274 1.523 . S
C3274 C3255 1.368 . S
C3274 C3268 1.368 . S
C3274 C3273 1.523 . S
C3275 C3259 1.429 . S
C3275 C3271 1.429 . S
C3275 C3276 1.523 . S
C3276 C3260 1.368 . S
C3276 C3272 1.368 . S
C3276 C3275 1.523 . S
H3277 C3252 0.950 . S
H3278 C3254 0.950 . S
H3279 C3255 0.949 . S
H3280 C3257 0.950 . S
H3281 C3259 0.950 . S
C3282 C3283 1.349 . S
C3282 C3284 1.327 . S
C3282 H3307 0.950 . S
C3283 C3282 1.349 . S
C3283 C3299 1.349 . S
C3284 C3282 1.327 . S
C3284 C3303 1.429 . S
C3284 H3308 0.950 . S
C3285 C3302 1.574 . S
C3285 C3304 1.368 . S
C3285 H3309 0.949 . S
H3286 C3290 0.949 . S
C3287 C3288 1.349 . S
C3287 C3289 1.327 . S
C3287 H3310 0.950 . S
C3288 C3287 1.349 . S
C3288 C3300 1.349 . S
C3289 C3287 1.327 . S
C3289 C3305 1.429 . S
C3289 H3311 0.950 . S
C3290 H3286 0.949 . S
C3290 C3298 1.574 . S
C3290 C3306 1.368 . S
H3291 C3299 0.950 . S
H3292 C3297 0.950 . S
H3293 C3298 0.949 . S
H3294 C3300 0.950 . S
H3295 C3301 0.950 . S
H3296 C3302 0.949 . S
C3297 H3292 0.950 . S
C3297 C3299 1.327 . S
C3297 C3303 1.429 . S
C3298 C3290 1.574 . S
C3298 H3293 0.949 . S
C3298 C3304 1.368 . S
C3299 C3283 1.349 . S
C3299 H3291 0.950 . S
C3299 C3297 1.327 . S
C3300 C3288 1.349 . S
C3300 H3294 0.950 . S
C3300 C3301 1.327 . S
C3301 H3295 0.950 . S
C3301 C3300 1.327 . S
C3301 C3305 1.429 . S
C3302 C3285 1.574 . S
C3302 H3296 0.949 . S
C3302 C3306 1.368 . S
C3303 C3284 1.429 . S
C3303 C3297 1.429 . S
C3303 C3304 1.523 . S
C3304 C3285 1.368 . S
C3304 C3298 1.368 . S
C3304 C3303 1.523 . S
C3305 C3289 1.429 . S
C3305 C3301 1.429 . S
C3305 C3306 1.523 . S
C3306 C3290 1.368 . S
C3306 C3302 1.368 . S
C3306 C3305 1.523 . S
H3307 C3282 0.950 . S
H3308 C3284 0.950 . S
H3309 C3285 0.949 . S
H3310 C3287 0.950 . S
H3311 C3289 0.950 . S
C3312 C3313 1.349 . S
C3312 C3314 1.327 . S
C3312 H3337 0.950 . S
C3313 C3312 1.349 . S
C3313 C3329 1.349 . S
C3314 C3312 1.327 . S
C3314 C3333 1.429 . S
C3314 H3338 0.950 . S
C3315 C3332 1.574 . S
C3315 C3334 1.368 . S
C3315 H3339 0.949 . S
H3316 C3320 0.949 . S
C3317 C3318 1.349 . S
C3317 C3319 1.327 . S
C3317 H3340 0.950 . S
C3318 C3317 1.349 . S
C3318 C3330 1.349 . S
C3319 C3317 1.327 . S
C3319 C3335 1.429 . S
C3319 H3341 0.950 . S
C3320 H3316 0.949 . S
C3320 C3328 1.574 . S
C3320 C3336 1.368 . S
H3321 C3329 0.950 . S
H3322 C3327 0.950 . S
H3323 C3328 0.949 . S
H3324 C3330 0.950 . S
H3325 C3331 0.950 . S
H3326 C3332 0.949 . S
C3327 H3322 0.950 . S
C3327 C3329 1.327 . S
C3327 C3333 1.429 . S
C3328 C3320 1.574 . S
C3328 H3323 0.949 . S
C3328 C3334 1.368 . S
C3329 C3313 1.349 . S
C3329 H3321 0.950 . S
C3329 C3327 1.327 . S
C3330 C3318 1.349 . S
C3330 H3324 0.950 . S
C3330 C3331 1.327 . S
C3331 H3325 0.950 . S
C3331 C3330 1.327 . S
C3331 C3335 1.429 . S
C3332 C3315 1.574 . S
C3332 H3326 0.949 . S
C3332 C3336 1.368 . S
C3333 C3314 1.429 . S
C3333 C3327 1.429 . S
C3333 C3334 1.523 . S
C3334 C3315 1.368 . S
C3334 C3328 1.368 . S
C3334 C3333 1.523 . S
C3335 C3319 1.429 . S
C3335 C3331 1.429 . S
C3335 C3336 1.523 . S
C3336 C3320 1.368 . S
C3336 C3332 1.368 . S
C3336 C3335 1.523 . S
H3337 C3312 0.950 . S
H3338 C3314 0.950 . S
H3339 C3315 0.949 . S
H3340 C3317 0.950 . S
H3341 C3319 0.950 . S
C3342 C3343 1.349 . S
C3342 C3344 1.327 . S
C3342 H3367 0.950 . S
C3343 C3342 1.349 . S
C3343 C3359 1.349 . S
C3344 C3342 1.327 . S
C3344 C3363 1.429 . S
C3344 H3368 0.950 . S
C3345 C3362 1.574 . S
C3345 C3364 1.368 . S
C3345 H3369 0.949 . S
H3346 C3350 0.949 . S
C3347 C3348 1.349 . S
C3347 C3349 1.327 . S
C3347 H3370 0.950 . S
C3348 C3347 1.349 . S
C3348 C3360 1.349 . S
C3349 C3347 1.327 . S
C3349 C3365 1.429 . S
C3349 H3371 0.950 . S
C3350 H3346 0.949 . S
C3350 C3358 1.574 . S
C3350 C3366 1.368 . S
H3351 C3359 0.950 . S
H3352 C3357 0.950 . S
H3353 C3358 0.949 . S
H3354 C3360 0.950 . S
H3355 C3361 0.950 . S
H3356 C3362 0.949 . S
C3357 H3352 0.950 . S
C3357 C3359 1.327 . S
C3357 C3363 1.429 . S
C3358 C3350 1.574 . S
C3358 H3353 0.949 . S
C3358 C3364 1.368 . S
C3359 C3343 1.349 . S
C3359 H3351 0.950 . S
C3359 C3357 1.327 . S
C3360 C3348 1.349 . S
C3360 H3354 0.950 . S
C3360 C3361 1.327 . S
C3361 H3355 0.950 . S
C3361 C3360 1.327 . S
C3361 C3365 1.429 . S
C3362 C3345 1.574 . S
C3362 H3356 0.949 . S
C3362 C3366 1.368 . S
C3363 C3344 1.429 . S
C3363 C3357 1.429 . S
C3363 C3364 1.523 . S
C3364 C3345 1.368 . S
C3364 C3358 1.368 . S
C3364 C3363 1.523 . S
C3365 C3349 1.429 . S
C3365 C3361 1.429 . S
C3365 C3366 1.523 . S
C3366 C3350 1.368 . S
C3366 C3362 1.368 . S
C3366 C3365 1.523 . S
H3367 C3342 0.950 . S
H3368 C3344 0.950 . S
H3369 C3345 0.949 . S
H3370 C3347 0.950 . S
H3371 C3349 0.950 . S
C3372 C3373 1.349 . S
C3372 C3374 1.327 . S
C3372 H3397 0.950 . S
C3373 C3372 1.349 . S
C3373 C3389 1.349 . S
C3374 C3372 1.327 . S
C3374 C3393 1.429 . S
C3374 H3398 0.950 . S
C3375 C3392 1.574 . S
C3375 C3394 1.368 . S
C3375 H3399 0.949 . S
H3376 C3380 0.949 . S
C3377 C3378 1.349 . S
C3377 C3379 1.327 . S
C3377 H3400 0.950 . S
C3378 C3377 1.349 . S
C3378 C3390 1.349 . S
C3379 C3377 1.327 . S
C3379 C3395 1.429 . S
C3379 H3401 0.950 . S
C3380 H3376 0.949 . S
C3380 C3388 1.574 . S
C3380 C3396 1.368 . S
H3381 C3389 0.950 . S
H3382 C3387 0.950 . S
H3383 C3388 0.949 . S
H3384 C3390 0.950 . S
H3385 C3391 0.950 . S
H3386 C3392 0.949 . S
C3387 H3382 0.950 . S
C3387 C3389 1.327 . S
C3387 C3393 1.429 . S
C3388 C3380 1.574 . S
C3388 H3383 0.949 . S
C3388 C3394 1.368 . S
C3389 C3373 1.349 . S
C3389 H3381 0.950 . S
C3389 C3387 1.327 . S
C3390 C3378 1.349 . S
C3390 H3384 0.950 . S
C3390 C3391 1.327 . S
C3391 H3385 0.950 . S
C3391 C3390 1.327 . S
C3391 C3395 1.429 . S
C3392 C3375 1.574 . S
C3392 H3386 0.949 . S
C3392 C3396 1.368 . S
C3393 C3374 1.429 . S
C3393 C3387 1.429 . S
C3393 C3394 1.523 . S
C3394 C3375 1.368 . S
C3394 C3388 1.368 . S
C3394 C3393 1.523 . S
C3395 C3379 1.429 . S
C3395 C3391 1.429 . S
C3395 C3396 1.523 . S
C3396 C3380 1.368 . S
C3396 C3392 1.368 . S
C3396 C3395 1.523 . S
H3397 C3372 0.950 . S
H3398 C3374 0.950 . S
H3399 C3375 0.949 . S
H3400 C3377 0.950 . S
H3401 C3379 0.950 . S
C3402 C3403 1.349 1_556 S
C3402 C3404 1.327 . S
C3402 H3427 0.950 . S
C3403 C3402 1.349 1_554 S
C3403 C3419 1.349 . S
C3404 C3402 1.327 . S
C3404 C3423 1.429 1_556 S
C3404 H3428 0.950 . S
C3405 C3422 1.574 . S
C3405 C3424 1.368 . S
C3405 H3429 0.949 . S
H3406 C3410 0.949 . S
C3407 C3408 1.349 1_554 S
C3407 C3409 1.327 . S
C3407 H3430 0.950 . S
C3408 C3407 1.349 1_556 S
C3408 C3420 1.349 . S
C3409 C3407 1.327 . S
C3409 C3425 1.429 1_554 S
C3409 H3431 0.950 . S
C3410 H3406 0.949 . S
C3410 C3418 1.574 . S
C3410 C3426 1.359 1_556 S
H3411 C3419 0.950 . S
H3412 C3417 0.950 . S
H3413 C3418 0.949 . S
H3414 C3420 0.950 . S
H3415 C3421 0.950 . S
H3416 C3422 0.949 . S
C3417 H3412 0.950 . S
C3417 C3419 1.327 . S
C3417 C3423 1.429 . S
C3418 C3410 1.574 . S
C3418 H3413 0.949 . S
C3418 C3424 1.368 1_556 S
C3419 C3403 1.349 . S
C3419 H3411 0.950 . S
C3419 C3417 1.327 . S
C3420 C3408 1.349 . S
C3420 H3414 0.950 . S
C3420 C3421 1.327 . S
C3421 H3415 0.950 . S
C3421 C3420 1.327 . S
C3421 C3425 1.429 . S
C3422 C3405 1.574 . S
C3422 H3416 0.949 . S
C3422 C3426 1.379 . S
C3423 C3404 1.429 1_554 S
C3423 C3417 1.429 . S
C3423 C3424 1.523 . S
C3424 C3405 1.368 . S
C3424 C3418 1.368 1_554 S
C3424 C3423 1.523 . S
C3425 C3409 1.429 1_556 S
C3425 C3421 1.429 . S
C3425 C3426 1.522 1_556 S
C3426 C3410 1.359 1_554 S
C3426 C3422 1.379 . S
C3426 C3425 1.522 1_554 S
H3427 C3402 0.950 . S
H3428 C3404 0.950 . S
H3429 C3405 0.949 . S
H3430 C3407 0.950 . S
H3431 C3409 0.950 . S
C3432 C3433 1.349 . S
C3432 C3434 1.327 . S
C3432 H3457 0.950 . S
C3433 C3432 1.349 . S
C3433 C3449 1.349 . S
C3434 C3432 1.327 . S
C3434 C3453 1.429 . S
C3434 H3458 0.950 . S
C3435 C3452 1.574 . S
C3435 C3454 1.368 . S
C3435 H3459 0.949 . S
H3436 C3440 0.949 . S
C3437 C3438 1.349 . S
C3437 C3439 1.327 . S
C3437 H3460 0.950 . S
C3438 C3437 1.349 . S
C3438 C3450 1.349 . S
C3439 C3437 1.327 . S
C3439 C3455 1.429 . S
C3439 H3461 0.950 . S
C3440 H3436 0.949 . S
C3440 C3448 1.574 . S
C3440 C3456 1.368 . S
H3441 C3449 0.950 . S
H3442 C3447 0.950 . S
H3443 C3448 0.949 . S
H3444 C3450 0.950 . S
H3445 C3451 0.950 . S
H3446 C3452 0.949 . S
C3447 H3442 0.950 . S
C3447 C3449 1.327 . S
C3447 C3453 1.429 . S
C3448 C3440 1.574 . S
C3448 H3443 0.949 . S
C3448 C3454 1.368 . S
C3449 C3433 1.349 . S
C3449 H3441 0.950 . S
C3449 C3447 1.327 . S
C3450 C3438 1.349 . S
C3450 H3444 0.950 . S
C3450 C3451 1.327 . S
C3451 H3445 0.950 . S
C3451 C3450 1.327 . S
C3451 C3455 1.429 . S
C3452 C3435 1.574 . S
C3452 H3446 0.949 . S
C3452 C3456 1.368 . S
C3453 C3434 1.429 . S
C3453 C3447 1.429 . S
C3453 C3454 1.523 . S
C3454 C3435 1.368 . S
C3454 C3448 1.368 . S
C3454 C3453 1.523 . S
C3455 C3439 1.429 . S
C3455 C3451 1.429 . S
C3455 C3456 1.523 . S
C3456 C3440 1.368 . S
C3456 C3452 1.368 . S
C3456 C3455 1.523 . S
H3457 C3432 0.950 . S
H3458 C3434 0.950 . S
H3459 C3435 0.949 . S
H3460 C3437 0.950 . S
H3461 C3439 0.950 . S
C3462 C3463 1.349 . S
C3462 C3464 1.327 . S
C3462 H3487 0.950 . S
C3463 C3462 1.349 . S
C3463 C3479 1.349 1_554 S
C3464 C3462 1.327 . S
C3464 C3483 1.429 . S
C3464 H3488 0.950 . S
C3465 C3482 1.574 . S
C3465 C3484 1.368 1_556 S
C3465 H3489 0.949 . S
H3466 C3470 0.949 . S
C3467 C3468 1.349 1_556 S
C3467 C3469 1.327 . S
C3467 H3490 0.950 . S
C3468 C3467 1.349 1_554 S
C3468 C3480 1.349 . S
C3469 C3467 1.327 . S
C3469 C3485 1.429 1_556 S
C3469 H3491 0.950 . S
C3470 H3466 0.949 . S
C3470 C3478 1.574 . S
C3470 C3486 1.368 . S
H3471 C3479 0.950 . S
H3472 C3477 0.950 . S
H3473 C3478 0.949 . S
H3474 C3480 0.950 . S
H3475 C3481 0.950 . S
H3476 C3482 0.949 . S
C3477 H3472 0.950 . S
C3477 C3479 1.327 . S
C3477 C3483 1.429 1_556 S
C3478 C3470 1.574 . S
C3478 H3473 0.949 . S
C3478 C3484 1.368 . S
C3479 C3463 1.349 1_556 S
C3479 H3471 0.950 . S
C3479 C3477 1.327 . S
C3480 C3468 1.349 . S
C3480 H3474 0.950 . S
C3480 C3481 1.327 . S
C3481 H3475 0.950 . S
C3481 C3480 1.327 . S
C3481 C3485 1.429 . S
C3482 C3465 1.574 . S
C3482 H3476 0.949 . S
C3482 C3486 1.368 1_556 S
C3483 C3464 1.429 . S
C3483 C3477 1.429 1_554 S
C3483 C3484 1.523 . S
C3484 C3465 1.368 1_554 S
C3484 C3478 1.368 . S
C3484 C3483 1.523 . S
C3485 C3469 1.429 1_554 S
C3485 C3481 1.429 . S
C3485 C3486 1.523 . S
C3486 C3470 1.368 . S
C3486 C3482 1.368 1_554 S
C3486 C3485 1.523 . S
H3487 C3462 0.950 . S
H3488 C3464 0.950 . S
H3489 C3465 0.949 . S
H3490 C3467 0.950 . S
H3491 C3469 0.950 . S
C3492 C3493 1.349 . S
C3492 C3494 1.327 . S
C3492 H3517 0.950 . S
C3493 C3492 1.349 . S
C3493 C3509 1.349 . S
C3494 C3492 1.327 . S
C3494 C3513 1.429 . S
C3494 H3518 0.950 . S
C3495 C3512 1.574 . S
C3495 C3514 1.368 . S
C3495 H3519 0.949 . S
H3496 C3500 0.949 . S
C3497 C3498 1.349 . S
C3497 C3499 1.327 . S
C3497 H3520 0.950 . S
C3498 C3497 1.349 . S
C3498 C3510 1.349 . S
C3499 C3497 1.327 . S
C3499 C3515 1.429 . S
C3499 H3521 0.950 . S
C3500 H3496 0.949 . S
C3500 C3508 1.574 . S
C3500 C3516 1.368 . S
H3501 C3509 0.950 . S
H3502 C3507 0.950 . S
H3503 C3508 0.949 . S
H3504 C3510 0.950 . S
H3505 C3511 0.950 . S
H3506 C3512 0.949 . S
C3507 H3502 0.950 . S
C3507 C3509 1.327 . S
C3507 C3513 1.429 . S
C3508 C3500 1.574 . S
C3508 H3503 0.949 . S
C3508 C3514 1.368 . S
C3509 C3493 1.349 . S
C3509 H3501 0.950 . S
C3509 C3507 1.327 . S
C3510 C3498 1.349 . S
C3510 H3504 0.950 . S
C3510 C3511 1.327 . S
C3511 H3505 0.950 . S
C3511 C3510 1.327 . S
C3511 C3515 1.429 . S
C3512 C3495 1.574 . S
C3512 H3506 0.949 . S
C3512 C3516 1.368 . S
C3513 C3494 1.429 . S
C3513 C3507 1.429 . S
C3513 C3514 1.523 . S
C3514 C3495 1.368 . S
C3514 C3508 1.368 . S
C3514 C3513 1.523 . S
C3515 C3499 1.429 . S
C3515 C3511 1.429 . S
C3515 C3516 1.523 . S
C3516 C3500 1.368 . S
C3516 C3512 1.368 . S
C3516 C3515 1.523 . S
H3517 C3492 0.950 . S
H3518 C3494 0.950 . S
H3519 C3495 0.949 . S
H3520 C3497 0.950 . S
H3521 C3499 0.950 . S
C3522 C3523 1.349 . S
C3522 C3524 1.327 . S
C3522 H3547 0.950 . S
C3523 C3522 1.349 . S
C3523 C3539 1.349 . S
C3524 C3522 1.327 . S
C3524 C3543 1.429 . S
C3524 H3548 0.950 . S
C3525 C3542 1.574 . S
C3525 C3544 1.368 . S
C3525 H3549 0.949 . S
H3526 C3530 0.949 . S
C3527 C3528 1.349 . S
C3527 C3529 1.327 . S
C3527 H3550 0.950 . S
C3528 C3527 1.349 . S
C3528 C3540 1.349 . S
C3529 C3527 1.327 . S
C3529 C3545 1.429 . S
C3529 H3551 0.950 . S
C3530 H3526 0.949 . S
C3530 C3538 1.574 . S
C3530 C3546 1.368 . S
H3531 C3539 0.950 . S
H3532 C3537 0.950 . S
H3533 C3538 0.949 . S
H3534 C3540 0.950 . S
H3535 C3541 0.950 . S
H3536 C3542 0.949 . S
C3537 H3532 0.950 . S
C3537 C3539 1.327 . S
C3537 C3543 1.429 . S
C3538 C3530 1.574 . S
C3538 H3533 0.949 . S
C3538 C3544 1.368 . S
C3539 C3523 1.349 . S
C3539 H3531 0.950 . S
C3539 C3537 1.327 . S
C3540 C3528 1.349 . S
C3540 H3534 0.950 . S
C3540 C3541 1.327 . S
C3541 H3535 0.950 . S
C3541 C3540 1.327 . S
C3541 C3545 1.429 . S
C3542 C3525 1.574 . S
C3542 H3536 0.949 . S
C3542 C3546 1.368 . S
C3543 C3524 1.429 . S
C3543 C3537 1.429 . S
C3543 C3544 1.523 . S
C3544 C3525 1.368 . S
C3544 C3538 1.368 . S
C3544 C3543 1.523 . S
C3545 C3529 1.429 . S
C3545 C3541 1.429 . S
C3545 C3546 1.523 . S
C3546 C3530 1.368 . S
C3546 C3542 1.368 . S
C3546 C3545 1.523 . S
H3547 C3522 0.950 . S
H3548 C3524 0.950 . S
H3549 C3525 0.949 . S
H3550 C3527 0.950 . S
H3551 C3529 0.950 . S
C678 C351 1.218 . S
C673 C5 1.309 . S
C703 C23 1.142 . S
C708 C370 1.110 . S
C733 C39 1.242 . S
C738 C393 1.147 . S
C768 C413 1.294 . S
C763 C42 1.320 . S
C793 C19 1.343 . S
C798 C434 1.310 . S
C828 C456 1.246 . S
C823 C28 1.347 . S
C858 C478 1.067 . S
C853 C53 1.095 . S
C883 C9 1.270 . S
C888 C496 1.228 . S
C913 C65 1.310 . S
C918 C352 1.270 . S
C943 C75 1.343 . S
C948 C371 1.313 . S
C978 C394 1.159 . S
C973 C93 1.191 . S
C1008 C417 1.199 . S
C1003 C109 1.294 . S
C1033 C56 1.376 . S
C1038 C438 1.266 . S
C1068 C457 1.000 . S
C1063 C81 1.024 . S
C1098 C479 1.324 . S
C1093 C84 1.353 . S
C1128 C497 1.223 . S
C1123 C103 1.251 . S
C1158 C353 1.212 . S
C1153 C107 1.239 . S
C1188 C520 1.090 . S
C1183 C121 1.120 . S
C1213 C131 1.363 . S
C1218 C542 1.330 . S
C1248 C561 1.268 . S
C1243 C140 1.373 . S
C1273 C61 1.323 . S
C1278 C501 1.207 . S
C1308 C395 1.285 . S
C1303 C70 1.308 . S
C1333 C137 1.078 . S
C1338 C583 1.050 . S
C1368 C606 1.120 . S
C1363 C165 1.215 . S
C1393 C173 1.241 . S
C1398 C354 1.142 . S
C1428 C605 1.159 . S
C1423 C182 1.186 . S
C1453 C207 1.302 . S
C1458 C396 1.200 . S
C1483 C219 1.148 . S
C1488 C580 1.117 . S
C1518 C436 1.142 . S
C1513 C187 1.178 . S
C1548 C543 1.205 . S
C1543 C205 1.313 . S
C1578 C476 1.182 . S
C1573 C221 1.209 . S
C1608 C626 1.277 . S
C1603 C168 1.307 . S
C1638 C350 1.315 . S
C1633 C224 1.344 1_545 S
C1663 C243 1.148 . S
C1668 C604 1.115 . S
C1698 C392 1.191 1_545 S
C1693 C252 1.228 . S
C1723 C277 1.199 . S
C1728 C585 1.115 . S
C1753 C233 1.356 . S
C1758 C435 1.237 . S
C1783 C249 1.176 . S
C1788 C539 1.149 . S
C1818 C475 1.153 . S
C1813 C261 1.186 . S
C1843 C271 1.184 . S
C1848 C625 1.151 . S
C1873 C266 1.163 . S
C1878 C349 1.134 . S
C1903 C280 1.243 . S
C1908 C518 1.213 . S
C1933 C299 1.189 . S
C1938 C454 1.154 . S
C1963 C317 1.286 . S
C1968 C564 1.188 . S
C1998 C624 1.150 . S
C1993 C229 1.253 . S
C2028 C391 1.114 . S
C2023 C247 1.146 . S
C2058 C416 1.168 . S
C2053 C305 1.193 . S
C2088 C372 1.184 . S
C2083 C333 1.287 . S
C2113 C33 1.309 . S
C2118 C648 1.196 . S
C2148 C601 1.110 . S
C2143 C51 1.142 . S
C2178 C666 1.147 . S
C2173 C11 1.242 . S
C2203 C14 1.320 . S
C2208 C584 1.294 . S
C2233 C47 1.343 . S
C2238 C521 1.310 . S
C2268 C540 1.246 . S
C2263 C0 1.347 . S
C2298 C562 1.067 . S
C2293 C25 1.095 . S
C2328 C622 1.228 . S
C2323 C37 1.270 . S
C2358 C643 1.270 . S
C2353 C163 1.310 . S
C2383 C117 1.343 . S
C2388 C602 1.313 . S
C2413 C135 1.191 . S
C2418 C667 1.159 . S
C2448 C582 1.199 . S
C2443 C151 1.294 . S
C2478 C519 1.266 . S
C2473 C154 1.376 . S
C2503 C123 1.024 . S
C2508 C541 1.000 . S
C2538 C563 1.324 . S
C2533 C126 1.353 . S
C2563 C145 1.251 . S
C2568 C623 1.223 . S
C2598 C644 1.213 . S
C2593 C149 1.239 . S
C2628 C433 1.090 . S
C2623 C79 1.120 . S
C2658 C458 1.330 . S
C2653 C89 1.363 . S
C2683 C98 1.373 . S
C2688 C477 1.268 . S
C2718 C627 1.207 . S
C2713 C159 1.323 . S
C2743 C112 1.308 . S
C2748 C668 1.285 . S
C2778 C412 1.050 . S
C2773 C95 1.078 . S
C2808 C375 1.120 . S
C2803 C67 1.215 . S
C2833 C201 1.241 . S
C2838 C645 1.142 . S
C2868 C374 1.159 . S
C2863 C210 1.186 . S
C2898 C669 1.200 . S
C2893 C179 1.302 . S
C2923 C191 1.148 . S
C2928 C415 1.117 . S
C2953 C215 1.178 . S
C2958 C517 1.142 . S
C2983 C177 1.313 . S
C2988 C459 1.205 . S
C3013 C193 1.209 . S
C3018 C560 1.182 . S
C3043 C196 1.307 . S
C3048 C500 1.277 . S
C3078 C647 1.315 . S
C3073 C322 1.345 . S
C3103 C285 1.148 . S
C3108 C373 1.115 . S
C3138 C665 1.200 . S
C3133 C294 1.228 . S
C3163 C319 1.199 . S
C3168 C414 1.115 . S
C3193 C331 1.353 . S
C3198 C522 1.237 . S
C3228 C455 1.149 . S
C3223 C291 1.176 . S
C3253 C303 1.186 . S
C3258 C559 1.153 . S
C3288 C499 1.151 . S
C3283 C313 1.184 . S
C3318 C646 1.134 . S
C3313 C308 1.163 . S
C3348 C437 1.213 . S
C3343 C238 1.243 . S
C3373 C257 1.189 . S
C3378 C538 1.154 . S
C3408 C480 1.188 . S
C3403 C275 1.286 . S
C3438 C498 1.150 . S
C3433 C327 1.253 . S
C3463 C289 1.145 1_554 S
C3468 C664 1.114 . S
C3498 C581 1.168 . S
C3493 C263 1.193 . S
C3528 C603 1.184 . S
C3523 C235 1.287 . S
