# Generated by pormake.
# Topology gar, (4,6)-cn, num edge types: 1
# Building blocks:
#     Node 0, Type 0, BuildingBlock: CEKHIL_clean_sbu_0, # of connection points: 4
#     Node 1, Type 0, BuildingBlock: CEKHIL_clean_sbu_0, # of connection points: 4
#     Node 2, Type 0, BuildingBlock: CEKHIL_clean_sbu_0, # of connection points: 4
#     Node 3, Type 0, BuildingBlock: CEKHIL_clean_sbu_0, # of connection points: 4
#     Node 4, Type 0, BuildingBlock: CEKHIL_clean_sbu_0, # of connection points: 4
#     Node 5, Type 0, BuildingBlock: CEKHIL_clean_sbu_0, # of connection points: 4
#     Node 6, Type 0, BuildingBlock: CEKHIL_clean_sbu_0, # of connection points: 4
#     Node 7, Type 0, BuildingBlock: CEKHIL_clean_sbu_0, # of connection points: 4
#     Node 8, Type 0, BuildingBlock: CEKHIL_clean_sbu_0, # of connection points: 4
#     Node 9, Type 0, BuildingBlock: CEKHIL_clean_sbu_0, # of connection points: 4
#     Node 10, Type 0, BuildingBlock: CEKHIL_clean_sbu_0, # of connection points: 4
#     Node 11, Type 0, BuildingBlock: CEKHIL_clean_sbu_0, # of connection points: 4
#     Node 12, Type 0, BuildingBlock: CEKHIL_clean_sbu_0, # of connection points: 4
#     Node 13, Type 0, BuildingBlock: CEKHIL_clean_sbu_0, # of connection points: 4
#     Node 14, Type 0, BuildingBlock: CEKHIL_clean_sbu_0, # of connection points: 4
#     Node 15, Type 0, BuildingBlock: CEKHIL_clean_sbu_0, # of connection points: 4
#     Node 16, Type 0, BuildingBlock: CEKHIL_clean_sbu_0, # of connection points: 4
#     Node 17, Type 0, BuildingBlock: CEKHIL_clean_sbu_0, # of connection points: 4
#     Node 18, Type 0, BuildingBlock: CEKHIL_clean_sbu_0, # of connection points: 4
#     Node 19, Type 0, BuildingBlock: CEKHIL_clean_sbu_0, # of connection points: 4
#     Node 20, Type 0, BuildingBlock: CEKHIL_clean_sbu_0, # of connection points: 4
#     Node 21, Type 0, BuildingBlock: CEKHIL_clean_sbu_0, # of connection points: 4
#     Node 22, Type 0, BuildingBlock: CEKHIL_clean_sbu_0, # of connection points: 4
#     Node 23, Type 0, BuildingBlock: CEKHIL_clean_sbu_0, # of connection points: 4
#     Node 24, Type 1, BuildingBlock: KUMJIN_clean_sbu_1, # of connection points: 6
#     Node 25, Type 1, BuildingBlock: KUMJIN_clean_sbu_1, # of connection points: 6
#     Node 26, Type 1, BuildingBlock: KUMJIN_clean_sbu_1, # of connection points: 6
#     Node 27, Type 1, BuildingBlock: KUMJIN_clean_sbu_1, # of connection points: 6
#     Node 28, Type 1, BuildingBlock: KUMJIN_clean_sbu_1, # of connection points: 6
#     Node 29, Type 1, BuildingBlock: KUMJIN_clean_sbu_1, # of connection points: 6
#     Node 30, Type 1, BuildingBlock: KUMJIN_clean_sbu_1, # of connection points: 6
#     Node 31, Type 1, BuildingBlock: KUMJIN_clean_sbu_1, # of connection points: 6
#     Node 32, Type 1, BuildingBlock: KUMJIN_clean_sbu_1, # of connection points: 6
#     Node 33, Type 1, BuildingBlock: KUMJIN_clean_sbu_1, # of connection points: 6
#     Node 34, Type 1, BuildingBlock: KUMJIN_clean_sbu_1, # of connection points: 6
#     Node 35, Type 1, BuildingBlock: KUMJIN_clean_sbu_1, # of connection points: 6
#     Node 36, Type 1, BuildingBlock: KUMJIN_clean_sbu_1, # of connection points: 6
#     Node 37, Type 1, BuildingBlock: KUMJIN_clean_sbu_1, # of connection points: 6
#     Node 38, Type 1, BuildingBlock: KUMJIN_clean_sbu_1, # of connection points: 6
#     Node 39, Type 1, BuildingBlock: KUMJIN_clean_sbu_1, # of connection points: 6
#     Edge 40, Type (0, 1), BuildingBlock: UVAHIK_clean_linker_0, # of connection points: 2
#     Edge 41, Type (0, 1), BuildingBlock: UVAHIK_clean_linker_0, # of connection points: 2
#     Edge 42, Type (0, 1), BuildingBlock: UVAHIK_clean_linker_0, # of connection points: 2
#     Edge 43, Type (0, 1), BuildingBlock: UVAHIK_clean_linker_0, # of connection points: 2
#     Edge 44, Type (0, 1), BuildingBlock: UVAHIK_clean_linker_0, # of connection points: 2
#     Edge 45, Type (0, 1), BuildingBlock: UVAHIK_clean_linker_0, # of connection points: 2
#     Edge 46, Type (0, 1), BuildingBlock: UVAHIK_clean_linker_0, # of connection points: 2
#     Edge 47, Type (0, 1), BuildingBlock: UVAHIK_clean_linker_0, # of connection points: 2
#     Edge 48, Type (0, 1), BuildingBlock: UVAHIK_clean_linker_0, # of connection points: 2
#     Edge 49, Type (0, 1), BuildingBlock: UVAHIK_clean_linker_0, # of connection points: 2
#     Edge 50, Type (0, 1), BuildingBlock: UVAHIK_clean_linker_0, # of connection points: 2
#     Edge 51, Type (0, 1), BuildingBlock: UVAHIK_clean_linker_0, # of connection points: 2
#     Edge 52, Type (0, 1), BuildingBlock: UVAHIK_clean_linker_0, # of connection points: 2
#     Edge 53, Type (0, 1), BuildingBlock: UVAHIK_clean_linker_0, # of connection points: 2
#     Edge 54, Type (0, 1), BuildingBlock: UVAHIK_clean_linker_0, # of connection points: 2
#     Edge 55, Type (0, 1), BuildingBlock: UVAHIK_clean_linker_0, # of connection points: 2
#     Edge 56, Type (0, 1), BuildingBlock: UVAHIK_clean_linker_0, # of connection points: 2
#     Edge 57, Type (0, 1), BuildingBlock: UVAHIK_clean_linker_0, # of connection points: 2
#     Edge 58, Type (0, 1), BuildingBlock: UVAHIK_clean_linker_0, # of connection points: 2
#     Edge 59, Type (0, 1), BuildingBlock: UVAHIK_clean_linker_0, # of connection points: 2
#     Edge 60, Type (0, 1), BuildingBlock: UVAHIK_clean_linker_0, # of connection points: 2
#     Edge 61, Type (0, 1), BuildingBlock: UVAHIK_clean_linker_0, # of connection points: 2
#     Edge 62, Type (0, 1), BuildingBlock: UVAHIK_clean_linker_0, # of connection points: 2
#     Edge 63, Type (0, 1), BuildingBlock: UVAHIK_clean_linker_0, # of connection points: 2
#     Edge 64, Type (0, 1), BuildingBlock: UVAHIK_clean_linker_0, # of connection points: 2
#     Edge 65, Type (0, 1), BuildingBlock: UVAHIK_clean_linker_0, # of connection points: 2
#     Edge 66, Type (0, 1), BuildingBlock: UVAHIK_clean_linker_0, # of connection points: 2
#     Edge 67, Type (0, 1), BuildingBlock: UVAHIK_clean_linker_0, # of connection points: 2
#     Edge 68, Type (0, 1), BuildingBlock: UVAHIK_clean_linker_0, # of connection points: 2
#     Edge 69, Type (0, 1), BuildingBlock: UVAHIK_clean_linker_0, # of connection points: 2
#     Edge 70, Type (0, 1), BuildingBlock: UVAHIK_clean_linker_0, # of connection points: 2
#     Edge 71, Type (0, 1), BuildingBlock: UVAHIK_clean_linker_0, # of connection points: 2
#     Edge 72, Type (0, 1), BuildingBlock: UVAHIK_clean_linker_0, # of connection points: 2
#     Edge 73, Type (0, 1), BuildingBlock: UVAHIK_clean_linker_0, # of connection points: 2
#     Edge 74, Type (0, 1), BuildingBlock: UVAHIK_clean_linker_0, # of connection points: 2
#     Edge 75, Type (0, 1), BuildingBlock: UVAHIK_clean_linker_0, # of connection points: 2
#     Edge 76, Type (0, 1), BuildingBlock: UVAHIK_clean_linker_0, # of connection points: 2
#     Edge 77, Type (0, 1), BuildingBlock: UVAHIK_clean_linker_0, # of connection points: 2
#     Edge 78, Type (0, 1), BuildingBlock: UVAHIK_clean_linker_0, # of connection points: 2
#     Edge 79, Type (0, 1), BuildingBlock: UVAHIK_clean_linker_0, # of connection points: 2
#     Edge 80, Type (0, 1), BuildingBlock: UVAHIK_clean_linker_0, # of connection points: 2
#     Edge 81, Type (0, 1), BuildingBlock: UVAHIK_clean_linker_0, # of connection points: 2
#     Edge 82, Type (0, 1), BuildingBlock: UVAHIK_clean_linker_0, # of connection points: 2
#     Edge 83, Type (0, 1), BuildingBlock: UVAHIK_clean_linker_0, # of connection points: 2
#     Edge 84, Type (0, 1), BuildingBlock: UVAHIK_clean_linker_0, # of connection points: 2
#     Edge 85, Type (0, 1), BuildingBlock: UVAHIK_clean_linker_0, # of connection points: 2
#     Edge 86, Type (0, 1), BuildingBlock: UVAHIK_clean_linker_0, # of connection points: 2
#     Edge 87, Type (0, 1), BuildingBlock: UVAHIK_clean_linker_0, # of connection points: 2
#     Edge 88, Type (0, 1), BuildingBlock: UVAHIK_clean_linker_0, # of connection points: 2
#     Edge 89, Type (0, 1), BuildingBlock: UVAHIK_clean_linker_0, # of connection points: 2
#     Edge 90, Type (0, 1), BuildingBlock: UVAHIK_clean_linker_0, # of connection points: 2
#     Edge 91, Type (0, 1), BuildingBlock: UVAHIK_clean_linker_0, # of connection points: 2
#     Edge 92, Type (0, 1), BuildingBlock: UVAHIK_clean_linker_0, # of connection points: 2
#     Edge 93, Type (0, 1), BuildingBlock: UVAHIK_clean_linker_0, # of connection points: 2
#     Edge 94, Type (0, 1), BuildingBlock: UVAHIK_clean_linker_0, # of connection points: 2
#     Edge 95, Type (0, 1), BuildingBlock: UVAHIK_clean_linker_0, # of connection points: 2
#     Edge 96, Type (0, 1), BuildingBlock: UVAHIK_clean_linker_0, # of connection points: 2
#     Edge 97, Type (0, 1), BuildingBlock: UVAHIK_clean_linker_0, # of connection points: 2
#     Edge 98, Type (0, 1), BuildingBlock: UVAHIK_clean_linker_0, # of connection points: 2
#     Edge 99, Type (0, 1), BuildingBlock: UVAHIK_clean_linker_0, # of connection points: 2
#     Edge 100, Type (0, 1), BuildingBlock: UVAHIK_clean_linker_0, # of connection points: 2
#     Edge 101, Type (0, 1), BuildingBlock: UVAHIK_clean_linker_0, # of connection points: 2
#     Edge 102, Type (0, 1), BuildingBlock: UVAHIK_clean_linker_0, # of connection points: 2
#     Edge 103, Type (0, 1), BuildingBlock: UVAHIK_clean_linker_0, # of connection points: 2
#     Edge 104, Type (0, 1), BuildingBlock: UVAHIK_clean_linker_0, # of connection points: 2
#     Edge 105, Type (0, 1), BuildingBlock: UVAHIK_clean_linker_0, # of connection points: 2
#     Edge 106, Type (0, 1), BuildingBlock: UVAHIK_clean_linker_0, # of connection points: 2
#     Edge 107, Type (0, 1), BuildingBlock: UVAHIK_clean_linker_0, # of connection points: 2
#     Edge 108, Type (0, 1), BuildingBlock: UVAHIK_clean_linker_0, # of connection points: 2
#     Edge 109, Type (0, 1), BuildingBlock: UVAHIK_clean_linker_0, # of connection points: 2
#     Edge 110, Type (0, 1), BuildingBlock: UVAHIK_clean_linker_0, # of connection points: 2
#     Edge 111, Type (0, 1), BuildingBlock: UVAHIK_clean_linker_0, # of connection points: 2
#     Edge 112, Type (0, 1), BuildingBlock: UVAHIK_clean_linker_0, # of connection points: 2
#     Edge 113, Type (0, 1), BuildingBlock: UVAHIK_clean_linker_0, # of connection points: 2
#     Edge 114, Type (0, 1), BuildingBlock: UVAHIK_clean_linker_0, # of connection points: 2
#     Edge 115, Type (0, 1), BuildingBlock: UVAHIK_clean_linker_0, # of connection points: 2
#     Edge 116, Type (0, 1), BuildingBlock: UVAHIK_clean_linker_0, # of connection points: 2
#     Edge 117, Type (0, 1), BuildingBlock: UVAHIK_clean_linker_0, # of connection points: 2
#     Edge 118, Type (0, 1), BuildingBlock: UVAHIK_clean_linker_0, # of connection points: 2
#     Edge 119, Type (0, 1), BuildingBlock: UVAHIK_clean_linker_0, # of connection points: 2
#     Edge 120, Type (0, 1), BuildingBlock: UVAHIK_clean_linker_0, # of connection points: 2
#     Edge 121, Type (0, 1), BuildingBlock: UVAHIK_clean_linker_0, # of connection points: 2
#     Edge 122, Type (0, 1), BuildingBlock: UVAHIK_clean_linker_0, # of connection points: 2
#     Edge 123, Type (0, 1), BuildingBlock: UVAHIK_clean_linker_0, # of connection points: 2
#     Edge 124, Type (0, 1), BuildingBlock: UVAHIK_clean_linker_0, # of connection points: 2
#     Edge 125, Type (0, 1), BuildingBlock: UVAHIK_clean_linker_0, # of connection points: 2
#     Edge 126, Type (0, 1), BuildingBlock: UVAHIK_clean_linker_0, # of connection points: 2
#     Edge 127, Type (0, 1), BuildingBlock: UVAHIK_clean_linker_0, # of connection points: 2
#     Edge 128, Type (0, 1), BuildingBlock: UVAHIK_clean_linker_0, # of connection points: 2
#     Edge 129, Type (0, 1), BuildingBlock: UVAHIK_clean_linker_0, # of connection points: 2
#     Edge 130, Type (0, 1), BuildingBlock: UVAHIK_clean_linker_0, # of connection points: 2
#     Edge 131, Type (0, 1), BuildingBlock: UVAHIK_clean_linker_0, # of connection points: 2
#     Edge 132, Type (0, 1), BuildingBlock: UVAHIK_clean_linker_0, # of connection points: 2
#     Edge 133, Type (0, 1), BuildingBlock: UVAHIK_clean_linker_0, # of connection points: 2
#     Edge 134, Type (0, 1), BuildingBlock: UVAHIK_clean_linker_0, # of connection points: 2
#     Edge 135, Type (0, 1), BuildingBlock: UVAHIK_clean_linker_0, # of connection points: 2
# Relax obj value: 0.055
# Max RMSD: 0.172
# Mean RMSD: 0.104
data_MOF--net-gar--node1-CEKHIL_clean_sbu_0--node2-KUMJIN_clean_sbu_1--edge1-UVAHIK_clean_linker_0
_symmetry_space_group_name_H-M    P1
_symmetry_Int_Tables_number       1
_symmetry_cell_setting            triclinic
loop_
_symmetry_equiv_pos_as_xyz
'x, y, z'
_cell_length_a     76.512622
_cell_length_b     75.952418
_cell_length_c     70.753073
_cell_angle_alpha  95.602682
_cell_angle_beta   95.669775
_cell_angle_gamma 100.41833
loop_
_atom_site_label
_atom_site_type_symbol
_atom_site_fract_x
_atom_site_fract_y
_atom_site_fract_z
_atom_type_partial_charge
Co0 Co 0.04775 0.3062 0.36132 0.0
O1 O 0.07393 0.30908 0.3658 0.0
O2 O 0.05835 0.29773 0.3384 0.0
C3 C 0.0466 0.33433 0.37631 0.0
O4 O 0.02034 0.30183 0.35079 0.0
Co5 Co 0.0248 0.30793 0.39534 0.0
O6 O 1.00424 0.30591 0.37542 0.0
C7 C 0.04236 0.27687 0.38765 0.0
C8 C 0.0741 0.30224 0.34832 0.0
C9 C 1.00519 0.30262 0.35758 0.0
O10 O 0.0451 0.28126 0.3708 0.0
O11 O 0.03641 0.28694 0.40007 0.0
O12 O 0.05007 0.33243 0.35864 0.0
O13 O 0.04512 0.31972 0.38423 0.0
Co14 Co 0.01512 0.75526 0.68468 0.0
O15 O 0.98922 0.75433 0.67904 0.0
O16 O 1.00136 0.74908 0.70651 0.0
C17 C 0.02225 0.78237 0.67251 0.0
O18 O 0.04189 0.75604 0.69629 0.0
Co19 Co 0.0404 0.75725 0.65287 0.0
O20 O 0.0604 0.76196 0.67378 0.0
C21 C 0.01701 0.72235 0.65659 0.0
C22 C 0.98685 0.75107 0.6963 0.0
C23 C 0.05791 0.75946 0.69091 0.0
O24 O 0.01258 0.72874 0.67283 0.0
O25 O 0.02634 0.73213 0.64605 0.0
O26 O 0.01858 0.78188 0.69 0.0
O27 O 0.02112 0.76678 0.66304 0.0
Co28 Co 0.54849 0.80618 0.86158 0.0
O29 O 0.57469 0.80865 0.86629 0.0
O30 O 0.55928 0.79796 0.83866 0.0
C31 C 0.54767 0.83424 0.87714 0.0
O32 O 0.52117 0.80235 0.85062 0.0
Co33 Co 0.52465 0.80804 0.89486 0.0
O34 O 0.50478 0.8077 0.87466 0.0
C35 C 0.53859 0.7747 0.8851 0.0
C36 C 0.57498 0.80217 0.8487 0.0
C37 C 0.506 0.804 0.85696 0.0
O38 O 0.54505 0.78084 0.87024 0.0
O39 O 0.53126 0.78399 0.89696 0.0
O40 O 0.55133 0.83255 0.85953 0.0
O41 O 0.54575 0.81944 0.88476 0.0
Co42 Co 0.51503 0.25541 0.18484 0.0
O43 O 0.48914 0.25419 0.1789 0.0
O44 O 0.50116 0.249 0.20648 0.0
C45 C 0.52174 0.28265 0.17293 0.0
O46 O 0.54177 0.25644 0.19675 0.0
Co47 Co 0.54103 0.25865 0.15377 0.0
O48 O 0.56055 0.26473 0.17515 0.0
C49 C 0.51763 0.22322 0.15637 0.0
C50 C 0.48671 0.25095 0.19615 0.0
C51 C 0.55788 0.26118 0.19194 0.0
O52 O 0.51285 0.22905 0.17266 0.0
O53 O 0.52722 0.2335 0.14647 0.0
O54 O 0.51804 0.28195 0.1904 0.0
O55 O 0.52106 0.2672 0.1634 0.0
Co56 Co 0.05282 0.79254 0.11479 0.0
O57 O 0.02682 0.79012 0.1114 0.0
O58 O 0.04251 0.78531 0.1375 0.0
C59 C 0.05759 0.82073 0.1029 0.0
O60 O 0.07922 0.79422 0.1262 0.0
Co61 Co 0.07627 0.79371 0.08464 0.0
O62 O 0.0976 0.79572 0.1037 0.0
C63 C 0.05659 0.75779 0.0895 0.0
C64 C 0.02697 0.78607 0.12883 0.0
C65 C 0.09506 0.79505 0.1211 0.0
O66 O 0.05068 0.76561 0.10404 0.0
O67 O 0.06638 0.76705 0.07895 0.0
O68 O 0.05535 0.8189 0.12058 0.0
O69 O 0.05681 0.80548 0.09235 0.0
Co70 Co 0.51131 0.76935 0.43241 0.0
O71 O 0.53742 0.77293 0.43638 0.0
O72 O 0.5208 0.76108 0.40941 0.0
C73 C 0.5095 0.79821 0.44552 0.0
O74 O 0.48478 0.76483 0.4206 0.0
Co75 Co 0.48741 0.76899 0.46295 0.0
O76 O 0.46714 0.76921 0.44324 0.0
C77 C 0.50293 0.73661 0.45598 0.0
C78 C 0.53672 0.76644 0.41856 0.0
C79 C 0.46932 0.76631 0.42571 0.0
O80 O 0.50947 0.74389 0.44169 0.0
O81 O 0.49414 0.74502 0.46707 0.0
O82 O 0.51287 0.79463 0.42811 0.0
O83 O 0.50843 0.78449 0.45537 0.0
Co84 Co 0.55197 0.29156 0.61567 0.0
O85 O 0.52594 0.28899 0.61226 0.0
O86 O 0.54166 0.28406 0.63828 0.0
C87 C 0.5566 0.31983 0.60409 0.0
O88 O 0.57839 0.29333 0.62703 0.0
Co89 Co 0.57567 0.29335 0.58546 0.0
O90 O 0.59696 0.29617 0.60477 0.0
C91 C 0.55574 0.25732 0.58974 0.0
C92 C 0.52611 0.28487 0.62966 0.0
C93 C 0.59434 0.2949 0.62208 0.0
O94 O 0.55011 0.26483 0.60464 0.0
O95 O 0.56531 0.2668 0.57916 0.0
O96 O 0.5542 0.3178 0.6217 0.0
O97 O 0.55605 0.3047 0.59343 0.0
Co98 Co 0.01081 0.26927 0.93107 0.0
O99 O 0.03683 0.27298 0.93573 0.0
O100 O 0.02083 0.26084 0.90846 0.0
C101 C 0.00878 0.29807 0.94383 0.0
O102 O 0.98441 0.26466 0.9188 0.0
Co103 Co 0.98643 0.26905 0.96127 0.0
O104 O 0.96642 0.26897 0.94115 0.0
C105 C 1.00247 0.23692 0.95504 0.0
C106 C 0.03657 0.26632 0.91805 0.0
C107 C 0.96885 0.26607 0.92369 0.0
O108 O 0.00885 0.24393 0.94054 0.0
O109 O 0.99369 0.24546 0.96602 0.0
O110 O 0.01244 0.29448 0.92653 0.0
O111 O 0.00754 0.2844 0.95375 0.0
Co112 Co 0.38696 0.02052 0.30089 0.0
O113 O 0.39039 0.04618 0.304 0.0
O114 O 0.36631 0.02721 0.28872 0.0
C115 C 0.39573 0.01736 0.33078 0.0
O116 O 0.37831 0.99378 0.29567 0.0
Co117 Co 0.41879 1.00051 0.30731 0.0
O118 O 0.39987 0.97855 0.30421 0.0
C119 C 0.41271 0.01661 0.27159 0.0
C120 C 0.37437 0.04364 0.29485 0.0
C121 C 0.38376 0.97913 0.29828 0.0
O122 O 0.39826 0.02094 0.27661 0.0
O123 O 0.42324 0.00933 0.28216 0.0
O124 O 0.37961 0.01993 0.32628 0.0
O125 O 0.4065 0.01876 0.3178 0.0
Co126 Co 0.27141 0.16377 0.50579 0.0
O127 O 0.29728 0.16781 0.50823 0.0
O128 O 0.27966 0.14317 0.5146 0.0
C129 C 0.26857 0.17358 0.47645 0.0
O130 O 0.24472 0.15351 0.50437 0.0
Co131 Co 0.24929 0.19338 0.50177 0.0
O132 O 0.22796 0.17359 0.49657 0.0
C133 C 0.26856 0.1907 0.53945 0.0
C134 C 0.29575 0.15166 0.51328 0.0
C135 C 0.22943 0.15777 0.50009 0.0
O136 O 0.27198 0.17534 0.53304 0.0
O137 O 0.26118 0.20063 0.52876 0.0
O138 O 0.2706 0.15717 0.4782 0.0
O139 O 0.26898 0.18369 0.49234 0.0
Co140 Co 0.13973 0.03671 0.79032 0.0
O141 O 0.13513 0.01068 0.78783 0.0
O142 O 0.1604 0.02801 0.78276 0.0
C143 C 0.12889 0.0399 0.81898 0.0
O144 O 0.15042 0.06351 0.79209 0.0
Co145 Co 0.11026 0.0591 0.79199 0.0
O146 O 0.12967 0.08072 0.79519 0.0
C147 C 0.11441 0.0392 0.75527 0.0
C148 C 0.15142 0.01192 0.78362 0.0
C149 C 0.14577 0.07895 0.79412 0.0
O150 O 0.12954 0.03617 0.76259 0.0
O151 O 0.10395 0.04651 0.76521 0.0
O152 O 0.14516 0.03748 0.81799 0.0
O153 O 0.1194 0.0395 0.80271 0.0
Co154 Co 0.28679 0.92098 0.99136 0.0
O155 O 0.26134 0.91785 0.98878 0.0
O156 O 0.28061 0.94243 0.00259 0.0
C157 C 0.2884 0.90999 0.9614 0.0
O158 O 0.31333 0.92955 0.99609 0.0
Co159 Co 0.30677 0.88906 0.98564 0.0
O160 O 0.32752 0.90846 0.9838 0.0
C161 C 0.28948 0.89538 0.02075 0.0
C162 C 0.26417 0.93426 0.99724 0.0
C163 C 0.32732 0.92445 0.99095 0.0
O164 O 0.2868 0.91073 0.01633 0.0
O165 O 0.29587 0.88432 0.00976 0.0
O166 O 0.28682 0.92668 0.96512 0.0
O167 O 0.28778 0.9004 0.97548 0.0
Co168 Co 0.28883 0.38797 0.03185 0.0
O169 O 0.26305 0.383 0.0304 0.0
O170 O 0.28044 0.40912 0.04198 0.0
C171 C 0.28986 0.3755 0.00159 0.0
O172 O 0.3156 0.39899 0.03469 0.0
Co173 Co 0.3111 0.35791 0.02733 0.0
O174 O 0.33158 0.37784 0.02688 0.0
C175 C 0.29533 0.36449 0.06338 0.0
C176 C 0.26435 0.39967 0.03755 0.0
C177 C 0.33048 0.39418 0.03155 0.0
O178 O 0.29073 0.37895 0.05803 0.0
O179 O 0.30223 0.35382 0.05251 0.0
O180 O 0.28709 0.39185 0.0048 0.0
O181 O 0.29075 0.36692 0.01642 0.0
Co182 Co 0.7762 0.12656 0.03993 0.0
O183 O 0.80154 0.13113 0.04507 0.0
O184 O 0.78348 0.10663 0.05153 0.0
C185 C 0.77555 0.1343 0.01029 0.0
O186 O 0.74945 0.11751 0.03619 0.0
Co187 Co 0.7575 0.1588 0.03178 0.0
O188 O 0.73552 0.13998 0.02825 0.0
C189 C 0.77311 0.15566 0.0707 0.0
C190 C 0.79968 0.11574 0.05183 0.0
C191 C 0.7353 0.12377 0.03165 0.0
O192 O 0.77474 0.1394 0.06564 0.0
O193 O 0.76842 0.1662 0.05893 0.0
O194 O 0.77736 0.11807 0.01317 0.0
O195 O 0.77566 0.14544 0.02523 0.0
Co196 Co 0.17878 0.53173 0.25576 0.0
O197 O 0.1732 0.50626 0.25047 0.0
O198 O 0.19955 0.52343 0.24798 0.0
C199 C 0.16668 0.53343 0.28306 0.0
O200 O 0.18889 0.55845 0.26031 0.0
Co201 Co 0.14691 0.55251 0.2574 0.0
O202 O 0.16649 0.57341 0.26531 0.0
C203 C 0.15719 0.5392 0.22044 0.0
C204 C 0.18941 0.50746 0.24613 0.0
C205 C 0.18292 0.57298 0.26417 0.0
O206 O 0.17058 0.53376 0.22858 0.0
O207 O 0.1457 0.54593 0.2293 0.0
O208 O 0.18277 0.53012 0.2832 0.0
O209 O 0.15809 0.53366 0.26653 0.0
Co210 Co 0.78787 0.88812 0.53018 0.0
O211 O 0.7621 0.88285 0.5287 0.0
O212 O 0.77929 0.90927 0.53968 0.0
C213 C 0.78926 0.87514 0.50027 0.0
O214 O 0.81447 0.89958 0.53292 0.0
Co215 Co 0.81084 0.85878 0.52745 0.0
O216 O 0.8311 0.87876 0.52631 0.0
C217 C 0.79563 0.86669 0.56337 0.0
C218 C 0.76328 0.8996 0.53552 0.0
C219 C 0.82955 0.89507 0.53021 0.0
O220 O 0.78979 0.88002 0.55672 0.0
O221 O 0.80355 0.85611 0.55363 0.0
O222 O 0.78613 0.89138 0.50308 0.0
O223 O 0.79024 0.86679 0.51531 0.0
Co224 Co 0.92208 0.01697 0.26593 0.0
O225 O 0.92771 0.04291 0.2673 0.0
O226 O 0.9014 0.02589 0.256 0.0
C227 C 0.93462 0.01564 0.29607 0.0
O228 O 0.91027 0.99032 0.26327 0.0
Co229 Co 0.95069 0.99329 0.26956 0.0
O230 O 0.93047 0.97314 0.27025 0.0
C231 C 0.94437 0.00949 0.23373 0.0
C232 C 0.91117 0.04193 0.26027 0.0
C233 C 0.91439 0.97501 0.26611 0.0
O234 O 0.93047 0.0147 0.23955 0.0
O235 O 0.95477 1.00199 0.24422 0.0
O236 O 0.91858 0.01897 0.29301 0.0
O237 O 0.94297 0.01436 0.28112 0.0
Co238 Co 0.27571 0.62593 0.5411 0.0
O239 O 0.30088 0.63098 0.548 0.0
O240 O 0.28282 0.60541 0.55157 0.0
C241 C 0.27683 0.6358 0.51245 0.0
O242 O 0.24905 0.61622 0.53523 0.0
Co243 Co 0.25621 0.65779 0.53328 0.0
O244 O 0.235 0.63835 0.52645 0.0
C245 C 0.26643 0.65076 0.57295 0.0
C246 C 0.29896 0.615 0.55341 0.0
C247 C 0.23496 0.6221 0.5295 0.0
O248 O 0.27232 0.63666 0.56714 0.0
O249 O 0.26055 0.66127 0.56185 0.0
O250 O 0.27874 0.61941 0.5144 0.0
O251 O 0.27566 0.64591 0.52778 0.0
Co252 Co 0.42294 0.51742 0.76597 0.0
O253 O 0.42819 0.54341 0.76849 0.0
O254 O 0.40205 0.52628 0.75667 0.0
C255 C 0.43557 0.51505 0.79564 0.0
O256 O 0.41153 0.49063 0.76215 0.0
Co257 Co 0.45198 0.49419 0.76785 0.0
O258 O 0.43209 0.47365 0.76832 0.0
C259 C 0.44482 0.51135 0.73303 0.0
C260 C 0.41164 0.54234 0.76146 0.0
C261 C 0.41593 0.47532 0.7644 0.0
O262 O 0.43129 0.51658 0.73966 0.0
O263 O 0.45527 0.50306 0.74243 0.0
O264 O 0.41941 0.51816 0.79292 0.0
O265 O 0.44399 0.51461 0.78067 0.0
Co266 Co 0.67872 0.0319 0.75739 0.0
O267 O 0.67363 0.0064 0.75221 0.0
O268 O 0.69987 0.02398 0.75024 0.0
C269 C 0.66594 0.03328 0.78436 0.0
O270 O 0.68851 0.05869 0.76193 0.0
Co271 Co 0.64668 0.05244 0.75841 0.0
O272 O 0.66599 0.07356 0.76647 0.0
C273 C 0.65743 0.0389 0.72168 0.0
C274 C 0.69001 0.00788 0.74834 0.0
C275 C 0.68246 0.0732 0.76559 0.0
O276 O 0.67088 0.03371 0.73005 0.0
O277 O 0.6458 0.04557 0.73035 0.0
O278 O 0.68221 0.0304 0.78489 0.0
O279 O 0.65768 0.03351 0.76765 0.0
Co280 Co 0.7716 0.66548 0.00665 0.0
O281 O 0.7975 0.66956 0.00917 0.0
O282 O 0.77992 0.6449 0.01554 0.0
C283 C 0.76873 0.67546 0.9773 0.0
O284 O 0.74488 0.65494 0.00499 0.0
Co285 Co 0.74932 0.69503 0.00279 0.0
O286 O 0.72782 0.67565 0.00061 0.0
C287 C 0.76838 0.69225 0.04055 0.0
C288 C 0.79599 0.65344 0.01432 0.0
C289 C 0.72954 0.65957 0.00259 0.0
O290 O 0.77207 0.67701 0.03406 0.0
O291 O 0.76093 0.70207 0.02979 0.0
O292 O 0.77095 0.65909 0.97898 0.0
O293 O 0.76903 0.68543 0.99325 0.0
Co294 Co 0.88568 0.52188 0.80153 0.0
O295 O 0.88896 0.54757 0.80465 0.0
O296 O 0.86498 0.52855 0.78934 0.0
C297 C 0.89453 0.51872 0.83143 0.0
O298 O 0.87718 0.49508 0.79627 0.0
Co299 Co 0.91776 0.50211 0.80805 0.0
O300 O 0.89898 0.48002 0.80455 0.0
C301 C 0.91153 0.51811 0.77229 0.0
C302 C 0.87298 0.54501 0.79542 0.0
C303 C 0.88282 0.48047 0.79867 0.0
O304 O 0.89702 0.52236 0.77725 0.0
O305 O 0.92213 0.51097 0.78293 0.0
O306 O 0.87837 0.52121 0.82697 0.0
O307 O 0.90525 0.5202 0.81843 0.0
Co308 Co 0.78545 0.42074 0.49149 0.0
O309 O 0.76003 0.41769 0.4894 0.0
O310 O 0.77953 0.44257 0.50231 0.0
C311 C 0.78683 0.40906 0.46183 0.0
O312 O 0.81218 0.42904 0.49522 0.0
Co313 Co 0.80444 0.38785 0.48703 0.0
O314 O 0.82628 0.40634 0.48728 0.0
C315 C 0.79128 0.39799 0.52361 0.0
C316 C 0.76309 0.43423 0.49743 0.0
C317 C 0.82635 0.42289 0.49238 0.0
O318 O 0.78608 0.41162 0.51716 0.0
O319 O 0.79809 0.38656 0.51367 0.0
O320 O 0.78495 0.42569 0.46507 0.0
O321 O 0.78608 0.39966 0.4761 0.0
Co322 Co 0.63944 0.5361 0.29096 0.0
O323 O 0.63485 0.51007 0.28864 0.0
O324 O 0.65994 0.5273 0.28301 0.0
C325 C 0.62904 0.53939 0.31985 0.0
O326 O 0.65016 0.56287 0.29246 0.0
Co327 Co 0.61027 0.55889 0.29348 0.0
O328 O 0.62988 0.58036 0.29705 0.0
C329 C 0.61366 0.53889 0.25645 0.0
C330 C 0.65106 0.51125 0.28418 0.0
C331 C 0.6458 0.57839 0.29517 0.0
O332 O 0.62878 0.53555 0.26341 0.0
O333 O 0.60353 0.54641 0.26667 0.0
O334 O 0.64527 0.53692 0.3186 0.0
O335 O 0.61937 0.53906 0.30371 0.0
Eu336 Eu 0.05408 0.03829 0.03653 0.0
C337 C 0.99765 0.97405 0.99415 0.0
N338 N 1.00567 0.98988 0.98851 0.0
C339 C 0.00827 0.97473 0.95785 0.0
C340 C 0.9951 0.95779 0.98181 0.0
C341 C 0.01063 0.99048 0.97053 0.0
C342 C 1.00054 0.9583 0.96352 0.0
C343 C 0.98446 0.95759 0.01873 0.0
C344 C 0.99219 0.97399 0.01245 0.0
C345 C 0.98197 0.94145 0.00644 0.0
C346 C 0.98718 0.94156 0.98803 0.0
Eu347 Eu 1.00638 0.01569 0.01017 0.0
N348 N 0.99476 0.98982 0.02421 0.0
C349 C 0.97944 0.95787 0.03723 0.0
C350 C 0.98918 0.99022 0.04193 0.0
C351 C 0.98176 0.97426 0.04884 0.0
H352 H 0.01576 1.00314 0.96555 0.0
H353 H 0.97753 0.97464 0.063 0.0
H354 H 0.04683 0.04792 0.0828 0.0
H355 H 0.09158 0.08142 0.99157 0.0
H356 H 0.9899 1.00277 0.0506 0.0
H357 H 0.97354 0.94555 0.04259 0.0
H358 H 0.07571 0.05277 0.00091 0.0
H359 H 0.01217 0.9753 0.94359 0.0
H360 H 0.97598 0.92876 0.01103 0.0
H361 H 0.98509 0.92898 0.97871 0.0
H362 H 0.04923 0.07451 0.10619 0.0
H363 H 0.99867 0.94612 0.95361 0.0
H364 H 0.09369 0.10992 0.01261 0.0
N365 N 0.05515 0.06295 0.06025 0.0
C366 C 0.06291 0.07939 0.05578 0.0
C367 C 0.05278 0.07613 0.09194 0.0
C368 C 0.06539 0.09494 0.06917 0.0
C369 C 0.05093 0.06106 0.07837 0.0
C370 C 0.05982 0.09318 0.08726 0.0
N371 N 0.06792 0.06523 0.02604 0.0
C372 C 0.07622 0.06525 0.00982 0.0
C373 C 0.07889 0.09712 0.03379 0.0
C374 C 0.06968 0.08053 0.03831 0.0
C375 C 0.0865 0.09744 0.01657 0.0
C376 C 0.08534 0.08139 0.00465 0.0
H377 H 0.06158 0.10478 0.09795 0.0
H378 H 0.076 0.12366 0.07456 0.0
H379 H 0.08775 0.12556 0.04357 0.0
O380 O 0.07816 0.0287 0.03007 0.0
O381 O 0.04105 0.05641 0.0174 0.0
O382 O 0.01054 0.04677 0.01522 0.0
O383 O 0.07735 0.04291 0.05798 0.0
O384 O 0.05177 0.02199 0.00738 0.0
O385 O 0.02641 0.02766 0.99126 0.0
O386 O 0.9775 0.01344 0.01021 0.0
O387 O 0.02585 0.99655 0.01864 0.0
O388 O 0.04299 0.01083 0.04612 0.0
O389 O 0.98928 0.01599 0.98387 0.0
O390 O 1.00601 0.03115 0.03923 0.0
O391 O 0.03283 0.02835 0.05516 0.0
C392 C 0.02464 0.05937 0.01396 0.0
C393 C 0.09452 0.02027 0.05607 0.0
C394 C 0.11695 1.00178 0.0551 0.0
C395 C 0.11008 0.99273 0.0699 0.0
C396 C 0.08761 0.01142 0.07105 0.0
C397 C 0.09546 0.99769 0.07797 0.0
C398 C 0.10924 0.01553 0.04833 0.0
C399 C 0.04303 0.0254 0.99166 0.0
C400 C 0.08627 0.03377 0.04733 0.0
C401 C 0.07402 0.11161 0.06445 0.0
C402 C 0.08074 0.11269 0.0468 0.0
C403 C 0.0355 0.99581 0.03507 0.0
C404 C 0.96456 0.02992 0.98753 0.0
C405 C 0.94443 0.05006 0.99603 0.0
C406 C 0.94604 0.05726 0.9786 0.0
C407 C 0.96577 0.03711 0.97002 0.0
C408 C 0.95362 0.0363 0.0004 0.0
C409 C 0.9566 0.05074 0.96565 0.0
C410 C 0.01646 0.0313 0.05514 0.0
C411 C 0.97491 0.01602 0.99227 0.0
H412 H 0.11609 0.98205 0.07524 0.0
H413 H 0.07613 0.01498 0.07721 0.0
H414 H 0.09015 0.9908 0.08946 0.0
H415 H 0.11451 0.0223 0.03667 0.0
H416 H 0.93889 0.06774 0.97484 0.0
H417 H 0.9739 0.03229 0.95971 0.0
H418 H 0.95245 0.03083 0.01391 0.0
H419 H 0.95767 0.05624 0.95217 0.0
Eu420 Eu 0.26557 0.7766 0.30049 0.0
C421 C 0.30905 0.74539 0.22788 0.0
N422 N 0.31423 0.75692 0.24427 0.0
C423 C 0.33935 0.7428 0.25138 0.0
C424 C 0.31857 0.73167 0.22298 0.0
C425 C 0.32946 0.75615 0.25568 0.0
C426 C 0.33376 0.73037 0.23509 0.0
C427 C 0.28874 0.73593 0.19856 0.0
C428 C 0.29426 0.74744 0.21582 0.0
C429 C 0.29789 0.72195 0.19393 0.0
C430 C 0.31276 0.71982 0.2061 0.0
Eu431 Eu 0.29581 0.77823 0.25067 0.0
N432 N 0.28546 0.76089 0.22081 0.0
C433 C 0.27438 0.73902 0.18631 0.0
C434 C 0.27236 0.76479 0.2083 0.0
C435 C 0.26637 0.75372 0.19106 0.0
H436 H 0.33431 0.76593 0.26795 0.0
H437 H 0.25567 0.75662 0.18137 0.0
H438 H 0.22516 0.78581 0.29009 0.0
H439 H 0.31658 0.80611 0.36115 0.0
H440 H 0.26661 0.77654 0.21145 0.0
H441 H 0.26972 0.73047 0.17293 0.0
H442 H 0.3018 0.78321 0.3351 0.0
H443 H 0.35133 0.74219 0.26059 0.0
H444 H 0.29374 0.71286 0.18082 0.0
H445 H 0.31983 0.70912 0.20221 0.0
H446 H 0.20785 0.80909 0.29935 0.0
H447 H 0.34146 0.72004 0.23182 0.0
H448 H 0.30261 0.83203 0.37055 0.0
N449 N 0.24783 0.79738 0.3101 0.0
C450 C 0.25507 0.81046 0.3246 0.0
C451 C 0.22116 0.8097 0.30651 0.0
C452 C 0.2457 0.82404 0.3304 0.0
C453 C 0.23102 0.7966 0.30122 0.0
C454 C 0.22858 0.82358 0.32107 0.0
N455 N 0.28022 0.79654 0.32794 0.0
C456 C 0.29578 0.7947 0.33815 0.0
C457 C 0.27964 0.82337 0.34908 0.0
C458 C 0.27183 0.81012 0.3337 0.0
C459 C 0.29616 0.82213 0.35868 0.0
C460 C 0.30411 0.80757 0.35337 0.0
H461 H 0.22094 0.83375 0.32512 0.0
H462 H 0.24672 0.84815 0.3499 0.0
H463 H 0.27646 0.84755 0.36631 0.0
O464 O 0.26439 0.75509 0.3187 0.0
O465 O 0.27102 0.80397 0.2905 0.0
O466 O 0.29414 0.79546 0.27799 0.0
O467 O 0.24011 0.75876 0.30258 0.0
O468 O 0.29382 0.76917 0.30405 0.0
O469 O 0.31185 0.77988 0.2806 0.0
O470 O 0.29563 0.80114 0.2345 0.0
O471 O 0.28296 0.74936 0.25243 0.0
O472 O 0.2759 0.76567 0.27563 0.0
O473 O 0.3206 0.79245 0.24214 0.0
O474 O 0.26592 0.78109 0.24574 0.0
O475 O 0.24846 0.77519 0.27136 0.0
C476 C 0.28366 0.80715 0.27954 0.0
C477 C 0.23871 0.75074 0.33405 0.0
C478 C 0.23864 0.74098 0.36574 0.0
C479 C 0.22801 0.75354 0.37082 0.0
C480 C 0.22794 0.76318 0.3392 0.0
C481 C 0.22254 0.76445 0.35749 0.0
C482 C 0.24372 0.73949 0.34727 0.0
C483 C 0.30958 0.7732 0.2972 0.0
C484 C 0.24701 0.7509 0.31623 0.0
C485 C 0.25364 0.83752 0.34532 0.0
C486 C 0.27059 0.8372 0.35463 0.0
C487 C 0.27468 0.74964 0.26729 0.0
C488 C 0.31599 0.80237 0.21171 0.0
C489 C 0.3093 0.81203 0.18052 0.0
C490 C 0.3208 0.80141 0.17293 0.0
C491 C 0.32744 0.79178 0.20397 0.0
C492 C 0.30708 0.81253 0.19993 0.0
C493 C 0.32985 0.79139 0.18466 0.0
C494 C 0.25048 0.77871 0.25345 0.0
C495 C 0.31239 0.80238 0.2317 0.0
H496 H 0.22392 0.75485 0.38504 0.0
H497 H 0.22406 0.77218 0.32933 0.0
H498 H 0.21437 0.77413 0.36146 0.0
H499 H 0.25237 0.73018 0.34347 0.0
H500 H 0.32302 0.80109 0.15803 0.0
H501 H 0.33442 0.7837 0.21273 0.0
H502 H 0.29811 0.82058 0.20582 0.0
H503 H 0.33872 0.78328 0.17875 0.0
Eu504 Eu 0.50758 0.02414 0.53719 0.0
C505 C 0.57212 0.06435 0.49929 0.0
N506 N 0.56008 0.04909 0.49223 0.0
C507 C 0.55816 0.05891 0.46107 0.0
C508 C 0.57742 0.07771 0.4874 0.0
C509 C 0.55325 0.04606 0.4734 0.0
C510 C 0.57025 0.07483 0.4681 0.0
C511 C 0.59107 0.0827 0.52637 0.0
C512 C 0.57893 0.06681 0.51862 0.0
C513 C 0.59638 0.09599 0.51452 0.0
C514 C 0.58959 0.0935 0.49511 0.0
Eu515 Eu 0.55345 0.02817 0.51413 0.0
N516 N 0.57312 0.05397 0.52996 0.0
C517 C 0.59744 0.08478 0.54587 0.0
C518 C 0.57974 0.05561 0.54875 0.0
C519 C 0.59184 0.07113 0.55707 0.0
H520 H 0.54434 0.03355 0.46776 0.0
H521 H 0.59694 0.07249 0.57207 0.0
H522 H 0.51677 0.01828 0.5834 0.0
H523 H 0.46331 0.98054 0.47917 0.0
H524 H 0.57591 0.0449 0.55726 0.0
H525 H 0.60679 0.09681 0.55237 0.0
H526 H 0.48457 0.00786 0.49405 0.0
H527 H 0.55273 0.05647 0.44613 0.0
H528 H 0.60571 0.1083 0.52024 0.0
H529 H 0.5938 0.10391 0.48618 0.0
H530 H 0.50803 0.99533 0.60489 0.0
H531 H 0.57402 0.08476 0.4585 0.0
H532 H 0.45325 0.95617 0.49871 0.0
N533 N 0.50065 1.00311 0.55892 0.0
C534 C 0.48839 0.98802 0.55182 0.0
C535 C 0.50251 0.99306 0.58998 0.0
C536 C 0.48293 0.97464 0.56364 0.0
C537 C 0.5076 0.00593 0.57772 0.0
C538 C 0.49017 0.97733 0.58291 0.0
N539 N 0.48742 0.99863 0.52129 0.0
C540 C 0.48072 0.99714 0.50252 0.0
C541 C 0.46916 0.97001 0.52473 0.0
C542 C 0.48151 0.98575 0.53254 0.0
C543 C 0.46274 0.96808 0.50526 0.0
C544 C 0.46846 0.98176 0.49415 0.0
H545 H 0.48627 0.96738 0.59245 0.0
H546 H 0.4662 0.94859 0.56476 0.0
H547 H 0.45421 0.94451 0.53073 0.0
O548 O 0.48464 0.03741 0.52966 0.0
O549 O 0.5167 0.99706 0.52861 0.0
O550 O 0.53348 1.00199 0.50364 0.0
O551 O 0.49215 0.03264 0.55914 0.0
O552 O 0.50992 0.03639 0.50949 0.0
O553 O 0.52827 0.0206 0.49415 0.0
O554 O 0.57684 0.01571 0.52189 0.0
O555 O 0.54375 0.05499 0.52224 0.0
O556 O 0.5279 0.04999 0.54776 0.0
O557 O 0.5691 0.01984 0.49224 0.0
O558 O 0.55095 0.01541 0.54146 0.0
O559 O 0.53293 0.0313 0.55722 0.0
C560 C 0.5241 0.99089 0.51379 0.0
C561 C 0.46698 0.04754 0.55462 0.0
C562 C 0.44108 0.06193 0.54989 0.0
C563 C 0.44012 0.06336 0.56967 0.0
C564 C 0.4657 0.04918 0.5744 0.0
C565 C 0.45239 0.05707 0.58182 0.0
C566 C 0.45461 0.05409 0.5423 0.0
C567 C 0.51579 0.03024 0.49387 0.0
C568 C 0.48143 0.03913 0.54747 0.0
C569 C 0.47054 0.95901 0.55589 0.0
C570 C 0.4637 0.95669 0.5365 0.0
C571 C 0.53655 0.06116 0.53719 0.0
C572 C 0.59514 0.00628 0.49733 0.0
C573 C 0.61927 0.98949 0.50182 0.0
C574 C 0.62255 0.99097 0.48283 0.0
C575 C 0.59876 0.00763 0.47835 0.0
C576 C 0.60557 0.99721 0.50916 0.0
C577 C 0.61238 1.00004 0.4712 0.0
C578 C 0.54505 0.02123 0.55718 0.0
C579 C 0.58016 0.01399 0.50411 0.0
H580 H 0.4298 0.06939 0.57571 0.0
H581 H 0.47503 0.04439 0.58426 0.0
H582 H 0.45156 0.05826 0.59706 0.0
H583 H 0.45536 0.05296 0.52702 0.0
H584 H 0.63304 0.98506 0.47701 0.0
H585 H 0.59101 0.01454 0.46893 0.0
H586 H 0.60293 0.99594 0.52379 0.0
H587 H 0.615 1.00112 0.45657 0.0
Eu588 Eu 0.30653 0.26776 0.77817 0.0
C589 C 0.23893 0.28983 0.73179 0.0
N590 N 0.25052 0.29916 0.74673 0.0
C591 C 0.25144 0.32643 0.7321 0.0
C592 C 0.23337 0.29852 0.71616 0.0
C593 C 0.25655 0.31727 0.74728 0.0
C594 C 0.23987 0.31701 0.71642 0.0
C595 C 0.22072 0.26145 0.71667 0.0
C596 C 0.23269 0.27147 0.73203 0.0
C597 C 0.21521 0.27007 0.70107 0.0
C598 C 0.22153 0.28854 0.70081 0.0
Eu599 Eu 0.25791 0.28246 0.77175 0.0
N600 N 0.23866 0.26333 0.74705 0.0
C601 C 0.21467 0.24303 0.71741 0.0
C602 C 0.23213 0.24562 0.74828 0.0
C603 C 0.22028 0.23513 0.73338 0.0
H604 H 0.26491 0.3248 0.75963 0.0
H605 H 0.21529 0.22101 0.73433 0.0
H606 H 0.29976 0.22434 0.78697 0.0
H607 H 0.34339 0.32866 0.82234 0.0
H608 H 0.23563 0.23966 0.76091 0.0
H609 H 0.20547 0.23487 0.70589 0.0
H610 H 0.32544 0.31106 0.79354 0.0
H611 H 0.25628 0.34079 0.7326 0.0
H612 H 0.20606 0.26257 0.68912 0.0
H613 H 0.21714 0.29499 0.68868 0.0
H614 H 0.30726 0.20695 0.81329 0.0
H615 H 0.2359 0.32417 0.70469 0.0
H616 H 0.35218 0.31318 0.84993 0.0
N617 N 0.31279 0.24963 0.80214 0.0
C618 C 0.32304 0.25849 0.81828 0.0
C619 C 0.31169 0.22143 0.81491 0.0
C620 C 0.32783 0.24901 0.83355 0.0
C621 C 0.30727 0.23136 0.80012 0.0
C622 C 0.32196 0.23029 0.83171 0.0
N623 N 0.32322 0.28612 0.80505 0.0
C624 C 0.3288 0.30426 0.80561 0.0
C625 C 0.339 0.28666 0.83637 0.0
C626 C 0.32858 0.27717 0.81969 0.0
C627 C 0.34419 0.30541 0.83735 0.0
C628 C 0.33917 0.31422 0.82185 0.0
H629 H 0.32536 0.22254 0.84313 0.0
H630 H 0.34203 0.25139 0.86201 0.0
H631 H 0.35179 0.28428 0.86448 0.0
O632 O 0.32925 0.27751 0.76253 0.0
O633 O 0.29398 0.2759 0.80519 0.0
O634 O 0.2778 0.29697 0.79635 0.0
O635 O 0.32716 0.2519 0.77363 0.0
O636 O 0.30381 0.29233 0.76286 0.0
O637 O 0.28209 0.30533 0.77606 0.0
O638 O 0.23532 0.27477 0.78913 0.0
O639 O 0.26924 0.27368 0.74412 0.0
O640 O 0.28787 0.25396 0.75202 0.0
O641 O 0.24052 0.30099 0.77851 0.0
O642 O 0.26139 0.25779 0.78675 0.0
O643 O 0.28248 0.24482 0.77212 0.0
C644 C 0.28582 0.28933 0.80958 0.0
C645 C 0.34333 0.25541 0.74678 0.0
C646 C 0.36656 0.25606 0.72507 0.0
C647 C 0.35722 0.2395 0.71542 0.0
C648 C 0.3346 0.23862 0.73708 0.0
C649 C 0.34141 0.23085 0.72142 0.0
C650 C 0.35954 0.26405 0.74081 0.0
C651 C 0.2968 0.30647 0.76762 0.0
C652 C 0.33628 0.2632 0.76387 0.0
C653 C 0.33824 0.25846 0.85015 0.0
C654 C 0.3438 0.27721 0.85155 0.0
C655 C 0.27865 0.2613 0.73928 0.0
C656 C 0.21518 0.29639 0.79659 0.0
C657 C 0.18986 0.29288 0.8157 0.0
C658 C 0.18703 0.31 0.81194 0.0
C659 C 0.21179 0.3135 0.79317 0.0
C660 C 0.20401 0.28594 0.80795 0.0
C661 C 0.19788 0.32018 0.80077 0.0
C662 C 0.26795 0.2436 0.78087 0.0
C663 C 0.2305 0.29032 0.78806 0.0
H664 H 0.36238 0.23308 0.70337 0.0
H665 H 0.3226 0.23135 0.74177 0.0
H666 H 0.33452 0.21794 0.71405 0.0
H667 H 0.36669 0.27679 0.74843 0.0
H668 H 0.17629 0.31553 0.81771 0.0
H669 H 0.21993 0.32189 0.78456 0.0
H670 H 0.20632 0.27275 0.81081 0.0
H671 H 0.19551 0.33336 0.79798 0.0
Eu672 Eu 0.03787 1.0014 0.52324 0.0
C673 C 0.01668 0.06802 0.56687 0.0
N674 N 0.00785 0.058 0.55057 0.0
C675 C 0.98001 0.05633 0.5639 0.0
C676 C 0.00751 0.07185 0.58268 0.0
C677 C 0.9896 0.05322 0.54849 0.0
C678 C 0.98905 0.06536 0.58121 0.0
C679 C 0.04382 0.08738 0.58332 0.0
C680 C 0.03467 0.07568 0.56729 0.0
C681 C 0.03494 0.09046 0.5994 0.0
C682 C 0.01685 0.08266 0.59911 0.0
Eu683 Eu 0.02591 0.05261 0.526 0.0
N684 N 0.0431 0.07219 0.5517 0.0
C685 C 0.06151 0.09597 0.58249 0.0
C686 C 0.05992 0.08136 0.55029 0.0
C687 C 0.06949 0.09316 0.56579 0.0
H688 H 0.98224 0.04734 0.53489 0.0
H689 H 0.08299 0.10008 0.56485 0.0
H690 H 0.08136 0.00542 0.51609 0.0
H691 H 0.97819 0.9606 0.48059 0.0
H692 H 0.06596 0.07921 0.5373 0.0
H693 H 0.06897 0.1051 0.5945 0.0
H694 H 0.99534 0.97964 0.50893 0.0
H695 H 0.9656 0.05208 0.56228 0.0
H696 H 0.04181 0.09922 0.61195 0.0
H697 H 0.01004 0.08558 0.61143 0.0
H698 H 0.09891 0.99712 0.49039 0.0
H699 H 0.98154 0.06799 0.59303 0.0
H700 H 0.99372 0.95152 0.45325 0.0
N701 N 0.05625 0.99307 0.5004 0.0
C702 C 0.04764 0.98231 0.48446 0.0
C703 C 0.08449 0.99303 0.48846 0.0
C704 C 0.05719 0.97708 0.46949 0.0
C705 C 0.07446 0.99792 0.5029 0.0
C706 C 0.07581 0.98275 0.47159 0.0
N707 N 0.02024 0.98182 0.49766 0.0
C708 C 1.00224 0.97599 0.49708 0.0
C709 C 0.01989 0.96551 0.4666 0.0
C710 C 0.02917 0.97646 0.48309 0.0
C711 C 1.00133 0.95992 0.46568 0.0
C712 C 0.9925 0.96506 0.48106 0.0
H713 H 0.08362 0.97902 0.46041 0.0
H714 H 0.05505 0.96232 0.44129 0.0
H715 H 0.02242 0.95228 0.43872 0.0
O716 O 0.03086 0.97475 0.53304 0.0
O717 O 0.03057 0.0128 0.49502 0.0
O718 O 0.01095 0.03171 0.50221 0.0
O719 O 0.05701 0.9913 0.54242 0.0
O720 O 0.01147 0.00417 0.53402 0.0
O721 O 1.00152 0.02914 0.52306 0.0
O722 O 0.03486 0.07083 0.50499 0.0
O723 O 0.04522 0.04608 0.54985 0.0
O724 O 0.03128 0.0174 0.54915 0.0
O725 O 0.01359 0.0758 0.52117 0.0
O726 O 0.04872 0.04498 0.51081 0.0
O727 O 0.06167 0.02497 0.52712 0.0
C728 C 0.01779 0.02163 0.48982 0.0
C729 C 0.05345 0.9598 0.546 0.0
C730 C 0.05357 0.93201 0.56113 0.0
C731 C 0.06804 0.92901 0.55128 0.0
C732 C 0.06789 0.95643 0.5364 0.0
C733 C 0.07517 0.94116 0.53913 0.0
C734 C 0.04639 0.94761 0.55854 0.0
C735 C 0.9987 0.01321 0.5297 0.0
C736 C 0.04603 0.97626 0.54375 0.0
C737 C 0.04794 0.96633 0.45299 0.0
C738 C 0.02935 0.96059 0.45154 0.0
C739 C 0.04261 0.03128 0.55802 0.0
C740 C 0.0141 0.08735 0.4913 0.0
C741 C 0.01284 0.10967 0.46849 0.0
C742 C 0.99538 0.10054 0.46134 0.0
C743 C 0.9968 0.07846 0.48364 0.0
C744 C 0.02211 0.10299 0.48369 0.0
C745 C 0.98751 0.08508 0.46881 0.0
C746 C 0.06297 0.03972 0.51849 0.0
C747 C 0.02334 0.08114 0.50802 0.0
H748 H 0.07395 0.91727 0.55312 0.0
H749 H 0.0736 0.96565 0.5269 0.0
H750 H 0.08639 0.9387 0.53177 0.0
H751 H 0.03527 0.95016 0.56607 0.0
H752 H 0.98763 0.1055 0.4501 0.0
H753 H 0.99033 0.06658 0.48937 0.0
H754 H 0.03548 0.10989 0.4896 0.0
H755 H 0.97405 0.07829 0.46319 0.0
Eu756 Eu 0.28276 0.80401 0.76166 0.0
C757 C 0.24625 0.72993 0.80078 0.0
N758 N 0.26272 0.74024 0.80672 0.0
C759 C 0.25839 0.73692 0.83944 0.0
C760 C 0.23475 0.72372 0.81416 0.0
C761 C 0.26937 0.74259 0.82568 0.0
C762 C 0.24085 0.72785 0.83368 0.0
C763 C 0.22519 0.71195 0.77504 0.0
C764 C 0.24152 0.72398 0.78137 0.0
C765 C 0.21319 0.70694 0.78821 0.0
C766 C 0.21796 0.71279 0.80773 0.0
Eu767 Eu 0.27942 0.74994 0.78185 0.0
N768 N 0.25342 0.72881 0.76888 0.0
C769 C 0.22173 0.70466 0.75578 0.0
C770 C 0.25068 0.72077 0.75041 0.0
C771 C 0.23472 0.70879 0.74352 0.0
H772 H 0.28312 0.74915 0.83025 0.0
H773 H 0.23241 0.70281 0.72874 0.0
H774 H 0.2796 0.79891 0.71254 0.0
H775 H 0.32972 0.85292 0.81274 0.0
H776 H 0.26067 0.72384 0.74094 0.0
H777 H 0.20936 0.69537 0.7504 0.0
H778 H 0.30201 0.8305 0.80192 0.0
H779 H 0.26353 0.73939 0.85446 0.0
H780 H 0.20048 0.69793 0.78355 0.0
H781 H 0.20888 0.70816 0.81781 0.0
H782 H 0.29903 0.80732 0.68795 0.0
H783 H 0.23243 0.72329 0.84438 0.0
H784 H 0.35123 0.86149 0.78978 0.0
N785 N 0.29905 0.81163 0.73593 0.0
C786 C 0.31482 0.82352 0.74122 0.0
C787 C 0.30376 0.81169 0.70289 0.0
C788 C 0.32611 0.8291 0.72742 0.0
C789 C 0.29292 0.80664 0.71698 0.0
C790 C 0.32058 0.82265 0.70815 0.0
N791 N 0.30807 0.82616 0.77343 0.0
C792 C 0.31135 0.83415 0.7919 0.0
C793 C 0.33526 0.84394 0.76587 0.0
C794 C 0.31932 0.83109 0.76032 0.0
C795 C 0.33909 0.85164 0.78499 0.0
C796 C 0.327 0.84685 0.79801 0.0
H797 H 0.32888 0.82664 0.69716 0.0
H798 H 0.35115 0.84561 0.72268 0.0
H799 H 0.35921 0.85845 0.7563 0.0
O800 O 0.27369 0.82772 0.77441 0.0
O801 O 0.30958 0.79871 0.77711 0.0
O802 O 0.30677 0.76967 0.7876 0.0
O803 O 0.26237 0.81504 0.74589 0.0
O804 O 0.27828 0.78519 0.78298 0.0
O805 O 0.27938 0.77056 0.80726 0.0
O806 O 0.28865 0.72696 0.76746 0.0
O807 O 0.25433 0.75641 0.76355 0.0
O808 O 0.25625 0.78754 0.76886 0.0
O809 O 0.29788 0.73624 0.79719 0.0
O810 O 0.2908 0.76567 0.75894 0.0
O811 O 0.27804 0.78113 0.73808 0.0
C812 C 0.31624 0.78583 0.78552 0.0
C813 C 0.26345 0.84607 0.75222 0.0
C814 C 0.2514 0.87354 0.75129 0.0
C815 C 0.26275 0.87889 0.73758 0.0
C816 C 0.2748 0.85165 0.73862 0.0
C817 C 0.27435 0.86797 0.73128 0.0
C818 C 0.25173 0.857 0.75848 0.0
C819 C 0.27878 0.78596 0.80136 0.0
C820 C 0.26293 0.82845 0.75911 0.0
C821 C 0.34226 0.84139 0.73309 0.0
C822 C 0.34682 0.84876 0.75224 0.0
C823 C 0.24716 0.77114 0.7621 0.0
C824 C 0.29664 0.70571 0.78744 0.0
C825 C 0.30884 0.6783 0.7871 0.0
C826 C 0.29575 0.67113 0.7983 0.0
C827 C 0.2836 0.69841 0.79862 0.0
C828 C 0.30932 0.69568 0.78179 0.0
C829 C 0.28324 0.6812 0.80409 0.0
C830 C 0.2826 0.76604 0.742 0.0
C831 C 0.29811 0.72425 0.78285 0.0
H832 H 0.26253 0.89147 0.73162 0.0
H833 H 0.28381 0.84329 0.7335 0.0
H834 H 0.28297 0.87213 0.72063 0.0
H835 H 0.24297 0.85268 0.769 0.0
H836 H 0.29532 0.6578 0.80269 0.0
H837 H 0.2739 0.7061 0.80334 0.0
H838 H 0.3195 0.70135 0.77328 0.0
H839 H 0.2733 0.67568 0.81289 0.0
Eu840 Eu 0.53042 0.04256 0.99785 0.0
C841 C 0.56224 0.99487 0.06886 0.0
N842 N 0.54966 0.98976 0.05338 0.0
C843 C 0.55951 0.96169 0.04762 0.0
C844 C 0.57423 0.98359 0.07407 0.0
C845 C 0.5479 0.97328 0.043 0.0
C846 C 0.57281 0.9669 0.06314 0.0
C847 C 0.57615 0.01707 0.09568 0.0
C848 C 0.56316 0.01145 0.07959 0.0
C849 C 0.58818 0.00592 0.10076 0.0
C850 C 0.58723 0.98924 0.08999 0.0
Eu851 Eu 0.53102 0.0105 0.04644 0.0
N852 N 0.55161 0.0222 0.0741 0.0
C853 C 0.5767 0.03376 0.10623 0.0
C854 C 0.55182 0.03828 0.08471 0.0
C855 C 0.5644 0.04434 0.10078 0.0
H856 H 0.53736 0.96884 0.0313 0.0
H857 H 0.56455 0.05717 0.109 0.0
H858 H 0.51464 0.07875 0.01336 0.0
H859 H 0.51259 1.00084 0.92826 0.0
H860 H 0.54235 0.04656 0.08113 0.0
H861 H 0.58647 0.03854 0.11867 0.0
H862 H 0.53239 0.01469 0.95745 0.0
H863 H 0.55812 0.94868 0.03927 0.0
H864 H 0.59826 0.01007 0.11303 0.0
H865 H 0.59658 0.98077 0.09413 0.0
H866 H 0.4888 0.0932 0.00568 0.0
H867 H 0.58178 0.95788 0.06669 0.0
H868 H 0.48356 0.0101 0.92071 0.0
N869 N 0.50697 0.05792 0.99023 0.0
C870 C 0.49525 0.05096 0.97452 0.0
C871 C 0.49038 0.08126 0.99686 0.0
C872 C 0.48022 0.05865 0.96961 0.0
C873 C 0.505 0.07306 0.00119 0.0
C874 C 0.4778 0.0739 0.98111 0.0
N875 N 0.51391 0.0302 0.96771 0.0
C876 C 0.51944 0.01834 0.95488 0.0
C877 C 0.48725 0.02943 0.94606 0.0
C878 C 0.49872 0.03651 0.96301 0.0
C879 C 0.49202 0.01595 0.93383 0.0
C880 C 0.50839 0.01067 0.93805 0.0
H881 H 0.46647 0.08026 0.97778 0.0
H882 H 0.45658 0.05669 0.94935 0.0
H883 H 0.46274 0.03107 0.92868 0.0
O884 O 0.5548 0.04645 0.98421 0.0
O885 O 0.50387 0.03571 0.00889 0.0
O886 O 0.51307 0.01191 0.01969 0.0
O887 O 0.54441 0.06965 0.99465 0.0
O888 O 0.53415 0.0131 0.99081 0.0
O889 O 0.53267 0.99534 0.01672 0.0
O890 O 0.50952 0.01119 0.06423 0.0
O891 O 0.5594 0.02339 0.04382 0.0
O892 O 0.54242 0.0317 0.02196 0.0
O893 O 0.51613 0.98556 0.05443 0.0
O894 O 0.52486 0.03945 0.05144 0.0
O895 O 0.53367 0.05835 0.02787 0.0
C896 C 0.50117 0.02221 0.01898 0.0
C897 C 0.55674 0.07048 0.96537 0.0
C898 C 0.56297 0.06599 0.93235 0.0
C899 C 0.55856 0.08279 0.92941 0.0
C900 C 0.55254 0.08731 0.96228 0.0
C901 C 0.55333 0.09333 0.94432 0.0
C902 C 0.56181 0.05988 0.95028 0.0
C903 C 0.53454 0.99776 0.99849 0.0
C904 C 0.55555 0.0637 0.98407 0.0
C905 C 0.46831 0.05109 0.95326 0.0
C906 C 0.4718 0.03648 0.94152 0.0
C907 C 0.55863 0.03228 0.02936 0.0
C908 C 0.50707 0.98927 0.08536 0.0
C909 C 0.49578 0.99345 0.11603 0.0
C910 C 0.50723 0.98268 0.12362 0.0
C911 C 0.51853 0.97855 0.09303 0.0
C912 C 0.49574 0.99656 0.09688 0.0
C913 C 0.5185 0.97523 0.1121 0.0
C914 C 0.52817 0.05551 0.04485 0.0
C915 C 0.50719 0.99399 0.0658 0.0
H916 H 0.55969 0.08806 0.91581 0.0
H917 H 0.54861 0.09577 0.9737 0.0
H918 H 0.55013 0.10632 0.94201 0.0
H919 H 0.56496 0.04682 0.95247 0.0
H920 H 0.50736 0.97992 0.13836 0.0
H921 H 0.52757 0.9729 0.08442 0.0
H922 H 0.48722 0.00515 0.09099 0.0
H923 H 0.5273 0.96696 0.118 0.0
Eu924 Eu 0.2669 0.25029 0.2565 0.0
C925 C 0.32957 0.3102 0.30418 0.0
N926 N 0.31417 0.30053 0.3089 0.0
C927 C 0.32886 0.29829 0.33988 0.0
C928 C 0.34538 0.31399 0.31715 0.0
C929 C 0.31352 0.29489 0.32659 0.0
C930 C 0.34488 0.30779 0.33511 0.0
C931 C 0.34529 0.32669 0.28115 0.0
C932 C 0.32953 0.31655 0.28636 0.0
C933 C 0.36106 0.3303 0.29398 0.0
C934 C 0.36109 0.32399 0.31193 0.0
Eu935 Eu 0.28881 0.29687 0.28589 0.0
N936 N 0.31414 0.31265 0.27406 0.0
C937 C 0.34471 0.33303 0.26322 0.0
C938 C 0.31328 0.31971 0.25709 0.0
C939 C 0.32858 0.32967 0.25122 0.0
H940 H 0.3011 0.28834 0.3308 0.0
H941 H 0.32783 0.33504 0.23761 0.0
H942 H 0.25629 0.26088 0.21196 0.0
H943 H 0.22402 0.21912 0.30632 0.0
H944 H 0.30075 0.31828 0.24831 0.0
H945 H 0.35653 0.34086 0.25869 0.0
H946 H 0.25233 0.2334 0.29598 0.0
H947 H 0.32824 0.29381 0.3539 0.0
H948 H 0.37328 0.33806 0.29021 0.0
H949 H 0.37334 0.32702 0.32172 0.0
H950 H 0.2295 0.25706 0.18856 0.0
H951 H 0.35672 0.31051 0.3455 0.0
H952 H 0.19603 0.21408 0.28419 0.0
N953 N 0.24212 0.24956 0.23368 0.0
C954 C 0.22618 0.24092 0.23828 0.0
C955 C 0.22834 0.25268 0.20257 0.0
C956 C 0.21057 0.23806 0.22508 0.0
C957 C 0.24347 0.25519 0.21604 0.0
C958 C 0.21182 0.2441 0.2071 0.0
N959 N 0.24052 0.23806 0.26899 0.0
C960 C 0.24023 0.23214 0.28655 0.0
C961 C 0.20888 0.2263 0.26145 0.0
C962 C 0.22536 0.23499 0.25633 0.0
C963 C 0.20843 0.22077 0.27972 0.0
C964 C 0.22417 0.22368 0.2923 0.0
H965 H 0.20015 0.24205 0.19655 0.0
H966 H 0.18217 0.22682 0.22012 0.0
H967 H 0.18068 0.21664 0.25193 0.0
O968 O 0.26804 0.22217 0.25879 0.0
O969 O 0.24769 0.26934 0.26513 0.0
O970 O 0.2615 0.28409 0.29388 0.0
O971 O 0.26457 0.23127 0.23088 0.0
O972 O 0.28199 0.24887 0.28571 0.0
O973 O 0.27905 0.27481 0.30367 0.0
O974 O 0.27891 0.32148 0.28137 0.0
O975 O 0.31024 0.28193 0.27467 0.0
O976 O 0.29662 0.25777 0.25224 0.0
O977 O 0.29056 0.31762 0.30998 0.0
O978 O 0.2739 0.29625 0.25615 0.0
O979 O 0.2798 0.27125 0.23932 0.0
C980 C 0.2468 0.27809 0.28199 0.0
C981 C 0.28259 0.20953 0.2347 0.0
C982 C 0.30265 0.18921 0.24193 0.0
C983 C 0.31236 0.19453 0.22696 0.0
C984 C 0.29209 0.21455 0.2194 0.0
C985 C 0.30694 0.20705 0.21561 0.0
C986 C 0.28778 0.19663 0.24563 0.0
C987 C 0.28163 0.25815 0.30234 0.0
C988 C 0.26803 0.21828 0.24041 0.0
C989 C 0.19426 0.2292 0.23013 0.0
C990 C 0.19341 0.22339 0.24825 0.0
C991 C 0.31111 0.26872 0.26133 0.0
C992 C 0.2801 0.34556 0.30698 0.0
C993 C 0.26741 0.37191 0.30215 0.0
C994 C 0.27138 0.378 0.32171 0.0
C995 C 0.28432 0.35177 0.32657 0.0
C996 C 0.2719 0.35585 0.29479 0.0
C997 C 0.28 0.368 0.33386 0.0
C998 C 0.27697 0.28774 0.24012 0.0
C999 C 0.28324 0.32796 0.29934 0.0
H1000 H 0.32387 0.18877 0.22385 0.0
H1001 H 0.28835 0.22453 0.21067 0.0
H1002 H 0.31436 0.21109 0.20398 0.0
H1003 H 0.28047 0.19266 0.25741 0.0
H1004 H 0.26777 0.3904 0.32752 0.0
H1005 H 0.29066 0.34398 0.33626 0.0
H1006 H 0.26844 0.35115 0.27967 0.0
H1007 H 0.28309 0.37268 0.34898 0.0
Eu1008 Eu 0.54029 0.50106 0.02069 0.0
C1009 C 0.5164 0.57059 0.06327 0.0
N1010 N 0.5075 0.55825 0.0487 0.0
C1011 C 0.48021 0.5572 0.0629 0.0
C1012 C 0.50747 0.57656 0.07846 0.0
C1013 C 0.4896 0.55178 0.0481 0.0
C1014 C 0.4892 0.56957 0.07821 0.0
C1015 C 0.54404 0.59031 0.07778 0.0
C1016 C 0.53453 0.57728 0.063 0.0
C1017 C 0.5352 0.59621 0.09297 0.0
C1018 C 0.51699 0.58931 0.09334 0.0
Eu1019 Eu 0.52457 0.54989 0.02455 0.0
N1020 N 0.54292 0.57084 0.04847 0.0
C1021 C 0.56223 0.59688 0.07694 0.0
C1022 C 0.5604 0.57778 0.04715 0.0
C1023 C 0.57039 0.59069 0.06147 0.0
H1024 H 0.48243 0.54277 0.03602 0.0
H1025 H 0.58433 0.59602 0.06045 0.0
H1026 H 0.58254 0.50909 0.00969 0.0
H1027 H 0.47947 0.46048 0.9798 0.0
H1028 H 0.56657 0.57378 0.03486 0.0
H1029 H 0.57001 0.60687 0.08803 0.0
H1030 H 0.49741 0.47983 0.00747 0.0
H1031 H 0.46602 0.55197 0.0624 0.0
H1032 H 0.54234 0.6061 0.10452 0.0
H1033 H 0.51036 0.59401 0.10516 0.0
H1034 H 0.59917 0.501 0.98302 0.0
H1035 H 0.48187 0.5738 0.08963 0.0
H1036 H 0.49409 0.45113 0.95184 0.0
N1037 N 0.55747 0.4942 0.9961 0.0
C1038 C 0.54852 0.48291 0.98069 0.0
C1039 C 0.58492 0.49589 0.98214 0.0
C1040 C 0.55753 0.47787 0.96518 0.0
C1041 C 0.57543 0.5006 0.99714 0.0
C1042 C 0.57594 0.48451 0.96608 0.0
N1043 N 0.52167 0.48247 0.995 0.0
C1044 C 0.50383 0.47637 0.99522 0.0
C1045 C 0.52047 0.46553 0.96408 0.0
C1046 C 0.53015 0.47683 0.98014 0.0
C1047 C 0.502 0.4598 0.96392 0.0
C1048 C 0.49368 0.46514 0.97963 0.0
H1049 H 0.58334 0.48093 0.95446 0.0
H1050 H 0.55462 0.46255 0.93718 0.0
H1051 H 0.52221 0.45176 0.93622 0.0
O1052 O 0.53251 0.47739 0.03664 0.0
O1053 O 0.53363 0.51301 0.99287 0.0
O1054 O 0.51171 0.52781 0.00119 0.0
O1055 O 0.55944 0.48452 0.02852 0.0
O1056 O 0.51517 0.50326 0.03507 0.0
O1057 O 0.50244 0.52495 0.021 0.0
O1058 O 0.53193 0.57104 0.0053 0.0
O1059 O 0.53297 0.53999 0.05318 0.0
O1060 O 0.55268 0.52139 0.04592 0.0
O1061 O 0.50565 0.56625 0.01551 0.0
O1062 O 0.54991 0.54703 0.01089 0.0
O1063 O 0.56237 0.52598 0.0264 0.0
C1064 C 0.52029 0.52106 0.98809 0.0
C1065 C 0.55446 0.45812 0.04537 0.0
C1066 C 0.55042 0.43212 0.06376 0.0
C1067 C 0.56745 0.42923 0.06014 0.0
C1068 C 0.57147 0.45472 0.04214 0.0
C1069 C 0.57787 0.44046 0.04948 0.0
C1070 C 0.54387 0.44672 0.0564 0.0
C1071 C 0.50124 0.51056 0.03024 0.0
C1072 C 0.54847 0.47353 0.03684 0.0
C1073 C 0.54791 0.46655 0.94923 0.0
C1074 C 0.52945 0.46041 0.94868 0.0
C1075 C 0.54457 0.52992 0.05832 0.0
C1076 C 0.50973 0.58915 0.99401 0.0
C1077 C 0.51421 0.61511 0.97562 0.0
C1078 C 0.4956 0.61386 0.97273 0.0
C1079 C 0.49115 0.58838 0.99076 0.0
C1080 C 0.52137 0.60268 0.98633 0.0
C1081 C 0.4842 0.60062 0.98024 0.0
C1082 C 0.56379 0.54018 0.01694 0.0
C1083 C 0.51621 0.57545 0.00514 0.0
H1084 H 0.57272 0.41818 0.06564 0.0
H1085 H 0.57995 0.46309 0.03379 0.0
H1086 H 0.59098 0.43806 0.04682 0.0
H1087 H 0.53072 0.44903 0.05907 0.0
H1088 H 0.48986 0.62328 0.96464 0.0
H1089 H 0.48185 0.57817 0.99626 0.0
H1090 H 0.53572 0.60354 0.98865 0.0
H1091 H 0.46987 0.59982 0.97789 0.0
Eu1092 Eu 0.78275 0.30334 0.25992 0.0
C1093 C 0.74569 0.23056 0.30112 0.0
N1094 N 0.76222 0.24085 0.30678 0.0
C1095 C 0.75788 0.23877 0.3397 0.0
C1096 C 0.73417 0.22498 0.31473 0.0
C1097 C 0.7689 0.24376 0.32574 0.0
C1098 C 0.74029 0.22973 0.33418 0.0
C1099 C 0.72447 0.21203 0.27588 0.0
C1100 C 0.74087 0.22407 0.28185 0.0
C1101 C 0.71249 0.20758 0.28923 0.0
C1102 C 0.71732 0.21405 0.3086 0.0
Eu1103 Eu 0.77885 0.2496 0.28151 0.0
N1104 N 0.75269 0.22847 0.26915 0.0
C1105 C 0.72088 0.20425 0.25678 0.0
C1106 C 0.74973 0.22009 0.25081 0.0
C1107 C 0.73372 0.20805 0.24429 0.0
H1108 H 0.78268 0.25026 0.33017 0.0
H1109 H 0.73127 0.20177 0.22962 0.0
H1110 H 0.78253 0.29634 0.21087 0.0
H1111 H 0.82764 0.35417 0.31108 0.0
H1112 H 0.7596 0.22293 0.24116 0.0
H1113 H 0.70845 0.19493 0.25168 0.0
H1114 H 0.79999 0.33211 0.29944 0.0
H1115 H 0.76303 0.24171 0.35471 0.0
H1116 H 0.69972 0.1986 0.28484 0.0
H1117 H 0.70822 0.20989 0.31884 0.0
H1118 H 0.8041 0.30248 0.18776 0.0
H1119 H 0.73184 0.2257 0.34504 0.0
H1120 H 0.85101 0.36083 0.28962 0.0
N1121 N 0.80068 0.30985 0.23501 0.0
C1122 C 0.81651 0.32152 0.24081 0.0
C1123 C 0.80786 0.30766 0.20269 0.0
C1124 C 0.82904 0.32581 0.22778 0.0
C1125 C 0.79578 0.30391 0.21601 0.0
C1126 C 0.82471 0.31832 0.20867 0.0
N1127 N 0.80772 0.32597 0.272 0.0
C1128 C 0.81008 0.33482 0.29007 0.0
C1129 C 0.83601 0.34256 0.26567 0.0
C1130 C 0.81997 0.32998 0.25961 0.0
C1131 C 0.83884 0.35114 0.28446 0.0
C1132 C 0.82572 0.3474 0.29663 0.0
H1133 H 0.834 0.32126 0.19827 0.0
H1134 H 0.85511 0.34103 0.22425 0.0
H1135 H 0.86122 0.35559 0.25738 0.0
O1136 O 0.77261 0.3269 0.27153 0.0
O1137 O 0.80932 0.29831 0.27622 0.0
O1138 O 0.80633 0.26916 0.28648 0.0
O1139 O 0.76299 0.31384 0.24266 0.0
O1140 O 0.77778 0.28512 0.28182 0.0
O1141 O 0.77953 0.27085 0.3064 0.0
O1142 O 0.78761 0.22601 0.26778 0.0
O1143 O 0.75377 0.25606 0.26319 0.0
O1144 O 0.75637 0.28725 0.26798 0.0
O1145 O 0.7976 0.23642 0.29708 0.0
O1146 O 0.79 0.2651 0.25838 0.0
O1147 O 0.77758 0.27992 0.23675 0.0
C1148 C 0.81588 0.2853 0.28449 0.0
C1149 C 0.7612 0.34448 0.24884 0.0
C1150 C 0.74848 0.37168 0.25058 0.0
C1151 C 0.75601 0.37623 0.23396 0.0
C1152 C 0.76878 0.34932 0.23235 0.0
C1153 C 0.76607 0.36509 0.22491 0.0
C1154 C 0.75101 0.35568 0.2579 0.0
C1155 C 0.77904 0.28618 0.30027 0.0
C1156 C 0.7623 0.32704 0.2557 0.0
C1157 C 0.84528 0.33781 0.23403 0.0
C1158 C 0.84874 0.34617 0.25289 0.0
C1159 C 0.74696 0.27095 0.26131 0.0
C1160 C 0.79675 0.20575 0.2885 0.0
C1161 C 0.80966 0.17879 0.2886 0.0
C1162 C 0.79778 0.17217 0.30129 0.0
C1163 C 0.78488 0.199 0.30116 0.0
C1164 C 0.80917 0.19564 0.28229 0.0
C1165 C 0.78549 0.18228 0.30757 0.0
C1166 C 0.78193 0.26491 0.24126 0.0
C1167 C 0.79757 0.22397 0.28311 0.0
H1168 H 0.75393 0.38833 0.22785 0.0
H1169 H 0.77649 0.34075 0.22501 0.0
H1170 H 0.77167 0.36862 0.21201 0.0
H1171 H 0.74502 0.35191 0.27055 0.0
H1172 H 0.79814 0.15924 0.30642 0.0
H1173 H 0.77542 0.20678 0.30634 0.0
H1174 H 0.81849 0.2009 0.27267 0.0
H1175 H 0.77649 0.17721 0.31752 0.0
Eu1176 Eu 0.03065 0.54106 0.49817 0.0
C1177 C 0.06085 0.49652 0.57135 0.0
N1178 N 0.04882 0.49069 0.55551 0.0
C1179 C 0.0595 0.4629 0.55168 0.0
C1180 C 0.07311 0.48587 0.57759 0.0
C1181 C 0.04769 0.47395 0.54598 0.0
C1182 C 0.07239 0.46895 0.56744 0.0
C1183 C 0.07337 0.51967 0.59776 0.0
C1184 C 0.06088 0.51319 0.58142 0.0
C1185 C 0.08576 0.50922 0.60381 0.0
C1186 C 0.08561 0.49236 0.59378 0.0
Eu1187 Eu 0.02944 0.5103 0.54682 0.0
N1188 N 0.049 0.52325 0.57494 0.0
C1189 C 0.07307 0.53651 0.60755 0.0
C1190 C 0.04822 0.53934 0.58496 0.0
C1191 C 0.06034 0.54629 0.60121 0.0
H1192 H 0.03734 0.46888 0.53433 0.0
H1193 H 0.05976 0.55917 0.60891 0.0
H1194 H 0.02682 0.58347 0.51046 0.0
H1195 H 0.98932 0.48981 0.44342 0.0
H1196 H 0.03825 0.54691 0.58077 0.0
H1197 H 0.08246 0.54196 0.62013 0.0
H1198 H 0.01301 0.50117 0.46957 0.0
H1199 H 0.05854 0.44965 0.544 0.0
H1200 H 0.09548 0.51403 0.61628 0.0
H1201 H 0.09518 0.4844 0.59869 0.0
H1202 H 0.00828 0.60512 0.50042 0.0
H1203 H 0.08154 0.46035 0.57182 0.0
H1204 H 0.97 0.5099 0.43106 0.0
N1205 N 0.01313 0.56214 0.48963 0.0
C1206 C 1.00003 0.55676 0.47476 0.0
C1207 C 1.00577 0.59155 0.49311 0.0
C1208 C 0.98908 0.56867 0.46855 0.0
C1209 C 0.01618 0.57923 0.49884 0.0
C1210 C 0.99214 0.58625 0.4779 0.0
N1211 N 0.00796 0.52798 0.47252 0.0
C1212 C 1.00509 0.5104 0.46457 0.0
C1213 C 0.98338 0.53305 0.45086 0.0
C1214 C 0.99733 0.53919 0.46597 0.0
C1215 C 0.98059 0.51513 0.44264 0.0
C1216 C 0.99146 0.50376 0.44958 0.0
H1217 H 0.98405 0.5958 0.47353 0.0
H1218 H 0.96686 0.57161 0.44839 0.0
H1219 H 0.9618 0.54039 0.43296 0.0
O1220 O 0.05037 0.54047 0.47839 0.0
O1221 O 1.00335 0.53424 0.50722 0.0
O1222 O 0.01211 0.51059 0.51908 0.0
O1223 O 0.04991 0.56552 0.49572 0.0
O1224 O 0.03734 0.51267 0.49256 0.0
O1225 O 0.03115 0.49426 0.51735 0.0
O1226 O 0.00761 0.51093 0.56419 0.0
O1227 O 0.05804 0.52416 0.54611 0.0
O1228 O 0.04179 0.53019 0.52246 0.0
O1229 O 0.01479 0.48541 0.55511 0.0
O1230 O 0.02208 0.53885 0.55011 0.0
O1231 O 0.0343 0.55749 0.52786 0.0
C1232 C 1.00008 0.52072 0.5172 0.0
C1233 C 0.05668 0.56686 0.46382 0.0
C1234 C 0.06318 0.56582 0.43086 0.0
C1235 C 0.05826 0.58271 0.42977 0.0
C1236 C 0.05184 0.58373 0.46267 0.0
C1237 C 0.05253 0.59153 0.44561 0.0
C1238 C 0.062 0.55795 0.44783 0.0
C1239 C 0.03562 0.49691 0.49981 0.0
C1240 C 0.05612 0.55787 0.48122 0.0
C1241 C 0.97539 0.56266 0.45335 0.0
C1242 C 0.97253 0.54489 0.44456 0.0
C1243 C 0.05774 0.5322 0.53108 0.0
C1244 C 1.00599 0.48964 0.58606 0.0
C1245 C 0.99524 0.49444 0.61695 0.0
C1246 C 0.00704 0.48407 0.62467 0.0
C1247 C 0.0178 0.47933 0.59388 0.0
C1248 C 0.99479 0.49707 0.59763 0.0
C1249 C 0.01823 0.47653 0.61313 0.0
C1250 C 0.02711 0.55494 0.54404 0.0
C1251 C 1.00571 0.49386 0.56628 0.0
H1252 H 0.05934 0.58933 0.41694 0.0
H1253 H 0.04754 0.59087 0.47484 0.0
H1254 H 0.04888 0.60458 0.44474 0.0
H1255 H 0.06535 0.54475 0.44867 0.0
H1256 H 0.0075 0.48167 0.63953 0.0
H1257 H 0.02677 0.47359 0.58525 0.0
H1258 H 0.98602 0.50537 0.59162 0.0
H1259 H 0.02731 0.46858 0.61913 0.0
Eu1260 Eu 0.80755 0.7685 0.27747 0.0
C1261 C 0.74071 0.78899 0.23253 0.0
N1262 N 0.7514 0.79812 0.24825 0.0
C1263 C 0.75287 0.82581 0.23436 0.0
C1264 C 0.73631 0.79796 0.21669 0.0
C1265 C 0.75695 0.81635 0.24967 0.0
C1266 C 0.74267 0.81655 0.21771 0.0
C1267 C 0.72345 0.76074 0.2159 0.0
C1268 C 0.73423 0.77056 0.2322 0.0
C1269 C 0.7193 0.76961 0.20001 0.0
C1270 C 0.72566 0.78815 0.20043 0.0
Eu1271 Eu 0.75726 0.78085 0.27323 0.0
N1272 N 0.7387 0.7622 0.24767 0.0
C1273 C 0.71717 0.74227 0.21605 0.0
C1274 C 0.73209 0.74438 0.24817 0.0
C1275 C 0.72139 0.7341 0.23231 0.0
H1276 H 0.76424 0.82377 0.26269 0.0
H1277 H 0.7163 0.7199 0.23269 0.0
H1278 H 0.80153 0.72428 0.28506 0.0
H1279 H 0.85216 0.82631 0.31908 0.0
H1280 H 0.73478 0.73812 0.26086 0.0
H1281 H 0.70887 0.73426 0.2038 0.0
H1282 H 0.83236 0.8095 0.29076 0.0
H1283 H 0.75747 0.84025 0.23547 0.0
H1284 H 0.71108 0.76226 0.18735 0.0
H1285 H 0.72222 0.79481 0.1881 0.0
H1286 H 0.80717 0.70661 0.31152 0.0
H1287 H 0.73954 0.82392 0.20586 0.0
H1288 H 0.85799 0.81097 0.3477 0.0
N1289 N 0.81314 0.74963 0.30122 0.0
C1290 C 0.82328 0.75808 0.3176 0.0
C1291 C 0.81154 0.7211 0.31352 0.0
C1292 C 0.82737 0.74832 0.3329 0.0
C1293 C 0.80805 0.73127 0.29865 0.0
C1294 C 0.82101 0.72969 0.33083 0.0
N1295 N 0.82643 0.78547 0.3038 0.0
C1296 C 0.83473 0.8029 0.30333 0.0
C1297 C 0.84167 0.78536 0.33517 0.0
C1298 C 0.83038 0.77641 0.31879 0.0
C1299 C 0.84925 0.80362 0.33537 0.0
C1300 C 0.84597 0.81235 0.31926 0.0
H1301 H 0.82385 0.72173 0.34226 0.0
H1302 H 0.84121 0.75008 0.36147 0.0
H1303 H 0.85372 0.78248 0.36345 0.0
O1304 O 0.82614 0.77824 0.25728 0.0
O1305 O 0.80001 0.78644 0.30196 0.0
O1306 O 0.77018 0.77512 0.30153 0.0
O1307 O 0.83054 0.75603 0.27253 0.0
O1308 O 0.80127 0.79249 0.26324 0.0
O1309 O 0.78084 0.80447 0.2796 0.0
O1310 O 0.72947 0.77516 0.2809 0.0
O1311 O 0.77035 0.77437 0.24592 0.0
O1312 O 0.78742 0.75331 0.25322 0.0
O1313 O 0.74617 0.80207 0.2879 0.0
O1314 O 0.75965 0.75475 0.28563 0.0
O1315 O 0.78391 0.74453 0.27368 0.0
C1316 C 0.78544 0.78406 0.31047 0.0
C1317 C 0.84261 0.75777 0.24308 0.0
C1318 C 0.86581 0.75637 0.22171 0.0
C1319 C 0.85533 0.74042 0.21184 0.0
C1320 C 0.8324 0.74184 0.23294 0.0
C1321 C 0.83878 0.73321 0.21745 0.0
C1322 C 0.85942 0.76501 0.23746 0.0
C1323 C 0.79564 0.80643 0.27128 0.0
C1324 C 0.83625 0.76644 0.26001 0.0
C1325 C 0.83806 0.75734 0.34954 0.0
C1326 C 0.84522 0.7758 0.35066 0.0
C1327 C 0.77789 0.76057 0.24075 0.0
C1328 C 0.71609 0.79888 0.2972 0.0
C1329 C 0.68944 0.79601 0.31434 0.0
C1330 C 0.68902 0.8142 0.31271 0.0
C1331 C 0.71527 0.81707 0.296 0.0
C1332 C 0.70303 0.78825 0.30645 0.0
C1333 C 0.70182 0.82461 0.30364 0.0
C1334 C 0.76871 0.74196 0.28143 0.0
C1335 C 0.73079 0.79165 0.28878 0.0
H1336 H 0.86003 0.73348 0.1998 0.0
H1337 H 0.81959 0.73598 0.23714 0.0
H1338 H 0.83089 0.72084 0.20979 0.0
H1339 H 0.86744 0.77727 0.24526 0.0
H1340 H 0.67876 0.82041 0.31863 0.0
H1341 H 0.72501 0.8255 0.28899 0.0
H1342 H 0.70352 0.77423 0.30764 0.0
H1343 H 0.70134 0.83863 0.30255 0.0
Eu1344 Eu 0.765 0.27618 0.79891 0.0
C1345 C 0.80828 0.24623 0.72564 0.0
N1346 N 0.8138 0.25796 0.74183 0.0
C1347 C 0.84008 0.24527 0.74749 0.0
C1348 C 0.81833 0.23316 0.72008 0.0
C1349 C 0.82966 0.25793 0.7525 0.0
C1350 C 0.83433 0.23273 0.73131 0.0
C1351 C 0.78616 0.23488 0.69808 0.0
C1352 C 0.79233 0.24708 0.71475 0.0
C1353 C 0.79608 0.22178 0.69262 0.0
C1354 C 0.81211 0.22092 0.70358 0.0
Eu1355 Eu 0.79498 0.27849 0.74932 0.0
N1356 N 0.78269 0.25957 0.72069 0.0
C1357 C 0.77017 0.2362 0.68736 0.0
C1358 C 0.76753 0.26142 0.70978 0.0
C1359 C 0.76092 0.24965 0.69314 0.0
H1360 H 0.83454 0.26782 0.76471 0.0
H1361 H 0.74876 0.25104 0.6847 0.0
H1362 H 0.72585 0.28718 0.78587 0.0
H1363 H 0.81494 0.30483 0.86071 0.0
H1364 H 0.76053 0.2721 0.71353 0.0
H1365 H 0.76498 0.22708 0.67447 0.0
H1366 H 0.80069 0.28237 0.83403 0.0
H1367 H 0.85259 0.24524 0.75608 0.0
H1368 H 0.79148 0.21226 0.67991 0.0
H1369 H 0.81961 0.21074 0.69916 0.0
H1370 H 0.70856 0.31056 0.79494 0.0
H1371 H 0.84242 0.2229 0.72751 0.0
H1372 H 0.80084 0.33065 0.87012 0.0
N1373 N 0.74758 0.29759 0.80746 0.0
C1374 C 0.75442 0.3102 0.82254 0.0
C1375 C 0.72147 0.31065 0.80278 0.0
C1376 C 0.7451 0.32388 0.82814 0.0
C1377 C 0.73129 0.29746 0.79766 0.0
C1378 C 0.72844 0.32399 0.81803 0.0
N1379 N 0.77934 0.29593 0.82656 0.0
C1380 C 0.79465 0.29385 0.83709 0.0
C1381 C 0.77836 0.32244 0.84799 0.0
C1382 C 0.77087 0.30948 0.83224 0.0
C1383 C 0.79463 0.32096 0.85798 0.0
C1384 C 0.80266 0.30646 0.85266 0.0
H1385 H 0.72085 0.33424 0.82192 0.0
H1386 H 0.74578 0.34766 0.84801 0.0
H1387 H 0.77491 0.3464 0.86541 0.0
O1388 O 0.7639 0.25454 0.81696 0.0
O1389 O 0.77069 0.30377 0.78945 0.0
O1390 O 0.79399 0.29555 0.77698 0.0
O1391 O 0.73938 0.25931 0.80223 0.0
O1392 O 0.7933 0.26894 0.8027 0.0
O1393 O 0.81119 0.27952 0.77907 0.0
O1394 O 0.79489 0.30045 0.73179 0.0
O1395 O 0.78317 0.24935 0.75134 0.0
O1396 O 0.77533 0.26555 0.77398 0.0
O1397 O 0.81997 0.29291 0.74134 0.0
O1398 O 0.76596 0.28423 0.74603 0.0
O1399 O 0.74818 0.27234 0.7693 0.0
C1400 C 0.78364 0.30731 0.77893 0.0
C1401 C 0.73914 0.25155 0.83386 0.0
C1402 C 0.73977 0.24182 0.86563 0.0
C1403 C 0.72939 0.25454 0.87103 0.0
C1404 C 0.72878 0.26425 0.83941 0.0
C1405 C 0.72387 0.26562 0.85791 0.0
C1406 C 0.74444 0.24034 0.84697 0.0
C1407 C 0.80899 0.27291 0.79573 0.0
C1408 C 0.74651 0.25117 0.81549 0.0
C1409 C 0.75268 0.33698 0.84356 0.0
C1410 C 0.76929 0.33628 0.85343 0.0
C1411 C 0.77476 0.24949 0.76606 0.0
C1412 C 0.81704 0.30284 0.71069 0.0
C1413 C 0.81203 0.31247 0.67912 0.0
C1414 C 0.82703 0.30573 0.67388 0.0
C1415 C 0.83209 0.29626 0.70533 0.0
C1416 C 0.80702 0.31071 0.69745 0.0
C1417 C 0.83695 0.29762 0.68694 0.0
C1418 C 0.75031 0.27913 0.75276 0.0
C1419 C 0.81194 0.30234 0.73015 0.0
H1420 H 0.72546 0.25585 0.88532 0.0
H1421 H 0.72481 0.27333 0.82966 0.0
H1422 H 0.71595 0.27545 0.86217 0.0
H1423 H 0.75291 0.23096 0.84281 0.0
H1424 H 0.83142 0.30722 0.65993 0.0
H1425 H 0.84017 0.29021 0.71532 0.0
H1426 H 0.79538 0.31577 0.70153 0.0
H1427 H 0.84863 0.29268 0.68291 0.0
Eu1428 Eu 0.76924 0.75091 0.75708 0.0
C1429 C 0.83243 0.80587 0.80139 0.0
N1430 N 0.81638 0.79795 0.80646 0.0
C1431 C 0.83089 0.79371 0.8369 0.0
C1432 C 0.84841 0.80745 0.81378 0.0
C1433 C 0.81538 0.79274 0.82433 0.0
C1434 C 0.84751 0.80088 0.83152 0.0
C1435 C 0.84906 0.82269 0.77918 0.0
C1436 C 0.83282 0.81347 0.78429 0.0
C1437 C 0.86502 0.82376 0.79122 0.0
C1438 C 0.8647 0.81615 0.80845 0.0
Eu1439 Eu 0.79102 0.79837 0.78441 0.0
N1440 N 0.81722 0.81218 0.7728 0.0
C1441 C 0.84873 0.83088 0.76227 0.0
C1442 C 0.81667 0.82083 0.75679 0.0
C1443 C 0.83243 0.83007 0.75111 0.0
H1444 H 0.80267 0.78854 0.82941 0.0
H1445 H 0.83197 0.83669 0.73825 0.0
H1446 H 0.75306 0.76323 0.71551 0.0
H1447 H 0.73505 0.70891 0.80623 0.0
H1448 H 0.80404 0.82068 0.74851 0.0
H1449 H 0.86092 0.83812 0.75788 0.0
H1450 H 0.76092 0.72599 0.79381 0.0
H1451 H 0.82997 0.78938 0.85095 0.0
H1452 H 0.87763 0.83073 0.7875 0.0
H1453 H 0.87708 0.81744 0.8178 0.0
H1454 H 0.72432 0.75917 0.69525 0.0
H1455 H 0.85947 0.80191 0.84145 0.0
H1456 H 0.70489 0.70501 0.78841 0.0
N1457 N 0.74211 0.74954 0.7377 0.0
C1458 C 0.72749 0.73909 0.74311 0.0
C1459 C 0.72495 0.75371 0.70882 0.0
C1460 C 0.71076 0.73616 0.73176 0.0
C1461 C 0.74121 0.75632 0.72055 0.0
C1462 C 0.70962 0.7437 0.7145 0.0
N1463 N 0.74559 0.73397 0.77064 0.0
C1464 C 0.74783 0.72555 0.78662 0.0
C1465 C 0.71407 0.72087 0.76623 0.0
C1466 C 0.7292 0.73139 0.76016 0.0
C1467 C 0.71619 0.71312 0.78325 0.0
C1468 C 0.73317 0.71537 0.7934 0.0
H1469 H 0.69704 0.74164 0.70533 0.0
H1470 H 0.68281 0.72334 0.7293 0.0
H1471 H 0.68566 0.71011 0.75952 0.0
O1472 O 0.766 0.72192 0.75003 0.0
O1473 O 0.7491 0.76909 0.7656 0.0
O1474 O 0.76309 0.78766 0.79257 0.0
O1475 O 0.77508 0.73966 0.72941 0.0
O1476 O 0.7836 0.75011 0.78669 0.0
O1477 O 0.78066 0.77696 0.80303 0.0
O1478 O 0.78389 0.82401 0.77945 0.0
O1479 O 0.80816 0.78476 0.7645 0.0
O1480 O 0.79956 0.75473 0.76661 0.0
O1481 O 0.79572 0.8205 0.80757 0.0
O1482 O 0.77414 0.7978 0.75603 0.0
O1483 O 0.77995 0.77269 0.73935 0.0
C1484 C 0.74832 0.77944 0.7816 0.0
C1485 C 0.78724 0.71339 0.73072 0.0
C1486 C 0.8053 0.69199 0.74058 0.0
C1487 C 0.8161 0.69595 0.72606 0.0
C1488 C 0.7979 0.71703 0.71595 0.0
C1489 C 0.81229 0.70834 0.71369 0.0
C1490 C 0.79087 0.7006 0.74279 0.0
C1491 C 0.7826 0.76008 0.80271 0.0
C1492 C 0.7727 0.72323 0.73388 0.0
C1493 C 0.69575 0.72572 0.73784 0.0
C1494 C 0.69738 0.71818 0.75506 0.0
C1495 C 0.81176 0.76838 0.76326 0.0
C1496 C 0.77505 0.84023 0.80553 0.0
C1497 C 0.75495 0.86129 0.80168 0.0
C1498 C 0.75037 0.85932 0.82023 0.0
C1499 C 0.77047 0.83834 0.82407 0.0
C1500 C 0.76716 0.85157 0.79446 0.0
C1501 C 0.75809 0.84784 0.83132 0.0
C1502 C 0.77657 0.78902 0.73991 0.0
C1503 C 0.78819 0.83094 0.79724 0.0
H1504 H 0.8272 0.68917 0.72406 0.0
H1505 H 0.79523 0.72669 0.70628 0.0
H1506 H 0.82049 0.71121 0.70234 0.0
H1507 H 0.78268 0.69744 0.75413 0.0
H1508 H 0.74114 0.86689 0.8263 0.0
H1509 H 0.77642 0.82962 0.83293 0.0
H1510 H 0.77057 0.85279 0.78006 0.0
H1511 H 0.75461 0.84645 0.84563 0.0
Eu1512 Eu 0.55234 0.53696 0.53695 0.0
C1513 C 0.49695 0.47302 0.48835 0.0
N1514 N 0.50505 0.48964 0.48466 0.0
C1515 C 0.5103 0.47711 0.45374 0.0
C1516 C 0.4959 0.45768 0.47499 0.0
C1517 C 0.51097 0.49194 0.46731 0.0
C1518 C 0.50297 0.45988 0.4577 0.0
C1519 C 0.48016 0.45434 0.50901 0.0
C1520 C 0.48912 0.47135 0.50524 0.0
C1521 C 0.47964 0.43903 0.496 0.0
C1522 C 0.48747 0.44069 0.47906 0.0
Eu1523 Eu 0.50559 0.51351 0.50899 0.0
N1524 N 0.48984 0.48634 0.51773 0.0
C1525 C 0.47164 0.45322 0.52559 0.0
C1526 C 0.48043 0.48546 0.53318 0.0
C1527 C 0.47155 0.4689 0.53756 0.0
H1528 H 0.51567 0.50518 0.4635 0.0
H1529 H 0.46441 0.46828 0.55002 0.0
H1530 H 0.54668 0.5488 0.58307 0.0
H1531 H 0.59417 0.57449 0.49055 0.0
H1532 H 0.47936 0.49752 0.54204 0.0
H1533 H 0.46463 0.4404 0.52896 0.0
H1534 H 0.57597 0.54768 0.50092 0.0
H1535 H 0.51518 0.47903 0.4401 0.0
H1536 H 0.47291 0.42586 0.49875 0.0
H1537 H 0.48664 0.42878 0.46899 0.0
H1538 H 0.55342 0.57602 0.60659 0.0
H1539 H 0.50235 0.44843 0.44707 0.0
H1540 H 0.59996 0.60363 0.51122 0.0
N1541 N 0.55783 0.56223 0.56072 0.0
C1542 C 0.56754 0.57764 0.55594 0.0
C1543 C 0.55726 0.57674 0.59232 0.0
C1544 C 0.57196 0.59344 0.56909 0.0
C1545 C 0.55327 0.56141 0.57888 0.0
C1546 C 0.56646 0.59289 0.58734 0.0
N1547 N 0.57039 0.56174 0.52628 0.0
C1548 C 0.57796 0.56041 0.50966 0.0
C1549 C 0.58472 0.59297 0.53319 0.0
C1550 C 0.57399 0.57739 0.53825 0.0
C1551 C 0.5917 0.59195 0.51563 0.0
C1552 C 0.58845 0.57554 0.50391 0.0
H1553 H 0.56968 0.60472 0.59785 0.0
H1554 H 0.58564 0.62138 0.57375 0.0
H1555 H 0.59668 0.621 0.54227 0.0
O1556 O 0.5783 0.5294 0.53449 0.0
O1557 O 0.54168 0.55553 0.51701 0.0
O1558 O 0.51106 0.54506 0.51367 0.0
O1559 O 0.56875 0.53325 0.56267 0.0
O1560 O 0.55086 0.52038 0.50792 0.0
O1561 O 0.52605 0.52653 0.49132 0.0
O1562 O 0.47937 0.51916 0.51356 0.0
O1563 O 0.52429 0.49394 0.51693 0.0
O1564 O 0.54022 0.50894 0.5448 0.0
O1565 O 0.48522 0.51191 0.48477 0.0
O1566 O 0.50767 0.516 0.54115 0.0
O1567 O 0.52794 0.54203 0.55098 0.0
C1568 C 0.52517 0.55805 0.51296 0.0
C1569 C 0.59784 0.52523 0.56221 0.0
C1570 C 0.62399 0.51173 0.55984 0.0
C1571 C 0.62869 0.51586 0.57971 0.0
C1572 C 0.60258 0.52934 0.58204 0.0
C1573 C 0.61801 0.52467 0.59073 0.0
C1574 C 0.60859 0.5165 0.55119 0.0
C1575 C 0.54252 0.52387 0.49197 0.0
C1576 C 0.58143 0.52942 0.55298 0.0
C1577 C 0.5822 0.60911 0.56387 0.0
C1578 C 0.58852 0.60889 0.54595 0.0
C1579 C 0.53397 0.49376 0.53345 0.0
C1580 C 0.46561 0.53243 0.48892 0.0
C1581 C 0.44505 0.55282 0.49444 0.0
C1582 C 0.4492 0.56051 0.47775 0.0
C1583 C 0.46967 0.54021 0.47226 0.0
C1584 C 0.45332 0.5388 0.49988 0.0
C1585 C 0.46145 0.55419 0.46675 0.0
C1586 C 0.51441 0.5298 0.55389 0.0
C1587 C 0.47394 0.51773 0.49531 0.0
H1588 H 0.64071 0.51247 0.58665 0.0
H1589 H 0.59438 0.53611 0.5908 0.0
H1590 H 0.62169 0.52789 0.60601 0.0
H1591 H 0.60478 0.51303 0.53592 0.0
H1592 H 0.4428 0.5712 0.47309 0.0
H1593 H 0.47915 0.53554 0.46352 0.0
H1594 H 0.45035 0.53294 0.51285 0.0
H1595 H 0.46454 0.5601 0.45387 0.0
Eu1596 Eu 1.00464 0.52179 0.03612 0.0
C1597 C 0.07049 0.56354 0.99944 0.0
N1598 N 0.05848 0.54816 0.99272 0.0
C1599 C 0.05646 0.55739 0.96126 0.0
C1600 C 0.0756 0.57671 0.98727 0.0
C1601 C 0.05184 0.54468 0.97383 0.0
C1602 C 0.06828 0.57353 0.96803 0.0
C1603 C 0.09033 0.58189 0.0259 0.0
C1604 C 0.07783 0.56611 0.01857 0.0
C1605 C 0.09528 0.5951 0.01383 0.0
C1606 C 0.08794 0.59252 0.99459 0.0
Eu1607 Eu 0.05216 0.52761 0.01518 0.0
N1608 N 0.07242 0.55335 0.03011 0.0
C1609 C 0.09749 0.58389 0.04516 0.0
C1610 C 0.07993 0.55479 0.04858 0.0
C1611 C 0.0924 0.5702 0.0565 0.0
H1612 H 0.04333 0.53193 0.96826 0.0
H1613 H 0.09821 0.57141 0.07126 0.0
H1614 H 0.01263 0.51652 0.08294 0.0
H1615 H 0.9659 0.47562 0.97647 0.0
H1616 H 0.07658 0.54393 0.05704 0.0
H1617 H 0.10716 0.59581 0.05133 0.0
H1618 H 0.98493 0.50413 0.99205 0.0
H1619 H 0.05106 0.55462 0.94632 0.0
H1620 H 0.10483 0.60734 0.01923 0.0
H1621 H 0.09198 0.6028 0.98545 0.0
H1622 H 1.00482 0.49294 0.10392 0.0
H1623 H 0.07189 0.58331 0.95822 0.0
H1624 H 0.95657 0.45084 0.99576 0.0
N1625 N 0.99857 0.50051 0.05778 0.0
C1626 C 0.98755 0.48472 0.05016 0.0
C1627 C 1.0 0.49043 0.08882 0.0
C1628 C 0.9826 0.47098 0.06174 0.0
C1629 C 1.00459 0.50368 0.07683 0.0
C1630 C 0.98901 0.474 0.08125 0.0
N1631 N 0.98708 0.49517 0.01946 0.0
C1632 C 0.98127 0.49326 0.00042 0.0
C1633 C 0.97049 0.46562 0.02234 0.0
C1634 C 0.98148 0.48205 0.03058 0.0
C1635 C 0.96499 0.46329 0.00262 0.0
C1636 C 0.97032 0.47721 0.99165 0.0
H1637 H 0.9855 0.46377 0.0906 0.0
H1638 H 0.96763 0.44397 0.06222 0.0
H1639 H 0.95709 0.43927 0.02782 0.0
O1640 O 0.98074 0.53183 0.02576 0.0
O1641 O 0.01595 0.49589 0.02788 0.0
O1642 O 0.03265 0.50165 0.00312 0.0
O1643 O 0.98515 0.52709 0.05532 0.0
O1644 O 0.00893 0.53571 0.00976 0.0
O1645 O 0.02749 0.52039 0.99433 0.0
O1646 O 0.07459 0.51394 0.02427 0.0
O1647 O 0.04356 0.55448 0.02564 0.0
O1648 O 0.02188 0.5497 0.0465 0.0
O1649 O 0.06927 0.51985 0.99481 0.0
O1650 O 0.04703 0.51566 0.04251 0.0
O1651 O 0.02837 0.53078 0.05824 0.0
C1652 C 0.02355 0.49015 0.01304 0.0
C1653 C 0.9701 0.55073 0.04877 0.0
C1654 C 0.94892 0.57111 0.04684 0.0
C1655 C 0.96041 0.58361 0.06057 0.0
C1656 C 0.98131 0.56334 0.06267 0.0
C1657 C 0.9765 0.5797 0.06848 0.0
C1658 C 0.95377 0.55461 0.04094 0.0
C1659 C 0.0148 0.52976 0.99411 0.0
C1660 C 0.97528 0.53348 0.04262 0.0
C1661 C 0.97154 0.45467 0.05353 0.0
C1662 C 0.96551 0.452 0.03392 0.0
C1663 C 0.03375 0.56056 0.03838 0.0
C1664 C 0.0944 0.50527 0.00059 0.0
C1665 C 0.1186 0.48854 0.00539 0.0
C1666 C 0.12216 0.49019 0.9865 0.0
C1667 C 0.09837 0.50676 0.98172 0.0
C1668 C 0.1047 0.49615 0.01255 0.0
C1669 C 0.11213 0.49928 0.97479 0.0
C1670 C 0.04279 0.52385 0.05805 0.0
C1671 C 0.07923 0.51304 0.00695 0.0
H1672 H 0.95681 0.59634 0.06533 0.0
H1673 H 0.99372 0.56045 0.06916 0.0
H1674 H 0.98522 0.58934 0.0792 0.0
H1675 H 0.94493 0.54491 0.03032 0.0
H1676 H 0.13278 0.4844 0.98082 0.0
H1677 H 0.09079 0.51368 0.97216 0.0
H1678 H 0.10186 0.4948 0.02709 0.0
H1679 H 0.11499 0.50049 0.96024 0.0
C1680 C 0.99427 0.20913 0.9721 0.0
C1681 C 1.00497 0.21825 0.95957 0.0
C1682 C 0.99652 0.19212 0.97724 0.0
C1683 C 0.02059 0.15286 0.96571 0.0
H1684 H 1.0035 0.13853 0.01273 0.0
C1685 C 0.03595 0.08809 0.99919 0.0
C1686 C 0.02217 0.07729 0.00717 0.0
C1687 C 0.034 0.10486 0.99298 0.0
C1688 C 0.00824 0.14213 0.99944 0.0
H1689 H 0.0267 0.21586 0.94268 0.0
H1690 H 0.03115 0.18663 0.95207 0.0
H1691 H 1.00072 0.16789 0.0034 0.0
H1692 H 0.99516 0.07617 0.01434 0.0
H1693 H 0.99185 0.10544 0.00393 0.0
H1694 H 0.02883 0.12713 0.96244 0.0
C1695 C 0.02055 0.19242 0.9577 0.0
C1696 C 1.00653 0.15919 0.99387 0.0
C1697 C 0.01807 0.20944 0.95228 0.0
C1698 C 1.00621 0.08396 0.00848 0.0
C1699 C 1.00434 0.1009 0.00253 0.0
C1700 C 0.02261 0.1359 0.97151 0.0
C1701 C 0.00987 0.18333 0.97045 0.0
C1702 C 0.01243 0.16499 0.97671 0.0
C1703 C 0.01821 0.11174 0.99465 0.0
C1704 C 0.0163 0.13008 0.98841 0.0
H1705 H 0.98388 0.21513 0.97799 0.0
H1706 H 0.98745 0.18587 0.9865 0.0
H1707 H 0.02523 0.15622 0.95232 0.0
H1708 H 0.0483 0.08348 0.99745 0.0
H1709 H 0.04509 0.11259 0.98712 0.0
C1710 C 0.11068 0.79823 0.15529 0.0
C1711 C 0.11067 0.79395 0.13546 0.0
C1712 C 0.12546 0.79689 0.16841 0.0
C1713 C 0.1736 0.78819 0.17005 0.0
H1714 H 0.16872 0.78585 0.22374 0.0
C1715 C 0.22964 0.76994 0.22251 0.0
C1716 C 0.2339 0.77991 0.24073 0.0
C1717 C 0.21453 0.77162 0.21022 0.0
C1718 C 0.1704 0.78656 0.20879 0.0
H1719 H 0.12622 0.78413 0.11421 0.0
H1720 H 0.15092 0.78066 0.13651 0.0
H1721 H 0.14301 0.78846 0.20186 0.0
H1722 H 0.22523 0.79937 0.26029 0.0
H1723 H 0.19868 0.80205 0.23914 0.0
H1724 H 0.20089 0.78558 0.17711 0.0
C1725 C 0.14022 0.78608 0.14234 0.0
C1726 C 0.15551 0.78819 0.19604 0.0
C1727 C 0.12574 0.78791 0.12929 0.0
C1728 C 0.22228 0.79128 0.2465 0.0
C1729 C 0.20704 0.79286 0.23428 0.0
C1730 C 0.1883 0.78614 0.18271 0.0
C1731 C 0.14064 0.79072 0.16227 0.0
C1732 C 0.1567 0.78905 0.17628 0.0
C1733 C 0.20298 0.7832 0.21581 0.0
C1734 C 0.18703 0.78532 0.20233 0.0
H1735 H 0.09935 0.80289 0.16069 0.0
H1736 H 0.12487 0.80094 0.18336 0.0
H1737 H 0.17584 0.78936 0.15536 0.0
H1738 H 0.23782 0.76054 0.21784 0.0
H1739 H 0.21177 0.76363 0.19635 0.0
C1740 C 0.51344 0.8316 0.44236 0.0
C1741 C 0.50971 0.81747 0.45378 0.0
C1742 C 0.51425 0.84973 0.44954 0.0
C1743 C 0.51695 0.88142 0.49541 0.0
H1744 H 0.50621 0.91442 0.45944 0.0
C1745 C 0.51417 0.95782 0.5193 0.0
C1746 C 0.52127 0.97076 0.50763 0.0
C1747 C 0.51215 0.93909 0.51351 0.0
C1748 C 0.50946 0.90554 0.46978 0.0
H1749 H 0.50383 0.81192 0.48214 0.0
H1750 H 0.50473 0.84346 0.49461 0.0
H1751 H 0.50351 0.88269 0.44837 0.0
H1752 H 0.53162 0.97352 0.48042 0.0
H1753 H 0.52803 0.94135 0.4704 0.0
H1754 H 0.52249 0.90453 0.51689 0.0
C1755 C 0.50739 0.84055 0.48001 0.0
C1756 C 0.50797 0.88708 0.46335 0.0
C1757 C 0.50672 0.82228 0.4728 0.0
C1758 C 0.52609 0.9642 0.48991 0.0
C1759 C 0.52391 0.94555 0.48406 0.0
C1760 C 0.51825 0.89994 0.50189 0.0
C1761 C 0.51115 0.85474 0.4685 0.0
C1762 C 0.51194 0.87456 0.47591 0.0
C1763 C 0.51694 0.93255 0.49571 0.0
C1764 C 0.51476 0.91244 0.48915 0.0
H1765 H 0.516 0.8287 0.42771 0.0
H1766 H 0.51767 0.85987 0.44009 0.0
H1767 H 0.52033 0.8726 0.50574 0.0
H1768 H 0.51035 0.96215 0.53308 0.0
H1769 H 0.5066 0.92971 0.52293 0.0
C1770 C 0.51051 0.27731 0.65836 0.0
C1771 C 0.50972 0.28234 0.63972 0.0
C1772 C 0.49546 0.2758 0.66835 0.0
C1773 C 0.45127 0.28998 0.66949 0.0
H1774 H 0.44193 0.25157 0.70154 0.0
C1775 C 0.38367 0.27066 0.7005 0.0
C1776 C 0.38375 0.26423 0.71846 0.0
C1777 C 0.39957 0.27478 0.69215 0.0
C1778 C 0.44444 0.26258 0.69293 0.0
H1779 H 0.49232 0.28976 0.61703 0.0
H1780 H 0.466 0.28694 0.63434 0.0
H1781 H 0.46798 0.25427 0.68411 0.0
H1782 H 0.40056 0.25737 0.74193 0.0
H1783 H 0.42846 0.26474 0.72751 0.0
H1784 H 0.42757 0.29814 0.67819 0.0
C1785 C 0.47834 0.28431 0.64134 0.0
C1786 C 0.45944 0.26411 0.68284 0.0
C1787 C 0.49341 0.28576 0.63131 0.0
C1788 C 0.40017 0.2626 0.72822 0.0
C1789 C 0.4161 0.26658 0.71979 0.0
C1790 C 0.43624 0.28843 0.67958 0.0
C1791 C 0.47913 0.27933 0.66006 0.0
C1792 C 0.46308 0.2778 0.6709 0.0
C1793 C 0.41598 0.27232 0.70141 0.0
C1794 C 0.43255 0.27466 0.69141 0.0
H1795 H 0.52285 0.27469 0.66538 0.0
H1796 H 0.49676 0.27219 0.68279 0.0
H1797 H 0.45372 0.30089 0.66074 0.0
H1798 H 0.37114 0.27174 0.69255 0.0
H1799 H 0.39881 0.27899 0.67795 0.0
C1800 C 0.0274 0.81643 0.67318 0.0
C1801 C 0.02508 0.79917 0.66292 0.0
C1802 C 0.02902 0.83195 0.66356 0.0
C1803 C 0.01831 0.84637 0.61555 0.0
H1804 H 0.05453 0.88896 0.63348 0.0
C1805 C 0.04071 0.90028 0.56616 0.0
C1806 C 0.0462 0.91848 0.57371 0.0
C1807 C 0.03609 0.88691 0.57807 0.0
C1808 C 0.04411 0.87733 0.62839 0.0
H1809 H 0.0227 0.78483 0.63445 0.0
H1810 H 0.02539 0.81158 0.61787 0.0
H1811 H 0.05082 0.86357 0.65245 0.0
H1812 H 0.05067 0.93699 0.59973 0.0
H1813 H 0.04259 0.91359 0.62073 0.0
H1814 H 0.01162 0.85993 0.59147 0.0
C1815 C 0.0259 0.81326 0.63331 0.0
C1816 C 0.04202 0.86271 0.6393 0.0
C1817 C 0.02452 0.79786 0.64288 0.0
C1818 C 0.04638 0.92308 0.59348 0.0
C1819 C 0.04193 0.90963 0.60551 0.0
C1820 C 0.02034 0.86096 0.60472 0.0
C1821 C 0.02807 0.83055 0.64344 0.0
C1822 C 0.02934 0.84685 0.63283 0.0
C1823 C 0.03697 0.89127 0.59801 0.0
C1824 C 0.03353 0.87654 0.61072 0.0
H1825 H 0.02783 0.81794 0.6886 0.0
H1826 H 0.03063 0.84502 0.67185 0.0
H1827 H 0.00812 0.83459 0.61028 0.0
H1828 H 0.04045 0.89631 0.55099 0.0
H1829 H 0.03254 0.87301 0.57166 0.0
C1830 C 0.48347 0.81163 0.83132 0.0
C1831 C 0.48838 0.79991 0.84428 0.0
C1832 C 0.46535 0.81012 0.82352 0.0
C1833 C 0.41853 0.7907 0.83402 0.0
H1834 H 0.4033 0.80351 0.78422 0.0
C1835 C 0.34286 0.77719 0.80432 0.0
C1836 C 0.33611 0.78889 0.79239 0.0
C1837 C 0.36134 0.77896 0.80994 0.0
C1838 C 0.40722 0.80005 0.79829 0.0
H1839 H 0.4779 0.77715 0.85869 0.0
H1840 H 0.44697 0.774 0.84475 0.0
H1841 H 0.43517 0.80526 0.7943 0.0
H1842 H 0.34434 0.81158 0.77691 0.0
H1843 H 0.37644 0.81503 0.78705 0.0
H1844 H 0.39079 0.78561 0.83819 0.0
C1845 C 0.4568 0.78469 0.84077 0.0
C1846 C 0.42568 0.80104 0.80411 0.0
C1847 C 0.47475 0.78627 0.84855 0.0
C1848 C 0.34875 0.80251 0.78636 0.0
C1849 C 0.36734 0.8043 0.792 0.0
C1850 C 0.40018 0.78971 0.82823 0.0
C1851 C 0.45153 0.79692 0.82857 0.0
C1852 C 0.43174 0.79622 0.82207 0.0
C1853 C 0.37406 0.79254 0.80394 0.0
C1854 C 0.39403 0.79422 0.81019 0.0
H1855 H 0.49343 0.82261 0.82807 0.0
H1856 H 0.46209 0.81991 0.8143 0.0
H1857 H 0.42233 0.78734 0.84817 0.0
H1858 H 0.33382 0.7664 0.80928 0.0
H1859 H 0.36564 0.76931 0.81877 0.0
C1860 C 0.50983 0.20033 0.12763 0.0
C1861 C 0.51275 0.20388 0.14775 0.0
C1862 C 0.51014 0.18334 0.11822 0.0
C1863 C 0.50549 0.13502 0.11964 0.0
H1864 H 0.54137 0.13822 0.08449 0.0
C1865 C 0.51863 0.07027 0.07512 0.0
C1866 C 0.52603 0.07185 0.05774 0.0
C1867 C 0.51685 0.08563 0.08714 0.0
C1868 C 0.53096 0.13685 0.09382 0.0
H1869 H 0.51718 0.19159 0.17371 0.0
H1870 H 0.51703 0.16133 0.15708 0.0
H1871 H 0.5372 0.16523 0.10329 0.0
H1872 H 0.53707 0.09137 0.03954 0.0
H1873 H 0.53272 0.1176 0.05929 0.0
H1874 H 0.49847 0.10685 0.10953 0.0
C1875 C 0.5147 0.17206 0.1487 0.0
C1876 C 0.52876 0.15251 0.10489 0.0
C1877 C 0.51461 0.18934 0.15825 0.0
C1878 C 0.53124 0.08935 0.05268 0.0
C1879 C 0.52902 0.10464 0.06439 0.0
C1880 C 0.50737 0.11933 0.10818 0.0
C1881 C 0.51314 0.16908 0.12852 0.0
C1882 C 0.51596 0.15188 0.11788 0.0
C1883 C 0.52198 0.10321 0.08205 0.0
C1884 C 0.52009 0.11991 0.09487 0.0
H1885 H 0.5083 0.21111 0.119 0.0
H1886 H 0.50864 0.18151 0.10272 0.0
H1887 H 0.4954 0.13407 0.1294 0.0
H1888 H 0.51422 0.05711 0.07958 0.0
H1889 H 0.51161 0.08357 0.10056 0.0
C1890 C 0.10815 0.30759 0.3511 0.0
C1891 C 0.09145 0.29979 0.34054 0.0
C1892 C 0.12447 0.30533 0.34432 0.0
C1893 C 0.14451 0.27662 0.30843 0.0
H1894 H 0.18626 0.31479 0.32147 0.0
C1895 C 0.21251 0.27376 0.27638 0.0
C1896 C 0.22881 0.28066 0.28814 0.0
C1897 C 0.19582 0.27582 0.28243 0.0
C1898 C 0.17487 0.30381 0.31781 0.0
H1899 H 0.07932 0.28325 0.31423 0.0
H1900 H 0.10761 0.27927 0.3024 0.0
H1901 H 0.15776 0.31884 0.33207 0.0
H1902 H 0.23975 0.29585 0.3156 0.0
H1903 H 0.21102 0.29979 0.32588 0.0
H1904 H 0.1617 0.26167 0.29403 0.0
C1905 C 0.10815 0.28716 0.31611 0.0
C1906 C 0.15831 0.30615 0.32398 0.0
C1907 C 0.09177 0.28956 0.32286 0.0
C1908 C 0.22768 0.29015 0.30603 0.0
C1909 C 0.21103 0.29251 0.31195 0.0
C1910 C 0.16108 0.27431 0.3022 0.0
C1911 C 0.12493 0.29504 0.32668 0.0
C1912 C 0.14272 0.29258 0.31955 0.0
C1913 C 0.19468 0.28531 0.30034 0.0
C1914 C 0.17669 0.28783 0.30682 0.0
H1915 H 0.10866 0.31556 0.36477 0.0
H1916 H 0.13679 0.31149 0.35324 0.0
H1917 H 0.13314 0.26562 0.30481 0.0
H1918 H 0.21256 0.26683 0.26232 0.0
H1919 H 0.18378 0.27024 0.27279 0.0
C1920 C 0.94196 0.02448 0.20328 0.0
C1921 C 0.94912 0.01233 0.21418 0.0
C1922 C 0.94806 0.02802 0.18564 0.0
C1923 C 0.9879 0.02684 0.16072 0.0
H1924 H 0.95716 0.02636 0.11366 0.0
C1925 C 0.01544 0.02265 0.08827 0.0
C1926 C 0.00854 0.03142 0.07347 0.0
C1927 C 0.00766 0.02188 0.10528 0.0
C1928 C 0.96598 0.02686 0.12673 0.0
H1929 H 0.96749 0.9936 0.21439 0.0
H1930 H 0.9779 0.99974 0.18404 0.0
H1931 H 0.94395 0.02227 0.14346 0.0
H1932 H 0.98806 0.0463 0.06493 0.0
H1933 H 0.97473 0.04551 0.095 0.0
H1934 H 0.00992 0.03156 0.14437 0.0
C1935 C 0.96793 0.00685 0.18922 0.0
C1936 C 0.95837 0.02447 0.14379 0.0
C1937 C 0.96188 1.00331 0.20665 0.0
C1938 C 0.99368 0.03948 0.07611 0.0
C1939 C 0.98598 0.0389 0.0933 0.0
C1940 C 0.99549 0.02941 0.1438 0.0
C1941 C 0.96143 0.01952 0.17868 0.0
C1942 C 0.96925 0.02399 0.16087 0.0
C1943 C 0.99286 0.03005 0.10814 0.0
C1944 C 0.98465 0.02901 0.12644 0.0
H1945 H 0.9321 0.03165 0.20862 0.0
H1946 H 0.94277 0.03783 0.17779 0.0
H1947 H 0.99668 0.02692 0.17373 0.0
H1948 H 0.02665 0.01596 0.08656 0.0
H1949 H 0.01309 0.01451 0.11606 0.0
C1950 C 0.2896 0.65604 0.49014 0.0
C1951 C 0.27568 0.64268 0.49401 0.0
C1952 C 0.28736 0.66529 0.47429 0.0
C1953 C 0.25208 0.68083 0.44729 0.0
H1954 H 0.28606 0.69244 0.41098 0.0
C1955 C 0.24301 0.71107 0.37482 0.0
C1956 C 0.245 0.72975 0.37975 0.0
C1957 C 0.24894 0.70036 0.38804 0.0
C1958 C 0.27659 0.68929 0.42115 0.0
H1959 H 0.24875 0.62805 0.48474 0.0
H1960 H 0.24462 0.64445 0.45692 0.0
H1961 H 0.29197 0.67214 0.43491 0.0
H1962 H 0.25538 0.75207 0.40184 0.0
H1963 H 0.2655 0.73309 0.42525 0.0
H1964 H 0.23687 0.69816 0.43374 0.0
C1965 C 0.25734 0.64758 0.46594 0.0
C1966 C 0.27991 0.67774 0.43471 0.0
C1967 C 0.2597 0.63814 0.48165 0.0
C1968 C 0.25341 0.73764 0.39791 0.0
C1969 C 0.25934 0.72691 0.41114 0.0
C1970 C 0.24891 0.69251 0.43394 0.0
C1971 C 0.271 0.66152 0.46244 0.0
C1972 C 0.26755 0.67331 0.44774 0.0
C1973 C 0.25697 0.70823 0.40627 0.0
C1974 C 0.26108 0.69669 0.42079 0.0
H1975 H 0.30192 0.65979 0.49981 0.0
H1976 H 0.29799 0.6761 0.47197 0.0
H1977 H 0.24255 0.67787 0.45745 0.0
H1978 H 0.23653 0.70472 0.36089 0.0
H1979 H 0.24682 0.6859 0.38426 0.0
C1980 C 0.65425 0.0192 0.69114 0.0
C1981 C 0.65448 0.0362 0.70094 0.0
C1982 C 0.6467 0.01524 0.67212 0.0
C1983 C 0.62666 0.03481 0.6313 0.0
H1984 H 0.58618 0.99585 0.632 0.0
C1985 C 0.5594 0.03342 0.58973 0.0
C1986 C 0.55485 0.01897 0.57514 0.0
C1987 C 0.57258 0.03304 0.60459 0.0
C1988 C 0.59753 0.0066 0.6316 0.0
H1989 H 0.64943 0.06307 0.69859 0.0
H1990 H 0.63646 0.05635 0.66536 0.0
H1991 H 0.61203 0.99981 0.6563 0.0
H1992 H 0.55844 0.99204 0.56545 0.0
H1993 H 0.58116 0.99113 0.59204 0.0
H1994 H 0.61152 0.04227 0.60735 0.0
C1995 C 0.6419 0.04599 0.67213 0.0
C1996 C 0.61239 0.00872 0.64522 0.0
C1997 C 0.64913 0.04982 0.69116 0.0
C1998 C 0.56205 1.00337 0.57656 0.0
C1999 C 0.57493 1.00283 0.59166 0.0
C2000 C 0.61173 0.0328 0.61784 0.0
C2001 C 0.63966 0.02839 0.66284 0.0
C2002 C 0.62678 0.02323 0.64555 0.0
C2003 C 0.58085 0.01802 0.60513 0.0
C2004 C 0.59693 0.01905 0.61837 0.0
H2005 H 0.65838 0.00856 0.69862 0.0
H2006 H 0.64514 1.00161 0.66513 0.0
H2007 H 0.63765 0.04603 0.63127 0.0
H2008 H 0.55396 0.04557 0.58878 0.0
H2009 H 0.57699 0.04479 0.61509 0.0
C2010 C 0.29559 0.34966 0.97979 0.0
C2011 C 0.2912 0.36687 0.98221 0.0
C2012 C 0.2961 0.34106 0.96149 0.0
C2013 C 0.29844 0.34992 0.91084 0.0
H2014 H 0.28064 0.29839 0.89983 0.0
C2015 C 0.28231 0.31429 0.83389 0.0
C2016 C 0.28744 0.29759 0.82975 0.0
C2017 C 0.28373 0.32233 0.85272 0.0
C2018 C 0.28587 0.31275 0.90274 0.0
H2019 H 0.2839 0.38855 0.96731 0.0
H2020 H 0.28444 0.37348 0.93537 0.0
H2021 H 0.28108 0.31333 0.93209 0.0
H2022 H 0.29781 0.2761 0.84238 0.0
H2023 H 0.30045 0.2903 0.87542 0.0
H2024 H 0.30286 0.34938 0.8814 0.0
C2025 C 0.28786 0.36671 0.9476 0.0
C2026 C 0.28614 0.32134 0.92126 0.0
C2027 C 0.28746 0.37536 0.96593 0.0
C2028 C 0.29392 0.28905 0.84502 0.0
C2029 C 0.29529 0.29712 0.86396 0.0
C2030 C 0.29805 0.34136 0.89235 0.0
C2031 C 0.29214 0.34941 0.94511 0.0
C2032 C 0.29231 0.34009 0.92553 0.0
C2033 C 0.29027 0.3139 0.868 0.0
C2034 C 0.29162 0.3227 0.88801 0.0
H2035 H 0.29858 0.34276 0.99206 0.0
H2036 H 0.29973 0.3279 0.96021 0.0
H2037 H 0.30365 0.36428 0.91362 0.0
H2038 H 0.2772 0.32126 0.82256 0.0
H2039 H 0.27947 0.3351 0.85532 0.0
C2040 C 0.95969 0.00881 0.3181 0.0
C2041 C 0.94336 0.0148 0.31554 0.0
C2042 C 0.96847 0.00899 0.33649 0.0
C2043 C 0.97238 0.03181 0.38549 0.0
H2044 H 0.99198 0.99104 0.40088 0.0
C2045 C 0.99507 0.02745 0.46439 0.0
C2046 C 0.01021 0.02001 0.46936 0.0
C2047 C 0.98796 0.02667 0.44532 0.0
C2048 C 0.98685 1.00266 0.39676 0.0
H2049 H 0.92336 0.02554 0.3303 0.0
H2050 H 0.93874 0.02603 0.36236 0.0
H2051 H 0.97747 0.98981 0.36825 0.0
H2052 H 0.02971 0.00583 0.45784 0.0
H2053 H 0.01722 0.00439 0.42437 0.0
H2054 H 0.98186 0.04483 0.41373 0.0
C2055 C 0.94478 0.0212 0.35014 0.0
C2056 C 0.97847 1.00192 0.37805 0.0
C2057 C 0.9359 0.02079 0.33178 0.0
C2058 C 0.01796 0.01156 0.45461 0.0
C2059 C 0.01077 0.01074 0.43539 0.0
C2060 C 0.98088 0.03263 0.40408 0.0
C2061 C 0.96123 0.01541 0.35273 0.0
C2062 C 0.97088 0.01638 0.3723 0.0
C2063 C 0.99573 0.01843 0.43049 0.0
C2064 C 0.98795 0.01795 0.41013 0.0
H2065 H 0.96579 0.00412 0.30587 0.0
H2066 H 0.98115 0.00453 0.33798 0.0
H2067 H 0.96704 0.04334 0.3814 0.0
H2068 H 0.98857 0.03393 0.47527 0.0
H2069 H 0.97616 0.03239 0.44227 0.0
C2070 C 0.28114 0.65383 0.6065 0.0
C2071 C 0.26658 0.65549 0.5935 0.0
C2072 C 0.28287 0.66201 0.62534 0.0
C2073 C 0.27407 0.7028 0.64636 0.0
H2074 H 0.27955 0.68743 0.69694 0.0
C2075 C 0.2671 0.74873 0.71177 0.0
C2076 C 0.28068 0.75097 0.72706 0.0
C2077 C 0.26576 0.7349 0.69701 0.0
C2078 C 0.27822 0.69182 0.68285 0.0
H2079 H 0.24134 0.66466 0.59021 0.0
H2080 H 0.24429 0.67876 0.62306 0.0
H2081 H 0.27623 0.66512 0.66843 0.0
H2082 H 0.30371 0.74102 0.73903 0.0
H2083 H 0.30122 0.71656 0.71311 0.0
H2084 H 0.27595 0.72932 0.66036 0.0
C2085 C 0.25448 0.67153 0.61868 0.0
C2086 C 0.27633 0.67915 0.66669 0.0
C2087 C 0.25287 0.6636 0.59994 0.0
C2088 C 0.29285 0.73918 0.72754 0.0
C2089 C 0.29146 0.72527 0.71278 0.0
C2090 C 0.27598 0.71536 0.66234 0.0
C2091 C 0.26992 0.67163 0.63114 0.0
C2092 C 0.27376 0.68459 0.64842 0.0
C2093 C 0.27808 0.72325 0.69728 0.0
C2094 C 0.27758 0.70991 0.68068 0.0
H2095 H 0.29179 0.64749 0.60174 0.0
H2096 H 0.29488 0.66205 0.63483 0.0
H2097 H 0.2725 0.70726 0.63231 0.0
H2098 H 0.25758 0.7577 0.71119 0.0
H2099 H 0.25521 0.73344 0.68524 0.0
C2100 C 0.6634 0.03133 0.81908 0.0
C2101 C 0.65721 0.03647 0.8015 0.0
C2102 C 0.65364 0.03286 0.83466 0.0
C2103 C 0.61923 0.0561 0.85216 0.0
H2104 H 0.60588 0.01452 0.87918 0.0
C2105 C 0.5637 0.05497 0.898 0.0
C2106 C 0.57032 0.0556 0.91733 0.0
C2107 C 0.57301 0.04847 0.88377 0.0
C2108 C 0.60953 0.02613 0.87162 0.0
H2109 H 0.63657 0.04792 0.78654 0.0
H2110 H 0.61979 0.0506 0.8134 0.0
H2111 H 0.62748 0.01376 0.85571 0.0
H2112 H 0.59073 0.04808 0.9369 0.0
H2113 H 0.60678 0.03659 0.91194 0.0
H2114 H 0.60115 0.06835 0.86759 0.0
C2115 C 0.63207 0.04543 0.81532 0.0
C2116 C 0.62198 0.02581 0.85848 0.0
C2117 C 0.64165 0.04378 0.79988 0.0
C2118 C 0.58526 0.04779 0.92214 0.0
C2119 C 0.59446 0.04115 0.90789 0.0
C2120 C 0.60671 0.05631 0.86499 0.0
C2121 C 0.63782 0.03979 0.83276 0.0
C2122 C 0.62668 0.04073 0.84846 0.0
C2123 C 0.58894 0.04243 0.88871 0.0
C2124 C 0.60157 0.04126 0.87458 0.0
H2125 H 0.67539 0.02563 0.82059 0.0
H2126 H 0.65835 0.02854 0.84806 0.0
H2127 H 0.6229 0.06788 0.84486 0.0
H2128 H 0.55192 0.06041 0.8939 0.0
H2129 H 0.56848 0.04933 0.86894 0.0
C2130 C 0.28125 0.36691 0.09438 0.0
C2131 C 0.29263 0.35936 0.08283 0.0
C2132 C 0.27789 0.36046 0.11194 0.0
C2133 C 0.27817 0.31935 0.13558 0.0
H2134 H 0.28151 0.34959 0.18368 0.0
C2135 C 0.28513 0.29008 0.20696 0.0
C2136 C 0.27683 0.29661 0.22231 0.0
C2137 C 0.28539 0.29838 0.1902 0.0
C2138 C 0.28023 0.34094 0.17033 0.0
H2139 H 0.31019 0.33985 0.0814 0.0
H2140 H 0.30437 0.32886 0.11153 0.0
H2141 H 0.2848 0.36349 0.15406 0.0
H2142 H 0.26228 0.31705 0.23207 0.0
H2143 H 0.26241 0.33141 0.20254 0.0
H2144 H 0.27362 0.29683 0.15152 0.0
C2145 C 0.2977 0.33941 0.10694 0.0
C2146 C 0.28214 0.34893 0.15337 0.0
C2147 C 0.30107 0.34581 0.08962 0.0
C2148 C 0.26879 0.3117 0.22049 0.0
C2149 C 0.26895 0.31999 0.2036 0.0
C2150 C 0.27614 0.3114 0.1524 0.0
C2151 C 0.2858 0.34633 0.11814 0.0
C2152 C 0.2816 0.3382 0.13589 0.0
C2153 C 0.27723 0.31339 0.1882 0.0
C2154 C 0.27761 0.32205 0.17011 0.0
H2155 H 0.27456 0.37738 0.08963 0.0
H2156 H 0.2687 0.36609 0.12033 0.0
H2157 H 0.2773 0.31069 0.12228 0.0
H2158 H 0.29167 0.27863 0.20797 0.0
H2159 H 0.29228 0.29314 0.1789 0.0
C2160 C 0.23178 0.93508 0.99307 0.0
C2161 C 0.24938 0.94349 0.00019 0.0
C2162 C 0.21773 0.94393 0.99601 0.0
C2163 C 0.20648 0.97757 0.02989 0.0
H2164 H 0.16538 0.97572 0.9924 0.0
C2165 C 0.14839 0.00957 0.04909 0.0
C2166 C 0.13218 0.99716 0.04637 0.0
C2167 C 0.16284 0.00562 0.04023 0.0
C2168 C 0.17687 0.97637 0.00288 0.0
H2169 H 0.26631 0.96778 0.01544 0.0
H2170 H 0.24172 0.98326 0.02051 0.0
H2171 H 0.19122 0.96362 0.98282 0.0
H2172 H 0.11743 0.97183 0.03138 0.0
H2173 H 0.14302 0.96461 0.01596 0.0
H2174 H 0.19211 0.98984 0.05005 0.0
C2175 C 0.2388 0.96982 0.01281 0.0
C2176 C 0.19152 0.96946 0.99748 0.0
C2177 C 0.25282 0.96097 0.00992 0.0
C2178 C 0.13013 0.98121 0.034 0.0
C2179 C 0.14456 0.9773 0.02497 0.0
C2180 C 0.19196 0.98455 0.03523 0.0
C2181 C 0.22116 0.96127 0.0061 0.0
C2182 C 0.2063 0.96983 0.01105 0.0
C2183 C 0.16109 0.9893 0.02844 0.0
C2184 C 0.17699 0.98378 0.02185 0.0
H2185 H 0.22884 0.92162 0.98541 0.0
H2186 H 0.20417 0.93701 0.99094 0.0
H2187 H 0.21756 0.97762 0.0407 0.0
H2188 H 0.1499 0.02218 0.05826 0.0
H2189 H 0.17549 0.01508 0.04291 0.0
C2190 C 0.70243 0.64916 0.01817 0.0
C2191 C 0.71332 0.6461 0.00388 0.0
C2192 C 0.687 0.63659 0.01971 0.0
C2193 C 0.66279 0.5893 0.00204 0.0
H2194 H 0.62284 0.60746 0.02116 0.0
C2195 C 0.58481 0.55782 0.9977 0.0
C2196 C 0.58181 0.54994 0.01453 0.0
C2197 C 0.60146 0.56837 0.99603 0.0
C2198 C 0.63393 0.60226 0.01582 0.0
H2199 H 0.7169 0.62757 0.98002 0.0
H2200 H 0.68928 0.60606 0.98175 0.0
H2201 H 0.65042 0.62842 0.01866 0.0
H2202 H 0.59368 0.5469 0.04282 0.0
H2203 H 0.62279 0.56579 0.04002 0.0
H2204 H 0.64561 0.56314 0.99862 0.0
C2205 C 0.69286 0.61781 0.99231 0.0
C2206 C 0.64987 0.61421 0.01454 0.0
C2207 C 0.70863 0.63019 0.99116 0.0
C2208 C 0.5958 0.55257 0.02957 0.0
C2209 C 0.61236 0.56339 0.02802 0.0
C2210 C 0.64672 0.57738 0.00314 0.0
C2211 C 0.68174 0.62085 0.00659 0.0
C2212 C 0.66463 0.60794 0.00773 0.0
C2213 C 0.61525 0.5714 0.01127 0.0
C2214 C 0.63225 0.58381 0.0101 0.0
H2215 H 0.70601 0.6612 0.02838 0.0
H2216 H 0.6793 0.63926 0.03133 0.0
H2217 H 0.67379 0.5838 0.99696 0.0
H2218 H 0.57422 0.55595 0.98591 0.0
H2219 H 0.60348 0.57449 0.98301 0.0
C2220 C 0.67806 0.4975 0.28099 0.0
C2221 C 0.65958 0.49529 0.28214 0.0
C2222 C 0.6865 0.48267 0.28059 0.0
C2223 C 0.67858 0.43362 0.26883 0.0
H2224 H 0.72494 0.4387 0.29863 0.0
C2225 C 0.72024 0.3774 0.26325 0.0
C2226 C 0.73796 0.38378 0.25996 0.0
C2227 C 0.70967 0.38952 0.26964 0.0
C2228 C 0.712 0.43706 0.29023 0.0
H2229 H 0.63539 0.47575 0.28346 0.0
H2230 H 0.65017 0.44972 0.28249 0.0
H2231 H 0.70816 0.46303 0.30168 0.0
H2232 H 0.75896 0.40739 0.26198 0.0
H2233 H 0.7407 0.42848 0.27306 0.0
H2234 H 0.68272 0.40792 0.25685 0.0
C2235 C 0.65809 0.46297 0.28194 0.0
C2236 C 0.70241 0.451 0.29195 0.0
C2237 C 0.64965 0.47787 0.28251 0.0
C2238 C 0.74527 0.40221 0.26424 0.0
C2239 C 0.73483 0.41424 0.27076 0.0
C2240 C 0.68822 0.41967 0.26705 0.0
C2241 C 0.67664 0.46526 0.28121 0.0
C2242 C 0.68582 0.44963 0.28089 0.0
C2243 C 0.71678 0.40814 0.27306 0.0
C2244 C 0.70526 0.42146 0.27734 0.0
H2245 H 0.6861 0.51075 0.28074 0.0
H2246 H 0.70076 0.48482 0.27969 0.0
H2247 H 0.66585 0.43221 0.26008 0.0
H2248 H 0.71433 0.36321 0.26005 0.0
H2249 H 0.69586 0.38439 0.27147 0.0
C2250 C 0.84428 0.45399 0.49586 0.0
C2251 C 0.84351 0.43546 0.49666 0.0
C2252 C 0.86032 0.46613 0.50145 0.0
C2253 C 0.90304 0.47119 0.53115 0.0
H2254 H 0.9213 0.50442 0.49626 0.0
C2255 C 0.97674 0.49748 0.52708 0.0
C2256 C 0.98207 0.51496 0.52228 0.0
C2257 C 0.95885 0.49095 0.52874 0.0
C2258 C 0.91617 0.49558 0.5064 0.0
H2259 H 0.85866 0.415 0.50381 0.0
H2260 H 0.88675 0.43628 0.51358 0.0
H2261 H 0.89126 0.4863 0.4887 0.0
H2262 H 0.97335 0.53981 0.51669 0.0
H2263 H 0.94191 0.52821 0.5193 0.0
H2264 H 0.92827 0.47992 0.54844 0.0
C2265 C 0.87494 0.44137 0.50872 0.0
C2266 C 0.89905 0.48519 0.50202 0.0
C2267 C 0.85899 0.42921 0.50291 0.0
C2268 C 0.9695 0.52622 0.52031 0.0
C2269 C 0.95157 0.51963 0.52181 0.0
C2270 C 0.92014 0.48162 0.53556 0.0
C2271 C 0.87566 0.45989 0.50816 0.0
C2272 C 0.89262 0.47256 0.51408 0.0
C2273 C 0.94607 0.50177 0.52542 0.0
C2274 C 0.927 0.4935 0.52294 0.0
H2275 H 0.83248 0.45909 0.49104 0.0
H2276 H 0.86066 0.48039 0.50085 0.0
H2277 H 0.89815 0.46167 0.54076 0.0
H2278 H 0.98612 0.48845 0.52836 0.0
H2279 H 0.95488 0.47702 0.53124 0.0
C2280 C 0.34697 0.05519 0.28555 0.0
C2281 C 0.36515 0.05864 0.29273 0.0
C2282 C 0.33785 0.06932 0.28437 0.0
C2283 C 0.34072 0.11756 0.30057 0.0
H2284 H 0.31089 0.11563 0.2525 0.0
C2285 C 0.32514 0.17702 0.26199 0.0
C2286 C 0.30751 0.17551 0.25351 0.0
C2287 C 0.3298 0.16331 0.27197 0.0
C2288 C 0.31886 0.11616 0.26616 0.0
H2289 H 0.38814 0.07934 0.30445 0.0
H2290 H 0.37234 0.10422 0.30156 0.0
H2291 H 0.32409 0.08991 0.25919 0.0
H2292 H 0.28067 0.15937 0.24957 0.0
H2293 H 0.28897 0.13515 0.26667 0.0
H2294 H 0.33635 0.14453 0.3067 0.0
C2295 C 0.36503 0.09057 0.29737 0.0
C2296 C 0.3264 0.10146 0.27001 0.0
C2297 C 0.37412 0.07639 0.29876 0.0
C2298 C 0.29438 0.1607 0.25597 0.0
C2299 C 0.29905 0.14697 0.26578 0.0
C2300 C 0.33335 0.13245 0.29655 0.0
C2301 C 0.34684 0.08712 0.29009 0.0
C2302 C 0.33759 0.10212 0.28711 0.0
C2303 C 0.31687 0.14798 0.27331 0.0
C2304 C 0.32258 0.13183 0.27921 0.0
H2305 H 0.33971 0.04157 0.28102 0.0
H2306 H 0.32377 0.06629 0.27892 0.0
H2307 H 0.34915 0.11827 0.31395 0.0
H2308 H 0.33534 0.18855 0.26051 0.0
H2309 H 0.34366 0.16416 0.27757 0.0
C2310 C 0.30897 0.12495 0.52052 0.0
C2311 C 0.31135 0.14277 0.51603 0.0
C2312 C 0.32339 0.11603 0.52197 0.0
C2313 C 0.36918 0.1171 0.50832 0.0
H2314 H 0.37181 0.08543 0.54784 0.0
C2315 C 0.4311 0.08591 0.53221 0.0
C2316 C 0.42739 0.06853 0.53782 0.0
C2317 C 0.41705 0.09445 0.52629 0.0
C2318 C 0.37115 0.09401 0.53653 0.0
H2319 H 0.33079 0.16524 0.50957 0.0
H2320 H 0.35613 0.14978 0.51255 0.0
H2321 H 0.34754 0.10199 0.54525 0.0
H2322 H 0.40647 0.04592 0.54047 0.0
H2323 H 0.38198 0.06055 0.52972 0.0
H2324 H 0.3932 0.10928 0.49999 0.0
C2325 C 0.34303 0.1426 0.51466 0.0
C2326 C 0.35721 0.10354 0.53505 0.0
C2327 C 0.32854 0.15153 0.51315 0.0
C2328 C 0.4096 0.05927 0.53601 0.0
C2329 C 0.39562 0.06774 0.53011 0.0
C2330 C 0.38327 0.10761 0.5099 0.0
C2331 C 0.34062 0.12472 0.51907 0.0
C2332 C 0.35592 0.11509 0.52084 0.0
C2333 C 0.39915 0.08572 0.52607 0.0
C2334 C 0.38427 0.09581 0.52391 0.0
H2335 H 0.29588 0.11774 0.52264 0.0
H2336 H 0.32094 0.10217 0.52505 0.0
H2337 H 0.36852 0.12577 0.49709 0.0
H2338 H 0.44474 0.09338 0.53382 0.0
H2339 H 0.42019 0.10831 0.5233 0.0
C2340 C 0.67183 0.60227 0.30984 0.0
C2341 C 0.65941 0.5945 0.29403 0.0
C2342 C 0.68468 0.61765 0.30849 0.0
C2343 C 0.69528 0.65453 0.27729 0.0
H2344 H 0.74159 0.6632 0.30791 0.0
C2345 C 0.75525 0.71051 0.26726 0.0
C2346 C 0.75988 0.72346 0.28338 0.0
C2347 C 0.744 0.694 0.26839 0.0
C2348 C 0.72871 0.66087 0.29926 0.0
H2349 H 0.65081 0.59603 0.26432 0.0
H2350 H 0.67359 0.62228 0.26154 0.0
H2351 H 0.7199 0.63578 0.3099 0.0
H2352 H 0.75722 0.72928 0.31339 0.0
H2353 H 0.7384 0.69991 0.31567 0.0
H2354 H 0.70457 0.67943 0.26623 0.0
C2355 C 0.67318 0.61716 0.27527 0.0
C2356 C 0.71616 0.64525 0.30051 0.0
C2357 C 0.66018 0.60201 0.27676 0.0
C2358 C 0.7539 0.71937 0.30084 0.0
C2359 C 0.74315 0.70266 0.30213 0.0
C2360 C 0.708 0.6699 0.27573 0.0
C2361 C 0.68556 0.62536 0.29116 0.0
C2362 C 0.69917 0.64188 0.28963 0.0
C2363 C 0.73775 0.69003 0.28581 0.0
C2364 C 0.72475 0.67324 0.28679 0.0
H2365 H 0.67145 0.59657 0.32328 0.0
H2366 H 0.69371 0.6236 0.32116 0.0
H2367 H 0.68229 0.6528 0.26902 0.0
H2368 H 0.75946 0.71357 0.25357 0.0
H2369 H 0.73992 0.68446 0.25562 0.0
C2370 C 0.85164 0.46342 0.79528 0.0
C2371 C 0.86987 0.46357 0.79403 0.0
C2372 C 0.83911 0.44756 0.79019 0.0
C2373 C 0.83179 0.40407 0.76126 0.0
H2374 H 0.80046 0.38726 0.79834 0.0
C2375 C 0.806 0.33079 0.76817 0.0
C2376 C 0.78892 0.32545 0.77365 0.0
C2377 C 0.81221 0.34867 0.76588 0.0
C2378 C 0.80872 0.39202 0.78759 0.0
H2379 H 0.88943 0.4475 0.78653 0.0
H2380 H 0.86739 0.41962 0.77749 0.0
H2381 H 0.81929 0.4172 0.80466 0.0
H2382 H 0.76454 0.33424 0.78029 0.0
H2383 H 0.7757 0.36588 0.77675 0.0
H2384 H 0.8218 0.37855 0.7446 0.0
C2385 C 0.86287 0.43182 0.78234 0.0
C2386 C 0.81955 0.40905 0.79127 0.0
C2387 C 0.87544 0.44765 0.78769 0.0
C2388 C 0.77778 0.33809 0.77601 0.0
C2389 C 0.78411 0.35611 0.77397 0.0
C2390 C 0.8209 0.38707 0.75754 0.0
C2391 C 0.84464 0.43173 0.78352 0.0
C2392 C 0.83154 0.41491 0.7784 0.0
C2393 C 0.80153 0.36155 0.76936 0.0
C2394 C 0.80974 0.38072 0.77097 0.0
H2395 H 0.84707 0.47557 0.80026 0.0
H2396 H 0.8251 0.44768 0.79125 0.0
H2397 H 0.84082 0.40853 0.75107 0.0
H2398 H 0.81503 0.32142 0.7668 0.0
H2399 H 0.82585 0.3526 0.76273 0.0
C2400 C 0.0602 0.85498 0.1071 0.0
C2401 C 0.05668 0.83856 0.09489 0.0
C2402 C 0.05838 0.87155 0.10021 0.0
C2403 C 0.03637 0.89164 0.05921 0.0
H2404 H 0.06903 0.93562 0.08091 0.0
C2405 C 0.03227 0.96123 0.02931 0.0
C2406 C 0.03801 0.97762 0.04143 0.0
C2407 C 0.03454 0.94441 0.03539 0.0
C2408 C 0.05947 0.92366 0.07475 0.0
H2409 H 0.04816 0.82727 0.06543 0.0
H2410 H 0.04474 0.85592 0.05348 0.0
H2411 H 0.07284 0.90702 0.0919 0.0
H2412 H 0.05078 0.98842 0.06991 0.0
H2413 H 0.05484 0.95969 0.08039 0.0
H2414 H 0.02279 0.90825 0.04229 0.0
C2415 C 0.04907 0.85605 0.06853 0.0
C2416 C 0.06175 0.90698 0.08112 0.0
C2417 C 0.0512 0.83948 0.0754 0.0
C2418 C 0.04625 0.97637 0.0599 0.0
C2419 C 0.04865 0.9596 0.06596 0.0
C2420 C 0.03398 0.90836 0.05295 0.0
C2421 C 0.05262 0.87253 0.08078 0.0
C2422 C 0.05026 0.89052 0.07356 0.0
C2423 C 0.04284 0.94311 0.0539 0.0
C2424 C 0.04545 0.92488 0.06056 0.0
H2425 H 0.06433 0.85505 0.1222 0.0
H2426 H 0.06112 0.88361 0.11036 0.0
H2427 H 0.02697 0.87955 0.05303 0.0
H2428 H 0.02615 0.96132 0.01489 0.0
H2429 H 0.03001 0.93244 0.02528 0.0
C2430 C 0.9549 0.27282 0.89182 0.0
C2431 C 0.95316 0.26472 0.90879 0.0
C2432 C 0.93971 0.2732 0.87894 0.0
C2433 C 0.89195 0.25088 0.86435 0.0
H2434 H 0.88721 0.29577 0.84451 0.0
C2435 C 0.82491 0.26028 0.82304 0.0
C2436 C 0.82562 0.27133 0.80816 0.0
C2437 C 0.84052 0.25915 0.83483 0.0
C2438 C 0.88833 0.28299 0.84961 0.0
H2439 H 0.93406 0.25017 0.92508 0.0
H2440 H 0.90779 0.25021 0.90242 0.0
H2441 H 0.91428 0.29398 0.86497 0.0
H2442 H 0.84367 0.28992 0.79425 0.0
H2443 H 0.87071 0.2876 0.81426 0.0
H2444 H 0.86615 0.23977 0.84887 0.0
C2445 C 0.92082 0.2565 0.89911 0.0
C2446 C 0.90395 0.28199 0.86144 0.0
C2447 C 0.93591 0.25651 0.91217 0.0
C2448 C 0.84248 0.28113 0.80541 0.0
C2449 C 0.85807 0.27997 0.81714 0.0
C2450 C 0.8764 0.25182 0.85238 0.0
C2451 C 0.92239 0.2651 0.88243 0.0
C2452 C 0.90599 0.26595 0.8691 0.0
C2453 C 0.85742 0.269 0.83213 0.0
C2454 C 0.87422 0.26792 0.84484 0.0
H2455 H 0.96794 0.27945 0.88885 0.0
H2456 H 0.94152 0.27986 0.86622 0.0
H2457 H 0.89306 0.23821 0.86974 0.0
H2458 H 0.81224 0.25248 0.82563 0.0
H2459 H 0.83924 0.25072 0.84629 0.0
C2460 C 0.54523 0.22479 0.59718 0.0
C2461 C 0.55188 0.23697 0.58456 0.0
C2462 C 0.54301 0.20587 0.59232 0.0
C2463 C 0.54118 0.17006 0.55005 0.0
H2464 H 0.54962 0.13948 0.58933 0.0
C2465 C 0.54564 0.09399 0.53081 0.0
C2466 C 0.53872 0.0813 0.5428 0.0
C2467 C 0.54707 0.11273 0.53595 0.0
C2468 C 0.547 0.14768 0.57809 0.0
H2469 H 0.56101 0.2381 0.55654 0.0
H2470 H 0.55732 0.20582 0.5483 0.0
H2471 H 0.5517 0.17172 0.59809 0.0
H2472 H 0.52799 0.07897 0.56988 0.0
H2473 H 0.53042 0.11124 0.57872 0.0
H2474 H 0.53661 0.14605 0.53004 0.0
C2475 C 0.55358 0.21064 0.56194 0.0
C2476 C 0.54817 0.16638 0.58318 0.0
C2477 C 0.55586 0.22942 0.56681 0.0
C2478 C 0.53343 0.08813 0.56017 0.0
C2479 C 0.53495 0.10683 0.56535 0.0
C2480 C 0.54008 0.15139 0.54496 0.0
C2481 C 0.54723 0.19837 0.57459 0.0
C2482 C 0.54536 0.17805 0.56927 0.0
C2483 C 0.54172 0.11958 0.55334 0.0
C2484 C 0.543 0.13976 0.55885 0.0
H2485 H 0.54202 0.22987 0.611 0.0
H2486 H 0.53787 0.19713 0.60252 0.0
H2487 H 0.5385 0.17819 0.53876 0.0
H2488 H 0.54979 0.08947 0.51728 0.0
H2489 H 0.55256 0.12187 0.52627 0.0
C2490 C 0.55159 0.76191 0.38873 0.0
C2491 C 0.5531 0.76624 0.4087 0.0
C2492 C 0.56686 0.76277 0.37912 0.0
C2493 C 0.61602 0.78251 0.38516 0.0
H2494 H 0.61515 0.75093 0.33845 0.0
C2495 C 0.67858 0.78591 0.34453 0.0
C2496 C 0.6755 0.78597 0.32463 0.0
C2497 C 0.66427 0.78108 0.35521 0.0
C2498 C 0.61563 0.75993 0.35143 0.0
H2499 H 0.57204 0.77455 0.43421 0.0
H2500 H 0.59867 0.7755 0.41763 0.0
H2501 H 0.58935 0.74734 0.35633 0.0
H2502 H 0.65511 0.78071 0.30029 0.0
H2503 H 0.63018 0.77193 0.31872 0.0
H2504 H 0.64233 0.79506 0.38022 0.0
C2505 C 0.58567 0.77184 0.40923 0.0
C2506 C 0.60073 0.75793 0.36171 0.0
C2507 C 0.57035 0.77115 0.41883 0.0
C2508 C 0.65792 0.78032 0.31553 0.0
C2509 C 0.64362 0.77538 0.32617 0.0
C2510 C 0.63096 0.78441 0.37495 0.0
C2511 C 0.5842 0.76783 0.38916 0.0
C2512 C 0.60055 0.76932 0.37866 0.0
C2513 C 0.64649 0.77622 0.34626 0.0
C2514 C 0.63096 0.77328 0.35781 0.0
H2515 H 0.53855 0.75822 0.38039 0.0
H2516 H 0.56497 0.75989 0.36369 0.0
H2517 H 0.61646 0.79181 0.39788 0.0
H2518 H 0.69193 0.79061 0.35196 0.0
H2519 H 0.66709 0.78167 0.37059 0.0
C2520 C 0.0397 0.24298 0.38182 0.0
C2521 C 0.04554 0.25937 0.39369 0.0
C2522 C 0.03924 0.22645 0.38945 0.0
C2523 C 0.0369 0.20837 0.43654 0.0
H2524 H 0.04425 0.16426 0.40886 0.0
C2525 C 0.03021 0.14184 0.4716 0.0
C2526 C 0.02083 0.12621 0.46003 0.0
C2527 C 0.03577 0.15786 0.46356 0.0
C2528 C 0.04203 0.17643 0.41679 0.0
H2529 H 0.05677 0.27127 0.42238 0.0
H2530 H 0.05661 0.24282 0.43537 0.0
H2531 H 0.04914 0.19228 0.39419 0.0
H2532 H 0.01103 0.115 0.43073 0.0
H2533 H 0.0203 0.14274 0.4169 0.0
H2534 H 0.02952 0.19258 0.45898 0.0
C2535 C 0.05174 0.2425 0.42041 0.0
C2536 C 0.04482 0.19254 0.40832 0.0
C2537 C 0.05203 0.25887 0.41289 0.0
C2538 C 0.01794 0.12683 0.44016 0.0
C2539 C 0.02348 0.14276 0.43216 0.0
C2540 C 0.03412 0.19231 0.44498 0.0
C2541 C 0.04473 0.22602 0.40905 0.0
C2542 C 0.04223 0.20876 0.41804 0.0
C2543 C 0.03217 0.15864 0.44374 0.0
C2544 C 0.03649 0.17603 0.4352 0.0
H2545 H 0.03445 0.24292 0.36703 0.0
H2546 H 0.03373 0.21406 0.38021 0.0
H2547 H 0.03437 0.22043 0.4444 0.0
H2548 H 0.03268 0.14192 0.48695 0.0
H2549 H 0.04268 0.16971 0.47295 0.0
C2550 C 0.58105 0.24572 0.20798 0.0
C2551 C 0.57462 0.26166 0.20531 0.0
C2552 C 0.59903 0.24624 0.21551 0.0
C2553 C 0.64115 0.27743 0.24069 0.0
H2554 H 0.66522 0.2412 0.21848 0.0
C2555 C 0.71918 0.2848 0.25529 0.0
C2556 C 0.72703 0.26932 0.25527 0.0
C2557 C 0.70067 0.28355 0.24993 0.0
C2558 C 0.65883 0.25136 0.22517 0.0
H2559 H 0.58248 0.29069 0.20847 0.0
H2560 H 0.61333 0.29173 0.22207 0.0
H2561 H 0.63342 0.23948 0.20902 0.0
H2562 H 0.7208 0.24034 0.24909 0.0
H2563 H 0.68876 0.23796 0.24032 0.0
H2564 H 0.66645 0.2893 0.25692 0.0
C2565 C 0.60455 0.2787 0.21864 0.0
C2566 C 0.64034 0.25036 0.21966 0.0
C2567 C 0.58666 0.27814 0.21093 0.0
C2568 C 0.7155 0.25256 0.24952 0.0
C2569 C 0.69693 0.25126 0.24424 0.0
C2570 C 0.6596 0.27839 0.24628 0.0
C2571 C 0.6113 0.26275 0.22065 0.0
C2572 C 0.63108 0.26342 0.22721 0.0
C2573 C 0.68903 0.26674 0.24433 0.0
C2574 C 0.66896 0.26545 0.23858 0.0
H2575 H 0.57246 0.23275 0.2032 0.0
H2576 H 0.60339 0.23359 0.2169 0.0
H2577 H 0.63474 0.28768 0.2472 0.0
H2578 H 0.72737 0.29807 0.25945 0.0
H2579 H 0.69558 0.29595 0.24995 0.0
C2580 C 0.54804 0.86811 0.88055 0.0
C2581 C 0.54593 0.85158 0.8883 0.0
C2582 C 0.54695 0.88423 0.89181 0.0
C2583 C 0.54898 0.90376 0.9434 0.0
H2584 H 0.52958 0.94189 0.92145 0.0
C2585 C 0.54969 0.97177 0.98974 0.0
C2586 C 0.53622 0.9816 0.98544 0.0
C2587 C 0.5513 0.9565 0.97753 0.0
C2588 C 0.53488 0.93137 0.92801 0.0
H2589 H 0.5407 0.83925 0.91407 0.0
H2590 H 0.5385 0.86679 0.93327 0.0
H2591 H 0.53102 0.91453 0.90114 0.0
H2592 H 0.51338 0.98258 0.9653 0.0
H2593 H 0.51568 0.95583 0.94432 0.0
H2594 H 0.55215 0.92007 0.97036 0.0
C2595 C 0.54139 0.86763 0.91868 0.0
C2596 C 0.53597 0.91565 0.91617 0.0
C2597 C 0.54248 0.85165 0.9075 0.0
C2598 C 0.52421 0.97561 0.96875 0.0
C2599 C 0.5256 0.96017 0.95667 0.0
C2600 C 0.54774 0.91936 0.95525 0.0
C2601 C 0.54376 0.8843 0.91117 0.0
C2602 C 0.54298 0.90148 0.92364 0.0
C2603 C 0.53921 0.95028 0.96076 0.0
C2604 C 0.54065 0.93353 0.94785 0.0
H2605 H 0.55072 0.86864 0.86585 0.0
H2606 H 0.54899 0.8967 0.88539 0.0
H2607 H 0.55479 0.89348 0.94986 0.0
H2608 H 0.55922 0.97608 0.00246 0.0
H2609 H 0.56223 0.94974 0.98124 0.0
C2610 C 0.96574 0.74831 0.72274 0.0
C2611 C 0.96882 0.75123 0.70382 0.0
C2612 C 0.94901 0.74951 0.7295 0.0
C2613 C 0.90629 0.76772 0.71753 0.0
H2614 H 0.8877 0.7389 0.75592 0.0
C2615 C 0.84113 0.77963 0.75003 0.0
C2616 C 0.82963 0.7655 0.75676 0.0
C2617 C 0.85786 0.77759 0.74421 0.0
C2618 C 0.89247 0.74702 0.74506 0.0
H2619 H 0.956 0.7577 0.67738 0.0
H2620 H 0.92739 0.75956 0.6888 0.0
H2621 H 0.91645 0.73585 0.74493 0.0
H2622 H 0.82721 0.73752 0.76173 0.0
H2623 H 0.85607 0.73372 0.75116 0.0
H2624 H 0.88231 0.77862 0.71721 0.0
C2625 C 0.93784 0.75656 0.69873 0.0
C2626 C 0.9093 0.74542 0.73886 0.0
C2627 C 0.95443 0.75529 0.69201 0.0
C2628 C 0.83556 0.74893 0.75694 0.0
C2629 C 0.85236 0.74679 0.75094 0.0
C2630 C 0.88954 0.76933 0.72372 0.0
C2631 C 0.93465 0.75383 0.71768 0.0
C2632 C 0.91663 0.75568 0.72485 0.0
C2633 C 0.86398 0.76112 0.74441 0.0
C2634 C 0.88213 0.75905 0.73766 0.0
H2635 H 0.97634 0.74528 0.73246 0.0
H2636 H 0.94751 0.74741 0.74421 0.0
H2637 H 0.91119 0.77621 0.70702 0.0
H2638 H 0.83713 0.79244 0.749 0.0
H2639 H 0.86607 0.78921 0.73968 0.0
C2640 C 0.10325 0.0429 0.83784 0.0
C2641 C 0.12083 0.04004 0.83724 0.0
C2642 C 0.09509 0.04154 0.85464 0.0
C2643 C 0.10488 0.04033 0.90727 0.0
H2644 H 0.0543 0.01942 0.90284 0.0
C2645 C 0.06878 0.02176 0.97301 0.0
C2646 C 0.05186 0.02637 0.97388 0.0
C2647 C 0.07725 0.02317 0.9564 0.0
C2648 C 0.0684 0.02542 0.90434 0.0
H2649 H 0.14369 0.03365 0.85391 0.0
H2650 H 0.1294 0.03092 0.88306 0.0
H2651 H 0.06903 0.02267 0.87405 0.0
H2652 H 0.03058 0.03604 0.95783 0.0
H2653 H 0.04527 0.03836 0.92891 0.0
H2654 H 0.10421 0.04284 0.93761 0.0
C2655 C 0.12197 0.03457 0.8707 0.0
C2656 C 0.07688 0.02736 0.88779 0.0
C2657 C 0.13018 0.03608 0.85393 0.0
C2658 C 0.04355 0.03225 0.95766 0.0
C2659 C 0.05196 0.03353 0.94102 0.0
C2660 C 0.09642 0.03827 0.92382 0.0
C2661 C 0.10423 0.03712 0.87127 0.0
C2662 C 0.09523 0.03494 0.88899 0.0
C2663 C 0.06896 0.0291 0.94019 0.0
C2664 C 0.07806 0.03088 0.92257 0.0
H2665 H 0.0957 0.04601 0.82524 0.0
H2666 H 0.08157 0.04397 0.85456 0.0
H2667 H 0.11894 0.04646 0.90884 0.0
H2668 H 0.07556 0.01715 0.98521 0.0
H2669 H 0.09025 0.01945 0.95619 0.0
C2670 C 0.77454 0.39807 0.55214 0.0
C2671 C 0.78988 0.39549 0.54368 0.0
C2672 C 0.77256 0.39348 0.57057 0.0
C2673 C 0.79601 0.38453 0.61474 0.0
H2674 H 0.76134 0.33987 0.61165 0.0
C2675 C 0.79892 0.31698 0.64648 0.0
C2676 C 0.80241 0.32263 0.6662 0.0
C2677 C 0.79162 0.32775 0.6342 0.0
C2678 C 0.77075 0.35255 0.61286 0.0
H2679 H 0.81576 0.38779 0.54805 0.0
H2680 H 0.81253 0.38029 0.58039 0.0
H2681 H 0.76042 0.35888 0.58562 0.0
H2682 H 0.80017 0.34352 0.68864 0.0
H2683 H 0.78753 0.36229 0.66707 0.0
H2684 H 0.80707 0.3777 0.64135 0.0
C2685 C 0.80196 0.38553 0.57276 0.0
C2686 C 0.77015 0.36344 0.59813 0.0
C2687 C 0.80373 0.38961 0.55426 0.0
C2688 C 0.79753 0.33872 0.67352 0.0
C2689 C 0.79033 0.3495 0.66124 0.0
C2690 C 0.79639 0.37385 0.62961 0.0
C2691 C 0.78617 0.38692 0.58081 0.0
C2692 C 0.78331 0.37902 0.59861 0.0
C2693 C 0.78781 0.34433 0.64149 0.0
C2694 C 0.78428 0.3574 0.62833 0.0
H2695 H 0.76376 0.4027 0.54416 0.0
H2696 H 0.76026 0.39452 0.5766 0.0
H2697 H 0.80638 0.39641 0.6152 0.0
H2698 H 0.80233 0.30453 0.6405 0.0
H2699 H 0.78997 0.32366 0.61892 0.0
C2700 C 0.41214 1.00029 0.35149 0.0
C2701 C 0.40181 0.01357 0.34969 0.0
C2702 C 0.42212 0.99977 0.36879 0.0
C2703 C 0.43418 0.02079 0.41859 0.0
H2704 H 0.48239 0.02146 0.40539 0.0
C2705 C 0.49467 0.04417 0.47431 0.0
C2706 C 0.50574 0.03141 0.47562 0.0
C2707 C 0.4824 0.04298 0.45821 0.0
C2708 C 0.469 0.02124 0.40923 0.0
H2709 H 0.392 0.0355 0.36437 0.0
H2710 H 0.4103 0.03528 0.39463 0.0
H2711 H 0.45723 0.0139 0.38039 0.0
H2712 H 0.51391 0.00837 0.46081 0.0
H2713 H 0.49231 0.00618 0.43276 0.0
H2714 H 0.44614 0.02831 0.4475 0.0
C2715 C 0.41036 0.02496 0.38294 0.0
C2716 C 0.4546 0.01672 0.39503 0.0
C2717 C 0.39998 0.02516 0.36569 0.0
C2718 C 0.50549 0.01837 0.46008 0.0
C2719 C 0.49317 0.01713 0.44404 0.0
C2720 C 0.44864 0.02533 0.43283 0.0
C2721 C 0.42229 0.01295 0.38415 0.0
C2722 C 0.43709 0.01637 0.39962 0.0
C2723 C 0.4811 0.02899 0.44338 0.0
C2724 C 0.4661 0.02555 0.42819 0.0
H2725 H 0.41344 0.9911 0.33926 0.0
H2726 H 0.4309 0.99009 0.36964 0.0
H2727 H 0.42079 0.02067 0.42237 0.0
H2728 H 0.49491 0.05451 0.48607 0.0
H2729 H 0.47341 0.05247 0.4577 0.0
C2730 C 0.77006 0.71654 0.06768 0.0
C2731 C 0.77187 0.69883 0.06144 0.0
C2732 C 0.77133 0.72264 0.08711 0.0
C2733 C 0.78753 0.71478 0.13584 0.0
H2734 H 0.75125 0.74146 0.15032 0.0
C2735 C 0.78103 0.73631 0.21531 0.0
C2736 C 0.77626 0.75306 0.22026 0.0
C2737 C 0.78044 0.72935 0.19615 0.0
C2738 C 0.76166 0.73429 0.14659 0.0
H2739 H 0.77732 0.67395 0.07115 0.0
H2740 H 0.77966 0.68474 0.1054 0.0
H2741 H 0.75106 0.72987 0.117 0.0
H2742 H 0.76697 0.77557 0.20871 0.0
H2743 H 0.76605 0.76357 0.17526 0.0
H2744 H 0.79837 0.71948 0.16538 0.0
C2745 C 0.77716 0.69383 0.095 0.0
C2746 C 0.76151 0.72755 0.12741 0.0
C2747 C 0.77582 0.68763 0.07538 0.0
C2748 C 0.77059 0.76257 0.20546 0.0
C2749 C 0.77005 0.75562 0.18622 0.0
C2750 C 0.78779 0.72166 0.15505 0.0
C2751 C 0.7745 0.7113 0.10107 0.0
C2752 C 0.77448 0.71778 0.12173 0.0
C2753 C 0.7751 0.73894 0.18126 0.0
C2754 C 0.77486 0.73156 0.16073 0.0
H2755 H 0.76731 0.72574 0.0575 0.0
H2756 H 0.76967 0.7363 0.09122 0.0
H2757 H 0.79783 0.7075 0.13196 0.0
H2758 H 0.78525 0.72845 0.22628 0.0
H2759 H 0.78404 0.71632 0.19305 0.0
C2760 C 0.12126 0.03516 0.72107 0.0
C2761 C 0.10875 0.03475 0.73438 0.0
C2762 C 0.11553 0.03289 0.70133 0.0
C2763 C 0.0749 0.01669 0.66569 0.0
H2764 H 0.10036 0.04882 0.63395 0.0
C2765 C 0.04999 0.01406 0.58538 0.0
C2766 C 0.05195 0.03037 0.57726 0.0
C2767 C 0.05835 0.01328 0.60373 0.0
C2768 C 0.09295 0.03982 0.64259 0.0
H2769 H 0.08043 0.0308 0.73738 0.0
H2770 H 0.07051 0.02683 0.70334 0.0
H2771 H 0.11203 0.04947 0.66735 0.0
H2772 H 0.06472 0.05852 0.58201 0.0
H2773 H 0.07827 0.05757 0.6143 0.0
H2774 H 0.05531 0.00769 0.64141 0.0
C2775 C 0.08473 0.02888 0.70793 0.0
C2776 C 0.09985 0.04 0.66174 0.0
C2777 C 0.09043 0.03132 0.72753 0.0
C2778 C 0.06269 0.04581 0.58787 0.0
C2779 C 0.07073 0.04516 0.60639 0.0
C2780 C 0.06792 0.01662 0.64663 0.0
C2781 C 0.09716 0.02991 0.69451 0.0
C2782 C 0.09078 0.0286 0.67364 0.0
C2783 C 0.06865 0.02889 0.61468 0.0
C2784 C 0.0767 0.02833 0.63479 0.0
H2785 H 0.13547 0.03786 0.7259 0.0
H2786 H 0.12549 0.0336 0.69143 0.0
H2787 H 0.06766 0.00751 0.67428 0.0
H2788 H 0.04193 1.00183 0.5776 0.0
H2789 H 0.05671 1.00038 0.60928 0.0
C2790 C 0.78218 0.40655 0.42637 0.0
C2791 C 0.78994 0.40122 0.44315 0.0
C2792 C 0.78283 0.3969 0.40871 0.0
C2793 C 0.78601 0.35111 0.39109 0.0
H2794 H 0.79166 0.36914 0.34214 0.0
C2795 C 0.7968 0.30598 0.32745 0.0
C2796 C 0.78237 0.3028 0.31301 0.0
C2797 C 0.79906 0.32083 0.34114 0.0
C2798 C 0.79001 0.3641 0.35579 0.0
H2799 H 0.80596 0.38317 0.45482 0.0
H2800 H 0.80778 0.36687 0.4241 0.0
H2801 H 0.79401 0.39056 0.37117 0.0
H2802 H 0.75894 0.31205 0.30111 0.0
H2803 H 0.76294 0.33839 0.32539 0.0
H2804 H 0.78238 0.32478 0.37595 0.0
C2805 C 0.80056 0.37791 0.42451 0.0
C2806 C 0.79131 0.37622 0.37226 0.0
C2807 C 0.79958 0.38724 0.44207 0.0
C2808 C 0.77039 0.3147 0.31198 0.0
C2809 C 0.77268 0.32966 0.32572 0.0
C2810 C 0.78493 0.33912 0.3748 0.0
C2811 C 0.79149 0.38209 0.40781 0.0
C2812 C 0.78963 0.36976 0.39007 0.0
C2813 C 0.78679 0.33247 0.34057 0.0
C2814 C 0.78716 0.34555 0.35717 0.0
H2815 H 0.77472 0.41739 0.42702 0.0
H2816 H 0.77574 0.40036 0.39601 0.0
H2817 H 0.78404 0.34573 0.40452 0.0
H2818 H 0.80604 0.29675 0.32839 0.0
H2819 H 0.8099 0.32281 0.35268 0.0
C2820 C 0.41345 0.0341 0.24351 0.0
C2821 C 0.41671 0.01891 0.25211 0.0
C2822 C 0.41745 0.03603 0.22488 0.0
C2823 C 0.42345 0.01067 0.18069 0.0
H2824 H 0.46574 0.04655 0.17733 0.0
C2825 C 0.46622 1.00181 0.12056 0.0
C2826 C 0.48396 1.00175 0.12793 0.0
C2827 C 0.45494 0.00935 0.13187 0.0
C2828 C 0.4537 0.03671 0.1779 0.0
H2829 H 0.42582 0.99355 0.2481 0.0
H2830 H 0.43237 0.9967 0.21547 0.0
H2831 H 0.44934 0.04895 0.20517 0.0
H2832 H 0.50411 0.01034 0.15243 0.0
H2833 H 0.48421 0.02292 0.17249 0.0
H2834 H 0.42858 0.99747 0.1544 0.0
C2835 C 0.42696 0.00717 0.22312 0.0
C2836 C 0.44426 0.03818 0.19368 0.0
C2837 C 0.42344 0.00547 0.24179 0.0
C2838 C 0.49041 0.00992 0.14655 0.0
C2839 C 0.47912 0.01745 0.15786 0.0
C2840 C 0.43278 0.00925 0.16488 0.0
C2841 C 0.42411 0.02249 0.21461 0.0
C2842 C 0.42975 0.02457 0.19563 0.0
C2843 C 0.46119 0.01692 0.15073 0.0
C2844 C 0.4486 0.02166 0.16396 0.0
H2845 H 0.40821 0.04459 0.25132 0.0
H2846 H 0.41539 0.04802 0.21852 0.0
H2847 H 0.41226 1.00005 0.18204 0.0
H2848 H 0.4609 0.99556 0.10623 0.0
H2849 H 0.44117 0.00877 0.12607 0.0
C2850 C 0.76526 0.70068 0.95767 0.0
C2851 C 0.76846 0.68312 0.95872 0.0
C2852 C 0.7665 0.70866 0.94069 0.0
C2853 C 0.78753 0.7065 0.89587 0.0
H2854 H 0.75311 0.735 0.87885 0.0
C2855 C 0.78795 0.73525 0.82263 0.0
C2856 C 0.78231 0.75172 0.82097 0.0
C2857 C 0.78651 0.72692 0.83941 0.0
C2858 C 0.76306 0.72736 0.88348 0.0
H2859 H 0.77521 0.66007 0.94254 0.0
H2860 H 0.77737 0.67399 0.91285 0.0
H2861 H 0.74965 0.72028 0.90767 0.0
H2862 H 0.77134 0.77263 0.83615 0.0
H2863 H 0.76961 0.75862 0.86553 0.0
H2864 H 0.80117 0.71383 0.87195 0.0
C2865 C 0.77401 0.68164 0.92525 0.0
C2866 C 0.76099 0.71881 0.90004 0.0
C2867 C 0.77261 0.6736 0.94223 0.0
C2868 C 0.77578 0.75992 0.83681 0.0
C2869 C 0.77456 0.75172 0.85366 0.0
C2870 C 0.7897 0.71519 0.8794 0.0
C2871 C 0.77111 0.69935 0.9243 0.0
C2872 C 0.77318 0.70823 0.90645 0.0
C2873 C 0.77964 0.73494 0.85516 0.0
C2874 C 0.77749 0.72576 0.8729 0.0
H2875 H 0.76209 0.70844 0.97011 0.0
H2876 H 0.76432 0.72235 0.94057 0.0
H2877 H 0.79734 0.69871 0.90053 0.0
H2878 H 0.79314 0.72858 0.81077 0.0
H2879 H 0.79041 0.71394 0.8398 0.0
C2880 C 0.81512 0.08993 0.05637 0.0
C2881 C 0.81565 0.10858 0.05767 0.0
C2882 C 0.83106 0.08335 0.05653 0.0
C2883 C 0.87164 0.09678 0.03723 0.0
H2884 H 0.88971 0.05841 0.0604 0.0
C2885 C 0.93399 0.0754 0.01372 0.0
C2886 C 0.93287 0.0568 0.00941 0.0
C2887 C 0.92166 0.08188 0.02438 0.0
C2888 C 0.88474 0.0691 0.0538 0.0
H2889 H 0.83295 0.13499 0.06273 0.0
H2890 H 0.86061 0.1235 0.06296 0.0
H2891 H 0.86373 0.06912 0.07188 0.0
H2892 H 0.91881 0.03032 0.01373 0.0
H2893 H 0.89685 0.04165 0.03198 0.0
H2894 H 0.89169 0.09637 0.01851 0.0
C2895 C 0.84802 0.114 0.06158 0.0
C2896 C 0.86999 0.07521 0.0604 0.0
C2897 C 0.83221 0.12053 0.06139 0.0
C2898 C 0.9199 0.04475 0.01688 0.0
C2899 C 0.9074 0.05124 0.0274 0.0
C2900 C 0.88613 0.0906 0.03053 0.0
C2901 C 0.84751 0.09543 0.05805 0.0
C2902 C 0.86346 0.08916 0.05219 0.0
C2903 C 0.90782 0.06987 0.03069 0.0
C2904 C 0.89291 0.07675 0.03876 0.0
H2905 H 0.80248 0.08049 0.05354 0.0
H2906 H 0.83043 0.06896 0.05375 0.0
H2907 H 0.86648 0.10723 0.03032 0.0
H2908 H 0.94413 0.08494 0.00843 0.0
H2909 H 0.9226 0.09632 0.02711 0.0
C2910 C 0.3469 0.42585 0.03015 0.0
C2911 C 0.34717 0.40797 0.03361 0.0
C2912 C 0.36296 0.43837 0.03094 0.0
C2913 C 0.41012 0.44822 0.05148 0.0
H2914 H 0.41924 0.4733 0.00727 0.0
C2915 C 0.48113 0.4853 0.04254 0.0
C2916 C 0.48312 0.50053 0.03256 0.0
C2917 C 0.46416 0.47505 0.04349 0.0
C2918 C 0.41688 0.46675 0.01995 0.0
H2919 H 0.36442 0.38942 0.0413 0.0
H2920 H 0.39226 0.41131 0.04316 0.0
H2921 H 0.39008 0.4543 0.00807 0.0
H2922 H 0.46859 0.51672 0.01556 0.0
H2923 H 0.43912 0.49973 0.01833 0.0
H2924 H 0.43662 0.46081 0.06365 0.0
C2925 C 0.3797 0.41561 0.03962 0.0
C2926 C 0.40013 0.45579 0.02033 0.0
C2927 C 0.36375 0.40305 0.03844 0.0
C2928 C 0.46765 0.50535 0.02377 0.0
C2929 C 0.45065 0.49532 0.02504 0.0
C2930 C 0.42674 0.45943 0.05128 0.0
C2931 C 0.37952 0.43333 0.03566 0.0
C2932 C 0.39668 0.44621 0.03597 0.0
C2933 C 0.44863 0.47989 0.03474 0.0
C2934 C 0.4305 0.46867 0.03538 0.0
H2935 H 0.33433 0.43003 0.02633 0.0
H2936 H 0.36245 0.45198 0.02789 0.0
H2937 H 0.40775 0.4411 0.0638 0.0
H2938 H 0.49273 0.48101 0.0493 0.0
H2939 H 0.46332 0.46307 0.05072 0.0
C2940 C 0.38599 0.55711 0.75193 0.0
C2941 C 0.40372 0.5586 0.76023 0.0
C2942 C 0.37792 0.57221 0.75234 0.0
C2943 C 0.38055 0.61594 0.78049 0.0
H2944 H 0.34708 0.62336 0.73852 0.0
C2945 C 0.34022 0.67323 0.78657 0.0
C2946 C 0.3218 0.66743 0.78086 0.0
C2947 C 0.3522 0.66199 0.78202 0.0
C2948 C 0.35639 0.62146 0.75036 0.0
H2949 H 0.4271 0.57716 0.77495 0.0
H2950 H 0.413 0.60356 0.77561 0.0
H2951 H 0.36449 0.59964 0.73419 0.0
H2952 H 0.30144 0.64605 0.7653 0.0
H2953 H 0.32226 0.62647 0.75719 0.0
H2954 H 0.37207 0.63741 0.79683 0.0
C2955 C 0.40531 0.59069 0.76893 0.0
C2956 C 0.36634 0.60787 0.74789 0.0
C2957 C 0.4134 0.57559 0.76844 0.0
C2958 C 0.3156 0.65068 0.76991 0.0
C2959 C 0.32754 0.63958 0.76516 0.0
C2960 C 0.3706 0.62954 0.78296 0.0
C2961 C 0.3874 0.58911 0.76112 0.0
C2962 C 0.37825 0.60472 0.76305 0.0
C2963 C 0.34592 0.64495 0.77146 0.0
C2964 C 0.35814 0.63218 0.76804 0.0
H2965 H 0.37817 0.5442 0.7455 0.0
H2966 H 0.36404 0.5705 0.74639 0.0
H2967 H 0.38945 0.61371 0.79252 0.0
H2968 H 0.34523 0.68614 0.79506 0.0
H2969 H 0.3663 0.66652 0.78696 0.0
C2970 C 0.20442 0.61703 0.53847 0.0
C2971 C 0.21753 0.61037 0.52899 0.0
C2972 C 0.18753 0.6065 0.53799 0.0
C2973 C 0.15515 0.5733 0.50815 0.0
H2974 H 0.13201 0.56921 0.55433 0.0
C2975 C 0.08274 0.53542 0.51161 0.0
C2976 C 0.07353 0.54297 0.52544 0.0
C2977 C 0.1003 0.54345 0.50989 0.0
C2978 C 0.13825 0.57045 0.54129 0.0
H2979 H 0.22381 0.58751 0.51208 0.0
H2980 H 0.19355 0.56903 0.51056 0.0
H2981 H 0.16391 0.58156 0.55678 0.0
H2982 H 0.07421 0.56511 0.54732 0.0
H2983 H 0.10474 0.57967 0.5439 0.0
H2984 H 0.12928 0.56273 0.49263 0.0
C2985 C 0.19657 0.58238 0.51847 0.0
C2986 C 0.15649 0.57726 0.54274 0.0
C2987 C 0.21373 0.59284 0.51934 0.0
C2988 C 0.08127 0.55926 0.53652 0.0
C2989 C 0.09871 0.56739 0.53469 0.0
C2990 C 0.13679 0.56655 0.50669 0.0
C2991 C 0.1834 0.58924 0.52776 0.0
C2992 C 0.16498 0.57911 0.52619 0.0
C2993 C 0.10867 0.55905 0.52208 0.0
C2994 C 0.12814 0.56551 0.52326 0.0
H2995 H 0.20725 0.63044 0.54627 0.0
H2996 H 0.17753 0.61207 0.54516 0.0
H2997 H 0.16149 0.57482 0.49522 0.0
H2998 H 0.07685 0.52266 0.50316 0.0
H2999 H 0.10769 0.53676 0.50008 0.0
C3000 C 0.7156 0.9925 0.7432 0.0
C3001 C 0.69712 0.99168 0.74318 0.0
C3002 C 0.72241 0.97664 0.74249 0.0
C3003 C 0.7155 0.94108 0.76688 0.0
H3004 H 0.73646 0.90942 0.73324 0.0
C3005 C 0.72956 0.87539 0.78974 0.0
C3006 C 0.74755 0.87381 0.78989 0.0
C3007 C 0.72296 0.88797 0.77947 0.0
C3008 C 0.73061 0.91823 0.74267 0.0
H3009 H 0.6711 0.97386 0.74003 0.0
H3010 H 0.68312 0.94634 0.7392 0.0
H3011 H 0.72668 0.93603 0.72141 0.0
H3012 H 0.77256 0.88363 0.77875 0.0
H3013 H 0.76085 0.90546 0.76065 0.0
H3014 H 0.71939 0.92375 0.78818 0.0
C3015 C 0.69223 0.95912 0.73961 0.0
C3016 C 0.72515 0.93332 0.73597 0.0
C3017 C 0.68543 0.97487 0.74034 0.0
C3018 C 0.75858 0.88441 0.7788 0.0
C3019 C 0.75191 0.89687 0.76838 0.0
C3020 C 0.72085 0.92612 0.77351 0.0
C3021 C 0.71074 0.96002 0.74161 0.0
C3022 C 0.71748 0.94464 0.74809 0.0
C3023 C 0.73423 0.89907 0.76913 0.0
C3024 C 0.72826 0.91449 0.76143 0.0
H3025 H 0.72483 0.00533 0.74522 0.0
H3026 H 0.73677 0.97744 0.74433 0.0
H3027 H 0.70972 0.9499 0.7764 0.0
H3028 H 0.72067 0.86709 0.79776 0.0
H3029 H 0.70919 0.88944 0.78005 0.0
C3030 C 0.74876 0.92602 0.54343 0.0
C3031 C 0.74716 0.90761 0.53709 0.0
C3032 C 0.73362 0.93395 0.54314 0.0
C3033 C 0.68788 0.92745 0.51831 0.0
H3034 H 0.68238 0.96527 0.55697 0.0
C3035 C 0.62662 0.96063 0.51064 0.0
C3036 C 0.63033 0.97952 0.51333 0.0
C3037 C 0.63946 0.95095 0.51707 0.0
C3038 C 0.68375 0.95476 0.54604 0.0
H3039 H 0.72834 0.88295 0.52613 0.0
H3040 H 0.70193 0.89671 0.52587 0.0
H3041 H 0.70779 0.95004 0.56126 0.0
H3042 H 0.64981 1.0032 0.52545 0.0
H3043 H 0.6724 0.98637 0.53672 0.0
H3044 H 0.6642 0.93238 0.50283 0.0
C3045 C 0.71491 0.9051 0.53078 0.0
C3046 C 0.69832 0.94605 0.54847 0.0
C3047 C 0.73004 0.89718 0.53106 0.0
C3048 C 0.64661 0.9886 0.52356 0.0
C3049 C 0.65952 0.97893 0.52995 0.0
C3050 C 0.67336 0.93613 0.51588 0.0
C3051 C 0.71653 0.92365 0.53651 0.0
C3052 C 0.70062 0.93237 0.53457 0.0
C3053 C 0.65635 0.96001 0.5261 0.0
C3054 C 0.67114 0.94997 0.52964 0.0
H3055 H 0.76178 0.93443 0.54812 0.0
H3056 H 0.73539 0.9483 0.54747 0.0
H3057 H 0.68941 0.91725 0.50711 0.0
H3058 H 0.6142 0.95341 0.50254 0.0
H3059 H 0.63646 0.93638 0.51419 0.0
C3060 C 0.40573 0.44199 0.75669 0.0
C3061 C 0.40175 0.45892 0.7624 0.0
C3062 C 0.39272 0.42632 0.75558 0.0
C3063 C 0.35315 0.40709 0.77636 0.0
H3064 H 0.34552 0.37057 0.73252 0.0
C3065 C 0.30216 0.34032 0.77349 0.0
C3066 C 0.30686 0.32455 0.76505 0.0
C3067 C 0.3123 0.35729 0.77195 0.0
C3068 C 0.34761 0.3805 0.745 0.0
H3069 H 0.38096 0.47274 0.7713 0.0
H3070 H 0.35827 0.44514 0.76984 0.0
H3071 H 0.36588 0.39914 0.73201 0.0
H3072 H 0.32604 0.31435 0.74846 0.0
H3073 H 0.34401 0.34372 0.74636 0.0
H3074 H 0.33559 0.38828 0.78978 0.0
C3075 C 0.37145 0.44411 0.76606 0.0
C3076 C 0.35921 0.39692 0.74462 0.0
C3077 C 0.38439 0.45987 0.76679 0.0
C3078 C 0.32192 0.32619 0.75502 0.0
C3079 C 0.33218 0.34312 0.75368 0.0
C3080 C 0.34175 0.39055 0.77688 0.0
C3081 C 0.37553 0.42718 0.76049 0.0
C3082 C 0.36221 0.41032 0.76036 0.0
C3083 C 0.32757 0.35893 0.76217 0.0
C3084 C 0.33895 0.37694 0.76126 0.0
H3085 H 0.41894 0.44083 0.7531 0.0
H3086 H 0.39627 0.41344 0.75136 0.0
H3087 H 0.35539 0.41712 0.78878 0.0
H3088 H 0.29082 0.3396 0.7816 0.0
H3089 H 0.30816 0.36911 0.77849 0.0
C3090 C 0.21304 0.59258 0.27336 0.0
C3091 C 0.19516 0.59024 0.26527 0.0
C3092 C 0.22427 0.60942 0.27449 0.0
C3093 C 0.22935 0.65165 0.25342 0.0
H3094 H 0.24843 0.67537 0.30429 0.0
C3095 C 0.24733 0.72706 0.26596 0.0
C3096 C 0.2651 0.73359 0.27362 0.0
C3097 C 0.23949 0.7094 0.26762 0.0
C3098 C 0.24329 0.66879 0.29004 0.0
H3099 H 0.17516 0.60292 0.25097 0.0
H3100 H 0.19473 0.63211 0.25276 0.0
H3101 H 0.23553 0.64303 0.29983 0.0
H3102 H 0.28846 0.72815 0.29013 0.0
H3103 H 0.27467 0.69697 0.29313 0.0
H3104 H 0.23657 0.67734 0.24362 0.0
C3105 C 0.20005 0.62115 0.25843 0.0
C3106 C 0.23614 0.65038 0.28746 0.0
C3107 C 0.18882 0.60456 0.25764 0.0
C3108 C 0.27461 0.7231 0.2843 0.0
C3109 C 0.26677 0.70541 0.28601 0.0
C3110 C 0.23643 0.66996 0.25598 0.0
C3111 C 0.21775 0.62375 0.26706 0.0
C3112 C 0.22867 0.64188 0.26922 0.0
C3113 C 0.24951 0.69823 0.2768 0.0
C3114 C 0.24292 0.67874 0.27437 0.0
H3115 H 0.21815 0.58157 0.27916 0.0
H3116 H 0.23794 0.61129 0.28118 0.0
H3117 H 0.22377 0.64523 0.23921 0.0
H3118 H 0.23999 0.73516 0.25758 0.0
H3119 H 0.22604 0.70411 0.26067 0.0
C3120 C 0.51929 0.70964 0.45434 0.0
C3121 C 0.50519 0.71776 0.46014 0.0
C3122 C 0.5216 0.69253 0.45967 0.0
C3123 C 0.50337 0.65664 0.49196 0.0
H3124 H 0.53358 0.62886 0.46616 0.0
C3125 C 0.50573 0.58134 0.50514 0.0
C3126 C 0.52257 0.57612 0.50661 0.0
C3127 C 0.50365 0.59832 0.49942 0.0
C3128 C 0.5251 0.6364 0.47365 0.0
H3129 H 0.48208 0.71328 0.47567 0.0
H3130 H 0.48526 0.68384 0.48379 0.0
H3131 H 0.52993 0.65785 0.45613 0.0
H3132 H 0.55036 0.58522 0.50261 0.0
H3133 H 0.54672 0.6143 0.49254 0.0
H3134 H 0.49821 0.63471 0.50904 0.0
C3135 C 0.49531 0.69067 0.47593 0.0
C3136 C 0.52302 0.65337 0.46791 0.0
C3137 C 0.49327 0.70782 0.47099 0.0
C3138 C 0.53715 0.58852 0.50186 0.0
C3139 C 0.53503 0.60533 0.49588 0.0
C3140 C 0.50517 0.63953 0.49739 0.0
C3141 C 0.50969 0.68255 0.47074 0.0
C3142 C 0.51208 0.66405 0.47689 0.0
C3143 C 0.51826 0.61069 0.4946 0.0
C3144 C 0.51611 0.62902 0.48843 0.0
H3145 H 0.52889 0.71672 0.44609 0.0
H3146 H 0.53305 0.68743 0.45529 0.0
H3147 H 0.49523 0.66405 0.50003 0.0
H3148 H 0.49408 0.57234 0.50853 0.0
H3149 H 0.49044 0.60166 0.49853 0.0
C3150 C 0.62681 0.2927 0.63047 0.0
C3151 C 0.61002 0.29406 0.6365 0.0
C3152 C 0.64136 0.29095 0.64348 0.0
C3153 C 0.6591 0.29767 0.6956 0.0
H3154 H 0.69134 0.26704 0.67882 0.0
C3155 C 0.72764 0.29688 0.74039 0.0
C3156 C 0.73375 0.2805 0.74032 0.0
C3157 C 0.71221 0.29829 0.72839 0.0
C3158 C 0.68247 0.27556 0.68392 0.0
H3159 H 0.59578 0.29475 0.66148 0.0
H3160 H 0.62118 0.29186 0.6842 0.0
H3161 H 0.66529 0.26967 0.65733 0.0
H3162 H 0.72843 0.25273 0.72764 0.0
H3163 H 0.70162 0.25504 0.70672 0.0
H3164 H 0.67621 0.30337 0.72231 0.0
C3165 C 0.62309 0.29221 0.66928 0.0
C3166 C 0.66752 0.27727 0.6714 0.0
C3167 C 0.60843 0.29382 0.65618 0.0
C3168 C 0.72405 0.26553 0.72802 0.0
C3169 C 0.70871 0.26695 0.7159 0.0
C3170 C 0.67412 0.29603 0.70812 0.0
C3171 C 0.63982 0.29058 0.66314 0.0
C3172 C 0.65557 0.28843 0.67693 0.0
C3173 C 0.70248 0.28337 0.7158 0.0
C3174 C 0.68615 0.28498 0.70251 0.0
H3175 H 0.62873 0.29275 0.61551 0.0
H3176 H 0.65395 0.29004 0.63805 0.0
H3177 H 0.65041 0.30649 0.7005 0.0
H3178 H 0.73485 0.30865 0.74971 0.0
H3179 H 0.70815 0.31123 0.72872 0.0
C3180 C 0.01292 0.33142 0.94065 0.0
C3181 C 0.00901 0.3173 0.95203 0.0
C3182 C 0.01385 0.34955 0.94787 0.0
C3183 C 0.01705 0.38105 0.99376 0.0
H3184 H 1.00576 0.41418 0.95818 0.0
C3185 C 0.01463 0.45707 0.0185 0.0
C3186 C 0.02116 0.47014 0.00672 0.0
C3187 C 0.01263 0.43842 0.0125 0.0
C3188 C 0.00918 0.40526 0.96839 0.0
H3189 H 1.00293 0.31169 0.98032 0.0
H3190 H 1.00406 0.34324 0.99287 0.0
H3191 H 1.00288 0.38245 0.94693 0.0
H3192 H 0.03075 0.4733 0.97921 0.0
H3193 H 0.02736 0.44117 0.96887 0.0
H3194 H 0.02302 0.40407 0.0153 0.0
C3195 C 1.00676 0.34032 0.97828 0.0
C3196 C 0.00757 0.38682 0.96187 0.0
C3197 C 1.00595 0.32207 0.97103 0.0
C3198 C 0.02563 0.46383 0.98876 0.0
C3199 C 0.02355 0.44524 0.98273 0.0
C3200 C 0.01851 0.39953 0.00034 0.0
C3201 C 0.01072 0.35451 0.96683 0.0
C3202 C 0.01169 0.37427 0.97431 0.0
C3203 C 0.01701 0.4321 0.99444 0.0
C3204 C 0.01481 0.41207 0.98772 0.0
H3205 H 0.01552 0.32852 0.92601 0.0
H3206 H 0.01739 0.35972 0.9385 0.0
H3207 H 0.02057 0.37217 0.00396 0.0
H3208 H 0.01118 0.46123 0.0325 0.0
H3209 H 0.00742 0.42894 0.02198 0.0
C3210 C 0.01115 0.77795 0.15722 0.0
C3211 C 0.01053 0.7834 0.13876 0.0
C3212 C 0.99598 0.77618 0.16703 0.0
C3213 C 0.95197 0.79048 0.16835 0.0
H3214 H 0.94157 0.75066 0.19841 0.0
C3215 C 0.88366 0.77073 0.19757 0.0
C3216 C 0.88328 0.76361 0.21514 0.0
C3217 C 0.89974 0.77484 0.18957 0.0
C3218 C 0.94438 0.76205 0.19037 0.0
H3219 H 0.99334 0.79127 0.11619 0.0
H3220 H 0.96684 0.78807 0.13322 0.0
H3221 H 0.96799 0.7539 0.18151 0.0
H3222 H 0.89944 0.75554 0.23836 0.0
H3223 H 0.92768 0.76282 0.22453 0.0
H3224 H 0.92827 0.79855 0.17712 0.0
C3225 C 0.97912 0.78529 0.14021 0.0
C3226 C 0.95958 0.76389 0.18059 0.0
C3227 C 0.9943 0.78697 0.13034 0.0
C3228 C 0.89942 0.7612 0.22488 0.0
C3229 C 0.91554 0.76518 0.21681 0.0
C3230 C 0.93677 0.78865 0.17815 0.0
C3231 C 0.97974 0.77988 0.15873 0.0
C3232 C 0.96357 0.77808 0.16934 0.0
C3233 C 0.91588 0.77172 0.19883 0.0
C3234 C 0.93267 0.77434 0.18923 0.0
H3235 H 0.02343 0.77517 0.16421 0.0
H3236 H 0.99711 0.77221 0.18132 0.0
H3237 H 0.95472 0.80177 0.16014 0.0
H3238 H 0.87135 0.77253 0.1897 0.0
H3239 H 0.89934 0.77969 0.17568 0.0
C3240 C 0.52444 0.29826 0.14347 0.0
C3241 C 0.52409 0.29946 0.1634 0.0
C3242 C 0.52511 0.31356 0.13382 0.0
C3243 C 0.5376 0.36324 0.13982 0.0
H3244 H 0.50749 0.35869 0.09152 0.0
C3245 C 0.54019 0.42346 0.09479 0.0
C3246 C 0.54015 0.4192 0.07502 0.0
C3247 C 0.53551 0.40979 0.10647 0.0
C3248 C 0.51613 0.36025 0.10488 0.0
H3249 H 0.52458 0.31795 0.18885 0.0
H3250 H 0.52615 0.3449 0.17198 0.0
H3251 H 0.50569 0.33327 0.11017 0.0
H3252 H 0.5347 0.39744 0.05189 0.0
H3253 H 0.52651 0.37371 0.07193 0.0
H3254 H 0.54851 0.39 0.13427 0.0
C3255 C 0.52579 0.33198 0.16383 0.0
C3256 C 0.51507 0.3456 0.11563 0.0
C3257 C 0.52488 0.31654 0.17351 0.0
C3258 C 0.53442 0.40116 0.06703 0.0
C3259 C 0.52979 0.38752 0.07863 0.0
C3260 C 0.5388 0.37787 0.12897 0.0
C3261 C 0.52564 0.33063 0.14379 0.0
C3262 C 0.52597 0.34678 0.13312 0.0
C3263 C 0.53081 0.39151 0.09864 0.0
C3264 C 0.52827 0.37654 0.11116 0.0
H3265 H 0.52383 0.28537 0.13515 0.0
H3266 H 0.52528 0.312 0.11846 0.0
H3267 H 0.54629 0.36461 0.15314 0.0
H3268 H 0.54494 0.4372 0.10139 0.0
H3269 H 0.53619 0.41351 0.12172 0.0
C3270 C 0.98289 0.30913 0.33089 0.0
C3271 C 0.98742 0.29848 0.34518 0.0
C3272 C 0.96482 0.30766 0.32293 0.0
C3273 C 0.91772 0.29073 0.33449 0.0
H3274 H 0.90287 0.30021 0.28316 0.0
C3275 C 0.84213 0.27719 0.30442 0.0
C3276 C 0.8357 0.28827 0.29153 0.0
C3277 C 0.86057 0.27882 0.31024 0.0
C3278 C 0.9067 0.29769 0.29764 0.0
H3279 H 0.97635 0.27744 0.36153 0.0
H3280 H 0.94556 0.27426 0.34731 0.0
H3281 H 0.93464 0.30175 0.29363 0.0
H3282 H 0.8444 0.30957 0.27444 0.0
H3283 H 0.87642 0.31283 0.28489 0.0
H3284 H 0.88998 0.28672 0.33863 0.0
C3285 C 0.95561 0.28422 0.34251 0.0
C3286 C 0.9251 0.29857 0.3037 0.0
C3287 C 0.97348 0.28581 0.35051 0.0
C3288 C 0.84857 0.30109 0.2847 0.0
C3289 C 0.86711 0.30272 0.2905 0.0
C3290 C 0.89943 0.28982 0.32845 0.0
C3291 C 0.95071 0.29551 0.32902 0.0
C3292 C 0.93101 0.29494 0.32223 0.0
C3293 C 0.87353 0.2916 0.30343 0.0
C3294 C 0.89344 0.29314 0.30986 0.0
H3295 H 0.99313 0.31932 0.32669 0.0
H3296 H 0.96186 0.31669 0.31266 0.0
H3297 H 0.9214 0.28835 0.34905 0.0
H3298 H 0.83287 0.26702 0.31002 0.0
H3299 H 0.86463 0.26968 0.31986 0.0
C3300 C 1.00388 0.69824 0.62992 0.0
C3301 C 0.01203 0.70284 0.64891 0.0
C3302 C 1.004 0.68145 0.61975 0.0
C3303 C 0.01442 0.63519 0.6238 0.0
H3304 H 0.02095 0.63718 0.57036 0.0
C3305 C 0.01401 0.5702 0.57146 0.0
C3306 C 0.02506 0.57145 0.55663 0.0
C3307 C 0.01212 0.58568 0.58321 0.0
C3308 C 0.01931 0.63626 0.58528 0.0
H3309 H 0.02649 0.69298 0.67216 0.0
H3310 H 0.02664 0.6635 0.65454 0.0
H3311 H 0.01801 0.66422 0.59004 0.0
H3312 H 0.04309 0.59037 0.54308 0.0
H3313 H 0.03989 0.61709 0.56337 0.0
H3314 H 0.01632 0.60725 0.61906 0.0
C3315 C 0.01982 0.67283 0.64752 0.0
C3316 C 0.0173 0.65187 0.59662 0.0
C3317 C 0.01959 0.68971 0.65778 0.0
C3318 C 0.03421 0.58873 0.55406 0.0
C3319 C 0.03233 0.60419 0.56578 0.0
C3320 C 0.01647 0.61952 0.61242 0.0
C3321 C 0.01257 0.66865 0.62807 0.0
C3322 C 0.01472 0.65167 0.61609 0.0
C3323 C 0.02119 0.60301 0.58056 0.0
C3324 C 0.01896 0.61975 0.59291 0.0
H3325 H 0.99824 0.70813 0.62251 0.0
H3326 H 0.99782 0.67878 0.60506 0.0
H3327 H 0.01241 0.63429 0.63863 0.0
H3328 H 1.00666 0.55721 0.57394 0.0
H3329 H 1.00324 0.58403 0.59416 0.0
C3330 C 0.59288 0.78767 0.82465 0.0
C3331 C 0.59239 0.79992 0.84085 0.0
C3332 C 0.60933 0.78538 0.81795 0.0
C3333 C 0.65825 0.80797 0.82067 0.0
H3334 H 0.66506 0.76071 0.80064 0.0
C3335 C 0.72908 0.79513 0.80299 0.0
C3336 C 0.73024 0.78203 0.78776 0.0
C3337 C 0.7124 0.79743 0.80899 0.0
C3338 C 0.66349 0.77413 0.80592 0.0
H3339 H 0.60935 0.81953 0.86236 0.0
H3340 H 0.63762 0.81593 0.85061 0.0
H3341 H 0.63642 0.7644 0.81137 0.0
H3342 H 0.71379 0.7615 0.76686 0.0
H3343 H 0.68519 0.76499 0.77744 0.0
H3344 H 0.68523 0.81775 0.81516 0.0
C3345 C 0.62535 0.80792 0.843 0.0
C3346 C 0.64684 0.77625 0.81216 0.0
C3347 C 0.60898 0.80993 0.84989 0.0
C3348 C 0.71387 0.77146 0.77878 0.0
C3349 C 0.69722 0.77353 0.78497 0.0
C3350 C 0.67486 0.80586 0.81438 0.0
C3351 C 0.62598 0.79552 0.82693 0.0
C3352 C 0.64383 0.79322 0.81977 0.0
C3353 C 0.69602 0.78658 0.80024 0.0
C3354 C 0.67796 0.78887 0.8069 0.0
H3355 H 0.58053 0.77961 0.81726 0.0
H3356 H 0.60893 0.77577 0.8055 0.0
H3357 H 0.65667 0.82136 0.82603 0.0
H3358 H 0.74114 0.80375 0.81036 0.0
H3359 H 0.71246 0.80761 0.82084 0.0
C3360 C 0.45129 0.5326 0.70854 0.0
C3361 C 0.44882 0.51499 0.71367 0.0
C3362 C 0.45746 0.53621 0.69101 0.0
C3363 C 0.46019 0.51478 0.64289 0.0
H3364 H 0.50327 0.55064 0.64268 0.0
C3365 C 0.50067 0.51382 0.57946 0.0
C3366 C 0.50768 0.53016 0.57281 0.0
C3367 C 0.4933 0.51368 0.59669 0.0
C3368 C 0.49107 0.54079 0.64243 0.0
H3369 H 0.45019 0.48731 0.7045 0.0
H3370 H 0.46018 0.4934 0.67363 0.0
H3371 H 0.48952 0.54751 0.67236 0.0
H3372 H 0.51323 0.55921 0.57948 0.0
H3373 H 0.50018 0.55902 0.60984 0.0
H3374 H 0.46159 0.50794 0.61316 0.0
C3375 C 0.45764 0.50448 0.68315 0.0
C3376 C 0.48321 0.53901 0.65941 0.0
C3377 C 0.45194 0.50098 0.70079 0.0
C3378 C 0.50782 0.54642 0.58422 0.0
C3379 C 0.50038 0.54629 0.60159 0.0
C3380 C 0.46791 0.51665 0.62596 0.0
C3381 C 0.46076 0.52216 0.67819 0.0
C3382 C 0.46792 0.52569 0.65988 0.0
C3383 C 0.49268 0.52989 0.60781 0.0
C3384 C 0.48371 0.52934 0.62558 0.0
H3385 H 0.44916 0.54365 0.71839 0.0
H3386 H 0.45972 0.54994 0.68751 0.0
H3387 H 0.44826 0.50459 0.64277 0.0
H3388 H 0.50092 0.50104 0.57134 0.0
H3389 H 0.48807 0.50078 0.6013 0.0
C3390 C 0.75861 0.13605 0.97915 0.0
C3391 C 0.77462 0.14042 0.99146 0.0
C3392 C 0.75643 0.14539 0.96331 0.0
C3393 C 0.77928 0.17547 0.93211 0.0
H3394 H 0.73754 0.19784 0.93304 0.0
C3395 C 0.75271 0.23737 0.89836 0.0
C3396 C 0.74607 0.23023 0.8794 0.0
C3397 C 0.7583 0.22625 0.91134 0.0
C3398 C 0.74924 0.19167 0.93272 0.0
H3399 H 0.80115 0.15698 0.99695 0.0
H3400 H 0.79755 0.17306 0.96894 0.0
H3401 H 0.74257 0.17646 0.95574 0.0
H3402 H 0.74045 0.20599 0.85906 0.0
H3403 H 0.75055 0.18667 0.88183 0.0
H3404 H 0.78572 0.19069 0.90883 0.0
C3405 C 0.78674 0.16247 0.97136 0.0
C3406 C 0.752 0.17934 0.94547 0.0
C3407 C 0.7888 0.15333 0.98731 0.0
C3408 C 0.74566 0.2119 0.87353 0.0
C3409 C 0.75144 0.20087 0.88646 0.0
C3410 C 0.77632 0.18761 0.91909 0.0
C3411 C 0.77032 0.15903 0.95967 0.0
C3412 C 0.76702 0.17113 0.94525 0.0
C3413 C 0.75754 0.20795 0.90544 0.0
C3414 C 0.76132 0.19579 0.91946 0.0
H3415 H 0.74745 0.12632 0.98246 0.0
H3416 H 0.74366 0.14254 0.9544 0.0
H3417 H 0.79103 0.16938 0.93184 0.0
H3418 H 0.75354 0.25152 0.90314 0.0
H3419 H 0.763 0.23184 0.92603 0.0
C3420 C 0.14947 0.55098 0.19031 0.0
C3421 C 0.15425 0.53692 0.19973 0.0
C3422 C 0.14221 0.54767 0.17128 0.0
C3423 C 0.11124 0.51167 0.14479 0.0
H3424 H 0.11098 0.54543 0.10707 0.0
C3425 C 0.05911 0.50648 0.07856 0.0
C3426 C 0.05293 0.52246 0.07604 0.0
C3427 C 0.07233 0.50626 0.09337 0.0
C3428 C 0.11098 0.53595 0.11757 0.0
H3429 H 0.15721 0.50899 0.19681 0.0
H3430 H 0.14387 0.50293 0.16333 0.0
H3431 H 0.13748 0.54805 0.13028 0.0
H3432 H 0.0542 0.55025 0.08735 0.0
H3433 H 0.07788 0.55002 0.11332 0.0
H3434 H 0.0845 0.49996 0.13241 0.0
C3435 C 0.14593 0.51652 0.17057 0.0
C3436 C 0.12613 0.53728 0.13057 0.0
C3437 C 0.15351 0.51995 0.18959 0.0
C3438 C 0.05887 0.53782 0.08928 0.0
C3439 C 0.07243 0.53773 0.10386 0.0
C3440 C 0.09615 0.51026 0.13168 0.0
C3441 C 0.13937 0.53014 0.16167 0.0
C3442 C 0.1261 0.52557 0.1447 0.0
C3443 C 0.07962 0.52212 0.10546 0.0
C3444 C 0.09578 0.5228 0.1185 0.0
H3445 H 0.15017 0.56419 0.19803 0.0
H3446 H 0.13714 0.55837 0.1648 0.0
H3447 H 0.11075 0.50271 0.15582 0.0
H3448 H 0.05441 0.49447 0.06847 0.0
H3449 H 0.0777 0.4941 0.09455 0.0
C3450 C 0.78346 0.87325 0.46458 0.0
C3451 C 0.79011 0.86623 0.48088 0.0
C3452 C 0.78314 0.86423 0.44629 0.0
C3453 C 0.80421 0.83253 0.4184 0.0
H3454 H 0.75986 0.82312 0.38424 0.0
C3455 C 0.79654 0.78849 0.34536 0.0
C3456 C 0.78586 0.793 0.33002 0.0
C3457 C 0.79709 0.79718 0.36386 0.0
C3458 C 0.77247 0.82587 0.3934 0.0
H3459 H 0.80207 0.84449 0.49075 0.0
H3460 H 0.80196 0.82898 0.45869 0.0
H3461 H 0.76123 0.83917 0.41606 0.0
H3462 H 0.76728 0.80998 0.32179 0.0
H3463 H 0.76849 0.82558 0.35386 0.0
H3464 H 0.81569 0.81979 0.39569 0.0
C3465 C 0.79684 0.84137 0.46013 0.0
C3466 C 0.7732 0.835 0.41172 0.0
C3467 C 0.79685 0.85022 0.47846 0.0
C3468 C 0.77557 0.80623 0.33345 0.0
C3469 C 0.77623 0.81508 0.35189 0.0
C3470 C 0.80358 0.82364 0.39997 0.0
C3471 C 0.78977 0.84817 0.44386 0.0
C3472 C 0.78906 0.83843 0.42442 0.0
C3473 C 0.787 0.8107 0.36742 0.0
C3474 C 0.78769 0.82015 0.38716 0.0
H3475 H 0.77812 0.88552 0.46597 0.0
H3476 H 0.77775 0.86986 0.434 0.0
H3477 H 0.81666 0.83512 0.42783 0.0
H3478 H 0.80412 0.77792 0.34318 0.0
H3479 H 0.80521 0.79304 0.3754 0.0
C3480 C 0.43692 0.51959 0.8313 0.0
C3481 C 0.44448 0.51408 0.81495 0.0
C3482 C 0.44603 0.52012 0.84955 0.0
C3483 C 0.48067 0.502 0.87698 0.0
H3484 H 0.4837 0.54501 0.91243 0.0
C3485 C 0.52105 0.51252 0.95278 0.0
C3486 C 0.51307 0.52038 0.9677 0.0
C3487 C 0.51375 0.51182 0.93367 0.0
C3488 C 0.48283 0.5328 0.90282 0.0
H3489 H 0.46723 0.50429 0.80489 0.0
H3490 H 0.483 0.50491 0.83686 0.0
H3491 H 0.46837 0.54303 0.88024 0.0
H3492 H 0.49126 0.53389 0.97407 0.0
H3493 H 0.47856 0.53246 0.94114 0.0
H3494 H 0.49476 0.49157 0.89972 0.0
C3495 C 0.47008 0.50892 0.83553 0.0
C3496 C 0.47405 0.5317 0.88434 0.0
C3497 C 0.46108 0.50861 0.81724 0.0
C3498 C 0.4978 0.52769 0.96302 0.0
C3499 C 0.49055 0.52701 0.94403 0.0
C3500 C 0.48932 0.50302 0.89558 0.0
C3501 C 0.46278 0.51494 0.85187 0.0
C3502 C 0.47269 0.51622 0.87128 0.0
C3503 C 0.49839 0.51909 0.92905 0.0
C3504 C 0.49032 0.51836 0.90883 0.0
H3505 H 0.42417 0.52392 0.83001 0.0
H3506 H 0.43996 0.52463 0.86189 0.0
H3507 H 0.47976 0.48986 0.86724 0.0
H3508 H 0.53295 0.50698 0.95582 0.0
H3509 H 0.52028 0.50579 0.92251 0.0
C3510 C 0.77344 0.15059 0.10508 0.0
C3511 C 0.77613 0.16245 0.0911 0.0
C3512 C 0.7747 0.1574 0.12433 0.0
C3513 C 0.76288 0.18453 0.15663 0.0
H3514 H 0.80753 0.2122 0.18354 0.0
C3515 C 0.76718 0.24646 0.21107 0.0
C3516 C 0.78032 0.24938 0.22688 0.0
C3517 C 0.76614 0.23186 0.19716 0.0
C3518 C 0.79499 0.20421 0.17647 0.0
H3519 H 0.78307 0.19049 0.08621 0.0
H3520 H 0.78569 0.20227 0.11987 0.0
H3521 H 0.80786 0.19283 0.15404 0.0
H3522 H 0.80307 0.24003 0.24042 0.0
H3523 H 0.80088 0.21418 0.2165 0.0
H3524 H 0.74985 0.19678 0.17836 0.0
C3525 C 0.78241 0.18781 0.11586 0.0
C3526 C 0.79524 0.19318 0.15965 0.0
C3527 C 0.78083 0.18109 0.09668 0.0
C3528 C 0.79245 0.23766 0.22863 0.0
C3529 C 0.79133 0.22302 0.21486 0.0
C3530 C 0.7626 0.19568 0.17341 0.0
C3531 C 0.77908 0.17604 0.12968 0.0
C3532 C 0.77916 0.18373 0.14942 0.0
C3533 C 0.77832 0.22011 0.19889 0.0
C3534 C 0.77863 0.20605 0.18311 0.0
H3535 H 0.76974 0.13615 0.10109 0.0
H3536 H 0.77206 0.14822 0.13496 0.0
H3537 H 0.75035 0.17746 0.14865 0.0
H3538 H 0.75782 0.25549 0.20941 0.0
H3539 H 0.75624 0.23015 0.18475 0.0
C3540 C 0.14448 0.54679 0.29942 0.0
C3541 C 0.15862 0.53739 0.30044 0.0
C3542 C 0.13503 0.54887 0.31488 0.0
C3543 C 0.12148 0.52693 0.35541 0.0
H3544 H 0.10433 0.5713 0.3674 0.0
C3545 C 0.08536 0.5482 0.41926 0.0
C3546 C 0.07092 0.55694 0.41509 0.0
C3547 C 0.09432 0.54185 0.40471 0.0
C3548 C 0.10885 0.55878 0.36394 0.0
H3549 H 0.17471 0.52348 0.31855 0.0
H3550 H 0.15787 0.52713 0.3461 0.0
H3551 H 0.12698 0.57067 0.3457 0.0
H3552 H 0.05351 0.56424 0.39227 0.0
H3553 H 0.07002 0.55399 0.36678 0.0
H3554 H 0.10352 0.51531 0.37431 0.0
C3555 C 0.15415 0.53274 0.33313 0.0
C3556 C 0.1219 0.55846 0.35175 0.0
C3557 C 0.16379 0.53078 0.31753 0.0
C3558 C 0.06486 0.55803 0.39594 0.0
C3559 C 0.07408 0.55194 0.38139 0.0
C3560 C 0.10854 0.52734 0.36794 0.0
C3561 C 0.13953 0.54158 0.33172 0.0
C3562 C 0.12803 0.54246 0.34705 0.0
C3563 C 0.08927 0.54451 0.38586 0.0
C3564 C 0.10194 0.5432 0.37189 0.0
H3565 H 0.14029 0.55218 0.28651 0.0
H3566 H 0.12369 0.55555 0.31332 0.0
H3567 H 0.12591 0.51439 0.35179 0.0
H3568 H 0.09058 0.54729 0.43385 0.0
H3569 H 0.10615 0.53633 0.4084 0.0
C3570 C 0.80795 0.85989 0.59508 0.0
C3571 C 0.79334 0.86307 0.58322 0.0
C3572 C 0.80566 0.8539 0.61288 0.0
C3573 C 0.7728 0.84518 0.64862 0.0
H3574 H 0.80335 0.81194 0.66285 0.0
C3575 C 0.77308 0.81541 0.72163 0.0
C3576 C 0.77672 0.79794 0.72208 0.0
C3577 C 0.77428 0.82395 0.70495 0.0
C3578 C 0.79448 0.82098 0.65907 0.0
H3579 H 0.76492 0.86298 0.58075 0.0
H3580 H 0.76061 0.85161 0.61153 0.0
H3581 H 0.80664 0.82566 0.63377 0.0
H3582 H 0.78385 0.77555 0.70499 0.0
H3583 H 0.78511 0.78994 0.676 0.0
H3584 H 0.76 0.83955 0.67359 0.0
C3585 C 0.77401 0.85426 0.60744 0.0
C3586 C 0.79664 0.82923 0.64244 0.0
C3587 C 0.77643 0.86075 0.58976 0.0
C3588 C 0.78104 0.78905 0.70529 0.0
C3589 C 0.78197 0.79743 0.68862 0.0
C3590 C 0.77045 0.83666 0.6652 0.0
C3591 C 0.78856 0.85031 0.61907 0.0
C3592 C 0.78596 0.84159 0.63698 0.0
C3593 C 0.77896 0.81515 0.68825 0.0
C3594 C 0.78127 0.82441 0.67066 0.0
H3595 H 0.82116 0.86175 0.59042 0.0
H3596 H 0.81735 0.85173 0.6216 0.0
H3597 H 0.76437 0.85467 0.64507 0.0
H3598 H 0.76969 0.82265 0.73428 0.0
H3599 H 0.77199 0.83763 0.70535 0.0
C3600 C 0.7444 0.44702 0.51916 0.0
C3601 C 0.74843 0.44327 0.50058 0.0
C3602 C 0.7301 0.45545 0.52219 0.0
C3603 C 0.6883 0.46382 0.49859 0.0
H3604 H 0.69301 0.49832 0.54387 0.0
C3605 C 0.63985 0.50899 0.53086 0.0
C3606 C 0.63519 0.50259 0.54805 0.0
C3607 C 0.65195 0.50147 0.52074 0.0
C3608 C 0.69167 0.48887 0.53107 0.0
H3609 H 0.74151 0.44515 0.47055 0.0
H3610 H 0.71663 0.46065 0.47586 0.0
H3611 H 0.71924 0.48714 0.53479 0.0
H3612 H 0.63803 0.48242 0.56721 0.0
H3613 H 0.65961 0.46956 0.54966 0.0
H3614 H 0.66047 0.46556 0.49527 0.0
C3615 C 0.72418 0.45675 0.48801 0.0
C3616 C 0.70654 0.48239 0.52595 0.0
C3617 C 0.73832 0.44802 0.48498 0.0
C3618 C 0.64178 0.48782 0.55425 0.0
C3619 C 0.65385 0.48034 0.54415 0.0
C3620 C 0.67337 0.47046 0.50367 0.0
C3621 C 0.71997 0.46051 0.50665 0.0
C3622 C 0.70485 0.46933 0.5101 0.0
C3623 C 0.65934 0.48752 0.52774 0.0
C3624 C 0.67501 0.48256 0.52025 0.0
H3625 H 0.7521 0.44316 0.53124 0.0
H3626 H 0.72683 0.45778 0.53666 0.0
H3627 H 0.6867 0.45371 0.48631 0.0
H3628 H 0.63489 0.52039 0.52581 0.0
H3629 H 0.65632 0.5072 0.50816 0.0
C3630 C 0.21365 0.12826 0.50911 0.0
C3631 C 0.21291 0.14411 0.50051 0.0
C3632 C 0.19795 0.1161 0.51088 0.0
C3633 C 0.14896 0.11406 0.51061 0.0
H3634 H 0.14652 0.06235 0.50638 0.0
C3635 C 0.08199 0.06462 0.50489 0.0
C3636 C 0.08082 0.05023 0.51611 0.0
C3637 C 0.0985 0.07528 0.50319 0.0
C3638 C 0.14706 0.07678 0.50778 0.0
H3639 H 0.19503 0.15914 0.48633 0.0
H3640 H 0.1678 0.13778 0.48887 0.0
H3641 H 0.17448 0.08229 0.50239 0.0
H3642 H 0.09631 0.03563 0.53408 0.0
H3643 H 0.12534 0.05425 0.53088 0.0
H3644 H 0.12153 0.10855 0.51571 0.0
C3645 C 0.18045 0.13496 0.49481 0.0
C3646 C 0.1631 0.08823 0.50551 0.0
C3647 C 0.19612 0.14718 0.4932 0.0
C3648 C 0.09671 0.04653 0.52525 0.0
C3649 C 0.11334 0.05718 0.52341 0.0
C3650 C 0.13297 0.10263 0.51273 0.0
C3651 C 0.18109 0.11941 0.50398 0.0
C3652 C 0.16421 0.10704 0.50672 0.0
C3653 C 0.11437 0.07184 0.51256 0.0
C3654 C 0.13176 0.08385 0.51117 0.0
H3655 H 0.22635 0.12546 0.51498 0.0
H3656 H 0.19902 0.10439 0.51819 0.0
H3657 H 0.14937 0.12846 0.51219 0.0
H3658 H 0.07011 0.06784 0.49749 0.0
H3659 H 0.09883 0.08625 0.49446 0.0
C3660 C 0.14947 0.97844 0.77922 0.0
C3661 C 0.15984 0.99595 0.78129 0.0
C3662 C 0.15769 0.9634 0.77799 0.0
C3663 C 0.20076 0.94994 0.79059 0.0
H3664 H 0.18452 0.91083 0.74963 0.0
C3665 C 0.24646 0.90376 0.76398 0.0
C3666 C 0.23948 0.88544 0.75819 0.0
C3667 C 0.23527 0.91543 0.7694 0.0
C3668 C 0.18899 0.92145 0.76139 0.0
H3669 H 0.18687 0.01146 0.78376 0.0
H3670 H 0.20116 0.98529 0.7817 0.0
H3671 H 0.16744 0.93493 0.75381 0.0
H3672 H 0.21543 0.86476 0.75395 0.0
H3673 H 0.19566 0.88534 0.76339 0.0
H3674 H 0.2225 0.93676 0.79796 0.0
C3675 C 0.18672 0.98316 0.78107 0.0
C3676 C 0.17925 0.93526 0.76374 0.0
C3677 C 0.17852 0.99814 0.78205 0.0
C3678 C 0.22112 0.87886 0.7584 0.0
C3679 C 0.20983 0.89062 0.76367 0.0
C3680 C 0.21044 0.93614 0.7883 0.0
C3681 C 0.17641 0.96565 0.77911 0.0
C3682 C 0.18535 0.94989 0.77802 0.0
C3683 C 0.2168 0.90907 0.76907 0.0
C3684 C 0.20497 0.92203 0.77332 0.0
H3685 H 0.13504 0.97636 0.77864 0.0
H3686 H 0.14944 0.95004 0.77652 0.0
H3687 H 0.20556 0.96087 0.80197 0.0
H3688 H 0.2606 0.9091 0.76413 0.0
H3689 H 0.24104 0.92959 0.77325 0.0
C3690 C 0.3536 0.9428 0.98 0.0
C3691 C 0.34392 0.93754 0.99491 0.0
C3692 C 0.36923 0.95578 0.98395 0.0
C3693 C 0.39716 0.98901 0.02217 0.0
H3694 H 0.43569 0.97429 0.99671 0.0
C3695 C 0.47064 0.0272 0.02352 0.0
C3696 C 0.48337 0.01601 0.02436 0.0
C3697 C 0.45261 0.01989 0.02373 0.0
C3698 C 0.42503 0.97846 0.004 0.0
H3699 H 0.34198 0.94178 0.02527 0.0
H3700 H 0.37005 0.96358 0.0325 0.0
H3701 H 0.40533 0.95812 0.98727 0.0
H3702 H 0.48772 0.98903 0.02803 0.0
H3703 H 0.45637 0.97644 0.02882 0.0
H3704 H 0.41741 0.00911 0.03931 0.0
C3705 C 0.36541 0.95827 0.01773 0.0
C3706 C 0.40763 0.96944 0.99836 0.0
C3707 C 0.34957 0.94563 0.01368 0.0
C3708 C 0.4782 0.99797 0.02749 0.0
C3709 C 0.46028 0.99073 0.02782 0.0
C3710 C 0.41472 0.99809 0.02784 0.0
C3711 C 0.37554 0.96323 0.00293 0.0
C3712 C 0.39355 0.97443 0.00756 0.0
C3713 C 0.44734 1.0014 0.0248 0.0
C3714 C 0.42873 0.99253 0.01903 0.0
H3715 H 0.34899 0.93699 0.96536 0.0
H3716 H 0.3766 0.95969 0.97224 0.0
H3717 H 0.38648 0.99321 0.02936 0.0
H3718 H 0.47442 0.04123 0.02128 0.0
H3719 H 0.44275 0.02828 0.02138 0.0
C3720 C 0.84611 0.5567 0.78416 0.0
C3721 C 0.86382 0.56004 0.79294 0.0
C3722 C 0.83704 0.57083 0.78246 0.0
C3723 C 0.83836 0.61848 0.80019 0.0
H3724 H 0.81194 0.61833 0.75047 0.0
C3725 C 0.82539 0.67971 0.76344 0.0
C3726 C 0.80857 0.67829 0.75297 0.0
C3727 C 0.82907 0.6656 0.77337 0.0
C3728 C 0.81891 0.61834 0.76457 0.0
H3729 H 0.886 0.5806 0.80697 0.0
H3730 H 0.87032 0.60549 0.80335 0.0
H3731 H 0.82508 0.59253 0.75714 0.0
H3732 H 0.78197 0.662 0.74559 0.0
H3733 H 0.78864 0.63696 0.76252 0.0
H3734 H 0.8331 0.64503 0.80693 0.0
C3735 C 0.86331 0.5919 0.79821 0.0
C3736 C 0.82644 0.6036 0.7684 0.0
C3737 C 0.87235 0.57771 0.80004 0.0
C3738 C 0.79508 0.66322 0.75354 0.0
C3739 C 0.79883 0.64902 0.76323 0.0
C3740 C 0.83099 0.6334 0.79623 0.0
C3741 C 0.8456 0.58856 0.78934 0.0
C3742 C 0.83644 0.60362 0.78613 0.0
C3743 C 0.81604 0.64989 0.77262 0.0
C3744 C 0.82143 0.63346 0.7783 0.0
H3745 H 0.83917 0.54315 0.77871 0.0
H3746 H 0.82332 0.56787 0.77575 0.0
H3747 H 0.84584 0.6187 0.81406 0.0
H3748 H 0.83582 0.69143 0.76334 0.0
H3749 H 0.84247 0.66643 0.78043 0.0
C3750 C 0.81021 0.62901 0.02674 0.0
C3751 C 0.81163 0.64465 0.01746 0.0
C3752 C 0.82459 0.62005 0.02881 0.0
C3753 C 0.86553 0.61346 0.00807 0.0
H3754 H 0.87856 0.59724 0.05688 0.0
C3755 C 0.93186 0.58913 0.02707 0.0
C3756 C 0.93183 0.57557 0.03916 0.0
C3757 C 0.91631 0.59586 0.02257 0.0
C3758 C 0.87492 0.60136 0.04303 0.0
H3759 H 0.82918 0.6631 0.00292 0.0
H3760 H 0.85433 0.64736 0.00645 0.0
H3761 H 0.8536 0.61296 0.05321 0.0
H3762 H 0.91563 0.55788 0.05557 0.0
H3763 H 0.88828 0.56949 0.04762 0.0
H3764 H 0.88689 0.60187 0.9979 0.0
C3765 C 0.84208 0.64206 0.01215 0.0
C3766 C 0.86065 0.61046 0.04097 0.0
C3767 C 0.82775 0.65117 0.0103 0.0
C3768 C 0.91586 0.56824 0.04606 0.0
C3769 C 0.90031 0.57505 0.04168 0.0
C3770 C 0.87978 0.60426 0.0101 0.0
C3771 C 0.84065 0.6264 0.02143 0.0
C3772 C 0.85582 0.61668 0.0235 0.0
C3773 C 0.90048 0.58929 0.03029 0.0
C3774 C 0.88469 0.59815 0.02764 0.0
H3775 H 0.79793 0.62362 0.03234 0.0
H3776 H 0.82301 0.60794 0.03588 0.0
H3777 H 0.86198 0.61788 0.99435 0.0
H3778 H 0.94412 0.59502 0.02174 0.0
H3779 H 0.917 0.60688 0.01388 0.0
C3780 C 0.17285 0.10178 0.8084 0.0
C3781 C 0.15933 0.09518 0.79322 0.0
C3782 C 0.18549 0.11741 0.80735 0.0
C3783 C 0.19342 0.15707 0.77941 0.0
H3784 H 0.24172 0.16376 0.80516 0.0
C3785 C 0.25698 0.21081 0.76959 0.0
C3786 C 0.25805 0.22559 0.78354 0.0
C3787 C 0.24583 0.19431 0.771 0.0
C3788 C 0.22827 0.16195 0.79788 0.0
H3789 H 0.14866 0.09899 0.7648 0.0
H3790 H 0.17111 0.1256 0.7624 0.0
H3791 H 0.22047 0.13584 0.80677 0.0
H3792 H 0.2489 0.23458 0.8102 0.0
H3793 H 0.22984 0.20548 0.81292 0.0
H3794 H 0.2016 0.1831 0.77019 0.0
C3795 C 0.17168 0.11942 0.77554 0.0
C3796 C 0.216 0.14607 0.79892 0.0
C3797 C 0.15885 0.10407 0.77679 0.0
C3798 C 0.2483 0.2234 0.79925 0.0
C3799 C 0.23743 0.20682 0.80083 0.0
C3800 C 0.20576 0.1728 0.77819 0.0
C3801 C 0.18508 0.12651 0.79089 0.0
C3802 C 0.19834 0.14338 0.78973 0.0
C3803 C 0.23593 0.19228 0.78658 0.0
C3804 C 0.22322 0.17536 0.78745 0.0
H3805 H 0.17344 0.09503 0.82119 0.0
H3806 H 0.19536 0.12249 0.81961 0.0
H3807 H 0.17992 0.15583 0.77248 0.0
H3808 H 0.26412 0.21224 0.75717 0.0
H3809 H 0.24467 0.18325 0.75977 0.0
C3810 C 0.37592 0.94628 0.28758 0.0
C3811 C 0.37061 0.96237 0.29379 0.0
C3812 C 0.36311 0.93063 0.28218 0.0
C3813 C 0.31932 0.90867 0.29062 0.0
H3814 H 0.32186 0.8778 0.2443 0.0
C3815 C 0.2776 0.83767 0.27552 0.0
C3816 C 0.28898 0.82516 0.27398 0.0
C3817 C 0.28385 0.85563 0.2732 0.0
C3818 C 0.32085 0.88645 0.25711 0.0
H3819 H 0.34806 0.97486 0.29984 0.0
H3820 H 0.32569 0.9473 0.29072 0.0
H3821 H 0.34109 0.90767 0.25077 0.0
H3822 H 0.31553 0.82135 0.26849 0.0
H3823 H 0.32619 0.8524 0.26381 0.0
H3824 H 0.29991 0.88709 0.29757 0.0
C3825 C 0.33966 0.9469 0.28978 0.0
C3826 C 0.33187 0.90338 0.26085 0.0
C3827 C 0.35243 0.96258 0.29494 0.0
C3828 C 0.3063 0.83059 0.26914 0.0
C3829 C 0.31242 0.84838 0.2665 0.0
C3830 C 0.30834 0.89172 0.28691 0.0
C3831 C 0.34492 0.93091 0.28318 0.0
C3832 C 0.33156 0.9143 0.27792 0.0
C3833 C 0.30144 0.86113 0.26909 0.0
C3834 C 0.30949 0.88029 0.27045 0.0
H3835 H 0.38987 0.94587 0.28651 0.0
H3836 H 0.36742 0.91829 0.2774 0.0
H3837 H 0.31901 0.9169 0.30394 0.0
H3838 H 0.2642 0.83376 0.27937 0.0
H3839 H 0.27525 0.86533 0.27535 0.0
C3840 C 0.55625 0.33992 0.5767 0.0
C3841 C 0.55554 0.33767 0.5962 0.0
C3842 C 0.5544 0.35648 0.56962 0.0
C3843 C 0.55323 0.40605 0.5864 0.0
H3844 H 0.53655 0.40691 0.53318 0.0
C3845 C 0.54826 0.47522 0.5569 0.0
C3846 C 0.53688 0.47585 0.54011 0.0
C3847 C 0.55091 0.45864 0.56324 0.0
C3848 C 0.54102 0.40719 0.5482 0.0
H3849 H 0.55208 0.35168 0.62333 0.0
H3850 H 0.54841 0.37975 0.61127 0.0
H3851 H 0.5398 0.37855 0.54477 0.0
H3852 H 0.51974 0.45867 0.51678 0.0
H3853 H 0.52325 0.43025 0.52816 0.0
H3854 H 0.55362 0.43443 0.59015 0.0
C3855 C 0.55091 0.36909 0.60122 0.0
C3856 C 0.54322 0.39061 0.5549 0.0
C3857 C 0.55291 0.35267 0.60826 0.0
C3858 C 0.52836 0.45909 0.52991 0.0
C3859 C 0.53069 0.44249 0.53644 0.0
C3860 C 0.5508 0.42255 0.57978 0.0
C3861 C 0.55162 0.37155 0.5817 0.0
C3862 C 0.54939 0.38954 0.57423 0.0
C3863 C 0.54206 0.44174 0.55331 0.0
C3864 C 0.54465 0.42368 0.56046 0.0
H3865 H 0.55818 0.32883 0.56679 0.0
H3866 H 0.55534 0.3574 0.55459 0.0
H3867 H 0.55835 0.40645 0.60127 0.0
H3868 H 0.55537 0.48764 0.56519 0.0
H3869 H 0.56019 0.45928 0.57595 0.0
C3870 C 0.45533 0.77155 0.39318 0.0
C3871 C 0.45348 0.76499 0.41096 0.0
C3872 C 0.44015 0.77185 0.38023 0.0
C3873 C 0.39177 0.75135 0.36741 0.0
H3874 H 0.38879 0.79504 0.34431 0.0
C3875 C 0.32532 0.76089 0.32493 0.0
C3876 C 0.32617 0.77156 0.30971 0.0
C3877 C 0.34088 0.75974 0.33681 0.0
C3878 C 0.38938 0.78255 0.35028 0.0
H3879 H 0.43411 0.75302 0.42865 0.0
H3880 H 0.40785 0.75295 0.40594 0.0
H3881 H 0.41576 0.79317 0.36481 0.0
H3882 H 0.34449 0.78939 0.2953 0.0
H3883 H 0.37141 0.78677 0.3152 0.0
H3884 H 0.36562 0.74051 0.35269 0.0
C3885 C 0.42098 0.7581 0.40204 0.0
C3886 C 0.40496 0.78153 0.36217 0.0
C3887 C 0.43608 0.75821 0.41513 0.0
C3888 C 0.34315 0.78089 0.3067 0.0
C3889 C 0.35871 0.77958 0.31841 0.0
C3890 C 0.37628 0.75227 0.35532 0.0
C3891 C 0.42272 0.76518 0.38449 0.0
C3892 C 0.40637 0.76596 0.37105 0.0
C3893 C 0.35792 0.76906 0.33379 0.0
C3894 C 0.3747 0.76794 0.34659 0.0
H3895 H 0.46848 0.77702 0.38952 0.0
H3896 H 0.44208 0.7773 0.36684 0.0
H3897 H 0.39238 0.73904 0.37378 0.0
H3898 H 0.31257 0.75344 0.32776 0.0
H3899 H 0.33942 0.75169 0.34857 0.0
C3900 C 0.04261 0.72544 0.09539 0.0
C3901 C 0.05282 0.73735 0.0847 0.0
C3902 C 0.03994 0.70644 0.09069 0.0
C3903 C 0.04462 0.67047 0.05077 0.0
H3904 H 0.04058 0.63867 0.0903 0.0
C3905 C 0.04594 0.59342 0.03379 0.0
C3906 C 0.03628 0.58078 0.04414 0.0
C3907 C 0.04776 0.61221 0.0389 0.0
C3908 C 0.04146 0.64719 0.0789 0.0
H3909 H 0.0682 0.73782 0.06049 0.0
H3910 H 0.06392 0.70552 0.05273 0.0
H3911 H 0.04341 0.67103 0.0987 0.0
H3912 H 0.02128 0.57874 0.06848 0.0
H3913 H 0.02362 0.611 0.07677 0.0
H3914 H 0.04266 0.64672 0.03097 0.0
C3915 C 0.05753 0.71059 0.06453 0.0
C3916 C 0.0431 0.66601 0.0838 0.0
C3917 C 0.06014 0.72943 0.06916 0.0
C3918 C 0.0286 0.58778 0.05986 0.0
C3919 C 0.03022 0.60654 0.06485 0.0
C3920 C 0.04299 0.6517 0.04588 0.0
C3921 C 0.04737 0.69857 0.07511 0.0
C3922 C 0.04485 0.67814 0.06987 0.0
C3923 C 0.03983 0.61925 0.05449 0.0
C3924 C 0.04147 0.63957 0.05983 0.0
H3925 H 0.0367 0.73078 0.10746 0.0
H3926 H 0.03185 0.69793 0.09923 0.0
H3927 H 0.04546 0.67895 0.03933 0.0
H3928 H 0.05197 0.58885 0.02149 0.0
H3929 H 0.05555 0.62121 0.03056 0.0
C3930 C 0.07014 0.27408 0.91875 0.0
C3931 C 0.05329 0.26602 0.90887 0.0
C3932 C 0.08574 0.27481 0.90967 0.0
C3933 C 0.10401 0.2548 0.86712 0.0
H3934 H 0.13978 0.2988 0.87694 0.0
C3935 C 0.16126 0.27228 0.81939 0.0
C3936 C 0.17754 0.28311 0.82786 0.0
C3937 C 0.14697 0.26795 0.83023 0.0
C3938 C 0.13014 0.28625 0.87423 0.0
H3939 H 0.03976 0.25219 0.88167 0.0
H3940 H 0.06682 0.25349 0.86587 0.0
H3941 H 0.11339 0.29593 0.89376 0.0
H3942 H 0.19183 0.29739 0.85442 0.0
H3943 H 0.16731 0.2893 0.87354 0.0
H3944 H 0.12072 0.24522 0.84738 0.0
C3945 C 0.06808 0.25911 0.88071 0.0
C3946 C 0.1149 0.28461 0.88391 0.0
C3947 C 0.0525 0.25844 0.88977 0.0
C3948 C 0.17958 0.28866 0.84761 0.0
C3949 C 0.16535 0.28431 0.85847 0.0
C3950 C 0.1193 0.25642 0.85743 0.0
C3951 C 0.08495 0.26746 0.89045 0.0
C3952 C 0.10153 0.2689 0.88047 0.0
C3953 C 0.14859 0.27446 0.84982 0.0
C3954 C 0.1326 0.27221 0.86078 0.0
H3955 H 0.07129 0.28009 0.93345 0.0
H3956 H 0.09845 0.28113 0.91778 0.0
H3957 H 0.09419 0.24237 0.86423 0.0
H3958 H 0.15914 0.26829 0.80408 0.0
H3959 H 0.13431 0.26048 0.82293 0.0
C3960 C 0.55422 0.74856 0.89062 0.0
C3961 C 0.53855 0.75583 0.88913 0.0
C3962 C 0.55449 0.7325 0.89906 0.0
C3963 C 0.53068 0.70688 0.934 0.0
H3964 H 0.55381 0.66774 0.91721 0.0
C3965 C 0.53046 0.647 0.97786 0.0
C3966 C 0.52535 0.62987 0.96733 0.0
C3967 C 0.53567 0.66233 0.96865 0.0
C3968 C 0.5473 0.67857 0.92211 0.0
H3969 H 0.51067 0.75133 0.89399 0.0
H3970 H 0.511 0.72346 0.90805 0.0
H3971 H 0.55506 0.69393 0.89924 0.0
H3972 H 0.52228 0.61525 0.93905 0.0
H3973 H 0.53163 0.64187 0.92294 0.0
H3974 H 0.52248 0.69158 0.95648 0.0
C3975 C 0.52323 0.73022 0.9033 0.0
C3976 C 0.54813 0.69364 0.91187 0.0
C3977 C 0.52298 0.74613 0.89502 0.0
C3978 C 0.5266 0.62824 0.94757 0.0
C3979 C 0.53187 0.64356 0.93835 0.0
C3980 C 0.52995 0.69196 0.94424 0.0
C3981 C 0.53911 0.7235 0.90615 0.0
C3982 C 0.53953 0.70786 0.91749 0.0
C3983 C 0.53579 0.66092 0.94864 0.0
C3984 C 0.53806 0.67745 0.93838 0.0
H3985 H 0.56647 0.75585 0.88644 0.0
H3986 H 0.56696 0.72768 0.90097 0.0
H3987 H 0.52414 0.71766 0.93899 0.0
H3988 H 0.52921 0.64869 0.99302 0.0
H3989 H 0.53885 0.6754 0.97714 0.0
C3990 C 0.08291 0.74396 0.70183 0.0
C3991 C 0.07466 0.75907 0.70392 0.0
C3992 C 0.10087 0.74476 0.70943 0.0
C3993 C 0.14023 0.77357 0.74233 0.0
H3994 H 0.16784 0.74526 0.71308 0.0
C3995 C 0.21851 0.78397 0.75899 0.0
C3996 C 0.2272 0.76918 0.756 0.0
C3997 C 0.20001 0.78246 0.75336 0.0
C3998 C 0.16043 0.75313 0.7217 0.0
H3999 H 0.0794 0.78712 0.71556 0.0
H4000 H 0.11046 0.78858 0.72911 0.0
H4001 H 0.13617 0.74318 0.70282 0.0
H4002 H 0.22253 0.74122 0.74409 0.0
H4003 H 0.19046 0.73839 0.73463 0.0
H4004 H 0.16458 0.78363 0.76113 0.0
C4005 C 0.10298 0.77582 0.72192 0.0
C4006 C 0.142 0.75191 0.71576 0.0
C4007 C 0.08496 0.77499 0.71426 0.0
C4008 C 0.21653 0.75285 0.74698 0.0
C4009 C 0.19798 0.75133 0.74129 0.0
C4010 C 0.15868 0.7748 0.74827 0.0
C4011 C 0.11151 0.76084 0.71926 0.0
C4012 C 0.13141 0.76208 0.72593 0.0
C4013 C 0.18925 0.76611 0.74435 0.0
C4014 C 0.16925 0.76462 0.73809 0.0
H4015 H 0.07569 0.73163 0.69345 0.0
H4016 H 0.10649 0.73274 0.7072 0.0
H4017 H 0.13283 0.78152 0.75088 0.0
H4018 H 0.22603 0.79689 0.76576 0.0
H4019 H 0.19422 0.79436 0.75582 0.0
C4020 C 0.04119 0.35184 0.40643 0.0
C4021 C 0.04501 0.35175 0.38736 0.0
C4022 C 0.04049 0.3679 0.41765 0.0
C4023 C 0.03715 0.41648 0.41565 0.0
H4024 H 0.05281 0.41989 0.46992 0.0
C4025 C 0.04396 0.48267 0.4687 0.0
C4026 C 0.03745 0.48071 0.48653 0.0
C4027 C 0.04513 0.46753 0.45602 0.0
C4028 C 0.04824 0.41916 0.45483 0.0
H4029 H 0.05085 0.36884 0.36514 0.0
H4030 H 0.04983 0.39707 0.38479 0.0
H4031 H 0.0547 0.39308 0.44903 0.0
H4032 H 0.02608 0.4607 0.50403 0.0
H4033 H 0.02913 0.43463 0.48269 0.0
H4034 H 0.03105 0.4429 0.42164 0.0
C4035 C 0.04718 0.38456 0.39106 0.0
C4036 C 0.04925 0.40366 0.44275 0.0
C4037 C 0.04785 0.36834 0.37973 0.0
C4038 C 0.03199 0.46303 0.49105 0.0
C4039 C 0.03352 0.44794 0.47859 0.0
C4040 C 0.03632 0.43213 0.42776 0.0
C4041 C 0.04369 0.38463 0.41033 0.0
C4042 C 0.04346 0.40185 0.42296 0.0
C4043 C 0.0401 0.44991 0.46085 0.0
C4044 C 0.04164 0.43362 0.44761 0.0
H4045 H 0.03883 0.33939 0.41288 0.0
H4046 H 0.03729 0.36708 0.43214 0.0
H4047 H 0.03239 0.41571 0.40061 0.0
H4048 H 0.04812 0.49595 0.46443 0.0
H4049 H 0.05026 0.46965 0.44253 0.0
C4050 C 0.45378 0.25324 0.1911 0.0
C4051 C 0.46869 0.25122 0.20358 0.0
C4052 C 0.43721 0.25479 0.19769 0.0
C4053 C 0.41515 0.26392 0.24287 0.0
H4054 H 0.37169 0.24829 0.20784 0.0
C4055 C 0.34552 0.27758 0.26425 0.0
C4056 C 0.32936 0.26649 0.25543 0.0
C4057 C 0.36233 0.27569 0.25831 0.0
C4058 C 0.3835 0.25261 0.21811 0.0
H4059 H 0.47725 0.24939 0.23328 0.0
H4060 H 0.44842 0.25172 0.24477 0.0
H4061 H 0.40012 0.24434 0.19757 0.0
H4062 H 0.31901 0.24432 0.2333 0.0
H4063 H 0.34778 0.24034 0.22366 0.0
H4064 H 0.3984 0.2716 0.26365 0.0
C4065 C 0.44954 0.25231 0.22971 0.0
C4066 C 0.40018 0.25059 0.21198 0.0
C4067 C 0.46621 0.25075 0.22306 0.0
C4068 C 0.33089 0.25321 0.24059 0.0
C4069 C 0.34767 0.25109 0.23483 0.0
C4070 C 0.39842 0.26585 0.24906 0.0
C4071 C 0.43458 0.2544 0.21717 0.0
C4072 C 0.41649 0.25626 0.22414 0.0
C4073 C 0.3639 0.26237 0.24341 0.0
C4074 C 0.38211 0.26027 0.23683 0.0
H4075 H 0.45495 0.2539 0.17604 0.0
H4076 H 0.42653 0.25674 0.18736 0.0
H4077 H 0.4271 0.26875 0.25286 0.0
H4078 H 0.34529 0.28783 0.27586 0.0
H4079 H 0.37409 0.28497 0.26539 0.0
C4080 C 0.63027 0.53471 0.35458 0.0
C4081 C 0.62119 0.53958 0.33821 0.0
C4082 C 0.62211 0.53322 0.37139 0.0
C4083 C 0.58645 0.54773 0.397 0.0
H4084 H 0.58844 0.50559 0.42335 0.0
C4085 C 0.54434 0.53278 0.4589 0.0
C4086 C 0.55164 0.52505 0.47438 0.0
C4087 C 0.55289 0.53433 0.44241 0.0
C4088 C 0.58795 0.51759 0.41639 0.0
H4089 H 0.59659 0.5471 0.32682 0.0
H4090 H 0.58249 0.54481 0.35624 0.0
H4091 H 0.60354 0.50927 0.39479 0.0
H4092 H 0.57374 0.51285 0.48454 0.0
H4093 H 0.58904 0.51608 0.456 0.0
H4094 H 0.57118 0.5563 0.41865 0.0
C4095 C 0.5959 0.5421 0.35607 0.0
C4096 C 0.59659 0.51967 0.39995 0.0
C4097 C 0.60397 0.54338 0.3392 0.0
C4098 C 0.56774 0.51884 0.47288 0.0
C4099 C 0.57643 0.52059 0.45642 0.0
C4100 C 0.57797 0.54576 0.41353 0.0
C4101 C 0.60478 0.53678 0.3723 0.0
C4102 C 0.59589 0.53473 0.39001 0.0
C4103 C 0.56916 0.52843 0.44095 0.0
C4104 C 0.5785 0.53061 0.42344 0.0
H4105 H 0.64351 0.53161 0.35427 0.0
H4106 H 0.62939 0.52928 0.3837 0.0
H4107 H 0.58582 0.55961 0.38982 0.0
H4108 H 0.53196 0.53774 0.45952 0.0
H4109 H 0.54661 0.54008 0.43073 0.0
C4110 C 0.2854 0.9035 0.05501 0.0
C4111 C 0.28566 0.89031 0.03965 0.0
C4112 C 0.284 0.89859 0.07342 0.0
C4113 C 0.3006 0.86949 0.10175 0.0
H4114 H 0.26018 0.86186 0.13114 0.0
C4115 C 0.29226 0.81584 0.14979 0.0
C4116 C 0.30011 0.82305 0.16833 0.0
C4117 C 0.28612 0.82699 0.13723 0.0
C4118 C 0.27159 0.8643 0.12318 0.0
H4119 H 0.28321 0.86164 0.03115 0.0
H4120 H 0.28085 0.8532 0.06322 0.0
H4121 H 0.25814 0.87747 0.10216 0.0
H4122 H 0.30624 0.84711 0.18892 0.0
H4123 H 0.29575 0.86671 0.1666 0.0
H4124 H 0.31371 0.85551 0.12187 0.0
C4125 C 0.28184 0.86725 0.061 0.0
C4126 C 0.27047 0.87319 0.10681 0.0
C4127 C 0.28333 0.87211 0.04274 0.0
C4128 C 0.30027 0.84124 0.17466 0.0
C4129 C 0.29418 0.85242 0.16203 0.0
C4130 C 0.30173 0.86072 0.11799 0.0
C4131 C 0.28267 0.88048 0.07646 0.0
C4132 C 0.28479 0.87524 0.09575 0.0
C4133 C 0.28774 0.84543 0.14309 0.0
C4134 C 0.28706 0.85758 0.12839 0.0
H4135 H 0.28718 0.91764 0.05298 0.0
H4136 H 0.28485 0.90893 0.08534 0.0
H4137 H 0.31169 0.87087 0.09324 0.0
H4138 H 0.29164 0.80178 0.14473 0.0
H4139 H 0.28133 0.8215 0.12253 0.0
C4140 C 0.91116 0.50156 0.85182 0.0
C4141 C 0.90069 0.51476 0.85026 0.0
C4142 C 0.92134 0.501 0.86898 0.0
C4143 C 0.93356 0.52156 0.91889 0.0
H4144 H 0.98174 0.52248 0.9055 0.0
C4145 C 0.99389 0.54407 0.97477 0.0
C4146 C 1.00485 0.5312 0.9759 0.0
C4147 C 0.98176 0.54321 0.95863 0.0
C4148 C 0.96835 0.5222 0.90939 0.0
H4149 H 0.89088 0.5365 0.86527 0.0
H4150 H 0.90948 0.53619 0.89532 0.0
H4151 H 0.95652 0.51522 0.88051 0.0
H4152 H 0.01299 0.50831 0.96077 0.0
H4153 H 0.99161 0.5067 0.93262 0.0
H4154 H 0.94555 0.52868 0.94782 0.0
C4155 C 0.90952 0.52598 0.88352 0.0
C4156 C 0.95392 0.51785 0.8952 0.0
C4157 C 0.89895 0.52622 0.8664 0.0
C4158 C 1.00465 0.5184 0.96017 0.0
C4159 C 0.99246 0.51749 0.94408 0.0
C4160 C 0.94803 0.52592 0.93311 0.0
C4161 C 0.92156 0.51407 0.88447 0.0
C4162 C 0.93642 0.5174 0.89987 0.0
C4163 C 0.98048 0.52944 0.94358 0.0
C4164 C 0.96549 0.52623 0.92841 0.0
H4165 H 0.91242 0.49247 0.83949 0.0
H4166 H 0.93021 0.49139 0.86962 0.0
H4167 H 0.92017 0.52133 0.92275 0.0
H4168 H 0.99411 0.55425 0.98669 0.0
H4169 H 0.97283 0.55277 0.95827 0.0
C4170 C 0.27671 0.21589 0.56612 0.0
C4171 C 0.27253 0.19727 0.56019 0.0
C4172 C 0.27848 0.22253 0.58548 0.0
C4173 C 0.28147 0.20877 0.63519 0.0
H4174 H 0.26743 0.25476 0.64687 0.0
C4175 C 0.28944 0.24263 0.71323 0.0
C4176 C 0.27799 0.25424 0.71872 0.0
C4177 C 0.2892 0.23588 0.69408 0.0
C4178 C 0.27114 0.24176 0.64406 0.0
H4179 H 0.26734 0.17094 0.57004 0.0
H4180 H 0.26963 0.18243 0.60385 0.0
H4181 H 0.2659 0.24219 0.61396 0.0
H4182 H 0.25749 0.26811 0.7078 0.0
H4183 H 0.25566 0.25508 0.67485 0.0
H4184 H 0.28545 0.2077 0.66531 0.0
C4185 C 0.27206 0.19202 0.59362 0.0
C4186 C 0.27065 0.23466 0.62495 0.0
C4187 C 0.27069 0.18537 0.57418 0.0
C4188 C 0.26622 0.2589 0.70436 0.0
C4189 C 0.26547 0.25163 0.68522 0.0
C4190 C 0.28155 0.21568 0.65433 0.0
C4191 C 0.27566 0.21076 0.59957 0.0
C4192 C 0.27599 0.21812 0.62014 0.0
C4193 C 0.27702 0.24002 0.67969 0.0
C4194 C 0.27653 0.23239 0.65914 0.0
H4195 H 0.27844 0.22542 0.5557 0.0
H4196 H 0.28192 0.23698 0.58931 0.0
H4197 H 0.28588 0.19612 0.63229 0.0
H4198 H 0.2988 0.23884 0.72376 0.0
H4199 H 0.29878 0.22754 0.69066 0.0
C4200 C 0.61988 0.53539 0.22204 0.0
C4201 C 0.60762 0.53461 0.23564 0.0
C4202 C 0.61379 0.53351 0.20241 0.0
C4203 C 0.57393 0.51618 0.16703 0.0
H4204 H 0.59447 0.55313 0.13714 0.0
C4205 C 0.55458 0.51389 0.08529 0.0
C4206 C 0.55089 0.5299 0.0788 0.0
C4207 C 0.56172 0.51372 0.10424 0.0
C4208 C 0.5886 0.54274 0.14533 0.0
H4209 H 0.57942 0.53033 0.23928 0.0
H4210 H 0.56889 0.52666 0.20527 0.0
H4211 H 0.60723 0.55321 0.17032 0.0
H4212 H 0.55205 0.55824 0.08704 0.0
H4213 H 0.56482 0.55813 0.12012 0.0
H4214 H 0.55524 0.50576 0.14213 0.0
C4215 C 0.58316 0.5289 0.20966 0.0
C4216 C 0.59602 0.54266 0.16424 0.0
C4217 C 0.58922 0.5311 0.22918 0.0
C4218 C 0.55447 0.54572 0.09168 0.0
C4219 C 0.56198 0.54566 0.11056 0.0
C4220 C 0.56668 0.5161 0.14806 0.0
C4221 C 0.59535 0.53042 0.19604 0.0
C4222 C 0.58862 0.52952 0.1754 0.0
C4223 C 0.56572 0.52965 0.11704 0.0
C4224 C 0.57378 0.52951 0.13706 0.0
H4225 H 0.63415 0.53816 0.22658 0.0
H4226 H 0.6235 0.53462 0.19222 0.0
H4227 H 0.56797 0.50583 0.17523 0.0
H4228 H 0.55198 0.50147 0.07565 0.0
H4229 H 0.5645 0.50118 0.10876 0.0
C4230 C 0.29376 0.8844 0.94003 0.0
C4231 C 0.29002 0.90183 0.94222 0.0
C4232 C 0.29255 0.87514 0.92195 0.0
C4233 C 0.29434 0.87634 0.87243 0.0
H4234 H 0.26067 0.83081 0.86806 0.0
C4235 C 0.26763 0.81357 0.81128 0.0
C4236 C 0.28005 0.80234 0.8142 0.0
C4237 C 0.26838 0.82887 0.82411 0.0
C4238 C 0.26984 0.84363 0.86902 0.0
H4239 H 0.28336 0.92387 0.92739 0.0
H4240 H 0.28135 0.9074 0.89528 0.0
H4241 H 0.26328 0.85254 0.89654 0.0
H4242 H 0.30257 0.79752 0.83265 0.0
H4243 H 0.30383 0.82443 0.85538 0.0
H4244 H 0.30166 0.8667 0.84532 0.0
C4245 C 0.28508 0.90105 0.90773 0.0
C4246 C 0.27136 0.85595 0.8852 0.0
C4247 C 0.28625 0.91039 0.92598 0.0
C4248 C 0.2931 0.8063 0.83011 0.0
C4249 C 0.29392 0.82163 0.84288 0.0
C4250 C 0.29293 0.86385 0.85626 0.0
C4251 C 0.28764 0.88318 0.90577 0.0
C4252 C 0.28398 0.87211 0.88722 0.0
C4253 C 0.28153 0.83289 0.83992 0.0
C4254 C 0.28097 0.84734 0.85481 0.0
H4255 H 0.29694 0.87757 0.95229 0.0
H4256 H 0.29484 0.86142 0.9206 0.0
H4257 H 0.30419 0.88873 0.87392 0.0
H4258 H 0.25702 0.81023 0.79948 0.0
H4259 H 0.25846 0.83726 0.82204 0.0
C4260 C 0.91229 0.53536 0.74402 0.0
C4261 C 0.91554 0.52027 0.7528 0.0
C4262 C 0.91639 0.53717 0.72541 0.0
C4263 C 0.92273 0.51152 0.68153 0.0
H4264 H 0.96497 0.54747 0.67813 0.0
C4265 C 0.96558 0.50249 0.62156 0.0
C4266 C 0.98341 0.50273 0.62884 0.0
C4267 C 0.95426 0.50998 0.63285 0.0
C4268 C 0.95295 0.53759 0.67872 0.0
H4269 H 0.92473 0.49492 0.7491 0.0
H4270 H 0.93146 0.49785 0.7165 0.0
H4271 H 0.94843 0.54999 0.70586 0.0
H4272 H 1.00366 0.51178 0.65319 0.0
H4273 H 0.98368 0.52422 0.67326 0.0
H4274 H 0.92802 0.49817 0.65541 0.0
C4275 C 0.92598 0.50834 0.724 0.0
C4276 C 0.94343 0.53914 0.69442 0.0
C4277 C 0.92235 0.50677 0.74265 0.0
C4278 C 0.98989 0.51113 0.64737 0.0
C4279 C 0.97855 0.51858 0.65869 0.0
C4280 C 0.93215 0.51002 0.66581 0.0
C4281 C 0.92316 0.52358 0.71532 0.0
C4282 C 0.92892 0.52554 0.69638 0.0
C4283 C 0.96055 0.51776 0.65164 0.0
C4284 C 0.94794 0.52246 0.66487 0.0
H4285 H 0.90699 0.54588 0.7517 0.0
H4286 H 0.91435 0.54909 0.71892 0.0
H4287 H 0.91155 0.5009 0.6829 0.0
H4288 H 0.9602 0.49603 0.60732 0.0
H4289 H 0.94045 0.50918 0.62711 0.0
C4290 C 0.26753 0.19932 0.45699 0.0
C4291 C 0.26842 0.18108 0.45781 0.0
C4292 C 0.26905 0.20698 0.43988 0.0
C4293 C 0.2668 0.19584 0.38703 0.0
H4294 H 0.29331 0.24486 0.39029 0.0
C4295 C 0.28497 0.23129 0.32001 0.0
C4296 C 0.2816 0.24892 0.32003 0.0
C4297 C 0.28391 0.22248 0.33654 0.0
C4298 C 0.28579 0.23119 0.38913 0.0
H4299 H 0.27118 0.15648 0.44109 0.0
H4300 H 0.27397 0.16987 0.41123 0.0
H4301 H 0.28997 0.23046 0.41935 0.0
H4302 H 0.27402 0.27079 0.33757 0.0
H4303 H 0.27286 0.25576 0.36626 0.0
H4304 H 0.26283 0.19665 0.35667 0.0
C4305 C 0.27194 0.17825 0.42379 0.0
C4306 C 0.28378 0.22293 0.40583 0.0
C4307 C 0.27039 0.17056 0.44095 0.0
C4308 C 0.27722 0.25745 0.33702 0.0
C4309 C 0.27645 0.24879 0.35355 0.0
C4310 C 0.26894 0.20408 0.37028 0.0
C4311 C 0.27155 0.19666 0.42308 0.0
C4312 C 0.27408 0.2052 0.40508 0.0
C4313 C 0.27969 0.23116 0.35352 0.0
C4314 C 0.27831 0.22193 0.37115 0.0
H4315 H 0.26597 0.20781 0.46969 0.0
H4316 H 0.26828 0.22108 0.43988 0.0
H4317 H 0.25908 0.18227 0.38584 0.0
H4318 H 0.28822 0.22423 0.30717 0.0
H4319 H 0.28653 0.20891 0.33607 0.0
C4320 C 0.31441 0.58906 0.55687 0.0
C4321 C 0.31491 0.60772 0.55905 0.0
C4322 C 0.33036 0.58258 0.55645 0.0
C4323 C 0.36936 0.59655 0.53572 0.0
H4324 H 0.39054 0.55964 0.55824 0.0
C4325 C 0.43229 0.57773 0.51006 0.0
C4326 C 0.43204 0.55923 0.50617 0.0
C4327 C 0.41962 0.58373 0.52058 0.0
C4328 C 0.38467 0.56992 0.55181 0.0
H4329 H 0.33218 0.63412 0.56522 0.0
H4330 H 0.35984 0.62277 0.56428 0.0
H4331 H 0.36476 0.56942 0.5713 0.0
H4332 H 0.41871 0.53246 0.51071 0.0
H4333 H 0.39641 0.54297 0.52888 0.0
H4334 H 0.38836 0.59665 0.51569 0.0
C4335 C 0.34727 0.61322 0.56276 0.0
C4336 C 0.37006 0.57549 0.55931 0.0
C4337 C 0.33145 0.61966 0.56321 0.0
C4338 C 0.41926 0.54684 0.51356 0.0
C4339 C 0.40655 0.55284 0.52404 0.0
C4340 C 0.38372 0.59089 0.52814 0.0
C4341 C 0.34675 0.59475 0.55827 0.0
C4342 C 0.36246 0.58893 0.55134 0.0
C4343 C 0.40639 0.57132 0.52729 0.0
C4344 C 0.39159 0.5776 0.53613 0.0
H4345 H 0.30179 0.57962 0.5537 0.0
H4346 H 0.32977 0.56826 0.5529 0.0
H4347 H 0.36333 0.60663 0.52907 0.0
H4348 H 0.44226 0.58757 0.50493 0.0
H4349 H 0.42001 0.59809 0.5232 0.0
C4350 C 0.86268 0.90525 0.53755 0.0
C4351 C 0.84586 0.90927 0.53185 0.0
C4352 C 0.87825 0.91832 0.53857 0.0
C4353 C 0.89775 0.95823 0.51806 0.0
H4354 H 0.93277 0.96642 0.56304 0.0
C4355 C 0.96508 0.00912 0.5225 0.0
C4356 C 0.98021 0.00409 0.53176 0.0
C4357 C 0.94787 0.99925 0.52346 0.0
C4358 C 0.92329 0.96418 0.55023 0.0
H4359 H 0.83217 0.93017 0.52277 0.0
H4360 H 0.8596 0.95298 0.52405 0.0
H4361 H 0.90447 0.94569 0.56274 0.0
H4362 H 0.989 0.98471 0.54938 0.0
H4363 H 0.95952 0.96732 0.55035 0.0
H4364 H 0.91684 0.97597 0.50512 0.0
C4365 C 0.86061 0.93971 0.52789 0.0
C4366 C 0.907 0.95237 0.55016 0.0
C4367 C 0.84494 0.92671 0.52727 0.0
C4368 C 0.9777 0.98911 0.54211 0.0
C4369 C 0.96065 0.97916 0.54284 0.0
C4370 C 0.91421 0.96984 0.51799 0.0
C4371 C 0.87741 0.93562 0.53356 0.0
C4372 C 0.89413 0.94914 0.53402 0.0
C4373 C 0.94544 0.98402 0.53353 0.0
C4374 C 0.92732 0.9728 0.534 0.0
H4375 H 0.86382 0.89197 0.54128 0.0
H4376 H 0.89103 0.91478 0.54289 0.0
H4377 H 0.8881 0.95584 0.50536 0.0
H4378 H 0.96653 0.02039 0.51413 0.0
H4379 H 0.93649 1.00353 0.51622 0.0
C4380 C 0.91305 0.07519 0.26732 0.0
C4381 C 0.90338 0.05827 0.25887 0.0
C4382 C 0.90495 0.09029 0.26805 0.0
C4383 C 0.8662 0.10807 0.24755 0.0
H4384 H 0.87147 0.13608 0.29734 0.0
C4385 C 0.81614 0.15189 0.26979 0.0
C4386 C 0.82245 0.16793 0.28195 0.0
C4387 C 0.82785 0.14059 0.26479 0.0
C4388 C 0.87013 0.12866 0.28323 0.0
H4389 H 0.87789 0.04405 0.24385 0.0
H4390 H 0.86378 0.07041 0.24507 0.0
H4391 H 0.88866 0.11234 0.29236 0.0
H4392 H 0.8458 0.18526 0.29807 0.0
H4393 H 0.86648 0.16541 0.28942 0.0
H4394 H 0.84739 0.12417 0.23853 0.0
C4395 C 0.87764 0.07203 0.25108 0.0
C4396 C 0.87996 0.11502 0.28039 0.0
C4397 C 0.88569 0.0569 0.25046 0.0
C4398 C 0.84073 0.17289 0.28863 0.0
C4399 C 0.85248 0.16149 0.28377 0.0
C4400 C 0.85641 0.12176 0.25037 0.0
C4401 C 0.88706 0.08881 0.26023 0.0
C4402 C 0.87788 0.10437 0.26262 0.0
C4403 C 0.84609 0.14506 0.27203 0.0
C4404 C 0.858 0.13198 0.26835 0.0
H4405 H 0.92669 0.07667 0.27394 0.0
H4406 H 0.9126 0.10308 0.27501 0.0
H4407 H 0.8645 0.10025 0.23363 0.0
H4408 H 0.80205 0.14792 0.26449 0.0
H4409 H 0.82244 0.12798 0.25589 0.0
C4410 C 0.70374 0.11955 0.03792 0.0
C4411 C 0.71785 0.11207 0.03149 0.0
C4412 C 0.68693 0.10886 0.0375 0.0
C4413 C 0.65783 0.07039 0.01063 0.0
H4414 H 0.62905 0.07526 0.05233 0.0
C4415 C 0.58596 0.0314 0.01437 0.0
C4416 C 0.57451 0.04159 0.02252 0.0
C4417 C 0.60351 0.03947 0.01283 0.0
C4418 C 0.63693 0.07395 0.04053 0.0
H4419 H 0.72586 0.08755 0.02021 0.0
H4420 H 0.69593 0.06873 0.01889 0.0
H4421 H 0.66087 0.08852 0.05723 0.0
H4422 H 0.57139 0.06801 0.03442 0.0
H4423 H 0.60225 0.08231 0.03172 0.0
H4424 H 0.6337 0.05594 0.99389 0.0
C4425 C 0.69806 0.08288 0.02433 0.0
C4426 C 0.65509 0.08135 0.04339 0.0
C4427 C 0.71506 0.09358 0.0251 0.0
C4428 C 0.58013 0.06011 0.02785 0.0
C4429 C 0.59771 0.06816 0.02647 0.0
C4430 C 0.6396 0.06291 0.00778 0.0
C4431 C 0.68388 0.09054 0.03041 0.0
C4432 C 0.66557 0.08002 0.02833 0.0
C4433 C 0.60971 0.05769 0.0198 0.0
C4434 C 0.62898 0.06509 0.02258 0.0
H4435 H 0.70569 0.13372 0.04325 0.0
H4436 H 0.67616 0.11508 0.04214 0.0
H4437 H 0.66569 0.06936 0.99879 0.0
H4438 H 0.58168 0.01699 0.01042 0.0
H4439 H 0.61257 0.03117 0.00768 0.0
C4440 C 0.18405 0.47444 0.23794 0.0
C4441 C 0.19601 0.49107 0.24042 0.0
C4442 C 0.1905 0.45849 0.2367 0.0
C4443 C 0.22633 0.43445 0.2328 0.0
H4444 H 0.21756 0.42183 0.28334 0.0
C4445 C 0.26648 0.3917 0.27638 0.0
C4446 C 0.25764 0.38171 0.28942 0.0
C4447 C 0.25729 0.40196 0.26515 0.0
C4448 C 0.21973 0.42476 0.26898 0.0
H4449 H 0.22373 0.50423 0.24113 0.0
H4450 H 0.23509 0.47603 0.23925 0.0
H4451 H 0.20465 0.44572 0.27079 0.0
H4452 H 0.23232 0.37273 0.29989 0.0
H4453 H 0.21597 0.39022 0.27985 0.0
H4454 H 0.24162 0.41345 0.23113 0.0
C4455 C 0.22077 0.47548 0.23815 0.0
C4456 C 0.21244 0.43852 0.2619 0.0
C4457 C 0.21431 0.49154 0.23944 0.0
C4458 C 0.23934 0.38085 0.2902 0.0
C4459 C 0.23007 0.39078 0.27874 0.0
C4460 C 0.23349 0.42037 0.23982 0.0
C4461 C 0.20893 0.45901 0.23781 0.0
C4462 C 0.21578 0.4435 0.24388 0.0
C4463 C 0.23914 0.40204 0.26673 0.0
C4464 C 0.23034 0.41553 0.25806 0.0
H4465 H 0.16981 0.4737 0.23833 0.0
H4466 H 0.18125 0.44584 0.2366 0.0
H4467 H 0.22907 0.43835 0.2189 0.0
H4468 H 0.28059 0.39211 0.27546 0.0
H4469 H 0.26463 0.41054 0.25607 0.0
C4470 C 0.23115 0.39754 0.03248 0.0
C4471 C 0.24825 0.40781 0.03899 0.0
C4472 C 0.21606 0.40554 0.03203 0.0
C4473 C 0.19921 0.44611 0.05035 0.0
H4474 H 0.16525 0.43292 0.00454 0.0
C4475 C 0.14589 0.48785 0.02733 0.0
C4476 C 0.12975 0.47861 0.0169 0.0
C4477 C 0.15922 0.47843 0.0332 0.0
C4478 C 0.17437 0.43654 0.01762 0.0
H4479 H 0.26284 0.43447 0.05066 0.0
H4480 H 0.23649 0.44847 0.04978 0.0
H4481 H 0.19077 0.41815 0.00842 0.0
H4482 H 0.1144 0.4524 0.00516 0.0
H4483 H 0.13733 0.4358 0.01596 0.0
H4484 H 0.18287 0.46478 0.05935 0.0
C4485 C 0.23472 0.43418 0.04517 0.0
C4486 C 0.18908 0.42807 0.01982 0.0
C4487 C 0.24985 0.42616 0.0456 0.0
C4488 C 0.12664 0.45974 0.01349 0.0
C4489 C 0.13991 0.45031 0.0194 0.0
C4490 C 0.18444 0.4546 0.04815 0.0
C4491 C 0.21766 0.42402 0.03808 0.0
C4492 C 0.20173 0.43277 0.03618 0.0
C4493 C 0.15665 0.4596 0.02862 0.0
C4494 C 0.17184 0.44995 0.03173 0.0
H4495 H 0.22943 0.38336 0.02731 0.0
H4496 H 0.20311 0.39723 0.02677 0.0
H4497 H 0.2086 0.44994 0.06321 0.0
H4498 H 0.1487 0.50244 0.02969 0.0
H4499 H 0.17196 0.48606 0.04013 0.0
C4500 C 0.90363 0.94172 0.25897 0.0
C4501 C 0.90001 0.95883 0.26453 0.0
C4502 C 0.89044 0.92625 0.25825 0.0
C4503 C 0.8514 0.90772 0.28005 0.0
H4504 H 0.84222 0.87122 0.23611 0.0
C4505 C 0.8011 0.84028 0.27872 0.0
C4506 C 0.80567 0.82475 0.26957 0.0
C4507 C 0.81096 0.85743 0.27717 0.0
C4508 C 0.84475 0.88113 0.24863 0.0
H4509 H 0.87965 0.97319 0.27357 0.0
H4510 H 0.85663 0.94593 0.27286 0.0
H4511 H 0.86256 0.89964 0.23501 0.0
H4512 H 0.82435 0.81517 0.25176 0.0
H4513 H 0.84181 0.84466 0.24976 0.0
H4514 H 0.83436 0.88896 0.2941 0.0
C4515 C 0.86969 0.94461 0.26887 0.0
C4516 C 0.85632 0.89748 0.2479 0.0
C4517 C 0.8828 0.96018 0.26917 0.0
C4518 C 0.82033 0.82679 0.25893 0.0
C4519 C 0.83029 0.84383 0.25761 0.0
C4520 C 0.84003 0.89121 0.28092 0.0
C4521 C 0.87342 0.9275 0.26344 0.0
C4522 C 0.85993 0.91085 0.26367 0.0
C4523 C 0.82575 0.85944 0.26663 0.0
C4524 C 0.83675 0.87757 0.26531 0.0
H4525 H 0.91672 0.94026 0.25518 0.0
H4526 H 0.89371 0.91323 0.25411 0.0
H4527 H 0.85409 0.91775 0.29248 0.0
H4528 H 0.78996 0.83922 0.28714 0.0
H4529 H 0.80691 0.86911 0.28417 0.0
C4530 C 0.71266 0.09273 0.77457 0.0
C4531 C 0.69472 0.09047 0.76669 0.0
C4532 C 0.724 0.10948 0.77545 0.0
C4533 C 0.72913 0.15141 0.75375 0.0
H4534 H 0.74962 0.1755 0.80409 0.0
C4535 C 0.74759 0.22686 0.76578 0.0
C4536 C 0.76559 0.23333 0.77259 0.0
C4537 C 0.73989 0.20922 0.76768 0.0
C4538 C 0.74408 0.1688 0.78998 0.0
H4539 H 0.67472 0.10324 0.75252 0.0
H4540 H 0.69447 0.13228 0.75387 0.0
H4541 H 0.73621 0.14327 0.80024 0.0
H4542 H 0.78954 0.22776 0.7878 0.0
H4543 H 0.77595 0.19661 0.79133 0.0
H4544 H 0.73643 0.1769 0.74352 0.0
C4545 C 0.69975 0.12131 0.75959 0.0
C4546 C 0.73663 0.15046 0.78775 0.0
C4547 C 0.68842 0.10481 0.75905 0.0
C4548 C 0.77554 0.22275 0.78263 0.0
C4549 C 0.76781 0.2051 0.78464 0.0
C4550 C 0.73649 0.16966 0.75598 0.0
C4551 C 0.71753 0.12382 0.76796 0.0
C4552 C 0.72865 0.14185 0.76971 0.0
C4553 C 0.75023 0.19802 0.77631 0.0
C4554 C 0.7435 0.17856 0.77419 0.0
H4555 H 0.71776 0.08172 0.78036 0.0
H4556 H 0.73773 0.11126 0.78194 0.0
H4557 H 0.72318 0.14489 0.73968 0.0
H4558 H 0.73991 0.23498 0.75784 0.0
H4559 H 0.72622 0.20397 0.76137 0.0
loop_
_geom_bond_atom_site_label_1
_geom_bond_atom_site_label_2
_geom_bond_distance
_geom_bond_site_symmetry_2
_ccdc_geom_bond_type
Co0 O1 2.216 . S
Co0 O2 2.091 . S
Co0 O4 2.004 . S
Co0 O10 2.021 . S
Co0 O12 2.137 . S
Co0 O13 2.244 . S
O1 Co0 2.216 . S
O1 C8 1.247 . S
O2 Co0 2.091 . S
O2 C8 1.261 . S
C3 O12 1.247 . S
C3 O13 1.272 . S
O4 Co0 2.004 . S
O4 C9 1.259 1_455 S
Co5 O6 2.061 1_455 S
Co5 O11 2.052 . S
Co5 O13 2.135 . S
O6 Co5 2.061 1_655 S
O6 C9 1.235 . S
C7 O10 1.238 . S
C7 O11 1.241 . S
C8 O1 1.247 . S
C8 O2 1.261 . S
C9 O4 1.259 1_655 S
C9 O6 1.235 . S
O10 Co0 2.021 . S
O10 C7 1.238 . S
O11 Co5 2.052 . S
O11 C7 1.241 . S
O12 Co0 2.137 . S
O12 C3 1.247 . S
O13 Co0 2.244 . S
O13 C3 1.272 . S
O13 Co5 2.135 . S
Co14 O15 2.216 1_455 S
Co14 O16 2.091 1_455 S
Co14 O18 2.004 . S
Co14 O24 2.021 . S
Co14 O26 2.137 . S
Co14 O27 2.244 . S
O15 Co14 2.216 1_655 S
O15 C22 1.247 . S
O16 Co14 2.091 1_655 S
O16 C22 1.261 . S
C17 O26 1.247 . S
C17 O27 1.272 . S
O18 Co14 2.004 . S
O18 C23 1.259 . S
Co19 O20 2.061 . S
Co19 O25 2.052 . S
Co19 O27 2.135 . S
O20 Co19 2.061 . S
O20 C23 1.235 . S
C21 O24 1.238 . S
C21 O25 1.241 . S
C22 O15 1.247 . S
C22 O16 1.261 . S
C23 O18 1.259 . S
C23 O20 1.235 . S
O24 Co14 2.021 . S
O24 C21 1.238 . S
O25 Co19 2.052 . S
O25 C21 1.241 . S
O26 Co14 2.137 . S
O26 C17 1.247 . S
O27 Co14 2.244 . S
O27 C17 1.272 . S
O27 Co19 2.135 . S
Co28 O29 2.216 . S
Co28 O30 2.091 . S
Co28 O32 2.004 . S
Co28 O38 2.021 . S
Co28 O40 2.137 . S
Co28 O41 2.244 . S
O29 Co28 2.216 . S
O29 C36 1.247 . S
O30 Co28 2.091 . S
O30 C36 1.261 . S
C31 O40 1.247 . S
C31 O41 1.272 . S
O32 Co28 2.004 . S
O32 C37 1.259 . S
Co33 O34 2.061 . S
Co33 O39 2.052 . S
Co33 O41 2.135 . S
O34 Co33 2.061 . S
O34 C37 1.235 . S
C35 O38 1.238 . S
C35 O39 1.241 . S
C36 O29 1.247 . S
C36 O30 1.261 . S
C37 O32 1.259 . S
C37 O34 1.235 . S
O38 Co28 2.021 . S
O38 C35 1.238 . S
O39 Co33 2.052 . S
O39 C35 1.241 . S
O40 Co28 2.137 . S
O40 C31 1.247 . S
O41 Co28 2.244 . S
O41 C31 1.272 . S
O41 Co33 2.135 . S
Co42 O43 2.216 . S
Co42 O44 2.091 . S
Co42 O46 2.004 . S
Co42 O52 2.021 . S
Co42 O54 2.137 . S
Co42 O55 2.244 . S
O43 Co42 2.216 . S
O43 C50 1.247 . S
O44 Co42 2.091 . S
O44 C50 1.261 . S
C45 O54 1.247 . S
C45 O55 1.272 . S
O46 Co42 2.004 . S
O46 C51 1.259 . S
Co47 O48 2.061 . S
Co47 O53 2.052 . S
Co47 O55 2.135 . S
O48 Co47 2.061 . S
O48 C51 1.235 . S
C49 O52 1.238 . S
C49 O53 1.241 . S
C50 O43 1.247 . S
C50 O44 1.261 . S
C51 O46 1.259 . S
C51 O48 1.235 . S
O52 Co42 2.021 . S
O52 C49 1.238 . S
O53 Co47 2.052 . S
O53 C49 1.241 . S
O54 Co42 2.137 . S
O54 C45 1.247 . S
O55 Co42 2.244 . S
O55 C45 1.272 . S
O55 Co47 2.135 . S
Co56 O57 2.216 . S
Co56 O58 2.091 . S
Co56 O60 2.004 . S
Co56 O66 2.021 . S
Co56 O68 2.137 . S
Co56 O69 2.244 . S
O57 Co56 2.216 . S
O57 C64 1.247 . S
O58 Co56 2.091 . S
O58 C64 1.261 . S
C59 O68 1.247 . S
C59 O69 1.272 . S
O60 Co56 2.004 . S
O60 C65 1.259 . S
Co61 O62 2.061 . S
Co61 O67 2.052 . S
Co61 O69 2.135 . S
O62 Co61 2.061 . S
O62 C65 1.235 . S
C63 O66 1.238 . S
C63 O67 1.241 . S
C64 O57 1.247 . S
C64 O58 1.261 . S
C65 O60 1.259 . S
C65 O62 1.235 . S
O66 Co56 2.021 . S
O66 C63 1.238 . S
O67 Co61 2.052 . S
O67 C63 1.241 . S
O68 Co56 2.137 . S
O68 C59 1.247 . S
O69 Co56 2.244 . S
O69 C59 1.272 . S
O69 Co61 2.135 . S
Co70 O71 2.216 . S
Co70 O72 2.091 . S
Co70 O74 2.004 . S
Co70 O80 2.021 . S
Co70 O82 2.137 . S
Co70 O83 2.244 . S
O71 Co70 2.216 . S
O71 C78 1.247 . S
O72 Co70 2.091 . S
O72 C78 1.261 . S
C73 O82 1.247 . S
C73 O83 1.272 . S
O74 Co70 2.004 . S
O74 C79 1.259 . S
Co75 O76 2.061 . S
Co75 O81 2.052 . S
Co75 O83 2.135 . S
O76 Co75 2.061 . S
O76 C79 1.235 . S
C77 O80 1.238 . S
C77 O81 1.241 . S
C78 O71 1.247 . S
C78 O72 1.261 . S
C79 O74 1.259 . S
C79 O76 1.235 . S
O80 Co70 2.021 . S
O80 C77 1.238 . S
O81 Co75 2.052 . S
O81 C77 1.241 . S
O82 Co70 2.137 . S
O82 C73 1.247 . S
O83 Co70 2.244 . S
O83 C73 1.272 . S
O83 Co75 2.135 . S
Co84 O85 2.216 . S
Co84 O86 2.091 . S
Co84 O88 2.004 . S
Co84 O94 2.021 . S
Co84 O96 2.137 . S
Co84 O97 2.244 . S
O85 Co84 2.216 . S
O85 C92 1.247 . S
O86 Co84 2.091 . S
O86 C92 1.261 . S
C87 O96 1.247 . S
C87 O97 1.272 . S
O88 Co84 2.004 . S
O88 C93 1.259 . S
Co89 O90 2.061 . S
Co89 O95 2.052 . S
Co89 O97 2.135 . S
O90 Co89 2.061 . S
O90 C93 1.235 . S
C91 O94 1.238 . S
C91 O95 1.241 . S
C92 O85 1.247 . S
C92 O86 1.261 . S
C93 O88 1.259 . S
C93 O90 1.235 . S
O94 Co84 2.021 . S
O94 C91 1.238 . S
O95 Co89 2.052 . S
O95 C91 1.241 . S
O96 Co84 2.137 . S
O96 C87 1.247 . S
O97 Co84 2.244 . S
O97 C87 1.272 . S
O97 Co89 2.135 . S
Co98 O99 2.216 . S
Co98 O100 2.091 . S
Co98 O102 2.004 1_455 S
Co98 O108 2.021 1_455 S
Co98 O110 2.137 . S
Co98 O111 2.244 1_455 S
O99 Co98 2.216 . S
O99 C106 1.247 . S
O100 Co98 2.091 . S
O100 C106 1.261 . S
C101 O110 1.247 . S
C101 O111 1.272 1_455 S
O102 Co98 2.004 1_655 S
O102 C107 1.259 . S
Co103 O104 2.061 . S
Co103 O109 2.052 . S
Co103 O111 2.135 . S
O104 Co103 2.061 . S
O104 C107 1.235 . S
C105 O108 1.239 . S
C105 O109 1.241 . S
C106 O99 1.247 . S
C106 O100 1.261 . S
C107 O102 1.259 . S
C107 O104 1.235 . S
O108 Co98 2.021 1_655 S
O108 C105 1.239 . S
O109 Co103 2.052 . S
O109 C105 1.241 . S
O110 Co98 2.137 . S
O110 C101 1.247 . S
O111 Co98 2.244 1_655 S
O111 C101 1.272 1_655 S
O111 Co103 2.135 . S
Co112 O113 2.216 . S
Co112 O114 2.091 . S
Co112 O116 2.004 1_545 S
Co112 O122 2.021 . S
Co112 O124 2.137 . S
Co112 O125 2.244 . S
O113 Co112 2.216 . S
O113 C120 1.247 . S
O114 Co112 2.091 . S
O114 C120 1.261 . S
C115 O124 1.247 . S
C115 O125 1.272 . S
O116 Co112 2.004 1_565 S
O116 C121 1.259 . S
Co117 O118 2.061 . S
Co117 O123 2.052 . S
Co117 O125 2.135 1_565 S
O118 Co117 2.061 . S
O118 C121 1.235 . S
C119 O122 1.238 . S
C119 O123 1.241 1_545 S
C120 O113 1.247 . S
C120 O114 1.261 . S
C121 O116 1.259 . S
C121 O118 1.235 . S
O122 Co112 2.021 . S
O122 C119 1.238 . S
O123 Co117 2.052 . S
O123 C119 1.241 1_565 S
O124 Co112 2.137 . S
O124 C115 1.247 . S
O125 Co112 2.244 . S
O125 C115 1.272 . S
O125 Co117 2.135 1_545 S
Co126 O127 2.216 . S
Co126 O128 2.091 . S
Co126 O130 2.004 . S
Co126 O136 2.021 . S
Co126 O138 2.137 . S
Co126 O139 2.244 . S
O127 Co126 2.216 . S
O127 C134 1.247 . S
O128 Co126 2.091 . S
O128 C134 1.261 . S
C129 O138 1.247 . S
C129 O139 1.272 . S
O130 Co126 2.004 . S
O130 C135 1.259 . S
Co131 O132 2.061 . S
Co131 O137 2.052 . S
Co131 O139 2.135 . S
O132 Co131 2.061 . S
O132 C135 1.235 . S
C133 O136 1.238 . S
C133 O137 1.241 . S
C134 O127 1.247 . S
C134 O128 1.261 . S
C135 O130 1.259 . S
C135 O132 1.235 . S
O136 Co126 2.021 . S
O136 C133 1.238 . S
O137 Co131 2.052 . S
O137 C133 1.241 . S
O138 Co126 2.137 . S
O138 C129 1.247 . S
O139 Co126 2.244 . S
O139 C129 1.272 . S
O139 Co131 2.135 . S
Co140 O141 2.230 . S
Co140 O142 2.091 . S
Co140 O144 2.004 . S
Co140 O150 2.021 . S
Co140 O152 2.137 . S
Co140 O153 2.244 . S
O141 Co140 2.230 . S
O141 C148 1.248 . S
O142 Co140 2.091 . S
O142 C148 1.279 . S
C143 O152 1.247 . S
C143 O153 1.272 . S
O144 Co140 2.004 . S
O144 C149 1.259 . S
Co145 O146 2.061 . S
Co145 O151 2.052 . S
Co145 O153 2.135 . S
O146 Co145 2.061 . S
O146 C149 1.235 . S
C147 O150 1.238 . S
C147 O151 1.241 . S
C148 O141 1.248 . S
C148 O142 1.279 . S
C149 O144 1.259 . S
C149 O146 1.235 . S
O150 Co140 2.021 . S
O150 C147 1.238 . S
O151 Co145 2.052 . S
O151 C147 1.241 . S
O152 Co140 2.137 . S
O152 C143 1.247 . S
O153 Co140 2.244 . S
O153 C143 1.272 . S
O153 Co145 2.135 . S
Co154 O155 2.216 . S
Co154 O156 2.091 1_556 S
Co154 O158 2.000 . S
Co154 O164 2.021 1_556 S
Co154 O166 2.137 . S
Co154 O167 2.244 . S
O155 Co154 2.216 . S
O155 C162 1.250 . S
O156 Co154 2.091 1_554 S
O156 C162 1.264 1_554 S
C157 O166 1.247 . S
C157 O167 1.272 . S
O158 Co154 2.000 . S
O158 C163 1.254 1_556 S
Co159 O160 2.061 1_556 S
Co159 O165 2.052 1_556 S
Co159 O167 2.135 . S
O160 Co159 2.061 1_554 S
O160 C163 1.235 . S
C161 O164 1.238 . S
C161 O165 1.241 . S
C162 O155 1.250 . S
C162 O156 1.264 1_556 S
C163 O158 1.254 1_554 S
C163 O160 1.235 . S
O164 Co154 2.021 1_554 S
O164 C161 1.238 . S
O165 Co159 2.052 1_554 S
O165 C161 1.241 . S
O166 Co154 2.137 . S
O166 C157 1.247 . S
O167 Co154 2.244 . S
O167 C157 1.272 . S
O167 Co159 2.135 . S
Co168 O169 2.216 . S
Co168 O170 2.091 . S
Co168 O172 2.004 . S
Co168 O178 2.021 . S
Co168 O180 2.137 . S
Co168 O181 2.244 . S
O169 Co168 2.216 . S
O169 C176 1.247 . S
O170 Co168 2.091 . S
O170 C176 1.261 . S
C171 O180 1.247 . S
C171 O181 1.272 . S
O172 Co168 2.004 . S
O172 C177 1.259 . S
Co173 O174 2.061 . S
Co173 O179 2.052 . S
Co173 O181 2.135 . S
O174 Co173 2.061 . S
O174 C177 1.235 . S
C175 O178 1.238 . S
C175 O179 1.241 . S
C176 O169 1.247 . S
C176 O170 1.261 . S
C177 O172 1.259 . S
C177 O174 1.235 . S
O178 Co168 2.021 . S
O178 C175 1.238 . S
O179 Co173 2.052 . S
O179 C175 1.241 . S
O180 Co168 2.137 . S
O180 C171 1.247 . S
O181 Co168 2.244 . S
O181 C171 1.272 . S
O181 Co173 2.135 . S
Co182 O183 2.216 . S
Co182 O184 2.091 . S
Co182 O186 2.004 . S
Co182 O192 2.021 . S
Co182 O194 2.137 . S
Co182 O195 2.244 . S
O183 Co182 2.216 . S
O183 C190 1.247 . S
O184 Co182 2.091 . S
O184 C190 1.261 . S
C185 O194 1.247 . S
C185 O195 1.272 . S
O186 Co182 2.004 . S
O186 C191 1.259 . S
Co187 O188 2.061 . S
Co187 O193 2.052 . S
Co187 O195 2.135 . S
O188 Co187 2.061 . S
O188 C191 1.235 . S
C189 O192 1.238 . S
C189 O193 1.241 . S
C190 O183 1.247 . S
C190 O184 1.261 . S
C191 O186 1.259 . S
C191 O188 1.235 . S
O192 Co182 2.021 . S
O192 C189 1.238 . S
O193 Co187 2.052 . S
O193 C189 1.241 . S
O194 Co182 2.137 . S
O194 C185 1.247 . S
O195 Co182 2.244 . S
O195 C185 1.272 . S
O195 Co187 2.135 . S
Co196 O197 2.216 . S
Co196 O198 2.091 . S
Co196 O200 2.004 . S
Co196 O206 2.021 . S
Co196 O208 2.137 . S
Co196 O209 2.244 . S
O197 Co196 2.216 . S
O197 C204 1.247 . S
O198 Co196 2.091 . S
O198 C204 1.261 . S
C199 O208 1.247 . S
C199 O209 1.272 . S
O200 Co196 2.004 . S
O200 C205 1.259 . S
Co201 O202 2.061 . S
Co201 O207 2.052 . S
Co201 O209 2.135 . S
O202 Co201 2.061 . S
O202 C205 1.235 . S
C203 O206 1.238 . S
C203 O207 1.241 . S
C204 O197 1.247 . S
C204 O198 1.261 . S
C205 O200 1.259 . S
C205 O202 1.235 . S
O206 Co196 2.021 . S
O206 C203 1.238 . S
O207 Co201 2.052 . S
O207 C203 1.241 . S
O208 Co196 2.137 . S
O208 C199 1.247 . S
O209 Co196 2.244 . S
O209 C199 1.272 . S
O209 Co201 2.135 . S
Co210 O211 2.216 . S
Co210 O212 2.091 . S
Co210 O214 2.004 . S
Co210 O220 2.021 . S
Co210 O222 2.137 . S
Co210 O223 2.244 . S
O211 Co210 2.216 . S
O211 C218 1.247 . S
O212 Co210 2.091 . S
O212 C218 1.261 . S
C213 O222 1.247 . S
C213 O223 1.272 . S
O214 Co210 2.004 . S
O214 C219 1.259 . S
Co215 O216 2.061 . S
Co215 O221 2.052 . S
Co215 O223 2.135 . S
O216 Co215 2.061 . S
O216 C219 1.235 . S
C217 O220 1.238 . S
C217 O221 1.241 . S
C218 O211 1.247 . S
C218 O212 1.261 . S
C219 O214 1.259 . S
C219 O216 1.235 . S
O220 Co210 2.021 . S
O220 C217 1.238 . S
O221 Co215 2.052 . S
O221 C217 1.241 . S
O222 Co210 2.137 . S
O222 C213 1.247 . S
O223 Co210 2.244 . S
O223 C213 1.272 . S
O223 Co215 2.135 . S
Co224 O225 2.216 . S
Co224 O226 2.091 . S
Co224 O228 2.004 1_545 S
Co224 O234 2.021 . S
Co224 O236 2.137 . S
Co224 O237 2.244 . S
O225 Co224 2.216 . S
O225 C232 1.247 . S
O226 Co224 2.091 . S
O226 C232 1.261 . S
C227 O236 1.247 . S
C227 O237 1.272 . S
O228 Co224 2.004 1_565 S
O228 C233 1.259 . S
Co229 O230 2.061 . S
Co229 O235 2.052 1_565 S
Co229 O237 2.135 1_565 S
O230 Co229 2.061 . S
O230 C233 1.235 . S
C231 O234 1.238 . S
C231 O235 1.241 . S
C232 O225 1.247 . S
C232 O226 1.261 . S
C233 O228 1.259 . S
C233 O230 1.235 . S
O234 Co224 2.021 . S
O234 C231 1.238 . S
O235 Co229 2.052 1_545 S
O235 C231 1.241 . S
O236 Co224 2.137 . S
O236 C227 1.247 . S
O237 Co224 2.244 . S
O237 C227 1.272 . S
O237 Co229 2.135 1_545 S
Co238 O239 2.216 . S
Co238 O240 2.091 . S
Co238 O242 2.004 . S
Co238 O248 2.021 . S
Co238 O250 2.137 . S
Co238 O251 2.244 . S
O239 Co238 2.216 . S
O239 C246 1.247 . S
O240 Co238 2.091 . S
O240 C246 1.261 . S
C241 O250 1.247 . S
C241 O251 1.272 . S
O242 Co238 2.004 . S
O242 C247 1.259 . S
Co243 O244 2.061 . S
Co243 O249 2.052 . S
Co243 O251 2.135 . S
O244 Co243 2.061 . S
O244 C247 1.235 . S
C245 O248 1.238 . S
C245 O249 1.241 . S
C246 O239 1.247 . S
C246 O240 1.261 . S
C247 O242 1.259 . S
C247 O244 1.235 . S
O248 Co238 2.021 . S
O248 C245 1.238 . S
O249 Co243 2.052 . S
O249 C245 1.241 . S
O250 Co238 2.137 . S
O250 C241 1.247 . S
O251 Co238 2.244 . S
O251 C241 1.272 . S
O251 Co243 2.135 . S
Co252 O253 2.216 . S
Co252 O254 2.091 . S
Co252 O256 2.004 . S
Co252 O262 2.021 . S
Co252 O264 2.137 . S
Co252 O265 2.244 . S
O253 Co252 2.216 . S
O253 C260 1.247 . S
O254 Co252 2.091 . S
O254 C260 1.261 . S
C255 O264 1.247 . S
C255 O265 1.272 . S
O256 Co252 2.004 . S
O256 C261 1.259 . S
Co257 O258 2.061 . S
Co257 O263 2.052 . S
Co257 O265 2.135 . S
O258 Co257 2.061 . S
O258 C261 1.235 . S
C259 O262 1.238 . S
C259 O263 1.241 . S
C260 O253 1.247 . S
C260 O254 1.261 . S
C261 O256 1.259 . S
C261 O258 1.235 . S
O262 Co252 2.021 . S
O262 C259 1.238 . S
O263 Co257 2.052 . S
O263 C259 1.241 . S
O264 Co252 2.137 . S
O264 C255 1.247 . S
O265 Co252 2.244 . S
O265 C255 1.272 . S
O265 Co257 2.135 . S
Co266 O267 2.216 . S
Co266 O268 2.091 . S
Co266 O270 2.004 . S
Co266 O276 2.021 . S
Co266 O278 2.137 . S
Co266 O279 2.244 . S
O267 Co266 2.216 . S
O267 C274 1.247 . S
O268 Co266 2.091 . S
O268 C274 1.261 . S
C269 O278 1.247 . S
C269 O279 1.272 . S
O270 Co266 2.004 . S
O270 C275 1.259 . S
Co271 O272 2.061 . S
Co271 O277 2.052 . S
Co271 O279 2.135 . S
O272 Co271 2.061 . S
O272 C275 1.235 . S
C273 O276 1.238 . S
C273 O277 1.241 . S
C274 O267 1.247 . S
C274 O268 1.261 . S
C275 O270 1.259 . S
C275 O272 1.235 . S
O276 Co266 2.021 . S
O276 C273 1.238 . S
O277 Co271 2.052 . S
O277 C273 1.241 . S
O278 Co266 2.137 . S
O278 C269 1.247 . S
O279 Co266 2.244 . S
O279 C269 1.272 . S
O279 Co271 2.135 . S
Co280 O281 2.216 . S
Co280 O282 2.091 . S
Co280 O284 2.004 . S
Co280 O290 2.021 . S
Co280 O292 2.137 1_554 S
Co280 O293 2.244 1_554 S
O281 Co280 2.216 . S
O281 C288 1.247 . S
O282 Co280 2.091 . S
O282 C288 1.261 . S
C283 O292 1.247 . S
C283 O293 1.272 . S
O284 Co280 2.004 . S
O284 C289 1.259 . S
Co285 O286 2.061 . S
Co285 O291 2.052 . S
Co285 O293 2.135 1_554 S
O286 Co285 2.061 . S
O286 C289 1.235 . S
C287 O290 1.238 . S
C287 O291 1.241 . S
C288 O281 1.247 . S
C288 O282 1.261 . S
C289 O284 1.259 . S
C289 O286 1.235 . S
O290 Co280 2.021 . S
O290 C287 1.238 . S
O291 Co285 2.052 . S
O291 C287 1.241 . S
O292 Co280 2.137 1_556 S
O292 C283 1.247 . S
O293 Co280 2.244 1_556 S
O293 C283 1.272 . S
O293 Co285 2.135 1_556 S
Co294 O295 2.216 . S
Co294 O296 2.091 . S
Co294 O298 2.004 . S
Co294 O304 2.021 . S
Co294 O306 2.137 . S
Co294 O307 2.244 . S
O295 Co294 2.216 . S
O295 C302 1.247 . S
O296 Co294 2.091 . S
O296 C302 1.261 . S
C297 O306 1.247 . S
C297 O307 1.272 . S
O298 Co294 2.004 . S
O298 C303 1.259 . S
Co299 O300 2.061 . S
Co299 O305 2.052 . S
Co299 O307 2.135 . S
O300 Co299 2.061 . S
O300 C303 1.235 . S
C301 O304 1.238 . S
C301 O305 1.241 . S
C302 O295 1.247 . S
C302 O296 1.261 . S
C303 O298 1.259 . S
C303 O300 1.235 . S
O304 Co294 2.021 . S
O304 C301 1.238 . S
O305 Co299 2.052 . S
O305 C301 1.241 . S
O306 Co294 2.137 . S
O306 C297 1.247 . S
O307 Co294 2.244 . S
O307 C297 1.272 . S
O307 Co299 2.135 . S
Co308 O309 2.216 . S
Co308 O310 2.091 . S
Co308 O312 2.004 . S
Co308 O318 2.021 . S
Co308 O320 2.137 . S
Co308 O321 2.244 . S
O309 Co308 2.216 . S
O309 C316 1.247 . S
O310 Co308 2.091 . S
O310 C316 1.261 . S
C311 O320 1.247 . S
C311 O321 1.272 . S
O312 Co308 2.004 . S
O312 C317 1.259 . S
Co313 O314 2.061 . S
Co313 O319 2.052 . S
Co313 O321 2.135 . S
O314 Co313 2.061 . S
O314 C317 1.235 . S
C315 O318 1.238 . S
C315 O319 1.241 . S
C316 O309 1.247 . S
C316 O310 1.261 . S
C317 O312 1.259 . S
C317 O314 1.235 . S
O318 Co308 2.021 . S
O318 C315 1.238 . S
O319 Co313 2.052 . S
O319 C315 1.241 . S
O320 Co308 2.137 . S
O320 C311 1.247 . S
O321 Co308 2.244 . S
O321 C311 1.272 . S
O321 Co313 2.135 . S
Co322 O323 2.216 . S
Co322 O324 2.091 . S
Co322 O326 2.004 . S
Co322 O332 2.021 . S
Co322 O334 2.137 . S
Co322 O335 2.244 . S
O323 Co322 2.216 . S
O323 C330 1.247 . S
O324 Co322 2.091 . S
O324 C330 1.261 . S
C325 O334 1.247 . S
C325 O335 1.272 . S
O326 Co322 2.004 . S
O326 C331 1.259 . S
Co327 O328 2.061 . S
Co327 O333 2.052 . S
Co327 O335 2.135 . S
O328 Co327 2.061 . S
O328 C331 1.235 . S
C329 O332 1.238 . S
C329 O333 1.241 . S
C330 O323 1.247 . S
C330 O324 1.261 . S
C331 O326 1.259 . S
C331 O328 1.235 . S
O332 Co322 2.021 . S
O332 C329 1.238 . S
O333 Co327 2.052 . S
O333 C329 1.241 . S
O334 Co322 2.137 . S
O334 C325 1.247 . S
O335 Co322 2.244 . S
O335 C325 1.272 . S
O335 Co327 2.135 . S
Eu336 N365 2.600 . S
Eu336 N371 2.562 . S
Eu336 O380 2.462 . S
Eu336 O381 2.373 . S
Eu336 O383 2.432 . S
Eu336 O384 2.291 . S
Eu336 O388 2.335 . S
Eu336 O391 2.372 . S
Eu336 C400 2.787 . S
C337 N338 1.365 . S
C337 C340 1.405 . S
C337 C344 1.448 1_556 S
N338 C337 1.365 . S
N338 C341 1.319 . S
N338 Eu347 2.600 1_566 S
C339 C341 1.397 . S
C339 C342 1.367 . S
C339 H359 0.931 . S
C340 C337 1.405 . S
C340 C342 1.403 . S
C340 C346 1.439 . S
C341 N338 1.319 . S
C341 C339 1.397 . S
C341 H352 0.926 . S
C342 C339 1.367 . S
C342 C340 1.403 . S
C342 H363 0.929 . S
C343 C344 1.430 . S
C343 C345 1.386 . S
C343 C349 1.404 . S
C344 C337 1.448 1_554 S
C344 C343 1.430 . S
C344 N348 1.351 . S
C345 C343 1.386 . S
C345 C346 1.376 1_554 S
C345 H360 0.930 . S
C346 C340 1.439 . S
C346 C345 1.376 1_556 S
C346 H361 0.931 . S
Eu347 N338 2.600 1_544 S
Eu347 N348 2.562 1_545 S
Eu347 O382 2.335 1_655 S
Eu347 O385 2.372 1_654 S
Eu347 O386 2.462 . S
Eu347 O387 2.373 1_645 S
Eu347 O389 2.432 1_554 S
Eu347 O390 2.291 1_655 S
Eu347 C411 2.787 . S
N348 C344 1.351 . S
N348 Eu347 2.562 1_565 S
N348 C350 1.325 . S
C349 C343 1.404 . S
C349 C351 1.366 . S
C349 H357 0.930 . S
C350 N348 1.325 . S
C350 C351 1.416 . S
C350 H356 0.929 . S
C351 C349 1.366 . S
C351 C350 1.416 . S
C351 H353 0.930 . S
H352 C341 0.926 . S
H353 C351 0.930 . S
H354 C369 0.930 . S
H355 C376 0.930 1_556 S
H356 C350 0.929 . S
H357 C349 0.930 . S
H358 C372 0.929 . S
H359 C339 0.931 . S
H360 C345 0.930 . S
H361 C346 0.931 . S
H362 C367 0.931 . S
H363 C342 0.929 . S
H364 C375 0.930 . S
N365 Eu336 2.600 . S
N365 C366 1.365 . S
N365 C369 1.319 . S
C366 N365 1.365 . S
C366 C368 1.405 . S
C366 C374 1.448 . S
C367 H362 0.931 . S
C367 C369 1.397 . S
C367 C370 1.367 . S
C368 C366 1.405 . S
C368 C370 1.403 . S
C368 C401 1.439 . S
C369 H354 0.930 . S
C369 N365 1.319 . S
C369 C367 1.397 . S
C370 C367 1.367 . S
C370 C368 1.403 . S
C370 H377 0.929 . S
N371 Eu336 2.562 . S
N371 C372 1.325 . S
N371 C374 1.351 . S
C372 H358 0.929 . S
C372 N371 1.325 . S
C372 C376 1.416 . S
C373 C374 1.430 . S
C373 C375 1.404 . S
C373 C402 1.387 . S
C374 C366 1.448 . S
C374 N371 1.351 . S
C374 C373 1.430 . S
C375 H364 0.930 . S
C375 C373 1.404 . S
C375 C376 1.366 . S
C376 H355 0.930 1_554 S
C376 C372 1.416 . S
C376 C375 1.366 . S
H377 C370 0.929 . S
H378 C401 0.931 . S
H379 C402 0.931 . S
O380 Eu336 2.462 . S
O380 C400 1.252 . S
O381 Eu336 2.373 . S
O381 C392 1.249 . S
O382 Eu347 2.335 1_455 S
O382 C392 1.264 . S
O383 Eu336 2.432 . S
O383 C400 1.268 . S
O384 Eu336 2.291 . S
O384 C399 1.255 1_554 S
O385 Eu347 2.372 1_456 S
O385 C399 1.257 . S
O386 Eu347 2.462 . S
O386 C411 1.252 . S
O387 Eu347 2.373 1_465 S
O387 C403 1.249 . S
O388 Eu336 2.335 . S
O388 C403 1.264 1_545 S
O389 Eu347 2.432 1_556 S
O389 C411 1.268 1_556 S
O390 Eu347 2.291 1_455 S
O390 C410 1.255 . S
O391 Eu336 2.372 . S
O391 C410 1.257 . S
C392 O381 1.249 . S
C392 O382 1.264 . S
C393 C396 1.382 . S
C393 C398 1.390 . S
C393 C400 1.506 . S
C394 C395 1.398 . S
C394 C398 1.392 . S
C395 C394 1.398 . S
C395 C397 1.372 . S
C395 H412 0.931 1_545 S
C396 C393 1.382 . S
C396 C397 1.390 . S
C396 H413 0.931 . S
C397 C395 1.372 . S
C397 C396 1.390 . S
C397 H414 0.929 . S
C398 C393 1.390 . S
C398 C394 1.392 . S
C398 H415 0.930 . S
C399 O384 1.255 1_556 S
C399 O385 1.257 . S
C400 Eu336 2.787 . S
C400 O380 1.252 . S
C400 O383 1.268 . S
C400 C393 1.506 . S
C401 C368 1.439 . S
C401 H378 0.931 . S
C401 C402 1.374 . S
C402 C373 1.387 . S
C402 H379 0.931 . S
C402 C401 1.374 . S
C403 O387 1.249 . S
C403 O388 1.264 1_565 S
C404 C407 1.382 1_554 S
C404 C408 1.390 . S
C404 C411 1.506 . S
C405 C406 1.398 1_554 S
C405 C408 1.392 . S
C406 C405 1.398 1_556 S
C406 C409 1.372 . S
C406 H416 0.931 . S
C407 C404 1.382 1_556 S
C407 C409 1.390 . S
C407 H417 0.931 . S
C408 C404 1.390 . S
C408 C405 1.392 . S
C408 H418 0.930 . S
C409 C406 1.372 . S
C409 C407 1.390 . S
C409 H419 0.929 . S
C410 O390 1.255 . S
C410 O391 1.257 . S
C411 Eu347 2.787 . S
C411 O386 1.252 . S
C411 O389 1.268 1_554 S
C411 C404 1.506 . S
H412 C395 0.931 1_565 S
H413 C396 0.931 . S
H414 C397 0.929 . S
H415 C398 0.930 . S
H416 C406 0.931 . S
H417 C407 0.931 . S
H418 C408 0.930 . S
H419 C409 0.929 . S
Eu420 N449 2.600 . S
Eu420 N455 2.562 . S
Eu420 O464 2.462 . S
Eu420 O465 2.373 . S
Eu420 O467 2.432 . S
Eu420 O468 2.291 . S
Eu420 O472 2.335 . S
Eu420 O475 2.372 . S
Eu420 C484 2.787 . S
C421 N422 1.365 . S
C421 C424 1.405 . S
C421 C428 1.448 . S
N422 C421 1.365 . S
N422 C425 1.319 . S
N422 Eu431 2.600 . S
C423 C425 1.397 . S
C423 C426 1.367 . S
C423 H443 0.931 . S
C424 C421 1.405 . S
C424 C426 1.403 . S
C424 C430 1.439 . S
C425 N422 1.319 . S
C425 C423 1.397 . S
C425 H436 0.930 . S
C426 C423 1.367 . S
C426 C424 1.403 . S
C426 H447 0.929 . S
C427 C428 1.430 . S
C427 C429 1.387 . S
C427 C433 1.404 . S
C428 C421 1.448 . S
C428 C427 1.430 . S
C428 N432 1.351 . S
C429 C427 1.387 . S
C429 C430 1.374 . S
C429 H444 0.931 . S
C430 C424 1.439 . S
C430 C429 1.374 . S
C430 H445 0.931 . S
Eu431 N422 2.600 . S
Eu431 N432 2.562 . S
Eu431 O466 2.335 . S
Eu431 O469 2.372 . S
Eu431 O470 2.462 . S
Eu431 O471 2.373 . S
Eu431 O473 2.432 . S
Eu431 O474 2.291 . S
Eu431 C495 2.787 . S
N432 C428 1.351 . S
N432 Eu431 2.562 . S
N432 C434 1.325 . S
C433 C427 1.404 . S
C433 C435 1.366 . S
C433 H441 0.930 . S
C434 N432 1.325 . S
C434 C435 1.416 . S
C434 H440 0.929 . S
C435 C433 1.366 . S
C435 C434 1.416 . S
C435 H437 0.930 . S
H436 C425 0.930 . S
H437 C435 0.930 . S
H438 C453 0.930 . S
H439 C460 0.930 . S
H440 C434 0.929 . S
H441 C433 0.930 . S
H442 C456 0.929 . S
H443 C423 0.931 . S
H444 C429 0.931 . S
H445 C430 0.931 . S
H446 C451 0.931 . S
H447 C426 0.929 . S
H448 C459 0.930 . S
N449 Eu420 2.600 . S
N449 C450 1.365 . S
N449 C453 1.319 . S
C450 N449 1.365 . S
C450 C452 1.405 . S
C450 C458 1.448 . S
C451 H446 0.931 . S
C451 C453 1.397 . S
C451 C454 1.367 . S
C452 C450 1.405 . S
C452 C454 1.403 . S
C452 C485 1.439 . S
C453 H438 0.930 . S
C453 N449 1.319 . S
C453 C451 1.397 . S
C454 C451 1.367 . S
C454 C452 1.403 . S
C454 H461 0.929 . S
N455 Eu420 2.562 . S
N455 C456 1.325 . S
N455 C458 1.351 . S
C456 H442 0.929 . S
C456 N455 1.325 . S
C456 C460 1.416 . S
C457 C458 1.430 . S
C457 C459 1.404 . S
C457 C486 1.387 . S
C458 C450 1.448 . S
C458 N455 1.351 . S
C458 C457 1.430 . S
C459 H448 0.930 . S
C459 C457 1.404 . S
C459 C460 1.366 . S
C460 H439 0.930 . S
C460 C456 1.416 . S
C460 C459 1.366 . S
H461 C454 0.929 . S
H462 C485 0.931 . S
H463 C486 0.931 . S
O464 Eu420 2.462 . S
O464 C484 1.252 . S
O465 Eu420 2.373 . S
O465 C476 1.249 . S
O466 Eu431 2.335 . S
O466 C476 1.264 . S
O467 Eu420 2.432 . S
O467 C484 1.268 . S
O468 Eu420 2.291 . S
O468 C483 1.255 . S
O469 Eu431 2.372 . S
O469 C483 1.257 . S
O470 Eu431 2.462 . S
O470 C495 1.252 . S
O471 Eu431 2.373 . S
O471 C487 1.249 . S
O472 Eu420 2.335 . S
O472 C487 1.264 . S
O473 Eu431 2.432 . S
O473 C495 1.268 . S
O474 Eu431 2.291 . S
O474 C494 1.255 . S
O475 Eu420 2.372 . S
O475 C494 1.257 . S
C476 O465 1.249 . S
C476 O466 1.264 . S
C477 C480 1.382 . S
C477 C482 1.390 . S
C477 C484 1.506 . S
C478 C479 1.398 . S
C478 C482 1.392 . S
C479 C478 1.398 . S
C479 C481 1.372 . S
C479 H496 0.931 . S
C480 C477 1.382 . S
C480 C481 1.390 . S
C480 H497 0.931 . S
C481 C479 1.372 . S
C481 C480 1.390 . S
C481 H498 0.929 . S
C482 C477 1.390 . S
C482 C478 1.392 . S
C482 H499 0.930 . S
C483 O468 1.255 . S
C483 O469 1.257 . S
C484 Eu420 2.787 . S
C484 O464 1.252 . S
C484 O467 1.268 . S
C484 C477 1.506 . S
C485 C452 1.439 . S
C485 H462 0.931 . S
C485 C486 1.374 . S
C486 C457 1.387 . S
C486 H463 0.931 . S
C486 C485 1.374 . S
C487 O471 1.249 . S
C487 O472 1.264 . S
C488 C491 1.382 . S
C488 C492 1.390 . S
C488 C495 1.506 . S
C489 C490 1.398 . S
C489 C492 1.392 . S
C490 C489 1.398 . S
C490 C493 1.372 . S
C490 H500 0.931 . S
C491 C488 1.382 . S
C491 C493 1.390 . S
C491 H501 0.931 . S
C492 C488 1.390 . S
C492 C489 1.392 . S
C492 H502 0.930 . S
C493 C490 1.372 . S
C493 C491 1.390 . S
C493 H503 0.929 . S
C494 O474 1.255 . S
C494 O475 1.257 . S
C495 Eu431 2.787 . S
C495 O470 1.252 . S
C495 O473 1.268 . S
C495 C488 1.506 . S
H496 C479 0.931 . S
H497 C480 0.931 . S
H498 C481 0.929 . S
H499 C482 0.930 . S
H500 C490 0.931 . S
H501 C491 0.931 . S
H502 C492 0.930 . S
H503 C493 0.929 . S
Eu504 N533 2.600 1_545 S
Eu504 N539 2.562 1_545 S
Eu504 O548 2.462 . S
Eu504 O549 2.373 1_545 S
Eu504 O551 2.432 . S
Eu504 O552 2.291 . S
Eu504 O556 2.335 . S
Eu504 O559 2.372 . S
Eu504 C568 2.787 . S
C505 N506 1.365 . S
C505 C508 1.405 . S
C505 C512 1.448 . S
N506 C505 1.365 . S
N506 C509 1.319 . S
N506 Eu515 2.600 . S
C507 C509 1.397 . S
C507 C510 1.367 . S
C507 H527 0.931 . S
C508 C505 1.405 . S
C508 C510 1.403 . S
C508 C514 1.439 . S
C509 N506 1.319 . S
C509 C507 1.397 . S
C509 H520 0.930 . S
C510 C507 1.367 . S
C510 C508 1.403 . S
C510 H531 0.929 . S
C511 C512 1.430 . S
C511 C513 1.387 . S
C511 C517 1.404 . S
C512 C505 1.448 . S
C512 C511 1.430 . S
C512 N516 1.351 . S
C513 C511 1.387 . S
C513 C514 1.374 . S
C513 H528 0.931 . S
C514 C508 1.439 . S
C514 C513 1.374 . S
C514 H529 0.931 . S
Eu515 N506 2.600 . S
Eu515 N516 2.562 . S
Eu515 O550 2.335 1_545 S
Eu515 O553 2.372 . S
Eu515 O554 2.462 . S
Eu515 O555 2.373 . S
Eu515 O557 2.432 . S
Eu515 O558 2.291 . S
Eu515 C579 2.787 . S
N516 C512 1.351 . S
N516 Eu515 2.562 . S
N516 C518 1.325 . S
C517 C511 1.404 . S
C517 C519 1.366 . S
C517 H525 0.930 . S
C518 N516 1.325 . S
C518 C519 1.416 . S
C518 H524 0.929 . S
C519 C517 1.366 . S
C519 C518 1.416 . S
C519 H521 0.930 . S
H520 C509 0.930 . S
H521 C519 0.930 . S
H522 C537 0.908 1_545 S
H523 C544 0.930 . S
H524 C518 0.929 . S
H525 C517 0.930 . S
H526 C540 0.929 . S
H527 C507 0.931 . S
H528 C513 0.931 . S
H529 C514 0.931 . S
H530 C535 0.931 . S
H531 C510 0.929 . S
H532 C543 0.930 . S
N533 Eu504 2.600 1_565 S
N533 C534 1.365 . S
N533 C537 1.318 . S
C534 N533 1.365 . S
C534 C536 1.405 . S
C534 C542 1.448 . S
C535 H530 0.931 . S
C535 C537 1.418 . S
C535 C538 1.367 . S
C536 C534 1.405 . S
C536 C538 1.403 . S
C536 C569 1.439 . S
C537 H522 0.908 1_565 S
C537 N533 1.318 . S
C537 C535 1.418 . S
C538 C535 1.367 . S
C538 C536 1.403 . S
C538 H545 0.929 . S
N539 Eu504 2.562 1_565 S
N539 C540 1.325 . S
N539 C542 1.351 . S
C540 H526 0.929 . S
C540 N539 1.325 . S
C540 C544 1.416 . S
C541 C542 1.430 . S
C541 C543 1.404 . S
C541 C570 1.387 . S
C542 C534 1.448 . S
C542 N539 1.351 . S
C542 C541 1.430 . S
C543 H532 0.930 . S
C543 C541 1.404 . S
C543 C544 1.366 . S
C544 H523 0.930 . S
C544 C540 1.416 . S
C544 C543 1.366 . S
H545 C538 0.929 . S
H546 C569 0.931 . S
H547 C570 0.931 . S
O548 Eu504 2.462 . S
O548 C568 1.252 . S
O549 Eu504 2.373 1_565 S
O549 C560 1.249 . S
O550 Eu515 2.335 1_565 S
O550 C560 1.264 . S
O551 Eu504 2.432 . S
O551 C568 1.268 . S
O552 Eu504 2.291 . S
O552 C567 1.255 . S
O553 Eu515 2.372 . S
O553 C567 1.257 . S
O554 Eu515 2.462 . S
O554 C579 1.252 . S
O555 Eu515 2.373 . S
O555 C571 1.249 . S
O556 Eu504 2.335 . S
O556 C571 1.264 . S
O557 Eu515 2.432 . S
O557 C579 1.268 . S
O558 Eu515 2.291 . S
O558 C578 1.255 . S
O559 Eu504 2.372 . S
O559 C578 1.257 . S
C560 O549 1.249 . S
C560 O550 1.264 . S
C561 C564 1.382 . S
C561 C566 1.390 . S
C561 C568 1.506 . S
C562 C563 1.398 . S
C562 C566 1.392 . S
C563 C562 1.398 . S
C563 C565 1.372 . S
C563 H580 0.931 . S
C564 C561 1.382 . S
C564 C565 1.390 . S
C564 H581 0.931 . S
C565 C563 1.372 . S
C565 C564 1.390 . S
C565 H582 0.929 . S
C566 C561 1.390 . S
C566 C562 1.392 . S
C566 H583 0.930 . S
C567 O552 1.255 . S
C567 O553 1.257 . S
C568 Eu504 2.787 . S
C568 O548 1.252 . S
C568 O551 1.268 . S
C568 C561 1.506 . S
C569 C536 1.439 . S
C569 H546 0.931 . S
C569 C570 1.374 . S
C570 C541 1.387 . S
C570 H547 0.931 . S
C570 C569 1.374 . S
C571 O555 1.249 . S
C571 O556 1.264 . S
C572 C575 1.382 . S
C572 C576 1.390 . S
C572 C579 1.506 1_565 S
C573 C574 1.398 . S
C573 C576 1.392 . S
C574 C573 1.398 . S
C574 C577 1.372 . S
C574 H584 0.931 . S
C575 C572 1.382 . S
C575 C577 1.390 . S
C575 H585 0.931 . S
C576 C572 1.390 . S
C576 C573 1.392 . S
C576 H586 0.930 . S
C577 C574 1.372 . S
C577 C575 1.390 . S
C577 H587 0.929 . S
C578 O558 1.255 . S
C578 O559 1.257 . S
C579 Eu515 2.787 . S
C579 O554 1.252 . S
C579 O557 1.268 . S
C579 C572 1.506 1_545 S
H580 C563 0.931 . S
H581 C564 0.931 . S
H582 C565 0.929 . S
H583 C566 0.930 . S
H584 C574 0.931 . S
H585 C575 0.931 . S
H586 C576 0.930 . S
H587 C577 0.929 . S
Eu588 N617 2.600 . S
Eu588 N623 2.562 . S
Eu588 O632 2.462 . S
Eu588 O633 2.373 . S
Eu588 O635 2.432 . S
Eu588 O636 2.291 . S
Eu588 O640 2.335 . S
Eu588 O643 2.372 . S
Eu588 C652 2.787 . S
C589 N590 1.365 . S
C589 C592 1.405 . S
C589 C596 1.448 . S
N590 C589 1.365 . S
N590 C593 1.319 . S
N590 Eu599 2.600 . S
C591 C593 1.397 . S
C591 C594 1.367 . S
C591 H611 0.931 . S
C592 C589 1.405 . S
C592 C594 1.403 . S
C592 C598 1.439 . S
C593 N590 1.319 . S
C593 C591 1.397 . S
C593 H604 0.930 . S
C594 C591 1.367 . S
C594 C592 1.403 . S
C594 H615 0.929 . S
C595 C596 1.430 . S
C595 C597 1.387 . S
C595 C601 1.404 . S
C596 C589 1.448 . S
C596 C595 1.430 . S
C596 N600 1.351 . S
C597 C595 1.387 . S
C597 C598 1.374 . S
C597 H612 0.931 . S
C598 C592 1.439 . S
C598 C597 1.374 . S
C598 H613 0.931 . S
Eu599 N590 2.600 . S
Eu599 N600 2.562 . S
Eu599 O634 2.335 . S
Eu599 O637 2.372 . S
Eu599 O638 2.462 . S
Eu599 O639 2.373 . S
Eu599 O641 2.432 . S
Eu599 O642 2.291 . S
Eu599 C663 2.787 . S
N600 C596 1.351 . S
N600 Eu599 2.562 . S
N600 C602 1.325 . S
C601 C595 1.404 . S
C601 C603 1.366 . S
C601 H609 0.930 . S
C602 N600 1.325 . S
C602 C603 1.416 . S
C602 H608 0.929 . S
C603 C601 1.366 . S
C603 C602 1.416 . S
C603 H605 0.930 . S
H604 C593 0.930 . S
H605 C603 0.930 . S
H606 C621 0.930 . S
H607 C628 0.930 . S
H608 C602 0.929 . S
H609 C601 0.930 . S
H610 C624 0.929 . S
H611 C591 0.931 . S
H612 C597 0.931 . S
H613 C598 0.931 . S
H614 C619 0.931 . S
H615 C594 0.929 . S
H616 C627 0.930 . S
N617 Eu588 2.600 . S
N617 C618 1.365 . S
N617 C621 1.319 . S
C618 N617 1.365 . S
C618 C620 1.405 . S
C618 C626 1.448 . S
C619 H614 0.931 . S
C619 C621 1.397 . S
C619 C622 1.367 . S
C620 C618 1.405 . S
C620 C622 1.403 . S
C620 C653 1.439 . S
C621 H606 0.930 . S
C621 N617 1.319 . S
C621 C619 1.397 . S
C622 C619 1.367 . S
C622 C620 1.403 . S
C622 H629 0.929 . S
N623 Eu588 2.562 . S
N623 C624 1.325 . S
N623 C626 1.351 . S
C624 H610 0.929 . S
C624 N623 1.325 . S
C624 C628 1.416 . S
C625 C626 1.430 . S
C625 C627 1.404 . S
C625 C654 1.387 . S
C626 C618 1.448 . S
C626 N623 1.351 . S
C626 C625 1.430 . S
C627 H616 0.930 . S
C627 C625 1.404 . S
C627 C628 1.366 . S
C628 H607 0.930 . S
C628 C624 1.416 . S
C628 C627 1.366 . S
H629 C622 0.929 . S
H630 C653 0.931 . S
H631 C654 0.931 . S
O632 Eu588 2.462 . S
O632 C652 1.252 . S
O633 Eu588 2.373 . S
O633 C644 1.249 . S
O634 Eu599 2.335 . S
O634 C644 1.264 . S
O635 Eu588 2.432 . S
O635 C652 1.268 . S
O636 Eu588 2.291 . S
O636 C651 1.255 . S
O637 Eu599 2.372 . S
O637 C651 1.257 . S
O638 Eu599 2.462 . S
O638 C663 1.252 . S
O639 Eu599 2.373 . S
O639 C655 1.249 . S
O640 Eu588 2.335 . S
O640 C655 1.264 . S
O641 Eu599 2.432 . S
O641 C663 1.268 . S
O642 Eu599 2.291 . S
O642 C662 1.255 . S
O643 Eu588 2.372 . S
O643 C662 1.257 . S
C644 O633 1.249 . S
C644 O634 1.264 . S
C645 C648 1.382 . S
C645 C650 1.390 . S
C645 C652 1.506 . S
C646 C647 1.398 . S
C646 C650 1.392 . S
C647 C646 1.398 . S
C647 C649 1.372 . S
C647 H664 0.931 . S
C648 C645 1.382 . S
C648 C649 1.390 . S
C648 H665 0.931 . S
C649 C647 1.372 . S
C649 C648 1.390 . S
C649 H666 0.929 . S
C650 C645 1.390 . S
C650 C646 1.392 . S
C650 H667 0.930 . S
C651 O636 1.255 . S
C651 O637 1.257 . S
C652 Eu588 2.787 . S
C652 O632 1.252 . S
C652 O635 1.268 . S
C652 C645 1.506 . S
C653 C620 1.439 . S
C653 H630 0.931 . S
C653 C654 1.374 . S
C654 C625 1.387 . S
C654 H631 0.931 . S
C654 C653 1.374 . S
C655 O639 1.249 . S
C655 O640 1.264 . S
C656 C659 1.382 . S
C656 C660 1.390 . S
C656 C663 1.506 . S
C657 C658 1.398 . S
C657 C660 1.392 . S
C658 C657 1.398 . S
C658 C661 1.372 . S
C658 H668 0.931 . S
C659 C656 1.382 . S
C659 C661 1.390 . S
C659 H669 0.931 . S
C660 C656 1.390 . S
C660 C657 1.392 . S
C660 H670 0.930 . S
C661 C658 1.372 . S
C661 C659 1.390 . S
C661 H671 0.929 . S
C662 O642 1.255 . S
C662 O643 1.257 . S
C663 Eu599 2.787 . S
C663 O638 1.252 . S
C663 O641 1.268 . S
C663 C656 1.506 . S
H664 C647 0.931 . S
H665 C648 0.931 . S
H666 C649 0.929 . S
H667 C650 0.930 . S
H668 C658 0.931 . S
H669 C659 0.931 . S
H670 C660 0.930 . S
H671 C661 0.929 . S
Eu672 N701 2.600 . S
Eu672 N707 2.562 . S
Eu672 O716 2.462 . S
Eu672 O717 2.373 1_565 S
Eu672 O719 2.432 . S
Eu672 O720 2.278 1_565 S
Eu672 O724 2.335 1_565 S
Eu672 O727 2.372 1_565 S
Eu672 C736 2.787 . S
C673 N674 1.365 1_455 S
C673 C676 1.405 1_455 S
C673 C680 1.448 . S
N674 C673 1.365 1_655 S
N674 C677 1.319 . S
N674 Eu683 2.600 1_655 S
C675 C677 1.397 . S
C675 C678 1.367 . S
C675 H695 0.931 . S
C676 C673 1.405 1_655 S
C676 C678 1.403 . S
C676 C682 1.439 1_655 S
C677 N674 1.319 . S
C677 C675 1.397 . S
C677 H688 0.930 . S
C678 C675 1.367 . S
C678 C676 1.403 . S
C678 H699 0.929 . S
C679 C680 1.430 . S
C679 C681 1.387 . S
C679 C685 1.404 . S
C680 C673 1.448 . S
C680 C679 1.430 . S
C680 N684 1.351 . S
C681 C679 1.387 . S
C681 C682 1.374 . S
C681 H696 0.931 . S
C682 C676 1.439 1_455 S
C682 C681 1.374 . S
C682 H697 0.933 1_455 S
Eu683 N674 2.600 1_455 S
Eu683 N684 2.562 . S
Eu683 O718 2.335 . S
Eu683 O721 2.372 1_455 S
Eu683 O722 2.462 . S
Eu683 O723 2.373 . S
Eu683 O725 2.432 1_455 S
Eu683 O726 2.291 . S
Eu683 C747 2.787 . S
N684 C680 1.351 . S
N684 Eu683 2.562 . S
N684 C686 1.325 . S
C685 C679 1.404 . S
C685 C687 1.366 . S
C685 H693 0.930 . S
C686 N684 1.325 . S
C686 C687 1.416 . S
C686 H692 0.929 . S
C687 C685 1.366 . S
C687 C686 1.416 . S
C687 H689 0.930 . S
H688 C677 0.930 . S
H689 C687 0.930 . S
H690 C705 0.930 1_545 S
H691 C712 0.930 . S
H692 C686 0.929 . S
H693 C685 0.930 . S
H694 C708 0.895 1_655 S
H695 C675 0.931 . S
H696 C681 0.931 . S
H697 C682 0.933 1_655 S
H698 C703 0.931 . S
H699 C678 0.929 . S
H700 C711 0.952 . S
N701 Eu672 2.600 . S
N701 C702 1.365 . S
N701 C705 1.319 . S
C702 N701 1.365 . S
C702 C704 1.405 . S
C702 C710 1.448 . S
C703 H698 0.931 . S
C703 C705 1.397 . S
C703 C706 1.367 . S
C704 C702 1.405 . S
C704 C706 1.403 . S
C704 C737 1.439 . S
C705 H690 0.930 1_565 S
C705 N701 1.319 . S
C705 C703 1.397 . S
C706 C703 1.367 . S
C706 C704 1.403 . S
C706 H713 0.929 . S
N707 Eu672 2.562 . S
N707 C708 1.379 . S
N707 C710 1.351 . S
C708 H694 0.895 1_455 S
C708 N707 1.379 . S
C708 C712 1.396 1_455 S
C709 C710 1.430 . S
C709 C711 1.348 1_455 S
C709 C738 1.387 . S
C710 C702 1.448 . S
C710 N707 1.351 . S
C710 C709 1.430 . S
C711 H700 0.952 . S
C711 C709 1.348 1_655 S
C711 C712 1.404 . S
C712 H691 0.930 . S
C712 C708 1.396 1_655 S
C712 C711 1.404 . S
H713 C706 0.929 . S
H714 C737 0.931 . S
H715 C738 0.931 . S
O716 Eu672 2.462 . S
O716 C736 1.252 . S
O717 Eu672 2.373 1_545 S
O717 C728 1.249 . S
O718 Eu683 2.335 . S
O718 C728 1.264 . S
O719 Eu672 2.432 . S
O719 C736 1.268 . S
O720 Eu672 2.278 1_545 S
O720 C735 1.278 1_455 S
O721 Eu683 2.372 1_655 S
O721 C735 1.257 . S
O722 Eu683 2.462 . S
O722 C747 1.252 . S
O723 Eu683 2.373 . S
O723 C739 1.249 . S
O724 Eu672 2.335 1_545 S
O724 C739 1.264 . S
O725 Eu683 2.432 1_655 S
O725 C747 1.268 1_655 S
O726 Eu683 2.291 . S
O726 C746 1.255 . S
O727 Eu672 2.372 1_545 S
O727 C746 1.257 . S
C728 O717 1.249 . S
C728 O718 1.264 . S
C729 C732 1.382 . S
C729 C734 1.390 . S
C729 C736 1.506 . S
C730 C731 1.398 . S
C730 C734 1.392 . S
C731 C730 1.398 . S
C731 C733 1.372 . S
C731 H748 0.931 . S
C732 C729 1.382 . S
C732 C733 1.390 . S
C732 H749 0.931 . S
C733 C731 1.372 . S
C733 C732 1.390 . S
C733 H750 0.929 . S
C734 C729 1.390 . S
C734 C730 1.392 . S
C734 H751 0.930 . S
C735 O720 1.278 1_655 S
C735 O721 1.257 . S
C736 Eu672 2.787 . S
C736 O716 1.252 . S
C736 O719 1.268 . S
C736 C729 1.506 . S
C737 C704 1.439 . S
C737 H714 0.931 . S
C737 C738 1.374 . S
C738 C709 1.387 . S
C738 H715 0.931 . S
C738 C737 1.374 . S
C739 O723 1.249 . S
C739 O724 1.264 . S
C740 C743 1.382 1_455 S
C740 C744 1.390 . S
C740 C747 1.506 . S
C741 C742 1.398 . S
C741 C744 1.392 . S
C742 C741 1.398 . S
C742 C745 1.372 1_455 S
C742 H752 0.915 1_455 S
C743 C740 1.382 1_655 S
C743 C745 1.390 . S
C743 H753 0.931 . S
C744 C740 1.390 . S
C744 C741 1.392 . S
C744 H754 0.930 . S
C745 C742 1.372 1_655 S
C745 C743 1.390 . S
C745 H755 0.929 . S
C746 O726 1.255 . S
C746 O727 1.257 . S
C747 Eu683 2.787 . S
C747 O722 1.252 . S
C747 O725 1.268 1_455 S
C747 C740 1.506 . S
H748 C731 0.931 . S
H749 C732 0.931 . S
H750 C733 0.929 . S
H751 C734 0.930 . S
H752 C742 0.915 1_655 S
H753 C743 0.931 . S
H754 C744 0.930 . S
H755 C745 0.929 . S
Eu756 N785 2.600 . S
Eu756 N791 2.562 . S
Eu756 O800 2.462 . S
Eu756 O801 2.373 . S
Eu756 O803 2.432 . S
Eu756 O804 2.291 . S
Eu756 O808 2.335 . S
Eu756 O811 2.372 . S
Eu756 C820 2.787 . S
C757 N758 1.365 . S
C757 C760 1.405 . S
C757 C764 1.448 . S
N758 C757 1.365 . S
N758 C761 1.319 . S
N758 Eu767 2.600 . S
C759 C761 1.397 . S
C759 C762 1.367 . S
C759 H779 0.931 . S
C760 C757 1.405 . S
C760 C762 1.403 . S
C760 C766 1.439 . S
C761 N758 1.319 . S
C761 C759 1.397 . S
C761 H772 0.930 . S
C762 C759 1.367 . S
C762 C760 1.403 . S
C762 H783 0.929 . S
C763 C764 1.430 . S
C763 C765 1.387 . S
C763 C769 1.404 . S
C764 C757 1.448 . S
C764 C763 1.430 . S
C764 N768 1.351 . S
C765 C763 1.387 . S
C765 C766 1.374 . S
C765 H780 0.931 . S
C766 C760 1.439 . S
C766 C765 1.374 . S
C766 H781 0.931 . S
Eu767 N758 2.600 . S
Eu767 N768 2.562 . S
Eu767 O802 2.335 . S
Eu767 O805 2.372 . S
Eu767 O806 2.462 . S
Eu767 O807 2.373 . S
Eu767 O809 2.432 . S
Eu767 O810 2.291 . S
Eu767 C831 2.787 . S
N768 C764 1.351 . S
N768 Eu767 2.562 . S
N768 C770 1.325 . S
C769 C763 1.404 . S
C769 C771 1.366 . S
C769 H777 0.930 . S
C770 N768 1.325 . S
C770 C771 1.416 . S
C770 H776 0.929 . S
C771 C769 1.366 . S
C771 C770 1.416 . S
C771 H773 0.930 . S
H772 C761 0.930 . S
H773 C771 0.930 . S
H774 C789 0.930 . S
H775 C796 0.930 . S
H776 C770 0.929 . S
H777 C769 0.930 . S
H778 C792 0.929 . S
H779 C759 0.931 . S
H780 C765 0.931 . S
H781 C766 0.931 . S
H782 C787 0.931 . S
H783 C762 0.929 . S
H784 C795 0.930 . S
N785 Eu756 2.600 . S
N785 C786 1.365 . S
N785 C789 1.319 . S
C786 N785 1.365 . S
C786 C788 1.405 . S
C786 C794 1.448 . S
C787 H782 0.931 . S
C787 C789 1.397 . S
C787 C790 1.367 . S
C788 C786 1.405 . S
C788 C790 1.403 . S
C788 C821 1.439 . S
C789 H774 0.930 . S
C789 N785 1.319 . S
C789 C787 1.397 . S
C790 C787 1.367 . S
C790 C788 1.403 . S
C790 H797 0.929 . S
N791 Eu756 2.562 . S
N791 C792 1.325 . S
N791 C794 1.351 . S
C792 H778 0.929 . S
C792 N791 1.325 . S
C792 C796 1.416 . S
C793 C794 1.430 . S
C793 C795 1.404 . S
C793 C822 1.387 . S
C794 C786 1.448 . S
C794 N791 1.351 . S
C794 C793 1.430 . S
C795 H784 0.930 . S
C795 C793 1.404 . S
C795 C796 1.366 . S
C796 H775 0.930 . S
C796 C792 1.416 . S
C796 C795 1.366 . S
H797 C790 0.929 . S
H798 C821 0.931 . S
H799 C822 0.931 . S
O800 Eu756 2.462 . S
O800 C820 1.252 . S
O801 Eu756 2.373 . S
O801 C812 1.249 . S
O802 Eu767 2.335 . S
O802 C812 1.264 . S
O803 Eu756 2.432 . S
O803 C820 1.268 . S
O804 Eu756 2.291 . S
O804 C819 1.255 . S
O805 Eu767 2.372 . S
O805 C819 1.257 . S
O806 Eu767 2.462 . S
O806 C831 1.252 . S
O807 Eu767 2.373 . S
O807 C823 1.249 . S
O808 Eu756 2.335 . S
O808 C823 1.264 . S
O809 Eu767 2.432 . S
O809 C831 1.268 . S
O810 Eu767 2.291 . S
O810 C830 1.255 . S
O811 Eu756 2.372 . S
O811 C830 1.257 . S
C812 O801 1.249 . S
C812 O802 1.264 . S
C813 C816 1.382 . S
C813 C818 1.390 . S
C813 C820 1.506 . S
C814 C815 1.398 . S
C814 C818 1.392 . S
C815 C814 1.398 . S
C815 C817 1.372 . S
C815 H832 0.931 . S
C816 C813 1.382 . S
C816 C817 1.390 . S
C816 H833 0.931 . S
C817 C815 1.372 . S
C817 C816 1.390 . S
C817 H834 0.929 . S
C818 C813 1.390 . S
C818 C814 1.392 . S
C818 H835 0.930 . S
C819 O804 1.255 . S
C819 O805 1.257 . S
C820 Eu756 2.787 . S
C820 O800 1.252 . S
C820 O803 1.268 . S
C820 C813 1.506 . S
C821 C788 1.439 . S
C821 H798 0.931 . S
C821 C822 1.374 . S
C822 C793 1.387 . S
C822 H799 0.931 . S
C822 C821 1.374 . S
C823 O807 1.249 . S
C823 O808 1.264 . S
C824 C827 1.382 . S
C824 C828 1.390 . S
C824 C831 1.506 . S
C825 C826 1.398 . S
C825 C828 1.392 . S
C826 C825 1.398 . S
C826 C829 1.372 . S
C826 H836 0.931 . S
C827 C824 1.382 . S
C827 C829 1.390 . S
C827 H837 0.931 . S
C828 C824 1.390 . S
C828 C825 1.392 . S
C828 H838 0.930 . S
C829 C826 1.372 . S
C829 C827 1.390 . S
C829 H839 0.929 . S
C830 O810 1.255 . S
C830 O811 1.257 . S
C831 Eu767 2.787 . S
C831 O806 1.252 . S
C831 O809 1.268 . S
C831 C824 1.506 . S
H832 C815 0.931 . S
H833 C816 0.931 . S
H834 C817 0.929 . S
H835 C818 0.930 . S
H836 C826 0.931 . S
H837 C827 0.931 . S
H838 C828 0.930 . S
H839 C829 0.929 . S
Eu840 N869 2.600 . S
Eu840 N875 2.562 . S
Eu840 O884 2.462 . S
Eu840 O885 2.373 1_556 S
Eu840 O887 2.432 . S
Eu840 O888 2.297 . S
Eu840 O892 2.335 1_556 S
Eu840 O895 2.372 1_556 S
Eu840 C904 2.787 . S
C841 N842 1.365 . S
C841 C844 1.405 . S
C841 C848 1.448 1_565 S
N842 C841 1.365 . S
N842 C845 1.319 . S
N842 Eu851 2.600 1_565 S
C843 C845 1.397 . S
C843 C846 1.367 . S
C843 H863 0.931 . S
C844 C841 1.405 . S
C844 C846 1.403 . S
C844 C850 1.439 . S
C845 N842 1.319 . S
C845 C843 1.397 . S
C845 H856 0.930 . S
C846 C843 1.367 . S
C846 C844 1.403 . S
C846 H867 0.929 . S
C847 C848 1.430 . S
C847 C849 1.387 . S
C847 C853 1.404 . S
C848 C841 1.448 1_545 S
C848 C847 1.430 . S
C848 N852 1.351 . S
C849 C847 1.387 . S
C849 C850 1.374 1_545 S
C849 H864 0.931 . S
C850 C844 1.439 . S
C850 C849 1.374 1_565 S
C850 H865 0.931 . S
Eu851 N842 2.600 1_545 S
Eu851 N852 2.562 . S
Eu851 O886 2.335 . S
Eu851 O889 2.372 1_545 S
Eu851 O890 2.462 . S
Eu851 O891 2.373 . S
Eu851 O893 2.432 1_545 S
Eu851 O894 2.291 . S
Eu851 C915 2.787 . S
N852 C848 1.351 . S
N852 Eu851 2.562 . S
N852 C854 1.325 . S
C853 C847 1.404 . S
C853 C855 1.366 . S
C853 H861 0.930 . S
C854 N852 1.325 . S
C854 C855 1.416 . S
C854 H860 0.929 . S
C855 C853 1.366 . S
C855 C854 1.416 . S
C855 H857 0.930 . S
H856 C845 0.930 . S
H857 C855 0.930 . S
H858 C873 0.930 1_554 S
H859 C880 0.930 . S
H860 C854 0.929 . S
H861 C853 0.930 . S
H862 C876 0.908 1_565 S
H863 C843 0.931 . S
H864 C849 0.931 . S
H865 C850 0.931 . S
H866 C871 0.931 . S
H867 C846 0.929 . S
H868 C879 0.919 1_565 S
N869 Eu840 2.600 . S
N869 C870 1.365 . S
N869 C873 1.319 . S
C870 N869 1.365 . S
C870 C872 1.405 . S
C870 C878 1.448 . S
C871 H866 0.931 . S
C871 C873 1.397 . S
C871 C874 1.367 . S
C872 C870 1.405 . S
C872 C874 1.403 . S
C872 C905 1.439 . S
C873 H858 0.930 1_556 S
C873 N869 1.319 . S
C873 C871 1.397 . S
C874 C871 1.367 . S
C874 C872 1.403 . S
C874 H881 0.929 . S
N875 Eu840 2.562 . S
N875 C876 1.325 . S
N875 C878 1.351 . S
C876 H862 0.908 1_545 S
C876 N875 1.325 . S
C876 C880 1.416 1_545 S
C877 C878 1.430 . S
C877 C879 1.404 . S
C877 C906 1.387 . S
C878 C870 1.448 . S
C878 N875 1.351 . S
C878 C877 1.430 . S
C879 H868 0.919 1_545 S
C879 C877 1.404 . S
C879 C880 1.366 1_545 S
C880 H859 0.930 . S
C880 C876 1.416 1_565 S
C880 C879 1.366 1_565 S
H881 C874 0.929 . S
H882 C905 0.931 . S
H883 C906 0.931 . S
O884 Eu840 2.462 . S
O884 C904 1.252 . S
O885 Eu840 2.373 1_554 S
O885 C896 1.249 . S
O886 Eu851 2.335 . S
O886 C896 1.264 . S
O887 Eu840 2.432 . S
O887 C904 1.268 . S
O888 Eu840 2.297 . S
O888 C903 1.243 1_546 S
O889 Eu851 2.372 1_565 S
O889 C903 1.257 . S
O890 Eu851 2.462 . S
O890 C915 1.252 . S
O891 Eu851 2.373 . S
O891 C907 1.249 . S
O892 Eu840 2.335 1_554 S
O892 C907 1.264 . S
O893 Eu851 2.432 1_565 S
O893 C915 1.268 1_565 S
O894 Eu851 2.291 . S
O894 C914 1.255 . S
O895 Eu840 2.372 1_554 S
O895 C914 1.257 . S
C896 O885 1.249 . S
C896 O886 1.264 . S
C897 C900 1.382 . S
C897 C902 1.390 . S
C897 C904 1.506 . S
C898 C899 1.398 . S
C898 C902 1.392 . S
C899 C898 1.398 . S
C899 C901 1.372 . S
C899 H916 0.931 . S
C900 C897 1.382 . S
C900 C901 1.390 . S
C900 H917 0.931 . S
C901 C899 1.372 . S
C901 C900 1.390 . S
C901 H918 0.929 . S
C902 C897 1.390 . S
C902 C898 1.392 . S
C902 H919 0.930 . S
C903 O888 1.243 1_564 S
C903 O889 1.257 . S
C904 Eu840 2.787 . S
C904 O884 1.252 . S
C904 O887 1.268 . S
C904 C897 1.506 . S
C905 C872 1.439 . S
C905 H882 0.931 . S
C905 C906 1.374 . S
C906 C877 1.387 . S
C906 H883 0.931 . S
C906 C905 1.374 . S
C907 O891 1.249 . S
C907 O892 1.264 . S
C908 C911 1.382 . S
C908 C912 1.390 1_565 S
C908 C915 1.506 1_565 S
C909 C910 1.398 1_545 S
C909 C912 1.392 . S
C910 C909 1.398 1_565 S
C910 C913 1.372 . S
C910 H920 0.931 . S
C911 C908 1.382 . S
C911 C913 1.390 . S
C911 H921 0.931 . S
C912 C908 1.390 1_545 S
C912 C909 1.392 . S
C912 H922 0.930 . S
C913 C910 1.372 . S
C913 C911 1.390 . S
C913 H923 0.929 . S
C914 O894 1.255 . S
C914 O895 1.257 . S
C915 Eu851 2.787 . S
C915 O890 1.252 . S
C915 O893 1.268 1_545 S
C915 C908 1.506 1_545 S
H916 C899 0.931 . S
H917 C900 0.931 . S
H918 C901 0.929 . S
H919 C902 0.930 . S
H920 C910 0.931 . S
H921 C911 0.931 . S
H922 C912 0.930 . S
H923 C913 0.929 . S
Eu924 N953 2.600 . S
Eu924 N959 2.562 . S
Eu924 O968 2.462 . S
Eu924 O969 2.373 . S
Eu924 O971 2.432 . S
Eu924 O972 2.291 . S
Eu924 O976 2.335 . S
Eu924 O979 2.372 . S
Eu924 C988 2.787 . S
C925 N926 1.365 . S
C925 C928 1.405 . S
C925 C932 1.448 . S
N926 C925 1.365 . S
N926 C929 1.319 . S
N926 Eu935 2.600 . S
C927 C929 1.397 . S
C927 C930 1.367 . S
C927 H947 0.931 . S
C928 C925 1.405 . S
C928 C930 1.403 . S
C928 C934 1.439 . S
C929 N926 1.319 . S
C929 C927 1.397 . S
C929 H940 0.930 . S
C930 C927 1.367 . S
C930 C928 1.403 . S
C930 H951 0.929 . S
C931 C932 1.430 . S
C931 C933 1.387 . S
C931 C937 1.404 . S
C932 C925 1.448 . S
C932 C931 1.430 . S
C932 N936 1.351 . S
C933 C931 1.387 . S
C933 C934 1.374 . S
C933 H948 0.931 . S
C934 C928 1.439 . S
C934 C933 1.374 . S
C934 H949 0.931 . S
Eu935 N926 2.600 . S
Eu935 N936 2.562 . S
Eu935 O970 2.335 . S
Eu935 O973 2.372 . S
Eu935 O974 2.462 . S
Eu935 O975 2.373 . S
Eu935 O977 2.432 . S
Eu935 O978 2.291 . S
Eu935 C999 2.787 . S
N936 C932 1.351 . S
N936 Eu935 2.562 . S
N936 C938 1.325 . S
C937 C931 1.404 . S
C937 C939 1.366 . S
C937 H945 0.930 . S
C938 N936 1.325 . S
C938 C939 1.416 . S
C938 H944 0.929 . S
C939 C937 1.366 . S
C939 C938 1.416 . S
C939 H941 0.930 . S
H940 C929 0.930 . S
H941 C939 0.930 . S
H942 C957 0.930 . S
H943 C964 0.930 . S
H944 C938 0.929 . S
H945 C937 0.930 . S
H946 C960 0.929 . S
H947 C927 0.931 . S
H948 C933 0.931 . S
H949 C934 0.931 . S
H950 C955 0.931 . S
H951 C930 0.929 . S
H952 C963 0.930 . S
N953 Eu924 2.600 . S
N953 C954 1.365 . S
N953 C957 1.319 . S
C954 N953 1.365 . S
C954 C956 1.405 . S
C954 C962 1.448 . S
C955 H950 0.931 . S
C955 C957 1.397 . S
C955 C958 1.367 . S
C956 C954 1.405 . S
C956 C958 1.403 . S
C956 C989 1.439 . S
C957 H942 0.930 . S
C957 N953 1.319 . S
C957 C955 1.397 . S
C958 C955 1.367 . S
C958 C956 1.403 . S
C958 H965 0.929 . S
N959 Eu924 2.562 . S
N959 C960 1.325 . S
N959 C962 1.351 . S
C960 H946 0.929 . S
C960 N959 1.325 . S
C960 C964 1.416 . S
C961 C962 1.430 . S
C961 C963 1.404 . S
C961 C990 1.387 . S
C962 C954 1.448 . S
C962 N959 1.351 . S
C962 C961 1.430 . S
C963 H952 0.930 . S
C963 C961 1.404 . S
C963 C964 1.366 . S
C964 H943 0.930 . S
C964 C960 1.416 . S
C964 C963 1.366 . S
H965 C958 0.929 . S
H966 C989 0.931 . S
H967 C990 0.931 . S
O968 Eu924 2.462 . S
O968 C988 1.252 . S
O969 Eu924 2.373 . S
O969 C980 1.249 . S
O970 Eu935 2.335 . S
O970 C980 1.264 . S
O971 Eu924 2.432 . S
O971 C988 1.268 . S
O972 Eu924 2.291 . S
O972 C987 1.255 . S
O973 Eu935 2.372 . S
O973 C987 1.257 . S
O974 Eu935 2.462 . S
O974 C999 1.252 . S
O975 Eu935 2.373 . S
O975 C991 1.249 . S
O976 Eu924 2.335 . S
O976 C991 1.264 . S
O977 Eu935 2.432 . S
O977 C999 1.268 . S
O978 Eu935 2.291 . S
O978 C998 1.255 . S
O979 Eu924 2.372 . S
O979 C998 1.257 . S
C980 O969 1.249 . S
C980 O970 1.264 . S
C981 C984 1.382 . S
C981 C986 1.390 . S
C981 C988 1.506 . S
C982 C983 1.398 . S
C982 C986 1.392 . S
C983 C982 1.398 . S
C983 C985 1.372 . S
C983 H1000 0.931 . S
C984 C981 1.382 . S
C984 C985 1.390 . S
C984 H1001 0.931 . S
C985 C983 1.372 . S
C985 C984 1.390 . S
C985 H1002 0.929 . S
C986 C981 1.390 . S
C986 C982 1.392 . S
C986 H1003 0.930 . S
C987 O972 1.255 . S
C987 O973 1.257 . S
C988 Eu924 2.787 . S
C988 O968 1.252 . S
C988 O971 1.268 . S
C988 C981 1.506 . S
C989 C956 1.439 . S
C989 H966 0.931 . S
C989 C990 1.374 . S
C990 C961 1.387 . S
C990 H967 0.931 . S
C990 C989 1.374 . S
C991 O975 1.249 . S
C991 O976 1.264 . S
C992 C995 1.382 . S
C992 C996 1.390 . S
C992 C999 1.506 . S
C993 C994 1.398 . S
C993 C996 1.392 . S
C994 C993 1.398 . S
C994 C997 1.372 . S
C994 H1004 0.931 . S
C995 C992 1.382 . S
C995 C997 1.390 . S
C995 H1005 0.931 . S
C996 C992 1.390 . S
C996 C993 1.392 . S
C996 H1006 0.930 . S
C997 C994 1.372 . S
C997 C995 1.390 . S
C997 H1007 0.929 . S
C998 O978 1.255 . S
C998 O979 1.257 . S
C999 Eu935 2.787 . S
C999 O974 1.252 . S
C999 O977 1.268 . S
C999 C992 1.506 . S
H1000 C983 0.931 . S
H1001 C984 0.931 . S
H1002 C985 0.929 . S
H1003 C986 0.930 . S
H1004 C994 0.931 . S
H1005 C995 0.931 . S
H1006 C996 0.930 . S
H1007 C997 0.929 . S
Eu1008 N1037 2.600 1_554 S
Eu1008 N1043 2.562 1_554 S
Eu1008 O1052 2.462 . S
Eu1008 O1053 2.373 1_554 S
Eu1008 O1055 2.432 . S
Eu1008 O1056 2.291 . S
Eu1008 O1060 2.335 . S
Eu1008 O1063 2.372 . S
Eu1008 C1072 2.787 . S
C1009 N1010 1.365 . S
C1009 C1012 1.405 . S
C1009 C1016 1.448 . S
N1010 C1009 1.365 . S
N1010 C1013 1.319 . S
N1010 Eu1019 2.600 . S
C1011 C1013 1.397 . S
C1011 C1014 1.367 . S
C1011 H1031 0.931 . S
C1012 C1009 1.405 . S
C1012 C1014 1.403 . S
C1012 C1018 1.439 . S
C1013 N1010 1.319 . S
C1013 C1011 1.397 . S
C1013 H1024 0.930 . S
C1014 C1011 1.367 . S
C1014 C1012 1.403 . S
C1014 H1035 0.929 . S
C1015 C1016 1.430 . S
C1015 C1017 1.387 . S
C1015 C1021 1.404 . S
C1016 C1009 1.448 . S
C1016 C1015 1.430 . S
C1016 N1020 1.351 . S
C1017 C1015 1.387 . S
C1017 C1018 1.374 . S
C1017 H1032 0.931 . S
C1018 C1012 1.439 . S
C1018 C1017 1.374 . S
C1018 H1033 0.931 . S
Eu1019 N1010 2.600 . S
Eu1019 N1020 2.562 . S
Eu1019 O1054 2.335 1_554 S
Eu1019 O1057 2.372 . S
Eu1019 O1058 2.462 . S
Eu1019 O1059 2.373 . S
Eu1019 O1061 2.432 . S
Eu1019 O1062 2.291 . S
Eu1019 C1083 2.787 . S
N1020 C1016 1.351 . S
N1020 Eu1019 2.562 . S
N1020 C1022 1.325 . S
C1021 C1015 1.404 . S
C1021 C1023 1.366 . S
C1021 H1029 0.930 . S
C1022 N1020 1.325 . S
C1022 C1023 1.416 . S
C1022 H1028 0.929 . S
C1023 C1021 1.366 . S
C1023 C1022 1.416 . S
C1023 H1025 0.930 . S
H1024 C1013 0.930 . S
H1025 C1023 0.930 . S
H1026 C1041 0.930 1_554 S
H1027 C1048 0.930 . S
H1028 C1022 0.929 . S
H1029 C1021 0.930 . S
H1030 C1044 0.929 1_554 S
H1031 C1011 0.931 . S
H1032 C1017 0.931 . S
H1033 C1018 0.931 . S
H1034 C1039 0.931 . S
H1035 C1014 0.929 . S
H1036 C1047 0.930 . S
N1037 Eu1008 2.600 1_556 S
N1037 C1038 1.365 . S
N1037 C1041 1.319 . S
C1038 N1037 1.365 . S
C1038 C1040 1.405 . S
C1038 C1046 1.448 . S
C1039 H1034 0.931 . S
C1039 C1041 1.397 . S
C1039 C1042 1.367 . S
C1040 C1038 1.405 . S
C1040 C1042 1.403 . S
C1040 C1073 1.439 . S
C1041 H1026 0.930 1_556 S
C1041 N1037 1.319 . S
C1041 C1039 1.397 . S
C1042 C1039 1.367 . S
C1042 C1040 1.403 . S
C1042 H1049 0.929 . S
N1043 Eu1008 2.562 1_556 S
N1043 C1044 1.325 . S
N1043 C1046 1.351 . S
C1044 H1030 0.929 1_556 S
C1044 N1043 1.325 . S
C1044 C1048 1.416 . S
C1045 C1046 1.430 . S
C1045 C1047 1.404 . S
C1045 C1074 1.387 . S
C1046 C1038 1.448 . S
C1046 N1043 1.351 . S
C1046 C1045 1.430 . S
C1047 H1036 0.930 . S
C1047 C1045 1.404 . S
C1047 C1048 1.366 . S
C1048 H1027 0.930 . S
C1048 C1044 1.416 . S
C1048 C1047 1.366 . S
H1049 C1042 0.929 . S
H1050 C1073 0.931 . S
H1051 C1074 0.931 . S
O1052 Eu1008 2.462 . S
O1052 C1072 1.252 . S
O1053 Eu1008 2.373 1_556 S
O1053 C1064 1.249 . S
O1054 Eu1019 2.335 1_556 S
O1054 C1064 1.264 . S
O1055 Eu1008 2.432 . S
O1055 C1072 1.268 . S
O1056 Eu1008 2.291 . S
O1056 C1071 1.255 . S
O1057 Eu1019 2.372 . S
O1057 C1071 1.257 . S
O1058 Eu1019 2.462 . S
O1058 C1083 1.252 . S
O1059 Eu1019 2.373 . S
O1059 C1075 1.249 . S
O1060 Eu1008 2.335 . S
O1060 C1075 1.264 . S
O1061 Eu1019 2.432 . S
O1061 C1083 1.268 . S
O1062 Eu1019 2.291 . S
O1062 C1082 1.255 . S
O1063 Eu1008 2.372 . S
O1063 C1082 1.257 . S
C1064 O1053 1.249 . S
C1064 O1054 1.264 . S
C1065 C1068 1.382 . S
C1065 C1070 1.390 . S
C1065 C1072 1.506 . S
C1066 C1067 1.398 . S
C1066 C1070 1.392 . S
C1067 C1066 1.398 . S
C1067 C1069 1.372 . S
C1067 H1084 0.931 . S
C1068 C1065 1.382 . S
C1068 C1069 1.390 . S
C1068 H1085 0.931 . S
C1069 C1067 1.372 . S
C1069 C1068 1.390 . S
C1069 H1086 0.929 . S
C1070 C1065 1.390 . S
C1070 C1066 1.392 . S
C1070 H1087 0.930 . S
C1071 O1056 1.255 . S
C1071 O1057 1.257 . S
C1072 Eu1008 2.787 . S
C1072 O1052 1.252 . S
C1072 O1055 1.268 . S
C1072 C1065 1.506 . S
C1073 C1040 1.439 . S
C1073 H1050 0.931 . S
C1073 C1074 1.374 . S
C1074 C1045 1.387 . S
C1074 H1051 0.931 . S
C1074 C1073 1.374 . S
C1075 O1059 1.249 . S
C1075 O1060 1.264 . S
C1076 C1079 1.382 . S
C1076 C1080 1.390 . S
C1076 C1083 1.506 1_556 S
C1077 C1078 1.398 . S
C1077 C1080 1.392 . S
C1078 C1077 1.398 . S
C1078 C1081 1.372 . S
C1078 H1088 0.931 . S
C1079 C1076 1.382 . S
C1079 C1081 1.390 . S
C1079 H1089 0.931 . S
C1080 C1076 1.390 . S
C1080 C1077 1.392 . S
C1080 H1090 0.930 . S
C1081 C1078 1.372 . S
C1081 C1079 1.390 . S
C1081 H1091 0.929 . S
C1082 O1062 1.255 . S
C1082 O1063 1.257 . S
C1083 Eu1019 2.787 . S
C1083 O1058 1.252 . S
C1083 O1061 1.268 . S
C1083 C1076 1.506 1_554 S
H1084 C1067 0.931 . S
H1085 C1068 0.931 . S
H1086 C1069 0.929 . S
H1087 C1070 0.930 . S
H1088 C1078 0.931 . S
H1089 C1079 0.931 . S
H1090 C1080 0.930 . S
H1091 C1081 0.929 . S
Eu1092 N1121 2.600 . S
Eu1092 N1127 2.562 . S
Eu1092 O1136 2.462 . S
Eu1092 O1137 2.373 . S
Eu1092 O1139 2.432 . S
Eu1092 O1140 2.291 . S
Eu1092 O1144 2.335 . S
Eu1092 O1147 2.372 . S
Eu1092 C1156 2.787 . S
C1093 N1094 1.365 . S
C1093 C1096 1.405 . S
C1093 C1100 1.448 . S
N1094 C1093 1.365 . S
N1094 C1097 1.319 . S
N1094 Eu1103 2.600 . S
C1095 C1097 1.397 . S
C1095 C1098 1.367 . S
C1095 H1115 0.931 . S
C1096 C1093 1.405 . S
C1096 C1098 1.403 . S
C1096 C1102 1.439 . S
C1097 N1094 1.319 . S
C1097 C1095 1.397 . S
C1097 H1108 0.930 . S
C1098 C1095 1.367 . S
C1098 C1096 1.403 . S
C1098 H1119 0.929 . S
C1099 C1100 1.430 . S
C1099 C1101 1.387 . S
C1099 C1105 1.404 . S
C1100 C1093 1.448 . S
C1100 C1099 1.430 . S
C1100 N1104 1.351 . S
C1101 C1099 1.387 . S
C1101 C1102 1.374 . S
C1101 H1116 0.931 . S
C1102 C1096 1.439 . S
C1102 C1101 1.374 . S
C1102 H1117 0.931 . S
Eu1103 N1094 2.600 . S
Eu1103 N1104 2.562 . S
Eu1103 O1138 2.335 . S
Eu1103 O1141 2.372 . S
Eu1103 O1142 2.462 . S
Eu1103 O1143 2.373 . S
Eu1103 O1145 2.432 . S
Eu1103 O1146 2.291 . S
Eu1103 C1167 2.787 . S
N1104 C1100 1.351 . S
N1104 Eu1103 2.562 . S
N1104 C1106 1.325 . S
C1105 C1099 1.404 . S
C1105 C1107 1.366 . S
C1105 H1113 0.930 . S
C1106 N1104 1.325 . S
C1106 C1107 1.416 . S
C1106 H1112 0.929 . S
C1107 C1105 1.366 . S
C1107 C1106 1.416 . S
C1107 H1109 0.930 . S
H1108 C1097 0.930 . S
H1109 C1107 0.930 . S
H1110 C1125 0.930 . S
H1111 C1132 0.930 . S
H1112 C1106 0.929 . S
H1113 C1105 0.930 . S
H1114 C1128 0.929 . S
H1115 C1095 0.931 . S
H1116 C1101 0.931 . S
H1117 C1102 0.931 . S
H1118 C1123 0.931 . S
H1119 C1098 0.929 . S
H1120 C1131 0.930 . S
N1121 Eu1092 2.600 . S
N1121 C1122 1.365 . S
N1121 C1125 1.319 . S
C1122 N1121 1.365 . S
C1122 C1124 1.405 . S
C1122 C1130 1.448 . S
C1123 H1118 0.931 . S
C1123 C1125 1.397 . S
C1123 C1126 1.367 . S
C1124 C1122 1.405 . S
C1124 C1126 1.403 . S
C1124 C1157 1.439 . S
C1125 H1110 0.930 . S
C1125 N1121 1.319 . S
C1125 C1123 1.397 . S
C1126 C1123 1.367 . S
C1126 C1124 1.403 . S
C1126 H1133 0.929 . S
N1127 Eu1092 2.562 . S
N1127 C1128 1.325 . S
N1127 C1130 1.351 . S
C1128 H1114 0.929 . S
C1128 N1127 1.325 . S
C1128 C1132 1.416 . S
C1129 C1130 1.430 . S
C1129 C1131 1.404 . S
C1129 C1158 1.387 . S
C1130 C1122 1.448 . S
C1130 N1127 1.351 . S
C1130 C1129 1.430 . S
C1131 H1120 0.930 . S
C1131 C1129 1.404 . S
C1131 C1132 1.366 . S
C1132 H1111 0.930 . S
C1132 C1128 1.416 . S
C1132 C1131 1.366 . S
H1133 C1126 0.929 . S
H1134 C1157 0.931 . S
H1135 C1158 0.931 . S
O1136 Eu1092 2.462 . S
O1136 C1156 1.252 . S
O1137 Eu1092 2.373 . S
O1137 C1148 1.249 . S
O1138 Eu1103 2.335 . S
O1138 C1148 1.264 . S
O1139 Eu1092 2.432 . S
O1139 C1156 1.268 . S
O1140 Eu1092 2.291 . S
O1140 C1155 1.255 . S
O1141 Eu1103 2.372 . S
O1141 C1155 1.257 . S
O1142 Eu1103 2.462 . S
O1142 C1167 1.252 . S
O1143 Eu1103 2.373 . S
O1143 C1159 1.249 . S
O1144 Eu1092 2.335 . S
O1144 C1159 1.264 . S
O1145 Eu1103 2.432 . S
O1145 C1167 1.268 . S
O1146 Eu1103 2.291 . S
O1146 C1166 1.255 . S
O1147 Eu1092 2.372 . S
O1147 C1166 1.257 . S
C1148 O1137 1.249 . S
C1148 O1138 1.264 . S
C1149 C1152 1.382 . S
C1149 C1154 1.390 . S
C1149 C1156 1.506 . S
C1150 C1151 1.398 . S
C1150 C1154 1.392 . S
C1151 C1150 1.398 . S
C1151 C1153 1.372 . S
C1151 H1168 0.931 . S
C1152 C1149 1.382 . S
C1152 C1153 1.390 . S
C1152 H1169 0.931 . S
C1153 C1151 1.372 . S
C1153 C1152 1.390 . S
C1153 H1170 0.929 . S
C1154 C1149 1.390 . S
C1154 C1150 1.392 . S
C1154 H1171 0.930 . S
C1155 O1140 1.255 . S
C1155 O1141 1.257 . S
C1156 Eu1092 2.787 . S
C1156 O1136 1.252 . S
C1156 O1139 1.268 . S
C1156 C1149 1.506 . S
C1157 C1124 1.439 . S
C1157 H1134 0.931 . S
C1157 C1158 1.374 . S
C1158 C1129 1.387 . S
C1158 H1135 0.931 . S
C1158 C1157 1.374 . S
C1159 O1143 1.249 . S
C1159 O1144 1.264 . S
C1160 C1163 1.382 . S
C1160 C1164 1.390 . S
C1160 C1167 1.506 . S
C1161 C1162 1.398 . S
C1161 C1164 1.392 . S
C1162 C1161 1.398 . S
C1162 C1165 1.372 . S
C1162 H1172 0.931 . S
C1163 C1160 1.382 . S
C1163 C1165 1.390 . S
C1163 H1173 0.931 . S
C1164 C1160 1.390 . S
C1164 C1161 1.392 . S
C1164 H1174 0.930 . S
C1165 C1162 1.372 . S
C1165 C1163 1.390 . S
C1165 H1175 0.929 . S
C1166 O1146 1.255 . S
C1166 O1147 1.257 . S
C1167 Eu1103 2.787 . S
C1167 O1142 1.252 . S
C1167 O1145 1.268 . S
C1167 C1160 1.506 . S
H1168 C1151 0.931 . S
H1169 C1152 0.931 . S
H1170 C1153 0.929 . S
H1171 C1154 0.930 . S
H1172 C1162 0.931 . S
H1173 C1163 0.931 . S
H1174 C1164 0.930 . S
H1175 C1165 0.929 . S
Eu1176 N1205 2.600 1_455 S
Eu1176 N1211 2.562 1_455 S
Eu1176 O1220 2.462 . S
Eu1176 O1221 2.373 1_455 S
Eu1176 O1223 2.432 . S
Eu1176 O1224 2.291 . S
Eu1176 O1228 2.335 . S
Eu1176 O1231 2.372 . S
Eu1176 C1240 2.787 . S
C1177 N1178 1.365 . S
C1177 C1180 1.405 . S
C1177 C1184 1.448 . S
N1178 C1177 1.365 . S
N1178 C1181 1.319 . S
N1178 Eu1187 2.600 . S
C1179 C1181 1.397 . S
C1179 C1182 1.367 . S
C1179 H1199 0.931 . S
C1180 C1177 1.405 . S
C1180 C1182 1.403 . S
C1180 C1186 1.439 . S
C1181 N1178 1.319 . S
C1181 C1179 1.397 . S
C1181 H1192 0.930 . S
C1182 C1179 1.367 . S
C1182 C1180 1.403 . S
C1182 H1203 0.929 . S
C1183 C1184 1.430 . S
C1183 C1185 1.387 . S
C1183 C1189 1.404 . S
C1184 C1177 1.448 . S
C1184 C1183 1.430 . S
C1184 N1188 1.351 . S
C1185 C1183 1.387 . S
C1185 C1186 1.374 . S
C1185 H1200 0.931 . S
C1186 C1180 1.439 . S
C1186 C1185 1.374 . S
C1186 H1201 0.931 . S
Eu1187 N1178 2.600 . S
Eu1187 N1188 2.562 . S
Eu1187 O1222 2.335 1_455 S
Eu1187 O1225 2.372 . S
Eu1187 O1226 2.462 . S
Eu1187 O1227 2.373 . S
Eu1187 O1229 2.432 . S
Eu1187 O1230 2.291 . S
Eu1187 C1251 2.787 . S
N1188 C1184 1.351 . S
N1188 Eu1187 2.562 . S
N1188 C1190 1.325 . S
C1189 C1183 1.404 . S
C1189 C1191 1.366 . S
C1189 H1197 0.930 . S
C1190 N1188 1.325 . S
C1190 C1191 1.416 . S
C1190 H1196 0.929 . S
C1191 C1189 1.366 . S
C1191 C1190 1.416 . S
C1191 H1193 0.930 . S
H1192 C1181 0.930 . S
H1193 C1191 0.930 . S
H1194 C1209 0.930 1_455 S
H1195 C1216 0.930 . S
H1196 C1190 0.929 . S
H1197 C1189 0.930 . S
H1198 C1212 0.929 1_455 S
H1199 C1179 0.931 . S
H1200 C1185 0.931 . S
H1201 C1186 0.931 . S
H1202 C1207 0.931 . S
H1203 C1182 0.929 . S
H1204 C1215 0.930 . S
N1205 Eu1176 2.600 1_655 S
N1205 C1206 1.365 . S
N1205 C1209 1.319 . S
C1206 N1205 1.365 . S
C1206 C1208 1.405 . S
C1206 C1214 1.448 . S
C1207 H1202 0.931 . S
C1207 C1209 1.397 . S
C1207 C1210 1.367 . S
C1208 C1206 1.405 . S
C1208 C1210 1.403 . S
C1208 C1241 1.439 . S
C1209 H1194 0.930 1_655 S
C1209 N1205 1.319 . S
C1209 C1207 1.397 . S
C1210 C1207 1.367 . S
C1210 C1208 1.403 . S
C1210 H1217 0.929 . S
N1211 Eu1176 2.562 1_655 S
N1211 C1212 1.325 . S
N1211 C1214 1.351 . S
C1212 H1198 0.929 1_655 S
C1212 N1211 1.325 . S
C1212 C1216 1.416 . S
C1213 C1214 1.430 . S
C1213 C1215 1.404 . S
C1213 C1242 1.387 . S
C1214 C1206 1.448 . S
C1214 N1211 1.351 . S
C1214 C1213 1.430 . S
C1215 H1204 0.930 . S
C1215 C1213 1.404 . S
C1215 C1216 1.366 . S
C1216 H1195 0.930 . S
C1216 C1212 1.416 . S
C1216 C1215 1.366 . S
H1217 C1210 0.929 . S
H1218 C1241 0.931 . S
H1219 C1242 0.931 . S
O1220 Eu1176 2.462 . S
O1220 C1240 1.252 . S
O1221 Eu1176 2.373 1_655 S
O1221 C1232 1.249 . S
O1222 Eu1187 2.335 1_655 S
O1222 C1232 1.264 . S
O1223 Eu1176 2.432 . S
O1223 C1240 1.268 . S
O1224 Eu1176 2.291 . S
O1224 C1239 1.255 . S
O1225 Eu1187 2.372 . S
O1225 C1239 1.257 . S
O1226 Eu1187 2.462 . S
O1226 C1251 1.252 . S
O1227 Eu1187 2.373 . S
O1227 C1243 1.249 . S
O1228 Eu1176 2.335 . S
O1228 C1243 1.264 . S
O1229 Eu1187 2.432 . S
O1229 C1251 1.268 . S
O1230 Eu1187 2.291 . S
O1230 C1250 1.255 . S
O1231 Eu1176 2.372 . S
O1231 C1250 1.257 . S
C1232 O1221 1.249 . S
C1232 O1222 1.264 . S
C1233 C1236 1.382 . S
C1233 C1238 1.390 . S
C1233 C1240 1.506 . S
C1234 C1235 1.398 . S
C1234 C1238 1.392 . S
C1235 C1234 1.398 . S
C1235 C1237 1.372 . S
C1235 H1252 0.931 . S
C1236 C1233 1.382 . S
C1236 C1237 1.390 . S
C1236 H1253 0.931 . S
C1237 C1235 1.372 . S
C1237 C1236 1.390 . S
C1237 H1254 0.929 . S
C1238 C1233 1.390 . S
C1238 C1234 1.392 . S
C1238 H1255 0.930 . S
C1239 O1224 1.255 . S
C1239 O1225 1.257 . S
C1240 Eu1176 2.787 . S
C1240 O1220 1.252 . S
C1240 O1223 1.268 . S
C1240 C1233 1.506 . S
C1241 C1208 1.439 . S
C1241 H1218 0.931 . S
C1241 C1242 1.374 . S
C1242 C1213 1.387 . S
C1242 H1219 0.931 . S
C1242 C1241 1.374 . S
C1243 O1227 1.249 . S
C1243 O1228 1.264 . S
C1244 C1247 1.382 . S
C1244 C1248 1.390 . S
C1244 C1251 1.506 1_655 S
C1245 C1246 1.398 . S
C1245 C1248 1.392 . S
C1246 C1245 1.398 . S
C1246 C1249 1.372 . S
C1246 H1256 0.931 . S
C1247 C1244 1.382 . S
C1247 C1249 1.390 . S
C1247 H1257 0.931 . S
C1248 C1244 1.390 . S
C1248 C1245 1.392 . S
C1248 H1258 0.930 . S
C1249 C1246 1.372 . S
C1249 C1247 1.390 . S
C1249 H1259 0.929 . S
C1250 O1230 1.255 . S
C1250 O1231 1.257 . S
C1251 Eu1187 2.787 . S
C1251 O1226 1.252 . S
C1251 O1229 1.268 . S
C1251 C1244 1.506 1_455 S
H1252 C1235 0.931 . S
H1253 C1236 0.931 . S
H1254 C1237 0.929 . S
H1255 C1238 0.930 . S
H1256 C1246 0.931 . S
H1257 C1247 0.931 . S
H1258 C1248 0.930 . S
H1259 C1249 0.929 . S
Eu1260 N1289 2.600 . S
Eu1260 N1295 2.562 . S
Eu1260 O1304 2.462 . S
Eu1260 O1305 2.373 . S
Eu1260 O1307 2.432 . S
Eu1260 O1308 2.291 . S
Eu1260 O1312 2.335 . S
Eu1260 O1315 2.372 . S
Eu1260 C1324 2.787 . S
C1261 N1262 1.365 . S
C1261 C1264 1.405 . S
C1261 C1268 1.448 . S
N1262 C1261 1.365 . S
N1262 C1265 1.319 . S
N1262 Eu1271 2.600 . S
C1263 C1265 1.397 . S
C1263 C1266 1.367 . S
C1263 H1283 0.931 . S
C1264 C1261 1.405 . S
C1264 C1266 1.403 . S
C1264 C1270 1.439 . S
C1265 N1262 1.319 . S
C1265 C1263 1.397 . S
C1265 H1276 0.930 . S
C1266 C1263 1.367 . S
C1266 C1264 1.403 . S
C1266 H1287 0.929 . S
C1267 C1268 1.430 . S
C1267 C1269 1.387 . S
C1267 C1273 1.404 . S
C1268 C1261 1.448 . S
C1268 C1267 1.430 . S
C1268 N1272 1.351 . S
C1269 C1267 1.387 . S
C1269 C1270 1.374 . S
C1269 H1284 0.931 . S
C1270 C1264 1.439 . S
C1270 C1269 1.374 . S
C1270 H1285 0.931 . S
Eu1271 N1262 2.600 . S
Eu1271 N1272 2.562 . S
Eu1271 O1306 2.335 . S
Eu1271 O1309 2.372 . S
Eu1271 O1310 2.462 . S
Eu1271 O1311 2.373 . S
Eu1271 O1313 2.432 . S
Eu1271 O1314 2.291 . S
Eu1271 C1335 2.787 . S
N1272 C1268 1.351 . S
N1272 Eu1271 2.562 . S
N1272 C1274 1.325 . S
C1273 C1267 1.404 . S
C1273 C1275 1.366 . S
C1273 H1281 0.930 . S
C1274 N1272 1.325 . S
C1274 C1275 1.416 . S
C1274 H1280 0.929 . S
C1275 C1273 1.366 . S
C1275 C1274 1.416 . S
C1275 H1277 0.930 . S
H1276 C1265 0.930 . S
H1277 C1275 0.930 . S
H1278 C1293 0.930 . S
H1279 C1300 0.930 . S
H1280 C1274 0.929 . S
H1281 C1273 0.930 . S
H1282 C1296 0.929 . S
H1283 C1263 0.931 . S
H1284 C1269 0.931 . S
H1285 C1270 0.931 . S
H1286 C1291 0.931 . S
H1287 C1266 0.929 . S
H1288 C1299 0.930 . S
N1289 Eu1260 2.600 . S
N1289 C1290 1.365 . S
N1289 C1293 1.319 . S
C1290 N1289 1.365 . S
C1290 C1292 1.405 . S
C1290 C1298 1.448 . S
C1291 H1286 0.931 . S
C1291 C1293 1.397 . S
C1291 C1294 1.367 . S
C1292 C1290 1.405 . S
C1292 C1294 1.403 . S
C1292 C1325 1.439 . S
C1293 H1278 0.930 . S
C1293 N1289 1.319 . S
C1293 C1291 1.397 . S
C1294 C1291 1.367 . S
C1294 C1292 1.403 . S
C1294 H1301 0.929 . S
N1295 Eu1260 2.562 . S
N1295 C1296 1.325 . S
N1295 C1298 1.351 . S
C1296 H1282 0.929 . S
C1296 N1295 1.325 . S
C1296 C1300 1.416 . S
C1297 C1298 1.430 . S
C1297 C1299 1.404 . S
C1297 C1326 1.387 . S
C1298 C1290 1.448 . S
C1298 N1295 1.351 . S
C1298 C1297 1.430 . S
C1299 H1288 0.930 . S
C1299 C1297 1.404 . S
C1299 C1300 1.366 . S
C1300 H1279 0.930 . S
C1300 C1296 1.416 . S
C1300 C1299 1.366 . S
H1301 C1294 0.929 . S
H1302 C1325 0.931 . S
H1303 C1326 0.931 . S
O1304 Eu1260 2.462 . S
O1304 C1324 1.252 . S
O1305 Eu1260 2.373 . S
O1305 C1316 1.249 . S
O1306 Eu1271 2.335 . S
O1306 C1316 1.264 . S
O1307 Eu1260 2.432 . S
O1307 C1324 1.268 . S
O1308 Eu1260 2.291 . S
O1308 C1323 1.255 . S
O1309 Eu1271 2.372 . S
O1309 C1323 1.257 . S
O1310 Eu1271 2.462 . S
O1310 C1335 1.252 . S
O1311 Eu1271 2.373 . S
O1311 C1327 1.249 . S
O1312 Eu1260 2.335 . S
O1312 C1327 1.264 . S
O1313 Eu1271 2.432 . S
O1313 C1335 1.268 . S
O1314 Eu1271 2.291 . S
O1314 C1334 1.255 . S
O1315 Eu1260 2.372 . S
O1315 C1334 1.257 . S
C1316 O1305 1.249 . S
C1316 O1306 1.264 . S
C1317 C1320 1.382 . S
C1317 C1322 1.390 . S
C1317 C1324 1.506 . S
C1318 C1319 1.398 . S
C1318 C1322 1.392 . S
C1319 C1318 1.398 . S
C1319 C1321 1.372 . S
C1319 H1336 0.931 . S
C1320 C1317 1.382 . S
C1320 C1321 1.390 . S
C1320 H1337 0.931 . S
C1321 C1319 1.372 . S
C1321 C1320 1.390 . S
C1321 H1338 0.929 . S
C1322 C1317 1.390 . S
C1322 C1318 1.392 . S
C1322 H1339 0.930 . S
C1323 O1308 1.255 . S
C1323 O1309 1.257 . S
C1324 Eu1260 2.787 . S
C1324 O1304 1.252 . S
C1324 O1307 1.268 . S
C1324 C1317 1.506 . S
C1325 C1292 1.439 . S
C1325 H1302 0.931 . S
C1325 C1326 1.374 . S
C1326 C1297 1.387 . S
C1326 H1303 0.931 . S
C1326 C1325 1.374 . S
C1327 O1311 1.249 . S
C1327 O1312 1.264 . S
C1328 C1331 1.382 . S
C1328 C1332 1.390 . S
C1328 C1335 1.506 . S
C1329 C1330 1.398 . S
C1329 C1332 1.392 . S
C1330 C1329 1.398 . S
C1330 C1333 1.372 . S
C1330 H1340 0.931 . S
C1331 C1328 1.382 . S
C1331 C1333 1.390 . S
C1331 H1341 0.931 . S
C1332 C1328 1.390 . S
C1332 C1329 1.392 . S
C1332 H1342 0.930 . S
C1333 C1330 1.372 . S
C1333 C1331 1.390 . S
C1333 H1343 0.929 . S
C1334 O1314 1.255 . S
C1334 O1315 1.257 . S
C1335 Eu1271 2.787 . S
C1335 O1310 1.252 . S
C1335 O1313 1.268 . S
C1335 C1328 1.506 . S
H1336 C1319 0.931 . S
H1337 C1320 0.931 . S
H1338 C1321 0.929 . S
H1339 C1322 0.930 . S
H1340 C1330 0.931 . S
H1341 C1331 0.931 . S
H1342 C1332 0.930 . S
H1343 C1333 0.929 . S
Eu1344 N1373 2.600 . S
Eu1344 N1379 2.562 . S
Eu1344 O1388 2.462 . S
Eu1344 O1389 2.373 . S
Eu1344 O1391 2.432 . S
Eu1344 O1392 2.291 . S
Eu1344 O1396 2.335 . S
Eu1344 O1399 2.372 . S
Eu1344 C1408 2.787 . S
C1345 N1346 1.365 . S
C1345 C1348 1.405 . S
C1345 C1352 1.448 . S
N1346 C1345 1.365 . S
N1346 C1349 1.319 . S
N1346 Eu1355 2.600 . S
C1347 C1349 1.397 . S
C1347 C1350 1.367 . S
C1347 H1367 0.931 . S
C1348 C1345 1.405 . S
C1348 C1350 1.403 . S
C1348 C1354 1.439 . S
C1349 N1346 1.319 . S
C1349 C1347 1.397 . S
C1349 H1360 0.930 . S
C1350 C1347 1.367 . S
C1350 C1348 1.403 . S
C1350 H1371 0.929 . S
C1351 C1352 1.430 . S
C1351 C1353 1.387 . S
C1351 C1357 1.404 . S
C1352 C1345 1.448 . S
C1352 C1351 1.430 . S
C1352 N1356 1.351 . S
C1353 C1351 1.387 . S
C1353 C1354 1.374 . S
C1353 H1368 0.931 . S
C1354 C1348 1.439 . S
C1354 C1353 1.374 . S
C1354 H1369 0.931 . S
Eu1355 N1346 2.600 . S
Eu1355 N1356 2.562 . S
Eu1355 O1390 2.335 . S
Eu1355 O1393 2.372 . S
Eu1355 O1394 2.462 . S
Eu1355 O1395 2.373 . S
Eu1355 O1397 2.432 . S
Eu1355 O1398 2.291 . S
Eu1355 C1419 2.787 . S
N1356 C1352 1.351 . S
N1356 Eu1355 2.562 . S
N1356 C1358 1.325 . S
C1357 C1351 1.404 . S
C1357 C1359 1.366 . S
C1357 H1365 0.930 . S
C1358 N1356 1.325 . S
C1358 C1359 1.416 . S
C1358 H1364 0.929 . S
C1359 C1357 1.366 . S
C1359 C1358 1.416 . S
C1359 H1361 0.930 . S
H1360 C1349 0.930 . S
H1361 C1359 0.930 . S
H1362 C1377 0.930 . S
H1363 C1384 0.930 . S
H1364 C1358 0.929 . S
H1365 C1357 0.930 . S
H1366 C1380 0.929 . S
H1367 C1347 0.931 . S
H1368 C1353 0.931 . S
H1369 C1354 0.931 . S
H1370 C1375 0.931 . S
H1371 C1350 0.929 . S
H1372 C1383 0.930 . S
N1373 Eu1344 2.600 . S
N1373 C1374 1.365 . S
N1373 C1377 1.319 . S
C1374 N1373 1.365 . S
C1374 C1376 1.405 . S
C1374 C1382 1.448 . S
C1375 H1370 0.931 . S
C1375 C1377 1.397 . S
C1375 C1378 1.367 . S
C1376 C1374 1.405 . S
C1376 C1378 1.403 . S
C1376 C1409 1.439 . S
C1377 H1362 0.930 . S
C1377 N1373 1.319 . S
C1377 C1375 1.397 . S
C1378 C1375 1.367 . S
C1378 C1376 1.403 . S
C1378 H1385 0.929 . S
N1379 Eu1344 2.562 . S
N1379 C1380 1.325 . S
N1379 C1382 1.351 . S
C1380 H1366 0.929 . S
C1380 N1379 1.325 . S
C1380 C1384 1.416 . S
C1381 C1382 1.430 . S
C1381 C1383 1.404 . S
C1381 C1410 1.387 . S
C1382 C1374 1.448 . S
C1382 N1379 1.351 . S
C1382 C1381 1.430 . S
C1383 H1372 0.930 . S
C1383 C1381 1.404 . S
C1383 C1384 1.366 . S
C1384 H1363 0.930 . S
C1384 C1380 1.416 . S
C1384 C1383 1.366 . S
H1385 C1378 0.929 . S
H1386 C1409 0.931 . S
H1387 C1410 0.931 . S
O1388 Eu1344 2.462 . S
O1388 C1408 1.252 . S
O1389 Eu1344 2.373 . S
O1389 C1400 1.249 . S
O1390 Eu1355 2.335 . S
O1390 C1400 1.264 . S
O1391 Eu1344 2.432 . S
O1391 C1408 1.268 . S
O1392 Eu1344 2.291 . S
O1392 C1407 1.255 . S
O1393 Eu1355 2.372 . S
O1393 C1407 1.257 . S
O1394 Eu1355 2.462 . S
O1394 C1419 1.252 . S
O1395 Eu1355 2.373 . S
O1395 C1411 1.249 . S
O1396 Eu1344 2.335 . S
O1396 C1411 1.264 . S
O1397 Eu1355 2.432 . S
O1397 C1419 1.268 . S
O1398 Eu1355 2.291 . S
O1398 C1418 1.255 . S
O1399 Eu1344 2.372 . S
O1399 C1418 1.257 . S
C1400 O1389 1.249 . S
C1400 O1390 1.264 . S
C1401 C1404 1.382 . S
C1401 C1406 1.390 . S
C1401 C1408 1.506 . S
C1402 C1403 1.398 . S
C1402 C1406 1.392 . S
C1403 C1402 1.398 . S
C1403 C1405 1.372 . S
C1403 H1420 0.931 . S
C1404 C1401 1.382 . S
C1404 C1405 1.390 . S
C1404 H1421 0.931 . S
C1405 C1403 1.372 . S
C1405 C1404 1.390 . S
C1405 H1422 0.929 . S
C1406 C1401 1.390 . S
C1406 C1402 1.392 . S
C1406 H1423 0.930 . S
C1407 O1392 1.255 . S
C1407 O1393 1.257 . S
C1408 Eu1344 2.787 . S
C1408 O1388 1.252 . S
C1408 O1391 1.268 . S
C1408 C1401 1.506 . S
C1409 C1376 1.439 . S
C1409 H1386 0.931 . S
C1409 C1410 1.374 . S
C1410 C1381 1.387 . S
C1410 H1387 0.931 . S
C1410 C1409 1.374 . S
C1411 O1395 1.249 . S
C1411 O1396 1.264 . S
C1412 C1415 1.382 . S
C1412 C1416 1.390 . S
C1412 C1419 1.506 . S
C1413 C1414 1.398 . S
C1413 C1416 1.392 . S
C1414 C1413 1.398 . S
C1414 C1417 1.372 . S
C1414 H1424 0.931 . S
C1415 C1412 1.382 . S
C1415 C1417 1.390 . S
C1415 H1425 0.931 . S
C1416 C1412 1.390 . S
C1416 C1413 1.392 . S
C1416 H1426 0.930 . S
C1417 C1414 1.372 . S
C1417 C1415 1.390 . S
C1417 H1427 0.929 . S
C1418 O1398 1.255 . S
C1418 O1399 1.257 . S
C1419 Eu1355 2.787 . S
C1419 O1394 1.252 . S
C1419 O1397 1.268 . S
C1419 C1412 1.506 . S
H1420 C1403 0.931 . S
H1421 C1404 0.931 . S
H1422 C1405 0.929 . S
H1423 C1406 0.930 . S
H1424 C1414 0.931 . S
H1425 C1415 0.931 . S
H1426 C1416 0.930 . S
H1427 C1417 0.929 . S
Eu1428 N1457 2.600 . S
Eu1428 N1463 2.562 . S
Eu1428 O1472 2.462 . S
Eu1428 O1473 2.373 . S
Eu1428 O1475 2.432 . S
Eu1428 O1476 2.291 . S
Eu1428 O1480 2.335 . S
Eu1428 O1483 2.372 . S
Eu1428 C1492 2.787 . S
C1429 N1430 1.365 . S
C1429 C1432 1.405 . S
C1429 C1436 1.448 . S
N1430 C1429 1.365 . S
N1430 C1433 1.319 . S
N1430 Eu1439 2.600 . S
C1431 C1433 1.397 . S
C1431 C1434 1.367 . S
C1431 H1451 0.931 . S
C1432 C1429 1.405 . S
C1432 C1434 1.403 . S
C1432 C1438 1.439 . S
C1433 N1430 1.319 . S
C1433 C1431 1.397 . S
C1433 H1444 0.930 . S
C1434 C1431 1.367 . S
C1434 C1432 1.403 . S
C1434 H1455 0.929 . S
C1435 C1436 1.430 . S
C1435 C1437 1.387 . S
C1435 C1441 1.404 . S
C1436 C1429 1.448 . S
C1436 C1435 1.430 . S
C1436 N1440 1.351 . S
C1437 C1435 1.387 . S
C1437 C1438 1.374 . S
C1437 H1452 0.931 . S
C1438 C1432 1.439 . S
C1438 C1437 1.374 . S
C1438 H1453 0.931 . S
Eu1439 N1430 2.600 . S
Eu1439 N1440 2.562 . S
Eu1439 O1474 2.335 . S
Eu1439 O1477 2.372 . S
Eu1439 O1478 2.462 . S
Eu1439 O1479 2.373 . S
Eu1439 O1481 2.432 . S
Eu1439 O1482 2.291 . S
Eu1439 C1503 2.787 . S
N1440 C1436 1.351 . S
N1440 Eu1439 2.562 . S
N1440 C1442 1.325 . S
C1441 C1435 1.404 . S
C1441 C1443 1.366 . S
C1441 H1449 0.930 . S
C1442 N1440 1.325 . S
C1442 C1443 1.416 . S
C1442 H1448 0.929 . S
C1443 C1441 1.366 . S
C1443 C1442 1.416 . S
C1443 H1445 0.930 . S
H1444 C1433 0.930 . S
H1445 C1443 0.930 . S
H1446 C1461 0.930 . S
H1447 C1468 0.930 . S
H1448 C1442 0.929 . S
H1449 C1441 0.930 . S
H1450 C1464 0.929 . S
H1451 C1431 0.931 . S
H1452 C1437 0.931 . S
H1453 C1438 0.931 . S
H1454 C1459 0.931 . S
H1455 C1434 0.929 . S
H1456 C1467 0.930 . S
N1457 Eu1428 2.600 . S
N1457 C1458 1.365 . S
N1457 C1461 1.319 . S
C1458 N1457 1.365 . S
C1458 C1460 1.405 . S
C1458 C1466 1.448 . S
C1459 H1454 0.931 . S
C1459 C1461 1.397 . S
C1459 C1462 1.367 . S
C1460 C1458 1.405 . S
C1460 C1462 1.403 . S
C1460 C1493 1.439 . S
C1461 H1446 0.930 . S
C1461 N1457 1.319 . S
C1461 C1459 1.397 . S
C1462 C1459 1.367 . S
C1462 C1460 1.403 . S
C1462 H1469 0.929 . S
N1463 Eu1428 2.562 . S
N1463 C1464 1.325 . S
N1463 C1466 1.351 . S
C1464 H1450 0.929 . S
C1464 N1463 1.325 . S
C1464 C1468 1.416 . S
C1465 C1466 1.430 . S
C1465 C1467 1.404 . S
C1465 C1494 1.387 . S
C1466 C1458 1.448 . S
C1466 N1463 1.351 . S
C1466 C1465 1.430 . S
C1467 H1456 0.930 . S
C1467 C1465 1.404 . S
C1467 C1468 1.366 . S
C1468 H1447 0.930 . S
C1468 C1464 1.416 . S
C1468 C1467 1.366 . S
H1469 C1462 0.929 . S
H1470 C1493 0.931 . S
H1471 C1494 0.931 . S
O1472 Eu1428 2.462 . S
O1472 C1492 1.252 . S
O1473 Eu1428 2.373 . S
O1473 C1484 1.249 . S
O1474 Eu1439 2.335 . S
O1474 C1484 1.264 . S
O1475 Eu1428 2.432 . S
O1475 C1492 1.268 . S
O1476 Eu1428 2.291 . S
O1476 C1491 1.255 . S
O1477 Eu1439 2.372 . S
O1477 C1491 1.257 . S
O1478 Eu1439 2.462 . S
O1478 C1503 1.252 . S
O1479 Eu1439 2.373 . S
O1479 C1495 1.249 . S
O1480 Eu1428 2.335 . S
O1480 C1495 1.264 . S
O1481 Eu1439 2.432 . S
O1481 C1503 1.268 . S
O1482 Eu1439 2.291 . S
O1482 C1502 1.255 . S
O1483 Eu1428 2.372 . S
O1483 C1502 1.257 . S
C1484 O1473 1.249 . S
C1484 O1474 1.264 . S
C1485 C1488 1.382 . S
C1485 C1490 1.390 . S
C1485 C1492 1.506 . S
C1486 C1487 1.398 . S
C1486 C1490 1.392 . S
C1487 C1486 1.398 . S
C1487 C1489 1.372 . S
C1487 H1504 0.931 . S
C1488 C1485 1.382 . S
C1488 C1489 1.390 . S
C1488 H1505 0.931 . S
C1489 C1487 1.372 . S
C1489 C1488 1.390 . S
C1489 H1506 0.929 . S
C1490 C1485 1.390 . S
C1490 C1486 1.392 . S
C1490 H1507 0.930 . S
C1491 O1476 1.255 . S
C1491 O1477 1.257 . S
C1492 Eu1428 2.787 . S
C1492 O1472 1.252 . S
C1492 O1475 1.268 . S
C1492 C1485 1.506 . S
C1493 C1460 1.439 . S
C1493 H1470 0.931 . S
C1493 C1494 1.374 . S
C1494 C1465 1.387 . S
C1494 H1471 0.931 . S
C1494 C1493 1.374 . S
C1495 O1479 1.249 . S
C1495 O1480 1.264 . S
C1496 C1499 1.382 . S
C1496 C1500 1.390 . S
C1496 C1503 1.506 . S
C1497 C1498 1.398 . S
C1497 C1500 1.392 . S
C1498 C1497 1.398 . S
C1498 C1501 1.372 . S
C1498 H1508 0.931 . S
C1499 C1496 1.382 . S
C1499 C1501 1.390 . S
C1499 H1509 0.931 . S
C1500 C1496 1.390 . S
C1500 C1497 1.392 . S
C1500 H1510 0.930 . S
C1501 C1498 1.372 . S
C1501 C1499 1.390 . S
C1501 H1511 0.929 . S
C1502 O1482 1.255 . S
C1502 O1483 1.257 . S
C1503 Eu1439 2.787 . S
C1503 O1478 1.252 . S
C1503 O1481 1.268 . S
C1503 C1496 1.506 . S
H1504 C1487 0.931 . S
H1505 C1488 0.931 . S
H1506 C1489 0.929 . S
H1507 C1490 0.930 . S
H1508 C1498 0.931 . S
H1509 C1499 0.931 . S
H1510 C1500 0.930 . S
H1511 C1501 0.929 . S
Eu1512 N1541 2.600 . S
Eu1512 N1547 2.562 . S
Eu1512 O1556 2.462 . S
Eu1512 O1557 2.373 . S
Eu1512 O1559 2.432 . S
Eu1512 O1560 2.291 . S
Eu1512 O1564 2.335 . S
Eu1512 O1567 2.372 . S
Eu1512 C1576 2.787 . S
C1513 N1514 1.365 . S
C1513 C1516 1.405 . S
C1513 C1520 1.448 . S
N1514 C1513 1.365 . S
N1514 C1517 1.319 . S
N1514 Eu1523 2.600 . S
C1515 C1517 1.397 . S
C1515 C1518 1.367 . S
C1515 H1535 0.931 . S
C1516 C1513 1.405 . S
C1516 C1518 1.403 . S
C1516 C1522 1.439 . S
C1517 N1514 1.319 . S
C1517 C1515 1.397 . S
C1517 H1528 0.930 . S
C1518 C1515 1.367 . S
C1518 C1516 1.403 . S
C1518 H1539 0.929 . S
C1519 C1520 1.430 . S
C1519 C1521 1.387 . S
C1519 C1525 1.404 . S
C1520 C1513 1.448 . S
C1520 C1519 1.430 . S
C1520 N1524 1.351 . S
C1521 C1519 1.387 . S
C1521 C1522 1.374 . S
C1521 H1536 0.931 . S
C1522 C1516 1.439 . S
C1522 C1521 1.374 . S
C1522 H1537 0.931 . S
Eu1523 N1514 2.600 . S
Eu1523 N1524 2.562 . S
Eu1523 O1558 2.335 . S
Eu1523 O1561 2.372 . S
Eu1523 O1562 2.462 . S
Eu1523 O1563 2.373 . S
Eu1523 O1565 2.432 . S
Eu1523 O1566 2.291 . S
Eu1523 C1587 2.787 . S
N1524 C1520 1.351 . S
N1524 Eu1523 2.562 . S
N1524 C1526 1.325 . S
C1525 C1519 1.404 . S
C1525 C1527 1.366 . S
C1525 H1533 0.930 . S
C1526 N1524 1.325 . S
C1526 C1527 1.416 . S
C1526 H1532 0.929 . S
C1527 C1525 1.366 . S
C1527 C1526 1.416 . S
C1527 H1529 0.930 . S
H1528 C1517 0.930 . S
H1529 C1527 0.930 . S
H1530 C1545 0.930 . S
H1531 C1552 0.930 . S
H1532 C1526 0.929 . S
H1533 C1525 0.930 . S
H1534 C1548 0.929 . S
H1535 C1515 0.931 . S
H1536 C1521 0.931 . S
H1537 C1522 0.931 . S
H1538 C1543 0.931 . S
H1539 C1518 0.929 . S
H1540 C1551 0.930 . S
N1541 Eu1512 2.600 . S
N1541 C1542 1.365 . S
N1541 C1545 1.319 . S
C1542 N1541 1.365 . S
C1542 C1544 1.405 . S
C1542 C1550 1.448 . S
C1543 H1538 0.931 . S
C1543 C1545 1.397 . S
C1543 C1546 1.367 . S
C1544 C1542 1.405 . S
C1544 C1546 1.403 . S
C1544 C1577 1.439 . S
C1545 H1530 0.930 . S
C1545 N1541 1.319 . S
C1545 C1543 1.397 . S
C1546 C1543 1.367 . S
C1546 C1544 1.403 . S
C1546 H1553 0.929 . S
N1547 Eu1512 2.562 . S
N1547 C1548 1.325 . S
N1547 C1550 1.351 . S
C1548 H1534 0.929 . S
C1548 N1547 1.325 . S
C1548 C1552 1.416 . S
C1549 C1550 1.430 . S
C1549 C1551 1.404 . S
C1549 C1578 1.387 . S
C1550 C1542 1.448 . S
C1550 N1547 1.351 . S
C1550 C1549 1.430 . S
C1551 H1540 0.930 . S
C1551 C1549 1.404 . S
C1551 C1552 1.366 . S
C1552 H1531 0.930 . S
C1552 C1548 1.416 . S
C1552 C1551 1.366 . S
H1553 C1546 0.929 . S
H1554 C1577 0.931 . S
H1555 C1578 0.931 . S
O1556 Eu1512 2.462 . S
O1556 C1576 1.252 . S
O1557 Eu1512 2.373 . S
O1557 C1568 1.249 . S
O1558 Eu1523 2.335 . S
O1558 C1568 1.264 . S
O1559 Eu1512 2.432 . S
O1559 C1576 1.268 . S
O1560 Eu1512 2.291 . S
O1560 C1575 1.255 . S
O1561 Eu1523 2.372 . S
O1561 C1575 1.257 . S
O1562 Eu1523 2.462 . S
O1562 C1587 1.252 . S
O1563 Eu1523 2.373 . S
O1563 C1579 1.249 . S
O1564 Eu1512 2.335 . S
O1564 C1579 1.264 . S
O1565 Eu1523 2.432 . S
O1565 C1587 1.268 . S
O1566 Eu1523 2.291 . S
O1566 C1586 1.255 . S
O1567 Eu1512 2.372 . S
O1567 C1586 1.257 . S
C1568 O1557 1.249 . S
C1568 O1558 1.264 . S
C1569 C1572 1.382 . S
C1569 C1574 1.390 . S
C1569 C1576 1.506 . S
C1570 C1571 1.398 . S
C1570 C1574 1.392 . S
C1571 C1570 1.398 . S
C1571 C1573 1.372 . S
C1571 H1588 0.931 . S
C1572 C1569 1.382 . S
C1572 C1573 1.390 . S
C1572 H1589 0.931 . S
C1573 C1571 1.372 . S
C1573 C1572 1.390 . S
C1573 H1590 0.929 . S
C1574 C1569 1.390 . S
C1574 C1570 1.392 . S
C1574 H1591 0.930 . S
C1575 O1560 1.255 . S
C1575 O1561 1.257 . S
C1576 Eu1512 2.787 . S
C1576 O1556 1.252 . S
C1576 O1559 1.268 . S
C1576 C1569 1.506 . S
C1577 C1544 1.439 . S
C1577 H1554 0.931 . S
C1577 C1578 1.374 . S
C1578 C1549 1.387 . S
C1578 H1555 0.931 . S
C1578 C1577 1.374 . S
C1579 O1563 1.249 . S
C1579 O1564 1.264 . S
C1580 C1583 1.382 . S
C1580 C1584 1.390 . S
C1580 C1587 1.506 . S
C1581 C1582 1.398 . S
C1581 C1584 1.392 . S
C1582 C1581 1.398 . S
C1582 C1585 1.372 . S
C1582 H1592 0.931 . S
C1583 C1580 1.382 . S
C1583 C1585 1.390 . S
C1583 H1593 0.931 . S
C1584 C1580 1.390 . S
C1584 C1581 1.392 . S
C1584 H1594 0.930 . S
C1585 C1582 1.372 . S
C1585 C1583 1.390 . S
C1585 H1595 0.929 . S
C1586 O1566 1.255 . S
C1586 O1567 1.257 . S
C1587 Eu1523 2.787 . S
C1587 O1562 1.252 . S
C1587 O1565 1.268 . S
C1587 C1580 1.506 . S
H1588 C1571 0.931 . S
H1589 C1572 0.931 . S
H1590 C1573 0.929 . S
H1591 C1574 0.930 . S
H1592 C1582 0.931 . S
H1593 C1583 0.931 . S
H1594 C1584 0.930 . S
H1595 C1585 0.929 . S
Eu1596 N1625 2.600 . S
Eu1596 N1631 2.562 . S
Eu1596 O1640 2.462 . S
Eu1596 O1641 2.373 1_655 S
Eu1596 O1643 2.432 . S
Eu1596 O1644 2.291 1_655 S
Eu1596 O1648 2.335 1_655 S
Eu1596 O1651 2.372 1_655 S
Eu1596 C1660 2.787 . S
C1597 N1598 1.365 . S
C1597 C1600 1.405 . S
C1597 C1604 1.448 1_556 S
N1598 C1597 1.365 . S
N1598 C1601 1.319 . S
N1598 Eu1607 2.600 1_556 S
C1599 C1601 1.397 . S
C1599 C1602 1.367 . S
C1599 H1619 0.931 . S
C1600 C1597 1.405 . S
C1600 C1602 1.403 . S
C1600 C1606 1.439 . S
C1601 N1598 1.319 . S
C1601 C1599 1.397 . S
C1601 H1612 0.930 . S
C1602 C1599 1.367 . S
C1602 C1600 1.403 . S
C1602 H1623 0.929 . S
C1603 C1604 1.430 . S
C1603 C1605 1.387 . S
C1603 C1609 1.404 . S
C1604 C1597 1.448 1_554 S
C1604 C1603 1.430 . S
C1604 N1608 1.351 . S
C1605 C1603 1.387 . S
C1605 C1606 1.374 1_554 S
C1605 H1620 0.931 . S
C1606 C1600 1.439 . S
C1606 C1605 1.374 1_556 S
C1606 H1621 0.931 . S
Eu1607 N1598 2.600 1_554 S
Eu1607 N1608 2.562 . S
Eu1607 O1642 2.335 . S
Eu1607 O1645 2.372 1_554 S
Eu1607 O1646 2.462 . S
Eu1607 O1647 2.373 . S
Eu1607 O1649 2.432 1_554 S
Eu1607 O1650 2.291 . S
Eu1607 C1671 2.787 . S
N1608 C1604 1.351 . S
N1608 Eu1607 2.562 . S
N1608 C1610 1.325 . S
C1609 C1603 1.404 . S
C1609 C1611 1.366 . S
C1609 H1617 0.930 . S
C1610 N1608 1.325 . S
C1610 C1611 1.416 . S
C1610 H1616 0.929 . S
C1611 C1609 1.366 . S
C1611 C1610 1.416 . S
C1611 H1613 0.930 . S
H1612 C1601 0.930 . S
H1613 C1611 0.930 . S
H1614 C1629 0.930 1_455 S
H1615 C1636 0.930 1_556 S
H1616 C1610 0.929 . S
H1617 C1609 0.930 . S
H1618 C1632 0.929 . S
H1619 C1599 0.931 . S
H1620 C1605 0.931 . S
H1621 C1606 0.931 . S
H1622 C1627 0.931 . S
H1623 C1602 0.929 . S
H1624 C1635 0.930 . S
N1625 Eu1596 2.600 . S
N1625 C1626 1.365 . S
N1625 C1629 1.319 . S
C1626 N1625 1.365 . S
C1626 C1628 1.405 . S
C1626 C1634 1.448 . S
C1627 H1622 0.931 . S
C1627 C1629 1.397 . S
C1627 C1630 1.367 . S
C1628 C1626 1.405 . S
C1628 C1630 1.403 . S
C1628 C1661 1.439 . S
C1629 H1614 0.930 1_655 S
C1629 N1625 1.319 . S
C1629 C1627 1.397 . S
C1630 C1627 1.367 . S
C1630 C1628 1.403 . S
C1630 H1637 0.929 . S
N1631 Eu1596 2.562 . S
N1631 C1632 1.325 . S
N1631 C1634 1.351 . S
C1632 H1618 0.929 . S
C1632 N1631 1.325 . S
C1632 C1636 1.416 . S
C1633 C1634 1.430 . S
C1633 C1635 1.404 . S
C1633 C1662 1.387 . S
C1634 C1626 1.448 . S
C1634 N1631 1.351 . S
C1634 C1633 1.430 . S
C1635 H1624 0.930 . S
C1635 C1633 1.404 . S
C1635 C1636 1.366 . S
C1636 H1615 0.930 1_554 S
C1636 C1632 1.416 . S
C1636 C1635 1.366 . S
H1637 C1630 0.929 . S
H1638 C1661 0.931 . S
H1639 C1662 0.931 . S
O1640 Eu1596 2.462 . S
O1640 C1660 1.252 . S
O1641 Eu1596 2.373 1_455 S
O1641 C1652 1.249 . S
O1642 Eu1607 2.335 . S
O1642 C1652 1.264 . S
O1643 Eu1596 2.432 . S
O1643 C1660 1.268 . S
O1644 Eu1596 2.291 1_455 S
O1644 C1659 1.255 1_554 S
O1645 Eu1607 2.372 1_556 S
O1645 C1659 1.257 . S
O1646 Eu1607 2.462 . S
O1646 C1671 1.252 . S
O1647 Eu1607 2.373 . S
O1647 C1663 1.249 . S
O1648 Eu1596 2.335 1_455 S
O1648 C1663 1.264 . S
O1649 Eu1607 2.432 1_556 S
O1649 C1671 1.268 1_556 S
O1650 Eu1607 2.291 . S
O1650 C1670 1.255 . S
O1651 Eu1596 2.372 1_455 S
O1651 C1670 1.257 . S
C1652 O1641 1.249 . S
C1652 O1642 1.264 . S
C1653 C1656 1.382 . S
C1653 C1658 1.390 . S
C1653 C1660 1.506 . S
C1654 C1655 1.398 . S
C1654 C1658 1.392 . S
C1655 C1654 1.398 . S
C1655 C1657 1.372 . S
C1655 H1672 0.931 . S
C1656 C1653 1.382 . S
C1656 C1657 1.390 . S
C1656 H1673 0.931 . S
C1657 C1655 1.372 . S
C1657 C1656 1.390 . S
C1657 H1674 0.929 . S
C1658 C1653 1.390 . S
C1658 C1654 1.392 . S
C1658 H1675 0.930 . S
C1659 O1644 1.255 1_556 S
C1659 O1645 1.257 . S
C1660 Eu1596 2.787 . S
C1660 O1640 1.252 . S
C1660 O1643 1.268 . S
C1660 C1653 1.506 . S
C1661 C1628 1.439 . S
C1661 H1638 0.931 . S
C1661 C1662 1.374 . S
C1662 C1633 1.387 . S
C1662 H1639 0.931 . S
C1662 C1661 1.374 . S
C1663 O1647 1.249 . S
C1663 O1648 1.264 . S
C1664 C1667 1.382 1_554 S
C1664 C1668 1.390 . S
C1664 C1671 1.506 . S
C1665 C1666 1.398 1_554 S
C1665 C1668 1.392 . S
C1666 C1665 1.398 1_556 S
C1666 C1669 1.372 . S
C1666 H1676 0.931 . S
C1667 C1664 1.382 1_556 S
C1667 C1669 1.390 . S
C1667 H1677 0.931 . S
C1668 C1664 1.390 . S
C1668 C1665 1.392 . S
C1668 H1678 0.930 . S
C1669 C1666 1.372 . S
C1669 C1667 1.390 . S
C1669 H1679 0.929 . S
C1670 O1650 1.255 . S
C1670 O1651 1.257 . S
C1671 Eu1607 2.787 . S
C1671 O1646 1.252 . S
C1671 O1649 1.268 1_554 S
C1671 C1664 1.506 . S
H1672 C1655 0.931 . S
H1673 C1656 0.931 . S
H1674 C1657 0.929 . S
H1675 C1658 0.930 . S
H1676 C1666 0.931 . S
H1677 C1667 0.931 . S
H1678 C1668 0.930 . S
H1679 C1669 0.929 . S
C1680 C1681 1.343 1_655 S
C1680 C1682 1.327 . S
C1680 H1705 0.950 . S
C1681 C1680 1.343 1_455 S
C1681 C1697 1.358 . S
C1682 C1680 1.327 . S
C1682 C1701 1.429 1_655 S
C1682 H1706 0.950 . S
C1683 C1700 1.574 . S
C1683 C1702 1.368 . S
C1683 H1707 0.949 . S
H1684 C1688 0.930 1_655 S
C1685 C1686 1.325 1_556 S
C1685 C1687 1.340 . S
C1685 H1708 0.962 . S
C1686 C1685 1.325 1_554 S
C1686 C1698 1.349 . S
C1687 C1685 1.340 . S
C1687 C1703 1.427 1_556 S
C1687 H1709 0.950 . S
C1688 H1684 0.930 1_455 S
C1688 C1696 1.563 1_454 S
C1688 C1704 1.401 1_554 S
H1689 C1697 0.950 . S
H1690 C1695 0.950 . S
H1691 C1696 0.970 . S
H1692 C1698 0.950 . S
H1693 C1699 0.950 1_655 S
H1694 C1700 0.949 . S
C1695 H1690 0.950 . S
C1695 C1697 1.327 . S
C1695 C1701 1.429 . S
C1696 C1688 1.563 1_656 S
C1696 H1691 0.970 . S
C1696 C1702 1.368 1_655 S
C1697 C1681 1.358 . S
C1697 H1689 0.950 . S
C1697 C1695 1.327 . S
C1698 C1686 1.349 . S
C1698 H1692 0.950 . S
C1698 C1699 1.327 . S
C1699 H1693 0.950 1_455 S
C1699 C1698 1.327 . S
C1699 C1703 1.432 . S
C1700 C1683 1.574 . S
C1700 H1694 0.949 . S
C1700 C1704 1.368 . S
C1701 C1682 1.429 1_455 S
C1701 C1695 1.429 . S
C1701 C1702 1.523 . S
C1702 C1683 1.368 . S
C1702 C1696 1.368 1_455 S
C1702 C1701 1.523 . S
C1703 C1687 1.427 1_554 S
C1703 C1699 1.432 . S
C1703 C1704 1.521 1_554 S
C1704 C1688 1.401 1_556 S
C1704 C1700 1.368 . S
C1704 C1703 1.521 1_556 S
H1705 C1680 0.950 . S
H1706 C1682 0.950 . S
H1707 C1683 0.949 . S
H1708 C1685 0.962 . S
H1709 C1687 0.950 . S
C1710 C1711 1.349 . S
C1710 C1712 1.327 . S
C1710 H1735 0.950 . S
C1711 C1710 1.349 . S
C1711 C1727 1.349 . S
C1712 C1710 1.327 . S
C1712 C1731 1.429 . S
C1712 H1736 0.950 . S
C1713 C1730 1.574 . S
C1713 C1732 1.368 . S
C1713 H1737 0.949 . S
H1714 C1718 0.949 . S
C1715 C1716 1.349 . S
C1715 C1717 1.327 . S
C1715 H1738 0.950 . S
C1716 C1715 1.349 . S
C1716 C1728 1.349 . S
C1717 C1715 1.327 . S
C1717 C1733 1.429 . S
C1717 H1739 0.950 . S
C1718 H1714 0.949 . S
C1718 C1726 1.574 . S
C1718 C1734 1.368 . S
H1719 C1727 0.950 . S
H1720 C1725 0.950 . S
H1721 C1726 0.949 . S
H1722 C1728 0.950 . S
H1723 C1729 0.950 . S
H1724 C1730 0.949 . S
C1725 H1720 0.950 . S
C1725 C1727 1.327 . S
C1725 C1731 1.429 . S
C1726 C1718 1.574 . S
C1726 H1721 0.949 . S
C1726 C1732 1.368 . S
C1727 C1711 1.349 . S
C1727 H1719 0.950 . S
C1727 C1725 1.327 . S
C1728 C1716 1.349 . S
C1728 H1722 0.950 . S
C1728 C1729 1.327 . S
C1729 H1723 0.950 . S
C1729 C1728 1.327 . S
C1729 C1733 1.429 . S
C1730 C1713 1.574 . S
C1730 H1724 0.949 . S
C1730 C1734 1.368 . S
C1731 C1712 1.429 . S
C1731 C1725 1.429 . S
C1731 C1732 1.523 . S
C1732 C1713 1.368 . S
C1732 C1726 1.368 . S
C1732 C1731 1.523 . S
C1733 C1717 1.429 . S
C1733 C1729 1.429 . S
C1733 C1734 1.523 . S
C1734 C1718 1.368 . S
C1734 C1730 1.368 . S
C1734 C1733 1.523 . S
H1735 C1710 0.950 . S
H1736 C1712 0.950 . S
H1737 C1713 0.949 . S
H1738 C1715 0.950 . S
H1739 C1717 0.950 . S
C1740 C1741 1.349 . S
C1740 C1742 1.327 . S
C1740 H1765 0.950 . S
C1741 C1740 1.349 . S
C1741 C1757 1.349 . S
C1742 C1740 1.327 . S
C1742 C1761 1.429 . S
C1742 H1766 0.950 . S
C1743 C1760 1.574 . S
C1743 C1762 1.368 . S
C1743 H1767 0.949 . S
H1744 C1748 0.949 . S
C1745 C1746 1.349 . S
C1745 C1747 1.327 . S
C1745 H1768 0.950 . S
C1746 C1745 1.349 . S
C1746 C1758 1.349 . S
C1747 C1745 1.327 . S
C1747 C1763 1.429 . S
C1747 H1769 0.950 . S
C1748 H1744 0.949 . S
C1748 C1756 1.574 . S
C1748 C1764 1.368 . S
H1749 C1757 0.950 . S
H1750 C1755 0.950 . S
H1751 C1756 0.949 . S
H1752 C1758 0.950 . S
H1753 C1759 0.950 . S
H1754 C1760 0.949 . S
C1755 H1750 0.950 . S
C1755 C1757 1.327 . S
C1755 C1761 1.429 . S
C1756 C1748 1.574 . S
C1756 H1751 0.949 . S
C1756 C1762 1.368 . S
C1757 C1741 1.349 . S
C1757 H1749 0.950 . S
C1757 C1755 1.327 . S
C1758 C1746 1.349 . S
C1758 H1752 0.950 . S
C1758 C1759 1.327 . S
C1759 H1753 0.950 . S
C1759 C1758 1.327 . S
C1759 C1763 1.429 . S
C1760 C1743 1.574 . S
C1760 H1754 0.949 . S
C1760 C1764 1.368 . S
C1761 C1742 1.429 . S
C1761 C1755 1.429 . S
C1761 C1762 1.523 . S
C1762 C1743 1.368 . S
C1762 C1756 1.368 . S
C1762 C1761 1.523 . S
C1763 C1747 1.429 . S
C1763 C1759 1.429 . S
C1763 C1764 1.523 . S
C1764 C1748 1.368 . S
C1764 C1760 1.368 . S
C1764 C1763 1.523 . S
H1765 C1740 0.950 . S
H1766 C1742 0.950 . S
H1767 C1743 0.949 . S
H1768 C1745 0.950 . S
H1769 C1747 0.950 . S
C1770 C1771 1.349 . S
C1770 C1772 1.327 . S
C1770 H1795 0.950 . S
C1771 C1770 1.349 . S
C1771 C1787 1.349 . S
C1772 C1770 1.327 . S
C1772 C1791 1.429 . S
C1772 H1796 0.950 . S
C1773 C1790 1.574 . S
C1773 C1792 1.368 . S
C1773 H1797 0.949 . S
H1774 C1778 0.949 . S
C1775 C1776 1.349 . S
C1775 C1777 1.327 . S
C1775 H1798 0.950 . S
C1776 C1775 1.349 . S
C1776 C1788 1.349 . S
C1777 C1775 1.327 . S
C1777 C1793 1.429 . S
C1777 H1799 0.950 . S
C1778 H1774 0.949 . S
C1778 C1786 1.574 . S
C1778 C1794 1.368 . S
H1779 C1787 0.950 . S
H1780 C1785 0.950 . S
H1781 C1786 0.949 . S
H1782 C1788 0.950 . S
H1783 C1789 0.950 . S
H1784 C1790 0.949 . S
C1785 H1780 0.950 . S
C1785 C1787 1.327 . S
C1785 C1791 1.429 . S
C1786 C1778 1.574 . S
C1786 H1781 0.949 . S
C1786 C1792 1.368 . S
C1787 C1771 1.349 . S
C1787 H1779 0.950 . S
C1787 C1785 1.327 . S
C1788 C1776 1.349 . S
C1788 H1782 0.950 . S
C1788 C1789 1.327 . S
C1789 H1783 0.950 . S
C1789 C1788 1.327 . S
C1789 C1793 1.429 . S
C1790 C1773 1.574 . S
C1790 H1784 0.949 . S
C1790 C1794 1.368 . S
C1791 C1772 1.429 . S
C1791 C1785 1.429 . S
C1791 C1792 1.523 . S
C1792 C1773 1.368 . S
C1792 C1786 1.368 . S
C1792 C1791 1.523 . S
C1793 C1777 1.429 . S
C1793 C1789 1.429 . S
C1793 C1794 1.523 . S
C1794 C1778 1.368 . S
C1794 C1790 1.368 . S
C1794 C1793 1.523 . S
H1795 C1770 0.950 . S
H1796 C1772 0.950 . S
H1797 C1773 0.949 . S
H1798 C1775 0.950 . S
H1799 C1777 0.950 . S
C1800 C1801 1.349 . S
C1800 C1802 1.327 . S
C1800 H1825 0.950 . S
C1801 C1800 1.349 . S
C1801 C1817 1.349 . S
C1802 C1800 1.327 . S
C1802 C1821 1.429 . S
C1802 H1826 0.950 . S
C1803 C1820 1.574 . S
C1803 C1822 1.368 . S
C1803 H1827 0.965 . S
H1804 C1808 0.949 . S
C1805 C1806 1.349 . S
C1805 C1807 1.327 . S
C1805 H1828 0.950 . S
C1806 C1805 1.349 . S
C1806 C1818 1.349 . S
C1807 C1805 1.327 . S
C1807 C1823 1.429 . S
C1807 H1829 0.950 . S
C1808 H1804 0.949 . S
C1808 C1816 1.574 . S
C1808 C1824 1.368 . S
H1809 C1817 0.950 1_655 S
H1810 C1815 0.939 1_655 S
H1811 C1816 0.949 . S
H1812 C1818 0.950 . S
H1813 C1819 0.950 . S
H1814 C1820 0.949 . S
C1815 H1810 0.939 1_455 S
C1815 C1817 1.327 . S
C1815 C1821 1.429 . S
C1816 C1808 1.574 . S
C1816 H1811 0.949 . S
C1816 C1822 1.368 . S
C1817 C1801 1.349 . S
C1817 H1809 0.950 1_455 S
C1817 C1815 1.327 . S
C1818 C1806 1.349 . S
C1818 H1812 0.950 . S
C1818 C1819 1.327 . S
C1819 H1813 0.950 . S
C1819 C1818 1.327 . S
C1819 C1823 1.429 . S
C1820 C1803 1.574 . S
C1820 H1814 0.949 . S
C1820 C1824 1.368 . S
C1821 C1802 1.429 . S
C1821 C1815 1.429 . S
C1821 C1822 1.523 . S
C1822 C1803 1.368 . S
C1822 C1816 1.368 . S
C1822 C1821 1.523 . S
C1823 C1807 1.429 . S
C1823 C1819 1.429 . S
C1823 C1824 1.523 . S
C1824 C1808 1.368 . S
C1824 C1820 1.368 . S
C1824 C1823 1.523 . S
H1825 C1800 0.950 . S
H1826 C1802 0.950 . S
H1827 C1803 0.965 . S
H1828 C1805 0.950 . S
H1829 C1807 0.950 . S
C1830 C1831 1.349 . S
C1830 C1832 1.327 . S
C1830 H1855 0.950 . S
C1831 C1830 1.349 . S
C1831 C1847 1.349 . S
C1832 C1830 1.327 . S
C1832 C1851 1.429 . S
C1832 H1856 0.950 . S
C1833 C1850 1.574 . S
C1833 C1852 1.368 . S
C1833 H1857 0.949 . S
H1834 C1838 0.949 . S
C1835 C1836 1.349 . S
C1835 C1837 1.327 . S
C1835 H1858 0.950 . S
C1836 C1835 1.349 . S
C1836 C1848 1.349 . S
C1837 C1835 1.327 . S
C1837 C1853 1.429 . S
C1837 H1859 0.950 . S
C1838 H1834 0.949 . S
C1838 C1846 1.574 . S
C1838 C1854 1.368 . S
H1839 C1847 0.950 . S
H1840 C1845 0.950 . S
H1841 C1846 0.949 . S
H1842 C1848 0.950 . S
H1843 C1849 0.950 . S
H1844 C1850 0.949 . S
C1845 H1840 0.950 . S
C1845 C1847 1.327 . S
C1845 C1851 1.429 . S
C1846 C1838 1.574 . S
C1846 H1841 0.949 . S
C1846 C1852 1.368 . S
C1847 C1831 1.349 . S
C1847 H1839 0.950 . S
C1847 C1845 1.327 . S
C1848 C1836 1.349 . S
C1848 H1842 0.950 . S
C1848 C1849 1.327 . S
C1849 H1843 0.950 . S
C1849 C1848 1.327 . S
C1849 C1853 1.429 . S
C1850 C1833 1.574 . S
C1850 H1844 0.949 . S
C1850 C1854 1.368 . S
C1851 C1832 1.429 . S
C1851 C1845 1.429 . S
C1851 C1852 1.523 . S
C1852 C1833 1.368 . S
C1852 C1846 1.368 . S
C1852 C1851 1.523 . S
C1853 C1837 1.429 . S
C1853 C1849 1.429 . S
C1853 C1854 1.523 . S
C1854 C1838 1.368 . S
C1854 C1850 1.368 . S
C1854 C1853 1.523 . S
H1855 C1830 0.950 . S
H1856 C1832 0.950 . S
H1857 C1833 0.949 . S
H1858 C1835 0.950 . S
H1859 C1837 0.950 . S
C1860 C1861 1.349 . S
C1860 C1862 1.327 . S
C1860 H1885 0.950 . S
C1861 C1860 1.349 . S
C1861 C1877 1.349 . S
C1862 C1860 1.327 . S
C1862 C1881 1.429 . S
C1862 H1886 0.950 . S
C1863 C1880 1.574 . S
C1863 C1882 1.368 . S
C1863 H1887 0.949 . S
H1864 C1868 0.949 . S
C1865 C1866 1.349 . S
C1865 C1867 1.327 . S
C1865 H1888 0.950 . S
C1866 C1865 1.349 . S
C1866 C1878 1.349 . S
C1867 C1865 1.327 . S
C1867 C1883 1.429 . S
C1867 H1889 0.950 . S
C1868 H1864 0.949 . S
C1868 C1876 1.574 . S
C1868 C1884 1.368 . S
H1869 C1877 0.950 . S
H1870 C1875 0.950 . S
H1871 C1876 0.949 . S
H1872 C1878 0.950 . S
H1873 C1879 0.950 . S
H1874 C1880 0.949 . S
C1875 H1870 0.950 . S
C1875 C1877 1.327 . S
C1875 C1881 1.429 . S
C1876 C1868 1.574 . S
C1876 H1871 0.949 . S
C1876 C1882 1.368 . S
C1877 C1861 1.349 . S
C1877 H1869 0.950 . S
C1877 C1875 1.327 . S
C1878 C1866 1.349 . S
C1878 H1872 0.950 . S
C1878 C1879 1.327 . S
C1879 H1873 0.950 . S
C1879 C1878 1.327 . S
C1879 C1883 1.429 . S
C1880 C1863 1.574 . S
C1880 H1874 0.949 . S
C1880 C1884 1.368 . S
C1881 C1862 1.429 . S
C1881 C1875 1.429 . S
C1881 C1882 1.523 . S
C1882 C1863 1.368 . S
C1882 C1876 1.368 . S
C1882 C1881 1.523 . S
C1883 C1867 1.429 . S
C1883 C1879 1.429 . S
C1883 C1884 1.523 . S
C1884 C1868 1.368 . S
C1884 C1880 1.368 . S
C1884 C1883 1.523 . S
H1885 C1860 0.950 . S
H1886 C1862 0.950 . S
H1887 C1863 0.949 . S
H1888 C1865 0.950 . S
H1889 C1867 0.950 . S
C1890 C1891 1.349 . S
C1890 C1892 1.327 . S
C1890 H1915 0.950 . S
C1891 C1890 1.349 . S
C1891 C1907 1.349 . S
C1892 C1890 1.327 . S
C1892 C1911 1.429 . S
C1892 H1916 0.950 . S
C1893 C1910 1.574 . S
C1893 C1912 1.368 . S
C1893 H1917 0.949 . S
H1894 C1898 0.949 . S
C1895 C1896 1.349 . S
C1895 C1897 1.327 . S
C1895 H1918 0.950 . S
C1896 C1895 1.349 . S
C1896 C1908 1.349 . S
C1897 C1895 1.327 . S
C1897 C1913 1.429 . S
C1897 H1919 0.950 . S
C1898 H1894 0.949 . S
C1898 C1906 1.574 . S
C1898 C1914 1.368 . S
H1899 C1907 0.950 . S
H1900 C1905 0.950 . S
H1901 C1906 0.949 . S
H1902 C1908 0.950 . S
H1903 C1909 0.950 . S
H1904 C1910 0.949 . S
C1905 H1900 0.950 . S
C1905 C1907 1.327 . S
C1905 C1911 1.429 . S
C1906 C1898 1.574 . S
C1906 H1901 0.949 . S
C1906 C1912 1.368 . S
C1907 C1891 1.349 . S
C1907 H1899 0.950 . S
C1907 C1905 1.327 . S
C1908 C1896 1.349 . S
C1908 H1902 0.950 . S
C1908 C1909 1.327 . S
C1909 H1903 0.950 . S
C1909 C1908 1.327 . S
C1909 C1913 1.429 . S
C1910 C1893 1.574 . S
C1910 H1904 0.949 . S
C1910 C1914 1.368 . S
C1911 C1892 1.429 . S
C1911 C1905 1.429 . S
C1911 C1912 1.523 . S
C1912 C1893 1.368 . S
C1912 C1906 1.368 . S
C1912 C1911 1.523 . S
C1913 C1897 1.429 . S
C1913 C1909 1.429 . S
C1913 C1914 1.523 . S
C1914 C1898 1.368 . S
C1914 C1910 1.368 . S
C1914 C1913 1.523 . S
H1915 C1890 0.950 . S
H1916 C1892 0.950 . S
H1917 C1893 0.949 . S
H1918 C1895 0.950 . S
H1919 C1897 0.950 . S
C1920 C1921 1.349 . S
C1920 C1922 1.327 . S
C1920 H1945 0.950 . S
C1921 C1920 1.349 . S
C1921 C1937 1.349 . S
C1922 C1920 1.327 . S
C1922 C1941 1.429 . S
C1922 H1946 0.950 . S
C1923 C1940 1.574 . S
C1923 C1942 1.368 . S
C1923 H1947 0.949 . S
H1924 C1928 0.949 . S
C1925 C1926 1.349 . S
C1925 C1927 1.327 . S
C1925 H1948 0.950 . S
C1926 C1925 1.349 . S
C1926 C1938 1.349 1_455 S
C1927 C1925 1.327 . S
C1927 C1943 1.429 1_455 S
C1927 H1949 0.950 . S
C1928 H1924 0.949 . S
C1928 C1936 1.574 . S
C1928 C1944 1.368 . S
H1929 C1937 0.950 1_565 S
H1930 C1935 0.949 . S
H1931 C1936 0.949 . S
H1932 C1938 0.950 . S
H1933 C1939 0.950 . S
H1934 C1940 0.949 . S
C1935 H1930 0.949 . S
C1935 C1937 1.327 . S
C1935 C1941 1.429 . S
C1936 C1928 1.574 . S
C1936 H1931 0.949 . S
C1936 C1942 1.368 . S
C1937 C1921 1.349 . S
C1937 H1929 0.950 1_545 S
C1937 C1935 1.327 . S
C1938 C1926 1.349 1_655 S
C1938 H1932 0.950 . S
C1938 C1939 1.327 . S
C1939 H1933 0.950 . S
C1939 C1938 1.327 . S
C1939 C1943 1.429 . S
C1940 C1923 1.574 . S
C1940 H1934 0.949 . S
C1940 C1944 1.368 . S
C1941 C1922 1.429 . S
C1941 C1935 1.429 . S
C1941 C1942 1.523 . S
C1942 C1923 1.368 . S
C1942 C1936 1.368 . S
C1942 C1941 1.523 . S
C1943 C1927 1.429 1_655 S
C1943 C1939 1.429 . S
C1943 C1944 1.523 . S
C1944 C1928 1.368 . S
C1944 C1940 1.368 . S
C1944 C1943 1.523 . S
H1945 C1920 0.950 . S
H1946 C1922 0.950 . S
H1947 C1923 0.949 . S
H1948 C1925 0.950 . S
H1949 C1927 0.950 . S
C1950 C1951 1.349 . S
C1950 C1952 1.327 . S
C1950 H1975 0.950 . S
C1951 C1950 1.349 . S
C1951 C1967 1.349 . S
C1952 C1950 1.327 . S
C1952 C1971 1.429 . S
C1952 H1976 0.950 . S
C1953 C1970 1.574 . S
C1953 C1972 1.368 . S
C1953 H1977 0.949 . S
H1954 C1958 0.949 . S
C1955 C1956 1.349 . S
C1955 C1957 1.327 . S
C1955 H1978 0.950 . S
C1956 C1955 1.349 . S
C1956 C1968 1.349 . S
C1957 C1955 1.327 . S
C1957 C1973 1.429 . S
C1957 H1979 0.950 . S
C1958 H1954 0.949 . S
C1958 C1966 1.574 . S
C1958 C1974 1.368 . S
H1959 C1967 0.950 . S
H1960 C1965 0.950 . S
H1961 C1966 0.949 . S
H1962 C1968 0.950 . S
H1963 C1969 0.950 . S
H1964 C1970 0.949 . S
C1965 H1960 0.950 . S
C1965 C1967 1.327 . S
C1965 C1971 1.429 . S
C1966 C1958 1.574 . S
C1966 H1961 0.949 . S
C1966 C1972 1.368 . S
C1967 C1951 1.349 . S
C1967 H1959 0.950 . S
C1967 C1965 1.327 . S
C1968 C1956 1.349 . S
C1968 H1962 0.950 . S
C1968 C1969 1.327 . S
C1969 H1963 0.950 . S
C1969 C1968 1.327 . S
C1969 C1973 1.429 . S
C1970 C1953 1.574 . S
C1970 H1964 0.949 . S
C1970 C1974 1.368 . S
C1971 C1952 1.429 . S
C1971 C1965 1.429 . S
C1971 C1972 1.523 . S
C1972 C1953 1.368 . S
C1972 C1966 1.368 . S
C1972 C1971 1.523 . S
C1973 C1957 1.429 . S
C1973 C1969 1.429 . S
C1973 C1974 1.523 . S
C1974 C1958 1.368 . S
C1974 C1970 1.368 . S
C1974 C1973 1.523 . S
H1975 C1950 0.950 . S
H1976 C1952 0.950 . S
H1977 C1953 0.949 . S
H1978 C1955 0.950 . S
H1979 C1957 0.950 . S
C1980 C1981 1.349 . S
C1980 C1982 1.327 . S
C1980 H2005 0.950 . S
C1981 C1980 1.349 . S
C1981 C1997 1.349 . S
C1982 C1980 1.327 . S
C1982 C2001 1.429 . S
C1982 H2006 0.950 . S
C1983 C2000 1.574 . S
C1983 C2002 1.368 . S
C1983 H2007 0.949 . S
H1984 C1988 0.949 . S
C1985 C1986 1.349 . S
C1985 C1987 1.327 . S
C1985 H2008 0.950 . S
C1986 C1985 1.349 . S
C1986 C1998 1.349 . S
C1987 C1985 1.327 . S
C1987 C2003 1.429 . S
C1987 H2009 0.950 . S
C1988 H1984 0.949 . S
C1988 C1996 1.574 . S
C1988 C2004 1.368 . S
H1989 C1997 0.950 . S
H1990 C1995 0.950 . S
H1991 C1996 0.949 . S
H1992 C1998 0.950 1_565 S
H1993 C1999 0.948 . S
H1994 C2000 0.949 . S
C1995 H1990 0.950 . S
C1995 C1997 1.327 . S
C1995 C2001 1.429 . S
C1996 C1988 1.574 . S
C1996 H1991 0.949 . S
C1996 C2002 1.368 . S
C1997 C1981 1.349 . S
C1997 H1989 0.950 . S
C1997 C1995 1.327 . S
C1998 C1986 1.349 . S
C1998 H1992 0.950 1_545 S
C1998 C1999 1.327 . S
C1999 H1993 0.948 . S
C1999 C1998 1.327 . S
C1999 C2003 1.429 . S
C2000 C1983 1.574 . S
C2000 H1994 0.949 . S
C2000 C2004 1.368 . S
C2001 C1982 1.429 . S
C2001 C1995 1.429 . S
C2001 C2002 1.523 . S
C2002 C1983 1.368 . S
C2002 C1996 1.368 . S
C2002 C2001 1.523 . S
C2003 C1987 1.429 . S
C2003 C1999 1.429 . S
C2003 C2004 1.523 . S
C2004 C1988 1.368 . S
C2004 C2000 1.368 . S
C2004 C2003 1.523 . S
H2005 C1980 0.950 . S
H2006 C1982 0.950 . S
H2007 C1983 0.949 . S
H2008 C1985 0.950 . S
H2009 C1987 0.950 . S
C2010 C2011 1.349 . S
C2010 C2012 1.327 . S
C2010 H2035 0.950 . S
C2011 C2010 1.349 . S
C2011 C2027 1.349 . S
C2012 C2010 1.327 . S
C2012 C2031 1.429 . S
C2012 H2036 0.950 . S
C2013 C2030 1.574 . S
C2013 C2032 1.368 . S
C2013 H2037 0.949 . S
H2014 C2018 0.949 . S
C2015 C2016 1.349 . S
C2015 C2017 1.327 . S
C2015 H2038 0.950 . S
C2016 C2015 1.349 . S
C2016 C2028 1.349 . S
C2017 C2015 1.327 . S
C2017 C2033 1.429 . S
C2017 H2039 0.950 . S
C2018 H2014 0.949 . S
C2018 C2026 1.574 . S
C2018 C2034 1.368 . S
H2019 C2027 0.950 . S
H2020 C2025 0.950 . S
H2021 C2026 0.949 . S
H2022 C2028 0.950 . S
H2023 C2029 0.950 . S
H2024 C2030 0.949 . S
C2025 H2020 0.950 . S
C2025 C2027 1.327 . S
C2025 C2031 1.429 . S
C2026 C2018 1.574 . S
C2026 H2021 0.949 . S
C2026 C2032 1.368 . S
C2027 C2011 1.349 . S
C2027 H2019 0.950 . S
C2027 C2025 1.327 . S
C2028 C2016 1.349 . S
C2028 H2022 0.950 . S
C2028 C2029 1.327 . S
C2029 H2023 0.950 . S
C2029 C2028 1.327 . S
C2029 C2033 1.429 . S
C2030 C2013 1.574 . S
C2030 H2024 0.949 . S
C2030 C2034 1.368 . S
C2031 C2012 1.429 . S
C2031 C2025 1.429 . S
C2031 C2032 1.523 . S
C2032 C2013 1.368 . S
C2032 C2026 1.368 . S
C2032 C2031 1.523 . S
C2033 C2017 1.429 . S
C2033 C2029 1.429 . S
C2033 C2034 1.523 . S
C2034 C2018 1.368 . S
C2034 C2030 1.368 . S
C2034 C2033 1.523 . S
H2035 C2010 0.950 . S
H2036 C2012 0.950 . S
H2037 C2013 0.949 . S
H2038 C2015 0.950 . S
H2039 C2017 0.950 . S
C2040 C2041 1.349 . S
C2040 C2042 1.327 . S
C2040 H2065 0.950 1_545 S
C2041 C2040 1.349 . S
C2041 C2057 1.349 . S
C2042 C2040 1.327 . S
C2042 C2061 1.429 . S
C2042 H2066 0.950 1_545 S
C2043 C2060 1.574 . S
C2043 C2062 1.368 . S
C2043 H2067 0.949 . S
H2044 C2048 0.949 1_565 S
C2045 C2046 1.349 1_655 S
C2045 C2047 1.327 . S
C2045 H2068 0.950 . S
C2046 C2045 1.349 1_455 S
C2046 C2058 1.349 . S
C2047 C2045 1.327 . S
C2047 C2063 1.429 . S
C2047 H2069 0.950 . S
C2048 H2044 0.949 1_545 S
C2048 C2056 1.574 . S
C2048 C2064 1.368 . S
H2049 C2057 0.950 . S
H2050 C2055 0.950 . S
H2051 C2056 0.949 1_565 S
H2052 C2058 0.950 1_565 S
H2053 C2059 0.950 1_565 S
H2054 C2060 0.949 . S
C2055 H2050 0.950 . S
C2055 C2057 1.327 . S
C2055 C2061 1.429 . S
C2056 C2048 1.574 . S
C2056 H2051 0.949 1_545 S
C2056 C2062 1.368 . S
C2057 C2041 1.349 . S
C2057 H2049 0.950 . S
C2057 C2055 1.327 . S
C2058 C2046 1.349 . S
C2058 H2052 0.950 1_545 S
C2058 C2059 1.327 . S
C2059 H2053 0.950 1_545 S
C2059 C2058 1.327 . S
C2059 C2063 1.429 1_455 S
C2060 C2043 1.574 . S
C2060 H2054 0.949 . S
C2060 C2064 1.368 . S
C2061 C2042 1.429 . S
C2061 C2055 1.429 . S
C2061 C2062 1.523 . S
C2062 C2043 1.368 . S
C2062 C2056 1.368 . S
C2062 C2061 1.523 . S
C2063 C2047 1.429 . S
C2063 C2059 1.429 1_655 S
C2063 C2064 1.523 . S
C2064 C2048 1.368 . S
C2064 C2060 1.368 . S
C2064 C2063 1.523 . S
H2065 C2040 0.950 1_565 S
H2066 C2042 0.950 1_565 S
H2067 C2043 0.949 . S
H2068 C2045 0.950 . S
H2069 C2047 0.950 . S
C2070 C2071 1.349 . S
C2070 C2072 1.327 . S
C2070 H2095 0.950 . S
C2071 C2070 1.349 . S
C2071 C2087 1.349 . S
C2072 C2070 1.327 . S
C2072 C2091 1.429 . S
C2072 H2096 0.950 . S
C2073 C2090 1.574 . S
C2073 C2092 1.368 . S
C2073 H2097 0.949 . S
H2074 C2078 0.949 . S
C2075 C2076 1.349 . S
C2075 C2077 1.327 . S
C2075 H2098 0.950 . S
C2076 C2075 1.349 . S
C2076 C2088 1.349 . S
C2077 C2075 1.327 . S
C2077 C2093 1.429 . S
C2077 H2099 0.950 . S
C2078 H2074 0.949 . S
C2078 C2086 1.574 . S
C2078 C2094 1.368 . S
H2079 C2087 0.950 . S
H2080 C2085 0.950 . S
H2081 C2086 0.949 . S
H2082 C2088 0.950 . S
H2083 C2089 0.950 . S
H2084 C2090 0.949 . S
C2085 H2080 0.950 . S
C2085 C2087 1.327 . S
C2085 C2091 1.429 . S
C2086 C2078 1.574 . S
C2086 H2081 0.949 . S
C2086 C2092 1.368 . S
C2087 C2071 1.349 . S
C2087 H2079 0.950 . S
C2087 C2085 1.327 . S
C2088 C2076 1.349 . S
C2088 H2082 0.950 . S
C2088 C2089 1.327 . S
C2089 H2083 0.950 . S
C2089 C2088 1.327 . S
C2089 C2093 1.429 . S
C2090 C2073 1.574 . S
C2090 H2084 0.949 . S
C2090 C2094 1.368 . S
C2091 C2072 1.429 . S
C2091 C2085 1.429 . S
C2091 C2092 1.523 . S
C2092 C2073 1.368 . S
C2092 C2086 1.368 . S
C2092 C2091 1.523 . S
C2093 C2077 1.429 . S
C2093 C2089 1.429 . S
C2093 C2094 1.523 . S
C2094 C2078 1.368 . S
C2094 C2090 1.368 . S
C2094 C2093 1.523 . S
H2095 C2070 0.950 . S
H2096 C2072 0.950 . S
H2097 C2073 0.949 . S
H2098 C2075 0.950 . S
H2099 C2077 0.950 . S
C2100 C2101 1.349 . S
C2100 C2102 1.327 . S
C2100 H2125 0.950 . S
C2101 C2100 1.349 . S
C2101 C2117 1.349 . S
C2102 C2100 1.327 . S
C2102 C2121 1.429 . S
C2102 H2126 0.950 . S
C2103 C2120 1.574 . S
C2103 C2122 1.368 . S
C2103 H2127 0.949 . S
H2104 C2108 0.949 . S
C2105 C2106 1.349 . S
C2105 C2107 1.327 . S
C2105 H2128 0.950 . S
C2106 C2105 1.349 . S
C2106 C2118 1.349 . S
C2107 C2105 1.327 . S
C2107 C2123 1.429 . S
C2107 H2129 0.950 . S
C2108 H2104 0.949 . S
C2108 C2116 1.574 . S
C2108 C2124 1.368 . S
H2109 C2117 0.950 . S
H2110 C2115 0.950 . S
H2111 C2116 0.949 . S
H2112 C2118 0.950 . S
H2113 C2119 0.950 . S
H2114 C2120 0.949 . S
C2115 H2110 0.950 . S
C2115 C2117 1.327 . S
C2115 C2121 1.429 . S
C2116 C2108 1.574 . S
C2116 H2111 0.949 . S
C2116 C2122 1.368 . S
C2117 C2101 1.349 . S
C2117 H2109 0.950 . S
C2117 C2115 1.327 . S
C2118 C2106 1.349 . S
C2118 H2112 0.950 . S
C2118 C2119 1.327 . S
C2119 H2113 0.950 . S
C2119 C2118 1.327 . S
C2119 C2123 1.429 . S
C2120 C2103 1.574 . S
C2120 H2114 0.949 . S
C2120 C2124 1.368 . S
C2121 C2102 1.429 . S
C2121 C2115 1.429 . S
C2121 C2122 1.523 . S
C2122 C2103 1.368 . S
C2122 C2116 1.368 . S
C2122 C2121 1.523 . S
C2123 C2107 1.429 . S
C2123 C2119 1.429 . S
C2123 C2124 1.523 . S
C2124 C2108 1.368 . S
C2124 C2120 1.368 . S
C2124 C2123 1.523 . S
H2125 C2100 0.950 . S
H2126 C2102 0.950 . S
H2127 C2103 0.949 . S
H2128 C2105 0.950 . S
H2129 C2107 0.950 . S
C2130 C2131 1.349 . S
C2130 C2132 1.327 . S
C2130 H2155 0.950 . S
C2131 C2130 1.349 . S
C2131 C2147 1.349 . S
C2132 C2130 1.327 . S
C2132 C2151 1.429 . S
C2132 H2156 0.950 . S
C2133 C2150 1.574 . S
C2133 C2152 1.368 . S
C2133 H2157 0.949 . S
H2134 C2138 0.949 . S
C2135 C2136 1.349 . S
C2135 C2137 1.327 . S
C2135 H2158 0.950 . S
C2136 C2135 1.349 . S
C2136 C2148 1.349 . S
C2137 C2135 1.327 . S
C2137 C2153 1.429 . S
C2137 H2159 0.950 . S
C2138 H2134 0.949 . S
C2138 C2146 1.574 . S
C2138 C2154 1.368 . S
H2139 C2147 0.950 . S
H2140 C2145 0.950 . S
H2141 C2146 0.949 . S
H2142 C2148 0.950 . S
H2143 C2149 0.950 . S
H2144 C2150 0.949 . S
C2145 H2140 0.950 . S
C2145 C2147 1.327 . S
C2145 C2151 1.429 . S
C2146 C2138 1.574 . S
C2146 H2141 0.949 . S
C2146 C2152 1.368 . S
C2147 C2131 1.349 . S
C2147 H2139 0.950 . S
C2147 C2145 1.327 . S
C2148 C2136 1.349 . S
C2148 H2142 0.950 . S
C2148 C2149 1.327 . S
C2149 H2143 0.950 . S
C2149 C2148 1.327 . S
C2149 C2153 1.429 . S
C2150 C2133 1.574 . S
C2150 H2144 0.949 . S
C2150 C2154 1.368 . S
C2151 C2132 1.429 . S
C2151 C2145 1.429 . S
C2151 C2152 1.523 . S
C2152 C2133 1.368 . S
C2152 C2146 1.368 . S
C2152 C2151 1.523 . S
C2153 C2137 1.429 . S
C2153 C2149 1.429 . S
C2153 C2154 1.523 . S
C2154 C2138 1.368 . S
C2154 C2150 1.368 . S
C2154 C2153 1.523 . S
H2155 C2130 0.950 . S
H2156 C2132 0.950 . S
H2157 C2133 0.949 . S
H2158 C2135 0.950 . S
H2159 C2137 0.950 . S
C2160 C2161 1.345 1_556 S
C2160 C2162 1.327 . S
C2160 H2185 0.950 . S
C2161 C2160 1.345 1_554 S
C2161 C2177 1.354 . S
C2162 C2160 1.327 . S
C2162 C2181 1.429 1_556 S
C2162 H2186 0.950 . S
C2163 C2180 1.574 . S
C2163 C2182 1.368 . S
C2163 H2187 0.949 . S
H2164 C2168 0.931 1_556 S
C2165 C2166 1.348 . S
C2165 C2167 1.334 . S
C2165 H2188 0.944 1_565 S
C2166 C2165 1.348 . S
C2166 C2178 1.349 . S
C2167 C2165 1.334 . S
C2167 C2183 1.429 . S
C2167 H2189 0.950 . S
C2168 H2164 0.931 1_554 S
C2168 C2176 1.567 1_554 S
C2168 C2184 1.396 . S
H2169 C2177 0.950 . S
H2170 C2175 0.950 . S
H2171 C2176 0.949 . S
H2172 C2178 0.950 . S
H2173 C2179 0.950 1_556 S
H2174 C2180 0.949 . S
C2175 H2170 0.950 . S
C2175 C2177 1.327 . S
C2175 C2181 1.429 . S
C2176 C2168 1.567 1_556 S
C2176 H2171 0.949 . S
C2176 C2182 1.368 1_556 S
C2177 C2161 1.354 . S
C2177 H2169 0.950 . S
C2177 C2175 1.327 . S
C2178 C2166 1.349 . S
C2178 H2172 0.950 . S
C2178 C2179 1.327 . S
C2179 H2173 0.950 1_554 S
C2179 C2178 1.327 . S
C2179 C2183 1.429 . S
C2180 C2163 1.574 . S
C2180 H2174 0.949 . S
C2180 C2184 1.368 . S
C2181 C2162 1.429 1_554 S
C2181 C2175 1.429 . S
C2181 C2182 1.523 . S
C2182 C2163 1.368 . S
C2182 C2176 1.368 1_554 S
C2182 C2181 1.523 . S
C2183 C2167 1.429 . S
C2183 C2179 1.429 . S
C2183 C2184 1.523 . S
C2184 C2168 1.396 . S
C2184 C2180 1.368 . S
C2184 C2183 1.523 . S
H2185 C2160 0.950 . S
H2186 C2162 0.950 . S
H2187 C2163 0.949 . S
H2188 C2165 0.944 1_545 S
H2189 C2167 0.950 . S
C2190 C2191 1.349 . S
C2190 C2192 1.327 . S
C2190 H2215 0.950 . S
C2191 C2190 1.349 . S
C2191 C2207 1.349 1_554 S
C2192 C2190 1.327 . S
C2192 C2211 1.429 . S
C2192 H2216 0.950 . S
C2193 C2210 1.574 . S
C2193 C2212 1.368 1_556 S
C2193 H2217 0.949 . S
H2194 C2198 0.949 . S
C2195 C2196 1.362 . S
C2195 C2197 1.312 1_554 S
C2195 H2218 0.940 1_554 S
C2196 C2195 1.362 . S
C2196 C2208 1.349 . S
C2197 C2195 1.312 1_556 S
C2197 C2213 1.398 1_556 S
C2197 H2219 0.997 . S
C2198 H2194 0.949 . S
C2198 C2206 1.574 . S
C2198 C2214 1.368 . S
H2199 C2207 0.950 . S
H2200 C2205 0.950 . S
H2201 C2206 0.949 . S
H2202 C2208 0.950 . S
H2203 C2209 0.950 . S
H2204 C2210 0.949 . S
C2205 H2200 0.950 . S
C2205 C2207 1.327 . S
C2205 C2211 1.429 1_556 S
C2206 C2198 1.574 . S
C2206 H2201 0.949 . S
C2206 C2212 1.368 . S
C2207 C2191 1.349 1_556 S
C2207 H2199 0.950 . S
C2207 C2205 1.327 . S
C2208 C2196 1.349 . S
C2208 H2202 0.950 . S
C2208 C2209 1.327 . S
C2209 H2203 0.950 . S
C2209 C2208 1.327 . S
C2209 C2213 1.429 . S
C2210 C2193 1.574 . S
C2210 H2204 0.949 . S
C2210 C2214 1.368 1_556 S
C2211 C2192 1.429 . S
C2211 C2205 1.429 1_554 S
C2211 C2212 1.523 . S
C2212 C2193 1.368 1_554 S
C2212 C2206 1.368 . S
C2212 C2211 1.523 . S
C2213 C2197 1.398 1_554 S
C2213 C2209 1.429 . S
C2213 C2214 1.523 . S
C2214 C2198 1.368 . S
C2214 C2210 1.368 1_554 S
C2214 C2213 1.523 . S
H2215 C2190 0.950 . S
H2216 C2192 0.950 . S
H2217 C2193 0.949 . S
H2218 C2195 0.940 1_556 S
H2219 C2197 0.997 . S
C2220 C2221 1.349 . S
C2220 C2222 1.327 . S
C2220 H2245 0.950 . S
C2221 C2220 1.349 . S
C2221 C2237 1.349 . S
C2222 C2220 1.327 . S
C2222 C2241 1.429 . S
C2222 H2246 0.950 . S
C2223 C2240 1.574 . S
C2223 C2242 1.368 . S
C2223 H2247 0.949 . S
H2224 C2228 0.949 . S
C2225 C2226 1.349 . S
C2225 C2227 1.327 . S
C2225 H2248 0.950 . S
C2226 C2225 1.349 . S
C2226 C2238 1.349 . S
C2227 C2225 1.327 . S
C2227 C2243 1.429 . S
C2227 H2249 0.950 . S
C2228 H2224 0.949 . S
C2228 C2236 1.574 . S
C2228 C2244 1.368 . S
H2229 C2237 0.950 . S
H2230 C2235 0.950 . S
H2231 C2236 0.949 . S
H2232 C2238 0.950 . S
H2233 C2239 0.950 . S
H2234 C2240 0.949 . S
C2235 H2230 0.950 . S
C2235 C2237 1.327 . S
C2235 C2241 1.429 . S
C2236 C2228 1.574 . S
C2236 H2231 0.949 . S
C2236 C2242 1.368 . S
C2237 C2221 1.349 . S
C2237 H2229 0.950 . S
C2237 C2235 1.327 . S
C2238 C2226 1.349 . S
C2238 H2232 0.950 . S
C2238 C2239 1.327 . S
C2239 H2233 0.950 . S
C2239 C2238 1.327 . S
C2239 C2243 1.429 . S
C2240 C2223 1.574 . S
C2240 H2234 0.949 . S
C2240 C2244 1.368 . S
C2241 C2222 1.429 . S
C2241 C2235 1.429 . S
C2241 C2242 1.523 . S
C2242 C2223 1.368 . S
C2242 C2236 1.368 . S
C2242 C2241 1.523 . S
C2243 C2227 1.429 . S
C2243 C2239 1.429 . S
C2243 C2244 1.523 . S
C2244 C2228 1.368 . S
C2244 C2240 1.368 . S
C2244 C2243 1.523 . S
H2245 C2220 0.950 . S
H2246 C2222 0.950 . S
H2247 C2223 0.949 . S
H2248 C2225 0.950 . S
H2249 C2227 0.950 . S
C2250 C2251 1.349 . S
C2250 C2252 1.327 . S
C2250 H2275 0.950 . S
C2251 C2250 1.349 . S
C2251 C2267 1.349 . S
C2252 C2250 1.327 . S
C2252 C2271 1.429 . S
C2252 H2276 0.950 . S
C2253 C2270 1.574 . S
C2253 C2272 1.368 . S
C2253 H2277 0.949 . S
H2254 C2258 0.949 . S
C2255 C2256 1.349 . S
C2255 C2257 1.327 . S
C2255 H2278 0.950 . S
C2256 C2255 1.349 . S
C2256 C2268 1.349 . S
C2257 C2255 1.327 . S
C2257 C2273 1.429 . S
C2257 H2279 0.950 . S
C2258 H2254 0.949 . S
C2258 C2266 1.574 . S
C2258 C2274 1.368 . S
H2259 C2267 0.950 . S
H2260 C2265 0.950 . S
H2261 C2266 0.949 . S
H2262 C2268 0.950 . S
H2263 C2269 0.950 . S
H2264 C2270 0.949 . S
C2265 H2260 0.950 . S
C2265 C2267 1.327 . S
C2265 C2271 1.429 . S
C2266 C2258 1.574 . S
C2266 H2261 0.949 . S
C2266 C2272 1.368 . S
C2267 C2251 1.349 . S
C2267 H2259 0.950 . S
C2267 C2265 1.327 . S
C2268 C2256 1.349 . S
C2268 H2262 0.950 . S
C2268 C2269 1.327 . S
C2269 H2263 0.950 . S
C2269 C2268 1.327 . S
C2269 C2273 1.429 . S
C2270 C2253 1.574 . S
C2270 H2264 0.949 . S
C2270 C2274 1.368 . S
C2271 C2252 1.429 . S
C2271 C2265 1.429 . S
C2271 C2272 1.523 . S
C2272 C2253 1.368 . S
C2272 C2266 1.368 . S
C2272 C2271 1.523 . S
C2273 C2257 1.429 . S
C2273 C2269 1.429 . S
C2273 C2274 1.523 . S
C2274 C2258 1.368 . S
C2274 C2270 1.368 . S
C2274 C2273 1.523 . S
H2275 C2250 0.950 . S
H2276 C2252 0.950 . S
H2277 C2253 0.949 . S
H2278 C2255 0.950 . S
H2279 C2257 0.950 . S
C2280 C2281 1.349 . S
C2280 C2282 1.327 . S
C2280 H2305 0.950 . S
C2281 C2280 1.349 . S
C2281 C2297 1.349 . S
C2282 C2280 1.327 . S
C2282 C2301 1.429 . S
C2282 H2306 0.950 . S
C2283 C2300 1.574 . S
C2283 C2302 1.368 . S
C2283 H2307 0.949 . S
H2284 C2288 0.949 . S
C2285 C2286 1.349 . S
C2285 C2287 1.327 . S
C2285 H2308 0.950 . S
C2286 C2285 1.349 . S
C2286 C2298 1.349 . S
C2287 C2285 1.327 . S
C2287 C2303 1.429 . S
C2287 H2309 0.950 . S
C2288 H2284 0.949 . S
C2288 C2296 1.574 . S
C2288 C2304 1.368 . S
H2289 C2297 0.950 . S
H2290 C2295 0.950 . S
H2291 C2296 0.949 . S
H2292 C2298 0.950 . S
H2293 C2299 0.950 . S
H2294 C2300 0.949 . S
C2295 H2290 0.950 . S
C2295 C2297 1.327 . S
C2295 C2301 1.429 . S
C2296 C2288 1.574 . S
C2296 H2291 0.949 . S
C2296 C2302 1.368 . S
C2297 C2281 1.349 . S
C2297 H2289 0.950 . S
C2297 C2295 1.327 . S
C2298 C2286 1.349 . S
C2298 H2292 0.950 . S
C2298 C2299 1.327 . S
C2299 H2293 0.950 . S
C2299 C2298 1.327 . S
C2299 C2303 1.429 . S
C2300 C2283 1.574 . S
C2300 H2294 0.949 . S
C2300 C2304 1.368 . S
C2301 C2282 1.429 . S
C2301 C2295 1.429 . S
C2301 C2302 1.523 . S
C2302 C2283 1.368 . S
C2302 C2296 1.368 . S
C2302 C2301 1.523 . S
C2303 C2287 1.429 . S
C2303 C2299 1.429 . S
C2303 C2304 1.523 . S
C2304 C2288 1.368 . S
C2304 C2300 1.368 . S
C2304 C2303 1.523 . S
H2305 C2280 0.950 . S
H2306 C2282 0.950 . S
H2307 C2283 0.949 . S
H2308 C2285 0.950 . S
H2309 C2287 0.950 . S
C2310 C2311 1.349 . S
C2310 C2312 1.327 . S
C2310 H2335 0.950 . S
C2311 C2310 1.349 . S
C2311 C2327 1.349 . S
C2312 C2310 1.327 . S
C2312 C2331 1.429 . S
C2312 H2336 0.950 . S
C2313 C2330 1.574 . S
C2313 C2332 1.368 . S
C2313 H2337 0.949 . S
H2314 C2318 0.949 . S
C2315 C2316 1.349 . S
C2315 C2317 1.327 . S
C2315 H2338 0.950 . S
C2316 C2315 1.349 . S
C2316 C2328 1.349 . S
C2317 C2315 1.327 . S
C2317 C2333 1.429 . S
C2317 H2339 0.950 . S
C2318 H2314 0.949 . S
C2318 C2326 1.574 . S
C2318 C2334 1.368 . S
H2319 C2327 0.950 . S
H2320 C2325 0.950 . S
H2321 C2326 0.949 . S
H2322 C2328 0.950 . S
H2323 C2329 0.950 . S
H2324 C2330 0.949 . S
C2325 H2320 0.950 . S
C2325 C2327 1.327 . S
C2325 C2331 1.429 . S
C2326 C2318 1.574 . S
C2326 H2321 0.949 . S
C2326 C2332 1.368 . S
C2327 C2311 1.349 . S
C2327 H2319 0.950 . S
C2327 C2325 1.327 . S
C2328 C2316 1.349 . S
C2328 H2322 0.950 . S
C2328 C2329 1.327 . S
C2329 H2323 0.950 . S
C2329 C2328 1.327 . S
C2329 C2333 1.429 . S
C2330 C2313 1.574 . S
C2330 H2324 0.949 . S
C2330 C2334 1.368 . S
C2331 C2312 1.429 . S
C2331 C2325 1.429 . S
C2331 C2332 1.523 . S
C2332 C2313 1.368 . S
C2332 C2326 1.368 . S
C2332 C2331 1.523 . S
C2333 C2317 1.429 . S
C2333 C2329 1.429 . S
C2333 C2334 1.523 . S
C2334 C2318 1.368 . S
C2334 C2330 1.368 . S
C2334 C2333 1.523 . S
H2335 C2310 0.950 . S
H2336 C2312 0.950 . S
H2337 C2313 0.949 . S
H2338 C2315 0.950 . S
H2339 C2317 0.950 . S
C2340 C2341 1.349 . S
C2340 C2342 1.327 . S
C2340 H2365 0.950 . S
C2341 C2340 1.349 . S
C2341 C2357 1.349 . S
C2342 C2340 1.327 . S
C2342 C2361 1.429 . S
C2342 H2366 0.950 . S
C2343 C2360 1.574 . S
C2343 C2362 1.368 . S
C2343 H2367 0.949 . S
H2344 C2348 0.949 . S
C2345 C2346 1.349 . S
C2345 C2347 1.327 . S
C2345 H2368 0.950 . S
C2346 C2345 1.349 . S
C2346 C2358 1.349 . S
C2347 C2345 1.327 . S
C2347 C2363 1.429 . S
C2347 H2369 0.950 . S
C2348 H2344 0.949 . S
C2348 C2356 1.574 . S
C2348 C2364 1.368 . S
H2349 C2357 0.950 . S
H2350 C2355 0.950 . S
H2351 C2356 0.949 . S
H2352 C2358 0.950 . S
H2353 C2359 0.950 . S
H2354 C2360 0.949 . S
C2355 H2350 0.950 . S
C2355 C2357 1.327 . S
C2355 C2361 1.429 . S
C2356 C2348 1.574 . S
C2356 H2351 0.949 . S
C2356 C2362 1.368 . S
C2357 C2341 1.349 . S
C2357 H2349 0.950 . S
C2357 C2355 1.327 . S
C2358 C2346 1.349 . S
C2358 H2352 0.950 . S
C2358 C2359 1.327 . S
C2359 H2353 0.950 . S
C2359 C2358 1.327 . S
C2359 C2363 1.429 . S
C2360 C2343 1.574 . S
C2360 H2354 0.949 . S
C2360 C2364 1.368 . S
C2361 C2342 1.429 . S
C2361 C2355 1.429 . S
C2361 C2362 1.523 . S
C2362 C2343 1.368 . S
C2362 C2356 1.368 . S
C2362 C2361 1.523 . S
C2363 C2347 1.429 . S
C2363 C2359 1.429 . S
C2363 C2364 1.523 . S
C2364 C2348 1.368 . S
C2364 C2360 1.368 . S
C2364 C2363 1.523 . S
H2365 C2340 0.950 . S
H2366 C2342 0.950 . S
H2367 C2343 0.949 . S
H2368 C2345 0.950 . S
H2369 C2347 0.950 . S
C2370 C2371 1.349 . S
C2370 C2372 1.327 . S
C2370 H2395 0.950 . S
C2371 C2370 1.349 . S
C2371 C2387 1.349 . S
C2372 C2370 1.327 . S
C2372 C2391 1.429 . S
C2372 H2396 0.950 . S
C2373 C2390 1.574 . S
C2373 C2392 1.368 . S
C2373 H2397 0.949 . S
H2374 C2378 0.949 . S
C2375 C2376 1.349 . S
C2375 C2377 1.327 . S
C2375 H2398 0.950 . S
C2376 C2375 1.349 . S
C2376 C2388 1.349 . S
C2377 C2375 1.327 . S
C2377 C2393 1.429 . S
C2377 H2399 0.950 . S
C2378 H2374 0.949 . S
C2378 C2386 1.574 . S
C2378 C2394 1.368 . S
H2379 C2387 0.950 . S
H2380 C2385 0.950 . S
H2381 C2386 0.949 . S
H2382 C2388 0.950 . S
H2383 C2389 0.950 . S
H2384 C2390 0.949 . S
C2385 H2380 0.950 . S
C2385 C2387 1.327 . S
C2385 C2391 1.429 . S
C2386 C2378 1.574 . S
C2386 H2381 0.949 . S
C2386 C2392 1.368 . S
C2387 C2371 1.349 . S
C2387 H2379 0.950 . S
C2387 C2385 1.327 . S
C2388 C2376 1.349 . S
C2388 H2382 0.950 . S
C2388 C2389 1.327 . S
C2389 H2383 0.950 . S
C2389 C2388 1.327 . S
C2389 C2393 1.429 . S
C2390 C2373 1.574 . S
C2390 H2384 0.949 . S
C2390 C2394 1.368 . S
C2391 C2372 1.429 . S
C2391 C2385 1.429 . S
C2391 C2392 1.523 . S
C2392 C2373 1.368 . S
C2392 C2386 1.368 . S
C2392 C2391 1.523 . S
C2393 C2377 1.429 . S
C2393 C2389 1.429 . S
C2393 C2394 1.523 . S
C2394 C2378 1.368 . S
C2394 C2390 1.368 . S
C2394 C2393 1.523 . S
H2395 C2370 0.950 . S
H2396 C2372 0.950 . S
H2397 C2373 0.949 . S
H2398 C2375 0.950 . S
H2399 C2377 0.950 . S
C2400 C2401 1.349 . S
C2400 C2402 1.327 . S
C2400 H2425 0.950 . S
C2401 C2400 1.349 . S
C2401 C2417 1.349 . S
C2402 C2400 1.327 . S
C2402 C2421 1.429 . S
C2402 H2426 0.950 . S
C2403 C2420 1.574 . S
C2403 C2422 1.368 . S
C2403 H2427 0.949 . S
H2404 C2408 0.949 . S
C2405 C2406 1.349 . S
C2405 C2407 1.327 . S
C2405 H2428 0.950 . S
C2406 C2405 1.349 . S
C2406 C2418 1.349 . S
C2407 C2405 1.327 . S
C2407 C2423 1.429 . S
C2407 H2429 0.950 . S
C2408 H2404 0.949 . S
C2408 C2416 1.574 . S
C2408 C2424 1.368 . S
H2409 C2417 0.950 . S
H2410 C2415 0.950 . S
H2411 C2416 0.949 . S
H2412 C2418 0.950 . S
H2413 C2419 0.950 . S
H2414 C2420 0.949 . S
C2415 H2410 0.950 . S
C2415 C2417 1.327 . S
C2415 C2421 1.429 . S
C2416 C2408 1.574 . S
C2416 H2411 0.949 . S
C2416 C2422 1.368 . S
C2417 C2401 1.349 . S
C2417 H2409 0.950 . S
C2417 C2415 1.327 . S
C2418 C2406 1.349 . S
C2418 H2412 0.950 . S
C2418 C2419 1.327 . S
C2419 H2413 0.950 . S
C2419 C2418 1.327 . S
C2419 C2423 1.429 . S
C2420 C2403 1.574 . S
C2420 H2414 0.949 . S
C2420 C2424 1.368 . S
C2421 C2402 1.429 . S
C2421 C2415 1.429 . S
C2421 C2422 1.523 . S
C2422 C2403 1.368 . S
C2422 C2416 1.368 . S
C2422 C2421 1.523 . S
C2423 C2407 1.429 . S
C2423 C2419 1.429 . S
C2423 C2424 1.523 . S
C2424 C2408 1.368 . S
C2424 C2420 1.368 . S
C2424 C2423 1.523 . S
H2425 C2400 0.950 . S
H2426 C2402 0.950 . S
H2427 C2403 0.949 . S
H2428 C2405 0.950 . S
H2429 C2407 0.950 . S
C2430 C2431 1.349 . S
C2430 C2432 1.327 . S
C2430 H2455 0.950 . S
C2431 C2430 1.349 . S
C2431 C2447 1.349 . S
C2432 C2430 1.327 . S
C2432 C2451 1.429 . S
C2432 H2456 0.950 . S
C2433 C2450 1.574 . S
C2433 C2452 1.368 . S
C2433 H2457 0.949 . S
H2434 C2438 0.949 . S
C2435 C2436 1.349 . S
C2435 C2437 1.327 . S
C2435 H2458 0.950 . S
C2436 C2435 1.349 . S
C2436 C2448 1.349 . S
C2437 C2435 1.327 . S
C2437 C2453 1.429 . S
C2437 H2459 0.950 . S
C2438 H2434 0.949 . S
C2438 C2446 1.574 . S
C2438 C2454 1.368 . S
H2439 C2447 0.950 . S
H2440 C2445 0.950 . S
H2441 C2446 0.949 . S
H2442 C2448 0.950 . S
H2443 C2449 0.950 . S
H2444 C2450 0.949 . S
C2445 H2440 0.950 . S
C2445 C2447 1.327 . S
C2445 C2451 1.429 . S
C2446 C2438 1.574 . S
C2446 H2441 0.949 . S
C2446 C2452 1.368 . S
C2447 C2431 1.349 . S
C2447 H2439 0.950 . S
C2447 C2445 1.327 . S
C2448 C2436 1.349 . S
C2448 H2442 0.950 . S
C2448 C2449 1.327 . S
C2449 H2443 0.950 . S
C2449 C2448 1.327 . S
C2449 C2453 1.429 . S
C2450 C2433 1.574 . S
C2450 H2444 0.949 . S
C2450 C2454 1.368 . S
C2451 C2432 1.429 . S
C2451 C2445 1.429 . S
C2451 C2452 1.523 . S
C2452 C2433 1.368 . S
C2452 C2446 1.368 . S
C2452 C2451 1.523 . S
C2453 C2437 1.429 . S
C2453 C2449 1.429 . S
C2453 C2454 1.523 . S
C2454 C2438 1.368 . S
C2454 C2450 1.368 . S
C2454 C2453 1.523 . S
H2455 C2430 0.950 . S
H2456 C2432 0.950 . S
H2457 C2433 0.949 . S
H2458 C2435 0.950 . S
H2459 C2437 0.950 . S
C2460 C2461 1.349 . S
C2460 C2462 1.327 . S
C2460 H2485 0.950 . S
C2461 C2460 1.349 . S
C2461 C2477 1.349 . S
C2462 C2460 1.327 . S
C2462 C2481 1.429 . S
C2462 H2486 0.950 . S
C2463 C2480 1.574 . S
C2463 C2482 1.368 . S
C2463 H2487 0.949 . S
H2464 C2468 0.949 . S
C2465 C2466 1.349 . S
C2465 C2467 1.327 . S
C2465 H2488 0.950 . S
C2466 C2465 1.349 . S
C2466 C2478 1.349 . S
C2467 C2465 1.327 . S
C2467 C2483 1.429 . S
C2467 H2489 0.950 . S
C2468 H2464 0.949 . S
C2468 C2476 1.574 . S
C2468 C2484 1.368 . S
H2469 C2477 0.950 . S
H2470 C2475 0.950 . S
H2471 C2476 0.949 . S
H2472 C2478 0.950 . S
H2473 C2479 0.950 . S
H2474 C2480 0.949 . S
C2475 H2470 0.950 . S
C2475 C2477 1.327 . S
C2475 C2481 1.429 . S
C2476 C2468 1.574 . S
C2476 H2471 0.949 . S
C2476 C2482 1.368 . S
C2477 C2461 1.349 . S
C2477 H2469 0.950 . S
C2477 C2475 1.327 . S
C2478 C2466 1.349 . S
C2478 H2472 0.950 . S
C2478 C2479 1.327 . S
C2479 H2473 0.950 . S
C2479 C2478 1.327 . S
C2479 C2483 1.429 . S
C2480 C2463 1.574 . S
C2480 H2474 0.949 . S
C2480 C2484 1.368 . S
C2481 C2462 1.429 . S
C2481 C2475 1.429 . S
C2481 C2482 1.523 . S
C2482 C2463 1.368 . S
C2482 C2476 1.368 . S
C2482 C2481 1.523 . S
C2483 C2467 1.429 . S
C2483 C2479 1.429 . S
C2483 C2484 1.523 . S
C2484 C2468 1.368 . S
C2484 C2480 1.368 . S
C2484 C2483 1.523 . S
H2485 C2460 0.950 . S
H2486 C2462 0.950 . S
H2487 C2463 0.949 . S
H2488 C2465 0.950 . S
H2489 C2467 0.950 . S
C2490 C2491 1.349 . S
C2490 C2492 1.327 . S
C2490 H2515 0.950 . S
C2491 C2490 1.349 . S
C2491 C2507 1.349 . S
C2492 C2490 1.327 . S
C2492 C2511 1.429 . S
C2492 H2516 0.950 . S
C2493 C2510 1.574 . S
C2493 C2512 1.368 . S
C2493 H2517 0.949 . S
H2494 C2498 0.949 . S
C2495 C2496 1.349 . S
C2495 C2497 1.327 . S
C2495 H2518 0.950 . S
C2496 C2495 1.349 . S
C2496 C2508 1.349 . S
C2497 C2495 1.327 . S
C2497 C2513 1.429 . S
C2497 H2519 0.950 . S
C2498 H2494 0.949 . S
C2498 C2506 1.574 . S
C2498 C2514 1.368 . S
H2499 C2507 0.950 . S
H2500 C2505 0.950 . S
H2501 C2506 0.949 . S
H2502 C2508 0.950 . S
H2503 C2509 0.950 . S
H2504 C2510 0.949 . S
C2505 H2500 0.950 . S
C2505 C2507 1.327 . S
C2505 C2511 1.429 . S
C2506 C2498 1.574 . S
C2506 H2501 0.949 . S
C2506 C2512 1.368 . S
C2507 C2491 1.349 . S
C2507 H2499 0.950 . S
C2507 C2505 1.327 . S
C2508 C2496 1.349 . S
C2508 H2502 0.950 . S
C2508 C2509 1.327 . S
C2509 H2503 0.950 . S
C2509 C2508 1.327 . S
C2509 C2513 1.429 . S
C2510 C2493 1.574 . S
C2510 H2504 0.949 . S
C2510 C2514 1.368 . S
C2511 C2492 1.429 . S
C2511 C2505 1.429 . S
C2511 C2512 1.523 . S
C2512 C2493 1.368 . S
C2512 C2506 1.368 . S
C2512 C2511 1.523 . S
C2513 C2497 1.429 . S
C2513 C2509 1.429 . S
C2513 C2514 1.523 . S
C2514 C2498 1.368 . S
C2514 C2510 1.368 . S
C2514 C2513 1.523 . S
H2515 C2490 0.950 . S
H2516 C2492 0.950 . S
H2517 C2493 0.949 . S
H2518 C2495 0.950 . S
H2519 C2497 0.950 . S
C2520 C2521 1.349 . S
C2520 C2522 1.327 . S
C2520 H2545 0.950 . S
C2521 C2520 1.349 . S
C2521 C2537 1.349 . S
C2522 C2520 1.327 . S
C2522 C2541 1.429 . S
C2522 H2546 0.950 . S
C2523 C2540 1.574 . S
C2523 C2542 1.368 . S
C2523 H2547 0.949 . S
H2524 C2528 0.949 . S
C2525 C2526 1.349 . S
C2525 C2527 1.327 . S
C2525 H2548 0.950 . S
C2526 C2525 1.349 . S
C2526 C2538 1.349 . S
C2527 C2525 1.327 . S
C2527 C2543 1.429 . S
C2527 H2549 0.950 . S
C2528 H2524 0.949 . S
C2528 C2536 1.574 . S
C2528 C2544 1.368 . S
H2529 C2537 0.950 . S
H2530 C2535 0.950 . S
H2531 C2536 0.949 . S
H2532 C2538 0.950 . S
H2533 C2539 0.950 . S
H2534 C2540 0.949 . S
C2535 H2530 0.950 . S
C2535 C2537 1.327 . S
C2535 C2541 1.429 . S
C2536 C2528 1.574 . S
C2536 H2531 0.949 . S
C2536 C2542 1.368 . S
C2537 C2521 1.349 . S
C2537 H2529 0.950 . S
C2537 C2535 1.327 . S
C2538 C2526 1.349 . S
C2538 H2532 0.950 . S
C2538 C2539 1.327 . S
C2539 H2533 0.950 . S
C2539 C2538 1.327 . S
C2539 C2543 1.429 . S
C2540 C2523 1.574 . S
C2540 H2534 0.949 . S
C2540 C2544 1.368 . S
C2541 C2522 1.429 . S
C2541 C2535 1.429 . S
C2541 C2542 1.523 . S
C2542 C2523 1.368 . S
C2542 C2536 1.368 . S
C2542 C2541 1.523 . S
C2543 C2527 1.429 . S
C2543 C2539 1.429 . S
C2543 C2544 1.523 . S
C2544 C2528 1.368 . S
C2544 C2540 1.368 . S
C2544 C2543 1.523 . S
H2545 C2520 0.950 . S
H2546 C2522 0.950 . S
H2547 C2523 0.949 . S
H2548 C2525 0.950 . S
H2549 C2527 0.950 . S
C2550 C2551 1.349 . S
C2550 C2552 1.327 . S
C2550 H2575 0.950 . S
C2551 C2550 1.349 . S
C2551 C2567 1.349 . S
C2552 C2550 1.327 . S
C2552 C2571 1.429 . S
C2552 H2576 0.950 . S
C2553 C2570 1.574 . S
C2553 C2572 1.368 . S
C2553 H2577 0.949 . S
H2554 C2558 0.949 . S
C2555 C2556 1.349 . S
C2555 C2557 1.327 . S
C2555 H2578 0.950 . S
C2556 C2555 1.349 . S
C2556 C2568 1.349 . S
C2557 C2555 1.327 . S
C2557 C2573 1.429 . S
C2557 H2579 0.950 . S
C2558 H2554 0.949 . S
C2558 C2566 1.574 . S
C2558 C2574 1.368 . S
H2559 C2567 0.950 . S
H2560 C2565 0.950 . S
H2561 C2566 0.949 . S
H2562 C2568 0.950 . S
H2563 C2569 0.950 . S
H2564 C2570 0.949 . S
C2565 H2560 0.950 . S
C2565 C2567 1.327 . S
C2565 C2571 1.429 . S
C2566 C2558 1.574 . S
C2566 H2561 0.949 . S
C2566 C2572 1.368 . S
C2567 C2551 1.349 . S
C2567 H2559 0.950 . S
C2567 C2565 1.327 . S
C2568 C2556 1.349 . S
C2568 H2562 0.950 . S
C2568 C2569 1.327 . S
C2569 H2563 0.950 . S
C2569 C2568 1.327 . S
C2569 C2573 1.429 . S
C2570 C2553 1.574 . S
C2570 H2564 0.949 . S
C2570 C2574 1.368 . S
C2571 C2552 1.429 . S
C2571 C2565 1.429 . S
C2571 C2572 1.523 . S
C2572 C2553 1.368 . S
C2572 C2566 1.368 . S
C2572 C2571 1.523 . S
C2573 C2557 1.429 . S
C2573 C2569 1.429 . S
C2573 C2574 1.523 . S
C2574 C2558 1.368 . S
C2574 C2570 1.368 . S
C2574 C2573 1.523 . S
H2575 C2550 0.950 . S
H2576 C2552 0.950 . S
H2577 C2553 0.949 . S
H2578 C2555 0.950 . S
H2579 C2557 0.950 . S
C2580 C2581 1.349 . S
C2580 C2582 1.327 . S
C2580 H2605 0.950 . S
C2581 C2580 1.349 . S
C2581 C2597 1.349 . S
C2582 C2580 1.327 . S
C2582 C2601 1.429 . S
C2582 H2606 0.950 . S
C2583 C2600 1.574 . S
C2583 C2602 1.368 . S
C2583 H2607 0.949 . S
H2584 C2588 0.949 . S
C2585 C2586 1.349 . S
C2585 C2587 1.327 . S
C2585 H2608 0.950 1_556 S
C2586 C2585 1.349 . S
C2586 C2598 1.349 . S
C2587 C2585 1.327 . S
C2587 C2603 1.429 . S
C2587 H2609 0.950 . S
C2588 H2584 0.949 . S
C2588 C2596 1.574 . S
C2588 C2604 1.368 . S
H2589 C2597 0.950 . S
H2590 C2595 0.950 . S
H2591 C2596 0.949 . S
H2592 C2598 0.950 . S
H2593 C2599 0.950 . S
H2594 C2600 0.949 . S
C2595 H2590 0.950 . S
C2595 C2597 1.327 . S
C2595 C2601 1.429 . S
C2596 C2588 1.574 . S
C2596 H2591 0.949 . S
C2596 C2602 1.368 . S
C2597 C2581 1.349 . S
C2597 H2589 0.950 . S
C2597 C2595 1.327 . S
C2598 C2586 1.349 . S
C2598 H2592 0.950 . S
C2598 C2599 1.327 . S
C2599 H2593 0.950 . S
C2599 C2598 1.327 . S
C2599 C2603 1.429 . S
C2600 C2583 1.574 . S
C2600 H2594 0.949 . S
C2600 C2604 1.368 . S
C2601 C2582 1.429 . S
C2601 C2595 1.429 . S
C2601 C2602 1.523 . S
C2602 C2583 1.368 . S
C2602 C2596 1.368 . S
C2602 C2601 1.523 . S
C2603 C2587 1.429 . S
C2603 C2599 1.429 . S
C2603 C2604 1.523 . S
C2604 C2588 1.368 . S
C2604 C2600 1.368 . S
C2604 C2603 1.523 . S
H2605 C2580 0.950 . S
H2606 C2582 0.950 . S
H2607 C2583 0.949 . S
H2608 C2585 0.950 1_554 S
H2609 C2587 0.950 . S
C2610 C2611 1.349 . S
C2610 C2612 1.327 . S
C2610 H2635 0.950 . S
C2611 C2610 1.349 . S
C2611 C2627 1.349 . S
C2612 C2610 1.327 . S
C2612 C2631 1.429 . S
C2612 H2636 0.950 . S
C2613 C2630 1.574 . S
C2613 C2632 1.368 . S
C2613 H2637 0.949 . S
H2614 C2618 0.949 . S
C2615 C2616 1.349 . S
C2615 C2617 1.327 . S
C2615 H2638 0.950 . S
C2616 C2615 1.349 . S
C2616 C2628 1.349 . S
C2617 C2615 1.327 . S
C2617 C2633 1.429 . S
C2617 H2639 0.950 . S
C2618 H2614 0.949 . S
C2618 C2626 1.574 . S
C2618 C2634 1.368 . S
H2619 C2627 0.950 . S
H2620 C2625 0.950 . S
H2621 C2626 0.949 . S
H2622 C2628 0.950 . S
H2623 C2629 0.950 . S
H2624 C2630 0.949 . S
C2625 H2620 0.950 . S
C2625 C2627 1.327 . S
C2625 C2631 1.429 . S
C2626 C2618 1.574 . S
C2626 H2621 0.949 . S
C2626 C2632 1.368 . S
C2627 C2611 1.349 . S
C2627 H2619 0.950 . S
C2627 C2625 1.327 . S
C2628 C2616 1.349 . S
C2628 H2622 0.950 . S
C2628 C2629 1.327 . S
C2629 H2623 0.950 . S
C2629 C2628 1.327 . S
C2629 C2633 1.429 . S
C2630 C2613 1.574 . S
C2630 H2624 0.949 . S
C2630 C2634 1.368 . S
C2631 C2612 1.429 . S
C2631 C2625 1.429 . S
C2631 C2632 1.523 . S
C2632 C2613 1.368 . S
C2632 C2626 1.368 . S
C2632 C2631 1.523 . S
C2633 C2617 1.429 . S
C2633 C2629 1.429 . S
C2633 C2634 1.523 . S
C2634 C2618 1.368 . S
C2634 C2630 1.368 . S
C2634 C2633 1.523 . S
H2635 C2610 0.950 . S
H2636 C2612 0.950 . S
H2637 C2613 0.949 . S
H2638 C2615 0.950 . S
H2639 C2617 0.950 . S
C2640 C2641 1.349 . S
C2640 C2642 1.327 . S
C2640 H2665 0.950 . S
C2641 C2640 1.349 . S
C2641 C2657 1.349 . S
C2642 C2640 1.327 . S
C2642 C2661 1.429 . S
C2642 H2666 0.950 . S
C2643 C2660 1.574 . S
C2643 C2662 1.368 . S
C2643 H2667 0.949 . S
H2644 C2648 0.949 . S
C2645 C2646 1.349 . S
C2645 C2647 1.327 . S
C2645 H2668 0.950 . S
C2646 C2645 1.349 . S
C2646 C2658 1.349 . S
C2647 C2645 1.327 . S
C2647 C2663 1.429 . S
C2647 H2669 0.950 . S
C2648 H2644 0.949 . S
C2648 C2656 1.574 . S
C2648 C2664 1.368 . S
H2649 C2657 0.950 . S
H2650 C2655 0.950 . S
H2651 C2656 0.949 . S
H2652 C2658 0.950 . S
H2653 C2659 0.950 . S
H2654 C2660 0.949 . S
C2655 H2650 0.950 . S
C2655 C2657 1.327 . S
C2655 C2661 1.429 . S
C2656 C2648 1.574 . S
C2656 H2651 0.949 . S
C2656 C2662 1.368 . S
C2657 C2641 1.349 . S
C2657 H2649 0.950 . S
C2657 C2655 1.327 . S
C2658 C2646 1.349 . S
C2658 H2652 0.950 . S
C2658 C2659 1.327 . S
C2659 H2653 0.950 . S
C2659 C2658 1.327 . S
C2659 C2663 1.429 . S
C2660 C2643 1.574 . S
C2660 H2654 0.949 . S
C2660 C2664 1.368 . S
C2661 C2642 1.429 . S
C2661 C2655 1.429 . S
C2661 C2662 1.523 . S
C2662 C2643 1.368 . S
C2662 C2656 1.368 . S
C2662 C2661 1.523 . S
C2663 C2647 1.429 . S
C2663 C2659 1.429 . S
C2663 C2664 1.523 . S
C2664 C2648 1.368 . S
C2664 C2660 1.368 . S
C2664 C2663 1.523 . S
H2665 C2640 0.950 . S
H2666 C2642 0.950 . S
H2667 C2643 0.949 . S
H2668 C2645 0.950 . S
H2669 C2647 0.950 . S
C2670 C2671 1.349 . S
C2670 C2672 1.327 . S
C2670 H2695 0.950 . S
C2671 C2670 1.349 . S
C2671 C2687 1.349 . S
C2672 C2670 1.327 . S
C2672 C2691 1.429 . S
C2672 H2696 0.950 . S
C2673 C2690 1.574 . S
C2673 C2692 1.368 . S
C2673 H2697 0.949 . S
H2674 C2678 0.949 . S
C2675 C2676 1.349 . S
C2675 C2677 1.327 . S
C2675 H2698 0.950 . S
C2676 C2675 1.349 . S
C2676 C2688 1.349 . S
C2677 C2675 1.327 . S
C2677 C2693 1.429 . S
C2677 H2699 0.950 . S
C2678 H2674 0.949 . S
C2678 C2686 1.574 . S
C2678 C2694 1.368 . S
H2679 C2687 0.950 . S
H2680 C2685 0.950 . S
H2681 C2686 0.949 . S
H2682 C2688 0.950 . S
H2683 C2689 0.950 . S
H2684 C2690 0.949 . S
C2685 H2680 0.950 . S
C2685 C2687 1.327 . S
C2685 C2691 1.429 . S
C2686 C2678 1.574 . S
C2686 H2681 0.949 . S
C2686 C2692 1.368 . S
C2687 C2671 1.349 . S
C2687 H2679 0.950 . S
C2687 C2685 1.327 . S
C2688 C2676 1.349 . S
C2688 H2682 0.950 . S
C2688 C2689 1.327 . S
C2689 H2683 0.950 . S
C2689 C2688 1.327 . S
C2689 C2693 1.429 . S
C2690 C2673 1.574 . S
C2690 H2684 0.949 . S
C2690 C2694 1.368 . S
C2691 C2672 1.429 . S
C2691 C2685 1.429 . S
C2691 C2692 1.523 . S
C2692 C2673 1.368 . S
C2692 C2686 1.368 . S
C2692 C2691 1.523 . S
C2693 C2677 1.429 . S
C2693 C2689 1.429 . S
C2693 C2694 1.523 . S
C2694 C2678 1.368 . S
C2694 C2690 1.368 . S
C2694 C2693 1.523 . S
H2695 C2670 0.950 . S
H2696 C2672 0.950 . S
H2697 C2673 0.949 . S
H2698 C2675 0.950 . S
H2699 C2677 0.950 . S
C2700 C2701 1.349 1_565 S
C2700 C2702 1.327 . S
C2700 H2725 0.950 . S
C2701 C2700 1.349 1_545 S
C2701 C2717 1.349 . S
C2702 C2700 1.327 . S
C2702 C2721 1.427 1_565 S
C2702 H2726 0.952 . S
C2703 C2720 1.574 . S
C2703 C2722 1.368 . S
C2703 H2727 0.949 . S
H2704 C2708 0.949 1_565 S
C2705 C2706 1.349 . S
C2705 C2707 1.327 . S
C2705 H2728 0.950 . S
C2706 C2705 1.349 . S
C2706 C2718 1.349 . S
C2707 C2705 1.327 . S
C2707 C2723 1.429 . S
C2707 H2729 0.950 . S
C2708 H2704 0.949 1_545 S
C2708 C2716 1.574 . S
C2708 C2724 1.368 . S
H2709 C2717 0.950 . S
H2710 C2715 0.950 . S
H2711 C2716 0.949 1_565 S
H2712 C2718 0.950 . S
H2713 C2719 0.950 1_565 S
H2714 C2720 0.949 . S
C2715 H2710 0.950 . S
C2715 C2717 1.327 . S
C2715 C2721 1.429 . S
C2716 C2708 1.574 . S
C2716 H2711 0.949 1_545 S
C2716 C2722 1.368 . S
C2717 C2701 1.349 . S
C2717 H2709 0.950 . S
C2717 C2715 1.327 . S
C2718 C2706 1.349 . S
C2718 H2712 0.950 . S
C2718 C2719 1.327 . S
C2719 H2713 0.950 1_545 S
C2719 C2718 1.327 . S
C2719 C2723 1.429 . S
C2720 C2703 1.574 . S
C2720 H2714 0.949 . S
C2720 C2724 1.368 . S
C2721 C2702 1.427 1_545 S
C2721 C2715 1.429 . S
C2721 C2722 1.523 . S
C2722 C2703 1.368 . S
C2722 C2716 1.368 . S
C2722 C2721 1.523 . S
C2723 C2707 1.429 . S
C2723 C2719 1.429 . S
C2723 C2724 1.523 . S
C2724 C2708 1.368 . S
C2724 C2720 1.368 . S
C2724 C2723 1.523 . S
H2725 C2700 0.950 . S
H2726 C2702 0.952 . S
H2727 C2703 0.949 . S
H2728 C2705 0.950 . S
H2729 C2707 0.950 . S
C2730 C2731 1.349 . S
C2730 C2732 1.327 . S
C2730 H2755 0.950 . S
C2731 C2730 1.349 . S
C2731 C2747 1.349 . S
C2732 C2730 1.327 . S
C2732 C2751 1.429 . S
C2732 H2756 0.950 . S
C2733 C2750 1.574 . S
C2733 C2752 1.368 . S
C2733 H2757 0.949 . S
H2734 C2738 0.949 . S
C2735 C2736 1.349 . S
C2735 C2737 1.327 . S
C2735 H2758 0.950 . S
C2736 C2735 1.349 . S
C2736 C2748 1.349 . S
C2737 C2735 1.327 . S
C2737 C2753 1.429 . S
C2737 H2759 0.950 . S
C2738 H2734 0.949 . S
C2738 C2746 1.574 . S
C2738 C2754 1.368 . S
H2739 C2747 0.950 . S
H2740 C2745 0.950 . S
H2741 C2746 0.949 . S
H2742 C2748 0.950 . S
H2743 C2749 0.950 . S
H2744 C2750 0.949 . S
C2745 H2740 0.950 . S
C2745 C2747 1.327 . S
C2745 C2751 1.429 . S
C2746 C2738 1.574 . S
C2746 H2741 0.949 . S
C2746 C2752 1.368 . S
C2747 C2731 1.349 . S
C2747 H2739 0.950 . S
C2747 C2745 1.327 . S
C2748 C2736 1.349 . S
C2748 H2742 0.950 . S
C2748 C2749 1.327 . S
C2749 H2743 0.950 . S
C2749 C2748 1.327 . S
C2749 C2753 1.429 . S
C2750 C2733 1.574 . S
C2750 H2744 0.949 . S
C2750 C2754 1.368 . S
C2751 C2732 1.429 . S
C2751 C2745 1.429 . S
C2751 C2752 1.523 . S
C2752 C2733 1.368 . S
C2752 C2746 1.368 . S
C2752 C2751 1.523 . S
C2753 C2737 1.429 . S
C2753 C2749 1.429 . S
C2753 C2754 1.523 . S
C2754 C2738 1.368 . S
C2754 C2750 1.368 . S
C2754 C2753 1.523 . S
H2755 C2730 0.950 . S
H2756 C2732 0.950 . S
H2757 C2733 0.949 . S
H2758 C2735 0.950 . S
H2759 C2737 0.950 . S
C2760 C2761 1.349 . S
C2760 C2762 1.327 . S
C2760 H2785 0.950 . S
C2761 C2760 1.349 . S
C2761 C2777 1.349 . S
C2762 C2760 1.327 . S
C2762 C2781 1.429 . S
C2762 H2786 0.950 . S
C2763 C2780 1.574 . S
C2763 C2782 1.368 . S
C2763 H2787 0.949 . S
H2764 C2768 0.949 . S
C2765 C2766 1.349 . S
C2765 C2767 1.327 . S
C2765 H2788 0.950 . S
C2766 C2765 1.349 . S
C2766 C2778 1.349 . S
C2767 C2765 1.327 . S
C2767 C2783 1.429 . S
C2767 H2789 0.950 . S
C2768 H2764 0.949 . S
C2768 C2776 1.574 . S
C2768 C2784 1.368 . S
H2769 C2777 0.950 . S
H2770 C2775 0.950 . S
H2771 C2776 0.949 . S
H2772 C2778 0.950 . S
H2773 C2779 0.950 . S
H2774 C2780 0.949 . S
C2775 H2770 0.950 . S
C2775 C2777 1.327 . S
C2775 C2781 1.429 . S
C2776 C2768 1.574 . S
C2776 H2771 0.949 . S
C2776 C2782 1.368 . S
C2777 C2761 1.349 . S
C2777 H2769 0.950 . S
C2777 C2775 1.327 . S
C2778 C2766 1.349 . S
C2778 H2772 0.950 . S
C2778 C2779 1.327 . S
C2779 H2773 0.950 . S
C2779 C2778 1.327 . S
C2779 C2783 1.429 . S
C2780 C2763 1.574 . S
C2780 H2774 0.949 . S
C2780 C2784 1.368 . S
C2781 C2762 1.429 . S
C2781 C2775 1.429 . S
C2781 C2782 1.523 . S
C2782 C2763 1.368 . S
C2782 C2776 1.368 . S
C2782 C2781 1.523 . S
C2783 C2767 1.429 . S
C2783 C2779 1.429 . S
C2783 C2784 1.523 . S
C2784 C2768 1.368 . S
C2784 C2780 1.368 . S
C2784 C2783 1.523 . S
H2785 C2760 0.950 . S
H2786 C2762 0.950 . S
H2787 C2763 0.949 . S
H2788 C2765 0.950 . S
H2789 C2767 0.950 . S
C2790 C2791 1.349 . S
C2790 C2792 1.327 . S
C2790 H2815 0.950 . S
C2791 C2790 1.349 . S
C2791 C2807 1.349 . S
C2792 C2790 1.327 . S
C2792 C2811 1.429 . S
C2792 H2816 0.950 . S
C2793 C2810 1.574 . S
C2793 C2812 1.368 . S
C2793 H2817 0.949 . S
H2794 C2798 0.949 . S
C2795 C2796 1.349 . S
C2795 C2797 1.327 . S
C2795 H2818 0.950 . S
C2796 C2795 1.349 . S
C2796 C2808 1.349 . S
C2797 C2795 1.327 . S
C2797 C2813 1.429 . S
C2797 H2819 0.950 . S
C2798 H2794 0.949 . S
C2798 C2806 1.574 . S
C2798 C2814 1.368 . S
H2799 C2807 0.950 . S
H2800 C2805 0.950 . S
H2801 C2806 0.949 . S
H2802 C2808 0.950 . S
H2803 C2809 0.950 . S
H2804 C2810 0.949 . S
C2805 H2800 0.950 . S
C2805 C2807 1.327 . S
C2805 C2811 1.429 . S
C2806 C2798 1.574 . S
C2806 H2801 0.949 . S
C2806 C2812 1.368 . S
C2807 C2791 1.349 . S
C2807 H2799 0.950 . S
C2807 C2805 1.327 . S
C2808 C2796 1.349 . S
C2808 H2802 0.950 . S
C2808 C2809 1.327 . S
C2809 H2803 0.950 . S
C2809 C2808 1.327 . S
C2809 C2813 1.429 . S
C2810 C2793 1.574 . S
C2810 H2804 0.949 . S
C2810 C2814 1.368 . S
C2811 C2792 1.429 . S
C2811 C2805 1.429 . S
C2811 C2812 1.523 . S
C2812 C2793 1.368 . S
C2812 C2806 1.368 . S
C2812 C2811 1.523 . S
C2813 C2797 1.429 . S
C2813 C2809 1.429 . S
C2813 C2814 1.523 . S
C2814 C2798 1.368 . S
C2814 C2810 1.368 . S
C2814 C2813 1.523 . S
H2815 C2790 0.950 . S
H2816 C2792 0.950 . S
H2817 C2793 0.949 . S
H2818 C2795 0.950 . S
H2819 C2797 0.950 . S
C2820 C2821 1.349 . S
C2820 C2822 1.327 . S
C2820 H2845 0.950 . S
C2821 C2820 1.349 . S
C2821 C2837 1.349 1_545 S
C2822 C2820 1.327 . S
C2822 C2841 1.429 . S
C2822 H2846 0.950 . S
C2823 C2840 1.574 . S
C2823 C2842 1.368 1_565 S
C2823 H2847 0.949 . S
H2824 C2828 0.949 . S
C2825 C2826 1.349 1_565 S
C2825 C2827 1.327 . S
C2825 H2848 0.950 . S
C2826 C2825 1.349 1_545 S
C2826 C2838 1.349 . S
C2827 C2825 1.327 . S
C2827 C2843 1.429 1_565 S
C2827 H2849 0.950 . S
C2828 H2824 0.949 . S
C2828 C2836 1.574 . S
C2828 C2844 1.368 . S
H2829 C2837 0.950 . S
H2830 C2835 0.950 . S
H2831 C2836 0.949 . S
H2832 C2838 0.950 . S
H2833 C2839 0.950 . S
H2834 C2840 0.949 . S
C2835 H2830 0.950 . S
C2835 C2837 1.327 . S
C2835 C2841 1.429 1_565 S
C2836 C2828 1.574 . S
C2836 H2831 0.949 . S
C2836 C2842 1.368 . S
C2837 C2821 1.349 1_565 S
C2837 H2829 0.950 . S
C2837 C2835 1.327 . S
C2838 C2826 1.349 . S
C2838 H2832 0.950 . S
C2838 C2839 1.327 . S
C2839 H2833 0.950 . S
C2839 C2838 1.327 . S
C2839 C2843 1.429 . S
C2840 C2823 1.574 . S
C2840 H2834 0.949 . S
C2840 C2844 1.368 1_565 S
C2841 C2822 1.429 . S
C2841 C2835 1.429 1_545 S
C2841 C2842 1.523 . S
C2842 C2823 1.368 1_545 S
C2842 C2836 1.368 . S
C2842 C2841 1.523 . S
C2843 C2827 1.429 1_545 S
C2843 C2839 1.429 . S
C2843 C2844 1.523 . S
C2844 C2828 1.368 . S
C2844 C2840 1.368 1_545 S
C2844 C2843 1.523 . S
H2845 C2820 0.950 . S
H2846 C2822 0.950 . S
H2847 C2823 0.949 . S
H2848 C2825 0.950 . S
H2849 C2827 0.950 . S
C2850 C2851 1.349 . S
C2850 C2852 1.327 . S
C2850 H2875 0.950 . S
C2851 C2850 1.349 . S
C2851 C2867 1.349 . S
C2852 C2850 1.327 . S
C2852 C2871 1.429 . S
C2852 H2876 0.950 . S
C2853 C2870 1.574 . S
C2853 C2872 1.368 . S
C2853 H2877 0.949 . S
H2854 C2858 0.949 . S
C2855 C2856 1.349 . S
C2855 C2857 1.327 . S
C2855 H2878 0.950 . S
C2856 C2855 1.349 . S
C2856 C2868 1.349 . S
C2857 C2855 1.327 . S
C2857 C2873 1.429 . S
C2857 H2879 0.950 . S
C2858 H2854 0.949 . S
C2858 C2866 1.574 . S
C2858 C2874 1.368 . S
H2859 C2867 0.950 . S
H2860 C2865 0.950 . S
H2861 C2866 0.949 . S
H2862 C2868 0.950 . S
H2863 C2869 0.950 . S
H2864 C2870 0.949 . S
C2865 H2860 0.950 . S
C2865 C2867 1.327 . S
C2865 C2871 1.429 . S
C2866 C2858 1.574 . S
C2866 H2861 0.949 . S
C2866 C2872 1.368 . S
C2867 C2851 1.349 . S
C2867 H2859 0.950 . S
C2867 C2865 1.327 . S
C2868 C2856 1.349 . S
C2868 H2862 0.950 . S
C2868 C2869 1.327 . S
C2869 H2863 0.950 . S
C2869 C2868 1.327 . S
C2869 C2873 1.429 . S
C2870 C2853 1.574 . S
C2870 H2864 0.949 . S
C2870 C2874 1.368 . S
C2871 C2852 1.429 . S
C2871 C2865 1.429 . S
C2871 C2872 1.523 . S
C2872 C2853 1.368 . S
C2872 C2866 1.368 . S
C2872 C2871 1.523 . S
C2873 C2857 1.429 . S
C2873 C2869 1.429 . S
C2873 C2874 1.523 . S
C2874 C2858 1.368 . S
C2874 C2870 1.368 . S
C2874 C2873 1.523 . S
H2875 C2850 0.950 . S
H2876 C2852 0.950 . S
H2877 C2853 0.949 . S
H2878 C2855 0.950 . S
H2879 C2857 0.950 . S
C2880 C2881 1.349 . S
C2880 C2882 1.327 . S
C2880 H2905 0.950 . S
C2881 C2880 1.349 . S
C2881 C2897 1.349 . S
C2882 C2880 1.327 . S
C2882 C2901 1.429 . S
C2882 H2906 0.950 . S
C2883 C2900 1.574 . S
C2883 C2902 1.368 . S
C2883 H2907 0.949 . S
H2884 C2888 0.949 . S
C2885 C2886 1.349 . S
C2885 C2887 1.327 . S
C2885 H2908 0.950 . S
C2886 C2885 1.349 . S
C2886 C2898 1.349 . S
C2887 C2885 1.327 . S
C2887 C2903 1.429 . S
C2887 H2909 0.950 . S
C2888 H2884 0.949 . S
C2888 C2896 1.574 . S
C2888 C2904 1.368 . S
H2889 C2897 0.950 . S
H2890 C2895 0.950 . S
H2891 C2896 0.949 . S
H2892 C2898 0.950 . S
H2893 C2899 0.950 . S
H2894 C2900 0.949 . S
C2895 H2890 0.950 . S
C2895 C2897 1.327 . S
C2895 C2901 1.429 . S
C2896 C2888 1.574 . S
C2896 H2891 0.949 . S
C2896 C2902 1.368 . S
C2897 C2881 1.349 . S
C2897 H2889 0.950 . S
C2897 C2895 1.327 . S
C2898 C2886 1.349 . S
C2898 H2892 0.950 . S
C2898 C2899 1.327 . S
C2899 H2893 0.950 . S
C2899 C2898 1.327 . S
C2899 C2903 1.429 . S
C2900 C2883 1.574 . S
C2900 H2894 0.949 . S
C2900 C2904 1.368 . S
C2901 C2882 1.429 . S
C2901 C2895 1.429 . S
C2901 C2902 1.523 . S
C2902 C2883 1.368 . S
C2902 C2896 1.368 . S
C2902 C2901 1.523 . S
C2903 C2887 1.429 . S
C2903 C2899 1.429 . S
C2903 C2904 1.523 . S
C2904 C2888 1.368 . S
C2904 C2900 1.368 . S
C2904 C2903 1.523 . S
H2905 C2880 0.950 . S
H2906 C2882 0.950 . S
H2907 C2883 0.949 . S
H2908 C2885 0.950 . S
H2909 C2887 0.950 . S
C2910 C2911 1.349 . S
C2910 C2912 1.327 . S
C2910 H2935 0.950 . S
C2911 C2910 1.349 . S
C2911 C2927 1.349 . S
C2912 C2910 1.327 . S
C2912 C2931 1.429 . S
C2912 H2936 0.950 . S
C2913 C2930 1.574 . S
C2913 C2932 1.368 . S
C2913 H2937 0.949 . S
H2914 C2918 0.949 . S
C2915 C2916 1.349 . S
C2915 C2917 1.327 . S
C2915 H2938 0.950 . S
C2916 C2915 1.349 . S
C2916 C2928 1.349 . S
C2917 C2915 1.327 . S
C2917 C2933 1.429 . S
C2917 H2939 0.950 . S
C2918 H2914 0.949 . S
C2918 C2926 1.574 . S
C2918 C2934 1.368 . S
H2919 C2927 0.950 . S
H2920 C2925 0.950 . S
H2921 C2926 0.949 . S
H2922 C2928 0.950 . S
H2923 C2929 0.950 . S
H2924 C2930 0.949 . S
C2925 H2920 0.950 . S
C2925 C2927 1.327 . S
C2925 C2931 1.429 . S
C2926 C2918 1.574 . S
C2926 H2921 0.949 . S
C2926 C2932 1.368 . S
C2927 C2911 1.349 . S
C2927 H2919 0.950 . S
C2927 C2925 1.327 . S
C2928 C2916 1.349 . S
C2928 H2922 0.950 . S
C2928 C2929 1.327 . S
C2929 H2923 0.950 . S
C2929 C2928 1.327 . S
C2929 C2933 1.429 . S
C2930 C2913 1.574 . S
C2930 H2924 0.949 . S
C2930 C2934 1.368 . S
C2931 C2912 1.429 . S
C2931 C2925 1.429 . S
C2931 C2932 1.523 . S
C2932 C2913 1.368 . S
C2932 C2926 1.368 . S
C2932 C2931 1.523 . S
C2933 C2917 1.429 . S
C2933 C2929 1.429 . S
C2933 C2934 1.523 . S
C2934 C2918 1.368 . S
C2934 C2930 1.368 . S
C2934 C2933 1.523 . S
H2935 C2910 0.950 . S
H2936 C2912 0.950 . S
H2937 C2913 0.949 . S
H2938 C2915 0.950 . S
H2939 C2917 0.950 . S
C2940 C2941 1.349 . S
C2940 C2942 1.327 . S
C2940 H2965 0.950 . S
C2941 C2940 1.349 . S
C2941 C2957 1.349 . S
C2942 C2940 1.327 . S
C2942 C2961 1.429 . S
C2942 H2966 0.950 . S
C2943 C2960 1.574 . S
C2943 C2962 1.368 . S
C2943 H2967 0.949 . S
H2944 C2948 0.949 . S
C2945 C2946 1.349 . S
C2945 C2947 1.327 . S
C2945 H2968 0.950 . S
C2946 C2945 1.349 . S
C2946 C2958 1.349 . S
C2947 C2945 1.327 . S
C2947 C2963 1.429 . S
C2947 H2969 0.950 . S
C2948 H2944 0.949 . S
C2948 C2956 1.574 . S
C2948 C2964 1.368 . S
H2949 C2957 0.950 . S
H2950 C2955 0.950 . S
H2951 C2956 0.949 . S
H2952 C2958 0.950 . S
H2953 C2959 0.950 . S
H2954 C2960 0.949 . S
C2955 H2950 0.950 . S
C2955 C2957 1.327 . S
C2955 C2961 1.429 . S
C2956 C2948 1.574 . S
C2956 H2951 0.949 . S
C2956 C2962 1.368 . S
C2957 C2941 1.349 . S
C2957 H2949 0.950 . S
C2957 C2955 1.327 . S
C2958 C2946 1.349 . S
C2958 H2952 0.950 . S
C2958 C2959 1.327 . S
C2959 H2953 0.950 . S
C2959 C2958 1.327 . S
C2959 C2963 1.429 . S
C2960 C2943 1.574 . S
C2960 H2954 0.949 . S
C2960 C2964 1.368 . S
C2961 C2942 1.429 . S
C2961 C2955 1.429 . S
C2961 C2962 1.523 . S
C2962 C2943 1.368 . S
C2962 C2956 1.368 . S
C2962 C2961 1.523 . S
C2963 C2947 1.429 . S
C2963 C2959 1.429 . S
C2963 C2964 1.523 . S
C2964 C2948 1.368 . S
C2964 C2960 1.368 . S
C2964 C2963 1.523 . S
H2965 C2940 0.950 . S
H2966 C2942 0.950 . S
H2967 C2943 0.949 . S
H2968 C2945 0.950 . S
H2969 C2947 0.950 . S
C2970 C2971 1.349 . S
C2970 C2972 1.327 . S
C2970 H2995 0.950 . S
C2971 C2970 1.349 . S
C2971 C2987 1.349 . S
C2972 C2970 1.327 . S
C2972 C2991 1.429 . S
C2972 H2996 0.950 . S
C2973 C2990 1.574 . S
C2973 C2992 1.368 . S
C2973 H2997 0.949 . S
H2974 C2978 0.949 . S
C2975 C2976 1.349 . S
C2975 C2977 1.327 . S
C2975 H2998 0.950 . S
C2976 C2975 1.349 . S
C2976 C2988 1.349 . S
C2977 C2975 1.327 . S
C2977 C2993 1.429 . S
C2977 H2999 0.950 . S
C2978 H2974 0.949 . S
C2978 C2986 1.574 . S
C2978 C2994 1.368 . S
H2979 C2987 0.950 . S
H2980 C2985 0.950 . S
H2981 C2986 0.949 . S
H2982 C2988 0.950 . S
H2983 C2989 0.950 . S
H2984 C2990 0.949 . S
C2985 H2980 0.950 . S
C2985 C2987 1.327 . S
C2985 C2991 1.429 . S
C2986 C2978 1.574 . S
C2986 H2981 0.949 . S
C2986 C2992 1.368 . S
C2987 C2971 1.349 . S
C2987 H2979 0.950 . S
C2987 C2985 1.327 . S
C2988 C2976 1.349 . S
C2988 H2982 0.950 . S
C2988 C2989 1.327 . S
C2989 H2983 0.950 . S
C2989 C2988 1.327 . S
C2989 C2993 1.429 . S
C2990 C2973 1.574 . S
C2990 H2984 0.949 . S
C2990 C2994 1.368 . S
C2991 C2972 1.429 . S
C2991 C2985 1.429 . S
C2991 C2992 1.523 . S
C2992 C2973 1.368 . S
C2992 C2986 1.368 . S
C2992 C2991 1.523 . S
C2993 C2977 1.429 . S
C2993 C2989 1.429 . S
C2993 C2994 1.523 . S
C2994 C2978 1.368 . S
C2994 C2990 1.368 . S
C2994 C2993 1.523 . S
H2995 C2970 0.950 . S
H2996 C2972 0.950 . S
H2997 C2973 0.949 . S
H2998 C2975 0.950 . S
H2999 C2977 0.950 . S
C3000 C3001 1.349 . S
C3000 C3002 1.327 . S
C3000 H3025 0.950 . S
C3001 C3000 1.349 . S
C3001 C3017 1.349 . S
C3002 C3000 1.327 . S
C3002 C3021 1.429 . S
C3002 H3026 0.950 . S
C3003 C3020 1.574 . S
C3003 C3022 1.368 . S
C3003 H3027 0.949 . S
H3004 C3008 0.949 . S
C3005 C3006 1.349 . S
C3005 C3007 1.327 . S
C3005 H3028 0.950 . S
C3006 C3005 1.349 . S
C3006 C3018 1.349 . S
C3007 C3005 1.327 . S
C3007 C3023 1.429 . S
C3007 H3029 0.950 . S
C3008 H3004 0.949 . S
C3008 C3016 1.574 . S
C3008 C3024 1.368 . S
H3009 C3017 0.950 . S
H3010 C3015 0.950 . S
H3011 C3016 0.949 . S
H3012 C3018 0.950 . S
H3013 C3019 0.950 . S
H3014 C3020 0.949 . S
C3015 H3010 0.950 . S
C3015 C3017 1.327 . S
C3015 C3021 1.429 . S
C3016 C3008 1.574 . S
C3016 H3011 0.949 . S
C3016 C3022 1.368 . S
C3017 C3001 1.349 . S
C3017 H3009 0.950 . S
C3017 C3015 1.327 . S
C3018 C3006 1.349 . S
C3018 H3012 0.950 . S
C3018 C3019 1.327 . S
C3019 H3013 0.950 . S
C3019 C3018 1.327 . S
C3019 C3023 1.429 . S
C3020 C3003 1.574 . S
C3020 H3014 0.949 . S
C3020 C3024 1.368 . S
C3021 C3002 1.429 . S
C3021 C3015 1.429 . S
C3021 C3022 1.523 . S
C3022 C3003 1.368 . S
C3022 C3016 1.368 . S
C3022 C3021 1.523 . S
C3023 C3007 1.429 . S
C3023 C3019 1.429 . S
C3023 C3024 1.523 . S
C3024 C3008 1.368 . S
C3024 C3020 1.368 . S
C3024 C3023 1.523 . S
H3025 C3000 0.950 . S
H3026 C3002 0.950 . S
H3027 C3003 0.949 . S
H3028 C3005 0.950 . S
H3029 C3007 0.950 . S
C3030 C3031 1.349 . S
C3030 C3032 1.327 . S
C3030 H3055 0.950 . S
C3031 C3030 1.349 . S
C3031 C3047 1.349 . S
C3032 C3030 1.327 . S
C3032 C3051 1.429 . S
C3032 H3056 0.950 . S
C3033 C3050 1.574 . S
C3033 C3052 1.368 . S
C3033 H3057 0.949 . S
H3034 C3038 0.949 . S
C3035 C3036 1.349 . S
C3035 C3037 1.327 . S
C3035 H3058 0.950 . S
C3036 C3035 1.349 . S
C3036 C3048 1.349 . S
C3037 C3035 1.327 . S
C3037 C3053 1.429 . S
C3037 H3059 0.950 . S
C3038 H3034 0.949 . S
C3038 C3046 1.574 . S
C3038 C3054 1.368 . S
H3039 C3047 0.950 . S
H3040 C3045 0.950 . S
H3041 C3046 0.949 . S
H3042 C3048 0.950 . S
H3043 C3049 0.950 . S
H3044 C3050 0.949 . S
C3045 H3040 0.950 . S
C3045 C3047 1.327 . S
C3045 C3051 1.429 . S
C3046 C3038 1.574 . S
C3046 H3041 0.949 . S
C3046 C3052 1.368 . S
C3047 C3031 1.349 . S
C3047 H3039 0.950 . S
C3047 C3045 1.327 . S
C3048 C3036 1.349 . S
C3048 H3042 0.950 . S
C3048 C3049 1.327 . S
C3049 H3043 0.950 . S
C3049 C3048 1.327 . S
C3049 C3053 1.429 . S
C3050 C3033 1.574 . S
C3050 H3044 0.949 . S
C3050 C3054 1.368 . S
C3051 C3032 1.429 . S
C3051 C3045 1.429 . S
C3051 C3052 1.523 . S
C3052 C3033 1.368 . S
C3052 C3046 1.368 . S
C3052 C3051 1.523 . S
C3053 C3037 1.429 . S
C3053 C3049 1.429 . S
C3053 C3054 1.523 . S
C3054 C3038 1.368 . S
C3054 C3050 1.368 . S
C3054 C3053 1.523 . S
H3055 C3030 0.950 . S
H3056 C3032 0.950 . S
H3057 C3033 0.949 . S
H3058 C3035 0.950 . S
H3059 C3037 0.950 . S
C3060 C3061 1.349 . S
C3060 C3062 1.327 . S
C3060 H3085 0.950 . S
C3061 C3060 1.349 . S
C3061 C3077 1.349 . S
C3062 C3060 1.327 . S
C3062 C3081 1.429 . S
C3062 H3086 0.950 . S
C3063 C3080 1.574 . S
C3063 C3082 1.368 . S
C3063 H3087 0.949 . S
H3064 C3068 0.949 . S
C3065 C3066 1.349 . S
C3065 C3067 1.327 . S
C3065 H3088 0.950 . S
C3066 C3065 1.349 . S
C3066 C3078 1.349 . S
C3067 C3065 1.327 . S
C3067 C3083 1.429 . S
C3067 H3089 0.950 . S
C3068 H3064 0.949 . S
C3068 C3076 1.574 . S
C3068 C3084 1.368 . S
H3069 C3077 0.950 . S
H3070 C3075 0.950 . S
H3071 C3076 0.949 . S
H3072 C3078 0.950 . S
H3073 C3079 0.950 . S
H3074 C3080 0.949 . S
C3075 H3070 0.950 . S
C3075 C3077 1.327 . S
C3075 C3081 1.429 . S
C3076 C3068 1.574 . S
C3076 H3071 0.949 . S
C3076 C3082 1.368 . S
C3077 C3061 1.349 . S
C3077 H3069 0.950 . S
C3077 C3075 1.327 . S
C3078 C3066 1.349 . S
C3078 H3072 0.950 . S
C3078 C3079 1.327 . S
C3079 H3073 0.950 . S
C3079 C3078 1.327 . S
C3079 C3083 1.429 . S
C3080 C3063 1.574 . S
C3080 H3074 0.949 . S
C3080 C3084 1.368 . S
C3081 C3062 1.429 . S
C3081 C3075 1.429 . S
C3081 C3082 1.523 . S
C3082 C3063 1.368 . S
C3082 C3076 1.368 . S
C3082 C3081 1.523 . S
C3083 C3067 1.429 . S
C3083 C3079 1.429 . S
C3083 C3084 1.523 . S
C3084 C3068 1.368 . S
C3084 C3080 1.368 . S
C3084 C3083 1.523 . S
H3085 C3060 0.950 . S
H3086 C3062 0.950 . S
H3087 C3063 0.949 . S
H3088 C3065 0.950 . S
H3089 C3067 0.950 . S
C3090 C3091 1.349 . S
C3090 C3092 1.327 . S
C3090 H3115 0.950 . S
C3091 C3090 1.349 . S
C3091 C3107 1.349 . S
C3092 C3090 1.327 . S
C3092 C3111 1.429 . S
C3092 H3116 0.950 . S
C3093 C3110 1.574 . S
C3093 C3112 1.368 . S
C3093 H3117 0.949 . S
H3094 C3098 0.949 . S
C3095 C3096 1.349 . S
C3095 C3097 1.327 . S
C3095 H3118 0.950 . S
C3096 C3095 1.349 . S
C3096 C3108 1.349 . S
C3097 C3095 1.327 . S
C3097 C3113 1.429 . S
C3097 H3119 0.950 . S
C3098 H3094 0.949 . S
C3098 C3106 1.574 . S
C3098 C3114 1.368 . S
H3099 C3107 0.950 . S
H3100 C3105 0.950 . S
H3101 C3106 0.949 . S
H3102 C3108 0.950 . S
H3103 C3109 0.950 . S
H3104 C3110 0.949 . S
C3105 H3100 0.950 . S
C3105 C3107 1.327 . S
C3105 C3111 1.429 . S
C3106 C3098 1.574 . S
C3106 H3101 0.949 . S
C3106 C3112 1.368 . S
C3107 C3091 1.349 . S
C3107 H3099 0.950 . S
C3107 C3105 1.327 . S
C3108 C3096 1.349 . S
C3108 H3102 0.950 . S
C3108 C3109 1.327 . S
C3109 H3103 0.950 . S
C3109 C3108 1.327 . S
C3109 C3113 1.429 . S
C3110 C3093 1.574 . S
C3110 H3104 0.949 . S
C3110 C3114 1.368 . S
C3111 C3092 1.429 . S
C3111 C3105 1.429 . S
C3111 C3112 1.523 . S
C3112 C3093 1.368 . S
C3112 C3106 1.368 . S
C3112 C3111 1.523 . S
C3113 C3097 1.429 . S
C3113 C3109 1.429 . S
C3113 C3114 1.523 . S
C3114 C3098 1.368 . S
C3114 C3110 1.368 . S
C3114 C3113 1.523 . S
H3115 C3090 0.950 . S
H3116 C3092 0.950 . S
H3117 C3093 0.949 . S
H3118 C3095 0.950 . S
H3119 C3097 0.950 . S
C3120 C3121 1.349 . S
C3120 C3122 1.327 . S
C3120 H3145 0.950 . S
C3121 C3120 1.349 . S
C3121 C3137 1.349 . S
C3122 C3120 1.327 . S
C3122 C3141 1.429 . S
C3122 H3146 0.950 . S
C3123 C3140 1.574 . S
C3123 C3142 1.368 . S
C3123 H3147 0.949 . S
H3124 C3128 0.949 . S
C3125 C3126 1.349 . S
C3125 C3127 1.327 . S
C3125 H3148 0.950 . S
C3126 C3125 1.349 . S
C3126 C3138 1.349 . S
C3127 C3125 1.327 . S
C3127 C3143 1.429 . S
C3127 H3149 0.950 . S
C3128 H3124 0.949 . S
C3128 C3136 1.574 . S
C3128 C3144 1.368 . S
H3129 C3137 0.950 . S
H3130 C3135 0.950 . S
H3131 C3136 0.949 . S
H3132 C3138 0.950 . S
H3133 C3139 0.950 . S
H3134 C3140 0.949 . S
C3135 H3130 0.950 . S
C3135 C3137 1.327 . S
C3135 C3141 1.429 . S
C3136 C3128 1.574 . S
C3136 H3131 0.949 . S
C3136 C3142 1.368 . S
C3137 C3121 1.349 . S
C3137 H3129 0.950 . S
C3137 C3135 1.327 . S
C3138 C3126 1.349 . S
C3138 H3132 0.950 . S
C3138 C3139 1.327 . S
C3139 H3133 0.950 . S
C3139 C3138 1.327 . S
C3139 C3143 1.429 . S
C3140 C3123 1.574 . S
C3140 H3134 0.949 . S
C3140 C3144 1.368 . S
C3141 C3122 1.429 . S
C3141 C3135 1.429 . S
C3141 C3142 1.523 . S
C3142 C3123 1.368 . S
C3142 C3136 1.368 . S
C3142 C3141 1.523 . S
C3143 C3127 1.429 . S
C3143 C3139 1.429 . S
C3143 C3144 1.523 . S
C3144 C3128 1.368 . S
C3144 C3140 1.368 . S
C3144 C3143 1.523 . S
H3145 C3120 0.950 . S
H3146 C3122 0.950 . S
H3147 C3123 0.949 . S
H3148 C3125 0.950 . S
H3149 C3127 0.950 . S
C3150 C3151 1.349 . S
C3150 C3152 1.327 . S
C3150 H3175 0.950 . S
C3151 C3150 1.349 . S
C3151 C3167 1.349 . S
C3152 C3150 1.327 . S
C3152 C3171 1.429 . S
C3152 H3176 0.950 . S
C3153 C3170 1.574 . S
C3153 C3172 1.368 . S
C3153 H3177 0.949 . S
H3154 C3158 0.949 . S
C3155 C3156 1.349 . S
C3155 C3157 1.327 . S
C3155 H3178 0.950 . S
C3156 C3155 1.349 . S
C3156 C3168 1.349 . S
C3157 C3155 1.327 . S
C3157 C3173 1.429 . S
C3157 H3179 0.950 . S
C3158 H3154 0.949 . S
C3158 C3166 1.574 . S
C3158 C3174 1.368 . S
H3159 C3167 0.950 . S
H3160 C3165 0.950 . S
H3161 C3166 0.949 . S
H3162 C3168 0.950 . S
H3163 C3169 0.950 . S
H3164 C3170 0.949 . S
C3165 H3160 0.950 . S
C3165 C3167 1.327 . S
C3165 C3171 1.429 . S
C3166 C3158 1.574 . S
C3166 H3161 0.949 . S
C3166 C3172 1.368 . S
C3167 C3151 1.349 . S
C3167 H3159 0.950 . S
C3167 C3165 1.327 . S
C3168 C3156 1.349 . S
C3168 H3162 0.950 . S
C3168 C3169 1.327 . S
C3169 H3163 0.950 . S
C3169 C3168 1.327 . S
C3169 C3173 1.429 . S
C3170 C3153 1.574 . S
C3170 H3164 0.949 . S
C3170 C3174 1.368 . S
C3171 C3152 1.429 . S
C3171 C3165 1.429 . S
C3171 C3172 1.523 . S
C3172 C3153 1.368 . S
C3172 C3166 1.368 . S
C3172 C3171 1.523 . S
C3173 C3157 1.429 . S
C3173 C3169 1.429 . S
C3173 C3174 1.523 . S
C3174 C3158 1.368 . S
C3174 C3170 1.368 . S
C3174 C3173 1.523 . S
H3175 C3150 0.950 . S
H3176 C3152 0.950 . S
H3177 C3153 0.949 . S
H3178 C3155 0.950 . S
H3179 C3157 0.950 . S
C3180 C3181 1.349 . S
C3180 C3182 1.327 . S
C3180 H3205 0.950 . S
C3181 C3180 1.349 . S
C3181 C3197 1.349 . S
C3182 C3180 1.327 . S
C3182 C3201 1.429 . S
C3182 H3206 0.950 . S
C3183 C3200 1.576 . S
C3183 C3202 1.359 1_554 S
C3183 H3207 0.956 . S
H3184 C3188 0.949 . S
C3185 C3186 1.349 . S
C3185 C3187 1.327 . S
C3185 H3208 0.950 . S
C3186 C3185 1.349 . S
C3186 C3198 1.349 1_554 S
C3187 C3185 1.327 . S
C3187 C3203 1.388 1_554 S
C3187 H3209 0.950 . S
C3188 H3184 0.949 . S
C3188 C3196 1.574 . S
C3188 C3204 1.368 . S
H3189 C3197 0.950 . S
H3190 C3195 0.946 1_554 S
H3191 C3196 0.949 . S
H3192 C3198 0.950 . S
H3193 C3199 0.950 . S
H3194 C3200 0.949 . S
C3195 H3190 0.946 1_556 S
C3195 C3197 1.327 . S
C3195 C3201 1.429 . S
C3196 C3188 1.574 . S
C3196 H3191 0.949 . S
C3196 C3202 1.368 . S
C3197 C3181 1.349 . S
C3197 H3189 0.950 . S
C3197 C3195 1.327 . S
C3198 C3186 1.349 1_556 S
C3198 H3192 0.950 . S
C3198 C3199 1.327 . S
C3199 H3193 0.950 . S
C3199 C3198 1.327 . S
C3199 C3203 1.460 . S
C3200 C3183 1.576 . S
C3200 H3194 0.949 . S
C3200 C3204 1.368 1_554 S
C3201 C3182 1.429 . S
C3201 C3195 1.429 . S
C3201 C3202 1.523 . S
C3202 C3183 1.359 1_556 S
C3202 C3196 1.368 . S
C3202 C3201 1.523 . S
C3203 C3187 1.388 1_556 S
C3203 C3199 1.460 . S
C3203 C3204 1.533 . S
C3204 C3188 1.368 . S
C3204 C3200 1.368 1_556 S
C3204 C3203 1.533 . S
H3205 C3180 0.950 . S
H3206 C3182 0.950 . S
H3207 C3183 0.956 . S
H3208 C3185 0.950 . S
H3209 C3187 0.950 . S
C3210 C3211 1.349 . S
C3210 C3212 1.327 . S
C3210 H3235 0.950 1_655 S
C3211 C3210 1.349 . S
C3211 C3227 1.349 . S
C3212 C3210 1.327 . S
C3212 C3231 1.429 . S
C3212 H3236 0.950 . S
C3213 C3230 1.574 . S
C3213 C3232 1.368 . S
C3213 H3237 0.949 . S
H3214 C3218 0.949 . S
C3215 C3216 1.349 . S
C3215 C3217 1.327 . S
C3215 H3238 0.950 . S
C3216 C3215 1.349 . S
C3216 C3228 1.349 . S
C3217 C3215 1.327 . S
C3217 C3233 1.429 . S
C3217 H3239 0.950 . S
C3218 H3214 0.949 . S
C3218 C3226 1.574 . S
C3218 C3234 1.368 . S
H3219 C3227 0.950 . S
H3220 C3225 0.950 . S
H3221 C3226 0.949 . S
H3222 C3228 0.950 . S
H3223 C3229 0.950 . S
H3224 C3230 0.949 . S
C3225 H3220 0.950 . S
C3225 C3227 1.327 . S
C3225 C3231 1.429 . S
C3226 C3218 1.574 . S
C3226 H3221 0.949 . S
C3226 C3232 1.368 . S
C3227 C3211 1.349 . S
C3227 H3219 0.950 . S
C3227 C3225 1.327 . S
C3228 C3216 1.349 . S
C3228 H3222 0.950 . S
C3228 C3229 1.327 . S
C3229 H3223 0.950 . S
C3229 C3228 1.327 . S
C3229 C3233 1.429 . S
C3230 C3213 1.574 . S
C3230 H3224 0.949 . S
C3230 C3234 1.368 . S
C3231 C3212 1.429 . S
C3231 C3225 1.429 . S
C3231 C3232 1.523 . S
C3232 C3213 1.368 . S
C3232 C3226 1.368 . S
C3232 C3231 1.523 . S
C3233 C3217 1.429 . S
C3233 C3229 1.429 . S
C3233 C3234 1.523 . S
C3234 C3218 1.368 . S
C3234 C3230 1.368 . S
C3234 C3233 1.523 . S
H3235 C3210 0.950 1_455 S
H3236 C3212 0.950 . S
H3237 C3213 0.949 . S
H3238 C3215 0.950 . S
H3239 C3217 0.950 . S
C3240 C3241 1.349 . S
C3240 C3242 1.327 . S
C3240 H3265 0.950 . S
C3241 C3240 1.349 . S
C3241 C3257 1.349 . S
C3242 C3240 1.327 . S
C3242 C3261 1.429 . S
C3242 H3266 0.950 . S
C3243 C3260 1.574 . S
C3243 C3262 1.368 . S
C3243 H3267 0.949 . S
H3244 C3248 0.949 . S
C3245 C3246 1.349 . S
C3245 C3247 1.327 . S
C3245 H3268 0.950 . S
C3246 C3245 1.349 . S
C3246 C3258 1.349 . S
C3247 C3245 1.327 . S
C3247 C3263 1.429 . S
C3247 H3269 0.950 . S
C3248 H3244 0.949 . S
C3248 C3256 1.574 . S
C3248 C3264 1.368 . S
H3249 C3257 0.950 . S
H3250 C3255 0.950 . S
H3251 C3256 0.949 . S
H3252 C3258 0.950 . S
H3253 C3259 0.950 . S
H3254 C3260 0.949 . S
C3255 H3250 0.950 . S
C3255 C3257 1.327 . S
C3255 C3261 1.429 . S
C3256 C3248 1.574 . S
C3256 H3251 0.949 . S
C3256 C3262 1.368 . S
C3257 C3241 1.349 . S
C3257 H3249 0.950 . S
C3257 C3255 1.327 . S
C3258 C3246 1.349 . S
C3258 H3252 0.950 . S
C3258 C3259 1.327 . S
C3259 H3253 0.950 . S
C3259 C3258 1.327 . S
C3259 C3263 1.429 . S
C3260 C3243 1.574 . S
C3260 H3254 0.949 . S
C3260 C3264 1.368 . S
C3261 C3242 1.429 . S
C3261 C3255 1.429 . S
C3261 C3262 1.523 . S
C3262 C3243 1.368 . S
C3262 C3256 1.368 . S
C3262 C3261 1.523 . S
C3263 C3247 1.429 . S
C3263 C3259 1.429 . S
C3263 C3264 1.523 . S
C3264 C3248 1.368 . S
C3264 C3260 1.368 . S
C3264 C3263 1.523 . S
H3265 C3240 0.950 . S
H3266 C3242 0.950 . S
H3267 C3243 0.949 . S
H3268 C3245 0.950 . S
H3269 C3247 0.950 . S
C3270 C3271 1.349 . S
C3270 C3272 1.327 . S
C3270 H3295 0.950 . S
C3271 C3270 1.349 . S
C3271 C3287 1.349 . S
C3272 C3270 1.327 . S
C3272 C3291 1.429 . S
C3272 H3296 0.950 . S
C3273 C3290 1.574 . S
C3273 C3292 1.368 . S
C3273 H3297 0.949 . S
H3274 C3278 0.949 . S
C3275 C3276 1.349 . S
C3275 C3277 1.327 . S
C3275 H3298 0.950 . S
C3276 C3275 1.349 . S
C3276 C3288 1.349 . S
C3277 C3275 1.327 . S
C3277 C3293 1.429 . S
C3277 H3299 0.950 . S
C3278 H3274 0.949 . S
C3278 C3286 1.574 . S
C3278 C3294 1.368 . S
H3279 C3287 0.950 . S
H3280 C3285 0.950 . S
H3281 C3286 0.949 . S
H3282 C3288 0.950 . S
H3283 C3289 0.950 . S
H3284 C3290 0.949 . S
C3285 H3280 0.950 . S
C3285 C3287 1.327 . S
C3285 C3291 1.429 . S
C3286 C3278 1.574 . S
C3286 H3281 0.949 . S
C3286 C3292 1.368 . S
C3287 C3271 1.349 . S
C3287 H3279 0.950 . S
C3287 C3285 1.327 . S
C3288 C3276 1.349 . S
C3288 H3282 0.950 . S
C3288 C3289 1.327 . S
C3289 H3283 0.950 . S
C3289 C3288 1.327 . S
C3289 C3293 1.429 . S
C3290 C3273 1.574 . S
C3290 H3284 0.949 . S
C3290 C3294 1.368 . S
C3291 C3272 1.429 . S
C3291 C3285 1.429 . S
C3291 C3292 1.523 . S
C3292 C3273 1.368 . S
C3292 C3286 1.368 . S
C3292 C3291 1.523 . S
C3293 C3277 1.429 . S
C3293 C3289 1.429 . S
C3293 C3294 1.523 . S
C3294 C3278 1.368 . S
C3294 C3290 1.368 . S
C3294 C3293 1.523 . S
H3295 C3270 0.950 . S
H3296 C3272 0.950 . S
H3297 C3273 0.949 . S
H3298 C3275 0.950 . S
H3299 C3277 0.950 . S
C3300 C3301 1.349 . S
C3300 C3302 1.327 . S
C3300 H3325 0.950 . S
C3301 C3300 1.349 . S
C3301 C3317 1.349 . S
C3302 C3300 1.327 . S
C3302 C3321 1.429 . S
C3302 H3326 0.950 . S
C3303 C3320 1.574 . S
C3303 C3322 1.368 . S
C3303 H3327 0.949 . S
H3304 C3308 0.949 . S
C3305 C3306 1.349 . S
C3305 C3307 1.327 . S
C3305 H3328 0.950 . S
C3306 C3305 1.349 . S
C3306 C3318 1.349 . S
C3307 C3305 1.327 . S
C3307 C3323 1.429 . S
C3307 H3329 0.950 . S
C3308 H3304 0.949 . S
C3308 C3316 1.574 . S
C3308 C3324 1.368 . S
H3309 C3317 0.950 . S
H3310 C3315 0.950 . S
H3311 C3316 0.949 . S
H3312 C3318 0.950 . S
H3313 C3319 0.950 . S
H3314 C3320 0.949 . S
C3315 H3310 0.950 . S
C3315 C3317 1.327 . S
C3315 C3321 1.429 . S
C3316 C3308 1.574 . S
C3316 H3311 0.949 . S
C3316 C3322 1.368 . S
C3317 C3301 1.349 . S
C3317 H3309 0.950 . S
C3317 C3315 1.327 . S
C3318 C3306 1.349 . S
C3318 H3312 0.950 . S
C3318 C3319 1.327 . S
C3319 H3313 0.950 . S
C3319 C3318 1.327 . S
C3319 C3323 1.429 . S
C3320 C3303 1.574 . S
C3320 H3314 0.949 . S
C3320 C3324 1.368 . S
C3321 C3302 1.429 . S
C3321 C3315 1.429 . S
C3321 C3322 1.523 . S
C3322 C3303 1.368 . S
C3322 C3316 1.368 . S
C3322 C3321 1.523 . S
C3323 C3307 1.429 . S
C3323 C3319 1.429 . S
C3323 C3324 1.523 . S
C3324 C3308 1.368 . S
C3324 C3320 1.368 . S
C3324 C3323 1.523 . S
H3325 C3300 0.950 . S
H3326 C3302 0.950 . S
H3327 C3303 0.949 . S
H3328 C3305 0.950 . S
H3329 C3307 0.950 . S
C3330 C3331 1.349 . S
C3330 C3332 1.327 . S
C3330 H3355 0.950 . S
C3331 C3330 1.349 . S
C3331 C3347 1.349 . S
C3332 C3330 1.327 . S
C3332 C3351 1.429 . S
C3332 H3356 0.950 . S
C3333 C3350 1.574 . S
C3333 C3352 1.368 . S
C3333 H3357 0.949 . S
H3334 C3338 0.949 . S
C3335 C3336 1.349 . S
C3335 C3337 1.327 . S
C3335 H3358 0.950 . S
C3336 C3335 1.349 . S
C3336 C3348 1.349 . S
C3337 C3335 1.327 . S
C3337 C3353 1.429 . S
C3337 H3359 0.950 . S
C3338 H3334 0.949 . S
C3338 C3346 1.574 . S
C3338 C3354 1.368 . S
H3339 C3347 0.950 . S
H3340 C3345 0.950 . S
H3341 C3346 0.949 . S
H3342 C3348 0.950 . S
H3343 C3349 0.950 . S
H3344 C3350 0.949 . S
C3345 H3340 0.950 . S
C3345 C3347 1.327 . S
C3345 C3351 1.429 . S
C3346 C3338 1.574 . S
C3346 H3341 0.949 . S
C3346 C3352 1.368 . S
C3347 C3331 1.349 . S
C3347 H3339 0.950 . S
C3347 C3345 1.327 . S
C3348 C3336 1.349 . S
C3348 H3342 0.950 . S
C3348 C3349 1.327 . S
C3349 H3343 0.950 . S
C3349 C3348 1.327 . S
C3349 C3353 1.429 . S
C3350 C3333 1.574 . S
C3350 H3344 0.949 . S
C3350 C3354 1.368 . S
C3351 C3332 1.429 . S
C3351 C3345 1.429 . S
C3351 C3352 1.523 . S
C3352 C3333 1.368 . S
C3352 C3346 1.368 . S
C3352 C3351 1.523 . S
C3353 C3337 1.429 . S
C3353 C3349 1.429 . S
C3353 C3354 1.523 . S
C3354 C3338 1.368 . S
C3354 C3350 1.368 . S
C3354 C3353 1.523 . S
H3355 C3330 0.950 . S
H3356 C3332 0.950 . S
H3357 C3333 0.949 . S
H3358 C3335 0.950 . S
H3359 C3337 0.950 . S
C3360 C3361 1.349 . S
C3360 C3362 1.327 . S
C3360 H3385 0.950 . S
C3361 C3360 1.349 . S
C3361 C3377 1.349 . S
C3362 C3360 1.327 . S
C3362 C3381 1.429 . S
C3362 H3386 0.950 . S
C3363 C3380 1.574 . S
C3363 C3382 1.368 . S
C3363 H3387 0.949 . S
H3364 C3368 0.949 . S
C3365 C3366 1.349 . S
C3365 C3367 1.327 . S
C3365 H3388 0.950 . S
C3366 C3365 1.349 . S
C3366 C3378 1.349 . S
C3367 C3365 1.327 . S
C3367 C3383 1.429 . S
C3367 H3389 0.950 . S
C3368 H3364 0.949 . S
C3368 C3376 1.574 . S
C3368 C3384 1.368 . S
H3369 C3377 0.950 . S
H3370 C3375 0.950 . S
H3371 C3376 0.949 . S
H3372 C3378 0.950 . S
H3373 C3379 0.950 . S
H3374 C3380 0.949 . S
C3375 H3370 0.950 . S
C3375 C3377 1.327 . S
C3375 C3381 1.429 . S
C3376 C3368 1.574 . S
C3376 H3371 0.949 . S
C3376 C3382 1.368 . S
C3377 C3361 1.349 . S
C3377 H3369 0.950 . S
C3377 C3375 1.327 . S
C3378 C3366 1.349 . S
C3378 H3372 0.950 . S
C3378 C3379 1.327 . S
C3379 H3373 0.950 . S
C3379 C3378 1.327 . S
C3379 C3383 1.429 . S
C3380 C3363 1.574 . S
C3380 H3374 0.949 . S
C3380 C3384 1.368 . S
C3381 C3362 1.429 . S
C3381 C3375 1.429 . S
C3381 C3382 1.523 . S
C3382 C3363 1.368 . S
C3382 C3376 1.368 . S
C3382 C3381 1.523 . S
C3383 C3367 1.429 . S
C3383 C3379 1.429 . S
C3383 C3384 1.523 . S
C3384 C3368 1.368 . S
C3384 C3380 1.368 . S
C3384 C3383 1.523 . S
H3385 C3360 0.950 . S
H3386 C3362 0.950 . S
H3387 C3363 0.949 . S
H3388 C3365 0.950 . S
H3389 C3367 0.950 . S
C3390 C3391 1.349 1_556 S
C3390 C3392 1.327 . S
C3390 H3415 0.950 . S
C3391 C3390 1.349 1_554 S
C3391 C3407 1.356 . S
C3392 C3390 1.327 . S
C3392 C3411 1.429 . S
C3392 H3416 0.950 . S
C3393 C3410 1.574 . S
C3393 C3412 1.368 . S
C3393 H3417 0.949 . S
H3394 C3398 0.949 . S
C3395 C3396 1.349 . S
C3395 C3397 1.327 . S
C3395 H3418 0.950 . S
C3396 C3395 1.349 . S
C3396 C3408 1.349 . S
C3397 C3395 1.327 . S
C3397 C3413 1.429 . S
C3397 H3419 0.950 . S
C3398 H3394 0.949 . S
C3398 C3406 1.574 . S
C3398 C3414 1.368 . S
H3399 C3407 0.959 . S
H3400 C3405 0.950 . S
H3401 C3406 0.949 . S
H3402 C3408 0.950 . S
H3403 C3409 0.950 . S
H3404 C3410 0.949 . S
C3405 H3400 0.950 . S
C3405 C3407 1.312 1_556 S
C3405 C3411 1.429 . S
C3406 C3398 1.574 . S
C3406 H3401 0.949 . S
C3406 C3412 1.368 . S
C3407 C3391 1.356 . S
C3407 H3399 0.959 . S
C3407 C3405 1.312 1_554 S
C3408 C3396 1.349 . S
C3408 H3402 0.950 . S
C3408 C3409 1.327 . S
C3409 H3403 0.950 . S
C3409 C3408 1.327 . S
C3409 C3413 1.429 . S
C3410 C3393 1.574 . S
C3410 H3404 0.949 . S
C3410 C3414 1.368 . S
C3411 C3392 1.429 . S
C3411 C3405 1.429 . S
C3411 C3412 1.523 . S
C3412 C3393 1.368 . S
C3412 C3406 1.368 . S
C3412 C3411 1.523 . S
C3413 C3397 1.429 . S
C3413 C3409 1.429 . S
C3413 C3414 1.523 . S
C3414 C3398 1.368 . S
C3414 C3410 1.368 . S
C3414 C3413 1.523 . S
H3415 C3390 0.950 . S
H3416 C3392 0.950 . S
H3417 C3393 0.949 . S
H3418 C3395 0.950 . S
H3419 C3397 0.950 . S
C3420 C3421 1.349 . S
C3420 C3422 1.327 . S
C3420 H3445 0.950 . S
C3421 C3420 1.349 . S
C3421 C3437 1.349 . S
C3422 C3420 1.327 . S
C3422 C3441 1.429 . S
C3422 H3446 0.950 . S
C3423 C3440 1.574 . S
C3423 C3442 1.368 . S
C3423 H3447 0.949 . S
H3424 C3428 0.949 . S
C3425 C3426 1.349 . S
C3425 C3427 1.327 . S
C3425 H3448 0.950 . S
C3426 C3425 1.349 . S
C3426 C3438 1.349 . S
C3427 C3425 1.327 . S
C3427 C3443 1.429 . S
C3427 H3449 0.950 . S
C3428 H3424 0.949 . S
C3428 C3436 1.574 . S
C3428 C3444 1.368 . S
H3429 C3437 0.950 . S
H3430 C3435 0.950 . S
H3431 C3436 0.949 . S
H3432 C3438 0.950 . S
H3433 C3439 0.950 . S
H3434 C3440 0.949 . S
C3435 H3430 0.950 . S
C3435 C3437 1.327 . S
C3435 C3441 1.429 . S
C3436 C3428 1.574 . S
C3436 H3431 0.949 . S
C3436 C3442 1.368 . S
C3437 C3421 1.349 . S
C3437 H3429 0.950 . S
C3437 C3435 1.327 . S
C3438 C3426 1.349 . S
C3438 H3432 0.950 . S
C3438 C3439 1.327 . S
C3439 H3433 0.950 . S
C3439 C3438 1.327 . S
C3439 C3443 1.429 . S
C3440 C3423 1.574 . S
C3440 H3434 0.949 . S
C3440 C3444 1.368 . S
C3441 C3422 1.429 . S
C3441 C3435 1.429 . S
C3441 C3442 1.523 . S
C3442 C3423 1.368 . S
C3442 C3436 1.368 . S
C3442 C3441 1.523 . S
C3443 C3427 1.429 . S
C3443 C3439 1.429 . S
C3443 C3444 1.523 . S
C3444 C3428 1.368 . S
C3444 C3440 1.368 . S
C3444 C3443 1.523 . S
H3445 C3420 0.950 . S
H3446 C3422 0.950 . S
H3447 C3423 0.949 . S
H3448 C3425 0.950 . S
H3449 C3427 0.950 . S
C3450 C3451 1.349 . S
C3450 C3452 1.327 . S
C3450 H3475 0.950 . S
C3451 C3450 1.349 . S
C3451 C3467 1.349 . S
C3452 C3450 1.327 . S
C3452 C3471 1.429 . S
C3452 H3476 0.950 . S
C3453 C3470 1.574 . S
C3453 C3472 1.368 . S
C3453 H3477 0.949 . S
H3454 C3458 0.949 . S
C3455 C3456 1.349 . S
C3455 C3457 1.327 . S
C3455 H3478 0.950 . S
C3456 C3455 1.349 . S
C3456 C3468 1.349 . S
C3457 C3455 1.327 . S
C3457 C3473 1.429 . S
C3457 H3479 0.950 . S
C3458 H3454 0.949 . S
C3458 C3466 1.574 . S
C3458 C3474 1.368 . S
H3459 C3467 0.950 . S
H3460 C3465 0.950 . S
H3461 C3466 0.949 . S
H3462 C3468 0.950 . S
H3463 C3469 0.950 . S
H3464 C3470 0.949 . S
C3465 H3460 0.950 . S
C3465 C3467 1.327 . S
C3465 C3471 1.429 . S
C3466 C3458 1.574 . S
C3466 H3461 0.949 . S
C3466 C3472 1.368 . S
C3467 C3451 1.349 . S
C3467 H3459 0.950 . S
C3467 C3465 1.327 . S
C3468 C3456 1.349 . S
C3468 H3462 0.950 . S
C3468 C3469 1.327 . S
C3469 H3463 0.950 . S
C3469 C3468 1.327 . S
C3469 C3473 1.429 . S
C3470 C3453 1.574 . S
C3470 H3464 0.949 . S
C3470 C3474 1.368 . S
C3471 C3452 1.429 . S
C3471 C3465 1.429 . S
C3471 C3472 1.523 . S
C3472 C3453 1.368 . S
C3472 C3466 1.368 . S
C3472 C3471 1.523 . S
C3473 C3457 1.429 . S
C3473 C3469 1.429 . S
C3473 C3474 1.523 . S
C3474 C3458 1.368 . S
C3474 C3470 1.368 . S
C3474 C3473 1.523 . S
H3475 C3450 0.950 . S
H3476 C3452 0.950 . S
H3477 C3453 0.949 . S
H3478 C3455 0.950 . S
H3479 C3457 0.950 . S
C3480 C3481 1.349 . S
C3480 C3482 1.327 . S
C3480 H3505 0.950 . S
C3481 C3480 1.349 . S
C3481 C3497 1.349 . S
C3482 C3480 1.327 . S
C3482 C3501 1.429 . S
C3482 H3506 0.950 . S
C3483 C3500 1.574 . S
C3483 C3502 1.368 . S
C3483 H3507 0.949 . S
H3484 C3488 0.949 . S
C3485 C3486 1.349 . S
C3485 C3487 1.327 . S
C3485 H3508 0.950 . S
C3486 C3485 1.349 . S
C3486 C3498 1.349 . S
C3487 C3485 1.327 . S
C3487 C3503 1.429 . S
C3487 H3509 0.950 . S
C3488 H3484 0.949 . S
C3488 C3496 1.574 . S
C3488 C3504 1.368 . S
H3489 C3497 0.950 . S
H3490 C3495 0.950 . S
H3491 C3496 0.949 . S
H3492 C3498 0.950 . S
H3493 C3499 0.950 . S
H3494 C3500 0.949 . S
C3495 H3490 0.950 . S
C3495 C3497 1.327 . S
C3495 C3501 1.429 . S
C3496 C3488 1.574 . S
C3496 H3491 0.949 . S
C3496 C3502 1.368 . S
C3497 C3481 1.349 . S
C3497 H3489 0.950 . S
C3497 C3495 1.327 . S
C3498 C3486 1.349 . S
C3498 H3492 0.950 . S
C3498 C3499 1.327 . S
C3499 H3493 0.950 . S
C3499 C3498 1.327 . S
C3499 C3503 1.429 . S
C3500 C3483 1.574 . S
C3500 H3494 0.949 . S
C3500 C3504 1.368 . S
C3501 C3482 1.429 . S
C3501 C3495 1.429 . S
C3501 C3502 1.523 . S
C3502 C3483 1.368 . S
C3502 C3496 1.368 . S
C3502 C3501 1.523 . S
C3503 C3487 1.429 . S
C3503 C3499 1.429 . S
C3503 C3504 1.523 . S
C3504 C3488 1.368 . S
C3504 C3500 1.368 . S
C3504 C3503 1.523 . S
H3505 C3480 0.950 . S
H3506 C3482 0.950 . S
H3507 C3483 0.949 . S
H3508 C3485 0.950 . S
H3509 C3487 0.950 . S
C3510 C3511 1.349 . S
C3510 C3512 1.327 . S
C3510 H3535 0.950 . S
C3511 C3510 1.349 . S
C3511 C3527 1.349 . S
C3512 C3510 1.327 . S
C3512 C3531 1.429 . S
C3512 H3536 0.950 . S
C3513 C3530 1.574 . S
C3513 C3532 1.368 . S
C3513 H3537 0.949 . S
H3514 C3518 0.949 . S
C3515 C3516 1.349 . S
C3515 C3517 1.327 . S
C3515 H3538 0.950 . S
C3516 C3515 1.349 . S
C3516 C3528 1.349 . S
C3517 C3515 1.327 . S
C3517 C3533 1.429 . S
C3517 H3539 0.950 . S
C3518 H3514 0.949 . S
C3518 C3526 1.574 . S
C3518 C3534 1.368 . S
H3519 C3527 0.950 . S
H3520 C3525 0.950 . S
H3521 C3526 0.949 . S
H3522 C3528 0.950 . S
H3523 C3529 0.950 . S
H3524 C3530 0.949 . S
C3525 H3520 0.950 . S
C3525 C3527 1.327 . S
C3525 C3531 1.429 . S
C3526 C3518 1.574 . S
C3526 H3521 0.949 . S
C3526 C3532 1.368 . S
C3527 C3511 1.349 . S
C3527 H3519 0.950 . S
C3527 C3525 1.327 . S
C3528 C3516 1.349 . S
C3528 H3522 0.950 . S
C3528 C3529 1.327 . S
C3529 H3523 0.950 . S
C3529 C3528 1.327 . S
C3529 C3533 1.429 . S
C3530 C3513 1.574 . S
C3530 H3524 0.949 . S
C3530 C3534 1.368 . S
C3531 C3512 1.429 . S
C3531 C3525 1.429 . S
C3531 C3532 1.523 . S
C3532 C3513 1.368 . S
C3532 C3526 1.368 . S
C3532 C3531 1.523 . S
C3533 C3517 1.429 . S
C3533 C3529 1.429 . S
C3533 C3534 1.523 . S
C3534 C3518 1.368 . S
C3534 C3530 1.368 . S
C3534 C3533 1.523 . S
H3535 C3510 0.950 . S
H3536 C3512 0.950 . S
H3537 C3513 0.949 . S
H3538 C3515 0.950 . S
H3539 C3517 0.950 . S
C3540 C3541 1.349 . S
C3540 C3542 1.327 . S
C3540 H3565 0.950 . S
C3541 C3540 1.349 . S
C3541 C3557 1.349 . S
C3542 C3540 1.327 . S
C3542 C3561 1.429 . S
C3542 H3566 0.950 . S
C3543 C3560 1.574 . S
C3543 C3562 1.368 . S
C3543 H3567 0.949 . S
H3544 C3548 0.949 . S
C3545 C3546 1.349 . S
C3545 C3547 1.327 . S
C3545 H3568 0.950 . S
C3546 C3545 1.349 . S
C3546 C3558 1.349 . S
C3547 C3545 1.327 . S
C3547 C3563 1.429 . S
C3547 H3569 0.950 . S
C3548 H3544 0.949 . S
C3548 C3556 1.574 . S
C3548 C3564 1.368 . S
H3549 C3557 0.950 . S
H3550 C3555 0.950 . S
H3551 C3556 0.949 . S
H3552 C3558 0.950 . S
H3553 C3559 0.950 . S
H3554 C3560 0.949 . S
C3555 H3550 0.950 . S
C3555 C3557 1.327 . S
C3555 C3561 1.429 . S
C3556 C3548 1.574 . S
C3556 H3551 0.949 . S
C3556 C3562 1.368 . S
C3557 C3541 1.349 . S
C3557 H3549 0.950 . S
C3557 C3555 1.327 . S
C3558 C3546 1.349 . S
C3558 H3552 0.950 . S
C3558 C3559 1.327 . S
C3559 H3553 0.950 . S
C3559 C3558 1.327 . S
C3559 C3563 1.429 . S
C3560 C3543 1.574 . S
C3560 H3554 0.949 . S
C3560 C3564 1.368 . S
C3561 C3542 1.429 . S
C3561 C3555 1.429 . S
C3561 C3562 1.523 . S
C3562 C3543 1.368 . S
C3562 C3556 1.368 . S
C3562 C3561 1.523 . S
C3563 C3547 1.429 . S
C3563 C3559 1.429 . S
C3563 C3564 1.523 . S
C3564 C3548 1.368 . S
C3564 C3560 1.368 . S
C3564 C3563 1.523 . S
H3565 C3540 0.950 . S
H3566 C3542 0.950 . S
H3567 C3543 0.949 . S
H3568 C3545 0.950 . S
H3569 C3547 0.950 . S
C3570 C3571 1.349 . S
C3570 C3572 1.327 . S
C3570 H3595 0.950 . S
C3571 C3570 1.349 . S
C3571 C3587 1.349 . S
C3572 C3570 1.327 . S
C3572 C3591 1.429 . S
C3572 H3596 0.950 . S
C3573 C3590 1.574 . S
C3573 C3592 1.368 . S
C3573 H3597 0.949 . S
H3574 C3578 0.949 . S
C3575 C3576 1.349 . S
C3575 C3577 1.327 . S
C3575 H3598 0.950 . S
C3576 C3575 1.349 . S
C3576 C3588 1.349 . S
C3577 C3575 1.327 . S
C3577 C3593 1.429 . S
C3577 H3599 0.950 . S
C3578 H3574 0.949 . S
C3578 C3586 1.574 . S
C3578 C3594 1.368 . S
H3579 C3587 0.950 . S
H3580 C3585 0.950 . S
H3581 C3586 0.949 . S
H3582 C3588 0.950 . S
H3583 C3589 0.950 . S
H3584 C3590 0.949 . S
C3585 H3580 0.950 . S
C3585 C3587 1.327 . S
C3585 C3591 1.429 . S
C3586 C3578 1.574 . S
C3586 H3581 0.949 . S
C3586 C3592 1.368 . S
C3587 C3571 1.349 . S
C3587 H3579 0.950 . S
C3587 C3585 1.327 . S
C3588 C3576 1.349 . S
C3588 H3582 0.950 . S
C3588 C3589 1.327 . S
C3589 H3583 0.950 . S
C3589 C3588 1.327 . S
C3589 C3593 1.429 . S
C3590 C3573 1.574 . S
C3590 H3584 0.949 . S
C3590 C3594 1.368 . S
C3591 C3572 1.429 . S
C3591 C3585 1.429 . S
C3591 C3592 1.523 . S
C3592 C3573 1.368 . S
C3592 C3586 1.368 . S
C3592 C3591 1.523 . S
C3593 C3577 1.429 . S
C3593 C3589 1.429 . S
C3593 C3594 1.523 . S
C3594 C3578 1.368 . S
C3594 C3590 1.368 . S
C3594 C3593 1.523 . S
H3595 C3570 0.950 . S
H3596 C3572 0.950 . S
H3597 C3573 0.949 . S
H3598 C3575 0.950 . S
H3599 C3577 0.950 . S
C3600 C3601 1.349 . S
C3600 C3602 1.327 . S
C3600 H3625 0.950 . S
C3601 C3600 1.349 . S
C3601 C3617 1.349 . S
C3602 C3600 1.327 . S
C3602 C3621 1.429 . S
C3602 H3626 0.950 . S
C3603 C3620 1.574 . S
C3603 C3622 1.368 . S
C3603 H3627 0.949 . S
H3604 C3608 0.949 . S
C3605 C3606 1.349 . S
C3605 C3607 1.327 . S
C3605 H3628 0.950 . S
C3606 C3605 1.349 . S
C3606 C3618 1.349 . S
C3607 C3605 1.327 . S
C3607 C3623 1.429 . S
C3607 H3629 0.950 . S
C3608 H3604 0.949 . S
C3608 C3616 1.574 . S
C3608 C3624 1.368 . S
H3609 C3617 0.950 . S
H3610 C3615 0.950 . S
H3611 C3616 0.949 . S
H3612 C3618 0.950 . S
H3613 C3619 0.950 . S
H3614 C3620 0.949 . S
C3615 H3610 0.950 . S
C3615 C3617 1.327 . S
C3615 C3621 1.429 . S
C3616 C3608 1.574 . S
C3616 H3611 0.949 . S
C3616 C3622 1.368 . S
C3617 C3601 1.349 . S
C3617 H3609 0.950 . S
C3617 C3615 1.327 . S
C3618 C3606 1.349 . S
C3618 H3612 0.950 . S
C3618 C3619 1.327 . S
C3619 H3613 0.950 . S
C3619 C3618 1.327 . S
C3619 C3623 1.429 . S
C3620 C3603 1.574 . S
C3620 H3614 0.949 . S
C3620 C3624 1.368 . S
C3621 C3602 1.429 . S
C3621 C3615 1.429 . S
C3621 C3622 1.523 . S
C3622 C3603 1.368 . S
C3622 C3616 1.368 . S
C3622 C3621 1.523 . S
C3623 C3607 1.429 . S
C3623 C3619 1.429 . S
C3623 C3624 1.523 . S
C3624 C3608 1.368 . S
C3624 C3620 1.368 . S
C3624 C3623 1.523 . S
H3625 C3600 0.950 . S
H3626 C3602 0.950 . S
H3627 C3603 0.949 . S
H3628 C3605 0.950 . S
H3629 C3607 0.950 . S
C3630 C3631 1.349 . S
C3630 C3632 1.327 . S
C3630 H3655 0.950 . S
C3631 C3630 1.349 . S
C3631 C3647 1.349 . S
C3632 C3630 1.327 . S
C3632 C3651 1.429 . S
C3632 H3656 0.950 . S
C3633 C3650 1.574 . S
C3633 C3652 1.368 . S
C3633 H3657 0.949 . S
H3634 C3638 0.949 . S
C3635 C3636 1.349 . S
C3635 C3637 1.327 . S
C3635 H3658 0.950 . S
C3636 C3635 1.349 . S
C3636 C3648 1.349 . S
C3637 C3635 1.327 . S
C3637 C3653 1.429 . S
C3637 H3659 0.950 . S
C3638 H3634 0.949 . S
C3638 C3646 1.574 . S
C3638 C3654 1.368 . S
H3639 C3647 0.950 . S
H3640 C3645 0.950 . S
H3641 C3646 0.949 . S
H3642 C3648 0.950 . S
H3643 C3649 0.950 . S
H3644 C3650 0.949 . S
C3645 H3640 0.950 . S
C3645 C3647 1.327 . S
C3645 C3651 1.429 . S
C3646 C3638 1.574 . S
C3646 H3641 0.949 . S
C3646 C3652 1.368 . S
C3647 C3631 1.349 . S
C3647 H3639 0.950 . S
C3647 C3645 1.327 . S
C3648 C3636 1.349 . S
C3648 H3642 0.950 . S
C3648 C3649 1.327 . S
C3649 H3643 0.950 . S
C3649 C3648 1.327 . S
C3649 C3653 1.429 . S
C3650 C3633 1.574 . S
C3650 H3644 0.949 . S
C3650 C3654 1.368 . S
C3651 C3632 1.429 . S
C3651 C3645 1.429 . S
C3651 C3652 1.523 . S
C3652 C3633 1.368 . S
C3652 C3646 1.368 . S
C3652 C3651 1.523 . S
C3653 C3637 1.429 . S
C3653 C3649 1.429 . S
C3653 C3654 1.523 . S
C3654 C3638 1.368 . S
C3654 C3650 1.368 . S
C3654 C3653 1.523 . S
H3655 C3630 0.950 . S
H3656 C3632 0.950 . S
H3657 C3633 0.949 . S
H3658 C3635 0.950 . S
H3659 C3637 0.950 . S
C3660 C3661 1.349 . S
C3660 C3662 1.327 . S
C3660 H3685 0.950 . S
C3661 C3660 1.349 . S
C3661 C3677 1.349 . S
C3662 C3660 1.327 . S
C3662 C3681 1.429 . S
C3662 H3686 0.950 . S
C3663 C3680 1.574 . S
C3663 C3682 1.368 . S
C3663 H3687 0.949 . S
H3664 C3668 0.949 . S
C3665 C3666 1.349 . S
C3665 C3667 1.327 . S
C3665 H3688 0.950 . S
C3666 C3665 1.349 . S
C3666 C3678 1.349 . S
C3667 C3665 1.327 . S
C3667 C3683 1.429 . S
C3667 H3689 0.950 . S
C3668 H3664 0.949 . S
C3668 C3676 1.574 . S
C3668 C3684 1.368 . S
H3669 C3677 0.950 . S
H3670 C3675 0.950 . S
H3671 C3676 0.949 . S
H3672 C3678 0.950 . S
H3673 C3679 0.950 . S
H3674 C3680 0.949 . S
C3675 H3670 0.950 . S
C3675 C3677 1.327 . S
C3675 C3681 1.429 . S
C3676 C3668 1.574 . S
C3676 H3671 0.949 . S
C3676 C3682 1.368 . S
C3677 C3661 1.349 . S
C3677 H3669 0.950 . S
C3677 C3675 1.327 . S
C3678 C3666 1.349 . S
C3678 H3672 0.950 . S
C3678 C3679 1.327 . S
C3679 H3673 0.950 . S
C3679 C3678 1.327 . S
C3679 C3683 1.429 . S
C3680 C3663 1.574 . S
C3680 H3674 0.949 . S
C3680 C3684 1.368 . S
C3681 C3662 1.429 . S
C3681 C3675 1.429 . S
C3681 C3682 1.523 . S
C3682 C3663 1.368 . S
C3682 C3676 1.368 . S
C3682 C3681 1.523 . S
C3683 C3667 1.429 . S
C3683 C3679 1.429 . S
C3683 C3684 1.523 . S
C3684 C3668 1.368 . S
C3684 C3680 1.368 . S
C3684 C3683 1.523 . S
H3685 C3660 0.950 . S
H3686 C3662 0.950 . S
H3687 C3663 0.949 . S
H3688 C3665 0.950 . S
H3689 C3667 0.950 . S
C3690 C3691 1.349 1_556 S
C3690 C3692 1.327 . S
C3690 H3715 0.950 . S
C3691 C3690 1.349 1_554 S
C3691 C3707 1.349 . S
C3692 C3690 1.327 . S
C3692 C3711 1.429 1_556 S
C3692 H3716 0.950 . S
C3693 C3710 1.574 . S
C3693 C3712 1.368 . S
C3693 H3717 0.949 . S
H3694 C3698 0.949 . S
C3695 C3696 1.349 . S
C3695 C3697 1.327 . S
C3695 H3718 0.950 . S
C3696 C3695 1.349 . S
C3696 C3708 1.390 1_545 S
C3697 C3695 1.327 . S
C3697 C3713 1.429 1_545 S
C3697 H3719 0.950 . S
C3698 H3694 0.949 . S
C3698 C3706 1.574 . S
C3698 C3714 1.368 1_556 S
H3699 C3707 0.950 . S
H3700 C3705 0.950 . S
H3701 C3706 0.949 . S
H3702 C3708 0.907 1_556 S
H3703 C3709 0.950 . S
H3704 C3710 0.949 . S
C3705 H3700 0.950 . S
C3705 C3707 1.327 . S
C3705 C3711 1.429 . S
C3706 C3698 1.574 . S
C3706 H3701 0.949 . S
C3706 C3712 1.368 1_556 S
C3707 C3691 1.349 . S
C3707 H3699 0.950 . S
C3707 C3705 1.327 . S
C3708 C3696 1.390 1_565 S
C3708 H3702 0.907 1_554 S
C3708 C3709 1.330 1_554 S
C3709 H3703 0.950 . S
C3709 C3708 1.330 1_556 S
C3709 C3713 1.429 1_556 S
C3710 C3693 1.574 . S
C3710 H3704 0.949 . S
C3710 C3714 1.368 . S
C3711 C3692 1.429 1_554 S
C3711 C3705 1.429 . S
C3711 C3712 1.523 . S
C3712 C3693 1.368 . S
C3712 C3706 1.368 1_554 S
C3712 C3711 1.523 . S
C3713 C3697 1.429 1_565 S
C3713 C3709 1.429 1_554 S
C3713 C3714 1.523 . S
C3714 C3698 1.368 1_554 S
C3714 C3710 1.368 . S
C3714 C3713 1.523 . S
H3715 C3690 0.950 . S
H3716 C3692 0.950 . S
H3717 C3693 0.949 . S
H3718 C3695 0.950 . S
H3719 C3697 0.950 . S
C3720 C3721 1.349 . S
C3720 C3722 1.327 . S
C3720 H3745 0.950 . S
C3721 C3720 1.349 . S
C3721 C3737 1.349 . S
C3722 C3720 1.327 . S
C3722 C3741 1.429 . S
C3722 H3746 0.950 . S
C3723 C3740 1.574 . S
C3723 C3742 1.368 . S
C3723 H3747 0.949 . S
H3724 C3728 0.949 . S
C3725 C3726 1.349 . S
C3725 C3727 1.327 . S
C3725 H3748 0.950 . S
C3726 C3725 1.349 . S
C3726 C3738 1.349 . S
C3727 C3725 1.327 . S
C3727 C3743 1.429 . S
C3727 H3749 0.950 . S
C3728 H3724 0.949 . S
C3728 C3736 1.574 . S
C3728 C3744 1.368 . S
H3729 C3737 0.950 . S
H3730 C3735 0.950 . S
H3731 C3736 0.949 . S
H3732 C3738 0.950 . S
H3733 C3739 0.950 . S
H3734 C3740 0.949 . S
C3735 H3730 0.950 . S
C3735 C3737 1.327 . S
C3735 C3741 1.429 . S
C3736 C3728 1.574 . S
C3736 H3731 0.949 . S
C3736 C3742 1.368 . S
C3737 C3721 1.349 . S
C3737 H3729 0.950 . S
C3737 C3735 1.327 . S
C3738 C3726 1.349 . S
C3738 H3732 0.950 . S
C3738 C3739 1.327 . S
C3739 H3733 0.950 . S
C3739 C3738 1.327 . S
C3739 C3743 1.429 . S
C3740 C3723 1.574 . S
C3740 H3734 0.949 . S
C3740 C3744 1.368 . S
C3741 C3722 1.429 . S
C3741 C3735 1.429 . S
C3741 C3742 1.523 . S
C3742 C3723 1.368 . S
C3742 C3736 1.368 . S
C3742 C3741 1.523 . S
C3743 C3727 1.429 . S
C3743 C3739 1.429 . S
C3743 C3744 1.523 . S
C3744 C3728 1.368 . S
C3744 C3740 1.368 . S
C3744 C3743 1.523 . S
H3745 C3720 0.950 . S
H3746 C3722 0.950 . S
H3747 C3723 0.949 . S
H3748 C3725 0.950 . S
H3749 C3727 0.950 . S
C3750 C3751 1.349 . S
C3750 C3752 1.327 . S
C3750 H3775 0.950 . S
C3751 C3750 1.349 . S
C3751 C3767 1.349 1_554 S
C3752 C3750 1.327 . S
C3752 C3771 1.429 . S
C3752 H3776 0.950 . S
C3753 C3770 1.574 . S
C3753 C3772 1.368 . S
C3753 H3777 0.949 1_554 S
H3754 C3758 0.949 . S
C3755 C3756 1.349 . S
C3755 C3757 1.327 . S
C3755 H3778 0.950 . S
C3756 C3755 1.349 . S
C3756 C3768 1.349 . S
C3757 C3755 1.327 . S
C3757 C3773 1.429 . S
C3757 H3779 0.950 1_554 S
C3758 H3754 0.949 . S
C3758 C3766 1.574 . S
C3758 C3774 1.368 . S
H3759 C3767 0.950 . S
H3760 C3765 0.950 . S
H3761 C3766 0.949 . S
H3762 C3768 0.950 . S
H3763 C3769 0.950 . S
H3764 C3770 0.949 1_556 S
C3765 H3760 0.950 . S
C3765 C3767 1.327 . S
C3765 C3771 1.429 1_556 S
C3766 C3758 1.574 . S
C3766 H3761 0.949 . S
C3766 C3772 1.368 . S
C3767 C3751 1.349 1_556 S
C3767 H3759 0.950 . S
C3767 C3765 1.327 . S
C3768 C3756 1.349 . S
C3768 H3762 0.950 . S
C3768 C3769 1.327 . S
C3769 H3763 0.950 . S
C3769 C3768 1.327 . S
C3769 C3773 1.429 . S
C3770 C3753 1.574 . S
C3770 H3764 0.949 1_554 S
C3770 C3774 1.368 . S
C3771 C3752 1.429 . S
C3771 C3765 1.429 1_554 S
C3771 C3772 1.523 . S
C3772 C3753 1.368 . S
C3772 C3766 1.368 . S
C3772 C3771 1.523 . S
C3773 C3757 1.429 . S
C3773 C3769 1.429 . S
C3773 C3774 1.523 . S
C3774 C3758 1.368 . S
C3774 C3770 1.368 . S
C3774 C3773 1.523 . S
H3775 C3750 0.950 . S
H3776 C3752 0.950 . S
H3777 C3753 0.949 1_556 S
H3778 C3755 0.950 . S
H3779 C3757 0.950 1_556 S
C3780 C3781 1.349 . S
C3780 C3782 1.327 . S
C3780 H3805 0.950 . S
C3781 C3780 1.349 . S
C3781 C3797 1.349 . S
C3782 C3780 1.327 . S
C3782 C3801 1.429 . S
C3782 H3806 0.950 . S
C3783 C3800 1.574 . S
C3783 C3802 1.368 . S
C3783 H3807 0.949 . S
H3784 C3788 0.949 . S
C3785 C3786 1.349 . S
C3785 C3787 1.327 . S
C3785 H3808 0.950 . S
C3786 C3785 1.349 . S
C3786 C3798 1.349 . S
C3787 C3785 1.327 . S
C3787 C3803 1.429 . S
C3787 H3809 0.950 . S
C3788 H3784 0.949 . S
C3788 C3796 1.574 . S
C3788 C3804 1.368 . S
H3789 C3797 0.950 . S
H3790 C3795 0.950 . S
H3791 C3796 0.949 . S
H3792 C3798 0.950 . S
H3793 C3799 0.950 . S
H3794 C3800 0.949 . S
C3795 H3790 0.950 . S
C3795 C3797 1.327 . S
C3795 C3801 1.429 . S
C3796 C3788 1.574 . S
C3796 H3791 0.949 . S
C3796 C3802 1.368 . S
C3797 C3781 1.349 . S
C3797 H3789 0.950 . S
C3797 C3795 1.327 . S
C3798 C3786 1.349 . S
C3798 H3792 0.950 . S
C3798 C3799 1.327 . S
C3799 H3793 0.950 . S
C3799 C3798 1.327 . S
C3799 C3803 1.429 . S
C3800 C3783 1.574 . S
C3800 H3794 0.949 . S
C3800 C3804 1.368 . S
C3801 C3782 1.429 . S
C3801 C3795 1.429 . S
C3801 C3802 1.523 . S
C3802 C3783 1.368 . S
C3802 C3796 1.368 . S
C3802 C3801 1.523 . S
C3803 C3787 1.429 . S
C3803 C3799 1.429 . S
C3803 C3804 1.523 . S
C3804 C3788 1.368 . S
C3804 C3800 1.368 . S
C3804 C3803 1.523 . S
H3805 C3780 0.950 . S
H3806 C3782 0.950 . S
H3807 C3783 0.949 . S
H3808 C3785 0.950 . S
H3809 C3787 0.950 . S
C3810 C3811 1.349 . S
C3810 C3812 1.327 . S
C3810 H3835 0.950 . S
C3811 C3810 1.349 . S
C3811 C3827 1.349 . S
C3812 C3810 1.327 . S
C3812 C3831 1.429 . S
C3812 H3836 0.950 . S
C3813 C3830 1.574 . S
C3813 C3832 1.368 . S
C3813 H3837 0.949 . S
H3814 C3818 0.949 . S
C3815 C3816 1.349 . S
C3815 C3817 1.327 . S
C3815 H3838 0.950 . S
C3816 C3815 1.349 . S
C3816 C3828 1.349 . S
C3817 C3815 1.327 . S
C3817 C3833 1.429 . S
C3817 H3839 0.950 . S
C3818 H3814 0.949 . S
C3818 C3826 1.574 . S
C3818 C3834 1.368 . S
H3819 C3827 0.950 . S
H3820 C3825 0.950 . S
H3821 C3826 0.949 . S
H3822 C3828 0.950 . S
H3823 C3829 0.950 . S
H3824 C3830 0.949 . S
C3825 H3820 0.950 . S
C3825 C3827 1.327 . S
C3825 C3831 1.429 . S
C3826 C3818 1.574 . S
C3826 H3821 0.949 . S
C3826 C3832 1.368 . S
C3827 C3811 1.349 . S
C3827 H3819 0.950 . S
C3827 C3825 1.327 . S
C3828 C3816 1.349 . S
C3828 H3822 0.950 . S
C3828 C3829 1.327 . S
C3829 H3823 0.950 . S
C3829 C3828 1.327 . S
C3829 C3833 1.429 . S
C3830 C3813 1.574 . S
C3830 H3824 0.949 . S
C3830 C3834 1.368 . S
C3831 C3812 1.429 . S
C3831 C3825 1.429 . S
C3831 C3832 1.523 . S
C3832 C3813 1.368 . S
C3832 C3826 1.368 . S
C3832 C3831 1.523 . S
C3833 C3817 1.429 . S
C3833 C3829 1.429 . S
C3833 C3834 1.523 . S
C3834 C3818 1.368 . S
C3834 C3830 1.368 . S
C3834 C3833 1.523 . S
H3835 C3810 0.950 . S
H3836 C3812 0.950 . S
H3837 C3813 0.949 . S
H3838 C3815 0.950 . S
H3839 C3817 0.950 . S
C3840 C3841 1.349 . S
C3840 C3842 1.327 . S
C3840 H3865 0.950 . S
C3841 C3840 1.349 . S
C3841 C3857 1.349 . S
C3842 C3840 1.327 . S
C3842 C3861 1.429 . S
C3842 H3866 0.950 . S
C3843 C3860 1.574 . S
C3843 C3862 1.368 . S
C3843 H3867 0.949 . S
H3844 C3848 0.949 . S
C3845 C3846 1.349 . S
C3845 C3847 1.327 . S
C3845 H3868 0.950 . S
C3846 C3845 1.349 . S
C3846 C3858 1.349 . S
C3847 C3845 1.327 . S
C3847 C3863 1.429 . S
C3847 H3869 0.950 . S
C3848 H3844 0.949 . S
C3848 C3856 1.574 . S
C3848 C3864 1.368 . S
H3849 C3857 0.950 . S
H3850 C3855 0.950 . S
H3851 C3856 0.949 . S
H3852 C3858 0.950 . S
H3853 C3859 0.950 . S
H3854 C3860 0.949 . S
C3855 H3850 0.950 . S
C3855 C3857 1.327 . S
C3855 C3861 1.429 . S
C3856 C3848 1.574 . S
C3856 H3851 0.949 . S
C3856 C3862 1.368 . S
C3857 C3841 1.349 . S
C3857 H3849 0.950 . S
C3857 C3855 1.327 . S
C3858 C3846 1.349 . S
C3858 H3852 0.950 . S
C3858 C3859 1.327 . S
C3859 H3853 0.950 . S
C3859 C3858 1.327 . S
C3859 C3863 1.429 . S
C3860 C3843 1.574 . S
C3860 H3854 0.949 . S
C3860 C3864 1.368 . S
C3861 C3842 1.429 . S
C3861 C3855 1.429 . S
C3861 C3862 1.523 . S
C3862 C3843 1.368 . S
C3862 C3856 1.368 . S
C3862 C3861 1.523 . S
C3863 C3847 1.429 . S
C3863 C3859 1.429 . S
C3863 C3864 1.523 . S
C3864 C3848 1.368 . S
C3864 C3860 1.368 . S
C3864 C3863 1.523 . S
H3865 C3840 0.950 . S
H3866 C3842 0.950 . S
H3867 C3843 0.949 . S
H3868 C3845 0.950 . S
H3869 C3847 0.950 . S
C3870 C3871 1.349 . S
C3870 C3872 1.327 . S
C3870 H3895 0.950 . S
C3871 C3870 1.349 . S
C3871 C3887 1.349 . S
C3872 C3870 1.327 . S
C3872 C3891 1.429 . S
C3872 H3896 0.950 . S
C3873 C3890 1.574 . S
C3873 C3892 1.368 . S
C3873 H3897 0.949 . S
H3874 C3878 0.949 . S
C3875 C3876 1.349 . S
C3875 C3877 1.327 . S
C3875 H3898 0.950 . S
C3876 C3875 1.349 . S
C3876 C3888 1.349 . S
C3877 C3875 1.327 . S
C3877 C3893 1.429 . S
C3877 H3899 0.950 . S
C3878 H3874 0.949 . S
C3878 C3886 1.574 . S
C3878 C3894 1.368 . S
H3879 C3887 0.950 . S
H3880 C3885 0.950 . S
H3881 C3886 0.949 . S
H3882 C3888 0.950 . S
H3883 C3889 0.950 . S
H3884 C3890 0.949 . S
C3885 H3880 0.950 . S
C3885 C3887 1.327 . S
C3885 C3891 1.429 . S
C3886 C3878 1.574 . S
C3886 H3881 0.949 . S
C3886 C3892 1.368 . S
C3887 C3871 1.349 . S
C3887 H3879 0.950 . S
C3887 C3885 1.327 . S
C3888 C3876 1.349 . S
C3888 H3882 0.950 . S
C3888 C3889 1.327 . S
C3889 H3883 0.950 . S
C3889 C3888 1.327 . S
C3889 C3893 1.429 . S
C3890 C3873 1.574 . S
C3890 H3884 0.949 . S
C3890 C3894 1.368 . S
C3891 C3872 1.429 . S
C3891 C3885 1.429 . S
C3891 C3892 1.523 . S
C3892 C3873 1.368 . S
C3892 C3886 1.368 . S
C3892 C3891 1.523 . S
C3893 C3877 1.429 . S
C3893 C3889 1.429 . S
C3893 C3894 1.523 . S
C3894 C3878 1.368 . S
C3894 C3890 1.368 . S
C3894 C3893 1.523 . S
H3895 C3870 0.950 . S
H3896 C3872 0.950 . S
H3897 C3873 0.949 . S
H3898 C3875 0.950 . S
H3899 C3877 0.950 . S
C3900 C3901 1.349 . S
C3900 C3902 1.327 . S
C3900 H3925 0.950 . S
C3901 C3900 1.349 . S
C3901 C3917 1.349 . S
C3902 C3900 1.327 . S
C3902 C3921 1.429 . S
C3902 H3926 0.950 . S
C3903 C3920 1.574 . S
C3903 C3922 1.368 . S
C3903 H3927 0.949 . S
H3904 C3908 0.949 . S
C3905 C3906 1.349 . S
C3905 C3907 1.327 . S
C3905 H3928 0.950 . S
C3906 C3905 1.349 . S
C3906 C3918 1.349 . S
C3907 C3905 1.327 . S
C3907 C3923 1.429 . S
C3907 H3929 0.950 . S
C3908 H3904 0.949 . S
C3908 C3916 1.574 . S
C3908 C3924 1.368 . S
H3909 C3917 0.950 . S
H3910 C3915 0.950 . S
H3911 C3916 0.949 . S
H3912 C3918 0.950 . S
H3913 C3919 0.950 . S
H3914 C3920 0.949 . S
C3915 H3910 0.950 . S
C3915 C3917 1.327 . S
C3915 C3921 1.429 . S
C3916 C3908 1.574 . S
C3916 H3911 0.949 . S
C3916 C3922 1.368 . S
C3917 C3901 1.349 . S
C3917 H3909 0.950 . S
C3917 C3915 1.327 . S
C3918 C3906 1.349 . S
C3918 H3912 0.950 . S
C3918 C3919 1.327 . S
C3919 H3913 0.950 . S
C3919 C3918 1.327 . S
C3919 C3923 1.429 . S
C3920 C3903 1.574 . S
C3920 H3914 0.949 . S
C3920 C3924 1.368 . S
C3921 C3902 1.429 . S
C3921 C3915 1.429 . S
C3921 C3922 1.523 . S
C3922 C3903 1.368 . S
C3922 C3916 1.368 . S
C3922 C3921 1.523 . S
C3923 C3907 1.429 . S
C3923 C3919 1.429 . S
C3923 C3924 1.523 . S
C3924 C3908 1.368 . S
C3924 C3920 1.368 . S
C3924 C3923 1.523 . S
H3925 C3900 0.950 . S
H3926 C3902 0.950 . S
H3927 C3903 0.949 . S
H3928 C3905 0.950 . S
H3929 C3907 0.950 . S
C3930 C3931 1.349 . S
C3930 C3932 1.327 . S
C3930 H3955 0.950 . S
C3931 C3930 1.349 . S
C3931 C3947 1.349 . S
C3932 C3930 1.327 . S
C3932 C3951 1.429 . S
C3932 H3956 0.950 . S
C3933 C3950 1.574 . S
C3933 C3952 1.368 . S
C3933 H3957 0.949 . S
H3934 C3938 0.949 . S
C3935 C3936 1.349 . S
C3935 C3937 1.327 . S
C3935 H3958 0.950 . S
C3936 C3935 1.349 . S
C3936 C3948 1.349 . S
C3937 C3935 1.327 . S
C3937 C3953 1.429 . S
C3937 H3959 0.950 . S
C3938 H3934 0.949 . S
C3938 C3946 1.574 . S
C3938 C3954 1.368 . S
H3939 C3947 0.950 . S
H3940 C3945 0.950 . S
H3941 C3946 0.949 . S
H3942 C3948 0.950 . S
H3943 C3949 0.950 . S
H3944 C3950 0.949 . S
C3945 H3940 0.950 . S
C3945 C3947 1.327 . S
C3945 C3951 1.429 . S
C3946 C3938 1.574 . S
C3946 H3941 0.949 . S
C3946 C3952 1.368 . S
C3947 C3931 1.349 . S
C3947 H3939 0.950 . S
C3947 C3945 1.327 . S
C3948 C3936 1.349 . S
C3948 H3942 0.950 . S
C3948 C3949 1.327 . S
C3949 H3943 0.950 . S
C3949 C3948 1.327 . S
C3949 C3953 1.429 . S
C3950 C3933 1.574 . S
C3950 H3944 0.949 . S
C3950 C3954 1.368 . S
C3951 C3932 1.429 . S
C3951 C3945 1.429 . S
C3951 C3952 1.523 . S
C3952 C3933 1.368 . S
C3952 C3946 1.368 . S
C3952 C3951 1.523 . S
C3953 C3937 1.429 . S
C3953 C3949 1.429 . S
C3953 C3954 1.523 . S
C3954 C3938 1.368 . S
C3954 C3950 1.368 . S
C3954 C3953 1.523 . S
H3955 C3930 0.950 . S
H3956 C3932 0.950 . S
H3957 C3933 0.949 . S
H3958 C3935 0.950 . S
H3959 C3937 0.950 . S
C3960 C3961 1.349 . S
C3960 C3962 1.327 . S
C3960 H3985 0.950 . S
C3961 C3960 1.349 . S
C3961 C3977 1.349 . S
C3962 C3960 1.327 . S
C3962 C3981 1.429 . S
C3962 H3986 0.950 . S
C3963 C3980 1.574 . S
C3963 C3982 1.368 . S
C3963 H3987 0.949 . S
H3964 C3968 0.949 . S
C3965 C3966 1.349 . S
C3965 C3967 1.327 . S
C3965 H3988 0.950 . S
C3966 C3965 1.349 . S
C3966 C3978 1.349 . S
C3967 C3965 1.327 . S
C3967 C3983 1.429 . S
C3967 H3989 0.950 . S
C3968 H3964 0.949 . S
C3968 C3976 1.574 . S
C3968 C3984 1.368 . S
H3969 C3977 0.950 . S
H3970 C3975 0.950 . S
H3971 C3976 0.949 . S
H3972 C3978 0.950 . S
H3973 C3979 0.950 . S
H3974 C3980 0.949 . S
C3975 H3970 0.950 . S
C3975 C3977 1.327 . S
C3975 C3981 1.429 . S
C3976 C3968 1.574 . S
C3976 H3971 0.949 . S
C3976 C3982 1.368 . S
C3977 C3961 1.349 . S
C3977 H3969 0.950 . S
C3977 C3975 1.327 . S
C3978 C3966 1.349 . S
C3978 H3972 0.950 . S
C3978 C3979 1.327 . S
C3979 H3973 0.950 . S
C3979 C3978 1.327 . S
C3979 C3983 1.429 . S
C3980 C3963 1.574 . S
C3980 H3974 0.949 . S
C3980 C3984 1.368 . S
C3981 C3962 1.429 . S
C3981 C3975 1.429 . S
C3981 C3982 1.523 . S
C3982 C3963 1.368 . S
C3982 C3976 1.368 . S
C3982 C3981 1.523 . S
C3983 C3967 1.429 . S
C3983 C3979 1.429 . S
C3983 C3984 1.523 . S
C3984 C3968 1.368 . S
C3984 C3980 1.368 . S
C3984 C3983 1.523 . S
H3985 C3960 0.950 . S
H3986 C3962 0.950 . S
H3987 C3963 0.949 . S
H3988 C3965 0.950 . S
H3989 C3967 0.950 . S
C3990 C3991 1.349 . S
C3990 C3992 1.327 . S
C3990 H4015 0.950 . S
C3991 C3990 1.349 . S
C3991 C4007 1.349 . S
C3992 C3990 1.327 . S
C3992 C4011 1.429 . S
C3992 H4016 0.950 . S
C3993 C4010 1.574 . S
C3993 C4012 1.368 . S
C3993 H4017 0.949 . S
H3994 C3998 0.949 . S
C3995 C3996 1.349 . S
C3995 C3997 1.327 . S
C3995 H4018 0.950 . S
C3996 C3995 1.349 . S
C3996 C4008 1.349 . S
C3997 C3995 1.327 . S
C3997 C4013 1.429 . S
C3997 H4019 0.950 . S
C3998 H3994 0.949 . S
C3998 C4006 1.574 . S
C3998 C4014 1.368 . S
H3999 C4007 0.950 . S
H4000 C4005 0.950 . S
H4001 C4006 0.949 . S
H4002 C4008 0.950 . S
H4003 C4009 0.950 . S
H4004 C4010 0.949 . S
C4005 H4000 0.950 . S
C4005 C4007 1.327 . S
C4005 C4011 1.429 . S
C4006 C3998 1.574 . S
C4006 H4001 0.949 . S
C4006 C4012 1.368 . S
C4007 C3991 1.349 . S
C4007 H3999 0.950 . S
C4007 C4005 1.327 . S
C4008 C3996 1.349 . S
C4008 H4002 0.950 . S
C4008 C4009 1.327 . S
C4009 H4003 0.950 . S
C4009 C4008 1.327 . S
C4009 C4013 1.429 . S
C4010 C3993 1.574 . S
C4010 H4004 0.949 . S
C4010 C4014 1.368 . S
C4011 C3992 1.429 . S
C4011 C4005 1.429 . S
C4011 C4012 1.523 . S
C4012 C3993 1.368 . S
C4012 C4006 1.368 . S
C4012 C4011 1.523 . S
C4013 C3997 1.429 . S
C4013 C4009 1.429 . S
C4013 C4014 1.523 . S
C4014 C3998 1.368 . S
C4014 C4010 1.368 . S
C4014 C4013 1.523 . S
H4015 C3990 0.950 . S
H4016 C3992 0.950 . S
H4017 C3993 0.949 . S
H4018 C3995 0.950 . S
H4019 C3997 0.950 . S
C4020 C4021 1.349 . S
C4020 C4022 1.327 . S
C4020 H4045 0.950 . S
C4021 C4020 1.349 . S
C4021 C4037 1.349 . S
C4022 C4020 1.327 . S
C4022 C4041 1.429 . S
C4022 H4046 0.950 . S
C4023 C4040 1.574 . S
C4023 C4042 1.368 . S
C4023 H4047 0.949 . S
H4024 C4028 0.949 . S
C4025 C4026 1.349 . S
C4025 C4027 1.327 . S
C4025 H4048 0.950 . S
C4026 C4025 1.349 . S
C4026 C4038 1.349 . S
C4027 C4025 1.327 . S
C4027 C4043 1.429 . S
C4027 H4049 0.950 . S
C4028 H4024 0.949 . S
C4028 C4036 1.574 . S
C4028 C4044 1.368 . S
H4029 C4037 0.950 . S
H4030 C4035 0.950 . S
H4031 C4036 0.949 . S
H4032 C4038 0.950 . S
H4033 C4039 0.950 . S
H4034 C4040 0.949 . S
C4035 H4030 0.950 . S
C4035 C4037 1.327 . S
C4035 C4041 1.429 . S
C4036 C4028 1.574 . S
C4036 H4031 0.949 . S
C4036 C4042 1.368 . S
C4037 C4021 1.349 . S
C4037 H4029 0.950 . S
C4037 C4035 1.327 . S
C4038 C4026 1.349 . S
C4038 H4032 0.950 . S
C4038 C4039 1.327 . S
C4039 H4033 0.950 . S
C4039 C4038 1.327 . S
C4039 C4043 1.429 . S
C4040 C4023 1.574 . S
C4040 H4034 0.949 . S
C4040 C4044 1.368 . S
C4041 C4022 1.429 . S
C4041 C4035 1.429 . S
C4041 C4042 1.523 . S
C4042 C4023 1.368 . S
C4042 C4036 1.368 . S
C4042 C4041 1.523 . S
C4043 C4027 1.429 . S
C4043 C4039 1.429 . S
C4043 C4044 1.523 . S
C4044 C4028 1.368 . S
C4044 C4040 1.368 . S
C4044 C4043 1.523 . S
H4045 C4020 0.950 . S
H4046 C4022 0.950 . S
H4047 C4023 0.949 . S
H4048 C4025 0.950 . S
H4049 C4027 0.950 . S
C4050 C4051 1.349 . S
C4050 C4052 1.327 . S
C4050 H4075 0.950 . S
C4051 C4050 1.349 . S
C4051 C4067 1.349 . S
C4052 C4050 1.327 . S
C4052 C4071 1.429 . S
C4052 H4076 0.950 . S
C4053 C4070 1.574 . S
C4053 C4072 1.368 . S
C4053 H4077 0.949 . S
H4054 C4058 0.949 . S
C4055 C4056 1.349 . S
C4055 C4057 1.327 . S
C4055 H4078 0.950 . S
C4056 C4055 1.349 . S
C4056 C4068 1.349 . S
C4057 C4055 1.327 . S
C4057 C4073 1.429 . S
C4057 H4079 0.950 . S
C4058 H4054 0.949 . S
C4058 C4066 1.574 . S
C4058 C4074 1.368 . S
H4059 C4067 0.950 . S
H4060 C4065 0.950 . S
H4061 C4066 0.949 . S
H4062 C4068 0.950 . S
H4063 C4069 0.950 . S
H4064 C4070 0.949 . S
C4065 H4060 0.950 . S
C4065 C4067 1.327 . S
C4065 C4071 1.429 . S
C4066 C4058 1.574 . S
C4066 H4061 0.949 . S
C4066 C4072 1.368 . S
C4067 C4051 1.349 . S
C4067 H4059 0.950 . S
C4067 C4065 1.327 . S
C4068 C4056 1.349 . S
C4068 H4062 0.950 . S
C4068 C4069 1.327 . S
C4069 H4063 0.950 . S
C4069 C4068 1.327 . S
C4069 C4073 1.429 . S
C4070 C4053 1.574 . S
C4070 H4064 0.949 . S
C4070 C4074 1.368 . S
C4071 C4052 1.429 . S
C4071 C4065 1.429 . S
C4071 C4072 1.523 . S
C4072 C4053 1.368 . S
C4072 C4066 1.368 . S
C4072 C4071 1.523 . S
C4073 C4057 1.429 . S
C4073 C4069 1.429 . S
C4073 C4074 1.523 . S
C4074 C4058 1.368 . S
C4074 C4070 1.368 . S
C4074 C4073 1.523 . S
H4075 C4050 0.950 . S
H4076 C4052 0.950 . S
H4077 C4053 0.949 . S
H4078 C4055 0.950 . S
H4079 C4057 0.950 . S
C4080 C4081 1.349 . S
C4080 C4082 1.327 . S
C4080 H4105 0.950 . S
C4081 C4080 1.349 . S
C4081 C4097 1.349 . S
C4082 C4080 1.327 . S
C4082 C4101 1.429 . S
C4082 H4106 0.950 . S
C4083 C4100 1.574 . S
C4083 C4102 1.368 . S
C4083 H4107 0.949 . S
H4084 C4088 0.949 . S
C4085 C4086 1.349 . S
C4085 C4087 1.327 . S
C4085 H4108 0.950 . S
C4086 C4085 1.349 . S
C4086 C4098 1.349 . S
C4087 C4085 1.327 . S
C4087 C4103 1.429 . S
C4087 H4109 0.950 . S
C4088 H4084 0.949 . S
C4088 C4096 1.574 . S
C4088 C4104 1.368 . S
H4089 C4097 0.950 . S
H4090 C4095 0.950 . S
H4091 C4096 0.949 . S
H4092 C4098 0.950 . S
H4093 C4099 0.950 . S
H4094 C4100 0.949 . S
C4095 H4090 0.950 . S
C4095 C4097 1.327 . S
C4095 C4101 1.429 . S
C4096 C4088 1.574 . S
C4096 H4091 0.949 . S
C4096 C4102 1.368 . S
C4097 C4081 1.349 . S
C4097 H4089 0.950 . S
C4097 C4095 1.327 . S
C4098 C4086 1.349 . S
C4098 H4092 0.950 . S
C4098 C4099 1.327 . S
C4099 H4093 0.950 . S
C4099 C4098 1.327 . S
C4099 C4103 1.429 . S
C4100 C4083 1.574 . S
C4100 H4094 0.949 . S
C4100 C4104 1.368 . S
C4101 C4082 1.429 . S
C4101 C4095 1.429 . S
C4101 C4102 1.523 . S
C4102 C4083 1.368 . S
C4102 C4096 1.368 . S
C4102 C4101 1.523 . S
C4103 C4087 1.429 . S
C4103 C4099 1.429 . S
C4103 C4104 1.523 . S
C4104 C4088 1.368 . S
C4104 C4100 1.368 . S
C4104 C4103 1.523 . S
H4105 C4080 0.950 . S
H4106 C4082 0.950 . S
H4107 C4083 0.949 . S
H4108 C4085 0.950 . S
H4109 C4087 0.950 . S
C4110 C4111 1.349 . S
C4110 C4112 1.327 . S
C4110 H4135 0.950 . S
C4111 C4110 1.349 . S
C4111 C4127 1.349 . S
C4112 C4110 1.327 . S
C4112 C4131 1.429 . S
C4112 H4136 0.950 . S
C4113 C4130 1.574 . S
C4113 C4132 1.368 . S
C4113 H4137 0.949 . S
H4114 C4118 0.949 . S
C4115 C4116 1.349 . S
C4115 C4117 1.327 . S
C4115 H4138 0.950 . S
C4116 C4115 1.349 . S
C4116 C4128 1.349 . S
C4117 C4115 1.327 . S
C4117 C4133 1.429 . S
C4117 H4139 0.950 . S
C4118 H4114 0.949 . S
C4118 C4126 1.574 . S
C4118 C4134 1.368 . S
H4119 C4127 0.950 . S
H4120 C4125 0.950 . S
H4121 C4126 0.949 . S
H4122 C4128 0.950 . S
H4123 C4129 0.950 . S
H4124 C4130 0.949 . S
C4125 H4120 0.950 . S
C4125 C4127 1.327 . S
C4125 C4131 1.429 . S
C4126 C4118 1.574 . S
C4126 H4121 0.949 . S
C4126 C4132 1.368 . S
C4127 C4111 1.349 . S
C4127 H4119 0.950 . S
C4127 C4125 1.327 . S
C4128 C4116 1.349 . S
C4128 H4122 0.950 . S
C4128 C4129 1.327 . S
C4129 H4123 0.950 . S
C4129 C4128 1.327 . S
C4129 C4133 1.429 . S
C4130 C4113 1.574 . S
C4130 H4124 0.949 . S
C4130 C4134 1.368 . S
C4131 C4112 1.429 . S
C4131 C4125 1.429 . S
C4131 C4132 1.523 . S
C4132 C4113 1.368 . S
C4132 C4126 1.368 . S
C4132 C4131 1.523 . S
C4133 C4117 1.429 . S
C4133 C4129 1.429 . S
C4133 C4134 1.523 . S
C4134 C4118 1.368 . S
C4134 C4130 1.368 . S
C4134 C4133 1.523 . S
H4135 C4110 0.950 . S
H4136 C4112 0.950 . S
H4137 C4113 0.949 . S
H4138 C4115 0.950 . S
H4139 C4117 0.950 . S
C4140 C4141 1.349 . S
C4140 C4142 1.327 . S
C4140 H4165 0.950 . S
C4141 C4140 1.349 . S
C4141 C4157 1.349 . S
C4142 C4140 1.327 . S
C4142 C4161 1.429 . S
C4142 H4166 0.950 . S
C4143 C4160 1.574 . S
C4143 C4162 1.368 . S
C4143 H4167 0.949 . S
H4144 C4148 0.949 . S
C4145 C4146 1.349 . S
C4145 C4147 1.327 . S
C4145 H4168 0.950 . S
C4146 C4145 1.349 . S
C4146 C4158 1.349 . S
C4147 C4145 1.327 . S
C4147 C4163 1.429 . S
C4147 H4169 0.950 . S
C4148 H4144 0.949 . S
C4148 C4156 1.574 . S
C4148 C4164 1.368 . S
H4149 C4157 0.950 . S
H4150 C4155 0.950 . S
H4151 C4156 0.949 . S
H4152 C4158 0.950 1_455 S
H4153 C4159 0.950 . S
H4154 C4160 0.949 . S
C4155 H4150 0.950 . S
C4155 C4157 1.327 . S
C4155 C4161 1.429 . S
C4156 C4148 1.574 . S
C4156 H4151 0.949 . S
C4156 C4162 1.368 . S
C4157 C4141 1.349 . S
C4157 H4149 0.950 . S
C4157 C4155 1.327 . S
C4158 C4146 1.349 . S
C4158 H4152 0.950 1_655 S
C4158 C4159 1.327 . S
C4159 H4153 0.950 . S
C4159 C4158 1.327 . S
C4159 C4163 1.429 . S
C4160 C4143 1.574 . S
C4160 H4154 0.949 . S
C4160 C4164 1.368 . S
C4161 C4142 1.429 . S
C4161 C4155 1.429 . S
C4161 C4162 1.523 . S
C4162 C4143 1.368 . S
C4162 C4156 1.368 . S
C4162 C4161 1.523 . S
C4163 C4147 1.429 . S
C4163 C4159 1.429 . S
C4163 C4164 1.523 . S
C4164 C4148 1.368 . S
C4164 C4160 1.368 . S
C4164 C4163 1.523 . S
H4165 C4140 0.950 . S
H4166 C4142 0.950 . S
H4167 C4143 0.949 . S
H4168 C4145 0.950 . S
H4169 C4147 0.950 . S
C4170 C4171 1.349 . S
C4170 C4172 1.327 . S
C4170 H4195 0.950 . S
C4171 C4170 1.349 . S
C4171 C4187 1.349 . S
C4172 C4170 1.327 . S
C4172 C4191 1.429 . S
C4172 H4196 0.950 . S
C4173 C4190 1.574 . S
C4173 C4192 1.368 . S
C4173 H4197 0.949 . S
H4174 C4178 0.949 . S
C4175 C4176 1.349 . S
C4175 C4177 1.327 . S
C4175 H4198 0.950 . S
C4176 C4175 1.349 . S
C4176 C4188 1.349 . S
C4177 C4175 1.327 . S
C4177 C4193 1.429 . S
C4177 H4199 0.950 . S
C4178 H4174 0.949 . S
C4178 C4186 1.574 . S
C4178 C4194 1.368 . S
H4179 C4187 0.950 . S
H4180 C4185 0.950 . S
H4181 C4186 0.949 . S
H4182 C4188 0.950 . S
H4183 C4189 0.950 . S
H4184 C4190 0.949 . S
C4185 H4180 0.950 . S
C4185 C4187 1.327 . S
C4185 C4191 1.429 . S
C4186 C4178 1.574 . S
C4186 H4181 0.949 . S
C4186 C4192 1.368 . S
C4187 C4171 1.349 . S
C4187 H4179 0.950 . S
C4187 C4185 1.327 . S
C4188 C4176 1.349 . S
C4188 H4182 0.950 . S
C4188 C4189 1.327 . S
C4189 H4183 0.950 . S
C4189 C4188 1.327 . S
C4189 C4193 1.429 . S
C4190 C4173 1.574 . S
C4190 H4184 0.949 . S
C4190 C4194 1.368 . S
C4191 C4172 1.429 . S
C4191 C4185 1.429 . S
C4191 C4192 1.523 . S
C4192 C4173 1.368 . S
C4192 C4186 1.368 . S
C4192 C4191 1.523 . S
C4193 C4177 1.429 . S
C4193 C4189 1.429 . S
C4193 C4194 1.523 . S
C4194 C4178 1.368 . S
C4194 C4190 1.368 . S
C4194 C4193 1.523 . S
H4195 C4170 0.950 . S
H4196 C4172 0.950 . S
H4197 C4173 0.949 . S
H4198 C4175 0.950 . S
H4199 C4177 0.950 . S
C4200 C4201 1.349 . S
C4200 C4202 1.327 . S
C4200 H4225 0.950 . S
C4201 C4200 1.349 . S
C4201 C4217 1.349 . S
C4202 C4200 1.327 . S
C4202 C4221 1.429 . S
C4202 H4226 0.950 . S
C4203 C4220 1.574 . S
C4203 C4222 1.368 . S
C4203 H4227 0.949 . S
H4204 C4208 0.949 . S
C4205 C4206 1.349 . S
C4205 C4207 1.327 . S
C4205 H4228 0.950 . S
C4206 C4205 1.349 . S
C4206 C4218 1.349 . S
C4207 C4205 1.327 . S
C4207 C4223 1.429 . S
C4207 H4229 0.950 . S
C4208 H4204 0.949 . S
C4208 C4216 1.574 . S
C4208 C4224 1.368 . S
H4209 C4217 0.950 . S
H4210 C4215 0.950 . S
H4211 C4216 0.949 . S
H4212 C4218 0.950 . S
H4213 C4219 0.950 . S
H4214 C4220 0.949 . S
C4215 H4210 0.950 . S
C4215 C4217 1.327 . S
C4215 C4221 1.429 . S
C4216 C4208 1.574 . S
C4216 H4211 0.949 . S
C4216 C4222 1.368 . S
C4217 C4201 1.349 . S
C4217 H4209 0.950 . S
C4217 C4215 1.327 . S
C4218 C4206 1.349 . S
C4218 H4212 0.950 . S
C4218 C4219 1.327 . S
C4219 H4213 0.950 . S
C4219 C4218 1.327 . S
C4219 C4223 1.429 . S
C4220 C4203 1.574 . S
C4220 H4214 0.949 . S
C4220 C4224 1.368 . S
C4221 C4202 1.429 . S
C4221 C4215 1.429 . S
C4221 C4222 1.523 . S
C4222 C4203 1.368 . S
C4222 C4216 1.368 . S
C4222 C4221 1.523 . S
C4223 C4207 1.429 . S
C4223 C4219 1.429 . S
C4223 C4224 1.523 . S
C4224 C4208 1.368 . S
C4224 C4220 1.368 . S
C4224 C4223 1.523 . S
H4225 C4200 0.950 . S
H4226 C4202 0.950 . S
H4227 C4203 0.949 . S
H4228 C4205 0.950 . S
H4229 C4207 0.950 . S
C4230 C4231 1.349 . S
C4230 C4232 1.327 . S
C4230 H4255 0.950 . S
C4231 C4230 1.349 . S
C4231 C4247 1.349 . S
C4232 C4230 1.327 . S
C4232 C4251 1.429 . S
C4232 H4256 0.950 . S
C4233 C4250 1.574 . S
C4233 C4252 1.368 . S
C4233 H4257 0.949 . S
H4234 C4238 0.949 . S
C4235 C4236 1.349 . S
C4235 C4237 1.327 . S
C4235 H4258 0.950 . S
C4236 C4235 1.349 . S
C4236 C4248 1.349 . S
C4237 C4235 1.327 . S
C4237 C4253 1.429 . S
C4237 H4259 0.950 . S
C4238 H4234 0.949 . S
C4238 C4246 1.574 . S
C4238 C4254 1.368 . S
H4239 C4247 0.950 . S
H4240 C4245 0.950 . S
H4241 C4246 0.949 . S
H4242 C4248 0.950 . S
H4243 C4249 0.950 . S
H4244 C4250 0.949 . S
C4245 H4240 0.950 . S
C4245 C4247 1.327 . S
C4245 C4251 1.429 . S
C4246 C4238 1.574 . S
C4246 H4241 0.949 . S
C4246 C4252 1.368 . S
C4247 C4231 1.349 . S
C4247 H4239 0.950 . S
C4247 C4245 1.327 . S
C4248 C4236 1.349 . S
C4248 H4242 0.950 . S
C4248 C4249 1.327 . S
C4249 H4243 0.950 . S
C4249 C4248 1.327 . S
C4249 C4253 1.429 . S
C4250 C4233 1.574 . S
C4250 H4244 0.949 . S
C4250 C4254 1.368 . S
C4251 C4232 1.429 . S
C4251 C4245 1.429 . S
C4251 C4252 1.523 . S
C4252 C4233 1.368 . S
C4252 C4246 1.368 . S
C4252 C4251 1.523 . S
C4253 C4237 1.429 . S
C4253 C4249 1.429 . S
C4253 C4254 1.523 . S
C4254 C4238 1.368 . S
C4254 C4250 1.368 . S
C4254 C4253 1.523 . S
H4255 C4230 0.950 . S
H4256 C4232 0.950 . S
H4257 C4233 0.949 . S
H4258 C4235 0.950 . S
H4259 C4237 0.950 . S
C4260 C4261 1.349 . S
C4260 C4262 1.327 . S
C4260 H4285 0.950 . S
C4261 C4260 1.349 . S
C4261 C4277 1.349 . S
C4262 C4260 1.327 . S
C4262 C4281 1.429 . S
C4262 H4286 0.950 . S
C4263 C4280 1.574 . S
C4263 C4282 1.368 . S
C4263 H4287 0.949 . S
H4264 C4268 0.949 . S
C4265 C4266 1.349 . S
C4265 C4267 1.327 . S
C4265 H4288 0.950 . S
C4266 C4265 1.349 . S
C4266 C4278 1.349 . S
C4267 C4265 1.327 . S
C4267 C4283 1.429 . S
C4267 H4289 0.950 . S
C4268 H4264 0.949 . S
C4268 C4276 1.574 . S
C4268 C4284 1.368 . S
H4269 C4277 0.950 . S
H4270 C4275 0.950 . S
H4271 C4276 0.949 . S
H4272 C4278 0.950 . S
H4273 C4279 0.950 . S
H4274 C4280 0.949 . S
C4275 H4270 0.950 . S
C4275 C4277 1.327 . S
C4275 C4281 1.429 . S
C4276 C4268 1.574 . S
C4276 H4271 0.949 . S
C4276 C4282 1.368 . S
C4277 C4261 1.349 . S
C4277 H4269 0.950 . S
C4277 C4275 1.327 . S
C4278 C4266 1.349 . S
C4278 H4272 0.950 . S
C4278 C4279 1.327 . S
C4279 H4273 0.950 . S
C4279 C4278 1.327 . S
C4279 C4283 1.429 . S
C4280 C4263 1.574 . S
C4280 H4274 0.949 . S
C4280 C4284 1.368 . S
C4281 C4262 1.429 . S
C4281 C4275 1.429 . S
C4281 C4282 1.523 . S
C4282 C4263 1.368 . S
C4282 C4276 1.368 . S
C4282 C4281 1.523 . S
C4283 C4267 1.429 . S
C4283 C4279 1.429 . S
C4283 C4284 1.523 . S
C4284 C4268 1.368 . S
C4284 C4280 1.368 . S
C4284 C4283 1.523 . S
H4285 C4260 0.950 . S
H4286 C4262 0.950 . S
H4287 C4263 0.949 . S
H4288 C4265 0.950 . S
H4289 C4267 0.950 . S
C4290 C4291 1.349 . S
C4290 C4292 1.327 . S
C4290 H4315 0.950 . S
C4291 C4290 1.349 . S
C4291 C4307 1.349 . S
C4292 C4290 1.327 . S
C4292 C4311 1.429 . S
C4292 H4316 0.950 . S
C4293 C4310 1.574 . S
C4293 C4312 1.368 . S
C4293 H4317 0.949 . S
H4294 C4298 0.949 . S
C4295 C4296 1.349 . S
C4295 C4297 1.327 . S
C4295 H4318 0.950 . S
C4296 C4295 1.349 . S
C4296 C4308 1.349 . S
C4297 C4295 1.327 . S
C4297 C4313 1.429 . S
C4297 H4319 0.950 . S
C4298 H4294 0.949 . S
C4298 C4306 1.574 . S
C4298 C4314 1.368 . S
H4299 C4307 0.950 . S
H4300 C4305 0.950 . S
H4301 C4306 0.949 . S
H4302 C4308 0.950 . S
H4303 C4309 0.950 . S
H4304 C4310 0.949 . S
C4305 H4300 0.950 . S
C4305 C4307 1.327 . S
C4305 C4311 1.429 . S
C4306 C4298 1.574 . S
C4306 H4301 0.949 . S
C4306 C4312 1.368 . S
C4307 C4291 1.349 . S
C4307 H4299 0.950 . S
C4307 C4305 1.327 . S
C4308 C4296 1.349 . S
C4308 H4302 0.950 . S
C4308 C4309 1.327 . S
C4309 H4303 0.950 . S
C4309 C4308 1.327 . S
C4309 C4313 1.429 . S
C4310 C4293 1.574 . S
C4310 H4304 0.949 . S
C4310 C4314 1.368 . S
C4311 C4292 1.429 . S
C4311 C4305 1.429 . S
C4311 C4312 1.523 . S
C4312 C4293 1.368 . S
C4312 C4306 1.368 . S
C4312 C4311 1.523 . S
C4313 C4297 1.429 . S
C4313 C4309 1.429 . S
C4313 C4314 1.523 . S
C4314 C4298 1.368 . S
C4314 C4310 1.368 . S
C4314 C4313 1.523 . S
H4315 C4290 0.950 . S
H4316 C4292 0.950 . S
H4317 C4293 0.949 . S
H4318 C4295 0.950 . S
H4319 C4297 0.950 . S
C4320 C4321 1.349 . S
C4320 C4322 1.327 . S
C4320 H4345 0.950 . S
C4321 C4320 1.349 . S
C4321 C4337 1.349 . S
C4322 C4320 1.327 . S
C4322 C4341 1.429 . S
C4322 H4346 0.950 . S
C4323 C4340 1.574 . S
C4323 C4342 1.368 . S
C4323 H4347 0.949 . S
H4324 C4328 0.949 . S
C4325 C4326 1.349 . S
C4325 C4327 1.327 . S
C4325 H4348 0.950 . S
C4326 C4325 1.349 . S
C4326 C4338 1.349 . S
C4327 C4325 1.327 . S
C4327 C4343 1.429 . S
C4327 H4349 0.950 . S
C4328 H4324 0.949 . S
C4328 C4336 1.574 . S
C4328 C4344 1.368 . S
H4329 C4337 0.950 . S
H4330 C4335 0.950 . S
H4331 C4336 0.949 . S
H4332 C4338 0.950 . S
H4333 C4339 0.950 . S
H4334 C4340 0.949 . S
C4335 H4330 0.950 . S
C4335 C4337 1.327 . S
C4335 C4341 1.429 . S
C4336 C4328 1.574 . S
C4336 H4331 0.949 . S
C4336 C4342 1.368 . S
C4337 C4321 1.349 . S
C4337 H4329 0.950 . S
C4337 C4335 1.327 . S
C4338 C4326 1.349 . S
C4338 H4332 0.950 . S
C4338 C4339 1.327 . S
C4339 H4333 0.950 . S
C4339 C4338 1.327 . S
C4339 C4343 1.429 . S
C4340 C4323 1.574 . S
C4340 H4334 0.949 . S
C4340 C4344 1.368 . S
C4341 C4322 1.429 . S
C4341 C4335 1.429 . S
C4341 C4342 1.523 . S
C4342 C4323 1.368 . S
C4342 C4336 1.368 . S
C4342 C4341 1.523 . S
C4343 C4327 1.429 . S
C4343 C4339 1.429 . S
C4343 C4344 1.523 . S
C4344 C4328 1.368 . S
C4344 C4340 1.368 . S
C4344 C4343 1.523 . S
H4345 C4320 0.950 . S
H4346 C4322 0.950 . S
H4347 C4323 0.949 . S
H4348 C4325 0.950 . S
H4349 C4327 0.950 . S
C4350 C4351 1.349 . S
C4350 C4352 1.327 . S
C4350 H4375 0.950 . S
C4351 C4350 1.349 . S
C4351 C4367 1.349 . S
C4352 C4350 1.327 . S
C4352 C4371 1.429 . S
C4352 H4376 0.950 . S
C4353 C4370 1.574 . S
C4353 C4372 1.368 . S
C4353 H4377 0.949 . S
H4354 C4358 0.949 . S
C4355 C4356 1.349 . S
C4355 C4357 1.327 . S
C4355 H4378 0.950 1_565 S
C4356 C4355 1.349 . S
C4356 C4368 1.349 . S
C4357 C4355 1.327 . S
C4357 C4373 1.429 . S
C4357 H4379 0.950 . S
C4358 H4354 0.949 . S
C4358 C4366 1.574 . S
C4358 C4374 1.368 . S
H4359 C4367 0.950 . S
H4360 C4365 0.950 . S
H4361 C4366 0.949 . S
H4362 C4368 0.950 . S
H4363 C4369 0.950 . S
H4364 C4370 0.949 . S
C4365 H4360 0.950 . S
C4365 C4367 1.327 . S
C4365 C4371 1.429 . S
C4366 C4358 1.574 . S
C4366 H4361 0.949 . S
C4366 C4372 1.368 . S
C4367 C4351 1.349 . S
C4367 H4359 0.950 . S
C4367 C4365 1.327 . S
C4368 C4356 1.349 . S
C4368 H4362 0.950 . S
C4368 C4369 1.327 . S
C4369 H4363 0.950 . S
C4369 C4368 1.327 . S
C4369 C4373 1.429 . S
C4370 C4353 1.574 . S
C4370 H4364 0.949 . S
C4370 C4374 1.368 . S
C4371 C4352 1.429 . S
C4371 C4365 1.429 . S
C4371 C4372 1.523 . S
C4372 C4353 1.368 . S
C4372 C4366 1.368 . S
C4372 C4371 1.523 . S
C4373 C4357 1.429 . S
C4373 C4369 1.429 . S
C4373 C4374 1.523 . S
C4374 C4358 1.368 . S
C4374 C4370 1.368 . S
C4374 C4373 1.523 . S
H4375 C4350 0.950 . S
H4376 C4352 0.950 . S
H4377 C4353 0.949 . S
H4378 C4355 0.950 1_545 S
H4379 C4357 0.950 . S
C4380 C4381 1.349 . S
C4380 C4382 1.327 . S
C4380 H4405 0.950 . S
C4381 C4380 1.349 . S
C4381 C4397 1.349 . S
C4382 C4380 1.327 . S
C4382 C4401 1.429 . S
C4382 H4406 0.950 . S
C4383 C4400 1.574 . S
C4383 C4402 1.368 . S
C4383 H4407 0.949 . S
H4384 C4388 0.949 . S
C4385 C4386 1.349 . S
C4385 C4387 1.327 . S
C4385 H4408 0.950 . S
C4386 C4385 1.349 . S
C4386 C4398 1.349 . S
C4387 C4385 1.327 . S
C4387 C4403 1.429 . S
C4387 H4409 0.950 . S
C4388 H4384 0.949 . S
C4388 C4396 1.574 . S
C4388 C4404 1.368 . S
H4389 C4397 0.950 . S
H4390 C4395 0.950 . S
H4391 C4396 0.949 . S
H4392 C4398 0.950 . S
H4393 C4399 0.950 . S
H4394 C4400 0.949 . S
C4395 H4390 0.950 . S
C4395 C4397 1.327 . S
C4395 C4401 1.429 . S
C4396 C4388 1.574 . S
C4396 H4391 0.949 . S
C4396 C4402 1.368 . S
C4397 C4381 1.349 . S
C4397 H4389 0.950 . S
C4397 C4395 1.327 . S
C4398 C4386 1.349 . S
C4398 H4392 0.950 . S
C4398 C4399 1.327 . S
C4399 H4393 0.950 . S
C4399 C4398 1.327 . S
C4399 C4403 1.429 . S
C4400 C4383 1.574 . S
C4400 H4394 0.949 . S
C4400 C4404 1.368 . S
C4401 C4382 1.429 . S
C4401 C4395 1.429 . S
C4401 C4402 1.523 . S
C4402 C4383 1.368 . S
C4402 C4396 1.368 . S
C4402 C4401 1.523 . S
C4403 C4387 1.429 . S
C4403 C4399 1.429 . S
C4403 C4404 1.523 . S
C4404 C4388 1.368 . S
C4404 C4400 1.368 . S
C4404 C4403 1.523 . S
H4405 C4380 0.950 . S
H4406 C4382 0.950 . S
H4407 C4383 0.949 . S
H4408 C4385 0.950 . S
H4409 C4387 0.950 . S
C4410 C4411 1.349 . S
C4410 C4412 1.327 . S
C4410 H4435 0.950 . S
C4411 C4410 1.349 . S
C4411 C4427 1.349 . S
C4412 C4410 1.327 . S
C4412 C4431 1.429 . S
C4412 H4436 0.950 . S
C4413 C4430 1.574 . S
C4413 C4432 1.368 . S
C4413 H4437 0.949 . S
H4414 C4418 0.949 . S
C4415 C4416 1.349 . S
C4415 C4417 1.327 . S
C4415 H4438 0.950 . S
C4416 C4415 1.349 . S
C4416 C4428 1.349 . S
C4417 C4415 1.327 . S
C4417 C4433 1.429 . S
C4417 H4439 0.950 . S
C4418 H4414 0.949 . S
C4418 C4426 1.574 . S
C4418 C4434 1.368 . S
H4419 C4427 0.950 . S
H4420 C4425 0.950 . S
H4421 C4426 0.949 . S
H4422 C4428 0.950 . S
H4423 C4429 0.950 . S
H4424 C4430 0.949 . S
C4425 H4420 0.950 . S
C4425 C4427 1.327 . S
C4425 C4431 1.429 . S
C4426 C4418 1.574 . S
C4426 H4421 0.949 . S
C4426 C4432 1.368 . S
C4427 C4411 1.349 . S
C4427 H4419 0.950 . S
C4427 C4425 1.327 . S
C4428 C4416 1.349 . S
C4428 H4422 0.950 . S
C4428 C4429 1.327 . S
C4429 H4423 0.950 . S
C4429 C4428 1.327 . S
C4429 C4433 1.429 . S
C4430 C4413 1.574 . S
C4430 H4424 0.949 . S
C4430 C4434 1.368 . S
C4431 C4412 1.429 . S
C4431 C4425 1.429 . S
C4431 C4432 1.523 . S
C4432 C4413 1.368 . S
C4432 C4426 1.368 . S
C4432 C4431 1.523 . S
C4433 C4417 1.429 . S
C4433 C4429 1.429 . S
C4433 C4434 1.523 . S
C4434 C4418 1.368 . S
C4434 C4430 1.368 . S
C4434 C4433 1.523 . S
H4435 C4410 0.950 . S
H4436 C4412 0.950 . S
H4437 C4413 0.949 . S
H4438 C4415 0.950 . S
H4439 C4417 0.950 . S
C4440 C4441 1.349 . S
C4440 C4442 1.327 . S
C4440 H4465 0.950 . S
C4441 C4440 1.349 . S
C4441 C4457 1.349 . S
C4442 C4440 1.327 . S
C4442 C4461 1.429 . S
C4442 H4466 0.950 . S
C4443 C4460 1.574 . S
C4443 C4462 1.368 . S
C4443 H4467 0.949 . S
H4444 C4448 0.949 . S
C4445 C4446 1.349 . S
C4445 C4447 1.327 . S
C4445 H4468 0.950 . S
C4446 C4445 1.349 . S
C4446 C4458 1.349 . S
C4447 C4445 1.327 . S
C4447 C4463 1.429 . S
C4447 H4469 0.950 . S
C4448 H4444 0.949 . S
C4448 C4456 1.574 . S
C4448 C4464 1.368 . S
H4449 C4457 0.950 . S
H4450 C4455 0.950 . S
H4451 C4456 0.949 . S
H4452 C4458 0.950 . S
H4453 C4459 0.950 . S
H4454 C4460 0.949 . S
C4455 H4450 0.950 . S
C4455 C4457 1.327 . S
C4455 C4461 1.429 . S
C4456 C4448 1.574 . S
C4456 H4451 0.949 . S
C4456 C4462 1.368 . S
C4457 C4441 1.349 . S
C4457 H4449 0.950 . S
C4457 C4455 1.327 . S
C4458 C4446 1.349 . S
C4458 H4452 0.950 . S
C4458 C4459 1.327 . S
C4459 H4453 0.950 . S
C4459 C4458 1.327 . S
C4459 C4463 1.429 . S
C4460 C4443 1.574 . S
C4460 H4454 0.949 . S
C4460 C4464 1.368 . S
C4461 C4442 1.429 . S
C4461 C4455 1.429 . S
C4461 C4462 1.523 . S
C4462 C4443 1.368 . S
C4462 C4456 1.368 . S
C4462 C4461 1.523 . S
C4463 C4447 1.429 . S
C4463 C4459 1.429 . S
C4463 C4464 1.523 . S
C4464 C4448 1.368 . S
C4464 C4460 1.368 . S
C4464 C4463 1.523 . S
H4465 C4440 0.950 . S
H4466 C4442 0.950 . S
H4467 C4443 0.949 . S
H4468 C4445 0.950 . S
H4469 C4447 0.950 . S
C4470 C4471 1.349 . S
C4470 C4472 1.327 . S
C4470 H4495 0.950 . S
C4471 C4470 1.349 . S
C4471 C4487 1.349 . S
C4472 C4470 1.327 . S
C4472 C4491 1.429 . S
C4472 H4496 0.950 . S
C4473 C4490 1.574 . S
C4473 C4492 1.368 . S
C4473 H4497 0.949 . S
H4474 C4478 0.949 . S
C4475 C4476 1.349 . S
C4475 C4477 1.327 . S
C4475 H4498 0.950 . S
C4476 C4475 1.349 . S
C4476 C4488 1.349 . S
C4477 C4475 1.327 . S
C4477 C4493 1.429 . S
C4477 H4499 0.950 . S
C4478 H4474 0.949 . S
C4478 C4486 1.574 . S
C4478 C4494 1.368 . S
H4479 C4487 0.950 . S
H4480 C4485 0.950 . S
H4481 C4486 0.949 . S
H4482 C4488 0.912 1_556 S
H4483 C4489 0.950 . S
H4484 C4490 0.949 . S
C4485 H4480 0.950 . S
C4485 C4487 1.327 . S
C4485 C4491 1.429 . S
C4486 C4478 1.574 . S
C4486 H4481 0.949 . S
C4486 C4492 1.368 . S
C4487 C4471 1.349 . S
C4487 H4479 0.950 . S
C4487 C4485 1.327 . S
C4488 C4476 1.349 . S
C4488 H4482 0.912 1_554 S
C4488 C4489 1.327 . S
C4489 H4483 0.950 . S
C4489 C4488 1.327 . S
C4489 C4493 1.429 . S
C4490 C4473 1.574 . S
C4490 H4484 0.949 . S
C4490 C4494 1.368 . S
C4491 C4472 1.429 . S
C4491 C4485 1.429 . S
C4491 C4492 1.523 . S
C4492 C4473 1.368 . S
C4492 C4486 1.368 . S
C4492 C4491 1.523 . S
C4493 C4477 1.429 . S
C4493 C4489 1.429 . S
C4493 C4494 1.523 . S
C4494 C4478 1.368 . S
C4494 C4490 1.368 . S
C4494 C4493 1.523 . S
H4495 C4470 0.950 . S
H4496 C4472 0.950 . S
H4497 C4473 0.949 . S
H4498 C4475 0.950 . S
H4499 C4477 0.950 . S
C4500 C4501 1.349 . S
C4500 C4502 1.327 . S
C4500 H4525 0.950 . S
C4501 C4500 1.349 . S
C4501 C4517 1.349 . S
C4502 C4500 1.327 . S
C4502 C4521 1.429 . S
C4502 H4526 0.950 . S
C4503 C4520 1.574 . S
C4503 C4522 1.368 . S
C4503 H4527 0.949 . S
H4504 C4508 0.949 . S
C4505 C4506 1.349 . S
C4505 C4507 1.327 . S
C4505 H4528 0.950 . S
C4506 C4505 1.349 . S
C4506 C4518 1.349 . S
C4507 C4505 1.327 . S
C4507 C4523 1.429 . S
C4507 H4529 0.950 . S
C4508 H4504 0.949 . S
C4508 C4516 1.574 . S
C4508 C4524 1.368 . S
H4509 C4517 0.950 . S
H4510 C4515 0.950 . S
H4511 C4516 0.949 . S
H4512 C4518 0.950 . S
H4513 C4519 0.950 . S
H4514 C4520 0.949 . S
C4515 H4510 0.950 . S
C4515 C4517 1.327 . S
C4515 C4521 1.429 . S
C4516 C4508 1.574 . S
C4516 H4511 0.949 . S
C4516 C4522 1.368 . S
C4517 C4501 1.349 . S
C4517 H4509 0.950 . S
C4517 C4515 1.327 . S
C4518 C4506 1.349 . S
C4518 H4512 0.950 . S
C4518 C4519 1.327 . S
C4519 H4513 0.950 . S
C4519 C4518 1.327 . S
C4519 C4523 1.429 . S
C4520 C4503 1.574 . S
C4520 H4514 0.949 . S
C4520 C4524 1.368 . S
C4521 C4502 1.429 . S
C4521 C4515 1.429 . S
C4521 C4522 1.523 . S
C4522 C4503 1.368 . S
C4522 C4516 1.368 . S
C4522 C4521 1.523 . S
C4523 C4507 1.429 . S
C4523 C4519 1.429 . S
C4523 C4524 1.523 . S
C4524 C4508 1.368 . S
C4524 C4520 1.368 . S
C4524 C4523 1.523 . S
H4525 C4500 0.950 . S
H4526 C4502 0.950 . S
H4527 C4503 0.949 . S
H4528 C4505 0.950 . S
H4529 C4507 0.950 . S
C4530 C4531 1.349 . S
C4530 C4532 1.327 . S
C4530 H4555 0.950 . S
C4531 C4530 1.349 . S
C4531 C4547 1.349 . S
C4532 C4530 1.327 . S
C4532 C4551 1.429 . S
C4532 H4556 0.950 . S
C4533 C4550 1.574 . S
C4533 C4552 1.368 . S
C4533 H4557 0.949 . S
H4534 C4538 0.949 . S
C4535 C4536 1.349 . S
C4535 C4537 1.327 . S
C4535 H4558 0.950 . S
C4536 C4535 1.349 . S
C4536 C4548 1.349 . S
C4537 C4535 1.327 . S
C4537 C4553 1.429 . S
C4537 H4559 0.950 . S
C4538 H4534 0.949 . S
C4538 C4546 1.574 . S
C4538 C4554 1.368 . S
H4539 C4547 0.950 . S
H4540 C4545 0.950 . S
H4541 C4546 0.949 . S
H4542 C4548 0.950 . S
H4543 C4549 0.950 . S
H4544 C4550 0.949 . S
C4545 H4540 0.950 . S
C4545 C4547 1.327 . S
C4545 C4551 1.429 . S
C4546 C4538 1.574 . S
C4546 H4541 0.949 . S
C4546 C4552 1.368 . S
C4547 C4531 1.349 . S
C4547 H4539 0.950 . S
C4547 C4545 1.327 . S
C4548 C4536 1.349 . S
C4548 H4542 0.950 . S
C4548 C4549 1.327 . S
C4549 H4543 0.950 . S
C4549 C4548 1.327 . S
C4549 C4553 1.429 . S
C4550 C4533 1.574 . S
C4550 H4544 0.949 . S
C4550 C4554 1.368 . S
C4551 C4532 1.429 . S
C4551 C4545 1.429 . S
C4551 C4552 1.523 . S
C4552 C4533 1.368 . S
C4552 C4546 1.368 . S
C4552 C4551 1.523 . S
C4553 C4537 1.429 . S
C4553 C4549 1.429 . S
C4553 C4554 1.523 . S
C4554 C4538 1.368 . S
C4554 C4550 1.368 . S
C4554 C4553 1.523 . S
H4555 C4530 0.950 . S
H4556 C4532 0.950 . S
H4557 C4533 0.949 . S
H4558 C4535 0.950 . S
H4559 C4537 0.950 . S
C1681 C105 2.014 1_455 S
C1686 C392 2.021 . S
C1711 C65 1.856 . S
C1716 C494 1.838 . S
C1741 C73 1.804 . S
C1746 C560 1.818 . S
C1776 C646 1.469 . S
C1771 C92 1.576 . S
C1801 C17 1.643 . S
C1806 C730 1.517 . S
C1836 C812 1.791 . S
C1831 C37 1.758 . S
C1866 C914 1.855 . S
C1861 C49 1.786 . S
C1891 C8 1.956 . S
C1896 C980 1.954 . S
C1926 C410 1.545 . S
C1921 C231 1.557 . S
C1951 C241 0.909 . S
C1956 C478 0.873 . S
C1986 C578 1.096 . S
C1981 C273 1.071 . S
C2016 C644 1.607 . S
C2011 C171 1.606 1_556 S
C2041 C227 1.592 . S
C2046 C728 1.593 . S
C2076 C830 1.101 . S
C2071 C245 1.075 . S
C2106 C898 0.873 . S
C2101 C269 0.909 . S
C2136 C998 1.537 . S
C2131 C175 1.549 . S
C2166 C394 0.892 1_565 S
C2161 C162 0.913 1_554 S
C2191 C289 1.701 . S
C2196 C1082 1.680 . S
C2226 C1150 1.298 . S
C2221 C330 1.370 . S
C2256 C1232 0.803 . S
C2251 C317 0.801 . S
C2281 C120 0.875 . S
C2286 C982 0.854 . S
C2311 C134 1.388 . S
C2316 C562 1.313 . S
C2341 C331 1.657 . S
C2346 C1334 1.636 . S
C2376 C1400 0.736 . S
C2371 C303 0.737 . S
C2406 C403 2.055 . S
C2401 C59 2.035 . S
C2436 C1407 1.893 . S
C2431 C107 1.904 . S
C2461 C91 1.855 . S
C2466 C571 1.878 . S
C2491 C78 1.614 . S
C2496 C1329 1.502 . S
C2526 C741 1.556 . S
C2521 C7 1.643 . S
C2551 C51 1.808 . S
C2556 C1159 1.844 . S
C2586 C903 1.906 1_556 S
C2581 C31 1.925 . S
C2616 C1495 1.994 . S
C2611 C22 1.982 . S
C2646 C399 1.593 . S
C2641 C143 1.627 . S
C2676 C1413 0.910 . S
C2671 C315 0.939 . S
C2701 C115 1.152 . S
C2706 C567 1.137 . S
C2731 C287 1.626 . S
C2736 C1327 1.661 . S
C2761 C147 1.616 . S
C2766 C739 1.650 . S
C2796 C1155 1.143 . S
C2791 C311 1.158 . S
C2821 C119 0.936 . S
C2826 C909 0.908 . S
C2851 C283 1.618 . S
C2856 C1491 1.583 . S
C2881 C190 0.934 . S
C2886 C405 0.906 . S
C2911 C177 1.740 . S
C2916 C1071 1.724 . S
C2941 C260 1.386 . S
C2946 C825 1.313 . S
C2971 C247 0.853 . S
C2976 C1243 0.857 . S
C3006 C1497 0.870 . S
C3001 C274 0.893 1_565 S
C3031 C218 1.408 . S
C3036 C573 1.331 . S
C3066 C651 1.682 . S
C3061 C261 1.698 . S
C3096 C487 0.789 . S
C3091 C205 0.788 . S
C3121 C77 2.017 . S
C3126 C1568 2.021 . S
C3156 C1418 1.838 . S
C3151 C93 1.856 . S
C3181 C101 1.804 . S
C3186 C1652 1.818 . S
C3211 C64 1.576 1_655 S
C3216 C1318 1.469 . S
C3241 C45 1.643 . S
C3246 C1066 1.517 . S
C3276 C1148 1.791 . S
C3271 C9 1.758 . S
C3306 C1250 1.855 . S
C3301 C21 1.787 . S
C3336 C1484 1.954 . S
C3331 C36 1.956 . S
C3366 C1586 1.545 . S
C3361 C259 1.557 . S
C3391 C185 0.909 . S
C3396 C1402 0.873 . S
C3426 C1670 1.095 . S
C3421 C203 1.071 . S
C3456 C1316 1.607 . S
C3451 C213 1.607 . S
C3486 C1064 1.592 . S
C3481 C255 1.591 . S
C3511 C189 1.074 . S
C3516 C1166 1.100 . S
C3546 C1234 0.873 . S
C3541 C199 0.909 . S
C3571 C217 1.549 . S
C3576 C1502 1.537 . S
C3606 C1570 0.892 . S
C3601 C316 0.919 . S
C3631 C135 1.701 . S
C3636 C746 1.680 . S
C3666 C814 1.298 . S
C3661 C148 1.348 1_565 S
C3696 C896 0.803 . S
C3691 C163 0.801 . S
C3726 C1486 0.854 . S
C3721 C302 0.875 . S
C3751 C288 1.387 . S
C3756 C1654 1.313 . S
C3786 C662 1.636 . S
C3781 C149 1.657 . S
C3816 C476 0.736 . S
C3811 C121 0.737 . S
C3841 C87 2.034 . S
C3846 C1579 2.055 . S
C3876 C483 1.893 . S
C3871 C79 1.904 . S
C3901 C63 1.855 . S
C3906 C1663 1.878 . S
C3931 C106 1.614 . S
C3936 C657 1.502 . S
C3961 C35 1.643 . S
C3966 C1077 1.556 . S
C3996 C823 1.844 . S
C3991 C23 1.808 . S
C4021 C3 1.924 . S
C4026 C1239 1.906 . S
C4051 C50 1.982 . S
C4056 C991 1.994 . S
C4086 C1575 1.593 . S
C4081 C325 1.627 . S
C4111 C161 0.939 . S
C4116 C489 0.905 . S
C4146 C1659 1.137 1_655 S
C4141 C297 1.152 . S
C4171 C133 1.626 . S
C4176 C655 1.661 . S
C4201 C329 1.616 . S
C4206 C1075 1.650 . S
C4236 C819 1.144 . S
C4231 C157 1.164 . S
C4261 C301 0.936 . S
C4266 C1245 0.908 . S
C4296 C987 1.583 . S
C4291 C129 1.617 . S
C4326 C1581 0.906 . S
C4321 C246 0.934 . S
C4356 C735 1.724 1_565 S
C4351 C219 1.740 . S
C4381 C232 1.386 . S
C4386 C1161 1.313 . S
C4416 C907 0.857 . S
C4411 C191 0.853 . S
C4441 C204 0.893 . S
C4446 C993 0.870 . S
C4471 C176 1.408 . S
C4476 C1665 1.331 . S
C4506 C1323 1.682 . S
C4501 C233 1.698 . S
C4536 C1411 0.789 . S
C4531 C275 0.788 . S
