# Generated by pormake.
# Topology eea, (3,6)-cn, num edge types: 1
# Building blocks:
#     Node 0, Type 0, BuildingBlock: OLANEW_clean_sbu_2, # of connection points: 3
#     Node 1, Type 0, BuildingBlock: OLANEW_clean_sbu_2, # of connection points: 3
#     Node 2, Type 0, BuildingBlock: OLANEW_clean_sbu_2, # of connection points: 3
#     Node 3, Type 0, BuildingBlock: OLANEW_clean_sbu_2, # of connection points: 3
#     Node 4, Type 0, BuildingBlock: OLANEW_clean_sbu_2, # of connection points: 3
#     Node 5, Type 0, BuildingBlock: OLANEW_clean_sbu_2, # of connection points: 3
#     Node 6, Type 0, BuildingBlock: OLANEW_clean_sbu_2, # of connection points: 3
#     Node 7, Type 0, BuildingBlock: OLANEW_clean_sbu_2, # of connection points: 3
#     Node 8, Type 0, BuildingBlock: OLANEW_clean_sbu_2, # of connection points: 3
#     Node 9, Type 0, BuildingBlock: OLANEW_clean_sbu_2, # of connection points: 3
#     Node 10, Type 0, BuildingBlock: OLANEW_clean_sbu_2, # of connection points: 3
#     Node 11, Type 0, BuildingBlock: OLANEW_clean_sbu_2, # of connection points: 3
#     Node 12, Type 0, BuildingBlock: OLANEW_clean_sbu_2, # of connection points: 3
#     Node 13, Type 0, BuildingBlock: OLANEW_clean_sbu_2, # of connection points: 3
#     Node 14, Type 0, BuildingBlock: OLANEW_clean_sbu_2, # of connection points: 3
#     Node 15, Type 0, BuildingBlock: OLANEW_clean_sbu_2, # of connection points: 3
#     Node 16, Type 0, BuildingBlock: OLANEW_clean_sbu_2, # of connection points: 3
#     Node 17, Type 0, BuildingBlock: OLANEW_clean_sbu_2, # of connection points: 3
#     Node 18, Type 1, BuildingBlock: CUKXOW_clean_sbu_0, # of connection points: 6
#     Node 19, Type 1, BuildingBlock: CUKXOW_clean_sbu_0, # of connection points: 6
#     Node 20, Type 1, BuildingBlock: CUKXOW_clean_sbu_0, # of connection points: 6
#     Node 21, Type 1, BuildingBlock: CUKXOW_clean_sbu_0, # of connection points: 6
#     Node 22, Type 1, BuildingBlock: CUKXOW_clean_sbu_0, # of connection points: 6
#     Node 23, Type 1, BuildingBlock: CUKXOW_clean_sbu_0, # of connection points: 6
#     Node 24, Type 1, BuildingBlock: CUKXOW_clean_sbu_0, # of connection points: 6
#     Node 25, Type 1, BuildingBlock: CUKXOW_clean_sbu_0, # of connection points: 6
#     Node 26, Type 1, BuildingBlock: CUKXOW_clean_sbu_0, # of connection points: 6
#     Edge 27, Type (0, 1), BuildingBlock: MIFKUJ_clean_linker_0, # of connection points: 2
#     Edge 28, Type (0, 1), BuildingBlock: MIFKUJ_clean_linker_0, # of connection points: 2
#     Edge 29, Type (0, 1), BuildingBlock: MIFKUJ_clean_linker_0, # of connection points: 2
#     Edge 30, Type (0, 1), BuildingBlock: MIFKUJ_clean_linker_0, # of connection points: 2
#     Edge 31, Type (0, 1), BuildingBlock: MIFKUJ_clean_linker_0, # of connection points: 2
#     Edge 32, Type (0, 1), BuildingBlock: MIFKUJ_clean_linker_0, # of connection points: 2
#     Edge 33, Type (0, 1), BuildingBlock: MIFKUJ_clean_linker_0, # of connection points: 2
#     Edge 34, Type (0, 1), BuildingBlock: MIFKUJ_clean_linker_0, # of connection points: 2
#     Edge 35, Type (0, 1), BuildingBlock: MIFKUJ_clean_linker_0, # of connection points: 2
#     Edge 36, Type (0, 1), BuildingBlock: MIFKUJ_clean_linker_0, # of connection points: 2
#     Edge 37, Type (0, 1), BuildingBlock: MIFKUJ_clean_linker_0, # of connection points: 2
#     Edge 38, Type (0, 1), BuildingBlock: MIFKUJ_clean_linker_0, # of connection points: 2
#     Edge 39, Type (0, 1), BuildingBlock: MIFKUJ_clean_linker_0, # of connection points: 2
#     Edge 40, Type (0, 1), BuildingBlock: MIFKUJ_clean_linker_0, # of connection points: 2
#     Edge 41, Type (0, 1), BuildingBlock: MIFKUJ_clean_linker_0, # of connection points: 2
#     Edge 42, Type (0, 1), BuildingBlock: MIFKUJ_clean_linker_0, # of connection points: 2
#     Edge 43, Type (0, 1), BuildingBlock: MIFKUJ_clean_linker_0, # of connection points: 2
#     Edge 44, Type (0, 1), BuildingBlock: MIFKUJ_clean_linker_0, # of connection points: 2
#     Edge 45, Type (0, 1), BuildingBlock: MIFKUJ_clean_linker_0, # of connection points: 2
#     Edge 46, Type (0, 1), BuildingBlock: MIFKUJ_clean_linker_0, # of connection points: 2
#     Edge 47, Type (0, 1), BuildingBlock: MIFKUJ_clean_linker_0, # of connection points: 2
#     Edge 48, Type (0, 1), BuildingBlock: MIFKUJ_clean_linker_0, # of connection points: 2
#     Edge 49, Type (0, 1), BuildingBlock: MIFKUJ_clean_linker_0, # of connection points: 2
#     Edge 50, Type (0, 1), BuildingBlock: MIFKUJ_clean_linker_0, # of connection points: 2
#     Edge 51, Type (0, 1), BuildingBlock: MIFKUJ_clean_linker_0, # of connection points: 2
#     Edge 52, Type (0, 1), BuildingBlock: MIFKUJ_clean_linker_0, # of connection points: 2
#     Edge 53, Type (0, 1), BuildingBlock: MIFKUJ_clean_linker_0, # of connection points: 2
#     Edge 54, Type (0, 1), BuildingBlock: MIFKUJ_clean_linker_0, # of connection points: 2
#     Edge 55, Type (0, 1), BuildingBlock: MIFKUJ_clean_linker_0, # of connection points: 2
#     Edge 56, Type (0, 1), BuildingBlock: MIFKUJ_clean_linker_0, # of connection points: 2
#     Edge 57, Type (0, 1), BuildingBlock: MIFKUJ_clean_linker_0, # of connection points: 2
#     Edge 58, Type (0, 1), BuildingBlock: MIFKUJ_clean_linker_0, # of connection points: 2
#     Edge 59, Type (0, 1), BuildingBlock: MIFKUJ_clean_linker_0, # of connection points: 2
#     Edge 60, Type (0, 1), BuildingBlock: MIFKUJ_clean_linker_0, # of connection points: 2
#     Edge 61, Type (0, 1), BuildingBlock: MIFKUJ_clean_linker_0, # of connection points: 2
#     Edge 62, Type (0, 1), BuildingBlock: MIFKUJ_clean_linker_0, # of connection points: 2
#     Edge 63, Type (0, 1), BuildingBlock: MIFKUJ_clean_linker_0, # of connection points: 2
#     Edge 64, Type (0, 1), BuildingBlock: MIFKUJ_clean_linker_0, # of connection points: 2
#     Edge 65, Type (0, 1), BuildingBlock: MIFKUJ_clean_linker_0, # of connection points: 2
#     Edge 66, Type (0, 1), BuildingBlock: MIFKUJ_clean_linker_0, # of connection points: 2
#     Edge 67, Type (0, 1), BuildingBlock: MIFKUJ_clean_linker_0, # of connection points: 2
#     Edge 68, Type (0, 1), BuildingBlock: MIFKUJ_clean_linker_0, # of connection points: 2
#     Edge 69, Type (0, 1), BuildingBlock: MIFKUJ_clean_linker_0, # of connection points: 2
#     Edge 70, Type (0, 1), BuildingBlock: MIFKUJ_clean_linker_0, # of connection points: 2
#     Edge 71, Type (0, 1), BuildingBlock: MIFKUJ_clean_linker_0, # of connection points: 2
#     Edge 72, Type (0, 1), BuildingBlock: MIFKUJ_clean_linker_0, # of connection points: 2
#     Edge 73, Type (0, 1), BuildingBlock: MIFKUJ_clean_linker_0, # of connection points: 2
#     Edge 74, Type (0, 1), BuildingBlock: MIFKUJ_clean_linker_0, # of connection points: 2
#     Edge 75, Type (0, 1), BuildingBlock: MIFKUJ_clean_linker_0, # of connection points: 2
#     Edge 76, Type (0, 1), BuildingBlock: MIFKUJ_clean_linker_0, # of connection points: 2
#     Edge 77, Type (0, 1), BuildingBlock: MIFKUJ_clean_linker_0, # of connection points: 2
#     Edge 78, Type (0, 1), BuildingBlock: MIFKUJ_clean_linker_0, # of connection points: 2
#     Edge 79, Type (0, 1), BuildingBlock: MIFKUJ_clean_linker_0, # of connection points: 2
#     Edge 80, Type (0, 1), BuildingBlock: MIFKUJ_clean_linker_0, # of connection points: 2
# Relax obj value: 0.013
# Max RMSD: 0.118
# Mean RMSD: 0.063
data_MOF--net-eea--node1-OLANEW_clean_sbu_2--node2-CUKXOW_clean_sbu_0--edge1-MIFKUJ_clean_linker_0
_symmetry_space_group_name_H-M    P1
_symmetry_Int_Tables_number       1
_symmetry_cell_setting            triclinic
loop_
_symmetry_equiv_pos_as_xyz
'x, y, z'
_cell_length_a     82.873875
_cell_length_b     78.120195
_cell_length_c     67.733651
_cell_angle_alpha  96.733311
_cell_angle_beta   93.124931
_cell_angle_gamma 120.6082
loop_
_atom_site_label
_atom_site_type_symbol
_atom_site_fract_x
_atom_site_fract_y
_atom_site_fract_z
_atom_type_partial_charge
O0 O 0.24153 0.13789 0.44987 0.0
Cd1 Cd 0.22703 0.12909 0.41489 0.0
O2 O 0.26879 0.14293 0.44179 0.0
Cd3 Cd 0.2561 0.12611 0.41151 0.0
O4 O 0.24412 0.09638 0.39304 0.0
C5 C 0.22843 0.08205 0.39659 0.0
O6 O 0.21942 0.08606 0.41 0.0
C7 C 0.25879 0.14377 0.45502 0.0
C8 C 0.22168 0.1594 0.40368 0.0
O9 O 0.20888 0.14486 0.4112 0.0
O10 O 0.23703 0.15961 0.40139 0.0
O11 O 0.88878 0.13692 0.43459 0.0
Cd12 Cd 0.89757 0.12787 0.4029 0.0
O13 O 0.90611 0.12926 0.45298 0.0
Cd14 Cd 0.90455 0.10905 0.4269 0.0
O15 O 0.88138 0.07912 0.41278 0.0
C16 C 0.86637 0.07365 0.42087 0.0
O17 O 0.86654 0.08611 0.43584 0.0
C18 C 0.89596 0.13708 0.45174 0.0
C19 C 0.93537 0.1558 0.40015 0.0
O20 O 0.92227 0.15941 0.39582 0.0
O21 O 0.93065 0.13888 0.40563 0.0
O22 O 0.91133 0.76139 0.462 0.0
Cd23 Cd 0.91905 0.77934 0.43354 0.0
O24 O 0.89587 0.77572 0.47324 0.0
Cd25 Cd 0.89515 0.78921 0.44706 0.0
O26 O 0.87645 0.79588 0.43011 0.0
C27 C 0.85979 0.78716 0.43486 0.0
O28 O 0.85582 0.77534 0.44842 0.0
C29 C 0.90248 0.76441 0.47539 0.0
C30 C 0.95192 0.78306 0.42084 0.0
O31 O 0.95263 0.79488 0.43611 0.0
O32 O 0.93566 0.76956 0.41132 0.0
O33 O 0.13379 0.23703 0.54487 0.0
Cd34 Cd 0.124 0.21333 0.5685 0.0
O35 O 0.11326 0.24466 0.55468 0.0
Cd36 Cd 0.09618 0.25852 0.55857 0.0
O37 O 0.07257 0.25892 0.57099 0.0
C38 C 0.05714 0.24199 0.56848 0.0
O39 O 0.05639 0.22623 0.55809 0.0
C40 C 0.12577 0.24709 0.54336 0.0
C41 C 0.15452 0.21524 0.59034 0.0
O42 O 0.14713 0.204 0.5731 0.0
O43 O 0.14754 0.22571 0.59722 0.0
O44 O 0.73863 0.83798 0.60236 0.0
Cd45 Cd 0.752 0.84247 0.63695 0.0
O46 O 0.76198 0.8689 0.60291 0.0
Cd47 Cd 0.77519 0.89729 0.59141 0.0
O48 O 0.78305 0.92872 0.59356 0.0
C49 C 0.77088 0.93285 0.59931 0.0
O50 O 0.75443 0.91807 0.60251 0.0
C51 C 0.74721 0.85313 0.59361 0.0
C52 C 0.77082 0.82186 0.64177 0.0
O53 O 0.75335 0.81396 0.64419 0.0
O54 O 0.77934 0.83942 0.6368 0.0
O55 O 0.12615 0.89504 0.56521 0.0
Cd56 Cd 0.11862 0.90362 0.59789 0.0
O57 O 0.13075 0.87159 0.57445 0.0
Cd58 Cd 0.13669 0.886 0.60577 0.0
O59 O 0.1578 0.91267 0.627 0.0
C60 C 0.15407 0.92446 0.63756 0.0
O61 O 0.13642 0.91983 0.63708 0.0
C62 C 0.12878 0.88046 0.56074 0.0
C63 C 0.08471 0.87149 0.60609 0.0
O64 O 0.08477 0.8841 0.59553 0.0
O65 O 0.10068 0.87414 0.61294 0.0
O66 O 0.9195 0.47519 0.78472 0.0
Cd67 Cd 0.90076 0.45995 0.75156 0.0
O68 O 0.94691 0.48734 0.77324 0.0
Cd69 Cd 0.93284 0.46975 0.74359 0.0
O70 O 0.91627 0.44031 0.72435 0.0
C71 C 0.92487 0.43143 0.71853 0.0
O72 O 0.94334 0.44097 0.72306 0.0
C73 C 0.93749 0.48557 0.78788 0.0
C74 C 0.89591 0.48798 0.73429 0.0
O75 O 0.88381 0.47635 0.74483 0.0
O76 O 0.91024 0.48622 0.73175 0.0
O77 O 0.57266 0.51981 0.77126 0.0
Cd78 Cd 0.57905 0.51536 0.73694 0.0
O79 O 0.56026 0.48721 0.76753 0.0
Cd80 Cd 0.54311 0.45691 0.77458 0.0
O81 O 0.52242 0.42484 0.77204 0.0
C82 C 0.50498 0.41909 0.76956 0.0
O83 O 0.50018 0.43272 0.76945 0.0
C84 C 0.56419 0.50359 0.77843 0.0
C85 C 0.61732 0.53128 0.73434 0.0
O86 O 0.60958 0.5417 0.73223 0.0
O87 O 0.60695 0.51328 0.73786 0.0
O88 O 0.55986 0.07434 0.78568 0.0
Cd89 Cd 0.56225 0.08612 0.75344 0.0
O90 O 0.52911 0.06172 0.78226 0.0
Cd91 Cd 0.52624 0.07322 0.7553 0.0
O92 O 0.50912 0.08339 0.74094 0.0
C93 C 0.49936 0.08695 0.75272 0.0
O94 O 0.50087 0.08465 0.77152 0.0
C95 C 0.54402 0.06462 0.79214 0.0
C96 C 0.5978 0.09963 0.74116 0.0
O97 O 0.59394 0.11204 0.75062 0.0
O98 O 0.58487 0.08088 0.73758 0.0
O99 O 0.80394 0.58276 0.892 0.0
Cd100 Cd 0.79198 0.56258 0.91854 0.0
O101 O 0.79553 0.60487 0.90085 0.0
Cd102 Cd 0.7788 0.58956 0.9239 0.0
O103 O 0.75347 0.57902 0.93892 0.0
C104 C 0.73878 0.57576 0.92821 0.0
O105 O 0.73984 0.57835 0.9094 0.0
C106 C 0.80369 0.59849 0.8894 0.0
C107 C 0.81894 0.55414 0.93316 0.0
O108 O 0.80723 0.54341 0.91733 0.0
O109 O 0.81774 0.56868 0.94233 0.0
O110 O 0.39062 0.14883 0.93254 0.0
Cd111 Cd 0.39927 0.1511 0.96819 0.0
O112 O 0.40901 0.18167 0.93756 0.0
Cd113 Cd 0.42071 0.21201 0.93038 0.0
O114 O 0.43167 0.24424 0.93257 0.0
C115 C 0.42049 0.25062 0.93554 0.0
O116 O 0.40259 0.23749 0.93628 0.0
C117 C 0.39781 0.16527 0.92567 0.0
C118 C 0.42007 0.13288 0.97453 0.0
O119 O 0.40197 0.12285 0.973 0.0
O120 O 0.42839 0.15163 0.97306 0.0
O121 O 0.78261 0.19735 0.90214 0.0
Cd122 Cd 0.77668 0.20716 0.93532 0.0
O123 O 0.8072 0.19603 0.91372 0.0
Cd124 Cd 0.80985 0.21237 0.94337 0.0
O125 O 0.82514 0.24092 0.96435 0.0
C126 C 0.82022 0.25389 0.96409 0.0
O127 O 0.80499 0.24919 0.95219 0.0
C128 C 0.79536 0.19322 0.8991 0.0
C129 C 0.74145 0.17766 0.94384 0.0
O130 O 0.74316 0.19207 0.93506 0.0
O131 O 0.75641 0.17726 0.94867 0.0
O132 O 0.56656 0.79001 0.12399 0.0
Cd133 Cd 0.55137 0.7771 0.08919 0.0
O134 O 0.59504 0.80617 0.11496 0.0
Cd135 Cd 0.58471 0.78932 0.08447 0.0
O136 O 0.57438 0.76073 0.06451 0.0
C137 C 0.58554 0.7541 0.06337 0.0
O138 O 0.60281 0.76533 0.07297 0.0
C139 C 0.58432 0.80207 0.12863 0.0
C140 C 0.54693 0.80579 0.07267 0.0
O141 O 0.5335 0.7921 0.08043 0.0
O142 O 0.56243 0.80587 0.07264 0.0
O143 O 0.22494 0.80295 0.10278 0.0
Cd144 Cd 0.22909 0.79065 0.06965 0.0
O145 O 0.23677 0.78761 0.11803 0.0
Cd146 Cd 0.23158 0.76756 0.09005 0.0
O147 O 0.20988 0.74022 0.07001 0.0
C148 C 0.20536 0.72337 0.07517 0.0
O149 O 0.21488 0.72322 0.09124 0.0
C150 C 0.23075 0.79971 0.11891 0.0
C151 C 0.26623 0.81442 0.06162 0.0
O152 O 0.25335 0.81795 0.05592 0.0
O153 O 0.26155 0.79962 0.07107 0.0
O154 O 0.22137 0.37664 0.1092 0.0
Cd155 Cd 0.22432 0.38058 0.07404 0.0
O156 O 0.20033 0.3855 0.10695 0.0
Cd157 Cd 0.1772 0.39 0.11431 0.0
O158 O 0.15449 0.39631 0.1103 0.0
C159 C 0.15789 0.41417 0.11508 0.0
O160 O 0.17497 0.4285 0.12342 0.0
C161 C 0.20942 0.37976 0.1173 0.0
C162 C 0.26127 0.39816 0.06495 0.0
O163 O 0.25399 0.40893 0.06949 0.0
O164 O 0.25115 0.37913 0.06498 0.0
O165 O 0.4568 0.88922 0.22064 0.0
Cd166 Cd 0.44855 0.87707 0.25236 0.0
O167 O 0.46575 0.92015 0.23451 0.0
Cd168 Cd 0.45175 0.91064 0.26088 0.0
O169 O 0.42662 0.90277 0.27545 0.0
C170 C 0.41648 0.90906 0.2683 0.0
O171 O 0.42212 0.91966 0.25372 0.0
C172 C 0.46438 0.90784 0.2195 0.0
C173 C 0.47701 0.87218 0.26936 0.0
O174 O 0.46181 0.85706 0.2594 0.0
O175 O 0.47861 0.88951 0.27157 0.0
O176 O 0.09027 0.53339 0.2633 0.0
Cd177 Cd 0.10767 0.54302 0.29697 0.0
O178 O 0.1161 0.54383 0.2489 0.0
Cd179 Cd 0.1337 0.56304 0.2768 0.0
O180 O 0.14436 0.59309 0.2939 0.0
C181 C 0.15464 0.60791 0.28528 0.0
O182 O 0.15932 0.6043 0.26772 0.0
C183 C 0.09816 0.53467 0.2475 0.0
C184 C 0.11697 0.51439 0.30413 0.0
O185 O 0.10142 0.51263 0.30859 0.0
O186 O 0.12823 0.52982 0.29653 0.0
O187 O 0.45595 0.53437 0.24372 0.0
Cd188 Cd 0.45076 0.54174 0.27816 0.0
O189 O 0.47731 0.52742 0.25397 0.0
Cd190 Cd 0.48212 0.5441 0.28401 0.0
O191 O 0.4991 0.57434 0.30177 0.0
C192 C 0.49707 0.58816 0.29609 0.0
O193 O 0.48403 0.58328 0.281 0.0
C194 C 0.46679 0.5277 0.23978 0.0
C195 C 0.4136 0.51543 0.28464 0.0
O196 O 0.41872 0.53301 0.28068 0.0
O197 O 0.42601 0.5103 0.28554 0.0
Tb198 Tb 0.53027 0.99898 0.00466 0.0
C199 C 0.51591 0.95285 0.00152 0.0
Tb200 Tb 0.48775 0.96912 0.00505 0.0
O201 O 0.53734 0.99663 0.03549 0.0
O202 O 0.51087 0.99186 0.02578 0.0
O203 O 0.52914 0.97037 0.99701 0.0
C204 C 0.45394 0.9425 0.01435 0.0
O205 O 0.49921 0.94949 0.00592 0.0
C206 C 0.49801 0.97814 0.96994 0.0
C207 C 0.50172 0.01497 0.00856 0.0
O208 O 0.47005 0.94901 0.02508 0.0
O209 O 0.45691 0.95089 0.99845 0.0
O210 O 0.48121 0.97253 0.97451 0.0
O211 O 0.50727 0.97628 0.98394 0.0
O212 O 0.48876 0.99741 0.0131 0.0
O213 O 0.51839 0.01847 0.00382 0.0
C214 C 0.56294 0.02665 0.99393 0.0
O215 O 0.54626 0.0223 0.98667 0.0
O216 O 0.56129 0.01546 0.00733 0.0
C217 C 0.52044 0.99059 0.03992 0.0
Tb218 Tb 0.98748 0.50688 0.01799 0.0
C219 C 0.03149 0.53523 0.02296 0.0
Tb220 Tb 0.013 0.48854 0.02199 0.0
O221 O 0.9983 0.52316 0.04905 0.0
O222 O 0.9969 0.49597 0.04017 0.0
O223 O 0.01518 0.53218 0.01453 0.0
C224 C 0.03365 0.47458 0.03662 0.0
O225 O 0.03291 0.52083 0.02998 0.0
C226 C 0.00741 0.49615 0.98638 0.0
C227 C 0.96844 0.45949 0.01769 0.0
O228 O 0.03441 0.49104 0.04422 0.0
O229 O 0.02116 0.4658 0.02062 0.0
O230 O 0.02223 0.49557 0.99253 0.0
O231 O 0.99613 0.49048 0.9991 0.0
O232 O 0.98535 0.46175 0.02207 0.0
O233 O 0.96607 0.47466 0.01456 0.0
C234 C 0.96291 0.51671 0.00467 0.0
O235 O 0.96365 0.51118 0.02191 0.0
O236 O 0.97608 0.51683 0.99503 0.0
C237 C 0.00251 0.51031 0.05442 0.0
Tb238 Tb 0.48492 0.49806 0.00439 0.0
C239 C 0.49324 0.46188 0.99953 0.0
Tb240 Tb 0.52571 0.50743 0.00685 0.0
O241 O 0.48542 0.50524 0.97394 0.0
O242 O 0.50209 0.49458 0.98459 0.0
O243 O 0.48096 0.4678 0.0027 0.0
C244 C 0.5604 0.51923 0.99774 0.0
O245 O 0.51138 0.47483 0.99859 0.0
C246 C 0.511 0.50262 0.04052 0.0
C247 C 0.51749 0.54336 0.01075 0.0
O248 O 0.55536 0.5168 0.01551 0.0
O249 O 0.54598 0.5151 0.98527 0.0
O250 O 0.52396 0.4985 0.03654 0.0
O251 O 0.50841 0.51086 0.02683 0.0
O252 O 0.52947 0.53732 0.00641 0.0
O253 O 0.49986 0.53062 0.0138 0.0
C254 C 0.44972 0.484 0.01284 0.0
O255 O 0.45747 0.4959 -7e-05 0.0
O256 O 0.46184 0.48029 0.02113 0.0
C257 C 0.499 0.50201 0.97048 0.0
Tb258 Tb 0.19466 0.35279 0.34114 0.0
C259 C 0.18506 0.31135 0.35243 0.0
Tb260 Tb 0.15327 0.32257 0.34662 0.0
O261 O 0.20388 0.35601 0.3731 0.0
O262 O 0.17668 0.34903 0.3633 0.0
O263 O 0.19673 0.32639 0.3434 0.0
C264 C 0.1215 0.29695 0.36027 0.0
O265 O 0.16877 0.3089 0.35731 0.0
C266 C 0.15987 0.32435 0.30937 0.0
C267 C 0.16297 0.36418 0.33568 0.0
O268 O 0.12949 0.29201 0.34664 0.0
O269 O 0.13129 0.31634 0.36609 0.0
O270 O 0.14336 0.3187 0.31492 0.0
O271 O 0.17103 0.32644 0.32413 0.0
O272 O 0.15134 0.34902 0.34459 0.0
O273 O 0.1793 0.36677 0.33072 0.0
C274 C 0.22688 0.3789 0.32835 0.0
O275 O 0.21907 0.38334 0.34255 0.0
O276 O 0.21661 0.35971 0.32141 0.0
C277 C 0.18738 0.35096 0.37834 0.0
Tb278 Tb 0.65648 0.84348 0.35895 0.0
C279 C 0.69901 0.87667 0.37073 0.0
Tb280 Tb 0.68583 0.83031 0.36199 0.0
O281 O 0.66134 0.85472 0.39121 0.0
O282 O 0.66663 0.83217 0.38017 0.0
O283 O 0.68253 0.87264 0.36174 0.0
C284 C 0.71375 0.82387 0.37145 0.0
O285 O 0.70229 0.86241 0.37486 0.0
C286 C 0.67293 0.82996 0.32562 0.0
C287 C 0.64332 0.79688 0.352 0.0
O288 O 0.71424 0.83584 0.35943 0.0
O289 O 0.6975 0.81544 0.37813 0.0
O290 O 0.67888 0.81814 0.32971 0.0
O291 O 0.67607 0.8422 0.34116 0.0
O292 O 0.66007 0.80132 0.36059 0.0
O293 O 0.63993 0.81096 0.34744 0.0
C294 C 0.62893 0.84921 0.34569 0.0
O295 O 0.62758 0.83743 0.35833 0.0
O296 O 0.64588 0.858 0.34072 0.0
C297 C 0.66886 0.8443 0.39556 0.0
Tb298 Tb 0.16028 0.83113 0.34223 0.0
C299 C 0.17607 0.80278 0.33409 0.0
Tb300 Tb 0.20299 0.85059 0.33965 0.0
O301 O 0.15352 0.81731 0.31051 0.0
O302 O 0.17879 0.84455 0.32107 0.0
O303 O 0.16267 0.80467 0.34213 0.0
C304 C 0.23712 0.86107 0.32971 0.0
O305 O 0.19155 0.81836 0.32945 0.0
C306 C 0.19343 0.85081 0.37575 0.0
C307 C 0.18712 0.87915 0.34619 0.0
O308 O 0.22987 0.85177 0.34448 0.0
O309 O 0.22522 0.86462 0.3206 0.0
O310 O 0.20949 0.86461 0.37127 0.0
O311 O 0.18451 0.83716 0.36074 0.0
O312 O 0.20101 0.87721 0.3396 0.0
O313 O 0.17106 0.86359 0.34991 0.0
C314 C 0.12678 0.82021 0.35451 0.0
O315 O 0.1311 0.82426 0.33682 0.0
O316 O 0.14127 0.82218 0.3652 0.0
C317 C 0.16967 0.83099 0.306 0.0
Tb318 Tb 0.8825 0.68925 0.6778 0.0
C319 C 0.86895 0.6442 0.68097 0.0
Tb320 Tb 0.84087 0.66096 0.68248 0.0
O321 O 0.89117 0.68736 0.70818 0.0
O322 O 0.86517 0.6851 0.70084 0.0
O323 O 0.88245 0.66115 0.67577 0.0
C324 C 0.80758 0.63629 0.69404 0.0
O325 O 0.85231 0.64143 0.68496 0.0
C326 C 0.84818 0.66575 0.64559 0.0
C327 C 0.85401 0.7051 0.68009 0.0
O328 O 0.82386 0.64054 0.70272 0.0
O329 O 0.81014 0.64589 0.67907 0.0
O330 O 0.83212 0.66147 0.65144 0.0
O331 O 0.85825 0.66518 0.65967 0.0
O332 O 0.84336 0.69 0.68949 0.0
O333 O 0.86878 0.70639 0.672 0.0
C334 C 0.91442 0.71535 0.66462 0.0
O335 O 0.90176 0.69758 0.65499 0.0
O336 O 0.90926 0.71829 0.68183 0.0
C337 C 0.87538 0.68394 0.71438 0.0
Tb338 Tb 0.31827 0.17637 0.6955 0.0
C339 C 0.36214 0.2112 0.70081 0.0
Tb340 Tb 0.3483 0.16512 0.69149 0.0
O341 O 0.31402 0.16764 0.72529 0.0
O342 O 0.34001 0.17806 0.71478 0.0
O343 O 0.34414 0.20624 0.69806 0.0
C344 C 0.37133 0.15138 0.69834 0.0
O345 O 0.36711 0.19748 0.70072 0.0
C346 C 0.33603 0.17211 0.6587 0.0
C347 C 0.30484 0.13057 0.68765 0.0
O348 O 0.36647 0.15409 0.68097 0.0
O349 O 0.36323 0.15638 0.71176 0.0
O350 O 0.35304 0.17546 0.66252 0.0
O351 O 0.32643 0.16343 0.67204 0.0
O352 O 0.32277 0.13566 0.6917 0.0
O353 O 0.30004 0.14409 0.68524 0.0
C354 C 0.2958 0.19066 0.68833 0.0
O355 O 0.29432 0.17971 0.70193 0.0
O356 O 0.30986 0.19348 0.67875 0.0
C357 C 0.33073 0.17014 0.72855 0.0
Tb358 Tb 0.81282 0.1723 0.6659 0.0
C359 C 0.82377 0.13926 0.65953 0.0
Tb360 Tb 0.855 0.18512 0.66658 0.0
O361 O 0.80655 0.15885 0.63397 0.0
O362 O 0.83341 0.18257 0.6462 0.0
O363 O 0.81196 0.14406 0.6673 0.0
C364 C 0.88912 0.19664 0.65613 0.0
O365 O 0.84044 0.15301 0.65525 0.0
C366 C 0.84055 0.17545 0.70012 0.0
C367 C 0.84432 0.21893 0.67147 0.0
O368 O 0.87319 0.18202 0.64629 0.0
O369 O 0.88594 0.20498 0.67203 0.0
O370 O 0.85492 0.17424 0.6952 0.0
O371 O 0.83669 0.18391 0.68762 0.0
O372 O 0.85735 0.21428 0.66766 0.0
O373 O 0.82644 0.20517 0.67294 0.0
C374 C 0.77901 0.16294 0.67577 0.0
O375 O 0.78789 0.17529 0.66352 0.0
O376 O 0.78923 0.15615 0.68256 0.0
C377 C 0.82396 0.16986 0.63074 0.0
H378 H 0.27931 0.84302 0.03731 0.0
H379 H 0.31172 0.86354 0.02993 0.0
H380 H 0.33008 0.8351 0.06889 0.0
H381 H 0.29764 0.8144 0.0763 0.0
H382 H 0.35403 0.87739 0.07455 0.0
H383 H 0.32517 0.82086 0.02061 0.0
H384 H 0.30072 0.79686 0.99269 0.0
H385 H 0.31174 0.84567 0.96137 0.0
H386 H 0.33609 0.87001 0.98924 0.0
H387 H 0.44552 0.91884 0.0434 0.0
H388 H 0.41405 0.89553 0.05183 0.0
H389 H 0.38877 0.91204 0.00606 0.0
H390 H 0.42003 0.93449 0.99701 0.0
H391 H 0.3685 0.87387 0.0046 0.0
H392 H 0.3956 0.93073 0.05864 0.0
H393 H 0.41999 0.9554 0.08631 0.0
H394 H 0.41198 0.90722 0.11722 0.0
H395 H 0.38773 0.8823 0.08966 0.0
C396 C 0.29023 0.84112 0.04433 0.0
C397 C 0.28589 0.82702 0.05733 0.0
C398 C 0.30873 0.85282 0.04005 0.0
C399 C 0.32325 0.85072 0.04876 0.0
C400 C 0.31906 0.83692 0.06201 0.0
C401 C 0.30051 0.82507 0.06616 0.0
C402 C 0.34279 0.86287 0.04387 0.0
C403 C 0.35729 0.87646 0.05931 0.0
C404 C 0.34691 0.86189 0.02393 0.0
C405 C 0.33233 0.84727 0.0071 0.0
C406 C 0.32228 0.8265 0.00784 0.0
C407 C 0.30845 0.81282 0.99201 0.0
C408 C 0.30464 0.81974 0.97529 0.0
C409 C 0.31469 0.84034 0.97434 0.0
C410 C 0.32851 0.85407 0.99014 0.0
C411 C 0.43319 0.91739 0.03514 0.0
C412 C 0.43514 0.92843 0.01959 0.0
C413 C 0.41523 0.90418 0.04004 0.0
C414 C 0.39899 0.90223 0.02981 0.0
C415 C 0.40102 0.91323 0.01418 0.0
C416 C 0.4189 0.92611 0.00905 0.0
C417 C 0.37982 0.88877 0.03523 0.0
C418 C 0.36534 0.87485 0.01987 0.0
C419 C 0.37568 0.88962 0.05523 0.0
C420 C 0.38999 0.90465 0.07201 0.0
C421 C 0.39912 0.92541 0.07131 0.0
C422 C 0.41291 0.93945 0.08698 0.0
C423 C 0.41759 0.9329 0.1035 0.0
C424 C 0.4084 0.91231 0.10443 0.0
C425 C 0.3946 0.89822 0.0888 0.0
H426 H 0.42831 0.9438 0.11556 0.0
H427 H 0.29394 0.80913 0.96305 0.0
H428 H 0.1222 0.38872 0.09493 0.0
H429 H 0.09944 0.39761 0.08321 0.0
H430 H 0.13788 0.4596 0.11071 0.0
H431 H 0.1607 0.45084 0.12265 0.0
H432 H 0.10096 0.44691 0.11598 0.0
H433 H 0.13582 0.44558 0.06163 0.0
H434 H 0.14829 0.43029 0.03781 0.0
H435 H 0.0917 0.38265 0.01401 0.0
H436 H 0.0789 0.39752 0.03789 0.0
H437 H 0.06496 0.49591 0.06412 0.0
H438 H 0.08472 0.48437 0.07832 0.0
H439 H 0.04805 0.42512 0.0431 0.0
H440 H 0.02879 0.43706 0.02801 0.0
H441 H 0.08268 0.43474 0.04241 0.0
H442 H 0.04746 0.43709 0.09535 0.0
H443 H 0.035 0.45295 0.11845 0.0
H444 H 0.09155 0.49839 0.14494 0.0
H445 H 0.1044 0.48299 0.12174 0.0
C446 C 0.12576 0.40421 0.09868 0.0
C447 C 0.14336 0.41911 0.10958 0.0
C448 C 0.11274 0.40927 0.09191 0.0
C449 C 0.11709 0.42932 0.09586 0.0
C450 C 0.13428 0.44405 0.10746 0.0
C451 C 0.14733 0.43902 0.11422 0.0
C452 C 0.10414 0.43512 0.08706 0.0
C453 C 0.09705 0.4444 0.09989 0.0
C454 C 0.09874 0.43144 0.0661 0.0
C455 C 0.10641 0.42254 0.05169 0.0
C456 C 0.12604 0.43175 0.05142 0.0
C457 C 0.13317 0.42318 0.0379 0.0
C458 C 0.1208 0.40548 0.02445 0.0
C459 C 0.10127 0.39634 0.02446 0.0
C460 C 0.09407 0.40484 0.03798 0.0
C461 C 0.06114 0.48043 0.0594 0.0
C462 C 0.04536 0.46732 0.04504 0.0
C463 C 0.07235 0.47379 0.06764 0.0
C464 C 0.06765 0.45372 0.06217 0.0
C465 C 0.05192 0.44064 0.04765 0.0
C466 C 0.04091 0.44743 0.03906 0.0
C467 C 0.07939 0.44656 0.07129 0.0
C468 C 0.08635 0.43707 0.05852 0.0
C469 C 0.08458 0.44998 0.09232 0.0
C470 C 0.0769 0.45894 0.10672 0.0
C471 C 0.05725 0.4505 0.10606 0.0
C472 C 0.05012 0.45942 0.11916 0.0
C473 C 0.06248 0.47666 0.13316 0.0
C474 C 0.082 0.48501 0.1341 0.0
C475 C 0.08922 0.47618 0.12099 0.0
H476 H 0.05694 0.48351 0.14329 0.0
H477 H 0.12634 0.39887 0.01399 0.0
H478 H 0.54961 0.72529 0.04575 0.0
H479 H 0.53765 0.68973 0.033 0.0
H480 H 0.59366 0.69991 0.04624 0.0
H481 H 0.60578 0.73548 0.05881 0.0
H482 H 0.57528 0.67447 0.01061 0.0
H483 H 0.56226 0.68117 0.07881 0.0
H484 H 0.54913 0.69156 0.10632 0.0
H485 H 0.49329 0.65458 0.07358 0.0
H486 H 0.50615 0.64418 0.04575 0.0
H487 H 0.55412 0.57506 0.01642 0.0
H488 H 0.56523 0.61102 0.02173 0.0
H489 H 0.50743 0.59691 0.01522 0.0
H490 H 0.49625 0.56095 0.01069 0.0
H491 H 0.52582 0.62457 0.04568 0.0
H492 H 0.53848 0.61577 0.97816 0.0
H493 H 0.55181 0.60647 0.95007 0.0
H494 H 0.60801 0.64736 0.98064 0.0
H495 H 0.59504 0.6567 0.00904 0.0
C496 C 0.55944 0.72004 0.0457 0.0
C497 C 0.57862 0.73319 0.05349 0.0
C498 C 0.55257 0.69969 0.03847 0.0
C499 C 0.56472 0.69213 0.03897 0.0
C500 C 0.58403 0.70543 0.04578 0.0
C501 C 0.59092 0.72575 0.05302 0.0
C502 C 0.5572 0.6702 0.0335 0.0
C503 C 0.56456 0.66351 0.01833 0.0
C504 C 0.54295 0.65593 0.04334 0.0
C505 C 0.53519 0.66207 0.06012 0.0
C506 C 0.5472 0.67537 0.07742 0.0
C507 C 0.53981 0.68124 0.09308 0.0
C508 C 0.52039 0.67378 0.09168 0.0
C509 C 0.50833 0.66038 0.07463 0.0
C510 C 0.51566 0.65448 0.05892 0.0
C511 C 0.54377 0.57962 0.01601 0.0
C512 C 0.5243 0.56515 0.01322 0.0
C513 C 0.55015 0.60021 0.0189 0.0
C514 C 0.53718 0.60675 0.01859 0.0
C515 C 0.51772 0.59228 0.01553 0.0
C516 C 0.51135 0.57171 0.01295 0.0
C517 C 0.54383 0.62862 0.02264 0.0
C518 C 0.53638 0.63537 0.03769 0.0
C519 C 0.55798 0.6429 0.01263 0.0
C520 C 0.56576 0.63684 0.9958 0.0
C521 C 0.55367 0.62262 0.97899 0.0
C522 C 0.56117 0.61738 0.96299 0.0
C523 C 0.58074 0.62637 0.96356 0.0
C524 C 0.59286 0.64046 0.98021 0.0
C525 C 0.58544 0.64573 0.99625 0.0
H526 H 0.58654 0.62252 0.95107 0.0
H527 H 0.51469 0.67834 0.10381 0.0
H528 H 0.81398 0.28522 0.96674 0.0
H529 H 0.83663 0.32072 0.98034 0.0
H530 H 0.87793 0.30567 0.99864 0.0
H531 H 0.85526 0.2701 0.98546 0.0
H532 H 0.88009 0.33506 0.02599 0.0
H533 H 0.8777 0.32185 0.95409 0.0
H534 H 0.86213 0.30997 0.91907 0.0
H535 H 0.84356 0.35233 0.92599 0.0
H536 H 0.85882 0.36428 0.96116 0.0
H537 H 0.96711 0.42481 0.02385 0.0
H538 H 0.93948 0.39076 0.01892 0.0
H539 H 0.90367 0.41337 0.00249 0.0
H540 H 0.93132 0.44757 0.00712 0.0
H541 H 0.89646 0.38119 0.97608 0.0
H542 H 0.90276 0.39733 0.04732 0.0
H543 H 0.91972 0.40966 0.08175 0.0
H544 H 0.93204 0.3623 0.07594 0.0
H545 H 0.9154 0.34986 0.04135 0.0
C546 C 0.82778 0.2894 0.97394 0.0
C547 C 0.83289 0.27485 0.97477 0.0
C548 C 0.84073 0.30972 0.98166 0.0
C549 C 0.8591 0.3159 0.99015 0.0
C550 C 0.86386 0.30126 0.99208 0.0
C551 C 0.85088 0.28092 0.98447 0.0
C552 C 0.8738 0.33766 0.99559 0.0
C553 C 0.88375 0.34515 0.01507 0.0
C554 C 0.87833 0.35091 0.98145 0.0
C555 C 0.8692 0.34378 0.96031 0.0
C556 C 0.87017 0.32852 0.94819 0.0
C557 C 0.86142 0.32179 0.92831 0.0
C558 C 0.85181 0.33034 0.92033 0.0
C559 C 0.85098 0.34569 0.9322 0.0
C560 C 0.85967 0.35245 0.9521 0.0
C561 C 0.95337 0.42264 0.01934 0.0
C562 C 0.95148 0.43898 0.01584 0.0
C563 C 0.93754 0.40313 0.01665 0.0
C564 C 0.91947 0.39954 0.01055 0.0
C565 C 0.91748 0.41582 0.00727 0.0
C566 C 0.93331 0.43537 0.00996 0.0
C567 C 0.90288 0.37862 0.00644 0.0
C568 C 0.89262 0.37124 0.98714 0.0
C569 C 0.89817 0.3655 0.02073 0.0
C570 C 0.90794 0.37274 0.04166 0.0
C571 C 0.90918 0.38961 0.05333 0.0
C572 C 0.91873 0.39662 0.07289 0.0
C573 C 0.92698 0.38679 0.08101 0.0
C574 C 0.92565 0.3699 0.06962 0.0
C575 C 0.91614 0.36284 0.05004 0.0
H576 H 0.93439 0.39226 0.09615 0.0
H577 H 0.84506 0.32512 0.90493 0.0
H578 H 0.73212 0.57167 0.96716 0.0
H579 H 0.70274 0.563 0.9811 0.0
H580 H 0.6758 0.55778 0.92253 0.0
H581 H 0.70508 0.56673 0.9086 0.0
H582 H 0.66798 0.57858 0.9502 0.0
H583 H 0.66709 0.51598 0.94289 0.0
H584 H 0.67966 0.49398 0.94803 0.0
H585 H 0.68159 0.50727 0.01175 0.0
H586 H 0.66926 0.52956 0.007 0.0
H587 H 0.57109 0.52295 0.96069 0.0
H588 H 0.60254 0.53391 0.95122 0.0
H589 H 0.62391 0.54044 0.0129 0.0
H590 H 0.59232 0.52952 0.02245 0.0
H591 H 0.63585 0.52087 0.98666 0.0
H592 H 0.63484 0.58187 0.99371 0.0
H593 H 0.62218 0.60376 0.98843 0.0
H594 H 0.62336 0.59309 0.92504 0.0
H595 H 0.63585 0.57094 0.92991 0.0
C596 C 0.71991 0.5686 0.95725 0.0
C597 C 0.72094 0.56987 0.93676 0.0
C598 C 0.70311 0.5636 0.96522 0.0
C599 C 0.68701 0.5596 0.95283 0.0
C600 C 0.68804 0.56085 0.93239 0.0
C601 C 0.7048 0.5659 0.92444 0.0
C602 C 0.66908 0.55428 0.96104 0.0
C603 C 0.66087 0.56584 0.958 0.0
C604 C 0.66005 0.53801 0.97172 0.0
C605 C 0.66746 0.52462 0.9746 0.0
C606 C 0.67034 0.51434 0.95801 0.0
C607 C 0.6774 0.5018 0.96085 0.0
C608 C 0.68148 0.49928 0.98021 0.0
C609 C 0.67846 0.50926 0.99677 0.0
C610 C 0.67143 0.52184 0.99401 0.0
C611 C 0.58254 0.52686 0.97223 0.0
C612 C 0.57939 0.52561 0.9923 0.0
C613 C 0.60048 0.53313 0.96683 0.0
C614 C 0.61562 0.53823 0.98141 0.0
C615 C 0.61243 0.53665 0.00145 0.0
C616 C 0.59444 0.53046 0.00688 0.0
C617 C 0.63466 0.54496 0.97553 0.0
C618 C 0.64306 0.5337 0.97901 0.0
C619 C 0.64385 0.56148 0.96521 0.0
C620 C 0.63621 0.57468 0.96217 0.0
C621 C 0.63228 0.58408 0.97863 0.0
C622 C 0.62518 0.59657 0.97572 0.0
C623 C 0.62205 0.59987 0.95643 0.0
C624 C 0.62589 0.59059 0.93999 0.0
C625 C 0.633 0.57808 0.94281 0.0
H626 H 0.61665 0.60964 0.95423 0.0
H627 H 0.68693 0.48955 0.98238 0.0
H628 H 0.40627 0.09346 0.97773 0.0
H629 H 0.42417 0.07719 0.98364 0.0
H630 H 0.47641 0.13353 0.98468 0.0
H631 H 0.45857 0.15005 0.97896 0.0
H632 H 0.44807 0.07214 0.96144 0.0
H633 H 0.51027 0.13438 0.01831 0.0
H634 H 0.51793 0.16378 0.04364 0.0
H635 H 0.45956 0.1359 0.05278 0.0
H636 H 0.45161 0.10625 0.0277 0.0
H637 H 0.52488 0.05413 0.00297 0.0
H638 H 0.51542 0.07852 0.99763 0.0
H639 H 0.45844 0.03572 0.00672 0.0
H640 H 0.46765 0.01146 0.01231 0.0
H641 H 0.49418 0.09404 0.02263 0.0
H642 H 0.43204 0.03285 0.96403 0.0
H643 H 0.42475 0.00298 0.93963 0.0
H644 H 0.48379 0.02902 0.93428 0.0
H645 H 0.49139 0.05913 0.95839 0.0
C646 C 0.42157 0.10242 0.97923 0.0
C647 C 0.431 0.12306 0.97793 0.0
C648 C 0.43177 0.09308 0.98253 0.0
C649 C 0.45161 0.10417 0.98471 0.0
C650 C 0.46111 0.12475 0.98326 0.0
C651 C 0.45089 0.13413 0.97994 0.0
C652 C 0.46217 0.094 0.98853 0.0
C653 C 0.45811 0.07693 0.97484 0.0
C654 C 0.47574 0.10061 0.0057 0.0
C655 C 0.48033 0.11824 0.02095 0.0
C656 C 0.49909 0.13452 0.02576 0.0
C657 C 0.50348 0.15122 0.04007 0.0
C658 C 0.48923 0.15174 0.04975 0.0
C659 C 0.47057 0.13552 0.0452 0.0
C660 C 0.46611 0.11878 0.03092 0.0
C661 C 0.51042 0.05005 0.00419 0.0
C662 C 0.49699 0.03079 0.00795 0.0
C663 C 0.50509 0.06402 0.0012 0.0
C664 C 0.48624 0.05877 0.00164 0.0
C665 C 0.47305 0.03995 0.00625 0.0
C666 C 0.47837 0.02612 0.00946 0.0
C667 C 0.47966 0.07204 0.99579 0.0
C668 C 0.48442 0.08958 0.00905 0.0
C669 C 0.46683 0.06599 0.97817 0.0
C670 C 0.46228 0.04817 0.96316 0.0
C671 C 0.44345 0.03225 0.95756 0.0
C672 C 0.43926 0.01526 0.94379 0.0
C673 C 0.4538 0.01407 0.93547 0.0
C674 C 0.47255 0.02991 0.9408 0.0
C675 C 0.4768 0.04692 0.95454 0.0
H676 H 0.45054 0.00089 0.92486 0.0
H677 H 0.49266 0.16468 0.06081 0.0
H678 H 0.70713 0.17395 0.93464 0.0
H679 H 0.67632 0.14806 0.94202 0.0
H680 H 0.70258 0.12007 0.97047 0.0
H681 H 0.73342 0.14573 0.96287 0.0
H682 H 0.67038 0.09219 0.94676 0.0
H683 H 0.68953 0.14942 0.99823 0.0
H684 H 0.70037 0.18487 0.01152 0.0
H685 H 0.65055 0.17824 0.98014 0.0
H686 H 0.63953 0.14281 0.96645 0.0
H687 H 0.59823 0.03358 0.00435 0.0
H688 H 0.62798 0.05903 0.9942 0.0
H689 H 0.59774 0.07971 0.96006 0.0
H690 H 0.5679 0.05405 0.96989 0.0
H691 H 0.63102 0.11112 0.98544 0.0
H692 H 0.61135 0.05389 0.93476 0.0
H693 H 0.60003 0.01828 0.92173 0.0
H694 H 0.65041 0.02483 0.9516 0.0
H695 H 0.6619 0.06044 0.96508 0.0
C696 C 0.70636 0.16229 0.94247 0.0
C697 C 0.72275 0.16196 0.94825 0.0
C698 C 0.68874 0.14753 0.94673 0.0
C699 C 0.68717 0.13224 0.957 0.0
C700 C 0.70346 0.13173 0.96255 0.0
C701 C 0.72109 0.14645 0.95826 0.0
C702 C 0.66856 0.11683 0.96203 0.0
C703 C 0.6619 0.09634 0.95542 0.0
C704 C 0.65723 0.12224 0.97289 0.0
C705 C 0.66381 0.14352 0.98115 0.0
C706 C 0.68096 0.15557 0.99403 0.0
C707 C 0.68713 0.17565 0.00166 0.0
C708 C 0.67618 0.18382 0.99663 0.0
C709 C 0.65903 0.17191 0.984 0.0
C710 C 0.65281 0.15182 0.97632 0.0
C711 C 0.59796 0.04355 0.99466 0.0
C712 C 0.58084 0.04192 0.9879 0.0
C713 C 0.61491 0.05802 0.98885 0.0
C714 C 0.61501 0.07119 0.97635 0.0
C715 C 0.59793 0.06969 0.96973 0.0
C716 C 0.58094 0.05504 0.97531 0.0
C717 C 0.63301 0.08658 0.97032 0.0
C718 C 0.63952 0.10703 0.97673 0.0
C719 C 0.64418 0.08115 0.95927 0.0
C720 C 0.6374 0.05978 0.9511 0.0
C721 C 0.61994 0.04769 0.9387 0.0
C722 C 0.61351 0.02752 0.9312 0.0
C723 C 0.62447 0.01928 0.93588 0.0
C724 C 0.64192 0.03122 0.94801 0.0
C725 C 0.64841 0.05141 0.95557 0.0
H726 H 0.61947 0.00365 0.93006 0.0
H727 H 0.68098 0.19937 0.00256 0.0
H728 H 0.83292 0.53402 0.91166 0.0
H729 H 0.8579 0.52824 0.9232 0.0
H730 H 0.86266 0.55861 0.98267 0.0
H731 H 0.83837 0.5654 0.97084 0.0
H732 H 0.89581 0.56983 0.97502 0.0
H733 H 0.83967 0.5047 0.96863 0.0
H734 H 0.80978 0.47461 0.95195 0.0
H735 H 0.83942 0.46286 0.90739 0.0
H736 H 0.86947 0.49305 0.92366 0.0
H737 H 0.94028 0.52535 0.02593 0.0
H738 H 0.91651 0.53255 0.01294 0.0
H739 H 0.9296 0.52495 0.95298 0.0
H740 H 0.95381 0.51833 0.96597 0.0
H741 H 0.88817 0.50216 0.96052 0.0
H742 H 0.94486 0.5684 0.96933 0.0
H743 H 0.97402 0.59745 0.98868 0.0
H744 H 0.94163 0.60547 0.03222 0.0
H745 H 0.91229 0.57624 0.01328 0.0
C746 C 0.83926 0.5394 0.92722 0.0
C747 C 0.83363 0.55007 0.94038 0.0
C748 C 0.85349 0.53599 0.93385 0.0
C749 C 0.86199 0.54262 0.95395 0.0
C750 C 0.85636 0.55331 0.9671 0.0
C751 C 0.84242 0.55713 0.96036 0.0
C752 C 0.87697 0.53875 0.96117 0.0
C753 C 0.89395 0.55494 0.97202 0.0
C754 C 0.87483 0.51941 0.95708 0.0
C755 C 0.85679 0.50125 0.94725 0.0
C756 C 0.83979 0.49579 0.95519 0.0
C757 C 0.82283 0.4787 0.94582 0.0
C758 C 0.8227 0.46686 0.92859 0.0
C759 C 0.83954 0.47206 0.92072 0.0
C760 C 0.85655 0.48915 0.93002 0.0
C761 C 0.93814 0.52533 0.01001 0.0
C762 C 0.94885 0.52135 0.99694 0.0
C763 C 0.9246 0.52944 0.00263 0.0
C764 C 0.92137 0.52927 0.98204 0.0
C765 C 0.93194 0.52514 0.96892 0.0
C766 C 0.94577 0.52144 0.97635 0.0
C767 C 0.90672 0.53317 0.97425 0.0
C768 C 0.88987 0.51699 0.96338 0.0
C769 C 0.90881 0.55237 0.97866 0.0
C770 C 0.92641 0.57 0.99001 0.0
C771 C 0.94398 0.57623 0.98314 0.0
C772 C 0.96053 0.59276 0.994 0.0
C773 C 0.95969 0.60327 0.0117 0.0
C774 C 0.94227 0.5973 0.01853 0.0
C775 C 0.92567 0.58076 0.00773 0.0
H776 H 0.97252 0.61606 0.02009 0.0
H777 H 0.80955 0.45363 0.92136 0.0
H778 H 0.45712 0.28174 0.93784 0.0
H779 H 0.46949 0.31775 0.94809 0.0
H780 H 0.41304 0.30515 0.95384 0.0
H781 H 0.40049 0.26912 0.94335 0.0
H782 H 0.43293 0.33835 0.93659 0.0
H783 H 0.44266 0.31323 0.99487 0.0
H784 H 0.45416 0.2958 0.0142 0.0
H785 H 0.51128 0.33799 0.00579 0.0
H786 H 0.50008 0.35551 0.98616 0.0
H787 H 0.45661 0.43047 0.99655 0.0
H788 H 0.44446 0.39465 0.98545 0.0
H789 H 0.50109 0.40784 0.97978 0.0
H790 H 0.51344 0.44367 0.99104 0.0
H791 H 0.48132 0.37447 0.99673 0.0
H792 H 0.4719 0.39984 0.93884 0.0
H793 H 0.46066 0.41753 0.91958 0.0
H794 H 0.40333 0.37513 0.9271 0.0
H795 H 0.41426 0.35735 0.94668 0.0
C796 C 0.4473 0.28662 0.94111 0.0
C797 C 0.42783 0.27253 0.93998 0.0
C798 C 0.45441 0.30721 0.94705 0.0
C799 C 0.44222 0.31408 0.95206 0.0
C800 C 0.4227 0.30015 0.95013 0.0
C801 C 0.41557 0.27956 0.94418 0.0
C802 C 0.44986 0.33569 0.95992 0.0
C803 C 0.44334 0.34619 0.94988 0.0
C804 C 0.46374 0.34602 0.97701 0.0
C805 C 0.47051 0.33555 0.98887 0.0
C806 C 0.45766 0.31869 0.99701 0.0
C807 C 0.46412 0.30881 0.00804 0.0
C808 C 0.48343 0.31575 0.01117 0.0
C809 C 0.49632 0.33261 0.00332 0.0
C810 C 0.48993 0.34253 0.99226 0.0
C811 C 0.46653 0.42578 0.99311 0.0
C812 C 0.486 0.44 0.99455 0.0
C813 C 0.45954 0.40529 0.98667 0.0
C814 C 0.47185 0.39864 0.98149 0.0
C815 C 0.49135 0.41268 0.98362 0.0
C816 C 0.49836 0.43317 0.99004 0.0
C817 C 0.46437 0.37711 0.97344 0.0
C818 C 0.47092 0.36663 0.98344 0.0
C819 C 0.45056 0.36682 0.95629 0.0
C820 C 0.44392 0.37738 0.94439 0.0
C821 C 0.45691 0.39438 0.93652 0.0
C822 C 0.45059 0.40441 0.92552 0.0
C823 C 0.4313 0.39749 0.92216 0.0
C824 C 0.41827 0.38049 0.92974 0.0
C825 C 0.42452 0.37042 0.94077 0.0
H826 H 0.42643 0.40527 0.91364 0.0
H827 H 0.48841 0.30808 0.01972 0.0
H828 H 0.19331 0.68502 0.08126 0.0
H829 H 0.1638 0.65417 0.06664 0.0
H830 H 0.14915 0.68781 0.03106 0.0
H831 H 0.17874 0.71892 0.04577 0.0
H832 H 0.12008 0.66336 0.05056 0.0
H833 H 0.1609 0.65587 0.00829 0.0
H834 H 0.18935 0.65551 7e-05 0.0
H835 H 0.1752 0.6071 0.03309 0.0
H836 H 0.1468 0.60735 0.04177 0.0
H837 H 0.03682 0.56825 0.00685 0.0
H838 H 0.06618 0.60121 0.01023 0.0
H839 H 0.0947 0.58062 0.04719 0.0
H840 H 0.06581 0.54785 0.04367 0.0
H841 H 0.11623 0.60014 0.0205 0.0
H842 H 0.07876 0.61142 0.06707 0.0
H843 H 0.05065 0.61197 0.07638 0.0
H844 H 0.05881 0.6533 0.03593 0.0
H845 H 0.08686 0.65279 0.02619 0.0
C846 C 0.18395 0.68587 0.07015 0.0
C847 C 0.18839 0.70445 0.06471 0.0
C848 C 0.1671 0.66818 0.06174 0.0
C849 C 0.15432 0.66865 0.04765 0.0
C850 C 0.15883 0.68711 0.04188 0.0
C851 C 0.17578 0.70484 0.05024 0.0
C852 C 0.13587 0.64998 0.03991 0.0
C853 C 0.11919 0.64963 0.04356 0.0
C854 C 0.13473 0.63202 0.03105 0.0
C855 C 0.15176 0.63172 0.02577 0.0
C856 C 0.16392 0.64524 0.01392 0.0
C857 C 0.18003 0.64504 0.00916 0.0
C858 C 0.1841 0.63131 0.01608 0.0
C859 C 0.17203 0.61772 0.02774 0.0
C860 C 0.15591 0.61787 0.03256 0.0
C861 C 0.04935 0.57078 0.01571 0.0
C862 C 0.04893 0.55538 0.02498 0.0
C863 C 0.06611 0.58963 0.01764 0.0
C864 C 0.08264 0.59342 0.02903 0.0
C865 C 0.08218 0.57803 0.03822 0.0
C866 C 0.06557 0.55927 0.03623 0.0
C867 C 0.10051 0.61336 0.03177 0.0
C868 C 0.11709 0.61396 0.02714 0.0
C869 C 0.10155 0.63151 0.03982 0.0
C870 C 0.08475 0.63187 0.04572 0.0
C871 C 0.07447 0.62049 0.06004 0.0
C872 C 0.05857 0.62082 0.06542 0.0
C873 C 0.05291 0.6326 0.0567 0.0
C874 C 0.06318 0.64414 0.04263 0.0
C875 C 0.07909 0.64384 0.03719 0.0
H876 H 0.04059 0.63284 0.06088 0.0
H877 H 0.19658 0.63118 0.01238 0.0
H878 H 0.28267 0.38084 0.06093 0.0
H879 H 0.31457 0.39584 0.05143 0.0
H880 H 0.31554 0.45094 0.04682 0.0
H881 H 0.28366 0.43612 0.05649 0.0
H882 H 0.32796 0.43694 0.01381 0.0
H883 H 0.33955 0.45078 0.08588 0.0
H884 H 0.3359 0.44237 0.11995 0.0
H885 H 0.35634 0.40225 0.10637 0.0
H886 H 0.35985 0.4102 0.0721 0.0
H887 H 0.4265 0.49879 0.00796 0.0
H888 H 0.39393 0.48402 0.01566 0.0
H889 H 0.39569 0.43336 0.03271 0.0
H890 H 0.42853 0.44872 0.02613 0.0
H891 H 0.38133 0.44521 0.05927 0.0
H892 H 0.36973 0.43057 0.98758 0.0
H893 H 0.37309 0.43789 0.9531 0.0
H894 H 0.35247 0.47806 0.96505 0.0
H895 H 0.34923 0.47118 0.9997 0.0
C896 C 0.28968 0.39617 0.05794 0.0
C897 C 0.28067 0.40732 0.05952 0.0
C898 C 0.3079 0.40471 0.05255 0.0
C899 C 0.3174 0.42451 0.04851 0.0
C900 C 0.30841 0.43563 0.04988 0.0
C901 C 0.29025 0.42717 0.0555 0.0
C902 C 0.33674 0.43355 0.04286 0.0
C903 C 0.33975 0.43907 0.02382 0.0
C904 C 0.35191 0.43576 0.05575 0.0
C905 C 0.34975 0.43091 0.07634 0.0
C906 C 0.34309 0.44001 0.09009 0.0
C907 C 0.34108 0.43536 0.10945 0.0
C908 C 0.34583 0.42174 0.1153 0.0
C909 C 0.35264 0.41277 0.10181 0.0
C910 C 0.35464 0.41735 0.08242 0.0
C911 C 0.41984 0.48448 0.0133 0.0
C912 C 0.42994 0.47492 0.01662 0.0
C913 C 0.40119 0.47595 0.01753 0.0
C914 C 0.3922 0.4574 0.02452 0.0
C915 C 0.40226 0.44766 0.02734 0.0
C916 C 0.42102 0.45644 0.02361 0.0
C917 C 0.37276 0.44869 0.03009 0.0
C918 C 0.36967 0.44321 0.04917 0.0
C919 C 0.35751 0.44637 0.01714 0.0
C920 C 0.35941 0.45051 0.9963 0.0
C921 C 0.36605 0.44109 0.9829 0.0
C922 C 0.36791 0.44513 0.96332 0.0
C923 C 0.36305 0.45847 0.9569 0.0
C924 C 0.35626 0.46775 0.97005 0.0
C925 C 0.35439 0.46377 0.98966 0.0
H926 H 0.3645 0.46159 0.94174 0.0
H927 H 0.34428 0.41817 0.13031 0.0
H928 H 0.57453 0.84092 0.06241 0.0
H929 H 0.57063 0.86615 0.04805 0.0
H930 H 0.51036 0.83034 0.04869 0.0
H931 H 0.51414 0.80516 0.06328 0.0
H932 H 0.52051 0.84391 0.01211 0.0
H933 H 0.53453 0.86997 0.08256 0.0
H934 H 0.55253 0.88214 0.11646 0.0
H935 H 0.60006 0.92924 0.09448 0.0
H936 H 0.58243 0.91714 0.06034 0.0
H937 H 0.49087 0.91344 0.00352 0.0
H938 H 0.49808 0.88847 0.01219 0.0
H939 H 0.5576 0.93077 0.01267 0.0
H940 H 0.5505 0.95608 0.00412 0.0
H941 H 0.54997 0.91458 0.047 0.0
H942 H 0.53456 0.8896 0.97658 0.0
H943 H 0.51534 0.87808 0.94338 0.0
H944 H 0.46961 0.82933 0.96571 0.0
H945 H 0.48844 0.84072 0.99915 0.0
C946 C 0.56044 0.83842 0.05951 0.0
C947 C 0.54463 0.82106 0.06398 0.0
C948 C 0.55826 0.85287 0.05137 0.0
C949 C 0.54022 0.85011 0.04738 0.0
C950 C 0.5244 0.83272 0.05166 0.0
C951 C 0.52659 0.8184 0.06005 0.0
C952 C 0.53779 0.86527 0.03859 0.0
C953 C 0.52683 0.85933 0.01978 0.0
C954 C 0.54644 0.8855 0.04842 0.0
C955 C 0.55727 0.89244 0.06882 0.0
C956 C 0.54893 0.88272 0.08488 0.0
C957 C 0.55903 0.88967 0.10416 0.0
C958 C 0.57746 0.9064 0.10761 0.0
C959 C 0.58581 0.91624 0.09177 0.0
C960 C 0.57577 0.90934 0.07245 0.0
C961 C 0.50548 0.91736 0.00506 0.0
C962 C 0.52012 0.93677 0.00314 0.0
C963 C 0.50957 0.90301 0.00996 0.0
C964 C 0.52837 0.90773 0.01299 0.0
C965 C 0.54299 0.92683 0.01035 0.0
C966 C 0.53889 0.94121 0.00532 0.0
C967 C 0.53268 0.89324 0.02051 0.0
C968 C 0.54391 0.89926 0.03915 0.0
C969 C 0.52423 0.87308 0.01055 0.0
C970 C 0.51288 0.86611 0.99042 0.0
C971 C 0.52035 0.87651 0.97446 0.0
C972 C 0.50954 0.86999 0.95559 0.0
C973 C 0.49126 0.85301 0.95245 0.0
C974 C 0.48377 0.84249 0.96817 0.0
C975 C 0.49452 0.84895 0.98708 0.0
H976 H 0.4829 0.84799 0.93783 0.0
H977 H 0.58525 0.91178 0.12256 0.0
H978 H 0.96425 0.14896 0.39549 0.0
H979 H 0.99687 0.17347 0.39157 0.0
H980 H 0.98438 0.22102 0.39887 0.0
H981 H 0.95151 0.19632 0.40161 0.0
H982 H 0.00322 0.22606 0.37025 0.0
H983 H 0.01349 0.21491 0.43665 0.0
H984 H 0.01139 0.19524 0.46339 0.0
H985 H 0.03977 0.17017 0.43095 0.0
H986 H 0.04193 0.1896 0.40395 0.0
H987 H 0.09981 0.30611 0.38274 0.0
H988 H 0.0691 0.28239 0.39257 0.0
H989 H 0.07284 0.23235 0.36428 0.0
H990 H 0.10334 0.25597 0.35401 0.0
H991 H 0.0595 0.22972 0.40487 0.0
H992 H 0.04808 0.24188 0.33823 0.0
H993 H 0.05121 0.2638 0.31346 0.0
H994 H 0.02533 0.28951 0.34962 0.0
H995 H 0.02231 0.26793 0.37476 0.0
C996 C 0.96852 0.16467 0.39636 0.0
C997 C 0.95534 0.17073 0.39879 0.0
C998 C 0.98724 0.17873 0.3943 0.0
C999 C 0.99329 0.19925 0.39525 0.0
C1000 C 0.98014 0.20532 0.39804 0.0
C1001 C 0.96133 0.19119 0.39963 0.0
C1002 C 0.01296 0.2142 0.39215 0.0
C1003 C 0.01547 0.22703 0.37817 0.0
C1004 C 0.02909 0.21537 0.4021 0.0
C1005 C 0.02772 0.20357 0.41822 0.0
C1006 C 0.01917 0.20509 0.43516 0.0
C1007 C 0.018 0.19402 0.45038 0.0
C1008 C 0.0254 0.18142 0.44884 0.0
C1009 C 0.03401 0.1799 0.4321 0.0
C1010 C 0.03524 0.19097 0.41686 0.0
C1011 C 0.09413 0.29005 0.37876 0.0
C1012 C 0.10378 0.28281 0.36747 0.0
C1013 C 0.07665 0.27656 0.3844 0.0
C1014 C 0.06876 0.25568 0.37907 0.0
C1015 C 0.07877 0.24843 0.36854 0.0
C1016 C 0.09609 0.2619 0.3626 0.0
C1017 C 0.04948 0.24142 0.38325 0.0
C1018 C 0.04712 0.22874 0.39726 0.0
C1019 C 0.03349 0.24062 0.37364 0.0
C1020 C 0.03517 0.25347 0.35847 0.0
C1021 C 0.04322 0.25234 0.34099 0.0
C1022 C 0.04494 0.26467 0.32686 0.0
C1023 C 0.03852 0.27808 0.33 0.0
C1024 C 0.03032 0.27914 0.34723 0.0
C1025 C 0.02859 0.26686 0.36141 0.0
H1026 H 0.03986 0.28761 0.31904 0.0
H1027 H 0.02449 0.17287 0.46064 0.0
H1028 H 0.86298 0.8111 0.40685 0.0
H1029 H 0.8388 0.81746 0.39343 0.0
H1030 H 0.79971 0.77783 0.42986 0.0
H1031 H 0.82354 0.77116 0.44302 0.0
H1032 H 0.78255 0.77115 0.39293 0.0
H1033 H 0.82386 0.82942 0.44354 0.0
H1034 H 0.85446 0.859 0.45947 0.0
H1035 H 0.86041 0.88529 0.40609 0.0
H1036 H 0.82994 0.85573 0.38975 0.0
H1037 H 0.71427 0.79944 0.39666 0.0
H1038 H 0.73988 0.79342 0.405 0.0
H1039 H 0.7736 0.83434 0.36615 0.0
H1040 H 0.74809 0.84064 0.35802 0.0
H1041 H 0.79439 0.84073 0.40098 0.0
H1042 H 0.75183 0.78357 0.35127 0.0
H1043 H 0.72105 0.75417 0.33556 0.0
H1044 H 0.71736 0.72576 0.38708 0.0
H1045 H 0.748 0.75513 0.40323 0.0
C1046 C 0.8492 0.80369 0.41192 0.0
C1047 C 0.84521 0.79069 0.42606 0.0
C1048 C 0.83543 0.80739 0.4043 0.0
C1049 C 0.81751 0.79828 0.41081 0.0
C1050 C 0.81343 0.78502 0.42462 0.0
C1051 C 0.82712 0.78128 0.43218 0.0
C1052 C 0.80297 0.80262 0.40355 0.0
C1053 C 0.78509 0.78635 0.39483 0.0
C1054 C 0.80644 0.8225 0.40554 0.0
C1055 C 0.82474 0.84027 0.41535 0.0
C1056 C 0.83177 0.84144 0.43515 0.0
C1057 C 0.84907 0.85821 0.44426 0.0
C1058 C 0.8594 0.87398 0.43377 0.0
C1059 C 0.85241 0.87304 0.41417 0.0
C1060 C 0.83513 0.85629 0.40499 0.0
C1061 C 0.72715 0.80712 0.3899 0.0
C1062 C 0.72921 0.82038 0.37661 0.0
C1063 C 0.74173 0.80362 0.39459 0.0
C1064 C 0.75854 0.8132 0.38594 0.0
C1065 C 0.76072 0.82673 0.37291 0.0
C1066 C 0.74614 0.83026 0.36824 0.0
C1067 C 0.77388 0.80922 0.3907 0.0
C1068 C 0.7919 0.82554 0.39891 0.0
C1069 C 0.77054 0.78939 0.38824 0.0
C1070 C 0.75215 0.77163 0.37852 0.0
C1071 C 0.74439 0.77112 0.35931 0.0
C1072 C 0.72698 0.75445 0.35032 0.0
C1073 C 0.71723 0.73812 0.36033 0.0
C1074 C 0.72491 0.73842 0.37935 0.0
C1075 C 0.74232 0.75507 0.38842 0.0
H1076 H 0.70375 0.72523 0.35335 0.0
H1077 H 0.87279 0.88696 0.44085 0.0
H1078 H 0.19507 0.04822 0.40019 0.0
H1079 H 0.18555 0.01309 0.38907 0.0
H1080 H 0.23707 0.03267 0.3626 0.0
H1081 H 0.24652 0.06786 0.3733 0.0
H1082 H 0.20812 0.00027 0.3392 0.0
H1083 H 0.2329 0.01919 0.40933 0.0
H1084 H 0.235 0.03209 0.44498 0.0
H1085 H 0.17778 0.98466 0.44615 0.0
H1086 H 0.17525 0.97163 0.41041 0.0
H1087 H 0.21679 0.9144 0.33835 0.0
H1088 H 0.22117 0.94801 0.34454 0.0
H1089 H 0.1677 0.92381 0.3677 0.0
H1090 H 0.1632 0.89005 0.36168 0.0
H1091 H 0.19545 0.95758 0.39195 0.0
H1092 H 0.17162 0.93737 0.32204 0.0
H1093 H 0.17032 0.92412 0.28673 0.0
H1094 H 0.22648 0.97367 0.28539 0.0
H1095 H 0.22823 0.98707 0.32079 0.0
C1096 C 0.20429 0.04507 0.39179 0.0
C1097 C 0.22165 0.06086 0.38781 0.0
C1098 C 0.19885 0.02496 0.38551 0.0
C1099 C 0.21078 0.02024 0.37535 0.0
C1100 C 0.22768 0.03595 0.3705 0.0
C1101 C 0.23308 0.05608 0.37666 0.0
C1102 C 0.20611 0.99903 0.37064 0.0
C1103 C 0.20551 0.991 0.35076 0.0
C1104 C 0.20232 0.98676 0.38565 0.0
C1105 C 0.20381 0.9946 0.40713 0.0
C1106 C 0.22071 0.01162 0.41714 0.0
C1107 C 0.22199 0.01894 0.43737 0.0
C1108 C 0.20652 0.00924 0.4478 0.0
C1109 C 0.18974 0.99218 0.43804 0.0
C1110 C 0.18838 0.98482 0.4178 0.0
C1111 C 0.20589 0.91615 0.3447 0.0
C1112 C 0.18962 0.8995 0.34953 0.0
C1113 C 0.20839 0.93539 0.34813 0.0
C1114 C 0.19466 0.93836 0.35639 0.0
C1115 C 0.17843 0.9218 0.36128 0.0
C1116 C 0.17589 0.90253 0.35779 0.0
C1117 C 0.19757 0.95888 0.36056 0.0
C1118 C 0.19788 0.9668 0.38035 0.0
C1119 C 0.20118 0.97103 0.3455 0.0
C1120 C 0.20011 0.96313 0.32413 0.0
C1121 C 0.18375 0.94536 0.31426 0.0
C1122 C 0.18292 0.93784 0.29422 0.0
C1123 C 0.19832 0.94802 0.28384 0.0
C1124 C 0.21456 0.96579 0.29346 0.0
C1125 C 0.21547 0.97337 0.31351 0.0
H1126 H 0.19766 0.94216 0.26833 0.0
H1127 H 0.20754 0.01492 0.46347 0.0
H1128 H 0.52957 0.60414 0.32232 0.0
H1129 H 0.55342 0.63979 0.33338 0.0
H1130 H 0.51899 0.65647 0.30035 0.0
H1131 H 0.4953 0.62085 0.28883 0.0
H1132 H 0.55396 0.677 0.29267 0.0
H1133 H 0.52469 0.66282 0.35246 0.0
H1134 H 0.51258 0.64453 0.38064 0.0
H1135 H 0.56833 0.65801 0.40153 0.0
H1136 H 0.58073 0.67616 0.37331 0.0
H1137 H 0.60769 0.7815 0.33253 0.0
H1138 H 0.58215 0.7462 0.32468 0.0
H1139 H 0.61804 0.72841 0.35273 0.0
H1140 H 0.64368 0.76373 0.36085 0.0
H1141 H 0.58208 0.70882 0.36333 0.0
H1142 H 0.61094 0.72277 0.30283 0.0
H1143 H 0.62281 0.74206 0.27524 0.0
H1144 H 0.56704 0.72946 0.25603 0.0
H1145 H 0.55489 0.71037 0.28372 0.0
C1146 C 0.52695 0.61539 0.31762 0.0
C1147 C 0.51055 0.60965 0.30465 0.0
C1148 C 0.54059 0.63579 0.32401 0.0
C1149 C 0.53797 0.65085 0.3178 0.0
C1150 C 0.52136 0.64513 0.30529 0.0
C1151 C 0.50779 0.62475 0.29878 0.0
C1152 C 0.55295 0.67251 0.32349 0.0
C1153 C 0.55988 0.68401 0.30816 0.0
C1154 C 0.56102 0.68159 0.34366 0.0
C1155 C 0.5536 0.67069 0.36065 0.0
C1156 C 0.53434 0.66174 0.36297 0.0
C1157 C 0.52743 0.65143 0.37897 0.0
C1158 C 0.53967 0.65006 0.39283 0.0
C1159 C 0.55886 0.65906 0.39076 0.0
C1160 C 0.56584 0.66938 0.37477 0.0
C1161 C 0.6102 0.77012 0.33707 0.0
C1162 C 0.6278 0.77547 0.34725 0.0
C1163 C 0.59557 0.74993 0.33252 0.0
C1164 C 0.59826 0.73468 0.33797 0.0
C1165 C 0.61568 0.73996 0.34839 0.0
C1166 C 0.63035 0.76016 0.35293 0.0
C1167 C 0.58297 0.71319 0.33253 0.0
C1168 C 0.57606 0.70175 0.34787 0.0
C1169 C 0.57484 0.70418 0.31239 0.0
C1170 C 0.58204 0.7153 0.29547 0.0
C1171 C 0.60123 0.72422 0.2928 0.0
C1172 C 0.608 0.73511 0.27713 0.0
C1173 C 0.59569 0.73702 0.26392 0.0
C1174 C 0.57656 0.72798 0.26629 0.0
C1175 C 0.56972 0.71712 0.28196 0.0
H1176 H 0.60097 0.74548 0.25182 0.0
H1177 H 0.53429 0.64207 0.40521 0.0
H1178 H 0.39285 0.9218 0.25687 0.0
H1179 H 0.36276 0.91352 0.26844 0.0
H1180 H 0.36889 0.87719 0.30801 0.0
H1181 H 0.39911 0.88529 0.29635 0.0
H1182 H 0.33308 0.85811 0.28708 0.0
H1183 H 0.37667 0.9226 0.32708 0.0
H1184 H 0.40204 0.95849 0.33347 0.0
H1185 H 0.36752 0.97291 0.29786 0.0
H1186 H 0.34203 0.93705 0.29102 0.0
H1187 H 0.26079 0.84988 0.34472 0.0
H1188 H 0.29151 0.85793 0.33467 0.0
H1189 H 0.28602 0.89185 0.29164 0.0
H1190 H 0.25515 0.88367 0.30152 0.0
H1191 H 0.3217 0.912 0.31544 0.0
H1192 H 0.27902 0.84807 0.274 0.0
H1193 H 0.25318 0.8124 0.26728 0.0
H1194 H 0.28549 0.79717 0.30532 0.0
H1195 H 0.31151 0.83285 0.31242 0.0
C1196 C 0.38787 0.91209 0.26807 0.0
C1197 C 0.39842 0.90426 0.27574 0.0
C1198 C 0.37068 0.90742 0.27471 0.0
C1199 C 0.36369 0.89491 0.28922 0.0
C1200 C 0.37407 0.88691 0.29682 0.0
C1201 C 0.39135 0.89162 0.29021 0.0
C1202 C 0.34546 0.89012 0.29626 0.0
C1203 C 0.33069 0.86986 0.2936 0.0
C1204 C 0.34221 0.90551 0.30428 0.0
C1205 C 0.35751 0.9271 0.30839 0.0
C1206 C 0.37455 0.9334 0.32048 0.0
C1207 C 0.38894 0.95374 0.32421 0.0
C1208 C 0.38641 0.96796 0.31604 0.0
C1209 C 0.36947 0.96187 0.30416 0.0
C1210 C 0.35504 0.94154 0.30037 0.0
C1211 C 0.26616 0.85908 0.33314 0.0
C1212 C 0.25569 0.8662 0.32388 0.0
C1213 C 0.28365 0.8636 0.32738 0.0
C1214 C 0.29094 0.87539 0.31237 0.0
C1215 C 0.2806 0.88273 0.30327 0.0
C1216 C 0.26301 0.87803 0.30888 0.0
C1217 C 0.3094 0.88006 0.30618 0.0
C1218 C 0.32417 0.90027 0.30901 0.0
C1219 C 0.31262 0.86465 0.29826 0.0
C1220 C 0.29714 0.84315 0.29387 0.0
C1221 C 0.28057 0.83714 0.28104 0.0
C1222 C 0.26591 0.81692 0.27713 0.0
C1223 C 0.26768 0.80254 0.28589 0.0
C1224 C 0.28415 0.80834 0.29855 0.0
C1225 C 0.29887 0.82855 0.30249 0.0
H1226 H 0.25631 0.7869 0.28281 0.0
H1227 H 0.39757 0.9837 0.31895 0.0
H1228 H 0.14869 0.51384 0.29602 0.0
H1229 H 0.15611 0.48796 0.30087 0.0
H1230 H 0.10325 0.45392 0.32411 0.0
H1231 H 0.09583 0.47987 0.31957 0.0
H1232 H 0.13171 0.45546 0.34672 0.0
H1233 H 0.10867 0.43983 0.27655 0.0
H1234 H 0.10728 0.44673 0.24209 0.0
H1235 H 0.16471 0.46183 0.24037 0.0
H1236 H 0.16654 0.45529 0.27495 0.0
H1237 H 0.13053 0.36387 0.34238 0.0
H1238 H 0.12252 0.38904 0.33636 0.0
H1239 H 0.17552 0.4234 0.31349 0.0
H1240 H 0.18359 0.39819 0.31924 0.0
H1241 H 0.14686 0.42154 0.29054 0.0
H1242 H 0.16998 0.4375 0.3608 0.0
H1243 H 0.17133 0.43042 0.39519 0.0
H1244 H 0.11367 0.41461 0.39665 0.0
H1245 H 0.1119 0.42133 0.36215 0.0
C1246 C 0.13864 0.50086 0.30219 0.0
C1247 C 0.12164 0.4989 0.30737 0.0
C1248 C 0.14287 0.48603 0.30486 0.0
C1249 C 0.13013 0.46887 0.31261 0.0
C1250 C 0.11327 0.46701 0.31805 0.0
C1251 C 0.10904 0.48184 0.31541 0.0
C1252 C 0.13445 0.45296 0.31523 0.0
C1253 C 0.13476 0.44784 0.33437 0.0
C1254 C 0.13886 0.44335 0.29922 0.0
C1255 C 0.1378 0.44727 0.27842 0.0
C1256 C 0.12105 0.44479 0.26889 0.0
C1257 C 0.12018 0.4486 0.24932 0.0
C1258 C 0.13591 0.45477 0.23907 0.0
C1259 C 0.15254 0.45708 0.24835 0.0
C1260 C 0.1535 0.45331 0.26792 0.0
C1261 C 0.14049 0.37674 0.33602 0.0
C1262 C 0.15776 0.37905 0.3314 0.0
C1263 C 0.1359 0.39116 0.33265 0.0
C1264 C 0.14854 0.40825 0.32474 0.0
C1265 C 0.16558 0.41036 0.31966 0.0
C1266 C 0.17018 0.39593 0.32299 0.0
C1267 C 0.1441 0.42405 0.32201 0.0
C1268 C 0.14379 0.42915 0.30287 0.0
C1269 C 0.13969 0.43366 0.33802 0.0
C1270 C 0.14075 0.42973 0.35882 0.0
C1271 C 0.15755 0.43237 0.3684 0.0
C1272 C 0.1584 0.42845 0.38792 0.0
C1273 C 0.14258 0.42202 0.39808 0.0
C1274 C 0.1259 0.41956 0.38876 0.0
C1275 C 0.12497 0.42344 0.36922 0.0
H1276 H 0.14327 0.41899 0.41319 0.0
H1277 H 0.1352 0.45771 0.22392 0.0
H1278 H 0.38744 0.52488 0.29549 0.0
H1279 H 0.35509 0.50174 0.30188 0.0
H1280 H 0.36287 0.4514 0.28755 0.0
H1281 H 0.39541 0.47447 0.28166 0.0
H1282 H 0.32708 0.44846 0.26807 0.0
H1283 H 0.36485 0.46264 0.33196 0.0
H1284 H 0.38846 0.4853 0.36105 0.0
H1285 H 0.35508 0.51173 0.37492 0.0
H1286 H 0.3314 0.48941 0.3457 0.0
H1287 H 0.24707 0.37047 0.30264 0.0
H1288 H 0.27785 0.39421 0.29325 0.0
H1289 H 0.27764 0.4436 0.32903 0.0
H1290 H 0.24718 0.41976 0.33898 0.0
H1291 H 0.3099 0.44792 0.33712 0.0
H1292 H 0.27502 0.43968 0.2739 0.0
H1293 H 0.25227 0.42202 0.24296 0.0
H1294 H 0.2788 0.38824 0.22726 0.0
H1295 H 0.30206 0.40615 0.25785 0.0
C1296 C 0.38225 0.50888 0.29368 0.0
C1297 C 0.39395 0.50148 0.28812 0.0
C1298 C 0.36381 0.49572 0.29736 0.0
C1299 C 0.35667 0.47491 0.29518 0.0
C1300 C 0.36817 0.46742 0.28928 0.0
C1301 C 0.38675 0.48062 0.28601 0.0
C1302 C 0.33725 0.46101 0.29931 0.0
C1303 C 0.32331 0.44809 0.28317 0.0
C1304 C 0.33228 0.46117 0.31892 0.0
C1305 C 0.34647 0.47453 0.33651 0.0
C1306 C 0.36264 0.47343 0.34109 0.0
C1307 C 0.37601 0.48618 0.35763 0.0
C1308 C 0.3733 0.49999 0.36979 0.0
C1309 C 0.35718 0.50105 0.36546 0.0
C1310 C 0.34377 0.48834 0.34892 0.0
C1311 C 0.25357 0.38641 0.30838 0.0
C1312 C 0.24486 0.39329 0.32165 0.0
C1313 C 0.27109 0.40003 0.30285 0.0
C1314 C 0.28008 0.42081 0.31024 0.0
C1315 C 0.27108 0.42768 0.32315 0.0
C1316 C 0.25367 0.41405 0.32884 0.0
C1317 C 0.29945 0.43514 0.30583 0.0
C1318 C 0.3135 0.44819 0.32195 0.0
C1319 C 0.30442 0.43545 0.28614 0.0
C1320 C 0.29008 0.42403 0.26823 0.0
C1321 C 0.27591 0.42839 0.26389 0.0
C1322 C 0.26304 0.41846 0.24635 0.0
C1323 C 0.264 0.40391 0.23323 0.0
C1324 C 0.27802 0.39945 0.23748 0.0
C1325 C 0.29114 0.40959 0.25483 0.0
H1326 H 0.2539 0.39612 0.21975 0.0
H1327 H 0.38367 0.50985 0.38259 0.0
H1328 H 0.51441 0.9011 0.27892 0.0
H1329 H 0.54023 0.89679 0.29141 0.0
H1330 H 0.50033 0.8338 0.29147 0.0
H1331 H 0.47448 0.83783 0.2784 0.0
H1332 H 0.52894 0.85895 0.32876 0.0
H1333 H 0.52215 0.84176 0.25659 0.0
H1334 H 0.52078 0.84884 0.22224 0.0
H1335 H 0.57782 0.89933 0.23562 0.0
H1336 H 0.57928 0.89305 0.27032 0.0
H1337 H 0.59146 0.82518 0.34789 0.0
H1338 H 0.56555 0.8286 0.33419 0.0
H1339 H 0.60561 0.8823 0.31222 0.0
H1340 H 0.63146 0.8782 0.32502 0.0
H1341 H 0.57661 0.86209 0.28566 0.0
H1342 H 0.5844 0.88333 0.3563 0.0
H1343 H 0.58721 0.88104 0.3922 0.0
H1344 H 0.53129 0.8285 0.38345 0.0
H1345 H 0.52823 0.83031 0.34742 0.0
C1346 C 0.51114 0.88635 0.28165 0.0
C1347 C 0.49246 0.86978 0.27766 0.0
C1348 C 0.52588 0.88392 0.28872 0.0
C1349 C 0.52212 0.86497 0.29225 0.0
C1350 C 0.50345 0.84851 0.28877 0.0
C1351 C 0.48875 0.85083 0.28127 0.0
C1352 C 0.53772 0.86231 0.29947 0.0
C1353 C 0.53926 0.85937 0.31932 0.0
C1354 C 0.55148 0.86362 0.28725 0.0
C1355 C 0.5507 0.86713 0.26621 0.0
C1356 C 0.53429 0.85459 0.25235 0.0
C1357 C 0.53349 0.85847 0.2328 0.0
C1358 C 0.54916 0.87461 0.22679 0.0
C1359 C 0.56566 0.88689 0.24032 0.0
C1360 C 0.56646 0.88321 0.25995 0.0
C1361 C 0.5947 0.83771 0.34015 0.0
C1362 C 0.61342 0.85155 0.33766 0.0
C1363 C 0.5799 0.83973 0.3324 0.0
C1364 C 0.58361 0.85598 0.32254 0.0
C1365 C 0.60235 0.86967 0.31982 0.0
C1366 C 0.61713 0.8674 0.32722 0.0
C1367 C 0.56795 0.8587 0.31513 0.0
C1368 C 0.56636 0.86166 0.29521 0.0
C1369 C 0.5544 0.85798 0.32746 0.0
C1370 C 0.55616 0.85684 0.34913 0.0
C1371 C 0.57275 0.8712 0.36201 0.0
C1372 C 0.57438 0.87 0.38238 0.0
C1373 C 0.55946 0.8546 0.39009 0.0
C1374 C 0.54285 0.8404 0.37745 0.0
C1375 C 0.54115 0.84151 0.35705 0.0
H1376 H 0.56075 0.8537 0.40587 0.0
H1377 H 0.54856 0.87752 0.21161 0.0
H1378 H 0.14268 0.61991 0.31817 0.0
H1379 H 0.1476 0.6534 0.32921 0.0
H1380 H 0.18169 0.67595 0.28189 0.0
H1381 H 0.177 0.64264 0.27086 0.0
H1382 H 0.19658 0.70307 0.31683 0.0
H1383 H 0.1359 0.66198 0.27568 0.0
H1384 H 0.10376 0.63216 0.26605 0.0
H1385 H 0.08814 0.64518 0.32277 0.0
H1386 H 0.12029 0.67494 0.33285 0.0
H1387 H 0.19323 0.79024 0.30786 0.0
H1388 H 0.19042 0.75736 0.3019 0.0
H1389 H 0.1518 0.73714 0.34593 0.0
H1390 H 0.15401 0.76985 0.3514 0.0
H1391 H 0.13951 0.70863 0.31522 0.0
H1392 H 0.19991 0.75187 0.35523 0.0
H1393 H 0.23202 0.78185 0.36426 0.0
H1394 H 0.2486 0.76492 0.30994 0.0
H1395 H 0.21646 0.73513 0.30032 0.0
C1396 C 0.15144 0.63206 0.31028 0.0
C1397 C 0.15932 0.62856 0.29352 0.0
C1398 C 0.15416 0.65116 0.31656 0.0
C1399 C 0.16478 0.66708 0.30619 0.0
C1400 C 0.1734 0.66387 0.29007 0.0
C1401 C 0.17065 0.64479 0.28376 0.0
C1402 C 0.16617 0.68681 0.31139 0.0
C1403 C 0.18414 0.70435 0.31636 0.0
C1404 C 0.14989 0.68838 0.31117 0.0
C1405 C 0.13055 0.67054 0.3051 0.0
C1406 C 0.12565 0.65838 0.28616 0.0
C1407 C 0.10743 0.64151 0.28061 0.0
C1408 C 0.09393 0.63674 0.29381 0.0
C1409 C 0.09862 0.64887 0.31257 0.0
C1410 C 0.11683 0.66575 0.31821 0.0
C1411 C 0.18415 0.7788 0.3163 0.0
C1412 C 0.17393 0.78267 0.3302 0.0
C1413 C 0.18264 0.76003 0.31295 0.0
C1414 C 0.17124 0.74489 0.3238 0.0
C1415 C 0.16077 0.74861 0.33746 0.0
C1416 C 0.16203 0.7673 0.34057 0.0
C1417 C 0.16998 0.72506 0.32061 0.0
C1418 C 0.15201 0.70744 0.31596 0.0
C1419 C 0.18629 0.72345 0.32114 0.0
C1420 C 0.20569 0.74134 0.32697 0.0
C1421 C 0.21035 0.75463 0.34512 0.0
C1422 C 0.22856 0.77161 0.35033 0.0
C1423 C 0.24232 0.77535 0.33762 0.0
C1424 C 0.23791 0.76208 0.31971 0.0
C1425 C 0.21969 0.74514 0.31437 0.0
H1426 H 0.25641 0.7885 0.34168 0.0
H1427 H 0.07983 0.62367 0.28948 0.0
H1428 H 0.86078 0.04365 0.39069 0.0
H1429 H 0.83189 0.01052 0.37998 0.0
H1430 H 0.80423 0.02523 0.42527 0.0
H1431 H 0.83276 0.05827 0.43582 0.0
H1432 H 0.81289 0.97961 0.39977 0.0
H1433 H 0.75805 0.0044 0.40851 0.0
H1434 H 0.75532 0.03395 0.40513 0.0
H1435 H 0.79629 0.05175 0.3638 0.0
H1436 H 0.79907 0.02217 0.36672 0.0
H1437 H 0.72522 0.89369 0.40391 0.0
H1438 H 0.75287 0.92795 0.41128 0.0
H1439 H 0.73652 0.94088 0.35597 0.0
H1440 H 0.70811 0.907 0.34924 0.0
H1441 H 0.75061 0.97264 0.38248 0.0
H1442 H 0.77174 0.92717 0.36122 0.0
H1443 H 0.77393 0.89695 0.36235 0.0
H1444 H 0.80076 0.92001 0.42336 0.0
H1445 H 0.7986 0.95029 0.42263 0.0
C1446 C 0.8485 0.03984 0.39829 0.0
C1447 C 0.84905 0.05363 0.41405 0.0
C1448 C 0.83204 0.0209 0.3922 0.0
C1449 C 0.81584 0.0155 0.40167 0.0
C1450 C 0.81644 0.0292 0.4175 0.0
C1451 C 0.83282 0.04807 0.42357 0.0
C1452 C 0.79834 0.99544 0.39537 0.0
C1453 C 0.79929 0.97807 0.39587 0.0
C1454 C 0.78062 0.99342 0.39002 0.0
C1455 C 0.77888 0.01114 0.38798 0.0
C1456 C 0.76641 0.01457 0.39863 0.0
C1457 C 0.76486 0.03134 0.39681 0.0
C1458 C 0.77566 0.04475 0.3843 0.0
C1459 C 0.78798 0.04139 0.37354 0.0
C1460 C 0.78957 0.02464 0.3753 0.0
C1461 C 0.72746 0.90396 0.39346 0.0
C1462 C 0.7147 0.89776 0.37594 0.0
C1463 C 0.74333 0.92345 0.39759 0.0
C1464 C 0.74715 0.9368 0.38388 0.0
C1465 C 0.73398 0.93083 0.36672 0.0
C1466 C 0.71777 0.9115 0.36287 0.0
C1467 C 0.76508 0.95676 0.38722 0.0
C1468 C 0.76422 0.97413 0.3862 0.0
C1469 C 0.78294 0.95876 0.39167 0.0
C1470 C 0.78495 0.94096 0.39188 0.0
C1471 C 0.77812 0.92579 0.37486 0.0
C1472 C 0.77934 0.90865 0.37544 0.0
C1473 C 0.78747 0.90656 0.39292 0.0
C1474 C 0.7945 0.92167 0.40982 0.0
C1475 C 0.79333 0.93885 0.40932 0.0
H1476 H 0.78834 0.89324 0.39336 0.0
H1477 H 0.77445 0.05773 0.38292 0.0
H1478 H 0.95846 0.77472 0.38293 0.0
H1479 H 0.98801 0.77946 0.3724 0.0
H1480 H 0.01391 0.79906 0.43424 0.0
H1481 H 0.98479 0.79574 0.44455 0.0
H1482 H 0.03753 0.82209 0.41483 0.0
H1483 H 0.99977 0.75045 0.40418 0.0
H1484 H 0.97211 0.71651 0.3916 0.0
H1485 H 0.9804 0.72611 0.33091 0.0
H1486 H 0.00797 0.76023 0.34312 0.0
H1487 H 0.11712 0.81321 0.39176 0.0
H1488 H 0.08738 0.80613 0.40406 0.0
H1489 H 0.06556 0.80772 0.34546 0.0
H1490 H 0.0955 0.81546 0.33326 0.0
H1491 H 0.04068 0.77281 0.36439 0.0
H1492 H 0.07599 0.84741 0.37844 0.0
H1493 H 0.10282 0.88121 0.39346 0.0
H1494 H 0.09976 0.86256 0.45101 0.0
H1495 H 0.07261 0.8288 0.43637 0.0
C1496 C 0.97048 0.77997 0.39423 0.0
C1497 C 0.96941 0.78492 0.41452 0.0
C1498 C 0.98734 0.7825 0.38824 0.0
C1499 C 0.00322 0.78928 0.40253 0.0
C1500 C 0.00196 0.79387 0.42288 0.0
C1501 C 0.9853 0.79194 0.42878 0.0
C1502 C 0.02144 0.79266 0.39623 0.0
C1503 C 0.03813 0.81104 0.4041 0.0
C1504 C 0.02244 0.77849 0.38201 0.0
C1505 C 0.00585 0.75798 0.37458 0.0
C1506 C 0.99561 0.74539 0.38815 0.0
C1507 C 0.97996 0.7261 0.38108 0.0
C1508 C 0.97447 0.71917 0.36047 0.0
C1509 C 0.98466 0.7315 0.34687 0.0
C1510 C 0.00031 0.75081 0.35386 0.0
C1511 C 0.10601 0.81219 0.38157 0.0
C1512 C 0.10861 0.81506 0.36164 0.0
C1513 C 0.08907 0.80813 0.38859 0.0
C1514 C 0.07437 0.80651 0.37567 0.0
C1515 C 0.07679 0.80895 0.35564 0.0
C1516 C 0.09385 0.81335 0.34871 0.0
C1517 C 0.05636 0.80209 0.38298 0.0
C1518 C 0.03985 0.78359 0.37529 0.0
C1519 C 0.05553 0.81581 0.39777 0.0
C1520 C 0.07242 0.83564 0.40632 0.0
C1521 C 0.08115 0.85051 0.39426 0.0
C1522 C 0.09629 0.86969 0.40274 0.0
C1523 C 0.10295 0.87404 0.42319 0.0
C1524 C 0.09453 0.8592 0.4352 0.0
C1525 C 0.07921 0.84009 0.42685 0.0
H1526 H 0.11462 0.88891 0.42975 0.0
H1527 H 0.96235 0.70424 0.35503 0.0
H1528 H 0.24591 0.19194 0.38692 0.0
H1529 H 0.24101 0.21838 0.37737 0.0
H1530 H 0.18629 0.18988 0.39797 0.0
H1531 H 0.19094 0.16326 0.40727 0.0
H1532 H 0.18426 0.20082 0.36254 0.0
H1533 H 0.22473 0.23243 0.42565 0.0
H1534 H 0.25315 0.24398 0.44967 0.0
H1535 H 0.28828 0.28128 0.40953 0.0
H1536 H 0.26007 0.26973 0.38514 0.0
H1537 H 0.16469 0.27875 0.37074 0.0
H1538 H 0.17248 0.2539 0.37831 0.0
H1539 H 0.22469 0.28522 0.3532 0.0
H1540 H 0.21706 0.31044 0.34561 0.0
H1541 H 0.22941 0.27341 0.38886 0.0
H1542 H 0.18842 0.24292 0.3265 0.0
H1543 H 0.15975 0.23166 0.30303 0.0
H1544 H 0.12536 0.19232 0.34223 0.0
H1545 H 0.15382 0.20356 0.36609 0.0
C1546 C 0.23283 0.1913 0.38943 0.0
C1547 C 0.21883 0.17549 0.3979 0.0
C1548 C 0.23009 0.20648 0.38404 0.0
C1549 C 0.21336 0.20624 0.38714 0.0
C1550 C 0.19931 0.19039 0.39544 0.0
C1551 C 0.20202 0.1752 0.4008 0.0
C1552 C 0.21032 0.22233 0.38156 0.0
C1553 C 0.19404 0.21667 0.36848 0.0
C1554 C 0.22334 0.24308 0.38884 0.0
C1555 C 0.24031 0.25004 0.40348 0.0
C1556 C 0.23853 0.24296 0.42187 0.0
C1557 C 0.25459 0.24953 0.43557 0.0
C1558 C 0.27251 0.26331 0.4311 0.0
C1559 C 0.27439 0.27058 0.41295 0.0
C1560 C 0.25837 0.26404 0.3992 0.0
C1561 C 0.17786 0.28045 0.36679 0.0
C1562 C 0.19019 0.29657 0.35741 0.0
C1563 C 0.18226 0.26615 0.37109 0.0
C1564 C 0.19903 0.26754 0.36606 0.0
C1565 C 0.21162 0.28383 0.35713 0.0
C1566 C 0.20721 0.29819 0.35276 0.0
C1567 C 0.20323 0.25183 0.37009 0.0
C1568 C 0.21971 0.25756 0.38284 0.0
C1569 C 0.19039 0.23112 0.36255 0.0
C1570 C 0.17325 0.22421 0.34816 0.0
C1571 C 0.17473 0.23197 0.33019 0.0
C1572 C 0.15852 0.22558 0.3168 0.0
C1573 C 0.14074 0.21132 0.32116 0.0
C1574 C 0.13914 0.20338 0.33889 0.0
C1575 C 0.15531 0.20974 0.35234 0.0
H1576 H 0.12821 0.20639 0.31078 0.0
H1577 H 0.28493 0.26838 0.44173 0.0
H1578 H 0.64096 0.56593 0.72066 0.0
H1579 H 0.67388 0.57907 0.71548 0.0
H1580 H 0.6725 0.52902 0.738 0.0
H1581 H 0.63931 0.51554 0.74309 0.0
H1582 H 0.70621 0.56868 0.75306 0.0
H1583 H 0.67051 0.52544 0.69149 0.0
H1584 H 0.64548 0.51112 0.66254 0.0
H1585 H 0.67004 0.56911 0.64411 0.0
H1586 H 0.69507 0.58386 0.67313 0.0
H1587 H 0.79776 0.60724 0.71784 0.0
H1588 H 0.76604 0.58485 0.72654 0.0
H1589 H 0.74449 0.61486 0.69377 0.0
H1590 H 0.77564 0.63618 0.68423 0.0
H1591 H 0.72193 0.5772 0.68389 0.0
H1592 H 0.75137 0.62124 0.7509 0.0
H1593 H 0.7746 0.63585 0.78161 0.0
H1594 H 0.76235 0.5768 0.78911 0.0
H1595 H 0.73854 0.56176 0.75888 0.0
C1596 C 0.64764 0.55773 0.72462 0.0
C1597 C 0.63751 0.53964 0.73218 0.0
C1598 C 0.66643 0.56525 0.72162 0.0
C1599 C 0.6755 0.5549 0.72622 0.0
C1600 C 0.66568 0.53716 0.73434 0.0
C1601 C 0.64674 0.52948 0.73715 0.0
C1602 C 0.69511 0.56261 0.7219 0.0
C1603 C 0.7097 0.57026 0.73791 0.0
C1604 C 0.69956 0.5646 0.70215 0.0
C1605 C 0.68461 0.55577 0.68457 0.0
C1606 C 0.6705 0.53517 0.68135 0.0
C1607 C 0.65633 0.52698 0.66491 0.0
C1608 C 0.65616 0.53921 0.65151 0.0
C1609 C 0.67019 0.55966 0.65451 0.0
C1610 C 0.68439 0.56794 0.67093 0.0
C1611 C 0.78616 0.60892 0.71254 0.0
C1612 C 0.78899 0.62321 0.70021 0.0
C1613 C 0.7681 0.59629 0.71766 0.0
C1614 C 0.75281 0.59819 0.71091 0.0
C1615 C 0.75594 0.6129 0.69901 0.0
C1616 C 0.77376 0.62511 0.69356 0.0
C1617 C 0.73326 0.58456 0.7152 0.0
C1618 C 0.71856 0.57548 0.69906 0.0
C1619 C 0.72876 0.58135 0.73482 0.0
C1620 C 0.74339 0.59044 0.75258 0.0
C1621 C 0.75373 0.61141 0.75906 0.0
C1622 C 0.76694 0.61975 0.7764 0.0
C1623 C 0.77013 0.60731 0.78714 0.0
C1624 C 0.75993 0.58644 0.78072 0.0
C1625 C 0.74648 0.57798 0.7636 0.0
H1626 H 0.78039 0.6138 0.80051 0.0
H1627 H 0.64517 0.53283 0.63879 0.0
H1628 H 0.49077 0.09082 0.71438 0.0
H1629 H 0.46837 0.10042 0.70294 0.0
H1630 H 0.45598 0.10673 0.76348 0.0
H1631 H 0.47798 0.09686 0.77493 0.0
H1632 H 0.42421 0.08686 0.73774 0.0
H1633 H 0.48508 0.14795 0.74221 0.0
H1634 H 0.51774 0.16863 0.73473 0.0
H1635 H 0.49732 0.15588 0.67196 0.0
H1636 H 0.46453 0.1349 0.67905 0.0
H1637 H 0.38233 0.1458 0.73429 0.0
H1638 H 0.40341 0.13332 0.74123 0.0
H1639 H 0.41013 0.12758 0.6785 0.0
H1640 H 0.38905 0.14021 0.67151 0.0
H1641 H 0.44377 0.14523 0.70237 0.0
H1642 H 0.3827 0.08582 0.69815 0.0
H1643 H 0.35004 0.06527 0.70567 0.0
H1644 H 0.37071 0.07513 0.76795 0.0
H1645 H 0.40352 0.09591 0.76084 0.0
C1646 C 0.48329 0.0943 0.72525 0.0
C1647 C 0.48619 0.09312 0.74557 0.0
C1648 C 0.47053 0.09982 0.7187 0.0
C1649 C 0.4606 0.10443 0.73239 0.0
C1650 C 0.46344 0.10318 0.75264 0.0
C1651 C 0.4761 0.09761 0.75917 0.0
C1652 C 0.4472 0.11058 0.72578 0.0
C1653 C 0.42854 0.09973 0.73016 0.0
C1654 C 0.45269 0.12703 0.71541 0.0
C1655 C 0.47238 0.13968 0.71113 0.0
C1656 C 0.48757 0.14943 0.72679 0.0
C1657 C 0.5061 0.16122 0.72263 0.0
C1658 C 0.50961 0.16351 0.70287 0.0
C1659 C 0.49458 0.15406 0.68725 0.0
C1660 C 0.47602 0.14223 0.69133 0.0
C1661 C 0.38825 0.14179 0.72198 0.0
C1662 C 0.38403 0.14384 0.70236 0.0
C1663 C 0.40024 0.13462 0.72594 0.0
C1664 C 0.40816 0.1293 0.71033 0.0
C1665 C 0.40412 0.13155 0.69073 0.0
C1666 C 0.39207 0.13871 0.68676 0.0
C1667 C 0.42091 0.1217 0.71462 0.0
C1668 C 0.43941 0.13225 0.70979 0.0
C1669 C 0.41528 0.10499 0.7246 0.0
C1670 C 0.39557 0.0925 0.72897 0.0
C1671 C 0.38028 0.08371 0.71347 0.0
C1672 C 0.36175 0.07199 0.71765 0.0
C1673 C 0.35831 0.06886 0.73726 0.0
C1674 C 0.37341 0.07751 0.75275 0.0
C1675 C 0.39198 0.08924 0.74865 0.0
H1676 H 0.34396 0.05969 0.74044 0.0
H1677 H 0.52396 0.17266 0.69968 0.0
H1678 H 0.93906 0.40837 0.70419 0.0
H1679 H 0.92166 0.37208 0.69224 0.0
H1680 H 0.86904 0.36925 0.6997 0.0
H1681 H 0.8864 0.40566 0.7119 0.0
H1682 H 0.87173 0.34126 0.71706 0.0
H1683 H 0.87961 0.36183 0.65301 0.0
H1684 H 0.89686 0.38117 0.62718 0.0
H1685 H 0.93197 0.35551 0.62838 0.0
H1686 H 0.91511 0.33623 0.65442 0.0
H1687 H 0.82229 0.23556 0.67758 0.0
H1688 H 0.83245 0.27135 0.68193 0.0
H1689 H 0.88966 0.2868 0.6758 0.0
H1690 H 0.87968 0.25127 0.67112 0.0
H1691 H 0.8801 0.3079 0.65487 0.0
H1692 H 0.87556 0.29148 0.72186 0.0
H1693 H 0.85917 0.27249 0.74827 0.0
H1694 H 0.81852 0.29074 0.74189 0.0
H1695 H 0.83456 0.30963 0.71523 0.0
C1696 C 0.92377 0.40012 0.70303 0.0
C1697 C 0.91413 0.40991 0.70906 0.0
C1698 C 0.91383 0.37936 0.6961 0.0
C1699 C 0.89404 0.36797 0.69495 0.0
C1700 C 0.88431 0.37777 0.70045 0.0
C1701 C 0.89425 0.39858 0.70735 0.0
C1702 C 0.88379 0.34569 0.68936 0.0
C1703 C 0.8732 0.33392 0.70325 0.0
C1704 C 0.88601 0.33616 0.67151 0.0
C1705 C 0.89616 0.34768 0.65578 0.0
C1706 C 0.8911 0.36042 0.64787 0.0
C1707 C 0.90079 0.37135 0.63317 0.0
C1708 C 0.91552 0.36959 0.62617 0.0
C1709 C 0.92056 0.35686 0.63382 0.0
C1710 C 0.91092 0.3459 0.64853 0.0
C1711 C 0.83703 0.24657 0.67713 0.0
C1712 C 0.85017 0.24051 0.67408 0.0
C1713 C 0.84281 0.26703 0.67965 0.0
C1714 C 0.86184 0.28176 0.67932 0.0
C1715 C 0.87489 0.2757 0.67603 0.0
C1716 C 0.86914 0.25533 0.67346 0.0
C1717 C 0.86846 0.30357 0.68279 0.0
C1718 C 0.87836 0.31523 0.66851 0.0
C1719 C 0.8657 0.31302 0.70031 0.0
C1720 C 0.85612 0.30176 0.71639 0.0
C1721 C 0.86304 0.29131 0.72598 0.0
C1722 C 0.85383 0.28059 0.74101 0.0
C1723 C 0.83778 0.28035 0.74671 0.0
C1724 C 0.83094 0.2909 0.73743 0.0
C1725 C 0.84008 0.30162 0.72237 0.0
H1726 H 0.83066 0.27204 0.75835 0.0
H1727 H 0.92301 0.37807 0.61479 0.0
H1728 H 0.15159 0.95587 0.65634 0.0
H1729 H 0.1776 0.99041 0.66872 0.0
H1730 H 0.21791 0.97315 0.65408 0.0
H1731 H 0.19203 0.93855 0.64177 0.0
H1732 H 0.2301 0.00062 0.68986 0.0
H1733 H 0.20503 0.9933 0.6214 0.0
H1734 H 0.17982 0.98394 0.59386 0.0
H1735 H 0.16694 0.02589 0.62469 0.0
H1736 H 0.19192 0.03528 0.65257 0.0
H1737 H 0.3084 0.09737 0.68196 0.0
H1738 H 0.28306 0.06189 0.67679 0.0
H1739 H 0.24188 0.07973 0.68308 0.0
H1740 H 0.26701 0.11512 0.68755 0.0
H1741 H 0.23 0.05153 0.65249 0.0
H1742 H 0.25625 0.06033 0.72052 0.0
H1743 H 0.28128 0.06942 0.7482 0.0
H1744 H 0.29204 0.02515 0.71884 0.0
H1745 H 0.26726 0.01598 0.69084 0.0
C1746 C 0.16599 0.95931 0.65607 0.0
C1747 C 0.16972 0.9445 0.64782 0.0
C1748 C 0.18083 0.97907 0.66311 0.0
C1749 C 0.19965 0.98438 0.66202 0.0
C1750 C 0.20348 0.96937 0.655 0.0
C1751 C 0.18865 0.94962 0.64789 0.0
C1752 C 0.21518 0.00582 0.66656 0.0
C1753 C 0.2302 0.01178 0.68164 0.0
C1754 C 0.21513 0.02036 0.65597 0.0
C1755 C 0.2002 0.01483 0.63916 0.0
C1756 C 0.19672 0.00041 0.62238 0.0
C1757 C 0.18249 0.99512 0.6067 0.0
C1758 C 0.17175 0.00428 0.60755 0.0
C1759 C 0.17525 0.01879 0.62407 0.0
C1760 C 0.18945 0.02411 0.63981 0.0
C1761 C 0.29395 0.09373 0.68231 0.0
C1762 C 0.28971 0.10906 0.68507 0.0
C1763 C 0.27948 0.07343 0.67949 0.0
C1764 C 0.26055 0.0681 0.67979 0.0
C1765 C 0.25636 0.08343 0.68276 0.0
C1766 C 0.27076 0.10368 0.6853 0.0
C1767 C 0.24495 0.0466 0.67606 0.0
C1768 C 0.22992 0.04053 0.66095 0.0
C1769 C 0.24503 0.03204 0.68668 0.0
C1770 C 0.25998 0.03758 0.70349 0.0
C1771 C 0.26405 0.05264 0.71988 0.0
C1772 C 0.27818 0.05779 0.73564 0.0
C1773 C 0.28824 0.04787 0.73527 0.0
C1774 C 0.28423 0.03282 0.71911 0.0
C1775 C 0.27013 0.02762 0.7033 0.0
H1776 H 0.29908 0.05178 0.74753 0.0
H1777 H 0.16074 0.00016 0.59539 0.0
H1778 H 0.05504 0.26996 0.59506 0.0
H1779 H 0.02776 0.26508 0.61161 0.0
H1780 H 0.99478 0.20377 0.5801 0.0
H1781 H 0.0218 0.2085 0.56347 0.0
H1782 H 0.97534 0.22307 0.57916 0.0
H1783 H 0.01344 0.21398 0.62871 0.0
H1784 H 0.04249 0.2243 0.65109 0.0
H1785 H 0.04116 0.27502 0.68119 0.0
H1786 H 0.01223 0.26513 0.65879 0.0
H1787 H 0.89711 0.17497 0.62873 0.0
H1788 H 0.92717 0.18528 0.61609 0.0
H1789 H 0.95299 0.24278 0.6554 0.0
H1790 H 0.92288 0.23201 0.66886 0.0
H1791 H 0.97731 0.22987 0.65317 0.0
H1792 H 0.93858 0.23838 0.60492 0.0
H1793 H 0.90903 0.22764 0.58318 0.0
H1794 H 0.91157 0.1785 0.55114 0.0
H1795 H 0.9411 0.18887 0.57267 0.0
C1796 C 0.04195 0.25547 0.59159 0.0
C1797 C 0.04059 0.2396 0.57796 0.0
C1798 C 0.02642 0.25269 0.60115 0.0
C1799 C 0.00931 0.234 0.59721 0.0
C1800 C 0.00786 0.2183 0.58336 0.0
C1801 C 0.02334 0.22103 0.5739 0.0
C1802 C 0.99275 0.23063 0.60733 0.0
C1803 C 0.97577 0.22446 0.59534 0.0
C1804 C 0.99343 0.23303 0.62847 0.0
C1805 C 0.01081 0.23896 0.64192 0.0
C1806 C 0.01944 0.22743 0.63998 0.0
C1807 C 0.03586 0.23318 0.6527 0.0
C1808 C 0.0437 0.25034 0.66751 0.0
C1809 C 0.0351 0.26175 0.66968 0.0
C1810 C 0.01868 0.25608 0.65699 0.0
C1811 C 0.90923 0.18975 0.6348 0.0
C1812 C 0.9077 0.20279 0.64962 0.0
C1813 C 0.92639 0.19568 0.6275 0.0
C1814 C 0.94223 0.21502 0.6344 0.0
C1815 C 0.94092 0.22785 0.64975 0.0
C1816 C 0.92375 0.22173 0.65738 0.0
C1817 C 0.95982 0.22187 0.62495 0.0
C1818 C 0.97697 0.22876 0.63702 0.0
C1819 C 0.95938 0.22026 0.60386 0.0
C1820 C 0.94202 0.21439 0.59041 0.0
C1821 C 0.93284 0.22529 0.59321 0.0
C1822 C 0.91612 0.21928 0.58094 0.0
C1823 C 0.90852 0.20245 0.56578 0.0
C1824 C 0.91758 0.19159 0.56282 0.0
C1825 C 0.93433 0.19756 0.57501 0.0
H1826 H 0.89565 0.19786 0.55631 0.0
H1827 H 0.05641 0.25476 0.67734 0.0
H1828 H 0.75888 0.78832 0.65917 0.0
H1829 H 0.77614 0.77147 0.66596 0.0
H1830 H 0.82286 0.81425 0.63877 0.0
H1831 H 0.80574 0.83137 0.63207 0.0
H1832 H 0.81185 0.77304 0.62653 0.0
H1833 H 0.82831 0.8206 0.6868 0.0
H1834 H 0.82187 0.83767 0.71553 0.0
H1835 H 0.78967 0.78136 0.73658 0.0
H1836 H 0.79569 0.76389 0.7078 0.0
H1837 H 0.87074 0.73723 0.66027 0.0
H1838 H 0.85982 0.76026 0.65409 0.0
H1839 H 0.81343 0.72912 0.6877 0.0
H1840 H 0.82451 0.70661 0.69432 0.0
H1841 H 0.8276 0.76803 0.69653 0.0
H1842 H 0.8101 0.71995 0.63627 0.0
H1843 H 0.81497 0.70208 0.60694 0.0
H1844 H 0.84664 0.75771 0.58458 0.0
H1845 H 0.84275 0.7761 0.61425 0.0
C1846 C 0.77279 0.79412 0.65456 0.0
C1847 C 0.78098 0.81121 0.64514 0.0
C1848 C 0.78265 0.78452 0.65852 0.0
C1849 C 0.80081 0.79174 0.65301 0.0
C1850 C 0.80887 0.8085 0.64317 0.0
C1851 C 0.79909 0.81828 0.63942 0.0
C1852 C 0.81135 0.78177 0.6577 0.0
C1853 C 0.81565 0.77221 0.64183 0.0
C1854 C 0.81589 0.78044 0.67765 0.0
C1855 C 0.81232 0.79091 0.69504 0.0
C1856 C 0.81972 0.81183 0.69746 0.0
C1857 C 0.81617 0.82158 0.71377 0.0
C1858 C 0.80533 0.8106 0.72785 0.0
C1859 C 0.79806 0.78985 0.72566 0.0
C1860 C 0.80155 0.78002 0.70936 0.0
C1861 C 0.85839 0.73553 0.66653 0.0
C1862 C 0.84851 0.72011 0.67771 0.0
C1863 C 0.85209 0.74858 0.66289 0.0
C1864 C 0.83565 0.74623 0.67019 0.0
C1865 C 0.82614 0.73123 0.68189 0.0
C1866 C 0.83248 0.71832 0.68562 0.0
C1867 C 0.82789 0.7589 0.66533 0.0
C1868 C 0.82407 0.76901 0.6812 0.0
C1869 C 0.82365 0.76054 0.64532 0.0
C1870 C 0.82638 0.74949 0.6277 0.0
C1871 C 0.8184 0.72846 0.6253 0.0
C1872 C 0.82099 0.71822 0.60859 0.0
C1873 C 0.83119 0.72877 0.59395 0.0
C1874 C 0.83884 0.74957 0.59599 0.0
C1875 C 0.83654 0.75993 0.61281 0.0
H1876 H 0.83312 0.72082 0.58098 0.0
H1877 H 0.8026 0.81818 0.74047 0.0
H1878 H 0.07973 0.84729 0.63408 0.0
H1879 H 0.04996 0.81943 0.64124 0.0
H1880 H 0.01942 0.82861 0.59407 0.0
H1881 H 0.04908 0.85701 0.58741 0.0
H1882 H 0.00138 0.82297 0.624 0.0
H1883 H 0.02725 0.78788 0.58941 0.0
H1884 H 0.0512 0.77913 0.5818 0.0
H1885 H 0.05123 0.762 0.63975 0.0
H1886 H 0.02746 0.7709 0.64783 0.0
H1887 H 0.927 0.71041 0.62924 0.0
H1888 H 0.95474 0.73575 0.6159 0.0
H1889 H 0.9672 0.77938 0.66865 0.0
H1890 H 0.93965 0.75413 0.68208 0.0
H1891 H 0.99238 0.75636 0.63159 0.0
H1892 H 0.98101 0.82166 0.65731 0.0
H1893 H 0.9555 0.82928 0.65767 0.0
H1894 H 0.92414 0.78321 0.60611 0.0
H1895 H 0.94902 0.77476 0.60603 0.0
C1896 C 0.06667 0.84333 0.6252 0.0
C1897 C 0.06674 0.85436 0.61019 0.0
C1898 C 0.04965 0.8273 0.62922 0.0
C1899 C 0.03241 0.82167 0.61801 0.0
C1900 C 0.03251 0.83264 0.60295 0.0
C1901 C 0.04948 0.84886 0.59913 0.0
C1902 C 0.01422 0.80486 0.62247 0.0
C1903 C 0.9995 0.80843 0.6256 0.0
C1904 C 0.0114 0.78561 0.62408 0.0
C1905 C 0.02569 0.78022 0.61929 0.0
C1906 C 0.03247 0.78238 0.60059 0.0
C1907 C 0.04599 0.77738 0.59618 0.0
C1908 C 0.05276 0.77006 0.6103 0.0
C1909 C 0.04599 0.76769 0.62884 0.0
C1910 C 0.03247 0.77269 0.63333 0.0
C1911 C 0.93575 0.7254 0.638 0.0
C1912 C 0.93131 0.73032 0.65674 0.0
C1913 C 0.95152 0.73984 0.63035 0.0
C1914 C 0.96293 0.75948 0.64121 0.0
C1915 C 0.95845 0.76439 0.65991 0.0
C1916 C 0.94282 0.74992 0.66764 0.0
C1917 C 0.97992 0.77477 0.63348 0.0
C1918 C 0.99439 0.77092 0.62987 0.0
C1919 C 0.98233 0.79352 0.63071 0.0
C1920 C 0.96675 0.79751 0.63177 0.0
C1921 C 0.96853 0.81301 0.64624 0.0
C1922 C 0.95414 0.8174 0.64645 0.0
C1923 C 0.93812 0.80663 0.63202 0.0
C1924 C 0.93639 0.79134 0.61746 0.0
C1925 C 0.95052 0.78659 0.61746 0.0
H1926 H 0.92709 0.81017 0.63206 0.0
H1927 H 0.06323 0.76619 0.60685 0.0
H1928 H 0.17506 0.19857 0.57797 0.0
H1929 H 0.19998 0.19768 0.59793 0.0
H1930 H 0.19435 0.23145 0.64942 0.0
H1931 H 0.16971 0.23288 0.62936 0.0
H1932 H 0.23066 0.24413 0.64769 0.0
H1933 H 0.17357 0.18016 0.64424 0.0
H1934 H 0.1449 0.14862 0.62761 0.0
H1935 H 0.17906 0.1311 0.59585 0.0
H1936 H 0.20793 0.16266 0.61211 0.0
H1937 H 0.2608 0.17692 0.69942 0.0
H1938 H 0.23737 0.18493 0.68746 0.0
H1939 H 0.27802 0.22774 0.65444 0.0
H1940 H 0.30117 0.21925 0.66582 0.0
H1941 H 0.22267 0.17707 0.65033 0.0
H1942 H 0.26712 0.26231 0.64519 0.0
H1943 H 0.29472 0.29351 0.6641 0.0
H1944 H 0.2837 0.26797 0.71815 0.0
H1945 H 0.25589 0.23673 0.69963 0.0
C1946 C 0.17919 0.20591 0.59351 0.0
C1947 C 0.17029 0.21564 0.60214 0.0
C1948 C 0.1934 0.20534 0.60491 0.0
C1949 C 0.19879 0.21419 0.62527 0.0
C1950 C 0.19037 0.22448 0.63376 0.0
C1951 C 0.17626 0.22522 0.6223 0.0
C1952 C 0.21272 0.21206 0.63779 0.0
C1953 C 0.22892 0.22948 0.64834 0.0
C1954 C 0.21024 0.19291 0.63898 0.0
C1955 C 0.1929 0.17386 0.62927 0.0
C1956 C 0.17496 0.16964 0.63361 0.0
C1957 C 0.15867 0.15175 0.62427 0.0
C1958 C 0.16015 0.13789 0.61065 0.0
C1959 C 0.17793 0.14186 0.60639 0.0
C1960 C 0.19427 0.15974 0.61568 0.0
C1961 C 0.26475 0.18821 0.68979 0.0
C1962 C 0.28263 0.19731 0.68329 0.0
C1963 C 0.25138 0.19276 0.68297 0.0
C1964 C 0.25583 0.20675 0.66985 0.0
C1965 C 0.27417 0.21681 0.66445 0.0
C1966 C 0.28739 0.21194 0.67091 0.0
C1967 C 0.24079 0.20916 0.66012 0.0
C1968 C 0.22439 0.19175 0.64992 0.0
C1969 C 0.24295 0.22828 0.65963 0.0
C1970 C 0.2595 0.24712 0.67096 0.0
C1971 C 0.27052 0.26339 0.66113 0.0
C1972 C 0.28622 0.28107 0.67178 0.0
C1973 C 0.29098 0.2827 0.6923 0.0
C1974 C 0.28003 0.26667 0.70223 0.0
C1975 C 0.26432 0.24895 0.69166 0.0
H1976 H 0.30315 0.2964 0.70052 0.0
H1977 H 0.14753 0.12404 0.60342 0.0
H1978 H 0.74815 0.94641 0.61242 0.0
H1979 H 0.75661 0.98134 0.62234 0.0
H1980 H 0.81267 0.00215 0.60664 0.0
H1981 H 0.8044 0.96719 0.5969 0.0
H1982 H 0.81386 0.02116 0.643 0.0
H1983 H 0.7805 0.00607 0.57722 0.0
H1984 H 0.7538 0.98666 0.54998 0.0
H1985 H 0.71755 0.99631 0.58662 0.0
H1986 H 0.74398 0.01556 0.6142 0.0
H1987 H 0.84472 0.12398 0.6448 0.0
H1988 H 0.83488 0.08869 0.63503 0.0
H1989 H 0.77998 0.07036 0.65295 0.0
H1990 H 0.78964 0.10582 0.66267 0.0
H1991 H 0.77753 0.04986 0.61617 0.0
H1992 H 0.81124 0.0656 0.68174 0.0
H1993 H 0.8381 0.08524 0.70876 0.0
H1994 H 0.87386 0.07447 0.6723 0.0
H1995 H 0.84727 0.055 0.64494 0.0
C1996 C 0.76224 0.9584 0.61091 0.0
C1997 C 0.77562 0.95401 0.60389 0.0
C1998 C 0.76702 0.97837 0.61653 0.0
C1999 C 0.78523 0.99435 0.61511 0.0
C2000 C 0.79854 0.99003 0.60786 0.0
C2001 C 0.79377 0.97005 0.60223 0.0
C2002 C 0.79059 0.01554 0.62191 0.0
C2003 C 0.80608 0.02753 0.63693 0.0
C2004 C 0.78009 0.02364 0.61441 0.0
C2005 C 0.76417 0.01208 0.59785 0.0
C2006 C 0.76679 0.00391 0.57953 0.0
C2007 C 0.75172 0.99296 0.56402 0.0
C2008 C 0.73398 0.99021 0.56659 0.0
C2009 C 0.73129 0.99843 0.58466 0.0
C2010 C 0.74632 0.00938 0.60023 0.0
C2011 C 0.83057 0.1125 0.64681 0.0
C2012 C 0.81798 0.11776 0.65459 0.0
C2013 C 0.82499 0.0923 0.64126 0.0
C2014 C 0.80676 0.07691 0.64344 0.0
C2015 C 0.79413 0.08204 0.65119 0.0
C2016 C 0.79971 0.1023 0.65681 0.0
C2017 C 0.80086 0.05549 0.63715 0.0
C2018 C 0.78527 0.04346 0.62226 0.0
C2019 C 0.81128 0.04735 0.64475 0.0
C2020 C 0.82729 0.05899 0.66122 0.0
C2021 C 0.82486 0.06755 0.67942 0.0
C2022 C 0.84004 0.07863 0.69481 0.0
C2023 C 0.85769 0.08114 0.69223 0.0
C2024 C 0.86019 0.07253 0.67427 0.0
C2025 C 0.84506 0.06145 0.65882 0.0
H2026 H 0.86942 0.08972 0.70417 0.0
H2027 H 0.72232 0.98173 0.55456 0.0
H2028 H 0.51032 0.38719 0.76314 0.0
H2029 H 0.48614 0.35157 0.75239 0.0
H2030 H 0.44251 0.36614 0.75462 0.0
H2031 H 0.46659 0.40181 0.7655 0.0
H2032 H 0.43325 0.33134 0.76993 0.0
H2033 H 0.4564 0.35972 0.71078 0.0
H2034 H 0.48091 0.37806 0.68957 0.0
H2035 H 0.49769 0.33429 0.68894 0.0
H2036 H 0.47343 0.31584 0.71039 0.0
H2037 H 0.35766 0.24357 0.70925 0.0
H2038 H 0.38232 0.27869 0.72156 0.0
H2039 H 0.425 0.26282 0.71787 0.0
H2040 H 0.40048 0.22766 0.70547 0.0
H2041 H 0.43514 0.29798 0.70379 0.0
H2042 H 0.41205 0.2691 0.76203 0.0
H2043 H 0.38787 0.25042 0.78341 0.0
H2044 H 0.37148 0.2946 0.78626 0.0
H2045 H 0.39539 0.3134 0.76462 0.0
C2046 C 0.49557 0.38281 0.76155 0.0
C2047 C 0.49037 0.39735 0.76496 0.0
C2048 C 0.48179 0.36246 0.75534 0.0
C2049 C 0.46257 0.3563 0.75243 0.0
C2050 C 0.45728 0.37063 0.7567 0.0
C2051 C 0.47106 0.391 0.76284 0.0
C2052 C 0.44805 0.33505 0.74412 0.0
C2053 C 0.43351 0.3241 0.75538 0.0
C2054 C 0.4487 0.3255 0.72533 0.0
C2055 C 0.46323 0.33652 0.71236 0.0
C2056 C 0.46542 0.3541 0.70625 0.0
C2057 C 0.47925 0.3645 0.69416 0.0
C2058 C 0.49089 0.35738 0.68796 0.0
C2059 C 0.48868 0.33981 0.69379 0.0
C2060 C 0.47489 0.32937 0.7059 0.0
C2061 C 0.37229 0.24754 0.71086 0.0
C2062 C 0.37708 0.23276 0.70649 0.0
C2063 C 0.38635 0.26761 0.71801 0.0
C2064 C 0.40544 0.27327 0.72089 0.0
C2065 C 0.41033 0.25873 0.71582 0.0
C2066 C 0.39628 0.23863 0.70877 0.0
C2067 C 0.42027 0.2943 0.72955 0.0
C2068 C 0.43487 0.3052 0.71836 0.0
C2069 C 0.41973 0.30376 0.74844 0.0
C2070 C 0.40538 0.29255 0.76153 0.0
C2071 C 0.40318 0.27475 0.76707 0.0
C2072 C 0.38954 0.26415 0.77926 0.0
C2073 C 0.37811 0.27129 0.78615 0.0
C2074 C 0.38033 0.28907 0.78089 0.0
C2075 C 0.39393 0.29971 0.76868 0.0
H2076 H 0.36756 0.26307 0.79559 0.0
H2077 H 0.50159 0.36545 0.6786 0.0
H2078 H 0.62518 0.13834 0.73884 0.0
H2079 H 0.656 0.14985 0.72717 0.0
H2080 H 0.64377 0.08862 0.71704 0.0
H2081 H 0.61284 0.07694 0.7284 0.0
H2082 H 0.6806 0.11788 0.7382 0.0
H2083 H 0.63958 0.10683 0.67836 0.0
H2084 H 0.61679 0.11158 0.65841 0.0
H2085 H 0.65687 0.17531 0.66656 0.0
H2086 H 0.67981 0.17096 0.68681 0.0
H2087 H 0.75321 0.12671 0.68441 0.0
H2088 H 0.72183 0.11621 0.69374 0.0
H2089 H 0.73099 0.17507 0.68883 0.0
H2090 H 0.76191 0.185 0.67787 0.0
H2091 H 0.69605 0.14866 0.67658 0.0
H2092 H 0.73839 0.15997 0.73387 0.0
H2093 H 0.76209 0.15525 0.75176 0.0
H2094 H 0.72034 0.09291 0.75082 0.0
H2095 H 0.69661 0.09694 0.73176 0.0
C2096 C 0.62906 0.12733 0.73415 0.0
C2097 C 0.61657 0.10672 0.73449 0.0
C2098 C 0.64664 0.13393 0.72746 0.0
C2099 C 0.65209 0.12006 0.7212 0.0
C2100 C 0.6398 0.09954 0.72183 0.0
C2101 C 0.62212 0.09289 0.72825 0.0
C2102 C 0.67057 0.12688 0.71383 0.0
C2103 C 0.68398 0.12445 0.72464 0.0
C2104 C 0.67508 0.13599 0.69649 0.0
C2105 C 0.66132 0.1386 0.68428 0.0
C2106 C 0.64346 0.12188 0.67605 0.0
C2107 C 0.63054 0.12449 0.66466 0.0
C2108 C 0.63536 0.14374 0.66127 0.0
C2109 C 0.65314 0.16041 0.66922 0.0
C2110 C 0.66611 0.15788 0.68065 0.0
C2111 C 0.74841 0.13732 0.68518 0.0
C2112 C 0.75994 0.15671 0.6807 0.0
C2113 C 0.73053 0.13136 0.6906 0.0
C2114 C 0.72423 0.14505 0.69265 0.0
C2115 C 0.73556 0.16428 0.68753 0.0
C2116 C 0.75323 0.16999 0.68137 0.0
C2117 C 0.70618 0.13949 0.7008 0.0
C2118 C 0.69284 0.14223 0.69023 0.0
C2119 C 0.70184 0.1309 0.71856 0.0
C2120 C 0.71574 0.12872 0.73115 0.0
C2121 C 0.73426 0.14521 0.73735 0.0
C2122 C 0.74775 0.14261 0.74758 0.0
C2123 C 0.74274 0.12377 0.75242 0.0
C2124 C 0.72421 0.10748 0.747 0.0
C2125 C 0.71076 0.10988 0.73635 0.0
H2126 H 0.75318 0.12182 0.76046 0.0
H2127 H 0.62533 0.14573 0.65244 0.0
H2128 H 0.92042 0.5167 0.71376 0.0
H2129 H 0.91703 0.54281 0.70076 0.0
H2130 H 0.86298 0.52008 0.72244 0.0
H2131 H 0.86618 0.49389 0.73537 0.0
H2132 H 0.86216 0.52892 0.68457 0.0
H2133 H 0.90182 0.56096 0.74862 0.0
H2134 H 0.92965 0.57158 0.77317 0.0
H2135 H 0.9665 0.6055 0.73224 0.0
H2136 H 0.93887 0.59485 0.70733 0.0
H2137 H 0.8458 0.60879 0.69385 0.0
H2138 H 0.85183 0.58211 0.69857 0.0
H2139 H 0.90587 0.61489 0.67719 0.0
H2140 H 0.90009 0.64208 0.67269 0.0
H2141 H 0.90901 0.60112 0.71068 0.0
H2142 H 0.86905 0.57231 0.64809 0.0
H2143 H 0.84114 0.56196 0.6238 0.0
H2144 H 0.80487 0.52204 0.66149 0.0
H2145 H 0.83253 0.53236 0.68616 0.0
C2146 C 0.90776 0.51719 0.71567 0.0
C2147 C 0.8936 0.50328 0.72568 0.0
C2148 C 0.90588 0.53215 0.70828 0.0
C2149 C 0.88983 0.53347 0.71079 0.0
C2150 C 0.87547 0.51931 0.72034 0.0
C2151 C 0.87737 0.5044 0.72779 0.0
C2152 C 0.8881 0.54988 0.70398 0.0
C2153 C 0.87232 0.54471 0.69035 0.0
C2154 C 0.9017 0.57048 0.71105 0.0
C2155 C 0.9183 0.57692 0.72603 0.0
C2156 C 0.91586 0.57055 0.74479 0.0
C2157 C 0.9316 0.5766 0.75878 0.0
C2158 C 0.94983 0.58915 0.75424 0.0
C2159 C 0.95237 0.59574 0.73572 0.0
C2160 C 0.93668 0.58971 0.72166 0.0
C2161 C 0.85892 0.61035 0.68993 0.0
C2162 C 0.87243 0.6276 0.68278 0.0
C2163 C 0.86231 0.59497 0.69257 0.0
C2164 C 0.87917 0.59633 0.68792 0.0
C2165 C 0.89271 0.61348 0.68075 0.0
C2166 C 0.88936 0.62899 0.67816 0.0
C2167 C 0.88284 0.58017 0.69155 0.0
C2168 C 0.89898 0.58536 0.7046 0.0
C2169 C 0.86958 0.55958 0.6839 0.0
C2170 C 0.85288 0.55322 0.66904 0.0
C2171 C 0.85511 0.56143 0.65127 0.0
C2172 C 0.83933 0.55555 0.63742 0.0
C2173 C 0.82124 0.54138 0.64111 0.0
C2174 C 0.81889 0.53302 0.65865 0.0
C2175 C 0.83462 0.53886 0.67256 0.0
H2176 H 0.80904 0.53685 0.63038 0.0
H2177 H 0.962 0.59383 0.7651 0.0
H2178 H 0.48014 0.94637 0.21198 0.0
H2179 H 0.48861 0.95807 0.18016 0.0
H2180 H 0.4714 0.89775 0.15216 0.0
H2181 H 0.46298 0.88586 0.18407 0.0
H2182 H 0.50478 0.92679 0.14084 0.0
H2183 H 0.44258 0.91466 0.14574 0.0
H2184 H 0.41792 0.91762 0.16176 0.0
H2185 H 0.449 0.98159 0.16247 0.0
H2186 H 0.47406 0.97908 0.14681 0.0
H2187 H 0.51029 0.95235 0.04366 0.0
H2188 H 0.49836 0.93544 0.07228 0.0
H2189 H 0.50379 0.98987 0.10391 0.0
H2190 H 0.51406 0.00607 0.07436 0.0
H2191 H 0.47401 0.96026 0.11193 0.0
H2192 H 0.53802 0.97319 0.11094 0.0
H2193 H 0.56318 0.97059 0.09556 0.0
H2194 H 0.52929 0.90596 0.08783 0.0
H2195 H 0.50392 0.90818 0.10309 0.0
C2196 C 0.47825 0.93557 0.19912 0.0
C2197 C 0.47074 0.91512 0.20054 0.0
C2198 C 0.48305 0.9423 0.18092 0.0
C2199 C 0.48035 0.92871 0.16376 0.0
C2200 C 0.4735 0.90844 0.16524 0.0
C2201 C 0.46867 0.90167 0.18347 0.0
C2202 C 0.48429 0.9357 0.14422 0.0
C2203 C 0.49792 0.9339 0.13435 0.0
C2204 C 0.47544 0.94516 0.13595 0.0
C2205 C 0.4603 0.94669 0.14525 0.0
C2206 C 0.44427 0.92939 0.14951 0.0
C2207 C 0.43021 0.93099 0.15852 0.0
C2208 C 0.43192 0.94979 0.16319 0.0
C2209 C 0.4477 0.96704 0.15886 0.0
C2210 C 0.46184 0.96553 0.14991 0.0
C2211 C 0.50856 0.9605 0.05659 0.0
C2212 C 0.51287 0.98036 0.0569 0.0
C2213 C 0.50202 0.95095 0.07308 0.0
C2214 C 0.50063 0.9615 0.09055 0.0
C2215 C 0.50477 0.98138 0.09067 0.0
C2216 C 0.51069 0.99067 0.07388 0.0
C2217 C 0.49508 0.95207 0.10879 0.0
C2218 C 0.48096 0.95321 0.11836 0.0
C2219 C 0.50361 0.94215 0.11687 0.0
C2220 C 0.51903 0.94086 0.10801 0.0
C2221 C 0.53593 0.95843 0.10591 0.0
C2222 C 0.55024 0.95702 0.09723 0.0
C2223 C 0.54784 0.93812 0.09071 0.0
C2224 C 0.53116 0.92058 0.09291 0.0
C2225 C 0.51682 0.92191 0.10161 0.0
H2226 H 0.55891 0.93705 0.08397 0.0
H2227 H 0.42099 0.95099 0.17011 0.0
H2228 H 0.10902 0.52878 0.21115 0.0
H2229 H 0.09149 0.52132 0.17796 0.0
H2230 H 0.04431 0.51769 0.20544 0.0
H2231 H 0.06146 0.52438 0.23861 0.0
H2232 H 0.03164 0.49087 0.17241 0.0
H2233 H 0.07817 0.56188 0.19033 0.0
H2234 H 0.11027 0.59148 0.20111 0.0
H2235 H 0.12968 0.5744 0.14919 0.0
H2236 H 0.09773 0.54454 0.13823 0.0
H2237 H 0.01849 0.54196 0.08549 0.0
H2238 H 0.03366 0.54377 0.11843 0.0
H2239 H 0.02292 0.48363 0.10043 0.0
H2240 H 0.00705 0.48146 0.06794 0.0
H2241 H 0.06405 0.54226 0.12898 0.0
H2242 H 0.01593 0.46017 0.1418 0.0
H2243 H 0.98313 0.43182 0.1314 0.0
H2244 H 0.96498 0.4735 0.1237 0.0
H2245 H 0.99763 0.5021 0.13424 0.0
C2246 C 0.0948 0.52607 0.21011 0.0
C2247 C 0.08672 0.52742 0.2275 0.0
C2248 C 0.08482 0.52189 0.19114 0.0
C2249 C 0.06678 0.51945 0.18924 0.0
C2250 C 0.05825 0.51962 0.20654 0.0
C2251 C 0.0681 0.52349 0.22551 0.0
C2252 C 0.05732 0.51814 0.1694 0.0
C2253 C 0.03872 0.50208 0.16289 0.0
C2254 C 0.06645 0.53291 0.15708 0.0
C2255 C 0.08562 0.55092 0.16355 0.0
C2256 C 0.08932 0.56439 0.18127 0.0
C2257 C 0.10748 0.58121 0.18741 0.0
C2258 C 0.12202 0.5848 0.17586 0.0
C2259 C 0.11841 0.57159 0.15812 0.0
C2260 C 0.10028 0.55473 0.15194 0.0
C2261 C 0.0193 0.52913 0.08867 0.0
C2262 C 0.01172 0.51163 0.07421 0.0
C2263 C 0.02802 0.53019 0.1074 0.0
C2264 C 0.02927 0.51376 0.11195 0.0
C2265 C 0.02186 0.49636 0.09738 0.0
C2266 C 0.01297 0.49522 0.07877 0.0
C2267 C 0.03841 0.51492 0.1319 0.0
C2268 C 0.05696 0.53099 0.13844 0.0
C2269 C 0.02911 0.5003 0.14433 0.0
C2270 C 0.0093 0.48326 0.13853 0.0
C2271 C 0.00494 0.46328 0.13792 0.0
C2272 C 0.98637 0.44717 0.132 0.0
C2273 C 0.972 0.45085 0.12679 0.0
C2274 C 0.97614 0.47066 0.12763 0.0
C2275 C 0.99469 0.48683 0.13356 0.0
H2276 H 0.95764 0.43835 0.12216 0.0
H2277 H 0.13607 0.59783 0.18064 0.0
H2278 H 0.48056 0.50406 0.22578 0.0
H2279 H 0.48571 0.49685 0.19139 0.0
H2280 H 0.46285 0.5319 0.17212 0.0
H2281 H 0.45684 0.53831 0.20628 0.0
H2282 H 0.45157 0.50137 0.14499 0.0
H2283 H 0.51219 0.55057 0.18148 0.0
H2284 H 0.53885 0.56496 0.2087 0.0
H2285 H 0.5469 0.51536 0.19192 0.0
H2286 H 0.52012 0.50052 0.16475 0.0
H2287 H 0.49206 0.52064 0.05421 0.0
H2288 H 0.48252 0.5224 0.08749 0.0
H2289 H 0.50361 0.48489 0.1039 0.0
H2290 H 0.51401 0.48393 0.07082 0.0
H2291 H 0.51525 0.51543 0.13242 0.0
H2292 H 0.45317 0.46765 0.09392 0.0
H2293 H 0.42698 0.45643 0.06689 0.0
H2294 H 0.42346 0.50847 0.08717 0.0
H2295 H 0.44954 0.51993 0.11438 0.0
C2296 C 0.47646 0.51005 0.21416 0.0
C2297 C 0.46838 0.52184 0.21874 0.0
C2298 C 0.47954 0.50605 0.19452 0.0
C2299 C 0.47511 0.51423 0.17919 0.0
C2300 C 0.46647 0.52546 0.18366 0.0
C2301 C 0.46303 0.52912 0.20321 0.0
C2302 C 0.47971 0.51141 0.15858 0.0
C2303 C 0.46555 0.50462 0.14226 0.0
C2304 C 0.4979 0.51544 0.15493 0.0
C2305 C 0.51402 0.52433 0.17123 0.0
C2306 C 0.51956 0.54265 0.18369 0.0
C2307 C 0.5347 0.5509 0.19909 0.0
C2308 C 0.54453 0.54105 0.20207 0.0
C2309 C 0.53926 0.52295 0.18962 0.0
C2310 C 0.52411 0.51462 0.17421 0.0
C2311 C 0.49452 0.51263 0.06487 0.0
C2312 C 0.50381 0.50219 0.06001 0.0
C2313 C 0.48891 0.5135 0.08387 0.0
C2314 C 0.49205 0.50351 0.09819 0.0
C2315 C 0.501 0.49271 0.09313 0.0
C2316 C 0.50689 0.49211 0.07423 0.0
C2317 C 0.48706 0.5053 0.11881 0.0
C2318 C 0.5012 0.51197 0.13516 0.0
C2319 C 0.469 0.50164 0.12247 0.0
C2320 C 0.45337 0.4947 0.10607 0.0
C2321 C 0.44686 0.47674 0.09253 0.0
C2322 C 0.43202 0.47033 0.07719 0.0
C2323 C 0.42365 0.48182 0.07525 0.0
C2324 C 0.42999 0.49963 0.08869 0.0
C2325 C 0.44473 0.50603 0.1041 0.0
H2326 H 0.41223 0.47696 0.06341 0.0
H2327 H 0.55625 0.54747 0.214 0.0
H2328 H 0.92165 0.48215 0.82264 0.0
H2329 H 0.93767 0.49155 0.85681 0.0
H2330 H 0.99168 0.51738 0.83461 0.0
H2331 H 0.97569 0.50764 0.80022 0.0
H2332 H 0.98846 0.49189 0.85844 0.0
H2333 H 0.97842 0.54693 0.86301 0.0
H2334 H 0.96077 0.56431 0.86008 0.0
H2335 H 0.92483 0.53098 0.90193 0.0
H2336 H 0.94203 0.51312 0.90485 0.0
H2337 H 0.03183 0.51386 0.95953 0.0
H2338 H 0.02405 0.51929 0.9262 0.0
H2339 H 0.96545 0.49208 0.93552 0.0
H2340 H 0.97318 0.48676 0.96864 0.0
H2341 H 0.97613 0.52455 0.91816 0.0
H2342 H 0.98172 0.4654 0.90828 0.0
H2343 H 0.99827 0.44684 0.91111 0.0
H2344 H 0.04152 0.48723 0.87909 0.0
H2345 H 0.02531 0.50619 0.87629 0.0
C2346 C 0.93695 0.49015 0.825 0.0
C2347 C 0.94737 0.49398 0.80867 0.0
C2348 C 0.94612 0.49566 0.84461 0.0
C2349 C 0.9659 0.5053 0.84831 0.0
C2350 C 0.9764 0.50997 0.8321 0.0
C2351 C 0.96723 0.5044 0.81246 0.0
C2352 C 0.97531 0.50842 0.86881 0.0
C2353 C 0.98614 0.4995 0.87145 0.0
C2354 C 0.97195 0.51793 0.88584 0.0
C2355 C 0.96146 0.52856 0.88402 0.0
C2356 C 0.96665 0.54316 0.87145 0.0
C2357 C 0.95673 0.55312 0.86981 0.0
C2358 C 0.94167 0.54872 0.88078 0.0
C2359 C 0.93649 0.53436 0.89342 0.0
C2360 C 0.94633 0.52432 0.89509 0.0
C2361 C 0.01734 0.50915 0.95441 0.0
C2362 C 0.00311 0.49999 0.9666 0.0
C2363 C 0.0129 0.51225 0.93543 0.0
C2364 C 0.99414 0.50598 0.92833 0.0
C2365 C 0.98003 0.49716 0.94072 0.0
C2366 C 0.98446 0.49413 0.95964 0.0
C2367 C 0.98881 0.50761 0.90769 0.0
C2368 C 0.97875 0.51737 0.90505 0.0
C2369 C 0.99272 0.49874 0.89064 0.0
C2370 C 0.00245 0.48735 0.89231 0.0
C2371 C 0.99484 0.47042 0.90199 0.0
C2372 C 0.00414 0.45981 0.90356 0.0
C2373 C 0.02097 0.46589 0.89535 0.0
C2374 C 0.0285 0.48256 0.88549 0.0
C2375 C 0.01927 0.49324 0.8839 0.0
H2376 H 0.02815 0.45766 0.89657 0.0
H2377 H 0.93402 0.55646 0.8795 0.0
H2378 H 0.56145 0.47911 0.80541 0.0
H2379 H 0.551 0.47907 0.83846 0.0
H2380 H 0.54407 0.52906 0.83045 0.0
H2381 H 0.55456 0.52915 0.79734 0.0
H2382 H 0.56069 0.53481 0.8673 0.0
H2383 H 0.50536 0.48032 0.82497 0.0
H2384 H 0.48689 0.44873 0.8006 0.0
H2385 H 0.49952 0.41702 0.84051 0.0
H2386 H 0.51813 0.44847 0.8651 0.0
H2387 H 0.49904 0.52341 0.94153 0.0
H2388 H 0.51166 0.52427 0.90943 0.0
H2389 H 0.52856 0.48294 0.92425 0.0
H2390 H 0.51625 0.48226 0.95641 0.0
H2391 H 0.50715 0.47255 0.88459 0.0
H2392 H 0.56321 0.52687 0.92609 0.0
H2393 H 0.5803 0.55788 0.95152 0.0
H2394 H 0.56522 0.58918 0.91348 0.0
H2395 H 0.54801 0.55833 0.88783 0.0
C2396 C 0.55734 0.48982 0.81052 0.0
C2397 C 0.55831 0.50377 0.79859 0.0
C2398 C 0.5515 0.48988 0.82947 0.0
C2399 C 0.5464 0.50381 0.83677 0.0
C2400 C 0.54785 0.51811 0.82508 0.0
C2401 C 0.55381 0.51813 0.80618 0.0
C2402 C 0.53958 0.5035 0.8566 0.0
C2403 C 0.54884 0.52125 0.87095 0.0
C2404 C 0.52438 0.4857 0.86159 0.0
C2405 C 0.51328 0.46679 0.84679 0.0
C2406 C 0.50431 0.46664 0.82848 0.0
C2407 C 0.49379 0.44875 0.81465 0.0
C2408 C 0.49209 0.43089 0.81897 0.0
C2409 C 0.50087 0.43087 0.83717 0.0
C2410 C 0.51137 0.44872 0.85108 0.0
C2411 C 0.50551 0.51458 0.93791 0.0
C2412 C 0.50675 0.50283 0.95136 0.0
C2413 C 0.51273 0.51512 0.91967 0.0
C2414 C 0.52104 0.50368 0.91457 0.0
C2415 C 0.52219 0.49185 0.92797 0.0
C2416 C 0.51524 0.49155 0.94631 0.0
C2417 C 0.52821 0.50381 0.89507 0.0
C2418 C 0.51902 0.48605 0.88085 0.0
C2419 C 0.54341 0.52154 0.89018 0.0
C2420 C 0.55419 0.54028 0.90518 0.0
C2421 C 0.56349 0.54036 0.92322 0.0
C2422 C 0.5732 0.55787 0.93763 0.0
C2423 C 0.57371 0.5754 0.93415 0.0
C2424 C 0.56475 0.57555 0.91615 0.0
C2425 C 0.55507 0.55808 0.90164 0.0
H2426 H 0.58109 0.58885 0.94542 0.0
H2427 H 0.48392 0.41705 0.80825 0.0
H2428 H 0.51259 0.04555 0.81062 0.0
H2429 H 0.51012 0.03392 0.8427 0.0
H2430 H 0.56963 0.05473 0.84978 0.0
H2431 H 0.57231 0.06649 0.81735 0.0
H2432 H 0.54717 0.01636 0.8597 0.0
H2433 H 0.55598 0.08158 0.87659 0.0
H2434 H 0.55071 0.10956 0.87363 0.0
H2435 H 0.4932 0.07295 0.88453 0.0
H2436 H 0.49801 0.04461 0.88722 0.0
H2437 H 0.5328 0.99029 0.95827 0.0
H2438 H 0.54595 0.00849 0.93057 0.0
H2439 H 0.4926 0.00357 0.91331 0.0
H2440 H 0.48005 0.9869 0.94185 0.0
H2441 H 0.51939 0.03945 0.91178 0.0
H2442 H 0.5093 0.97255 0.88808 0.0
H2443 H 0.51438 0.94436 0.89084 0.0
H2444 H 0.5743 0.98438 0.89322 0.0
H2445 H 0.56956 0.01283 0.89063 0.0
C2446 C 0.52522 0.04768 0.81891 0.0
C2447 C 0.5427 0.05706 0.81142 0.0
C2448 C 0.52377 0.04108 0.83732 0.0
C2449 C 0.53974 0.04375 0.84875 0.0
C2450 C 0.55717 0.05266 0.84121 0.0
C2451 C 0.55867 0.05938 0.82272 0.0
C2452 C 0.53786 0.03699 0.86848 0.0
C2453 C 0.54144 0.02166 0.87129 0.0
C2454 C 0.53031 0.04386 0.88353 0.0
C2455 C 0.52734 0.0609 0.88196 0.0
C2456 C 0.54216 0.07942 0.87819 0.0
C2457 C 0.53926 0.09537 0.87659 0.0
C2458 C 0.52162 0.09302 0.87885 0.0
C2459 C 0.50686 0.07474 0.88277 0.0
C2460 C 0.50967 0.05874 0.88435 0.0
C2461 C 0.524 0.99331 0.94864 0.0
C2462 C 0.50553 0.98749 0.95233 0.0
C2463 C 0.53144 0.00349 0.93267 0.0
C2464 C 0.52023 0.00728 0.91969 0.0
C2465 C 0.50159 0.00096 0.92316 0.0
C2466 C 0.49436 0.99128 0.93938 0.0
C2467 C 0.52768 0.018 0.90255 0.0
C2468 C 0.52533 0.03427 0.90033 0.0
C2469 C 0.5363 0.01194 0.88806 0.0
C2470 C 0.53909 0.9948 0.88932 0.0
C2471 C 0.52355 0.97532 0.88926 0.0
C2472 C 0.52637 0.95931 0.89079 0.0
C2473 C 0.54465 0.96259 0.89224 0.0
C2474 C 0.56015 0.98187 0.8921 0.0
C2475 C 0.5574 0.99793 0.89057 0.0
H2476 H 0.5468 0.95018 0.89345 0.0
H2477 H 0.51941 0.10539 0.87761 0.0
H2478 H 0.10517 0.26145 0.5258 0.0
H2479 H 0.11415 0.28309 0.50007 0.0
H2480 H 0.16694 0.28457 0.50079 0.0
H2481 H 0.1584 0.26371 0.5269 0.0
H2482 H 0.1726 0.32098 0.49936 0.0
H2483 H 0.12732 0.25244 0.46553 0.0
H2484 H 0.09619 0.22083 0.45833 0.0
H2485 H 0.07003 0.25358 0.44253 0.0
H2486 H 0.10097 0.28546 0.44997 0.0
H2487 H 0.20443 0.34044 0.40581 0.0
H2488 H 0.19248 0.32663 0.43603 0.0
H2489 H 0.14398 0.33247 0.4239 0.0
H2490 H 0.15603 0.3464 0.39365 0.0
H2491 H 0.13337 0.2961 0.43277 0.0
H2492 H 0.17843 0.36376 0.46253 0.0
H2493 H 0.20929 0.39568 0.46912 0.0
H2494 H 0.23538 0.36538 0.4922 0.0
H2495 H 0.20473 0.3332 0.48548 0.0
C2496 C 0.11887 0.26681 0.52087 0.0
C2497 C 0.13116 0.26105 0.52862 0.0
C2498 C 0.12388 0.27895 0.50593 0.0
C2499 C 0.14117 0.28533 0.49838 0.0
C2500 C 0.15355 0.27988 0.50639 0.0
C2501 C 0.1486 0.26786 0.52128 0.0
C2502 C 0.14649 0.29731 0.48184 0.0
C2503 C 0.16406 0.31549 0.48477 0.0
C2504 C 0.13501 0.29056 0.46301 0.0
C2505 C 0.11642 0.27138 0.45866 0.0
C2506 C 0.11491 0.25294 0.46075 0.0
C2507 C 0.0973 0.23497 0.45658 0.0
C2508 C 0.08114 0.23523 0.4501 0.0
C2509 C 0.08255 0.25343 0.44765 0.0
C2510 C 0.10011 0.27145 0.45186 0.0
C2511 C 0.19137 0.33903 0.40977 0.0
C2512 C 0.18102 0.34427 0.39738 0.0
C2513 C 0.18455 0.33116 0.42703 0.0
C2514 C 0.1674 0.32865 0.43232 0.0
C2515 C 0.15722 0.33423 0.42009 0.0
C2516 C 0.16405 0.34209 0.40281 0.0
C2517 C 0.15978 0.31936 0.45012 0.0
C2518 C 0.14178 0.30176 0.44745 0.0
C2519 C 0.1708 0.32668 0.46922 0.0
C2520 C 0.18928 0.34603 0.47337 0.0
C2521 C 0.19077 0.36387 0.46888 0.0
C2522 C 0.20823 0.38202 0.47266 0.0
C2523 C 0.22429 0.38255 0.48104 0.0
C2524 C 0.22292 0.36494 0.4857 0.0
C2525 C 0.2055 0.34674 0.48193 0.0
H2526 H 0.23779 0.39662 0.48395 0.0
H2527 H 0.06754 0.22133 0.44695 0.0
H2528 H 0.71186 0.84455 0.58099 0.0
H2529 H 0.69927 0.84421 0.54735 0.0
H2530 H 0.75265 0.85904 0.52676 0.0
H2531 H 0.76566 0.86124 0.56094 0.0
H2532 H 0.74156 0.87714 0.5088 0.0
H2533 H 0.70944 0.80858 0.51736 0.0
H2534 H 0.69066 0.77884 0.53333 0.0
H2535 H 0.64364 0.78771 0.52839 0.0
H2536 H 0.66223 0.81767 0.51262 0.0
H2537 H 0.69882 0.84019 0.40536 0.0
H2538 H 0.71281 0.84207 0.43896 0.0
H2539 H 0.67238 0.85397 0.46487 0.0
H2540 H 0.65842 0.85212 0.43117 0.0
H2541 H 0.67718 0.82162 0.47872 0.0
H2542 H 0.71363 0.8914 0.46694 0.0
H2543 H 0.7342 0.9173 0.44751 0.0
H2544 H 0.77564 0.90021 0.45429 0.0
H2545 H 0.75519 0.87397 0.47347 0.0
C2546 C 0.72084 0.84779 0.56922 0.0
C2547 C 0.73962 0.85278 0.57335 0.0
C2548 C 0.71362 0.84741 0.54993 0.0
C2549 C 0.72477 0.85101 0.53419 0.0
C2550 C 0.74367 0.85616 0.5385 0.0
C2551 C 0.7511 0.85732 0.55799 0.0
C2552 C 0.71679 0.84956 0.51334 0.0
C2553 C 0.72757 0.86479 0.50223 0.0
C2554 C 0.69854 0.83348 0.50447 0.0
C2555 C 0.6873 0.81549 0.51399 0.0
C2556 C 0.69514 0.80427 0.51981 0.0
C2557 C 0.68452 0.78736 0.52881 0.0
C2558 C 0.66598 0.78142 0.53192 0.0
C2559 C 0.65801 0.79235 0.526 0.0
C2560 C 0.66857 0.80929 0.51701 0.0
C2561 C 0.69274 0.84281 0.41818 0.0
C2562 C 0.67733 0.84553 0.41572 0.0
C2563 C 0.70086 0.84415 0.43735 0.0
C2564 C 0.69356 0.8481 0.45432 0.0
C2565 C 0.67815 0.85085 0.45191 0.0
C2566 C 0.67024 0.84984 0.43273 0.0
C2567 C 0.70187 0.8492 0.47463 0.0
C2568 C 0.69115 0.83387 0.4855 0.0
C2569 C 0.72046 0.86464 0.48287 0.0
C2570 C 0.73281 0.88062 0.47154 0.0
C2571 C 0.72706 0.89305 0.46416 0.0
C2572 C 0.73871 0.90781 0.45322 0.0
C2573 C 0.75622 0.91039 0.44969 0.0
C2574 C 0.76209 0.8982 0.45706 0.0
C2575 C 0.75048 0.8834 0.46798 0.0
H2576 H 0.76528 0.92189 0.44133 0.0
H2577 H 0.65779 0.76832 0.53889 0.0
H2578 H 0.12027 0.84358 0.54135 0.0
H2579 H 0.12736 0.8358 0.50803 0.0
H2580 H 0.15166 0.89813 0.50097 0.0
H2581 H 0.14331 0.90552 0.53352 0.0
H2582 H 0.13649 0.87754 0.46692 0.0
H2583 H 0.17862 0.87652 0.51769 0.0
H2584 H 0.18757 0.86592 0.5472 0.0
H2585 H 0.15916 0.80481 0.51604 0.0
H2586 H 0.14985 0.81502 0.48641 0.0
H2587 H 0.2033 0.88487 0.40162 0.0
H2588 H 0.18946 0.88754 0.43207 0.0
H2589 H 0.15259 0.82281 0.42246 0.0
H2590 H 0.16642 0.82007 0.39195 0.0
H2591 H 0.17213 0.84218 0.46326 0.0
H2592 H 0.13343 0.8471 0.41078 0.0
H2593 H 0.12981 0.86141 0.38142 0.0
H2594 H 0.15807 0.92046 0.41738 0.0
H2595 H 0.16204 0.90645 0.44686 0.0
C2596 C 0.12686 0.8555 0.53249 0.0
C2597 C 0.13138 0.87516 0.54002 0.0
C2598 C 0.13105 0.85111 0.51353 0.0
C2599 C 0.14058 0.8665 0.50215 0.0
C2600 C 0.14437 0.88597 0.50939 0.0
C2601 C 0.13964 0.89021 0.52805 0.0
C2602 C 0.14752 0.86272 0.48328 0.0
C2603 C 0.14437 0.86991 0.46626 0.0
C2604 C 0.15776 0.85267 0.48217 0.0
C2605 C 0.16335 0.84649 0.49994 0.0
C2606 C 0.17418 0.8608 0.51719 0.0
C2607 C 0.17933 0.85486 0.53392 0.0
C2608 C 0.17389 0.83469 0.53352 0.0
C2609 C 0.16333 0.82042 0.51634 0.0
C2610 C 0.15812 0.82627 0.49958 0.0
C2611 C 0.19234 0.87123 0.40612 0.0
C2612 C 0.18577 0.85228 0.39448 0.0
C2613 C 0.18441 0.87277 0.4234 0.0
C2614 C 0.16994 0.85537 0.42935 0.0
C2615 C 0.16373 0.83638 0.41804 0.0
C2616 C 0.17153 0.83485 0.40063 0.0
C2617 C 0.16119 0.85711 0.44729 0.0
C2618 C 0.16404 0.84958 0.46404 0.0
C2619 C 0.15123 0.86738 0.44835 0.0
C2620 C 0.14806 0.87571 0.43096 0.0
C2621 C 0.1389 0.86312 0.41236 0.0
C2622 C 0.13685 0.87118 0.39571 0.0
C2623 C 0.14375 0.89184 0.39754 0.0
C2624 C 0.15274 0.90446 0.41601 0.0
C2625 C 0.15485 0.89645 0.4327 0.0
H2626 H 0.14199 0.89803 0.38469 0.0
H2627 H 0.17789 0.83012 0.54649 0.0
H2628 H 0.5674 0.78886 0.16176 0.0
H2629 H 0.58267 0.79787 0.19631 0.0
H2630 H 0.63541 0.84175 0.17838 0.0
H2631 H 0.62037 0.83233 0.14367 0.0
H2632 H 0.64115 0.819 0.19841 0.0
H2633 H 0.60893 0.8549 0.209 0.0
H2634 H 0.58177 0.85983 0.20817 0.0
H2635 H 0.55515 0.815 0.24569 0.0
H2636 H 0.58196 0.80953 0.24649 0.0
H2637 H 0.66754 0.85876 0.31324 0.0
H2638 H 0.65243 0.85739 0.28052 0.0
H2639 H 0.64274 0.79789 0.26114 0.0
H2640 H 0.65789 0.79926 0.29386 0.0
H2641 H 0.61753 0.83271 0.26043 0.0
H2642 H 0.64843 0.79284 0.21231 0.0
H2643 H 0.67692 0.79027 0.21355 0.0
H2644 H 0.70889 0.84831 0.25135 0.0
H2645 H 0.68067 0.85135 0.25011 0.0
C2646 C 0.58216 0.8007 0.16523 0.0
C2647 C 0.59272 0.80976 0.14994 0.0
C2648 C 0.59087 0.80592 0.18504 0.0
C2649 C 0.6102 0.82055 0.19 0.0
C2650 C 0.6205 0.83035 0.17491 0.0
C2651 C 0.61187 0.82497 0.15507 0.0
C2652 C 0.62011 0.82416 0.21037 0.0
C2653 C 0.636 0.82212 0.21193 0.0
C2654 C 0.61354 0.82838 0.2281 0.0
C2655 C 0.59738 0.83164 0.2276 0.0
C2656 C 0.59721 0.84596 0.21692 0.0
C2657 C 0.58189 0.84887 0.21648 0.0
C2658 C 0.56672 0.83763 0.22677 0.0
C2659 C 0.56689 0.82361 0.23767 0.0
C2660 C 0.58214 0.82061 0.23813 0.0
C2661 C 0.66199 0.84533 0.30205 0.0
C2662 C 0.66378 0.82909 0.30601 0.0
C2663 C 0.65341 0.84458 0.28338 0.0
C2664 C 0.64663 0.82763 0.26835 0.0
C2665 C 0.64816 0.81125 0.27243 0.0
C2666 C 0.65678 0.81203 0.29109 0.0
C2667 C 0.63825 0.8272 0.24828 0.0
C2668 C 0.62267 0.82975 0.24682 0.0
C2669 C 0.64526 0.82378 0.23062 0.0
C2670 C 0.66238 0.82222 0.23125 0.0
C2671 C 0.66156 0.80509 0.22081 0.0
C2672 C 0.67766 0.80354 0.22153 0.0
C2673 C 0.69469 0.81909 0.23257 0.0
C2674 C 0.69568 0.83625 0.24286 0.0
C2675 C 0.67963 0.83787 0.24217 0.0
H2676 H 0.70713 0.81785 0.23312 0.0
H2677 H 0.55481 0.83973 0.22626 0.0
H2678 H 0.24998 0.80575 0.15565 0.0
H2679 H 0.24316 0.81536 0.18842 0.0
H2680 H 0.19864 0.82066 0.15924 0.0
H2681 H 0.20616 0.81225 0.12657 0.0
H2682 H 0.21368 0.84748 0.1905 0.0
H2683 H 0.19137 0.77606 0.17778 0.0
H2684 H 0.19463 0.74635 0.17051 0.0
H2685 H 0.23423 0.76741 0.22407 0.0
H2686 H 0.23137 0.79736 0.23151 0.0
H2687 H 0.15527 0.79865 0.27603 0.0
H2688 H 0.16802 0.79645 0.24469 0.0
H2689 H 0.21379 0.85832 0.2621 0.0
H2690 H 0.20043 0.86082 0.29289 0.0
H2691 H 0.19982 0.79923 0.23779 0.0
H2692 H 0.22808 0.87968 0.22068 0.0
H2693 H 0.22122 0.90698 0.22672 0.0
H2694 H 0.16309 0.86347 0.23007 0.0
H2695 H 0.16955 0.83592 0.2238 0.0
C2696 C 0.23897 0.80934 0.15627 0.0
C2697 C 0.22849 0.80809 0.13857 0.0
C2698 C 0.23499 0.81469 0.175 0.0
C2699 C 0.22001 0.81819 0.17636 0.0
C2700 C 0.21021 0.81797 0.15865 0.0
C2701 C 0.21451 0.81312 0.13994 0.0
C2702 C 0.21368 0.82086 0.19603 0.0
C2703 C 0.21075 0.83697 0.20087 0.0
C2704 C 0.2096 0.80704 0.20954 0.0
C2705 C 0.21131 0.78904 0.20507 0.0
C2706 C 0.20086 0.7744 0.18792 0.0
C2707 C 0.20263 0.75752 0.18378 0.0
C2708 C 0.21467 0.75502 0.19679 0.0
C2709 C 0.22494 0.76938 0.21399 0.0
C2710 C 0.22324 0.7863 0.21818 0.0
C2711 C 0.16794 0.81181 0.27304 0.0
C2712 C 0.17702 0.82984 0.28691 0.0
C2713 C 0.17529 0.81051 0.25523 0.0
C2714 C 0.19183 0.82723 0.25099 0.0
C2715 C 0.2009 0.84528 0.2649 0.0
C2716 C 0.19342 0.84663 0.2826 0.0
C2717 C 0.19957 0.82564 0.23207 0.0
C2718 C 0.20289 0.80981 0.22747 0.0
C2719 C 0.20349 0.83937 0.21854 0.0
C2720 C 0.19937 0.85578 0.22199 0.0
C2721 C 0.21383 0.87595 0.22263 0.0
C2722 C 0.21001 0.89146 0.22611 0.0
C2723 C 0.19175 0.88697 0.22885 0.0
C2724 C 0.17724 0.86694 0.22803 0.0
C2725 C 0.18098 0.85138 0.22453 0.0
H2726 H 0.18883 0.899 0.23158 0.0
H2727 H 0.21602 0.74194 0.19356 0.0
H2728 H 0.21429 0.3535 0.13601 0.0
H2729 H 0.20647 0.34475 0.16907 0.0
H2730 H 0.18811 0.38743 0.1781 0.0
H2731 H 0.19639 0.39667 0.14518 0.0
H2732 H 0.20864 0.38833 0.21246 0.0
H2733 H 0.15578 0.33917 0.16383 0.0
H2734 H 0.13999 0.31366 0.13314 0.0
H2735 H 0.15893 0.27701 0.15613 0.0
H2736 H 0.17507 0.30246 0.18685 0.0
H2737 H 0.13837 0.32685 0.27952 0.0
H2738 H 0.14687 0.33605 0.24664 0.0
H2739 H 0.20095 0.34194 0.26127 0.0
H2740 H 0.1922 0.33194 0.29393 0.0
H2741 H 0.1613 0.31677 0.21532 0.0
H2742 H 0.22789 0.38317 0.25286 0.0
H2743 H 0.24104 0.40822 0.28412 0.0
H2744 H 0.18945 0.40872 0.28336 0.0
H2745 H 0.17622 0.38398 0.25189 0.0
C2746 C 0.2087 0.36113 0.14507 0.0
C2747 C 0.20548 0.3754 0.13775 0.0
C2748 C 0.2042 0.35607 0.16394 0.0
C2749 C 0.19643 0.3652 0.17589 0.0
C2750 C 0.19393 0.38007 0.16902 0.0
C2751 C 0.19839 0.38511 0.15007 0.0
C2752 C 0.1902 0.35856 0.19515 0.0
C2753 C 0.19829 0.37269 0.213 0.0
C2754 C 0.17655 0.33818 0.19596 0.0
C2755 C 0.16678 0.32281 0.17755 0.0
C2756 C 0.1567 0.32574 0.16227 0.0
C2757 C 0.14767 0.31128 0.14488 0.0
C2758 C 0.1485 0.29375 0.14266 0.0
C2759 C 0.15832 0.29062 0.15786 0.0
C2760 C 0.1674 0.30504 0.17527 0.0
C2761 C 0.15201 0.32993 0.27565 0.0
C2762 C 0.16483 0.32908 0.28936 0.0
C2763 C 0.1568 0.33515 0.2569 0.0
C2764 C 0.17452 0.33972 0.25168 0.0
C2765 C 0.18724 0.33856 0.26518 0.0
C2766 C 0.18235 0.33309 0.28386 0.0
C2767 C 0.17998 0.34643 0.23236 0.0
C2768 C 0.17172 0.33235 0.21461 0.0
C2769 C 0.19318 0.36679 0.23155 0.0
C2770 C 0.20128 0.38211 0.24997 0.0
C2771 C 0.21953 0.38889 0.25927 0.0
C2772 C 0.22692 0.40289 0.27707 0.0
C2773 C 0.21608 0.41002 0.28579 0.0
C2774 C 0.19784 0.40321 0.27663 0.0
C2775 C 0.19042 0.38926 0.25878 0.0
H2776 H 0.22182 0.42079 0.29962 0.0
H2777 H 0.1415 0.28257 0.12919 0.0
H2778 H 0.81675 0.58555 0.8584 0.0
H2779 H 0.82989 0.60216 0.83 0.0
H2780 H 0.82378 0.65193 0.85398 0.0
H2781 H 0.81005 0.63507 0.88219 0.0
H2782 H 0.81249 0.64216 0.81555 0.0
H2783 H 0.86759 0.65583 0.85658 0.0
H2784 H 0.88791 0.6481 0.87695 0.0
H2785 H 0.88786 0.61025 0.82555 0.0
H2786 H 0.86732 0.61753 0.80491 0.0
H2787 H 0.86315 0.70026 0.74283 0.0
H2788 H 0.85289 0.68869 0.77445 0.0
H2789 H 0.86157 0.639 0.75854 0.0
H2790 H 0.87368 0.65194 0.728 0.0
H2791 H 0.87269 0.65171 0.79507 0.0
H2792 H 0.815 0.63786 0.75437 0.0
H2793 H 0.79622 0.64856 0.73551 0.0
H2794 H 0.80233 0.68909 0.78778 0.0
H2795 H 0.82135 0.67897 0.80695 0.0
C2796 C 0.81829 0.60008 0.85772 0.0
C2797 C 0.81241 0.60901 0.87262 0.0
C2798 C 0.82589 0.60962 0.84149 0.0
C2799 C 0.8281 0.62846 0.83998 0.0
C2800 C 0.82224 0.63742 0.85484 0.0
C2801 C 0.81446 0.62779 0.87099 0.0
C2802 C 0.8361 0.63851 0.82265 0.0
C2803 C 0.82571 0.64436 0.81112 0.0
C2804 C 0.85337 0.64146 0.81689 0.0
C2805 C 0.86578 0.6371 0.82924 0.0
C2806 C 0.8718 0.64574 0.84965 0.0
C2807 C 0.88337 0.64146 0.86124 0.0
C2808 C 0.88913 0.62866 0.85256 0.0
C2809 C 0.88337 0.62015 0.83226 0.0
C2810 C 0.87178 0.62437 0.8206 0.0
C2811 C 0.86295 0.68696 0.7463 0.0
C2812 C 0.86916 0.67693 0.73322 0.0
C2813 C 0.85686 0.68018 0.76421 0.0
C2814 C 0.85587 0.66257 0.76874 0.0
C2815 C 0.86213 0.65259 0.75548 0.0
C2816 C 0.869 0.6599 0.73802 0.0
C2817 C 0.84868 0.65459 0.78736 0.0
C2818 C 0.85933 0.64929 0.79928 0.0
C2819 C 0.83169 0.65227 0.79354 0.0
C2820 C 0.81973 0.65778 0.78204 0.0
C2821 C 0.81239 0.6491 0.76182 0.0
C2822 C 0.80174 0.65508 0.75107 0.0
C2823 C 0.79816 0.6695 0.76039 0.0
C2824 C 0.80516 0.67796 0.78055 0.0
C2825 C 0.81585 0.6721 0.79138 0.0
H2826 H 0.78988 0.67404 0.75201 0.0
H2827 H 0.8981 0.62536 0.86156 0.0
H2828 H 0.41971 0.19042 0.9008 0.0
H2829 H 0.41032 0.19074 0.86605 0.0
H2830 H 0.35457 0.13989 0.86788 0.0
H2831 H 0.36402 0.1394 0.90258 0.0
H2832 H 0.36614 0.13527 0.83313 0.0
H2833 H 0.36391 0.18906 0.87338 0.0
H2834 H 0.37674 0.22015 0.89824 0.0
H2835 H 0.41982 0.25272 0.86196 0.0
H2836 H 0.40737 0.22174 0.83696 0.0
H2837 H 0.31203 0.14819 0.75678 0.0
H2838 H 0.32589 0.14662 0.789 0.0
H2839 H 0.38181 0.18747 0.7754 0.0
H2840 H 0.36807 0.18877 0.74302 0.0
H2841 H 0.37241 0.19785 0.81472 0.0
H2842 H 0.37391 0.14412 0.774 0.0
H2843 H 0.36016 0.11316 0.74871 0.0
H2844 H 0.3175 0.08095 0.78553 0.0
H2845 H 0.331 0.11172 0.81107 0.0
C2846 C 0.40538 0.17952 0.89388 0.0
C2847 C 0.39243 0.16523 0.90453 0.0
C2848 C 0.40006 0.17962 0.87398 0.0
C2849 C 0.38162 0.16558 0.86447 0.0
C2850 C 0.36885 0.15091 0.87492 0.0
C2851 C 0.37424 0.15068 0.89475 0.0
C2852 C 0.37544 0.16642 0.8438 0.0
C2853 C 0.3674 0.14892 0.82919 0.0
C2854 C 0.37742 0.18435 0.83848 0.0
C2855 C 0.38483 0.20303 0.85341 0.0
C2856 C 0.3762 0.20282 0.87077 0.0
C2857 C 0.38339 0.22043 0.88488 0.0
C2858 C 0.39913 0.23839 0.88172 0.0
C2859 C 0.40766 0.23879 0.8644 0.0
C2860 C 0.40052 0.22122 0.85025 0.0
C2861 C 0.32727 0.1567 0.76065 0.0
C2862 C 0.339 0.16858 0.74751 0.0
C2863 C 0.33515 0.15577 0.77896 0.0
C2864 C 0.35484 0.16692 0.78447 0.0
C2865 C 0.36659 0.17876 0.77134 0.0
C2866 C 0.35873 0.17942 0.75288 0.0
C2867 C 0.36303 0.16671 0.8043 0.0
C2868 C 0.37138 0.1843 0.81871 0.0
C2869 C 0.36128 0.1489 0.80945 0.0
C2870 C 0.35336 0.13026 0.79437 0.0
C2871 C 0.36155 0.13046 0.77667 0.0
C2872 C 0.35383 0.11295 0.76231 0.0
C2873 C 0.33793 0.09516 0.76548 0.0
C2874 C 0.32981 0.09477 0.7831 0.0
C2875 C 0.33753 0.11221 0.79756 0.0
H2876 H 0.3319 0.08169 0.75429 0.0
H2877 H 0.40468 0.252 0.89266 0.0
H2878 H 0.77906 0.19519 0.864 0.0
H2879 H 0.78498 0.18793 0.83012 0.0
H2880 H 0.82176 0.16885 0.85325 0.0
H2881 H 0.81652 0.17695 0.88742 0.0
H2882 H 0.83806 0.19322 0.82771 0.0
H2883 H 0.77623 0.13086 0.82164 0.0
H2884 H 0.74244 0.11177 0.82612 0.0
H2885 H 0.73215 0.14976 0.79314 0.0
H2886 H 0.76592 0.16914 0.78868 0.0
H2887 H 0.85027 0.16085 0.73038 0.0
H2888 H 0.84036 0.15914 0.76393 0.0
H2889 H 0.80507 0.1824 0.74753 0.0
H2890 H 0.8149 0.1841 0.71408 0.0
H2891 H 0.78764 0.15297 0.76993 0.0
H2892 H 0.8487 0.21348 0.77354 0.0
H2893 H 0.88243 0.23305 0.76916 0.0
H2894 H 0.89473 0.2004 0.80812 0.0
H2895 H 0.86101 0.18044 0.81252 0.0
C2896 C 0.78819 0.18916 0.86189 0.0
C2897 C 0.7973 0.18663 0.87842 0.0
C2898 C 0.79146 0.18486 0.84244 0.0
C2899 C 0.80355 0.17747 0.83903 0.0
C2900 C 0.81232 0.17447 0.85548 0.0
C2901 C 0.80928 0.17906 0.875 0.0
C2902 C 0.80801 0.17424 0.81845 0.0
C2903 C 0.82703 0.18407 0.81515 0.0
C2904 C 0.79368 0.16279 0.80194 0.0
C2905 C 0.77346 0.15126 0.80465 0.0
C2906 C 0.76672 0.1351 0.81536 0.0
C2907 C 0.7476 0.12426 0.81791 0.0
C2908 C 0.73514 0.12951 0.80987 0.0
C2909 C 0.7418 0.14568 0.79934 0.0
C2910 C 0.7609 0.15654 0.79672 0.0
C2911 C 0.84026 0.16539 0.73391 0.0
C2912 C 0.8334 0.17268 0.7197 0.0
C2913 C 0.83464 0.16446 0.75306 0.0
C2914 C 0.82216 0.17089 0.75832 0.0
C2915 C 0.81471 0.17736 0.74382 0.0
C2916 C 0.82034 0.17834 0.72472 0.0
C2917 C 0.81767 0.172 0.7792 0.0
C2918 C 0.79865 0.16188 0.78253 0.0
C2919 C 0.83204 0.18329 0.79575 0.0
C2920 C 0.85231 0.19531 0.79317 0.0
C2921 C 0.85858 0.21037 0.78104 0.0
C2922 C 0.87769 0.22155 0.77858 0.0
C2923 C 0.8907 0.21793 0.7883 0.0
C2924 C 0.88463 0.20316 0.80056 0.0
C2925 C 0.86552 0.19191 0.80305 0.0
H2926 H 0.9055 0.22661 0.78638 0.0
H2927 H 0.72035 0.12109 0.81184 0.0
H2928 H 0.29611 0.16591 0.47098 0.0
H2929 H 0.30929 0.17384 0.50629 0.0
H2930 H 0.25284 0.14262 0.52263 0.0
H2931 H 0.23963 0.13554 0.48749 0.0
H2932 H 0.27306 0.17362 0.54912 0.0
H2933 H 0.28162 0.12107 0.51868 0.0
H2934 H 0.29209 0.10412 0.49412 0.0
H2935 H 0.34987 0.15184 0.51221 0.0
H2936 H 0.33972 0.16921 0.53671 0.0
H2937 H 0.2988 0.15647 0.64484 0.0
H2938 H 0.28547 0.15503 0.61111 0.0
H2939 H 0.34183 0.18946 0.59526 0.0
H2940 H 0.35514 0.19032 0.62875 0.0
H2941 H 0.32152 0.15724 0.5686 0.0
H2942 H 0.30979 0.20817 0.60166 0.0
H2943 H 0.296 0.22312 0.62401 0.0
H2944 H 0.24017 0.17339 0.60095 0.0
H2945 H 0.25358 0.15804 0.57866 0.0
C2946 C 0.28652 0.16092 0.48214 0.0
C2947 C 0.26684 0.15002 0.47645 0.0
C2948 C 0.29407 0.16532 0.50231 0.0
C2949 C 0.28208 0.15842 0.51714 0.0
C2950 C 0.26241 0.14807 0.51151 0.0
C2951 C 0.25487 0.14402 0.49139 0.0
C2952 C 0.28996 0.16172 0.53845 0.0
C2953 C 0.28351 0.16982 0.55342 0.0
C2954 C 0.30373 0.15694 0.54409 0.0
C2955 C 0.30989 0.14654 0.52938 0.0
C2956 C 0.29655 0.12802 0.51731 0.0
C2957 C 0.30242 0.11833 0.50342 0.0
C2958 C 0.32163 0.12693 0.50157 0.0
C2959 C 0.335 0.14521 0.51364 0.0
C2960 C 0.32919 0.15498 0.52754 0.0
C2961 C 0.30833 0.16395 0.63422 0.0
C2962 C 0.328 0.17334 0.63929 0.0
C2963 C 0.30069 0.16326 0.61498 0.0
C2964 C 0.31262 0.17224 0.6006 0.0
C2965 C 0.33232 0.18238 0.60604 0.0
C2966 C 0.33993 0.18288 0.62517 0.0
C2967 C 0.30475 0.16937 0.57938 0.0
C2968 C 0.31116 0.16118 0.56436 0.0
C2969 C 0.29051 0.17349 0.5738 0.0
C2970 C 0.28272 0.18192 0.58855 0.0
C2971 C 0.2946 0.20027 0.60159 0.0
C2972 C 0.28683 0.20885 0.61419 0.0
C2973 C 0.26721 0.19923 0.6138 0.0
C2974 C 0.25534 0.18083 0.60118 0.0
C2975 C 0.26302 0.1722 0.58858 0.0
H2976 H 0.2611 0.20607 0.62309 0.0
H2977 H 0.32615 0.1194 0.49081 0.0
H2978 H 0.91294 0.14593 0.49037 0.0
H2979 H 0.90206 0.15403 0.52086 0.0
H2980 H 0.85598 0.15168 0.48516 0.0
H2981 H 0.86724 0.14438 0.45465 0.0
H2982 H 0.86736 0.17983 0.51534 0.0
H2983 H 0.85104 0.11054 0.50777 0.0
H2984 H 0.85729 0.08273 0.50356 0.0
H2985 H 0.89502 0.10859 0.55894 0.0
H2986 H 0.88917 0.1367 0.56334 0.0
H2987 H 0.8079 0.13749 0.60069 0.0
H2988 H 0.82089 0.1335 0.56997 0.0
H2989 H 0.87013 0.19308 0.58833 0.0
H2990 H 0.85728 0.19706 0.61918 0.0
H2991 H 0.8562 0.13601 0.56676 0.0
H2992 H 0.87954 0.21306 0.54223 0.0
H2993 H 0.87074 0.23889 0.54585 0.0
H2994 H 0.81397 0.19395 0.55244 0.0
H2995 H 0.82236 0.16777 0.54862 0.0
C2996 C 0.90066 0.14745 0.48903 0.0
C2997 C 0.89086 0.14435 0.47011 0.0
C2998 C 0.89438 0.15199 0.50648 0.0
C2999 C 0.87793 0.15305 0.50538 0.0
C3000 C 0.86867 0.1509 0.48646 0.0
C3001 C 0.87512 0.14669 0.469 0.0
C3002 C 0.86977 0.15537 0.52379 0.0
C3003 C 0.86494 0.17024 0.52656 0.0
C3004 C 0.86632 0.1427 0.53837 0.0
C3005 C 0.86978 0.12578 0.5358 0.0
C3006 C 0.86074 0.11034 0.51899 0.0
C3007 C 0.86421 0.09452 0.51657 0.0
C3008 C 0.87657 0.09391 0.53096 0.0
C3009 C 0.88546 0.10909 0.54781 0.0
C3010 C 0.88207 0.12496 0.55028 0.0
C3011 C 0.82146 0.14973 0.5981 0.0
C3012 C 0.83161 0.16757 0.61219 0.0
C3013 C 0.82888 0.1474 0.58066 0.0
C3014 C 0.84638 0.16304 0.5769 0.0
C3015 C 0.85653 0.18092 0.59094 0.0
C3016 C 0.84922 0.18314 0.60852 0.0
C3017 C 0.85406 0.16056 0.55831 0.0
C3018 C 0.85872 0.14562 0.55553 0.0
C3019 C 0.85697 0.17289 0.54357 0.0
C3020 C 0.85169 0.18848 0.54549 0.0
C3021 C 0.86518 0.20865 0.54446 0.0
C3022 C 0.86026 0.22337 0.54653 0.0
C3023 C 0.84184 0.21809 0.54948 0.0
C3024 C 0.82827 0.19805 0.55027 0.0
C3025 C 0.83312 0.18327 0.5482 0.0
H3026 H 0.83806 0.22951 0.55109 0.0
H3027 H 0.87923 0.08165 0.52906 0.0
H3028 H 0.91702 0.74192 0.48713 0.0
H3029 H 0.9115 0.72563 0.5169 0.0
H3030 H 0.87548 0.74827 0.53378 0.0
H3031 H 0.88122 0.76488 0.5045 0.0
H3032 H 0.89781 0.75264 0.56552 0.0
H3033 H 0.85758 0.69897 0.51031 0.0
H3034 H 0.8507 0.67734 0.47763 0.0
H3035 H 0.88727 0.65782 0.49941 0.0
H3036 H 0.89455 0.67954 0.53216 0.0
H3037 H 0.83638 0.68652 0.62585 0.0
H3038 H 0.84957 0.70397 0.59773 0.0
H3039 H 0.88912 0.68357 0.59754 0.0
H3040 H 0.87593 0.66604 0.62578 0.0
H3041 H 0.86996 0.67867 0.55887 0.0
H3042 H 0.90525 0.72929 0.61678 0.0
H3043 H 0.91002 0.75047 0.64913 0.0
H3044 H 0.88043 0.77535 0.62188 0.0
H3045 H 0.87532 0.7542 0.5894 0.0
C3046 C 0.90796 0.74345 0.49723 0.0
C3047 C 0.89951 0.75465 0.49341 0.0
C3048 C 0.90479 0.7341 0.5142 0.0
C3049 C 0.89295 0.73559 0.52747 0.0
C3050 C 0.88472 0.74696 0.52379 0.0
C3051 C 0.88797 0.7564 0.50697 0.0
C3052 C 0.88871 0.72512 0.5451 0.0
C3053 C 0.89162 0.73645 0.56405 0.0
C3054 C 0.88113 0.70407 0.54326 0.0
C3055 C 0.8768 0.69106 0.52358 0.0
C3056 C 0.86428 0.69019 0.50807 0.0
C3057 C 0.86028 0.67789 0.48955 0.0
C3058 C 0.86859 0.66627 0.48642 0.0
C3059 C 0.88088 0.66687 0.50183 0.0
C3060 C 0.88494 0.67916 0.52038 0.0
C3061 C 0.84776 0.68562 0.61967 0.0
C3062 C 0.85525 0.67506 0.6279 0.0
C3063 C 0.85536 0.6957 0.60376 0.0
C3064 C 0.87041 0.69519 0.59576 0.0
C3065 C 0.87756 0.68417 0.60361 0.0
C3066 C 0.87008 0.67426 0.61969 0.0
C3067 C 0.87849 0.70612 0.57907 0.0
C3068 C 0.87639 0.6949 0.56036 0.0
C3069 C 0.88657 0.72722 0.58108 0.0
C3070 C 0.88965 0.73993 0.60068 0.0
C3071 C 0.89957 0.73909 0.61772 0.0
C3072 C 0.90242 0.75116 0.63606 0.0
C3073 C 0.89554 0.76423 0.63754 0.0
C3074 C 0.88573 0.7652 0.62071 0.0
C3075 C 0.88286 0.75319 0.60234 0.0
H3076 H 0.89784 0.77361 0.65174 0.0
H3077 H 0.86548 0.65675 0.47207 0.0
loop_
_geom_bond_atom_site_label_1
_geom_bond_atom_site_label_2
_geom_bond_distance
_geom_bond_site_symmetry_2
_ccdc_geom_bond_type
O0 Cd1 2.300 . S
O0 C7 1.275 . S
Cd1 O0 2.300 . S
Cd1 O9 2.381 . S
Cd1 O10 2.378 . S
O2 Cd3 2.385 . S
O2 C7 1.255 . S
Cd3 O2 2.385 . S
Cd3 O4 2.317 . S
O4 Cd3 2.317 . S
O4 C5 1.232 . S
C5 O4 1.232 . S
C5 O6 1.218 . S
O6 C5 1.218 . S
C7 O0 1.275 . S
C7 O2 1.255 . S
C8 O9 1.258 . S
C8 O10 1.256 . S
O9 Cd1 2.381 . S
O9 C8 1.258 . S
O10 Cd1 2.378 . S
O10 C8 1.256 . S
O11 Cd12 2.300 . S
O11 C18 1.275 . S
Cd12 O11 2.300 . S
Cd12 O20 2.381 . S
Cd12 O21 2.378 . S
O13 Cd14 2.385 . S
O13 C18 1.255 . S
Cd14 O13 2.385 . S
Cd14 O15 2.317 . S
O15 Cd14 2.317 . S
O15 C16 1.232 . S
C16 O15 1.232 . S
C16 O17 1.218 . S
O17 C16 1.218 . S
C18 O11 1.275 . S
C18 O13 1.255 . S
C19 O20 1.258 . S
C19 O21 1.256 . S
O20 Cd12 2.381 . S
O20 C19 1.258 . S
O21 Cd12 2.378 . S
O21 C19 1.256 . S
O22 Cd23 2.300 . S
O22 C29 1.275 . S
Cd23 O22 2.300 . S
Cd23 O31 2.381 . S
Cd23 O32 2.378 . S
O24 Cd25 2.385 . S
O24 C29 1.255 . S
Cd25 O24 2.385 . S
Cd25 O26 2.317 . S
O26 Cd25 2.317 . S
O26 C27 1.232 . S
C27 O26 1.232 . S
C27 O28 1.218 . S
O28 C27 1.218 . S
C29 O22 1.275 . S
C29 O24 1.255 . S
C30 O31 1.258 . S
C30 O32 1.256 . S
O31 Cd23 2.381 . S
O31 C30 1.258 . S
O32 Cd23 2.378 . S
O32 C30 1.256 . S
O33 Cd34 2.300 . S
O33 C40 1.275 . S
Cd34 O33 2.300 . S
Cd34 O42 2.381 . S
Cd34 O43 2.378 . S
O35 Cd36 2.385 . S
O35 C40 1.255 . S
Cd36 O35 2.385 . S
Cd36 O37 2.317 . S
O37 Cd36 2.317 . S
O37 C38 1.232 . S
C38 O37 1.232 . S
C38 O39 1.218 . S
O39 C38 1.218 . S
C40 O33 1.275 . S
C40 O35 1.255 . S
C41 O42 1.258 . S
C41 O43 1.256 . S
O42 Cd34 2.381 . S
O42 C41 1.258 . S
O43 Cd34 2.378 . S
O43 C41 1.256 . S
O44 Cd45 2.300 . S
O44 C51 1.275 . S
Cd45 O44 2.300 . S
Cd45 O53 2.381 . S
Cd45 O54 2.378 . S
O46 Cd47 2.385 . S
O46 C51 1.255 . S
Cd47 O46 2.385 . S
Cd47 O48 2.317 . S
O48 Cd47 2.317 . S
O48 C49 1.232 . S
C49 O48 1.232 . S
C49 O50 1.218 . S
O50 C49 1.218 . S
C51 O44 1.275 . S
C51 O46 1.255 . S
C52 O53 1.258 . S
C52 O54 1.256 . S
O53 Cd45 2.381 . S
O53 C52 1.258 . S
O54 Cd45 2.378 . S
O54 C52 1.256 . S
O55 Cd56 2.300 . S
O55 C62 1.275 . S
Cd56 O55 2.300 . S
Cd56 O64 2.381 . S
Cd56 O65 2.378 . S
O57 Cd58 2.385 . S
O57 C62 1.255 . S
Cd58 O57 2.385 . S
Cd58 O59 2.317 . S
O59 Cd58 2.317 . S
O59 C60 1.232 . S
C60 O59 1.232 . S
C60 O61 1.218 . S
O61 C60 1.218 . S
C62 O55 1.275 . S
C62 O57 1.255 . S
C63 O64 1.258 . S
C63 O65 1.256 . S
O64 Cd56 2.381 . S
O64 C63 1.258 . S
O65 Cd56 2.378 . S
O65 C63 1.256 . S
O66 Cd67 2.300 . S
O66 C73 1.275 . S
Cd67 O66 2.300 . S
Cd67 O75 2.381 . S
Cd67 O76 2.378 . S
O68 Cd69 2.385 . S
O68 C73 1.255 . S
Cd69 O68 2.385 . S
Cd69 O70 2.317 . S
O70 Cd69 2.317 . S
O70 C71 1.232 . S
C71 O70 1.232 . S
C71 O72 1.218 . S
O72 C71 1.218 . S
C73 O66 1.275 . S
C73 O68 1.255 . S
C74 O75 1.258 . S
C74 O76 1.256 . S
O75 Cd67 2.381 . S
O75 C74 1.258 . S
O76 Cd67 2.378 . S
O76 C74 1.256 . S
O77 Cd78 2.300 . S
O77 C84 1.275 . S
Cd78 O77 2.300 . S
Cd78 O86 2.381 . S
Cd78 O87 2.378 . S
O79 Cd80 2.385 . S
O79 C84 1.255 . S
Cd80 O79 2.385 . S
Cd80 O81 2.317 . S
O81 Cd80 2.317 . S
O81 C82 1.232 . S
C82 O81 1.232 . S
C82 O83 1.218 . S
O83 C82 1.218 . S
C84 O77 1.275 . S
C84 O79 1.255 . S
C85 O86 1.258 . S
C85 O87 1.256 . S
O86 Cd78 2.381 . S
O86 C85 1.258 . S
O87 Cd78 2.378 . S
O87 C85 1.256 . S
O88 Cd89 2.300 . S
O88 C95 1.275 . S
Cd89 O88 2.300 . S
Cd89 O97 2.381 . S
Cd89 O98 2.378 . S
O90 Cd91 2.385 . S
O90 C95 1.255 . S
Cd91 O90 2.385 . S
Cd91 O92 2.317 . S
O92 Cd91 2.317 . S
O92 C93 1.232 . S
C93 O92 1.232 . S
C93 O94 1.218 . S
O94 C93 1.218 . S
C95 O88 1.275 . S
C95 O90 1.255 . S
C96 O97 1.258 . S
C96 O98 1.256 . S
O97 Cd89 2.381 . S
O97 C96 1.258 . S
O98 Cd89 2.378 . S
O98 C96 1.256 . S
O99 Cd100 2.300 . S
O99 C106 1.275 . S
Cd100 O99 2.300 . S
Cd100 O108 2.381 . S
Cd100 O109 2.378 . S
O101 Cd102 2.385 . S
O101 C106 1.255 . S
Cd102 O101 2.385 . S
Cd102 O103 2.317 . S
O103 Cd102 2.317 . S
O103 C104 1.232 . S
C104 O103 1.232 . S
C104 O105 1.218 . S
O105 C104 1.218 . S
C106 O99 1.275 . S
C106 O101 1.255 . S
C107 O108 1.258 . S
C107 O109 1.256 . S
O108 Cd100 2.381 . S
O108 C107 1.258 . S
O109 Cd100 2.378 . S
O109 C107 1.256 . S
O110 Cd111 2.300 . S
O110 C117 1.275 . S
Cd111 O110 2.300 . S
Cd111 O119 2.381 . S
Cd111 O120 2.378 . S
O112 Cd113 2.385 . S
O112 C117 1.255 . S
Cd113 O112 2.385 . S
Cd113 O114 2.317 . S
O114 Cd113 2.317 . S
O114 C115 1.232 . S
C115 O114 1.232 . S
C115 O116 1.218 . S
O116 C115 1.218 . S
C117 O110 1.275 . S
C117 O112 1.255 . S
C118 O119 1.258 . S
C118 O120 1.256 . S
O119 Cd111 2.381 . S
O119 C118 1.258 . S
O120 Cd111 2.378 . S
O120 C118 1.256 . S
O121 Cd122 2.300 . S
O121 C128 1.275 . S
Cd122 O121 2.300 . S
Cd122 O130 2.381 . S
Cd122 O131 2.378 . S
O123 Cd124 2.385 . S
O123 C128 1.255 . S
Cd124 O123 2.385 . S
Cd124 O125 2.317 . S
O125 Cd124 2.317 . S
O125 C126 1.232 . S
C126 O125 1.232 . S
C126 O127 1.218 . S
O127 C126 1.218 . S
C128 O121 1.275 . S
C128 O123 1.255 . S
C129 O130 1.258 . S
C129 O131 1.256 . S
O130 Cd122 2.381 . S
O130 C129 1.258 . S
O131 Cd122 2.378 . S
O131 C129 1.256 . S
O132 Cd133 2.300 . S
O132 C139 1.275 . S
Cd133 O132 2.300 . S
Cd133 O141 2.381 . S
Cd133 O142 2.378 . S
O134 Cd135 2.385 . S
O134 C139 1.255 . S
Cd135 O134 2.385 . S
Cd135 O136 2.317 . S
O136 Cd135 2.317 . S
O136 C137 1.232 . S
C137 O136 1.232 . S
C137 O138 1.218 . S
O138 C137 1.218 . S
C139 O132 1.275 . S
C139 O134 1.255 . S
C140 O141 1.258 . S
C140 O142 1.256 . S
O141 Cd133 2.381 . S
O141 C140 1.258 . S
O142 Cd133 2.378 . S
O142 C140 1.256 . S
O143 Cd144 2.300 . S
O143 C150 1.275 . S
Cd144 O143 2.300 . S
Cd144 O152 2.381 . S
Cd144 O153 2.378 . S
O145 Cd146 2.385 . S
O145 C150 1.255 . S
Cd146 O145 2.385 . S
Cd146 O147 2.317 . S
O147 Cd146 2.317 . S
O147 C148 1.232 . S
C148 O147 1.232 . S
C148 O149 1.218 . S
O149 C148 1.218 . S
C150 O143 1.275 . S
C150 O145 1.255 . S
C151 O152 1.258 . S
C151 O153 1.256 . S
O152 Cd144 2.381 . S
O152 C151 1.258 . S
O153 Cd144 2.378 . S
O153 C151 1.256 . S
O154 Cd155 2.300 . S
O154 C161 1.275 . S
Cd155 O154 2.300 . S
Cd155 O163 2.381 . S
Cd155 O164 2.378 . S
O156 Cd157 2.385 . S
O156 C161 1.255 . S
Cd157 O156 2.385 . S
Cd157 O158 2.317 . S
O158 Cd157 2.317 . S
O158 C159 1.232 . S
C159 O158 1.232 . S
C159 O160 1.218 . S
O160 C159 1.218 . S
C161 O154 1.275 . S
C161 O156 1.255 . S
C162 O163 1.258 . S
C162 O164 1.256 . S
O163 Cd155 2.381 . S
O163 C162 1.258 . S
O164 Cd155 2.378 . S
O164 C162 1.256 . S
O165 Cd166 2.300 . S
O165 C172 1.275 . S
Cd166 O165 2.300 . S
Cd166 O174 2.381 . S
Cd166 O175 2.378 . S
O167 Cd168 2.385 . S
O167 C172 1.255 . S
Cd168 O167 2.385 . S
Cd168 O169 2.317 . S
O169 Cd168 2.317 . S
O169 C170 1.232 . S
C170 O169 1.232 . S
C170 O171 1.218 . S
O171 C170 1.218 . S
C172 O165 1.275 . S
C172 O167 1.255 . S
C173 O174 1.258 . S
C173 O175 1.256 . S
O174 Cd166 2.381 . S
O174 C173 1.258 . S
O175 Cd166 2.378 . S
O175 C173 1.256 . S
O176 Cd177 2.300 . S
O176 C183 1.275 . S
Cd177 O176 2.300 . S
Cd177 O185 2.381 . S
Cd177 O186 2.378 . S
O178 Cd179 2.385 . S
O178 C183 1.255 . S
Cd179 O178 2.385 . S
Cd179 O180 2.317 . S
O180 Cd179 2.317 . S
O180 C181 1.232 . S
C181 O180 1.232 . S
C181 O182 1.218 . S
O182 C181 1.218 . S
C183 O176 1.275 . S
C183 O178 1.255 . S
C184 O185 1.258 . S
C184 O186 1.256 . S
O185 Cd177 2.381 . S
O185 C184 1.258 . S
O186 Cd177 2.378 . S
O186 C184 1.256 . S
O187 Cd188 2.300 . S
O187 C194 1.275 . S
Cd188 O187 2.300 . S
Cd188 O196 2.381 . S
Cd188 O197 2.378 . S
O189 Cd190 2.385 . S
O189 C194 1.255 . S
Cd190 O189 2.385 . S
Cd190 O191 2.317 . S
O191 Cd190 2.317 . S
O191 C192 1.232 . S
C192 O191 1.232 . S
C192 O193 1.218 . S
O193 C192 1.218 . S
C194 O187 1.275 . S
C194 O189 1.255 . S
C195 O196 1.258 . S
C195 O197 1.256 . S
O196 Cd188 2.381 . S
O196 C195 1.258 . S
O197 Cd188 2.378 . S
O197 C195 1.256 . S
Tb198 O201 2.453 . S
Tb198 O202 2.596 1_545 S
Tb198 O203 2.374 1_545 S
Tb198 O211 2.343 1_554 S
Tb198 O213 2.353 . S
Tb198 O215 2.427 . S
Tb198 O216 2.513 . S
C199 O203 1.251 . S
C199 O205 1.263 . S
Tb200 O202 2.343 1_556 S
Tb200 O205 2.353 1_556 S
Tb200 O208 2.427 1_556 S
Tb200 O209 2.513 1_556 S
Tb200 O210 2.453 . S
Tb200 O211 2.596 1_565 S
Tb200 O212 2.374 1_566 S
O201 Tb198 2.453 . S
O201 C217 1.245 1_545 S
O202 Tb198 2.596 1_565 S
O202 Tb200 2.343 1_554 S
O202 C217 1.259 . S
O203 Tb198 2.374 1_565 S
O203 C199 1.251 . S
C204 O208 1.275 . S
C204 O209 1.246 . S
O205 C199 1.263 . S
O205 Tb200 2.353 1_554 S
C206 O210 1.245 1_545 S
C206 O211 1.259 . S
C207 O212 1.250 . S
C207 O213 1.263 . S
O208 Tb200 2.427 1_554 S
O208 C204 1.275 . S
O209 Tb200 2.513 1_554 S
O209 C204 1.246 . S
O210 Tb200 2.453 . S
O210 C206 1.245 1_565 S
O211 Tb198 2.343 1_556 S
O211 Tb200 2.596 1_545 S
O211 C206 1.259 . S
O212 Tb200 2.374 1_544 S
O212 C207 1.250 . S
O213 Tb198 2.353 . S
O213 C207 1.263 . S
C214 O215 1.275 . S
C214 O216 1.246 . S
O215 Tb198 2.427 . S
O215 C214 1.275 . S
O216 Tb198 2.513 . S
O216 C214 1.246 . S
C217 O201 1.245 1_565 S
C217 O202 1.259 . S
Tb218 O221 2.453 1_655 S
Tb218 O222 2.596 1_655 S
Tb218 O223 2.374 1_655 S
Tb218 O231 2.343 1_554 S
Tb218 O233 2.353 . S
Tb218 O235 2.427 . S
Tb218 O236 2.513 . S
C219 O223 1.251 . S
C219 O225 1.263 . S
Tb220 O222 2.343 . S
Tb220 O225 2.353 . S
Tb220 O228 2.427 . S
Tb220 O229 2.513 . S
Tb220 O230 2.453 1_554 S
Tb220 O231 2.596 1_454 S
Tb220 O232 2.374 1_455 S
O221 Tb218 2.453 1_455 S
O221 C237 1.245 . S
O222 Tb218 2.596 1_455 S
O222 Tb220 2.343 . S
O222 C237 1.259 . S
O223 Tb218 2.374 1_455 S
O223 C219 1.251 . S
C224 O228 1.275 . S
C224 O229 1.246 . S
O225 C219 1.263 . S
O225 Tb220 2.353 . S
C226 O230 1.245 1_655 S
C226 O231 1.259 . S
C227 O232 1.250 . S
C227 O233 1.263 . S
O228 Tb220 2.427 . S
O228 C224 1.275 . S
O229 Tb220 2.513 . S
O229 C224 1.246 . S
O230 Tb220 2.453 1_556 S
O230 C226 1.245 1_455 S
O231 Tb218 2.343 1_556 S
O231 Tb220 2.596 1_656 S
O231 C226 1.259 . S
O232 Tb220 2.374 1_655 S
O232 C227 1.250 . S
O233 Tb218 2.353 . S
O233 C227 1.263 . S
C234 O235 1.275 . S
C234 O236 1.246 . S
O235 Tb218 2.427 . S
O235 C234 1.275 . S
O236 Tb218 2.513 . S
O236 C234 1.246 . S
C237 O221 1.245 . S
C237 O222 1.259 . S
Tb238 O241 2.453 . S
Tb238 O242 2.596 . S
Tb238 O243 2.374 . S
Tb238 O251 2.343 1_556 S
Tb238 O253 2.353 1_556 S
Tb238 O255 2.427 1_556 S
Tb238 O256 2.513 1_556 S
C239 O243 1.251 1_554 S
C239 O245 1.263 . S
Tb240 O242 2.343 1_554 S
Tb240 O245 2.353 . S
Tb240 O248 2.427 . S
Tb240 O249 2.513 1_554 S
Tb240 O250 2.453 . S
Tb240 O251 2.596 . S
Tb240 O252 2.374 . S
O241 Tb238 2.453 . S
O241 C257 1.245 . S
O242 Tb238 2.596 . S
O242 Tb240 2.343 1_556 S
O242 C257 1.259 . S
O243 Tb238 2.374 . S
O243 C239 1.251 1_556 S
C244 O248 1.275 1_556 S
C244 O249 1.246 . S
O245 C239 1.263 . S
O245 Tb240 2.353 . S
C246 O250 1.245 . S
C246 O251 1.259 . S
C247 O252 1.250 . S
C247 O253 1.268 . S
O248 Tb240 2.427 . S
O248 C244 1.275 1_554 S
O249 Tb240 2.513 1_556 S
O249 C244 1.246 . S
O250 Tb240 2.453 . S
O250 C246 1.245 . S
O251 Tb238 2.343 1_554 S
O251 Tb240 2.596 . S
O251 C246 1.259 . S
O252 Tb240 2.374 . S
O252 C247 1.250 . S
O253 Tb238 2.353 1_554 S
O253 C247 1.268 . S
C254 O255 1.275 . S
C254 O256 1.246 . S
O255 Tb238 2.427 1_554 S
O255 C254 1.275 . S
O256 Tb238 2.513 1_554 S
O256 C254 1.246 . S
C257 O241 1.245 . S
C257 O242 1.259 . S
Tb258 O261 2.453 . S
Tb258 O262 2.596 . S
Tb258 O263 2.374 . S
Tb258 O271 2.343 . S
Tb258 O273 2.353 . S
Tb258 O275 2.427 . S
Tb258 O276 2.513 . S
C259 O263 1.251 . S
C259 O265 1.263 . S
Tb260 O262 2.343 . S
Tb260 O265 2.353 . S
Tb260 O268 2.427 . S
Tb260 O269 2.513 . S
Tb260 O270 2.453 . S
Tb260 O271 2.596 . S
Tb260 O272 2.374 . S
O261 Tb258 2.453 . S
O261 C277 1.245 . S
O262 Tb258 2.596 . S
O262 Tb260 2.343 . S
O262 C277 1.259 . S
O263 Tb258 2.374 . S
O263 C259 1.251 . S
C264 O268 1.275 . S
C264 O269 1.246 . S
O265 C259 1.263 . S
O265 Tb260 2.353 . S
C266 O270 1.245 . S
C266 O271 1.259 . S
C267 O272 1.250 . S
C267 O273 1.263 . S
O268 Tb260 2.427 . S
O268 C264 1.275 . S
O269 Tb260 2.513 . S
O269 C264 1.246 . S
O270 Tb260 2.453 . S
O270 C266 1.245 . S
O271 Tb258 2.343 . S
O271 Tb260 2.596 . S
O271 C266 1.259 . S
O272 Tb260 2.374 . S
O272 C267 1.250 . S
O273 Tb258 2.353 . S
O273 C267 1.263 . S
C274 O275 1.275 . S
C274 O276 1.246 . S
O275 Tb258 2.427 . S
O275 C274 1.275 . S
O276 Tb258 2.513 . S
O276 C274 1.246 . S
C277 O261 1.245 . S
C277 O262 1.259 . S
Tb278 O281 2.453 . S
Tb278 O282 2.596 . S
Tb278 O283 2.374 . S
Tb278 O291 2.343 . S
Tb278 O293 2.353 . S
Tb278 O295 2.427 . S
Tb278 O296 2.513 . S
C279 O283 1.251 . S
C279 O285 1.263 . S
Tb280 O282 2.343 . S
Tb280 O285 2.353 . S
Tb280 O288 2.427 . S
Tb280 O289 2.513 . S
Tb280 O290 2.453 . S
Tb280 O291 2.596 . S
Tb280 O292 2.374 . S
O281 Tb278 2.453 . S
O281 C297 1.245 . S
O282 Tb278 2.596 . S
O282 Tb280 2.343 . S
O282 C297 1.259 . S
O283 Tb278 2.374 . S
O283 C279 1.251 . S
C284 O288 1.275 . S
C284 O289 1.246 . S
O285 C279 1.263 . S
O285 Tb280 2.353 . S
C286 O290 1.245 . S
C286 O291 1.259 . S
C287 O292 1.250 . S
C287 O293 1.263 . S
O288 Tb280 2.427 . S
O288 C284 1.275 . S
O289 Tb280 2.513 . S
O289 C284 1.246 . S
O290 Tb280 2.453 . S
O290 C286 1.245 . S
O291 Tb278 2.343 . S
O291 Tb280 2.596 . S
O291 C286 1.259 . S
O292 Tb280 2.374 . S
O292 C287 1.250 . S
O293 Tb278 2.353 . S
O293 C287 1.263 . S
C294 O295 1.275 . S
C294 O296 1.246 . S
O295 Tb278 2.427 . S
O295 C294 1.275 . S
O296 Tb278 2.513 . S
O296 C294 1.246 . S
C297 O281 1.245 . S
C297 O282 1.259 . S
Tb298 O301 2.453 . S
Tb298 O302 2.596 . S
Tb298 O303 2.374 . S
Tb298 O311 2.343 . S
Tb298 O313 2.353 . S
Tb298 O315 2.427 . S
Tb298 O316 2.513 . S
C299 O303 1.251 . S
C299 O305 1.263 . S
Tb300 O302 2.343 . S
Tb300 O305 2.353 . S
Tb300 O308 2.427 . S
Tb300 O309 2.513 . S
Tb300 O310 2.453 . S
Tb300 O311 2.596 . S
Tb300 O312 2.374 . S
O301 Tb298 2.453 . S
O301 C317 1.245 . S
O302 Tb298 2.596 . S
O302 Tb300 2.343 . S
O302 C317 1.259 . S
O303 Tb298 2.374 . S
O303 C299 1.251 . S
C304 O308 1.275 . S
C304 O309 1.246 . S
O305 C299 1.263 . S
O305 Tb300 2.353 . S
C306 O310 1.245 . S
C306 O311 1.259 . S
C307 O312 1.250 . S
C307 O313 1.263 . S
O308 Tb300 2.427 . S
O308 C304 1.275 . S
O309 Tb300 2.513 . S
O309 C304 1.246 . S
O310 Tb300 2.453 . S
O310 C306 1.245 . S
O311 Tb298 2.343 . S
O311 Tb300 2.596 . S
O311 C306 1.259 . S
O312 Tb300 2.374 . S
O312 C307 1.250 . S
O313 Tb298 2.353 . S
O313 C307 1.263 . S
C314 O315 1.275 . S
C314 O316 1.246 . S
O315 Tb298 2.427 . S
O315 C314 1.275 . S
O316 Tb298 2.513 . S
O316 C314 1.246 . S
C317 O301 1.245 . S
C317 O302 1.259 . S
Tb318 O321 2.453 . S
Tb318 O322 2.596 . S
Tb318 O323 2.374 . S
Tb318 O331 2.343 . S
Tb318 O333 2.353 . S
Tb318 O335 2.427 . S
Tb318 O336 2.513 . S
C319 O323 1.251 . S
C319 O325 1.263 . S
Tb320 O322 2.343 . S
Tb320 O325 2.353 . S
Tb320 O328 2.427 . S
Tb320 O329 2.513 . S
Tb320 O330 2.453 . S
Tb320 O331 2.596 . S
Tb320 O332 2.374 . S
O321 Tb318 2.453 . S
O321 C337 1.245 . S
O322 Tb318 2.596 . S
O322 Tb320 2.343 . S
O322 C337 1.259 . S
O323 Tb318 2.374 . S
O323 C319 1.251 . S
C324 O328 1.275 . S
C324 O329 1.246 . S
O325 C319 1.263 . S
O325 Tb320 2.353 . S
C326 O330 1.245 . S
C326 O331 1.259 . S
C327 O332 1.250 . S
C327 O333 1.263 . S
O328 Tb320 2.427 . S
O328 C324 1.275 . S
O329 Tb320 2.513 . S
O329 C324 1.246 . S
O330 Tb320 2.453 . S
O330 C326 1.245 . S
O331 Tb318 2.343 . S
O331 Tb320 2.596 . S
O331 C326 1.259 . S
O332 Tb320 2.374 . S
O332 C327 1.250 . S
O333 Tb318 2.353 . S
O333 C327 1.263 . S
C334 O335 1.275 . S
C334 O336 1.246 . S
O335 Tb318 2.427 . S
O335 C334 1.275 . S
O336 Tb318 2.513 . S
O336 C334 1.246 . S
C337 O321 1.245 . S
C337 O322 1.259 . S
Tb338 O341 2.453 . S
Tb338 O342 2.596 . S
Tb338 O343 2.374 . S
Tb338 O351 2.343 . S
Tb338 O353 2.353 . S
Tb338 O355 2.427 . S
Tb338 O356 2.513 . S
C339 O343 1.251 . S
C339 O345 1.263 . S
Tb340 O342 2.343 . S
Tb340 O345 2.353 . S
Tb340 O348 2.427 . S
Tb340 O349 2.513 . S
Tb340 O350 2.453 . S
Tb340 O351 2.596 . S
Tb340 O352 2.374 . S
O341 Tb338 2.453 . S
O341 C357 1.245 . S
O342 Tb338 2.596 . S
O342 Tb340 2.343 . S
O342 C357 1.259 . S
O343 Tb338 2.374 . S
O343 C339 1.251 . S
C344 O348 1.275 . S
C344 O349 1.246 . S
O345 C339 1.263 . S
O345 Tb340 2.353 . S
C346 O350 1.245 . S
C346 O351 1.259 . S
C347 O352 1.250 . S
C347 O353 1.263 . S
O348 Tb340 2.427 . S
O348 C344 1.275 . S
O349 Tb340 2.513 . S
O349 C344 1.246 . S
O350 Tb340 2.453 . S
O350 C346 1.245 . S
O351 Tb338 2.343 . S
O351 Tb340 2.596 . S
O351 C346 1.259 . S
O352 Tb340 2.374 . S
O352 C347 1.250 . S
O353 Tb338 2.353 . S
O353 C347 1.263 . S
C354 O355 1.275 . S
C354 O356 1.246 . S
O355 Tb338 2.427 . S
O355 C354 1.275 . S
O356 Tb338 2.513 . S
O356 C354 1.246 . S
C357 O341 1.245 . S
C357 O342 1.259 . S
Tb358 O361 2.453 . S
Tb358 O362 2.596 . S
Tb358 O363 2.374 . S
Tb358 O371 2.343 . S
Tb358 O373 2.353 . S
Tb358 O375 2.427 . S
Tb358 O376 2.513 . S
C359 O363 1.251 . S
C359 O365 1.263 . S
Tb360 O362 2.343 . S
Tb360 O365 2.353 . S
Tb360 O368 2.427 . S
Tb360 O369 2.513 . S
Tb360 O370 2.453 . S
Tb360 O371 2.596 . S
Tb360 O372 2.374 . S
O361 Tb358 2.453 . S
O361 C377 1.245 . S
O362 Tb358 2.596 . S
O362 Tb360 2.343 . S
O362 C377 1.259 . S
O363 Tb358 2.374 . S
O363 C359 1.251 . S
C364 O368 1.275 . S
C364 O369 1.246 . S
O365 C359 1.263 . S
O365 Tb360 2.353 . S
C366 O370 1.245 . S
C366 O371 1.259 . S
C367 O372 1.250 . S
C367 O373 1.263 . S
O368 Tb360 2.427 . S
O368 C364 1.275 . S
O369 Tb360 2.513 . S
O369 C364 1.246 . S
O370 Tb360 2.453 . S
O370 C366 1.245 . S
O371 Tb358 2.343 . S
O371 Tb360 2.596 . S
O371 C366 1.259 . S
O372 Tb360 2.374 . S
O372 C367 1.250 . S
O373 Tb358 2.353 . S
O373 C367 1.263 . S
C374 O375 1.275 . S
C374 O376 1.246 . S
O375 Tb358 2.427 . S
O375 C374 1.275 . S
O376 Tb358 2.513 . S
O376 C374 1.246 . S
C377 O361 1.245 . S
C377 O362 1.259 . S
H378 C396 0.951 . S
H379 C398 0.951 . S
H380 C400 0.950 . S
H381 C401 0.950 . S
H382 C403 0.950 . S
H383 C406 0.950 . S
H384 C407 0.950 . S
H385 C409 0.950 . S
H386 C410 0.951 . S
H387 C411 0.951 . S
H388 C413 0.951 . S
H389 C415 0.950 . S
H390 C416 0.950 . S
H391 C418 0.950 . S
H392 C421 0.950 . S
H393 C422 0.950 . S
H394 C424 0.950 . S
H395 C425 0.950 . S
C396 H378 0.951 . S
C396 C397 1.366 . S
C396 C398 1.388 . S
C397 C396 1.366 . S
C397 C401 1.385 . S
C398 H379 0.951 . S
C398 C396 1.388 . S
C398 C399 1.366 . S
C399 C398 1.366 . S
C399 C400 1.414 . S
C399 C402 1.499 . S
C400 H380 0.950 . S
C400 C399 1.414 . S
C400 C401 1.374 . S
C401 H381 0.950 . S
C401 C397 1.385 . S
C401 C400 1.374 . S
C402 C399 1.499 . S
C402 C403 1.373 . S
C402 C404 1.389 . S
C403 H382 0.950 . S
C403 C402 1.373 . S
C403 C419 1.377 . S
C404 C402 1.389 . S
C404 C405 1.524 . S
C404 C418 1.377 . S
C405 C404 1.524 . S
C405 C406 1.397 . S
C405 C410 1.363 1_554 S
C406 H383 0.950 . S
C406 C405 1.397 . S
C406 C407 1.334 1_554 S
C407 H384 0.950 . S
C407 C406 1.334 1_556 S
C407 C408 1.287 . S
C408 C407 1.287 . S
C408 C409 1.524 . S
C408 H427 0.913 . S
C409 H385 0.950 . S
C409 C408 1.524 . S
C409 C410 1.415 . S
C410 H386 0.951 . S
C410 C405 1.363 1_556 S
C410 C409 1.415 . S
C411 H387 0.951 . S
C411 C412 1.366 . S
C411 C413 1.388 . S
C412 C411 1.366 . S
C412 C416 1.385 . S
C413 H388 0.951 . S
C413 C411 1.388 . S
C413 C414 1.366 . S
C414 C413 1.366 . S
C414 C415 1.414 . S
C414 C417 1.499 . S
C415 H389 0.950 . S
C415 C414 1.414 . S
C415 C416 1.374 . S
C416 H390 0.950 . S
C416 C412 1.385 . S
C416 C415 1.374 . S
C417 C414 1.499 . S
C417 C418 1.373 . S
C417 C419 1.389 . S
C418 H391 0.950 . S
C418 C404 1.377 . S
C418 C417 1.373 . S
C419 C403 1.377 . S
C419 C417 1.389 . S
C419 C420 1.524 . S
C420 C419 1.524 . S
C420 C421 1.397 . S
C420 C425 1.363 . S
C421 H392 0.950 . S
C421 C420 1.397 . S
C421 C422 1.334 . S
C422 H393 0.950 . S
C422 C421 1.334 . S
C422 C423 1.287 . S
C423 C422 1.287 . S
C423 C424 1.524 . S
C423 H426 0.999 . S
C424 H394 0.950 . S
C424 C423 1.524 . S
C424 C425 1.415 . S
C425 H395 0.950 . S
C425 C420 1.363 . S
C425 C424 1.415 . S
H426 C423 0.999 . S
H427 C408 0.913 . S
H428 C446 0.951 . S
H429 C448 0.951 . S
H430 C450 0.950 . S
H431 C451 0.950 . S
H432 C453 0.950 . S
H433 C456 0.950 . S
H434 C457 0.950 . S
H435 C459 0.950 . S
H436 C460 0.950 . S
H437 C461 0.951 . S
H438 C463 0.951 . S
H439 C465 0.950 . S
H440 C466 0.950 . S
H441 C468 0.950 . S
H442 C471 0.950 . S
H443 C472 0.950 . S
H444 C474 0.950 . S
H445 C475 0.950 . S
C446 H428 0.951 . S
C446 C447 1.366 . S
C446 C448 1.388 . S
C447 C446 1.366 . S
C447 C451 1.385 . S
C448 H429 0.951 . S
C448 C446 1.388 . S
C448 C449 1.366 . S
C449 C448 1.366 . S
C449 C450 1.414 . S
C449 C452 1.499 . S
C450 H430 0.950 . S
C450 C449 1.414 . S
C450 C451 1.374 . S
C451 H431 0.950 . S
C451 C447 1.385 . S
C451 C450 1.374 . S
C452 C449 1.499 . S
C452 C453 1.373 . S
C452 C454 1.389 . S
C453 H432 0.950 . S
C453 C452 1.373 . S
C453 C469 1.377 . S
C454 C452 1.389 . S
C454 C455 1.524 . S
C454 C468 1.377 . S
C455 C454 1.524 . S
C455 C456 1.397 . S
C455 C460 1.363 . S
C456 H433 0.950 . S
C456 C455 1.397 . S
C456 C457 1.334 . S
C457 H434 0.950 . S
C457 C456 1.334 . S
C457 C458 1.278 1_554 S
C458 C457 1.278 1_556 S
C458 C459 1.507 1_556 S
C458 H477 0.940 . S
C459 H435 0.950 . S
C459 C458 1.507 1_554 S
C459 C460 1.415 . S
C460 H436 0.950 . S
C460 C455 1.363 . S
C460 C459 1.415 . S
C461 H437 0.951 . S
C461 C462 1.366 . S
C461 C463 1.388 . S
C462 C461 1.366 . S
C462 C466 1.385 . S
C463 H438 0.951 . S
C463 C461 1.388 . S
C463 C464 1.366 . S
C464 C463 1.366 . S
C464 C465 1.414 . S
C464 C467 1.499 . S
C465 H439 0.950 . S
C465 C464 1.414 . S
C465 C466 1.374 . S
C466 H440 0.950 . S
C466 C462 1.385 . S
C466 C465 1.374 . S
C467 C464 1.499 . S
C467 C468 1.373 . S
C467 C469 1.389 . S
C468 H441 0.950 . S
C468 C454 1.377 . S
C468 C467 1.373 . S
C469 C453 1.377 . S
C469 C467 1.389 . S
C469 C470 1.524 . S
C470 C469 1.524 . S
C470 C471 1.397 . S
C470 C475 1.363 . S
C471 H442 0.950 . S
C471 C470 1.397 . S
C471 C472 1.334 . S
C472 H443 0.950 . S
C472 C471 1.334 . S
C472 C473 1.287 . S
C473 C472 1.287 . S
C473 C474 1.524 . S
C473 H476 0.999 . S
C474 H444 0.950 . S
C474 C473 1.524 . S
C474 C475 1.415 . S
C475 H445 0.950 . S
C475 C470 1.363 . S
C475 C474 1.415 . S
H476 C473 0.999 . S
H477 C458 0.940 . S
H478 C496 0.951 . S
H479 C498 0.951 . S
H480 C500 0.950 . S
H481 C501 0.950 . S
H482 C503 0.950 . S
H483 C506 0.950 . S
H484 C507 0.950 . S
H485 C509 0.950 . S
H486 C510 0.950 . S
H487 C511 0.951 . S
H488 C513 0.951 . S
H489 C515 0.950 . S
H490 C516 0.950 1_556 S
H491 C518 0.950 . S
H492 C521 0.932 1_556 S
H493 C522 0.950 1_556 S
H494 C524 0.950 . S
H495 C525 0.950 . S
C496 H478 0.951 . S
C496 C497 1.366 . S
C496 C498 1.388 . S
C497 C496 1.366 . S
C497 C501 1.385 . S
C498 H479 0.951 . S
C498 C496 1.388 . S
C498 C499 1.366 . S
C499 C498 1.366 . S
C499 C500 1.414 . S
C499 C502 1.499 . S
C500 H480 0.950 . S
C500 C499 1.414 . S
C500 C501 1.374 . S
C501 H481 0.950 . S
C501 C497 1.385 . S
C501 C500 1.374 . S
C502 C499 1.499 . S
C502 C503 1.373 . S
C502 C504 1.389 . S
C503 H482 0.950 . S
C503 C502 1.373 . S
C503 C519 1.377 . S
C504 C502 1.389 . S
C504 C505 1.524 . S
C504 C518 1.377 . S
C505 C504 1.524 . S
C505 C506 1.397 . S
C505 C510 1.363 . S
C506 H483 0.950 . S
C506 C505 1.397 . S
C506 C507 1.334 . S
C507 H484 0.950 . S
C507 C506 1.334 . S
C507 C508 1.287 . S
C508 C507 1.287 . S
C508 C509 1.524 . S
C508 H527 0.913 . S
C509 H485 0.950 . S
C509 C508 1.524 . S
C509 C510 1.415 . S
C510 H486 0.950 . S
C510 C505 1.363 . S
C510 C509 1.415 . S
C511 H487 0.951 . S
C511 C512 1.366 . S
C511 C513 1.388 . S
C512 C511 1.366 . S
C512 C516 1.385 . S
C513 H488 0.951 . S
C513 C511 1.388 . S
C513 C514 1.366 . S
C514 C513 1.366 . S
C514 C515 1.414 . S
C514 C517 1.499 . S
C515 H489 0.950 . S
C515 C514 1.414 . S
C515 C516 1.374 . S
C516 H490 0.950 1_554 S
C516 C512 1.385 . S
C516 C515 1.374 . S
C517 C514 1.499 . S
C517 C518 1.373 . S
C517 C519 1.389 . S
C518 H491 0.950 . S
C518 C504 1.377 . S
C518 C517 1.373 . S
C519 C503 1.377 . S
C519 C517 1.389 . S
C519 C520 1.524 . S
C520 C519 1.524 . S
C520 C521 1.397 . S
C520 C525 1.363 . S
C521 H492 0.932 1_554 S
C521 C520 1.397 . S
C521 C522 1.334 . S
C522 H493 0.950 1_554 S
C522 C521 1.334 . S
C522 C523 1.287 . S
C523 C522 1.287 . S
C523 C524 1.524 . S
C523 H526 0.999 . S
C524 H494 0.950 . S
C524 C523 1.524 . S
C524 C525 1.415 . S
C525 H495 0.950 . S
C525 C520 1.363 . S
C525 C524 1.415 . S
H526 C523 0.999 . S
H527 C508 0.913 . S
H528 C546 0.951 . S
H529 C548 0.951 . S
H530 C550 0.950 . S
H531 C551 0.950 . S
H532 C553 0.950 . S
H533 C556 0.950 . S
H534 C557 0.950 . S
H535 C559 0.950 . S
H536 C560 0.950 . S
H537 C561 0.951 . S
H538 C563 0.951 . S
H539 C565 0.950 . S
H540 C566 0.950 . S
H541 C568 0.950 . S
H542 C571 0.950 . S
H543 C572 0.950 . S
H544 C574 0.950 . S
H545 C575 0.950 . S
C546 H528 0.951 . S
C546 C547 1.366 . S
C546 C548 1.388 . S
C547 C546 1.366 . S
C547 C551 1.385 . S
C548 H529 0.951 . S
C548 C546 1.388 . S
C548 C549 1.366 . S
C549 C548 1.366 . S
C549 C550 1.414 . S
C549 C552 1.499 . S
C550 H530 0.950 . S
C550 C549 1.414 . S
C550 C551 1.374 . S
C551 H531 0.950 . S
C551 C547 1.385 . S
C551 C550 1.374 . S
C552 C549 1.499 . S
C552 C553 1.373 . S
C552 C554 1.389 . S
C553 H532 0.950 . S
C553 C552 1.373 . S
C553 C569 1.377 . S
C554 C552 1.389 . S
C554 C555 1.524 . S
C554 C568 1.377 . S
C555 C554 1.524 . S
C555 C556 1.397 . S
C555 C560 1.363 . S
C556 H533 0.950 . S
C556 C555 1.397 . S
C556 C557 1.334 . S
C557 H534 0.950 . S
C557 C556 1.334 . S
C557 C558 1.287 . S
C558 C557 1.287 . S
C558 C559 1.524 . S
C558 H577 0.913 . S
C559 H535 0.950 . S
C559 C558 1.524 . S
C559 C560 1.415 . S
C560 H536 0.950 . S
C560 C555 1.363 . S
C560 C559 1.415 . S
C561 H537 0.951 . S
C561 C562 1.366 . S
C561 C563 1.388 1_554 S
C562 C561 1.366 . S
C562 C566 1.384 . S
C563 H538 0.951 . S
C563 C561 1.388 1_556 S
C563 C564 1.366 . S
C564 C563 1.366 . S
C564 C565 1.414 . S
C564 C567 1.499 . S
C565 H539 0.950 . S
C565 C564 1.414 . S
C565 C566 1.374 1_556 S
C566 H540 0.950 . S
C566 C562 1.384 . S
C566 C565 1.374 1_554 S
C567 C564 1.499 . S
C567 C568 1.373 . S
C567 C569 1.389 . S
C568 H541 0.950 . S
C568 C554 1.377 . S
C568 C567 1.373 . S
C569 C553 1.377 . S
C569 C567 1.389 . S
C569 C570 1.524 1_556 S
C570 C569 1.524 1_554 S
C570 C571 1.397 . S
C570 C575 1.363 . S
C571 H542 0.950 . S
C571 C570 1.397 . S
C571 C572 1.334 . S
C572 H543 0.950 . S
C572 C571 1.334 . S
C572 C573 1.287 . S
C573 C572 1.287 . S
C573 C574 1.524 . S
C573 H576 0.999 . S
C574 H544 0.950 . S
C574 C573 1.524 . S
C574 C575 1.415 . S
C575 H545 0.950 . S
C575 C570 1.363 . S
C575 C574 1.415 . S
H576 C573 0.999 . S
H577 C558 0.913 . S
H578 C596 0.951 . S
H579 C598 0.951 . S
H580 C600 0.950 . S
H581 C601 0.950 . S
H582 C603 0.950 . S
H583 C606 0.950 . S
H584 C607 0.950 . S
H585 C609 0.950 . S
H586 C610 0.950 . S
H587 C611 0.951 . S
H588 C613 0.951 . S
H589 C615 0.950 . S
H590 C616 0.950 . S
H591 C618 0.950 . S
H592 C621 0.950 . S
H593 C622 0.950 . S
H594 C624 0.950 . S
H595 C625 0.950 . S
C596 H578 0.951 . S
C596 C597 1.366 . S
C596 C598 1.388 . S
C597 C596 1.366 . S
C597 C601 1.385 . S
C598 H579 0.951 . S
C598 C596 1.388 . S
C598 C599 1.366 . S
C599 C598 1.366 . S
C599 C600 1.414 . S
C599 C602 1.499 . S
C600 H580 0.950 . S
C600 C599 1.414 . S
C600 C601 1.374 . S
C601 H581 0.950 . S
C601 C597 1.385 . S
C601 C600 1.374 . S
C602 C599 1.499 . S
C602 C603 1.373 . S
C602 C604 1.389 . S
C603 H582 0.950 . S
C603 C602 1.373 . S
C603 C619 1.377 . S
C604 C602 1.389 . S
C604 C605 1.524 . S
C604 C618 1.377 . S
C605 C604 1.524 . S
C605 C606 1.397 . S
C605 C610 1.363 . S
C606 H583 0.950 . S
C606 C605 1.397 . S
C606 C607 1.334 . S
C607 H584 0.950 . S
C607 C606 1.334 . S
C607 C608 1.287 . S
C608 C607 1.287 . S
C608 C609 1.524 . S
C608 H627 0.913 . S
C609 H585 0.950 . S
C609 C608 1.524 . S
C609 C610 1.415 . S
C610 H586 0.950 . S
C610 C605 1.363 . S
C610 C609 1.415 . S
C611 H587 0.951 . S
C611 C612 1.366 . S
C611 C613 1.388 . S
C612 C611 1.366 . S
C612 C616 1.385 . S
C613 H588 0.951 . S
C613 C611 1.388 . S
C613 C614 1.366 . S
C614 C613 1.366 . S
C614 C615 1.414 . S
C614 C617 1.499 . S
C615 H589 0.950 . S
C615 C614 1.414 . S
C615 C616 1.374 . S
C616 H590 0.950 . S
C616 C612 1.385 . S
C616 C615 1.374 . S
C617 C614 1.499 . S
C617 C618 1.373 . S
C617 C619 1.389 . S
C618 H591 0.950 . S
C618 C604 1.377 . S
C618 C617 1.373 . S
C619 C603 1.377 . S
C619 C617 1.389 . S
C619 C620 1.524 . S
C620 C619 1.524 . S
C620 C621 1.397 1_556 S
C620 C625 1.363 . S
C621 H592 0.950 . S
C621 C620 1.397 1_554 S
C621 C622 1.334 . S
C622 H593 0.950 . S
C622 C621 1.334 . S
C622 C623 1.287 . S
C623 C622 1.287 . S
C623 C624 1.524 1_554 S
C623 H626 0.999 . S
C624 H594 0.950 . S
C624 C623 1.524 1_556 S
C624 C625 1.415 . S
C625 H595 0.950 . S
C625 C620 1.363 . S
C625 C624 1.415 . S
H626 C623 0.999 . S
H627 C608 0.913 . S
H628 C646 0.914 1_554 S
H629 C648 0.951 . S
H630 C650 0.950 . S
H631 C651 0.950 . S
H632 C653 0.950 . S
H633 C656 0.950 . S
H634 C657 0.950 1_556 S
H635 C659 0.950 . S
H636 C660 0.950 . S
H637 C661 0.951 . S
H638 C663 0.951 . S
H639 C665 0.950 . S
H640 C666 0.950 . S
H641 C668 0.950 . S
H642 C671 0.950 1_554 S
H643 C672 0.950 . S
H644 C674 0.950 . S
H645 C675 0.950 . S
C646 H628 0.914 1_556 S
C646 C647 1.415 . S
C646 C648 1.377 1_556 S
C647 C646 1.415 . S
C647 C651 1.385 . S
C648 H629 0.951 . S
C648 C646 1.377 1_554 S
C648 C649 1.366 1_554 S
C649 C648 1.366 1_556 S
C649 C650 1.414 . S
C649 C652 1.499 . S
C650 H630 0.950 . S
C650 C649 1.414 . S
C650 C651 1.374 . S
C651 H631 0.950 . S
C651 C647 1.385 . S
C651 C650 1.374 . S
C652 C649 1.499 . S
C652 C653 1.373 . S
C652 C654 1.389 1_556 S
C653 H632 0.950 . S
C653 C652 1.373 . S
C653 C669 1.377 . S
C654 C652 1.389 1_554 S
C654 C655 1.524 . S
C654 C668 1.377 . S
C655 C654 1.524 . S
C655 C656 1.397 1_554 S
C655 C660 1.363 . S
C656 H633 0.950 . S
C656 C655 1.397 1_556 S
C656 C657 1.334 1_556 S
C657 H634 0.950 1_554 S
C657 C656 1.334 1_554 S
C657 C658 1.287 . S
C658 C657 1.287 . S
C658 C659 1.524 . S
C658 H677 0.913 . S
C659 H635 0.950 . S
C659 C658 1.524 . S
C659 C660 1.415 . S
C660 H636 0.950 . S
C660 C655 1.363 . S
C660 C659 1.415 . S
C661 H637 0.951 . S
C661 C662 1.366 1_556 S
C661 C663 1.388 . S
C662 C661 1.366 1_554 S
C662 C666 1.385 . S
C663 H638 0.951 . S
C663 C661 1.388 . S
C663 C664 1.399 . S
C664 C663 1.399 . S
C664 C665 1.371 1_556 S
C664 C667 1.509 . S
C665 H639 0.950 . S
C665 C664 1.371 1_554 S
C665 C666 1.374 . S
C666 H640 0.950 . S
C666 C662 1.385 . S
C666 C665 1.374 . S
C667 C664 1.509 . S
C667 C668 1.373 1_556 S
C667 C669 1.389 . S
C668 H641 0.950 . S
C668 C654 1.377 . S
C668 C667 1.373 1_554 S
C669 C653 1.377 . S
C669 C667 1.389 . S
C669 C670 1.524 . S
C670 C669 1.524 . S
C670 C671 1.397 . S
C670 C675 1.363 . S
C671 H642 0.950 1_556 S
C671 C670 1.397 . S
C671 C672 1.334 . S
C672 H643 0.950 . S
C672 C671 1.334 . S
C672 C673 1.287 . S
C673 C672 1.287 . S
C673 C674 1.524 . S
C673 H676 0.999 . S
C674 H644 0.950 . S
C674 C673 1.524 . S
C674 C675 1.415 . S
C675 H645 0.950 . S
C675 C670 1.363 . S
C675 C674 1.415 . S
H676 C673 0.999 . S
H677 C658 0.913 . S
H678 C696 0.951 . S
H679 C698 0.951 . S
H680 C700 0.950 . S
H681 C701 0.950 . S
H682 C703 0.950 . S
H683 C706 0.950 1_554 S
H684 C707 0.934 1_554 S
H685 C709 0.950 . S
H686 C710 0.950 . S
H687 C711 0.951 . S
H688 C713 0.951 1_554 S
H689 C715 0.950 . S
H690 C716 0.950 . S
H691 C718 0.950 . S
H692 C721 0.950 . S
H693 C722 0.950 . S
H694 C724 0.950 . S
H695 C725 0.950 . S
C696 H678 0.951 . S
C696 C697 1.366 . S
C696 C698 1.388 . S
C697 C696 1.366 . S
C697 C701 1.385 . S
C698 H679 0.951 . S
C698 C696 1.388 . S
C698 C699 1.366 . S
C699 C698 1.366 . S
C699 C700 1.414 . S
C699 C702 1.499 . S
C700 H680 0.950 . S
C700 C699 1.414 . S
C700 C701 1.374 . S
C701 H681 0.950 . S
C701 C697 1.385 . S
C701 C700 1.374 . S
C702 C699 1.499 . S
C702 C703 1.373 . S
C702 C704 1.389 . S
C703 H682 0.950 . S
C703 C702 1.373 . S
C703 C719 1.377 . S
C704 C702 1.389 . S
C704 C705 1.524 . S
C704 C718 1.377 . S
C705 C704 1.524 . S
C705 C706 1.397 . S
C705 C710 1.363 . S
C706 H683 0.950 1_556 S
C706 C705 1.397 . S
C706 C707 1.337 . S
C707 H684 0.934 1_556 S
C707 C706 1.337 . S
C707 C708 1.302 . S
C708 C707 1.302 . S
C708 C709 1.524 . S
C708 H727 0.913 . S
C709 H685 0.950 . S
C709 C708 1.524 . S
C709 C710 1.415 . S
C710 H686 0.950 . S
C710 C705 1.363 . S
C710 C709 1.415 . S
C711 H687 0.951 . S
C711 C712 1.366 1_554 S
C711 C713 1.388 1_554 S
C712 C711 1.366 1_556 S
C712 C716 1.385 . S
C713 H688 0.951 1_556 S
C713 C711 1.388 1_556 S
C713 C714 1.366 . S
C714 C713 1.366 . S
C714 C715 1.414 . S
C714 C717 1.499 . S
C715 H689 0.950 . S
C715 C714 1.414 . S
C715 C716 1.374 . S
C716 H690 0.950 . S
C716 C712 1.385 . S
C716 C715 1.374 . S
C717 C714 1.499 . S
C717 C718 1.373 . S
C717 C719 1.389 . S
C718 H691 0.950 . S
C718 C704 1.377 . S
C718 C717 1.373 . S
C719 C703 1.377 . S
C719 C717 1.389 . S
C719 C720 1.524 . S
C720 C719 1.524 . S
C720 C721 1.397 . S
C720 C725 1.363 . S
C721 H692 0.950 . S
C721 C720 1.397 . S
C721 C722 1.334 . S
C722 H693 0.950 . S
C722 C721 1.334 . S
C722 C723 1.287 . S
C723 C722 1.287 . S
C723 C724 1.524 . S
C723 H726 0.999 . S
C724 H694 0.950 . S
C724 C723 1.524 . S
C724 C725 1.415 . S
C725 H695 0.950 . S
C725 C720 1.363 . S
C725 C724 1.415 . S
H726 C723 0.999 . S
H727 C708 0.913 . S
H728 C746 0.951 . S
H729 C748 0.951 . S
H730 C750 0.950 . S
H731 C751 0.950 . S
H732 C753 0.950 . S
H733 C756 0.950 . S
H734 C757 0.950 . S
H735 C759 0.950 . S
H736 C760 0.950 . S
H737 C761 0.951 . S
H738 C763 0.951 . S
H739 C765 0.950 . S
H740 C766 0.950 . S
H741 C768 0.950 . S
H742 C771 0.950 . S
H743 C772 0.950 . S
H744 C774 0.950 . S
H745 C775 0.950 . S
C746 H728 0.951 . S
C746 C747 1.366 . S
C746 C748 1.388 . S
C747 C746 1.366 . S
C747 C751 1.385 . S
C748 H729 0.951 . S
C748 C746 1.388 . S
C748 C749 1.366 . S
C749 C748 1.366 . S
C749 C750 1.414 . S
C749 C752 1.499 . S
C750 H730 0.950 . S
C750 C749 1.414 . S
C750 C751 1.374 . S
C751 H731 0.950 . S
C751 C747 1.385 . S
C751 C750 1.374 . S
C752 C749 1.499 . S
C752 C753 1.373 . S
C752 C754 1.389 . S
C753 H732 0.950 . S
C753 C752 1.373 . S
C753 C769 1.377 . S
C754 C752 1.389 . S
C754 C755 1.524 . S
C754 C768 1.377 . S
C755 C754 1.524 . S
C755 C756 1.397 . S
C755 C760 1.363 . S
C756 H733 0.950 . S
C756 C755 1.397 . S
C756 C757 1.334 . S
C757 H734 0.950 . S
C757 C756 1.334 . S
C757 C758 1.287 . S
C758 C757 1.287 . S
C758 C759 1.524 . S
C758 H777 0.913 . S
C759 H735 0.950 . S
C759 C758 1.524 . S
C759 C760 1.415 . S
C760 H736 0.950 . S
C760 C755 1.363 . S
C760 C759 1.415 . S
C761 H737 0.951 . S
C761 C762 1.366 1_554 S
C761 C763 1.388 . S
C762 C761 1.366 1_556 S
C762 C766 1.385 . S
C763 H738 0.951 . S
C763 C761 1.388 . S
C763 C764 1.366 1_554 S
C764 C763 1.366 1_556 S
C764 C765 1.414 . S
C764 C767 1.499 . S
C765 H739 0.950 . S
C765 C764 1.414 . S
C765 C766 1.374 . S
C766 H740 0.950 . S
C766 C762 1.385 . S
C766 C765 1.374 . S
C767 C764 1.499 . S
C767 C768 1.373 . S
C767 C769 1.389 . S
C768 H741 0.950 . S
C768 C754 1.377 . S
C768 C767 1.373 . S
C769 C753 1.377 . S
C769 C767 1.389 . S
C769 C770 1.524 1_556 S
C770 C769 1.524 1_554 S
C770 C771 1.397 1_554 S
C770 C775 1.363 . S
C771 H742 0.950 . S
C771 C770 1.397 1_556 S
C771 C772 1.334 1_556 S
C772 H743 0.950 . S
C772 C771 1.334 1_554 S
C772 C773 1.287 . S
C773 C772 1.287 . S
C773 C774 1.524 . S
C773 H776 0.999 . S
C774 H744 0.950 . S
C774 C773 1.524 . S
C774 C775 1.415 . S
C775 H745 0.950 . S
C775 C770 1.363 . S
C775 C774 1.415 . S
H776 C773 0.999 . S
H777 C758 0.913 . S
H778 C796 0.951 . S
H779 C798 0.951 . S
H780 C800 0.950 . S
H781 C801 0.950 . S
H782 C803 0.950 . S
H783 C806 0.950 . S
H784 C807 0.950 . S
H785 C809 0.950 . S
H786 C810 0.950 1_556 S
H787 C811 0.945 1_554 S
H788 C813 0.951 . S
H789 C815 0.950 . S
H790 C816 0.950 . S
H791 C818 0.950 1_554 S
H792 C821 0.950 . S
H793 C822 0.950 . S
H794 C824 0.950 . S
H795 C825 0.950 . S
C796 H778 0.951 . S
C796 C797 1.366 . S
C796 C798 1.388 . S
C797 C796 1.366 . S
C797 C801 1.385 . S
C798 H779 0.951 . S
C798 C796 1.388 . S
C798 C799 1.366 . S
C799 C798 1.366 . S
C799 C800 1.414 . S
C799 C802 1.499 . S
C800 H780 0.950 . S
C800 C799 1.414 . S
C800 C801 1.374 . S
C801 H781 0.950 . S
C801 C797 1.385 . S
C801 C800 1.374 . S
C802 C799 1.499 . S
C802 C803 1.373 . S
C802 C804 1.389 . S
C803 H782 0.950 . S
C803 C802 1.373 . S
C803 C819 1.377 . S
C804 C802 1.389 . S
C804 C805 1.524 1_556 S
C804 C818 1.377 . S
C805 C804 1.524 1_554 S
C805 C806 1.397 . S
C805 C810 1.363 . S
C806 H783 0.950 . S
C806 C805 1.397 . S
C806 C807 1.334 . S
C807 H784 0.950 . S
C807 C806 1.334 . S
C807 C808 1.287 . S
C808 C807 1.287 . S
C808 C809 1.524 . S
C808 H827 0.913 . S
C809 H785 0.950 . S
C809 C808 1.524 . S
C809 C810 1.415 . S
C810 H786 0.950 1_554 S
C810 C805 1.363 . S
C810 C809 1.415 . S
C811 H787 0.945 1_556 S
C811 C812 1.372 . S
C811 C813 1.388 . S
C812 C811 1.372 . S
C812 C816 1.385 . S
C813 H788 0.951 . S
C813 C811 1.388 . S
C813 C814 1.366 . S
C814 C813 1.366 . S
C814 C815 1.414 . S
C814 C817 1.499 . S
C815 H789 0.950 . S
C815 C814 1.414 . S
C815 C816 1.374 . S
C816 H790 0.950 . S
C816 C812 1.385 . S
C816 C815 1.374 . S
C817 C814 1.499 . S
C817 C818 1.373 . S
C817 C819 1.389 . S
C818 H791 0.950 1_556 S
C818 C804 1.377 . S
C818 C817 1.373 . S
C819 C803 1.377 . S
C819 C817 1.389 . S
C819 C820 1.524 . S
C820 C819 1.524 . S
C820 C821 1.397 . S
C820 C825 1.363 . S
C821 H792 0.950 . S
C821 C820 1.397 . S
C821 C822 1.334 . S
C822 H793 0.950 . S
C822 C821 1.334 . S
C822 C823 1.287 . S
C823 C822 1.287 . S
C823 C824 1.524 . S
C823 H826 0.999 . S
C824 H794 0.950 . S
C824 C823 1.524 . S
C824 C825 1.415 . S
C825 H795 0.950 . S
C825 C820 1.363 . S
C825 C824 1.415 . S
H826 C823 0.999 . S
H827 C808 0.913 . S
H828 C846 0.951 . S
H829 C848 0.951 . S
H830 C850 0.950 . S
H831 C851 0.950 . S
H832 C853 0.950 . S
H833 C856 0.950 . S
H834 C857 0.950 . S
H835 C859 0.950 . S
H836 C860 0.950 . S
H837 C861 0.951 . S
H838 C863 0.951 . S
H839 C865 0.950 . S
H840 C866 0.950 . S
H841 C868 0.950 . S
H842 C871 0.950 . S
H843 C872 0.950 . S
H844 C874 0.950 1_556 S
H845 C875 0.950 . S
C846 H828 0.951 . S
C846 C847 1.366 . S
C846 C848 1.388 . S
C847 C846 1.366 . S
C847 C851 1.385 . S
C848 H829 0.951 . S
C848 C846 1.388 . S
C848 C849 1.366 . S
C849 C848 1.366 . S
C849 C850 1.414 . S
C849 C852 1.499 . S
C850 H830 0.950 . S
C850 C849 1.414 . S
C850 C851 1.374 . S
C851 H831 0.950 . S
C851 C847 1.385 . S
C851 C850 1.374 . S
C852 C849 1.499 . S
C852 C853 1.373 . S
C852 C854 1.389 . S
C853 H832 0.950 . S
C853 C852 1.373 . S
C853 C869 1.377 . S
C854 C852 1.389 . S
C854 C855 1.524 . S
C854 C868 1.377 . S
C855 C854 1.524 . S
C855 C856 1.397 . S
C855 C860 1.363 . S
C856 H833 0.950 . S
C856 C855 1.397 . S
C856 C857 1.334 . S
C857 H834 0.950 . S
C857 C856 1.334 . S
C857 C858 1.287 . S
C858 C857 1.287 . S
C858 C859 1.524 . S
C858 H877 0.913 . S
C859 H835 0.950 . S
C859 C858 1.524 . S
C859 C860 1.415 . S
C860 H836 0.950 . S
C860 C855 1.363 . S
C860 C859 1.415 . S
C861 H837 0.951 . S
C861 C862 1.366 . S
C861 C863 1.388 . S
C862 C861 1.366 . S
C862 C866 1.385 . S
C863 H838 0.951 . S
C863 C861 1.388 . S
C863 C864 1.366 . S
C864 C863 1.366 . S
C864 C865 1.414 . S
C864 C867 1.499 . S
C865 H839 0.950 . S
C865 C864 1.414 . S
C865 C866 1.374 . S
C866 H840 0.950 . S
C866 C862 1.385 . S
C866 C865 1.374 . S
C867 C864 1.499 . S
C867 C868 1.373 . S
C867 C869 1.389 . S
C868 H841 0.950 . S
C868 C854 1.377 . S
C868 C867 1.373 . S
C869 C853 1.377 . S
C869 C867 1.389 . S
C869 C870 1.524 . S
C870 C869 1.524 . S
C870 C871 1.397 . S
C870 C875 1.363 . S
C871 H842 0.950 . S
C871 C870 1.397 . S
C871 C872 1.334 . S
C872 H843 0.950 . S
C872 C871 1.334 . S
C872 C873 1.287 . S
C873 C872 1.287 . S
C873 C874 1.524 . S
C873 H876 0.999 . S
C874 H844 0.950 1_554 S
C874 C873 1.524 . S
C874 C875 1.415 . S
C875 H845 0.950 . S
C875 C870 1.363 . S
C875 C874 1.415 . S
H876 C873 0.999 . S
H877 C858 0.913 . S
H878 C896 0.951 . S
H879 C898 0.951 . S
H880 C900 0.950 . S
H881 C901 0.950 . S
H882 C903 0.950 . S
H883 C906 0.950 . S
H884 C907 0.950 . S
H885 C909 0.950 . S
H886 C910 0.950 . S
H887 C911 0.951 . S
H888 C913 0.951 . S
H889 C915 0.950 . S
H890 C916 0.950 . S
H891 C918 0.950 . S
H892 C921 0.944 1_554 S
H893 C922 0.950 . S
H894 C924 0.950 . S
H895 C925 0.950 . S
C896 H878 0.951 . S
C896 C897 1.366 . S
C896 C898 1.388 . S
C897 C896 1.366 . S
C897 C901 1.385 . S
C898 H879 0.951 . S
C898 C896 1.388 . S
C898 C899 1.366 . S
C899 C898 1.366 . S
C899 C900 1.414 . S
C899 C902 1.499 . S
C900 H880 0.950 . S
C900 C899 1.414 . S
C900 C901 1.374 . S
C901 H881 0.950 . S
C901 C897 1.385 . S
C901 C900 1.374 . S
C902 C899 1.499 . S
C902 C903 1.373 . S
C902 C904 1.389 . S
C903 H882 0.950 . S
C903 C902 1.373 . S
C903 C919 1.377 . S
C904 C902 1.389 . S
C904 C905 1.524 . S
C904 C918 1.377 . S
C905 C904 1.524 . S
C905 C906 1.397 . S
C905 C910 1.363 . S
C906 H883 0.950 . S
C906 C905 1.397 . S
C906 C907 1.334 . S
C907 H884 0.950 . S
C907 C906 1.334 . S
C907 C908 1.287 . S
C908 C907 1.287 . S
C908 C909 1.524 . S
C908 H927 0.913 . S
C909 H885 0.950 . S
C909 C908 1.524 . S
C909 C910 1.415 . S
C910 H886 0.950 . S
C910 C905 1.363 . S
C910 C909 1.415 . S
C911 H887 0.951 . S
C911 C912 1.366 . S
C911 C913 1.388 . S
C912 C911 1.366 . S
C912 C916 1.385 . S
C913 H888 0.951 . S
C913 C911 1.388 . S
C913 C914 1.366 . S
C914 C913 1.366 . S
C914 C915 1.414 . S
C914 C917 1.499 . S
C915 H889 0.950 . S
C915 C914 1.414 . S
C915 C916 1.374 . S
C916 H890 0.950 . S
C916 C912 1.385 . S
C916 C915 1.374 . S
C917 C914 1.499 . S
C917 C918 1.373 . S
C917 C919 1.389 . S
C918 H891 0.950 . S
C918 C904 1.377 . S
C918 C917 1.373 . S
C919 C903 1.377 . S
C919 C917 1.389 . S
C919 C920 1.524 . S
C920 C919 1.524 . S
C920 C921 1.397 1_554 S
C920 C925 1.363 . S
C921 H892 0.944 1_556 S
C921 C920 1.397 1_556 S
C921 C922 1.334 . S
C922 H893 0.950 . S
C922 C921 1.334 . S
C922 C923 1.287 . S
C923 C922 1.287 . S
C923 C924 1.524 . S
C923 H926 0.999 . S
C924 H894 0.950 . S
C924 C923 1.524 . S
C924 C925 1.415 1_556 S
C925 H895 0.950 . S
C925 C920 1.363 . S
C925 C924 1.415 1_554 S
H926 C923 0.999 . S
H927 C908 0.913 . S
H928 C946 0.951 . S
H929 C948 0.951 . S
H930 C950 0.950 . S
H931 C951 0.950 . S
H932 C953 0.950 . S
H933 C956 0.950 . S
H934 C957 0.950 . S
H935 C959 0.950 . S
H936 C960 0.950 . S
H937 C961 0.951 . S
H938 C963 0.951 . S
H939 C965 0.950 . S
H940 C966 0.950 . S
H941 C968 0.950 . S
H942 C971 0.950 . S
H943 C972 0.950 . S
H944 C974 0.950 . S
H945 C975 0.950 . S
C946 H928 0.951 . S
C946 C947 1.366 . S
C946 C948 1.388 . S
C947 C946 1.366 . S
C947 C951 1.385 . S
C948 H929 0.951 . S
C948 C946 1.388 . S
C948 C949 1.366 . S
C949 C948 1.366 . S
C949 C950 1.414 . S
C949 C952 1.499 . S
C950 H930 0.950 . S
C950 C949 1.414 . S
C950 C951 1.374 . S
C951 H931 0.950 . S
C951 C947 1.385 . S
C951 C950 1.374 . S
C952 C949 1.499 . S
C952 C953 1.373 . S
C952 C954 1.389 . S
C953 H932 0.950 . S
C953 C952 1.373 . S
C953 C969 1.377 . S
C954 C952 1.389 . S
C954 C955 1.524 . S
C954 C968 1.377 . S
C955 C954 1.524 . S
C955 C956 1.397 . S
C955 C960 1.363 . S
C956 H933 0.950 . S
C956 C955 1.397 . S
C956 C957 1.334 . S
C957 H934 0.950 . S
C957 C956 1.334 . S
C957 C958 1.287 . S
C958 C957 1.287 . S
C958 C959 1.524 . S
C958 H977 0.913 . S
C959 H935 0.950 . S
C959 C958 1.524 . S
C959 C960 1.415 . S
C960 H936 0.950 . S
C960 C955 1.363 . S
C960 C959 1.415 . S
C961 H937 0.951 . S
C961 C962 1.366 . S
C961 C963 1.388 . S
C962 C961 1.366 . S
C962 C966 1.385 . S
C963 H938 0.951 . S
C963 C961 1.388 . S
C963 C964 1.366 . S
C964 C963 1.366 . S
C964 C965 1.414 . S
C964 C967 1.499 . S
C965 H939 0.950 . S
C965 C964 1.414 . S
C965 C966 1.374 . S
C966 H940 0.950 . S
C966 C962 1.385 . S
C966 C965 1.374 . S
C967 C964 1.499 . S
C967 C968 1.373 . S
C967 C969 1.389 . S
C968 H941 0.950 . S
C968 C954 1.377 . S
C968 C967 1.373 . S
C969 C953 1.377 . S
C969 C967 1.389 . S
C969 C970 1.524 . S
C970 C969 1.524 . S
C970 C971 1.397 1_554 S
C970 C975 1.363 . S
C971 H942 0.950 . S
C971 C970 1.397 1_556 S
C971 C972 1.334 . S
C972 H943 0.950 . S
C972 C971 1.334 . S
C972 C973 1.287 . S
C973 C972 1.287 . S
C973 C974 1.524 . S
C973 H976 0.999 . S
C974 H944 0.950 . S
C974 C973 1.524 . S
C974 C975 1.415 1_556 S
C975 H945 0.950 . S
C975 C970 1.363 . S
C975 C974 1.415 1_554 S
H976 C973 0.999 . S
H977 C958 0.913 . S
H978 C996 0.951 . S
H979 C998 0.951 . S
H980 C1000 0.950 . S
H981 C1001 0.950 . S
H982 C1003 0.950 1_655 S
H983 C1006 0.950 . S
H984 C1007 0.950 . S
H985 C1009 0.950 . S
H986 C1010 0.950 . S
H987 C1011 0.951 . S
H988 C1013 0.951 . S
H989 C1015 0.950 . S
H990 C1016 0.950 . S
H991 C1018 0.950 . S
H992 C1021 0.950 . S
H993 C1022 0.950 . S
H994 C1024 0.950 . S
H995 C1025 0.950 . S
C996 H978 0.951 . S
C996 C997 1.366 . S
C996 C998 1.388 . S
C997 C996 1.366 . S
C997 C1001 1.385 . S
C998 H979 0.951 . S
C998 C996 1.388 . S
C998 C999 1.366 . S
C999 C998 1.366 . S
C999 C1000 1.414 . S
C999 C1002 1.499 1_655 S
C1000 H980 0.950 . S
C1000 C999 1.414 . S
C1000 C1001 1.374 . S
C1001 H981 0.950 . S
C1001 C997 1.385 . S
C1001 C1000 1.374 . S
C1002 C999 1.499 1_455 S
C1002 C1003 1.373 . S
C1002 C1004 1.389 . S
C1003 H982 0.950 1_455 S
C1003 C1002 1.373 . S
C1003 C1019 1.377 . S
C1004 C1002 1.389 . S
C1004 C1005 1.524 . S
C1004 C1018 1.377 . S
C1005 C1004 1.524 . S
C1005 C1006 1.397 . S
C1005 C1010 1.363 . S
C1006 H983 0.950 . S
C1006 C1005 1.397 . S
C1006 C1007 1.334 . S
C1007 H984 0.950 . S
C1007 C1006 1.334 . S
C1007 C1008 1.287 . S
C1008 C1007 1.287 . S
C1008 C1009 1.524 . S
C1008 H1027 0.913 . S
C1009 H985 0.950 . S
C1009 C1008 1.524 . S
C1009 C1010 1.415 . S
C1010 H986 0.950 . S
C1010 C1005 1.363 . S
C1010 C1009 1.415 . S
C1011 H987 0.951 . S
C1011 C1012 1.366 . S
C1011 C1013 1.388 . S
C1012 C1011 1.366 . S
C1012 C1016 1.385 . S
C1013 H988 0.951 . S
C1013 C1011 1.388 . S
C1013 C1014 1.366 . S
C1014 C1013 1.366 . S
C1014 C1015 1.414 . S
C1014 C1017 1.499 . S
C1015 H989 0.950 . S
C1015 C1014 1.414 . S
C1015 C1016 1.374 . S
C1016 H990 0.950 . S
C1016 C1012 1.385 . S
C1016 C1015 1.374 . S
C1017 C1014 1.499 . S
C1017 C1018 1.373 . S
C1017 C1019 1.389 . S
C1018 H991 0.950 . S
C1018 C1004 1.377 . S
C1018 C1017 1.373 . S
C1019 C1003 1.377 . S
C1019 C1017 1.389 . S
C1019 C1020 1.524 . S
C1020 C1019 1.524 . S
C1020 C1021 1.397 . S
C1020 C1025 1.363 . S
C1021 H992 0.950 . S
C1021 C1020 1.397 . S
C1021 C1022 1.334 . S
C1022 H993 0.950 . S
C1022 C1021 1.334 . S
C1022 C1023 1.287 . S
C1023 C1022 1.287 . S
C1023 C1024 1.524 . S
C1023 H1026 0.999 . S
C1024 H994 0.950 . S
C1024 C1023 1.524 . S
C1024 C1025 1.415 . S
C1025 H995 0.950 . S
C1025 C1020 1.363 . S
C1025 C1024 1.415 . S
H1026 C1023 0.999 . S
H1027 C1008 0.913 . S
H1028 C1046 0.951 . S
H1029 C1048 0.951 . S
H1030 C1050 0.950 . S
H1031 C1051 0.950 . S
H1032 C1053 0.950 . S
H1033 C1056 0.950 . S
H1034 C1057 0.950 . S
H1035 C1059 0.950 . S
H1036 C1060 0.950 . S
H1037 C1061 0.951 . S
H1038 C1063 0.951 . S
H1039 C1065 0.950 . S
H1040 C1066 0.950 . S
H1041 C1068 0.950 . S
H1042 C1071 0.950 . S
H1043 C1072 0.950 . S
H1044 C1074 0.950 . S
H1045 C1075 0.950 . S
C1046 H1028 0.951 . S
C1046 C1047 1.366 . S
C1046 C1048 1.388 . S
C1047 C1046 1.366 . S
C1047 C1051 1.385 . S
C1048 H1029 0.951 . S
C1048 C1046 1.388 . S
C1048 C1049 1.366 . S
C1049 C1048 1.366 . S
C1049 C1050 1.414 . S
C1049 C1052 1.499 . S
C1050 H1030 0.950 . S
C1050 C1049 1.414 . S
C1050 C1051 1.374 . S
C1051 H1031 0.950 . S
C1051 C1047 1.385 . S
C1051 C1050 1.374 . S
C1052 C1049 1.499 . S
C1052 C1053 1.373 . S
C1052 C1054 1.389 . S
C1053 H1032 0.950 . S
C1053 C1052 1.373 . S
C1053 C1069 1.377 . S
C1054 C1052 1.389 . S
C1054 C1055 1.524 . S
C1054 C1068 1.377 . S
C1055 C1054 1.524 . S
C1055 C1056 1.397 . S
C1055 C1060 1.363 . S
C1056 H1033 0.950 . S
C1056 C1055 1.397 . S
C1056 C1057 1.334 . S
C1057 H1034 0.950 . S
C1057 C1056 1.334 . S
C1057 C1058 1.287 . S
C1058 C1057 1.287 . S
C1058 C1059 1.524 . S
C1058 H1077 0.913 . S
C1059 H1035 0.950 . S
C1059 C1058 1.524 . S
C1059 C1060 1.415 . S
C1060 H1036 0.950 . S
C1060 C1055 1.363 . S
C1060 C1059 1.415 . S
C1061 H1037 0.951 . S
C1061 C1062 1.366 . S
C1061 C1063 1.388 . S
C1062 C1061 1.366 . S
C1062 C1066 1.385 . S
C1063 H1038 0.951 . S
C1063 C1061 1.388 . S
C1063 C1064 1.366 . S
C1064 C1063 1.366 . S
C1064 C1065 1.414 . S
C1064 C1067 1.499 . S
C1065 H1039 0.950 . S
C1065 C1064 1.414 . S
C1065 C1066 1.374 . S
C1066 H1040 0.950 . S
C1066 C1062 1.385 . S
C1066 C1065 1.374 . S
C1067 C1064 1.499 . S
C1067 C1068 1.373 . S
C1067 C1069 1.389 . S
C1068 H1041 0.950 . S
C1068 C1054 1.377 . S
C1068 C1067 1.373 . S
C1069 C1053 1.377 . S
C1069 C1067 1.389 . S
C1069 C1070 1.524 . S
C1070 C1069 1.524 . S
C1070 C1071 1.397 . S
C1070 C1075 1.363 . S
C1071 H1042 0.950 . S
C1071 C1070 1.397 . S
C1071 C1072 1.334 . S
C1072 H1043 0.950 . S
C1072 C1071 1.334 . S
C1072 C1073 1.287 . S
C1073 C1072 1.287 . S
C1073 C1074 1.524 . S
C1073 H1076 0.999 . S
C1074 H1044 0.950 . S
C1074 C1073 1.524 . S
C1074 C1075 1.415 . S
C1075 H1045 0.950 . S
C1075 C1070 1.363 . S
C1075 C1074 1.415 . S
H1076 C1073 0.999 . S
H1077 C1058 0.913 . S
H1078 C1096 0.951 . S
H1079 C1098 0.951 . S
H1080 C1100 0.950 . S
H1081 C1101 0.950 . S
H1082 C1103 0.950 1_545 S
H1083 C1106 0.950 . S
H1084 C1107 0.950 . S
H1085 C1109 0.950 . S
H1086 C1110 0.950 . S
H1087 C1111 0.951 . S
H1088 C1113 0.951 . S
H1089 C1115 0.950 . S
H1090 C1116 0.950 . S
H1091 C1118 0.950 . S
H1092 C1121 0.950 . S
H1093 C1122 0.950 . S
H1094 C1124 0.950 . S
H1095 C1125 0.950 . S
C1096 H1078 0.951 . S
C1096 C1097 1.366 . S
C1096 C1098 1.388 . S
C1097 C1096 1.366 . S
C1097 C1101 1.385 . S
C1098 H1079 0.951 . S
C1098 C1096 1.388 . S
C1098 C1099 1.366 . S
C1099 C1098 1.366 . S
C1099 C1100 1.414 . S
C1099 C1102 1.499 . S
C1100 H1080 0.950 . S
C1100 C1099 1.414 . S
C1100 C1101 1.374 . S
C1101 H1081 0.950 . S
C1101 C1097 1.385 . S
C1101 C1100 1.374 . S
C1102 C1099 1.499 . S
C1102 C1103 1.373 1_545 S
C1102 C1104 1.389 1_545 S
C1103 H1082 0.950 1_565 S
C1103 C1102 1.373 1_565 S
C1103 C1119 1.377 . S
C1104 C1102 1.389 1_565 S
C1104 C1105 1.524 . S
C1104 C1118 1.377 . S
C1105 C1104 1.524 . S
C1105 C1106 1.397 1_565 S
C1105 C1110 1.363 . S
C1106 H1083 0.950 . S
C1106 C1105 1.397 1_545 S
C1106 C1107 1.334 . S
C1107 H1084 0.950 . S
C1107 C1106 1.334 . S
C1107 C1108 1.287 . S
C1108 C1107 1.287 . S
C1108 C1109 1.524 1_545 S
C1108 H1127 0.913 . S
C1109 H1085 0.950 . S
C1109 C1108 1.524 1_565 S
C1109 C1110 1.415 . S
C1110 H1086 0.950 . S
C1110 C1105 1.363 . S
C1110 C1109 1.415 . S
C1111 H1087 0.951 . S
C1111 C1112 1.366 . S
C1111 C1113 1.388 . S
C1112 C1111 1.366 . S
C1112 C1116 1.385 . S
C1113 H1088 0.951 . S
C1113 C1111 1.388 . S
C1113 C1114 1.366 . S
C1114 C1113 1.366 . S
C1114 C1115 1.414 . S
C1114 C1117 1.499 . S
C1115 H1089 0.950 . S
C1115 C1114 1.414 . S
C1115 C1116 1.374 . S
C1116 H1090 0.950 . S
C1116 C1112 1.385 . S
C1116 C1115 1.374 . S
C1117 C1114 1.499 . S
C1117 C1118 1.373 . S
C1117 C1119 1.389 . S
C1118 H1091 0.950 . S
C1118 C1104 1.377 . S
C1118 C1117 1.373 . S
C1119 C1103 1.377 . S
C1119 C1117 1.389 . S
C1119 C1120 1.524 . S
C1120 C1119 1.524 . S
C1120 C1121 1.397 . S
C1120 C1125 1.363 . S
C1121 H1092 0.950 . S
C1121 C1120 1.397 . S
C1121 C1122 1.334 . S
C1122 H1093 0.950 . S
C1122 C1121 1.334 . S
C1122 C1123 1.287 . S
C1123 C1122 1.287 . S
C1123 C1124 1.524 . S
C1123 H1126 0.999 . S
C1124 H1094 0.950 . S
C1124 C1123 1.524 . S
C1124 C1125 1.415 . S
C1125 H1095 0.950 . S
C1125 C1120 1.363 . S
C1125 C1124 1.415 . S
H1126 C1123 0.999 . S
H1127 C1108 0.913 . S
H1128 C1146 0.951 . S
H1129 C1148 0.951 . S
H1130 C1150 0.950 . S
H1131 C1151 0.950 . S
H1132 C1153 0.950 . S
H1133 C1156 0.950 . S
H1134 C1157 0.950 . S
H1135 C1159 0.950 . S
H1136 C1160 0.950 . S
H1137 C1161 0.951 . S
H1138 C1163 0.951 . S
H1139 C1165 0.950 . S
H1140 C1166 0.950 . S
H1141 C1168 0.950 . S
H1142 C1171 0.950 . S
H1143 C1172 0.950 . S
H1144 C1174 0.950 . S
H1145 C1175 0.950 . S
C1146 H1128 0.951 . S
C1146 C1147 1.366 . S
C1146 C1148 1.388 . S
C1147 C1146 1.366 . S
C1147 C1151 1.385 . S
C1148 H1129 0.951 . S
C1148 C1146 1.388 . S
C1148 C1149 1.366 . S
C1149 C1148 1.366 . S
C1149 C1150 1.414 . S
C1149 C1152 1.499 . S
C1150 H1130 0.950 . S
C1150 C1149 1.414 . S
C1150 C1151 1.374 . S
C1151 H1131 0.950 . S
C1151 C1147 1.385 . S
C1151 C1150 1.374 . S
C1152 C1149 1.499 . S
C1152 C1153 1.373 . S
C1152 C1154 1.389 . S
C1153 H1132 0.950 . S
C1153 C1152 1.373 . S
C1153 C1169 1.377 . S
C1154 C1152 1.389 . S
C1154 C1155 1.524 . S
C1154 C1168 1.377 . S
C1155 C1154 1.524 . S
C1155 C1156 1.397 . S
C1155 C1160 1.363 . S
C1156 H1133 0.950 . S
C1156 C1155 1.397 . S
C1156 C1157 1.334 . S
C1157 H1134 0.950 . S
C1157 C1156 1.334 . S
C1157 C1158 1.287 . S
C1158 C1157 1.287 . S
C1158 C1159 1.524 . S
C1158 H1177 0.913 . S
C1159 H1135 0.950 . S
C1159 C1158 1.524 . S
C1159 C1160 1.415 . S
C1160 H1136 0.950 . S
C1160 C1155 1.363 . S
C1160 C1159 1.415 . S
C1161 H1137 0.951 . S
C1161 C1162 1.366 . S
C1161 C1163 1.388 . S
C1162 C1161 1.366 . S
C1162 C1166 1.385 . S
C1163 H1138 0.951 . S
C1163 C1161 1.388 . S
C1163 C1164 1.366 . S
C1164 C1163 1.366 . S
C1164 C1165 1.414 . S
C1164 C1167 1.499 . S
C1165 H1139 0.950 . S
C1165 C1164 1.414 . S
C1165 C1166 1.374 . S
C1166 H1140 0.950 . S
C1166 C1162 1.385 . S
C1166 C1165 1.374 . S
C1167 C1164 1.499 . S
C1167 C1168 1.373 . S
C1167 C1169 1.389 . S
C1168 H1141 0.950 . S
C1168 C1154 1.377 . S
C1168 C1167 1.373 . S
C1169 C1153 1.377 . S
C1169 C1167 1.389 . S
C1169 C1170 1.524 . S
C1170 C1169 1.524 . S
C1170 C1171 1.397 . S
C1170 C1175 1.363 . S
C1171 H1142 0.950 . S
C1171 C1170 1.397 . S
C1171 C1172 1.334 . S
C1172 H1143 0.950 . S
C1172 C1171 1.334 . S
C1172 C1173 1.287 . S
C1173 C1172 1.287 . S
C1173 C1174 1.524 . S
C1173 H1176 0.999 . S
C1174 H1144 0.950 . S
C1174 C1173 1.524 . S
C1174 C1175 1.415 . S
C1175 H1145 0.950 . S
C1175 C1170 1.363 . S
C1175 C1174 1.415 . S
H1176 C1173 0.999 . S
H1177 C1158 0.913 . S
H1178 C1196 0.951 . S
H1179 C1198 0.951 . S
H1180 C1200 0.950 . S
H1181 C1201 0.950 . S
H1182 C1203 0.950 . S
H1183 C1206 0.950 . S
H1184 C1207 0.950 . S
H1185 C1209 0.950 . S
H1186 C1210 0.950 . S
H1187 C1211 0.951 . S
H1188 C1213 0.951 . S
H1189 C1215 0.950 . S
H1190 C1216 0.950 . S
H1191 C1218 0.950 . S
H1192 C1221 0.950 . S
H1193 C1222 0.950 . S
H1194 C1224 0.950 . S
H1195 C1225 0.950 . S
C1196 H1178 0.951 . S
C1196 C1197 1.366 . S
C1196 C1198 1.388 . S
C1197 C1196 1.366 . S
C1197 C1201 1.385 . S
C1198 H1179 0.951 . S
C1198 C1196 1.388 . S
C1198 C1199 1.366 . S
C1199 C1198 1.366 . S
C1199 C1200 1.414 . S
C1199 C1202 1.499 . S
C1200 H1180 0.950 . S
C1200 C1199 1.414 . S
C1200 C1201 1.374 . S
C1201 H1181 0.950 . S
C1201 C1197 1.385 . S
C1201 C1200 1.374 . S
C1202 C1199 1.499 . S
C1202 C1203 1.373 . S
C1202 C1204 1.389 . S
C1203 H1182 0.950 . S
C1203 C1202 1.373 . S
C1203 C1219 1.377 . S
C1204 C1202 1.389 . S
C1204 C1205 1.524 . S
C1204 C1218 1.377 . S
C1205 C1204 1.524 . S
C1205 C1206 1.397 . S
C1205 C1210 1.363 . S
C1206 H1183 0.950 . S
C1206 C1205 1.397 . S
C1206 C1207 1.334 . S
C1207 H1184 0.950 . S
C1207 C1206 1.334 . S
C1207 C1208 1.287 . S
C1208 C1207 1.287 . S
C1208 C1209 1.524 . S
C1208 H1227 0.913 . S
C1209 H1185 0.950 . S
C1209 C1208 1.524 . S
C1209 C1210 1.415 . S
C1210 H1186 0.950 . S
C1210 C1205 1.363 . S
C1210 C1209 1.415 . S
C1211 H1187 0.951 . S
C1211 C1212 1.366 . S
C1211 C1213 1.388 . S
C1212 C1211 1.366 . S
C1212 C1216 1.385 . S
C1213 H1188 0.951 . S
C1213 C1211 1.388 . S
C1213 C1214 1.366 . S
C1214 C1213 1.366 . S
C1214 C1215 1.414 . S
C1214 C1217 1.499 . S
C1215 H1189 0.950 . S
C1215 C1214 1.414 . S
C1215 C1216 1.374 . S
C1216 H1190 0.950 . S
C1216 C1212 1.385 . S
C1216 C1215 1.374 . S
C1217 C1214 1.499 . S
C1217 C1218 1.373 . S
C1217 C1219 1.389 . S
C1218 H1191 0.950 . S
C1218 C1204 1.377 . S
C1218 C1217 1.373 . S
C1219 C1203 1.377 . S
C1219 C1217 1.389 . S
C1219 C1220 1.524 . S
C1220 C1219 1.524 . S
C1220 C1221 1.397 . S
C1220 C1225 1.363 . S
C1221 H1192 0.950 . S
C1221 C1220 1.397 . S
C1221 C1222 1.334 . S
C1222 H1193 0.950 . S
C1222 C1221 1.334 . S
C1222 C1223 1.287 . S
C1223 C1222 1.287 . S
C1223 C1224 1.524 . S
C1223 H1226 0.999 . S
C1224 H1194 0.950 . S
C1224 C1223 1.524 . S
C1224 C1225 1.415 . S
C1225 H1195 0.950 . S
C1225 C1220 1.363 . S
C1225 C1224 1.415 . S
H1226 C1223 0.999 . S
H1227 C1208 0.913 . S
H1228 C1246 0.951 . S
H1229 C1248 0.951 . S
H1230 C1250 0.950 . S
H1231 C1251 0.950 . S
H1232 C1253 0.950 . S
H1233 C1256 0.950 . S
H1234 C1257 0.950 . S
H1235 C1259 0.950 . S
H1236 C1260 0.950 . S
H1237 C1261 0.951 . S
H1238 C1263 0.951 . S
H1239 C1265 0.950 . S
H1240 C1266 0.950 . S
H1241 C1268 0.950 . S
H1242 C1271 0.950 . S
H1243 C1272 0.950 . S
H1244 C1274 0.950 . S
H1245 C1275 0.950 . S
C1246 H1228 0.951 . S
C1246 C1247 1.366 . S
C1246 C1248 1.388 . S
C1247 C1246 1.366 . S
C1247 C1251 1.385 . S
C1248 H1229 0.951 . S
C1248 C1246 1.388 . S
C1248 C1249 1.366 . S
C1249 C1248 1.366 . S
C1249 C1250 1.414 . S
C1249 C1252 1.499 . S
C1250 H1230 0.950 . S
C1250 C1249 1.414 . S
C1250 C1251 1.374 . S
C1251 H1231 0.950 . S
C1251 C1247 1.385 . S
C1251 C1250 1.374 . S
C1252 C1249 1.499 . S
C1252 C1253 1.373 . S
C1252 C1254 1.389 . S
C1253 H1232 0.950 . S
C1253 C1252 1.373 . S
C1253 C1269 1.377 . S
C1254 C1252 1.389 . S
C1254 C1255 1.524 . S
C1254 C1268 1.377 . S
C1255 C1254 1.524 . S
C1255 C1256 1.397 . S
C1255 C1260 1.363 . S
C1256 H1233 0.950 . S
C1256 C1255 1.397 . S
C1256 C1257 1.334 . S
C1257 H1234 0.950 . S
C1257 C1256 1.334 . S
C1257 C1258 1.287 . S
C1258 C1257 1.287 . S
C1258 C1259 1.524 . S
C1258 H1277 0.913 . S
C1259 H1235 0.950 . S
C1259 C1258 1.524 . S
C1259 C1260 1.415 . S
C1260 H1236 0.950 . S
C1260 C1255 1.363 . S
C1260 C1259 1.415 . S
C1261 H1237 0.951 . S
C1261 C1262 1.366 . S
C1261 C1263 1.388 . S
C1262 C1261 1.366 . S
C1262 C1266 1.385 . S
C1263 H1238 0.951 . S
C1263 C1261 1.388 . S
C1263 C1264 1.366 . S
C1264 C1263 1.366 . S
C1264 C1265 1.414 . S
C1264 C1267 1.499 . S
C1265 H1239 0.950 . S
C1265 C1264 1.414 . S
C1265 C1266 1.374 . S
C1266 H1240 0.950 . S
C1266 C1262 1.385 . S
C1266 C1265 1.374 . S
C1267 C1264 1.499 . S
C1267 C1268 1.373 . S
C1267 C1269 1.389 . S
C1268 H1241 0.950 . S
C1268 C1254 1.377 . S
C1268 C1267 1.373 . S
C1269 C1253 1.377 . S
C1269 C1267 1.389 . S
C1269 C1270 1.524 . S
C1270 C1269 1.524 . S
C1270 C1271 1.397 . S
C1270 C1275 1.363 . S
C1271 H1242 0.950 . S
C1271 C1270 1.397 . S
C1271 C1272 1.334 . S
C1272 H1243 0.950 . S
C1272 C1271 1.334 . S
C1272 C1273 1.287 . S
C1273 C1272 1.287 . S
C1273 C1274 1.524 . S
C1273 H1276 0.999 . S
C1274 H1244 0.950 . S
C1274 C1273 1.524 . S
C1274 C1275 1.415 . S
C1275 H1245 0.950 . S
C1275 C1270 1.363 . S
C1275 C1274 1.415 . S
H1276 C1273 0.999 . S
H1277 C1258 0.913 . S
H1278 C1296 0.951 . S
H1279 C1298 0.951 . S
H1280 C1300 0.950 . S
H1281 C1301 0.950 . S
H1282 C1303 0.950 . S
H1283 C1306 0.950 . S
H1284 C1307 0.950 . S
H1285 C1309 0.950 . S
H1286 C1310 0.950 . S
H1287 C1311 0.951 . S
H1288 C1313 0.951 . S
H1289 C1315 0.950 . S
H1290 C1316 0.950 . S
H1291 C1318 0.950 . S
H1292 C1321 0.950 . S
H1293 C1322 0.950 . S
H1294 C1324 0.950 . S
H1295 C1325 0.950 . S
C1296 H1278 0.951 . S
C1296 C1297 1.366 . S
C1296 C1298 1.388 . S
C1297 C1296 1.366 . S
C1297 C1301 1.385 . S
C1298 H1279 0.951 . S
C1298 C1296 1.388 . S
C1298 C1299 1.366 . S
C1299 C1298 1.366 . S
C1299 C1300 1.414 . S
C1299 C1302 1.499 . S
C1300 H1280 0.950 . S
C1300 C1299 1.414 . S
C1300 C1301 1.374 . S
C1301 H1281 0.950 . S
C1301 C1297 1.385 . S
C1301 C1300 1.374 . S
C1302 C1299 1.499 . S
C1302 C1303 1.373 . S
C1302 C1304 1.389 . S
C1303 H1282 0.950 . S
C1303 C1302 1.373 . S
C1303 C1319 1.377 . S
C1304 C1302 1.389 . S
C1304 C1305 1.524 . S
C1304 C1318 1.377 . S
C1305 C1304 1.524 . S
C1305 C1306 1.397 . S
C1305 C1310 1.363 . S
C1306 H1283 0.950 . S
C1306 C1305 1.397 . S
C1306 C1307 1.334 . S
C1307 H1284 0.950 . S
C1307 C1306 1.334 . S
C1307 C1308 1.287 . S
C1308 C1307 1.287 . S
C1308 C1309 1.524 . S
C1308 H1327 0.913 . S
C1309 H1285 0.950 . S
C1309 C1308 1.524 . S
C1309 C1310 1.415 . S
C1310 H1286 0.950 . S
C1310 C1305 1.363 . S
C1310 C1309 1.415 . S
C1311 H1287 0.951 . S
C1311 C1312 1.366 . S
C1311 C1313 1.388 . S
C1312 C1311 1.366 . S
C1312 C1316 1.385 . S
C1313 H1288 0.951 . S
C1313 C1311 1.388 . S
C1313 C1314 1.366 . S
C1314 C1313 1.366 . S
C1314 C1315 1.414 . S
C1314 C1317 1.499 . S
C1315 H1289 0.950 . S
C1315 C1314 1.414 . S
C1315 C1316 1.374 . S
C1316 H1290 0.950 . S
C1316 C1312 1.385 . S
C1316 C1315 1.374 . S
C1317 C1314 1.499 . S
C1317 C1318 1.373 . S
C1317 C1319 1.389 . S
C1318 H1291 0.950 . S
C1318 C1304 1.377 . S
C1318 C1317 1.373 . S
C1319 C1303 1.377 . S
C1319 C1317 1.389 . S
C1319 C1320 1.524 . S
C1320 C1319 1.524 . S
C1320 C1321 1.397 . S
C1320 C1325 1.363 . S
C1321 H1292 0.950 . S
C1321 C1320 1.397 . S
C1321 C1322 1.334 . S
C1322 H1293 0.950 . S
C1322 C1321 1.334 . S
C1322 C1323 1.287 . S
C1323 C1322 1.287 . S
C1323 C1324 1.524 . S
C1323 H1326 0.999 . S
C1324 H1294 0.950 . S
C1324 C1323 1.524 . S
C1324 C1325 1.415 . S
C1325 H1295 0.950 . S
C1325 C1320 1.363 . S
C1325 C1324 1.415 . S
H1326 C1323 0.999 . S
H1327 C1308 0.913 . S
H1328 C1346 0.951 . S
H1329 C1348 0.951 . S
H1330 C1350 0.950 . S
H1331 C1351 0.950 . S
H1332 C1353 0.950 . S
H1333 C1356 0.950 . S
H1334 C1357 0.950 . S
H1335 C1359 0.950 . S
H1336 C1360 0.950 . S
H1337 C1361 0.951 . S
H1338 C1363 0.951 . S
H1339 C1365 0.950 . S
H1340 C1366 0.950 . S
H1341 C1368 0.950 . S
H1342 C1371 0.950 . S
H1343 C1372 0.950 . S
H1344 C1374 0.950 . S
H1345 C1375 0.950 . S
C1346 H1328 0.951 . S
C1346 C1347 1.366 . S
C1346 C1348 1.388 . S
C1347 C1346 1.366 . S
C1347 C1351 1.385 . S
C1348 H1329 0.951 . S
C1348 C1346 1.388 . S
C1348 C1349 1.366 . S
C1349 C1348 1.366 . S
C1349 C1350 1.414 . S
C1349 C1352 1.499 . S
C1350 H1330 0.950 . S
C1350 C1349 1.414 . S
C1350 C1351 1.374 . S
C1351 H1331 0.950 . S
C1351 C1347 1.385 . S
C1351 C1350 1.374 . S
C1352 C1349 1.499 . S
C1352 C1353 1.373 . S
C1352 C1354 1.389 . S
C1353 H1332 0.950 . S
C1353 C1352 1.373 . S
C1353 C1369 1.377 . S
C1354 C1352 1.389 . S
C1354 C1355 1.524 . S
C1354 C1368 1.377 . S
C1355 C1354 1.524 . S
C1355 C1356 1.397 . S
C1355 C1360 1.363 . S
C1356 H1333 0.950 . S
C1356 C1355 1.397 . S
C1356 C1357 1.334 . S
C1357 H1334 0.950 . S
C1357 C1356 1.334 . S
C1357 C1358 1.287 . S
C1358 C1357 1.287 . S
C1358 C1359 1.524 . S
C1358 H1377 0.913 . S
C1359 H1335 0.950 . S
C1359 C1358 1.524 . S
C1359 C1360 1.415 . S
C1360 H1336 0.950 . S
C1360 C1355 1.363 . S
C1360 C1359 1.415 . S
C1361 H1337 0.951 . S
C1361 C1362 1.366 . S
C1361 C1363 1.388 . S
C1362 C1361 1.366 . S
C1362 C1366 1.385 . S
C1363 H1338 0.951 . S
C1363 C1361 1.388 . S
C1363 C1364 1.366 . S
C1364 C1363 1.366 . S
C1364 C1365 1.414 . S
C1364 C1367 1.499 . S
C1365 H1339 0.950 . S
C1365 C1364 1.414 . S
C1365 C1366 1.374 . S
C1366 H1340 0.950 . S
C1366 C1362 1.385 . S
C1366 C1365 1.374 . S
C1367 C1364 1.499 . S
C1367 C1368 1.373 . S
C1367 C1369 1.389 . S
C1368 H1341 0.950 . S
C1368 C1354 1.377 . S
C1368 C1367 1.373 . S
C1369 C1353 1.377 . S
C1369 C1367 1.389 . S
C1369 C1370 1.524 . S
C1370 C1369 1.524 . S
C1370 C1371 1.397 . S
C1370 C1375 1.363 . S
C1371 H1342 0.950 . S
C1371 C1370 1.397 . S
C1371 C1372 1.334 . S
C1372 H1343 0.950 . S
C1372 C1371 1.334 . S
C1372 C1373 1.287 . S
C1373 C1372 1.287 . S
C1373 C1374 1.524 . S
C1373 H1376 0.999 . S
C1374 H1344 0.950 . S
C1374 C1373 1.524 . S
C1374 C1375 1.415 . S
C1375 H1345 0.950 . S
C1375 C1370 1.363 . S
C1375 C1374 1.415 . S
H1376 C1373 0.999 . S
H1377 C1358 0.913 . S
H1378 C1396 0.951 . S
H1379 C1398 0.951 . S
H1380 C1400 0.950 . S
H1381 C1401 0.950 . S
H1382 C1403 0.950 . S
H1383 C1406 0.950 . S
H1384 C1407 0.950 . S
H1385 C1409 0.950 . S
H1386 C1410 0.950 . S
H1387 C1411 0.951 . S
H1388 C1413 0.951 . S
H1389 C1415 0.950 . S
H1390 C1416 0.950 . S
H1391 C1418 0.950 . S
H1392 C1421 0.950 . S
H1393 C1422 0.950 . S
H1394 C1424 0.950 . S
H1395 C1425 0.950 . S
C1396 H1378 0.951 . S
C1396 C1397 1.366 . S
C1396 C1398 1.388 . S
C1397 C1396 1.366 . S
C1397 C1401 1.385 . S
C1398 H1379 0.951 . S
C1398 C1396 1.388 . S
C1398 C1399 1.366 . S
C1399 C1398 1.366 . S
C1399 C1400 1.414 . S
C1399 C1402 1.499 . S
C1400 H1380 0.950 . S
C1400 C1399 1.414 . S
C1400 C1401 1.374 . S
C1401 H1381 0.950 . S
C1401 C1397 1.385 . S
C1401 C1400 1.374 . S
C1402 C1399 1.499 . S
C1402 C1403 1.373 . S
C1402 C1404 1.389 . S
C1403 H1382 0.950 . S
C1403 C1402 1.373 . S
C1403 C1419 1.377 . S
C1404 C1402 1.389 . S
C1404 C1405 1.524 . S
C1404 C1418 1.377 . S
C1405 C1404 1.524 . S
C1405 C1406 1.397 . S
C1405 C1410 1.363 . S
C1406 H1383 0.950 . S
C1406 C1405 1.397 . S
C1406 C1407 1.334 . S
C1407 H1384 0.950 . S
C1407 C1406 1.334 . S
C1407 C1408 1.287 . S
C1408 C1407 1.287 . S
C1408 C1409 1.524 . S
C1408 H1427 0.913 . S
C1409 H1385 0.950 . S
C1409 C1408 1.524 . S
C1409 C1410 1.415 . S
C1410 H1386 0.950 . S
C1410 C1405 1.363 . S
C1410 C1409 1.415 . S
C1411 H1387 0.951 . S
C1411 C1412 1.366 . S
C1411 C1413 1.388 . S
C1412 C1411 1.366 . S
C1412 C1416 1.385 . S
C1413 H1388 0.951 . S
C1413 C1411 1.388 . S
C1413 C1414 1.366 . S
C1414 C1413 1.366 . S
C1414 C1415 1.414 . S
C1414 C1417 1.499 . S
C1415 H1389 0.950 . S
C1415 C1414 1.414 . S
C1415 C1416 1.374 . S
C1416 H1390 0.950 . S
C1416 C1412 1.385 . S
C1416 C1415 1.374 . S
C1417 C1414 1.499 . S
C1417 C1418 1.373 . S
C1417 C1419 1.389 . S
C1418 H1391 0.950 . S
C1418 C1404 1.377 . S
C1418 C1417 1.373 . S
C1419 C1403 1.377 . S
C1419 C1417 1.389 . S
C1419 C1420 1.524 . S
C1420 C1419 1.524 . S
C1420 C1421 1.397 . S
C1420 C1425 1.363 . S
C1421 H1392 0.950 . S
C1421 C1420 1.397 . S
C1421 C1422 1.334 . S
C1422 H1393 0.950 . S
C1422 C1421 1.334 . S
C1422 C1423 1.287 . S
C1423 C1422 1.287 . S
C1423 C1424 1.524 . S
C1423 H1426 0.999 . S
C1424 H1394 0.950 . S
C1424 C1423 1.524 . S
C1424 C1425 1.415 . S
C1425 H1395 0.950 . S
C1425 C1420 1.363 . S
C1425 C1424 1.415 . S
H1426 C1423 0.999 . S
H1427 C1408 0.913 . S
H1428 C1446 0.951 . S
H1429 C1448 0.951 . S
H1430 C1450 0.950 . S
H1431 C1451 0.950 . S
H1432 C1453 0.950 . S
H1433 C1456 0.950 . S
H1434 C1457 0.950 . S
H1435 C1459 0.950 . S
H1436 C1460 0.950 . S
H1437 C1461 0.951 . S
H1438 C1463 0.951 . S
H1439 C1465 0.950 . S
H1440 C1466 0.950 . S
H1441 C1468 0.950 . S
H1442 C1471 0.950 . S
H1443 C1472 0.950 . S
H1444 C1474 0.950 . S
H1445 C1475 0.950 . S
C1446 H1428 0.951 . S
C1446 C1447 1.366 . S
C1446 C1448 1.388 . S
C1447 C1446 1.366 . S
C1447 C1451 1.385 . S
C1448 H1429 0.951 . S
C1448 C1446 1.388 . S
C1448 C1449 1.366 . S
C1449 C1448 1.366 . S
C1449 C1450 1.414 . S
C1449 C1452 1.499 1_545 S
C1450 H1430 0.950 . S
C1450 C1449 1.414 . S
C1450 C1451 1.374 . S
C1451 H1431 0.950 . S
C1451 C1447 1.385 . S
C1451 C1450 1.374 . S
C1452 C1449 1.499 1_565 S
C1452 C1453 1.373 . S
C1452 C1454 1.389 . S
C1453 H1432 0.950 . S
C1453 C1452 1.373 . S
C1453 C1469 1.377 . S
C1454 C1452 1.389 . S
C1454 C1455 1.481 1_565 S
C1454 C1468 1.377 . S
C1455 C1454 1.481 1_545 S
C1455 C1456 1.434 . S
C1455 C1460 1.368 1_545 S
C1456 H1433 0.950 . S
C1456 C1455 1.434 . S
C1456 C1457 1.334 . S
C1457 H1434 0.950 . S
C1457 C1456 1.334 . S
C1457 C1458 1.287 . S
C1458 C1457 1.287 . S
C1458 C1459 1.524 . S
C1458 H1477 0.913 . S
C1459 H1435 0.950 . S
C1459 C1458 1.524 . S
C1459 C1460 1.415 1_545 S
C1460 H1436 0.950 . S
C1460 C1455 1.368 1_565 S
C1460 C1459 1.415 1_565 S
C1461 H1437 0.951 . S
C1461 C1462 1.366 . S
C1461 C1463 1.388 . S
C1462 C1461 1.366 . S
C1462 C1466 1.385 . S
C1463 H1438 0.951 . S
C1463 C1461 1.388 . S
C1463 C1464 1.366 . S
C1464 C1463 1.366 . S
C1464 C1465 1.414 . S
C1464 C1467 1.499 . S
C1465 H1439 0.950 . S
C1465 C1464 1.414 . S
C1465 C1466 1.374 . S
C1466 H1440 0.950 . S
C1466 C1462 1.385 . S
C1466 C1465 1.374 . S
C1467 C1464 1.499 . S
C1467 C1468 1.373 . S
C1467 C1469 1.389 . S
C1468 H1441 0.950 . S
C1468 C1454 1.377 . S
C1468 C1467 1.373 . S
C1469 C1453 1.377 . S
C1469 C1467 1.389 . S
C1469 C1470 1.524 . S
C1470 C1469 1.524 . S
C1470 C1471 1.397 . S
C1470 C1475 1.363 . S
C1471 H1442 0.950 . S
C1471 C1470 1.397 . S
C1471 C1472 1.334 . S
C1472 H1443 0.950 . S
C1472 C1471 1.334 . S
C1472 C1473 1.287 . S
C1473 C1472 1.287 . S
C1473 C1474 1.524 . S
C1473 H1476 0.999 . S
C1474 H1444 0.950 . S
C1474 C1473 1.524 . S
C1474 C1475 1.415 . S
C1475 H1445 0.950 . S
C1475 C1470 1.363 . S
C1475 C1474 1.415 . S
H1476 C1473 0.999 . S
H1477 C1458 0.913 . S
H1478 C1496 0.951 . S
H1479 C1498 0.951 . S
H1480 C1500 0.959 . S
H1481 C1501 0.950 . S
H1482 C1503 0.950 . S
H1483 C1506 0.950 . S
H1484 C1507 0.950 . S
H1485 C1509 0.950 . S
H1486 C1510 0.950 1_455 S
H1487 C1511 0.951 . S
H1488 C1513 0.951 . S
H1489 C1515 0.950 . S
H1490 C1516 0.950 . S
H1491 C1518 0.950 . S
H1492 C1521 0.950 . S
H1493 C1522 0.950 . S
H1494 C1524 0.950 . S
H1495 C1525 0.950 . S
C1496 H1478 0.951 . S
C1496 C1497 1.366 . S
C1496 C1498 1.388 . S
C1497 C1496 1.366 . S
C1497 C1501 1.385 . S
C1498 H1479 0.951 . S
C1498 C1496 1.388 . S
C1498 C1499 1.366 . S
C1499 C1498 1.366 . S
C1499 C1500 1.414 . S
C1499 C1502 1.499 1_655 S
C1500 H1480 0.959 . S
C1500 C1499 1.414 . S
C1500 C1501 1.374 . S
C1501 H1481 0.950 . S
C1501 C1497 1.385 . S
C1501 C1500 1.374 . S
C1502 C1499 1.499 1_455 S
C1502 C1503 1.373 . S
C1502 C1504 1.389 . S
C1503 H1482 0.950 . S
C1503 C1502 1.373 . S
C1503 C1519 1.377 . S
C1504 C1502 1.389 . S
C1504 C1505 1.528 . S
C1504 C1518 1.377 . S
C1505 C1504 1.528 . S
C1505 C1506 1.395 1_455 S
C1505 C1510 1.362 1_455 S
C1506 H1483 0.950 . S
C1506 C1505 1.395 1_655 S
C1506 C1507 1.334 . S
C1507 H1484 0.950 . S
C1507 C1506 1.334 . S
C1507 C1508 1.287 . S
C1508 C1507 1.287 . S
C1508 C1509 1.524 . S
C1508 H1527 0.913 . S
C1509 H1485 0.950 . S
C1509 C1508 1.524 . S
C1509 C1510 1.415 . S
C1510 H1486 0.950 1_655 S
C1510 C1505 1.362 1_655 S
C1510 C1509 1.415 . S
C1511 H1487 0.951 . S
C1511 C1512 1.366 . S
C1511 C1513 1.388 . S
C1512 C1511 1.366 . S
C1512 C1516 1.385 . S
C1513 H1488 0.951 . S
C1513 C1511 1.388 . S
C1513 C1514 1.366 . S
C1514 C1513 1.366 . S
C1514 C1515 1.414 . S
C1514 C1517 1.499 . S
C1515 H1489 0.950 . S
C1515 C1514 1.414 . S
C1515 C1516 1.374 . S
C1516 H1490 0.950 . S
C1516 C1512 1.385 . S
C1516 C1515 1.374 . S
C1517 C1514 1.499 . S
C1517 C1518 1.373 . S
C1517 C1519 1.389 . S
C1518 H1491 0.950 . S
C1518 C1504 1.377 . S
C1518 C1517 1.373 . S
C1519 C1503 1.377 . S
C1519 C1517 1.389 . S
C1519 C1520 1.524 . S
C1520 C1519 1.524 . S
C1520 C1521 1.397 . S
C1520 C1525 1.363 . S
C1521 H1492 0.950 . S
C1521 C1520 1.397 . S
C1521 C1522 1.334 . S
C1522 H1493 0.950 . S
C1522 C1521 1.334 . S
C1522 C1523 1.287 . S
C1523 C1522 1.287 . S
C1523 C1524 1.524 . S
C1523 H1526 0.999 . S
C1524 H1494 0.950 . S
C1524 C1523 1.524 . S
C1524 C1525 1.415 . S
C1525 H1495 0.950 . S
C1525 C1520 1.363 . S
C1525 C1524 1.415 . S
H1526 C1523 0.999 . S
H1527 C1508 0.913 . S
H1528 C1546 0.951 . S
H1529 C1548 0.951 . S
H1530 C1550 0.950 . S
H1531 C1551 0.950 . S
H1532 C1553 0.950 . S
H1533 C1556 0.950 . S
H1534 C1557 0.950 . S
H1535 C1559 0.950 . S
H1536 C1560 0.950 . S
H1537 C1561 0.951 . S
H1538 C1563 0.951 . S
H1539 C1565 0.950 . S
H1540 C1566 0.950 . S
H1541 C1568 0.950 . S
H1542 C1571 0.950 . S
H1543 C1572 0.950 . S
H1544 C1574 0.950 . S
H1545 C1575 0.950 . S
C1546 H1528 0.951 . S
C1546 C1547 1.366 . S
C1546 C1548 1.388 . S
C1547 C1546 1.366 . S
C1547 C1551 1.385 . S
C1548 H1529 0.951 . S
C1548 C1546 1.388 . S
C1548 C1549 1.366 . S
C1549 C1548 1.366 . S
C1549 C1550 1.414 . S
C1549 C1552 1.499 . S
C1550 H1530 0.950 . S
C1550 C1549 1.414 . S
C1550 C1551 1.374 . S
C1551 H1531 0.950 . S
C1551 C1547 1.385 . S
C1551 C1550 1.374 . S
C1552 C1549 1.499 . S
C1552 C1553 1.373 . S
C1552 C1554 1.389 . S
C1553 H1532 0.950 . S
C1553 C1552 1.373 . S
C1553 C1569 1.377 . S
C1554 C1552 1.389 . S
C1554 C1555 1.524 . S
C1554 C1568 1.377 . S
C1555 C1554 1.524 . S
C1555 C1556 1.397 . S
C1555 C1560 1.363 . S
C1556 H1533 0.950 . S
C1556 C1555 1.397 . S
C1556 C1557 1.334 . S
C1557 H1534 0.950 . S
C1557 C1556 1.334 . S
C1557 C1558 1.287 . S
C1558 C1557 1.287 . S
C1558 C1559 1.524 . S
C1558 H1577 0.913 . S
C1559 H1535 0.950 . S
C1559 C1558 1.524 . S
C1559 C1560 1.415 . S
C1560 H1536 0.950 . S
C1560 C1555 1.363 . S
C1560 C1559 1.415 . S
C1561 H1537 0.951 . S
C1561 C1562 1.366 . S
C1561 C1563 1.388 . S
C1562 C1561 1.366 . S
C1562 C1566 1.385 . S
C1563 H1538 0.951 . S
C1563 C1561 1.388 . S
C1563 C1564 1.366 . S
C1564 C1563 1.366 . S
C1564 C1565 1.414 . S
C1564 C1567 1.499 . S
C1565 H1539 0.950 . S
C1565 C1564 1.414 . S
C1565 C1566 1.374 . S
C1566 H1540 0.950 . S
C1566 C1562 1.385 . S
C1566 C1565 1.374 . S
C1567 C1564 1.499 . S
C1567 C1568 1.373 . S
C1567 C1569 1.389 . S
C1568 H1541 0.950 . S
C1568 C1554 1.377 . S
C1568 C1567 1.373 . S
C1569 C1553 1.377 . S
C1569 C1567 1.389 . S
C1569 C1570 1.524 . S
C1570 C1569 1.524 . S
C1570 C1571 1.397 . S
C1570 C1575 1.363 . S
C1571 H1542 0.950 . S
C1571 C1570 1.397 . S
C1571 C1572 1.334 . S
C1572 H1543 0.950 . S
C1572 C1571 1.334 . S
C1572 C1573 1.287 . S
C1573 C1572 1.287 . S
C1573 C1574 1.524 . S
C1573 H1576 0.999 . S
C1574 H1544 0.950 . S
C1574 C1573 1.524 . S
C1574 C1575 1.415 . S
C1575 H1545 0.950 . S
C1575 C1570 1.363 . S
C1575 C1574 1.415 . S
H1576 C1573 0.999 . S
H1577 C1558 0.913 . S
H1578 C1596 0.951 . S
H1579 C1598 0.951 . S
H1580 C1600 0.950 . S
H1581 C1601 0.950 . S
H1582 C1603 0.950 . S
H1583 C1606 0.950 . S
H1584 C1607 0.950 . S
H1585 C1609 0.950 . S
H1586 C1610 0.950 . S
H1587 C1611 0.951 . S
H1588 C1613 0.951 . S
H1589 C1615 0.950 . S
H1590 C1616 0.950 . S
H1591 C1618 0.950 . S
H1592 C1621 0.950 . S
H1593 C1622 0.950 . S
H1594 C1624 0.950 . S
H1595 C1625 0.950 . S
C1596 H1578 0.951 . S
C1596 C1597 1.366 . S
C1596 C1598 1.388 . S
C1597 C1596 1.366 . S
C1597 C1601 1.385 . S
C1598 H1579 0.951 . S
C1598 C1596 1.388 . S
C1598 C1599 1.366 . S
C1599 C1598 1.366 . S
C1599 C1600 1.414 . S
C1599 C1602 1.499 . S
C1600 H1580 0.950 . S
C1600 C1599 1.414 . S
C1600 C1601 1.374 . S
C1601 H1581 0.950 . S
C1601 C1597 1.385 . S
C1601 C1600 1.374 . S
C1602 C1599 1.499 . S
C1602 C1603 1.373 . S
C1602 C1604 1.389 . S
C1603 H1582 0.950 . S
C1603 C1602 1.373 . S
C1603 C1619 1.377 . S
C1604 C1602 1.389 . S
C1604 C1605 1.524 . S
C1604 C1618 1.377 . S
C1605 C1604 1.524 . S
C1605 C1606 1.397 . S
C1605 C1610 1.363 . S
C1606 H1583 0.950 . S
C1606 C1605 1.397 . S
C1606 C1607 1.334 . S
C1607 H1584 0.950 . S
C1607 C1606 1.334 . S
C1607 C1608 1.287 . S
C1608 C1607 1.287 . S
C1608 C1609 1.524 . S
C1608 H1627 0.913 . S
C1609 H1585 0.950 . S
C1609 C1608 1.524 . S
C1609 C1610 1.415 . S
C1610 H1586 0.950 . S
C1610 C1605 1.363 . S
C1610 C1609 1.415 . S
C1611 H1587 0.951 . S
C1611 C1612 1.366 . S
C1611 C1613 1.388 . S
C1612 C1611 1.366 . S
C1612 C1616 1.385 . S
C1613 H1588 0.951 . S
C1613 C1611 1.388 . S
C1613 C1614 1.366 . S
C1614 C1613 1.366 . S
C1614 C1615 1.414 . S
C1614 C1617 1.499 . S
C1615 H1589 0.950 . S
C1615 C1614 1.414 . S
C1615 C1616 1.374 . S
C1616 H1590 0.950 . S
C1616 C1612 1.385 . S
C1616 C1615 1.374 . S
C1617 C1614 1.499 . S
C1617 C1618 1.373 . S
C1617 C1619 1.389 . S
C1618 H1591 0.950 . S
C1618 C1604 1.377 . S
C1618 C1617 1.373 . S
C1619 C1603 1.377 . S
C1619 C1617 1.389 . S
C1619 C1620 1.524 . S
C1620 C1619 1.524 . S
C1620 C1621 1.397 . S
C1620 C1625 1.363 . S
C1621 H1592 0.950 . S
C1621 C1620 1.397 . S
C1621 C1622 1.334 . S
C1622 H1593 0.950 . S
C1622 C1621 1.334 . S
C1622 C1623 1.287 . S
C1623 C1622 1.287 . S
C1623 C1624 1.524 . S
C1623 H1626 0.999 . S
C1624 H1594 0.950 . S
C1624 C1623 1.524 . S
C1624 C1625 1.415 . S
C1625 H1595 0.950 . S
C1625 C1620 1.363 . S
C1625 C1624 1.415 . S
H1626 C1623 0.999 . S
H1627 C1608 0.913 . S
H1628 C1646 0.951 . S
H1629 C1648 0.951 . S
H1630 C1650 0.950 . S
H1631 C1651 0.950 . S
H1632 C1653 0.950 . S
H1633 C1656 0.950 . S
H1634 C1657 0.950 . S
H1635 C1659 0.950 . S
H1636 C1660 0.950 . S
H1637 C1661 0.951 . S
H1638 C1663 0.951 . S
H1639 C1665 0.950 . S
H1640 C1666 0.950 . S
H1641 C1668 0.950 . S
H1642 C1671 0.950 . S
H1643 C1672 0.950 . S
H1644 C1674 0.950 . S
H1645 C1675 0.950 . S
C1646 H1628 0.951 . S
C1646 C1647 1.366 . S
C1646 C1648 1.388 . S
C1647 C1646 1.366 . S
C1647 C1651 1.385 . S
C1648 H1629 0.951 . S
C1648 C1646 1.388 . S
C1648 C1649 1.366 . S
C1649 C1648 1.366 . S
C1649 C1650 1.414 . S
C1649 C1652 1.499 . S
C1650 H1630 0.950 . S
C1650 C1649 1.414 . S
C1650 C1651 1.374 . S
C1651 H1631 0.950 . S
C1651 C1647 1.385 . S
C1651 C1650 1.374 . S
C1652 C1649 1.499 . S
C1652 C1653 1.373 . S
C1652 C1654 1.389 . S
C1653 H1632 0.950 . S
C1653 C1652 1.373 . S
C1653 C1669 1.377 . S
C1654 C1652 1.389 . S
C1654 C1655 1.524 . S
C1654 C1668 1.377 . S
C1655 C1654 1.524 . S
C1655 C1656 1.397 . S
C1655 C1660 1.363 . S
C1656 H1633 0.950 . S
C1656 C1655 1.397 . S
C1656 C1657 1.334 . S
C1657 H1634 0.950 . S
C1657 C1656 1.334 . S
C1657 C1658 1.287 . S
C1658 C1657 1.287 . S
C1658 C1659 1.524 . S
C1658 H1677 0.913 . S
C1659 H1635 0.950 . S
C1659 C1658 1.524 . S
C1659 C1660 1.415 . S
C1660 H1636 0.950 . S
C1660 C1655 1.363 . S
C1660 C1659 1.415 . S
C1661 H1637 0.951 . S
C1661 C1662 1.366 . S
C1661 C1663 1.388 . S
C1662 C1661 1.366 . S
C1662 C1666 1.385 . S
C1663 H1638 0.951 . S
C1663 C1661 1.388 . S
C1663 C1664 1.366 . S
C1664 C1663 1.366 . S
C1664 C1665 1.414 . S
C1664 C1667 1.499 . S
C1665 H1639 0.950 . S
C1665 C1664 1.414 . S
C1665 C1666 1.374 . S
C1666 H1640 0.950 . S
C1666 C1662 1.385 . S
C1666 C1665 1.374 . S
C1667 C1664 1.499 . S
C1667 C1668 1.373 . S
C1667 C1669 1.389 . S
C1668 H1641 0.950 . S
C1668 C1654 1.377 . S
C1668 C1667 1.373 . S
C1669 C1653 1.377 . S
C1669 C1667 1.389 . S
C1669 C1670 1.524 . S
C1670 C1669 1.524 . S
C1670 C1671 1.397 . S
C1670 C1675 1.363 . S
C1671 H1642 0.950 . S
C1671 C1670 1.397 . S
C1671 C1672 1.334 . S
C1672 H1643 0.950 . S
C1672 C1671 1.334 . S
C1672 C1673 1.287 . S
C1673 C1672 1.287 . S
C1673 C1674 1.524 . S
C1673 H1676 0.999 . S
C1674 H1644 0.950 . S
C1674 C1673 1.524 . S
C1674 C1675 1.415 . S
C1675 H1645 0.950 . S
C1675 C1670 1.363 . S
C1675 C1674 1.415 . S
H1676 C1673 0.999 . S
H1677 C1658 0.913 . S
H1678 C1696 0.951 . S
H1679 C1698 0.951 . S
H1680 C1700 0.950 . S
H1681 C1701 0.950 . S
H1682 C1703 0.950 . S
H1683 C1706 0.950 . S
H1684 C1707 0.950 . S
H1685 C1709 0.950 . S
H1686 C1710 0.950 . S
H1687 C1711 0.951 . S
H1688 C1713 0.951 . S
H1689 C1715 0.950 . S
H1690 C1716 0.950 . S
H1691 C1718 0.950 . S
H1692 C1721 0.950 . S
H1693 C1722 0.950 . S
H1694 C1724 0.950 . S
H1695 C1725 0.950 . S
C1696 H1678 0.951 . S
C1696 C1697 1.366 . S
C1696 C1698 1.388 . S
C1697 C1696 1.366 . S
C1697 C1701 1.385 . S
C1698 H1679 0.951 . S
C1698 C1696 1.388 . S
C1698 C1699 1.366 . S
C1699 C1698 1.366 . S
C1699 C1700 1.414 . S
C1699 C1702 1.499 . S
C1700 H1680 0.950 . S
C1700 C1699 1.414 . S
C1700 C1701 1.374 . S
C1701 H1681 0.950 . S
C1701 C1697 1.385 . S
C1701 C1700 1.374 . S
C1702 C1699 1.499 . S
C1702 C1703 1.373 . S
C1702 C1704 1.389 . S
C1703 H1682 0.950 . S
C1703 C1702 1.373 . S
C1703 C1719 1.377 . S
C1704 C1702 1.389 . S
C1704 C1705 1.524 . S
C1704 C1718 1.377 . S
C1705 C1704 1.524 . S
C1705 C1706 1.397 . S
C1705 C1710 1.363 . S
C1706 H1683 0.950 . S
C1706 C1705 1.397 . S
C1706 C1707 1.334 . S
C1707 H1684 0.950 . S
C1707 C1706 1.334 . S
C1707 C1708 1.287 . S
C1708 C1707 1.287 . S
C1708 C1709 1.524 . S
C1708 H1727 0.913 . S
C1709 H1685 0.950 . S
C1709 C1708 1.524 . S
C1709 C1710 1.415 . S
C1710 H1686 0.950 . S
C1710 C1705 1.363 . S
C1710 C1709 1.415 . S
C1711 H1687 0.951 . S
C1711 C1712 1.366 . S
C1711 C1713 1.388 . S
C1712 C1711 1.366 . S
C1712 C1716 1.385 . S
C1713 H1688 0.951 . S
C1713 C1711 1.388 . S
C1713 C1714 1.366 . S
C1714 C1713 1.366 . S
C1714 C1715 1.414 . S
C1714 C1717 1.499 . S
C1715 H1689 0.950 . S
C1715 C1714 1.414 . S
C1715 C1716 1.374 . S
C1716 H1690 0.950 . S
C1716 C1712 1.385 . S
C1716 C1715 1.374 . S
C1717 C1714 1.499 . S
C1717 C1718 1.373 . S
C1717 C1719 1.389 . S
C1718 H1691 0.950 . S
C1718 C1704 1.377 . S
C1718 C1717 1.373 . S
C1719 C1703 1.377 . S
C1719 C1717 1.389 . S
C1719 C1720 1.524 . S
C1720 C1719 1.524 . S
C1720 C1721 1.397 . S
C1720 C1725 1.363 . S
C1721 H1692 0.950 . S
C1721 C1720 1.397 . S
C1721 C1722 1.334 . S
C1722 H1693 0.950 . S
C1722 C1721 1.334 . S
C1722 C1723 1.287 . S
C1723 C1722 1.287 . S
C1723 C1724 1.524 . S
C1723 H1726 0.999 . S
C1724 H1694 0.950 . S
C1724 C1723 1.524 . S
C1724 C1725 1.415 . S
C1725 H1695 0.950 . S
C1725 C1720 1.363 . S
C1725 C1724 1.415 . S
H1726 C1723 0.999 . S
H1727 C1708 0.913 . S
H1728 C1746 0.951 . S
H1729 C1748 0.951 . S
H1730 C1750 0.950 . S
H1731 C1751 0.950 . S
H1732 C1753 0.928 1_565 S
H1733 C1756 0.950 1_565 S
H1734 C1757 0.950 . S
H1735 C1759 0.950 . S
H1736 C1760 0.950 . S
H1737 C1761 0.951 . S
H1738 C1763 0.951 . S
H1739 C1765 0.950 . S
H1740 C1766 0.950 . S
H1741 C1768 0.950 . S
H1742 C1771 0.950 . S
H1743 C1772 0.950 . S
H1744 C1774 0.950 . S
H1745 C1775 0.950 . S
C1746 H1728 0.951 . S
C1746 C1747 1.366 . S
C1746 C1748 1.388 . S
C1747 C1746 1.366 . S
C1747 C1751 1.385 . S
C1748 H1729 0.951 . S
C1748 C1746 1.388 . S
C1748 C1749 1.366 . S
C1749 C1748 1.366 . S
C1749 C1750 1.414 . S
C1749 C1752 1.499 1_565 S
C1750 H1730 0.950 . S
C1750 C1749 1.414 . S
C1750 C1751 1.374 . S
C1751 H1731 0.950 . S
C1751 C1747 1.385 . S
C1751 C1750 1.374 . S
C1752 C1749 1.499 1_545 S
C1752 C1753 1.373 . S
C1752 C1754 1.389 . S
C1753 H1732 0.928 1_545 S
C1753 C1752 1.373 . S
C1753 C1769 1.377 . S
C1754 C1752 1.389 . S
C1754 C1755 1.524 . S
C1754 C1768 1.377 . S
C1755 C1754 1.524 . S
C1755 C1756 1.397 . S
C1755 C1760 1.363 . S
C1756 H1733 0.950 1_545 S
C1756 C1755 1.397 . S
C1756 C1757 1.334 1_545 S
C1757 H1734 0.950 . S
C1757 C1756 1.334 1_565 S
C1757 C1758 1.287 1_565 S
C1758 C1757 1.287 1_545 S
C1758 C1759 1.524 . S
C1758 H1777 0.913 . S
C1759 H1735 0.950 . S
C1759 C1758 1.524 . S
C1759 C1760 1.415 . S
C1760 H1736 0.950 . S
C1760 C1755 1.363 . S
C1760 C1759 1.415 . S
C1761 H1737 0.951 . S
C1761 C1762 1.366 . S
C1761 C1763 1.388 . S
C1762 C1761 1.366 . S
C1762 C1766 1.385 . S
C1763 H1738 0.951 . S
C1763 C1761 1.388 . S
C1763 C1764 1.366 . S
C1764 C1763 1.366 . S
C1764 C1765 1.414 . S
C1764 C1767 1.499 . S
C1765 H1739 0.950 . S
C1765 C1764 1.414 . S
C1765 C1766 1.374 . S
C1766 H1740 0.950 . S
C1766 C1762 1.385 . S
C1766 C1765 1.374 . S
C1767 C1764 1.499 . S
C1767 C1768 1.373 . S
C1767 C1769 1.389 . S
C1768 H1741 0.950 . S
C1768 C1754 1.377 . S
C1768 C1767 1.373 . S
C1769 C1753 1.377 . S
C1769 C1767 1.389 . S
C1769 C1770 1.524 . S
C1770 C1769 1.524 . S
C1770 C1771 1.397 . S
C1770 C1775 1.363 . S
C1771 H1742 0.950 . S
C1771 C1770 1.397 . S
C1771 C1772 1.334 . S
C1772 H1743 0.950 . S
C1772 C1771 1.334 . S
C1772 C1773 1.287 . S
C1773 C1772 1.287 . S
C1773 C1774 1.524 . S
C1773 H1776 0.999 . S
C1774 H1744 0.950 . S
C1774 C1773 1.524 . S
C1774 C1775 1.415 . S
C1775 H1745 0.950 . S
C1775 C1770 1.363 . S
C1775 C1774 1.415 . S
H1776 C1773 0.999 . S
H1777 C1758 0.913 . S
H1778 C1796 0.951 . S
H1779 C1798 0.951 . S
H1780 C1800 0.950 . S
H1781 C1801 0.950 . S
H1782 C1803 0.950 . S
H1783 C1806 0.950 . S
H1784 C1807 0.950 . S
H1785 C1809 0.950 . S
H1786 C1810 0.950 . S
H1787 C1811 0.951 . S
H1788 C1813 0.951 . S
H1789 C1815 0.950 . S
H1790 C1816 0.950 . S
H1791 C1818 0.950 . S
H1792 C1821 0.950 . S
H1793 C1822 0.950 . S
H1794 C1824 0.950 . S
H1795 C1825 0.950 . S
C1796 H1778 0.951 . S
C1796 C1797 1.366 . S
C1796 C1798 1.388 . S
C1797 C1796 1.366 . S
C1797 C1801 1.385 . S
C1798 H1779 0.951 . S
C1798 C1796 1.388 . S
C1798 C1799 1.366 . S
C1799 C1798 1.366 . S
C1799 C1800 1.414 . S
C1799 C1802 1.499 . S
C1800 H1780 0.950 . S
C1800 C1799 1.414 . S
C1800 C1801 1.374 . S
C1801 H1781 0.950 . S
C1801 C1797 1.385 . S
C1801 C1800 1.374 . S
C1802 C1799 1.499 . S
C1802 C1803 1.373 1_455 S
C1802 C1804 1.389 . S
C1803 H1782 0.950 . S
C1803 C1802 1.373 1_655 S
C1803 C1819 1.377 . S
C1804 C1802 1.389 . S
C1804 C1805 1.524 . S
C1804 C1818 1.377 1_455 S
C1805 C1804 1.524 . S
C1805 C1806 1.397 . S
C1805 C1810 1.363 . S
C1806 H1783 0.950 . S
C1806 C1805 1.397 . S
C1806 C1807 1.334 . S
C1807 H1784 0.950 . S
C1807 C1806 1.334 . S
C1807 C1808 1.287 . S
C1808 C1807 1.287 . S
C1808 C1809 1.524 . S
C1808 H1827 0.913 . S
C1809 H1785 0.950 . S
C1809 C1808 1.524 . S
C1809 C1810 1.415 . S
C1810 H1786 0.950 . S
C1810 C1805 1.363 . S
C1810 C1809 1.415 . S
C1811 H1787 0.951 . S
C1811 C1812 1.366 . S
C1811 C1813 1.388 . S
C1812 C1811 1.366 . S
C1812 C1816 1.385 . S
C1813 H1788 0.951 . S
C1813 C1811 1.388 . S
C1813 C1814 1.366 . S
C1814 C1813 1.366 . S
C1814 C1815 1.414 . S
C1814 C1817 1.499 . S
C1815 H1789 0.950 . S
C1815 C1814 1.414 . S
C1815 C1816 1.374 . S
C1816 H1790 0.950 . S
C1816 C1812 1.385 . S
C1816 C1815 1.374 . S
C1817 C1814 1.499 . S
C1817 C1818 1.373 . S
C1817 C1819 1.389 . S
C1818 H1791 0.950 . S
C1818 C1804 1.377 1_655 S
C1818 C1817 1.373 . S
C1819 C1803 1.377 . S
C1819 C1817 1.389 . S
C1819 C1820 1.524 . S
C1820 C1819 1.524 . S
C1820 C1821 1.397 . S
C1820 C1825 1.363 . S
C1821 H1792 0.950 . S
C1821 C1820 1.397 . S
C1821 C1822 1.334 . S
C1822 H1793 0.950 . S
C1822 C1821 1.334 . S
C1822 C1823 1.287 . S
C1823 C1822 1.287 . S
C1823 C1824 1.524 . S
C1823 H1826 0.999 . S
C1824 H1794 0.950 . S
C1824 C1823 1.524 . S
C1824 C1825 1.415 . S
C1825 H1795 0.950 . S
C1825 C1820 1.363 . S
C1825 C1824 1.415 . S
H1826 C1823 0.999 . S
H1827 C1808 0.913 . S
H1828 C1846 0.951 . S
H1829 C1848 0.951 . S
H1830 C1850 0.950 . S
H1831 C1851 0.950 . S
H1832 C1853 0.950 . S
H1833 C1856 0.950 . S
H1834 C1857 0.950 . S
H1835 C1859 0.950 . S
H1836 C1860 0.950 . S
H1837 C1861 0.951 . S
H1838 C1863 0.951 . S
H1839 C1865 0.950 . S
H1840 C1866 0.950 . S
H1841 C1868 0.950 . S
H1842 C1871 0.950 . S
H1843 C1872 0.950 . S
H1844 C1874 0.950 . S
H1845 C1875 0.950 . S
C1846 H1828 0.951 . S
C1846 C1847 1.366 . S
C1846 C1848 1.388 . S
C1847 C1846 1.366 . S
C1847 C1851 1.385 . S
C1848 H1829 0.951 . S
C1848 C1846 1.388 . S
C1848 C1849 1.366 . S
C1849 C1848 1.366 . S
C1849 C1850 1.414 . S
C1849 C1852 1.499 . S
C1850 H1830 0.950 . S
C1850 C1849 1.414 . S
C1850 C1851 1.374 . S
C1851 H1831 0.950 . S
C1851 C1847 1.385 . S
C1851 C1850 1.374 . S
C1852 C1849 1.499 . S
C1852 C1853 1.373 . S
C1852 C1854 1.389 . S
C1853 H1832 0.950 . S
C1853 C1852 1.373 . S
C1853 C1869 1.377 . S
C1854 C1852 1.389 . S
C1854 C1855 1.524 . S
C1854 C1868 1.377 . S
C1855 C1854 1.524 . S
C1855 C1856 1.397 . S
C1855 C1860 1.363 . S
C1856 H1833 0.950 . S
C1856 C1855 1.397 . S
C1856 C1857 1.334 . S
C1857 H1834 0.950 . S
C1857 C1856 1.334 . S
C1857 C1858 1.287 . S
C1858 C1857 1.287 . S
C1858 C1859 1.524 . S
C1858 H1877 0.913 . S
C1859 H1835 0.950 . S
C1859 C1858 1.524 . S
C1859 C1860 1.415 . S
C1860 H1836 0.950 . S
C1860 C1855 1.363 . S
C1860 C1859 1.415 . S
C1861 H1837 0.951 . S
C1861 C1862 1.366 . S
C1861 C1863 1.388 . S
C1862 C1861 1.366 . S
C1862 C1866 1.385 . S
C1863 H1838 0.951 . S
C1863 C1861 1.388 . S
C1863 C1864 1.366 . S
C1864 C1863 1.366 . S
C1864 C1865 1.414 . S
C1864 C1867 1.499 . S
C1865 H1839 0.950 . S
C1865 C1864 1.414 . S
C1865 C1866 1.374 . S
C1866 H1840 0.950 . S
C1866 C1862 1.385 . S
C1866 C1865 1.374 . S
C1867 C1864 1.499 . S
C1867 C1868 1.373 . S
C1867 C1869 1.389 . S
C1868 H1841 0.950 . S
C1868 C1854 1.377 . S
C1868 C1867 1.373 . S
C1869 C1853 1.377 . S
C1869 C1867 1.389 . S
C1869 C1870 1.524 . S
C1870 C1869 1.524 . S
C1870 C1871 1.397 . S
C1870 C1875 1.363 . S
C1871 H1842 0.950 . S
C1871 C1870 1.397 . S
C1871 C1872 1.334 . S
C1872 H1843 0.950 . S
C1872 C1871 1.334 . S
C1872 C1873 1.287 . S
C1873 C1872 1.287 . S
C1873 C1874 1.524 . S
C1873 H1876 0.999 . S
C1874 H1844 0.950 . S
C1874 C1873 1.524 . S
C1874 C1875 1.415 . S
C1875 H1845 0.950 . S
C1875 C1870 1.363 . S
C1875 C1874 1.415 . S
H1876 C1873 0.999 . S
H1877 C1858 0.913 . S
H1878 C1896 0.951 . S
H1879 C1898 0.951 . S
H1880 C1900 0.950 . S
H1881 C1901 0.950 . S
H1882 C1903 0.950 . S
H1883 C1906 0.950 . S
H1884 C1907 0.950 . S
H1885 C1909 0.950 . S
H1886 C1910 0.950 . S
H1887 C1911 0.951 . S
H1888 C1913 0.951 . S
H1889 C1915 0.950 . S
H1890 C1916 0.950 . S
H1891 C1918 0.950 . S
H1892 C1921 0.950 . S
H1893 C1922 0.950 . S
H1894 C1924 0.950 . S
H1895 C1925 0.950 . S
C1896 H1878 0.951 . S
C1896 C1897 1.366 . S
C1896 C1898 1.388 . S
C1897 C1896 1.366 . S
C1897 C1901 1.385 . S
C1898 H1879 0.951 . S
C1898 C1896 1.388 . S
C1898 C1899 1.366 . S
C1899 C1898 1.366 . S
C1899 C1900 1.414 . S
C1899 C1902 1.499 1_455 S
C1900 H1880 0.950 . S
C1900 C1899 1.414 . S
C1900 C1901 1.374 . S
C1901 H1881 0.950 . S
C1901 C1897 1.385 . S
C1901 C1900 1.374 . S
C1902 C1899 1.499 1_655 S
C1902 C1903 1.373 . S
C1902 C1904 1.389 . S
C1903 H1882 0.950 . S
C1903 C1902 1.373 . S
C1903 C1919 1.377 . S
C1904 C1902 1.389 . S
C1904 C1905 1.524 . S
C1904 C1918 1.377 . S
C1905 C1904 1.524 . S
C1905 C1906 1.397 1_655 S
C1905 C1910 1.363 . S
C1906 H1883 0.950 . S
C1906 C1905 1.397 1_455 S
C1906 C1907 1.334 . S
C1907 H1884 0.950 . S
C1907 C1906 1.334 . S
C1907 C1908 1.287 . S
C1908 C1907 1.287 . S
C1908 C1909 1.524 . S
C1908 H1927 0.913 . S
C1909 H1885 0.950 . S
C1909 C1908 1.524 . S
C1909 C1910 1.415 1_455 S
C1910 H1886 0.950 . S
C1910 C1905 1.363 . S
C1910 C1909 1.415 1_655 S
C1911 H1887 0.951 . S
C1911 C1912 1.366 . S
C1911 C1913 1.388 . S
C1912 C1911 1.366 . S
C1912 C1916 1.385 . S
C1913 H1888 0.951 . S
C1913 C1911 1.388 . S
C1913 C1914 1.366 . S
C1914 C1913 1.366 . S
C1914 C1915 1.414 . S
C1914 C1917 1.499 . S
C1915 H1889 0.950 . S
C1915 C1914 1.414 . S
C1915 C1916 1.374 . S
C1916 H1890 0.950 . S
C1916 C1912 1.385 . S
C1916 C1915 1.374 . S
C1917 C1914 1.499 . S
C1917 C1918 1.373 . S
C1917 C1919 1.389 . S
C1918 H1891 0.950 . S
C1918 C1904 1.377 . S
C1918 C1917 1.373 . S
C1919 C1903 1.377 . S
C1919 C1917 1.389 . S
C1919 C1920 1.524 . S
C1920 C1919 1.524 . S
C1920 C1921 1.397 . S
C1920 C1925 1.363 . S
C1921 H1892 0.950 . S
C1921 C1920 1.397 . S
C1921 C1922 1.334 . S
C1922 H1893 0.950 . S
C1922 C1921 1.334 . S
C1922 C1923 1.287 . S
C1923 C1922 1.287 . S
C1923 C1924 1.524 . S
C1923 H1926 0.999 . S
C1924 H1894 0.950 . S
C1924 C1923 1.524 . S
C1924 C1925 1.415 . S
C1925 H1895 0.950 . S
C1925 C1920 1.363 . S
C1925 C1924 1.415 . S
H1926 C1923 0.999 . S
H1927 C1908 0.913 . S
H1928 C1946 0.951 . S
H1929 C1948 0.951 . S
H1930 C1950 0.950 . S
H1931 C1951 0.950 . S
H1932 C1953 0.950 . S
H1933 C1956 0.950 . S
H1934 C1957 0.950 . S
H1935 C1959 0.950 . S
H1936 C1960 0.950 . S
H1937 C1961 0.951 . S
H1938 C1963 0.951 . S
H1939 C1965 0.950 . S
H1940 C1966 0.950 . S
H1941 C1968 0.950 . S
H1942 C1971 0.950 . S
H1943 C1972 0.950 . S
H1944 C1974 0.950 . S
H1945 C1975 0.950 . S
C1946 H1928 0.951 . S
C1946 C1947 1.366 . S
C1946 C1948 1.388 . S
C1947 C1946 1.366 . S
C1947 C1951 1.385 . S
C1948 H1929 0.951 . S
C1948 C1946 1.388 . S
C1948 C1949 1.366 . S
C1949 C1948 1.366 . S
C1949 C1950 1.414 . S
C1949 C1952 1.499 . S
C1950 H1930 0.950 . S
C1950 C1949 1.414 . S
C1950 C1951 1.374 . S
C1951 H1931 0.950 . S
C1951 C1947 1.385 . S
C1951 C1950 1.374 . S
C1952 C1949 1.499 . S
C1952 C1953 1.373 . S
C1952 C1954 1.389 . S
C1953 H1932 0.950 . S
C1953 C1952 1.373 . S
C1953 C1969 1.377 . S
C1954 C1952 1.389 . S
C1954 C1955 1.524 . S
C1954 C1968 1.377 . S
C1955 C1954 1.524 . S
C1955 C1956 1.397 . S
C1955 C1960 1.363 . S
C1956 H1933 0.950 . S
C1956 C1955 1.397 . S
C1956 C1957 1.334 . S
C1957 H1934 0.950 . S
C1957 C1956 1.334 . S
C1957 C1958 1.287 . S
C1958 C1957 1.287 . S
C1958 C1959 1.524 . S
C1958 H1977 0.913 . S
C1959 H1935 0.950 . S
C1959 C1958 1.524 . S
C1959 C1960 1.415 . S
C1960 H1936 0.950 . S
C1960 C1955 1.363 . S
C1960 C1959 1.415 . S
C1961 H1937 0.951 . S
C1961 C1962 1.366 . S
C1961 C1963 1.388 . S
C1962 C1961 1.366 . S
C1962 C1966 1.385 . S
C1963 H1938 0.951 . S
C1963 C1961 1.388 . S
C1963 C1964 1.366 . S
C1964 C1963 1.366 . S
C1964 C1965 1.414 . S
C1964 C1967 1.499 . S
C1965 H1939 0.950 . S
C1965 C1964 1.414 . S
C1965 C1966 1.374 . S
C1966 H1940 0.950 . S
C1966 C1962 1.385 . S
C1966 C1965 1.374 . S
C1967 C1964 1.499 . S
C1967 C1968 1.373 . S
C1967 C1969 1.389 . S
C1968 H1941 0.950 . S
C1968 C1954 1.377 . S
C1968 C1967 1.373 . S
C1969 C1953 1.377 . S
C1969 C1967 1.389 . S
C1969 C1970 1.524 . S
C1970 C1969 1.524 . S
C1970 C1971 1.397 . S
C1970 C1975 1.363 . S
C1971 H1942 0.950 . S
C1971 C1970 1.397 . S
C1971 C1972 1.334 . S
C1972 H1943 0.950 . S
C1972 C1971 1.334 . S
C1972 C1973 1.287 . S
C1973 C1972 1.287 . S
C1973 C1974 1.524 . S
C1973 H1976 0.999 . S
C1974 H1944 0.950 . S
C1974 C1973 1.524 . S
C1974 C1975 1.415 . S
C1975 H1945 0.950 . S
C1975 C1970 1.363 . S
C1975 C1974 1.415 . S
H1976 C1973 0.999 . S
H1977 C1958 0.913 . S
H1978 C1996 0.951 . S
H1979 C1998 0.951 . S
H1980 C2000 0.950 . S
H1981 C2001 0.950 . S
H1982 C2003 0.950 . S
H1983 C2006 0.950 . S
H1984 C2007 0.950 . S
H1985 C2009 0.950 . S
H1986 C2010 0.950 . S
H1987 C2011 0.951 . S
H1988 C2013 0.951 . S
H1989 C2015 0.950 . S
H1990 C2016 0.950 . S
H1991 C2018 0.950 . S
H1992 C2021 0.950 . S
H1993 C2022 0.950 . S
H1994 C2024 0.950 . S
H1995 C2025 0.950 . S
C1996 H1978 0.951 . S
C1996 C1997 1.366 . S
C1996 C1998 1.388 . S
C1997 C1996 1.366 . S
C1997 C2001 1.385 . S
C1998 H1979 0.951 . S
C1998 C1996 1.388 . S
C1998 C1999 1.366 . S
C1999 C1998 1.366 . S
C1999 C2000 1.414 . S
C1999 C2002 1.499 1_565 S
C2000 H1980 0.950 . S
C2000 C1999 1.414 . S
C2000 C2001 1.374 . S
C2001 H1981 0.950 . S
C2001 C1997 1.385 . S
C2001 C2000 1.374 . S
C2002 C1999 1.499 1_545 S
C2002 C2003 1.373 . S
C2002 C2004 1.389 . S
C2003 H1982 0.950 . S
C2003 C2002 1.373 . S
C2003 C2019 1.377 . S
C2004 C2002 1.389 . S
C2004 C2005 1.524 . S
C2004 C2018 1.377 . S
C2005 C2004 1.524 . S
C2005 C2006 1.397 1_545 S
C2005 C2010 1.363 . S
C2006 H1983 0.950 . S
C2006 C2005 1.397 1_565 S
C2006 C2007 1.334 . S
C2007 H1984 0.950 . S
C2007 C2006 1.334 . S
C2007 C2008 1.287 . S
C2008 C2007 1.287 . S
C2008 C2009 1.524 . S
C2008 H2027 0.913 . S
C2009 H1985 0.950 . S
C2009 C2008 1.524 . S
C2009 C2010 1.415 1_565 S
C2010 H1986 0.950 . S
C2010 C2005 1.363 . S
C2010 C2009 1.415 1_545 S
C2011 H1987 0.951 . S
C2011 C2012 1.366 . S
C2011 C2013 1.388 . S
C2012 C2011 1.366 . S
C2012 C2016 1.385 . S
C2013 H1988 0.951 . S
C2013 C2011 1.388 . S
C2013 C2014 1.366 . S
C2014 C2013 1.366 . S
C2014 C2015 1.414 . S
C2014 C2017 1.499 . S
C2015 H1989 0.950 . S
C2015 C2014 1.414 . S
C2015 C2016 1.374 . S
C2016 H1990 0.950 . S
C2016 C2012 1.385 . S
C2016 C2015 1.374 . S
C2017 C2014 1.499 . S
C2017 C2018 1.373 . S
C2017 C2019 1.389 . S
C2018 H1991 0.950 . S
C2018 C2004 1.377 . S
C2018 C2017 1.373 . S
C2019 C2003 1.377 . S
C2019 C2017 1.389 . S
C2019 C2020 1.524 . S
C2020 C2019 1.524 . S
C2020 C2021 1.397 . S
C2020 C2025 1.363 . S
C2021 H1992 0.950 . S
C2021 C2020 1.397 . S
C2021 C2022 1.334 . S
C2022 H1993 0.950 . S
C2022 C2021 1.334 . S
C2022 C2023 1.287 . S
C2023 C2022 1.287 . S
C2023 C2024 1.524 . S
C2023 H2026 0.999 . S
C2024 H1994 0.950 . S
C2024 C2023 1.524 . S
C2024 C2025 1.415 . S
C2025 H1995 0.950 . S
C2025 C2020 1.363 . S
C2025 C2024 1.415 . S
H2026 C2023 0.999 . S
H2027 C2008 0.913 . S
H2028 C2046 0.951 . S
H2029 C2048 0.951 . S
H2030 C2050 0.950 . S
H2031 C2051 0.950 . S
H2032 C2053 0.950 . S
H2033 C2056 0.950 . S
H2034 C2057 0.950 . S
H2035 C2059 0.950 . S
H2036 C2060 0.950 . S
H2037 C2061 0.951 . S
H2038 C2063 0.951 . S
H2039 C2065 0.950 . S
H2040 C2066 0.950 . S
H2041 C2068 0.950 . S
H2042 C2071 0.950 . S
H2043 C2072 0.950 . S
H2044 C2074 0.950 . S
H2045 C2075 0.950 . S
C2046 H2028 0.951 . S
C2046 C2047 1.366 . S
C2046 C2048 1.388 . S
C2047 C2046 1.366 . S
C2047 C2051 1.385 . S
C2048 H2029 0.951 . S
C2048 C2046 1.388 . S
C2048 C2049 1.366 . S
C2049 C2048 1.366 . S
C2049 C2050 1.414 . S
C2049 C2052 1.499 . S
C2050 H2030 0.950 . S
C2050 C2049 1.414 . S
C2050 C2051 1.374 . S
C2051 H2031 0.950 . S
C2051 C2047 1.385 . S
C2051 C2050 1.374 . S
C2052 C2049 1.499 . S
C2052 C2053 1.373 . S
C2052 C2054 1.389 . S
C2053 H2032 0.950 . S
C2053 C2052 1.373 . S
C2053 C2069 1.377 . S
C2054 C2052 1.389 . S
C2054 C2055 1.524 . S
C2054 C2068 1.377 . S
C2055 C2054 1.524 . S
C2055 C2056 1.397 . S
C2055 C2060 1.363 . S
C2056 H2033 0.950 . S
C2056 C2055 1.397 . S
C2056 C2057 1.334 . S
C2057 H2034 0.950 . S
C2057 C2056 1.334 . S
C2057 C2058 1.287 . S
C2058 C2057 1.287 . S
C2058 C2059 1.524 . S
C2058 H2077 0.913 . S
C2059 H2035 0.950 . S
C2059 C2058 1.524 . S
C2059 C2060 1.415 . S
C2060 H2036 0.950 . S
C2060 C2055 1.363 . S
C2060 C2059 1.415 . S
C2061 H2037 0.951 . S
C2061 C2062 1.366 . S
C2061 C2063 1.388 . S
C2062 C2061 1.366 . S
C2062 C2066 1.385 . S
C2063 H2038 0.951 . S
C2063 C2061 1.388 . S
C2063 C2064 1.366 . S
C2064 C2063 1.366 . S
C2064 C2065 1.414 . S
C2064 C2067 1.499 . S
C2065 H2039 0.950 . S
C2065 C2064 1.414 . S
C2065 C2066 1.374 . S
C2066 H2040 0.950 . S
C2066 C2062 1.385 . S
C2066 C2065 1.374 . S
C2067 C2064 1.499 . S
C2067 C2068 1.373 . S
C2067 C2069 1.389 . S
C2068 H2041 0.950 . S
C2068 C2054 1.377 . S
C2068 C2067 1.373 . S
C2069 C2053 1.377 . S
C2069 C2067 1.389 . S
C2069 C2070 1.524 . S
C2070 C2069 1.524 . S
C2070 C2071 1.397 . S
C2070 C2075 1.363 . S
C2071 H2042 0.950 . S
C2071 C2070 1.397 . S
C2071 C2072 1.334 . S
C2072 H2043 0.950 . S
C2072 C2071 1.334 . S
C2072 C2073 1.287 . S
C2073 C2072 1.287 . S
C2073 C2074 1.524 . S
C2073 H2076 0.999 . S
C2074 H2044 0.950 . S
C2074 C2073 1.524 . S
C2074 C2075 1.415 . S
C2075 H2045 0.950 . S
C2075 C2070 1.363 . S
C2075 C2074 1.415 . S
H2076 C2073 0.999 . S
H2077 C2058 0.913 . S
H2078 C2096 0.951 . S
H2079 C2098 0.951 . S
H2080 C2100 0.950 . S
H2081 C2101 0.950 . S
H2082 C2103 0.950 . S
H2083 C2106 0.950 . S
H2084 C2107 0.950 . S
H2085 C2109 0.950 . S
H2086 C2110 0.950 . S
H2087 C2111 0.951 . S
H2088 C2113 0.951 . S
H2089 C2115 0.950 . S
H2090 C2116 0.950 . S
H2091 C2118 0.950 . S
H2092 C2121 0.950 . S
H2093 C2122 0.950 . S
H2094 C2124 0.950 . S
H2095 C2125 0.950 . S
C2096 H2078 0.951 . S
C2096 C2097 1.366 . S
C2096 C2098 1.388 . S
C2097 C2096 1.366 . S
C2097 C2101 1.385 . S
C2098 H2079 0.951 . S
C2098 C2096 1.388 . S
C2098 C2099 1.366 . S
C2099 C2098 1.366 . S
C2099 C2100 1.414 . S
C2099 C2102 1.499 . S
C2100 H2080 0.950 . S
C2100 C2099 1.414 . S
C2100 C2101 1.374 . S
C2101 H2081 0.950 . S
C2101 C2097 1.385 . S
C2101 C2100 1.374 . S
C2102 C2099 1.499 . S
C2102 C2103 1.373 . S
C2102 C2104 1.389 . S
C2103 H2082 0.950 . S
C2103 C2102 1.373 . S
C2103 C2119 1.377 . S
C2104 C2102 1.389 . S
C2104 C2105 1.524 . S
C2104 C2118 1.377 . S
C2105 C2104 1.524 . S
C2105 C2106 1.397 . S
C2105 C2110 1.363 . S
C2106 H2083 0.950 . S
C2106 C2105 1.397 . S
C2106 C2107 1.334 . S
C2107 H2084 0.950 . S
C2107 C2106 1.334 . S
C2107 C2108 1.287 . S
C2108 C2107 1.287 . S
C2108 C2109 1.524 . S
C2108 H2127 0.913 . S
C2109 H2085 0.950 . S
C2109 C2108 1.524 . S
C2109 C2110 1.415 . S
C2110 H2086 0.950 . S
C2110 C2105 1.363 . S
C2110 C2109 1.415 . S
C2111 H2087 0.951 . S
C2111 C2112 1.366 . S
C2111 C2113 1.388 . S
C2112 C2111 1.366 . S
C2112 C2116 1.385 . S
C2113 H2088 0.951 . S
C2113 C2111 1.388 . S
C2113 C2114 1.366 . S
C2114 C2113 1.366 . S
C2114 C2115 1.414 . S
C2114 C2117 1.499 . S
C2115 H2089 0.950 . S
C2115 C2114 1.414 . S
C2115 C2116 1.374 . S
C2116 H2090 0.950 . S
C2116 C2112 1.385 . S
C2116 C2115 1.374 . S
C2117 C2114 1.499 . S
C2117 C2118 1.373 . S
C2117 C2119 1.389 . S
C2118 H2091 0.950 . S
C2118 C2104 1.377 . S
C2118 C2117 1.373 . S
C2119 C2103 1.377 . S
C2119 C2117 1.389 . S
C2119 C2120 1.524 . S
C2120 C2119 1.524 . S
C2120 C2121 1.397 . S
C2120 C2125 1.363 . S
C2121 H2092 0.950 . S
C2121 C2120 1.397 . S
C2121 C2122 1.334 . S
C2122 H2093 0.950 . S
C2122 C2121 1.334 . S
C2122 C2123 1.287 . S
C2123 C2122 1.287 . S
C2123 C2124 1.524 . S
C2123 H2126 0.999 . S
C2124 H2094 0.950 . S
C2124 C2123 1.524 . S
C2124 C2125 1.415 . S
C2125 H2095 0.950 . S
C2125 C2120 1.363 . S
C2125 C2124 1.415 . S
H2126 C2123 0.999 . S
H2127 C2108 0.913 . S
H2128 C2146 0.951 . S
H2129 C2148 0.951 . S
H2130 C2150 0.950 . S
H2131 C2151 0.950 . S
H2132 C2153 0.950 . S
H2133 C2156 0.950 . S
H2134 C2157 0.950 . S
H2135 C2159 0.950 . S
H2136 C2160 0.950 . S
H2137 C2161 0.951 . S
H2138 C2163 0.951 . S
H2139 C2165 0.950 . S
H2140 C2166 0.950 . S
H2141 C2168 0.950 . S
H2142 C2171 0.950 . S
H2143 C2172 0.950 . S
H2144 C2174 0.950 . S
H2145 C2175 0.950 . S
C2146 H2128 0.951 . S
C2146 C2147 1.366 . S
C2146 C2148 1.388 . S
C2147 C2146 1.366 . S
C2147 C2151 1.385 . S
C2148 H2129 0.951 . S
C2148 C2146 1.388 . S
C2148 C2149 1.366 . S
C2149 C2148 1.366 . S
C2149 C2150 1.414 . S
C2149 C2152 1.499 . S
C2150 H2130 0.950 . S
C2150 C2149 1.414 . S
C2150 C2151 1.374 . S
C2151 H2131 0.950 . S
C2151 C2147 1.385 . S
C2151 C2150 1.374 . S
C2152 C2149 1.499 . S
C2152 C2153 1.373 . S
C2152 C2154 1.389 . S
C2153 H2132 0.950 . S
C2153 C2152 1.373 . S
C2153 C2169 1.377 . S
C2154 C2152 1.389 . S
C2154 C2155 1.524 . S
C2154 C2168 1.377 . S
C2155 C2154 1.524 . S
C2155 C2156 1.397 . S
C2155 C2160 1.363 . S
C2156 H2133 0.950 . S
C2156 C2155 1.397 . S
C2156 C2157 1.334 . S
C2157 H2134 0.950 . S
C2157 C2156 1.334 . S
C2157 C2158 1.287 . S
C2158 C2157 1.287 . S
C2158 C2159 1.524 . S
C2158 H2177 0.913 . S
C2159 H2135 0.950 . S
C2159 C2158 1.524 . S
C2159 C2160 1.415 . S
C2160 H2136 0.950 . S
C2160 C2155 1.363 . S
C2160 C2159 1.415 . S
C2161 H2137 0.951 . S
C2161 C2162 1.366 . S
C2161 C2163 1.388 . S
C2162 C2161 1.366 . S
C2162 C2166 1.385 . S
C2163 H2138 0.951 . S
C2163 C2161 1.388 . S
C2163 C2164 1.366 . S
C2164 C2163 1.366 . S
C2164 C2165 1.414 . S
C2164 C2167 1.499 . S
C2165 H2139 0.950 . S
C2165 C2164 1.414 . S
C2165 C2166 1.374 . S
C2166 H2140 0.950 . S
C2166 C2162 1.385 . S
C2166 C2165 1.374 . S
C2167 C2164 1.499 . S
C2167 C2168 1.373 . S
C2167 C2169 1.389 . S
C2168 H2141 0.950 . S
C2168 C2154 1.377 . S
C2168 C2167 1.373 . S
C2169 C2153 1.377 . S
C2169 C2167 1.389 . S
C2169 C2170 1.524 . S
C2170 C2169 1.524 . S
C2170 C2171 1.397 . S
C2170 C2175 1.363 . S
C2171 H2142 0.950 . S
C2171 C2170 1.397 . S
C2171 C2172 1.334 . S
C2172 H2143 0.950 . S
C2172 C2171 1.334 . S
C2172 C2173 1.287 . S
C2173 C2172 1.287 . S
C2173 C2174 1.524 . S
C2173 H2176 0.999 . S
C2174 H2144 0.950 . S
C2174 C2173 1.524 . S
C2174 C2175 1.415 . S
C2175 H2145 0.950 . S
C2175 C2170 1.363 . S
C2175 C2174 1.415 . S
H2176 C2173 0.999 . S
H2177 C2158 0.913 . S
H2178 C2196 0.951 . S
H2179 C2198 0.951 . S
H2180 C2200 0.950 . S
H2181 C2201 0.950 . S
H2182 C2203 0.950 . S
H2183 C2206 0.950 . S
H2184 C2207 0.950 . S
H2185 C2209 0.950 1_545 S
H2186 C2210 0.950 . S
H2187 C2211 0.951 . S
H2188 C2213 0.951 . S
H2189 C2215 0.950 1_545 S
H2190 C2216 0.973 . S
H2191 C2218 0.950 . S
H2192 C2221 0.950 . S
H2193 C2222 0.950 . S
H2194 C2224 0.950 . S
H2195 C2225 0.950 . S
C2196 H2178 0.951 . S
C2196 C2197 1.366 . S
C2196 C2198 1.388 . S
C2197 C2196 1.366 . S
C2197 C2201 1.385 . S
C2198 H2179 0.951 . S
C2198 C2196 1.388 . S
C2198 C2199 1.366 . S
C2199 C2198 1.366 . S
C2199 C2200 1.414 . S
C2199 C2202 1.499 . S
C2200 H2180 0.950 . S
C2200 C2199 1.414 . S
C2200 C2201 1.374 . S
C2201 H2181 0.950 . S
C2201 C2197 1.385 . S
C2201 C2200 1.374 . S
C2202 C2199 1.499 . S
C2202 C2203 1.373 . S
C2202 C2204 1.389 . S
C2203 H2182 0.950 . S
C2203 C2202 1.373 . S
C2203 C2219 1.377 . S
C2204 C2202 1.389 . S
C2204 C2205 1.524 . S
C2204 C2218 1.377 . S
C2205 C2204 1.524 . S
C2205 C2206 1.397 . S
C2205 C2210 1.363 . S
C2206 H2183 0.950 . S
C2206 C2205 1.397 . S
C2206 C2207 1.334 . S
C2207 H2184 0.950 . S
C2207 C2206 1.334 . S
C2207 C2208 1.287 . S
C2208 C2207 1.287 . S
C2208 C2209 1.524 . S
C2208 H2227 0.913 . S
C2209 H2185 0.950 1_565 S
C2209 C2208 1.524 . S
C2209 C2210 1.415 . S
C2210 H2186 0.950 . S
C2210 C2205 1.363 . S
C2210 C2209 1.415 . S
C2211 H2187 0.951 . S
C2211 C2212 1.366 . S
C2211 C2213 1.388 . S
C2212 C2211 1.366 . S
C2212 C2216 1.371 1_565 S
C2213 H2188 0.951 . S
C2213 C2211 1.388 . S
C2213 C2214 1.366 . S
C2214 C2213 1.366 . S
C2214 C2215 1.414 . S
C2214 C2217 1.499 . S
C2215 H2189 0.950 1_565 S
C2215 C2214 1.414 . S
C2215 C2216 1.365 1_565 S
C2216 H2190 0.973 . S
C2216 C2212 1.371 1_545 S
C2216 C2215 1.365 1_545 S
C2217 C2214 1.499 . S
C2217 C2218 1.373 . S
C2217 C2219 1.389 . S
C2218 H2191 0.950 . S
C2218 C2204 1.377 . S
C2218 C2217 1.373 . S
C2219 C2203 1.377 . S
C2219 C2217 1.389 . S
C2219 C2220 1.524 . S
C2220 C2219 1.524 . S
C2220 C2221 1.397 . S
C2220 C2225 1.363 . S
C2221 H2192 0.950 . S
C2221 C2220 1.397 . S
C2221 C2222 1.334 . S
C2222 H2193 0.950 . S
C2222 C2221 1.334 . S
C2222 C2223 1.287 . S
C2223 C2222 1.287 . S
C2223 C2224 1.524 . S
C2223 H2226 0.999 . S
C2224 H2194 0.950 . S
C2224 C2223 1.524 . S
C2224 C2225 1.415 . S
C2225 H2195 0.950 . S
C2225 C2220 1.363 . S
C2225 C2224 1.415 . S
H2226 C2223 0.999 . S
H2227 C2208 0.913 . S
H2228 C2246 0.951 . S
H2229 C2248 0.951 . S
H2230 C2250 0.950 . S
H2231 C2251 0.950 . S
H2232 C2253 0.950 . S
H2233 C2256 0.950 . S
H2234 C2257 0.950 . S
H2235 C2259 0.950 . S
H2236 C2260 0.950 . S
H2237 C2261 0.951 . S
H2238 C2263 0.951 . S
H2239 C2265 0.950 . S
H2240 C2266 0.950 . S
H2241 C2268 0.950 . S
H2242 C2271 0.950 . S
H2243 C2272 0.950 . S
H2244 C2274 0.939 1_655 S
H2245 C2275 0.950 . S
C2246 H2228 0.951 . S
C2246 C2247 1.366 . S
C2246 C2248 1.388 . S
C2247 C2246 1.366 . S
C2247 C2251 1.385 . S
C2248 H2229 0.951 . S
C2248 C2246 1.388 . S
C2248 C2249 1.366 . S
C2249 C2248 1.366 . S
C2249 C2250 1.414 . S
C2249 C2252 1.499 . S
C2250 H2230 0.950 . S
C2250 C2249 1.414 . S
C2250 C2251 1.374 . S
C2251 H2231 0.950 . S
C2251 C2247 1.385 . S
C2251 C2250 1.374 . S
C2252 C2249 1.499 . S
C2252 C2253 1.373 . S
C2252 C2254 1.389 . S
C2253 H2232 0.950 . S
C2253 C2252 1.373 . S
C2253 C2269 1.377 . S
C2254 C2252 1.389 . S
C2254 C2255 1.524 . S
C2254 C2268 1.377 . S
C2255 C2254 1.524 . S
C2255 C2256 1.397 . S
C2255 C2260 1.363 . S
C2256 H2233 0.950 . S
C2256 C2255 1.397 . S
C2256 C2257 1.334 . S
C2257 H2234 0.950 . S
C2257 C2256 1.334 . S
C2257 C2258 1.287 . S
C2258 C2257 1.287 . S
C2258 C2259 1.524 . S
C2258 H2277 0.913 . S
C2259 H2235 0.950 . S
C2259 C2258 1.524 . S
C2259 C2260 1.415 . S
C2260 H2236 0.950 . S
C2260 C2255 1.363 . S
C2260 C2259 1.415 . S
C2261 H2237 0.951 . S
C2261 C2262 1.366 . S
C2261 C2263 1.388 . S
C2262 C2261 1.366 . S
C2262 C2266 1.385 . S
C2263 H2238 0.951 . S
C2263 C2261 1.388 . S
C2263 C2264 1.366 . S
C2264 C2263 1.366 . S
C2264 C2265 1.414 . S
C2264 C2267 1.499 . S
C2265 H2239 0.950 . S
C2265 C2264 1.414 . S
C2265 C2266 1.374 . S
C2266 H2240 0.950 . S
C2266 C2262 1.385 . S
C2266 C2265 1.374 . S
C2267 C2264 1.499 . S
C2267 C2268 1.373 . S
C2267 C2269 1.389 . S
C2268 H2241 0.950 . S
C2268 C2254 1.377 . S
C2268 C2267 1.373 . S
C2269 C2253 1.377 . S
C2269 C2267 1.389 . S
C2269 C2270 1.524 . S
C2270 C2269 1.524 . S
C2270 C2271 1.397 . S
C2270 C2275 1.363 . S
C2271 H2242 0.950 . S
C2271 C2270 1.397 . S
C2271 C2272 1.334 . S
C2272 H2243 0.950 . S
C2272 C2271 1.334 . S
C2272 C2273 1.287 . S
C2273 C2272 1.287 . S
C2273 C2274 1.534 . S
C2273 H2276 0.999 1_455 S
C2274 H2244 0.939 1_455 S
C2274 C2273 1.534 . S
C2274 C2275 1.417 . S
C2275 H2245 0.950 . S
C2275 C2270 1.363 . S
C2275 C2274 1.417 . S
H2276 C2273 0.999 1_655 S
H2277 C2258 0.913 . S
H2278 C2296 0.951 . S
H2279 C2298 0.951 . S
H2280 C2300 0.950 . S
H2281 C2301 0.950 . S
H2282 C2303 0.950 . S
H2283 C2306 0.950 . S
H2284 C2307 0.950 . S
H2285 C2309 0.950 . S
H2286 C2310 0.950 . S
H2287 C2311 0.951 . S
H2288 C2313 0.951 . S
H2289 C2315 0.950 . S
H2290 C2316 0.950 . S
H2291 C2318 0.950 . S
H2292 C2321 0.950 . S
H2293 C2322 0.950 . S
H2294 C2324 0.950 . S
H2295 C2325 0.950 . S
C2296 H2278 0.951 . S
C2296 C2297 1.366 . S
C2296 C2298 1.388 . S
C2297 C2296 1.366 . S
C2297 C2301 1.385 . S
C2298 H2279 0.951 . S
C2298 C2296 1.388 . S
C2298 C2299 1.366 . S
C2299 C2298 1.366 . S
C2299 C2300 1.414 . S
C2299 C2302 1.499 . S
C2300 H2280 0.950 . S
C2300 C2299 1.414 . S
C2300 C2301 1.374 . S
C2301 H2281 0.950 . S
C2301 C2297 1.385 . S
C2301 C2300 1.374 . S
C2302 C2299 1.499 . S
C2302 C2303 1.373 . S
C2302 C2304 1.389 . S
C2303 H2282 0.950 . S
C2303 C2302 1.373 . S
C2303 C2319 1.377 . S
C2304 C2302 1.389 . S
C2304 C2305 1.524 . S
C2304 C2318 1.377 . S
C2305 C2304 1.524 . S
C2305 C2306 1.397 . S
C2305 C2310 1.363 . S
C2306 H2283 0.950 . S
C2306 C2305 1.397 . S
C2306 C2307 1.334 . S
C2307 H2284 0.950 . S
C2307 C2306 1.334 . S
C2307 C2308 1.287 . S
C2308 C2307 1.287 . S
C2308 C2309 1.524 . S
C2308 H2327 0.913 . S
C2309 H2285 0.950 . S
C2309 C2308 1.524 . S
C2309 C2310 1.415 . S
C2310 H2286 0.950 . S
C2310 C2305 1.363 . S
C2310 C2309 1.415 . S
C2311 H2287 0.951 . S
C2311 C2312 1.366 . S
C2311 C2313 1.388 . S
C2312 C2311 1.366 . S
C2312 C2316 1.385 . S
C2313 H2288 0.951 . S
C2313 C2311 1.388 . S
C2313 C2314 1.366 . S
C2314 C2313 1.366 . S
C2314 C2315 1.414 . S
C2314 C2317 1.499 . S
C2315 H2289 0.950 . S
C2315 C2314 1.414 . S
C2315 C2316 1.374 . S
C2316 H2290 0.950 . S
C2316 C2312 1.385 . S
C2316 C2315 1.374 . S
C2317 C2314 1.499 . S
C2317 C2318 1.373 . S
C2317 C2319 1.389 . S
C2318 H2291 0.950 . S
C2318 C2304 1.377 . S
C2318 C2317 1.373 . S
C2319 C2303 1.377 . S
C2319 C2317 1.389 . S
C2319 C2320 1.524 . S
C2320 C2319 1.524 . S
C2320 C2321 1.397 . S
C2320 C2325 1.363 . S
C2321 H2292 0.950 . S
C2321 C2320 1.397 . S
C2321 C2322 1.334 . S
C2322 H2293 0.950 . S
C2322 C2321 1.334 . S
C2322 C2323 1.287 . S
C2323 C2322 1.287 . S
C2323 C2324 1.524 . S
C2323 H2326 0.999 . S
C2324 H2294 0.950 . S
C2324 C2323 1.524 . S
C2324 C2325 1.415 . S
C2325 H2295 0.950 . S
C2325 C2320 1.363 . S
C2325 C2324 1.415 . S
H2326 C2323 0.999 . S
H2327 C2308 0.913 . S
H2328 C2346 0.951 . S
H2329 C2348 0.951 . S
H2330 C2350 0.950 . S
H2331 C2351 0.950 . S
H2332 C2353 0.950 . S
H2333 C2356 0.950 . S
H2334 C2357 0.950 . S
H2335 C2359 0.950 . S
H2336 C2360 0.950 . S
H2337 C2361 0.951 1_455 S
H2338 C2363 0.950 1_455 S
H2339 C2365 0.950 . S
H2340 C2366 0.950 . S
H2341 C2368 0.950 . S
H2342 C2371 0.950 . S
H2343 C2372 0.950 . S
H2344 C2374 0.950 . S
H2345 C2375 0.953 . S
C2346 H2328 0.951 . S
C2346 C2347 1.366 . S
C2346 C2348 1.388 . S
C2347 C2346 1.366 . S
C2347 C2351 1.385 . S
C2348 H2329 0.951 . S
C2348 C2346 1.388 . S
C2348 C2349 1.366 . S
C2349 C2348 1.366 . S
C2349 C2350 1.414 . S
C2349 C2352 1.499 . S
C2350 H2330 0.950 . S
C2350 C2349 1.414 . S
C2350 C2351 1.374 . S
C2351 H2331 0.950 . S
C2351 C2347 1.385 . S
C2351 C2350 1.374 . S
C2352 C2349 1.499 . S
C2352 C2353 1.373 . S
C2352 C2354 1.389 . S
C2353 H2332 0.950 . S
C2353 C2352 1.373 . S
C2353 C2369 1.377 . S
C2354 C2352 1.389 . S
C2354 C2355 1.524 . S
C2354 C2368 1.377 . S
C2355 C2354 1.524 . S
C2355 C2356 1.397 . S
C2355 C2360 1.363 . S
C2356 H2333 0.950 . S
C2356 C2355 1.397 . S
C2356 C2357 1.334 . S
C2357 H2334 0.950 . S
C2357 C2356 1.334 . S
C2357 C2358 1.287 . S
C2358 C2357 1.287 . S
C2358 C2359 1.524 . S
C2358 H2377 0.913 . S
C2359 H2335 0.950 . S
C2359 C2358 1.524 . S
C2359 C2360 1.415 . S
C2360 H2336 0.950 . S
C2360 C2355 1.363 . S
C2360 C2359 1.415 . S
C2361 H2337 0.951 1_655 S
C2361 C2362 1.366 . S
C2361 C2363 1.388 . S
C2362 C2361 1.366 . S
C2362 C2366 1.385 . S
C2363 H2338 0.950 1_655 S
C2363 C2361 1.388 . S
C2363 C2364 1.366 . S
C2364 C2363 1.366 . S
C2364 C2365 1.414 . S
C2364 C2367 1.499 . S
C2365 H2339 0.950 . S
C2365 C2364 1.414 . S
C2365 C2366 1.374 . S
C2366 H2340 0.950 . S
C2366 C2362 1.385 . S
C2366 C2365 1.374 . S
C2367 C2364 1.499 . S
C2367 C2368 1.373 . S
C2367 C2369 1.389 . S
C2368 H2341 0.950 . S
C2368 C2354 1.377 . S
C2368 C2367 1.373 . S
C2369 C2353 1.377 . S
C2369 C2367 1.389 . S
C2369 C2370 1.524 . S
C2370 C2369 1.524 . S
C2370 C2371 1.397 . S
C2370 C2375 1.363 . S
C2371 H2342 0.950 . S
C2371 C2370 1.397 . S
C2371 C2372 1.334 . S
C2372 H2343 0.950 . S
C2372 C2371 1.334 . S
C2372 C2373 1.287 . S
C2373 C2372 1.287 . S
C2373 C2374 1.524 1_655 S
C2373 H2376 0.999 . S
C2374 H2344 0.950 . S
C2374 C2373 1.524 1_455 S
C2374 C2375 1.415 1_455 S
C2375 H2345 0.953 . S
C2375 C2370 1.363 . S
C2375 C2374 1.415 1_655 S
H2376 C2373 0.999 . S
H2377 C2358 0.913 . S
H2378 C2396 0.951 . S
H2379 C2398 0.951 . S
H2380 C2400 0.950 . S
H2381 C2401 0.950 . S
H2382 C2403 0.950 . S
H2383 C2406 0.950 . S
H2384 C2407 0.950 . S
H2385 C2409 0.950 . S
H2386 C2410 0.950 . S
H2387 C2411 0.951 . S
H2388 C2413 0.951 . S
H2389 C2415 0.950 . S
H2390 C2416 0.950 . S
H2391 C2418 0.950 . S
H2392 C2421 0.950 . S
H2393 C2422 0.950 . S
H2394 C2424 0.950 . S
H2395 C2425 0.950 . S
C2396 H2378 0.951 . S
C2396 C2397 1.366 . S
C2396 C2398 1.388 . S
C2397 C2396 1.366 . S
C2397 C2401 1.385 . S
C2398 H2379 0.951 . S
C2398 C2396 1.388 . S
C2398 C2399 1.366 . S
C2399 C2398 1.366 . S
C2399 C2400 1.414 . S
C2399 C2402 1.499 . S
C2400 H2380 0.950 . S
C2400 C2399 1.414 . S
C2400 C2401 1.374 . S
C2401 H2381 0.950 . S
C2401 C2397 1.385 . S
C2401 C2400 1.374 . S
C2402 C2399 1.499 . S
C2402 C2403 1.373 . S
C2402 C2404 1.389 . S
C2403 H2382 0.950 . S
C2403 C2402 1.373 . S
C2403 C2419 1.377 . S
C2404 C2402 1.389 . S
C2404 C2405 1.524 . S
C2404 C2418 1.377 . S
C2405 C2404 1.524 . S
C2405 C2406 1.397 . S
C2405 C2410 1.363 . S
C2406 H2383 0.950 . S
C2406 C2405 1.397 . S
C2406 C2407 1.334 . S
C2407 H2384 0.950 . S
C2407 C2406 1.334 . S
C2407 C2408 1.287 . S
C2408 C2407 1.287 . S
C2408 C2409 1.524 . S
C2408 H2427 0.913 . S
C2409 H2385 0.950 . S
C2409 C2408 1.524 . S
C2409 C2410 1.415 . S
C2410 H2386 0.950 . S
C2410 C2405 1.363 . S
C2410 C2409 1.415 . S
C2411 H2387 0.951 . S
C2411 C2412 1.366 . S
C2411 C2413 1.388 . S
C2412 C2411 1.366 . S
C2412 C2416 1.385 . S
C2413 H2388 0.951 . S
C2413 C2411 1.388 . S
C2413 C2414 1.366 . S
C2414 C2413 1.366 . S
C2414 C2415 1.414 . S
C2414 C2417 1.499 . S
C2415 H2389 0.950 . S
C2415 C2414 1.414 . S
C2415 C2416 1.374 . S
C2416 H2390 0.950 . S
C2416 C2412 1.385 . S
C2416 C2415 1.374 . S
C2417 C2414 1.499 . S
C2417 C2418 1.373 . S
C2417 C2419 1.389 . S
C2418 H2391 0.950 . S
C2418 C2404 1.377 . S
C2418 C2417 1.373 . S
C2419 C2403 1.377 . S
C2419 C2417 1.389 . S
C2419 C2420 1.524 . S
C2420 C2419 1.524 . S
C2420 C2421 1.397 . S
C2420 C2425 1.363 . S
C2421 H2392 0.950 . S
C2421 C2420 1.397 . S
C2421 C2422 1.334 . S
C2422 H2393 0.950 . S
C2422 C2421 1.334 . S
C2422 C2423 1.287 . S
C2423 C2422 1.287 . S
C2423 C2424 1.524 . S
C2423 H2426 0.999 . S
C2424 H2394 0.950 . S
C2424 C2423 1.524 . S
C2424 C2425 1.415 . S
C2425 H2395 0.950 . S
C2425 C2420 1.363 . S
C2425 C2424 1.415 . S
H2426 C2423 0.999 . S
H2427 C2408 0.913 . S
H2428 C2446 0.951 . S
H2429 C2448 0.951 . S
H2430 C2450 0.950 . S
H2431 C2451 0.950 . S
H2432 C2453 0.950 . S
H2433 C2456 0.950 . S
H2434 C2457 0.950 . S
H2435 C2459 0.950 . S
H2436 C2460 0.950 . S
H2437 C2461 0.951 . S
H2438 C2463 0.951 . S
H2439 C2465 0.956 . S
H2440 C2466 0.950 1_565 S
H2441 C2468 0.950 . S
H2442 C2471 0.950 . S
H2443 C2472 0.950 . S
H2444 C2474 0.950 . S
H2445 C2475 0.950 . S
C2446 H2428 0.951 . S
C2446 C2447 1.366 . S
C2446 C2448 1.388 . S
C2447 C2446 1.366 . S
C2447 C2451 1.385 . S
C2448 H2429 0.951 . S
C2448 C2446 1.388 . S
C2448 C2449 1.366 . S
C2449 C2448 1.366 . S
C2449 C2450 1.414 . S
C2449 C2452 1.499 . S
C2450 H2430 0.950 . S
C2450 C2449 1.414 . S
C2450 C2451 1.374 . S
C2451 H2431 0.950 . S
C2451 C2447 1.385 . S
C2451 C2450 1.374 . S
C2452 C2449 1.499 . S
C2452 C2453 1.373 . S
C2452 C2454 1.389 . S
C2453 H2432 0.950 . S
C2453 C2452 1.373 . S
C2453 C2469 1.377 . S
C2454 C2452 1.389 . S
C2454 C2455 1.524 . S
C2454 C2468 1.377 . S
C2455 C2454 1.524 . S
C2455 C2456 1.397 . S
C2455 C2460 1.363 . S
C2456 H2433 0.950 . S
C2456 C2455 1.397 . S
C2456 C2457 1.334 . S
C2457 H2434 0.950 . S
C2457 C2456 1.334 . S
C2457 C2458 1.287 . S
C2458 C2457 1.287 . S
C2458 C2459 1.524 . S
C2458 H2477 0.913 . S
C2459 H2435 0.950 . S
C2459 C2458 1.524 . S
C2459 C2460 1.415 . S
C2460 H2436 0.950 . S
C2460 C2455 1.363 . S
C2460 C2459 1.415 . S
C2461 H2437 0.951 . S
C2461 C2462 1.366 . S
C2461 C2463 1.388 . S
C2462 C2461 1.366 . S
C2462 C2466 1.385 . S
C2463 H2438 0.951 . S
C2463 C2461 1.388 . S
C2463 C2464 1.366 . S
C2464 C2463 1.366 . S
C2464 C2465 1.414 . S
C2464 C2467 1.499 . S
C2465 H2439 0.956 . S
C2465 C2464 1.414 . S
C2465 C2466 1.374 . S
C2466 H2440 0.950 1_545 S
C2466 C2462 1.385 . S
C2466 C2465 1.374 . S
C2467 C2464 1.499 . S
C2467 C2468 1.373 . S
C2467 C2469 1.389 . S
C2468 H2441 0.950 . S
C2468 C2454 1.377 . S
C2468 C2467 1.373 . S
C2469 C2453 1.377 . S
C2469 C2467 1.389 . S
C2469 C2470 1.524 . S
C2470 C2469 1.524 . S
C2470 C2471 1.397 . S
C2470 C2475 1.363 . S
C2471 H2442 0.950 . S
C2471 C2470 1.397 . S
C2471 C2472 1.334 . S
C2472 H2443 0.950 . S
C2472 C2471 1.334 . S
C2472 C2473 1.287 . S
C2473 C2472 1.287 . S
C2473 C2474 1.524 . S
C2473 H2476 0.999 . S
C2474 H2444 0.950 . S
C2474 C2473 1.524 . S
C2474 C2475 1.415 . S
C2475 H2445 0.950 . S
C2475 C2470 1.363 . S
C2475 C2474 1.415 . S
H2476 C2473 0.999 . S
H2477 C2458 0.913 . S
H2478 C2496 0.951 . S
H2479 C2498 0.951 . S
H2480 C2500 0.950 . S
H2481 C2501 0.950 . S
H2482 C2503 0.950 . S
H2483 C2506 0.950 . S
H2484 C2507 0.950 . S
H2485 C2509 0.950 . S
H2486 C2510 0.950 . S
H2487 C2511 0.951 . S
H2488 C2513 0.951 . S
H2489 C2515 0.950 . S
H2490 C2516 0.950 . S
H2491 C2518 0.950 . S
H2492 C2521 0.950 . S
H2493 C2522 0.950 . S
H2494 C2524 0.950 . S
H2495 C2525 0.950 . S
C2496 H2478 0.951 . S
C2496 C2497 1.366 . S
C2496 C2498 1.388 . S
C2497 C2496 1.366 . S
C2497 C2501 1.385 . S
C2498 H2479 0.951 . S
C2498 C2496 1.388 . S
C2498 C2499 1.366 . S
C2499 C2498 1.366 . S
C2499 C2500 1.414 . S
C2499 C2502 1.499 . S
C2500 H2480 0.950 . S
C2500 C2499 1.414 . S
C2500 C2501 1.374 . S
C2501 H2481 0.950 . S
C2501 C2497 1.385 . S
C2501 C2500 1.374 . S
C2502 C2499 1.499 . S
C2502 C2503 1.373 . S
C2502 C2504 1.389 . S
C2503 H2482 0.950 . S
C2503 C2502 1.373 . S
C2503 C2519 1.377 . S
C2504 C2502 1.389 . S
C2504 C2505 1.524 . S
C2504 C2518 1.377 . S
C2505 C2504 1.524 . S
C2505 C2506 1.397 . S
C2505 C2510 1.363 . S
C2506 H2483 0.950 . S
C2506 C2505 1.397 . S
C2506 C2507 1.334 . S
C2507 H2484 0.950 . S
C2507 C2506 1.334 . S
C2507 C2508 1.287 . S
C2508 C2507 1.287 . S
C2508 C2509 1.524 . S
C2508 H2527 0.913 . S
C2509 H2485 0.950 . S
C2509 C2508 1.524 . S
C2509 C2510 1.415 . S
C2510 H2486 0.950 . S
C2510 C2505 1.363 . S
C2510 C2509 1.415 . S
C2511 H2487 0.951 . S
C2511 C2512 1.366 . S
C2511 C2513 1.388 . S
C2512 C2511 1.366 . S
C2512 C2516 1.385 . S
C2513 H2488 0.951 . S
C2513 C2511 1.388 . S
C2513 C2514 1.366 . S
C2514 C2513 1.366 . S
C2514 C2515 1.414 . S
C2514 C2517 1.499 . S
C2515 H2489 0.950 . S
C2515 C2514 1.414 . S
C2515 C2516 1.374 . S
C2516 H2490 0.950 . S
C2516 C2512 1.385 . S
C2516 C2515 1.374 . S
C2517 C2514 1.499 . S
C2517 C2518 1.373 . S
C2517 C2519 1.389 . S
C2518 H2491 0.950 . S
C2518 C2504 1.377 . S
C2518 C2517 1.373 . S
C2519 C2503 1.377 . S
C2519 C2517 1.389 . S
C2519 C2520 1.524 . S
C2520 C2519 1.524 . S
C2520 C2521 1.397 . S
C2520 C2525 1.363 . S
C2521 H2492 0.950 . S
C2521 C2520 1.397 . S
C2521 C2522 1.334 . S
C2522 H2493 0.950 . S
C2522 C2521 1.334 . S
C2522 C2523 1.287 . S
C2523 C2522 1.287 . S
C2523 C2524 1.524 . S
C2523 H2526 0.999 . S
C2524 H2494 0.950 . S
C2524 C2523 1.524 . S
C2524 C2525 1.415 . S
C2525 H2495 0.950 . S
C2525 C2520 1.363 . S
C2525 C2524 1.415 . S
H2526 C2523 0.999 . S
H2527 C2508 0.913 . S
H2528 C2546 0.951 . S
H2529 C2548 0.951 . S
H2530 C2550 0.950 . S
H2531 C2551 0.950 . S
H2532 C2553 0.950 . S
H2533 C2556 0.950 . S
H2534 C2557 0.950 . S
H2535 C2559 0.950 . S
H2536 C2560 0.950 . S
H2537 C2561 0.951 . S
H2538 C2563 0.951 . S
H2539 C2565 0.950 . S
H2540 C2566 0.950 . S
H2541 C2568 0.950 . S
H2542 C2571 0.950 . S
H2543 C2572 0.950 . S
H2544 C2574 0.950 . S
H2545 C2575 0.950 . S
C2546 H2528 0.951 . S
C2546 C2547 1.366 . S
C2546 C2548 1.388 . S
C2547 C2546 1.366 . S
C2547 C2551 1.385 . S
C2548 H2529 0.951 . S
C2548 C2546 1.388 . S
C2548 C2549 1.366 . S
C2549 C2548 1.366 . S
C2549 C2550 1.414 . S
C2549 C2552 1.499 . S
C2550 H2530 0.950 . S
C2550 C2549 1.414 . S
C2550 C2551 1.374 . S
C2551 H2531 0.950 . S
C2551 C2547 1.385 . S
C2551 C2550 1.374 . S
C2552 C2549 1.499 . S
C2552 C2553 1.373 . S
C2552 C2554 1.389 . S
C2553 H2532 0.950 . S
C2553 C2552 1.373 . S
C2553 C2569 1.377 . S
C2554 C2552 1.389 . S
C2554 C2555 1.524 . S
C2554 C2568 1.377 . S
C2555 C2554 1.524 . S
C2555 C2556 1.397 . S
C2555 C2560 1.363 . S
C2556 H2533 0.950 . S
C2556 C2555 1.397 . S
C2556 C2557 1.334 . S
C2557 H2534 0.950 . S
C2557 C2556 1.334 . S
C2557 C2558 1.287 . S
C2558 C2557 1.287 . S
C2558 C2559 1.524 . S
C2558 H2577 0.913 . S
C2559 H2535 0.950 . S
C2559 C2558 1.524 . S
C2559 C2560 1.415 . S
C2560 H2536 0.950 . S
C2560 C2555 1.363 . S
C2560 C2559 1.415 . S
C2561 H2537 0.951 . S
C2561 C2562 1.366 . S
C2561 C2563 1.388 . S
C2562 C2561 1.366 . S
C2562 C2566 1.385 . S
C2563 H2538 0.951 . S
C2563 C2561 1.388 . S
C2563 C2564 1.366 . S
C2564 C2563 1.366 . S
C2564 C2565 1.414 . S
C2564 C2567 1.499 . S
C2565 H2539 0.950 . S
C2565 C2564 1.414 . S
C2565 C2566 1.374 . S
C2566 H2540 0.950 . S
C2566 C2562 1.385 . S
C2566 C2565 1.374 . S
C2567 C2564 1.499 . S
C2567 C2568 1.373 . S
C2567 C2569 1.389 . S
C2568 H2541 0.950 . S
C2568 C2554 1.377 . S
C2568 C2567 1.373 . S
C2569 C2553 1.377 . S
C2569 C2567 1.389 . S
C2569 C2570 1.524 . S
C2570 C2569 1.524 . S
C2570 C2571 1.397 . S
C2570 C2575 1.363 . S
C2571 H2542 0.950 . S
C2571 C2570 1.397 . S
C2571 C2572 1.334 . S
C2572 H2543 0.950 . S
C2572 C2571 1.334 . S
C2572 C2573 1.287 . S
C2573 C2572 1.287 . S
C2573 C2574 1.524 . S
C2573 H2576 0.999 . S
C2574 H2544 0.950 . S
C2574 C2573 1.524 . S
C2574 C2575 1.415 . S
C2575 H2545 0.950 . S
C2575 C2570 1.363 . S
C2575 C2574 1.415 . S
H2576 C2573 0.999 . S
H2577 C2558 0.913 . S
H2578 C2596 0.951 . S
H2579 C2598 0.951 . S
H2580 C2600 0.950 . S
H2581 C2601 0.950 . S
H2582 C2603 0.950 . S
H2583 C2606 0.950 . S
H2584 C2607 0.950 . S
H2585 C2609 0.950 . S
H2586 C2610 0.950 . S
H2587 C2611 0.951 . S
H2588 C2613 0.951 . S
H2589 C2615 0.950 . S
H2590 C2616 0.950 . S
H2591 C2618 0.950 . S
H2592 C2621 0.950 . S
H2593 C2622 0.950 . S
H2594 C2624 0.950 . S
H2595 C2625 0.950 . S
C2596 H2578 0.951 . S
C2596 C2597 1.366 . S
C2596 C2598 1.388 . S
C2597 C2596 1.366 . S
C2597 C2601 1.385 . S
C2598 H2579 0.951 . S
C2598 C2596 1.388 . S
C2598 C2599 1.366 . S
C2599 C2598 1.366 . S
C2599 C2600 1.414 . S
C2599 C2602 1.499 . S
C2600 H2580 0.950 . S
C2600 C2599 1.414 . S
C2600 C2601 1.374 . S
C2601 H2581 0.950 . S
C2601 C2597 1.385 . S
C2601 C2600 1.374 . S
C2602 C2599 1.499 . S
C2602 C2603 1.373 . S
C2602 C2604 1.389 . S
C2603 H2582 0.950 . S
C2603 C2602 1.373 . S
C2603 C2619 1.377 . S
C2604 C2602 1.389 . S
C2604 C2605 1.524 . S
C2604 C2618 1.377 . S
C2605 C2604 1.524 . S
C2605 C2606 1.397 . S
C2605 C2610 1.363 . S
C2606 H2583 0.950 . S
C2606 C2605 1.397 . S
C2606 C2607 1.334 . S
C2607 H2584 0.950 . S
C2607 C2606 1.334 . S
C2607 C2608 1.287 . S
C2608 C2607 1.287 . S
C2608 C2609 1.524 . S
C2608 H2627 0.913 . S
C2609 H2585 0.950 . S
C2609 C2608 1.524 . S
C2609 C2610 1.415 . S
C2610 H2586 0.950 . S
C2610 C2605 1.363 . S
C2610 C2609 1.415 . S
C2611 H2587 0.951 . S
C2611 C2612 1.366 . S
C2611 C2613 1.388 . S
C2612 C2611 1.366 . S
C2612 C2616 1.385 . S
C2613 H2588 0.951 . S
C2613 C2611 1.388 . S
C2613 C2614 1.366 . S
C2614 C2613 1.366 . S
C2614 C2615 1.414 . S
C2614 C2617 1.499 . S
C2615 H2589 0.950 . S
C2615 C2614 1.414 . S
C2615 C2616 1.374 . S
C2616 H2590 0.950 . S
C2616 C2612 1.385 . S
C2616 C2615 1.374 . S
C2617 C2614 1.499 . S
C2617 C2618 1.373 . S
C2617 C2619 1.389 . S
C2618 H2591 0.950 . S
C2618 C2604 1.377 . S
C2618 C2617 1.373 . S
C2619 C2603 1.377 . S
C2619 C2617 1.389 . S
C2619 C2620 1.524 . S
C2620 C2619 1.524 . S
C2620 C2621 1.397 . S
C2620 C2625 1.363 . S
C2621 H2592 0.950 . S
C2621 C2620 1.397 . S
C2621 C2622 1.334 . S
C2622 H2593 0.950 . S
C2622 C2621 1.334 . S
C2622 C2623 1.287 . S
C2623 C2622 1.287 . S
C2623 C2624 1.524 . S
C2623 H2626 0.999 . S
C2624 H2594 0.950 . S
C2624 C2623 1.524 . S
C2624 C2625 1.415 . S
C2625 H2595 0.950 . S
C2625 C2620 1.363 . S
C2625 C2624 1.415 . S
H2626 C2623 0.999 . S
H2627 C2608 0.913 . S
H2628 C2646 0.951 . S
H2629 C2648 0.951 . S
H2630 C2650 0.950 . S
H2631 C2651 0.950 . S
H2632 C2653 0.950 . S
H2633 C2656 0.950 . S
H2634 C2657 0.950 . S
H2635 C2659 0.950 . S
H2636 C2660 0.950 . S
H2637 C2661 0.951 . S
H2638 C2663 0.951 . S
H2639 C2665 0.950 . S
H2640 C2666 0.950 . S
H2641 C2668 0.950 . S
H2642 C2671 0.950 . S
H2643 C2672 0.950 . S
H2644 C2674 0.950 . S
H2645 C2675 0.950 . S
C2646 H2628 0.951 . S
C2646 C2647 1.366 . S
C2646 C2648 1.388 . S
C2647 C2646 1.366 . S
C2647 C2651 1.385 . S
C2648 H2629 0.951 . S
C2648 C2646 1.388 . S
C2648 C2649 1.366 . S
C2649 C2648 1.366 . S
C2649 C2650 1.414 . S
C2649 C2652 1.499 . S
C2650 H2630 0.950 . S
C2650 C2649 1.414 . S
C2650 C2651 1.374 . S
C2651 H2631 0.950 . S
C2651 C2647 1.385 . S
C2651 C2650 1.374 . S
C2652 C2649 1.499 . S
C2652 C2653 1.373 . S
C2652 C2654 1.389 . S
C2653 H2632 0.950 . S
C2653 C2652 1.373 . S
C2653 C2669 1.377 . S
C2654 C2652 1.389 . S
C2654 C2655 1.524 . S
C2654 C2668 1.377 . S
C2655 C2654 1.524 . S
C2655 C2656 1.397 . S
C2655 C2660 1.363 . S
C2656 H2633 0.950 . S
C2656 C2655 1.397 . S
C2656 C2657 1.334 . S
C2657 H2634 0.950 . S
C2657 C2656 1.334 . S
C2657 C2658 1.287 . S
C2658 C2657 1.287 . S
C2658 C2659 1.524 . S
C2658 H2677 0.913 . S
C2659 H2635 0.950 . S
C2659 C2658 1.524 . S
C2659 C2660 1.415 . S
C2660 H2636 0.950 . S
C2660 C2655 1.363 . S
C2660 C2659 1.415 . S
C2661 H2637 0.951 . S
C2661 C2662 1.366 . S
C2661 C2663 1.388 . S
C2662 C2661 1.366 . S
C2662 C2666 1.385 . S
C2663 H2638 0.951 . S
C2663 C2661 1.388 . S
C2663 C2664 1.366 . S
C2664 C2663 1.366 . S
C2664 C2665 1.414 . S
C2664 C2667 1.499 . S
C2665 H2639 0.950 . S
C2665 C2664 1.414 . S
C2665 C2666 1.374 . S
C2666 H2640 0.950 . S
C2666 C2662 1.385 . S
C2666 C2665 1.374 . S
C2667 C2664 1.499 . S
C2667 C2668 1.373 . S
C2667 C2669 1.389 . S
C2668 H2641 0.950 . S
C2668 C2654 1.377 . S
C2668 C2667 1.373 . S
C2669 C2653 1.377 . S
C2669 C2667 1.389 . S
C2669 C2670 1.524 . S
C2670 C2669 1.524 . S
C2670 C2671 1.397 . S
C2670 C2675 1.363 . S
C2671 H2642 0.950 . S
C2671 C2670 1.397 . S
C2671 C2672 1.334 . S
C2672 H2643 0.950 . S
C2672 C2671 1.334 . S
C2672 C2673 1.287 . S
C2673 C2672 1.287 . S
C2673 C2674 1.524 . S
C2673 H2676 0.999 . S
C2674 H2644 0.950 . S
C2674 C2673 1.524 . S
C2674 C2675 1.415 . S
C2675 H2645 0.950 . S
C2675 C2670 1.363 . S
C2675 C2674 1.415 . S
H2676 C2673 0.999 . S
H2677 C2658 0.913 . S
H2678 C2696 0.951 . S
H2679 C2698 0.951 . S
H2680 C2700 0.950 . S
H2681 C2701 0.950 . S
H2682 C2703 0.950 . S
H2683 C2706 0.950 . S
H2684 C2707 0.950 . S
H2685 C2709 0.950 . S
H2686 C2710 0.950 . S
H2687 C2711 0.951 . S
H2688 C2713 0.951 . S
H2689 C2715 0.950 . S
H2690 C2716 0.950 . S
H2691 C2718 0.950 . S
H2692 C2721 0.950 . S
H2693 C2722 0.950 . S
H2694 C2724 0.950 . S
H2695 C2725 0.950 . S
C2696 H2678 0.951 . S
C2696 C2697 1.366 . S
C2696 C2698 1.388 . S
C2697 C2696 1.366 . S
C2697 C2701 1.385 . S
C2698 H2679 0.951 . S
C2698 C2696 1.388 . S
C2698 C2699 1.366 . S
C2699 C2698 1.366 . S
C2699 C2700 1.414 . S
C2699 C2702 1.499 . S
C2700 H2680 0.950 . S
C2700 C2699 1.414 . S
C2700 C2701 1.374 . S
C2701 H2681 0.950 . S
C2701 C2697 1.385 . S
C2701 C2700 1.374 . S
C2702 C2699 1.499 . S
C2702 C2703 1.373 . S
C2702 C2704 1.389 . S
C2703 H2682 0.950 . S
C2703 C2702 1.373 . S
C2703 C2719 1.377 . S
C2704 C2702 1.389 . S
C2704 C2705 1.524 . S
C2704 C2718 1.377 . S
C2705 C2704 1.524 . S
C2705 C2706 1.397 . S
C2705 C2710 1.363 . S
C2706 H2683 0.950 . S
C2706 C2705 1.397 . S
C2706 C2707 1.334 . S
C2707 H2684 0.950 . S
C2707 C2706 1.334 . S
C2707 C2708 1.287 . S
C2708 C2707 1.287 . S
C2708 C2709 1.524 . S
C2708 H2727 0.913 . S
C2709 H2685 0.950 . S
C2709 C2708 1.524 . S
C2709 C2710 1.415 . S
C2710 H2686 0.950 . S
C2710 C2705 1.363 . S
C2710 C2709 1.415 . S
C2711 H2687 0.951 . S
C2711 C2712 1.366 . S
C2711 C2713 1.388 . S
C2712 C2711 1.366 . S
C2712 C2716 1.385 . S
C2713 H2688 0.951 . S
C2713 C2711 1.388 . S
C2713 C2714 1.366 . S
C2714 C2713 1.366 . S
C2714 C2715 1.414 . S
C2714 C2717 1.499 . S
C2715 H2689 0.950 . S
C2715 C2714 1.414 . S
C2715 C2716 1.374 . S
C2716 H2690 0.950 . S
C2716 C2712 1.385 . S
C2716 C2715 1.374 . S
C2717 C2714 1.499 . S
C2717 C2718 1.373 . S
C2717 C2719 1.389 . S
C2718 H2691 0.950 . S
C2718 C2704 1.377 . S
C2718 C2717 1.373 . S
C2719 C2703 1.377 . S
C2719 C2717 1.389 . S
C2719 C2720 1.524 . S
C2720 C2719 1.524 . S
C2720 C2721 1.397 . S
C2720 C2725 1.363 . S
C2721 H2692 0.950 . S
C2721 C2720 1.397 . S
C2721 C2722 1.334 . S
C2722 H2693 0.950 . S
C2722 C2721 1.334 . S
C2722 C2723 1.287 . S
C2723 C2722 1.287 . S
C2723 C2724 1.524 . S
C2723 H2726 0.999 . S
C2724 H2694 0.950 . S
C2724 C2723 1.524 . S
C2724 C2725 1.415 . S
C2725 H2695 0.950 . S
C2725 C2720 1.363 . S
C2725 C2724 1.415 . S
H2726 C2723 0.999 . S
H2727 C2708 0.913 . S
H2728 C2746 0.951 . S
H2729 C2748 0.951 . S
H2730 C2750 0.950 . S
H2731 C2751 0.950 . S
H2732 C2753 0.950 . S
H2733 C2756 0.950 . S
H2734 C2757 0.950 . S
H2735 C2759 0.950 . S
H2736 C2760 0.950 . S
H2737 C2761 0.951 . S
H2738 C2763 0.951 . S
H2739 C2765 0.950 . S
H2740 C2766 0.950 . S
H2741 C2768 0.950 . S
H2742 C2771 0.950 . S
H2743 C2772 0.950 . S
H2744 C2774 0.950 . S
H2745 C2775 0.950 . S
C2746 H2728 0.951 . S
C2746 C2747 1.366 . S
C2746 C2748 1.388 . S
C2747 C2746 1.366 . S
C2747 C2751 1.385 . S
C2748 H2729 0.951 . S
C2748 C2746 1.388 . S
C2748 C2749 1.366 . S
C2749 C2748 1.366 . S
C2749 C2750 1.414 . S
C2749 C2752 1.499 . S
C2750 H2730 0.950 . S
C2750 C2749 1.414 . S
C2750 C2751 1.374 . S
C2751 H2731 0.950 . S
C2751 C2747 1.385 . S
C2751 C2750 1.374 . S
C2752 C2749 1.499 . S
C2752 C2753 1.373 . S
C2752 C2754 1.389 . S
C2753 H2732 0.950 . S
C2753 C2752 1.373 . S
C2753 C2769 1.377 . S
C2754 C2752 1.389 . S
C2754 C2755 1.524 . S
C2754 C2768 1.377 . S
C2755 C2754 1.524 . S
C2755 C2756 1.397 . S
C2755 C2760 1.363 . S
C2756 H2733 0.950 . S
C2756 C2755 1.397 . S
C2756 C2757 1.334 . S
C2757 H2734 0.950 . S
C2757 C2756 1.334 . S
C2757 C2758 1.287 . S
C2758 C2757 1.287 . S
C2758 C2759 1.524 . S
C2758 H2777 0.913 . S
C2759 H2735 0.950 . S
C2759 C2758 1.524 . S
C2759 C2760 1.415 . S
C2760 H2736 0.950 . S
C2760 C2755 1.363 . S
C2760 C2759 1.415 . S
C2761 H2737 0.951 . S
C2761 C2762 1.366 . S
C2761 C2763 1.388 . S
C2762 C2761 1.366 . S
C2762 C2766 1.385 . S
C2763 H2738 0.951 . S
C2763 C2761 1.388 . S
C2763 C2764 1.366 . S
C2764 C2763 1.366 . S
C2764 C2765 1.414 . S
C2764 C2767 1.499 . S
C2765 H2739 0.950 . S
C2765 C2764 1.414 . S
C2765 C2766 1.374 . S
C2766 H2740 0.950 . S
C2766 C2762 1.385 . S
C2766 C2765 1.374 . S
C2767 C2764 1.499 . S
C2767 C2768 1.373 . S
C2767 C2769 1.389 . S
C2768 H2741 0.950 . S
C2768 C2754 1.377 . S
C2768 C2767 1.373 . S
C2769 C2753 1.377 . S
C2769 C2767 1.389 . S
C2769 C2770 1.524 . S
C2770 C2769 1.524 . S
C2770 C2771 1.397 . S
C2770 C2775 1.363 . S
C2771 H2742 0.950 . S
C2771 C2770 1.397 . S
C2771 C2772 1.334 . S
C2772 H2743 0.950 . S
C2772 C2771 1.334 . S
C2772 C2773 1.287 . S
C2773 C2772 1.287 . S
C2773 C2774 1.524 . S
C2773 H2776 0.999 . S
C2774 H2744 0.950 . S
C2774 C2773 1.524 . S
C2774 C2775 1.415 . S
C2775 H2745 0.950 . S
C2775 C2770 1.363 . S
C2775 C2774 1.415 . S
H2776 C2773 0.999 . S
H2777 C2758 0.913 . S
H2778 C2796 0.951 . S
H2779 C2798 0.951 . S
H2780 C2800 0.950 . S
H2781 C2801 0.950 . S
H2782 C2803 0.950 . S
H2783 C2806 0.950 . S
H2784 C2807 0.950 . S
H2785 C2809 0.950 . S
H2786 C2810 0.950 . S
H2787 C2811 0.951 . S
H2788 C2813 0.951 . S
H2789 C2815 0.950 . S
H2790 C2816 0.950 . S
H2791 C2818 0.950 . S
H2792 C2821 0.950 . S
H2793 C2822 0.950 . S
H2794 C2824 0.950 . S
H2795 C2825 0.950 . S
C2796 H2778 0.951 . S
C2796 C2797 1.366 . S
C2796 C2798 1.388 . S
C2797 C2796 1.366 . S
C2797 C2801 1.385 . S
C2798 H2779 0.951 . S
C2798 C2796 1.388 . S
C2798 C2799 1.366 . S
C2799 C2798 1.366 . S
C2799 C2800 1.414 . S
C2799 C2802 1.499 . S
C2800 H2780 0.950 . S
C2800 C2799 1.414 . S
C2800 C2801 1.374 . S
C2801 H2781 0.950 . S
C2801 C2797 1.385 . S
C2801 C2800 1.374 . S
C2802 C2799 1.499 . S
C2802 C2803 1.373 . S
C2802 C2804 1.389 . S
C2803 H2782 0.950 . S
C2803 C2802 1.373 . S
C2803 C2819 1.377 . S
C2804 C2802 1.389 . S
C2804 C2805 1.524 . S
C2804 C2818 1.377 . S
C2805 C2804 1.524 . S
C2805 C2806 1.397 . S
C2805 C2810 1.363 . S
C2806 H2783 0.950 . S
C2806 C2805 1.397 . S
C2806 C2807 1.334 . S
C2807 H2784 0.950 . S
C2807 C2806 1.334 . S
C2807 C2808 1.287 . S
C2808 C2807 1.287 . S
C2808 C2809 1.524 . S
C2808 H2827 0.913 . S
C2809 H2785 0.950 . S
C2809 C2808 1.524 . S
C2809 C2810 1.415 . S
C2810 H2786 0.950 . S
C2810 C2805 1.363 . S
C2810 C2809 1.415 . S
C2811 H2787 0.951 . S
C2811 C2812 1.366 . S
C2811 C2813 1.388 . S
C2812 C2811 1.366 . S
C2812 C2816 1.385 . S
C2813 H2788 0.951 . S
C2813 C2811 1.388 . S
C2813 C2814 1.366 . S
C2814 C2813 1.366 . S
C2814 C2815 1.414 . S
C2814 C2817 1.499 . S
C2815 H2789 0.950 . S
C2815 C2814 1.414 . S
C2815 C2816 1.374 . S
C2816 H2790 0.950 . S
C2816 C2812 1.385 . S
C2816 C2815 1.374 . S
C2817 C2814 1.499 . S
C2817 C2818 1.373 . S
C2817 C2819 1.389 . S
C2818 H2791 0.950 . S
C2818 C2804 1.377 . S
C2818 C2817 1.373 . S
C2819 C2803 1.377 . S
C2819 C2817 1.389 . S
C2819 C2820 1.524 . S
C2820 C2819 1.524 . S
C2820 C2821 1.397 . S
C2820 C2825 1.363 . S
C2821 H2792 0.950 . S
C2821 C2820 1.397 . S
C2821 C2822 1.334 . S
C2822 H2793 0.950 . S
C2822 C2821 1.334 . S
C2822 C2823 1.287 . S
C2823 C2822 1.287 . S
C2823 C2824 1.524 . S
C2823 H2826 0.999 . S
C2824 H2794 0.950 . S
C2824 C2823 1.524 . S
C2824 C2825 1.415 . S
C2825 H2795 0.950 . S
C2825 C2820 1.363 . S
C2825 C2824 1.415 . S
H2826 C2823 0.999 . S
H2827 C2808 0.913 . S
H2828 C2846 0.951 . S
H2829 C2848 0.951 . S
H2830 C2850 0.950 . S
H2831 C2851 0.950 . S
H2832 C2853 0.950 . S
H2833 C2856 0.950 . S
H2834 C2857 0.950 . S
H2835 C2859 0.950 . S
H2836 C2860 0.950 . S
H2837 C2861 0.951 . S
H2838 C2863 0.951 . S
H2839 C2865 0.950 . S
H2840 C2866 0.950 . S
H2841 C2868 0.950 . S
H2842 C2871 0.950 . S
H2843 C2872 0.950 . S
H2844 C2874 0.950 . S
H2845 C2875 0.950 . S
C2846 H2828 0.951 . S
C2846 C2847 1.366 . S
C2846 C2848 1.388 . S
C2847 C2846 1.366 . S
C2847 C2851 1.385 . S
C2848 H2829 0.951 . S
C2848 C2846 1.388 . S
C2848 C2849 1.366 . S
C2849 C2848 1.366 . S
C2849 C2850 1.414 . S
C2849 C2852 1.499 . S
C2850 H2830 0.950 . S
C2850 C2849 1.414 . S
C2850 C2851 1.374 . S
C2851 H2831 0.950 . S
C2851 C2847 1.385 . S
C2851 C2850 1.374 . S
C2852 C2849 1.499 . S
C2852 C2853 1.373 . S
C2852 C2854 1.389 . S
C2853 H2832 0.950 . S
C2853 C2852 1.373 . S
C2853 C2869 1.377 . S
C2854 C2852 1.389 . S
C2854 C2855 1.524 . S
C2854 C2868 1.377 . S
C2855 C2854 1.524 . S
C2855 C2856 1.397 . S
C2855 C2860 1.363 . S
C2856 H2833 0.950 . S
C2856 C2855 1.397 . S
C2856 C2857 1.334 . S
C2857 H2834 0.950 . S
C2857 C2856 1.334 . S
C2857 C2858 1.287 . S
C2858 C2857 1.287 . S
C2858 C2859 1.524 . S
C2858 H2877 0.913 . S
C2859 H2835 0.950 . S
C2859 C2858 1.524 . S
C2859 C2860 1.415 . S
C2860 H2836 0.950 . S
C2860 C2855 1.363 . S
C2860 C2859 1.415 . S
C2861 H2837 0.951 . S
C2861 C2862 1.366 . S
C2861 C2863 1.388 . S
C2862 C2861 1.366 . S
C2862 C2866 1.385 . S
C2863 H2838 0.951 . S
C2863 C2861 1.388 . S
C2863 C2864 1.366 . S
C2864 C2863 1.366 . S
C2864 C2865 1.414 . S
C2864 C2867 1.499 . S
C2865 H2839 0.950 . S
C2865 C2864 1.414 . S
C2865 C2866 1.374 . S
C2866 H2840 0.950 . S
C2866 C2862 1.385 . S
C2866 C2865 1.374 . S
C2867 C2864 1.499 . S
C2867 C2868 1.373 . S
C2867 C2869 1.389 . S
C2868 H2841 0.950 . S
C2868 C2854 1.377 . S
C2868 C2867 1.373 . S
C2869 C2853 1.377 . S
C2869 C2867 1.389 . S
C2869 C2870 1.524 . S
C2870 C2869 1.524 . S
C2870 C2871 1.397 . S
C2870 C2875 1.363 . S
C2871 H2842 0.950 . S
C2871 C2870 1.397 . S
C2871 C2872 1.334 . S
C2872 H2843 0.950 . S
C2872 C2871 1.334 . S
C2872 C2873 1.287 . S
C2873 C2872 1.287 . S
C2873 C2874 1.524 . S
C2873 H2876 0.999 . S
C2874 H2844 0.950 . S
C2874 C2873 1.524 . S
C2874 C2875 1.415 . S
C2875 H2845 0.950 . S
C2875 C2870 1.363 . S
C2875 C2874 1.415 . S
H2876 C2873 0.999 . S
H2877 C2858 0.913 . S
H2878 C2896 0.951 . S
H2879 C2898 0.951 . S
H2880 C2900 0.950 . S
H2881 C2901 0.950 . S
H2882 C2903 0.950 . S
H2883 C2906 0.950 . S
H2884 C2907 0.950 . S
H2885 C2909 0.950 . S
H2886 C2910 0.950 . S
H2887 C2911 0.951 . S
H2888 C2913 0.951 . S
H2889 C2915 0.950 . S
H2890 C2916 0.950 . S
H2891 C2918 0.950 . S
H2892 C2921 0.950 . S
H2893 C2922 0.950 . S
H2894 C2924 0.950 . S
H2895 C2925 0.950 . S
C2896 H2878 0.951 . S
C2896 C2897 1.366 . S
C2896 C2898 1.388 . S
C2897 C2896 1.366 . S
C2897 C2901 1.385 . S
C2898 H2879 0.951 . S
C2898 C2896 1.388 . S
C2898 C2899 1.366 . S
C2899 C2898 1.366 . S
C2899 C2900 1.414 . S
C2899 C2902 1.499 . S
C2900 H2880 0.950 . S
C2900 C2899 1.414 . S
C2900 C2901 1.374 . S
C2901 H2881 0.950 . S
C2901 C2897 1.385 . S
C2901 C2900 1.374 . S
C2902 C2899 1.499 . S
C2902 C2903 1.373 . S
C2902 C2904 1.389 . S
C2903 H2882 0.950 . S
C2903 C2902 1.373 . S
C2903 C2919 1.377 . S
C2904 C2902 1.389 . S
C2904 C2905 1.524 . S
C2904 C2918 1.377 . S
C2905 C2904 1.524 . S
C2905 C2906 1.397 . S
C2905 C2910 1.363 . S
C2906 H2883 0.950 . S
C2906 C2905 1.397 . S
C2906 C2907 1.334 . S
C2907 H2884 0.950 . S
C2907 C2906 1.334 . S
C2907 C2908 1.287 . S
C2908 C2907 1.287 . S
C2908 C2909 1.524 . S
C2908 H2927 0.913 . S
C2909 H2885 0.950 . S
C2909 C2908 1.524 . S
C2909 C2910 1.415 . S
C2910 H2886 0.950 . S
C2910 C2905 1.363 . S
C2910 C2909 1.415 . S
C2911 H2887 0.951 . S
C2911 C2912 1.366 . S
C2911 C2913 1.388 . S
C2912 C2911 1.366 . S
C2912 C2916 1.385 . S
C2913 H2888 0.951 . S
C2913 C2911 1.388 . S
C2913 C2914 1.366 . S
C2914 C2913 1.366 . S
C2914 C2915 1.414 . S
C2914 C2917 1.499 . S
C2915 H2889 0.950 . S
C2915 C2914 1.414 . S
C2915 C2916 1.374 . S
C2916 H2890 0.950 . S
C2916 C2912 1.385 . S
C2916 C2915 1.374 . S
C2917 C2914 1.499 . S
C2917 C2918 1.373 . S
C2917 C2919 1.389 . S
C2918 H2891 0.950 . S
C2918 C2904 1.377 . S
C2918 C2917 1.373 . S
C2919 C2903 1.377 . S
C2919 C2917 1.389 . S
C2919 C2920 1.524 . S
C2920 C2919 1.524 . S
C2920 C2921 1.397 . S
C2920 C2925 1.363 . S
C2921 H2892 0.950 . S
C2921 C2920 1.397 . S
C2921 C2922 1.334 . S
C2922 H2893 0.950 . S
C2922 C2921 1.334 . S
C2922 C2923 1.287 . S
C2923 C2922 1.287 . S
C2923 C2924 1.524 . S
C2923 H2926 0.999 . S
C2924 H2894 0.950 . S
C2924 C2923 1.524 . S
C2924 C2925 1.415 . S
C2925 H2895 0.950 . S
C2925 C2920 1.363 . S
C2925 C2924 1.415 . S
H2926 C2923 0.999 . S
H2927 C2908 0.913 . S
H2928 C2946 0.951 . S
H2929 C2948 0.951 . S
H2930 C2950 0.950 . S
H2931 C2951 0.950 . S
H2932 C2953 0.950 . S
H2933 C2956 0.950 . S
H2934 C2957 0.950 . S
H2935 C2959 0.950 . S
H2936 C2960 0.950 . S
H2937 C2961 0.951 . S
H2938 C2963 0.951 . S
H2939 C2965 0.950 . S
H2940 C2966 0.950 . S
H2941 C2968 0.950 . S
H2942 C2971 0.950 . S
H2943 C2972 0.950 . S
H2944 C2974 0.950 . S
H2945 C2975 0.950 . S
C2946 H2928 0.951 . S
C2946 C2947 1.366 . S
C2946 C2948 1.388 . S
C2947 C2946 1.366 . S
C2947 C2951 1.385 . S
C2948 H2929 0.951 . S
C2948 C2946 1.388 . S
C2948 C2949 1.366 . S
C2949 C2948 1.366 . S
C2949 C2950 1.414 . S
C2949 C2952 1.499 . S
C2950 H2930 0.950 . S
C2950 C2949 1.414 . S
C2950 C2951 1.374 . S
C2951 H2931 0.950 . S
C2951 C2947 1.385 . S
C2951 C2950 1.374 . S
C2952 C2949 1.499 . S
C2952 C2953 1.373 . S
C2952 C2954 1.389 . S
C2953 H2932 0.950 . S
C2953 C2952 1.373 . S
C2953 C2969 1.377 . S
C2954 C2952 1.389 . S
C2954 C2955 1.524 . S
C2954 C2968 1.377 . S
C2955 C2954 1.524 . S
C2955 C2956 1.397 . S
C2955 C2960 1.363 . S
C2956 H2933 0.950 . S
C2956 C2955 1.397 . S
C2956 C2957 1.334 . S
C2957 H2934 0.950 . S
C2957 C2956 1.334 . S
C2957 C2958 1.287 . S
C2958 C2957 1.287 . S
C2958 C2959 1.524 . S
C2958 H2977 0.913 . S
C2959 H2935 0.950 . S
C2959 C2958 1.524 . S
C2959 C2960 1.415 . S
C2960 H2936 0.950 . S
C2960 C2955 1.363 . S
C2960 C2959 1.415 . S
C2961 H2937 0.951 . S
C2961 C2962 1.366 . S
C2961 C2963 1.388 . S
C2962 C2961 1.366 . S
C2962 C2966 1.385 . S
C2963 H2938 0.951 . S
C2963 C2961 1.388 . S
C2963 C2964 1.366 . S
C2964 C2963 1.366 . S
C2964 C2965 1.414 . S
C2964 C2967 1.499 . S
C2965 H2939 0.950 . S
C2965 C2964 1.414 . S
C2965 C2966 1.374 . S
C2966 H2940 0.950 . S
C2966 C2962 1.385 . S
C2966 C2965 1.374 . S
C2967 C2964 1.499 . S
C2967 C2968 1.373 . S
C2967 C2969 1.389 . S
C2968 H2941 0.950 . S
C2968 C2954 1.377 . S
C2968 C2967 1.373 . S
C2969 C2953 1.377 . S
C2969 C2967 1.389 . S
C2969 C2970 1.524 . S
C2970 C2969 1.524 . S
C2970 C2971 1.397 . S
C2970 C2975 1.363 . S
C2971 H2942 0.950 . S
C2971 C2970 1.397 . S
C2971 C2972 1.334 . S
C2972 H2943 0.950 . S
C2972 C2971 1.334 . S
C2972 C2973 1.287 . S
C2973 C2972 1.287 . S
C2973 C2974 1.524 . S
C2973 H2976 0.999 . S
C2974 H2944 0.950 . S
C2974 C2973 1.524 . S
C2974 C2975 1.415 . S
C2975 H2945 0.950 . S
C2975 C2970 1.363 . S
C2975 C2974 1.415 . S
H2976 C2973 0.999 . S
H2977 C2958 0.913 . S
H2978 C2996 0.951 . S
H2979 C2998 0.951 . S
H2980 C3000 0.950 . S
H2981 C3001 0.950 . S
H2982 C3003 0.950 . S
H2983 C3006 0.950 . S
H2984 C3007 0.950 . S
H2985 C3009 0.950 . S
H2986 C3010 0.950 . S
H2987 C3011 0.951 . S
H2988 C3013 0.951 . S
H2989 C3015 0.950 . S
H2990 C3016 0.950 . S
H2991 C3018 0.950 . S
H2992 C3021 0.950 . S
H2993 C3022 0.950 . S
H2994 C3024 0.950 . S
H2995 C3025 0.950 . S
C2996 H2978 0.951 . S
C2996 C2997 1.366 . S
C2996 C2998 1.388 . S
C2997 C2996 1.366 . S
C2997 C3001 1.385 . S
C2998 H2979 0.951 . S
C2998 C2996 1.388 . S
C2998 C2999 1.366 . S
C2999 C2998 1.366 . S
C2999 C3000 1.414 . S
C2999 C3002 1.499 . S
C3000 H2980 0.950 . S
C3000 C2999 1.414 . S
C3000 C3001 1.374 . S
C3001 H2981 0.950 . S
C3001 C2997 1.385 . S
C3001 C3000 1.374 . S
C3002 C2999 1.499 . S
C3002 C3003 1.373 . S
C3002 C3004 1.389 . S
C3003 H2982 0.950 . S
C3003 C3002 1.373 . S
C3003 C3019 1.377 . S
C3004 C3002 1.389 . S
C3004 C3005 1.524 . S
C3004 C3018 1.377 . S
C3005 C3004 1.524 . S
C3005 C3006 1.397 . S
C3005 C3010 1.363 . S
C3006 H2983 0.950 . S
C3006 C3005 1.397 . S
C3006 C3007 1.334 . S
C3007 H2984 0.950 . S
C3007 C3006 1.334 . S
C3007 C3008 1.287 . S
C3008 C3007 1.287 . S
C3008 C3009 1.524 . S
C3008 H3027 0.913 . S
C3009 H2985 0.950 . S
C3009 C3008 1.524 . S
C3009 C3010 1.415 . S
C3010 H2986 0.950 . S
C3010 C3005 1.363 . S
C3010 C3009 1.415 . S
C3011 H2987 0.951 . S
C3011 C3012 1.366 . S
C3011 C3013 1.388 . S
C3012 C3011 1.366 . S
C3012 C3016 1.385 . S
C3013 H2988 0.951 . S
C3013 C3011 1.388 . S
C3013 C3014 1.366 . S
C3014 C3013 1.366 . S
C3014 C3015 1.414 . S
C3014 C3017 1.499 . S
C3015 H2989 0.950 . S
C3015 C3014 1.414 . S
C3015 C3016 1.374 . S
C3016 H2990 0.950 . S
C3016 C3012 1.385 . S
C3016 C3015 1.374 . S
C3017 C3014 1.499 . S
C3017 C3018 1.373 . S
C3017 C3019 1.389 . S
C3018 H2991 0.950 . S
C3018 C3004 1.377 . S
C3018 C3017 1.373 . S
C3019 C3003 1.377 . S
C3019 C3017 1.389 . S
C3019 C3020 1.524 . S
C3020 C3019 1.524 . S
C3020 C3021 1.397 . S
C3020 C3025 1.363 . S
C3021 H2992 0.950 . S
C3021 C3020 1.397 . S
C3021 C3022 1.334 . S
C3022 H2993 0.950 . S
C3022 C3021 1.334 . S
C3022 C3023 1.287 . S
C3023 C3022 1.287 . S
C3023 C3024 1.524 . S
C3023 H3026 0.999 . S
C3024 H2994 0.950 . S
C3024 C3023 1.524 . S
C3024 C3025 1.415 . S
C3025 H2995 0.950 . S
C3025 C3020 1.363 . S
C3025 C3024 1.415 . S
H3026 C3023 0.999 . S
H3027 C3008 0.913 . S
H3028 C3046 0.951 . S
H3029 C3048 0.951 . S
H3030 C3050 0.950 . S
H3031 C3051 0.950 . S
H3032 C3053 0.950 . S
H3033 C3056 0.950 . S
H3034 C3057 0.950 . S
H3035 C3059 0.950 . S
H3036 C3060 0.950 . S
H3037 C3061 0.951 . S
H3038 C3063 0.951 . S
H3039 C3065 0.950 . S
H3040 C3066 0.950 . S
H3041 C3068 0.950 . S
H3042 C3071 0.950 . S
H3043 C3072 0.950 . S
H3044 C3074 0.950 . S
H3045 C3075 0.950 . S
C3046 H3028 0.951 . S
C3046 C3047 1.366 . S
C3046 C3048 1.388 . S
C3047 C3046 1.366 . S
C3047 C3051 1.385 . S
C3048 H3029 0.951 . S
C3048 C3046 1.388 . S
C3048 C3049 1.366 . S
C3049 C3048 1.366 . S
C3049 C3050 1.414 . S
C3049 C3052 1.499 . S
C3050 H3030 0.950 . S
C3050 C3049 1.414 . S
C3050 C3051 1.374 . S
C3051 H3031 0.950 . S
C3051 C3047 1.385 . S
C3051 C3050 1.374 . S
C3052 C3049 1.499 . S
C3052 C3053 1.373 . S
C3052 C3054 1.389 . S
C3053 H3032 0.950 . S
C3053 C3052 1.373 . S
C3053 C3069 1.377 . S
C3054 C3052 1.389 . S
C3054 C3055 1.524 . S
C3054 C3068 1.377 . S
C3055 C3054 1.524 . S
C3055 C3056 1.397 . S
C3055 C3060 1.363 . S
C3056 H3033 0.950 . S
C3056 C3055 1.397 . S
C3056 C3057 1.334 . S
C3057 H3034 0.950 . S
C3057 C3056 1.334 . S
C3057 C3058 1.287 . S
C3058 C3057 1.287 . S
C3058 C3059 1.524 . S
C3058 H3077 0.913 . S
C3059 H3035 0.950 . S
C3059 C3058 1.524 . S
C3059 C3060 1.415 . S
C3060 H3036 0.950 . S
C3060 C3055 1.363 . S
C3060 C3059 1.415 . S
C3061 H3037 0.951 . S
C3061 C3062 1.366 . S
C3061 C3063 1.388 . S
C3062 C3061 1.366 . S
C3062 C3066 1.385 . S
C3063 H3038 0.951 . S
C3063 C3061 1.388 . S
C3063 C3064 1.366 . S
C3064 C3063 1.366 . S
C3064 C3065 1.414 . S
C3064 C3067 1.499 . S
C3065 H3039 0.950 . S
C3065 C3064 1.414 . S
C3065 C3066 1.374 . S
C3066 H3040 0.950 . S
C3066 C3062 1.385 . S
C3066 C3065 1.374 . S
C3067 C3064 1.499 . S
C3067 C3068 1.373 . S
C3067 C3069 1.389 . S
C3068 H3041 0.950 . S
C3068 C3054 1.377 . S
C3068 C3067 1.373 . S
C3069 C3053 1.377 . S
C3069 C3067 1.389 . S
C3069 C3070 1.524 . S
C3070 C3069 1.524 . S
C3070 C3071 1.397 . S
C3070 C3075 1.363 . S
C3071 H3042 0.950 . S
C3071 C3070 1.397 . S
C3071 C3072 1.334 . S
C3072 H3043 0.950 . S
C3072 C3071 1.334 . S
C3072 C3073 1.287 . S
C3073 C3072 1.287 . S
C3073 C3074 1.524 . S
C3073 H3076 0.999 . S
C3074 H3044 0.950 . S
C3074 C3073 1.524 . S
C3074 C3075 1.415 . S
C3075 H3045 0.950 . S
C3075 C3070 1.363 . S
C3075 C3074 1.415 . S
H3076 C3073 0.999 . S
H3077 C3058 0.913 . S
C397 C151 1.239 . S
C412 C204 1.238 . S
C447 C159 1.662 . S
C462 C224 1.803 . S
C497 C137 1.399 . S
C512 C247 1.546 . S
C547 C126 1.274 . S
C562 C227 1.417 . S
C612 C244 1.753 . S
C597 C104 1.615 . S
C647 C118 1.151 . S
C662 C207 1.170 . S
C712 C214 1.493 1_556 S
C697 C129 1.520 . S
C762 C234 1.554 1_556 S
C747 C107 1.583 . S
C797 C115 1.276 . S
C812 C239 1.550 1_556 S
C847 C148 1.179 . S
C862 C219 1.405 . S
C897 C162 1.521 . S
C912 C254 1.499 . S
C962 C199 1.443 . S
C947 C140 1.450 . S
C1012 C264 1.239 . S
C997 C19 1.240 . S
C1047 C27 1.661 . S
C1062 C284 1.803 . S
C1097 C5 1.400 . S
C1112 C307 1.546 . S
C1147 C192 1.275 . S
C1162 C287 1.416 . S
C1197 C170 1.616 . S
C1212 C304 1.752 . S
C1247 C184 1.151 . S
C1262 C267 1.169 . S
C1297 C195 1.520 . S
C1312 C274 1.492 . S
C1347 C173 1.583 . S
C1362 C294 1.554 . S
C1412 C299 1.550 . S
C1397 C181 1.275 . S
C1447 C16 1.177 . S
C1462 C279 1.405 . S
C1512 C314 1.499 . S
C1497 C30 1.522 . S
C1547 C8 1.450 . S
C1562 C259 1.443 . S
C1612 C324 1.238 . S
C1597 C85 1.239 . S
C1647 C93 1.661 . S
C1662 C344 1.803 . S
C1712 C367 1.545 . S
C1697 C71 1.401 . S
C1762 C347 1.417 . S
C1747 C60 1.274 . S
C1812 C364 1.753 . S
C1797 C38 1.616 . S
C1847 C52 1.150 . S
C1862 C327 1.169 . S
C1897 C63 1.520 . S
C1912 C334 1.493 . S
C1947 C41 1.582 . S
C1962 C354 1.554 . S
C2012 C359 1.550 . S
C1997 C49 1.277 . S
C2047 C82 1.177 . S
C2062 C339 1.405 . S
C2097 C96 1.521 . S
C2112 C374 1.499 . S
C2147 C74 1.450 . S
C2162 C319 1.443 . S
C2197 C172 1.486 . S
C2212 C217 1.490 . S
C2262 C237 1.432 . S
C2247 C183 1.426 . S
C2297 C194 1.502 . S
C2312 C246 1.474 . S
C2347 C73 1.728 . S
C2362 C226 1.681 . S
C2397 C84 1.202 . S
C2412 C257 1.210 . S
C2462 C206 1.454 . S
C2447 C95 1.462 . S
C2497 C40 1.486 . S
C2512 C277 1.490 . S
C2547 C51 1.426 . S
C2562 C297 1.432 . S
C2597 C62 1.503 . S
C2612 C306 1.473 . S
C2647 C139 1.728 . S
C2662 C286 1.681 . S
C2712 C317 1.210 . S
C2697 C150 1.203 . S
C2747 C161 1.462 . S
C2762 C266 1.454 . S
C2797 C106 1.487 . S
C2812 C337 1.490 . S
C2847 C117 1.426 . S
C2862 C357 1.433 . S
C2912 C366 1.474 . S
C2897 C128 1.503 . S
C2947 C7 1.727 . S
C2962 C346 1.680 . S
C2997 C18 1.202 . S
C3012 C377 1.210 . S
C3047 C29 1.462 . S
C3062 C326 1.454 . S
