# Generated by pormake.
# Topology zzz, (3,6)-cn, num edge types: 1
# Building blocks:
#     Node 0, Type 0, BuildingBlock: WUSLED_clean_sbu_0, # of connection points: 3
#     Node 1, Type 0, BuildingBlock: WUSLED_clean_sbu_0, # of connection points: 3
#     Node 2, Type 0, BuildingBlock: WUSLED_clean_sbu_0, # of connection points: 3
#     Node 3, Type 0, BuildingBlock: WUSLED_clean_sbu_0, # of connection points: 3
#     Node 4, Type 0, BuildingBlock: WUSLED_clean_sbu_0, # of connection points: 3
#     Node 5, Type 0, BuildingBlock: WUSLED_clean_sbu_0, # of connection points: 3
#     Node 6, Type 0, BuildingBlock: WUSLED_clean_sbu_0, # of connection points: 3
#     Node 7, Type 0, BuildingBlock: WUSLED_clean_sbu_0, # of connection points: 3
#     Node 8, Type 1, BuildingBlock: JUFBIX_clean_sbu_0, # of connection points: 6
#     Node 9, Type 1, BuildingBlock: JUFBIX_clean_sbu_0, # of connection points: 6
#     Node 10, Type 1, BuildingBlock: JUFBIX_clean_sbu_0, # of connection points: 6
#     Node 11, Type 1, BuildingBlock: JUFBIX_clean_sbu_0, # of connection points: 6
#     Edge 12, Type (0, 1), None
#     Edge 13, Type (0, 1), None
#     Edge 14, Type (0, 1), None
#     Edge 15, Type (0, 1), None
#     Edge 16, Type (0, 1), None
#     Edge 17, Type (0, 1), None
#     Edge 18, Type (0, 1), None
#     Edge 19, Type (0, 1), None
#     Edge 20, Type (0, 1), None
#     Edge 21, Type (0, 1), None
#     Edge 22, Type (0, 1), None
#     Edge 23, Type (0, 1), None
#     Edge 24, Type (0, 1), None
#     Edge 25, Type (0, 1), None
#     Edge 26, Type (0, 1), None
#     Edge 27, Type (0, 1), None
#     Edge 28, Type (0, 1), None
#     Edge 29, Type (0, 1), None
#     Edge 30, Type (0, 1), None
#     Edge 31, Type (0, 1), None
#     Edge 32, Type (0, 1), None
#     Edge 33, Type (0, 1), None
#     Edge 34, Type (0, 1), None
#     Edge 35, Type (0, 1), None
# Relax obj value: 0.252
# Max RMSD: 0.219
# Mean RMSD: 0.180
data_MOF--net-zzz--node1-WUSLED_clean_sbu_0--node2-JUFBIX_clean_sbu_0--edge1-none
_symmetry_space_group_name_H-M    P1
_symmetry_Int_Tables_number       1
_symmetry_cell_setting            triclinic
loop_
_symmetry_equiv_pos_as_xyz
'x, y, z'
_cell_length_a     37.313592
_cell_length_b     36.217544
_cell_length_c     13.946527
_cell_angle_alpha  80.467752
_cell_angle_beta   89.985247
_cell_angle_gamma 90.960944
loop_
_atom_site_label
_atom_site_type_symbol
_atom_site_fract_x
_atom_site_fract_y
_atom_site_fract_z
_atom_type_partial_charge
C0 C 0.88486 0.51064 0.52835 0.0
C1 C 0.91016 0.48218 0.53286 0.0
C2 C 0.94546 0.51061 0.64986 0.0
C3 C 0.94016 0.48214 0.59327 0.0
C4 C 0.92084 0.53986 0.64177 0.0
C5 C 0.89078 0.53975 0.58185 0.0
U6 U 0.81872 0.48984 0.32428 0.0
O7 O 0.77305 0.52533 0.27525 0.0
O8 O 0.76356 0.46696 0.34352 0.0
C9 C 0.74957 0.49777 0.29619 0.0
C10 C 0.85034 0.50895 0.47761 0.0
C11 C 0.72514 0.49314 0.21629 0.0
C12 C 0.6649 0.4957 0.15047 0.0
C13 C 0.68826 0.49697 0.22823 0.0
C14 C 0.7152 0.48625 0.04797 0.0
C15 C 0.67801 0.49091 0.05847 0.0
C16 C 0.73848 0.48728 0.12613 0.0
C17 C 0.89229 0.45951 0.15756 0.0
C18 C 0.92972 0.43777 0.03648 0.0
C19 C 0.95226 0.48502 0.12663 0.0
C20 C 0.92045 0.4827 0.17988 0.0
C21 C 0.95633 0.464 0.05127 0.0
C22 C 0.89768 0.43573 0.0892 0.0
C23 C 0.85557 0.4652 0.18855 0.0
O24 O 0.8461 0.53238 0.39591 0.0
O25 O 0.83628 0.47549 0.47591 0.0
O26 O 0.84663 0.50037 0.18458 0.0
O27 O 0.84311 0.44291 0.26582 0.0
H28 H 0.90621 0.45944 0.49213 0.0
H29 H 0.95883 0.45936 0.59708 0.0
H30 H 0.92409 0.56218 0.68421 0.0
H31 H 0.87144 0.56186 0.5798 0.0
H32 H 0.63665 0.49877 0.16319 0.0
H33 H 0.67754 0.50154 0.29744 0.0
H34 H 0.72668 0.48265 0.97907 0.0
H35 H 0.76701 0.48437 0.11559 0.0
H36 H 0.9322 0.42156 0.97817 0.0
H37 H 0.97264 0.50527 0.13954 0.0
H38 H 0.91679 0.50121 0.23258 0.0
H39 H 0.87605 0.41782 0.07093 0.0
C40 C 0.96278 0.83714 0.483 0.0
C41 C 0.95643 0.8706 0.41894 0.0
C42 C 0.97276 0.90741 0.54543 0.0
C43 C 0.96143 0.90537 0.44978 0.0
C44 C 0.97864 0.87362 0.60914 0.0
C45 C 0.97373 0.83906 0.57818 0.0
U46 U 0.96398 0.76669 0.30056 0.0
O47 O 0.98585 0.70993 0.3289 0.0
O48 O 0.92941 0.71771 0.28833 0.0
C49 C 0.95683 0.69499 0.29698 0.0
C50 C 0.95836 0.79975 0.45419 0.0
C51 C 0.96332 0.67576 0.21336 0.0
C52 C 0.97897 0.61987 0.14845 0.0
C53 C 0.96873 0.63712 0.22686 0.0
C54 C 0.97782 0.67975 0.04168 0.0
C55 C 0.9842 0.641 0.0546 0.0
C56 C 0.96769 0.69687 0.12005 0.0
C57 C 0.9935 0.84281 0.08614 0.0
C58 C 0.01507 0.88222 0.94075 0.0
C59 C 1.00944 0.90749 0.09087 0.0
C60 C 0.99688 0.87266 0.13807 0.0
C61 C 0.01852 0.91235 0.99185 0.0
C62 C 1.00269 0.84764 0.98779 0.0
C63 C 0.98281 0.80553 0.13292 0.0
O64 O 0.93107 0.79464 0.39767 0.0
O65 O 0.98793 0.78413 0.43059 0.0
O66 O 1.00583 0.78879 0.19604 0.0
O67 O 0.94917 0.80065 0.16099 0.0
H68 H 0.94758 0.86989 0.34534 0.0
H69 H 0.95626 0.93059 0.39866 0.0
H70 H 0.98785 0.87359 0.68261 0.0
H71 H 0.97877 0.81362 0.62888 0.0
H72 H 0.98348 0.5901 0.16288 0.0
H73 H 0.96588 0.6204 0.29849 0.0
H74 H 0.98092 0.69725 0.97142 0.0
H75 H 0.96396 0.72687 0.10805 0.0
H76 H 0.02158 0.88554 0.864 0.0
H77 H 0.01098 0.93077 0.13059 0.0
H78 H 0.98996 0.86893 0.21445 0.0
H79 H 1.0004 0.82458 0.94739 0.0
C80 C 0.70744 1.00171 0.39372 0.0
C81 C 0.67549 1.00884 0.34176 0.0
C82 C 0.64046 0.99378 0.49225 0.0
C83 C 0.64237 1.00513 0.39041 0.0
C84 C 0.67276 0.98643 0.54357 0.0
C85 C 0.70578 0.99042 0.49481 0.0
U86 U 0.77451 0.02491 0.17489 0.0
O87 O 0.82792 0.05233 0.17493 0.0
O88 O 0.82318 0.99341 0.15659 0.0
C89 C 0.84464 0.02251 0.15704 0.0
C90 C 0.7429 1.00561 0.34548 0.0
C91 C 0.8738 0.02837 0.08337 0.0
C92 C 0.93597 0.04678 0.04724 0.0
C93 C 0.90573 0.04567 0.10683 0.0
C94 C 0.90259 0.01487 0.93572 0.0
C95 C 0.93518 0.03053 0.96222 0.0
C96 C 0.87215 0.01372 0.99591 0.0
C97 C 0.69854 0.0472 0.98546 0.0
C98 C 0.65612 0.03895 0.85921 0.0
C99 C 0.6345 0.04979 1.0159 0.0
C100 C 0.67004 0.0526 0.0472 0.0
C101 C 0.62727 0.04186 0.92228 0.0
C102 C 0.6913 0.04141 0.89071 0.0
C103 C 0.73594 0.0446 1.01803 0.0
O104 O 0.75004 0.98174 0.2869 0.0
O105 O 0.75422 0.03987 0.31169 0.0
O106 O 0.7471 0.01035 0.04689 0.0
O107 O 0.7475 0.06863 0.07262 0.0
H108 H 0.67616 0.01719 0.26378 0.0
H109 H 0.6184 0.0116 0.34787 0.0
H110 H 0.67267 0.97724 0.6214 0.0
H111 H 0.73017 0.98455 0.53631 0.0
H112 H 0.96046 0.05922 0.07009 0.0
H113 H 0.90779 0.05704 0.17382 0.0
H114 H 0.90102 1.00203 0.87098 0.0
H115 H 0.84781 1.00018 0.97591 0.0
H116 H 0.65164 0.03357 0.7861 0.0
H117 H 0.61284 0.05245 0.0659 0.0
H118 H 0.67525 0.05805 0.11984 0.0
H119 H 0.71298 0.03756 0.84173 0.0
C120 C 0.56111 0.65722 0.46883 0.0
C121 C 0.53454 0.6305 0.45583 0.0
C122 C 0.55223 0.59101 0.60722 0.0
C123 C 0.52998 0.59783 0.52489 0.0
C124 C 0.57992 0.61683 0.61725 0.0
C125 C 0.5841 0.64971 0.54916 0.0
U126 U 0.55297 0.73404 0.23411 0.0
O127 O 0.52846 0.78888 0.23435 0.0
O128 O 0.58534 0.78601 0.19642 0.0
C129 C 0.55796 0.80765 0.20489 0.0
C130 C 0.56237 0.69509 0.40912 0.0
C131 C 0.55361 0.84171 0.13098 0.0
C132 C 0.53622 0.90691 0.09825 0.0
C133 C 0.54026 0.87348 0.16275 0.0
C134 C 0.55892 0.8778 0.96684 0.0
C135 C 0.54547 0.90975 0.99934 0.0
C136 C 0.56295 0.84395 0.03226 0.0
C137 C 0.53129 0.66165 0.06477 0.0
C138 C 0.499 0.62161 0.96948 0.0
C139 C 0.55433 0.6005 0.0499 0.0
C140 C 0.55699 0.6337 0.08841 0.0
C141 C 0.52577 0.59458 0.98812 0.0
C142 C 0.50189 0.65494 1.00707 0.0
C143 C 0.53656 0.69947 0.08867 0.0
O144 O 0.58863 0.70328 0.34579 0.0
O145 O 0.53157 0.7093 0.37736 0.0
O146 O 0.56952 0.70912 0.10865 0.0
O147 O 0.51221 0.71114 0.14437 0.0
H148 H 0.51638 0.63561 0.39466 0.0
H149 H 0.50846 0.57833 0.51524 0.0
H150 H 0.59713 0.61265 0.68056 0.0
H151 H 0.60439 0.67013 0.56163 0.0
H152 H 0.52587 0.93071 0.1267 0.0
H153 H 0.53304 0.87254 0.23843 0.0
H154 H 0.56627 0.87895 0.89127 0.0
H155 H 0.57337 0.81974 1.00594 0.0
H156 H 0.47676 0.61789 0.92188 0.0
H157 H 0.57521 0.57998 0.0661 0.0
H158 H 0.57987 0.63808 0.13323 0.0
H159 H 0.4819 0.67623 0.98757 0.0
C160 C 0.16955 0.49662 0.151 0.0
C161 C 0.14131 0.52101 0.15912 0.0
C162 C 0.10839 0.4957 0.03259 0.0
C163 C 0.111 0.52065 0.09997 0.0
C164 C 0.13618 0.47045 0.02754 0.0
C165 C 0.16654 0.47108 0.0859 0.0
U166 U 0.23452 0.51817 0.35649 0.0
O167 O 0.28928 0.54183 0.33623 0.0
O168 O 0.28071 0.48345 0.40583 0.0
C169 C 0.30378 0.51132 0.3836 0.0
C170 C 0.20374 0.49896 0.2023 0.0
C171 C 0.32844 0.51668 0.46224 0.0
C172 C 0.38868 0.51373 0.52761 0.0
C173 C 0.36498 0.51049 0.45186 0.0
C174 C 0.33931 0.52941 0.62542 0.0
C175 C 0.37624 0.52299 0.61606 0.0
C176 C 0.31567 0.52635 0.54916 0.0
C177 C 0.16058 0.54725 0.52484 0.0
C178 C 0.12341 0.56886 0.64674 0.0
C179 C 0.10091 0.52116 0.55799 0.0
C180 C 0.13251 0.52368 0.50379 0.0
C181 C 0.09691 0.54234 0.6331 0.0
C182 C 0.15525 0.5711 0.59305 0.0
C183 C 0.19725 0.54193 0.49284 0.0
O184 O 0.21685 0.53271 0.205 0.0
O185 O 0.20809 0.47544 0.28379 0.0
O186 O 0.20949 0.56456 0.41586 0.0
O187 O 0.2065 0.50689 0.49597 0.0
H188 H 0.14311 0.5409 0.20907 0.0
H189 H 0.08984 0.54027 0.10593 0.0
H190 H 0.13509 0.45112 0.97602 0.0
H191 H 0.18824 0.45225 0.07818 0.0
H192 H 0.41671 0.50896 0.51584 0.0
H193 H 0.37521 0.50286 0.38521 0.0
H194 H 0.32834 0.53623 0.6919 0.0
H195 H 0.28736 0.53101 0.55848 0.0
H196 H 0.12103 0.58522 0.70474 0.0
H197 H 0.08064 0.50064 0.54597 0.0
H198 H 0.13612 0.50508 0.45128 0.0
H199 H 0.17681 0.58928 0.6104 0.0
C200 C 0.11834 0.19413 0.15337 0.0
C201 C 0.12011 0.16217 0.22569 0.0
C202 C 0.10117 0.12218 0.10955 0.0
C203 C 0.1118 0.12661 0.20393 0.0
C204 C 0.10033 0.1543 0.03688 0.0
C205 C 0.10874 0.18984 0.05874 0.0
U206 U 0.11388 0.25281 0.34827 0.0
O207 O 0.14255 0.30105 0.39254 0.0
O208 O 0.08608 0.30565 0.34877 0.0
C209 C 0.1132 0.32092 0.38874 0.0
C210 C 0.12225 0.232 0.17897 0.0
C211 C 0.10381 0.33601 0.47723 0.0
C212 C 0.09165 0.38995 0.55403 0.0
C213 C 0.10448 0.37475 0.47507 0.0
C214 C 0.07831 0.32756 0.64037 0.0
C215 C 0.07775 0.36665 0.63733 0.0
C216 C 0.09112 0.31239 0.56097 0.0
C217 C 0.08727 0.16884 0.56393 0.0
C218 C 0.04753 0.14632 0.69845 0.0
C219 C 0.07603 0.10266 0.60871 0.0
C220 C 0.09401 0.13214 0.55122 0.0
C221 C 0.05184 0.10984 0.68007 0.0
C222 C 0.06475 0.17599 0.63887 0.0
C223 C 0.09682 0.19895 0.48654 0.0
O224 O 0.09217 0.24565 0.20586 0.0
O225 O 0.14945 0.23727 0.23569 0.0
O226 O 0.13047 0.20914 0.4682 0.0
O227 O 0.07237 0.21782 0.43245 0.0
H228 H 0.12694 0.16482 0.29979 0.0
H229 H 0.11307 0.10267 0.26158 0.0
H230 H 0.09172 0.15241 0.96381 0.0
H231 H 0.10656 0.21416 1.00235 0.0
H232 H 0.09141 0.42009 0.54744 0.0
H233 H 0.11389 0.39341 0.41081 0.0
H234 H 0.06835 0.30865 0.70333 0.0
H235 H 0.09024 0.2823 0.5639 0.0
H236 H 0.03008 0.15184 0.75635 0.0
H237 H 0.08092 0.07426 0.59739 0.0
H238 H 0.11132 0.12645 0.49312 0.0
H239 H 0.05942 0.20447 0.64848 0.0
C240 C 0.35299 0.02603 0.28171 0.0
C241 C 0.38369 0.03958 0.32361 0.0
C242 C 0.41944 0.03249 0.1806 0.0
C243 C 0.41651 0.04281 0.27356 0.0
C244 C 0.38851 0.01877 0.1395 0.0
C245 C 0.35577 0.01565 0.18948 0.0
U246 U 0.28518 1.00739 0.49916 0.0
O247 O 0.23145 0.98106 0.49798 0.0
O248 O 0.23702 0.03976 0.51793 0.0
C249 C 0.21518 0.01095 0.51701 0.0
C250 C 0.31732 0.02416 0.32896 0.0
C251 C 0.18634 1.00471 0.59142 0.0
C252 C 0.12528 0.98309 0.63174 0.0
C253 C 0.15509 0.98567 0.57028 0.0
C254 C 0.15776 0.01723 0.74021 0.0
C255 C 0.12584 0.99956 0.71634 0.0
C256 C 0.18778 0.01984 0.67816 0.0
C257 C 0.36119 0.98242 0.68517 0.0
C258 C 0.40441 0.978 0.81586 0.0
C259 C 0.42492 0.98641 0.64848 0.0
C260 C 0.38925 0.9862 0.61699 0.0
C261 C 0.43267 0.98336 0.74821 0.0
C262 C 0.36901 0.97739 0.78452 0.0
C263 C 0.32362 0.98682 0.65569 0.0
O264 O 0.3045 0.99057 0.3635 0.0
O265 O 0.31067 0.04898 0.38541 0.0
O266 O 0.31055 0.96297 0.60266 0.0
O267 O 0.31388 0.02151 0.62579 0.0
H268 H 0.38228 0.04802 0.39447 0.0
H269 H 0.43947 0.05384 0.30753 0.0
H270 H 0.38948 0.00996 0.06918 0.0
H271 H 0.33239 1.00525 0.15556 0.0
H272 H 0.10125 0.96927 0.61079 0.0
H273 H 0.15322 0.97387 0.5039 0.0
H274 H 0.15905 0.03045 0.80436 0.0
H275 H 0.21159 0.0347 0.6964 0.0
H276 H 0.40962 0.97552 0.89309 0.0
H277 H 0.44622 0.991 0.5948 0.0
H278 H 0.38355 0.99029 0.53983 0.0
H279 H 0.3476 0.97447 0.83795 0.0
C280 C 0.49611 0.36351 0.20532 0.0
C281 C 0.46747 0.38802 0.17889 0.0
C282 C 0.50575 0.42865 0.06244 0.0
C283 C 0.47224 0.42032 0.10795 0.0
C284 C 0.53437 0.40456 0.09096 0.0
C285 C 0.5296 0.37251 0.16054 0.0
U286 U 0.49758 0.28638 0.44134 0.0
O287 O 0.52124 0.23156 0.43798 0.0
O288 O 0.46475 0.23461 0.47959 0.0
C289 C 0.49189 0.21289 0.46888 0.0
C290 C 0.49048 0.32592 0.26597 0.0
C291 C 0.49729 0.17904 0.54236 0.0
C292 C 0.51655 0.11447 0.57417 0.0
C293 C 0.50976 0.14716 0.50925 0.0
C294 C 0.49801 0.14448 0.70838 0.0
C295 C 0.5109 0.11254 0.67467 0.0
C296 C 0.4914 0.17764 0.64261 0.0
C297 C 0.52262 0.35784 0.60996 0.0
C298 C 0.55473 0.39703 0.70791 0.0
C299 C 0.50199 0.42052 0.61787 0.0
C300 C 0.49867 0.38707 0.58077 0.0
C301 C 0.5296 0.42544 0.68342 0.0
C302 C 0.55108 0.3634 0.67193 0.0
C303 C 0.51628 0.3201 0.58662 0.0
O304 O 0.51966 0.30827 0.29805 0.0
O305 O 0.46387 0.32029 0.3291 0.0
O306 O 0.53978 0.3079 0.52947 0.0
O307 O 0.48291 0.31135 0.56823 0.0
H308 H 0.44114 0.38159 0.21055 0.0
H309 H 0.44966 0.43833 0.08764 0.0
H310 H 0.56048 0.40963 0.05685 0.0
H311 H 0.55213 0.35404 0.17637 0.0
H312 H 0.52615 0.09053 0.54493 0.0
H313 H 0.5145 0.14758 0.43237 0.0
H314 H 0.4933 0.14392 0.78523 0.0
H315 H 0.48191 0.20204 0.6699 0.0
H316 H 0.57605 0.39996 0.75896 0.0
H317 H 0.48237 0.44211 0.59745 0.0
H318 H 0.47656 0.38354 0.5326 0.0
H319 H 0.56966 0.34109 0.69581 0.0
Co320 Co 0.04486 0.02359 0.9027 0.0
C321 C 0.96932 0.02675 0.90941 0.0
Co322 Co 0.01641 1.00456 0.77813 0.0
C323 C 0.08463 0.07554 1.00146 0.0
C324 C 0.0594 0.03183 0.10183 0.0
N325 N 0.066 0.04286 1.00627 0.0
N326 N 0.08892 0.08603 0.08949 0.0
C327 C 0.07346 0.05814 0.15298 0.0
H328 H 0.09325 0.09243 0.93385 0.0
H329 H 0.04303 1.00774 0.13181 0.0
C330 C 0.09187 1.00188 0.77084 0.0
N331 N 0.99606 0.98553 0.67139 0.0
C332 C 0.98417 0.95013 0.66827 0.0
C333 C 0.99829 1.00157 0.57694 0.0
N334 N 0.9797 0.94326 0.57629 0.0
C335 C 0.98824 0.97592 0.51888 0.0
C336 C 0.03568 0.07819 0.74282 0.0
O337 O 0.09116 0.01414 0.85147 0.0
O338 O 0.06241 0.99496 0.73091 0.0
O339 O 0.01969 0.05289 0.70552 0.0
O340 O 0.04681 0.07135 0.82917 0.0
O341 O 0.97 0.01448 0.82859 0.0
H342 H 1.00915 0.02927 0.5508 0.0
H343 H 0.98049 0.92911 0.73227 0.0
O344 O 0.99881 0.03303 0.95033 0.0
O345 O 0.04227 0.97464 0.97637 0.0
O346 O 0.01442 0.95723 0.85191 0.0
C347 C 0.0265 0.9495 0.93747 0.0
H348 H 0.06998 0.05803 0.23006 0.0
H349 H 0.98971 0.9804 0.44032 0.0
Co350 Co 0.51757 0.02181 0.90086 0.0
C351 C 0.54058 0.94627 0.93358 0.0
Co352 Co 0.54203 1.00158 0.77341 0.0
C353 C 0.45993 0.03392 0.03476 0.0
C354 C 0.51174 0.0335 0.09991 0.0
N355 N 0.49537 0.03275 1.01398 0.0
N356 N 0.45362 0.03496 0.13007 0.0
C357 C 0.48639 0.035 0.17067 0.0
H358 H 0.43905 0.03264 0.98166 0.0
H359 H 0.54023 0.03067 0.11235 0.0
C360 C 0.51826 0.07681 0.74091 0.0
N361 N 0.56446 0.99075 0.65999 0.0
C362 C 0.59993 0.99115 0.63813 0.0
C363 C 0.54808 0.98884 0.57462 0.0
N364 N 0.60623 0.99015 0.54284 0.0
C365 C 0.57344 0.98831 0.50328 0.0
C366 C 0.46919 0.99059 0.7817 0.0
O367 O 0.50868 0.07105 0.83007 0.0
O368 O 0.53338 0.05065 0.70608 0.0
O369 O 0.49657 0.98575 0.73147 0.0
O370 O 0.47304 1.00496 0.85818 0.0
O371 O 0.55021 0.95184 0.84434 0.0
H372 H 0.51947 0.98996 0.56289 0.0
H373 H 0.62081 0.99426 0.68987 0.0
O374 O 0.52646 0.97294 0.9685 0.0
O375 O 0.56318 0.03851 0.94167 0.0
O376 O 0.58648 0.01789 0.81691 0.0
C377 C 0.59054 0.03323 0.8917 0.0
H378 H 0.49183 0.03391 0.24727 0.0
H379 H 0.56787 0.9877 0.42746 0.0
Co380 Co 0.55672 0.50689 0.85028 0.0
C381 C 0.51174 0.46087 0.98248 0.0
Co382 Co 0.49882 0.51361 0.81941 0.0
C383 C 0.61924 0.50169 0.97106 0.0
C384 C 0.63108 0.48744 0.8319 0.0
N385 N 0.60451 0.49943 0.88373 0.0
N386 N 0.65402 0.49161 0.97642 0.0
C387 C 0.66144 0.48256 0.88847 0.0
H388 H 0.6043 0.51022 0.02981 0.0
H389 H 0.62838 0.48176 0.7585 0.0
C390 C 0.54442 0.55935 0.687 0.0
N391 N 0.45084 0.52086 0.78615 0.0
C392 C 0.43524 0.5145 0.70291 0.0
C393 C 0.42505 0.53648 0.83308 0.0
N394 N 0.40073 0.5254 0.69553 0.0
C395 C 0.39435 0.53939 0.77771 0.0
C396 C 0.5256 0.56216 0.93654 0.0
O397 O 0.56942 0.54409 0.74108 0.0
O398 O 0.51206 0.54933 0.70711 0.0
O399 O 0.49752 0.55299 0.89408 0.0
O400 O 0.55444 0.54493 0.92804 0.0
O401 O 0.48606 0.47722 0.93299 0.0
H402 H 0.42849 0.54602 0.90204 0.0
H403 H 0.44935 0.50255 0.64812 0.0
O404 O 0.54378 0.4704 0.95788 0.0
O405 O 0.55846 0.46845 0.77233 0.0
O406 O 0.50086 0.47446 0.74534 0.0
C407 C 0.52997 0.45819 0.73359 0.0
H408 H 0.6867 0.47239 0.86636 0.0
H409 H 0.36963 0.5517 0.79622 0.0
Co410 Co 0.0222 0.53238 0.85445 0.0
C411 C 0.07786 0.49752 0.96434 0.0
Co412 Co 0.03122 0.47383 0.83046 0.0
C413 C 1.00021 0.5866 0.97238 0.0
C414 C 0.01626 0.61358 0.83066 0.0
N415 N 0.01218 0.57952 0.8857 0.0
N416 N 0.99627 0.62356 0.97394 0.0
C417 C 1.00666 0.64057 0.88442 0.0
H418 H 0.99479 0.56486 0.03365 0.0
H419 H 0.02595 0.61864 0.75649 0.0
C420 C 0.97558 0.50867 0.71989 0.0
N421 N 0.04125 0.42625 0.79935 0.0
C422 C 0.0642 0.41848 0.73031 0.0
C423 C 0.02397 0.39337 0.8301 0.0
N424 N 0.06137 0.38266 0.71498 0.0
C425 C 0.03624 0.36667 0.77877 0.0
C426 C 0.98393 0.47562 0.97703 0.0
O427 O 0.984 0.53656 0.76112 0.0
O428 O 0.99275 0.47838 0.74119 0.0
O429 O 0.9993 0.45247 0.93222 0.0
O430 O 0.99011 0.51037 0.95194 0.0
O431 O 0.07023 0.47016 0.92048 0.0
H432 H 1.00245 0.38923 0.88287 0.0
H433 H 0.08209 0.43899 0.68956 0.0
O434 O 0.05981 0.52732 0.94636 0.0
O435 O 0.05524 0.55385 0.75555 0.0
O436 O 0.06199 0.49626 0.73016 0.0
C437 C 0.06934 0.53087 0.70772 0.0
H438 H 1.00789 0.67043 0.85904 0.0
H439 H 0.02581 0.33834 0.78431 0.0
loop_
_geom_bond_atom_site_label_1
_geom_bond_atom_site_label_2
_geom_bond_distance
_geom_bond_site_symmetry_2
_ccdc_geom_bond_type
C0 C1 1.264 . S
C0 C5 1.479 . S
C0 C10 1.465 . S
C1 C0 1.264 . S
C1 C3 1.339 . S
C1 H28 0.931 . S
C2 C3 1.395 . S
C2 C4 1.320 . S
C3 C1 1.339 . S
C3 C2 1.395 . S
C3 H29 0.929 . S
C4 C2 1.320 . S
C4 C5 1.405 . S
C4 H30 0.930 . S
C5 C0 1.479 . S
C5 C4 1.405 . S
C5 H31 0.931 . S
U6 O7 2.454 . S
U6 O8 2.458 . S
U6 C9 2.984 . S
U6 C10 2.847 . S
U6 C23 2.882 . S
U6 O24 2.441 . S
U6 O25 2.420 . S
U6 O26 2.455 . S
U6 O27 2.449 . S
O7 U6 2.454 . S
O7 C9 1.353 . S
O8 U6 2.458 . S
O8 C9 1.286 . S
C9 U6 2.984 . S
C9 O7 1.353 . S
C9 O8 1.286 . S
C9 C11 1.363 . S
C10 C0 1.465 . S
C10 U6 2.847 . S
C10 O24 1.249 . S
C10 O25 1.202 . S
C11 C9 1.363 . S
C11 C13 1.408 . S
C11 C16 1.342 . S
C12 C13 1.310 . S
C12 C15 1.461 . S
C12 H32 0.932 . S
C13 C11 1.408 . S
C13 C12 1.310 . S
C13 H33 0.930 . S
C14 C15 1.474 . S
C14 C16 1.285 . S
C14 H34 0.929 1_554 S
C15 C12 1.461 . S
C15 C14 1.474 . S
C16 C11 1.342 . S
C16 C14 1.285 . S
C16 H35 0.930 . S
C17 C20 1.424 . S
C17 C22 1.245 1_554 S
C17 C23 1.428 . S
C18 C21 1.260 . S
C18 C22 1.477 . S
C18 H36 0.932 . S
C19 C20 1.384 1_556 S
C19 C21 1.479 . S
C19 H37 0.929 1_556 S
C20 C17 1.424 . S
C20 C19 1.384 1_554 S
C20 H38 0.928 . S
C21 C18 1.260 . S
C21 C19 1.479 . S
C22 C17 1.245 1_556 S
C22 C18 1.477 . S
C22 H39 0.932 . S
C23 U6 2.882 . S
C23 C17 1.428 . S
C23 O26 1.301 . S
C23 O27 1.282 . S
O24 U6 2.441 . S
O24 C10 1.249 . S
O25 U6 2.420 . S
O25 C10 1.202 . S
O26 U6 2.455 . S
O26 C23 1.301 . S
O27 U6 2.449 . S
O27 C23 1.282 . S
H28 C1 0.931 . S
H29 C3 0.929 . S
H30 C4 0.930 . S
H31 C5 0.931 . S
H32 C12 0.932 . S
H33 C13 0.930 . S
H34 C14 0.929 1_556 S
H35 C16 0.930 . S
H36 C18 0.932 . S
H37 C19 0.929 1_554 S
H38 C20 0.928 . S
H39 C22 0.932 . S
C40 C41 1.264 . S
C40 C45 1.479 . S
C40 C50 1.465 . S
C41 C40 1.264 . S
C41 C43 1.339 . S
C41 H68 0.931 . S
C42 C43 1.395 . S
C42 C44 1.320 . S
C43 C41 1.339 . S
C43 C42 1.395 . S
C43 H69 0.929 . S
C44 C42 1.320 . S
C44 C45 1.405 . S
C44 H70 0.930 . S
C45 C40 1.479 . S
C45 C44 1.405 . S
C45 H71 0.931 . S
U46 O47 2.454 . S
U46 O48 2.458 1_554 S
U46 C49 2.984 . S
U46 C50 2.847 . S
U46 C63 2.882 1_554 S
U46 O64 2.441 . S
U46 O65 2.420 . S
U46 O66 2.455 1_554 S
U46 O67 2.449 . S
O47 U46 2.454 . S
O47 C49 1.353 . S
O48 U46 2.458 1_556 S
O48 C49 1.286 1_556 S
C49 U46 2.984 . S
C49 O47 1.353 . S
C49 O48 1.286 1_554 S
C49 C51 1.363 . S
C50 C40 1.465 . S
C50 U46 2.847 . S
C50 O64 1.249 . S
C50 O65 1.202 . S
C51 C49 1.363 . S
C51 C53 1.408 . S
C51 C56 1.342 1_554 S
C52 C53 1.310 . S
C52 C55 1.463 . S
C52 H72 0.932 . S
C53 C51 1.408 . S
C53 C52 1.310 . S
C53 H73 0.930 . S
C54 C55 1.472 1_556 S
C54 C56 1.285 . S
C54 H74 0.929 . S
C55 C52 1.463 . S
C55 C54 1.472 1_554 S
C56 C51 1.342 1_556 S
C56 C54 1.285 . S
C56 H75 0.930 . S
C57 C60 1.424 . S
C57 C62 1.245 . S
C57 C63 1.428 . S
C58 C61 1.260 . S
C58 C62 1.477 . S
C58 H76 0.932 . S
C59 C60 1.384 . S
C59 C61 1.479 . S
C59 H77 0.929 . S
C60 C57 1.424 . S
C60 C59 1.384 . S
C60 H78 0.928 . S
C61 C58 1.260 . S
C61 C59 1.479 . S
C62 C57 1.245 . S
C62 C58 1.477 . S
C62 H79 0.932 . S
C63 U46 2.882 1_556 S
C63 C57 1.428 . S
C63 O66 1.301 . S
C63 O67 1.282 1_556 S
O64 U46 2.441 . S
O64 C50 1.249 . S
O65 U46 2.420 . S
O65 C50 1.202 . S
O66 U46 2.455 1_556 S
O66 C63 1.301 . S
O67 U46 2.449 . S
O67 C63 1.282 1_554 S
H68 C41 0.931 . S
H69 C43 0.929 . S
H70 C44 0.930 . S
H71 C45 0.931 . S
H72 C52 0.932 . S
H73 C53 0.930 . S
H74 C54 0.929 . S
H75 C56 0.930 . S
H76 C58 0.932 . S
H77 C59 0.929 . S
H78 C60 0.928 . S
H79 C62 0.932 . S
C80 C81 1.264 . S
C80 C85 1.479 . S
C80 C90 1.465 . S
C81 C80 1.264 . S
C81 C83 1.339 . S
C81 H108 0.931 . S
C82 C83 1.395 . S
C82 C84 1.320 . S
C83 C81 1.339 . S
C83 C82 1.395 . S
C83 H109 0.929 . S
C84 C82 1.320 . S
C84 C85 1.405 . S
C84 H110 0.930 1_545 S
C85 C80 1.479 . S
C85 C84 1.405 . S
C85 H111 0.931 . S
U86 O87 2.454 . S
U86 O88 2.458 1_554 S
U86 C89 2.984 . S
U86 C90 2.847 . S
U86 C103 2.882 1_554 S
U86 O104 2.441 . S
U86 O105 2.420 . S
U86 O106 2.455 1_554 S
U86 O107 2.449 . S
O87 U86 2.454 . S
O87 C89 1.353 . S
O88 U86 2.458 1_556 S
O88 C89 1.286 1_556 S
C89 U86 2.984 . S
C89 O87 1.353 . S
C89 O88 1.286 1_554 S
C89 C91 1.363 . S
C90 C80 1.465 . S
C90 U86 2.847 . S
C90 O104 1.249 . S
C90 O105 1.202 . S
C91 C89 1.363 . S
C91 C93 1.408 . S
C91 C96 1.342 1_554 S
C92 C93 1.310 . S
C92 C95 1.463 1_554 S
C92 H112 0.932 . S
C93 C91 1.408 . S
C93 C92 1.310 . S
C93 H113 0.930 . S
C94 C95 1.473 1_565 S
C94 C96 1.284 1_565 S
C94 H114 0.932 . S
C95 C92 1.463 1_556 S
C95 C94 1.473 1_545 S
C96 C91 1.342 1_556 S
C96 C94 1.284 1_545 S
C96 H115 0.930 . S
C97 C100 1.424 . S
C97 C102 1.245 . S
C97 C103 1.428 . S
C98 C101 1.260 . S
C98 C102 1.477 . S
C98 H116 0.932 . S
C99 C100 1.384 . S
C99 C101 1.479 . S
C99 H117 0.929 . S
C100 C97 1.424 . S
C100 C99 1.384 . S
C100 H118 0.928 . S
C101 C98 1.260 . S
C101 C99 1.479 . S
C102 C97 1.245 . S
C102 C98 1.477 . S
C102 H119 0.932 . S
C103 U86 2.882 1_556 S
C103 C97 1.428 . S
C103 O106 1.301 . S
C103 O107 1.282 1_556 S
O104 U86 2.441 . S
O104 C90 1.249 . S
O105 U86 2.420 . S
O105 C90 1.202 . S
O106 U86 2.455 1_556 S
O106 C103 1.301 . S
O107 U86 2.449 . S
O107 C103 1.282 1_554 S
H108 C81 0.931 . S
H109 C83 0.929 . S
H110 C84 0.930 1_565 S
H111 C85 0.931 . S
H112 C92 0.932 . S
H113 C93 0.930 . S
H114 C94 0.932 . S
H115 C96 0.930 . S
H116 C98 0.932 . S
H117 C99 0.929 . S
H118 C100 0.928 . S
H119 C102 0.932 . S
C120 C121 1.264 . S
C120 C125 1.479 . S
C120 C130 1.465 . S
C121 C120 1.264 . S
C121 C123 1.339 . S
C121 H148 0.931 . S
C122 C123 1.395 . S
C122 C124 1.320 . S
C123 C121 1.339 . S
C123 C122 1.395 . S
C123 H149 0.929 . S
C124 C122 1.320 . S
C124 C125 1.405 . S
C124 H150 0.930 . S
C125 C120 1.479 . S
C125 C124 1.405 . S
C125 H151 0.931 . S
U126 O127 2.454 . S
U126 O128 2.458 . S
U126 C129 2.984 . S
U126 C130 2.847 . S
U126 C143 2.882 . S
U126 O144 2.441 . S
U126 O145 2.420 . S
U126 O146 2.455 . S
U126 O147 2.449 . S
O127 U126 2.454 . S
O127 C129 1.353 . S
O128 U126 2.458 . S
O128 C129 1.286 . S
C129 U126 2.984 . S
C129 O127 1.353 . S
C129 O128 1.286 . S
C129 C131 1.363 . S
C130 C120 1.465 . S
C130 U126 2.847 . S
C130 O144 1.249 . S
C130 O145 1.202 . S
C131 C129 1.363 . S
C131 C133 1.408 . S
C131 C136 1.342 1_554 S
C132 C133 1.310 . S
C132 C135 1.461 . S
C132 H152 0.932 . S
C133 C131 1.408 . S
C133 C132 1.310 . S
C133 H153 0.930 . S
C134 C135 1.474 1_556 S
C134 C136 1.285 . S
C134 H154 0.929 . S
C135 C132 1.461 . S
C135 C134 1.474 1_554 S
C136 C131 1.342 1_556 S
C136 C134 1.285 . S
C136 H155 0.930 . S
C137 C140 1.424 1_556 S
C137 C142 1.245 . S
C137 C143 1.428 1_556 S
C138 C141 1.260 . S
C138 C142 1.477 . S
C138 H156 0.932 . S
C139 C140 1.384 1_556 S
C139 C141 1.479 . S
C139 H157 0.929 . S
C140 C137 1.424 1_554 S
C140 C139 1.384 1_554 S
C140 H158 0.928 . S
C141 C138 1.260 . S
C141 C139 1.479 . S
C142 C137 1.245 . S
C142 C138 1.477 . S
C142 H159 0.932 . S
C143 U126 2.882 . S
C143 C137 1.428 1_554 S
C143 O146 1.301 . S
C143 O147 1.282 . S
O144 U126 2.441 . S
O144 C130 1.249 . S
O145 U126 2.420 . S
O145 C130 1.202 . S
O146 U126 2.455 . S
O146 C143 1.301 . S
O147 U126 2.449 . S
O147 C143 1.282 . S
H148 C121 0.931 . S
H149 C123 0.929 . S
H150 C124 0.930 . S
H151 C125 0.931 . S
H152 C132 0.932 . S
H153 C133 0.930 . S
H154 C134 0.929 . S
H155 C136 0.930 . S
H156 C138 0.932 . S
H157 C139 0.929 . S
H158 C140 0.928 . S
H159 C142 0.932 . S
C160 C161 1.264 . S
C160 C165 1.479 . S
C160 C170 1.465 . S
C161 C160 1.264 . S
C161 C163 1.339 . S
C161 H188 0.931 . S
C162 C163 1.395 1_556 S
C162 C164 1.320 . S
C163 C161 1.339 . S
C163 C162 1.395 1_554 S
C163 H189 0.929 . S
C164 C162 1.320 . S
C164 C165 1.405 1_556 S
C164 H190 0.930 . S
C165 C160 1.479 . S
C165 C164 1.405 1_554 S
C165 H191 0.931 . S
U166 O167 2.454 . S
U166 O168 2.458 . S
U166 C169 2.984 . S
U166 C170 2.847 . S
U166 C183 2.882 . S
U166 O184 2.441 . S
U166 O185 2.420 . S
U166 O186 2.455 . S
U166 O187 2.449 . S
O167 U166 2.454 . S
O167 C169 1.353 . S
O168 U166 2.458 . S
O168 C169 1.286 . S
C169 U166 2.984 . S
C169 O167 1.353 . S
C169 O168 1.286 . S
C169 C171 1.363 . S
C170 C160 1.465 . S
C170 U166 2.847 . S
C170 O184 1.249 . S
C170 O185 1.202 . S
C171 C169 1.363 . S
C171 C173 1.408 . S
C171 C176 1.342 . S
C172 C173 1.310 . S
C172 C175 1.461 . S
C172 H192 0.932 . S
C173 C171 1.408 . S
C173 C172 1.310 . S
C173 H193 0.930 . S
C174 C175 1.474 . S
C174 C176 1.285 . S
C174 H194 0.929 . S
C175 C172 1.461 . S
C175 C174 1.474 . S
C176 C171 1.342 . S
C176 C174 1.285 . S
C176 H195 0.930 . S
C177 C180 1.424 . S
C177 C182 1.245 . S
C177 C183 1.428 . S
C178 C181 1.260 . S
C178 C182 1.477 . S
C178 H196 0.932 . S
C179 C180 1.384 . S
C179 C181 1.479 . S
C179 H197 0.929 . S
C180 C177 1.424 . S
C180 C179 1.384 . S
C180 H198 0.928 . S
C181 C178 1.260 . S
C181 C179 1.479 . S
C182 C177 1.245 . S
C182 C178 1.477 . S
C182 H199 0.932 . S
C183 U166 2.882 . S
C183 C177 1.428 . S
C183 O186 1.301 . S
C183 O187 1.282 . S
O184 U166 2.441 . S
O184 C170 1.249 . S
O185 U166 2.420 . S
O185 C170 1.202 . S
O186 U166 2.455 . S
O186 C183 1.301 . S
O187 U166 2.449 . S
O187 C183 1.282 . S
H188 C161 0.931 . S
H189 C163 0.929 . S
H190 C164 0.930 . S
H191 C165 0.931 . S
H192 C172 0.932 . S
H193 C173 0.930 . S
H194 C174 0.929 . S
H195 C176 0.930 . S
H196 C178 0.932 . S
H197 C179 0.929 . S
H198 C180 0.928 . S
H199 C182 0.932 . S
C200 C201 1.264 . S
C200 C205 1.479 . S
C200 C210 1.465 . S
C201 C200 1.264 . S
C201 C203 1.339 . S
C201 H228 0.931 . S
C202 C203 1.395 . S
C202 C204 1.320 . S
C203 C201 1.339 . S
C203 C202 1.395 . S
C203 H229 0.929 . S
C204 C202 1.320 . S
C204 C205 1.405 . S
C204 H230 0.930 . S
C205 C200 1.479 . S
C205 C204 1.405 . S
C205 H231 0.931 . S
U206 O207 2.454 . S
U206 O208 2.458 . S
U206 C209 2.984 . S
U206 C210 2.847 . S
U206 C223 2.882 . S
U206 O224 2.441 . S
U206 O225 2.420 . S
U206 O226 2.455 . S
U206 O227 2.449 . S
O207 U206 2.454 . S
O207 C209 1.353 . S
O208 U206 2.458 . S
O208 C209 1.286 . S
C209 U206 2.984 . S
C209 O207 1.353 . S
C209 O208 1.286 . S
C209 C211 1.363 . S
C210 C200 1.465 . S
C210 U206 2.847 . S
C210 O224 1.249 . S
C210 O225 1.202 . S
C211 C209 1.363 . S
C211 C213 1.408 . S
C211 C216 1.342 . S
C212 C213 1.310 . S
C212 C215 1.461 . S
C212 H232 0.932 . S
C213 C211 1.408 . S
C213 C212 1.310 . S
C213 H233 0.930 . S
C214 C215 1.474 . S
C214 C216 1.285 . S
C214 H234 0.929 . S
C215 C212 1.461 . S
C215 C214 1.474 . S
C216 C211 1.342 . S
C216 C214 1.285 . S
C216 H235 0.930 . S
C217 C220 1.424 . S
C217 C222 1.245 . S
C217 C223 1.428 . S
C218 C221 1.260 . S
C218 C222 1.477 . S
C218 H236 0.932 . S
C219 C220 1.384 . S
C219 C221 1.479 . S
C219 H237 0.929 . S
C220 C217 1.424 . S
C220 C219 1.384 . S
C220 H238 0.928 . S
C221 C218 1.260 . S
C221 C219 1.479 . S
C222 C217 1.245 . S
C222 C218 1.477 . S
C222 H239 0.932 . S
C223 U206 2.882 . S
C223 C217 1.428 . S
C223 O226 1.301 . S
C223 O227 1.282 . S
O224 U206 2.441 . S
O224 C210 1.249 . S
O225 U206 2.420 . S
O225 C210 1.202 . S
O226 U206 2.455 . S
O226 C223 1.301 . S
O227 U206 2.449 . S
O227 C223 1.282 . S
H228 C201 0.931 . S
H229 C203 0.929 . S
H230 C204 0.930 . S
H231 C205 0.931 . S
H232 C212 0.932 . S
H233 C213 0.930 . S
H234 C214 0.929 . S
H235 C216 0.930 . S
H236 C218 0.932 . S
H237 C219 0.929 . S
H238 C220 0.928 . S
H239 C222 0.932 . S
C240 C241 1.264 . S
C240 C245 1.479 . S
C240 C250 1.465 . S
C241 C240 1.264 . S
C241 C243 1.339 . S
C241 H268 0.931 . S
C242 C243 1.395 . S
C242 C244 1.320 . S
C243 C241 1.339 . S
C243 C242 1.395 . S
C243 H269 0.929 . S
C244 C242 1.320 . S
C244 C245 1.405 . S
C244 H270 0.930 1_545 S
C245 C240 1.479 . S
C245 C244 1.405 . S
C245 H271 0.931 . S
U246 O247 2.454 . S
U246 O248 2.458 . S
U246 C249 2.984 . S
U246 C250 2.847 . S
U246 C263 2.882 . S
U246 O264 2.441 . S
U246 O265 2.420 . S
U246 O266 2.455 . S
U246 O267 2.449 . S
O247 U246 2.454 . S
O247 C249 1.353 . S
O248 U246 2.458 . S
O248 C249 1.286 . S
C249 U246 2.984 . S
C249 O247 1.353 . S
C249 O248 1.286 . S
C249 C251 1.363 . S
C250 C240 1.465 . S
C250 U246 2.847 . S
C250 O264 1.249 . S
C250 O265 1.202 . S
C251 C249 1.363 . S
C251 C253 1.408 . S
C251 C256 1.342 . S
C252 C253 1.310 . S
C252 C255 1.459 . S
C252 H272 0.932 . S
C253 C251 1.408 . S
C253 C252 1.310 . S
C253 H273 0.930 . S
C254 C255 1.475 1_565 S
C254 C256 1.286 1_565 S
C254 H274 0.929 . S
C255 C252 1.459 . S
C255 C254 1.475 1_545 S
C256 C251 1.342 . S
C256 C254 1.286 1_545 S
C256 H275 0.930 . S
C257 C260 1.424 . S
C257 C262 1.245 . S
C257 C263 1.428 . S
C258 C261 1.260 . S
C258 C262 1.477 . S
C258 H276 0.932 . S
C259 C260 1.384 . S
C259 C261 1.479 . S
C259 H277 0.929 . S
C260 C257 1.424 . S
C260 C259 1.384 . S
C260 H278 0.928 . S
C261 C258 1.260 . S
C261 C259 1.479 . S
C262 C257 1.245 . S
C262 C258 1.477 . S
C262 H279 0.932 . S
C263 U246 2.882 . S
C263 C257 1.428 . S
C263 O266 1.301 . S
C263 O267 1.282 . S
O264 U246 2.441 . S
O264 C250 1.249 . S
O265 U246 2.420 . S
O265 C250 1.202 . S
O266 U246 2.455 . S
O266 C263 1.301 . S
O267 U246 2.449 . S
O267 C263 1.282 . S
H268 C241 0.931 . S
H269 C243 0.929 . S
H270 C244 0.930 1_565 S
H271 C245 0.931 . S
H272 C252 0.932 . S
H273 C253 0.930 . S
H274 C254 0.929 . S
H275 C256 0.930 . S
H276 C258 0.932 . S
H277 C259 0.929 . S
H278 C260 0.928 . S
H279 C262 0.932 . S
C280 C281 1.264 . S
C280 C285 1.479 . S
C280 C290 1.465 . S
C281 C280 1.264 . S
C281 C283 1.339 . S
C281 H308 0.931 . S
C282 C283 1.395 1_556 S
C282 C284 1.320 1_556 S
C283 C281 1.339 . S
C283 C282 1.395 1_554 S
C283 H309 0.929 . S
C284 C282 1.320 1_554 S
C284 C285 1.405 . S
C284 H310 0.930 1_554 S
C285 C280 1.479 . S
C285 C284 1.405 . S
C285 H311 0.931 . S
U286 O287 2.454 . S
U286 O288 2.458 . S
U286 C289 2.984 . S
U286 C290 2.847 . S
U286 C303 2.882 . S
U286 O304 2.441 . S
U286 O305 2.420 . S
U286 O306 2.455 . S
U286 O307 2.449 . S
O287 U286 2.454 . S
O287 C289 1.353 . S
O288 U286 2.458 . S
O288 C289 1.286 . S
C289 U286 2.984 . S
C289 O287 1.353 . S
C289 O288 1.286 . S
C289 C291 1.363 . S
C290 C280 1.465 . S
C290 U286 2.847 . S
C290 O304 1.249 . S
C290 O305 1.202 . S
C291 C289 1.363 . S
C291 C293 1.408 . S
C291 C296 1.342 . S
C292 C293 1.310 . S
C292 C295 1.461 . S
C292 H312 0.932 . S
C293 C291 1.408 . S
C293 C292 1.310 . S
C293 H313 0.930 . S
C294 C295 1.474 . S
C294 C296 1.285 . S
C294 H314 0.929 . S
C295 C292 1.461 . S
C295 C294 1.474 . S
C296 C291 1.342 . S
C296 C294 1.285 . S
C296 H315 0.930 . S
C297 C300 1.424 . S
C297 C302 1.245 . S
C297 C303 1.428 . S
C298 C301 1.260 . S
C298 C302 1.477 . S
C298 H316 0.932 . S
C299 C300 1.384 . S
C299 C301 1.479 . S
C299 H317 0.929 . S
C300 C297 1.424 . S
C300 C299 1.384 . S
C300 H318 0.928 . S
C301 C298 1.260 . S
C301 C299 1.479 . S
C302 C297 1.245 . S
C302 C298 1.477 . S
C302 H319 0.932 . S
C303 U286 2.882 . S
C303 C297 1.428 . S
C303 O306 1.301 . S
C303 O307 1.282 . S
O304 U286 2.441 . S
O304 C290 1.249 . S
O305 U286 2.420 . S
O305 C290 1.202 . S
O306 U286 2.455 . S
O306 C303 1.301 . S
O307 U286 2.449 . S
O307 C303 1.282 . S
H308 C281 0.931 . S
H309 C283 0.929 . S
H310 C284 0.930 1_556 S
H311 C285 0.931 . S
H312 C292 0.932 . S
H313 C293 0.930 . S
H314 C294 0.929 . S
H315 C296 0.930 . S
H316 C298 0.932 . S
H317 C299 0.929 . S
H318 C300 0.928 . S
H319 C302 0.932 . S
Co320 N325 2.057 1_556 S
Co320 O337 2.021 1_545 S
Co320 O340 2.062 . S
Co320 O344 2.117 1_455 S
Co320 O345 2.020 1_545 S
C321 O341 1.259 . S
C321 O344 1.258 . S
Co322 N331 2.056 1_455 S
Co322 O338 2.117 . S
Co322 O339 2.020 1_565 S
Co322 O341 2.021 1_465 S
Co322 O346 2.062 1_455 S
C323 N325 1.316 . S
C323 N326 1.347 . S
C323 H328 0.931 . S
C324 N325 1.375 . S
C324 C327 1.350 . S
C324 H329 0.930 1_455 S
N325 Co320 2.057 1_554 S
N325 C323 1.316 . S
N325 C324 1.375 . S
N326 C323 1.347 . S
N326 C327 1.373 . S
C327 C324 1.350 . S
C327 N326 1.373 . S
C327 H348 0.931 . S
H328 C323 0.931 . S
H329 C324 0.930 1_655 S
C330 O337 1.259 . S
C330 O338 1.258 . S
N331 Co322 2.056 1_655 S
N331 C332 1.336 . S
N331 C333 1.357 1_655 S
C332 N331 1.336 . S
C332 N334 1.347 . S
C332 H343 0.931 . S
C333 N331 1.357 1_455 S
C333 C335 1.350 . S
C333 H342 0.930 . S
N334 C332 1.347 . S
N334 C335 1.373 1_655 S
C335 C333 1.350 . S
C335 N334 1.373 1_455 S
C335 H349 0.931 . S
C336 O339 1.256 . S
C336 O340 1.255 . S
O337 Co320 2.021 1_565 S
O337 C330 1.259 . S
O338 Co322 2.117 . S
O338 C330 1.258 . S
O339 Co322 2.020 1_545 S
O339 C336 1.256 . S
O340 Co320 2.062 . S
O340 C336 1.255 . S
O341 C321 1.259 . S
O341 Co322 2.021 1_645 S
H342 C333 0.930 . S
H343 C332 0.931 . S
O344 Co320 2.117 1_655 S
O344 C321 1.258 . S
O345 Co320 2.020 1_565 S
O345 C347 1.256 . S
O346 Co322 2.062 1_655 S
O346 C347 1.255 1_655 S
C347 O345 1.256 . S
C347 O346 1.255 1_455 S
H348 C327 0.931 . S
H349 C335 0.931 . S
Co350 N355 2.057 1_546 S
Co350 O367 2.021 . S
Co350 O370 2.062 1_545 S
Co350 O374 2.117 1_545 S
Co350 O375 2.020 . S
C351 O371 1.259 . S
C351 O374 1.258 . S
Co352 N361 2.057 1_565 S
Co352 O368 2.117 1_565 S
Co352 O369 2.020 . S
Co352 O371 2.021 . S
Co352 O376 2.062 1_565 S
C353 N355 1.316 1_545 S
C353 N356 1.347 . S
C353 H358 0.931 . S
C354 N355 1.375 . S
C354 C357 1.350 . S
C354 H359 0.930 . S
N355 Co350 2.057 1_564 S
N355 C353 1.316 1_565 S
N355 C354 1.375 . S
N356 C353 1.347 . S
N356 C357 1.373 1_545 S
C357 C354 1.350 . S
C357 N356 1.373 1_565 S
C357 H378 0.931 . S
H358 C353 0.931 . S
H359 C354 0.930 . S
C360 O367 1.259 . S
C360 O368 1.258 . S
N361 Co352 2.057 1_545 S
N361 C362 1.316 1_545 S
N361 C363 1.375 . S
C362 N361 1.316 1_565 S
C362 N364 1.347 . S
C362 H373 0.931 . S
C363 N361 1.375 . S
C363 C365 1.350 . S
C363 H372 0.930 . S
N364 C362 1.347 . S
N364 C365 1.373 1_565 S
C365 C363 1.350 . S
C365 N364 1.373 1_545 S
C365 H379 0.931 . S
C366 O369 1.256 . S
C366 O370 1.255 . S
O367 Co350 2.021 . S
O367 C360 1.259 . S
O368 Co352 2.117 1_545 S
O368 C360 1.258 . S
O369 Co352 2.020 . S
O369 C366 1.256 . S
O370 Co350 2.062 1_565 S
O370 C366 1.255 . S
O371 C351 1.259 . S
O371 Co352 2.021 . S
H372 C363 0.930 . S
H373 C362 0.931 . S
O374 Co350 2.117 1_565 S
O374 C351 1.258 . S
O375 Co350 2.020 . S
O375 C377 1.256 . S
O376 Co352 2.062 1_545 S
O376 C377 1.255 . S
C377 O375 1.256 . S
C377 O376 1.255 . S
H378 C357 0.931 . S
H379 C365 0.931 . S
Co380 N385 2.057 . S
Co380 O397 2.021 . S
Co380 O400 2.062 . S
Co380 O404 2.117 . S
Co380 O405 2.020 . S
C381 O401 1.259 . S
C381 O404 1.258 . S
Co382 N391 2.057 . S
Co382 O398 2.117 . S
Co382 O399 2.020 . S
Co382 O401 2.021 . S
Co382 O406 2.062 . S
C383 N385 1.316 . S
C383 N386 1.347 . S
C383 H388 0.931 . S
C384 N385 1.375 . S
C384 C387 1.350 . S
C384 H389 0.930 . S
N385 Co380 2.057 . S
N385 C383 1.316 . S
N385 C384 1.375 . S
N386 C383 1.347 . S
N386 C387 1.373 . S
C387 C384 1.350 . S
C387 N386 1.373 . S
C387 H408 0.931 1_556 S
H388 C383 0.931 . S
H389 C384 0.930 . S
C390 O397 1.259 . S
C390 O398 1.258 . S
N391 Co382 2.057 . S
N391 C392 1.316 . S
N391 C393 1.375 . S
C392 N391 1.316 . S
C392 N394 1.347 . S
C392 H403 0.931 . S
C393 N391 1.375 . S
C393 C395 1.350 . S
C393 H402 0.930 . S
N394 C392 1.347 . S
N394 C395 1.373 . S
C395 C393 1.350 . S
C395 N394 1.373 . S
C395 H409 0.931 . S
C396 O399 1.256 . S
C396 O400 1.255 . S
O397 Co380 2.021 . S
O397 C390 1.259 . S
O398 Co382 2.117 . S
O398 C390 1.258 . S
O399 Co382 2.020 . S
O399 C396 1.256 . S
O400 Co380 2.062 . S
O400 C396 1.255 . S
O401 C381 1.259 . S
O401 Co382 2.021 . S
H402 C393 0.930 . S
H403 C392 0.931 . S
O404 Co380 2.117 . S
O404 C381 1.258 . S
O405 Co380 2.020 . S
O405 C407 1.256 . S
O406 Co382 2.062 . S
O406 C407 1.255 . S
C407 O405 1.256 . S
C407 O406 1.255 . S
H408 C387 0.931 1_554 S
H409 C395 0.931 . S
Co410 N415 2.057 . S
Co410 O427 2.021 1_455 S
Co410 O430 2.062 1_455 S
Co410 O434 2.117 . S
Co410 O435 2.020 . S
C411 O431 1.259 . S
C411 O434 1.258 . S
Co412 N421 2.057 . S
Co412 O428 2.117 1_455 S
Co412 O429 2.020 1_455 S
Co412 O431 2.021 . S
Co412 O436 2.062 . S
C413 N415 1.316 1_655 S
C413 N416 1.347 . S
C413 H418 0.931 . S
C414 N415 1.375 . S
C414 C417 1.350 . S
C414 H419 0.930 . S
N415 Co410 2.057 . S
N415 C413 1.316 1_455 S
N415 C414 1.375 . S
N416 C413 1.347 . S
N416 C417 1.373 1_655 S
C417 C414 1.350 . S
C417 N416 1.373 1_455 S
C417 H438 0.931 . S
H418 C413 0.931 . S
H419 C414 0.930 . S
C420 O427 1.259 . S
C420 O428 1.258 . S
N421 Co412 2.057 . S
N421 C422 1.316 . S
N421 C423 1.375 . S
C422 N421 1.316 . S
C422 N424 1.347 . S
C422 H433 0.931 . S
C423 N421 1.375 . S
C423 C425 1.350 . S
C423 H432 0.930 1_455 S
N424 C422 1.347 . S
N424 C425 1.373 . S
C425 C423 1.350 . S
C425 N424 1.373 . S
C425 H439 0.931 . S
C426 O429 1.256 . S
C426 O430 1.255 . S
O427 Co410 2.021 1_655 S
O427 C420 1.259 . S
O428 Co412 2.117 1_655 S
O428 C420 1.258 . S
O429 Co412 2.020 1_655 S
O429 C426 1.256 . S
O430 Co410 2.062 1_655 S
O430 C426 1.255 . S
O431 C411 1.259 . S
O431 Co412 2.021 . S
H432 C423 0.930 1_655 S
H433 C422 0.931 . S
O434 Co410 2.117 . S
O434 C411 1.258 . S
O435 Co410 2.020 . S
O435 C437 1.256 . S
O436 Co412 2.062 . S
O436 C437 1.255 . S
C437 O435 1.256 . S
C437 O436 1.255 . S
H438 C417 0.931 . S
H439 C425 0.931 . S
C255 C330 2.215 1_545 S
C360 C295 3.034 . S
N394 C175 2.560 . S
N424 C215 3.551 . S
C321 C95 2.210 . S
C135 C351 3.014 1_554 S
C15 N386 2.560 1_554 S
C55 N416 3.524 1_554 S
C336 C221 4.325 . S
C366 C261 2.663 1_565 S
C407 C301 2.475 . S
C181 C437 0.532 . S
C61 C347 4.038 1_655 S
C377 C101 2.610 . S
C396 C141 2.165 . S
C21 C426 0.583 . S
C202 N326 3.763 . S
C242 N356 3.327 . S
C381 C282 3.433 . S
C411 C162 2.939 . S
C42 N334 3.563 . S
N364 C82 3.351 1_565 S
C390 C122 3.305 . S
C2 C420 3.044 . S
