# Generated by pormake.
# Topology pyr, (3,6)-cn, num edge types: 1
# Building blocks:
#     Node 0, Type 0, BuildingBlock: WUSLED_clean_sbu_0, # of connection points: 3
#     Node 1, Type 0, BuildingBlock: WUSLED_clean_sbu_0, # of connection points: 3
#     Node 2, Type 0, BuildingBlock: WUSLED_clean_sbu_0, # of connection points: 3
#     Node 3, Type 0, BuildingBlock: WUSLED_clean_sbu_0, # of connection points: 3
#     Node 4, Type 0, BuildingBlock: WUSLED_clean_sbu_0, # of connection points: 3
#     Node 5, Type 0, BuildingBlock: WUSLED_clean_sbu_0, # of connection points: 3
#     Node 6, Type 0, BuildingBlock: WUSLED_clean_sbu_0, # of connection points: 3
#     Node 7, Type 0, BuildingBlock: WUSLED_clean_sbu_0, # of connection points: 3
#     Node 8, Type 1, BuildingBlock: PAMTOO_clean_sbu_0, # of connection points: 6
#     Node 9, Type 1, BuildingBlock: PAMTOO_clean_sbu_0, # of connection points: 6
#     Node 10, Type 1, BuildingBlock: PAMTOO_clean_sbu_0, # of connection points: 6
#     Node 11, Type 1, BuildingBlock: PAMTOO_clean_sbu_0, # of connection points: 6
#     Edge 12, Type (0, 1), BuildingBlock: ZUJKAS_clean_linker_0, # of connection points: 2
#     Edge 13, Type (0, 1), BuildingBlock: ZUJKAS_clean_linker_0, # of connection points: 2
#     Edge 14, Type (0, 1), BuildingBlock: ZUJKAS_clean_linker_0, # of connection points: 2
#     Edge 15, Type (0, 1), BuildingBlock: ZUJKAS_clean_linker_0, # of connection points: 2
#     Edge 16, Type (0, 1), BuildingBlock: ZUJKAS_clean_linker_0, # of connection points: 2
#     Edge 17, Type (0, 1), BuildingBlock: ZUJKAS_clean_linker_0, # of connection points: 2
#     Edge 18, Type (0, 1), BuildingBlock: ZUJKAS_clean_linker_0, # of connection points: 2
#     Edge 19, Type (0, 1), BuildingBlock: ZUJKAS_clean_linker_0, # of connection points: 2
#     Edge 20, Type (0, 1), BuildingBlock: ZUJKAS_clean_linker_0, # of connection points: 2
#     Edge 21, Type (0, 1), BuildingBlock: ZUJKAS_clean_linker_0, # of connection points: 2
#     Edge 22, Type (0, 1), BuildingBlock: ZUJKAS_clean_linker_0, # of connection points: 2
#     Edge 23, Type (0, 1), BuildingBlock: ZUJKAS_clean_linker_0, # of connection points: 2
#     Edge 24, Type (0, 1), BuildingBlock: ZUJKAS_clean_linker_0, # of connection points: 2
#     Edge 25, Type (0, 1), BuildingBlock: ZUJKAS_clean_linker_0, # of connection points: 2
#     Edge 26, Type (0, 1), BuildingBlock: ZUJKAS_clean_linker_0, # of connection points: 2
#     Edge 27, Type (0, 1), BuildingBlock: ZUJKAS_clean_linker_0, # of connection points: 2
#     Edge 28, Type (0, 1), BuildingBlock: ZUJKAS_clean_linker_0, # of connection points: 2
#     Edge 29, Type (0, 1), BuildingBlock: ZUJKAS_clean_linker_0, # of connection points: 2
#     Edge 30, Type (0, 1), BuildingBlock: ZUJKAS_clean_linker_0, # of connection points: 2
#     Edge 31, Type (0, 1), BuildingBlock: ZUJKAS_clean_linker_0, # of connection points: 2
#     Edge 32, Type (0, 1), BuildingBlock: ZUJKAS_clean_linker_0, # of connection points: 2
#     Edge 33, Type (0, 1), BuildingBlock: ZUJKAS_clean_linker_0, # of connection points: 2
#     Edge 34, Type (0, 1), BuildingBlock: ZUJKAS_clean_linker_0, # of connection points: 2
#     Edge 35, Type (0, 1), BuildingBlock: ZUJKAS_clean_linker_0, # of connection points: 2
# Relax obj value: 0.064
# Max RMSD: 0.143
# Mean RMSD: 0.060
data_MOF--net-pyr--node1-WUSLED_clean_sbu_0--node2-PAMTOO_clean_sbu_0--edge1-ZUJKAS_clean_linker_0
_symmetry_space_group_name_H-M    P1
_symmetry_Int_Tables_number       1
_symmetry_cell_setting            triclinic
loop_
_symmetry_equiv_pos_as_xyz
'x, y, z'
_cell_length_a     58.369265
_cell_length_b     61.082148
_cell_length_c     61.821579
_cell_angle_alpha  89.90745
_cell_angle_beta   90.173284
_cell_angle_gamma 101.31731
loop_
_atom_site_label
_atom_site_type_symbol
_atom_site_fract_x
_atom_site_fract_y
_atom_site_fract_z
_atom_type_partial_charge
C0 C 0.28624 0.28704 0.15163 0.0
C1 C 0.26773 0.29084 0.16458 0.0
C2 C 0.25549 0.31382 0.13638 0.0
C3 C 0.25248 0.30405 0.15702 0.0
C4 C 0.27449 0.31056 0.12365 0.0
C5 C 0.28973 0.29713 0.13121 0.0
U6 U 0.29946 0.25064 0.19638 0.0
O7 O 0.30477 0.21609 0.19716 0.0
O8 O 0.33209 0.24307 0.20968 0.0
C9 C 0.32611 0.22175 0.20486 0.0
C10 C 0.30097 0.27174 0.15936 0.0
C11 C 0.34368 0.21201 0.19343 0.0
C12 C 0.36343 0.20515 0.16035 0.0
C13 C 0.34808 0.21613 0.17136 0.0
C14 C 0.37052 0.18634 0.19355 0.0
C15 C 0.37453 0.18985 0.17127 0.0
C16 C 0.3552 0.19732 0.20451 0.0
C17 C 0.26126 0.24845 0.24637 0.0
C18 C 0.26583 0.22463 0.27689 0.0
C19 C 0.2319 0.24193 0.27454 0.0
C20 C 0.24027 0.25215 0.25512 0.0
C21 C 0.24444 0.22783 0.28552 0.0
C22 C 0.27414 0.23481 0.25741 0.0
C23 C 0.26865 0.25764 0.22504 0.0
O24 O 0.31472 0.27919 0.17574 0.0
O25 O 0.28967 0.25109 0.16207 0.0
O26 O 0.26365 0.24339 0.20902 0.0
O27 O 0.2899 0.26974 0.22394 0.0
H28 H 0.26485 0.28323 0.18044 0.0
H29 H 0.23822 0.30656 0.16732 0.0
H30 H 0.27714 0.31785 0.10765 0.0
H31 H 0.30394 0.29432 0.12102 0.0
H32 H 0.36598 0.20806 0.14316 0.0
H33 H 0.3392 0.2274 0.16257 0.0
H34 H 0.37907 0.17494 0.20248 0.0
H35 H 0.35199 0.19399 0.22157 0.0
H36 H 0.27603 0.21409 0.28506 0.0
H37 H 0.21521 0.24448 0.28052 0.0
H38 H 0.23005 0.26249 0.24665 0.0
H39 H 0.29036 0.23171 0.25077 0.0
C40 C 0.18996 0.80723 0.65618 0.0
C41 C 0.18167 0.82128 0.67089 0.0
C42 C 0.15971 0.8351 0.64215 0.0
C43 C 0.16663 0.83505 0.66396 0.0
C44 C 0.16769 0.8206 0.62756 0.0
C45 C 0.18275 0.80679 0.63454 0.0
U46 U 0.23236 0.79595 0.69855 0.0
O47 O 0.24215 0.76496 0.71019 0.0
O48 O 0.26872 0.79166 0.6962 0.0
C49 C 0.26394 0.77121 0.70385 0.0
C50 C 0.20735 0.79429 0.66314 0.0
C51 C 0.27358 0.75478 0.69138 0.0
C52 C 0.2765 0.73429 0.65822 0.0
C53 C 0.26586 0.74887 0.6703 0.0
C54 C 0.30232 0.73122 0.6884 0.0
C55 C 0.29501 0.72546 0.66709 0.0
C56 C 0.29168 0.74574 0.70041 0.0
C57 C 0.23986 0.82974 0.7497 0.0
C58 C 0.26872 0.82276 0.77581 0.0
C59 C 0.25183 0.85584 0.779 0.0
C60 C 0.23812 0.84937 0.76066 0.0
C61 C 0.26756 0.84277 0.78658 0.0
C62 C 0.25503 0.81634 0.75748 0.0
C63 C 0.22742 0.82422 0.72919 0.0
O64 O 0.22869 0.80603 0.66479 0.0
O65 O 0.20121 0.7809 0.67971 0.0
O66 O 0.21456 0.804 0.72797 0.0
O67 O 0.24035 0.82988 0.71196 0.0
H68 H 0.18719 0.8219 0.68767 0.0
H69 H 0.16056 0.84579 0.67566 0.0
H70 H 0.16292 0.82044 0.61061 0.0
H71 H 0.18919 0.79617 0.62295 0.0
H72 H 0.27034 0.73002 0.64193 0.0
H73 H 0.25189 0.7558 0.66311 0.0
H74 H 0.31678 0.72508 0.6956 0.0
H75 H 0.29793 0.7503 0.71663 0.0
H76 H 0.28043 0.8122 0.78139 0.0
H77 H 0.25075 0.87149 0.78676 0.0
H78 H 0.22665 0.86 0.7547 0.0
H79 H 0.25668 0.80117 0.74908 0.0
C80 C 0.63721 0.37818 0.78823 0.0
C81 C 0.65166 0.38051 0.76982 0.0
C82 C 0.62571 0.40114 0.75062 0.0
C83 C 0.646 0.39184 0.75132 0.0
C84 C 0.61155 0.3991 0.76923 0.0
C85 C 0.61718 0.38776 0.78767 0.0
U86 U 0.67089 0.3624 0.83922 0.0
O87 O 0.65665 0.34869 0.87061 0.0
O88 O 0.67576 0.32918 0.85 0.0
C89 C 0.66425 0.32997 0.86816 0.0
C90 C 0.64121 0.36409 0.80718 0.0
C91 C 0.64951 0.30901 0.87653 0.0
C92 C 0.63171 0.26943 0.87311 0.0
C93 C 0.64244 0.28987 0.86365 0.0
C94 C 0.63457 0.28703 0.90828 0.0
C95 C 0.62816 0.26764 0.89566 0.0
C96 C 0.64505 0.30738 0.89884 0.0
C97 C 0.72879 0.4002 0.85826 0.0
C98 C 0.74611 0.40436 0.8944 0.0
C99 C 0.76974 0.41773 0.86324 0.0
C100 C 0.75048 0.41043 0.84967 0.0
C101 C 0.76782 0.41508 0.88585 0.0
C102 C 0.72683 0.39699 0.88076 0.0
C103 C 0.70843 0.39408 0.84348 0.0
O104 O 0.65854 0.35324 0.80607 0.0
O105 O 0.6389 0.37223 0.82657 0.0
O106 O 0.68788 0.39548 0.85138 0.0
O107 O 0.70781 0.3763 0.83139 0.0
H108 H 0.66717 0.37327 0.76952 0.0
H109 H 0.65756 0.39325 0.73751 0.0
H110 H 0.59561 0.40566 0.76935 0.0
H111 H 0.60545 0.38599 0.80139 0.0
H112 H 0.62707 0.25484 0.8629 0.0
H113 H 0.64582 0.2905 0.84642 0.0
H114 H 0.6318 0.28642 0.9256 0.0
H115 H 0.65048 0.32177 0.9092 0.0
H116 H 0.74381 0.40214 0.91169 0.0
H117 H 0.78618 0.42547 0.85594 0.0
H118 H 0.75249 0.41304 0.83239 0.0
H119 H 0.7103 0.38913 0.88786 0.0
C120 C 0.81247 0.64394 0.36027 0.0
C121 C 0.80246 0.65959 0.37168 0.0
C122 C 0.77393 0.62955 0.38841 0.0
C123 C 0.78338 0.65248 0.38556 0.0
C124 C 0.7843 0.61402 0.37709 0.0
C125 C 0.80328 0.62113 0.36324 0.0
U126 U 0.86724 0.68412 0.33771 0.0
O127 O 0.89898 0.67588 0.3232 0.0
O128 O 0.87645 0.69296 0.30368 0.0
C129 C 0.89483 0.6835 0.30396 0.0
C130 C 0.83181 0.65075 0.34461 0.0
C131 C 0.89863 0.66993 0.28467 0.0
C132 C 0.90552 0.63554 0.26785 0.0
C133 C 0.89966 0.64714 0.28607 0.0
C134 C 0.9091 0.66914 0.24643 0.0
C135 C 0.91056 0.6464 0.24773 0.0
C136 C 0.90325 0.68066 0.26458 0.0
C137 C 0.88803 0.74027 0.37123 0.0
C138 C 0.91872 0.7627 0.39344 0.0
C139 C 0.88959 0.78024 0.37652 0.0
C140 C 0.87913 0.75972 0.36727 0.0
C141 C 0.90924 0.78197 0.39016 0.0
C142 C 0.9082 0.74213 0.38421 0.0
C143 C 0.8739 0.71796 0.36513 0.0
O144 O 0.83056 0.66787 0.33206 0.0
O145 O 0.85307 0.65098 0.35182 0.0
O146 O 0.88325 0.70019 0.36757 0.0
O147 O 0.86026 0.71677 0.34803 0.0
H148 H 0.80926 0.6773 0.36974 0.0
H149 H 0.77612 0.66496 0.39415 0.0
H150 H 0.77741 0.59628 0.37851 0.0
H151 H 0.8106 0.60874 0.35455 0.0
H152 H 0.90609 0.61802 0.26957 0.0
H153 H 0.89626 0.63832 0.30129 0.0
H154 H 0.91317 0.67833 0.23149 0.0
H155 H 0.9029 0.69827 0.26303 0.0
H156 H 0.93367 0.76323 0.40398 0.0
H157 H 0.88196 0.7947 0.37328 0.0
H158 H 0.86343 0.75894 0.35768 0.0
H159 H 0.91533 0.7275 0.38804 0.0
C160 C 0.74597 0.75303 0.89526 0.0
C161 C 0.75861 0.74293 0.88028 0.0
C162 C 0.77668 0.72571 0.90957 0.0
C163 C 0.77374 0.72933 0.88736 0.0
C164 C 0.76343 0.73533 0.92453 0.0
C165 C 0.74823 0.74896 0.9174 0.0
U166 U 0.7343 0.79117 0.8511 0.0
O167 O 0.70231 0.80075 0.83861 0.0
O168 O 0.73091 0.82634 0.85134 0.0
C169 C 0.70939 0.82184 0.84391 0.0
C170 C 0.73239 0.76945 0.88779 0.0
C171 C 0.69265 0.83205 0.85602 0.0
C172 C 0.67153 0.83635 0.889 0.0
C173 C 0.68647 0.82549 0.8773 0.0
C174 C 0.66858 0.86012 0.85809 0.0
C175 C 0.66257 0.85394 0.87958 0.0
C176 C 0.68349 0.84926 0.84643 0.0
C177 C 0.77081 0.79298 0.80031 0.0
C178 C 0.76901 0.82093 0.77277 0.0
C179 C 0.79824 0.79779 0.77048 0.0
C180 C 0.78954 0.78674 0.78944 0.0
C181 C 0.78837 0.81531 0.76219 0.0
C182 C 0.76032 0.80986 0.79171 0.0
C183 C 0.76365 0.78319 0.82147 0.0
O184 O 0.74489 0.78962 0.88513 0.0
O185 O 0.71797 0.76294 0.87161 0.0
O186 O 0.74202 0.77204 0.82279 0.0
O187 O 0.7698 0.79677 0.83784 0.0
H188 H 0.75724 0.74604 0.86311 0.0
H189 H 0.7834 0.7219 0.87541 0.0
H190 H 0.76547 0.73303 0.94175 0.0
H191 H 0.73879 0.75685 0.92918 0.0
H192 H 0.66704 0.83103 0.90543 0.0
H193 H 0.69345 0.8122 0.88492 0.0
H194 H 0.6623 0.8738 0.85046 0.0
H195 H 0.68823 0.85458 0.83004 0.0
H196 H 0.76085 0.83417 0.76664 0.0
H197 H 0.81333 0.79325 0.76287 0.0
H198 H 0.79791 0.77383 0.79599 0.0
H199 H 0.74586 0.8149 0.79999 0.0
C200 C 0.76439 0.25081 0.30046 0.0
C201 C 0.77633 0.23541 0.29109 0.0
C202 C 0.74767 0.2287 0.26195 0.0
C203 C 0.76806 0.22448 0.27195 0.0
C204 C 0.7362 0.24465 0.27113 0.0
C205 C 0.7445 0.25559 0.29027 0.0
U206 U 0.8017 0.2533 0.35096 0.0
O207 O 0.81792 0.28187 0.37114 0.0
O208 O 0.79186 0.25478 0.38511 0.0
C209 C 0.80405 0.27513 0.38757 0.0
C210 C 0.77156 0.26063 0.32161 0.0
C211 C 0.79031 0.29129 0.39517 0.0
C212 C 0.75833 0.3107 0.38939 0.0
C213 C 0.7726 0.29653 0.38193 0.0
C214 C 0.77964 0.31503 0.42333 0.0
C215 C 0.76153 0.32003 0.41023 0.0
C216 C 0.79391 0.30071 0.41584 0.0
C217 C 0.84436 0.21337 0.35554 0.0
C218 C 0.86619 0.20968 0.38837 0.0
C219 C 0.86838 0.18527 0.35789 0.0
C220 C 0.85326 0.19595 0.34618 0.0
C221 C 0.87484 0.19184 0.37921 0.0
C222 C 0.85103 0.22036 0.37662 0.0
C223 C 0.8272 0.22322 0.34353 0.0
O224 O 0.76595 0.24695 0.338 0.0
O225 O 0.79302 0.27226 0.32281 0.0
O226 O 0.83379 0.24436 0.33815 0.0
O227 O 0.80581 0.21835 0.35114 0.0
H228 H 0.7917 0.23149 0.29885 0.0
H229 H 0.77745 0.21249 0.26514 0.0
H230 H 0.72028 0.24805 0.26402 0.0
H231 H 0.73501 0.26732 0.29743 0.0
H232 H 0.74432 0.3138 0.37901 0.0
H233 H 0.7695 0.28924 0.36596 0.0
H234 H 0.78271 0.3221 0.43937 0.0
H235 H 0.80751 0.29679 0.42625 0.0
H236 H 0.87103 0.21531 0.40466 0.0
H237 H 0.87442 0.17139 0.35046 0.0
H238 H 0.84812 0.19029 0.32995 0.0
H239 H 0.84424 0.2338 0.38407 0.0
C240 C 0.31087 0.63667 0.19738 0.0
C241 C 0.30737 0.64903 0.1789 0.0
C242 C 0.27182 0.62192 0.16988 0.0
C243 C 0.28802 0.64175 0.1653 0.0
C244 C 0.27546 0.60977 0.18854 0.0
C245 C 0.29472 0.61705 0.20207 0.0
U246 U 0.36766 0.67655 0.21574 0.0
O247 O 0.37958 0.68676 0.24882 0.0
O248 O 0.40001 0.66805 0.22887 0.0
C249 C 0.39768 0.67694 0.24789 0.0
C250 C 0.33115 0.64364 0.21197 0.0
C251 C 0.40241 0.66404 0.26726 0.0
C252 C 0.39701 0.63002 0.28909 0.0
C253 C 0.39143 0.64169 0.27074 0.0
C254 C 0.42449 0.66286 0.30068 0.0
C255 C 0.41366 0.64045 0.3044 0.0
C256 C 0.41892 0.67443 0.28243 0.0
C257 C 0.38857 0.73034 0.17943 0.0
C258 C 0.39929 0.77112 0.18071 0.0
C259 C 0.41147 0.75127 0.15041 0.0
C260 C 0.40058 0.73093 0.15969 0.0
C261 C 0.41058 0.77172 0.16053 0.0
C262 C 0.38833 0.75072 0.18999 0.0
C263 C 0.37358 0.70894 0.18672 0.0
O264 O 0.35177 0.64299 0.20383 0.0
O265 O 0.33114 0.66157 0.2237 0.0
O266 O 0.36122 0.70908 0.20446 0.0
O267 O 0.38178 0.6905 0.18443 0.0
H268 H 0.31965 0.66422 0.17495 0.0
H269 H 0.28597 0.65147 0.15102 0.0
H270 H 0.26324 0.59468 0.19289 0.0
H271 H 0.29702 0.6073 0.21629 0.0
H272 H 0.38808 0.6129 0.2914 0.0
H273 H 0.37862 0.63327 0.25927 0.0
H274 H 0.43769 0.67145 0.31169 0.0
H275 H 0.42775 0.6916 0.28005 0.0
H276 H 0.39802 0.78647 0.18894 0.0
H277 H 0.42028 0.75096 0.13506 0.0
H278 H 0.40086 0.71562 0.15095 0.0
H279 H 0.37896 0.75102 0.20504 0.0
C280 C 0.12799 0.30908 0.69855 0.0
C281 C 0.1443 0.30188 0.68495 0.0
C282 C 0.11475 0.26988 0.67293 0.0
C283 C 0.13776 0.28251 0.67228 0.0
C284 C 0.09848 0.27746 0.6864 0.0
C285 C 0.10503 0.29675 0.69901 0.0
U286 U 0.16831 0.36453 0.7157 0.0
O287 O 0.15922 0.39559 0.72813 0.0
O288 O 0.17965 0.37694 0.74838 0.0
C289 C 0.16941 0.39423 0.74696 0.0
C290 C 0.1345 0.32896 0.71274 0.0
C291 C 0.15754 0.40055 0.76664 0.0
C292 C 0.12285 0.40226 0.78822 0.0
C293 C 0.13329 0.39439 0.76999 0.0
C294 C 0.16068 0.42232 0.80001 0.0
C295 C 0.13638 0.41663 0.80336 0.0
C296 C 0.17105 0.41439 0.78197 0.0
C297 C 0.22423 0.3831 0.67884 0.0
C298 C 0.2485 0.41836 0.66712 0.0
C299 C 0.26176 0.38372 0.66137 0.0
C300 C 0.24148 0.37197 0.67124 0.0
C301 C 0.26544 0.40704 0.65881 0.0
C302 C 0.22802 0.40649 0.67692 0.0
C303 C 0.20182 0.36938 0.68651 0.0
O304 O 0.15322 0.32981 0.72483 0.0
O305 O 0.13324 0.34835 0.70407 0.0
O306 O 0.18268 0.37749 0.68422 0.0
O307 O 0.20228 0.35805 0.70454 0.0
H308 H 0.16215 0.31109 0.6843 0.0
H309 H 0.15088 0.27721 0.66232 0.0
H310 H 0.08053 0.26856 0.68711 0.0
H311 H 0.09211 0.302 0.70929 0.0
H312 H 0.10409 0.39756 0.79014 0.0
H313 H 0.12241 0.38381 0.75839 0.0
H314 H 0.17181 0.43296 0.8114 0.0
H315 H 0.18976 0.41941 0.77981 0.0
H316 H 0.25069 0.43629 0.66537 0.0
H317 H 0.27453 0.37446 0.65554 0.0
H318 H 0.23898 0.35395 0.67241 0.0
H319 H 0.21496 0.41553 0.68251 0.0
Dy320 Dy 0.04186 0.03021 0.51376 0.0
Dy321 Dy 0.99574 0.02178 0.54516 0.0
C322 C 0.03702 0.06503 0.5511 0.0
O323 O 0.0515 1.01417 0.54402 0.0
O324 O 1.01534 0.9952 0.554 0.0
O325 O 0.07914 0.04028 0.50985 0.0
O326 O 0.05738 0.0273 0.48245 0.0
O327 O 0.98658 0.99762 0.51754 0.0
O328 O 0.02363 0.99489 0.50746 0.0
O329 O 0.99245 0.05086 0.52449 0.0
O330 O 1.01466 0.04407 0.49571 0.0
O331 O 0.95827 1.01678 0.54928 0.0
O332 O 0.98121 0.0192 0.57722 0.0
C333 C 0.03818 0.99792 0.55466 0.0
O334 O 0.04361 0.06279 0.53103 0.0
O335 O 0.02226 0.04894 0.56077 0.0
C336 C 0.09154 0.054 0.47497 0.0
C337 C 0.11832 0.0861 0.44758 0.0
C338 C 0.11289 0.09182 0.46873 0.0
C339 C 0.09956 0.07593 0.4823 0.0
C340 C 0.09671 0.04833 0.45383 0.0
C341 C 0.10987 0.06421 0.44024 0.0
C342 C 0.07825 0.03659 0.48905 0.0
C343 C 1.00095 0.98721 0.50715 0.0
C344 C 0.99874 0.05391 0.5042 0.0
C345 C 0.94379 0.99664 0.58058 0.0
C346 C 0.91437 0.96267 0.60382 0.0
C347 C 0.93575 0.95912 0.59547 0.0
C348 C 0.95036 0.976 0.58392 0.0
C349 C 0.92217 0.99996 0.58816 0.0
C350 C 0.90754 0.98312 0.59965 0.0
C351 C 0.95967 1.01528 0.57027 0.0
H352 H 0.11929 0.10846 0.47497 0.0
H353 H 0.09576 0.08077 0.49855 0.0
H354 H 0.09062 0.03152 0.44784 0.0
H355 H 0.1133 0.05933 0.42392 0.0
H356 H 0.9416 0.94364 0.59855 0.0
H357 H 0.96703 0.97316 0.5781 0.0
H358 H 0.9168 1.01578 0.5856 0.0
H359 H 0.89101 0.98623 0.60553 0.0
Dy360 Dy 0.49528 1.01588 1.01212 0.0
Dy361 Dy 0.54103 0.02382 0.0443 0.0
C362 C 0.49959 0.98082 0.0493 0.0
O363 O 0.48566 0.03194 0.04231 0.0
O364 O 0.52176 0.05065 0.05281 0.0
O365 O 0.45787 1.00627 1.00856 0.0
O366 O 0.47941 1.01828 0.98086 0.0
O367 O 0.55071 0.04895 1.01758 0.0
O368 O 0.51402 0.05084 1.00519 0.0
O369 O 0.54467 0.99519 1.02321 0.0
O370 O 0.52228 1.00177 0.99428 0.0
O371 O 0.57828 0.02781 0.04922 0.0
O372 O 0.555 0.02633 0.07669 0.0
C373 C 0.49895 0.04801 0.05323 0.0
O374 O 0.49375 0.98312 0.029 0.0
O375 O 0.51384 0.99696 0.05942 0.0
C376 C 0.44465 0.99222 0.97444 0.0
C377 C 0.41742 0.95902 0.94864 0.0
C378 C 0.43856 0.95559 0.95775 0.0
C379 C 0.45208 0.97209 0.97063 0.0
C380 C 0.42364 0.99569 0.96545 0.0
C381 C 0.41013 0.97925 0.95265 0.0
C382 C 0.45845 1.00983 0.98776 0.0
C383 C 0.53662 0.05887 1.00614 0.0
C384 C 0.53836 0.99213 1.00288 0.0
C385 C 0.59256 0.04832 0.08028 0.0
C386 C 0.62186 0.08349 0.10213 0.0
C387 C 0.604 0.08783 0.08838 0.0
C388 C 0.58944 0.07035 0.07751 0.0
C389 C 0.61057 0.04396 0.09358 0.0
C390 C 0.62512 0.06138 0.10442 0.0
C391 C 0.57663 0.02963 0.07015 0.0
H392 H 0.44454 0.94012 0.95506 0.0
H393 H 0.46829 0.96918 0.97758 0.0
H394 H 0.41773 1.0112 0.96823 0.0
H395 H 0.39416 0.98258 0.94556 0.0
H396 H 0.60119 0.10469 0.08614 0.0
H397 H 0.57557 0.07394 0.06722 0.0
H398 H 0.61309 0.02701 0.09592 0.0
H399 H 0.63844 0.05742 0.11514 0.0
Dy400 Dy 0.51979 0.49802 0.51432 0.0
Dy401 Dy 0.52159 0.54487 0.54042 0.0
C402 C 0.5437 0.50495 0.56087 0.0
O403 O 0.49002 0.49146 0.53786 0.0
O404 O 0.48415 0.52714 0.54206 0.0
O405 O 0.51566 0.46212 0.51454 0.0
O406 O 0.52134 0.48023 0.48432 0.0
O407 O 0.50976 0.55133 0.50685 0.0
O408 O 0.49546 0.51547 0.49567 0.0
O409 O 0.55823 0.54756 0.52817 0.0
O410 O 0.5507 0.5217 0.5009 0.0
O411 O 0.52778 0.58092 0.54175 0.0
O412 O 0.5172 0.56141 0.57051 0.0
C413 C 0.47703 0.50548 0.54437 0.0
O414 O 0.54557 0.49729 0.54124 0.0
O415 O 0.53184 0.52079 0.56438 0.0
C416 C 0.53932 0.44937 0.48852 0.0
C417 C 0.57628 0.42844 0.47657 0.0
C418 C 0.57828 0.44226 0.49491 0.0
C419 C 0.56 0.45274 0.50076 0.0
C420 C 0.53716 0.43549 0.47031 0.0
C421 C 0.55552 0.42512 0.46434 0.0
C422 C 0.52048 0.46115 0.49403 0.0
C423 C 0.49759 0.53718 0.49312 0.0
C424 C 0.56444 0.53869 0.51027 0.0
C425 C 0.50225 0.59388 0.56589 0.0
C426 C 0.46526 0.61528 0.57653 0.0
C427 C 0.46392 0.60182 0.55796 0.0
C428 C 0.48223 0.5911 0.55275 0.0
C429 C 0.50388 0.60765 0.58414 0.0
C430 C 0.48552 0.61827 0.58944 0.0
C431 C 0.5206 0.58113 0.56168 0.0
H432 H 0.59417 0.44536 0.50446 0.0
H433 H 0.56213 0.46367 0.51472 0.0
H434 H 0.52137 0.43284 0.46061 0.0
H435 H 0.55344 0.41442 0.45023 0.0
H436 H 0.44843 0.59903 0.54786 0.0
H437 H 0.48056 0.58025 0.53874 0.0
H438 H 0.51915 0.60984 0.59452 0.0
H439 H 0.48712 0.62872 0.60371 0.0
Dy440 Dy 0.01965 0.5478 1.014 0.0
Dy441 Dy 0.01752 0.50121 0.04046 0.0
C442 C 0.99616 0.54144 0.06076 0.0
O443 O 0.04984 0.55447 0.03717 0.0
O444 O 0.05508 0.51861 0.04178 0.0
O445 O 0.02287 0.58364 1.01386 0.0
O446 O 0.01857 0.56533 0.98376 0.0
O447 O 0.02778 0.49439 1.00649 0.0
O448 O 0.0439 0.52995 0.99582 0.0
O449 O 0.98068 0.4992 0.02888 0.0
O450 O 0.98875 0.52395 1.00073 0.0
O451 O 1.011 0.46516 0.04194 0.0
O452 O 0.0224 0.48465 0.07051 0.0
C453 C 0.06257 0.54025 0.04385 0.0
O454 O 0.99414 0.54889 0.04102 0.0
O455 O 1.00795 0.52555 0.0644 0.0
C456 C 0.99897 0.59506 0.98732 0.0
C457 C 0.96112 0.61507 0.97573 0.0
C458 C 0.95747 0.59539 0.98815 0.0
C459 C 0.97622 0.58547 0.99387 0.0
C460 C 1.0028 0.61469 0.97501 0.0
C461 C 0.98401 0.62464 0.96925 0.0
C462 C 0.0185 0.58436 0.99322 0.0
C463 C 0.04064 0.50819 0.99294 0.0
C464 C 0.97462 0.50762 1.01061 0.0
C465 C 0.03723 0.4522 0.06545 0.0
C466 C 0.0743 0.43024 0.07476 0.0
C467 C 0.07579 0.44517 0.05723 0.0
C468 C 0.05745 0.45612 0.05267 0.0
C469 C 0.03548 0.43716 0.08275 0.0
C470 C 0.05385 0.42625 0.08738 0.0
C471 C 0.01872 0.46492 0.06173 0.0
H472 H 0.94014 0.58775 0.99367 0.0
H473 H 0.97299 0.57028 1.00342 0.0
H474 H 0.02026 0.62222 0.96976 0.0
H475 H 0.98737 0.63964 0.95945 0.0
H476 H 0.09113 0.44842 0.04702 0.0
H477 H 0.05916 0.46787 0.03934 0.0
H478 H 0.0201 0.43418 0.09293 0.0
H479 H 0.05226 0.41513 0.10119 0.0
H480 H 0.22121 0.24325 0.31899 0.0
H481 H 0.20191 0.22183 0.34963 0.0
H482 H 0.22584 0.16341 0.32723 0.0
H483 H 0.24474 0.18446 0.29637 0.0
H484 H 0.16655 0.18221 0.34517 0.0
H485 H 0.2429 0.16697 0.39249 0.0
H486 H 0.2451 0.18887 0.37247 0.0
H487 H 0.2436 0.16044 0.3642 0.0
C488 C 0.22243 0.22586 0.32061 0.0
C489 C 0.23452 0.21557 0.30521 0.0
C490 C 0.21152 0.21371 0.33819 0.0
C491 C 0.21271 0.19116 0.34079 0.0
C492 C 0.22514 0.18095 0.32574 0.0
H493 H 0.15243 0.07936 0.41952 0.0
H494 H 0.17496 0.1062 0.39458 0.0
C495 C 0.23597 0.19303 0.30812 0.0
C496 C 0.19953 0.17779 0.35829 0.0
H497 H 0.20574 0.14545 0.40212 0.0
C498 C 0.17506 0.17436 0.35781 0.0
C499 C 0.21078 0.16754 0.37459 0.0
C500 C 0.23706 0.17125 0.37617 0.0
C501 C 0.16144 0.16023 0.37279 0.0
C502 C 0.17267 0.14971 0.38897 0.0
C503 C 0.19719 0.15354 0.38971 0.0
C504 C 0.15931 0.13383 0.40464 0.0
C505 C 0.13517 0.15595 0.37055 0.0
C506 C 0.14326 0.14055 0.41881 0.0
C507 C 0.13004 0.12513 0.43287 0.0
C508 C 0.13283 0.10276 0.43317 0.0
C509 C 0.14946 0.09631 0.41939 0.0
C510 C 0.16253 0.11168 0.40526 0.0
H511 H 0.12964 0.16074 0.35428 0.0
H512 H 0.12745 0.13807 0.37338 0.0
H513 H 0.12791 0.16602 0.38273 0.0
H514 H 0.14086 0.15768 0.4189 0.0
H515 H 0.11733 0.13065 0.44319 0.0
H516 H 0.25754 0.86223 0.8244 0.0
H517 H 0.28486 0.87762 0.85321 0.0
H518 H 0.34086 0.856 0.81922 0.0
H519 H 0.3139 0.84118 0.79007 0.0
H520 H 0.3152 0.85649 0.87981 0.0
H521 H 0.3638 0.92401 0.8274 0.0
H522 H 0.33539 0.9081 0.82016 0.0
H523 H 0.36092 0.8961 0.8171 0.0
C524 C 0.27568 0.86081 0.82304 0.0
C525 C 0.28358 0.85061 0.80488 0.0
C526 C 0.2912 0.86945 0.83957 0.0
C527 C 0.31488 0.86815 0.83816 0.0
C528 C 0.32269 0.85738 0.82044 0.0
H529 H 0.43265 0.93437 0.91674 0.0
H530 H 0.40873 0.90897 0.89117 0.0
C531 C 0.3072 0.84874 0.80391 0.0
C532 C 0.33153 0.87881 0.85488 0.0
H533 H 0.37757 0.92196 0.86299 0.0
C534 C 0.32891 0.87075 0.87617 0.0
C535 C 0.34943 0.89733 0.84998 0.0
C536 C 0.35255 0.90708 0.82748 0.0
C537 C 0.34372 0.88084 0.89279 0.0
C538 C 0.36124 0.89971 0.88799 0.0
C539 C 0.36417 0.90743 0.8666 0.0
C540 C 0.37573 0.91273 0.90503 0.0
C541 C 0.34051 0.87118 0.9153 0.0
C542 C 0.36508 0.92307 0.92139 0.0
C543 C 0.37867 0.93745 0.93604 0.0
C544 C 0.40318 0.94195 0.9345 0.0
C545 C 0.41383 0.93106 0.91848 0.0
C546 C 0.4002 0.91665 0.90381 0.0
H547 H 0.33186 0.85327 0.91497 0.0
H548 H 0.3575 0.8728 0.92388 0.0
H549 H 0.32922 0.88033 0.92469 0.0
H550 H 0.34623 0.92065 0.92236 0.0
H551 H 0.36996 0.94541 0.94834 0.0
H552 H 0.60562 0.43835 0.74734 0.0
H553 H 0.59305 0.45545 0.71469 0.0
H554 H 0.61844 0.40716 0.67537 0.0
H555 H 0.63034 0.38948 0.70794 0.0
H556 H 0.61775 0.47504 0.67948 0.0
H557 H 0.55236 0.40161 0.65243 0.0
H558 H 0.56518 0.40342 0.67913 0.0
H559 H 0.58113 0.39597 0.65634 0.0
C560 C 0.60833 0.43115 0.73179 0.0
C561 C 0.61892 0.41232 0.73049 0.0
C562 C 0.60125 0.44109 0.71305 0.0
C563 C 0.60435 0.43244 0.69243 0.0
C564 C 0.61533 0.41395 0.69102 0.0
H565 H 0.56732 0.46995 0.56115 0.0
H566 H 0.58304 0.45295 0.59245 0.0
C567 C 0.62245 0.404 0.70975 0.0
C568 C 0.59634 0.44294 0.67251 0.0
H569 H 0.5603 0.43231 0.6283 0.0
C570 C 0.60515 0.46567 0.66834 0.0
C571 C 0.57991 0.43083 0.65779 0.0
C572 C 0.5689 0.40667 0.66168 0.0
C573 C 0.59826 0.47647 0.64992 0.0
C574 C 0.58169 0.46441 0.6353 0.0
C575 C 0.57303 0.44163 0.63936 0.0
C576 C 0.57267 0.47522 0.61606 0.0
C577 C 0.6092 0.50066 0.64608 0.0
C578 C 0.56137 0.49335 0.61871 0.0
C579 C 0.55238 0.50314 0.60083 0.0
C580 C 0.55429 0.49501 0.57972 0.0
C581 C 0.5656 0.47681 0.57707 0.0
C582 C 0.57457 0.467 0.59501 0.0
H583 H 0.62616 0.50547 0.65472 0.0
H584 H 0.61213 0.50418 0.62857 0.0
H585 H 0.59733 0.51134 0.65225 0.0
H586 H 0.55911 0.49976 0.63472 0.0
H587 H 0.54367 0.51697 0.60365 0.0
H588 H 0.90014 0.65142 0.20456 0.0
H589 H 0.91344 0.63322 0.17308 0.0
H590 H 0.95081 0.59588 0.21495 0.0
H591 H 0.9379 0.61422 0.24654 0.0
H592 H 0.95858 0.63357 0.15869 0.0
H593 H 0.91413 0.54673 0.17683 0.0
H594 H 0.90679 0.57055 0.19044 0.0
H595 H 0.93225 0.56006 0.19844 0.0
C596 C 0.91127 0.63941 0.20719 0.0
C597 C 0.91783 0.63441 0.22835 0.0
C598 C 0.9188 0.6289 0.18907 0.0
C599 C 0.93293 0.61287 0.19148 0.0
C600 C 0.93949 0.60776 0.21253 0.0
H601 H 1.00014 0.53274 0.10408 0.0
H602 H 0.98474 0.55032 0.13483 0.0
C603 C 0.93202 0.61831 0.23069 0.0
C604 C 0.94135 0.60208 0.17198 0.0
H605 H 0.94144 0.55154 0.14802 0.0
C606 C 0.9547 0.61564 0.15631 0.0
C607 C 0.93644 0.57865 0.16875 0.0
C608 C 0.92144 0.56312 0.18438 0.0
C609 C 0.96368 0.60648 0.13796 0.0
C610 C 0.95876 0.58302 0.1347 0.0
C611 C 0.9453 0.56948 0.15034 0.0
C612 C 0.96782 0.57214 0.11554 0.0
C613 C 0.97904 0.62208 0.12263 0.0
C614 C 0.96324 0.5781 0.09416 0.0
C615 C 0.9722 0.56809 0.0764 0.0
C616 C 0.98576 0.55162 0.07951 0.0
C617 C 0.98983 0.54533 0.10091 0.0
C618 C 0.98098 0.55541 0.11862 0.0
H619 H 0.98658 0.63825 0.13048 0.0
H620 H 0.99357 0.61452 0.1165 0.0
H621 H 0.96843 0.62565 0.10861 0.0
H622 H 0.95263 0.59047 0.09114 0.0
H623 H 0.96851 0.57332 0.06022 0.0
H624 H 0.40724 0.20462 0.14 0.0
H625 H 0.43086 0.18255 0.11989 0.0
H626 H 0.39894 0.12368 0.15542 0.0
H627 H 0.37529 0.14551 0.17549 0.0
H628 H 0.44744 0.12902 0.1522 0.0
H629 H 0.40619 0.13728 0.07219 0.0
H630 H 0.418 0.16316 0.08554 0.0
H631 H 0.3936 0.14438 0.09722 0.0
C632 C 0.40517 0.18695 0.14343 0.0
C633 C 0.38939 0.17681 0.15934 0.0
C634 C 0.41867 0.17438 0.13193 0.0
C635 C 0.41645 0.15145 0.13602 0.0
C636 C 0.40094 0.14137 0.15206 0.0
H637 H 0.4523 0.04644 0.05918 0.0
H638 H 0.43386 0.0724 0.07959 0.0
C639 C 0.38751 0.1539 0.16357 0.0
C640 C 0.4301 0.13775 0.12359 0.0
H641 H 0.43745 0.11794 0.07301 0.0
C642 C 0.44537 0.12666 0.13487 0.0
C643 C 0.42713 0.13455 0.10103 0.0
C644 C 0.41021 0.14529 0.08824 0.0
C645 C 0.45764 0.11228 0.1242 0.0
C646 C 0.4548 0.10922 0.10161 0.0
C647 C 0.43969 0.12046 0.09031 0.0
C648 C 0.46638 0.09352 0.08953 0.0
C649 C 0.47293 0.09994 0.1373 0.0
C650 C 0.49082 0.09685 0.08829 0.0
C651 C 0.50148 0.08194 0.07669 0.0
C652 C 0.48785 0.06355 0.066 0.0
C653 C 0.46336 0.06038 0.06723 0.0
C654 C 0.45275 0.07523 0.07885 0.0
H655 H 0.46907 0.10023 0.15487 0.0
H656 H 0.47064 0.08229 0.13198 0.0
H657 H 0.49151 0.10797 0.13491 0.0
H658 H 0.50165 0.11109 0.0961 0.0
H659 H 0.52038 0.08497 0.07594 0.0
H660 H 0.12305 0.8272 0.61349 0.0
H661 H 0.10016 0.85397 0.59996 0.0
H662 H 0.14034 0.90539 0.64 0.0
H663 H 0.16341 0.87889 0.65345 0.0
H664 H 0.09134 0.90373 0.64106 0.0
H665 H 0.12592 0.90488 0.55726 0.0
H666 H 0.11334 0.87772 0.5677 0.0
H667 H 0.13945 0.89346 0.57979 0.0
C668 C 0.12708 0.84423 0.61933 0.0
C669 C 0.14509 0.85093 0.6345 0.0
C670 C 0.11397 0.85947 0.61162 0.0
C671 C 0.11875 0.88168 0.61883 0.0
C672 C 0.13637 0.8883 0.63427 0.0
H673 H 0.08482 0.9988 0.55992 0.0
H674 H 0.10321 0.97047 0.57679 0.0
C675 C 0.14947 0.8731 0.642 0.0
C676 C 0.1058 0.89823 0.61 0.0
H677 H 0.09669 0.92583 0.56371 0.0
C678 C 0.0924 0.90854 0.62414 0.0
C679 C 0.10751 0.90461 0.58798 0.0
C680 C 0.12247 0.89477 0.57228 0.0
C681 C 0.08061 0.9251 0.61681 0.0
C682 C 0.08212 0.93128 0.59473 0.0
C683 C 0.09549 0.92094 0.58061 0.0
C684 C 0.07067 0.94899 0.58597 0.0
C685 C 0.06716 0.93626 0.6328 0.0
C686 C 0.04624 0.94635 0.58571 0.0
C687 C 0.03561 0.96257 0.57609 0.0
C688 C 0.04926 0.98161 0.56646 0.0
C689 C 0.07375 0.98435 0.56715 0.0
C690 C 0.08432 0.96816 0.57676 0.0
H691 H 0.07197 0.93318 0.64978 0.0
H692 H 0.07028 0.95457 0.62996 0.0
H693 H 0.0482 0.92956 0.63074 0.0
H694 H 0.03539 0.93148 0.59244 0.0
H695 H 0.01671 0.95989 0.57576 0.0
H696 H 0.80048 0.45394 0.88155 0.0
H697 H 0.83411 0.46807 0.90466 0.0
H698 H 0.81474 0.41127 0.94687 0.0
H699 H 0.7815 0.3965 0.92335 0.0
H700 H 0.83604 0.48035 0.94724 0.0
H701 H 0.88307 0.41054 0.93601 0.0
H702 H 0.85885 0.41409 0.91905 0.0
H703 H 0.85365 0.40217 0.94562 0.0
C704 C 0.8035 0.44419 0.89554 0.0
C705 C 0.78824 0.42388 0.90034 0.0
C706 C 0.8227 0.45243 0.90888 0.0
C707 C 0.8273 0.44062 0.92739 0.0
C708 C 0.81194 0.42052 0.93247 0.0
H709 H 0.94222 0.47025 1.02235 0.0
H710 H 0.90561 0.45403 1.00374 0.0
C711 C 0.7927 0.41222 0.9191 0.0
C712 C 0.8479 0.44967 0.94144 0.0
H713 H 0.8992 0.43839 0.96129 0.0
C714 C 0.84982 0.47114 0.95029 0.0
C715 C 0.86593 0.43768 0.9456 0.0
C716 C 0.86547 0.41493 0.93594 0.0
C717 C 0.86914 0.48091 0.96308 0.0
C718 C 0.88737 0.46911 0.9669 0.0
C719 C 0.88526 0.44746 0.95842 0.0
C720 C 0.90923 0.47932 0.97876 0.0
C721 C 0.86971 0.50376 0.97256 0.0
C722 C 0.9236 0.49887 0.97092 0.0
C723 C 0.94449 0.50818 0.98151 0.0
C724 C 0.9517 0.49812 1.0002 0.0
C725 C 0.93723 0.47855 1.0081 0.0
C726 C 0.9163 0.4692 0.99742 0.0
H727 H 0.8519 0.50754 0.97374 0.0
H728 H 0.87781 0.50525 0.9889 0.0
H729 H 0.88022 0.51654 0.96192 0.0
H730 H 0.91887 0.50679 0.95633 0.0
H731 H 0.95512 0.52319 0.97483 0.0
H732 H 0.76549 0.59304 0.41552 0.0
H733 H 0.73057 0.57902 0.43701 0.0
H734 H 0.70051 0.63455 0.41607 0.0
H735 H 0.73502 0.64829 0.39391 0.0
H736 H 0.70984 0.59699 0.47062 0.0
H737 H 0.64909 0.58182 0.40068 0.0
H738 H 0.68041 0.58776 0.3975 0.0
H739 H 0.66505 0.61004 0.40255 0.0
C740 C 0.75139 0.60222 0.41528 0.0
C741 C 0.75313 0.62174 0.40268 0.0
C742 C 0.73145 0.59423 0.42776 0.0
C743 C 0.71261 0.60545 0.42795 0.0
C744 C 0.71453 0.62529 0.41591 0.0
H745 H 0.59528 0.57775 0.52011 0.0
H746 H 0.63125 0.59441 0.50102 0.0
C747 C 0.73448 0.6333 0.40341 0.0
C748 C 0.69099 0.59623 0.44057 0.0
H749 H 0.63208 0.57694 0.43549 0.0
C750 C 0.69283 0.59263 0.46293 0.0
C751 C 0.66876 0.5902 0.43058 0.0
C752 C 0.66564 0.59242 0.40648 0.0
C753 C 0.67317 0.58336 0.47551 0.0
C754 C 0.65085 0.57781 0.4656 0.0
C755 C 0.64906 0.58132 0.44322 0.0
C756 C 0.62926 0.56756 0.47784 0.0
C757 C 0.67665 0.57902 0.49921 0.0
C758 C 0.61575 0.54707 0.47108 0.0
C759 C 0.59505 0.53762 0.48184 0.0
C760 C 0.5872 0.54839 0.4997 0.0
C761 C 0.60083 0.56884 0.50659 0.0
C762 C 0.62153 0.57836 0.49571 0.0
H763 H 0.69516 0.57845 0.50295 0.0
H764 H 0.67179 0.5927 0.50886 0.0
H765 H 0.66548 0.56303 0.50442 0.0
H766 H 0.6212 0.53835 0.45737 0.0
H767 H 0.58513 0.52186 0.47601 0.0
H768 H 0.20811 0.30211 0.13802 0.0
H769 H 0.17947 0.32384 0.12612 0.0
H770 H 0.23516 0.37656 0.10458 0.0
H771 H 0.26403 0.35464 0.11626 0.0
H772 H 0.17459 0.36478 0.14076 0.0
H773 H 0.1919 0.36797 0.05232 0.0
H774 H 0.20303 0.34908 0.07018 0.0
H775 H 0.21699 0.37803 0.06901 0.0
C776 C 0.21426 0.31831 0.1307 0.0
C777 C 0.23829 0.32673 0.12812 0.0
C778 C 0.19788 0.33068 0.12386 0.0
C779 C 0.20516 0.35172 0.11429 0.0
C780 C 0.22915 0.36016 0.11152 0.0
H781 H 0.12116 0.44838 0.07366 0.0
H782 H 0.15371 0.43027 0.08313 0.0
C783 C 0.2456 0.34767 0.11823 0.0
C784 C 0.18746 0.365 0.10812 0.0
H785 H 0.16432 0.38853 0.06516 0.0
C786 C 0.17237 0.36998 0.12423 0.0
C787 C 0.18467 0.37187 0.08655 0.0
C788 C 0.19985 0.36633 0.06845 0.0
C789 C 0.15441 0.38143 0.11934 0.0
C790 C 0.15135 0.3879 0.09774 0.0
C791 C 0.16675 0.38346 0.08169 0.0
C792 C 0.13173 0.39864 0.09145 0.0
C793 C 0.13882 0.38657 0.13729 0.0
C794 C 0.10868 0.38666 0.09269 0.0
C795 C 0.09005 0.39684 0.08709 0.0
C796 C 0.09416 0.41921 0.08014 0.0
C797 C 0.11737 0.43105 0.07867 0.0
C798 C 0.136 0.4208 0.08418 0.0
H799 H 0.14665 0.38505 0.1535 0.0
H800 H 0.13527 0.40369 0.1355 0.0
H801 H 0.12186 0.37461 0.13652 0.0
H802 H 0.1051 0.3694 0.09795 0.0
H803 H 0.07245 0.38711 0.08804 0.0
H804 H 0.59129 0.23462 0.88281 0.0
H805 H 0.57551 0.19925 0.90125 0.0
H806 H 0.62865 0.21511 0.95046 0.0
H807 H 0.64406 0.25051 0.93246 0.0
H808 H 0.59293 0.16321 0.91086 0.0
H809 H 0.57224 0.20069 0.98799 0.0
H810 H 0.58036 0.21721 0.96402 0.0
H811 H 0.60246 0.20921 0.98103 0.0
C812 C 0.59959 0.23056 0.89757 0.0
C813 C 0.61875 0.24564 0.90629 0.0
C814 C 0.59052 0.21032 0.90815 0.0
C815 C 0.60044 0.20461 0.92765 0.0
C816 C 0.62006 0.21933 0.93593 0.0
H817 H 0.58001 0.08606 1.01037 0.0
H818 H 0.59538 0.12096 0.99102 0.0
C819 C 0.62895 0.23961 0.92553 0.0
C820 C 0.59061 0.18318 0.93915 0.0
H821 H 0.57115 0.16141 0.98844 0.0
C822 C 0.58802 0.1629 0.92777 0.0
C823 C 0.58403 0.18256 0.96128 0.0
C824 C 0.58467 0.2036 0.97423 0.0
C825 C 0.57961 0.14221 0.93795 0.0
C826 C 0.57358 0.14164 0.96012 0.0
C827 C 0.576 0.16183 0.9715 0.0
C828 C 0.56432 0.12026 0.97169 0.0
C829 C 0.57755 0.12097 0.92506 0.0
C830 C 0.54166 0.10831 0.96742 0.0
C831 C 0.53272 0.08847 0.9786 0.0
C832 C 0.54631 0.07997 0.99423 0.0
C833 C 0.56907 0.09197 0.9984 0.0
C834 C 0.57789 0.11197 0.98737 0.0
H835 H 0.58623 0.12391 0.90906 0.0
H836 H 0.58536 0.10854 0.93415 0.0
H837 H 0.5588 0.11366 0.92237 0.0
H838 H 0.53078 0.11445 0.95554 0.0
H839 H 0.51515 0.07974 0.97489 0.0
H840 H 0.95539 0.80109 0.39834 0.0
H841 H 0.97083 0.83555 0.41828 0.0
H842 H 0.90078 0.84624 0.42793 0.0
H843 H 0.88519 0.81167 0.40854 0.0
H844 H 0.96585 0.87993 0.40987 0.0
H845 H 0.92756 0.85131 0.48946 0.0
H846 H 0.92943 0.83229 0.46751 0.0
H847 H 0.9068 0.84845 0.46765 0.0
C848 C 0.94322 0.81065 0.40484 0.0
C849 C 0.91897 0.80343 0.40176 0.0
C850 C 0.95211 0.83046 0.41616 0.0
C851 C 0.937 0.84343 0.42495 0.0
C852 C 0.91284 0.83642 0.42169 0.0
H853 H 0.95499 0.96669 0.50075 0.0
H854 H 0.93986 0.9324 0.48052 0.0
C855 C 0.90395 0.8167 0.4103 0.0
C856 C 0.94646 0.86441 0.43723 0.0
H857 H 0.94508 0.88965 0.48652 0.0
C858 C 0.96141 0.882 0.42667 0.0
C859 C 0.94062 0.86727 0.45915 0.0
C860 C 0.9254 0.84879 0.47172 0.0
C861 C 0.97024 0.9024 0.4372 0.0
C862 C 0.96448 0.90525 0.45917 0.0
C863 C 0.94954 0.88762 0.46972 0.0
C864 C 0.97383 0.92627 0.4715 0.0
C865 C 0.98514 0.92094 0.42443 0.0
C866 C 0.99803 0.93426 0.47359 0.0
C867 C 1.00674 0.95396 0.48508 0.0
C868 C 0.99152 0.96614 0.49504 0.0
C869 C 0.96729 0.95789 0.49327 0.0
C870 C 0.95858 0.93821 0.48169 0.0
H871 H 0.98213 0.91868 0.40675 0.0
H872 H 0.98158 0.93749 0.42912 0.0
H873 H 1.00384 0.92091 0.42765 0.0
H874 H 1.01026 0.92515 0.46647 0.0
H875 H 0.0255 0.95956 0.48621 0.0
H876 H 0.30784 0.73055 0.62451 0.0
H877 H 0.33196 0.70929 0.60418 0.0
H878 H 0.33591 0.66787 0.66011 0.0
H879 H 0.31099 0.68833 0.68019 0.0
H880 H 0.37628 0.70718 0.61412 0.0
H881 H 0.32343 0.62153 0.61314 0.0
H882 H 0.31119 0.64554 0.62009 0.0
H883 H 0.32681 0.63264 0.64004 0.0
C884 C 0.31327 0.7165 0.63228 0.0
C885 C 0.30753 0.71117 0.654 0.0
C886 C 0.32718 0.70446 0.62068 0.0
C887 C 0.33551 0.68682 0.63053 0.0
C888 C 0.32927 0.68108 0.652 0.0
H889 H 0.44626 0.61621 0.61666 0.0
H890 H 0.41359 0.63351 0.62734 0.0
C891 C 0.31529 0.69302 0.66357 0.0
C892 C 0.35256 0.67584 0.61922 0.0
H893 H 0.36483 0.62485 0.60705 0.0
C894 C 0.37359 0.68921 0.61218 0.0
C895 C 0.34902 0.65238 0.61671 0.0
C896 C 0.32627 0.63723 0.6227 0.0
C897 C 0.39162 0.67969 0.60368 0.0
C898 C 0.38845 0.65623 0.6021 0.0
C899 C 0.36717 0.64286 0.60843 0.0
C900 C 0.40762 0.64529 0.59521 0.0
C901 C 0.41435 0.69465 0.59729 0.0
C902 C 0.41486 0.64611 0.57356 0.0
C903 C 0.43354 0.63626 0.5674 0.0
C904 C 0.4453 0.62557 0.58285 0.0
C905 C 0.43777 0.62463 0.60448 0.0
C906 C 0.41903 0.63432 0.61057 0.0
H907 H 0.41494 0.71236 0.60178 0.0
H908 H 0.42927 0.68891 0.60512 0.0
H909 H 0.41665 0.69376 0.57952 0.0
H910 H 0.40614 0.65445 0.5615 0.0
H911 H 0.43902 0.6373 0.55065 0.0
H912 H 0.8053 0.80048 0.72471 0.0
H913 H 0.82636 0.82328 0.69558 0.0
H914 H 0.81705 0.88309 0.72847 0.0
H915 H 0.79655 0.86061 0.75776 0.0
H916 H 0.8118 0.85775 0.66848 0.0
H917 H 0.88897 0.88989 0.72021 0.0
H918 H 0.86743 0.86543 0.72719 0.0
H919 H 0.86149 0.89284 0.73166 0.0
C920 C 0.80776 0.8185 0.7257 0.0
C921 C 0.79933 0.82875 0.74357 0.0
C922 C 0.81965 0.83145 0.70903 0.0
C923 C 0.82347 0.85481 0.71008 0.0
C924 C 0.81448 0.86506 0.72753 0.0
H925 H 0.89222 0.96992 0.64112 0.0
H926 H 0.86958 0.94225 0.66522 0.0
C927 C 0.80257 0.85217 0.74414 0.0
C928 C 0.83738 0.86868 0.69332 0.0
H929 H 0.88708 0.90796 0.68636 0.0
C930 C 0.82839 0.86858 0.67224 0.0
C931 C 0.85903 0.88265 0.69838 0.0
C932 C 0.86996 0.88264 0.72053 0.0
C933 C 0.84007 0.8829 0.65625 0.0
C934 C 0.86139 0.89734 0.66152 0.0
C935 C 0.87066 0.89693 0.68244 0.0
C936 C 0.87393 0.91383 0.64596 0.0
C937 C 0.82914 0.88311 0.63413 0.0
C938 C 0.88385 0.90696 0.62712 0.0
C939 C 0.89671 0.9228 0.61317 0.0
C940 C 0.89988 0.94572 0.61791 0.0
C941 C 0.88976 0.95245 0.63677 0.0
C942 C 0.87696 0.93666 0.65065 0.0
H943 H 0.81061 0.87422 0.63397 0.0
H944 H 0.82999 0.90051 0.62848 0.0
H945 H 0.83897 0.87473 0.62246 0.0
H946 H 0.882 0.88938 0.6234 0.0
H947 H 0.90421 0.9171 0.59873 0.0
H948 H 0.74394 0.18398 0.25526 0.0
H949 H 0.72489 0.16168 0.22514 0.0
H950 H 0.70827 0.22082 0.19592 0.0
H951 H 0.72797 0.24344 0.22573 0.0
H952 H 0.6779 0.1578 0.21437 0.0
H953 H 0.73534 0.19027 0.14526 0.0
H954 H 0.74453 0.1947 0.17311 0.0
H955 H 0.72548 0.2112 0.16119 0.0
C956 C 0.73674 0.19236 0.24218 0.0
C957 C 0.73755 0.21551 0.24285 0.0
C958 C 0.72572 0.17956 0.22507 0.0
C959 C 0.71538 0.18964 0.20823 0.0
C960 C 0.71648 0.21278 0.2086 0.0
H961 H 0.60731 0.11745 0.12352 0.0
H962 H 0.63024 0.14494 0.14782 0.0
C963 C 0.72751 0.22563 0.22574 0.0
C964 C 0.70206 0.17561 0.19117 0.0
H965 H 0.69984 0.16536 0.13684 0.0
C966 C 0.68268 0.15944 0.19742 0.0
C967 C 0.7085 0.17773 0.16912 0.0
C968 C 0.72971 0.19427 0.1617 0.0
C969 C 0.66947 0.14532 0.18219 0.0
C970 C 0.67559 0.14772 0.16007 0.0
C971 C 0.69507 0.16379 0.1538 0.0
C972 C 0.66243 0.13298 0.14344 0.0
C973 C 0.64938 0.1276 0.18995 0.0
C974 C 0.67323 0.11783 0.13226 0.0
C975 C 0.66025 0.10225 0.11821 0.0
C976 C 0.63625 0.10162 0.11505 0.0
C977 C 0.62577 0.11757 0.1255 0.0
C978 C 0.63878 0.13315 0.13954 0.0
H979 H 0.65029 0.12472 0.20766 0.0
H980 H 0.63268 0.133 0.18643 0.0
H981 H 0.64911 0.11155 0.18146 0.0
H982 H 0.69152 0.11756 0.13498 0.0
H983 H 0.6689 0.09042 0.11012 0.0
H984 H 0.41798 0.59629 0.30811 0.0
H985 H 0.42941 0.57701 0.33998 0.0
H986 H 0.43633 0.63774 0.37691 0.0
H987 H 0.42398 0.6568 0.34557 0.0
H988 H 0.46949 0.58431 0.36301 0.0
H989 H 0.39775 0.59472 0.41784 0.0
H990 H 0.397 0.6004 0.38923 0.0
H991 H 0.41304 0.62092 0.40738 0.0
C992 C 0.42148 0.60548 0.3231 0.0
C993 C 0.41994 0.62822 0.32406 0.0
C994 C 0.42823 0.59443 0.34134 0.0
C995 C 0.43345 0.60572 0.36112 0.0
C996 C 0.43194 0.62839 0.36211 0.0
H997 H 0.49258 0.58033 0.48567 0.0
H998 H 0.47651 0.59557 0.45366 0.0
C999 C 0.42516 0.63941 0.34395 0.0
C1000 C 0.44129 0.59413 0.38046 0.0
H1001 H 0.43077 0.58359 0.43438 0.0
C1002 C 0.46083 0.58396 0.37854 0.0
C1003 C 0.43009 0.59354 0.40086 0.0
C1004 C 0.40817 0.60278 0.40394 0.0
C1005 C 0.46984 0.57396 0.39643 0.0
C1006 C 0.45895 0.57384 0.4169 0.0
C1007 C 0.43924 0.58372 0.41878 0.0
C1008 C 0.46813 0.56411 0.43664 0.0
C1009 C 0.49145 0.56421 0.39346 0.0
C1010 C 0.46845 0.54118 0.43808 0.0
C1011 C 0.47753 0.53232 0.45652 0.0
C1012 C 0.48662 0.54619 0.47397 0.0
C1013 C 0.48589 0.56909 0.47259 0.0
C1014 C 0.47664 0.57787 0.45425 0.0
H1015 H 0.50051 0.56966 0.37802 0.0
H1016 H 0.50388 0.56906 0.40705 0.0
H1017 H 0.48643 0.54572 0.39329 0.0
H1018 H 0.46167 0.5301 0.42491 0.0
H1019 H 0.47775 0.51463 0.45693 0.0
H1020 H 0.10102 0.39557 0.83025 0.0
H1021 H 0.08437 0.41104 0.86188 0.0
H1022 H 0.13062 0.47436 0.85156 0.0
H1023 H 0.14705 0.45921 0.81989 0.0
H1024 H 0.10823 0.4302 0.9002 0.0
H1025 H 0.06617 0.49178 0.85725 0.0
H1026 H 0.07533 0.46889 0.8435 0.0
H1027 H 0.09645 0.49333 0.85081 0.0
C1028 C 0.10747 0.41287 0.83454 0.0
C1029 C 0.12547 0.42606 0.82238 0.0
C1030 C 0.09801 0.42167 0.85275 0.0
C1031 C 0.10601 0.44399 0.8591 0.0
C1032 C 0.12385 0.45721 0.84693 0.0
H1033 H 0.07125 0.53037 0.96245 0.0
H1034 H 0.08744 0.51467 0.93079 0.0
C1035 C 0.13342 0.4484 0.82887 0.0
C1036 C 0.09625 0.45334 0.87873 0.0
H1037 H 0.06751 0.4941 0.89551 0.0
C1038 C 0.0992 0.44409 0.89914 0.0
C1039 C 0.08462 0.47162 0.87753 0.0
C1040 C 0.08023 0.48192 0.8561 0.0
C1041 C 0.09134 0.45282 0.91828 0.0
C1042 C 0.07951 0.47101 0.91709 0.0
C1043 C 0.07655 0.48023 0.89663 0.0
C1044 C 0.06988 0.48057 0.93676 0.0
C1045 C 0.09654 0.44284 0.93965 0.0
C1046 C 0.05433 0.46687 0.95077 0.0
C1047 C 0.04522 0.47579 0.96903 0.0
C1048 C 0.05106 0.4988 0.97371 0.0
C1049 C 0.06638 0.51259 0.95952 0.0
C1050 C 0.07564 0.5036 0.94131 0.0
H1051 H 0.11177 0.43448 0.93845 0.0
H1052 H 0.10017 0.45574 0.9525 0.0
H1053 H 0.08122 0.43003 0.9446 0.0
H1054 H 0.04892 0.44921 0.94746 0.0
H1055 H 0.03329 0.4646 0.97934 0.0
H1056 H 0.62359 0.86898 0.86615 0.0
H1057 H 0.60125 0.89209 0.88639 0.0
H1058 H 0.64536 0.88979 0.94209 0.0
H1059 H 0.66826 0.86735 0.9218 0.0
H1060 H 0.57653 0.88401 0.92557 0.0
H1061 H 0.64991 0.95684 0.9319 0.0
H1062 H 0.65034 0.93398 0.91355 0.0
H1063 H 0.65678 0.93122 0.94177 0.0
C1064 C 0.62862 0.8735 0.88268 0.0
C1065 C 0.64784 0.86647 0.8923 0.0
C1066 C 0.61575 0.88657 0.89424 0.0
C1067 C 0.62192 0.89295 0.91558 0.0
C1068 C 0.64059 0.88537 0.92548 0.0
H1069 H 0.57377 0.97124 1.01468 0.0
H1070 H 0.59269 0.94681 0.99275 0.0
C1071 C 0.65348 0.87233 0.91394 0.0
C1072 C 0.60904 0.90774 0.92745 0.0
H1073 H 0.61616 0.95822 0.95284 0.0
C1074 C 0.58511 0.9003 0.93142 0.0
C1075 C 0.62031 0.92903 0.93493 0.0
C1076 C 0.6457 0.93838 0.93017 0.0
C1077 C 0.57229 0.91334 0.94332 0.0
C1078 C 0.58369 0.93443 0.95113 0.0
C1079 C 0.60752 0.94199 0.94687 0.0
C1080 C 0.57145 0.94871 0.96434 0.0
C1081 C 0.54685 0.90422 0.94797 0.0
C1082 C 0.55329 0.95797 0.95556 0.0
C1083 C 0.5424 0.97203 0.96806 0.0
C1084 C 0.54956 0.97708 0.98954 0.0
C1085 C 0.56775 0.9677 0.99823 0.0
C1086 C 0.57863 0.95373 0.98572 0.0
H1087 H 0.54198 0.88601 0.94469 0.0
H1088 H 0.5427 0.90728 0.96509 0.0
H1089 H 0.53591 0.91285 0.93754 0.0
H1090 H 0.54776 0.95456 0.93896 0.0
H1091 H 0.52847 0.97899 0.96085 0.0
H1092 H 0.91335 0.17611 0.36584 0.0
H1093 H 0.93566 0.15305 0.38637 0.0
H1094 H 0.89262 0.15692 0.44226 0.0
H1095 H 0.86974 0.1793 0.4217 0.0
H1096 H 0.96106 0.16151 0.42526 0.0
H1097 H 0.88696 0.08959 0.43327 0.0
H1098 H 0.88655 0.1122 0.41452 0.0
H1099 H 0.88061 0.11553 0.44273 0.0
C1100 C 0.90855 0.17196 0.38247 0.0
C1101 C 0.88963 0.1794 0.39208 0.0
C1102 C 0.92141 0.1589 0.3942 0.0
C1103 C 0.91551 0.15298 0.41568 0.0
C1104 C 0.89717 0.16098 0.42555 0.0
H1105 H 0.96402 0.07562 0.51592 0.0
H1106 H 0.94516 0.10002 0.4937 0.0
C1107 C 0.88429 0.174 0.41385 0.0
C1108 C 0.92833 0.13819 0.42774 0.0
H1109 H 0.9209 0.08817 0.45411 0.0
C1110 C 0.95236 0.14541 0.43146 0.0
C1111 C 0.9169 0.11715 0.43567 0.0
C1112 C 0.89138 0.10801 0.4312 0.0
C1113 C 0.96514 0.13239 0.44354 0.0
C1114 C 0.95359 0.11156 0.45181 0.0
C1115 C 0.92965 0.10421 0.4478 0.0
C1116 C 0.9658 0.09731 0.4652 0.0
C1117 C 0.99072 0.14128 0.44789 0.0
C1118 C 0.98359 0.08761 0.45645 0.0
C1119 C 0.99445 0.07357 0.46911 0.0
C1120 C 0.98761 0.06897 0.49071 0.0
C1121 C 0.96978 0.0788 0.49937 0.0
C1122 C 0.95894 0.09276 0.4867 0.0
H1123 H 0.99579 0.1594 0.44426 0.0
H1124 H 0.99509 0.13846 0.46504 0.0
H1125 H 1.00133 0.13228 0.43755 0.0
H1126 H 0.98886 0.09065 0.43975 0.0
H1127 H 1.00808 0.06624 0.46192 0.0
H1128 H 0.24371 0.6466 0.14877 0.0
H1129 H 0.20918 0.63291 0.12635 0.0
H1130 H 0.21858 0.5653 0.13569 0.0
H1131 H 0.25311 0.57877 0.15793 0.0
H1132 H 0.20337 0.60786 0.08821 0.0
H1133 H 0.15097 0.56135 0.1543 0.0
H1134 H 0.17751 0.58146 0.15932 0.0
H1135 H 0.17884 0.5537 0.15048 0.0
C1136 C 0.23858 0.62882 0.14593 0.0
C1137 C 0.25119 0.61382 0.15544 0.0
C1138 C 0.21872 0.621 0.13316 0.0
C1139 C 0.21091 0.59801 0.12964 0.0
C1140 C 0.22381 0.58306 0.1386 0.0
H1141 H 0.093 0.51613 0.06184 0.0
H1142 H 0.12936 0.53032 0.08148 0.0
C1143 C 0.24362 0.59084 0.15136 0.0
C1144 C 0.18936 0.58962 0.11658 0.0
H1145 H 0.13536 0.55553 0.11884 0.0
C1146 C 0.18845 0.59651 0.09495 0.0
C1147 C 0.16984 0.57476 0.1253 0.0
C1148 C 0.16915 0.56752 0.14868 0.0
C1149 C 0.16885 0.58861 0.08172 0.0
C1150 C 0.14937 0.57369 0.09043 0.0
C1151 C 0.15027 0.56686 0.11208 0.0
C1152 C 0.12773 0.56518 0.07752 0.0
C1153 C 0.16945 0.59591 0.05837 0.0
C1154 C 0.11453 0.57998 0.06874 0.0
C1155 C 0.0937 0.57192 0.05745 0.0
C1156 C 0.08545 0.54881 0.05474 0.0
C1157 C 0.09879 0.53402 0.06346 0.0
C1158 C 0.11961 0.54211 0.07477 0.0
H1159 H 0.18762 0.60203 0.05269 0.0
H1160 H 0.16098 0.58202 0.04772 0.0
H1161 H 0.15982 0.60979 0.05667 0.0
H1162 H 0.12006 0.59781 0.071 0.0
H1163 H 0.08389 0.58385 0.05114 0.0
H1164 H 0.28436 0.39448 0.62141 0.0
H1165 H 0.31954 0.41326 0.60251 0.0
H1166 H 0.32949 0.46602 0.64984 0.0
H1167 H 0.29428 0.44716 0.66904 0.0
H1168 H 0.33043 0.45841 0.58485 0.0
H1169 H 0.39283 0.44338 0.64881 0.0
H1170 H 0.36321 0.42773 0.64738 0.0
H1171 H 0.36887 0.45585 0.65735 0.0
C1172 C 0.29407 0.41001 0.62793 0.0
C1173 C 0.28653 0.41915 0.64693 0.0
C1174 C 0.31413 0.42082 0.61699 0.0
C1175 C 0.32736 0.44095 0.62483 0.0
C1176 C 0.31974 0.45037 0.64358 0.0
H1177 H 0.44301 0.52837 0.55686 0.0
H1178 H 0.40649 0.51371 0.57611 0.0
C1179 C 0.2995 0.43964 0.65447 0.0
C1180 C 0.34917 0.45181 0.61339 0.0
H1181 H 0.40877 0.46384 0.61817 0.0
C1182 C 0.34755 0.45974 0.59219 0.0
C1183 C 0.37155 0.45334 0.62285 0.0
C1184 C 0.37442 0.44451 0.64529 0.0
C1185 C 0.36765 0.46915 0.58027 0.0
C1186 C 0.39002 0.47072 0.58975 0.0
C1187 C 0.39164 0.46277 0.61093 0.0
C1188 C 0.41198 0.47973 0.57765 0.0
C1189 C 0.36489 0.47686 0.55739 0.0
C1190 C 0.42735 0.4656 0.57217 0.0
C1191 C 0.44815 0.47387 0.56104 0.0
C1192 C 0.4543 0.49661 0.55533 0.0
C1193 C 0.43887 0.51077 0.56089 0.0
C1194 C 0.41792 0.5024 0.57187 0.0
H1195 H 0.34685 0.47105 0.55115 0.0
H1196 H 0.36892 0.49538 0.55688 0.0
H1197 H 0.37732 0.47072 0.54646 0.0
H1198 H 0.4232 0.44807 0.57648 0.0
H1199 H 0.45958 0.46245 0.55719 0.0
H1200 H 0.82081 0.72814 0.89407 0.0
H1201 H 0.85008 0.7072 0.90607 0.0
H1202 H 0.80235 0.67371 0.9542 0.0
H1203 H 0.77276 0.6946 0.94217 0.0
H1204 H 0.84737 0.68991 0.9701 0.0
H1205 H 0.85018 0.64121 0.8949 0.0
H1206 H 0.85437 0.67075 0.89031 0.0
H1207 H 0.8269 0.65589 0.90064 0.0
C1208 C 0.81637 0.71608 0.90699 0.0
C1209 C 0.79435 0.71285 0.917 0.0
C1210 C 0.83314 0.70414 0.91384 0.0
C1211 C 0.82821 0.68861 0.93074 0.0
C1212 C 0.80641 0.68553 0.94102 0.0
H1213 H 0.91762 0.5942 0.96216 0.0
H1214 H 0.88444 0.61133 0.95264 0.0
C1215 C 0.78958 0.69752 0.93419 0.0
C1216 C 0.84618 0.67613 0.93798 0.0
H1217 H 0.88131 0.64141 0.9201 0.0
C1218 C 0.85467 0.67915 0.95925 0.0
C1219 C 0.85544 0.66188 0.92387 0.0
C1220 C 0.84611 0.65703 0.90122 0.0
C1221 C 0.87274 0.66884 0.96657 0.0
C1222 C 0.88279 0.65548 0.95211 0.0
C1223 C 0.87377 0.65188 0.93107 0.0
C1224 C 0.90278 0.64518 0.95842 0.0
C1225 C 0.88083 0.67225 0.98975 0.0
C1226 C 0.92417 0.65857 0.96458 0.0
C1227 C 0.94312 0.64883 0.97018 0.0
C1228 C 0.94107 0.6255 0.96958 0.0
C1229 C 0.91967 0.61218 0.96314 0.0
C1230 C 0.90074 0.62194 0.95757 0.0
H1231 H 0.86734 0.6775 1.00009 0.0
H1232 H 0.8852 0.65676 0.9966 0.0
H1233 H 0.89675 0.68558 0.99039 0.0
H1234 H 0.92626 0.67658 0.96491 0.0
H1235 H 0.95929 0.65956 0.9752 0.0
H1236 H 0.4085 0.78223 0.11742 0.0
H1237 H 0.42407 0.81768 0.09944 0.0
H1238 H 0.4496 0.84652 0.16058 0.0
H1239 H 0.43455 0.81089 0.17868 0.0
H1240 H 0.41308 0.85974 0.1067 0.0
H1241 H 0.50737 0.86218 0.12167 0.0
H1242 H 0.48547 0.83706 0.12499 0.0
H1243 H 0.48937 0.85837 0.14543 0.0
C1244 C 0.41774 0.79597 0.12707 0.0
C1245 C 0.4204 0.79349 0.14956 0.0
C1246 C 0.42649 0.81634 0.11674 0.0
C1247 C 0.43833 0.83479 0.12853 0.0
C1248 C 0.44092 0.83248 0.151 0.0
H1249 H 0.50503 0.97092 0.09218 0.0
H1250 H 0.48961 0.93605 0.11129 0.0
C1251 C 0.43207 0.8121 0.16139 0.0
C1252 C 0.44738 0.8565 0.11733 0.0
H1253 H 0.49737 0.89432 0.1058 0.0
C1254 C 0.43152 0.86727 0.10646 0.0
C1255 C 0.47144 0.86645 0.11704 0.0
C1256 C 0.48948 0.85538 0.12773 0.0
C1257 C 0.43895 0.88775 0.09563 0.0
C1258 C 0.46306 0.89762 0.09513 0.0
C1259 C 0.47891 0.88687 0.1061 0.0
C1260 C 0.47221 0.919 0.08334 0.0
C1261 C 0.42074 0.89889 0.08531 0.0
C1262 C 0.46789 0.92116 0.06111 0.0
C1263 C 0.47659 0.9412 0.05013 0.0
C1264 C 0.4901 0.95955 0.06102 0.0
C1265 C 0.49467 0.95724 0.08322 0.0
C1266 C 0.48587 0.93723 0.0942 0.0
H1267 H 0.40322 0.89298 0.09256 0.0
H1268 H 0.42543 0.91733 0.08698 0.0
H1269 H 0.41946 0.89474 0.06783 0.0
H1270 H 0.45798 0.90724 0.05213 0.0
H1271 H 0.47287 0.9422 0.03302 0.0
H1272 H 0.12834 0.26086 0.6316 0.0
H1273 H 0.11597 0.22672 0.61034 0.0
H1274 H 0.07288 0.19694 0.66324 0.0
H1275 H 0.08524 0.23078 0.68462 0.0
H1276 H 0.12006 0.1828 0.61787 0.0
H1277 H 0.02653 0.18817 0.61333 0.0
H1278 H 0.04883 0.21127 0.62211 0.0
H1279 H 0.03753 0.18893 0.64051 0.0
C1280 C 0.11635 0.24702 0.63882 0.0
C1281 C 0.10767 0.24885 0.65987 0.0
C1282 C 0.10919 0.22749 0.62656 0.0
C1283 C 0.09307 0.2093 0.63493 0.0
C1284 C 0.0848 0.21088 0.65609 0.0
H1285 H 0.02629 0.07626 0.59235 0.0
H1286 H 0.04067 0.11105 0.61186 0.0
C1287 C 0.09192 0.23036 0.66834 0.0
C1288 C 0.08511 0.18859 0.62176 0.0
H1289 H 0.03626 0.15401 0.60182 0.0
C1290 C 0.10175 0.17661 0.61423 0.0
C1291 C 0.06121 0.18039 0.61691 0.0
C1292 C 0.04249 0.19295 0.62344 0.0
C1293 C 0.09512 0.15645 0.60263 0.0
C1294 C 0.07118 0.14812 0.59803 0.0
C1295 C 0.05459 0.16024 0.60536 0.0
C1296 C 0.06288 0.12672 0.58598 0.0
C1297 C 0.11379 0.1439 0.59599 0.0
C1298 C 0.07034 0.1238 0.56474 0.0
C1299 C 0.06212 0.10381 0.55347 0.0
C1300 C 0.04613 0.08624 0.56311 0.0
C1301 C 0.03863 0.08929 0.58435 0.0
C1302 C 0.04683 0.10927 0.59557 0.0
H1303 H 0.13015 0.14926 0.60544 0.0
H1304 H 0.10773 0.12563 0.59813 0.0
H1305 H 0.11796 0.14719 0.57865 0.0
H1306 H 0.0823 0.13711 0.55673 0.0
H1307 H 0.06822 0.10221 0.53713 0.0
H1308 H 0.74318 0.35151 0.38809 0.0
H1309 H 0.71311 0.37138 0.40038 0.0
H1310 H 0.71315 0.34053 0.46312 0.0
H1311 H 0.74275 0.32003 0.45084 0.0
H1312 H 0.6675 0.34727 0.41789 0.0
H1313 H 0.71799 0.40977 0.47431 0.0
H1314 H 0.73174 0.39698 0.45287 0.0
H1315 H 0.72196 0.38138 0.47684 0.0
C1316 C 0.73684 0.34894 0.40452 0.0
C1317 C 0.74529 0.33404 0.41843 0.0
C1318 C 0.71978 0.36042 0.41153 0.0
C1319 C 0.71107 0.35746 0.43265 0.0
C1320 C 0.71993 0.34321 0.44684 0.0
H1321 H 0.603 0.40706 0.50244 0.0
H1322 H 0.63556 0.38962 0.49161 0.0
C1323 C 0.7369 0.33159 0.4398 0.0
C1324 C 0.69153 0.36806 0.43932 0.0
H1325 H 0.67718 0.40773 0.47263 0.0
C1326 C 0.66957 0.36055 0.4298 0.0
C1327 C 0.69437 0.38519 0.45497 0.0
C1328 C 0.71779 0.394 0.46532 0.0
C1329 C 0.65017 0.36956 0.43573 0.0
C1330 C 0.65303 0.38697 0.45118 0.0
C1331 C 0.67504 0.39442 0.46075 0.0
C1332 C 0.63339 0.39764 0.45765 0.0
C1333 C 0.62671 0.35994 0.42579 0.0
C1334 C 0.62157 0.40817 0.44219 0.0
C1335 C 0.60291 0.418 0.4483 0.0
C1336 C 0.59594 0.41778 0.47006 0.0
C1337 C 0.60806 0.40758 0.48557 0.0
C1338 C 0.62662 0.39759 0.47942 0.0
H1339 H 0.62614 0.34286 0.41937 0.0
H1340 H 0.61242 0.35924 0.43775 0.0
H1341 H 0.62339 0.37068 0.4121 0.0
H1342 H 0.6269 0.40892 0.42539 0.0
H1343 H 0.59417 0.42611 0.43606 0.0
loop_
_geom_bond_atom_site_label_1
_geom_bond_atom_site_label_2
_geom_bond_distance
_geom_bond_site_symmetry_2
_ccdc_geom_bond_type
C0 C1 1.264 . S
C0 C5 1.479 . S
C0 C10 1.465 . S
C1 C0 1.264 . S
C1 C3 1.339 . S
C1 H28 0.931 . S
C2 C3 1.395 . S
C2 C4 1.320 . S
C3 C1 1.339 . S
C3 C2 1.395 . S
C3 H29 0.929 . S
C4 C2 1.320 . S
C4 C5 1.405 . S
C4 H30 0.930 . S
C5 C0 1.479 . S
C5 C4 1.405 . S
C5 H31 0.931 . S
U6 O7 2.454 . S
U6 O8 2.458 . S
U6 C9 2.984 . S
U6 C10 2.847 . S
U6 C23 2.882 . S
U6 O24 2.441 . S
U6 O25 2.420 . S
U6 O26 2.455 . S
U6 O27 2.449 . S
O7 U6 2.454 . S
O7 C9 1.353 . S
O8 U6 2.458 . S
O8 C9 1.286 . S
C9 U6 2.984 . S
C9 O7 1.353 . S
C9 O8 1.286 . S
C9 C11 1.363 . S
C10 C0 1.465 . S
C10 U6 2.847 . S
C10 O24 1.249 . S
C10 O25 1.202 . S
C11 C9 1.363 . S
C11 C13 1.408 . S
C11 C16 1.342 . S
C12 C13 1.310 . S
C12 C15 1.461 . S
C12 H32 0.932 . S
C13 C11 1.408 . S
C13 C12 1.310 . S
C13 H33 0.930 . S
C14 C15 1.474 . S
C14 C16 1.285 . S
C14 H34 0.929 . S
C15 C12 1.461 . S
C15 C14 1.474 . S
C16 C11 1.342 . S
C16 C14 1.285 . S
C16 H35 0.930 . S
C17 C20 1.424 . S
C17 C22 1.245 . S
C17 C23 1.428 . S
C18 C21 1.260 . S
C18 C22 1.477 . S
C18 H36 0.932 . S
C19 C20 1.384 . S
C19 C21 1.479 . S
C19 H37 0.929 . S
C20 C17 1.424 . S
C20 C19 1.384 . S
C20 H38 0.928 . S
C21 C18 1.260 . S
C21 C19 1.479 . S
C22 C17 1.245 . S
C22 C18 1.477 . S
C22 H39 0.932 . S
C23 U6 2.882 . S
C23 C17 1.428 . S
C23 O26 1.301 . S
C23 O27 1.282 . S
O24 U6 2.441 . S
O24 C10 1.249 . S
O25 U6 2.420 . S
O25 C10 1.202 . S
O26 U6 2.455 . S
O26 C23 1.301 . S
O27 U6 2.449 . S
O27 C23 1.282 . S
H28 C1 0.931 . S
H29 C3 0.929 . S
H30 C4 0.930 . S
H31 C5 0.931 . S
H32 C12 0.932 . S
H33 C13 0.930 . S
H34 C14 0.929 . S
H35 C16 0.930 . S
H36 C18 0.932 . S
H37 C19 0.929 . S
H38 C20 0.928 . S
H39 C22 0.932 . S
C40 C41 1.264 . S
C40 C45 1.479 . S
C40 C50 1.465 . S
C41 C40 1.264 . S
C41 C43 1.339 . S
C41 H68 0.931 . S
C42 C43 1.395 . S
C42 C44 1.320 . S
C43 C41 1.339 . S
C43 C42 1.395 . S
C43 H69 0.929 . S
C44 C42 1.320 . S
C44 C45 1.405 . S
C44 H70 0.930 . S
C45 C40 1.479 . S
C45 C44 1.405 . S
C45 H71 0.931 . S
U46 O47 2.454 . S
U46 O48 2.458 . S
U46 C49 2.984 . S
U46 C50 2.847 . S
U46 C63 2.882 . S
U46 O64 2.441 . S
U46 O65 2.420 . S
U46 O66 2.455 . S
U46 O67 2.449 . S
O47 U46 2.454 . S
O47 C49 1.353 . S
O48 U46 2.458 . S
O48 C49 1.286 . S
C49 U46 2.984 . S
C49 O47 1.353 . S
C49 O48 1.286 . S
C49 C51 1.363 . S
C50 C40 1.465 . S
C50 U46 2.847 . S
C50 O64 1.249 . S
C50 O65 1.202 . S
C51 C49 1.363 . S
C51 C53 1.408 . S
C51 C56 1.342 . S
C52 C53 1.310 . S
C52 C55 1.461 . S
C52 H72 0.932 . S
C53 C51 1.408 . S
C53 C52 1.310 . S
C53 H73 0.930 . S
C54 C55 1.474 . S
C54 C56 1.285 . S
C54 H74 0.929 . S
C55 C52 1.461 . S
C55 C54 1.474 . S
C56 C51 1.342 . S
C56 C54 1.285 . S
C56 H75 0.930 . S
C57 C60 1.424 . S
C57 C62 1.245 . S
C57 C63 1.428 . S
C58 C61 1.260 . S
C58 C62 1.477 . S
C58 H76 0.932 . S
C59 C60 1.384 . S
C59 C61 1.479 . S
C59 H77 0.929 . S
C60 C57 1.424 . S
C60 C59 1.384 . S
C60 H78 0.928 . S
C61 C58 1.260 . S
C61 C59 1.479 . S
C62 C57 1.245 . S
C62 C58 1.477 . S
C62 H79 0.932 . S
C63 U46 2.882 . S
C63 C57 1.428 . S
C63 O66 1.301 . S
C63 O67 1.282 . S
O64 U46 2.441 . S
O64 C50 1.249 . S
O65 U46 2.420 . S
O65 C50 1.202 . S
O66 U46 2.455 . S
O66 C63 1.301 . S
O67 U46 2.449 . S
O67 C63 1.282 . S
H68 C41 0.931 . S
H69 C43 0.929 . S
H70 C44 0.930 . S
H71 C45 0.931 . S
H72 C52 0.932 . S
H73 C53 0.930 . S
H74 C54 0.929 . S
H75 C56 0.930 . S
H76 C58 0.932 . S
H77 C59 0.929 . S
H78 C60 0.928 . S
H79 C62 0.932 . S
C80 C81 1.264 . S
C80 C85 1.479 . S
C80 C90 1.465 . S
C81 C80 1.264 . S
C81 C83 1.339 . S
C81 H108 0.931 . S
C82 C83 1.395 . S
C82 C84 1.320 . S
C83 C81 1.339 . S
C83 C82 1.395 . S
C83 H109 0.929 . S
C84 C82 1.320 . S
C84 C85 1.405 . S
C84 H110 0.930 . S
C85 C80 1.479 . S
C85 C84 1.405 . S
C85 H111 0.931 . S
U86 O87 2.454 . S
U86 O88 2.458 . S
U86 C89 2.984 . S
U86 C90 2.847 . S
U86 C103 2.882 . S
U86 O104 2.441 . S
U86 O105 2.420 . S
U86 O106 2.455 . S
U86 O107 2.449 . S
O87 U86 2.454 . S
O87 C89 1.353 . S
O88 U86 2.458 . S
O88 C89 1.286 . S
C89 U86 2.984 . S
C89 O87 1.353 . S
C89 O88 1.286 . S
C89 C91 1.363 . S
C90 C80 1.465 . S
C90 U86 2.847 . S
C90 O104 1.249 . S
C90 O105 1.202 . S
C91 C89 1.363 . S
C91 C93 1.408 . S
C91 C96 1.342 . S
C92 C93 1.310 . S
C92 C95 1.461 . S
C92 H112 0.932 . S
C93 C91 1.408 . S
C93 C92 1.310 . S
C93 H113 0.930 . S
C94 C95 1.474 . S
C94 C96 1.285 . S
C94 H114 0.929 . S
C95 C92 1.461 . S
C95 C94 1.474 . S
C96 C91 1.342 . S
C96 C94 1.285 . S
C96 H115 0.930 . S
C97 C100 1.424 . S
C97 C102 1.245 . S
C97 C103 1.428 . S
C98 C101 1.260 . S
C98 C102 1.477 . S
C98 H116 0.932 . S
C99 C100 1.384 . S
C99 C101 1.479 . S
C99 H117 0.929 . S
C100 C97 1.424 . S
C100 C99 1.384 . S
C100 H118 0.928 . S
C101 C98 1.260 . S
C101 C99 1.479 . S
C102 C97 1.245 . S
C102 C98 1.477 . S
C102 H119 0.932 . S
C103 U86 2.882 . S
C103 C97 1.428 . S
C103 O106 1.301 . S
C103 O107 1.282 . S
O104 U86 2.441 . S
O104 C90 1.249 . S
O105 U86 2.420 . S
O105 C90 1.202 . S
O106 U86 2.455 . S
O106 C103 1.301 . S
O107 U86 2.449 . S
O107 C103 1.282 . S
H108 C81 0.931 . S
H109 C83 0.929 . S
H110 C84 0.930 . S
H111 C85 0.931 . S
H112 C92 0.932 . S
H113 C93 0.930 . S
H114 C94 0.929 . S
H115 C96 0.930 . S
H116 C98 0.932 . S
H117 C99 0.929 . S
H118 C100 0.928 . S
H119 C102 0.932 . S
C120 C121 1.264 . S
C120 C125 1.479 . S
C120 C130 1.465 . S
C121 C120 1.264 . S
C121 C123 1.339 . S
C121 H148 0.931 . S
C122 C123 1.395 . S
C122 C124 1.320 . S
C123 C121 1.339 . S
C123 C122 1.395 . S
C123 H149 0.929 . S
C124 C122 1.320 . S
C124 C125 1.405 . S
C124 H150 0.930 . S
C125 C120 1.479 . S
C125 C124 1.405 . S
C125 H151 0.931 . S
U126 O127 2.454 . S
U126 O128 2.458 . S
U126 C129 2.984 . S
U126 C130 2.847 . S
U126 C143 2.882 . S
U126 O144 2.441 . S
U126 O145 2.420 . S
U126 O146 2.455 . S
U126 O147 2.449 . S
O127 U126 2.454 . S
O127 C129 1.353 . S
O128 U126 2.458 . S
O128 C129 1.286 . S
C129 U126 2.984 . S
C129 O127 1.353 . S
C129 O128 1.286 . S
C129 C131 1.363 . S
C130 C120 1.465 . S
C130 U126 2.847 . S
C130 O144 1.249 . S
C130 O145 1.202 . S
C131 C129 1.363 . S
C131 C133 1.408 . S
C131 C136 1.342 . S
C132 C133 1.310 . S
C132 C135 1.461 . S
C132 H152 0.932 . S
C133 C131 1.408 . S
C133 C132 1.310 . S
C133 H153 0.930 . S
C134 C135 1.474 . S
C134 C136 1.285 . S
C134 H154 0.929 . S
C135 C132 1.461 . S
C135 C134 1.474 . S
C136 C131 1.342 . S
C136 C134 1.285 . S
C136 H155 0.930 . S
C137 C140 1.424 . S
C137 C142 1.245 . S
C137 C143 1.428 . S
C138 C141 1.260 . S
C138 C142 1.477 . S
C138 H156 0.932 . S
C139 C140 1.384 . S
C139 C141 1.479 . S
C139 H157 0.929 . S
C140 C137 1.424 . S
C140 C139 1.384 . S
C140 H158 0.928 . S
C141 C138 1.260 . S
C141 C139 1.479 . S
C142 C137 1.245 . S
C142 C138 1.477 . S
C142 H159 0.932 . S
C143 U126 2.882 . S
C143 C137 1.428 . S
C143 O146 1.301 . S
C143 O147 1.282 . S
O144 U126 2.441 . S
O144 C130 1.249 . S
O145 U126 2.420 . S
O145 C130 1.202 . S
O146 U126 2.455 . S
O146 C143 1.301 . S
O147 U126 2.449 . S
O147 C143 1.282 . S
H148 C121 0.931 . S
H149 C123 0.929 . S
H150 C124 0.930 . S
H151 C125 0.931 . S
H152 C132 0.932 . S
H153 C133 0.930 . S
H154 C134 0.929 . S
H155 C136 0.930 . S
H156 C138 0.932 . S
H157 C139 0.929 . S
H158 C140 0.928 . S
H159 C142 0.932 . S
C160 C161 1.264 . S
C160 C165 1.479 . S
C160 C170 1.465 . S
C161 C160 1.264 . S
C161 C163 1.339 . S
C161 H188 0.931 . S
C162 C163 1.395 . S
C162 C164 1.320 . S
C163 C161 1.339 . S
C163 C162 1.395 . S
C163 H189 0.929 . S
C164 C162 1.320 . S
C164 C165 1.405 . S
C164 H190 0.930 . S
C165 C160 1.479 . S
C165 C164 1.405 . S
C165 H191 0.931 . S
U166 O167 2.454 . S
U166 O168 2.458 . S
U166 C169 2.984 . S
U166 C170 2.847 . S
U166 C183 2.882 . S
U166 O184 2.441 . S
U166 O185 2.420 . S
U166 O186 2.455 . S
U166 O187 2.449 . S
O167 U166 2.454 . S
O167 C169 1.353 . S
O168 U166 2.458 . S
O168 C169 1.286 . S
C169 U166 2.984 . S
C169 O167 1.353 . S
C169 O168 1.286 . S
C169 C171 1.363 . S
C170 C160 1.465 . S
C170 U166 2.847 . S
C170 O184 1.249 . S
C170 O185 1.202 . S
C171 C169 1.363 . S
C171 C173 1.408 . S
C171 C176 1.342 . S
C172 C173 1.310 . S
C172 C175 1.461 . S
C172 H192 0.932 . S
C173 C171 1.408 . S
C173 C172 1.310 . S
C173 H193 0.930 . S
C174 C175 1.474 . S
C174 C176 1.285 . S
C174 H194 0.929 . S
C175 C172 1.461 . S
C175 C174 1.474 . S
C176 C171 1.342 . S
C176 C174 1.285 . S
C176 H195 0.930 . S
C177 C180 1.424 . S
C177 C182 1.245 . S
C177 C183 1.428 . S
C178 C181 1.260 . S
C178 C182 1.477 . S
C178 H196 0.932 . S
C179 C180 1.384 . S
C179 C181 1.479 . S
C179 H197 0.929 . S
C180 C177 1.424 . S
C180 C179 1.384 . S
C180 H198 0.928 . S
C181 C178 1.260 . S
C181 C179 1.479 . S
C182 C177 1.245 . S
C182 C178 1.477 . S
C182 H199 0.932 . S
C183 U166 2.882 . S
C183 C177 1.428 . S
C183 O186 1.301 . S
C183 O187 1.282 . S
O184 U166 2.441 . S
O184 C170 1.249 . S
O185 U166 2.420 . S
O185 C170 1.202 . S
O186 U166 2.455 . S
O186 C183 1.301 . S
O187 U166 2.449 . S
O187 C183 1.282 . S
H188 C161 0.931 . S
H189 C163 0.929 . S
H190 C164 0.930 . S
H191 C165 0.931 . S
H192 C172 0.932 . S
H193 C173 0.930 . S
H194 C174 0.929 . S
H195 C176 0.930 . S
H196 C178 0.932 . S
H197 C179 0.929 . S
H198 C180 0.928 . S
H199 C182 0.932 . S
C200 C201 1.264 . S
C200 C205 1.479 . S
C200 C210 1.465 . S
C201 C200 1.264 . S
C201 C203 1.339 . S
C201 H228 0.931 . S
C202 C203 1.395 . S
C202 C204 1.320 . S
C203 C201 1.339 . S
C203 C202 1.395 . S
C203 H229 0.929 . S
C204 C202 1.320 . S
C204 C205 1.405 . S
C204 H230 0.930 . S
C205 C200 1.479 . S
C205 C204 1.405 . S
C205 H231 0.931 . S
U206 O207 2.454 . S
U206 O208 2.458 . S
U206 C209 2.984 . S
U206 C210 2.847 . S
U206 C223 2.882 . S
U206 O224 2.441 . S
U206 O225 2.420 . S
U206 O226 2.455 . S
U206 O227 2.449 . S
O207 U206 2.454 . S
O207 C209 1.353 . S
O208 U206 2.458 . S
O208 C209 1.286 . S
C209 U206 2.984 . S
C209 O207 1.353 . S
C209 O208 1.286 . S
C209 C211 1.363 . S
C210 C200 1.465 . S
C210 U206 2.847 . S
C210 O224 1.249 . S
C210 O225 1.202 . S
C211 C209 1.363 . S
C211 C213 1.408 . S
C211 C216 1.342 . S
C212 C213 1.310 . S
C212 C215 1.461 . S
C212 H232 0.932 . S
C213 C211 1.408 . S
C213 C212 1.310 . S
C213 H233 0.930 . S
C214 C215 1.474 . S
C214 C216 1.285 . S
C214 H234 0.929 . S
C215 C212 1.461 . S
C215 C214 1.474 . S
C216 C211 1.342 . S
C216 C214 1.285 . S
C216 H235 0.930 . S
C217 C220 1.424 . S
C217 C222 1.245 . S
C217 C223 1.428 . S
C218 C221 1.260 . S
C218 C222 1.477 . S
C218 H236 0.932 . S
C219 C220 1.384 . S
C219 C221 1.479 . S
C219 H237 0.929 . S
C220 C217 1.424 . S
C220 C219 1.384 . S
C220 H238 0.928 . S
C221 C218 1.260 . S
C221 C219 1.479 . S
C222 C217 1.245 . S
C222 C218 1.477 . S
C222 H239 0.932 . S
C223 U206 2.882 . S
C223 C217 1.428 . S
C223 O226 1.301 . S
C223 O227 1.282 . S
O224 U206 2.441 . S
O224 C210 1.249 . S
O225 U206 2.420 . S
O225 C210 1.202 . S
O226 U206 2.455 . S
O226 C223 1.301 . S
O227 U206 2.449 . S
O227 C223 1.282 . S
H228 C201 0.931 . S
H229 C203 0.929 . S
H230 C204 0.930 . S
H231 C205 0.931 . S
H232 C212 0.932 . S
H233 C213 0.930 . S
H234 C214 0.929 . S
H235 C216 0.930 . S
H236 C218 0.932 . S
H237 C219 0.929 . S
H238 C220 0.928 . S
H239 C222 0.932 . S
C240 C241 1.264 . S
C240 C245 1.479 . S
C240 C250 1.465 . S
C241 C240 1.264 . S
C241 C243 1.339 . S
C241 H268 0.931 . S
C242 C243 1.395 . S
C242 C244 1.320 . S
C243 C241 1.339 . S
C243 C242 1.395 . S
C243 H269 0.929 . S
C244 C242 1.320 . S
C244 C245 1.405 . S
C244 H270 0.930 . S
C245 C240 1.479 . S
C245 C244 1.405 . S
C245 H271 0.931 . S
U246 O247 2.454 . S
U246 O248 2.458 . S
U246 C249 2.984 . S
U246 C250 2.847 . S
U246 C263 2.882 . S
U246 O264 2.441 . S
U246 O265 2.420 . S
U246 O266 2.455 . S
U246 O267 2.449 . S
O247 U246 2.454 . S
O247 C249 1.353 . S
O248 U246 2.458 . S
O248 C249 1.286 . S
C249 U246 2.984 . S
C249 O247 1.353 . S
C249 O248 1.286 . S
C249 C251 1.363 . S
C250 C240 1.465 . S
C250 U246 2.847 . S
C250 O264 1.249 . S
C250 O265 1.202 . S
C251 C249 1.363 . S
C251 C253 1.408 . S
C251 C256 1.342 . S
C252 C253 1.310 . S
C252 C255 1.461 . S
C252 H272 0.932 . S
C253 C251 1.408 . S
C253 C252 1.310 . S
C253 H273 0.930 . S
C254 C255 1.474 . S
C254 C256 1.285 . S
C254 H274 0.929 . S
C255 C252 1.461 . S
C255 C254 1.474 . S
C256 C251 1.342 . S
C256 C254 1.285 . S
C256 H275 0.930 . S
C257 C260 1.424 . S
C257 C262 1.245 . S
C257 C263 1.428 . S
C258 C261 1.260 . S
C258 C262 1.477 . S
C258 H276 0.932 . S
C259 C260 1.384 . S
C259 C261 1.479 . S
C259 H277 0.929 . S
C260 C257 1.424 . S
C260 C259 1.384 . S
C260 H278 0.928 . S
C261 C258 1.260 . S
C261 C259 1.479 . S
C262 C257 1.245 . S
C262 C258 1.477 . S
C262 H279 0.932 . S
C263 U246 2.882 . S
C263 C257 1.428 . S
C263 O266 1.301 . S
C263 O267 1.282 . S
O264 U246 2.441 . S
O264 C250 1.249 . S
O265 U246 2.420 . S
O265 C250 1.202 . S
O266 U246 2.455 . S
O266 C263 1.301 . S
O267 U246 2.449 . S
O267 C263 1.282 . S
H268 C241 0.931 . S
H269 C243 0.929 . S
H270 C244 0.930 . S
H271 C245 0.931 . S
H272 C252 0.932 . S
H273 C253 0.930 . S
H274 C254 0.929 . S
H275 C256 0.930 . S
H276 C258 0.932 . S
H277 C259 0.929 . S
H278 C260 0.928 . S
H279 C262 0.932 . S
C280 C281 1.264 . S
C280 C285 1.479 . S
C280 C290 1.465 . S
C281 C280 1.264 . S
C281 C283 1.339 . S
C281 H308 0.931 . S
C282 C283 1.395 . S
C282 C284 1.320 . S
C283 C281 1.339 . S
C283 C282 1.395 . S
C283 H309 0.929 . S
C284 C282 1.320 . S
C284 C285 1.405 . S
C284 H310 0.930 . S
C285 C280 1.479 . S
C285 C284 1.405 . S
C285 H311 0.931 . S
U286 O287 2.454 . S
U286 O288 2.458 . S
U286 C289 2.984 . S
U286 C290 2.847 . S
U286 C303 2.882 . S
U286 O304 2.441 . S
U286 O305 2.420 . S
U286 O306 2.455 . S
U286 O307 2.449 . S
O287 U286 2.454 . S
O287 C289 1.353 . S
O288 U286 2.458 . S
O288 C289 1.286 . S
C289 U286 2.984 . S
C289 O287 1.353 . S
C289 O288 1.286 . S
C289 C291 1.363 . S
C290 C280 1.465 . S
C290 U286 2.847 . S
C290 O304 1.249 . S
C290 O305 1.202 . S
C291 C289 1.363 . S
C291 C293 1.408 . S
C291 C296 1.342 . S
C292 C293 1.310 . S
C292 C295 1.461 . S
C292 H312 0.932 . S
C293 C291 1.408 . S
C293 C292 1.310 . S
C293 H313 0.930 . S
C294 C295 1.474 . S
C294 C296 1.285 . S
C294 H314 0.929 . S
C295 C292 1.461 . S
C295 C294 1.474 . S
C296 C291 1.342 . S
C296 C294 1.285 . S
C296 H315 0.930 . S
C297 C300 1.424 . S
C297 C302 1.245 . S
C297 C303 1.428 . S
C298 C301 1.260 . S
C298 C302 1.477 . S
C298 H316 0.932 . S
C299 C300 1.384 . S
C299 C301 1.479 . S
C299 H317 0.929 . S
C300 C297 1.424 . S
C300 C299 1.384 . S
C300 H318 0.928 . S
C301 C298 1.260 . S
C301 C299 1.479 . S
C302 C297 1.245 . S
C302 C298 1.477 . S
C302 H319 0.932 . S
C303 U286 2.882 . S
C303 C297 1.428 . S
C303 O306 1.301 . S
C303 O307 1.282 . S
O304 U286 2.441 . S
O304 C290 1.249 . S
O305 U286 2.420 . S
O305 C290 1.202 . S
O306 U286 2.455 . S
O306 C303 1.301 . S
O307 U286 2.449 . S
O307 C303 1.282 . S
H308 C281 0.931 . S
H309 C283 0.929 . S
H310 C284 0.930 . S
H311 C285 0.931 . S
H312 C292 0.932 . S
H313 C293 0.930 . S
H314 C294 0.929 . S
H315 C296 0.930 . S
H316 C298 0.932 . S
H317 C299 0.929 . S
H318 C300 0.928 . S
H319 C302 0.932 . S
Dy320 O323 2.307 1_545 S
Dy320 O325 2.395 . S
Dy320 O326 2.379 . S
Dy320 O328 2.339 1_545 S
Dy320 O330 2.298 1_455 S
Dy320 O334 2.275 . S
Dy320 C342 2.738 . S
Dy321 O324 2.292 1_645 S
Dy321 O327 2.269 1_545 S
Dy321 O329 2.314 . S
Dy321 O331 2.386 1_545 S
Dy321 O332 2.377 1_545 S
Dy321 O335 2.347 . S
Dy321 C351 2.732 1_545 S
C322 O334 1.254 . S
C322 O335 1.257 1_455 S
O323 Dy320 2.307 1_565 S
O323 C333 1.266 . S
O324 Dy321 2.292 1_465 S
O324 C333 1.236 . S
O325 Dy320 2.395 . S
O325 C342 1.255 . S
O326 Dy320 2.379 . S
O326 C342 1.249 . S
O327 Dy321 2.269 1_565 S
O327 C343 1.254 . S
O328 Dy320 2.339 1_565 S
O328 C343 1.257 1_455 S
O329 Dy321 2.314 . S
O329 C344 1.266 . S
O330 Dy320 2.298 1_655 S
O330 C344 1.236 . S
O331 Dy321 2.386 1_565 S
O331 C351 1.255 . S
O332 Dy321 2.377 1_565 S
O332 C351 1.249 . S
C333 O323 1.266 . S
C333 O324 1.236 . S
O334 Dy320 2.275 . S
O334 C322 1.254 . S
O335 Dy321 2.347 . S
O335 C322 1.257 1_655 S
C336 C339 1.344 . S
C336 C340 1.328 . S
C336 C342 1.516 . S
C337 C338 1.304 . S
C337 C341 1.323 . S
C338 C337 1.304 . S
C338 C339 1.371 . S
C338 H352 0.930 . S
C339 C336 1.344 . S
C339 C338 1.371 . S
C339 H353 0.931 . S
C340 C336 1.328 . S
C340 C341 1.433 . S
C340 H354 0.931 . S
C341 C337 1.323 . S
C341 C340 1.433 . S
C341 H355 0.933 . S
C342 Dy320 2.738 . S
C342 O325 1.255 . S
C342 O326 1.249 . S
C342 C336 1.516 . S
C343 O327 1.254 . S
C343 O328 1.257 1_655 S
C344 O329 1.266 . S
C344 O330 1.236 . S
C345 C348 1.344 . S
C345 C349 1.328 . S
C345 C351 1.516 . S
C346 C347 1.304 . S
C346 C350 1.323 . S
C347 C346 1.304 . S
C347 C348 1.371 . S
C347 H356 0.930 . S
C348 C345 1.344 . S
C348 C347 1.371 . S
C348 H357 0.931 . S
C349 C345 1.328 . S
C349 C350 1.433 . S
C349 H358 0.931 . S
C350 C346 1.323 . S
C350 C349 1.433 . S
C350 H359 0.933 . S
C351 Dy321 2.732 1_565 S
C351 O331 1.255 . S
C351 O332 1.249 . S
C351 C345 1.516 . S
H352 C338 0.930 . S
H353 C339 0.931 . S
H354 C340 0.931 . S
H355 C341 0.933 . S
H356 C347 0.930 . S
H357 C348 0.931 . S
H358 C349 0.931 . S
H359 C350 0.933 . S
Dy360 O363 2.307 1_566 S
Dy360 O365 2.395 . S
Dy360 O366 2.379 . S
Dy360 O368 2.339 1_565 S
Dy360 O370 2.298 . S
Dy360 O374 2.275 1_556 S
Dy360 C382 2.738 . S
Dy361 O364 2.298 . S
Dy361 O367 2.275 1_554 S
Dy361 O369 2.307 1_544 S
Dy361 O371 2.395 . S
Dy361 O372 2.379 . S
Dy361 O375 2.339 1_545 S
Dy361 C391 2.738 . S
C362 O374 1.254 . S
C362 O375 1.257 . S
O363 Dy360 2.307 1_544 S
O363 C373 1.266 . S
O364 Dy361 2.298 . S
O364 C373 1.236 . S
O365 Dy360 2.395 . S
O365 C382 1.255 . S
O366 Dy360 2.379 . S
O366 C382 1.249 . S
O367 Dy361 2.275 1_556 S
O367 C383 1.254 . S
O368 Dy360 2.339 1_545 S
O368 C383 1.257 . S
O369 Dy361 2.307 1_566 S
O369 C384 1.266 . S
O370 Dy360 2.298 . S
O370 C384 1.236 . S
O371 Dy361 2.395 . S
O371 C391 1.255 . S
O372 Dy361 2.379 . S
O372 C391 1.249 . S
C373 O363 1.266 . S
C373 O364 1.236 . S
O374 Dy360 2.275 1_554 S
O374 C362 1.254 . S
O375 Dy361 2.339 1_565 S
O375 C362 1.257 . S
C376 C379 1.344 . S
C376 C380 1.328 . S
C376 C382 1.516 . S
C377 C378 1.304 . S
C377 C381 1.323 . S
C378 C377 1.304 . S
C378 C379 1.371 . S
C378 H392 0.930 . S
C379 C376 1.344 . S
C379 C378 1.371 . S
C379 H393 0.931 . S
C380 C376 1.328 . S
C380 C381 1.433 . S
C380 H394 0.931 . S
C381 C377 1.323 . S
C381 C380 1.433 . S
C381 H395 0.933 . S
C382 Dy360 2.738 . S
C382 O365 1.255 . S
C382 O366 1.249 . S
C382 C376 1.516 . S
C383 O367 1.254 . S
C383 O368 1.257 . S
C384 O369 1.266 . S
C384 O370 1.236 . S
C385 C388 1.344 . S
C385 C389 1.328 . S
C385 C391 1.516 . S
C386 C387 1.304 . S
C386 C390 1.323 . S
C387 C386 1.304 . S
C387 C388 1.371 . S
C387 H396 0.930 . S
C388 C385 1.344 . S
C388 C387 1.371 . S
C388 H397 0.931 . S
C389 C385 1.328 . S
C389 C390 1.433 . S
C389 H398 0.931 . S
C390 C386 1.323 . S
C390 C389 1.433 . S
C390 H399 0.933 . S
C391 Dy361 2.738 . S
C391 O371 1.255 . S
C391 O372 1.249 . S
C391 C385 1.516 . S
H392 C378 0.930 . S
H393 C379 0.931 . S
H394 C380 0.931 . S
H395 C381 0.933 . S
H396 C387 0.930 . S
H397 C388 0.931 . S
H398 C389 0.931 . S
H399 C390 0.933 . S
Dy400 O403 2.307 . S
Dy400 O405 2.395 . S
Dy400 O406 2.379 . S
Dy400 O408 2.339 . S
Dy400 O410 2.298 . S
Dy400 O414 2.275 . S
Dy400 C422 2.738 . S
Dy401 O404 2.298 . S
Dy401 O407 2.275 . S
Dy401 O409 2.307 . S
Dy401 O411 2.395 . S
Dy401 O412 2.379 . S
Dy401 O415 2.339 . S
Dy401 C431 2.738 . S
C402 O414 1.254 . S
C402 O415 1.257 . S
O403 Dy400 2.307 . S
O403 C413 1.266 . S
O404 Dy401 2.298 . S
O404 C413 1.236 . S
O405 Dy400 2.395 . S
O405 C422 1.255 . S
O406 Dy400 2.379 . S
O406 C422 1.249 . S
O407 Dy401 2.275 . S
O407 C423 1.254 . S
O408 Dy400 2.339 . S
O408 C423 1.257 . S
O409 Dy401 2.307 . S
O409 C424 1.266 . S
O410 Dy400 2.298 . S
O410 C424 1.236 . S
O411 Dy401 2.395 . S
O411 C431 1.255 . S
O412 Dy401 2.379 . S
O412 C431 1.249 . S
C413 O403 1.266 . S
C413 O404 1.236 . S
O414 Dy400 2.275 . S
O414 C402 1.254 . S
O415 Dy401 2.339 . S
O415 C402 1.257 . S
C416 C419 1.344 . S
C416 C420 1.328 . S
C416 C422 1.516 . S
C417 C418 1.304 . S
C417 C421 1.323 . S
C418 C417 1.304 . S
C418 C419 1.371 . S
C418 H432 0.930 . S
C419 C416 1.344 . S
C419 C418 1.371 . S
C419 H433 0.931 . S
C420 C416 1.328 . S
C420 C421 1.433 . S
C420 H434 0.931 . S
C421 C417 1.323 . S
C421 C420 1.433 . S
C421 H435 0.933 . S
C422 Dy400 2.738 . S
C422 O405 1.255 . S
C422 O406 1.249 . S
C422 C416 1.516 . S
C423 O407 1.254 . S
C423 O408 1.257 . S
C424 O409 1.266 . S
C424 O410 1.236 . S
C425 C428 1.344 . S
C425 C429 1.328 . S
C425 C431 1.516 . S
C426 C427 1.304 . S
C426 C430 1.323 . S
C427 C426 1.304 . S
C427 C428 1.371 . S
C427 H436 0.930 . S
C428 C425 1.344 . S
C428 C427 1.371 . S
C428 H437 0.931 . S
C429 C425 1.328 . S
C429 C430 1.433 . S
C429 H438 0.931 . S
C430 C426 1.323 . S
C430 C429 1.433 . S
C430 H439 0.933 . S
C431 Dy401 2.738 . S
C431 O411 1.255 . S
C431 O412 1.249 . S
C431 C425 1.516 . S
H432 C418 0.930 . S
H433 C419 0.931 . S
H434 C420 0.931 . S
H435 C421 0.933 . S
H436 C427 0.930 . S
H437 C428 0.931 . S
H438 C429 0.931 . S
H439 C430 0.933 . S
Dy440 O443 2.307 1_556 S
Dy440 O445 2.395 1_455 S
Dy440 O446 2.379 1_455 S
Dy440 O448 2.339 . S
Dy440 O450 2.298 1_455 S
Dy440 O454 2.275 1_456 S
Dy440 C462 2.738 1_455 S
Dy441 O444 2.298 . S
Dy441 O447 2.275 1_554 S
Dy441 O449 2.307 1_455 S
Dy441 O451 2.395 . S
Dy441 O452 2.379 . S
Dy441 O455 2.339 1_455 S
Dy441 C471 2.738 . S
C442 O454 1.254 . S
C442 O455 1.257 . S
O443 Dy440 2.307 1_554 S
O443 C453 1.266 . S
O444 Dy441 2.298 . S
O444 C453 1.236 . S
O445 Dy440 2.395 1_655 S
O445 C462 1.255 . S
O446 Dy440 2.379 1_655 S
O446 C462 1.249 . S
O447 Dy441 2.275 1_556 S
O447 C463 1.254 . S
O448 Dy440 2.339 . S
O448 C463 1.257 . S
O449 Dy441 2.307 1_655 S
O449 C464 1.266 1_554 S
O450 Dy440 2.298 1_655 S
O450 C464 1.236 . S
O451 Dy441 2.395 . S
O451 C471 1.255 . S
O452 Dy441 2.379 . S
O452 C471 1.249 . S
C453 O443 1.266 . S
C453 O444 1.236 . S
O454 Dy440 2.275 1_654 S
O454 C442 1.254 . S
O455 Dy441 2.339 1_655 S
O455 C442 1.257 . S
C456 C459 1.344 . S
C456 C460 1.328 . S
C456 C462 1.516 . S
C457 C458 1.304 . S
C457 C461 1.323 . S
C458 C457 1.304 . S
C458 C459 1.371 . S
C458 H472 0.930 . S
C459 C456 1.344 . S
C459 C458 1.371 . S
C459 H473 0.931 . S
C460 C456 1.328 . S
C460 C461 1.433 . S
C460 H474 0.931 . S
C461 C457 1.323 . S
C461 C460 1.433 . S
C461 H475 0.933 . S
C462 Dy440 2.738 1_655 S
C462 O445 1.255 . S
C462 O446 1.249 . S
C462 C456 1.516 . S
C463 O447 1.254 . S
C463 O448 1.257 . S
C464 O449 1.266 1_556 S
C464 O450 1.236 . S
C465 C468 1.344 . S
C465 C469 1.328 . S
C465 C471 1.516 . S
C466 C467 1.304 . S
C466 C470 1.323 . S
C467 C466 1.304 . S
C467 C468 1.371 . S
C467 H476 0.930 . S
C468 C465 1.344 . S
C468 C467 1.371 . S
C468 H477 0.931 . S
C469 C465 1.328 . S
C469 C470 1.433 . S
C469 H478 0.931 . S
C470 C466 1.323 . S
C470 C469 1.433 . S
C470 H479 0.933 . S
C471 Dy441 2.738 . S
C471 O451 1.255 . S
C471 O452 1.249 . S
C471 C465 1.516 . S
H472 C458 0.930 . S
H473 C459 0.931 . S
H474 C460 0.931 . S
H475 C461 0.933 . S
H476 C467 0.930 . S
H477 C468 0.931 . S
H478 C469 0.931 . S
H479 C470 0.933 . S
H480 C488 0.929 . S
H481 C490 0.930 . S
H482 C492 0.930 . S
H483 C495 0.929 . S
H484 C498 0.930 . S
H485 C500 0.960 . S
H486 C500 0.960 . S
H487 C500 0.960 . S
C488 H480 0.929 . S
C488 C489 1.377 . S
C488 C490 1.384 . S
C489 C488 1.377 . S
C489 C495 1.390 . S
C490 H481 0.930 . S
C490 C488 1.384 . S
C490 C491 1.372 . S
C491 C490 1.372 . S
C491 C492 1.400 . S
C491 C496 1.490 . S
C492 H482 0.930 . S
C492 C491 1.400 . S
C492 C495 1.386 . S
H493 C509 0.930 . S
H494 C510 0.931 . S
C495 H483 0.929 . S
C495 C489 1.390 . S
C495 C492 1.386 . S
C496 C491 1.490 . S
C496 C498 1.395 . S
C496 C499 1.403 . S
H497 C503 0.930 . S
C498 H484 0.930 . S
C498 C496 1.395 . S
C498 C501 1.403 . S
C499 C496 1.403 . S
C499 C500 1.524 . S
C499 C503 1.400 . S
C500 H485 0.960 . S
C500 H486 0.960 . S
C500 H487 0.960 . S
C500 C499 1.524 . S
C501 C498 1.403 . S
C501 C502 1.392 . S
C501 C505 1.495 . S
C502 C501 1.392 . S
C502 C503 1.385 . S
C502 C504 1.478 . S
C503 H497 0.930 . S
C503 C499 1.400 . S
C503 C502 1.385 . S
C504 C502 1.478 . S
C504 C506 1.381 . S
C504 C510 1.383 . S
C505 C501 1.495 . S
C505 H511 0.959 . S
C505 H512 0.961 . S
C505 H513 0.960 . S
C506 C504 1.381 . S
C506 C507 1.394 . S
C506 H514 0.930 . S
C507 C506 1.394 . S
C507 C508 1.383 . S
C507 H515 0.929 . S
C508 C507 1.383 . S
C508 C509 1.377 . S
C509 H493 0.930 . S
C509 C508 1.377 . S
C509 C510 1.379 . S
C510 H494 0.931 . S
C510 C504 1.383 . S
C510 C509 1.379 . S
H511 C505 0.959 . S
H512 C505 0.961 . S
H513 C505 0.960 . S
H514 C506 0.930 . S
H515 C507 0.929 . S
H516 C524 0.929 . S
H517 C526 0.930 . S
H518 C528 0.930 . S
H519 C531 0.929 . S
H520 C534 0.930 . S
H521 C536 0.960 . S
H522 C536 0.960 . S
H523 C536 0.960 . S
C524 H516 0.929 . S
C524 C525 1.377 . S
C524 C526 1.384 . S
C525 C524 1.377 . S
C525 C531 1.390 . S
C526 H517 0.930 . S
C526 C524 1.384 . S
C526 C527 1.372 . S
C527 C526 1.372 . S
C527 C528 1.400 . S
C527 C532 1.490 . S
C528 H518 0.930 . S
C528 C527 1.400 . S
C528 C531 1.386 . S
H529 C545 0.930 . S
H530 C546 0.931 . S
C531 H519 0.929 . S
C531 C525 1.390 . S
C531 C528 1.386 . S
C532 C527 1.490 . S
C532 C534 1.395 . S
C532 C535 1.403 . S
H533 C539 0.930 . S
C534 H520 0.930 . S
C534 C532 1.395 . S
C534 C537 1.403 . S
C535 C532 1.403 . S
C535 C536 1.524 . S
C535 C539 1.400 . S
C536 H521 0.960 . S
C536 H522 0.960 . S
C536 H523 0.960 . S
C536 C535 1.524 . S
C537 C534 1.403 . S
C537 C538 1.392 . S
C537 C541 1.495 . S
C538 C537 1.392 . S
C538 C539 1.385 . S
C538 C540 1.478 . S
C539 H533 0.930 . S
C539 C535 1.400 . S
C539 C538 1.385 . S
C540 C538 1.478 . S
C540 C542 1.381 . S
C540 C546 1.383 . S
C541 C537 1.495 . S
C541 H547 0.959 . S
C541 H548 0.961 . S
C541 H549 0.960 . S
C542 C540 1.381 . S
C542 C543 1.394 . S
C542 H550 0.930 . S
C543 C542 1.394 . S
C543 C544 1.383 . S
C543 H551 0.929 . S
C544 C543 1.383 . S
C544 C545 1.377 . S
C545 H529 0.930 . S
C545 C544 1.377 . S
C545 C546 1.379 . S
C546 H530 0.931 . S
C546 C540 1.383 . S
C546 C545 1.379 . S
H547 C541 0.959 . S
H548 C541 0.961 . S
H549 C541 0.960 . S
H550 C542 0.930 . S
H551 C543 0.929 . S
H552 C560 0.929 . S
H553 C562 0.930 . S
H554 C564 0.930 . S
H555 C567 0.929 . S
H556 C570 0.930 . S
H557 C572 0.960 . S
H558 C572 0.960 . S
H559 C572 0.960 . S
C560 H552 0.929 . S
C560 C561 1.377 . S
C560 C562 1.384 . S
C561 C560 1.377 . S
C561 C567 1.390 . S
C562 H553 0.930 . S
C562 C560 1.384 . S
C562 C563 1.372 . S
C563 C562 1.372 . S
C563 C564 1.400 . S
C563 C568 1.490 . S
C564 H554 0.930 . S
C564 C563 1.400 . S
C564 C567 1.386 . S
H565 C581 0.930 . S
H566 C582 0.931 . S
C567 H555 0.929 . S
C567 C561 1.390 . S
C567 C564 1.386 . S
C568 C563 1.490 . S
C568 C570 1.395 . S
C568 C571 1.403 . S
H569 C575 0.930 . S
C570 H556 0.930 . S
C570 C568 1.395 . S
C570 C573 1.403 . S
C571 C568 1.403 . S
C571 C572 1.524 . S
C571 C575 1.400 . S
C572 H557 0.960 . S
C572 H558 0.960 . S
C572 H559 0.960 . S
C572 C571 1.524 . S
C573 C570 1.403 . S
C573 C574 1.392 . S
C573 C577 1.495 . S
C574 C573 1.392 . S
C574 C575 1.385 . S
C574 C576 1.478 . S
C575 H569 0.930 . S
C575 C571 1.400 . S
C575 C574 1.385 . S
C576 C574 1.478 . S
C576 C578 1.381 . S
C576 C582 1.383 . S
C577 C573 1.495 . S
C577 H583 0.959 . S
C577 H584 0.961 . S
C577 H585 0.960 . S
C578 C576 1.381 . S
C578 C579 1.394 . S
C578 H586 0.930 . S
C579 C578 1.394 . S
C579 C580 1.383 . S
C579 H587 0.929 . S
C580 C579 1.383 . S
C580 C581 1.377 . S
C581 H565 0.930 . S
C581 C580 1.377 . S
C581 C582 1.379 . S
C582 H566 0.931 . S
C582 C576 1.383 . S
C582 C581 1.379 . S
H583 C577 0.959 . S
H584 C577 0.961 . S
H585 C577 0.960 . S
H586 C578 0.930 . S
H587 C579 0.929 . S
H588 C596 0.929 . S
H589 C598 0.930 . S
H590 C600 0.930 . S
H591 C603 0.929 . S
H592 C606 0.930 . S
H593 C608 0.960 . S
H594 C608 0.960 . S
H595 C608 0.960 . S
C596 H588 0.929 . S
C596 C597 1.377 . S
C596 C598 1.384 . S
C597 C596 1.377 . S
C597 C603 1.390 . S
C598 H589 0.930 . S
C598 C596 1.384 . S
C598 C599 1.372 . S
C599 C598 1.372 . S
C599 C600 1.400 . S
C599 C604 1.490 . S
C600 H590 0.930 . S
C600 C599 1.400 . S
C600 C603 1.386 . S
H601 C617 0.930 . S
H602 C618 0.931 . S
C603 H591 0.929 . S
C603 C597 1.390 . S
C603 C600 1.386 . S
C604 C599 1.490 . S
C604 C606 1.395 . S
C604 C607 1.403 . S
H605 C611 0.930 . S
C606 H592 0.930 . S
C606 C604 1.395 . S
C606 C609 1.403 . S
C607 C604 1.403 . S
C607 C608 1.524 . S
C607 C611 1.400 . S
C608 H593 0.960 . S
C608 H594 0.960 . S
C608 H595 0.960 . S
C608 C607 1.524 . S
C609 C606 1.403 . S
C609 C610 1.392 . S
C609 C613 1.495 . S
C610 C609 1.392 . S
C610 C611 1.385 . S
C610 C612 1.478 . S
C611 H605 0.930 . S
C611 C607 1.400 . S
C611 C610 1.385 . S
C612 C610 1.478 . S
C612 C614 1.381 . S
C612 C618 1.383 . S
C613 C609 1.495 . S
C613 H619 0.959 . S
C613 H620 0.961 . S
C613 H621 0.960 . S
C614 C612 1.381 . S
C614 C615 1.394 . S
C614 H622 0.930 . S
C615 C614 1.394 . S
C615 C616 1.383 . S
C615 H623 0.929 . S
C616 C615 1.383 . S
C616 C617 1.377 . S
C617 H601 0.930 . S
C617 C616 1.377 . S
C617 C618 1.379 . S
C618 H602 0.931 . S
C618 C612 1.383 . S
C618 C617 1.379 . S
H619 C613 0.959 . S
H620 C613 0.961 . S
H621 C613 0.960 . S
H622 C614 0.930 . S
H623 C615 0.929 . S
H624 C632 0.929 . S
H625 C634 0.930 . S
H626 C636 0.930 . S
H627 C639 0.929 . S
H628 C642 0.930 . S
H629 C644 0.960 . S
H630 C644 0.960 . S
H631 C644 0.960 . S
C632 H624 0.929 . S
C632 C633 1.377 . S
C632 C634 1.384 . S
C633 C632 1.377 . S
C633 C639 1.390 . S
C634 H625 0.930 . S
C634 C632 1.384 . S
C634 C635 1.372 . S
C635 C634 1.372 . S
C635 C636 1.400 . S
C635 C640 1.490 . S
C636 H626 0.930 . S
C636 C635 1.400 . S
C636 C639 1.386 . S
H637 C653 0.930 . S
H638 C654 0.931 . S
C639 H627 0.929 . S
C639 C633 1.390 . S
C639 C636 1.386 . S
C640 C635 1.490 . S
C640 C642 1.395 . S
C640 C643 1.403 . S
H641 C647 0.930 . S
C642 H628 0.930 . S
C642 C640 1.395 . S
C642 C645 1.403 . S
C643 C640 1.403 . S
C643 C644 1.524 . S
C643 C647 1.400 . S
C644 H629 0.960 . S
C644 H630 0.960 . S
C644 H631 0.960 . S
C644 C643 1.524 . S
C645 C642 1.403 . S
C645 C646 1.392 . S
C645 C649 1.495 . S
C646 C645 1.392 . S
C646 C647 1.385 . S
C646 C648 1.478 . S
C647 H641 0.930 . S
C647 C643 1.400 . S
C647 C646 1.385 . S
C648 C646 1.478 . S
C648 C650 1.381 . S
C648 C654 1.383 . S
C649 C645 1.495 . S
C649 H655 0.959 . S
C649 H656 0.961 . S
C649 H657 0.960 . S
C650 C648 1.381 . S
C650 C651 1.394 . S
C650 H658 0.930 . S
C651 C650 1.394 . S
C651 C652 1.383 . S
C651 H659 0.929 . S
C652 C651 1.383 . S
C652 C653 1.377 . S
C653 H637 0.930 . S
C653 C652 1.377 . S
C653 C654 1.379 . S
C654 H638 0.931 . S
C654 C648 1.383 . S
C654 C653 1.379 . S
H655 C649 0.959 . S
H656 C649 0.961 . S
H657 C649 0.960 . S
H658 C650 0.930 . S
H659 C651 0.929 . S
H660 C668 0.929 . S
H661 C670 0.930 . S
H662 C672 0.930 . S
H663 C675 0.929 . S
H664 C678 0.930 . S
H665 C680 0.960 . S
H666 C680 0.960 . S
H667 C680 0.960 . S
C668 H660 0.929 . S
C668 C669 1.377 . S
C668 C670 1.384 . S
C669 C668 1.377 . S
C669 C675 1.390 . S
C670 H661 0.930 . S
C670 C668 1.384 . S
C670 C671 1.372 . S
C671 C670 1.372 . S
C671 C672 1.400 . S
C671 C676 1.490 . S
C672 H662 0.930 . S
C672 C671 1.400 . S
C672 C675 1.386 . S
H673 C689 0.930 . S
H674 C690 0.931 . S
C675 H663 0.929 . S
C675 C669 1.390 . S
C675 C672 1.386 . S
C676 C671 1.490 . S
C676 C678 1.395 . S
C676 C679 1.403 . S
H677 C683 0.930 . S
C678 H664 0.930 . S
C678 C676 1.395 . S
C678 C681 1.403 . S
C679 C676 1.403 . S
C679 C680 1.524 . S
C679 C683 1.400 . S
C680 H665 0.960 . S
C680 H666 0.960 . S
C680 H667 0.960 . S
C680 C679 1.524 . S
C681 C678 1.403 . S
C681 C682 1.392 . S
C681 C685 1.495 . S
C682 C681 1.392 . S
C682 C683 1.385 . S
C682 C684 1.478 . S
C683 H677 0.930 . S
C683 C679 1.400 . S
C683 C682 1.385 . S
C684 C682 1.478 . S
C684 C686 1.381 . S
C684 C690 1.383 . S
C685 C681 1.495 . S
C685 H691 0.959 . S
C685 H692 0.961 . S
C685 H693 0.960 . S
C686 C684 1.381 . S
C686 C687 1.394 . S
C686 H694 0.930 . S
C687 C686 1.394 . S
C687 C688 1.383 . S
C687 H695 0.929 . S
C688 C687 1.383 . S
C688 C689 1.377 . S
C689 H673 0.930 . S
C689 C688 1.377 . S
C689 C690 1.379 . S
C690 H674 0.931 . S
C690 C684 1.383 . S
C690 C689 1.379 . S
H691 C685 0.959 . S
H692 C685 0.961 . S
H693 C685 0.960 . S
H694 C686 0.930 . S
H695 C687 0.929 . S
H696 C704 0.929 . S
H697 C706 0.930 . S
H698 C708 0.930 . S
H699 C711 0.929 . S
H700 C714 0.930 . S
H701 C716 0.960 . S
H702 C716 0.960 . S
H703 C716 0.960 . S
C704 H696 0.929 . S
C704 C705 1.377 . S
C704 C706 1.384 . S
C705 C704 1.377 . S
C705 C711 1.390 . S
C706 H697 0.930 . S
C706 C704 1.384 . S
C706 C707 1.372 . S
C707 C706 1.372 . S
C707 C708 1.400 . S
C707 C712 1.490 . S
C708 H698 0.930 . S
C708 C707 1.400 . S
C708 C711 1.386 . S
H709 C725 0.930 . S
H710 C726 0.931 . S
C711 H699 0.929 . S
C711 C705 1.390 . S
C711 C708 1.386 . S
C712 C707 1.490 . S
C712 C714 1.395 . S
C712 C715 1.403 . S
H713 C719 0.930 . S
C714 H700 0.930 . S
C714 C712 1.395 . S
C714 C717 1.403 . S
C715 C712 1.403 . S
C715 C716 1.524 . S
C715 C719 1.400 . S
C716 H701 0.960 . S
C716 H702 0.960 . S
C716 H703 0.960 . S
C716 C715 1.524 . S
C717 C714 1.403 . S
C717 C718 1.392 . S
C717 C721 1.495 . S
C718 C717 1.392 . S
C718 C719 1.385 . S
C718 C720 1.478 . S
C719 H713 0.930 . S
C719 C715 1.400 . S
C719 C718 1.385 . S
C720 C718 1.478 . S
C720 C722 1.381 . S
C720 C726 1.383 . S
C721 C717 1.495 . S
C721 H727 0.959 . S
C721 H728 0.961 . S
C721 H729 0.960 . S
C722 C720 1.381 . S
C722 C723 1.394 . S
C722 H730 0.930 . S
C723 C722 1.394 . S
C723 C724 1.383 . S
C723 H731 0.929 . S
C724 C723 1.383 . S
C724 C725 1.377 . S
C725 H709 0.930 . S
C725 C724 1.377 . S
C725 C726 1.379 . S
C726 H710 0.931 . S
C726 C720 1.383 . S
C726 C725 1.379 . S
H727 C721 0.959 . S
H728 C721 0.961 . S
H729 C721 0.960 . S
H730 C722 0.930 . S
H731 C723 0.929 . S
H732 C740 0.929 . S
H733 C742 0.930 . S
H734 C744 0.930 . S
H735 C747 0.929 . S
H736 C750 0.930 . S
H737 C752 0.960 . S
H738 C752 0.960 . S
H739 C752 0.960 . S
C740 H732 0.929 . S
C740 C741 1.377 . S
C740 C742 1.384 . S
C741 C740 1.377 . S
C741 C747 1.390 . S
C742 H733 0.930 . S
C742 C740 1.384 . S
C742 C743 1.372 . S
C743 C742 1.372 . S
C743 C744 1.400 . S
C743 C748 1.490 . S
C744 H734 0.930 . S
C744 C743 1.400 . S
C744 C747 1.386 . S
H745 C761 0.930 . S
H746 C762 0.931 . S
C747 H735 0.929 . S
C747 C741 1.390 . S
C747 C744 1.386 . S
C748 C743 1.490 . S
C748 C750 1.395 . S
C748 C751 1.403 . S
H749 C755 0.930 . S
C750 H736 0.930 . S
C750 C748 1.395 . S
C750 C753 1.403 . S
C751 C748 1.403 . S
C751 C752 1.524 . S
C751 C755 1.400 . S
C752 H737 0.960 . S
C752 H738 0.960 . S
C752 H739 0.960 . S
C752 C751 1.524 . S
C753 C750 1.403 . S
C753 C754 1.392 . S
C753 C757 1.495 . S
C754 C753 1.392 . S
C754 C755 1.385 . S
C754 C756 1.478 . S
C755 H749 0.930 . S
C755 C751 1.400 . S
C755 C754 1.385 . S
C756 C754 1.478 . S
C756 C758 1.381 . S
C756 C762 1.383 . S
C757 C753 1.495 . S
C757 H763 0.959 . S
C757 H764 0.961 . S
C757 H765 0.960 . S
C758 C756 1.381 . S
C758 C759 1.394 . S
C758 H766 0.930 . S
C759 C758 1.394 . S
C759 C760 1.383 . S
C759 H767 0.929 . S
C760 C759 1.383 . S
C760 C761 1.377 . S
C761 H745 0.930 . S
C761 C760 1.377 . S
C761 C762 1.379 . S
C762 H746 0.931 . S
C762 C756 1.383 . S
C762 C761 1.379 . S
H763 C757 0.959 . S
H764 C757 0.961 . S
H765 C757 0.960 . S
H766 C758 0.930 . S
H767 C759 0.929 . S
H768 C776 0.929 . S
H769 C778 0.930 . S
H770 C780 0.930 . S
H771 C783 0.929 . S
H772 C786 0.930 . S
H773 C788 0.960 . S
H774 C788 0.960 . S
H775 C788 0.960 . S
C776 H768 0.929 . S
C776 C777 1.377 . S
C776 C778 1.384 . S
C777 C776 1.377 . S
C777 C783 1.390 . S
C778 H769 0.930 . S
C778 C776 1.384 . S
C778 C779 1.372 . S
C779 C778 1.372 . S
C779 C780 1.400 . S
C779 C784 1.490 . S
C780 H770 0.930 . S
C780 C779 1.400 . S
C780 C783 1.386 . S
H781 C797 0.930 . S
H782 C798 0.931 . S
C783 H771 0.929 . S
C783 C777 1.390 . S
C783 C780 1.386 . S
C784 C779 1.490 . S
C784 C786 1.395 . S
C784 C787 1.403 . S
H785 C791 0.930 . S
C786 H772 0.930 . S
C786 C784 1.395 . S
C786 C789 1.403 . S
C787 C784 1.403 . S
C787 C788 1.524 . S
C787 C791 1.400 . S
C788 H773 0.960 . S
C788 H774 0.960 . S
C788 H775 0.960 . S
C788 C787 1.524 . S
C789 C786 1.403 . S
C789 C790 1.392 . S
C789 C793 1.495 . S
C790 C789 1.392 . S
C790 C791 1.385 . S
C790 C792 1.478 . S
C791 H785 0.930 . S
C791 C787 1.400 . S
C791 C790 1.385 . S
C792 C790 1.478 . S
C792 C794 1.381 . S
C792 C798 1.383 . S
C793 C789 1.495 . S
C793 H799 0.959 . S
C793 H800 0.961 . S
C793 H801 0.960 . S
C794 C792 1.381 . S
C794 C795 1.394 . S
C794 H802 0.930 . S
C795 C794 1.394 . S
C795 C796 1.383 . S
C795 H803 0.929 . S
C796 C795 1.383 . S
C796 C797 1.377 . S
C797 H781 0.930 . S
C797 C796 1.377 . S
C797 C798 1.379 . S
C798 H782 0.931 . S
C798 C792 1.383 . S
C798 C797 1.379 . S
H799 C793 0.959 . S
H800 C793 0.961 . S
H801 C793 0.960 . S
H802 C794 0.930 . S
H803 C795 0.929 . S
H804 C812 0.929 . S
H805 C814 0.930 . S
H806 C816 0.930 . S
H807 C819 0.929 . S
H808 C822 0.930 . S
H809 C824 0.960 . S
H810 C824 0.960 . S
H811 C824 0.960 . S
C812 H804 0.929 . S
C812 C813 1.377 . S
C812 C814 1.384 . S
C813 C812 1.377 . S
C813 C819 1.390 . S
C814 H805 0.930 . S
C814 C812 1.384 . S
C814 C815 1.372 . S
C815 C814 1.372 . S
C815 C816 1.400 . S
C815 C820 1.490 . S
C816 H806 0.930 . S
C816 C815 1.400 . S
C816 C819 1.386 . S
H817 C833 0.930 . S
H818 C834 0.931 . S
C819 H807 0.929 . S
C819 C813 1.390 . S
C819 C816 1.386 . S
C820 C815 1.490 . S
C820 C822 1.395 . S
C820 C823 1.403 . S
H821 C827 0.930 . S
C822 H808 0.930 . S
C822 C820 1.395 . S
C822 C825 1.403 . S
C823 C820 1.403 . S
C823 C824 1.524 . S
C823 C827 1.400 . S
C824 H809 0.960 . S
C824 H810 0.960 . S
C824 H811 0.960 . S
C824 C823 1.524 . S
C825 C822 1.403 . S
C825 C826 1.392 . S
C825 C829 1.495 . S
C826 C825 1.392 . S
C826 C827 1.385 . S
C826 C828 1.478 . S
C827 H821 0.930 . S
C827 C823 1.400 . S
C827 C826 1.385 . S
C828 C826 1.478 . S
C828 C830 1.381 . S
C828 C834 1.383 . S
C829 C825 1.495 . S
C829 H835 0.959 . S
C829 H836 0.961 . S
C829 H837 0.960 . S
C830 C828 1.381 . S
C830 C831 1.394 . S
C830 H838 0.930 . S
C831 C830 1.394 . S
C831 C832 1.383 . S
C831 H839 0.929 . S
C832 C831 1.383 . S
C832 C833 1.377 . S
C833 H817 0.930 . S
C833 C832 1.377 . S
C833 C834 1.379 . S
C834 H818 0.931 . S
C834 C828 1.383 . S
C834 C833 1.379 . S
H835 C829 0.959 . S
H836 C829 0.961 . S
H837 C829 0.960 . S
H838 C830 0.930 . S
H839 C831 0.929 . S
H840 C848 0.929 . S
H841 C850 0.930 . S
H842 C852 0.930 . S
H843 C855 0.929 . S
H844 C858 0.930 . S
H845 C860 0.960 . S
H846 C860 0.960 . S
H847 C860 0.960 . S
C848 H840 0.929 . S
C848 C849 1.377 . S
C848 C850 1.384 . S
C849 C848 1.377 . S
C849 C855 1.390 . S
C850 H841 0.930 . S
C850 C848 1.384 . S
C850 C851 1.372 . S
C851 C850 1.372 . S
C851 C852 1.400 . S
C851 C856 1.490 . S
C852 H842 0.930 . S
C852 C851 1.400 . S
C852 C855 1.386 . S
H853 C869 0.930 . S
H854 C870 0.931 . S
C855 H843 0.929 . S
C855 C849 1.390 . S
C855 C852 1.386 . S
C856 C851 1.490 . S
C856 C858 1.395 . S
C856 C859 1.403 . S
H857 C863 0.930 . S
C858 H844 0.930 . S
C858 C856 1.395 . S
C858 C861 1.403 . S
C859 C856 1.403 . S
C859 C860 1.524 . S
C859 C863 1.400 . S
C860 H845 0.960 . S
C860 H846 0.960 . S
C860 H847 0.960 . S
C860 C859 1.524 . S
C861 C858 1.403 . S
C861 C862 1.392 . S
C861 C865 1.495 . S
C862 C861 1.392 . S
C862 C863 1.385 . S
C862 C864 1.478 . S
C863 H857 0.930 . S
C863 C859 1.400 . S
C863 C862 1.385 . S
C864 C862 1.478 . S
C864 C866 1.381 . S
C864 C870 1.383 . S
C865 C861 1.495 . S
C865 H871 0.959 . S
C865 H872 0.961 . S
C865 H873 0.960 . S
C866 C864 1.381 . S
C866 C867 1.394 . S
C866 H874 0.930 . S
C867 C866 1.394 . S
C867 C868 1.383 . S
C867 H875 0.929 . S
C868 C867 1.383 . S
C868 C869 1.377 . S
C869 H853 0.930 . S
C869 C868 1.377 . S
C869 C870 1.379 . S
C870 H854 0.931 . S
C870 C864 1.383 . S
C870 C869 1.379 . S
H871 C865 0.959 . S
H872 C865 0.961 . S
H873 C865 0.960 . S
H874 C866 0.930 . S
H875 C867 0.929 . S
H876 C884 0.929 . S
H877 C886 0.930 . S
H878 C888 0.930 . S
H879 C891 0.929 . S
H880 C894 0.930 . S
H881 C896 0.960 . S
H882 C896 0.960 . S
H883 C896 0.960 . S
C884 H876 0.929 . S
C884 C885 1.377 . S
C884 C886 1.384 . S
C885 C884 1.377 . S
C885 C891 1.390 . S
C886 H877 0.930 . S
C886 C884 1.384 . S
C886 C887 1.372 . S
C887 C886 1.372 . S
C887 C888 1.400 . S
C887 C892 1.490 . S
C888 H878 0.930 . S
C888 C887 1.400 . S
C888 C891 1.386 . S
H889 C905 0.930 . S
H890 C906 0.931 . S
C891 H879 0.929 . S
C891 C885 1.390 . S
C891 C888 1.386 . S
C892 C887 1.490 . S
C892 C894 1.395 . S
C892 C895 1.403 . S
H893 C899 0.930 . S
C894 H880 0.930 . S
C894 C892 1.395 . S
C894 C897 1.403 . S
C895 C892 1.403 . S
C895 C896 1.524 . S
C895 C899 1.400 . S
C896 H881 0.960 . S
C896 H882 0.960 . S
C896 H883 0.960 . S
C896 C895 1.524 . S
C897 C894 1.403 . S
C897 C898 1.392 . S
C897 C901 1.495 . S
C898 C897 1.392 . S
C898 C899 1.385 . S
C898 C900 1.478 . S
C899 H893 0.930 . S
C899 C895 1.400 . S
C899 C898 1.385 . S
C900 C898 1.478 . S
C900 C902 1.381 . S
C900 C906 1.383 . S
C901 C897 1.495 . S
C901 H907 0.959 . S
C901 H908 0.961 . S
C901 H909 0.960 . S
C902 C900 1.381 . S
C902 C903 1.394 . S
C902 H910 0.930 . S
C903 C902 1.394 . S
C903 C904 1.383 . S
C903 H911 0.929 . S
C904 C903 1.383 . S
C904 C905 1.377 . S
C905 H889 0.930 . S
C905 C904 1.377 . S
C905 C906 1.379 . S
C906 H890 0.931 . S
C906 C900 1.383 . S
C906 C905 1.379 . S
H907 C901 0.959 . S
H908 C901 0.961 . S
H909 C901 0.960 . S
H910 C902 0.930 . S
H911 C903 0.929 . S
H912 C920 0.929 . S
H913 C922 0.930 . S
H914 C924 0.930 . S
H915 C927 0.929 . S
H916 C930 0.930 . S
H917 C932 0.960 . S
H918 C932 0.960 . S
H919 C932 0.960 . S
C920 H912 0.929 . S
C920 C921 1.377 . S
C920 C922 1.384 . S
C921 C920 1.377 . S
C921 C927 1.390 . S
C922 H913 0.930 . S
C922 C920 1.384 . S
C922 C923 1.372 . S
C923 C922 1.372 . S
C923 C924 1.400 . S
C923 C928 1.490 . S
C924 H914 0.930 . S
C924 C923 1.400 . S
C924 C927 1.386 . S
H925 C941 0.930 . S
H926 C942 0.931 . S
C927 H915 0.929 . S
C927 C921 1.390 . S
C927 C924 1.386 . S
C928 C923 1.490 . S
C928 C930 1.395 . S
C928 C931 1.403 . S
H929 C935 0.930 . S
C930 H916 0.930 . S
C930 C928 1.395 . S
C930 C933 1.403 . S
C931 C928 1.403 . S
C931 C932 1.524 . S
C931 C935 1.400 . S
C932 H917 0.960 . S
C932 H918 0.960 . S
C932 H919 0.960 . S
C932 C931 1.524 . S
C933 C930 1.403 . S
C933 C934 1.392 . S
C933 C937 1.495 . S
C934 C933 1.392 . S
C934 C935 1.385 . S
C934 C936 1.478 . S
C935 H929 0.930 . S
C935 C931 1.400 . S
C935 C934 1.385 . S
C936 C934 1.478 . S
C936 C938 1.381 . S
C936 C942 1.383 . S
C937 C933 1.495 . S
C937 H943 0.959 . S
C937 H944 0.961 . S
C937 H945 0.960 . S
C938 C936 1.381 . S
C938 C939 1.394 . S
C938 H946 0.930 . S
C939 C938 1.394 . S
C939 C940 1.383 . S
C939 H947 0.929 . S
C940 C939 1.383 . S
C940 C941 1.377 . S
C941 H925 0.930 . S
C941 C940 1.377 . S
C941 C942 1.379 . S
C942 H926 0.931 . S
C942 C936 1.383 . S
C942 C941 1.379 . S
H943 C937 0.959 . S
H944 C937 0.961 . S
H945 C937 0.960 . S
H946 C938 0.930 . S
H947 C939 0.929 . S
H948 C956 0.929 . S
H949 C958 0.930 . S
H950 C960 0.930 . S
H951 C963 0.929 . S
H952 C966 0.930 . S
H953 C968 0.960 . S
H954 C968 0.960 . S
H955 C968 0.960 . S
C956 H948 0.929 . S
C956 C957 1.377 . S
C956 C958 1.384 . S
C957 C956 1.377 . S
C957 C963 1.390 . S
C958 H949 0.930 . S
C958 C956 1.384 . S
C958 C959 1.372 . S
C959 C958 1.372 . S
C959 C960 1.400 . S
C959 C964 1.490 . S
C960 H950 0.930 . S
C960 C959 1.400 . S
C960 C963 1.386 . S
H961 C977 0.930 . S
H962 C978 0.931 . S
C963 H951 0.929 . S
C963 C957 1.390 . S
C963 C960 1.386 . S
C964 C959 1.490 . S
C964 C966 1.395 . S
C964 C967 1.403 . S
H965 C971 0.930 . S
C966 H952 0.930 . S
C966 C964 1.395 . S
C966 C969 1.403 . S
C967 C964 1.403 . S
C967 C968 1.524 . S
C967 C971 1.400 . S
C968 H953 0.960 . S
C968 H954 0.960 . S
C968 H955 0.960 . S
C968 C967 1.524 . S
C969 C966 1.403 . S
C969 C970 1.392 . S
C969 C973 1.495 . S
C970 C969 1.392 . S
C970 C971 1.385 . S
C970 C972 1.478 . S
C971 H965 0.930 . S
C971 C967 1.400 . S
C971 C970 1.385 . S
C972 C970 1.478 . S
C972 C974 1.381 . S
C972 C978 1.383 . S
C973 C969 1.495 . S
C973 H979 0.959 . S
C973 H980 0.961 . S
C973 H981 0.960 . S
C974 C972 1.381 . S
C974 C975 1.394 . S
C974 H982 0.930 . S
C975 C974 1.394 . S
C975 C976 1.383 . S
C975 H983 0.929 . S
C976 C975 1.383 . S
C976 C977 1.377 . S
C977 H961 0.930 . S
C977 C976 1.377 . S
C977 C978 1.379 . S
C978 H962 0.931 . S
C978 C972 1.383 . S
C978 C977 1.379 . S
H979 C973 0.959 . S
H980 C973 0.961 . S
H981 C973 0.960 . S
H982 C974 0.930 . S
H983 C975 0.929 . S
H984 C992 0.929 . S
H985 C994 0.930 . S
H986 C996 0.930 . S
H987 C999 0.929 . S
H988 C1002 0.930 . S
H989 C1004 0.960 . S
H990 C1004 0.960 . S
H991 C1004 0.960 . S
C992 H984 0.929 . S
C992 C993 1.377 . S
C992 C994 1.384 . S
C993 C992 1.377 . S
C993 C999 1.390 . S
C994 H985 0.930 . S
C994 C992 1.384 . S
C994 C995 1.372 . S
C995 C994 1.372 . S
C995 C996 1.400 . S
C995 C1000 1.490 . S
C996 H986 0.930 . S
C996 C995 1.400 . S
C996 C999 1.386 . S
H997 C1013 0.930 . S
H998 C1014 0.931 . S
C999 H987 0.929 . S
C999 C993 1.390 . S
C999 C996 1.386 . S
C1000 C995 1.490 . S
C1000 C1002 1.395 . S
C1000 C1003 1.403 . S
H1001 C1007 0.930 . S
C1002 H988 0.930 . S
C1002 C1000 1.395 . S
C1002 C1005 1.403 . S
C1003 C1000 1.403 . S
C1003 C1004 1.524 . S
C1003 C1007 1.400 . S
C1004 H989 0.960 . S
C1004 H990 0.960 . S
C1004 H991 0.960 . S
C1004 C1003 1.524 . S
C1005 C1002 1.403 . S
C1005 C1006 1.392 . S
C1005 C1009 1.495 . S
C1006 C1005 1.392 . S
C1006 C1007 1.385 . S
C1006 C1008 1.478 . S
C1007 H1001 0.930 . S
C1007 C1003 1.400 . S
C1007 C1006 1.385 . S
C1008 C1006 1.478 . S
C1008 C1010 1.381 . S
C1008 C1014 1.383 . S
C1009 C1005 1.495 . S
C1009 H1015 0.959 . S
C1009 H1016 0.961 . S
C1009 H1017 0.960 . S
C1010 C1008 1.381 . S
C1010 C1011 1.394 . S
C1010 H1018 0.930 . S
C1011 C1010 1.394 . S
C1011 C1012 1.383 . S
C1011 H1019 0.929 . S
C1012 C1011 1.383 . S
C1012 C1013 1.377 . S
C1013 H997 0.930 . S
C1013 C1012 1.377 . S
C1013 C1014 1.379 . S
C1014 H998 0.931 . S
C1014 C1008 1.383 . S
C1014 C1013 1.379 . S
H1015 C1009 0.959 . S
H1016 C1009 0.961 . S
H1017 C1009 0.960 . S
H1018 C1010 0.930 . S
H1019 C1011 0.929 . S
H1020 C1028 0.929 . S
H1021 C1030 0.930 . S
H1022 C1032 0.930 . S
H1023 C1035 0.929 . S
H1024 C1038 0.930 . S
H1025 C1040 0.960 . S
H1026 C1040 0.960 . S
H1027 C1040 0.960 . S
C1028 H1020 0.929 . S
C1028 C1029 1.377 . S
C1028 C1030 1.384 . S
C1029 C1028 1.377 . S
C1029 C1035 1.390 . S
C1030 H1021 0.930 . S
C1030 C1028 1.384 . S
C1030 C1031 1.372 . S
C1031 C1030 1.372 . S
C1031 C1032 1.400 . S
C1031 C1036 1.490 . S
C1032 H1022 0.930 . S
C1032 C1031 1.400 . S
C1032 C1035 1.386 . S
H1033 C1049 0.930 . S
H1034 C1050 0.931 . S
C1035 H1023 0.929 . S
C1035 C1029 1.390 . S
C1035 C1032 1.386 . S
C1036 C1031 1.490 . S
C1036 C1038 1.395 . S
C1036 C1039 1.403 . S
H1037 C1043 0.930 . S
C1038 H1024 0.930 . S
C1038 C1036 1.395 . S
C1038 C1041 1.403 . S
C1039 C1036 1.403 . S
C1039 C1040 1.524 . S
C1039 C1043 1.400 . S
C1040 H1025 0.960 . S
C1040 H1026 0.960 . S
C1040 H1027 0.960 . S
C1040 C1039 1.524 . S
C1041 C1038 1.403 . S
C1041 C1042 1.392 . S
C1041 C1045 1.495 . S
C1042 C1041 1.392 . S
C1042 C1043 1.385 . S
C1042 C1044 1.478 . S
C1043 H1037 0.930 . S
C1043 C1039 1.400 . S
C1043 C1042 1.385 . S
C1044 C1042 1.478 . S
C1044 C1046 1.381 . S
C1044 C1050 1.383 . S
C1045 C1041 1.495 . S
C1045 H1051 0.959 . S
C1045 H1052 0.961 . S
C1045 H1053 0.960 . S
C1046 C1044 1.381 . S
C1046 C1047 1.394 . S
C1046 H1054 0.930 . S
C1047 C1046 1.394 . S
C1047 C1048 1.383 . S
C1047 H1055 0.929 . S
C1048 C1047 1.383 . S
C1048 C1049 1.377 . S
C1049 H1033 0.930 . S
C1049 C1048 1.377 . S
C1049 C1050 1.379 . S
C1050 H1034 0.931 . S
C1050 C1044 1.383 . S
C1050 C1049 1.379 . S
H1051 C1045 0.959 . S
H1052 C1045 0.961 . S
H1053 C1045 0.960 . S
H1054 C1046 0.930 . S
H1055 C1047 0.929 . S
H1056 C1064 0.929 . S
H1057 C1066 0.930 . S
H1058 C1068 0.930 . S
H1059 C1071 0.929 . S
H1060 C1074 0.930 . S
H1061 C1076 0.960 . S
H1062 C1076 0.960 . S
H1063 C1076 0.960 . S
C1064 H1056 0.929 . S
C1064 C1065 1.377 . S
C1064 C1066 1.384 . S
C1065 C1064 1.377 . S
C1065 C1071 1.390 . S
C1066 H1057 0.930 . S
C1066 C1064 1.384 . S
C1066 C1067 1.372 . S
C1067 C1066 1.372 . S
C1067 C1068 1.400 . S
C1067 C1072 1.490 . S
C1068 H1058 0.930 . S
C1068 C1067 1.400 . S
C1068 C1071 1.386 . S
H1069 C1085 0.930 . S
H1070 C1086 0.931 . S
C1071 H1059 0.929 . S
C1071 C1065 1.390 . S
C1071 C1068 1.386 . S
C1072 C1067 1.490 . S
C1072 C1074 1.395 . S
C1072 C1075 1.403 . S
H1073 C1079 0.930 . S
C1074 H1060 0.930 . S
C1074 C1072 1.395 . S
C1074 C1077 1.403 . S
C1075 C1072 1.403 . S
C1075 C1076 1.524 . S
C1075 C1079 1.400 . S
C1076 H1061 0.960 . S
C1076 H1062 0.960 . S
C1076 H1063 0.960 . S
C1076 C1075 1.524 . S
C1077 C1074 1.403 . S
C1077 C1078 1.392 . S
C1077 C1081 1.495 . S
C1078 C1077 1.392 . S
C1078 C1079 1.385 . S
C1078 C1080 1.478 . S
C1079 H1073 0.930 . S
C1079 C1075 1.400 . S
C1079 C1078 1.385 . S
C1080 C1078 1.478 . S
C1080 C1082 1.381 . S
C1080 C1086 1.383 . S
C1081 C1077 1.495 . S
C1081 H1087 0.959 . S
C1081 H1088 0.961 . S
C1081 H1089 0.960 . S
C1082 C1080 1.381 . S
C1082 C1083 1.394 . S
C1082 H1090 0.930 . S
C1083 C1082 1.394 . S
C1083 C1084 1.383 . S
C1083 H1091 0.929 . S
C1084 C1083 1.383 . S
C1084 C1085 1.377 . S
C1085 H1069 0.930 . S
C1085 C1084 1.377 . S
C1085 C1086 1.379 . S
C1086 H1070 0.931 . S
C1086 C1080 1.383 . S
C1086 C1085 1.379 . S
H1087 C1081 0.959 . S
H1088 C1081 0.961 . S
H1089 C1081 0.960 . S
H1090 C1082 0.930 . S
H1091 C1083 0.929 . S
H1092 C1100 0.929 . S
H1093 C1102 0.930 . S
H1094 C1104 0.930 . S
H1095 C1107 0.929 . S
H1096 C1110 0.930 . S
H1097 C1112 0.960 . S
H1098 C1112 0.960 . S
H1099 C1112 0.960 . S
C1100 H1092 0.929 . S
C1100 C1101 1.377 . S
C1100 C1102 1.384 . S
C1101 C1100 1.377 . S
C1101 C1107 1.390 . S
C1102 H1093 0.930 . S
C1102 C1100 1.384 . S
C1102 C1103 1.372 . S
C1103 C1102 1.372 . S
C1103 C1104 1.400 . S
C1103 C1108 1.490 . S
C1104 H1094 0.930 . S
C1104 C1103 1.400 . S
C1104 C1107 1.386 . S
H1105 C1121 0.930 . S
H1106 C1122 0.931 . S
C1107 H1095 0.929 . S
C1107 C1101 1.390 . S
C1107 C1104 1.386 . S
C1108 C1103 1.490 . S
C1108 C1110 1.395 . S
C1108 C1111 1.403 . S
H1109 C1115 0.930 . S
C1110 H1096 0.930 . S
C1110 C1108 1.395 . S
C1110 C1113 1.403 . S
C1111 C1108 1.403 . S
C1111 C1112 1.524 . S
C1111 C1115 1.400 . S
C1112 H1097 0.960 . S
C1112 H1098 0.960 . S
C1112 H1099 0.960 . S
C1112 C1111 1.524 . S
C1113 C1110 1.403 . S
C1113 C1114 1.392 . S
C1113 C1117 1.495 . S
C1114 C1113 1.392 . S
C1114 C1115 1.385 . S
C1114 C1116 1.478 . S
C1115 H1109 0.930 . S
C1115 C1111 1.400 . S
C1115 C1114 1.385 . S
C1116 C1114 1.478 . S
C1116 C1118 1.381 . S
C1116 C1122 1.383 . S
C1117 C1113 1.495 . S
C1117 H1123 0.959 . S
C1117 H1124 0.961 . S
C1117 H1125 0.960 . S
C1118 C1116 1.381 . S
C1118 C1119 1.394 . S
C1118 H1126 0.930 . S
C1119 C1118 1.394 . S
C1119 C1120 1.383 . S
C1119 H1127 0.929 . S
C1120 C1119 1.383 . S
C1120 C1121 1.377 . S
C1121 H1105 0.930 . S
C1121 C1120 1.377 . S
C1121 C1122 1.379 . S
C1122 H1106 0.931 . S
C1122 C1116 1.383 . S
C1122 C1121 1.379 . S
H1123 C1117 0.959 . S
H1124 C1117 0.961 . S
H1125 C1117 0.960 . S
H1126 C1118 0.930 . S
H1127 C1119 0.929 . S
H1128 C1136 0.929 . S
H1129 C1138 0.930 . S
H1130 C1140 0.930 . S
H1131 C1143 0.929 . S
H1132 C1146 0.930 . S
H1133 C1148 0.960 . S
H1134 C1148 0.960 . S
H1135 C1148 0.960 . S
C1136 H1128 0.929 . S
C1136 C1137 1.377 . S
C1136 C1138 1.384 . S
C1137 C1136 1.377 . S
C1137 C1143 1.390 . S
C1138 H1129 0.930 . S
C1138 C1136 1.384 . S
C1138 C1139 1.372 . S
C1139 C1138 1.372 . S
C1139 C1140 1.400 . S
C1139 C1144 1.490 . S
C1140 H1130 0.930 . S
C1140 C1139 1.400 . S
C1140 C1143 1.386 . S
H1141 C1157 0.930 . S
H1142 C1158 0.931 . S
C1143 H1131 0.929 . S
C1143 C1137 1.390 . S
C1143 C1140 1.386 . S
C1144 C1139 1.490 . S
C1144 C1146 1.395 . S
C1144 C1147 1.403 . S
H1145 C1151 0.930 . S
C1146 H1132 0.930 . S
C1146 C1144 1.395 . S
C1146 C1149 1.403 . S
C1147 C1144 1.403 . S
C1147 C1148 1.524 . S
C1147 C1151 1.400 . S
C1148 H1133 0.960 . S
C1148 H1134 0.960 . S
C1148 H1135 0.960 . S
C1148 C1147 1.524 . S
C1149 C1146 1.403 . S
C1149 C1150 1.392 . S
C1149 C1153 1.495 . S
C1150 C1149 1.392 . S
C1150 C1151 1.385 . S
C1150 C1152 1.478 . S
C1151 H1145 0.930 . S
C1151 C1147 1.400 . S
C1151 C1150 1.385 . S
C1152 C1150 1.478 . S
C1152 C1154 1.381 . S
C1152 C1158 1.383 . S
C1153 C1149 1.495 . S
C1153 H1159 0.959 . S
C1153 H1160 0.961 . S
C1153 H1161 0.960 . S
C1154 C1152 1.381 . S
C1154 C1155 1.394 . S
C1154 H1162 0.930 . S
C1155 C1154 1.394 . S
C1155 C1156 1.383 . S
C1155 H1163 0.929 . S
C1156 C1155 1.383 . S
C1156 C1157 1.377 . S
C1157 H1141 0.930 . S
C1157 C1156 1.377 . S
C1157 C1158 1.379 . S
C1158 H1142 0.931 . S
C1158 C1152 1.383 . S
C1158 C1157 1.379 . S
H1159 C1153 0.959 . S
H1160 C1153 0.961 . S
H1161 C1153 0.960 . S
H1162 C1154 0.930 . S
H1163 C1155 0.929 . S
H1164 C1172 0.929 . S
H1165 C1174 0.930 . S
H1166 C1176 0.930 . S
H1167 C1179 0.929 . S
H1168 C1182 0.930 . S
H1169 C1184 0.960 . S
H1170 C1184 0.960 . S
H1171 C1184 0.960 . S
C1172 H1164 0.929 . S
C1172 C1173 1.377 . S
C1172 C1174 1.384 . S
C1173 C1172 1.377 . S
C1173 C1179 1.390 . S
C1174 H1165 0.930 . S
C1174 C1172 1.384 . S
C1174 C1175 1.372 . S
C1175 C1174 1.372 . S
C1175 C1176 1.400 . S
C1175 C1180 1.490 . S
C1176 H1166 0.930 . S
C1176 C1175 1.400 . S
C1176 C1179 1.386 . S
H1177 C1193 0.930 . S
H1178 C1194 0.931 . S
C1179 H1167 0.929 . S
C1179 C1173 1.390 . S
C1179 C1176 1.386 . S
C1180 C1175 1.490 . S
C1180 C1182 1.395 . S
C1180 C1183 1.403 . S
H1181 C1187 0.930 . S
C1182 H1168 0.930 . S
C1182 C1180 1.395 . S
C1182 C1185 1.403 . S
C1183 C1180 1.403 . S
C1183 C1184 1.524 . S
C1183 C1187 1.400 . S
C1184 H1169 0.960 . S
C1184 H1170 0.960 . S
C1184 H1171 0.960 . S
C1184 C1183 1.524 . S
C1185 C1182 1.403 . S
C1185 C1186 1.392 . S
C1185 C1189 1.495 . S
C1186 C1185 1.392 . S
C1186 C1187 1.385 . S
C1186 C1188 1.478 . S
C1187 H1181 0.930 . S
C1187 C1183 1.400 . S
C1187 C1186 1.385 . S
C1188 C1186 1.478 . S
C1188 C1190 1.381 . S
C1188 C1194 1.383 . S
C1189 C1185 1.495 . S
C1189 H1195 0.959 . S
C1189 H1196 0.961 . S
C1189 H1197 0.960 . S
C1190 C1188 1.381 . S
C1190 C1191 1.394 . S
C1190 H1198 0.930 . S
C1191 C1190 1.394 . S
C1191 C1192 1.383 . S
C1191 H1199 0.929 . S
C1192 C1191 1.383 . S
C1192 C1193 1.377 . S
C1193 H1177 0.930 . S
C1193 C1192 1.377 . S
C1193 C1194 1.379 . S
C1194 H1178 0.931 . S
C1194 C1188 1.383 . S
C1194 C1193 1.379 . S
H1195 C1189 0.959 . S
H1196 C1189 0.961 . S
H1197 C1189 0.960 . S
H1198 C1190 0.930 . S
H1199 C1191 0.929 . S
H1200 C1208 0.929 . S
H1201 C1210 0.930 . S
H1202 C1212 0.930 . S
H1203 C1215 0.929 . S
H1204 C1218 0.930 . S
H1205 C1220 0.960 . S
H1206 C1220 0.960 . S
H1207 C1220 0.960 . S
C1208 H1200 0.929 . S
C1208 C1209 1.377 . S
C1208 C1210 1.384 . S
C1209 C1208 1.377 . S
C1209 C1215 1.390 . S
C1210 H1201 0.930 . S
C1210 C1208 1.384 . S
C1210 C1211 1.372 . S
C1211 C1210 1.372 . S
C1211 C1212 1.400 . S
C1211 C1216 1.490 . S
C1212 H1202 0.930 . S
C1212 C1211 1.400 . S
C1212 C1215 1.386 . S
H1213 C1229 0.930 . S
H1214 C1230 0.931 . S
C1215 H1203 0.929 . S
C1215 C1209 1.390 . S
C1215 C1212 1.386 . S
C1216 C1211 1.490 . S
C1216 C1218 1.395 . S
C1216 C1219 1.403 . S
H1217 C1223 0.930 . S
C1218 H1204 0.930 . S
C1218 C1216 1.395 . S
C1218 C1221 1.403 . S
C1219 C1216 1.403 . S
C1219 C1220 1.524 . S
C1219 C1223 1.400 . S
C1220 H1205 0.960 . S
C1220 H1206 0.960 . S
C1220 H1207 0.960 . S
C1220 C1219 1.524 . S
C1221 C1218 1.403 . S
C1221 C1222 1.392 . S
C1221 C1225 1.495 . S
C1222 C1221 1.392 . S
C1222 C1223 1.385 . S
C1222 C1224 1.478 . S
C1223 H1217 0.930 . S
C1223 C1219 1.400 . S
C1223 C1222 1.385 . S
C1224 C1222 1.478 . S
C1224 C1226 1.381 . S
C1224 C1230 1.383 . S
C1225 C1221 1.495 . S
C1225 H1231 0.959 . S
C1225 H1232 0.961 . S
C1225 H1233 0.960 . S
C1226 C1224 1.381 . S
C1226 C1227 1.394 . S
C1226 H1234 0.930 . S
C1227 C1226 1.394 . S
C1227 C1228 1.383 . S
C1227 H1235 0.929 . S
C1228 C1227 1.383 . S
C1228 C1229 1.377 . S
C1229 H1213 0.930 . S
C1229 C1228 1.377 . S
C1229 C1230 1.379 . S
C1230 H1214 0.931 . S
C1230 C1224 1.383 . S
C1230 C1229 1.379 . S
H1231 C1225 0.959 . S
H1232 C1225 0.961 . S
H1233 C1225 0.960 . S
H1234 C1226 0.930 . S
H1235 C1227 0.929 . S
H1236 C1244 0.929 . S
H1237 C1246 0.930 . S
H1238 C1248 0.930 . S
H1239 C1251 0.929 . S
H1240 C1254 0.930 . S
H1241 C1256 0.960 . S
H1242 C1256 0.960 . S
H1243 C1256 0.960 . S
C1244 H1236 0.929 . S
C1244 C1245 1.377 . S
C1244 C1246 1.384 . S
C1245 C1244 1.377 . S
C1245 C1251 1.390 . S
C1246 H1237 0.930 . S
C1246 C1244 1.384 . S
C1246 C1247 1.372 . S
C1247 C1246 1.372 . S
C1247 C1248 1.400 . S
C1247 C1252 1.490 . S
C1248 H1238 0.930 . S
C1248 C1247 1.400 . S
C1248 C1251 1.386 . S
H1249 C1265 0.930 . S
H1250 C1266 0.931 . S
C1251 H1239 0.929 . S
C1251 C1245 1.390 . S
C1251 C1248 1.386 . S
C1252 C1247 1.490 . S
C1252 C1254 1.395 . S
C1252 C1255 1.403 . S
H1253 C1259 0.930 . S
C1254 H1240 0.930 . S
C1254 C1252 1.395 . S
C1254 C1257 1.403 . S
C1255 C1252 1.403 . S
C1255 C1256 1.524 . S
C1255 C1259 1.400 . S
C1256 H1241 0.960 . S
C1256 H1242 0.960 . S
C1256 H1243 0.960 . S
C1256 C1255 1.524 . S
C1257 C1254 1.403 . S
C1257 C1258 1.392 . S
C1257 C1261 1.495 . S
C1258 C1257 1.392 . S
C1258 C1259 1.385 . S
C1258 C1260 1.478 . S
C1259 H1253 0.930 . S
C1259 C1255 1.400 . S
C1259 C1258 1.385 . S
C1260 C1258 1.478 . S
C1260 C1262 1.381 . S
C1260 C1266 1.383 . S
C1261 C1257 1.495 . S
C1261 H1267 0.959 . S
C1261 H1268 0.961 . S
C1261 H1269 0.960 . S
C1262 C1260 1.381 . S
C1262 C1263 1.394 . S
C1262 H1270 0.930 . S
C1263 C1262 1.394 . S
C1263 C1264 1.383 . S
C1263 H1271 0.929 . S
C1264 C1263 1.383 . S
C1264 C1265 1.377 . S
C1265 H1249 0.930 . S
C1265 C1264 1.377 . S
C1265 C1266 1.379 . S
C1266 H1250 0.931 . S
C1266 C1260 1.383 . S
C1266 C1265 1.379 . S
H1267 C1261 0.959 . S
H1268 C1261 0.961 . S
H1269 C1261 0.960 . S
H1270 C1262 0.930 . S
H1271 C1263 0.929 . S
H1272 C1280 0.929 . S
H1273 C1282 0.930 . S
H1274 C1284 0.930 . S
H1275 C1287 0.929 . S
H1276 C1290 0.930 . S
H1277 C1292 0.960 . S
H1278 C1292 0.960 . S
H1279 C1292 0.960 . S
C1280 H1272 0.929 . S
C1280 C1281 1.377 . S
C1280 C1282 1.384 . S
C1281 C1280 1.377 . S
C1281 C1287 1.390 . S
C1282 H1273 0.930 . S
C1282 C1280 1.384 . S
C1282 C1283 1.372 . S
C1283 C1282 1.372 . S
C1283 C1284 1.400 . S
C1283 C1288 1.490 . S
C1284 H1274 0.930 . S
C1284 C1283 1.400 . S
C1284 C1287 1.386 . S
H1285 C1301 0.930 . S
H1286 C1302 0.931 . S
C1287 H1275 0.929 . S
C1287 C1281 1.390 . S
C1287 C1284 1.386 . S
C1288 C1283 1.490 . S
C1288 C1290 1.395 . S
C1288 C1291 1.403 . S
H1289 C1295 0.930 . S
C1290 H1276 0.930 . S
C1290 C1288 1.395 . S
C1290 C1293 1.403 . S
C1291 C1288 1.403 . S
C1291 C1292 1.524 . S
C1291 C1295 1.400 . S
C1292 H1277 0.960 . S
C1292 H1278 0.960 . S
C1292 H1279 0.960 . S
C1292 C1291 1.524 . S
C1293 C1290 1.403 . S
C1293 C1294 1.392 . S
C1293 C1297 1.495 . S
C1294 C1293 1.392 . S
C1294 C1295 1.385 . S
C1294 C1296 1.478 . S
C1295 H1289 0.930 . S
C1295 C1291 1.400 . S
C1295 C1294 1.385 . S
C1296 C1294 1.478 . S
C1296 C1298 1.381 . S
C1296 C1302 1.383 . S
C1297 C1293 1.495 . S
C1297 H1303 0.959 . S
C1297 H1304 0.961 . S
C1297 H1305 0.960 . S
C1298 C1296 1.381 . S
C1298 C1299 1.394 . S
C1298 H1306 0.930 . S
C1299 C1298 1.394 . S
C1299 C1300 1.383 . S
C1299 H1307 0.929 . S
C1300 C1299 1.383 . S
C1300 C1301 1.377 . S
C1301 H1285 0.930 . S
C1301 C1300 1.377 . S
C1301 C1302 1.379 . S
C1302 H1286 0.931 . S
C1302 C1296 1.383 . S
C1302 C1301 1.379 . S
H1303 C1297 0.959 . S
H1304 C1297 0.961 . S
H1305 C1297 0.960 . S
H1306 C1298 0.930 . S
H1307 C1299 0.929 . S
H1308 C1316 0.929 . S
H1309 C1318 0.930 . S
H1310 C1320 0.930 . S
H1311 C1323 0.929 . S
H1312 C1326 0.930 . S
H1313 C1328 0.960 . S
H1314 C1328 0.960 . S
H1315 C1328 0.960 . S
C1316 H1308 0.929 . S
C1316 C1317 1.377 . S
C1316 C1318 1.384 . S
C1317 C1316 1.377 . S
C1317 C1323 1.390 . S
C1318 H1309 0.930 . S
C1318 C1316 1.384 . S
C1318 C1319 1.372 . S
C1319 C1318 1.372 . S
C1319 C1320 1.400 . S
C1319 C1324 1.490 . S
C1320 H1310 0.930 . S
C1320 C1319 1.400 . S
C1320 C1323 1.386 . S
H1321 C1337 0.930 . S
H1322 C1338 0.931 . S
C1323 H1311 0.929 . S
C1323 C1317 1.390 . S
C1323 C1320 1.386 . S
C1324 C1319 1.490 . S
C1324 C1326 1.395 . S
C1324 C1327 1.403 . S
H1325 C1331 0.930 . S
C1326 H1312 0.930 . S
C1326 C1324 1.395 . S
C1326 C1329 1.403 . S
C1327 C1324 1.403 . S
C1327 C1328 1.524 . S
C1327 C1331 1.400 . S
C1328 H1313 0.960 . S
C1328 H1314 0.960 . S
C1328 H1315 0.960 . S
C1328 C1327 1.524 . S
C1329 C1326 1.403 . S
C1329 C1330 1.392 . S
C1329 C1333 1.495 . S
C1330 C1329 1.392 . S
C1330 C1331 1.385 . S
C1330 C1332 1.478 . S
C1331 H1325 0.930 . S
C1331 C1327 1.400 . S
C1331 C1330 1.385 . S
C1332 C1330 1.478 . S
C1332 C1334 1.381 . S
C1332 C1338 1.383 . S
C1333 C1329 1.495 . S
C1333 H1339 0.959 . S
C1333 H1340 0.961 . S
C1333 H1341 0.960 . S
C1334 C1332 1.381 . S
C1334 C1335 1.394 . S
C1334 H1342 0.930 . S
C1335 C1334 1.394 . S
C1335 C1336 1.383 . S
C1335 H1343 0.929 . S
C1336 C1335 1.383 . S
C1336 C1337 1.377 . S
C1337 H1321 0.930 . S
C1337 C1336 1.377 . S
C1337 C1338 1.379 . S
C1338 H1322 0.931 . S
C1338 C1332 1.383 . S
C1338 C1337 1.379 . S
H1339 C1333 0.959 . S
H1340 C1333 0.961 . S
H1341 C1333 0.960 . S
H1342 C1334 0.930 . S
H1343 C1335 0.929 . S
C489 C21 1.215 . S
C508 C337 1.287 . S
C525 C61 1.271 . S
C544 C377 1.242 . S
C580 C402 2.230 . S
C561 C82 2.298 . S
C597 C135 2.391 . S
C616 C442 2.329 . S
C652 C373 1.881 . S
C633 C15 1.831 . S
C688 C333 1.891 . S
C669 C42 1.882 . S
C724 C464 1.587 . S
C705 C101 1.589 . S
C760 C424 1.540 . S
C741 C122 1.542 . S
C777 C2 1.292 . S
C796 C466 1.366 . S
C832 C383 2.007 . S
C813 C95 2.061 . S
C849 C141 2.162 . S
C868 C343 2.126 . S
C885 C55 1.323 . S
C904 C426 1.357 . S
C940 C346 1.263 . S
C921 C181 1.287 . S
C957 C202 1.241 . S
C976 C386 1.259 . S
C993 C255 2.326 . S
C1012 C423 2.250 . S
C1029 C295 2.361 . S
C1048 C463 2.312 . S
C1065 C175 1.815 . S
C1084 C384 1.859 . S
C1120 C344 1.889 . S
C1101 C221 1.876 . S
C1156 C453 1.511 . S
C1137 C242 1.505 . S
C1192 C413 1.610 . S
C1173 C301 1.604 . S
C1209 C162 1.339 . S
C1228 C457 1.322 . S
C1264 C362 2.077 . S
C1245 C261 2.088 . S
C1300 C322 2.114 . S
C1281 C282 2.143 . S
C1317 C215 1.342 . S
C1336 C417 1.374 . S
