# Generated by pormake.
# Topology ibd, (4,6)-cn, num edge types: 1
# Building blocks:
#     Node 0, Type 0, BuildingBlock: GALJAG_clean_sbu_0, # of connection points: 4
#     Node 1, Type 0, BuildingBlock: GALJAG_clean_sbu_0, # of connection points: 4
#     Node 2, Type 0, BuildingBlock: GALJAG_clean_sbu_0, # of connection points: 4
#     Node 3, Type 0, BuildingBlock: GALJAG_clean_sbu_0, # of connection points: 4
#     Node 4, Type 0, BuildingBlock: GALJAG_clean_sbu_0, # of connection points: 4
#     Node 5, Type 0, BuildingBlock: GALJAG_clean_sbu_0, # of connection points: 4
#     Node 6, Type 0, BuildingBlock: GALJAG_clean_sbu_0, # of connection points: 4
#     Node 7, Type 0, BuildingBlock: GALJAG_clean_sbu_0, # of connection points: 4
#     Node 8, Type 0, BuildingBlock: GALJAG_clean_sbu_0, # of connection points: 4
#     Node 9, Type 0, BuildingBlock: GALJAG_clean_sbu_0, # of connection points: 4
#     Node 10, Type 0, BuildingBlock: GALJAG_clean_sbu_0, # of connection points: 4
#     Node 11, Type 0, BuildingBlock: GALJAG_clean_sbu_0, # of connection points: 4
#     Node 12, Type 0, BuildingBlock: GALJAG_clean_sbu_0, # of connection points: 4
#     Node 13, Type 0, BuildingBlock: GALJAG_clean_sbu_0, # of connection points: 4
#     Node 14, Type 0, BuildingBlock: GALJAG_clean_sbu_0, # of connection points: 4
#     Node 15, Type 0, BuildingBlock: GALJAG_clean_sbu_0, # of connection points: 4
#     Node 16, Type 0, BuildingBlock: GALJAG_clean_sbu_0, # of connection points: 4
#     Node 17, Type 0, BuildingBlock: GALJAG_clean_sbu_0, # of connection points: 4
#     Node 18, Type 0, BuildingBlock: GALJAG_clean_sbu_0, # of connection points: 4
#     Node 19, Type 0, BuildingBlock: GALJAG_clean_sbu_0, # of connection points: 4
#     Node 20, Type 0, BuildingBlock: GALJAG_clean_sbu_0, # of connection points: 4
#     Node 21, Type 0, BuildingBlock: GALJAG_clean_sbu_0, # of connection points: 4
#     Node 22, Type 0, BuildingBlock: GALJAG_clean_sbu_0, # of connection points: 4
#     Node 23, Type 0, BuildingBlock: GALJAG_clean_sbu_0, # of connection points: 4
#     Node 24, Type 1, BuildingBlock: IZENUY_clean_sbu_0, # of connection points: 6
#     Node 25, Type 1, BuildingBlock: IZENUY_clean_sbu_0, # of connection points: 6
#     Node 26, Type 1, BuildingBlock: IZENUY_clean_sbu_0, # of connection points: 6
#     Node 27, Type 1, BuildingBlock: IZENUY_clean_sbu_0, # of connection points: 6
#     Node 28, Type 1, BuildingBlock: IZENUY_clean_sbu_0, # of connection points: 6
#     Node 29, Type 1, BuildingBlock: IZENUY_clean_sbu_0, # of connection points: 6
#     Node 30, Type 1, BuildingBlock: IZENUY_clean_sbu_0, # of connection points: 6
#     Node 31, Type 1, BuildingBlock: IZENUY_clean_sbu_0, # of connection points: 6
#     Node 32, Type 1, BuildingBlock: IZENUY_clean_sbu_0, # of connection points: 6
#     Node 33, Type 1, BuildingBlock: IZENUY_clean_sbu_0, # of connection points: 6
#     Node 34, Type 1, BuildingBlock: IZENUY_clean_sbu_0, # of connection points: 6
#     Node 35, Type 1, BuildingBlock: IZENUY_clean_sbu_0, # of connection points: 6
#     Node 36, Type 1, BuildingBlock: IZENUY_clean_sbu_0, # of connection points: 6
#     Node 37, Type 1, BuildingBlock: IZENUY_clean_sbu_0, # of connection points: 6
#     Node 38, Type 1, BuildingBlock: IZENUY_clean_sbu_0, # of connection points: 6
#     Node 39, Type 1, BuildingBlock: IZENUY_clean_sbu_0, # of connection points: 6
#     Edge 40, Type (0, 1), None
#     Edge 41, Type (0, 1), None
#     Edge 42, Type (0, 1), None
#     Edge 43, Type (0, 1), None
#     Edge 44, Type (0, 1), None
#     Edge 45, Type (0, 1), None
#     Edge 46, Type (0, 1), None
#     Edge 47, Type (0, 1), None
#     Edge 48, Type (0, 1), None
#     Edge 49, Type (0, 1), None
#     Edge 50, Type (0, 1), None
#     Edge 51, Type (0, 1), None
#     Edge 52, Type (0, 1), None
#     Edge 53, Type (0, 1), None
#     Edge 54, Type (0, 1), None
#     Edge 55, Type (0, 1), None
#     Edge 56, Type (0, 1), None
#     Edge 57, Type (0, 1), None
#     Edge 58, Type (0, 1), None
#     Edge 59, Type (0, 1), None
#     Edge 60, Type (0, 1), None
#     Edge 61, Type (0, 1), None
#     Edge 62, Type (0, 1), None
#     Edge 63, Type (0, 1), None
#     Edge 64, Type (0, 1), None
#     Edge 65, Type (0, 1), None
#     Edge 66, Type (0, 1), None
#     Edge 67, Type (0, 1), None
#     Edge 68, Type (0, 1), None
#     Edge 69, Type (0, 1), None
#     Edge 70, Type (0, 1), None
#     Edge 71, Type (0, 1), None
#     Edge 72, Type (0, 1), None
#     Edge 73, Type (0, 1), None
#     Edge 74, Type (0, 1), None
#     Edge 75, Type (0, 1), None
#     Edge 76, Type (0, 1), None
#     Edge 77, Type (0, 1), None
#     Edge 78, Type (0, 1), None
#     Edge 79, Type (0, 1), None
#     Edge 80, Type (0, 1), None
#     Edge 81, Type (0, 1), None
#     Edge 82, Type (0, 1), None
#     Edge 83, Type (0, 1), None
#     Edge 84, Type (0, 1), None
#     Edge 85, Type (0, 1), None
#     Edge 86, Type (0, 1), None
#     Edge 87, Type (0, 1), None
#     Edge 88, Type (0, 1), None
#     Edge 89, Type (0, 1), None
#     Edge 90, Type (0, 1), None
#     Edge 91, Type (0, 1), None
#     Edge 92, Type (0, 1), None
#     Edge 93, Type (0, 1), None
#     Edge 94, Type (0, 1), None
#     Edge 95, Type (0, 1), None
#     Edge 96, Type (0, 1), None
#     Edge 97, Type (0, 1), None
#     Edge 98, Type (0, 1), None
#     Edge 99, Type (0, 1), None
#     Edge 100, Type (0, 1), None
#     Edge 101, Type (0, 1), None
#     Edge 102, Type (0, 1), None
#     Edge 103, Type (0, 1), None
#     Edge 104, Type (0, 1), None
#     Edge 105, Type (0, 1), None
#     Edge 106, Type (0, 1), None
#     Edge 107, Type (0, 1), None
#     Edge 108, Type (0, 1), None
#     Edge 109, Type (0, 1), None
#     Edge 110, Type (0, 1), None
#     Edge 111, Type (0, 1), None
#     Edge 112, Type (0, 1), None
#     Edge 113, Type (0, 1), None
#     Edge 114, Type (0, 1), None
#     Edge 115, Type (0, 1), None
#     Edge 116, Type (0, 1), None
#     Edge 117, Type (0, 1), None
#     Edge 118, Type (0, 1), None
#     Edge 119, Type (0, 1), None
#     Edge 120, Type (0, 1), None
#     Edge 121, Type (0, 1), None
#     Edge 122, Type (0, 1), None
#     Edge 123, Type (0, 1), None
#     Edge 124, Type (0, 1), None
#     Edge 125, Type (0, 1), None
#     Edge 126, Type (0, 1), None
#     Edge 127, Type (0, 1), None
#     Edge 128, Type (0, 1), None
#     Edge 129, Type (0, 1), None
#     Edge 130, Type (0, 1), None
#     Edge 131, Type (0, 1), None
#     Edge 132, Type (0, 1), None
#     Edge 133, Type (0, 1), None
#     Edge 134, Type (0, 1), None
#     Edge 135, Type (0, 1), None
# Relax obj value: 0.206
# Max RMSD: 0.229
# Mean RMSD: 0.214
data_MOF--net-ibd--node1-GALJAG_clean_sbu_0--node2-IZENUY_clean_sbu_0--edge1-none
_symmetry_space_group_name_H-M    P1
_symmetry_Int_Tables_number       1
_symmetry_cell_setting            triclinic
loop_
_symmetry_equiv_pos_as_xyz
'x, y, z'
_cell_length_a     22.895585
_cell_length_b     22.895566
_cell_length_c     22.896096
_cell_angle_alpha  90.03593
_cell_angle_beta   90.036422
_cell_angle_gamma 90.036528
loop_
_atom_site_label
_atom_site_type_symbol
_atom_site_fract_x
_atom_site_fract_y
_atom_site_fract_z
_atom_type_partial_charge
In0 In 0.00432 0.25802 0.38088 0.0
O1 O 0.07223 0.2616 0.30849 0.0
O2 O 0.04416 0.17774 0.33719 0.0
C3 C 0.05534 0.32788 0.46052 0.0
C4 C 0.9345 0.30904 0.30134 0.0
C5 C 0.95328 0.18826 0.46044 0.0
O6 O 0.08463 0.29792 0.42464 0.0
O7 O 1.00078 0.32596 0.4533 0.0
O8 O 0.924 0.21817 0.4245 0.0
O9 O 0.00785 0.19015 0.45328 0.0
C10 C 0.07412 0.20703 0.30131 0.0
O11 O 0.93638 0.25447 0.30845 0.0
O12 O 0.96449 0.33832 0.33728 0.0
In13 In 0.00461 0.75808 0.63119 0.0
O14 O 0.96508 0.83847 0.67497 0.0
O15 O 0.93661 0.75469 0.70349 0.0
C16 C 0.05568 0.82799 0.55174 0.0
C17 C 0.07409 0.70675 0.71084 0.0
C18 C 0.95346 0.68839 0.5515 0.0
O19 O 1.00111 0.82613 0.55894 0.0
O20 O 0.08495 0.7979 0.58754 0.0
O21 O 0.00804 0.69025 0.55867 0.0
O22 O 0.92423 0.71835 0.58743 0.0
C23 C 0.93497 0.80926 0.71077 0.0
O24 O 0.04408 0.6776 0.67483 0.0
O25 O 0.07247 0.76133 0.7037 0.0
In26 In 0.50419 0.75816 0.88106 0.0
O27 O 0.57226 0.76137 0.80883 0.0
O28 O 0.54347 0.67766 0.83724 0.0
C29 C 0.55562 0.82747 0.96088 0.0
C30 C 0.43475 0.80968 0.80146 0.0
C31 C 0.45282 0.68864 0.96064 0.0
O32 O 0.58473 0.79745 0.92491 0.0
O33 O 0.50105 0.82594 0.95362 0.0
O34 O 0.42367 0.71879 0.92479 0.0
O35 O 0.50739 0.69017 0.95336 0.0
C36 C 0.57375 0.7068 0.80152 0.0
O37 O 0.43623 0.75509 0.80862 0.0
O38 O 0.46495 0.83875 0.83739 0.0
In39 In 0.50447 0.25822 0.13161 0.0
O40 O 0.54371 0.17765 0.17527 0.0
O41 O 0.57256 0.26129 0.20393 0.0
C42 C 0.45345 0.18852 0.05186 0.0
C43 C 0.43497 0.3097 0.21116 0.0
C44 C 0.5555 0.32784 0.05195 0.0
O45 O 0.50802 0.1904 0.0591 0.0
O46 O 0.42416 0.21842 0.08779 0.0
O47 O 0.50093 0.32599 0.05914 0.0
O48 O 0.58479 0.29797 0.08792 0.0
C49 C 0.57398 0.20672 0.21112 0.0
O50 O 0.46521 0.33878 0.17536 0.0
O51 O 0.43642 0.25512 0.20389 0.0
In52 In 0.00439 0.75806 0.13123 0.0
O53 O 0.92404 0.79768 0.08744 0.0
O54 O 0.00788 0.82589 0.0588 0.0
C55 C 0.93487 0.70656 0.21073 0.0
C56 C 0.05551 0.68836 0.05164 0.0
C57 C 0.07379 0.80964 0.21094 0.0
O58 O 0.93631 0.76113 0.20346 0.0
O59 O 0.96512 0.67748 0.17492 0.0
O60 O 0.07233 0.75506 0.20368 0.0
O61 O 0.04363 0.83868 0.17503 0.0
C62 C 0.95331 0.82767 0.05157 0.0
O63 O 0.08476 0.71841 0.08756 0.0
O64 O 1.00094 0.69013 0.0588 0.0
In65 In 0.50436 0.75822 0.38127 0.0
O66 O 0.50088 0.69029 0.45362 0.0
O67 O 0.58471 0.71849 0.42498 0.0
C68 C 0.43466 0.70713 0.30153 0.0
C69 C 0.45322 0.82806 0.46076 0.0
C70 C 0.5742 0.80923 0.30175 0.0
O71 O 0.46453 0.67788 0.33751 0.0
O72 O 0.43656 0.76171 0.30871 0.0
O73 O 0.54422 0.83852 0.33762 0.0
O74 O 0.57232 0.75466 0.30895 0.0
C75 C 0.55546 0.68846 0.46082 0.0
O76 O 0.5078 0.82624 0.45363 0.0
O77 O 0.42399 0.79797 0.42487 0.0
In78 In 0.50429 0.25794 0.63128 0.0
O79 O 0.58466 0.21821 0.58767 0.0
O80 O 0.50083 0.19002 0.55884 0.0
C81 C 0.5738 0.30917 0.71103 0.0
C82 C 0.4533 0.32791 0.55183 0.0
C83 C 0.43479 0.20667 0.71091 0.0
O84 O 0.57213 0.2546 0.70379 0.0
O85 O 0.54385 0.33835 0.67507 0.0
O86 O 0.43645 0.26124 0.70372 0.0
O87 O 0.46472 0.17749 0.67492 0.0
C88 C 0.55541 0.18816 0.55174 0.0
O89 O 0.42399 0.29775 0.58754 0.0
O90 O 0.50787 0.32603 0.55908 0.0
In91 In 0.00447 0.25833 0.88096 0.0
O92 O 1.00119 0.1903 0.95322 0.0
O93 O 0.08494 0.21896 0.92477 0.0
C94 C 0.93501 0.20693 0.80125 0.0
C95 C 0.95304 0.32771 0.96062 0.0
C96 C 0.07391 0.30977 0.80137 0.0
O97 O 0.96514 0.17781 0.83713 0.0
O98 O 0.93654 0.26151 0.80853 0.0
O99 O 0.04379 0.33888 0.83727 0.0
O100 O 0.0724 0.2552 0.8086 0.0
C101 C 0.05576 0.18875 0.96053 0.0
O102 O 0.00762 0.3262 0.95346 0.0
O103 O 0.92392 0.29762 0.92464 0.0
In104 In 0.37931 0.00769 0.2559 0.0
O105 O 0.30674 0.9399 0.25274 0.0
O106 O 0.33566 0.9684 0.33643 0.0
C107 C 0.45895 0.95635 0.18643 0.0
C108 C 0.29982 0.07741 0.20461 0.0
C109 C 0.45894 0.05886 0.32565 0.0
O110 O 0.423 0.92718 0.21643 0.0
O111 O 0.45175 0.01093 0.18807 0.0
O112 O 0.42313 0.08808 0.29553 0.0
O113 O 0.45168 0.00429 0.3239 0.0
C114 C 0.29963 0.93837 0.30733 0.0
O115 O 0.30714 0.07584 0.25917 0.0
O116 O 0.33552 0.04714 0.17543 0.0
In117 In 0.2546 0.13365 0.50634 0.0
O118 O 0.17405 0.17728 0.54569 0.0
O119 O 0.25773 0.20618 0.57421 0.0
C120 C 0.185 0.05394 0.45508 0.0
C121 C 0.30592 0.21322 0.43679 0.0
C122 C 0.32427 0.05411 0.55755 0.0
O123 O 0.18672 0.06118 0.50965 0.0
O124 O 0.21504 0.08984 0.42588 0.0
O125 O 0.32256 0.06134 0.50298 0.0
O126 O 0.2942 0.08997 0.58676 0.0
C127 C 0.20314 0.21329 0.57577 0.0
O128 O 0.33508 0.17747 0.46702 0.0
O129 O 0.25135 0.20589 0.43828 0.0
In130 In 0.12954 0.00826 0.75618 0.0
O131 O 0.08582 0.92783 0.79575 0.0
O132 O 0.05706 0.0116 0.824 0.0
C133 C 0.20914 0.93878 0.70486 0.0
C134 C 0.05007 0.05943 0.68639 0.0
C135 C 0.20928 0.07776 0.80752 0.0
O136 O 0.20193 0.94037 0.75944 0.0
O137 O 0.17322 0.96882 0.67572 0.0
O138 O 0.20203 0.07613 0.75294 0.0
O139 O 0.17332 0.04775 0.83666 0.0
C140 C 0.04989 0.95702 0.82576 0.0
O141 O 0.08584 0.08866 0.71663 0.0
O142 O 0.05732 0.00486 0.68805 0.0
In143 In 0.25422 0.88314 0.0061 0.0
O144 O 0.18643 0.95562 1.00252 0.0
O145 O 0.21445 0.92685 0.08638 0.0
C146 C 0.20297 0.80342 0.93653 0.0
C147 C 0.3241 0.96265 0.95508 0.0
C148 C 0.30536 0.80364 0.07583 0.0
O149 O 0.17378 0.83937 0.9665 0.0
O150 O 0.25754 0.81066 0.93823 0.0
O151 O 0.33458 0.83952 0.04581 0.0
O152 O 0.25079 0.81082 0.07407 0.0
C153 C 0.18455 0.96279 0.05709 0.0
O154 O 0.32222 0.95551 0.00965 0.0
O155 O 0.29405 0.92676 0.92579 0.0
In156 In 0.25468 0.38306 0.00593 0.0
O157 O 0.25144 0.31061 0.93802 0.0
O158 O 0.33517 0.33941 0.96652 0.0
C159 C 0.18487 0.46255 0.95482 0.0
C160 C 0.20348 0.3035 0.07557 0.0
C161 C 0.32416 0.46285 0.05715 0.0
O162 O 0.21498 0.42675 0.92556 0.0
O163 O 0.18663 0.4553 0.00938 0.0
O164 O 0.29427 0.42683 0.08635 0.0
O165 O 0.3224 0.45567 1.00257 0.0
C166 C 0.30602 0.30344 0.93645 0.0
O167 O 0.25806 0.31074 0.07391 0.0
O168 O 0.17429 0.33933 0.04545 0.0
In169 In 0.75392 0.13282 0.006 0.0
O170 O 0.71447 0.0892 0.08647 0.0
O171 O 0.6861 0.06028 1.00274 0.0
C172 C 0.80519 0.21254 0.07555 0.0
C173 C 0.82373 0.05333 0.95484 0.0
C174 C 0.7026 0.21243 0.93651 0.0
O175 O 0.75062 0.20531 0.07387 0.0
O176 O 0.83436 0.17661 0.04552 0.0
O177 O 0.75717 0.20519 0.93809 0.0
O178 O 0.67343 0.17651 0.96654 0.0
C179 C 0.68445 0.05319 0.05732 0.0
O180 O 0.7935 0.08903 0.92561 0.0
O181 O 0.82203 0.06063 0.00941 0.0
In182 In 0.12946 0.50781 0.25609 0.0
O183 O 0.1732 0.4685 0.3366 0.0
O184 O 0.20199 0.44005 0.2529 0.0
C185 C 0.04993 0.55902 0.32574 0.0
C186 C 0.20892 0.57756 0.20479 0.0
C187 C 0.04972 0.45649 0.18653 0.0
O188 O 0.05712 0.50445 0.32403 0.0
O189 O 0.08579 0.58822 0.29567 0.0
O190 O 0.05698 0.51107 0.18821 0.0
O191 O 0.08564 0.42732 0.21656 0.0
C192 C 0.20918 0.4385 0.30749 0.0
O193 O 0.17316 0.54726 0.17562 0.0
O194 O 0.20167 0.576 0.25935 0.0
In195 In 0.75455 0.88276 0.50603 0.0
O196 O 0.75135 0.81043 0.43798 0.0
O197 O 0.83506 0.8391 0.46664 0.0
C198 C 0.68483 0.96234 0.45492 0.0
C199 C 0.70322 0.80322 0.57567 0.0
C200 C 0.82424 0.96248 0.55716 0.0
O201 O 0.71483 0.92646 0.42566 0.0
O202 O 0.68665 0.95514 0.50949 0.0
O203 O 0.79429 0.92655 0.5864 0.0
O204 O 0.8224 0.95526 0.50259 0.0
C205 C 0.80593 0.80324 0.43643 0.0
O206 O 0.7578 0.81042 0.57402 0.0
O207 O 0.67408 0.83904 0.54552 0.0
In208 In 0.87939 0.00861 0.25621 0.0
O209 O 0.95187 0.01208 0.3241 0.0
O210 O 0.92301 0.92826 0.29591 0.0
C211 C 0.79973 0.07801 0.30757 0.0
C212 C 0.95898 0.05971 0.18646 0.0
C213 C 0.79983 0.93877 0.205 0.0
O214 O 0.83577 0.0481 0.3367 0.0
O215 O 0.80687 0.07636 0.25299 0.0
O216 O 0.83558 0.96897 0.17579 0.0
O217 O 0.80715 0.94047 0.25957 0.0
C218 C 0.95896 0.9575 0.32593 0.0
O219 O 0.95172 0.00514 0.18825 0.0
O220 O 0.92316 0.08898 0.21651 0.0
In221 In 0.25406 0.63357 0.50614 0.0
O222 O 0.29379 0.58979 0.42582 0.0
O223 O 0.322 0.56124 0.50968 0.0
C224 C 0.20278 0.71309 0.43651 0.0
C225 C 0.1843 0.55401 0.55724 0.0
C226 C 0.30542 0.71329 0.57568 0.0
O227 O 0.25735 0.70584 0.43812 0.0
O228 O 0.17361 0.67725 0.46663 0.0
O229 O 0.25083 0.70612 0.57398 0.0
O230 O 0.33455 0.6773 0.54569 0.0
C231 C 0.32385 0.554 0.45511 0.0
O232 O 0.21432 0.58994 0.5865 0.0
O233 O 0.18613 0.56114 0.50267 0.0
In234 In 0.37922 0.50824 0.75633 0.0
O235 O 0.45169 0.51154 0.82425 0.0
O236 O 0.42282 0.42778 0.79593 0.0
C237 C 0.29972 0.57788 0.80759 0.0
C238 C 0.45877 0.55936 0.68663 0.0
C239 C 0.29939 0.43891 0.70493 0.0
O240 O 0.33555 0.54776 0.83677 0.0
O241 O 0.30698 0.57629 0.75303 0.0
O242 O 0.33542 0.46885 0.67581 0.0
O243 O 0.3066 0.44051 0.75951 0.0
C244 C 0.45878 0.45695 0.82599 0.0
O245 O 0.45147 0.5048 0.68831 0.0
O246 O 0.42303 0.58861 0.7168 0.0
In247 In 0.62974 0.00821 0.75619 0.0
O248 O 0.67348 0.9686 0.83655 0.0
O249 O 0.70192 0.94008 0.75276 0.0
C250 C 0.55018 0.05928 0.82597 0.0
C251 C 0.70937 0.07771 0.70483 0.0
C252 C 0.55001 0.9572 0.68652 0.0
O253 O 0.55732 0.00471 0.82405 0.0
O254 O 0.58613 0.08855 0.79607 0.0
O255 O 0.55726 0.01177 0.68836 0.0
O256 O 0.58593 0.92791 0.71644 0.0
C257 C 0.7092 0.93839 0.80733 0.0
O258 O 0.67336 0.04768 0.6757 0.0
O259 O 0.70227 0.07607 0.75941 0.0
In260 In 0.75471 0.63303 0.00623 0.0
O261 O 0.6743 0.67663 0.04585 0.0
O262 O 0.75807 0.70543 0.07422 0.0
C263 C 0.68491 0.55336 0.95518 0.0
C264 C 0.80592 0.71258 0.93654 0.0
C265 C 0.8243 0.55338 0.05732 0.0
O266 O 0.68679 0.5606 0.00975 0.0
O267 O 0.71489 0.58925 0.92591 0.0
O268 O 0.82246 0.56052 1.00275 0.0
O269 O 0.79446 0.5894 0.08657 0.0
C270 C 0.70349 0.71254 0.07595 0.0
O271 O 0.83513 0.67679 0.96668 0.0
O272 O 0.75135 0.7053 0.93821 0.0
In273 In 0.87902 0.5078 0.75628 0.0
O274 O 0.80662 0.4398 0.75301 0.0
O275 O 0.83543 0.46824 0.83675 0.0
C276 C 0.9585 0.45686 0.68638 0.0
C277 C 0.79947 0.57745 0.70507 0.0
C278 C 0.95885 0.55892 0.82585 0.0
O279 O 0.92273 0.42753 0.71644 0.0
O280 O 0.95121 0.51142 0.68822 0.0
O281 O 0.92276 0.58816 0.79609 0.0
O282 O 0.95173 0.50434 0.82392 0.0
C283 C 0.79949 0.43814 0.80759 0.0
O284 O 0.80671 0.57579 0.75965 0.0
O285 O 0.83528 0.54732 0.67588 0.0
In286 In 0.75435 0.38297 0.50623 0.0
O287 O 0.68633 0.45525 0.5029 0.0
O288 O 0.71485 0.42675 0.58667 0.0
C289 C 0.70295 0.30324 0.43679 0.0
C290 C 0.82396 0.46253 0.45488 0.0
C291 C 0.80579 0.30336 0.57568 0.0
O292 O 0.67382 0.33911 0.46692 0.0
O293 O 0.75752 0.31056 0.43829 0.0
O294 O 0.83489 0.33931 0.54563 0.0
O295 O 0.75121 0.31054 0.57412 0.0
C296 C 0.68466 0.46252 0.55747 0.0
O297 O 0.82233 0.45537 0.50946 0.0
O298 O 0.79379 0.42664 0.42573 0.0
In299 In 0.62938 0.5084 0.25582 0.0
O300 O 0.58562 0.42814 0.29561 0.0
O301 O 0.55715 0.51201 0.32388 0.0
C302 C 0.70881 0.43858 0.20457 0.0
C303 C 0.54971 0.55965 0.18628 0.0
C304 C 0.70917 0.57782 0.30715 0.0
O305 O 0.70156 0.44027 0.25913 0.0
O306 O 0.67304 0.46876 0.17537 0.0
O307 O 0.70199 0.57615 0.25256 0.0
O308 O 0.67315 0.54788 0.33628 0.0
C309 C 0.5499 0.45744 0.32575 0.0
O310 O 0.58574 0.58885 0.21623 0.0
O311 O 0.55682 0.50507 0.18803 0.0
Fe312 Fe 0.1294 0.07878 0.18534 0.0
Fe313 Fe 0.07512 0.18774 0.13093 0.0
O314 O 0.12948 0.13323 0.13091 0.0
Fe315 Fe 0.18391 0.13315 0.07646 0.0
O316 O 0.16106 0.06164 0.05101 0.0
O317 O 0.16093 0.02158 0.13814 0.0
O318 O 0.05777 0.0535 0.16268 0.0
C319 C 0.01301 0.08556 0.164 0.0
C320 C 0.24583 0.09993 0.17871 0.0
O321 O 0.01787 0.14069 0.16262 0.0
C322 C 0.17752 0.24951 0.09795 0.0
O323 O 0.09784 0.12599 0.24252 0.0
O324 O 0.09786 0.21313 0.20249 0.0
O325 O 0.24104 0.10131 0.12358 0.0
O326 O 0.20104 0.10134 0.21073 0.0
C327 C 0.08167 0.16634 0.01454 0.0
O328 O 0.12238 0.24482 0.09926 0.0
O329 O 0.20946 0.20466 0.09921 0.0
C330 C 0.09655 0.18113 0.2473 0.0
O331 O 0.04967 0.16508 0.05935 0.0
O332 O 0.13681 0.16496 0.01932 0.0
C333 C 0.16223 0.01682 0.083 0.0
Fe334 Fe 0.07466 0.82918 0.3814 0.0
Fe335 Fe 0.12925 0.93797 0.32688 0.0
O336 O 0.12921 0.88356 0.38135 0.0
Fe337 Fe 0.18376 0.88351 0.43574 0.0
O338 O 0.20898 0.81193 0.413 0.0
O339 O 0.12175 0.77197 0.41305 0.0
O340 O 0.0972 0.80371 0.30984 0.0
C341 C 0.096 0.83567 0.26501 0.0
C342 C 0.08152 0.85053 0.49776 0.0
O343 O 0.09734 0.89082 0.26975 0.0
C344 C 0.16258 0.9999 0.42915 0.0
O345 O 0.01756 0.8764 0.34973 0.0
O346 O 0.05781 0.9635 0.34963 0.0
O347 O 0.13665 0.85186 0.49295 0.0
O348 O 0.04943 0.85192 0.45298 0.0
C349 C 0.24556 0.91628 0.33337 0.0
O350 O 0.16118 0.99511 0.37401 0.0
O351 O 0.16126 0.9551 0.46116 0.0
C352 C 0.01292 0.93155 0.34837 0.0
O353 O 0.20068 0.91512 0.30142 0.0
O354 O 0.24089 0.91511 0.38852 0.0
C355 C 0.17689 0.76715 0.41426 0.0
Fe356 Fe 0.37958 0.93804 0.68563 0.0
Fe357 Fe 0.32507 0.88371 0.5766 0.0
O358 O 0.3795 0.88362 0.6311 0.0
Fe359 Fe 0.43386 0.82911 0.63109 0.0
O360 O 0.41112 0.80372 0.7026 0.0
O361 O 0.41127 0.89084 0.74275 0.0
O362 O 0.30802 0.91536 0.71095 0.0
C363 C 0.2632 0.91661 0.67891 0.0
C364 C 0.49591 0.93134 0.6642 0.0
O365 O 0.26796 0.91543 0.62377 0.0
C366 C 0.42731 0.85053 0.51474 0.0
O367 O 0.3479 0.99525 0.63854 0.0
O368 O 0.34788 0.95527 0.55134 0.0
O369 O 0.49108 0.87621 0.66286 0.0
O370 O 0.45114 0.9634 0.66299 0.0
C371 C 0.33146 0.76733 0.59795 0.0
O372 O 0.37218 0.85198 0.51944 0.0
O373 O 0.4593 0.85178 0.55959 0.0
C374 C 0.34661 1.00006 0.58341 0.0
O375 O 0.29953 0.81218 0.59916 0.0
O376 O 0.38661 0.77201 0.59931 0.0
C377 C 0.41247 0.8357 0.74745 0.0
Fe378 Fe 0.43425 0.18744 0.88141 0.0
Fe379 Fe 0.37976 0.07847 0.82693 0.0
O380 O 0.37978 0.13296 0.88138 0.0
Fe381 Fe 0.32531 0.133 0.93579 0.0
O382 O 0.29996 0.20452 0.91306 0.0
O383 O 0.38712 0.24461 0.91307 0.0
O384 O 0.41157 0.21277 0.80985 0.0
C385 C 0.4127 0.18073 0.76502 0.0
C386 C 0.42759 0.16612 0.99778 0.0
O387 O 0.41145 0.1256 0.76978 0.0
C388 C 0.34662 0.01663 0.92921 0.0
O389 O 0.4914 0.14029 0.84973 0.0
O390 O 0.45132 0.05312 0.84963 0.0
O391 O 0.37246 0.16477 0.99297 0.0
O392 O 0.45963 0.16484 0.953 0.0
C393 C 0.26338 0.09995 0.83349 0.0
O394 O 0.34803 0.02134 0.87407 0.0
O395 O 0.34794 0.06147 0.96121 0.0
C396 C 0.49615 0.08516 0.84836 0.0
O397 O 0.30821 0.10111 0.8015 0.0
O398 O 0.26815 0.10126 0.88862 0.0
C399 C 0.33198 0.24936 0.91428 0.0
Fe400 Fe 0.57451 0.32862 0.88152 0.0
Fe401 Fe 0.62913 0.43741 0.82703 0.0
O402 O 0.62908 0.38299 0.88148 0.0
Fe403 Fe 0.68362 0.38292 0.93588 0.0
O404 O 0.70881 0.31132 0.91313 0.0
O405 O 0.62157 0.2714 0.9132 0.0
O406 O 0.59706 0.30314 0.80997 0.0
C407 C 0.59596 0.33513 0.76515 0.0
C408 C 0.58135 0.3501 0.99788 0.0
O409 O 0.5973 0.39026 0.7699 0.0
C410 C 0.66244 0.49932 0.9293 0.0
O411 O 0.5174 0.37583 0.8498 0.0
O412 O 0.55765 0.46292 0.84973 0.0
O413 O 0.63649 0.35131 0.99306 0.0
O414 O 0.54926 0.35139 0.95309 0.0
C415 C 0.74547 0.41584 0.83356 0.0
O416 O 0.661 0.49455 0.87417 0.0
O417 O 0.66116 0.45452 0.96131 0.0
C418 C 0.51276 0.43097 0.84842 0.0
O419 O 0.7006 0.41463 0.80159 0.0
O420 O 0.74079 0.41453 0.8887 0.0
C421 C 0.6767 0.26655 0.91437 0.0
Fe422 Fe 0.82476 0.38296 0.07648 0.0
Fe423 Fe 0.87924 0.43731 0.18551 0.0
O424 O 0.87918 0.38288 0.13101 0.0
Fe425 Fe 0.93355 0.32838 0.13102 0.0
O426 O 0.95902 0.35109 0.05954 0.0
O427 O 0.8719 0.3512 0.01936 0.0
O428 O 0.84761 0.45448 0.05117 0.0
C429 C 0.84647 0.49929 0.08322 0.0
C430 C 0.83117 0.26659 0.09785 0.0
O431 O 0.8477 0.49452 0.13836 0.0
C432 C 0.91209 0.33496 0.24735 0.0
O433 O 0.76761 0.41476 0.12357 0.0
O434 O 0.80761 0.41473 0.21077 0.0
O435 O 0.88632 0.2713 0.09919 0.0
O436 O 0.79922 0.31144 0.09908 0.0
C437 C 0.99563 0.43057 0.16422 0.0
O438 O 0.91081 0.3901 0.24265 0.0
O439 O 0.91079 0.30296 0.2025 0.0
C440 C 0.76281 0.41611 0.1787 0.0
O441 O 0.95085 0.46262 0.16296 0.0
O442 O 0.99078 0.37544 0.16286 0.0
C443 C 0.92704 0.34991 0.01467 0.0
Fe444 Fe 0.82519 0.63288 0.43551 0.0
Fe445 Fe 0.93412 0.68728 0.38112 0.0
O446 O 0.87964 0.63282 0.3811 0.0
Fe447 Fe 0.87959 0.57834 0.32665 0.0
O448 O 0.80809 0.60106 0.30119 0.0
O449 O 0.76801 0.60118 0.38831 0.0
O450 O 0.79985 0.7044 0.41281 0.0
C451 C 0.83188 0.74922 0.4141 0.0
C452 C 0.84642 0.5165 0.42892 0.0
O453 O 0.88702 0.74447 0.41283 0.0
C454 C 0.99594 0.58495 0.34812 0.0
O455 O 0.87238 0.66461 0.4927 0.0
O456 O 0.95953 0.66464 0.45267 0.0
O457 O 0.84777 0.52121 0.37378 0.0
O458 O 0.8478 0.56135 0.46092 0.0
C459 C 0.91263 0.68059 0.26476 0.0
O460 O 0.99122 0.64009 0.34942 0.0
O461 O 0.9511 0.55293 0.34941 0.0
C462 C 0.92753 0.66596 0.49747 0.0
O463 O 0.9114 0.71262 0.30958 0.0
O464 O 0.91137 0.62545 0.26952 0.0
C465 C 0.76327 0.59994 0.33316 0.0
Fe466 Fe 0.93406 0.82865 0.88119 0.0
Fe467 Fe 0.82511 0.88298 0.93555 0.0
O468 O 0.87957 0.88303 0.88115 0.0
Fe469 Fe 0.87953 0.93745 0.8267 0.0
O470 O 0.95106 0.96297 0.84942 0.0
O471 O 0.99119 0.87588 0.84951 0.0
O472 O 0.95943 0.8514 0.95276 0.0
C473 C 0.9274 0.85007 0.99755 0.0
C474 C 0.91263 0.83518 0.76481 0.0
O475 O 0.87227 0.85136 0.99274 0.0
C476 C 0.76318 0.91592 0.83323 0.0
O477 O 0.88695 0.77144 0.91286 0.0
O478 O 0.79978 0.81139 0.91284 0.0
O479 O 0.91128 0.89031 0.76956 0.0
O480 O 0.9114 0.80319 0.80962 0.0
C481 C 0.84633 0.99938 0.92896 0.0
O482 O 0.76793 0.91459 0.88837 0.0
O483 O 0.808 0.91465 0.80125 0.0
C484 C 0.83181 0.76661 0.91416 0.0
O485 O 0.84771 0.95459 0.96097 0.0
O486 O 0.84774 0.9946 0.87382 0.0
C487 C 0.9959 0.93102 0.84814 0.0
Fe488 Fe 0.87976 0.07857 0.68531 0.0
Fe489 Fe 0.82516 0.13291 0.57644 0.0
O490 O 0.87968 0.13299 0.63086 0.0
Fe491 Fe 0.93412 0.18749 0.63084 0.0
O492 O 0.91147 0.21292 0.70238 0.0
O493 O 0.91152 0.12579 0.74243 0.0
O494 O 0.80826 0.10122 0.71076 0.0
C495 C 0.76339 0.09995 0.6788 0.0
C496 C 0.99609 0.08529 0.6639 0.0
O497 O 0.76806 0.10121 0.62365 0.0
C498 C 0.9274 0.16595 0.51448 0.0
O499 O 0.84799 0.02136 0.63819 0.0
O500 O 0.84781 0.06136 0.55104 0.0
O501 O 0.99131 0.14042 0.66257 0.0
O502 O 0.95128 0.05324 0.66256 0.0
C503 C 0.83179 0.24931 0.59787 0.0
O504 O 0.87227 0.1646 0.51925 0.0
O505 O 0.95946 0.16476 0.5593 0.0
C506 C 0.84659 0.01656 0.58306 0.0
O507 O 0.79979 0.20446 0.59912 0.0
O508 O 0.88693 0.24459 0.59912 0.0
C509 C 0.91275 0.18093 0.7472 0.0
Fe510 Fe 0.6293 0.07836 0.32686 0.0
Fe511 Fe 0.68369 0.13277 0.43589 0.0
O512 O 0.62924 0.13274 0.38141 0.0
Fe513 Fe 0.57476 0.18713 0.38145 0.0
O514 O 0.59748 0.21263 0.30999 0.0
O515 O 0.59754 0.12554 0.26977 0.0
O516 O 0.70081 0.1012 0.30155 0.0
C517 C 0.74564 0.10005 0.33357 0.0
C518 C 0.51293 0.08479 0.34816 0.0
O519 O 0.74088 0.10121 0.38871 0.0
C520 C 0.58135 0.16568 0.49778 0.0
O521 O 0.66108 0.02118 0.37393 0.0
O522 O 0.66108 0.06116 0.46115 0.0
O523 O 0.51765 0.13994 0.34959 0.0
O524 O 0.55777 0.05283 0.34945 0.0
C525 C 0.67699 0.24914 0.41457 0.0
O526 O 0.6365 0.16437 0.49307 0.0
O527 O 0.54936 0.16433 0.45293 0.0
C528 C 0.66242 0.01637 0.42906 0.0
O529 O 0.70903 0.20436 0.41333 0.0
O530 O 0.62186 0.24432 0.4133 0.0
C531 C 0.59626 0.18069 0.26511 0.0
Fe532 Fe 0.57512 0.82823 0.13136 0.0
Fe533 Fe 0.6839 0.88285 0.07687 0.0
O534 O 0.62949 0.88281 0.13132 0.0
Fe535 Fe 0.62942 0.93735 0.18571 0.0
O536 O 0.55782 0.96253 0.16299 0.0
O537 O 0.51789 0.8753 0.16304 0.0
O538 O 0.54965 0.85078 0.05981 0.0
C539 C 0.58163 0.84961 0.01499 0.0
C540 C 0.59657 0.83508 0.24772 0.0
O541 O 0.63677 0.85094 0.01974 0.0
C542 C 0.74583 0.91623 0.17911 0.0
O543 O 0.62236 0.77114 0.09968 0.0
O544 O 0.70944 0.8114 0.09963 0.0
O545 O 0.59783 0.89021 0.24291 0.0
O546 O 0.59789 0.803 0.20293 0.0
C547 C 0.66224 0.99916 0.08334 0.0
O548 O 0.74104 0.91479 0.12398 0.0
O549 O 0.70103 0.91489 0.21112 0.0
C550 C 0.6775 0.76651 0.09836 0.0
O551 O 0.66106 0.95428 0.05139 0.0
O552 O 0.661 0.9945 0.13849 0.0
C553 C 0.51305 0.93043 0.16426 0.0
Fe554 Fe 0.43366 0.68783 0.13108 0.0
Fe555 Fe 0.32471 0.63327 0.07663 0.0
O556 O 0.37922 0.63333 0.13107 0.0
Fe557 Fe 0.37928 0.57888 0.18548 0.0
O558 O 0.45082 0.55356 0.16279 0.0
O559 O 0.49088 0.64073 0.16275 0.0
O560 O 0.45897 0.66516 0.0595 0.0
C561 C 0.42691 0.66639 0.0147 0.0
C562 C 0.41233 0.6812 0.24746 0.0
O563 O 0.37178 0.66508 0.01948 0.0
C564 C 0.26289 0.60007 0.17888 0.0
O565 O 0.38644 0.74493 0.09944 0.0
O566 O 0.29929 0.70478 0.0994 0.0
O567 O 0.411 0.62606 0.24267 0.0
O568 O 0.41106 0.71321 0.20266 0.0
C569 C 0.34633 0.51695 0.08314 0.0
O570 O 0.26761 0.60143 0.12375 0.0
O571 O 0.30773 0.60146 0.21089 0.0
C572 C 0.33129 0.74963 0.09816 0.0
O573 O 0.34745 0.56178 0.05116 0.0
O574 O 0.34761 0.52169 0.13828 0.0
C575 C 0.49564 0.5856 0.16404 0.0
Fe576 Fe 0.12931 0.57848 0.82673 0.0
Fe577 Fe 0.1837 0.63294 0.93575 0.0
O578 O 0.12924 0.6329 0.88126 0.0
Fe579 Fe 0.07476 0.68728 0.88128 0.0
O580 O 0.09742 0.71273 0.80977 0.0
O581 O 0.09756 0.62561 0.7696 0.0
O582 O 0.20084 0.6013 0.80144 0.0
C583 C 0.24566 0.60011 0.83349 0.0
C584 C 0.01293 0.58491 0.84812 0.0
O585 O 0.24087 0.60132 0.88862 0.0
C586 C 0.08141 0.66592 0.99764 0.0
O587 O 0.16107 0.52134 0.87384 0.0
O588 O 0.16105 0.56135 0.96105 0.0
O589 O 0.01763 0.64005 0.84951 0.0
O590 O 0.05777 0.55296 0.84931 0.0
C591 C 0.17702 0.74931 0.91432 0.0
O592 O 0.13654 0.66461 0.99291 0.0
O593 O 0.04939 0.66457 0.9528 0.0
C594 C 0.16241 0.51655 0.92897 0.0
O595 O 0.20905 0.70452 0.91314 0.0
O596 O 0.12189 0.74449 0.91304 0.0
C597 C 0.09626 0.68075 0.76491 0.0
Fe598 Fe 0.18345 0.38367 0.57654 0.0
Fe599 Fe 0.07467 0.32896 0.63094 0.0
O600 O 0.129 0.38357 0.63096 0.0
Fe601 Fe 0.12888 0.43806 0.6854 0.0
O602 O 0.20046 0.41557 0.71087 0.0
O603 O 0.24055 0.41551 0.62375 0.0
O604 O 0.20899 0.3122 0.59923 0.0
C605 C 0.17707 0.26729 0.59799 0.0
C606 C 0.16189 0.49999 0.58314 0.0
O607 O 0.12193 0.2719 0.59926 0.0
C608 C 0.01254 0.4311 0.66393 0.0
O609 O 0.13636 0.35181 0.51935 0.0
O610 O 0.04921 0.35152 0.55938 0.0
O611 O 0.16053 0.49527 0.63828 0.0
O612 O 0.16065 0.45515 0.55114 0.0
C613 C 0.0961 0.33574 0.74732 0.0
O614 O 0.01742 0.37598 0.66262 0.0
O615 O 0.05729 0.46324 0.66264 0.0
C616 C 0.08122 0.35032 0.51457 0.0
O617 O 0.09742 0.3037 0.70251 0.0
O618 O 0.09725 0.39088 0.74254 0.0
C619 C 0.24529 0.41678 0.67889 0.0
Fe620 Fe 0.68364 0.63285 0.57676 0.0
Fe621 Fe 0.62911 0.57851 0.68563 0.0
O622 O 0.6292 0.63294 0.63118 0.0
Fe623 Fe 0.57484 0.68745 0.63117 0.0
O624 O 0.54938 0.66476 0.55962 0.0
O625 O 0.63651 0.66456 0.51957 0.0
O626 O 0.66086 0.5613 0.55137 0.0
C627 C 0.66217 0.5165 0.58338 0.0
C628 C 0.67722 0.74925 0.5981 0.0
O629 O 0.6608 0.5213 0.63852 0.0
C630 C 0.59618 0.68085 0.74754 0.0
O631 O 0.74075 0.60114 0.62397 0.0
O632 O 0.70066 0.60117 0.71109 0.0
O633 O 0.62207 0.74455 0.59946 0.0
O634 O 0.70915 0.7044 0.59943 0.0
C635 C 0.51277 0.58523 0.66416 0.0
O636 O 0.59742 0.62571 0.74276 0.0
O637 O 0.59759 0.71285 0.70273 0.0
C638 C 0.74549 0.59985 0.67912 0.0
O639 O 0.55754 0.55317 0.66285 0.0
O640 O 0.51762 0.64036 0.66286 0.0
C641 C 0.58137 0.66599 0.51481 0.0
Fe642 Fe 0.43411 0.32925 0.38155 0.0
Fe643 Fe 0.37961 0.43804 0.32701 0.0
O644 O 0.37964 0.38365 0.38149 0.0
Fe645 Fe 0.32516 0.38362 0.43588 0.0
O646 O 0.29982 0.31203 0.41318 0.0
O647 O 0.38698 0.27207 0.41324 0.0
O648 O 0.41143 0.30376 0.31 0.0
C649 C 0.41267 0.33571 0.26516 0.0
C650 C 0.42745 0.35059 0.4979 0.0
O651 O 0.41136 0.39086 0.26989 0.0
C652 C 0.34641 0.50001 0.42925 0.0
O653 O 0.49123 0.37643 0.34984 0.0
O654 O 0.45114 0.46355 0.34972 0.0
O655 O 0.37231 0.35199 0.49309 0.0
O656 O 0.45948 0.35201 0.45311 0.0
C657 C 0.26326 0.4164 0.33352 0.0
O658 O 0.34782 0.49521 0.37411 0.0
O659 O 0.34778 0.45523 0.46128 0.0
C660 C 0.49597 0.43157 0.34839 0.0
O661 O 0.30809 0.41522 0.30156 0.0
O662 O 0.268 0.41521 0.38866 0.0
C663 C 0.33185 0.26725 0.41448 0.0
loop_
_geom_bond_atom_site_label_1
_geom_bond_atom_site_label_2
_geom_bond_distance
_geom_bond_site_symmetry_2
_ccdc_geom_bond_type
In0 O1 2.294 . S
In0 O2 2.326 1_455 S
In0 O6 2.266 . S
In0 O7 2.326 1_455 S
In0 O8 2.266 1_455 S
In0 O9 2.326 . S
In0 O11 2.294 1_455 S
In0 O12 2.326 . S
O1 In0 2.294 . S
O1 C10 1.240 . S
O2 In0 2.326 1_655 S
O2 C10 1.252 1_655 S
C3 O6 1.252 . S
C3 O7 1.260 1_455 S
C4 O11 1.240 . S
C4 O12 1.252 1_655 S
C5 O8 1.252 . S
C5 O9 1.260 1_655 S
O6 In0 2.266 . S
O6 C3 1.252 . S
O7 In0 2.326 1_655 S
O7 C3 1.260 1_655 S
O8 In0 2.266 1_655 S
O8 C5 1.252 . S
O9 In0 2.326 . S
O9 C5 1.260 1_455 S
C10 O1 1.240 . S
C10 O2 1.252 1_455 S
O11 In0 2.294 1_655 S
O11 C4 1.240 . S
O12 In0 2.326 . S
O12 C4 1.252 1_455 S
In13 O14 2.294 1_455 S
In13 O15 2.326 1_455 S
In13 O19 2.266 . S
In13 O20 2.326 . S
In13 O21 2.266 1_455 S
In13 O22 2.326 1_455 S
In13 O24 2.294 . S
In13 O25 2.326 . S
O14 In13 2.294 1_655 S
O14 C23 1.240 . S
O15 In13 2.326 1_655 S
O15 C23 1.252 . S
C16 O19 1.252 . S
C16 O20 1.260 . S
C17 O24 1.240 . S
C17 O25 1.252 . S
C18 O21 1.252 . S
C18 O22 1.260 . S
O19 In13 2.266 . S
O19 C16 1.252 . S
O20 In13 2.326 . S
O20 C16 1.260 . S
O21 In13 2.266 1_655 S
O21 C18 1.252 . S
O22 In13 2.326 1_655 S
O22 C18 1.260 . S
C23 O14 1.240 . S
C23 O15 1.252 . S
O24 In13 2.294 . S
O24 C17 1.240 . S
O25 In13 2.326 . S
O25 C17 1.252 . S
In26 O27 2.294 . S
In26 O28 2.326 . S
In26 O32 2.266 . S
In26 O33 2.326 . S
In26 O34 2.266 . S
In26 O35 2.326 . S
In26 O37 2.294 . S
In26 O38 2.326 . S
O27 In26 2.294 . S
O27 C36 1.240 . S
O28 In26 2.326 . S
O28 C36 1.252 . S
C29 O32 1.252 . S
C29 O33 1.260 . S
C30 O37 1.240 . S
C30 O38 1.252 . S
C31 O34 1.252 . S
C31 O35 1.260 . S
O32 In26 2.266 . S
O32 C29 1.252 . S
O33 In26 2.326 . S
O33 C29 1.260 . S
O34 In26 2.266 . S
O34 C31 1.252 . S
O35 In26 2.326 . S
O35 C31 1.260 . S
C36 O27 1.240 . S
C36 O28 1.252 . S
O37 In26 2.294 . S
O37 C30 1.240 . S
O38 In26 2.326 . S
O38 C30 1.252 . S
In39 O40 2.294 . S
In39 O41 2.326 . S
In39 O45 2.266 . S
In39 O46 2.326 . S
In39 O47 2.266 . S
In39 O48 2.326 . S
In39 O50 2.294 . S
In39 O51 2.326 . S
O40 In39 2.294 . S
O40 C49 1.240 . S
O41 In39 2.326 . S
O41 C49 1.252 . S
C42 O45 1.252 . S
C42 O46 1.260 . S
C43 O50 1.240 . S
C43 O51 1.252 . S
C44 O47 1.252 . S
C44 O48 1.260 . S
O45 In39 2.266 . S
O45 C42 1.252 . S
O46 In39 2.326 . S
O46 C42 1.260 . S
O47 In39 2.266 . S
O47 C44 1.252 . S
O48 In39 2.326 . S
O48 C44 1.260 . S
C49 O40 1.240 . S
C49 O41 1.252 . S
O50 In39 2.294 . S
O50 C43 1.240 . S
O51 In39 2.326 . S
O51 C43 1.252 . S
In52 O53 2.294 1_455 S
In52 O54 2.326 . S
In52 O58 2.266 1_455 S
In52 O59 2.326 . S
In52 O60 2.266 . S
In52 O61 2.326 1_455 S
In52 O63 2.294 . S
In52 O64 2.326 1_455 S
O53 In52 2.294 1_655 S
O53 C62 1.240 . S
O54 In52 2.326 . S
O54 C62 1.252 1_455 S
C55 O58 1.252 . S
C55 O59 1.260 1_655 S
C56 O63 1.240 . S
C56 O64 1.252 1_455 S
C57 O60 1.252 . S
C57 O61 1.260 1_455 S
O58 In52 2.266 1_655 S
O58 C55 1.252 . S
O59 In52 2.326 . S
O59 C55 1.260 1_455 S
O60 In52 2.266 . S
O60 C57 1.252 . S
O61 In52 2.326 1_655 S
O61 C57 1.260 1_655 S
C62 O53 1.240 . S
C62 O54 1.252 1_655 S
O63 In52 2.294 . S
O63 C56 1.240 . S
O64 In52 2.326 1_655 S
O64 C56 1.252 1_655 S
In65 O66 2.294 . S
In65 O67 2.326 . S
In65 O71 2.266 . S
In65 O72 2.326 . S
In65 O73 2.266 . S
In65 O74 2.326 . S
In65 O76 2.294 . S
In65 O77 2.326 . S
O66 In65 2.294 . S
O66 C75 1.240 . S
O67 In65 2.326 . S
O67 C75 1.252 . S
C68 O71 1.252 . S
C68 O72 1.260 . S
C69 O76 1.240 . S
C69 O77 1.252 . S
C70 O73 1.252 . S
C70 O74 1.260 . S
O71 In65 2.266 . S
O71 C68 1.252 . S
O72 In65 2.326 . S
O72 C68 1.260 . S
O73 In65 2.266 . S
O73 C70 1.252 . S
O74 In65 2.326 . S
O74 C70 1.260 . S
C75 O66 1.240 . S
C75 O67 1.252 . S
O76 In65 2.294 . S
O76 C69 1.240 . S
O77 In65 2.326 . S
O77 C69 1.252 . S
In78 O79 2.294 . S
In78 O80 2.326 . S
In78 O84 2.266 . S
In78 O85 2.326 . S
In78 O86 2.266 . S
In78 O87 2.326 . S
In78 O89 2.294 . S
In78 O90 2.326 . S
O79 In78 2.294 . S
O79 C88 1.240 . S
O80 In78 2.326 . S
O80 C88 1.252 . S
C81 O84 1.252 . S
C81 O85 1.260 . S
C82 O89 1.240 . S
C82 O90 1.252 . S
C83 O86 1.252 . S
C83 O87 1.260 . S
O84 In78 2.266 . S
O84 C81 1.252 . S
O85 In78 2.326 . S
O85 C81 1.260 . S
O86 In78 2.266 . S
O86 C83 1.252 . S
O87 In78 2.326 . S
O87 C83 1.260 . S
C88 O79 1.240 . S
C88 O80 1.252 . S
O89 In78 2.294 . S
O89 C82 1.240 . S
O90 In78 2.326 . S
O90 C82 1.252 . S
In91 O92 2.299 . S
In91 O93 2.335 . S
In91 O97 2.261 1_455 S
In91 O98 2.317 1_455 S
In91 O99 2.271 . S
In91 O100 2.335 . S
In91 O102 2.289 1_455 S
In91 O103 2.318 1_455 S
O92 In91 2.299 . S
O92 C101 1.240 . S
O93 In91 2.335 . S
O93 C101 1.252 . S
C94 O97 1.252 . S
C94 O98 1.260 . S
C95 O102 1.240 . S
C95 O103 1.252 . S
C96 O99 1.252 . S
C96 O100 1.260 . S
O97 In91 2.261 1_655 S
O97 C94 1.252 . S
O98 In91 2.317 1_655 S
O98 C94 1.260 . S
O99 In91 2.271 . S
O99 C96 1.252 . S
O100 In91 2.335 . S
O100 C96 1.260 . S
C101 O92 1.240 . S
C101 O93 1.252 . S
O102 In91 2.289 1_655 S
O102 C95 1.240 . S
O103 In91 2.318 1_655 S
O103 C95 1.252 . S
In104 O105 2.294 1_545 S
In104 O106 2.326 . S
In104 O110 2.266 1_545 S
In104 O111 2.326 . S
In104 O112 2.266 . S
In104 O113 2.326 1_545 S
In104 O115 2.294 . S
In104 O116 2.326 1_545 S
O105 In104 2.294 1_565 S
O105 C114 1.240 . S
O106 In104 2.326 . S
O106 C114 1.252 1_545 S
C107 O110 1.252 . S
C107 O111 1.260 1_565 S
C108 O115 1.240 . S
C108 O116 1.252 1_545 S
C109 O112 1.252 . S
C109 O113 1.260 1_545 S
O110 In104 2.266 1_565 S
O110 C107 1.252 . S
O111 In104 2.326 . S
O111 C107 1.260 1_545 S
O112 In104 2.266 . S
O112 C109 1.252 . S
O113 In104 2.326 1_565 S
O113 C109 1.260 1_565 S
C114 O105 1.240 . S
C114 O106 1.252 1_565 S
O115 In104 2.294 . S
O115 C108 1.240 . S
O116 In104 2.326 1_565 S
O116 C108 1.252 1_565 S
In117 O118 2.294 . S
In117 O119 2.326 . S
In117 O123 2.266 . S
In117 O124 2.326 . S
In117 O125 2.266 . S
In117 O126 2.326 . S
In117 O128 2.294 . S
In117 O129 2.326 . S
O118 In117 2.294 . S
O118 C127 1.240 . S
O119 In117 2.326 . S
O119 C127 1.252 . S
C120 O123 1.252 . S
C120 O124 1.260 . S
C121 O128 1.240 . S
C121 O129 1.252 . S
C122 O125 1.252 . S
C122 O126 1.260 . S
O123 In117 2.266 . S
O123 C120 1.252 . S
O124 In117 2.326 . S
O124 C120 1.260 . S
O125 In117 2.266 . S
O125 C122 1.252 . S
O126 In117 2.326 . S
O126 C122 1.260 . S
C127 O118 1.240 . S
C127 O119 1.252 . S
O128 In117 2.294 . S
O128 C121 1.240 . S
O129 In117 2.326 . S
O129 C121 1.252 . S
In130 O131 2.294 1_545 S
In130 O132 2.326 . S
In130 O136 2.266 1_545 S
In130 O137 2.326 . S
In130 O138 2.266 . S
In130 O139 2.326 1_545 S
In130 O141 2.294 . S
In130 O142 2.326 1_545 S
O131 In130 2.294 1_565 S
O131 C140 1.240 . S
O132 In130 2.326 . S
O132 C140 1.252 1_545 S
C133 O136 1.252 . S
C133 O137 1.260 1_565 S
C134 O141 1.240 . S
C134 O142 1.252 1_545 S
C135 O138 1.252 . S
C135 O139 1.260 1_545 S
O136 In130 2.266 1_565 S
O136 C133 1.252 . S
O137 In130 2.326 . S
O137 C133 1.260 1_545 S
O138 In130 2.266 . S
O138 C135 1.252 . S
O139 In130 2.326 1_565 S
O139 C135 1.260 1_565 S
C140 O131 1.240 . S
C140 O132 1.252 1_565 S
O141 In130 2.294 . S
O141 C134 1.240 . S
O142 In130 2.326 1_565 S
O142 C134 1.252 1_565 S
In143 O144 2.294 . S
In143 O145 2.326 . S
In143 O149 2.266 1_554 S
In143 O150 2.326 1_554 S
In143 O151 2.266 . S
In143 O152 2.326 . S
In143 O154 2.294 1_554 S
In143 O155 2.326 1_554 S
O144 In143 2.294 . S
O144 C153 1.240 . S
O145 In143 2.326 . S
O145 C153 1.252 . S
C146 O149 1.252 . S
C146 O150 1.260 . S
C147 O154 1.240 . S
C147 O155 1.252 . S
C148 O151 1.252 . S
C148 O152 1.260 . S
O149 In143 2.266 1_556 S
O149 C146 1.252 . S
O150 In143 2.326 1_556 S
O150 C146 1.260 . S
O151 In143 2.266 . S
O151 C148 1.252 . S
O152 In143 2.326 . S
O152 C148 1.260 . S
C153 O144 1.240 . S
C153 O145 1.252 . S
O154 In143 2.294 1_556 S
O154 C147 1.240 . S
O155 In143 2.326 1_556 S
O155 C147 1.252 . S
In156 O157 2.282 1_554 S
In156 O158 2.328 . S
In156 O162 2.254 1_554 S
In156 O163 2.327 . S
In156 O164 2.278 . S
In156 O165 2.324 1_554 S
In156 O167 2.306 . S
In156 O168 2.325 1_554 S
O157 In156 2.282 1_556 S
O157 C166 1.240 . S
O158 In156 2.328 . S
O158 C166 1.252 1_554 S
C159 O162 1.252 . S
C159 O163 1.260 1_556 S
C160 O167 1.240 . S
C160 O168 1.252 1_554 S
C161 O164 1.252 . S
C161 O165 1.260 1_554 S
O162 In156 2.254 1_556 S
O162 C159 1.252 . S
O163 In156 2.327 . S
O163 C159 1.260 1_554 S
O164 In156 2.278 . S
O164 C161 1.252 . S
O165 In156 2.324 1_556 S
O165 C161 1.260 1_556 S
C166 O157 1.240 . S
C166 O158 1.252 1_556 S
O167 In156 2.306 . S
O167 C160 1.240 . S
O168 In156 2.325 1_556 S
O168 C160 1.252 1_556 S
In169 O170 2.298 . S
In169 O171 2.326 1_554 S
In169 O175 2.270 . S
In169 O176 2.325 1_554 S
In169 O177 2.262 1_554 S
In169 O178 2.326 . S
In169 O180 2.290 1_554 S
In169 O181 2.327 . S
O170 In169 2.298 . S
O170 C179 1.240 . S
O171 In169 2.326 1_556 S
O171 C179 1.252 1_556 S
C172 O175 1.252 . S
C172 O176 1.260 1_554 S
C173 O180 1.240 . S
C173 O181 1.252 1_556 S
C174 O177 1.252 . S
C174 O178 1.260 1_556 S
O175 In169 2.270 . S
O175 C172 1.252 . S
O176 In169 2.325 1_556 S
O176 C172 1.260 1_556 S
O177 In169 2.262 1_556 S
O177 C174 1.252 . S
O178 In169 2.326 . S
O178 C174 1.260 1_554 S
C179 O170 1.240 . S
C179 O171 1.252 1_554 S
O180 In169 2.290 1_556 S
O180 C173 1.240 . S
O181 In169 2.327 . S
O181 C173 1.252 1_554 S
In182 O183 2.294 . S
In182 O184 2.326 . S
In182 O188 2.266 . S
In182 O189 2.326 . S
In182 O190 2.266 . S
In182 O191 2.326 . S
In182 O193 2.294 . S
In182 O194 2.326 . S
O183 In182 2.294 . S
O183 C192 1.240 . S
O184 In182 2.326 . S
O184 C192 1.252 . S
C185 O188 1.252 . S
C185 O189 1.260 . S
C186 O193 1.240 . S
C186 O194 1.252 . S
C187 O190 1.252 . S
C187 O191 1.260 . S
O188 In182 2.266 . S
O188 C185 1.252 . S
O189 In182 2.326 . S
O189 C185 1.260 . S
O190 In182 2.266 . S
O190 C187 1.252 . S
O191 In182 2.326 . S
O191 C187 1.260 . S
C192 O183 1.240 . S
C192 O184 1.252 . S
O193 In182 2.294 . S
O193 C186 1.240 . S
O194 In182 2.326 . S
O194 C186 1.252 . S
In195 O196 2.294 . S
In195 O197 2.326 . S
In195 O201 2.266 . S
In195 O202 2.326 . S
In195 O203 2.266 . S
In195 O204 2.326 . S
In195 O206 2.294 . S
In195 O207 2.326 . S
O196 In195 2.294 . S
O196 C205 1.240 . S
O197 In195 2.326 . S
O197 C205 1.252 . S
C198 O201 1.252 . S
C198 O202 1.260 . S
C199 O206 1.240 . S
C199 O207 1.252 . S
C200 O203 1.252 . S
C200 O204 1.260 . S
O201 In195 2.266 . S
O201 C198 1.252 . S
O202 In195 2.326 . S
O202 C198 1.260 . S
O203 In195 2.266 . S
O203 C200 1.252 . S
O204 In195 2.326 . S
O204 C200 1.260 . S
C205 O196 1.240 . S
C205 O197 1.252 . S
O206 In195 2.294 . S
O206 C199 1.240 . S
O207 In195 2.326 . S
O207 C199 1.252 . S
In208 O209 2.294 1_545 S
In208 O210 2.326 1_545 S
In208 O214 2.266 . S
In208 O215 2.326 . S
In208 O216 2.266 1_545 S
In208 O217 2.326 1_545 S
In208 O219 2.294 . S
In208 O220 2.326 . S
O209 In208 2.294 1_565 S
O209 C218 1.240 . S
O210 In208 2.326 1_565 S
O210 C218 1.252 . S
C211 O214 1.252 . S
C211 O215 1.260 . S
C212 O219 1.240 . S
C212 O220 1.252 . S
C213 O216 1.252 . S
C213 O217 1.260 . S
O214 In208 2.266 . S
O214 C211 1.252 . S
O215 In208 2.326 . S
O215 C211 1.260 . S
O216 In208 2.266 1_565 S
O216 C213 1.252 . S
O217 In208 2.326 1_565 S
O217 C213 1.260 . S
C218 O209 1.240 . S
C218 O210 1.252 . S
O219 In208 2.294 . S
O219 C212 1.240 . S
O220 In208 2.326 . S
O220 C212 1.252 . S
In221 O222 2.294 . S
In221 O223 2.326 . S
In221 O227 2.266 . S
In221 O228 2.326 . S
In221 O229 2.266 . S
In221 O230 2.326 . S
In221 O232 2.294 . S
In221 O233 2.326 . S
O222 In221 2.294 . S
O222 C231 1.240 . S
O223 In221 2.326 . S
O223 C231 1.252 . S
C224 O227 1.252 . S
C224 O228 1.260 . S
C225 O232 1.240 . S
C225 O233 1.252 . S
C226 O229 1.252 . S
C226 O230 1.260 . S
O227 In221 2.266 . S
O227 C224 1.252 . S
O228 In221 2.326 . S
O228 C224 1.260 . S
O229 In221 2.266 . S
O229 C226 1.252 . S
O230 In221 2.326 . S
O230 C226 1.260 . S
C231 O222 1.240 . S
C231 O223 1.252 . S
O232 In221 2.294 . S
O232 C225 1.240 . S
O233 In221 2.326 . S
O233 C225 1.252 . S
In234 O235 2.294 . S
In234 O236 2.326 . S
In234 O240 2.266 . S
In234 O241 2.326 . S
In234 O242 2.266 . S
In234 O243 2.326 . S
In234 O245 2.294 . S
In234 O246 2.326 . S
O235 In234 2.294 . S
O235 C244 1.240 . S
O236 In234 2.326 . S
O236 C244 1.252 . S
C237 O240 1.252 . S
C237 O241 1.260 . S
C238 O245 1.240 . S
C238 O246 1.252 . S
C239 O242 1.252 . S
C239 O243 1.260 . S
O240 In234 2.266 . S
O240 C237 1.252 . S
O241 In234 2.326 . S
O241 C237 1.260 . S
O242 In234 2.266 . S
O242 C239 1.252 . S
O243 In234 2.326 . S
O243 C239 1.260 . S
C244 O235 1.240 . S
C244 O236 1.252 . S
O245 In234 2.294 . S
O245 C238 1.240 . S
O246 In234 2.326 . S
O246 C238 1.252 . S
In247 O248 2.294 1_545 S
In247 O249 2.326 1_545 S
In247 O253 2.266 . S
In247 O254 2.326 . S
In247 O255 2.266 1_545 S
In247 O256 2.326 1_545 S
In247 O258 2.294 . S
In247 O259 2.326 . S
O248 In247 2.294 1_565 S
O248 C257 1.240 . S
O249 In247 2.326 1_565 S
O249 C257 1.252 . S
C250 O253 1.252 . S
C250 O254 1.260 . S
C251 O258 1.240 . S
C251 O259 1.252 . S
C252 O255 1.252 . S
C252 O256 1.260 . S
O253 In247 2.266 . S
O253 C250 1.252 . S
O254 In247 2.326 . S
O254 C250 1.260 . S
O255 In247 2.266 1_565 S
O255 C252 1.252 . S
O256 In247 2.326 1_565 S
O256 C252 1.260 . S
C257 O248 1.240 . S
C257 O249 1.252 . S
O258 In247 2.294 . S
O258 C251 1.240 . S
O259 In247 2.326 . S
O259 C251 1.252 . S
In260 O261 2.294 . S
In260 O262 2.326 . S
In260 O266 2.266 1_554 S
In260 O267 2.326 1_554 S
In260 O268 2.266 . S
In260 O269 2.326 . S
In260 O271 2.294 1_554 S
In260 O272 2.326 1_554 S
O261 In260 2.294 . S
O261 C270 1.240 . S
O262 In260 2.326 . S
O262 C270 1.252 . S
C263 O266 1.252 . S
C263 O267 1.260 . S
C264 O271 1.240 . S
C264 O272 1.252 . S
C265 O268 1.252 . S
C265 O269 1.260 . S
O266 In260 2.266 1_556 S
O266 C263 1.252 . S
O267 In260 2.326 1_556 S
O267 C263 1.260 . S
O268 In260 2.266 . S
O268 C265 1.252 . S
O269 In260 2.326 . S
O269 C265 1.260 . S
C270 O261 1.240 . S
C270 O262 1.252 . S
O271 In260 2.294 1_556 S
O271 C264 1.240 . S
O272 In260 2.326 1_556 S
O272 C264 1.252 . S
In273 O274 2.294 . S
In273 O275 2.326 . S
In273 O279 2.266 . S
In273 O280 2.326 . S
In273 O281 2.266 . S
In273 O282 2.326 . S
In273 O284 2.294 . S
In273 O285 2.326 . S
O274 In273 2.294 . S
O274 C283 1.240 . S
O275 In273 2.326 . S
O275 C283 1.252 . S
C276 O279 1.252 . S
C276 O280 1.260 . S
C277 O284 1.240 . S
C277 O285 1.252 . S
C278 O281 1.252 . S
C278 O282 1.260 . S
O279 In273 2.266 . S
O279 C276 1.252 . S
O280 In273 2.326 . S
O280 C276 1.260 . S
O281 In273 2.266 . S
O281 C278 1.252 . S
O282 In273 2.326 . S
O282 C278 1.260 . S
C283 O274 1.240 . S
C283 O275 1.252 . S
O284 In273 2.294 . S
O284 C277 1.240 . S
O285 In273 2.326 . S
O285 C277 1.252 . S
In286 O287 2.294 . S
In286 O288 2.326 . S
In286 O292 2.266 . S
In286 O293 2.326 . S
In286 O294 2.266 . S
In286 O295 2.326 . S
In286 O297 2.294 . S
In286 O298 2.326 . S
O287 In286 2.294 . S
O287 C296 1.240 . S
O288 In286 2.326 . S
O288 C296 1.252 . S
C289 O292 1.252 . S
C289 O293 1.260 . S
C290 O297 1.240 . S
C290 O298 1.252 . S
C291 O294 1.252 . S
C291 O295 1.260 . S
O292 In286 2.266 . S
O292 C289 1.252 . S
O293 In286 2.326 . S
O293 C289 1.260 . S
O294 In286 2.266 . S
O294 C291 1.252 . S
O295 In286 2.326 . S
O295 C291 1.260 . S
C296 O287 1.240 . S
C296 O288 1.252 . S
O297 In286 2.294 . S
O297 C290 1.240 . S
O298 In286 2.326 . S
O298 C290 1.252 . S
In299 O300 2.294 . S
In299 O301 2.326 . S
In299 O305 2.266 . S
In299 O306 2.326 . S
In299 O307 2.266 . S
In299 O308 2.326 . S
In299 O310 2.294 . S
In299 O311 2.326 . S
O300 In299 2.294 . S
O300 C309 1.240 . S
O301 In299 2.326 . S
O301 C309 1.252 . S
C302 O305 1.252 . S
C302 O306 1.260 . S
C303 O310 1.240 . S
C303 O311 1.252 . S
C304 O307 1.252 . S
C304 O308 1.260 . S
O305 In299 2.266 . S
O305 C302 1.252 . S
O306 In299 2.326 . S
O306 C302 1.260 . S
O307 In299 2.266 . S
O307 C304 1.252 . S
O308 In299 2.326 . S
O308 C304 1.260 . S
C309 O300 1.240 . S
C309 O301 1.252 . S
O310 In299 2.294 . S
O310 C303 1.240 . S
O311 In299 2.326 . S
O311 C303 1.252 . S
Fe312 O314 1.918 . S
Fe312 O317 1.997 . S
Fe312 O318 2.002 . S
Fe312 O323 1.976 . S
Fe312 O326 1.996 . S
Fe313 O314 1.918 . S
Fe313 O321 1.997 . S
Fe313 O324 1.996 . S
Fe313 O328 1.976 . S
Fe313 O331 2.002 . S
O314 Fe312 1.918 . S
O314 Fe313 1.918 . S
O314 Fe315 1.918 . S
Fe315 O314 1.918 . S
Fe315 O316 2.002 . S
Fe315 O325 1.976 . S
Fe315 O329 1.996 . S
Fe315 O332 1.997 . S
O316 Fe315 2.002 . S
O316 C333 1.295 . S
O317 Fe312 1.997 . S
O317 C333 1.235 . S
O318 Fe312 2.002 . S
O318 C319 1.294 1_455 S
C319 O318 1.294 1_655 S
C319 O321 1.235 1_655 S
C320 O325 1.287 . S
C320 O326 1.255 . S
O321 Fe313 1.997 . S
O321 C319 1.235 1_455 S
C322 O328 1.287 . S
C322 O329 1.255 . S
O323 Fe312 1.976 . S
O323 C330 1.287 . S
O324 Fe313 1.996 . S
O324 C330 1.255 . S
O325 Fe315 1.976 . S
O325 C320 1.287 . S
O326 Fe312 1.996 . S
O326 C320 1.255 . S
C327 O331 1.295 . S
C327 O332 1.235 . S
O328 Fe313 1.976 . S
O328 C322 1.287 . S
O329 Fe315 1.996 . S
O329 C322 1.255 . S
C330 O323 1.287 . S
C330 O324 1.255 . S
O331 Fe313 2.002 . S
O331 C327 1.295 . S
O332 Fe315 1.997 . S
O332 C327 1.235 . S
C333 O316 1.295 . S
C333 O317 1.235 . S
Fe334 O336 1.918 . S
Fe334 O339 1.997 . S
Fe334 O340 2.002 . S
Fe334 O345 1.976 . S
Fe334 O348 1.996 . S
Fe335 O336 1.918 . S
Fe335 O343 1.997 . S
Fe335 O346 1.996 . S
Fe335 O350 1.976 1_565 S
Fe335 O353 2.002 . S
O336 Fe334 1.918 . S
O336 Fe335 1.918 . S
O336 Fe337 1.918 . S
Fe337 O336 1.918 . S
Fe337 O338 2.002 . S
Fe337 O347 1.976 . S
Fe337 O351 1.996 . S
Fe337 O354 1.997 . S
O338 Fe337 2.002 . S
O338 C355 1.295 . S
O339 Fe334 1.997 . S
O339 C355 1.235 . S
O340 Fe334 2.002 . S
O340 C341 1.295 . S
C341 O340 1.295 . S
C341 O343 1.235 . S
C342 O347 1.287 . S
C342 O348 1.255 . S
O343 Fe335 1.997 . S
O343 C341 1.235 . S
C344 O350 1.287 . S
C344 O351 1.255 1_545 S
O345 Fe334 1.976 . S
O345 C352 1.287 1_455 S
O346 Fe335 1.996 . S
O346 C352 1.255 1_455 S
O347 Fe337 1.976 . S
O347 C342 1.287 . S
O348 Fe334 1.996 . S
O348 C342 1.255 . S
C349 O353 1.295 . S
C349 O354 1.235 . S
O350 Fe335 1.976 1_545 S
O350 C344 1.287 . S
O351 Fe337 1.996 . S
O351 C344 1.255 1_565 S
C352 O345 1.287 1_655 S
C352 O346 1.255 1_655 S
O353 Fe335 2.002 . S
O353 C349 1.295 . S
O354 Fe337 1.997 . S
O354 C349 1.235 . S
C355 O338 1.295 . S
C355 O339 1.235 . S
Fe356 O358 1.918 . S
Fe356 O361 1.997 . S
Fe356 O362 2.002 . S
Fe356 O367 1.976 1_565 S
Fe356 O370 1.996 . S
Fe357 O358 1.918 . S
Fe357 O365 1.997 . S
Fe357 O368 1.996 . S
Fe357 O372 1.976 . S
Fe357 O375 2.002 . S
O358 Fe356 1.918 . S
O358 Fe357 1.918 . S
O358 Fe359 1.918 . S
Fe359 O358 1.918 . S
Fe359 O360 2.002 . S
Fe359 O369 1.976 . S
Fe359 O373 1.996 . S
Fe359 O376 1.997 . S
O360 Fe359 2.002 . S
O360 C377 1.295 . S
O361 Fe356 1.997 . S
O361 C377 1.235 . S
O362 Fe356 2.002 . S
O362 C363 1.295 . S
C363 O362 1.295 . S
C363 O365 1.235 . S
C364 O369 1.287 . S
C364 O370 1.255 . S
O365 Fe357 1.997 . S
O365 C363 1.235 . S
C366 O372 1.287 . S
C366 O373 1.255 . S
O367 Fe356 1.976 1_545 S
O367 C374 1.287 . S
O368 Fe357 1.996 . S
O368 C374 1.255 1_565 S
O369 Fe359 1.976 . S
O369 C364 1.287 . S
O370 Fe356 1.996 . S
O370 C364 1.255 . S
C371 O375 1.295 . S
C371 O376 1.235 . S
O372 Fe357 1.976 . S
O372 C366 1.287 . S
O373 Fe359 1.996 . S
O373 C366 1.255 . S
C374 O367 1.287 . S
C374 O368 1.255 1_545 S
O375 Fe357 2.002 . S
O375 C371 1.295 . S
O376 Fe359 1.997 . S
O376 C371 1.235 . S
C377 O360 1.295 . S
C377 O361 1.235 . S
Fe378 O380 1.918 . S
Fe378 O383 1.997 . S
Fe378 O384 2.002 . S
Fe378 O389 1.976 . S
Fe378 O392 1.996 . S
Fe379 O380 1.918 . S
Fe379 O387 1.997 . S
Fe379 O390 1.996 . S
Fe379 O394 1.976 . S
Fe379 O397 2.002 . S
O380 Fe378 1.918 . S
O380 Fe379 1.918 . S
O380 Fe381 1.918 . S
Fe381 O380 1.918 . S
Fe381 O382 2.002 . S
Fe381 O391 1.976 1_556 S
Fe381 O395 1.996 . S
Fe381 O398 1.997 . S
O382 Fe381 2.002 . S
O382 C399 1.295 . S
O383 Fe378 1.997 . S
O383 C399 1.235 . S
O384 Fe378 2.002 . S
O384 C385 1.295 . S
C385 O384 1.295 . S
C385 O387 1.235 . S
C386 O391 1.287 . S
C386 O392 1.255 1_554 S
O387 Fe379 1.997 . S
O387 C385 1.235 . S
C388 O394 1.287 . S
C388 O395 1.255 . S
O389 Fe378 1.976 . S
O389 C396 1.287 . S
O390 Fe379 1.996 . S
O390 C396 1.255 . S
O391 Fe381 1.976 1_554 S
O391 C386 1.287 . S
O392 Fe378 1.996 . S
O392 C386 1.255 1_556 S
C393 O397 1.295 . S
C393 O398 1.235 . S
O394 Fe379 1.976 . S
O394 C388 1.287 . S
O395 Fe381 1.996 . S
O395 C388 1.255 . S
C396 O389 1.287 . S
C396 O390 1.255 . S
O397 Fe379 2.002 . S
O397 C393 1.295 . S
O398 Fe381 1.997 . S
O398 C393 1.235 . S
C399 O382 1.295 . S
C399 O383 1.235 . S
Fe400 O402 1.918 . S
Fe400 O405 1.997 . S
Fe400 O406 2.002 . S
Fe400 O411 1.976 . S
Fe400 O414 1.996 . S
Fe401 O402 1.918 . S
Fe401 O409 1.997 . S
Fe401 O412 1.996 . S
Fe401 O416 1.976 . S
Fe401 O419 2.002 . S
O402 Fe400 1.918 . S
O402 Fe401 1.918 . S
O402 Fe403 1.918 . S
Fe403 O402 1.918 . S
Fe403 O404 2.002 . S
Fe403 O413 1.976 1_556 S
Fe403 O417 1.996 . S
Fe403 O420 1.997 . S
O404 Fe403 2.002 . S
O404 C421 1.295 . S
O405 Fe400 1.997 . S
O405 C421 1.235 . S
O406 Fe400 2.002 . S
O406 C407 1.295 . S
C407 O406 1.295 . S
C407 O409 1.235 . S
C408 O413 1.287 . S
C408 O414 1.255 1_554 S
O409 Fe401 1.997 . S
O409 C407 1.235 . S
C410 O416 1.287 . S
C410 O417 1.255 . S
O411 Fe400 1.976 . S
O411 C418 1.287 . S
O412 Fe401 1.996 . S
O412 C418 1.255 . S
O413 Fe403 1.976 1_554 S
O413 C408 1.287 . S
O414 Fe400 1.996 . S
O414 C408 1.255 1_556 S
C415 O419 1.295 . S
C415 O420 1.235 . S
O416 Fe401 1.976 . S
O416 C410 1.287 . S
O417 Fe403 1.996 . S
O417 C410 1.255 . S
C418 O411 1.287 . S
C418 O412 1.255 . S
O419 Fe401 2.002 . S
O419 C415 1.295 . S
O420 Fe403 1.997 . S
O420 C415 1.235 . S
C421 O404 1.295 . S
C421 O405 1.235 . S
Fe422 O424 1.918 . S
Fe422 O427 1.997 . S
Fe422 O428 2.002 . S
Fe422 O433 1.976 . S
Fe422 O436 1.996 . S
Fe423 O424 1.918 . S
Fe423 O431 1.997 . S
Fe423 O434 1.996 . S
Fe423 O438 1.976 . S
Fe423 O441 2.002 . S
O424 Fe422 1.918 . S
O424 Fe423 1.918 . S
O424 Fe425 1.918 . S
Fe425 O424 1.918 . S
Fe425 O426 2.002 . S
Fe425 O435 1.976 . S
Fe425 O439 1.996 . S
Fe425 O442 1.997 . S
O426 Fe425 2.002 . S
O426 C443 1.304 . S
O427 Fe422 1.997 . S
O427 C443 1.236 . S
O428 Fe422 2.002 . S
O428 C429 1.295 . S
C429 O428 1.295 . S
C429 O431 1.235 . S
C430 O435 1.287 . S
C430 O436 1.255 . S
O431 Fe423 1.997 . S
O431 C429 1.235 . S
C432 O438 1.287 . S
C432 O439 1.255 . S
O433 Fe422 1.976 . S
O433 C440 1.287 . S
O434 Fe423 1.996 . S
O434 C440 1.255 . S
O435 Fe425 1.976 . S
O435 C430 1.287 . S
O436 Fe422 1.996 . S
O436 C430 1.255 . S
C437 O441 1.295 1_455 S
C437 O442 1.235 1_455 S
O438 Fe423 1.976 . S
O438 C432 1.287 . S
O439 Fe425 1.996 . S
O439 C432 1.255 . S
C440 O433 1.287 . S
C440 O434 1.255 . S
O441 Fe423 2.002 . S
O441 C437 1.295 1_655 S
O442 Fe425 1.997 . S
O442 C437 1.235 1_655 S
C443 O426 1.304 . S
C443 O427 1.236 . S
Fe444 O446 1.918 . S
Fe444 O449 1.997 . S
Fe444 O450 2.002 . S
Fe444 O455 1.976 . S
Fe444 O458 1.996 . S
Fe445 O446 1.918 . S
Fe445 O453 1.997 . S
Fe445 O456 1.996 . S
Fe445 O460 1.969 1_655 S
Fe445 O463 2.002 . S
O446 Fe444 1.918 . S
O446 Fe445 1.918 . S
O446 Fe447 1.918 . S
Fe447 O446 1.918 . S
Fe447 O448 2.002 . S
Fe447 O457 1.976 . S
Fe447 O461 1.996 . S
Fe447 O464 1.997 . S
O448 Fe447 2.002 . S
O448 C465 1.295 . S
O449 Fe444 1.997 . S
O449 C465 1.235 . S
O450 Fe444 2.002 . S
O450 C451 1.295 . S
C451 O450 1.295 . S
C451 O453 1.235 . S
C452 O457 1.287 . S
C452 O458 1.255 . S
O453 Fe445 1.997 . S
O453 C451 1.235 . S
C454 O460 1.287 . S
C454 O461 1.255 1_455 S
O455 Fe444 1.976 . S
O455 C462 1.287 . S
O456 Fe445 1.996 . S
O456 C462 1.255 . S
O457 Fe447 1.976 . S
O457 C452 1.287 . S
O458 Fe444 1.996 . S
O458 C452 1.255 . S
C459 O463 1.295 . S
C459 O464 1.235 . S
O460 Fe445 1.969 1_455 S
O460 C454 1.287 . S
O461 Fe447 1.996 . S
O461 C454 1.255 1_655 S
C462 O455 1.287 . S
C462 O456 1.255 . S
O463 Fe445 2.002 . S
O463 C459 1.295 . S
O464 Fe447 1.997 . S
O464 C459 1.235 . S
C465 O448 1.295 . S
C465 O449 1.235 . S
Fe466 O468 1.918 . S
Fe466 O471 1.997 . S
Fe466 O472 2.002 . S
Fe466 O477 1.976 . S
Fe466 O480 1.996 . S
Fe467 O468 1.918 . S
Fe467 O475 2.007 . S
Fe467 O478 1.996 . S
Fe467 O482 1.976 . S
Fe467 O485 2.002 . S
O468 Fe466 1.918 . S
O468 Fe467 1.918 . S
O468 Fe469 1.918 . S
Fe469 O468 1.918 . S
Fe469 O470 2.002 . S
Fe469 O479 1.976 . S
Fe469 O483 1.996 . S
Fe469 O486 1.990 1_565 S
O470 Fe469 2.002 . S
O470 C487 1.295 1_655 S
O471 Fe466 1.997 . S
O471 C487 1.235 1_655 S
O472 Fe466 2.002 . S
O472 C473 1.295 1_556 S
C473 O472 1.295 1_554 S
C473 O475 1.234 1_554 S
C474 O479 1.287 . S
C474 O480 1.255 . S
O475 Fe467 2.007 . S
O475 C473 1.234 1_556 S
C476 O482 1.287 . S
C476 O483 1.255 . S
O477 Fe466 1.976 . S
O477 C484 1.287 . S
O478 Fe467 1.996 . S
O478 C484 1.255 . S
O479 Fe469 1.976 . S
O479 C474 1.287 . S
O480 Fe466 1.996 . S
O480 C474 1.255 . S
C481 O485 1.295 1_545 S
C481 O486 1.236 . S
O482 Fe467 1.976 . S
O482 C476 1.287 . S
O483 Fe469 1.996 . S
O483 C476 1.255 . S
C484 O477 1.287 . S
C484 O478 1.255 . S
O485 Fe467 2.002 . S
O485 C481 1.295 1_565 S
O486 Fe469 1.990 1_545 S
O486 C481 1.236 . S
C487 O470 1.295 1_455 S
C487 O471 1.235 1_455 S
Fe488 O490 1.918 . S
Fe488 O493 1.997 . S
Fe488 O494 2.002 . S
Fe488 O499 1.976 . S
Fe488 O502 1.996 . S
Fe489 O490 1.918 . S
Fe489 O497 1.997 . S
Fe489 O500 1.996 . S
Fe489 O504 1.976 . S
Fe489 O507 2.002 . S
O490 Fe488 1.918 . S
O490 Fe489 1.918 . S
O490 Fe491 1.918 . S
Fe491 O490 1.918 . S
Fe491 O492 2.002 . S
Fe491 O501 1.969 1_655 S
Fe491 O505 1.996 . S
Fe491 O508 1.997 . S
O492 Fe491 2.002 . S
O492 C509 1.295 . S
O493 Fe488 1.997 . S
O493 C509 1.235 . S
O494 Fe488 2.002 . S
O494 C495 1.295 . S
C495 O494 1.295 . S
C495 O497 1.235 . S
C496 O501 1.287 . S
C496 O502 1.255 1_455 S
O497 Fe489 1.997 . S
O497 C495 1.235 . S
C498 O504 1.287 . S
C498 O505 1.255 . S
O499 Fe488 1.976 . S
O499 C506 1.287 . S
O500 Fe489 1.996 . S
O500 C506 1.255 . S
O501 Fe491 1.969 1_455 S
O501 C496 1.287 . S
O502 Fe488 1.996 . S
O502 C496 1.255 1_655 S
C503 O507 1.295 . S
C503 O508 1.235 . S
O504 Fe489 1.976 . S
O504 C498 1.287 . S
O505 Fe491 1.996 . S
O505 C498 1.255 . S
C506 O499 1.287 . S
C506 O500 1.255 . S
O507 Fe489 2.002 . S
O507 C503 1.295 . S
O508 Fe491 1.997 . S
O508 C503 1.235 . S
C509 O492 1.295 . S
C509 O493 1.235 . S
Fe510 O512 1.918 . S
Fe510 O515 1.997 . S
Fe510 O516 2.002 . S
Fe510 O521 1.976 . S
Fe510 O524 1.996 . S
Fe511 O512 1.918 . S
Fe511 O519 1.997 . S
Fe511 O522 1.996 . S
Fe511 O526 1.976 . S
Fe511 O529 2.002 . S
O512 Fe510 1.918 . S
O512 Fe511 1.918 . S
O512 Fe513 1.918 . S
Fe513 O512 1.918 . S
Fe513 O514 2.002 . S
Fe513 O523 1.976 . S
Fe513 O527 1.996 . S
Fe513 O530 1.997 . S
O514 Fe513 2.002 . S
O514 C531 1.295 . S
O515 Fe510 1.997 . S
O515 C531 1.235 . S
O516 Fe510 2.002 . S
O516 C517 1.295 . S
C517 O516 1.295 . S
C517 O519 1.235 . S
C518 O523 1.287 . S
C518 O524 1.255 . S
O519 Fe511 1.997 . S
O519 C517 1.235 . S
C520 O526 1.287 . S
C520 O527 1.255 . S
O521 Fe510 1.976 . S
O521 C528 1.287 . S
O522 Fe511 1.996 . S
O522 C528 1.256 . S
O523 Fe513 1.976 . S
O523 C518 1.287 . S
O524 Fe510 1.996 . S
O524 C518 1.255 . S
C525 O529 1.295 . S
C525 O530 1.235 . S
O526 Fe511 1.976 . S
O526 C520 1.287 . S
O527 Fe513 1.996 . S
O527 C520 1.255 . S
C528 O521 1.287 . S
C528 O522 1.256 . S
O529 Fe511 2.002 . S
O529 C525 1.295 . S
O530 Fe513 1.997 . S
O530 C525 1.235 . S
C531 O514 1.295 . S
C531 O515 1.235 . S
Fe532 O534 1.918 . S
Fe532 O537 1.997 . S
Fe532 O538 2.002 . S
Fe532 O543 1.976 . S
Fe532 O546 1.996 . S
Fe533 O534 1.918 . S
Fe533 O541 1.997 . S
Fe533 O544 1.996 . S
Fe533 O548 1.976 . S
Fe533 O551 2.002 . S
O534 Fe532 1.918 . S
O534 Fe533 1.918 . S
O534 Fe535 1.918 . S
Fe535 O534 1.918 . S
Fe535 O536 2.002 . S
Fe535 O545 1.976 . S
Fe535 O549 1.996 . S
Fe535 O552 2.004 . S
O536 Fe535 2.002 . S
O536 C553 1.295 . S
O537 Fe532 1.997 . S
O537 C553 1.235 . S
O538 Fe532 2.002 . S
O538 C539 1.295 . S
C539 O538 1.295 . S
C539 O541 1.235 . S
C540 O545 1.287 . S
C540 O546 1.255 . S
O541 Fe533 1.997 . S
O541 C539 1.235 . S
C542 O548 1.287 . S
C542 O549 1.255 . S
O543 Fe532 1.976 . S
O543 C550 1.287 . S
O544 Fe533 1.996 . S
O544 C550 1.255 . S
O545 Fe535 1.976 . S
O545 C540 1.287 . S
O546 Fe532 1.996 . S
O546 C540 1.255 . S
C547 O551 1.295 1_545 S
C547 O552 1.235 1_545 S
O548 Fe533 1.976 . S
O548 C542 1.287 . S
O549 Fe535 1.996 . S
O549 C542 1.255 . S
C550 O543 1.287 . S
C550 O544 1.255 . S
O551 Fe533 2.002 . S
O551 C547 1.295 1_565 S
O552 Fe535 2.004 . S
O552 C547 1.235 1_565 S
C553 O536 1.295 . S
C553 O537 1.235 . S
Fe554 O556 1.918 . S
Fe554 O559 1.997 . S
Fe554 O560 2.002 . S
Fe554 O565 1.976 . S
Fe554 O568 1.996 . S
Fe555 O556 1.918 . S
Fe555 O563 1.997 . S
Fe555 O566 1.996 . S
Fe555 O570 1.976 . S
Fe555 O573 2.002 . S
O556 Fe554 1.918 . S
O556 Fe555 1.918 . S
O556 Fe557 1.918 . S
Fe557 O556 1.918 . S
Fe557 O558 2.002 . S
Fe557 O567 1.976 . S
Fe557 O571 1.996 . S
Fe557 O574 1.997 . S
O558 Fe557 2.002 . S
O558 C575 1.295 . S
O559 Fe554 1.997 . S
O559 C575 1.235 . S
O560 Fe554 2.002 . S
O560 C561 1.295 . S
C561 O560 1.295 . S
C561 O563 1.235 . S
C562 O567 1.287 . S
C562 O568 1.255 . S
O563 Fe555 1.997 . S
O563 C561 1.235 . S
C564 O570 1.287 . S
C564 O571 1.255 . S
O565 Fe554 1.976 . S
O565 C572 1.287 . S
O566 Fe555 1.996 . S
O566 C572 1.255 . S
O567 Fe557 1.976 . S
O567 C562 1.287 . S
O568 Fe554 1.996 . S
O568 C562 1.255 . S
C569 O573 1.295 . S
C569 O574 1.235 . S
O570 Fe555 1.976 . S
O570 C564 1.287 . S
O571 Fe557 1.996 . S
O571 C564 1.255 . S
C572 O565 1.287 . S
C572 O566 1.255 . S
O573 Fe555 2.002 . S
O573 C569 1.295 . S
O574 Fe557 1.997 . S
O574 C569 1.235 . S
C575 O558 1.295 . S
C575 O559 1.235 . S
Fe576 O578 1.918 . S
Fe576 O581 1.997 . S
Fe576 O582 2.002 . S
Fe576 O587 1.976 . S
Fe576 O590 1.996 . S
Fe577 O578 1.918 . S
Fe577 O585 1.997 . S
Fe577 O588 1.996 . S
Fe577 O592 1.976 1_556 S
Fe577 O595 2.002 . S
O578 Fe576 1.918 . S
O578 Fe577 1.918 . S
O578 Fe579 1.918 . S
Fe579 O578 1.918 . S
Fe579 O580 2.002 . S
Fe579 O589 1.976 . S
Fe579 O593 1.996 . S
Fe579 O596 1.997 . S
O580 Fe579 2.002 . S
O580 C597 1.295 . S
O581 Fe576 1.997 . S
O581 C597 1.235 . S
O582 Fe576 2.002 . S
O582 C583 1.295 . S
C583 O582 1.295 . S
C583 O585 1.235 . S
C584 O589 1.287 1_655 S
C584 O590 1.255 1_655 S
O585 Fe577 1.997 . S
O585 C583 1.235 . S
C586 O592 1.287 . S
C586 O593 1.255 1_554 S
O587 Fe576 1.976 . S
O587 C594 1.287 . S
O588 Fe577 1.996 . S
O588 C594 1.255 . S
O589 Fe579 1.976 . S
O589 C584 1.287 1_455 S
O590 Fe576 1.996 . S
O590 C584 1.255 1_455 S
C591 O595 1.295 . S
C591 O596 1.235 . S
O592 Fe577 1.976 1_554 S
O592 C586 1.287 . S
O593 Fe579 1.996 . S
O593 C586 1.255 1_556 S
C594 O587 1.287 . S
C594 O588 1.255 . S
O595 Fe577 2.002 . S
O595 C591 1.295 . S
O596 Fe579 1.997 . S
O596 C591 1.235 . S
C597 O580 1.295 . S
C597 O581 1.235 . S
Fe598 O600 1.918 . S
Fe598 O603 1.997 . S
Fe598 O604 2.002 . S
Fe598 O609 1.976 . S
Fe598 O612 1.996 . S
Fe599 O600 1.918 . S
Fe599 O607 1.997 . S
Fe599 O610 1.996 . S
Fe599 O614 1.989 . S
Fe599 O617 2.002 . S
O600 Fe598 1.918 . S
O600 Fe599 1.918 . S
O600 Fe601 1.918 . S
Fe601 O600 1.918 . S
Fe601 O602 2.002 . S
Fe601 O611 1.976 . S
Fe601 O615 1.996 . S
Fe601 O618 1.997 . S
O602 Fe601 2.002 . S
O602 C619 1.295 . S
O603 Fe598 1.997 . S
O603 C619 1.235 . S
O604 Fe598 2.002 . S
O604 C605 1.295 . S
C605 O604 1.295 . S
C605 O607 1.235 . S
C606 O611 1.287 . S
C606 O612 1.255 . S
O607 Fe599 1.997 . S
O607 C605 1.235 . S
C608 O614 1.285 1_655 S
C608 O615 1.255 1_655 S
O609 Fe598 1.976 . S
O609 C616 1.287 . S
O610 Fe599 1.996 . S
O610 C616 1.255 . S
O611 Fe601 1.976 . S
O611 C606 1.287 . S
O612 Fe598 1.996 . S
O612 C606 1.255 . S
C613 O617 1.295 . S
C613 O618 1.235 . S
O614 Fe599 1.989 . S
O614 C608 1.285 1_455 S
O615 Fe601 1.996 . S
O615 C608 1.255 1_455 S
C616 O609 1.287 . S
C616 O610 1.255 . S
O617 Fe599 2.002 . S
O617 C613 1.295 . S
O618 Fe601 1.997 . S
O618 C613 1.235 . S
C619 O602 1.295 . S
C619 O603 1.235 . S
Fe620 O622 1.918 . S
Fe620 O625 1.997 . S
Fe620 O626 2.002 . S
Fe620 O631 1.976 . S
Fe620 O634 1.996 . S
Fe621 O622 1.918 . S
Fe621 O629 1.997 . S
Fe621 O632 1.996 . S
Fe621 O636 1.976 . S
Fe621 O639 2.002 . S
O622 Fe620 1.918 . S
O622 Fe621 1.918 . S
O622 Fe623 1.918 . S
Fe623 O622 1.918 . S
Fe623 O624 2.002 . S
Fe623 O633 1.976 . S
Fe623 O637 1.996 . S
Fe623 O640 1.997 . S
O624 Fe623 2.002 . S
O624 C641 1.295 . S
O625 Fe620 1.997 . S
O625 C641 1.235 . S
O626 Fe620 2.002 . S
O626 C627 1.295 . S
C627 O626 1.295 . S
C627 O629 1.235 . S
C628 O633 1.287 . S
C628 O634 1.255 . S
O629 Fe621 1.997 . S
O629 C627 1.235 . S
C630 O636 1.287 . S
C630 O637 1.255 . S
O631 Fe620 1.976 . S
O631 C638 1.287 . S
O632 Fe621 1.996 . S
O632 C638 1.255 . S
O633 Fe623 1.976 . S
O633 C628 1.287 . S
O634 Fe620 1.996 . S
O634 C628 1.255 . S
C635 O639 1.295 . S
C635 O640 1.235 . S
O636 Fe621 1.976 . S
O636 C630 1.287 . S
O637 Fe623 1.996 . S
O637 C630 1.255 . S
C638 O631 1.287 . S
C638 O632 1.255 . S
O639 Fe621 2.002 . S
O639 C635 1.295 . S
O640 Fe623 1.997 . S
O640 C635 1.235 . S
C641 O624 1.295 . S
C641 O625 1.235 . S
Fe642 O644 1.918 . S
Fe642 O647 1.997 . S
Fe642 O648 2.002 . S
Fe642 O653 1.976 . S
Fe642 O656 1.996 . S
Fe643 O644 1.918 . S
Fe643 O651 1.997 . S
Fe643 O654 1.996 . S
Fe643 O658 1.976 . S
Fe643 O661 2.002 . S
O644 Fe642 1.918 . S
O644 Fe643 1.918 . S
O644 Fe645 1.918 . S
Fe645 O644 1.918 . S
Fe645 O646 2.002 . S
Fe645 O655 1.976 . S
Fe645 O659 1.996 . S
Fe645 O662 1.997 . S
O646 Fe645 2.002 . S
O646 C663 1.295 . S
O647 Fe642 1.997 . S
O647 C663 1.235 . S
O648 Fe642 2.002 . S
O648 C649 1.295 . S
C649 O648 1.295 . S
C649 O651 1.235 . S
C650 O655 1.287 . S
C650 O656 1.255 . S
O651 Fe643 1.997 . S
O651 C649 1.235 . S
C652 O658 1.287 . S
C652 O659 1.255 . S
O653 Fe642 1.976 . S
O653 C660 1.287 . S
O654 Fe643 1.996 . S
O654 C660 1.255 . S
O655 Fe645 1.976 . S
O655 C650 1.287 . S
O656 Fe642 1.996 . S
O656 C650 1.255 . S
C657 O661 1.295 . S
C657 O662 1.235 . S
O658 Fe643 1.976 . S
O658 C652 1.287 . S
O659 Fe645 1.996 . S
O659 C652 1.255 . S
C660 O653 1.287 . S
C660 O654 1.255 . S
O661 Fe643 2.002 . S
O661 C657 1.295 . S
O662 Fe645 1.997 . S
O662 C657 1.235 . S
C663 O646 1.295 . S
C663 O647 1.235 . S
C330 C10 1.431 . S
C16 C342 1.498 . S
C377 C30 1.436 . S
C386 C42 1.469 . S
C341 C57 1.465 . S
C69 C366 1.471 . S
C385 C83 1.442 . S
C101 C327 1.455 1_556 S
C108 C320 1.467 . S
C344 C120 1.471 . S
C363 C133 1.459 . S
C388 C147 1.495 1_545 S
C349 C114 1.385 . S
C374 C122 1.453 . S
C135 C393 1.461 . S
C333 C153 1.416 1_545 S
C160 C322 1.438 . S
C174 C421 1.436 . S
C437 C187 1.462 . S
C451 C205 1.415 . S
C212 C319 1.452 . S
C226 C371 1.475 . S
C454 C185 1.479 . S
C418 C244 1.490 . S
C474 C23 1.301 . S
C498 C5 1.310 . S
C49 C531 1.324 . S
C29 C539 1.358 1_556 S
C94 C509 1.354 . S
C88 C520 1.326 . S
C540 C70 1.339 . S
C62 C473 1.325 . S
C257 C476 1.301 . S
C506 C200 1.332 1_545 S
C517 C211 1.356 . S
C547 C179 1.347 . S
C495 C251 1.320 . S
C528 C198 1.309 1_545 S
C542 C213 1.335 . S
C173 C481 1.329 . S
C484 C264 1.280 . S
C148 C572 1.356 . S
C584 C278 1.347 . S
C127 C605 1.336 . S
C487 C140 1.353 . S
C525 C289 1.317 . S
C608 C276 1.273 . S
C303 C575 1.298 . S
C36 C630 1.456 . S
C44 C408 1.453 . S
C432 C4 1.436 . S
C18 C462 1.476 . S
C81 C407 1.437 . S
C95 C443 1.430 1_556 S
C459 C55 1.462 . S
C641 C75 1.432 . S
C638 C277 1.444 . S
C410 C263 1.499 . S
C440 C302 1.514 . S
C290 C452 1.485 . S
C415 C283 1.419 . S
C265 C429 1.421 . S
C465 C304 1.416 . S
C296 C627 1.444 . S
C628 C199 1.454 . S
C224 C355 1.463 . S
C364 C252 1.436 . S
C166 C399 1.409 . S
C635 C238 1.435 . S
C430 C172 1.473 . S
C396 C250 1.474 . S
C352 C218 1.466 . S
C43 C649 1.335 . S
C31 C561 1.323 1_556 S
C17 C597 1.313 . S
C616 C3 1.303 . S
C562 C68 1.310 . S
C56 C586 1.331 . S
C613 C96 1.356 . S
C82 C650 1.334 . S
C657 C192 1.341 . S
C161 C569 1.327 . S
C237 C583 1.351 . S
C606 C225 1.314 . S
C564 C186 1.309 . S
C159 C594 1.318 . S
C619 C239 1.332 . S
C652 C231 1.332 . S
C663 C121 1.305 . S
C503 C291 1.391 . S
C109 C518 1.352 . S
C270 C550 1.338 . S
C660 C309 1.354 . S
C591 C146 1.307 . S
C553 C107 1.312 . S
C496 C134 1.318 . S
