# Generated by pormake.
# Topology ocu, (6,8)-cn, num edge types: 1
# Building blocks:
#     Node 0, Type 0, BuildingBlock: CUWYAW_clean_sbu_0, # of connection points: 6
#     Node 1, Type 0, BuildingBlock: CUWYAW_clean_sbu_0, # of connection points: 6
#     Node 2, Type 0, BuildingBlock: CUWYAW_clean_sbu_0, # of connection points: 6
#     Node 3, Type 0, BuildingBlock: CUWYAW_clean_sbu_0, # of connection points: 6
#     Node 4, Type 0, BuildingBlock: CUWYAW_clean_sbu_0, # of connection points: 6
#     Node 5, Type 0, BuildingBlock: CUWYAW_clean_sbu_0, # of connection points: 6
#     Node 6, Type 0, BuildingBlock: CUWYAW_clean_sbu_0, # of connection points: 6
#     Node 7, Type 0, BuildingBlock: CUWYAW_clean_sbu_0, # of connection points: 6
#     Node 8, Type 1, BuildingBlock: AJUNOK_clean_sbu_0, # of connection points: 8
#     Node 9, Type 1, BuildingBlock: AJUNOK_clean_sbu_0, # of connection points: 8
#     Node 10, Type 1, BuildingBlock: AJUNOK_clean_sbu_0, # of connection points: 8
#     Node 11, Type 1, BuildingBlock: AJUNOK_clean_sbu_0, # of connection points: 8
#     Node 12, Type 1, BuildingBlock: AJUNOK_clean_sbu_0, # of connection points: 8
#     Node 13, Type 1, BuildingBlock: AJUNOK_clean_sbu_0, # of connection points: 8
#     Edge 14, Type (0, 1), BuildingBlock: CIFDUS_clean_linker_0, # of connection points: 2
#     Edge 15, Type (0, 1), BuildingBlock: CIFDUS_clean_linker_0, # of connection points: 2
#     Edge 16, Type (0, 1), BuildingBlock: CIFDUS_clean_linker_0, # of connection points: 2
#     Edge 17, Type (0, 1), BuildingBlock: CIFDUS_clean_linker_0, # of connection points: 2
#     Edge 18, Type (0, 1), BuildingBlock: CIFDUS_clean_linker_0, # of connection points: 2
#     Edge 19, Type (0, 1), BuildingBlock: CIFDUS_clean_linker_0, # of connection points: 2
#     Edge 20, Type (0, 1), BuildingBlock: CIFDUS_clean_linker_0, # of connection points: 2
#     Edge 21, Type (0, 1), BuildingBlock: CIFDUS_clean_linker_0, # of connection points: 2
#     Edge 22, Type (0, 1), BuildingBlock: CIFDUS_clean_linker_0, # of connection points: 2
#     Edge 23, Type (0, 1), BuildingBlock: CIFDUS_clean_linker_0, # of connection points: 2
#     Edge 24, Type (0, 1), BuildingBlock: CIFDUS_clean_linker_0, # of connection points: 2
#     Edge 25, Type (0, 1), BuildingBlock: CIFDUS_clean_linker_0, # of connection points: 2
#     Edge 26, Type (0, 1), BuildingBlock: CIFDUS_clean_linker_0, # of connection points: 2
#     Edge 27, Type (0, 1), BuildingBlock: CIFDUS_clean_linker_0, # of connection points: 2
#     Edge 28, Type (0, 1), BuildingBlock: CIFDUS_clean_linker_0, # of connection points: 2
#     Edge 29, Type (0, 1), BuildingBlock: CIFDUS_clean_linker_0, # of connection points: 2
#     Edge 30, Type (0, 1), BuildingBlock: CIFDUS_clean_linker_0, # of connection points: 2
#     Edge 31, Type (0, 1), BuildingBlock: CIFDUS_clean_linker_0, # of connection points: 2
#     Edge 32, Type (0, 1), BuildingBlock: CIFDUS_clean_linker_0, # of connection points: 2
#     Edge 33, Type (0, 1), BuildingBlock: CIFDUS_clean_linker_0, # of connection points: 2
#     Edge 34, Type (0, 1), BuildingBlock: CIFDUS_clean_linker_0, # of connection points: 2
#     Edge 35, Type (0, 1), BuildingBlock: CIFDUS_clean_linker_0, # of connection points: 2
#     Edge 36, Type (0, 1), BuildingBlock: CIFDUS_clean_linker_0, # of connection points: 2
#     Edge 37, Type (0, 1), BuildingBlock: CIFDUS_clean_linker_0, # of connection points: 2
#     Edge 38, Type (0, 1), BuildingBlock: CIFDUS_clean_linker_0, # of connection points: 2
#     Edge 39, Type (0, 1), BuildingBlock: CIFDUS_clean_linker_0, # of connection points: 2
#     Edge 40, Type (0, 1), BuildingBlock: CIFDUS_clean_linker_0, # of connection points: 2
#     Edge 41, Type (0, 1), BuildingBlock: CIFDUS_clean_linker_0, # of connection points: 2
#     Edge 42, Type (0, 1), BuildingBlock: CIFDUS_clean_linker_0, # of connection points: 2
#     Edge 43, Type (0, 1), BuildingBlock: CIFDUS_clean_linker_0, # of connection points: 2
#     Edge 44, Type (0, 1), BuildingBlock: CIFDUS_clean_linker_0, # of connection points: 2
#     Edge 45, Type (0, 1), BuildingBlock: CIFDUS_clean_linker_0, # of connection points: 2
#     Edge 46, Type (0, 1), BuildingBlock: CIFDUS_clean_linker_0, # of connection points: 2
#     Edge 47, Type (0, 1), BuildingBlock: CIFDUS_clean_linker_0, # of connection points: 2
#     Edge 48, Type (0, 1), BuildingBlock: CIFDUS_clean_linker_0, # of connection points: 2
#     Edge 49, Type (0, 1), BuildingBlock: CIFDUS_clean_linker_0, # of connection points: 2
#     Edge 50, Type (0, 1), BuildingBlock: CIFDUS_clean_linker_0, # of connection points: 2
#     Edge 51, Type (0, 1), BuildingBlock: CIFDUS_clean_linker_0, # of connection points: 2
#     Edge 52, Type (0, 1), BuildingBlock: CIFDUS_clean_linker_0, # of connection points: 2
#     Edge 53, Type (0, 1), BuildingBlock: CIFDUS_clean_linker_0, # of connection points: 2
#     Edge 54, Type (0, 1), BuildingBlock: CIFDUS_clean_linker_0, # of connection points: 2
#     Edge 55, Type (0, 1), BuildingBlock: CIFDUS_clean_linker_0, # of connection points: 2
#     Edge 56, Type (0, 1), BuildingBlock: CIFDUS_clean_linker_0, # of connection points: 2
#     Edge 57, Type (0, 1), BuildingBlock: CIFDUS_clean_linker_0, # of connection points: 2
#     Edge 58, Type (0, 1), BuildingBlock: CIFDUS_clean_linker_0, # of connection points: 2
#     Edge 59, Type (0, 1), BuildingBlock: CIFDUS_clean_linker_0, # of connection points: 2
#     Edge 60, Type (0, 1), BuildingBlock: CIFDUS_clean_linker_0, # of connection points: 2
#     Edge 61, Type (0, 1), BuildingBlock: CIFDUS_clean_linker_0, # of connection points: 2
# Relax obj value: 0.201
# Max RMSD: 0.223
# Mean RMSD: 0.166
data_MOF--net-ocu--node1-CUWYAW_clean_sbu_0--node2-AJUNOK_clean_sbu_0--edge1-CIFDUS_clean_linker_0
_symmetry_space_group_name_H-M    P1
_symmetry_Int_Tables_number       1
_symmetry_cell_setting            triclinic
loop_
_symmetry_equiv_pos_as_xyz
'x, y, z'
_cell_length_a     40.80871
_cell_length_b     40.260033
_cell_length_c     32.691203
_cell_angle_alpha  91.747979
_cell_angle_beta   109.0814
_cell_angle_gamma 110.12124
loop_
_atom_site_label
_atom_site_type_symbol
_atom_site_fract_x
_atom_site_fract_y
_atom_site_fract_z
_atom_type_partial_charge
C0 C 0.34637 0.34779 0.39627 0.0
Eu1 Eu 0.31193 0.30702 0.31967 0.0
C2 C 0.33416 0.36328 0.42695 0.0
C3 C 0.35301 0.39958 0.44545 0.0
C4 C 0.33875 0.41588 0.46998 0.0
C5 C 0.30551 0.39596 0.47643 0.0
C6 C 0.28793 0.35909 0.45987 0.0
C7 C 0.30192 0.34294 0.43499 0.0
C8 C 0.34211 0.32365 0.25495 0.0
C9 C 0.24206 0.33118 0.26228 0.0
C10 C 0.23133 0.2235 0.1694 0.0
Eu11 Eu 0.26423 0.26471 0.24526 0.0
C12 C 0.24841 0.21428 0.14002 0.0
C13 C 0.23826 0.17833 0.12331 0.0
C14 C 0.25992 0.16859 0.10363 0.0
C15 C 0.29193 0.19478 0.1003 0.0
C16 C 0.30052 0.23101 0.1145 0.0
C17 C 0.27913 0.24067 0.13449 0.0
C18 C 0.23208 0.24921 0.30819 0.0
C19 C 0.33613 0.24234 0.29805 0.0
O20 O 0.3362 0.31301 0.39071 0.0
O21 O 0.34209 0.36025 0.35934 0.0
O22 O 0.36005 0.32031 0.29425 0.0
O23 O 0.30856 0.31763 0.25091 0.0
O24 O 0.26559 0.33271 0.30249 0.0
O25 O 0.23988 0.30817 0.231 0.0
O26 O 0.23488 0.25693 0.1748 0.0
O27 O 0.23859 0.21119 0.20642 0.0
O28 O 0.21606 0.25362 0.2688 0.0
O29 O 0.26593 0.2543 0.31395 0.0
O30 O 0.31123 0.24128 0.25929 0.0
O31 O 0.33981 0.26492 0.33097 0.0
H32 H 0.37785 0.41566 0.43936 0.0
H33 H 0.35268 0.44442 0.48189 0.0
H34 H 0.2626 0.34293 0.46489 0.0
H35 H 0.28675 0.31486 0.42087 0.0
H36 H 0.215 0.15762 0.1279 0.0
H37 H 0.25294 0.14036 0.09365 0.0
H38 H 0.32477 0.25177 0.11196 0.0
H39 H 0.28789 0.26861 0.14767 0.0
C40 C 0.78997 0.27841 0.16718 0.0
Eu41 Eu 0.79523 0.27989 0.24913 0.0
C42 C 0.77845 0.30055 0.13477 0.0
C43 C 0.79984 0.31362 0.10868 0.0
C44 C 0.80502 0.34803 0.09817 0.0
C45 C 0.79184 0.36969 0.118 0.0
C46 C 0.76102 0.35235 0.12996 0.0
C47 C 0.75503 0.31778 0.13996 0.0
C48 C 0.74672 0.22189 0.26623 0.0
C49 C 0.74238 0.31989 0.26217 0.0
C50 C 0.7958 0.29552 0.41622 0.0
Eu51 Eu 0.79251 0.29212 0.33478 0.0
C52 C 0.80531 0.27404 0.45046 0.0
C53 C 0.78127 0.26155 0.47374 0.0
C54 C 0.77412 0.22699 0.48435 0.0
C55 C 0.78858 0.20484 0.46768 0.0
C56 C 0.8214 0.22161 0.45929 0.0
C57 C 0.82917 0.25624 0.44898 0.0
C58 C 0.84038 0.35035 0.31781 0.0
C59 C 0.84527 0.25121 0.32084 0.0
O60 O 0.82107 0.29564 0.20032 0.0
O61 O 0.76393 0.25761 0.17984 0.0
O62 O 0.77288 0.22129 0.25248 0.0
O63 O 0.75044 0.25389 0.2756 0.0
O64 O 0.76624 0.31957 0.24312 0.0
O65 O 0.74282 0.30522 0.29761 0.0
O66 O 0.76525 0.27814 0.38253 0.0
O67 O 0.82294 0.31484 0.40416 0.0
O68 O 0.81307 0.35026 0.32961 0.0
O69 O 0.83738 0.31852 0.30855 0.0
O70 O 0.82299 0.25326 0.34176 0.0
O71 O 0.84359 0.26467 0.28439 0.0
H72 H 0.81713 0.30017 0.10277 0.0
H73 H 0.82714 0.3604 0.08566 0.0
H74 H 0.74776 0.36782 0.14125 0.0
H75 H 0.73636 0.30717 0.15755 0.0
H76 H 0.76352 0.27549 0.47684 0.0
H77 H 0.75025 0.21506 0.49416 0.0
H78 H 0.83497 0.20545 0.45015 0.0
H79 H 0.84958 0.26643 0.43351 0.0
C80 C 0.83697 0.799 0.42531 0.0
Eu81 Eu 0.80774 0.78687 0.34001 0.0
C82 C 0.86198 0.78602 0.45861 0.0
C83 C 0.84718 0.75957 0.48174 0.0
C84 C 0.86966 0.74349 0.50862 0.0
C85 C 0.90738 0.75388 0.5131 0.0
C86 C 0.92274 0.78209 0.49241 0.0
C87 C 0.90029 0.79803 0.46547 0.0
C88 C 0.75081 0.72677 0.29262 0.0
C89 C 0.83794 0.74445 0.2812 0.0
C90 C 0.74953 0.77442 0.15757 0.0
Eu91 Eu 0.77922 0.78715 0.24258 0.0
C92 C 0.73018 0.79339 0.12763 0.0
C93 C 0.73693 0.82899 0.14213 0.0
C94 C 0.71406 0.84569 0.11836 0.0
C95 C 0.68395 0.82716 0.0794 0.0
C96 C 0.6783 0.79194 0.06373 0.0
C97 C 0.7013 0.77505 0.08791 0.0
C98 C 0.83646 0.84728 0.2895 0.0
C99 C 0.74916 0.83038 0.30069 0.0
O100 O 0.85151 0.81939 0.40038 0.0
O101 O 0.80353 0.77536 0.40318 0.0
O102 O 0.77844 0.72674 0.32646 0.0
O103 O 0.75365 0.75826 0.28683 0.0
O104 O 0.84439 0.75989 0.32145 0.0
O105 O 0.81177 0.74876 0.24698 0.0
O106 O 0.73203 0.75849 0.18284 0.0
O107 O 0.7852 0.79246 0.1791 0.0
O108 O 0.8091 0.8472 0.25522 0.0
O109 O 0.83348 0.81581 0.29572 0.0
O110 O 0.74412 0.81625 0.26045 0.0
O111 O 0.77367 0.82428 0.33538 0.0
H112 H 0.81784 0.75022 0.47756 0.0
H113 H 0.85724 0.72199 0.52452 0.0
H114 H 0.9516 0.79038 0.49475 0.0
H115 H 0.91269 0.81858 0.4485 0.0
H116 H 0.75857 0.8433 0.17325 0.0
H117 H 0.71864 0.87237 0.1323 0.0
H118 H 0.65531 0.77704 0.03382 0.0
H119 H 0.69551 0.74731 0.07673 0.0
C120 C 0.26592 0.86022 0.33473 0.0
Eu121 Eu 0.27742 0.81055 0.29652 0.0
C122 C 0.2554 0.86246 0.37311 0.0
C123 C 0.22086 0.83892 0.3734 0.0
C124 C 0.20749 0.84647 0.40514 0.0
C125 C 0.22844 0.87772 0.43626 0.0
C126 C 0.26564 0.89728 0.4407 0.0
C127 C 0.27891 0.89 0.40868 0.0
C128 C 0.22934 0.7681 0.21931 0.0
C129 C 0.25465 0.74022 0.34388 0.0
C130 C 0.29762 0.69104 0.24096 0.0
Eu131 Eu 0.29589 0.7491 0.27398 0.0
C132 C 0.32297 0.68845 0.21962 0.0
C133 C 0.35876 0.71537 0.23251 0.0
C134 C 0.38264 0.71488 0.2109 0.0
C135 C 0.37112 0.68733 0.17624 0.0
C136 C 0.33456 0.66147 0.16146 0.0
C137 C 0.3104 0.66214 0.18309 0.0
C138 C 0.35628 0.80286 0.33045 0.0
C139 C 0.32136 0.82018 0.23107 0.0
O140 O 0.29918 0.85991 0.34248 0.0
O141 O 0.24051 0.83756 0.30012 0.0
O142 O 0.23995 0.80271 0.22509 0.0
O143 O 0.24338 0.758 0.25465 0.0
O144 O 0.25254 0.77185 0.33779 0.0
O145 O 0.27117 0.72608 0.32393 0.0
O146 O 0.27518 0.70629 0.21959 0.0
O147 O 0.31292 0.70335 0.28315 0.0
O148 O 0.35728 0.78249 0.29993 0.0
O149 O 0.32368 0.79295 0.33184 0.0
O150 O 0.30844 0.7847 0.22362 0.0
O151 O 0.31773 0.83734 0.26333 0.0
H152 H 0.20275 0.81656 0.34715 0.0
H153 H 0.17877 0.83095 0.40131 0.0
H154 H 0.28225 0.92135 0.46489 0.0
H155 H 0.30617 0.90771 0.40973 0.0
H156 H 0.36867 0.73645 0.25989 0.0
H157 H 0.41096 0.73468 0.22296 0.0
H158 H 0.32559 0.63964 0.13513 0.0
H159 H 0.28233 0.64193 0.17192 0.0
C160 C 0.36852 0.85786 0.73902 0.0
Eu161 Eu 0.3225 0.81081 0.76621 0.0
C162 C 0.35984 0.87177 0.6977 0.0
C163 C 0.33043 0.84976 0.66013 0.0
C164 C 0.32125 0.86295 0.62091 0.0
C165 C 0.34167 0.89829 0.61852 0.0
C166 C 0.36944 0.92106 0.65694 0.0
C167 C 0.37841 0.90784 0.69637 0.0
C168 C 0.26829 0.75046 0.7132 0.0
C169 C 0.24442 0.81897 0.74831 0.0
C170 C 0.22339 0.71831 0.83646 0.0
Eu171 Eu 0.26918 0.76303 0.80764 0.0
C172 C 0.2325 0.71067 0.88161 0.0
C173 C 0.21997 0.72502 0.91028 0.0
C174 C 0.23025 0.7201 0.95386 0.0
C175 C 0.25267 0.70001 0.96955 0.0
C176 C 0.26714 0.68749 0.94157 0.0
C177 C 0.25716 0.69279 0.89793 0.0
C178 C 0.32275 0.82222 0.86185 0.0
C179 C 0.35053 0.75965 0.83084 0.0
O180 O 0.35373 0.8666 0.76546 0.0
O181 O 0.36468 0.82406 0.73599 0.0
O182 O 0.28074 0.7799 0.69872 0.0
O183 O 0.28641 0.75352 0.75314 0.0
O184 O 0.27994 0.83556 0.7541 0.0
O185 O 0.23188 0.78682 0.75931 0.0
O186 O 0.2398 0.70788 0.81313 0.0
O187 O 0.22364 0.75066 0.83225 0.0
O188 O 0.30834 0.79313 0.87597 0.0
O189 O 0.3056 0.81978 0.82163 0.0
O190 O 0.31522 0.74142 0.82557 0.0
O191 O 0.36095 0.79034 0.81612 0.0
H192 H 0.31529 0.82199 0.66053 0.0
H193 H 0.30004 0.84488 0.5917 0.0
H194 H 0.38617 0.94831 0.65585 0.0
H195 H 0.40047 0.92543 0.72541 0.0
H196 H 0.20163 0.73956 0.89881 0.0
H197 H 0.2178 0.72937 0.97416 0.0
H198 H 0.28388 0.67141 0.95264 0.0
H199 H 0.26818 0.68219 0.87689 0.0
C200 C 0.30874 0.23861 0.69413 0.0
Eu201 Eu 0.29775 0.27218 0.7551 0.0
C202 C 0.33538 0.2223 0.68962 0.0
C203 C 0.37353 0.24302 0.69992 0.0
C204 C 0.39782 0.22743 0.6937 0.0
C205 C 0.38473 0.19069 0.67705 0.0
C206 C 0.34654 0.16999 0.66701 0.0
C207 C 0.32224 0.18561 0.67316 0.0
C208 C 0.34626 0.33209 0.81302 0.0
C209 C 0.3279 0.24362 0.84831 0.0
C210 C 0.26457 0.32174 0.89718 0.0
Eu211 Eu 0.2771 0.29001 0.83617 0.0
C212 C 0.24108 0.34178 0.90152 0.0
C213 C 0.2031 0.33063 0.87478 0.0
C214 C 0.18101 0.34884 0.88152 0.0
C215 C 0.19638 0.37852 0.91519 0.0
C216 C 0.23466 0.39008 0.94104 0.0
C217 C 0.25668 0.37193 0.93426 0.0
C218 C 0.23119 0.22847 0.78149 0.0
C219 C 0.25232 0.32241 0.74475 0.0
O220 O 0.28637 0.22236 0.7145 0.0
O221 O 0.32106 0.27362 0.70362 0.0
O222 O 0.34156 0.32928 0.7716 0.0
O223 O 0.32818 0.30297 0.82145 0.0
O224 O 0.31842 0.23911 0.80509 0.0
O225 O 0.31932 0.26594 0.86966 0.0
O226 O 0.29145 0.33764 0.88264 0.0
O227 O 0.24753 0.28747 0.88141 0.0
O228 O 0.23805 0.23222 0.82338 0.0
O229 O 0.24622 0.25771 0.77014 0.0
O230 O 0.26183 0.32648 0.78793 0.0
O231 O 0.25703 0.29762 0.72242 0.0
H232 H 0.38468 0.27141 0.71243 0.0
H233 H 0.42683 0.24444 0.70123 0.0
H234 H 0.33541 0.14157 0.65467 0.0
H235 H 0.29298 0.16896 0.6648 0.0
H236 H 0.19031 0.30752 0.84914 0.0
H237 H 0.15164 0.33904 0.86114 0.0
H238 H 0.24764 0.41319 0.96671 0.0
H239 H 0.28593 0.38119 0.95511 0.0
C240 C 0.73819 0.34823 0.76875 0.0
Eu241 Eu 0.77264 0.30406 0.77841 0.0
C242 C 0.72633 0.36291 0.79996 0.0
C243 C 0.69722 0.37532 0.78495 0.0
C244 C 0.68401 0.38675 0.81467 0.0
C245 C 0.69972 0.38565 0.85963 0.0
C246 C 0.72918 0.37347 0.87461 0.0
C247 C 0.74232 0.36199 0.84484 0.0
C248 C 0.74759 0.24484 0.71567 0.0
C249 C 0.74222 0.24879 0.83866 0.0
C250 C 0.84078 0.21123 0.81506 0.0
Eu251 Eu 0.80868 0.25731 0.80742 0.0
C252 C 0.8675 0.20663 0.79659 0.0
C253 C 0.90562 0.22884 0.81456 0.0
C254 C 0.93042 0.22501 0.79572 0.0
C255 C 0.9174 0.1991 0.75862 0.0
C256 C 0.87929 0.17731 0.74024 0.0
C257 C 0.85456 0.18089 0.75925 0.0
C258 C 0.83145 0.31259 0.87378 0.0
C259 C 0.84191 0.3165 0.75076 0.0
O260 O 0.7743 0.3586 0.7793 0.0
O261 O 0.72085 0.31377 0.75568 0.0
O262 O 0.75612 0.27747 0.70784 0.0
O263 O 0.75328 0.24515 0.756 0.0
O264 O 0.74914 0.28203 0.83102 0.0
O265 O 0.75854 0.22992 0.82548 0.0
O266 O 0.80731 0.20492 0.78681 0.0
O267 O 0.85304 0.23982 0.84412 0.0
O268 O 0.82392 0.27923 0.87816 0.0
O269 O 0.82688 0.31587 0.83388 0.0
O270 O 0.8382 0.28433 0.76131 0.0
O271 O 0.8216 0.33291 0.75919 0.0
H272 H 0.68458 0.37589 0.75035 0.0
H273 H 0.66178 0.39685 0.80256 0.0
H274 H 0.74169 0.3725 0.90911 0.0
H275 H 0.76468 0.35205 0.85676 0.0
H276 H 0.9164 0.24905 0.84325 0.0
H277 H 0.95984 0.24178 0.81051 0.0
H278 H 0.86886 0.15653 0.71221 0.0
H279 H 0.82534 0.1634 0.74482 0.0
C280 C 0.82275 0.85916 0.90181 0.0
Eu281 Eu 0.81267 0.81757 0.83286 0.0
C282 C 0.80033 0.87835 0.91039 0.0
C283 C 0.81804 0.91169 0.93773 0.0
C284 C 0.79698 0.93104 0.94393 0.0
C285 C 0.75787 0.91729 0.92279 0.0
C286 C 0.74026 0.88388 0.89525 0.0
C287 C 0.76132 0.8646 0.88905 0.0
C288 C 0.84977 0.83493 0.77571 0.0
C289 C 0.7443 0.82652 0.75039 0.0
C290 C 0.77927 0.73865 0.67258 0.0
Eu291 Eu 0.77733 0.76557 0.74473 0.0
C292 C 0.79343 0.71246 0.65992 0.0
C293 C 0.7898 0.68073 0.67791 0.0
C294 C 0.80819 0.65899 0.66994 0.0
C295 C 0.83095 0.66903 0.64455 0.0
C296 C 0.83399 0.7005 0.62613 0.0
C297 C 0.8153 0.72192 0.63364 0.0
C298 C 0.73771 0.73609 0.79699 0.0
C299 C 0.83795 0.75107 0.83072 0.0
O300 O 0.80796 0.82414 0.89677 0.0
O301 O 0.83774 0.87055 0.87267 0.0
O302 O 0.86657 0.83875 0.81793 0.0
O303 O 0.8148 0.82259 0.76662 0.0
O304 O 0.76509 0.83415 0.79283 0.0
O305 O 0.74479 0.80149 0.72356 0.0
O306 O 0.80552 0.7674 0.69869 0.0
O307 O 0.74952 0.72709 0.68355 0.0
O308 O 0.72985 0.72237 0.75675 0.0
O309 O 0.76565 0.76553 0.80682 0.0
O310 O 0.8203 0.745 0.78764 0.0
O311 O 0.83757 0.77671 0.85648 0.0
H312 H 0.84816 0.92283 0.95404 0.0
H313 H 0.81125 0.95658 0.96564 0.0
H314 H 0.71026 0.87285 0.87802 0.0
H315 H 0.74712 0.83911 0.86723 0.0
H316 H 0.77376 0.67331 0.69912 0.0
H317 H 0.80566 0.63501 0.68485 0.0
H318 H 0.85108 0.70872 0.60616 0.0
H319 H 0.81894 0.74659 0.62005 0.0
Cd320 Cd 1.02099 0.98702 0.59307 0.0
Cd321 Cd 0.06771 0.08557 0.49007 0.0
C322 C 0.08533 0.96256 0.64618 0.0
N323 N 0.0576 0.95244 0.60611 0.0
C324 C 0.06796 0.89839 0.59495 0.0
C325 C 0.09676 0.90826 0.63637 0.0
C326 C 0.10535 0.94092 0.66193 0.0
C327 C 0.04846 0.92101 0.5804 0.0
H328 H 0.09081 0.9868 0.66682 0.0
H329 H 1.02528 0.91293 0.54941 0.0
C330 C 0.99779 1.00227 0.47603 0.0
C331 C 1.00148 0.10437 0.42926 0.0
C332 C 0.97649 0.12147 0.4135 0.0
C333 C 0.97385 0.146 0.44252 0.0
C334 C 0.99596 0.15193 0.48732 0.0
C335 C 1.02078 0.13424 0.50168 0.0
N336 N 1.02316 0.11126 0.47247 0.0
H337 H 1.00433 0.08614 0.40685 0.0
H338 H 0.0388 0.13952 0.53578 0.0
C339 C 0.07155 0.02842 0.42277 0.0
N340 N 0.08403 0.04332 0.46552 0.0
C341 C 0.12364 1.01077 0.4876 0.0
C342 C 0.11184 0.99534 0.44388 0.0
C343 C 0.08554 1.0041 0.41096 0.0
C344 C 0.10958 0.03526 0.49768 0.0
H345 H 0.05153 0.03605 0.39806 0.0
H346 H 0.11992 0.04876 0.53098 0.0
C347 C 0.0938 0.06293 0.60053 0.0
C348 C 0.97735 0.94603 0.64311 0.0
N349 N 1.00932 0.03537 0.61303 0.0
C350 C 0.03317 0.0587 0.65032 0.0
C351 C 1.02752 0.08936 0.66081 0.0
C352 C 0.99508 0.09451 0.63496 0.0
C353 C 0.97042 0.06936 0.59701 0.0
C354 C 0.97852 0.04011 0.58624 0.0
C355 C 0.12142 0.13614 0.45683 0.0
O356 O 1.01077 1.00347 0.51742 0.0
O357 O 1.01159 0.02886 0.45811 0.0
O358 O 0.07498 0.06137 0.56047 0.0
O359 O 0.08232 0.03721 0.62061 0.0
O360 O 0.96298 0.94082 0.60117 0.0
O361 O 1.01021 0.96971 0.6601 0.0
O362 O 0.1296 0.13553 0.49798 0.0
O363 O 0.08903 0.11453 0.43243 0.0
H364 H 0.05682 0.05371 0.67194 0.0
H365 H 0.9599 0.0207 0.55705 0.0
H366 H 0.06045 0.87345 0.57422 0.0
H367 H 0.12661 0.94923 0.69451 0.0
H368 H 0.95955 0.11568 0.3789 0.0
H369 H 0.99493 0.17082 0.51071 0.0
H370 H 0.14483 1.00522 0.51336 0.0
H371 H 0.07662 0.99283 0.37683 0.0
H372 H 0.0481 0.10825 0.68961 0.0
H373 H 0.94455 0.07139 0.57652 0.0
Cd374 Cd 0.48184 1.01009 0.07155 0.0
Cd375 Cd 0.55444 0.08176 0.98802 0.0
C376 C 0.55428 0.99142 0.0965 0.0
N377 N 0.51948 0.98072 0.06541 0.0
C378 C 0.53142 0.93814 0.02626 0.0
C379 C 0.56785 0.94936 0.05732 0.0
C380 C 0.5792 0.97622 0.0929 0.0
C381 C 0.50746 0.95422 0.03116 0.0
H382 H 0.56274 1.01158 0.12433 0.0
H383 H 0.47937 0.94555 0.00774 0.0
C384 C 0.47741 0.01553 0.95887 0.0
C385 C 0.50056 0.11806 0.93598 0.0
C386 C 0.47506 0.13495 0.92549 0.0
C387 C 0.46287 0.14461 0.95786 0.0
C388 C 0.47639 0.13666 1.00013 0.0
C389 C 0.50206 0.11977 0.00924 0.0
N390 N 0.51354 0.11101 0.97723 0.0
H391 H 0.50991 0.11031 0.91118 0.0
H392 H 0.5127 0.11374 0.04177 0.0
C393 C 0.56305 1.00587 0.97004 0.0
N394 N 0.58267 0.03997 0.99204 0.0
C395 C 0.6404 0.03294 1.00207 0.0
C396 C 0.62086 0.99841 0.97701 0.0
C397 C 0.58164 0.98458 0.9621 0.0
C398 C 0.62063 0.05348 0.00878 0.0
H399 H 0.53301 0.9956 0.95619 0.0
H400 H 0.63557 0.08097 0.02518 0.0
C401 C 0.5586 0.07775 0.10145 0.0
C402 C 0.44135 0.96235 0.11718 0.0
N403 N 0.44587 0.04388 0.0551 0.0
C404 C 0.4488 0.06359 0.09137 0.0
C405 C 0.42725 0.08423 0.08786 0.0
C406 C 0.40257 0.08475 0.04646 0.0
C407 C 0.40031 0.06428 0.00934 0.0
C408 C 0.42245 0.04383 0.01445 0.0
C409 C 0.60313 0.12671 0.94826 0.0
O410 O 0.48725 0.02365 1.00009 0.0
O411 O 0.49703 0.03569 0.93947 0.0
O412 O 0.54829 0.07195 0.05999 0.0
O413 O 0.53685 0.05971 0.12 0.0
O414 O 0.43209 0.9545 0.0758 0.0
O415 O 0.46897 0.99145 0.13612 0.0
O416 O 0.60824 0.13644 0.98815 0.0
O417 O 0.57565 0.09788 0.92824 0.0
H418 H 0.46746 0.06259 0.1232 0.0
H419 H 0.42052 0.02775 0.98614 0.0
H420 H 0.52169 0.91742 0.99839 0.0
H421 H 0.60672 0.98482 0.11822 0.0
H422 H 0.46471 0.1401 0.89229 0.0
H423 H 0.46762 0.14384 0.02587 0.0
H424 H 0.67067 0.04448 0.01524 0.0
H425 H 0.56524 0.95827 0.94246 0.0
H426 H 0.42919 0.09882 0.11749 0.0
H427 H 0.38173 0.06405 0.97683 0.0
Cd428 Cd 1.01148 0.52695 0.17865 0.0
Cd429 Cd 0.02852 0.5642 0.04331 0.0
C430 C 0.09108 0.50723 0.23618 0.0
N431 N 0.06072 0.49592 0.19779 0.0
C432 C 0.0804 0.44708 0.18241 0.0
C433 C 0.11173 0.45762 0.22231 0.0
C434 C 0.11646 0.48895 0.24869 0.0
C435 C 0.05566 0.46621 0.17102 0.0
H436 H 0.09575 0.5305 0.258 0.0
H437 H 0.03178 0.45652 0.14063 0.0
C438 C 0.95807 0.48949 0.05347 0.0
C439 C 0.98113 0.59608 0.96516 0.0
C440 C 0.96228 0.61796 0.94533 0.0
C441 C 0.95269 0.63937 0.97072 0.0
C442 C 0.96187 0.63723 0.01577 0.0
C443 C 0.98087 0.6151 0.03426 0.0
N444 N 0.99031 0.5953 0.00893 0.0
H445 H 0.98946 0.58051 0.94585 0.0
H446 H 0.98887 0.61431 0.0691 0.0
C447 C 0.03228 0.49425 0.98935 0.0
N448 N 0.04909 0.51867 0.02689 0.0
C449 C 0.10371 0.50395 0.04523 0.0
C450 C 0.08764 0.47877 0.00647 0.0
C451 C 0.05101 0.47372 0.97866 0.0
C452 C 0.08382 0.52319 0.055 0.0
H453 H 1.005 0.49164 0.96688 0.0
H454 H 0.09702 0.54345 0.08394 0.0
C455 C 0.06649 0.58879 0.15466 0.0
C456 C 0.97801 0.4915 0.23449 0.0
N457 N 0.97924 0.57199 0.18932 0.0
C458 C 0.99371 0.59614 0.22739 0.0
C459 C 0.97498 0.61829 0.23629 0.0
C460 C 0.94022 0.61684 0.20609 0.0
C461 C 0.92623 0.59171 0.16695 0.0
C462 C 0.94569 0.56996 0.15941 0.0
C463 C 0.09142 0.60195 0.02524 0.0
O464 O 0.96901 0.49421 0.09588 0.0
O465 O 0.97524 0.51133 0.03324 0.0
O466 O 0.0411 0.56819 0.1206 0.0
O467 O 0.06566 0.58106 0.19151 0.0
O468 O 0.9728 0.47694 0.19676 0.0
O469 O 1.00203 0.52311 0.24885 0.0
O470 O 0.08872 0.61068 0.06138 0.0
O471 O 0.06265 0.57902 0.99579 0.0
H472 H 1.01993 0.59812 0.25192 0.0
H473 H 0.93316 0.55077 0.12948 0.0
H474 H 0.07411 0.42348 0.16008 0.0
H475 H 0.13989 0.49987 0.27931 0.0
H476 H 0.95646 0.61895 0.91072 0.0
H477 H 0.95468 0.65266 0.03672 0.0
H478 H 0.13208 0.50993 0.06733 0.0
H479 H 0.03707 0.45447 0.94867 0.0
H480 H 0.98815 0.6367 0.26693 0.0
H481 H 0.89957 0.58788 0.14205 0.0
Cd482 Cd 0.52594 0.48929 0.09159 0.0
Cd483 Cd 0.57472 0.59349 0.99093 0.0
C484 C 0.60698 0.48182 0.11819 0.0
N485 N 0.56966 0.46214 0.10445 0.0
C486 C 0.58135 0.40885 0.1204 0.0
C487 C 0.62007 0.4288 0.13699 0.0
C488 C 0.63275 0.46565 0.13484 0.0
C489 C 0.55653 0.4262 0.10443 0.0
H490 H 0.61701 0.51032 0.11811 0.0
H491 H 0.52671 0.41128 0.09369 0.0
C492 C 0.50313 0.50704 0.97339 0.0
C493 C 0.49589 0.59962 0.93773 0.0
C494 C 0.46893 0.61465 0.92283 0.0
C495 C 0.47622 0.64938 0.94165 0.0
C496 C 0.51051 0.66806 0.97582 0.0
C497 C 0.5365 0.65168 0.99033 0.0
N498 N 0.52875 0.61805 0.97118 0.0
H499 H 0.49082 0.57365 0.92152 0.0
H500 H 0.56322 0.66604 0.01617 0.0
C501 C 0.57576 0.53274 0.9267 0.0
N502 N 0.58889 0.54767 0.96951 0.0
C503 C 0.61495 0.50391 0.99241 0.0
C504 C 0.60147 0.48766 0.94861 0.0
C505 C 0.58165 0.50228 0.91541 0.0
C506 C 0.60848 0.53429 1.00215 0.0
H507 H 0.56004 0.54406 0.90164 0.0
H508 H 0.61888 0.54708 0.0358 0.0
C509 C 0.59281 0.57388 0.10271 0.0
C510 C 0.47843 0.4401 0.13365 0.0
N511 N 0.51297 0.53309 0.11943 0.0
C512 C 0.53214 0.55091 0.16117 0.0
C513 C 0.52483 0.57963 0.175 0.0
C514 C 0.49569 0.58818 0.14658 0.0
C515 C 0.47489 0.5675 0.10453 0.0
C516 C 0.48459 0.54039 0.09132 0.0
C517 C 0.6273 0.64205 0.95499 0.0
O518 O 0.51175 0.50224 0.01352 0.0
O519 O 0.52103 0.53591 0.96219 0.0
O520 O 0.57851 0.57166 0.06152 0.0
O521 O 0.58085 0.54726 0.12132 0.0
O522 O 0.46465 0.4418 0.09294 0.0
O523 O 0.51275 0.45978 0.15283 0.0
O524 O 0.63586 0.64354 0.99654 0.0
O525 O 0.59528 0.61907 0.93166 0.0
H526 H 0.55406 0.54365 0.18304 0.0
H527 H 0.46935 0.52478 0.05878 0.0
H528 H 0.57027 0.38027 0.12058 0.0
H529 H 0.66227 0.48225 0.14765 0.0
H530 H 0.44317 0.59973 0.89577 0.0
H531 H 0.51713 0.69501 0.99098 0.0
H532 H 0.63056 0.4934 0.01872 0.0
H533 H 0.5716 0.4908 0.88116 0.0
H534 H 0.54187 0.59476 0.20751 0.0
H535 H 0.45092 0.57157 0.08209 0.0
Cd536 Cd 0.03227 0.49061 0.60766 0.0
Cd537 Cd 0.09968 0.56365 0.51816 0.0
C538 C 0.09161 0.45873 0.65872 0.0
N539 N 0.06866 0.45666 0.61714 0.0
C540 C 0.08901 0.41465 0.58991 0.0
C541 C 0.11372 0.4169 0.63248 0.0
C542 C 0.11443 0.43896 0.6672 0.0
C543 C 0.06645 0.43487 0.58295 0.0
H544 H 0.09196 0.47564 0.68534 0.0
H545 H 0.04731 0.43335 0.55032 0.0
C546 C 1.02569 0.49187 0.49198 0.0
C547 C 1.02723 0.5813 0.49507 0.0
C548 C 1.0014 0.59567 0.49787 0.0
C549 C 1.00968 0.61887 0.53593 0.0
C550 C 0.04387 0.6266 0.57061 0.0
C551 C 0.0691 0.612 0.56609 0.0
N552 N 0.06028 0.58967 0.52886 0.0
H553 H 1.02126 0.56399 0.4655 0.0
H554 H 0.09581 0.61891 0.59201 0.0
C555 C 0.12243 0.49599 0.53204 0.0
N556 N 0.13812 0.53154 0.53122 0.0
C557 C 0.1945 0.52577 0.53194 0.0
C558 C 0.17792 0.48854 0.52963 0.0
C559 C 0.14196 0.47383 0.5313 0.0
C560 C 0.17383 0.54695 0.53255 0.0
H561 H 0.09404 0.48455 0.53085 0.0
H562 H 0.18556 0.5753 0.53169 0.0
C563 C 0.10986 0.55725 0.63119 0.0
C564 C 0.98176 0.44545 0.64599 0.0
N565 N 1.00764 0.53504 0.60731 0.0
C566 C 1.02401 0.56184 0.64237 0.0
C567 C 1.00641 0.58508 0.64726 0.0
C568 C 0.9712 0.58012 0.61633 0.0
C569 C 0.95532 0.5527 0.58004 0.0
C570 C 0.9742 0.53049 0.57605 0.0
C571 C 0.13515 0.61608 0.47211 0.0
O572 O 0.03589 0.49895 0.53347 0.0
O573 O 0.04585 0.51149 0.47256 0.0
O574 O 0.09726 0.54845 0.58986 0.0
O575 O 0.09231 0.53761 0.65292 0.0
O576 O 0.97625 0.43744 0.60557 0.0
O577 O 1.01017 0.47324 0.66739 0.0
O578 O 0.14969 0.61875 0.51363 0.0
O579 O 0.10457 0.58971 0.45263 0.0
H580 H 0.04982 0.56421 0.66783 0.0
H581 H 0.96124 0.50863 0.54911 0.0
H582 H 0.08745 0.39785 0.56229 0.0
H583 H 0.13208 0.44062 0.70076 0.0
H584 H 0.97586 0.58962 0.46985 0.0
H585 H 0.05127 0.64405 0.60074 0.0
H586 H 0.22208 0.53801 0.53026 0.0
H587 H 0.12844 0.44526 0.52978 0.0
H588 H 1.01934 0.60553 0.67608 0.0
H589 H 0.92821 0.54799 0.55542 0.0
Cd590 Cd 0.55084 1.01241 0.53495 0.0
Cd591 Cd 0.57224 0.05161 0.38777 0.0
C592 C 0.5963 0.9809 0.61974 0.0
N593 N 0.58957 0.98329 0.5765 0.0
C594 C 0.62059 0.94318 0.57155 0.0
C595 C 0.62712 0.93917 0.61582 0.0
C596 C 0.61523 0.95906 0.64016 0.0
C597 C 0.60168 0.96523 0.55257 0.0
H598 H 0.58596 0.995 0.6381 0.0
H599 H 0.59568 0.9672 0.51815 0.0
C600 C 0.51734 0.99037 0.42051 0.0
C601 C 0.50773 0.09169 0.33147 0.0
C602 C 0.48408 0.11202 0.32461 0.0
C603 C 0.47517 0.12445 0.35917 0.0
C604 C 0.49073 0.11395 0.39998 0.0
C605 C 0.51411 0.09363 0.40544 0.0
N606 N 0.52288 0.08271 0.37165 0.0
H607 H 0.51454 0.08387 0.30429 0.0
H608 H 0.52585 0.08721 0.43754 0.0
C609 C 0.59283 0.98294 0.34173 0.0
N610 N 0.60534 1.00611 0.38023 0.0
C611 C 0.65684 0.98443 0.40676 0.0
C612 C 0.64489 0.96034 0.36722 0.0
C613 C 0.61185 0.96043 0.33465 0.0
C614 C 0.63718 1.00665 0.41243 0.0
H615 H 0.56796 0.98195 0.31545 0.0
H616 H 0.64821 0.02493 0.44291 0.0
C617 C 0.61747 0.08824 0.50537 0.0
C618 C 0.47595 0.96488 0.51241 0.0
N619 N 0.54001 0.05511 0.57487 0.0
C620 C 0.5377 0.05359 0.61546 0.0
C621 C 0.51885 0.07234 0.62953 0.0
C622 C 0.50138 0.09172 0.60096 0.0
C623 C 0.50616 0.09432 0.56042 0.0
C624 C 0.52598 0.07611 0.54824 0.0
C625 C 0.60589 0.08683 0.33186 0.0
O626 O 0.54157 1.01003 0.45634 0.0
O627 O 0.52034 0.99888 0.38456 0.0
O628 O 0.6144 0.08815 0.46504 0.0
O629 O 0.59476 0.06239 0.51564 0.0
O630 O 0.50157 0.95242 0.51846 0.0
O631 O 0.48554 0.9985 0.51515 0.0
O632 O 0.60841 0.10213 0.36783 0.0
O633 O 0.58329 0.05452 0.31833 0.0
H634 H 0.54798 0.03589 0.63558 0.0
H635 H 0.52718 0.07603 0.51567 0.0
H636 H 0.6297 0.92914 0.55143 0.0
H637 H 0.61921 0.95676 0.6742 0.0
H638 H 0.4738 0.11878 0.29234 0.0
H639 H 0.48505 0.1213 0.4283 0.0
H640 H 0.68207 0.98707 0.43354 0.0
H641 H 0.6002 0.9429 0.3035 0.0
H642 H 0.51557 0.06955 0.66096 0.0
H643 H 0.49313 0.10893 0.53744 0.0
H644 H 0.25234 0.23726 0.39621 0.0
H645 H 0.15779 0.2111 0.27495 0.0
H646 H 0.11664 0.17497 0.30929 0.0
H647 H 0.10583 0.14983 0.37285 0.0
H648 H 0.19743 0.17636 0.49639 0.0
H649 H 0.24047 0.21281 0.46261 0.0
C650 C 0.22279 0.22356 0.37735 0.0
C651 C 0.2087 0.22711 0.33252 0.0
C652 C 0.19827 0.20271 0.39785 0.0
C653 C 0.16999 0.20925 0.30919 0.0
C654 C 0.14609 0.18834 0.32888 0.0
C655 C 0.1352 0.16358 0.39264 0.0
C656 C 0.14806 0.16 0.43731 0.0
C657 C 0.15973 0.1848 0.37307 0.0
C658 C 0.1864 0.17846 0.46204 0.0
C659 C 0.21116 0.19933 0.44257 0.0
H660 H 0.85605 0.22037 0.39401 0.0
H661 H 0.89316 0.23973 0.2848 0.0
H662 H 0.93618 0.20896 0.31276 0.0
H663 H 0.96356 0.17689 0.36874 0.0
H664 H 0.92725 0.15899 0.47901 0.0
H665 H 0.88459 0.18987 0.45109 0.0
C666 C 0.87377 0.21819 0.37665 0.0
C667 C 0.87141 0.23254 0.33764 0.0
C668 C 0.89877 0.20093 0.39327 0.0
C669 C 0.89432 0.229 0.315 0.0
C670 C 0.91899 0.21143 0.33099 0.0
C671 C 0.94605 0.17952 0.38645 0.0
C672 C 0.94844 0.16548 0.42582 0.0
C673 C 0.92143 0.19729 0.37011 0.0
C674 C 0.92615 0.16975 0.44883 0.0
C675 C 0.90151 0.18722 0.43268 0.0
H676 H 0.89482 0.85164 0.36185 0.0
H677 H 0.84048 0.91565 0.28462 0.0
H678 H 0.88528 0.96967 0.33666 0.0
H679 H 0.94012 0.99851 0.40391 0.0
H680 H 0.99006 0.93369 0.48523 0.0
H681 H 0.94568 0.87962 0.43273 0.0
C682 C 0.89234 0.8773 0.35698 0.0
C683 C 0.86429 0.87975 0.31995 0.0
C684 C 0.91705 0.90785 0.38793 0.0
C685 C 0.86201 0.91325 0.31302 0.0
C686 C 0.8874 0.94405 0.34283 0.0
C687 C 0.94084 0.97241 0.41022 0.0
C688 C 0.96806 0.96972 0.44795 0.0
C689 C 0.91496 0.94161 0.3804 0.0
C690 C 0.96891 0.93603 0.45638 0.0
C691 C 0.94383 0.90528 0.42627 0.0
H692 H 0.22479 0.93789 0.40982 0.0
H693 H 0.18232 0.85801 0.48383 0.0
H694 H 0.13897 0.88634 0.48962 0.0
H695 H 0.1137 0.93401 0.47264 0.0
H696 H 0.15437 1.0106 0.39414 0.0
H697 H 0.19786 0.98262 0.3898 0.0
C698 C 0.20677 0.92729 0.42832 0.0
C699 C 0.20749 0.89699 0.44802 0.0
C700 C 0.18114 0.94239 0.42935 0.0
C701 C 0.18283 0.88216 0.46989 0.0
C702 C 0.15786 0.89797 0.47253 0.0
C703 C 0.13163 0.94385 0.45388 0.0
C704 C 0.131 0.97376 0.43327 0.0
C705 C 0.15661 0.92788 0.45197 0.0
C706 C 0.15421 0.98701 0.40931 0.0
C707 C 0.17933 0.97145 0.40748 0.0
H708 H 0.16772 0.79327 0.70508 0.0
H709 H 0.2665 0.89057 0.75363 0.0
H710 H 0.22989 0.92583 0.72247 0.0
H711 H 0.17104 0.92983 0.67986 0.0
H712 H 0.07046 0.83469 0.63146 0.0
H713 H 0.10654 0.79792 0.66304 0.0
C714 C 0.18099 0.82217 0.70903 0.0
C715 C 0.21987 0.83907 0.73131 0.0
C716 C 0.15962 0.84276 0.69055 0.0
C717 C 0.23674 0.87663 0.73613 0.0
C718 C 0.21585 0.897 0.71834 0.0
C719 C 0.15681 0.90108 0.67655 0.0
C720 C 0.11813 0.88513 0.65352 0.0
C721 C 0.17746 0.88039 0.69518 0.0
C722 C 0.10036 0.84768 0.64868 0.0
C723 C 0.12093 0.82667 0.66706 0.0
H724 H 0.20407 0.21772 0.69302 0.0
H725 H 0.21562 0.16262 0.80495 0.0
H726 H 0.17962 0.10496 0.75664 0.0
H727 H 0.13921 0.07137 0.68419 0.0
H728 H 0.12122 0.12642 0.57262 0.0
H729 H 0.16679 0.18303 0.61891 0.0
C730 C 0.19892 0.19299 0.70661 0.0
C731 C 0.21177 0.19408 0.75219 0.0
C732 C 0.17745 0.1601 0.67875 0.0
C733 C 0.20533 0.16217 0.76982 0.0
C734 C 0.18497 0.1293 0.74229 0.0
C735 C 0.14573 0.09561 0.66974 0.0
C736 C 0.12686 0.09487 0.62512 0.0
C737 C 0.17006 0.12808 0.69688 0.0
C738 C 0.13575 0.12638 0.60683 0.0
C739 C 0.16136 0.15877 0.63339 0.0
H740 H 0.91473 0.19221 0.67478 0.0
H741 H 0.97804 0.18642 0.80714 0.0
H742 H 1.01162 0.157 0.77993 0.0
H743 H 1.01333 0.12324 0.7194 0.0
H744 H 0.95341 0.13067 0.58584 0.0
H745 H 0.9269 0.16843 0.61301 0.0
C746 C 0.93664 0.1853 0.69749 0.0
C747 C 0.94377 0.19085 0.74266 0.0
C748 C 0.95538 0.16787 0.68158 0.0
C749 C 0.97232 0.18237 0.77219 0.0
C750 C 0.99118 0.16523 0.75665 0.0
C751 C 0.99591 0.13415 0.69576 0.0
C752 C 0.98493 0.12327 0.65045 0.0
C753 C 0.98163 0.15644 0.71142 0.0
C754 C 0.96139 0.13743 0.62093 0.0
C755 C 0.94647 0.15935 0.63639 0.0
H756 H 0.92405 0.87492 0.79355 0.0
H757 H 0.81708 0.83454 0.68773 0.0
H758 H 0.84639 0.86301 0.63689 0.0
H759 H 0.90272 0.9015 0.62229 0.0
H760 H 1.00863 0.94484 0.73008 0.0
H761 H 0.97966 0.91382 0.77948 0.0
C762 C 0.90714 0.87214 0.75931 0.0
C763 C 0.86835 0.85185 0.74462 0.0
C764 C 0.9241 0.88961 0.73025 0.0
C765 C 0.84703 0.84923 0.7001 0.0
C766 C 0.86381 0.86581 0.67089 0.0
C767 C 0.91948 0.90405 0.65652 0.0
C768 C 0.95805 0.92571 0.67201 0.0
C769 C 0.90237 0.88633 0.68551 0.0
C770 C 0.97899 0.92863 0.7168 0.0
C771 C 0.96241 0.91076 0.74534 0.0
H772 H 0.2759 0.1424 0.03432 0.0
H773 H 0.36792 0.22232 0.13811 0.0
H774 H 0.41142 0.19854 0.12472 0.0
H775 H 0.42208 0.15064 0.09047 0.0
H776 H 0.32907 0.06572 0.99394 0.0
H777 H 0.28741 0.09639 0.99658 0.0
C778 C 0.30552 0.15474 0.05371 0.0
C779 C 0.31859 0.1839 0.08721 0.0
C780 C 0.33019 0.13997 0.04723 0.0
C781 C 0.35713 0.20012 0.11166 0.0
C782 C 0.38203 0.18633 0.10437 0.0
C783 C 0.39264 0.13875 0.07013 0.0
C784 C 0.37845 0.10551 0.04304 0.0
C785 C 0.36863 0.15554 0.07334 0.0
C786 C 0.34064 0.09119 0.01537 0.0
C787 C 0.31675 0.10856 0.01709 0.0
H788 H 0.84699 0.36571 0.18557 0.0
H789 H 0.80133 0.44158 0.12537 0.0
H790 H 0.85537 0.49109 0.17826 0.0
H791 H 0.92119 0.51148 0.22845 0.0
H792 H 0.96905 0.43372 0.2748 0.0
H793 H 0.90863 0.38568 0.23967 0.0
C794 C 0.84877 0.3931 0.18391 0.0
C795 C 0.82141 0.40042 0.15056 0.0
C796 C 0.88007 0.42072 0.21257 0.0
C797 C 0.82295 0.43569 0.14996 0.0
C798 C 0.85356 0.46374 0.18034 0.0
C799 C 0.91746 0.48416 0.23395 0.0
C800 C 0.94926 0.47554 0.25257 0.0
C801 C 0.88306 0.45654 0.2105 0.0
C802 C 0.94474 0.44063 0.26044 0.0
C803 C 0.91026 0.41308 0.23957 0.0
H804 H 0.69779 0.89664 0.06954 0.0
H805 H 0.60771 0.79413 0.04596 0.0
H806 H 0.5628 0.82347 0.03131 0.0
H807 H 0.55075 0.87848 0.03732 0.0
H808 H 0.64219 0.98114 0.07165 0.0
H809 H 0.68549 0.95152 0.07274 0.0
C810 C 0.66828 0.88068 0.06093 0.0
C811 C 0.65622 0.84337 0.0595 0.0
C812 C 0.64312 0.89783 0.05609 0.0
C813 C 0.61779 0.82289 0.04694 0.0
C814 C 0.59214 0.8397 0.03931 0.0
C815 C 0.58 0.89437 0.04402 0.0
C816 C 0.59335 0.93183 0.05424 0.0
C817 C 0.60474 0.87719 0.04557 0.0
C818 C 0.63146 0.95217 0.06416 0.0
C819 C 0.65613 0.93531 0.0646 0.0
H820 H 0.21841 0.70714 0.17229 0.0
H821 H 0.16114 0.77417 0.19256 0.0
H822 H 0.10153 0.72258 0.16524 0.0
H823 H 0.06955 0.65651 0.15392 0.0
H824 H 0.132 0.5896 0.15208 0.0
H825 H 0.1866 0.64228 0.15668 0.0
C826 C 0.19296 0.71032 0.17081 0.0
C827 C 0.19423 0.74372 0.18602 0.0
C828 C 0.16009 0.68012 0.16005 0.0
C829 C 0.16073 0.74845 0.18106 0.0
C830 C 0.12685 0.71882 0.1664 0.0
C831 C 0.09502 0.65372 0.15375 0.0
C832 C 0.09718 0.61971 0.1523 0.0
C833 C 0.12675 0.68423 0.15877 0.0
C834 C 0.13012 0.61579 0.15291 0.0
C835 C 0.16114 0.64578 0.1555 0.0
H836 H 0.37898 0.8655 0.84284 0.0
H837 H 0.33023 0.852 0.94239 0.0
H838 H 0.37368 0.91243 0.98167 0.0
H839 H 0.42373 0.96974 0.98471 0.0
H840 H 0.4682 0.9827 0.88041 0.0
H841 H 0.42649 0.92223 0.84409 0.0
C842 C 0.37731 0.87631 0.8724 0.0
C843 C 0.35114 0.85547 0.88911 0.0
C844 C 0.40097 0.91098 0.89326 0.0
C845 C 0.35044 0.86814 0.92912 0.0
C846 C 0.37485 0.90264 0.95112 0.0
C847 C 0.42367 0.95955 0.9536 0.0
C848 C 0.44873 0.98072 0.9351 0.0
C849 C 0.39974 0.92455 0.9329 0.0
C850 C 0.44892 0.96704 0.89515 0.0
C851 C 0.42542 0.93236 0.87455 0.0
H852 H 0.19678 0.40128 0.99474 0.0
H853 H 0.14179 0.39638 0.85616 0.0
H854 H 0.10299 0.42623 0.8716 0.0
H855 H 0.08579 0.45524 0.92492 0.0
H856 H 0.13918 0.45639 0.06333 0.0
H857 H 0.17802 0.42773 0.04733 0.0
C858 C 0.17656 0.407 0.96784 0.0
C859 C 0.17253 0.39675 0.92434 0.0
C860 C 0.15415 0.42392 0.97693 0.0
C861 C 0.14548 0.40375 0.88997 0.0
C862 C 0.12334 0.42098 0.89881 0.0
C863 C 0.10545 0.44879 0.95167 0.0
C864 C 0.10952 0.45873 0.99548 0.0
C865 C 0.12743 0.43126 0.94224 0.0
C866 C 0.13575 0.45024 0.02937 0.0
C867 C 0.15793 0.43343 0.02028 0.0
H868 H 0.70295 0.17848 0.83306 0.0
H869 H 0.72489 0.2826 0.89849 0.0
H870 H 0.68531 0.25449 0.94032 0.0
H871 H 0.64404 0.19933 0.95832 0.0
H872 H 0.6198 0.0964 0.88738 0.0
H873 H 0.6606 0.12487 0.84807 0.0
C874 C 0.69913 0.19508 0.85652 0.0
C875 C 0.71707 0.23253 0.86287 0.0
C876 C 0.67586 0.17882 0.87964 0.0
C877 C 0.71134 0.25367 0.89291 0.0
C878 C 0.6888 0.23757 0.91695 0.0
C879 C 0.64792 0.18328 0.9344 0.0
C880 C 0.62899 0.14572 0.926 0.0
C881 C 0.67091 0.20005 0.91071 0.0
C882 C 0.63389 0.1253 0.89443 0.0
C883 C 0.65729 0.14155 0.87189 0.0
H884 H 0.89004 0.76178 0.91318 0.0
H885 H 0.82931 0.68573 0.79296 0.0
H886 H 0.85852 0.64456 0.82559 0.0
H887 H 0.90037 0.62935 0.88851 0.0
H888 H 0.96393 0.70656 0.00752 0.0
H889 H 0.93415 0.74748 0.97537 0.0
C890 C 0.88325 0.73625 0.89406 0.0
C891 C 0.85742 0.72702 0.85058 0.0
C892 C 0.90047 0.71262 0.91294 0.0
C893 C 0.8492 0.69381 0.82635 0.0
C894 C 0.86581 0.67008 0.84506 0.0
C895 C 0.90813 0.65525 0.90738 0.0
C896 C 0.93432 0.66445 0.95069 0.0
C897 C 0.89144 0.67914 0.88835 0.0
C898 C 0.94335 0.69813 0.97455 0.0
C899 C 0.92654 0.72182 0.95601 0.0
H900 H 0.23028 0.38163 0.31512 0.0
H901 H 0.19474 0.33219 0.181 0.0
H902 H 0.15341 0.36483 0.15727 0.0
H903 H 0.12598 0.40819 0.1725 0.0
H904 H 0.15939 0.4569 0.30654 0.0
H905 H 0.20154 0.42509 0.33055 0.0
C906 C 0.21366 0.37788 0.28063 0.0
C907 C 0.21675 0.35362 0.25036 0.0
C908 C 0.18886 0.39727 0.26637 0.0
C909 C 0.19402 0.35004 0.20586 0.0
C910 C 0.1699 0.36901 0.19189 0.0
C911 C 0.14206 0.41206 0.20715 0.0
C912 C 0.13843 0.43636 0.23684 0.0
C913 C 0.16679 0.39282 0.22158 0.0
C914 C 0.16089 0.43985 0.28159 0.0
C915 C 0.18535 0.42104 0.29586 0.0
H916 H 0.2289 0.62973 0.97041 0.0
H917 H 0.26606 0.73045 0.05338 0.0
H918 H 0.21746 0.70483 0.08428 0.0
H919 H 0.15312 0.66128 0.06784 0.0
H920 H 0.11146 0.56514 0.97392 0.0
H921 H 0.17145 0.58217 0.96447 0.0
C922 C 0.22756 0.6456 0.99685 0.0
C923 C 0.24899 0.68243 0.00755 0.0
C924 C 0.19673 0.63222 0.00965 0.0
C925 C 0.24863 0.70221 0.04349 0.0
C926 C 0.22008 0.68791 0.06006 0.0
C927 C 0.15755 0.64394 0.04592 0.0
C928 C 0.12785 0.61277 0.02052 0.0
C929 C 0.1919 0.65427 0.03997 0.0
C930 C 0.13366 0.5901 0.99244 0.0
C931 C 0.1681 0.59944 0.98763 0.0
H932 H 0.32843 0.19777 0.90797 0.0
H933 H 0.39457 0.26449 0.84072 0.0
H934 H 0.44434 0.24221 0.87242 0.0
H935 H 0.46672 0.20047 0.91409 0.0
H936 H 0.39969 0.12982 0.97688 0.0
H937 H 0.35294 0.15727 0.9535 0.0
C938 C 0.35405 0.20761 0.90106 0.0
C939 C 0.35817 0.23235 0.87218 0.0
C940 C 0.38221 0.19397 0.91854 0.0
C941 C 0.39111 0.24511 0.86282 0.0
C942 C 0.41946 0.23244 0.88084 0.0
C943 C 0.44188 0.19116 0.92267 0.0
C944 C 0.43635 0.16313 0.94707 0.0
C945 C 0.4149 0.20627 0.90782 0.0
C946 C 0.4045 0.1517 0.95869 0.0
C947 C 0.3777 0.16715 0.94489 0.0
H948 H 0.8357 0.38254 0.88463 0.0
H949 H 0.8803 0.30811 0.95105 0.0
H950 H 0.91991 0.35425 0.01533 0.0
H951 H 0.94554 0.41759 0.05172 0.0
H952 H 0.89928 0.49132 0.98646 0.0
H953 H 0.85636 0.44399 0.92432 0.0
C954 C 0.85399 0.37644 0.91323 0.0
C955 C 0.85516 0.34185 0.9125 0.0
C956 C 0.87621 0.40306 0.95106 0.0
C957 C 0.87879 0.33444 0.95032 0.0
C958 C 0.9015 0.36088 0.98738 0.0
C959 C 0.92505 0.42288 0.02471 0.0
C960 C 0.92524 0.45796 0.0244 0.0
C961 C 0.90073 0.39545 0.98822 0.0
C962 C 0.89929 0.46447 0.98811 0.0
C963 C 0.87504 0.43747 0.95212 0.0
H964 H 0.69248 0.89082 0.93704 0.0
H965 H 0.77288 0.98899 0.92435 0.0
H966 H 0.73713 0.02259 0.93914 0.0
H967 H 0.6839 0.02411 0.95703 0.0
H968 H 0.60258 0.92549 0.96758 0.0
H969 H 0.63746 0.89197 0.9512 0.0
C970 C 0.70195 0.91951 0.93701 0.0
C971 C 0.73542 0.93745 0.92997 0.0
C972 C 0.68119 0.93858 0.94522 0.0
C973 C 0.74754 0.97468 0.93045 0.0
C974 C 0.72703 0.99386 0.93867 0.0
C975 C 0.67399 0.99535 0.95638 0.0
C976 C 0.6412 0.97764 0.965 0.0
C977 C 0.69406 0.97612 0.94661 0.0
C978 C 0.62789 0.94007 0.96163 0.0
C979 C 0.64789 0.92078 0.95235 0.0
H980 H 0.8369 0.7109 0.20287 0.0
H981 H 0.89054 0.72482 0.34312 0.0
H982 H 0.92579 0.68856 0.33366 0.0
H983 H 0.94219 0.65138 0.28567 0.0
H984 H 0.8893 0.63939 0.14521 0.0
H985 H 0.85426 0.67506 0.15511 0.0
C986 C 0.85625 0.70619 0.23167 0.0
C987 C 0.86022 0.72145 0.27407 0.0
C988 C 0.87715 0.68487 0.22598 0.0
C989 C 0.88608 0.7142 0.31008 0.0
C990 C 0.90657 0.69311 0.30461 0.0
C991 C 0.92323 0.65646 0.25685 0.0
C992 C 0.91901 0.64099 0.21427 0.0
C993 C 0.90255 0.67807 0.2627 0.0
C994 C 0.89352 0.64903 0.17847 0.0
C995 C 0.87323 0.67015 0.1841 0.0
H996 H 0.36986 0.88936 0.25226 0.0
H997 H 0.31716 0.79855 0.14831 0.0
H998 H 0.34866 0.8344 0.10309 0.0
H999 H 0.39143 0.89221 0.09309 0.0
H1000 H 0.44572 0.98134 0.19965 0.0
H1001 H 0.41342 0.94561 0.2435 0.0
C1002 C 0.36508 0.87737 0.21963 0.0
C1003 C 0.34086 0.84138 0.20359 0.0
C1004 C 0.38368 0.89795 0.19415 0.0
C1005 C 0.33561 0.82619 0.1615 0.0
C1006 C 0.35358 0.84673 0.13557 0.0
C1007 C 0.39608 0.90377 0.12585 0.0
C1008 C 0.42096 0.93955 0.14286 0.0
C1009 C 0.37769 0.88274 0.1515 0.0
C1010 C 0.42686 0.95395 0.1856 0.0
C1011 C 0.40833 0.93352 0.21081 0.0
H1012 H 0.72767 0.16217 0.21001 0.0
H1013 H 0.68149 0.22236 0.27057 0.0
H1014 H 0.61821 0.18199 0.22519 0.0
H1015 H 0.57625 0.13091 0.166 0.0
H1016 H 0.62337 0.07889 0.09666 0.0
H1017 H 0.68655 0.11566 0.14682 0.0
C1018 C 0.7038 0.16613 0.2139 0.0
C1019 C 0.70914 0.19435 0.24474 0.0
C1020 C 0.66787 0.14487 0.18533 0.0
C1021 C 0.67795 0.19995 0.24812 0.0
C1022 C 0.64186 0.17732 0.22171 0.0
C1023 C 0.60054 0.12807 0.16189 0.0
C1024 C 0.59584 0.10275 0.12806 0.0
C1025 C 0.63654 0.14995 0.1899 0.0
C1026 C 0.62694 0.0989 0.12234 0.0
C1027 C 0.66282 0.11949 0.15124 0.0
H1028 H 0.75361 0.7442 0.88842 0.0
H1029 H 0.66651 0.68988 0.7639 0.0
H1030 H 0.62545 0.65766 0.80089 0.0
H1031 H 0.61377 0.64228 0.8677 0.0
H1032 H 0.69914 0.69375 0.99386 0.0
H1033 H 0.74067 0.72908 0.95762 0.0
C1034 C 0.72553 0.72561 0.86949 0.0
C1035 C 0.71345 0.71974 0.82302 0.0
C1036 C 0.70152 0.70617 0.89137 0.0
C1037 C 0.67694 0.69511 0.79942 0.0
C1038 C 0.65321 0.67647 0.82062 0.0
C1039 C 0.64141 0.66129 0.88756 0.0
C1040 C 0.65301 0.66501 0.93373 0.0
C1041 C 0.6652 0.68136 0.86648 0.0
C1042 C 0.68915 0.69002 0.95837 0.0
C1043 C 0.71302 0.71033 0.93752 0.0
H1044 H 0.33896 0.69571 0.86025 0.0
H1045 H 0.42626 0.79026 0.85154 0.0
H1046 H 0.47301 0.76508 0.88675 0.0
H1047 H 0.48894 0.71545 0.91827 0.0
H1048 H 0.4014 0.62055 0.92517 0.0
H1049 H 0.35485 0.64668 0.89237 0.0
C1050 C 0.36821 0.71094 0.86614 0.0
C1051 C 0.37902 0.74484 0.85318 0.0
C1052 C 0.39491 0.69622 0.88608 0.0
C1053 C 0.41709 0.76408 0.86108 0.0
C1054 C 0.44388 0.74972 0.88125 0.0
C1055 C 0.45973 0.70076 0.91309 0.0
C1056 C 0.44856 0.66626 0.92425 0.0
C1057 C 0.4331 0.71576 0.89373 0.0
C1058 C 0.41056 0.64714 0.91665 0.0
C1059 C 0.38399 0.66206 0.89797 0.0
H1060 H 0.38896 0.39746 0.80283 0.0
H1061 H 0.36242 0.33452 0.90034 0.0
H1062 H 0.40742 0.38357 0.9587 0.0
H1063 H 0.45603 0.44351 0.98243 0.0
H1064 H 0.48335 0.50674 0.88525 0.0
H1065 H 0.43646 0.45861 0.82671 0.0
C1066 C 0.39305 0.3947 0.83686 0.0
C1067 C 0.3726 0.36261 0.84732 0.0
C1068 C 0.41919 0.423 0.87044 0.0
C1069 C 0.37789 0.35912 0.89146 0.0
C1070 C 0.40366 0.3871 0.92494 0.0
C1071 C 0.4516 0.44682 0.94847 0.0
C1072 C 0.47321 0.47854 0.93833 0.0
C1073 C 0.42471 0.41904 0.91484 0.0
C1074 C 0.46705 0.48252 0.89409 0.0
C1075 C 0.44029 0.455 0.86046 0.0
H1076 H 0.62815 0.36969 0.85217 0.0
H1077 H 0.74188 0.43221 0.93599 0.0
H1078 H 0.71978 0.46547 0.97742 0.0
H1079 H 0.6696 0.48438 0.9794 0.0
H1080 H 0.5563 0.4256 0.89133 0.0
H1081 H 0.5767 0.38312 0.86141 0.0
C1082 C 0.64793 0.39021 0.88002 0.0
C1083 C 0.68642 0.39924 0.89061 0.0
C1084 C 0.63516 0.41015 0.90223 0.0
C1085 C 0.71204 0.42507 0.92729 0.0
C1086 C 0.69947 0.44426 0.95066 0.0
C1087 C 0.64921 0.46159 0.95467 0.0
C1088 C 0.61171 0.45813 0.93703 0.0
C1089 C 0.66128 0.43818 0.93692 0.0
C1090 C 0.58547 0.42886 0.90471 0.0
C1091 C 0.59709 0.40468 0.88772 0.0
H1092 H 0.75184 0.37379 0.21507 0.0
H1093 H 0.6746 0.30685 0.26996 0.0
H1094 H 0.62975 0.33477 0.2361 0.0
H1095 H 0.61232 0.37744 0.18967 0.0
H1096 H 0.68906 0.44227 0.13222 0.0
H1097 H 0.73452 0.41637 0.16884 0.0
C1098 C 0.72496 0.36504 0.21908 0.0
C1099 C 0.71617 0.33798 0.24421 0.0
C1100 C 0.69933 0.38088 0.19918 0.0
C1101 C 0.68191 0.32769 0.25066 0.0
C1102 C 0.65623 0.34349 0.23113 0.0
C1103 C 0.63868 0.38544 0.18443 0.0
C1104 C 0.64707 0.41172 0.15795 0.0
C1105 C 0.66451 0.36986 0.20493 0.0
C1106 C 0.68188 0.42239 0.15267 0.0
C1107 C 0.70785 0.40735 0.17333 0.0
H1108 H 0.69116 0.72235 0.22211 0.0
H1109 H 0.75197 0.65974 0.29127 0.0
H1110 H 0.70964 0.60687 0.23605 0.0
H1111 H 0.65418 0.5783 0.16956 0.0
H1112 H 0.59705 0.64202 0.09645 0.0
H1113 H 0.64047 0.69552 0.15071 0.0
C1114 C 0.69559 0.69732 0.22448 0.0
C1115 C 0.72461 0.69483 0.26029 0.0
C1116 C 0.67223 0.66759 0.19177 0.0
C1117 C 0.72953 0.66209 0.26399 0.0
C1118 C 0.7056 0.632 0.23233 0.0
C1119 C 0.65181 0.60411 0.16529 0.0
C1120 C 0.62278 0.60663 0.12964 0.0
C1121 C 0.67681 0.63446 0.19625 0.0
C1122 C 0.61965 0.6399 0.12375 0.0
C1123 C 0.64409 0.67025 0.15491 0.0
H1124 H 0.42742 0.67449 0.23074 0.0
H1125 H 0.3767 0.68234 0.09518 0.0
H1126 H 0.41936 0.6596 0.07587 0.0
H1127 H 0.46442 0.63029 0.09693 0.0
H1128 H 0.50217 0.60983 0.23034 0.0
H1129 H 0.47355 0.6473 0.252 0.0
C1130 C 0.42654 0.67213 0.19718 0.0
C1131 C 0.39968 0.68014 0.16429 0.0
C1132 C 0.44907 0.65709 0.18628 0.0
C1133 C 0.39763 0.67634 0.12073 0.0
C1134 C 0.42181 0.66333 0.10987 0.0
C1135 C 0.46615 0.63363 0.1307 0.0
C1136 C 0.4847 0.61631 0.16151 0.0
C1137 C 0.44654 0.6523 0.14222 0.0
C1138 C 0.48839 0.62277 0.20565 0.0
C1139 C 0.47151 0.64384 0.21811 0.0
H1140 H 0.41721 0.35455 0.27124 0.0
H1141 H 0.31042 0.33652 0.17145 0.0
H1142 H 0.34199 0.36889 0.124 0.0
H1143 H 0.40098 0.40448 0.11142 0.0
H1144 H 0.50695 0.4237 0.21424 0.0
H1145 H 0.47496 0.38934 0.25914 0.0
C1146 C 0.4007 0.35754 0.23905 0.0
C1147 C 0.36125 0.3428 0.22517 0.0
C1148 C 0.41914 0.37681 0.21216 0.0
C1149 C 0.34069 0.34735 0.18324 0.0
C1150 C 0.35885 0.36601 0.15601 0.0
C1151 C 0.41708 0.40094 0.1435 0.0
C1152 C 0.45672 0.41695 0.15894 0.0
C1153 C 0.39821 0.38116 0.17011 0.0
C1154 C 0.47667 0.41203 0.20101 0.0
C1155 C 0.45831 0.39224 0.22699 0.0
H1156 H 0.90423 0.69271 0.65381 0.0
H1157 H 0.80518 0.59658 0.62067 0.0
H1158 H 0.83977 0.56075 0.60813 0.0
H1159 H 0.898 0.55683 0.6066 0.0
H1160 H 0.99775 0.65253 0.64248 0.0
H1161 H 0.96299 0.68861 0.65368 0.0
C1162 C 0.8902 0.66393 0.64359 0.0
C1163 C 0.85217 0.64728 0.6379 0.0
C1164 C 0.91033 0.64353 0.63686 0.0
C1165 C 0.83448 0.60993 0.62546 0.0
C1166 C 0.85418 0.58949 0.61811 0.0
C1167 C 0.91203 0.58563 0.61646 0.0
C1168 C 0.95024 0.60208 0.62311 0.0
C1169 C 0.89206 0.60602 0.62362 0.0
C1170 C 0.96832 0.63928 0.63712 0.0
C1171 C 0.94847 0.6599 0.64348 0.0
H1172 H 0.3495 0.85997 0.55694 0.0
H1173 H 0.33769 0.95945 0.58605 0.0
H1174 H 0.37156 0.98689 0.53877 0.0
H1175 H 0.42146 0.98773 0.51311 0.0
H1176 H 0.44414 0.89162 0.50005 0.0
H1177 H 0.38865 0.85724 0.5159 0.0
C1178 C 0.35263 0.88709 0.55108 0.0
C1179 C 0.34239 0.90819 0.5758 0.0
C1180 C 0.37538 0.9035 0.52785 0.0
C1181 C 0.3461 0.94308 0.56778 0.0
C1182 C 0.36592 0.95883 0.54131 0.0
C1183 C 0.41364 0.95903 0.51246 0.0
C1184 C 0.43752 0.94235 0.50742 0.0
C1185 C 0.38362 0.94024 0.5249 0.0
C1186 C 0.42669 0.90511 0.50535 0.0
C1187 C 0.39502 0.88553 0.5144 0.0
H1188 H 0.19048 0.30376 0.67113 0.0
H1189 H 0.27485 0.39355 0.76818 0.0
H1190 H 0.24147 0.4323 0.7374 0.0
H1191 H 0.18551 0.43897 0.68828 0.0
H1192 H 0.09697 0.34779 0.59669 0.0
H1193 H 0.1351 0.31148 0.61885 0.0
C1194 C 0.20175 0.33199 0.68475 0.0
C1195 C 0.23484 0.34603 0.72167 0.0
C1196 C 0.18157 0.35371 0.66804 0.0
C1197 C 0.24922 0.38239 0.73976 0.0
C1198 C 0.23017 0.40446 0.72227 0.0
C1199 C 0.17446 0.41112 0.67319 0.0
C1200 C 0.13822 0.39597 0.64148 0.0
C1201 C 0.19578 0.39011 0.68735 0.0
C1202 C 0.12483 0.36018 0.62118 0.0
C1203 C 0.14649 0.3393 0.63408 0.0
H1204 H 0.72892 0.23887 0.62594 0.0
H1205 H 0.7138 0.17654 0.72795 0.0
H1206 H 0.67316 0.12307 0.67294 0.0
H1207 H 0.63998 0.09381 0.59535 0.0
H1208 H 0.65705 0.15532 0.49319 0.0
H1209 H 0.69844 0.20863 0.54822 0.0
C1210 C 0.71687 0.21355 0.63614 0.0
C1211 C 0.7244 0.21203 0.6813 0.0
C1212 C 0.6936 0.18249 0.60406 0.0
C1213 C 0.70857 0.17877 0.69365 0.0
C1214 C 0.68519 0.14804 0.66207 0.0
C1215 C 0.65292 0.11878 0.58502 0.0
C1216 C 0.64508 0.12017 0.53975 0.0
C1217 C 0.67721 0.14954 0.6171 0.0
C1218 C 0.66244 0.15304 0.52749 0.0
C1219 C 0.68614 0.18375 0.5591 0.0
H1220 H 0.86015 0.39019 0.39553 0.0
H1221 H 0.90429 0.36561 0.30086 0.0
H1222 H 0.96689 0.40931 0.34559 0.0
H1223 H 1.00792 0.45442 0.41235 0.0
H1224 H 0.96536 0.46262 0.51522 0.0
H1225 H 0.90255 0.42398 0.46707 0.0
C1226 C 0.88322 0.39485 0.38404 0.0
C1227 C 0.87738 0.37739 0.34296 0.0
C1228 C 0.91912 0.4164 0.41197 0.0
C1229 C 0.90799 0.38157 0.33035 0.0
C1230 C 0.94367 0.40562 0.35648 0.0
C1231 C 0.98486 0.44746 0.42418 0.0
C1232 C 0.99045 0.46279 0.46628 0.0
C1233 C 0.94942 0.42334 0.39733 0.0
C1234 C 0.96105 0.45246 0.48218 0.0
C1235 C 0.92529 0.43029 0.45477 0.0
H1236 H 0.74674 0.86304 0.37794 0.0
H1237 H 0.70031 0.85255 0.23719 0.0
H1238 H 0.66525 0.88966 0.244 0.0
H1239 H 0.64689 0.92669 0.28955 0.0
H1240 H 0.69238 0.93565 0.43044 0.0
H1241 H 0.72736 0.89904 0.42338 0.0
C1242 C 0.729 0.86867 0.34847 0.0
C1243 C 0.72703 0.85401 0.30674 0.0
C1244 C 0.70816 0.89061 0.35256 0.0
C1245 C 0.70322 0.86256 0.26982 0.0
C1246 C 0.68282 0.88419 0.27373 0.0
C1247 C 0.66419 0.92077 0.31909 0.0
C1248 C 0.6663 0.93568 0.3609 0.0
C1249 C 0.68484 0.8986 0.31491 0.0
C1250 C 0.68977 0.92649 0.39768 0.0
C1251 C 0.71004 0.90481 0.39369 0.0
H1252 H 0.18334 0.72067 0.34283 0.0
H1253 H 0.28941 0.71258 0.41151 0.0
H1254 H 0.26289 0.67589 0.45978 0.0
H1255 H 0.20863 0.64397 0.48089 0.0
H1256 H 0.10068 0.64546 0.40588 0.0
H1257 H 0.1284 0.6866 0.36195 0.0
C1258 C 0.20062 0.71115 0.36874 0.0
C1259 C 0.23842 0.71974 0.37415 0.0
C1260 C 0.18468 0.68869 0.39517 0.0
C1261 C 0.26033 0.70651 0.40703 0.0
C1262 C 0.24515 0.68549 0.43458 0.0
C1263 C 0.19135 0.65366 0.45521 0.0
C1264 C 0.15277 0.64213 0.44703 0.0
C1265 C 0.20727 0.67614 0.4288 0.0
C1266 C 0.13048 0.65413 0.41293 0.0
C1267 C 0.14634 0.67765 0.38779 0.0
H1268 H 0.39155 0.23473 0.37328 0.0
H1269 H 0.33582 0.195 0.23469 0.0
H1270 H 0.37185 0.15671 0.24005 0.0
H1271 H 0.41973 0.13281 0.28376 0.0
H1272 H 0.47612 0.17354 0.42232 0.0
H1273 H 0.43995 0.21127 0.41681 0.0
C1274 C 0.38708 0.21779 0.34402 0.0
C1275 C 0.36005 0.21863 0.30335 0.0
C1276 C 0.4084 0.19507 0.34725 0.0
C1277 C 0.35573 0.19578 0.26655 0.0
C1278 C 0.37665 0.17349 0.2696 0.0
C1279 C 0.42457 0.1499 0.31305 0.0
C1280 C 0.45145 0.14874 0.35382 0.0
C1281 C 0.40324 0.17265 0.30976 0.0
C1282 C 0.45581 0.17192 0.39048 0.0
C1283 C 0.43498 0.19428 0.38734 0.0
H1284 H 0.69194 0.81704 0.66799 0.0
H1285 H 0.7484 0.88855 0.79197 0.0
H1286 H 0.71767 0.92923 0.76194 0.0
H1287 H 0.67634 0.94611 0.69974 0.0
H1288 H 0.61774 0.87352 0.57663 0.0
H1289 H 0.64781 0.83238 0.60691 0.0
C1290 C 0.69733 0.84137 0.68858 0.0
C1291 C 0.72262 0.84945 0.7323 0.0
C1292 C 0.67935 0.8649 0.67111 0.0
C1293 C 0.72903 0.88124 0.75832 0.0
C1294 C 0.71153 0.90477 0.74109 0.0
C1295 C 0.66974 0.92114 0.67956 0.0
C1296 C 0.64498 0.9135 0.63556 0.0
C1297 C 0.68682 0.89707 0.69742 0.0
C1298 C 0.63729 0.8809 0.61017 0.0
C1299 C 0.65429 0.85704 0.6276 0.0
H1300 H 0.73933 0.2102 0.39462 0.0
H1301 H 0.77646 0.1324 0.46271 0.0
H1302 H 0.72503 0.08379 0.40574 0.0
H1303 H 0.66265 0.06496 0.34742 0.0
H1304 H 0.62172 0.14487 0.29235 0.0
H1305 H 0.68224 0.19173 0.33255 0.0
C1306 C 0.73629 0.1826 0.39705 0.0
C1307 C 0.76031 0.17449 0.43359 0.0
C1308 C 0.70648 0.15552 0.36565 0.0
C1309 C 0.75726 0.1389 0.43552 0.0
C1310 C 0.7282 0.11137 0.40282 0.0
C1311 C 0.66809 0.09244 0.34171 0.0
C1312 C 0.63779 0.102 0.31839 0.0
C1313 C 0.70172 0.11942 0.36878 0.0
C1314 C 0.64476 0.13716 0.31021 0.0
C1315 C 0.67906 0.16404 0.33423 0.0
H1316 H 0.88415 0.68165 0.50158 0.0
H1317 H 0.98023 0.77793 0.56893 0.0
H1318 H 1.02022 0.74312 0.58637 0.0
H1319 H 0.02894 0.68763 0.5717 0.0
H1320 H 0.93297 0.59137 0.50333 0.0
H1321 H 0.89168 0.62408 0.49718 0.0
C1322 C 0.9136 0.69486 0.52137 0.0
C1323 C 0.92938 0.73233 0.53345 0.0
C1324 C 0.93649 0.67487 0.53022 0.0
C1325 C 0.96764 0.74914 0.55871 0.0
C1326 C 0.99048 0.7293 0.56852 0.0
C1327 C 0.99894 0.67346 0.5565 0.0
C1328 C 0.98417 0.63715 0.53767 0.0
C1329 C 0.97543 0.69246 0.55268 0.0
C1330 C 0.94519 0.61947 0.51749 0.0
C1331 C 0.92151 0.6381 0.5141 0.0
H1332 H 0.36169 0.86634 0.36897 0.0
H1333 H 0.42733 0.80557 0.35702 0.0
H1334 H 0.48474 0.858 0.39292 0.0
H1335 H 0.51535 0.92327 0.41656 0.0
H1336 H 0.44831 0.98591 0.41511 0.0
H1337 H 0.39204 0.93107 0.39535 0.0
C1338 C 0.38835 0.86445 0.37485 0.0
C1339 C 0.39011 0.8323 0.36009 0.0
C1340 C 0.42099 0.89536 0.39268 0.0
C1341 C 0.42525 0.83019 0.36798 0.0
C1342 C 0.45807 0.86019 0.3883 0.0
C1343 C 0.48851 0.92461 0.41326 0.0
C1344 C 0.48582 0.95813 0.41874 0.0
C1345 C 0.45619 0.89324 0.39924 0.0
C1346 C 0.45087 0.96011 0.41218 0.0
C1347 C 0.41878 0.92886 0.40053 0.0
H1348 H 0.23198 0.38424 0.44802 0.0
H1349 H 0.33772 0.44926 0.5479 0.0
H1350 H 0.30705 0.48273 0.57517 0.0
H1351 H 0.25046 0.49525 0.56779 0.0
H1352 H 0.14536 0.42938 0.46747 0.0
H1353 H 0.17542 0.39363 0.44406 0.0
C1354 C 0.24825 0.40511 0.47648 0.0
C1355 C 0.28702 0.41418 0.49603 0.0
C1356 C 0.23054 0.424 0.49192 0.0
C1357 C 0.30784 0.442 0.53208 0.0
C1358 C 0.29033 0.46103 0.54775 0.0
C1359 C 0.23422 0.47285 0.54111 0.0
C1360 C 0.19584 0.46485 0.51948 0.0
C1361 C 0.25177 0.45258 0.52746 0.0
C1362 C 0.17487 0.43568 0.48507 0.0
C1363 C 0.19207 0.41542 0.4714 0.0
H1364 H 0.37106 0.14004 0.60908 0.0
H1365 H 0.45752 0.20434 0.72928 0.0
H1366 H 0.50082 0.17924 0.71723 0.0
H1367 H 0.5148 0.1392 0.67199 0.0
H1368 H 0.42852 0.07587 0.55145 0.0
H1369 H 0.38456 0.09961 0.56465 0.0
C1370 C 0.39921 0.1483 0.63298 0.0
C1371 C 0.41079 0.17425 0.67005 0.0
C1372 C 0.42416 0.13374 0.62583 0.0
C1373 C 0.44775 0.18488 0.70013 0.0
C1374 C 0.47258 0.17033 0.69341 0.0
C1375 C 0.48631 0.13056 0.64883 0.0
C1376 C 0.47501 0.10595 0.61071 0.0
C1377 C 0.46122 0.14483 0.6563 0.0
C1378 C 0.43803 0.09508 0.5808 0.0
C1379 C 0.41284 0.10861 0.58837 0.0
H1380 H 0.87823 0.38784 0.75646 0.0
H1381 H 0.86483 0.28553 0.6947 0.0
H1382 H 0.9051 0.31586 0.65458 0.0
H1383 H 0.94422 0.37233 0.63659 0.0
H1384 H 0.96122 0.47377 0.70463 0.0
H1385 H 0.91957 0.44316 0.74235 0.0
C1386 C 0.88415 0.37213 0.73426 0.0
C1387 C 0.86826 0.33444 0.72838 0.0
C1388 C 0.90797 0.38974 0.71217 0.0
C1389 C 0.87673 0.31456 0.69995 0.0
C1390 C 0.89965 0.33193 0.67684 0.0
C1391 C 0.93856 0.3876 0.65951 0.0
C1392 C 0.95553 0.42537 0.66741 0.0
C1393 C 0.91535 0.36961 0.68248 0.0
C1394 C 0.9485 0.44476 0.69786 0.0
C1395 C 0.92466 0.42726 0.7195 0.0
H1396 H 0.21303 0.71061 0.73663 0.0
H1397 H 0.25579 0.71695 0.63213 0.0
H1398 H 0.21069 0.6559 0.59723 0.0
H1399 H 0.16138 0.59966 0.5999 0.0
H1400 H 0.12392 0.5937 0.70972 0.0
H1401 H 0.16664 0.65503 0.7412 0.0
C1402 C 0.21302 0.69813 0.70693 0.0
C1403 C 0.23803 0.71724 0.68762 0.0
C1404 C 0.18867 0.66299 0.68878 0.0
C1405 C 0.23647 0.70231 0.6474 0.0
C1406 C 0.21114 0.6674 0.62791 0.0
C1407 C 0.16304 0.61174 0.63098 0.0
C1408 C 0.13968 0.59223 0.65257 0.0
C1409 C 0.18765 0.64721 0.64893 0.0
C1410 C 0.14187 0.60805 0.69273 0.0
C1411 C 0.16593 0.64324 0.71051 0.0
loop_
_geom_bond_atom_site_label_1
_geom_bond_atom_site_label_2
_geom_bond_distance
_geom_bond_site_symmetry_2
_ccdc_geom_bond_type
C0 Eu1 2.835 . S
C0 C2 1.500 . S
C0 O20 1.257 . S
C0 O21 1.260 . S
Eu1 C0 2.835 . S
Eu1 O20 2.473 . S
Eu1 O21 2.480 . S
Eu1 O22 2.430 . S
Eu1 O23 2.670 . S
Eu1 O24 2.394 . S
Eu1 O29 2.355 . S
Eu1 O31 2.374 . S
C2 C0 1.500 . S
C2 C3 1.377 . S
C2 C7 1.377 . S
C3 C2 1.377 . S
C3 C4 1.395 . S
C3 H32 0.931 . S
C4 C3 1.395 . S
C4 C5 1.383 . S
C4 H33 0.931 . S
C5 C4 1.383 . S
C5 C6 1.394 . S
C6 C5 1.394 . S
C6 C7 1.378 . S
C6 H34 0.931 . S
C7 C2 1.377 . S
C7 C6 1.378 . S
C7 H35 0.931 . S
C8 O22 1.259 . S
C8 O23 1.270 . S
C9 O24 1.251 . S
C9 O25 1.251 . S
C10 Eu11 2.835 . S
C10 C12 1.500 . S
C10 O26 1.257 . S
C10 O27 1.260 . S
Eu11 C10 2.835 . S
Eu11 O23 2.355 . S
Eu11 O25 2.374 . S
Eu11 O26 2.473 . S
Eu11 O27 2.480 . S
Eu11 O28 2.430 . S
Eu11 O29 2.670 . S
Eu11 O30 2.394 . S
C12 C10 1.500 . S
C12 C13 1.377 . S
C12 C17 1.377 . S
C13 C12 1.377 . S
C13 C14 1.395 . S
C13 H36 0.931 . S
C14 C13 1.395 . S
C14 C15 1.383 . S
C14 H37 0.931 . S
C15 C14 1.383 . S
C15 C16 1.394 . S
C16 C15 1.394 . S
C16 C17 1.378 . S
C16 H38 0.931 . S
C17 C12 1.377 . S
C17 C16 1.378 . S
C17 H39 0.931 . S
C18 O28 1.259 . S
C18 O29 1.270 . S
C19 O30 1.251 . S
C19 O31 1.251 . S
O20 C0 1.257 . S
O20 Eu1 2.473 . S
O21 C0 1.260 . S
O21 Eu1 2.480 . S
O22 Eu1 2.430 . S
O22 C8 1.259 . S
O23 Eu1 2.670 . S
O23 C8 1.270 . S
O23 Eu11 2.355 . S
O24 Eu1 2.394 . S
O24 C9 1.251 . S
O25 C9 1.251 . S
O25 Eu11 2.374 . S
O26 C10 1.257 . S
O26 Eu11 2.473 . S
O27 C10 1.260 . S
O27 Eu11 2.480 . S
O28 Eu11 2.430 . S
O28 C18 1.259 . S
O29 Eu1 2.355 . S
O29 Eu11 2.670 . S
O29 C18 1.270 . S
O30 Eu11 2.394 . S
O30 C19 1.251 . S
O31 Eu1 2.374 . S
O31 C19 1.251 . S
H32 C3 0.931 . S
H33 C4 0.931 . S
H34 C6 0.931 . S
H35 C7 0.931 . S
H36 C13 0.931 . S
H37 C14 0.931 . S
H38 C16 0.931 . S
H39 C17 0.931 . S
C40 Eu41 2.835 . S
C40 C42 1.500 . S
C40 O60 1.257 . S
C40 O61 1.260 . S
Eu41 C40 2.835 . S
Eu41 O60 2.473 . S
Eu41 O61 2.480 . S
Eu41 O62 2.430 . S
Eu41 O63 2.670 . S
Eu41 O64 2.394 . S
Eu41 O69 2.355 . S
Eu41 O71 2.374 . S
C42 C40 1.500 . S
C42 C43 1.377 . S
C42 C47 1.377 . S
C43 C42 1.377 . S
C43 C44 1.395 . S
C43 H72 0.931 . S
C44 C43 1.395 . S
C44 C45 1.383 . S
C44 H73 0.931 . S
C45 C44 1.383 . S
C45 C46 1.394 . S
C46 C45 1.394 . S
C46 C47 1.378 . S
C46 H74 0.931 . S
C47 C42 1.377 . S
C47 C46 1.378 . S
C47 H75 0.931 . S
C48 O62 1.259 . S
C48 O63 1.270 . S
C49 O64 1.251 . S
C49 O65 1.251 . S
C50 Eu51 2.835 . S
C50 C52 1.500 . S
C50 O66 1.257 . S
C50 O67 1.260 . S
Eu51 C50 2.835 . S
Eu51 O63 2.355 . S
Eu51 O65 2.374 . S
Eu51 O66 2.473 . S
Eu51 O67 2.480 . S
Eu51 O68 2.430 . S
Eu51 O69 2.670 . S
Eu51 O70 2.394 . S
C52 C50 1.500 . S
C52 C53 1.377 . S
C52 C57 1.377 . S
C53 C52 1.377 . S
C53 C54 1.395 . S
C53 H76 0.931 . S
C54 C53 1.395 . S
C54 C55 1.383 . S
C54 H77 0.931 . S
C55 C54 1.383 . S
C55 C56 1.394 . S
C56 C55 1.394 . S
C56 C57 1.378 . S
C56 H78 0.931 . S
C57 C52 1.377 . S
C57 C56 1.378 . S
C57 H79 0.931 . S
C58 O68 1.259 . S
C58 O69 1.270 . S
C59 O70 1.251 . S
C59 O71 1.251 . S
O60 C40 1.257 . S
O60 Eu41 2.473 . S
O61 C40 1.260 . S
O61 Eu41 2.480 . S
O62 Eu41 2.430 . S
O62 C48 1.259 . S
O63 Eu41 2.670 . S
O63 C48 1.270 . S
O63 Eu51 2.355 . S
O64 Eu41 2.394 . S
O64 C49 1.251 . S
O65 C49 1.251 . S
O65 Eu51 2.374 . S
O66 C50 1.257 . S
O66 Eu51 2.473 . S
O67 C50 1.260 . S
O67 Eu51 2.480 . S
O68 Eu51 2.430 . S
O68 C58 1.259 . S
O69 Eu41 2.355 . S
O69 Eu51 2.670 . S
O69 C58 1.270 . S
O70 Eu51 2.394 . S
O70 C59 1.251 . S
O71 Eu41 2.374 . S
O71 C59 1.251 . S
H72 C43 0.931 . S
H73 C44 0.931 . S
H74 C46 0.931 . S
H75 C47 0.931 . S
H76 C53 0.931 . S
H77 C54 0.931 . S
H78 C56 0.931 . S
H79 C57 0.931 . S
C80 Eu81 2.835 . S
C80 C82 1.500 . S
C80 O100 1.257 . S
C80 O101 1.260 . S
Eu81 C80 2.835 . S
Eu81 O100 2.473 . S
Eu81 O101 2.480 . S
Eu81 O102 2.430 . S
Eu81 O103 2.670 . S
Eu81 O104 2.394 . S
Eu81 O109 2.355 . S
Eu81 O111 2.374 . S
C82 C80 1.500 . S
C82 C83 1.377 . S
C82 C87 1.377 . S
C83 C82 1.377 . S
C83 C84 1.395 . S
C83 H112 0.931 . S
C84 C83 1.395 . S
C84 C85 1.383 . S
C84 H113 0.931 . S
C85 C84 1.383 . S
C85 C86 1.394 . S
C86 C85 1.394 . S
C86 C87 1.378 . S
C86 H114 0.931 . S
C87 C82 1.377 . S
C87 C86 1.378 . S
C87 H115 0.931 . S
C88 O102 1.259 . S
C88 O103 1.270 . S
C89 O104 1.251 . S
C89 O105 1.251 . S
C90 Eu91 2.835 . S
C90 C92 1.500 . S
C90 O106 1.257 . S
C90 O107 1.260 . S
Eu91 C90 2.835 . S
Eu91 O103 2.355 . S
Eu91 O105 2.374 . S
Eu91 O106 2.473 . S
Eu91 O107 2.480 . S
Eu91 O108 2.430 . S
Eu91 O109 2.670 . S
Eu91 O110 2.394 . S
C92 C90 1.500 . S
C92 C93 1.377 . S
C92 C97 1.377 . S
C93 C92 1.377 . S
C93 C94 1.395 . S
C93 H116 0.931 . S
C94 C93 1.395 . S
C94 C95 1.383 . S
C94 H117 0.931 . S
C95 C94 1.383 . S
C95 C96 1.394 . S
C96 C95 1.394 . S
C96 C97 1.378 . S
C96 H118 0.931 . S
C97 C92 1.377 . S
C97 C96 1.378 . S
C97 H119 0.931 . S
C98 O108 1.259 . S
C98 O109 1.270 . S
C99 O110 1.251 . S
C99 O111 1.251 . S
O100 C80 1.257 . S
O100 Eu81 2.473 . S
O101 C80 1.260 . S
O101 Eu81 2.480 . S
O102 Eu81 2.430 . S
O102 C88 1.259 . S
O103 Eu81 2.670 . S
O103 C88 1.270 . S
O103 Eu91 2.355 . S
O104 Eu81 2.394 . S
O104 C89 1.251 . S
O105 C89 1.251 . S
O105 Eu91 2.374 . S
O106 C90 1.257 . S
O106 Eu91 2.473 . S
O107 C90 1.260 . S
O107 Eu91 2.480 . S
O108 Eu91 2.430 . S
O108 C98 1.259 . S
O109 Eu81 2.355 . S
O109 Eu91 2.670 . S
O109 C98 1.270 . S
O110 Eu91 2.394 . S
O110 C99 1.251 . S
O111 Eu81 2.374 . S
O111 C99 1.251 . S
H112 C83 0.931 . S
H113 C84 0.931 . S
H114 C86 0.931 . S
H115 C87 0.931 . S
H116 C93 0.931 . S
H117 C94 0.931 . S
H118 C96 0.931 . S
H119 C97 0.931 . S
C120 Eu121 2.835 . S
C120 C122 1.500 . S
C120 O140 1.257 . S
C120 O141 1.260 . S
Eu121 C120 2.835 . S
Eu121 O140 2.473 . S
Eu121 O141 2.480 . S
Eu121 O142 2.430 . S
Eu121 O143 2.670 . S
Eu121 O144 2.394 . S
Eu121 O149 2.355 . S
Eu121 O151 2.374 . S
C122 C120 1.500 . S
C122 C123 1.377 . S
C122 C127 1.377 . S
C123 C122 1.377 . S
C123 C124 1.395 . S
C123 H152 0.931 . S
C124 C123 1.395 . S
C124 C125 1.383 . S
C124 H153 0.931 . S
C125 C124 1.383 . S
C125 C126 1.394 . S
C126 C125 1.394 . S
C126 C127 1.378 . S
C126 H154 0.931 . S
C127 C122 1.377 . S
C127 C126 1.378 . S
C127 H155 0.931 . S
C128 O142 1.259 . S
C128 O143 1.270 . S
C129 O144 1.251 . S
C129 O145 1.251 . S
C130 Eu131 2.835 . S
C130 C132 1.500 . S
C130 O146 1.257 . S
C130 O147 1.260 . S
Eu131 C130 2.835 . S
Eu131 O143 2.355 . S
Eu131 O145 2.374 . S
Eu131 O146 2.473 . S
Eu131 O147 2.480 . S
Eu131 O148 2.430 . S
Eu131 O149 2.670 . S
Eu131 O150 2.394 . S
C132 C130 1.500 . S
C132 C133 1.377 . S
C132 C137 1.377 . S
C133 C132 1.377 . S
C133 C134 1.395 . S
C133 H156 0.931 . S
C134 C133 1.395 . S
C134 C135 1.383 . S
C134 H157 0.931 . S
C135 C134 1.383 . S
C135 C136 1.394 . S
C136 C135 1.394 . S
C136 C137 1.378 . S
C136 H158 0.931 . S
C137 C132 1.377 . S
C137 C136 1.378 . S
C137 H159 0.931 . S
C138 O148 1.259 . S
C138 O149 1.270 . S
C139 O150 1.251 . S
C139 O151 1.251 . S
O140 C120 1.257 . S
O140 Eu121 2.473 . S
O141 C120 1.260 . S
O141 Eu121 2.480 . S
O142 Eu121 2.430 . S
O142 C128 1.259 . S
O143 Eu121 2.670 . S
O143 C128 1.270 . S
O143 Eu131 2.355 . S
O144 Eu121 2.394 . S
O144 C129 1.251 . S
O145 C129 1.251 . S
O145 Eu131 2.374 . S
O146 C130 1.257 . S
O146 Eu131 2.473 . S
O147 C130 1.260 . S
O147 Eu131 2.480 . S
O148 Eu131 2.430 . S
O148 C138 1.259 . S
O149 Eu121 2.355 . S
O149 Eu131 2.670 . S
O149 C138 1.270 . S
O150 Eu131 2.394 . S
O150 C139 1.251 . S
O151 Eu121 2.374 . S
O151 C139 1.251 . S
H152 C123 0.931 . S
H153 C124 0.931 . S
H154 C126 0.931 . S
H155 C127 0.931 . S
H156 C133 0.931 . S
H157 C134 0.931 . S
H158 C136 0.931 . S
H159 C137 0.931 . S
C160 Eu161 2.835 . S
C160 C162 1.500 . S
C160 O180 1.257 . S
C160 O181 1.260 . S
Eu161 C160 2.835 . S
Eu161 O180 2.473 . S
Eu161 O181 2.480 . S
Eu161 O182 2.430 . S
Eu161 O183 2.670 . S
Eu161 O184 2.394 . S
Eu161 O189 2.355 . S
Eu161 O191 2.374 . S
C162 C160 1.500 . S
C162 C163 1.377 . S
C162 C167 1.377 . S
C163 C162 1.377 . S
C163 C164 1.395 . S
C163 H192 0.931 . S
C164 C163 1.395 . S
C164 C165 1.383 . S
C164 H193 0.931 . S
C165 C164 1.383 . S
C165 C166 1.394 . S
C166 C165 1.394 . S
C166 C167 1.378 . S
C166 H194 0.931 . S
C167 C162 1.377 . S
C167 C166 1.378 . S
C167 H195 0.931 . S
C168 O182 1.259 . S
C168 O183 1.270 . S
C169 O184 1.251 . S
C169 O185 1.251 . S
C170 Eu171 2.835 . S
C170 C172 1.500 . S
C170 O186 1.257 . S
C170 O187 1.260 . S
Eu171 C170 2.835 . S
Eu171 O183 2.355 . S
Eu171 O185 2.374 . S
Eu171 O186 2.473 . S
Eu171 O187 2.480 . S
Eu171 O188 2.430 . S
Eu171 O189 2.670 . S
Eu171 O190 2.394 . S
C172 C170 1.500 . S
C172 C173 1.377 . S
C172 C177 1.377 . S
C173 C172 1.377 . S
C173 C174 1.395 . S
C173 H196 0.931 . S
C174 C173 1.395 . S
C174 C175 1.383 . S
C174 H197 0.931 1_556 S
C175 C174 1.383 . S
C175 C176 1.394 . S
C176 C175 1.394 . S
C176 C177 1.378 . S
C176 H198 0.931 . S
C177 C172 1.377 . S
C177 C176 1.378 . S
C177 H199 0.931 . S
C178 O188 1.259 . S
C178 O189 1.270 . S
C179 O190 1.251 . S
C179 O191 1.251 . S
O180 C160 1.257 . S
O180 Eu161 2.473 . S
O181 C160 1.260 . S
O181 Eu161 2.480 . S
O182 Eu161 2.430 . S
O182 C168 1.259 . S
O183 Eu161 2.670 . S
O183 C168 1.270 . S
O183 Eu171 2.355 . S
O184 Eu161 2.394 . S
O184 C169 1.251 . S
O185 C169 1.251 . S
O185 Eu171 2.374 . S
O186 C170 1.257 . S
O186 Eu171 2.473 . S
O187 C170 1.260 . S
O187 Eu171 2.480 . S
O188 Eu171 2.430 . S
O188 C178 1.259 . S
O189 Eu161 2.355 . S
O189 Eu171 2.670 . S
O189 C178 1.270 . S
O190 Eu171 2.394 . S
O190 C179 1.251 . S
O191 Eu161 2.374 . S
O191 C179 1.251 . S
H192 C163 0.931 . S
H193 C164 0.931 . S
H194 C166 0.931 . S
H195 C167 0.931 . S
H196 C173 0.931 . S
H197 C174 0.931 1_554 S
H198 C176 0.931 . S
H199 C177 0.931 . S
C200 Eu201 2.835 . S
C200 C202 1.500 . S
C200 O220 1.257 . S
C200 O221 1.260 . S
Eu201 C200 2.835 . S
Eu201 O220 2.473 . S
Eu201 O221 2.480 . S
Eu201 O222 2.430 . S
Eu201 O223 2.670 . S
Eu201 O224 2.394 . S
Eu201 O229 2.355 . S
Eu201 O231 2.374 . S
C202 C200 1.500 . S
C202 C203 1.377 . S
C202 C207 1.377 . S
C203 C202 1.377 . S
C203 C204 1.395 . S
C203 H232 0.931 . S
C204 C203 1.395 . S
C204 C205 1.383 . S
C204 H233 0.931 . S
C205 C204 1.383 . S
C205 C206 1.394 . S
C206 C205 1.394 . S
C206 C207 1.378 . S
C206 H234 0.931 . S
C207 C202 1.377 . S
C207 C206 1.378 . S
C207 H235 0.931 . S
C208 O222 1.259 . S
C208 O223 1.270 . S
C209 O224 1.251 . S
C209 O225 1.251 . S
C210 Eu211 2.835 . S
C210 C212 1.500 . S
C210 O226 1.257 . S
C210 O227 1.260 . S
Eu211 C210 2.835 . S
Eu211 O223 2.355 . S
Eu211 O225 2.374 . S
Eu211 O226 2.473 . S
Eu211 O227 2.480 . S
Eu211 O228 2.430 . S
Eu211 O229 2.670 . S
Eu211 O230 2.394 . S
C212 C210 1.500 . S
C212 C213 1.377 . S
C212 C217 1.377 . S
C213 C212 1.377 . S
C213 C214 1.395 . S
C213 H236 0.931 . S
C214 C213 1.395 . S
C214 C215 1.383 . S
C214 H237 0.931 . S
C215 C214 1.383 . S
C215 C216 1.394 . S
C216 C215 1.394 . S
C216 C217 1.378 . S
C216 H238 0.931 . S
C217 C212 1.377 . S
C217 C216 1.378 . S
C217 H239 0.931 . S
C218 O228 1.259 . S
C218 O229 1.270 . S
C219 O230 1.251 . S
C219 O231 1.251 . S
O220 C200 1.257 . S
O220 Eu201 2.473 . S
O221 C200 1.260 . S
O221 Eu201 2.480 . S
O222 Eu201 2.430 . S
O222 C208 1.259 . S
O223 Eu201 2.670 . S
O223 C208 1.270 . S
O223 Eu211 2.355 . S
O224 Eu201 2.394 . S
O224 C209 1.251 . S
O225 C209 1.251 . S
O225 Eu211 2.374 . S
O226 C210 1.257 . S
O226 Eu211 2.473 . S
O227 C210 1.260 . S
O227 Eu211 2.480 . S
O228 Eu211 2.430 . S
O228 C218 1.259 . S
O229 Eu201 2.355 . S
O229 Eu211 2.670 . S
O229 C218 1.270 . S
O230 Eu211 2.394 . S
O230 C219 1.251 . S
O231 Eu201 2.374 . S
O231 C219 1.251 . S
H232 C203 0.931 . S
H233 C204 0.931 . S
H234 C206 0.931 . S
H235 C207 0.931 . S
H236 C213 0.931 . S
H237 C214 0.931 . S
H238 C216 0.931 . S
H239 C217 0.931 . S
C240 Eu241 2.835 . S
C240 C242 1.500 . S
C240 O260 1.257 . S
C240 O261 1.260 . S
Eu241 C240 2.835 . S
Eu241 O260 2.473 . S
Eu241 O261 2.480 . S
Eu241 O262 2.430 . S
Eu241 O263 2.670 . S
Eu241 O264 2.394 . S
Eu241 O269 2.355 . S
Eu241 O271 2.374 . S
C242 C240 1.500 . S
C242 C243 1.377 . S
C242 C247 1.377 . S
C243 C242 1.377 . S
C243 C244 1.395 . S
C243 H272 0.931 . S
C244 C243 1.395 . S
C244 C245 1.383 . S
C244 H273 0.931 . S
C245 C244 1.383 . S
C245 C246 1.394 . S
C246 C245 1.394 . S
C246 C247 1.378 . S
C246 H274 0.931 . S
C247 C242 1.377 . S
C247 C246 1.378 . S
C247 H275 0.931 . S
C248 O262 1.259 . S
C248 O263 1.270 . S
C249 O264 1.251 . S
C249 O265 1.251 . S
C250 Eu251 2.835 . S
C250 C252 1.500 . S
C250 O266 1.257 . S
C250 O267 1.260 . S
Eu251 C250 2.835 . S
Eu251 O263 2.355 . S
Eu251 O265 2.374 . S
Eu251 O266 2.473 . S
Eu251 O267 2.480 . S
Eu251 O268 2.430 . S
Eu251 O269 2.670 . S
Eu251 O270 2.394 . S
C252 C250 1.500 . S
C252 C253 1.377 . S
C252 C257 1.377 . S
C253 C252 1.377 . S
C253 C254 1.395 . S
C253 H276 0.931 . S
C254 C253 1.395 . S
C254 C255 1.383 . S
C254 H277 0.931 . S
C255 C254 1.383 . S
C255 C256 1.394 . S
C256 C255 1.394 . S
C256 C257 1.378 . S
C256 H278 0.931 . S
C257 C252 1.377 . S
C257 C256 1.378 . S
C257 H279 0.931 . S
C258 O268 1.259 . S
C258 O269 1.270 . S
C259 O270 1.251 . S
C259 O271 1.251 . S
O260 C240 1.257 . S
O260 Eu241 2.473 . S
O261 C240 1.260 . S
O261 Eu241 2.480 . S
O262 Eu241 2.430 . S
O262 C248 1.259 . S
O263 Eu241 2.670 . S
O263 C248 1.270 . S
O263 Eu251 2.355 . S
O264 Eu241 2.394 . S
O264 C249 1.251 . S
O265 C249 1.251 . S
O265 Eu251 2.374 . S
O266 C250 1.257 . S
O266 Eu251 2.473 . S
O267 C250 1.260 . S
O267 Eu251 2.480 . S
O268 Eu251 2.430 . S
O268 C258 1.259 . S
O269 Eu241 2.355 . S
O269 Eu251 2.670 . S
O269 C258 1.270 . S
O270 Eu251 2.394 . S
O270 C259 1.251 . S
O271 Eu241 2.374 . S
O271 C259 1.251 . S
H272 C243 0.931 . S
H273 C244 0.931 . S
H274 C246 0.931 . S
H275 C247 0.931 . S
H276 C253 0.931 . S
H277 C254 0.931 . S
H278 C256 0.931 . S
H279 C257 0.931 . S
C280 Eu281 2.835 . S
C280 C282 1.500 . S
C280 O300 1.257 . S
C280 O301 1.260 . S
Eu281 C280 2.835 . S
Eu281 O300 2.473 . S
Eu281 O301 2.480 . S
Eu281 O302 2.430 . S
Eu281 O303 2.670 . S
Eu281 O304 2.394 . S
Eu281 O309 2.355 . S
Eu281 O311 2.374 . S
C282 C280 1.500 . S
C282 C283 1.377 . S
C282 C287 1.377 . S
C283 C282 1.377 . S
C283 C284 1.395 . S
C283 H312 0.931 . S
C284 C283 1.395 . S
C284 C285 1.383 . S
C284 H313 0.931 . S
C285 C284 1.383 . S
C285 C286 1.394 . S
C286 C285 1.394 . S
C286 C287 1.378 . S
C286 H314 0.931 . S
C287 C282 1.377 . S
C287 C286 1.378 . S
C287 H315 0.931 . S
C288 O302 1.259 . S
C288 O303 1.270 . S
C289 O304 1.251 . S
C289 O305 1.251 . S
C290 Eu291 2.835 . S
C290 C292 1.500 . S
C290 O306 1.257 . S
C290 O307 1.260 . S
Eu291 C290 2.835 . S
Eu291 O303 2.355 . S
Eu291 O305 2.374 . S
Eu291 O306 2.473 . S
Eu291 O307 2.480 . S
Eu291 O308 2.430 . S
Eu291 O309 2.670 . S
Eu291 O310 2.394 . S
C292 C290 1.500 . S
C292 C293 1.377 . S
C292 C297 1.377 . S
C293 C292 1.377 . S
C293 C294 1.395 . S
C293 H316 0.931 . S
C294 C293 1.395 . S
C294 C295 1.383 . S
C294 H317 0.931 . S
C295 C294 1.383 . S
C295 C296 1.394 . S
C296 C295 1.394 . S
C296 C297 1.378 . S
C296 H318 0.931 . S
C297 C292 1.377 . S
C297 C296 1.378 . S
C297 H319 0.931 . S
C298 O308 1.259 . S
C298 O309 1.270 . S
C299 O310 1.251 . S
C299 O311 1.251 . S
O300 C280 1.257 . S
O300 Eu281 2.473 . S
O301 C280 1.260 . S
O301 Eu281 2.480 . S
O302 Eu281 2.430 . S
O302 C288 1.259 . S
O303 Eu281 2.670 . S
O303 C288 1.270 . S
O303 Eu291 2.355 . S
O304 Eu281 2.394 . S
O304 C289 1.251 . S
O305 C289 1.251 . S
O305 Eu291 2.374 . S
O306 C290 1.257 . S
O306 Eu291 2.473 . S
O307 C290 1.260 . S
O307 Eu291 2.480 . S
O308 Eu291 2.430 . S
O308 C298 1.259 . S
O309 Eu281 2.355 . S
O309 Eu291 2.670 . S
O309 C298 1.270 . S
O310 Eu291 2.394 . S
O310 C299 1.251 . S
O311 Eu281 2.374 . S
O311 C299 1.251 . S
H312 C283 0.931 . S
H313 C284 0.931 . S
H314 C286 0.931 . S
H315 C287 0.931 . S
H316 C293 0.931 . S
H317 C294 0.931 . S
H318 C296 0.931 . S
H319 C297 0.931 . S
Cd320 N323 2.334 1_545 S
Cd320 N349 2.304 1_455 S
Cd320 O356 2.268 1_445 S
Cd320 O359 2.273 . S
Cd320 O360 2.417 1_445 S
Cd320 O361 2.330 1_445 S
Cd321 N336 2.304 1_455 S
Cd321 N340 2.334 . S
Cd321 O357 2.273 1_445 S
Cd321 O358 2.268 . S
Cd321 O362 2.417 . S
Cd321 O363 2.330 . S
C322 N323 1.332 . S
C322 C326 1.381 . S
C322 H328 0.931 1_565 S
N323 Cd320 2.334 1_565 S
N323 C322 1.332 . S
N323 C327 1.328 . S
C324 C325 1.396 . S
C324 C327 1.378 . S
C324 H366 0.931 . S
C325 C324 1.396 . S
C325 C326 1.382 . S
C326 C322 1.381 . S
C326 C325 1.382 . S
C326 H367 0.930 . S
C327 N323 1.328 . S
C327 C324 1.378 . S
C327 H329 0.930 . S
H328 C322 0.931 1_545 S
H329 C327 0.930 . S
C330 O356 1.238 . S
C330 O357 1.253 . S
C331 C332 1.379 . S
C331 N336 1.337 . S
C331 H337 0.929 . S
C332 C331 1.379 . S
C332 C333 1.380 . S
C332 H368 0.929 . S
C333 C332 1.380 . S
C333 C334 1.399 . S
C334 C333 1.399 . S
C334 C335 1.376 1_655 S
C334 H369 0.931 . S
C335 C334 1.376 1_455 S
C335 N336 1.338 1_455 S
C335 H338 0.930 . S
N336 Cd321 2.304 1_655 S
N336 C331 1.337 . S
N336 C335 1.338 1_655 S
H337 C331 0.929 . S
H338 C335 0.930 . S
C339 N340 1.332 1_565 S
C339 C343 1.381 . S
C339 H345 0.931 . S
N340 Cd321 2.334 . S
N340 C339 1.332 1_545 S
N340 C344 1.328 . S
C341 C342 1.396 . S
C341 C344 1.378 1_565 S
C341 H370 0.931 1_565 S
C342 C341 1.396 . S
C342 C343 1.382 . S
C343 C339 1.381 . S
C343 C342 1.382 . S
C343 H371 0.930 . S
C344 N340 1.328 . S
C344 C341 1.378 1_545 S
C344 H346 0.930 . S
H345 C339 0.931 . S
H346 C344 0.930 . S
C347 O358 1.238 . S
C347 O359 1.253 . S
C348 O360 1.239 . S
C348 O361 1.230 . S
N349 Cd320 2.304 1_655 S
N349 C350 1.337 . S
N349 C354 1.338 . S
C350 N349 1.337 . S
C350 C351 1.379 . S
C350 H364 0.929 1_655 S
C351 C350 1.379 . S
C351 C352 1.380 . S
C351 H372 0.929 . S
C352 C351 1.380 . S
C352 C353 1.399 . S
C353 C352 1.399 . S
C353 C354 1.376 . S
C353 H373 0.931 . S
C354 N349 1.338 . S
C354 C353 1.376 . S
C354 H365 0.930 . S
C355 O362 1.239 . S
C355 O363 1.230 . S
O356 Cd320 2.268 1_665 S
O356 C330 1.238 . S
O357 Cd321 2.273 1_665 S
O357 C330 1.253 . S
O358 Cd321 2.268 . S
O358 C347 1.238 . S
O359 Cd320 2.273 . S
O359 C347 1.253 . S
O360 Cd320 2.417 1_665 S
O360 C348 1.239 . S
O361 Cd320 2.330 1_665 S
O361 C348 1.230 . S
O362 Cd321 2.417 . S
O362 C355 1.239 . S
O363 Cd321 2.330 . S
O363 C355 1.230 . S
H364 C350 0.929 1_455 S
H365 C354 0.930 . S
H366 C324 0.931 . S
H367 C326 0.930 . S
H368 C332 0.929 . S
H369 C334 0.931 . S
H370 C341 0.931 1_545 S
H371 C343 0.930 . S
H372 C351 0.929 . S
H373 C353 0.931 . S
Cd374 N377 2.334 1_545 S
Cd374 N403 2.304 . S
Cd374 O410 2.268 1_544 S
Cd374 O413 2.273 . S
Cd374 O414 2.417 1_545 S
Cd374 O415 2.330 . S
Cd375 N390 2.304 . S
Cd375 N394 2.334 . S
Cd375 O411 2.273 . S
Cd375 O412 2.268 1_556 S
Cd375 O416 2.417 . S
Cd375 O417 2.330 . S
C376 N377 1.332 . S
C376 C380 1.381 . S
C376 H382 0.931 1_565 S
N377 Cd374 2.334 1_565 S
N377 C376 1.332 . S
N377 C381 1.328 . S
C378 C379 1.396 . S
C378 C381 1.378 . S
C378 H420 0.919 1_554 S
C379 C378 1.396 . S
C379 C380 1.382 . S
C380 C376 1.381 . S
C380 C379 1.382 . S
C380 H421 0.930 . S
C381 N377 1.328 . S
C381 C378 1.378 . S
C381 H383 0.930 1_554 S
H382 C376 0.931 1_545 S
H383 C381 0.930 1_556 S
C384 O410 1.238 . S
C384 O411 1.253 1_565 S
C385 C386 1.379 . S
C385 N390 1.337 . S
C385 H391 0.929 . S
C386 C385 1.379 . S
C386 C387 1.380 . S
C386 H422 0.929 . S
C387 C386 1.380 . S
C387 C388 1.399 . S
C388 C387 1.399 . S
C388 C389 1.376 . S
C388 H423 0.931 1_556 S
C389 C388 1.376 . S
C389 N390 1.338 . S
C389 H392 0.930 1_556 S
N390 Cd375 2.304 . S
N390 C385 1.337 . S
N390 C389 1.338 . S
H391 C385 0.929 . S
H392 C389 0.930 1_554 S
C393 N394 1.332 1_565 S
C393 C397 1.381 . S
C393 H399 0.931 . S
N394 Cd375 2.334 . S
N394 C393 1.332 1_545 S
N394 C398 1.328 . S
C395 C396 1.381 1_544 S
C395 C398 1.380 1_554 S
C395 H424 0.945 . S
C396 C395 1.381 1_566 S
C396 C397 1.382 . S
C397 C393 1.381 . S
C397 C396 1.382 . S
C397 H425 0.930 . S
C398 N394 1.328 . S
C398 C395 1.380 1_556 S
C398 H400 0.930 1_556 S
H399 C393 0.931 . S
H400 C398 0.930 1_554 S
C401 O412 1.238 . S
C401 O413 1.253 . S
C402 O414 1.239 . S
C402 O415 1.230 1_565 S
N403 Cd374 2.304 . S
N403 C404 1.337 . S
N403 C408 1.338 . S
C404 N403 1.337 . S
C404 C405 1.379 . S
C404 H418 0.929 . S
C405 C404 1.379 . S
C405 C406 1.380 . S
C405 H426 0.929 . S
C406 C405 1.380 . S
C406 C407 1.399 1_554 S
C407 C406 1.399 1_556 S
C407 C408 1.376 1_556 S
C407 H427 0.931 . S
C408 N403 1.338 . S
C408 C407 1.376 1_554 S
C408 H419 0.930 1_554 S
C409 O416 1.239 . S
C409 O417 1.230 . S
O410 Cd374 2.268 1_566 S
O410 C384 1.238 . S
O411 Cd375 2.273 . S
O411 C384 1.253 1_545 S
O412 Cd375 2.268 1_554 S
O412 C401 1.238 . S
O413 Cd374 2.273 . S
O413 C401 1.253 . S
O414 Cd374 2.417 1_565 S
O414 C402 1.239 . S
O415 Cd374 2.330 . S
O415 C402 1.230 1_545 S
O416 Cd375 2.417 . S
O416 C409 1.239 . S
O417 Cd375 2.330 . S
O417 C409 1.230 . S
H418 C404 0.929 . S
H419 C408 0.930 1_556 S
H420 C378 0.919 1_556 S
H421 C380 0.930 . S
H422 C386 0.929 . S
H423 C388 0.931 1_554 S
H424 C395 0.945 . S
H425 C397 0.930 . S
H426 C405 0.929 . S
H427 C407 0.931 . S
Cd428 N431 2.334 1_655 S
Cd428 N457 2.304 . S
Cd428 O464 2.268 . S
Cd428 O467 2.273 1_655 S
Cd428 O468 2.417 . S
Cd428 O469 2.330 . S
Cd429 N444 2.304 1_455 S
Cd429 N448 2.334 . S
Cd429 O465 2.273 1_454 S
Cd429 O466 2.268 . S
Cd429 O470 2.417 . S
Cd429 O471 2.330 1_554 S
C430 N431 1.332 . S
C430 C434 1.381 . S
C430 H436 0.931 . S
N431 Cd428 2.334 1_455 S
N431 C430 1.332 . S
N431 C435 1.328 . S
C432 C433 1.396 . S
C432 C435 1.378 . S
C432 H474 0.931 . S
C433 C432 1.396 . S
C433 C434 1.382 . S
C434 C430 1.381 . S
C434 C433 1.382 . S
C434 H475 0.930 . S
C435 N431 1.328 . S
C435 C432 1.378 . S
C435 H437 0.930 1_455 S
H436 C430 0.931 . S
H437 C435 0.930 1_655 S
C438 O464 1.238 1_556 S
C438 O465 1.253 . S
C439 C440 1.379 . S
C439 N444 1.337 1_556 S
C439 H445 0.929 . S
C440 C439 1.379 . S
C440 C441 1.380 1_556 S
C440 H476 0.929 . S
C441 C440 1.380 1_554 S
C441 C442 1.399 . S
C442 C441 1.399 . S
C442 C443 1.394 . S
C442 H477 0.931 . S
C443 C442 1.394 . S
C443 N444 1.332 . S
C443 H446 0.918 1_655 S
N444 Cd429 2.304 1_655 S
N444 C439 1.337 1_554 S
N444 C443 1.332 . S
H445 C439 0.929 . S
H446 C443 0.918 1_455 S
C447 N448 1.332 1_556 S
C447 C451 1.381 . S
C447 H453 0.931 . S
N448 Cd429 2.334 . S
N448 C447 1.332 1_554 S
N448 C452 1.328 . S
C449 C450 1.396 . S
C449 C452 1.378 . S
C449 H478 0.931 . S
C450 C449 1.396 . S
C450 C451 1.382 1_554 S
C451 C447 1.381 . S
C451 C450 1.382 1_556 S
C451 H479 0.930 . S
C452 N448 1.328 . S
C452 C449 1.378 . S
C452 H454 0.930 . S
H453 C447 0.931 . S
H454 C452 0.930 . S
C455 O466 1.238 . S
C455 O467 1.253 . S
C456 O468 1.239 . S
C456 O469 1.230 . S
N457 Cd428 2.304 . S
N457 C458 1.337 . S
N457 C462 1.338 . S
C458 N457 1.337 . S
C458 C459 1.379 . S
C458 H472 0.929 . S
C459 C458 1.379 . S
C459 C460 1.380 . S
C459 H480 0.929 . S
C460 C459 1.380 . S
C460 C461 1.399 . S
C461 C460 1.399 . S
C461 C462 1.376 . S
C461 H481 0.931 . S
C462 N457 1.338 . S
C462 C461 1.376 . S
C462 H473 0.930 . S
C463 O470 1.239 1_556 S
C463 O471 1.230 . S
O464 Cd428 2.268 . S
O464 C438 1.238 1_554 S
O465 Cd429 2.273 1_656 S
O465 C438 1.253 . S
O466 Cd429 2.268 . S
O466 C455 1.238 . S
O467 Cd428 2.273 1_455 S
O467 C455 1.253 . S
O468 Cd428 2.417 . S
O468 C456 1.239 . S
O469 Cd428 2.330 . S
O469 C456 1.230 . S
O470 Cd429 2.417 . S
O470 C463 1.239 1_554 S
O471 Cd429 2.330 1_556 S
O471 C463 1.230 . S
H472 C458 0.929 . S
H473 C462 0.930 . S
H474 C432 0.931 . S
H475 C434 0.930 . S
H476 C440 0.929 . S
H477 C442 0.931 . S
H478 C449 0.931 . S
H479 C451 0.930 . S
H480 C459 0.929 . S
H481 C461 0.931 . S
Cd482 N485 2.334 . S
Cd482 N511 2.304 . S
Cd482 O518 2.268 . S
Cd482 O521 2.273 . S
Cd482 O522 2.417 . S
Cd482 O523 2.330 . S
Cd483 N498 2.304 . S
Cd483 N502 2.334 1_556 S
Cd483 O519 2.273 . S
Cd483 O520 2.268 1_556 S
Cd483 O524 2.417 . S
Cd483 O525 2.330 . S
C484 N485 1.332 . S
C484 C488 1.381 . S
C484 H490 0.931 . S
N485 Cd482 2.334 . S
N485 C484 1.332 . S
N485 C489 1.328 . S
C486 C487 1.396 . S
C486 C489 1.378 . S
C486 H528 0.931 . S
C487 C486 1.396 . S
C487 C488 1.382 . S
C488 C484 1.381 . S
C488 C487 1.382 . S
C488 H529 0.930 . S
C489 N485 1.328 . S
C489 C486 1.378 . S
C489 H491 0.930 . S
H490 C484 0.931 . S
H491 C489 0.930 . S
C492 O518 1.238 1_556 S
C492 O519 1.253 . S
C493 C494 1.379 . S
C493 N498 1.337 . S
C493 H499 0.929 . S
C494 C493 1.379 . S
C494 C495 1.380 . S
C494 H530 0.929 . S
C495 C494 1.380 . S
C495 C496 1.399 1_556 S
C496 C495 1.399 1_554 S
C496 C497 1.376 . S
C496 H531 0.931 . S
C497 C496 1.376 . S
C497 N498 1.338 1_554 S
C497 H500 0.930 . S
N498 Cd483 2.304 . S
N498 C493 1.337 . S
N498 C497 1.338 1_556 S
H499 C493 0.929 . S
H500 C497 0.930 . S
C501 N502 1.329 1_556 S
C501 C505 1.381 . S
C501 H507 0.931 . S
N502 Cd483 2.334 1_554 S
N502 C501 1.329 1_554 S
N502 C506 1.330 . S
C503 C504 1.396 . S
C503 C506 1.378 . S
C503 H532 0.931 . S
C504 C503 1.396 . S
C504 C505 1.382 1_554 S
C505 C501 1.381 . S
C505 C504 1.382 1_556 S
C505 H533 0.930 . S
C506 N502 1.330 . S
C506 C503 1.378 . S
C506 H508 0.930 . S
H507 C501 0.931 . S
H508 C506 0.930 . S
C509 O520 1.238 . S
C509 O521 1.253 . S
C510 O522 1.239 . S
C510 O523 1.230 . S
N511 Cd482 2.304 . S
N511 C512 1.337 . S
N511 C516 1.338 . S
C512 N511 1.337 . S
C512 C513 1.379 . S
C512 H526 0.929 . S
C513 C512 1.379 . S
C513 C514 1.380 . S
C513 H534 0.929 . S
C514 C513 1.380 . S
C514 C515 1.399 . S
C515 C514 1.399 . S
C515 C516 1.376 . S
C515 H535 0.931 . S
C516 N511 1.338 . S
C516 C515 1.376 . S
C516 H527 0.930 . S
C517 O524 1.239 . S
C517 O525 1.230 . S
O518 Cd482 2.268 . S
O518 C492 1.238 1_554 S
O519 Cd483 2.273 . S
O519 C492 1.253 . S
O520 Cd483 2.268 1_554 S
O520 C509 1.238 . S
O521 Cd482 2.273 . S
O521 C509 1.253 . S
O522 Cd482 2.417 . S
O522 C510 1.239 . S
O523 Cd482 2.330 . S
O523 C510 1.230 . S
O524 Cd483 2.417 . S
O524 C517 1.239 . S
O525 Cd483 2.330 . S
O525 C517 1.230 . S
H526 C512 0.929 . S
H527 C516 0.930 . S
H528 C486 0.931 . S
H529 C488 0.930 . S
H530 C494 0.929 . S
H531 C496 0.931 . S
H532 C503 0.931 . S
H533 C505 0.930 . S
H534 C513 0.929 . S
H535 C515 0.931 . S
Cd536 N539 2.334 . S
Cd536 N565 2.304 1_455 S
Cd536 O572 2.268 . S
Cd536 O575 2.273 . S
Cd536 O576 2.417 1_455 S
Cd536 O577 2.330 . S
Cd537 N552 2.304 . S
Cd537 N556 2.334 . S
Cd537 O573 2.273 . S
Cd537 O574 2.268 . S
Cd537 O578 2.417 . S
Cd537 O579 2.330 . S
C538 N539 1.332 . S
C538 C542 1.381 . S
C538 H544 0.931 . S
N539 Cd536 2.334 . S
N539 C538 1.332 . S
N539 C543 1.328 . S
C540 C541 1.396 . S
C540 C543 1.378 . S
C540 H582 0.931 . S
C541 C540 1.396 . S
C541 C542 1.382 . S
C542 C538 1.381 . S
C542 C541 1.382 . S
C542 H583 0.930 . S
C543 N539 1.328 . S
C543 C540 1.378 . S
C543 H545 0.930 . S
H544 C538 0.931 . S
H545 C543 0.930 . S
C546 O572 1.238 1_655 S
C546 O573 1.253 1_655 S
C547 C548 1.379 . S
C547 N552 1.337 1_655 S
C547 H553 0.929 . S
C548 C547 1.379 . S
C548 C549 1.380 . S
C548 H584 0.929 . S
C549 C548 1.380 . S
C549 C550 1.399 1_655 S
C550 C549 1.399 1_455 S
C550 C551 1.376 . S
C550 H585 0.931 . S
C551 C550 1.376 . S
C551 N552 1.338 . S
C551 H554 0.930 . S
N552 Cd537 2.304 . S
N552 C547 1.337 1_455 S
N552 C551 1.338 . S
H553 C547 0.929 . S
H554 C551 0.930 . S
C555 N556 1.332 . S
C555 C559 1.381 . S
C555 H561 0.931 . S
N556 Cd537 2.334 . S
N556 C555 1.332 . S
N556 C560 1.328 . S
C557 C558 1.396 . S
C557 C560 1.378 . S
C557 H586 0.931 . S
C558 C557 1.396 . S
C558 C559 1.382 . S
C559 C555 1.381 . S
C559 C558 1.382 . S
C559 H587 0.930 . S
C560 N556 1.328 . S
C560 C557 1.378 . S
C560 H562 0.930 . S
H561 C555 0.931 . S
H562 C560 0.930 . S
C563 O574 1.238 . S
C563 O575 1.253 . S
C564 O576 1.239 . S
C564 O577 1.230 1_655 S
N565 Cd536 2.304 1_655 S
N565 C566 1.337 1_655 S
N565 C570 1.338 . S
C566 N565 1.337 1_455 S
C566 C567 1.379 1_455 S
C566 H580 0.929 . S
C567 C566 1.379 1_655 S
C567 C568 1.380 . S
C567 H588 0.929 . S
C568 C567 1.380 . S
C568 C569 1.399 . S
C569 C568 1.399 . S
C569 C570 1.376 . S
C569 H589 0.931 . S
C570 N565 1.338 . S
C570 C569 1.376 . S
C570 H581 0.930 . S
C571 O578 1.239 . S
C571 O579 1.230 . S
O572 Cd536 2.268 . S
O572 C546 1.238 1_455 S
O573 Cd537 2.273 . S
O573 C546 1.253 1_455 S
O574 Cd537 2.268 . S
O574 C563 1.238 . S
O575 Cd536 2.273 . S
O575 C563 1.253 . S
O576 Cd536 2.417 1_655 S
O576 C564 1.239 . S
O577 Cd536 2.330 . S
O577 C564 1.230 1_455 S
O578 Cd537 2.417 . S
O578 C571 1.239 . S
O579 Cd537 2.330 . S
O579 C571 1.230 . S
H580 C566 0.929 . S
H581 C570 0.930 . S
H582 C540 0.931 . S
H583 C542 0.930 . S
H584 C548 0.929 . S
H585 C550 0.931 . S
H586 C557 0.931 . S
H587 C559 0.930 . S
H588 C567 0.929 . S
H589 C569 0.931 . S
Cd590 N593 2.334 . S
Cd590 N619 2.304 1_565 S
Cd590 O626 2.268 . S
Cd590 O629 2.273 1_565 S
Cd590 O630 2.417 . S
Cd590 O631 2.330 . S
Cd591 N606 2.304 . S
Cd591 N610 2.334 1_545 S
Cd591 O627 2.273 1_545 S
Cd591 O628 2.268 . S
Cd591 O632 2.417 . S
Cd591 O633 2.330 . S
C592 N593 1.332 . S
C592 C596 1.381 . S
C592 H598 0.931 . S
N593 Cd590 2.334 . S
N593 C592 1.332 . S
N593 C597 1.328 . S
C594 C595 1.396 . S
C594 C597 1.378 . S
C594 H636 0.931 . S
C595 C594 1.396 . S
C595 C596 1.382 . S
C596 C592 1.381 . S
C596 C595 1.382 . S
C596 H637 0.930 . S
C597 N593 1.328 . S
C597 C594 1.378 . S
C597 H599 0.930 . S
H598 C592 0.931 . S
H599 C597 0.930 . S
C600 O626 1.238 . S
C600 O627 1.253 . S
C601 C602 1.379 . S
C601 N606 1.337 . S
C601 H607 0.929 . S
C602 C601 1.379 . S
C602 C603 1.380 . S
C602 H638 0.929 . S
C603 C602 1.380 . S
C603 C604 1.399 . S
C604 C603 1.399 . S
C604 C605 1.376 . S
C604 H639 0.931 . S
C605 C604 1.376 . S
C605 N606 1.338 . S
C605 H608 0.930 . S
N606 Cd591 2.304 . S
N606 C601 1.337 . S
N606 C605 1.338 . S
H607 C601 0.929 . S
H608 C605 0.930 . S
C609 N610 1.332 . S
C609 C613 1.381 . S
C609 H615 0.931 . S
N610 Cd591 2.334 1_565 S
N610 C609 1.332 . S
N610 C614 1.328 . S
C611 C612 1.396 . S
C611 C614 1.378 . S
C611 H640 0.931 . S
C612 C611 1.396 . S
C612 C613 1.382 . S
C613 C609 1.381 . S
C613 C612 1.382 . S
C613 H641 0.930 . S
C614 N610 1.328 . S
C614 C611 1.378 . S
C614 H616 0.930 1_565 S
H615 C609 0.931 . S
H616 C614 0.930 1_545 S
C617 O628 1.238 . S
C617 O629 1.253 . S
C618 O630 1.239 . S
C618 O631 1.230 . S
N619 Cd590 2.304 1_545 S
N619 C620 1.337 . S
N619 C624 1.338 . S
C620 N619 1.337 . S
C620 C621 1.379 . S
C620 H634 0.929 . S
C621 C620 1.379 . S
C621 C622 1.380 . S
C621 H642 0.929 . S
C622 C621 1.380 . S
C622 C623 1.399 . S
C623 C622 1.399 . S
C623 C624 1.376 . S
C623 H643 0.931 . S
C624 N619 1.338 . S
C624 C623 1.376 . S
C624 H635 0.930 1_545 S
C625 O632 1.239 . S
C625 O633 1.230 . S
O626 Cd590 2.268 . S
O626 C600 1.238 . S
O627 Cd591 2.273 1_565 S
O627 C600 1.253 . S
O628 Cd591 2.268 . S
O628 C617 1.238 . S
O629 Cd590 2.273 1_545 S
O629 C617 1.253 . S
O630 Cd590 2.417 . S
O630 C618 1.239 . S
O631 Cd590 2.330 . S
O631 C618 1.230 . S
O632 Cd591 2.417 . S
O632 C625 1.239 . S
O633 Cd591 2.330 . S
O633 C625 1.230 . S
H634 C620 0.929 . S
H635 C624 0.930 1_565 S
H636 C594 0.931 . S
H637 C596 0.930 . S
H638 C602 0.929 . S
H639 C604 0.931 . S
H640 C611 0.931 . S
H641 C613 0.930 . S
H642 C621 0.929 . S
H643 C623 0.931 . S
H644 C650 0.930 . S
H645 C653 0.930 . S
H646 C654 0.930 . S
H647 C655 0.930 . S
H648 C658 0.930 . S
H649 C659 0.930 . S
C650 H644 0.930 . S
C650 C651 1.355 . S
C650 C652 1.415 . S
C651 C650 1.355 . S
C651 C653 1.419 . S
C652 C650 1.415 . S
C652 C657 1.425 . S
C652 C659 1.409 . S
C653 H645 0.930 . S
C653 C651 1.419 . S
C653 C654 1.362 . S
C654 H646 0.930 . S
C654 C653 1.362 . S
C654 C657 1.409 . S
C655 H647 0.930 . S
C655 C656 1.355 . S
C655 C657 1.415 . S
C656 C655 1.355 . S
C656 C658 1.419 . S
C657 C652 1.425 . S
C657 C654 1.409 . S
C657 C655 1.415 . S
C658 H648 0.930 . S
C658 C656 1.419 . S
C658 C659 1.362 . S
C659 H649 0.930 . S
C659 C652 1.409 . S
C659 C658 1.362 . S
H660 C666 0.930 . S
H661 C669 0.930 . S
H662 C670 0.930 . S
H663 C671 0.930 . S
H664 C674 0.930 . S
H665 C675 0.930 . S
C666 H660 0.930 . S
C666 C667 1.355 . S
C666 C668 1.415 . S
C667 C666 1.355 . S
C667 C669 1.419 . S
C668 C666 1.415 . S
C668 C673 1.425 . S
C668 C675 1.409 . S
C669 H661 0.930 . S
C669 C667 1.419 . S
C669 C670 1.362 . S
C670 H662 0.930 . S
C670 C669 1.362 . S
C670 C673 1.409 . S
C671 H663 0.930 . S
C671 C672 1.355 . S
C671 C673 1.415 . S
C672 C671 1.355 . S
C672 C674 1.419 . S
C673 C668 1.425 . S
C673 C670 1.409 . S
C673 C671 1.415 . S
C674 H664 0.930 . S
C674 C672 1.419 . S
C674 C675 1.362 . S
C675 H665 0.930 . S
C675 C668 1.409 . S
C675 C674 1.362 . S
H676 C682 0.930 . S
H677 C685 0.930 . S
H678 C686 0.930 . S
H679 C687 0.930 . S
H680 C690 0.930 . S
H681 C691 0.930 . S
C682 H676 0.930 . S
C682 C683 1.355 . S
C682 C684 1.415 . S
C683 C682 1.355 . S
C683 C685 1.419 . S
C684 C682 1.415 . S
C684 C689 1.425 . S
C684 C691 1.409 . S
C685 H677 0.930 . S
C685 C683 1.419 . S
C685 C686 1.362 . S
C686 H678 0.930 . S
C686 C685 1.362 . S
C686 C689 1.409 . S
C687 H679 0.930 . S
C687 C688 1.355 . S
C687 C689 1.415 . S
C688 C687 1.355 . S
C688 C690 1.419 . S
C689 C684 1.425 . S
C689 C686 1.409 . S
C689 C687 1.415 . S
C690 H680 0.930 . S
C690 C688 1.419 . S
C690 C691 1.362 . S
C691 H681 0.930 . S
C691 C684 1.409 . S
C691 C690 1.362 . S
H692 C698 0.930 . S
H693 C701 0.930 . S
H694 C702 0.930 . S
H695 C703 0.930 . S
H696 C706 0.930 . S
H697 C707 0.930 . S
C698 H692 0.930 . S
C698 C699 1.355 . S
C698 C700 1.415 . S
C699 C698 1.355 . S
C699 C701 1.419 . S
C700 C698 1.415 . S
C700 C705 1.425 . S
C700 C707 1.409 . S
C701 H693 0.930 . S
C701 C699 1.419 . S
C701 C702 1.362 . S
C702 H694 0.930 . S
C702 C701 1.362 . S
C702 C705 1.409 . S
C703 H695 0.930 . S
C703 C704 1.355 . S
C703 C705 1.415 . S
C704 C703 1.355 . S
C704 C706 1.419 . S
C705 C700 1.425 . S
C705 C702 1.409 . S
C705 C703 1.415 . S
C706 H696 0.930 . S
C706 C704 1.419 . S
C706 C707 1.362 . S
C707 H697 0.930 . S
C707 C700 1.409 . S
C707 C706 1.362 . S
H708 C714 0.930 . S
H709 C717 0.930 . S
H710 C718 0.930 . S
H711 C719 0.930 . S
H712 C722 0.930 . S
H713 C723 0.930 . S
C714 H708 0.930 . S
C714 C715 1.355 . S
C714 C716 1.415 . S
C715 C714 1.355 . S
C715 C717 1.419 . S
C716 C714 1.415 . S
C716 C721 1.425 . S
C716 C723 1.409 . S
C717 H709 0.930 . S
C717 C715 1.419 . S
C717 C718 1.362 . S
C718 H710 0.930 . S
C718 C717 1.362 . S
C718 C721 1.409 . S
C719 H711 0.930 . S
C719 C720 1.355 . S
C719 C721 1.415 . S
C720 C719 1.355 . S
C720 C722 1.419 . S
C721 C716 1.425 . S
C721 C718 1.409 . S
C721 C719 1.415 . S
C722 H712 0.930 . S
C722 C720 1.419 . S
C722 C723 1.362 . S
C723 H713 0.930 . S
C723 C716 1.409 . S
C723 C722 1.362 . S
H724 C730 0.930 . S
H725 C733 0.930 . S
H726 C734 0.930 . S
H727 C735 0.930 . S
H728 C738 0.930 . S
H729 C739 0.930 . S
C730 H724 0.930 . S
C730 C731 1.355 . S
C730 C732 1.415 . S
C731 C730 1.355 . S
C731 C733 1.419 . S
C732 C730 1.415 . S
C732 C737 1.425 . S
C732 C739 1.409 . S
C733 H725 0.930 . S
C733 C731 1.419 . S
C733 C734 1.362 . S
C734 H726 0.930 . S
C734 C733 1.362 . S
C734 C737 1.409 . S
C735 H727 0.930 . S
C735 C736 1.355 . S
C735 C737 1.415 . S
C736 C735 1.355 . S
C736 C738 1.419 . S
C737 C732 1.425 . S
C737 C734 1.409 . S
C737 C735 1.415 . S
C738 H728 0.930 . S
C738 C736 1.419 . S
C738 C739 1.362 . S
C739 H729 0.930 . S
C739 C732 1.409 . S
C739 C738 1.362 . S
H740 C746 0.930 . S
H741 C749 0.930 . S
H742 C750 0.930 . S
H743 C751 0.930 . S
H744 C754 0.930 . S
H745 C755 0.930 . S
C746 H740 0.930 . S
C746 C747 1.355 . S
C746 C748 1.415 . S
C747 C746 1.355 . S
C747 C749 1.419 . S
C748 C746 1.415 . S
C748 C753 1.425 . S
C748 C755 1.409 . S
C749 H741 0.930 . S
C749 C747 1.419 . S
C749 C750 1.362 . S
C750 H742 0.930 . S
C750 C749 1.362 . S
C750 C753 1.409 . S
C751 H743 0.930 . S
C751 C752 1.355 . S
C751 C753 1.415 . S
C752 C751 1.355 . S
C752 C754 1.419 . S
C753 C748 1.425 . S
C753 C750 1.409 . S
C753 C751 1.415 . S
C754 H744 0.930 . S
C754 C752 1.419 . S
C754 C755 1.362 . S
C755 H745 0.930 . S
C755 C748 1.409 . S
C755 C754 1.362 . S
H756 C762 0.930 . S
H757 C765 0.930 . S
H758 C766 0.930 . S
H759 C767 0.930 . S
H760 C770 0.930 . S
H761 C771 0.930 . S
C762 H756 0.930 . S
C762 C763 1.355 . S
C762 C764 1.415 . S
C763 C762 1.355 . S
C763 C765 1.419 . S
C764 C762 1.415 . S
C764 C769 1.425 . S
C764 C771 1.409 . S
C765 H757 0.930 . S
C765 C763 1.419 . S
C765 C766 1.362 . S
C766 H758 0.930 . S
C766 C765 1.362 . S
C766 C769 1.409 . S
C767 H759 0.930 . S
C767 C768 1.355 . S
C767 C769 1.415 . S
C768 C767 1.355 . S
C768 C770 1.419 . S
C769 C764 1.425 . S
C769 C766 1.409 . S
C769 C767 1.415 . S
C770 H760 0.930 . S
C770 C768 1.419 . S
C770 C771 1.362 . S
C771 H761 0.930 . S
C771 C764 1.409 . S
C771 C770 1.362 . S
H772 C778 0.930 . S
H773 C781 0.930 . S
H774 C782 0.930 . S
H775 C783 0.930 . S
H776 C786 0.930 1_556 S
H777 C787 0.930 . S
C778 H772 0.930 . S
C778 C779 1.355 . S
C778 C780 1.415 . S
C779 C778 1.355 . S
C779 C781 1.419 . S
C780 C778 1.415 . S
C780 C785 1.425 . S
C780 C787 1.409 . S
C781 H773 0.930 . S
C781 C779 1.419 . S
C781 C782 1.362 . S
C782 H774 0.930 . S
C782 C781 1.362 . S
C782 C785 1.409 . S
C783 H775 0.930 . S
C783 C784 1.355 . S
C783 C785 1.415 . S
C784 C783 1.355 . S
C784 C786 1.419 . S
C785 C780 1.425 . S
C785 C782 1.409 . S
C785 C783 1.415 . S
C786 H776 0.930 1_554 S
C786 C784 1.419 . S
C786 C787 1.362 . S
C787 H777 0.930 . S
C787 C780 1.409 . S
C787 C786 1.362 . S
H788 C794 0.930 . S
H789 C797 0.930 . S
H790 C798 0.930 . S
H791 C799 0.930 . S
H792 C802 0.930 . S
H793 C803 0.930 . S
C794 H788 0.930 . S
C794 C795 1.355 . S
C794 C796 1.415 . S
C795 C794 1.355 . S
C795 C797 1.419 . S
C796 C794 1.415 . S
C796 C801 1.425 . S
C796 C803 1.409 . S
C797 H789 0.930 . S
C797 C795 1.419 . S
C797 C798 1.362 . S
C798 H790 0.930 . S
C798 C797 1.362 . S
C798 C801 1.409 . S
C799 H791 0.930 . S
C799 C800 1.355 . S
C799 C801 1.415 . S
C800 C799 1.355 . S
C800 C802 1.419 . S
C801 C796 1.425 . S
C801 C798 1.409 . S
C801 C799 1.415 . S
C802 H792 0.930 . S
C802 C800 1.419 . S
C802 C803 1.362 . S
C803 H793 0.930 . S
C803 C796 1.409 . S
C803 C802 1.362 . S
H804 C810 0.930 . S
H805 C813 0.930 . S
H806 C814 0.930 . S
H807 C815 0.930 . S
H808 C818 0.930 . S
H809 C819 0.930 . S
C810 H804 0.930 . S
C810 C811 1.355 . S
C810 C812 1.415 . S
C811 C810 1.355 . S
C811 C813 1.419 . S
C812 C810 1.415 . S
C812 C817 1.425 . S
C812 C819 1.409 . S
C813 H805 0.930 . S
C813 C811 1.419 . S
C813 C814 1.362 . S
C814 H806 0.930 . S
C814 C813 1.362 . S
C814 C817 1.409 . S
C815 H807 0.930 . S
C815 C816 1.355 . S
C815 C817 1.415 . S
C816 C815 1.355 . S
C816 C818 1.419 . S
C817 C812 1.425 . S
C817 C814 1.409 . S
C817 C815 1.415 . S
C818 H808 0.930 . S
C818 C816 1.419 . S
C818 C819 1.362 . S
C819 H809 0.930 . S
C819 C812 1.409 . S
C819 C818 1.362 . S
H820 C826 0.930 . S
H821 C829 0.930 . S
H822 C830 0.930 . S
H823 C831 0.930 . S
H824 C834 0.930 . S
H825 C835 0.930 . S
C826 H820 0.930 . S
C826 C827 1.355 . S
C826 C828 1.415 . S
C827 C826 1.355 . S
C827 C829 1.419 . S
C828 C826 1.415 . S
C828 C833 1.425 . S
C828 C835 1.409 . S
C829 H821 0.930 . S
C829 C827 1.419 . S
C829 C830 1.362 . S
C830 H822 0.930 . S
C830 C829 1.362 . S
C830 C833 1.409 . S
C831 H823 0.930 . S
C831 C832 1.355 . S
C831 C833 1.415 . S
C832 C831 1.355 . S
C832 C834 1.419 . S
C833 C828 1.425 . S
C833 C830 1.409 . S
C833 C831 1.415 . S
C834 H824 0.930 . S
C834 C832 1.419 . S
C834 C835 1.362 . S
C835 H825 0.930 . S
C835 C828 1.409 . S
C835 C834 1.362 . S
H836 C842 0.930 . S
H837 C845 0.930 . S
H838 C846 0.930 . S
H839 C847 0.930 . S
H840 C850 0.930 . S
H841 C851 0.930 . S
C842 H836 0.930 . S
C842 C843 1.355 . S
C842 C844 1.415 . S
C843 C842 1.355 . S
C843 C845 1.419 . S
C844 C842 1.415 . S
C844 C849 1.425 . S
C844 C851 1.409 . S
C845 H837 0.930 . S
C845 C843 1.419 . S
C845 C846 1.362 . S
C846 H838 0.930 . S
C846 C845 1.362 . S
C846 C849 1.409 . S
C847 H839 0.930 . S
C847 C848 1.355 . S
C847 C849 1.415 . S
C848 C847 1.355 . S
C848 C850 1.419 . S
C849 C844 1.425 . S
C849 C846 1.409 . S
C849 C847 1.415 . S
C850 H840 0.930 . S
C850 C848 1.419 . S
C850 C851 1.362 . S
C851 H841 0.930 . S
C851 C844 1.409 . S
C851 C850 1.362 . S
H852 C858 0.930 . S
H853 C861 0.930 . S
H854 C862 0.930 . S
H855 C863 0.930 . S
H856 C866 0.930 . S
H857 C867 0.930 . S
C858 H852 0.930 . S
C858 C859 1.355 . S
C858 C860 1.415 . S
C859 C858 1.355 . S
C859 C861 1.419 . S
C860 C858 1.415 . S
C860 C865 1.425 . S
C860 C867 1.409 1_556 S
C861 H853 0.930 . S
C861 C859 1.419 . S
C861 C862 1.362 . S
C862 H854 0.930 . S
C862 C861 1.362 . S
C862 C865 1.409 . S
C863 H855 0.930 . S
C863 C864 1.355 1_556 S
C863 C865 1.415 . S
C864 C863 1.355 1_554 S
C864 C866 1.419 . S
C865 C860 1.425 . S
C865 C862 1.409 . S
C865 C863 1.415 . S
C866 H856 0.930 . S
C866 C864 1.419 . S
C866 C867 1.362 . S
C867 H857 0.930 . S
C867 C860 1.409 1_554 S
C867 C866 1.362 . S
H868 C874 0.930 . S
H869 C877 0.930 . S
H870 C878 0.930 . S
H871 C879 0.930 . S
H872 C882 0.930 . S
H873 C883 0.930 . S
C874 H868 0.930 . S
C874 C875 1.355 . S
C874 C876 1.415 . S
C875 C874 1.355 . S
C875 C877 1.419 . S
C876 C874 1.415 . S
C876 C881 1.425 . S
C876 C883 1.409 . S
C877 H869 0.930 . S
C877 C875 1.419 . S
C877 C878 1.362 . S
C878 H870 0.930 . S
C878 C877 1.362 . S
C878 C881 1.409 . S
C879 H871 0.930 . S
C879 C880 1.355 . S
C879 C881 1.415 . S
C880 C879 1.355 . S
C880 C882 1.419 . S
C881 C876 1.425 . S
C881 C878 1.409 . S
C881 C879 1.415 . S
C882 H872 0.930 . S
C882 C880 1.419 . S
C882 C883 1.362 . S
C883 H873 0.930 . S
C883 C876 1.409 . S
C883 C882 1.362 . S
H884 C890 0.930 . S
H885 C893 0.930 . S
H886 C894 0.930 . S
H887 C895 0.930 . S
H888 C898 0.930 1_554 S
H889 C899 0.930 . S
C890 H884 0.930 . S
C890 C891 1.355 . S
C890 C892 1.415 . S
C891 C890 1.355 . S
C891 C893 1.419 . S
C892 C890 1.415 . S
C892 C897 1.425 . S
C892 C899 1.409 . S
C893 H885 0.930 . S
C893 C891 1.419 . S
C893 C894 1.362 . S
C894 H886 0.930 . S
C894 C893 1.362 . S
C894 C897 1.409 . S
C895 H887 0.930 . S
C895 C896 1.355 . S
C895 C897 1.415 . S
C896 C895 1.355 . S
C896 C898 1.419 . S
C897 C892 1.425 . S
C897 C894 1.409 . S
C897 C895 1.415 . S
C898 H888 0.930 1_556 S
C898 C896 1.419 . S
C898 C899 1.362 . S
C899 H889 0.930 . S
C899 C892 1.409 . S
C899 C898 1.362 . S
H900 C906 0.930 . S
H901 C909 0.930 . S
H902 C910 0.930 . S
H903 C911 0.930 . S
H904 C914 0.930 . S
H905 C915 0.930 . S
C906 H900 0.930 . S
C906 C907 1.355 . S
C906 C908 1.415 . S
C907 C906 1.355 . S
C907 C909 1.419 . S
C908 C906 1.415 . S
C908 C913 1.425 . S
C908 C915 1.409 . S
C909 H901 0.930 . S
C909 C907 1.419 . S
C909 C910 1.362 . S
C910 H902 0.930 . S
C910 C909 1.362 . S
C910 C913 1.409 . S
C911 H903 0.930 . S
C911 C912 1.355 . S
C911 C913 1.415 . S
C912 C911 1.355 . S
C912 C914 1.419 . S
C913 C908 1.425 . S
C913 C910 1.409 . S
C913 C911 1.415 . S
C914 H904 0.930 . S
C914 C912 1.419 . S
C914 C915 1.362 . S
C915 H905 0.930 . S
C915 C908 1.409 . S
C915 C914 1.362 . S
H916 C922 0.930 . S
H917 C925 0.930 . S
H918 C926 0.930 . S
H919 C927 0.930 . S
H920 C930 0.930 . S
H921 C931 0.930 . S
C922 H916 0.930 . S
C922 C923 1.355 . S
C922 C924 1.415 . S
C923 C922 1.355 . S
C923 C925 1.419 . S
C924 C922 1.415 . S
C924 C929 1.425 . S
C924 C931 1.409 . S
C925 H917 0.930 . S
C925 C923 1.419 . S
C925 C926 1.362 . S
C926 H918 0.930 . S
C926 C925 1.362 . S
C926 C929 1.409 . S
C927 H919 0.930 . S
C927 C928 1.355 . S
C927 C929 1.415 . S
C928 C927 1.355 . S
C928 C930 1.419 . S
C929 C924 1.425 . S
C929 C926 1.409 . S
C929 C927 1.415 . S
C930 H920 0.930 . S
C930 C928 1.419 . S
C930 C931 1.362 . S
C931 H921 0.930 . S
C931 C924 1.409 . S
C931 C930 1.362 . S
H932 C938 0.930 . S
H933 C941 0.930 . S
H934 C942 0.930 . S
H935 C943 0.930 . S
H936 C946 0.930 . S
H937 C947 0.930 . S
C938 H932 0.930 . S
C938 C939 1.355 . S
C938 C940 1.415 . S
C939 C938 1.355 . S
C939 C941 1.419 . S
C940 C938 1.415 . S
C940 C945 1.425 . S
C940 C947 1.409 . S
C941 H933 0.930 . S
C941 C939 1.419 . S
C941 C942 1.362 . S
C942 H934 0.930 . S
C942 C941 1.362 . S
C942 C945 1.409 . S
C943 H935 0.930 . S
C943 C944 1.355 . S
C943 C945 1.415 . S
C944 C943 1.355 . S
C944 C946 1.419 . S
C945 C940 1.425 . S
C945 C942 1.409 . S
C945 C943 1.415 . S
C946 H936 0.930 . S
C946 C944 1.419 . S
C946 C947 1.362 . S
C947 H937 0.930 . S
C947 C940 1.409 . S
C947 C946 1.362 . S
H948 C954 0.930 . S
H949 C957 0.930 . S
H950 C958 0.930 . S
H951 C959 0.930 1_554 S
H952 C962 0.930 . S
H953 C963 0.930 . S
C954 H948 0.930 . S
C954 C955 1.355 . S
C954 C956 1.415 . S
C955 C954 1.355 . S
C955 C957 1.419 . S
C956 C954 1.415 . S
C956 C961 1.425 . S
C956 C963 1.409 . S
C957 H949 0.930 . S
C957 C955 1.419 . S
C957 C958 1.362 . S
C958 H950 0.930 . S
C958 C957 1.362 . S
C958 C961 1.409 . S
C959 H951 0.930 1_556 S
C959 C960 1.355 . S
C959 C961 1.415 . S
C960 C959 1.355 . S
C960 C962 1.419 . S
C961 C956 1.425 . S
C961 C958 1.409 . S
C961 C959 1.415 . S
C962 H952 0.930 . S
C962 C960 1.419 . S
C962 C963 1.362 . S
C963 H953 0.930 . S
C963 C956 1.409 . S
C963 C962 1.362 . S
H964 C970 0.930 . S
H965 C973 0.930 . S
H966 C974 0.930 1_545 S
H967 C975 0.930 1_545 S
H968 C978 0.930 . S
H969 C979 0.930 . S
C970 H964 0.930 . S
C970 C971 1.355 . S
C970 C972 1.415 . S
C971 C970 1.355 . S
C971 C973 1.419 . S
C972 C970 1.415 . S
C972 C977 1.425 . S
C972 C979 1.409 . S
C973 H965 0.930 . S
C973 C971 1.419 . S
C973 C974 1.362 . S
C974 H966 0.930 1_565 S
C974 C973 1.362 . S
C974 C977 1.409 . S
C975 H967 0.930 1_565 S
C975 C976 1.355 . S
C975 C977 1.415 . S
C976 C975 1.355 . S
C976 C978 1.419 . S
C977 C972 1.425 . S
C977 C974 1.409 . S
C977 C975 1.415 . S
C978 H968 0.930 . S
C978 C976 1.419 . S
C978 C979 1.362 . S
C979 H969 0.930 . S
C979 C972 1.409 . S
C979 C978 1.362 . S
H980 C986 0.930 . S
H981 C989 0.930 . S
H982 C990 0.930 . S
H983 C991 0.930 . S
H984 C994 0.930 . S
H985 C995 0.930 . S
C986 H980 0.930 . S
C986 C987 1.355 . S
C986 C988 1.415 . S
C987 C986 1.355 . S
C987 C989 1.419 . S
C988 C986 1.415 . S
C988 C993 1.425 . S
C988 C995 1.409 . S
C989 H981 0.930 . S
C989 C987 1.419 . S
C989 C990 1.362 . S
C990 H982 0.930 . S
C990 C989 1.362 . S
C990 C993 1.409 . S
C991 H983 0.930 . S
C991 C992 1.355 . S
C991 C993 1.415 . S
C992 C991 1.355 . S
C992 C994 1.419 . S
C993 C988 1.425 . S
C993 C990 1.409 . S
C993 C991 1.415 . S
C994 H984 0.930 . S
C994 C992 1.419 . S
C994 C995 1.362 . S
C995 H985 0.930 . S
C995 C988 1.409 . S
C995 C994 1.362 . S
H996 C1002 0.930 . S
H997 C1005 0.930 . S
H998 C1006 0.930 . S
H999 C1007 0.930 . S
H1000 C1010 0.930 . S
H1001 C1011 0.930 . S
C1002 H996 0.930 . S
C1002 C1003 1.355 . S
C1002 C1004 1.415 . S
C1003 C1002 1.355 . S
C1003 C1005 1.419 . S
C1004 C1002 1.415 . S
C1004 C1009 1.425 . S
C1004 C1011 1.409 . S
C1005 H997 0.930 . S
C1005 C1003 1.419 . S
C1005 C1006 1.362 . S
C1006 H998 0.930 . S
C1006 C1005 1.362 . S
C1006 C1009 1.409 . S
C1007 H999 0.930 . S
C1007 C1008 1.355 . S
C1007 C1009 1.415 . S
C1008 C1007 1.355 . S
C1008 C1010 1.419 . S
C1009 C1004 1.425 . S
C1009 C1006 1.409 . S
C1009 C1007 1.415 . S
C1010 H1000 0.930 . S
C1010 C1008 1.419 . S
C1010 C1011 1.362 . S
C1011 H1001 0.930 . S
C1011 C1004 1.409 . S
C1011 C1010 1.362 . S
H1012 C1018 0.930 . S
H1013 C1021 0.930 . S
H1014 C1022 0.930 . S
H1015 C1023 0.930 . S
H1016 C1026 0.930 . S
H1017 C1027 0.930 . S
C1018 H1012 0.930 . S
C1018 C1019 1.355 . S
C1018 C1020 1.415 . S
C1019 C1018 1.355 . S
C1019 C1021 1.419 . S
C1020 C1018 1.415 . S
C1020 C1025 1.425 . S
C1020 C1027 1.409 . S
C1021 H1013 0.930 . S
C1021 C1019 1.419 . S
C1021 C1022 1.362 . S
C1022 H1014 0.930 . S
C1022 C1021 1.362 . S
C1022 C1025 1.409 . S
C1023 H1015 0.930 . S
C1023 C1024 1.355 . S
C1023 C1025 1.415 . S
C1024 C1023 1.355 . S
C1024 C1026 1.419 . S
C1025 C1020 1.425 . S
C1025 C1022 1.409 . S
C1025 C1023 1.415 . S
C1026 H1016 0.930 . S
C1026 C1024 1.419 . S
C1026 C1027 1.362 . S
C1027 H1017 0.930 . S
C1027 C1020 1.409 . S
C1027 C1026 1.362 . S
H1028 C1034 0.930 . S
H1029 C1037 0.930 . S
H1030 C1038 0.930 . S
H1031 C1039 0.930 . S
H1032 C1042 0.930 . S
H1033 C1043 0.930 . S
C1034 H1028 0.930 . S
C1034 C1035 1.355 . S
C1034 C1036 1.415 . S
C1035 C1034 1.355 . S
C1035 C1037 1.419 . S
C1036 C1034 1.415 . S
C1036 C1041 1.425 . S
C1036 C1043 1.409 . S
C1037 H1029 0.930 . S
C1037 C1035 1.419 . S
C1037 C1038 1.362 . S
C1038 H1030 0.930 . S
C1038 C1037 1.362 . S
C1038 C1041 1.409 . S
C1039 H1031 0.930 . S
C1039 C1040 1.355 . S
C1039 C1041 1.415 . S
C1040 C1039 1.355 . S
C1040 C1042 1.419 . S
C1041 C1036 1.425 . S
C1041 C1038 1.409 . S
C1041 C1039 1.415 . S
C1042 H1032 0.930 . S
C1042 C1040 1.419 . S
C1042 C1043 1.362 . S
C1043 H1033 0.930 . S
C1043 C1036 1.409 . S
C1043 C1042 1.362 . S
H1044 C1050 0.930 . S
H1045 C1053 0.930 . S
H1046 C1054 0.930 . S
H1047 C1055 0.930 . S
H1048 C1058 0.930 . S
H1049 C1059 0.930 . S
C1050 H1044 0.930 . S
C1050 C1051 1.355 . S
C1050 C1052 1.415 . S
C1051 C1050 1.355 . S
C1051 C1053 1.419 . S
C1052 C1050 1.415 . S
C1052 C1057 1.425 . S
C1052 C1059 1.409 . S
C1053 H1045 0.930 . S
C1053 C1051 1.419 . S
C1053 C1054 1.362 . S
C1054 H1046 0.930 . S
C1054 C1053 1.362 . S
C1054 C1057 1.409 . S
C1055 H1047 0.930 . S
C1055 C1056 1.355 . S
C1055 C1057 1.415 . S
C1056 C1055 1.355 . S
C1056 C1058 1.419 . S
C1057 C1052 1.425 . S
C1057 C1054 1.409 . S
C1057 C1055 1.415 . S
C1058 H1048 0.930 . S
C1058 C1056 1.419 . S
C1058 C1059 1.362 . S
C1059 H1049 0.930 . S
C1059 C1052 1.409 . S
C1059 C1058 1.362 . S
H1060 C1066 0.930 . S
H1061 C1069 0.930 . S
H1062 C1070 0.930 . S
H1063 C1071 0.930 . S
H1064 C1074 0.930 . S
H1065 C1075 0.930 . S
C1066 H1060 0.930 . S
C1066 C1067 1.355 . S
C1066 C1068 1.415 . S
C1067 C1066 1.355 . S
C1067 C1069 1.419 . S
C1068 C1066 1.415 . S
C1068 C1073 1.425 . S
C1068 C1075 1.409 . S
C1069 H1061 0.930 . S
C1069 C1067 1.419 . S
C1069 C1070 1.362 . S
C1070 H1062 0.930 . S
C1070 C1069 1.362 . S
C1070 C1073 1.409 . S
C1071 H1063 0.930 . S
C1071 C1072 1.355 . S
C1071 C1073 1.415 . S
C1072 C1071 1.355 . S
C1072 C1074 1.419 . S
C1073 C1068 1.425 . S
C1073 C1070 1.409 . S
C1073 C1071 1.415 . S
C1074 H1064 0.930 . S
C1074 C1072 1.419 . S
C1074 C1075 1.362 . S
C1075 H1065 0.930 . S
C1075 C1068 1.409 . S
C1075 C1074 1.362 . S
H1076 C1082 0.930 . S
H1077 C1085 0.930 . S
H1078 C1086 0.930 . S
H1079 C1087 0.929 . S
H1080 C1090 0.930 . S
H1081 C1091 0.930 . S
C1082 H1076 0.930 . S
C1082 C1083 1.355 . S
C1082 C1084 1.415 . S
C1083 C1082 1.355 . S
C1083 C1085 1.419 . S
C1084 C1082 1.415 . S
C1084 C1089 1.425 . S
C1084 C1091 1.409 . S
C1085 H1077 0.930 . S
C1085 C1083 1.419 . S
C1085 C1086 1.362 . S
C1086 H1078 0.930 . S
C1086 C1085 1.362 . S
C1086 C1089 1.409 . S
C1087 H1079 0.929 . S
C1087 C1088 1.355 . S
C1087 C1089 1.415 . S
C1088 C1087 1.355 . S
C1088 C1090 1.419 . S
C1089 C1084 1.425 . S
C1089 C1086 1.409 . S
C1089 C1087 1.415 . S
C1090 H1080 0.930 . S
C1090 C1088 1.419 . S
C1090 C1091 1.362 . S
C1091 H1081 0.930 . S
C1091 C1084 1.409 . S
C1091 C1090 1.362 . S
H1092 C1098 0.930 . S
H1093 C1101 0.930 . S
H1094 C1102 0.930 . S
H1095 C1103 0.930 . S
H1096 C1106 0.930 . S
H1097 C1107 0.930 . S
C1098 H1092 0.930 . S
C1098 C1099 1.355 . S
C1098 C1100 1.415 . S
C1099 C1098 1.355 . S
C1099 C1101 1.419 . S
C1100 C1098 1.415 . S
C1100 C1105 1.425 . S
C1100 C1107 1.409 . S
C1101 H1093 0.930 . S
C1101 C1099 1.419 . S
C1101 C1102 1.362 . S
C1102 H1094 0.930 . S
C1102 C1101 1.362 . S
C1102 C1105 1.409 . S
C1103 H1095 0.930 . S
C1103 C1104 1.355 . S
C1103 C1105 1.415 . S
C1104 C1103 1.355 . S
C1104 C1106 1.419 . S
C1105 C1100 1.425 . S
C1105 C1102 1.409 . S
C1105 C1103 1.415 . S
C1106 H1096 0.930 . S
C1106 C1104 1.419 . S
C1106 C1107 1.362 . S
C1107 H1097 0.930 . S
C1107 C1100 1.409 . S
C1107 C1106 1.362 . S
H1108 C1114 0.930 . S
H1109 C1117 0.930 . S
H1110 C1118 0.930 . S
H1111 C1119 0.930 . S
H1112 C1122 0.930 . S
H1113 C1123 0.930 . S
C1114 H1108 0.930 . S
C1114 C1115 1.355 . S
C1114 C1116 1.415 . S
C1115 C1114 1.355 . S
C1115 C1117 1.419 . S
C1116 C1114 1.415 . S
C1116 C1121 1.425 . S
C1116 C1123 1.409 . S
C1117 H1109 0.930 . S
C1117 C1115 1.419 . S
C1117 C1118 1.362 . S
C1118 H1110 0.930 . S
C1118 C1117 1.362 . S
C1118 C1121 1.409 . S
C1119 H1111 0.930 . S
C1119 C1120 1.355 . S
C1119 C1121 1.415 . S
C1120 C1119 1.355 . S
C1120 C1122 1.419 . S
C1121 C1116 1.425 . S
C1121 C1118 1.409 . S
C1121 C1119 1.415 . S
C1122 H1112 0.930 . S
C1122 C1120 1.419 . S
C1122 C1123 1.362 . S
C1123 H1113 0.930 . S
C1123 C1116 1.409 . S
C1123 C1122 1.362 . S
H1124 C1130 0.930 . S
H1125 C1133 0.930 . S
H1126 C1134 0.930 . S
H1127 C1135 0.930 . S
H1128 C1138 0.930 . S
H1129 C1139 0.930 . S
C1130 H1124 0.930 . S
C1130 C1131 1.355 . S
C1130 C1132 1.415 . S
C1131 C1130 1.355 . S
C1131 C1133 1.419 . S
C1132 C1130 1.415 . S
C1132 C1137 1.425 . S
C1132 C1139 1.409 . S
C1133 H1125 0.930 . S
C1133 C1131 1.419 . S
C1133 C1134 1.362 . S
C1134 H1126 0.930 . S
C1134 C1133 1.362 . S
C1134 C1137 1.409 . S
C1135 H1127 0.930 . S
C1135 C1136 1.355 . S
C1135 C1137 1.415 . S
C1136 C1135 1.355 . S
C1136 C1138 1.419 . S
C1137 C1132 1.425 . S
C1137 C1134 1.409 . S
C1137 C1135 1.415 . S
C1138 H1128 0.930 . S
C1138 C1136 1.419 . S
C1138 C1139 1.362 . S
C1139 H1129 0.930 . S
C1139 C1132 1.409 . S
C1139 C1138 1.362 . S
H1140 C1146 0.930 . S
H1141 C1149 0.930 . S
H1142 C1150 0.930 . S
H1143 C1151 0.930 . S
H1144 C1154 0.930 . S
H1145 C1155 0.930 . S
C1146 H1140 0.930 . S
C1146 C1147 1.355 . S
C1146 C1148 1.415 . S
C1147 C1146 1.355 . S
C1147 C1149 1.419 . S
C1148 C1146 1.415 . S
C1148 C1153 1.425 . S
C1148 C1155 1.409 . S
C1149 H1141 0.930 . S
C1149 C1147 1.419 . S
C1149 C1150 1.362 . S
C1150 H1142 0.930 . S
C1150 C1149 1.362 . S
C1150 C1153 1.409 . S
C1151 H1143 0.930 . S
C1151 C1152 1.355 . S
C1151 C1153 1.415 . S
C1152 C1151 1.355 . S
C1152 C1154 1.419 . S
C1153 C1148 1.425 . S
C1153 C1150 1.409 . S
C1153 C1151 1.415 . S
C1154 H1144 0.930 . S
C1154 C1152 1.419 . S
C1154 C1155 1.362 . S
C1155 H1145 0.930 . S
C1155 C1148 1.409 . S
C1155 C1154 1.362 . S
H1156 C1162 0.930 . S
H1157 C1165 0.930 . S
H1158 C1166 0.930 . S
H1159 C1167 0.930 . S
H1160 C1170 0.930 . S
H1161 C1171 0.930 . S
C1162 H1156 0.930 . S
C1162 C1163 1.355 . S
C1162 C1164 1.415 . S
C1163 C1162 1.355 . S
C1163 C1165 1.419 . S
C1164 C1162 1.415 . S
C1164 C1169 1.425 . S
C1164 C1171 1.409 . S
C1165 H1157 0.930 . S
C1165 C1163 1.419 . S
C1165 C1166 1.362 . S
C1166 H1158 0.930 . S
C1166 C1165 1.362 . S
C1166 C1169 1.409 . S
C1167 H1159 0.930 . S
C1167 C1168 1.355 . S
C1167 C1169 1.415 . S
C1168 C1167 1.355 . S
C1168 C1170 1.419 . S
C1169 C1164 1.425 . S
C1169 C1166 1.409 . S
C1169 C1167 1.415 . S
C1170 H1160 0.930 . S
C1170 C1168 1.419 . S
C1170 C1171 1.362 . S
C1171 H1161 0.930 . S
C1171 C1164 1.409 . S
C1171 C1170 1.362 . S
H1172 C1178 0.930 . S
H1173 C1181 0.930 . S
H1174 C1182 0.930 . S
H1175 C1183 0.930 . S
H1176 C1186 0.930 . S
H1177 C1187 0.930 . S
C1178 H1172 0.930 . S
C1178 C1179 1.355 . S
C1178 C1180 1.415 . S
C1179 C1178 1.355 . S
C1179 C1181 1.419 . S
C1180 C1178 1.415 . S
C1180 C1185 1.425 . S
C1180 C1187 1.409 . S
C1181 H1173 0.930 . S
C1181 C1179 1.419 . S
C1181 C1182 1.362 . S
C1182 H1174 0.930 . S
C1182 C1181 1.362 . S
C1182 C1185 1.409 . S
C1183 H1175 0.930 . S
C1183 C1184 1.355 . S
C1183 C1185 1.415 . S
C1184 C1183 1.355 . S
C1184 C1186 1.419 . S
C1185 C1180 1.425 . S
C1185 C1182 1.409 . S
C1185 C1183 1.415 . S
C1186 H1176 0.930 . S
C1186 C1184 1.419 . S
C1186 C1187 1.362 . S
C1187 H1177 0.930 . S
C1187 C1180 1.409 . S
C1187 C1186 1.362 . S
H1188 C1194 0.930 . S
H1189 C1197 0.930 . S
H1190 C1198 0.930 . S
H1191 C1199 0.930 . S
H1192 C1202 0.930 . S
H1193 C1203 0.930 . S
C1194 H1188 0.930 . S
C1194 C1195 1.355 . S
C1194 C1196 1.415 . S
C1195 C1194 1.355 . S
C1195 C1197 1.419 . S
C1196 C1194 1.415 . S
C1196 C1201 1.425 . S
C1196 C1203 1.409 . S
C1197 H1189 0.930 . S
C1197 C1195 1.419 . S
C1197 C1198 1.362 . S
C1198 H1190 0.930 . S
C1198 C1197 1.362 . S
C1198 C1201 1.409 . S
C1199 H1191 0.930 . S
C1199 C1200 1.355 . S
C1199 C1201 1.415 . S
C1200 C1199 1.355 . S
C1200 C1202 1.419 . S
C1201 C1196 1.425 . S
C1201 C1198 1.409 . S
C1201 C1199 1.415 . S
C1202 H1192 0.930 . S
C1202 C1200 1.419 . S
C1202 C1203 1.362 . S
C1203 H1193 0.930 . S
C1203 C1196 1.409 . S
C1203 C1202 1.362 . S
H1204 C1210 0.930 . S
H1205 C1213 0.930 . S
H1206 C1214 0.930 . S
H1207 C1215 0.930 . S
H1208 C1218 0.930 . S
H1209 C1219 0.930 . S
C1210 H1204 0.930 . S
C1210 C1211 1.355 . S
C1210 C1212 1.415 . S
C1211 C1210 1.355 . S
C1211 C1213 1.419 . S
C1212 C1210 1.415 . S
C1212 C1217 1.425 . S
C1212 C1219 1.409 . S
C1213 H1205 0.930 . S
C1213 C1211 1.419 . S
C1213 C1214 1.362 . S
C1214 H1206 0.930 . S
C1214 C1213 1.362 . S
C1214 C1217 1.409 . S
C1215 H1207 0.930 . S
C1215 C1216 1.355 . S
C1215 C1217 1.415 . S
C1216 C1215 1.355 . S
C1216 C1218 1.419 . S
C1217 C1212 1.425 . S
C1217 C1214 1.409 . S
C1217 C1215 1.415 . S
C1218 H1208 0.930 . S
C1218 C1216 1.419 . S
C1218 C1219 1.362 . S
C1219 H1209 0.930 . S
C1219 C1212 1.409 . S
C1219 C1218 1.362 . S
H1220 C1226 0.930 . S
H1221 C1229 0.930 . S
H1222 C1230 0.930 . S
H1223 C1231 0.930 . S
H1224 C1234 0.930 . S
H1225 C1235 0.930 . S
C1226 H1220 0.930 . S
C1226 C1227 1.355 . S
C1226 C1228 1.415 . S
C1227 C1226 1.355 . S
C1227 C1229 1.419 . S
C1228 C1226 1.415 . S
C1228 C1233 1.425 . S
C1228 C1235 1.409 . S
C1229 H1221 0.930 . S
C1229 C1227 1.419 . S
C1229 C1230 1.362 . S
C1230 H1222 0.930 . S
C1230 C1229 1.362 . S
C1230 C1233 1.409 . S
C1231 H1223 0.930 . S
C1231 C1232 1.355 . S
C1231 C1233 1.415 . S
C1232 C1231 1.355 . S
C1232 C1234 1.419 . S
C1233 C1228 1.425 . S
C1233 C1230 1.409 . S
C1233 C1231 1.415 . S
C1234 H1224 0.930 . S
C1234 C1232 1.419 . S
C1234 C1235 1.362 . S
C1235 H1225 0.930 . S
C1235 C1228 1.409 . S
C1235 C1234 1.362 . S
H1236 C1242 0.930 . S
H1237 C1245 0.930 . S
H1238 C1246 0.930 . S
H1239 C1247 0.930 . S
H1240 C1250 0.930 . S
H1241 C1251 0.930 . S
C1242 H1236 0.930 . S
C1242 C1243 1.355 . S
C1242 C1244 1.415 . S
C1243 C1242 1.355 . S
C1243 C1245 1.419 . S
C1244 C1242 1.415 . S
C1244 C1249 1.425 . S
C1244 C1251 1.409 . S
C1245 H1237 0.930 . S
C1245 C1243 1.419 . S
C1245 C1246 1.362 . S
C1246 H1238 0.930 . S
C1246 C1245 1.362 . S
C1246 C1249 1.409 . S
C1247 H1239 0.930 . S
C1247 C1248 1.355 . S
C1247 C1249 1.415 . S
C1248 C1247 1.355 . S
C1248 C1250 1.419 . S
C1249 C1244 1.425 . S
C1249 C1246 1.409 . S
C1249 C1247 1.415 . S
C1250 H1240 0.930 . S
C1250 C1248 1.419 . S
C1250 C1251 1.362 . S
C1251 H1241 0.930 . S
C1251 C1244 1.409 . S
C1251 C1250 1.362 . S
H1252 C1258 0.930 . S
H1253 C1261 0.930 . S
H1254 C1262 0.930 . S
H1255 C1263 0.930 . S
H1256 C1266 0.930 . S
H1257 C1267 0.930 . S
C1258 H1252 0.930 . S
C1258 C1259 1.355 . S
C1258 C1260 1.415 . S
C1259 C1258 1.355 . S
C1259 C1261 1.419 . S
C1260 C1258 1.415 . S
C1260 C1265 1.425 . S
C1260 C1267 1.409 . S
C1261 H1253 0.930 . S
C1261 C1259 1.419 . S
C1261 C1262 1.362 . S
C1262 H1254 0.930 . S
C1262 C1261 1.362 . S
C1262 C1265 1.409 . S
C1263 H1255 0.930 . S
C1263 C1264 1.355 . S
C1263 C1265 1.415 . S
C1264 C1263 1.355 . S
C1264 C1266 1.419 . S
C1265 C1260 1.425 . S
C1265 C1262 1.409 . S
C1265 C1263 1.415 . S
C1266 H1256 0.930 . S
C1266 C1264 1.419 . S
C1266 C1267 1.362 . S
C1267 H1257 0.930 . S
C1267 C1260 1.409 . S
C1267 C1266 1.362 . S
H1268 C1274 0.930 . S
H1269 C1277 0.930 . S
H1270 C1278 0.930 . S
H1271 C1279 0.930 . S
H1272 C1282 0.930 . S
H1273 C1283 0.930 . S
C1274 H1268 0.930 . S
C1274 C1275 1.355 . S
C1274 C1276 1.415 . S
C1275 C1274 1.355 . S
C1275 C1277 1.419 . S
C1276 C1274 1.415 . S
C1276 C1281 1.425 . S
C1276 C1283 1.409 . S
C1277 H1269 0.930 . S
C1277 C1275 1.419 . S
C1277 C1278 1.362 . S
C1278 H1270 0.930 . S
C1278 C1277 1.362 . S
C1278 C1281 1.409 . S
C1279 H1271 0.930 . S
C1279 C1280 1.355 . S
C1279 C1281 1.415 . S
C1280 C1279 1.355 . S
C1280 C1282 1.419 . S
C1281 C1276 1.425 . S
C1281 C1278 1.409 . S
C1281 C1279 1.415 . S
C1282 H1272 0.930 . S
C1282 C1280 1.419 . S
C1282 C1283 1.362 . S
C1283 H1273 0.930 . S
C1283 C1276 1.409 . S
C1283 C1282 1.362 . S
H1284 C1290 0.930 . S
H1285 C1293 0.930 . S
H1286 C1294 0.930 . S
H1287 C1295 0.930 . S
H1288 C1298 0.930 . S
H1289 C1299 0.930 . S
C1290 H1284 0.930 . S
C1290 C1291 1.355 . S
C1290 C1292 1.415 . S
C1291 C1290 1.355 . S
C1291 C1293 1.419 . S
C1292 C1290 1.415 . S
C1292 C1297 1.425 . S
C1292 C1299 1.409 . S
C1293 H1285 0.930 . S
C1293 C1291 1.419 . S
C1293 C1294 1.362 . S
C1294 H1286 0.930 . S
C1294 C1293 1.362 . S
C1294 C1297 1.409 . S
C1295 H1287 0.930 . S
C1295 C1296 1.355 . S
C1295 C1297 1.415 . S
C1296 C1295 1.355 . S
C1296 C1298 1.419 . S
C1297 C1292 1.425 . S
C1297 C1294 1.409 . S
C1297 C1295 1.415 . S
C1298 H1288 0.930 . S
C1298 C1296 1.419 . S
C1298 C1299 1.362 . S
C1299 H1289 0.930 . S
C1299 C1292 1.409 . S
C1299 C1298 1.362 . S
H1300 C1306 0.930 . S
H1301 C1309 0.930 . S
H1302 C1310 0.930 . S
H1303 C1311 0.930 . S
H1304 C1314 0.930 . S
H1305 C1315 0.930 . S
C1306 H1300 0.930 . S
C1306 C1307 1.355 . S
C1306 C1308 1.415 . S
C1307 C1306 1.355 . S
C1307 C1309 1.419 . S
C1308 C1306 1.415 . S
C1308 C1313 1.425 . S
C1308 C1315 1.409 . S
C1309 H1301 0.930 . S
C1309 C1307 1.419 . S
C1309 C1310 1.362 . S
C1310 H1302 0.930 . S
C1310 C1309 1.362 . S
C1310 C1313 1.409 . S
C1311 H1303 0.930 . S
C1311 C1312 1.355 . S
C1311 C1313 1.415 . S
C1312 C1311 1.355 . S
C1312 C1314 1.419 . S
C1313 C1308 1.425 . S
C1313 C1310 1.409 . S
C1313 C1311 1.415 . S
C1314 H1304 0.930 . S
C1314 C1312 1.419 . S
C1314 C1315 1.362 . S
C1315 H1305 0.930 . S
C1315 C1308 1.409 . S
C1315 C1314 1.362 . S
H1316 C1322 0.930 . S
H1317 C1325 0.930 . S
H1318 C1326 0.930 . S
H1319 C1327 0.930 . S
H1320 C1330 0.930 . S
H1321 C1331 0.930 . S
C1322 H1316 0.930 . S
C1322 C1323 1.355 . S
C1322 C1324 1.415 . S
C1323 C1322 1.355 . S
C1323 C1325 1.419 . S
C1324 C1322 1.415 . S
C1324 C1329 1.425 . S
C1324 C1331 1.409 . S
C1325 H1317 0.930 . S
C1325 C1323 1.419 . S
C1325 C1326 1.362 . S
C1326 H1318 0.930 . S
C1326 C1325 1.362 . S
C1326 C1329 1.409 . S
C1327 H1319 0.930 . S
C1327 C1328 1.355 . S
C1327 C1329 1.415 . S
C1328 C1327 1.355 . S
C1328 C1330 1.419 . S
C1329 C1324 1.425 . S
C1329 C1326 1.409 . S
C1329 C1327 1.415 . S
C1330 H1320 0.930 . S
C1330 C1328 1.419 . S
C1330 C1331 1.362 . S
C1331 H1321 0.930 . S
C1331 C1324 1.409 . S
C1331 C1330 1.362 . S
H1332 C1338 0.930 . S
H1333 C1341 0.930 . S
H1334 C1342 0.930 . S
H1335 C1343 0.930 . S
H1336 C1346 0.930 . S
H1337 C1347 0.930 . S
C1338 H1332 0.930 . S
C1338 C1339 1.355 . S
C1338 C1340 1.415 . S
C1339 C1338 1.355 . S
C1339 C1341 1.419 . S
C1340 C1338 1.415 . S
C1340 C1345 1.425 . S
C1340 C1347 1.409 . S
C1341 H1333 0.930 . S
C1341 C1339 1.419 . S
C1341 C1342 1.362 . S
C1342 H1334 0.930 . S
C1342 C1341 1.362 . S
C1342 C1345 1.409 . S
C1343 H1335 0.930 . S
C1343 C1344 1.355 . S
C1343 C1345 1.415 . S
C1344 C1343 1.355 . S
C1344 C1346 1.419 . S
C1345 C1340 1.425 . S
C1345 C1342 1.409 . S
C1345 C1343 1.415 . S
C1346 H1336 0.930 . S
C1346 C1344 1.419 . S
C1346 C1347 1.362 . S
C1347 H1337 0.930 . S
C1347 C1340 1.409 . S
C1347 C1346 1.362 . S
H1348 C1354 0.930 . S
H1349 C1357 0.930 . S
H1350 C1358 0.930 . S
H1351 C1359 0.930 . S
H1352 C1362 0.930 . S
H1353 C1363 0.930 . S
C1354 H1348 0.930 . S
C1354 C1355 1.355 . S
C1354 C1356 1.415 . S
C1355 C1354 1.355 . S
C1355 C1357 1.419 . S
C1356 C1354 1.415 . S
C1356 C1361 1.425 . S
C1356 C1363 1.409 . S
C1357 H1349 0.930 . S
C1357 C1355 1.419 . S
C1357 C1358 1.362 . S
C1358 H1350 0.930 . S
C1358 C1357 1.362 . S
C1358 C1361 1.409 . S
C1359 H1351 0.930 . S
C1359 C1360 1.355 . S
C1359 C1361 1.415 . S
C1360 C1359 1.355 . S
C1360 C1362 1.419 . S
C1361 C1356 1.425 . S
C1361 C1358 1.409 . S
C1361 C1359 1.415 . S
C1362 H1352 0.930 . S
C1362 C1360 1.419 . S
C1362 C1363 1.362 . S
C1363 H1353 0.930 . S
C1363 C1356 1.409 . S
C1363 C1362 1.362 . S
H1364 C1370 0.930 . S
H1365 C1373 0.930 . S
H1366 C1374 0.930 . S
H1367 C1375 0.930 . S
H1368 C1378 0.930 . S
H1369 C1379 0.930 . S
C1370 H1364 0.930 . S
C1370 C1371 1.355 . S
C1370 C1372 1.415 . S
C1371 C1370 1.355 . S
C1371 C1373 1.419 . S
C1372 C1370 1.415 . S
C1372 C1377 1.425 . S
C1372 C1379 1.409 . S
C1373 H1365 0.930 . S
C1373 C1371 1.419 . S
C1373 C1374 1.362 . S
C1374 H1366 0.930 . S
C1374 C1373 1.362 . S
C1374 C1377 1.409 . S
C1375 H1367 0.930 . S
C1375 C1376 1.355 . S
C1375 C1377 1.415 . S
C1376 C1375 1.355 . S
C1376 C1378 1.419 . S
C1377 C1372 1.425 . S
C1377 C1374 1.409 . S
C1377 C1375 1.415 . S
C1378 H1368 0.930 . S
C1378 C1376 1.419 . S
C1378 C1379 1.362 . S
C1379 H1369 0.930 . S
C1379 C1372 1.409 . S
C1379 C1378 1.362 . S
H1380 C1386 0.930 . S
H1381 C1389 0.930 . S
H1382 C1390 0.930 . S
H1383 C1391 0.930 . S
H1384 C1394 0.930 . S
H1385 C1395 0.930 . S
C1386 H1380 0.930 . S
C1386 C1387 1.355 . S
C1386 C1388 1.415 . S
C1387 C1386 1.355 . S
C1387 C1389 1.419 . S
C1388 C1386 1.415 . S
C1388 C1393 1.425 . S
C1388 C1395 1.409 . S
C1389 H1381 0.930 . S
C1389 C1387 1.419 . S
C1389 C1390 1.362 . S
C1390 H1382 0.930 . S
C1390 C1389 1.362 . S
C1390 C1393 1.409 . S
C1391 H1383 0.930 . S
C1391 C1392 1.355 . S
C1391 C1393 1.415 . S
C1392 C1391 1.355 . S
C1392 C1394 1.419 . S
C1393 C1388 1.425 . S
C1393 C1390 1.409 . S
C1393 C1391 1.415 . S
C1394 H1384 0.930 . S
C1394 C1392 1.419 . S
C1394 C1395 1.362 . S
C1395 H1385 0.930 . S
C1395 C1388 1.409 . S
C1395 C1394 1.362 . S
H1396 C1402 0.930 . S
H1397 C1405 0.930 . S
H1398 C1406 0.930 . S
H1399 C1407 0.930 . S
H1400 C1410 0.930 . S
H1401 C1411 0.930 . S
C1402 H1396 0.930 . S
C1402 C1403 1.355 . S
C1402 C1404 1.415 . S
C1403 C1402 1.355 . S
C1403 C1405 1.419 . S
C1404 C1402 1.415 . S
C1404 C1409 1.425 . S
C1404 C1411 1.409 . S
C1405 H1397 0.930 . S
C1405 C1403 1.419 . S
C1405 C1406 1.362 . S
C1406 H1398 0.930 . S
C1406 C1405 1.362 . S
C1406 C1409 1.409 . S
C1407 H1399 0.930 . S
C1407 C1408 1.355 . S
C1407 C1409 1.415 . S
C1408 C1407 1.355 . S
C1408 C1410 1.419 . S
C1409 C1404 1.425 . S
C1409 C1406 1.409 . S
C1409 C1407 1.415 . S
C1410 H1400 0.930 . S
C1410 C1408 1.419 . S
C1410 C1411 1.362 . S
C1411 H1401 0.930 . S
C1411 C1404 1.409 . S
C1411 C1410 1.362 . S
C656 C355 2.434 . S
C651 C18 2.414 . S
C672 C333 2.579 . S
C667 C59 2.548 . S
C688 C330 0.794 . S
C683 C98 0.813 . S
C699 C125 1.067 . S
C704 C342 0.972 . S
C715 C169 2.501 . S
C720 C325 2.475 . S
C736 C347 0.848 . S
C731 C218 0.772 . S
C747 C255 1.348 . S
C752 C352 1.318 . S
C763 C288 2.427 . S
C768 C348 2.453 . S
C784 C406 1.060 . S
C779 C15 1.074 . S
C795 C45 0.840 . S
C800 C456 0.843 . S
C816 C379 0.544 . S
C811 C95 0.377 . S
C832 C455 0.618 . S
C827 C128 0.569 . S
C843 C178 0.636 . S
C848 C384 0.659 . S
C864 C450 1.675 . S
C859 C215 1.746 . S
C875 C249 2.214 . S
C880 C409 2.258 . S
C891 C299 2.267 . S
C896 C441 2.264 1_556 S
C907 C9 2.825 . S
C912 C433 2.834 . S
C923 C175 0.500 . S
C928 C463 0.484 . S
C944 C387 1.769 . S
C939 C209 1.764 . S
C960 C438 1.219 . S
C955 C258 1.200 . S
C971 C285 1.502 . S
C976 C396 1.478 . S
C987 C89 3.308 . S
C992 C460 3.288 . S
C1008 C402 2.587 . S
C1003 C139 2.507 . S
C1019 C48 1.191 . S
C1024 C401 1.174 . S
C1035 C298 2.415 . S
C1040 C517 2.434 . S
C1051 C179 2.468 . S
C1056 C495 2.484 . S
C1072 C492 0.815 . S
C1067 C208 0.886 . S
C1088 C504 1.251 1_556 S
C1083 C245 1.305 . S
C1099 C49 2.533 . S
C1104 C487 2.562 . S
C1120 C509 0.799 . S
C1115 C88 0.801 . S
C1131 C135 1.062 . S
C1136 C514 0.976 . S
C1147 C8 2.422 . S
C1152 C510 2.449 . S
C1163 C295 1.479 . S
C1168 C568 1.416 . S
C1184 C618 0.668 . S
C1179 C165 0.703 . S
C1195 C219 1.781 . S
C1200 C541 1.749 . S
C1211 C248 1.217 . S
C1216 C617 1.174 . S
C1232 C546 1.191 . S
C1227 C58 1.180 . S
C1243 C99 3.310 . S
C1248 C612 3.275 . S
C1264 C571 2.582 . S
C1259 C129 2.503 . S
C1280 C603 2.855 . S
C1275 C19 2.838 . S
C1296 C595 2.246 . S
C1291 C289 2.251 . S
C1307 C55 0.784 . S
C1312 C625 0.801 . S
C1323 C85 0.365 . S
C1328 C549 0.391 . S
C1344 C600 0.632 . S
C1339 C138 0.591 . S
C1355 C5 1.119 . S
C1360 C558 1.012 . S
C1371 C205 1.755 . S
C1376 C622 1.705 . S
C1392 C564 2.288 . S
C1387 C259 2.245 . S
C1408 C563 0.649 . S
C1403 C168 0.623 . S
