# Generated by pormake.
# Topology ssa, (4,4)-cn, num edge types: 1
# Building blocks:
#     Node 0, Type 0, BuildingBlock: NAWXER_clean_sbu_0, # of connection points: 4
#     Node 1, Type 0, BuildingBlock: NAWXER_clean_sbu_0, # of connection points: 4
#     Node 2, Type 0, BuildingBlock: NAWXER_clean_sbu_0, # of connection points: 4
#     Node 3, Type 0, BuildingBlock: NAWXER_clean_sbu_0, # of connection points: 4
#     Node 4, Type 0, BuildingBlock: NAWXER_clean_sbu_0, # of connection points: 4
#     Node 5, Type 0, BuildingBlock: NAWXER_clean_sbu_0, # of connection points: 4
#     Node 6, Type 1, BuildingBlock: KOZSID_clean_sbu_0, # of connection points: 4
#     Node 7, Type 1, BuildingBlock: KOZSID_clean_sbu_0, # of connection points: 4
#     Node 8, Type 1, BuildingBlock: KOZSID_clean_sbu_0, # of connection points: 4
#     Node 9, Type 1, BuildingBlock: KOZSID_clean_sbu_0, # of connection points: 4
#     Node 10, Type 1, BuildingBlock: KOZSID_clean_sbu_0, # of connection points: 4
#     Node 11, Type 1, BuildingBlock: KOZSID_clean_sbu_0, # of connection points: 4
#     Edge 12, Type (0, 1), BuildingBlock: KIFKEQ_clean_linker_1, # of connection points: 2
#     Edge 13, Type (0, 1), BuildingBlock: KIFKEQ_clean_linker_1, # of connection points: 2
#     Edge 14, Type (0, 1), BuildingBlock: KIFKEQ_clean_linker_1, # of connection points: 2
#     Edge 15, Type (0, 1), BuildingBlock: KIFKEQ_clean_linker_1, # of connection points: 2
#     Edge 16, Type (0, 1), BuildingBlock: KIFKEQ_clean_linker_1, # of connection points: 2
#     Edge 17, Type (0, 1), BuildingBlock: KIFKEQ_clean_linker_1, # of connection points: 2
#     Edge 18, Type (0, 1), BuildingBlock: KIFKEQ_clean_linker_1, # of connection points: 2
#     Edge 19, Type (0, 1), BuildingBlock: KIFKEQ_clean_linker_1, # of connection points: 2
#     Edge 20, Type (0, 1), BuildingBlock: KIFKEQ_clean_linker_1, # of connection points: 2
#     Edge 21, Type (0, 1), BuildingBlock: KIFKEQ_clean_linker_1, # of connection points: 2
#     Edge 22, Type (0, 1), BuildingBlock: KIFKEQ_clean_linker_1, # of connection points: 2
#     Edge 23, Type (0, 1), BuildingBlock: KIFKEQ_clean_linker_1, # of connection points: 2
#     Edge 24, Type (0, 1), BuildingBlock: KIFKEQ_clean_linker_1, # of connection points: 2
#     Edge 25, Type (0, 1), BuildingBlock: KIFKEQ_clean_linker_1, # of connection points: 2
#     Edge 26, Type (0, 1), BuildingBlock: KIFKEQ_clean_linker_1, # of connection points: 2
#     Edge 27, Type (0, 1), BuildingBlock: KIFKEQ_clean_linker_1, # of connection points: 2
#     Edge 28, Type (0, 1), BuildingBlock: KIFKEQ_clean_linker_1, # of connection points: 2
#     Edge 29, Type (0, 1), BuildingBlock: KIFKEQ_clean_linker_1, # of connection points: 2
#     Edge 30, Type (0, 1), BuildingBlock: KIFKEQ_clean_linker_1, # of connection points: 2
#     Edge 31, Type (0, 1), BuildingBlock: KIFKEQ_clean_linker_1, # of connection points: 2
#     Edge 32, Type (0, 1), BuildingBlock: KIFKEQ_clean_linker_1, # of connection points: 2
#     Edge 33, Type (0, 1), BuildingBlock: KIFKEQ_clean_linker_1, # of connection points: 2
#     Edge 34, Type (0, 1), BuildingBlock: KIFKEQ_clean_linker_1, # of connection points: 2
#     Edge 35, Type (0, 1), BuildingBlock: KIFKEQ_clean_linker_1, # of connection points: 2
# Relax obj value: 0.019
# Max RMSD: 0.059
# Mean RMSD: 0.028
data_MOF--net-ssa--node1-NAWXER_clean_sbu_0--node2-KOZSID_clean_sbu_0--edge1-KIFKEQ_clean_linker_1
_symmetry_space_group_name_H-M    P1
_symmetry_Int_Tables_number       1
_symmetry_cell_setting            triclinic
loop_
_symmetry_equiv_pos_as_xyz
'x, y, z'
_cell_length_a     53.502973
_cell_length_b     53.4391
_cell_length_c     37.450102
_cell_angle_alpha  93.428834
_cell_angle_beta   93.362157
_cell_angle_gamma 120.01866
loop_
_atom_site_label
_atom_site_type_symbol
_atom_site_fract_x
_atom_site_fract_y
_atom_site_fract_z
_atom_type_partial_charge
C0 C 0.05111 0.54994 0.99458 0.0
C1 C 0.99 0.44989 0.94292 0.0
O2 O 0.03048 0.53473 0.01343 0.0
Zn3 Zn 0.99617 0.49096 0.01321 0.0
O4 O 0.0548 0.53812 0.96648 0.0
Zn5 Zn 0.02202 0.49964 0.96918 0.0
O6 O 0.98561 0.50627 0.96182 0.0
O7 O 0.96255 0.49618 0.01063 0.0
O8 O 0.01222 0.4698 0.93062 0.0
O9 O 0.98239 0.45499 0.9731 0.0
O10 O 0.00762 0.47908 0.05654 0.0
O11 O 0.03665 0.48563 0.01423 0.0
C12 C 0.96476 0.50424 0.97908 0.0
C13 C 0.02968 0.4789 0.0459 0.0
C14 C 0.48582 0.04411 0.50083 0.0
C15 C 0.5121 0.97843 0.43583 0.0
O16 O 0.48296 0.0228 0.51768 0.0
Zn17 Zn 0.48941 0.9866 0.51113 0.0
O18 O 0.49463 0.04664 0.46966 0.0
Zn19 Zn 0.49888 0.01206 0.46595 0.0
O20 O 0.45535 0.97676 0.46431 0.0
O21 O 0.45099 0.95344 0.51248 0.0
O22 O 0.51224 1.00027 0.42363 0.0
O23 O 0.50422 0.97202 0.46724 0.0
O24 O 0.51972 0.9966 0.54953 0.0
O25 O 0.53452 0.02473 0.50532 0.0
C26 C 0.43987 0.95602 0.48296 0.0
C27 C 0.53991 0.01753 0.53557 0.0
C28 C 0.47558 0.45525 0.95004 0.0
C29 C 0.50371 0.54749 0.02221 0.0
O30 O 0.47318 0.47633 0.93991 0.0
Zn31 Zn 0.48811 0.50141 0.98556 0.0
O32 O 0.4848 0.45647 0.98282 0.0
Zn33 Zn 0.50034 0.48602 0.03074 0.0
O34 O 0.47272 0.46606 0.06434 0.0
O35 O 0.45486 0.48027 0.02059 0.0
O36 O 0.50744 0.52945 0.03963 0.0
O37 O 0.49306 0.54027 0.98943 0.0
O38 O 0.53236 0.51125 0.99148 0.0
O39 O 0.53895 0.49201 0.03934 0.0
C40 C 0.45187 0.46816 0.04984 0.0
C41 C 0.54881 0.50632 0.01261 0.0
C42 C 0.01584 0.53647 0.45798 0.0
C43 C 0.96189 0.45278 0.52739 0.0
O44 O 0.02581 0.541 0.49112 0.0
Zn45 Zn 0.01694 0.51842 0.53819 0.0
O46 O 0.99345 0.51221 0.44651 0.0
Zn47 Zn 0.98753 0.49402 0.49174 0.0
O48 O 0.9741 0.51769 0.52613 0.0
O49 O 0.00854 0.54187 0.57091 0.0
O50 O 0.95635 0.45425 0.49429 0.0
O51 O 0.98356 0.4748 0.54583 0.0
O52 O 0.05253 0.51776 0.54778 0.0
O53 O 0.02513 0.48978 0.49897 0.0
C54 C 0.98382 0.53484 0.55537 0.0
C55 C 0.04817 0.49997 0.52079 0.0
C56 C 0.53075 0.01308 0.07155 0.0
C57 C 0.48405 0.05347 0.99819 0.0
O58 O 0.5283 0.03496 0.08094 0.0
Zn59 Zn 0.50696 0.03346 0.03634 0.0
O60 O 0.51974 0.99895 0.04051 0.0
Zn61 Zn 0.49501 0.9995 0.9942 0.0
O62 O 0.52053 0.00488 0.95684 0.0
O63 O 0.53805 0.04286 0.99746 0.0
O64 O 0.48204 0.03033 0.9829 0.0
O65 O 0.49636 0.06281 0.03008 0.0
O66 O 0.46626 0.99484 0.04013 0.0
O67 O 0.4588 0.9627 0.99497 0.0
C68 C 0.5406 0.03049 0.96857 0.0
C69 C 0.45062 0.96937 0.02341 0.0
C70 C 0.55993 0.53791 0.55361 0.0
C71 C 0.46636 0.50475 0.48268 0.0
O72 O 0.53861 0.53995 0.56345 0.0
Zn73 Zn 0.51287 0.52236 0.51875 0.0
O74 O 0.5583 0.52699 0.52155 0.0
Zn75 Zn 0.52782 0.50822 0.47463 0.0
O76 O 0.54667 0.53402 0.4386 0.0
O77 O 0.53301 0.55361 0.48111 0.0
O78 O 0.4842 0.50031 0.46578 0.0
O79 O 0.47402 0.51712 0.51473 0.0
O80 O 0.50336 0.4782 0.51648 0.0
O81 O 0.52221 0.4695 0.46957 0.0
C82 C 0.5446 0.55534 0.45166 0.0
C83 C 0.50819 0.4609 0.49682 0.0
C84 C 0.20539 0.4945 0.22322 0.0
C85 C 0.20927 0.5209 0.21384 0.0
C86 C 0.23488 0.54206 0.2317 0.0
C87 C 0.24508 0.52757 0.25117 0.0
N88 N 0.22765 0.49833 0.24672 0.0
Co89 Co 0.23354 0.46925 0.27199 0.0
N90 N 0.2704 0.50076 0.29987 0.0
C91 C 0.28276 0.52973 0.29812 0.0
C92 C 0.30799 0.54603 0.32027 0.0
C93 C 0.31221 0.52632 0.33707 0.0
C94 C 0.28924 0.49901 0.324 0.0
N95 N 0.23935 0.44019 0.2974 0.0
C96 C 0.26113 0.44418 0.32185 0.0
C97 C 0.25695 0.41796 0.33223 0.0
C98 C 0.2317 0.39664 0.31366 0.0
C99 C 0.22194 0.41096 0.29303 0.0
N100 N 0.19665 0.43778 0.24402 0.0
C101 C 0.18459 0.40878 0.24531 0.0
C102 C 0.15936 0.39251 0.22313 0.0
C103 C 0.15479 0.41225 0.20689 0.0
C104 C 0.17751 0.43958 0.22033 0.0
N105 N 0.25643 0.4667 0.23348 0.0
C106 C 0.29437 0.46312 0.18716 0.0
C107 C 0.27028 0.43805 0.19609 0.0
C108 C 0.25174 0.44032 0.21909 0.0
C109 C 0.29819 0.49001 0.19999 0.0
C110 C 0.27888 0.49128 0.22255 0.0
N111 N 0.21095 0.47171 0.31083 0.0
C112 C 0.17324 0.44804 0.35001 0.0
C113 C 0.17949 0.4748 0.36685 0.0
C114 C 0.20173 0.50003 0.35531 0.0
C115 C 0.21691 0.49801 0.32724 0.0
C116 C 0.18921 0.447 0.32245 0.0
H117 H 0.23323 0.51801 0.31919 0.0
H118 H 0.18353 0.42592 0.311 0.0
H119 H 0.2343 0.4204 0.22559 0.0
H120 H 0.28296 0.51239 0.23148 0.0
C121 C 0.27021 0.54095 0.27516 0.0
C122 C 0.17977 0.46653 0.2099 0.0
C123 C 0.28663 0.47215 0.33501 0.0
C124 C 0.19703 0.39753 0.26854 0.0
H125 H 0.19487 0.52465 0.19643 0.0
H126 H 0.24456 0.56531 0.23124 0.0
H127 H 0.32176 0.56944 0.32365 0.0
H128 H 0.33027 0.53146 0.35661 0.0
H129 H 0.27092 0.41457 0.35093 0.0
H130 H 0.22185 0.37343 0.31468 0.0
H131 H 0.14572 0.36909 0.21952 0.0
H132 H 0.13664 0.40707 0.18751 0.0
H133 H 0.26636 0.41671 0.1866 0.0
H134 H 0.3162 0.51002 0.19297 0.0
H135 H 0.15619 0.42792 0.35825 0.0
H136 H 0.20696 0.52126 0.36732 0.0
C137 C 0.71996 0.19491 0.68358 0.0
C138 C 0.69506 0.19597 0.67356 0.0
C139 C 0.69311 0.21378 0.69962 0.0
C140 C 0.71675 0.22263 0.72408 0.0
N141 N 0.73386 0.21199 0.71472 0.0
Co142 Co 0.76908 0.21822 0.74397 0.0
N143 N 0.77163 0.25127 0.77449 0.0
C144 C 0.7504 0.25754 0.7776 0.0
C145 C 0.75936 0.28284 0.79915 0.0
C146 C 0.78801 0.29306 0.81028 0.0
C147 C 0.79483 0.27316 0.7951 0.0
N148 N 0.80394 0.2243 0.77358 0.0
C149 C 0.82396 0.24803 0.79508 0.0
C150 C 0.845 0.24333 0.81147 0.0
C151 C 0.8379 0.21564 0.79929 0.0
C152 C 0.81298 0.20504 0.7764 0.0
N153 N 0.76703 0.18536 0.71356 0.0
C154 C 0.78132 0.17121 0.72123 0.0
C155 C 0.77616 0.14978 0.69486 0.0
C156 C 0.75694 0.14999 0.66931 0.0
C157 C 0.75117 0.17142 0.68181 0.0
N158 N 0.79378 0.24545 0.71113 0.0
C159 C 0.82991 0.28602 0.66595 0.0
C160 C 0.83545 0.26453 0.67733 0.0
C161 C 0.81715 0.24449 0.69977 0.0
C162 C 0.80569 0.28648 0.6776 0.0
C163 C 0.78803 0.26613 0.70002 0.0
N164 N 0.74413 0.19112 0.77687 0.0
C165 C 0.70073 0.14665 0.78574 0.0
C166 C 0.70524 0.1543 0.82293 0.0
C167 C 0.7302 0.18048 0.83671 0.0
C168 C 0.74947 0.19842 0.8133 0.0
C169 C 0.72025 0.16529 0.76335 0.0
H170 H 0.76839 0.21849 0.82464 0.0
H171 H 0.71547 0.15896 0.73495 0.0
H172 H 0.82206 0.22834 0.70814 0.0
H173 H 0.76988 0.26746 0.70874 0.0
C174 C 0.72497 0.24296 0.75411 0.0
C175 C 0.72679 0.17392 0.66622 0.0
C176 C 0.82295 0.27476 0.80138 0.0
C177 C 0.80142 0.1804 0.75163 0.0
H178 H 0.67924 0.18426 0.65059 0.0
H179 H 0.67647 0.21961 0.70054 0.0
H180 H 0.74712 0.29355 0.80435 0.0
H181 H 0.80219 0.31309 0.82709 0.0
H182 H 0.86364 0.25841 0.82995 0.0
H183 H 0.85035 0.20516 0.80487 0.0
H184 H 0.78535 0.13576 0.69419 0.0
H185 H 0.74715 0.13513 0.64506 0.0
H186 H 0.85368 0.26303 0.6688 0.0
H187 H 0.80069 0.30288 0.67017 0.0
H188 H 0.68165 0.12683 0.77375 0.0
H189 H 0.73477 0.18712 0.86534 0.0
C190 C 0.5103 0.72875 0.17849 0.0
C191 C 0.48237 0.70823 0.16392 0.0
C192 C 0.46387 0.71198 0.18416 0.0
C193 C 0.48147 0.73465 0.20965 0.0
N194 N 0.51009 0.74583 0.2066 0.0
Co195 Co 0.54305 0.77917 0.23779 0.0
N196 N 0.51596 0.78228 0.27004 0.0
C197 C 0.48709 0.76379 0.26917 0.0
C198 C 0.47422 0.77209 0.29421 0.0
C199 C 0.49606 0.79777 0.31142 0.0
C200 C 0.52101 0.80375 0.29558 0.0
N201 N 0.57578 0.81386 0.26774 0.0
C202 C 0.57482 0.83338 0.29178 0.0
C203 C 0.60231 0.85681 0.30272 0.0
C204 C 0.62127 0.85225 0.28446 0.0
C205 C 0.60432 0.82653 0.26327 0.0
N206 N 0.57028 0.77495 0.20664 0.0
C207 C 0.5996 0.79087 0.21103 0.0
C208 C 0.61266 0.78141 0.18772 0.0
C209 C 0.59038 0.75761 0.16773 0.0
C210 C 0.56488 0.75403 0.17987 0.0
N211 N 0.54011 0.8066 0.20695 0.0
C212 C 0.54111 0.85483 0.17909 0.0
C213 C 0.56464 0.85033 0.17734 0.0
C214 C 0.56372 0.82632 0.19136 0.0
C215 C 0.51604 0.83314 0.19194 0.0
C216 C 0.5158 0.80906 0.20485 0.0
N217 N 0.54628 0.75194 0.26913 0.0
C218 C 0.57579 0.73826 0.30506 0.0
C219 C 0.55155 0.71149 0.30925 0.0
C220 C 0.52452 0.7056 0.2938 0.0
C221 C 0.52236 0.726 0.27424 0.0
C222 C 0.5727 0.75797 0.28508 0.0
H223 H 0.50109 0.72012 0.26329 0.0
H224 H 0.59214 0.77775 0.28258 0.0
H225 H 0.5828 0.82479 0.19049 0.0
H226 H 0.49613 0.79337 0.21454 0.0
C227 C 0.47206 0.74292 0.23981 0.0
C228 C 0.53617 0.72964 0.16649 0.0
C229 C 0.54817 0.83139 0.30277 0.0
C230 C 0.61414 0.81474 0.23708 0.0
H231 H 0.47608 0.69154 0.14182 0.0
H232 H 0.44044 0.69879 0.18174 0.0
H233 H 0.45133 0.76193 0.2976 0.0
H234 H 0.49361 0.81143 0.33177 0.0
H235 H 0.60803 0.87579 0.32093 0.0
H236 H 0.64447 0.86667 0.28523 0.0
H237 H 0.63566 0.79045 0.1859 0.0
H238 H 0.59271 0.7441 0.14705 0.0
H239 H 0.58407 0.86559 0.16597 0.0
H240 H 0.49696 0.83512 0.19358 0.0
H241 H 0.59723 0.74379 0.31646 0.0
H242 H 0.505 0.68537 0.29696 0.0
C243 C 0.75168 0.58506 0.73827 0.0
C244 C 0.75771 0.6131 0.73394 0.0
C245 C 0.78261 0.63144 0.75557 0.0
C246 C 0.79037 0.61369 0.77188 0.0
N247 N 0.77198 0.58509 0.76187 0.0
Co248 Co 0.77538 0.55198 0.77918 0.0
N249 N 0.80894 0.57863 0.81557 0.0
C250 C 0.82044 0.60764 0.82255 0.0
C251 C 0.84228 0.62004 0.85019 0.0
C252 C 0.84488 0.5976 0.86164 0.0
C253 C 0.82461 0.57273 0.83993 0.0
N254 N 0.77973 0.519 0.79493 0.0
C255 C 0.79935 0.51891 0.81953 0.0
C256 C 0.79609 0.49142 0.81964 0.0
C257 C 0.77348 0.47353 0.79464 0.0
C258 C 0.76443 0.49101 0.78042 0.0
N259 N 0.7405 0.52508 0.74463 0.0
C260 C 0.728 0.49587 0.73883 0.0
C261 C 0.70359 0.48295 0.71485 0.0
C262 C 0.69989 0.50517 0.70519 0.0
C263 C 0.72237 0.53048 0.72397 0.0
N264 N 0.80223 0.55696 0.74203 0.0
C265 C 0.84302 0.56167 0.69469 0.0
C266 C 0.81526 0.53724 0.69127 0.0
C267 C 0.79538 0.53527 0.71514 0.0
C268 C 0.84964 0.58429 0.7209 0.0
C269 C 0.82894 0.58171 0.7437 0.0
N270 N 0.74895 0.54709 0.81632 0.0
C271 C 0.71147 0.51641 0.8525 0.0
C272 C 0.71123 0.54049 0.86866 0.0
C273 C 0.73032 0.56788 0.85861 0.0
C274 C 0.74903 0.57071 0.83281 0.0
C275 C 0.73024 0.52014 0.82625 0.0
H276 H 0.76325 0.59223 0.82651 0.0
H277 H 0.72906 0.50093 0.81409 0.0
H278 H 0.7749 0.5157 0.71162 0.0
H279 H 0.8354 0.59996 0.76277 0.0
C280 C 0.81183 0.62284 0.80068 0.0
C281 C 0.72563 0.55909 0.72099 0.0
C282 C 0.82168 0.54424 0.84284 0.0
C283 C 0.74045 0.48142 0.75524 0.0
H284 H 0.74496 0.61964 0.71777 0.0
H285 H 0.79298 0.65485 0.76024 0.0
H286 H 0.85515 0.64277 0.86037 0.0
H287 H 0.86025 0.59941 0.88319 0.0
H288 H 0.80874 0.48485 0.83595 0.0
H289 H 0.76456 0.45046 0.78784 0.0
H290 H 0.69013 0.46011 0.70544 0.0
H291 H 0.6826 0.50296 0.68634 0.0
H292 H 0.80926 0.51922 0.67115 0.0
H293 H 0.87081 0.60385 0.72396 0.0
H294 H 0.69671 0.49476 0.85936 0.0
H295 H 0.73086 0.58711 0.87071 0.0
C296 C 0.24734 0.80522 0.30721 0.0
C297 C 0.24112 0.82549 0.32265 0.0
C298 C 0.2194 0.82439 0.30044 0.0
C299 C 0.21357 0.80354 0.27292 0.0
N300 N 0.23014 0.79109 0.27628 0.0
Co301 Co 0.22859 0.75951 0.24273 0.0
N302 N 0.19835 0.75963 0.20861 0.0
C303 C 0.18703 0.77723 0.21175 0.0
C304 C 0.16738 0.77287 0.18345 0.0
C305 C 0.16606 0.75121 0.1608 0.0
C306 C 0.18498 0.74351 0.1768 0.0
N307 N 0.22651 0.7274 0.2097 0.0
C308 C 0.20992 0.71385 0.17822 0.0
C309 C 0.21467 0.69209 0.16425 0.0
C310 C 0.2351 0.69197 0.18765 0.0
C311 C 0.24151 0.71344 0.21453 0.0
N312 N 0.2595 0.76008 0.27642 0.0
C313 C 0.27166 0.74327 0.27266 0.0
C314 C 0.29305 0.74934 0.29946 0.0
C315 C 0.29495 0.7716 0.32151 0.0
C316 C 0.27443 0.77774 0.30684 0.0
N317 N 0.1977 0.72982 0.2693 0.0
C318 C 0.15343 0.68713 0.30594 0.0
C319 C 0.17808 0.68563 0.29902 0.0
C320 C 0.19974 0.70701 0.28101 0.0
C321 C 0.15142 0.71047 0.29418 0.0
C322 C 0.17349 0.73128 0.27601 0.0
N323 N 0.25923 0.78897 0.21584 0.0
C324 C 0.29953 0.80294 0.1798 0.0
C325 C 0.29973 0.82838 0.17266 0.0
C326 C 0.27991 0.83423 0.18842 0.0
C327 C 0.25989 0.81431 0.20952 0.0
C328 C 0.27959 0.78394 0.2017 0.0
H329 H 0.24491 0.81972 0.22004 0.0
H330 H 0.28094 0.76519 0.20656 0.0
H331 H 0.21794 0.70457 0.27694 0.0
H332 H 0.17039 0.74828 0.26754 0.0
C333 C 0.19441 0.79682 0.24223 0.0
C334 C 0.27066 0.80119 0.32212 0.0
C335 C 0.18898 0.72036 0.16099 0.0
C336 C 0.26242 0.72187 0.24378 0.0
H337 H 0.25164 0.83995 0.3471 0.0
H338 H 0.20956 0.83775 0.30347 0.0
H339 H 0.15526 0.78395 0.17988 0.0
H340 H 0.15258 0.74196 0.13547 0.0
H341 H 0.20444 0.67773 0.13969 0.0
H342 H 0.24432 0.67802 0.18524 0.0
H343 H 0.30591 0.73897 0.30243 0.0
H344 H 0.30992 0.7823 0.34549 0.0
H345 H 0.18098 0.66827 0.30801 0.0
H346 H 0.13267 0.71255 0.29852 0.0
H347 H 0.3149 0.79781 0.16876 0.0
H348 H 0.27934 0.85375 0.18372 0.0
C349 C 0.43543 0.2648 0.76911 0.0
C350 C 0.40792 0.25853 0.77679 0.0
C351 C 0.38915 0.23021 0.7635 0.0
C352 C 0.40608 0.22081 0.7482 0.0
N353 N 0.43431 0.24153 0.75075 0.0
Co354 Co 0.46586 0.23709 0.7314 0.0
N355 N 0.43777 0.20181 0.69909 0.0
C356 C 0.40915 0.18548 0.70203 0.0
C357 C 0.39514 0.16209 0.67637 0.0
C358 C 0.41632 0.16358 0.6562 0.0
C359 C 0.44219 0.18792 0.67075 0.0
N360 N 0.49746 0.23248 0.71252 0.0
C361 C 0.49695 0.21599 0.68319 0.0
C362 C 0.52416 0.21923 0.6803 0.0
C363 C 0.54206 0.23784 0.70923 0.0
C364 C 0.52494 0.24508 0.72803 0.0
N365 N 0.49391 0.27249 0.76348 0.0
C366 C 0.5217 0.28064 0.77362 0.0
C367 C 0.53579 0.30581 0.79649 0.0
C368 C 0.51553 0.31392 0.80125 0.0
C369 C 0.49012 0.29319 0.78084 0.0
N370 N 0.46383 0.21286 0.76955 0.0
C371 C 0.46414 0.17934 0.8242 0.0
C372 C 0.4633 0.20487 0.83222 0.0
C373 C 0.46298 0.22119 0.80452 0.0
C374 C 0.46388 0.1706 0.78807 0.0
C375 C 0.46396 0.18767 0.76137 0.0
N376 N 0.46799 0.26123 0.69335 0.0
C377 C 0.49646 0.29965 0.6575 0.0
C378 C 0.47118 0.29652 0.63979 0.0
C379 C 0.44426 0.27523 0.64903 0.0
C380 C 0.44313 0.25756 0.67559 0.0
C381 C 0.4944 0.282 0.68448 0.0
H382 H 0.42214 0.2411 0.68195 0.0
H383 H 0.5142 0.28538 0.69839 0.0
H384 H 0.46254 0.24081 0.81153 0.0
H385 H 0.46448 0.18054 0.73408 0.0
C386 C 0.39576 0.19491 0.72601 0.0
C387 C 0.46224 0.29231 0.78155 0.0
C388 C 0.47074 0.19496 0.65969 0.0
C389 C 0.53477 0.26663 0.75699 0.0
H390 H 0.40194 0.27285 0.79052 0.0
H391 H 0.3658 0.21833 0.76362 0.0
H392 H 0.3722 0.14619 0.67229 0.0
H393 H 0.41317 0.14815 0.63384 0.0
H394 H 0.53035 0.20887 0.65975 0.0
H395 H 0.56499 0.24576 0.71524 0.0
H396 H 0.5583 0.31734 0.80759 0.0
H397 H 0.51897 0.3327 0.81824 0.0
H398 H 0.46359 0.21263 0.8597 0.0
H399 H 0.4637 0.15067 0.78025 0.0
H400 H 0.51765 0.31619 0.65128 0.0
H401 H 0.42427 0.27227 0.63579 0.0
H402 H 0.0679 0.46212 0.02689 0.0
H403 H 0.03449 0.48221 0.11968 0.0
H404 H 0.10198 0.45605 0.06596 0.0
H405 H 0.06963 0.47758 0.15908 0.0
H406 H 0.12386 0.44846 0.22312 0.0
H407 H 0.08543 0.44785 0.18355 0.0
H408 H 0.14515 0.48347 0.10277 0.0
H409 H 0.18265 0.48236 0.14173 0.0
C410 C 0.06785 0.46526 0.05573 0.0
C411 C 0.04852 0.47275 0.07014 0.0
C412 C 0.08764 0.46204 0.07824 0.0
C413 C 0.08908 0.46673 0.1159 0.0
C414 C 0.06911 0.47345 0.13032 0.0
C415 C 0.04895 0.47622 0.10771 0.0
C416 C 0.12847 0.45584 0.1967 0.0
C417 C 0.15614 0.46553 0.18541 0.0
C418 C 0.10659 0.45578 0.1741 0.0
C419 C 0.11198 0.46567 0.13976 0.0
C420 C 0.13979 0.47515 0.1286 0.0
C421 C 0.16147 0.47483 0.15101 0.0
H422 H 0.55594 0.02798 0.60797 0.0
H423 H 0.5901 0.04713 0.50516 0.0
H424 H 0.60344 0.06384 0.63825 0.0
H425 H 0.63789 0.08194 0.53522 0.0
H426 H 0.704 0.17022 0.59759 0.0
H427 H 0.66015 0.12914 0.5654 0.0
H428 H 0.65231 0.07806 0.65395 0.0
H429 H 0.69503 0.11965 0.68654 0.0
C430 C 0.57384 0.03929 0.59196 0.0
C431 C 0.56935 0.03507 0.55431 0.0
C432 C 0.60112 0.05982 0.60923 0.0
C433 C 0.62449 0.07612 0.58913 0.0
C434 C 0.62026 0.0704 0.5515 0.0
C435 C 0.59294 0.05027 0.53429 0.0
C436 C 0.69293 0.15003 0.60976 0.0
C437 C 0.70265 0.14801 0.6444 0.0
C438 C 0.66796 0.12642 0.59137 0.0
C439 C 0.65253 0.10024 0.60717 0.0
C440 C 0.66323 0.09799 0.64125 0.0
C441 C 0.68788 0.1217 0.65978 0.0
H442 H 0.53055 0.56999 0.08998 0.0
H443 H 0.49303 0.58934 0.99797 0.0
H444 H 0.53984 0.61466 0.12336 0.0
H445 H 0.50188 0.63412 0.03193 0.0
H446 H 0.54555 0.72535 0.09581 0.0
H447 H 0.53927 0.68242 0.0594 0.0
H448 H 0.51224 0.63317 0.15117 0.0
H449 H 0.51923 0.67622 0.1873 0.0
C450 C 0.52427 0.58379 0.07678 0.0
C451 C 0.51085 0.57588 0.04127 0.0
C452 C 0.52946 0.6094 0.0961 0.0
C453 C 0.52132 0.62791 0.08058 0.0
C454 C 0.50861 0.62049 0.04469 0.0
C455 C 0.50343 0.59475 0.02524 0.0
C456 C 0.53849 0.70531 0.10802 0.0
C457 C 0.53313 0.70399 0.1443 0.0
C458 C 0.53466 0.68069 0.08721 0.0
C459 C 0.52537 0.65429 0.10234 0.0
C460 C 0.51992 0.65319 0.13873 0.0
C461 C 0.52375 0.67774 0.15942 0.0
H462 H 0.99897 0.57808 0.60987 0.0
H463 H 0.92572 0.51146 0.53965 0.0
H464 H 0.96649 0.58943 0.64106 0.0
H465 H 0.89324 0.52151 0.57173 0.0
H466 H 0.83934 0.5531 0.6216 0.0
H467 H 0.87527 0.55199 0.58528 0.0
H468 H 0.93218 0.56981 0.68217 0.0
H469 H 0.89685 0.5725 0.71785 0.0
C470 C 0.97596 0.56595 0.60104 0.0
C471 C 0.96492 0.54386 0.57237 0.0
C472 C 0.95727 0.57227 0.61907 0.0
C473 C 0.92709 0.55627 0.60921 0.0
C474 C 0.9163 0.53473 0.57982 0.0
C475 C 0.93499 0.52879 0.56148 0.0
C476 C 0.85973 0.5571 0.63488 0.0
C477 C 0.8654 0.56282 0.6724 0.0
C478 C 0.88028 0.5563 0.61419 0.0
C479 C 0.90666 0.56053 0.63069 0.0
C480 C 0.91245 0.56695 0.66831 0.0
C481 C 0.89214 0.56831 0.68887 0.0
H482 H 0.42798 0.91047 0.0195 0.0
H483 H 0.41589 0.97919 0.06526 0.0
H484 H 0.39102 0.87621 0.05447 0.0
H485 H 0.37767 0.94487 0.09846 0.0
H486 H 0.33601 0.88704 0.18623 0.0
H487 H 0.37063 0.92004 0.14809 0.0
H488 H 0.34341 0.84833 0.06604 0.0
H489 H 0.31006 0.81527 0.10546 0.0
C490 C 0.4168 0.91806 0.0363 0.0
C491 C 0.42491 0.94754 0.0397 0.0
C492 C 0.39548 0.89838 0.05643 0.0
C493 C 0.38132 0.90759 0.07997 0.0
C494 C 0.38853 0.9369 0.0817 0.0
C495 C 0.41025 0.95662 0.06223 0.0
C496 C 0.33747 0.87843 0.15999 0.0
C497 C 0.32039 0.84858 0.14888 0.0
C498 C 0.35719 0.89739 0.13784 0.0
C499 C 0.35997 0.88715 0.10351 0.0
C500 C 0.3425 0.85719 0.09236 0.0
C501 C 0.32319 0.83815 0.11489 0.0
H502 H 0.53952 0.43362 0.50015 0.0
H503 H 0.45656 0.42366 0.5197 0.0
H504 H 0.52813 0.39072 0.53075 0.0
H505 H 0.44387 0.37944 0.54776 0.0
H506 H 0.4487 0.33196 0.64225 0.0
H507 H 0.4552 0.36837 0.60216 0.0
H508 H 0.50326 0.34152 0.53633 0.0
H509 H 0.4982 0.30637 0.57837 0.0
C510 C 0.5184 0.42153 0.50991 0.0
C511 C 0.49897 0.43189 0.50795 0.0
C512 C 0.51174 0.39684 0.52741 0.0
C513 C 0.4852 0.38169 0.54249 0.0
C514 C 0.46491 0.39099 0.53772 0.0
C515 C 0.47196 0.4161 0.52123 0.0
C516 C 0.4604 0.33377 0.61897 0.0
C517 C 0.473 0.31655 0.61328 0.0
C518 C 0.46397 0.35448 0.59569 0.0
C519 C 0.47971 0.35802 0.56564 0.0
C520 C 0.49148 0.33992 0.55943 0.0
C521 C 0.48844 0.31963 0.58328 0.0
H522 H 0.51603 0.93293 0.45802 0.0
H523 H 0.52709 0.98124 0.36597 0.0
H524 H 0.52777 0.90071 0.42466 0.0
H525 H 0.5396 0.94883 0.33234 0.0
H526 H 0.52291 0.86018 0.2748 0.0
H527 H 0.51695 0.8984 0.30548 0.0
H528 H 0.56687 0.89831 0.40046 0.0
H529 H 0.57181 0.85948 0.36995 0.0
C530 C 0.52123 0.93691 0.43065 0.0
C531 C 0.52055 0.9598 0.41473 0.0
C532 C 0.52826 0.91845 0.41154 0.0
C533 C 0.53493 0.92221 0.37584 0.0
C534 C 0.53443 0.94519 0.35976 0.0
C535 C 0.52739 0.96386 0.37906 0.0
C536 C 0.53288 0.86873 0.30209 0.0
C537 C 0.54794 0.85712 0.32005 0.0
C538 C 0.52963 0.8907 0.31961 0.0
C539 C 0.54126 0.90139 0.35558 0.0
C540 C 0.55724 0.89034 0.37297 0.0
C541 C 0.56037 0.86833 0.35547 0.0
H542 H 0.57454 0.47354 0.01028 0.0
H543 H 0.58789 0.55803 0.99168 0.0
H544 H 0.61694 0.48342 0.97929 0.0
H545 H 0.63145 0.56902 0.96302 0.0
H546 H 0.67389 0.56065 0.86556 0.0
H547 H 0.63842 0.55468 0.90676 0.0
H548 H 0.66674 0.50779 0.97253 0.0
H549 H 0.70139 0.51266 0.92968 0.0
C550 C 0.58733 0.49469 1.0008 0.0
C551 C 0.57803 0.51499 0.00298 0.0
C552 C 0.61165 0.50042 0.98303 0.0
C553 C 0.62732 0.5268 0.96779 0.0
C554 C 0.61936 0.54808 0.9732 0.0
C555 C 0.59467 0.54202 0.99004 0.0
C556 C 0.67259 0.54922 0.88897 0.0
C557 C 0.69029 0.53714 0.89458 0.0
C558 C 0.65245 0.54601 0.91288 0.0
C559 C 0.64987 0.53108 0.94345 0.0
C560 C 0.66789 0.51919 0.94918 0.0
C561 C 0.68776 0.52199 0.92477 0.0
H562 H 0.01209 0.53071 0.38386 0.0
H563 H 0.05692 0.5932 0.47685 0.0
H564 H 0.04296 0.56702 0.34502 0.0
H565 H 0.08761 0.6291 0.43839 0.0
H566 H 0.12379 0.69562 0.35821 0.0
H567 H 0.08747 0.65948 0.3922 0.0
H568 H 0.09483 0.5919 0.33327 0.0
H569 H 0.1307 0.62798 0.29865 0.0
C570 C 0.02821 0.55225 0.39597 0.0
C571 C 0.032 0.55898 0.43351 0.0
C572 C 0.04607 0.57299 0.37377 0.0
C573 C 0.06787 0.60101 0.38856 0.0
C574 C 0.07091 0.60791 0.42596 0.0
C575 C 0.05334 0.5872 0.44808 0.0
C576 C 0.11739 0.67301 0.35211 0.0
C577 C 0.13034 0.6648 0.32574 0.0
C578 C 0.09672 0.65229 0.37184 0.0
C579 C 0.08824 0.62273 0.36561 0.0
C580 C 0.10062 0.6144 0.33861 0.0
C581 C 0.12147 0.63516 0.31904 0.0
H582 H 0.45887 0.03934 0.92925 0.0
H583 H 0.48962 0.10669 0.01799 0.0
H584 H 0.45234 0.0706 0.88991 0.0
H585 H 0.48255 0.13796 0.97809 0.0
H586 H 0.43797 0.16875 0.88737 0.0
H587 H 0.43986 0.13847 0.93298 0.0
H588 H 0.49551 0.12018 0.87134 0.0
H589 H 0.4949 0.15116 0.82685 0.0
C590 C 0.46374 0.0606 0.94062 0.0
C591 C 0.47517 0.07065 0.97672 0.0
C592 C 0.46003 0.0785 0.91798 0.0
C593 C 0.46732 0.10673 0.93095 0.0
C594 C 0.4768 0.11621 0.96756 0.0
C595 C 0.48084 0.09834 0.9903 0.0
C596 C 0.45099 0.15866 0.88382 0.0
C597 C 0.4659 0.16207 0.85303 0.0
C598 C 0.45193 0.14127 0.90986 0.0
C599 C 0.46746 0.12674 0.90526 0.0
C600 C 0.48292 0.13074 0.8751 0.0
C601 C 0.48236 0.14835 0.84949 0.0
H602 H 0.44202 0.47239 0.41809 0.0
H603 H 0.42583 0.51845 0.50396 0.0
H604 H 0.39724 0.46183 0.38396 0.0
H605 H 0.38098 0.50832 0.4692 0.0
H606 H 0.29005 0.46522 0.4065 0.0
H607 H 0.33197 0.47062 0.4442 0.0
H608 H 0.38049 0.48901 0.35143 0.0
H609 H 0.33845 0.483 0.31413 0.0
C610 C 0.42887 0.48024 0.42979 0.0
C611 C 0.43771 0.49651 0.46371 0.0
C612 C 0.4032 0.47429 0.41005 0.0
C613 C 0.38564 0.48453 0.42355 0.0
C614 C 0.3939 0.49995 0.45805 0.0
C615 C 0.41966 0.50585 0.47794 0.0
C616 C 0.30967 0.47007 0.39437 0.0
C617 C 0.31118 0.47348 0.35756 0.0
C618 C 0.33371 0.47342 0.41588 0.0
C619 C 0.35963 0.48019 0.40088 0.0
C620 C 0.36079 0.48331 0.36382 0.0
C621 C 0.33683 0.47999 0.34243 0.0
H622 H 0.98033 0.43998 0.86984 0.0
H623 H 0.95517 0.39758 0.96676 0.0
H624 H 0.94085 0.39697 0.8346 0.0
H625 H 0.91678 0.35391 0.93156 0.0
H626 H 0.82845 0.29821 0.86997 0.0
H627 H 0.87123 0.3395 0.9029 0.0
H628 H 0.91922 0.34814 0.81083 0.0
H629 H 0.87539 0.30791 0.77724 0.0
C630 C 0.96691 0.42107 0.88341 0.0
C631 C 0.97058 0.42211 0.92099 0.0
C632 C 0.94425 0.39636 0.86324 0.0
C633 C 0.92515 0.37207 0.88025 0.0
C634 C 0.93038 0.37251 0.91762 0.0
C635 C 0.95261 0.39738 0.93781 0.0
C636 C 0.84798 0.30951 0.85661 0.0
C637 C 0.84854 0.30072 0.82083 0.0
C638 C 0.87274 0.33276 0.87566 0.0
C639 C 0.8989 0.34718 0.85968 0.0
C640 C 0.89943 0.33794 0.82387 0.0
C641 C 0.87443 0.31493 0.80463 0.0
H642 H 0.95871 0.51207 0.90875 0.0
H643 H 0.92275 0.51169 0.00916 0.0
H644 H 0.92467 0.52317 0.87869 0.0
H645 H 0.88897 0.52395 0.97907 0.0
H646 H 0.81239 0.51393 0.9017 0.0
H647 H 0.84693 0.50515 0.93659 0.0
H648 H 0.91444 0.56072 0.87278 0.0
H649 H 0.87942 0.56806 0.83707 0.0
C650 C 0.94368 0.51465 0.92458 0.0
C651 C 0.94358 0.51106 0.96147 0.0
C652 C 0.92422 0.52128 0.90731 0.0
C653 C 0.90419 0.52487 0.92642 0.0
C654 C 0.90393 0.52115 0.96338 0.0
C655 C 0.92336 0.51423 0.9807 0.0
C656 C 0.83471 0.52431 0.89546 0.0
C657 C 0.84331 0.54144 0.86663 0.0
C658 C 0.85456 0.51947 0.91553 0.0
C659 C 0.88351 0.53193 0.90734 0.0
C660 C 0.89223 0.55016 0.87939 0.0
C661 C 0.87231 0.55468 0.85913 0.0
H662 H 0.40933 0.89848 0.49396 0.0
H663 H 0.40417 0.96359 0.43628 0.0
H664 H 0.36557 0.86051 0.45772 0.0
H665 H 0.3601 0.92599 0.40104 0.0
H666 H 0.2761 0.79971 0.39478 0.0
H667 H 0.31363 0.83771 0.43919 0.0
H668 H 0.35318 0.89054 0.35325 0.0
H669 H 0.31539 0.85292 0.30963 0.0
C670 C 0.39832 0.90471 0.47434 0.0
C671 C 0.41031 0.93388 0.46753 0.0
C672 C 0.37327 0.88299 0.45356 0.0
C673 C 0.35974 0.8902 0.42593 0.0
C674 C 0.37048 0.91964 0.42137 0.0
C675 C 0.39559 0.94121 0.44175 0.0
C676 C 0.2929 0.8196 0.38578 0.0
C677 C 0.29318 0.82371 0.34916 0.0
C678 C 0.31433 0.84124 0.411 0.0
C679 C 0.33625 0.86728 0.39982 0.0
C680 C 0.33629 0.87108 0.36294 0.0
C681 C 0.3149 0.84954 0.33789 0.0
H682 H 0.48032 0.40838 0.96466 0.0
H683 H 0.4591 0.44562 0.87688 0.0
H684 H 0.47564 0.36946 0.92309 0.0
H685 H 0.4535 0.40574 0.83493 0.0
H686 H 0.4805 0.34824 0.76767 0.0
H687 H 0.48153 0.38714 0.80722 0.0
H688 H 0.44209 0.32684 0.88635 0.0
H689 H 0.44233 0.28871 0.84741 0.0
C690 C 0.47422 0.40808 0.93647 0.0
C691 C 0.47005 0.43025 0.92424 0.0
C692 C 0.47135 0.38551 0.91252 0.0
C693 C 0.46405 0.3842 0.87549 0.0
C694 C 0.45945 0.40615 0.86319 0.0
C695 C 0.4624 0.4289 0.88728 0.0
C696 C 0.47189 0.34345 0.79345 0.0
C697 C 0.46098 0.31548 0.80436 0.0
C698 C 0.47229 0.36562 0.81604 0.0
C699 C 0.46191 0.36027 0.85014 0.0
C700 C 0.45065 0.33201 0.86061 0.0
C701 C 0.45045 0.31001 0.83817 0.0
H702 H 0.10604 0.53786 0.52222 0.0
H703 H 0.04039 0.44779 0.49574 0.0
H704 H 0.13999 0.52992 0.48953 0.0
H705 H 0.07467 0.43911 0.46508 0.0
H706 H 0.12083 0.44657 0.3645 0.0
H707 H 0.09157 0.45051 0.40911 0.0
H708 H 0.16954 0.50983 0.47859 0.0
H709 H 0.19885 0.50664 0.43271 0.0
C710 C 0.09936 0.51607 0.51074 0.0
C711 C 0.07067 0.49346 0.51113 0.0
C712 C 0.11878 0.51145 0.49194 0.0
C713 C 0.10988 0.48399 0.4738 0.0
C714 C 0.08198 0.46077 0.4776 0.0
C715 C 0.06244 0.46557 0.49557 0.0
C716 C 0.13167 0.46019 0.38949 0.0
C717 C 0.16203 0.47632 0.39519 0.0
C718 C 0.11492 0.46231 0.41531 0.0
C719 C 0.12811 0.4803 0.44781 0.0
C720 C 0.15861 0.49601 0.45378 0.0
C721 C 0.17541 0.49418 0.4276 0.0
H722 H 0.54844 0.01771 0.89939 0.0
H723 H 0.591 0.08057 0.9925 0.0
H724 H 0.58914 0.04709 0.86551 0.0
H725 H 0.63206 0.10935 0.95927 0.0
H726 H 0.68362 0.1712 0.87784 0.0
H727 H 0.64497 0.14053 0.9134 0.0
H728 H 0.6385 0.06408 0.85738 0.0
H729 H 0.67674 0.09491 0.82123 0.0
C730 C 0.56667 0.03757 0.9128 0.0
C731 C 0.56632 0.04683 0.9486 0.0
C732 C 0.59014 0.05442 0.89342 0.0
C733 C 0.61399 0.08084 0.90946 0.0
C734 C 0.61391 0.08955 0.94565 0.0
C735 C 0.59038 0.07288 0.96485 0.0
C736 C 0.67422 0.14786 0.87346 0.0
C737 C 0.68329 0.13554 0.84666 0.0
C738 C 0.652 0.13019 0.89391 0.0
C739 C 0.6384 0.09967 0.88837 0.0
C740 C 0.64798 0.08741 0.86204 0.0
C741 C 0.67004 0.1051 0.84139 0.0
H742 H 0.54941 0.60679 0.47604 0.0
H743 H 0.55675 0.56133 0.38151 0.0
H744 H 0.55467 0.64571 0.44093 0.0
H745 H 0.56232 0.60061 0.34636 0.0
H746 H 0.5254 0.65293 0.29109 0.0
H747 H 0.5285 0.61701 0.3254 0.0
H748 H 0.58793 0.68523 0.40694 0.0
H749 H 0.58427 0.72112 0.37302 0.0
C750 C 0.55267 0.60534 0.44788 0.0
C751 C 0.55246 0.58085 0.43151 0.0
C752 C 0.55583 0.62775 0.4278 0.0
C753 C 0.55869 0.62613 0.39081 0.0
C754 C 0.55978 0.60227 0.37474 0.0
C755 C 0.55683 0.5799 0.39493 0.0
C756 C 0.53906 0.66024 0.31639 0.0
C757 C 0.55441 0.68983 0.32948 0.0
C758 C 0.54115 0.63971 0.3358 0.0
C759 C 0.55851 0.64829 0.36885 0.0
C760 C 0.57424 0.67794 0.38166 0.0
C761 C 0.57229 0.6985 0.36213 0.0
H762 H 0.50368 0.10031 0.48565 0.0
H763 H 0.45545 0.03746 0.55856 0.0
H764 H 0.49927 0.13738 0.52219 0.0
H765 H 0.45054 0.07387 0.5942 0.0
H766 H 0.48006 0.15146 0.676 0.0
H767 H 0.4825 0.11566 0.63508 0.0
H768 H 0.46654 0.15378 0.54423 0.0
H769 H 0.46481 0.19022 0.58586 0.0
C770 C 0.49173 0.09427 0.50904 0.0
C771 C 0.48024 0.06599 0.51938 0.0
C772 C 0.48917 0.11549 0.52998 0.0
C773 C 0.47501 0.1088 0.5616 0.0
C774 C 0.46229 0.0801 0.57067 0.0
C775 C 0.46496 0.0591 0.55 0.0
C776 C 0.47722 0.15219 0.64726 0.0
C777 C 0.47245 0.17358 0.63396 0.0
C778 C 0.47836 0.13157 0.62375 0.0
C779 C 0.47447 0.13159 0.58622 0.0
C780 C 0.46984 0.15322 0.57291 0.0
C781 C 0.46872 0.17397 0.59662 0.0
H782 H 0.4005 0.46192 0.02217 0.0
H783 H 0.44447 0.45759 0.12011 0.0
H784 H 0.36082 0.45755 0.05534 0.0
H785 H 0.40472 0.45327 0.15324 0.0
H786 H 0.35312 0.49364 0.20188 0.0
H787 H 0.38916 0.49004 0.16835 0.0
H788 H 0.32077 0.42419 0.09193 0.0
H789 H 0.28459 0.42791 0.12549 0.0
C790 C 0.40144 0.45948 0.05064 0.0
C791 C 0.42573 0.4603 0.06856 0.0
C792 C 0.37867 0.4569 0.06959 0.0
C793 C 0.37988 0.45541 0.10691 0.0
C794 C 0.40344 0.45476 0.12454 0.0
C795 C 0.42607 0.45699 0.10551 0.0
C796 C 0.3458 0.47853 0.1778 0.0
C797 C 0.31609 0.4612 0.16614 0.0
C798 C 0.36639 0.4762 0.15889 0.0
C799 C 0.35773 0.45668 0.1277 0.0
C800 C 0.32802 0.43942 0.11588 0.0
C801 C 0.30736 0.44149 0.13509 0.0
H802 H 0.91195 0.40269 0.49902 0.0
H803 H 0.96921 0.44334 0.59708 0.0
H804 H 0.88055 0.36075 0.53025 0.0
H805 H 0.93774 0.402 0.62825 0.0
H806 H 0.8894 0.31389 0.66921 0.0
H807 H 0.92136 0.35176 0.63349 0.0
H808 H 0.8469 0.34757 0.57564 0.0
H809 H 0.81488 0.30883 0.6103 0.0
C810 C 0.91791 0.40267 0.52715 0.0
C811 C 0.94316 0.42647 0.54545 0.0
C812 C 0.89981 0.37869 0.54516 0.0
C813 C 0.90654 0.37787 0.58187 0.0
C814 C 0.93201 0.40154 0.59991 0.0
C815 C 0.95002 0.42544 0.58199 0.0
C816 C 0.87977 0.32065 0.64847 0.0
C817 C 0.84947 0.30827 0.64286 0.0
C818 C 0.89816 0.34268 0.62822 0.0
C819 C 0.88682 0.353 0.60175 0.0
C820 C 0.85649 0.34011 0.59553 0.0
C821 C 0.83809 0.31809 0.61579 0.0
H822 H 0.56999 0.99638 0.06067 0.0
H823 H 0.51465 0.99926 0.13812 0.0
H824 H 0.57656 0.96167 0.09396 0.0
H825 H 0.52035 0.9636 0.1707 0.0
H826 H 0.49746 0.86226 0.14855 0.0
H827 H 0.50077 0.90713 0.1321 0.0
H828 H 0.59241 0.95419 0.1667 0.0
H829 H 0.58912 0.90982 0.18578 0.0
C830 C 0.56024 0.99045 0.08564 0.0
C831 C 0.5421 1.00059 0.09718 0.0
C832 C 0.56389 0.97058 0.10453 0.0
C833 C 0.5488 0.96003 0.1346 0.0
C834 C 0.53225 0.97165 0.1476 0.0
C835 C 0.52923 0.99216 0.12922 0.0
C836 C 0.51824 0.88216 0.15364 0.0
C837 C 0.54302 0.88215 0.16849 0.0
C838 C 0.52007 0.90784 0.14412 0.0
C839 C 0.54678 0.93395 0.14856 0.0
C840 C 0.57159 0.93422 0.16326 0.0
C841 C 0.56967 0.90867 0.17362 0.0
H842 H 0.60864 0.53671 0.53903 0.0
H843 H 0.56999 0.5571 0.6259 0.0
H844 H 0.64923 0.54536 0.58064 0.0
H845 H 0.61138 0.56657 0.66779 0.0
H846 H 0.67018 0.54133 0.73535 0.0
H847 H 0.6312 0.53989 0.69598 0.0
H848 H 0.6915 0.581 0.61739 0.0
H849 H 0.72998 0.58134 0.65646 0.0
C850 C 0.60897 0.54347 0.56699 0.0
C851 C 0.58589 0.5461 0.57905 0.0
C852 C 0.63248 0.54866 0.59092 0.0
C853 C 0.63375 0.55673 0.62771 0.0
C854 C 0.61101 0.56007 0.63972 0.0
C855 C 0.58736 0.55485 0.61567 0.0
C856 C 0.67501 0.55034 0.7098 0.0
C857 C 0.70296 0.56148 0.69884 0.0
C858 C 0.65278 0.54969 0.6873 0.0
C859 C 0.65806 0.56019 0.65331 0.0
C860 C 0.68645 0.57228 0.64306 0.0
C861 C 0.70859 0.57277 0.6655 0.0
H862 H 0.10976 0.58126 0.99187 0.0
H863 H 0.03748 0.58713 0.02769 0.0
H864 H 0.14348 0.62745 0.02736 0.0
H865 H 0.07089 0.63371 0.06181 0.0
H866 H 0.13351 0.67887 0.16463 0.0
H867 H 0.09998 0.64209 0.11709 0.0
H868 H 0.16452 0.67968 0.04209 0.0
H869 H 0.19833 0.71627 0.09058 0.0
C870 C 0.10117 0.593 0.00626 0.0
C871 C 0.07117 0.58057 0.00767 0.0
C872 C 0.12041 0.61946 0.02654 0.0
C873 C 0.10981 0.63389 0.04807 0.0
C874 C 0.07972 0.62271 0.04635 0.0
C875 C 0.0606 0.59616 0.02666 0.0
C876 C 0.14022 0.67939 0.13781 0.0
C877 C 0.16821 0.70006 0.13092 0.0
C878 C 0.12106 0.65854 0.11048 0.0
C879 C 0.12952 0.65807 0.07566 0.0
C880 C 0.15745 0.6794 0.06864 0.0
C881 C 0.17668 0.70032 0.09615 0.0
loop_
_geom_bond_atom_site_label_1
_geom_bond_atom_site_label_2
_geom_bond_distance
_geom_bond_site_symmetry_2
_ccdc_geom_bond_type
C0 O2 1.247 . S
C0 O4 1.258 . S
C1 O8 1.247 . S
C1 O9 1.258 . S
O2 C0 1.247 . S
O2 Zn3 2.028 1_455 S
Zn3 O2 2.028 1_655 S
Zn3 O7 2.035 1_554 S
Zn3 O9 2.035 1_554 S
Zn3 O10 2.028 1_655 S
O4 C0 1.258 . S
O4 Zn5 2.035 1_554 S
Zn5 O4 2.035 1_556 S
Zn5 O6 2.028 1_455 S
Zn5 O8 2.028 1_455 S
Zn5 O11 2.035 1_556 S
O6 Zn5 2.028 1_655 S
O6 C12 1.247 . S
O7 Zn3 2.035 1_556 S
O7 C12 1.258 . S
O8 C1 1.247 . S
O8 Zn5 2.028 1_655 S
O9 C1 1.258 . S
O9 Zn3 2.035 1_556 S
O10 Zn3 2.028 1_455 S
O10 C13 1.247 . S
O11 Zn5 2.035 1_554 S
O11 C13 1.258 . S
C12 O6 1.247 . S
C12 O7 1.258 . S
C13 O10 1.247 . S
C13 O11 1.258 . S
C14 O16 1.247 . S
C14 O18 1.258 . S
C15 O22 1.247 . S
C15 O23 1.258 . S
O16 C14 1.247 . S
O16 Zn17 2.028 1_545 S
Zn17 O16 2.028 1_565 S
Zn17 O21 2.035 . S
Zn17 O23 2.035 . S
Zn17 O24 2.028 1_565 S
O18 C14 1.258 . S
O18 Zn19 2.035 . S
Zn19 O18 2.035 . S
Zn19 O20 2.028 1_545 S
Zn19 O22 2.028 1_545 S
Zn19 O25 2.035 . S
O20 Zn19 2.028 1_565 S
O20 C26 1.247 . S
O21 Zn17 2.035 . S
O21 C26 1.258 . S
O22 C15 1.247 . S
O22 Zn19 2.028 1_565 S
O23 C15 1.258 . S
O23 Zn17 2.035 . S
O24 Zn17 2.028 1_545 S
O24 C27 1.247 . S
O25 Zn19 2.035 . S
O25 C27 1.258 . S
C26 O20 1.247 . S
C26 O21 1.258 . S
C27 O24 1.247 . S
C27 O25 1.258 . S
C28 O30 1.247 . S
C28 O32 1.258 . S
C29 O36 1.247 . S
C29 O37 1.258 . S
O30 C28 1.247 . S
O30 Zn31 2.028 . S
Zn31 O30 2.028 . S
Zn31 O35 2.035 1_556 S
Zn31 O37 2.035 1_556 S
Zn31 O38 2.028 . S
O32 C28 1.258 . S
O32 Zn33 2.035 1_556 S
Zn33 O32 2.035 1_554 S
Zn33 O34 2.028 . S
Zn33 O36 2.028 . S
Zn33 O39 2.035 1_554 S
O34 Zn33 2.028 . S
O34 C40 1.247 . S
O35 Zn31 2.035 1_554 S
O35 C40 1.258 . S
O36 C29 1.247 . S
O36 Zn33 2.028 . S
O37 C29 1.258 . S
O37 Zn31 2.035 1_554 S
O38 Zn31 2.028 . S
O38 C41 1.247 . S
O39 Zn33 2.035 1_556 S
O39 C41 1.258 . S
C40 O34 1.247 . S
C40 O35 1.258 . S
C41 O38 1.247 . S
C41 O39 1.258 . S
C42 O44 1.247 . S
C42 O46 1.258 . S
C43 O50 1.247 . S
C43 O51 1.280 . S
O44 C42 1.247 . S
O44 Zn45 2.028 . S
Zn45 O44 2.028 . S
Zn45 O49 2.035 1_455 S
Zn45 O51 2.029 1_455 S
Zn45 O52 2.028 . S
O46 C42 1.258 . S
O46 Zn47 2.035 1_455 S
Zn47 O46 2.035 1_655 S
Zn47 O48 2.028 . S
Zn47 O50 2.028 . S
Zn47 O53 2.035 1_655 S
O48 Zn47 2.028 . S
O48 C54 1.247 . S
O49 Zn45 2.035 1_655 S
O49 C54 1.258 . S
O50 C43 1.247 . S
O50 Zn47 2.028 . S
O51 C43 1.280 . S
O51 Zn45 2.029 1_655 S
O52 Zn45 2.028 . S
O52 C55 1.247 . S
O53 Zn47 2.035 1_455 S
O53 C55 1.258 . S
C54 O48 1.247 . S
C54 O49 1.258 . S
C55 O52 1.247 . S
C55 O53 1.258 . S
C56 O58 1.279 . S
C56 O60 1.258 . S
C57 O64 1.247 . S
C57 O65 1.258 . S
O58 C56 1.279 . S
O58 Zn59 1.996 1_565 S
Zn59 O58 1.996 1_545 S
Zn59 O63 2.035 1_554 S
Zn59 O65 2.035 1_554 S
Zn59 O66 2.028 1_545 S
O60 C56 1.258 . S
O60 Zn61 2.035 1_554 S
Zn61 O60 2.035 1_556 S
Zn61 O62 2.028 1_565 S
Zn61 O64 2.028 1_565 S
Zn61 O67 2.035 1_556 S
O62 Zn61 2.028 1_545 S
O62 C68 1.247 . S
O63 Zn59 2.035 1_556 S
O63 C68 1.258 . S
O64 C57 1.247 . S
O64 Zn61 2.028 1_545 S
O65 C57 1.258 . S
O65 Zn59 2.035 1_556 S
O66 Zn59 2.028 1_565 S
O66 C69 1.245 . S
O67 Zn61 2.035 1_554 S
O67 C69 1.258 . S
C68 O62 1.247 . S
C68 O63 1.258 . S
C69 O66 1.245 . S
C69 O67 1.258 . S
C70 O72 1.247 . S
C70 O74 1.258 . S
C71 O78 1.247 . S
C71 O79 1.258 . S
O72 C70 1.247 . S
O72 Zn73 2.028 . S
Zn73 O72 2.028 . S
Zn73 O77 2.035 . S
Zn73 O79 2.035 . S
Zn73 O80 2.028 . S
O74 C70 1.258 . S
O74 Zn75 2.035 . S
Zn75 O74 2.035 . S
Zn75 O76 2.028 . S
Zn75 O78 2.028 . S
Zn75 O81 2.035 . S
O76 Zn75 2.028 . S
O76 C82 1.247 . S
O77 Zn73 2.035 . S
O77 C82 1.258 . S
O78 C71 1.247 . S
O78 Zn75 2.028 . S
O79 C71 1.258 . S
O79 Zn73 2.035 . S
O80 Zn73 2.028 . S
O80 C83 1.247 . S
O81 Zn75 2.035 . S
O81 C83 1.258 . S
C82 O76 1.247 . S
C82 O77 1.258 . S
C83 O80 1.247 . S
C83 O81 1.258 . S
C84 C85 1.443 . S
C84 N88 1.376 . S
C84 C122 1.389 . S
C85 C84 1.443 . S
C85 C86 1.340 . S
C85 H125 0.951 . S
C86 C85 1.340 . S
C86 C87 1.439 . S
C86 H126 0.950 . S
C87 C86 1.439 . S
C87 N88 1.374 . S
C87 C121 1.395 . S
N88 C84 1.376 . S
N88 C87 1.374 . S
N88 Co89 2.008 . S
Co89 N88 2.008 . S
Co89 N90 1.995 . S
Co89 N95 2.008 . S
Co89 N100 1.995 . S
Co89 N105 2.282 . S
Co89 N111 2.282 . S
N90 Co89 1.995 . S
N90 C91 1.376 . S
N90 C94 1.383 . S
C91 N90 1.376 . S
C91 C92 1.446 . S
C91 C121 1.391 . S
C92 C91 1.446 . S
C92 C93 1.339 . S
C92 H127 0.949 . S
C93 C92 1.339 . S
C93 C94 1.439 . S
C93 H128 0.950 . S
C94 N90 1.383 . S
C94 C93 1.439 . S
C94 C123 1.392 . S
N95 Co89 2.008 . S
N95 C96 1.376 . S
N95 C99 1.374 . S
C96 N95 1.376 . S
C96 C97 1.443 . S
C96 C123 1.389 . S
C97 C96 1.443 . S
C97 C98 1.340 . S
C97 H129 0.951 . S
C98 C97 1.340 . S
C98 C99 1.439 . S
C98 H130 0.950 . S
C99 N95 1.374 . S
C99 C98 1.439 . S
C99 C124 1.395 . S
N100 Co89 1.995 . S
N100 C101 1.376 . S
N100 C104 1.383 . S
C101 N100 1.376 . S
C101 C102 1.446 . S
C101 C124 1.391 . S
C102 C101 1.446 . S
C102 C103 1.339 . S
C102 H131 0.949 . S
C103 C102 1.339 . S
C103 C104 1.439 . S
C103 H132 0.950 . S
C104 N100 1.383 . S
C104 C103 1.439 . S
C104 C122 1.392 . S
N105 Co89 2.282 . S
N105 C108 1.332 . S
N105 C110 1.332 . S
C106 C107 1.386 . S
C106 C109 1.388 . S
C107 C106 1.386 . S
C107 C108 1.382 . S
C107 H133 0.950 . S
C108 N105 1.332 . S
C108 C107 1.382 . S
C108 H119 0.952 . S
C109 C106 1.388 . S
C109 C110 1.382 . S
C109 H134 0.950 . S
C110 N105 1.332 . S
C110 C109 1.382 . S
C110 H120 0.948 . S
N111 Co89 2.282 . S
N111 C115 1.332 . S
N111 C116 1.332 . S
C112 C113 1.388 . S
C112 C116 1.382 . S
C112 H135 0.950 . S
C113 C112 1.388 . S
C113 C114 1.386 . S
C114 C113 1.386 . S
C114 C115 1.382 . S
C114 H136 0.950 . S
C115 N111 1.332 . S
C115 C114 1.382 . S
C115 H117 0.952 . S
C116 N111 1.332 . S
C116 C112 1.382 . S
C116 H118 0.948 . S
H117 C115 0.952 . S
H118 C116 0.948 . S
H119 C108 0.952 . S
H120 C110 0.948 . S
C121 C87 1.395 . S
C121 C91 1.391 . S
C122 C84 1.389 . S
C122 C104 1.392 . S
C123 C94 1.392 . S
C123 C96 1.389 . S
C124 C99 1.395 . S
C124 C101 1.391 . S
H125 C85 0.951 . S
H126 C86 0.950 . S
H127 C92 0.949 . S
H128 C93 0.950 . S
H129 C97 0.951 . S
H130 C98 0.950 . S
H131 C102 0.949 . S
H132 C103 0.950 . S
H133 C107 0.950 . S
H134 C109 0.950 . S
H135 C112 0.950 . S
H136 C114 0.950 . S
C137 C138 1.443 . S
C137 N141 1.376 . S
C137 C175 1.389 . S
C138 C137 1.443 . S
C138 C139 1.340 . S
C138 H178 0.951 . S
C139 C138 1.340 . S
C139 C140 1.439 . S
C139 H179 0.950 . S
C140 C139 1.439 . S
C140 N141 1.374 . S
C140 C174 1.395 . S
N141 C137 1.376 . S
N141 C140 1.374 . S
N141 Co142 2.008 . S
Co142 N141 2.008 . S
Co142 N143 1.995 . S
Co142 N148 2.008 . S
Co142 N153 1.995 . S
Co142 N158 2.282 . S
Co142 N164 2.282 . S
N143 Co142 1.995 . S
N143 C144 1.376 . S
N143 C147 1.383 . S
C144 N143 1.376 . S
C144 C145 1.446 . S
C144 C174 1.391 . S
C145 C144 1.446 . S
C145 C146 1.339 . S
C145 H180 0.949 . S
C146 C145 1.339 . S
C146 C147 1.439 . S
C146 H181 0.950 . S
C147 N143 1.383 . S
C147 C146 1.439 . S
C147 C176 1.392 . S
N148 Co142 2.008 . S
N148 C149 1.376 . S
N148 C152 1.374 . S
C149 N148 1.376 . S
C149 C150 1.443 . S
C149 C176 1.389 . S
C150 C149 1.443 . S
C150 C151 1.340 . S
C150 H182 0.951 . S
C151 C150 1.340 . S
C151 C152 1.439 . S
C151 H183 0.950 . S
C152 N148 1.374 . S
C152 C151 1.439 . S
C152 C177 1.395 . S
N153 Co142 1.995 . S
N153 C154 1.376 . S
N153 C157 1.383 . S
C154 N153 1.376 . S
C154 C155 1.446 . S
C154 C177 1.391 . S
C155 C154 1.446 . S
C155 C156 1.339 . S
C155 H184 0.949 . S
C156 C155 1.339 . S
C156 C157 1.439 . S
C156 H185 0.950 . S
C157 N153 1.383 . S
C157 C156 1.439 . S
C157 C175 1.392 . S
N158 Co142 2.282 . S
N158 C161 1.332 . S
N158 C163 1.332 . S
C159 C160 1.386 . S
C159 C162 1.388 . S
C160 C159 1.386 . S
C160 C161 1.382 . S
C160 H186 0.950 . S
C161 N158 1.332 . S
C161 C160 1.382 . S
C161 H172 0.952 . S
C162 C159 1.388 . S
C162 C163 1.382 . S
C162 H187 0.950 . S
C163 N158 1.332 . S
C163 C162 1.382 . S
C163 H173 0.948 . S
N164 Co142 2.282 . S
N164 C168 1.332 . S
N164 C169 1.332 . S
C165 C166 1.388 . S
C165 C169 1.382 . S
C165 H188 0.950 . S
C166 C165 1.388 . S
C166 C167 1.386 . S
C167 C166 1.386 . S
C167 C168 1.382 . S
C167 H189 0.950 . S
C168 N164 1.332 . S
C168 C167 1.382 . S
C168 H170 0.952 . S
C169 N164 1.332 . S
C169 C165 1.382 . S
C169 H171 0.948 . S
H170 C168 0.952 . S
H171 C169 0.948 . S
H172 C161 0.952 . S
H173 C163 0.948 . S
C174 C140 1.395 . S
C174 C144 1.391 . S
C175 C137 1.389 . S
C175 C157 1.392 . S
C176 C147 1.392 . S
C176 C149 1.389 . S
C177 C152 1.395 . S
C177 C154 1.391 . S
H178 C138 0.951 . S
H179 C139 0.950 . S
H180 C145 0.949 . S
H181 C146 0.950 . S
H182 C150 0.951 . S
H183 C151 0.950 . S
H184 C155 0.949 . S
H185 C156 0.950 . S
H186 C160 0.950 . S
H187 C162 0.950 . S
H188 C165 0.950 . S
H189 C167 0.950 . S
C190 C191 1.443 . S
C190 N194 1.376 . S
C190 C228 1.389 . S
C191 C190 1.443 . S
C191 C192 1.340 . S
C191 H231 0.951 . S
C192 C191 1.340 . S
C192 C193 1.439 . S
C192 H232 0.950 . S
C193 C192 1.439 . S
C193 N194 1.374 . S
C193 C227 1.395 . S
N194 C190 1.376 . S
N194 C193 1.374 . S
N194 Co195 2.008 . S
Co195 N194 2.008 . S
Co195 N196 1.995 . S
Co195 N201 2.008 . S
Co195 N206 1.995 . S
Co195 N211 2.282 . S
Co195 N217 2.282 . S
N196 Co195 1.995 . S
N196 C197 1.376 . S
N196 C200 1.383 . S
C197 N196 1.376 . S
C197 C198 1.446 . S
C197 C227 1.391 . S
C198 C197 1.446 . S
C198 C199 1.339 . S
C198 H233 0.949 . S
C199 C198 1.339 . S
C199 C200 1.439 . S
C199 H234 0.950 . S
C200 N196 1.383 . S
C200 C199 1.439 . S
C200 C229 1.392 . S
N201 Co195 2.008 . S
N201 C202 1.376 . S
N201 C205 1.374 . S
C202 N201 1.376 . S
C202 C203 1.443 . S
C202 C229 1.389 . S
C203 C202 1.443 . S
C203 C204 1.340 . S
C203 H235 0.951 . S
C204 C203 1.340 . S
C204 C205 1.439 . S
C204 H236 0.950 . S
C205 N201 1.374 . S
C205 C204 1.439 . S
C205 C230 1.395 . S
N206 Co195 1.995 . S
N206 C207 1.376 . S
N206 C210 1.383 . S
C207 N206 1.376 . S
C207 C208 1.446 . S
C207 C230 1.391 . S
C208 C207 1.446 . S
C208 C209 1.339 . S
C208 H237 0.949 . S
C209 C208 1.339 . S
C209 C210 1.439 . S
C209 H238 0.950 . S
C210 N206 1.383 . S
C210 C209 1.439 . S
C210 C228 1.392 . S
N211 Co195 2.282 . S
N211 C214 1.332 . S
N211 C216 1.332 . S
C212 C213 1.386 . S
C212 C215 1.388 . S
C213 C212 1.386 . S
C213 C214 1.382 . S
C213 H239 0.950 . S
C214 N211 1.332 . S
C214 C213 1.382 . S
C214 H225 0.952 . S
C215 C212 1.388 . S
C215 C216 1.382 . S
C215 H240 0.950 . S
C216 N211 1.332 . S
C216 C215 1.382 . S
C216 H226 0.948 . S
N217 Co195 2.282 . S
N217 C221 1.332 . S
N217 C222 1.332 . S
C218 C219 1.388 . S
C218 C222 1.382 . S
C218 H241 0.950 . S
C219 C218 1.388 . S
C219 C220 1.386 . S
C220 C219 1.386 . S
C220 C221 1.382 . S
C220 H242 0.950 . S
C221 N217 1.332 . S
C221 C220 1.382 . S
C221 H223 0.952 . S
C222 N217 1.332 . S
C222 C218 1.382 . S
C222 H224 0.948 . S
H223 C221 0.952 . S
H224 C222 0.948 . S
H225 C214 0.952 . S
H226 C216 0.948 . S
C227 C193 1.395 . S
C227 C197 1.391 . S
C228 C190 1.389 . S
C228 C210 1.392 . S
C229 C200 1.392 . S
C229 C202 1.389 . S
C230 C205 1.395 . S
C230 C207 1.391 . S
H231 C191 0.951 . S
H232 C192 0.950 . S
H233 C198 0.949 . S
H234 C199 0.950 . S
H235 C203 0.951 . S
H236 C204 0.950 . S
H237 C208 0.949 . S
H238 C209 0.950 . S
H239 C213 0.950 . S
H240 C215 0.950 . S
H241 C218 0.950 . S
H242 C220 0.950 . S
C243 C244 1.443 . S
C243 N247 1.376 . S
C243 C281 1.389 . S
C244 C243 1.443 . S
C244 C245 1.340 . S
C244 H284 0.951 . S
C245 C244 1.340 . S
C245 C246 1.439 . S
C245 H285 0.950 . S
C246 C245 1.439 . S
C246 N247 1.374 . S
C246 C280 1.395 . S
N247 C243 1.376 . S
N247 C246 1.374 . S
N247 Co248 2.008 . S
Co248 N247 2.008 . S
Co248 N249 1.995 . S
Co248 N254 2.008 . S
Co248 N259 1.995 . S
Co248 N264 2.282 . S
Co248 N270 2.282 . S
N249 Co248 1.995 . S
N249 C250 1.376 . S
N249 C253 1.383 . S
C250 N249 1.376 . S
C250 C251 1.446 . S
C250 C280 1.391 . S
C251 C250 1.446 . S
C251 C252 1.339 . S
C251 H286 0.949 . S
C252 C251 1.339 . S
C252 C253 1.439 . S
C252 H287 0.950 . S
C253 N249 1.383 . S
C253 C252 1.439 . S
C253 C282 1.392 . S
N254 Co248 2.008 . S
N254 C255 1.376 . S
N254 C258 1.374 . S
C255 N254 1.376 . S
C255 C256 1.443 . S
C255 C282 1.389 . S
C256 C255 1.443 . S
C256 C257 1.340 . S
C256 H288 0.951 . S
C257 C256 1.340 . S
C257 C258 1.439 . S
C257 H289 0.950 . S
C258 N254 1.374 . S
C258 C257 1.439 . S
C258 C283 1.395 . S
N259 Co248 1.995 . S
N259 C260 1.376 . S
N259 C263 1.383 . S
C260 N259 1.376 . S
C260 C261 1.446 . S
C260 C283 1.391 . S
C261 C260 1.446 . S
C261 C262 1.339 . S
C261 H290 0.949 . S
C262 C261 1.339 . S
C262 C263 1.439 . S
C262 H291 0.950 . S
C263 N259 1.383 . S
C263 C262 1.439 . S
C263 C281 1.392 . S
N264 Co248 2.282 . S
N264 C267 1.332 . S
N264 C269 1.332 . S
C265 C266 1.386 . S
C265 C268 1.388 . S
C266 C265 1.386 . S
C266 C267 1.382 . S
C266 H292 0.950 . S
C267 N264 1.332 . S
C267 C266 1.382 . S
C267 H278 0.952 . S
C268 C265 1.388 . S
C268 C269 1.382 . S
C268 H293 0.950 . S
C269 N264 1.332 . S
C269 C268 1.382 . S
C269 H279 0.948 . S
N270 Co248 2.282 . S
N270 C274 1.332 . S
N270 C275 1.332 . S
C271 C272 1.388 . S
C271 C275 1.382 . S
C271 H294 0.950 . S
C272 C271 1.388 . S
C272 C273 1.386 . S
C273 C272 1.386 . S
C273 C274 1.382 . S
C273 H295 0.950 . S
C274 N270 1.332 . S
C274 C273 1.382 . S
C274 H276 0.952 . S
C275 N270 1.332 . S
C275 C271 1.382 . S
C275 H277 0.948 . S
H276 C274 0.952 . S
H277 C275 0.948 . S
H278 C267 0.952 . S
H279 C269 0.948 . S
C280 C246 1.395 . S
C280 C250 1.391 . S
C281 C243 1.389 . S
C281 C263 1.392 . S
C282 C253 1.392 . S
C282 C255 1.389 . S
C283 C258 1.395 . S
C283 C260 1.391 . S
H284 C244 0.951 . S
H285 C245 0.950 . S
H286 C251 0.949 . S
H287 C252 0.950 . S
H288 C256 0.951 . S
H289 C257 0.950 . S
H290 C261 0.949 . S
H291 C262 0.950 . S
H292 C266 0.950 . S
H293 C268 0.950 . S
H294 C271 0.950 . S
H295 C273 0.950 . S
C296 C297 1.443 . S
C296 N300 1.376 . S
C296 C334 1.389 . S
C297 C296 1.443 . S
C297 C298 1.340 . S
C297 H337 0.951 . S
C298 C297 1.340 . S
C298 C299 1.439 . S
C298 H338 0.950 . S
C299 C298 1.439 . S
C299 N300 1.374 . S
C299 C333 1.395 . S
N300 C296 1.376 . S
N300 C299 1.374 . S
N300 Co301 2.008 . S
Co301 N300 2.008 . S
Co301 N302 1.995 . S
Co301 N307 2.008 . S
Co301 N312 1.995 . S
Co301 N317 2.282 . S
Co301 N323 2.282 . S
N302 Co301 1.995 . S
N302 C303 1.376 . S
N302 C306 1.383 . S
C303 N302 1.376 . S
C303 C304 1.446 . S
C303 C333 1.391 . S
C304 C303 1.446 . S
C304 C305 1.339 . S
C304 H339 0.949 . S
C305 C304 1.339 . S
C305 C306 1.439 . S
C305 H340 0.950 . S
C306 N302 1.383 . S
C306 C305 1.439 . S
C306 C335 1.392 . S
N307 Co301 2.008 . S
N307 C308 1.376 . S
N307 C311 1.374 . S
C308 N307 1.376 . S
C308 C309 1.443 . S
C308 C335 1.389 . S
C309 C308 1.443 . S
C309 C310 1.340 . S
C309 H341 0.951 . S
C310 C309 1.340 . S
C310 C311 1.439 . S
C310 H342 0.950 . S
C311 N307 1.374 . S
C311 C310 1.439 . S
C311 C336 1.395 . S
N312 Co301 1.995 . S
N312 C313 1.376 . S
N312 C316 1.383 . S
C313 N312 1.376 . S
C313 C314 1.446 . S
C313 C336 1.391 . S
C314 C313 1.446 . S
C314 C315 1.339 . S
C314 H343 0.949 . S
C315 C314 1.339 . S
C315 C316 1.439 . S
C315 H344 0.950 . S
C316 N312 1.383 . S
C316 C315 1.439 . S
C316 C334 1.392 . S
N317 Co301 2.282 . S
N317 C320 1.332 . S
N317 C322 1.332 . S
C318 C319 1.386 . S
C318 C321 1.388 . S
C319 C318 1.386 . S
C319 C320 1.382 . S
C319 H345 0.950 . S
C320 N317 1.332 . S
C320 C319 1.382 . S
C320 H331 0.952 . S
C321 C318 1.388 . S
C321 C322 1.382 . S
C321 H346 0.950 . S
C322 N317 1.332 . S
C322 C321 1.382 . S
C322 H332 0.948 . S
N323 Co301 2.282 . S
N323 C327 1.332 . S
N323 C328 1.332 . S
C324 C325 1.388 . S
C324 C328 1.382 . S
C324 H347 0.950 . S
C325 C324 1.388 . S
C325 C326 1.386 . S
C326 C325 1.386 . S
C326 C327 1.382 . S
C326 H348 0.950 . S
C327 N323 1.332 . S
C327 C326 1.382 . S
C327 H329 0.952 . S
C328 N323 1.332 . S
C328 C324 1.382 . S
C328 H330 0.948 . S
H329 C327 0.952 . S
H330 C328 0.948 . S
H331 C320 0.952 . S
H332 C322 0.948 . S
C333 C299 1.395 . S
C333 C303 1.391 . S
C334 C296 1.389 . S
C334 C316 1.392 . S
C335 C306 1.392 . S
C335 C308 1.389 . S
C336 C311 1.395 . S
C336 C313 1.391 . S
H337 C297 0.951 . S
H338 C298 0.950 . S
H339 C304 0.949 . S
H340 C305 0.950 . S
H341 C309 0.951 . S
H342 C310 0.950 . S
H343 C314 0.949 . S
H344 C315 0.950 . S
H345 C319 0.950 . S
H346 C321 0.950 . S
H347 C324 0.950 . S
H348 C326 0.950 . S
C349 C350 1.443 . S
C349 N353 1.376 . S
C349 C387 1.389 . S
C350 C349 1.443 . S
C350 C351 1.340 . S
C350 H390 0.951 . S
C351 C350 1.340 . S
C351 C352 1.439 . S
C351 H391 0.950 . S
C352 C351 1.439 . S
C352 N353 1.374 . S
C352 C386 1.395 . S
N353 C349 1.376 . S
N353 C352 1.374 . S
N353 Co354 2.008 . S
Co354 N353 2.008 . S
Co354 N355 1.995 . S
Co354 N360 2.008 . S
Co354 N365 1.995 . S
Co354 N370 2.282 . S
Co354 N376 2.282 . S
N355 Co354 1.995 . S
N355 C356 1.376 . S
N355 C359 1.383 . S
C356 N355 1.376 . S
C356 C357 1.446 . S
C356 C386 1.391 . S
C357 C356 1.446 . S
C357 C358 1.339 . S
C357 H392 0.949 . S
C358 C357 1.339 . S
C358 C359 1.439 . S
C358 H393 0.950 . S
C359 N355 1.383 . S
C359 C358 1.439 . S
C359 C388 1.392 . S
N360 Co354 2.008 . S
N360 C361 1.376 . S
N360 C364 1.374 . S
C361 N360 1.376 . S
C361 C362 1.443 . S
C361 C388 1.389 . S
C362 C361 1.443 . S
C362 C363 1.340 . S
C362 H394 0.951 . S
C363 C362 1.340 . S
C363 C364 1.439 . S
C363 H395 0.950 . S
C364 N360 1.374 . S
C364 C363 1.439 . S
C364 C389 1.395 . S
N365 Co354 1.995 . S
N365 C366 1.376 . S
N365 C369 1.383 . S
C366 N365 1.376 . S
C366 C367 1.446 . S
C366 C389 1.391 . S
C367 C366 1.446 . S
C367 C368 1.339 . S
C367 H396 0.949 . S
C368 C367 1.339 . S
C368 C369 1.439 . S
C368 H397 0.950 . S
C369 N365 1.383 . S
C369 C368 1.439 . S
C369 C387 1.392 . S
N370 Co354 2.282 . S
N370 C373 1.332 . S
N370 C375 1.332 . S
C371 C372 1.386 . S
C371 C374 1.388 . S
C372 C371 1.386 . S
C372 C373 1.382 . S
C372 H398 0.950 . S
C373 N370 1.332 . S
C373 C372 1.382 . S
C373 H384 0.952 . S
C374 C371 1.388 . S
C374 C375 1.382 . S
C374 H399 0.950 . S
C375 N370 1.332 . S
C375 C374 1.382 . S
C375 H385 0.948 . S
N376 Co354 2.282 . S
N376 C380 1.332 . S
N376 C381 1.332 . S
C377 C378 1.388 . S
C377 C381 1.382 . S
C377 H400 0.950 . S
C378 C377 1.388 . S
C378 C379 1.386 . S
C379 C378 1.386 . S
C379 C380 1.382 . S
C379 H401 0.950 . S
C380 N376 1.332 . S
C380 C379 1.382 . S
C380 H382 0.952 . S
C381 N376 1.332 . S
C381 C377 1.382 . S
C381 H383 0.948 . S
H382 C380 0.952 . S
H383 C381 0.948 . S
H384 C373 0.952 . S
H385 C375 0.948 . S
C386 C352 1.395 . S
C386 C356 1.391 . S
C387 C349 1.389 . S
C387 C369 1.392 . S
C388 C359 1.392 . S
C388 C361 1.389 . S
C389 C364 1.395 . S
C389 C366 1.391 . S
H390 C350 0.951 . S
H391 C351 0.950 . S
H392 C357 0.949 . S
H393 C358 0.950 . S
H394 C362 0.951 . S
H395 C363 0.950 . S
H396 C367 0.949 . S
H397 C368 0.950 . S
H398 C372 0.950 . S
H399 C374 0.950 . S
H400 C377 0.950 . S
H401 C379 0.950 . S
H402 C410 0.950 . S
H403 C415 0.950 . S
H404 C412 0.950 . S
H405 C414 0.950 . S
H406 C416 0.950 . S
H407 C418 0.950 . S
H408 C420 0.950 . S
H409 C421 0.950 . S
C410 H402 0.950 . S
C410 C411 1.386 . S
C410 C412 1.391 . S
C411 C410 1.386 . S
C411 C415 1.393 . S
C412 H404 0.950 . S
C412 C410 1.391 . S
C412 C413 1.400 . S
C413 C412 1.400 . S
C413 C414 1.398 . S
C413 C419 1.491 . S
C414 H405 0.950 . S
C414 C413 1.398 . S
C414 C415 1.391 . S
C415 H403 0.950 . S
C415 C411 1.393 . S
C415 C414 1.391 . S
C416 H406 0.950 . S
C416 C417 1.386 . S
C416 C418 1.391 . S
C417 C416 1.386 . S
C417 C421 1.393 . S
C418 H407 0.950 . S
C418 C416 1.391 . S
C418 C419 1.400 . S
C419 C413 1.491 . S
C419 C418 1.400 . S
C419 C420 1.398 . S
C420 H408 0.950 . S
C420 C419 1.398 . S
C420 C421 1.391 . S
C421 H409 0.950 . S
C421 C417 1.393 . S
C421 C420 1.391 . S
H422 C430 0.950 . S
H423 C435 0.950 . S
H424 C432 0.950 . S
H425 C434 0.950 . S
H426 C436 0.950 . S
H427 C438 0.950 . S
H428 C440 0.950 . S
H429 C441 0.950 . S
C430 H422 0.950 . S
C430 C431 1.386 . S
C430 C432 1.391 . S
C431 C430 1.386 . S
C431 C435 1.393 . S
C432 H424 0.950 . S
C432 C430 1.391 . S
C432 C433 1.400 . S
C433 C432 1.400 . S
C433 C434 1.398 . S
C433 C439 1.491 . S
C434 H425 0.950 . S
C434 C433 1.398 . S
C434 C435 1.391 . S
C435 H423 0.950 . S
C435 C431 1.393 . S
C435 C434 1.391 . S
C436 H426 0.950 . S
C436 C437 1.386 . S
C436 C438 1.391 . S
C437 C436 1.386 . S
C437 C441 1.393 . S
C438 H427 0.950 . S
C438 C436 1.391 . S
C438 C439 1.400 . S
C439 C433 1.491 . S
C439 C438 1.400 . S
C439 C440 1.398 . S
C440 H428 0.950 . S
C440 C439 1.398 . S
C440 C441 1.391 . S
C441 H429 0.950 . S
C441 C437 1.393 . S
C441 C440 1.391 . S
H442 C450 0.950 . S
H443 C455 0.950 . S
H444 C452 0.950 . S
H445 C454 0.950 . S
H446 C456 0.950 . S
H447 C458 0.950 . S
H448 C460 0.950 . S
H449 C461 0.950 . S
C450 H442 0.950 . S
C450 C451 1.386 . S
C450 C452 1.391 . S
C451 C450 1.386 . S
C451 C455 1.393 . S
C452 H444 0.950 . S
C452 C450 1.391 . S
C452 C453 1.400 . S
C453 C452 1.400 . S
C453 C454 1.398 . S
C453 C459 1.491 . S
C454 H445 0.950 . S
C454 C453 1.398 . S
C454 C455 1.391 . S
C455 H443 0.950 . S
C455 C451 1.393 . S
C455 C454 1.391 . S
C456 H446 0.950 . S
C456 C457 1.386 . S
C456 C458 1.391 . S
C457 C456 1.386 . S
C457 C461 1.393 . S
C458 H447 0.950 . S
C458 C456 1.391 . S
C458 C459 1.400 . S
C459 C453 1.491 . S
C459 C458 1.400 . S
C459 C460 1.398 . S
C460 H448 0.950 . S
C460 C459 1.398 . S
C460 C461 1.391 . S
C461 H449 0.950 . S
C461 C457 1.393 . S
C461 C460 1.391 . S
H462 C470 0.950 . S
H463 C475 0.950 . S
H464 C472 0.950 . S
H465 C474 0.950 . S
H466 C476 0.950 . S
H467 C478 0.950 . S
H468 C480 0.950 . S
H469 C481 0.950 . S
C470 H462 0.950 . S
C470 C471 1.386 . S
C470 C472 1.391 . S
C471 C470 1.386 . S
C471 C475 1.393 . S
C472 H464 0.950 . S
C472 C470 1.391 . S
C472 C473 1.400 . S
C473 C472 1.400 . S
C473 C474 1.398 . S
C473 C479 1.491 . S
C474 H465 0.950 . S
C474 C473 1.398 . S
C474 C475 1.391 . S
C475 H463 0.950 . S
C475 C471 1.393 . S
C475 C474 1.391 . S
C476 H466 0.950 . S
C476 C477 1.386 . S
C476 C478 1.391 . S
C477 C476 1.386 . S
C477 C481 1.393 . S
C478 H467 0.950 . S
C478 C476 1.391 . S
C478 C479 1.400 . S
C479 C473 1.491 . S
C479 C478 1.400 . S
C479 C480 1.398 . S
C480 H468 0.950 . S
C480 C479 1.398 . S
C480 C481 1.391 . S
C481 H469 0.950 . S
C481 C477 1.393 . S
C481 C480 1.391 . S
H482 C490 0.950 . S
H483 C495 0.950 . S
H484 C492 0.950 . S
H485 C494 0.950 . S
H486 C496 0.950 . S
H487 C498 0.950 . S
H488 C500 0.950 . S
H489 C501 0.950 . S
C490 H482 0.950 . S
C490 C491 1.386 . S
C490 C492 1.391 . S
C491 C490 1.386 . S
C491 C495 1.393 . S
C492 H484 0.950 . S
C492 C490 1.391 . S
C492 C493 1.400 . S
C493 C492 1.400 . S
C493 C494 1.398 . S
C493 C499 1.491 . S
C494 H485 0.950 . S
C494 C493 1.398 . S
C494 C495 1.391 . S
C495 H483 0.950 . S
C495 C491 1.393 . S
C495 C494 1.391 . S
C496 H486 0.950 . S
C496 C497 1.386 . S
C496 C498 1.391 . S
C497 C496 1.386 . S
C497 C501 1.393 . S
C498 H487 0.950 . S
C498 C496 1.391 . S
C498 C499 1.400 . S
C499 C493 1.491 . S
C499 C498 1.400 . S
C499 C500 1.398 . S
C500 H488 0.950 . S
C500 C499 1.398 . S
C500 C501 1.391 . S
C501 H489 0.950 . S
C501 C497 1.393 . S
C501 C500 1.391 . S
H502 C510 0.950 . S
H503 C515 0.950 . S
H504 C512 0.950 . S
H505 C514 0.950 . S
H506 C516 0.950 . S
H507 C518 0.950 . S
H508 C520 0.950 . S
H509 C521 0.950 . S
C510 H502 0.950 . S
C510 C511 1.386 . S
C510 C512 1.391 . S
C511 C510 1.386 . S
C511 C515 1.393 . S
C512 H504 0.950 . S
C512 C510 1.391 . S
C512 C513 1.400 . S
C513 C512 1.400 . S
C513 C514 1.398 . S
C513 C519 1.491 . S
C514 H505 0.950 . S
C514 C513 1.398 . S
C514 C515 1.391 . S
C515 H503 0.950 . S
C515 C511 1.393 . S
C515 C514 1.391 . S
C516 H506 0.950 . S
C516 C517 1.386 . S
C516 C518 1.391 . S
C517 C516 1.386 . S
C517 C521 1.393 . S
C518 H507 0.950 . S
C518 C516 1.391 . S
C518 C519 1.400 . S
C519 C513 1.491 . S
C519 C518 1.400 . S
C519 C520 1.398 . S
C520 H508 0.950 . S
C520 C519 1.398 . S
C520 C521 1.391 . S
C521 H509 0.950 . S
C521 C517 1.393 . S
C521 C520 1.391 . S
H522 C530 0.950 . S
H523 C535 0.950 . S
H524 C532 0.950 . S
H525 C534 0.950 . S
H526 C536 0.950 . S
H527 C538 0.950 . S
H528 C540 0.950 . S
H529 C541 0.950 . S
C530 H522 0.950 . S
C530 C531 1.386 . S
C530 C532 1.391 . S
C531 C530 1.386 . S
C531 C535 1.393 . S
C532 H524 0.950 . S
C532 C530 1.391 . S
C532 C533 1.400 . S
C533 C532 1.400 . S
C533 C534 1.398 . S
C533 C539 1.491 . S
C534 H525 0.950 . S
C534 C533 1.398 . S
C534 C535 1.391 . S
C535 H523 0.950 . S
C535 C531 1.393 . S
C535 C534 1.391 . S
C536 H526 0.950 . S
C536 C537 1.386 . S
C536 C538 1.391 . S
C537 C536 1.386 . S
C537 C541 1.393 . S
C538 H527 0.950 . S
C538 C536 1.391 . S
C538 C539 1.400 . S
C539 C533 1.491 . S
C539 C538 1.400 . S
C539 C540 1.398 . S
C540 H528 0.950 . S
C540 C539 1.398 . S
C540 C541 1.391 . S
C541 H529 0.950 . S
C541 C537 1.393 . S
C541 C540 1.391 . S
H542 C550 0.950 . S
H543 C555 0.950 . S
H544 C552 0.950 . S
H545 C554 0.950 . S
H546 C556 0.950 . S
H547 C558 0.950 . S
H548 C560 0.950 . S
H549 C561 0.950 . S
C550 H542 0.950 . S
C550 C551 1.386 . S
C550 C552 1.391 . S
C551 C550 1.386 . S
C551 C555 1.393 . S
C552 H544 0.950 . S
C552 C550 1.391 . S
C552 C553 1.400 . S
C553 C552 1.400 . S
C553 C554 1.398 . S
C553 C559 1.491 . S
C554 H545 0.950 . S
C554 C553 1.398 . S
C554 C555 1.391 . S
C555 H543 0.950 . S
C555 C551 1.393 . S
C555 C554 1.391 . S
C556 H546 0.950 . S
C556 C557 1.386 . S
C556 C558 1.391 . S
C557 C556 1.386 . S
C557 C561 1.393 . S
C558 H547 0.950 . S
C558 C556 1.391 . S
C558 C559 1.400 . S
C559 C553 1.491 . S
C559 C558 1.400 . S
C559 C560 1.398 . S
C560 H548 0.950 . S
C560 C559 1.398 . S
C560 C561 1.391 . S
C561 H549 0.950 . S
C561 C557 1.393 . S
C561 C560 1.391 . S
H562 C570 0.950 . S
H563 C575 0.950 . S
H564 C572 0.950 . S
H565 C574 0.950 . S
H566 C576 0.950 . S
H567 C578 0.950 . S
H568 C580 0.950 . S
H569 C581 0.950 . S
C570 H562 0.950 . S
C570 C571 1.386 . S
C570 C572 1.391 . S
C571 C570 1.386 . S
C571 C575 1.393 . S
C572 H564 0.950 . S
C572 C570 1.391 . S
C572 C573 1.400 . S
C573 C572 1.400 . S
C573 C574 1.398 . S
C573 C579 1.491 . S
C574 H565 0.950 . S
C574 C573 1.398 . S
C574 C575 1.391 . S
C575 H563 0.950 . S
C575 C571 1.393 . S
C575 C574 1.391 . S
C576 H566 0.950 . S
C576 C577 1.386 . S
C576 C578 1.391 . S
C577 C576 1.386 . S
C577 C581 1.393 . S
C578 H567 0.950 . S
C578 C576 1.391 . S
C578 C579 1.400 . S
C579 C573 1.491 . S
C579 C578 1.400 . S
C579 C580 1.398 . S
C580 H568 0.950 . S
C580 C579 1.398 . S
C580 C581 1.391 . S
C581 H569 0.950 . S
C581 C577 1.393 . S
C581 C580 1.391 . S
H582 C590 0.950 . S
H583 C595 0.950 . S
H584 C592 0.950 . S
H585 C594 0.950 . S
H586 C596 0.950 . S
H587 C598 0.950 . S
H588 C600 0.950 . S
H589 C601 0.950 . S
C590 H582 0.950 . S
C590 C591 1.386 . S
C590 C592 1.391 . S
C591 C590 1.386 . S
C591 C595 1.393 . S
C592 H584 0.950 . S
C592 C590 1.391 . S
C592 C593 1.400 . S
C593 C592 1.400 . S
C593 C594 1.398 . S
C593 C599 1.491 . S
C594 H585 0.950 . S
C594 C593 1.398 . S
C594 C595 1.391 . S
C595 H583 0.950 . S
C595 C591 1.393 . S
C595 C594 1.391 . S
C596 H586 0.950 . S
C596 C597 1.386 . S
C596 C598 1.391 . S
C597 C596 1.386 . S
C597 C601 1.393 . S
C598 H587 0.950 . S
C598 C596 1.391 . S
C598 C599 1.400 . S
C599 C593 1.491 . S
C599 C598 1.400 . S
C599 C600 1.398 . S
C600 H588 0.950 . S
C600 C599 1.398 . S
C600 C601 1.391 . S
C601 H589 0.950 . S
C601 C597 1.393 . S
C601 C600 1.391 . S
H602 C610 0.950 . S
H603 C615 0.950 . S
H604 C612 0.950 . S
H605 C614 0.950 . S
H606 C616 0.950 . S
H607 C618 0.950 . S
H608 C620 0.950 . S
H609 C621 0.950 . S
C610 H602 0.950 . S
C610 C611 1.386 . S
C610 C612 1.391 . S
C611 C610 1.386 . S
C611 C615 1.393 . S
C612 H604 0.950 . S
C612 C610 1.391 . S
C612 C613 1.400 . S
C613 C612 1.400 . S
C613 C614 1.398 . S
C613 C619 1.491 . S
C614 H605 0.950 . S
C614 C613 1.398 . S
C614 C615 1.391 . S
C615 H603 0.950 . S
C615 C611 1.393 . S
C615 C614 1.391 . S
C616 H606 0.950 . S
C616 C617 1.386 . S
C616 C618 1.391 . S
C617 C616 1.386 . S
C617 C621 1.393 . S
C618 H607 0.950 . S
C618 C616 1.391 . S
C618 C619 1.400 . S
C619 C613 1.491 . S
C619 C618 1.400 . S
C619 C620 1.398 . S
C620 H608 0.950 . S
C620 C619 1.398 . S
C620 C621 1.391 . S
C621 H609 0.950 . S
C621 C617 1.393 . S
C621 C620 1.391 . S
H622 C630 0.950 . S
H623 C635 0.950 . S
H624 C632 0.950 . S
H625 C634 0.950 . S
H626 C636 0.950 . S
H627 C638 0.950 . S
H628 C640 0.950 . S
H629 C641 0.950 . S
C630 H622 0.950 . S
C630 C631 1.386 . S
C630 C632 1.391 . S
C631 C630 1.386 . S
C631 C635 1.393 . S
C632 H624 0.950 . S
C632 C630 1.391 . S
C632 C633 1.400 . S
C633 C632 1.400 . S
C633 C634 1.398 . S
C633 C639 1.491 . S
C634 H625 0.950 . S
C634 C633 1.398 . S
C634 C635 1.391 . S
C635 H623 0.950 . S
C635 C631 1.393 . S
C635 C634 1.391 . S
C636 H626 0.950 . S
C636 C637 1.386 . S
C636 C638 1.391 . S
C637 C636 1.386 . S
C637 C641 1.393 . S
C638 H627 0.950 . S
C638 C636 1.391 . S
C638 C639 1.400 . S
C639 C633 1.491 . S
C639 C638 1.400 . S
C639 C640 1.398 . S
C640 H628 0.950 . S
C640 C639 1.398 . S
C640 C641 1.391 . S
C641 H629 0.950 . S
C641 C637 1.393 . S
C641 C640 1.391 . S
H642 C650 0.950 . S
H643 C655 0.950 . S
H644 C652 0.950 . S
H645 C654 0.950 . S
H646 C656 0.950 . S
H647 C658 0.950 . S
H648 C660 0.950 . S
H649 C661 0.950 . S
C650 H642 0.950 . S
C650 C651 1.386 . S
C650 C652 1.391 . S
C651 C650 1.386 . S
C651 C655 1.393 . S
C652 H644 0.950 . S
C652 C650 1.391 . S
C652 C653 1.400 . S
C653 C652 1.400 . S
C653 C654 1.398 . S
C653 C659 1.491 . S
C654 H645 0.950 . S
C654 C653 1.398 . S
C654 C655 1.391 . S
C655 H643 0.950 . S
C655 C651 1.393 . S
C655 C654 1.391 . S
C656 H646 0.950 . S
C656 C657 1.386 . S
C656 C658 1.391 . S
C657 C656 1.386 . S
C657 C661 1.393 . S
C658 H647 0.950 . S
C658 C656 1.391 . S
C658 C659 1.400 . S
C659 C653 1.491 . S
C659 C658 1.400 . S
C659 C660 1.398 . S
C660 H648 0.950 . S
C660 C659 1.398 . S
C660 C661 1.391 . S
C661 H649 0.950 . S
C661 C657 1.393 . S
C661 C660 1.391 . S
H662 C670 0.950 . S
H663 C675 0.950 . S
H664 C672 0.950 . S
H665 C674 0.950 . S
H666 C676 0.950 . S
H667 C678 0.950 . S
H668 C680 0.950 . S
H669 C681 0.950 . S
C670 H662 0.950 . S
C670 C671 1.386 . S
C670 C672 1.391 . S
C671 C670 1.386 . S
C671 C675 1.393 . S
C672 H664 0.950 . S
C672 C670 1.391 . S
C672 C673 1.400 . S
C673 C672 1.400 . S
C673 C674 1.398 . S
C673 C679 1.491 . S
C674 H665 0.950 . S
C674 C673 1.398 . S
C674 C675 1.391 . S
C675 H663 0.950 . S
C675 C671 1.393 . S
C675 C674 1.391 . S
C676 H666 0.950 . S
C676 C677 1.386 . S
C676 C678 1.391 . S
C677 C676 1.386 . S
C677 C681 1.393 . S
C678 H667 0.950 . S
C678 C676 1.391 . S
C678 C679 1.400 . S
C679 C673 1.491 . S
C679 C678 1.400 . S
C679 C680 1.398 . S
C680 H668 0.950 . S
C680 C679 1.398 . S
C680 C681 1.391 . S
C681 H669 0.950 . S
C681 C677 1.393 . S
C681 C680 1.391 . S
H682 C690 0.950 . S
H683 C695 0.950 . S
H684 C692 0.950 . S
H685 C694 0.950 . S
H686 C696 0.950 . S
H687 C698 0.950 . S
H688 C700 0.950 . S
H689 C701 0.950 . S
C690 H682 0.950 . S
C690 C691 1.386 . S
C690 C692 1.391 . S
C691 C690 1.386 . S
C691 C695 1.393 . S
C692 H684 0.950 . S
C692 C690 1.391 . S
C692 C693 1.400 . S
C693 C692 1.400 . S
C693 C694 1.398 . S
C693 C699 1.491 . S
C694 H685 0.950 . S
C694 C693 1.398 . S
C694 C695 1.391 . S
C695 H683 0.950 . S
C695 C691 1.393 . S
C695 C694 1.391 . S
C696 H686 0.950 . S
C696 C697 1.386 . S
C696 C698 1.391 . S
C697 C696 1.386 . S
C697 C701 1.393 . S
C698 H687 0.950 . S
C698 C696 1.391 . S
C698 C699 1.400 . S
C699 C693 1.491 . S
C699 C698 1.400 . S
C699 C700 1.398 . S
C700 H688 0.950 . S
C700 C699 1.398 . S
C700 C701 1.391 . S
C701 H689 0.950 . S
C701 C697 1.393 . S
C701 C700 1.391 . S
H702 C710 0.950 . S
H703 C715 0.950 . S
H704 C712 0.950 . S
H705 C714 0.950 . S
H706 C716 0.950 . S
H707 C718 0.950 . S
H708 C720 0.950 . S
H709 C721 0.950 . S
C710 H702 0.950 . S
C710 C711 1.386 . S
C710 C712 1.391 . S
C711 C710 1.386 . S
C711 C715 1.393 . S
C712 H704 0.950 . S
C712 C710 1.391 . S
C712 C713 1.400 . S
C713 C712 1.400 . S
C713 C714 1.398 . S
C713 C719 1.491 . S
C714 H705 0.950 . S
C714 C713 1.398 . S
C714 C715 1.391 . S
C715 H703 0.950 . S
C715 C711 1.393 . S
C715 C714 1.391 . S
C716 H706 0.950 . S
C716 C717 1.386 . S
C716 C718 1.391 . S
C717 C716 1.386 . S
C717 C721 1.393 . S
C718 H707 0.950 . S
C718 C716 1.391 . S
C718 C719 1.400 . S
C719 C713 1.491 . S
C719 C718 1.400 . S
C719 C720 1.398 . S
C720 H708 0.950 . S
C720 C719 1.398 . S
C720 C721 1.391 . S
C721 H709 0.950 . S
C721 C717 1.393 . S
C721 C720 1.391 . S
H722 C730 0.950 . S
H723 C735 0.950 . S
H724 C732 0.950 . S
H725 C734 0.950 . S
H726 C736 0.950 . S
H727 C738 0.950 . S
H728 C740 0.950 . S
H729 C741 0.950 . S
C730 H722 0.950 . S
C730 C731 1.386 . S
C730 C732 1.391 . S
C731 C730 1.386 . S
C731 C735 1.393 . S
C732 H724 0.950 . S
C732 C730 1.391 . S
C732 C733 1.400 . S
C733 C732 1.400 . S
C733 C734 1.398 . S
C733 C739 1.491 . S
C734 H725 0.950 . S
C734 C733 1.398 . S
C734 C735 1.391 . S
C735 H723 0.950 . S
C735 C731 1.393 . S
C735 C734 1.391 . S
C736 H726 0.950 . S
C736 C737 1.386 . S
C736 C738 1.391 . S
C737 C736 1.386 . S
C737 C741 1.393 . S
C738 H727 0.950 . S
C738 C736 1.391 . S
C738 C739 1.400 . S
C739 C733 1.491 . S
C739 C738 1.400 . S
C739 C740 1.398 . S
C740 H728 0.950 . S
C740 C739 1.398 . S
C740 C741 1.391 . S
C741 H729 0.950 . S
C741 C737 1.393 . S
C741 C740 1.391 . S
H742 C750 0.950 . S
H743 C755 0.950 . S
H744 C752 0.950 . S
H745 C754 0.950 . S
H746 C756 0.950 . S
H747 C758 0.950 . S
H748 C760 0.950 . S
H749 C761 0.950 . S
C750 H742 0.950 . S
C750 C751 1.386 . S
C750 C752 1.391 . S
C751 C750 1.386 . S
C751 C755 1.393 . S
C752 H744 0.950 . S
C752 C750 1.391 . S
C752 C753 1.400 . S
C753 C752 1.400 . S
C753 C754 1.398 . S
C753 C759 1.491 . S
C754 H745 0.950 . S
C754 C753 1.398 . S
C754 C755 1.391 . S
C755 H743 0.950 . S
C755 C751 1.393 . S
C755 C754 1.391 . S
C756 H746 0.950 . S
C756 C757 1.386 . S
C756 C758 1.391 . S
C757 C756 1.386 . S
C757 C761 1.393 . S
C758 H747 0.950 . S
C758 C756 1.391 . S
C758 C759 1.400 . S
C759 C753 1.491 . S
C759 C758 1.400 . S
C759 C760 1.398 . S
C760 H748 0.950 . S
C760 C759 1.398 . S
C760 C761 1.391 . S
C761 H749 0.950 . S
C761 C757 1.393 . S
C761 C760 1.391 . S
H762 C770 0.950 . S
H763 C775 0.950 . S
H764 C772 0.950 . S
H765 C774 0.950 . S
H766 C776 0.950 . S
H767 C778 0.950 . S
H768 C780 0.950 . S
H769 C781 0.950 . S
C770 H762 0.950 . S
C770 C771 1.386 . S
C770 C772 1.391 . S
C771 C770 1.386 . S
C771 C775 1.393 . S
C772 H764 0.950 . S
C772 C770 1.391 . S
C772 C773 1.400 . S
C773 C772 1.400 . S
C773 C774 1.398 . S
C773 C779 1.491 . S
C774 H765 0.950 . S
C774 C773 1.398 . S
C774 C775 1.391 . S
C775 H763 0.950 . S
C775 C771 1.393 . S
C775 C774 1.391 . S
C776 H766 0.950 . S
C776 C777 1.386 . S
C776 C778 1.391 . S
C777 C776 1.386 . S
C777 C781 1.393 . S
C778 H767 0.950 . S
C778 C776 1.391 . S
C778 C779 1.400 . S
C779 C773 1.491 . S
C779 C778 1.400 . S
C779 C780 1.398 . S
C780 H768 0.950 . S
C780 C779 1.398 . S
C780 C781 1.391 . S
C781 H769 0.950 . S
C781 C777 1.393 . S
C781 C780 1.391 . S
H782 C790 0.950 . S
H783 C795 0.950 . S
H784 C792 0.950 . S
H785 C794 0.950 . S
H786 C796 0.950 . S
H787 C798 0.950 . S
H788 C800 0.950 . S
H789 C801 0.950 . S
C790 H782 0.950 . S
C790 C791 1.386 . S
C790 C792 1.391 . S
C791 C790 1.386 . S
C791 C795 1.393 . S
C792 H784 0.950 . S
C792 C790 1.391 . S
C792 C793 1.400 . S
C793 C792 1.400 . S
C793 C794 1.398 . S
C793 C799 1.491 . S
C794 H785 0.950 . S
C794 C793 1.398 . S
C794 C795 1.391 . S
C795 H783 0.950 . S
C795 C791 1.393 . S
C795 C794 1.391 . S
C796 H786 0.950 . S
C796 C797 1.386 . S
C796 C798 1.391 . S
C797 C796 1.386 . S
C797 C801 1.393 . S
C798 H787 0.950 . S
C798 C796 1.391 . S
C798 C799 1.400 . S
C799 C793 1.491 . S
C799 C798 1.400 . S
C799 C800 1.398 . S
C800 H788 0.950 . S
C800 C799 1.398 . S
C800 C801 1.391 . S
C801 H789 0.950 . S
C801 C797 1.393 . S
C801 C800 1.391 . S
H802 C810 0.950 . S
H803 C815 0.950 . S
H804 C812 0.950 . S
H805 C814 0.950 . S
H806 C816 0.950 . S
H807 C818 0.950 . S
H808 C820 0.950 . S
H809 C821 0.950 . S
C810 H802 0.950 . S
C810 C811 1.386 . S
C810 C812 1.391 . S
C811 C810 1.386 . S
C811 C815 1.393 . S
C812 H804 0.950 . S
C812 C810 1.391 . S
C812 C813 1.400 . S
C813 C812 1.400 . S
C813 C814 1.398 . S
C813 C819 1.491 . S
C814 H805 0.950 . S
C814 C813 1.398 . S
C814 C815 1.391 . S
C815 H803 0.950 . S
C815 C811 1.393 . S
C815 C814 1.391 . S
C816 H806 0.950 . S
C816 C817 1.386 . S
C816 C818 1.391 . S
C817 C816 1.386 . S
C817 C821 1.393 . S
C818 H807 0.950 . S
C818 C816 1.391 . S
C818 C819 1.400 . S
C819 C813 1.491 . S
C819 C818 1.400 . S
C819 C820 1.398 . S
C820 H808 0.950 . S
C820 C819 1.398 . S
C820 C821 1.391 . S
C821 H809 0.950 . S
C821 C817 1.393 . S
C821 C820 1.391 . S
H822 C830 0.950 . S
H823 C835 0.950 . S
H824 C832 0.950 . S
H825 C834 0.950 . S
H826 C836 0.950 . S
H827 C838 0.950 . S
H828 C840 0.950 . S
H829 C841 0.950 . S
C830 H822 0.950 . S
C830 C831 1.386 . S
C830 C832 1.391 . S
C831 C830 1.386 . S
C831 C835 1.393 . S
C832 H824 0.950 . S
C832 C830 1.391 . S
C832 C833 1.400 . S
C833 C832 1.400 . S
C833 C834 1.398 . S
C833 C839 1.491 . S
C834 H825 0.950 . S
C834 C833 1.398 . S
C834 C835 1.391 . S
C835 H823 0.950 . S
C835 C831 1.393 . S
C835 C834 1.391 . S
C836 H826 0.950 . S
C836 C837 1.386 . S
C836 C838 1.391 . S
C837 C836 1.386 . S
C837 C841 1.393 . S
C838 H827 0.950 . S
C838 C836 1.391 . S
C838 C839 1.400 . S
C839 C833 1.491 . S
C839 C838 1.400 . S
C839 C840 1.398 . S
C840 H828 0.950 . S
C840 C839 1.398 . S
C840 C841 1.391 . S
C841 H829 0.950 . S
C841 C837 1.393 . S
C841 C840 1.391 . S
H842 C850 0.950 . S
H843 C855 0.950 . S
H844 C852 0.950 . S
H845 C854 0.950 . S
H846 C856 0.950 . S
H847 C858 0.950 . S
H848 C860 0.950 . S
H849 C861 0.950 . S
C850 H842 0.950 . S
C850 C851 1.386 . S
C850 C852 1.391 . S
C851 C850 1.386 . S
C851 C855 1.393 . S
C852 H844 0.950 . S
C852 C850 1.391 . S
C852 C853 1.400 . S
C853 C852 1.400 . S
C853 C854 1.398 . S
C853 C859 1.491 . S
C854 H845 0.950 . S
C854 C853 1.398 . S
C854 C855 1.391 . S
C855 H843 0.950 . S
C855 C851 1.393 . S
C855 C854 1.391 . S
C856 H846 0.950 . S
C856 C857 1.386 . S
C856 C858 1.391 . S
C857 C856 1.386 . S
C857 C861 1.393 . S
C858 H847 0.950 . S
C858 C856 1.391 . S
C858 C859 1.400 . S
C859 C853 1.491 . S
C859 C858 1.400 . S
C859 C860 1.398 . S
C860 H848 0.950 . S
C860 C859 1.398 . S
C860 C861 1.391 . S
C861 H849 0.950 . S
C861 C857 1.393 . S
C861 C860 1.391 . S
H862 C870 0.950 . S
H863 C875 0.950 . S
H864 C872 0.950 . S
H865 C874 0.950 . S
H866 C876 0.950 . S
H867 C878 0.950 . S
H868 C880 0.950 . S
H869 C881 0.950 . S
C870 H862 0.950 . S
C870 C871 1.386 . S
C870 C872 1.391 . S
C871 C870 1.386 . S
C871 C875 1.393 . S
C872 H864 0.950 . S
C872 C870 1.391 . S
C872 C873 1.400 . S
C873 C872 1.400 . S
C873 C874 1.398 . S
C873 C879 1.491 . S
C874 H865 0.950 . S
C874 C873 1.398 . S
C874 C875 1.391 . S
C875 H863 0.950 . S
C875 C871 1.393 . S
C875 C874 1.391 . S
C876 H866 0.950 . S
C876 C877 1.386 . S
C876 C878 1.391 . S
C877 C876 1.386 . S
C877 C881 1.393 . S
C878 H867 0.950 . S
C878 C876 1.391 . S
C878 C879 1.400 . S
C879 C873 1.491 . S
C879 C878 1.400 . S
C879 C880 1.398 . S
C880 H868 0.950 . S
C880 C879 1.398 . S
C880 C881 1.391 . S
C881 H869 0.950 . S
C881 C877 1.393 . S
C881 C880 1.391 . S
C411 C13 1.918 . S
C417 C122 1.888 . S
C431 C27 1.632 . S
C437 C175 1.595 . S
C457 C228 1.777 . S
C451 C29 1.812 . S
C477 C265 1.466 . S
C471 C54 1.493 . S
C497 C325 1.720 . S
C491 C69 1.752 . S
C517 C378 1.566 . S
C511 C83 1.594 . S
C531 C15 1.921 . S
C537 C229 1.900 . S
C551 C41 1.593 . S
C557 C272 1.564 . S
C577 C318 1.718 . S
C571 C42 1.749 . S
C597 C371 1.459 . S
C591 C57 1.490 . S
C611 C71 1.812 . S
C617 C123 1.785 . S
C637 C176 1.604 . S
C631 C1 1.633 . S
C657 C282 1.886 . S
C651 C12 1.917 . S
C671 C26 1.637 . S
C677 C334 1.614 . S
C697 C387 1.782 . S
C691 C28 1.811 . S
C711 C55 1.491 . S
C717 C113 1.462 . S
C731 C68 1.751 . S
C737 C166 1.724 . S
C751 C82 1.585 . S
C757 C219 1.555 . S
C771 C14 1.912 . S
C777 C388 1.875 . S
C797 C106 1.549 . S
C791 C40 1.585 . S
C811 C43 1.749 . S
C817 C159 1.712 . S
C831 C56 1.496 . S
C837 C212 1.466 . S
C851 C70 1.811 . S
C857 C281 1.783 . S
C871 C0 1.632 . S
C877 C335 1.594 . S
