# Generated by pormake.
# Topology gar, (4,6)-cn, num edge types: 1
# Building blocks:
#     Node 0, Type 0, BuildingBlock: CEKHIL_clean_sbu_0, # of connection points: 4
#     Node 1, Type 0, BuildingBlock: CEKHIL_clean_sbu_0, # of connection points: 4
#     Node 2, Type 0, BuildingBlock: CEKHIL_clean_sbu_0, # of connection points: 4
#     Node 3, Type 0, BuildingBlock: CEKHIL_clean_sbu_0, # of connection points: 4
#     Node 4, Type 0, BuildingBlock: CEKHIL_clean_sbu_0, # of connection points: 4
#     Node 5, Type 0, BuildingBlock: CEKHIL_clean_sbu_0, # of connection points: 4
#     Node 6, Type 0, BuildingBlock: CEKHIL_clean_sbu_0, # of connection points: 4
#     Node 7, Type 0, BuildingBlock: CEKHIL_clean_sbu_0, # of connection points: 4
#     Node 8, Type 0, BuildingBlock: CEKHIL_clean_sbu_0, # of connection points: 4
#     Node 9, Type 0, BuildingBlock: CEKHIL_clean_sbu_0, # of connection points: 4
#     Node 10, Type 0, BuildingBlock: CEKHIL_clean_sbu_0, # of connection points: 4
#     Node 11, Type 0, BuildingBlock: CEKHIL_clean_sbu_0, # of connection points: 4
#     Node 12, Type 0, BuildingBlock: CEKHIL_clean_sbu_0, # of connection points: 4
#     Node 13, Type 0, BuildingBlock: CEKHIL_clean_sbu_0, # of connection points: 4
#     Node 14, Type 0, BuildingBlock: CEKHIL_clean_sbu_0, # of connection points: 4
#     Node 15, Type 0, BuildingBlock: CEKHIL_clean_sbu_0, # of connection points: 4
#     Node 16, Type 0, BuildingBlock: CEKHIL_clean_sbu_0, # of connection points: 4
#     Node 17, Type 0, BuildingBlock: CEKHIL_clean_sbu_0, # of connection points: 4
#     Node 18, Type 0, BuildingBlock: CEKHIL_clean_sbu_0, # of connection points: 4
#     Node 19, Type 0, BuildingBlock: CEKHIL_clean_sbu_0, # of connection points: 4
#     Node 20, Type 0, BuildingBlock: CEKHIL_clean_sbu_0, # of connection points: 4
#     Node 21, Type 0, BuildingBlock: CEKHIL_clean_sbu_0, # of connection points: 4
#     Node 22, Type 0, BuildingBlock: CEKHIL_clean_sbu_0, # of connection points: 4
#     Node 23, Type 0, BuildingBlock: CEKHIL_clean_sbu_0, # of connection points: 4
#     Node 24, Type 1, BuildingBlock: MIFKUJ_clean_sbu_0, # of connection points: 6
#     Node 25, Type 1, BuildingBlock: MIFKUJ_clean_sbu_0, # of connection points: 6
#     Node 26, Type 1, BuildingBlock: MIFKUJ_clean_sbu_0, # of connection points: 6
#     Node 27, Type 1, BuildingBlock: MIFKUJ_clean_sbu_0, # of connection points: 6
#     Node 28, Type 1, BuildingBlock: MIFKUJ_clean_sbu_0, # of connection points: 6
#     Node 29, Type 1, BuildingBlock: MIFKUJ_clean_sbu_0, # of connection points: 6
#     Node 30, Type 1, BuildingBlock: MIFKUJ_clean_sbu_0, # of connection points: 6
#     Node 31, Type 1, BuildingBlock: MIFKUJ_clean_sbu_0, # of connection points: 6
#     Node 32, Type 1, BuildingBlock: MIFKUJ_clean_sbu_0, # of connection points: 6
#     Node 33, Type 1, BuildingBlock: MIFKUJ_clean_sbu_0, # of connection points: 6
#     Node 34, Type 1, BuildingBlock: MIFKUJ_clean_sbu_0, # of connection points: 6
#     Node 35, Type 1, BuildingBlock: MIFKUJ_clean_sbu_0, # of connection points: 6
#     Node 36, Type 1, BuildingBlock: MIFKUJ_clean_sbu_0, # of connection points: 6
#     Node 37, Type 1, BuildingBlock: MIFKUJ_clean_sbu_0, # of connection points: 6
#     Node 38, Type 1, BuildingBlock: MIFKUJ_clean_sbu_0, # of connection points: 6
#     Node 39, Type 1, BuildingBlock: MIFKUJ_clean_sbu_0, # of connection points: 6
#     Edge 40, Type (0, 1), BuildingBlock: TEMPAE_clean_linker_10, # of connection points: 2
#     Edge 41, Type (0, 1), BuildingBlock: TEMPAE_clean_linker_10, # of connection points: 2
#     Edge 42, Type (0, 1), BuildingBlock: TEMPAE_clean_linker_10, # of connection points: 2
#     Edge 43, Type (0, 1), BuildingBlock: TEMPAE_clean_linker_10, # of connection points: 2
#     Edge 44, Type (0, 1), BuildingBlock: TEMPAE_clean_linker_10, # of connection points: 2
#     Edge 45, Type (0, 1), BuildingBlock: TEMPAE_clean_linker_10, # of connection points: 2
#     Edge 46, Type (0, 1), BuildingBlock: TEMPAE_clean_linker_10, # of connection points: 2
#     Edge 47, Type (0, 1), BuildingBlock: TEMPAE_clean_linker_10, # of connection points: 2
#     Edge 48, Type (0, 1), BuildingBlock: TEMPAE_clean_linker_10, # of connection points: 2
#     Edge 49, Type (0, 1), BuildingBlock: TEMPAE_clean_linker_10, # of connection points: 2
#     Edge 50, Type (0, 1), BuildingBlock: TEMPAE_clean_linker_10, # of connection points: 2
#     Edge 51, Type (0, 1), BuildingBlock: TEMPAE_clean_linker_10, # of connection points: 2
#     Edge 52, Type (0, 1), BuildingBlock: TEMPAE_clean_linker_10, # of connection points: 2
#     Edge 53, Type (0, 1), BuildingBlock: TEMPAE_clean_linker_10, # of connection points: 2
#     Edge 54, Type (0, 1), BuildingBlock: TEMPAE_clean_linker_10, # of connection points: 2
#     Edge 55, Type (0, 1), BuildingBlock: TEMPAE_clean_linker_10, # of connection points: 2
#     Edge 56, Type (0, 1), BuildingBlock: TEMPAE_clean_linker_10, # of connection points: 2
#     Edge 57, Type (0, 1), BuildingBlock: TEMPAE_clean_linker_10, # of connection points: 2
#     Edge 58, Type (0, 1), BuildingBlock: TEMPAE_clean_linker_10, # of connection points: 2
#     Edge 59, Type (0, 1), BuildingBlock: TEMPAE_clean_linker_10, # of connection points: 2
#     Edge 60, Type (0, 1), BuildingBlock: TEMPAE_clean_linker_10, # of connection points: 2
#     Edge 61, Type (0, 1), BuildingBlock: TEMPAE_clean_linker_10, # of connection points: 2
#     Edge 62, Type (0, 1), BuildingBlock: TEMPAE_clean_linker_10, # of connection points: 2
#     Edge 63, Type (0, 1), BuildingBlock: TEMPAE_clean_linker_10, # of connection points: 2
#     Edge 64, Type (0, 1), BuildingBlock: TEMPAE_clean_linker_10, # of connection points: 2
#     Edge 65, Type (0, 1), BuildingBlock: TEMPAE_clean_linker_10, # of connection points: 2
#     Edge 66, Type (0, 1), BuildingBlock: TEMPAE_clean_linker_10, # of connection points: 2
#     Edge 67, Type (0, 1), BuildingBlock: TEMPAE_clean_linker_10, # of connection points: 2
#     Edge 68, Type (0, 1), BuildingBlock: TEMPAE_clean_linker_10, # of connection points: 2
#     Edge 69, Type (0, 1), BuildingBlock: TEMPAE_clean_linker_10, # of connection points: 2
#     Edge 70, Type (0, 1), BuildingBlock: TEMPAE_clean_linker_10, # of connection points: 2
#     Edge 71, Type (0, 1), BuildingBlock: TEMPAE_clean_linker_10, # of connection points: 2
#     Edge 72, Type (0, 1), BuildingBlock: TEMPAE_clean_linker_10, # of connection points: 2
#     Edge 73, Type (0, 1), BuildingBlock: TEMPAE_clean_linker_10, # of connection points: 2
#     Edge 74, Type (0, 1), BuildingBlock: TEMPAE_clean_linker_10, # of connection points: 2
#     Edge 75, Type (0, 1), BuildingBlock: TEMPAE_clean_linker_10, # of connection points: 2
#     Edge 76, Type (0, 1), BuildingBlock: TEMPAE_clean_linker_10, # of connection points: 2
#     Edge 77, Type (0, 1), BuildingBlock: TEMPAE_clean_linker_10, # of connection points: 2
#     Edge 78, Type (0, 1), BuildingBlock: TEMPAE_clean_linker_10, # of connection points: 2
#     Edge 79, Type (0, 1), BuildingBlock: TEMPAE_clean_linker_10, # of connection points: 2
#     Edge 80, Type (0, 1), BuildingBlock: TEMPAE_clean_linker_10, # of connection points: 2
#     Edge 81, Type (0, 1), BuildingBlock: TEMPAE_clean_linker_10, # of connection points: 2
#     Edge 82, Type (0, 1), BuildingBlock: TEMPAE_clean_linker_10, # of connection points: 2
#     Edge 83, Type (0, 1), BuildingBlock: TEMPAE_clean_linker_10, # of connection points: 2
#     Edge 84, Type (0, 1), BuildingBlock: TEMPAE_clean_linker_10, # of connection points: 2
#     Edge 85, Type (0, 1), BuildingBlock: TEMPAE_clean_linker_10, # of connection points: 2
#     Edge 86, Type (0, 1), BuildingBlock: TEMPAE_clean_linker_10, # of connection points: 2
#     Edge 87, Type (0, 1), BuildingBlock: TEMPAE_clean_linker_10, # of connection points: 2
#     Edge 88, Type (0, 1), BuildingBlock: TEMPAE_clean_linker_10, # of connection points: 2
#     Edge 89, Type (0, 1), BuildingBlock: TEMPAE_clean_linker_10, # of connection points: 2
#     Edge 90, Type (0, 1), BuildingBlock: TEMPAE_clean_linker_10, # of connection points: 2
#     Edge 91, Type (0, 1), BuildingBlock: TEMPAE_clean_linker_10, # of connection points: 2
#     Edge 92, Type (0, 1), BuildingBlock: TEMPAE_clean_linker_10, # of connection points: 2
#     Edge 93, Type (0, 1), BuildingBlock: TEMPAE_clean_linker_10, # of connection points: 2
#     Edge 94, Type (0, 1), BuildingBlock: TEMPAE_clean_linker_10, # of connection points: 2
#     Edge 95, Type (0, 1), BuildingBlock: TEMPAE_clean_linker_10, # of connection points: 2
#     Edge 96, Type (0, 1), BuildingBlock: TEMPAE_clean_linker_10, # of connection points: 2
#     Edge 97, Type (0, 1), BuildingBlock: TEMPAE_clean_linker_10, # of connection points: 2
#     Edge 98, Type (0, 1), BuildingBlock: TEMPAE_clean_linker_10, # of connection points: 2
#     Edge 99, Type (0, 1), BuildingBlock: TEMPAE_clean_linker_10, # of connection points: 2
#     Edge 100, Type (0, 1), BuildingBlock: TEMPAE_clean_linker_10, # of connection points: 2
#     Edge 101, Type (0, 1), BuildingBlock: TEMPAE_clean_linker_10, # of connection points: 2
#     Edge 102, Type (0, 1), BuildingBlock: TEMPAE_clean_linker_10, # of connection points: 2
#     Edge 103, Type (0, 1), BuildingBlock: TEMPAE_clean_linker_10, # of connection points: 2
#     Edge 104, Type (0, 1), BuildingBlock: TEMPAE_clean_linker_10, # of connection points: 2
#     Edge 105, Type (0, 1), BuildingBlock: TEMPAE_clean_linker_10, # of connection points: 2
#     Edge 106, Type (0, 1), BuildingBlock: TEMPAE_clean_linker_10, # of connection points: 2
#     Edge 107, Type (0, 1), BuildingBlock: TEMPAE_clean_linker_10, # of connection points: 2
#     Edge 108, Type (0, 1), BuildingBlock: TEMPAE_clean_linker_10, # of connection points: 2
#     Edge 109, Type (0, 1), BuildingBlock: TEMPAE_clean_linker_10, # of connection points: 2
#     Edge 110, Type (0, 1), BuildingBlock: TEMPAE_clean_linker_10, # of connection points: 2
#     Edge 111, Type (0, 1), BuildingBlock: TEMPAE_clean_linker_10, # of connection points: 2
#     Edge 112, Type (0, 1), BuildingBlock: TEMPAE_clean_linker_10, # of connection points: 2
#     Edge 113, Type (0, 1), BuildingBlock: TEMPAE_clean_linker_10, # of connection points: 2
#     Edge 114, Type (0, 1), BuildingBlock: TEMPAE_clean_linker_10, # of connection points: 2
#     Edge 115, Type (0, 1), BuildingBlock: TEMPAE_clean_linker_10, # of connection points: 2
#     Edge 116, Type (0, 1), BuildingBlock: TEMPAE_clean_linker_10, # of connection points: 2
#     Edge 117, Type (0, 1), BuildingBlock: TEMPAE_clean_linker_10, # of connection points: 2
#     Edge 118, Type (0, 1), BuildingBlock: TEMPAE_clean_linker_10, # of connection points: 2
#     Edge 119, Type (0, 1), BuildingBlock: TEMPAE_clean_linker_10, # of connection points: 2
#     Edge 120, Type (0, 1), BuildingBlock: TEMPAE_clean_linker_10, # of connection points: 2
#     Edge 121, Type (0, 1), BuildingBlock: TEMPAE_clean_linker_10, # of connection points: 2
#     Edge 122, Type (0, 1), BuildingBlock: TEMPAE_clean_linker_10, # of connection points: 2
#     Edge 123, Type (0, 1), BuildingBlock: TEMPAE_clean_linker_10, # of connection points: 2
#     Edge 124, Type (0, 1), BuildingBlock: TEMPAE_clean_linker_10, # of connection points: 2
#     Edge 125, Type (0, 1), BuildingBlock: TEMPAE_clean_linker_10, # of connection points: 2
#     Edge 126, Type (0, 1), BuildingBlock: TEMPAE_clean_linker_10, # of connection points: 2
#     Edge 127, Type (0, 1), BuildingBlock: TEMPAE_clean_linker_10, # of connection points: 2
#     Edge 128, Type (0, 1), BuildingBlock: TEMPAE_clean_linker_10, # of connection points: 2
#     Edge 129, Type (0, 1), BuildingBlock: TEMPAE_clean_linker_10, # of connection points: 2
#     Edge 130, Type (0, 1), BuildingBlock: TEMPAE_clean_linker_10, # of connection points: 2
#     Edge 131, Type (0, 1), BuildingBlock: TEMPAE_clean_linker_10, # of connection points: 2
#     Edge 132, Type (0, 1), BuildingBlock: TEMPAE_clean_linker_10, # of connection points: 2
#     Edge 133, Type (0, 1), BuildingBlock: TEMPAE_clean_linker_10, # of connection points: 2
#     Edge 134, Type (0, 1), BuildingBlock: TEMPAE_clean_linker_10, # of connection points: 2
#     Edge 135, Type (0, 1), BuildingBlock: TEMPAE_clean_linker_10, # of connection points: 2
# Relax obj value: 0.097
# Max RMSD: 0.279
# Mean RMSD: 0.128
data_MOF--net-gar--node1-CEKHIL_clean_sbu_0--node2-MIFKUJ_clean_sbu_0--edge1-TEMPAE_clean_linker_10
_symmetry_space_group_name_H-M    P1
_symmetry_Int_Tables_number       1
_symmetry_cell_setting            triclinic
loop_
_symmetry_equiv_pos_as_xyz
'x, y, z'
_cell_length_a     57.475374
_cell_length_b     56.826862
_cell_length_c     53.937258
_cell_angle_alpha  94.522613
_cell_angle_beta   94.679854
_cell_angle_gamma 98.982687
loop_
_atom_site_label
_atom_site_type_symbol
_atom_site_fract_x
_atom_site_fract_y
_atom_site_fract_z
_atom_type_partial_charge
Co0 Co 0.03115 0.27602 0.40783 0.0
O1 O 0.06419 0.27326 0.41181 0.0
O2 O 0.04015 0.26174 0.37723 0.0
C3 C 0.03537 0.31397 0.42511 0.0
O4 O 0.99681 0.2766 0.39592 0.0
Co5 Co 0.00225 0.2857 0.45285 0.0
O6 O 0.97783 0.29149 0.42681 0.0
C7 C 0.01746 0.23889 0.44297 0.0
C8 C 0.06132 0.26433 0.38862 0.0
C9 C 0.97867 0.28431 0.40396 0.0
O10 O 0.0226 0.24388 0.42098 0.0
O11 O 0.01157 0.25397 0.45922 0.0
O12 O 0.03931 0.30974 0.40191 0.0
O13 O 0.03091 0.29543 0.43729 0.0
Co14 Co 0.99725 0.75864 0.6427 0.0
O15 O 0.96325 0.75585 0.64048 0.0
O16 O 0.98596 0.74997 0.67392 0.0
C17 C 0.00359 0.79362 0.62546 0.0
O18 O 0.0323 0.76052 0.65316 0.0
Co19 Co 0.02718 0.76182 0.59697 0.0
O20 O 0.0545 0.7717 0.62243 0.0
C21 C 0.00167 0.71497 0.60878 0.0
C22 C 0.96498 0.75127 0.66374 0.0
C23 C 0.05245 0.76706 0.64493 0.0
O24 O 0.99485 0.7241 0.62907 0.0
O25 O 0.01324 0.72713 0.59347 0.0
O26 O 1.00019 0.79349 0.64898 0.0
O27 O 0.00169 0.77299 0.61311 0.0
Co28 Co 0.53359 0.77899 0.90593 0.0
O29 O 0.56605 0.77409 0.90735 0.0
O30 O 0.53992 0.76514 0.87401 0.0
C31 C 0.54047 0.81643 0.92478 0.0
O32 O 0.49935 0.7821 0.89645 0.0
Co33 Co 0.50743 0.78858 0.95298 0.0
O34 O 0.48372 0.79858 0.92902 0.0
C35 C 0.51461 0.73949 0.93726 0.0
C36 C 0.56142 0.76593 0.88396 0.0
C37 C 0.48277 0.79158 0.9059 0.0
O38 O 0.52387 0.74639 0.91759 0.0
O39 O 0.50795 0.75353 0.95398 0.0
O40 O 0.54322 0.8127 0.90119 0.0
O41 O 0.53576 0.79754 0.93647 0.0
Co42 Co 0.49855 0.25973 0.14044 0.0
O43 O 0.46456 0.25616 0.13932 0.0
O44 O 0.48839 0.25169 0.17242 0.0
C45 C 0.50355 0.29424 0.12208 0.0
O46 O 0.53407 0.26282 0.14957 0.0
Co47 Co 0.52546 0.26138 0.09232 0.0
O48 O 0.55423 0.26924 0.11605 0.0
C49 C 0.50152 0.2152 0.10687 0.0
C50 C 0.46704 0.25216 0.1627 0.0
C51 C 0.55356 0.26711 0.13932 0.0
O52 O 0.49648 0.2249 0.12777 0.0
O53 O 0.51126 0.2269 0.09009 0.0
O54 O 0.50087 0.2946 0.1458 0.0
O55 O 0.50141 0.27335 0.1102 0.0
Co56 Co 0.02243 0.77999 0.14887 0.0
O57 O 0.98839 0.77426 0.14439 0.0
O58 O 0.00997 0.76999 0.17924 0.0
C59 C 0.02637 0.81492 0.13114 0.0
O60 O 0.05723 0.78527 0.16162 0.0
Co61 Co 0.05381 0.7836 0.10517 0.0
O62 O 0.08076 0.79375 0.1313 0.0
C63 C 0.02853 0.73663 0.11535 0.0
C64 C 0.98917 0.7692 0.16749 0.0
C65 C 0.07781 0.79135 0.15418 0.0
O66 O 0.02344 0.74578 0.13643 0.0
O67 O 0.03836 0.74909 0.09913 0.0
O68 O 0.02227 0.81434 0.15446 0.0
O69 O 0.02683 0.79447 0.11909 0.0
Co70 Co 0.5066 0.74958 0.38726 0.0
O71 O 0.54061 0.75488 0.39186 0.0
O72 O 0.51896 0.73679 0.3578 0.0
C73 C 0.50221 0.78665 0.40148 0.0
O74 O 0.47155 0.74223 0.37478 0.0
Co75 Co 0.47618 0.75384 0.43202 0.0
O76 O 0.4495 0.75113 0.40574 0.0
C77 C 0.50245 0.7136 0.42558 0.0
C78 C 0.53981 0.74478 0.36928 0.0
C79 C 0.45159 0.7449 0.38292 0.0
O80 O 0.50565 0.71831 0.40298 0.0
O81 O 0.49328 0.72713 0.44075 0.0
O82 O 0.50716 0.78241 0.37864 0.0
O83 O 0.50216 0.76914 0.41529 0.0
Co84 Co 0.52346 0.28276 0.65834 0.0
O85 O 0.48949 0.27417 0.65241 0.0
O86 O 0.51069 0.27119 0.68784 0.0
C87 C 0.52532 0.31793 0.64131 0.0
O88 O 0.55793 0.29036 0.67277 0.0
Co89 Co 0.55735 0.29137 0.61698 0.0
O90 O 0.58228 0.30332 0.64458 0.0
C91 C 0.5379 0.24186 0.62684 0.0
C92 C 0.49 0.26889 0.67545 0.0
C93 C 0.57859 0.29884 0.66681 0.0
O94 O 0.52773 0.24961 0.64553 0.0
O95 O 0.5493 0.25555 0.61262 0.0
O96 O 0.52009 0.31638 0.66419 0.0
O97 O 0.52813 0.29823 0.6292 0.0
Co98 Co 0.00905 0.2589 0.89387 0.0
O99 O 0.04307 0.2638 0.9 0.0
O100 O 0.0225 0.24571 0.86536 0.0
C101 C 0.00497 0.29634 0.90744 0.0
O102 O 0.97446 0.25178 0.8794 0.0
Co103 Co 0.97588 0.26375 0.93586 0.0
O104 O 0.95074 0.26192 0.90816 0.0
C105 C 0.99969 0.22149 0.93067 0.0
C106 C 0.04303 0.25352 0.87759 0.0
C107 C 0.95403 0.25503 0.88586 0.0
O108 O 0.00693 0.22763 0.90975 0.0
O109 O 0.98844 0.23423 0.94449 0.0
O110 O 0.01071 0.29169 0.88498 0.0
O111 O 0.00358 0.27887 0.92145 0.0
Co112 Co 0.39831 0.02769 0.29803 0.0
O113 O 0.40063 0.06039 0.28975 0.0
O114 O 0.36935 0.03206 0.27995 0.0
C115 C 0.41356 0.03604 0.33809 0.0
O116 O 0.38803 0.99292 0.30358 0.0
Co117 Co 0.44132 0.00377 0.3145 0.0
O118 O 0.4176 0.97565 0.31972 0.0
C119 C 0.432 0.01295 0.26177 0.0
C120 C 0.37904 0.0542 0.27941 0.0
C121 C 0.39586 0.97503 0.31241 0.0
O122 O 0.41164 0.01827 0.26603 0.0
O123 O 0.44719 0.00897 0.279 0.0
O124 O 0.39146 0.03726 0.332 0.0
O125 O 0.42594 0.03156 0.31992 0.0
Co126 Co 0.26275 0.12643 0.487 0.0
O127 O 0.29671 0.13375 0.4948 0.0
O128 O 0.27487 0.09829 0.49656 0.0
C129 C 0.26186 0.14479 0.45116 0.0
O130 O 0.22793 0.11111 0.48036 0.0
Co131 Co 0.2302 0.16474 0.48311 0.0
O132 O 0.2047 0.13788 0.4705 0.0
C133 C 0.24872 0.15334 0.53291 0.0
C134 C 0.29566 0.11149 0.49931 0.0
C135 C 0.20757 0.11648 0.47346 0.0
O136 O 0.25823 0.13635 0.52282 0.0
O137 O 0.2379 0.16725 0.52034 0.0
O138 O 0.2667 0.1232 0.45122 0.0
O139 O 0.25902 0.155 0.4727 0.0
Co140 Co 0.14148 0.00914 0.79191 0.0
O141 O 0.13673 0.97446 0.78582 0.0
O142 O 0.16998 0.99872 0.782 0.0
C143 C 0.12401 0.00977 0.82827 0.0
O144 O 0.15489 0.04491 0.79686 0.0
Co145 Co 0.10253 0.04055 0.79693 0.0
O146 O 0.12836 0.06761 0.80832 0.0
C147 C 0.11093 0.01931 0.74682 0.0
C148 C 0.15872 0.97697 0.78084 0.0
C149 C 0.14937 0.06529 0.80406 0.0
O150 O 0.12965 0.01192 0.756 0.0
O151 O 0.09729 0.02939 0.76035 0.0
O152 O 0.1459 0.00648 0.82812 0.0
O153 O 0.11337 0.01174 0.80675 0.0
Co154 Co 0.24025 0.8796 0.996 0.0
O155 O 0.20756 0.87975 0.002 0.0
O156 O 0.23639 0.91088 0.00974 0.0
C157 C 0.23337 0.85965 0.95746 0.0
O158 O 0.2753 0.88763 0.99183 0.0
Co159 Co 0.26242 0.83351 0.98729 0.0
O160 O 0.2908 0.85533 0.97939 0.0
C161 C 0.24929 0.84851 0.03714 0.0
C162 C 0.21416 0.90221 0.01005 0.0
C163 C 0.29257 0.87786 0.98451 0.0
O164 O 0.24715 0.8694 0.03048 0.0
O165 O 0.2527 0.83117 0.02197 0.0
O166 O 0.23272 0.8825 0.96027 0.0
O167 O 0.23622 0.84963 0.97783 0.0
Co168 Co 0.26276 0.39359 0.03431 0.0
O169 O 0.22856 0.38886 0.02917 0.0
O170 O 0.25112 0.42215 0.04637 0.0
C171 C 0.26842 0.37788 0.99586 0.0
O172 O 0.29822 0.40647 0.0412 0.0
Co173 Co 0.29167 0.35165 0.03167 0.0
O174 O 0.31972 0.37716 0.03424 0.0
C175 C 0.26258 0.35833 0.07326 0.0
C176 C 0.23002 0.41086 0.03864 0.0
C177 C 0.31818 0.3991 0.03943 0.0
O178 O 0.26104 0.37986 0.06801 0.0
O179 O 0.27165 0.34359 0.0594 0.0
O180 O 0.26455 0.39981 -0.00087 0.0
O181 O 0.26695 0.36594 0.01515 0.0
Co182 Co 0.77769 0.1317 0.02323 0.0
O183 O 0.8109 0.13398 0.0191 0.0
O184 O 0.78931 0.10397 0.0348 0.0
C185 C 0.76732 0.14197 0.98484 0.0
O186 O 0.74299 0.12214 0.02913 0.0
Co187 Co 0.75098 0.17522 0.01939 0.0
O188 O 0.7225 0.1502 0.016 0.0
C189 C 0.78451 0.17283 0.0635 0.0
C190 C 0.80957 0.11313 0.02765 0.0
C191 C 0.72337 0.12954 0.0233 0.0
O192 O 0.78522 0.15051 0.05737 0.0
O193 O 0.7739 0.18578 0.04947 0.0
O194 O 0.77008 0.12004 0.98768 0.0
O195 O 0.77245 0.15678 0.00452 0.0
Co196 Co 0.14589 0.49939 0.27228 0.0
O197 O 0.14489 0.4661 0.27724 0.0
O198 O 0.17515 0.48952 0.26418 0.0
C199 C 0.13149 0.5095 0.30842 0.0
O200 O 0.15433 0.53442 0.26628 0.0
Co201 Co 0.10099 0.52395 0.2699 0.0
O202 O 0.12434 0.55396 0.27459 0.0
C203 C 0.10843 0.48845 0.2294 0.0
C204 C 0.16632 0.46866 0.27064 0.0
C205 C 0.14576 0.55384 0.27015 0.0
O206 O 0.13058 0.49044 0.23696 0.0
O207 O 0.09367 0.49822 0.24157 0.0
O208 O 0.15384 0.50802 0.30833 0.0
O209 O 0.11883 0.50333 0.28749 0.0
Co210 Co 0.7611 0.89095 0.53649 0.0
O211 O 0.72688 0.88665 0.53222 0.0
O212 O 0.75024 0.92024 0.54741 0.0
C213 C 0.76576 0.87357 0.4984 0.0
O214 O 0.79666 0.90344 0.54236 0.0
Co215 Co 0.78936 0.84861 0.53528 0.0
O216 O 0.81767 0.87364 0.53617 0.0
C217 C 0.76106 0.85753 0.57709 0.0
C218 C 0.72892 0.90901 0.54067 0.0
C219 C 0.81646 0.89576 0.54053 0.0
O220 O 0.75977 0.87881 0.5709 0.0
O221 O 0.76979 0.84208 0.56377 0.0
O222 O 0.76233 0.89569 0.50094 0.0
O223 O 0.7645 0.86242 0.51828 0.0
Co224 Co 0.8883 0.01229 0.2558 0.0
O225 O 0.89272 0.04686 0.25832 0.0
O226 O 0.86041 0.02315 0.241 0.0
C227 C 0.90219 0.01038 0.29591 0.0
O228 O 0.87582 0.97618 0.25113 0.0
Co229 Co 0.92859 0.9829 0.26516 0.0
O230 O 0.90245 0.95716 0.2704 0.0
C231 C 0.92288 0.00473 0.21721 0.0
C232 C 0.87122 0.0448 0.24795 0.0
C233 C 0.88166 0.95748 0.26046 0.0
O234 O 0.90343 0.01163 0.22295 0.0
O235 O 0.93562 0.99425 0.23197 0.0
O236 O 0.88031 0.01285 0.29047 0.0
O237 O 0.91502 0.01009 0.27741 0.0
Co238 Co 0.27826 0.6296 0.51756 0.0
O239 O 0.3113 0.63025 0.51326 0.0
O240 O 0.28748 0.59941 0.52484 0.0
C241 C 0.26891 0.64558 0.48187 0.0
O242 O 0.24328 0.62153 0.52266 0.0
Co243 Co 0.25647 0.67661 0.52208 0.0
O244 O 0.22609 0.65444 0.52144 0.0
C245 C 0.2888 0.66555 0.56281 0.0
C246 C 0.30838 0.6083 0.51908 0.0
C247 C 0.22498 0.63202 0.52296 0.0
O248 O 0.28624 0.64351 0.55367 0.0
O249 O 0.28113 0.68195 0.55117 0.0
O250 O 0.2704 0.62295 0.48117 0.0
O251 O 0.27514 0.65773 0.50315 0.0
Co252 Co 0.39107 0.51188 0.75781 0.0
O253 O 0.39501 0.54626 0.76329 0.0
O254 O 0.3637 0.52338 0.74247 0.0
C255 C 0.40302 0.50748 0.79785 0.0
O256 O 0.37927 0.47585 0.75015 0.0
Co257 Co 0.43161 0.48278 0.76732 0.0
O258 O 0.40521 0.45641 0.77 0.0
C259 C 0.42921 0.50981 0.72237 0.0
C260 C 0.37402 0.5446 0.7518 0.0
C261 C 0.38476 0.45688 0.7592 0.0
O262 O 0.40822 0.51399 0.72619 0.0
O263 O 0.44147 0.49929 0.73757 0.0
O264 O 0.38117 0.50965 0.79171 0.0
O265 O 0.41678 0.50877 0.78018 0.0
Co266 Co 0.64736 0.99241 0.76909 0.0
O267 O 0.64896 0.95886 0.77043 0.0
O268 O 0.67802 0.98615 0.76102 0.0
C269 C 0.63105 0.99726 0.8054 0.0
O270 O 0.65332 0.02836 0.76687 0.0
Co271 Co 0.60017 0.01293 0.76795 0.0
O272 O 0.62123 0.04439 0.77544 0.0
C273 C 0.61246 0.98538 0.72332 0.0
C274 C 0.67061 0.96405 0.76481 0.0
C275 C 0.64301 0.0465 0.77158 0.0
O276 O 0.63392 0.98635 0.73288 0.0
O277 O 0.5962 0.99284 0.73516 0.0
O278 O 0.65378 0.99792 0.80556 0.0
O279 O 0.61909 0.99217 0.7839 0.0
Co280 Co 0.76749 0.62484 0.9891 0.0
O281 O 0.80167 0.62891 0.99496 0.0
O282 O 0.77716 0.59556 0.99867 0.0
C283 C 0.76645 0.64278 0.95291 0.0
O284 O 0.73201 0.61254 0.98444 0.0
Co285 Co 0.73878 0.66658 0.98644 0.0
O286 O 0.71091 0.6414 0.97563 0.0
C287 C 0.76105 0.65634 0.03499 0.0
C288 C 0.79881 0.60669 3e-05 0.0
C289 C 0.71226 0.61961 0.97851 0.0
O290 O 0.76528 0.63622 0.02515 0.0
O291 O 0.75287 0.67184 0.02225 0.0
O292 O 0.76954 0.62057 0.95282 0.0
O293 O 0.76552 0.6536 0.97464 0.0
Co294 Co 0.89799 0.5274 0.79404 0.0
O295 O 0.90095 0.55954 0.78402 0.0
O296 O 0.86813 0.53272 0.77874 0.0
C297 C 0.91793 0.53782 0.83202 0.0
O298 O 0.88688 0.49342 0.80206 0.0
Co299 Co 0.93989 0.50119 0.80894 0.0
O300 O 0.91572 0.47601 0.81953 0.0
C301 C 0.92758 0.50914 0.75603 0.0
C302 C 0.87856 0.55426 0.77624 0.0
C303 C 0.89403 0.47588 0.8124 0.0
O304 O 0.90777 0.51541 0.76106 0.0
O305 O 0.94327 0.50509 0.77272 0.0
O306 O 0.89562 0.53965 0.82869 0.0
O307 O 0.92728 0.53079 0.81248 0.0
Co308 Co 0.74094 0.38164 0.49571 0.0
O309 O 0.70823 0.38206 0.50148 0.0
O310 O 0.73741 0.41277 0.51005 0.0
C311 C 0.73418 0.36257 0.45682 0.0
O312 O 0.77608 0.3895 0.49202 0.0
Co313 Co 0.76284 0.3355 0.48612 0.0
O314 O 0.79144 0.35735 0.47878 0.0
C315 C 0.74923 0.34944 0.53601 0.0
C316 C 0.71508 0.40439 0.50994 0.0
C317 C 0.7933 0.37978 0.48451 0.0
O318 O 0.74738 0.37057 0.52988 0.0
O319 O 0.75264 0.33238 0.52048 0.0
O320 O 0.73369 0.38542 0.46011 0.0
O321 O 0.73685 0.352 0.47687 0.0
Co322 Co 0.64409 0.51025 0.29642 0.0
O323 O 0.64032 0.47571 0.28912 0.0
O324 O 0.67369 0.50087 0.2887 0.0
C325 C 0.62375 0.50876 0.33093 0.0
O326 O 0.65686 0.54602 0.30328 0.0
Co327 Co 0.60458 0.54099 0.29967 0.0
O328 O 0.62948 0.5685 0.31225 0.0
C329 C 0.61734 0.52312 0.24998 0.0
C330 C 0.66282 0.47891 0.28617 0.0
C331 C 0.65089 0.56637 0.30976 0.0
O332 O 0.63477 0.51426 0.26011 0.0
O333 O 0.60297 0.53307 0.2626 0.0
O334 O 0.64594 0.50632 0.33241 0.0
O335 O 0.61458 0.51157 0.30896 0.0
Zn336 Zn 0.04331 0.01291 0.03428 0.0
Zn337 Zn 0.99492 0.02085 0.00678 0.0
C338 C 0.03582 0.97129 0.05607 0.0
O339 O 0.04811 0.98713 0.07318 0.0
C340 C 0.02001 0.07446 0.01468 0.0
O341 O 0.02634 0.07548 0.03874 0.0
O342 O 0.07813 0.01141 0.04297 0.0
O343 O 0.04248 0.02476 -0.00036 0.0
O344 O 0.01033 0.00215 0.98086 0.0
C345 C 0.0854 0.99894 0.02542 0.0
O346 O 0.07086 0.99097 0.00544 0.0
O347 O 0.02944 0.97791 0.0349 0.0
C348 C 0.95424 0.03631 0.01628 0.0
O349 O 0.97087 0.04721 0.03331 0.0
O350 O 0.95985 0.02202 -0.00087 0.0
O351 O 0.9955 0.01002 0.0416 0.0
O352 O 0.02812 0.03065 0.06124 0.0
O353 O 0.00883 0.05516 0.00312 0.0
C354 C 0.03149 0.0127 0.98013 0.0
C355 C 0.00635 0.02186 0.06123 0.0
Zn356 Zn 0.25411 0.76381 0.29914 0.0
Zn357 Zn 0.26854 0.77311 0.25108 0.0
C358 C 0.2519 0.71308 0.29239 0.0
O359 O 0.26798 0.71773 0.31165 0.0
C360 C 0.30033 0.8139 0.26543 0.0
O361 O 0.31061 0.8011 0.24957 0.0
O362 O 0.24641 0.75792 0.33394 0.0
O363 O 0.2896 0.77209 0.29975 0.0
O364 O 0.29145 0.75199 0.26356 0.0
C365 C 0.26264 0.75888 0.35161 0.0
O366 O 0.28409 0.76964 0.34883 0.0
O367 O 0.2444 0.73035 0.28247 0.0
C368 C 0.25926 0.79708 0.2106 0.0
O369 O 0.24748 0.80571 0.22809 0.0
O370 O 0.27149 0.78086 0.21554 0.0
O371 O 0.23375 0.76107 0.25059 0.0
O372 O 0.23195 0.78471 0.28402 0.0
O373 O 0.27955 0.80561 0.27048 0.0
C374 C 0.30084 0.76014 0.28537 0.0
C375 C 0.22227 0.77416 0.26325 0.0
Zn376 Zn 0.4857 0.02479 0.54978 0.0
Zn377 Zn 0.5346 0.98836 0.52155 0.0
C378 C 0.51394 0.06523 0.57868 0.0
O379 O 0.51048 0.0513 0.59678 0.0
C380 C 0.50543 0.94802 0.49065 0.0
O381 O 0.4915 0.96335 0.48472 0.0
O382 O 0.45196 0.03205 0.54817 0.0
O383 O 0.49137 0.00776 0.51641 0.0
O384 O 0.52372 0.01084 0.49725 0.0
C385 C 0.44895 0.04983 0.53594 0.0
O386 O 0.46705 0.06122 0.52598 0.0
O387 O 0.5064 0.05708 0.55635 0.0
C388 C 0.5812 0.98183 0.51308 0.0
O389 O 0.56995 0.97516 0.49083 0.0
O390 O 0.57005 0.99069 0.52999 0.0
O391 O 0.51751 0.99413 0.5513 0.0
O392 O 0.49479 0.00525 0.57839 0.0
O393 O 0.52353 0.9548 0.50618 0.0
C394 C 0.50333 0.01665 0.49952 0.0
C395 C 0.51177 0.99432 0.5734 0.0
Zn396 Zn 0.2892 0.2461 0.7562 0.0
Zn397 Zn 0.24125 0.26921 0.78497 0.0
C398 C 0.27222 0.20894 0.71617 0.0
O399 O 0.27634 0.19471 0.7335 0.0
C400 C 0.27447 0.28891 0.8288 0.0
O401 O 0.28803 0.2985 0.81261 0.0
O402 O 0.32358 0.24243 0.75566 0.0
O403 O 0.28771 0.28165 0.75624 0.0
O404 O 0.25651 0.29691 0.76751 0.0
C405 C 0.34017 0.2603 0.75964 0.0
O406 O 0.33521 0.28117 0.76779 0.0
O407 O 0.27535 0.23141 0.72196 0.0
C408 C 0.19827 0.25489 0.80288 0.0
O409 O 0.21158 0.23954 0.81044 0.0
O410 O 0.20707 0.27119 0.78984 0.0
O411 O 0.23987 0.23599 0.7678 0.0
O412 O 0.27337 0.22587 0.78167 0.0
O413 O 0.25597 0.27396 0.82091 0.0
C414 C 0.27664 0.29929 0.75892 0.0
C415 C 0.25091 0.22149 0.77873 0.0
Zn416 Zn 0.02157 0.98257 0.51961 0.0
Zn417 Zn 0.00826 0.03042 0.51495 0.0
C418 C 0.05383 0.99559 0.5632 0.0
O419 O 0.06841 0.98957 0.54722 0.0
C420 C 0.976 0.02403 0.47294 0.0
O421 O 0.96641 0.03683 0.48943 0.0
O422 O 0.02617 0.94854 0.52175 0.0
O423 O 0.98649 0.98229 0.51189 0.0
O424 O 0.98505 0.01405 0.53725 0.0
C425 C 0.00849 0.93218 0.52239 0.0
O426 O 0.98716 0.93645 0.51582 0.0
O427 O 0.03218 0.99533 0.55567 0.0
C428 C 0.0191 0.07418 0.4976 0.0
O429 O 0.03112 0.06022 0.48508 0.0
O430 O 0.00652 0.06549 0.51411 0.0
O431 O 0.0435 0.03075 0.5218 0.0
O432 O 0.04419 0.99869 0.49684 0.0
O433 O 0.99561 0.01738 0.47935 0.0
C434 C 0.97511 0.99385 0.52647 0.0
C435 C 0.05413 0.01931 0.50636 0.0
Zn436 Zn 0.25443 0.78958 0.74917 0.0
Zn437 Zn 0.28643 0.73879 0.77568 0.0
C438 C 0.21085 0.75786 0.72976 0.0
O439 O 0.22425 0.74752 0.71516 0.0
C440 C 0.32202 0.75132 0.81506 0.0
O441 O 0.30748 0.73497 0.82457 0.0
O442 O 0.25125 0.82482 0.74935 0.0
O443 O 0.27156 0.78252 0.78139 0.0
O444 O 0.2617 0.74847 0.79713 0.0
C445 C 0.24055 0.83247 0.76736 0.0
O446 O 0.23503 0.81827 0.78478 0.0
O447 O 0.22047 0.7741 0.74663 0.0
C448 C 0.31016 0.69989 0.76627 0.0
O449 O 0.32598 0.71864 0.76362 0.0
O450 O 0.28978 0.70331 0.77202 0.0
O451 O 0.28242 0.75074 0.74201 0.0
O452 O 0.26913 0.77667 0.71888 0.0
O453 O 0.31672 0.75674 0.79317 0.0
C454 C 0.25997 0.77049 0.79659 0.0
C455 C 0.27967 0.75869 0.72085 0.0
Zn456 Zn 0.51796 0.02225 0.99676 0.0
Zn457 Zn 0.4973 0.99976 0.04216 0.0
C458 C 0.55834 0.04951 0.02582 0.0
O459 O 0.54691 0.06695 0.0202 0.0
C460 C 0.45628 0.96762 0.02745 0.0
O461 O 0.4684 0.95624 0.04286 0.0
O462 O 0.53054 0.02831 0.9634 0.0
O463 O 0.5036 0.98738 0.99225 0.0
O464 O 0.52028 0.98026 0.0283 0.0
C465 C 0.546 0.01497 0.95942 0.0
O466 O 0.55094 0.00058 0.97629 0.0
O467 O 0.54848 0.02798 0.01967 0.0
C468 C 0.47618 0.00496 0.0852 0.0
O469 O 0.46626 0.0183 0.07003 0.0
O470 O 0.49156 0.99306 0.07737 0.0
O471 O 0.50611 0.03533 0.04593 0.0
O472 O 0.49673 0.04535 0.00837 0.0
O473 O 0.46536 0.9884 0.0225 0.0
C474 C 0.51391 0.9738 0.00538 0.0
C475 C 0.49795 0.04965 0.03199 0.0
Zn476 Zn 0.27427 0.22925 0.24873 0.0
Zn477 Zn 0.24992 0.27787 0.27899 0.0
C478 C 0.31916 0.26058 0.24554 0.0
O479 O 0.30651 0.2734 0.23242 0.0
C480 C 0.21325 0.27593 0.3099 0.0
O481 O 0.23012 0.29143 0.32279 0.0
O482 O 0.27828 0.19507 0.23976 0.0
O483 O 0.2549 0.22802 0.27861 0.0
O484 O 0.27139 0.26123 0.30094 0.0
C485 C 0.28741 0.18672 0.25879 0.0
O486 O 0.291 0.20005 0.28019 0.0
O487 O 0.30868 0.24391 0.25698 0.0
C488 C 0.23902 0.32169 0.2727 0.0
O489 O 0.22351 0.30628 0.25799 0.0
O490 O 0.2546 0.31393 0.28655 0.0
O491 O 0.24998 0.27347 0.24129 0.0
O492 O 0.26119 0.24381 0.21888 0.0
O493 O 0.2172 0.26626 0.28892 0.0
C494 C 0.26415 0.23881 0.29944 0.0
C495 C 0.2528 0.26322 0.22021 0.0
Zn496 Zn 0.52632 0.48805 0.02528 0.0
Zn497 Zn 0.50575 0.5335 0.01372 0.0
C498 C 0.55975 0.50503 0.06697 0.0
O499 O 0.57392 0.4996 0.05026 0.0
C500 C 0.49063 0.49964 0.96424 0.0
O501 O 0.50625 0.48535 0.96768 0.0
O502 O 0.53239 0.4546 0.02857 0.0
O503 O 0.49066 0.48496 0.01899 0.0
O504 O 0.48631 0.51852 0.03976 0.0
C505 C 0.51624 0.4366 0.0227 0.0
O506 O 0.49667 0.43934 0.00969 0.0
O507 O 0.53769 0.50314 0.06036 0.0
C508 C 0.5076 0.5737 0.98942 0.0
O509 O 0.51781 0.55902 0.97554 0.0
O510 O 0.50014 0.56712 0.0098 0.0
O511 O 0.54153 0.5383 0.01784 0.0
O512 O 0.54757 0.50369 0.00095 0.0
O513 O 0.49009 0.51712 0.98028 0.0
C514 C 0.47807 0.497 0.03157 0.0
C515 C 0.55442 0.52601 0.00605 0.0
Zn516 Zn 0.75951 0.29253 0.25476 0.0
Zn517 Zn 0.77942 0.23483 0.27431 0.0
C518 C 0.71691 0.29004 0.22707 0.0
O519 O 0.7312 0.30675 0.21777 0.0
C520 C 0.81967 0.24402 0.30656 0.0
O521 O 0.80498 0.22843 0.31686 0.0
O522 O 0.75975 0.32868 0.25998 0.0
O523 O 0.7724 0.27852 0.28492 0.0
O524 O 0.7596 0.24583 0.30135 0.0
C525 C 0.74383 0.33428 0.27343 0.0
O526 O 0.73086 0.31736 0.28381 0.0
O527 O 0.72525 0.27879 0.24428 0.0
C528 C 0.79526 0.19377 0.25405 0.0
O529 O 0.805 0.21077 0.24123 0.0
O530 O 0.78139 0.19909 0.27013 0.0
O531 O 0.76672 0.24626 0.24185 0.0
O532 O 0.7781 0.28072 0.22746 0.0
O533 O 0.81277 0.25096 0.28576 0.0
C534 C 0.75981 0.26818 0.30037 0.0
C535 C 0.77911 0.25845 0.22738 0.0
Zn536 Zn 0.01457 0.52246 0.49478 0.0
Zn537 Zn 0.99794 0.50081 0.54005 0.0
C538 C 0.05631 0.55212 0.50999 0.0
O539 O 0.04371 0.56494 0.49677 0.0
C540 C 0.95867 0.46721 0.52342 0.0
O541 O 0.97216 0.45584 0.53742 0.0
O542 O 0.02395 0.52893 0.46053 0.0
O543 O 0.00282 0.48695 0.49127 0.0
O544 O 0.02145 0.48147 0.52687 0.0
C545 C 0.03904 0.51573 0.45481 0.0
O546 O 0.04452 0.50013 0.47008 0.0
O547 O 0.04663 0.53152 0.5149 0.0
C548 C 0.97449 0.5043 0.58119 0.0
O549 O 0.96491 0.51743 0.56553 0.0
O550 O 0.99101 0.4934 0.57457 0.0
O551 O 0.00652 0.53649 0.54439 0.0
O552 O 0.99316 0.54472 0.50736 0.0
O553 O 0.9662 0.48889 0.52002 0.0
C554 C 0.01416 0.47411 0.50434 0.0
C555 C 0.997 0.55023 0.53078 0.0
Zn556 Zn 0.791 0.74529 0.25948 0.0
Zn557 Zn 0.74058 0.7663 0.28469 0.0
C558 C 0.78471 0.70871 0.21922 0.0
O559 O 0.79969 0.70053 0.23474 0.0
C560 C 0.77134 0.78489 0.33066 0.0
O561 O 0.78689 0.79302 0.31558 0.0
O562 O 0.82609 0.74433 0.25996 0.0
O563 O 0.78874 0.78059 0.2587 0.0
O564 O 0.75654 0.79468 0.26873 0.0
C565 C 0.83433 0.751 0.24 0.0
O566 O 0.82024 0.75788 0.22258 0.0
O567 O 0.77702 0.72781 0.22599 0.0
C568 C 0.69554 0.74932 0.29658 0.0
O569 O 0.70827 0.73372 0.30469 0.0
O570 O 0.70558 0.76667 0.28566 0.0
O571 O 0.74276 0.73344 0.26854 0.0
O572 O 0.77609 0.72593 0.28603 0.0
O573 O 0.75225 0.77147 0.32152 0.0
C574 C 0.777 0.79777 0.26092 0.0
C575 C 0.75379 0.72034 0.28157 0.0
Zn576 Zn 0.75829 0.25752 0.79676 0.0
Zn577 Zn 0.77131 0.27199 0.74874 0.0
C578 C 0.72744 0.21534 0.78068 0.0
O579 O 0.71379 0.22817 0.79225 0.0
C580 C 0.80238 0.3136 0.76379 0.0
O581 O 0.813 0.30185 0.74734 0.0
O582 O 0.75362 0.24847 0.83131 0.0
O583 O 0.79323 0.26919 0.7965 0.0
O584 O 0.79529 0.25112 0.75938 0.0
C585 C 0.76836 0.23541 0.83873 0.0
O586 O 0.78579 0.23204 0.8253 0.0
O587 O 0.74874 0.2245 0.77847 0.0
C588 C 0.76018 0.29582 0.70854 0.0
O589 O 0.748 0.30366 0.72611 0.0
O590 O 0.7733 0.28034 0.71337 0.0
O591 O 0.73662 0.25976 0.74923 0.0
O592 O 0.73501 0.27894 0.78563 0.0
O593 O 0.7819 0.30425 0.76881 0.0
C594 C 0.80493 0.25898 0.78113 0.0
C595 C 0.72539 0.27135 0.76386 0.0
Zn596 Zn 0.77318 0.7307 0.7516 0.0
Zn597 Zn 0.75102 0.78109 0.78284 0.0
C598 C 0.81717 0.76233 0.74617 0.0
O599 O 0.80395 0.77384 0.73206 0.0
C600 C 0.70277 0.75597 0.78933 0.0
O601 O 0.70767 0.73713 0.77635 0.0
O602 O 0.77816 0.69687 0.74241 0.0
O603 O 0.75468 0.7287 0.78199 0.0
O604 O 0.76998 0.76196 0.80517 0.0
C605 C 0.7882 0.68878 0.76109 0.0
O606 O 0.79218 0.70211 0.7825 0.0
O607 O 0.80729 0.74651 0.75902 0.0
C608 C 0.76462 0.83 0.77224 0.0
O609 O 0.77134 0.81988 0.75189 0.0
O610 O 0.75912 0.81717 0.78987 0.0
O611 O 0.749 0.77448 0.74546 0.0
O612 O 0.75839 0.74446 0.72215 0.0
O613 O 0.71804 0.77492 0.79319 0.0
C614 C 0.76353 0.73936 0.80301 0.0
C615 C 0.75023 0.76397 0.72408 0.0
Zn616 Zn 0.54276 0.51098 0.53359 0.0
Zn617 Zn 0.49252 0.51165 0.50941 0.0
C618 C 0.54036 0.47313 0.56144 0.0
O619 O 0.55224 0.4917 0.57563 0.0
C620 C 0.49746 0.55146 0.48431 0.0
O621 O 0.48337 0.53489 0.46939 0.0
O622 O 0.57837 0.51298 0.541 0.0
O623 O 0.53922 0.51855 0.49749 0.0
O624 O 0.50734 0.49307 0.4826 0.0
C625 C 0.58591 0.49997 0.52408 0.0
O626 O 0.57106 0.48957 0.50518 0.0
O627 O 0.53218 0.47618 0.53943 0.0
C628 C 0.45127 0.52676 0.51984 0.0
O629 O 0.46783 0.53792 0.53681 0.0
O630 O 0.45693 0.51181 0.50339 0.0
O631 O 0.49624 0.50273 0.54489 0.0
O632 O 0.52683 0.53001 0.55899 0.0
O633 O 0.50555 0.54625 0.50551 0.0
C634 C 0.52747 0.50488 0.47948 0.0
C635 C 0.50704 0.51771 0.56238 0.0
Zn636 Zn 0.98622 0.51477 0.04159 0.0
Zn637 Zn 0.03912 0.50151 0.02467 0.0
C638 C 0.99386 0.5583 0.07076 0.0
O639 O 0.97752 0.54526 0.08177 0.0
C640 C 0.01972 0.46221 0.98893 0.0
O641 O 0.02614 0.47828 0.97355 0.0
O642 O 0.95099 0.51732 0.04116 0.0
O643 O 0.99164 0.50438 0.00661 0.0
O644 O 0.02668 0.52428 0.00165 0.0
C645 C 0.94333 0.5282 0.02316 0.0
O646 O 0.95767 0.53504 0.00643 0.0
O647 O 0.00242 0.54866 0.05222 0.0
C648 C 0.08052 0.48398 0.03757 0.0
O649 O 0.06484 0.47346 0.05121 0.0
O650 O 0.07417 0.49897 0.02305 0.0
O651 O 0.03468 0.5088 0.06101 0.0
O652 O 0.99777 0.49327 0.06613 0.0
O653 O 0.02287 0.46796 0.01238 0.0
C654 C 0.00471 0.51859 0.99462 0.0
C655 C 0.01986 0.49598 0.07266 0.0
C656 C 0.98823 0.18568 0.95326 0.0
C657 C 0.00479 0.19891 0.93993 0.0
C658 C 0.99334 0.16541 0.9644 0.0
C659 C 0.01583 0.15852 0.96273 0.0
C660 C 0.03259 0.17166 0.94904 0.0
C661 C 0.02674 0.1916 0.9375 0.0
C662 C 0.97469 0.15149 0.97818 0.0
C663 C 0.05686 0.16507 0.94722 0.0
C664 C 0.03018 0.11902 0.01354 0.0
C665 C 0.02294 0.09618 0.00096 0.0
C666 C 0.02955 0.13965 0.00087 0.0
C667 C 0.02133 0.13731 0.97514 0.0
C668 C 0.01549 0.11431 0.96206 0.0
C669 C 0.0165 0.09407 0.97508 0.0
C670 C 0.03636 0.16393 0.01535 0.0
C671 C 0.00651 0.11096 0.93468 0.0
H672 H 0.9712 0.19128 0.95504 0.0
H673 H 0.03967 0.20203 0.92746 0.0
H674 H 0.97103 0.13248 0.97039 0.0
H675 H 0.9812 0.15188 0.99817 0.0
H676 H 0.95783 0.15877 0.977 0.0
H677 H 0.06757 0.17661 0.93522 0.0
H678 H 0.06642 0.16676 0.96616 0.0
H679 H 0.05538 0.14614 0.93956 0.0
H680 H 0.03539 0.12082 0.03346 0.0
H681 H 0.01123 0.0765 0.96505 0.0
H682 H 0.02023 0.17198 0.01788 0.0
H683 H 0.04808 0.17614 0.00488 0.0
H684 H 0.04552 0.16286 0.03408 0.0
H685 H 0.98857 0.11589 0.93237 0.0
H686 H 0.00545 0.09218 0.92661 0.0
H687 H 0.01809 0.12284 0.92381 0.0
C688 C 0.09599 0.78984 0.19779 0.0
C689 C 0.09884 0.79379 0.17273 0.0
C690 C 0.11554 0.78917 0.21494 0.0
C691 C 0.13855 0.7926 0.20693 0.0
C692 C 0.1417 0.79794 0.18208 0.0
C693 C 0.12182 0.79844 0.16528 0.0
C694 C 0.11145 0.78341 0.24126 0.0
C695 C 0.166 0.80188 0.17287 0.0
C696 C 0.19301 0.8014 0.2541 0.0
C697 C 0.19932 0.77855 0.25196 0.0
C698 C 0.17301 0.8063 0.23982 0.0
C699 C 0.15893 0.78777 0.2235 0.0
C700 C 0.16471 0.76441 0.22228 0.0
C701 C 0.18495 0.76018 0.23632 0.0
C702 C 0.16759 0.83148 0.24133 0.0
C703 C 0.14995 0.74402 0.2055 0.0
H704 H 0.07837 0.78641 0.20389 0.0
H705 H 0.1243 0.80168 0.14606 0.0
H706 H 0.11557 0.76529 0.24398 0.0
H707 H 0.12342 0.79624 0.25502 0.0
H708 H 0.09288 0.78383 0.24535 0.0
H709 H 0.16575 0.8088 0.15417 0.0
H710 H 0.17846 0.81467 0.18621 0.0
H711 H 0.17296 0.78473 0.1716 0.0
H712 H 0.20436 0.81569 0.2659 0.0
H713 H 0.18985 0.74248 0.23472 0.0
H714 H 0.14879 0.83148 0.24459 0.0
H715 H 0.17039 0.8391 0.22329 0.0
H716 H 0.17898 0.84332 0.25644 0.0
H717 H 0.13115 0.74223 0.20948 0.0
H718 H 0.1561 0.72667 0.20785 0.0
H719 H 0.1507 0.74778 0.18568 0.0
C720 C 0.50695 0.83094 0.40114 0.0
C721 C 0.49776 0.81013 0.41165 0.0
C722 C 0.50574 0.85356 0.41292 0.0
C723 C 0.49467 0.85521 0.43537 0.0
C724 C 0.48395 0.83421 0.44506 0.0
C725 C 0.48586 0.81187 0.43321 0.0
C726 C 0.51761 0.87561 0.40222 0.0
C727 C 0.47158 0.83527 0.46867 0.0
C728 C 0.51828 0.90857 0.4819 0.0
C729 C 0.50161 0.92372 0.47756 0.0
C730 C 0.51607 0.88618 0.46835 0.0
C731 C 0.49661 0.87865 0.45016 0.0
C732 C 0.47937 0.89353 0.4461 0.0
C733 C 0.48212 0.91599 0.45982 0.0
C734 C 0.53485 0.87079 0.4732 0.0
C735 C 0.45823 0.88584 0.42708 0.0
H736 H 0.51618 0.82956 0.38447 0.0
H737 H 0.47849 0.79576 0.44119 0.0
H738 H 0.50539 0.88882 0.40058 0.0
H739 H 0.53323 0.88423 0.41503 0.0
H740 H 0.52358 0.87138 0.38354 0.0
H741 H 0.46155 0.81758 0.47185 0.0
H742 H 0.48484 0.84133 0.48494 0.0
H743 H 0.45919 0.84839 0.46793 0.0
H744 H 0.5334 0.91439 0.49557 0.0
H745 H 0.46915 0.92759 0.45641 0.0
H746 H 0.54322 0.86711 0.45579 0.0
H747 H 0.52671 0.85331 0.47898 0.0
H748 H 0.54889 0.87934 0.48798 0.0
H749 H 0.46423 0.88347 0.40814 0.0
H750 H 0.44587 0.89905 0.42695 0.0
H751 H 0.44846 0.8683 0.43098 0.0
C752 C 0.44608 0.26477 0.67553 0.0
C753 C 0.46805 0.26277 0.68778 0.0
C754 C 0.42552 0.26209 0.68808 0.0
C755 C 0.42694 0.25712 0.71343 0.0
C756 C 0.44885 0.25387 0.72552 0.0
C757 C 0.46918 0.25684 0.71257 0.0
C758 C 0.40247 0.26568 0.67452 0.0
C759 C 0.45101 0.24826 0.75242 0.0
C760 C 0.38066 0.27933 0.75139 0.0
C761 C 0.36368 0.25864 0.75084 0.0
C762 C 0.40165 0.27887 0.73993 0.0
C763 C 0.40586 0.25716 0.72773 0.0
C764 C 0.38934 0.23596 0.72811 0.0
C765 C 0.36841 0.23696 0.73962 0.0
C766 C 0.41884 0.30188 0.73996 0.0
C767 C 0.39332 0.21243 0.71552 0.0
H768 H 0.44507 0.26933 0.65637 0.0
H769 H 0.48609 0.25514 0.72212 0.0
H770 H 0.38844 0.25024 0.67608 0.0
H771 H 0.39667 0.28185 0.68328 0.0
H772 H 0.40403 0.26791 0.65441 0.0
H773 H 0.4687 0.24389 0.7583 0.0
H774 H 0.44805 0.26388 0.76473 0.0
H775 H 0.43729 0.23296 0.75538 0.0
H776 H 0.3772 0.29617 0.75999 0.0
H777 H 0.35541 0.22086 0.73913 0.0
H778 H 0.42002 0.30677 0.72053 0.0
H779 H 0.4368 0.29949 0.74743 0.0
H780 H 0.41351 0.31699 0.7513 0.0
H781 H 0.39244 0.21336 0.695 0.0
H782 H 0.37994 0.19722 0.71952 0.0
H783 H 0.4112 0.20879 0.72167 0.0
C784 C 0.01836 0.81407 0.58953 0.0
C785 C 0.00965 0.81564 0.61304 0.0
C786 C 0.02128 0.8338 0.57552 0.0
C787 C 0.01508 0.85557 0.58515 0.0
C788 C 0.00762 0.85774 0.60952 0.0
C789 C 0.00507 0.83766 0.6233 0.0
C790 C 0.02961 0.83086 0.54976 0.0
C791 C 1.00097 0.88079 0.62039 0.0
C792 C 0.03231 0.91067 0.55112 0.0
C793 C 0.01122 0.91125 0.53625 0.0
C794 C 0.03385 0.89275 0.56735 0.0
C795 C 0.01389 0.87499 0.56854 0.0
C796 C 0.99278 0.87514 0.55311 0.0
C797 C 0.99171 0.89327 0.53714 0.0
C798 C 0.05662 0.89309 0.58356 0.0
C799 C 0.97118 0.85633 0.55372 0.0
H800 H 0.0222 0.79716 0.58159 0.0
H801 H 0.9984 0.83891 0.64151 0.0
H802 H 0.01474 0.8314 0.53545 0.0
H803 H 0.0439 0.84578 0.54724 0.0
H804 H 0.03625 0.81368 0.54623 0.0
H805 H 0.99827 0.88044 0.64052 0.0
H806 H 0.01486 0.89617 0.61813 0.0
H807 H 0.98434 0.88389 0.61016 0.0
H808 H 0.04738 0.92468 0.55076 0.0
H809 H 0.97536 0.89367 0.52576 0.0
H810 H 0.06312 0.87583 0.58031 0.0
H811 H 0.0534 0.89524 0.60355 0.0
H812 H 0.0707 0.90783 0.57994 0.0
H813 H 0.97549 0.83831 0.54861 0.0
H814 H 0.95607 0.85919 0.54073 0.0
H815 H 0.96555 0.85641 0.57292 0.0
C816 C 0.45608 0.77807 0.86681 0.0
C817 C 0.46063 0.79182 0.88997 0.0
C818 C 0.4337 0.77479 0.85344 0.0
C819 C 0.41558 0.78575 0.86337 0.0
C820 C 0.4206 0.80123 0.88567 0.0
C821 C 0.44307 0.80399 0.8988 0.0
C822 C 0.42899 0.75814 0.82968 0.0
C823 C 0.40183 0.81363 0.89652 0.0
C824 C 0.35896 0.78166 0.82078 0.0
C825 C 0.34514 0.76152 0.82862 0.0
C826 C 0.38169 0.79042 0.83252 0.0
C827 C 0.39082 0.77846 0.85221 0.0
C828 C 0.3767 0.75848 0.86057 0.0
C829 C 0.35394 0.75038 0.8488 0.0
C830 C 0.39612 0.81203 0.82345 0.0
C831 C 0.38594 0.7451 0.8814 0.0
H832 H 0.46959 0.76873 0.85972 0.0
H833 H 0.44657 0.81499 0.91647 0.0
H834 H 0.41721 0.74151 0.83303 0.0
H835 H 0.41979 0.76647 0.81465 0.0
H836 H 0.44553 0.75322 0.823 0.0
H837 H 0.40947 0.82787 0.91158 0.0
H838 H 0.39193 0.82168 0.88177 0.0
H839 H 0.38894 0.80034 0.90446 0.0
H840 H 0.35211 0.79045 0.80529 0.0
H841 H 0.34334 0.73478 0.85489 0.0
H842 H 0.41143 0.80664 0.81451 0.0
H843 H 0.40331 0.82541 0.83941 0.0
H844 H 0.3856 0.82067 0.80969 0.0
H845 H 0.4016 0.73747 0.87587 0.0
H846 H 0.37246 0.7303 0.88608 0.0
H847 H 0.39174 0.75752 0.89846 0.0
C848 C 0.47532 0.17542 0.0993 0.0
C849 C 0.49797 0.18912 0.10187 0.0
C850 C 0.47172 0.15147 0.0889 0.0
C851 C 0.49128 0.14136 0.08114 0.0
C852 C 0.51432 0.1549 0.08511 0.0
C853 C 0.51733 0.17865 0.0953 0.0
C854 C 0.44695 0.13748 0.08499 0.0
C855 C 0.53574 0.14467 0.07759 0.0
C856 C 0.49335 0.07551 0.07011 0.0
C857 C 0.49278 0.07236 0.04393 0.0
C858 C 0.49102 0.09747 0.08245 0.0
C859 C 0.48812 0.11685 0.06831 0.0
C860 C 0.486 0.11345 0.04183 0.0
C861 C 0.48836 0.09116 0.0299 0.0
C862 C 0.49328 0.10034 0.11069 0.0
C863 C 0.48277 0.13376 0.02616 0.0
H864 H 0.46036 0.18378 0.10406 0.0
H865 H 0.53481 0.18945 0.09728 0.0
H866 H 0.441 0.13493 0.06473 0.0
H867 H 0.44652 0.11945 0.09164 0.0
H868 H 0.43421 0.14678 0.09479 0.0
H869 H 0.55251 0.15731 0.08301 0.0
H870 H 0.53689 0.12785 0.08641 0.0
H871 H 0.53408 0.14025 0.05705 0.0
H872 H 0.49648 0.06102 0.08118 0.0
H873 H 0.48767 0.0888 0.0097 0.0
H874 H 0.47848 0.10859 0.11757 0.0
H875 H 0.50995 0.1125 0.11769 0.0
H876 H 0.49345 0.08302 0.11885 0.0
H877 H 0.46857 0.14317 0.03273 0.0
H878 H 0.4783 0.12749 0.00605 0.0
H879 H 0.49936 0.14696 0.02813 0.0
C880 C 0.08141 0.26216 0.34953 0.0
C881 C 0.08172 0.25972 0.37519 0.0
C882 C 0.10199 0.26194 0.33725 0.0
C883 C 0.12312 0.25853 0.3509 0.0
C884 C 0.12298 0.2542 0.3764 0.0
C885 C 0.10234 0.25524 0.38836 0.0
C886 C 0.10154 0.2672 0.31022 0.0
C887 C 0.14497 0.2498 0.39142 0.0
C888 C 0.1759 0.24846 0.31544 0.0
C889 C 0.18981 0.27121 0.31934 0.0
C890 C 0.15413 0.24388 0.32577 0.0
C891 C 0.14595 0.26271 0.33956 0.0
C892 C 0.15974 0.28585 0.34287 0.0
C893 C 0.18166 0.2897 0.33304 0.0
C894 C 0.14018 0.21885 0.32246 0.0
C895 C 0.15142 0.30659 0.35689 0.0
H896 H 0.06548 0.26576 0.33935 0.0
H897 H 0.10251 0.25313 0.40818 0.0
H898 H 0.11195 0.28517 0.30897 0.0
H899 H 0.10987 0.25407 0.29918 0.0
H900 H 0.08326 0.26691 0.30159 0.0
H901 H 0.141 0.24309 0.40966 0.0
H902 H 0.15369 0.23665 0.38084 0.0
H903 H 0.15776 0.26673 0.39504 0.0
H904 H 0.18238 0.23413 0.30501 0.0
H905 H 0.19237 0.30736 0.33584 0.0
H906 H 0.1222 0.21895 0.31332 0.0
H907 H 0.13798 0.21208 0.34101 0.0
H908 H 0.14891 0.20626 0.31108 0.0
H909 H 0.13364 0.30876 0.34865 0.0
H910 H 0.16368 0.32371 0.35657 0.0
H911 H 0.14983 0.30298 0.37664 0.0
C912 C 0.93049 0.03016 0.18155 0.0
C913 C 0.93175 0.00881 0.1926 0.0
C914 C 0.94216 0.03513 0.16005 0.0
C915 C 0.95501 0.01818 0.14927 0.0
C916 C 0.95547 0.99625 0.15988 0.0
C917 C 0.94403 0.99195 0.18143 0.0
C918 C 0.94136 0.05875 0.14932 0.0
C919 C 0.96834 0.97735 0.14867 0.0
C920 C 0.9688 0.01527 0.08174 0.0
C921 C 0.99332 0.02352 0.08388 0.0
C922 C 0.95587 0.01488 0.10266 0.0
C923 C 0.96767 0.02276 0.12658 0.0
C924 C 0.99221 0.03219 0.12886 0.0
C925 C 0.00478 0.03247 0.10745 0.0
C926 C 0.92978 0.00475 0.0992 0.0
C927 C 0.00537 0.04102 0.15405 0.0
H928 H 0.92126 0.04335 0.19028 0.0
H929 H 0.94493 0.97534 0.18981 0.0
H930 H 0.95948 0.06922 0.15077 0.0
H931 H 0.9349 0.05579 0.1292 0.0
H932 H 0.92977 0.06954 0.15914 0.0
H933 H 0.96657 0.96105 0.15891 0.0
H934 H 0.96134 0.97212 0.12889 0.0
H935 H 0.98742 0.98464 0.14886 0.0
H936 H 0.95959 0.00855 0.06362 0.0
H937 H 0.02364 0.03905 0.1093 0.0
H938 H 0.91951 0.01671 0.10935 0.0
H939 H 0.9268 0.9872 0.1071 0.0
H940 H 0.92272 0.00215 0.0792 0.0
H941 H 0.99565 0.0534 0.16442 0.0
H942 H 0.02358 0.05037 0.15243 0.0
H943 H 0.00656 0.02565 0.16529 0.0
C944 C 0.2491 0.67695 0.46418 0.0
C945 C 0.26089 0.6574 0.46019 0.0
C946 C 0.24558 0.69191 0.44533 0.0
C947 C 0.25443 0.6874 0.42205 0.0
C948 C 0.26467 0.66656 0.41721 0.0
C949 C 0.26767 0.65161 0.43642 0.0
C950 C 0.23403 0.71358 0.45104 0.0
C951 C 0.27416 0.6611 0.39249 0.0
C952 C 0.23904 0.72444 0.36931 0.0
C953 C 0.25912 0.74236 0.37132 0.0
C954 C 0.23723 0.70629 0.38558 0.0
C955 C 0.25587 0.70616 0.40434 0.0
C956 C 0.27587 0.72454 0.40687 0.0
C957 C 0.27723 0.74241 0.39034 0.0
C958 C 0.21568 0.68696 0.38225 0.0
C959 C 0.29608 0.72508 0.42678 0.0
H960 H 0.24344 0.68118 0.48243 0.0
H961 H 0.2768 0.63647 0.43337 0.0
H962 H 0.24763 0.72995 0.45296 0.0
H963 H 0.22069 0.7154 0.43555 0.0
H964 H 0.22526 0.71271 0.46863 0.0
H965 H 0.27846 0.6427 0.39042 0.0
H966 H 0.2612 0.66317 0.37673 0.0
H967 H 0.29049 0.674 0.39102 0.0
H968 H 0.22507 0.72406 0.35444 0.0
H969 H 0.29282 0.75611 0.39193 0.0
H970 H 0.20784 0.68496 0.40025 0.0
H971 H 0.22092 0.66957 0.37623 0.0
H972 H 0.20193 0.69072 0.36809 0.0
H973 H 0.28953 0.7262 0.44556 0.0
H974 H 0.31047 0.74046 0.42604 0.0
H975 H 0.30361 0.70829 0.42456 0.0
C976 C 0.61088 0.99475 0.67953 0.0
C977 C 0.60595 0.9779 0.69671 0.0
C978 C 0.59721 0.99271 0.65646 0.0
C979 C 0.57845 0.97317 0.65052 0.0
C980 C 0.57552 0.95458 0.66653 0.0
C981 C 0.58908 0.95738 0.68974 0.0
C982 C 0.60095 0.01298 0.63996 0.0
C983 C 0.55633 0.93305 0.66055 0.0
C984 C 0.52391 0.99137 0.6183 0.0
C985 C 0.52631 0.98508 0.59313 0.0
C986 C 0.54026 0.9866 0.6372 0.0
C987 C 0.55932 0.97495 0.63078 0.0
C988 C 0.56089 0.96704 0.60553 0.0
C989 C 0.54441 0.97233 0.58694 0.0
C990 C 0.53786 0.99528 0.66394 0.0
C991 C 0.58042 0.9538 0.59812 0.0
H992 H 0.62368 0.0108 0.68521 0.0
H993 H 0.58515 0.94449 0.70323 0.0
H994 H 0.60043 0.006 0.6201 0.0
H995 H 0.58646 0.0237 0.64146 0.0
H996 H 0.61808 0.02502 0.64538 0.0
H997 H 0.56029 0.91781 0.67095 0.0
H998 H 0.53931 0.93774 0.666 0.0
H999 H 0.55398 0.92726 0.64025 0.0
H1000 H 0.50994 0.00117 0.6232 0.0
H1001 H 0.54616 0.96713 0.5675 0.0
H1002 H 0.55341 0.00895 0.67116 0.0
H1003 H 0.53746 0.98027 0.67592 0.0
H1004 H 0.52159 0.00329 0.66585 0.0
H1005 H 0.59779 0.96551 0.6028 0.0
H1006 H 0.57847 0.9478 0.57784 0.0
H1007 H 0.58064 0.93795 0.60883 0.0
C1008 C 0.28471 0.34639 0.97123 0.0
C1009 C 0.27351 0.36662 0.97169 0.0
C1010 C 0.28755 0.33372 0.9486 0.0
C1011 C 0.27847 0.34114 0.92586 0.0
C1012 C 0.2678 0.36203 0.92615 0.0
C1013 C 0.26567 0.3747 0.94911 0.0
C1014 C 0.29953 0.31191 0.9491 0.0
C1015 C 0.25768 0.37037 0.90229 0.0
C1016 C 0.29666 0.3177 0.86351 0.0
C1017 C 0.27735 0.29973 0.85506 0.0
C1018 C 0.29761 0.33092 0.88683 0.0
C1019 C 0.27874 0.32619 0.90195 0.0
C1020 C 0.25969 0.30743 0.89398 0.0
C1021 C 0.2593 0.29433 0.87073 0.0
C1022 C 0.31843 0.35048 0.89489 0.0
C1023 C 0.23919 0.30182 0.90955 0.0
H1024 H 0.291 0.34019 0.98865 0.0
H1025 H 0.2569 0.39027 0.94943 0.0
H1026 H 0.28644 0.29562 0.9428 0.0
H1027 H 0.31351 0.31292 0.93602 0.0
H1028 H 0.30763 0.3099 0.96807 0.0
H1029 H 0.25099 0.38755 0.90558 0.0
H1030 H 0.27129 0.37262 0.88885 0.0
H1031 H 0.24287 0.35662 0.8934 0.0
H1032 H 0.31071 0.32199 0.85158 0.0
H1033 H 0.24428 0.28054 0.8644 0.0
H1034 H 0.32612 0.34825 0.91394 0.0
H1035 H 0.31243 0.36814 0.89568 0.0
H1036 H 0.33251 0.35068 0.88194 0.0
H1037 H 0.2457 0.2979 0.92847 0.0
H1038 H 0.22603 0.2863 0.90098 0.0
H1039 H 0.23014 0.31762 0.9119 0.0
C1040 C 0.89837 0.0009 0.34018 0.0
C1041 C 0.91249 0.00904 0.32164 0.0
C1042 C 0.90833 0.00048 0.36482 0.0
C1043 C 0.93276 0.00918 0.37111 0.0
C1044 C 0.94708 0.01712 0.3523 0.0
C1045 C 0.93683 0.0166 0.32774 0.0
C1046 C 0.89265 0.99123 0.38423 0.0
C1047 C 0.97302 0.02721 0.35831 0.0
C1048 C 0.95262 0.03674 0.43722 0.0
C1049 C 0.96488 0.01958 0.44702 0.0
C1050 C 0.942 0.03346 0.41262 0.0
C1051 C 0.94304 0.01211 0.39764 0.0
C1052 C 0.95492 0.9944 0.40765 0.0
C1053 C 0.96609 0.99853 0.43217 0.0
C1054 C 0.93019 0.05313 0.40249 0.0
C1055 C 0.95583 0.97116 0.39244 0.0
H1056 H 0.87958 0.99481 0.33541 0.0
H1057 H 0.94778 0.02301 0.31344 0.0
H1058 H 0.90088 0.97814 0.39475 0.0
H1059 H 0.8906 0.00624 0.39789 0.0
H1060 H 0.8748 0.98254 0.37581 0.0
H1061 H 0.98186 0.03184 0.34137 0.0
H1062 H 0.97502 0.0436 0.37145 0.0
H1063 H 0.98234 0.01418 0.36768 0.0
H1064 H 0.95184 0.05313 0.44864 0.0
H1065 H 0.97538 0.98516 0.43988 0.0
H1066 H 0.91133 0.04623 0.39623 0.0
H1067 H 0.93877 0.0594 0.38597 0.0
H1068 H 0.9311 0.0687 0.41655 0.0
H1069 H 0.93767 0.96242 0.38513 0.0
H1070 H 0.96427 0.95855 0.40351 0.0
H1071 H 0.96592 0.97471 0.37609 0.0
C1072 C 0.31431 0.69281 0.59551 0.0
C1073 C 0.297 0.67248 0.58926 0.0
C1074 C 0.31601 0.7059 0.61894 0.0
C1075 C 0.29949 0.69882 0.6361 0.0
C1076 C 0.2835 0.677 0.63074 0.0
C1077 C 0.28262 0.66391 0.60738 0.0
C1078 C 0.33388 0.72857 0.62423 0.0
C1079 C 0.26549 0.66886 0.64844 0.0
C1080 C 0.30284 0.72943 0.70181 0.0
C1081 C 0.28699 0.74566 0.6987 0.0
C1082 C 0.3078 0.71459 0.68154 0.0
C1083 C 0.29641 0.71585 0.65756 0.0
C1084 C 0.28106 0.73285 0.65411 0.0
C1085 C 0.27665 0.74767 0.67471 0.0
C1086 C 0.32467 0.69714 0.68595 0.0
C1087 C 0.26852 0.73475 0.6288 0.0
H1088 H 0.32525 0.69956 0.58133 0.0
H1089 H 0.26892 0.64845 0.60232 0.0
H1090 H 0.32492 0.74423 0.62143 0.0
H1091 H 0.34183 0.73054 0.64388 0.0
H1092 H 0.34825 0.72896 0.61162 0.0
H1093 H 0.25645 0.65019 0.64308 0.0
H1094 H 0.27394 0.67006 0.66782 0.0
H1095 H 0.25191 0.68078 0.64835 0.0
H1096 H 0.31111 0.72804 0.72024 0.0
H1097 H 0.26432 0.76009 0.67219 0.0
H1098 H 0.33812 0.69862 0.67228 0.0
H1099 H 0.31482 0.67858 0.68318 0.0
H1100 H 0.33388 0.70012 0.70514 0.0
H1101 H 0.2816 0.73842 0.615 0.0
H1102 H 0.25744 0.74911 0.62919 0.0
H1103 H 0.257 0.71749 0.62212 0.0
C1104 C 0.63199 0.01475 0.84976 0.0
C1105 C 0.6192 0.00304 0.82784 0.0
C1106 C 0.6204 0.01972 0.87108 0.0
C1107 C 0.59562 0.01231 0.87048 0.0
C1108 C 0.58265 0.00095 0.84818 0.0
C1109 C 0.59458 0.99664 0.82711 0.0
C1110 C 0.63471 0.03225 0.89445 0.0
C1111 C 0.55631 0.99233 0.84688 0.0
C1112 C 0.56996 0.99553 0.93023 0.0
C1113 C 0.55838 0.01485 0.93646 0.0
C1114 C 0.5824 0.99476 0.90905 0.0
C1115 C 0.58355 0.01391 0.89374 0.0
C1116 C 0.57208 0.03363 0.89997 0.0
C1117 C 0.55942 0.03379 0.92123 0.0
C1118 C 0.594 0.97318 0.90285 0.0
C1119 C 0.57315 0.05444 0.88414 0.0
H1120 H 0.65099 0.01997 0.85026 0.0
H1121 H 0.5846 0.98759 0.81018 0.0
H1122 H 0.62639 0.04735 0.9019 0.0
H1123 H 0.63508 0.01962 0.90909 0.0
H1124 H 0.65323 0.03923 0.89106 0.0
H1125 H 0.54863 0.98518 0.82769 0.0
H1126 H 0.5527 0.97797 0.85952 0.0
H1127 H 0.54708 0.00711 0.85329 0.0
H1128 H 0.5691 0.98072 0.94181 0.0
H1129 H 0.55062 0.04881 0.9261 0.0
H1130 H 0.61322 0.97885 0.90175 0.0
H1131 H 0.58638 0.96421 0.8843 0.0
H1132 H 0.59165 0.95993 0.9169 0.0
H1133 H 0.59184 0.0618 0.88195 0.0
H1134 H 0.56449 0.06901 0.8923 0.0
H1135 H 0.56432 0.04829 0.86517 0.0
C1136 C 0.26711 0.35761 0.11949 0.0
C1137 C 0.25431 0.34939 0.09643 0.0
C1138 C 0.26426 0.3443 0.1403 0.0
C1139 C 0.24814 0.32243 0.13787 0.0
C1140 C 0.23386 0.31518 0.11509 0.0
C1141 C 0.23732 0.32862 0.09458 0.0
C1142 C 0.2798 0.35268 0.16428 0.0
C1143 C 0.21617 0.29228 0.11174 0.0
C1144 C 0.26348 0.27368 0.1779 0.0
C1145 C 0.24932 0.27605 0.19761 0.0
C1146 C 0.26307 0.28852 0.15825 0.0
C1147 C 0.24794 0.30599 0.15815 0.0
C1148 C 0.23286 0.30774 0.17744 0.0
C1149 C 0.23377 0.29279 0.19693 0.0
C1150 C 0.27942 0.28603 0.13801 0.0
C1151 C 0.21611 0.32572 0.17773 0.0
H1152 H 0.28061 0.3734 0.12073 0.0
H1153 H 0.22768 0.32212 0.07659 0.0
H1154 H 0.26905 0.35229 0.18045 0.0
H1155 H 0.29277 0.34037 0.16724 0.0
H1156 H 0.28965 0.37109 0.16399 0.0
H1157 H 0.20414 0.29102 0.09432 0.0
H1158 H 0.22572 0.27675 0.11089 0.0
H1159 H 0.20536 0.29085 0.12784 0.0
H1160 H 0.27568 0.26094 0.17837 0.0
H1161 H 0.22243 0.29439 0.2118 0.0
H1162 H 0.29186 0.30303 0.13785 0.0
H1163 H 0.26907 0.28244 0.11945 0.0
H1164 H 0.28986 0.27137 0.1406 0.0
H1165 H 0.22629 0.34409 0.17879 0.0
H1166 H 0.2051 0.32444 0.19372 0.0
H1167 H 0.20423 0.32299 0.16012 0.0
C1168 C 0.17298 0.90821 0.01743 0.0
C1169 C 0.19709 0.91757 0.01814 0.0
C1170 C 0.15634 0.92314 0.02259 0.0
C1171 C 0.16402 0.94803 0.02853 0.0
C1172 C 0.18848 0.95735 0.03069 0.0
C1173 C 0.20473 0.94201 0.02544 0.0
C1174 C 0.13042 0.91246 0.02033 0.0
C1175 C 0.19736 0.98372 0.0372 0.0
C1176 C 0.11911 0.98552 0.00608 0.0
C1177 C 0.10834 0.99046 0.02784 0.0
C1178 C 0.13803 0.97274 0.00641 0.0
C1179 C 0.1463 0.9645 0.02907 0.0
C1180 C 0.13638 0.97063 0.05145 0.0
C1181 C 0.11746 0.98367 0.05059 0.0
C1182 C 0.1482 0.96687 0.98214 0.0
C1183 C 0.14468 0.96216 0.07596 0.0
H1184 H 0.16697 0.88932 0.01205 0.0
H1185 H 0.22338 0.94936 0.02629 0.0
H1186 H 0.12205 0.91849 0.037 0.0
H1187 H 0.12124 0.91871 0.0038 0.0
H1188 H 0.12756 0.89258 0.01823 0.0
H1189 H 0.21691 0.98765 0.04128 0.0
H1190 H 0.19228 0.99378 0.02135 0.0
H1191 H 0.18913 0.99048 0.05366 0.0
H1192 H 0.11205 0.99083 0.98849 0.0
H1193 H 0.10889 0.98719 0.06736 0.0
H1194 H 0.1441 0.94729 0.97685 0.0
H1195 H 0.16774 0.97196 0.98435 0.0
H1196 H 0.14098 0.97614 0.96659 0.0
H1197 H 0.13794 0.94276 0.07593 0.0
H1198 H 0.13822 0.97176 0.0921 0.0
H1199 H 0.16428 0.9646 0.07858 0.0
C1200 C 0.66991 0.6044 0.9626 0.0
C1201 C 0.69003 0.6024 0.9783 0.0
C1202 C 0.64806 0.58985 0.96446 0.0
C1203 C 0.64612 0.57359 0.9831 0.0
C1204 C 0.66657 0.57105 0.99852 0.0
C1205 C 0.68834 0.58521 0.99565 0.0
C1206 C 0.62685 0.59261 0.94717 0.0
C1207 C 0.66521 0.55451 0.01912 0.0
C1208 C 0.58697 0.56119 0.01024 0.0
C1209 C 0.57788 0.53782 -0.0002 0.0
C1210 C 0.60907 0.57292 0.00488 0.0
C1211 C 0.62239 0.56121 0.98834 0.0
C1212 C 0.61325 0.53771 0.97747 0.0
C1213 C 0.59116 0.5262 0.98349 0.0
C1214 C 0.61825 0.59782 0.01721 0.0
C1215 C 0.62676 0.52479 0.95945 0.0
H1216 H 0.67119 0.61758 0.94908 0.0
H1217 H 0.70379 0.58378 0.00803 0.0
H1218 H 0.61722 0.57481 0.93922 0.0
H1219 H 0.61443 0.60153 0.95782 0.0
H1220 H 0.63191 0.60343 0.9316 0.0
H1221 H 0.68295 0.55332 0.02831 0.0
H1222 H 0.6544 0.56108 0.0335 0.0
H1223 H 0.65636 0.53628 0.0117 0.0
H1224 H 0.57692 0.57035 0.02292 0.0
H1225 H 0.58421 0.50821 0.97523 0.0
H1226 H 0.62119 0.61058 0.0028 0.0
H1227 H 0.63556 0.59811 0.02808 0.0
H1228 H 0.60588 0.60427 0.02997 0.0
H1229 H 0.63062 0.53565 0.94361 0.0
H1230 H 0.61687 0.50693 0.95192 0.0
H1231 H 0.644 0.52238 0.96888 0.0
C1232 C 0.664 0.4351 0.27634 0.0
C1233 C 0.67596 0.45866 0.28166 0.0
C1234 C 0.67654 0.4158 0.27356 0.0
C1235 C 0.70164 0.4201 0.27653 0.0
C1236 C 0.71376 0.44389 0.28146 0.0
C1237 C 0.70081 0.46285 0.28379 0.0
C1238 C 0.66292 0.39072 0.268 0.0
C1239 C 0.74044 0.44926 0.28526 0.0
C1240 C 0.73003 0.36783 0.29716 0.0
C1241 C 0.73706 0.35836 0.27476 0.0
C1242 C 0.71946 0.38851 0.29821 0.0
C1243 C 0.71511 0.39961 0.27605 0.0
C1244 C 0.72285 0.3905 0.25344 0.0
C1245 C 0.73399 0.37008 0.25312 0.0
C1246 C 0.71204 0.39773 0.32288 0.0
C1247 C 0.71831 0.40158 0.22936 0.0
H1248 H 0.64483 0.43171 0.27458 0.0
H1249 H 0.71023 0.48098 0.28801 0.0
H1250 H 0.66928 0.38158 0.25153 0.0
H1251 H 0.66599 0.38021 0.28408 0.0
H1252 H 0.64359 0.39052 0.2643 0.0
H1253 H 0.74724 0.46878 0.28775 0.0
H1254 H 0.74675 0.4411 0.30205 0.0
H1255 H 0.74815 0.44122 0.26909 0.0
H1256 H 0.73233 0.35868 0.31382 0.0
H1257 H 0.73898 0.36247 0.23566 0.0
H1258 H 0.69262 0.3926 0.32297 0.0
H1259 H 0.71627 0.41754 0.32575 0.0
H1260 H 0.72081 0.39023 0.33888 0.0
H1261 H 0.69897 0.39916 0.22401 0.0
H1262 H 0.72683 0.39347 0.2138 0.0
H1263 H 0.72492 0.42111 0.23185 0.0
C1264 C 0.82181 0.41684 0.49981 0.0
C1265 C 0.81671 0.39503 0.48477 0.0
C1266 C 0.84475 0.43005 0.50308 0.0
C1267 C 0.86292 0.42148 0.49061 0.0
C1268 C 0.85751 0.40037 0.47402 0.0
C1269 C 0.8345 0.38722 0.47151 0.0
C1270 C 0.84985 0.45224 0.52129 0.0
C1271 C 0.87631 0.39096 0.45997 0.0
C1272 C 0.92172 0.46369 0.49415 0.0
C1273 C 0.93455 0.4553 0.51387 0.0
C1274 C 0.89855 0.4524 0.48569 0.0
C1275 C 0.88795 0.43271 0.49769 0.0
C1276 C 0.90095 0.42418 0.51752 0.0
C1277 C 0.92413 0.43541 0.52516 0.0
C1278 C 0.88536 0.46163 0.46415 0.0
C1279 C 0.89017 0.40354 0.53118 0.0
H1280 H 0.80817 0.42302 0.51015 0.0
H1281 H 0.83059 0.37055 0.45959 0.0
H1282 H 0.861 0.44876 0.53796 0.0
H1283 H 0.85989 0.46732 0.51277 0.0
H1284 H 0.83343 0.45781 0.52756 0.0
H1285 H 0.86859 0.37662 0.44503 0.0
H1286 H 0.88701 0.40563 0.45144 0.0
H1287 H 0.88848 0.38353 0.47313 0.0
H1288 H 0.92981 0.47898 0.48527 0.0
H1289 H 0.9339 0.42892 0.54053 0.0
H1290 H 0.86983 0.46885 0.47064 0.0
H1291 H 0.87856 0.44678 0.44949 0.0
H1292 H 0.89666 0.47596 0.45571 0.0
H1293 H 0.87426 0.40799 0.53966 0.0
H1294 H 0.90272 0.3991 0.5462 0.0
H1295 H 0.88439 0.38738 0.51789 0.0
C1296 C 0.3412 0.06501 0.26128 0.0
C1297 C 0.36534 0.07184 0.2693 0.0
C1298 C 0.32704 0.08208 0.25517 0.0
C1299 C 0.3373 0.10653 0.25704 0.0
C1300 C 0.362 0.11331 0.26329 0.0
C1301 C 0.37573 0.09586 0.26944 0.0
C1302 C 0.30082 0.07413 0.24845 0.0
C1303 C 0.37364 0.1392 0.26514 0.0
C1304 C 0.30357 0.15453 0.23439 0.0
C1305 C 0.29681 0.164 0.25698 0.0
C1306 C 0.31615 0.13518 0.23381 0.0
C1307 C 0.32192 0.12522 0.25633 0.0
C1308 C 0.314 0.13398 0.27891 0.0
C1309 C 0.30157 0.15325 0.27893 0.0
C1310 C 0.32424 0.12624 0.2094 0.0
C1311 C 0.31954 0.12373 0.30332 0.0
H1312 H 0.33307 0.04642 0.26088 0.0
H1313 H 0.39442 0.10122 0.27533 0.0
H1314 H 0.29109 0.0795 0.26434 0.0
H1315 H 0.29457 0.08293 0.2321 0.0
H1316 H 0.29623 0.05442 0.24415 0.0
H1317 H 0.39326 0.14117 0.26702 0.0
H1318 H 0.36795 0.14782 0.24844 0.0
H1319 H 0.36812 0.14901 0.28169 0.0
H1320 H 0.30004 0.16292 0.21742 0.0
H1321 H 0.29618 0.16041 0.29641 0.0
H1322 H 0.32055 0.1064 0.20669 0.0
H1323 H 0.34366 0.13176 0.20972 0.0
H1324 H 0.31554 0.13347 0.19318 0.0
H1325 H 0.31358 0.10409 0.30141 0.0
H1326 H 0.31098 0.13176 0.31891 0.0
H1327 H 0.33895 0.12698 0.30837 0.0
C1328 C 0.31839 0.07749 0.49957 0.0
C1329 C 0.31716 0.10148 0.50671 0.0
C1330 C 0.3392 0.06805 0.50514 0.0
C1331 C 0.35893 0.08275 0.51896 0.0
C1332 C 0.35738 0.10674 0.52708 0.0
C1333 C 0.33665 0.11595 0.52046 0.0
C1334 C 0.34037 0.04266 0.49539 0.0
C1335 C 0.37776 0.12282 0.54242 0.0
C1336 C 0.40807 0.05267 0.5481 0.0
C1337 C 0.42551 0.05732 0.53163 0.0
C1338 C 0.38634 0.06103 0.54441 0.0
C1339 C 0.38174 0.07361 0.52333 0.0
C1340 C 0.39912 0.07775 0.50634 0.0
C1341 C 0.4209 0.06999 0.51097 0.0
C1342 C 0.36854 0.05687 0.56332 0.0
C1343 C 0.39473 0.09037 0.48319 0.0
H1344 H 0.30336 0.06632 0.4888 0.0
H1345 H 0.33561 0.13444 0.52621 0.0
H1346 H 0.35428 0.04267 0.48227 0.0
H1347 H 0.34533 0.03225 0.51097 0.0
H1348 H 0.32329 0.03339 0.4855 0.0
H1349 H 0.37289 0.14015 0.54939 0.0
H1350 H 0.38396 0.1138 0.55864 0.0
H1351 H 0.39285 0.12654 0.53095 0.0
H1352 H 0.41167 0.0431 0.56422 0.0
H1353 H 0.43429 0.07358 0.49811 0.0
H1354 H 0.35164 0.04656 0.55414 0.0
H1355 H 0.36468 0.07429 0.5713 0.0
H1356 H 0.37489 0.047 0.57882 0.0
H1357 H 0.37833 0.08112 0.472 0.0
H1358 H 0.40961 0.09105 0.47121 0.0
H1359 H 0.3921 0.10895 0.48855 0.0
C1360 C 0.6901 0.58774 0.29975 0.0
C1361 C 0.66903 0.58836 0.31112 0.0
C1362 C 0.70573 0.60886 0.29716 0.0
C1363 C 0.70048 0.63121 0.30657 0.0
C1364 C 0.68006 0.63184 0.31952 0.0
C1365 C 0.66448 0.61047 0.32144 0.0
C1366 C 0.72703 0.60734 0.28286 0.0
C1367 C 0.67407 0.65524 0.33026 0.0
C1368 C 0.7483 0.68658 0.30924 0.0
C1369 C 0.74104 0.69714 0.28791 0.0
C1370 C 0.73518 0.66525 0.31581 0.0
C1371 C 0.71472 0.65395 0.30032 0.0
C1372 C 0.70768 0.66436 0.2785 0.0
C1373 C 0.72073 0.68589 0.27276 0.0
C1374 C 0.74295 0.65502 0.33951 0.0
C1375 C 0.6863 0.65277 0.26114 0.0
H1376 H 0.69382 0.57083 0.29161 0.0
H1377 H 0.64839 0.61118 0.33043 0.0
H1378 H 0.72454 0.61524 0.26485 0.0
H1379 H 0.74321 0.61778 0.29342 0.0
H1380 H 0.72992 0.58859 0.27885 0.0
H1381 H 0.65888 0.6526 0.34179 0.0
H1382 H 0.6896 0.66575 0.34192 0.0
H1383 H 0.66959 0.66605 0.31485 0.0
H1384 H 0.76385 0.69535 0.32113 0.0
H1385 H 0.71508 0.69388 0.25616 0.0
H1386 H 0.74626 0.63649 0.33521 0.0
H1387 H 0.72864 0.65409 0.3522 0.0
H1388 H 0.75926 0.66589 0.34949 0.0
H1389 H 0.68806 0.6341 0.25489 0.0
H1390 H 0.68381 0.66261 0.24438 0.0
H1391 H 0.67013 0.65197 0.27115 0.0
C1392 C 0.8563 0.44943 0.79586 0.0
C1393 C 0.8769 0.45352 0.81252 0.0
C1394 C 0.84217 0.42681 0.79177 0.0
C1395 C 0.84843 0.40791 0.80512 0.0
C1396 C 0.86787 0.41249 0.82371 0.0
C1397 C 0.88211 0.4352 0.82697 0.0
C1398 C 0.82184 0.42265 0.77147 0.0
C1399 C 0.87465 0.39298 0.83888 0.0
C1400 C 0.80464 0.34957 0.79482 0.0
C1401 C 0.81437 0.33717 0.77576 0.0
C1402 C 0.81598 0.37231 0.80544 0.0
C1403 C 0.83729 0.38289 0.79648 0.0
C1404 C 0.84738 0.37016 0.77765 0.0
C1405 C 0.8359 0.34747 0.76768 0.0
C1406 C 0.80497 0.38519 0.82581 0.0
C1407 C 0.86997 0.38083 0.76737 0.0
H1408 H 0.85206 0.46346 0.78462 0.0
H1409 H 0.89779 0.43831 0.84016 0.0
H1410 H 0.82655 0.41166 0.75527 0.0
H1411 H 0.80577 0.41261 0.77811 0.0
H1412 H 0.81755 0.43967 0.76495 0.0
H1413 H 0.88702 0.40035 0.85557 0.0
H1414 H 0.85871 0.38222 0.84506 0.0
H1415 H 0.88342 0.38073 0.82717 0.0
H1416 H 0.78811 0.3416 0.80131 0.0
H1417 H 0.84365 0.338 0.75306 0.0
H1418 H 0.79819 0.40082 0.81859 0.0
H1419 H 0.81842 0.3921 0.84171 0.0
H1420 H 0.79007 0.37344 0.83278 0.0
H1421 H 0.86743 0.3975 0.75882 0.0
H1422 H 0.87567 0.36838 0.75302 0.0
H1423 H 0.88444 0.38567 0.78268 0.0
C1424 C 0.03139 0.85952 0.13211 0.0
C1425 C 0.02806 0.83711 0.11835 0.0
C1426 C 0.03213 0.88059 0.12002 0.0
C1427 C 0.02906 0.87914 0.09356 0.0
C1428 C 0.0256 0.85653 0.0796 0.0
C1429 C 0.02535 0.8358 0.09216 0.0
C1430 C 0.03623 0.90442 0.13556 0.0
C1431 C 0.02201 0.85424 0.05141 0.0
C1432 C 0.01099 0.93382 0.06571 0.0
C1433 C 0.03296 0.94604 0.06086 0.0
C1434 C 0.00928 0.91152 0.07562 0.0
C1435 C 0.03004 0.90138 0.08057 0.0
C1436 C 0.05206 0.91327 0.07444 0.0
C1437 C 0.05326 0.93559 0.06486 0.0
C1438 C 0.98552 0.89942 0.08199 0.0
C1439 C 0.07456 0.90303 0.07916 0.0
H1440 H 0.03351 0.86059 0.15235 0.0
H1441 H 0.02256 0.81848 0.08142 0.0
H1442 H 0.05233 0.91577 0.13046 0.0
H1443 H 0.02114 0.91403 0.13166 0.0
H1444 H 0.03839 0.90248 0.15592 0.0
H1445 H 0.01927 0.83531 0.04332 0.0
H1446 H 0.00642 0.86232 0.04514 0.0
H1447 H 0.03759 0.86419 0.04376 0.0
H1448 H 0.99543 0.94228 0.06304 0.0
H1449 H 0.07027 0.94536 0.06132 0.0
H1450 H 0.98562 0.89937 0.10257 0.0
H1451 H 0.98196 0.88049 0.07394 0.0
H1452 H 0.97087 0.90855 0.07505 0.0
H1453 H 0.07865 0.90243 0.09954 0.0
H1454 H 0.08992 0.91377 0.07181 0.0
H1455 H 0.07229 0.88441 0.07035 0.0
C1456 C 0.93671 0.25349 0.84136 0.0
C1457 C 0.93351 0.25136 0.86666 0.0
C1458 C 0.91723 0.25286 0.8236 0.0
C1459 C 0.89407 0.24972 0.83133 0.0
C1460 C 0.89072 0.24616 0.85657 0.0
C1461 C 0.91046 0.24721 0.87393 0.0
C1462 C 0.9215 0.25688 0.79691 0.0
C1463 C 0.8663 0.24237 0.86555 0.0
C1464 C 0.84423 0.27729 0.80175 0.0
C1465 C 0.82963 0.25724 0.78902 0.0
C1466 C 0.86621 0.27537 0.81394 0.0
C1467 C 0.87344 0.25267 0.81397 0.0
C1468 C 0.85932 0.23257 0.79989 0.0
C1469 C 0.83756 0.23516 0.78733 0.0
C1470 C 0.88089 0.29739 0.82821 0.0
C1471 C 0.86628 0.20805 0.79966 0.0
H1472 H 0.95448 0.25672 0.83561 0.0
H1473 H 0.90782 0.24522 0.89337 0.0
H1474 H 0.90955 0.24341 0.78377 0.0
H1475 H 0.91751 0.27476 0.79286 0.0
H1476 H 0.9401 0.25604 0.79321 0.0
H1477 H 0.86658 0.23747 0.8851 0.0
H1478 H 0.85856 0.25902 0.86457 0.0
H1479 H 0.85443 0.22804 0.85333 0.0
H1480 H 0.83801 0.29438 0.80296 0.0
H1481 H 0.82606 0.21963 0.77769 0.0
H1482 H 0.89965 0.29885 0.82415 0.0
H1483 H 0.88038 0.29597 0.84857 0.0
H1484 H 0.87433 0.31406 0.82361 0.0
H1485 H 0.88525 0.2089 0.79669 0.0
H1486 H 0.85549 0.19521 0.78493 0.0
H1487 H 0.86372 0.20105 0.81805 0.0
C1488 C 0.55516 0.20691 0.61042 0.0
C1489 C 0.53655 0.21584 0.62125 0.0
C1490 C 0.55389 0.18235 0.60394 0.0
C1491 C 0.53328 0.16646 0.60782 0.0
C1492 C 0.51453 0.17535 0.61901 0.0
C1493 C 0.51653 0.19997 0.62591 0.0
C1494 C 0.57446 0.17344 0.59268 0.0
C1495 C 0.49211 0.15895 0.62306 0.0
C1496 C 0.51708 0.10738 0.56777 0.0
C1497 C 0.52216 0.09112 0.58488 0.0
C1498 C 0.52115 0.13206 0.57484 0.0
C1499 C 0.53091 0.14063 0.59944 0.0
C1500 C 0.53735 0.12439 0.61633 0.0
C1501 C 0.53273 0.09978 0.60889 0.0
C1502 C 0.51391 0.14883 0.55636 0.0
C1503 C 0.5483 0.13295 0.64254 0.0
H1504 H 0.5708 0.21916 0.6071 0.0
H1505 H 0.5021 0.20689 0.63417 0.0
H1506 H 0.58028 0.15917 0.6034 0.0
H1507 H 0.5689 0.16546 0.57326 0.0
H1508 H 0.58979 0.18795 0.59237 0.0
H1509 H 0.47928 0.16867 0.63216 0.0
H1510 H 0.48353 0.14995 0.60485 0.0
H1511 H 0.49632 0.14475 0.63484 0.0
H1512 H 0.50881 0.1008 0.54922 0.0
H1513 H 0.53682 0.08727 0.62213 0.0
H1514 H 0.52901 0.16306 0.55432 0.0
H1515 H 0.49956 0.15774 0.56337 0.0
H1516 H 0.50754 0.1394 0.53763 0.0
H1517 H 0.56359 0.14743 0.64212 0.0
H1518 H 0.55435 0.11829 0.65251 0.0
H1519 H 0.53516 0.1405 0.6534 0.0
C1520 C 0.58381 0.75079 0.37047 0.0
C1521 C 0.56165 0.74386 0.35681 0.0
C1522 C 0.60475 0.75137 0.35877 0.0
C1523 C 0.60352 0.74502 0.33272 0.0
C1524 C 0.58121 0.73786 0.31882 0.0
C1525 C 0.5605 0.73728 0.33107 0.0
C1526 C 0.62822 0.75884 0.3743 0.0
C1527 C 0.57924 0.73092 0.29103 0.0
C1528 C 0.65906 0.76746 0.30225 0.0
C1529 C 0.67072 0.74758 0.30255 0.0
C1530 C 0.63666 0.76662 0.31116 0.0
C1531 C 0.6257 0.74536 0.32032 0.0
C1532 C 0.63687 0.72486 0.31935 0.0
C1533 C 0.65928 0.72626 0.31059 0.0
C1534 C 0.62524 0.78881 0.31185 0.0
C1535 C 0.62572 0.70179 0.32876 0.0
H1536 H 0.58481 0.75588 0.39037 0.0
H1537 H 0.54341 0.73203 0.32039 0.0
H1538 H 0.63888 0.74418 0.37294 0.0
H1539 H 0.63842 0.77463 0.36705 0.0
H1540 H 0.6261 0.76338 0.39432 0.0
H1541 H 0.56056 0.72598 0.28289 0.0
H1542 H 0.58797 0.74598 0.28142 0.0
H1543 H 0.58856 0.71554 0.28713 0.0
H1544 H 0.66783 0.78397 0.29608 0.0
H1545 H 0.66811 0.71075 0.31065 0.0
H1546 H 0.62463 0.79578 0.33155 0.0
H1547 H 0.60673 0.7845 0.30316 0.0
H1548 H 0.63501 0.80317 0.30204 0.0
H1549 H 0.62666 0.70403 0.34946 0.0
H1550 H 0.6348 0.68662 0.32317 0.0
H1551 H 0.60677 0.69713 0.32162 0.0
C1552 C 0.02975 0.21201 0.47366 0.0
C1553 C 0.01849 0.21474 0.45031 0.0
C1554 C 0.03015 0.18926 0.48175 0.0
C1555 C 0.01828 0.16888 0.46641 0.0
C1556 C 0.0067 0.17157 0.44282 0.0
C1557 C 0.00729 0.19457 0.43484 0.0
C1558 C 0.04335 0.18704 0.50662 0.0
C1559 C 0.99342 0.15024 0.42625 0.0
C1560 C 0.03661 0.10894 0.47626 0.0
C1561 C 0.01929 0.09888 0.49095 0.0
C1562 C 0.03651 0.13174 0.46823 0.0
C1563 C 0.01852 0.14471 0.47486 0.0
C1564 C 1.00107 0.13477 0.48987 0.0
C1565 C 0.00175 0.11195 0.49789 0.0
C1566 C 0.05564 0.14192 0.45261 0.0
C1567 C 0.98153 0.14809 0.49711 0.0
H1568 H 0.03848 0.22774 0.4855 0.0
H1569 H 0.99837 0.19685 0.4169 0.0
H1570 H 0.031 0.17833 0.51919 0.0
H1571 H 0.05703 0.17552 0.50397 0.0
H1572 H 0.05211 0.20467 0.516 0.0
H1573 H 0.98472 0.15549 0.40885 0.0
H1574 H 0.00571 0.13783 0.42109 0.0
H1575 H 0.97971 0.14022 0.4365 0.0
H1576 H 0.05032 0.09895 0.47095 0.0
H1577 H 0.98824 0.10414 0.50909 0.0
H1578 H 0.06514 0.15933 0.46177 0.0
H1579 H 0.04762 0.14533 0.4341 0.0
H1580 H 0.06873 0.12974 0.44966 0.0
H1581 H 0.98917 0.16539 0.50787 0.0
H1582 H 0.96914 0.13772 0.50858 0.0
H1583 H 0.97135 0.15221 0.48007 0.0
C1584 C 0.57799 0.2745 0.1808 0.0
C1585 C 0.57627 0.26867 0.15487 0.0
C1586 C 0.59982 0.27678 0.19532 0.0
C1587 C 0.62021 0.27274 0.18363 0.0
C1588 C 0.61832 0.26592 0.15765 0.0
C1589 C 0.59645 0.26417 0.14358 0.0
C1590 C 0.60125 0.28435 0.22293 0.0
C1591 C 0.63957 0.26114 0.14451 0.0
C1592 C 0.68157 0.30422 0.20793 0.0
C1593 C 0.6915 0.2858 0.21833 0.0
C1594 C 0.65793 0.30053 0.19789 0.0
C1595 C 0.64397 0.2777 0.19783 0.0
C1596 C 0.65361 0.25925 0.20919 0.0
C1597 C 0.67731 0.2636 0.21955 0.0
C1598 C 0.64823 0.32082 0.18639 0.0
C1599 C 0.63928 0.23464 0.20931 0.0
H1600 H 0.56242 0.27794 0.18963 0.0
H1601 H 0.59518 0.25924 0.12363 0.0
H1602 H 0.61027 0.27204 0.2338 0.0
H1603 H 0.61194 0.30248 0.22698 0.0
H1604 H 0.5835 0.28477 0.22956 0.0
H1605 H 0.63472 0.25407 0.12466 0.0
H1606 H 0.65244 0.27795 0.14512 0.0
H1607 H 0.64863 0.24808 0.15418 0.0
H1608 H 0.69239 0.32158 0.20741 0.0
H1609 H 0.68499 0.24938 0.22768 0.0
H1610 H 0.63111 0.3231 0.19362 0.0
H1611 H 0.64485 0.31661 0.16585 0.0
H1612 H 0.6606 0.33806 0.19025 0.0
H1613 H 0.62179 0.23589 0.21615 0.0
H1614 H 0.64845 0.2231 0.22115 0.0
H1615 H 0.63598 0.22585 0.18996 0.0
C1616 C 0.54683 0.86103 0.92526 0.0
C1617 C 0.53887 0.84031 0.93662 0.0
C1618 C 0.54442 0.88368 0.9362 0.0
C1619 C 0.53321 0.88537 0.95854 0.0
C1620 C 0.52522 0.8645 0.97006 0.0
C1621 C 0.52854 0.84227 0.95919 0.0
C1622 C 0.55366 0.90572 0.9238 0.0
C1623 C 0.5126 0.86554 0.99354 0.0
C1624 C 0.53972 0.94273 0.00109 0.0
C1625 C 0.51898 0.95127 0.99353 0.0
C1626 C 0.54514 0.92177 0.98907 0.0
C1627 C 0.52902 0.90881 0.96965 0.0
C1628 C 0.50799 0.9174 0.96202 0.0
C1629 C 0.5034 0.93877 0.97386 0.0
C1630 C 0.56799 0.9134 0.99722 0.0
C1631 C 0.49006 0.90369 0.94187 0.0
H1632 H 0.55498 0.85955 0.9079 0.0
H1633 H 0.52244 0.82636 0.96815 0.0
H1634 H 0.53874 0.91468 0.91736 0.0
H1635 H 0.56564 0.91872 0.93741 0.0
H1636 H 0.56339 0.90146 0.90749 0.0
H1637 H 0.50724 0.84755 -5e-05 0.0
H1638 H 0.52419 0.87688 0.00881 0.0
H1639 H 0.49653 0.87385 0.99018 0.0
H1640 H 0.55192 0.95271 0.01606 0.0
H1641 H 0.48732 0.94546 0.96809 0.0
H1642 H 0.57797 0.9103 0.98083 0.0
H1643 H 0.56412 0.89611 0.00548 0.0
H1644 H 0.57941 0.9265 0.01123 0.0
H1645 H 0.49848 0.9009 0.92432 0.0
H1646 H 0.47476 0.91304 0.93793 0.0
H1647 H 0.48337 0.88574 0.94762 0.0
C1648 C 0.92143 0.74497 0.66686 0.0
C1649 C 0.94448 0.75024 0.67865 0.0
C1650 C 0.90184 0.7463 0.68051 0.0
C1651 C 0.90546 0.75376 0.70644 0.0
C1652 C 0.92872 0.75866 0.71853 0.0
C1653 C 0.94797 0.75655 0.70452 0.0
C1654 C 0.87728 0.74029 0.66704 0.0
C1655 C 0.93333 0.76715 0.74599 0.0
C1656 C 0.85447 0.78123 0.73009 0.0
C1657 C 0.84196 0.76206 0.74083 0.0
C1658 C 0.87601 0.77926 0.72022 0.0
C1659 C 0.88488 0.75736 0.72049 0.0
C1660 C 0.87292 0.73836 0.73242 0.0
C1661 C 0.85176 0.74105 0.74274 0.0
C1662 C 0.88862 0.80019 0.7083 0.0
C1663 C 0.88152 0.71457 0.73272 0.0
H1664 H 0.91872 0.74002 0.64688 0.0
H1665 H 0.96582 0.76089 0.71365 0.0
H1666 H 0.86607 0.72698 0.67682 0.0
H1667 H 0.86888 0.75659 0.66712 0.0
H1668 H 0.87743 0.73297 0.64735 0.0
H1669 H 0.95234 0.76899 0.75286 0.0
H1670 H 0.92757 0.78479 0.74936 0.0
H1671 H 0.92288 0.75456 0.75717 0.0
H1672 H 0.84698 0.79749 0.72861 0.0
H1673 H 0.84206 0.72603 0.75076 0.0
H1674 H 0.88726 0.79591 0.68776 0.0
H1675 H 0.9077 0.80372 0.71508 0.0
H1676 H 0.88101 0.81675 0.71228 0.0
H1677 H 0.87958 0.7057 0.71342 0.0
H1678 H 0.87145 0.7024 0.74467 0.0
H1679 H 0.90056 0.71717 0.73951 0.0
C1680 C 0.11963 0.0018 0.87313 0.0
C1681 C 0.11129 0.01066 0.85114 0.0
C1682 C 0.10643 0.00114 0.89408 0.0
C1683 C 0.08459 0.00989 0.89309 0.0
C1684 C 0.07636 0.0192 0.87104 0.0
C1685 C 0.08968 0.01929 0.85036 0.0
C1686 C 0.11571 0.99089 0.91718 0.0
C1687 C 0.0535 0.02921 0.86931 0.0
C1688 C 0.03887 0.99243 0.9389 0.0
C1689 C 0.04378 0.01209 0.95698 0.0
C1690 C 0.05231 0.9912 0.91822 0.0
C1691 C 0.07071 0.0103 0.91535 0.0
C1692 C 0.07535 0.03036 0.93335 0.0
C1693 C 0.062 0.0309 0.95397 0.0
C1694 C 0.04705 0.96935 0.89962 0.0
C1695 C 0.09438 0.05137 0.93082 0.0
H1696 H 0.1362 0.9949 0.87379 0.0
H1697 H 0.08309 0.02621 0.83348 0.0
H1698 H 0.1186 0.00473 0.93331 0.0
H1699 H 0.10245 0.97595 0.92194 0.0
H1700 H 0.13261 0.98419 0.91477 0.0
H1701 H 0.04962 0.0359 0.85086 0.0
H1702 H 0.03856 0.01525 0.87252 0.0
H1703 H 0.05437 0.04416 0.88407 0.0
H1704 H 0.02503 0.97772 0.9413 0.0
H1705 H 0.06585 0.04622 0.96783 0.0
H1706 H 0.06318 0.96102 0.89825 0.0
H1707 H 0.04193 0.97456 0.8808 0.0
H1708 H 0.03259 0.95579 0.90479 0.0
H1709 H 0.11182 0.04536 0.93055 0.0
H1710 H 0.09556 0.06573 0.9463 0.0
H1711 H 0.09081 0.05903 0.91287 0.0
C1712 C 0.73785 0.32139 0.56746 0.0
C1713 C 0.7482 0.34422 0.56221 0.0
C1714 C 0.739 0.31474 0.59189 0.0
C1715 C 0.75129 0.33117 0.61143 0.0
C1716 C 0.76115 0.35455 0.60639 0.0
C1717 C 0.75925 0.36093 0.58175 0.0
C1718 C 0.72762 0.2899 0.59666 0.0
C1719 C 0.77438 0.37248 0.62686 0.0
C1720 C 0.73972 0.3174 0.67728 0.0
C1721 C 0.75839 0.30518 0.68386 0.0
C1722 C 0.73752 0.32654 0.654 0.0
C1723 C 0.75442 0.32341 0.63693 0.0
C1724 C 0.77357 0.31149 0.64363 0.0
C1725 C 0.77524 0.30234 0.66701 0.0
C1726 C 0.71658 0.33871 0.64745 0.0
C1727 C 0.79211 0.30814 0.62598 0.0
H1728 H 0.7291 0.30856 0.55232 0.0
H1729 H 0.76736 0.37854 0.57761 0.0
H1730 H 0.74142 0.27963 0.60334 0.0
H1731 H 0.71547 0.29095 0.61152 0.0
H1732 H 0.71749 0.27984 0.57964 0.0
H1733 H 0.78034 0.39015 0.62001 0.0
H1734 H 0.76298 0.37498 0.64218 0.0
H1735 H 0.79011 0.36561 0.63493 0.0
H1736 H 0.72652 0.31951 0.69018 0.0
H1737 H 0.78979 0.29308 0.67214 0.0
H1738 H 0.70311 0.32607 0.63502 0.0
H1739 H 0.72176 0.35466 0.63731 0.0
H1740 H 0.70828 0.34437 0.66434 0.0
H1741 H 0.78386 0.29652 0.60904 0.0
H1742 H 0.80669 0.29988 0.63464 0.0
H1743 H 0.79973 0.32564 0.6198 0.0
C1744 C 0.43289 0.05724 0.37837 0.0
C1745 C 0.42329 0.03583 0.36402 0.0
C1746 C 0.44557 0.05696 0.40174 0.0
C1747 C 0.44898 0.03476 0.41045 0.0
C1748 C 0.43864 0.01312 0.39618 0.0
C1749 C 0.42574 0.01397 0.37321 0.0
C1750 C 0.45584 0.08034 0.41677 0.0
C1751 C 0.44184 0.98904 0.40475 0.0
C1752 C 0.50145 0.02947 0.45598 0.0
C1753 C 0.49043 0.02498 0.47779 0.0
C1754 C 0.4883 0.03359 0.43408 0.0
C1755 C 0.4637 0.03385 0.4342 0.0
C1756 C 0.45275 0.03064 0.45648 0.0
C1757 C 0.46615 0.02589 0.47783 0.0
C1758 C 0.50044 0.03618 0.41042 0.0
C1759 C 0.42664 0.03118 0.45745 0.0
H1760 H 0.43106 0.07413 0.37099 0.0
H1761 H 0.41805 0.99749 0.36215 0.0
H1762 H 0.45014 0.08031 0.43594 0.0
H1763 H 0.47545 0.08253 0.41857 0.0
H1764 H 0.45042 0.09596 0.40807 0.0
H1765 H 0.43264 0.97394 0.39137 0.0
H1766 H 0.46095 0.98775 0.40705 0.0
H1767 H 0.43493 0.98698 0.4232 0.0
H1768 H 0.52013 0.02863 0.45563 0.0
H1769 H 0.45727 0.02183 0.49427 0.0
H1770 H 0.49678 0.05252 0.4019 0.0
H1771 H 0.49331 0.02067 0.39663 0.0
H1772 H 0.5199 0.0371 0.41376 0.0
H1773 H 0.42267 0.04888 0.45274 0.0
H1774 H 0.42071 0.02779 0.47612 0.0
H1775 H 0.41609 0.01752 0.44341 0.0
C1776 C 0.77433 0.68556 0.07219 0.0
C1777 C 0.76537 0.66203 0.06234 0.0
C1778 C 0.77751 0.69178 0.09807 0.0
C1779 C 0.77082 0.67421 0.11449 0.0
C1780 C 0.76173 0.65038 0.10464 0.0
C1781 C 0.75948 0.64447 0.07863 0.0
C1782 C 0.78796 0.71721 0.10781 0.0
C1783 C 0.75383 0.63131 0.12151 0.0
C1784 C 0.7973 0.68704 0.18198 0.0
C1785 C 0.78002 0.69804 0.19306 0.0
C1786 C 0.7944 0.67887 0.15651 0.0
C1787 C 0.77332 0.68099 0.14195 0.0
C1788 C 0.75533 0.6911 0.15334 0.0
C1789 C 0.75908 0.69991 0.17869 0.0
C1790 C 0.81433 0.66897 0.14497 0.0
C1791 C 0.73236 0.69309 0.13861 0.0
H1792 H 0.77903 0.69911 0.05959 0.0
H1793 H 0.75232 0.62633 0.07098 0.0
H1794 H 0.77482 0.72561 0.11785 0.0
H1795 H 0.80358 0.71735 0.12138 0.0
H1796 H 0.79348 0.72835 0.09262 0.0
H1797 H 0.74703 0.61368 0.11091 0.0
H1798 H 0.76874 0.62926 0.13512 0.0
H1799 H 0.73966 0.63675 0.13241 0.0
H1800 H 0.81361 0.68573 0.19299 0.0
H1801 H 0.74565 0.70829 0.18728 0.0
H1802 H 0.82105 0.68053 0.13059 0.0
H1803 H 0.80786 0.65084 0.13544 0.0
H1804 H 0.8293 0.66791 0.15901 0.0
H1805 H 0.73573 0.70609 0.1245 0.0
H1806 H 0.71927 0.69907 0.15073 0.0
H1807 H 0.72451 0.67558 0.12837 0.0
C1808 C 0.11379 0.0001 0.70359 0.0
C1809 C 0.1043 0.01621 0.71938 0.0
C1810 C 0.10628 0.99639 0.67784 0.0
C1811 C 0.08914 0.0093 0.66766 0.0
C1812 C 0.07994 0.02593 0.68343 0.0
C1813 C 0.08753 0.0291 0.709 0.0
C1814 C 0.11631 0.97832 0.66163 0.0
C1815 C 0.06188 0.04029 0.67332 0.0
C1816 C 0.0831 0.01583 0.59784 0.0
C1817 C 0.0622 0.99992 0.58993 0.0
C1818 C 0.09211 0.01909 0.62311 0.0
C1819 C 0.08041 0.00535 0.64061 0.0
C1820 C 0.05957 0.98878 0.63247 0.0
C1821 C 0.05047 0.98659 0.60727 0.0
C1822 C 0.11392 0.03744 0.63112 0.0
C1823 C 0.04696 0.9733 0.65036 0.0
H1824 H 0.12666 0.99001 0.71141 0.0
H1825 H 0.0802 0.04177 0.72091 0.0
H1826 H 0.10182 0.96405 0.65307 0.0
H1827 H 0.12468 0.987 0.64613 0.0
H1828 H 0.12967 0.96993 0.6723 0.0
H1829 H 0.05719 0.0532 0.68789 0.0
H1830 H 0.06878 0.05033 0.65792 0.0
H1831 H 0.04551 0.02809 0.66548 0.0
H1832 H 0.09221 0.02596 0.58427 0.0
H1833 H 0.03458 0.97388 0.60093 0.0
H1834 H 0.128 0.0288 0.64013 0.0
H1835 H 0.10975 0.05112 0.64519 0.0
H1836 H 0.12094 0.04661 0.61519 0.0
H1837 H 0.05954 0.96346 0.66027 0.0
H1838 H 0.032 0.96012 0.64072 0.0
H1839 H 0.04001 0.98468 0.66471 0.0
C1840 C 0.72069 0.35404 0.4111 0.0
C1841 C 0.73487 0.34975 0.4321 0.0
C1842 C 0.72075 0.34071 0.38794 0.0
C1843 C 0.73589 0.32334 0.38578 0.0
C1844 C 0.75034 0.31922 0.40699 0.0
C1845 C 0.74931 0.33216 0.42988 0.0
C1846 C 0.70423 0.3448 0.36609 0.0
C1847 C 0.76736 0.3015 0.40544 0.0
C1848 C 0.73299 0.2732 0.33425 0.0
C1849 C 0.75106 0.28287 0.32031 0.0
C1850 C 0.72633 0.28693 0.35455 0.0
C1851 C 0.73841 0.31058 0.36125 0.0
C1852 C 0.75586 0.32072 0.34646 0.0
C1853 C 0.76203 0.30673 0.32629 0.0
C1854 C 0.70714 0.27581 0.36951 0.0
C1855 C 0.76919 0.34584 0.3529 0.0
H1856 H 0.70915 0.36732 0.41294 0.0
H1857 H 0.7603 0.32874 0.44597 0.0
H1858 H 0.71313 0.34502 0.34864 0.0
H1859 H 0.68908 0.32984 0.36324 0.0
H1860 H 0.69719 0.36181 0.36927 0.0
H1861 H 0.77735 0.30045 0.42374 0.0
H1862 H 0.75763 0.2834 0.39873 0.0
H1863 H 0.78025 0.30667 0.3918 0.0
H1864 H 0.72437 0.25483 0.32957 0.0
H1865 H 0.77609 0.31434 0.31566 0.0
H1866 H 0.69454 0.28837 0.37299 0.0
H1867 H 0.71511 0.27214 0.38795 0.0
H1868 H 0.69721 0.25874 0.3599 0.0
H1869 H 0.75677 0.35854 0.35654 0.0
H1870 H 0.77996 0.35209 0.33777 0.0
H1871 H 0.78118 0.34639 0.37022 0.0
C1872 C 0.4621 0.01387 0.23096 0.0
C1873 C 0.43825 0.011 0.23575 0.0
C1874 C 0.46849 0.01208 0.20647 0.0
C1875 C 0.4506 0.00683 0.1863 0.0
C1876 C 0.42648 0.00348 0.19099 0.0
C1877 C 0.42057 0.00588 0.2157 0.0
C1878 C 0.49439 0.01631 0.20215 0.0
C1879 C 0.40695 0.99745 0.1699 0.0
C1880 C 0.46502 0.02623 0.12306 0.0
C1881 C 0.47019 0.00514 0.11114 0.0
C1882 C 0.45892 0.02708 0.14766 0.0
C1883 C 0.45717 0.00606 0.16027 0.0
C1884 C 0.46205 0.98456 0.14815 0.0
C1885 C 0.46894 0.98447 0.12376 0.0
C1886 C 0.45455 0.05051 0.16018 0.0
C1887 C 0.45971 0.96167 0.16083 0.0
H1888 H 0.47584 0.01796 0.24639 0.0
H1889 H 0.40212 0.0034 0.21933 0.0
H1890 H 0.49893 0.00048 0.19138 0.0
H1891 H 0.49814 0.03175 0.19089 0.0
H1892 H 0.50611 0.01997 0.21991 0.0
H1893 H 0.38915 0.99391 0.17678 0.0
H1894 H 0.40741 0.01245 0.15788 0.0
H1895 H 0.40964 0.98145 0.15798 0.0
H1896 H 0.4661 0.04223 0.11324 0.0
H1897 H 0.47271 0.96812 0.11432 0.0
H1898 H 0.4666 0.05548 0.17759 0.0
H1899 H 0.43618 0.04863 0.16553 0.0
H1900 H 0.45731 0.06534 0.14794 0.0
H1901 H 0.4721 0.96401 0.17805 0.0
H1902 H 0.46342 0.94634 0.14854 0.0
H1903 H 0.44154 0.95724 0.16655 0.0
C1904 C 0.7531 0.67535 0.92973 0.0
C1905 C 0.76486 0.65552 0.93001 0.0
C1906 C 0.75258 0.6888 0.90898 0.0
C1907 C 0.76474 0.68275 0.88819 0.0
C1908 C 0.77664 0.66268 0.88832 0.0
C1909 C 0.77628 0.64909 0.9091 0.0
C1910 C 0.73903 0.70953 0.90934 0.0
C1911 C 0.79019 0.65591 0.86675 0.0
C1912 C 0.74716 0.7046 0.82547 0.0
C1913 C 0.76378 0.72547 0.8252 0.0
C1914 C 0.7472 0.69066 0.84584 0.0
C1915 C 0.76471 0.69733 0.86627 0.0
C1916 C 0.78173 0.71827 0.866 0.0
C1917 C 0.78086 0.73228 0.84562 0.0
C1918 C 0.72831 0.66893 0.84561 0.0
C1919 C 0.801 0.72572 0.88714 0.0
H1920 H 0.74415 0.68036 0.94578 0.0
H1921 H 0.78561 0.63393 0.90935 0.0
H1922 H 0.75129 0.72647 0.90828 0.0
H1923 H 0.72582 0.70724 0.89278 0.0
H1924 H 0.72968 0.71127 0.92646 0.0
H1925 H 0.79881 0.64006 0.86984 0.0
H1926 H 0.77817 0.65194 0.84926 0.0
H1927 H 0.80401 0.67116 0.86389 0.0
H1928 H 0.7338 0.69929 0.8098 0.0
H1929 H 0.79389 0.74824 0.84537 0.0
H1930 H 0.71829 0.67058 0.86223 0.0
H1931 H 0.73656 0.65261 0.84668 0.0
H1932 H 0.71564 0.66648 0.82856 0.0
H1933 H 0.79308 0.72955 0.9048 0.0
H1934 H 0.81347 0.74187 0.88366 0.0
H1935 H 0.81115 0.71089 0.88992 0.0
C1936 C 0.82626 0.07509 0.02995 0.0
C1937 C 0.82961 0.09967 0.02706 0.0
C1938 C 0.84478 0.06183 0.02741 0.0
C1939 C 0.8672 0.07351 0.02217 0.0
C1940 C 0.87071 0.09838 0.0195 0.0
C1941 C 0.85186 0.11111 0.02185 0.0
C1942 C 0.84035 0.03533 0.03024 0.0
C1943 C 0.89446 0.11162 0.0143 0.0
C1944 C 0.9236 0.05022 0.04079 0.0
C1945 C 0.93005 0.04176 0.0176 0.0
C1946 C 0.90255 0.05941 0.04268 0.0
C1947 C 0.88749 0.06022 0.02079 0.0
C1948 C 0.89313 0.05031 0.99748 0.0
C1949 C 0.91442 0.0411 0.99615 0.0
C1950 C 0.89723 0.06958 0.06795 0.0
C1951 C 0.87735 0.05064 0.97379 0.0
H1952 H 0.80903 0.06608 0.03371 0.0
H1953 H 0.85455 0.1301 0.01955 0.0
H1954 H 0.84448 0.02523 0.01314 0.0
H1955 H 0.85222 0.03123 0.04603 0.0
H1956 H 0.82174 0.0288 0.03366 0.0
H1957 H 0.89415 0.13089 0.01236 0.0
H1958 H 0.90803 0.11012 0.0297 0.0
H1959 H 0.90007 0.10345 0.99687 0.0
H1960 H 0.93549 0.05041 0.05752 0.0
H1961 H 0.91937 0.03457 0.97822 0.0
H1962 H 0.87879 0.06265 0.07149 0.0
H1963 H 0.89896 0.08933 0.06832 0.0
H1964 H 0.90941 0.06525 0.08339 0.0
H1965 H 0.85866 0.04381 0.97654 0.0
H1966 H 0.88265 0.03975 0.95783 0.0
H1967 H 0.8782 0.06933 0.96886 0.0
C1968 C 0.36168 0.40983 0.05142 0.0
C1969 C 0.34039 0.41672 0.0425 0.0
C1970 C 0.38335 0.42524 0.05189 0.0
C1971 C 0.38389 0.44794 0.04262 0.0
C1972 C 0.36235 0.45536 0.03441 0.0
C1973 C 0.3408 0.43976 0.03473 0.0
C1974 C 0.40581 0.41675 0.06127 0.0
C1975 C 0.36217 0.47918 0.0239 0.0
C1976 C 0.44189 0.49198 0.05512 0.0
C1977 C 0.45321 0.48643 0.03389 0.0
C1978 C 0.41903 0.48001 0.05809 0.0
C1979 C 0.40711 0.46257 0.0391 0.0
C1980 C 0.41813 0.45785 0.01711 0.0
C1981 C 0.4411 0.4696 0.01493 0.0
C1982 C 0.40806 0.48526 0.08197 0.0
C1983 C 0.40595 0.43986 0.99611 0.0
H1984 H 0.36144 0.39213 0.05768 0.0
H1985 H 0.32441 0.44512 0.02765 0.0
H1986 H 0.41636 0.41347 0.04538 0.0
H1987 H 0.41682 0.43069 0.07471 0.0
H1988 H 0.40218 0.39996 0.07053 0.0
H1989 H 0.34398 0.48338 0.02074 0.0
H1990 H 0.37309 0.49377 0.03662 0.0
H1991 H 0.37008 0.47891 0.0058 0.0
H1992 H 0.45126 0.50492 0.06982 0.0
H1993 H 0.44968 0.46548 0.99831 0.0
H1994 H 0.40633 0.46919 0.09253 0.0
H1995 H 0.39 0.48939 0.07777 0.0
H1996 H 0.41879 0.50049 0.09408 0.0
H1997 H 0.40385 0.42163 0.0025 0.0
H1998 H 0.41601 0.43991 0.97937 0.0
H1999 H 0.38798 0.44365 0.99059 0.0
C2000 C 0.34977 0.57215 0.73136 0.0
C2001 C 0.36142 0.56534 0.75279 0.0
C2002 C 0.33907 0.59287 0.73254 0.0
C2003 C 0.33934 0.60644 0.75585 0.0
C2004 C 0.34999 0.5987 0.77771 0.0
C2005 C 0.36128 0.57854 0.77581 0.0
C2006 C 0.32844 0.60083 0.70874 0.0
C2007 C 0.35016 0.61215 0.80304 0.0
C2008 C 0.34006 0.67347 0.75827 0.0
C2009 C 0.31676 0.67562 0.76289 0.0
C2010 C 0.34735 0.65109 0.75546 0.0
C2011 C 0.33098 0.63008 0.75718 0.0
C2012 C 0.30729 0.63197 0.76148 0.0
C2013 C 0.30044 0.65475 0.76432 0.0
C2014 C 0.37282 0.65002 0.75109 0.0
C2015 C 0.28935 0.60998 0.76353 0.0
H2016 H 0.34987 0.56186 0.71358 0.0
H2017 H 0.36997 0.57298 0.79246 0.0
H2018 H 0.31007 0.60389 0.7108 0.0
H2019 H 0.33879 0.61811 0.70485 0.0
H2020 H 0.32824 0.58756 0.69243 0.0
H2021 H 0.35678 0.60233 0.81844 0.0
H2022 H 0.36164 0.62985 0.80376 0.0
H2023 H 0.33208 0.61544 0.80631 0.0
H2024 H 0.35287 0.6894 0.7571 0.0
H2025 H 0.28239 0.65622 0.7678 0.0
H2026 H 0.37363 0.63802 0.73405 0.0
H2027 H 0.38158 0.64248 0.76703 0.0
H2028 H 0.38302 0.66791 0.74897 0.0
H2029 H 0.28813 0.5974 0.74649 0.0
H2030 H 0.27148 0.61437 0.7661 0.0
H2031 H 0.29509 0.60051 0.77959 0.0
C2032 C 0.18245 0.62889 0.5309 0.0
C2033 C 0.20147 0.61753 0.52476 0.0
C2034 C 0.15965 0.61587 0.5309 0.0
C2035 C 0.15562 0.59086 0.52435 0.0
C2036 C 0.17488 0.57908 0.51914 0.0
C2037 C 0.19763 0.59255 0.5195 0.0
C2038 C 0.13965 0.62912 0.53678 0.0
C2039 C 0.17124 0.55246 0.51191 0.0
C2040 C 0.09514 0.55813 0.53643 0.0
C2041 C 0.08214 0.5595 0.51364 0.0
C2042 C 0.11947 0.56751 0.54007 0.0
C2043 C 0.13089 0.57782 0.52023 0.0
C2044 C 0.11797 0.57773 0.49672 0.0
C2045 C 0.09372 0.56889 0.49387 0.0
C2046 C 0.13265 0.56746 0.56542 0.0
C2047 C 0.12949 0.58791 0.47482 0.0
H2048 H 0.18528 0.64812 0.53534 0.0
H2049 H 0.21223 0.5836 0.51478 0.0
H2050 H 0.12749 0.62878 0.51963 0.0
H2051 H 0.12925 0.62024 0.55088 0.0
H2052 H 0.14608 0.64809 0.54395 0.0
H2053 H 0.18828 0.54557 0.51157 0.0
H2054 H 0.16036 0.54267 0.52507 0.0
H2055 H 0.1615 0.54843 0.49305 0.0
H2056 H 0.0861 0.55076 0.55165 0.0
H2057 H 0.08367 0.56952 0.47609 0.0
H2058 H 0.13731 0.58607 0.57431 0.0
H2059 H 0.14946 0.56045 0.56359 0.0
H2060 H 0.12199 0.55655 0.57799 0.0
H2061 H 0.13459 0.60758 0.47872 0.0
H2062 H 0.11755 0.58411 0.45721 0.0
H2063 H 0.14587 0.58041 0.47196 0.0
C2064 C 0.67715 0.92154 0.76337 0.0
C2065 C 0.68649 0.94592 0.76427 0.0
C2066 C 0.69205 0.90421 0.76423 0.0
C2067 C 0.71692 0.91148 0.76656 0.0
C2068 C 0.72645 0.93607 0.76725 0.0
C2069 C 0.71111 0.953 0.76586 0.0
C2070 C 0.68118 0.87811 0.76283 0.0
C2071 C 0.75284 0.94451 0.76987 0.0
C2072 C 0.75053 0.86535 0.79331 0.0
C2073 C 0.75675 0.8536 0.77158 0.0
C2074 C 0.7388 0.8852 0.79209 0.0
C2075 C 0.73279 0.89322 0.76855 0.0
C2076 C 0.74024 0.88231 0.74673 0.0
C2077 C 0.75226 0.86273 0.74853 0.0
C2078 C 0.73173 0.89679 0.81587 0.0
C2079 C 0.73408 0.89008 0.72121 0.0
H2080 H 0.65813 0.91598 0.76203 0.0
H2081 H 0.71843 0.97185 0.76671 0.0
H2082 H 0.68776 0.86794 0.74719 0.0
H2083 H 0.68654 0.87044 0.78029 0.0
H2084 H 0.66155 0.87537 0.76008 0.0
H2085 H 0.75743 0.96425 0.76998 0.0
H2086 H 0.76084 0.93902 0.78749 0.0
H2087 H 0.76098 0.93599 0.75428 0.0
H2088 H 0.75404 0.85847 0.81118 0.0
H2089 H 0.75682 0.85371 0.73157 0.0
H2090 H 0.71225 0.89266 0.81615 0.0
H2091 H 0.73665 0.91653 0.81676 0.0
H2092 H 0.74017 0.89042 0.8328 0.0
H2093 H 0.73598 0.90983 0.72166 0.0
H2094 H 0.71533 0.88259 0.7149 0.0
H2095 H 0.74535 0.88365 0.7072 0.0
C2096 C 0.6852 0.90853 0.5396 0.0
C2097 C 0.70814 0.92154 0.54071 0.0
C2098 C 0.66527 0.92004 0.53748 0.0
C2099 C 0.66831 0.94507 0.53575 0.0
C2100 C 0.69147 0.95837 0.53751 0.0
C2101 C 0.71111 0.94648 0.54024 0.0
C2102 C 0.64091 0.90529 0.5364 0.0
C2103 C 0.69549 0.98502 0.53556 0.0
C2104 C 0.61709 0.96637 0.49981 0.0
C2105 C 0.60502 0.97544 0.51905 0.0
C2106 C 0.63809 0.95722 0.50503 0.0
C2107 C 0.64728 0.95692 0.53016 0.0
C2108 C 0.63575 0.96698 0.54967 0.0
C2109 C 0.61478 0.97617 0.54388 0.0
C2110 C 0.65002 0.94715 0.4836 0.0
C2111 C 0.64477 0.96699 0.57675 0.0
H2112 H 0.68281 0.88928 0.54015 0.0
H2113 H 0.7288 0.95664 0.54098 0.0
H2114 H 0.63046 0.9132 0.55033 0.0
H2115 H 0.63139 0.90541 0.51768 0.0
H2116 H 0.64158 0.88642 0.54004 0.0
H2117 H 0.71454 0.99297 0.53851 0.0
H2118 H 0.68833 0.98877 0.51681 0.0
H2119 H 0.68587 0.99404 0.54953 0.0
H2120 H 0.60981 0.96585 0.48056 0.0
H2121 H 0.60559 0.98312 0.55888 0.0
H2122 H 0.64924 0.92759 0.4844 0.0
H2123 H 0.66898 0.95533 0.48511 0.0
H2124 H 0.6416 0.95026 0.46513 0.0
H2125 H 0.63892 0.94907 0.58303 0.0
H2126 H 0.63779 0.98046 0.58888 0.0
H2127 H 0.66438 0.97069 0.57944 0.0
C2128 C 0.36912 0.41757 0.77428 0.0
C2129 C 0.36694 0.43467 0.75719 0.0
C2130 C 0.35268 0.39638 0.77305 0.0
C2131 C 0.33369 0.39182 0.75395 0.0
C2132 C 0.33129 0.40901 0.73663 0.0
C2133 C 0.34781 0.43037 0.73862 0.0
C2134 C 0.35572 0.3788 0.7922 0.0
C2135 C 0.31151 0.40466 0.71579 0.0
C2136 C 0.30851 0.32569 0.74043 0.0
C2137 C 0.28885 0.32342 0.75441 0.0
C2138 C 0.32247 0.34806 0.73895 0.0
C2139 C 0.31685 0.36874 0.75201 0.0
C2140 C 0.2964 0.36675 0.76522 0.0
C2141 C 0.28257 0.34415 0.76613 0.0
C2142 C 0.34393 0.34933 0.72444 0.0
C2143 C 0.28994 0.38826 0.77966 0.0
H2144 H 0.38364 0.42086 0.78893 0.0
H2145 H 0.34601 0.44347 0.72533 0.0
H2146 H 0.33938 0.37503 0.80182 0.0
H2147 H 0.35869 0.36159 0.7828 0.0
H2148 H 0.37083 0.38548 0.80649 0.0
H2149 H 0.31183 0.41993 0.7041 0.0
H2150 H 0.31291 0.38834 0.70365 0.0
H2151 H 0.29415 0.40145 0.7236 0.0
H2152 H 0.31343 0.30981 0.73116 0.0
H2153 H 0.26753 0.34259 0.77713 0.0
H2154 H 0.36022 0.35343 0.73758 0.0
H2155 H 0.34435 0.36394 0.71191 0.0
H2156 H 0.34433 0.33227 0.71303 0.0
H2157 H 0.30339 0.39436 0.79576 0.0
H2158 H 0.27231 0.38425 0.78684 0.0
H2159 H 0.28989 0.40331 0.76776 0.0
C2160 C 0.18267 0.5783 0.2585 0.0
C2161 C 0.16171 0.57695 0.27032 0.0
C2162 C 0.19858 0.59986 0.25979 0.0
C2163 C 0.19358 0.62039 0.2736 0.0
C2164 C 0.17235 0.6192 0.28537 0.0
C2165 C 0.15657 0.59754 0.2834 0.0
C2166 C 0.22088 0.6006 0.2467 0.0
C2167 C 0.16657 0.64067 0.30055 0.0
C2168 C 0.24263 0.67033 0.30107 0.0
C2169 C 0.23953 0.68836 0.28539 0.0
C2170 C 0.22835 0.64776 0.2969 0.0
C2171 C 0.21074 0.64307 0.2764 0.0
C2172 C 0.20839 0.66076 0.25973 0.0
C2173 C 0.22277 0.68326 0.26448 0.0
C2174 C 0.23128 0.62942 0.31522 0.0
C2175 C 0.18993 0.65633 0.23756 0.0
H2176 H 0.18667 0.56246 0.24825 0.0
H2177 H 0.14051 0.59657 0.29277 0.0
H2178 H 0.22218 0.61506 0.23396 0.0
H2179 H 0.23658 0.60474 0.26066 0.0
H2180 H 0.22158 0.58339 0.23571 0.0
H2181 H 0.14919 0.63683 0.30829 0.0
H2182 H 0.18048 0.64656 0.31628 0.0
H2183 H 0.1663 0.65583 0.28882 0.0
H2184 H 0.25547 0.67417 0.31733 0.0
H2185 H 0.22035 0.6971 0.25223 0.0
H2186 H 0.23303 0.61207 0.30519 0.0
H2187 H 0.21531 0.62631 0.32553 0.0
H2188 H 0.24698 0.63518 0.32901 0.0
H2189 H 0.19099 0.63928 0.22653 0.0
H2190 H 0.19191 0.67103 0.22509 0.0
H2191 H 0.17202 0.65465 0.24419 0.0
C2192 C 0.51347 0.67264 0.41808 0.0
C2193 C 0.50832 0.69105 0.43458 0.0
C2194 C 0.51592 0.65022 0.42634 0.0
C2195 C 0.51301 0.6462 0.45158 0.0
C2196 C 0.50953 0.66523 0.46864 0.0
C2197 C 0.50732 0.6874 0.45997 0.0
C2198 C 0.52009 0.63042 0.40772 0.0
C2199 C 0.50622 0.6617 0.4957 0.0
C2200 C 0.48326 0.585 0.46485 0.0
C2201 C 0.50198 0.57586 0.47675 0.0
C2202 C 0.48676 0.60781 0.45644 0.0
C2203 C 0.50976 0.62152 0.45937 0.0
C2204 C 0.5289 0.61216 0.47099 0.0
C2205 C 0.52469 0.58945 0.47996 0.0
C2206 C 0.46572 0.61735 0.44481 0.0
C2207 C 0.55372 0.62607 0.47381 0.0
H2208 H 0.51457 0.67537 0.39852 0.0
H2209 H 0.50386 0.70163 0.47305 0.0
H2210 H 0.53353 0.62043 0.41582 0.0
H2211 H 0.50342 0.61755 0.40295 0.0
H2212 H 0.52603 0.63737 0.3902 0.0
H2213 H 0.5064 0.6789 0.5071 0.0
H2214 H 0.48901 0.65006 0.49685 0.0
H2215 H 0.52028 0.65262 0.50403 0.0
H2216 H 0.46568 0.57438 0.46247 0.0
H2217 H 0.53919 0.58206 0.48885 0.0
H2218 H 0.46877 0.62184 0.42558 0.0
H2219 H 0.4634 0.63405 0.45577 0.0
H2220 H 0.44904 0.60434 0.44398 0.0
H2221 H 0.55891 0.6311 0.45533 0.0
H2222 H 0.56682 0.61571 0.48202 0.0
H2223 H 0.55447 0.64291 0.48594 0.0
C2224 C 0.5965 0.29067 0.70861 0.0
C2225 C 0.59925 0.30041 0.68566 0.0
C2226 C 0.61624 0.28801 0.72465 0.0
C2227 C 0.63926 0.29539 0.71768 0.0
C2228 C 0.64216 0.3068 0.69546 0.0
C2229 C 0.62214 0.30915 0.67972 0.0
C2230 C 0.6124 0.27571 0.74814 0.0
C2231 C 0.66643 0.31512 0.68745 0.0
C2232 C 0.69413 0.29753 0.76299 0.0
C2233 C 0.70197 0.27642 0.75465 0.0
C2234 C 0.67337 0.30381 0.75156 0.0
C2235 C 0.66011 0.2884 0.73167 0.0
C2236 C 0.66743 0.26649 0.7241 0.0
C2237 C 0.68835 0.26088 0.73555 0.0
C2238 C 0.66621 0.32738 0.75999 0.0
C2239 C 0.65361 0.24931 0.70328 0.0
H2240 H 0.57894 0.28393 0.71351 0.0
H2241 H 0.62451 0.31692 0.66219 0.0
H2242 H 0.61702 0.25748 0.74566 0.0
H2243 H 0.62409 0.28556 0.76425 0.0
H2244 H 0.59375 0.27408 0.7527 0.0
H2245 H 0.6657 0.32619 0.67141 0.0
H2246 H 0.67809 0.32568 0.70317 0.0
H2247 H 0.67469 0.29936 0.68185 0.0
H2248 H 0.70478 0.30964 0.77763 0.0
H2249 H 0.6943 0.24443 0.72922 0.0
H2250 H 0.64732 0.32472 0.76371 0.0
H2251 H 0.66818 0.33952 0.7449 0.0
H2252 H 0.67713 0.33628 0.7771 0.0
H2253 H 0.6348 0.24502 0.70707 0.0
H2254 H 0.66083 0.23233 0.70085 0.0
H2255 H 0.65402 0.25776 0.68543 0.0
C2256 C 0.98686 0.32384 0.93541 0.0
C2257 C 0.00262 0.32058 0.91744 0.0
C2258 C 0.98615 0.34671 0.94692 0.0
C2259 C 0.0023 0.36648 0.94104 0.0
C2260 C 0.01793 0.36327 0.92251 0.0
C2261 C 0.01757 0.34036 0.91057 0.0
C2262 C 0.96855 0.3496 0.96577 0.0
C2263 C 0.03587 0.38377 0.91619 0.0
C2264 C 0.997 0.43149 0.95693 0.0
C2265 C 0.01226 0.43713 0.97891 0.0
C2266 C 0.99227 0.40807 0.94525 0.0
C2267 C 0.00399 0.39029 0.95523 0.0
C2268 C 0.01894 0.39584 0.97785 0.0
C2269 C 0.02253 0.41916 0.9897 0.0
C2270 C 0.97544 0.4026 0.92177 0.0
C2271 C 0.03233 0.3776 0.9887 0.0
H2272 H 0.97519 0.30847 0.94055 0.0
H2273 H 0.02989 0.33772 0.89682 0.0
H2274 H 0.97797 0.354 0.98474 0.0
H2275 H 0.95904 0.36463 0.9617 0.0
H2276 H 0.95536 0.33309 0.96592 0.0
H2277 H 0.04668 0.37826 0.90128 0.0
H2278 H 0.02685 0.39846 0.90996 0.0
H2279 H 0.04791 0.39109 0.93312 0.0
H2280 H 0.98904 0.4455 0.9487 0.0
H2281 H 0.03458 0.42371 0.00655 0.0
H2282 H 0.96286 0.38584 0.92277 0.0
H2283 H 0.98551 0.39984 0.9054 0.0
H2284 H 0.96522 0.41733 0.91859 0.0
H2285 H 0.01995 0.36124 0.99157 0.0
H2286 H 0.04264 0.38458 0.00682 0.0
H2287 H 0.04472 0.37226 0.97538 0.0
C2288 C 0.96643 0.75034 0.20047 0.0
C2289 C 0.96739 0.76428 0.18015 0.0
C2290 C 0.94569 0.74594 0.21268 0.0
C2291 C 0.92585 0.7564 0.20482 0.0
C2292 C 0.92696 0.77081 0.18455 0.0
C2293 C 0.94759 0.77425 0.17223 0.0
C2294 C 0.94488 0.72992 0.23372 0.0
C2295 C 0.90641 0.78277 0.17595 0.0
C2296 C 0.86251 0.73303 0.21541 0.0
C2297 C 0.85867 0.74928 0.2349 0.0
C2298 C 0.88491 0.73395 0.2067 0.0
C2299 C 0.90363 0.7521 0.21727 0.0
C2300 C 0.90001 0.76789 0.23778 0.0
C2301 C 0.87748 0.76615 0.24651 0.0
C2302 C 0.88811 0.71646 0.18517 0.0
C2303 C 0.91934 0.78778 0.24922 0.0
H2304 H 0.98175 0.74257 0.20654 0.0
H2305 H 0.94842 0.78528 0.1567 0.0
H2306 H 0.94097 0.73977 0.25106 0.0
H2307 H 0.93039 0.71445 0.22905 0.0
H2308 H 0.96178 0.72307 0.23749 0.0
H2309 H 0.91061 0.79439 0.16075 0.0
H2310 H 0.89085 0.76902 0.16908 0.0
H2311 H 0.90127 0.79382 0.19185 0.0
H2312 H 0.84774 0.72016 0.20638 0.0
H2313 H 0.87421 0.77893 0.26131 0.0
H2314 H 0.9046 0.70893 0.18894 0.0
H2315 H 0.88975 0.72586 0.16798 0.0
H2316 H 0.87295 0.70149 0.18153 0.0
H2317 H 0.93608 0.78083 0.25339 0.0
H2318 H 0.91454 0.79674 0.26669 0.0
H2319 H 0.92274 0.80135 0.23568 0.0
C2320 C 0.51757 0.31415 0.08544 0.0
C2321 C 0.50928 0.316 0.10914 0.0
C2322 C 0.5211 0.33396 0.07156 0.0
C2323 C 0.51583 0.35607 0.08145 0.0
C2324 C 0.50827 0.35833 0.10576 0.0
C2325 C 0.50523 0.33822 0.11946 0.0
C2326 C 0.52958 0.33095 0.04588 0.0
C2327 C 0.50235 0.38166 0.11682 0.0
C2328 C 0.53743 0.41225 0.05082 0.0
C2329 C 0.51718 0.41462 0.03542 0.0
C2330 C 0.53734 0.39319 0.06584 0.0
C2331 C 0.51649 0.37622 0.0655 0.0
C2332 C 0.49621 0.37815 0.04953 0.0
C2333 C 0.49685 0.39725 0.03457 0.0
C2334 C 0.55938 0.39147 0.0824 0.0
C2335 C 0.47363 0.36035 0.0487 0.0
H2336 H 0.52091 0.29707 0.07743 0.0
H2337 H 0.49881 0.33966 0.13778 0.0
H2338 H 0.51522 0.33282 0.03149 0.0
H2339 H 0.54478 0.34511 0.04396 0.0
H2340 H 0.53504 0.31322 0.04194 0.0
H2341 H 0.49839 0.38093 0.13659 0.0
H2342 H 0.51724 0.39644 0.11585 0.0
H2343 H 0.48671 0.38606 0.10579 0.0
H2344 H 0.5532 0.42563 0.05161 0.0
H2345 H 0.48109 0.399 0.02285 0.0
H2346 H 0.56483 0.37377 0.07841 0.0
H2347 H 0.55569 0.39295 0.10228 0.0
H2348 H 0.57438 0.40568 0.07984 0.0
H2349 H 0.47701 0.34207 0.04315 0.0
H2350 H 0.45937 0.36452 0.0354 0.0
H2351 H 0.46725 0.36016 0.06757 0.0
C2352 C 0.93954 0.29639 0.39195 0.0
C2353 C 0.9572 0.28288 0.38642 0.0
C2354 C 0.91795 0.29311 0.37694 0.0
C2355 C 0.91379 0.27558 0.35623 0.0
C2356 C 0.93201 0.26279 0.3498 0.0
C2357 C 0.95358 0.26674 0.36486 0.0
C2358 C 0.89913 0.30746 0.38412 0.0
C2359 C 0.92816 0.24372 0.32804 0.0
C2360 C 0.85106 0.24286 0.34085 0.0
C2361 C 0.84371 0.25272 0.31908 0.0
C2362 C 0.87374 0.25032 0.35309 0.0
C2363 C 0.88951 0.26826 0.34348 0.0
C2364 C 0.88219 0.27854 0.32167 0.0
C2365 C 0.85934 0.27057 0.30963 0.0
C2366 C 0.88088 0.23877 0.37622 0.0
C2367 C 0.8985 0.29785 0.31105 0.0
H2368 H 0.94236 0.30915 0.40838 0.0
H2369 H 0.96715 0.25624 0.36043 0.0
H2370 H 0.89104 0.31448 0.36745 0.0
H2371 H 0.88485 0.29572 0.39202 0.0
H2372 H 0.90629 0.3227 0.39826 0.0
H2373 H 0.94483 0.23729 0.32385 0.0
H2374 H 0.91533 0.22825 0.33241 0.0
H2375 H 0.92051 0.25057 0.31104 0.0
H2376 H 0.83913 0.22905 0.34831 0.0
H2377 H 0.85374 0.27831 0.29286 0.0
H2378 H 0.8859 0.25256 0.39229 0.0
H2379 H 0.8966 0.23014 0.37326 0.0
H2380 H 0.8665 0.22504 0.38124 0.0
H2381 H 0.90462 0.31305 0.3255 0.0
H2382 H 0.88983 0.30465 0.29452 0.0
H2383 H 0.91445 0.29082 0.30547 0.0
C2384 C 0.01703 0.678 0.59771 0.0
C2385 C 0.99757 0.68899 0.60273 0.0
C2386 C 0.01394 0.65444 0.5869 0.0
C2387 C 0.99075 0.64168 0.58066 0.0
C2388 C 0.97098 0.65236 0.58671 0.0
C2389 C 0.97465 0.67604 0.59784 0.0
C2390 C 0.03552 0.64359 0.5812 0.0
C2391 C 0.94605 0.63923 0.58029 0.0
C2392 C 0.98933 0.59232 0.52882 0.0
C2393 C 0.99186 0.57291 0.54267 0.0
C2394 C 0.98736 0.61467 0.54087 0.0
C2395 C 0.98765 0.61741 0.56727 0.0
C2396 C 0.98855 0.59743 0.5811 0.0
C2397 C 0.99084 0.5755 0.56866 0.0
C2398 C 0.98655 0.63567 0.52553 0.0
C2399 C 0.98864 0.59956 0.60921 0.0
H2400 H 0.03473 0.68823 0.60146 0.0
H2401 H 0.95966 0.68483 0.60141 0.0
H2402 H 0.03525 0.62645 0.58977 0.0
H2403 H 0.03541 0.6396 0.56072 0.0
H2404 H 0.05229 0.65564 0.58821 0.0
H2405 H 0.9328 0.64902 0.5885 0.0
H2406 H 0.94199 0.63685 0.55969 0.0
H2407 H 0.94418 0.62112 0.58697 0.0
H2408 H 0.99005 0.59039 0.50875 0.0
H2409 H 0.99256 0.5605 0.5795 0.0
H2410 H 0.00358 0.64819 0.52922 0.0
H2411 H 0.97234 0.64565 0.53093 0.0
H2412 H 0.98355 0.63004 0.50517 0.0
H2413 H 0.00538 0.61071 0.61775 0.0
H2414 H 0.98702 0.58186 0.61689 0.0
H2415 H 0.9739 0.60858 0.61497 0.0
C2416 C 0.57711 0.75881 0.84275 0.0
C2417 C 0.58019 0.75959 0.86888 0.0
C2418 C 0.59585 0.75583 0.82831 0.0
C2419 C 0.61799 0.75319 0.84033 0.0
C2420 C 0.62073 0.75254 0.86658 0.0
C2421 C 0.60183 0.75598 0.88058 0.0
C2422 C 0.59234 0.75693 0.80039 0.0
C2423 C 0.64396 0.74936 0.88002 0.0
C2424 C 0.66551 0.73318 0.80241 0.0
C2425 C 0.6802 0.75506 0.80082 0.0
C2426 C 0.64493 0.73224 0.81493 0.0
C2427 C 0.63893 0.75369 0.82588 0.0
C2428 C 0.65336 0.77585 0.82371 0.0
C2429 C 0.67384 0.77625 0.81129 0.0
C2430 C 0.62995 0.7083 0.817 0.0
C2431 C 0.64743 0.79916 0.8349 0.0
H2432 H 0.56039 0.76164 0.83363 0.0
H2433 H 0.60418 0.75635 0.90077 0.0
H2434 H 0.60293 0.7736 0.79529 0.0
H2435 H 0.59869 0.74169 0.79042 0.0
H2436 H 0.5735 0.75669 0.79368 0.0
H2437 H 0.6424 0.74656 0.90001 0.0
H2438 H 0.65064 0.73388 0.87092 0.0
H2439 H 0.65736 0.76549 0.87899 0.0
H2440 H 0.67038 0.71674 0.79443 0.0
H2441 H 0.68502 0.79325 0.80998 0.0
H2442 H 0.61138 0.70844 0.80969 0.0
H2443 H 0.62981 0.70477 0.83694 0.0
H2444 H 0.63655 0.69339 0.80664 0.0
H2445 H 0.62928 0.80124 0.82775 0.0
H2446 H 0.65998 0.81493 0.83062 0.0
H2447 H 0.6478 0.7991 0.85549 0.0
C2448 C 0.4273 0.52271 0.67831 0.0
C2449 C 0.4403 0.51655 0.69932 0.0
C2450 C 0.43787 0.52633 0.65586 0.0
C2451 C 0.46186 0.52353 0.65443 0.0
C2452 C 0.47528 0.51857 0.67595 0.0
C2453 C 0.46445 0.51535 0.69802 0.0
C2454 C 0.42312 0.53207 0.63338 0.0
C2455 C 0.5008 0.51519 0.67535 0.0
C2456 C 0.482 0.49955 0.59355 0.0
C2457 C 0.4963 0.5197 0.58634 0.0
C2458 C 0.47025 0.50079 0.61525 0.0
C2459 C 0.47241 0.52289 0.63002 0.0
C2460 C 0.4865 0.54347 0.62263 0.0
C2461 C 0.49856 0.54157 0.60099 0.0
C2462 C 0.45598 0.47823 0.62268 0.0
C2463 C 0.48887 0.56743 0.63762 0.0
H2464 H 0.40873 0.52391 0.6791 0.0
H2465 H 0.47494 0.51108 0.71417 0.0
H2466 H 0.433 0.54683 0.62423 0.0
H2467 H 0.41916 0.51618 0.61947 0.0
H2468 H 0.40612 0.53722 0.6384 0.0
H2469 H 0.50925 0.51308 0.69414 0.0
H2470 H 0.50176 0.499 0.66279 0.0
H2471 H 0.51122 0.53065 0.66778 0.0
H2472 H 0.48022 0.48258 0.58227 0.0
H2473 H 0.50925 0.55727 0.5952 0.0
H2474 H 0.43754 0.48094 0.6249 0.0
H2475 H 0.46366 0.47388 0.64098 0.0
H2476 H 0.45553 0.46264 0.60875 0.0
H2477 H 0.47109 0.5719 0.64039 0.0
H2478 H 0.49901 0.58202 0.62842 0.0
H2479 H 0.49798 0.56665 0.6564 0.0
C2480 C 0.76337 0.13894 0.93804 0.0
C2481 C 0.75943 0.15037 0.96091 0.0
C2482 C 0.76075 0.15018 0.91589 0.0
C2483 C 0.75412 0.17322 0.91696 0.0
C2484 C 0.74787 0.1836 0.93962 0.0
C2485 C 0.7506 0.17202 0.9613 0.0
C2486 C 0.76699 0.13835 0.89185 0.0
C2487 C 0.74059 0.20805 0.94159 0.0
C2488 C 0.78304 0.21846 0.87652 0.0
C2489 C 0.76407 0.22075 0.8595 0.0
C2490 C 0.78003 0.20272 0.8951 0.0
C2491 C 0.75766 0.18835 0.896 0.0
C2492 C 0.7386 0.1901 0.87826 0.0
C2493 C 0.74193 0.20669 0.86041 0.0
C2494 C 0.80071 0.20172 0.91395 0.0
C2495 C 0.71481 0.17443 0.87808 0.0
H2496 H 0.77003 0.1221 0.93769 0.0
H2497 H 0.74706 0.18072 0.97885 0.0
H2498 H 0.75451 0.1409 0.87586 0.0
H2499 H 0.78498 0.14667 0.88805 0.0
H2500 H 0.76689 0.11888 0.89287 0.0
H2501 H 0.73345 0.21216 0.95968 0.0
H2502 H 0.75618 0.22186 0.93991 0.0
H2503 H 0.72699 0.20946 0.92621 0.0
H2504 H 0.80024 0.22912 0.87535 0.0
H2505 H 0.72752 0.20802 0.84658 0.0
H2506 H 0.80466 0.18321 0.91361 0.0
H2507 H 0.79619 0.20681 0.93304 0.0
H2508 H 0.81696 0.21386 0.91036 0.0
H2509 H 0.71701 0.1554 0.87836 0.0
H2510 H 0.70271 0.17617 0.86142 0.0
H2511 H 0.70637 0.17932 0.8951 0.0
C2512 C 0.11009 0.4828 0.18337 0.0
C2513 C 0.09898 0.47659 0.2046 0.0
C2514 C 0.09705 0.47955 0.15979 0.0
C2515 C 0.07257 0.47008 0.15783 0.0
C2516 C 0.0624 0.46058 0.17863 0.0
C2517 C 0.0758 0.46394 0.20183 0.0
C2518 C 0.10873 0.48892 0.13769 0.0
C2519 C 0.03654 0.44986 0.17724 0.0
C2520 C 0.03482 0.50346 0.11706 0.0
C2521 C 0.02874 0.48734 0.09581 0.0
C2522 C 0.04852 0.49762 0.13763 0.0
C2523 C 0.05675 0.47531 0.13653 0.0
C2524 C 0.04994 0.45863 0.1153 0.0
C2525 C 0.03575 0.46482 0.09518 0.0
C2526 C 0.05495 0.51577 0.16014 0.0
C2527 C 0.05871 0.43494 0.11312 0.0
H2528 H 0.12807 0.49246 0.18549 0.0
H2529 H 0.06736 0.45879 0.21831 0.0
H2530 H 0.10249 0.47685 0.12047 0.0
H2531 H 0.10394 0.50672 0.13462 0.0
H2532 H 0.12832 0.49091 0.14074 0.0
H2533 H 0.03257 0.43929 0.1933 0.0
H2534 H 0.02578 0.46447 0.17748 0.0
H2535 H 0.03098 0.43815 0.15964 0.0
H2536 H 0.02965 0.52103 0.11714 0.0
H2537 H 0.03126 0.4526 0.07839 0.0
H2538 H 0.07438 0.52181 0.16255 0.0
H2539 H 0.04987 0.50753 0.1773 0.0
H2540 H 0.04615 0.53171 0.15843 0.0
H2541 H 0.07741 0.43795 0.10874 0.0
H2542 H 0.04822 0.42231 0.09802 0.0
H2543 H 0.05814 0.42648 0.13095 0.0
C2544 C 0.77879 0.83962 0.47402 0.0
C2545 C 0.77019 0.86142 0.47437 0.0
C2546 C 0.78132 0.8267 0.45141 0.0
C2547 C 0.77469 0.83557 0.42854 0.0
C2548 C 0.7666 0.85791 0.42877 0.0
C2549 C 0.76464 0.87068 0.45172 0.0
C2550 C 0.79046 0.80323 0.452 0.0
C2551 C 0.75916 0.86788 0.40477 0.0
C2552 C 0.79394 0.81123 0.36705 0.0
C2553 C 0.77355 0.79531 0.35703 0.0
C2554 C 0.79486 0.82395 0.39065 0.0
C2555 C 0.77485 0.82086 0.40444 0.0
C2556 C 0.75458 0.80416 0.39484 0.0
C2557 C 0.75423 0.79149 0.37137 0.0
C2558 C 0.81696 0.84126 0.40045 0.0
C2559 C 0.73284 0.80037 0.40893 0.0
H2560 H 0.78329 0.83244 0.49149 0.0
H2561 H 0.75793 0.88749 0.4519 0.0
H2562 H 0.7762 0.78832 0.44441 0.0
H2563 H 0.80522 0.80297 0.43999 0.0
H2564 H 0.79678 0.79985 0.47121 0.0
H2565 H 0.75421 0.88592 0.4081 0.0
H2566 H 0.77369 0.86905 0.39237 0.0
H2567 H 0.74377 0.85565 0.39467 0.0
H2568 H 0.80898 0.81428 0.35616 0.0
H2569 H 0.73837 0.77928 0.36383 0.0
H2570 H 0.82297 0.8377 0.41967 0.0
H2571 H 0.81308 0.85982 0.40148 0.0
H2572 H 0.83164 0.84018 0.38844 0.0
H2573 H 0.73754 0.79532 0.42792 0.0
H2574 H 0.71877 0.78623 0.39924 0.0
H2575 H 0.72557 0.81731 0.41118 0.0
C2576 C 0.43476 0.51791 0.83235 0.0
C2577 C 0.41256 0.50486 0.82344 0.0
C2578 C 0.44538 0.51516 0.85599 0.0
C2579 C 0.43384 0.49832 0.87081 0.0
C2580 C 0.41136 0.48496 0.86185 0.0
C2581 C 0.40076 0.48867 0.83829 0.0
C2582 C 0.46901 0.53031 0.86506 0.0
C2583 C 0.3988 0.4665 0.87691 0.0
C2584 C 0.47675 0.4808 0.92069 0.0
C2585 C 0.47408 0.49659 0.9412 0.0
C2586 C 0.46261 0.47998 0.89798 0.0
C2587 C 0.44547 0.49531 0.89579 0.0
C2588 C 0.44179 0.51023 0.91687 0.0
C2589 C 0.45609 0.51066 0.93927 0.0
C2590 C 0.46692 0.4637 0.87593 0.0
C2591 C 0.4238 0.52693 0.91537 0.0
H2592 H 0.4438 0.53049 0.82079 0.0
H2593 H 0.38371 0.47836 0.83113 0.0
H2594 H 0.46772 0.5407 0.88306 0.0
H2595 H 0.48251 0.51866 0.86847 0.0
H2596 H 0.47528 0.54302 0.85148 0.0
H2597 H 0.3814 0.4577 0.86738 0.0
H2598 H 0.40995 0.45258 0.88026 0.0
H2599 H 0.396 0.47492 0.89545 0.0
H2600 H 0.49046 0.46973 0.92205 0.0
H2601 H 0.45362 0.5227 0.95511 0.0
H2602 H 0.47559 0.47458 0.86203 0.0
H2603 H 0.44991 0.45376 0.86659 0.0
H2604 H 0.47844 0.45064 0.88147 0.0
H2605 H 0.42987 0.54143 0.90361 0.0
H2606 H 0.42113 0.5352 0.93406 0.0
H2607 H 0.40652 0.51728 0.90643 0.0
C2608 C 0.79672 0.17119 0.10926 0.0
C2609 C 0.79418 0.18443 0.08862 0.0
C2610 C 0.79994 0.18267 0.13371 0.0
C2611 C 0.80007 0.20769 0.13738 0.0
C2612 C 0.80004 0.22128 0.11655 0.0
C2613 C 0.7975 0.20952 0.0925 0.0
C2614 C 0.8014 0.16788 0.15561 0.0
C2615 C 0.8 0.24794 0.11944 0.0
C2616 C 0.76683 0.23155 0.18886 0.0
C2617 C 0.78506 0.24565 0.20468 0.0
C2618 C 0.77167 0.21848 0.16734 0.0
C2619 C 0.79545 0.21901 0.16192 0.0
C2620 C 0.81406 0.23249 0.17851 0.0
C2621 C 0.80858 0.24612 0.19954 0.0
C2622 C 0.75121 0.20479 0.14998 0.0
C2623 C 0.83965 0.23289 0.17395 0.0
H2624 H 0.79463 0.15185 0.10645 0.0
H2625 H 0.79632 0.22 0.07663 0.0
H2626 H 0.81484 0.17734 0.17048 0.0
H2627 H 0.78411 0.16519 0.16362 0.0
H2628 H 0.80599 0.15004 0.15008 0.0
H2629 H 0.80211 0.25617 0.10158 0.0
H2630 H 0.78302 0.25143 0.12621 0.0
H2631 H 0.81443 0.25697 0.13348 0.0
H2632 H 0.74866 0.23113 0.19312 0.0
H2633 H 0.82265 0.25672 0.2122 0.0
H2634 H 0.75296 0.18562 0.14739 0.0
H2635 H 0.75136 0.21178 0.13134 0.0
H2636 H 0.73381 0.20613 0.15709 0.0
H2637 H 0.84264 0.21516 0.16587 0.0
H2638 H 0.85153 0.23813 0.19147 0.0
H2639 H 0.84467 0.24613 0.16049 0.0
C2640 C 0.13281 0.52147 0.35438 0.0
C2641 C 0.1205 0.51772 0.33055 0.0
C2642 C 0.12086 0.52576 0.3756 0.0
C2643 C 0.09617 0.52598 0.37265 0.0
C2644 C 0.08417 0.52406 0.34849 0.0
C2645 C 0.09651 0.52005 0.32776 0.0
C2646 C 0.13427 0.52832 0.40117 0.0
C2647 C 0.05783 0.52402 0.3445 0.0
C2648 C 0.05898 0.49864 0.42071 0.0
C2649 C 0.05215 0.51876 0.43283 0.0
C2650 C 0.07361 0.50089 0.40133 0.0
C2651 C 0.08205 0.52395 0.39434 0.0
C2652 C 0.07543 0.54445 0.40674 0.0
C2653 C 0.06016 0.54156 0.42572 0.0
C2654 C 0.07981 0.47852 0.38819 0.0
C2655 C 0.08465 0.56929 0.40015 0.0
H2656 H 0.15142 0.51997 0.35657 0.0
H2657 H 0.08691 0.51751 0.30935 0.0
H2658 H 0.12877 0.54266 0.41344 0.0
H2659 H 0.13024 0.51136 0.41001 0.0
H2660 H 0.1537 0.5324 0.40021 0.0
H2661 H 0.0518 0.52528 0.32461 0.0
H2662 H 0.04824 0.5072 0.35043 0.0
H2663 H 0.05277 0.53911 0.356 0.0
H2664 H 0.05281 0.48104 0.42643 0.0
H2665 H 0.05521 0.55713 0.43558 0.0
H2666 H 0.09929 0.47939 0.38957 0.0
H2667 H 0.07349 0.47714 0.36804 0.0
H2668 H 0.07186 0.462 0.39613 0.0
H2669 H 0.10428 0.57234 0.40189 0.0
H2670 H 0.07862 0.58338 0.41234 0.0
H2671 H 0.07868 0.57119 0.38044 0.0
C2672 C 0.73401 0.83039 0.59945 0.0
C2673 C 0.75258 0.84973 0.6006 0.0
C2674 C 0.72983 0.81761 0.6203 0.0
C2675 C 0.74503 0.82394 0.64262 0.0
C2676 C 0.76272 0.8446 0.6444 0.0
C2677 C 0.76626 0.85732 0.6233 0.0
C2678 C 0.71031 0.79623 0.61783 0.0
C2679 C 0.77914 0.85209 0.66794 0.0
C2680 C 0.73234 0.79538 0.70276 0.0
C2681 C 0.74605 0.77698 0.70179 0.0
C2682 C 0.73129 0.81049 0.68341 0.0
C2683 C 0.74451 0.80731 0.66272 0.0
C2684 C 0.75789 0.78837 0.66137 0.0
C2685 C 0.75829 0.77329 0.68077 0.0
C2686 C 0.71607 0.82981 0.68521 0.0
C2687 C 0.7726 0.78459 0.63988 0.0
H2688 H 0.72362 0.82441 0.58174 0.0
H2689 H 0.78089 0.87202 0.624 0.0
H2690 H 0.71811 0.77955 0.61684 0.0
H2691 H 0.70008 0.7963 0.63441 0.0
H2692 H 0.69797 0.79583 0.60077 0.0
H2693 H 0.7901 0.86992 0.66734 0.0
H2694 H 0.76893 0.85263 0.6845 0.0
H2695 H 0.79111 0.83873 0.67047 0.0
H2696 H 0.72277 0.7983 0.71894 0.0
H2697 H 0.7692 0.75936 0.68005 0.0
H2698 H 0.69981 0.82434 0.67219 0.0
H2699 H 0.72535 0.8469 0.67961 0.0
H2700 H 0.71075 0.83298 0.70438 0.0
H2701 H 0.76118 0.7816 0.62196 0.0
H2702 H 0.78205 0.76909 0.64163 0.0
H2703 H 0.78587 0.80086 0.63897 0.0
C2704 C 0.67403 0.41096 0.51714 0.0
C2705 C 0.69819 0.42004 0.51781 0.0
C2706 C 0.65759 0.42618 0.52204 0.0
C2707 C 0.66552 0.45108 0.52761 0.0
C2708 C 0.69002 0.46015 0.52963 0.0
C2709 C 0.70607 0.44451 0.52472 0.0
C2710 C 0.6316 0.41575 0.51994 0.0
C2711 C 0.69916 0.48654 0.5356 0.0
C2712 C 0.62025 0.48799 0.50486 0.0
C2713 C 0.60953 0.493 0.52663 0.0
C2714 C 0.63944 0.47558 0.50529 0.0
C2715 C 0.64797 0.46774 0.52806 0.0
C2716 C 0.63824 0.47416 0.55047 0.0
C2717 C 0.61907 0.48686 0.5495 0.0
C2718 C 0.64946 0.46943 0.481 0.0
C2719 C 0.64688 0.46616 0.5751 0.0
H2720 H 0.66784 0.39204 0.51204 0.0
H2721 H 0.72476 0.45166 0.52546 0.0
H2722 H 0.62338 0.42203 0.53661 0.0
H2723 H 0.62245 0.42197 0.50337 0.0
H2724 H 0.62855 0.39587 0.51801 0.0
H2725 H 0.71872 0.4903 0.53967 0.0
H2726 H 0.69421 0.49631 0.51947 0.0
H2727 H 0.691 0.49376 0.55188 0.0
H2728 H 0.6128 0.49275 0.48716 0.0
H2729 H 0.61051 0.4904 0.56627 0.0
H2730 H 0.64496 0.44987 0.47573 0.0
H2731 H 0.66903 0.47413 0.48313 0.0
H2732 H 0.64241 0.47884 0.46548 0.0
H2733 H 0.64057 0.44671 0.57532 0.0
H2734 H 0.64028 0.47575 0.59115 0.0
H2735 H 0.6665 0.46903 0.57763 0.0
C2736 C 0.18689 0.077 0.48457 0.0
C2737 C 0.18611 0.09789 0.47245 0.0
C2738 C 0.16601 0.06161 0.4881 0.0
C2739 C 0.14383 0.06706 0.47904 0.0
C2740 C 0.14305 0.08715 0.46521 0.0
C2741 C 0.16416 0.10235 0.46217 0.0
C2742 C 0.16762 0.04048 0.50308 0.0
C2743 C 0.1198 0.09346 0.45495 0.0
C2744 C 0.08732 0.02166 0.47854 0.0
C2745 C 0.07777 0.03024 0.49993 0.0
C2746 C 0.10899 0.03321 0.47159 0.0
C2747 C 0.12147 0.05362 0.48654 0.0
C2748 C 0.1122 0.06188 0.50853 0.0
C2749 C 0.09045 0.0502 0.51485 0.0
C2750 C 0.11822 0.02399 0.44792 0.0
C2751 C 0.12503 0.08339 0.52522 0.0
H2752 H 0.20371 0.07337 0.49265 0.0
H2753 H 0.16334 0.1183 0.45257 0.0
H2754 H 0.16113 0.04404 0.5216 0.0
H2755 H 0.15625 0.02415 0.49363 0.0
H2756 H 0.18606 0.0369 0.50605 0.0
H2757 H 0.12229 0.10778 0.44208 0.0
H2758 H 0.10839 0.07747 0.44483 0.0
H2759 H 0.11022 0.09971 0.4706 0.0
H2760 H 0.07756 0.0063 0.46687 0.0
H2761 H 0.0833 0.05686 0.53152 0.0
H2762 H 0.13657 0.02059 0.45191 0.0
H2763 H 0.11877 0.03773 0.43437 0.0
H2764 H 0.10706 0.00723 0.43905 0.0
H2765 H 0.14336 0.0808 0.53098 0.0
H2766 H 0.11601 0.08679 0.54228 0.0
H2767 H 0.12625 0.09955 0.51481 0.0
C2768 C 0.19555 0.95989 0.77417 0.0
C2769 C 0.17096 0.95621 0.77548 0.0
C2770 C 0.2079 0.94054 0.77111 0.0
C2771 C 0.19538 0.91685 0.76898 0.0
C2772 C 0.17045 0.913 0.76941 0.0
C2773 C 0.15855 0.93271 0.77279 0.0
C2774 C 0.2345 0.94546 0.77138 0.0
C2775 C 0.15643 0.88802 0.76708 0.0
C2776 C 0.22551 0.86523 0.74527 0.0
C2777 C 0.23157 0.85556 0.76758 0.0
C2778 C 0.21383 0.88527 0.74538 0.0
C2779 C 0.20857 0.89616 0.76838 0.0
C2780 C 0.21563 0.88704 0.791 0.0
C2781 C 0.22669 0.86669 0.79027 0.0
C2782 C 0.2064 0.89428 0.72085 0.0
C2783 C 0.21082 0.89816 0.81604 0.0
H2784 H 0.20534 0.97796 0.77631 0.0
H2785 H 0.13956 0.92969 0.7737 0.0
H2786 H 0.24262 0.93863 0.78818 0.0
H2787 H 0.24019 0.93591 0.75478 0.0
H2788 H 0.24147 0.96486 0.77165 0.0
H2789 H 0.13704 0.88803 0.76542 0.0
H2790 H 0.16093 0.8774 0.7505 0.0
H2791 H 0.16112 0.87886 0.78376 0.0
H2792 H 0.22895 0.85651 0.72765 0.0
H2793 H 0.23129 0.85927 0.80757 0.0
H2794 H 0.21355 0.91359 0.72096 0.0
H2795 H 0.18682 0.89238 0.71825 0.0
H2796 H 0.2125 0.8844 0.70467 0.0
H2797 H 0.21312 0.91794 0.81665 0.0
H2798 H 0.2227 0.89341 0.83146 0.0
H2799 H 0.19227 0.89152 0.8195 0.0
C2800 C 0.31896 0.91772 0.99246 0.0
C2801 C 0.31595 0.89323 0.98432 0.0
C2802 C 0.34154 0.93175 0.99609 0.0
C2803 C 0.36159 0.92109 0.99137 0.0
C2804 C 0.35852 0.89689 0.98137 0.0
C2805 C 0.33575 0.88323 0.97801 0.0
C2806 C 0.34403 0.9575 0.00675 0.0
C2807 C 0.37944 0.88495 0.9758 0.0
C2808 C 0.42221 0.96017 0.99409 0.0
C2809 C 0.43184 0.95687 0.01803 0.0
C2810 C 0.39929 0.9486 0.98495 0.0
C2811 C 0.38569 0.93401 0.00044 0.0
C2812 C 0.3952 0.93133 0.0249 0.0
C2813 C 0.41825 0.94253 0.03324 0.0
C2814 C 0.38985 0.95152 0.95863 0.0
C2815 C 0.38112 0.91646 0.0423 0.0
H2816 H 0.3038 0.92577 0.99714 0.0
H2817 H 0.33365 0.86443 0.97142 0.0
H2818 H 0.35154 0.95918 0.02655 0.0
H2819 H 0.3564 0.96928 0.99655 0.0
H2820 H 0.32677 0.96402 0.00601 0.0
H2821 H 0.37396 0.86729 0.96481 0.0
H2822 H 0.39179 0.89649 0.96534 0.0
H2823 H 0.3893 0.88219 0.99362 0.0
H2824 H 0.43283 0.97118 0.9823 0.0
H2825 H 0.42561 0.94022 0.05189 0.0
H2826 H 0.37257 0.95791 0.95865 0.0
H2827 H 0.38673 0.93392 0.94737 0.0
H2828 H 0.40221 0.96427 0.94937 0.0
H2829 H 0.36412 0.92297 0.04457 0.0
H2830 H 0.39081 0.917 0.06107 0.0
H2831 H 0.37682 0.89756 0.0342 0.0
C2832 C 0.87585 0.59626 0.76712 0.0
C2833 C 0.865 0.57238 0.76699 0.0
C2834 C 0.8624 0.61421 0.76203 0.0
C2835 C 0.83754 0.60806 0.75674 0.0
C2836 C 0.82675 0.58377 0.75483 0.0
C2837 C 0.84062 0.5662 0.75999 0.0
C2838 C 0.87458 0.63993 0.76403 0.0
C2839 C 0.80034 0.57649 0.74904 0.0
C2840 C 0.80329 0.65539 0.78054 0.0
C2841 C 0.79786 0.66622 0.75882 0.0
C2842 C 0.81555 0.63599 0.77987 0.0
C2843 C 0.82266 0.62721 0.75688 0.0
C2844 C 0.81641 0.63741 0.73465 0.0
C2845 C 0.80396 0.65685 0.73587 0.0
C2846 C 0.82164 0.62549 0.804 0.0
C2847 C 0.82373 0.62851 0.70983 0.0
H2848 H 0.89472 0.60112 0.7723 0.0
H2849 H 0.83214 0.54773 0.75959 0.0
H2850 H 0.86859 0.64899 0.74778 0.0
H2851 H 0.86985 0.64966 0.78107 0.0
H2852 H 0.89415 0.64142 0.76514 0.0
H2853 H 0.79519 0.55683 0.7447 0.0
H2854 H 0.79131 0.58209 0.7654 0.0
H2855 H 0.79384 0.58554 0.733 0.0
H2856 H 0.79843 0.66249 0.79831 0.0
H2857 H 0.79995 0.66533 0.71908 0.0
H2858 H 0.84114 0.62822 0.80829 0.0
H2859 H 0.81521 0.60593 0.8021 0.0
H2860 H 0.81385 0.63372 0.82006 0.0
H2861 H 0.8432 0.6332 0.70983 0.0
H2862 H 0.81521 0.63644 0.69399 0.0
H2863 H 0.81917 0.60873 0.70673 0.0
C2864 C 0.81536 0.56977 0.00955 0.0
C2865 C 0.81914 0.59433 0.00643 0.0
C2866 C 0.83443 0.55746 0.0142 0.0
C2867 C 0.85789 0.57001 0.01596 0.0
C2868 C 0.8618 0.59494 0.01355 0.0
C2869 C 0.84239 0.60679 0.00876 0.0
C2870 C 0.8295 0.53082 0.01612 0.0
C2871 C 0.88652 0.609 0.0153 0.0
C2872 C 0.90976 0.5427 0.04346 0.0
C2873 C 0.91971 0.53555 0.0218 0.0
C2874 C 0.8893 0.55353 0.04192 0.0
C2875 C 0.87837 0.55679 0.01817 0.0
C2876 C 0.88768 0.54831 0.99628 0.0
C2877 C 0.9084 0.53817 0.99839 0.0
C2878 C 0.88005 0.56247 0.06568 0.0
C2879 C 0.87651 0.5509 0.97051 0.0
H2880 H 0.79745 0.55998 0.00778 0.0
H2881 H 0.84548 0.62577 0.00648 0.0
H2882 H 0.83627 0.52138 0.0001 0.0
H2883 H 0.83891 0.52627 0.03343 0.0
H2884 H 0.81031 0.52397 0.01609 0.0
H2885 H 0.88655 0.62854 0.01515 0.0
H2886 H 0.89684 0.60575 0.03264 0.0
H2887 H 0.89575 0.60292 -0.00072 0.0
H2888 H 0.91866 0.541 0.06159 0.0
H2889 H 0.91607 0.53267 0.98159 0.0
H2890 H 0.86089 0.55549 0.0655 0.0
H2891 H 0.88208 0.58229 0.06699 0.0
H2892 H 0.88954 0.55717 0.0826 0.0
H2893 H 0.85692 0.54813 0.96977 0.0
H2894 H 0.88158 0.53794 0.95626 0.0
H2895 H 0.8826 0.56924 0.96542 0.0
C2896 C 0.16614 0.10788 0.81987 0.0
C2897 C 0.16733 0.08719 0.80431 0.0
C2898 C 0.1815 0.12944 0.81814 0.0
C2899 C 0.19793 0.13056 0.79986 0.0
C2900 C 0.19959 0.10955 0.78457 0.0
C2901 C 0.18454 0.08808 0.78725 0.0
C2902 C 0.17958 0.15124 0.83527 0.0
C2903 C 0.21629 0.11005 0.76433 0.0
C2904 C 0.21445 0.19047 0.77361 0.0
C2905 C 0.23769 0.19822 0.7845 0.0
C2906 C 0.20145 0.16857 0.77847 0.0
C2907 C 0.21169 0.15408 0.79504 0.0
C2908 C 0.23503 0.16191 0.80642 0.0
C2909 C 0.24786 0.18377 0.80081 0.0
C2910 C 0.17679 0.16081 0.76556 0.0
C2911 C 0.24638 0.14725 0.82462 0.0
H2912 H 0.15296 0.10728 0.83318 0.0
H2913 H 0.18541 0.07225 0.77497 0.0
H2914 H 0.19737 0.15995 0.84381 0.0
H2915 H 0.17204 0.1645 0.82438 0.0
H2916 H 0.16813 0.14676 0.85042 0.0
H2917 H 0.21651 0.09194 0.75505 0.0
H2918 H 0.21085 0.12159 0.74997 0.0
H2919 H 0.23454 0.11789 0.77216 0.0
H2920 H 0.20641 0.20143 0.76093 0.0
H2921 H 0.26573 0.18971 0.80945 0.0
H2922 H 0.16377 0.15872 0.77963 0.0
H2923 H 0.1756 0.14315 0.75475 0.0
H2924 H 0.17166 0.17382 0.75265 0.0
H2925 H 0.23512 0.14394 0.84015 0.0
H2926 H 0.26431 0.15619 0.83257 0.0
H2927 H 0.24783 0.12955 0.81519 0.0
C2928 C 0.38529 0.9334 0.32502 0.0
C2929 C 0.37915 0.95234 0.31207 0.0
C2930 C 0.37078 0.91088 0.32199 0.0
C2931 C 0.34997 0.90717 0.30525 0.0
C2932 C 0.34292 0.92663 0.29345 0.0
C2933 C 0.3575 0.94902 0.29717 0.0
C2934 C 0.37854 0.89068 0.3354 0.0
C2935 C 0.32102 0.9234 0.27522 0.0
C2936 C 0.33351 0.84768 0.26652 0.0
C2937 C 0.31307 0.83738 0.27668 0.0
C2938 C 0.34588 0.87011 0.27611 0.0
C2939 C 0.33785 0.88251 0.29666 0.0
C2940 C 0.31763 0.87196 0.30757 0.0
C2941 C 0.30529 0.84951 0.29728 0.0
C2942 C 0.36722 0.88082 0.26372 0.0
C2943 C 0.30887 0.88453 0.3298 0.0
H2944 H 0.40179 0.93595 0.33693 0.0
H2945 H 0.3525 0.96356 0.28718 0.0
H2946 H 0.36328 0.87996 0.34286 0.0
H2947 H 0.38584 0.87855 0.32205 0.0
H2948 H 0.39239 0.89733 0.35104 0.0
H2949 H 0.3165 0.94076 0.26996 0.0
H2950 H 0.32397 0.91268 0.25799 0.0
H2951 H 0.30565 0.91346 0.2832 0.0
H2952 H 0.33965 0.83841 0.2506 0.0
H2953 H 0.28963 0.84148 0.30535 0.0
H2954 H 0.38296 0.88513 0.27759 0.0
H2955 H 0.36406 0.89779 0.2562 0.0
H2956 H 0.37135 0.86861 0.24815 0.0
H2957 H 0.32362 0.89053 0.34463 0.0
H2958 H 0.2945 0.87288 0.33771 0.0
H2959 H 0.30206 0.90074 0.32418 0.0
C2960 C 0.53902 0.34277 0.60765 0.0
C2961 C 0.52716 0.34047 0.62925 0.0
C2962 C 0.54043 0.36373 0.5954 0.0
C2963 C 0.52926 0.38265 0.6047 0.0
C2964 C 0.51689 0.38026 0.62627 0.0
C2965 C 0.51622 0.35926 0.63848 0.0
C2966 C 0.55429 0.36584 0.57283 0.0
C2967 C 0.50451 0.39995 0.63653 0.0
C2968 C 0.55347 0.44566 0.59117 0.0
C2969 C 0.53754 0.44948 0.57135 0.0
C2970 C 0.55106 0.42393 0.60194 0.0
C2971 C 0.53201 0.40558 0.59293 0.0
C2972 C 0.5159 0.4092 0.57278 0.0
C2973 C 0.51897 0.43113 0.56204 0.0
C2974 C 0.56891 0.42064 0.62304 0.0
C2975 C 0.49525 0.39007 0.56289 0.0
H2976 H 0.54751 0.32825 0.60046 0.0
H2977 H 0.50679 0.35739 0.65501 0.0
H2978 H 0.54293 0.36992 0.55663 0.0
H2979 H 0.56931 0.38088 0.5767 0.0
H2980 H 0.56139 0.34924 0.56758 0.0
H2981 H 0.4943 0.39463 0.65238 0.0
H2982 H 0.51771 0.41611 0.64303 0.0
H2983 H 0.49226 0.40499 0.62161 0.0
H2984 H 0.56803 0.45972 0.59826 0.0
H2985 H 0.50658 0.43411 0.54681 0.0
H2986 H 0.57723 0.40475 0.61817 0.0
H2987 H 0.55992 0.41737 0.64017 0.0
H2988 H 0.58308 0.43647 0.62735 0.0
H2989 H 0.5017 0.37347 0.55637 0.0
H2990 H 0.4843 0.39569 0.54719 0.0
H2991 H 0.48387 0.38563 0.57808 0.0
C2992 C 0.40775 0.73637 0.37319 0.0
C2993 C 0.43027 0.7421 0.36494 0.0
C2994 C 0.38726 0.73679 0.35737 0.0
C2995 C 0.38934 0.74358 0.33284 0.0
C2996 C 0.41198 0.74829 0.324 0.0
C2997 C 0.43221 0.74728 0.34012 0.0
C2998 C 0.36342 0.73123 0.3674 0.0
C2999 C 0.41493 0.75595 0.29811 0.0
C3000 C 0.33237 0.73458 0.28948 0.0
C3001 C 0.32481 0.75659 0.29433 0.0
C3002 C 0.35382 0.73019 0.30126 0.0
C3003 C 0.36807 0.74846 0.31776 0.0
C3004 C 0.36103 0.77117 0.32147 0.0
C3005 C 0.33935 0.77484 0.30995 0.0
C3006 C 0.36057 0.70567 0.29715 0.0
C3007 C 0.37589 0.79133 0.33848 0.0
H3008 H 0.40616 0.7321 0.39229 0.0
H3009 H 0.44959 0.75185 0.33369 0.0
H3010 H 0.35569 0.74787 0.36992 0.0
H3011 H 0.35103 0.71847 0.35393 0.0
H3012 H 0.36467 0.72349 0.38565 0.0
H3013 H 0.4333 0.75616 0.29302 0.0
H3014 H 0.4026 0.74387 0.28401 0.0
H3015 H 0.41053 0.77421 0.29719 0.0
H3016 H 0.32095 0.72042 0.27757 0.0
H3017 H 0.33352 0.79195 0.31351 0.0
H3018 H 0.35928 0.69664 0.31461 0.0
H3019 H 0.37917 0.70709 0.29257 0.0
H3020 H 0.34892 0.69427 0.28191 0.0
H3021 H 0.37607 0.78675 0.35811 0.0
H3022 H 0.36908 0.8085 0.33734 0.0
H3023 H 0.39447 0.79393 0.33367 0.0
C3024 C 0.0139 0.7006 0.08563 0.0
C3025 C 0.0234 0.71045 0.10962 0.0
C3026 C 0.00936 0.67574 0.07962 0.0
C3027 C 0.01532 0.66045 0.0978 0.0
C3028 C 0.02529 0.67038 0.12198 0.0
C3029 C 0.02881 0.6953 0.12775 0.0
C3030 C 0.99792 0.66583 0.05393 0.0
C3031 C 0.03249 0.65472 0.14163 0.0
C3032 C 0.98394 0.59608 0.09051 0.0
C3033 C 1.00008 0.58424 0.07836 0.0
C3034 C 0.98871 0.62085 0.09694 0.0
C3035 C 0.01043 0.63405 0.09168 0.0
C3036 C 0.02706 0.62212 0.07993 0.0
C3037 C 0.02154 0.59735 0.07307 0.0
C3038 C 0.97022 0.63297 0.1088 0.0
C3039 C 0.05063 0.63553 0.07454 0.0
H3040 H 0.00964 0.71239 0.07167 0.0
H3041 H 0.03643 0.703 0.14622 0.0
H3042 H 0.00975 0.65533 0.0442 0.0
H3043 H 0.98125 0.65347 0.05557 0.0
H3044 H 0.99381 0.68013 0.04219 0.0
H3045 H 0.04102 0.66532 0.1591 0.0
H3046 H 0.01677 0.64245 0.14619 0.0
H3047 H 0.045 0.64345 0.13435 0.0
H3048 H 0.96719 0.58606 0.0944 0.0
H3049 H 0.03408 0.58821 0.06377 0.0
H3050 H 0.96492 0.64667 0.0969 0.0
H3051 H 0.97763 0.64236 0.12722 0.0
H3052 H 0.95416 0.62012 0.11149 0.0
H3053 H 0.04787 0.6488 0.06103 0.0
H3054 H 0.06217 0.62342 0.06671 0.0
H3055 H 0.05998 0.6456 0.09192 0.0
C3056 C 0.06474 0.24257 0.84112 0.0
C3057 C 0.0653 0.25223 0.86596 0.0
C3058 C 0.08567 0.24257 0.82939 0.0
C3059 C 0.10766 0.25247 0.84284 0.0
C3060 C 0.10835 0.26201 0.868 0.0
C3061 C 0.08715 0.26178 0.87925 0.0
C3062 C 0.08426 0.23215 0.80257 0.0
C3063 C 0.13147 0.27261 0.88301 0.0
C3064 C 0.16438 0.23386 0.82291 0.0
C3065 C 0.1742 0.25372 0.81109 0.0
C3066 C 0.14249 0.23299 0.83277 0.0
C3067 C 0.13006 0.25247 0.83083 0.0
C3068 C 0.1395 0.27227 0.81827 0.0
C3069 C 0.16148 0.27265 0.80848 0.0
C3070 C 0.13299 0.21148 0.84587 0.0
C3071 C 0.1267 0.29335 0.81579 0.0
H3072 H 0.0479 0.23522 0.83071 0.0
H3073 H 0.08772 0.26932 0.89842 0.0
H3074 H 0.09199 0.246 0.79087 0.0
H3075 H 0.09478 0.21739 0.80119 0.0
H3076 H 0.06578 0.22512 0.79473 0.0
H3077 H 0.12894 0.27938 0.90233 0.0
H3078 H 0.14325 0.25893 0.88404 0.0
H3079 H 0.14068 0.28759 0.87365 0.0
H3080 H 0.174 0.21904 0.82481 0.0
H3081 H 0.16897 0.28804 0.79939 0.0
H3082 H 0.11481 0.20376 0.83766 0.0
H3083 H 0.1319 0.21701 0.86588 0.0
H3084 H 0.14425 0.19729 0.84465 0.0
H3085 H 0.10839 0.28719 0.80703 0.0
H3086 H 0.13581 0.30678 0.80443 0.0
H3087 H 0.12538 0.30219 0.83459 0.0
C3088 C 0.53232 0.7037 0.94596 0.0
C3089 C 0.51213 0.71418 0.94154 0.0
C3090 C 0.53043 0.68049 0.95351 0.0
C3091 C 0.50776 0.66739 0.95586 0.0
C3092 C 0.48725 0.67763 0.95029 0.0
C3093 C 0.48973 0.70119 0.94365 0.0
C3094 C 0.55271 0.67031 0.95977 0.0
C3095 C 0.46278 0.66387 0.9517 0.0
C3096 C 0.50521 0.60048 0.9555 0.0
C3097 C 0.50537 0.59734 0.98104 0.0
C3098 C 0.50507 0.62307 0.94695 0.0
C3099 C 0.50562 0.64307 0.96445 0.0
C3100 C 0.50519 0.63994 0.99023 0.0
C3101 C 0.5048 0.61697 0.99823 0.0
C3102 C 0.50489 0.62561 0.91926 0.0
C3103 C 0.50606 0.66096 0.00943 0.0
H3104 H 0.54961 0.71407 0.94458 0.0
H3105 H 0.47419 0.70954 0.94022 0.0
H3106 H 0.55362 0.66597 0.97949 0.0
H3107 H 0.55247 0.65342 0.94789 0.0
H3108 H 0.56895 0.68292 0.9571 0.0
H3109 H 0.44867 0.67384 0.94509 0.0
H3110 H 0.46052 0.64642 0.94026 0.0
H3111 H 0.4604 0.66001 0.97126 0.0
H3112 H 0.50536 0.58522 0.94214 0.0
H3113 H 0.50502 0.61453 0.01797 0.0
H3114 H 0.52184 0.63625 0.91531 0.0
H3115 H 0.49052 0.63537 0.913 0.0
H3116 H 0.50244 0.608 0.90801 0.0
H3117 H 0.52278 0.67362 0.00904 0.0
H3118 H 0.50499 0.65541 0.02865 0.0
H3119 H 0.49127 0.6708 0.00493 0.0
C3120 C 0.07361 0.75207 0.68122 0.0
C3121 C 0.07416 0.76674 0.66145 0.0
C3122 C 0.09452 0.74931 0.69518 0.0
C3123 C 0.11638 0.76183 0.68947 0.0
C3124 C 0.11692 0.77752 0.67031 0.0
C3125 C 0.0958 0.77963 0.65638 0.0
C3126 C 0.09334 0.73226 0.71532 0.0
C3127 C 0.13989 0.79156 0.66402 0.0
C3128 C 0.17191 0.77112 0.73422 0.0
C3129 C 0.18513 0.75532 0.7227 0.0
C3130 C 0.14895 0.77265 0.72432 0.0
C3131 C 0.13891 0.75781 0.7026 0.0
C3132 C 0.15142 0.74052 0.69205 0.0
C3133 C 0.17446 0.73953 0.70221 0.0
C3134 C 0.1362 0.79135 0.73606 0.0
C3135 C 0.14108 0.7241 0.6691 0.0
H3136 H 0.05693 0.74192 0.68513 0.0
H3137 H 0.09628 0.79113 0.64126 0.0
H3138 H 0.10225 0.71693 0.70983 0.0
H3139 H 0.10287 0.74125 0.73311 0.0
H3140 H 0.07484 0.72521 0.71868 0.0
H3141 H 0.13706 0.80416 0.64974 0.0
H3142 H 0.1496 0.80191 0.68106 0.0
H3143 H 0.15133 0.77908 0.6568 0.0
H3144 H 0.17996 0.78334 0.75016 0.0
H3145 H 0.18449 0.72715 0.69332 0.0
H3146 H 0.11768 0.78356 0.73845 0.0
H3147 H 0.13554 0.80588 0.72355 0.0
H3148 H 0.14512 0.79935 0.75453 0.0
H3149 H 0.12284 0.71542 0.67152 0.0
H3150 H 0.15191 0.70997 0.66489 0.0
H3151 H 0.13999 0.73469 0.65273 0.0
C3152 C 0.04234 0.35858 0.42517 0.0
C3153 C 0.03374 0.33803 0.43649 0.0
C3154 C 0.0407 0.38142 0.4362 0.0
C3155 C 0.02976 0.38355 0.45869 0.0
C3156 C 0.02105 0.36283 0.47012 0.0
C3157 C 0.02343 0.34036 0.45904 0.0
C3158 C 0.05053 0.40325 0.42379 0.0
C3159 C 0.00876 0.36434 0.49379 0.0
C3160 C 0.03855 0.44159 0.50071 0.0
C3161 C 0.01824 0.45087 0.49314 0.0
C3162 C 0.043 0.42001 0.48902 0.0
C3163 C 0.02639 0.40729 0.46987 0.0
C3164 C 0.00574 0.41655 0.46237 0.0
C3165 C 0.00206 0.43841 0.47391 0.0
C3166 C 0.06541 0.41083 0.49714 0.0
C3167 C 0.9873 0.40316 0.44252 0.0
H3168 H 0.05049 0.35681 0.40784 0.0
H3169 H 0.01679 0.32456 0.46794 0.0
H3170 H 0.03602 0.41294 0.41783 0.0
H3171 H 0.06317 0.41575 0.43726 0.0
H3172 H 0.05972 0.3986 0.40718 0.0
H3173 H 0.003 0.34646 0.50027 0.0
H3174 H 0.02073 0.37545 0.50892 0.0
H3175 H 0.99298 0.37314 0.49062 0.0
H3176 H 0.05118 0.45145 0.51537 0.0
H3177 H 0.98627 0.44559 0.46816 0.0
H3178 H 0.07528 0.40742 0.48073 0.0
H3179 H 0.06098 0.39356 0.5053 0.0
H3180 H 0.07717 0.42359 0.5112 0.0
H3181 H 0.99538 0.39998 0.42484 0.0
H3182 H 0.9723 0.41296 0.43875 0.0
H3183 H 0.98022 0.38538 0.44845 0.0
C3184 C 0.42359 0.2455 0.16642 0.0
C3185 C 0.44675 0.25055 0.17801 0.0
C3186 C 0.40412 0.24641 0.18033 0.0
C3187 C 0.40792 0.25307 0.20641 0.0
C3188 C 0.43126 0.2576 0.21833 0.0
C3189 C 0.45041 0.25605 0.20399 0.0
C3190 C 0.37949 0.24089 0.16697 0.0
C3191 C 0.43604 0.2651 0.24599 0.0
C3192 C 0.35699 0.28005 0.23091 0.0
C3193 C 0.34411 0.26044 0.24061 0.0
C3194 C 0.3787 0.27837 0.22125 0.0
C3195 C 0.38741 0.25636 0.22074 0.0
C3196 C 0.37514 0.23691 0.23179 0.0
C3197 C 0.35377 0.23928 0.24187 0.0
C3198 C 0.39158 0.29974 0.21025 0.0
C3199 C 0.38357 0.21302 0.23131 0.0
H3200 H 0.4207 0.24114 0.14636 0.0
H3201 H 0.46832 0.26016 0.213 0.0
H3202 H 0.36827 0.22724 0.17633 0.0
H3203 H 0.37119 0.25727 0.1678 0.0
H3204 H 0.3795 0.23423 0.14704 0.0
H3205 H 0.45503 0.26639 0.25271 0.0
H3206 H 0.43064 0.28281 0.2501 0.0
H3207 H 0.42539 0.25223 0.25673 0.0
H3208 H 0.34965 0.29645 0.22997 0.0
H3209 H 0.34383 0.22393 0.24914 0.0
H3210 H 0.39026 0.29622 0.18961 0.0
H3211 H 0.41064 0.30288 0.21709 0.0
H3212 H 0.38415 0.31627 0.21493 0.0
H3213 H 0.38133 0.20456 0.21183 0.0
H3214 H 0.37358 0.20062 0.2431 0.0
H3215 H 0.40267 0.21536 0.23782 0.0
C3216 C 0.58476 0.50817 0.34844 0.0
C3217 C 0.60909 0.50746 0.35244 0.0
C3218 C 0.57013 0.50645 0.36805 0.0
C3219 C 0.57999 0.50409 0.39246 0.0
C3220 C 0.60453 0.50321 0.39667 0.0
C3221 C 0.61879 0.50485 0.37659 0.0
C3222 C 0.54413 0.50751 0.36268 0.0
C3223 C 0.61573 0.5008 0.42246 0.0
C3224 C 0.5494 0.52579 0.44773 0.0
C3225 C 0.5376 0.50435 0.45514 0.0
C3226 C 0.56279 0.52594 0.42713 0.0
C3227 C 0.56486 0.50403 0.41375 0.0
C3228 C 0.55248 0.4823 0.42076 0.0
C3229 C 0.5388 0.48273 0.44131 0.0
C3230 C 0.57524 0.54957 0.42012 0.0
C3231 C 0.55438 0.45856 0.40711 0.0
H3232 H 0.57701 0.51003 0.32984 0.0
H3233 H 0.63752 0.50417 0.37983 0.0
H3234 H 0.53331 0.49152 0.3689 0.0
H3235 H 0.53967 0.52345 0.37334 0.0
H3236 H 0.53903 0.50844 0.34251 0.0
H3237 H 0.63482 0.49949 0.42252 0.0
H3238 H 0.61388 0.51647 0.43533 0.0
H3239 H 0.60649 0.48466 0.43 0.0
H3240 H 0.54853 0.54254 0.45847 0.0
H3241 H 0.53006 0.46612 0.44732 0.0
H3242 H 0.57022 0.55166 0.40022 0.0
H3243 H 0.59467 0.55001 0.42235 0.0
H3244 H 0.57099 0.56506 0.43177 0.0
H3245 H 0.54937 0.45872 0.38683 0.0
H3246 H 0.54294 0.4434 0.41416 0.0
H3247 H 0.57299 0.45545 0.4093 0.0
C3248 C 0.26003 0.86075 0.08268 0.0
C3249 C 0.24842 0.8439 0.06353 0.0
C3250 C 0.26198 0.85486 0.10751 0.0
C3251 C 0.25157 0.83184 0.11313 0.0
C3252 C 0.23875 0.81531 0.09397 0.0
C3253 C 0.23759 0.82145 0.06935 0.0
C3254 C 0.27593 0.87283 0.12751 0.0
C3255 C 0.2268 0.79086 0.09935 0.0
C3256 C 0.27463 0.80286 0.16905 0.0
C3257 C 0.25793 0.8064 0.18587 0.0
C3258 C 0.27332 0.81196 0.14562 0.0
C3259 C 0.25466 0.82449 0.13882 0.0
C3260 C 0.23794 0.82836 0.15588 0.0
C3261 C 0.23982 0.81933 0.17924 0.0
C3262 C 0.29165 0.8078 0.12796 0.0
C3263 C 0.21757 0.84128 0.14918 0.0
H3264 H 0.26854 0.87805 0.07808 0.0
H3265 H 0.22842 0.80852 0.05451 0.0
H3266 H 0.26514 0.87569 0.14328 0.0
H3267 H 0.29175 0.8658 0.13508 0.0
H3268 H 0.28185 0.89036 0.12032 0.0
H3269 H 0.21623 0.78076 0.0826 0.0
H3270 H 0.24033 0.78027 0.10603 0.0
H3271 H 0.21495 0.79258 0.1144 0.0
H3272 H 0.28877 0.7931 0.17424 0.0
H3273 H 0.22677 0.82203 0.19215 0.0
H3274 H 0.29961 0.82501 0.12143 0.0
H3275 H 0.28311 0.79604 0.11124 0.0
H3276 H 0.306 0.79933 0.13678 0.0
H3277 H 0.22394 0.85827 0.14124 0.0
H3278 H 0.20786 0.84536 0.16555 0.0
H3279 H 0.20499 0.83 0.13466 0.0
C3280 C 0.95557 0.53764 0.85778 0.0
C3281 C 0.93175 0.5407 0.85666 0.0
C3282 C 0.9688 0.53743 0.88062 0.0
C3283 C 0.95809 0.54073 0.903 0.0
C3284 C 0.93458 0.54554 0.90214 0.0
C3285 C 0.92154 0.5453 0.87886 0.0
C3286 C 0.99369 0.53191 0.88067 0.0
C3287 C 0.92276 0.5495 0.92572 0.0
C3288 C 0.97884 0.5066 0.95548 0.0
C3289 C 0.99482 0.52431 0.97031 0.0
C3290 C 0.96674 0.51184 0.93363 0.0
C3291 C 0.97034 0.53555 0.92672 0.0
C3292 C 0.9865 0.55357 0.94162 0.0
C3293 C 0.99884 0.54764 0.96323 0.0
C3294 C 0.95011 0.49195 0.91795 0.0
C3295 C 0.99036 0.5791 0.93497 0.0
H3296 H 0.96375 0.53444 0.84069 0.0
H3297 H 0.90323 0.54795 0.87808 0.0
H3298 H 0.00605 0.54493 0.89386 0.0
H3299 H 0.99413 0.51388 0.88706 0.0
H3300 H 1.00021 0.53221 0.86184 0.0
H3301 H 0.90655 0.55759 0.92222 0.0
H3302 H 0.91771 0.53206 0.93337 0.0
H3303 H 0.93503 0.56124 0.94017 0.0
H3304 H 0.97572 0.48856 0.96111 0.0
H3305 H 0.01087 0.56137 0.97508 0.0
H3306 H 0.95556 0.49017 0.89872 0.0
H3307 H 0.9319 0.49624 0.91652 0.0
H3308 H 0.94969 0.47441 0.92583 0.0
H3309 H 0.99688 0.57994 0.91621 0.0
H3310 H 0.00326 0.59105 0.94872 0.0
H3311 H 0.9733 0.58599 0.93407 0.0
C3312 C 0.27176 0.1561 0.57467 0.0
C3313 C 0.25065 0.1576 0.56041 0.0
C3314 C 0.27465 0.16293 0.6005 0.0
C3315 C 0.2557 0.17073 0.61234 0.0
C3316 C 0.23391 0.17094 0.59817 0.0
C3317 C 0.23178 0.16474 0.5723 0.0
C3318 C 0.29832 0.16297 0.61486 0.0
C3319 C 0.21307 0.17844 0.6102 0.0
C3320 C 0.25913 0.1746 0.68337 0.0
C3321 C 0.26664 0.19919 0.6897 0.0
C3322 C 0.25515 0.16506 0.65826 0.0
C3323 C 0.25922 0.18043 0.63908 0.0
C3324 C 0.26668 0.20528 0.64539 0.0
C3325 C 0.27007 0.21438 0.67059 0.0
C3326 C 0.24668 0.13855 0.65223 0.0
C3327 C 0.27152 0.22224 0.62552 0.0
H3328 H 0.28641 0.15071 0.56543 0.0
H3329 H 0.21535 0.16566 0.56129 0.0
H3330 H 0.30634 0.18161 0.62183 0.0
H3331 H 0.29607 0.15271 0.6314 0.0
H3332 H 0.31082 0.1552 0.60322 0.0
H3333 H 0.19668 0.17514 0.59714 0.0
H3334 H 0.20973 0.16865 0.62689 0.0
H3335 H 0.21705 0.1978 0.61659 0.0
H3336 H 0.25636 0.16278 0.69806 0.0
H3337 H 0.27605 0.23337 0.67532 0.0
H3338 H 0.25999 0.13038 0.64225 0.0
H3339 H 0.23005 0.1355 0.6396 0.0
H3340 H 0.24346 0.12919 0.66925 0.0
H3341 H 0.28519 0.21657 0.61404 0.0
H3342 H 0.27768 0.241 0.63356 0.0
H3343 H 0.25525 0.22173 0.61279 0.0
C3344 C 0.60355 0.5405 0.2116 0.0
C3345 C 0.61296 0.52195 0.22244 0.0
C3346 C 0.59639 0.53884 0.18597 0.0
C3347 C 0.5982 0.51788 0.17076 0.0
C3348 C 0.60841 0.49937 0.18142 0.0
C3349 C 0.61593 0.50174 0.20715 0.0
C3350 C 0.58616 0.55924 0.17533 0.0
C3351 C 0.61037 0.47662 0.16587 0.0
C3352 C 0.55465 0.50348 0.11246 0.0
C3353 C 0.5691 0.50997 0.09358 0.0
C3354 C 0.56402 0.50557 0.13758 0.0
C3355 C 0.58828 0.51497 0.14405 0.0
C3356 C 0.60278 0.52217 0.12511 0.0
C3357 C 0.59308 0.51929 0.10007 0.0
C3358 C 0.54803 0.49735 0.15716 0.0
C3359 C 0.62853 0.53288 0.13129 0.0
H3360 H 0.60143 0.55627 0.22334 0.0
H3361 H 0.62304 0.48731 0.2155 0.0
H3362 H 0.59515 0.5647 0.15876 0.0
H3363 H 0.56713 0.55335 0.16904 0.0
H3364 H 0.58786 0.5751 0.18918 0.0
H3365 H 0.6198 0.46447 0.1766 0.0
H3366 H 0.5924 0.46703 0.15897 0.0
H3367 H 0.61984 0.48082 0.14924 0.0
H3368 H 0.53618 0.49595 0.10749 0.0
H3369 H 0.6043 0.52434 0.0855 0.0
H3370 H 0.5471 0.51258 0.17103 0.0
H3371 H 0.55539 0.48357 0.1674 0.0
H3372 H 0.52979 0.48974 0.14897 0.0
H3373 H 0.63019 0.54896 0.1448 0.0
H3374 H 0.63727 0.53808 0.11446 0.0
H3375 H 0.63815 0.51988 0.14033 0.0
C3376 C 0.24161 0.82395 0.93197 0.0
C3377 C 0.23396 0.84625 0.9329 0.0
C3378 C 0.24384 0.81133 0.90916 0.0
C3379 C 0.23752 0.82081 0.88657 0.0
C3380 C 0.22867 0.84276 0.88731 0.0
C3381 C 0.22736 0.85546 0.91051 0.0
C3382 C 0.25396 0.78833 0.90931 0.0
C3383 C 0.22127 0.85319 0.86363 0.0
C3384 C 0.26951 0.80287 0.83116 0.0
C3385 C 0.25345 0.78349 0.81903 0.0
C3386 C 0.26435 0.81535 0.85292 0.0
C3387 C 0.24227 0.80871 0.86243 0.0
C3388 C 0.22566 0.78956 0.84981 0.0
C3389 C 0.23164 0.77684 0.82842 0.0
C3390 C 0.28286 0.83513 0.86618 0.0
C3391 C 0.20168 0.78248 0.85897 0.0
H3392 H 0.24658 0.81656 0.94914 0.0
H3393 H 0.22119 0.87256 0.91111 0.0
H3394 H 0.24172 0.77358 0.89812 0.0
H3395 H 0.2709 0.79049 0.90057 0.0
H3396 H 0.25731 0.78301 0.9285 0.0
H3397 H 0.21062 0.8676 0.86725 0.0
H3398 H 0.23729 0.86085 0.85501 0.0
H3399 H 0.21083 0.83913 0.84989 0.0
H3400 H 0.28648 0.80787 0.82395 0.0
H3401 H 0.21919 0.76196 0.81884 0.0
H3402 H 0.28771 0.83077 0.88543 0.0
H3403 H 0.27568 0.85214 0.8678 0.0
H3404 H 0.29917 0.83801 0.85635 0.0
H3405 H 0.20374 0.77565 0.8776 0.0
H3406 H 0.19015 0.76844 0.84603 0.0
H3407 H 0.19272 0.79835 0.86119 0.0
C3408 C 0.91525 0.50112 0.71017 0.0
C3409 C 0.93318 0.50699 0.72988 0.0
C3410 C 0.92086 0.49881 0.68534 0.0
C3411 C 0.94488 0.50312 0.68031 0.0
C3412 C 0.96299 0.50911 0.70017 0.0
C3413 C 0.95692 0.51073 0.72473 0.0
C3414 C 0.90118 0.49192 0.66452 0.0
C3415 C 0.98877 0.5144 0.69549 0.0
C3416 C 0.96566 0.48262 0.61856 0.0
C3417 C 0.9667 0.50351 0.60632 0.0
C3418 C 0.95754 0.48187 0.64236 0.0
C3419 C 0.95121 0.50275 0.65428 0.0
C3420 C 0.9524 0.5239 0.64193 0.0
C3421 C 0.95976 0.52387 0.61788 0.0
C3422 C 0.95587 0.45886 0.6548 0.0
C3423 C 0.94656 0.54674 0.65437 0.0
H3424 H 0.89689 0.49802 0.71417 0.0
H3425 H 0.97083 0.51549 0.73994 0.0
H3426 H 0.90071 0.50683 0.65249 0.0
H3427 H 0.90447 0.47622 0.65253 0.0
H3428 H 0.88359 0.48755 0.67168 0.0
H3429 H 1.00067 0.51861 0.7131 0.0
H3430 H 0.99387 0.49886 0.68474 0.0
H3431 H 0.99169 0.52984 0.68409 0.0
H3432 H 0.97077 0.46682 0.60934 0.0
H3433 H 0.96065 0.54002 0.60831 0.0
H3434 H 0.93792 0.45399 0.66092 0.0
H3435 H 0.96862 0.46128 0.67174 0.0
H3436 H 0.95967 0.44377 0.64221 0.0
H3437 H 0.92825 0.5437 0.65992 0.0
H3438 H 0.94823 0.56156 0.64203 0.0
H3439 H 0.95861 0.55246 0.67166 0.0
C3440 C 0.27299 0.15107 0.40788 0.0
C3441 C 0.26107 0.15769 0.42834 0.0
C3442 C 0.2739 0.16446 0.38699 0.0
C3443 C 0.26211 0.18457 0.38631 0.0
C3444 C 0.24954 0.19089 0.40667 0.0
C3445 C 0.24943 0.17758 0.42754 0.0
C3446 C 0.28781 0.15734 0.36585 0.0
C3447 C 0.23615 0.21173 0.4064 0.0
C3448 C 0.28004 0.23278 0.34289 0.0
C3449 C 0.26344 0.22564 0.32211 0.0
C3450 C 0.28003 0.21941 0.36381 0.0
C3451 C 0.26263 0.19881 0.36418 0.0
C3452 C 0.24555 0.19187 0.34342 0.0
C3453 C 0.24635 0.20517 0.32257 0.0
C3454 C 0.29884 0.22712 0.38535 0.0
C3455 C 0.22632 0.17043 0.34326 0.0
H3456 H 0.2822 0.13585 0.4085 0.0
H3457 H 0.24011 0.18271 0.44327 0.0
H3458 H 0.27604 0.15312 0.3482 0.0
H3459 H 0.30172 0.17251 0.36296 0.0
H3460 H 0.29637 0.14155 0.36943 0.0
H3461 H 0.22661 0.21383 0.42333 0.0
H3462 H 0.24855 0.22855 0.40518 0.0
H3463 H 0.22313 0.20927 0.38966 0.0
H3464 H 0.29339 0.24846 0.34253 0.0
H3465 H 0.23335 0.19963 0.30663 0.0
H3466 H 0.30894 0.21234 0.38864 0.0
H3467 H 0.2905 0.23111 0.4027 0.0
H3468 H 0.31142 0.24322 0.38197 0.0
H3469 H 0.2343 0.15399 0.34477 0.0
H3470 H 0.21389 0.16791 0.32602 0.0
H3471 H 0.2161 0.1725 0.35966 0.0
C3472 C 0.32459 0.57041 0.52508 0.0
C3473 C 0.32774 0.59391 0.51817 0.0
C3474 C 0.3429 0.55668 0.52419 0.0
C3475 C 0.36485 0.5667 0.51618 0.0
C3476 C 0.36793 0.59023 0.50869 0.0
C3477 C 0.34937 0.60354 0.50982 0.0
C3478 C 0.33897 0.53168 0.53238 0.0
C3479 C 0.39106 0.60161 0.50008 0.0
C3480 C 0.42168 0.54695 0.54041 0.0
C3481 C 0.42747 0.5337 0.51937 0.0
C3482 C 0.40091 0.55696 0.53986 0.0
C3483 C 0.38534 0.55357 0.51772 0.0
C3484 C 0.39039 0.53915 0.49678 0.0
C3485 C 0.41148 0.52936 0.49783 0.0
C3486 C 0.39628 0.57215 0.56266 0.0
C3487 C 0.37406 0.53495 0.47294 0.0
H3488 H 0.30787 0.56278 0.53141 0.0
H3489 H 0.35189 0.62161 0.50424 0.0
H3490 H 0.3436 0.5188 0.51777 0.0
H3491 H 0.35075 0.53092 0.54955 0.0
H3492 H 0.32038 0.52584 0.53628 0.0
H3493 H 0.39012 0.61949 0.49346 0.0
H3494 H 0.40526 0.60367 0.5157 0.0
H3495 H 0.39624 0.58995 0.48471 0.0
H3496 H 0.4338 0.55016 0.55727 0.0
H3497 H 0.41587 0.51917 0.48152 0.0
H3498 H 0.37823 0.56613 0.56799 0.0
H3499 H 0.39727 0.59103 0.55832 0.0
H3500 H 0.40924 0.57153 0.57896 0.0
H3501 H 0.35554 0.52909 0.477 0.0
H3502 H 0.37911 0.5213 0.45941 0.0
H3503 H 0.37455 0.55195 0.46403 0.0
C3504 C 0.83878 0.93666 0.53605 0.0
C3505 C 0.83878 0.91324 0.54259 0.0
C3506 C 0.86014 0.95238 0.53508 0.0
C3507 C 0.88198 0.94464 0.54126 0.0
C3508 C 0.88199 0.92147 0.54923 0.0
C3509 C 0.86044 0.90601 0.54955 0.0
C3510 C 0.85935 0.97676 0.5261 0.0
C3511 C 0.90482 0.9126 0.5564 0.0
C3512 C 0.93705 0.96783 0.51062 0.0
C3513 C 0.95034 0.98365 0.52976 0.0
C3514 C 0.91438 0.95593 0.5138 0.0
C3515 C 0.90481 0.95954 0.5369 0.0
C3516 C 0.91782 0.97609 0.55608 0.0
C3517 C 0.9404 0.98815 0.55218 0.0
C3518 C 0.90102 0.93885 0.49265 0.0
C3519 C 0.90837 0.98023 0.58106 0.0
H3520 H 0.82212 0.94236 0.53054 0.0
H3521 H 0.86059 0.88804 0.5549 0.0
H3522 H 0.87086 0.99082 0.53896 0.0
H3523 H 0.86623 0.9774 0.50749 0.0
H3524 H 0.84111 0.98105 0.5245 0.0
H3525 H 0.90177 0.89524 0.56472 0.0
H3526 H 0.91445 0.91025 0.5396 0.0
H3527 H 0.91644 0.92593 0.56998 0.0
H3528 H 0.94455 0.9645 0.49312 0.0
H3529 H 0.95067 0.00028 0.56705 0.0
H3530 H 0.88289 0.94291 0.48872 0.0
H3531 H 0.89925 0.92026 0.49806 0.0
H3532 H 0.91002 0.93965 0.4752 0.0
H3533 H 0.89012 0.9843 0.57851 0.0
H3534 H 0.91962 0.99511 0.59319 0.0
H3535 H 0.9075 0.96369 0.59083 0.0
C3536 C 0.87027 0.08849 0.25747 0.0
C3537 C 0.85899 0.06595 0.2465 0.0
C3538 C 0.85843 0.10835 0.25822 0.0
C3539 C 0.83471 0.10576 0.24756 0.0
C3540 C 0.82332 0.08315 0.23609 0.0
C3541 C 0.83555 0.0635 0.23577 0.0
C3542 C 0.87131 0.13211 0.2706 0.0
C3543 C 0.79814 0.07967 0.22431 0.0
C3544 C 0.79961 0.15392 0.26978 0.0
C3545 C 0.80265 0.16983 0.25125 0.0
C3546 C 0.80934 0.13261 0.26847 0.0
C3547 C 0.82218 0.12696 0.24804 0.0
C3548 C 0.82442 0.14251 0.22881 0.0
C3549 C 0.81471 0.1637 0.23068 0.0
C3550 C 0.80673 0.11666 0.28949 0.0
C3551 C 0.83767 0.13707 0.20654 0.0
H3552 H 0.88833 0.09057 0.26593 0.0
H3553 H 0.82664 0.04615 0.22734 0.0
H3554 H 0.87221 0.14574 0.25692 0.0
H3555 H 0.86146 0.13842 0.286 0.0
H3556 H 0.8896 0.13109 0.27833 0.0
H3557 H 0.79183 0.06102 0.216 0.0
H3558 H 0.78624 0.08417 0.23853 0.0
H3559 H 0.79668 0.09198 0.20949 0.0
H3560 H 0.79045 0.15856 0.28579 0.0
H3561 H 0.81703 0.1758 0.2162 0.0
H3562 H 0.82436 0.11657 0.29951 0.0
H3563 H 0.79959 0.09796 0.28196 0.0
H3564 H 0.79489 0.12262 0.30314 0.0
H3565 H 0.85598 0.13476 0.21283 0.0
H3566 H 0.83862 0.15141 0.19365 0.0
H3567 H 0.82886 0.12002 0.19603 0.0
C3568 C 0.69891 0.0969 0.04311 0.0
C3569 C 0.70072 0.11385 0.02552 0.0
C3570 C 0.67691 0.08326 0.04632 0.0
C3571 C 0.65649 0.08637 0.0312 0.0
C3572 C 0.65848 0.10281 0.01276 0.0
C3573 C 0.68049 0.11648 0.01034 0.0
C3574 C 0.67538 0.06616 0.06638 0.0
C3575 C 0.63725 0.10633 0.99586 0.0
C3576 C 0.59922 0.0424 0.02015 0.0
C3577 C 0.58404 0.05524 0.03263 0.0
C3578 C 0.62345 0.05145 0.02091 0.0
C3579 C 0.63268 0.07348 0.03506 0.0
C3580 C 0.61778 0.08516 0.04975 0.0
C3581 C 0.5935 0.07611 0.04798 0.0
C3582 C 0.63855 0.03867 0.00457 0.0
C3583 C 0.62705 0.10831 0.06564 0.0
H3584 H 0.71452 0.09488 0.05493 0.0
H3585 H 0.68188 0.12933 0.99648 0.0
H3586 H 0.66466 0.07248 0.08097 0.0
H3587 H 0.66631 0.04814 0.05846 0.0
H3588 H 0.69309 0.06457 0.07535 0.0
H3589 H 0.64213 0.11859 0.98139 0.0
H3590 H 0.62816 0.08889 0.98639 0.0
H3591 H 0.62438 0.11388 0.00712 0.0
H3592 H 0.59185 0.02639 0.00801 0.0
H3593 H 0.58172 0.08599 0.05765 0.0
H3594 H 0.65609 0.03822 0.01457 0.0
H3595 H 0.64161 0.04851 0.98784 0.0
H3596 H 0.62994 0.02005 0.99818 0.0
H3597 H 0.6442 0.1073 0.07621 0.0
H3598 H 0.61439 0.11281 0.07908 0.0
H3599 H 0.63014 0.1231 0.05344 0.0
C3600 C 0.20494 0.45359 0.27073 0.0
C3601 C 0.18033 0.44903 0.27158 0.0
C3602 C 0.21847 0.43513 0.27243 0.0
C3603 C 0.20704 0.41158 0.27464 0.0
C3604 C 0.1822 0.40693 0.27559 0.0
C3605 C 0.16918 0.42575 0.27421 0.0
C3606 C 0.24492 0.44075 0.27155 0.0
C3607 C 0.16929 0.38196 0.27758 0.0
C3608 C 0.23007 0.35626 0.25108 0.0
C3609 C 0.23671 0.3471 0.27345 0.0
C3610 C 0.22215 0.37831 0.25114 0.0
C3611 C 0.22052 0.3913 0.27423 0.0
C3612 C 0.22894 0.38299 0.29685 0.0
C3613 C 0.2371 0.36088 0.29619 0.0
C3614 C 0.21361 0.38657 0.22657 0.0
C3615 C 0.22757 0.39643 0.32182 0.0
H3616 H 0.21366 0.47164 0.26898 0.0
H3617 H 0.15017 0.42215 0.2749 0.0
H3618 H 0.25412 0.43438 0.28798 0.0
H3619 H 0.25003 0.43117 0.25463 0.0
H3620 H 0.25126 0.46021 0.27124 0.0
H3621 H 0.15003 0.38151 0.27888 0.0
H3622 H 0.17164 0.37003 0.26099 0.0
H3623 H 0.17682 0.37454 0.2943 0.0
H3624 H 0.22998 0.34556 0.23349 0.0
H3625 H 0.24207 0.35362 0.31348 0.0
H3626 H 0.21962 0.40602 0.22602 0.0
H3627 H 0.19398 0.38337 0.22437 0.0
H3628 H 0.21993 0.37685 0.21043 0.0
H3629 H 0.23817 0.38977 0.33712 0.0
H3630 H 0.20887 0.39426 0.32621 0.0
H3631 H 0.23386 0.41585 0.3213 0.0
C3632 C 0.21087 0.44672 0.04937 0.0
C3633 C 0.20884 0.42287 0.03924 0.0
C3634 C 0.19108 0.45853 0.04919 0.0
C3635 C 0.16869 0.44626 0.03854 0.0
C3636 C 0.16657 0.4222 0.02825 0.0
C3637 C 0.18661 0.41081 0.02877 0.0
C3638 C 0.19409 0.4841 0.06052 0.0
C3639 C 0.14305 0.40842 0.01675 0.0
C3640 C 0.11192 0.46491 0.05877 0.0
C3641 C 0.10436 0.47688 0.03856 0.0
C3642 C 0.13317 0.45564 0.05937 0.0
C3643 C 0.14724 0.4581 0.0391 0.0
C3644 C 0.14011 0.47082 0.01895 0.0
C3645 C 0.11879 0.4802 0.01898 0.0
C3646 C 0.14015 0.44254 0.08141 0.0
C3647 C 0.15457 0.47378 0.99694 0.0
H3648 H 0.22798 0.45622 0.05743 0.0
H3649 H 0.18487 0.39244 0.02078 0.0
H3650 H 0.18813 0.49564 0.04645 0.0
H3651 H 0.18287 0.48528 0.07622 0.0
H3652 H 0.21274 0.49129 0.06761 0.0
H3653 H 0.14449 0.3901 0.00886 0.0
H3654 H 0.1302 0.40696 0.03105 0.0
H3655 H 0.13573 0.4181 0.00165 0.0
H3656 H 0.10096 0.46239 0.07408 0.0
H3657 H 0.11301 0.48932 0.00326 0.0
H3658 H 0.15847 0.45001 0.08935 0.0
H3659 H 0.13983 0.42341 0.07517 0.0
H3660 H 0.12812 0.44363 0.09643 0.0
H3661 H 0.17317 0.48165 0.00344 0.0
H3662 H 0.14744 0.48535 0.98353 0.0
H3663 H 0.1548 0.45599 0.98696 0.0
C3664 C 0.84452 0.93048 0.24107 0.0
C3665 C 0.86399 0.93519 0.25925 0.0
C3666 C 0.82847 0.90882 0.23936 0.0
C3667 C 0.8317 0.8917 0.25655 0.0
C3668 C 0.85095 0.89671 0.27534 0.0
C3669 C 0.86691 0.91822 0.2763 0.0
C3670 C 0.80839 0.90401 0.21884 0.0
C3671 C 0.85485 0.87922 0.29435 0.0
C3672 C 0.78193 0.84252 0.26879 0.0
C3673 C 0.78869 0.82219 0.25674 0.0
C3674 C 0.7952 0.86544 0.26807 0.0
C3675 C 0.81551 0.86818 0.25467 0.0
C3676 C 0.82161 0.84789 0.24132 0.0
C3677 C 0.80828 0.82517 0.24269 0.0
C3678 C 0.78827 0.88649 0.28288 0.0
C3679 C 0.84289 0.84998 0.22648 0.0
H3680 H 0.84216 0.94346 0.22778 0.0
H3681 H 0.88172 0.92181 0.29061 0.0
H3682 H 0.8102 0.88802 0.20641 0.0
H3683 H 0.79123 0.90002 0.22693 0.0
H3684 H 0.8079 0.91937 0.20739 0.0
H3685 H 0.86996 0.88632 0.30852 0.0
H3686 H 0.8387 0.87481 0.30413 0.0
H3687 H 0.85836 0.86229 0.2848 0.0
H3688 H 0.76695 0.84039 0.27986 0.0
H3689 H 0.81358 0.8096 0.23321 0.0
H3690 H 0.78755 0.90159 0.27115 0.0
H3691 H 0.80185 0.89284 0.29882 0.0
H3692 H 0.77084 0.88187 0.29033 0.0
H3693 H 0.84255 0.86454 0.21397 0.0
H3694 H 0.84375 0.83307 0.21502 0.0
H3695 H 0.85929 0.85466 0.23941 0.0
C3696 C 0.65032 0.09024 0.78571 0.0
C3697 C 0.65695 0.07076 0.77201 0.0
C3698 C 0.66349 0.1133 0.78639 0.0
C3699 C 0.68346 0.11706 0.77257 0.0
C3700 C 0.69018 0.09749 0.75862 0.0
C3701 C 0.67699 0.07453 0.75872 0.0
C3702 C 0.65605 0.13364 0.80193 0.0
C3703 C 0.71112 0.10089 0.74334 0.0
C3704 C 0.70044 0.18115 0.75728 0.0
C3705 C 0.71929 0.18958 0.77542 0.0
C3706 C 0.68943 0.15714 0.75525 0.0
C3707 C 0.69697 0.1416 0.77243 0.0
C3708 C 0.71641 0.15006 0.79049 0.0
C3709 C 0.72755 0.17397 0.79155 0.0
C3710 C 0.66906 0.14871 0.73546 0.0
C3711 C 0.72453 0.13434 0.80964 0.0
H3712 H 0.63498 0.08739 0.79622 0.0
H3713 H 0.68213 0.05956 0.74797 0.0
H3714 H 0.671 0.1425 0.8155 0.0
H3715 H 0.65127 0.14731 0.78972 0.0
H3716 H 0.64068 0.12755 0.81237 0.0
H3717 H 0.714 0.08383 0.73346 0.0
H3718 H 0.7084 0.11371 0.72931 0.0
H3719 H 0.7274 0.10867 0.75558 0.0
H3720 H 0.69391 0.19352 0.74517 0.0
H3721 H 0.74179 0.18085 0.80597 0.0
H3722 H 0.65236 0.1448 0.74444 0.0
H3723 H 0.67167 0.13189 0.72495 0.0
H3724 H 0.66699 0.16227 0.72204 0.0
H3725 H 0.71035 0.12981 0.82209 0.0
H3726 H 0.74081 0.14318 0.82137 0.0
H3727 H 0.72796 0.11728 0.80033 0.0
loop_
_geom_bond_atom_site_label_1
_geom_bond_atom_site_label_2
_geom_bond_distance
_geom_bond_site_symmetry_2
_ccdc_geom_bond_type
Co0 O1 2.216 . S
Co0 O2 2.091 . S
Co0 O4 2.004 1_455 S
Co0 O10 2.021 . S
Co0 O12 2.137 . S
Co0 O13 2.244 . S
O1 Co0 2.216 . S
O1 C8 1.247 . S
O2 Co0 2.091 . S
O2 C8 1.261 . S
C3 O12 1.247 . S
C3 O13 1.272 . S
O4 Co0 2.004 1_655 S
O4 C9 1.259 . S
Co5 O6 2.061 . S
Co5 O11 2.052 1_655 S
Co5 O13 2.135 1_655 S
O6 Co5 2.061 . S
O6 C9 1.235 . S
C7 O10 1.238 . S
C7 O11 1.241 . S
C8 O1 1.247 . S
C8 O2 1.261 . S
C9 O4 1.259 . S
C9 O6 1.235 . S
O10 Co0 2.021 . S
O10 C7 1.238 . S
O11 Co5 2.052 1_455 S
O11 C7 1.241 . S
O12 Co0 2.137 . S
O12 C3 1.247 . S
O13 Co0 2.244 . S
O13 C3 1.272 . S
O13 Co5 2.135 1_455 S
Co14 O15 2.216 1_455 S
Co14 O16 2.091 1_455 S
Co14 O18 2.004 . S
Co14 O24 2.021 . S
Co14 O26 2.137 . S
Co14 O27 2.244 . S
O15 Co14 2.216 1_655 S
O15 C22 1.247 . S
O16 Co14 2.091 1_655 S
O16 C22 1.261 . S
C17 O26 1.247 . S
C17 O27 1.272 . S
O18 Co14 2.004 . S
O18 C23 1.259 . S
Co19 O20 2.061 . S
Co19 O25 2.052 . S
Co19 O27 2.135 . S
O20 Co19 2.061 . S
O20 C23 1.235 . S
C21 O24 1.238 . S
C21 O25 1.241 . S
C22 O15 1.247 . S
C22 O16 1.261 . S
C23 O18 1.259 . S
C23 O20 1.235 . S
O24 Co14 2.021 . S
O24 C21 1.238 . S
O25 Co19 2.052 . S
O25 C21 1.241 . S
O26 Co14 2.137 . S
O26 C17 1.247 . S
O27 Co14 2.244 . S
O27 C17 1.272 . S
O27 Co19 2.135 . S
Co28 O29 2.216 . S
Co28 O30 2.091 . S
Co28 O32 2.004 . S
Co28 O38 2.021 . S
Co28 O40 2.137 . S
Co28 O41 2.244 . S
O29 Co28 2.216 . S
O29 C36 1.247 . S
O30 Co28 2.091 . S
O30 C36 1.261 . S
C31 O40 1.247 . S
C31 O41 1.272 . S
O32 Co28 2.004 . S
O32 C37 1.259 . S
Co33 O34 2.061 . S
Co33 O39 2.052 . S
Co33 O41 2.135 . S
O34 Co33 2.061 . S
O34 C37 1.235 . S
C35 O38 1.238 . S
C35 O39 1.241 . S
C36 O29 1.247 . S
C36 O30 1.261 . S
C37 O32 1.259 . S
C37 O34 1.235 . S
O38 Co28 2.021 . S
O38 C35 1.238 . S
O39 Co33 2.052 . S
O39 C35 1.241 . S
O40 Co28 2.137 . S
O40 C31 1.247 . S
O41 Co28 2.244 . S
O41 C31 1.272 . S
O41 Co33 2.135 . S
Co42 O43 2.216 . S
Co42 O44 2.091 . S
Co42 O46 2.004 . S
Co42 O52 2.021 . S
Co42 O54 2.137 . S
Co42 O55 2.244 . S
O43 Co42 2.216 . S
O43 C50 1.247 . S
O44 Co42 2.091 . S
O44 C50 1.261 . S
C45 O54 1.247 . S
C45 O55 1.272 . S
O46 Co42 2.004 . S
O46 C51 1.259 . S
Co47 O48 2.061 . S
Co47 O53 2.052 . S
Co47 O55 2.135 . S
O48 Co47 2.061 . S
O48 C51 1.235 . S
C49 O52 1.238 . S
C49 O53 1.241 . S
C50 O43 1.247 . S
C50 O44 1.261 . S
C51 O46 1.259 . S
C51 O48 1.235 . S
O52 Co42 2.021 . S
O52 C49 1.238 . S
O53 Co47 2.052 . S
O53 C49 1.241 . S
O54 Co42 2.137 . S
O54 C45 1.247 . S
O55 Co42 2.244 . S
O55 C45 1.272 . S
O55 Co47 2.135 . S
Co56 O57 2.216 1_455 S
Co56 O58 2.091 . S
Co56 O60 2.004 . S
Co56 O66 2.021 . S
Co56 O68 2.137 . S
Co56 O69 2.244 . S
O57 Co56 2.216 1_655 S
O57 C64 1.247 . S
O58 Co56 2.091 . S
O58 C64 1.261 1_455 S
C59 O68 1.247 . S
C59 O69 1.272 . S
O60 Co56 2.004 . S
O60 C65 1.259 . S
Co61 O62 2.061 . S
Co61 O67 2.052 . S
Co61 O69 2.135 . S
O62 Co61 2.061 . S
O62 C65 1.235 . S
C63 O66 1.238 . S
C63 O67 1.241 . S
C64 O57 1.247 . S
C64 O58 1.261 1_655 S
C65 O60 1.259 . S
C65 O62 1.235 . S
O66 Co56 2.021 . S
O66 C63 1.238 . S
O67 Co61 2.052 . S
O67 C63 1.241 . S
O68 Co56 2.137 . S
O68 C59 1.247 . S
O69 Co56 2.244 . S
O69 C59 1.272 . S
O69 Co61 2.135 . S
Co70 O71 2.216 . S
Co70 O72 2.091 . S
Co70 O74 2.004 . S
Co70 O80 2.021 . S
Co70 O82 2.137 . S
Co70 O83 2.244 . S
O71 Co70 2.216 . S
O71 C78 1.247 . S
O72 Co70 2.091 . S
O72 C78 1.261 . S
C73 O82 1.247 . S
C73 O83 1.272 . S
O74 Co70 2.004 . S
O74 C79 1.259 . S
Co75 O76 2.061 . S
Co75 O81 2.052 . S
Co75 O83 2.135 . S
O76 Co75 2.061 . S
O76 C79 1.235 . S
C77 O80 1.238 . S
C77 O81 1.241 . S
C78 O71 1.247 . S
C78 O72 1.261 . S
C79 O74 1.259 . S
C79 O76 1.235 . S
O80 Co70 2.021 . S
O80 C77 1.238 . S
O81 Co75 2.052 . S
O81 C77 1.241 . S
O82 Co70 2.137 . S
O82 C73 1.247 . S
O83 Co70 2.244 . S
O83 C73 1.272 . S
O83 Co75 2.135 . S
Co84 O85 2.216 . S
Co84 O86 2.091 . S
Co84 O88 2.004 . S
Co84 O94 2.021 . S
Co84 O96 2.137 . S
Co84 O97 2.244 . S
O85 Co84 2.216 . S
O85 C92 1.247 . S
O86 Co84 2.091 . S
O86 C92 1.261 . S
C87 O96 1.247 . S
C87 O97 1.272 . S
O88 Co84 2.004 . S
O88 C93 1.259 . S
Co89 O90 2.061 . S
Co89 O95 2.052 . S
Co89 O97 2.135 . S
O90 Co89 2.061 . S
O90 C93 1.235 . S
C91 O94 1.238 . S
C91 O95 1.241 . S
C92 O85 1.247 . S
C92 O86 1.261 . S
C93 O88 1.259 . S
C93 O90 1.235 . S
O94 Co84 2.021 . S
O94 C91 1.238 . S
O95 Co89 2.052 . S
O95 C91 1.241 . S
O96 Co84 2.137 . S
O96 C87 1.247 . S
O97 Co84 2.244 . S
O97 C87 1.272 . S
O97 Co89 2.135 . S
Co98 O99 2.216 . S
Co98 O100 2.091 . S
Co98 O102 2.004 1_455 S
Co98 O108 2.021 . S
Co98 O110 2.137 . S
Co98 O111 2.244 1_455 S
O99 Co98 2.216 . S
O99 C106 1.247 . S
O100 Co98 2.091 . S
O100 C106 1.261 . S
C101 O110 1.247 . S
C101 O111 1.272 1_455 S
O102 Co98 2.004 1_655 S
O102 C107 1.259 . S
Co103 O104 2.061 . S
Co103 O109 2.052 . S
Co103 O111 2.135 . S
O104 Co103 2.061 . S
O104 C107 1.235 . S
C105 O108 1.235 1_655 S
C105 O109 1.241 . S
C106 O99 1.247 . S
C106 O100 1.261 . S
C107 O102 1.259 . S
C107 O104 1.235 . S
O108 Co98 2.021 . S
O108 C105 1.235 1_455 S
O109 Co103 2.052 . S
O109 C105 1.241 . S
O110 Co98 2.137 . S
O110 C101 1.247 . S
O111 Co98 2.244 1_655 S
O111 C101 1.272 1_655 S
O111 Co103 2.135 . S
Co112 O113 2.216 . S
Co112 O114 2.091 . S
Co112 O116 2.004 1_545 S
Co112 O122 2.021 . S
Co112 O124 2.137 . S
Co112 O125 2.244 . S
O113 Co112 2.216 . S
O113 C120 1.247 . S
O114 Co112 2.091 . S
O114 C120 1.261 . S
C115 O124 1.247 . S
C115 O125 1.272 . S
O116 Co112 2.004 1_565 S
O116 C121 1.259 . S
Co117 O118 2.061 . S
Co117 O123 2.052 1_565 S
Co117 O125 2.135 1_565 S
O118 Co117 2.061 . S
O118 C121 1.235 . S
C119 O122 1.238 . S
C119 O123 1.241 . S
C120 O113 1.247 . S
C120 O114 1.261 . S
C121 O116 1.259 . S
C121 O118 1.235 . S
O122 Co112 2.021 . S
O122 C119 1.238 . S
O123 Co117 2.052 1_545 S
O123 C119 1.241 . S
O124 Co112 2.137 . S
O124 C115 1.247 . S
O125 Co112 2.244 . S
O125 C115 1.272 . S
O125 Co117 2.135 1_545 S
Co126 O127 2.216 . S
Co126 O128 2.091 . S
Co126 O130 2.004 . S
Co126 O136 2.021 . S
Co126 O138 2.137 . S
Co126 O139 2.244 . S
O127 Co126 2.216 . S
O127 C134 1.247 . S
O128 Co126 2.091 . S
O128 C134 1.261 . S
C129 O138 1.247 . S
C129 O139 1.272 . S
O130 Co126 2.004 . S
O130 C135 1.259 . S
Co131 O132 2.061 . S
Co131 O137 2.052 . S
Co131 O139 2.135 . S
O132 Co131 2.061 . S
O132 C135 1.235 . S
C133 O136 1.238 . S
C133 O137 1.241 . S
C134 O127 1.247 . S
C134 O128 1.261 . S
C135 O130 1.259 . S
C135 O132 1.235 . S
O136 Co126 2.021 . S
O136 C133 1.238 . S
O137 Co131 2.052 . S
O137 C133 1.241 . S
O138 Co126 2.137 . S
O138 C129 1.247 . S
O139 Co126 2.244 . S
O139 C129 1.272 . S
O139 Co131 2.135 . S
Co140 O141 2.216 1_545 S
Co140 O142 2.091 1_545 S
Co140 O144 2.004 . S
Co140 O150 2.021 . S
Co140 O152 2.137 . S
Co140 O153 2.244 . S
O141 Co140 2.216 1_565 S
O141 C148 1.247 . S
O142 Co140 2.091 1_565 S
O142 C148 1.261 . S
C143 O152 1.247 . S
C143 O153 1.272 . S
O144 Co140 2.004 . S
O144 C149 1.259 . S
Co145 O146 2.061 . S
Co145 O151 2.052 . S
Co145 O153 2.135 . S
O146 Co145 2.061 . S
O146 C149 1.235 . S
C147 O150 1.238 . S
C147 O151 1.241 . S
C148 O141 1.247 . S
C148 O142 1.261 . S
C149 O144 1.259 . S
C149 O146 1.235 . S
O150 Co140 2.021 . S
O150 C147 1.238 . S
O151 Co145 2.052 . S
O151 C147 1.241 . S
O152 Co140 2.137 . S
O152 C143 1.247 . S
O153 Co140 2.244 . S
O153 C143 1.272 . S
O153 Co145 2.135 . S
Co154 O155 2.216 . S
Co154 O156 2.091 . S
Co154 O158 2.004 . S
Co154 O164 2.021 . S
Co154 O166 2.137 1_554 S
Co154 O167 2.244 1_554 S
O155 Co154 2.216 . S
O155 C162 1.247 . S
O156 Co154 2.091 . S
O156 C162 1.261 . S
C157 O166 1.247 . S
C157 O167 1.272 . S
O158 Co154 2.004 . S
O158 C163 1.259 . S
Co159 O160 2.061 . S
Co159 O165 2.052 . S
Co159 O167 2.135 1_554 S
O160 Co159 2.061 . S
O160 C163 1.235 . S
C161 O164 1.238 . S
C161 O165 1.241 . S
C162 O155 1.247 . S
C162 O156 1.261 . S
C163 O158 1.259 . S
C163 O160 1.235 . S
O164 Co154 2.021 . S
O164 C161 1.238 . S
O165 Co159 2.052 . S
O165 C161 1.241 . S
O166 Co154 2.137 1_556 S
O166 C157 1.247 . S
O167 Co154 2.244 1_556 S
O167 C157 1.272 . S
O167 Co159 2.135 1_556 S
Co168 O169 2.216 . S
Co168 O170 2.091 . S
Co168 O172 2.004 . S
Co168 O178 2.021 . S
Co168 O180 2.137 . S
Co168 O181 2.244 . S
O169 Co168 2.216 . S
O169 C176 1.247 . S
O170 Co168 2.091 . S
O170 C176 1.261 . S
C171 O180 1.246 . S
C171 O181 1.311 . S
O172 Co168 2.004 . S
O172 C177 1.259 . S
Co173 O174 2.061 . S
Co173 O179 2.052 . S
Co173 O181 2.135 . S
O174 Co173 2.061 . S
O174 C177 1.235 . S
C175 O178 1.238 . S
C175 O179 1.241 . S
C176 O169 1.247 . S
C176 O170 1.261 . S
C177 O172 1.259 . S
C177 O174 1.235 . S
O178 Co168 2.021 . S
O178 C175 1.238 . S
O179 Co173 2.052 . S
O179 C175 1.241 . S
O180 Co168 2.137 . S
O180 C171 1.246 . S
O181 Co168 2.244 . S
O181 C171 1.311 . S
O181 Co173 2.135 . S
Co182 O183 2.216 . S
Co182 O184 2.091 . S
Co182 O186 2.004 . S
Co182 O192 2.021 . S
Co182 O194 2.137 1_554 S
Co182 O195 2.244 . S
O183 Co182 2.216 . S
O183 C190 1.247 . S
O184 Co182 2.091 . S
O184 C190 1.261 . S
C185 O194 1.247 . S
C185 O195 1.272 1_556 S
O186 Co182 2.004 . S
O186 C191 1.259 . S
Co187 O188 2.061 . S
Co187 O193 2.052 . S
Co187 O195 2.135 . S
O188 Co187 2.061 . S
O188 C191 1.235 . S
C189 O192 1.238 . S
C189 O193 1.241 . S
C190 O183 1.247 . S
C190 O184 1.261 . S
C191 O186 1.259 . S
C191 O188 1.235 . S
O192 Co182 2.021 . S
O192 C189 1.238 . S
O193 Co187 2.052 . S
O193 C189 1.241 . S
O194 Co182 2.137 1_556 S
O194 C185 1.247 . S
O195 Co182 2.244 . S
O195 C185 1.272 1_554 S
O195 Co187 2.135 . S
Co196 O197 2.216 . S
Co196 O198 2.091 . S
Co196 O200 2.004 . S
Co196 O206 2.021 . S
Co196 O208 2.137 . S
Co196 O209 2.244 . S
O197 Co196 2.216 . S
O197 C204 1.247 . S
O198 Co196 2.091 . S
O198 C204 1.261 . S
C199 O208 1.247 . S
C199 O209 1.272 . S
O200 Co196 2.004 . S
O200 C205 1.259 . S
Co201 O202 2.061 . S
Co201 O207 2.052 . S
Co201 O209 2.135 . S
O202 Co201 2.061 . S
O202 C205 1.235 . S
C203 O206 1.238 . S
C203 O207 1.241 . S
C204 O197 1.247 . S
C204 O198 1.261 . S
C205 O200 1.259 . S
C205 O202 1.235 . S
O206 Co196 2.021 . S
O206 C203 1.238 . S
O207 Co201 2.052 . S
O207 C203 1.241 . S
O208 Co196 2.137 . S
O208 C199 1.247 . S
O209 Co196 2.244 . S
O209 C199 1.272 . S
O209 Co201 2.135 . S
Co210 O211 2.216 . S
Co210 O212 2.091 . S
Co210 O214 2.004 . S
Co210 O220 2.021 . S
Co210 O222 2.137 . S
Co210 O223 2.244 . S
O211 Co210 2.216 . S
O211 C218 1.247 . S
O212 Co210 2.091 . S
O212 C218 1.261 . S
C213 O222 1.247 . S
C213 O223 1.272 . S
O214 Co210 2.004 . S
O214 C219 1.259 . S
Co215 O216 2.061 . S
Co215 O221 2.052 . S
Co215 O223 2.135 . S
O216 Co215 2.061 . S
O216 C219 1.235 . S
C217 O220 1.238 . S
C217 O221 1.241 . S
C218 O211 1.247 . S
C218 O212 1.261 . S
C219 O214 1.259 . S
C219 O216 1.235 . S
O220 Co210 2.021 . S
O220 C217 1.238 . S
O221 Co215 2.052 . S
O221 C217 1.241 . S
O222 Co210 2.137 . S
O222 C213 1.247 . S
O223 Co210 2.244 . S
O223 C213 1.272 . S
O223 Co215 2.135 . S
Co224 O225 2.216 . S
Co224 O226 2.091 . S
Co224 O228 2.004 1_545 S
Co224 O234 2.021 . S
Co224 O236 2.137 . S
Co224 O237 2.244 . S
O225 Co224 2.216 . S
O225 C232 1.247 . S
O226 Co224 2.091 . S
O226 C232 1.261 . S
C227 O236 1.247 . S
C227 O237 1.272 . S
O228 Co224 2.004 1_565 S
O228 C233 1.259 . S
Co229 O230 2.061 . S
Co229 O235 2.052 . S
Co229 O237 2.135 1_565 S
O230 Co229 2.061 . S
O230 C233 1.235 . S
C231 O234 1.238 . S
C231 O235 1.241 1_545 S
C232 O225 1.247 . S
C232 O226 1.261 . S
C233 O228 1.259 . S
C233 O230 1.235 . S
O234 Co224 2.021 . S
O234 C231 1.238 . S
O235 Co229 2.052 . S
O235 C231 1.241 1_565 S
O236 Co224 2.137 . S
O236 C227 1.247 . S
O237 Co224 2.244 . S
O237 C227 1.272 . S
O237 Co229 2.135 1_545 S
Co238 O239 2.216 . S
Co238 O240 2.091 . S
Co238 O242 2.004 . S
Co238 O248 2.021 . S
Co238 O250 2.137 . S
Co238 O251 2.244 . S
O239 Co238 2.216 . S
O239 C246 1.247 . S
O240 Co238 2.091 . S
O240 C246 1.261 . S
C241 O250 1.247 . S
C241 O251 1.272 . S
O242 Co238 2.004 . S
O242 C247 1.259 . S
Co243 O244 2.061 . S
Co243 O249 2.052 . S
Co243 O251 2.135 . S
O244 Co243 2.061 . S
O244 C247 1.235 . S
C245 O248 1.238 . S
C245 O249 1.241 . S
C246 O239 1.247 . S
C246 O240 1.261 . S
C247 O242 1.259 . S
C247 O244 1.235 . S
O248 Co238 2.021 . S
O248 C245 1.238 . S
O249 Co243 2.052 . S
O249 C245 1.241 . S
O250 Co238 2.137 . S
O250 C241 1.247 . S
O251 Co238 2.244 . S
O251 C241 1.272 . S
O251 Co243 2.135 . S
Co252 O253 2.216 . S
Co252 O254 2.091 . S
Co252 O256 2.004 . S
Co252 O262 2.021 . S
Co252 O264 2.137 . S
Co252 O265 2.244 . S
O253 Co252 2.216 . S
O253 C260 1.247 . S
O254 Co252 2.091 . S
O254 C260 1.261 . S
C255 O264 1.247 . S
C255 O265 1.272 . S
O256 Co252 2.004 . S
O256 C261 1.259 . S
Co257 O258 2.061 . S
Co257 O263 2.052 . S
Co257 O265 2.135 . S
O258 Co257 2.061 . S
O258 C261 1.235 . S
C259 O262 1.238 . S
C259 O263 1.241 . S
C260 O253 1.247 . S
C260 O254 1.261 . S
C261 O256 1.259 . S
C261 O258 1.235 . S
O262 Co252 2.021 . S
O262 C259 1.238 . S
O263 Co257 2.052 . S
O263 C259 1.241 . S
O264 Co252 2.137 . S
O264 C255 1.247 . S
O265 Co252 2.244 . S
O265 C255 1.272 . S
O265 Co257 2.135 . S
Co266 O267 2.216 . S
Co266 O268 2.091 . S
Co266 O270 2.004 1_565 S
Co266 O276 2.021 . S
Co266 O278 2.137 . S
Co266 O279 2.244 1_565 S
O267 Co266 2.216 . S
O267 C274 1.247 . S
O268 Co266 2.091 . S
O268 C274 1.261 . S
C269 O278 1.234 1_545 S
C269 O279 1.283 . S
O270 Co266 2.004 1_545 S
O270 C275 1.259 . S
Co271 O272 2.061 . S
Co271 O277 2.052 . S
Co271 O279 2.135 . S
O272 Co271 2.061 . S
O272 C275 1.235 . S
C273 O276 1.237 . S
C273 O277 1.242 1_565 S
C274 O267 1.247 . S
C274 O268 1.261 . S
C275 O270 1.259 . S
C275 O272 1.235 . S
O276 Co266 2.021 . S
O276 C273 1.237 . S
O277 Co271 2.052 . S
O277 C273 1.242 1_545 S
O278 Co266 2.137 . S
O278 C269 1.234 1_565 S
O279 Co266 2.244 1_545 S
O279 C269 1.283 . S
O279 Co271 2.135 . S
Co280 O281 2.216 . S
Co280 O282 2.093 . S
Co280 O284 2.004 . S
Co280 O290 2.021 1_556 S
Co280 O292 2.137 . S
Co280 O293 2.244 . S
O281 Co280 2.216 . S
O281 C288 1.242 1_556 S
O282 Co280 2.093 . S
O282 C288 1.267 1_556 S
C283 O292 1.247 . S
C283 O293 1.272 . S
O284 Co280 2.004 . S
O284 C289 1.259 . S
Co285 O286 2.065 1_554 S
Co285 O291 2.060 . S
Co285 O293 2.129 1_554 S
O286 Co285 2.065 1_556 S
O286 C289 1.237 . S
C287 O290 1.238 . S
C287 O291 1.241 . S
C288 O281 1.242 1_554 S
C288 O282 1.267 1_554 S
C289 O284 1.259 . S
C289 O286 1.237 . S
O290 Co280 2.021 1_554 S
O290 C287 1.238 . S
O291 Co285 2.060 . S
O291 C287 1.241 . S
O292 Co280 2.137 . S
O292 C283 1.247 . S
O293 Co280 2.244 . S
O293 C283 1.272 . S
O293 Co285 2.129 1_556 S
Co294 O295 2.216 . S
Co294 O296 2.091 . S
Co294 O298 2.004 . S
Co294 O304 2.021 . S
Co294 O306 2.137 . S
Co294 O307 2.244 . S
O295 Co294 2.216 . S
O295 C302 1.247 . S
O296 Co294 2.091 . S
O296 C302 1.261 . S
C297 O306 1.247 . S
C297 O307 1.272 . S
O298 Co294 2.004 . S
O298 C303 1.259 . S
Co299 O300 2.061 . S
Co299 O305 2.052 . S
Co299 O307 2.135 . S
O300 Co299 2.061 . S
O300 C303 1.235 . S
C301 O304 1.238 . S
C301 O305 1.241 . S
C302 O295 1.247 . S
C302 O296 1.261 . S
C303 O298 1.259 . S
C303 O300 1.235 . S
O304 Co294 2.021 . S
O304 C301 1.238 . S
O305 Co299 2.052 . S
O305 C301 1.241 . S
O306 Co294 2.137 . S
O306 C297 1.247 . S
O307 Co294 2.244 . S
O307 C297 1.272 . S
O307 Co299 2.135 . S
Co308 O309 2.216 . S
Co308 O310 2.091 . S
Co308 O312 2.004 . S
Co308 O318 2.021 . S
Co308 O320 2.137 . S
Co308 O321 2.244 . S
O309 Co308 2.216 . S
O309 C316 1.247 . S
O310 Co308 2.091 . S
O310 C316 1.261 . S
C311 O320 1.247 . S
C311 O321 1.272 . S
O312 Co308 2.004 . S
O312 C317 1.259 . S
Co313 O314 2.061 . S
Co313 O319 2.052 . S
Co313 O321 2.135 . S
O314 Co313 2.061 . S
O314 C317 1.235 . S
C315 O318 1.238 . S
C315 O319 1.241 . S
C316 O309 1.247 . S
C316 O310 1.261 . S
C317 O312 1.259 . S
C317 O314 1.235 . S
O318 Co308 2.021 . S
O318 C315 1.238 . S
O319 Co313 2.052 . S
O319 C315 1.241 . S
O320 Co308 2.137 . S
O320 C311 1.247 . S
O321 Co308 2.244 . S
O321 C311 1.272 . S
O321 Co313 2.135 . S
Co322 O323 2.216 . S
Co322 O324 2.091 . S
Co322 O326 2.004 . S
Co322 O332 2.021 . S
Co322 O334 2.137 . S
Co322 O335 2.244 . S
O323 Co322 2.216 . S
O323 C330 1.247 . S
O324 Co322 2.091 . S
O324 C330 1.261 . S
C325 O334 1.247 . S
C325 O335 1.272 . S
O326 Co322 2.004 . S
O326 C331 1.259 . S
Co327 O328 2.061 . S
Co327 O333 2.052 . S
Co327 O335 2.135 . S
O328 Co327 2.061 . S
O328 C331 1.235 . S
C329 O332 1.238 . S
C329 O333 1.241 . S
C330 O323 1.247 . S
C330 O324 1.261 . S
C331 O326 1.259 . S
C331 O328 1.235 . S
O332 Co322 2.021 . S
O332 C329 1.238 . S
O333 Co327 2.052 . S
O333 C329 1.241 . S
O334 Co322 2.137 . S
O334 C325 1.247 . S
O335 Co322 2.244 . S
O335 C325 1.272 . S
O335 Co327 2.135 . S
Zn336 O342 1.969 . S
Zn336 O343 1.965 1_565 S
Zn336 O347 2.024 . S
Zn336 O352 1.969 1_565 S
Zn337 O344 1.969 1_654 S
Zn337 O350 1.969 1_554 S
Zn337 O351 1.965 . S
Zn337 O353 2.024 1_655 S
C338 O339 1.229 . S
C338 O347 1.058 . S
O339 C338 1.229 . S
C340 O341 1.229 1_454 S
C340 O353 1.058 . S
O341 C340 1.229 1_656 S
O342 Zn336 1.969 . S
O342 C345 1.267 . S
O343 Zn336 1.965 1_545 S
O343 C354 1.260 1_554 S
O344 Zn337 1.969 1_456 S
O344 C354 1.258 . S
C345 O342 1.267 . S
C345 O346 1.228 . S
O346 C345 1.228 . S
O347 Zn336 2.024 . S
O347 C338 1.058 . S
C348 O349 1.228 . S
C348 O350 1.267 1_554 S
O349 C348 1.228 . S
O350 Zn337 1.969 1_556 S
O350 C348 1.267 1_556 S
O351 Zn337 1.965 . S
O351 C355 1.260 1_655 S
O352 Zn336 1.969 1_545 S
O352 C355 1.258 . S
O353 Zn337 2.024 1_455 S
O353 C340 1.058 . S
C354 O343 1.260 1_556 S
C354 O344 1.258 . S
C355 O351 1.260 1_455 S
C355 O352 1.258 . S
Zn356 O362 1.969 . S
Zn356 O363 1.965 . S
Zn356 O367 2.024 . S
Zn356 O372 1.969 . S
Zn357 O364 1.969 . S
Zn357 O370 1.969 . S
Zn357 O371 1.965 . S
Zn357 O373 2.024 . S
C358 O359 1.229 . S
C358 O367 1.058 . S
O359 C358 1.229 . S
C360 O361 1.229 . S
C360 O373 1.058 . S
O361 C360 1.229 . S
O362 Zn356 1.969 . S
O362 C365 1.267 . S
O363 Zn356 1.965 . S
O363 C374 1.260 . S
O364 Zn357 1.969 . S
O364 C374 1.258 . S
C365 O362 1.267 . S
C365 O366 1.228 . S
O366 C365 1.228 . S
O367 Zn356 2.024 . S
O367 C358 1.058 . S
C368 O369 1.228 . S
C368 O370 1.267 . S
O369 C368 1.228 . S
O370 Zn357 1.969 . S
O370 C368 1.267 . S
O371 Zn357 1.965 . S
O371 C375 1.260 . S
O372 Zn356 1.969 . S
O372 C375 1.258 . S
O373 Zn357 2.024 . S
O373 C360 1.058 . S
C374 O363 1.260 . S
C374 O364 1.258 . S
C375 O371 1.260 . S
C375 O372 1.258 . S
Zn376 O382 1.969 . S
Zn376 O383 1.965 . S
Zn376 O387 2.024 . S
Zn376 O392 1.969 . S
Zn377 O384 1.969 . S
Zn377 O390 1.969 . S
Zn377 O391 1.965 1_565 S
Zn377 O393 2.024 . S
C378 O379 1.229 . S
C378 O387 1.058 . S
O379 C378 1.229 . S
C380 O381 1.229 . S
C380 O393 1.058 . S
O381 C380 1.229 . S
O382 Zn376 1.969 . S
O382 C385 1.267 . S
O383 Zn376 1.965 . S
O383 C394 1.260 . S
O384 Zn377 1.969 . S
O384 C394 1.258 1_565 S
C385 O382 1.267 . S
C385 O386 1.228 . S
O386 C385 1.228 . S
O387 Zn376 2.024 . S
O387 C378 1.058 . S
C388 O389 1.228 . S
C388 O390 1.267 . S
O389 C388 1.228 . S
O390 Zn377 1.969 . S
O390 C388 1.267 . S
O391 Zn377 1.965 1_545 S
O391 C395 1.260 . S
O392 Zn376 1.969 . S
O392 C395 1.258 . S
O393 Zn377 2.024 . S
O393 C380 1.058 . S
C394 O383 1.260 . S
C394 O384 1.258 1_545 S
C395 O391 1.260 . S
C395 O392 1.258 . S
Zn396 O402 1.969 . S
Zn396 O403 1.965 . S
Zn396 O407 2.024 . S
Zn396 O412 1.969 . S
Zn397 O404 1.969 . S
Zn397 O410 1.969 . S
Zn397 O411 1.965 . S
Zn397 O413 2.024 . S
C398 O399 1.229 . S
C398 O407 1.058 . S
O399 C398 1.229 . S
C400 O401 1.229 . S
C400 O413 1.058 . S
O401 C400 1.229 . S
O402 Zn396 1.969 . S
O402 C405 1.267 . S
O403 Zn396 1.965 . S
O403 C414 1.260 . S
O404 Zn397 1.969 . S
O404 C414 1.258 . S
C405 O402 1.267 . S
C405 O406 1.228 . S
O406 C405 1.228 . S
O407 Zn396 2.024 . S
O407 C398 1.058 . S
C408 O409 1.228 . S
C408 O410 1.267 . S
O409 C408 1.228 . S
O410 Zn397 1.969 . S
O410 C408 1.267 . S
O411 Zn397 1.965 . S
O411 C415 1.260 . S
O412 Zn396 1.969 . S
O412 C415 1.258 . S
O413 Zn397 2.024 . S
O413 C400 1.058 . S
C414 O403 1.260 . S
C414 O404 1.258 . S
C415 O411 1.260 . S
C415 O412 1.258 . S
Zn416 O422 1.969 . S
Zn416 O423 1.965 1_455 S
Zn416 O427 2.024 1_565 S
Zn416 O432 1.969 1_565 S
Zn417 O424 1.969 1_455 S
Zn417 O430 1.969 1_455 S
Zn417 O431 1.965 . S
Zn417 O433 2.024 . S
C418 O419 1.229 1_545 S
C418 O427 1.058 . S
O419 C418 1.229 1_565 S
C420 O421 1.229 . S
C420 O433 1.058 1_655 S
O421 C420 1.229 . S
O422 Zn416 1.969 . S
O422 C425 1.267 . S
O423 Zn416 1.965 1_655 S
O423 C434 1.260 . S
O424 Zn417 1.969 1_655 S
O424 C434 1.258 1_545 S
C425 O422 1.267 . S
C425 O426 1.228 . S
O426 C425 1.228 . S
O427 Zn416 2.024 1_545 S
O427 C418 1.058 . S
C428 O429 1.228 . S
C428 O430 1.267 1_455 S
O429 C428 1.228 . S
O430 Zn417 1.969 1_655 S
O430 C428 1.267 1_655 S
O431 Zn417 1.965 . S
O431 C435 1.260 . S
O432 Zn416 1.969 1_545 S
O432 C435 1.258 . S
O433 Zn417 2.024 . S
O433 C420 1.058 1_455 S
C434 O423 1.260 . S
C434 O424 1.258 1_565 S
C435 O431 1.260 . S
C435 O432 1.258 . S
Zn436 O442 1.969 . S
Zn436 O443 1.965 . S
Zn436 O447 2.024 . S
Zn436 O452 1.969 . S
Zn437 O444 1.969 . S
Zn437 O450 1.969 . S
Zn437 O451 1.965 . S
Zn437 O453 2.024 . S
C438 O439 1.229 . S
C438 O447 1.058 . S
O439 C438 1.229 . S
C440 O441 1.229 . S
C440 O453 1.058 . S
O441 C440 1.229 . S
O442 Zn436 1.969 . S
O442 C445 1.267 . S
O443 Zn436 1.965 . S
O443 C454 1.260 . S
O444 Zn437 1.969 . S
O444 C454 1.258 . S
C445 O442 1.267 . S
C445 O446 1.228 . S
O446 C445 1.228 . S
O447 Zn436 2.024 . S
O447 C438 1.058 . S
C448 O449 1.228 . S
C448 O450 1.267 . S
O449 C448 1.228 . S
O450 Zn437 1.969 . S
O450 C448 1.267 . S
O451 Zn437 1.965 . S
O451 C455 1.260 . S
O452 Zn436 1.969 . S
O452 C455 1.258 . S
O453 Zn437 2.024 . S
O453 C440 1.058 . S
C454 O443 1.260 . S
C454 O444 1.258 . S
C455 O451 1.260 . S
C455 O452 1.258 . S
Zn456 O462 1.969 . S
Zn456 O463 1.965 1_545 S
Zn456 O467 2.024 1_556 S
Zn456 O472 1.969 1_556 S
Zn457 O464 1.998 . S
Zn457 O470 1.983 . S
Zn457 O471 1.937 1_565 S
Zn457 O473 2.014 1_565 S
C458 O459 1.229 . S
C458 O467 1.058 . S
O459 C458 1.229 . S
C460 O461 1.229 . S
C460 O473 1.058 1_565 S
O461 C460 1.229 . S
O462 Zn456 1.969 . S
O462 C465 1.267 . S
O463 Zn456 1.965 1_565 S
O463 C474 1.260 1_556 S
O464 Zn457 1.998 . S
O464 C474 1.258 . S
C465 O462 1.267 . S
C465 O466 1.228 . S
O466 C465 1.228 . S
O467 Zn456 2.024 1_554 S
O467 C458 1.058 . S
C468 O469 1.228 . S
C468 O470 1.267 1_545 S
O469 C468 1.228 . S
O470 Zn457 1.983 . S
O470 C468 1.267 1_565 S
O471 Zn457 1.937 1_545 S
O471 C475 1.260 . S
O472 Zn456 1.969 1_554 S
O472 C475 1.258 . S
O473 Zn457 2.014 1_545 S
O473 C460 1.058 1_545 S
C474 O463 1.260 1_554 S
C474 O464 1.258 . S
C475 O471 1.260 . S
C475 O472 1.258 . S
Zn476 O482 1.969 . S
Zn476 O483 1.965 . S
Zn476 O487 2.024 . S
Zn476 O492 1.969 . S
Zn477 O484 1.969 . S
Zn477 O490 1.969 . S
Zn477 O491 1.965 . S
Zn477 O493 2.024 . S
C478 O479 1.229 . S
C478 O487 1.058 . S
O479 C478 1.229 . S
C480 O481 1.229 . S
C480 O493 1.058 . S
O481 C480 1.229 . S
O482 Zn476 1.969 . S
O482 C485 1.267 . S
O483 Zn476 1.965 . S
O483 C494 1.260 . S
O484 Zn477 1.969 . S
O484 C494 1.258 . S
C485 O482 1.267 . S
C485 O486 1.228 . S
O486 C485 1.228 . S
O487 Zn476 2.024 . S
O487 C478 1.058 . S
C488 O489 1.228 . S
C488 O490 1.267 . S
O489 C488 1.228 . S
O490 Zn477 1.969 . S
O490 C488 1.267 . S
O491 Zn477 1.965 . S
O491 C495 1.260 . S
O492 Zn476 1.969 . S
O492 C495 1.258 . S
O493 Zn477 2.024 . S
O493 C480 1.058 . S
C494 O483 1.260 . S
C494 O484 1.258 . S
C495 O491 1.260 . S
C495 O492 1.258 . S
Zn496 O502 1.969 . S
Zn496 O503 1.965 . S
Zn496 O507 2.024 . S
Zn496 O512 1.969 . S
Zn497 O504 1.969 1_556 S
Zn497 O510 1.969 1_556 S
Zn497 O511 1.965 1_556 S
Zn497 O513 2.024 . S
C498 O499 1.229 . S
C498 O507 1.058 . S
O499 C498 1.229 . S
C500 O501 1.229 . S
C500 O513 1.058 . S
O501 C500 1.229 . S
O502 Zn496 1.969 . S
O502 C505 1.267 . S
O503 Zn496 1.965 . S
O503 C514 1.260 . S
O504 Zn497 1.969 1_554 S
O504 C514 1.258 . S
C505 O502 1.267 . S
C505 O506 1.228 . S
O506 C505 1.228 . S
O507 Zn496 2.024 . S
O507 C498 1.058 . S
C508 O509 1.228 . S
C508 O510 1.267 1_556 S
O509 C508 1.228 . S
O510 Zn497 1.969 1_554 S
O510 C508 1.267 1_554 S
O511 Zn497 1.965 1_554 S
O511 C515 1.260 . S
O512 Zn496 1.969 . S
O512 C515 1.258 . S
O513 Zn497 2.024 . S
O513 C500 1.058 . S
C514 O503 1.260 . S
C514 O504 1.258 . S
C515 O511 1.260 . S
C515 O512 1.258 . S
Zn516 O522 1.969 . S
Zn516 O523 1.965 . S
Zn516 O527 2.024 . S
Zn516 O532 1.969 . S
Zn517 O524 1.969 . S
Zn517 O530 1.969 . S
Zn517 O531 1.965 . S
Zn517 O533 2.024 . S
C518 O519 1.229 . S
C518 O527 1.058 . S
O519 C518 1.229 . S
C520 O521 1.229 . S
C520 O533 1.058 . S
O521 C520 1.229 . S
O522 Zn516 1.969 . S
O522 C525 1.267 . S
O523 Zn516 1.965 . S
O523 C534 1.260 . S
O524 Zn517 1.969 . S
O524 C534 1.258 . S
C525 O522 1.267 . S
C525 O526 1.228 . S
O526 C525 1.228 . S
O527 Zn516 2.024 . S
O527 C518 1.058 . S
C528 O529 1.228 . S
C528 O530 1.267 . S
O529 C528 1.228 . S
O530 Zn517 1.969 . S
O530 C528 1.267 . S
O531 Zn517 1.965 . S
O531 C535 1.260 . S
O532 Zn516 1.969 . S
O532 C535 1.258 . S
O533 Zn517 2.024 . S
O533 C520 1.058 . S
C534 O523 1.260 . S
C534 O524 1.258 . S
C535 O531 1.260 . S
C535 O532 1.258 . S
Zn536 O542 1.969 . S
Zn536 O543 1.965 . S
Zn536 O547 2.024 . S
Zn536 O552 1.969 . S
Zn537 O544 1.969 . S
Zn537 O550 1.969 . S
Zn537 O551 1.965 1_655 S
Zn537 O553 2.024 . S
C538 O539 1.229 . S
C538 O547 1.058 . S
O539 C538 1.229 . S
C540 O541 1.229 . S
C540 O553 1.058 . S
O541 C540 1.229 . S
O542 Zn536 1.969 . S
O542 C545 1.267 . S
O543 Zn536 1.965 . S
O543 C554 1.260 . S
O544 Zn537 1.969 . S
O544 C554 1.258 1_655 S
C545 O542 1.267 . S
C545 O546 1.228 . S
O546 C545 1.228 . S
O547 Zn536 2.024 . S
O547 C538 1.058 . S
C548 O549 1.228 . S
C548 O550 1.267 . S
O549 C548 1.228 . S
O550 Zn537 1.969 . S
O550 C548 1.267 . S
O551 Zn537 1.965 1_455 S
O551 C555 1.260 . S
O552 Zn536 1.969 . S
O552 C555 1.258 . S
O553 Zn537 2.024 . S
O553 C540 1.058 . S
C554 O543 1.260 . S
C554 O544 1.258 1_455 S
C555 O551 1.260 . S
C555 O552 1.258 . S
Zn556 O562 1.969 . S
Zn556 O563 1.965 . S
Zn556 O567 2.024 . S
Zn556 O572 1.969 . S
Zn557 O564 1.969 . S
Zn557 O570 1.969 . S
Zn557 O571 1.965 . S
Zn557 O573 2.024 . S
C558 O559 1.229 . S
C558 O567 1.058 . S
O559 C558 1.229 . S
C560 O561 1.229 . S
C560 O573 1.058 . S
O561 C560 1.229 . S
O562 Zn556 1.969 . S
O562 C565 1.267 . S
O563 Zn556 1.965 . S
O563 C574 1.260 . S
O564 Zn557 1.969 . S
O564 C574 1.258 . S
C565 O562 1.267 . S
C565 O566 1.228 . S
O566 C565 1.228 . S
O567 Zn556 2.024 . S
O567 C558 1.058 . S
C568 O569 1.228 . S
C568 O570 1.267 . S
O569 C568 1.228 . S
O570 Zn557 1.969 . S
O570 C568 1.267 . S
O571 Zn557 1.965 . S
O571 C575 1.260 . S
O572 Zn556 1.969 . S
O572 C575 1.258 . S
O573 Zn557 2.024 . S
O573 C560 1.058 . S
C574 O563 1.260 . S
C574 O564 1.258 . S
C575 O571 1.260 . S
C575 O572 1.258 . S
Zn576 O582 1.969 . S
Zn576 O583 1.965 . S
Zn576 O587 2.024 . S
Zn576 O592 1.969 . S
Zn577 O584 1.969 . S
Zn577 O590 1.969 . S
Zn577 O591 1.965 . S
Zn577 O593 2.024 . S
C578 O579 1.229 . S
C578 O587 1.058 . S
O579 C578 1.229 . S
C580 O581 1.229 . S
C580 O593 1.058 . S
O581 C580 1.229 . S
O582 Zn576 1.969 . S
O582 C585 1.267 . S
O583 Zn576 1.965 . S
O583 C594 1.260 . S
O584 Zn577 1.969 . S
O584 C594 1.258 . S
C585 O582 1.267 . S
C585 O586 1.228 . S
O586 C585 1.228 . S
O587 Zn576 2.024 . S
O587 C578 1.058 . S
C588 O589 1.228 . S
C588 O590 1.267 . S
O589 C588 1.228 . S
O590 Zn577 1.969 . S
O590 C588 1.267 . S
O591 Zn577 1.965 . S
O591 C595 1.260 . S
O592 Zn576 1.969 . S
O592 C595 1.258 . S
O593 Zn577 2.024 . S
O593 C580 1.058 . S
C594 O583 1.260 . S
C594 O584 1.258 . S
C595 O591 1.260 . S
C595 O592 1.258 . S
Zn596 O602 1.969 . S
Zn596 O603 1.965 . S
Zn596 O607 2.024 . S
Zn596 O612 1.969 . S
Zn597 O604 1.969 . S
Zn597 O610 1.969 . S
Zn597 O611 1.965 . S
Zn597 O613 2.024 . S
C598 O599 1.229 . S
C598 O607 1.058 . S
O599 C598 1.229 . S
C600 O601 1.229 . S
C600 O613 1.058 . S
O601 C600 1.229 . S
O602 Zn596 1.969 . S
O602 C605 1.267 . S
O603 Zn596 1.965 . S
O603 C614 1.260 . S
O604 Zn597 1.969 . S
O604 C614 1.258 . S
C605 O602 1.267 . S
C605 O606 1.228 . S
O606 C605 1.228 . S
O607 Zn596 2.024 . S
O607 C598 1.058 . S
C608 O609 1.228 . S
C608 O610 1.267 . S
O609 C608 1.228 . S
O610 Zn597 1.969 . S
O610 C608 1.267 . S
O611 Zn597 1.965 . S
O611 C615 1.260 . S
O612 Zn596 1.969 . S
O612 C615 1.258 . S
O613 Zn597 2.024 . S
O613 C600 1.058 . S
C614 O603 1.260 . S
C614 O604 1.258 . S
C615 O611 1.260 . S
C615 O612 1.258 . S
Zn616 O622 1.969 . S
Zn616 O623 1.965 . S
Zn616 O627 2.024 . S
Zn616 O632 1.969 . S
Zn617 O624 1.969 . S
Zn617 O630 1.969 . S
Zn617 O631 1.965 . S
Zn617 O633 2.024 . S
C618 O619 1.229 . S
C618 O627 1.058 . S
O619 C618 1.229 . S
C620 O621 1.229 . S
C620 O633 1.058 . S
O621 C620 1.229 . S
O622 Zn616 1.969 . S
O622 C625 1.267 . S
O623 Zn616 1.965 . S
O623 C634 1.260 . S
O624 Zn617 1.969 . S
O624 C634 1.258 . S
C625 O622 1.267 . S
C625 O626 1.228 . S
O626 C625 1.228 . S
O627 Zn616 2.024 . S
O627 C618 1.058 . S
C628 O629 1.228 . S
C628 O630 1.267 . S
O629 C628 1.228 . S
O630 Zn617 1.969 . S
O630 C628 1.267 . S
O631 Zn617 1.965 . S
O631 C635 1.260 . S
O632 Zn616 1.969 . S
O632 C635 1.258 . S
O633 Zn617 2.024 . S
O633 C620 1.058 . S
C634 O623 1.260 . S
C634 O624 1.258 . S
C635 O631 1.260 . S
C635 O632 1.258 . S
Zn636 O642 1.969 . S
Zn636 O643 1.965 . S
Zn636 O647 2.024 1_655 S
Zn636 O652 1.969 1_655 S
Zn637 O644 1.969 1_554 S
Zn637 O650 1.969 . S
Zn637 O651 1.965 . S
Zn637 O653 2.024 . S
C638 O639 1.229 1_455 S
C638 O647 1.058 . S
O639 C638 1.229 1_655 S
C640 O641 1.229 1_554 S
C640 O653 1.058 . S
O641 C640 1.229 1_556 S
O642 Zn636 1.969 . S
O642 C645 1.267 . S
O643 Zn636 1.965 . S
O643 C654 1.260 1_654 S
O644 Zn637 1.969 1_556 S
O644 C654 1.258 . S
C645 O642 1.267 . S
C645 O646 1.228 . S
O646 C645 1.228 . S
O647 Zn636 2.024 1_455 S
O647 C638 1.058 . S
C648 O649 1.228 . S
C648 O650 1.267 . S
O649 C648 1.228 . S
O650 Zn637 1.969 . S
O650 C648 1.267 . S
O651 Zn637 1.965 . S
O651 C655 1.260 . S
O652 Zn636 1.969 1_455 S
O652 C655 1.258 . S
O653 Zn637 2.024 . S
O653 C640 1.058 . S
C654 O643 1.260 1_456 S
C654 O644 1.258 . S
C655 O651 1.260 . S
C655 O652 1.258 . S
C656 C657 1.391 . S
C656 C658 1.394 . S
C656 H672 0.931 . S
C657 C656 1.391 . S
C657 C661 1.376 1_655 S
C658 C656 1.394 . S
C658 C659 1.369 1_655 S
C658 C662 1.531 . S
C659 C658 1.369 1_455 S
C659 C660 1.410 . S
C659 C667 1.503 . S
C660 C659 1.410 . S
C660 C661 1.392 . S
C660 C663 1.511 . S
C661 C657 1.376 1_455 S
C661 C660 1.392 . S
C661 H673 0.929 . S
C662 C658 1.531 . S
C662 H674 0.960 . S
C662 H675 0.962 . S
C662 H676 0.960 . S
C663 C660 1.511 . S
C663 H677 0.961 . S
C663 H678 0.961 . S
C663 H679 0.961 . S
C664 C665 1.370 . S
C664 C666 1.363 1_554 S
C664 H680 0.931 . S
C665 C664 1.370 . S
C665 C669 1.408 1_554 S
C666 C664 1.363 1_556 S
C666 C667 1.370 . S
C666 C670 1.524 1_556 S
C667 C659 1.503 . S
C667 C666 1.370 . S
C667 C668 1.403 . S
C668 C667 1.403 . S
C668 C669 1.404 . S
C668 C671 1.539 1_455 S
C669 C665 1.408 1_556 S
C669 C668 1.404 . S
C669 H681 0.930 . S
C670 C666 1.524 1_554 S
C670 H682 0.956 . S
C670 H683 0.961 1_554 S
C670 H684 0.961 . S
C671 C668 1.539 1_655 S
C671 H685 0.958 . S
C671 H686 0.961 1_655 S
C671 H687 0.960 1_655 S
H672 C656 0.931 . S
H673 C661 0.929 . S
H674 C662 0.960 . S
H675 C662 0.962 . S
H676 C662 0.960 . S
H677 C663 0.961 . S
H678 C663 0.961 . S
H679 C663 0.961 . S
H680 C664 0.931 . S
H681 C669 0.930 . S
H682 C670 0.956 . S
H683 C670 0.961 1_556 S
H684 C670 0.961 . S
H685 C671 0.958 . S
H686 C671 0.961 1_455 S
H687 C671 0.960 1_455 S
C688 C689 1.391 . S
C688 C690 1.394 . S
C688 H704 0.931 . S
C689 C688 1.391 . S
C689 C693 1.376 . S
C690 C688 1.394 . S
C690 C691 1.369 . S
C690 C694 1.531 . S
C691 C690 1.369 . S
C691 C692 1.410 . S
C691 C699 1.503 . S
C692 C691 1.410 . S
C692 C693 1.392 . S
C692 C695 1.511 . S
C693 C689 1.376 . S
C693 C692 1.392 . S
C693 H705 0.929 . S
C694 C690 1.531 . S
C694 H706 0.960 . S
C694 H707 0.962 . S
C694 H708 0.960 . S
C695 C692 1.511 . S
C695 H709 0.961 . S
C695 H710 0.961 . S
C695 H711 0.961 . S
C696 C697 1.370 . S
C696 C698 1.363 . S
C696 H712 0.931 . S
C697 C696 1.370 . S
C697 C701 1.408 . S
C698 C696 1.363 . S
C698 C699 1.370 . S
C698 C702 1.524 . S
C699 C691 1.503 . S
C699 C698 1.370 . S
C699 C700 1.403 . S
C700 C699 1.403 . S
C700 C701 1.404 . S
C700 C703 1.539 . S
C701 C697 1.408 . S
C701 C700 1.404 . S
C701 H713 0.930 . S
C702 C698 1.524 . S
C702 H714 0.956 . S
C702 H715 0.961 . S
C702 H716 0.961 . S
C703 C700 1.539 . S
C703 H717 0.958 . S
C703 H718 0.961 . S
C703 H719 0.960 . S
H704 C688 0.931 . S
H705 C693 0.929 . S
H706 C694 0.960 . S
H707 C694 0.962 . S
H708 C694 0.960 . S
H709 C695 0.961 . S
H710 C695 0.961 . S
H711 C695 0.961 . S
H712 C696 0.931 . S
H713 C701 0.930 . S
H714 C702 0.956 . S
H715 C702 0.961 . S
H716 C702 0.961 . S
H717 C703 0.958 . S
H718 C703 0.961 . S
H719 C703 0.960 . S
C720 C721 1.391 . S
C720 C722 1.394 . S
C720 H736 0.931 . S
C721 C720 1.391 . S
C721 C725 1.376 . S
C722 C720 1.394 . S
C722 C723 1.369 . S
C722 C726 1.531 . S
C723 C722 1.369 . S
C723 C724 1.410 . S
C723 C731 1.503 . S
C724 C723 1.410 . S
C724 C725 1.392 . S
C724 C727 1.511 . S
C725 C721 1.376 . S
C725 C724 1.392 . S
C725 H737 0.929 . S
C726 C722 1.531 . S
C726 H738 0.960 . S
C726 H739 0.962 . S
C726 H740 0.960 . S
C727 C724 1.511 . S
C727 H741 0.961 . S
C727 H742 0.961 . S
C727 H743 0.961 . S
C728 C729 1.370 . S
C728 C730 1.363 . S
C728 H744 0.931 . S
C729 C728 1.370 . S
C729 C733 1.408 . S
C730 C728 1.363 . S
C730 C731 1.370 . S
C730 C734 1.524 . S
C731 C723 1.503 . S
C731 C730 1.370 . S
C731 C732 1.403 . S
C732 C731 1.403 . S
C732 C733 1.404 . S
C732 C735 1.539 . S
C733 C729 1.408 . S
C733 C732 1.404 . S
C733 H745 0.930 . S
C734 C730 1.524 . S
C734 H746 0.956 . S
C734 H747 0.961 . S
C734 H748 0.961 . S
C735 C732 1.539 . S
C735 H749 0.958 . S
C735 H750 0.961 . S
C735 H751 0.960 . S
H736 C720 0.931 . S
H737 C725 0.929 . S
H738 C726 0.960 . S
H739 C726 0.962 . S
H740 C726 0.960 . S
H741 C727 0.961 . S
H742 C727 0.961 . S
H743 C727 0.961 . S
H744 C728 0.931 . S
H745 C733 0.930 . S
H746 C734 0.956 . S
H747 C734 0.961 . S
H748 C734 0.961 . S
H749 C735 0.958 . S
H750 C735 0.961 . S
H751 C735 0.960 . S
C752 C753 1.391 . S
C752 C754 1.394 . S
C752 H768 0.931 . S
C753 C752 1.391 . S
C753 C757 1.376 . S
C754 C752 1.394 . S
C754 C755 1.369 . S
C754 C758 1.531 . S
C755 C754 1.369 . S
C755 C756 1.410 . S
C755 C763 1.503 . S
C756 C755 1.410 . S
C756 C757 1.392 . S
C756 C759 1.511 . S
C757 C753 1.376 . S
C757 C756 1.392 . S
C757 H769 0.929 . S
C758 C754 1.531 . S
C758 H770 0.960 . S
C758 H771 0.962 . S
C758 H772 0.960 . S
C759 C756 1.511 . S
C759 H773 0.961 . S
C759 H774 0.961 . S
C759 H775 0.961 . S
C760 C761 1.370 . S
C760 C762 1.363 . S
C760 H776 0.931 . S
C761 C760 1.370 . S
C761 C765 1.408 . S
C762 C760 1.363 . S
C762 C763 1.370 . S
C762 C766 1.524 . S
C763 C755 1.503 . S
C763 C762 1.370 . S
C763 C764 1.403 . S
C764 C763 1.403 . S
C764 C765 1.404 . S
C764 C767 1.539 . S
C765 C761 1.408 . S
C765 C764 1.404 . S
C765 H777 0.930 . S
C766 C762 1.524 . S
C766 H778 0.956 . S
C766 H779 0.961 . S
C766 H780 0.961 . S
C767 C764 1.539 . S
C767 H781 0.958 . S
C767 H782 0.961 . S
C767 H783 0.960 . S
H768 C752 0.931 . S
H769 C757 0.929 . S
H770 C758 0.960 . S
H771 C758 0.962 . S
H772 C758 0.960 . S
H773 C759 0.961 . S
H774 C759 0.961 . S
H775 C759 0.961 . S
H776 C760 0.931 . S
H777 C765 0.930 . S
H778 C766 0.956 . S
H779 C766 0.961 . S
H780 C766 0.961 . S
H781 C767 0.958 . S
H782 C767 0.961 . S
H783 C767 0.960 . S
C784 C785 1.391 . S
C784 C786 1.394 . S
C784 H800 0.931 . S
C785 C784 1.391 . S
C785 C789 1.376 1_455 S
C786 C784 1.394 . S
C786 C787 1.369 . S
C786 C790 1.531 . S
C787 C786 1.369 . S
C787 C788 1.410 1_455 S
C787 C795 1.503 . S
C788 C787 1.410 1_655 S
C788 C789 1.392 . S
C788 C791 1.511 . S
C789 C785 1.376 1_655 S
C789 C788 1.392 . S
C789 H801 0.929 . S
C790 C786 1.531 . S
C790 H802 0.960 . S
C790 H803 0.962 . S
C790 H804 0.960 . S
C791 C788 1.511 . S
C791 H805 0.961 . S
C791 H806 0.961 . S
C791 H807 0.961 . S
C792 C793 1.370 . S
C792 C794 1.363 . S
C792 H808 0.931 . S
C793 C792 1.370 . S
C793 C797 1.408 . S
C794 C792 1.363 . S
C794 C795 1.370 . S
C794 C798 1.524 . S
C795 C787 1.503 . S
C795 C794 1.370 . S
C795 C796 1.403 . S
C796 C795 1.403 . S
C796 C797 1.404 . S
C796 C799 1.539 1_455 S
C797 C793 1.408 . S
C797 C796 1.404 . S
C797 H809 0.930 1_455 S
C798 C794 1.524 . S
C798 H810 0.956 . S
C798 H811 0.961 . S
C798 H812 0.961 . S
C799 C796 1.539 1_655 S
C799 H813 0.958 . S
C799 H814 0.961 . S
C799 H815 0.960 . S
H800 C784 0.931 . S
H801 C789 0.929 . S
H802 C790 0.960 . S
H803 C790 0.962 . S
H804 C790 0.960 . S
H805 C791 0.961 . S
H806 C791 0.961 . S
H807 C791 0.961 . S
H808 C792 0.931 . S
H809 C797 0.930 1_655 S
H810 C798 0.956 . S
H811 C798 0.961 . S
H812 C798 0.961 . S
H813 C799 0.958 . S
H814 C799 0.961 . S
H815 C799 0.960 . S
C816 C817 1.391 . S
C816 C818 1.394 . S
C816 H832 0.931 . S
C817 C816 1.391 . S
C817 C821 1.376 . S
C818 C816 1.394 . S
C818 C819 1.369 . S
C818 C822 1.531 . S
C819 C818 1.369 . S
C819 C820 1.410 . S
C819 C827 1.503 . S
C820 C819 1.410 . S
C820 C821 1.392 . S
C820 C823 1.511 . S
C821 C817 1.376 . S
C821 C820 1.392 . S
C821 H833 0.929 . S
C822 C818 1.531 . S
C822 H834 0.960 . S
C822 H835 0.962 . S
C822 H836 0.960 . S
C823 C820 1.511 . S
C823 H837 0.961 . S
C823 H838 0.961 . S
C823 H839 0.961 . S
C824 C825 1.370 . S
C824 C826 1.363 . S
C824 H840 0.931 . S
C825 C824 1.370 . S
C825 C829 1.408 . S
C826 C824 1.363 . S
C826 C827 1.370 . S
C826 C830 1.524 . S
C827 C819 1.503 . S
C827 C826 1.370 . S
C827 C828 1.403 . S
C828 C827 1.403 . S
C828 C829 1.404 . S
C828 C831 1.539 . S
C829 C825 1.408 . S
C829 C828 1.404 . S
C829 H841 0.930 . S
C830 C826 1.524 . S
C830 H842 0.956 . S
C830 H843 0.961 . S
C830 H844 0.961 . S
C831 C828 1.539 . S
C831 H845 0.958 . S
C831 H846 0.961 . S
C831 H847 0.960 . S
H832 C816 0.931 . S
H833 C821 0.929 . S
H834 C822 0.960 . S
H835 C822 0.962 . S
H836 C822 0.960 . S
H837 C823 0.961 . S
H838 C823 0.961 . S
H839 C823 0.961 . S
H840 C824 0.931 . S
H841 C829 0.930 . S
H842 C830 0.956 . S
H843 C830 0.961 . S
H844 C830 0.961 . S
H845 C831 0.958 . S
H846 C831 0.961 . S
H847 C831 0.960 . S
C848 C849 1.391 . S
C848 C850 1.394 . S
C848 H864 0.931 . S
C849 C848 1.391 . S
C849 C853 1.376 . S
C850 C848 1.394 . S
C850 C851 1.369 . S
C850 C854 1.531 . S
C851 C850 1.369 . S
C851 C852 1.410 . S
C851 C859 1.503 . S
C852 C851 1.410 . S
C852 C853 1.392 . S
C852 C855 1.511 . S
C853 C849 1.376 . S
C853 C852 1.392 . S
C853 H865 0.929 . S
C854 C850 1.531 . S
C854 H866 0.960 . S
C854 H867 0.962 . S
C854 H868 0.960 . S
C855 C852 1.511 . S
C855 H869 0.961 . S
C855 H870 0.961 . S
C855 H871 0.961 . S
C856 C857 1.370 . S
C856 C858 1.363 . S
C856 H872 0.931 . S
C857 C856 1.370 . S
C857 C861 1.408 . S
C858 C856 1.363 . S
C858 C859 1.370 . S
C858 C862 1.524 . S
C859 C851 1.503 . S
C859 C858 1.370 . S
C859 C860 1.403 . S
C860 C859 1.403 . S
C860 C861 1.404 . S
C860 C863 1.539 . S
C861 C857 1.408 . S
C861 C860 1.404 . S
C861 H873 0.930 . S
C862 C858 1.524 . S
C862 H874 0.956 . S
C862 H875 0.961 . S
C862 H876 0.961 . S
C863 C860 1.539 . S
C863 H877 0.958 . S
C863 H878 0.961 . S
C863 H879 0.960 . S
H864 C848 0.931 . S
H865 C853 0.929 . S
H866 C854 0.960 . S
H867 C854 0.962 . S
H868 C854 0.960 . S
H869 C855 0.961 . S
H870 C855 0.961 . S
H871 C855 0.961 . S
H872 C856 0.931 . S
H873 C861 0.930 . S
H874 C862 0.956 . S
H875 C862 0.961 . S
H876 C862 0.961 . S
H877 C863 0.958 . S
H878 C863 0.961 . S
H879 C863 0.960 . S
C880 C881 1.391 . S
C880 C882 1.394 . S
C880 H896 0.931 . S
C881 C880 1.391 . S
C881 C885 1.376 . S
C882 C880 1.394 . S
C882 C883 1.369 . S
C882 C886 1.531 . S
C883 C882 1.369 . S
C883 C884 1.410 . S
C883 C891 1.503 . S
C884 C883 1.410 . S
C884 C885 1.392 . S
C884 C887 1.511 . S
C885 C881 1.376 . S
C885 C884 1.392 . S
C885 H897 0.929 . S
C886 C882 1.531 . S
C886 H898 0.960 . S
C886 H899 0.962 . S
C886 H900 0.960 . S
C887 C884 1.511 . S
C887 H901 0.961 . S
C887 H902 0.961 . S
C887 H903 0.961 . S
C888 C889 1.370 . S
C888 C890 1.363 . S
C888 H904 0.931 . S
C889 C888 1.370 . S
C889 C893 1.408 . S
C890 C888 1.363 . S
C890 C891 1.370 . S
C890 C894 1.524 . S
C891 C883 1.503 . S
C891 C890 1.370 . S
C891 C892 1.403 . S
C892 C891 1.403 . S
C892 C893 1.404 . S
C892 C895 1.539 . S
C893 C889 1.408 . S
C893 C892 1.404 . S
C893 H905 0.930 . S
C894 C890 1.524 . S
C894 H906 0.956 . S
C894 H907 0.961 . S
C894 H908 0.961 . S
C895 C892 1.539 . S
C895 H909 0.958 . S
C895 H910 0.961 . S
C895 H911 0.960 . S
H896 C880 0.931 . S
H897 C885 0.929 . S
H898 C886 0.960 . S
H899 C886 0.962 . S
H900 C886 0.960 . S
H901 C887 0.961 . S
H902 C887 0.961 . S
H903 C887 0.961 . S
H904 C888 0.931 . S
H905 C893 0.930 . S
H906 C894 0.956 . S
H907 C894 0.961 . S
H908 C894 0.961 . S
H909 C895 0.958 . S
H910 C895 0.961 . S
H911 C895 0.960 . S
C912 C913 1.391 . S
C912 C914 1.394 . S
C912 H928 0.931 . S
C913 C912 1.391 . S
C913 C917 1.376 1_545 S
C914 C912 1.394 . S
C914 C915 1.369 . S
C914 C918 1.531 . S
C915 C914 1.369 . S
C915 C916 1.405 1_545 S
C915 C923 1.503 . S
C916 C915 1.405 1_565 S
C916 C917 1.393 . S
C916 C919 1.515 . S
C917 C913 1.376 1_565 S
C917 C916 1.393 . S
C917 H929 0.929 . S
C918 C914 1.531 . S
C918 H930 0.960 . S
C918 H931 0.962 . S
C918 H932 0.960 . S
C919 C916 1.515 . S
C919 H933 0.961 . S
C919 H934 0.961 . S
C919 H935 0.961 . S
C920 C921 1.370 . S
C920 C922 1.363 . S
C920 H936 0.931 . S
C921 C920 1.370 . S
C921 C925 1.408 1_655 S
C922 C920 1.363 . S
C922 C923 1.370 . S
C922 C926 1.524 1_545 S
C923 C915 1.503 . S
C923 C922 1.370 . S
C923 C924 1.403 . S
C924 C923 1.403 . S
C924 C925 1.404 1_655 S
C924 C927 1.539 1_655 S
C925 C921 1.408 1_455 S
C925 C924 1.404 1_455 S
C925 H937 0.930 . S
C926 C922 1.524 1_565 S
C926 H938 0.956 1_565 S
C926 H939 0.961 . S
C926 H940 0.961 . S
C927 C924 1.539 1_455 S
C927 H941 0.958 . S
C927 H942 0.961 . S
C927 H943 0.960 1_455 S
H928 C912 0.931 . S
H929 C917 0.929 . S
H930 C918 0.960 . S
H931 C918 0.962 . S
H932 C918 0.960 . S
H933 C919 0.961 . S
H934 C919 0.961 . S
H935 C919 0.961 . S
H936 C920 0.931 . S
H937 C925 0.930 . S
H938 C926 0.956 1_545 S
H939 C926 0.961 . S
H940 C926 0.961 . S
H941 C927 0.958 . S
H942 C927 0.961 . S
H943 C927 0.960 1_655 S
C944 C945 1.391 . S
C944 C946 1.394 . S
C944 H960 0.931 . S
C945 C944 1.391 . S
C945 C949 1.376 . S
C946 C944 1.394 . S
C946 C947 1.369 . S
C946 C950 1.531 . S
C947 C946 1.369 . S
C947 C948 1.410 . S
C947 C955 1.503 . S
C948 C947 1.410 . S
C948 C949 1.392 . S
C948 C951 1.511 . S
C949 C945 1.376 . S
C949 C948 1.392 . S
C949 H961 0.929 . S
C950 C946 1.531 . S
C950 H962 0.960 . S
C950 H963 0.962 . S
C950 H964 0.960 . S
C951 C948 1.511 . S
C951 H965 0.961 . S
C951 H966 0.961 . S
C951 H967 0.961 . S
C952 C953 1.370 . S
C952 C954 1.363 . S
C952 H968 0.931 . S
C953 C952 1.370 . S
C953 C957 1.408 . S
C954 C952 1.363 . S
C954 C955 1.370 . S
C954 C958 1.524 . S
C955 C947 1.503 . S
C955 C954 1.370 . S
C955 C956 1.403 . S
C956 C955 1.403 . S
C956 C957 1.404 . S
C956 C959 1.539 . S
C957 C953 1.408 . S
C957 C956 1.404 . S
C957 H969 0.930 . S
C958 C954 1.524 . S
C958 H970 0.956 . S
C958 H971 0.961 . S
C958 H972 0.961 . S
C959 C956 1.539 . S
C959 H973 0.958 . S
C959 H974 0.961 . S
C959 H975 0.960 . S
H960 C944 0.931 . S
H961 C949 0.929 . S
H962 C950 0.960 . S
H963 C950 0.962 . S
H964 C950 0.960 . S
H965 C951 0.961 . S
H966 C951 0.961 . S
H967 C951 0.961 . S
H968 C952 0.931 . S
H969 C957 0.930 . S
H970 C958 0.956 . S
H971 C958 0.961 . S
H972 C958 0.961 . S
H973 C959 0.958 . S
H974 C959 0.961 . S
H975 C959 0.960 . S
C976 C977 1.391 1_545 S
C976 C978 1.394 . S
C976 H992 0.931 . S
C977 C976 1.391 1_565 S
C977 C981 1.376 . S
C978 C976 1.394 . S
C978 C979 1.369 1_545 S
C978 C982 1.531 . S
C979 C978 1.369 1_565 S
C979 C980 1.410 . S
C979 C987 1.503 . S
C980 C979 1.410 . S
C980 C981 1.392 . S
C980 C983 1.511 . S
C981 C977 1.376 . S
C981 C980 1.392 . S
C981 H993 0.929 . S
C982 C978 1.531 . S
C982 H994 0.960 . S
C982 H995 0.962 . S
C982 H996 0.960 . S
C983 C980 1.511 . S
C983 H997 0.961 . S
C983 H998 0.961 . S
C983 H999 0.961 . S
C984 C985 1.379 . S
C984 C986 1.363 . S
C984 H1000 0.931 . S
C985 C984 1.379 . S
C985 C989 1.393 1_545 S
C986 C984 1.363 . S
C986 C987 1.370 1_545 S
C986 C990 1.524 . S
C987 C979 1.503 . S
C987 C986 1.370 1_565 S
C987 C988 1.403 . S
C988 C987 1.403 . S
C988 C989 1.404 . S
C988 C991 1.539 . S
C989 C985 1.393 1_565 S
C989 C988 1.404 . S
C989 H1001 0.930 . S
C990 C986 1.524 . S
C990 H1002 0.956 . S
C990 H1003 0.961 1_545 S
C990 H1004 0.961 . S
C991 C988 1.539 . S
C991 H1005 0.958 . S
C991 H1006 0.961 . S
C991 H1007 0.960 . S
H992 C976 0.931 . S
H993 C981 0.929 . S
H994 C982 0.960 . S
H995 C982 0.962 . S
H996 C982 0.960 . S
H997 C983 0.961 . S
H998 C983 0.961 . S
H999 C983 0.961 . S
H1000 C984 0.931 . S
H1001 C989 0.930 . S
H1002 C990 0.956 . S
H1003 C990 0.961 1_565 S
H1004 C990 0.961 . S
H1005 C991 0.958 . S
H1006 C991 0.961 . S
H1007 C991 0.960 . S
C1008 C1009 1.391 . S
C1008 C1010 1.394 . S
C1008 H1024 0.931 . S
C1009 C1008 1.391 . S
C1009 C1013 1.376 . S
C1010 C1008 1.394 . S
C1010 C1011 1.369 . S
C1010 C1014 1.531 . S
C1011 C1010 1.369 . S
C1011 C1012 1.410 . S
C1011 C1019 1.503 . S
C1012 C1011 1.410 . S
C1012 C1013 1.392 . S
C1012 C1015 1.511 . S
C1013 C1009 1.376 . S
C1013 C1012 1.392 . S
C1013 H1025 0.929 . S
C1014 C1010 1.531 . S
C1014 H1026 0.960 . S
C1014 H1027 0.962 . S
C1014 H1028 0.960 . S
C1015 C1012 1.511 . S
C1015 H1029 0.961 . S
C1015 H1030 0.961 . S
C1015 H1031 0.961 . S
C1016 C1017 1.370 . S
C1016 C1018 1.363 . S
C1016 H1032 0.931 . S
C1017 C1016 1.370 . S
C1017 C1021 1.408 . S
C1018 C1016 1.363 . S
C1018 C1019 1.370 . S
C1018 C1022 1.524 . S
C1019 C1011 1.503 . S
C1019 C1018 1.370 . S
C1019 C1020 1.403 . S
C1020 C1019 1.403 . S
C1020 C1021 1.404 . S
C1020 C1023 1.539 . S
C1021 C1017 1.408 . S
C1021 C1020 1.404 . S
C1021 H1033 0.930 . S
C1022 C1018 1.524 . S
C1022 H1034 0.956 . S
C1022 H1035 0.961 . S
C1022 H1036 0.961 . S
C1023 C1020 1.539 . S
C1023 H1037 0.958 . S
C1023 H1038 0.961 . S
C1023 H1039 0.960 . S
H1024 C1008 0.931 . S
H1025 C1013 0.929 . S
H1026 C1014 0.960 . S
H1027 C1014 0.962 . S
H1028 C1014 0.960 . S
H1029 C1015 0.961 . S
H1030 C1015 0.961 . S
H1031 C1015 0.961 . S
H1032 C1016 0.931 . S
H1033 C1021 0.930 . S
H1034 C1022 0.956 . S
H1035 C1022 0.961 . S
H1036 C1022 0.961 . S
H1037 C1023 0.958 . S
H1038 C1023 0.961 . S
H1039 C1023 0.960 . S
C1040 C1041 1.391 1_565 S
C1040 C1042 1.394 . S
C1040 H1056 0.931 . S
C1041 C1040 1.391 1_545 S
C1041 C1045 1.376 . S
C1042 C1040 1.394 . S
C1042 C1043 1.369 1_565 S
C1042 C1046 1.531 . S
C1043 C1042 1.369 1_545 S
C1043 C1044 1.410 . S
C1043 C1051 1.503 . S
C1044 C1043 1.410 . S
C1044 C1045 1.392 . S
C1044 C1047 1.511 . S
C1045 C1041 1.376 . S
C1045 C1044 1.392 . S
C1045 H1057 0.929 . S
C1046 C1042 1.531 . S
C1046 H1058 0.960 . S
C1046 H1059 0.962 . S
C1046 H1060 0.960 . S
C1047 C1044 1.511 . S
C1047 H1061 0.961 . S
C1047 H1062 0.961 . S
C1047 H1063 0.961 . S
C1048 C1049 1.370 . S
C1048 C1050 1.363 . S
C1048 H1064 0.931 . S
C1049 C1048 1.370 . S
C1049 C1053 1.408 1_545 S
C1050 C1048 1.363 . S
C1050 C1051 1.370 . S
C1050 C1054 1.524 . S
C1051 C1043 1.503 . S
C1051 C1050 1.370 . S
C1051 C1052 1.403 1_545 S
C1052 C1051 1.403 1_565 S
C1052 C1053 1.404 . S
C1052 C1055 1.539 . S
C1053 C1049 1.408 1_565 S
C1053 C1052 1.404 . S
C1053 H1065 0.930 1_655 S
C1054 C1050 1.524 . S
C1054 H1066 0.956 . S
C1054 H1067 0.961 . S
C1054 H1068 0.961 . S
C1055 C1052 1.539 . S
C1055 H1069 0.958 . S
C1055 H1070 0.961 1_655 S
C1055 H1071 0.960 . S
H1056 C1040 0.931 . S
H1057 C1045 0.929 . S
H1058 C1046 0.960 . S
H1059 C1046 0.962 . S
H1060 C1046 0.960 . S
H1061 C1047 0.961 . S
H1062 C1047 0.961 . S
H1063 C1047 0.961 . S
H1064 C1048 0.931 . S
H1065 C1053 0.930 1_455 S
H1066 C1054 0.956 . S
H1067 C1054 0.961 . S
H1068 C1054 0.961 . S
H1069 C1055 0.958 . S
H1070 C1055 0.961 1_455 S
H1071 C1055 0.960 . S
C1072 C1073 1.391 . S
C1072 C1074 1.394 . S
C1072 H1088 0.931 . S
C1073 C1072 1.391 . S
C1073 C1077 1.376 . S
C1074 C1072 1.394 . S
C1074 C1075 1.369 . S
C1074 C1078 1.531 . S
C1075 C1074 1.369 . S
C1075 C1076 1.410 . S
C1075 C1083 1.503 . S
C1076 C1075 1.410 . S
C1076 C1077 1.392 . S
C1076 C1079 1.511 . S
C1077 C1073 1.376 . S
C1077 C1076 1.392 . S
C1077 H1089 0.929 . S
C1078 C1074 1.531 . S
C1078 H1090 0.960 . S
C1078 H1091 0.962 . S
C1078 H1092 0.960 . S
C1079 C1076 1.511 . S
C1079 H1093 0.961 . S
C1079 H1094 0.961 . S
C1079 H1095 0.961 . S
C1080 C1081 1.370 . S
C1080 C1082 1.363 . S
C1080 H1096 0.931 . S
C1081 C1080 1.370 . S
C1081 C1085 1.408 . S
C1082 C1080 1.363 . S
C1082 C1083 1.370 . S
C1082 C1086 1.524 . S
C1083 C1075 1.503 . S
C1083 C1082 1.370 . S
C1083 C1084 1.403 . S
C1084 C1083 1.403 . S
C1084 C1085 1.404 . S
C1084 C1087 1.539 . S
C1085 C1081 1.408 . S
C1085 C1084 1.404 . S
C1085 H1097 0.930 . S
C1086 C1082 1.524 . S
C1086 H1098 0.956 . S
C1086 H1099 0.961 . S
C1086 H1100 0.961 . S
C1087 C1084 1.539 . S
C1087 H1101 0.958 . S
C1087 H1102 0.961 . S
C1087 H1103 0.960 . S
H1088 C1072 0.931 . S
H1089 C1077 0.929 . S
H1090 C1078 0.960 . S
H1091 C1078 0.962 . S
H1092 C1078 0.960 . S
H1093 C1079 0.961 . S
H1094 C1079 0.961 . S
H1095 C1079 0.961 . S
H1096 C1080 0.931 . S
H1097 C1085 0.930 . S
H1098 C1086 0.956 . S
H1099 C1086 0.961 . S
H1100 C1086 0.961 . S
H1101 C1087 0.958 . S
H1102 C1087 0.961 . S
H1103 C1087 0.960 . S
C1104 C1105 1.391 . S
C1104 C1106 1.394 . S
C1104 H1120 0.931 . S
C1105 C1104 1.391 . S
C1105 C1109 1.376 1_545 S
C1106 C1104 1.394 . S
C1106 C1107 1.369 . S
C1106 C1110 1.531 . S
C1107 C1106 1.369 . S
C1107 C1108 1.410 1_545 S
C1107 C1115 1.503 . S
C1108 C1107 1.410 1_565 S
C1108 C1109 1.392 . S
C1108 C1111 1.511 . S
C1109 C1105 1.376 1_565 S
C1109 C1108 1.392 . S
C1109 H1121 0.929 . S
C1110 C1106 1.531 . S
C1110 H1122 0.960 . S
C1110 H1123 0.962 . S
C1110 H1124 0.960 . S
C1111 C1108 1.511 . S
C1111 H1125 0.961 . S
C1111 H1126 0.961 . S
C1111 H1127 0.961 . S
C1112 C1113 1.370 . S
C1112 C1114 1.363 . S
C1112 H1128 0.931 . S
C1113 C1112 1.370 . S
C1113 C1117 1.408 . S
C1114 C1112 1.363 . S
C1114 C1115 1.370 . S
C1114 C1118 1.524 1_545 S
C1115 C1107 1.503 . S
C1115 C1114 1.370 . S
C1115 C1116 1.403 . S
C1116 C1115 1.403 . S
C1116 C1117 1.404 . S
C1116 C1119 1.539 . S
C1117 C1113 1.408 . S
C1117 C1116 1.404 . S
C1117 H1129 0.930 . S
C1118 C1114 1.524 1_565 S
C1118 H1130 0.956 1_565 S
C1118 H1131 0.961 . S
C1118 H1132 0.961 . S
C1119 C1116 1.539 . S
C1119 H1133 0.958 . S
C1119 H1134 0.961 . S
C1119 H1135 0.960 . S
H1120 C1104 0.931 . S
H1121 C1109 0.929 . S
H1122 C1110 0.960 . S
H1123 C1110 0.962 . S
H1124 C1110 0.960 . S
H1125 C1111 0.961 . S
H1126 C1111 0.961 . S
H1127 C1111 0.961 . S
H1128 C1112 0.931 . S
H1129 C1117 0.930 . S
H1130 C1118 0.956 1_545 S
H1131 C1118 0.961 . S
H1132 C1118 0.961 . S
H1133 C1119 0.958 . S
H1134 C1119 0.961 . S
H1135 C1119 0.960 . S
C1136 C1137 1.391 . S
C1136 C1138 1.394 . S
C1136 H1152 0.931 . S
C1137 C1136 1.391 . S
C1137 C1141 1.376 . S
C1138 C1136 1.394 . S
C1138 C1139 1.369 . S
C1138 C1142 1.531 . S
C1139 C1138 1.369 . S
C1139 C1140 1.410 . S
C1139 C1147 1.503 . S
C1140 C1139 1.410 . S
C1140 C1141 1.392 . S
C1140 C1143 1.511 . S
C1141 C1137 1.376 . S
C1141 C1140 1.392 . S
C1141 H1153 0.929 . S
C1142 C1138 1.531 . S
C1142 H1154 0.960 . S
C1142 H1155 0.962 . S
C1142 H1156 0.960 . S
C1143 C1140 1.511 . S
C1143 H1157 0.961 . S
C1143 H1158 0.961 . S
C1143 H1159 0.961 . S
C1144 C1145 1.370 . S
C1144 C1146 1.363 . S
C1144 H1160 0.931 . S
C1145 C1144 1.370 . S
C1145 C1149 1.408 . S
C1146 C1144 1.363 . S
C1146 C1147 1.370 . S
C1146 C1150 1.524 . S
C1147 C1139 1.503 . S
C1147 C1146 1.370 . S
C1147 C1148 1.403 . S
C1148 C1147 1.403 . S
C1148 C1149 1.404 . S
C1148 C1151 1.539 . S
C1149 C1145 1.408 . S
C1149 C1148 1.404 . S
C1149 H1161 0.930 . S
C1150 C1146 1.524 . S
C1150 H1162 0.956 . S
C1150 H1163 0.961 . S
C1150 H1164 0.961 . S
C1151 C1148 1.539 . S
C1151 H1165 0.958 . S
C1151 H1166 0.961 . S
C1151 H1167 0.960 . S
H1152 C1136 0.931 . S
H1153 C1141 0.929 . S
H1154 C1142 0.960 . S
H1155 C1142 0.962 . S
H1156 C1142 0.960 . S
H1157 C1143 0.961 . S
H1158 C1143 0.961 . S
H1159 C1143 0.961 . S
H1160 C1144 0.931 . S
H1161 C1149 0.930 . S
H1162 C1150 0.956 . S
H1163 C1150 0.961 . S
H1164 C1150 0.961 . S
H1165 C1151 0.958 . S
H1166 C1151 0.961 . S
H1167 C1151 0.960 . S
C1168 C1169 1.391 . S
C1168 C1170 1.394 . S
C1168 H1184 0.931 . S
C1169 C1168 1.391 . S
C1169 C1173 1.376 . S
C1170 C1168 1.394 . S
C1170 C1171 1.369 . S
C1170 C1174 1.531 . S
C1171 C1170 1.369 . S
C1171 C1172 1.410 . S
C1171 C1179 1.503 . S
C1172 C1171 1.410 . S
C1172 C1173 1.392 . S
C1172 C1175 1.511 . S
C1173 C1169 1.376 . S
C1173 C1172 1.392 . S
C1173 H1185 0.929 . S
C1174 C1170 1.531 . S
C1174 H1186 0.960 . S
C1174 H1187 0.962 . S
C1174 H1188 0.960 . S
C1175 C1172 1.511 . S
C1175 H1189 0.961 . S
C1175 H1190 0.961 . S
C1175 H1191 0.961 . S
C1176 C1177 1.370 . S
C1176 C1178 1.363 . S
C1176 H1192 0.931 . S
C1177 C1176 1.370 . S
C1177 C1181 1.408 . S
C1178 C1176 1.363 . S
C1178 C1179 1.370 . S
C1178 C1182 1.524 1_554 S
C1179 C1171 1.503 . S
C1179 C1178 1.370 . S
C1179 C1180 1.403 . S
C1180 C1179 1.403 . S
C1180 C1181 1.404 . S
C1180 C1183 1.539 . S
C1181 C1177 1.408 . S
C1181 C1180 1.404 . S
C1181 H1193 0.930 . S
C1182 C1178 1.524 1_556 S
C1182 H1194 0.956 . S
C1182 H1195 0.961 . S
C1182 H1196 0.961 . S
C1183 C1180 1.539 . S
C1183 H1197 0.958 . S
C1183 H1198 0.961 . S
C1183 H1199 0.960 . S
H1184 C1168 0.931 . S
H1185 C1173 0.929 . S
H1186 C1174 0.960 . S
H1187 C1174 0.962 . S
H1188 C1174 0.960 . S
H1189 C1175 0.961 . S
H1190 C1175 0.961 . S
H1191 C1175 0.961 . S
H1192 C1176 0.931 . S
H1193 C1181 0.930 . S
H1194 C1182 0.956 . S
H1195 C1182 0.961 . S
H1196 C1182 0.961 . S
H1197 C1183 0.958 . S
H1198 C1183 0.961 . S
H1199 C1183 0.960 . S
C1200 C1201 1.391 . S
C1200 C1202 1.394 . S
C1200 H1216 0.931 . S
C1201 C1200 1.391 . S
C1201 C1205 1.376 1_556 S
C1202 C1200 1.394 . S
C1202 C1203 1.369 1_556 S
C1202 C1206 1.531 . S
C1203 C1202 1.369 1_554 S
C1203 C1204 1.410 . S
C1203 C1211 1.503 . S
C1204 C1203 1.410 . S
C1204 C1205 1.392 . S
C1204 C1207 1.511 . S
C1205 C1201 1.376 1_554 S
C1205 C1204 1.392 . S
C1205 H1217 0.929 . S
C1206 C1202 1.531 . S
C1206 H1218 0.960 . S
C1206 H1219 0.962 . S
C1206 H1220 0.960 . S
C1207 C1204 1.511 . S
C1207 H1221 0.961 . S
C1207 H1222 0.961 . S
C1207 H1223 0.961 . S
C1208 C1209 1.370 . S
C1208 C1210 1.363 . S
C1208 H1224 0.940 . S
C1209 C1208 1.370 . S
C1209 C1213 1.408 . S
C1210 C1208 1.363 . S
C1210 C1211 1.370 . S
C1210 C1214 1.524 1_554 S
C1211 C1203 1.503 . S
C1211 C1210 1.370 . S
C1211 C1212 1.403 . S
C1212 C1211 1.403 . S
C1212 C1213 1.404 . S
C1212 C1215 1.539 . S
C1213 C1209 1.408 . S
C1213 C1212 1.404 . S
C1213 H1225 0.930 . S
C1214 C1210 1.524 1_556 S
C1214 H1226 0.956 . S
C1214 H1227 0.961 1_556 S
C1214 H1228 0.961 . S
C1215 C1212 1.539 . S
C1215 H1229 0.958 . S
C1215 H1230 0.961 . S
C1215 H1231 0.960 . S
H1216 C1200 0.931 . S
H1217 C1205 0.929 . S
H1218 C1206 0.960 . S
H1219 C1206 0.962 . S
H1220 C1206 0.960 . S
H1221 C1207 0.961 . S
H1222 C1207 0.961 . S
H1223 C1207 0.961 . S
H1224 C1208 0.940 . S
H1225 C1213 0.930 . S
H1226 C1214 0.956 . S
H1227 C1214 0.961 1_554 S
H1228 C1214 0.961 . S
H1229 C1215 0.958 . S
H1230 C1215 0.961 . S
H1231 C1215 0.960 . S
C1232 C1233 1.391 . S
C1232 C1234 1.394 . S
C1232 H1248 0.931 . S
C1233 C1232 1.391 . S
C1233 C1237 1.376 . S
C1234 C1232 1.394 . S
C1234 C1235 1.369 . S
C1234 C1238 1.531 . S
C1235 C1234 1.369 . S
C1235 C1236 1.410 . S
C1235 C1243 1.503 . S
C1236 C1235 1.410 . S
C1236 C1237 1.392 . S
C1236 C1239 1.511 . S
C1237 C1233 1.376 . S
C1237 C1236 1.392 . S
C1237 H1249 0.929 . S
C1238 C1234 1.531 . S
C1238 H1250 0.960 . S
C1238 H1251 0.962 . S
C1238 H1252 0.960 . S
C1239 C1236 1.511 . S
C1239 H1253 0.961 . S
C1239 H1254 0.961 . S
C1239 H1255 0.961 . S
C1240 C1241 1.370 . S
C1240 C1242 1.363 . S
C1240 H1256 0.931 . S
C1241 C1240 1.370 . S
C1241 C1245 1.408 . S
C1242 C1240 1.363 . S
C1242 C1243 1.370 . S
C1242 C1246 1.524 . S
C1243 C1235 1.503 . S
C1243 C1242 1.370 . S
C1243 C1244 1.403 . S
C1244 C1243 1.403 . S
C1244 C1245 1.404 . S
C1244 C1247 1.539 . S
C1245 C1241 1.408 . S
C1245 C1244 1.404 . S
C1245 H1257 0.930 . S
C1246 C1242 1.524 . S
C1246 H1258 0.956 . S
C1246 H1259 0.961 . S
C1246 H1260 0.961 . S
C1247 C1244 1.539 . S
C1247 H1261 0.958 . S
C1247 H1262 0.961 . S
C1247 H1263 0.960 . S
H1248 C1232 0.931 . S
H1249 C1237 0.929 . S
H1250 C1238 0.960 . S
H1251 C1238 0.962 . S
H1252 C1238 0.960 . S
H1253 C1239 0.961 . S
H1254 C1239 0.961 . S
H1255 C1239 0.961 . S
H1256 C1240 0.931 . S
H1257 C1245 0.930 . S
H1258 C1246 0.956 . S
H1259 C1246 0.961 . S
H1260 C1246 0.961 . S
H1261 C1247 0.958 . S
H1262 C1247 0.961 . S
H1263 C1247 0.960 . S
C1264 C1265 1.391 . S
C1264 C1266 1.394 . S
C1264 H1280 0.931 . S
C1265 C1264 1.391 . S
C1265 C1269 1.376 . S
C1266 C1264 1.394 . S
C1266 C1267 1.369 . S
C1266 C1270 1.531 . S
C1267 C1266 1.369 . S
C1267 C1268 1.410 . S
C1267 C1275 1.503 . S
C1268 C1267 1.410 . S
C1268 C1269 1.392 . S
C1268 C1271 1.511 . S
C1269 C1265 1.376 . S
C1269 C1268 1.392 . S
C1269 H1281 0.929 . S
C1270 C1266 1.531 . S
C1270 H1282 0.960 . S
C1270 H1283 0.962 . S
C1270 H1284 0.960 . S
C1271 C1268 1.511 . S
C1271 H1285 0.961 . S
C1271 H1286 0.961 . S
C1271 H1287 0.961 . S
C1272 C1273 1.370 . S
C1272 C1274 1.363 . S
C1272 H1288 0.931 . S
C1273 C1272 1.370 . S
C1273 C1277 1.408 . S
C1274 C1272 1.363 . S
C1274 C1275 1.370 . S
C1274 C1278 1.524 . S
C1275 C1267 1.503 . S
C1275 C1274 1.370 . S
C1275 C1276 1.403 . S
C1276 C1275 1.403 . S
C1276 C1277 1.404 . S
C1276 C1279 1.539 . S
C1277 C1273 1.408 . S
C1277 C1276 1.404 . S
C1277 H1289 0.930 . S
C1278 C1274 1.524 . S
C1278 H1290 0.956 . S
C1278 H1291 0.961 . S
C1278 H1292 0.961 . S
C1279 C1276 1.539 . S
C1279 H1293 0.958 . S
C1279 H1294 0.961 . S
C1279 H1295 0.960 . S
H1280 C1264 0.931 . S
H1281 C1269 0.929 . S
H1282 C1270 0.960 . S
H1283 C1270 0.962 . S
H1284 C1270 0.960 . S
H1285 C1271 0.961 . S
H1286 C1271 0.961 . S
H1287 C1271 0.961 . S
H1288 C1272 0.931 . S
H1289 C1277 0.930 . S
H1290 C1278 0.956 . S
H1291 C1278 0.961 . S
H1292 C1278 0.961 . S
H1293 C1279 0.958 . S
H1294 C1279 0.961 . S
H1295 C1279 0.960 . S
C1296 C1297 1.391 . S
C1296 C1298 1.394 . S
C1296 H1312 0.931 . S
C1297 C1296 1.391 . S
C1297 C1301 1.376 . S
C1298 C1296 1.394 . S
C1298 C1299 1.369 . S
C1298 C1302 1.531 . S
C1299 C1298 1.369 . S
C1299 C1300 1.410 . S
C1299 C1307 1.503 . S
C1300 C1299 1.410 . S
C1300 C1301 1.392 . S
C1300 C1303 1.511 . S
C1301 C1297 1.376 . S
C1301 C1300 1.392 . S
C1301 H1313 0.929 . S
C1302 C1298 1.531 . S
C1302 H1314 0.960 . S
C1302 H1315 0.962 . S
C1302 H1316 0.960 . S
C1303 C1300 1.511 . S
C1303 H1317 0.961 . S
C1303 H1318 0.961 . S
C1303 H1319 0.961 . S
C1304 C1305 1.370 . S
C1304 C1306 1.363 . S
C1304 H1320 0.931 . S
C1305 C1304 1.370 . S
C1305 C1309 1.408 . S
C1306 C1304 1.363 . S
C1306 C1307 1.370 . S
C1306 C1310 1.524 . S
C1307 C1299 1.503 . S
C1307 C1306 1.370 . S
C1307 C1308 1.403 . S
C1308 C1307 1.403 . S
C1308 C1309 1.404 . S
C1308 C1311 1.539 . S
C1309 C1305 1.408 . S
C1309 C1308 1.404 . S
C1309 H1321 0.930 . S
C1310 C1306 1.524 . S
C1310 H1322 0.956 . S
C1310 H1323 0.961 . S
C1310 H1324 0.961 . S
C1311 C1308 1.539 . S
C1311 H1325 0.958 . S
C1311 H1326 0.961 . S
C1311 H1327 0.960 . S
H1312 C1296 0.931 . S
H1313 C1301 0.929 . S
H1314 C1302 0.960 . S
H1315 C1302 0.962 . S
H1316 C1302 0.960 . S
H1317 C1303 0.961 . S
H1318 C1303 0.961 . S
H1319 C1303 0.961 . S
H1320 C1304 0.931 . S
H1321 C1309 0.930 . S
H1322 C1310 0.956 . S
H1323 C1310 0.961 . S
H1324 C1310 0.961 . S
H1325 C1311 0.958 . S
H1326 C1311 0.961 . S
H1327 C1311 0.960 . S
C1328 C1329 1.391 . S
C1328 C1330 1.394 . S
C1328 H1344 0.931 . S
C1329 C1328 1.391 . S
C1329 C1333 1.376 . S
C1330 C1328 1.394 . S
C1330 C1331 1.369 . S
C1330 C1334 1.531 . S
C1331 C1330 1.369 . S
C1331 C1332 1.410 . S
C1331 C1339 1.503 . S
C1332 C1331 1.410 . S
C1332 C1333 1.392 . S
C1332 C1335 1.511 . S
C1333 C1329 1.376 . S
C1333 C1332 1.392 . S
C1333 H1345 0.929 . S
C1334 C1330 1.531 . S
C1334 H1346 0.960 . S
C1334 H1347 0.962 . S
C1334 H1348 0.960 . S
C1335 C1332 1.511 . S
C1335 H1349 0.961 . S
C1335 H1350 0.961 . S
C1335 H1351 0.961 . S
C1336 C1337 1.370 . S
C1336 C1338 1.363 . S
C1336 H1352 0.931 . S
C1337 C1336 1.370 . S
C1337 C1341 1.408 . S
C1338 C1336 1.363 . S
C1338 C1339 1.370 . S
C1338 C1342 1.524 . S
C1339 C1331 1.503 . S
C1339 C1338 1.370 . S
C1339 C1340 1.403 . S
C1340 C1339 1.403 . S
C1340 C1341 1.404 . S
C1340 C1343 1.539 . S
C1341 C1337 1.408 . S
C1341 C1340 1.404 . S
C1341 H1353 0.930 . S
C1342 C1338 1.524 . S
C1342 H1354 0.956 . S
C1342 H1355 0.961 . S
C1342 H1356 0.961 . S
C1343 C1340 1.539 . S
C1343 H1357 0.958 . S
C1343 H1358 0.961 . S
C1343 H1359 0.960 . S
H1344 C1328 0.931 . S
H1345 C1333 0.929 . S
H1346 C1334 0.960 . S
H1347 C1334 0.962 . S
H1348 C1334 0.960 . S
H1349 C1335 0.961 . S
H1350 C1335 0.961 . S
H1351 C1335 0.961 . S
H1352 C1336 0.931 . S
H1353 C1341 0.930 . S
H1354 C1342 0.956 . S
H1355 C1342 0.961 . S
H1356 C1342 0.961 . S
H1357 C1343 0.958 . S
H1358 C1343 0.961 . S
H1359 C1343 0.960 . S
C1360 C1361 1.391 . S
C1360 C1362 1.394 . S
C1360 H1376 0.931 . S
C1361 C1360 1.391 . S
C1361 C1365 1.376 . S
C1362 C1360 1.394 . S
C1362 C1363 1.369 . S
C1362 C1366 1.531 . S
C1363 C1362 1.369 . S
C1363 C1364 1.410 . S
C1363 C1371 1.503 . S
C1364 C1363 1.410 . S
C1364 C1365 1.392 . S
C1364 C1367 1.511 . S
C1365 C1361 1.376 . S
C1365 C1364 1.392 . S
C1365 H1377 0.929 . S
C1366 C1362 1.531 . S
C1366 H1378 0.960 . S
C1366 H1379 0.962 . S
C1366 H1380 0.960 . S
C1367 C1364 1.511 . S
C1367 H1381 0.961 . S
C1367 H1382 0.961 . S
C1367 H1383 0.961 . S
C1368 C1369 1.370 . S
C1368 C1370 1.363 . S
C1368 H1384 0.931 . S
C1369 C1368 1.370 . S
C1369 C1373 1.408 . S
C1370 C1368 1.363 . S
C1370 C1371 1.370 . S
C1370 C1374 1.524 . S
C1371 C1363 1.503 . S
C1371 C1370 1.370 . S
C1371 C1372 1.403 . S
C1372 C1371 1.403 . S
C1372 C1373 1.404 . S
C1372 C1375 1.539 . S
C1373 C1369 1.408 . S
C1373 C1372 1.404 . S
C1373 H1385 0.930 . S
C1374 C1370 1.524 . S
C1374 H1386 0.956 . S
C1374 H1387 0.961 . S
C1374 H1388 0.961 . S
C1375 C1372 1.539 . S
C1375 H1389 0.958 . S
C1375 H1390 0.961 . S
C1375 H1391 0.960 . S
H1376 C1360 0.931 . S
H1377 C1365 0.929 . S
H1378 C1366 0.960 . S
H1379 C1366 0.962 . S
H1380 C1366 0.960 . S
H1381 C1367 0.961 . S
H1382 C1367 0.961 . S
H1383 C1367 0.961 . S
H1384 C1368 0.931 . S
H1385 C1373 0.930 . S
H1386 C1374 0.956 . S
H1387 C1374 0.961 . S
H1388 C1374 0.961 . S
H1389 C1375 0.958 . S
H1390 C1375 0.961 . S
H1391 C1375 0.960 . S
C1392 C1393 1.391 . S
C1392 C1394 1.394 . S
C1392 H1408 0.931 . S
C1393 C1392 1.391 . S
C1393 C1397 1.376 . S
C1394 C1392 1.394 . S
C1394 C1395 1.369 . S
C1394 C1398 1.531 . S
C1395 C1394 1.369 . S
C1395 C1396 1.410 . S
C1395 C1403 1.503 . S
C1396 C1395 1.410 . S
C1396 C1397 1.392 . S
C1396 C1399 1.511 . S
C1397 C1393 1.376 . S
C1397 C1396 1.392 . S
C1397 H1409 0.929 . S
C1398 C1394 1.531 . S
C1398 H1410 0.960 . S
C1398 H1411 0.962 . S
C1398 H1412 0.960 . S
C1399 C1396 1.511 . S
C1399 H1413 0.961 . S
C1399 H1414 0.961 . S
C1399 H1415 0.961 . S
C1400 C1401 1.370 . S
C1400 C1402 1.363 . S
C1400 H1416 0.931 . S
C1401 C1400 1.370 . S
C1401 C1405 1.408 . S
C1402 C1400 1.363 . S
C1402 C1403 1.370 . S
C1402 C1406 1.524 . S
C1403 C1395 1.503 . S
C1403 C1402 1.370 . S
C1403 C1404 1.403 . S
C1404 C1403 1.403 . S
C1404 C1405 1.404 . S
C1404 C1407 1.539 . S
C1405 C1401 1.408 . S
C1405 C1404 1.404 . S
C1405 H1417 0.930 . S
C1406 C1402 1.524 . S
C1406 H1418 0.956 . S
C1406 H1419 0.961 . S
C1406 H1420 0.961 . S
C1407 C1404 1.539 . S
C1407 H1421 0.958 . S
C1407 H1422 0.961 . S
C1407 H1423 0.960 . S
H1408 C1392 0.931 . S
H1409 C1397 0.929 . S
H1410 C1398 0.960 . S
H1411 C1398 0.962 . S
H1412 C1398 0.960 . S
H1413 C1399 0.961 . S
H1414 C1399 0.961 . S
H1415 C1399 0.961 . S
H1416 C1400 0.931 . S
H1417 C1405 0.930 . S
H1418 C1406 0.956 . S
H1419 C1406 0.961 . S
H1420 C1406 0.961 . S
H1421 C1407 0.958 . S
H1422 C1407 0.961 . S
H1423 C1407 0.960 . S
C1424 C1425 1.391 . S
C1424 C1426 1.394 . S
C1424 H1440 0.931 . S
C1425 C1424 1.391 . S
C1425 C1429 1.376 . S
C1426 C1424 1.394 . S
C1426 C1427 1.369 . S
C1426 C1430 1.531 . S
C1427 C1426 1.369 . S
C1427 C1428 1.410 . S
C1427 C1435 1.503 . S
C1428 C1427 1.410 . S
C1428 C1429 1.392 . S
C1428 C1431 1.511 . S
C1429 C1425 1.376 . S
C1429 C1428 1.392 . S
C1429 H1441 0.929 . S
C1430 C1426 1.531 . S
C1430 H1442 0.960 . S
C1430 H1443 0.962 . S
C1430 H1444 0.960 . S
C1431 C1428 1.511 . S
C1431 H1445 0.961 1_455 S
C1431 H1446 0.961 1_455 S
C1431 H1447 0.961 . S
C1432 C1433 1.389 . S
C1432 C1434 1.371 . S
C1432 H1448 0.904 1_455 S
C1433 C1432 1.389 . S
C1433 C1437 1.408 . S
C1434 C1432 1.371 . S
C1434 C1435 1.370 . S
C1434 C1438 1.524 1_455 S
C1435 C1427 1.503 . S
C1435 C1434 1.370 . S
C1435 C1436 1.403 . S
C1436 C1435 1.403 . S
C1436 C1437 1.404 . S
C1436 C1439 1.539 . S
C1437 C1433 1.408 . S
C1437 C1436 1.404 . S
C1437 H1449 0.930 . S
C1438 C1434 1.524 1_655 S
C1438 H1450 0.956 . S
C1438 H1451 0.961 . S
C1438 H1452 0.961 . S
C1439 C1436 1.539 . S
C1439 H1453 0.958 . S
C1439 H1454 0.961 . S
C1439 H1455 0.960 . S
H1440 C1424 0.931 . S
H1441 C1429 0.929 . S
H1442 C1430 0.960 . S
H1443 C1430 0.962 . S
H1444 C1430 0.960 . S
H1445 C1431 0.961 1_655 S
H1446 C1431 0.961 1_655 S
H1447 C1431 0.961 . S
H1448 C1432 0.904 1_655 S
H1449 C1437 0.930 . S
H1450 C1438 0.956 . S
H1451 C1438 0.961 . S
H1452 C1438 0.961 . S
H1453 C1439 0.958 . S
H1454 C1439 0.961 . S
H1455 C1439 0.960 . S
C1456 C1457 1.391 . S
C1456 C1458 1.394 . S
C1456 H1472 0.931 . S
C1457 C1456 1.391 . S
C1457 C1461 1.376 . S
C1458 C1456 1.394 . S
C1458 C1459 1.369 . S
C1458 C1462 1.531 . S
C1459 C1458 1.369 . S
C1459 C1460 1.410 . S
C1459 C1467 1.503 . S
C1460 C1459 1.410 . S
C1460 C1461 1.392 . S
C1460 C1463 1.511 . S
C1461 C1457 1.376 . S
C1461 C1460 1.392 . S
C1461 H1473 0.929 . S
C1462 C1458 1.531 . S
C1462 H1474 0.960 . S
C1462 H1475 0.962 . S
C1462 H1476 0.960 . S
C1463 C1460 1.511 . S
C1463 H1477 0.961 . S
C1463 H1478 0.961 . S
C1463 H1479 0.961 . S
C1464 C1465 1.370 . S
C1464 C1466 1.363 . S
C1464 H1480 0.931 . S
C1465 C1464 1.370 . S
C1465 C1469 1.408 . S
C1466 C1464 1.363 . S
C1466 C1467 1.370 . S
C1466 C1470 1.524 . S
C1467 C1459 1.503 . S
C1467 C1466 1.370 . S
C1467 C1468 1.403 . S
C1468 C1467 1.403 . S
C1468 C1469 1.404 . S
C1468 C1471 1.539 . S
C1469 C1465 1.408 . S
C1469 C1468 1.404 . S
C1469 H1481 0.930 . S
C1470 C1466 1.524 . S
C1470 H1482 0.956 . S
C1470 H1483 0.961 . S
C1470 H1484 0.961 . S
C1471 C1468 1.539 . S
C1471 H1485 0.958 . S
C1471 H1486 0.961 . S
C1471 H1487 0.960 . S
H1472 C1456 0.931 . S
H1473 C1461 0.929 . S
H1474 C1462 0.960 . S
H1475 C1462 0.962 . S
H1476 C1462 0.960 . S
H1477 C1463 0.961 . S
H1478 C1463 0.961 . S
H1479 C1463 0.961 . S
H1480 C1464 0.931 . S
H1481 C1469 0.930 . S
H1482 C1470 0.956 . S
H1483 C1470 0.961 . S
H1484 C1470 0.961 . S
H1485 C1471 0.958 . S
H1486 C1471 0.961 . S
H1487 C1471 0.960 . S
C1488 C1489 1.391 . S
C1488 C1490 1.394 . S
C1488 H1504 0.931 . S
C1489 C1488 1.391 . S
C1489 C1493 1.376 . S
C1490 C1488 1.394 . S
C1490 C1491 1.369 . S
C1490 C1494 1.531 . S
C1491 C1490 1.369 . S
C1491 C1492 1.410 . S
C1491 C1499 1.503 . S
C1492 C1491 1.410 . S
C1492 C1493 1.392 . S
C1492 C1495 1.511 . S
C1493 C1489 1.376 . S
C1493 C1492 1.392 . S
C1493 H1505 0.929 . S
C1494 C1490 1.531 . S
C1494 H1506 0.960 . S
C1494 H1507 0.962 . S
C1494 H1508 0.960 . S
C1495 C1492 1.511 . S
C1495 H1509 0.961 . S
C1495 H1510 0.961 . S
C1495 H1511 0.961 . S
C1496 C1497 1.370 . S
C1496 C1498 1.363 . S
C1496 H1512 0.931 . S
C1497 C1496 1.370 . S
C1497 C1501 1.408 . S
C1498 C1496 1.363 . S
C1498 C1499 1.370 . S
C1498 C1502 1.524 . S
C1499 C1491 1.503 . S
C1499 C1498 1.370 . S
C1499 C1500 1.403 . S
C1500 C1499 1.403 . S
C1500 C1501 1.404 . S
C1500 C1503 1.539 . S
C1501 C1497 1.408 . S
C1501 C1500 1.404 . S
C1501 H1513 0.930 . S
C1502 C1498 1.524 . S
C1502 H1514 0.956 . S
C1502 H1515 0.961 . S
C1502 H1516 0.961 . S
C1503 C1500 1.539 . S
C1503 H1517 0.958 . S
C1503 H1518 0.961 . S
C1503 H1519 0.960 . S
H1504 C1488 0.931 . S
H1505 C1493 0.929 . S
H1506 C1494 0.960 . S
H1507 C1494 0.962 . S
H1508 C1494 0.960 . S
H1509 C1495 0.961 . S
H1510 C1495 0.961 . S
H1511 C1495 0.961 . S
H1512 C1496 0.931 . S
H1513 C1501 0.930 . S
H1514 C1502 0.956 . S
H1515 C1502 0.961 . S
H1516 C1502 0.961 . S
H1517 C1503 0.958 . S
H1518 C1503 0.961 . S
H1519 C1503 0.960 . S
C1520 C1521 1.391 . S
C1520 C1522 1.394 . S
C1520 H1536 0.931 . S
C1521 C1520 1.391 . S
C1521 C1525 1.376 . S
C1522 C1520 1.394 . S
C1522 C1523 1.369 . S
C1522 C1526 1.531 . S
C1523 C1522 1.369 . S
C1523 C1524 1.410 . S
C1523 C1531 1.503 . S
C1524 C1523 1.410 . S
C1524 C1525 1.392 . S
C1524 C1527 1.511 . S
C1525 C1521 1.376 . S
C1525 C1524 1.392 . S
C1525 H1537 0.929 . S
C1526 C1522 1.531 . S
C1526 H1538 0.960 . S
C1526 H1539 0.962 . S
C1526 H1540 0.960 . S
C1527 C1524 1.511 . S
C1527 H1541 0.961 . S
C1527 H1542 0.961 . S
C1527 H1543 0.961 . S
C1528 C1529 1.370 . S
C1528 C1530 1.363 . S
C1528 H1544 0.931 . S
C1529 C1528 1.370 . S
C1529 C1533 1.408 . S
C1530 C1528 1.363 . S
C1530 C1531 1.370 . S
C1530 C1534 1.524 . S
C1531 C1523 1.503 . S
C1531 C1530 1.370 . S
C1531 C1532 1.403 . S
C1532 C1531 1.403 . S
C1532 C1533 1.404 . S
C1532 C1535 1.539 . S
C1533 C1529 1.408 . S
C1533 C1532 1.404 . S
C1533 H1545 0.930 . S
C1534 C1530 1.524 . S
C1534 H1546 0.956 . S
C1534 H1547 0.961 . S
C1534 H1548 0.961 . S
C1535 C1532 1.539 . S
C1535 H1549 0.958 . S
C1535 H1550 0.961 . S
C1535 H1551 0.960 . S
H1536 C1520 0.931 . S
H1537 C1525 0.929 . S
H1538 C1526 0.960 . S
H1539 C1526 0.962 . S
H1540 C1526 0.960 . S
H1541 C1527 0.961 . S
H1542 C1527 0.961 . S
H1543 C1527 0.961 . S
H1544 C1528 0.931 . S
H1545 C1533 0.930 . S
H1546 C1534 0.956 . S
H1547 C1534 0.961 . S
H1548 C1534 0.961 . S
H1549 C1535 0.958 . S
H1550 C1535 0.961 . S
H1551 C1535 0.960 . S
C1552 C1553 1.391 . S
C1552 C1554 1.394 . S
C1552 H1568 0.931 . S
C1553 C1552 1.391 . S
C1553 C1557 1.376 1_455 S
C1554 C1552 1.394 . S
C1554 C1555 1.369 . S
C1554 C1558 1.531 . S
C1555 C1554 1.369 . S
C1555 C1556 1.410 1_455 S
C1555 C1563 1.503 . S
C1556 C1555 1.410 1_655 S
C1556 C1557 1.392 . S
C1556 C1559 1.511 . S
C1557 C1553 1.376 1_655 S
C1557 C1556 1.392 . S
C1557 H1569 0.929 . S
C1558 C1554 1.531 . S
C1558 H1570 0.960 . S
C1558 H1571 0.962 . S
C1558 H1572 0.960 . S
C1559 C1556 1.511 . S
C1559 H1573 0.961 . S
C1559 H1574 0.961 . S
C1559 H1575 0.961 . S
C1560 C1561 1.370 . S
C1560 C1562 1.363 . S
C1560 H1576 0.931 . S
C1561 C1560 1.370 . S
C1561 C1565 1.408 1_455 S
C1562 C1560 1.363 . S
C1562 C1563 1.370 . S
C1562 C1566 1.524 . S
C1563 C1555 1.503 . S
C1563 C1562 1.370 . S
C1563 C1564 1.395 1_455 S
C1564 C1563 1.395 1_655 S
C1564 C1565 1.403 . S
C1564 C1567 1.549 . S
C1565 C1561 1.408 1_655 S
C1565 C1564 1.403 . S
C1565 H1577 0.930 . S
C1566 C1562 1.524 . S
C1566 H1578 0.956 . S
C1566 H1579 0.961 . S
C1566 H1580 0.961 . S
C1567 C1564 1.549 . S
C1567 H1581 0.958 1_655 S
C1567 H1582 0.961 . S
C1567 H1583 0.960 . S
H1568 C1552 0.931 . S
H1569 C1557 0.929 . S
H1570 C1558 0.960 . S
H1571 C1558 0.962 . S
H1572 C1558 0.960 . S
H1573 C1559 0.961 . S
H1574 C1559 0.961 . S
H1575 C1559 0.961 . S
H1576 C1560 0.931 . S
H1577 C1565 0.930 . S
H1578 C1566 0.956 . S
H1579 C1566 0.961 . S
H1580 C1566 0.961 . S
H1581 C1567 0.958 1_455 S
H1582 C1567 0.961 . S
H1583 C1567 0.960 . S
C1584 C1585 1.391 . S
C1584 C1586 1.394 . S
C1584 H1600 0.931 . S
C1585 C1584 1.391 . S
C1585 C1589 1.376 . S
C1586 C1584 1.394 . S
C1586 C1587 1.369 . S
C1586 C1590 1.531 . S
C1587 C1586 1.369 . S
C1587 C1588 1.410 . S
C1587 C1595 1.503 . S
C1588 C1587 1.410 . S
C1588 C1589 1.392 . S
C1588 C1591 1.511 . S
C1589 C1585 1.376 . S
C1589 C1588 1.392 . S
C1589 H1601 0.929 . S
C1590 C1586 1.531 . S
C1590 H1602 0.960 . S
C1590 H1603 0.962 . S
C1590 H1604 0.960 . S
C1591 C1588 1.511 . S
C1591 H1605 0.961 . S
C1591 H1606 0.961 . S
C1591 H1607 0.961 . S
C1592 C1593 1.370 . S
C1592 C1594 1.363 . S
C1592 H1608 0.931 . S
C1593 C1592 1.370 . S
C1593 C1597 1.408 . S
C1594 C1592 1.363 . S
C1594 C1595 1.370 . S
C1594 C1598 1.524 . S
C1595 C1587 1.503 . S
C1595 C1594 1.370 . S
C1595 C1596 1.403 . S
C1596 C1595 1.403 . S
C1596 C1597 1.404 . S
C1596 C1599 1.539 . S
C1597 C1593 1.408 . S
C1597 C1596 1.404 . S
C1597 H1609 0.930 . S
C1598 C1594 1.524 . S
C1598 H1610 0.956 . S
C1598 H1611 0.961 . S
C1598 H1612 0.961 . S
C1599 C1596 1.539 . S
C1599 H1613 0.958 . S
C1599 H1614 0.961 . S
C1599 H1615 0.960 . S
H1600 C1584 0.931 . S
H1601 C1589 0.929 . S
H1602 C1590 0.960 . S
H1603 C1590 0.962 . S
H1604 C1590 0.960 . S
H1605 C1591 0.961 . S
H1606 C1591 0.961 . S
H1607 C1591 0.961 . S
H1608 C1592 0.931 . S
H1609 C1597 0.930 . S
H1610 C1598 0.956 . S
H1611 C1598 0.961 . S
H1612 C1598 0.961 . S
H1613 C1599 0.958 . S
H1614 C1599 0.961 . S
H1615 C1599 0.960 . S
C1616 C1617 1.391 . S
C1616 C1618 1.394 . S
C1616 H1632 0.931 . S
C1617 C1616 1.391 . S
C1617 C1621 1.376 . S
C1618 C1616 1.394 . S
C1618 C1619 1.369 . S
C1618 C1622 1.531 . S
C1619 C1618 1.369 . S
C1619 C1620 1.410 . S
C1619 C1627 1.503 . S
C1620 C1619 1.410 . S
C1620 C1621 1.392 . S
C1620 C1623 1.511 . S
C1621 C1617 1.376 . S
C1621 C1620 1.392 . S
C1621 H1633 0.929 . S
C1622 C1618 1.531 . S
C1622 H1634 0.960 . S
C1622 H1635 0.962 . S
C1622 H1636 0.960 . S
C1623 C1620 1.511 . S
C1623 H1637 0.982 . S
C1623 H1638 0.961 1_556 S
C1623 H1639 0.961 . S
C1624 C1625 1.370 1_554 S
C1624 C1626 1.363 1_554 S
C1624 H1640 0.931 . S
C1625 C1624 1.370 1_556 S
C1625 C1629 1.408 . S
C1626 C1624 1.363 1_556 S
C1626 C1627 1.370 . S
C1626 C1630 1.524 . S
C1627 C1619 1.503 . S
C1627 C1626 1.370 . S
C1627 C1628 1.403 . S
C1628 C1627 1.403 . S
C1628 C1629 1.404 . S
C1628 C1631 1.539 . S
C1629 C1625 1.408 . S
C1629 C1628 1.404 . S
C1629 H1641 0.930 . S
C1630 C1626 1.524 . S
C1630 H1642 0.956 . S
C1630 H1643 0.961 . S
C1630 H1644 0.961 1_556 S
C1631 C1628 1.539 . S
C1631 H1645 0.958 . S
C1631 H1646 0.961 . S
C1631 H1647 0.960 . S
H1632 C1616 0.931 . S
H1633 C1621 0.929 . S
H1634 C1622 0.960 . S
H1635 C1622 0.962 . S
H1636 C1622 0.960 . S
H1637 C1623 0.982 . S
H1638 C1623 0.961 1_554 S
H1639 C1623 0.961 . S
H1640 C1624 0.931 . S
H1641 C1629 0.930 . S
H1642 C1630 0.956 . S
H1643 C1630 0.961 . S
H1644 C1630 0.961 1_554 S
H1645 C1631 0.958 . S
H1646 C1631 0.961 . S
H1647 C1631 0.960 . S
C1648 C1649 1.391 . S
C1648 C1650 1.394 . S
C1648 H1664 0.931 . S
C1649 C1648 1.391 . S
C1649 C1653 1.376 . S
C1650 C1648 1.394 . S
C1650 C1651 1.369 . S
C1650 C1654 1.531 . S
C1651 C1650 1.369 . S
C1651 C1652 1.410 . S
C1651 C1659 1.503 . S
C1652 C1651 1.410 . S
C1652 C1653 1.392 . S
C1652 C1655 1.511 . S
C1653 C1649 1.376 . S
C1653 C1652 1.392 . S
C1653 H1665 0.929 . S
C1654 C1650 1.531 . S
C1654 H1666 0.960 . S
C1654 H1667 0.962 . S
C1654 H1668 0.960 . S
C1655 C1652 1.511 . S
C1655 H1669 0.961 . S
C1655 H1670 0.961 . S
C1655 H1671 0.961 . S
C1656 C1657 1.370 . S
C1656 C1658 1.363 . S
C1656 H1672 0.931 . S
C1657 C1656 1.370 . S
C1657 C1661 1.408 . S
C1658 C1656 1.363 . S
C1658 C1659 1.370 . S
C1658 C1662 1.524 . S
C1659 C1651 1.503 . S
C1659 C1658 1.370 . S
C1659 C1660 1.403 . S
C1660 C1659 1.403 . S
C1660 C1661 1.404 . S
C1660 C1663 1.539 . S
C1661 C1657 1.408 . S
C1661 C1660 1.404 . S
C1661 H1673 0.930 . S
C1662 C1658 1.524 . S
C1662 H1674 0.956 . S
C1662 H1675 0.961 . S
C1662 H1676 0.961 . S
C1663 C1660 1.539 . S
C1663 H1677 0.958 . S
C1663 H1678 0.961 . S
C1663 H1679 0.960 . S
H1664 C1648 0.931 . S
H1665 C1653 0.929 . S
H1666 C1654 0.960 . S
H1667 C1654 0.962 . S
H1668 C1654 0.960 . S
H1669 C1655 0.961 . S
H1670 C1655 0.961 . S
H1671 C1655 0.961 . S
H1672 C1656 0.931 . S
H1673 C1661 0.930 . S
H1674 C1662 0.956 . S
H1675 C1662 0.961 . S
H1676 C1662 0.961 . S
H1677 C1663 0.958 . S
H1678 C1663 0.961 . S
H1679 C1663 0.960 . S
C1680 C1681 1.391 . S
C1680 C1682 1.394 . S
C1680 H1696 0.931 . S
C1681 C1680 1.391 . S
C1681 C1685 1.376 . S
C1682 C1680 1.394 . S
C1682 C1683 1.369 . S
C1682 C1686 1.531 . S
C1683 C1682 1.369 . S
C1683 C1684 1.410 . S
C1683 C1691 1.503 . S
C1684 C1683 1.410 . S
C1684 C1685 1.392 . S
C1684 C1687 1.511 . S
C1685 C1681 1.376 . S
C1685 C1684 1.392 . S
C1685 H1697 0.929 . S
C1686 C1682 1.531 . S
C1686 H1698 0.960 . S
C1686 H1699 0.963 1_545 S
C1686 H1700 0.960 . S
C1687 C1684 1.511 . S
C1687 H1701 0.961 . S
C1687 H1702 0.961 . S
C1687 H1703 0.961 . S
C1688 C1689 1.370 1_565 S
C1688 C1690 1.363 . S
C1688 H1704 0.931 . S
C1689 C1688 1.370 1_545 S
C1689 C1693 1.408 . S
C1690 C1688 1.363 . S
C1690 C1691 1.370 1_565 S
C1690 C1694 1.524 . S
C1691 C1683 1.503 . S
C1691 C1690 1.370 1_545 S
C1691 C1692 1.403 . S
C1692 C1691 1.403 . S
C1692 C1693 1.404 . S
C1692 C1695 1.539 . S
C1693 C1689 1.408 . S
C1693 C1692 1.404 . S
C1693 H1705 0.930 . S
C1694 C1690 1.524 . S
C1694 H1706 0.956 . S
C1694 H1707 0.961 . S
C1694 H1708 0.961 . S
C1695 C1692 1.539 . S
C1695 H1709 0.958 . S
C1695 H1710 0.961 . S
C1695 H1711 0.960 . S
H1696 C1680 0.931 . S
H1697 C1685 0.929 . S
H1698 C1686 0.960 . S
H1699 C1686 0.963 1_565 S
H1700 C1686 0.960 . S
H1701 C1687 0.961 . S
H1702 C1687 0.961 . S
H1703 C1687 0.961 . S
H1704 C1688 0.931 . S
H1705 C1693 0.930 . S
H1706 C1694 0.956 . S
H1707 C1694 0.961 . S
H1708 C1694 0.961 . S
H1709 C1695 0.958 . S
H1710 C1695 0.961 . S
H1711 C1695 0.960 . S
C1712 C1713 1.391 . S
C1712 C1714 1.394 . S
C1712 H1728 0.931 . S
C1713 C1712 1.391 . S
C1713 C1717 1.376 . S
C1714 C1712 1.394 . S
C1714 C1715 1.369 . S
C1714 C1718 1.531 . S
C1715 C1714 1.369 . S
C1715 C1716 1.410 . S
C1715 C1723 1.503 . S
C1716 C1715 1.410 . S
C1716 C1717 1.392 . S
C1716 C1719 1.511 . S
C1717 C1713 1.376 . S
C1717 C1716 1.392 . S
C1717 H1729 0.929 . S
C1718 C1714 1.531 . S
C1718 H1730 0.960 . S
C1718 H1731 0.962 . S
C1718 H1732 0.960 . S
C1719 C1716 1.511 . S
C1719 H1733 0.961 . S
C1719 H1734 0.961 . S
C1719 H1735 0.961 . S
C1720 C1721 1.370 . S
C1720 C1722 1.363 . S
C1720 H1736 0.931 . S
C1721 C1720 1.370 . S
C1721 C1725 1.408 . S
C1722 C1720 1.363 . S
C1722 C1723 1.370 . S
C1722 C1726 1.524 . S
C1723 C1715 1.503 . S
C1723 C1722 1.370 . S
C1723 C1724 1.403 . S
C1724 C1723 1.403 . S
C1724 C1725 1.404 . S
C1724 C1727 1.539 . S
C1725 C1721 1.408 . S
C1725 C1724 1.404 . S
C1725 H1737 0.930 . S
C1726 C1722 1.524 . S
C1726 H1738 0.956 . S
C1726 H1739 0.961 . S
C1726 H1740 0.961 . S
C1727 C1724 1.539 . S
C1727 H1741 0.958 . S
C1727 H1742 0.961 . S
C1727 H1743 0.960 . S
H1728 C1712 0.931 . S
H1729 C1717 0.929 . S
H1730 C1718 0.960 . S
H1731 C1718 0.962 . S
H1732 C1718 0.960 . S
H1733 C1719 0.961 . S
H1734 C1719 0.961 . S
H1735 C1719 0.961 . S
H1736 C1720 0.931 . S
H1737 C1725 0.930 . S
H1738 C1726 0.956 . S
H1739 C1726 0.961 . S
H1740 C1726 0.961 . S
H1741 C1727 0.958 . S
H1742 C1727 0.961 . S
H1743 C1727 0.960 . S
C1744 C1745 1.391 . S
C1744 C1746 1.394 . S
C1744 H1760 0.931 . S
C1745 C1744 1.391 . S
C1745 C1749 1.376 . S
C1746 C1744 1.394 . S
C1746 C1747 1.369 . S
C1746 C1750 1.531 . S
C1747 C1746 1.369 . S
C1747 C1748 1.410 . S
C1747 C1755 1.503 . S
C1748 C1747 1.410 . S
C1748 C1749 1.392 . S
C1748 C1751 1.511 1_545 S
C1749 C1745 1.376 . S
C1749 C1748 1.392 . S
C1749 H1761 0.929 1_545 S
C1750 C1746 1.531 . S
C1750 H1762 0.960 . S
C1750 H1763 0.962 . S
C1750 H1764 0.960 . S
C1751 C1748 1.511 1_565 S
C1751 H1765 0.961 . S
C1751 H1766 0.961 . S
C1751 H1767 0.961 . S
C1752 C1753 1.370 . S
C1752 C1754 1.363 . S
C1752 H1768 0.951 . S
C1753 C1752 1.370 . S
C1753 C1757 1.408 . S
C1754 C1752 1.363 . S
C1754 C1755 1.370 . S
C1754 C1758 1.524 1_545 S
C1755 C1747 1.503 . S
C1755 C1754 1.370 . S
C1755 C1756 1.403 . S
C1756 C1755 1.403 . S
C1756 C1757 1.404 . S
C1756 C1759 1.539 . S
C1757 C1753 1.408 . S
C1757 C1756 1.404 . S
C1757 H1769 0.930 . S
C1758 C1754 1.524 1_565 S
C1758 H1770 0.956 1_565 S
C1758 H1771 0.961 . S
C1758 H1772 0.961 . S
C1759 C1756 1.539 . S
C1759 H1773 0.958 . S
C1759 H1774 0.961 . S
C1759 H1775 0.960 . S
H1760 C1744 0.931 . S
H1761 C1749 0.929 1_565 S
H1762 C1750 0.960 . S
H1763 C1750 0.962 . S
H1764 C1750 0.960 . S
H1765 C1751 0.961 . S
H1766 C1751 0.961 . S
H1767 C1751 0.961 . S
H1768 C1752 0.951 . S
H1769 C1757 0.930 . S
H1770 C1758 0.956 1_545 S
H1771 C1758 0.961 . S
H1772 C1758 0.961 . S
H1773 C1759 0.958 . S
H1774 C1759 0.961 . S
H1775 C1759 0.960 . S
C1776 C1777 1.391 . S
C1776 C1778 1.394 . S
C1776 H1792 0.931 . S
C1777 C1776 1.391 . S
C1777 C1781 1.376 . S
C1778 C1776 1.394 . S
C1778 C1779 1.369 . S
C1778 C1782 1.531 . S
C1779 C1778 1.369 . S
C1779 C1780 1.410 . S
C1779 C1787 1.503 . S
C1780 C1779 1.410 . S
C1780 C1781 1.392 . S
C1780 C1783 1.511 . S
C1781 C1777 1.376 . S
C1781 C1780 1.392 . S
C1781 H1793 0.929 . S
C1782 C1778 1.531 . S
C1782 H1794 0.960 . S
C1782 H1795 0.962 . S
C1782 H1796 0.960 . S
C1783 C1780 1.511 . S
C1783 H1797 0.961 . S
C1783 H1798 0.961 . S
C1783 H1799 0.961 . S
C1784 C1785 1.370 . S
C1784 C1786 1.363 . S
C1784 H1800 0.931 . S
C1785 C1784 1.370 . S
C1785 C1789 1.408 . S
C1786 C1784 1.363 . S
C1786 C1787 1.370 . S
C1786 C1790 1.524 . S
C1787 C1779 1.503 . S
C1787 C1786 1.370 . S
C1787 C1788 1.403 . S
C1788 C1787 1.403 . S
C1788 C1789 1.404 . S
C1788 C1791 1.539 . S
C1789 C1785 1.408 . S
C1789 C1788 1.404 . S
C1789 H1801 0.930 . S
C1790 C1786 1.524 . S
C1790 H1802 0.956 . S
C1790 H1803 0.961 . S
C1790 H1804 0.961 . S
C1791 C1788 1.539 . S
C1791 H1805 0.958 . S
C1791 H1806 0.961 . S
C1791 H1807 0.960 . S
H1792 C1776 0.931 . S
H1793 C1781 0.929 . S
H1794 C1782 0.960 . S
H1795 C1782 0.962 . S
H1796 C1782 0.960 . S
H1797 C1783 0.961 . S
H1798 C1783 0.961 . S
H1799 C1783 0.961 . S
H1800 C1784 0.931 . S
H1801 C1789 0.930 . S
H1802 C1790 0.956 . S
H1803 C1790 0.961 . S
H1804 C1790 0.961 . S
H1805 C1791 0.958 . S
H1806 C1791 0.961 . S
H1807 C1791 0.960 . S
C1808 C1809 1.391 1_565 S
C1808 C1810 1.394 . S
C1808 H1824 0.931 . S
C1809 C1808 1.391 1_545 S
C1809 C1813 1.376 . S
C1810 C1808 1.394 . S
C1810 C1811 1.369 1_565 S
C1810 C1814 1.531 . S
C1811 C1810 1.369 1_545 S
C1811 C1812 1.410 . S
C1811 C1819 1.503 . S
C1812 C1811 1.410 . S
C1812 C1813 1.392 . S
C1812 C1815 1.511 . S
C1813 C1809 1.376 . S
C1813 C1812 1.392 . S
C1813 H1825 0.929 . S
C1814 C1810 1.531 . S
C1814 H1826 0.960 . S
C1814 H1827 0.938 1_565 S
C1814 H1828 0.960 . S
C1815 C1812 1.511 . S
C1815 H1829 0.961 . S
C1815 H1830 0.961 . S
C1815 H1831 0.961 . S
C1816 C1817 1.370 . S
C1816 C1818 1.363 . S
C1816 H1832 0.931 . S
C1817 C1816 1.370 . S
C1817 C1821 1.408 1_545 S
C1818 C1816 1.363 . S
C1818 C1819 1.370 . S
C1818 C1822 1.524 . S
C1819 C1811 1.503 . S
C1819 C1818 1.370 . S
C1819 C1820 1.403 1_545 S
C1820 C1819 1.403 1_565 S
C1820 C1821 1.404 . S
C1820 C1823 1.539 . S
C1821 C1817 1.408 1_565 S
C1821 C1820 1.404 . S
C1821 H1833 0.930 . S
C1822 C1818 1.524 . S
C1822 H1834 0.956 . S
C1822 H1835 0.961 . S
C1822 H1836 0.961 . S
C1823 C1820 1.539 . S
C1823 H1837 0.958 . S
C1823 H1838 0.961 . S
C1823 H1839 0.960 . S
H1824 C1808 0.931 . S
H1825 C1813 0.929 . S
H1826 C1814 0.960 . S
H1827 C1814 0.938 1_545 S
H1828 C1814 0.960 . S
H1829 C1815 0.961 . S
H1830 C1815 0.961 . S
H1831 C1815 0.961 . S
H1832 C1816 0.931 . S
H1833 C1821 0.930 . S
H1834 C1822 0.956 . S
H1835 C1822 0.961 . S
H1836 C1822 0.961 . S
H1837 C1823 0.958 . S
H1838 C1823 0.961 . S
H1839 C1823 0.960 . S
C1840 C1841 1.391 . S
C1840 C1842 1.394 . S
C1840 H1856 0.931 . S
C1841 C1840 1.391 . S
C1841 C1845 1.376 . S
C1842 C1840 1.394 . S
C1842 C1843 1.369 . S
C1842 C1846 1.531 . S
C1843 C1842 1.369 . S
C1843 C1844 1.410 . S
C1843 C1851 1.503 . S
C1844 C1843 1.410 . S
C1844 C1845 1.392 . S
C1844 C1847 1.511 . S
C1845 C1841 1.376 . S
C1845 C1844 1.392 . S
C1845 H1857 0.929 . S
C1846 C1842 1.531 . S
C1846 H1858 0.960 . S
C1846 H1859 0.962 . S
C1846 H1860 0.960 . S
C1847 C1844 1.511 . S
C1847 H1861 0.961 . S
C1847 H1862 0.961 . S
C1847 H1863 0.961 . S
C1848 C1849 1.370 . S
C1848 C1850 1.363 . S
C1848 H1864 0.931 . S
C1849 C1848 1.370 . S
C1849 C1853 1.408 . S
C1850 C1848 1.363 . S
C1850 C1851 1.370 . S
C1850 C1854 1.524 . S
C1851 C1843 1.503 . S
C1851 C1850 1.370 . S
C1851 C1852 1.403 . S
C1852 C1851 1.403 . S
C1852 C1853 1.404 . S
C1852 C1855 1.539 . S
C1853 C1849 1.408 . S
C1853 C1852 1.404 . S
C1853 H1865 0.930 . S
C1854 C1850 1.524 . S
C1854 H1866 0.956 . S
C1854 H1867 0.961 . S
C1854 H1868 0.961 . S
C1855 C1852 1.539 . S
C1855 H1869 0.958 . S
C1855 H1870 0.961 . S
C1855 H1871 0.960 . S
H1856 C1840 0.931 . S
H1857 C1845 0.929 . S
H1858 C1846 0.960 . S
H1859 C1846 0.962 . S
H1860 C1846 0.960 . S
H1861 C1847 0.961 . S
H1862 C1847 0.961 . S
H1863 C1847 0.961 . S
H1864 C1848 0.931 . S
H1865 C1853 0.930 . S
H1866 C1854 0.956 . S
H1867 C1854 0.961 . S
H1868 C1854 0.961 . S
H1869 C1855 0.958 . S
H1870 C1855 0.961 . S
H1871 C1855 0.960 . S
C1872 C1873 1.391 . S
C1872 C1874 1.394 . S
C1872 H1888 0.931 . S
C1873 C1872 1.391 . S
C1873 C1877 1.376 . S
C1874 C1872 1.394 . S
C1874 C1875 1.369 . S
C1874 C1878 1.531 1_545 S
C1875 C1874 1.369 . S
C1875 C1876 1.410 . S
C1875 C1883 1.503 . S
C1876 C1875 1.410 . S
C1876 C1877 1.392 . S
C1876 C1879 1.511 . S
C1877 C1873 1.376 . S
C1877 C1876 1.392 . S
C1877 H1889 0.929 . S
C1878 C1874 1.531 1_565 S
C1878 H1890 0.960 . S
C1878 H1891 0.962 1_565 S
C1878 H1892 0.960 . S
C1879 C1876 1.511 . S
C1879 H1893 0.961 . S
C1879 H1894 0.961 . S
C1879 H1895 0.988 . S
C1880 C1881 1.346 1_545 S
C1880 C1882 1.363 . S
C1880 H1896 0.931 . S
C1881 C1880 1.346 1_565 S
C1881 C1885 1.431 . S
C1882 C1880 1.363 . S
C1882 C1883 1.370 . S
C1882 C1886 1.524 . S
C1883 C1875 1.503 . S
C1883 C1882 1.370 . S
C1883 C1884 1.403 1_545 S
C1884 C1883 1.403 1_565 S
C1884 C1885 1.404 . S
C1884 C1887 1.539 . S
C1885 C1881 1.431 . S
C1885 C1884 1.404 . S
C1885 H1897 0.930 . S
C1886 C1882 1.524 . S
C1886 H1898 0.956 . S
C1886 H1899 0.961 . S
C1886 H1900 0.961 . S
C1887 C1884 1.539 . S
C1887 H1901 0.958 . S
C1887 H1902 0.961 . S
C1887 H1903 0.960 . S
H1888 C1872 0.931 . S
H1889 C1877 0.929 . S
H1890 C1878 0.960 . S
H1891 C1878 0.962 1_545 S
H1892 C1878 0.960 . S
H1893 C1879 0.961 . S
H1894 C1879 0.961 . S
H1895 C1879 0.988 . S
H1896 C1880 0.931 . S
H1897 C1885 0.930 . S
H1898 C1886 0.956 . S
H1899 C1886 0.961 . S
H1900 C1886 0.961 . S
H1901 C1887 0.958 . S
H1902 C1887 0.961 . S
H1903 C1887 0.960 . S
C1904 C1905 1.391 . S
C1904 C1906 1.394 . S
C1904 H1920 0.931 . S
C1905 C1904 1.391 . S
C1905 C1909 1.376 . S
C1906 C1904 1.394 . S
C1906 C1907 1.369 . S
C1906 C1910 1.531 . S
C1907 C1906 1.369 . S
C1907 C1908 1.410 . S
C1907 C1915 1.503 . S
C1908 C1907 1.410 . S
C1908 C1909 1.392 . S
C1908 C1911 1.511 . S
C1909 C1905 1.376 . S
C1909 C1908 1.392 . S
C1909 H1921 0.929 . S
C1910 C1906 1.531 . S
C1910 H1922 0.960 . S
C1910 H1923 0.962 . S
C1910 H1924 0.960 . S
C1911 C1908 1.511 . S
C1911 H1925 0.961 . S
C1911 H1926 0.961 . S
C1911 H1927 0.961 . S
C1912 C1913 1.370 . S
C1912 C1914 1.363 . S
C1912 H1928 0.931 . S
C1913 C1912 1.370 . S
C1913 C1917 1.408 . S
C1914 C1912 1.363 . S
C1914 C1915 1.370 . S
C1914 C1918 1.524 . S
C1915 C1907 1.503 . S
C1915 C1914 1.370 . S
C1915 C1916 1.403 . S
C1916 C1915 1.403 . S
C1916 C1917 1.404 . S
C1916 C1919 1.539 . S
C1917 C1913 1.408 . S
C1917 C1916 1.404 . S
C1917 H1929 0.930 . S
C1918 C1914 1.524 . S
C1918 H1930 0.956 . S
C1918 H1931 0.961 . S
C1918 H1932 0.961 . S
C1919 C1916 1.539 . S
C1919 H1933 0.958 . S
C1919 H1934 0.961 . S
C1919 H1935 0.960 . S
H1920 C1904 0.931 . S
H1921 C1909 0.929 . S
H1922 C1910 0.960 . S
H1923 C1910 0.962 . S
H1924 C1910 0.960 . S
H1925 C1911 0.961 . S
H1926 C1911 0.961 . S
H1927 C1911 0.961 . S
H1928 C1912 0.931 . S
H1929 C1917 0.930 . S
H1930 C1918 0.956 . S
H1931 C1918 0.961 . S
H1932 C1918 0.961 . S
H1933 C1919 0.958 . S
H1934 C1919 0.961 . S
H1935 C1919 0.960 . S
C1936 C1937 1.391 . S
C1936 C1938 1.394 . S
C1936 H1952 0.931 . S
C1937 C1936 1.391 . S
C1937 C1941 1.376 . S
C1938 C1936 1.394 . S
C1938 C1939 1.369 . S
C1938 C1942 1.531 1_554 S
C1939 C1938 1.369 . S
C1939 C1940 1.410 . S
C1939 C1947 1.503 . S
C1940 C1939 1.410 . S
C1940 C1941 1.392 . S
C1940 C1943 1.511 . S
C1941 C1937 1.376 . S
C1941 C1940 1.392 . S
C1941 H1953 0.929 . S
C1942 C1938 1.531 1_556 S
C1942 H1954 0.960 . S
C1942 H1955 0.962 1_556 S
C1942 H1956 0.960 . S
C1943 C1940 1.511 . S
C1943 H1957 0.961 . S
C1943 H1958 0.961 . S
C1943 H1959 0.961 . S
C1944 C1945 1.370 . S
C1944 C1946 1.363 . S
C1944 H1960 0.931 . S
C1945 C1944 1.370 . S
C1945 C1949 1.408 1_554 S
C1946 C1944 1.363 . S
C1946 C1947 1.370 . S
C1946 C1950 1.524 . S
C1947 C1939 1.503 . S
C1947 C1946 1.370 . S
C1947 C1948 1.403 1_554 S
C1948 C1947 1.403 1_556 S
C1948 C1949 1.404 . S
C1948 C1951 1.539 . S
C1949 C1945 1.408 1_556 S
C1949 C1948 1.404 . S
C1949 H1961 0.930 . S
C1950 C1946 1.524 . S
C1950 H1962 0.956 . S
C1950 H1963 0.961 . S
C1950 H1964 0.961 . S
C1951 C1948 1.539 . S
C1951 H1965 0.958 . S
C1951 H1966 0.961 . S
C1951 H1967 0.960 . S
H1952 C1936 0.931 . S
H1953 C1941 0.929 . S
H1954 C1942 0.960 . S
H1955 C1942 0.962 1_554 S
H1956 C1942 0.960 . S
H1957 C1943 0.961 . S
H1958 C1943 0.961 . S
H1959 C1943 0.961 . S
H1960 C1944 0.931 . S
H1961 C1949 0.930 . S
H1962 C1950 0.956 . S
H1963 C1950 0.961 . S
H1964 C1950 0.961 . S
H1965 C1951 0.958 . S
H1966 C1951 0.961 . S
H1967 C1951 0.960 . S
C1968 C1969 1.391 . S
C1968 C1970 1.394 . S
C1968 H1984 0.931 . S
C1969 C1968 1.391 . S
C1969 C1973 1.376 . S
C1970 C1968 1.394 . S
C1970 C1971 1.369 . S
C1970 C1974 1.531 . S
C1971 C1970 1.369 . S
C1971 C1972 1.410 . S
C1971 C1979 1.503 . S
C1972 C1971 1.410 . S
C1972 C1973 1.392 . S
C1972 C1975 1.511 . S
C1973 C1969 1.376 . S
C1973 C1972 1.392 . S
C1973 H1985 0.929 . S
C1974 C1970 1.531 . S
C1974 H1986 0.960 . S
C1974 H1987 0.962 . S
C1974 H1988 0.960 . S
C1975 C1972 1.511 . S
C1975 H1989 0.961 . S
C1975 H1990 0.961 . S
C1975 H1991 0.961 1_554 S
C1976 C1977 1.370 . S
C1976 C1978 1.363 . S
C1976 H1992 0.931 . S
C1977 C1976 1.370 . S
C1977 C1981 1.408 . S
C1978 C1976 1.363 . S
C1978 C1979 1.370 . S
C1978 C1982 1.524 . S
C1979 C1971 1.503 . S
C1979 C1978 1.370 . S
C1979 C1980 1.403 . S
C1980 C1979 1.403 . S
C1980 C1981 1.404 . S
C1980 C1983 1.539 1_554 S
C1981 C1977 1.408 . S
C1981 C1980 1.404 . S
C1981 H1993 0.937 . S
C1982 C1978 1.524 . S
C1982 H1994 0.956 . S
C1982 H1995 0.961 . S
C1982 H1996 0.961 . S
C1983 C1980 1.539 1_556 S
C1983 H1997 0.958 . S
C1983 H1998 0.961 . S
C1983 H1999 0.960 . S
H1984 C1968 0.931 . S
H1985 C1973 0.929 . S
H1986 C1974 0.960 . S
H1987 C1974 0.962 . S
H1988 C1974 0.960 . S
H1989 C1975 0.961 . S
H1990 C1975 0.961 . S
H1991 C1975 0.961 1_556 S
H1992 C1976 0.931 . S
H1993 C1981 0.937 . S
H1994 C1982 0.956 . S
H1995 C1982 0.961 . S
H1996 C1982 0.961 . S
H1997 C1983 0.958 . S
H1998 C1983 0.961 . S
H1999 C1983 0.960 . S
C2000 C2001 1.391 . S
C2000 C2002 1.394 . S
C2000 H2016 0.931 . S
C2001 C2000 1.391 . S
C2001 C2005 1.376 . S
C2002 C2000 1.394 . S
C2002 C2003 1.369 . S
C2002 C2006 1.531 . S
C2003 C2002 1.369 . S
C2003 C2004 1.410 . S
C2003 C2011 1.503 . S
C2004 C2003 1.410 . S
C2004 C2005 1.392 . S
C2004 C2007 1.511 . S
C2005 C2001 1.376 . S
C2005 C2004 1.392 . S
C2005 H2017 0.929 . S
C2006 C2002 1.531 . S
C2006 H2018 0.960 . S
C2006 H2019 0.962 . S
C2006 H2020 0.960 . S
C2007 C2004 1.511 . S
C2007 H2021 0.961 . S
C2007 H2022 0.961 . S
C2007 H2023 0.961 . S
C2008 C2009 1.370 . S
C2008 C2010 1.363 . S
C2008 H2024 0.931 . S
C2009 C2008 1.370 . S
C2009 C2013 1.408 . S
C2010 C2008 1.363 . S
C2010 C2011 1.370 . S
C2010 C2014 1.524 . S
C2011 C2003 1.503 . S
C2011 C2010 1.370 . S
C2011 C2012 1.403 . S
C2012 C2011 1.403 . S
C2012 C2013 1.404 . S
C2012 C2015 1.539 . S
C2013 C2009 1.408 . S
C2013 C2012 1.404 . S
C2013 H2025 0.930 . S
C2014 C2010 1.524 . S
C2014 H2026 0.956 . S
C2014 H2027 0.961 . S
C2014 H2028 0.961 . S
C2015 C2012 1.539 . S
C2015 H2029 0.958 . S
C2015 H2030 0.961 . S
C2015 H2031 0.960 . S
H2016 C2000 0.931 . S
H2017 C2005 0.929 . S
H2018 C2006 0.960 . S
H2019 C2006 0.962 . S
H2020 C2006 0.960 . S
H2021 C2007 0.961 . S
H2022 C2007 0.961 . S
H2023 C2007 0.961 . S
H2024 C2008 0.931 . S
H2025 C2013 0.930 . S
H2026 C2014 0.956 . S
H2027 C2014 0.961 . S
H2028 C2014 0.961 . S
H2029 C2015 0.958 . S
H2030 C2015 0.961 . S
H2031 C2015 0.960 . S
C2032 C2033 1.391 . S
C2032 C2034 1.394 . S
C2032 H2048 0.931 . S
C2033 C2032 1.391 . S
C2033 C2037 1.376 . S
C2034 C2032 1.394 . S
C2034 C2035 1.369 . S
C2034 C2038 1.531 . S
C2035 C2034 1.369 . S
C2035 C2036 1.410 . S
C2035 C2043 1.503 . S
C2036 C2035 1.410 . S
C2036 C2037 1.392 . S
C2036 C2039 1.511 . S
C2037 C2033 1.376 . S
C2037 C2036 1.392 . S
C2037 H2049 0.929 . S
C2038 C2034 1.531 . S
C2038 H2050 0.960 . S
C2038 H2051 0.962 . S
C2038 H2052 0.960 . S
C2039 C2036 1.511 . S
C2039 H2053 0.961 . S
C2039 H2054 0.961 . S
C2039 H2055 0.961 . S
C2040 C2041 1.370 . S
C2040 C2042 1.363 . S
C2040 H2056 0.931 . S
C2041 C2040 1.370 . S
C2041 C2045 1.408 . S
C2042 C2040 1.363 . S
C2042 C2043 1.370 . S
C2042 C2046 1.524 . S
C2043 C2035 1.503 . S
C2043 C2042 1.370 . S
C2043 C2044 1.403 . S
C2044 C2043 1.403 . S
C2044 C2045 1.404 . S
C2044 C2047 1.539 . S
C2045 C2041 1.408 . S
C2045 C2044 1.404 . S
C2045 H2057 0.930 . S
C2046 C2042 1.524 . S
C2046 H2058 0.956 . S
C2046 H2059 0.961 . S
C2046 H2060 0.961 . S
C2047 C2044 1.539 . S
C2047 H2061 0.958 . S
C2047 H2062 0.961 . S
C2047 H2063 0.960 . S
H2048 C2032 0.931 . S
H2049 C2037 0.929 . S
H2050 C2038 0.960 . S
H2051 C2038 0.962 . S
H2052 C2038 0.960 . S
H2053 C2039 0.961 . S
H2054 C2039 0.961 . S
H2055 C2039 0.961 . S
H2056 C2040 0.931 . S
H2057 C2045 0.930 . S
H2058 C2046 0.956 . S
H2059 C2046 0.961 . S
H2060 C2046 0.961 . S
H2061 C2047 0.958 . S
H2062 C2047 0.961 . S
H2063 C2047 0.960 . S
C2064 C2065 1.391 . S
C2064 C2066 1.394 . S
C2064 H2080 0.931 . S
C2065 C2064 1.391 . S
C2065 C2069 1.376 . S
C2066 C2064 1.394 . S
C2066 C2067 1.369 . S
C2066 C2070 1.531 . S
C2067 C2066 1.369 . S
C2067 C2068 1.410 . S
C2067 C2075 1.503 . S
C2068 C2067 1.410 . S
C2068 C2069 1.392 . S
C2068 C2071 1.511 . S
C2069 C2065 1.376 . S
C2069 C2068 1.392 . S
C2069 H2081 0.929 . S
C2070 C2066 1.531 . S
C2070 H2082 0.960 . S
C2070 H2083 0.962 . S
C2070 H2084 0.960 . S
C2071 C2068 1.511 . S
C2071 H2085 0.961 . S
C2071 H2086 0.961 . S
C2071 H2087 0.961 . S
C2072 C2073 1.370 . S
C2072 C2074 1.363 . S
C2072 H2088 0.931 . S
C2073 C2072 1.370 . S
C2073 C2077 1.408 . S
C2074 C2072 1.363 . S
C2074 C2075 1.370 . S
C2074 C2078 1.524 . S
C2075 C2067 1.503 . S
C2075 C2074 1.370 . S
C2075 C2076 1.403 . S
C2076 C2075 1.403 . S
C2076 C2077 1.404 . S
C2076 C2079 1.539 . S
C2077 C2073 1.408 . S
C2077 C2076 1.404 . S
C2077 H2089 0.930 . S
C2078 C2074 1.524 . S
C2078 H2090 0.956 . S
C2078 H2091 0.961 . S
C2078 H2092 0.961 . S
C2079 C2076 1.539 . S
C2079 H2093 0.958 . S
C2079 H2094 0.961 . S
C2079 H2095 0.960 . S
H2080 C2064 0.931 . S
H2081 C2069 0.929 . S
H2082 C2070 0.960 . S
H2083 C2070 0.962 . S
H2084 C2070 0.960 . S
H2085 C2071 0.961 . S
H2086 C2071 0.961 . S
H2087 C2071 0.961 . S
H2088 C2072 0.931 . S
H2089 C2077 0.930 . S
H2090 C2078 0.956 . S
H2091 C2078 0.961 . S
H2092 C2078 0.961 . S
H2093 C2079 0.958 . S
H2094 C2079 0.961 . S
H2095 C2079 0.960 . S
C2096 C2097 1.391 . S
C2096 C2098 1.394 . S
C2096 H2112 0.931 . S
C2097 C2096 1.391 . S
C2097 C2101 1.376 . S
C2098 C2096 1.394 . S
C2098 C2099 1.369 . S
C2098 C2102 1.531 . S
C2099 C2098 1.369 . S
C2099 C2100 1.410 . S
C2099 C2107 1.503 . S
C2100 C2099 1.410 . S
C2100 C2101 1.392 . S
C2100 C2103 1.511 . S
C2101 C2097 1.376 . S
C2101 C2100 1.392 . S
C2101 H2113 0.929 . S
C2102 C2098 1.531 . S
C2102 H2114 0.960 . S
C2102 H2115 0.962 . S
C2102 H2116 0.960 . S
C2103 C2100 1.511 . S
C2103 H2117 0.961 . S
C2103 H2118 0.961 . S
C2103 H2119 0.961 . S
C2104 C2105 1.370 . S
C2104 C2106 1.363 . S
C2104 H2120 0.931 . S
C2105 C2104 1.370 . S
C2105 C2109 1.408 . S
C2106 C2104 1.363 . S
C2106 C2107 1.370 . S
C2106 C2110 1.524 . S
C2107 C2099 1.503 . S
C2107 C2106 1.370 . S
C2107 C2108 1.403 . S
C2108 C2107 1.403 . S
C2108 C2109 1.404 . S
C2108 C2111 1.539 . S
C2109 C2105 1.408 . S
C2109 C2108 1.404 . S
C2109 H2121 0.930 . S
C2110 C2106 1.524 . S
C2110 H2122 0.956 . S
C2110 H2123 0.961 . S
C2110 H2124 0.961 . S
C2111 C2108 1.539 . S
C2111 H2125 0.958 . S
C2111 H2126 0.961 1_565 S
C2111 H2127 0.960 . S
H2112 C2096 0.931 . S
H2113 C2101 0.929 . S
H2114 C2102 0.960 . S
H2115 C2102 0.962 . S
H2116 C2102 0.960 . S
H2117 C2103 0.961 . S
H2118 C2103 0.961 . S
H2119 C2103 0.961 . S
H2120 C2104 0.931 . S
H2121 C2109 0.930 . S
H2122 C2110 0.956 . S
H2123 C2110 0.961 . S
H2124 C2110 0.961 . S
H2125 C2111 0.958 . S
H2126 C2111 0.961 1_545 S
H2127 C2111 0.960 . S
C2128 C2129 1.391 . S
C2128 C2130 1.394 . S
C2128 H2144 0.931 . S
C2129 C2128 1.391 . S
C2129 C2133 1.376 . S
C2130 C2128 1.394 . S
C2130 C2131 1.369 . S
C2130 C2134 1.531 . S
C2131 C2130 1.369 . S
C2131 C2132 1.410 . S
C2131 C2139 1.503 . S
C2132 C2131 1.410 . S
C2132 C2133 1.392 . S
C2132 C2135 1.511 . S
C2133 C2129 1.376 . S
C2133 C2132 1.392 . S
C2133 H2145 0.929 . S
C2134 C2130 1.531 . S
C2134 H2146 0.960 . S
C2134 H2147 0.962 . S
C2134 H2148 0.960 . S
C2135 C2132 1.511 . S
C2135 H2149 0.961 . S
C2135 H2150 0.961 . S
C2135 H2151 0.961 . S
C2136 C2137 1.370 . S
C2136 C2138 1.363 . S
C2136 H2152 0.931 . S
C2137 C2136 1.370 . S
C2137 C2141 1.408 . S
C2138 C2136 1.363 . S
C2138 C2139 1.370 . S
C2138 C2142 1.524 . S
C2139 C2131 1.503 . S
C2139 C2138 1.370 . S
C2139 C2140 1.403 . S
C2140 C2139 1.403 . S
C2140 C2141 1.404 . S
C2140 C2143 1.539 . S
C2141 C2137 1.408 . S
C2141 C2140 1.404 . S
C2141 H2153 0.930 . S
C2142 C2138 1.524 . S
C2142 H2154 0.956 . S
C2142 H2155 0.961 . S
C2142 H2156 0.961 . S
C2143 C2140 1.539 . S
C2143 H2157 0.958 . S
C2143 H2158 0.961 . S
C2143 H2159 0.960 . S
H2144 C2128 0.931 . S
H2145 C2133 0.929 . S
H2146 C2134 0.960 . S
H2147 C2134 0.962 . S
H2148 C2134 0.960 . S
H2149 C2135 0.961 . S
H2150 C2135 0.961 . S
H2151 C2135 0.961 . S
H2152 C2136 0.931 . S
H2153 C2141 0.930 . S
H2154 C2142 0.956 . S
H2155 C2142 0.961 . S
H2156 C2142 0.961 . S
H2157 C2143 0.958 . S
H2158 C2143 0.961 . S
H2159 C2143 0.960 . S
C2160 C2161 1.391 . S
C2160 C2162 1.394 . S
C2160 H2176 0.931 . S
C2161 C2160 1.391 . S
C2161 C2165 1.376 . S
C2162 C2160 1.394 . S
C2162 C2163 1.369 . S
C2162 C2166 1.531 . S
C2163 C2162 1.369 . S
C2163 C2164 1.410 . S
C2163 C2171 1.503 . S
C2164 C2163 1.410 . S
C2164 C2165 1.392 . S
C2164 C2167 1.511 . S
C2165 C2161 1.376 . S
C2165 C2164 1.392 . S
C2165 H2177 0.929 . S
C2166 C2162 1.531 . S
C2166 H2178 0.960 . S
C2166 H2179 0.962 . S
C2166 H2180 0.960 . S
C2167 C2164 1.511 . S
C2167 H2181 0.961 . S
C2167 H2182 0.961 . S
C2167 H2183 0.961 . S
C2168 C2169 1.370 . S
C2168 C2170 1.363 . S
C2168 H2184 0.931 . S
C2169 C2168 1.370 . S
C2169 C2173 1.408 . S
C2170 C2168 1.363 . S
C2170 C2171 1.370 . S
C2170 C2174 1.524 . S
C2171 C2163 1.503 . S
C2171 C2170 1.370 . S
C2171 C2172 1.403 . S
C2172 C2171 1.403 . S
C2172 C2173 1.404 . S
C2172 C2175 1.539 . S
C2173 C2169 1.408 . S
C2173 C2172 1.404 . S
C2173 H2185 0.930 . S
C2174 C2170 1.524 . S
C2174 H2186 0.956 . S
C2174 H2187 0.961 . S
C2174 H2188 0.961 . S
C2175 C2172 1.539 . S
C2175 H2189 0.958 . S
C2175 H2190 0.961 . S
C2175 H2191 0.960 . S
H2176 C2160 0.931 . S
H2177 C2165 0.929 . S
H2178 C2166 0.960 . S
H2179 C2166 0.962 . S
H2180 C2166 0.960 . S
H2181 C2167 0.961 . S
H2182 C2167 0.961 . S
H2183 C2167 0.961 . S
H2184 C2168 0.931 . S
H2185 C2173 0.930 . S
H2186 C2174 0.956 . S
H2187 C2174 0.961 . S
H2188 C2174 0.961 . S
H2189 C2175 0.958 . S
H2190 C2175 0.961 . S
H2191 C2175 0.960 . S
C2192 C2193 1.391 . S
C2192 C2194 1.394 . S
C2192 H2208 0.931 . S
C2193 C2192 1.391 . S
C2193 C2197 1.376 . S
C2194 C2192 1.394 . S
C2194 C2195 1.369 . S
C2194 C2198 1.531 . S
C2195 C2194 1.369 . S
C2195 C2196 1.410 . S
C2195 C2203 1.503 . S
C2196 C2195 1.410 . S
C2196 C2197 1.392 . S
C2196 C2199 1.511 . S
C2197 C2193 1.376 . S
C2197 C2196 1.392 . S
C2197 H2209 0.929 . S
C2198 C2194 1.531 . S
C2198 H2210 0.960 . S
C2198 H2211 0.962 . S
C2198 H2212 0.960 . S
C2199 C2196 1.511 . S
C2199 H2213 0.961 . S
C2199 H2214 0.961 . S
C2199 H2215 0.961 . S
C2200 C2201 1.370 . S
C2200 C2202 1.363 . S
C2200 H2216 0.931 . S
C2201 C2200 1.370 . S
C2201 C2205 1.408 . S
C2202 C2200 1.363 . S
C2202 C2203 1.370 . S
C2202 C2206 1.524 . S
C2203 C2195 1.503 . S
C2203 C2202 1.370 . S
C2203 C2204 1.403 . S
C2204 C2203 1.403 . S
C2204 C2205 1.404 . S
C2204 C2207 1.539 . S
C2205 C2201 1.408 . S
C2205 C2204 1.404 . S
C2205 H2217 0.930 . S
C2206 C2202 1.524 . S
C2206 H2218 0.956 . S
C2206 H2219 0.961 . S
C2206 H2220 0.961 . S
C2207 C2204 1.539 . S
C2207 H2221 0.958 . S
C2207 H2222 0.961 . S
C2207 H2223 0.960 . S
H2208 C2192 0.931 . S
H2209 C2197 0.929 . S
H2210 C2198 0.960 . S
H2211 C2198 0.962 . S
H2212 C2198 0.960 . S
H2213 C2199 0.961 . S
H2214 C2199 0.961 . S
H2215 C2199 0.961 . S
H2216 C2200 0.931 . S
H2217 C2205 0.930 . S
H2218 C2206 0.956 . S
H2219 C2206 0.961 . S
H2220 C2206 0.961 . S
H2221 C2207 0.958 . S
H2222 C2207 0.961 . S
H2223 C2207 0.960 . S
C2224 C2225 1.391 . S
C2224 C2226 1.394 . S
C2224 H2240 0.931 . S
C2225 C2224 1.391 . S
C2225 C2229 1.376 . S
C2226 C2224 1.394 . S
C2226 C2227 1.369 . S
C2226 C2230 1.531 . S
C2227 C2226 1.369 . S
C2227 C2228 1.410 . S
C2227 C2235 1.503 . S
C2228 C2227 1.410 . S
C2228 C2229 1.392 . S
C2228 C2231 1.511 . S
C2229 C2225 1.376 . S
C2229 C2228 1.392 . S
C2229 H2241 0.929 . S
C2230 C2226 1.531 . S
C2230 H2242 0.960 . S
C2230 H2243 0.962 . S
C2230 H2244 0.960 . S
C2231 C2228 1.511 . S
C2231 H2245 0.961 . S
C2231 H2246 0.961 . S
C2231 H2247 0.961 . S
C2232 C2233 1.370 . S
C2232 C2234 1.363 . S
C2232 H2248 0.931 . S
C2233 C2232 1.370 . S
C2233 C2237 1.408 . S
C2234 C2232 1.363 . S
C2234 C2235 1.370 . S
C2234 C2238 1.524 . S
C2235 C2227 1.503 . S
C2235 C2234 1.370 . S
C2235 C2236 1.403 . S
C2236 C2235 1.403 . S
C2236 C2237 1.404 . S
C2236 C2239 1.539 . S
C2237 C2233 1.408 . S
C2237 C2236 1.404 . S
C2237 H2249 0.930 . S
C2238 C2234 1.524 . S
C2238 H2250 0.956 . S
C2238 H2251 0.961 . S
C2238 H2252 0.961 . S
C2239 C2236 1.539 . S
C2239 H2253 0.958 . S
C2239 H2254 0.961 . S
C2239 H2255 0.960 . S
H2240 C2224 0.931 . S
H2241 C2229 0.929 . S
H2242 C2230 0.960 . S
H2243 C2230 0.962 . S
H2244 C2230 0.960 . S
H2245 C2231 0.961 . S
H2246 C2231 0.961 . S
H2247 C2231 0.961 . S
H2248 C2232 0.931 . S
H2249 C2237 0.930 . S
H2250 C2238 0.956 . S
H2251 C2238 0.961 . S
H2252 C2238 0.961 . S
H2253 C2239 0.958 . S
H2254 C2239 0.961 . S
H2255 C2239 0.960 . S
C2256 C2257 1.391 1_655 S
C2256 C2258 1.394 . S
C2256 H2272 0.931 . S
C2257 C2256 1.391 1_455 S
C2257 C2261 1.376 . S
C2258 C2256 1.394 . S
C2258 C2259 1.369 1_655 S
C2258 C2262 1.531 . S
C2259 C2258 1.369 1_455 S
C2259 C2260 1.410 . S
C2259 C2267 1.503 . S
C2260 C2259 1.410 . S
C2260 C2261 1.392 . S
C2260 C2263 1.511 . S
C2261 C2257 1.376 . S
C2261 C2260 1.392 . S
C2261 H2273 0.929 . S
C2262 C2258 1.531 . S
C2262 H2274 0.960 . S
C2262 H2275 0.962 . S
C2262 H2276 0.960 . S
C2263 C2260 1.511 . S
C2263 H2277 0.961 . S
C2263 H2278 0.961 . S
C2263 H2279 0.961 . S
C2264 C2265 1.370 1_655 S
C2264 C2266 1.363 . S
C2264 H2280 0.931 . S
C2265 C2264 1.370 1_455 S
C2265 C2269 1.408 1_556 S
C2266 C2264 1.363 . S
C2266 C2267 1.370 1_655 S
C2266 C2270 1.524 . S
C2267 C2259 1.503 . S
C2267 C2266 1.370 1_455 S
C2267 C2268 1.403 . S
C2268 C2267 1.403 . S
C2268 C2269 1.404 1_556 S
C2268 C2271 1.539 1_556 S
C2269 C2265 1.408 1_554 S
C2269 C2268 1.404 1_554 S
C2269 H2281 0.930 . S
C2270 C2266 1.524 . S
C2270 H2282 0.956 . S
C2270 H2283 0.961 . S
C2270 H2284 0.961 . S
C2271 C2268 1.539 1_554 S
C2271 H2285 0.958 . S
C2271 H2286 0.961 . S
C2271 H2287 0.960 1_554 S
H2272 C2256 0.931 . S
H2273 C2261 0.929 . S
H2274 C2262 0.960 . S
H2275 C2262 0.962 . S
H2276 C2262 0.960 . S
H2277 C2263 0.961 . S
H2278 C2263 0.961 . S
H2279 C2263 0.961 . S
H2280 C2264 0.931 . S
H2281 C2269 0.930 . S
H2282 C2270 0.956 . S
H2283 C2270 0.961 . S
H2284 C2270 0.961 . S
H2285 C2271 0.958 . S
H2286 C2271 0.961 . S
H2287 C2271 0.960 1_556 S
C2288 C2289 1.391 . S
C2288 C2290 1.394 . S
C2288 H2304 0.931 . S
C2289 C2288 1.391 . S
C2289 C2293 1.376 . S
C2290 C2288 1.394 . S
C2290 C2291 1.369 . S
C2290 C2294 1.531 . S
C2291 C2290 1.369 . S
C2291 C2292 1.410 . S
C2291 C2299 1.503 . S
C2292 C2291 1.410 . S
C2292 C2293 1.392 . S
C2292 C2295 1.511 . S
C2293 C2289 1.376 . S
C2293 C2292 1.392 . S
C2293 H2305 0.929 . S
C2294 C2290 1.531 . S
C2294 H2306 0.960 . S
C2294 H2307 0.962 . S
C2294 H2308 0.960 . S
C2295 C2292 1.511 . S
C2295 H2309 0.961 . S
C2295 H2310 0.961 . S
C2295 H2311 0.961 . S
C2296 C2297 1.370 . S
C2296 C2298 1.363 . S
C2296 H2312 0.931 . S
C2297 C2296 1.370 . S
C2297 C2301 1.408 . S
C2298 C2296 1.363 . S
C2298 C2299 1.370 . S
C2298 C2302 1.524 . S
C2299 C2291 1.503 . S
C2299 C2298 1.370 . S
C2299 C2300 1.403 . S
C2300 C2299 1.403 . S
C2300 C2301 1.404 . S
C2300 C2303 1.539 . S
C2301 C2297 1.408 . S
C2301 C2300 1.404 . S
C2301 H2313 0.930 . S
C2302 C2298 1.524 . S
C2302 H2314 0.956 . S
C2302 H2315 0.961 . S
C2302 H2316 0.961 . S
C2303 C2300 1.539 . S
C2303 H2317 0.958 . S
C2303 H2318 0.961 . S
C2303 H2319 0.960 . S
H2304 C2288 0.931 . S
H2305 C2293 0.929 . S
H2306 C2294 0.960 . S
H2307 C2294 0.962 . S
H2308 C2294 0.960 . S
H2309 C2295 0.961 . S
H2310 C2295 0.961 . S
H2311 C2295 0.961 . S
H2312 C2296 0.931 . S
H2313 C2301 0.930 . S
H2314 C2302 0.956 . S
H2315 C2302 0.961 . S
H2316 C2302 0.961 . S
H2317 C2303 0.958 . S
H2318 C2303 0.961 . S
H2319 C2303 0.960 . S
C2320 C2321 1.391 . S
C2320 C2322 1.394 . S
C2320 H2336 0.931 . S
C2321 C2320 1.391 . S
C2321 C2325 1.376 . S
C2322 C2320 1.394 . S
C2322 C2323 1.369 . S
C2322 C2326 1.531 . S
C2323 C2322 1.369 . S
C2323 C2324 1.410 . S
C2323 C2331 1.503 . S
C2324 C2323 1.410 . S
C2324 C2325 1.392 . S
C2324 C2327 1.511 . S
C2325 C2321 1.376 . S
C2325 C2324 1.392 . S
C2325 H2337 0.929 . S
C2326 C2322 1.531 . S
C2326 H2338 0.960 . S
C2326 H2339 0.962 . S
C2326 H2340 0.960 . S
C2327 C2324 1.511 . S
C2327 H2341 0.961 . S
C2327 H2342 0.961 . S
C2327 H2343 0.961 . S
C2328 C2329 1.370 . S
C2328 C2330 1.363 . S
C2328 H2344 0.931 . S
C2329 C2328 1.370 . S
C2329 C2333 1.408 . S
C2330 C2328 1.363 . S
C2330 C2331 1.370 . S
C2330 C2334 1.524 . S
C2331 C2323 1.503 . S
C2331 C2330 1.370 . S
C2331 C2332 1.403 . S
C2332 C2331 1.403 . S
C2332 C2333 1.404 . S
C2332 C2335 1.539 . S
C2333 C2329 1.408 . S
C2333 C2332 1.404 . S
C2333 H2345 0.930 . S
C2334 C2330 1.524 . S
C2334 H2346 0.956 . S
C2334 H2347 0.961 . S
C2334 H2348 0.961 . S
C2335 C2332 1.539 . S
C2335 H2349 0.958 . S
C2335 H2350 0.961 . S
C2335 H2351 0.960 . S
H2336 C2320 0.931 . S
H2337 C2325 0.929 . S
H2338 C2326 0.960 . S
H2339 C2326 0.962 . S
H2340 C2326 0.960 . S
H2341 C2327 0.961 . S
H2342 C2327 0.961 . S
H2343 C2327 0.961 . S
H2344 C2328 0.931 . S
H2345 C2333 0.930 . S
H2346 C2334 0.956 . S
H2347 C2334 0.961 . S
H2348 C2334 0.961 . S
H2349 C2335 0.958 . S
H2350 C2335 0.961 . S
H2351 C2335 0.960 . S
C2352 C2353 1.391 . S
C2352 C2354 1.394 . S
C2352 H2368 0.931 . S
C2353 C2352 1.391 . S
C2353 C2357 1.376 . S
C2354 C2352 1.394 . S
C2354 C2355 1.369 . S
C2354 C2358 1.531 . S
C2355 C2354 1.369 . S
C2355 C2356 1.410 . S
C2355 C2363 1.503 . S
C2356 C2355 1.410 . S
C2356 C2357 1.392 . S
C2356 C2359 1.511 . S
C2357 C2353 1.376 . S
C2357 C2356 1.392 . S
C2357 H2369 0.929 . S
C2358 C2354 1.531 . S
C2358 H2370 0.960 . S
C2358 H2371 0.962 . S
C2358 H2372 0.960 . S
C2359 C2356 1.511 . S
C2359 H2373 0.961 . S
C2359 H2374 0.961 . S
C2359 H2375 0.961 . S
C2360 C2361 1.370 . S
C2360 C2362 1.363 . S
C2360 H2376 0.931 . S
C2361 C2360 1.370 . S
C2361 C2365 1.408 . S
C2362 C2360 1.363 . S
C2362 C2363 1.370 . S
C2362 C2366 1.524 . S
C2363 C2355 1.503 . S
C2363 C2362 1.370 . S
C2363 C2364 1.403 . S
C2364 C2363 1.403 . S
C2364 C2365 1.404 . S
C2364 C2367 1.539 . S
C2365 C2361 1.408 . S
C2365 C2364 1.404 . S
C2365 H2377 0.930 . S
C2366 C2362 1.524 . S
C2366 H2378 0.956 . S
C2366 H2379 0.961 . S
C2366 H2380 0.961 . S
C2367 C2364 1.539 . S
C2367 H2381 0.958 . S
C2367 H2382 0.961 . S
C2367 H2383 0.960 . S
H2368 C2352 0.931 . S
H2369 C2357 0.929 . S
H2370 C2358 0.960 . S
H2371 C2358 0.962 . S
H2372 C2358 0.960 . S
H2373 C2359 0.961 . S
H2374 C2359 0.961 . S
H2375 C2359 0.961 . S
H2376 C2360 0.931 . S
H2377 C2365 0.930 . S
H2378 C2366 0.956 . S
H2379 C2366 0.961 . S
H2380 C2366 0.961 . S
H2381 C2367 0.958 . S
H2382 C2367 0.961 . S
H2383 C2367 0.960 . S
C2384 C2385 1.404 . S
C2384 C2386 1.394 . S
C2384 H2400 0.931 . S
C2385 C2384 1.404 . S
C2385 C2389 1.365 1_455 S
C2386 C2384 1.394 . S
C2386 C2387 1.396 . S
C2386 C2390 1.531 . S
C2387 C2386 1.396 . S
C2387 C2388 1.374 1_455 S
C2387 C2395 1.514 . S
C2388 C2387 1.374 1_655 S
C2388 C2389 1.392 . S
C2388 C2391 1.511 . S
C2389 C2385 1.365 1_655 S
C2389 C2388 1.392 . S
C2389 H2401 0.929 . S
C2390 C2386 1.531 . S
C2390 H2402 0.960 . S
C2390 H2403 0.962 . S
C2390 H2404 0.960 . S
C2391 C2388 1.511 . S
C2391 H2405 0.961 . S
C2391 H2406 0.961 . S
C2391 H2407 0.961 . S
C2392 C2393 1.370 . S
C2392 C2394 1.363 . S
C2392 H2408 0.931 . S
C2393 C2392 1.370 . S
C2393 C2397 1.408 1_455 S
C2394 C2392 1.363 . S
C2394 C2395 1.370 . S
C2394 C2398 1.524 . S
C2395 C2387 1.514 . S
C2395 C2394 1.370 . S
C2395 C2396 1.403 1_455 S
C2396 C2395 1.403 1_655 S
C2396 C2397 1.404 . S
C2396 C2399 1.539 . S
C2397 C2393 1.408 1_655 S
C2397 C2396 1.404 . S
C2397 H2409 0.930 . S
C2398 C2394 1.524 . S
C2398 H2410 0.956 . S
C2398 H2411 0.961 . S
C2398 H2412 0.961 . S
C2399 C2396 1.539 . S
C2399 H2413 0.958 . S
C2399 H2414 0.961 . S
C2399 H2415 0.960 . S
H2400 C2384 0.931 . S
H2401 C2389 0.929 . S
H2402 C2390 0.960 . S
H2403 C2390 0.962 . S
H2404 C2390 0.960 . S
H2405 C2391 0.961 . S
H2406 C2391 0.961 . S
H2407 C2391 0.961 . S
H2408 C2392 0.931 . S
H2409 C2397 0.930 . S
H2410 C2398 0.956 . S
H2411 C2398 0.961 . S
H2412 C2398 0.961 . S
H2413 C2399 0.958 . S
H2414 C2399 0.961 . S
H2415 C2399 0.960 . S
C2416 C2417 1.391 . S
C2416 C2418 1.394 . S
C2416 H2432 0.931 . S
C2417 C2416 1.391 . S
C2417 C2421 1.376 . S
C2418 C2416 1.394 . S
C2418 C2419 1.369 . S
C2418 C2422 1.531 . S
C2419 C2418 1.369 . S
C2419 C2420 1.410 . S
C2419 C2427 1.503 . S
C2420 C2419 1.410 . S
C2420 C2421 1.392 . S
C2420 C2423 1.511 . S
C2421 C2417 1.376 . S
C2421 C2420 1.392 . S
C2421 H2433 0.929 . S
C2422 C2418 1.531 . S
C2422 H2434 0.960 . S
C2422 H2435 0.962 . S
C2422 H2436 0.960 . S
C2423 C2420 1.511 . S
C2423 H2437 0.961 . S
C2423 H2438 0.961 . S
C2423 H2439 0.961 . S
C2424 C2425 1.370 . S
C2424 C2426 1.363 . S
C2424 H2440 0.931 . S
C2425 C2424 1.370 . S
C2425 C2429 1.408 . S
C2426 C2424 1.363 . S
C2426 C2427 1.370 . S
C2426 C2430 1.524 . S
C2427 C2419 1.503 . S
C2427 C2426 1.370 . S
C2427 C2428 1.403 . S
C2428 C2427 1.403 . S
C2428 C2429 1.404 . S
C2428 C2431 1.539 . S
C2429 C2425 1.408 . S
C2429 C2428 1.404 . S
C2429 H2441 0.930 . S
C2430 C2426 1.524 . S
C2430 H2442 0.956 . S
C2430 H2443 0.961 . S
C2430 H2444 0.961 . S
C2431 C2428 1.539 . S
C2431 H2445 0.958 . S
C2431 H2446 0.961 . S
C2431 H2447 0.960 . S
H2432 C2416 0.931 . S
H2433 C2421 0.929 . S
H2434 C2422 0.960 . S
H2435 C2422 0.962 . S
H2436 C2422 0.960 . S
H2437 C2423 0.961 . S
H2438 C2423 0.961 . S
H2439 C2423 0.961 . S
H2440 C2424 0.931 . S
H2441 C2429 0.930 . S
H2442 C2430 0.956 . S
H2443 C2430 0.961 . S
H2444 C2430 0.961 . S
H2445 C2431 0.958 . S
H2446 C2431 0.961 . S
H2447 C2431 0.960 . S
C2448 C2449 1.391 . S
C2448 C2450 1.394 . S
C2448 H2464 0.931 . S
C2449 C2448 1.391 . S
C2449 C2453 1.376 . S
C2450 C2448 1.394 . S
C2450 C2451 1.369 . S
C2450 C2454 1.531 . S
C2451 C2450 1.369 . S
C2451 C2452 1.410 . S
C2451 C2459 1.503 . S
C2452 C2451 1.410 . S
C2452 C2453 1.392 . S
C2452 C2455 1.511 . S
C2453 C2449 1.376 . S
C2453 C2452 1.392 . S
C2453 H2465 0.929 . S
C2454 C2450 1.531 . S
C2454 H2466 0.960 . S
C2454 H2467 0.962 . S
C2454 H2468 0.960 . S
C2455 C2452 1.511 . S
C2455 H2469 0.961 . S
C2455 H2470 0.961 . S
C2455 H2471 0.961 . S
C2456 C2457 1.370 . S
C2456 C2458 1.363 . S
C2456 H2472 0.931 . S
C2457 C2456 1.370 . S
C2457 C2461 1.408 . S
C2458 C2456 1.363 . S
C2458 C2459 1.370 . S
C2458 C2462 1.524 . S
C2459 C2451 1.503 . S
C2459 C2458 1.370 . S
C2459 C2460 1.403 . S
C2460 C2459 1.403 . S
C2460 C2461 1.404 . S
C2460 C2463 1.539 . S
C2461 C2457 1.408 . S
C2461 C2460 1.404 . S
C2461 H2473 0.930 . S
C2462 C2458 1.524 . S
C2462 H2474 0.956 . S
C2462 H2475 0.961 . S
C2462 H2476 0.961 . S
C2463 C2460 1.539 . S
C2463 H2477 0.958 . S
C2463 H2478 0.961 . S
C2463 H2479 0.960 . S
H2464 C2448 0.931 . S
H2465 C2453 0.929 . S
H2466 C2454 0.960 . S
H2467 C2454 0.962 . S
H2468 C2454 0.960 . S
H2469 C2455 0.961 . S
H2470 C2455 0.961 . S
H2471 C2455 0.961 . S
H2472 C2456 0.931 . S
H2473 C2461 0.930 . S
H2474 C2462 0.956 . S
H2475 C2462 0.961 . S
H2476 C2462 0.961 . S
H2477 C2463 0.958 . S
H2478 C2463 0.961 . S
H2479 C2463 0.960 . S
C2480 C2481 1.391 . S
C2480 C2482 1.394 . S
C2480 H2496 0.931 . S
C2481 C2480 1.391 . S
C2481 C2485 1.376 . S
C2482 C2480 1.394 . S
C2482 C2483 1.369 . S
C2482 C2486 1.531 . S
C2483 C2482 1.369 . S
C2483 C2484 1.410 . S
C2483 C2491 1.503 . S
C2484 C2483 1.410 . S
C2484 C2485 1.392 . S
C2484 C2487 1.511 . S
C2485 C2481 1.376 . S
C2485 C2484 1.392 . S
C2485 H2497 0.929 . S
C2486 C2482 1.531 . S
C2486 H2498 0.960 . S
C2486 H2499 0.962 . S
C2486 H2500 0.960 . S
C2487 C2484 1.511 . S
C2487 H2501 0.961 . S
C2487 H2502 0.961 . S
C2487 H2503 0.961 . S
C2488 C2489 1.370 . S
C2488 C2490 1.363 . S
C2488 H2504 0.931 . S
C2489 C2488 1.370 . S
C2489 C2493 1.408 . S
C2490 C2488 1.363 . S
C2490 C2491 1.370 . S
C2490 C2494 1.524 . S
C2491 C2483 1.503 . S
C2491 C2490 1.370 . S
C2491 C2492 1.403 . S
C2492 C2491 1.403 . S
C2492 C2493 1.404 . S
C2492 C2495 1.539 . S
C2493 C2489 1.408 . S
C2493 C2492 1.404 . S
C2493 H2505 0.930 . S
C2494 C2490 1.524 . S
C2494 H2506 0.956 . S
C2494 H2507 0.961 . S
C2494 H2508 0.961 . S
C2495 C2492 1.539 . S
C2495 H2509 0.958 . S
C2495 H2510 0.961 . S
C2495 H2511 0.960 . S
H2496 C2480 0.931 . S
H2497 C2485 0.929 . S
H2498 C2486 0.960 . S
H2499 C2486 0.962 . S
H2500 C2486 0.960 . S
H2501 C2487 0.961 . S
H2502 C2487 0.961 . S
H2503 C2487 0.961 . S
H2504 C2488 0.931 . S
H2505 C2493 0.930 . S
H2506 C2494 0.956 . S
H2507 C2494 0.961 . S
H2508 C2494 0.961 . S
H2509 C2495 0.958 . S
H2510 C2495 0.961 . S
H2511 C2495 0.960 . S
C2512 C2513 1.391 . S
C2512 C2514 1.394 . S
C2512 H2528 0.931 . S
C2513 C2512 1.391 . S
C2513 C2517 1.376 . S
C2514 C2512 1.394 . S
C2514 C2515 1.369 . S
C2514 C2518 1.531 . S
C2515 C2514 1.369 . S
C2515 C2516 1.410 . S
C2515 C2523 1.503 . S
C2516 C2515 1.410 . S
C2516 C2517 1.392 . S
C2516 C2519 1.511 . S
C2517 C2513 1.376 . S
C2517 C2516 1.392 . S
C2517 H2529 0.929 . S
C2518 C2514 1.531 . S
C2518 H2530 0.960 . S
C2518 H2531 0.962 . S
C2518 H2532 0.960 . S
C2519 C2516 1.511 . S
C2519 H2533 0.961 . S
C2519 H2534 0.961 . S
C2519 H2535 0.961 . S
C2520 C2521 1.370 . S
C2520 C2522 1.363 . S
C2520 H2536 0.931 . S
C2521 C2520 1.370 . S
C2521 C2525 1.408 . S
C2522 C2520 1.363 . S
C2522 C2523 1.370 . S
C2522 C2526 1.524 . S
C2523 C2515 1.503 . S
C2523 C2522 1.370 . S
C2523 C2524 1.403 . S
C2524 C2523 1.403 . S
C2524 C2525 1.404 . S
C2524 C2527 1.539 . S
C2525 C2521 1.408 . S
C2525 C2524 1.404 . S
C2525 H2537 0.930 . S
C2526 C2522 1.524 . S
C2526 H2538 0.956 . S
C2526 H2539 0.961 . S
C2526 H2540 0.961 . S
C2527 C2524 1.539 . S
C2527 H2541 0.958 . S
C2527 H2542 0.961 . S
C2527 H2543 0.960 . S
H2528 C2512 0.931 . S
H2529 C2517 0.929 . S
H2530 C2518 0.960 . S
H2531 C2518 0.962 . S
H2532 C2518 0.960 . S
H2533 C2519 0.961 . S
H2534 C2519 0.961 . S
H2535 C2519 0.961 . S
H2536 C2520 0.931 . S
H2537 C2525 0.930 . S
H2538 C2526 0.956 . S
H2539 C2526 0.961 . S
H2540 C2526 0.961 . S
H2541 C2527 0.958 . S
H2542 C2527 0.961 . S
H2543 C2527 0.960 . S
C2544 C2545 1.391 . S
C2544 C2546 1.394 . S
C2544 H2560 0.931 . S
C2545 C2544 1.391 . S
C2545 C2549 1.376 . S
C2546 C2544 1.394 . S
C2546 C2547 1.369 . S
C2546 C2550 1.531 . S
C2547 C2546 1.369 . S
C2547 C2548 1.410 . S
C2547 C2555 1.503 . S
C2548 C2547 1.410 . S
C2548 C2549 1.392 . S
C2548 C2551 1.511 . S
C2549 C2545 1.376 . S
C2549 C2548 1.392 . S
C2549 H2561 0.929 . S
C2550 C2546 1.531 . S
C2550 H2562 0.960 . S
C2550 H2563 0.962 . S
C2550 H2564 0.960 . S
C2551 C2548 1.511 . S
C2551 H2565 0.961 . S
C2551 H2566 0.961 . S
C2551 H2567 0.961 . S
C2552 C2553 1.370 . S
C2552 C2554 1.363 . S
C2552 H2568 0.931 . S
C2553 C2552 1.370 . S
C2553 C2557 1.408 . S
C2554 C2552 1.363 . S
C2554 C2555 1.370 . S
C2554 C2558 1.524 . S
C2555 C2547 1.503 . S
C2555 C2554 1.370 . S
C2555 C2556 1.403 . S
C2556 C2555 1.403 . S
C2556 C2557 1.404 . S
C2556 C2559 1.539 . S
C2557 C2553 1.408 . S
C2557 C2556 1.404 . S
C2557 H2569 0.930 . S
C2558 C2554 1.524 . S
C2558 H2570 0.956 . S
C2558 H2571 0.961 . S
C2558 H2572 0.961 . S
C2559 C2556 1.539 . S
C2559 H2573 0.958 . S
C2559 H2574 0.961 . S
C2559 H2575 0.960 . S
H2560 C2544 0.931 . S
H2561 C2549 0.929 . S
H2562 C2550 0.960 . S
H2563 C2550 0.962 . S
H2564 C2550 0.960 . S
H2565 C2551 0.961 . S
H2566 C2551 0.961 . S
H2567 C2551 0.961 . S
H2568 C2552 0.931 . S
H2569 C2557 0.930 . S
H2570 C2558 0.956 . S
H2571 C2558 0.961 . S
H2572 C2558 0.961 . S
H2573 C2559 0.958 . S
H2574 C2559 0.961 . S
H2575 C2559 0.960 . S
C2576 C2577 1.391 . S
C2576 C2578 1.394 . S
C2576 H2592 0.931 . S
C2577 C2576 1.391 . S
C2577 C2581 1.376 . S
C2578 C2576 1.394 . S
C2578 C2579 1.369 . S
C2578 C2582 1.531 . S
C2579 C2578 1.369 . S
C2579 C2580 1.410 . S
C2579 C2587 1.503 . S
C2580 C2579 1.410 . S
C2580 C2581 1.392 . S
C2580 C2583 1.511 . S
C2581 C2577 1.376 . S
C2581 C2580 1.392 . S
C2581 H2593 0.929 . S
C2582 C2578 1.531 . S
C2582 H2594 0.960 . S
C2582 H2595 0.962 . S
C2582 H2596 0.960 . S
C2583 C2580 1.511 . S
C2583 H2597 0.961 . S
C2583 H2598 0.961 . S
C2583 H2599 0.961 . S
C2584 C2585 1.370 . S
C2584 C2586 1.363 . S
C2584 H2600 0.931 . S
C2585 C2584 1.370 . S
C2585 C2589 1.408 . S
C2586 C2584 1.363 . S
C2586 C2587 1.370 . S
C2586 C2590 1.524 . S
C2587 C2579 1.503 . S
C2587 C2586 1.370 . S
C2587 C2588 1.403 . S
C2588 C2587 1.403 . S
C2588 C2589 1.404 . S
C2588 C2591 1.539 . S
C2589 C2585 1.408 . S
C2589 C2588 1.404 . S
C2589 H2601 0.930 . S
C2590 C2586 1.524 . S
C2590 H2602 0.956 . S
C2590 H2603 0.961 . S
C2590 H2604 0.961 . S
C2591 C2588 1.539 . S
C2591 H2605 0.958 . S
C2591 H2606 0.961 . S
C2591 H2607 0.960 . S
H2592 C2576 0.931 . S
H2593 C2581 0.929 . S
H2594 C2582 0.960 . S
H2595 C2582 0.962 . S
H2596 C2582 0.960 . S
H2597 C2583 0.961 . S
H2598 C2583 0.961 . S
H2599 C2583 0.961 . S
H2600 C2584 0.931 . S
H2601 C2589 0.930 . S
H2602 C2590 0.956 . S
H2603 C2590 0.961 . S
H2604 C2590 0.961 . S
H2605 C2591 0.958 . S
H2606 C2591 0.961 . S
H2607 C2591 0.960 . S
C2608 C2609 1.391 . S
C2608 C2610 1.394 . S
C2608 H2624 0.931 . S
C2609 C2608 1.391 . S
C2609 C2613 1.376 . S
C2610 C2608 1.394 . S
C2610 C2611 1.369 . S
C2610 C2614 1.531 . S
C2611 C2610 1.369 . S
C2611 C2612 1.410 . S
C2611 C2619 1.503 . S
C2612 C2611 1.410 . S
C2612 C2613 1.392 . S
C2612 C2615 1.511 . S
C2613 C2609 1.376 . S
C2613 C2612 1.392 . S
C2613 H2625 0.929 . S
C2614 C2610 1.531 . S
C2614 H2626 0.960 . S
C2614 H2627 0.962 . S
C2614 H2628 0.960 . S
C2615 C2612 1.511 . S
C2615 H2629 0.961 . S
C2615 H2630 0.961 . S
C2615 H2631 0.961 . S
C2616 C2617 1.370 . S
C2616 C2618 1.363 . S
C2616 H2632 0.931 . S
C2617 C2616 1.370 . S
C2617 C2621 1.408 . S
C2618 C2616 1.363 . S
C2618 C2619 1.370 . S
C2618 C2622 1.524 . S
C2619 C2611 1.503 . S
C2619 C2618 1.370 . S
C2619 C2620 1.403 . S
C2620 C2619 1.403 . S
C2620 C2621 1.404 . S
C2620 C2623 1.539 . S
C2621 C2617 1.408 . S
C2621 C2620 1.404 . S
C2621 H2633 0.930 . S
C2622 C2618 1.524 . S
C2622 H2634 0.956 . S
C2622 H2635 0.961 . S
C2622 H2636 0.961 . S
C2623 C2620 1.539 . S
C2623 H2637 0.958 . S
C2623 H2638 0.961 . S
C2623 H2639 0.960 . S
H2624 C2608 0.931 . S
H2625 C2613 0.929 . S
H2626 C2614 0.960 . S
H2627 C2614 0.962 . S
H2628 C2614 0.960 . S
H2629 C2615 0.961 . S
H2630 C2615 0.961 . S
H2631 C2615 0.961 . S
H2632 C2616 0.931 . S
H2633 C2621 0.930 . S
H2634 C2622 0.956 . S
H2635 C2622 0.961 . S
H2636 C2622 0.961 . S
H2637 C2623 0.958 . S
H2638 C2623 0.961 . S
H2639 C2623 0.960 . S
C2640 C2641 1.391 . S
C2640 C2642 1.394 . S
C2640 H2656 0.931 . S
C2641 C2640 1.391 . S
C2641 C2645 1.376 . S
C2642 C2640 1.394 . S
C2642 C2643 1.369 . S
C2642 C2646 1.531 . S
C2643 C2642 1.369 . S
C2643 C2644 1.410 . S
C2643 C2651 1.503 . S
C2644 C2643 1.410 . S
C2644 C2645 1.392 . S
C2644 C2647 1.511 . S
C2645 C2641 1.376 . S
C2645 C2644 1.392 . S
C2645 H2657 0.929 . S
C2646 C2642 1.531 . S
C2646 H2658 0.960 . S
C2646 H2659 0.962 . S
C2646 H2660 0.960 . S
C2647 C2644 1.511 . S
C2647 H2661 0.961 . S
C2647 H2662 0.961 . S
C2647 H2663 0.961 . S
C2648 C2649 1.370 . S
C2648 C2650 1.363 . S
C2648 H2664 0.931 . S
C2649 C2648 1.370 . S
C2649 C2653 1.408 . S
C2650 C2648 1.363 . S
C2650 C2651 1.370 . S
C2650 C2654 1.524 . S
C2651 C2643 1.503 . S
C2651 C2650 1.370 . S
C2651 C2652 1.403 . S
C2652 C2651 1.403 . S
C2652 C2653 1.404 . S
C2652 C2655 1.539 . S
C2653 C2649 1.408 . S
C2653 C2652 1.404 . S
C2653 H2665 0.930 . S
C2654 C2650 1.524 . S
C2654 H2666 0.956 . S
C2654 H2667 0.961 . S
C2654 H2668 0.961 . S
C2655 C2652 1.539 . S
C2655 H2669 0.958 . S
C2655 H2670 0.961 . S
C2655 H2671 0.960 . S
H2656 C2640 0.931 . S
H2657 C2645 0.929 . S
H2658 C2646 0.960 . S
H2659 C2646 0.962 . S
H2660 C2646 0.960 . S
H2661 C2647 0.961 . S
H2662 C2647 0.961 . S
H2663 C2647 0.961 . S
H2664 C2648 0.931 . S
H2665 C2653 0.930 . S
H2666 C2654 0.956 . S
H2667 C2654 0.961 . S
H2668 C2654 0.961 . S
H2669 C2655 0.958 . S
H2670 C2655 0.961 . S
H2671 C2655 0.960 . S
C2672 C2673 1.391 . S
C2672 C2674 1.394 . S
C2672 H2688 0.931 . S
C2673 C2672 1.391 . S
C2673 C2677 1.376 . S
C2674 C2672 1.394 . S
C2674 C2675 1.369 . S
C2674 C2678 1.531 . S
C2675 C2674 1.369 . S
C2675 C2676 1.410 . S
C2675 C2683 1.503 . S
C2676 C2675 1.410 . S
C2676 C2677 1.392 . S
C2676 C2679 1.511 . S
C2677 C2673 1.376 . S
C2677 C2676 1.392 . S
C2677 H2689 0.929 . S
C2678 C2674 1.531 . S
C2678 H2690 0.960 . S
C2678 H2691 0.962 . S
C2678 H2692 0.960 . S
C2679 C2676 1.511 . S
C2679 H2693 0.961 . S
C2679 H2694 0.961 . S
C2679 H2695 0.961 . S
C2680 C2681 1.370 . S
C2680 C2682 1.363 . S
C2680 H2696 0.931 . S
C2681 C2680 1.370 . S
C2681 C2685 1.408 . S
C2682 C2680 1.363 . S
C2682 C2683 1.370 . S
C2682 C2686 1.524 . S
C2683 C2675 1.503 . S
C2683 C2682 1.370 . S
C2683 C2684 1.403 . S
C2684 C2683 1.403 . S
C2684 C2685 1.404 . S
C2684 C2687 1.539 . S
C2685 C2681 1.408 . S
C2685 C2684 1.404 . S
C2685 H2697 0.930 . S
C2686 C2682 1.524 . S
C2686 H2698 0.956 . S
C2686 H2699 0.961 . S
C2686 H2700 0.961 . S
C2687 C2684 1.539 . S
C2687 H2701 0.958 . S
C2687 H2702 0.961 . S
C2687 H2703 0.960 . S
H2688 C2672 0.931 . S
H2689 C2677 0.929 . S
H2690 C2678 0.960 . S
H2691 C2678 0.962 . S
H2692 C2678 0.960 . S
H2693 C2679 0.961 . S
H2694 C2679 0.961 . S
H2695 C2679 0.961 . S
H2696 C2680 0.931 . S
H2697 C2685 0.930 . S
H2698 C2686 0.956 . S
H2699 C2686 0.961 . S
H2700 C2686 0.961 . S
H2701 C2687 0.958 . S
H2702 C2687 0.961 . S
H2703 C2687 0.960 . S
C2704 C2705 1.391 . S
C2704 C2706 1.394 . S
C2704 H2720 0.931 . S
C2705 C2704 1.391 . S
C2705 C2709 1.376 . S
C2706 C2704 1.394 . S
C2706 C2707 1.369 . S
C2706 C2710 1.531 . S
C2707 C2706 1.369 . S
C2707 C2708 1.410 . S
C2707 C2715 1.503 . S
C2708 C2707 1.410 . S
C2708 C2709 1.392 . S
C2708 C2711 1.511 . S
C2709 C2705 1.376 . S
C2709 C2708 1.392 . S
C2709 H2721 0.929 . S
C2710 C2706 1.531 . S
C2710 H2722 0.960 . S
C2710 H2723 0.962 . S
C2710 H2724 0.960 . S
C2711 C2708 1.511 . S
C2711 H2725 0.961 . S
C2711 H2726 0.961 . S
C2711 H2727 0.961 . S
C2712 C2713 1.370 . S
C2712 C2714 1.363 . S
C2712 H2728 0.931 . S
C2713 C2712 1.370 . S
C2713 C2717 1.408 . S
C2714 C2712 1.363 . S
C2714 C2715 1.370 . S
C2714 C2718 1.524 . S
C2715 C2707 1.503 . S
C2715 C2714 1.370 . S
C2715 C2716 1.403 . S
C2716 C2715 1.403 . S
C2716 C2717 1.404 . S
C2716 C2719 1.539 . S
C2717 C2713 1.408 . S
C2717 C2716 1.404 . S
C2717 H2729 0.930 . S
C2718 C2714 1.524 . S
C2718 H2730 0.956 . S
C2718 H2731 0.961 . S
C2718 H2732 0.961 . S
C2719 C2716 1.539 . S
C2719 H2733 0.958 . S
C2719 H2734 0.961 . S
C2719 H2735 0.960 . S
H2720 C2704 0.931 . S
H2721 C2709 0.929 . S
H2722 C2710 0.960 . S
H2723 C2710 0.962 . S
H2724 C2710 0.960 . S
H2725 C2711 0.961 . S
H2726 C2711 0.961 . S
H2727 C2711 0.961 . S
H2728 C2712 0.931 . S
H2729 C2717 0.930 . S
H2730 C2718 0.956 . S
H2731 C2718 0.961 . S
H2732 C2718 0.961 . S
H2733 C2719 0.958 . S
H2734 C2719 0.961 . S
H2735 C2719 0.960 . S
C2736 C2737 1.391 . S
C2736 C2738 1.394 . S
C2736 H2752 0.931 . S
C2737 C2736 1.391 . S
C2737 C2741 1.376 . S
C2738 C2736 1.394 . S
C2738 C2739 1.369 . S
C2738 C2742 1.531 . S
C2739 C2738 1.369 . S
C2739 C2740 1.410 . S
C2739 C2747 1.503 . S
C2740 C2739 1.410 . S
C2740 C2741 1.392 . S
C2740 C2743 1.511 . S
C2741 C2737 1.376 . S
C2741 C2740 1.392 . S
C2741 H2753 0.929 . S
C2742 C2738 1.531 . S
C2742 H2754 0.960 . S
C2742 H2755 0.962 . S
C2742 H2756 0.960 . S
C2743 C2740 1.511 . S
C2743 H2757 0.961 . S
C2743 H2758 0.961 . S
C2743 H2759 0.961 . S
C2744 C2745 1.370 . S
C2744 C2746 1.363 . S
C2744 H2760 0.931 . S
C2745 C2744 1.370 . S
C2745 C2749 1.408 . S
C2746 C2744 1.363 . S
C2746 C2747 1.370 . S
C2746 C2750 1.524 . S
C2747 C2739 1.503 . S
C2747 C2746 1.370 . S
C2747 C2748 1.403 . S
C2748 C2747 1.403 . S
C2748 C2749 1.404 . S
C2748 C2751 1.539 . S
C2749 C2745 1.408 . S
C2749 C2748 1.404 . S
C2749 H2761 0.930 . S
C2750 C2746 1.524 . S
C2750 H2762 0.956 . S
C2750 H2763 0.961 . S
C2750 H2764 0.961 . S
C2751 C2748 1.539 . S
C2751 H2765 0.958 . S
C2751 H2766 0.961 . S
C2751 H2767 0.960 . S
H2752 C2736 0.931 . S
H2753 C2741 0.929 . S
H2754 C2742 0.960 . S
H2755 C2742 0.962 . S
H2756 C2742 0.960 . S
H2757 C2743 0.961 . S
H2758 C2743 0.961 . S
H2759 C2743 0.961 . S
H2760 C2744 0.931 . S
H2761 C2749 0.930 . S
H2762 C2750 0.956 . S
H2763 C2750 0.961 . S
H2764 C2750 0.961 . S
H2765 C2751 0.958 . S
H2766 C2751 0.961 . S
H2767 C2751 0.960 . S
C2768 C2769 1.391 . S
C2768 C2770 1.394 . S
C2768 H2784 0.931 . S
C2769 C2768 1.391 . S
C2769 C2773 1.376 . S
C2770 C2768 1.394 . S
C2770 C2771 1.369 . S
C2770 C2774 1.531 . S
C2771 C2770 1.369 . S
C2771 C2772 1.410 . S
C2771 C2779 1.503 . S
C2772 C2771 1.410 . S
C2772 C2773 1.392 . S
C2772 C2775 1.511 . S
C2773 C2769 1.376 . S
C2773 C2772 1.392 . S
C2773 H2785 0.929 . S
C2774 C2770 1.531 . S
C2774 H2786 0.960 . S
C2774 H2787 0.962 . S
C2774 H2788 0.960 . S
C2775 C2772 1.511 . S
C2775 H2789 0.961 . S
C2775 H2790 0.961 . S
C2775 H2791 0.961 . S
C2776 C2777 1.370 . S
C2776 C2778 1.363 . S
C2776 H2792 0.931 . S
C2777 C2776 1.370 . S
C2777 C2781 1.408 . S
C2778 C2776 1.363 . S
C2778 C2779 1.370 . S
C2778 C2782 1.524 . S
C2779 C2771 1.503 . S
C2779 C2778 1.370 . S
C2779 C2780 1.403 . S
C2780 C2779 1.403 . S
C2780 C2781 1.404 . S
C2780 C2783 1.539 . S
C2781 C2777 1.408 . S
C2781 C2780 1.404 . S
C2781 H2793 0.930 . S
C2782 C2778 1.524 . S
C2782 H2794 0.956 . S
C2782 H2795 0.961 . S
C2782 H2796 0.961 . S
C2783 C2780 1.539 . S
C2783 H2797 0.958 . S
C2783 H2798 0.961 . S
C2783 H2799 0.960 . S
H2784 C2768 0.931 . S
H2785 C2773 0.929 . S
H2786 C2774 0.960 . S
H2787 C2774 0.962 . S
H2788 C2774 0.960 . S
H2789 C2775 0.961 . S
H2790 C2775 0.961 . S
H2791 C2775 0.961 . S
H2792 C2776 0.931 . S
H2793 C2781 0.930 . S
H2794 C2782 0.956 . S
H2795 C2782 0.961 . S
H2796 C2782 0.961 . S
H2797 C2783 0.958 . S
H2798 C2783 0.961 . S
H2799 C2783 0.960 . S
C2800 C2801 1.391 . S
C2800 C2802 1.394 . S
C2800 H2816 0.931 . S
C2801 C2800 1.391 . S
C2801 C2805 1.376 . S
C2802 C2800 1.394 . S
C2802 C2803 1.369 . S
C2802 C2806 1.531 . S
C2803 C2802 1.369 . S
C2803 C2804 1.410 . S
C2803 C2811 1.503 . S
C2804 C2803 1.410 . S
C2804 C2805 1.392 . S
C2804 C2807 1.511 . S
C2805 C2801 1.376 . S
C2805 C2804 1.392 . S
C2805 H2817 0.929 . S
C2806 C2802 1.531 . S
C2806 H2818 0.960 . S
C2806 H2819 0.962 1_554 S
C2806 H2820 0.960 . S
C2807 C2804 1.511 . S
C2807 H2821 0.961 . S
C2807 H2822 0.961 . S
C2807 H2823 0.961 . S
C2808 C2809 1.359 1_556 S
C2808 C2810 1.360 1_556 S
C2808 H2824 0.945 . S
C2809 C2808 1.359 1_554 S
C2809 C2813 1.408 . S
C2810 C2808 1.360 1_554 S
C2810 C2811 1.370 . S
C2810 C2814 1.524 1_554 S
C2811 C2803 1.503 . S
C2811 C2810 1.370 . S
C2811 C2812 1.403 . S
C2812 C2811 1.403 . S
C2812 C2813 1.404 . S
C2812 C2815 1.539 . S
C2813 C2809 1.408 . S
C2813 C2812 1.404 . S
C2813 H2825 0.930 . S
C2814 C2810 1.524 1_556 S
C2814 H2826 0.956 . S
C2814 H2827 0.961 . S
C2814 H2828 0.961 . S
C2815 C2812 1.539 . S
C2815 H2829 0.958 . S
C2815 H2830 0.961 . S
C2815 H2831 0.960 . S
H2816 C2800 0.931 . S
H2817 C2805 0.929 . S
H2818 C2806 0.960 . S
H2819 C2806 0.962 1_556 S
H2820 C2806 0.960 . S
H2821 C2807 0.961 . S
H2822 C2807 0.961 . S
H2823 C2807 0.961 . S
H2824 C2808 0.945 . S
H2825 C2813 0.930 . S
H2826 C2814 0.956 . S
H2827 C2814 0.961 . S
H2828 C2814 0.961 . S
H2829 C2815 0.958 . S
H2830 C2815 0.961 . S
H2831 C2815 0.960 . S
C2832 C2833 1.391 . S
C2832 C2834 1.394 . S
C2832 H2848 0.931 . S
C2833 C2832 1.391 . S
C2833 C2837 1.376 . S
C2834 C2832 1.394 . S
C2834 C2835 1.369 . S
C2834 C2838 1.531 . S
C2835 C2834 1.369 . S
C2835 C2836 1.410 . S
C2835 C2843 1.503 . S
C2836 C2835 1.410 . S
C2836 C2837 1.392 . S
C2836 C2839 1.511 . S
C2837 C2833 1.376 . S
C2837 C2836 1.392 . S
C2837 H2849 0.929 . S
C2838 C2834 1.531 . S
C2838 H2850 0.960 . S
C2838 H2851 0.962 . S
C2838 H2852 0.960 . S
C2839 C2836 1.511 . S
C2839 H2853 0.961 . S
C2839 H2854 0.961 . S
C2839 H2855 0.961 . S
C2840 C2841 1.370 . S
C2840 C2842 1.363 . S
C2840 H2856 0.931 . S
C2841 C2840 1.370 . S
C2841 C2845 1.408 . S
C2842 C2840 1.363 . S
C2842 C2843 1.370 . S
C2842 C2846 1.524 . S
C2843 C2835 1.503 . S
C2843 C2842 1.370 . S
C2843 C2844 1.403 . S
C2844 C2843 1.403 . S
C2844 C2845 1.404 . S
C2844 C2847 1.539 . S
C2845 C2841 1.408 . S
C2845 C2844 1.404 . S
C2845 H2857 0.930 . S
C2846 C2842 1.524 . S
C2846 H2858 0.956 . S
C2846 H2859 0.961 . S
C2846 H2860 0.961 . S
C2847 C2844 1.539 . S
C2847 H2861 0.958 . S
C2847 H2862 0.961 . S
C2847 H2863 0.960 . S
H2848 C2832 0.931 . S
H2849 C2837 0.929 . S
H2850 C2838 0.960 . S
H2851 C2838 0.962 . S
H2852 C2838 0.960 . S
H2853 C2839 0.961 . S
H2854 C2839 0.961 . S
H2855 C2839 0.961 . S
H2856 C2840 0.931 . S
H2857 C2845 0.930 . S
H2858 C2846 0.956 . S
H2859 C2846 0.961 . S
H2860 C2846 0.961 . S
H2861 C2847 0.958 . S
H2862 C2847 0.961 . S
H2863 C2847 0.960 . S
C2864 C2865 1.391 . S
C2864 C2866 1.394 . S
C2864 H2880 0.931 . S
C2865 C2864 1.391 . S
C2865 C2869 1.376 . S
C2866 C2864 1.394 . S
C2866 C2867 1.369 . S
C2866 C2870 1.531 . S
C2867 C2866 1.369 . S
C2867 C2868 1.410 . S
C2867 C2875 1.503 . S
C2868 C2867 1.410 . S
C2868 C2869 1.392 . S
C2868 C2871 1.511 . S
C2869 C2865 1.376 . S
C2869 C2868 1.392 . S
C2869 H2881 0.929 . S
C2870 C2866 1.531 . S
C2870 H2882 0.960 . S
C2870 H2883 0.962 . S
C2870 H2884 0.960 1_554 S
C2871 C2868 1.511 . S
C2871 H2885 0.961 . S
C2871 H2886 0.961 . S
C2871 H2887 0.961 1_554 S
C2872 C2873 1.370 . S
C2872 C2874 1.363 . S
C2872 H2888 0.931 . S
C2873 C2872 1.370 . S
C2873 C2877 1.408 . S
C2874 C2872 1.363 . S
C2874 C2875 1.370 . S
C2874 C2878 1.524 . S
C2875 C2867 1.503 . S
C2875 C2874 1.370 . S
C2875 C2876 1.375 1_554 S
C2876 C2875 1.375 1_556 S
C2876 C2877 1.395 1_556 S
C2876 C2879 1.577 . S
C2877 C2873 1.408 . S
C2877 C2876 1.395 1_554 S
C2877 H2889 0.930 1_554 S
C2878 C2874 1.524 . S
C2878 H2890 0.956 . S
C2878 H2891 0.961 . S
C2878 H2892 0.961 . S
C2879 C2876 1.577 . S
C2879 H2893 0.958 . S
C2879 H2894 0.961 . S
C2879 H2895 0.960 . S
H2880 C2864 0.931 . S
H2881 C2869 0.929 . S
H2882 C2870 0.960 . S
H2883 C2870 0.962 . S
H2884 C2870 0.960 1_556 S
H2885 C2871 0.961 . S
H2886 C2871 0.961 . S
H2887 C2871 0.961 1_556 S
H2888 C2872 0.931 . S
H2889 C2877 0.930 1_556 S
H2890 C2878 0.956 . S
H2891 C2878 0.961 . S
H2892 C2878 0.961 . S
H2893 C2879 0.958 . S
H2894 C2879 0.961 . S
H2895 C2879 0.960 . S
C2896 C2897 1.391 . S
C2896 C2898 1.394 . S
C2896 H2912 0.931 . S
C2897 C2896 1.391 . S
C2897 C2901 1.376 . S
C2898 C2896 1.394 . S
C2898 C2899 1.369 . S
C2898 C2902 1.531 . S
C2899 C2898 1.369 . S
C2899 C2900 1.410 . S
C2899 C2907 1.503 . S
C2900 C2899 1.410 . S
C2900 C2901 1.392 . S
C2900 C2903 1.511 . S
C2901 C2897 1.376 . S
C2901 C2900 1.392 . S
C2901 H2913 0.929 . S
C2902 C2898 1.531 . S
C2902 H2914 0.960 . S
C2902 H2915 0.962 . S
C2902 H2916 0.960 . S
C2903 C2900 1.511 . S
C2903 H2917 0.961 . S
C2903 H2918 0.961 . S
C2903 H2919 0.961 . S
C2904 C2905 1.370 . S
C2904 C2906 1.363 . S
C2904 H2920 0.931 . S
C2905 C2904 1.370 . S
C2905 C2909 1.408 . S
C2906 C2904 1.363 . S
C2906 C2907 1.370 . S
C2906 C2910 1.524 . S
C2907 C2899 1.503 . S
C2907 C2906 1.370 . S
C2907 C2908 1.403 . S
C2908 C2907 1.403 . S
C2908 C2909 1.404 . S
C2908 C2911 1.539 . S
C2909 C2905 1.408 . S
C2909 C2908 1.404 . S
C2909 H2921 0.930 . S
C2910 C2906 1.524 . S
C2910 H2922 0.956 . S
C2910 H2923 0.961 . S
C2910 H2924 0.961 . S
C2911 C2908 1.539 . S
C2911 H2925 0.958 . S
C2911 H2926 0.961 . S
C2911 H2927 0.960 . S
H2912 C2896 0.931 . S
H2913 C2901 0.929 . S
H2914 C2902 0.960 . S
H2915 C2902 0.962 . S
H2916 C2902 0.960 . S
H2917 C2903 0.961 . S
H2918 C2903 0.961 . S
H2919 C2903 0.961 . S
H2920 C2904 0.931 . S
H2921 C2909 0.930 . S
H2922 C2910 0.956 . S
H2923 C2910 0.961 . S
H2924 C2910 0.961 . S
H2925 C2911 0.958 . S
H2926 C2911 0.961 . S
H2927 C2911 0.960 . S
C2928 C2929 1.391 . S
C2928 C2930 1.394 . S
C2928 H2944 0.931 . S
C2929 C2928 1.391 . S
C2929 C2933 1.376 . S
C2930 C2928 1.394 . S
C2930 C2931 1.369 . S
C2930 C2934 1.531 . S
C2931 C2930 1.369 . S
C2931 C2932 1.410 . S
C2931 C2939 1.503 . S
C2932 C2931 1.410 . S
C2932 C2933 1.392 . S
C2932 C2935 1.511 . S
C2933 C2929 1.376 . S
C2933 C2932 1.392 . S
C2933 H2945 0.929 . S
C2934 C2930 1.531 . S
C2934 H2946 0.960 . S
C2934 H2947 0.962 . S
C2934 H2948 0.960 . S
C2935 C2932 1.511 . S
C2935 H2949 0.961 . S
C2935 H2950 0.961 . S
C2935 H2951 0.961 . S
C2936 C2937 1.370 . S
C2936 C2938 1.363 . S
C2936 H2952 0.931 . S
C2937 C2936 1.370 . S
C2937 C2941 1.408 . S
C2938 C2936 1.363 . S
C2938 C2939 1.370 . S
C2938 C2942 1.524 . S
C2939 C2931 1.503 . S
C2939 C2938 1.370 . S
C2939 C2940 1.403 . S
C2940 C2939 1.403 . S
C2940 C2941 1.404 . S
C2940 C2943 1.539 . S
C2941 C2937 1.408 . S
C2941 C2940 1.404 . S
C2941 H2953 0.930 . S
C2942 C2938 1.524 . S
C2942 H2954 0.956 . S
C2942 H2955 0.961 . S
C2942 H2956 0.961 . S
C2943 C2940 1.539 . S
C2943 H2957 0.958 . S
C2943 H2958 0.961 . S
C2943 H2959 0.960 . S
H2944 C2928 0.931 . S
H2945 C2933 0.929 . S
H2946 C2934 0.960 . S
H2947 C2934 0.962 . S
H2948 C2934 0.960 . S
H2949 C2935 0.961 . S
H2950 C2935 0.961 . S
H2951 C2935 0.961 . S
H2952 C2936 0.931 . S
H2953 C2941 0.930 . S
H2954 C2942 0.956 . S
H2955 C2942 0.961 . S
H2956 C2942 0.961 . S
H2957 C2943 0.958 . S
H2958 C2943 0.961 . S
H2959 C2943 0.960 . S
C2960 C2961 1.391 . S
C2960 C2962 1.394 . S
C2960 H2976 0.931 . S
C2961 C2960 1.391 . S
C2961 C2965 1.376 . S
C2962 C2960 1.394 . S
C2962 C2963 1.369 . S
C2962 C2966 1.531 . S
C2963 C2962 1.369 . S
C2963 C2964 1.410 . S
C2963 C2971 1.503 . S
C2964 C2963 1.410 . S
C2964 C2965 1.392 . S
C2964 C2967 1.511 . S
C2965 C2961 1.376 . S
C2965 C2964 1.392 . S
C2965 H2977 0.929 . S
C2966 C2962 1.531 . S
C2966 H2978 0.960 . S
C2966 H2979 0.962 . S
C2966 H2980 0.960 . S
C2967 C2964 1.511 . S
C2967 H2981 0.961 . S
C2967 H2982 0.961 . S
C2967 H2983 0.961 . S
C2968 C2969 1.370 . S
C2968 C2970 1.363 . S
C2968 H2984 0.931 . S
C2969 C2968 1.370 . S
C2969 C2973 1.408 . S
C2970 C2968 1.363 . S
C2970 C2971 1.370 . S
C2970 C2974 1.524 . S
C2971 C2963 1.503 . S
C2971 C2970 1.370 . S
C2971 C2972 1.403 . S
C2972 C2971 1.403 . S
C2972 C2973 1.404 . S
C2972 C2975 1.539 . S
C2973 C2969 1.408 . S
C2973 C2972 1.404 . S
C2973 H2985 0.930 . S
C2974 C2970 1.524 . S
C2974 H2986 0.956 . S
C2974 H2987 0.961 . S
C2974 H2988 0.961 . S
C2975 C2972 1.539 . S
C2975 H2989 0.958 . S
C2975 H2990 0.961 . S
C2975 H2991 0.960 . S
H2976 C2960 0.931 . S
H2977 C2965 0.929 . S
H2978 C2966 0.960 . S
H2979 C2966 0.962 . S
H2980 C2966 0.960 . S
H2981 C2967 0.961 . S
H2982 C2967 0.961 . S
H2983 C2967 0.961 . S
H2984 C2968 0.931 . S
H2985 C2973 0.930 . S
H2986 C2974 0.956 . S
H2987 C2974 0.961 . S
H2988 C2974 0.961 . S
H2989 C2975 0.958 . S
H2990 C2975 0.961 . S
H2991 C2975 0.960 . S
C2992 C2993 1.391 . S
C2992 C2994 1.394 . S
C2992 H3008 0.931 . S
C2993 C2992 1.391 . S
C2993 C2997 1.376 . S
C2994 C2992 1.394 . S
C2994 C2995 1.369 . S
C2994 C2998 1.531 . S
C2995 C2994 1.369 . S
C2995 C2996 1.410 . S
C2995 C3003 1.503 . S
C2996 C2995 1.410 . S
C2996 C2997 1.392 . S
C2996 C2999 1.511 . S
C2997 C2993 1.376 . S
C2997 C2996 1.392 . S
C2997 H3009 0.929 . S
C2998 C2994 1.531 . S
C2998 H3010 0.960 . S
C2998 H3011 0.962 . S
C2998 H3012 0.960 . S
C2999 C2996 1.511 . S
C2999 H3013 0.961 . S
C2999 H3014 0.961 . S
C2999 H3015 0.961 . S
C3000 C3001 1.370 . S
C3000 C3002 1.363 . S
C3000 H3016 0.931 . S
C3001 C3000 1.370 . S
C3001 C3005 1.408 . S
C3002 C3000 1.363 . S
C3002 C3003 1.370 . S
C3002 C3006 1.524 . S
C3003 C2995 1.503 . S
C3003 C3002 1.370 . S
C3003 C3004 1.403 . S
C3004 C3003 1.403 . S
C3004 C3005 1.404 . S
C3004 C3007 1.539 . S
C3005 C3001 1.408 . S
C3005 C3004 1.404 . S
C3005 H3017 0.930 . S
C3006 C3002 1.524 . S
C3006 H3018 0.956 . S
C3006 H3019 0.961 . S
C3006 H3020 0.961 . S
C3007 C3004 1.539 . S
C3007 H3021 0.958 . S
C3007 H3022 0.961 . S
C3007 H3023 0.960 . S
H3008 C2992 0.931 . S
H3009 C2997 0.929 . S
H3010 C2998 0.960 . S
H3011 C2998 0.962 . S
H3012 C2998 0.960 . S
H3013 C2999 0.961 . S
H3014 C2999 0.961 . S
H3015 C2999 0.961 . S
H3016 C3000 0.931 . S
H3017 C3005 0.930 . S
H3018 C3006 0.956 . S
H3019 C3006 0.961 . S
H3020 C3006 0.961 . S
H3021 C3007 0.958 . S
H3022 C3007 0.961 . S
H3023 C3007 0.960 . S
C3024 C3025 1.391 . S
C3024 C3026 1.394 . S
C3024 H3040 0.931 1_455 S
C3025 C3024 1.391 . S
C3025 C3029 1.376 . S
C3026 C3024 1.394 . S
C3026 C3027 1.369 . S
C3026 C3030 1.531 1_455 S
C3027 C3026 1.369 . S
C3027 C3028 1.410 . S
C3027 C3035 1.503 . S
C3028 C3027 1.410 . S
C3028 C3029 1.392 . S
C3028 C3031 1.511 . S
C3029 C3025 1.376 . S
C3029 C3028 1.392 . S
C3029 H3041 0.929 . S
C3030 C3026 1.531 1_655 S
C3030 H3042 0.989 . S
C3030 H3043 0.962 . S
C3030 H3044 0.960 . S
C3031 C3028 1.511 . S
C3031 H3045 0.961 . S
C3031 H3046 0.961 . S
C3031 H3047 0.961 . S
C3032 C3033 1.370 . S
C3032 C3034 1.363 . S
C3032 H3048 0.931 1_455 S
C3033 C3032 1.370 . S
C3033 C3037 1.408 . S
C3034 C3032 1.363 . S
C3034 C3035 1.370 . S
C3034 C3038 1.524 1_455 S
C3035 C3027 1.503 . S
C3035 C3034 1.370 . S
C3035 C3036 1.403 . S
C3036 C3035 1.403 . S
C3036 C3037 1.404 . S
C3036 C3039 1.539 . S
C3037 C3033 1.408 . S
C3037 C3036 1.404 . S
C3037 H3049 0.930 . S
C3038 C3034 1.524 1_655 S
C3038 H3050 0.956 . S
C3038 H3051 0.961 1_655 S
C3038 H3052 0.961 . S
C3039 C3036 1.539 . S
C3039 H3053 0.958 . S
C3039 H3054 0.961 . S
C3039 H3055 0.960 . S
H3040 C3024 0.931 1_655 S
H3041 C3029 0.929 . S
H3042 C3030 0.989 . S
H3043 C3030 0.962 . S
H3044 C3030 0.960 . S
H3045 C3031 0.961 . S
H3046 C3031 0.961 . S
H3047 C3031 0.961 . S
H3048 C3032 0.931 1_655 S
H3049 C3037 0.930 . S
H3050 C3038 0.956 . S
H3051 C3038 0.961 1_455 S
H3052 C3038 0.961 . S
H3053 C3039 0.958 . S
H3054 C3039 0.961 . S
H3055 C3039 0.960 . S
C3056 C3057 1.391 . S
C3056 C3058 1.394 . S
C3056 H3072 0.931 . S
C3057 C3056 1.391 . S
C3057 C3061 1.376 . S
C3058 C3056 1.394 . S
C3058 C3059 1.369 . S
C3058 C3062 1.531 . S
C3059 C3058 1.369 . S
C3059 C3060 1.410 . S
C3059 C3067 1.503 . S
C3060 C3059 1.410 . S
C3060 C3061 1.392 . S
C3060 C3063 1.511 . S
C3061 C3057 1.376 . S
C3061 C3060 1.392 . S
C3061 H3073 0.929 . S
C3062 C3058 1.531 . S
C3062 H3074 0.960 . S
C3062 H3075 0.962 . S
C3062 H3076 0.960 . S
C3063 C3060 1.511 . S
C3063 H3077 0.961 . S
C3063 H3078 0.961 . S
C3063 H3079 0.961 . S
C3064 C3065 1.370 . S
C3064 C3066 1.363 . S
C3064 H3080 0.931 . S
C3065 C3064 1.370 . S
C3065 C3069 1.408 . S
C3066 C3064 1.363 . S
C3066 C3067 1.370 . S
C3066 C3070 1.524 . S
C3067 C3059 1.503 . S
C3067 C3066 1.370 . S
C3067 C3068 1.403 . S
C3068 C3067 1.403 . S
C3068 C3069 1.404 . S
C3068 C3071 1.539 . S
C3069 C3065 1.408 . S
C3069 C3068 1.404 . S
C3069 H3081 0.930 . S
C3070 C3066 1.524 . S
C3070 H3082 0.956 . S
C3070 H3083 0.961 . S
C3070 H3084 0.961 . S
C3071 C3068 1.539 . S
C3071 H3085 0.958 . S
C3071 H3086 0.961 . S
C3071 H3087 0.960 . S
H3072 C3056 0.931 . S
H3073 C3061 0.929 . S
H3074 C3062 0.960 . S
H3075 C3062 0.962 . S
H3076 C3062 0.960 . S
H3077 C3063 0.961 . S
H3078 C3063 0.961 . S
H3079 C3063 0.961 . S
H3080 C3064 0.931 . S
H3081 C3069 0.930 . S
H3082 C3070 0.956 . S
H3083 C3070 0.961 . S
H3084 C3070 0.961 . S
H3085 C3071 0.958 . S
H3086 C3071 0.961 . S
H3087 C3071 0.960 . S
C3088 C3089 1.391 . S
C3088 C3090 1.394 . S
C3088 H3104 0.931 . S
C3089 C3088 1.391 . S
C3089 C3093 1.376 . S
C3090 C3088 1.394 . S
C3090 C3091 1.369 . S
C3090 C3094 1.531 . S
C3091 C3090 1.369 . S
C3091 C3092 1.410 . S
C3091 C3099 1.503 . S
C3092 C3091 1.410 . S
C3092 C3093 1.392 . S
C3092 C3095 1.511 . S
C3093 C3089 1.376 . S
C3093 C3092 1.392 . S
C3093 H3105 0.929 . S
C3094 C3090 1.531 . S
C3094 H3106 0.960 . S
C3094 H3107 0.962 . S
C3094 H3108 0.960 . S
C3095 C3092 1.511 . S
C3095 H3109 0.961 . S
C3095 H3110 0.961 . S
C3095 H3111 0.961 . S
C3096 C3097 1.370 . S
C3096 C3098 1.363 . S
C3096 H3112 0.931 . S
C3097 C3096 1.370 . S
C3097 C3101 1.408 1_556 S
C3098 C3096 1.363 . S
C3098 C3099 1.370 . S
C3098 C3102 1.524 . S
C3099 C3091 1.503 . S
C3099 C3098 1.370 . S
C3099 C3100 1.403 . S
C3100 C3099 1.403 . S
C3100 C3101 1.404 1_556 S
C3100 C3103 1.539 1_556 S
C3101 C3097 1.408 1_554 S
C3101 C3100 1.404 1_554 S
C3101 H3113 0.930 . S
C3102 C3098 1.524 . S
C3102 H3114 0.956 . S
C3102 H3115 0.961 . S
C3102 H3116 0.961 . S
C3103 C3100 1.539 1_554 S
C3103 H3117 0.958 . S
C3103 H3118 0.961 . S
C3103 H3119 0.960 1_554 S
H3104 C3088 0.931 . S
H3105 C3093 0.929 . S
H3106 C3094 0.960 . S
H3107 C3094 0.962 . S
H3108 C3094 0.960 . S
H3109 C3095 0.961 . S
H3110 C3095 0.961 . S
H3111 C3095 0.961 . S
H3112 C3096 0.931 . S
H3113 C3101 0.930 . S
H3114 C3102 0.956 . S
H3115 C3102 0.961 . S
H3116 C3102 0.961 . S
H3117 C3103 0.958 . S
H3118 C3103 0.961 . S
H3119 C3103 0.960 1_556 S
C3120 C3121 1.391 . S
C3120 C3122 1.394 . S
C3120 H3136 0.931 . S
C3121 C3120 1.391 . S
C3121 C3125 1.376 . S
C3122 C3120 1.394 . S
C3122 C3123 1.369 . S
C3122 C3126 1.531 . S
C3123 C3122 1.369 . S
C3123 C3124 1.410 . S
C3123 C3131 1.503 . S
C3124 C3123 1.410 . S
C3124 C3125 1.392 . S
C3124 C3127 1.511 . S
C3125 C3121 1.376 . S
C3125 C3124 1.392 . S
C3125 H3137 0.929 . S
C3126 C3122 1.531 . S
C3126 H3138 0.960 . S
C3126 H3139 0.962 . S
C3126 H3140 0.960 . S
C3127 C3124 1.511 . S
C3127 H3141 0.961 . S
C3127 H3142 0.961 . S
C3127 H3143 0.961 . S
C3128 C3129 1.370 . S
C3128 C3130 1.363 . S
C3128 H3144 0.931 . S
C3129 C3128 1.370 . S
C3129 C3133 1.408 . S
C3130 C3128 1.363 . S
C3130 C3131 1.370 . S
C3130 C3134 1.524 . S
C3131 C3123 1.503 . S
C3131 C3130 1.370 . S
C3131 C3132 1.403 . S
C3132 C3131 1.403 . S
C3132 C3133 1.404 . S
C3132 C3135 1.539 . S
C3133 C3129 1.408 . S
C3133 C3132 1.404 . S
C3133 H3145 0.930 . S
C3134 C3130 1.524 . S
C3134 H3146 0.956 . S
C3134 H3147 0.961 . S
C3134 H3148 0.961 . S
C3135 C3132 1.539 . S
C3135 H3149 0.958 . S
C3135 H3150 0.961 . S
C3135 H3151 0.960 . S
H3136 C3120 0.931 . S
H3137 C3125 0.929 . S
H3138 C3126 0.960 . S
H3139 C3126 0.962 . S
H3140 C3126 0.960 . S
H3141 C3127 0.961 . S
H3142 C3127 0.961 . S
H3143 C3127 0.961 . S
H3144 C3128 0.931 . S
H3145 C3133 0.930 . S
H3146 C3134 0.956 . S
H3147 C3134 0.961 . S
H3148 C3134 0.961 . S
H3149 C3135 0.958 . S
H3150 C3135 0.961 . S
H3151 C3135 0.960 . S
C3152 C3153 1.391 . S
C3152 C3154 1.394 . S
C3152 H3168 0.931 . S
C3153 C3152 1.391 . S
C3153 C3157 1.376 . S
C3154 C3152 1.394 . S
C3154 C3155 1.369 . S
C3154 C3158 1.531 . S
C3155 C3154 1.369 . S
C3155 C3156 1.410 . S
C3155 C3163 1.503 . S
C3156 C3155 1.410 . S
C3156 C3157 1.392 . S
C3156 C3159 1.511 1_455 S
C3157 C3153 1.376 . S
C3157 C3156 1.392 . S
C3157 H3169 0.929 . S
C3158 C3154 1.531 . S
C3158 H3170 0.960 . S
C3158 H3171 0.962 . S
C3158 H3172 0.960 . S
C3159 C3156 1.511 1_655 S
C3159 H3173 0.961 . S
C3159 H3174 0.961 1_655 S
C3159 H3175 0.961 . S
C3160 C3161 1.370 . S
C3160 C3162 1.363 . S
C3160 H3176 0.931 . S
C3161 C3160 1.370 . S
C3161 C3165 1.389 1_455 S
C3162 C3160 1.363 . S
C3162 C3163 1.370 . S
C3162 C3166 1.524 . S
C3163 C3155 1.503 . S
C3163 C3162 1.370 . S
C3163 C3164 1.377 1_455 S
C3164 C3163 1.377 1_655 S
C3164 C3165 1.404 . S
C3164 C3167 1.561 . S
C3165 C3161 1.389 1_655 S
C3165 C3164 1.404 . S
C3165 H3177 0.954 . S
C3166 C3162 1.524 . S
C3166 H3178 0.956 . S
C3166 H3179 0.961 . S
C3166 H3180 0.961 . S
C3167 C3164 1.561 . S
C3167 H3181 0.958 . S
C3167 H3182 0.961 . S
C3167 H3183 0.960 . S
H3168 C3152 0.931 . S
H3169 C3157 0.929 . S
H3170 C3158 0.960 . S
H3171 C3158 0.962 . S
H3172 C3158 0.960 . S
H3173 C3159 0.961 . S
H3174 C3159 0.961 1_455 S
H3175 C3159 0.961 . S
H3176 C3160 0.931 . S
H3177 C3165 0.954 . S
H3178 C3166 0.956 . S
H3179 C3166 0.961 . S
H3180 C3166 0.961 . S
H3181 C3167 0.958 . S
H3182 C3167 0.961 . S
H3183 C3167 0.960 . S
C3184 C3185 1.391 . S
C3184 C3186 1.394 . S
C3184 H3200 0.931 . S
C3185 C3184 1.391 . S
C3185 C3189 1.376 . S
C3186 C3184 1.394 . S
C3186 C3187 1.369 . S
C3186 C3190 1.531 . S
C3187 C3186 1.369 . S
C3187 C3188 1.410 . S
C3187 C3195 1.503 . S
C3188 C3187 1.410 . S
C3188 C3189 1.392 . S
C3188 C3191 1.511 . S
C3189 C3185 1.376 . S
C3189 C3188 1.392 . S
C3189 H3201 0.929 . S
C3190 C3186 1.531 . S
C3190 H3202 0.960 . S
C3190 H3203 0.962 . S
C3190 H3204 0.960 . S
C3191 C3188 1.511 . S
C3191 H3205 0.961 . S
C3191 H3206 0.961 . S
C3191 H3207 0.961 . S
C3192 C3193 1.370 . S
C3192 C3194 1.363 . S
C3192 H3208 0.931 . S
C3193 C3192 1.370 . S
C3193 C3197 1.408 . S
C3194 C3192 1.363 . S
C3194 C3195 1.370 . S
C3194 C3198 1.524 . S
C3195 C3187 1.503 . S
C3195 C3194 1.370 . S
C3195 C3196 1.403 . S
C3196 C3195 1.403 . S
C3196 C3197 1.404 . S
C3196 C3199 1.539 . S
C3197 C3193 1.408 . S
C3197 C3196 1.404 . S
C3197 H3209 0.930 . S
C3198 C3194 1.524 . S
C3198 H3210 0.956 . S
C3198 H3211 0.961 . S
C3198 H3212 0.961 . S
C3199 C3196 1.539 . S
C3199 H3213 0.958 . S
C3199 H3214 0.961 . S
C3199 H3215 0.960 . S
H3200 C3184 0.931 . S
H3201 C3189 0.929 . S
H3202 C3190 0.960 . S
H3203 C3190 0.962 . S
H3204 C3190 0.960 . S
H3205 C3191 0.961 . S
H3206 C3191 0.961 . S
H3207 C3191 0.961 . S
H3208 C3192 0.931 . S
H3209 C3197 0.930 . S
H3210 C3198 0.956 . S
H3211 C3198 0.961 . S
H3212 C3198 0.961 . S
H3213 C3199 0.958 . S
H3214 C3199 0.961 . S
H3215 C3199 0.960 . S
C3216 C3217 1.391 . S
C3216 C3218 1.394 . S
C3216 H3232 0.931 . S
C3217 C3216 1.391 . S
C3217 C3221 1.376 . S
C3218 C3216 1.394 . S
C3218 C3219 1.369 . S
C3218 C3222 1.531 . S
C3219 C3218 1.369 . S
C3219 C3220 1.410 . S
C3219 C3227 1.503 . S
C3220 C3219 1.410 . S
C3220 C3221 1.392 . S
C3220 C3223 1.511 . S
C3221 C3217 1.376 . S
C3221 C3220 1.392 . S
C3221 H3233 0.929 . S
C3222 C3218 1.531 . S
C3222 H3234 0.960 . S
C3222 H3235 0.962 . S
C3222 H3236 0.960 . S
C3223 C3220 1.511 . S
C3223 H3237 0.961 . S
C3223 H3238 0.961 . S
C3223 H3239 0.961 . S
C3224 C3225 1.370 . S
C3224 C3226 1.363 . S
C3224 H3240 0.931 . S
C3225 C3224 1.370 . S
C3225 C3229 1.408 . S
C3226 C3224 1.363 . S
C3226 C3227 1.370 . S
C3226 C3230 1.524 . S
C3227 C3219 1.503 . S
C3227 C3226 1.370 . S
C3227 C3228 1.403 . S
C3228 C3227 1.403 . S
C3228 C3229 1.404 . S
C3228 C3231 1.539 . S
C3229 C3225 1.408 . S
C3229 C3228 1.404 . S
C3229 H3241 0.930 . S
C3230 C3226 1.524 . S
C3230 H3242 0.956 . S
C3230 H3243 0.961 . S
C3230 H3244 0.961 . S
C3231 C3228 1.539 . S
C3231 H3245 0.958 . S
C3231 H3246 0.961 . S
C3231 H3247 0.960 . S
H3232 C3216 0.931 . S
H3233 C3221 0.929 . S
H3234 C3222 0.960 . S
H3235 C3222 0.962 . S
H3236 C3222 0.960 . S
H3237 C3223 0.961 . S
H3238 C3223 0.961 . S
H3239 C3223 0.961 . S
H3240 C3224 0.931 . S
H3241 C3229 0.930 . S
H3242 C3230 0.956 . S
H3243 C3230 0.961 . S
H3244 C3230 0.961 . S
H3245 C3231 0.958 . S
H3246 C3231 0.961 . S
H3247 C3231 0.960 . S
C3248 C3249 1.391 . S
C3248 C3250 1.394 . S
C3248 H3264 0.931 . S
C3249 C3248 1.391 . S
C3249 C3253 1.376 . S
C3250 C3248 1.394 . S
C3250 C3251 1.369 . S
C3250 C3254 1.531 . S
C3251 C3250 1.369 . S
C3251 C3252 1.410 . S
C3251 C3259 1.503 . S
C3252 C3251 1.410 . S
C3252 C3253 1.392 . S
C3252 C3255 1.511 . S
C3253 C3249 1.376 . S
C3253 C3252 1.392 . S
C3253 H3265 0.929 . S
C3254 C3250 1.531 . S
C3254 H3266 0.960 . S
C3254 H3267 0.962 . S
C3254 H3268 0.960 . S
C3255 C3252 1.511 . S
C3255 H3269 0.961 . S
C3255 H3270 0.961 . S
C3255 H3271 0.961 . S
C3256 C3257 1.370 . S
C3256 C3258 1.363 . S
C3256 H3272 0.931 . S
C3257 C3256 1.370 . S
C3257 C3261 1.408 . S
C3258 C3256 1.363 . S
C3258 C3259 1.370 . S
C3258 C3262 1.524 . S
C3259 C3251 1.503 . S
C3259 C3258 1.370 . S
C3259 C3260 1.403 . S
C3260 C3259 1.403 . S
C3260 C3261 1.404 . S
C3260 C3263 1.539 . S
C3261 C3257 1.408 . S
C3261 C3260 1.404 . S
C3261 H3273 0.930 . S
C3262 C3258 1.524 . S
C3262 H3274 0.956 . S
C3262 H3275 0.961 . S
C3262 H3276 0.961 . S
C3263 C3260 1.539 . S
C3263 H3277 0.958 . S
C3263 H3278 0.961 . S
C3263 H3279 0.960 . S
H3264 C3248 0.931 . S
H3265 C3253 0.929 . S
H3266 C3254 0.960 . S
H3267 C3254 0.962 . S
H3268 C3254 0.960 . S
H3269 C3255 0.961 . S
H3270 C3255 0.961 . S
H3271 C3255 0.961 . S
H3272 C3256 0.931 . S
H3273 C3261 0.930 . S
H3274 C3262 0.956 . S
H3275 C3262 0.961 . S
H3276 C3262 0.961 . S
H3277 C3263 0.958 . S
H3278 C3263 0.961 . S
H3279 C3263 0.960 . S
C3280 C3281 1.391 . S
C3280 C3282 1.394 . S
C3280 H3296 0.931 . S
C3281 C3280 1.391 . S
C3281 C3285 1.376 . S
C3282 C3280 1.394 . S
C3282 C3283 1.369 . S
C3282 C3286 1.531 . S
C3283 C3282 1.369 . S
C3283 C3284 1.410 . S
C3283 C3291 1.503 . S
C3284 C3283 1.410 . S
C3284 C3285 1.392 . S
C3284 C3287 1.511 . S
C3285 C3281 1.376 . S
C3285 C3284 1.392 . S
C3285 H3297 0.929 . S
C3286 C3282 1.531 . S
C3286 H3298 0.960 . S
C3286 H3299 0.962 . S
C3286 H3300 0.960 . S
C3287 C3284 1.511 . S
C3287 H3301 0.961 . S
C3287 H3302 0.961 . S
C3287 H3303 0.961 . S
C3288 C3289 1.370 . S
C3288 C3290 1.363 . S
C3288 H3304 0.931 . S
C3289 C3288 1.370 . S
C3289 C3293 1.408 1_655 S
C3290 C3288 1.363 . S
C3290 C3291 1.370 . S
C3290 C3294 1.524 . S
C3291 C3283 1.503 . S
C3291 C3290 1.370 . S
C3291 C3292 1.403 . S
C3292 C3291 1.403 . S
C3292 C3293 1.404 1_655 S
C3292 C3295 1.538 1_655 S
C3293 C3289 1.408 1_455 S
C3293 C3292 1.404 1_455 S
C3293 H3305 0.930 . S
C3294 C3290 1.524 . S
C3294 H3306 0.956 . S
C3294 H3307 0.961 . S
C3294 H3308 0.961 . S
C3295 C3292 1.538 1_455 S
C3295 H3309 0.961 . S
C3295 H3310 0.962 . S
C3295 H3311 0.957 1_455 S
H3296 C3280 0.931 . S
H3297 C3285 0.929 . S
H3298 C3286 0.960 . S
H3299 C3286 0.962 . S
H3300 C3286 0.960 . S
H3301 C3287 0.961 . S
H3302 C3287 0.961 . S
H3303 C3287 0.961 . S
H3304 C3288 0.931 . S
H3305 C3293 0.930 . S
H3306 C3294 0.956 . S
H3307 C3294 0.961 . S
H3308 C3294 0.961 . S
H3309 C3295 0.961 . S
H3310 C3295 0.962 . S
H3311 C3295 0.957 1_655 S
C3312 C3313 1.391 . S
C3312 C3314 1.394 . S
C3312 H3328 0.931 . S
C3313 C3312 1.391 . S
C3313 C3317 1.376 . S
C3314 C3312 1.394 . S
C3314 C3315 1.369 . S
C3314 C3318 1.531 . S
C3315 C3314 1.369 . S
C3315 C3316 1.410 . S
C3315 C3323 1.503 . S
C3316 C3315 1.410 . S
C3316 C3317 1.392 . S
C3316 C3319 1.511 . S
C3317 C3313 1.376 . S
C3317 C3316 1.392 . S
C3317 H3329 0.929 . S
C3318 C3314 1.531 . S
C3318 H3330 0.960 . S
C3318 H3331 0.962 . S
C3318 H3332 0.960 . S
C3319 C3316 1.511 . S
C3319 H3333 0.961 . S
C3319 H3334 0.961 . S
C3319 H3335 0.961 . S
C3320 C3321 1.370 . S
C3320 C3322 1.363 . S
C3320 H3336 0.931 . S
C3321 C3320 1.370 . S
C3321 C3325 1.408 . S
C3322 C3320 1.363 . S
C3322 C3323 1.370 . S
C3322 C3326 1.524 . S
C3323 C3315 1.503 . S
C3323 C3322 1.370 . S
C3323 C3324 1.403 . S
C3324 C3323 1.403 . S
C3324 C3325 1.404 . S
C3324 C3327 1.539 . S
C3325 C3321 1.408 . S
C3325 C3324 1.404 . S
C3325 H3337 0.930 . S
C3326 C3322 1.524 . S
C3326 H3338 0.956 . S
C3326 H3339 0.961 . S
C3326 H3340 0.961 . S
C3327 C3324 1.539 . S
C3327 H3341 0.958 . S
C3327 H3342 0.961 . S
C3327 H3343 0.960 . S
H3328 C3312 0.931 . S
H3329 C3317 0.929 . S
H3330 C3318 0.960 . S
H3331 C3318 0.962 . S
H3332 C3318 0.960 . S
H3333 C3319 0.961 . S
H3334 C3319 0.961 . S
H3335 C3319 0.961 . S
H3336 C3320 0.931 . S
H3337 C3325 0.930 . S
H3338 C3326 0.956 . S
H3339 C3326 0.961 . S
H3340 C3326 0.961 . S
H3341 C3327 0.958 . S
H3342 C3327 0.961 . S
H3343 C3327 0.960 . S
C3344 C3345 1.391 . S
C3344 C3346 1.394 . S
C3344 H3360 0.931 . S
C3345 C3344 1.391 . S
C3345 C3349 1.376 . S
C3346 C3344 1.394 . S
C3346 C3347 1.369 . S
C3346 C3350 1.531 . S
C3347 C3346 1.369 . S
C3347 C3348 1.410 . S
C3347 C3355 1.503 . S
C3348 C3347 1.410 . S
C3348 C3349 1.392 . S
C3348 C3351 1.511 . S
C3349 C3345 1.376 . S
C3349 C3348 1.392 . S
C3349 H3361 0.929 . S
C3350 C3346 1.531 . S
C3350 H3362 0.960 . S
C3350 H3363 0.962 . S
C3350 H3364 0.960 . S
C3351 C3348 1.511 . S
C3351 H3365 0.961 . S
C3351 H3366 0.961 . S
C3351 H3367 0.961 . S
C3352 C3353 1.370 . S
C3352 C3354 1.363 . S
C3352 H3368 0.931 . S
C3353 C3352 1.370 . S
C3353 C3357 1.408 . S
C3354 C3352 1.363 . S
C3354 C3355 1.370 . S
C3354 C3358 1.524 . S
C3355 C3347 1.503 . S
C3355 C3354 1.370 . S
C3355 C3356 1.403 . S
C3356 C3355 1.403 . S
C3356 C3357 1.404 . S
C3356 C3359 1.539 . S
C3357 C3353 1.408 . S
C3357 C3356 1.404 . S
C3357 H3369 0.930 . S
C3358 C3354 1.524 . S
C3358 H3370 0.956 . S
C3358 H3371 0.961 . S
C3358 H3372 0.961 . S
C3359 C3356 1.539 . S
C3359 H3373 0.958 . S
C3359 H3374 0.961 . S
C3359 H3375 0.960 . S
H3360 C3344 0.931 . S
H3361 C3349 0.929 . S
H3362 C3350 0.960 . S
H3363 C3350 0.962 . S
H3364 C3350 0.960 . S
H3365 C3351 0.961 . S
H3366 C3351 0.961 . S
H3367 C3351 0.961 . S
H3368 C3352 0.931 . S
H3369 C3357 0.930 . S
H3370 C3358 0.956 . S
H3371 C3358 0.961 . S
H3372 C3358 0.961 . S
H3373 C3359 0.958 . S
H3374 C3359 0.961 . S
H3375 C3359 0.960 . S
C3376 C3377 1.391 . S
C3376 C3378 1.394 . S
C3376 H3392 0.931 . S
C3377 C3376 1.391 . S
C3377 C3381 1.376 . S
C3378 C3376 1.394 . S
C3378 C3379 1.369 . S
C3378 C3382 1.531 . S
C3379 C3378 1.369 . S
C3379 C3380 1.410 . S
C3379 C3387 1.503 . S
C3380 C3379 1.410 . S
C3380 C3381 1.392 . S
C3380 C3383 1.511 . S
C3381 C3377 1.376 . S
C3381 C3380 1.392 . S
C3381 H3393 0.929 . S
C3382 C3378 1.531 . S
C3382 H3394 0.960 . S
C3382 H3395 0.962 . S
C3382 H3396 0.960 . S
C3383 C3380 1.511 . S
C3383 H3397 0.961 . S
C3383 H3398 0.961 . S
C3383 H3399 0.961 . S
C3384 C3385 1.370 . S
C3384 C3386 1.363 . S
C3384 H3400 0.931 . S
C3385 C3384 1.370 . S
C3385 C3389 1.408 . S
C3386 C3384 1.363 . S
C3386 C3387 1.370 . S
C3386 C3390 1.524 . S
C3387 C3379 1.503 . S
C3387 C3386 1.370 . S
C3387 C3388 1.403 . S
C3388 C3387 1.403 . S
C3388 C3389 1.404 . S
C3388 C3391 1.539 . S
C3389 C3385 1.408 . S
C3389 C3388 1.404 . S
C3389 H3401 0.930 . S
C3390 C3386 1.524 . S
C3390 H3402 0.956 . S
C3390 H3403 0.961 . S
C3390 H3404 0.961 . S
C3391 C3388 1.539 . S
C3391 H3405 0.958 . S
C3391 H3406 0.961 . S
C3391 H3407 0.960 . S
H3392 C3376 0.931 . S
H3393 C3381 0.929 . S
H3394 C3382 0.960 . S
H3395 C3382 0.962 . S
H3396 C3382 0.960 . S
H3397 C3383 0.961 . S
H3398 C3383 0.961 . S
H3399 C3383 0.961 . S
H3400 C3384 0.931 . S
H3401 C3389 0.930 . S
H3402 C3390 0.956 . S
H3403 C3390 0.961 . S
H3404 C3390 0.961 . S
H3405 C3391 0.958 . S
H3406 C3391 0.961 . S
H3407 C3391 0.960 . S
C3408 C3409 1.391 . S
C3408 C3410 1.394 . S
C3408 H3424 0.931 . S
C3409 C3408 1.391 . S
C3409 C3413 1.376 . S
C3410 C3408 1.394 . S
C3410 C3411 1.369 . S
C3410 C3414 1.531 . S
C3411 C3410 1.369 . S
C3411 C3412 1.410 . S
C3411 C3419 1.503 . S
C3412 C3411 1.410 . S
C3412 C3413 1.392 . S
C3412 C3415 1.511 . S
C3413 C3409 1.376 . S
C3413 C3412 1.392 . S
C3413 H3425 0.929 . S
C3414 C3410 1.531 . S
C3414 H3426 0.960 . S
C3414 H3427 0.962 . S
C3414 H3428 0.960 . S
C3415 C3412 1.511 . S
C3415 H3429 0.961 . S
C3415 H3430 0.961 . S
C3415 H3431 0.961 . S
C3416 C3417 1.370 . S
C3416 C3418 1.363 . S
C3416 H3432 0.931 . S
C3417 C3416 1.370 . S
C3417 C3421 1.408 . S
C3418 C3416 1.363 . S
C3418 C3419 1.370 . S
C3418 C3422 1.524 . S
C3419 C3411 1.503 . S
C3419 C3418 1.370 . S
C3419 C3420 1.403 . S
C3420 C3419 1.403 . S
C3420 C3421 1.404 . S
C3420 C3423 1.539 . S
C3421 C3417 1.408 . S
C3421 C3420 1.404 . S
C3421 H3433 0.930 . S
C3422 C3418 1.524 . S
C3422 H3434 0.956 . S
C3422 H3435 0.961 . S
C3422 H3436 0.961 . S
C3423 C3420 1.539 . S
C3423 H3437 0.958 . S
C3423 H3438 0.961 . S
C3423 H3439 0.960 . S
H3424 C3408 0.931 . S
H3425 C3413 0.929 . S
H3426 C3414 0.960 . S
H3427 C3414 0.962 . S
H3428 C3414 0.960 . S
H3429 C3415 0.961 . S
H3430 C3415 0.961 . S
H3431 C3415 0.961 . S
H3432 C3416 0.931 . S
H3433 C3421 0.930 . S
H3434 C3422 0.956 . S
H3435 C3422 0.961 . S
H3436 C3422 0.961 . S
H3437 C3423 0.958 . S
H3438 C3423 0.961 . S
H3439 C3423 0.960 . S
C3440 C3441 1.391 . S
C3440 C3442 1.394 . S
C3440 H3456 0.931 . S
C3441 C3440 1.391 . S
C3441 C3445 1.376 . S
C3442 C3440 1.394 . S
C3442 C3443 1.369 . S
C3442 C3446 1.531 . S
C3443 C3442 1.369 . S
C3443 C3444 1.410 . S
C3443 C3451 1.503 . S
C3444 C3443 1.410 . S
C3444 C3445 1.392 . S
C3444 C3447 1.511 . S
C3445 C3441 1.376 . S
C3445 C3444 1.392 . S
C3445 H3457 0.929 . S
C3446 C3442 1.531 . S
C3446 H3458 0.960 . S
C3446 H3459 0.962 . S
C3446 H3460 0.960 . S
C3447 C3444 1.511 . S
C3447 H3461 0.961 . S
C3447 H3462 0.961 . S
C3447 H3463 0.961 . S
C3448 C3449 1.370 . S
C3448 C3450 1.363 . S
C3448 H3464 0.931 . S
C3449 C3448 1.370 . S
C3449 C3453 1.408 . S
C3450 C3448 1.363 . S
C3450 C3451 1.370 . S
C3450 C3454 1.524 . S
C3451 C3443 1.503 . S
C3451 C3450 1.370 . S
C3451 C3452 1.403 . S
C3452 C3451 1.403 . S
C3452 C3453 1.404 . S
C3452 C3455 1.539 . S
C3453 C3449 1.408 . S
C3453 C3452 1.404 . S
C3453 H3465 0.930 . S
C3454 C3450 1.524 . S
C3454 H3466 0.956 . S
C3454 H3467 0.961 . S
C3454 H3468 0.961 . S
C3455 C3452 1.539 . S
C3455 H3469 0.958 . S
C3455 H3470 0.961 . S
C3455 H3471 0.960 . S
H3456 C3440 0.931 . S
H3457 C3445 0.929 . S
H3458 C3446 0.960 . S
H3459 C3446 0.962 . S
H3460 C3446 0.960 . S
H3461 C3447 0.961 . S
H3462 C3447 0.961 . S
H3463 C3447 0.961 . S
H3464 C3448 0.931 . S
H3465 C3453 0.930 . S
H3466 C3454 0.956 . S
H3467 C3454 0.961 . S
H3468 C3454 0.961 . S
H3469 C3455 0.958 . S
H3470 C3455 0.961 . S
H3471 C3455 0.960 . S
C3472 C3473 1.391 . S
C3472 C3474 1.394 . S
C3472 H3488 0.931 . S
C3473 C3472 1.391 . S
C3473 C3477 1.376 . S
C3474 C3472 1.394 . S
C3474 C3475 1.369 . S
C3474 C3478 1.531 . S
C3475 C3474 1.369 . S
C3475 C3476 1.410 . S
C3475 C3483 1.503 . S
C3476 C3475 1.410 . S
C3476 C3477 1.392 . S
C3476 C3479 1.511 . S
C3477 C3473 1.376 . S
C3477 C3476 1.392 . S
C3477 H3489 0.929 . S
C3478 C3474 1.531 . S
C3478 H3490 0.960 . S
C3478 H3491 0.962 . S
C3478 H3492 0.960 . S
C3479 C3476 1.511 . S
C3479 H3493 0.961 . S
C3479 H3494 0.961 . S
C3479 H3495 0.961 . S
C3480 C3481 1.370 . S
C3480 C3482 1.363 . S
C3480 H3496 0.931 . S
C3481 C3480 1.370 . S
C3481 C3485 1.408 . S
C3482 C3480 1.363 . S
C3482 C3483 1.370 . S
C3482 C3486 1.524 . S
C3483 C3475 1.503 . S
C3483 C3482 1.370 . S
C3483 C3484 1.403 . S
C3484 C3483 1.403 . S
C3484 C3485 1.404 . S
C3484 C3487 1.539 . S
C3485 C3481 1.408 . S
C3485 C3484 1.404 . S
C3485 H3497 0.930 . S
C3486 C3482 1.524 . S
C3486 H3498 0.956 . S
C3486 H3499 0.961 . S
C3486 H3500 0.961 . S
C3487 C3484 1.539 . S
C3487 H3501 0.958 . S
C3487 H3502 0.961 . S
C3487 H3503 0.960 . S
H3488 C3472 0.931 . S
H3489 C3477 0.929 . S
H3490 C3478 0.960 . S
H3491 C3478 0.962 . S
H3492 C3478 0.960 . S
H3493 C3479 0.961 . S
H3494 C3479 0.961 . S
H3495 C3479 0.961 . S
H3496 C3480 0.931 . S
H3497 C3485 0.930 . S
H3498 C3486 0.956 . S
H3499 C3486 0.961 . S
H3500 C3486 0.961 . S
H3501 C3487 0.958 . S
H3502 C3487 0.961 . S
H3503 C3487 0.960 . S
C3504 C3505 1.391 . S
C3504 C3506 1.394 . S
C3504 H3520 0.931 . S
C3505 C3504 1.391 . S
C3505 C3509 1.376 . S
C3506 C3504 1.394 . S
C3506 C3507 1.369 . S
C3506 C3510 1.531 . S
C3507 C3506 1.369 . S
C3507 C3508 1.410 . S
C3507 C3515 1.503 . S
C3508 C3507 1.410 . S
C3508 C3509 1.392 . S
C3508 C3511 1.511 . S
C3509 C3505 1.376 . S
C3509 C3508 1.392 . S
C3509 H3521 0.929 . S
C3510 C3506 1.531 . S
C3510 H3522 0.960 . S
C3510 H3523 0.962 . S
C3510 H3524 0.960 . S
C3511 C3508 1.511 . S
C3511 H3525 0.961 . S
C3511 H3526 0.961 . S
C3511 H3527 0.961 . S
C3512 C3513 1.370 . S
C3512 C3514 1.363 . S
C3512 H3528 0.931 . S
C3513 C3512 1.370 . S
C3513 C3517 1.408 . S
C3514 C3512 1.363 . S
C3514 C3515 1.370 . S
C3514 C3518 1.524 . S
C3515 C3507 1.503 . S
C3515 C3514 1.370 . S
C3515 C3516 1.403 . S
C3516 C3515 1.403 . S
C3516 C3517 1.404 . S
C3516 C3519 1.539 . S
C3517 C3513 1.408 . S
C3517 C3516 1.404 . S
C3517 H3529 0.930 1_565 S
C3518 C3514 1.524 . S
C3518 H3530 0.956 . S
C3518 H3531 0.961 . S
C3518 H3532 0.961 . S
C3519 C3516 1.539 . S
C3519 H3533 0.958 1_565 S
C3519 H3534 0.968 . S
C3519 H3535 0.960 . S
H3520 C3504 0.931 . S
H3521 C3509 0.929 . S
H3522 C3510 0.960 . S
H3523 C3510 0.962 . S
H3524 C3510 0.960 . S
H3525 C3511 0.961 . S
H3526 C3511 0.961 . S
H3527 C3511 0.961 . S
H3528 C3512 0.931 . S
H3529 C3517 0.930 1_545 S
H3530 C3518 0.956 . S
H3531 C3518 0.961 . S
H3532 C3518 0.961 . S
H3533 C3519 0.958 1_545 S
H3534 C3519 0.968 . S
H3535 C3519 0.960 . S
C3536 C3537 1.391 . S
C3536 C3538 1.394 . S
C3536 H3552 0.931 . S
C3537 C3536 1.391 . S
C3537 C3541 1.376 . S
C3538 C3536 1.394 . S
C3538 C3539 1.369 . S
C3538 C3542 1.531 . S
C3539 C3538 1.369 . S
C3539 C3540 1.410 . S
C3539 C3547 1.503 . S
C3540 C3539 1.410 . S
C3540 C3541 1.392 . S
C3540 C3543 1.511 . S
C3541 C3537 1.376 . S
C3541 C3540 1.392 . S
C3541 H3553 0.929 . S
C3542 C3538 1.531 . S
C3542 H3554 0.960 . S
C3542 H3555 0.962 . S
C3542 H3556 0.960 . S
C3543 C3540 1.511 . S
C3543 H3557 0.961 . S
C3543 H3558 0.961 . S
C3543 H3559 0.961 . S
C3544 C3545 1.370 . S
C3544 C3546 1.363 . S
C3544 H3560 0.931 . S
C3545 C3544 1.370 . S
C3545 C3549 1.408 . S
C3546 C3544 1.363 . S
C3546 C3547 1.370 . S
C3546 C3550 1.524 . S
C3547 C3539 1.503 . S
C3547 C3546 1.370 . S
C3547 C3548 1.403 . S
C3548 C3547 1.403 . S
C3548 C3549 1.404 . S
C3548 C3551 1.539 . S
C3549 C3545 1.408 . S
C3549 C3548 1.404 . S
C3549 H3561 0.930 . S
C3550 C3546 1.524 . S
C3550 H3562 0.956 . S
C3550 H3563 0.961 . S
C3550 H3564 0.961 . S
C3551 C3548 1.539 . S
C3551 H3565 0.958 . S
C3551 H3566 0.961 . S
C3551 H3567 0.960 . S
H3552 C3536 0.931 . S
H3553 C3541 0.929 . S
H3554 C3542 0.960 . S
H3555 C3542 0.962 . S
H3556 C3542 0.960 . S
H3557 C3543 0.961 . S
H3558 C3543 0.961 . S
H3559 C3543 0.961 . S
H3560 C3544 0.931 . S
H3561 C3549 0.930 . S
H3562 C3550 0.956 . S
H3563 C3550 0.961 . S
H3564 C3550 0.961 . S
H3565 C3551 0.958 . S
H3566 C3551 0.961 . S
H3567 C3551 0.960 . S
C3568 C3569 1.391 . S
C3568 C3570 1.394 . S
C3568 H3584 0.931 . S
C3569 C3568 1.391 . S
C3569 C3573 1.376 . S
C3570 C3568 1.394 . S
C3570 C3571 1.369 . S
C3570 C3574 1.531 . S
C3571 C3570 1.369 . S
C3571 C3572 1.410 . S
C3571 C3579 1.503 . S
C3572 C3571 1.410 . S
C3572 C3573 1.392 . S
C3572 C3575 1.511 . S
C3573 C3569 1.376 . S
C3573 C3572 1.392 . S
C3573 H3585 0.929 . S
C3574 C3570 1.531 . S
C3574 H3586 0.960 . S
C3574 H3587 0.962 . S
C3574 H3588 0.960 . S
C3575 C3572 1.511 . S
C3575 H3589 0.961 . S
C3575 H3590 0.961 . S
C3575 H3591 0.961 . S
C3576 C3577 1.370 . S
C3576 C3578 1.363 . S
C3576 H3592 0.931 1_554 S
C3577 C3576 1.370 . S
C3577 C3581 1.408 . S
C3578 C3576 1.363 . S
C3578 C3579 1.370 . S
C3578 C3582 1.524 1_554 S
C3579 C3571 1.503 . S
C3579 C3578 1.370 . S
C3579 C3580 1.403 . S
C3580 C3579 1.403 . S
C3580 C3581 1.404 . S
C3580 C3583 1.539 . S
C3581 C3577 1.408 . S
C3581 C3580 1.404 . S
C3581 H3593 0.930 . S
C3582 C3578 1.524 1_556 S
C3582 H3594 0.956 . S
C3582 H3595 0.961 . S
C3582 H3596 0.961 . S
C3583 C3580 1.539 . S
C3583 H3597 0.958 . S
C3583 H3598 0.961 . S
C3583 H3599 0.960 . S
H3584 C3568 0.931 . S
H3585 C3573 0.929 . S
H3586 C3574 0.960 . S
H3587 C3574 0.962 . S
H3588 C3574 0.960 . S
H3589 C3575 0.961 . S
H3590 C3575 0.961 . S
H3591 C3575 0.961 . S
H3592 C3576 0.931 1_556 S
H3593 C3581 0.930 . S
H3594 C3582 0.956 . S
H3595 C3582 0.961 . S
H3596 C3582 0.961 . S
H3597 C3583 0.958 . S
H3598 C3583 0.961 . S
H3599 C3583 0.960 . S
C3600 C3601 1.391 . S
C3600 C3602 1.394 . S
C3600 H3616 0.931 . S
C3601 C3600 1.391 . S
C3601 C3605 1.376 . S
C3602 C3600 1.394 . S
C3602 C3603 1.369 . S
C3602 C3606 1.531 . S
C3603 C3602 1.369 . S
C3603 C3604 1.410 . S
C3603 C3611 1.503 . S
C3604 C3603 1.410 . S
C3604 C3605 1.392 . S
C3604 C3607 1.511 . S
C3605 C3601 1.376 . S
C3605 C3604 1.392 . S
C3605 H3617 0.929 . S
C3606 C3602 1.531 . S
C3606 H3618 0.960 . S
C3606 H3619 0.962 . S
C3606 H3620 0.960 . S
C3607 C3604 1.511 . S
C3607 H3621 0.961 . S
C3607 H3622 0.961 . S
C3607 H3623 0.961 . S
C3608 C3609 1.370 . S
C3608 C3610 1.363 . S
C3608 H3624 0.931 . S
C3609 C3608 1.370 . S
C3609 C3613 1.408 . S
C3610 C3608 1.363 . S
C3610 C3611 1.370 . S
C3610 C3614 1.524 . S
C3611 C3603 1.503 . S
C3611 C3610 1.370 . S
C3611 C3612 1.403 . S
C3612 C3611 1.403 . S
C3612 C3613 1.404 . S
C3612 C3615 1.539 . S
C3613 C3609 1.408 . S
C3613 C3612 1.404 . S
C3613 H3625 0.930 . S
C3614 C3610 1.524 . S
C3614 H3626 0.956 . S
C3614 H3627 0.961 . S
C3614 H3628 0.961 . S
C3615 C3612 1.539 . S
C3615 H3629 0.958 . S
C3615 H3630 0.961 . S
C3615 H3631 0.960 . S
H3616 C3600 0.931 . S
H3617 C3605 0.929 . S
H3618 C3606 0.960 . S
H3619 C3606 0.962 . S
H3620 C3606 0.960 . S
H3621 C3607 0.961 . S
H3622 C3607 0.961 . S
H3623 C3607 0.961 . S
H3624 C3608 0.931 . S
H3625 C3613 0.930 . S
H3626 C3614 0.956 . S
H3627 C3614 0.961 . S
H3628 C3614 0.961 . S
H3629 C3615 0.958 . S
H3630 C3615 0.961 . S
H3631 C3615 0.960 . S
C3632 C3633 1.391 . S
C3632 C3634 1.394 . S
C3632 H3648 0.931 . S
C3633 C3632 1.391 . S
C3633 C3637 1.376 . S
C3634 C3632 1.394 . S
C3634 C3635 1.369 . S
C3634 C3638 1.531 . S
C3635 C3634 1.369 . S
C3635 C3636 1.410 . S
C3635 C3643 1.503 . S
C3636 C3635 1.410 . S
C3636 C3637 1.392 . S
C3636 C3639 1.511 . S
C3637 C3633 1.376 . S
C3637 C3636 1.392 . S
C3637 H3649 0.929 . S
C3638 C3634 1.531 . S
C3638 H3650 0.960 . S
C3638 H3651 0.962 . S
C3638 H3652 0.960 . S
C3639 C3636 1.511 . S
C3639 H3653 0.961 . S
C3639 H3654 0.961 . S
C3639 H3655 0.961 . S
C3640 C3641 1.370 . S
C3640 C3642 1.363 . S
C3640 H3656 0.931 . S
C3641 C3640 1.370 . S
C3641 C3645 1.408 1_554 S
C3642 C3640 1.363 . S
C3642 C3643 1.370 . S
C3642 C3646 1.524 . S
C3643 C3635 1.503 . S
C3643 C3642 1.370 . S
C3643 C3644 1.403 1_554 S
C3644 C3643 1.403 1_556 S
C3644 C3645 1.404 . S
C3644 C3647 1.539 . S
C3645 C3641 1.408 1_556 S
C3645 C3644 1.404 . S
C3645 H3657 0.930 . S
C3646 C3642 1.524 . S
C3646 H3658 0.956 . S
C3646 H3659 0.961 . S
C3646 H3660 0.961 . S
C3647 C3644 1.539 . S
C3647 H3661 0.958 . S
C3647 H3662 0.961 . S
C3647 H3663 0.960 . S
H3648 C3632 0.931 . S
H3649 C3637 0.929 . S
H3650 C3638 0.960 . S
H3651 C3638 0.962 . S
H3652 C3638 0.960 . S
H3653 C3639 0.961 . S
H3654 C3639 0.961 . S
H3655 C3639 0.961 . S
H3656 C3640 0.931 . S
H3657 C3645 0.930 . S
H3658 C3646 0.956 . S
H3659 C3646 0.961 . S
H3660 C3646 0.961 . S
H3661 C3647 0.958 . S
H3662 C3647 0.961 . S
H3663 C3647 0.960 . S
C3664 C3665 1.391 . S
C3664 C3666 1.394 . S
C3664 H3680 0.931 . S
C3665 C3664 1.391 . S
C3665 C3669 1.376 . S
C3666 C3664 1.394 . S
C3666 C3667 1.369 . S
C3666 C3670 1.531 . S
C3667 C3666 1.369 . S
C3667 C3668 1.410 . S
C3667 C3675 1.503 . S
C3668 C3667 1.410 . S
C3668 C3669 1.392 . S
C3668 C3671 1.511 . S
C3669 C3665 1.376 . S
C3669 C3668 1.392 . S
C3669 H3681 0.929 . S
C3670 C3666 1.531 . S
C3670 H3682 0.960 . S
C3670 H3683 0.962 . S
C3670 H3684 0.960 . S
C3671 C3668 1.511 . S
C3671 H3685 0.961 . S
C3671 H3686 0.961 . S
C3671 H3687 0.961 . S
C3672 C3673 1.370 . S
C3672 C3674 1.363 . S
C3672 H3688 0.931 . S
C3673 C3672 1.370 . S
C3673 C3677 1.408 . S
C3674 C3672 1.363 . S
C3674 C3675 1.370 . S
C3674 C3678 1.524 . S
C3675 C3667 1.503 . S
C3675 C3674 1.370 . S
C3675 C3676 1.403 . S
C3676 C3675 1.403 . S
C3676 C3677 1.404 . S
C3676 C3679 1.539 . S
C3677 C3673 1.408 . S
C3677 C3676 1.404 . S
C3677 H3689 0.930 . S
C3678 C3674 1.524 . S
C3678 H3690 0.956 . S
C3678 H3691 0.961 . S
C3678 H3692 0.961 . S
C3679 C3676 1.539 . S
C3679 H3693 0.958 . S
C3679 H3694 0.961 . S
C3679 H3695 0.960 . S
H3680 C3664 0.931 . S
H3681 C3669 0.929 . S
H3682 C3670 0.960 . S
H3683 C3670 0.962 . S
H3684 C3670 0.960 . S
H3685 C3671 0.961 . S
H3686 C3671 0.961 . S
H3687 C3671 0.961 . S
H3688 C3672 0.931 . S
H3689 C3677 0.930 . S
H3690 C3678 0.956 . S
H3691 C3678 0.961 . S
H3692 C3678 0.961 . S
H3693 C3679 0.958 . S
H3694 C3679 0.961 . S
H3695 C3679 0.960 . S
C3696 C3697 1.391 . S
C3696 C3698 1.394 . S
C3696 H3712 0.931 . S
C3697 C3696 1.391 . S
C3697 C3701 1.376 . S
C3698 C3696 1.394 . S
C3698 C3699 1.369 . S
C3698 C3702 1.531 . S
C3699 C3698 1.369 . S
C3699 C3700 1.410 . S
C3699 C3707 1.503 . S
C3700 C3699 1.410 . S
C3700 C3701 1.392 . S
C3700 C3703 1.511 . S
C3701 C3697 1.376 . S
C3701 C3700 1.392 . S
C3701 H3713 0.929 . S
C3702 C3698 1.531 . S
C3702 H3714 0.960 . S
C3702 H3715 0.962 . S
C3702 H3716 0.960 . S
C3703 C3700 1.511 . S
C3703 H3717 0.961 . S
C3703 H3718 0.961 . S
C3703 H3719 0.961 . S
C3704 C3705 1.370 . S
C3704 C3706 1.363 . S
C3704 H3720 0.931 . S
C3705 C3704 1.370 . S
C3705 C3709 1.408 . S
C3706 C3704 1.363 . S
C3706 C3707 1.370 . S
C3706 C3710 1.524 . S
C3707 C3699 1.503 . S
C3707 C3706 1.370 . S
C3707 C3708 1.403 . S
C3708 C3707 1.403 . S
C3708 C3709 1.404 . S
C3708 C3711 1.539 . S
C3709 C3705 1.408 . S
C3709 C3708 1.404 . S
C3709 H3721 0.930 . S
C3710 C3706 1.524 . S
C3710 H3722 0.956 . S
C3710 H3723 0.961 . S
C3710 H3724 0.961 . S
C3711 C3708 1.539 . S
C3711 H3725 0.958 . S
C3711 H3726 0.961 . S
C3711 H3727 0.960 . S
H3712 C3696 0.931 . S
H3713 C3701 0.929 . S
H3714 C3702 0.960 . S
H3715 C3702 0.962 . S
H3716 C3702 0.960 . S
H3717 C3703 0.961 . S
H3718 C3703 0.961 . S
H3719 C3703 0.961 . S
H3720 C3704 0.931 . S
H3721 C3709 0.930 . S
H3722 C3710 0.956 . S
H3723 C3710 0.961 . S
H3724 C3710 0.961 . S
H3725 C3711 0.958 . S
H3726 C3711 0.961 . S
H3727 C3711 0.960 . S
C657 C105 1.455 . S
C665 C340 1.258 . S
C689 C65 1.526 . S
C697 C375 1.483 . S
C721 C73 1.115 . S
C729 C380 1.028 . S
C761 C405 1.377 . S
C753 C92 1.462 . S
C785 C17 1.515 . S
C793 C425 1.435 . S
C825 C440 0.984 . S
C817 C37 1.112 . S
C857 C475 1.506 . S
C849 C49 1.468 . S
C881 C8 1.418 . S
C889 C480 1.199 . S
C921 C355 1.541 1_655 S
C913 C231 1.548 . S
C945 C241 1.037 . S
C953 C365 0.978 . S
C985 C395 1.443 . S
C977 C273 1.442 . S
C1017 C400 1.118 . S
C1009 C171 1.188 1_556 S
C1041 C227 1.202 . S
C1049 C420 1.130 . S
C1081 C455 1.427 . S
C1073 C245 1.385 . S
C1113 C465 1.009 . S
C1105 C269 1.038 . S
C1145 C495 1.531 . S
C1137 C175 1.581 . S
C1177 C345 1.330 . S
C1169 C162 1.444 . S
C1201 C289 1.772 . S
C1209 C515 1.736 . S
C1241 C525 1.446 . S
C1233 C330 1.521 . S
C1273 C540 0.967 . S
C1265 C317 1.074 . S
C1297 C120 1.429 . S
C1305 C485 1.255 . S
C1329 C134 1.569 . S
C1337 C385 1.435 . S
C1361 C331 1.717 . S
C1369 C575 1.687 . S
C1401 C580 0.960 . S
C1393 C303 1.034 . S
C1433 C338 1.282 . S
C1425 C59 1.469 . S
C1465 C594 1.531 . S
C1457 C107 1.557 . S
C1489 C91 1.147 . S
C1497 C378 1.038 . S
C1521 C78 1.487 . S
C1529 C568 1.418 . S
C1561 C428 1.486 . S
C1553 C7 1.493 . S
C1585 C51 1.131 . S
C1593 C518 1.065 . S
C1625 C474 1.529 1_556 S
C1617 C31 1.569 . S
C1657 C598 1.245 . S
C1649 C22 1.400 . S
C1689 C354 1.543 . S
C1681 C143 1.630 . S
C1721 C588 1.036 . S
C1713 C315 0.989 . S
C1745 C115 1.493 . S
C1753 C394 1.456 . S
C1777 C287 1.177 . S
C1785 C558 1.171 . S
C1809 C147 1.224 . S
C1817 C418 1.133 . S
C1849 C534 1.447 . S
C1841 C311 1.489 . S
C1873 C119 1.011 . S
C1881 C468 1.014 1_565 S
C1905 C283 1.612 . S
C1913 C614 1.565 . S
C1937 C190 1.437 . S
C1945 C348 1.334 . S
C1969 C177 1.777 . S
C1977 C514 1.765 . S
C2001 C260 1.540 . S
C2009 C448 1.466 . S
C2033 C247 1.107 . S
C2041 C538 1.002 . S
C2073 C608 1.273 . S
C2065 C274 1.437 . S
C2097 C218 1.574 . S
C2105 C388 1.486 . S
C2137 C414 1.729 . S
C2129 C261 1.749 . S
C2169 C358 0.970 . S
C2161 C205 1.064 . S
C2193 C77 1.441 . S
C2201 C620 1.296 . S
C2233 C595 1.477 . S
C2225 C93 1.518 . S
C2257 C101 1.121 . S
C2265 C640 1.022 1_556 S
C2289 C64 1.450 . S
C2297 C565 1.383 . S
C2321 C45 1.514 . S
C2329 C505 1.433 . S
C2361 C520 1.027 . S
C2353 C9 1.113 . S
C2393 C555 1.508 . S
C2385 C21 1.519 . S
C2425 C600 1.202 . S
C2417 C36 1.421 . S
C2457 C635 1.545 . S
C2449 C259 1.571 . S
C2481 C185 1.018 . S
C2489 C585 0.984 . S
C2521 C655 1.437 . S
C2513 C203 1.445 . S
C2553 C560 1.109 . S
C2545 C213 1.225 . S
C2585 C500 1.086 . S
C2577 C255 1.204 . S
C2609 C189 1.426 . S
C2617 C535 1.441 . S
C2649 C545 1.001 . S
C2641 C199 1.028 . S
C2673 C217 1.529 . S
C2681 C615 1.516 . S
C2713 C625 1.334 . S
C2705 C316 1.439 . S
C2737 C135 1.755 . S
C2745 C435 1.731 . S
C2777 C445 1.413 . S
C2769 C148 1.546 . S
C2809 C460 0.974 . S
C2801 C163 1.087 . S
C2841 C605 1.297 . S
C2833 C302 1.399 . S
C2865 C288 1.567 . S
C2873 C645 1.439 . S
C2905 C415 1.694 . S
C2897 C149 1.729 . S
C2937 C360 0.994 . S
C2929 C121 1.041 . S
C2961 C87 1.451 . S
C2969 C618 1.311 . S
C3001 C374 1.514 . S
C2993 C79 1.537 . S
C3025 C63 1.083 . S
C3033 C638 1.085 . S
C3057 C106 1.477 . S
C3065 C408 1.421 . S
C3089 C35 1.495 . S
C3097 C508 1.487 . S
C3129 C438 1.050 . S
C3121 C23 1.120 . S
C3153 C3 1.569 . S
C3161 C554 1.529 . S
C3185 C50 1.421 . S
C3193 C478 1.219 . S
C3225 C634 1.559 . S
C3217 C325 1.623 . S
C3249 C161 1.077 . S
C3257 C368 0.989 . S
C3289 C654 1.468 1_655 S
C3281 C297 1.498 . S
C3313 C133 1.184 . S
C3321 C398 1.174 . S
C3345 C329 1.193 . S
C3353 C498 1.148 . S
C3385 C454 1.469 . S
C3377 C157 1.500 . S
C3409 C301 1.073 . S
C3417 C548 1.012 . S
C3449 C494 1.533 . S
C3441 C129 1.622 . S
C3481 C628 1.352 . S
C3473 C246 1.428 . S
C3513 C434 1.782 . S
C3505 C219 1.805 . S
C3537 C232 1.562 . S
C3545 C528 1.445 . S
C3577 C458 1.035 . S
C3569 C191 1.097 . S
C3601 C204 1.410 . S
C3609 C488 1.287 . S
C3633 C176 1.556 . S
C3641 C648 1.487 . S
C3673 C574 1.734 . S
C3665 C233 1.751 . S
C3705 C578 0.989 . S
C3697 C275 1.077 . S
