# Generated by pormake.
# Topology gar, (4,6)-cn, num edge types: 1
# Building blocks:
#     Node 0, Type 0, BuildingBlock: QUQFOY_clean_sbu_3, # of connection points: 4
#     Node 1, Type 0, BuildingBlock: QUQFOY_clean_sbu_3, # of connection points: 4
#     Node 2, Type 0, BuildingBlock: QUQFOY_clean_sbu_3, # of connection points: 4
#     Node 3, Type 0, BuildingBlock: QUQFOY_clean_sbu_3, # of connection points: 4
#     Node 4, Type 0, BuildingBlock: QUQFOY_clean_sbu_3, # of connection points: 4
#     Node 5, Type 0, BuildingBlock: QUQFOY_clean_sbu_3, # of connection points: 4
#     Node 6, Type 0, BuildingBlock: QUQFOY_clean_sbu_3, # of connection points: 4
#     Node 7, Type 0, BuildingBlock: QUQFOY_clean_sbu_3, # of connection points: 4
#     Node 8, Type 0, BuildingBlock: QUQFOY_clean_sbu_3, # of connection points: 4
#     Node 9, Type 0, BuildingBlock: QUQFOY_clean_sbu_3, # of connection points: 4
#     Node 10, Type 0, BuildingBlock: QUQFOY_clean_sbu_3, # of connection points: 4
#     Node 11, Type 0, BuildingBlock: QUQFOY_clean_sbu_3, # of connection points: 4
#     Node 12, Type 0, BuildingBlock: QUQFOY_clean_sbu_3, # of connection points: 4
#     Node 13, Type 0, BuildingBlock: QUQFOY_clean_sbu_3, # of connection points: 4
#     Node 14, Type 0, BuildingBlock: QUQFOY_clean_sbu_3, # of connection points: 4
#     Node 15, Type 0, BuildingBlock: QUQFOY_clean_sbu_3, # of connection points: 4
#     Node 16, Type 0, BuildingBlock: QUQFOY_clean_sbu_3, # of connection points: 4
#     Node 17, Type 0, BuildingBlock: QUQFOY_clean_sbu_3, # of connection points: 4
#     Node 18, Type 0, BuildingBlock: QUQFOY_clean_sbu_3, # of connection points: 4
#     Node 19, Type 0, BuildingBlock: QUQFOY_clean_sbu_3, # of connection points: 4
#     Node 20, Type 0, BuildingBlock: QUQFOY_clean_sbu_3, # of connection points: 4
#     Node 21, Type 0, BuildingBlock: QUQFOY_clean_sbu_3, # of connection points: 4
#     Node 22, Type 0, BuildingBlock: QUQFOY_clean_sbu_3, # of connection points: 4
#     Node 23, Type 0, BuildingBlock: QUQFOY_clean_sbu_3, # of connection points: 4
#     Node 24, Type 1, BuildingBlock: CUKXOW_clean_sbu_0, # of connection points: 6
#     Node 25, Type 1, BuildingBlock: CUKXOW_clean_sbu_0, # of connection points: 6
#     Node 26, Type 1, BuildingBlock: CUKXOW_clean_sbu_0, # of connection points: 6
#     Node 27, Type 1, BuildingBlock: CUKXOW_clean_sbu_0, # of connection points: 6
#     Node 28, Type 1, BuildingBlock: CUKXOW_clean_sbu_0, # of connection points: 6
#     Node 29, Type 1, BuildingBlock: CUKXOW_clean_sbu_0, # of connection points: 6
#     Node 30, Type 1, BuildingBlock: CUKXOW_clean_sbu_0, # of connection points: 6
#     Node 31, Type 1, BuildingBlock: CUKXOW_clean_sbu_0, # of connection points: 6
#     Node 32, Type 1, BuildingBlock: CUKXOW_clean_sbu_0, # of connection points: 6
#     Node 33, Type 1, BuildingBlock: CUKXOW_clean_sbu_0, # of connection points: 6
#     Node 34, Type 1, BuildingBlock: CUKXOW_clean_sbu_0, # of connection points: 6
#     Node 35, Type 1, BuildingBlock: CUKXOW_clean_sbu_0, # of connection points: 6
#     Node 36, Type 1, BuildingBlock: CUKXOW_clean_sbu_0, # of connection points: 6
#     Node 37, Type 1, BuildingBlock: CUKXOW_clean_sbu_0, # of connection points: 6
#     Node 38, Type 1, BuildingBlock: CUKXOW_clean_sbu_0, # of connection points: 6
#     Node 39, Type 1, BuildingBlock: CUKXOW_clean_sbu_0, # of connection points: 6
#     Edge 40, Type (0, 1), BuildingBlock: XUDNAN_clean_linker_2, # of connection points: 2
#     Edge 41, Type (0, 1), BuildingBlock: XUDNAN_clean_linker_2, # of connection points: 2
#     Edge 42, Type (0, 1), BuildingBlock: XUDNAN_clean_linker_2, # of connection points: 2
#     Edge 43, Type (0, 1), BuildingBlock: XUDNAN_clean_linker_2, # of connection points: 2
#     Edge 44, Type (0, 1), BuildingBlock: XUDNAN_clean_linker_2, # of connection points: 2
#     Edge 45, Type (0, 1), BuildingBlock: XUDNAN_clean_linker_2, # of connection points: 2
#     Edge 46, Type (0, 1), BuildingBlock: XUDNAN_clean_linker_2, # of connection points: 2
#     Edge 47, Type (0, 1), BuildingBlock: XUDNAN_clean_linker_2, # of connection points: 2
#     Edge 48, Type (0, 1), BuildingBlock: XUDNAN_clean_linker_2, # of connection points: 2
#     Edge 49, Type (0, 1), BuildingBlock: XUDNAN_clean_linker_2, # of connection points: 2
#     Edge 50, Type (0, 1), BuildingBlock: XUDNAN_clean_linker_2, # of connection points: 2
#     Edge 51, Type (0, 1), BuildingBlock: XUDNAN_clean_linker_2, # of connection points: 2
#     Edge 52, Type (0, 1), BuildingBlock: XUDNAN_clean_linker_2, # of connection points: 2
#     Edge 53, Type (0, 1), BuildingBlock: XUDNAN_clean_linker_2, # of connection points: 2
#     Edge 54, Type (0, 1), BuildingBlock: XUDNAN_clean_linker_2, # of connection points: 2
#     Edge 55, Type (0, 1), BuildingBlock: XUDNAN_clean_linker_2, # of connection points: 2
#     Edge 56, Type (0, 1), BuildingBlock: XUDNAN_clean_linker_2, # of connection points: 2
#     Edge 57, Type (0, 1), BuildingBlock: XUDNAN_clean_linker_2, # of connection points: 2
#     Edge 58, Type (0, 1), BuildingBlock: XUDNAN_clean_linker_2, # of connection points: 2
#     Edge 59, Type (0, 1), BuildingBlock: XUDNAN_clean_linker_2, # of connection points: 2
#     Edge 60, Type (0, 1), BuildingBlock: XUDNAN_clean_linker_2, # of connection points: 2
#     Edge 61, Type (0, 1), BuildingBlock: XUDNAN_clean_linker_2, # of connection points: 2
#     Edge 62, Type (0, 1), BuildingBlock: XUDNAN_clean_linker_2, # of connection points: 2
#     Edge 63, Type (0, 1), BuildingBlock: XUDNAN_clean_linker_2, # of connection points: 2
#     Edge 64, Type (0, 1), BuildingBlock: XUDNAN_clean_linker_2, # of connection points: 2
#     Edge 65, Type (0, 1), BuildingBlock: XUDNAN_clean_linker_2, # of connection points: 2
#     Edge 66, Type (0, 1), BuildingBlock: XUDNAN_clean_linker_2, # of connection points: 2
#     Edge 67, Type (0, 1), BuildingBlock: XUDNAN_clean_linker_2, # of connection points: 2
#     Edge 68, Type (0, 1), BuildingBlock: XUDNAN_clean_linker_2, # of connection points: 2
#     Edge 69, Type (0, 1), BuildingBlock: XUDNAN_clean_linker_2, # of connection points: 2
#     Edge 70, Type (0, 1), BuildingBlock: XUDNAN_clean_linker_2, # of connection points: 2
#     Edge 71, Type (0, 1), BuildingBlock: XUDNAN_clean_linker_2, # of connection points: 2
#     Edge 72, Type (0, 1), BuildingBlock: XUDNAN_clean_linker_2, # of connection points: 2
#     Edge 73, Type (0, 1), BuildingBlock: XUDNAN_clean_linker_2, # of connection points: 2
#     Edge 74, Type (0, 1), BuildingBlock: XUDNAN_clean_linker_2, # of connection points: 2
#     Edge 75, Type (0, 1), BuildingBlock: XUDNAN_clean_linker_2, # of connection points: 2
#     Edge 76, Type (0, 1), BuildingBlock: XUDNAN_clean_linker_2, # of connection points: 2
#     Edge 77, Type (0, 1), BuildingBlock: XUDNAN_clean_linker_2, # of connection points: 2
#     Edge 78, Type (0, 1), BuildingBlock: XUDNAN_clean_linker_2, # of connection points: 2
#     Edge 79, Type (0, 1), BuildingBlock: XUDNAN_clean_linker_2, # of connection points: 2
#     Edge 80, Type (0, 1), BuildingBlock: XUDNAN_clean_linker_2, # of connection points: 2
#     Edge 81, Type (0, 1), BuildingBlock: XUDNAN_clean_linker_2, # of connection points: 2
#     Edge 82, Type (0, 1), BuildingBlock: XUDNAN_clean_linker_2, # of connection points: 2
#     Edge 83, Type (0, 1), BuildingBlock: XUDNAN_clean_linker_2, # of connection points: 2
#     Edge 84, Type (0, 1), BuildingBlock: XUDNAN_clean_linker_2, # of connection points: 2
#     Edge 85, Type (0, 1), BuildingBlock: XUDNAN_clean_linker_2, # of connection points: 2
#     Edge 86, Type (0, 1), BuildingBlock: XUDNAN_clean_linker_2, # of connection points: 2
#     Edge 87, Type (0, 1), BuildingBlock: XUDNAN_clean_linker_2, # of connection points: 2
#     Edge 88, Type (0, 1), BuildingBlock: XUDNAN_clean_linker_2, # of connection points: 2
#     Edge 89, Type (0, 1), BuildingBlock: XUDNAN_clean_linker_2, # of connection points: 2
#     Edge 90, Type (0, 1), BuildingBlock: XUDNAN_clean_linker_2, # of connection points: 2
#     Edge 91, Type (0, 1), BuildingBlock: XUDNAN_clean_linker_2, # of connection points: 2
#     Edge 92, Type (0, 1), BuildingBlock: XUDNAN_clean_linker_2, # of connection points: 2
#     Edge 93, Type (0, 1), BuildingBlock: XUDNAN_clean_linker_2, # of connection points: 2
#     Edge 94, Type (0, 1), BuildingBlock: XUDNAN_clean_linker_2, # of connection points: 2
#     Edge 95, Type (0, 1), BuildingBlock: XUDNAN_clean_linker_2, # of connection points: 2
#     Edge 96, Type (0, 1), BuildingBlock: XUDNAN_clean_linker_2, # of connection points: 2
#     Edge 97, Type (0, 1), BuildingBlock: XUDNAN_clean_linker_2, # of connection points: 2
#     Edge 98, Type (0, 1), BuildingBlock: XUDNAN_clean_linker_2, # of connection points: 2
#     Edge 99, Type (0, 1), BuildingBlock: XUDNAN_clean_linker_2, # of connection points: 2
#     Edge 100, Type (0, 1), BuildingBlock: XUDNAN_clean_linker_2, # of connection points: 2
#     Edge 101, Type (0, 1), BuildingBlock: XUDNAN_clean_linker_2, # of connection points: 2
#     Edge 102, Type (0, 1), BuildingBlock: XUDNAN_clean_linker_2, # of connection points: 2
#     Edge 103, Type (0, 1), BuildingBlock: XUDNAN_clean_linker_2, # of connection points: 2
#     Edge 104, Type (0, 1), BuildingBlock: XUDNAN_clean_linker_2, # of connection points: 2
#     Edge 105, Type (0, 1), BuildingBlock: XUDNAN_clean_linker_2, # of connection points: 2
#     Edge 106, Type (0, 1), BuildingBlock: XUDNAN_clean_linker_2, # of connection points: 2
#     Edge 107, Type (0, 1), BuildingBlock: XUDNAN_clean_linker_2, # of connection points: 2
#     Edge 108, Type (0, 1), BuildingBlock: XUDNAN_clean_linker_2, # of connection points: 2
#     Edge 109, Type (0, 1), BuildingBlock: XUDNAN_clean_linker_2, # of connection points: 2
#     Edge 110, Type (0, 1), BuildingBlock: XUDNAN_clean_linker_2, # of connection points: 2
#     Edge 111, Type (0, 1), BuildingBlock: XUDNAN_clean_linker_2, # of connection points: 2
#     Edge 112, Type (0, 1), BuildingBlock: XUDNAN_clean_linker_2, # of connection points: 2
#     Edge 113, Type (0, 1), BuildingBlock: XUDNAN_clean_linker_2, # of connection points: 2
#     Edge 114, Type (0, 1), BuildingBlock: XUDNAN_clean_linker_2, # of connection points: 2
#     Edge 115, Type (0, 1), BuildingBlock: XUDNAN_clean_linker_2, # of connection points: 2
#     Edge 116, Type (0, 1), BuildingBlock: XUDNAN_clean_linker_2, # of connection points: 2
#     Edge 117, Type (0, 1), BuildingBlock: XUDNAN_clean_linker_2, # of connection points: 2
#     Edge 118, Type (0, 1), BuildingBlock: XUDNAN_clean_linker_2, # of connection points: 2
#     Edge 119, Type (0, 1), BuildingBlock: XUDNAN_clean_linker_2, # of connection points: 2
#     Edge 120, Type (0, 1), BuildingBlock: XUDNAN_clean_linker_2, # of connection points: 2
#     Edge 121, Type (0, 1), BuildingBlock: XUDNAN_clean_linker_2, # of connection points: 2
#     Edge 122, Type (0, 1), BuildingBlock: XUDNAN_clean_linker_2, # of connection points: 2
#     Edge 123, Type (0, 1), BuildingBlock: XUDNAN_clean_linker_2, # of connection points: 2
#     Edge 124, Type (0, 1), BuildingBlock: XUDNAN_clean_linker_2, # of connection points: 2
#     Edge 125, Type (0, 1), BuildingBlock: XUDNAN_clean_linker_2, # of connection points: 2
#     Edge 126, Type (0, 1), BuildingBlock: XUDNAN_clean_linker_2, # of connection points: 2
#     Edge 127, Type (0, 1), BuildingBlock: XUDNAN_clean_linker_2, # of connection points: 2
#     Edge 128, Type (0, 1), BuildingBlock: XUDNAN_clean_linker_2, # of connection points: 2
#     Edge 129, Type (0, 1), BuildingBlock: XUDNAN_clean_linker_2, # of connection points: 2
#     Edge 130, Type (0, 1), BuildingBlock: XUDNAN_clean_linker_2, # of connection points: 2
#     Edge 131, Type (0, 1), BuildingBlock: XUDNAN_clean_linker_2, # of connection points: 2
#     Edge 132, Type (0, 1), BuildingBlock: XUDNAN_clean_linker_2, # of connection points: 2
#     Edge 133, Type (0, 1), BuildingBlock: XUDNAN_clean_linker_2, # of connection points: 2
#     Edge 134, Type (0, 1), BuildingBlock: XUDNAN_clean_linker_2, # of connection points: 2
#     Edge 135, Type (0, 1), BuildingBlock: XUDNAN_clean_linker_2, # of connection points: 2
# Relax obj value: 0.106
# Max RMSD: 0.222
# Mean RMSD: 0.118
data_MOF--net-gar--node1-QUQFOY_clean_sbu_3--node2-CUKXOW_clean_sbu_0--edge1-XUDNAN_clean_linker_2
_symmetry_space_group_name_H-M    P1
_symmetry_Int_Tables_number       1
_symmetry_cell_setting            triclinic
loop_
_symmetry_equiv_pos_as_xyz
'x, y, z'
_cell_length_a     55.556211
_cell_length_b     54.96376
_cell_length_c     54.736945
_cell_angle_alpha  94.719159
_cell_angle_beta   95.30753
_cell_angle_gamma 99.508218
loop_
_atom_site_label
_atom_site_type_symbol
_atom_site_fract_x
_atom_site_fract_y
_atom_site_fract_z
_atom_type_partial_charge
C0 C 0.99022 0.2736 0.39908 0.0
O1 O 0.00518 0.28747 0.38778 0.0
Cd2 Cd 0.048 0.30001 0.39846 0.0
O3 O 0.99749 0.26442 0.41859 0.0
Cd4 Cd 0.03691 0.26447 0.44447 0.0
C5 C 0.045 0.32724 0.45692 0.0
O6 O 0.05637 0.26088 0.40783 0.0
O7 O 0.08009 0.25879 0.44063 0.0
O8 O 0.01776 0.22302 0.45202 0.0
C9 C 0.07716 0.25822 0.41736 0.0
O10 O 0.04838 0.32912 0.43443 0.0
C11 C 0.02671 0.22501 0.47445 0.0
O12 O 0.04073 0.30622 0.46531 0.0
O13 O 0.03948 0.24578 0.48313 0.0
C14 C 0.97501 0.7839 0.6749 0.0
O15 O 0.99409 0.77497 0.68102 0.0
Cd16 Cd 0.03054 0.78148 0.66153 0.0
O17 O 0.97364 0.79589 0.65592 0.0
Cd18 Cd 0.00114 0.80674 0.62315 0.0
C19 C 0.00874 0.74857 0.60632 0.0
O20 O 0.03372 0.82431 0.65456 0.0
O21 O 0.04566 0.81866 0.61887 0.0
O22 O 0.97636 0.83879 0.61393 0.0
C23 C 0.05081 0.82804 0.64102 0.0
O24 O 0.02464 0.7512 0.62507 0.0
C25 C 0.98214 0.83972 0.59208 0.0
O26 O 0.99564 0.76508 0.60262 0.0
O27 O 0.99585 0.825 0.58476 0.0
C28 C 0.49312 0.77574 0.87723 0.0
O29 O 0.51137 0.79015 0.87084 0.0
Cd30 Cd 0.55389 0.80159 0.88988 0.0
O31 O 0.49506 0.76398 0.89617 0.0
Cd32 Cd 0.52845 0.75904 0.92557 0.0
C33 C 0.54463 0.8224 0.9467 0.0
O34 O 0.56537 0.76626 0.90649 0.0
O35 O 0.54276 0.73093 0.89453 0.0
O36 O 0.49913 0.72795 0.94048 0.0
C37 C 0.56188 0.74635 0.89235 0.0
O38 O 0.55317 0.82787 0.92673 0.0
C39 C 0.51406 0.72231 0.95718 0.0
O40 O 0.53508 0.80029 0.94984 0.0
O41 O 0.53583 0.73454 0.95985 0.0
C42 C 0.45986 0.29239 0.14884 0.0
O43 O 0.47139 0.27767 0.15993 0.0
Cd44 Cd 0.51264 0.27311 0.15577 0.0
O45 O 0.46874 0.30407 0.13163 0.0
Cd46 Cd 0.50571 0.30304 0.11003 0.0
C47 C 0.50229 0.24076 0.10004 0.0
O48 O 0.53001 0.31409 0.14851 0.0
O49 O 0.55143 0.30805 0.11865 0.0
O50 O 0.50263 0.34339 0.09668 0.0
C51 C 0.55094 0.31534 0.14118 0.0
O52 O 0.51185 0.24131 0.12213 0.0
C53 C 0.50395 0.33707 0.07409 0.0
O54 O 0.49586 0.25996 0.09188 0.0
O55 O 0.50552 0.31465 0.06809 0.0
C56 C 0.9457 0.7596 0.19293 0.0
O57 O 0.9595 0.7537 0.21042 0.0
Cd58 Cd 0.00032 0.74632 0.20668 0.0
O59 O 0.9538 0.76417 0.17244 0.0
Cd60 Cd 0.99486 0.76795 0.15574 0.0
C61 C 0.9946 0.70654 0.15306 0.0
O62 O 0.02371 0.782 0.19318 0.0
O63 O 0.03867 0.76545 0.16221 0.0
O64 O 0.99501 0.81001 0.14413 0.0
C65 C 0.04245 0.77672 0.18374 0.0
O66 O -0.00057 0.71073 0.1764 0.0
C67 C 0.99432 0.80458 0.12107 0.0
O68 O 0.99 0.72383 0.14012 0.0
O69 O 0.99347 0.78186 0.11379 0.0
C70 C 0.4772 0.79258 0.32952 0.0
O71 O 0.49275 0.81134 0.32603 0.0
Cd72 Cd 0.5328 0.82571 0.34654 0.0
O73 O 0.48177 0.77914 0.34682 0.0
Cd74 Cd 0.519 0.78349 0.37873 0.0
C75 C 0.51676 0.84275 0.402 0.0
O76 O 0.54826 0.78773 0.34814 0.0
O77 O 0.56497 0.79415 0.38548 0.0
O78 O 0.51276 0.73887 0.3862 0.0
C79 C 0.56761 0.79058 0.36281 0.0
O80 O 0.52902 0.85055 0.38486 0.0
C81 C 0.5166 0.74349 0.40954 0.0
O82 O 0.50915 0.81968 0.40239 0.0
O83 O 0.51988 0.76611 0.41796 0.0
C84 C 0.44432 0.26236 0.69878 0.0
O85 O 0.45663 0.25106 0.71339 0.0
Cd86 Cd 0.49783 0.24391 0.70818 0.0
O87 O 0.4534 0.27143 0.68027 0.0
Cd88 Cd 0.49277 0.27619 0.66158 0.0
C89 C 0.49144 0.21365 0.65008 0.0
O90 O 0.51871 0.28373 0.70056 0.0
O91 O 0.53833 0.28266 0.66851 0.0
O92 O 0.48798 0.31742 0.65002 0.0
C93 C 0.53916 0.28541 0.69182 0.0
O94 O 0.49706 0.21253 0.67302 0.0
C95 C 0.48715 0.31156 0.62697 0.0
O96 O 0.48748 0.23383 0.64196 0.0
O97 O 0.48921 0.28943 0.62014 0.0
C98 C 0.97312 0.29247 0.83778 0.0
O99 O 0.98373 0.31138 0.82857 0.0
Cd100 Cd 0.02555 0.33205 0.83694 0.0
O101 O 0.98455 0.28235 0.85443 0.0
Cd102 Cd 0.02646 0.2903 0.87777 0.0
C103 C 0.02254 0.35147 0.89694 0.0
O104 O 0.04429 0.29627 0.8399 0.0
O105 O 0.071 0.29528 0.87052 0.0
O106 O 0.01854 0.24675 0.88754 0.0
C107 C 0.06655 0.29753 0.84778 0.0
O108 O 0.02569 0.35798 0.87552 0.0
C109 C 0.02743 0.25186 0.91001 0.0
O110 O 0.02152 0.32891 0.90122 0.0
O111 O 0.03568 0.27453 0.91711 0.0
C112 C 0.44647 0.06471 0.3058 0.0
O113 O 0.45707 0.05012 0.29312 0.0
Cd114 Cd 0.44646 0.03377 0.25145 0.0
O115 O 0.4282 0.07349 0.29627 0.0
Cd116 Cd 0.40516 0.07135 0.25327 0.0
C117 C 0.38536 0.00885 0.25297 0.0
O118 O 0.44155 0.07056 0.23342 0.0
O119 O 0.40956 0.06522 0.20734 0.0
O120 O 0.40142 0.11553 0.25805 0.0
C121 C 0.4327 0.06713 0.2111 0.0
O122 O 0.40737 0.00562 0.25137 0.0
C123 C 0.37811 0.11187 0.25463 0.0
O124 O 0.37993 0.03052 0.2543 0.0
O125 O 0.36736 0.08945 0.25059 0.0
C126 C 0.27518 0.0956 0.50652 0.0
O127 O 0.25613 0.0853 0.51533 0.0
Cd128 Cd 0.21421 0.08663 0.50197 0.0
O129 O 0.27387 0.10989 0.48937 0.0
Cd130 Cd 0.241 0.12848 0.46785 0.0
C131 C 0.21905 0.1469 0.52234 0.0
O132 O 0.21486 0.08927 0.45858 0.0
O133 O 0.19807 0.11933 0.44688 0.0
O134 O 0.26354 0.14172 0.43272 0.0
C135 C 0.19621 0.0962 0.44834 0.0
O136 O 0.20861 0.12497 0.52487 0.0
C137 C 0.26301 0.16457 0.4384 0.0
O138 O 0.23176 0.15121 0.50454 0.0
O139 O 0.25223 0.16986 0.45705 0.0
C140 C 0.10933 0.0064 0.82338 0.0
O141 O 0.09781 0.01891 0.80938 0.0
Cd142 Cd 0.10365 0.02645 0.76842 0.0
O143 O 0.12704 0.99657 0.81605 0.0
Cd144 Cd 0.14711 0.99653 0.77644 0.0
C145 C 0.16202 0.05946 0.7763 0.0
O146 O 0.10858 0.98689 0.75017 0.0
O147 O 0.14047 0.997 0.7312 0.0
O148 O 0.15262 0.95355 0.77289 0.0
C149 C 0.1178 0.98801 0.72996 0.0
O150 O 0.13919 0.05931 0.77129 0.0
C151 C 0.17586 0.95784 0.77481 0.0
O152 O 0.17004 0.03944 0.77975 0.0
O153 O 0.18629 0.98032 0.77932 0.0
C154 C 0.26477 0.92948 0.01685 0.0
O155 O 0.2533 0.93951 0.00034 0.0
Cd156 Cd 0.21 0.93005 0.9891 0.0
O157 O 0.25344 0.91244 0.02822 0.0
Cd158 Cd 0.21072 0.88893 0.02789 0.0
C159 C 0.20881 0.8711 0.96479 0.0
O160 O 0.1971 0.92781 0.02977 0.0
O161 O 0.16699 0.89791 0.02982 0.0
O162 O 0.22377 0.88115 0.07085 0.0
C163 C 0.1746 0.92117 0.03176 0.0
O164 O 0.2054 0.89264 0.96012 0.0
C165 C 0.21649 0.85785 0.06726 0.0
O166 O 0.21177 0.86598 0.98705 0.0
O167 O 0.20575 0.84942 0.04602 0.0
C168 C 0.29123 0.43882 0.04281 0.0
O169 O 0.27976 0.4541 0.03258 0.0
Cd170 Cd 0.23767 0.4524 0.02027 0.0
O171 O 0.27972 0.41841 0.04877 0.0
Cd172 Cd 0.23513 0.39855 0.04484 0.0
C173 C 0.23016 0.39732 0.98274 0.0
O174 O 0.21908 0.43572 0.05309 0.0
O175 O 0.19198 0.4051 0.03662 0.0
O176 O 0.2344 0.38297 0.08516 0.0
C177 C 0.19696 0.42779 0.04489 0.0
O178 O 0.22904 0.42035 0.98564 0.0
C179 C 0.22771 0.36033 0.07688 0.0
O180 O 0.23435 0.38519 0.00107 0.0
O181 O 0.22543 0.35534 0.05363 0.0
C182 C 0.84507 0.13239 0.0217 0.0
O183 O 0.83198 0.12292 0.03753 0.0
Cd184 Cd 0.79247 0.12906 0.04738 0.0
O185 O 0.83834 0.14944 0.00936 0.0
Cd186 Cd 0.80156 0.17216 0.00748 0.0
C187 C 0.80256 0.19072 0.07021 0.0
O188 O 0.77443 0.13365 0.00806 0.0
O189 O 0.75601 0.16501 0.00886 0.0
O190 O 0.79748 0.16995 0.96249 0.0
C191 C 0.75446 0.14168 0.00803 0.0
O192 O 0.79562 0.16792 0.07281 0.0
C193 C 0.79834 0.19283 0.96025 0.0
O194 O 0.80816 0.19777 0.04937 0.0
O195 O 0.80267 0.20722 0.98018 0.0
C196 C 0.07438 0.49797 0.32084 0.0
O197 O 0.06165 0.50818 0.3056 0.0
Cd198 Cd 0.06926 0.51265 0.2635 0.0
O199 O 0.09156 0.487 0.314 0.0
Cd200 Cd 0.10827 0.4756 0.27387 0.0
C201 C 0.13118 0.53664 0.27024 0.0
O202 O 0.07069 0.47248 0.24412 0.0
O203 O 0.10494 0.47084 0.22905 0.0
O204 O 0.1116 0.43336 0.28561 0.0
C205 C 0.08208 0.47048 0.22519 0.0
O206 O 0.10914 0.53984 0.26517 0.0
C207 C 0.13375 0.43452 0.28092 0.0
O208 O 0.13593 0.51552 0.27504 0.0
O209 O 0.14393 0.45469 0.2737 0.0
C210 C 0.79021 0.96679 0.56074 0.0
O211 O 0.77543 0.9791 0.55048 0.0
Cd212 Cd 0.73773 0.96134 0.52746 0.0
O213 O 0.78437 0.94334 0.56108 0.0
Cd214 Cd 0.747 0.9105 0.54873 0.0
C215 C 0.75726 0.91525 0.49029 0.0
O216 O 0.71686 0.93659 0.55479 0.0
O217 O 0.70366 0.90328 0.5309 0.0
O218 O 0.75456 0.89446 0.58829 0.0
C219 C 0.69898 0.92293 0.54176 0.0
O220 O 0.749 0.93553 0.49292 0.0
C221 C 0.74756 0.87187 0.58007 0.0
O222 O 0.75993 0.90243 0.50836 0.0
O223 O 0.74096 0.86714 0.55714 0.0
C224 C 0.89941 0.04803 0.27584 0.0
O225 O 0.91154 0.03563 0.26241 0.0
Cd226 Cd 0.90271 0.02507 0.21894 0.0
O227 O 0.8809 0.05645 0.26653 0.0
Cd228 Cd 0.85591 0.05932 0.22694 0.0
C229 C 0.84192 0.99559 0.21897 0.0
O230 O 0.8932 0.06341 0.20883 0.0
O231 O 0.86359 0.07176 0.18474 0.0
O232 O 0.8517 0.09535 0.25395 0.0
C233 C 0.88575 0.06873 0.18782 0.0
O234 O 0.86464 0.99537 0.21746 0.0
C235 C 0.83114 0.09828 0.24357 0.0
O236 O 0.83369 0.01589 0.22194 0.0
O237 O 0.82175 0.08302 0.22507 0.0
C238 C 0.344 0.63191 0.51103 0.0
O239 O 0.33089 0.62182 0.52648 0.0
Cd240 Cd 0.29244 0.63065 0.53596 0.0
O241 O 0.33724 0.64936 0.4994 0.0
Cd242 Cd 0.29952 0.67047 0.49701 0.0
C243 C 0.30386 0.69258 0.55768 0.0
O244 O 0.27166 0.6312 0.49599 0.0
O245 O 0.25472 0.66351 0.49995 0.0
O246 O 0.30253 0.67041 0.45291 0.0
C247 C 0.25218 0.64013 0.49651 0.0
O248 O 0.29825 0.66995 0.56163 0.0
C249 C 0.2986 0.69225 0.45075 0.0
O250 O 0.30688 0.69851 0.53597 0.0
O251 O 0.29626 0.705 0.47054 0.0
C252 C 0.39636 0.5416 0.76996 0.0
O253 O 0.40661 0.5277 0.75597 0.0
Cd254 Cd 0.39617 0.51815 0.71226 0.0
O255 O 0.37891 0.55192 0.76131 0.0
Cd256 Cd 0.354 0.5563 0.7225 0.0
C257 C 0.33512 0.49256 0.71398 0.0
O258 O 0.39046 0.55806 0.70248 0.0
O259 O 0.36034 0.5667 0.67933 0.0
O260 O 0.35252 0.59474 0.74749 0.0
C261 C 0.38237 0.56311 0.68156 0.0
O262 O 0.3568 0.49005 0.70977 0.0
C263 C 0.33064 0.59631 0.73969 0.0
O264 O 0.32982 0.51397 0.71937 0.0
O265 O 0.31949 0.57943 0.7233 0.0
C266 C 0.57336 0.99203 0.81793 0.0
O267 O 0.55743 0.99785 0.80234 0.0
Cd268 Cd 0.55994 1.00008 0.75922 0.0
O269 O 0.59275 0.985 0.81106 0.0
Cd270 Cd 0.61046 0.97575 0.77064 0.0
C271 C 0.61806 0.03631 0.76033 0.0
O272 O 0.57133 0.96263 0.74484 0.0
O273 O 0.60265 0.96955 0.72484 0.0
O274 O 0.62098 0.93748 0.78585 0.0
C275 C 0.57955 0.96366 0.72408 0.0
O276 O 0.59481 0.03238 0.75504 0.0
C277 C 0.64265 0.94024 0.77959 0.0
O278 O 0.62909 0.01968 0.76888 0.0
O279 O 0.64975 0.95976 0.76942 0.0
C280 C 0.78264 0.59333 0.01094 0.0
O281 O 0.76115 0.58124 0.01134 0.0
Cd282 Cd 0.72254 0.59298 0.99939 0.0
O283 O 0.78595 0.61462 0.00284 0.0
Cd284 Cd 0.7585 0.64245 0.98696 0.0
C285 C 0.73173 0.64511 0.03983 0.0
O286 O 0.72595 0.61286 0.96276 0.0
O287 O 0.71698 0.64836 0.97358 0.0
O288 O 0.78185 0.6603 0.95494 0.0
C289 C 0.71019 0.62705 0.96203 0.0
O290 O 0.71821 0.62433 0.03215 0.0
C291 C 0.78289 0.68257 0.96401 0.0
O292 O 0.74926 0.65435 0.02815 0.0
O293 O 0.77445 0.6857 0.98459 0.0
C294 C 0.93765 0.56227 0.80165 0.0
O295 O 0.94811 0.54796 0.78848 0.0
Cd296 Cd 0.93616 0.53743 0.74508 0.0
O297 O 0.92047 0.57228 0.79179 0.0
Cd298 Cd 0.89802 0.57192 0.7496 0.0
C299 C 0.87736 0.50972 0.7475 0.0
O300 O 0.93323 0.5753 0.72616 0.0
O301 O 0.89837 0.56364 0.70401 0.0
O302 O 0.89151 0.61587 0.75504 0.0
C303 C 0.92135 0.57098 0.70492 0.0
O304 O 0.89842 0.5062 0.74214 0.0
C305 C 0.86838 0.60993 0.75475 0.0
O306 O 0.87323 0.53159 0.75218 0.0
O307 O 0.85947 0.58699 0.75138 0.0
C308 C 0.76294 0.44869 0.52614 0.0
O309 O 0.74505 0.45553 0.51401 0.0
Cd310 Cd 0.70337 0.43679 0.50816 0.0
O311 O 0.75969 0.4289 0.53713 0.0
Cd312 Cd 0.7225 0.39619 0.54101 0.0
C313 C 0.71168 0.38212 0.47765 0.0
O314 O 0.69701 0.42739 0.54875 0.0
O315 O 0.67624 0.39077 0.54212 0.0
O316 O 0.73698 0.38859 0.584 0.0
C317 C 0.67641 0.41364 0.54807 0.0
O318 O 0.702 0.40156 0.4775 0.0
C319 C 0.73641 0.3655 0.57908 0.0
O320 O 0.72194 0.37638 0.49771 0.0
O321 O 0.72963 0.35686 0.55681 0.0
C322 C 0.60976 0.50546 0.32007 0.0
O323 O 0.59898 0.51791 0.30535 0.0
Cd324 Cd 0.60763 0.52517 0.26474 0.0
O325 O 0.62851 0.49642 0.31437 0.0
Cd326 Cd 0.65335 0.49883 0.27801 0.0
C327 C 0.66323 0.56239 0.27967 0.0
O328 O 0.61719 0.48655 0.24953 0.0
O329 O 0.64926 0.49793 0.2316 0.0
O330 O 0.66474 0.45781 0.28246 0.0
C331 C 0.62666 0.48843 0.22957 0.0
O332 O 0.64143 0.56006 0.26922 0.0
C333 C 0.6877 0.46532 0.28342 0.0
O334 O 0.67163 0.54356 0.28666 0.0
O335 O 0.69469 0.48841 0.28266 0.0
Tb336 Tb 0.02081 0.05676 0.0118 0.0
C337 C 0.02992 0.0133 0.9754 0.0
Tb338 Tb 0.00422 0.00255 0.02392 0.0
O339 O 0.05974 0.05398 0.01719 0.0
O340 O 0.03427 0.03149 0.03482 0.0
O341 O 0.02573 0.03639 0.97767 0.0
C342 C 0.002 0.95643 0.03685 0.0
O343 O 0.0253 0.99769 0.99237 0.0
C344 C 0.96898 0.02479 0.0055 0.0
C345 C 0.99406 0.04662 0.05965 0.0
O346 O 0.99263 0.9623 0.01595 0.0
O347 O 0.01256 0.97653 0.05042 0.0
O348 O 0.96534 0.00635 0.01892 0.0
O349 O 0.99099 0.02758 0.00081 0.0
O350 O 0.9976 0.02319 0.05778 0.0
O351 O -0.00041 0.06193 0.04268 0.0
C352 C 0.02322 0.10256 0.99799 0.0
O353 O 0.03237 0.09711 0.01916 0.0
O354 O 0.01275 0.08228 0.98477 0.0
C355 C 0.05619 0.03492 0.02976 0.0
Tb356 Tb 0.26695 0.79801 0.26114 0.0
C357 C 0.30824 0.76666 0.2527 0.0
Tb358 Tb 0.25329 0.74214 0.2477 0.0
O359 O 0.26024 0.79378 0.3002 0.0
O360 O 0.27047 0.76589 0.27831 0.0
O361 O 0.30028 0.78746 0.24803 0.0
C362 C 0.23536 0.69489 0.25256 0.0
O363 O 0.29294 0.74693 0.25775 0.0
C364 C 0.25857 0.76739 0.2092 0.0
C365 C 0.21094 0.77501 0.25388 0.0
O366 O 0.25144 0.70228 0.23773 0.0
O367 O 0.22952 0.71402 0.26456 0.0
O368 O 0.26126 0.74434 0.20972 0.0
O369 O 0.25039 0.77415 0.229 0.0
O370 O 0.217 0.75268 0.25003 0.0
O371 O 0.22739 0.79571 0.25815 0.0
C372 C 0.28398 0.84639 0.26078 0.0
O373 O 0.26383 0.83436 0.24861 0.0
O374 O 0.29441 0.83126 0.27337 0.0
C375 C 0.2632 0.77072 0.29876 0.0
Tb376 Tb 0.52827 0.03001 0.52028 0.0
C377 C 0.50756 0.00896 0.56717 0.0
Tb378 Tb 0.47434 0.02767 0.52468 0.0
O379 O 0.53761 0.06221 0.54825 0.0
O380 O 0.50474 0.0561 0.52547 0.0
O381 O 0.52439 0.00834 0.55158 0.0
C382 C 0.43093 0.03781 0.53477 0.0
O383 O 0.48678 0.01729 0.56127 0.0
C384 C 0.4847 0.98804 0.50051 0.0
C385 C 0.49553 0.04762 0.47705 0.0
O386 O 0.45137 0.04527 0.54885 0.0
O387 O 0.43495 0.02425 0.51562 0.0
O388 O 0.46349 0.99496 0.49829 0.0
O389 O 0.4976 0.001 0.51866 0.0
O390 O 0.47783 0.0476 0.49178 0.0
O391 O 0.5165 0.04027 0.4839 0.0
C392 C 0.57155 0.02064 0.5085 0.0
O393 O 0.56801 0.03353 0.52835 0.0
O394 O 0.55075 0.01371 0.49501 0.0
C395 C 0.51654 0.06912 0.54397 0.0
Tb396 Tb 0.24744 0.28778 0.77962 0.0
C397 C 0.2544 0.32657 0.74021 0.0
Tb398 Tb 0.23657 0.27087 0.72359 0.0
O399 O 0.28738 0.29816 0.77787 0.0
O400 O 0.26565 0.27252 0.75161 0.0
O401 O 0.24744 0.32211 0.76213 0.0
C402 C 0.2326 0.25109 0.67712 0.0
O403 O 0.2558 0.3086 0.72308 0.0
C404 C 0.20089 0.28668 0.74552 0.0
C405 C 0.23535 0.23068 0.76261 0.0
O406 O 0.24857 0.27023 0.68669 0.0
O407 O 0.21899 0.24292 0.69374 0.0
O408 O 0.20354 0.2885 0.72246 0.0
O409 O 0.21642 0.27468 0.75404 0.0
O410 O 0.23822 0.23573 0.7395 0.0
O411 O 0.23587 0.24803 0.78127 0.0
C412 C 0.23712 0.30789 0.82218 0.0
O413 O 0.25223 0.29211 0.82027 0.0
O414 O 0.22808 0.3117 0.80046 0.0
C415 C 0.2867 0.28532 0.75664 0.0
Tb416 Tb 0.9809 0.02644 0.48823 0.0
C417 C 0.95569 0.01971 0.53638 0.0
Tb418 Tb 0.01086 0.01202 0.53274 0.0
O419 O 0.95751 0.98988 0.48458 0.0
O420 O 0.99424 0.99419 0.49829 0.0
O421 O 0.9558 0.03095 0.51578 0.0
C422 C 0.03009 0.98956 0.56927 0.0
O423 O 0.97413 0.00912 0.54511 0.0
C424 C 0.01643 0.05993 0.52952 0.0
C425 C 0.03618 0.02306 0.48631 0.0
O426 O 0.00732 0.98468 0.55983 0.0
O427 O 0.0419 0.00679 0.55798 0.0
O428 O 0.03198 0.04961 0.54232 0.0
O429 O 0.99749 0.04411 0.52283 0.0
O430 O 0.0338 0.00713 0.50322 0.0
O431 O 0.01897 0.03632 0.48073 0.0
C432 C 0.96378 0.04319 0.44694 0.0
O433 O 0.96007 0.05127 0.46901 0.0
O434 O 0.97689 0.02585 0.44829 0.0
C435 C 0.97447 0.97895 0.49428 0.0
Tb436 Tb 0.28966 0.78605 0.77274 0.0
C437 C 0.25099 0.79456 0.80962 0.0
Tb438 Tb 0.23608 0.78139 0.75144 0.0
O439 O 0.29199 0.82664 0.77927 0.0
O440 O 0.26898 0.80596 0.75019 0.0
O441 O 0.27277 0.7881 0.80717 0.0
C442 C 0.19386 0.79474 0.73593 0.0
O443 O 0.23462 0.79496 0.79031 0.0
C444 C 0.24912 0.73961 0.76259 0.0
C445 C 0.27518 0.77336 0.71496 0.0
O446 O 0.20929 0.80613 0.75406 0.0
O447 O 0.20173 0.77522 0.72709 0.0
O448 O 0.23081 0.74067 0.74635 0.0
O449 O 0.25664 0.76089 0.77359 0.0
O450 O 0.25429 0.78159 0.71764 0.0
O451 O 0.29085 0.77131 0.73425 0.0
C452 C 0.33407 0.7768 0.78692 0.0
O453 O 0.3146 0.76029 0.78044 0.0
O454 O 0.32866 0.79874 0.78545 0.0
C455 C 0.27512 0.82723 0.76133 0.0
Tb456 Tb 0.48599 0.01626 0.01792 0.0
C457 C 0.52473 0.9809 0.01904 0.0
Tb458 Tb 0.54095 0.03922 0.02495 0.0
O459 O 0.48789 1.00029 0.98014 0.0
O460 O 0.51266 0.03166 0.99554 0.0
O461 O 0.50183 0.98305 0.02253 0.0
C462 C 0.58841 0.05428 0.02123 0.0
O463 O 0.54186 1.00008 0.01639 0.0
C464 C 0.51895 0.0406 0.0652 0.0
C465 C 0.50262 0.0747 0.02293 0.0
O466 O 0.57956 0.03693 0.03426 0.0
O467 O 0.57057 0.06311 0.01016 0.0
O468 O 0.53921 0.0551 0.06243 0.0
O469 O 0.51444 0.02376 0.04749 0.0
O470 O 0.5253 0.07202 0.01919 0.0
O471 O 0.48483 0.05582 0.02489 0.0
C472 C 0.43987 0.99975 0.02614 0.0
O473 O 0.44632 0.01088 0.0071 0.0
O474 O 0.45934 0.99808 0.04046 0.0
C475 C 0.50798 0.01523 0.97745 0.0
Tb476 Tb 0.22672 0.25398 0.27089 0.0
C477 C 0.27339 0.26754 0.30845 0.0
Tb478 Tb 0.27384 0.28221 0.25468 0.0
O479 O 0.24191 0.21975 0.27345 0.0
O480 O 0.25499 0.24533 0.24992 0.0
O481 O 0.24932 0.2667 0.30562 0.0
C482 C 0.31626 0.29477 0.23667 0.0
O483 O 0.28701 0.27058 0.28996 0.0
C484 C 0.24151 0.30984 0.26656 0.0
C485 C 0.22664 0.26762 0.2162 0.0
O486 O 0.30918 0.30717 0.25514 0.0
O487 O 0.29972 0.27566 0.22867 0.0
O488 O 0.25748 0.31544 0.25117 0.0
O489 O 0.24607 0.29098 0.27662 0.0
O490 O 0.2508 0.27438 0.21982 0.0
O491 O 0.21288 0.26018 0.23365 0.0
C492 C 0.1848 0.23897 0.28965 0.0
O493 O 0.20257 0.22663 0.28801 0.0
O494 O 0.19021 0.25957 0.27975 0.0
C495 C 0.25897 0.22604 0.25948 0.0
Tb496 Tb 0.49041 0.5261 0.98011 0.0
C497 C 0.46158 0.49962 0.01926 0.0
Tb498 Tb 0.51851 0.52109 0.03049 0.0
O499 O 0.48349 0.48609 0.97008 0.0
O500 O 0.5141 0.50292 0.99433 0.0
O501 O 0.45996 0.51333 0.0005 0.0
C502 C 0.53771 0.50675 0.0723 0.0
O503 O 0.48289 0.49707 0.03102 0.0
C504 C 0.50605 0.56436 0.02532 0.0
C505 C 0.54747 0.54596 0.99012 0.0
O506 O 0.5162 0.51278 0.06858 0.0
O507 O 0.54863 0.5087 0.05241 0.0
O508 O 0.52461 0.56132 0.04021 0.0
O509 O 0.49434 0.54357 0.01647 0.0
O510 O 0.54913 0.53365 0.00992 0.0
O511 O 0.52637 0.54789 0.97767 0.0
C512 C 0.46987 0.54036 0.93903 0.0
O513 O 0.466 0.54789 0.96122 0.0
O514 O 0.48523 0.52504 0.94012 0.0
C515 C 0.50184 0.48238 0.98492 0.0
Tb516 Tb 0.78793 0.28331 0.29114 0.0
C517 C 0.74649 0.30034 0.3204 0.0
Tb518 Tb 0.7377 0.28303 0.26253 0.0
O519 O 0.7954 0.32353 0.29965 0.0
O520 O 0.77188 0.30719 0.26855 0.0
O521 O 0.76738 0.29144 0.32235 0.0
C522 C 0.69695 0.29496 0.24154 0.0
O523 O 0.73379 0.30102 0.29874 0.0
C524 C 0.74661 0.23937 0.27261 0.0
C525 C 0.77955 0.2686 0.2326 0.0
O526 O 0.69858 0.28415 0.26167 0.0
O527 O 0.71813 0.29888 0.23308 0.0
O528 O 0.73134 0.24262 0.25425 0.0
O529 O 0.75347 0.25974 0.2856 0.0
O530 O 0.75829 0.27666 0.23143 0.0
O531 O 0.79308 0.26777 0.25385 0.0
C532 C 0.82759 0.27024 0.31363 0.0
O533 O 0.80516 0.26134 0.31686 0.0
O534 O 0.82773 0.28651 0.29773 0.0
C535 C 0.77957 0.32729 0.28199 0.0
Tb536 Tb 0.98427 0.52811 0.51815 0.0
C537 C 0.01863 0.48856 0.52488 0.0
Tb538 Tb 0.04005 0.5461 0.52681 0.0
O539 O 0.98699 0.51155 0.4808 0.0
O540 O 0.01258 0.54201 0.49673 0.0
O541 O 0.99574 0.49282 0.52331 0.0
C542 C 0.08745 0.55687 0.52026 0.0
O543 O 0.0383 0.50614 0.52607 0.0
C544 C 0.01788 0.54989 0.56673 0.0
C545 C 0.0058 0.58502 0.52238 0.0
O546 O 0.07582 0.57031 0.5339 0.0
O547 O 0.07252 0.53705 0.51058 0.0
O548 O 0.0396 0.56189 0.56451 0.0
O549 O 0.0117 0.53356 0.54861 0.0
O550 O 0.02703 0.57944 0.5166 0.0
O551 O 0.98733 0.56797 0.52677 0.0
C552 C 0.93614 0.51884 0.52144 0.0
O553 O 0.94679 0.53225 0.50575 0.0
O554 O 0.95256 0.51051 0.53527 0.0
C555 C 0.00767 0.52571 0.47858 0.0
Tb556 Tb 0.76085 0.79381 0.29011 0.0
C557 C 0.76289 0.82855 0.24603 0.0
Tb558 Tb 0.73928 0.77197 0.23743 0.0
O559 O 0.7987 0.79796 0.28173 0.0
O560 O 0.77175 0.77124 0.26106 0.0
O561 O 0.76761 0.82645 0.26989 0.0
C562 C 0.72962 0.75183 0.19093 0.0
O563 O 0.75187 0.80993 0.2298 0.0
C564 C 0.70724 0.78224 0.26713 0.0
C565 C 0.73873 0.73671 0.27958 0.0
O566 O 0.75123 0.76217 0.20139 0.0
O567 O 0.71363 0.75327 0.20648 0.0
O568 O 0.70175 0.76625 0.24789 0.0
O569 O 0.72873 0.79377 0.26677 0.0
O570 O 0.74086 0.73873 0.25584 0.0
O571 O 0.74341 0.7562 0.29659 0.0
C572 C 0.76405 0.82118 0.33302 0.0
O573 O 0.77304 0.80078 0.33004 0.0
O574 O 0.75293 0.82526 0.31236 0.0
C575 C 0.79368 0.78242 0.26198 0.0
Tb576 Tb 0.76265 0.3015 0.77206 0.0
C577 C 0.79976 0.26399 0.77268 0.0
Tb578 Tb 0.74404 0.24579 0.75935 0.0
O579 O 0.77635 0.29738 0.81018 0.0
O580 O 0.74777 0.27142 0.79132 0.0
O581 O 0.79582 0.28604 0.76668 0.0
C582 C 0.71926 0.19926 0.75214 0.0
O583 O 0.78154 0.24546 0.77408 0.0
C584 C 0.75917 0.27103 0.72258 0.0
C585 C 0.70574 0.28236 0.76365 0.0
O586 O 0.71661 0.21686 0.73831 0.0
O587 O 0.73623 0.20772 0.77021 0.0
O588 O 0.76106 0.24805 0.72456 0.0
O589 O 0.74792 0.27796 0.73997 0.0
O590 O 0.70989 0.25936 0.76487 0.0
O591 O 0.72352 0.3018 0.764 0.0
C592 C 0.77866 0.34899 0.76715 0.0
O593 O 0.7633 0.34098 0.78251 0.0
O594 O 0.78491 0.3303 0.75474 0.0
C595 C 0.7627 0.27587 0.81069 0.0
Tb596 Tb 0.73274 0.76755 0.77576 0.0
C597 C 0.77071 0.77321 0.82312 0.0
Tb598 Tb 0.78619 0.78795 0.77152 0.0
O599 O 0.74087 0.73181 0.78362 0.0
O600 O 0.76268 0.7533 0.7612 0.0
O601 O 0.74722 0.77174 0.81471 0.0
C602 C 0.83413 0.79297 0.76735 0.0
O603 O 0.78895 0.77793 0.80925 0.0
C604 C 0.75788 0.82141 0.77973 0.0
C605 C 0.74954 0.78074 0.72441 0.0
O606 O 0.82169 0.77619 0.77871 0.0
O607 O 0.81969 0.80732 0.75892 0.0
O608 O 0.77745 0.82567 0.76846 0.0
O609 O 0.75702 0.80068 0.7878 0.0
O610 O 0.77216 0.77922 0.73316 0.0
O611 O 0.73119 0.77902 0.73837 0.0
C612 C 0.68459 0.76058 0.77895 0.0
O613 O 0.69646 0.74396 0.77026 0.0
O614 O 0.69983 0.78109 0.78543 0.0
C615 C 0.76063 0.73393 0.77251 0.0
Tb616 Tb 0.52558 0.55129 0.51081 0.0
C617 C 0.52322 0.50838 0.46756 0.0
Tb618 Tb 0.49585 0.49872 0.51483 0.0
O619 O 0.55819 0.54351 0.53389 0.0
O620 O 0.53261 0.51551 0.51511 0.0
O621 O 0.52577 0.5326 0.474 0.0
C622 C 0.48475 0.45501 0.53249 0.0
O623 O 0.51516 0.49152 0.48245 0.0
C624 C 0.47099 0.52941 0.49277 0.0
C625 C 0.49474 0.54277 0.55637 0.0
O626 O 0.47766 0.45974 0.5103 0.0
O627 O 0.49786 0.47482 0.54453 0.0
O628 O 0.46401 0.5054 0.49075 0.0
O629 O 0.48855 0.53428 0.5095 0.0
O630 O 0.4922 0.51838 0.55074 0.0
O631 O 0.50481 0.55893 0.5418 0.0
C632 C 0.5358 0.59571 0.49402 0.0
O633 O 0.54204 0.59085 0.51638 0.0
O634 O 0.52461 0.57549 0.48121 0.0
C635 C 0.5508 0.51955 0.53101 0.0
Tb636 Tb 0.03021 0.53088 0.01231 0.0
C637 C 0.01893 0.51211 0.06364 0.0
Tb638 Tb 0.97874 0.53072 0.02829 0.0
O639 O 0.04544 0.55988 0.04205 0.0
O640 O 0.00976 0.55761 0.02522 0.0
O641 O 0.03212 0.51064 0.0447 0.0
C642 C 0.93923 0.5421 0.04745 0.0
O643 O -0.00132 0.52221 0.0625 0.0
C644 C 0.98434 0.49224 0.99916 0.0
C645 C 0.98925 0.54689 0.97562 0.0
O646 O 0.94373 0.51981 0.04304 0.0
O647 O 0.95725 0.55791 0.04153 0.0
O648 O 0.96331 0.49936 0.00057 0.0
O649 O -0.00053 0.50431 0.01599 0.0
O650 O 0.97486 0.54746 0.99368 0.0
O651 O 0.0109 0.5395 0.97822 0.0
C652 C 0.06994 0.5188 0.99412 0.0
O653 O 0.06789 0.54081 0.00338 0.0
O654 O 0.04923 0.504 0.99433 0.0
C655 C 0.0252 0.56874 0.04245 0.0
H656 H 0.00991 0.20166 0.90098 0.0
H657 H 0.04708 0.25835 0.95819 0.0
H658 H 0.0492 0.22654 0.98717 0.0
H659 H 0.97354 0.16488 0.94097 0.0
H660 H 0.97618 0.13569 0.92479 0.0
H661 H 0.9772 0.16297 0.90852 0.0
H662 H 0.01912 0.15673 0.89417 0.0
H663 H 0.01822 0.12943 0.91037 0.0
H664 H 0.04412 0.15437 0.91682 0.0
H665 H 0.04821 0.18846 0.00981 0.0
H666 H 0.04392 0.14662 0.02433 0.0
H667 H 0.00702 0.11482 0.95276 0.0
C668 C 0.01843 0.20739 0.91961 0.0
C669 C 0.02834 0.23253 0.92728 0.0
C670 C 0.03935 0.23923 0.95185 0.0
C671 C 0.04064 0.22129 0.96849 0.0
C672 C 0.03076 0.19669 0.96035 0.0
C673 C 0.01982 0.1897 0.93652 0.0
C674 C 0.01083 0.16195 0.93243 0.0
C675 C 0.98277 0.15604 0.92632 0.0
C676 C 0.02386 0.14992 0.91225 0.0
C677 C 0.01861 0.15445 0.9576 0.0
C678 C 0.03004 0.17477 0.97346 0.0
C679 C 0.0392 0.17242 0.99759 0.0
C680 C 0.0367 0.14863 0.00568 0.0
C681 C 0.02513 0.1276 0.98968 0.0
C682 C 0.01588 0.13063 0.96541 0.0
H683 H 0.07929 0.75029 0.17693 0.0
H684 H 0.06006 0.81 0.22393 0.0
H685 H 0.10064 0.81514 0.24854 0.0
H686 H 0.11128 0.72362 0.22589 0.0
H687 H 0.13411 0.71516 0.20702 0.0
H688 H 0.10375 0.71648 0.19305 0.0
H689 H 0.12225 0.74734 0.16354 0.0
H690 H 0.15264 0.74596 0.17729 0.0
H691 H 0.14262 0.77545 0.17623 0.0
H692 H 0.14468 0.81543 0.26608 0.0
H693 H 0.18746 0.80918 0.2766 0.0
H694 H 0.17601 0.7469 0.22033 0.0
C695 C 0.08365 0.76451 0.19236 0.0
C696 C 0.06667 0.77994 0.19843 0.0
C697 C 0.07287 0.79805 0.21897 0.0
C698 C 0.09584 0.80108 0.23302 0.0
C699 C 0.11217 0.78551 0.22656 0.0
C700 C 0.10623 0.7674 0.20686 0.0
C701 C 0.12681 0.75281 0.20394 0.0
C702 C 0.11848 0.72539 0.20771 0.0
C703 C 0.13666 0.75557 0.17876 0.0
C704 C 0.14546 0.76576 0.22483 0.0
C705 C 0.13679 0.7847 0.23757 0.0
C706 C 0.15148 0.80037 0.25651 0.0
C707 C 0.17571 0.7967 0.26238 0.0
C708 C 0.18479 0.77725 0.24965 0.0
C709 C 0.1693 0.76145 0.23088 0.0
H710 H 0.54119 0.88979 0.41863 0.0
H711 H 0.47687 0.83598 0.42768 0.0
H712 H 0.46349 0.86642 0.45684 0.0
H713 H 0.55027 0.91537 0.48387 0.0
H714 H 0.56029 0.94686 0.47787 0.0
H715 H 0.56689 0.92174 0.45767 0.0
H716 H 0.54545 0.93651 0.41939 0.0
H717 H 0.54021 0.96304 0.43834 0.0
H718 H 0.51476 0.94311 0.41999 0.0
H719 H 0.45455 0.90399 0.4808 0.0
H720 H 0.45214 0.94555 0.50035 0.0
H721 H 0.5234 0.97428 0.47836 0.0
C722 C 0.52441 0.88438 0.42694 0.0
C723 C 0.50998 0.86058 0.42081 0.0
C724 C 0.48826 0.85408 0.4322 0.0
C725 C 0.48049 0.87124 0.44877 0.0
C726 C 0.49495 0.89464 0.45422 0.0
C727 C 0.51666 0.90112 0.44398 0.0
C728 C 0.5287 0.92754 0.453 0.0
C729 C 0.553 0.92788 0.46902 0.0
C730 C 0.53248 0.94348 0.43139 0.0
C731 C 0.50956 0.93541 0.46851 0.0
C732 C 0.49039 0.91601 0.46921 0.0
C733 C 0.4697 0.91917 0.48084 0.0
C734 C 0.46845 0.94281 0.49182 0.0
C735 C 0.48785 0.96293 0.49129 0.0
C736 C 0.50877 0.95908 0.47978 0.0
H737 H 0.42791 0.28094 0.7409 0.0
H738 H 0.4039 0.24933 0.6657 0.0
H739 H 0.36092 0.25224 0.6723 0.0
H740 H 0.37618 0.25318 0.76937 0.0
H741 H 0.3751 0.28037 0.78975 0.0
H742 H 0.40384 0.27524 0.77937 0.0
H743 H 0.40967 0.31826 0.76246 0.0
H744 H 0.38092 0.32351 0.7728 0.0
H745 H 0.38599 0.32562 0.74093 0.0
H746 H 0.32064 0.25503 0.68826 0.0
H747 H 0.28572 0.26242 0.71076 0.0
H748 H 0.3358 0.29779 0.77376 0.0
C749 C 0.4135 0.27461 0.72592 0.0
C750 C 0.41894 0.26461 0.70288 0.0
C751 C 0.3999 0.25693 0.68347 0.0
C752 C 0.37552 0.25849 0.68708 0.0
C753 C 0.37068 0.2684 0.71001 0.0
C754 C 0.38914 0.2768 0.72897 0.0
C755 C 0.37897 0.28764 0.75143 0.0
C756 C 0.38381 0.27324 0.7738 0.0
C757 C 0.38952 0.31541 0.75724 0.0
C758 C 0.35186 0.28351 0.7423 0.0
C759 C 0.34752 0.2721 0.71846 0.0
C760 C 0.32385 0.26461 0.70665 0.0
C761 C 0.3041 0.26905 0.71948 0.0
C762 C 0.30805 0.28149 0.74354 0.0
C763 C 0.33229 0.28886 0.75509 0.0
H764 H 0.01064 0.86603 0.56257 0.0
H765 H 0.93801 0.8557 0.58714 0.0
H766 H 0.92681 0.88778 0.56097 0.0
H767 H 0.01786 0.93031 0.5665 0.0
H768 H 0.03493 0.93449 0.54026 0.0
H769 H 0.03651 0.90805 0.55732 0.0
H770 H 0.02207 0.87789 0.51813 0.0
H771 H 0.02108 0.90393 0.50032 0.0
H772 H 0.99422 0.88033 0.49952 0.0
H773 H 0.9238 0.92029 0.5317 0.0
H774 H 0.93088 0.95683 0.50792 0.0
H775 H 0.00721 0.94909 0.50689 0.0
C776 C 0.99222 0.87022 0.56201 0.0
C777 C 0.97493 0.85822 0.57634 0.0
C778 C 0.95132 0.86466 0.57601 0.0
C779 C 0.94482 0.88267 0.56112 0.0
C780 C 0.96235 0.89424 0.54719 0.0
C781 C 0.98571 0.88858 0.54787 0.0
C782 C 0.00204 0.90564 0.53352 0.0
C783 C 0.02416 0.92052 0.55039 0.0
C784 C 0.01033 0.89107 0.51157 0.0
C785 C 0.9843 0.92207 0.52492 0.0
C786 C 0.96132 0.91467 0.53234 0.0
C787 C 0.94173 0.9266 0.52607 0.0
C788 C 0.94591 0.94713 0.51248 0.0
C789 C 0.96963 0.95575 0.5059 0.0
C790 C 0.98895 0.94288 0.51191 0.0
H791 H 0.47113 0.80872 0.85201 0.0
H792 H 0.46212 0.73185 0.86775 0.0
H793 H 0.42203 0.72306 0.84241 0.0
H794 H 0.40976 0.81477 0.85796 0.0
H795 H 0.40733 0.83497 0.83385 0.0
H796 H 0.43673 0.83467 0.85053 0.0
H797 H 0.45449 0.82483 0.80941 0.0
H798 H 0.42507 0.82505 0.79259 0.0
H799 H 0.43968 0.79825 0.78874 0.0
H800 H 0.38267 0.72276 0.8173 0.0
H801 H 0.34414 0.73183 0.79688 0.0
H802 H 0.3771 0.80943 0.79941 0.0
C803 C 0.46082 0.79 0.84971 0.0
C804 C 0.46962 0.77089 0.86157 0.0
C805 C 0.45554 0.74671 0.85876 0.0
C806 C 0.4329 0.7415 0.84429 0.0
C807 C 0.42454 0.76076 0.83301 0.0
C808 C 0.43788 0.78458 0.83572 0.0
C809 C 0.42352 0.80233 0.8236 0.0
C810 C 0.41907 0.82289 0.84263 0.0
C811 C 0.43647 0.81325 0.80232 0.0
C812 C 0.39992 0.7848 0.81411 0.0
C813 C 0.40115 0.76082 0.8193 0.0
C814 C 0.38147 0.74141 0.81299 0.0
C815 C 0.35971 0.74674 0.80143 0.0
C816 C 0.35781 0.7713 0.79671 0.0
C817 C 0.37822 0.79049 0.8028 0.0
H818 H 0.53234 0.20659 0.09875 0.0
H819 H 0.46371 0.2226 0.06506 0.0
H820 H 0.45631 0.18191 0.03987 0.0
H821 H 0.54938 0.17621 0.0428 0.0
H822 H 0.56335 0.15412 0.05925 0.0
H823 H 0.56302 0.1845 0.07419 0.0
H824 H 0.54164 0.16457 0.10969 0.0
H825 H 0.54189 0.13418 0.09485 0.0
H826 H 0.51335 0.14273 0.10251 0.0
H827 H 0.45477 0.13719 0.02194 0.0
H828 H 0.46177 0.09467 0.0091 0.0
H829 H 0.53333 0.11101 0.05154 0.0
C830 C 0.51583 0.20155 0.08596 0.0
C831 C 0.49847 0.21745 0.08387 0.0
C832 C 0.47721 0.21053 0.06679 0.0
C833 C 0.47284 0.1875 0.05251 0.0
C834 C 0.49026 0.17205 0.0552 0.0
C835 C 0.51155 0.17905 0.07117 0.0
C836 C 0.52759 0.15941 0.07049 0.0
C837 C 0.55229 0.16915 0.06111 0.0
C838 C 0.53132 0.14965 0.09589 0.0
C839 C 0.51183 0.14003 0.05199 0.0
C840 C 0.4902 0.14739 0.04355 0.0
C841 C 0.4719 0.13146 0.02795 0.0
C842 C 0.47595 0.10743 0.0208 0.0
C843 C 0.49831 0.10003 0.02885 0.0
C844 C 0.51642 0.11659 0.04447 0.0
H845 H 0.08709 0.27801 0.37498 0.0
H846 H 0.10853 0.2255 0.42411 0.0
H847 H 0.13563 0.21189 0.39412 0.0
H848 H 0.08653 0.24186 0.31795 0.0
H849 H 0.0998 0.26743 0.30208 0.0
H850 H 0.08182 0.27285 0.3271 0.0
H851 H 0.11809 0.3049 0.35001 0.0
H852 H 0.13586 0.30004 0.32474 0.0
H853 H 0.14779 0.29605 0.35563 0.0
H854 H 0.15819 0.20257 0.35786 0.0
H855 H 0.18181 0.20392 0.32187 0.0
H856 H 0.14786 0.26482 0.2979 0.0
C857 C 0.09771 0.26381 0.37946 0.0
C858 C 0.09584 0.25264 0.40163 0.0
C859 C 0.11 0.2343 0.40719 0.0
C860 C 0.12515 0.22631 0.39019 0.0
C861 C 0.12609 0.23724 0.36811 0.0
C862 C 0.1133 0.25608 0.36303 0.0
C863 C 0.11867 0.26583 0.33868 0.0
C864 C 0.09531 0.26173 0.32038 0.0
C865 C 0.13083 0.29333 0.3425 0.0
C866 C 0.13642 0.24942 0.33077 0.0
C867 C 0.14003 0.23271 0.34776 0.0
C868 C 0.15564 0.21564 0.34451 0.0
C869 C 0.1688 0.21643 0.32392 0.0
C870 C 0.16655 0.23447 0.30721 0.0
C871 C 0.1497 0.25071 0.31032 0.0
H872 H 0.91224 0.03424 0.17207 0.0
H873 H 0.89502 0.10644 0.15896 0.0
H874 H 0.92432 0.11017 0.12734 0.0
H875 H 0.97636 0.04541 0.16258 0.0
H876 H 0.9754 0.01543 0.14609 0.0
H877 H 0.95456 0.01916 0.16892 0.0
H878 H 0.91744 0.00126 0.13653 0.0
H879 H 0.93821 0.99716 0.11377 0.0
H880 H 0.91421 0.015 0.10787 0.0
H881 H 0.95665 0.10662 0.09885 0.0
H882 H 0.98251 0.09281 0.06828 0.0
H883 H 0.97603 0.02101 0.0973 0.0
C884 C 0.91481 0.05085 0.16257 0.0
C885 C 0.90181 0.07026 0.16797 0.0
C886 C 0.905 0.0915 0.15495 0.0
C887 C 0.9217 0.09383 0.1372 0.0
C888 C 0.93457 0.0745 0.1325 0.0
C889 C 0.93081 0.05312 0.14429 0.0
C890 C 0.94513 0.03412 0.13409 0.0
C891 C 0.96398 0.02819 0.15412 0.0
C892 C 0.92771 0.01049 0.12236 0.0
C893 C 0.95764 0.04818 0.11477 0.0
C894 C 0.95177 0.07165 0.11464 0.0
C895 C 0.96119 0.0882 0.09859 0.0
C896 C 0.97593 0.08013 0.08129 0.0
C897 C 0.98122 0.05569 0.08019 0.0
C898 C 0.97234 0.03976 0.09758 0.0
H899 H 0.28644 0.73721 0.43876 0.0
H900 H 0.30264 0.66754 0.40667 0.0
H901 H 0.29386 0.68003 0.36516 0.0
H902 H 0.23659 0.74165 0.39353 0.0
H903 H 0.24453 0.77468 0.39259 0.0
H904 H 0.2525 0.76094 0.42032 0.0
H905 H 0.29816 0.78062 0.42006 0.0
H906 H 0.29027 0.79466 0.39248 0.0
H907 H 0.31335 0.77514 0.39293 0.0
H908 H 0.28242 0.69854 0.32752 0.0
H909 H 0.27204 0.72394 0.29471 0.0
H910 H 0.26329 0.78283 0.34937 0.0
C911 C 0.28836 0.72473 0.42298 0.0
C912 C 0.29524 0.70133 0.42605 0.0
C913 C 0.29743 0.68551 0.4049 0.0
C914 C 0.2924 0.6924 0.38118 0.0
C915 C 0.28526 0.71525 0.37877 0.0
C916 C 0.28347 0.73138 0.39896 0.0
C917 C 0.27558 0.75498 0.39079 0.0
C918 C 0.25083 0.75824 0.39985 0.0
C919 C 0.29553 0.77769 0.39959 0.0
C920 C 0.27317 0.74942 0.36289 0.0
C921 C 0.27875 0.72628 0.35658 0.0
C922 C 0.27805 0.71671 0.33219 0.0
C923 C 0.27198 0.73131 0.31365 0.0
C924 C 0.26669 0.75535 0.31938 0.0
C925 C 0.26702 0.76445 0.34441 0.0
H926 H 0.59283 0.97092 0.67777 0.0
H927 H 0.52965 0.96174 0.71933 0.0
H928 H 0.50355 0.97041 0.68313 0.0
H929 H 0.57856 0.02126 0.64748 0.0
H930 H 0.58918 0.01166 0.61867 0.0
H931 H 0.60235 0.00259 0.64706 0.0
H932 H 0.59126 0.95639 0.62954 0.0
H933 H 0.57825 0.96545 0.60102 0.0
H934 H 0.55998 0.94358 0.61765 0.0
H935 H 0.48508 0.98407 0.64319 0.0
H936 H 0.47568 0.9989 0.60239 0.0
H937 H 0.55093 0.99817 0.58732 0.0
C938 C 0.57341 0.97024 0.67914 0.0
C939 C 0.5633 0.96557 0.70142 0.0
C940 C 0.53782 0.96512 0.70245 0.0
C941 C 0.52284 0.9701 0.68198 0.0
C942 C 0.53352 0.97527 0.66049 0.0
C943 C 0.5582 0.97507 0.65887 0.0
C944 C 0.56544 0.98214 0.63406 0.0
C945 C 0.58503 0.00582 0.63701 0.0
C946 C 0.57424 0.9606 0.61972 0.0
C947 C 0.54112 0.98673 0.62213 0.0
C948 C 0.52288 0.9827 0.63758 0.0
C949 C 0.49916 0.98696 0.63082 0.0
C950 C 0.49399 0.99545 0.60764 0.0
C951 C 0.51243 0.99949 0.59148 0.0
C952 C 0.53623 0.99495 0.59898 0.0
H953 H 0.24764 0.35579 0.96563 0.0
H954 H 0.20466 0.41085 0.94292 0.0
H955 H 0.19981 0.39167 0.90013 0.0
H956 H 0.2806 0.35508 0.91348 0.0
H957 H 0.28114 0.32227 0.91105 0.0
H958 H 0.27936 0.33853 0.94057 0.0
H959 H 0.23979 0.30799 0.9459 0.0
H960 H 0.24152 0.29156 0.9164 0.0
H961 H 0.21408 0.3035 0.92237 0.0
H962 H 0.20132 0.36893 0.86026 0.0
H963 H 0.20977 0.34385 0.82396 0.0
H964 H 0.2528 0.30327 0.87094 0.0
C965 C 0.23688 0.36349 0.95167 0.0
C966 C 0.22643 0.38473 0.95753 0.0
C967 C 0.21286 0.39464 0.93878 0.0
C968 C 0.2099 0.38381 0.91446 0.0
C969 C 0.2207 0.36316 0.9092 0.0
C970 C 0.23397 0.35305 0.92713 0.0
C971 C 0.245 0.33177 0.91594 0.0
C972 C 0.2732 0.33725 0.92053 0.0
C973 C 0.23446 0.30725 0.92574 0.0
C974 C 0.23618 0.33189 0.8889 0.0
C975 C 0.22197 0.35003 0.88565 0.0
C976 C 0.21225 0.35454 0.86252 0.0
C977 C 0.21725 0.3402 0.84202 0.0
C978 C 0.23186 0.32158 0.84471 0.0
C979 C 0.24142 0.31727 0.86846 0.0
H980 H 0.93565 0.03 0.30206 0.0
H981 H 0.88026 0.07645 0.31039 0.0
H982 H 0.8928 0.08323 0.35533 0.0
H983 H 0.92702 0.99992 0.35547 0.0
H984 H 0.95905 0.99855 0.36273 0.0
H985 H 0.94683 0.9991 0.33122 0.0
H986 H 0.97956 0.03772 0.32732 0.0
H987 H 0.99184 0.03734 0.3589 0.0
H988 H 0.98207 0.06491 0.34883 0.0
H989 H 0.91056 0.08321 0.40002 0.0
H990 H 0.93061 0.07465 0.44012 0.0
H991 H 0.97346 0.02807 0.40128 0.0
C992 C 0.92625 0.04182 0.31321 0.0
C993 C 0.90702 0.05273 0.30267 0.0
C994 C 0.89509 0.06788 0.31805 0.0
C995 C 0.90214 0.07193 0.34358 0.0
C996 C 0.92115 0.06075 0.35335 0.0
C997 C 0.93298 0.04598 0.33857 0.0
C998 C 0.95194 0.03497 0.35352 0.0
C999 C 0.94583 0.00645 0.35056 0.0
C1000 C 0.97789 0.0443 0.34674 0.0
C1001 C 0.94866 0.04545 0.37912 0.0
C1002 C 0.93106 0.06052 0.37876 0.0
C1003 C 0.92447 0.07156 0.40048 0.0
C1004 C 0.93591 0.06664 0.42312 0.0
C1005 C 0.95345 0.05069 0.42363 0.0
C1006 C 0.96012 0.04038 0.40137 0.0
H1007 H 0.31555 0.68902 0.6066 0.0
H1008 H 0.29202 0.73898 0.55568 0.0
H1009 H 0.28521 0.76739 0.59093 0.0
H1010 H 0.27268 0.69419 0.64642 0.0
H1011 H 0.2921 0.69377 0.67448 0.0
H1012 H 0.29889 0.67866 0.64619 0.0
H1013 H 0.34253 0.70459 0.65099 0.0
H1014 H 0.33656 0.7189 0.68012 0.0
H1015 H 0.3466 0.73789 0.6564 0.0
H1016 H 0.27431 0.78637 0.63156 0.0
H1017 H 0.26525 0.79704 0.6742 0.0
H1018 H 0.29869 0.73616 0.69868 0.0
C1019 C 0.30967 0.70631 0.60289 0.0
C1020 C 0.30439 0.71185 0.57842 0.0
C1021 C 0.29646 0.73451 0.57429 0.0
C1022 C 0.29244 0.7507 0.59421 0.0
C1023 C 0.29701 0.74421 0.61813 0.0
C1024 C 0.30606 0.72284 0.62251 0.0
C1025 C 0.30818 0.71929 0.6497 0.0
C1026 C 0.29198 0.69499 0.65441 0.0
C1027 C 0.33507 0.72023 0.6599 0.0
C1028 C 0.29831 0.74161 0.66003 0.0
C1029 C 0.29181 0.75573 0.64151 0.0
C1030 C 0.27995 0.77582 0.64625 0.0
C1031 C 0.27474 0.78166 0.67048 0.0
C1032 C 0.28167 0.76768 0.68974 0.0
C1033 C 0.29382 0.74757 0.68441 0.0
H1034 H 0.52927 0.98526 0.83683 0.0
H1035 H 0.60766 0.00397 0.85855 0.0
H1036 H 0.5997 0.01179 0.90213 0.0
H1037 H 0.51047 0.02962 0.87752 0.0
H1038 H 0.48331 0.00955 0.88423 0.0
H1039 H 0.49526 0.00465 0.8551 0.0
H1040 H 0.49792 0.95929 0.86307 0.0
H1041 H 0.48572 0.96397 0.89213 0.0
H1042 H 0.51459 0.95322 0.89113 0.0
H1043 H 0.58248 0.02112 0.94298 0.0
H1044 H 0.5579 0.02615 0.97795 0.0
H1045 H 0.49112 0.99857 0.92964 0.0
C1046 C 0.54479 0.99077 0.85079 0.0
C1047 C 0.56911 0.99414 0.84433 0.0
C1048 C 0.58891 0.00117 0.86313 0.0
C1049 C 0.58454 0.00577 0.88789 0.0
C1050 C 0.56027 0.00274 0.89355 0.0
C1051 C 0.54077 0.9949 0.87555 0.0
C1052 C 0.51643 0.9927 0.88634 0.0
C1053 C 0.50043 0.01018 0.87513 0.0
C1054 C 0.50287 0.96569 0.88297 0.0
C1055 C 0.52518 0.00106 0.9132 0.0
C1056 C 0.55051 0.007 0.917 0.0
C1057 C 0.56267 0.0163 0.94017 0.0
C1058 C 0.54858 0.01939 0.95991 0.0
C1059 C 0.52269 0.01296 0.95645 0.0
C1060 C 0.51093 0.00352 0.93281 0.0
H1061 H 0.21931 0.36666 0.12509 0.0
H1062 H 0.22357 0.31012 0.06628 0.0
H1063 H 0.2156 0.27781 0.09486 0.0
H1064 H 0.25024 0.3422 0.17158 0.0
H1065 H 0.23176 0.35002 0.19541 0.0
H1066 H 0.23441 0.36823 0.1697 0.0
H1067 H 0.18736 0.36054 0.16031 0.0
H1068 H 0.18375 0.34142 0.18542 0.0
H1069 H 0.17055 0.32926 0.15468 0.0
H1070 H 0.21399 0.25289 0.13142 0.0
H1071 H 0.21931 0.23801 0.1728 0.0
H1072 H 0.21244 0.31007 0.20661 0.0
C1073 C 0.21826 0.34745 0.11814 0.0
C1074 C 0.22216 0.34085 0.09355 0.0
C1075 C 0.22061 0.31553 0.08509 0.0
C1076 C 0.21594 0.29707 0.10114 0.0
C1077 C 0.21231 0.30422 0.12537 0.0
C1078 C 0.2132 0.32882 0.13375 0.0
C1079 C 0.21051 0.33192 0.161 0.0
C1080 C 0.23306 0.3491 0.17524 0.0
C1081 C 0.18662 0.34136 0.16561 0.0
C1082 C 0.20922 0.3054 0.16697 0.0
C1083 C 0.20996 0.28957 0.14615 0.0
C1084 C 0.21248 0.26486 0.14771 0.0
C1085 C 0.21527 0.25647 0.17119 0.0
C1086 C 0.21515 0.27269 0.19253 0.0
C1087 C 0.21125 0.29709 0.19035 0.0
H1088 H 0.12328 0.91634 0.02761 0.0
H1089 H 0.19086 0.96964 0.04631 0.0
H1090 H 0.16717 0.00304 0.05218 0.0
H1091 H 0.09168 0.95512 0.99287 0.0
H1092 H 0.06205 0.94525 0.00321 0.0
H1093 H 0.08398 0.92456 0.00273 0.0
H1094 H 0.08064 0.91982 0.04909 0.0
H1095 H 0.0589 0.94079 0.04955 0.0
H1096 H 0.08639 0.94708 0.0709 0.0
H1097 H 0.13788 0.03148 0.05179 0.0
H1098 H 0.10325 0.05387 0.04537 0.0
H1099 H 0.05321 0.98388 0.02838 0.0
C1100 C 0.13298 0.93498 0.03335 0.0
C1101 C 0.15902 0.94027 0.03647 0.0
C1102 C 0.17101 0.965 0.04367 0.0
C1103 C 0.1577 0.9842 0.04722 0.0
C1104 C 0.13225 0.97858 0.04366 0.0
C1105 C 0.11983 0.95466 0.03699 0.0
C1106 C 0.09226 0.95444 0.03292 0.0
C1107 C 0.08189 0.94425 0.00635 0.0
C1108 C 0.07876 0.93965 0.05174 0.0
C1109 C 0.09147 0.98201 0.0376 0.0
C1110 C 0.11484 0.99541 0.04399 0.0
C1111 C 0.11941 0.02121 0.04731 0.0
C1112 C 0.09965 0.03378 0.04363 0.0
C1113 C 0.07554 0.02063 0.03699 0.0
C1114 C 0.07131 0.99437 0.03432 0.0
H1115 H 0.67872 0.63026 0.99625 0.0
H1116 H 0.68388 0.5979 0.92244 0.0
H1117 H 0.64086 0.57574 0.92042 0.0
H1118 H 0.64851 0.5758 0.01566 0.0
H1119 H 0.62994 0.59067 0.03548 0.0
H1120 H 0.65923 0.6071 0.02945 0.0
H1121 H 0.63849 0.64268 0.01378 0.0
H1122 H 0.60914 0.62642 0.02004 0.0
H1123 H 0.61328 0.63562 0.98964 0.0
H1124 H 0.5979 0.55642 0.92733 0.0
H1125 H 0.55967 0.53803 0.94381 0.0
H1126 H 0.58523 0.57934 0.01489 0.0
C1127 C 0.67048 0.61911 0.97938 0.0
C1128 C 0.68407 0.61622 0.95915 0.0
C1129 C 0.67333 0.60062 0.93781 0.0
C1130 C 0.64903 0.58806 0.93656 0.0
C1131 C 0.63619 0.59098 0.95706 0.0
C1132 C 0.64665 0.60594 0.97816 0.0
C1133 C 0.63022 0.60369 0.9987 0.0
C1134 C 0.64273 0.59371 0.02114 0.0
C1135 C 0.62231 0.62858 0.00595 0.0
C1136 C 0.60889 0.58492 0.98597 0.0
C1137 C 0.61242 0.57824 0.96179 0.0
C1138 C 0.59499 0.56142 0.94623 0.0
C1139 C 0.57345 0.55108 0.9557 0.0
C1140 C 0.56999 0.55715 0.98058 0.0
C1141 C 0.58783 0.57424 0.99589 0.0
H1142 H 0.67858 0.41485 0.27139 0.0
H1143 H 0.73699 0.47676 0.29744 0.0
H1144 H 0.76706 0.44828 0.29816 0.0
H1145 H 0.70137 0.36947 0.30651 0.0
H1146 H 0.69309 0.34435 0.28239 0.0
H1147 H 0.6755 0.36908 0.28389 0.0
H1148 H 0.68267 0.37709 0.23936 0.0
H1149 H 0.70091 0.35296 0.23695 0.0
H1150 H 0.71355 0.38394 0.23102 0.0
H1151 H 0.79038 0.41296 0.29808 0.0
H1152 H 0.80567 0.37316 0.29568 0.0
H1153 H 0.73299 0.33471 0.26667 0.0
C1154 C 0.69767 0.42237 0.2774 0.0
C1155 C 0.70546 0.44801 0.28454 0.0
C1156 C 0.73064 0.45719 0.29195 0.0
C1157 C 0.74784 0.44117 0.2924 0.0
C1158 C 0.73963 0.41606 0.28506 0.0
C1159 C 0.71517 0.40668 0.27758 0.0
C1160 C 0.71132 0.37898 0.27016 0.0
C1161 C 0.6943 0.36464 0.28672 0.0
C1162 C 0.70152 0.3729 0.24275 0.0
C1163 C 0.73739 0.37425 0.27489 0.0
C1164 C 0.75338 0.39588 0.28365 0.0
C1165 C 0.7781 0.39598 0.29088 0.0
C1166 C 0.78663 0.37333 0.28942 0.0
C1167 C 0.7706 0.35099 0.28044 0.0
C1168 C 0.74577 0.35156 0.27278 0.0
H1169 H 0.80809 0.44002 0.54666 0.0
H1170 H 0.77372 0.49232 0.50611 0.0
H1171 H 0.81408 0.51704 0.50341 0.0
H1172 H 0.85811 0.4874 0.58109 0.0
H1173 H 0.8806 0.46733 0.57937 0.0
H1174 H 0.84873 0.45431 0.58023 0.0
H1175 H 0.84928 0.42653 0.53972 0.0
H1176 H 0.88108 0.43949 0.53873 0.0
H1177 H 0.85889 0.44069 0.51285 0.0
H1178 H 0.85737 0.53406 0.50104 0.0
H1179 H 0.90234 0.54356 0.50102 0.0
H1180 H 0.91004 0.48212 0.54438 0.0
C1181 C 0.80907 0.45686 0.53757 0.0
C1182 C 0.78761 0.46407 0.52655 0.0
C1183 C 0.78975 0.48621 0.51466 0.0
C1184 C 0.81265 0.50053 0.51306 0.0
C1185 C 0.83338 0.49275 0.52365 0.0
C1186 C 0.83195 0.47163 0.53591 0.0
C1187 C 0.85744 0.46714 0.54472 0.0
C1188 C 0.86145 0.46917 0.57304 0.0
C1189 C 0.86193 0.44197 0.53332 0.0
C1190 C 0.87321 0.48855 0.53472 0.0
C1191 C 0.85884 0.50312 0.52277 0.0
C1192 C 0.8689 0.52308 0.51068 0.0
C1193 C 0.89441 0.52827 0.51067 0.0
C1194 C 0.90951 0.51366 0.5228 0.0
C1195 C 0.89882 0.49374 0.53525 0.0
H1196 H 0.32862 0.10978 0.25739 0.0
H1197 H 0.39607 0.16112 0.25312 0.0
H1198 H 0.3729 0.19584 0.25319 0.0
H1199 H 0.28867 0.13872 0.21863 0.0
H1200 H 0.2633 0.13337 0.23693 0.0
H1201 H 0.28511 0.1125 0.23654 0.0
H1202 H 0.29347 0.11975 0.28418 0.0
H1203 H 0.27167 0.14065 0.28476 0.0
H1204 H 0.3027 0.15093 0.29884 0.0
H1205 H 0.3424 0.22506 0.25408 0.0
H1206 H 0.30706 0.24649 0.25682 0.0
H1207 H 0.25924 0.17652 0.25987 0.0
C1208 C 0.33852 0.12832 0.25644 0.0
C1209 C 0.36417 0.13272 0.25513 0.0
C1210 C 0.37645 0.1573 0.25415 0.0
C1211 C 0.36344 0.17714 0.25415 0.0
C1212 C 0.33817 0.17216 0.25539 0.0
C1213 C 0.32585 0.14839 0.25672 0.0
C1214 C 0.2987 0.14816 0.25839 0.0
C1215 C 0.28302 0.13224 0.23631 0.0
C1216 C 0.2912 0.13935 0.283 0.0
C1217 C 0.2976 0.17543 0.25735 0.0
C1218 C 0.32058 0.18895 0.25565 0.0
C1219 C 0.32426 0.21455 0.2549 0.0
C1220 C 0.30393 0.22661 0.25584 0.0
C1221 C 0.28018 0.21316 0.25714 0.0
C1222 C 0.27712 0.18725 0.25827 0.0
H1223 H 0.31159 0.08441 0.48008 0.0
H1224 H 0.29181 0.09397 0.55457 0.0
H1225 H 0.33105 0.08235 0.57076 0.0
H1226 H 0.33559 0.02999 0.48821 0.0
H1227 H 0.35969 0.03668 0.46858 0.0
H1228 H 0.33179 0.04894 0.46324 0.0
H1229 H 0.35684 0.09353 0.46657 0.0
H1230 H 0.38485 0.08132 0.47171 0.0
H1231 H 0.37803 0.10488 0.49362 0.0
H1232 H 0.37269 0.06941 0.57851 0.0
H1233 H 0.41126 0.0522 0.57667 0.0
H1234 H 0.40039 0.04671 0.49684 0.0
C1235 C 0.31584 0.08455 0.49981 0.0
C1236 C 0.29911 0.09041 0.5162 0.0
C1237 C 0.30469 0.08967 0.54185 0.0
C1238 C 0.32688 0.08319 0.55117 0.0
C1239 C 0.34293 0.07709 0.53449 0.0
C1240 C 0.33753 0.07745 0.50933 0.0
C1241 C 0.35662 0.06782 0.49513 0.0
C1242 C 0.34523 0.04447 0.47778 0.0
C1243 C 0.36987 0.0881 0.48093 0.0
C1244 C 0.37346 0.06177 0.51618 0.0
C1245 C 0.36566 0.06775 0.5388 0.0
C1246 C 0.37887 0.06445 0.5609 0.0
C1247 C 0.40062 0.05467 0.55973 0.0
C1248 C 0.40825 0.04776 0.53665 0.0
C1249 C 0.39453 0.05137 0.51472 0.0
H1250 H 0.65919 0.60183 0.2535 0.0
H1251 H 0.70139 0.57975 0.31597 0.0
H1252 H 0.72448 0.62278 0.32462 0.0
H1253 H 0.70942 0.64229 0.23323 0.0
H1254 H 0.69053 0.66411 0.22337 0.0
H1255 H 0.6773 0.63189 0.22298 0.0
H1256 H 0.64464 0.64402 0.2504 0.0
H1257 H 0.65796 0.67628 0.25109 0.0
H1258 H 0.65445 0.66237 0.27953 0.0
H1259 H 0.7417 0.66976 0.32708 0.0
H1260 H 0.75477 0.71387 0.31967 0.0
H1261 H 0.70257 0.70293 0.25418 0.0
C1262 C 0.67329 0.606 0.26902 0.0
C1263 C 0.6784 0.58751 0.28417 0.0
C1264 C 0.69723 0.59366 0.30409 0.0
C1265 C 0.7103 0.61807 0.30922 0.0
C1266 C 0.70454 0.63598 0.29405 0.0
C1267 C 0.68672 0.63002 0.2741 0.0
C1268 C 0.68455 0.65211 0.25987 0.0
C1269 C 0.69083 0.64731 0.2333 0.0
C1270 C 0.65888 0.6591 0.26026 0.0
C1271 C 0.70389 0.67154 0.27487 0.0
C1272 C 0.71505 0.66216 0.29477 0.0
C1273 C 0.73318 0.67718 0.31143 0.0
C1274 C 0.74039 0.70219 0.30721 0.0
C1275 C 0.72978 0.7116 0.28629 0.0
C1276 C 0.71115 0.69609 0.27021 0.0
H1277 H 0.87565 0.46049 0.73163 0.0
H1278 H 0.83517 0.51061 0.76927 0.0
H1279 H 0.80426 0.47507 0.77652 0.0
H1280 H 0.82086 0.41677 0.70211 0.0
H1281 H 0.83545 0.39012 0.70551 0.0
H1282 H 0.85364 0.41968 0.70182 0.0
H1283 H 0.88087 0.41716 0.74235 0.0
H1284 H 0.86271 0.38771 0.74619 0.0
H1285 H 0.86669 0.41282 0.77037 0.0
H1286 H 0.77986 0.43393 0.78324 0.0
H1287 H 0.76232 0.38997 0.78639 0.0
H1288 H 0.81728 0.36681 0.74266 0.0
C1289 C 0.86013 0.46401 0.74113 0.0
C1290 C 0.85789 0.48836 0.74991 0.0
C1291 C 0.83728 0.49216 0.76226 0.0
C1292 C 0.8196 0.47208 0.76651 0.0
C1293 C 0.82254 0.4483 0.75797 0.0
C1294 C 0.84208 0.44418 0.74522 0.0
C1295 C 0.84116 0.41672 0.73845 0.0
C1296 C 0.83756 0.41046 0.7103 0.0
C1297 C 0.86422 0.40811 0.75004 0.0
C1298 C 0.81852 0.40609 0.75006 0.0
C1299 C 0.808 0.4246 0.76118 0.0
C1300 C 0.7877 0.41926 0.77428 0.0
C1301 C 0.77792 0.39431 0.77605 0.0
C1302 C 0.78839 0.37515 0.76466 0.0
C1303 C 0.80877 0.38116 0.75132 0.0
H1304 H 0.00753 0.85478 0.13209 0.0
H1305 H 0.9822 0.79824 0.07092 0.0
H1306 H 0.98215 0.83088 0.04232 0.0
H1307 H 0.97301 0.89983 0.11216 0.0
H1308 H 0.99706 0.92592 0.1223 0.0
H1309 H 0.99537 0.8981 0.13773 0.0
H1310 H 0.04012 0.89524 0.12957 0.0
H1311 H 0.04193 0.9231 0.11414 0.0
H1312 H 0.04833 0.89513 0.09845 0.0
H1313 H 0.98307 0.87019 0.02076 0.0
H1314 H 0.9867 0.91269 0.00783 0.0
H1315 H 0.01334 0.94307 0.0829 0.0
C1316 C 0.00198 0.84924 0.11267 0.0
C1317 C 0.99471 0.82396 0.10373 0.0
C1318 C 0.98782 0.81749 0.07816 0.0
C1319 C 0.98773 0.8359 0.0618 0.0
C1320 C 0.99491 0.86067 0.07125 0.0
C1321 C 0.00214 0.86732 0.09608 0.0
C1322 C 0.00925 0.89519 0.10158 0.0
C1323 C 0.99268 0.90535 0.1195 0.0
C1324 C 0.03653 0.90259 0.11152 0.0
C1325 C 0.00444 0.90327 0.07607 0.0
C1326 C 0.99615 0.88311 0.0588 0.0
C1327 C 0.98974 0.88607 0.0341 0.0
C1328 C 0.99181 0.91024 0.02693 0.0
C1329 C 0.00036 0.93106 0.04436 0.0
C1330 C 0.0069 0.92745 0.06917 0.0
H1331 H 0.94225 0.31289 0.80692 0.0
H1332 H 0.94501 0.24934 0.84862 0.0
H1333 H 0.90143 0.23312 0.83367 0.0
H1334 H 0.88283 0.32149 0.81931 0.0
H1335 H 0.87464 0.33079 0.78927 0.0
H1336 H 0.90628 0.33627 0.80208 0.0
H1337 H 0.91753 0.31211 0.76325 0.0
H1338 H 0.88584 0.30641 0.75041 0.0
H1339 H 0.90192 0.2808 0.75407 0.0
H1340 H 0.85689 0.22485 0.81516 0.0
H1341 H 0.81491 0.2264 0.79679 0.0
H1342 H 0.84208 0.29567 0.76769 0.0
C1343 C 0.93384 0.29543 0.81279 0.0
C1344 C 0.94712 0.28233 0.82888 0.0
C1345 C 0.93523 0.2597 0.83629 0.0
C1346 C 0.91052 0.25029 0.82781 0.0
C1347 C 0.89802 0.26375 0.81195 0.0
C1348 C 0.9093 0.28588 0.80463 0.0
C1349 C 0.89163 0.29749 0.78852 0.0
C1350 C 0.88867 0.32301 0.80052 0.0
C1351 C 0.89972 0.2993 0.76252 0.0
C1352 C 0.86849 0.2786 0.78815 0.0
C1353 C 0.87253 0.25912 0.80154 0.0
C1354 C 0.85358 0.2399 0.80447 0.0
C1355 C 0.82981 0.2409 0.79385 0.0
C1356 C 0.82521 0.26109 0.78067 0.0
C1357 C 0.84497 0.27989 0.77751 0.0
H1358 H 0.51928 0.17685 0.65231 0.0
H1359 H 0.46095 0.20115 0.60746 0.0
H1360 H 0.45973 0.16554 0.57644 0.0
H1361 H 0.55111 0.15958 0.60206 0.0
H1362 H 0.56067 0.13323 0.61515 0.0
H1363 H 0.5554 0.15912 0.63506 0.0
H1364 H 0.52426 0.12973 0.65632 0.0
H1365 H 0.52952 0.10371 0.63652 0.0
H1366 H 0.4988 0.10996 0.63785 0.0
H1367 H 0.46507 0.12772 0.55014 0.0
H1368 H 0.47869 0.09187 0.52875 0.0
H1369 H 0.53568 0.09371 0.58899 0.0
C1370 C 0.50598 0.17437 0.63615 0.0
C1371 C 0.48997 0.19152 0.63237 0.0
C1372 C 0.47327 0.18812 0.61071 0.0
C1373 C 0.47241 0.16794 0.59305 0.0
C1374 C 0.48862 0.15152 0.59715 0.0
C1375 C 0.50525 0.15459 0.61804 0.0
C1376 C 0.52183 0.13528 0.61706 0.0
C1377 C 0.54885 0.14754 0.61734 0.0
C1378 C 0.51839 0.11869 0.6382 0.0
C1379 C 0.512 0.12098 0.5923 0.0
C1380 C 0.4926 0.13044 0.58132 0.0
C1381 C 0.4803 0.12021 0.55851 0.0
C1382 C 0.48817 0.09988 0.5465 0.0
C1383 C 0.50833 0.09024 0.55716 0.0
C1384 C 0.52034 0.1009 0.58037 0.0
H1385 H 0.57678 0.78376 0.3149 0.0
H1386 H 0.61318 0.79891 0.38954 0.0
H1387 H 0.65343 0.79956 0.37323 0.0
H1388 H 0.61518 0.74296 0.29256 0.0
H1389 H 0.61462 0.75377 0.26234 0.0
H1390 H 0.58904 0.75523 0.28 0.0
H1391 H 0.59328 0.80238 0.27597 0.0
H1392 H 0.61891 0.80108 0.25831 0.0
H1393 H 0.6223 0.82234 0.2858 0.0
H1394 H 0.68964 0.79713 0.34834 0.0
H1395 H 0.71831 0.79169 0.31717 0.0
H1396 H 0.6579 0.77913 0.25924 0.0
C1397 C 0.59319 0.78733 0.32787 0.0
C1398 C 0.59187 0.79136 0.3535 0.0
C1399 C 0.61379 0.79583 0.36983 0.0
C1400 C 0.6367 0.79624 0.36073 0.0
C1401 C 0.63729 0.79215 0.3353 0.0
C1402 C 0.61607 0.78776 0.31914 0.0
C1403 C 0.62148 0.78346 0.2927 0.0
C1404 C 0.60936 0.7573 0.28124 0.0
C1405 C 0.61352 0.80351 0.2773 0.0
C1406 C 0.64911 0.786 0.29642 0.0
C1407 C 0.65795 0.7911 0.32109 0.0
C1408 C 0.68292 0.79365 0.32896 0.0
C1409 C 0.69918 0.79101 0.31113 0.0
C1410 C 0.69045 0.78611 0.28583 0.0
C1411 C 0.66508 0.78332 0.27848 0.0
H1412 H -0.00037 0.1787 0.46099 0.0
H1413 H 0.04928 0.22252 0.52044 0.0
H1414 H 0.05007 0.18516 0.54237 0.0
H1415 H 0.96503 0.13677 0.50023 0.0
H1416 H 0.96218 0.11034 0.47768 0.0
H1417 H 0.96361 0.14099 0.46784 0.0
H1418 H 0.00057 0.13454 0.44385 0.0
H1419 H -0.00077 0.104 0.45382 0.0
H1420 H 0.02736 0.12621 0.45998 0.0
H1421 H 0.04986 0.14245 0.55505 0.0
H1422 H 0.04506 0.09754 0.55971 0.0
H1423 H 0.99424 0.08199 0.49321 0.0
C1424 C 0.01023 0.18055 0.47887 0.0
C1425 C 0.02437 0.2035 0.48905 0.0
C1426 C 0.03821 0.20514 0.51237 0.0
C1427 C 0.03882 0.18402 0.52494 0.0
C1428 C 0.02524 0.16154 0.51407 0.0
C1429 C 0.01089 0.1597 0.49175 0.0
C1430 C -0.00114 0.13313 0.4836 0.0
C1431 C 0.97075 0.13014 0.48228 0.0
C1432 C 0.00701 0.12394 0.45886 0.0
C1433 C 0.00915 0.1203 0.50457 0.0
C1434 C 0.0244 0.13698 0.52191 0.0
C1435 C 0.03753 0.12926 0.54191 0.0
C1436 C 0.03482 0.10379 0.54434 0.0
C1437 C 0.01889 0.08655 0.52703 0.0
C1438 C 0.0059 0.09492 0.50701 0.0
H1439 H 0.59861 0.31211 0.13337 0.0
H1440 H 0.55238 0.32867 0.19016 0.0
H1441 H 0.58675 0.32985 0.22202 0.0
H1442 H 0.62767 0.2717 0.16313 0.0
H1443 H 0.65786 0.28134 0.15398 0.0
H1444 H 0.63123 0.28607 0.13492 0.0
H1445 H 0.64848 0.33309 0.13714 0.0
H1446 H 0.67544 0.32844 0.15593 0.0
H1447 H 0.65741 0.3507 0.16679 0.0
H1448 H 0.62216 0.32073 0.24764 0.0
H1449 H 0.6596 0.30723 0.26572 0.0
H1450 H 0.68476 0.29996 0.19326 0.0
C1451 C 0.59601 0.31673 0.15245 0.0
C1452 C 0.57284 0.32009 0.15931 0.0
C1453 C 0.56998 0.32588 0.18448 0.0
C1454 C 0.58941 0.32671 0.20275 0.0
C1455 C 0.61171 0.32224 0.19554 0.0
C1456 C 0.61539 0.31795 0.17101 0.0
C1457 C 0.64072 0.3119 0.16851 0.0
C1458 C 0.63926 0.28623 0.15431 0.0
C1459 C 0.65644 0.33225 0.15637 0.0
C1460 C 0.64998 0.31201 0.19541 0.0
C1461 C 0.63298 0.31816 0.21067 0.0
C1462 C 0.63601 0.31665 0.23602 0.0
C1463 C 0.65711 0.30875 0.24608 0.0
C1464 C 0.6749 0.30294 0.2308 0.0
C1465 C 0.67149 0.30486 0.20526 0.0
H1466 H 0.5063 0.84132 0.96314 0.0
H1467 H 0.58555 0.84965 0.97194 0.0
H1468 H 0.58825 0.88867 0.99873 0.0
H1469 H 0.50474 0.90102 0.95406 0.0
H1470 H 0.47825 0.90452 0.96983 0.0
H1471 H 0.48183 0.87437 0.95696 0.0
H1472 H 0.47852 0.85761 0.99963 0.0
H1473 H 0.4747 0.88778 0.01265 0.0
H1474 H 0.49876 0.87306 0.026 0.0
H1475 H 0.58309 0.92939 0.01736 0.0
H1476 H 0.5706 0.96979 0.02661 0.0
H1477 H 0.4944 0.93631 0.00513 0.0
C1478 C 0.52406 0.85088 0.97176 0.0
C1479 C 0.54572 0.84244 0.96627 0.0
C1480 C 0.56883 0.85579 0.97657 0.0
C1481 C 0.57048 0.87786 0.9918 0.0
C1482 C 0.54883 0.8863 0.99629 0.0
C1483 C 0.526 0.87321 0.98668 0.0
C1484 C 0.50596 0.88822 0.99104 0.0
C1485 C 0.49189 0.89227 0.96652 0.0
C1486 C 0.48845 0.87593 0.00837 0.0
C1487 C 0.52121 0.91218 0.00346 0.0
C1488 C 0.54583 0.91044 0.00676 0.0
C1489 C 0.56383 0.93085 0.01544 0.0
C1490 C 0.55656 0.95375 0.02047 0.0
C1491 C 0.53152 0.95608 0.01672 0.0
C1492 C 0.5136 0.9349 0.00869 0.0
H1493 H 0.93548 0.80822 0.67414 0.0
H1494 H 0.96996 0.75494 0.71294 0.0
H1495 H 0.93918 0.75376 0.74261 0.0
H1496 H 0.92074 0.84234 0.72775 0.0
H1497 H 0.89157 0.84729 0.71357 0.0
H1498 H 0.9161 0.84387 0.69491 0.0
H1499 H 0.88801 0.80758 0.66739 0.0
H1500 H 0.8633 0.81122 0.6857 0.0
H1501 H 0.87296 0.78155 0.68153 0.0
H1502 H 0.90478 0.75805 0.76798 0.0
H1503 H 0.86695 0.76559 0.78562 0.0
H1504 H 0.85552 0.81671 0.73112 0.0
C1505 C 0.93643 0.79614 0.68873 0.0
C1506 C 0.95516 0.78171 0.69121 0.0
C1507 C 0.95583 0.76624 0.71068 0.0
C1508 C 0.93849 0.76548 0.7277 0.0
C1509 C 0.92064 0.78035 0.72507 0.0
C1510 C 0.91933 0.79524 0.70599 0.0
C1511 C 0.89807 0.80917 0.70724 0.0
C1512 C 0.90718 0.83734 0.7111 0.0
C1513 C 0.87949 0.80194 0.68409 0.0
C1514 C 0.88761 0.79965 0.7299 0.0
C1515 C 0.90097 0.78313 0.73998 0.0
C1516 C 0.89427 0.77112 0.76041 0.0
C1517 C 0.87289 0.77558 0.77037 0.0
C1518 C 0.85862 0.79187 0.75984 0.0
C1519 C 0.8664 0.80449 0.73976 0.0
H1520 H 0.07903 0.03239 0.84636 0.0
H1521 H 0.12065 0.97299 0.85609 0.0
H1522 H 0.10359 0.96658 0.89594 0.0
H1523 H 0.08646 0.05753 0.90941 0.0
H1524 H 0.05603 0.06509 0.90781 0.0
H1525 H 0.07193 0.06459 0.88064 0.0
H1526 H 0.03528 0.03318 0.85748 0.0
H1527 H 0.01941 0.03335 0.8847 0.0
H1528 H 0.02509 0.0045 0.8702 0.0
H1529 H 0.08042 0.9667 0.93487 0.0
H1530 H 0.05647 0.97545 0.96968 0.0
H1531 H 0.03091 0.03457 0.93241 0.0
C1532 C 0.0847 0.01799 0.85678 0.0
C1533 C 0.1011 0.0031 0.84805 0.0
C1534 C 0.10814 0.98467 0.86247 0.0
C1535 C 0.09844 0.98083 0.88503 0.0
C1536 C 0.08188 0.99564 0.89279 0.0
C1537 C 0.07532 0.01399 0.87908 0.0
C1538 C 0.05754 0.02777 0.89118 0.0
C1539 C 0.06867 0.05537 0.89765 0.0
C1540 C 0.03287 0.02449 0.87492 0.0
C1541 C 0.05498 0.0144 0.91399 0.0
C1542 C 0.06896 0.9958 0.91471 0.0
C1543 C 0.06943 0.98121 0.9344 0.0
C1544 C 0.05566 0.98618 0.95399 0.0
C1545 C 0.04184 0.00567 0.95371 0.0
C1546 C 0.04132 0.01958 0.93323 0.0
H1547 H 0.73646 0.37285 0.62979 0.0
H1548 H 0.75144 0.32103 0.57133 0.0
H1549 H 0.76194 0.29299 0.60209 0.0
H1550 H 0.78393 0.36217 0.67726 0.0
H1551 H 0.7647 0.36386 0.7019 0.0
H1552 H 0.76037 0.38113 0.6757 0.0
H1553 H 0.71462 0.36005 0.66809 0.0
H1554 H 0.71885 0.34286 0.6943 0.0
H1555 H 0.70695 0.32668 0.66455 0.0
H1556 H 0.77001 0.26994 0.6389 0.0
H1557 H 0.7717 0.25197 0.67883 0.0
H1558 H 0.74929 0.31719 0.7136 0.0
C1559 C 0.74228 0.35576 0.62354 0.0
C1560 C 0.74335 0.34925 0.5981 0.0
C1561 C 0.75054 0.32646 0.59065 0.0
C1562 C 0.75665 0.31044 0.60803 0.0
C1563 C 0.75528 0.31726 0.63289 0.0
C1564 C 0.74807 0.33927 0.64069 0.0
C1565 C 0.74649 0.34124 0.66838 0.0
C1566 C 0.76497 0.36342 0.68158 0.0
C1567 C 0.72017 0.34279 0.67416 0.0
C1568 C 0.75367 0.31683 0.67478 0.0
C1569 C 0.75904 0.30348 0.65408 0.0
C1570 C 0.76587 0.28025 0.65524 0.0
C1571 C 0.76684 0.27019 0.67802 0.0
C1572 C 0.7607 0.28315 0.69934 0.0
C1573 C 0.75429 0.30691 0.69766 0.0
H1574 H 0.42258 0.06044 0.34757 0.0
H1575 H 0.49376 0.08249 0.32208 0.0
H1576 H 0.51354 0.08571 0.3647 0.0
H1577 H 0.43665 0.09829 0.41032 0.0
H1578 H 0.41958 0.07393 0.42512 0.0
H1579 H 0.41032 0.07825 0.39354 0.0
H1580 H 0.41281 0.03242 0.38057 0.0
H1581 H 0.42236 0.02806 0.41197 0.0
H1582 H 0.4411 0.02126 0.38797 0.0
H1583 H 0.52638 0.0796 0.40773 0.0
H1584 H 0.53141 0.06675 0.44973 0.0
H1585 H 0.45225 0.04878 0.44875 0.0
C1586 C 0.44216 0.06703 0.35126 0.0
C1587 C 0.45667 0.07175 0.33173 0.0
C1588 C 0.48238 0.07921 0.33693 0.0
C1589 C 0.49376 0.08108 0.36106 0.0
C1590 C 0.47918 0.07537 0.37986 0.0
C1591 C 0.4539 0.06878 0.37541 0.0
C1592 C 0.44298 0.06096 0.3986 0.0
C1593 C 0.4264 0.07893 0.40742 0.0
C1594 C 0.429 0.03408 0.39452 0.0
C1595 C 0.46613 0.06322 0.41633 0.0
C1596 C 0.48674 0.07183 0.40515 0.0
C1597 C 0.51037 0.07339 0.41691 0.0
C1598 C 0.51305 0.06589 0.44072 0.0
C1599 C 0.49224 0.05701 0.4526 0.0
C1600 C 0.46848 0.05601 0.44032 0.0
H1601 H 0.76324 0.68122 0.06964 0.0
H1602 H 0.68828 0.64106 0.06009 0.0
H1603 H 0.67897 0.66626 0.09636 0.0
H1604 H 0.77025 0.68498 0.13558 0.0
H1605 H 0.78884 0.71546 0.13929 0.0
H1606 H 0.78921 0.69492 0.11201 0.0
H1607 H 0.77727 0.72847 0.08485 0.0
H1608 H 0.77664 0.74903 0.11208 0.0
H1609 H 0.75 0.74122 0.08965 0.0
H1610 H 0.67779 0.69575 0.13325 0.0
H1611 H 0.6858 0.72489 0.17104 0.0
H1612 H 0.7619 0.74483 0.15733 0.0
C1613 C 0.74484 0.67779 0.07514 0.0
C1614 C 0.72643 0.65931 0.06207 0.0
C1615 C 0.70267 0.65509 0.06996 0.0
C1616 C 0.69716 0.6694 0.0904 0.0
C1617 C 0.7157 0.68763 0.10275 0.0
C1618 C 0.73913 0.69166 0.09564 0.0
C1619 C 0.75602 0.71158 0.1128 0.0
C1620 C 0.77733 0.7011 0.12568 0.0
C1621 C 0.76553 0.7339 0.09901 0.0
C1622 C 0.73842 0.71809 0.13074 0.0
C1623 C 0.71519 0.70427 0.12442 0.0
C1624 C 0.69587 0.7067 0.13839 0.0
C1625 C 0.70058 0.72333 0.15973 0.0
C1626 C 0.72442 0.73705 0.16691 0.0
C1627 C 0.74347 0.73466 0.15207 0.0
H1628 H 0.12919 0.99889 0.68398 0.0
H1629 H 0.07104 0.96218 0.72274 0.0
H1630 H 0.04369 0.95308 0.68377 0.0
H1631 H 0.09232 0.02916 0.64735 0.0
H1632 H 0.10817 0.02634 0.62025 0.0
H1633 H 0.12434 0.02644 0.65026 0.0
H1634 H 0.13678 0.98431 0.6368 0.0
H1635 H 0.12054 0.98407 0.60667 0.0
H1636 H 0.11334 0.9583 0.62465 0.0
H1637 H 0.02125 0.95221 0.64194 0.0
H1638 H 0.00504 0.96137 0.60069 0.0
H1639 H 0.0776 0.99875 0.58928 0.0
C1640 C 0.11088 0.98845 0.68413 0.0
C1641 C 0.10223 0.98116 0.7063 0.0
C1642 C 0.07802 0.96795 0.70591 0.0
C1643 C 0.0624 0.96253 0.68385 0.0
C1644 C 0.07131 0.97039 0.66235 0.0
C1645 C 0.095 0.98305 0.6623 0.0
C1646 C 0.09926 0.99165 0.63726 0.0
C1647 C 0.10643 0.02007 0.63889 0.0
C1648 C 0.11863 0.97881 0.62566 0.0
C1649 C 0.074 0.98272 0.62356 0.0
C1650 C 0.05826 0.97006 0.63819 0.0
C1651 C 0.03348 0.9617 0.63015 0.0
C1652 C 0.02444 0.96697 0.60675 0.0
C1653 C 0.04017 0.98055 0.59189 0.0
C1654 C 0.0653 0.98799 0.60019 0.0
H1655 H 0.74642 0.35479 0.46221 0.0
H1656 H 0.67682 0.37617 0.43858 0.0
H1657 H 0.67749 0.35552 0.39706 0.0
H1658 H 0.77315 0.36583 0.40692 0.0
H1659 H 0.78933 0.33997 0.40656 0.0
H1660 H 0.78256 0.35407 0.43542 0.0
H1661 H 0.76028 0.31154 0.44569 0.0
H1662 H 0.76712 0.29727 0.41689 0.0
H1663 H 0.73582 0.29406 0.42411 0.0
H1664 H 0.68649 0.3356 0.35769 0.0
H1665 H 0.70297 0.31683 0.32217 0.0
H1666 H 0.76772 0.30809 0.3694 0.0
C1667 C 0.73108 0.35456 0.44843 0.0
C1668 C 0.7114 0.36694 0.45377 0.0
C1669 C 0.69201 0.36679 0.43501 0.0
C1670 C 0.69221 0.35507 0.41134 0.0
C1671 C 0.71203 0.34358 0.40647 0.0
C1672 C 0.73113 0.3431 0.42439 0.0
C1673 C 0.75085 0.33066 0.41352 0.0
C1674 C 0.77543 0.34871 0.41574 0.0
C1675 C 0.75368 0.30697 0.42578 0.0
C1676 C 0.73993 0.32457 0.3867 0.0
C1677 C 0.71745 0.33212 0.38326 0.0
C1678 C 0.70397 0.32939 0.36019 0.0
C1679 C 0.71362 0.31868 0.34003 0.0
C1680 C 0.7367 0.31075 0.34278 0.0
C1681 C 0.74996 0.3137 0.3666 0.0
H1682 H 0.42013 0.05741 0.16029 0.0
H1683 H 0.48106 0.06438 0.21772 0.0
H1684 H 0.50812 0.05485 0.18668 0.0
H1685 H 0.4373 0.00665 0.12134 0.0
H1686 H 0.42869 0.01876 0.09281 0.0
H1687 H 0.41312 0.02486 0.11953 0.0
H1688 H 0.42405 0.07209 0.11609 0.0
H1689 H 0.43951 0.06596 0.08933 0.0
H1690 H 0.45569 0.08608 0.11545 0.0
H1691 H 0.52945 0.04699 0.15044 0.0
H1692 H 0.54443 0.04217 0.10961 0.0
H1693 H 0.47077 0.03932 0.07426 0.0
C1694 C 0.43913 0.05678 0.16627 0.0
C1695 C 0.44839 0.0616 0.19154 0.0
C1696 C 0.47343 0.06078 0.19857 0.0
C1697 C 0.48901 0.05526 0.18107 0.0
C1698 C 0.4794 0.05055 0.15646 0.0
C1699 C 0.45513 0.0513 0.14888 0.0
C1700 C 0.45012 0.04653 0.12092 0.0
C1701 C 0.43118 0.02278 0.11321 0.0
C1702 C 0.44186 0.069 0.1098 0.0
C1703 C 0.47543 0.04326 0.11417 0.0
C1704 C 0.49191 0.04557 0.1351 0.0
C1705 C 0.51669 0.04479 0.13391 0.0
C1706 C 0.52503 0.04201 0.11068 0.0
C1707 C 0.50864 0.03977 0.08897 0.0
C1708 C 0.48345 0.0401 0.09067 0.0
H1709 H 0.8022 0.68227 0.91969 0.0
H1710 H 0.77618 0.73015 0.97466 0.0
H1711 H 0.7756 0.76197 0.94564 0.0
H1712 H 0.84007 0.73483 0.89037 0.0
H1713 H 0.83197 0.71811 0.86021 0.0
H1714 H 0.83538 0.70143 0.88698 0.0
H1715 H 0.79153 0.67639 0.87491 0.0
H1716 H 0.78783 0.69331 0.84853 0.0
H1717 H 0.76602 0.69271 0.87097 0.0
H1718 H 0.76735 0.78314 0.90799 0.0
H1719 H 0.75928 0.79562 0.86585 0.0
H1720 H 0.7943 0.73657 0.8363 0.0
C1721 C 0.79743 0.69988 0.92596 0.0
C1722 C 0.78919 0.7037 0.94938 0.0
C1723 C 0.78269 0.72683 0.95684 0.0
C1724 C 0.78225 0.74505 0.94046 0.0
C1725 C 0.78902 0.74013 0.91694 0.0
C1726 C 0.79729 0.71845 0.90994 0.0
C1727 C 0.80149 0.71682 0.88296 0.0
C1728 C 0.82886 0.71787 0.87996 0.0
C1729 C 0.78577 0.69343 0.86852 0.0
C1730 C 0.79282 0.74013 0.87559 0.0
C1731 C 0.78573 0.75338 0.89545 0.0
C1732 C 0.77376 0.77355 0.89246 0.0
C1733 C 0.76908 0.7804 0.86858 0.0
C1734 C 0.77678 0.76735 0.84828 0.0
C1735 C 0.78906 0.74726 0.85184 0.0
H1736 H 0.86121 0.09406 0.04309 0.0
H1737 H 0.87815 0.14463 0.98772 0.0
H1738 H 0.91211 0.12278 0.97721 0.0
H1739 H 0.92199 0.08886 0.06366 0.0
H1740 H 0.9154 0.05623 0.06777 0.0
H1741 H 0.89225 0.07525 0.07131 0.0
H1742 H 0.86187 0.04725 0.0383 0.0
H1743 H 0.88394 0.02696 0.03496 0.0
H1744 H 0.87128 0.03972 0.00835 0.0
H1745 H 0.9433 0.09314 0.97167 0.0
H1746 H 0.96916 0.0604 0.97304 0.0
H1747 H 0.93132 0.03072 0.03268 0.0
C1748 C 0.8721 0.10085 0.02887 0.0
C1749 C 0.86697 0.12126 0.01633 0.0
C1750 C 0.88175 0.12919 0.99773 0.0
C1751 C 0.90102 0.1168 0.99157 0.0
C1752 C 0.90518 0.09646 0.00409 0.0
C1753 C 0.89106 0.08865 0.02239 0.0
C1754 C 0.8987 0.06616 0.03298 0.0
C1755 C 0.90763 0.07194 0.06058 0.0
C1756 C 0.8777 0.0437 0.02836 0.0
C1757 C 0.91952 0.06245 0.01793 0.0
C1758 C 0.923 0.07996 0.00124 0.0
C1759 C 0.94088 0.07962 0.98492 0.0
C1760 C 0.95564 0.06112 0.98595 0.0
C1761 C 0.95262 0.04342 0.00329 0.0
C1762 C 0.93412 0.04405 0.01924 0.0
H1763 H 0.31947 0.48016 0.03047 0.0
H1764 H 0.3245 0.41053 0.06109 0.0
H1765 H 0.36982 0.41967 0.06131 0.0
H1766 H 0.36228 0.47574 0.98913 0.0
H1767 H 0.37437 0.50848 0.99209 0.0
H1768 H 0.34312 0.49788 0.99753 0.0
H1769 H 0.35123 0.52192 0.04113 0.0
H1770 H 0.38251 0.53283 0.03574 0.0
H1771 H 0.37618 0.51656 0.06234 0.0
H1772 H 0.41492 0.4361 0.05539 0.0
H1773 H 0.4543 0.45725 0.04295 0.0
H1774 H 0.41729 0.51418 0.01441 0.0
C1775 C 0.32996 0.46689 0.03767 0.0
C1776 C 0.31839 0.44463 0.04585 0.0
C1777 C 0.33298 0.42778 0.05486 0.0
C1778 C 0.3587 0.43283 0.05505 0.0
C1779 C 0.36937 0.45475 0.04617 0.0
C1780 C 0.35532 0.47146 0.03772 0.0
C1781 C 0.37051 0.49276 0.02736 0.0
C1782 C 0.36206 0.49374 -9e-05 0.0
C1783 C 0.37008 0.51747 0.04256 0.0
C1784 C 0.3954 0.4853 0.0308 0.0
C1785 C 0.39464 0.46358 0.04202 0.0
C1786 C 0.41566 0.45316 0.0467 0.0
C1787 C 0.4379 0.46526 0.0396 0.0
C1788 C 0.43867 0.4872 0.0276 0.0
C1789 C 0.41717 0.49729 0.02333 0.0
H1790 H 0.28944 0.61192 0.71929 0.0
H1791 H 0.34571 0.62762 0.78166 0.0
H1792 H 0.32753 0.66322 0.79703 0.0
H1793 H 0.29113 0.67266 0.70868 0.0
H1794 H 0.25879 0.67101 0.69935 0.0
H1795 H 0.27268 0.64385 0.69497 0.0
H1796 H 0.24229 0.61923 0.72058 0.0
H1797 H 0.2272 0.6457 0.72455 0.0
H1798 H 0.23848 0.63193 0.75113 0.0
H1799 H 0.30441 0.6983 0.80465 0.0
H1800 H 0.28111 0.73277 0.80135 0.0
H1801 H 0.24217 0.69629 0.73232 0.0
C1802 C 0.29759 0.62252 0.73648 0.0
C1803 C 0.31887 0.61687 0.74938 0.0
C1804 C 0.32937 0.63157 0.77148 0.0
C1805 C 0.31905 0.65171 0.78047 0.0
C1806 C 0.29823 0.65697 0.76717 0.0
C1807 C 0.28765 0.64285 0.7456 0.0
C1808 C 0.26711 0.65412 0.73333 0.0
C1809 C 0.27273 0.66081 0.70752 0.0
C1810 C 0.2423 0.6367 0.73235 0.0
C1811 C 0.26822 0.67712 0.75098 0.0
C1812 C 0.28588 0.67807 0.77072 0.0
C1813 C 0.29063 0.69779 0.7892 0.0
C1814 C 0.27747 0.71737 0.78708 0.0
C1815 C 0.26039 0.71745 0.76628 0.0
C1816 C 0.25524 0.69674 0.74837 0.0
H1817 H 0.2109 0.65194 0.51481 0.0
H1818 H 0.23989 0.59147 0.47869 0.0
H1819 H 0.20055 0.56339 0.48029 0.0
H1820 H 0.17911 0.61576 0.55673 0.0
H1821 H 0.15347 0.63205 0.55587 0.0
H1822 H 0.1833 0.64778 0.55044 0.0
H1823 H 0.16505 0.65916 0.50842 0.0
H1824 H 0.13513 0.6436 0.51381 0.0
H1825 H 0.14818 0.63494 0.48611 0.0
H1826 H 0.15797 0.54198 0.48578 0.0
H1827 H 0.11569 0.52852 0.49631 0.0
H1828 H 0.11585 0.60239 0.53103 0.0
C1829 C 0.20884 0.63287 0.50697 0.0
C1830 C 0.22828 0.62386 0.49646 0.0
C1831 C 0.22512 0.5987 0.48679 0.0
C1832 C 0.20288 0.58264 0.48758 0.0
C1833 C 0.18413 0.59202 0.49834 0.0
C1834 C 0.18692 0.61651 0.50797 0.0
C1835 C 0.16434 0.62166 0.51952 0.0
C1836 C 0.17043 0.62979 0.54728 0.0
C1837 C 0.15248 0.64098 0.50616 0.0
C1838 C 0.14844 0.59626 0.51488 0.0
C1839 C 0.16007 0.57945 0.50244 0.0
C1840 C 0.14873 0.55493 0.49566 0.0
C1841 C 0.12481 0.54744 0.50172 0.0
C1842 C 0.11279 0.56437 0.51467 0.0
C1843 C 0.12481 0.58901 0.52138 0.0
H1844 H 0.68366 0.93284 0.75688 0.0
H1845 H 0.63747 0.9048 0.81168 0.0
H1846 H 0.66309 0.87287 0.81869 0.0
H1847 H 0.69201 0.87294 0.73074 0.0
H1848 H 0.72336 0.88305 0.72502 0.0
H1849 H 0.70226 0.90466 0.72512 0.0
H1850 H 0.73185 0.93399 0.75841 0.0
H1851 H 0.75301 0.91243 0.75843 0.0
H1852 H 0.7418 0.92236 0.7868 0.0
H1853 H 0.69366 0.84425 0.82021 0.0
H1854 H 0.72553 0.8187 0.81402 0.0
H1855 H 0.7509 0.8629 0.75634 0.0
C1856 C 0.67911 0.92012 0.77052 0.0
C1857 C 0.65864 0.92148 0.78391 0.0
C1858 C 0.65305 0.90419 0.80126 0.0
C1859 C 0.66755 0.88602 0.80543 0.0
C1860 C 0.68752 0.88512 0.79192 0.0
C1861 C 0.69323 0.90153 0.77465 0.0
C1862 C 0.71504 0.89564 0.76183 0.0
C1863 C 0.70772 0.88865 0.73403 0.0
C1864 C 0.73671 0.9174 0.76667 0.0
C1865 C 0.72068 0.87341 0.77464 0.0
C1866 C 0.70466 0.86786 0.79208 0.0
C1867 C 0.70615 0.8483 0.80645 0.0
C1868 C 0.72422 0.83376 0.80268 0.0
C1869 C 0.74032 0.83845 0.78435 0.0
C1870 C 0.73876 0.85882 0.77041 0.0
H1871 H 0.6811 0.96081 0.56476 0.0
H1872 H 0.6695 0.90986 0.49816 0.0
H1873 H 0.63836 0.93264 0.48042 0.0
H1874 H 0.61708 0.96672 0.56606 0.0
H1875 H 0.62448 0.99887 0.57814 0.0
H1876 H 0.64557 0.9782 0.58514 0.0
H1877 H 0.67984 0.00785 0.56784 0.0
H1878 H 0.65861 0.02821 0.5601 0.0
H1879 H 0.67515 0.01572 0.53662 0.0
H1880 H 0.60976 0.96198 0.46943 0.0
H1881 H 0.58005 0.9909 0.46906 0.0
H1882 H 0.61024 0.02207 0.54307 0.0
C1883 C 0.67178 0.95429 0.54656 0.0
C1884 C 0.67768 0.93368 0.53278 0.0
C1885 C 0.6651 0.92556 0.50907 0.0
C1886 C 0.64762 0.93853 0.49874 0.0
C1887 C 0.64288 0.95936 0.51249 0.0
C1888 C 0.65416 0.96682 0.53611 0.0
C1889 C 0.645 0.98911 0.54746 0.0
C1890 C 0.63227 0.98284 0.57055 0.0
C1891 C 0.6659 0.01154 0.55335 0.0
C1892 C 0.62685 0.99309 0.52649 0.0
C1893 C 0.62613 0.97597 0.50635 0.0
C1894 C 0.61015 0.97548 0.48508 0.0
C1895 C 0.5935 0.99206 0.48495 0.0
C1896 C 0.59298 0.0086 0.50602 0.0
C1897 C 0.61049 0.00979 0.52661 0.0
H1898 H 0.33789 0.44442 0.69829 0.0
H1899 H 0.29094 0.48949 0.73315 0.0
H1900 H 0.26321 0.45151 0.74059 0.0
H1901 H 0.28766 0.39417 0.66922 0.0
H1902 H 0.30589 0.37047 0.67448 0.0
H1903 H 0.32055 0.40117 0.66948 0.0
H1904 H 0.34824 0.40382 0.71072 0.0
H1905 H 0.33354 0.37329 0.71596 0.0
H1906 H 0.33423 0.39906 0.73877 0.0
H1907 H 0.2441 0.4091 0.74962 0.0
H1908 H 0.23265 0.36488 0.75609 0.0
H1909 H 0.29047 0.34704 0.71337 0.0
C1910 C 0.32149 0.44635 0.70701 0.0
C1911 C 0.31662 0.47 0.71513 0.0
C1912 C 0.29502 0.47164 0.7266 0.0
C1913 C 0.27917 0.45015 0.73097 0.0
C1914 C 0.28493 0.42716 0.72339 0.0
C1915 C 0.30534 0.4251 0.71126 0.0
C1916 C 0.30799 0.39819 0.70604 0.0
C1917 C 0.30536 0.39056 0.67814 0.0
C1918 C 0.33244 0.39332 0.71863 0.0
C1919 C 0.28632 0.38548 0.71784 0.0
C1920 C 0.27328 0.40255 0.72775 0.0
C1921 C 0.25382 0.39552 0.74146 0.0
C1922 C 0.24754 0.37042 0.74515 0.0
C1923 C 0.26049 0.35263 0.73493 0.0
C1924 C 0.27992 0.36023 0.72086 0.0
H1925 H 0.13019 0.5862 0.27834 0.0
H1926 H 0.17779 0.5341 0.25918 0.0
H1927 H 0.2104 0.56903 0.25338 0.0
H1928 H 0.14721 0.62915 0.23612 0.0
H1929 H 0.14636 0.65623 0.25675 0.0
H1930 H 0.12721 0.62722 0.26028 0.0
H1931 H 0.146 0.62939 0.30572 0.0
H1932 H 0.1651 0.65852 0.30239 0.0
H1933 H 0.17885 0.63313 0.31265 0.0
H1934 H 0.23615 0.60974 0.24559 0.0
H1935 H 0.25472 0.65324 0.24128 0.0
H1936 H 0.19146 0.6784 0.26884 0.0
C1937 C 0.14757 0.58216 0.27316 0.0
C1938 C 0.15148 0.55748 0.26911 0.0
C1939 C 0.1745 0.55291 0.2625 0.0
C1940 C 0.19307 0.57261 0.25906 0.0
C1941 C 0.18846 0.59674 0.2628 0.0
C1942 C 0.16644 0.60158 0.27017 0.0
C1943 C 0.16612 0.62914 0.27314 0.0
C1944 C 0.1455 0.63581 0.25552 0.0
C1945 C 0.16389 0.63807 0.30008 0.0
C1946 C 0.19118 0.63905 0.26576 0.0
C1947 C 0.20375 0.62011 0.25964 0.0
C1948 C 0.22665 0.62474 0.25075 0.0
C1949 C 0.23701 0.64941 0.24825 0.0
C1950 C 0.22459 0.669 0.255 0.0
C1951 C 0.20149 0.66372 0.26395 0.0
H1952 H 0.50974 0.69268 0.39807 0.0
H1953 H 0.53033 0.75036 0.45905 0.0
H1954 H 0.53899 0.71912 0.48683 0.0
H1955 H 0.47966 0.646 0.4343 0.0
H1956 H 0.49 0.62076 0.41754 0.0
H1957 H 0.48508 0.64772 0.40246 0.0
H1958 H 0.52975 0.65333 0.39088 0.0
H1959 H 0.53488 0.62659 0.40625 0.0
H1960 H 0.55484 0.65599 0.41487 0.0
H1961 H 0.54712 0.68195 0.50787 0.0
H1962 H 0.55004 0.64055 0.52143 0.0
H1963 H 0.52319 0.60682 0.4474 0.0
C1964 C 0.51584 0.69868 0.4173 0.0
C1965 C 0.51937 0.72402 0.42632 0.0
C1966 C 0.52742 0.73109 0.45166 0.0
C1967 C 0.53251 0.71349 0.46761 0.0
C1968 C 0.52931 0.68877 0.45807 0.0
C1969 C 0.52082 0.68127 0.43361 0.0
C1970 C 0.51858 0.65343 0.42825 0.0
C1971 C 0.49173 0.64127 0.42017 0.0
C1972 C 0.53552 0.64697 0.40892 0.0
C1973 C 0.52731 0.64657 0.45344 0.0
C1974 C 0.53357 0.66726 0.47034 0.0
C1975 C 0.5422 0.66559 0.49481 0.0
C1976 C 0.54394 0.64206 0.50233 0.0
C1977 C 0.53695 0.6206 0.48545 0.0
C1978 C 0.5288 0.62298 0.46066 0.0
H1979 H 0.58629 0.30003 0.68067 0.0
H1980 H 0.54427 0.27424 0.73939 0.0
H1981 H 0.58273 0.27388 0.76568 0.0
H1982 H 0.63293 0.26464 0.68927 0.0
H1983 H 0.65755 0.28843 0.68327 0.0
H1984 H 0.62677 0.28814 0.66959 0.0
H1985 H 0.62881 0.33321 0.68889 0.0
H1986 H 0.65965 0.33354 0.70262 0.0
H1987 H 0.63642 0.34053 0.7217 0.0
H1988 H 0.62526 0.27103 0.78341 0.0
H1989 H 0.66951 0.2696 0.79271 0.0
H1990 H 0.68433 0.30103 0.72451 0.0
C1991 C 0.58524 0.29461 0.69918 0.0
C1992 C 0.56232 0.28711 0.708 0.0
C1993 C 0.56163 0.28017 0.73231 0.0
C1994 C 0.58338 0.27988 0.74738 0.0
C1995 C 0.60568 0.28709 0.73806 0.0
C1996 C 0.60681 0.29473 0.71468 0.0
C1997 C 0.63318 0.30111 0.709 0.0
C1998 C 0.63787 0.28459 0.68645 0.0
C1999 C 0.6399 0.32875 0.70534 0.0
C2000 C 0.64661 0.29512 0.73253 0.0
C2001 C 0.63038 0.28696 0.74902 0.0
C2002 C 0.63822 0.27802 0.77098 0.0
C2003 C 0.66328 0.27725 0.77613 0.0
C2004 C 0.68012 0.28586 0.75964 0.0
C2005 C 0.67176 0.29519 0.73777 0.0
H2006 H 0.02749 0.40222 0.89661 0.0
H2007 H 0.00648 0.34227 0.94159 0.0
H2008 H 0.9946 0.37191 0.97253 0.0
H2009 H 0.05254 0.44851 0.94854 0.0
H2010 H 0.04181 0.4737 0.93424 0.0
H2011 H 0.04961 0.44823 0.91547 0.0
H2012 H 0.0065 0.44013 0.89113 0.0
H2013 H -0.00168 0.46567 0.9094 0.0
H2014 H 0.97968 0.43531 0.90753 0.0
H2015 H 0.98226 0.40729 0.99727 0.0
H2016 H 0.97362 0.44719 0.01587 0.0
H2017 H 0.00351 0.48441 0.95578 0.0
C2018 C 0.02065 0.39535 0.91309 0.0
C2019 C 0.01788 0.36984 0.91658 0.0
C2020 C 0.00888 0.36169 0.93846 0.0
C2021 C 0.00198 0.37838 0.95615 0.0
C2022 C 0.00444 0.40324 0.95187 0.0
C2023 C 0.01389 0.41182 0.93108 0.0
C2024 C 0.01461 0.43952 0.93102 0.0
C2025 C 0.04122 0.45332 0.9324 0.0
C2026 C -0.00117 0.44549 0.90843 0.0
C2027 C 0.00341 0.44499 0.95464 0.0
C2028 C 0.99771 0.42379 0.9664 0.0
C2029 C 0.98675 0.42403 0.98831 0.0
C2030 C 0.98175 0.44663 0.99863 0.0
C2031 C 0.98768 0.46848 0.98698 0.0
C2032 C -0.00136 0.46773 0.96478 0.0
H2033 H 0.93078 0.78759 0.22974 0.0
H2034 H 0.90348 0.73571 0.16545 0.0
H2035 H 0.8607 0.73584 0.17533 0.0
H2036 H 0.88903 0.76437 0.26985 0.0
H2037 H 0.88562 0.79426 0.2839 0.0
H2038 H 0.91365 0.79047 0.27119 0.0
H2039 H 0.90892 0.82569 0.24331 0.0
H2040 H 0.88095 0.82976 0.25612 0.0
H2041 H 0.88093 0.82386 0.22324 0.0
H2042 H 0.82111 0.73848 0.19581 0.0
H2043 H 0.78849 0.74775 0.22138 0.0
H2044 H 0.84218 0.80151 0.26886 0.0
C2045 C 0.91572 0.77652 0.21761 0.0
C2046 C 0.9202 0.76158 0.19692 0.0
C2047 C 0.90022 0.74737 0.18132 0.0
C2048 C 0.87596 0.74726 0.18687 0.0
C2049 C 0.87212 0.76196 0.20772 0.0
C2050 C 0.8915 0.77678 0.22246 0.0
C2051 C 0.88268 0.79127 0.24352 0.0
C2052 C 0.89338 0.78468 0.26859 0.0
C2053 C 0.88873 0.8193 0.24141 0.0
C2054 C 0.85537 0.78182 0.23881 0.0
C2055 C 0.84951 0.76476 0.21825 0.0
C2056 C 0.82546 0.75233 0.21153 0.0
C2057 C 0.80699 0.75779 0.22603 0.0
C2058 C 0.81264 0.77588 0.2466 0.0
C2059 C 0.83717 0.78791 0.25296 0.0
H2060 H 0.5172 0.38709 0.08283 0.0
H2061 H 0.49167 0.32776 0.02428 0.0
H2062 H 0.49142 0.35868 0.99385 0.0
H2063 H 0.48181 0.42853 0.06105 0.0
H2064 H 0.50422 0.45636 0.0685 0.0
H2065 H 0.50516 0.4306 0.08666 0.0
H2066 H 0.54935 0.428 0.07888 0.0
H2067 H 0.55054 0.45444 0.06138 0.0
H2068 H 0.55763 0.42588 0.04779 0.0
H2069 H 0.48952 0.39643 0.971 0.0
H2070 H 0.48898 0.43812 0.95702 0.0
H2071 H 0.51971 0.47176 0.02983 0.0
C2072 C 0.51169 0.3806 0.06358 0.0
C2073 C 0.50429 0.35516 0.0558 0.0
C2074 C 0.49739 0.34726 0.03049 0.0
C2075 C 0.49723 0.36464 0.01314 0.0
C2076 C 0.50456 0.38966 0.02144 0.0
C2077 C 0.51197 0.39757 0.04603 0.0
C2078 C 0.5184 0.42547 0.05035 0.0
C2079 C 0.5014 0.43584 0.06768 0.0
C2080 C 0.54559 0.43393 0.06019 0.0
C2081 C 0.51321 0.43208 0.0244 0.0
C2082 C 0.50498 0.41122 0.008 0.0
C2083 C 0.49653 0.41288 0.98352 0.0
C2084 C 0.49626 0.43653 0.97576 0.0
C2085 C 0.50483 0.45798 0.99234 0.0
C2086 C 0.51385 0.45568 0.01671 0.0
H2087 H 0.96912 0.29177 0.35919 0.0
H2088 H 0.95226 0.24299 0.41614 0.0
H2089 H 0.90862 0.23438 0.3987 0.0
H2090 H 0.91595 0.31868 0.35914 0.0
H2091 H 0.91282 0.32062 0.32632 0.0
H2092 H 0.94268 0.32155 0.34254 0.0
H2093 H 0.94927 0.28428 0.31317 0.0
H2094 H 0.91934 0.28317 0.29688 0.0
H2095 H 0.92711 0.25596 0.30975 0.0
H2096 H 0.86647 0.23254 0.37557 0.0
H2097 H 0.82938 0.23898 0.34983 0.0
H2098 H 0.87497 0.28907 0.30881 0.0
C2099 C 0.95638 0.27912 0.368 0.0
C2100 C 0.96412 0.26802 0.38902 0.0
C2101 C 0.94673 0.25171 0.4 0.0
C2102 C 0.92196 0.24664 0.39018 0.0
C2103 C 0.91502 0.25798 0.36941 0.0
C2104 C 0.93178 0.27391 0.35852 0.0
C2105 C 0.91972 0.28461 0.33702 0.0
C2106 C 0.92298 0.31304 0.34154 0.0
C2107 C 0.92944 0.27651 0.31277 0.0
C2108 C 0.8934 0.27255 0.33768 0.0
C2109 C 0.89099 0.25706 0.35631 0.0
C2110 C 0.86817 0.24451 0.36086 0.0
C2111 C 0.84726 0.24826 0.34619 0.0
C2112 C 0.8495 0.26451 0.32746 0.0
C2113 C 0.87284 0.27646 0.32297 0.0
H2114 H 0.03992 0.71515 0.60113 0.0
H2115 H 0.96924 0.73081 0.57225 0.0
H2116 H 0.96225 0.69204 0.54442 0.0
H2117 H 0.0557 0.68795 0.54263 0.0
H2118 H 0.0702 0.66499 0.55706 0.0
H2119 H 0.07022 0.69461 0.57386 0.0
H2120 H 0.04996 0.67253 0.60887 0.0
H2121 H 0.05015 0.64294 0.59225 0.0
H2122 H 0.02176 0.6506 0.60141 0.0
H2123 H 0.96088 0.64934 0.52351 0.0
H2124 H 0.96657 0.60688 0.50925 0.0
H2125 H 0.0394 0.62086 0.549 0.0
C2126 C 0.02306 0.71053 0.58881 0.0
C2127 C 0.00509 0.72595 0.58889 0.0
C2128 C 0.9833 0.71931 0.57244 0.0
C2129 C 0.97916 0.69734 0.55656 0.0
C2130 C 0.99718 0.68247 0.55706 0.0
C2131 C 0.0188 0.68889 0.57258 0.0
C2132 C 0.0349 0.66935 0.57003 0.0
C2133 C 0.05919 0.67986 0.56031 0.0
C2134 C 0.03945 0.6582 0.5946 0.0
C2135 C 0.01875 0.6507 0.55101 0.0
C2136 C 0.99699 0.65853 0.54385 0.0
C2137 C 0.9781 0.64328 0.52844 0.0
C2138 C 0.98145 0.61929 0.52042 0.0
C2139 C 0.00367 0.61113 0.52746 0.0
C2140 C 0.02265 0.62715 0.54257 0.0
H2141 H 0.59415 0.78253 0.87596 0.0
H2142 H 0.56131 0.7048 0.86077 0.0
H2143 H 0.58505 0.7014 0.82488 0.0
H2144 H 0.5961 0.79566 0.81106 0.0
H2145 H 0.62503 0.81654 0.81797 0.0
H2146 H 0.60369 0.81324 0.84086 0.0
H2147 H 0.63733 0.80194 0.87193 0.0
H2148 H 0.6587 0.80556 0.84925 0.0
H2149 H 0.65293 0.77682 0.86313 0.0
H2150 H 0.61581 0.70565 0.79379 0.0
H2151 H 0.65223 0.71674 0.77149 0.0
H2152 H 0.66265 0.79216 0.80593 0.0
C2153 C 0.59177 0.76481 0.86499 0.0
C2154 C 0.57601 0.74388 0.87112 0.0
C2155 C 0.57336 0.72104 0.85632 0.0
C2156 C 0.5866 0.719 0.83584 0.0
C2157 C 0.60196 0.74009 0.83026 0.0
C2158 C 0.6045 0.76257 0.8444 0.0
C2159 C 0.62331 0.78208 0.83564 0.0
C2160 C 0.61131 0.80312 0.82579 0.0
C2161 C 0.6443 0.79217 0.8562 0.0
C2162 C 0.63185 0.76679 0.81503 0.0
C2163 C 0.6191 0.7427 0.81191 0.0
C2164 C 0.62557 0.72456 0.79567 0.0
C2165 C 0.64619 0.73101 0.78306 0.0
C2166 C 0.65996 0.75531 0.78692 0.0
C2167 C 0.6521 0.77357 0.8023 0.0
H2168 H 0.41622 0.53402 0.67153 0.0
H2169 H 0.38306 0.59442 0.6453 0.0
H2170 H 0.41084 0.59778 0.61232 0.0
H2171 H 0.47823 0.55539 0.65913 0.0
H2172 H 0.48359 0.52505 0.64842 0.0
H2173 H 0.46213 0.52824 0.67074 0.0
H2174 H 0.42792 0.49866 0.64213 0.0
H2175 H 0.44936 0.49514 0.6199 0.0
H2176 H 0.42094 0.50537 0.61083 0.0
H2177 H 0.44367 0.59584 0.58387 0.0
H2178 H 0.47325 0.58376 0.55635 0.0
H2179 H 0.48237 0.52177 0.59853 0.0
C2180 C 0.41491 0.54799 0.65886 0.0
C2181 C 0.39779 0.56421 0.66102 0.0
C2182 C 0.39614 0.58191 0.64388 0.0
C2183 C 0.41194 0.58404 0.62527 0.0
C2184 C 0.42887 0.56797 0.62384 0.0
C2185 C 0.43003 0.54988 0.63978 0.0
C2186 C 0.44854 0.53371 0.63307 0.0
C2187 C 0.46935 0.53573 0.6541 0.0
C2188 C 0.43593 0.50662 0.62606 0.0
C2189 C 0.45772 0.5456 0.6109 0.0
C2190 C 0.44654 0.56569 0.60628 0.0
C2191 C 0.45238 0.58002 0.58716 0.0
C2192 C 0.46944 0.57314 0.57179 0.0
C2193 C 0.48024 0.55189 0.57539 0.0
C2194 C 0.47446 0.53813 0.5954 0.0
H2195 H 0.8123 0.23894 0.94311 0.0
H2196 H 0.76869 0.16589 0.92201 0.0
H2197 H 0.75443 0.17927 0.88214 0.0
H2198 H 0.77118 0.27452 0.91444 0.0
H2199 H 0.79478 0.29622 0.90349 0.0
H2200 H 0.80161 0.28125 0.93073 0.0
H2201 H 0.83728 0.26486 0.91112 0.0
H2202 H 0.83064 0.27995 0.8839 0.0
H2203 H 0.83127 0.24717 0.8813 0.0
H2204 H 0.74217 0.20134 0.84573 0.0
H2205 H 0.73723 0.22917 0.81301 0.0
H2206 H 0.79194 0.28648 0.85485 0.0
C2207 C 0.79985 0.22579 0.93002 0.0
C2208 C 0.79157 0.20135 0.93579 0.0
C2209 C 0.77542 0.18464 0.91804 0.0
C2210 C 0.76708 0.1921 0.89534 0.0
C2211 C 0.77539 0.21627 0.89024 0.0
C2212 C 0.79181 0.23275 0.90681 0.0
C2213 C 0.79854 0.25734 0.89612 0.0
C2214 C 0.79108 0.27859 0.91215 0.0
C2215 C 0.82607 0.26263 0.89292 0.0
C2216 C 0.78299 0.25219 0.87128 0.0
C2217 C 0.76957 0.22846 0.86841 0.0
C2218 C 0.75299 0.21979 0.84755 0.0
C2219 C 0.75036 0.23565 0.82896 0.0
C2220 C 0.7646 0.25969 0.831 0.0
C2221 C 0.78102 0.26805 0.85258 0.0
H2222 H 0.04678 0.49677 0.20793 0.0
H2223 H 0.09227 0.44396 0.18495 0.0
H2224 H 0.07763 0.44633 0.14145 0.0
H2225 H 0.99503 0.47713 0.15774 0.0
H2226 H 0.99078 0.50852 0.15428 0.0
H2227 H 0.00193 0.50024 0.18391 0.0
H2228 H 0.0399 0.53498 0.18579 0.0
H2229 H 0.02899 0.54324 0.15612 0.0
H2230 H 0.0592 0.53543 0.16104 0.0
H2231 H 0.06189 0.45693 0.10107 0.0
H2232 H 0.04575 0.47528 0.06502 0.0
H2233 H 0.01047 0.52265 0.11244 0.0
C2234 C 0.05297 0.48516 0.1937 0.0
C2235 C 0.07031 0.46979 0.19973 0.0
C2236 C 0.07879 0.45559 0.18067 0.0
C2237 C 0.07056 0.45681 0.15593 0.0
C2238 C 0.05398 0.47252 0.15047 0.0
C2239 C 0.04518 0.48648 0.16869 0.0
C2240 C 0.02917 0.50353 0.15738 0.0
C2241 C 0.00265 0.49695 0.1637 0.0
C2242 C 0.03997 0.53091 0.16557 0.0
C2243 C 0.03078 0.49722 0.13005 0.0
C2244 C 0.04505 0.47911 0.12667 0.0
C2245 C 0.05047 0.47093 0.10343 0.0
C2246 C 0.04129 0.48162 0.08305 0.0
C2247 C 0.02678 0.5004 0.08583 0.0
C2248 C 0.0212 0.50809 0.10969 0.0
H2249 H 0.76569 0.86875 0.47485 0.0
H2250 H 0.76071 0.94094 0.44985 0.0
H2251 H 0.76629 0.92505 0.4078 0.0
H2252 H 0.81133 0.85274 0.43319 0.0
H2253 H 0.79694 0.8206 0.42804 0.0
H2254 H 0.79555 0.83824 0.45699 0.0
H2255 H 0.7481 0.82683 0.45123 0.0
H2256 H 0.74931 0.80927 0.42227 0.0
H2257 H 0.73139 0.83377 0.42356 0.0
H2258 H 0.76746 0.90106 0.36843 0.0
H2259 H 0.76508 0.87003 0.33296 0.0
H2260 H 0.77022 0.81273 0.38225 0.0
C2261 C 0.76632 0.88135 0.46064 0.0
C2262 C 0.76284 0.90614 0.46566 0.0
C2263 C 0.76334 0.92192 0.44647 0.0
C2264 C 0.7666 0.91309 0.42253 0.0
C2265 C 0.76947 0.88849 0.4181 0.0
C2266 C 0.76952 0.87281 0.43654 0.0
C2267 C 0.77117 0.84668 0.42626 0.0
C2268 C 0.79518 0.83912 0.43675 0.0
C2269 C 0.74865 0.82805 0.43112 0.0
C2270 C 0.77124 0.85003 0.39904 0.0
C2271 C 0.77047 0.87442 0.39494 0.0
C2272 C 0.76851 0.88202 0.37138 0.0
C2273 C 0.76704 0.86422 0.35137 0.0
C2274 C 0.76767 0.83912 0.355 0.0
C2275 C 0.7702 0.83193 0.37912 0.0
H2276 H 0.43349 0.52329 0.79465 0.0
H2277 H 0.37863 0.56987 0.8056 0.0
H2278 H 0.39286 0.57669 0.85013 0.0
H2279 H 0.42793 0.49367 0.84927 0.0
H2280 H 0.46023 0.49274 0.85497 0.0
H2281 H 0.44637 0.4926 0.82391 0.0
H2282 H 0.47814 0.53131 0.81794 0.0
H2283 H 0.49206 0.5316 0.84904 0.0
H2284 H 0.48136 0.55881 0.83917 0.0
H2285 H 0.41232 0.57702 0.89404 0.0
H2286 H 0.43496 0.57001 0.93338 0.0
H2287 H 0.47671 0.52361 0.89275 0.0
C2288 C 0.4245 0.53504 0.80633 0.0
C2289 C 0.40494 0.54602 0.7966 0.0
C2290 C 0.39367 0.56123 0.81261 0.0
C2291 C 0.40166 0.56528 0.83793 0.0
C2292 C 0.42097 0.55409 0.84689 0.0
C2293 C 0.43223 0.5393 0.83153 0.0
C2294 C 0.45209 0.52878 0.84572 0.0
C2295 C 0.44629 0.50026 0.84333 0.0
C2296 C 0.47741 0.5382 0.83747 0.0
C2297 C 0.45003 0.53964 0.87153 0.0
C2298 C 0.43211 0.55433 0.87192 0.0
C2299 C 0.4265 0.56569 0.89393 0.0
C2300 C 0.4394 0.56164 0.91613 0.0
C2301 C 0.45752 0.54634 0.91595 0.0
C2302 C 0.46302 0.53551 0.89337 0.0
H2303 H 0.76538 0.19611 0.09789 0.0
H2304 H 0.84216 0.22413 0.09308 0.0
H2305 H 0.84505 0.24744 0.13446 0.0
H2306 H 0.75181 0.25367 0.12984 0.0
H2307 H 0.73049 0.23655 0.14777 0.0
H2308 H 0.73472 0.22374 0.11742 0.0
H2309 H 0.74432 0.18451 0.13597 0.0
H2310 H 0.74193 0.19719 0.16687 0.0
H2311 H 0.76974 0.18677 0.15943 0.0
H2312 H 0.8401 0.26355 0.179 0.0
H2313 H 0.82643 0.27648 0.21926 0.0
H2314 H 0.7521 0.2405 0.19301 0.0
C2315 C 0.78263 0.20772 0.1053 0.0
C2316 C 0.80351 0.20861 0.09224 0.0
C2317 C 0.82587 0.22361 0.10262 0.0
C2318 C 0.82769 0.23669 0.1262 0.0
C2319 C 0.80684 0.23489 0.13891 0.0
C2320 C 0.78456 0.22128 0.12846 0.0
C2321 C 0.76484 0.22223 0.14575 0.0
C2322 C 0.74425 0.2348 0.13452 0.0
C2323 C 0.75461 0.19614 0.15241 0.0
C2324 C 0.7795 0.23817 0.16781 0.0
C2325 C 0.80378 0.24505 0.16372 0.0
C2326 C 0.82103 0.25864 0.18213 0.0
C2327 C 0.81316 0.2658 0.20499 0.0
C2328 C 0.78818 0.25983 0.20908 0.0
C2329 C 0.77124 0.24574 0.19021 0.0
H2330 H 0.03414 0.47881 0.34292 0.0
H2331 H 0.10557 0.52585 0.35743 0.0
H2332 H 0.09681 0.53753 0.40001 0.0
H2333 H 0.00079 0.51618 0.37592 0.0
H2334 H 0.9818 0.49139 0.38842 0.0
H2335 H 0.99414 0.48553 0.35967 0.0
H2336 H 0.0144 0.45045 0.37715 0.0
H2337 H 0.00164 0.45594 0.40577 0.0
H2338 H 0.03424 0.45693 0.40573 0.0
H2339 H 0.07753 0.54873 0.43857 0.0
H2340 H 0.05217 0.55327 0.47291 0.0
H2341 H 0.99553 0.49474 0.43575 0.0
C2342 C 0.0481 0.49107 0.35534 0.0
C2343 C 0.07061 0.50133 0.34715 0.0
C2344 C 0.08839 0.51758 0.36362 0.0
C2345 C 0.0835 0.5244 0.38773 0.0
C2346 C 0.06093 0.51436 0.39519 0.0
C2347 C 0.04378 0.4975 0.37971 0.0
C2348 C 0.021 0.48939 0.39234 0.0
C2349 C -0.00191 0.49603 0.37824 0.0
C2350 C 0.01764 0.46152 0.39544 0.0
C2351 C 0.02769 0.50487 0.41702 0.0
C2352 C 0.05068 0.51937 0.41818 0.0
C2353 C 0.05988 0.53685 0.4382 0.0
C2354 C 0.04542 0.53922 0.45771 0.0
C2355 C 0.02235 0.52372 0.45746 0.0
C2356 C 0.01338 0.50642 0.43674 0.0
H2357 H 0.77862 0.86921 0.62072 0.0
H2358 H 0.71199 0.83089 0.5772 0.0
H2359 H 0.70595 0.80084 0.60839 0.0
H2360 H 0.79866 0.81236 0.64144 0.0
H2361 H 0.81134 0.82786 0.67127 0.0
H2362 H 0.811 0.84506 0.64463 0.0
H2363 H 0.78759 0.87591 0.6669 0.0
H2364 H 0.78774 0.85874 0.69347 0.0
H2365 H 0.75908 0.86426 0.67863 0.0
H2366 H 0.70416 0.7794 0.6478 0.0
H2367 H 0.71013 0.76459 0.6893 0.0
H2368 H 0.78017 0.8142 0.7039 0.0
C2369 C 0.76303 0.85419 0.6176 0.0
C2370 C 0.74571 0.85225 0.59678 0.0
C2371 C 0.72551 0.83245 0.59309 0.0
C2372 C 0.72191 0.8154 0.61069 0.0
C2373 C 0.73909 0.81812 0.6314 0.0
C2374 C 0.75959 0.83665 0.63456 0.0
C2375 C 0.77519 0.83582 0.65847 0.0
C2376 C 0.80055 0.82991 0.65366 0.0
C2377 C 0.77751 0.86012 0.67535 0.0
C2378 C 0.75984 0.8145 0.66869 0.0
C2379 C 0.73896 0.80459 0.65301 0.0
C2380 C 0.7208 0.78649 0.65992 0.0
C2381 C 0.72423 0.77826 0.68344 0.0
C2382 C 0.74585 0.78786 0.69929 0.0
C2383 C 0.76386 0.80598 0.69169 0.0
H2384 H 0.67296 0.46251 0.55888 0.0
H2385 H 0.62847 0.38992 0.53751 0.0
H2386 H 0.5912 0.40916 0.53429 0.0
H2387 H 0.62817 0.48808 0.59501 0.0
H2388 H 0.63598 0.51854 0.58495 0.0
H2389 H 0.65885 0.49886 0.58765 0.0
H2390 H 0.66651 0.50319 0.54213 0.0
H2391 H 0.64367 0.52279 0.53926 0.0
H2392 H 0.64107 0.49519 0.51831 0.0
H2393 H 0.5597 0.43664 0.52866 0.0
H2394 H 0.53574 0.46986 0.52288 0.0
H2395 H 0.59973 0.52506 0.55018 0.0
C2396 C 0.65533 0.45057 0.55392 0.0
C2397 C 0.65366 0.42461 0.54848 0.0
C2398 C 0.63024 0.40976 0.54188 0.0
C2399 C 0.60897 0.42056 0.53999 0.0
C2400 C 0.61136 0.44623 0.54503 0.0
C2401 C 0.63391 0.46103 0.55211 0.0
C2402 C 0.63155 0.48826 0.55543 0.0
C2403 C 0.63908 0.49907 0.58237 0.0
C2404 C 0.64659 0.50323 0.53772 0.0
C2405 C 0.60418 0.48655 0.54851 0.0
C2406 C 0.59294 0.46208 0.54264 0.0
C2407 C 0.56819 0.45577 0.53385 0.0
C2408 C 0.55462 0.47486 0.53082 0.0
C2409 C 0.56552 0.50009 0.5369 0.0
C2410 C 0.59067 0.50596 0.54607 0.0
H2411 H 0.15027 0.10877 0.44428 0.0
H2412 H 0.18827 0.04601 0.44751 0.0
H2413 H 0.14932 0.01872 0.45176 0.0
H2414 H 0.11462 0.09487 0.48975 0.0
H2415 H 0.0872 0.10429 0.47628 0.0
H2416 H 0.11667 0.11805 0.46821 0.0
H2417 H 0.10228 0.10484 0.42193 0.0
H2418 H 0.07256 0.09127 0.42986 0.0
H2419 H 0.08981 0.07281 0.41188 0.0
H2420 H 0.10895 1.00029 0.46401 0.0
H2421 H 0.06859 0.99124 0.48004 0.0
H2422 H 0.05606 0.06528 0.46759 0.0
C2423 C 0.15018 0.08911 0.44487 0.0
C2424 C 0.17223 0.07946 0.44547 0.0
C2425 C 0.17154 0.05376 0.44694 0.0
C2426 C 0.1495 0.03809 0.44931 0.0
C2427 C 0.12825 0.04835 0.44988 0.0
C2428 C 0.12827 0.07319 0.44727 0.0
C2429 C 0.10348 0.08003 0.45115 0.0
C2430 C 0.10564 0.10051 0.47262 0.0
C2431 C 0.09131 0.08768 0.42728 0.0
C2432 C 0.09 0.05551 0.45753 0.0
C2433 C 0.10452 0.0374 0.45646 0.0
C2434 C 0.0971 0.01406 0.46424 0.0
C2435 C 0.07427 0.00913 0.47346 0.0
C2436 C 0.05916 0.02743 0.47468 0.0
C2437 C 0.06699 0.05072 0.46621 0.0
H2438 H 0.21923 0.9487 0.79813 0.0
H2439 H 0.16306 0.92198 0.73709 0.0
H2440 H 0.18576 0.88896 0.72434 0.0
H2441 H 0.27268 0.93361 0.76884 0.0
H2442 H 0.28618 0.92267 0.79616 0.0
H2443 H 0.26742 0.94637 0.79889 0.0
H2444 H 0.23962 0.91945 0.82539 0.0
H2445 H 0.25786 0.89534 0.82265 0.0
H2446 H 0.22533 0.88852 0.81297 0.0
H2447 H 0.21413 0.85942 0.71781 0.0
H2448 H 0.24213 0.8294 0.7224 0.0
H2449 H 0.27768 0.87126 0.79055 0.0
C2450 C 0.21199 0.93602 0.78194 0.0
C2451 C 0.1896 0.93792 0.76838 0.0
C2452 C 0.18021 0.92073 0.74767 0.0
C2453 C 0.19308 0.90211 0.74015 0.0
C2454 C 0.21512 0.90067 0.7538 0.0
C2455 C 0.2243 0.91676 0.77455 0.0
C2456 C 0.24677 0.90903 0.78756 0.0
C2457 C 0.26962 0.92912 0.78787 0.0
C2458 C 0.24216 0.90273 0.81374 0.0
C2459 C 0.24858 0.88603 0.77096 0.0
C2460 C 0.23052 0.88209 0.75122 0.0
C2461 C 0.22823 0.86216 0.73329 0.0
C2462 C 0.24421 0.8452 0.73609 0.0
C2463 C 0.26167 0.84776 0.75708 0.0
C2464 C 0.26438 0.86883 0.77439 0.0
H2465 H 0.29567 0.95955 0.99143 0.0
H2466 H 0.29439 0.91871 0.05607 0.0
H2467 H 0.33892 0.93373 0.06644 0.0
H2468 H 0.35351 0.94724 0.97502 0.0
H2469 H 0.36259 0.97737 0.96468 0.0
H2470 H 0.33055 0.96403 0.96293 0.0
H2471 H 0.3224 0.00304 0.98861 0.0
H2472 H 0.35446 0.01647 0.99053 0.0
H2473 H 0.33969 0.01284 0.0183 0.0
H2474 H 0.38362 0.95328 0.06966 0.0
H2475 H 0.42556 0.97384 0.06416 0.0
H2476 H 0.39749 0.00108 0.99698 0.0
C2477 C 0.30468 0.9538 0.00784 0.0
C2478 C 0.2915 0.93801 0.023 0.0
C2479 C 0.3041 0.93077 0.04416 0.0
C2480 C 0.32936 0.93928 0.05025 0.0
C2481 C 0.34173 0.95491 0.03494 0.0
C2482 C 0.32984 0.96197 0.01408 0.0
C2483 C 0.34745 0.97826 0.00025 0.0
C2484 C 0.34859 0.96599 0.97418 0.0
C2485 C 0.34059 0.00419 0.99938 0.0
C2486 C 0.37119 0.9792 0.01651 0.0
C2487 C 0.36748 0.96579 0.03654 0.0
C2488 C 0.38674 0.96381 0.05405 0.0
C2489 C 0.41045 0.97555 0.05079 0.0
C2490 C 0.41465 0.98896 0.03014 0.0
C2491 C 0.39473 0.99097 0.01295 0.0
H2492 H 0.86489 0.655 0.73619 0.0
H2493 H 0.83612 0.60523 0.78821 0.0
H2494 H 0.80847 0.63374 0.80018 0.0
H2495 H 0.86012 0.71432 0.77144 0.0
H2496 H 0.84967 0.72784 0.74434 0.0
H2497 H 0.86953 0.70515 0.7419 0.0
H2498 H 0.83742 0.67891 0.7084 0.0
H2499 H 0.81758 0.70157 0.71136 0.0
H2500 H 0.80634 0.66962 0.71539 0.0
H2501 H 0.78348 0.66554 0.80593 0.0
H2502 H 0.75885 0.6984 0.80328 0.0
H2503 H 0.80046 0.7283 0.7458 0.0
C2504 C 0.85298 0.65045 0.75034 0.0
C2505 C 0.85272 0.62808 0.76155 0.0
C2506 C 0.83655 0.62229 0.77951 0.0
C2507 C 0.8209 0.63842 0.78652 0.0
C2508 C 0.82132 0.66016 0.77509 0.0
C2509 C 0.83663 0.66622 0.75719 0.0
C2510 C 0.83143 0.68982 0.74647 0.0
C2511 C 0.85406 0.7105 0.75136 0.0
C2512 C 0.82267 0.68466 0.71876 0.0
C2513 C 0.81083 0.69587 0.76119 0.0
C2514 C 0.80571 0.67851 0.77773 0.0
C2515 C 0.78728 0.67929 0.79309 0.0
C2516 C 0.77331 0.69805 0.79133 0.0
C2517 C 0.77757 0.71584 0.77421 0.0
C2518 C 0.79686 0.71499 0.75911 0.0
H2519 H 0.83152 0.61453 0.01598 0.0
H2520 H 0.78174 0.54821 0.02882 0.0
H2521 H 0.81679 0.53046 0.04585 0.0
H2522 H 0.87759 0.58437 0.99559 0.0
H2523 H 0.90278 0.60762 0.00998 0.0
H2524 H 0.87353 0.61614 0.0013 0.0
H2525 H 0.87265 0.63469 0.0463 0.0
H2526 H 0.90182 0.62583 0.0551 0.0
H2527 H 0.87571 0.61553 0.07121 0.0
H2528 H 0.85699 0.518 0.05736 0.0
H2529 H 0.89995 0.51103 0.06029 0.0
H2530 H 0.92363 0.58569 0.04147 0.0
C2531 C 0.82795 0.59639 0.02261 0.0
C2532 C 0.80385 0.58281 0.02106 0.0
C2533 C 0.80002 0.55903 0.0298 0.0
C2534 C 0.81979 0.54883 0.0397 0.0
C2535 C 0.84328 0.5627 0.04097 0.0
C2536 C 0.84749 0.58595 0.03266 0.0
C2537 C 0.87468 0.59614 0.03436 0.0
C2538 C 0.8826 0.60135 0.00879 0.0
C2539 C 0.88161 0.61943 0.05284 0.0
C2540 C 0.88507 0.57456 0.04398 0.0
C2541 C 0.86665 0.55561 0.04806 0.0
C2542 C 0.87163 0.53286 0.05473 0.0
C2543 C 0.89603 0.52907 0.0564 0.0
C2544 C 0.91497 0.54794 0.0514 0.0
C2545 C 0.90951 0.5712 0.04599 0.0
H2546 H 0.15335 0.10581 0.79005 0.0
H2547 H 0.20918 0.06662 0.76405 0.0
H2548 H 0.23595 0.10676 0.7609 0.0
H2549 H 0.16025 0.15348 0.75215 0.0
H2550 H 0.15596 0.17755 0.77493 0.0
H2551 H 0.14222 0.1459 0.7771 0.0
H2552 H 0.16403 0.14809 0.82138 0.0
H2553 H 0.17777 0.17985 0.81936 0.0
H2554 H 0.1969 0.15741 0.82676 0.0
H2555 H 0.25355 0.15089 0.7546 0.0
H2556 H 0.26276 0.1959 0.75015 0.0
H2557 H 0.19741 0.20645 0.78416 0.0
C2558 C 0.17139 0.1057 0.78409 0.0
C2559 C 0.17923 0.08318 0.77719 0.0
C2560 C 0.20293 0.08371 0.76954 0.0
C2561 C 0.21821 0.1064 0.76766 0.0
C2562 C 0.2097 0.12831 0.77411 0.0
C2563 C 0.18705 0.12814 0.78268 0.0
C2564 C 0.18196 0.15421 0.78788 0.0
C2565 C 0.15873 0.15799 0.77207 0.0
C2566 C 0.18006 0.16024 0.81549 0.0
C2567 C 0.20487 0.16909 0.78 0.0
C2568 C 0.22062 0.15381 0.77201 0.0
C2569 C 0.24172 0.16308 0.76145 0.0
C2570 C 0.24678 0.18857 0.75893 0.0
C2571 C 0.23107 0.20447 0.76737 0.0
C2572 C 0.21007 0.19467 0.77832 0.0
H2573 H 0.39071 0.96345 0.26752 0.0
H2574 H 0.33609 0.00509 0.23936 0.0
H2575 H 0.30378 0.96814 0.23888 0.0
H2576 H 0.36584 0.90536 0.23336 0.0
H2577 H 0.37283 0.88724 0.25823 0.0
H2578 H 0.39149 0.91694 0.25629 0.0
H2579 H 0.38341 0.93149 0.30058 0.0
H2580 H 0.36471 0.90182 0.30266 0.0
H2581 H 0.35225 0.92983 0.30793 0.0
H2582 H 0.27797 0.92566 0.23904 0.0
H2583 H 0.26015 0.88195 0.24304 0.0
H2584 H 0.33126 0.86938 0.27394 0.0
C2585 C 0.37195 0.9648 0.26123 0.0
C2586 C 0.36589 0.98705 0.2533 0.0
C2587 C 0.3411 0.98819 0.24553 0.0
C2588 C 0.32266 0.96731 0.24514 0.0
C2589 C 0.32929 0.9456 0.25298 0.0
C2590 C 0.3533 0.94432 0.26117 0.0
C2591 C 0.35556 0.91897 0.26908 0.0
C2592 C 0.37242 0.90639 0.25329 0.0
C2593 C 0.36451 0.92064 0.2967 0.0
C2594 C 0.32913 0.90605 0.26374 0.0
C2595 C 0.31427 0.92164 0.25427 0.0
C2596 C 0.28936 0.91341 0.24677 0.0
C2597 C 0.27941 0.88861 0.24908 0.0
C2598 C 0.2943 0.87256 0.25911 0.0
C2599 C 0.3194 0.88145 0.26662 0.0
H2600 H 0.49482 0.36217 0.63543 0.0
H2601 H 0.47229 0.30158 0.57762 0.0
H2602 H 0.46679 0.33168 0.54728 0.0
H2603 H 0.4542 0.40271 0.61331 0.0
H2604 H 0.47676 0.43046 0.62144 0.0
H2605 H 0.47752 0.4041 0.63882 0.0
H2606 H 0.5226 0.40372 0.63025 0.0
H2607 H 0.52199 0.43013 0.61296 0.0
H2608 H 0.53007 0.40221 0.59886 0.0
H2609 H 0.46398 0.36865 0.52316 0.0
H2610 H 0.46731 0.40968 0.50678 0.0
H2611 H 0.49351 0.44563 0.58012 0.0
C2612 C 0.48852 0.35524 0.61643 0.0
C2613 C 0.48381 0.32957 0.60888 0.0
C2614 C 0.47599 0.3212 0.58378 0.0
C2615 C 0.47271 0.33813 0.56644 0.0
C2616 C 0.47755 0.36335 0.57448 0.0
C2617 C 0.48551 0.37187 0.59884 0.0
C2618 C 0.49077 0.39991 0.60249 0.0
C2619 C 0.47379 0.40987 0.62005 0.0
C2620 C 0.51797 0.40955 0.61168 0.0
C2621 C 0.4846 0.40582 0.57639 0.0
C2622 C 0.47672 0.38453 0.56052 0.0
C2623 C 0.47012 0.38545 0.53542 0.0
C2624 C 0.47199 0.40876 0.52629 0.0
C2625 C 0.48065 0.43067 0.54222 0.0
C2626 C 0.48681 0.42912 0.56756 0.0
H2627 H 0.43281 0.76309 0.3359 0.0
H2628 H 0.46907 0.80943 0.28482 0.0
H2629 H 0.43065 0.80357 0.25745 0.0
H2630 H 0.39113 0.71967 0.28802 0.0
H2631 H 0.36572 0.7173 0.30643 0.0
H2632 H 0.39677 0.72268 0.3212 0.0
H2633 H 0.38858 0.762 0.34625 0.0
H2634 H 0.35756 0.75668 0.33161 0.0
H2635 H 0.37734 0.78591 0.33017 0.0
H2636 H 0.38806 0.7975 0.23798 0.0
H2637 H 0.34311 0.79041 0.22718 0.0
H2638 H 0.33343 0.7465 0.28896 0.0
C2639 C 0.43273 0.77155 0.31871 0.0
C2640 C 0.45405 0.78675 0.31261 0.0
C2641 C 0.45304 0.79782 0.29009 0.0
C2642 C 0.43129 0.7945 0.27426 0.0
C2643 C 0.41054 0.77991 0.28097 0.0
C2644 C 0.41097 0.76845 0.30254 0.0
C2645 C 0.38544 0.75513 0.30595 0.0
C2646 C 0.38473 0.72702 0.30536 0.0
C2647 C 0.37672 0.76556 0.32991 0.0
C2648 C 0.37069 0.76156 0.28332 0.0
C2649 C 0.38564 0.77575 0.26912 0.0
C2650 C 0.37617 0.78592 0.24858 0.0
C2651 C 0.35067 0.78182 0.24257 0.0
C2652 C 0.33497 0.76746 0.25687 0.0
C2653 C 0.34515 0.75682 0.27722 0.0
H2654 H 0.97978 0.68703 0.10467 0.0
H2655 H 0.01514 0.67053 0.17405 0.0
H2656 H 0.02377 0.63187 0.15369 0.0
H2657 H 0.95253 0.62064 0.08244 0.0
H2658 H 0.95723 0.62544 0.05093 0.0
H2659 H 0.9514 0.65056 0.07157 0.0
H2660 H 0.99155 0.67756 0.06165 0.0
H2661 H 0.99757 0.65231 0.0414 0.0
H2662 H 0.02018 0.66636 0.06651 0.0
H2663 H 0.03403 0.59856 0.1253 0.0
H2664 H 0.04156 0.56993 0.09073 0.0
H2665 H 0.99707 0.60516 0.03992 0.0
C2666 C 0.98888 0.67502 0.11566 0.0
C2667 C 0.99679 0.68192 0.14099 0.0
C2668 C 0.00876 0.66571 0.15468 0.0
C2669 C 0.01379 0.64364 0.14328 0.0
C2670 C 0.00631 0.63768 0.11824 0.0
C2671 C 0.99366 0.65256 0.10463 0.0
C2672 C 0.98852 0.64208 0.07774 0.0
C2673 C 0.96077 0.63421 0.07024 0.0
C2674 C 0.00016 0.66069 0.06084 0.0
C2675 C 0.00124 0.6197 0.07828 0.0
C2676 C 0.01132 0.61753 0.10188 0.0
C2677 C 0.02579 0.59971 0.10682 0.0
C2678 C 0.03011 0.58367 0.0871 0.0
C2679 C 0.01972 0.58534 0.06288 0.0
C2680 C 0.00483 0.60333 0.05843 0.0
H2681 H 0.11044 0.28062 0.85093 0.0
H2682 H 0.06563 0.32138 0.80627 0.0
H2683 H 0.0964 0.32516 0.77635 0.0
H2684 H 0.16948 0.3132 0.84024 0.0
H2685 H 0.18388 0.28607 0.83758 0.0
H2686 H 0.15924 0.28703 0.85665 0.0
H2687 H 0.13394 0.24727 0.83295 0.0
H2688 H 0.15858 0.24508 0.81416 0.0
H2689 H 0.12807 0.24528 0.79983 0.0
H2690 H 0.13104 0.32298 0.75037 0.0
H2691 H 0.16677 0.31394 0.72958 0.0
H2692 H 0.18818 0.27319 0.7902 0.0
C2693 C 0.10737 0.29069 0.83505 0.0
C2694 C 0.08587 0.30099 0.83099 0.0
C2695 C 0.08209 0.31348 0.80972 0.0
C2696 C 0.09946 0.31575 0.79266 0.0
C2697 C 0.12035 0.30512 0.79698 0.0
C2698 C 0.12429 0.29265 0.81753 0.0
C2699 C 0.14748 0.28157 0.81698 0.0
C2700 C 0.16616 0.29264 0.83917 0.0
C2701 C 0.14166 0.25312 0.81591 0.0
C2702 C 0.15599 0.28988 0.79298 0.0
C2703 C 0.14013 0.30351 0.78178 0.0
C2704 C 0.14369 0.31246 0.75902 0.0
C2705 C 0.16395 0.30721 0.74733 0.0
C2706 C 0.18026 0.29309 0.75839 0.0
C2707 C 0.1762 0.28438 0.78151 0.0
H2708 H 0.54392 0.70015 0.98758 0.0
H2709 H 0.46812 0.69551 0.95717 0.0
H2710 H 0.45698 0.65601 0.97507 0.0
H2711 H 0.54667 0.63837 0.97426 0.0
H2712 H 0.5657 0.635 0.00183 0.0
H2713 H 0.56752 0.66479 0.99008 0.0
H2714 H 0.55779 0.68442 0.03189 0.0
H2715 H 0.55647 0.65479 0.04405 0.0
H2716 H 0.5308 0.67093 0.04517 0.0
H2717 H 0.45519 0.61455 0.99073 0.0
H2718 H 0.46255 0.57495 0.00596 0.0
H2719 H 0.5391 0.6069 0.02704 0.0
C2720 C 0.52486 0.6912 0.98533 0.0
C2721 C 0.50686 0.70092 0.97111 0.0
C2722 C 0.48219 0.68842 0.9681 0.0
C2723 C 0.47567 0.66599 0.9782 0.0
C2724 C 0.494 0.65646 0.99141 0.0
C2725 C 0.51804 0.66878 0.99527 0.0
C2726 C 0.53456 0.65359 0.00849 0.0
C2727 C 0.55479 0.6476 0.99271 0.0
C2728 C 0.54554 0.66671 0.03391 0.0
C2729 C 0.51614 0.63058 0.01085 0.0
C2730 C 0.49284 0.63262 0.00094 0.0
C2731 C 0.47322 0.61291 0.99904 0.0
C2732 C 0.47757 0.59051 0.00754 0.0
C2733 C 0.50127 0.5882 0.01778 0.0
C2734 C 0.52068 0.60852 0.01974 0.0
H2735 H 0.08691 0.802 0.63227 0.0
H2736 H 0.07004 0.86377 0.67797 0.0
H2737 H 0.1081 0.86476 0.7056 0.0
H2738 H 0.10281 0.7706 0.6793 0.0
H2739 H 0.12721 0.75778 0.66634 0.0
H2740 H 0.10288 0.76586 0.64632 0.0
H2741 H 0.13422 0.79478 0.62485 0.0
H2742 H 0.15884 0.7862 0.64427 0.0
H2743 H 0.15648 0.81842 0.64321 0.0
H2744 H 0.1439 0.85474 0.73151 0.0
H2745 H 0.17597 0.83544 0.75298 0.0
H2746 H 0.16717 0.77812 0.69184 0.0
C2747 C 0.09201 0.81658 0.64732 0.0
C2748 C 0.07612 0.83327 0.65277 0.0
C2749 C 0.08246 0.85126 0.67334 0.0
C2750 C 0.10394 0.85187 0.68912 0.0
C2751 C 0.11858 0.83419 0.68408 0.0
C2752 C 0.11304 0.81701 0.66353 0.0
C2753 C 0.12959 0.79777 0.6642 0.0
C2754 C 0.11472 0.77147 0.66404 0.0
C2755 C 0.14575 0.7994 0.64287 0.0
C2756 C 0.14464 0.80623 0.68875 0.0
C2757 C 0.13837 0.82752 0.69972 0.0
C2758 C 0.14915 0.83822 0.72297 0.0
C2759 C 0.16711 0.82702 0.73512 0.0
C2760 C 0.17369 0.80521 0.7241 0.0
C2761 C 0.16227 0.7947 0.70071 0.0
H2762 H 0.02142 0.36409 0.44384 0.0
H2763 H 0.06376 0.34045 0.50523 0.0
H2764 H 0.06025 0.37891 0.53092 0.0
H2765 H 0.04457 0.42845 0.45369 0.0
H2766 H 0.01542 0.43763 0.44568 0.0
H2767 H 0.02156 0.40858 0.43228 0.0
H2768 H 0.98265 0.38526 0.44834 0.0
H2769 H 0.97621 0.41426 0.46166 0.0
H2770 H 0.97884 0.38938 0.48069 0.0
H2771 H 0.05512 0.42223 0.54804 0.0
H2772 H 0.04532 0.46446 0.55642 0.0
H2773 H 0.00209 0.45611 0.48532 0.0
C2774 C 0.03005 0.3671 0.46267 0.0
C2775 C 0.04321 0.34973 0.47259 0.0
C2776 C 0.05377 0.35381 0.49741 0.0
C2777 C 0.05184 0.3755 0.51205 0.0
C2778 C 0.0387 0.39237 0.50165 0.0
C2779 C 0.02765 0.38813 0.47764 0.0
C2780 C 0.01396 0.40861 0.47091 0.0
C2781 C 0.02452 0.42157 0.44937 0.0
C2782 C 0.98627 0.39878 0.46507 0.0
C2783 C 0.01943 0.42539 0.4947 0.0
C2784 C 0.03396 0.41595 0.51218 0.0
C2785 C 0.04323 0.42949 0.53475 0.0
C2786 C 0.0376 0.45333 0.53938 0.0
C2787 C 0.02239 0.46286 0.52178 0.0
C2788 C 0.013 0.44865 0.49938 0.0
H2789 H 0.42455 0.25966 0.16525 0.0
H2790 H 0.445 0.33724 0.1542 0.0
H2791 H 0.41075 0.34717 0.17703 0.0
H2792 H 0.35804 0.25866 0.15782 0.0
H2793 H 0.35279 0.23696 0.18054 0.0
H2794 H 0.37818 0.23647 0.1624 0.0
H2795 H 0.40781 0.24136 0.2027 0.0
H2796 H 0.38258 0.24248 0.22092 0.0
H2797 H 0.40857 0.26742 0.2252 0.0
H2798 H 0.37687 0.34871 0.20522 0.0
H2799 H 0.34119 0.34057 0.22952 0.0
H2800 H 0.34226 0.26178 0.21892 0.0
C2801 C 0.42148 0.27865 0.16726 0.0
C2802 C 0.4372 0.29773 0.15811 0.0
C2803 C 0.43282 0.32239 0.16095 0.0
C2804 C 0.41364 0.3282 0.17406 0.0
C2805 C 0.39892 0.30901 0.18365 0.0
C2806 C 0.40224 0.28464 0.17978 0.0
C2807 C 0.38378 0.26731 0.19154 0.0
C2808 C 0.36721 0.24877 0.1719 0.0
C2809 C 0.39645 0.25386 0.21126 0.0
C2810 C 0.36981 0.28574 0.20303 0.0
C2811 C 0.37893 0.30977 0.19867 0.0
C2812 C 0.36935 0.32995 0.20846 0.0
C2813 C 0.34937 0.32525 0.22238 0.0
C2814 C 0.33924 0.30061 0.2258 0.0
C2815 C 0.34975 0.28077 0.21631 0.0
H2816 H 0.58249 0.53417 0.34426 0.0
H2817 H 0.61343 0.467 0.3488 0.0
H2818 H 0.59226 0.45853 0.38602 0.0
H2819 H 0.58827 0.55175 0.40957 0.0
H2820 H 0.5602 0.56425 0.4079 0.0
H2821 H 0.57784 0.56437 0.38193 0.0
H2822 H 0.53938 0.54062 0.35417 0.0
H2823 H 0.52176 0.54004 0.38019 0.0
H2824 H 0.52392 0.51147 0.36252 0.0
H2825 H 0.56606 0.45724 0.42236 0.0
H2826 H 0.54194 0.46589 0.457 0.0
H2827 H 0.52954 0.53433 0.42782 0.0
C2828 C 0.58491 0.51767 0.35308 0.0
C2829 C 0.59946 0.50114 0.3436 0.0
C2830 C 0.60242 0.47995 0.35586 0.0
C2831 C 0.59032 0.47491 0.37686 0.0
C2832 C 0.57561 0.4914 0.38537 0.0
C2833 C 0.57326 0.51256 0.37402 0.0
C2834 C 0.55718 0.52788 0.38701 0.0
C2835 C 0.57174 0.55357 0.39721 0.0
C2836 C 0.5342 0.53012 0.36995 0.0
C2837 C 0.55065 0.51204 0.40748 0.0
C2838 C 0.56119 0.49093 0.40621 0.0
C2839 C 0.55776 0.47372 0.4235 0.0
C2840 C 0.54386 0.47866 0.44297 0.0
C2841 C 0.53385 0.50074 0.44502 0.0
C2842 C 0.53694 0.51727 0.42672 0.0
H2843 H 0.22453 0.86763 0.11819 0.0
H2844 H 0.22151 0.80983 0.0584 0.0
H2845 H 0.23361 0.78166 0.0882 0.0
H2846 H 0.27584 0.85363 0.15647 0.0
H2847 H 0.26313 0.85887 0.18518 0.0
H2848 H 0.25485 0.87521 0.15932 0.0
H2849 H 0.20881 0.85856 0.16188 0.0
H2850 H 0.21702 0.84239 0.18788 0.0
H2851 H 0.19839 0.82562 0.16111 0.0
H2852 H 0.24812 0.76049 0.12347 0.0
H2853 H 0.2586 0.74492 0.16323 0.0
H2854 H 0.24891 0.81434 0.2017 0.0
C2855 C 0.22638 0.84901 0.11147 0.0
C2856 C 0.22218 0.84094 0.08592 0.0
C2857 C 0.22452 0.81638 0.07783 0.0
C2858 C 0.23155 0.80029 0.09461 0.0
C2859 C 0.23576 0.8088 0.11956 0.0
C2860 C 0.23282 0.83237 0.12813 0.0
C2861 C 0.23734 0.83616 0.15616 0.0
C2862 C 0.25909 0.85722 0.16478 0.0
C2863 C 0.214 0.84096 0.16742 0.0
C2864 C 0.24354 0.81115 0.16183 0.0
C2865 C 0.24284 0.79588 0.14033 0.0
C2866 C 0.24847 0.77215 0.14047 0.0
C2867 C 0.2545 0.76351 0.1632 0.0
C2868 C 0.25445 0.77833 0.18562 0.0
C2869 C 0.24907 0.80258 0.18488 0.0
H2870 H 0.97325 0.54338 0.82876 0.0
H2871 H 0.9168 0.5887 0.83625 0.0
H2872 H 0.92549 0.59156 0.88156 0.0
H2873 H 0.96065 0.50848 0.87874 0.0
H2874 H 0.99228 0.50725 0.88847 0.0
H2875 H 0.98287 0.51017 0.85665 0.0
H2876 H 0.01561 0.54991 0.85808 0.0
H2877 H 0.02514 0.54703 0.88994 0.0
H2878 H 0.01587 0.5753 0.88122 0.0
H2879 H 0.93794 0.58664 0.92607 0.0
H2880 H 0.95444 0.5758 0.96642 0.0
H2881 H 0.00352 0.53452 0.93007 0.0
C2882 C 0.96292 0.55422 0.83987 0.0
C2883 C 0.94434 0.56587 0.82883 0.0
C2884 C 0.93118 0.57969 0.84417 0.0
C2885 C 0.93597 0.58141 0.86996 0.0
C2886 C 0.9541 0.56936 0.8802 0.0
C2887 C 0.96752 0.55619 0.86563 0.0
C2888 C 0.98546 0.54428 0.88126 0.0
C2889 C 0.97997 0.51586 0.87596 0.0
C2890 C 0.0121 0.55477 0.87739 0.0
C2891 C 0.97974 0.55245 0.90689 0.0
C2892 C 0.96161 0.56691 0.90587 0.0
C2893 C 0.95236 0.57559 0.9271 0.0
C2894 C 0.9618 0.56926 0.94994 0.0
C2895 C 0.98043 0.5545 0.95146 0.0
C2896 C 0.98961 0.54621 0.92959 0.0
H2897 H 0.19911 0.14446 0.56643 0.0
H2898 H 0.23846 0.19579 0.52151 0.0
H2899 H 0.24321 0.22901 0.55544 0.0
H2900 H 0.16773 0.1908 0.5989 0.0
H2901 H 0.17075 0.17694 0.6275 0.0
H2902 H 0.16758 0.15794 0.59854 0.0
H2903 H 0.20778 0.14225 0.61206 0.0
H2904 H 0.21125 0.16139 0.64087 0.0
H2905 H 0.23558 0.1644 0.62112 0.0
H2906 H 0.24906 0.2548 0.59562 0.0
H2907 H 0.2523 0.27273 0.63896 0.0
H2908 H 0.20792 0.20559 0.65755 0.0
C2909 C 0.20815 0.16284 0.56348 0.0
C2910 C 0.21844 0.16747 0.54131 0.0
C2911 C 0.23042 0.19173 0.53832 0.0
C2912 C 0.2332 0.21078 0.55748 0.0
C2913 C 0.22363 0.20538 0.57939 0.0
C2914 C 0.21099 0.18214 0.5824 0.0
C2915 C 0.20387 0.1809 0.60838 0.0
C2916 C 0.17581 0.17638 0.60832 0.0
C2917 C 0.21531 0.16106 0.62136 0.0
C2918 C 0.21524 0.20678 0.61966 0.0
C2919 C 0.22648 0.22062 0.60258 0.0
C2920 C 0.23989 0.24438 0.60906 0.0
C2921 C 0.24176 0.25434 0.63368 0.0
C2922 C 0.23016 0.24056 0.65134 0.0
C2923 C 0.2166 0.2166 0.64421 0.0
H2924 H 0.63882 0.49944 0.18329 0.0
H2925 H 0.57823 0.46865 0.22257 0.0
H2926 H 0.54975 0.46636 0.18509 0.0
H2927 H 0.6079 0.53766 0.14991 0.0
H2928 H 0.62126 0.53281 0.12151 0.0
H2929 H 0.63791 0.52916 0.15038 0.0
H2930 H 0.64184 0.48448 0.13425 0.0
H2931 H 0.62535 0.48808 0.10518 0.0
H2932 H 0.6146 0.46258 0.12235 0.0
H2933 H 0.52696 0.47352 0.14655 0.0
H2934 H 0.51136 0.48622 0.1068 0.0
H2935 H 0.58601 0.50948 0.09014 0.0
C2936 C 0.61967 0.49166 0.18377 0.0
C2937 C 0.61075 0.48433 0.2059 0.0
C2938 C 0.58551 0.47448 0.20589 0.0
C2939 C 0.56914 0.47301 0.18466 0.0
C2940 C 0.5783 0.48108 0.16339 0.0
C2941 C 0.60298 0.48982 0.16254 0.0
C2942 C 0.60755 0.4986 0.13752 0.0
C2943 C 0.61935 0.52619 0.14 0.0
C2944 C 0.62327 0.48247 0.12403 0.0
C2945 C 0.58147 0.49443 0.12499 0.0
C2946 C 0.56496 0.4842 0.14031 0.0
C2947 C 0.53969 0.4809 0.13407 0.0
C2948 C 0.531 0.48826 0.11154 0.0
C2949 C 0.54752 0.49838 0.09538 0.0
C2950 C 0.57307 0.50122 0.10202 0.0
H2951 H 0.19445 0.87003 0.91499 0.0
H2952 H 0.2332 0.83198 0.96822 0.0
H2953 H 0.24591 0.80633 0.93424 0.0
H2954 H 0.17375 0.81379 0.86952 0.0
H2955 H 0.17693 0.83177 0.84355 0.0
H2956 H 0.16888 0.84549 0.87205 0.0
H2957 H 0.20623 0.88119 0.8737 0.0
H2958 H 0.21352 0.86734 0.84507 0.0
H2959 H 0.2364 0.87362 0.87143 0.0
H2960 H 0.25933 0.78911 0.89469 0.0
H2961 H 0.26863 0.77814 0.85234 0.0
H2962 H 0.21916 0.82515 0.82419 0.0
C2963 C 0.20514 0.85592 0.9195 0.0
C2964 C 0.2128 0.85307 0.94435 0.0
C2965 C 0.22689 0.83442 0.94941 0.0
C2966 C 0.2343 0.8198 0.93019 0.0
C2967 C 0.22705 0.82358 0.90592 0.0
C2968 C 0.21229 0.84076 0.9005 0.0
C2969 C 0.2075 0.84146 0.87283 0.0
C2970 C 0.18014 0.8326 0.86397 0.0
C2971 C 0.2165 0.86749 0.86537 0.0
C2972 C 0.22292 0.82298 0.86357 0.0
C2973 C 0.23395 0.81279 0.883 0.0
C2974 C 0.2504 0.79659 0.8793 0.0
C2975 C 0.25569 0.79058 0.85517 0.0
C2976 C 0.24445 0.80056 0.8349 0.0
C2977 C 0.22767 0.81682 0.83923 0.0
H2978 H 0.91696 0.53794 0.66321 0.0
H2979 H 0.95574 0.60937 0.69733 0.0
H2980 H 0.98085 0.61324 0.66254 0.0
H2981 H 0.96915 0.51717 0.64457 0.0
H2982 H 0.95488 0.50053 0.61572 0.0
H2983 H 0.93672 0.50483 0.64079 0.0
H2984 H 0.90739 0.5252 0.61264 0.0
H2985 H 0.92551 0.52091 0.58746 0.0
H2986 H 0.91972 0.55137 0.59706 0.0
H2987 H 0.00392 0.60841 0.62713 0.0
H2988 H 0.02619 0.59412 0.59365 0.0
H2989 H 0.97512 0.52429 0.58208 0.0
C2990 C 0.93027 0.55466 0.66284 0.0
C2991 C 0.93422 0.57364 0.68264 0.0
C2992 C 0.95236 0.59483 0.68218 0.0
C2993 C 0.9666 0.59722 0.66246 0.0
C2994 C 0.9627 0.57808 0.64344 0.0
C2995 C 0.94511 0.5571 0.64338 0.0
C2996 C 0.94689 0.53814 0.62197 0.0
C2997 C 0.95224 0.51373 0.63133 0.0
C2998 C 0.92348 0.53365 0.60371 0.0
C2999 C 0.96868 0.55151 0.61061 0.0
C3000 C 0.97703 0.57473 0.6231 0.0
C3001 C 0.99749 0.59036 0.61709 0.0
C3002 C 0.01011 0.58196 0.5981 0.0
C3003 C 0.00243 0.55806 0.58531 0.0
C3004 C 0.98118 0.54275 0.59136 0.0
H3005 H 0.27664 0.16014 0.39126 0.0
H3006 H 0.27205 0.21401 0.45247 0.0
H3007 H 0.28366 0.2479 0.42697 0.0
H3008 H 0.32839 0.20008 0.3636 0.0
H3009 H 0.31482 0.18929 0.33261 0.0
H3010 H 0.31143 0.16896 0.35678 0.0
H3011 H 0.26416 0.16189 0.34709 0.0
H3012 H 0.26744 0.18172 0.32272 0.0
H3013 H 0.24874 0.1883 0.34683 0.0
H3014 H 0.28603 0.27492 0.39349 0.0
H3015 H 0.28013 0.29301 0.35391 0.0
H3016 H 0.28614 0.22325 0.31429 0.0
C3017 C 0.27895 0.1791 0.39948 0.0
C3018 C 0.27348 0.18444 0.42384 0.0
C3019 C 0.27612 0.20945 0.43383 0.0
C3020 C 0.2829 0.22889 0.41955 0.0
C3021 C 0.28732 0.2231 0.39534 0.0
C3022 C 0.28576 0.19882 0.38538 0.0
C3023 C 0.28843 0.19767 0.35799 0.0
C3024 C 0.31219 0.18846 0.35243 0.0
C3025 C 0.26584 0.18146 0.34279 0.0
C3026 C 0.28999 0.22482 0.35393 0.0
C3027 C 0.28981 0.23925 0.37583 0.0
C3028 C 0.28722 0.26412 0.37634 0.0
C3029 C 0.28394 0.2743 0.35387 0.0
C3030 C 0.28372 0.25971 0.33141 0.0
C3031 C 0.28754 0.23499 0.33144 0.0
H3032 H 0.3545 0.58728 0.52237 0.0
H3033 H 0.38261 0.65156 0.48584 0.0
H3034 H 0.41792 0.6317 0.47539 0.0
H3035 H 0.41163 0.57507 0.54821 0.0
H3036 H 0.40281 0.54184 0.5434 0.0
H3037 H 0.37994 0.56099 0.54794 0.0
H3038 H 0.35504 0.54162 0.5067 0.0
H3039 H 0.37743 0.52197 0.50185 0.0
H3040 H 0.36982 0.5418 0.47873 0.0
H3041 H 0.45115 0.60448 0.47046 0.0
H3042 H 0.47799 0.57259 0.47077 0.0
H3043 H 0.42592 0.52604 0.50857 0.0
C3044 C 0.36811 0.59741 0.51232 0.0
C3045 C 0.36588 0.62116 0.50514 0.0
C3046 C 0.38398 0.63343 0.49164 0.0
C3047 C 0.40405 0.62226 0.48561 0.0
C3048 C 0.40549 0.5987 0.4929 0.0
C3049 C 0.38785 0.58645 0.50586 0.0
C3050 C 0.39313 0.56121 0.5114 0.0
C3051 C 0.39712 0.55968 0.53939 0.0
C3052 C 0.37264 0.54043 0.49892 0.0
C3053 C 0.41668 0.56107 0.49968 0.0
C3054 C 0.42369 0.58286 0.48919 0.0
C3055 C 0.44559 0.58728 0.47836 0.0
C3056 C 0.46072 0.5691 0.47859 0.0
C3057 C 0.45369 0.54675 0.48921 0.0
C3058 C 0.4313 0.54266 0.49963 0.0
H3059 H 0.83172 0.94631 0.56725 0.0
H3060 H 0.80567 0.01653 0.57162 0.0
H3061 H 0.84818 0.03876 0.57444 0.0
H3062 H 0.89409 0.96889 0.60644 0.0
H3063 H 0.90855 0.94969 0.58608 0.0
H3064 H 0.87717 0.93969 0.59183 0.0
H3065 H 0.86442 0.93453 0.54489 0.0
H3066 H 0.89519 0.94574 0.53865 0.0
H3067 H 0.87068 0.96088 0.52741 0.0
H3068 H 0.89028 0.05244 0.56461 0.0
H3069 H 0.93044 0.05672 0.5478 0.0
H3070 H 0.93088 0.97856 0.55251 0.0
C3071 C 0.83509 0.96636 0.57014 0.0
C3072 C 0.81544 0.97968 0.56923 0.0
C3073 C 0.82047 0.00593 0.57225 0.0
C3074 C 0.8446 0.01875 0.57398 0.0
C3075 C 0.86352 0.00508 0.57308 0.0
C3076 C 0.85915 0.97944 0.57185 0.0
C3077 C 0.88209 0.96906 0.56715 0.0
C3078 C 0.891 0.95607 0.5892 0.0
C3079 C 0.87781 0.95153 0.54311 0.0
C3080 C 0.89961 0.9927 0.56464 0.0
C3081 C 0.88858 0.01331 0.56827 0.0
C3082 C 0.89954 0.03665 0.56275 0.0
C3083 C 0.9222 0.03891 0.55308 0.0
C3084 C 0.93373 0.01805 0.54946 0.0
C3085 C 0.92266 0.99487 0.55594 0.0
H3086 H 0.79948 0.12259 0.21745 0.0
H3087 H 0.8358 0.12003 0.29061 0.0
H3088 H 0.81637 0.15455 0.30655 0.0
H3089 H 0.80823 0.1889 0.2216 0.0
H3090 H 0.77938 0.19062 0.20456 0.0
H3091 H 0.79419 0.16433 0.19823 0.0
H3092 H 0.75578 0.13398 0.20651 0.0
H3093 H 0.74018 0.15984 0.21188 0.0
H3094 H 0.74245 0.13853 0.23499 0.0
H3095 H 0.79323 0.18954 0.31455 0.0
H3096 H 0.76975 0.22411 0.31329 0.0
H3097 H 0.75048 0.20542 0.23466 0.0
C3098 C 0.80305 0.12913 0.23687 0.0
C3099 C 0.81888 0.11851 0.2529 0.0
C3100 C 0.82364 0.1279 0.27807 0.0
C3101 C 0.81265 0.14743 0.2873 0.0
C3102 C 0.79722 0.1576 0.27104 0.0
C3103 C 0.79261 0.14898 0.2463 0.0
C3104 C 0.77659 0.16426 0.23248 0.0
C3105 C 0.79043 0.1778 0.21306 0.0
C3106 C 0.75231 0.14819 0.22078 0.0
C3107 C 0.77247 0.1824 0.2534 0.0
C3108 C 0.78454 0.17828 0.27549 0.0
C3109 C 0.7838 0.19301 0.29732 0.0
C3110 C 0.77064 0.21269 0.29643 0.0
C3111 C 0.75871 0.21754 0.27388 0.0
C3112 C 0.75935 0.20198 0.2522 0.0
H3113 H 0.70712 0.15026 -6e-05 0.0
H3114 H 0.75015 0.09517 0.02245 0.0
H3115 H 0.71224 0.06674 0.02773 0.0
H3116 H 0.6609 0.13821 0.04116 0.0
H3117 H 0.63597 0.1422 0.01918 0.0
H3118 H 0.66654 0.15849 0.01727 0.0
H3119 H 0.66453 0.13958 0.972 0.0
H3120 H 0.63395 0.12321 0.97379 0.0
H3121 H 0.65754 0.10639 0.96495 0.0
H3122 H 0.67026 0.04498 0.03235 0.0
H3123 H 0.62594 0.03019 0.03377 0.0
H3124 H 0.6097 0.098 0.00594 0.0
C3125 C 0.70849 0.13223 0.00601 0.0
C3126 C 0.73152 0.12493 0.01089 0.0
C3127 C 0.73266 0.10112 0.01857 0.0
C3128 C 0.71126 0.08484 0.02167 0.0
C3129 C 0.68885 0.09253 0.01671 0.0
C3130 C 0.68723 0.11553 0.00884 0.0
C3131 C 0.66072 0.11893 0.0044 0.0
C3132 C 0.65575 0.14075 0.02153 0.0
C3133 C 0.65378 0.12221 0.97716 0.0
C3134 C 0.6478 0.09435 0.01126 0.0
C3135 C 0.66441 0.07948 0.01845 0.0
C3136 C 0.65702 0.05631 0.02654 0.0
C3137 C 0.63189 0.0481 0.02733 0.0
C3138 C 0.61461 0.06292 0.01978 0.0
C3139 C 0.62263 0.08623 0.0115 0.0
H3140 H 0.17284 0.4256 0.25696 0.0
H3141 H 0.12432 0.39518 0.30873 0.0
H3142 H 0.14685 0.35992 0.31158 0.0
H3143 H 0.17602 0.36706 0.22421 0.0
H3144 H 0.2076 0.37628 0.21879 0.0
H3145 H 0.18815 0.39921 0.22194 0.0
H3146 H 0.21939 0.42376 0.25715 0.0
H3147 H 0.23878 0.40071 0.25412 0.0
H3148 H 0.22837 0.40844 0.28354 0.0
H3149 H 0.1767 0.32872 0.30985 0.0
H3150 H 0.20817 0.30302 0.30085 0.0
H3151 H 0.2338 0.35224 0.24718 0.0
C3152 C 0.16703 0.41163 0.26905 0.0
C3153 C 0.14699 0.41327 0.28286 0.0
C3154 C 0.13969 0.39433 0.29807 0.0
C3155 C 0.15242 0.37428 0.29983 0.0
C3156 C 0.17215 0.37324 0.28593 0.0
C3157 C 0.17917 0.39132 0.27061 0.0
C3158 C 0.20019 0.38551 0.25672 0.0
C3159 C 0.19252 0.38178 0.22876 0.0
C3160 C 0.22303 0.40581 0.26329 0.0
C3161 C 0.20414 0.36143 0.26671 0.0
C3162 C 0.18803 0.35472 0.28378 0.0
C3163 C 0.18908 0.33363 0.2962 0.0
C3164 C 0.20688 0.31902 0.29085 0.0
C3165 C 0.223 0.32525 0.27288 0.0
C3166 C 0.22154 0.34679 0.26081 0.0
H3167 H 0.14976 0.41729 0.02184 0.0
H3168 H 0.20868 0.47823 0.04967 0.0
H3169 H 0.18458 0.50777 0.03249 0.0
H3170 H 0.12995 0.4427 0.9651 0.0
H3171 H 0.0978 0.43202 0.96715 0.0
H3172 H 0.12036 0.41501 0.97971 0.0
H3173 H 0.10394 0.41869 0.02251 0.0
H3174 H 0.08098 0.43498 0.00978 0.0
H3175 H 0.10143 0.44887 0.0366 0.0
H3176 H 0.15392 0.53095 0.01409 0.0
H3177 H 0.11581 0.54664 0.00215 0.0
H3178 H 0.0766 0.47108 0.98659 0.0
C3179 C 0.15758 0.43685 0.02428 0.0
C3180 C 0.18117 0.44541 0.0369 0.0
C3181 C 0.19066 0.47119 0.03999 0.0
C3182 C 0.17725 0.48812 0.03005 0.0
C3183 C 0.15433 0.47904 0.01716 0.0
C3184 C 0.14435 0.45408 0.01462 0.0
C3185 C 0.1184 0.44949 0.00194 0.0
C3186 C 0.11653 0.43388 0.97699 0.0
C3187 C 0.10012 0.43731 0.01871 0.0
C3188 C 0.11517 0.47585 0.99844 0.0
C3189 C 0.13634 0.49255 0.00678 0.0
C3190 C 0.13729 0.51808 0.00722 0.0
C3191 C 0.11563 0.52683 0.00026 0.0
C3192 C 0.09343 0.51003 0.99332 0.0
C3193 C 0.09348 0.48429 0.9913 0.0
H3194 H 0.85263 0.95616 0.24163 0.0
H3195 H 0.79425 0.98128 0.19773 0.0
H3196 H 0.76774 0.94021 0.19811 0.0
H3197 H 0.84217 0.89274 0.21563 0.0
H3198 H 0.84852 0.88081 0.24481 0.0
H3199 H 0.86303 0.91152 0.23976 0.0
H3200 H 0.8459 0.92975 0.27842 0.0
H3201 H 0.83145 0.89909 0.28364 0.0
H3202 H 0.81335 0.92327 0.28077 0.0
H3203 H 0.74859 0.8951 0.20209 0.0
H3204 H 0.73647 0.85252 0.21406 0.0
H3205 H 0.80629 0.85957 0.25873 0.0
C3206 C 0.83431 0.95294 0.23192 0.0
C3207 C 0.82551 0.97163 0.21932 0.0
C3208 C 0.80128 0.96706 0.20737 0.0
C3209 C 0.7862 0.9438 0.20742 0.0
C3210 C 0.79555 0.92566 0.21995 0.0
C3211 C 0.81892 0.93021 0.23236 0.0
C3212 C 0.82422 0.9084 0.2458 0.0
C3213 C 0.84576 0.89774 0.2359 0.0
C3214 C 0.829 0.91556 0.27381 0.0
C3215 C 0.80024 0.8907 0.23896 0.0
C3216 C 0.78405 0.90071 0.22366 0.0
C3217 C 0.76105 0.88723 0.21426 0.0
C3218 C 0.75436 0.86309 0.22103 0.0
C3219 C 0.77041 0.85307 0.23745 0.0
C3220 C 0.79361 0.86703 0.24639 0.0
H3221 H 0.66128 0.0635 0.78489 0.0
H3222 H 0.60624 0.06287 0.72302 0.0
H3223 H 0.62795 0.10297 0.71309 0.0
H3224 H 0.6674 0.12827 0.80374 0.0
H3225 H 0.7 0.13303 0.81274 0.0
H3226 H 0.68149 0.10311 0.81409 0.0
H3227 H 0.70928 0.08277 0.78609 0.0
H3228 H 0.72788 0.11267 0.78465 0.0
H3229 H 0.71423 0.09403 0.75662 0.0
H3230 H 0.65416 0.143 0.71011 0.0
H3231 H 0.6826 0.18287 0.71568 0.0
H3232 H 0.7205 0.15994 0.78052 0.0
C3233 C 0.65406 0.07174 0.76911 0.0
C3234 C 0.63212 0.06006 0.75465 0.0
C3235 C 0.62294 0.07155 0.7344 0.0
C3236 C 0.63521 0.09426 0.72851 0.0
C3237 C 0.65657 0.10545 0.74319 0.0
C3238 C 0.66592 0.09481 0.76318 0.0
C3239 C 0.68839 0.11182 0.77673 0.0
C3240 C 0.68405 0.11951 0.8034 0.0
C3241 C 0.7113 0.09959 0.77597 0.0
C3242 C 0.68996 0.13367 0.76129 0.0
C3243 C 0.67154 0.12931 0.74188 0.0
C3244 C 0.66872 0.14665 0.72518 0.0
C3245 C 0.68498 0.16925 0.7285 0.0
C3246 C 0.70373 0.17445 0.74848 0.0
C3247 C 0.70639 0.15635 0.765 0.0
loop_
_geom_bond_atom_site_label_1
_geom_bond_atom_site_label_2
_geom_bond_distance
_geom_bond_site_symmetry_2
_ccdc_geom_bond_type
C0 O1 1.306 . S
C0 O3 1.160 . S
O1 C0 1.306 . S
O1 Cd2 2.228 1_655 S
Cd2 O1 2.228 1_455 S
Cd2 O6 2.273 . S
Cd2 O10 2.277 . S
O3 C0 1.160 . S
O3 Cd4 2.203 1_655 S
Cd4 O3 2.203 1_455 S
Cd4 O6 2.411 . S
Cd4 O7 2.333 . S
Cd4 O8 2.352 . S
Cd4 O12 2.277 . S
Cd4 O13 2.356 . S
C5 O10 1.209 . S
C5 O12 1.226 . S
O6 Cd2 2.273 . S
O6 Cd4 2.411 . S
O6 C9 1.320 . S
O7 Cd4 2.333 . S
O7 C9 1.214 . S
O8 Cd4 2.352 . S
O8 C11 1.258 . S
C9 O6 1.320 . S
C9 O7 1.214 . S
O10 Cd2 2.277 . S
O10 C5 1.209 . S
C11 O8 1.258 . S
C11 O13 1.282 . S
O12 Cd4 2.277 . S
O12 C5 1.226 . S
O13 Cd4 2.356 . S
O13 C11 1.282 . S
C14 O15 1.306 . S
C14 O17 1.160 . S
O15 C14 1.306 . S
O15 Cd16 2.228 1_655 S
Cd16 O15 2.228 1_455 S
Cd16 O20 2.273 . S
Cd16 O24 2.277 1_455 S
O17 C14 1.160 . S
O17 Cd18 2.203 1_655 S
Cd18 O17 2.203 1_455 S
Cd18 O20 2.411 . S
Cd18 O21 2.333 . S
Cd18 O22 2.352 . S
Cd18 O26 2.277 1_455 S
Cd18 O27 2.356 . S
C19 O24 1.209 . S
C19 O26 1.226 . S
O20 Cd16 2.273 . S
O20 Cd18 2.411 . S
O20 C23 1.320 . S
O21 Cd18 2.333 . S
O21 C23 1.214 . S
O22 Cd18 2.352 . S
O22 C25 1.258 . S
C23 O20 1.320 . S
C23 O21 1.214 . S
O24 Cd16 2.277 1_655 S
O24 C19 1.209 . S
C25 O22 1.258 . S
C25 O27 1.282 . S
O26 Cd18 2.277 1_655 S
O26 C19 1.226 . S
O27 Cd18 2.356 . S
O27 C25 1.282 . S
C28 O29 1.306 . S
C28 O31 1.160 . S
O29 C28 1.306 . S
O29 Cd30 2.228 . S
Cd30 O29 2.228 . S
Cd30 O34 2.273 . S
Cd30 O38 2.277 . S
O31 C28 1.160 . S
O31 Cd32 2.203 . S
Cd32 O31 2.203 . S
Cd32 O34 2.411 . S
Cd32 O35 2.333 . S
Cd32 O36 2.352 . S
Cd32 O40 2.277 . S
Cd32 O41 2.356 . S
C33 O38 1.209 . S
C33 O40 1.226 . S
O34 Cd30 2.273 . S
O34 Cd32 2.411 . S
O34 C37 1.320 . S
O35 Cd32 2.333 . S
O35 C37 1.214 . S
O36 Cd32 2.352 . S
O36 C39 1.258 . S
C37 O34 1.320 . S
C37 O35 1.214 . S
O38 Cd30 2.277 . S
O38 C33 1.209 . S
C39 O36 1.258 . S
C39 O41 1.282 . S
O40 Cd32 2.277 . S
O40 C33 1.226 . S
O41 Cd32 2.356 . S
O41 C39 1.282 . S
C42 O43 1.306 . S
C42 O45 1.160 . S
O43 C42 1.306 . S
O43 Cd44 2.228 . S
Cd44 O43 2.228 . S
Cd44 O48 2.273 . S
Cd44 O52 2.277 . S
O45 C42 1.160 . S
O45 Cd46 2.203 . S
Cd46 O45 2.203 . S
Cd46 O48 2.411 . S
Cd46 O49 2.333 . S
Cd46 O50 2.352 . S
Cd46 O54 2.277 . S
Cd46 O55 2.356 . S
C47 O52 1.209 . S
C47 O54 1.226 . S
O48 Cd44 2.273 . S
O48 Cd46 2.411 . S
O48 C51 1.320 . S
O49 Cd46 2.333 . S
O49 C51 1.214 . S
O50 Cd46 2.352 . S
O50 C53 1.258 . S
C51 O48 1.320 . S
C51 O49 1.214 . S
O52 Cd44 2.277 . S
O52 C47 1.209 . S
C53 O50 1.258 . S
C53 O55 1.282 . S
O54 Cd46 2.277 . S
O54 C47 1.226 . S
O55 Cd46 2.356 . S
O55 C53 1.282 . S
C56 O57 1.306 . S
C56 O59 1.160 . S
O57 C56 1.306 . S
O57 Cd58 2.228 1_655 S
Cd58 O57 2.228 1_455 S
Cd58 O62 2.273 . S
Cd58 O66 2.277 . S
O59 C56 1.160 . S
O59 Cd60 2.203 1_655 S
Cd60 O59 2.203 1_455 S
Cd60 O62 2.411 . S
Cd60 O63 2.333 . S
Cd60 O64 2.352 . S
Cd60 O68 2.277 . S
Cd60 O69 2.356 . S
C61 O66 1.209 . S
C61 O68 1.226 . S
O62 Cd58 2.273 . S
O62 Cd60 2.411 . S
O62 C65 1.320 . S
O63 Cd60 2.333 . S
O63 C65 1.214 . S
O64 Cd60 2.352 . S
O64 C67 1.258 . S
C65 O62 1.320 . S
C65 O63 1.214 . S
O66 Cd58 2.277 . S
O66 C61 1.209 . S
C67 O64 1.258 . S
C67 O69 1.282 . S
O68 Cd60 2.277 . S
O68 C61 1.226 . S
O69 Cd60 2.356 . S
O69 C67 1.282 . S
C70 O71 1.306 . S
C70 O73 1.160 . S
O71 C70 1.306 . S
O71 Cd72 2.228 . S
Cd72 O71 2.228 . S
Cd72 O76 2.273 . S
Cd72 O80 2.277 . S
O73 C70 1.160 . S
O73 Cd74 2.203 . S
Cd74 O73 2.203 . S
Cd74 O76 2.411 . S
Cd74 O77 2.333 . S
Cd74 O78 2.352 . S
Cd74 O82 2.277 . S
Cd74 O83 2.356 . S
C75 O80 1.209 . S
C75 O82 1.226 . S
O76 Cd72 2.273 . S
O76 Cd74 2.411 . S
O76 C79 1.320 . S
O77 Cd74 2.333 . S
O77 C79 1.214 . S
O78 Cd74 2.352 . S
O78 C81 1.258 . S
C79 O76 1.320 . S
C79 O77 1.214 . S
O80 Cd72 2.277 . S
O80 C75 1.209 . S
C81 O78 1.258 . S
C81 O83 1.282 . S
O82 Cd74 2.277 . S
O82 C75 1.226 . S
O83 Cd74 2.356 . S
O83 C81 1.282 . S
C84 O85 1.306 . S
C84 O87 1.160 . S
O85 C84 1.306 . S
O85 Cd86 2.228 . S
Cd86 O85 2.228 . S
Cd86 O90 2.273 . S
Cd86 O94 2.277 . S
O87 C84 1.160 . S
O87 Cd88 2.203 . S
Cd88 O87 2.203 . S
Cd88 O90 2.411 . S
Cd88 O91 2.333 . S
Cd88 O92 2.352 . S
Cd88 O96 2.277 . S
Cd88 O97 2.356 . S
C89 O94 1.209 . S
C89 O96 1.226 . S
O90 Cd86 2.273 . S
O90 Cd88 2.411 . S
O90 C93 1.320 . S
O91 Cd88 2.333 . S
O91 C93 1.214 . S
O92 Cd88 2.352 . S
O92 C95 1.258 . S
C93 O90 1.320 . S
C93 O91 1.214 . S
O94 Cd86 2.277 . S
O94 C89 1.209 . S
C95 O92 1.258 . S
C95 O97 1.282 . S
O96 Cd88 2.277 . S
O96 C89 1.226 . S
O97 Cd88 2.356 . S
O97 C95 1.282 . S
C98 O99 1.306 . S
C98 O101 1.160 . S
O99 C98 1.306 . S
O99 Cd100 2.228 1_655 S
Cd100 O99 2.228 1_455 S
Cd100 O104 2.273 . S
Cd100 O108 2.277 . S
O101 C98 1.160 . S
O101 Cd102 2.203 1_655 S
Cd102 O101 2.203 1_455 S
Cd102 O104 2.411 . S
Cd102 O105 2.333 . S
Cd102 O106 2.352 . S
Cd102 O110 2.277 . S
Cd102 O111 2.356 . S
C103 O108 1.209 . S
C103 O110 1.226 . S
O104 Cd100 2.273 . S
O104 Cd102 2.411 . S
O104 C107 1.320 . S
O105 Cd102 2.333 . S
O105 C107 1.214 . S
O106 Cd102 2.352 . S
O106 C109 1.258 . S
C107 O104 1.320 . S
C107 O105 1.214 . S
O108 Cd100 2.277 . S
O108 C103 1.209 . S
C109 O106 1.258 . S
C109 O111 1.282 . S
O110 Cd102 2.277 . S
O110 C103 1.226 . S
O111 Cd102 2.356 . S
O111 C109 1.282 . S
C112 O113 1.306 . S
C112 O115 1.160 . S
O113 C112 1.306 . S
O113 Cd114 2.228 . S
Cd114 O113 2.228 . S
Cd114 O118 2.273 . S
Cd114 O122 2.273 1_545 S
O115 C112 1.160 . S
O115 Cd116 2.203 . S
Cd116 O115 2.203 . S
Cd116 O118 2.411 . S
Cd116 O119 2.333 . S
Cd116 O120 2.352 . S
Cd116 O124 2.277 . S
Cd116 O125 2.356 . S
C117 O122 1.210 . S
C117 O124 1.226 1_565 S
O118 Cd114 2.273 . S
O118 Cd116 2.411 . S
O118 C121 1.320 . S
O119 Cd116 2.333 . S
O119 C121 1.214 . S
O120 Cd116 2.352 . S
O120 C123 1.258 . S
C121 O118 1.320 . S
C121 O119 1.214 . S
O122 Cd114 2.273 1_565 S
O122 C117 1.210 . S
C123 O120 1.258 . S
C123 O125 1.282 . S
O124 Cd116 2.277 . S
O124 C117 1.226 1_545 S
O125 Cd116 2.356 . S
O125 C123 1.282 . S
C126 O127 1.306 . S
C126 O129 1.160 . S
O127 C126 1.306 . S
O127 Cd128 2.228 . S
Cd128 O127 2.228 . S
Cd128 O132 2.273 . S
Cd128 O136 2.277 . S
O129 C126 1.160 . S
O129 Cd130 2.203 . S
Cd130 O129 2.203 . S
Cd130 O132 2.411 . S
Cd130 O133 2.333 . S
Cd130 O134 2.352 . S
Cd130 O138 2.277 . S
Cd130 O139 2.356 . S
C131 O136 1.209 . S
C131 O138 1.226 . S
O132 Cd128 2.273 . S
O132 Cd130 2.411 . S
O132 C135 1.320 . S
O133 Cd130 2.333 . S
O133 C135 1.214 . S
O134 Cd130 2.352 . S
O134 C137 1.258 . S
C135 O132 1.320 . S
C135 O133 1.214 . S
O136 Cd128 2.277 . S
O136 C131 1.209 . S
C137 O134 1.258 . S
C137 O139 1.282 . S
O138 Cd130 2.277 . S
O138 C131 1.226 . S
O139 Cd130 2.356 . S
O139 C137 1.282 . S
C140 O141 1.306 . S
C140 O143 1.144 1_545 S
O141 C140 1.306 . S
O141 Cd142 2.228 . S
Cd142 O141 2.228 . S
Cd142 O146 2.273 1_545 S
Cd142 O150 2.277 . S
O143 C140 1.144 1_565 S
O143 Cd144 2.204 . S
Cd144 O143 2.204 . S
Cd144 O146 2.411 . S
Cd144 O147 2.333 . S
Cd144 O148 2.352 . S
Cd144 O152 2.277 1_565 S
Cd144 O153 2.356 . S
C145 O150 1.209 . S
C145 O152 1.226 . S
O146 Cd142 2.273 1_565 S
O146 Cd144 2.411 . S
O146 C149 1.320 . S
O147 Cd144 2.333 . S
O147 C149 1.214 . S
O148 Cd144 2.352 . S
O148 C151 1.258 . S
C149 O146 1.320 . S
C149 O147 1.214 . S
O150 Cd142 2.277 . S
O150 C145 1.209 . S
C151 O148 1.258 . S
C151 O153 1.282 . S
O152 Cd144 2.277 1_545 S
O152 C145 1.226 . S
O153 Cd144 2.356 . S
O153 C151 1.282 . S
C154 O155 1.306 . S
C154 O157 1.160 . S
O155 C154 1.306 . S
O155 Cd156 2.228 1_554 S
Cd156 O155 2.228 1_556 S
Cd156 O160 2.273 1_556 S
Cd156 O164 2.277 . S
O157 C154 1.160 . S
O157 Cd158 2.203 . S
Cd158 O157 2.203 . S
Cd158 O160 2.411 . S
Cd158 O161 2.333 . S
Cd158 O162 2.352 . S
Cd158 O166 2.277 1_554 S
Cd158 O167 2.356 . S
C159 O164 1.209 . S
C159 O166 1.226 . S
O160 Cd156 2.273 1_554 S
O160 Cd158 2.411 . S
O160 C163 1.320 . S
O161 Cd158 2.333 . S
O161 C163 1.214 . S
O162 Cd158 2.352 . S
O162 C165 1.258 . S
C163 O160 1.320 . S
C163 O161 1.214 . S
O164 Cd156 2.277 . S
O164 C159 1.209 . S
C165 O162 1.258 . S
C165 O167 1.282 . S
O166 Cd158 2.277 1_556 S
O166 C159 1.226 . S
O167 Cd158 2.356 . S
O167 C165 1.282 . S
C168 O169 1.306 . S
C168 O171 1.160 . S
O169 C168 1.306 . S
O169 Cd170 2.228 1_554 S
Cd170 O169 2.228 1_556 S
Cd170 O174 2.273 1_556 S
Cd170 O178 2.277 . S
O171 C168 1.160 . S
O171 Cd172 2.203 . S
Cd172 O171 2.203 . S
Cd172 O174 2.411 . S
Cd172 O175 2.333 . S
Cd172 O176 2.352 . S
Cd172 O180 2.277 1_554 S
Cd172 O181 2.356 . S
C173 O178 1.209 . S
C173 O180 1.226 . S
O174 Cd170 2.273 1_554 S
O174 Cd172 2.411 . S
O174 C177 1.320 . S
O175 Cd172 2.333 . S
O175 C177 1.214 . S
O176 Cd172 2.352 . S
O176 C179 1.258 . S
C177 O174 1.320 . S
C177 O175 1.214 . S
O178 Cd170 2.277 . S
O178 C173 1.209 . S
C179 O176 1.258 . S
C179 O181 1.282 . S
O180 Cd172 2.277 1_556 S
O180 C173 1.226 . S
O181 Cd172 2.356 . S
O181 C179 1.282 . S
C182 O183 1.306 . S
C182 O185 1.152 1_554 S
O183 C182 1.306 . S
O183 Cd184 2.228 . S
Cd184 O183 2.228 . S
Cd184 O188 2.273 1_554 S
Cd184 O192 2.277 . S
O185 C182 1.152 1_556 S
O185 Cd186 2.203 . S
Cd186 O185 2.203 . S
Cd186 O188 2.411 . S
Cd186 O189 2.333 . S
Cd186 O190 2.352 . S
Cd186 O194 2.277 1_556 S
Cd186 O195 2.356 . S
C187 O192 1.209 . S
C187 O194 1.226 . S
O188 Cd184 2.273 1_556 S
O188 Cd186 2.411 . S
O188 C191 1.320 . S
O189 Cd186 2.333 . S
O189 C191 1.214 . S
O190 Cd186 2.352 . S
O190 C193 1.258 . S
C191 O188 1.320 . S
C191 O189 1.214 . S
O192 Cd184 2.277 . S
O192 C187 1.209 . S
C193 O190 1.258 . S
C193 O195 1.282 . S
O194 Cd186 2.277 1_554 S
O194 C187 1.226 . S
O195 Cd186 2.356 . S
O195 C193 1.282 . S
C196 O197 1.306 . S
C196 O199 1.160 . S
O197 C196 1.306 . S
O197 Cd198 2.228 . S
Cd198 O197 2.228 . S
Cd198 O202 2.273 . S
Cd198 O206 2.277 . S
O199 C196 1.160 . S
O199 Cd200 2.203 . S
Cd200 O199 2.203 . S
Cd200 O202 2.411 . S
Cd200 O203 2.333 . S
Cd200 O204 2.352 . S
Cd200 O208 2.277 . S
Cd200 O209 2.356 . S
C201 O206 1.209 . S
C201 O208 1.226 . S
O202 Cd198 2.273 . S
O202 Cd200 2.411 . S
O202 C205 1.320 . S
O203 Cd200 2.333 . S
O203 C205 1.214 . S
O204 Cd200 2.352 . S
O204 C207 1.258 . S
C205 O202 1.320 . S
C205 O203 1.214 . S
O206 Cd198 2.277 . S
O206 C201 1.209 . S
C207 O204 1.258 . S
C207 O209 1.282 . S
O208 Cd200 2.277 . S
O208 C201 1.226 . S
O209 Cd200 2.356 . S
O209 C207 1.282 . S
C210 O211 1.306 . S
C210 O213 1.160 . S
O211 C210 1.306 . S
O211 Cd212 2.228 . S
Cd212 O211 2.228 . S
Cd212 O216 2.273 . S
Cd212 O220 2.277 . S
O213 C210 1.160 . S
O213 Cd214 2.203 . S
Cd214 O213 2.203 . S
Cd214 O216 2.411 . S
Cd214 O217 2.333 . S
Cd214 O218 2.352 . S
Cd214 O222 2.277 . S
Cd214 O223 2.356 . S
C215 O220 1.209 . S
C215 O222 1.226 . S
O216 Cd212 2.273 . S
O216 Cd214 2.411 . S
O216 C219 1.320 . S
O217 Cd214 2.333 . S
O217 C219 1.214 . S
O218 Cd214 2.352 . S
O218 C221 1.258 . S
C219 O216 1.320 . S
C219 O217 1.214 . S
O220 Cd212 2.277 . S
O220 C215 1.209 . S
C221 O218 1.258 . S
C221 O223 1.282 . S
O222 Cd214 2.277 . S
O222 C215 1.226 . S
O223 Cd214 2.356 . S
O223 C221 1.282 . S
C224 O225 1.306 . S
C224 O227 1.160 . S
O225 C224 1.306 . S
O225 Cd226 2.228 . S
Cd226 O225 2.228 . S
Cd226 O230 2.273 . S
Cd226 O234 2.277 . S
O227 C224 1.160 . S
O227 Cd228 2.203 . S
Cd228 O227 2.203 . S
Cd228 O230 2.411 . S
Cd228 O231 2.333 . S
Cd228 O232 2.352 . S
Cd228 O236 2.277 . S
Cd228 O237 2.356 . S
C229 O234 1.209 . S
C229 O236 1.226 . S
O230 Cd226 2.273 . S
O230 Cd228 2.411 . S
O230 C233 1.320 . S
O231 Cd228 2.333 . S
O231 C233 1.214 . S
O232 Cd228 2.352 . S
O232 C235 1.258 . S
C233 O230 1.320 . S
C233 O231 1.214 . S
O234 Cd226 2.277 . S
O234 C229 1.209 . S
C235 O232 1.258 . S
C235 O237 1.282 . S
O236 Cd228 2.277 . S
O236 C229 1.226 . S
O237 Cd228 2.356 . S
O237 C235 1.282 . S
C238 O239 1.306 . S
C238 O241 1.160 . S
O239 C238 1.306 . S
O239 Cd240 2.228 . S
Cd240 O239 2.228 . S
Cd240 O244 2.273 . S
Cd240 O248 2.277 . S
O241 C238 1.160 . S
O241 Cd242 2.203 . S
Cd242 O241 2.203 . S
Cd242 O244 2.411 . S
Cd242 O245 2.333 . S
Cd242 O246 2.352 . S
Cd242 O250 2.277 . S
Cd242 O251 2.356 . S
C243 O248 1.209 . S
C243 O250 1.226 . S
O244 Cd240 2.273 . S
O244 Cd242 2.411 . S
O244 C247 1.320 . S
O245 Cd242 2.333 . S
O245 C247 1.214 . S
O246 Cd242 2.352 . S
O246 C249 1.258 . S
C247 O244 1.320 . S
C247 O245 1.214 . S
O248 Cd240 2.277 . S
O248 C243 1.209 . S
C249 O246 1.258 . S
C249 O251 1.282 . S
O250 Cd242 2.277 . S
O250 C243 1.226 . S
O251 Cd242 2.356 . S
O251 C249 1.282 . S
C252 O253 1.306 . S
C252 O255 1.160 . S
O253 C252 1.306 . S
O253 Cd254 2.228 . S
Cd254 O253 2.228 . S
Cd254 O258 2.273 . S
Cd254 O262 2.277 . S
O255 C252 1.160 . S
O255 Cd256 2.203 . S
Cd256 O255 2.203 . S
Cd256 O258 2.411 . S
Cd256 O259 2.333 . S
Cd256 O260 2.352 . S
Cd256 O264 2.277 . S
Cd256 O265 2.356 . S
C257 O262 1.209 . S
C257 O264 1.226 . S
O258 Cd254 2.273 . S
O258 Cd256 2.411 . S
O258 C261 1.320 . S
O259 Cd256 2.333 . S
O259 C261 1.214 . S
O260 Cd256 2.352 . S
O260 C263 1.258 . S
C261 O258 1.320 . S
C261 O259 1.214 . S
O262 Cd254 2.277 . S
O262 C257 1.209 . S
C263 O260 1.258 . S
C263 O265 1.282 . S
O264 Cd256 2.277 . S
O264 C257 1.226 . S
O265 Cd256 2.356 . S
O265 C263 1.282 . S
C266 O267 1.306 . S
C266 O269 1.160 . S
O267 C266 1.306 . S
O267 Cd268 2.228 . S
Cd268 O267 2.228 . S
Cd268 O272 2.273 . S
Cd268 O276 2.277 . S
O269 C266 1.160 . S
O269 Cd270 2.203 . S
Cd270 O269 2.203 . S
Cd270 O272 2.411 . S
Cd270 O273 2.333 . S
Cd270 O274 2.352 1_545 S
Cd270 O278 2.277 . S
Cd270 O279 2.356 1_545 S
C271 O276 1.209 . S
C271 O278 1.226 . S
O272 Cd268 2.273 . S
O272 Cd270 2.411 . S
O272 C275 1.320 . S
O273 Cd270 2.333 . S
O273 C275 1.214 . S
O274 Cd270 2.352 1_565 S
O274 C277 1.258 . S
C275 O272 1.320 . S
C275 O273 1.214 . S
O276 Cd268 2.277 . S
O276 C271 1.209 . S
C277 O274 1.258 . S
C277 O279 1.282 . S
O278 Cd270 2.277 . S
O278 C271 1.226 . S
O279 Cd270 2.356 1_565 S
O279 C277 1.282 . S
C280 O281 1.306 . S
C280 O283 1.160 . S
O281 C280 1.306 . S
O281 Cd282 2.228 . S
Cd282 O281 2.228 . S
Cd282 O286 2.273 . S
Cd282 O290 2.277 . S
O283 C280 1.160 . S
O283 Cd284 2.203 1_554 S
Cd284 O283 2.203 1_556 S
Cd284 O286 2.411 1_556 S
Cd284 O287 2.333 . S
Cd284 O288 2.352 . S
Cd284 O292 2.277 1_556 S
Cd284 O293 2.356 . S
C285 O290 1.209 . S
C285 O292 1.226 . S
O286 Cd282 2.273 . S
O286 Cd284 2.411 1_554 S
O286 C289 1.320 1_554 S
O287 Cd284 2.333 . S
O287 C289 1.214 . S
O288 Cd284 2.352 . S
O288 C291 1.258 . S
C289 O286 1.320 1_556 S
C289 O287 1.214 . S
O290 Cd282 2.277 . S
O290 C285 1.209 . S
C291 O288 1.258 . S
C291 O293 1.282 . S
O292 Cd284 2.277 1_554 S
O292 C285 1.226 . S
O293 Cd284 2.356 . S
O293 C291 1.282 . S
C294 O295 1.306 . S
C294 O297 1.160 . S
O295 C294 1.306 . S
O295 Cd296 2.228 . S
Cd296 O295 2.228 . S
Cd296 O300 2.273 . S
Cd296 O304 2.277 . S
O297 C294 1.160 . S
O297 Cd298 2.203 . S
Cd298 O297 2.203 . S
Cd298 O300 2.411 . S
Cd298 O301 2.333 . S
Cd298 O302 2.352 . S
Cd298 O306 2.277 . S
Cd298 O307 2.356 . S
C299 O304 1.209 . S
C299 O306 1.226 . S
O300 Cd296 2.273 . S
O300 Cd298 2.411 . S
O300 C303 1.320 . S
O301 Cd298 2.333 . S
O301 C303 1.214 . S
O302 Cd298 2.352 . S
O302 C305 1.258 . S
C303 O300 1.320 . S
C303 O301 1.214 . S
O304 Cd296 2.277 . S
O304 C299 1.209 . S
C305 O302 1.258 . S
C305 O307 1.282 . S
O306 Cd298 2.277 . S
O306 C299 1.226 . S
O307 Cd298 2.356 . S
O307 C305 1.282 . S
C308 O309 1.306 . S
C308 O311 1.160 . S
O309 C308 1.306 . S
O309 Cd310 2.228 . S
Cd310 O309 2.228 . S
Cd310 O314 2.273 . S
Cd310 O318 2.277 . S
O311 C308 1.160 . S
O311 Cd312 2.203 . S
Cd312 O311 2.203 . S
Cd312 O314 2.411 . S
Cd312 O315 2.333 . S
Cd312 O316 2.352 . S
Cd312 O320 2.277 . S
Cd312 O321 2.356 . S
C313 O318 1.209 . S
C313 O320 1.226 . S
O314 Cd310 2.273 . S
O314 Cd312 2.411 . S
O314 C317 1.320 . S
O315 Cd312 2.333 . S
O315 C317 1.214 . S
O316 Cd312 2.352 . S
O316 C319 1.258 . S
C317 O314 1.320 . S
C317 O315 1.214 . S
O318 Cd310 2.277 . S
O318 C313 1.209 . S
C319 O316 1.258 . S
C319 O321 1.282 . S
O320 Cd312 2.277 . S
O320 C313 1.226 . S
O321 Cd312 2.356 . S
O321 C319 1.282 . S
C322 O323 1.306 . S
C322 O325 1.160 . S
O323 C322 1.306 . S
O323 Cd324 2.228 . S
Cd324 O323 2.228 . S
Cd324 O328 2.273 . S
Cd324 O332 2.277 . S
O325 C322 1.160 . S
O325 Cd326 2.203 . S
Cd326 O325 2.203 . S
Cd326 O328 2.411 . S
Cd326 O329 2.333 . S
Cd326 O330 2.352 . S
Cd326 O334 2.277 . S
Cd326 O335 2.356 . S
C327 O332 1.209 . S
C327 O334 1.226 . S
O328 Cd324 2.273 . S
O328 Cd326 2.411 . S
O328 C331 1.320 . S
O329 Cd326 2.333 . S
O329 C331 1.214 . S
O330 Cd326 2.352 . S
O330 C333 1.258 . S
C331 O328 1.320 . S
C331 O329 1.214 . S
O332 Cd324 2.277 . S
O332 C327 1.209 . S
C333 O330 1.258 . S
C333 O335 1.282 . S
O334 Cd326 2.277 . S
O334 C327 1.226 . S
O335 Cd326 2.356 . S
O335 C333 1.282 . S
Tb336 O339 2.453 . S
Tb336 O340 2.596 . S
Tb336 O341 2.374 1_554 S
Tb336 O349 2.343 1_455 S
Tb336 O351 2.353 . S
Tb336 O353 2.427 . S
Tb336 O354 2.513 1_554 S
C337 O341 1.251 . S
C337 O343 1.263 . S
Tb338 O340 2.343 1_665 S
Tb338 O343 2.353 1_664 S
Tb338 O346 2.427 1_655 S
Tb338 O347 2.513 1_655 S
Tb338 O348 2.453 1_564 S
Tb338 O349 2.596 1_565 S
Tb338 O350 2.374 1_565 S
O339 Tb336 2.453 . S
O339 C355 1.245 . S
O340 Tb336 2.596 . S
O340 Tb338 2.343 1_445 S
O340 C355 1.259 . S
O341 Tb336 2.374 1_556 S
O341 C337 1.251 . S
C342 O346 1.275 . S
C342 O347 1.246 . S
O343 C337 1.263 . S
O343 Tb338 2.353 1_446 S
C344 O348 1.245 1_554 S
C344 O349 1.259 . S
C345 O350 1.250 . S
C345 O351 1.263 1_655 S
O346 Tb338 2.427 1_455 S
O346 C342 1.275 . S
O347 Tb338 2.513 1_455 S
O347 C342 1.246 . S
O348 Tb338 2.453 1_546 S
O348 C344 1.245 1_556 S
O349 Tb336 2.343 1_655 S
O349 Tb338 2.596 1_545 S
O349 C344 1.259 . S
O350 Tb338 2.374 1_545 S
O350 C345 1.250 . S
O351 Tb336 2.353 . S
O351 C345 1.263 1_455 S
C352 O353 1.275 . S
C352 O354 1.246 1_554 S
O353 Tb336 2.427 . S
O353 C352 1.275 . S
O354 Tb336 2.513 1_556 S
O354 C352 1.246 1_556 S
C355 O339 1.245 . S
C355 O340 1.259 . S
Tb356 O359 2.453 . S
Tb356 O360 2.596 . S
Tb356 O361 2.374 . S
Tb356 O369 2.343 . S
Tb356 O371 2.353 . S
Tb356 O373 2.427 . S
Tb356 O374 2.513 . S
C357 O361 1.251 . S
C357 O363 1.263 . S
Tb358 O360 2.343 . S
Tb358 O363 2.353 . S
Tb358 O366 2.427 . S
Tb358 O367 2.513 . S
Tb358 O368 2.453 . S
Tb358 O369 2.596 . S
Tb358 O370 2.374 . S
O359 Tb356 2.453 . S
O359 C375 1.245 . S
O360 Tb356 2.596 . S
O360 Tb358 2.343 . S
O360 C375 1.259 . S
O361 Tb356 2.374 . S
O361 C357 1.251 . S
C362 O366 1.275 . S
C362 O367 1.246 . S
O363 C357 1.263 . S
O363 Tb358 2.353 . S
C364 O368 1.245 . S
C364 O369 1.259 . S
C365 O370 1.250 . S
C365 O371 1.263 . S
O366 Tb358 2.427 . S
O366 C362 1.275 . S
O367 Tb358 2.513 . S
O367 C362 1.246 . S
O368 Tb358 2.453 . S
O368 C364 1.245 . S
O369 Tb356 2.343 . S
O369 Tb358 2.596 . S
O369 C364 1.259 . S
O370 Tb358 2.374 . S
O370 C365 1.250 . S
O371 Tb356 2.353 . S
O371 C365 1.263 . S
C372 O373 1.275 . S
C372 O374 1.246 . S
O373 Tb356 2.427 . S
O373 C372 1.275 . S
O374 Tb356 2.513 . S
O374 C372 1.246 . S
C375 O359 1.245 . S
C375 O360 1.259 . S
Tb376 O379 2.453 . S
Tb376 O380 2.596 . S
Tb376 O381 2.374 . S
Tb376 O389 2.343 . S
Tb376 O391 2.353 . S
Tb376 O393 2.427 . S
Tb376 O394 2.513 . S
C377 O381 1.251 . S
C377 O383 1.263 . S
Tb378 O380 2.343 . S
Tb378 O383 2.353 . S
Tb378 O386 2.427 . S
Tb378 O387 2.513 . S
Tb378 O388 2.453 1_545 S
Tb378 O389 2.596 . S
Tb378 O390 2.374 . S
O379 Tb376 2.453 . S
O379 C395 1.245 . S
O380 Tb376 2.596 . S
O380 Tb378 2.343 . S
O380 C395 1.259 . S
O381 Tb376 2.374 . S
O381 C377 1.251 . S
C382 O386 1.275 . S
C382 O387 1.246 . S
O383 C377 1.263 . S
O383 Tb378 2.353 . S
C384 O388 1.245 . S
C384 O389 1.259 1_565 S
C385 O390 1.250 . S
C385 O391 1.263 . S
O386 Tb378 2.427 . S
O386 C382 1.275 . S
O387 Tb378 2.513 . S
O387 C382 1.246 . S
O388 Tb378 2.453 1_565 S
O388 C384 1.245 . S
O389 Tb376 2.343 . S
O389 Tb378 2.596 . S
O389 C384 1.259 1_545 S
O390 Tb378 2.374 . S
O390 C385 1.250 . S
O391 Tb376 2.353 . S
O391 C385 1.263 . S
C392 O393 1.275 1_565 S
C392 O394 1.246 1_565 S
O393 Tb376 2.427 . S
O393 C392 1.275 1_545 S
O394 Tb376 2.513 . S
O394 C392 1.246 1_545 S
C395 O379 1.245 . S
C395 O380 1.259 . S
Tb396 O399 2.453 . S
Tb396 O400 2.596 . S
Tb396 O401 2.374 . S
Tb396 O409 2.343 . S
Tb396 O411 2.353 . S
Tb396 O413 2.427 . S
Tb396 O414 2.513 . S
C397 O401 1.251 . S
C397 O403 1.263 . S
Tb398 O400 2.343 . S
Tb398 O403 2.353 . S
Tb398 O406 2.427 . S
Tb398 O407 2.513 . S
Tb398 O408 2.453 . S
Tb398 O409 2.596 . S
Tb398 O410 2.374 . S
O399 Tb396 2.453 . S
O399 C415 1.245 . S
O400 Tb396 2.596 . S
O400 Tb398 2.343 . S
O400 C415 1.259 . S
O401 Tb396 2.374 . S
O401 C397 1.251 . S
C402 O406 1.275 . S
C402 O407 1.246 . S
O403 C397 1.263 . S
O403 Tb398 2.353 . S
C404 O408 1.245 . S
C404 O409 1.259 . S
C405 O410 1.250 . S
C405 O411 1.263 . S
O406 Tb398 2.427 . S
O406 C402 1.275 . S
O407 Tb398 2.513 . S
O407 C402 1.246 . S
O408 Tb398 2.453 . S
O408 C404 1.245 . S
O409 Tb396 2.343 . S
O409 Tb398 2.596 . S
O409 C404 1.259 . S
O410 Tb398 2.374 . S
O410 C405 1.250 . S
O411 Tb396 2.353 . S
O411 C405 1.263 . S
C412 O413 1.275 . S
C412 O414 1.246 . S
O413 Tb396 2.427 . S
O413 C412 1.275 . S
O414 Tb396 2.513 . S
O414 C412 1.246 . S
C415 O399 1.245 . S
C415 O400 1.259 . S
Tb416 O419 2.453 1_545 S
Tb416 O420 2.596 . S
Tb416 O421 2.374 1_455 S
Tb416 O429 2.343 . S
Tb416 O431 2.353 . S
Tb416 O433 2.427 . S
Tb416 O434 2.513 1_455 S
C417 O421 1.251 . S
C417 O423 1.263 . S
Tb418 O420 2.343 . S
Tb418 O423 2.353 1_455 S
Tb418 O426 2.427 . S
Tb418 O427 2.513 . S
Tb418 O428 2.453 . S
Tb418 O429 2.596 . S
Tb418 O430 2.374 . S
O419 Tb416 2.453 1_565 S
O419 C435 1.245 . S
O420 Tb416 2.596 . S
O420 Tb418 2.343 . S
O420 C435 1.259 1_545 S
O421 Tb416 2.374 1_655 S
O421 C417 1.251 . S
C422 O426 1.275 . S
C422 O427 1.246 . S
O423 C417 1.263 . S
O423 Tb418 2.353 1_655 S
C424 O428 1.245 . S
C424 O429 1.259 . S
C425 O430 1.250 . S
C425 O431 1.263 . S
O426 Tb418 2.427 . S
O426 C422 1.275 . S
O427 Tb418 2.513 . S
O427 C422 1.246 . S
O428 Tb418 2.453 . S
O428 C424 1.245 . S
O429 Tb416 2.343 . S
O429 Tb418 2.596 . S
O429 C424 1.259 . S
O430 Tb418 2.374 . S
O430 C425 1.250 . S
O431 Tb416 2.353 . S
O431 C425 1.263 . S
C432 O433 1.275 1_655 S
C432 O434 1.246 . S
O433 Tb416 2.427 . S
O433 C432 1.275 1_455 S
O434 Tb416 2.513 1_655 S
O434 C432 1.246 . S
C435 O419 1.245 . S
C435 O420 1.259 1_565 S
Tb436 O439 2.453 . S
Tb436 O440 2.596 . S
Tb436 O441 2.374 . S
Tb436 O449 2.343 . S
Tb436 O451 2.353 . S
Tb436 O453 2.427 . S
Tb436 O454 2.513 . S
C437 O441 1.251 . S
C437 O443 1.263 . S
Tb438 O440 2.343 . S
Tb438 O443 2.353 . S
Tb438 O446 2.427 . S
Tb438 O447 2.513 . S
Tb438 O448 2.453 . S
Tb438 O449 2.596 . S
Tb438 O450 2.374 . S
O439 Tb436 2.453 . S
O439 C455 1.245 . S
O440 Tb436 2.596 . S
O440 Tb438 2.343 . S
O440 C455 1.259 . S
O441 Tb436 2.374 . S
O441 C437 1.251 . S
C442 O446 1.275 . S
C442 O447 1.246 . S
O443 C437 1.263 . S
O443 Tb438 2.353 . S
C444 O448 1.245 . S
C444 O449 1.259 . S
C445 O450 1.250 . S
C445 O451 1.263 . S
O446 Tb438 2.427 . S
O446 C442 1.275 . S
O447 Tb438 2.513 . S
O447 C442 1.246 . S
O448 Tb438 2.453 . S
O448 C444 1.245 . S
O449 Tb436 2.343 . S
O449 Tb438 2.596 . S
O449 C444 1.259 . S
O450 Tb438 2.374 . S
O450 C445 1.250 . S
O451 Tb436 2.353 . S
O451 C445 1.263 . S
C452 O453 1.275 . S
C452 O454 1.246 . S
O453 Tb436 2.427 . S
O453 C452 1.275 . S
O454 Tb436 2.513 . S
O454 C452 1.246 . S
C455 O439 1.245 . S
C455 O440 1.259 . S
Tb456 O459 2.453 . S
Tb456 O460 2.596 . S
Tb456 O461 2.374 1_545 S
Tb456 O469 2.343 1_556 S
Tb456 O471 2.353 1_556 S
Tb456 O473 2.427 1_556 S
Tb456 O474 2.513 1_546 S
C457 O461 1.250 1_554 S
C457 O463 1.264 . S
Tb458 O460 2.343 1_554 S
Tb458 O463 2.353 1_545 S
Tb458 O466 2.427 . S
Tb458 O467 2.513 . S
Tb458 O468 2.453 . S
Tb458 O469 2.596 . S
Tb458 O470 2.374 . S
O459 Tb456 2.453 . S
O459 C475 1.245 . S
O460 Tb456 2.596 . S
O460 Tb458 2.343 1_556 S
O460 C475 1.259 . S
O461 Tb456 2.374 1_565 S
O461 C457 1.250 1_556 S
C462 O466 1.275 . S
C462 O467 1.246 . S
O463 C457 1.264 . S
O463 Tb458 2.353 1_565 S
C464 O468 1.245 . S
C464 O469 1.259 . S
C465 O470 1.250 . S
C465 O471 1.263 . S
O466 Tb458 2.427 . S
O466 C462 1.275 . S
O467 Tb458 2.513 . S
O467 C462 1.246 . S
O468 Tb458 2.453 . S
O468 C464 1.245 . S
O469 Tb456 2.343 1_554 S
O469 Tb458 2.596 . S
O469 C464 1.259 . S
O470 Tb458 2.374 . S
O470 C465 1.250 . S
O471 Tb456 2.353 1_554 S
O471 C465 1.263 . S
C472 O473 1.275 . S
C472 O474 1.246 1_545 S
O473 Tb456 2.427 1_554 S
O473 C472 1.275 . S
O474 Tb456 2.513 1_564 S
O474 C472 1.246 1_565 S
C475 O459 1.245 . S
C475 O460 1.259 . S
Tb476 O479 2.453 . S
Tb476 O480 2.596 . S
Tb476 O481 2.374 . S
Tb476 O489 2.343 . S
Tb476 O491 2.353 . S
Tb476 O493 2.427 . S
Tb476 O494 2.513 . S
C477 O481 1.251 . S
C477 O483 1.263 . S
Tb478 O480 2.343 . S
Tb478 O483 2.353 . S
Tb478 O486 2.427 . S
Tb478 O487 2.513 . S
Tb478 O488 2.453 . S
Tb478 O489 2.596 . S
Tb478 O490 2.374 . S
O479 Tb476 2.453 . S
O479 C495 1.245 . S
O480 Tb476 2.596 . S
O480 Tb478 2.343 . S
O480 C495 1.259 . S
O481 Tb476 2.374 . S
O481 C477 1.251 . S
C482 O486 1.275 . S
C482 O487 1.246 . S
O483 C477 1.263 . S
O483 Tb478 2.353 . S
C484 O488 1.245 . S
C484 O489 1.259 . S
C485 O490 1.250 . S
C485 O491 1.263 . S
O486 Tb478 2.427 . S
O486 C482 1.275 . S
O487 Tb478 2.513 . S
O487 C482 1.246 . S
O488 Tb478 2.453 . S
O488 C484 1.245 . S
O489 Tb476 2.343 . S
O489 Tb478 2.596 . S
O489 C484 1.259 . S
O490 Tb478 2.374 . S
O490 C485 1.250 . S
O491 Tb476 2.353 . S
O491 C485 1.263 . S
C492 O493 1.275 . S
C492 O494 1.246 . S
O493 Tb476 2.427 . S
O493 C492 1.275 . S
O494 Tb476 2.513 . S
O494 C492 1.246 . S
C495 O479 1.245 . S
C495 O480 1.259 . S
Tb496 O499 2.453 1_556 S
Tb496 O500 2.596 1_556 S
Tb496 O501 2.362 1_556 S
Tb496 O509 2.349 . S
Tb496 O511 2.353 . S
Tb496 O513 2.427 . S
Tb496 O514 2.513 . S
C497 O501 1.271 . S
C497 O503 1.263 . S
Tb498 O500 2.343 . S
Tb498 O503 2.353 . S
Tb498 O506 2.427 . S
Tb498 O507 2.513 . S
Tb498 O508 2.453 . S
Tb498 O509 2.577 1_554 S
Tb498 O510 2.374 . S
O499 Tb496 2.453 1_554 S
O499 C515 1.245 . S
O500 Tb496 2.596 1_554 S
O500 Tb498 2.343 . S
O500 C515 1.259 . S
O501 Tb496 2.362 1_554 S
O501 C497 1.271 . S
C502 O506 1.275 . S
C502 O507 1.246 . S
O503 C497 1.263 . S
O503 Tb498 2.353 . S
C504 O508 1.245 . S
C504 O509 1.258 1_554 S
C505 O510 1.250 . S
C505 O511 1.263 1_554 S
O506 Tb498 2.427 . S
O506 C502 1.275 . S
O507 Tb498 2.513 . S
O507 C502 1.246 . S
O508 Tb498 2.453 . S
O508 C504 1.245 . S
O509 Tb496 2.349 . S
O509 Tb498 2.577 1_556 S
O509 C504 1.258 1_556 S
O510 Tb498 2.374 . S
O510 C505 1.250 . S
O511 Tb496 2.353 . S
O511 C505 1.263 1_556 S
C512 O513 1.275 . S
C512 O514 1.246 . S
O513 Tb496 2.427 . S
O513 C512 1.275 . S
O514 Tb496 2.513 . S
O514 C512 1.246 . S
C515 O499 1.245 . S
C515 O500 1.259 . S
Tb516 O519 2.453 . S
Tb516 O520 2.596 . S
Tb516 O521 2.374 . S
Tb516 O529 2.343 . S
Tb516 O531 2.353 . S
Tb516 O533 2.427 . S
Tb516 O534 2.513 . S
C517 O521 1.251 . S
C517 O523 1.263 . S
Tb518 O520 2.343 . S
Tb518 O523 2.353 . S
Tb518 O526 2.427 . S
Tb518 O527 2.513 . S
Tb518 O528 2.453 . S
Tb518 O529 2.596 . S
Tb518 O530 2.374 . S
O519 Tb516 2.453 . S
O519 C535 1.245 . S
O520 Tb516 2.596 . S
O520 Tb518 2.343 . S
O520 C535 1.259 . S
O521 Tb516 2.374 . S
O521 C517 1.251 . S
C522 O526 1.275 . S
C522 O527 1.246 . S
O523 C517 1.263 . S
O523 Tb518 2.353 . S
C524 O528 1.245 . S
C524 O529 1.259 . S
C525 O530 1.250 . S
C525 O531 1.263 . S
O526 Tb518 2.427 . S
O526 C522 1.275 . S
O527 Tb518 2.513 . S
O527 C522 1.246 . S
O528 Tb518 2.453 . S
O528 C524 1.245 . S
O529 Tb516 2.343 . S
O529 Tb518 2.596 . S
O529 C524 1.259 . S
O530 Tb518 2.374 . S
O530 C525 1.250 . S
O531 Tb516 2.353 . S
O531 C525 1.263 . S
C532 O533 1.275 . S
C532 O534 1.246 . S
O533 Tb516 2.427 . S
O533 C532 1.275 . S
O534 Tb516 2.513 . S
O534 C532 1.246 . S
C535 O519 1.245 . S
C535 O520 1.259 . S
Tb536 O539 2.470 . S
Tb536 O540 2.596 1_655 S
Tb536 O541 2.374 . S
Tb536 O549 2.343 . S
Tb536 O551 2.353 . S
Tb536 O553 2.427 . S
Tb536 O554 2.513 . S
C537 O541 1.251 1_455 S
C537 O543 1.263 . S
Tb538 O540 2.343 . S
Tb538 O543 2.353 . S
Tb538 O546 2.427 . S
Tb538 O547 2.513 . S
Tb538 O548 2.453 . S
Tb538 O549 2.596 1_455 S
Tb538 O550 2.374 . S
O539 Tb536 2.470 . S
O539 C555 1.218 1_655 S
O540 Tb536 2.596 1_455 S
O540 Tb538 2.343 . S
O540 C555 1.259 . S
O541 Tb536 2.374 . S
O541 C537 1.251 1_655 S
C542 O546 1.275 . S
C542 O547 1.246 . S
O543 C537 1.263 . S
O543 Tb538 2.353 . S
C544 O548 1.245 1_655 S
C544 O549 1.259 . S
C545 O550 1.250 . S
C545 O551 1.263 1_455 S
O546 Tb538 2.427 . S
O546 C542 1.275 . S
O547 Tb538 2.513 . S
O547 C542 1.246 . S
O548 Tb538 2.453 . S
O548 C544 1.245 1_455 S
O549 Tb536 2.343 . S
O549 Tb538 2.596 1_655 S
O549 C544 1.259 . S
O550 Tb538 2.374 . S
O550 C545 1.250 . S
O551 Tb536 2.353 . S
O551 C545 1.263 1_655 S
C552 O553 1.275 . S
C552 O554 1.246 . S
O553 Tb536 2.427 . S
O553 C552 1.275 . S
O554 Tb536 2.513 . S
O554 C552 1.246 . S
C555 O539 1.218 1_455 S
C555 O540 1.259 . S
Tb556 O559 2.453 . S
Tb556 O560 2.596 . S
Tb556 O561 2.374 . S
Tb556 O569 2.343 . S
Tb556 O571 2.353 . S
Tb556 O573 2.427 . S
Tb556 O574 2.513 . S
C557 O561 1.251 . S
C557 O563 1.263 . S
Tb558 O560 2.343 . S
Tb558 O563 2.353 . S
Tb558 O566 2.427 . S
Tb558 O567 2.513 . S
Tb558 O568 2.453 . S
Tb558 O569 2.596 . S
Tb558 O570 2.374 . S
O559 Tb556 2.453 . S
O559 C575 1.245 . S
O560 Tb556 2.596 . S
O560 Tb558 2.343 . S
O560 C575 1.259 . S
O561 Tb556 2.374 . S
O561 C557 1.251 . S
C562 O566 1.275 . S
C562 O567 1.246 . S
O563 C557 1.263 . S
O563 Tb558 2.353 . S
C564 O568 1.245 . S
C564 O569 1.259 . S
C565 O570 1.250 . S
C565 O571 1.263 . S
O566 Tb558 2.427 . S
O566 C562 1.275 . S
O567 Tb558 2.513 . S
O567 C562 1.246 . S
O568 Tb558 2.453 . S
O568 C564 1.245 . S
O569 Tb556 2.343 . S
O569 Tb558 2.596 . S
O569 C564 1.259 . S
O570 Tb558 2.374 . S
O570 C565 1.250 . S
O571 Tb556 2.353 . S
O571 C565 1.263 . S
C572 O573 1.275 . S
C572 O574 1.246 . S
O573 Tb556 2.427 . S
O573 C572 1.275 . S
O574 Tb556 2.513 . S
O574 C572 1.246 . S
C575 O559 1.245 . S
C575 O560 1.259 . S
Tb576 O579 2.453 . S
Tb576 O580 2.596 . S
Tb576 O581 2.374 . S
Tb576 O589 2.343 . S
Tb576 O591 2.353 . S
Tb576 O593 2.427 . S
Tb576 O594 2.513 . S
C577 O581 1.251 . S
C577 O583 1.263 . S
Tb578 O580 2.343 . S
Tb578 O583 2.353 . S
Tb578 O586 2.427 . S
Tb578 O587 2.513 . S
Tb578 O588 2.453 . S
Tb578 O589 2.596 . S
Tb578 O590 2.374 . S
O579 Tb576 2.453 . S
O579 C595 1.245 . S
O580 Tb576 2.596 . S
O580 Tb578 2.343 . S
O580 C595 1.259 . S
O581 Tb576 2.374 . S
O581 C577 1.251 . S
C582 O586 1.275 . S
C582 O587 1.246 . S
O583 C577 1.263 . S
O583 Tb578 2.353 . S
C584 O588 1.245 . S
C584 O589 1.259 . S
C585 O590 1.250 . S
C585 O591 1.263 . S
O586 Tb578 2.427 . S
O586 C582 1.275 . S
O587 Tb578 2.513 . S
O587 C582 1.246 . S
O588 Tb578 2.453 . S
O588 C584 1.245 . S
O589 Tb576 2.343 . S
O589 Tb578 2.596 . S
O589 C584 1.259 . S
O590 Tb578 2.374 . S
O590 C585 1.250 . S
O591 Tb576 2.353 . S
O591 C585 1.263 . S
C592 O593 1.275 . S
C592 O594 1.246 . S
O593 Tb576 2.427 . S
O593 C592 1.275 . S
O594 Tb576 2.513 . S
O594 C592 1.246 . S
C595 O579 1.245 . S
C595 O580 1.259 . S
Tb596 O599 2.453 . S
Tb596 O600 2.596 . S
Tb596 O601 2.374 . S
Tb596 O609 2.343 . S
Tb596 O611 2.353 . S
Tb596 O613 2.427 . S
Tb596 O614 2.513 . S
C597 O601 1.251 . S
C597 O603 1.263 . S
Tb598 O600 2.343 . S
Tb598 O603 2.353 . S
Tb598 O606 2.427 . S
Tb598 O607 2.513 . S
Tb598 O608 2.453 . S
Tb598 O609 2.596 . S
Tb598 O610 2.374 . S
O599 Tb596 2.453 . S
O599 C615 1.245 . S
O600 Tb596 2.596 . S
O600 Tb598 2.343 . S
O600 C615 1.259 . S
O601 Tb596 2.374 . S
O601 C597 1.251 . S
C602 O606 1.275 . S
C602 O607 1.246 . S
O603 C597 1.263 . S
O603 Tb598 2.353 . S
C604 O608 1.245 . S
C604 O609 1.259 . S
C605 O610 1.250 . S
C605 O611 1.263 . S
O606 Tb598 2.427 . S
O606 C602 1.275 . S
O607 Tb598 2.513 . S
O607 C602 1.246 . S
O608 Tb598 2.453 . S
O608 C604 1.245 . S
O609 Tb596 2.343 . S
O609 Tb598 2.596 . S
O609 C604 1.259 . S
O610 Tb598 2.374 . S
O610 C605 1.250 . S
O611 Tb596 2.353 . S
O611 C605 1.263 . S
C612 O613 1.275 . S
C612 O614 1.246 . S
O613 Tb596 2.427 . S
O613 C612 1.275 . S
O614 Tb596 2.513 . S
O614 C612 1.246 . S
C615 O599 1.245 . S
C615 O600 1.259 . S
Tb616 O619 2.453 . S
Tb616 O620 2.596 . S
Tb616 O621 2.374 . S
Tb616 O629 2.343 . S
Tb616 O631 2.353 . S
Tb616 O633 2.427 . S
Tb616 O634 2.513 . S
C617 O621 1.251 . S
C617 O623 1.263 . S
Tb618 O620 2.343 . S
Tb618 O623 2.353 . S
Tb618 O626 2.427 . S
Tb618 O627 2.513 . S
Tb618 O628 2.453 . S
Tb618 O629 2.596 . S
Tb618 O630 2.374 . S
O619 Tb616 2.453 . S
O619 C635 1.245 . S
O620 Tb616 2.596 . S
O620 Tb618 2.343 . S
O620 C635 1.259 . S
O621 Tb616 2.374 . S
O621 C617 1.251 . S
C622 O626 1.275 . S
C622 O627 1.246 . S
O623 C617 1.263 . S
O623 Tb618 2.353 . S
C624 O628 1.245 . S
C624 O629 1.259 . S
C625 O630 1.250 . S
C625 O631 1.263 . S
O626 Tb618 2.427 . S
O626 C622 1.275 . S
O627 Tb618 2.513 . S
O627 C622 1.246 . S
O628 Tb618 2.453 . S
O628 C624 1.245 . S
O629 Tb616 2.343 . S
O629 Tb618 2.596 . S
O629 C624 1.259 . S
O630 Tb618 2.374 . S
O630 C625 1.250 . S
O631 Tb616 2.353 . S
O631 C625 1.263 . S
C632 O633 1.275 . S
C632 O634 1.246 . S
O633 Tb616 2.427 . S
O633 C632 1.275 . S
O634 Tb616 2.513 . S
O634 C632 1.246 . S
C635 O619 1.245 . S
C635 O620 1.259 . S
Tb636 O639 2.453 . S
Tb636 O640 2.596 . S
Tb636 O641 2.374 . S
Tb636 O649 2.343 . S
Tb636 O651 2.353 1_554 S
Tb636 O653 2.427 1_554 S
Tb636 O654 2.513 . S
C637 O641 1.251 . S
C637 O643 1.263 1_455 S
Tb638 O640 2.343 1_655 S
Tb638 O643 2.353 . S
Tb638 O646 2.427 . S
Tb638 O647 2.513 . S
Tb638 O648 2.453 . S
Tb638 O649 2.596 1_655 S
Tb638 O650 2.374 1_554 S
O639 Tb636 2.453 . S
O639 C655 1.245 . S
O640 Tb636 2.596 . S
O640 Tb638 2.343 1_455 S
O640 C655 1.259 . S
O641 Tb636 2.374 . S
O641 C637 1.251 . S
C642 O646 1.275 . S
C642 O647 1.246 . S
O643 C637 1.263 1_655 S
O643 Tb638 2.353 . S
C644 O648 1.251 . S
C644 O649 1.256 1_655 S
C645 O650 1.260 . S
C645 O651 1.253 1_655 S
O646 Tb638 2.427 . S
O646 C642 1.275 . S
O647 Tb638 2.513 . S
O647 C642 1.246 . S
O648 Tb638 2.453 . S
O648 C644 1.251 . S
O649 Tb636 2.343 . S
O649 Tb638 2.596 1_455 S
O649 C644 1.256 1_455 S
O650 Tb638 2.374 1_556 S
O650 C645 1.260 . S
O651 Tb636 2.353 1_556 S
O651 C645 1.253 1_455 S
C652 O653 1.243 1_554 S
C652 O654 1.290 . S
O653 Tb636 2.427 1_556 S
O653 C652 1.243 1_556 S
O654 Tb636 2.513 . S
O654 C652 1.290 . S
C655 O639 1.245 . S
C655 O640 1.259 . S
H656 C668 0.930 . S
H657 C670 0.930 . S
H658 C671 0.930 . S
H659 C675 0.959 . S
H660 C675 0.959 . S
H661 C675 0.961 . S
H662 C676 0.960 . S
H663 C676 0.961 . S
H664 C676 0.959 . S
H665 C679 0.929 . S
H666 C680 0.931 . S
H667 C682 0.930 . S
C668 H656 0.930 . S
C668 C669 1.399 1_655 S
C668 C673 1.399 . S
C669 C668 1.399 1_455 S
C669 C670 1.376 . S
C670 H657 0.930 . S
C670 C669 1.376 . S
C670 C671 1.388 . S
C671 H658 0.930 . S
C671 C670 1.388 . S
C671 C672 1.390 . S
C672 C671 1.390 . S
C672 C673 1.394 1_455 S
C672 C678 1.465 . S
C673 C668 1.399 . S
C673 C672 1.394 1_655 S
C673 C674 1.516 . S
C674 C673 1.516 . S
C674 C675 1.502 . S
C674 C676 1.561 . S
C674 C677 1.526 . S
C675 H659 0.959 . S
C675 H660 0.959 . S
C675 H661 0.961 . S
C675 C674 1.502 . S
C676 H662 0.960 . S
C676 H663 0.961 . S
C676 H664 0.959 . S
C676 C674 1.561 . S
C677 C674 1.526 . S
C677 C678 1.396 1_655 S
C677 C682 1.390 . S
C678 C672 1.465 . S
C678 C677 1.396 1_455 S
C678 C679 1.399 . S
C679 H665 0.929 . S
C679 C678 1.399 . S
C679 C680 1.385 . S
C680 H666 0.931 . S
C680 C679 1.385 . S
C680 C681 1.389 . S
C681 C680 1.389 . S
C681 C682 1.387 1_455 S
C682 H667 0.930 . S
C682 C677 1.390 . S
C682 C681 1.387 1_655 S
H683 C695 0.930 . S
H684 C697 0.930 . S
H685 C698 0.930 . S
H686 C702 0.959 . S
H687 C702 0.959 . S
H688 C702 0.961 . S
H689 C703 0.960 . S
H690 C703 0.961 . S
H691 C703 0.959 . S
H692 C706 0.929 . S
H693 C707 0.931 . S
H694 C709 0.930 . S
C695 H683 0.930 . S
C695 C696 1.399 . S
C695 C700 1.399 . S
C696 C695 1.399 . S
C696 C697 1.376 . S
C697 H684 0.930 . S
C697 C696 1.376 . S
C697 C698 1.388 . S
C698 H685 0.930 . S
C698 C697 1.388 . S
C698 C699 1.390 . S
C699 C698 1.390 . S
C699 C700 1.394 . S
C699 C705 1.465 . S
C700 C695 1.399 . S
C700 C699 1.394 . S
C700 C701 1.516 . S
C701 C700 1.516 . S
C701 C702 1.502 . S
C701 C703 1.561 . S
C701 C704 1.526 . S
C702 H686 0.959 . S
C702 H687 0.959 . S
C702 H688 0.961 . S
C702 C701 1.502 . S
C703 H689 0.960 . S
C703 H690 0.961 . S
C703 H691 0.959 . S
C703 C701 1.561 . S
C704 C701 1.526 . S
C704 C705 1.396 . S
C704 C709 1.390 . S
C705 C699 1.465 . S
C705 C704 1.396 . S
C705 C706 1.399 . S
C706 H692 0.929 . S
C706 C705 1.399 . S
C706 C707 1.385 . S
C707 H693 0.931 . S
C707 C706 1.385 . S
C707 C708 1.389 . S
C708 C707 1.389 . S
C708 C709 1.387 . S
C709 H694 0.930 . S
C709 C704 1.390 . S
C709 C708 1.387 . S
H710 C722 0.930 . S
H711 C724 0.930 . S
H712 C725 0.930 . S
H713 C729 0.959 . S
H714 C729 0.959 . S
H715 C729 0.961 . S
H716 C730 0.960 . S
H717 C730 0.961 . S
H718 C730 0.959 . S
H719 C733 0.929 . S
H720 C734 0.931 . S
H721 C736 0.930 . S
C722 H710 0.930 . S
C722 C723 1.399 . S
C722 C727 1.399 . S
C723 C722 1.399 . S
C723 C724 1.376 . S
C724 H711 0.930 . S
C724 C723 1.376 . S
C724 C725 1.388 . S
C725 H712 0.930 . S
C725 C724 1.388 . S
C725 C726 1.390 . S
C726 C725 1.390 . S
C726 C727 1.394 . S
C726 C732 1.465 . S
C727 C722 1.399 . S
C727 C726 1.394 . S
C727 C728 1.516 . S
C728 C727 1.516 . S
C728 C729 1.502 . S
C728 C730 1.561 . S
C728 C731 1.526 . S
C729 H713 0.959 . S
C729 H714 0.959 . S
C729 H715 0.961 . S
C729 C728 1.502 . S
C730 H716 0.960 . S
C730 H717 0.961 . S
C730 H718 0.959 . S
C730 C728 1.561 . S
C731 C728 1.526 . S
C731 C732 1.396 . S
C731 C736 1.390 . S
C732 C726 1.465 . S
C732 C731 1.396 . S
C732 C733 1.399 . S
C733 H719 0.929 . S
C733 C732 1.399 . S
C733 C734 1.385 . S
C734 H720 0.931 . S
C734 C733 1.385 . S
C734 C735 1.389 . S
C735 C734 1.389 . S
C735 C736 1.387 . S
C736 H721 0.930 . S
C736 C731 1.390 . S
C736 C735 1.387 . S
H737 C749 0.930 . S
H738 C751 0.930 . S
H739 C752 0.930 . S
H740 C756 0.959 . S
H741 C756 0.959 . S
H742 C756 0.961 . S
H743 C757 0.960 . S
H744 C757 0.961 . S
H745 C757 0.959 . S
H746 C760 0.929 . S
H747 C761 0.931 . S
H748 C763 0.930 . S
C749 H737 0.930 . S
C749 C750 1.399 . S
C749 C754 1.399 . S
C750 C749 1.399 . S
C750 C751 1.376 . S
C751 H738 0.930 . S
C751 C750 1.376 . S
C751 C752 1.388 . S
C752 H739 0.930 . S
C752 C751 1.388 . S
C752 C753 1.390 . S
C753 C752 1.390 . S
C753 C754 1.394 . S
C753 C759 1.465 . S
C754 C749 1.399 . S
C754 C753 1.394 . S
C754 C755 1.516 . S
C755 C754 1.516 . S
C755 C756 1.502 . S
C755 C757 1.561 . S
C755 C758 1.526 . S
C756 H740 0.959 . S
C756 H741 0.959 . S
C756 H742 0.961 . S
C756 C755 1.502 . S
C757 H743 0.960 . S
C757 H744 0.961 . S
C757 H745 0.959 . S
C757 C755 1.561 . S
C758 C755 1.526 . S
C758 C759 1.396 . S
C758 C763 1.390 . S
C759 C753 1.465 . S
C759 C758 1.396 . S
C759 C760 1.399 . S
C760 H746 0.929 . S
C760 C759 1.399 . S
C760 C761 1.385 . S
C761 H747 0.931 . S
C761 C760 1.385 . S
C761 C762 1.389 . S
C762 C761 1.389 . S
C762 C763 1.387 . S
C763 H748 0.930 . S
C763 C758 1.390 . S
C763 C762 1.387 . S
H764 C776 0.930 . S
H765 C778 0.930 . S
H766 C779 0.930 . S
H767 C783 0.959 . S
H768 C783 0.959 . S
H769 C783 0.961 . S
H770 C784 0.960 . S
H771 C784 0.961 . S
H772 C784 0.959 . S
H773 C787 0.929 . S
H774 C788 0.931 . S
H775 C790 0.930 . S
C776 H764 0.930 . S
C776 C777 1.399 . S
C776 C781 1.399 . S
C777 C776 1.399 . S
C777 C778 1.376 1_455 S
C778 H765 0.930 . S
C778 C777 1.376 1_655 S
C778 C779 1.388 . S
C779 H766 0.930 . S
C779 C778 1.388 . S
C779 C780 1.390 . S
C780 C779 1.390 . S
C780 C781 1.394 1_655 S
C780 C786 1.465 1_655 S
C781 C776 1.399 . S
C781 C780 1.394 1_455 S
C781 C782 1.516 . S
C782 C781 1.516 . S
C782 C783 1.502 . S
C782 C784 1.561 . S
C782 C785 1.526 . S
C783 H767 0.959 . S
C783 H768 0.959 . S
C783 H769 0.961 . S
C783 C782 1.502 . S
C784 H770 0.960 . S
C784 H771 0.961 . S
C784 H772 0.959 . S
C784 C782 1.561 . S
C785 C782 1.526 . S
C785 C786 1.395 . S
C785 C790 1.390 . S
C786 C780 1.465 1_455 S
C786 C785 1.395 . S
C786 C787 1.400 1_455 S
C787 H773 0.929 . S
C787 C786 1.400 1_655 S
C787 C788 1.385 . S
C788 H774 0.931 . S
C788 C787 1.385 . S
C788 C789 1.389 1_655 S
C789 C788 1.389 1_455 S
C789 C790 1.387 . S
C790 H775 0.930 . S
C790 C785 1.390 . S
C790 C789 1.387 . S
H791 C803 0.930 . S
H792 C805 0.930 . S
H793 C806 0.930 . S
H794 C810 0.959 . S
H795 C810 0.959 . S
H796 C810 0.961 . S
H797 C811 0.960 . S
H798 C811 0.961 . S
H799 C811 0.959 . S
H800 C814 0.929 . S
H801 C815 0.931 . S
H802 C817 0.930 . S
C803 H791 0.930 . S
C803 C804 1.399 . S
C803 C808 1.399 . S
C804 C803 1.399 . S
C804 C805 1.376 . S
C805 H792 0.930 . S
C805 C804 1.376 . S
C805 C806 1.388 . S
C806 H793 0.930 . S
C806 C805 1.388 . S
C806 C807 1.390 . S
C807 C806 1.390 . S
C807 C808 1.394 . S
C807 C813 1.465 . S
C808 C803 1.399 . S
C808 C807 1.394 . S
C808 C809 1.516 . S
C809 C808 1.516 . S
C809 C810 1.502 . S
C809 C811 1.561 . S
C809 C812 1.526 . S
C810 H794 0.959 . S
C810 H795 0.959 . S
C810 H796 0.961 . S
C810 C809 1.502 . S
C811 H797 0.960 . S
C811 H798 0.961 . S
C811 H799 0.959 . S
C811 C809 1.561 . S
C812 C809 1.526 . S
C812 C813 1.396 . S
C812 C817 1.390 . S
C813 C807 1.465 . S
C813 C812 1.396 . S
C813 C814 1.399 . S
C814 H800 0.929 . S
C814 C813 1.399 . S
C814 C815 1.385 . S
C815 H801 0.931 . S
C815 C814 1.385 . S
C815 C816 1.389 . S
C816 C815 1.389 . S
C816 C817 1.387 . S
C817 H802 0.930 . S
C817 C812 1.390 . S
C817 C816 1.387 . S
H818 C830 0.930 . S
H819 C832 0.930 . S
H820 C833 0.930 . S
H821 C837 0.959 . S
H822 C837 0.959 . S
H823 C837 0.961 . S
H824 C838 0.960 . S
H825 C838 0.961 . S
H826 C838 0.959 . S
H827 C841 0.929 . S
H828 C842 0.931 . S
H829 C844 0.930 . S
C830 H818 0.930 . S
C830 C831 1.399 . S
C830 C835 1.399 . S
C831 C830 1.399 . S
C831 C832 1.376 . S
C832 H819 0.930 . S
C832 C831 1.376 . S
C832 C833 1.388 . S
C833 H820 0.930 . S
C833 C832 1.388 . S
C833 C834 1.390 . S
C834 C833 1.390 . S
C834 C835 1.394 . S
C834 C840 1.465 . S
C835 C830 1.399 . S
C835 C834 1.394 . S
C835 C836 1.516 . S
C836 C835 1.516 . S
C836 C837 1.502 . S
C836 C838 1.561 . S
C836 C839 1.526 . S
C837 H821 0.959 . S
C837 H822 0.959 . S
C837 H823 0.961 . S
C837 C836 1.502 . S
C838 H824 0.960 . S
C838 H825 0.961 . S
C838 H826 0.959 . S
C838 C836 1.561 . S
C839 C836 1.526 . S
C839 C840 1.396 . S
C839 C844 1.390 . S
C840 C834 1.465 . S
C840 C839 1.396 . S
C840 C841 1.399 . S
C841 H827 0.929 . S
C841 C840 1.399 . S
C841 C842 1.385 . S
C842 H828 0.931 . S
C842 C841 1.385 . S
C842 C843 1.389 . S
C843 C842 1.389 . S
C843 C844 1.387 . S
C844 H829 0.930 . S
C844 C839 1.390 . S
C844 C843 1.387 . S
H845 C857 0.930 . S
H846 C859 0.930 . S
H847 C860 0.930 . S
H848 C864 0.959 . S
H849 C864 0.959 . S
H850 C864 0.961 . S
H851 C865 0.960 . S
H852 C865 0.961 . S
H853 C865 0.959 . S
H854 C868 0.929 . S
H855 C869 0.931 . S
H856 C871 0.930 . S
C857 H845 0.930 . S
C857 C858 1.399 . S
C857 C862 1.399 . S
C858 C857 1.399 . S
C858 C859 1.376 . S
C859 H846 0.930 . S
C859 C858 1.376 . S
C859 C860 1.388 . S
C860 H847 0.930 . S
C860 C859 1.388 . S
C860 C861 1.390 . S
C861 C860 1.390 . S
C861 C862 1.394 . S
C861 C867 1.465 . S
C862 C857 1.399 . S
C862 C861 1.394 . S
C862 C863 1.516 . S
C863 C862 1.516 . S
C863 C864 1.502 . S
C863 C865 1.561 . S
C863 C866 1.526 . S
C864 H848 0.959 . S
C864 H849 0.959 . S
C864 H850 0.961 . S
C864 C863 1.502 . S
C865 H851 0.960 . S
C865 H852 0.961 . S
C865 H853 0.959 . S
C865 C863 1.561 . S
C866 C863 1.526 . S
C866 C867 1.396 . S
C866 C871 1.390 . S
C867 C861 1.465 . S
C867 C866 1.396 . S
C867 C868 1.399 . S
C868 H854 0.929 . S
C868 C867 1.399 . S
C868 C869 1.385 . S
C869 H855 0.931 . S
C869 C868 1.385 . S
C869 C870 1.389 . S
C870 C869 1.389 . S
C870 C871 1.387 . S
C871 H856 0.930 . S
C871 C866 1.390 . S
C871 C870 1.387 . S
H872 C884 0.930 . S
H873 C886 0.930 . S
H874 C887 0.930 . S
H875 C891 0.959 . S
H876 C891 0.959 1_565 S
H877 C891 0.953 1_565 S
H878 C892 0.960 1_565 S
H879 C892 0.961 1_565 S
H880 C892 0.959 . S
H881 C895 0.929 . S
H882 C896 0.931 . S
H883 C898 0.930 . S
C884 H872 0.930 . S
C884 C885 1.399 . S
C884 C889 1.399 . S
C885 C884 1.399 . S
C885 C886 1.376 . S
C886 H873 0.930 . S
C886 C885 1.376 . S
C886 C887 1.388 . S
C887 H874 0.930 . S
C887 C886 1.388 . S
C887 C888 1.390 . S
C888 C887 1.390 . S
C888 C889 1.394 . S
C888 C894 1.465 . S
C889 C884 1.399 . S
C889 C888 1.394 . S
C889 C890 1.516 . S
C890 C889 1.516 . S
C890 C891 1.502 . S
C890 C892 1.561 . S
C890 C893 1.526 . S
C891 H875 0.959 . S
C891 H876 0.959 1_545 S
C891 H877 0.953 1_545 S
C891 C890 1.502 . S
C892 H878 0.960 1_545 S
C892 H879 0.961 1_545 S
C892 H880 0.959 . S
C892 C890 1.561 . S
C893 C890 1.526 . S
C893 C894 1.396 . S
C893 C898 1.390 . S
C894 C888 1.465 . S
C894 C893 1.396 . S
C894 C895 1.399 . S
C895 H881 0.929 . S
C895 C894 1.399 . S
C895 C896 1.385 . S
C896 H882 0.931 . S
C896 C895 1.385 . S
C896 C897 1.389 . S
C897 C896 1.389 . S
C897 C898 1.387 . S
C898 H883 0.930 . S
C898 C893 1.390 . S
C898 C897 1.387 . S
H899 C911 0.930 . S
H900 C913 0.930 . S
H901 C914 0.930 . S
H902 C918 0.959 . S
H903 C918 0.959 . S
H904 C918 0.961 . S
H905 C919 0.960 . S
H906 C919 0.961 . S
H907 C919 0.959 . S
H908 C922 0.929 . S
H909 C923 0.931 . S
H910 C925 0.930 . S
C911 H899 0.930 . S
C911 C912 1.399 . S
C911 C916 1.399 . S
C912 C911 1.399 . S
C912 C913 1.376 . S
C913 H900 0.930 . S
C913 C912 1.376 . S
C913 C914 1.388 . S
C914 H901 0.930 . S
C914 C913 1.388 . S
C914 C915 1.390 . S
C915 C914 1.390 . S
C915 C916 1.394 . S
C915 C921 1.465 . S
C916 C911 1.399 . S
C916 C915 1.394 . S
C916 C917 1.516 . S
C917 C916 1.516 . S
C917 C918 1.502 . S
C917 C919 1.561 . S
C917 C920 1.526 . S
C918 H902 0.959 . S
C918 H903 0.959 . S
C918 H904 0.961 . S
C918 C917 1.502 . S
C919 H905 0.960 . S
C919 H906 0.961 . S
C919 H907 0.959 . S
C919 C917 1.561 . S
C920 C917 1.526 . S
C920 C921 1.396 . S
C920 C925 1.390 . S
C921 C915 1.465 . S
C921 C920 1.396 . S
C921 C922 1.399 . S
C922 H908 0.929 . S
C922 C921 1.399 . S
C922 C923 1.385 . S
C923 H909 0.931 . S
C923 C922 1.385 . S
C923 C924 1.389 . S
C924 C923 1.389 . S
C924 C925 1.387 . S
C925 H910 0.930 . S
C925 C920 1.390 . S
C925 C924 1.387 . S
H926 C938 0.930 . S
H927 C940 0.930 . S
H928 C941 0.930 . S
H929 C945 0.959 1_545 S
H930 C945 0.959 . S
H931 C945 0.961 . S
H932 C946 0.960 . S
H933 C946 0.961 . S
H934 C946 0.959 . S
H935 C949 0.929 . S
H936 C950 0.931 . S
H937 C952 0.923 1_565 S
C938 H926 0.930 . S
C938 C939 1.399 1_565 S
C938 C943 1.399 1_565 S
C939 C938 1.399 1_545 S
C939 C940 1.376 . S
C940 H927 0.930 . S
C940 C939 1.376 . S
C940 C941 1.388 . S
C941 H928 0.930 . S
C941 C940 1.388 . S
C941 C942 1.390 . S
C942 C941 1.390 . S
C942 C943 1.394 . S
C942 C948 1.465 . S
C943 C938 1.399 1_545 S
C943 C942 1.394 . S
C943 C944 1.516 1_545 S
C944 C943 1.516 1_565 S
C944 C945 1.502 . S
C944 C946 1.561 . S
C944 C947 1.526 1_565 S
C945 H929 0.959 1_565 S
C945 H930 0.959 . S
C945 H931 0.961 . S
C945 C944 1.502 . S
C946 H932 0.960 . S
C946 H933 0.961 . S
C946 H934 0.959 . S
C946 C944 1.561 . S
C947 C944 1.526 1_545 S
C947 C948 1.396 . S
C947 C952 1.390 . S
C948 C942 1.465 . S
C948 C947 1.396 . S
C948 C949 1.399 . S
C949 H935 0.929 . S
C949 C948 1.399 . S
C949 C950 1.385 . S
C950 H936 0.931 . S
C950 C949 1.385 . S
C950 C951 1.389 . S
C951 C950 1.389 . S
C951 C952 1.387 . S
C952 H937 0.923 1_545 S
C952 C947 1.390 . S
C952 C951 1.387 . S
H953 C965 0.930 . S
H954 C967 0.930 . S
H955 C968 0.930 . S
H956 C972 0.959 . S
H957 C972 0.959 . S
H958 C972 0.961 . S
H959 C973 0.960 . S
H960 C973 0.961 . S
H961 C973 0.959 . S
H962 C976 0.929 . S
H963 C977 0.931 . S
H964 C979 0.930 . S
C965 H953 0.930 . S
C965 C966 1.399 . S
C965 C970 1.399 . S
C966 C965 1.399 . S
C966 C967 1.376 . S
C967 H954 0.930 . S
C967 C966 1.376 . S
C967 C968 1.388 . S
C968 H955 0.930 . S
C968 C967 1.388 . S
C968 C969 1.390 . S
C969 C968 1.390 . S
C969 C970 1.394 . S
C969 C975 1.465 . S
C970 C965 1.399 . S
C970 C969 1.394 . S
C970 C971 1.516 . S
C971 C970 1.516 . S
C971 C972 1.502 . S
C971 C973 1.561 . S
C971 C974 1.526 . S
C972 H956 0.959 . S
C972 H957 0.959 . S
C972 H958 0.961 . S
C972 C971 1.502 . S
C973 H959 0.960 . S
C973 H960 0.961 . S
C973 H961 0.959 . S
C973 C971 1.561 . S
C974 C971 1.526 . S
C974 C975 1.396 . S
C974 C979 1.390 . S
C975 C969 1.465 . S
C975 C974 1.396 . S
C975 C976 1.399 . S
C976 H962 0.929 . S
C976 C975 1.399 . S
C976 C977 1.385 . S
C977 H963 0.931 . S
C977 C976 1.385 . S
C977 C978 1.389 . S
C978 C977 1.389 . S
C978 C979 1.387 . S
C979 H964 0.930 . S
C979 C974 1.390 . S
C979 C978 1.387 . S
H980 C992 0.930 . S
H981 C994 0.930 . S
H982 C995 0.930 . S
H983 C999 0.959 . S
H984 C999 0.959 1_565 S
H985 C999 0.961 1_565 S
H986 C1000 0.951 1_565 S
H987 C1000 0.922 1_565 S
H988 C1000 0.979 . S
H989 C1003 0.929 . S
H990 C1004 0.931 1_455 S
H991 C1006 0.930 . S
C992 H980 0.930 . S
C992 C993 1.399 . S
C992 C997 1.399 . S
C993 C992 1.399 . S
C993 C994 1.376 . S
C994 H981 0.930 . S
C994 C993 1.376 . S
C994 C995 1.388 . S
C995 H982 0.930 . S
C995 C994 1.388 . S
C995 C996 1.390 . S
C996 C995 1.390 . S
C996 C997 1.394 . S
C996 C1002 1.465 . S
C997 C992 1.399 . S
C997 C996 1.394 . S
C997 C998 1.516 . S
C998 C997 1.516 . S
C998 C999 1.502 . S
C998 C1000 1.593 . S
C998 C1001 1.526 . S
C999 H983 0.959 . S
C999 H984 0.959 1_545 S
C999 H985 0.961 1_545 S
C999 C998 1.502 . S
C1000 H986 0.951 1_545 S
C1000 H987 0.922 1_545 S
C1000 H988 0.979 . S
C1000 C998 1.593 . S
C1001 C998 1.526 . S
C1001 C1002 1.396 . S
C1001 C1006 1.390 . S
C1002 C996 1.465 . S
C1002 C1001 1.396 . S
C1002 C1003 1.399 . S
C1003 H989 0.929 . S
C1003 C1002 1.399 . S
C1003 C1004 1.385 . S
C1004 H990 0.931 1_655 S
C1004 C1003 1.385 . S
C1004 C1005 1.389 . S
C1005 C1004 1.389 . S
C1005 C1006 1.387 . S
C1006 H991 0.930 . S
C1006 C1001 1.390 . S
C1006 C1005 1.387 . S
H1007 C1019 0.930 . S
H1008 C1021 0.930 . S
H1009 C1022 0.930 . S
H1010 C1026 0.959 . S
H1011 C1026 0.959 . S
H1012 C1026 0.961 . S
H1013 C1027 0.960 . S
H1014 C1027 0.961 . S
H1015 C1027 0.959 . S
H1016 C1030 0.929 . S
H1017 C1031 0.931 . S
H1018 C1033 0.930 . S
C1019 H1007 0.930 . S
C1019 C1020 1.399 . S
C1019 C1024 1.399 . S
C1020 C1019 1.399 . S
C1020 C1021 1.376 . S
C1021 H1008 0.930 . S
C1021 C1020 1.376 . S
C1021 C1022 1.388 . S
C1022 H1009 0.930 . S
C1022 C1021 1.388 . S
C1022 C1023 1.390 . S
C1023 C1022 1.390 . S
C1023 C1024 1.394 . S
C1023 C1029 1.465 . S
C1024 C1019 1.399 . S
C1024 C1023 1.394 . S
C1024 C1025 1.516 . S
C1025 C1024 1.516 . S
C1025 C1026 1.502 . S
C1025 C1027 1.561 . S
C1025 C1028 1.526 . S
C1026 H1010 0.959 . S
C1026 H1011 0.959 . S
C1026 H1012 0.961 . S
C1026 C1025 1.502 . S
C1027 H1013 0.960 . S
C1027 H1014 0.961 . S
C1027 H1015 0.959 . S
C1027 C1025 1.561 . S
C1028 C1025 1.526 . S
C1028 C1029 1.396 . S
C1028 C1033 1.390 . S
C1029 C1023 1.465 . S
C1029 C1028 1.396 . S
C1029 C1030 1.399 . S
C1030 H1016 0.929 . S
C1030 C1029 1.399 . S
C1030 C1031 1.385 . S
C1031 H1017 0.931 . S
C1031 C1030 1.385 . S
C1031 C1032 1.389 . S
C1032 C1031 1.389 . S
C1032 C1033 1.387 . S
C1033 H1018 0.930 . S
C1033 C1028 1.390 . S
C1033 C1032 1.387 . S
H1034 C1046 0.914 1_565 S
H1035 C1048 0.930 . S
H1036 C1049 0.930 . S
H1037 C1053 0.959 . S
H1038 C1053 0.959 . S
H1039 C1053 0.961 . S
H1040 C1054 0.960 . S
H1041 C1054 0.961 . S
H1042 C1054 0.959 . S
H1043 C1057 0.929 . S
H1044 C1058 0.931 . S
H1045 C1060 0.962 . S
C1046 H1034 0.914 1_545 S
C1046 C1047 1.409 . S
C1046 C1051 1.405 . S
C1047 C1046 1.409 . S
C1047 C1048 1.376 . S
C1048 H1035 0.930 . S
C1048 C1047 1.376 . S
C1048 C1049 1.388 . S
C1049 H1036 0.930 . S
C1049 C1048 1.388 . S
C1049 C1050 1.390 . S
C1050 C1049 1.390 . S
C1050 C1051 1.394 . S
C1050 C1056 1.465 . S
C1051 C1046 1.405 . S
C1051 C1050 1.394 . S
C1051 C1052 1.516 1_545 S
C1052 C1051 1.516 1_565 S
C1052 C1053 1.502 . S
C1052 C1054 1.561 . S
C1052 C1055 1.526 1_565 S
C1053 H1037 0.959 . S
C1053 H1038 0.959 . S
C1053 H1039 0.961 . S
C1053 C1052 1.502 . S
C1054 H1040 0.960 . S
C1054 H1041 0.961 . S
C1054 H1042 0.959 . S
C1054 C1052 1.561 . S
C1055 C1052 1.526 1_545 S
C1055 C1056 1.396 . S
C1055 C1060 1.390 . S
C1056 C1050 1.465 . S
C1056 C1055 1.396 . S
C1056 C1057 1.399 . S
C1057 H1043 0.929 . S
C1057 C1056 1.399 . S
C1057 C1058 1.385 . S
C1058 H1044 0.931 . S
C1058 C1057 1.385 . S
C1058 C1059 1.389 . S
C1059 C1058 1.389 . S
C1059 C1060 1.387 . S
C1060 H1045 0.962 . S
C1060 C1055 1.390 . S
C1060 C1059 1.387 . S
H1061 C1073 0.930 . S
H1062 C1075 0.930 . S
H1063 C1076 0.930 . S
H1064 C1080 0.959 . S
H1065 C1080 0.959 . S
H1066 C1080 0.961 . S
H1067 C1081 0.960 . S
H1068 C1081 0.961 . S
H1069 C1081 0.959 . S
H1070 C1084 0.929 . S
H1071 C1085 0.931 . S
H1072 C1087 0.930 . S
C1073 H1061 0.930 . S
C1073 C1074 1.399 . S
C1073 C1078 1.399 . S
C1074 C1073 1.399 . S
C1074 C1075 1.376 . S
C1075 H1062 0.930 . S
C1075 C1074 1.376 . S
C1075 C1076 1.388 . S
C1076 H1063 0.930 . S
C1076 C1075 1.388 . S
C1076 C1077 1.390 . S
C1077 C1076 1.390 . S
C1077 C1078 1.394 . S
C1077 C1083 1.465 . S
C1078 C1073 1.399 . S
C1078 C1077 1.394 . S
C1078 C1079 1.516 . S
C1079 C1078 1.516 . S
C1079 C1080 1.502 . S
C1079 C1081 1.561 . S
C1079 C1082 1.526 . S
C1080 H1064 0.959 . S
C1080 H1065 0.959 . S
C1080 H1066 0.961 . S
C1080 C1079 1.502 . S
C1081 H1067 0.960 . S
C1081 H1068 0.961 . S
C1081 H1069 0.959 . S
C1081 C1079 1.561 . S
C1082 C1079 1.526 . S
C1082 C1083 1.396 . S
C1082 C1087 1.390 . S
C1083 C1077 1.465 . S
C1083 C1082 1.396 . S
C1083 C1084 1.399 . S
C1084 H1070 0.929 . S
C1084 C1083 1.399 . S
C1084 C1085 1.385 . S
C1085 H1071 0.931 . S
C1085 C1084 1.385 . S
C1085 C1086 1.389 . S
C1086 C1085 1.389 . S
C1086 C1087 1.387 . S
C1087 H1072 0.930 . S
C1087 C1082 1.390 . S
C1087 C1086 1.387 . S
H1088 C1100 0.930 . S
H1089 C1102 0.930 1_556 S
H1090 C1103 0.930 . S
H1091 C1107 0.959 . S
H1092 C1107 0.959 . S
H1093 C1107 0.961 . S
H1094 C1108 0.960 . S
H1095 C1108 0.961 . S
H1096 C1108 0.956 1_545 S
H1097 C1111 0.929 . S
H1098 C1112 0.931 1_546 S
H1099 C1114 0.930 . S
C1100 H1088 0.930 . S
C1100 C1101 1.399 . S
C1100 C1105 1.399 . S
C1101 C1100 1.399 . S
C1101 C1102 1.376 . S
C1102 H1089 0.930 1_554 S
C1102 C1101 1.376 . S
C1102 C1103 1.388 1_554 S
C1103 H1090 0.930 . S
C1103 C1102 1.388 1_556 S
C1103 C1104 1.390 1_556 S
C1104 C1103 1.390 1_554 S
C1104 C1105 1.394 . S
C1104 C1110 1.465 . S
C1105 C1100 1.399 . S
C1105 C1104 1.394 . S
C1105 C1106 1.516 . S
C1106 C1105 1.516 . S
C1106 C1107 1.502 . S
C1106 C1108 1.561 . S
C1106 C1109 1.526 . S
C1107 H1091 0.959 . S
C1107 H1092 0.959 . S
C1107 H1093 0.961 . S
C1107 C1106 1.502 . S
C1108 H1094 0.960 . S
C1108 H1095 0.961 . S
C1108 H1096 0.956 1_565 S
C1108 C1106 1.561 . S
C1109 C1106 1.526 . S
C1109 C1110 1.396 . S
C1109 C1114 1.390 . S
C1110 C1104 1.465 . S
C1110 C1109 1.396 . S
C1110 C1111 1.399 1_554 S
C1111 H1097 0.929 . S
C1111 C1110 1.399 1_556 S
C1111 C1112 1.385 1_556 S
C1112 H1098 0.931 1_564 S
C1112 C1111 1.385 1_554 S
C1112 C1113 1.389 . S
C1113 C1112 1.389 . S
C1113 C1114 1.387 . S
C1114 H1099 0.930 . S
C1114 C1109 1.390 . S
C1114 C1113 1.387 . S
H1115 C1127 0.930 . S
H1116 C1129 0.930 . S
H1117 C1130 0.930 . S
H1118 C1134 0.959 . S
H1119 C1134 0.959 . S
H1120 C1134 0.961 . S
H1121 C1135 0.960 . S
H1122 C1135 0.961 . S
H1123 C1135 0.959 . S
H1124 C1138 0.929 . S
H1125 C1139 0.931 . S
H1126 C1141 0.930 . S
C1127 H1115 0.930 . S
C1127 C1128 1.399 1_554 S
C1127 C1132 1.399 . S
C1128 C1127 1.399 1_556 S
C1128 C1129 1.376 . S
C1129 H1116 0.930 . S
C1129 C1128 1.376 . S
C1129 C1130 1.388 . S
C1130 H1117 0.930 . S
C1130 C1129 1.388 . S
C1130 C1131 1.390 . S
C1131 C1130 1.390 . S
C1131 C1132 1.394 1_556 S
C1131 C1137 1.465 . S
C1132 C1127 1.399 . S
C1132 C1131 1.394 1_554 S
C1132 C1133 1.516 . S
C1133 C1132 1.516 . S
C1133 C1134 1.502 . S
C1133 C1135 1.561 . S
C1133 C1136 1.526 . S
C1134 H1118 0.959 . S
C1134 H1119 0.959 . S
C1134 H1120 0.961 . S
C1134 C1133 1.502 . S
C1135 H1121 0.960 . S
C1135 H1122 0.961 . S
C1135 H1123 0.959 . S
C1135 C1133 1.561 . S
C1136 C1133 1.526 . S
C1136 C1137 1.396 1_554 S
C1136 C1141 1.390 . S
C1137 C1131 1.465 . S
C1137 C1136 1.396 1_556 S
C1137 C1138 1.399 . S
C1138 H1124 0.929 . S
C1138 C1137 1.399 . S
C1138 C1139 1.385 . S
C1139 H1125 0.931 . S
C1139 C1138 1.385 . S
C1139 C1140 1.365 1_556 S
C1140 C1139 1.365 1_554 S
C1140 C1141 1.403 . S
C1141 H1126 0.930 . S
C1141 C1136 1.390 . S
C1141 C1140 1.403 . S
H1142 C1154 0.930 . S
H1143 C1156 0.930 . S
H1144 C1157 0.930 . S
H1145 C1161 0.959 . S
H1146 C1161 0.959 . S
H1147 C1161 0.961 . S
H1148 C1162 0.960 . S
H1149 C1162 0.961 . S
H1150 C1162 0.959 . S
H1151 C1165 0.929 . S
H1152 C1166 0.931 . S
H1153 C1168 0.930 . S
C1154 H1142 0.930 . S
C1154 C1155 1.399 . S
C1154 C1159 1.399 . S
C1155 C1154 1.399 . S
C1155 C1156 1.376 . S
C1156 H1143 0.930 . S
C1156 C1155 1.376 . S
C1156 C1157 1.388 . S
C1157 H1144 0.930 . S
C1157 C1156 1.388 . S
C1157 C1158 1.390 . S
C1158 C1157 1.390 . S
C1158 C1159 1.394 . S
C1158 C1164 1.465 . S
C1159 C1154 1.399 . S
C1159 C1158 1.394 . S
C1159 C1160 1.516 . S
C1160 C1159 1.516 . S
C1160 C1161 1.502 . S
C1160 C1162 1.561 . S
C1160 C1163 1.526 . S
C1161 H1145 0.959 . S
C1161 H1146 0.959 . S
C1161 H1147 0.961 . S
C1161 C1160 1.502 . S
C1162 H1148 0.960 . S
C1162 H1149 0.961 . S
C1162 H1150 0.959 . S
C1162 C1160 1.561 . S
C1163 C1160 1.526 . S
C1163 C1164 1.396 . S
C1163 C1168 1.390 . S
C1164 C1158 1.465 . S
C1164 C1163 1.396 . S
C1164 C1165 1.399 . S
C1165 H1151 0.929 . S
C1165 C1164 1.399 . S
C1165 C1166 1.385 . S
C1166 H1152 0.931 . S
C1166 C1165 1.385 . S
C1166 C1167 1.389 . S
C1167 C1166 1.389 . S
C1167 C1168 1.387 . S
C1168 H1153 0.930 . S
C1168 C1163 1.390 . S
C1168 C1167 1.387 . S
H1169 C1181 0.930 . S
H1170 C1183 0.930 . S
H1171 C1184 0.930 . S
H1172 C1188 0.959 . S
H1173 C1188 0.959 . S
H1174 C1188 0.961 . S
H1175 C1189 0.960 . S
H1176 C1189 0.961 . S
H1177 C1189 0.959 . S
H1178 C1192 0.929 . S
H1179 C1193 0.931 . S
H1180 C1195 0.930 . S
C1181 H1169 0.930 . S
C1181 C1182 1.399 . S
C1181 C1186 1.399 . S
C1182 C1181 1.399 . S
C1182 C1183 1.376 . S
C1183 H1170 0.930 . S
C1183 C1182 1.376 . S
C1183 C1184 1.388 . S
C1184 H1171 0.930 . S
C1184 C1183 1.388 . S
C1184 C1185 1.390 . S
C1185 C1184 1.390 . S
C1185 C1186 1.394 . S
C1185 C1191 1.465 . S
C1186 C1181 1.399 . S
C1186 C1185 1.394 . S
C1186 C1187 1.516 . S
C1187 C1186 1.516 . S
C1187 C1188 1.502 . S
C1187 C1189 1.561 . S
C1187 C1190 1.526 . S
C1188 H1172 0.959 . S
C1188 H1173 0.959 . S
C1188 H1174 0.961 . S
C1188 C1187 1.502 . S
C1189 H1175 0.960 . S
C1189 H1176 0.961 . S
C1189 H1177 0.959 . S
C1189 C1187 1.561 . S
C1190 C1187 1.526 . S
C1190 C1191 1.396 . S
C1190 C1195 1.390 . S
C1191 C1185 1.465 . S
C1191 C1190 1.396 . S
C1191 C1192 1.399 . S
C1192 H1178 0.929 . S
C1192 C1191 1.399 . S
C1192 C1193 1.385 . S
C1193 H1179 0.931 . S
C1193 C1192 1.385 . S
C1193 C1194 1.389 . S
C1194 C1193 1.389 . S
C1194 C1195 1.387 . S
C1195 H1180 0.930 . S
C1195 C1190 1.390 . S
C1195 C1194 1.387 . S
H1196 C1208 0.930 . S
H1197 C1210 0.930 . S
H1198 C1211 0.930 . S
H1199 C1215 0.959 . S
H1200 C1215 0.959 . S
H1201 C1215 0.961 . S
H1202 C1216 0.960 . S
H1203 C1216 0.961 . S
H1204 C1216 0.959 . S
H1205 C1219 0.929 . S
H1206 C1220 0.931 . S
H1207 C1222 0.930 . S
C1208 H1196 0.930 . S
C1208 C1209 1.399 . S
C1208 C1213 1.399 . S
C1209 C1208 1.399 . S
C1209 C1210 1.376 . S
C1210 H1197 0.930 . S
C1210 C1209 1.376 . S
C1210 C1211 1.388 . S
C1211 H1198 0.930 . S
C1211 C1210 1.388 . S
C1211 C1212 1.390 . S
C1212 C1211 1.390 . S
C1212 C1213 1.394 . S
C1212 C1218 1.465 . S
C1213 C1208 1.399 . S
C1213 C1212 1.394 . S
C1213 C1214 1.516 . S
C1214 C1213 1.516 . S
C1214 C1215 1.502 . S
C1214 C1216 1.561 . S
C1214 C1217 1.526 . S
C1215 H1199 0.959 . S
C1215 H1200 0.959 . S
C1215 H1201 0.961 . S
C1215 C1214 1.502 . S
C1216 H1202 0.960 . S
C1216 H1203 0.961 . S
C1216 H1204 0.959 . S
C1216 C1214 1.561 . S
C1217 C1214 1.526 . S
C1217 C1218 1.396 . S
C1217 C1222 1.390 . S
C1218 C1212 1.465 . S
C1218 C1217 1.396 . S
C1218 C1219 1.399 . S
C1219 H1205 0.929 . S
C1219 C1218 1.399 . S
C1219 C1220 1.385 . S
C1220 H1206 0.931 . S
C1220 C1219 1.385 . S
C1220 C1221 1.389 . S
C1221 C1220 1.389 . S
C1221 C1222 1.387 . S
C1222 H1207 0.930 . S
C1222 C1217 1.390 . S
C1222 C1221 1.387 . S
H1223 C1235 0.930 . S
H1224 C1237 0.930 . S
H1225 C1238 0.930 . S
H1226 C1242 0.959 . S
H1227 C1242 0.959 . S
H1228 C1242 0.961 . S
H1229 C1243 0.960 . S
H1230 C1243 0.961 . S
H1231 C1243 0.959 . S
H1232 C1246 0.929 . S
H1233 C1247 0.931 . S
H1234 C1249 0.930 . S
C1235 H1223 0.930 . S
C1235 C1236 1.399 . S
C1235 C1240 1.399 . S
C1236 C1235 1.399 . S
C1236 C1237 1.376 . S
C1237 H1224 0.930 . S
C1237 C1236 1.376 . S
C1237 C1238 1.388 . S
C1238 H1225 0.930 . S
C1238 C1237 1.388 . S
C1238 C1239 1.390 . S
C1239 C1238 1.390 . S
C1239 C1240 1.394 . S
C1239 C1245 1.465 . S
C1240 C1235 1.399 . S
C1240 C1239 1.394 . S
C1240 C1241 1.516 . S
C1241 C1240 1.516 . S
C1241 C1242 1.502 . S
C1241 C1243 1.561 . S
C1241 C1244 1.526 . S
C1242 H1226 0.959 . S
C1242 H1227 0.959 . S
C1242 H1228 0.961 . S
C1242 C1241 1.502 . S
C1243 H1229 0.960 . S
C1243 H1230 0.961 . S
C1243 H1231 0.959 . S
C1243 C1241 1.561 . S
C1244 C1241 1.526 . S
C1244 C1245 1.396 . S
C1244 C1249 1.390 . S
C1245 C1239 1.465 . S
C1245 C1244 1.396 . S
C1245 C1246 1.399 . S
C1246 H1232 0.929 . S
C1246 C1245 1.399 . S
C1246 C1247 1.385 . S
C1247 H1233 0.931 . S
C1247 C1246 1.385 . S
C1247 C1248 1.389 . S
C1248 C1247 1.389 . S
C1248 C1249 1.387 . S
C1249 H1234 0.930 . S
C1249 C1244 1.390 . S
C1249 C1248 1.387 . S
H1250 C1262 0.930 . S
H1251 C1264 0.930 . S
H1252 C1265 0.930 . S
H1253 C1269 0.959 . S
H1254 C1269 0.959 . S
H1255 C1269 0.961 . S
H1256 C1270 0.960 . S
H1257 C1270 0.961 . S
H1258 C1270 0.959 . S
H1259 C1273 0.929 . S
H1260 C1274 0.931 . S
H1261 C1276 0.930 . S
C1262 H1250 0.930 . S
C1262 C1263 1.399 . S
C1262 C1267 1.399 . S
C1263 C1262 1.399 . S
C1263 C1264 1.376 . S
C1264 H1251 0.930 . S
C1264 C1263 1.376 . S
C1264 C1265 1.388 . S
C1265 H1252 0.930 . S
C1265 C1264 1.388 . S
C1265 C1266 1.390 . S
C1266 C1265 1.390 . S
C1266 C1267 1.394 . S
C1266 C1272 1.465 . S
C1267 C1262 1.399 . S
C1267 C1266 1.394 . S
C1267 C1268 1.516 . S
C1268 C1267 1.516 . S
C1268 C1269 1.502 . S
C1268 C1270 1.561 . S
C1268 C1271 1.526 . S
C1269 H1253 0.959 . S
C1269 H1254 0.959 . S
C1269 H1255 0.961 . S
C1269 C1268 1.502 . S
C1270 H1256 0.960 . S
C1270 H1257 0.961 . S
C1270 H1258 0.959 . S
C1270 C1268 1.561 . S
C1271 C1268 1.526 . S
C1271 C1272 1.396 . S
C1271 C1276 1.390 . S
C1272 C1266 1.465 . S
C1272 C1271 1.396 . S
C1272 C1273 1.399 . S
C1273 H1259 0.929 . S
C1273 C1272 1.399 . S
C1273 C1274 1.385 . S
C1274 H1260 0.931 . S
C1274 C1273 1.385 . S
C1274 C1275 1.389 . S
C1275 C1274 1.389 . S
C1275 C1276 1.387 . S
C1276 H1261 0.930 . S
C1276 C1271 1.390 . S
C1276 C1275 1.387 . S
H1277 C1289 0.930 . S
H1278 C1291 0.930 . S
H1279 C1292 0.930 . S
H1280 C1296 0.959 . S
H1281 C1296 0.959 . S
H1282 C1296 0.961 . S
H1283 C1297 0.960 . S
H1284 C1297 0.961 . S
H1285 C1297 0.959 . S
H1286 C1300 0.929 . S
H1287 C1301 0.931 . S
H1288 C1303 0.930 . S
C1289 H1277 0.930 . S
C1289 C1290 1.399 . S
C1289 C1294 1.399 . S
C1290 C1289 1.399 . S
C1290 C1291 1.376 . S
C1291 H1278 0.930 . S
C1291 C1290 1.376 . S
C1291 C1292 1.388 . S
C1292 H1279 0.930 . S
C1292 C1291 1.388 . S
C1292 C1293 1.390 . S
C1293 C1292 1.390 . S
C1293 C1294 1.394 . S
C1293 C1299 1.465 . S
C1294 C1289 1.399 . S
C1294 C1293 1.394 . S
C1294 C1295 1.516 . S
C1295 C1294 1.516 . S
C1295 C1296 1.502 . S
C1295 C1297 1.561 . S
C1295 C1298 1.526 . S
C1296 H1280 0.959 . S
C1296 H1281 0.959 . S
C1296 H1282 0.961 . S
C1296 C1295 1.502 . S
C1297 H1283 0.960 . S
C1297 H1284 0.961 . S
C1297 H1285 0.959 . S
C1297 C1295 1.561 . S
C1298 C1295 1.526 . S
C1298 C1299 1.396 . S
C1298 C1303 1.390 . S
C1299 C1293 1.465 . S
C1299 C1298 1.396 . S
C1299 C1300 1.399 . S
C1300 H1286 0.929 . S
C1300 C1299 1.399 . S
C1300 C1301 1.385 . S
C1301 H1287 0.931 . S
C1301 C1300 1.385 . S
C1301 C1302 1.389 . S
C1302 C1301 1.389 . S
C1302 C1303 1.387 . S
C1303 H1288 0.930 . S
C1303 C1298 1.390 . S
C1303 C1302 1.387 . S
H1304 C1316 0.930 . S
H1305 C1318 0.930 . S
H1306 C1319 0.930 . S
H1307 C1323 0.959 . S
H1308 C1323 0.959 . S
H1309 C1323 0.961 . S
H1310 C1324 0.960 . S
H1311 C1324 0.961 . S
H1312 C1324 0.959 . S
H1313 C1327 0.929 . S
H1314 C1328 0.931 . S
H1315 C1330 0.930 . S
C1316 H1304 0.930 . S
C1316 C1317 1.399 . S
C1316 C1321 1.399 . S
C1317 C1316 1.399 . S
C1317 C1318 1.376 1_455 S
C1318 H1305 0.930 . S
C1318 C1317 1.376 1_655 S
C1318 C1319 1.388 . S
C1319 H1306 0.930 . S
C1319 C1318 1.388 . S
C1319 C1320 1.390 1_655 S
C1320 C1319 1.390 1_455 S
C1320 C1321 1.394 . S
C1320 C1326 1.465 . S
C1321 C1316 1.399 . S
C1321 C1320 1.394 . S
C1321 C1322 1.516 . S
C1322 C1321 1.516 . S
C1322 C1323 1.502 . S
C1322 C1324 1.561 . S
C1322 C1325 1.526 . S
C1323 H1307 0.959 . S
C1323 H1308 0.959 . S
C1323 H1309 0.961 . S
C1323 C1322 1.502 . S
C1324 H1310 0.960 . S
C1324 H1311 0.961 . S
C1324 H1312 0.959 . S
C1324 C1322 1.561 . S
C1325 C1322 1.526 . S
C1325 C1326 1.396 . S
C1325 C1330 1.390 . S
C1326 C1320 1.465 . S
C1326 C1325 1.396 . S
C1326 C1327 1.399 1_455 S
C1327 H1313 0.929 . S
C1327 C1326 1.399 1_655 S
C1327 C1328 1.385 . S
C1328 H1314 0.931 . S
C1328 C1327 1.385 . S
C1328 C1329 1.389 1_655 S
C1329 C1328 1.389 1_455 S
C1329 C1330 1.387 . S
C1330 H1315 0.930 . S
C1330 C1325 1.390 . S
C1330 C1329 1.387 . S
H1331 C1343 0.930 . S
H1332 C1345 0.930 . S
H1333 C1346 0.930 . S
H1334 C1350 0.959 . S
H1335 C1350 0.959 . S
H1336 C1350 0.961 . S
H1337 C1351 0.960 . S
H1338 C1351 0.961 . S
H1339 C1351 0.959 . S
H1340 C1354 0.929 . S
H1341 C1355 0.931 . S
H1342 C1357 0.930 . S
C1343 H1331 0.930 . S
C1343 C1344 1.399 . S
C1343 C1348 1.399 . S
C1344 C1343 1.399 . S
C1344 C1345 1.376 . S
C1345 H1332 0.930 . S
C1345 C1344 1.376 . S
C1345 C1346 1.388 . S
C1346 H1333 0.930 . S
C1346 C1345 1.388 . S
C1346 C1347 1.390 . S
C1347 C1346 1.390 . S
C1347 C1348 1.394 . S
C1347 C1353 1.465 . S
C1348 C1343 1.399 . S
C1348 C1347 1.394 . S
C1348 C1349 1.516 . S
C1349 C1348 1.516 . S
C1349 C1350 1.502 . S
C1349 C1351 1.561 . S
C1349 C1352 1.526 . S
C1350 H1334 0.959 . S
C1350 H1335 0.959 . S
C1350 H1336 0.961 . S
C1350 C1349 1.502 . S
C1351 H1337 0.960 . S
C1351 H1338 0.961 . S
C1351 H1339 0.959 . S
C1351 C1349 1.561 . S
C1352 C1349 1.526 . S
C1352 C1353 1.396 . S
C1352 C1357 1.390 . S
C1353 C1347 1.465 . S
C1353 C1352 1.396 . S
C1353 C1354 1.399 . S
C1354 H1340 0.929 . S
C1354 C1353 1.399 . S
C1354 C1355 1.385 . S
C1355 H1341 0.931 . S
C1355 C1354 1.385 . S
C1355 C1356 1.389 . S
C1356 C1355 1.389 . S
C1356 C1357 1.387 . S
C1357 H1342 0.930 . S
C1357 C1352 1.390 . S
C1357 C1356 1.387 . S
H1358 C1370 0.930 . S
H1359 C1372 0.930 . S
H1360 C1373 0.930 . S
H1361 C1377 0.959 . S
H1362 C1377 0.959 . S
H1363 C1377 0.961 . S
H1364 C1378 0.960 . S
H1365 C1378 0.961 . S
H1366 C1378 0.959 . S
H1367 C1381 0.929 . S
H1368 C1382 0.931 . S
H1369 C1384 0.930 . S
C1370 H1358 0.930 . S
C1370 C1371 1.399 . S
C1370 C1375 1.399 . S
C1371 C1370 1.399 . S
C1371 C1372 1.376 . S
C1372 H1359 0.930 . S
C1372 C1371 1.376 . S
C1372 C1373 1.388 . S
C1373 H1360 0.930 . S
C1373 C1372 1.388 . S
C1373 C1374 1.390 . S
C1374 C1373 1.390 . S
C1374 C1375 1.394 . S
C1374 C1380 1.465 . S
C1375 C1370 1.399 . S
C1375 C1374 1.394 . S
C1375 C1376 1.516 . S
C1376 C1375 1.516 . S
C1376 C1377 1.502 . S
C1376 C1378 1.561 . S
C1376 C1379 1.526 . S
C1377 H1361 0.959 . S
C1377 H1362 0.959 . S
C1377 H1363 0.961 . S
C1377 C1376 1.502 . S
C1378 H1364 0.960 . S
C1378 H1365 0.961 . S
C1378 H1366 0.959 . S
C1378 C1376 1.561 . S
C1379 C1376 1.526 . S
C1379 C1380 1.396 . S
C1379 C1384 1.390 . S
C1380 C1374 1.465 . S
C1380 C1379 1.396 . S
C1380 C1381 1.399 . S
C1381 H1367 0.929 . S
C1381 C1380 1.399 . S
C1381 C1382 1.385 . S
C1382 H1368 0.931 . S
C1382 C1381 1.385 . S
C1382 C1383 1.389 . S
C1383 C1382 1.389 . S
C1383 C1384 1.387 . S
C1384 H1369 0.930 . S
C1384 C1379 1.390 . S
C1384 C1383 1.387 . S
H1385 C1397 0.930 . S
H1386 C1399 0.930 . S
H1387 C1400 0.930 . S
H1388 C1404 0.959 . S
H1389 C1404 0.959 . S
H1390 C1404 0.961 . S
H1391 C1405 0.960 . S
H1392 C1405 0.961 . S
H1393 C1405 0.959 . S
H1394 C1408 0.929 . S
H1395 C1409 0.931 . S
H1396 C1411 0.930 . S
C1397 H1385 0.930 . S
C1397 C1398 1.399 . S
C1397 C1402 1.399 . S
C1398 C1397 1.399 . S
C1398 C1399 1.376 . S
C1399 H1386 0.930 . S
C1399 C1398 1.376 . S
C1399 C1400 1.388 . S
C1400 H1387 0.930 . S
C1400 C1399 1.388 . S
C1400 C1401 1.390 . S
C1401 C1400 1.390 . S
C1401 C1402 1.394 . S
C1401 C1407 1.465 . S
C1402 C1397 1.399 . S
C1402 C1401 1.394 . S
C1402 C1403 1.516 . S
C1403 C1402 1.516 . S
C1403 C1404 1.502 . S
C1403 C1405 1.561 . S
C1403 C1406 1.526 . S
C1404 H1388 0.959 . S
C1404 H1389 0.959 . S
C1404 H1390 0.961 . S
C1404 C1403 1.502 . S
C1405 H1391 0.960 . S
C1405 H1392 0.961 . S
C1405 H1393 0.959 . S
C1405 C1403 1.561 . S
C1406 C1403 1.526 . S
C1406 C1407 1.396 . S
C1406 C1411 1.390 . S
C1407 C1401 1.465 . S
C1407 C1406 1.396 . S
C1407 C1408 1.399 . S
C1408 H1394 0.929 . S
C1408 C1407 1.399 . S
C1408 C1409 1.385 . S
C1409 H1395 0.931 . S
C1409 C1408 1.385 . S
C1409 C1410 1.389 . S
C1410 C1409 1.389 . S
C1410 C1411 1.387 . S
C1411 H1396 0.930 . S
C1411 C1406 1.390 . S
C1411 C1410 1.387 . S
H1412 C1424 0.930 1_655 S
H1413 C1426 0.930 . S
H1414 C1427 0.930 . S
H1415 C1431 0.959 . S
H1416 C1431 0.959 . S
H1417 C1431 0.961 . S
H1418 C1432 0.960 . S
H1419 C1432 0.961 1_655 S
H1420 C1432 0.959 . S
H1421 C1435 0.929 . S
H1422 C1436 0.931 . S
H1423 C1438 0.930 . S
C1424 H1412 0.930 1_455 S
C1424 C1425 1.399 . S
C1424 C1429 1.399 . S
C1425 C1424 1.399 . S
C1425 C1426 1.376 . S
C1426 H1413 0.930 . S
C1426 C1425 1.376 . S
C1426 C1427 1.388 . S
C1427 H1414 0.930 . S
C1427 C1426 1.388 . S
C1427 C1428 1.390 . S
C1428 C1427 1.390 . S
C1428 C1429 1.394 . S
C1428 C1434 1.465 . S
C1429 C1424 1.399 . S
C1429 C1428 1.394 . S
C1429 C1430 1.516 1_455 S
C1430 C1429 1.516 1_655 S
C1430 C1431 1.502 . S
C1430 C1432 1.561 1_655 S
C1430 C1433 1.526 1_655 S
C1431 H1415 0.959 . S
C1431 H1416 0.959 . S
C1431 H1417 0.961 . S
C1431 C1430 1.502 . S
C1432 H1418 0.960 . S
C1432 H1419 0.961 1_455 S
C1432 H1420 0.959 . S
C1432 C1430 1.561 1_455 S
C1433 C1430 1.526 1_455 S
C1433 C1434 1.396 . S
C1433 C1438 1.390 1_455 S
C1434 C1428 1.465 . S
C1434 C1433 1.396 . S
C1434 C1435 1.399 . S
C1435 H1421 0.929 . S
C1435 C1434 1.399 . S
C1435 C1436 1.385 . S
C1436 H1422 0.931 . S
C1436 C1435 1.385 . S
C1436 C1437 1.389 . S
C1437 C1436 1.389 . S
C1437 C1438 1.387 1_455 S
C1438 H1423 0.930 . S
C1438 C1433 1.390 1_655 S
C1438 C1437 1.387 1_655 S
H1439 C1451 0.930 . S
H1440 C1453 0.930 . S
H1441 C1454 0.930 . S
H1442 C1458 0.959 . S
H1443 C1458 0.959 . S
H1444 C1458 0.961 . S
H1445 C1459 0.960 . S
H1446 C1459 0.961 . S
H1447 C1459 0.959 . S
H1448 C1462 0.929 . S
H1449 C1463 0.931 . S
H1450 C1465 0.930 . S
C1451 H1439 0.930 . S
C1451 C1452 1.399 . S
C1451 C1456 1.399 . S
C1452 C1451 1.399 . S
C1452 C1453 1.376 . S
C1453 H1440 0.930 . S
C1453 C1452 1.376 . S
C1453 C1454 1.388 . S
C1454 H1441 0.930 . S
C1454 C1453 1.388 . S
C1454 C1455 1.390 . S
C1455 C1454 1.390 . S
C1455 C1456 1.394 . S
C1455 C1461 1.465 . S
C1456 C1451 1.399 . S
C1456 C1455 1.394 . S
C1456 C1457 1.516 . S
C1457 C1456 1.516 . S
C1457 C1458 1.502 . S
C1457 C1459 1.561 . S
C1457 C1460 1.526 . S
C1458 H1442 0.959 . S
C1458 H1443 0.959 . S
C1458 H1444 0.961 . S
C1458 C1457 1.502 . S
C1459 H1445 0.960 . S
C1459 H1446 0.961 . S
C1459 H1447 0.959 . S
C1459 C1457 1.561 . S
C1460 C1457 1.526 . S
C1460 C1461 1.396 . S
C1460 C1465 1.390 . S
C1461 C1455 1.465 . S
C1461 C1460 1.396 . S
C1461 C1462 1.399 . S
C1462 H1448 0.929 . S
C1462 C1461 1.399 . S
C1462 C1463 1.385 . S
C1463 H1449 0.931 . S
C1463 C1462 1.385 . S
C1463 C1464 1.389 . S
C1464 C1463 1.389 . S
C1464 C1465 1.387 . S
C1465 H1450 0.930 . S
C1465 C1460 1.390 . S
C1465 C1464 1.387 . S
H1466 C1478 0.930 . S
H1467 C1480 0.930 . S
H1468 C1481 0.930 . S
H1469 C1485 0.959 . S
H1470 C1485 0.959 . S
H1471 C1485 0.961 . S
H1472 C1486 0.960 . S
H1473 C1486 0.961 . S
H1474 C1486 0.959 . S
H1475 C1489 0.929 1_554 S
H1476 C1490 0.931 . S
H1477 C1492 0.930 . S
C1478 H1466 0.930 . S
C1478 C1479 1.399 . S
C1478 C1483 1.399 . S
C1479 C1478 1.399 . S
C1479 C1480 1.376 . S
C1480 H1467 0.930 . S
C1480 C1479 1.376 . S
C1480 C1481 1.388 . S
C1481 H1468 0.930 . S
C1481 C1480 1.388 . S
C1481 C1482 1.390 . S
C1482 C1481 1.390 . S
C1482 C1483 1.394 . S
C1482 C1488 1.465 . S
C1483 C1478 1.399 . S
C1483 C1482 1.394 . S
C1483 C1484 1.516 . S
C1484 C1483 1.516 . S
C1484 C1485 1.502 . S
C1484 C1486 1.561 . S
C1484 C1487 1.526 . S
C1485 H1469 0.959 . S
C1485 H1470 0.959 . S
C1485 H1471 0.961 . S
C1485 C1484 1.502 . S
C1486 H1472 0.960 . S
C1486 H1473 0.961 . S
C1486 H1474 0.959 . S
C1486 C1484 1.561 . S
C1487 C1484 1.526 . S
C1487 C1488 1.396 . S
C1487 C1492 1.390 . S
C1488 C1482 1.465 . S
C1488 C1487 1.396 . S
C1488 C1489 1.399 . S
C1489 H1475 0.929 1_556 S
C1489 C1488 1.399 . S
C1489 C1490 1.385 1_556 S
C1490 H1476 0.931 . S
C1490 C1489 1.385 1_554 S
C1490 C1491 1.389 1_554 S
C1491 C1490 1.389 1_556 S
C1491 C1492 1.387 . S
C1492 H1477 0.930 . S
C1492 C1487 1.390 . S
C1492 C1491 1.387 . S
H1493 C1505 0.930 . S
H1494 C1507 0.930 . S
H1495 C1508 0.930 . S
H1496 C1512 0.959 . S
H1497 C1512 0.959 . S
H1498 C1512 0.961 . S
H1499 C1513 0.960 . S
H1500 C1513 0.961 . S
H1501 C1513 0.959 . S
H1502 C1516 0.929 . S
H1503 C1517 0.931 . S
H1504 C1519 0.930 . S
C1505 H1493 0.930 . S
C1505 C1506 1.399 . S
C1505 C1510 1.399 . S
C1506 C1505 1.399 . S
C1506 C1507 1.376 . S
C1507 H1494 0.930 . S
C1507 C1506 1.376 . S
C1507 C1508 1.388 . S
C1508 H1495 0.930 . S
C1508 C1507 1.388 . S
C1508 C1509 1.390 . S
C1509 C1508 1.390 . S
C1509 C1510 1.394 . S
C1509 C1515 1.465 . S
C1510 C1505 1.399 . S
C1510 C1509 1.394 . S
C1510 C1511 1.516 . S
C1511 C1510 1.516 . S
C1511 C1512 1.502 . S
C1511 C1513 1.561 . S
C1511 C1514 1.526 . S
C1512 H1496 0.959 . S
C1512 H1497 0.959 . S
C1512 H1498 0.961 . S
C1512 C1511 1.502 . S
C1513 H1499 0.960 . S
C1513 H1500 0.961 . S
C1513 H1501 0.959 . S
C1513 C1511 1.561 . S
C1514 C1511 1.526 . S
C1514 C1515 1.396 . S
C1514 C1519 1.390 . S
C1515 C1509 1.465 . S
C1515 C1514 1.396 . S
C1515 C1516 1.399 . S
C1516 H1502 0.929 . S
C1516 C1515 1.399 . S
C1516 C1517 1.385 . S
C1517 H1503 0.931 . S
C1517 C1516 1.385 . S
C1517 C1518 1.389 . S
C1518 C1517 1.389 . S
C1518 C1519 1.387 . S
C1519 H1504 0.930 . S
C1519 C1514 1.390 . S
C1519 C1518 1.387 . S
H1520 C1532 0.930 . S
H1521 C1534 0.930 . S
H1522 C1535 0.930 . S
H1523 C1539 0.959 . S
H1524 C1539 0.959 . S
H1525 C1539 0.961 . S
H1526 C1540 0.960 . S
H1527 C1540 0.961 . S
H1528 C1540 0.959 . S
H1529 C1543 0.929 . S
H1530 C1544 0.931 . S
H1531 C1546 0.930 . S
C1532 H1520 0.930 . S
C1532 C1533 1.399 1_565 S
C1532 C1537 1.399 . S
C1533 C1532 1.399 1_545 S
C1533 C1534 1.376 . S
C1534 H1521 0.930 . S
C1534 C1533 1.376 . S
C1534 C1535 1.388 . S
C1535 H1522 0.930 . S
C1535 C1534 1.388 . S
C1535 C1536 1.390 . S
C1536 C1535 1.390 . S
C1536 C1537 1.394 1_545 S
C1536 C1542 1.465 . S
C1537 C1532 1.399 . S
C1537 C1536 1.394 1_565 S
C1537 C1538 1.516 . S
C1538 C1537 1.516 . S
C1538 C1539 1.502 . S
C1538 C1540 1.561 . S
C1538 C1541 1.526 . S
C1539 H1523 0.959 . S
C1539 H1524 0.959 . S
C1539 H1525 0.961 . S
C1539 C1538 1.502 . S
C1540 H1526 0.960 . S
C1540 H1527 0.961 . S
C1540 H1528 0.959 . S
C1540 C1538 1.561 . S
C1541 C1538 1.526 . S
C1541 C1542 1.396 1_565 S
C1541 C1546 1.390 . S
C1542 C1536 1.465 . S
C1542 C1541 1.396 1_545 S
C1542 C1543 1.399 . S
C1543 H1529 0.929 . S
C1543 C1542 1.399 . S
C1543 C1544 1.385 . S
C1544 H1530 0.931 . S
C1544 C1543 1.385 . S
C1544 C1545 1.389 . S
C1545 C1544 1.389 . S
C1545 C1546 1.387 1_545 S
C1546 H1531 0.930 . S
C1546 C1541 1.390 . S
C1546 C1545 1.387 1_565 S
H1547 C1559 0.930 . S
H1548 C1561 0.930 . S
H1549 C1562 0.930 . S
H1550 C1566 0.959 . S
H1551 C1566 0.959 . S
H1552 C1566 0.961 . S
H1553 C1567 0.960 . S
H1554 C1567 0.961 . S
H1555 C1567 0.959 . S
H1556 C1570 0.929 . S
H1557 C1571 0.931 . S
H1558 C1573 0.930 . S
C1559 H1547 0.930 . S
C1559 C1560 1.399 . S
C1559 C1564 1.399 . S
C1560 C1559 1.399 . S
C1560 C1561 1.376 . S
C1561 H1548 0.930 . S
C1561 C1560 1.376 . S
C1561 C1562 1.388 . S
C1562 H1549 0.930 . S
C1562 C1561 1.388 . S
C1562 C1563 1.390 . S
C1563 C1562 1.390 . S
C1563 C1564 1.394 . S
C1563 C1569 1.465 . S
C1564 C1559 1.399 . S
C1564 C1563 1.394 . S
C1564 C1565 1.516 . S
C1565 C1564 1.516 . S
C1565 C1566 1.502 . S
C1565 C1567 1.561 . S
C1565 C1568 1.526 . S
C1566 H1550 0.959 . S
C1566 H1551 0.959 . S
C1566 H1552 0.961 . S
C1566 C1565 1.502 . S
C1567 H1553 0.960 . S
C1567 H1554 0.961 . S
C1567 H1555 0.959 . S
C1567 C1565 1.561 . S
C1568 C1565 1.526 . S
C1568 C1569 1.396 . S
C1568 C1573 1.390 . S
C1569 C1563 1.465 . S
C1569 C1568 1.396 . S
C1569 C1570 1.399 . S
C1570 H1556 0.929 . S
C1570 C1569 1.399 . S
C1570 C1571 1.385 . S
C1571 H1557 0.931 . S
C1571 C1570 1.385 . S
C1571 C1572 1.389 . S
C1572 C1571 1.389 . S
C1572 C1573 1.387 . S
C1573 H1558 0.930 . S
C1573 C1568 1.390 . S
C1573 C1572 1.387 . S
H1574 C1586 0.930 . S
H1575 C1588 0.930 . S
H1576 C1589 0.930 1_565 S
H1577 C1593 0.959 . S
H1578 C1593 0.959 . S
H1579 C1593 0.961 . S
H1580 C1594 0.960 . S
H1581 C1594 0.961 . S
H1582 C1594 0.959 . S
H1583 C1597 0.929 1_565 S
H1584 C1598 0.931 1_565 S
H1585 C1600 0.930 . S
C1586 H1574 0.930 . S
C1586 C1587 1.399 . S
C1586 C1591 1.399 . S
C1587 C1586 1.399 . S
C1587 C1588 1.376 . S
C1588 H1575 0.930 . S
C1588 C1587 1.376 . S
C1588 C1589 1.388 . S
C1589 H1576 0.930 1_545 S
C1589 C1588 1.388 . S
C1589 C1590 1.390 . S
C1590 C1589 1.390 . S
C1590 C1591 1.394 . S
C1590 C1596 1.465 . S
C1591 C1586 1.399 . S
C1591 C1590 1.394 . S
C1591 C1592 1.516 . S
C1592 C1591 1.516 . S
C1592 C1593 1.502 . S
C1592 C1594 1.561 . S
C1592 C1595 1.526 . S
C1593 H1577 0.959 . S
C1593 H1578 0.959 . S
C1593 H1579 0.961 . S
C1593 C1592 1.502 . S
C1594 H1580 0.960 . S
C1594 H1581 0.961 . S
C1594 H1582 0.959 . S
C1594 C1592 1.561 . S
C1595 C1592 1.526 . S
C1595 C1596 1.396 . S
C1595 C1600 1.390 . S
C1596 C1590 1.465 . S
C1596 C1595 1.396 . S
C1596 C1597 1.399 . S
C1597 H1583 0.929 1_545 S
C1597 C1596 1.399 . S
C1597 C1598 1.385 . S
C1598 H1584 0.931 1_545 S
C1598 C1597 1.385 . S
C1598 C1599 1.389 . S
C1599 C1598 1.389 . S
C1599 C1600 1.387 . S
C1600 H1585 0.930 . S
C1600 C1595 1.390 . S
C1600 C1599 1.387 . S
H1601 C1613 0.930 . S
H1602 C1615 0.930 . S
H1603 C1616 0.930 . S
H1604 C1620 0.959 . S
H1605 C1620 0.959 . S
H1606 C1620 0.961 . S
H1607 C1621 0.960 . S
H1608 C1621 0.961 . S
H1609 C1621 0.959 . S
H1610 C1624 0.929 . S
H1611 C1625 0.931 . S
H1612 C1627 0.930 . S
C1613 H1601 0.930 . S
C1613 C1614 1.399 . S
C1613 C1618 1.399 . S
C1614 C1613 1.399 . S
C1614 C1615 1.376 . S
C1615 H1602 0.930 . S
C1615 C1614 1.376 . S
C1615 C1616 1.388 . S
C1616 H1603 0.930 . S
C1616 C1615 1.388 . S
C1616 C1617 1.390 . S
C1617 C1616 1.390 . S
C1617 C1618 1.394 . S
C1617 C1623 1.465 . S
C1618 C1613 1.399 . S
C1618 C1617 1.394 . S
C1618 C1619 1.516 . S
C1619 C1618 1.516 . S
C1619 C1620 1.502 . S
C1619 C1621 1.561 . S
C1619 C1622 1.526 . S
C1620 H1604 0.959 . S
C1620 H1605 0.959 . S
C1620 H1606 0.961 . S
C1620 C1619 1.502 . S
C1621 H1607 0.960 . S
C1621 H1608 0.961 . S
C1621 H1609 0.959 . S
C1621 C1619 1.561 . S
C1622 C1619 1.526 . S
C1622 C1623 1.396 . S
C1622 C1627 1.390 . S
C1623 C1617 1.465 . S
C1623 C1622 1.396 . S
C1623 C1624 1.399 . S
C1624 H1610 0.929 . S
C1624 C1623 1.399 . S
C1624 C1625 1.385 . S
C1625 H1611 0.931 . S
C1625 C1624 1.385 . S
C1625 C1626 1.389 . S
C1626 C1625 1.389 . S
C1626 C1627 1.387 . S
C1627 H1612 0.930 . S
C1627 C1622 1.390 . S
C1627 C1626 1.387 . S
H1628 C1640 0.930 . S
H1629 C1642 0.930 . S
H1630 C1643 0.930 . S
H1631 C1647 0.959 . S
H1632 C1647 0.959 . S
H1633 C1647 0.961 . S
H1634 C1648 0.960 . S
H1635 C1648 0.961 . S
H1636 C1648 0.959 . S
H1637 C1651 0.929 . S
H1638 C1652 0.931 . S
H1639 C1654 0.930 . S
C1640 H1628 0.930 . S
C1640 C1641 1.399 . S
C1640 C1645 1.399 . S
C1641 C1640 1.399 . S
C1641 C1642 1.376 1_565 S
C1642 H1629 0.930 . S
C1642 C1641 1.376 1_545 S
C1642 C1643 1.388 . S
C1643 H1630 0.930 . S
C1643 C1642 1.388 . S
C1643 C1644 1.390 . S
C1644 C1643 1.390 . S
C1644 C1645 1.394 1_545 S
C1644 C1650 1.465 . S
C1645 C1640 1.399 . S
C1645 C1644 1.394 1_565 S
C1645 C1646 1.516 . S
C1646 C1645 1.516 . S
C1646 C1647 1.502 . S
C1646 C1648 1.561 . S
C1646 C1649 1.565 . S
C1647 H1631 0.959 . S
C1647 H1632 0.959 . S
C1647 H1633 0.961 . S
C1647 C1646 1.502 . S
C1648 H1634 0.960 . S
C1648 H1635 0.961 . S
C1648 H1636 0.959 . S
C1648 C1646 1.561 . S
C1649 C1646 1.565 . S
C1649 C1650 1.361 1_565 S
C1649 C1654 1.384 . S
C1650 C1644 1.465 . S
C1650 C1649 1.361 1_545 S
C1650 C1651 1.399 . S
C1651 H1637 0.929 . S
C1651 C1650 1.399 . S
C1651 C1652 1.385 . S
C1652 H1638 0.931 . S
C1652 C1651 1.385 . S
C1652 C1653 1.389 . S
C1653 C1652 1.389 . S
C1653 C1654 1.387 1_545 S
C1654 H1639 0.930 . S
C1654 C1649 1.384 . S
C1654 C1653 1.387 1_565 S
H1655 C1667 0.930 . S
H1656 C1669 0.930 . S
H1657 C1670 0.930 . S
H1658 C1674 0.959 . S
H1659 C1674 0.959 . S
H1660 C1674 0.961 . S
H1661 C1675 0.960 . S
H1662 C1675 0.961 . S
H1663 C1675 0.959 . S
H1664 C1678 0.929 . S
H1665 C1679 0.931 . S
H1666 C1681 0.930 . S
C1667 H1655 0.930 . S
C1667 C1668 1.399 . S
C1667 C1672 1.399 . S
C1668 C1667 1.399 . S
C1668 C1669 1.376 . S
C1669 H1656 0.930 . S
C1669 C1668 1.376 . S
C1669 C1670 1.388 . S
C1670 H1657 0.930 . S
C1670 C1669 1.388 . S
C1670 C1671 1.390 . S
C1671 C1670 1.390 . S
C1671 C1672 1.394 . S
C1671 C1677 1.465 . S
C1672 C1667 1.399 . S
C1672 C1671 1.394 . S
C1672 C1673 1.516 . S
C1673 C1672 1.516 . S
C1673 C1674 1.502 . S
C1673 C1675 1.561 . S
C1673 C1676 1.526 . S
C1674 H1658 0.959 . S
C1674 H1659 0.959 . S
C1674 H1660 0.961 . S
C1674 C1673 1.502 . S
C1675 H1661 0.960 . S
C1675 H1662 0.961 . S
C1675 H1663 0.959 . S
C1675 C1673 1.561 . S
C1676 C1673 1.526 . S
C1676 C1677 1.396 . S
C1676 C1681 1.390 . S
C1677 C1671 1.465 . S
C1677 C1676 1.396 . S
C1677 C1678 1.399 . S
C1678 H1664 0.929 . S
C1678 C1677 1.399 . S
C1678 C1679 1.385 . S
C1679 H1665 0.931 . S
C1679 C1678 1.385 . S
C1679 C1680 1.389 . S
C1680 C1679 1.389 . S
C1680 C1681 1.387 . S
C1681 H1666 0.930 . S
C1681 C1676 1.390 . S
C1681 C1680 1.387 . S
H1682 C1694 0.930 . S
H1683 C1696 0.930 . S
H1684 C1697 0.930 . S
H1685 C1701 0.959 . S
H1686 C1701 0.959 . S
H1687 C1701 0.961 . S
H1688 C1702 0.960 . S
H1689 C1702 0.961 . S
H1690 C1702 0.959 . S
H1691 C1705 0.929 1_565 S
H1692 C1706 0.931 1_565 S
H1693 C1708 0.930 . S
C1694 H1682 0.930 . S
C1694 C1695 1.399 . S
C1694 C1699 1.399 . S
C1695 C1694 1.399 . S
C1695 C1696 1.376 . S
C1696 H1683 0.930 . S
C1696 C1695 1.376 . S
C1696 C1697 1.388 . S
C1697 H1684 0.930 . S
C1697 C1696 1.388 . S
C1697 C1698 1.390 . S
C1698 C1697 1.390 . S
C1698 C1699 1.394 . S
C1698 C1704 1.465 . S
C1699 C1694 1.399 . S
C1699 C1698 1.394 . S
C1699 C1700 1.516 . S
C1700 C1699 1.516 . S
C1700 C1701 1.502 . S
C1700 C1702 1.561 . S
C1700 C1703 1.526 . S
C1701 H1685 0.959 . S
C1701 H1686 0.959 . S
C1701 H1687 0.961 . S
C1701 C1700 1.502 . S
C1702 H1688 0.960 . S
C1702 H1689 0.961 . S
C1702 H1690 0.959 . S
C1702 C1700 1.561 . S
C1703 C1700 1.526 . S
C1703 C1704 1.396 . S
C1703 C1708 1.390 . S
C1704 C1698 1.465 . S
C1704 C1703 1.396 . S
C1704 C1705 1.399 . S
C1705 H1691 0.929 1_545 S
C1705 C1704 1.399 . S
C1705 C1706 1.385 . S
C1706 H1692 0.931 1_545 S
C1706 C1705 1.385 . S
C1706 C1707 1.389 . S
C1707 C1706 1.389 . S
C1707 C1708 1.387 . S
C1708 H1693 0.930 . S
C1708 C1703 1.390 . S
C1708 C1707 1.387 . S
H1709 C1721 0.930 . S
H1710 C1723 0.930 . S
H1711 C1724 0.930 . S
H1712 C1728 0.959 . S
H1713 C1728 0.959 . S
H1714 C1728 0.961 . S
H1715 C1729 0.960 . S
H1716 C1729 0.961 . S
H1717 C1729 0.959 . S
H1718 C1732 0.929 . S
H1719 C1733 0.931 . S
H1720 C1735 0.930 . S
C1721 H1709 0.930 . S
C1721 C1722 1.399 . S
C1721 C1726 1.399 . S
C1722 C1721 1.399 . S
C1722 C1723 1.376 . S
C1723 H1710 0.930 . S
C1723 C1722 1.376 . S
C1723 C1724 1.388 . S
C1724 H1711 0.930 . S
C1724 C1723 1.388 . S
C1724 C1725 1.390 . S
C1725 C1724 1.390 . S
C1725 C1726 1.394 . S
C1725 C1731 1.465 . S
C1726 C1721 1.399 . S
C1726 C1725 1.394 . S
C1726 C1727 1.516 . S
C1727 C1726 1.516 . S
C1727 C1728 1.502 . S
C1727 C1729 1.561 . S
C1727 C1730 1.526 . S
C1728 H1712 0.959 . S
C1728 H1713 0.959 . S
C1728 H1714 0.961 . S
C1728 C1727 1.502 . S
C1729 H1715 0.960 . S
C1729 H1716 0.961 . S
C1729 H1717 0.959 . S
C1729 C1727 1.561 . S
C1730 C1727 1.526 . S
C1730 C1731 1.396 . S
C1730 C1735 1.390 . S
C1731 C1725 1.465 . S
C1731 C1730 1.396 . S
C1731 C1732 1.399 . S
C1732 H1718 0.929 . S
C1732 C1731 1.399 . S
C1732 C1733 1.385 . S
C1733 H1719 0.931 . S
C1733 C1732 1.385 . S
C1733 C1734 1.389 . S
C1734 C1733 1.389 . S
C1734 C1735 1.387 . S
C1735 H1720 0.930 . S
C1735 C1730 1.390 . S
C1735 C1734 1.387 . S
H1736 C1748 0.930 . S
H1737 C1750 0.930 . S
H1738 C1751 0.930 . S
H1739 C1755 0.959 . S
H1740 C1755 0.959 . S
H1741 C1755 0.961 . S
H1742 C1756 0.960 . S
H1743 C1756 0.961 . S
H1744 C1756 0.959 . S
H1745 C1759 0.929 . S
H1746 C1760 0.931 . S
H1747 C1762 0.928 . S
C1748 H1736 0.930 . S
C1748 C1749 1.399 . S
C1748 C1753 1.404 . S
C1749 C1748 1.399 . S
C1749 C1750 1.376 . S
C1750 H1737 0.930 . S
C1750 C1749 1.376 . S
C1750 C1751 1.388 . S
C1751 H1738 0.930 . S
C1751 C1750 1.388 . S
C1751 C1752 1.390 . S
C1752 C1751 1.390 . S
C1752 C1753 1.390 . S
C1752 C1758 1.465 . S
C1753 C1748 1.404 . S
C1753 C1752 1.390 . S
C1753 C1754 1.516 1_554 S
C1754 C1753 1.516 1_556 S
C1754 C1755 1.502 1_556 S
C1754 C1756 1.561 . S
C1754 C1757 1.528 1_556 S
C1755 H1739 0.959 . S
C1755 H1740 0.959 . S
C1755 H1741 0.961 . S
C1755 C1754 1.502 1_554 S
C1756 H1742 0.960 . S
C1756 H1743 0.961 . S
C1756 H1744 0.959 . S
C1756 C1754 1.561 . S
C1757 C1754 1.528 1_554 S
C1757 C1758 1.394 . S
C1757 C1762 1.391 . S
C1758 C1752 1.465 . S
C1758 C1757 1.394 . S
C1758 C1759 1.399 . S
C1759 H1745 0.929 . S
C1759 C1758 1.399 . S
C1759 C1760 1.385 . S
C1760 H1746 0.931 . S
C1760 C1759 1.385 . S
C1760 C1761 1.389 . S
C1761 C1760 1.389 . S
C1761 C1762 1.387 . S
C1762 H1747 0.928 . S
C1762 C1757 1.391 . S
C1762 C1761 1.387 . S
H1763 C1775 0.930 . S
H1764 C1777 0.930 . S
H1765 C1778 0.930 . S
H1766 C1782 0.959 . S
H1767 C1782 0.959 . S
H1768 C1782 0.961 . S
H1769 C1783 0.960 . S
H1770 C1783 0.961 . S
H1771 C1783 0.959 . S
H1772 C1786 0.929 . S
H1773 C1787 0.931 . S
H1774 C1789 0.930 . S
C1775 H1763 0.930 . S
C1775 C1776 1.399 . S
C1775 C1780 1.399 . S
C1776 C1775 1.399 . S
C1776 C1777 1.376 . S
C1777 H1764 0.930 . S
C1777 C1776 1.376 . S
C1777 C1778 1.388 . S
C1778 H1765 0.930 . S
C1778 C1777 1.388 . S
C1778 C1779 1.390 . S
C1779 C1778 1.390 . S
C1779 C1780 1.394 . S
C1779 C1785 1.465 . S
C1780 C1775 1.399 . S
C1780 C1779 1.394 . S
C1780 C1781 1.516 . S
C1781 C1780 1.516 . S
C1781 C1782 1.502 . S
C1781 C1783 1.561 . S
C1781 C1784 1.526 . S
C1782 H1766 0.959 . S
C1782 H1767 0.959 . S
C1782 H1768 0.961 . S
C1782 C1781 1.502 . S
C1783 H1769 0.960 . S
C1783 H1770 0.961 . S
C1783 H1771 0.959 . S
C1783 C1781 1.561 . S
C1784 C1781 1.526 . S
C1784 C1785 1.396 . S
C1784 C1789 1.390 . S
C1785 C1779 1.465 . S
C1785 C1784 1.396 . S
C1785 C1786 1.399 . S
C1786 H1772 0.929 . S
C1786 C1785 1.399 . S
C1786 C1787 1.385 . S
C1787 H1773 0.931 . S
C1787 C1786 1.385 . S
C1787 C1788 1.389 . S
C1788 C1787 1.389 . S
C1788 C1789 1.387 . S
C1789 H1774 0.930 . S
C1789 C1784 1.390 . S
C1789 C1788 1.387 . S
H1790 C1802 0.930 . S
H1791 C1804 0.930 . S
H1792 C1805 0.930 . S
H1793 C1809 0.959 . S
H1794 C1809 0.959 . S
H1795 C1809 0.961 . S
H1796 C1810 0.960 . S
H1797 C1810 0.961 . S
H1798 C1810 0.959 . S
H1799 C1813 0.929 . S
H1800 C1814 0.931 . S
H1801 C1816 0.930 . S
C1802 H1790 0.930 . S
C1802 C1803 1.399 . S
C1802 C1807 1.399 . S
C1803 C1802 1.399 . S
C1803 C1804 1.376 . S
C1804 H1791 0.930 . S
C1804 C1803 1.376 . S
C1804 C1805 1.388 . S
C1805 H1792 0.930 . S
C1805 C1804 1.388 . S
C1805 C1806 1.390 . S
C1806 C1805 1.390 . S
C1806 C1807 1.394 . S
C1806 C1812 1.465 . S
C1807 C1802 1.399 . S
C1807 C1806 1.394 . S
C1807 C1808 1.516 . S
C1808 C1807 1.516 . S
C1808 C1809 1.502 . S
C1808 C1810 1.561 . S
C1808 C1811 1.526 . S
C1809 H1793 0.959 . S
C1809 H1794 0.959 . S
C1809 H1795 0.961 . S
C1809 C1808 1.502 . S
C1810 H1796 0.960 . S
C1810 H1797 0.961 . S
C1810 H1798 0.959 . S
C1810 C1808 1.561 . S
C1811 C1808 1.526 . S
C1811 C1812 1.396 . S
C1811 C1816 1.390 . S
C1812 C1806 1.465 . S
C1812 C1811 1.396 . S
C1812 C1813 1.399 . S
C1813 H1799 0.929 . S
C1813 C1812 1.399 . S
C1813 C1814 1.385 . S
C1814 H1800 0.931 . S
C1814 C1813 1.385 . S
C1814 C1815 1.389 . S
C1815 C1814 1.389 . S
C1815 C1816 1.387 . S
C1816 H1801 0.930 . S
C1816 C1811 1.390 . S
C1816 C1815 1.387 . S
H1817 C1829 0.930 . S
H1818 C1831 0.930 . S
H1819 C1832 0.930 . S
H1820 C1836 0.959 . S
H1821 C1836 0.959 . S
H1822 C1836 0.961 . S
H1823 C1837 0.960 . S
H1824 C1837 0.961 . S
H1825 C1837 0.959 . S
H1826 C1840 0.929 . S
H1827 C1841 0.931 . S
H1828 C1843 0.930 . S
C1829 H1817 0.930 . S
C1829 C1830 1.399 . S
C1829 C1834 1.399 . S
C1830 C1829 1.399 . S
C1830 C1831 1.376 . S
C1831 H1818 0.930 . S
C1831 C1830 1.376 . S
C1831 C1832 1.388 . S
C1832 H1819 0.930 . S
C1832 C1831 1.388 . S
C1832 C1833 1.390 . S
C1833 C1832 1.390 . S
C1833 C1834 1.394 . S
C1833 C1839 1.465 . S
C1834 C1829 1.399 . S
C1834 C1833 1.394 . S
C1834 C1835 1.516 . S
C1835 C1834 1.516 . S
C1835 C1836 1.502 . S
C1835 C1837 1.561 . S
C1835 C1838 1.526 . S
C1836 H1820 0.959 . S
C1836 H1821 0.959 . S
C1836 H1822 0.961 . S
C1836 C1835 1.502 . S
C1837 H1823 0.960 . S
C1837 H1824 0.961 . S
C1837 H1825 0.959 . S
C1837 C1835 1.561 . S
C1838 C1835 1.526 . S
C1838 C1839 1.396 . S
C1838 C1843 1.390 . S
C1839 C1833 1.465 . S
C1839 C1838 1.396 . S
C1839 C1840 1.399 . S
C1840 H1826 0.929 . S
C1840 C1839 1.399 . S
C1840 C1841 1.385 . S
C1841 H1827 0.931 . S
C1841 C1840 1.385 . S
C1841 C1842 1.389 . S
C1842 C1841 1.389 . S
C1842 C1843 1.387 . S
C1843 H1828 0.930 . S
C1843 C1838 1.390 . S
C1843 C1842 1.387 . S
H1844 C1856 0.930 . S
H1845 C1858 0.930 . S
H1846 C1859 0.930 . S
H1847 C1863 0.959 . S
H1848 C1863 0.959 . S
H1849 C1863 0.961 . S
H1850 C1864 0.960 . S
H1851 C1864 0.961 . S
H1852 C1864 0.959 . S
H1853 C1867 0.929 . S
H1854 C1868 0.931 . S
H1855 C1870 0.930 . S
C1856 H1844 0.930 . S
C1856 C1857 1.399 . S
C1856 C1861 1.399 . S
C1857 C1856 1.399 . S
C1857 C1858 1.376 . S
C1858 H1845 0.930 . S
C1858 C1857 1.376 . S
C1858 C1859 1.388 . S
C1859 H1846 0.930 . S
C1859 C1858 1.388 . S
C1859 C1860 1.390 . S
C1860 C1859 1.390 . S
C1860 C1861 1.394 . S
C1860 C1866 1.465 . S
C1861 C1856 1.399 . S
C1861 C1860 1.394 . S
C1861 C1862 1.516 . S
C1862 C1861 1.516 . S
C1862 C1863 1.502 . S
C1862 C1864 1.561 . S
C1862 C1865 1.526 . S
C1863 H1847 0.959 . S
C1863 H1848 0.959 . S
C1863 H1849 0.961 . S
C1863 C1862 1.502 . S
C1864 H1850 0.960 . S
C1864 H1851 0.961 . S
C1864 H1852 0.959 . S
C1864 C1862 1.561 . S
C1865 C1862 1.526 . S
C1865 C1866 1.396 . S
C1865 C1870 1.390 . S
C1866 C1860 1.465 . S
C1866 C1865 1.396 . S
C1866 C1867 1.399 . S
C1867 H1853 0.929 . S
C1867 C1866 1.399 . S
C1867 C1868 1.385 . S
C1868 H1854 0.931 . S
C1868 C1867 1.385 . S
C1868 C1869 1.389 . S
C1869 C1868 1.389 . S
C1869 C1870 1.387 . S
C1870 H1855 0.930 . S
C1870 C1865 1.390 . S
C1870 C1869 1.387 . S
H1871 C1883 0.930 . S
H1872 C1885 0.930 . S
H1873 C1886 0.930 . S
H1874 C1890 0.959 . S
H1875 C1890 0.959 1_545 S
H1876 C1890 0.961 . S
H1877 C1891 0.960 . S
H1878 C1891 0.961 1_545 S
H1879 C1891 0.959 . S
H1880 C1894 0.929 . S
H1881 C1895 0.931 . S
H1882 C1897 0.930 1_545 S
C1883 H1871 0.930 . S
C1883 C1884 1.399 . S
C1883 C1888 1.399 . S
C1884 C1883 1.399 . S
C1884 C1885 1.376 . S
C1885 H1872 0.930 . S
C1885 C1884 1.376 . S
C1885 C1886 1.388 . S
C1886 H1873 0.930 . S
C1886 C1885 1.388 . S
C1886 C1887 1.390 . S
C1887 C1886 1.390 . S
C1887 C1888 1.394 . S
C1887 C1893 1.465 . S
C1888 C1883 1.399 . S
C1888 C1887 1.394 . S
C1888 C1889 1.516 . S
C1889 C1888 1.516 . S
C1889 C1890 1.502 . S
C1889 C1891 1.561 . S
C1889 C1892 1.526 . S
C1890 H1874 0.959 . S
C1890 H1875 0.959 1_565 S
C1890 H1876 0.961 . S
C1890 C1889 1.502 . S
C1891 H1877 0.960 . S
C1891 H1878 0.961 1_565 S
C1891 H1879 0.959 . S
C1891 C1889 1.561 . S
C1892 C1889 1.526 . S
C1892 C1893 1.396 . S
C1892 C1897 1.390 . S
C1893 C1887 1.465 . S
C1893 C1892 1.396 . S
C1893 C1894 1.399 . S
C1894 H1880 0.929 . S
C1894 C1893 1.399 . S
C1894 C1895 1.385 . S
C1895 H1881 0.931 . S
C1895 C1894 1.385 . S
C1895 C1896 1.389 . S
C1896 C1895 1.389 . S
C1896 C1897 1.387 . S
C1897 H1882 0.930 1_565 S
C1897 C1892 1.390 . S
C1897 C1896 1.387 . S
H1898 C1910 0.930 . S
H1899 C1912 0.930 . S
H1900 C1913 0.930 . S
H1901 C1917 0.959 . S
H1902 C1917 0.959 . S
H1903 C1917 0.961 . S
H1904 C1918 0.960 . S
H1905 C1918 0.961 . S
H1906 C1918 0.959 . S
H1907 C1921 0.929 . S
H1908 C1922 0.931 . S
H1909 C1924 0.930 . S
C1910 H1898 0.930 . S
C1910 C1911 1.399 . S
C1910 C1915 1.399 . S
C1911 C1910 1.399 . S
C1911 C1912 1.376 . S
C1912 H1899 0.930 . S
C1912 C1911 1.376 . S
C1912 C1913 1.388 . S
C1913 H1900 0.930 . S
C1913 C1912 1.388 . S
C1913 C1914 1.390 . S
C1914 C1913 1.390 . S
C1914 C1915 1.394 . S
C1914 C1920 1.465 . S
C1915 C1910 1.399 . S
C1915 C1914 1.394 . S
C1915 C1916 1.516 . S
C1916 C1915 1.516 . S
C1916 C1917 1.502 . S
C1916 C1918 1.561 . S
C1916 C1919 1.526 . S
C1917 H1901 0.959 . S
C1917 H1902 0.959 . S
C1917 H1903 0.961 . S
C1917 C1916 1.502 . S
C1918 H1904 0.960 . S
C1918 H1905 0.961 . S
C1918 H1906 0.959 . S
C1918 C1916 1.561 . S
C1919 C1916 1.526 . S
C1919 C1920 1.396 . S
C1919 C1924 1.390 . S
C1920 C1914 1.465 . S
C1920 C1919 1.396 . S
C1920 C1921 1.399 . S
C1921 H1907 0.929 . S
C1921 C1920 1.399 . S
C1921 C1922 1.385 . S
C1922 H1908 0.931 . S
C1922 C1921 1.385 . S
C1922 C1923 1.389 . S
C1923 C1922 1.389 . S
C1923 C1924 1.387 . S
C1924 H1909 0.930 . S
C1924 C1919 1.390 . S
C1924 C1923 1.387 . S
H1925 C1937 0.930 . S
H1926 C1939 0.930 . S
H1927 C1940 0.930 . S
H1928 C1944 0.959 . S
H1929 C1944 0.959 . S
H1930 C1944 0.961 . S
H1931 C1945 0.960 . S
H1932 C1945 0.961 . S
H1933 C1945 0.959 . S
H1934 C1948 0.929 . S
H1935 C1949 0.931 . S
H1936 C1951 0.930 . S
C1937 H1925 0.930 . S
C1937 C1938 1.399 . S
C1937 C1942 1.399 . S
C1938 C1937 1.399 . S
C1938 C1939 1.376 . S
C1939 H1926 0.930 . S
C1939 C1938 1.376 . S
C1939 C1940 1.388 . S
C1940 H1927 0.930 . S
C1940 C1939 1.388 . S
C1940 C1941 1.390 . S
C1941 C1940 1.390 . S
C1941 C1942 1.394 . S
C1941 C1947 1.465 . S
C1942 C1937 1.399 . S
C1942 C1941 1.394 . S
C1942 C1943 1.516 . S
C1943 C1942 1.516 . S
C1943 C1944 1.502 . S
C1943 C1945 1.561 . S
C1943 C1946 1.526 . S
C1944 H1928 0.959 . S
C1944 H1929 0.959 . S
C1944 H1930 0.961 . S
C1944 C1943 1.502 . S
C1945 H1931 0.960 . S
C1945 H1932 0.961 . S
C1945 H1933 0.959 . S
C1945 C1943 1.561 . S
C1946 C1943 1.526 . S
C1946 C1947 1.396 . S
C1946 C1951 1.390 . S
C1947 C1941 1.465 . S
C1947 C1946 1.396 . S
C1947 C1948 1.399 . S
C1948 H1934 0.929 . S
C1948 C1947 1.399 . S
C1948 C1949 1.385 . S
C1949 H1935 0.931 . S
C1949 C1948 1.385 . S
C1949 C1950 1.389 . S
C1950 C1949 1.389 . S
C1950 C1951 1.387 . S
C1951 H1936 0.930 . S
C1951 C1946 1.390 . S
C1951 C1950 1.387 . S
H1952 C1964 0.930 . S
H1953 C1966 0.930 . S
H1954 C1967 0.930 . S
H1955 C1971 0.959 . S
H1956 C1971 0.959 . S
H1957 C1971 0.961 . S
H1958 C1972 0.960 . S
H1959 C1972 0.961 . S
H1960 C1972 0.959 . S
H1961 C1975 0.929 . S
H1962 C1976 0.931 . S
H1963 C1978 0.930 . S
C1964 H1952 0.930 . S
C1964 C1965 1.399 . S
C1964 C1969 1.399 . S
C1965 C1964 1.399 . S
C1965 C1966 1.376 . S
C1966 H1953 0.930 . S
C1966 C1965 1.376 . S
C1966 C1967 1.388 . S
C1967 H1954 0.930 . S
C1967 C1966 1.388 . S
C1967 C1968 1.390 . S
C1968 C1967 1.390 . S
C1968 C1969 1.394 . S
C1968 C1974 1.465 . S
C1969 C1964 1.399 . S
C1969 C1968 1.394 . S
C1969 C1970 1.516 . S
C1970 C1969 1.516 . S
C1970 C1971 1.502 . S
C1970 C1972 1.561 . S
C1970 C1973 1.526 . S
C1971 H1955 0.959 . S
C1971 H1956 0.959 . S
C1971 H1957 0.961 . S
C1971 C1970 1.502 . S
C1972 H1958 0.960 . S
C1972 H1959 0.961 . S
C1972 H1960 0.959 . S
C1972 C1970 1.561 . S
C1973 C1970 1.526 . S
C1973 C1974 1.396 . S
C1973 C1978 1.390 . S
C1974 C1968 1.465 . S
C1974 C1973 1.396 . S
C1974 C1975 1.399 . S
C1975 H1961 0.929 . S
C1975 C1974 1.399 . S
C1975 C1976 1.385 . S
C1976 H1962 0.931 . S
C1976 C1975 1.385 . S
C1976 C1977 1.389 . S
C1977 C1976 1.389 . S
C1977 C1978 1.387 . S
C1978 H1963 0.930 . S
C1978 C1973 1.390 . S
C1978 C1977 1.387 . S
H1979 C1991 0.930 . S
H1980 C1993 0.930 . S
H1981 C1994 0.930 . S
H1982 C1998 0.959 . S
H1983 C1998 0.959 . S
H1984 C1998 0.961 . S
H1985 C1999 0.960 . S
H1986 C1999 0.961 . S
H1987 C1999 0.959 . S
H1988 C2002 0.929 . S
H1989 C2003 0.931 . S
H1990 C2005 0.930 . S
C1991 H1979 0.930 . S
C1991 C1992 1.399 . S
C1991 C1996 1.399 . S
C1992 C1991 1.399 . S
C1992 C1993 1.376 . S
C1993 H1980 0.930 . S
C1993 C1992 1.376 . S
C1993 C1994 1.388 . S
C1994 H1981 0.930 . S
C1994 C1993 1.388 . S
C1994 C1995 1.390 . S
C1995 C1994 1.390 . S
C1995 C1996 1.394 . S
C1995 C2001 1.465 . S
C1996 C1991 1.399 . S
C1996 C1995 1.394 . S
C1996 C1997 1.516 . S
C1997 C1996 1.516 . S
C1997 C1998 1.502 . S
C1997 C1999 1.561 . S
C1997 C2000 1.526 . S
C1998 H1982 0.959 . S
C1998 H1983 0.959 . S
C1998 H1984 0.961 . S
C1998 C1997 1.502 . S
C1999 H1985 0.960 . S
C1999 H1986 0.961 . S
C1999 H1987 0.959 . S
C1999 C1997 1.561 . S
C2000 C1997 1.526 . S
C2000 C2001 1.396 . S
C2000 C2005 1.390 . S
C2001 C1995 1.465 . S
C2001 C2000 1.396 . S
C2001 C2002 1.399 . S
C2002 H1988 0.929 . S
C2002 C2001 1.399 . S
C2002 C2003 1.385 . S
C2003 H1989 0.931 . S
C2003 C2002 1.385 . S
C2003 C2004 1.389 . S
C2004 C2003 1.389 . S
C2004 C2005 1.387 . S
C2005 H1990 0.930 . S
C2005 C2000 1.390 . S
C2005 C2004 1.387 . S
H2006 C2018 0.930 . S
H2007 C2020 0.930 . S
H2008 C2021 0.930 . S
H2009 C2025 0.959 . S
H2010 C2025 0.959 . S
H2011 C2025 0.961 . S
H2012 C2026 0.960 . S
H2013 C2026 0.961 . S
H2014 C2026 0.959 1_655 S
H2015 C2029 0.929 . S
H2016 C2030 0.931 1_554 S
H2017 C2032 0.930 . S
C2018 H2006 0.930 . S
C2018 C2019 1.399 . S
C2018 C2023 1.399 . S
C2019 C2018 1.399 . S
C2019 C2020 1.376 1_455 S
C2020 H2007 0.930 . S
C2020 C2019 1.376 1_655 S
C2020 C2021 1.388 . S
C2021 H2008 0.930 . S
C2021 C2020 1.388 . S
C2021 C2022 1.390 1_655 S
C2022 C2021 1.390 1_455 S
C2022 C2023 1.394 . S
C2022 C2028 1.464 1_455 S
C2023 C2018 1.399 . S
C2023 C2022 1.394 . S
C2023 C2024 1.516 . S
C2024 C2023 1.516 . S
C2024 C2025 1.502 . S
C2024 C2026 1.561 . S
C2024 C2027 1.526 . S
C2025 H2009 0.959 . S
C2025 H2010 0.959 . S
C2025 H2011 0.961 . S
C2025 C2024 1.502 . S
C2026 H2012 0.960 . S
C2026 H2013 0.961 . S
C2026 H2014 0.959 1_455 S
C2026 C2024 1.561 . S
C2027 C2024 1.526 . S
C2027 C2028 1.394 1_455 S
C2027 C2032 1.390 . S
C2028 C2022 1.464 1_655 S
C2028 C2027 1.394 1_655 S
C2028 C2029 1.401 . S
C2029 H2015 0.929 . S
C2029 C2028 1.401 . S
C2029 C2030 1.385 . S
C2030 H2016 0.931 1_556 S
C2030 C2029 1.385 . S
C2030 C2031 1.389 1_655 S
C2031 C2030 1.389 1_455 S
C2031 C2032 1.387 . S
C2032 H2017 0.930 . S
C2032 C2027 1.390 . S
C2032 C2031 1.387 . S
H2033 C2045 0.930 . S
H2034 C2047 0.930 . S
H2035 C2048 0.930 . S
H2036 C2052 0.959 . S
H2037 C2052 0.959 . S
H2038 C2052 0.961 . S
H2039 C2053 0.960 . S
H2040 C2053 0.961 . S
H2041 C2053 0.959 . S
H2042 C2056 0.929 . S
H2043 C2057 0.931 . S
H2044 C2059 0.930 . S
C2045 H2033 0.930 . S
C2045 C2046 1.399 . S
C2045 C2050 1.399 . S
C2046 C2045 1.399 . S
C2046 C2047 1.376 . S
C2047 H2034 0.930 . S
C2047 C2046 1.376 . S
C2047 C2048 1.388 . S
C2048 H2035 0.930 . S
C2048 C2047 1.388 . S
C2048 C2049 1.390 . S
C2049 C2048 1.390 . S
C2049 C2050 1.394 . S
C2049 C2055 1.465 . S
C2050 C2045 1.399 . S
C2050 C2049 1.394 . S
C2050 C2051 1.516 . S
C2051 C2050 1.516 . S
C2051 C2052 1.502 . S
C2051 C2053 1.561 . S
C2051 C2054 1.526 . S
C2052 H2036 0.959 . S
C2052 H2037 0.959 . S
C2052 H2038 0.961 . S
C2052 C2051 1.502 . S
C2053 H2039 0.960 . S
C2053 H2040 0.961 . S
C2053 H2041 0.959 . S
C2053 C2051 1.561 . S
C2054 C2051 1.526 . S
C2054 C2055 1.396 . S
C2054 C2059 1.390 . S
C2055 C2049 1.465 . S
C2055 C2054 1.396 . S
C2055 C2056 1.399 . S
C2056 H2042 0.929 . S
C2056 C2055 1.399 . S
C2056 C2057 1.385 . S
C2057 H2043 0.931 . S
C2057 C2056 1.385 . S
C2057 C2058 1.389 . S
C2058 C2057 1.389 . S
C2058 C2059 1.387 . S
C2059 H2044 0.930 . S
C2059 C2054 1.390 . S
C2059 C2058 1.387 . S
H2060 C2072 0.930 . S
H2061 C2074 0.930 . S
H2062 C2075 0.930 . S
H2063 C2079 0.959 . S
H2064 C2079 0.959 . S
H2065 C2079 0.961 . S
H2066 C2080 0.960 . S
H2067 C2080 0.961 . S
H2068 C2080 0.959 . S
H2069 C2083 0.929 . S
H2070 C2084 0.931 . S
H2071 C2086 0.930 . S
C2072 H2060 0.930 . S
C2072 C2073 1.399 . S
C2072 C2077 1.399 . S
C2073 C2072 1.399 . S
C2073 C2074 1.376 . S
C2074 H2061 0.930 . S
C2074 C2073 1.376 . S
C2074 C2075 1.388 . S
C2075 H2062 0.930 . S
C2075 C2074 1.388 . S
C2075 C2076 1.390 . S
C2076 C2075 1.390 . S
C2076 C2077 1.394 . S
C2076 C2082 1.465 . S
C2077 C2072 1.399 . S
C2077 C2076 1.394 . S
C2077 C2078 1.516 . S
C2078 C2077 1.516 . S
C2078 C2079 1.502 . S
C2078 C2080 1.561 . S
C2078 C2081 1.526 . S
C2079 H2063 0.959 . S
C2079 H2064 0.959 . S
C2079 H2065 0.961 . S
C2079 C2078 1.502 . S
C2080 H2066 0.960 . S
C2080 H2067 0.961 . S
C2080 H2068 0.959 . S
C2080 C2078 1.561 . S
C2081 C2078 1.526 . S
C2081 C2082 1.396 . S
C2081 C2086 1.390 . S
C2082 C2076 1.465 . S
C2082 C2081 1.396 . S
C2082 C2083 1.399 . S
C2083 H2069 0.929 . S
C2083 C2082 1.399 . S
C2083 C2084 1.385 . S
C2084 H2070 0.931 . S
C2084 C2083 1.385 . S
C2084 C2085 1.389 . S
C2085 C2084 1.389 . S
C2085 C2086 1.387 . S
C2086 H2071 0.930 . S
C2086 C2081 1.390 . S
C2086 C2085 1.387 . S
H2087 C2099 0.930 . S
H2088 C2101 0.930 . S
H2089 C2102 0.930 . S
H2090 C2106 0.959 . S
H2091 C2106 0.959 . S
H2092 C2106 0.961 . S
H2093 C2107 0.960 . S
H2094 C2107 0.961 . S
H2095 C2107 0.959 . S
H2096 C2110 0.929 . S
H2097 C2111 0.931 . S
H2098 C2113 0.930 . S
C2099 H2087 0.930 . S
C2099 C2100 1.399 . S
C2099 C2104 1.399 . S
C2100 C2099 1.399 . S
C2100 C2101 1.376 . S
C2101 H2088 0.930 . S
C2101 C2100 1.376 . S
C2101 C2102 1.388 . S
C2102 H2089 0.930 . S
C2102 C2101 1.388 . S
C2102 C2103 1.390 . S
C2103 C2102 1.390 . S
C2103 C2104 1.394 . S
C2103 C2109 1.465 . S
C2104 C2099 1.399 . S
C2104 C2103 1.394 . S
C2104 C2105 1.516 . S
C2105 C2104 1.516 . S
C2105 C2106 1.502 . S
C2105 C2107 1.561 . S
C2105 C2108 1.526 . S
C2106 H2090 0.959 . S
C2106 H2091 0.959 . S
C2106 H2092 0.961 . S
C2106 C2105 1.502 . S
C2107 H2093 0.960 . S
C2107 H2094 0.961 . S
C2107 H2095 0.959 . S
C2107 C2105 1.561 . S
C2108 C2105 1.526 . S
C2108 C2109 1.396 . S
C2108 C2113 1.390 . S
C2109 C2103 1.465 . S
C2109 C2108 1.396 . S
C2109 C2110 1.399 . S
C2110 H2096 0.929 . S
C2110 C2109 1.399 . S
C2110 C2111 1.385 . S
C2111 H2097 0.931 . S
C2111 C2110 1.385 . S
C2111 C2112 1.389 . S
C2112 C2111 1.389 . S
C2112 C2113 1.387 . S
C2113 H2098 0.930 . S
C2113 C2108 1.390 . S
C2113 C2112 1.387 . S
H2114 C2126 0.930 . S
H2115 C2128 0.930 . S
H2116 C2129 0.930 . S
H2117 C2133 0.959 . S
H2118 C2133 0.959 . S
H2119 C2133 0.961 . S
H2120 C2134 0.960 . S
H2121 C2134 0.961 . S
H2122 C2134 0.959 1_655 S
H2123 C2137 0.929 . S
H2124 C2138 0.931 . S
H2125 C2140 0.930 . S
C2126 H2114 0.930 . S
C2126 C2127 1.399 1_455 S
C2126 C2131 1.399 . S
C2127 C2126 1.399 1_655 S
C2127 C2128 1.376 . S
C2128 H2115 0.930 . S
C2128 C2127 1.376 . S
C2128 C2129 1.388 . S
C2129 H2116 0.930 . S
C2129 C2128 1.388 . S
C2129 C2130 1.390 . S
C2130 C2129 1.390 . S
C2130 C2131 1.394 1_655 S
C2130 C2136 1.465 . S
C2131 C2126 1.399 . S
C2131 C2130 1.394 1_455 S
C2131 C2132 1.516 . S
C2132 C2131 1.516 . S
C2132 C2133 1.502 . S
C2132 C2134 1.561 . S
C2132 C2135 1.526 . S
C2133 H2117 0.959 . S
C2133 H2118 0.959 . S
C2133 H2119 0.961 . S
C2133 C2132 1.502 . S
C2134 H2120 0.960 . S
C2134 H2121 0.961 . S
C2134 H2122 0.959 1_455 S
C2134 C2132 1.561 . S
C2135 C2132 1.526 . S
C2135 C2136 1.396 1_455 S
C2135 C2140 1.390 . S
C2136 C2130 1.465 . S
C2136 C2135 1.396 1_655 S
C2136 C2137 1.399 . S
C2137 H2123 0.929 . S
C2137 C2136 1.399 . S
C2137 C2138 1.385 . S
C2138 H2124 0.931 . S
C2138 C2137 1.385 . S
C2138 C2139 1.389 . S
C2139 C2138 1.389 . S
C2139 C2140 1.387 1_655 S
C2140 H2125 0.930 . S
C2140 C2135 1.390 . S
C2140 C2139 1.387 1_455 S
H2141 C2153 0.930 . S
H2142 C2155 0.930 . S
H2143 C2156 0.930 . S
H2144 C2160 0.959 . S
H2145 C2160 0.959 . S
H2146 C2160 0.961 . S
H2147 C2161 0.960 . S
H2148 C2161 0.961 . S
H2149 C2161 0.959 . S
H2150 C2164 0.929 . S
H2151 C2165 0.931 . S
H2152 C2167 0.930 . S
C2153 H2141 0.930 . S
C2153 C2154 1.399 . S
C2153 C2158 1.399 . S
C2154 C2153 1.399 . S
C2154 C2155 1.376 . S
C2155 H2142 0.930 . S
C2155 C2154 1.376 . S
C2155 C2156 1.388 . S
C2156 H2143 0.930 . S
C2156 C2155 1.388 . S
C2156 C2157 1.390 . S
C2157 C2156 1.390 . S
C2157 C2158 1.394 . S
C2157 C2163 1.465 . S
C2158 C2153 1.399 . S
C2158 C2157 1.394 . S
C2158 C2159 1.516 . S
C2159 C2158 1.516 . S
C2159 C2160 1.502 . S
C2159 C2161 1.561 . S
C2159 C2162 1.526 . S
C2160 H2144 0.959 . S
C2160 H2145 0.959 . S
C2160 H2146 0.961 . S
C2160 C2159 1.502 . S
C2161 H2147 0.960 . S
C2161 H2148 0.961 . S
C2161 H2149 0.959 . S
C2161 C2159 1.561 . S
C2162 C2159 1.526 . S
C2162 C2163 1.396 . S
C2162 C2167 1.390 . S
C2163 C2157 1.465 . S
C2163 C2162 1.396 . S
C2163 C2164 1.399 . S
C2164 H2150 0.929 . S
C2164 C2163 1.399 . S
C2164 C2165 1.385 . S
C2165 H2151 0.931 . S
C2165 C2164 1.385 . S
C2165 C2166 1.389 . S
C2166 C2165 1.389 . S
C2166 C2167 1.387 . S
C2167 H2152 0.930 . S
C2167 C2162 1.390 . S
C2167 C2166 1.387 . S
H2168 C2180 0.930 . S
H2169 C2182 0.930 . S
H2170 C2183 0.930 . S
H2171 C2187 0.959 . S
H2172 C2187 0.959 . S
H2173 C2187 0.961 . S
H2174 C2188 0.960 . S
H2175 C2188 0.961 . S
H2176 C2188 0.959 . S
H2177 C2191 0.929 . S
H2178 C2192 0.931 . S
H2179 C2194 0.930 . S
C2180 H2168 0.930 . S
C2180 C2181 1.399 . S
C2180 C2185 1.399 . S
C2181 C2180 1.399 . S
C2181 C2182 1.376 . S
C2182 H2169 0.930 . S
C2182 C2181 1.376 . S
C2182 C2183 1.388 . S
C2183 H2170 0.930 . S
C2183 C2182 1.388 . S
C2183 C2184 1.390 . S
C2184 C2183 1.390 . S
C2184 C2185 1.394 . S
C2184 C2190 1.465 . S
C2185 C2180 1.399 . S
C2185 C2184 1.394 . S
C2185 C2186 1.516 . S
C2186 C2185 1.516 . S
C2186 C2187 1.502 . S
C2186 C2188 1.561 . S
C2186 C2189 1.526 . S
C2187 H2171 0.959 . S
C2187 H2172 0.959 . S
C2187 H2173 0.961 . S
C2187 C2186 1.502 . S
C2188 H2174 0.960 . S
C2188 H2175 0.961 . S
C2188 H2176 0.959 . S
C2188 C2186 1.561 . S
C2189 C2186 1.526 . S
C2189 C2190 1.396 . S
C2189 C2194 1.390 . S
C2190 C2184 1.465 . S
C2190 C2189 1.396 . S
C2190 C2191 1.399 . S
C2191 H2177 0.929 . S
C2191 C2190 1.399 . S
C2191 C2192 1.385 . S
C2192 H2178 0.931 . S
C2192 C2191 1.385 . S
C2192 C2193 1.389 . S
C2193 C2192 1.389 . S
C2193 C2194 1.387 . S
C2194 H2179 0.930 . S
C2194 C2189 1.390 . S
C2194 C2193 1.387 . S
H2195 C2207 0.930 . S
H2196 C2209 0.930 . S
H2197 C2210 0.930 . S
H2198 C2214 0.959 . S
H2199 C2214 0.959 . S
H2200 C2214 0.961 . S
H2201 C2215 0.960 . S
H2202 C2215 0.961 . S
H2203 C2215 0.959 . S
H2204 C2218 0.929 . S
H2205 C2219 0.931 . S
H2206 C2221 0.930 . S
C2207 H2195 0.930 . S
C2207 C2208 1.399 . S
C2207 C2212 1.399 . S
C2208 C2207 1.399 . S
C2208 C2209 1.376 . S
C2209 H2196 0.930 . S
C2209 C2208 1.376 . S
C2209 C2210 1.388 . S
C2210 H2197 0.930 . S
C2210 C2209 1.388 . S
C2210 C2211 1.390 . S
C2211 C2210 1.390 . S
C2211 C2212 1.394 . S
C2211 C2217 1.465 . S
C2212 C2207 1.399 . S
C2212 C2211 1.394 . S
C2212 C2213 1.516 . S
C2213 C2212 1.516 . S
C2213 C2214 1.502 . S
C2213 C2215 1.561 . S
C2213 C2216 1.526 . S
C2214 H2198 0.959 . S
C2214 H2199 0.959 . S
C2214 H2200 0.961 . S
C2214 C2213 1.502 . S
C2215 H2201 0.960 . S
C2215 H2202 0.961 . S
C2215 H2203 0.959 . S
C2215 C2213 1.561 . S
C2216 C2213 1.526 . S
C2216 C2217 1.396 . S
C2216 C2221 1.390 . S
C2217 C2211 1.465 . S
C2217 C2216 1.396 . S
C2217 C2218 1.399 . S
C2218 H2204 0.929 . S
C2218 C2217 1.399 . S
C2218 C2219 1.385 . S
C2219 H2205 0.931 . S
C2219 C2218 1.385 . S
C2219 C2220 1.389 . S
C2220 C2219 1.389 . S
C2220 C2221 1.387 . S
C2221 H2206 0.930 . S
C2221 C2216 1.390 . S
C2221 C2220 1.387 . S
H2222 C2234 0.930 . S
H2223 C2236 0.930 . S
H2224 C2237 0.930 . S
H2225 C2241 0.959 . S
H2226 C2241 0.959 1_655 S
H2227 C2241 0.961 . S
H2228 C2242 0.960 . S
H2229 C2242 0.961 1_655 S
H2230 C2242 0.959 . S
H2231 C2245 0.929 . S
H2232 C2246 0.931 . S
H2233 C2248 0.930 . S
C2234 H2222 0.930 . S
C2234 C2235 1.399 . S
C2234 C2239 1.399 . S
C2235 C2234 1.399 . S
C2235 C2236 1.376 . S
C2236 H2223 0.930 . S
C2236 C2235 1.376 . S
C2236 C2237 1.388 . S
C2237 H2224 0.930 . S
C2237 C2236 1.388 . S
C2237 C2238 1.390 . S
C2238 C2237 1.390 . S
C2238 C2239 1.394 . S
C2238 C2244 1.465 . S
C2239 C2234 1.399 . S
C2239 C2238 1.394 . S
C2239 C2240 1.516 . S
C2240 C2239 1.516 . S
C2240 C2241 1.502 . S
C2240 C2242 1.561 . S
C2240 C2243 1.526 . S
C2241 H2225 0.959 . S
C2241 H2226 0.959 1_455 S
C2241 H2227 0.961 . S
C2241 C2240 1.502 . S
C2242 H2228 0.960 . S
C2242 H2229 0.961 1_455 S
C2242 H2230 0.959 . S
C2242 C2240 1.561 . S
C2243 C2240 1.526 . S
C2243 C2244 1.396 . S
C2243 C2248 1.390 . S
C2244 C2238 1.465 . S
C2244 C2243 1.396 . S
C2244 C2245 1.399 . S
C2245 H2231 0.929 . S
C2245 C2244 1.399 . S
C2245 C2246 1.385 . S
C2246 H2232 0.931 . S
C2246 C2245 1.385 . S
C2246 C2247 1.389 . S
C2247 C2246 1.389 . S
C2247 C2248 1.387 . S
C2248 H2233 0.930 . S
C2248 C2243 1.390 . S
C2248 C2247 1.387 . S
H2249 C2261 0.930 . S
H2250 C2263 0.930 . S
H2251 C2264 0.930 . S
H2252 C2268 0.959 . S
H2253 C2268 0.959 . S
H2254 C2268 0.961 . S
H2255 C2269 0.960 . S
H2256 C2269 0.961 . S
H2257 C2269 0.959 . S
H2258 C2272 0.929 . S
H2259 C2273 0.931 . S
H2260 C2275 0.930 . S
C2261 H2249 0.930 . S
C2261 C2262 1.399 . S
C2261 C2266 1.399 . S
C2262 C2261 1.399 . S
C2262 C2263 1.376 . S
C2263 H2250 0.930 . S
C2263 C2262 1.376 . S
C2263 C2264 1.388 . S
C2264 H2251 0.930 . S
C2264 C2263 1.388 . S
C2264 C2265 1.390 . S
C2265 C2264 1.390 . S
C2265 C2266 1.394 . S
C2265 C2271 1.465 . S
C2266 C2261 1.399 . S
C2266 C2265 1.394 . S
C2266 C2267 1.516 . S
C2267 C2266 1.516 . S
C2267 C2268 1.502 . S
C2267 C2269 1.561 . S
C2267 C2270 1.526 . S
C2268 H2252 0.959 . S
C2268 H2253 0.959 . S
C2268 H2254 0.961 . S
C2268 C2267 1.502 . S
C2269 H2255 0.960 . S
C2269 H2256 0.961 . S
C2269 H2257 0.959 . S
C2269 C2267 1.561 . S
C2270 C2267 1.526 . S
C2270 C2271 1.396 . S
C2270 C2275 1.390 . S
C2271 C2265 1.465 . S
C2271 C2270 1.396 . S
C2271 C2272 1.399 . S
C2272 H2258 0.929 . S
C2272 C2271 1.399 . S
C2272 C2273 1.385 . S
C2273 H2259 0.931 . S
C2273 C2272 1.385 . S
C2273 C2274 1.389 . S
C2274 C2273 1.389 . S
C2274 C2275 1.387 . S
C2275 H2260 0.930 . S
C2275 C2270 1.390 . S
C2275 C2274 1.387 . S
H2276 C2288 0.930 . S
H2277 C2290 0.930 . S
H2278 C2291 0.930 . S
H2279 C2295 0.959 . S
H2280 C2295 0.959 . S
H2281 C2295 0.961 . S
H2282 C2296 0.960 . S
H2283 C2296 0.961 . S
H2284 C2296 0.959 . S
H2285 C2299 0.929 . S
H2286 C2300 0.931 . S
H2287 C2302 0.930 . S
C2288 H2276 0.930 . S
C2288 C2289 1.399 . S
C2288 C2293 1.399 . S
C2289 C2288 1.399 . S
C2289 C2290 1.376 . S
C2290 H2277 0.930 . S
C2290 C2289 1.376 . S
C2290 C2291 1.388 . S
C2291 H2278 0.930 . S
C2291 C2290 1.388 . S
C2291 C2292 1.390 . S
C2292 C2291 1.390 . S
C2292 C2293 1.394 . S
C2292 C2298 1.465 . S
C2293 C2288 1.399 . S
C2293 C2292 1.394 . S
C2293 C2294 1.516 . S
C2294 C2293 1.516 . S
C2294 C2295 1.502 . S
C2294 C2296 1.561 . S
C2294 C2297 1.526 . S
C2295 H2279 0.959 . S
C2295 H2280 0.959 . S
C2295 H2281 0.961 . S
C2295 C2294 1.502 . S
C2296 H2282 0.960 . S
C2296 H2283 0.961 . S
C2296 H2284 0.959 . S
C2296 C2294 1.561 . S
C2297 C2294 1.526 . S
C2297 C2298 1.396 . S
C2297 C2302 1.390 . S
C2298 C2292 1.465 . S
C2298 C2297 1.396 . S
C2298 C2299 1.399 . S
C2299 H2285 0.929 . S
C2299 C2298 1.399 . S
C2299 C2300 1.385 . S
C2300 H2286 0.931 . S
C2300 C2299 1.385 . S
C2300 C2301 1.389 . S
C2301 C2300 1.389 . S
C2301 C2302 1.387 . S
C2302 H2287 0.930 . S
C2302 C2297 1.390 . S
C2302 C2301 1.387 . S
H2303 C2315 0.930 . S
H2304 C2317 0.930 . S
H2305 C2318 0.930 . S
H2306 C2322 0.959 . S
H2307 C2322 0.959 . S
H2308 C2322 0.961 . S
H2309 C2323 0.960 . S
H2310 C2323 0.961 . S
H2311 C2323 0.959 . S
H2312 C2326 0.929 . S
H2313 C2327 0.931 . S
H2314 C2329 0.930 . S
C2315 H2303 0.930 . S
C2315 C2316 1.399 . S
C2315 C2320 1.399 . S
C2316 C2315 1.399 . S
C2316 C2317 1.376 . S
C2317 H2304 0.930 . S
C2317 C2316 1.376 . S
C2317 C2318 1.388 . S
C2318 H2305 0.930 . S
C2318 C2317 1.388 . S
C2318 C2319 1.390 . S
C2319 C2318 1.390 . S
C2319 C2320 1.394 . S
C2319 C2325 1.465 . S
C2320 C2315 1.399 . S
C2320 C2319 1.394 . S
C2320 C2321 1.516 . S
C2321 C2320 1.516 . S
C2321 C2322 1.502 . S
C2321 C2323 1.561 . S
C2321 C2324 1.526 . S
C2322 H2306 0.959 . S
C2322 H2307 0.959 . S
C2322 H2308 0.961 . S
C2322 C2321 1.502 . S
C2323 H2309 0.960 . S
C2323 H2310 0.961 . S
C2323 H2311 0.959 . S
C2323 C2321 1.561 . S
C2324 C2321 1.526 . S
C2324 C2325 1.396 . S
C2324 C2329 1.390 . S
C2325 C2319 1.465 . S
C2325 C2324 1.396 . S
C2325 C2326 1.399 . S
C2326 H2312 0.929 . S
C2326 C2325 1.399 . S
C2326 C2327 1.385 . S
C2327 H2313 0.931 . S
C2327 C2326 1.385 . S
C2327 C2328 1.389 . S
C2328 C2327 1.389 . S
C2328 C2329 1.387 . S
C2329 H2314 0.930 . S
C2329 C2324 1.390 . S
C2329 C2328 1.387 . S
H2330 C2342 0.930 . S
H2331 C2344 0.930 . S
H2332 C2345 0.930 . S
H2333 C2349 0.959 . S
H2334 C2349 0.959 . S
H2335 C2349 0.961 . S
H2336 C2350 0.960 . S
H2337 C2350 0.961 . S
H2338 C2350 0.959 . S
H2339 C2353 0.929 . S
H2340 C2354 0.931 . S
H2341 C2356 0.930 . S
C2342 H2330 0.930 . S
C2342 C2343 1.399 . S
C2342 C2347 1.399 . S
C2343 C2342 1.399 . S
C2343 C2344 1.376 . S
C2344 H2331 0.930 . S
C2344 C2343 1.376 . S
C2344 C2345 1.388 . S
C2345 H2332 0.930 . S
C2345 C2344 1.388 . S
C2345 C2346 1.390 . S
C2346 C2345 1.390 . S
C2346 C2347 1.394 . S
C2346 C2352 1.465 . S
C2347 C2342 1.399 . S
C2347 C2346 1.394 . S
C2347 C2348 1.516 . S
C2348 C2347 1.516 . S
C2348 C2349 1.502 . S
C2348 C2350 1.561 . S
C2348 C2351 1.526 . S
C2349 H2333 0.959 . S
C2349 H2334 0.959 . S
C2349 H2335 0.961 . S
C2349 C2348 1.502 . S
C2350 H2336 0.960 . S
C2350 H2337 0.961 . S
C2350 H2338 0.959 . S
C2350 C2348 1.561 . S
C2351 C2348 1.526 . S
C2351 C2352 1.396 . S
C2351 C2356 1.390 . S
C2352 C2346 1.465 . S
C2352 C2351 1.396 . S
C2352 C2353 1.399 . S
C2353 H2339 0.929 . S
C2353 C2352 1.399 . S
C2353 C2354 1.385 . S
C2354 H2340 0.931 . S
C2354 C2353 1.385 . S
C2354 C2355 1.389 . S
C2355 C2354 1.389 . S
C2355 C2356 1.387 . S
C2356 H2341 0.930 . S
C2356 C2351 1.390 . S
C2356 C2355 1.387 . S
H2357 C2369 0.930 . S
H2358 C2371 0.930 . S
H2359 C2372 0.930 . S
H2360 C2376 0.959 . S
H2361 C2376 0.959 . S
H2362 C2376 0.961 . S
H2363 C2377 0.960 . S
H2364 C2377 0.961 . S
H2365 C2377 0.959 . S
H2366 C2380 0.929 . S
H2367 C2381 0.931 . S
H2368 C2383 0.930 . S
C2369 H2357 0.930 . S
C2369 C2370 1.399 . S
C2369 C2374 1.399 . S
C2370 C2369 1.399 . S
C2370 C2371 1.376 . S
C2371 H2358 0.930 . S
C2371 C2370 1.376 . S
C2371 C2372 1.388 . S
C2372 H2359 0.930 . S
C2372 C2371 1.388 . S
C2372 C2373 1.390 . S
C2373 C2372 1.390 . S
C2373 C2374 1.394 . S
C2373 C2379 1.465 . S
C2374 C2369 1.399 . S
C2374 C2373 1.394 . S
C2374 C2375 1.516 . S
C2375 C2374 1.516 . S
C2375 C2376 1.502 . S
C2375 C2377 1.561 . S
C2375 C2378 1.526 . S
C2376 H2360 0.959 . S
C2376 H2361 0.959 . S
C2376 H2362 0.961 . S
C2376 C2375 1.502 . S
C2377 H2363 0.960 . S
C2377 H2364 0.961 . S
C2377 H2365 0.959 . S
C2377 C2375 1.561 . S
C2378 C2375 1.526 . S
C2378 C2379 1.396 . S
C2378 C2383 1.390 . S
C2379 C2373 1.465 . S
C2379 C2378 1.396 . S
C2379 C2380 1.399 . S
C2380 H2366 0.929 . S
C2380 C2379 1.399 . S
C2380 C2381 1.385 . S
C2381 H2367 0.931 . S
C2381 C2380 1.385 . S
C2381 C2382 1.389 . S
C2382 C2381 1.389 . S
C2382 C2383 1.387 . S
C2383 H2368 0.930 . S
C2383 C2378 1.390 . S
C2383 C2382 1.387 . S
H2384 C2396 0.930 . S
H2385 C2398 0.930 . S
H2386 C2399 0.930 . S
H2387 C2403 0.959 . S
H2388 C2403 0.959 . S
H2389 C2403 0.961 . S
H2390 C2404 0.960 . S
H2391 C2404 0.961 . S
H2392 C2404 0.959 . S
H2393 C2407 0.929 . S
H2394 C2408 0.931 . S
H2395 C2410 0.930 . S
C2396 H2384 0.930 . S
C2396 C2397 1.399 . S
C2396 C2401 1.399 . S
C2397 C2396 1.399 . S
C2397 C2398 1.376 . S
C2398 H2385 0.930 . S
C2398 C2397 1.376 . S
C2398 C2399 1.388 . S
C2399 H2386 0.930 . S
C2399 C2398 1.388 . S
C2399 C2400 1.390 . S
C2400 C2399 1.390 . S
C2400 C2401 1.394 . S
C2400 C2406 1.465 . S
C2401 C2396 1.399 . S
C2401 C2400 1.394 . S
C2401 C2402 1.516 . S
C2402 C2401 1.516 . S
C2402 C2403 1.502 . S
C2402 C2404 1.561 . S
C2402 C2405 1.526 . S
C2403 H2387 0.959 . S
C2403 H2388 0.959 . S
C2403 H2389 0.961 . S
C2403 C2402 1.502 . S
C2404 H2390 0.960 . S
C2404 H2391 0.961 . S
C2404 H2392 0.959 . S
C2404 C2402 1.561 . S
C2405 C2402 1.526 . S
C2405 C2406 1.396 . S
C2405 C2410 1.390 . S
C2406 C2400 1.465 . S
C2406 C2405 1.396 . S
C2406 C2407 1.399 . S
C2407 H2393 0.929 . S
C2407 C2406 1.399 . S
C2407 C2408 1.385 . S
C2408 H2394 0.931 . S
C2408 C2407 1.385 . S
C2408 C2409 1.389 . S
C2409 C2408 1.389 . S
C2409 C2410 1.387 . S
C2410 H2395 0.930 . S
C2410 C2405 1.390 . S
C2410 C2409 1.387 . S
H2411 C2423 0.930 . S
H2412 C2425 0.930 . S
H2413 C2426 0.930 . S
H2414 C2430 0.959 . S
H2415 C2430 0.959 . S
H2416 C2430 0.961 . S
H2417 C2431 0.960 . S
H2418 C2431 0.961 . S
H2419 C2431 0.959 . S
H2420 C2434 0.929 . S
H2421 C2435 0.931 . S
H2422 C2437 0.930 . S
C2423 H2411 0.930 . S
C2423 C2424 1.399 . S
C2423 C2428 1.399 . S
C2424 C2423 1.399 . S
C2424 C2425 1.376 . S
C2425 H2412 0.930 . S
C2425 C2424 1.376 . S
C2425 C2426 1.388 . S
C2426 H2413 0.930 . S
C2426 C2425 1.388 . S
C2426 C2427 1.390 . S
C2427 C2426 1.390 . S
C2427 C2428 1.394 . S
C2427 C2433 1.465 . S
C2428 C2423 1.399 . S
C2428 C2427 1.394 . S
C2428 C2429 1.516 . S
C2429 C2428 1.516 . S
C2429 C2430 1.502 . S
C2429 C2431 1.561 . S
C2429 C2432 1.526 . S
C2430 H2414 0.959 . S
C2430 H2415 0.959 . S
C2430 H2416 0.961 . S
C2430 C2429 1.502 . S
C2431 H2417 0.960 . S
C2431 H2418 0.961 . S
C2431 H2419 0.959 . S
C2431 C2429 1.561 . S
C2432 C2429 1.526 . S
C2432 C2433 1.396 . S
C2432 C2437 1.390 . S
C2433 C2427 1.465 . S
C2433 C2432 1.396 . S
C2433 C2434 1.399 . S
C2434 H2420 0.929 . S
C2434 C2433 1.399 . S
C2434 C2435 1.385 . S
C2435 H2421 0.931 . S
C2435 C2434 1.385 . S
C2435 C2436 1.389 . S
C2436 C2435 1.389 . S
C2436 C2437 1.387 . S
C2437 H2422 0.930 . S
C2437 C2432 1.390 . S
C2437 C2436 1.387 . S
H2438 C2450 0.930 . S
H2439 C2452 0.930 . S
H2440 C2453 0.930 . S
H2441 C2457 0.959 . S
H2442 C2457 0.959 . S
H2443 C2457 0.961 . S
H2444 C2458 0.960 . S
H2445 C2458 0.961 . S
H2446 C2458 0.959 . S
H2447 C2461 0.929 . S
H2448 C2462 0.931 . S
H2449 C2464 0.930 . S
C2450 H2438 0.930 . S
C2450 C2451 1.399 . S
C2450 C2455 1.399 . S
C2451 C2450 1.399 . S
C2451 C2452 1.376 . S
C2452 H2439 0.930 . S
C2452 C2451 1.376 . S
C2452 C2453 1.388 . S
C2453 H2440 0.930 . S
C2453 C2452 1.388 . S
C2453 C2454 1.390 . S
C2454 C2453 1.390 . S
C2454 C2455 1.394 . S
C2454 C2460 1.465 . S
C2455 C2450 1.399 . S
C2455 C2454 1.394 . S
C2455 C2456 1.516 . S
C2456 C2455 1.516 . S
C2456 C2457 1.502 . S
C2456 C2458 1.561 . S
C2456 C2459 1.526 . S
C2457 H2441 0.959 . S
C2457 H2442 0.959 . S
C2457 H2443 0.961 . S
C2457 C2456 1.502 . S
C2458 H2444 0.960 . S
C2458 H2445 0.961 . S
C2458 H2446 0.959 . S
C2458 C2456 1.561 . S
C2459 C2456 1.526 . S
C2459 C2460 1.396 . S
C2459 C2464 1.390 . S
C2460 C2454 1.465 . S
C2460 C2459 1.396 . S
C2460 C2461 1.399 . S
C2461 H2447 0.929 . S
C2461 C2460 1.399 . S
C2461 C2462 1.385 . S
C2462 H2448 0.931 . S
C2462 C2461 1.385 . S
C2462 C2463 1.389 . S
C2463 C2462 1.389 . S
C2463 C2464 1.387 . S
C2464 H2449 0.930 . S
C2464 C2459 1.390 . S
C2464 C2463 1.387 . S
H2465 C2477 0.930 . S
H2466 C2479 0.930 . S
H2467 C2480 0.930 . S
H2468 C2484 0.959 . S
H2469 C2484 0.959 . S
H2470 C2484 0.961 . S
H2471 C2485 0.961 1_565 S
H2472 C2485 0.967 . S
H2473 C2485 0.953 1_565 S
H2474 C2488 0.929 . S
H2475 C2489 0.931 . S
H2476 C2491 0.930 . S
C2477 H2465 0.930 . S
C2477 C2478 1.399 . S
C2477 C2482 1.399 . S
C2478 C2477 1.399 . S
C2478 C2479 1.376 . S
C2479 H2466 0.930 . S
C2479 C2478 1.376 . S
C2479 C2480 1.388 . S
C2480 H2467 0.930 . S
C2480 C2479 1.388 . S
C2480 C2481 1.390 . S
C2481 C2480 1.390 . S
C2481 C2482 1.394 . S
C2481 C2487 1.465 . S
C2482 C2477 1.399 . S
C2482 C2481 1.394 . S
C2482 C2483 1.516 . S
C2483 C2482 1.516 . S
C2483 C2484 1.502 1_565 S
C2483 C2485 1.560 1_565 S
C2483 C2486 1.526 . S
C2484 H2468 0.959 . S
C2484 H2469 0.959 . S
C2484 H2470 0.961 . S
C2484 C2483 1.502 1_545 S
C2485 H2471 0.961 1_545 S
C2485 H2472 0.967 . S
C2485 H2473 0.953 1_545 S
C2485 C2483 1.560 1_545 S
C2486 C2483 1.526 . S
C2486 C2487 1.396 . S
C2486 C2491 1.390 1_565 S
C2487 C2481 1.465 . S
C2487 C2486 1.396 . S
C2487 C2488 1.399 . S
C2488 H2474 0.929 . S
C2488 C2487 1.399 . S
C2488 C2489 1.385 . S
C2489 H2475 0.931 . S
C2489 C2488 1.385 . S
C2489 C2490 1.389 . S
C2490 C2489 1.389 . S
C2490 C2491 1.387 1_565 S
C2491 H2476 0.930 . S
C2491 C2486 1.390 1_545 S
C2491 C2490 1.387 1_545 S
H2492 C2504 0.930 . S
H2493 C2506 0.930 . S
H2494 C2507 0.930 . S
H2495 C2511 0.959 . S
H2496 C2511 0.959 . S
H2497 C2511 0.961 . S
H2498 C2512 0.960 . S
H2499 C2512 0.961 . S
H2500 C2512 0.959 . S
H2501 C2515 0.929 . S
H2502 C2516 0.931 . S
H2503 C2518 0.930 . S
C2504 H2492 0.930 . S
C2504 C2505 1.399 . S
C2504 C2509 1.399 . S
C2505 C2504 1.399 . S
C2505 C2506 1.376 . S
C2506 H2493 0.930 . S
C2506 C2505 1.376 . S
C2506 C2507 1.388 . S
C2507 H2494 0.930 . S
C2507 C2506 1.388 . S
C2507 C2508 1.390 . S
C2508 C2507 1.390 . S
C2508 C2509 1.394 . S
C2508 C2514 1.465 . S
C2509 C2504 1.399 . S
C2509 C2508 1.394 . S
C2509 C2510 1.516 . S
C2510 C2509 1.516 . S
C2510 C2511 1.502 . S
C2510 C2512 1.561 . S
C2510 C2513 1.526 . S
C2511 H2495 0.959 . S
C2511 H2496 0.959 . S
C2511 H2497 0.961 . S
C2511 C2510 1.502 . S
C2512 H2498 0.960 . S
C2512 H2499 0.961 . S
C2512 H2500 0.959 . S
C2512 C2510 1.561 . S
C2513 C2510 1.526 . S
C2513 C2514 1.396 . S
C2513 C2518 1.390 . S
C2514 C2508 1.465 . S
C2514 C2513 1.396 . S
C2514 C2515 1.399 . S
C2515 H2501 0.929 . S
C2515 C2514 1.399 . S
C2515 C2516 1.385 . S
C2516 H2502 0.931 . S
C2516 C2515 1.385 . S
C2516 C2517 1.389 . S
C2517 C2516 1.389 . S
C2517 C2518 1.387 . S
C2518 H2503 0.930 . S
C2518 C2513 1.390 . S
C2518 C2517 1.387 . S
H2519 C2531 0.930 . S
H2520 C2533 0.930 . S
H2521 C2534 0.930 . S
H2522 C2538 0.959 . S
H2523 C2538 0.959 1_554 S
H2524 C2538 0.961 . S
H2525 C2539 0.960 . S
H2526 C2539 0.961 . S
H2527 C2539 0.959 . S
H2528 C2542 0.929 . S
H2529 C2543 0.931 . S
H2530 C2545 0.930 . S
C2531 H2519 0.930 . S
C2531 C2532 1.399 . S
C2531 C2536 1.399 . S
C2532 C2531 1.399 . S
C2532 C2533 1.376 . S
C2533 H2520 0.930 . S
C2533 C2532 1.376 . S
C2533 C2534 1.388 . S
C2534 H2521 0.930 . S
C2534 C2533 1.388 . S
C2534 C2535 1.390 . S
C2535 C2534 1.390 . S
C2535 C2536 1.394 . S
C2535 C2541 1.465 . S
C2536 C2531 1.399 . S
C2536 C2535 1.394 . S
C2536 C2537 1.516 . S
C2537 C2536 1.516 . S
C2537 C2538 1.502 1_554 S
C2537 C2539 1.561 . S
C2537 C2540 1.526 . S
C2538 H2522 0.959 . S
C2538 H2523 0.959 1_556 S
C2538 H2524 0.961 . S
C2538 C2537 1.502 1_556 S
C2539 H2525 0.960 . S
C2539 H2526 0.961 . S
C2539 H2527 0.959 . S
C2539 C2537 1.561 . S
C2540 C2537 1.526 . S
C2540 C2541 1.396 . S
C2540 C2545 1.390 . S
C2541 C2535 1.465 . S
C2541 C2540 1.396 . S
C2541 C2542 1.399 . S
C2542 H2528 0.929 . S
C2542 C2541 1.399 . S
C2542 C2543 1.385 . S
C2543 H2529 0.931 . S
C2543 C2542 1.385 . S
C2543 C2544 1.389 . S
C2544 C2543 1.389 . S
C2544 C2545 1.387 . S
C2545 H2530 0.930 . S
C2545 C2540 1.390 . S
C2545 C2544 1.387 . S
H2546 C2558 0.930 . S
H2547 C2560 0.930 . S
H2548 C2561 0.930 . S
H2549 C2565 0.959 . S
H2550 C2565 0.959 . S
H2551 C2565 0.961 . S
H2552 C2566 0.960 . S
H2553 C2566 0.961 . S
H2554 C2566 0.959 . S
H2555 C2569 0.929 . S
H2556 C2570 0.931 . S
H2557 C2572 0.930 . S
C2558 H2546 0.930 . S
C2558 C2559 1.399 . S
C2558 C2563 1.399 . S
C2559 C2558 1.399 . S
C2559 C2560 1.376 . S
C2560 H2547 0.930 . S
C2560 C2559 1.376 . S
C2560 C2561 1.388 . S
C2561 H2548 0.930 . S
C2561 C2560 1.388 . S
C2561 C2562 1.390 . S
C2562 C2561 1.390 . S
C2562 C2563 1.394 . S
C2562 C2568 1.465 . S
C2563 C2558 1.399 . S
C2563 C2562 1.394 . S
C2563 C2564 1.516 . S
C2564 C2563 1.516 . S
C2564 C2565 1.502 . S
C2564 C2566 1.561 . S
C2564 C2567 1.526 . S
C2565 H2549 0.959 . S
C2565 H2550 0.959 . S
C2565 H2551 0.961 . S
C2565 C2564 1.502 . S
C2566 H2552 0.960 . S
C2566 H2553 0.961 . S
C2566 H2554 0.959 . S
C2566 C2564 1.561 . S
C2567 C2564 1.526 . S
C2567 C2568 1.396 . S
C2567 C2572 1.390 . S
C2568 C2562 1.465 . S
C2568 C2567 1.396 . S
C2568 C2569 1.399 . S
C2569 H2555 0.929 . S
C2569 C2568 1.399 . S
C2569 C2570 1.385 . S
C2570 H2556 0.931 . S
C2570 C2569 1.385 . S
C2570 C2571 1.389 . S
C2571 C2570 1.389 . S
C2571 C2572 1.387 . S
C2572 H2557 0.930 . S
C2572 C2567 1.390 . S
C2572 C2571 1.387 . S
H2573 C2585 0.930 . S
H2574 C2587 0.930 . S
H2575 C2588 0.930 . S
H2576 C2592 0.959 . S
H2577 C2592 0.959 . S
H2578 C2592 0.961 . S
H2579 C2593 0.960 . S
H2580 C2593 0.961 . S
H2581 C2593 0.959 . S
H2582 C2596 0.929 . S
H2583 C2597 0.931 . S
H2584 C2599 0.930 . S
C2585 H2573 0.930 . S
C2585 C2586 1.399 . S
C2585 C2590 1.399 . S
C2586 C2585 1.399 . S
C2586 C2587 1.376 . S
C2587 H2574 0.930 . S
C2587 C2586 1.376 . S
C2587 C2588 1.388 . S
C2588 H2575 0.930 . S
C2588 C2587 1.388 . S
C2588 C2589 1.390 . S
C2589 C2588 1.390 . S
C2589 C2590 1.394 . S
C2589 C2595 1.465 . S
C2590 C2585 1.399 . S
C2590 C2589 1.394 . S
C2590 C2591 1.516 . S
C2591 C2590 1.516 . S
C2591 C2592 1.502 . S
C2591 C2593 1.561 . S
C2591 C2594 1.526 . S
C2592 H2576 0.959 . S
C2592 H2577 0.959 . S
C2592 H2578 0.961 . S
C2592 C2591 1.502 . S
C2593 H2579 0.960 . S
C2593 H2580 0.961 . S
C2593 H2581 0.959 . S
C2593 C2591 1.561 . S
C2594 C2591 1.526 . S
C2594 C2595 1.396 . S
C2594 C2599 1.390 . S
C2595 C2589 1.465 . S
C2595 C2594 1.396 . S
C2595 C2596 1.399 . S
C2596 H2582 0.929 . S
C2596 C2595 1.399 . S
C2596 C2597 1.385 . S
C2597 H2583 0.931 . S
C2597 C2596 1.385 . S
C2597 C2598 1.389 . S
C2598 C2597 1.389 . S
C2598 C2599 1.387 . S
C2599 H2584 0.930 . S
C2599 C2594 1.390 . S
C2599 C2598 1.387 . S
H2600 C2612 0.930 . S
H2601 C2614 0.930 . S
H2602 C2615 0.930 . S
H2603 C2619 0.959 . S
H2604 C2619 0.959 . S
H2605 C2619 0.961 . S
H2606 C2620 0.960 . S
H2607 C2620 0.961 . S
H2608 C2620 0.959 . S
H2609 C2623 0.929 . S
H2610 C2624 0.931 . S
H2611 C2626 0.930 . S
C2612 H2600 0.930 . S
C2612 C2613 1.399 . S
C2612 C2617 1.399 . S
C2613 C2612 1.399 . S
C2613 C2614 1.376 . S
C2614 H2601 0.930 . S
C2614 C2613 1.376 . S
C2614 C2615 1.388 . S
C2615 H2602 0.930 . S
C2615 C2614 1.388 . S
C2615 C2616 1.390 . S
C2616 C2615 1.390 . S
C2616 C2617 1.394 . S
C2616 C2622 1.465 . S
C2617 C2612 1.399 . S
C2617 C2616 1.394 . S
C2617 C2618 1.516 . S
C2618 C2617 1.516 . S
C2618 C2619 1.502 . S
C2618 C2620 1.561 . S
C2618 C2621 1.526 . S
C2619 H2603 0.959 . S
C2619 H2604 0.959 . S
C2619 H2605 0.961 . S
C2619 C2618 1.502 . S
C2620 H2606 0.960 . S
C2620 H2607 0.961 . S
C2620 H2608 0.959 . S
C2620 C2618 1.561 . S
C2621 C2618 1.526 . S
C2621 C2622 1.396 . S
C2621 C2626 1.390 . S
C2622 C2616 1.465 . S
C2622 C2621 1.396 . S
C2622 C2623 1.399 . S
C2623 H2609 0.929 . S
C2623 C2622 1.399 . S
C2623 C2624 1.385 . S
C2624 H2610 0.931 . S
C2624 C2623 1.385 . S
C2624 C2625 1.389 . S
C2625 C2624 1.389 . S
C2625 C2626 1.387 . S
C2626 H2611 0.930 . S
C2626 C2621 1.390 . S
C2626 C2625 1.387 . S
H2627 C2639 0.930 . S
H2628 C2641 0.930 . S
H2629 C2642 0.930 . S
H2630 C2646 0.959 . S
H2631 C2646 0.959 . S
H2632 C2646 0.961 . S
H2633 C2647 0.960 . S
H2634 C2647 0.961 . S
H2635 C2647 0.959 . S
H2636 C2650 0.929 . S
H2637 C2651 0.931 . S
H2638 C2653 0.930 . S
C2639 H2627 0.930 . S
C2639 C2640 1.399 . S
C2639 C2644 1.399 . S
C2640 C2639 1.399 . S
C2640 C2641 1.376 . S
C2641 H2628 0.930 . S
C2641 C2640 1.376 . S
C2641 C2642 1.388 . S
C2642 H2629 0.930 . S
C2642 C2641 1.388 . S
C2642 C2643 1.390 . S
C2643 C2642 1.390 . S
C2643 C2644 1.394 . S
C2643 C2649 1.465 . S
C2644 C2639 1.399 . S
C2644 C2643 1.394 . S
C2644 C2645 1.516 . S
C2645 C2644 1.516 . S
C2645 C2646 1.502 . S
C2645 C2647 1.561 . S
C2645 C2648 1.526 . S
C2646 H2630 0.959 . S
C2646 H2631 0.959 . S
C2646 H2632 0.961 . S
C2646 C2645 1.502 . S
C2647 H2633 0.960 . S
C2647 H2634 0.961 . S
C2647 H2635 0.959 . S
C2647 C2645 1.561 . S
C2648 C2645 1.526 . S
C2648 C2649 1.396 . S
C2648 C2653 1.390 . S
C2649 C2643 1.465 . S
C2649 C2648 1.396 . S
C2649 C2650 1.399 . S
C2650 H2636 0.929 . S
C2650 C2649 1.399 . S
C2650 C2651 1.385 . S
C2651 H2637 0.931 . S
C2651 C2650 1.385 . S
C2651 C2652 1.389 . S
C2652 C2651 1.389 . S
C2652 C2653 1.387 . S
C2653 H2638 0.930 . S
C2653 C2648 1.390 . S
C2653 C2652 1.387 . S
H2654 C2666 0.930 . S
H2655 C2668 0.930 . S
H2656 C2669 0.930 . S
H2657 C2673 0.959 . S
H2658 C2673 0.959 . S
H2659 C2673 0.961 . S
H2660 C2674 0.960 1_655 S
H2661 C2674 0.961 1_655 S
H2662 C2674 0.959 . S
H2663 C2677 0.929 . S
H2664 C2678 0.931 . S
H2665 C2680 0.926 1_655 S
C2666 H2654 0.930 . S
C2666 C2667 1.399 1_655 S
C2666 C2671 1.399 . S
C2667 C2666 1.399 1_455 S
C2667 C2668 1.376 . S
C2668 H2655 0.930 . S
C2668 C2667 1.376 . S
C2668 C2669 1.388 . S
C2669 H2656 0.930 . S
C2669 C2668 1.388 . S
C2669 C2670 1.390 . S
C2670 C2669 1.390 . S
C2670 C2671 1.394 1_455 S
C2670 C2676 1.465 . S
C2671 C2666 1.399 . S
C2671 C2670 1.394 1_655 S
C2671 C2672 1.516 . S
C2672 C2671 1.516 . S
C2672 C2673 1.502 . S
C2672 C2674 1.561 1_655 S
C2672 C2675 1.526 1_655 S
C2673 H2657 0.959 . S
C2673 H2658 0.959 . S
C2673 H2659 0.961 . S
C2673 C2672 1.502 . S
C2674 H2660 0.960 1_455 S
C2674 H2661 0.961 1_455 S
C2674 H2662 0.959 . S
C2674 C2672 1.561 1_455 S
C2675 C2672 1.526 1_455 S
C2675 C2676 1.396 . S
C2675 C2680 1.388 . S
C2676 C2670 1.465 . S
C2676 C2675 1.396 . S
C2676 C2677 1.399 . S
C2677 H2663 0.929 . S
C2677 C2676 1.399 . S
C2677 C2678 1.385 . S
C2678 H2664 0.931 . S
C2678 C2677 1.385 . S
C2678 C2679 1.389 . S
C2679 C2678 1.389 . S
C2679 C2680 1.392 . S
C2680 H2665 0.926 1_455 S
C2680 C2675 1.388 . S
C2680 C2679 1.392 . S
H2681 C2693 0.930 . S
H2682 C2695 0.930 . S
H2683 C2696 0.930 . S
H2684 C2700 0.959 . S
H2685 C2700 0.959 . S
H2686 C2700 0.961 . S
H2687 C2701 0.960 . S
H2688 C2701 0.961 . S
H2689 C2701 0.959 . S
H2690 C2704 0.929 . S
H2691 C2705 0.931 . S
H2692 C2707 0.930 . S
C2693 H2681 0.930 . S
C2693 C2694 1.399 . S
C2693 C2698 1.399 . S
C2694 C2693 1.399 . S
C2694 C2695 1.376 . S
C2695 H2682 0.930 . S
C2695 C2694 1.376 . S
C2695 C2696 1.388 . S
C2696 H2683 0.930 . S
C2696 C2695 1.388 . S
C2696 C2697 1.390 . S
C2697 C2696 1.390 . S
C2697 C2698 1.394 . S
C2697 C2703 1.465 . S
C2698 C2693 1.399 . S
C2698 C2697 1.394 . S
C2698 C2699 1.516 . S
C2699 C2698 1.516 . S
C2699 C2700 1.502 . S
C2699 C2701 1.561 . S
C2699 C2702 1.526 . S
C2700 H2684 0.959 . S
C2700 H2685 0.959 . S
C2700 H2686 0.961 . S
C2700 C2699 1.502 . S
C2701 H2687 0.960 . S
C2701 H2688 0.961 . S
C2701 H2689 0.959 . S
C2701 C2699 1.561 . S
C2702 C2699 1.526 . S
C2702 C2703 1.396 . S
C2702 C2707 1.390 . S
C2703 C2697 1.465 . S
C2703 C2702 1.396 . S
C2703 C2704 1.399 . S
C2704 H2690 0.929 . S
C2704 C2703 1.399 . S
C2704 C2705 1.385 . S
C2705 H2691 0.931 . S
C2705 C2704 1.385 . S
C2705 C2706 1.389 . S
C2706 C2705 1.389 . S
C2706 C2707 1.387 . S
C2707 H2692 0.930 . S
C2707 C2702 1.390 . S
C2707 C2706 1.387 . S
H2708 C2720 0.930 . S
H2709 C2722 0.930 . S
H2710 C2723 0.930 . S
H2711 C2727 0.959 . S
H2712 C2727 0.959 1_554 S
H2713 C2727 0.961 . S
H2714 C2728 0.960 . S
H2715 C2728 0.961 1_554 S
H2716 C2728 0.959 . S
H2717 C2731 0.929 . S
H2718 C2732 0.931 . S
H2719 C2734 0.930 1_554 S
C2720 H2708 0.930 . S
C2720 C2721 1.399 . S
C2720 C2725 1.399 . S
C2721 C2720 1.399 . S
C2721 C2722 1.376 . S
C2722 H2709 0.930 . S
C2722 C2721 1.376 . S
C2722 C2723 1.388 . S
C2723 H2710 0.930 . S
C2723 C2722 1.388 . S
C2723 C2724 1.390 . S
C2724 C2723 1.390 . S
C2724 C2725 1.394 . S
C2724 C2730 1.465 . S
C2725 C2720 1.399 . S
C2725 C2724 1.394 . S
C2725 C2726 1.516 . S
C2726 C2725 1.516 . S
C2726 C2727 1.502 . S
C2726 C2728 1.561 . S
C2726 C2729 1.526 . S
C2727 H2711 0.959 . S
C2727 H2712 0.959 1_556 S
C2727 H2713 0.961 . S
C2727 C2726 1.502 . S
C2728 H2714 0.960 . S
C2728 H2715 0.961 1_556 S
C2728 H2716 0.959 . S
C2728 C2726 1.561 . S
C2729 C2726 1.526 . S
C2729 C2730 1.396 . S
C2729 C2734 1.390 . S
C2730 C2724 1.465 . S
C2730 C2729 1.396 . S
C2730 C2731 1.399 . S
C2731 H2717 0.929 . S
C2731 C2730 1.399 . S
C2731 C2732 1.385 . S
C2732 H2718 0.931 . S
C2732 C2731 1.385 . S
C2732 C2733 1.389 . S
C2733 C2732 1.389 . S
C2733 C2734 1.387 . S
C2734 H2719 0.930 1_556 S
C2734 C2729 1.390 . S
C2734 C2733 1.387 . S
H2735 C2747 0.930 . S
H2736 C2749 0.930 . S
H2737 C2750 0.930 . S
H2738 C2754 0.959 . S
H2739 C2754 0.959 . S
H2740 C2754 0.961 . S
H2741 C2755 0.960 . S
H2742 C2755 0.961 . S
H2743 C2755 0.959 . S
H2744 C2758 0.929 . S
H2745 C2759 0.931 . S
H2746 C2761 0.930 . S
C2747 H2735 0.930 . S
C2747 C2748 1.399 . S
C2747 C2752 1.399 . S
C2748 C2747 1.399 . S
C2748 C2749 1.376 . S
C2749 H2736 0.930 . S
C2749 C2748 1.376 . S
C2749 C2750 1.388 . S
C2750 H2737 0.930 . S
C2750 C2749 1.388 . S
C2750 C2751 1.390 . S
C2751 C2750 1.390 . S
C2751 C2752 1.394 . S
C2751 C2757 1.465 . S
C2752 C2747 1.399 . S
C2752 C2751 1.394 . S
C2752 C2753 1.516 . S
C2753 C2752 1.516 . S
C2753 C2754 1.502 . S
C2753 C2755 1.561 . S
C2753 C2756 1.526 . S
C2754 H2738 0.959 . S
C2754 H2739 0.959 . S
C2754 H2740 0.961 . S
C2754 C2753 1.502 . S
C2755 H2741 0.960 . S
C2755 H2742 0.961 . S
C2755 H2743 0.959 . S
C2755 C2753 1.561 . S
C2756 C2753 1.526 . S
C2756 C2757 1.396 . S
C2756 C2761 1.390 . S
C2757 C2751 1.465 . S
C2757 C2756 1.396 . S
C2757 C2758 1.399 . S
C2758 H2744 0.929 . S
C2758 C2757 1.399 . S
C2758 C2759 1.385 . S
C2759 H2745 0.931 . S
C2759 C2758 1.385 . S
C2759 C2760 1.389 . S
C2760 C2759 1.389 . S
C2760 C2761 1.387 . S
C2761 H2746 0.930 . S
C2761 C2756 1.390 . S
C2761 C2760 1.387 . S
H2762 C2774 0.930 . S
H2763 C2776 0.930 . S
H2764 C2777 0.930 . S
H2765 C2781 0.959 . S
H2766 C2781 0.959 . S
H2767 C2781 0.961 . S
H2768 C2782 0.960 . S
H2769 C2782 0.961 . S
H2770 C2782 0.959 . S
H2771 C2785 0.929 . S
H2772 C2786 0.931 . S
H2773 C2788 0.930 . S
C2774 H2762 0.930 . S
C2774 C2775 1.399 . S
C2774 C2779 1.399 . S
C2775 C2774 1.399 . S
C2775 C2776 1.376 . S
C2776 H2763 0.930 . S
C2776 C2775 1.376 . S
C2776 C2777 1.388 . S
C2777 H2764 0.930 . S
C2777 C2776 1.388 . S
C2777 C2778 1.390 . S
C2778 C2777 1.390 . S
C2778 C2779 1.394 . S
C2778 C2784 1.465 . S
C2779 C2774 1.399 . S
C2779 C2778 1.394 . S
C2779 C2780 1.516 . S
C2780 C2779 1.516 . S
C2780 C2781 1.502 . S
C2780 C2782 1.561 1_455 S
C2780 C2783 1.526 . S
C2781 H2765 0.959 . S
C2781 H2766 0.959 . S
C2781 H2767 0.961 . S
C2781 C2780 1.502 . S
C2782 H2768 0.960 . S
C2782 H2769 0.961 . S
C2782 H2770 0.959 . S
C2782 C2780 1.561 1_655 S
C2783 C2780 1.526 . S
C2783 C2784 1.396 . S
C2783 C2788 1.390 . S
C2784 C2778 1.465 . S
C2784 C2783 1.396 . S
C2784 C2785 1.399 . S
C2785 H2771 0.929 . S
C2785 C2784 1.399 . S
C2785 C2786 1.385 . S
C2786 H2772 0.931 . S
C2786 C2785 1.385 . S
C2786 C2787 1.389 . S
C2787 C2786 1.389 . S
C2787 C2788 1.387 . S
C2788 H2773 0.930 . S
C2788 C2783 1.390 . S
C2788 C2787 1.387 . S
H2789 C2801 0.930 . S
H2790 C2803 0.930 . S
H2791 C2804 0.930 . S
H2792 C2808 0.959 . S
H2793 C2808 0.959 . S
H2794 C2808 0.961 . S
H2795 C2809 0.960 . S
H2796 C2809 0.961 . S
H2797 C2809 0.959 . S
H2798 C2812 0.929 . S
H2799 C2813 0.931 . S
H2800 C2815 0.930 . S
C2801 H2789 0.930 . S
C2801 C2802 1.399 . S
C2801 C2806 1.399 . S
C2802 C2801 1.399 . S
C2802 C2803 1.376 . S
C2803 H2790 0.930 . S
C2803 C2802 1.376 . S
C2803 C2804 1.388 . S
C2804 H2791 0.930 . S
C2804 C2803 1.388 . S
C2804 C2805 1.390 . S
C2805 C2804 1.390 . S
C2805 C2806 1.394 . S
C2805 C2811 1.465 . S
C2806 C2801 1.399 . S
C2806 C2805 1.394 . S
C2806 C2807 1.516 . S
C2807 C2806 1.516 . S
C2807 C2808 1.502 . S
C2807 C2809 1.561 . S
C2807 C2810 1.526 . S
C2808 H2792 0.959 . S
C2808 H2793 0.959 . S
C2808 H2794 0.961 . S
C2808 C2807 1.502 . S
C2809 H2795 0.960 . S
C2809 H2796 0.961 . S
C2809 H2797 0.959 . S
C2809 C2807 1.561 . S
C2810 C2807 1.526 . S
C2810 C2811 1.396 . S
C2810 C2815 1.390 . S
C2811 C2805 1.465 . S
C2811 C2810 1.396 . S
C2811 C2812 1.399 . S
C2812 H2798 0.929 . S
C2812 C2811 1.399 . S
C2812 C2813 1.385 . S
C2813 H2799 0.931 . S
C2813 C2812 1.385 . S
C2813 C2814 1.389 . S
C2814 C2813 1.389 . S
C2814 C2815 1.387 . S
C2815 H2800 0.930 . S
C2815 C2810 1.390 . S
C2815 C2814 1.387 . S
H2816 C2828 0.930 . S
H2817 C2830 0.930 . S
H2818 C2831 0.930 . S
H2819 C2835 0.959 . S
H2820 C2835 0.959 . S
H2821 C2835 0.961 . S
H2822 C2836 0.960 . S
H2823 C2836 0.961 . S
H2824 C2836 0.959 . S
H2825 C2839 0.929 . S
H2826 C2840 0.931 . S
H2827 C2842 0.930 . S
C2828 H2816 0.930 . S
C2828 C2829 1.399 . S
C2828 C2833 1.399 . S
C2829 C2828 1.399 . S
C2829 C2830 1.376 . S
C2830 H2817 0.930 . S
C2830 C2829 1.376 . S
C2830 C2831 1.388 . S
C2831 H2818 0.930 . S
C2831 C2830 1.388 . S
C2831 C2832 1.390 . S
C2832 C2831 1.390 . S
C2832 C2833 1.394 . S
C2832 C2838 1.465 . S
C2833 C2828 1.399 . S
C2833 C2832 1.394 . S
C2833 C2834 1.516 . S
C2834 C2833 1.516 . S
C2834 C2835 1.502 . S
C2834 C2836 1.561 . S
C2834 C2837 1.526 . S
C2835 H2819 0.959 . S
C2835 H2820 0.959 . S
C2835 H2821 0.961 . S
C2835 C2834 1.502 . S
C2836 H2822 0.960 . S
C2836 H2823 0.961 . S
C2836 H2824 0.959 . S
C2836 C2834 1.561 . S
C2837 C2834 1.526 . S
C2837 C2838 1.396 . S
C2837 C2842 1.390 . S
C2838 C2832 1.465 . S
C2838 C2837 1.396 . S
C2838 C2839 1.399 . S
C2839 H2825 0.929 . S
C2839 C2838 1.399 . S
C2839 C2840 1.385 . S
C2840 H2826 0.931 . S
C2840 C2839 1.385 . S
C2840 C2841 1.389 . S
C2841 C2840 1.389 . S
C2841 C2842 1.387 . S
C2842 H2827 0.930 . S
C2842 C2837 1.390 . S
C2842 C2841 1.387 . S
H2843 C2855 0.930 . S
H2844 C2857 0.930 . S
H2845 C2858 0.930 . S
H2846 C2862 0.959 . S
H2847 C2862 0.959 . S
H2848 C2862 0.961 . S
H2849 C2863 0.960 . S
H2850 C2863 0.961 . S
H2851 C2863 0.959 . S
H2852 C2866 0.929 . S
H2853 C2867 0.931 . S
H2854 C2869 0.930 . S
C2855 H2843 0.930 . S
C2855 C2856 1.399 . S
C2855 C2860 1.399 . S
C2856 C2855 1.399 . S
C2856 C2857 1.376 . S
C2857 H2844 0.930 . S
C2857 C2856 1.376 . S
C2857 C2858 1.388 . S
C2858 H2845 0.930 . S
C2858 C2857 1.388 . S
C2858 C2859 1.390 . S
C2859 C2858 1.390 . S
C2859 C2860 1.394 . S
C2859 C2865 1.465 . S
C2860 C2855 1.399 . S
C2860 C2859 1.394 . S
C2860 C2861 1.516 . S
C2861 C2860 1.516 . S
C2861 C2862 1.502 . S
C2861 C2863 1.561 . S
C2861 C2864 1.526 . S
C2862 H2846 0.959 . S
C2862 H2847 0.959 . S
C2862 H2848 0.961 . S
C2862 C2861 1.502 . S
C2863 H2849 0.960 . S
C2863 H2850 0.961 . S
C2863 H2851 0.959 . S
C2863 C2861 1.561 . S
C2864 C2861 1.526 . S
C2864 C2865 1.396 . S
C2864 C2869 1.390 . S
C2865 C2859 1.465 . S
C2865 C2864 1.396 . S
C2865 C2866 1.399 . S
C2866 H2852 0.929 . S
C2866 C2865 1.399 . S
C2866 C2867 1.385 . S
C2867 H2853 0.931 . S
C2867 C2866 1.385 . S
C2867 C2868 1.389 . S
C2868 C2867 1.389 . S
C2868 C2869 1.387 . S
C2869 H2854 0.930 . S
C2869 C2864 1.390 . S
C2869 C2868 1.387 . S
H2870 C2882 0.930 . S
H2871 C2884 0.930 . S
H2872 C2885 0.930 . S
H2873 C2889 0.959 . S
H2874 C2889 0.959 . S
H2875 C2889 0.961 . S
H2876 C2890 0.960 . S
H2877 C2890 0.961 . S
H2878 C2890 0.959 . S
H2879 C2893 0.931 . S
H2880 C2894 0.931 . S
H2881 C2896 0.930 . S
C2882 H2870 0.930 . S
C2882 C2883 1.399 . S
C2882 C2887 1.399 . S
C2883 C2882 1.399 . S
C2883 C2884 1.376 . S
C2884 H2871 0.930 . S
C2884 C2883 1.376 . S
C2884 C2885 1.388 . S
C2885 H2872 0.930 . S
C2885 C2884 1.388 . S
C2885 C2886 1.390 . S
C2886 C2885 1.390 . S
C2886 C2887 1.394 . S
C2886 C2892 1.465 . S
C2887 C2882 1.399 . S
C2887 C2886 1.394 . S
C2887 C2888 1.516 . S
C2888 C2887 1.516 . S
C2888 C2889 1.502 . S
C2888 C2890 1.561 . S
C2888 C2891 1.526 . S
C2889 H2873 0.959 . S
C2889 H2874 0.959 . S
C2889 H2875 0.961 . S
C2889 C2888 1.502 . S
C2890 H2876 0.960 . S
C2890 H2877 0.961 . S
C2890 H2878 0.959 . S
C2890 C2888 1.561 . S
C2891 C2888 1.526 . S
C2891 C2892 1.396 . S
C2891 C2896 1.390 . S
C2892 C2886 1.465 . S
C2892 C2891 1.396 . S
C2892 C2893 1.397 1_655 S
C2893 H2879 0.931 . S
C2893 C2892 1.397 1_455 S
C2893 C2894 1.386 . S
C2894 H2880 0.931 . S
C2894 C2893 1.386 . S
C2894 C2895 1.389 1_455 S
C2895 C2894 1.389 1_655 S
C2895 C2896 1.387 . S
C2896 H2881 0.930 . S
C2896 C2891 1.390 . S
C2896 C2895 1.387 . S
H2897 C2909 0.930 . S
H2898 C2911 0.930 . S
H2899 C2912 0.930 . S
H2900 C2916 0.959 . S
H2901 C2916 0.959 . S
H2902 C2916 0.961 . S
H2903 C2917 0.960 . S
H2904 C2917 0.961 . S
H2905 C2917 0.959 . S
H2906 C2920 0.929 . S
H2907 C2921 0.931 . S
H2908 C2923 0.930 . S
C2909 H2897 0.930 . S
C2909 C2910 1.399 . S
C2909 C2914 1.399 . S
C2910 C2909 1.399 . S
C2910 C2911 1.376 . S
C2911 H2898 0.930 . S
C2911 C2910 1.376 . S
C2911 C2912 1.388 . S
C2912 H2899 0.930 . S
C2912 C2911 1.388 . S
C2912 C2913 1.390 . S
C2913 C2912 1.390 . S
C2913 C2914 1.394 . S
C2913 C2919 1.465 . S
C2914 C2909 1.399 . S
C2914 C2913 1.394 . S
C2914 C2915 1.516 . S
C2915 C2914 1.516 . S
C2915 C2916 1.502 . S
C2915 C2917 1.561 . S
C2915 C2918 1.526 . S
C2916 H2900 0.959 . S
C2916 H2901 0.959 . S
C2916 H2902 0.961 . S
C2916 C2915 1.502 . S
C2917 H2903 0.960 . S
C2917 H2904 0.961 . S
C2917 H2905 0.959 . S
C2917 C2915 1.561 . S
C2918 C2915 1.526 . S
C2918 C2919 1.396 . S
C2918 C2923 1.390 . S
C2919 C2913 1.465 . S
C2919 C2918 1.396 . S
C2919 C2920 1.399 . S
C2920 H2906 0.929 . S
C2920 C2919 1.399 . S
C2920 C2921 1.385 . S
C2921 H2907 0.931 . S
C2921 C2920 1.385 . S
C2921 C2922 1.389 . S
C2922 C2921 1.389 . S
C2922 C2923 1.387 . S
C2923 H2908 0.930 . S
C2923 C2918 1.390 . S
C2923 C2922 1.387 . S
H2924 C2936 0.930 . S
H2925 C2938 0.930 . S
H2926 C2939 0.930 . S
H2927 C2943 0.959 . S
H2928 C2943 0.959 . S
H2929 C2943 0.961 . S
H2930 C2944 0.960 . S
H2931 C2944 0.961 . S
H2932 C2944 0.959 . S
H2933 C2947 0.929 . S
H2934 C2948 0.931 . S
H2935 C2950 0.930 . S
C2936 H2924 0.930 . S
C2936 C2937 1.399 . S
C2936 C2941 1.399 . S
C2937 C2936 1.399 . S
C2937 C2938 1.376 . S
C2938 H2925 0.930 . S
C2938 C2937 1.376 . S
C2938 C2939 1.388 . S
C2939 H2926 0.930 . S
C2939 C2938 1.388 . S
C2939 C2940 1.390 . S
C2940 C2939 1.390 . S
C2940 C2941 1.394 . S
C2940 C2946 1.465 . S
C2941 C2936 1.399 . S
C2941 C2940 1.394 . S
C2941 C2942 1.516 . S
C2942 C2941 1.516 . S
C2942 C2943 1.502 . S
C2942 C2944 1.561 . S
C2942 C2945 1.526 . S
C2943 H2927 0.959 . S
C2943 H2928 0.959 . S
C2943 H2929 0.961 . S
C2943 C2942 1.502 . S
C2944 H2930 0.960 . S
C2944 H2931 0.961 . S
C2944 H2932 0.959 . S
C2944 C2942 1.561 . S
C2945 C2942 1.526 . S
C2945 C2946 1.396 . S
C2945 C2950 1.390 . S
C2946 C2940 1.465 . S
C2946 C2945 1.396 . S
C2946 C2947 1.399 . S
C2947 H2933 0.929 . S
C2947 C2946 1.399 . S
C2947 C2948 1.385 . S
C2948 H2934 0.931 . S
C2948 C2947 1.385 . S
C2948 C2949 1.389 . S
C2949 C2948 1.389 . S
C2949 C2950 1.387 . S
C2950 H2935 0.930 . S
C2950 C2945 1.390 . S
C2950 C2949 1.387 . S
H2951 C2963 0.930 . S
H2952 C2965 0.930 . S
H2953 C2966 0.930 . S
H2954 C2970 0.959 . S
H2955 C2970 0.959 . S
H2956 C2970 0.961 . S
H2957 C2971 0.960 . S
H2958 C2971 0.961 . S
H2959 C2971 0.959 . S
H2960 C2974 0.929 . S
H2961 C2975 0.931 . S
H2962 C2977 0.930 . S
C2963 H2951 0.930 . S
C2963 C2964 1.399 . S
C2963 C2968 1.399 . S
C2964 C2963 1.399 . S
C2964 C2965 1.376 . S
C2965 H2952 0.930 . S
C2965 C2964 1.376 . S
C2965 C2966 1.388 . S
C2966 H2953 0.930 . S
C2966 C2965 1.388 . S
C2966 C2967 1.390 . S
C2967 C2966 1.390 . S
C2967 C2968 1.394 . S
C2967 C2973 1.465 . S
C2968 C2963 1.399 . S
C2968 C2967 1.394 . S
C2968 C2969 1.516 . S
C2969 C2968 1.516 . S
C2969 C2970 1.502 . S
C2969 C2971 1.561 . S
C2969 C2972 1.526 . S
C2970 H2954 0.959 . S
C2970 H2955 0.959 . S
C2970 H2956 0.961 . S
C2970 C2969 1.502 . S
C2971 H2957 0.960 . S
C2971 H2958 0.961 . S
C2971 H2959 0.959 . S
C2971 C2969 1.561 . S
C2972 C2969 1.526 . S
C2972 C2973 1.396 . S
C2972 C2977 1.390 . S
C2973 C2967 1.465 . S
C2973 C2972 1.396 . S
C2973 C2974 1.399 . S
C2974 H2960 0.929 . S
C2974 C2973 1.399 . S
C2974 C2975 1.385 . S
C2975 H2961 0.931 . S
C2975 C2974 1.385 . S
C2975 C2976 1.389 . S
C2976 C2975 1.389 . S
C2976 C2977 1.387 . S
C2977 H2962 0.930 . S
C2977 C2972 1.390 . S
C2977 C2976 1.387 . S
H2978 C2990 0.930 . S
H2979 C2992 0.930 . S
H2980 C2993 0.930 . S
H2981 C2997 0.959 . S
H2982 C2997 0.959 . S
H2983 C2997 0.961 . S
H2984 C2998 0.960 . S
H2985 C2998 0.961 . S
H2986 C2998 0.959 . S
H2987 C3001 0.929 . S
H2988 C3002 0.931 . S
H2989 C3004 0.930 . S
C2990 H2978 0.930 . S
C2990 C2991 1.399 . S
C2990 C2995 1.399 . S
C2991 C2990 1.399 . S
C2991 C2992 1.376 . S
C2992 H2979 0.930 . S
C2992 C2991 1.376 . S
C2992 C2993 1.388 . S
C2993 H2980 0.930 . S
C2993 C2992 1.388 . S
C2993 C2994 1.390 . S
C2994 C2993 1.390 . S
C2994 C2995 1.394 . S
C2994 C3000 1.465 . S
C2995 C2990 1.399 . S
C2995 C2994 1.394 . S
C2995 C2996 1.516 . S
C2996 C2995 1.516 . S
C2996 C2997 1.502 . S
C2996 C2998 1.561 . S
C2996 C2999 1.526 . S
C2997 H2981 0.959 . S
C2997 H2982 0.959 . S
C2997 H2983 0.961 . S
C2997 C2996 1.502 . S
C2998 H2984 0.960 . S
C2998 H2985 0.961 . S
C2998 H2986 0.959 . S
C2998 C2996 1.561 . S
C2999 C2996 1.526 . S
C2999 C3000 1.396 . S
C2999 C3004 1.390 . S
C3000 C2994 1.465 . S
C3000 C2999 1.396 . S
C3000 C3001 1.399 . S
C3001 H2987 0.929 . S
C3001 C3000 1.399 . S
C3001 C3002 1.385 . S
C3002 H2988 0.931 . S
C3002 C3001 1.385 . S
C3002 C3003 1.389 . S
C3003 C3002 1.389 . S
C3003 C3004 1.387 . S
C3004 H2989 0.930 . S
C3004 C2999 1.390 . S
C3004 C3003 1.387 . S
H3005 C3017 0.930 . S
H3006 C3019 0.930 . S
H3007 C3020 0.930 . S
H3008 C3024 0.959 . S
H3009 C3024 0.959 . S
H3010 C3024 0.961 . S
H3011 C3025 0.960 . S
H3012 C3025 0.961 . S
H3013 C3025 0.959 . S
H3014 C3028 0.929 . S
H3015 C3029 0.931 . S
H3016 C3031 0.930 . S
C3017 H3005 0.930 . S
C3017 C3018 1.399 . S
C3017 C3022 1.399 . S
C3018 C3017 1.399 . S
C3018 C3019 1.376 . S
C3019 H3006 0.930 . S
C3019 C3018 1.376 . S
C3019 C3020 1.388 . S
C3020 H3007 0.930 . S
C3020 C3019 1.388 . S
C3020 C3021 1.390 . S
C3021 C3020 1.390 . S
C3021 C3022 1.394 . S
C3021 C3027 1.465 . S
C3022 C3017 1.399 . S
C3022 C3021 1.394 . S
C3022 C3023 1.516 . S
C3023 C3022 1.516 . S
C3023 C3024 1.502 . S
C3023 C3025 1.561 . S
C3023 C3026 1.526 . S
C3024 H3008 0.959 . S
C3024 H3009 0.959 . S
C3024 H3010 0.961 . S
C3024 C3023 1.502 . S
C3025 H3011 0.960 . S
C3025 H3012 0.961 . S
C3025 H3013 0.959 . S
C3025 C3023 1.561 . S
C3026 C3023 1.526 . S
C3026 C3027 1.396 . S
C3026 C3031 1.390 . S
C3027 C3021 1.465 . S
C3027 C3026 1.396 . S
C3027 C3028 1.399 . S
C3028 H3014 0.929 . S
C3028 C3027 1.399 . S
C3028 C3029 1.385 . S
C3029 H3015 0.931 . S
C3029 C3028 1.385 . S
C3029 C3030 1.389 . S
C3030 C3029 1.389 . S
C3030 C3031 1.387 . S
C3031 H3016 0.930 . S
C3031 C3026 1.390 . S
C3031 C3030 1.387 . S
H3032 C3044 0.930 . S
H3033 C3046 0.930 . S
H3034 C3047 0.930 . S
H3035 C3051 0.959 . S
H3036 C3051 0.959 . S
H3037 C3051 0.961 . S
H3038 C3052 0.960 . S
H3039 C3052 0.961 . S
H3040 C3052 0.959 . S
H3041 C3055 0.929 . S
H3042 C3056 0.931 . S
H3043 C3058 0.930 . S
C3044 H3032 0.930 . S
C3044 C3045 1.399 . S
C3044 C3049 1.399 . S
C3045 C3044 1.399 . S
C3045 C3046 1.376 . S
C3046 H3033 0.930 . S
C3046 C3045 1.376 . S
C3046 C3047 1.388 . S
C3047 H3034 0.930 . S
C3047 C3046 1.388 . S
C3047 C3048 1.390 . S
C3048 C3047 1.390 . S
C3048 C3049 1.394 . S
C3048 C3054 1.465 . S
C3049 C3044 1.399 . S
C3049 C3048 1.394 . S
C3049 C3050 1.516 . S
C3050 C3049 1.516 . S
C3050 C3051 1.502 . S
C3050 C3052 1.561 . S
C3050 C3053 1.526 . S
C3051 H3035 0.959 . S
C3051 H3036 0.959 . S
C3051 H3037 0.961 . S
C3051 C3050 1.502 . S
C3052 H3038 0.960 . S
C3052 H3039 0.961 . S
C3052 H3040 0.959 . S
C3052 C3050 1.561 . S
C3053 C3050 1.526 . S
C3053 C3054 1.396 . S
C3053 C3058 1.390 . S
C3054 C3048 1.465 . S
C3054 C3053 1.396 . S
C3054 C3055 1.399 . S
C3055 H3041 0.929 . S
C3055 C3054 1.399 . S
C3055 C3056 1.385 . S
C3056 H3042 0.931 . S
C3056 C3055 1.385 . S
C3056 C3057 1.389 . S
C3057 C3056 1.389 . S
C3057 C3058 1.387 . S
C3058 H3043 0.930 . S
C3058 C3053 1.390 . S
C3058 C3057 1.387 . S
H3059 C3071 0.930 . S
H3060 C3073 0.930 . S
H3061 C3074 0.930 . S
H3062 C3078 0.959 1_545 S
H3063 C3078 0.959 1_545 S
H3064 C3078 0.961 . S
H3065 C3079 0.960 . S
H3066 C3079 0.961 . S
H3067 C3079 0.959 . S
H3068 C3082 0.929 . S
H3069 C3083 0.931 . S
H3070 C3085 0.930 . S
C3071 H3059 0.930 . S
C3071 C3072 1.399 . S
C3071 C3076 1.399 . S
C3072 C3071 1.399 . S
C3072 C3073 1.376 . S
C3073 H3060 0.930 . S
C3073 C3072 1.376 . S
C3073 C3074 1.388 . S
C3074 H3061 0.930 . S
C3074 C3073 1.388 . S
C3074 C3075 1.390 . S
C3075 C3074 1.390 . S
C3075 C3076 1.394 . S
C3075 C3081 1.465 . S
C3076 C3071 1.399 . S
C3076 C3075 1.394 . S
C3076 C3077 1.516 . S
C3077 C3076 1.516 . S
C3077 C3078 1.502 . S
C3077 C3079 1.561 . S
C3077 C3080 1.526 . S
C3078 H3062 0.959 1_565 S
C3078 H3063 0.959 1_565 S
C3078 H3064 0.961 . S
C3078 C3077 1.502 . S
C3079 H3065 0.960 . S
C3079 H3066 0.961 . S
C3079 H3067 0.959 . S
C3079 C3077 1.561 . S
C3080 C3077 1.526 . S
C3080 C3081 1.396 . S
C3080 C3085 1.390 . S
C3081 C3075 1.465 . S
C3081 C3080 1.396 . S
C3081 C3082 1.399 . S
C3082 H3068 0.929 . S
C3082 C3081 1.399 . S
C3082 C3083 1.385 . S
C3083 H3069 0.931 . S
C3083 C3082 1.385 . S
C3083 C3084 1.389 . S
C3084 C3083 1.389 . S
C3084 C3085 1.387 . S
C3085 H3070 0.930 . S
C3085 C3080 1.390 . S
C3085 C3084 1.387 . S
H3086 C3098 0.930 . S
H3087 C3100 0.930 . S
H3088 C3101 0.930 . S
H3089 C3105 0.959 . S
H3090 C3105 0.959 . S
H3091 C3105 0.961 . S
H3092 C3106 0.960 . S
H3093 C3106 0.961 . S
H3094 C3106 0.959 . S
H3095 C3109 0.929 . S
H3096 C3110 0.931 . S
H3097 C3112 0.930 . S
C3098 H3086 0.930 . S
C3098 C3099 1.399 . S
C3098 C3103 1.399 . S
C3099 C3098 1.399 . S
C3099 C3100 1.376 . S
C3100 H3087 0.930 . S
C3100 C3099 1.376 . S
C3100 C3101 1.388 . S
C3101 H3088 0.930 . S
C3101 C3100 1.388 . S
C3101 C3102 1.390 . S
C3102 C3101 1.390 . S
C3102 C3103 1.394 . S
C3102 C3108 1.465 . S
C3103 C3098 1.399 . S
C3103 C3102 1.394 . S
C3103 C3104 1.516 . S
C3104 C3103 1.516 . S
C3104 C3105 1.502 . S
C3104 C3106 1.561 . S
C3104 C3107 1.526 . S
C3105 H3089 0.959 . S
C3105 H3090 0.959 . S
C3105 H3091 0.961 . S
C3105 C3104 1.502 . S
C3106 H3092 0.960 . S
C3106 H3093 0.961 . S
C3106 H3094 0.959 . S
C3106 C3104 1.561 . S
C3107 C3104 1.526 . S
C3107 C3108 1.396 . S
C3107 C3112 1.390 . S
C3108 C3102 1.465 . S
C3108 C3107 1.396 . S
C3108 C3109 1.399 . S
C3109 H3095 0.929 . S
C3109 C3108 1.399 . S
C3109 C3110 1.385 . S
C3110 H3096 0.931 . S
C3110 C3109 1.385 . S
C3110 C3111 1.389 . S
C3111 C3110 1.389 . S
C3111 C3112 1.387 . S
C3112 H3097 0.930 . S
C3112 C3107 1.390 . S
C3112 C3111 1.387 . S
H3113 C3125 0.930 . S
H3114 C3127 0.930 . S
H3115 C3128 0.930 . S
H3116 C3132 0.959 . S
H3117 C3132 0.959 . S
H3118 C3132 0.961 . S
H3119 C3133 0.960 . S
H3120 C3133 0.961 . S
H3121 C3133 0.959 . S
H3122 C3136 0.929 . S
H3123 C3137 0.931 . S
H3124 C3139 0.930 . S
C3125 H3113 0.930 . S
C3125 C3126 1.413 . S
C3125 C3130 1.399 . S
C3126 C3125 1.413 . S
C3126 C3127 1.354 1_556 S
C3127 H3114 0.930 . S
C3127 C3126 1.354 1_554 S
C3127 C3128 1.388 . S
C3128 H3115 0.930 . S
C3128 C3127 1.388 . S
C3128 C3129 1.390 . S
C3129 C3128 1.390 . S
C3129 C3130 1.394 1_554 S
C3129 C3135 1.465 . S
C3130 C3125 1.399 . S
C3130 C3129 1.394 1_556 S
C3130 C3131 1.516 . S
C3131 C3130 1.516 . S
C3131 C3132 1.502 . S
C3131 C3133 1.561 . S
C3131 C3134 1.526 . S
C3132 H3116 0.959 . S
C3132 H3117 0.959 . S
C3132 H3118 0.961 . S
C3132 C3131 1.502 . S
C3133 H3119 0.960 . S
C3133 H3120 0.961 . S
C3133 H3121 0.959 . S
C3133 C3131 1.561 . S
C3134 C3131 1.526 . S
C3134 C3135 1.396 1_556 S
C3134 C3139 1.390 . S
C3135 C3129 1.465 . S
C3135 C3134 1.396 1_554 S
C3135 C3136 1.399 . S
C3136 H3122 0.929 . S
C3136 C3135 1.399 . S
C3136 C3137 1.385 . S
C3137 H3123 0.931 . S
C3137 C3136 1.385 . S
C3137 C3138 1.389 . S
C3138 C3137 1.389 . S
C3138 C3139 1.387 1_554 S
C3139 H3124 0.930 . S
C3139 C3134 1.390 . S
C3139 C3138 1.387 1_556 S
H3140 C3152 0.930 . S
H3141 C3154 0.930 . S
H3142 C3155 0.930 . S
H3143 C3159 0.959 . S
H3144 C3159 0.959 . S
H3145 C3159 0.961 . S
H3146 C3160 0.960 . S
H3147 C3160 0.961 . S
H3148 C3160 0.959 . S
H3149 C3163 0.929 . S
H3150 C3164 0.931 . S
H3151 C3166 0.930 . S
C3152 H3140 0.930 . S
C3152 C3153 1.399 . S
C3152 C3157 1.399 . S
C3153 C3152 1.399 . S
C3153 C3154 1.376 . S
C3154 H3141 0.930 . S
C3154 C3153 1.376 . S
C3154 C3155 1.388 . S
C3155 H3142 0.930 . S
C3155 C3154 1.388 . S
C3155 C3156 1.390 . S
C3156 C3155 1.390 . S
C3156 C3157 1.394 . S
C3156 C3162 1.465 . S
C3157 C3152 1.399 . S
C3157 C3156 1.394 . S
C3157 C3158 1.516 . S
C3158 C3157 1.516 . S
C3158 C3159 1.502 . S
C3158 C3160 1.561 . S
C3158 C3161 1.526 . S
C3159 H3143 0.959 . S
C3159 H3144 0.959 . S
C3159 H3145 0.961 . S
C3159 C3158 1.502 . S
C3160 H3146 0.960 . S
C3160 H3147 0.961 . S
C3160 H3148 0.959 . S
C3160 C3158 1.561 . S
C3161 C3158 1.526 . S
C3161 C3162 1.396 . S
C3161 C3166 1.390 . S
C3162 C3156 1.465 . S
C3162 C3161 1.396 . S
C3162 C3163 1.399 . S
C3163 H3149 0.929 . S
C3163 C3162 1.399 . S
C3163 C3164 1.385 . S
C3164 H3150 0.931 . S
C3164 C3163 1.385 . S
C3164 C3165 1.389 . S
C3165 C3164 1.389 . S
C3165 C3166 1.387 . S
C3166 H3151 0.930 . S
C3166 C3161 1.390 . S
C3166 C3165 1.387 . S
H3167 C3179 0.930 . S
H3168 C3181 0.958 . S
H3169 C3182 0.930 . S
H3170 C3186 0.959 . S
H3171 C3186 0.959 . S
H3172 C3186 0.961 . S
H3173 C3187 0.960 . S
H3174 C3187 0.961 . S
H3175 C3187 0.959 . S
H3176 C3190 0.929 . S
H3177 C3191 0.931 . S
H3178 C3193 0.930 . S
C3179 H3167 0.930 . S
C3179 C3180 1.399 . S
C3179 C3184 1.399 . S
C3180 C3179 1.399 . S
C3180 C3181 1.333 1_554 S
C3181 H3168 0.958 . S
C3181 C3180 1.333 1_556 S
C3181 C3182 1.406 . S
C3182 H3169 0.930 . S
C3182 C3181 1.406 . S
C3182 C3183 1.390 1_556 S
C3183 C3182 1.390 1_554 S
C3183 C3184 1.394 . S
C3183 C3189 1.465 1_554 S
C3184 C3179 1.399 . S
C3184 C3183 1.394 . S
C3184 C3185 1.516 . S
C3185 C3184 1.516 . S
C3185 C3186 1.502 . S
C3185 C3187 1.561 . S
C3185 C3188 1.526 . S
C3186 H3170 0.959 . S
C3186 H3171 0.959 . S
C3186 H3172 0.961 . S
C3186 C3185 1.502 . S
C3187 H3173 0.960 . S
C3187 H3174 0.961 . S
C3187 H3175 0.959 . S
C3187 C3185 1.561 . S
C3188 C3185 1.526 . S
C3188 C3189 1.396 1_554 S
C3188 C3193 1.390 . S
C3189 C3183 1.465 1_556 S
C3189 C3188 1.396 1_556 S
C3189 C3190 1.399 . S
C3190 H3176 0.929 . S
C3190 C3189 1.399 . S
C3190 C3191 1.385 . S
C3191 H3177 0.931 . S
C3191 C3190 1.385 . S
C3191 C3192 1.389 . S
C3192 C3191 1.389 . S
C3192 C3193 1.387 1_556 S
C3193 H3178 0.930 . S
C3193 C3188 1.390 . S
C3193 C3192 1.387 1_554 S
H3194 C3206 0.930 . S
H3195 C3208 0.930 . S
H3196 C3209 0.930 . S
H3197 C3213 0.959 . S
H3198 C3213 0.959 . S
H3199 C3213 0.961 . S
H3200 C3214 0.960 . S
H3201 C3214 0.961 . S
H3202 C3214 0.959 . S
H3203 C3217 0.929 . S
H3204 C3218 0.931 . S
H3205 C3220 0.930 . S
C3206 H3194 0.930 . S
C3206 C3207 1.399 . S
C3206 C3211 1.399 . S
C3207 C3206 1.399 . S
C3207 C3208 1.376 . S
C3208 H3195 0.930 . S
C3208 C3207 1.376 . S
C3208 C3209 1.388 . S
C3209 H3196 0.930 . S
C3209 C3208 1.388 . S
C3209 C3210 1.390 . S
C3210 C3209 1.390 . S
C3210 C3211 1.394 . S
C3210 C3216 1.465 . S
C3211 C3206 1.399 . S
C3211 C3210 1.394 . S
C3211 C3212 1.516 . S
C3212 C3211 1.516 . S
C3212 C3213 1.502 . S
C3212 C3214 1.561 . S
C3212 C3215 1.526 . S
C3213 H3197 0.959 . S
C3213 H3198 0.959 . S
C3213 H3199 0.961 . S
C3213 C3212 1.502 . S
C3214 H3200 0.960 . S
C3214 H3201 0.961 . S
C3214 H3202 0.959 . S
C3214 C3212 1.561 . S
C3215 C3212 1.526 . S
C3215 C3216 1.396 . S
C3215 C3220 1.390 . S
C3216 C3210 1.465 . S
C3216 C3215 1.396 . S
C3216 C3217 1.399 . S
C3217 H3203 0.929 . S
C3217 C3216 1.399 . S
C3217 C3218 1.385 . S
C3218 H3204 0.931 . S
C3218 C3217 1.385 . S
C3218 C3219 1.389 . S
C3219 C3218 1.389 . S
C3219 C3220 1.387 . S
C3220 H3205 0.930 . S
C3220 C3215 1.390 . S
C3220 C3219 1.387 . S
H3221 C3233 0.930 . S
H3222 C3235 0.930 . S
H3223 C3236 0.930 . S
H3224 C3240 0.959 . S
H3225 C3240 0.959 . S
H3226 C3240 0.961 . S
H3227 C3241 0.960 . S
H3228 C3241 0.961 . S
H3229 C3241 0.959 . S
H3230 C3244 0.929 . S
H3231 C3245 0.931 . S
H3232 C3247 0.930 . S
C3233 H3221 0.930 . S
C3233 C3234 1.399 . S
C3233 C3238 1.399 . S
C3234 C3233 1.399 . S
C3234 C3235 1.376 . S
C3235 H3222 0.930 . S
C3235 C3234 1.376 . S
C3235 C3236 1.388 . S
C3236 H3223 0.930 . S
C3236 C3235 1.388 . S
C3236 C3237 1.390 . S
C3237 C3236 1.390 . S
C3237 C3238 1.394 . S
C3237 C3243 1.465 . S
C3238 C3233 1.399 . S
C3238 C3237 1.394 . S
C3238 C3239 1.516 . S
C3239 C3238 1.516 . S
C3239 C3240 1.502 . S
C3239 C3241 1.561 . S
C3239 C3242 1.526 . S
C3240 H3224 0.959 . S
C3240 H3225 0.959 . S
C3240 H3226 0.961 . S
C3240 C3239 1.502 . S
C3241 H3227 0.960 . S
C3241 H3228 0.961 . S
C3241 H3229 0.959 . S
C3241 C3239 1.561 . S
C3242 C3239 1.526 . S
C3242 C3243 1.396 . S
C3242 C3247 1.390 . S
C3243 C3237 1.465 . S
C3243 C3242 1.396 . S
C3243 C3244 1.399 . S
C3244 H3230 0.929 . S
C3244 C3243 1.399 . S
C3244 C3245 1.385 . S
C3245 H3231 0.931 . S
C3245 C3244 1.385 . S
C3245 C3246 1.389 . S
C3246 C3245 1.389 . S
C3246 C3247 1.387 . S
C3247 H3232 0.930 . S
C3247 C3242 1.390 . S
C3247 C3246 1.387 . S
C669 C109 1.228 . S
C681 C352 1.151 1_556 S
C696 C65 1.299 . S
C708 C365 1.319 . S
C723 C75 1.340 . S
C735 C384 1.309 . S
C762 C415 1.929 . S
C750 C84 1.964 . S
C777 C25 1.719 . S
C789 C435 1.705 . S
C816 C452 0.897 . S
C804 C28 0.851 . S
C843 C465 1.510 . S
C831 C47 1.511 . S
C858 C9 1.042 . S
C870 C492 0.961 . S
C897 C345 1.298 . S
C885 C233 1.286 . S
C912 C249 1.453 . S
C924 C375 1.445 . S
C951 C377 1.735 . S
C939 C275 1.761 . S
C978 C412 0.888 . S
C966 C173 0.903 . S
C993 C224 1.184 . S
C1005 C432 1.199 . S
C1032 C445 1.756 . S
C1020 C243 1.752 . S
C1059 C475 1.300 . S
C1047 C266 1.286 . S
C1086 C485 1.113 . S
C1074 C179 1.133 . S
C1113 C355 1.609 1_565 S
C1101 C163 1.650 . S
C1128 C289 1.769 . S
C1140 C505 1.782 . S
C1167 C535 1.565 . S
C1155 C333 1.548 . S
C1194 C552 1.105 . S
C1182 C308 1.143 . S
C1209 C123 1.927 . S
C1221 C495 1.921 . S
C1236 C126 1.245 . S
C1248 C382 1.288 . S
C1263 C327 1.857 . S
C1275 C565 1.834 . S
C1302 C592 1.083 . S
C1290 C299 1.052 . S
C1329 C342 1.218 . S
C1317 C67 1.204 . S
C1356 C577 1.329 . S
C1344 C98 1.322 . S
C1371 C89 1.377 . S
C1383 C395 1.363 . S
C1398 C79 1.982 . S
C1410 C564 1.971 . S
C1437 C424 1.696 . S
C1425 C11 1.728 . S
C1452 C51 0.883 . S
C1464 C522 0.912 . S
C1491 C457 1.519 1_556 S
C1479 C33 1.519 . S
C1518 C602 1.035 . S
C1506 C14 1.055 . S
C1545 C337 1.224 . S
C1533 C140 1.255 . S
C1572 C584 1.402 . S
C1560 C319 1.451 . S
C1587 C112 1.741 . S
C1599 C385 1.724 . S
C1614 C285 0.896 . S
C1626 C562 0.879 . S
C1641 C149 1.208 . S
C1653 C422 1.183 . S
C1680 C517 1.801 . S
C1668 C313 1.803 . S
C1695 C121 1.367 . S
C1707 C464 1.308 . S
C1722 C291 1.160 . S
C1734 C597 1.140 . S
C1749 C182 1.660 . S
C1761 C344 1.650 . S
C1776 C168 1.778 . S
C1788 C497 1.769 . S
C1803 C263 1.630 . S
C1815 C444 1.633 . S
C1830 C247 1.209 . S
C1842 C542 1.212 . S
C1869 C604 1.894 . S
C1857 C277 1.910 . S
C1884 C219 1.314 . S
C1896 C392 1.303 . S
C1923 C397 1.881 . S
C1911 C257 1.893 . S
C1950 C362 1.064 . S
C1938 C201 1.039 . S
C1965 C81 1.203 . S
C1977 C632 1.184 . S
C2004 C585 1.265 . S
C1992 C93 1.317 . S
C2019 C103 1.328 . S
C2031 C644 1.301 1_456 S
C2046 C56 1.965 . S
C2058 C575 1.936 . S
C2073 C53 1.698 . S
C2085 C515 1.670 . S
C2112 C532 0.799 . S
C2100 C0 0.861 . S
C2139 C545 1.511 1_655 S
C2127 C19 1.511 . S
C2166 C612 0.963 . S
C2154 C37 1.041 . S
C2193 C625 1.297 . S
C2181 C261 1.287 . S
C2208 C193 1.454 . S
C2220 C595 1.443 . S
C2247 C637 1.693 . S
C2235 C205 1.745 . S
C2274 C572 0.883 . S
C2262 C215 0.902 . S
C2301 C512 1.198 . S
C2289 C252 1.187 . S
C2316 C187 1.776 . S
C2328 C525 1.771 . S
C2355 C555 1.275 . S
C2343 C196 1.270 . S
C2370 C221 1.149 . S
C2382 C605 1.167 . S
C2409 C635 1.626 . S
C2397 C317 1.652 . S
C2424 C135 1.770 . S
C2436 C425 1.772 . S
C2463 C455 1.581 . S
C2451 C151 1.595 . S
C2490 C472 1.117 1_565 S
C2478 C154 1.174 . S
C2517 C615 1.894 . S
C2505 C305 1.897 . S
C2532 C280 1.232 . S
C2544 C642 1.249 . S
C2571 C405 1.834 . S
C2559 C145 1.853 . S
C2598 C372 1.075 . S
C2586 C117 1.061 . S
C2613 C95 1.206 . S
C2625 C622 1.233 . S
C2652 C357 1.279 . S
C2640 C70 1.310 . S
C2667 C61 1.356 . S
C2679 C655 1.340 . S
C2694 C107 2.003 . S
C2706 C404 1.939 . S
C2721 C39 1.745 . S
C2733 C504 1.730 1_556 S
C2760 C442 0.909 . S
C2748 C23 0.879 . S
C2775 C5 1.519 . S
C2787 C537 1.520 . S
C2802 C42 1.028 . S
C2814 C482 0.989 . S
C2841 C617 1.221 . S
C2829 C322 1.246 . S
C2856 C165 1.461 . S
C2868 C364 1.408 . S
C2895 C645 1.723 . S
C2883 C294 1.753 . S
C2910 C131 0.912 . S
C2922 C402 0.924 . S
C2937 C331 1.226 . S
C2949 C502 1.222 . S
C2976 C437 1.801 . S
C2964 C159 1.803 . S
C2991 C303 1.362 . S
C3003 C544 1.336 . S
C3030 C477 1.136 . S
C3018 C137 1.160 . S
C3057 C624 1.637 . S
C3045 C238 1.652 . S
C3084 C417 1.754 1_565 S
C3072 C210 1.764 . S
C3099 C235 1.617 . S
C3111 C524 1.630 . S
C3138 C462 1.159 . S
C3126 C191 1.218 . S
C3153 C207 1.909 . S
C3165 C484 1.893 . S
C3180 C177 1.308 . S
C3192 C652 1.291 1_556 S
C3219 C557 1.887 . S
C3207 C229 1.901 1_565 S
C3246 C582 1.001 . S
C3234 C271 1.032 . S
