# Generated by pormake.
# Topology ocu, (6,8)-cn, num edge types: 1
# Building blocks:
#     Node 0, Type 0, BuildingBlock: PAMTUU_clean_sbu_0, # of connection points: 6
#     Node 1, Type 0, BuildingBlock: PAMTUU_clean_sbu_0, # of connection points: 6
#     Node 2, Type 0, BuildingBlock: PAMTUU_clean_sbu_0, # of connection points: 6
#     Node 3, Type 0, BuildingBlock: PAMTUU_clean_sbu_0, # of connection points: 6
#     Node 4, Type 0, BuildingBlock: PAMTUU_clean_sbu_0, # of connection points: 6
#     Node 5, Type 0, BuildingBlock: PAMTUU_clean_sbu_0, # of connection points: 6
#     Node 6, Type 0, BuildingBlock: PAMTUU_clean_sbu_0, # of connection points: 6
#     Node 7, Type 0, BuildingBlock: PAMTUU_clean_sbu_0, # of connection points: 6
#     Node 8, Type 1, BuildingBlock: GIZVER_clean_sbu_0, # of connection points: 8
#     Node 9, Type 1, BuildingBlock: GIZVER_clean_sbu_0, # of connection points: 8
#     Node 10, Type 1, BuildingBlock: GIZVER_clean_sbu_0, # of connection points: 8
#     Node 11, Type 1, BuildingBlock: GIZVER_clean_sbu_0, # of connection points: 8
#     Node 12, Type 1, BuildingBlock: GIZVER_clean_sbu_0, # of connection points: 8
#     Node 13, Type 1, BuildingBlock: GIZVER_clean_sbu_0, # of connection points: 8
#     Edge 14, Type (0, 1), BuildingBlock: MIFKUJ_clean_linker_0, # of connection points: 2
#     Edge 15, Type (0, 1), BuildingBlock: MIFKUJ_clean_linker_0, # of connection points: 2
#     Edge 16, Type (0, 1), BuildingBlock: MIFKUJ_clean_linker_0, # of connection points: 2
#     Edge 17, Type (0, 1), BuildingBlock: MIFKUJ_clean_linker_0, # of connection points: 2
#     Edge 18, Type (0, 1), BuildingBlock: MIFKUJ_clean_linker_0, # of connection points: 2
#     Edge 19, Type (0, 1), BuildingBlock: MIFKUJ_clean_linker_0, # of connection points: 2
#     Edge 20, Type (0, 1), BuildingBlock: MIFKUJ_clean_linker_0, # of connection points: 2
#     Edge 21, Type (0, 1), BuildingBlock: MIFKUJ_clean_linker_0, # of connection points: 2
#     Edge 22, Type (0, 1), BuildingBlock: MIFKUJ_clean_linker_0, # of connection points: 2
#     Edge 23, Type (0, 1), BuildingBlock: MIFKUJ_clean_linker_0, # of connection points: 2
#     Edge 24, Type (0, 1), BuildingBlock: MIFKUJ_clean_linker_0, # of connection points: 2
#     Edge 25, Type (0, 1), BuildingBlock: MIFKUJ_clean_linker_0, # of connection points: 2
#     Edge 26, Type (0, 1), BuildingBlock: MIFKUJ_clean_linker_0, # of connection points: 2
#     Edge 27, Type (0, 1), BuildingBlock: MIFKUJ_clean_linker_0, # of connection points: 2
#     Edge 28, Type (0, 1), BuildingBlock: MIFKUJ_clean_linker_0, # of connection points: 2
#     Edge 29, Type (0, 1), BuildingBlock: MIFKUJ_clean_linker_0, # of connection points: 2
#     Edge 30, Type (0, 1), BuildingBlock: MIFKUJ_clean_linker_0, # of connection points: 2
#     Edge 31, Type (0, 1), BuildingBlock: MIFKUJ_clean_linker_0, # of connection points: 2
#     Edge 32, Type (0, 1), BuildingBlock: MIFKUJ_clean_linker_0, # of connection points: 2
#     Edge 33, Type (0, 1), BuildingBlock: MIFKUJ_clean_linker_0, # of connection points: 2
#     Edge 34, Type (0, 1), BuildingBlock: MIFKUJ_clean_linker_0, # of connection points: 2
#     Edge 35, Type (0, 1), BuildingBlock: MIFKUJ_clean_linker_0, # of connection points: 2
#     Edge 36, Type (0, 1), BuildingBlock: MIFKUJ_clean_linker_0, # of connection points: 2
#     Edge 37, Type (0, 1), BuildingBlock: MIFKUJ_clean_linker_0, # of connection points: 2
#     Edge 38, Type (0, 1), BuildingBlock: MIFKUJ_clean_linker_0, # of connection points: 2
#     Edge 39, Type (0, 1), BuildingBlock: MIFKUJ_clean_linker_0, # of connection points: 2
#     Edge 40, Type (0, 1), BuildingBlock: MIFKUJ_clean_linker_0, # of connection points: 2
#     Edge 41, Type (0, 1), BuildingBlock: MIFKUJ_clean_linker_0, # of connection points: 2
#     Edge 42, Type (0, 1), BuildingBlock: MIFKUJ_clean_linker_0, # of connection points: 2
#     Edge 43, Type (0, 1), BuildingBlock: MIFKUJ_clean_linker_0, # of connection points: 2
#     Edge 44, Type (0, 1), BuildingBlock: MIFKUJ_clean_linker_0, # of connection points: 2
#     Edge 45, Type (0, 1), BuildingBlock: MIFKUJ_clean_linker_0, # of connection points: 2
#     Edge 46, Type (0, 1), BuildingBlock: MIFKUJ_clean_linker_0, # of connection points: 2
#     Edge 47, Type (0, 1), BuildingBlock: MIFKUJ_clean_linker_0, # of connection points: 2
#     Edge 48, Type (0, 1), BuildingBlock: MIFKUJ_clean_linker_0, # of connection points: 2
#     Edge 49, Type (0, 1), BuildingBlock: MIFKUJ_clean_linker_0, # of connection points: 2
#     Edge 50, Type (0, 1), BuildingBlock: MIFKUJ_clean_linker_0, # of connection points: 2
#     Edge 51, Type (0, 1), BuildingBlock: MIFKUJ_clean_linker_0, # of connection points: 2
#     Edge 52, Type (0, 1), BuildingBlock: MIFKUJ_clean_linker_0, # of connection points: 2
#     Edge 53, Type (0, 1), BuildingBlock: MIFKUJ_clean_linker_0, # of connection points: 2
#     Edge 54, Type (0, 1), BuildingBlock: MIFKUJ_clean_linker_0, # of connection points: 2
#     Edge 55, Type (0, 1), BuildingBlock: MIFKUJ_clean_linker_0, # of connection points: 2
#     Edge 56, Type (0, 1), BuildingBlock: MIFKUJ_clean_linker_0, # of connection points: 2
#     Edge 57, Type (0, 1), BuildingBlock: MIFKUJ_clean_linker_0, # of connection points: 2
#     Edge 58, Type (0, 1), BuildingBlock: MIFKUJ_clean_linker_0, # of connection points: 2
#     Edge 59, Type (0, 1), BuildingBlock: MIFKUJ_clean_linker_0, # of connection points: 2
#     Edge 60, Type (0, 1), BuildingBlock: MIFKUJ_clean_linker_0, # of connection points: 2
#     Edge 61, Type (0, 1), BuildingBlock: MIFKUJ_clean_linker_0, # of connection points: 2
# Relax obj value: 0.157
# Max RMSD: 0.258
# Mean RMSD: 0.185
data_MOF--net-ocu--node1-PAMTUU_clean_sbu_0--node2-GIZVER_clean_sbu_0--edge1-MIFKUJ_clean_linker_0
_symmetry_space_group_name_H-M    P1
_symmetry_Int_Tables_number       1
_symmetry_cell_setting            triclinic
loop_
_symmetry_equiv_pos_as_xyz
'x, y, z'
_cell_length_a     53.120978
_cell_length_b     58.824884
_cell_length_c     41.049902
_cell_angle_alpha  84.942722
_cell_angle_beta   95.420664
_cell_angle_gamma 109.13057
loop_
_atom_site_label
_atom_site_type_symbol
_atom_site_fract_x
_atom_site_fract_y
_atom_site_fract_z
_atom_type_partial_charge
Tb0 Tb 0.27354 0.27862 0.25365 0.0
Tb1 Tb 0.31296 0.28476 0.31732 0.0
C2 C 0.25762 0.24574 0.31514 0.0
C3 C 0.22607 0.28691 0.18459 0.0
C4 C 0.19815 0.31623 0.15191 0.0
C5 C 0.18692 0.29986 0.17773 0.0
C6 C 0.20071 0.28525 0.19385 0.0
C7 C 0.23669 0.30242 0.15768 0.0
C8 C 0.22288 0.31706 0.14155 0.0
C9 C 0.24159 0.27292 0.20333 0.0
O10 O 0.25682 0.29972 0.28465 0.0
O11 O 0.29101 0.31078 0.32464 0.0
O12 O 0.33576 0.30519 0.27739 0.0
O13 O 0.302 0.31475 0.248 0.0
O14 O 0.32534 0.26997 0.36159 0.0
O15 O 0.34498 0.3072 0.34568 0.0
O16 O 0.32291 0.25637 0.29171 0.0
O17 O 0.30207 0.26012 0.24109 0.0
O18 O 0.26038 0.24553 0.28398 0.0
O19 O 0.27394 0.26292 0.33217 0.0
C20 C 0.26767 0.31218 0.31107 0.0
O21 O 0.2675 0.28169 0.20247 0.0
O22 O 0.23449 0.26485 0.23283 0.0
C23 C 0.32756 0.31917 0.25551 0.0
C24 C 0.3712 0.28492 0.37254 0.0
C25 C 0.41182 0.26421 0.38645 0.0
C26 C 0.40274 0.27367 0.41158 0.0
C27 C 0.38239 0.28386 0.40464 0.0
C28 C 0.38196 0.27763 0.34695 0.0
C29 C 0.40215 0.26727 0.35388 0.0
C30 C 0.34564 0.28938 0.36671 0.0
C31 C 0.31865 0.25115 0.2602 0.0
H32 H 0.16796 0.29901 0.18634 0.0
H33 H 0.19179 0.27316 0.21414 0.0
H34 H 0.25595 0.30367 0.14957 0.0
H35 H 0.23171 0.3293 0.12134 0.0
H36 H 0.40967 0.2713 0.43693 0.0
H37 H 0.37412 0.2893 0.42462 0.0
H38 H 0.37345 0.27836 0.32198 0.0
H39 H 0.40895 0.26021 0.33411 0.0
Tb40 Tb 0.74921 0.29995 0.26759 0.0
Tb41 Tb 0.79787 0.27681 0.27245 0.0
C42 C 0.7926 0.30818 0.32628 0.0
C43 C 0.70582 0.32556 0.22006 0.0
C44 C 0.70133 0.34469 0.15554 0.0
C45 C 0.68925 0.35133 0.18066 0.0
C46 C 0.69165 0.34189 0.21293 0.0
C47 C 0.71672 0.3182 0.19462 0.0
C48 C 0.71454 0.32766 0.16269 0.0
C49 C 0.71289 0.31834 0.25383 0.0
O50 O 0.77644 0.3189 0.23043 0.0
O51 O 0.81457 0.31456 0.25639 0.0
O52 O 0.78144 0.273 0.22221 0.0
O53 O 0.73972 0.2715 0.2339 0.0
O54 O 0.83846 0.28113 0.28332 0.0
O55 O 0.81091 0.24728 0.26753 0.0
O56 O 0.76283 0.24938 0.29146 0.0
O57 O 0.73951 0.2727 0.30766 0.0
O58 O 0.77767 0.31788 0.30621 0.0
O59 O 0.79621 0.28797 0.3206 0.0
C60 C 0.80246 0.3265 0.23571 0.0
O61 O 0.70816 0.29521 0.25975 0.0
O62 O 0.73696 0.33064 0.26469 0.0
C63 C 0.75577 0.26737 0.2145 0.0
C64 C 0.84275 0.24566 0.31018 0.0
C65 C 0.85418 0.21892 0.36633 0.0
C66 C 0.85942 0.21408 0.33514 0.0
C67 C 0.85374 0.2274 0.30722 0.0
C68 C 0.83773 0.25064 0.34133 0.0
C69 C 0.84356 0.23749 0.36921 0.0
C70 C 0.8346 0.25827 0.28085 0.0
C71 C 0.74452 0.25219 0.3088 0.0
H72 H 0.67918 0.36469 0.17565 0.0
H73 H 0.68347 0.34804 0.23233 0.0
H74 H 0.72809 0.30592 0.19967 0.0
H75 H 0.72392 0.32224 0.14377 0.0
H76 H 0.86791 0.2 0.33237 0.0
H77 H 0.85751 0.22321 0.28334 0.0
H78 H 0.82884 0.2644 0.34412 0.0
H79 H 0.83915 0.24143 0.3929 0.0
Tb80 Tb 0.8096 0.79511 0.25698 0.0
Tb81 Tb 0.77203 0.77329 0.31411 0.0
C82 C 0.82287 0.81767 0.32245 0.0
C83 C 0.84493 0.79428 0.1864 0.0
C84 C 0.86084 0.76216 0.15308 0.0
C85 C 0.87937 0.78446 0.1616 0.0
C86 C 0.87143 0.80044 0.17818 0.0
C87 C 0.82618 0.77251 0.17647 0.0
C88 C 0.83405 0.75666 0.15988 0.0
C89 C 0.83739 0.80895 0.20837 0.0
O90 O 0.83151 0.77189 0.28779 0.0
O91 O 0.79719 0.74817 0.31754 0.0
O92 O 0.7496 0.758 0.27012 0.0
O93 O 0.78614 0.75873 0.24543 0.0
O94 O 0.76439 0.77765 0.36155 0.0
O95 O 0.74126 0.74563 0.33682 0.0
O96 O 0.75505 0.80274 0.29139 0.0
O97 O 0.77638 0.81154 0.24379 0.0
O98 O 0.82035 0.82316 0.29118 0.0
O99 O 0.81038 0.79593 0.33404 0.0
C100 C 0.822 0.75257 0.30849 0.0
O101 O 0.81195 0.80606 0.20719 0.0
O102 O 0.84772 0.80883 0.2385 0.0
C103 C 0.76046 0.75019 0.24819 0.0
C104 C 0.72132 0.75907 0.37752 0.0
C105 C 0.68828 0.77352 0.41477 0.0
C106 C 0.69964 0.75594 0.42782 0.0
C107 C 0.71605 0.74874 0.40925 0.0
C108 C 0.70811 0.77498 0.36331 0.0
C109 C 0.69155 0.78209 0.38183 0.0
C110 C 0.74477 0.7574 0.36325 0.0
C111 C 0.75778 0.8142 0.26149 0.0
H112 H 0.90013 0.78915 0.15637 0.0
H113 H 0.88616 0.81709 0.18576 0.0
H114 H 0.80561 0.76715 0.18274 0.0
H115 H 0.81943 0.73948 0.15411 0.0
H116 H 0.69725 0.74897 0.45306 0.0
H117 H 0.72631 0.73659 0.42061 0.0
H118 H 0.71229 0.78333 0.33896 0.0
H119 H 0.68321 0.79584 0.37129 0.0
Tb120 Tb 0.29313 0.77763 0.28521 0.0
Tb121 Tb 0.24902 0.80564 0.28568 0.0
C122 C 0.24718 0.76112 0.33164 0.0
C123 C 0.33822 0.7442 0.26478 0.0
C124 C 0.36014 0.71876 0.22686 0.0
C125 C 0.33317 0.70936 0.23401 0.0
C126 C 0.32226 0.72198 0.25283 0.0
C127 C 0.36492 0.75386 0.25692 0.0
C128 C 0.37575 0.74133 0.23802 0.0
C129 C 0.32808 0.75716 0.28668 0.0
O130 O 0.25939 0.75539 0.25556 0.0
O131 O 0.23125 0.77865 0.24977 0.0
O132 O 0.28122 0.82679 0.25641 0.0
O133 O 0.29201 0.79624 0.23744 0.0
O134 O 0.22337 0.81732 0.31068 0.0
O135 O 0.22751 0.82599 0.25867 0.0
O136 O 0.27798 0.81914 0.32666 0.0
O137 O 0.31354 0.811 0.30892 0.0
O138 O 0.27313 0.76734 0.3305 0.0
O139 O 0.23297 0.77113 0.31119 0.0
C140 C 0.23756 0.75976 0.24303 0.0
O141 O 0.33265 0.78009 0.27905 0.0
O142 O 0.30412 0.74658 0.29656 0.0
C143 C 0.2905 0.81809 0.23369 0.0
C144 C 0.22421 0.85631 0.29069 0.0
C145 C 0.23578 0.90507 0.30329 0.0
C146 C 0.2409 0.89887 0.27294 0.0
C147 C 0.23528 0.87466 0.26672 0.0
C148 C 0.21904 0.86262 0.3209 0.0
C149 C 0.22488 0.88671 0.3272 0.0
C150 C 0.2188 0.83068 0.28516 0.0
C151 C 0.30366 0.82206 0.32823 0.0
H152 H 0.32072 0.69192 0.22594 0.0
H153 H 0.30156 0.7141 0.25851 0.0
H154 H 0.37756 0.77098 0.26583 0.0
H155 H 0.39646 0.74924 0.2324 0.0
H156 H 0.24903 0.91271 0.25403 0.0
H157 H 0.23954 0.87037 0.24315 0.0
H158 H 0.21037 0.84889 0.33972 0.0
H159 H 0.21997 0.89092 0.35048 0.0
Tb160 Tb 0.27688 0.77662 0.77441 0.0
Tb161 Tb 0.32547 0.75437 0.78352 0.0
C162 C 0.32702 0.79982 0.82399 0.0
C163 C 0.22998 0.80096 0.72773 0.0
C164 C 0.22002 0.82372 0.66747 0.0
C165 C 0.20416 0.82215 0.69371 0.0
C166 C 0.20923 0.81088 0.72383 0.0
C167 C 0.24471 0.80121 0.70098 0.0
C168 C 0.23985 0.81263 0.67105 0.0
C169 C 0.23826 0.79229 0.76001 0.0
O170 O 0.30874 0.80055 0.74703 0.0
O171 O 0.32731 0.7728 0.73525 0.0
O172 O 0.29206 0.72651 0.75983 0.0
O173 O 0.27075 0.75183 0.7346 0.0
O174 O 0.36658 0.76103 0.78039 0.0
O175 O 0.34018 0.72524 0.79256 0.0
O176 O 0.30628 0.74286 0.82913 0.0
O177 O 0.26618 0.74916 0.81352 0.0
O178 O 0.30135 0.79625 0.81599 0.0
O179 O 0.33982 0.78712 0.81157 0.0
C180 C 0.32473 0.79422 0.73019 0.0
O181 O 0.23575 0.76946 0.76289 0.0
O182 O 0.26163 0.80545 0.7717 0.0
C183 C 0.27423 0.73051 0.7376 0.0
C184 C 0.37909 0.73899 0.82617 0.0
C185 C 0.38739 0.73326 0.89454 0.0
C186 C 0.38334 0.71381 0.87477 0.0
C187 C 0.37917 0.71665 0.84087 0.0
C188 C 0.386 0.75904 0.84555 0.0
C189 C 0.39007 0.75619 0.87954 0.0
C190 C 0.36479 0.73968 0.79388 0.0
C191 C 0.28141 0.74013 0.83393 0.0
H192 H 0.18904 0.83096 0.69156 0.0
H193 H 0.1978 0.81086 0.74435 0.0
H194 H 0.26085 0.79357 0.70371 0.0
H195 H 0.25233 0.81375 0.65117 0.0
H196 H 0.3824 0.6961 0.88561 0.0
H197 H 0.37392 0.70097 0.82646 0.0
H198 H 0.38635 0.7766 0.83478 0.0
H199 H 0.39385 0.77158 0.89414 0.0
Tb200 Tb 0.31096 0.27517 0.75634 0.0
Tb201 Tb 0.28365 0.28384 0.8201 0.0
C202 C 0.33803 0.31753 0.79833 0.0
C203 C 0.3443 0.24751 0.70177 0.0
C204 C 0.36803 0.21324 0.68724 0.0
C205 C 0.38237 0.23805 0.68521 0.0
C206 C 0.37061 0.25494 0.69228 0.0
C207 C 0.32985 0.2227 0.70395 0.0
C208 C 0.34159 0.20575 0.6966 0.0
C209 C 0.33263 0.26604 0.70908 0.0
O210 O 0.33108 0.26069 0.79932 0.0
O211 O 0.30044 0.25449 0.83806 0.0
O212 O 0.25287 0.25889 0.79032 0.0
O213 O 0.28091 0.24196 0.77124 0.0
O214 O 0.28869 0.30563 0.8593 0.0
O215 O 0.25274 0.27549 0.85262 0.0
O216 O 0.27422 0.30909 0.78104 0.0
O217 O 0.28128 0.29284 0.73503 0.0
O218 O 0.3307 0.31231 0.76797 0.0
O219 O 0.32592 0.30348 0.82238 0.0
C220 C 0.32181 0.25084 0.82797 0.0
O221 O 0.30682 0.25945 0.71123 0.0
O222 O 0.34561 0.28038 0.73191 0.0
C223 C 0.25683 0.24109 0.77695 0.0
C224 C 0.24915 0.31068 0.87493 0.0
C225 C 0.22077 0.34081 0.89175 0.0
C226 C 0.20755 0.31614 0.88746 0.0
C227 C 0.22163 0.30121 0.87931 0.0
C228 C 0.26219 0.33543 0.87876 0.0
C229 C 0.24819 0.35026 0.88695 0.0
C230 C 0.26471 0.29478 0.86865 0.0
C231 C 0.27125 0.30734 0.74878 0.0
H232 H 0.40262 0.24447 0.67762 0.0
H233 H 0.38212 0.27393 0.69027 0.0
H234 H 0.30955 0.21638 0.71135 0.0
H235 H 0.33008 0.18677 0.69862 0.0
H236 H 0.18648 0.30823 0.89125 0.0
H237 H 0.21106 0.28219 0.87696 0.0
H238 H 0.2834 0.34342 0.87586 0.0
H239 H 0.25894 0.36922 0.88954 0.0
Tb240 Tb 0.80651 0.2639 0.7923 0.0
Tb241 Tb 0.76332 0.2894 0.76066 0.0
C242 C 0.74773 0.24727 0.81586 0.0
C243 C 0.84476 0.22438 0.78941 0.0
C244 C 0.85005 0.19011 0.74911 0.0
C245 C 0.84948 0.18535 0.78329 0.0
C246 C 0.84681 0.20238 0.80331 0.0
C247 C 0.84529 0.22908 0.75525 0.0
C248 C 0.84791 0.21214 0.73534 0.0
C249 C 0.83862 0.24111 0.80951 0.0
O250 O 0.79319 0.24971 0.74421 0.0
O251 O 0.75263 0.25596 0.73687 0.0
O252 O 0.79679 0.30046 0.72846 0.0
O253 O 0.82927 0.29781 0.76746 0.0
O254 O 0.72386 0.28985 0.75165 0.0
O255 O 0.75667 0.31851 0.73211 0.0
O256 O 0.78788 0.31315 0.79706 0.0
O257 O 0.80627 0.28786 0.8296 0.0
O258 O 0.76778 0.24082 0.80824 0.0
O259 O 0.74557 0.26836 0.80482 0.0
C260 C 0.76893 0.24474 0.7302 0.0
O261 O 0.84613 0.26362 0.79866 0.0
O262 O 0.81423 0.23411 0.81824 0.0
C263 C 0.82221 0.3068 0.73903 0.0
C264 C 0.7228 0.32929 0.75163 0.0
C265 C 0.70938 0.36563 0.77853 0.0
C266 C 0.70008 0.35917 0.74633 0.0
C267 C 0.70694 0.34116 0.73286 0.0
C268 C 0.73169 0.33542 0.78392 0.0
C269 C 0.72516 0.35354 0.79723 0.0
C270 C 0.73143 0.31142 0.73737 0.0
C271 C 0.80105 0.3083 0.82401 0.0
H272 H 0.85142 0.1686 0.79457 0.0
H273 H 0.84596 0.19825 0.82951 0.0
H274 H 0.84315 0.24571 0.74376 0.0
H275 H 0.84797 0.21618 0.70907 0.0
H276 H 0.68785 0.36826 0.73153 0.0
H277 H 0.70007 0.33664 0.70782 0.0
H278 H 0.74381 0.32625 0.79876 0.0
H279 H 0.73213 0.35787 0.82231 0.0
Tb280 Tb 0.78537 0.79108 0.80066 0.0
Tb281 Tb 0.79119 0.76106 0.73702 0.0
C282 C 0.82932 0.81246 0.75169 0.0
C283 C 0.76327 0.82792 0.8582 0.0
C284 C 0.73317 0.85382 0.88338 0.0
C285 C 0.76116 0.8635 0.88289 0.0
C286 C 0.77593 0.85073 0.87052 0.0
C287 C 0.73529 0.81819 0.85823 0.0
C288 C 0.72043 0.83099 0.87067 0.0
C289 C 0.7801 0.81445 0.84745 0.0
O290 O 0.76859 0.80598 0.75696 0.0
O291 O 0.7581 0.77501 0.72174 0.0
O292 O 0.76645 0.73592 0.77245 0.0
O293 O 0.74828 0.76206 0.79144 0.0
O294 O 0.81173 0.76092 0.69587 0.0
O295 O 0.77894 0.7298 0.70977 0.0
O296 O 0.82277 0.75918 0.77378 0.0
O297 O 0.80502 0.76492 0.8205 0.0
O298 O 0.82484 0.80829 0.78291 0.0
O299 O 0.81351 0.79899 0.72935 0.0
C300 C 0.75592 0.79532 0.73046 0.0
O301 O 0.77008 0.79108 0.84627 0.0
O302 O 0.79459 0.8241 0.82281 0.0
C303 C 0.74751 0.74001 0.78704 0.0
C304 C 0.81365 0.72286 0.68251 0.0
C305 C 0.8428 0.69528 0.65935 0.0
C306 C 0.81469 0.6879 0.65531 0.0
C307 C 0.80037 0.70154 0.66662 0.0
C308 C 0.84168 0.72991 0.68757 0.0
C309 C 0.85603 0.71635 0.67605 0.0
C310 C 0.79826 0.73862 0.69022 0.0
C311 C 0.8215 0.75725 0.80579 0.0
H312 H 0.77186 0.88076 0.89286 0.0
H313 H 0.79748 0.85858 0.87112 0.0
H314 H 0.72489 0.80064 0.84893 0.0
H315 H 0.69892 0.823 0.8702 0.0
H316 H 0.80371 0.672 0.64229 0.0
H317 H 0.77885 0.69579 0.66203 0.0
H318 H 0.85262 0.74623 0.69972 0.0
H319 H 0.87758 0.7225 0.68012 0.0
Co320 Co 0.08131 0.99887 0.51561 0.0
Co321 Co 0.09239 1.00889 0.57642 0.0
Co322 Co 0.04586 0.02982 0.54399 0.0
O323 O 0.0798 0.02387 0.54045 0.0
H324 H 0.09369 0.03882 0.53521 0.0
O325 O 1.01181 0.03599 0.5472 0.0
Co326 Co 1.01241 0.06243 0.57063 0.0
Co327 Co 0.99991 0.05107 0.51027 0.0
H328 H 0.99779 0.0214 0.55345 0.0
O329 O 0.12874 0.01305 0.58349 0.0
O330 O 0.09753 0.98517 0.55428 0.0
O331 O 0.06747 0.99504 0.60919 0.0
O332 O 0.03391 1.00539 0.58184 0.0
O333 O 0.06556 0.05411 0.57567 0.0
O334 O 1.01027 0.0851 0.59421 0.0
O335 O 0.98051 0.04813 0.58713 0.0
O336 O 0.04623 0.08073 0.55681 0.0
O337 O 0.0582 0.05482 0.50682 0.0
O338 O 1.02548 0.06517 0.47769 0.0
O339 O 0.99592 0.07588 0.53183 0.0
O340 O 0.96391 0.04852 0.50295 0.0
C341 C 0.10816 0.99549 0.48605 0.0
C342 C 1.02619 0.98352 0.51564 0.0
C343 C 0.04331 0.99462 0.60604 0.0
C344 C 0.12213 0.99444 0.56581 0.0
C345 C 0.98767 0.06878 0.60057 0.0
C346 C 0.06571 0.07577 0.57228 0.0
C347 C 0.04982 0.06636 0.48268 0.0
C348 C 0.97133 0.06753 0.5199 0.0
O349 O 0.08626 0.97766 0.49067 0.0
O350 O 0.11319 0.01519 0.50124 0.0
O351 O 1.02605 1.00517 0.51257 0.0
O352 O 0.04708 0.97871 0.52701 0.0
Co353 Co 0.55531 0.99153 0.05265 0.0
Co354 Co 0.56271 1.00331 0.11038 0.0
Co355 Co 0.52298 0.03661 0.06656 0.0
O356 O 0.55595 0.02229 0.07124 0.0
H357 H 0.57228 0.03499 0.06627 0.0
O358 O 0.48988 0.05149 0.06492 0.0
Co359 Co 0.48847 0.08309 0.08627 0.0
Co360 Co 0.48698 0.07192 0.0272 0.0
H361 H 0.47318 0.0386 0.0671 0.0
O362 O 0.59611 0.99875 0.13003 0.0
O363 O 0.56659 0.97353 0.09705 0.0
O364 O 0.53158 0.9957 0.13471 0.0
O365 O 0.50582 0.01523 0.10505 0.0
O366 O 0.54352 0.06304 0.09548 0.0
O367 O 0.48622 0.11001 0.1073 0.0
O368 O 0.45103 0.07894 0.09469 0.0
O369 O 0.52651 0.09374 0.0837 0.0
O370 O 0.54207 0.05873 0.02755 0.0
O371 O 0.51825 0.08147 0.00294 0.0
O372 O 0.48263 0.10021 0.04159 0.0
O373 O 0.45425 0.07425 0.00725 0.0
C374 C 0.5814 0.9787 0.03095 0.0
C375 C 0.50072 0.98653 0.03868 0.0
C376 C 0.50998 1.00092 0.12896 0.0
C377 C 0.58861 0.97786 0.11747 0.0
C378 C 0.4605 0.10011 0.10786 0.0
C379 C 0.54621 0.08553 0.09004 0.0
C380 C 0.5393 0.07544 0.00609 0.0
C381 C 0.46173 0.09506 0.02006 0.0
O382 O 0.55635 0.96609 0.03295 0.0
O383 O 0.59022 1.00024 0.04233 0.0
O384 O 0.50176 1.00904 0.03652 0.0
O385 O 0.5174 0.97933 0.0582 0.0
Co386 Co 0.04628 0.50261 0.9984 0.0
Co387 Co 0.04875 0.51821 0.05638 0.0
Co388 Co 1.01852 0.546 0.00531 0.0
O389 O 0.04809 0.53228 0.01496 0.0
H390 H 0.06533 0.54433 0.01215 0.0
O391 O 0.98937 0.56014 0.99409 0.0
Co392 Co 0.98962 0.58626 0.01761 0.0
Co393 Co 0.99342 0.58221 0.95891 0.0
H394 H 0.97207 0.54786 0.9924 0.0
O395 O 0.07945 0.5131 0.07628 0.0
O396 O 0.04736 0.48846 0.04369 0.0
O397 O 1.01824 0.51398 0.08017 0.0
O398 O 0.99339 0.52303 0.03728 0.0
O399 O 0.03553 0.56857 0.04098 0.0
O400 O 0.98728 0.60855 0.04137 0.0
O401 O 0.95436 0.57589 0.02318 0.0
O402 O 1.02693 0.60009 0.01581 0.0
O403 O 0.0439 0.56876 0.97452 0.0
O404 O 0.0286 0.59469 0.94245 0.0
O405 O 0.98396 0.60595 0.97649 0.0
O406 O 0.96346 0.58314 0.93395 0.0
C407 C 0.0735 0.48821 0.98392 0.0
C408 C 0.99468 0.50059 0.97655 0.0
C409 C 0.99575 0.5139 0.06654 0.0
C410 C 0.06895 0.49255 0.06301 0.0
C411 C 0.96255 0.5947 0.04076 0.0
C412 C 0.04117 0.59134 0.03642 0.0
C413 C 0.0473 0.5864 0.95309 0.0
C414 C 0.96541 0.60062 0.95237 0.0
O415 O 0.04807 0.47618 0.98227 0.0
O416 O 0.08201 0.50927 0.99648 0.0
O417 O 1.00148 0.52327 0.97006 0.0
O418 O 1.00877 0.49179 0.9973 0.0
Co419 Co 0.57149 0.49336 0.00505 0.0
Co420 Co 0.58585 0.50698 0.06454 0.0
Co421 Co 0.5437 0.5316 0.02941 0.0
O422 O 0.57496 0.52132 0.02635 0.0
H423 H 0.59001 0.53471 0.01923 0.0
O424 O 0.51267 0.54266 0.03249 0.0
Co425 Co 0.51878 0.57293 0.05017 0.0
Co426 Co 0.50029 0.55466 0.9926 0.0
H427 H 0.498 0.53013 0.04202 0.0
O428 O 0.6216 0.50893 0.07092 0.0
O429 O 0.58781 0.48097 0.04481 0.0
O430 O 0.56047 0.49593 0.09767 0.0
O431 O 0.52997 0.5096 0.06891 0.0
O432 O 0.56743 0.55611 0.05867 0.0
O433 O 0.52106 0.59964 0.06869 0.0
O434 O 0.48628 0.56512 0.06575 0.0
O435 O 0.55364 0.58536 0.03618 0.0
O436 O 0.55726 0.55352 0.98956 0.0
O437 O 0.52339 0.55981 0.9576 0.0
O438 O 0.50646 0.58473 0.00774 0.0
O439 O 0.46732 0.56137 0.9863 0.0
C440 C 0.5943 0.48362 0.97553 0.0
C441 C 0.51836 0.48427 0.00507 0.0
C442 C 0.53722 0.49786 0.09369 0.0
C443 C 0.61301 0.48981 0.05416 0.0
C444 C 0.49694 0.58687 0.07577 0.0
C445 C 0.57169 0.57839 0.05178 0.0
C446 C 0.54775 0.56103 0.96248 0.0
C447 C 0.48179 0.58163 0.99816 0.0
O448 O 0.57131 0.46859 0.98338 0.0
O449 O 0.60308 0.50492 0.98723 0.0
O450 O 0.52039 0.50647 1.00052 0.0
O451 O 0.53729 0.47815 0.02036 0.0
Co452 Co 0.10955 0.48346 0.52201 0.0
Co453 Co 0.09298 0.48248 0.46269 0.0
Co454 Co 0.05683 0.51443 0.49587 0.0
O455 O 0.07355 0.48514 0.49854 0.0
H456 H 0.05964 0.46995 0.50247 0.0
O457 O 0.04136 0.54508 0.49157 0.0
Co458 Co 1.00776 0.55337 0.46421 0.0
Co459 Co 1.01681 0.54028 0.52328 0.0
H460 H 0.0559 0.55986 0.49506 0.0
O461 O 0.09332 0.4536 0.44561 0.0
O462 O 0.12582 0.47671 0.47887 0.0
O463 O 0.09886 0.51066 0.43363 0.0
O464 O 0.07626 0.53108 0.45619 0.0
O465 O 1.02445 0.49653 0.46769 0.0
O466 O 0.97758 0.56121 0.43996 0.0
O467 O 1.01219 0.58924 0.45999 0.0
O468 O 0.99581 0.51881 0.46148 0.0
O469 O 0.03661 0.49573 0.53625 0.0
O470 O 1.00185 0.50825 0.54104 0.0
O471 O 0.98947 0.55101 0.50481 0.0
O472 O 1.01862 0.56544 0.54772 0.0
C473 C 0.12609 0.45691 0.54864 0.0
C474 C 0.11377 0.53462 0.52899 0.0
C475 C 0.09095 0.52881 0.4344 0.0
C476 C 0.11775 0.45875 0.45834 0.0
C477 C 0.98836 0.58415 0.444 0.0
C478 C 1.00109 0.49892 0.46135 0.0
C479 C 1.01344 0.49254 0.54678 0.0
C480 C 0.99727 0.56526 0.52923 0.0
O481 O 0.1394 0.47982 0.54556 0.0
O482 O 0.10168 0.45 0.5345 0.0
O483 O 0.08874 0.53272 0.52517 0.0
O484 O 0.12333 0.51953 0.51736 0.0
Co485 Co 0.60498 0.98141 0.56597 0.0
Co486 Co 0.59158 0.98683 0.50578 0.0
Co487 Co 0.5616 0.01332 0.54736 0.0
O488 O 0.57346 0.98521 0.54199 0.0
H489 H 0.55859 0.9703 0.54268 0.0
O490 O 0.55006 0.04124 0.55381 0.0
Co491 Co 0.5168 0.04429 0.53737 0.0
Co492 Co 0.53973 0.04168 0.59532 0.0
H493 H 0.56434 0.05619 0.54947 0.0
O494 O 0.58599 0.95903 0.48606 0.0
O495 O 0.61854 0.9761 0.52468 0.0
O496 O 0.60411 0.01744 0.483 0.0
O497 O 0.58265 0.03525 0.51124 0.0
O498 O 0.53042 0.99959 0.51531 0.0
O499 O 0.48752 0.05072 0.52095 0.0
O500 O 0.52873 0.0764 0.53325 0.0
O501 O 0.50019 1.01023 0.53849 0.0
O502 O 0.54072 0.99176 0.58315 0.0
O503 O 0.53496 0.01286 0.62271 0.0
O504 O 0.5068 0.0454 0.58285 0.0
O505 O 0.541 0.06989 0.61297 0.0
C506 C 0.61568 0.95331 0.58941 0.0
C507 C 0.61643 0.03088 0.57342 0.0
C508 C 0.59824 0.03582 0.48895 0.0
C509 C 0.60676 0.95857 0.50533 0.0
C510 C 0.50405 0.07264 0.52191 0.0
C511 C 0.50608 0.99679 0.5198 0.0
C512 C 0.53366 0.99301 0.61167 0.0
C513 C 0.51639 0.06399 0.60081 0.0
O514 O 0.63213 0.97526 0.58868 0.0
O515 O 0.5917 0.949 0.57499 0.0
O516 O 0.59227 0.02714 0.57917 0.0
O517 O 0.62338 0.0151 0.56072 0.0
H518 H 0.21252 0.21545 0.28491 0.0
H519 H 0.17428 0.18647 0.31117 0.0
H520 H 0.21293 0.20683 0.4063 0.0
H521 H 0.25102 0.23593 0.3804 0.0
H522 H 0.19612 0.15676 0.39531 0.0
H523 H 0.16245 0.22404 0.3826 0.0
H524 H 0.14938 0.25649 0.35093 0.0
H525 H 0.09078 0.20425 0.29286 0.0
H526 H 0.1038 0.17149 0.32386 0.0
H527 H 0.10095 0.09067 0.50233 0.0
H528 H 0.13393 0.12151 0.47156 0.0
H529 H 0.07799 0.11237 0.38642 0.0
H530 H 0.04402 0.08231 0.41824 0.0
H531 H 0.10243 0.15687 0.38832 0.0
H532 H 0.13777 0.09181 0.39049 0.0
H533 H 0.15462 0.05863 0.41028 0.0
H534 H 0.21035 0.10407 0.47929 0.0
H535 H 0.19402 0.13787 0.45907 0.0
C536 C 0.21286 0.21373 0.31142 0.0
C537 C 0.23485 0.22778 0.33065 0.0
C538 C 0.19089 0.19741 0.32632 0.0
C539 C 0.19076 0.1948 0.36058 0.0
C540 C 0.21264 0.20881 0.37978 0.0
C541 C 0.23442 0.2253 0.36496 0.0
C542 C 0.16908 0.17585 0.37667 0.0
C543 C 0.17569 0.15696 0.39427 0.0
C544 C 0.14229 0.17566 0.37381 0.0
C545 C 0.13431 0.19532 0.35534 0.0
C546 C 0.14695 0.21948 0.36288 0.0
C547 C 0.13951 0.23793 0.34509 0.0
C548 C 0.11931 0.23244 0.31984 0.0
C549 C 0.10645 0.20848 0.31239 0.0
C550 C 0.11384 0.18996 0.33009 0.0
C551 C 0.09571 0.095 0.47692 0.0
C552 C 0.07 0.08384 0.46253 0.0
C553 C 0.11471 0.1126 0.45921 0.0
C554 C 0.10886 0.11893 0.42624 0.0
C555 C 0.08312 0.10778 0.41174 0.0
C556 C 0.06375 0.09053 0.42984 0.0
C557 C 0.12951 0.13766 0.40759 0.0
C558 C 0.12279 0.15657 0.38946 0.0
C559 C 0.15629 0.13774 0.40919 0.0
C560 C 0.16448 0.11715 0.42357 0.0
C561 C 0.15335 0.0946 0.4102 0.0
C562 C 0.163 0.07574 0.42135 0.0
C563 C 0.18358 0.07914 0.44623 0.0
C564 C 0.19444 0.10145 0.46005 0.0
C565 C 0.18509 0.1205 0.44862 0.0
H566 H 0.19125 0.06458 0.45474 0.0
H567 H 0.11358 0.24675 0.30609 0.0
H568 H 0.87924 0.23515 0.42506 0.0
H569 H 0.89194 0.2112 0.47171 0.0
H570 H 0.85406 0.14643 0.42023 0.0
H571 H 0.84096 0.17015 0.37391 0.0
H572 H 0.84872 0.13927 0.48821 0.0
H573 H 0.91738 0.1759 0.41008 0.0
H574 H 0.94757 0.21073 0.37983 0.0
H575 H 0.98325 0.24179 0.4707 0.0
H576 H 0.95296 0.20723 0.50147 0.0
H577 H 0.92046 0.05852 0.49196 0.0
H578 H 0.89366 0.08537 0.48797 0.0
H579 H 0.95297 0.13403 0.55079 0.0
H580 H 0.98045 0.10786 0.55364 0.0
H581 H 0.94674 0.15586 0.49526 0.0
H582 H 0.88812 0.10809 0.56996 0.0
H583 H 0.85771 0.07319 0.59962 0.0
H584 H 0.80222 0.06093 0.5148 0.0
H585 H 0.83257 0.09566 0.48477 0.0
C586 C 0.87312 0.21574 0.42408 0.0
C587 C 0.85958 0.20446 0.39574 0.0
C588 C 0.8803 0.20213 0.45071 0.0
C589 C 0.87402 0.17713 0.44922 0.0
C590 C 0.85896 0.16571 0.42184 0.0
C591 C 0.85188 0.17928 0.39523 0.0
C592 C 0.88648 0.16323 0.47327 0.0
C593 C 0.87013 0.1427 0.49001 0.0
C594 C 0.91448 0.1685 0.47643 0.0
C595 C 0.93271 0.18921 0.45802 0.0
C596 C 0.93153 0.19026 0.42357 0.0
C597 C 0.94867 0.20993 0.40634 0.0
C598 C 0.96725 0.22851 0.42333 0.0
C599 C 0.96879 0.22742 0.45759 0.0
C600 C 0.95164 0.20782 0.47493 0.0
C601 C 0.92756 0.07467 0.5055 0.0
C602 C 0.95284 0.08127 0.52256 0.0
C603 C 0.91201 0.08988 0.50358 0.0
C604 C 0.9213 0.11176 0.51906 0.0
C605 C 0.94543 0.11728 0.53856 0.0
C606 C 0.96116 0.10227 0.5401 0.0
C607 C 0.90892 0.13074 0.50915 0.0
C608 C 0.92536 0.15245 0.49483 0.0
C609 C 0.88096 0.12622 0.50796 0.0
C610 C 0.86279 0.10462 0.52524 0.0
C611 C 0.86957 0.09787 0.55769 0.0
C612 C 0.85229 0.07811 0.57455 0.0
C613 C 0.828 0.06482 0.5591 0.0
C614 C 0.82103 0.07127 0.52678 0.0
C615 C 0.83829 0.09107 0.50987 0.0
H616 H 0.81459 0.04953 0.57217 0.0
H617 H 0.98052 0.24371 0.40995 0.0
H618 H 0.84738 0.86608 0.30996 0.0
H619 H 0.87972 0.89406 0.34647 0.0
H620 H 0.87387 0.83587 0.42023 0.0
H621 H 0.84105 0.80815 0.38455 0.0
H622 H 0.87534 0.87391 0.44837 0.0
H623 H 0.92613 0.85646 0.36831 0.0
H624 H 0.93861 0.85411 0.31263 0.0
H625 H 0.95595 0.93058 0.295 0.0
H626 H 0.94322 0.93332 0.35045 0.0
H627 H 1.02399 0.93825 0.50215 0.0
H628 H 0.98674 0.908 0.47465 0.0
H629 H 0.93829 0.95432 0.47292 0.0
H630 H 0.9756 0.98499 0.49985 0.0
H631 H 0.96422 0.92191 0.41017 0.0
H632 H 0.87381 0.91013 0.48588 0.0
H633 H 0.86149 0.90469 0.54326 0.0
H634 H 0.92689 0.87804 0.57274 0.0
H635 H 0.93972 0.88354 0.51565 0.0
C636 C 0.85294 0.85933 0.33403 0.0
C637 C 0.84181 0.83493 0.34434 0.0
C638 C 0.87145 0.87529 0.35481 0.0
C639 C 0.87944 0.86697 0.38592 0.0
C640 C 0.86795 0.8427 0.39639 0.0
C641 C 0.84925 0.82686 0.37587 0.0
C642 C 0.90025 0.88323 0.40747 0.0
C643 C 0.89471 0.88452 0.43992 0.0
C644 C 0.92573 0.89667 0.39668 0.0
C645 C 0.93345 0.89505 0.36338 0.0
C646 C 0.93242 0.87274 0.35246 0.0
C647 C 0.93957 0.87134 0.32097 0.0
C648 C 0.948 0.89217 0.30026 0.0
C649 C 0.94937 0.91445 0.31105 0.0
C650 C 0.94221 0.91594 0.34251 0.0
C651 C 1.0053 0.94189 0.49639 0.0
C652 C 1.00281 0.96412 0.50276 0.0
C653 C 0.98407 0.92458 0.48075 0.0
C654 C 0.9599 0.92901 0.47192 0.0
C655 C 0.95682 0.95061 0.47978 0.0
C656 C 0.97819 0.96813 0.49491 0.0
C657 C 0.9392 0.91252 0.45085 0.0
C658 C 0.94474 0.91141 0.41842 0.0
C659 C 0.91403 0.89877 0.4619 0.0
C660 C 0.90789 0.89752 0.49659 0.0
C661 C 0.88569 0.90333 0.50469 0.0
C662 C 0.87856 0.90014 0.53712 0.0
C663 C 0.89332 0.89092 0.5616 0.0
C664 C 0.91544 0.88513 0.55375 0.0
C665 C 0.92282 0.88852 0.52142 0.0
H666 H 0.88774 0.8884 0.58668 0.0
H667 H 0.95353 0.89105 0.27589 0.0
H668 H 0.21866 0.93699 0.26258 0.0
H669 H 0.2077 0.97092 0.28035 0.0
H670 H 0.24594 0.96221 0.3761 0.0
H671 H 0.25811 0.92933 0.35784 0.0
H672 H 0.17265 0.95825 0.32134 0.0
H673 H 0.25432 1.00539 0.42422 0.0
H674 H 0.30263 0.02704 0.42842 0.0
H675 H 0.30136 0.04188 0.32411 0.0
H676 H 0.25291 0.02062 0.31922 0.0
H677 H 0.11078 0.9547 0.46146 0.0
H678 H 0.14014 0.95236 0.42071 0.0
H679 H 0.17738 0.02955 0.41847 0.0
H680 H 0.14897 0.03162 0.46104 0.0
H681 H 0.2126 0.01441 0.40941 0.0
H682 H 0.12643 0.99753 0.35552 0.0
H683 H 0.07764 0.97832 0.34756 0.0
H684 H 0.08807 0.9091 0.34577 0.0
H685 H 0.13688 0.92781 0.35416 0.0
C686 C 0.22608 0.94327 0.28678 0.0
C687 C 0.23847 0.93016 0.30926 0.0
C688 C 0.2197 0.96261 0.29697 0.0
C689 C 0.22546 0.96883 0.32975 0.0
C690 C 0.24133 0.95796 0.35063 0.0
C691 C 0.248 0.93888 0.34033 0.0
C692 C 0.20933 0.98097 0.34459 0.0
C693 C 0.18144 0.97095 0.34013 0.0
C694 C 0.22061 0.99814 0.36833 0.0
C695 C 0.24982 0.01128 0.37135 0.0
C696 C 0.2642 0.0134 0.40216 0.0
C697 C 0.29168 0.02558 0.40466 0.0
C698 C 0.30507 0.03581 0.37655 0.0
C699 C 0.29099 0.0339 0.34587 0.0
C700 C 0.2635 0.02174 0.34321 0.0
C701 C 0.12527 0.97116 0.4523 0.0
C702 C 0.12718 0.99353 0.46354 0.0
C703 C 0.14193 0.96988 0.42874 0.0
C704 C 0.16015 0.99101 0.41518 0.0
C705 C 0.16305 0.01312 0.4279 0.0
C706 C 0.14684 0.01432 0.45206 0.0
C707 C 0.17621 0.98994 0.38798 0.0
C708 C 0.20384 1.00234 0.38991 0.0
C709 C 0.16469 0.97542 0.36126 0.0
C710 C 0.13534 0.96412 0.35541 0.0
C711 C 0.11831 0.97821 0.35343 0.0
C712 C 0.09065 0.9674 0.34889 0.0
C713 C 0.07977 0.94251 0.34613 0.0
C714 C 0.09653 0.92838 0.34783 0.0
C715 C 0.1242 0.93909 0.35238 0.0
H716 H 0.05835 0.93417 0.34269 0.0
H717 H 0.32635 0.04522 0.37855 0.0
H718 H 0.26088 0.86057 0.6438 0.0
H719 H 0.257 0.89447 0.60707 0.0
H720 H 0.17241 0.85828 0.59048 0.0
H721 H 0.17607 0.82447 0.62787 0.0
H722 H 0.20533 0.89336 0.53384 0.0
H723 H 0.18019 0.88483 0.65002 0.0
H724 H 0.19141 0.87773 0.70892 0.0
H725 H 0.26509 0.93634 0.70312 0.0
H726 H 0.25444 0.94344 0.64397 0.0
H727 H 0.11358 0.95284 0.53564 0.0
H728 H 0.14495 0.93111 0.53293 0.0
H729 H 0.20764 0.9889 0.5783 0.0
H730 H 0.17603 0.01077 0.58144 0.0
H731 H 0.20108 0.95016 0.61407 0.0
H732 H 0.2185 0.9682 0.50414 0.0
H733 H 0.21463 0.97524 0.44434 0.0
H734 H 0.16207 0.90274 0.435 0.0
H735 H 0.16582 0.89509 0.49504 0.0
C736 C 0.24168 0.85939 0.63117 0.0
C737 C 0.21867 0.84016 0.63874 0.0
C738 C 0.23955 0.87868 0.61015 0.0
C739 C 0.21446 0.87871 0.59626 0.0
C740 C 0.19196 0.85832 0.60084 0.0
C741 C 0.19399 0.83919 0.62234 0.0
C742 C 0.21043 0.90162 0.58445 0.0
C743 C 0.20437 0.90595 0.55108 0.0
C744 C 0.21056 0.9184 0.60705 0.0
C745 C 0.2167 0.91446 0.64263 0.0
C746 C 0.19886 0.89606 0.66129 0.0
C747 C 0.2051 0.89205 0.6947 0.0
C748 C 0.22899 0.90653 0.70974 0.0
C749 C 0.24663 0.92509 0.69142 0.0
C750 C 0.24052 0.92911 0.65796 0.0
C751 C 0.13418 0.96125 0.54435 0.0
C752 C 0.14218 0.98322 0.55959 0.0
C753 C 0.15228 0.94893 0.54229 0.0
C754 C 0.17872 0.95835 0.55542 0.0
C755 C 0.18732 0.98129 0.56804 0.0
C756 C 0.16917 0.99364 0.57015 0.0
C757 C 0.19469 0.94189 0.56303 0.0
C758 C 0.20286 0.9384 0.5961 0.0
C759 C 0.19685 0.92622 0.53993 0.0
C760 C 0.19241 0.93111 0.50416 0.0
C761 C 0.20582 0.95383 0.48943 0.0
C762 C 0.20379 0.95788 0.4554 0.0
C763 C 0.1882 0.93944 0.43576 0.0
C764 C 0.17429 0.91697 0.45021 0.0
C765 C 0.17644 0.91273 0.48426 0.0
H766 H 0.18685 0.94258 0.40938 0.0
H767 H 0.23378 0.90341 0.73561 0.0
H768 H 0.20653 0.24218 0.75913 0.0
H769 H 0.17207 0.21327 0.72626 0.0
H770 H 0.22149 0.16743 0.73117 0.0
H771 H 0.2564 0.19671 0.76302 0.0
H772 H 0.20635 0.17587 0.67048 0.0
H773 H 0.16201 0.15171 0.7707 0.0
H774 H 0.14275 0.15751 0.82045 0.0
H775 H 0.08761 0.18598 0.7613 0.0
H776 H 0.10678 0.18065 0.71119 0.0
H777 H 0.11192 0.07242 0.6036 0.0
H778 H 0.14341 0.10138 0.63931 0.0
H779 H 0.09689 0.14958 0.61938 0.0
H780 H 0.06517 0.12069 0.58357 0.0
H781 H 0.10944 0.14103 0.68633 0.0
H782 H 0.15336 0.16378 0.58608 0.0
H783 H 0.17169 0.1562 0.53666 0.0
H784 H 0.22743 0.12907 0.59682 0.0
H785 H 0.20912 0.13609 0.64664 0.0
C786 C 0.20973 0.22564 0.75389 0.0
C787 C 0.23412 0.22168 0.76335 0.0
C788 C 0.19003 0.20913 0.73514 0.0
C789 C 0.19426 0.18822 0.72627 0.0
C790 C 0.21794 0.18355 0.73756 0.0
C791 C 0.23779 0.20021 0.75583 0.0
C792 C 0.17526 0.1724 0.70269 0.0
C793 C 0.18522 0.16795 0.67424 0.0
C794 C 0.14759 0.16278 0.70707 0.0
C795 C 0.13602 0.16599 0.7372 0.0
C796 C 0.14593 0.15939 0.76831 0.0
C797 C 0.135 0.16256 0.79657 0.0
C798 C 0.11402 0.17217 0.79404 0.0
C799 C 0.10388 0.17857 0.76323 0.0
C800 C 0.11476 0.17545 0.73488 0.0
C801 C 0.10852 0.08928 0.60656 0.0
C802 C 0.08606 0.09427 0.59095 0.0
C803 C 0.12652 0.10578 0.62689 0.0
C804 C 0.12234 0.12751 0.63184 0.0
C805 C 0.10028 0.13281 0.6158 0.0
C806 C 0.08233 0.11637 0.59526 0.0
C807 C 0.14069 0.1443 0.65465 0.0
C808 C 0.13059 0.14901 0.68275 0.0
C809 C 0.16826 0.15406 0.65007 0.0
C810 C 0.1797 0.15028 0.62012 0.0
C811 C 0.16941 0.15604 0.58879 0.0
C812 C 0.1798 0.15186 0.56069 0.0
C813 C 0.20067 0.14211 0.5636 0.0
C814 C 0.21125 0.13661 0.59461 0.0
C815 C 0.20088 0.1407 0.62279 0.0
H816 H 0.20867 0.13886 0.54181 0.0
H817 H 0.10558 0.1746 0.81596 0.0
H818 H 0.88386 0.20013 0.70028 0.0
H819 H 0.89548 0.17186 0.67013 0.0
H820 H 0.83736 0.11248 0.7193 0.0
H821 H 0.8261 0.14109 0.75038 0.0
H822 H 0.87911 0.10285 0.72528 0.0
H823 H 0.83504 0.119 0.62563 0.0
H824 H 0.81724 0.13902 0.57795 0.0
H825 H 0.89677 0.18384 0.55816 0.0
H826 H 0.91501 0.16417 0.60586 0.0
H827 H 0.93676 0.04137 0.61476 0.0
H828 H 0.90484 0.05471 0.64117 0.0
H829 H 0.96534 0.12336 0.6563 0.0
H830 H 0.99729 0.11034 0.63062 0.0
H831 H 0.91366 0.12005 0.61484 0.0
H832 H 0.95236 0.09667 0.719 0.0
H833 H 0.96439 0.0672 0.75851 0.0
H834 H 0.8819 0.02347 0.75921 0.0
H835 H 0.86944 0.05256 0.71927 0.0
C836 C 0.87304 0.18109 0.70408 0.0
C837 C 0.85431 0.17279 0.72795 0.0
C838 C 0.8795 0.16484 0.68649 0.0
C839 C 0.86713 0.13989 0.69202 0.0
C840 C 0.84727 0.13161 0.71461 0.0
C841 C 0.84096 0.14793 0.73249 0.0
C842 C 0.87844 0.123 0.6786 0.0
C843 C 0.88545 0.10585 0.70048 0.0
C844 C 0.88707 0.12674 0.64639 0.0
C845 C 0.8763 0.14049 0.61982 0.0
C846 C 0.84867 0.13351 0.61157 0.0
C847 C 0.83854 0.14463 0.58433 0.0
C848 C 0.85585 0.16284 0.56521 0.0
C849 C 0.88336 0.1699 0.5732 0.0
C850 C 0.8936 0.15874 0.6003 0.0
C851 C 0.9434 0.05907 0.62445 0.0
C852 C 0.96943 0.07488 0.62042 0.0
C853 C 0.92523 0.06658 0.63957 0.0
C854 C 0.93301 0.08988 0.65069 0.0
C855 C 0.95923 0.10523 0.64801 0.0
C856 C 0.97737 0.09775 0.63323 0.0
C857 C 0.91318 0.09976 0.66082 0.0
C858 C 0.90536 0.11594 0.63858 0.0
C859 C 0.90252 0.09393 0.69172 0.0
C860 C 0.91003 0.07658 0.71582 0.0
C861 C 0.93683 0.08063 0.72728 0.0
C862 C 0.94372 0.06404 0.74983 0.0
C863 C 0.92394 0.04342 0.76127 0.0
C864 C 0.89721 0.03941 0.75027 0.0
C865 C 0.89023 0.05595 0.7277 0.0
H866 H 0.92931 0.03059 0.77872 0.0
H867 H 0.84796 0.17136 0.54408 0.0
H868 H 0.85333 0.81826 0.69459 0.0
H869 H 0.89111 0.85189 0.67617 0.0
H870 H 0.89447 0.88696 0.76531 0.0
H871 H 0.85717 0.85273 0.78449 0.0
H872 H 0.89734 0.89643 0.66123 0.0
H873 H 0.95808 0.92243 0.78441 0.0
H874 H 0.96567 0.90353 0.83892 0.0
H875 H 0.94685 0.83503 0.79708 0.0
H876 H 0.93948 0.85359 0.74229 0.0
H877 H 0.99875 1.00229 0.6234 0.0
H878 H 0.96448 0.97531 0.65735 0.0
H879 H 1.01105 0.92706 0.67606 0.0
H880 H 0.04596 0.95452 0.64321 0.0
H881 H 0.9832 0.92602 0.72813 0.0
H882 H 0.96657 0.92125 0.61139 0.0
H883 H 0.96307 0.93956 0.55563 0.0
H884 H 0.89685 0.95982 0.58016 0.0
H885 H 0.90047 0.94217 0.63655 0.0
C886 C 0.86216 0.83309 0.71034 0.0
C887 C 0.85237 0.83285 0.74103 0.0
C888 C 0.88372 0.85236 0.69973 0.0
C889 C 0.89579 0.87192 0.7194 0.0
C890 C 0.88583 0.87187 0.74995 0.0
C891 C 0.86449 0.85235 0.76086 0.0
C892 C 0.9187 0.89226 0.70758 0.0
C893 C 0.91603 0.90292 0.676 0.0
C894 C 0.94325 0.90067 0.72661 0.0
C895 C 0.94795 0.88936 0.75935 0.0
C896 C 0.95565 0.90335 0.78685 0.0
C897 C 0.9599 0.8927 0.81779 0.0
C898 C 0.95665 0.86808 0.82148 0.0
C899 C 0.94926 0.85408 0.79421 0.0
C900 C 0.94501 0.86465 0.76322 0.0
C901 C 1.0019 0.98616 0.63531 0.0
C902 C 1.02471 0.98019 0.63021 0.0
C903 C 0.98239 0.97084 0.65478 0.0
C904 C 0.98498 0.94895 0.66858 0.0
C905 C 1.00865 0.94384 0.66555 0.0
C906 C 0.02848 0.95945 0.64662 0.0
C907 C 0.96171 0.93 0.682 0.0
C908 C 0.96434 0.91964 0.71369 0.0
C909 C 0.93734 0.92134 0.66274 0.0
C910 C 0.93401 0.93065 0.62832 0.0
C911 C 0.95138 0.92977 0.60498 0.0
C912 C 0.9495 0.94019 0.57331 0.0
C913 C 0.92991 0.95109 0.56439 0.0
C914 C 0.91211 0.95149 0.58715 0.0
C915 C 0.91409 0.94131 0.61901 0.0
H916 H 0.92836 0.959 0.53978 0.0
H917 H 0.95992 0.85986 0.84545 0.0
H918 H 0.36035 0.23301 0.28704 0.0
H919 H 0.38229 0.20813 0.26304 0.0
H920 H 0.33189 0.20632 0.17434 0.0
H921 H 0.31 0.23118 0.19832 0.0
H922 H 0.33774 0.16335 0.18099 0.0
H923 H 0.40644 0.24111 0.18678 0.0
H924 H 0.43613 0.27637 0.21524 0.0
H925 H 0.46923 0.23021 0.27966 0.0
H926 H 0.43956 0.19465 0.25174 0.0
H927 H 0.40831 0.10361 0.09032 0.0
H928 H 0.38512 0.12774 0.1128 0.0
H929 H 0.45029 0.15161 0.18595 0.0
H930 H 0.4742 0.12917 0.16133 0.0
H931 H 0.43604 0.18424 0.18728 0.0
H932 H 0.36707 0.10639 0.18817 0.0
H933 H 0.33603 0.0694 0.16474 0.0
H934 H 0.30224 0.11212 0.09501 0.0
H935 H 0.33311 0.14933 0.11803 0.0
C936 C 0.35372 0.22748 0.26236 0.0
C937 C 0.33278 0.23488 0.24531 0.0
C938 C 0.36672 0.21303 0.24814 0.0
C939 C 0.35977 0.20474 0.21577 0.0
C940 C 0.33854 0.21182 0.19903 0.0
C941 C 0.32575 0.22646 0.21309 0.0
C942 C 0.37413 0.18902 0.19959 0.0
C943 C 0.35933 0.16829 0.18236 0.0
C944 C 0.40249 0.19387 0.20101 0.0
C945 C 0.42065 0.21523 0.21734 0.0
C946 C 0.42 0.23849 0.20708 0.0
C947 C 0.43682 0.25852 0.22311 0.0
C948 C 0.45451 0.25552 0.24928 0.0
C949 C 0.45551 0.2325 0.25939 0.0
C950 C 0.43872 0.21241 0.24345 0.0
C951 C 0.41776 0.11372 0.11146 0.0
C952 C 0.44362 0.11345 0.12368 0.0
C953 C 0.40401 0.12785 0.12511 0.0
C954 C 0.41452 0.14217 0.1529 0.0
C955 C 0.44043 0.14159 0.16493 0.0
C956 C 0.45445 0.12814 0.15066 0.0
C957 C 0.39973 0.15786 0.16894 0.0
C958 C 0.41446 0.17885 0.18601 0.0
C959 C 0.37122 0.15283 0.16818 0.0
C960 C 0.3526 0.13058 0.1545 0.0
C961 C 0.35306 0.10785 0.16778 0.0
C962 C 0.33549 0.08687 0.1546 0.0
C963 C 0.31724 0.08841 0.12833 0.0
C964 C 0.31642 0.11094 0.1153 0.0
C965 C 0.33392 0.13198 0.12842 0.0
H966 H 0.30369 0.07214 0.11813 0.0
H967 H 0.46749 0.27104 0.26169 0.0
H968 H 0.85491 0.3522 0.24903 0.0
H969 H 0.88156 0.38909 0.22025 0.0
H970 H 0.81311 0.38886 0.15464 0.0
H971 H 0.78612 0.35189 0.18346 0.0
H972 H 0.85861 0.39378 0.12305 0.0
H973 H 0.8347 0.43069 0.20904 0.0
H974 H 0.82916 0.43637 0.26642 0.0
H975 H 0.91368 0.45371 0.28885 0.0
H976 H 0.91972 0.44781 0.23171 0.0
H977 H 0.94296 0.50044 0.04266 0.0
H978 H 0.90431 0.47323 0.07021 0.0
H979 H 0.95562 0.46808 0.1566 0.0
H980 H 0.99379 0.49555 0.12991 0.0
H981 H 0.91153 0.46924 0.1753 0.0
H982 H 0.93561 0.42655 0.0948 0.0
H983 H 0.94162 0.41313 0.04168 0.0
H984 H 0.85879 0.40126 0.0124 0.0
H985 H 0.85249 0.41546 0.06468 0.0
C986 C 0.84545 0.36 0.22854 0.0
C987 C 0.81844 0.349 0.21838 0.0
C988 C 0.86066 0.38123 0.21233 0.0
C989 C 0.84923 0.39186 0.18558 0.0
C990 C 0.82224 0.38102 0.1754 0.0
C991 C 0.80689 0.35988 0.19184 0.0
C992 C 0.86617 0.41318 0.16677 0.0
C993 C 0.86971 0.4106 0.1341 0.0
C994 C 0.88113 0.43472 0.18172 0.0
C995 C 0.87763 0.43865 0.21606 0.0
C996 C 0.8521 0.43557 0.22624 0.0
C997 C 0.84888 0.43885 0.25873 0.0
C998 C 0.87105 0.44535 0.28128 0.0
C999 C 0.89652 0.44868 0.27136 0.0
C1000 C 0.89986 0.4454 0.23889 0.0
C1001 C 0.94588 0.49385 0.06774 0.0
C1002 C 0.97157 0.50009 0.08395 0.0
C1003 C 0.9238 0.47812 0.08337 0.0
C1004 C 0.92705 0.46824 0.11537 0.0
C1005 C 0.95247 0.47538 0.13196 0.0
C1006 C 0.9744 0.49109 0.11652 0.0
C1007 C 0.90462 0.44968 0.1315 0.0
C1008 C 0.90001 0.45274 0.1638 0.0
C1009 C 0.88901 0.42829 0.11639 0.0
C1010 C 0.89368 0.42246 0.08351 0.0
C1011 C 0.91884 0.42169 0.07669 0.0
C1012 C 0.92228 0.41384 0.04674 0.0
C1013 C 0.90059 0.40631 0.02369 0.0
C1014 C 0.8756 0.40717 0.03017 0.0
C1015 C 0.87212 0.41525 0.05987 0.0
H1016 H 0.90304 0.39957 1.00093 0.0
H1017 H 0.86848 0.44781 0.30644 0.0
H1018 H 0.71518 0.82551 0.28786 0.0
H1019 H 0.68735 0.84991 0.26462 0.0
H1020 H 0.72976 0.86591 0.17697 0.0
H1021 H 0.75714 0.84099 0.2 0.0
H1022 H 0.68551 0.86854 0.15298 0.0
H1023 H 0.64756 0.88515 0.27235 0.0
H1024 H 0.66211 0.88921 0.33108 0.0
H1025 H 0.74419 0.91254 0.3078 0.0
H1026 H 0.73012 0.90883 0.24893 0.0
H1027 H 0.58463 0.92962 0.09944 0.0
H1028 H 0.61031 0.90273 0.12145 0.0
H1029 H 0.65612 0.95599 0.18799 0.0
H1030 H 0.6305 0.98241 0.16644 0.0
H1031 H 0.65736 0.91951 0.22183 0.0
H1032 H 0.6771 0.93276 0.10912 0.0
H1033 H 0.6681 0.93254 0.04911 0.0
H1034 H 0.63009 0.85583 0.05676 0.0
H1035 H 0.63849 0.85565 0.11694 0.0
C1036 C 0.71902 0.83417 0.26362 0.0
C1037 C 0.73961 0.83046 0.24681 0.0
C1038 C 0.70272 0.84884 0.24992 0.0
C1039 C 0.70554 0.86143 0.21815 0.0
C1040 C 0.72591 0.85735 0.20124 0.0
C1041 C 0.74218 0.84269 0.21493 0.0
C1042 C 0.68785 0.87822 0.20281 0.0
C1043 C 0.6794 0.87935 0.16869 0.0
C1044 C 0.67914 0.8938 0.22113 0.0
C1045 C 0.68777 0.89646 0.25632 0.0
C1046 C 0.66871 0.89123 0.27978 0.0
C1047 C 0.67687 0.89344 0.31308 0.0
C1048 C 0.70405 0.90103 0.32317 0.0
C1049 C 0.72314 0.90657 0.29997 0.0
C1050 C 0.71508 0.90441 0.26664 0.0
C1051 C 0.60013 0.93593 0.11873 0.0
C1052 C 0.60448 0.95926 0.1303 0.0
C1053 C 0.61553 0.92016 0.13162 0.0
C1054 C 0.6367 0.92625 0.15722 0.0
C1055 C 0.64064 0.94945 0.16875 0.0
C1056 C 0.62549 0.96514 0.15584 0.0
C1057 C 0.65427 0.90928 0.17215 0.0
C1058 C 0.66301 0.90835 0.20618 0.0
C1059 C 0.66352 0.89416 0.15363 0.0
C1060 C 0.65818 0.89423 0.11757 0.0
C1061 C 0.66665 0.91587 0.09802 0.0
C1062 C 0.66168 0.91581 0.06396 0.0
C1063 C 0.64852 0.89417 0.04911 0.0
C1064 C 0.64026 0.87257 0.06831 0.0
C1065 C 0.6451 0.87254 0.1024 0.0
H1066 H 0.64477 0.8941 0.02275 0.0
H1067 H 0.71033 0.90266 0.34897 0.0
H1068 H 0.24917 0.73153 0.20086 0.0
H1069 H 0.21784 0.70329 0.1637 0.0
H1070 H 0.15215 0.71901 0.20034 0.0
H1071 H 0.18349 0.74827 0.23567 0.0
H1072 H 0.18125 0.6644 0.16704 0.0
H1073 H 0.10092 0.71395 0.14719 0.0
H1074 H 0.09969 0.75568 0.14159 0.0
H1075 H 0.18047 0.78121 0.11318 0.0
H1076 H 0.18205 0.73962 0.11814 0.0
H1077 H 0.06434 0.58122 0.09614 0.0
H1078 H 0.09817 0.60944 0.13064 0.0
H1079 H 0.1007 0.66688 0.05652 0.0
H1080 H 0.06661 0.63903 0.02283 0.0
H1081 H 0.10688 0.68608 0.10498 0.0
H1082 H 0.14986 0.63243 0.07636 0.0
H1083 H 0.1582 0.59426 0.07071 0.0
H1084 H 0.16349 0.58198 0.17543 0.0
H1085 H 0.15498 0.62007 0.18171 0.0
C1086 C 0.22804 0.72909 0.20065 0.0
C1087 C 0.21881 0.7424 0.22077 0.0
C1088 C 0.21009 0.71283 0.17953 0.0
C1089 C 0.18249 0.70923 0.17849 0.0
C1090 C 0.17331 0.72195 0.19959 0.0
C1091 C 0.19126 0.73866 0.21997 0.0
C1092 C 0.16321 0.69227 0.15556 0.0
C1093 C 0.16507 0.66917 0.15327 0.0
C1094 C 0.14258 0.69861 0.13648 0.0
C1095 C 0.14169 0.72368 0.13341 0.0
C1096 C 0.11839 0.72846 0.13965 0.0
C1097 C 0.11764 0.75209 0.1366 0.0
C1098 C 0.14002 0.77109 0.12715 0.0
C1099 C 0.16318 0.76649 0.12063 0.0
C1100 C 0.16403 0.74289 0.1236 0.0
C1101 C 0.07252 0.59983 0.08708 0.0
C1102 C 0.06301 0.60783 0.05658 0.0
C1103 C 0.09207 0.61601 0.10676 0.0
C1104 C 0.10326 0.64039 0.09589 0.0
C1105 C 0.09335 0.64824 0.06548 0.0
C1106 C 0.07361 0.63223 0.0461 0.0
C1107 C 0.12466 0.65791 0.11623 0.0
C1108 C 0.12314 0.68117 0.11828 0.0
C1109 C 0.14664 0.65219 0.13317 0.0
C1110 C 0.15169 0.62917 0.12948 0.0
C1111 C 0.1528 0.62165 0.0982 0.0
C1112 C 0.15752 0.59997 0.09488 0.0
C1113 C 0.16135 0.58568 0.1227 0.0
C1114 C 0.16051 0.59307 0.15389 0.0
C1115 C 0.15576 0.61472 0.15734 0.0
H1116 H 0.16499 0.5689 0.12009 0.0
H1117 H 0.1394 0.78937 0.12482 0.0
H1118 H 0.31966 0.84327 0.83428 0.0
H1119 H 0.34706 0.87523 0.86989 0.0
H1120 H 0.39718 0.83204 0.90302 0.0
H1121 H 0.37032 0.8005 0.86701 0.0
H1122 H 0.383 0.85391 0.95558 0.0
H1123 H 0.42012 0.87745 0.8506 0.0
H1124 H 0.41802 0.88749 0.79102 0.0
H1125 H 0.39028 0.94634 0.80617 0.0
H1126 H 0.39177 0.93638 0.86585 0.0
H1127 H 0.49236 0.93771 0.03896 0.0
H1128 H 0.46224 0.90782 0.00377 0.0
H1129 H 0.43215 0.96218 0.9538 0.0
H1130 H 0.46349 0.99272 0.98842 0.0
H1131 H 0.43357 0.93514 0.9095 0.0
H1132 H 0.39294 0.91169 0.01199 0.0
H1133 H 0.38912 0.90009 0.07105 0.0
H1134 H 0.41971 0.84217 0.06121 0.0
H1135 H 0.42302 0.85295 1.00191 0.0
C1136 C 0.33643 0.84048 0.84924 0.0
C1137 C 0.34263 0.81906 0.84737 0.0
C1138 C 0.35228 0.85893 0.86961 0.0
C1139 C 0.37458 0.85643 0.88945 0.0
C1140 C 0.38031 0.83477 0.88822 0.0
C1141 C 0.36488 0.81663 0.86732 0.0
C1142 C 0.39203 0.87625 0.91115 0.0
C1143 C 0.39425 0.87157 0.94536 0.0
C1144 C 0.40633 0.89978 0.89848 0.0
C1145 C 0.40578 0.90601 0.86268 0.0
C1146 C 0.41336 0.89241 0.84121 0.0
C1147 C 0.41231 0.8981 0.80742 0.0
C1148 C 0.40396 0.9175 0.7948 0.0
C1149 C 0.39671 0.93129 0.81597 0.0
C1150 C 0.39766 0.92564 0.84979 0.0
C1151 C 0.47932 0.94353 0.02069 0.0
C1152 C 0.48057 0.96801 0.01723 0.0
C1153 C 0.46162 0.92608 1.00048 0.0
C1154 C 0.44387 0.93204 0.97607 0.0
C1155 C 0.44522 0.95657 0.97227 0.0
C1156 C 0.46323 0.9742 0.99236 0.0
C1157 C 0.42476 0.91287 0.95428 0.0
C1158 C 0.42225 0.91759 0.91994 0.0
C1159 C 0.40977 0.88943 0.96687 0.0
C1160 C 0.40848 0.88328 1.0026 0.0
C1161 C 0.39903 0.89658 0.02247 0.0
C1162 C 0.3969 0.89013 0.05596 0.0
C1163 C 0.40448 0.87063 0.06994 0.0
C1164 C 0.41394 0.85734 0.05038 0.0
C1165 C 0.41577 0.86349 0.01679 0.0
H1166 H 0.40287 0.86573 0.09589 0.0
H1167 H 0.40315 0.92188 0.76864 0.0
H1168 H 0.23805 0.37542 0.93663 0.0
H1169 H 0.21547 0.40273 0.95138 0.0
H1170 H 0.14801 0.36941 0.885 0.0
H1171 H 0.17088 0.34235 0.86943 0.0
H1172 H 0.16224 0.41812 0.87815 0.0
H1173 H 0.14246 0.35834 0.96904 0.0
H1174 H 0.15419 0.33234 0.01436 0.0
H1175 H 0.20797 0.39482 0.05965 0.0
H1176 H 0.19618 0.42114 0.01493 0.0
H1177 H 0.06337 0.4578 0.93496 0.0
H1178 H 0.09216 0.43699 0.91754 0.0
H1179 H 0.15462 0.47303 0.98839 0.0
H1180 H 0.1258 0.49446 0.00546 0.0
H1181 H 0.1465 0.42566 0.99332 0.0
H1182 H 0.16073 0.48561 0.90501 0.0
H1183 H 0.14851 0.51106 0.85942 0.0
H1184 H 0.10488 0.44802 0.8078 0.0
H1185 H 0.11651 0.42215 0.85329 0.0
C1186 C 0.21846 0.37394 0.92502 0.0
C1187 C 0.20633 0.35671 0.90172 0.0
C1188 C 0.20544 0.38943 0.93375 0.0
C1189 C 0.17991 0.38803 0.91954 0.0
C1190 C 0.16768 0.37081 0.89635 0.0
C1191 C 0.18068 0.35523 0.88765 0.0
C1192 C 0.16633 0.40492 0.9283 0.0
C1193 C 0.15842 0.41953 0.90326 0.0
C1194 C 0.16211 0.40738 0.96117 0.0
C1195 C 0.16867 0.39165 0.98852 0.0
C1196 C 0.15678 0.36649 0.9887 0.0
C1197 C 0.16334 0.35171 0.01435 0.0
C1198 C 0.18182 0.3619 0.03987 0.0
C1199 C 0.19355 0.38692 0.03998 0.0
C1200 C 0.18684 0.40179 0.01458 0.0
C1201 C 0.08338 0.46157 0.94655 0.0
C1202 C 0.09223 0.4775 0.97188 0.0
C1203 C 0.09996 0.44983 0.93631 0.0
C1204 C 0.12565 0.45344 0.95153 0.0
C1205 C 0.13485 0.4699 0.97631 0.0
C1206 C 0.1184 0.48211 0.98608 0.0
C1207 C 0.14178 0.43858 0.94306 0.0
C1208 C 0.15027 0.42436 0.96816 0.0
C1209 C 0.14635 0.43641 0.91018 0.0
C1210 C 0.13935 0.45192 0.88271 0.0
C1211 C 0.14836 0.47715 0.88405 0.0
C1212 C 0.14157 0.49166 0.8582 0.0
C1213 C 0.12589 0.48116 0.83076 0.0
C1214 C 0.11702 0.45613 0.82908 0.0
C1215 C 0.12373 0.44153 0.85488 0.0
H1216 H 0.12065 0.49243 0.81078 0.0
H1217 H 0.18705 0.3504 0.05953 0.0
H1218 H 0.74904 0.20431 0.84691 0.0
H1219 H 0.71572 0.17503 0.87954 0.0
H1220 H 0.66548 0.22013 0.86488 0.0
H1221 H 0.69933 0.25001 0.83264 0.0
H1222 H 0.66219 0.20205 0.92485 0.0
H1223 H 0.65345 0.16619 0.82313 0.0
H1224 H 0.6681 0.15149 0.77621 0.0
H1225 H 0.69439 0.10103 0.8409 0.0
H1226 H 0.68021 0.11567 0.88829 0.0
H1227 H 0.53961 0.11331 0.96203 0.0
H1228 H 0.57619 0.14084 0.93269 0.0
H1229 H 0.62794 0.10092 0.97339 0.0
H1230 H 0.59103 0.07305 0.00403 0.0
H1231 H 0.6317 0.11537 0.90228 0.0
H1232 H 0.63656 0.15182 0.00422 0.0
H1233 H 0.61882 0.167 0.048 0.0
H1234 H 0.59596 0.2168 0.97854 0.0
H1235 H 0.61315 0.2017 0.93408 0.0
C1236 C 0.73095 0.20816 0.85051 0.0
C1237 C 0.72707 0.22973 0.83673 0.0
C1238 C 0.71165 0.19115 0.86918 0.0
C1239 C 0.68748 0.19479 0.87447 0.0
C1240 C 0.68374 0.21655 0.86129 0.0
C1241 C 0.70319 0.23373 0.84269 0.0
C1242 C 0.6664 0.17604 0.89382 0.0
C1243 C 0.65542 0.18317 0.91951 0.0
C1244 C 0.65749 0.15109 0.88772 0.0
C1245 C 0.66604 0.14221 0.85931 0.0
C1246 C 0.66255 0.15209 0.82739 0.0
C1247 C 0.67074 0.14375 0.8007 0.0
C1248 C 0.68224 0.12539 0.80558 0.0
C1249 C 0.68552 0.11528 0.83716 0.0
C1250 C 0.67739 0.12358 0.86395 0.0
C1251 C 0.55861 0.11 0.96489 0.0
C1252 C 0.56197 0.09056 0.98572 0.0
C1253 C 0.57972 0.12604 0.94796 0.0
C1254 C 0.60511 0.12332 0.95079 0.0
C1255 C 0.60859 0.10357 0.97068 0.0
C1256 C 0.58738 0.08753 0.98819 0.0
C1257 C 0.62766 0.14147 0.93315 0.0
C1258 C 0.63875 0.13423 0.9077 0.0
C1259 C 0.63631 0.16639 0.93903 0.0
C1260 C 0.62593 0.17545 0.96574 0.0
C1261 C 0.62753 0.16585 0.99819 0.0
C1262 C 0.61762 0.17447 0.02316 0.0
C1263 C 0.60624 0.19279 0.0161 0.0
C1264 C 0.60477 0.20258 0.98399 0.0
C1265 C 0.6146 0.19401 0.95889 0.0
H1266 H 0.59861 0.19942 0.03552 0.0
H1267 H 0.68856 0.11895 0.78489 0.0
H1268 H 0.87223 0.75916 0.79626 0.0
H1269 H 0.89779 0.73475 0.82516 0.0
H1270 H 0.83213 0.69998 0.88603 0.0
H1271 H 0.80749 0.72569 0.85871 0.0
H1272 H 0.87277 0.7033 0.92149 0.0
H1273 H 0.84664 0.67549 0.8137 0.0
H1274 H 0.84292 0.67735 0.7532 0.0
H1275 H 0.92828 0.69894 0.75214 0.0
H1276 H 0.93256 0.69763 0.81261 0.0
H1277 H 0.92367 0.59303 0.90593 0.0
H1278 H 0.89859 0.62006 0.88624 0.0
H1279 H 0.94346 0.67086 0.95709 0.0
H1280 H 0.96839 0.64332 0.97744 0.0
H1281 H 0.9145 0.66041 0.8558 0.0
H1282 H 0.90953 0.70707 0.97373 0.0
H1283 H 0.89553 0.69748 0.03039 0.0
H1284 H 0.85226 0.62458 0.00709 0.0
H1285 H 0.86632 0.63363 0.95058 0.0
C1286 C 0.86351 0.74654 0.81619 0.0
C1287 C 0.83793 0.74429 0.82532 0.0
C1288 C 0.878 0.73239 0.83249 0.0
C1289 C 0.86674 0.71494 0.85733 0.0
C1290 C 0.84142 0.71324 0.86702 0.0
C1291 C 0.82729 0.72794 0.85142 0.0
C1292 C 0.88091 0.69811 0.87278 0.0
C1293 C 0.88204 0.69406 0.90704 0.0
C1294 C 0.89243 0.68538 0.8541 0.0
C1295 C 0.88993 0.6867 0.81769 0.0
C1296 C 0.86463 0.68087 0.80056 0.0
C1297 C 0.86242 0.68179 0.76627 0.0
C1298 C 0.88535 0.68825 0.74886 0.0
C1299 C 0.91054 0.69395 0.76567 0.0
C1300 C 0.91287 0.69313 0.79994 0.0
C1301 C 0.9281 0.60983 0.91764 0.0
C1302 C 0.9484 0.61619 0.94301 0.0
C1303 C 0.91371 0.62536 0.90625 0.0
C1304 C 0.91919 0.64773 0.91982 0.0
C1305 C 0.93864 0.65369 0.94622 0.0
C1306 C 0.95302 0.63802 0.95777 0.0
C1307 C 0.90594 0.6653 0.90453 0.0
C1308 C 0.9054 0.66978 0.87027 0.0
C1309 C 0.89364 0.67739 0.923 0.0
C1310 C 0.88924 0.67096 0.95811 0.0
C1311 C 0.89751 0.68887 0.98096 0.0
C1312 C 0.88948 0.68356 0.01297 0.0
C1313 C 0.87298 0.66046 0.02222 0.0
C1314 C 0.86516 0.64243 0.99988 0.0
C1315 C 0.87336 0.64757 0.96797 0.0
H1316 H 0.86592 0.65661 0.04653 0.0
H1317 H 0.88361 0.68872 0.72236 0.0
H1318 H 0.22127 0.36434 0.13881 0.0
H1319 H 0.19892 0.3938 0.1201 0.0
H1320 H 0.12285 0.33694 0.116 0.0
H1321 H 0.14529 0.30727 0.13353 0.0
H1322 H 0.12347 0.36626 0.06679 0.0
H1323 H 0.14375 0.37472 0.18104 0.0
H1324 H 0.17067 0.38069 0.23384 0.0
H1325 H 0.21955 0.45015 0.19689 0.0
H1326 H 0.19305 0.44451 0.14375 0.0
H1327 H 0.04425 0.44432 0.06931 0.0
H1328 H 0.06534 0.41298 0.08104 0.0
H1329 H 0.14311 0.46744 0.07929 0.0
H1330 H 0.12194 0.49885 0.07036 0.0
H1331 H 0.14102 0.43839 0.13029 0.0
H1332 H 0.10481 0.42534 0.01546 0.0
H1333 H 0.06777 0.41332 0.97264 0.0
H1334 H 0.03644 0.34426 0.02313 0.0
H1335 H 0.07248 0.35582 0.06677 0.0
C1336 C 0.19984 0.35809 0.13328 0.0
C1337 C 0.18493 0.33359 0.13764 0.0
C1338 C 0.18707 0.37495 0.12306 0.0
C1339 C 0.15921 0.36758 0.1172 0.0
C1340 C 0.14439 0.343 0.12046 0.0
C1341 C 0.15716 0.32611 0.13063 0.0
C1342 C 0.14545 0.38552 0.10819 0.0
C1343 C 0.12706 0.38197 0.08079 0.0
C1344 C 0.15013 0.40584 0.12667 0.0
C1345 C 0.1666 0.40907 0.15829 0.0
C1346 C 0.16042 0.39116 0.18406 0.0
C1347 C 0.17554 0.39451 0.21408 0.0
C1348 C 0.19685 0.41575 0.21869 0.0
C1349 C 0.20307 0.43369 0.19327 0.0
C1350 C 0.18798 0.43044 0.16321 0.0
C1351 C 0.06585 0.44947 0.07149 0.0
C1352 C 0.08162 0.47383 0.06922 0.0
C1353 C 0.07786 0.43159 0.07778 0.0
C1354 C 0.1058 0.43782 0.0803 0.0
C1355 C 0.1215 0.46223 0.07735 0.0
C1356 C 0.10948 0.48013 0.07239 0.0
C1357 C 0.11899 0.41933 0.08862 0.0
C1358 C 0.13747 0.42282 0.11602 0.0
C1359 C 0.11301 0.39817 0.07128 0.0
C1360 C 0.0915 0.39153 0.04449 0.0
C1361 C 0.09006 0.40762 0.0175 0.0
C1362 C 0.06922 0.40091 0.99309 0.0
C1363 C 0.04998 0.37812 0.99506 0.0
C1364 C 0.05139 0.36192 0.02156 0.0
C1365 C 0.07198 0.36855 0.04617 0.0
H1366 H 0.03394 0.37303 0.97608 0.0
H1367 H 0.20849 0.41834 0.24198 0.0
H1368 H 0.28686 0.69693 0.85711 0.0
H1369 H 0.25441 0.66574 0.88957 0.0
H1370 H 0.21395 0.71667 0.90301 0.0
H1371 H 0.24611 0.74756 0.87104 0.0
H1372 H 0.21038 0.68494 0.95489 0.0
H1373 H 0.20003 0.68455 0.8341 0.0
H1374 H 0.21876 0.6813 0.78254 0.0
H1375 H 0.22159 0.61088 0.816 0.0
H1376 H 0.20336 0.61394 0.86802 0.0
H1377 H 0.06425 0.61723 0.89932 0.0
H1378 H 0.11057 0.64024 0.88779 0.0
H1379 H 0.13896 0.60849 0.97636 0.0
H1380 H 0.09314 0.58537 0.98784 0.0
H1381 H 0.15359 0.62457 0.87882 0.0
H1382 H 0.19521 0.65664 0.00918 0.0
H1383 H 0.18453 0.67331 0.05716 0.0
H1384 H 0.11905 0.68853 1.00067 0.0
H1385 H 0.12968 0.67245 0.95216 0.0
C1386 C 0.27171 0.70163 0.86832 0.0
C1387 C 0.26855 0.72439 0.86138 0.0
C1388 C 0.25314 0.68382 0.8866 0.0
C1389 C 0.23151 0.68882 0.89799 0.0
C1390 C 0.23041 0.71241 0.89429 0.0
C1391 C 0.24873 0.73003 0.87597 0.0
C1392 C 0.2076 0.66942 0.90879 0.0
C1393 C 0.19819 0.6712 0.9388 0.0
C1394 C 0.19158 0.65208 0.88716 0.0
C1395 C 0.20061 0.64956 0.85499 0.0
C1396 C 0.20466 0.66838 0.83041 0.0
C1397 C 0.21535 0.66665 0.80124 0.0
C1398 C 0.22165 0.64601 0.79619 0.0
C1399 C 0.21693 0.62694 0.8201 0.0
C1400 C 0.20642 0.62865 0.84942 0.0
C1401 C 0.08038 0.615 0.9161 0.0
C1402 C 0.07499 0.59928 0.94424 0.0
C1403 C 0.10679 0.62812 0.90954 0.0
C1404 C 0.12812 0.6261 0.93135 0.0
C1405 C 0.12279 0.61037 0.95933 0.0
C1406 C 0.09654 0.59701 0.96563 0.0
C1407 C 0.15595 0.6405 0.92488 0.0
C1408 C 0.16605 0.6376 0.89565 0.0
C1409 C 0.17246 0.65723 0.94704 0.0
C1410 C 0.16298 0.66294 0.97717 0.0
C1411 C 0.17823 0.66315 0.00716 0.0
C1412 C 0.17239 0.67274 0.03434 0.0
C1413 C 0.15123 0.68205 0.0319 0.0
C1414 C 0.13545 0.68128 1.0025 0.0
C1415 C 0.14129 0.67182 0.97517 0.0
H1416 H 0.14717 0.68998 0.05279 0.0
H1417 H 0.22983 0.64463 0.77357 0.0
H1418 H 0.37217 0.24746 0.8227 0.0
H1419 H 0.3958 0.22341 0.85618 0.0
H1420 H 0.32823 0.19369 0.91506 0.0
H1421 H 0.30508 0.21892 0.88245 0.0
H1422 H 0.36677 0.19582 0.95504 0.0
H1423 H 0.3504 0.16248 0.85073 0.0
H1424 H 0.35048 0.16222 0.79069 0.0
H1425 H 0.4362 0.18922 0.79736 0.0
H1426 H 0.43664 0.18997 0.85744 0.0
H1427 H 0.40801 0.09013 0.01325 0.0
H1428 H 0.38542 0.11714 0.98382 0.0
H1429 H 0.46165 0.16795 0.96097 0.0
H1430 H 0.48438 0.14139 0.99181 0.0
H1431 H 0.41899 0.15447 0.9034 0.0
H1432 H 0.43239 0.18448 0.01129 0.0
H1433 H 0.42866 0.18274 0.07095 0.0
H1434 H 0.34313 0.15706 0.05634 0.0
H1435 H 0.34633 0.15815 0.99666 0.0
C1436 C 0.36213 0.23582 0.84271 0.0
C1437 C 0.33629 0.2354 0.84923 0.0
C1438 C 0.37577 0.22162 0.86199 0.0
C1439 C 0.36406 0.20562 0.88837 0.0
C1440 C 0.3383 0.20545 0.89516 0.0
C1441 C 0.32481 0.22001 0.87618 0.0
C1442 C 0.37859 0.18953 0.90876 0.0
C1443 C 0.37779 0.18662 0.94332 0.0
C1444 C 0.39365 0.17718 0.89465 0.0
C1445 C 0.39354 0.17652 0.85858 0.0
C1446 C 0.36927 0.16849 0.83938 0.0
C1447 C 0.36922 0.16826 0.80534 0.0
C1448 C 0.39333 0.17578 0.79021 0.0
C1449 C 0.41754 0.18345 0.80911 0.0
C1450 C 0.4177 0.18377 0.84317 0.0
C1451 C 0.42011 0.10731 1.00266 0.0
C1452 C 0.44828 0.11351 0.00582 0.0
C1453 C 0.40703 0.12283 0.98548 0.0
C1454 C 0.42146 0.14495 0.96959 0.0
C1455 C 0.44965 0.1512 0.97272 0.0
C1456 C 0.46279 0.13599 0.99082 0.0
C1457 C 0.40715 0.16102 0.94935 0.0
C1458 C 0.40793 0.16377 0.91489 0.0
C1459 C 0.39152 0.17267 0.96345 0.0
C1460 C 0.38961 0.17118 0.99946 0.0
C1461 C 0.41279 0.17811 0.0208 0.0
C1462 C 0.41077 0.17734 0.05464 0.0
C1463 C 0.38568 0.16988 0.06741 0.0
C1464 C 0.36256 0.16289 0.04642 0.0
C1465 C 0.36446 0.16357 0.01259 0.0
H1466 H 0.38416 0.1696 0.09355 0.0
H1467 H 0.39325 0.17561 0.76384 0.0
H1468 H 0.84266 0.31271 0.87043 0.0
H1469 H 0.86836 0.34904 0.89857 0.0
H1470 H 0.81359 0.38529 0.85555 0.0
H1471 H 0.78792 0.34925 0.82691 0.0
H1472 H 0.88055 0.40272 0.8468 0.0
H1473 H 0.81897 0.4118 0.94306 0.0
H1474 H 0.78486 0.38859 0.98094 0.0
H1475 H 0.81938 0.33154 0.99135 0.0
H1476 H 0.85403 0.3547 0.95418 0.0
H1477 H 0.95924 0.51131 0.929 0.0
H1478 H 0.91875 0.48273 0.90352 0.0
H1479 H 0.93406 0.42434 0.96404 0.0
H1480 H 0.97368 0.45232 0.98986 0.0
H1481 H 0.87911 0.42424 0.96056 0.0
H1482 H 0.9524 0.43103 0.88807 0.0
H1483 H 0.98696 0.45508 0.85125 0.0
H1484 H 0.92892 0.48085 0.79366 0.0
H1485 H 0.89408 0.45698 0.83026 0.0
C1486 C 0.83561 0.32813 0.86764 0.0
C1487 C 0.81331 0.32809 0.84628 0.0
C1488 C 0.85034 0.34888 0.8837 0.0
C1489 C 0.8427 0.36969 0.87918 0.0
C1490 C 0.81962 0.3693 0.85945 0.0
C1491 C 0.80502 0.34867 0.84312 0.0
C1492 C 0.8607 0.39253 0.89182 0.0
C1493 C 0.88012 0.40754 0.8716 0.0
C1494 C 0.85969 0.39906 0.92377 0.0
C1495 C 0.83866 0.38471 0.94537 0.0
C1496 C 0.81914 0.39424 0.95331 0.0
C1497 C 0.79979 0.38114 0.97473 0.0
C1498 C 0.79979 0.3585 0.98828 0.0
C1499 C 0.81926 0.34898 0.98061 0.0
C1500 C 0.83873 0.36207 0.95934 0.0
C1501 C 0.95376 0.4924 0.93706 0.0
C1502 C 0.96973 0.48411 0.96142 0.0
C1503 C 0.93067 0.47615 0.92253 0.0
C1504 C 0.92328 0.4515 0.93232 0.0
C1505 C 0.93905 0.44335 0.95676 0.0
C1506 C 0.96193 0.45942 0.97122 0.0
C1507 C 0.90004 0.43351 0.91638 0.0
C1508 C 0.87933 0.41957 0.93567 0.0
C1509 C 0.89986 0.42796 0.88359 0.0
C1510 C 0.92078 0.44241 0.86191 0.0
C1511 C 0.9471 0.44194 0.86763 0.0
C1512 C 0.9667 0.45549 0.8468 0.0
C1513 C 0.96015 0.46952 0.82017 0.0
C1514 C 0.93398 0.47003 0.81434 0.0
C1515 C 0.91431 0.45649 0.83509 0.0
H1516 H 0.97533 0.47995 0.80403 0.0
H1517 H 0.78481 0.3484 0.00487 0.0
H1518 H 0.74156 0.90279 0.87897 0.0
H1519 H 0.71745 0.92493 0.904 0.0
H1520 H 0.66515 0.8581 0.94511 0.0
H1521 H 0.68934 0.8358 0.9204 0.0
H1522 H 0.63692 0.88635 0.9203 0.0
H1523 H 0.71572 0.89737 0.99297 0.0
H1524 H 0.76416 0.9088 0.00774 0.0
H1525 H 0.7741 0.9814 0.96987 0.0
H1526 H 0.72575 0.97031 0.9545 0.0
H1527 H 0.57532 0.93105 0.03142 0.0
H1528 H 0.60238 0.91161 0.00708 0.0
H1529 H 0.6549 0.98117 0.97414 0.0
H1530 H 0.62826 1.0009 1.00015 0.0
H1531 H 0.68355 0.95314 0.99236 0.0
H1532 H 0.60421 0.94222 0.92124 0.0
H1533 H 0.55569 0.93063 0.907 0.0
H1534 H 0.5466 0.8576 0.94202 0.0
H1535 H 0.59504 0.86882 0.95686 0.0
C1536 C 0.7251 0.89273 0.89358 0.0
C1537 C 0.71763 0.86737 0.89768 0.0
C1538 C 0.71126 0.90549 0.90793 0.0
C1539 C 0.6896 0.89333 0.92697 0.0
C1540 C 0.68176 0.86801 0.93061 0.0
C1541 C 0.69559 0.85522 0.91626 0.0
C1542 C 0.67493 0.90691 0.94268 0.0
C1543 C 0.64713 0.90073 0.9364 0.0
C1544 C 0.68814 0.92623 0.96302 0.0
C1545 C 0.71718 0.93295 0.97227 0.0
C1546 C 0.72828 0.91572 0.98756 0.0
C1547 C 0.75571 0.92215 0.99609 0.0
C1548 C 0.77221 0.94579 0.98966 0.0
C1549 C 0.7613 0.96308 0.97478 0.0
C1550 C 0.73389 0.95674 0.96618 0.0
C1551 C 0.59265 0.9423 0.01903 0.0
C1552 C 0.59935 0.96757 0.0173 0.0
C1553 C 0.60809 0.93109 0.00487 0.0
C1554 C 0.63031 0.94475 0.98762 0.0
C1555 C 0.63771 0.9701 0.98691 0.0
C1556 C 0.62246 0.98141 1.00176 0.0
C1557 C 0.64545 0.93239 0.97032 0.0
C1558 C 0.67334 0.93882 0.97618 0.0
C1559 C 0.63231 0.91327 0.94958 0.0
C1560 C 0.60323 0.90641 0.94035 0.0
C1561 C 0.59184 0.92372 0.92605 0.0
C1562 C 0.56436 0.91721 0.91786 0.0
C1563 C 0.54807 0.8934 0.92365 0.0
C1564 C 0.55924 0.87603 0.93756 0.0
C1565 C 0.58671 0.88245 0.94582 0.0
H1566 H 0.52679 0.8884 0.91732 0.0
H1567 H 0.79344 0.95073 0.99628 0.0
H1568 H 0.83669 0.73228 0.10378 0.0
H1569 H 0.84885 0.69819 0.08805 0.0
H1570 H 0.91637 0.71545 0.15937 0.0
H1571 H 0.90435 0.74934 0.17526 0.0
H1572 H 0.92901 0.70723 0.10011 0.0
H1573 H 0.85987 0.66935 0.1753 0.0
H1574 H 0.81457 0.66011 0.1939 0.0
H1575 H 0.78062 0.62648 0.10412 0.0
H1576 H 0.82572 0.63575 0.08484 0.0
H1577 H 0.97306 0.61164 0.10084 0.0
H1578 H 0.94855 0.63337 0.12569 0.0
H1579 H 0.88682 0.61541 0.0472 0.0
H1580 H 0.91137 0.59341 0.02206 0.0
H1581 H 0.86884 0.62245 0.10965 0.0
H1582 H 0.93561 0.66462 0.03134 0.0
H1583 H 0.98011 0.67696 0.00928 0.0
H1584 H 1.017 0.70319 0.10215 0.0
H1585 H 0.97272 0.69157 0.12461 0.0
C1586 C 0.85418 0.7288 0.11596 0.0
C1587 C 0.86967 0.74346 0.14063 0.0
C1588 C 0.86096 0.70931 0.10712 0.0
C1589 C 0.88318 0.70417 0.12302 0.0
C1590 C 0.89906 0.71915 0.14699 0.0
C1591 C 0.89235 0.73862 0.15577 0.0
C1592 C 0.89063 0.68366 0.1141 0.0
C1593 C 0.91593 0.6887 0.10256 0.0
C1594 C 0.87322 0.65958 0.11655 0.0
C1595 C 0.84616 0.65341 0.12854 0.0
C1596 C 0.84274 0.66007 0.15947 0.0
C1597 C 0.8171 0.65481 0.17015 0.0
C1598 C 0.79473 0.64276 0.15018 0.0
C1599 C 0.79796 0.63582 0.11956 0.0
C1600 C 0.82356 0.64103 0.10877 0.0
C1601 C 0.95381 0.61169 0.08946 0.0
C1602 C 0.94422 0.60144 0.05931 0.0
C1603 C 0.93981 0.62395 0.10374 0.0
C1604 C 0.91639 0.62654 0.08761 0.0
C1605 C 0.90512 0.61387 0.05955 0.0
C1606 C 0.91907 0.6013 0.04531 0.0
C1607 C 0.90729 0.64619 0.0961 0.0
C1608 C 0.88184 0.64101 0.10751 0.0
C1609 C 0.92435 0.67034 0.09313 0.0
C1610 C 0.95093 0.67708 0.0797 0.0
C1611 C 0.95322 0.67293 0.04708 0.0
C1612 C 0.97837 0.6798 0.0345 0.0
C1613 C 1.00134 0.69059 0.05436 0.0
C1614 C 0.9992 0.69477 0.08681 0.0
C1615 C 0.97409 0.68818 0.09942 0.0
H1616 H 1.02078 0.69582 0.04456 0.0
H1617 H 0.77489 0.63876 0.15844 0.0
H1618 H 0.32513 0.81168 0.19288 0.0
H1619 H 0.3571 0.84395 0.16205 0.0
H1620 H 0.31807 0.89408 0.18355 0.0
H1621 H 0.28587 0.86199 0.21411 0.0
H1622 H 0.35054 0.90604 0.12241 0.0
H1623 H 0.35566 0.88754 0.24359 0.0
H1624 H 0.35076 0.85643 0.28883 0.0
H1625 H 0.40848 0.83141 0.24965 0.0
H1626 H 0.41337 0.86234 0.20375 0.0
H1627 H 0.46356 1.01016 0.13647 0.0
H1628 H 0.42117 0.98001 0.15056 0.0
H1629 H 0.46089 0.92629 0.16947 0.0
H1630 H 0.50309 0.95635 0.15795 0.0
H1631 H 0.42546 0.91649 0.20795 0.0
H1632 H 0.42805 0.93974 0.09222 0.0
H1633 H 0.4307 0.96727 0.04304 0.0
H1634 H 0.35959 0.98038 0.0654 0.0
H1635 H 0.35668 0.9532 0.11524 0.0
C1636 C 0.32261 0.8293 0.18982 0.0
C1637 C 0.30379 0.83465 0.20695 0.0
C1638 C 0.34072 0.84765 0.17191 0.0
C1639 C 0.34012 0.87136 0.17126 0.0
C1640 C 0.3188 0.87586 0.18395 0.0
C1641 C 0.3007 0.85757 0.20184 0.0
C1642 C 0.36499 0.89153 0.16743 0.0
C1643 C 0.36703 0.90852 0.14093 0.0
C1644 C 0.38629 0.89449 0.19172 0.0
C1645 C 0.38481 0.87711 0.22036 0.0
C1646 C 0.36736 0.87545 0.24475 0.0
C1647 C 0.36455 0.8578 0.27047 0.0
C1648 C 0.37931 0.84189 0.2722 0.0
C1649 C 0.39708 0.84375 0.2483 0.0
C1650 C 0.39991 0.86135 0.22246 0.0
C1651 C 0.46329 0.99209 0.14479 0.0
C1652 C 0.48655 0.98555 0.1458 0.0
C1653 C 0.43905 0.97482 0.15235 0.0
C1654 C 0.4377 0.95071 0.15983 0.0
C1655 C 0.46133 0.94473 0.16349 0.0
C1656 C 0.48558 0.96204 0.157 0.0
C1657 C 0.41186 0.93119 0.16219 0.0
C1658 C 0.40933 0.91427 0.18895 0.0
C1659 C 0.3905 0.92821 0.13761 0.0
C1660 C 0.39232 0.94463 0.1077 0.0
C1661 C 0.41311 0.94866 0.08687 0.0
C1662 C 0.41462 0.96416 0.05879 0.0
C1663 C 0.39539 0.97561 0.05106 0.0
C1664 C 0.37452 0.97153 0.07142 0.0
C1665 C 0.37291 0.95607 0.0996 0.0
H1666 H 0.39665 0.9876 0.02927 0.0
H1667 H 0.377 0.8281 0.29197 0.0
H1668 H 0.77393 0.23545 0.18699 0.0
H1669 H 0.74661 0.20318 0.15213 0.0
H1670 H 0.68267 0.23374 0.14507 0.0
H1671 H 0.70942 0.26561 0.17979 0.0
H1672 H 0.68082 0.18407 0.18493 0.0
H1673 H 0.69416 0.23369 0.08222 0.0
H1674 H 0.72082 0.25801 0.03782 0.0
H1675 H 0.74527 0.19803 0.01865 0.0
H1676 H 0.71906 0.17347 0.06338 0.0
H1677 H 0.55871 0.13247 0.10401 0.0
H1678 H 0.60304 0.1611 0.11534 0.0
H1679 H 0.63892 0.10766 0.09808 0.0
H1680 H 0.59431 0.07848 0.08698 0.0
H1681 H 0.66303 0.16194 0.06909 0.0
H1682 H 0.64279 0.11111 0.16952 0.0
H1683 H 0.61276 0.08836 0.21199 0.0
H1684 H 0.59829 0.153 0.23329 0.0
H1685 H 0.62815 0.17609 0.19083 0.0
C1686 C 0.7545 0.23583 0.17677 0.0
C1687 C 0.74355 0.25274 0.18643 0.0
C1688 C 0.73901 0.21748 0.15684 0.0
C1689 C 0.71278 0.21627 0.14612 0.0
C1690 C 0.70302 0.23462 0.15291 0.0
C1691 C 0.71828 0.25273 0.17292 0.0
C1692 C 0.69332 0.19352 0.13569 0.0
C1693 C 0.67712 0.17907 0.15965 0.0
C1694 C 0.68889 0.187 0.10285 0.0
C1695 C 0.70515 0.20193 0.07661 0.0
C1696 C 0.70562 0.22583 0.06896 0.0
C1697 C 0.72052 0.23962 0.0436 0.0
C1698 C 0.73487 0.22962 0.02555 0.0
C1699 C 0.73426 0.20579 0.03275 0.0
C1700 C 0.71939 0.19193 0.05811 0.0
C1701 C 0.57596 0.12678 0.10232 0.0
C1702 C 0.57307 0.10314 0.09508 0.0
C1703 C 0.60123 0.14316 0.10874 0.0
C1704 C 0.62401 0.13632 0.10753 0.0
C1705 C 0.62142 0.11312 0.09897 0.0
C1706 C 0.59601 0.09651 0.09298 0.0
C1707 C 0.65008 0.15318 0.11817 0.0
C1708 C 0.66741 0.16649 0.0945 0.0
C1709 C 0.65542 0.15904 0.15123 0.0
C1710 C 0.63763 0.14528 0.17697 0.0
C1711 C 0.63309 0.12043 0.18316 0.0
C1712 C 0.61614 0.10749 0.20726 0.0
C1713 C 0.6036 0.11922 0.22529 0.0
C1714 C 0.60798 0.14392 0.21926 0.0
C1715 C 0.62499 0.15696 0.19528 0.0
H1716 H 0.59052 0.10918 0.24397 0.0
H1717 H 0.74635 0.24031 0.00588 0.0
H1718 H 0.74608 0.6931 0.79807 0.0
H1719 H 0.71181 0.65988 0.82436 0.0
H1720 H 0.66577 0.70713 0.8331 0.0
H1721 H 0.70041 0.74062 0.80784 0.0
H1722 H 0.66702 0.68224 0.88801 0.0
H1723 H 0.64875 0.66266 0.77524 0.0
H1724 H 0.65911 0.6543 0.72111 0.0
H1725 H 0.68103 0.59368 0.76434 0.0
H1726 H 0.67115 0.60187 0.81882 0.0
H1727 H 0.54184 0.59573 0.91674 0.0
H1728 H 0.57593 0.6226 0.88243 0.0
H1729 H 0.63021 0.5838 0.91787 0.0
H1730 H 0.59641 0.55711 0.95312 0.0
H1731 H 0.62526 0.60233 0.84123 0.0
H1732 H 0.64476 0.62416 0.95494 0.0
H1733 H 0.63049 0.63141 0.00734 0.0
H1734 H 0.60355 0.68814 0.95982 0.0
H1735 H 0.61704 0.68073 0.90684 0.0
C1736 C 0.72853 0.69636 0.80531 0.0
C1737 C 0.72592 0.71948 0.80081 0.0
C1738 C 0.7089 0.67731 0.82026 0.0
C1739 C 0.68602 0.68089 0.83042 0.0
C1740 C 0.68325 0.70391 0.82554 0.0
C1741 C 0.70303 0.72303 0.81099 0.0
C1742 C 0.66538 0.66093 0.84716 0.0
C1743 C 0.65781 0.66489 0.8775 0.0
C1744 C 0.65358 0.63803 0.83391 0.0
C1745 C 0.65948 0.63304 0.80116 0.0
C1746 C 0.65598 0.64766 0.77324 0.0
C1747 C 0.66173 0.64293 0.74249 0.0
C1748 C 0.6708 0.62351 0.7393 0.0
C1749 C 0.67405 0.60874 0.76685 0.0
C1750 C 0.66836 0.6134 0.79767 0.0
C1751 C 0.56079 0.59253 0.91672 0.0
C1752 C 0.56656 0.57444 0.9378 0.0
C1753 C 0.58021 0.60789 0.89711 0.0
C1754 C 0.60546 0.60512 0.8978 0.0
C1755 C 0.61072 0.58607 0.91703 0.0
C1756 C 0.59149 0.57098 0.93722 0.0
C1757 C 0.62717 0.62392 0.88157 0.0
C1758 C 0.63479 0.61972 0.85153 0.0
C1759 C 0.63893 0.64665 0.89489 0.0
C1760 C 0.63161 0.65169 0.92686 0.0
C1761 C 0.6355 0.63798 0.95557 0.0
C1762 C 0.62752 0.6421 0.98538 0.0
C1763 C 0.61603 0.66018 0.98692 0.0
C1764 C 0.61246 0.67414 0.9586 0.0
C1765 C 0.62023 0.66996 0.92865 0.0
H1766 H 0.60999 0.66343 0.01005 0.0
H1767 H 0.67524 0.61988 0.71548 0.0
H1768 H 0.35533 0.6962 0.93113 0.0
H1769 H 0.36912 0.68062 0.98354 0.0
H1770 H 0.43518 0.74662 0.99413 0.0
H1771 H 0.42251 0.76149 0.93987 0.0
H1772 H 0.45309 0.71571 0.97784 0.0
H1773 H 0.40028 0.71097 0.06361 0.0
H1774 H 0.35991 0.70741 0.09136 0.0
H1775 H 0.32507 0.63397 0.06547 0.0
H1776 H 0.36487 0.63713 0.0369 0.0
H1777 H 0.50925 0.62619 0.01811 0.0
H1778 H 0.49195 0.6577 0.02867 0.0
H1779 H 0.41255 0.61411 0.99596 0.0
H1780 H 0.42961 0.58105 0.98775 0.0
H1781 H 0.4117 0.64171 0.04689 0.0
H1782 H 0.45387 0.65444 0.94351 0.0
H1783 H 0.49105 0.65846 0.90932 0.0
H1784 H 0.54141 0.71764 0.96394 0.0
H1785 H 0.50455 0.71381 0.99864 0.0
C1786 C 0.37238 0.7077 0.94508 0.0
C1787 C 0.38905 0.72918 0.93059 0.0
C1788 C 0.37992 0.69904 0.97576 0.0
C1789 C 0.40418 0.7119 0.99219 0.0
C1790 C 0.4169 0.73601 0.98131 0.0
C1791 C 0.40981 0.74443 0.95005 0.0
C1792 C 0.4206 0.69754 0.00869 0.0
C1793 C 0.44435 0.70008 0.9941 0.0
C1794 C 0.40946 0.67686 0.02964 0.0
C1795 C 0.38572 0.67436 0.04796 0.0
C1796 C 0.38398 0.69407 0.06364 0.0
C1797 C 0.36112 0.69215 0.07942 0.0
C1798 C 0.33986 0.67054 0.07992 0.0
C1799 C 0.34152 0.65073 0.06493 0.0
C1800 C 0.3643 0.65256 0.04902 0.0
C1801 C 0.48797 0.62292 0.01376 0.0
C1802 C 0.47073 0.60099 1.00232 0.0
C1803 C 0.47811 0.64105 0.01992 0.0
C1804 C 0.45103 0.63833 0.01297 0.0
C1805 C 0.43355 0.61645 1.00171 0.0
C1806 C 0.44334 0.5978 0.99646 0.0
C1807 C 0.44189 0.6594 0.01329 0.0
C1808 C 0.42032 0.65791 0.03159 0.0
C1809 C 0.45456 0.68105 0.99515 0.0
C1810 C 0.47663 0.68357 0.97401 0.0
C1811 C 0.47294 0.66819 0.94836 0.0
C1812 C 0.49393 0.67046 0.92887 0.0
C1813 C 0.51862 0.68821 0.93456 0.0
C1814 C 0.52231 0.70383 0.95964 0.0
C1815 C 0.50138 0.70163 0.97923 0.0
H1816 H 0.53486 0.68993 0.91946 0.0
H1817 H 0.32219 0.66908 0.09222 0.0
H1818 H 0.34136 0.36443 0.79641 0.0
H1819 H 0.37519 0.3954 0.82755 0.0
H1820 H 0.42029 0.34634 0.85215 0.0
H1821 H 0.3861 0.3153 0.82174 0.0
H1822 H 0.40633 0.36036 0.90524 0.0
H1823 H 0.44637 0.39952 0.80688 0.0
H1824 H 0.44748 0.41806 0.75056 0.0
H1825 H 0.41799 0.47192 0.78145 0.0
H1826 H 0.41634 0.45349 0.8379 0.0
H1827 H 0.51459 0.43762 0.99749 0.0
H1828 H 0.48358 0.41009 0.96009 0.0
H1829 H 0.44228 0.46196 0.9342 0.0
H1830 H 0.47391 0.49009 0.97098 0.0
H1831 H 0.45426 0.4471 0.88106 0.0
H1832 H 0.40871 0.40484 0.97702 0.0
H1833 H 0.40487 0.38475 0.03266 0.0
H1834 H 0.44462 0.33709 0.00566 0.0
H1835 H 0.4481 0.35649 0.94969 0.0
C1836 C 0.35917 0.3608 0.80726 0.0
C1837 C 0.36156 0.33784 0.80663 0.0
C1838 C 0.37841 0.37839 0.82508 0.0
C1839 C 0.40019 0.3731 0.84222 0.0
C1840 C 0.40362 0.35074 0.83912 0.0
C1841 C 0.38428 0.33314 0.8216 0.0
C1842 C 0.41674 0.38906 0.86742 0.0
C1843 C 0.41721 0.37926 0.89982 0.0
C1844 C 0.43002 0.41384 0.86052 0.0
C1845 C 0.43099 0.42498 0.82658 0.0
C1846 C 0.43989 0.41519 0.80162 0.0
C1847 C 0.44067 0.42571 0.76968 0.0
C1848 C 0.43275 0.44612 0.76241 0.0
C1849 C 0.42409 0.45609 0.78711 0.0
C1850 C 0.42326 0.44563 0.81909 0.0
C1851 C 0.49864 0.44306 0.98432 0.0
C1852 C 0.4969 0.46617 0.98687 0.0
C1853 C 0.48077 0.42719 0.96306 0.0
C1854 C 0.46052 0.43392 0.94444 0.0
C1855 C 0.45785 0.45647 0.94826 0.0
C1856 C 0.47589 0.47248 0.96932 0.0
C1857 C 0.44389 0.41836 0.91882 0.0
C1858 C 0.44336 0.42822 0.8864 0.0
C1859 C 0.43044 0.39358 0.9256 0.0
C1860 C 0.42893 0.38228 0.95938 0.0
C1861 C 0.41679 0.3902 0.98308 0.0
C1862 C 0.41458 0.37887 0.01459 0.0
C1863 C 0.42475 0.35986 0.02278 0.0
C1864 C 0.43685 0.35189 0.99933 0.0
C1865 C 0.43878 0.36292 0.96766 0.0
H1866 H 0.42312 0.35121 0.04723 0.0
H1867 H 0.43336 0.45424 0.73767 0.0
H1868 H 0.74226 0.40348 0.8119 0.0
H1869 H 0.72906 0.43125 0.84235 0.0
H1870 H 0.64657 0.39677 0.80985 0.0
H1871 H 0.65978 0.36941 0.77885 0.0
H1872 H 0.65651 0.44368 0.81132 0.0
H1873 H 0.6747 0.38062 0.88227 0.0
H1874 H 0.703 0.35668 0.90612 0.0
H1875 H 0.75809 0.41934 0.94953 0.0
H1876 H 0.73059 0.44392 0.92487 0.0
H1877 H 0.57884 0.44385 0.94011 0.0
H1878 H 0.60566 0.43126 0.90481 0.0
H1879 H 0.67385 0.49286 0.92896 0.0
H1880 H 0.64688 0.50614 0.9638 0.0
H1881 H 0.6789 0.44057 0.93142 0.0
H1882 H 0.65461 0.50191 0.86276 0.0
H1883 H 0.62304 0.52266 0.8389 0.0
H1884 H 0.57388 0.45781 0.7948 0.0
H1885 H 0.60497 0.43658 0.81883 0.0
C1886 C 0.72137 0.40212 0.81097 0.0
C1887 C 0.70195 0.38425 0.79335 0.0
C1888 C 0.71387 0.41794 0.8283 0.0
C1889 C 0.68681 0.41577 0.82877 0.0
C1890 C 0.66757 0.39875 0.80977 0.0
C1891 C 0.6751 0.38313 0.79211 0.0
C1892 C 0.6781 0.42982 0.85089 0.0
C1893 C 0.66143 0.44299 0.83757 0.0
C1894 C 0.68485 0.42916 0.88516 0.0
C1895 C 0.7009 0.41424 0.90105 0.0
C1896 C 0.69303 0.38939 0.89654 0.0
C1897 C 0.70897 0.37572 0.91009 0.0
C1898 C 0.73249 0.38655 0.92898 0.0
C1899 C 0.74 0.41104 0.9346 0.0
C1900 C 0.72429 0.42488 0.92073 0.0
C1901 C 0.59952 0.45478 0.93795 0.0
C1902 C 0.61075 0.47605 0.95457 0.0
C1903 C 0.61478 0.44753 0.91784 0.0
C1904 C 0.64154 0.46125 0.91433 0.0
C1905 C 0.65313 0.48216 0.93145 0.0
C1906 C 0.6377 0.48972 0.95116 0.0
C1907 C 0.65681 0.45366 0.89187 0.0
C1908 C 0.67455 0.44162 0.90512 0.0
C1909 C 0.65057 0.45483 0.85771 0.0
C1910 C 0.63204 0.46763 0.84278 0.0
C1911 C 0.63696 0.49203 0.84818 0.0
C1912 C 0.61918 0.50389 0.83458 0.0
C1913 C 0.59645 0.49155 0.81539 0.0
C1914 C 0.5915 0.46735 0.80967 0.0
C1915 C 0.60922 0.45541 0.82323 0.0
H1916 H 0.58269 0.50075 0.8049 0.0
H1917 H 0.74469 0.37587 0.93958 0.0
H1918 H 0.65991 0.35155 0.11636 0.0
H1919 H 0.66278 0.37767 0.06636 0.0
H1920 H 0.74816 0.39249 0.07114 0.0
H1921 H 0.74527 0.36612 0.12127 0.0
H1922 H 0.7345 0.43215 0.0751 0.0
H1923 H 0.71591 0.37448 1.00161 0.0
H1924 H 0.69723 0.33551 0.9764 0.0
H1925 H 0.62021 0.34516 0.96246 0.0
H1926 H 0.63793 0.38365 0.98876 0.0
H1927 H 0.66397 0.51297 0.03729 0.0
H1928 H 0.69517 0.49473 0.01893 0.0
H1929 H 0.63537 0.42445 0.0291 0.0
H1930 H 0.60385 0.44288 0.04458 0.0
H1931 H 0.66479 0.42314 0.9837 0.0
H1932 H 0.68909 0.45654 0.09967 0.0
H1933 H 0.70517 0.49237 0.13265 0.0
H1934 H 0.76843 0.52517 0.06859 0.0
H1935 H 0.75259 0.48951 0.03527 0.0
C1936 C 0.67914 0.35987 0.10619 0.0
C1937 C 0.70235 0.35713 0.12268 0.0
C1938 C 0.68078 0.37447 0.07735 0.0
C1939 C 0.70571 0.3868 0.06479 0.0
C1940 C 0.72875 0.38285 0.08014 0.0
C1941 C 0.72705 0.36793 0.10881 0.0
C1942 C 0.70768 0.40776 0.04139 0.0
C1943 C 0.72012 0.4304 0.05407 0.0
C1944 C 0.68976 0.40565 0.01325 0.0
C1945 C 0.67851 0.38236 0.99702 0.0
C1946 C 0.69491 0.36829 0.99346 0.0
C1947 C 0.68443 0.34616 0.97905 0.0
C1948 C 0.65758 0.33791 0.96771 0.0
C1949 C 0.64108 0.35167 0.97104 0.0
C1950 C 0.65138 0.37371 0.98572 0.0
C1951 C 0.65765 0.49363 0.03541 0.0
C1952 C 0.63192 0.47911 0.04334 0.0
C1953 C 0.67538 0.48326 0.02471 0.0
C1954 C 0.668 0.45812 0.02339 0.0
C1955 C 0.64171 0.4439 0.02971 0.0
C1956 C 0.62378 0.45434 0.03921 0.0
C1957 C 0.68798 0.44569 0.02149 0.0
C1958 C 0.68048 0.42512 0.00315 0.0
C1959 C 0.71001 0.44934 0.04499 0.0
C1960 C 0.7196 0.47059 0.06497 0.0
C1961 C 0.70643 0.47143 0.09273 0.0
C1962 C 0.71547 0.49169 0.11141 0.0
C1963 C 0.73777 0.51106 0.10267 0.0
C1964 C 0.75113 0.51018 0.07528 0.0
C1965 C 0.74214 0.48997 0.0565 0.0
H1966 H 0.74473 0.52673 0.11714 0.0
H1967 H 0.64954 0.32082 0.9564 0.0
H1968 H 0.70828 0.74203 0.22851 0.0
H1969 H 0.68042 0.71194 0.19168 0.0
H1970 H 0.74679 0.68628 0.18285 0.0
H1971 H 0.77525 0.71753 0.21815 0.0
H1972 H 0.72198 0.68588 0.12675 0.0
H1973 H 0.69334 0.65552 0.2328 0.0
H1974 H 0.67821 0.65609 0.28761 0.0
H1975 H 0.60745 0.66961 0.2437 0.0
H1976 H 0.62233 0.66947 0.18862 0.0
H1977 H 0.61733 0.57076 0.07954 0.0
H1978 H 0.65524 0.59995 0.10813 0.0
H1979 H 0.61875 0.6553 0.08312 0.0
H1980 H 0.58108 0.62657 0.05428 0.0
H1981 H 0.63123 0.63636 0.15749 0.0
H1982 H 0.66664 0.6713 0.05038 0.0
H1983 H 0.68406 0.6689 0.99756 0.0
H1984 H 0.74301 0.64061 0.04789 0.0
H1985 H 0.72618 0.64316 0.10103 0.0
C1986 C 0.71687 0.72991 0.21875 0.0
C1987 C 0.74373 0.73182 0.22638 0.0
C1988 C 0.70093 0.71265 0.19786 0.0
C1989 C 0.7113 0.69638 0.18522 0.0
C1990 C 0.73831 0.69852 0.19247 0.0
C1991 C 0.75449 0.71627 0.2127 0.0
C1992 C 0.69384 0.67735 0.16429 0.0
C1993 C 0.70231 0.67483 0.13377 0.0
C1994 C 0.66821 0.66272 0.17344 0.0
C1995 C 0.65906 0.66264 0.20656 0.0
C1996 C 0.67463 0.65876 0.23483 0.0
C1997 C 0.66609 0.65899 0.26595 0.0
C1998 C 0.64191 0.66292 0.26913 0.0
C1999 C 0.62618 0.66657 0.2412 0.0
C2000 C 0.63464 0.66638 0.21002 0.0
C2001 C 0.61766 0.58927 0.07963 0.0
C2002 C 0.59611 0.59633 0.06512 0.0
C2003 C 0.63935 0.60588 0.09571 0.0
C2004 C 0.63962 0.62962 0.09746 0.0
C2005 C 0.61882 0.63701 0.08168 0.0
C2006 C 0.59731 0.62054 0.06538 0.0
C2007 C 0.65914 0.6457 0.11994 0.0
C2008 C 0.65104 0.64738 0.15084 0.0
C2009 C 0.68521 0.65903 0.11149 0.0
C2010 C 0.69493 0.65711 0.07957 0.0
C2011 C 0.68313 0.66434 0.05013 0.0
C2012 C 0.69296 0.66304 0.02016 0.0
C2013 C 0.71443 0.65438 0.01935 0.0
C2014 C 0.7263 0.64721 0.04853 0.0
C2015 C 0.71671 0.64868 0.07858 0.0
H2016 H 0.72196 0.65334 0.99611 0.0
H2017 H 0.63534 0.6631 0.29325 0.0
H2018 H 0.33904 0.69244 0.17308 0.0
H2019 H 0.35979 0.66909 0.14462 0.0
H2020 H 0.42956 0.69017 0.21204 0.0
H2021 H 0.40885 0.713 0.24103 0.0
H2022 H 0.44381 0.69587 0.15176 0.0
H2023 H 0.37993 0.63275 0.21497 0.0
H2024 H 0.33457 0.60996 0.23136 0.0
H2025 H 0.30926 0.59201 0.13172 0.0
H2026 H 0.35445 0.61482 0.11474 0.0
H2027 H 0.51452 0.61876 0.12326 0.0
H2028 H 0.48942 0.64057 0.14678 0.0
H2029 H 0.41962 0.60478 0.0848 0.0
H2030 H 0.44385 0.58061 0.06484 0.0
H2031 H 0.40284 0.60858 0.13547 0.0
H2032 H 0.4681 0.66938 0.07295 0.0
H2033 H 0.51246 0.69453 0.05543 0.0
H2034 H 0.53547 0.71825 0.15292 0.0
H2035 H 0.49125 0.69337 0.17078 0.0
C2036 C 0.35874 0.69196 0.18191 0.0
C2037 C 0.37242 0.7047 0.20913 0.0
C2038 C 0.37061 0.67875 0.16549 0.0
C2039 C 0.39627 0.67806 0.176 0.0
C2040 C 0.40985 0.69067 0.20326 0.0
C2041 C 0.39803 0.7038 0.21972 0.0
C2042 C 0.40942 0.66449 0.15869 0.0
C2043 C 0.43503 0.67671 0.14837 0.0
C2044 C 0.39742 0.63978 0.15312 0.0
C2045 C 0.37044 0.62574 0.16353 0.0
C2046 C 0.36464 0.62405 0.19654 0.0
C2047 C 0.33898 0.6111 0.20595 0.0
C2048 C 0.31901 0.59962 0.18258 0.0
C2049 C 0.32471 0.60096 0.14979 0.0
C2050 C 0.35034 0.61387 0.14027 0.0
C2051 C 0.49367 0.61534 0.11516 0.0
C2052 C 0.48111 0.59823 0.09208 0.0
C2053 C 0.47944 0.62819 0.12805 0.0
C2054 C 0.45284 0.62527 0.11658 0.0
C2055 C 0.44015 0.60765 0.094 0.0
C2056 C 0.45399 0.59384 0.0825 0.0
C2057 C 0.43792 0.63975 0.1291 0.0
C2058 C 0.41177 0.62778 0.13834 0.0
C2059 C 0.44948 0.66482 0.13363 0.0
C2060 C 0.47634 0.67939 0.12307 0.0
C2061 C 0.48264 0.6799 0.09052 0.0
C2062 C 0.50774 0.69411 0.08057 0.0
C2063 C 0.52678 0.70789 0.10305 0.0
C2064 C 0.52072 0.70755 0.13551 0.0
C2065 C 0.4956 0.69345 0.1455 0.0
H2066 H 0.5462 0.71886 0.09531 0.0
H2067 H 0.29915 0.58963 0.18991 0.0
H2068 H 0.38138 0.32871 0.26025 0.0
H2069 H 0.41512 0.36227 0.23446 0.0
H2070 H 0.35381 0.38969 0.18772 0.0
H2071 H 0.31948 0.35552 0.21311 0.0
H2072 H 0.39154 0.39313 0.1459 0.0
H2073 H 0.39138 0.41599 0.25417 0.0
H2074 H 0.39194 0.41107 0.31448 0.0
H2075 H 0.4693 0.40221 0.3191 0.0
H2076 H 0.46905 0.40672 0.25876 0.0
H2077 H 0.48799 0.50222 0.09753 0.0
H2078 H 0.45158 0.47581 0.12872 0.0
H2079 H 0.50299 0.43625 0.17242 0.0
H2080 H 0.5398 0.46277 0.14145 0.0
H2081 H 0.46776 0.44241 0.2161 0.0
H2082 H 0.46493 0.41653 0.10611 0.0
H2083 H 0.46593 0.42625 0.04645 0.0
H2084 H 0.39354 0.44381 0.0457 0.0
H2085 H 0.39241 0.43466 0.10552 0.0
C2086 C 0.37493 0.34183 0.24452 0.0
C2087 C 0.34769 0.33954 0.23899 0.0
C2088 C 0.39433 0.36109 0.22985 0.0
C2089 C 0.38707 0.37877 0.20967 0.0
C2090 C 0.35986 0.37632 0.20338 0.0
C2091 C 0.3403 0.35684 0.21796 0.0
C2092 C 0.40817 0.39973 0.19551 0.0
C2093 C 0.40793 0.40414 0.16131 0.0
C2094 C 0.42974 0.41405 0.21556 0.0
C2095 C 0.4301 0.41152 0.2519 0.0
C2096 C 0.40844 0.41283 0.26803 0.0
C2097 C 0.40871 0.41014 0.30222 0.0
C2098 C 0.43062 0.40629 0.3206 0.0
C2099 C 0.45234 0.40518 0.30482 0.0
C2100 C 0.45215 0.40784 0.27062 0.0
C2101 C 0.49177 0.48815 0.11413 0.0
C2102 C 0.51673 0.48436 0.11658 0.0
C2103 C 0.4709 0.4731 0.13197 0.0
C2104 C 0.47449 0.45385 0.15237 0.0
C2105 C 0.49983 0.45099 0.15666 0.0
C2106 C 0.52082 0.46613 0.13889 0.0
C2107 C 0.45128 0.43539 0.16671 0.0
C2108 C 0.45118 0.43148 0.20084 0.0
C2109 C 0.42933 0.4217 0.14664 0.0
C2110 C 0.42872 0.42514 0.11033 0.0
C2111 C 0.44923 0.42247 0.09322 0.0
C2112 C 0.44992 0.42802 0.05942 0.0
C2113 C 0.42998 0.4359 0.04237 0.0
C2114 C 0.40907 0.43786 0.05899 0.0
C2115 C 0.40838 0.43248 0.09285 0.0
H2116 H 0.4306 0.44029 0.01623 0.0
H2117 H 0.43079 0.4042 0.34708 0.0
H2118 H 0.89032 0.71311 0.62944 0.0
H2119 H 0.91462 0.69073 0.6052 0.0
H2120 H 0.85427 0.62386 0.63181 0.0
H2121 H 0.83029 0.64608 0.65706 0.0
H2122 H 0.90181 0.61901 0.64438 0.0
H2123 H 0.85808 0.65013 0.55242 0.0
H2124 H 0.84616 0.68193 0.51765 0.0
H2125 H 0.92841 0.71615 0.49767 0.0
H2126 H 0.94096 0.68492 0.5331 0.0
H2127 H 0.94926 0.56858 0.49992 0.0
H2128 H 0.92128 0.59013 0.51895 0.0
H2129 H 0.97968 0.61563 0.59904 0.0
H2130 H 1.00754 0.59445 0.58038 0.0
H2131 H 0.92881 0.63811 0.53005 0.0
H2132 H 0.94803 0.61352 0.66762 0.0
H2133 H 0.95857 0.581 0.70245 0.0
H2134 H 0.9211 0.53086 0.62861 0.0
H2135 H 0.91 0.56299 0.59355 0.0
C2136 C 0.8823 0.69363 0.63053 0.0
C2137 C 0.85816 0.68151 0.64525 0.0
C2138 C 0.89612 0.68081 0.61623 0.0
C2139 C 0.88618 0.65551 0.61608 0.0
C2140 C 0.86238 0.64334 0.63131 0.0
C2141 C 0.84853 0.65614 0.64558 0.0
C2142 C 0.90068 0.64171 0.60052 0.0
C2143 C 0.90766 0.62326 0.61937 0.0
C2144 C 0.90809 0.64681 0.56763 0.0
C2145 C 0.9005 0.66532 0.54576 0.0
C2146 C 0.87367 0.66454 0.54084 0.0
C2147 C 0.8668 0.68248 0.52102 0.0
C2148 C 0.88654 0.70112 0.50559 0.0
C2149 C 0.91316 0.70176 0.50976 0.0
C2150 C 0.92017 0.68396 0.52974 0.0
C2151 C 0.95623 0.57892 0.52143 0.0
C2152 C 0.98064 0.57951 0.5387 0.0
C2153 C 0.94021 0.59128 0.53228 0.0
C2154 C 0.94809 0.60423 0.56082 0.0
C2155 C 0.97284 0.60547 0.57733 0.0
C2156 C 0.98884 0.59331 0.56648 0.0
C2157 C 0.93041 0.61593 0.57424 0.0
C2158 C 0.92286 0.63391 0.55502 0.0
C2159 C 0.92224 0.6103 0.60671 0.0
C2160 C 0.92839 0.59073 0.62786 0.0
C2161 C 0.94192 0.59553 0.65889 0.0
C2162 C 0.94802 0.57717 0.67866 0.0
C2163 C 0.94058 0.5539 0.66771 0.0
C2164 C 0.92693 0.54891 0.63702 0.0
C2165 C 0.92076 0.5672 0.61717 0.0
H2166 H 0.94534 0.53972 0.68304 0.0
H2167 H 0.88122 0.71504 0.49033 0.0
H2168 H 0.36012 0.7889 0.68925 0.0
H2169 H 0.39752 0.82116 0.6664 0.0
H2170 H 0.37109 0.87412 0.70684 0.0
H2171 H 0.33319 0.84239 0.72789 0.0
H2172 H 0.39057 0.89216 0.65354 0.0
H2173 H 0.41967 0.85129 0.74749 0.0
H2174 H 0.42483 0.81613 0.7814 0.0
H2175 H 0.47011 0.80256 0.70839 0.0
H2176 H 0.46481 0.83743 0.67377 0.0
H2177 H 0.50864 0.98767 0.66848 0.0
H2178 H 0.47637 0.95085 0.69031 0.0
H2179 H 0.49404 0.91027 0.61818 0.0
H2180 H 0.52648 0.94694 0.59608 0.0
H2181 H 0.48046 0.88538 0.68579 0.0
H2182 H 0.44948 0.93248 0.59439 0.0
H2183 H 0.44622 0.97153 0.57102 0.0
H2184 H 0.40479 0.97709 0.65325 0.0
H2185 H 0.40851 0.93835 0.67769 0.0
C2186 C 0.36196 0.80747 0.69248 0.0
C2187 C 0.34394 0.81309 0.71072 0.0
C2188 C 0.38344 0.82585 0.67969 0.0
C2189 C 0.38751 0.84999 0.68575 0.0
C2190 C 0.36846 0.85564 0.70197 0.0
C2191 C 0.34676 0.83739 0.71407 0.0
C2192 C 0.41232 0.86934 0.67724 0.0
C2193 C 0.41016 0.8906 0.66072 0.0
C2194 C 0.43797 0.86752 0.68694 0.0
C2195 C 0.44158 0.84678 0.70788 0.0
C2196 C 0.43058 0.84071 0.73858 0.0
C2197 C 0.43354 0.82085 0.75793 0.0
C2198 C 0.44773 0.80708 0.74702 0.0
C2199 C 0.45907 0.81322 0.71678 0.0
C2200 C 0.4561 0.83303 0.69728 0.0
C2201 C 0.50633 0.97084 0.65784 0.0
C2202 C 0.51962 0.97034 0.63 0.0
C2203 C 0.48794 0.94982 0.67044 0.0
C2204 C 0.48269 0.92809 0.65544 0.0
C2205 C 0.49791 0.92698 0.62996 0.0
C2206 C 0.51628 0.948 0.61725 0.0
C2207 C 0.45842 0.90787 0.66235 0.0
C2208 C 0.46076 0.8866 0.67844 0.0
C2209 C 0.43287 0.91 0.65357 0.0
C2210 C 0.42942 0.93261 0.63795 0.0
C2211 C 0.43975 0.94206 0.60754 0.0
C2212 C 0.43783 0.96415 0.5941 0.0
C2213 C 0.42527 0.97678 0.61055 0.0
C2214 C 0.41451 0.96729 0.6405 0.0
C2215 C 0.41653 0.94528 0.65418 0.0
H2216 H 0.42388 0.99391 0.60011 0.0
H2217 H 0.44998 0.7917 0.76202 0.0
H2218 H 0.25953 0.30907 0.68088 0.0
H2219 H 0.23452 0.3321 0.64719 0.0
H2220 H 0.22255 0.36271 0.73362 0.0
H2221 H 0.24711 0.33933 0.76743 0.0
H2222 H 0.17883 0.35602 0.69754 0.0
H2223 H 0.26961 0.39438 0.67032 0.0
H2224 H 0.31315 0.39672 0.65138 0.0
H2225 H 0.27501 0.37052 0.55887 0.0
H2226 H 0.23118 0.36776 0.57739 0.0
H2227 H 0.17888 0.46652 0.57134 0.0
H2228 H 0.20133 0.44083 0.60326 0.0
H2229 H 0.1273 0.38195 0.60265 0.0
H2230 H 0.10456 0.40789 0.57041 0.0
H2231 H 0.21388 0.40285 0.59591 0.0
H2232 H 0.1277 0.3419 0.67082 0.0
H2233 H 0.0866 0.34321 0.6929 0.0
H2234 H 0.11929 0.42026 0.69469 0.0
H2235 H 0.16068 0.41937 0.67301 0.0
C2236 C 0.25173 0.32073 0.69294 0.0
C2237 C 0.25591 0.32208 0.7274 0.0
C2238 C 0.23732 0.33422 0.67335 0.0
C2239 C 0.22646 0.34996 0.68709 0.0
C2240 C 0.23036 0.35104 0.7216 0.0
C2241 C 0.24474 0.33755 0.74119 0.0
C2242 C 0.21126 0.36512 0.66591 0.0
C2243 C 0.18663 0.36605 0.67523 0.0
C2244 C 0.22082 0.37896 0.6366 0.0
C2245 C 0.2471 0.38063 0.62538 0.0
C2246 C 0.2705 0.38897 0.64602 0.0
C2247 C 0.29522 0.3904 0.63534 0.0
C2248 C 0.29683 0.38371 0.60397 0.0
C2249 C 0.27372 0.37565 0.58317 0.0
C2250 C 0.24893 0.37417 0.59374 0.0
C2251 C 0.16711 0.44811 0.57782 0.0
C2252 C 0.13949 0.43973 0.56787 0.0
C2253 C 0.18023 0.43318 0.59628 0.0
C2254 C 0.16649 0.40903 0.60633 0.0
C2255 C 0.13886 0.40043 0.59616 0.0
C2256 C 0.12569 0.41539 0.5773 0.0
C2257 C 0.18123 0.39338 0.6272 0.0
C2258 C 0.20588 0.39251 0.61795 0.0
C2259 C 0.17184 0.37984 0.65673 0.0
C2260 C 0.14713 0.38057 0.66993 0.0
C2261 C 0.12612 0.35911 0.676 0.0
C2262 C 0.10278 0.35978 0.68844 0.0
C2263 C 0.10029 0.38181 0.69508 0.0
C2264 C 0.12119 0.40322 0.68941 0.0
C2265 C 0.14458 0.40264 0.677 0.0
H2266 H 0.0822 0.3823 0.70469 0.0
H2267 H 0.31599 0.38482 0.59575 0.0
H2268 H 0.78473 0.205 0.73014 0.0
H2269 H 0.76254 0.16892 0.69995 0.0
H2270 H 0.7079 0.20325 0.65043 0.0
H2271 H 0.72927 0.23889 0.68162 0.0
H2272 H 0.68167 0.16007 0.67525 0.0
H2273 H 0.75958 0.19152 0.60814 0.0
H2274 H 0.80864 0.20781 0.60629 0.0
H2275 H 0.81607 0.14346 0.6582 0.0
H2276 H 0.76719 0.12668 0.65987 0.0
H2277 H 0.61155 0.07534 0.56519 0.0
H2278 H 0.64191 0.1125 0.58683 0.0
H2279 H 0.69657 0.07484 0.62622 0.0
H2280 H 0.66648 0.03765 0.60297 0.0
H2281 H 0.72444 0.11852 0.60855 0.0
H2282 H 0.64978 0.08521 0.67421 0.0
H2283 H 0.60219 0.06825 0.68544 0.0
H2284 H 0.58945 0.1342 0.64704 0.0
H2285 H 0.63694 0.15147 0.63523 0.0
C2286 C 0.76836 0.20502 0.71228 0.0
C2287 C 0.75869 0.22472 0.70819 0.0
C2288 C 0.7557 0.18439 0.69497 0.0
C2289 C 0.73365 0.18341 0.67265 0.0
C2290 C 0.72481 0.20355 0.66757 0.0
C2291 C 0.73709 0.22394 0.68529 0.0
C2292 C 0.71843 0.16094 0.65629 0.0
C2293 C 0.69094 0.15123 0.66018 0.0
C2294 C 0.73072 0.14874 0.63797 0.0
C2295 C 0.7598 0.15786 0.63407 0.0
C2296 C 0.77173 0.18077 0.61881 0.0
C2297 C 0.79951 0.19009 0.61785 0.0
C2298 C 0.81551 0.1767 0.63218 0.0
C2299 C 0.80373 0.1538 0.64703 0.0
C2300 C 0.77598 0.14428 0.64774 0.0
C2301 C 0.63019 0.07508 0.57814 0.0
C2302 C 0.63654 0.05365 0.58297 0.0
C2303 C 0.64753 0.0963 0.5906 0.0
C2304 C 0.6712 0.09636 0.60911 0.0
C2305 C 0.67834 0.07523 0.61228 0.0
C2306 C 0.66118 0.05401 0.59907 0.0
C2307 C 0.68741 0.11803 0.62668 0.0
C2308 C 0.71508 0.12747 0.6233 0.0
C2309 C 0.67538 0.12977 0.64621 0.0
C2310 C 0.64688 0.11956 0.65365 0.0
C2311 C 0.63681 0.09605 0.66804 0.0
C2312 C 0.60986 0.08639 0.67451 0.0
C2313 C 0.59281 0.10014 0.66694 0.0
C2314 C 0.60269 0.12359 0.65291 0.0
C2315 C 0.62963 0.13334 0.64636 0.0
H2316 H 0.57197 0.09263 0.672 0.0
H2317 H 0.83703 0.18401 0.63174 0.0
H2318 H 0.84257 0.30904 0.34661 0.0
H2319 H 0.87505 0.33858 0.37965 0.0
H2320 H 0.81441 0.36912 0.39815 0.0
H2321 H 0.78198 0.34028 0.36264 0.0
H2322 H 0.85419 0.40226 0.37695 0.0
H2323 H 0.84827 0.33892 0.46115 0.0
H2324 H 0.8475 0.29847 0.48382 0.0
H2325 H 0.92643 0.31161 0.45339 0.0
H2326 H 0.92756 0.35202 0.43019 0.0
H2327 H 0.94854 0.49157 0.46762 0.0
H2328 H 0.91075 0.45621 0.45401 0.0
H2329 H 0.96437 0.42201 0.42331 0.0
H2330 H 1.00257 0.45723 0.43783 0.0
H2331 H 0.92589 0.39047 0.45624 0.0
H2332 H 0.93001 0.44975 0.36686 0.0
H2333 H 0.93171 0.4895 0.34046 0.0
H2334 H 0.8565 0.48269 0.37759 0.0
H2335 H 0.85452 0.44301 0.40454 0.0
C2336 C 0.83588 0.32152 0.35857 0.0
C2337 C 0.80979 0.32241 0.35224 0.0
C2338 C 0.85451 0.33837 0.37772 0.0
C2339 C 0.84714 0.35587 0.39195 0.0
C2340 C 0.82052 0.35573 0.38745 0.0
C2341 C 0.80201 0.33927 0.36734 0.0
C2342 C 0.86804 0.37623 0.40718 0.0
C2343 C 0.86936 0.39964 0.39513 0.0
C2344 C 0.88855 0.3728 0.42973 0.0
C2345 C 0.88797 0.34851 0.44386 0.0
C2346 C 0.8654 0.33313 0.45912 0.0
C2347 C 0.86492 0.31022 0.47211 0.0
C2348 C 0.8869 0.30247 0.47003 0.0
C2349 C 0.90943 0.31764 0.455 0.0
C2350 C 0.91001 0.34056 0.44197 0.0
C2351 C 0.95233 0.47659 0.4578 0.0
C2352 C 0.97848 0.47734 0.45314 0.0
C2353 C 0.9307 0.45638 0.45014 0.0
C2354 C 0.93475 0.43675 0.43705 0.0
C2355 C 0.96087 0.43708 0.43327 0.0
C2356 C 0.98262 0.45722 0.44139 0.0
C2357 C 0.91165 0.41622 0.42634 0.0
C2358 C 0.91015 0.39291 0.43893 0.0
C2359 C 0.89103 0.41963 0.40406 0.0
C2360 C 0.89229 0.44357 0.38805 0.0
C2361 C 0.91397 0.45685 0.36966 0.0
C2362 C 0.91496 0.47934 0.35456 0.0
C2363 C 0.89428 0.48867 0.35746 0.0
C2364 C 0.87253 0.47548 0.37542 0.0
C2365 C 0.87146 0.45298 0.3906 0.0
H2366 H 0.89507 0.50607 0.34571 0.0
H2367 H 0.88647 0.28471 0.48007 0.0
H2368 H 0.64191 0.78462 0.40468 0.0
H2369 H 0.62845 0.81172 0.43614 0.0
H2370 H 0.69704 0.81844 0.5044 0.0
H2371 H 0.71039 0.79125 0.47339 0.0
H2372 H 0.61736 0.81402 0.50058 0.0
H2373 H 0.72348 0.87704 0.52015 0.0
H2374 H 0.76771 0.88683 0.49799 0.0
H2375 H 0.73003 0.86708 0.40271 0.0
H2376 H 0.68566 0.85738 0.42429 0.0
H2377 H 0.6511 0.95148 0.5392 0.0
H2378 H 0.66473 0.91536 0.54135 0.0
H2379 H 0.59858 0.88313 0.4725 0.0
H2380 H 0.58407 0.91818 0.47176 0.0
H2381 H 0.68101 0.89743 0.49495 0.0
H2382 H 0.57561 0.82385 0.48069 0.0
H2383 H 0.53086 0.8153 0.50049 0.0
H2384 H 0.56522 0.85746 0.58341 0.0
H2385 H 0.61031 0.86592 0.5643 0.0
C2386 C 0.65366 0.7914 0.42689 0.0
C2387 C 0.67712 0.78586 0.43664 0.0
C2388 C 0.64594 0.80675 0.44491 0.0
C2389 C 0.6618 0.81706 0.47256 0.0
C2390 C 0.68444 0.81051 0.48331 0.0
C2391 C 0.69198 0.79493 0.46559 0.0
C2392 C 0.65627 0.83673 0.48746 0.0
C2393 C 0.63118 0.83229 0.49948 0.0
C2394 C 0.67484 0.86032 0.48721 0.0
C2395 C 0.70135 0.86628 0.47391 0.0
C2396 C 0.72469 0.87485 0.49447 0.0
C2397 C 0.74976 0.88036 0.48203 0.0
C2398 C 0.75168 0.87749 0.449 0.0
C2399 C 0.72853 0.86919 0.42832 0.0
C2400 C 0.70342 0.86367 0.44064 0.0
C2401 C 0.63925 0.9365 0.52497 0.0
C2402 C 0.6163 0.9376 0.50565 0.0
C2403 C 0.64708 0.91591 0.52617 0.0
C2404 C 0.63229 0.89626 0.50773 0.0
C2405 C 0.6098 0.89765 0.48787 0.0
C2406 C 0.60175 0.91795 0.48708 0.0
C2407 C 0.64137 0.87508 0.5065 0.0
C2408 C 0.66729 0.87915 0.49719 0.0
C2409 C 0.62344 0.85118 0.50911 0.0
C2410 C 0.59638 0.8456 0.52108 0.0
C2411 C 0.57369 0.83112 0.50333 0.0
C2412 C 0.54825 0.82633 0.51437 0.0
C2413 C 0.54521 0.83586 0.54318 0.0
C2414 C 0.56763 0.85013 0.56108 0.0
C2415 C 0.59311 0.85493 0.55017 0.0
H2416 H 0.52549 0.83219 0.55163 0.0
H2417 H 0.7711 0.88176 0.43942 0.0
H2418 H 0.266 0.725 0.35746 0.0
H2419 H 0.23869 0.68475 0.37679 0.0
H2420 H 0.16932 0.70818 0.36918 0.0
H2421 H 0.1964 0.74843 0.34991 0.0
H2422 H 0.17065 0.6743 0.42253 0.0
H2423 H 0.17788 0.68455 0.30425 0.0
H2424 H 0.20297 0.69609 0.25466 0.0
H2425 H 0.24601 0.64683 0.28616 0.0
H2426 H 0.22085 0.63474 0.33595 0.0
H2427 H 0.07044 0.56492 0.414 0.0
H2428 H 0.09573 0.60498 0.39171 0.0
H2429 H 0.16362 0.58103 0.38533 0.0
H2430 H 0.13818 0.54081 0.40615 0.0
H2431 H 0.16362 0.61555 0.33949 0.0
H2432 H 0.1521 0.60191 0.45525 0.0
H2433 H 0.12646 0.5904 0.50422 0.0
H2434 H 0.09278 0.64726 0.47966 0.0
H2435 H 0.11774 0.65883 0.42977 0.0
C2436 C 0.24514 0.72182 0.36101 0.0
C2437 C 0.23312 0.73962 0.35167 0.0
C2438 C 0.22959 0.69883 0.37186 0.0
C2439 C 0.20203 0.69359 0.37363 0.0
C2440 C 0.19058 0.71199 0.36769 0.0
C2441 C 0.20604 0.7349 0.35663 0.0
C2442 C 0.18454 0.6685 0.37742 0.0
C2443 C 0.16887 0.66145 0.40434 0.0
C2444 C 0.18266 0.65187 0.35373 0.0
C2445 C 0.1977 0.65893 0.32387 0.0
C2446 C 0.19279 0.67627 0.30065 0.0
C2447 C 0.207 0.6829 0.2725 0.0
C2448 C 0.22625 0.67239 0.26731 0.0
C2449 C 0.23115 0.65502 0.29022 0.0
C2450 C 0.21684 0.64819 0.31835 0.0
C2451 C 0.09042 0.56801 0.4067 0.0
C2452 C 0.10263 0.55003 0.41249 0.0
C2453 C 0.10484 0.59086 0.39409 0.0
C2454 C 0.13179 0.59605 0.38812 0.0
C2455 C 0.14292 0.57738 0.39019 0.0
C2456 C 0.12835 0.55441 0.40214 0.0
C2457 C 0.14943 0.62121 0.3846 0.0
C2458 C 0.16527 0.62831 0.35776 0.0
C2459 C 0.15148 0.63787 0.40848 0.0
C2460 C 0.13652 0.63102 0.43851 0.0
C2461 C 0.13898 0.61179 0.46003 0.0
C2462 C 0.12461 0.60529 0.48804 0.0
C2463 C 0.10797 0.61802 0.49515 0.0
C2464 C 0.10566 0.63736 0.47415 0.0
C2465 C 0.11989 0.6439 0.44595 0.0
H2466 H 0.09691 0.61291 0.51694 0.0
H2467 H 0.23728 0.67763 0.2455 0.0
H2468 H 0.4565 0.27046 0.42843 0.0
H2469 H 0.47541 0.23894 0.4508 0.0
H2470 H 0.41906 0.18818 0.38783 0.0
H2471 H 0.40035 0.21944 0.36521 0.0
H2472 H 0.41864 0.17577 0.45873 0.0
H2473 H 0.47647 0.20076 0.37018 0.0
H2474 H 0.50932 0.22989 0.33563 0.0
H2475 H 0.56575 0.24687 0.41917 0.0
H2476 H 0.53301 0.21808 0.45437 0.0
H2477 H 0.45806 0.07168 0.48576 0.0
H2478 H 0.44415 0.10607 0.46448 0.0
H2479 H 0.51458 0.15429 0.51297 0.0
H2480 H 0.52901 0.11995 0.53359 0.0
H2481 H 0.50886 0.16966 0.45149 0.0
H2482 H 0.45038 0.14401 0.54043 0.0
H2483 H 0.41633 0.11558 0.57437 0.0
H2484 H 0.36091 0.0996 0.49004 0.0
H2485 H 0.39443 0.12802 0.45547 0.0
C2486 C 0.44869 0.25273 0.41883 0.0
C2487 C 0.42707 0.24735 0.3951 0.0
C2488 C 0.45944 0.23482 0.43157 0.0
C2489 C 0.44842 0.21135 0.42098 0.0
C2490 C 0.42774 0.20625 0.39619 0.0
C2491 C 0.41728 0.22418 0.38313 0.0
C2492 C 0.45666 0.19156 0.43784 0.0
C2493 C 0.43827 0.17423 0.457 0.0
C2494 C 0.48247 0.19014 0.43605 0.0
C2495 C 0.50216 0.20751 0.415 0.0
C2496 C 0.49576 0.21091 0.38128 0.0
C2497 C 0.51439 0.22731 0.36155 0.0
C2498 C 0.53958 0.24029 0.37522 0.0
C2499 C 0.5462 0.23684 0.40863 0.0
C2500 C 0.52762 0.22048 0.42849 0.0
C2501 C 0.47046 0.08959 0.49212 0.0
C2502 C 0.49475 0.0932 0.51099 0.0
C2503 C 0.46239 0.10921 0.48015 0.0
C2504 C 0.47822 0.13272 0.4874 0.0
C2505 C 0.50212 0.13629 0.50705 0.0
C2506 C 0.51034 0.11668 0.51873 0.0
C2507 C 0.47078 0.15362 0.4725 0.0
C2508 C 0.48931 0.17124 0.45364 0.0
C2509 C 0.44504 0.15532 0.47458 0.0
C2510 C 0.425 0.138 0.4953 0.0
C2511 C 0.431 0.13431 0.52906 0.0
C2512 C 0.41179 0.11825 0.54843 0.0
C2513 C 0.3866 0.10571 0.53439 0.0
C2514 C 0.38046 0.1093 0.5009 0.0
C2515 C 0.3995 0.12545 0.48141 0.0
H2516 H 0.37183 0.09326 0.5495 0.0
H2517 H 0.55399 0.25296 0.3599 0.0
H2518 H 0.70684 0.77548 0.69749 0.0
H2519 H 0.67736 0.79751 0.67094 0.0
H2520 H 0.73901 0.86495 0.69018 0.0
H2521 H 0.76769 0.84319 0.71746 0.0
H2522 H 0.69515 0.86514 0.71168 0.0
H2523 H 0.71863 0.8407 0.6122 0.0
H2524 H 0.72086 0.81192 0.57326 0.0
H2525 H 0.63525 0.783 0.56464 0.0
H2526 H 0.6325 0.81123 0.60408 0.0
H2527 H 0.66626 0.95724 0.61332 0.0
H2528 H 0.68383 0.92548 0.63583 0.0
H2529 H 0.60561 0.87289 0.62313 0.0
H2530 H 0.58767 0.90481 0.59908 0.0
H2531 H 0.64886 0.85941 0.60055 0.0
H2532 H 0.62621 0.88689 0.69685 0.0
H2533 H 0.625 0.91729 0.73385 0.0
H2534 H 0.71068 0.94223 0.74574 0.0
H2535 H 0.71244 0.91223 0.70843 0.0
C2536 C 0.71412 0.795 0.69544 0.0
C2537 C 0.7394 0.80767 0.70978 0.0
C2538 C 0.69731 0.80758 0.68027 0.0
C2539 C 0.70584 0.83296 0.67871 0.0
C2540 C 0.73175 0.84541 0.69139 0.0
C2541 C 0.74819 0.83296 0.70695 0.0
C2542 C 0.68763 0.847 0.66661 0.0
C2543 C 0.68517 0.86388 0.68726 0.0
C2544 C 0.67362 0.84481 0.63524 0.0
C2545 C 0.67539 0.82771 0.61175 0.0
C2546 C 0.70029 0.82795 0.60244 0.0
C2547 C 0.70164 0.81175 0.58022 0.0
C2548 C 0.67822 0.79542 0.56686 0.0
C2549 C 0.65338 0.79546 0.57531 0.0
C2550 C 0.65192 0.81154 0.59763 0.0
C2551 C 0.65259 0.93898 0.61529 0.0
C2552 C 0.62544 0.93362 0.60452 0.0
C2553 C 0.66276 0.92081 0.62819 0.0
C2554 C 0.64602 0.89684 0.63113 0.0
C2555 C 0.61885 0.89129 0.62071 0.0
C2556 C 0.60862 0.90954 0.60727 0.0
C2557 C 0.65745 0.87795 0.64522 0.0
C2558 C 0.6585 0.86021 0.62512 0.0
C2559 C 0.67044 0.8794 0.677 0.0
C2560 C 0.66944 0.89736 0.6997 0.0
C2561 C 0.6448 0.89896 0.70718 0.0
C2562 C 0.64402 0.91611 0.72824 0.0
C2563 C 0.66774 0.9317 0.74211 0.0
C2564 C 0.69231 0.93014 0.73499 0.0
C2565 C 0.69321 0.91304 0.71393 0.0
H2566 H 0.66709 0.94497 0.75839 0.0
H2567 H 0.67931 0.78284 0.54974 0.0
H2568 H 0.75021 0.20754 0.31802 0.0
H2569 H 0.72377 0.17276 0.35061 0.0
H2570 H 0.67744 0.2146 0.37978 0.0
H2571 H 0.70401 0.24978 0.34728 0.0
H2572 H 0.69207 0.18484 0.43159 0.0
H2573 H 0.65276 0.17827 0.32027 0.0
H2574 H 0.65632 0.17877 0.26074 0.0
H2575 H 0.68356 0.11726 0.27492 0.0
H2576 H 0.68091 0.1168 0.33465 0.0
H2577 H 0.59186 0.07991 0.49421 0.0
H2578 H 0.61493 0.11826 0.46528 0.0
H2579 H 0.6578 0.0828 0.41469 0.0
H2580 H 0.63448 0.0445 0.44263 0.0
H2581 H 0.64166 0.11134 0.3733 0.0
H2582 H 0.68689 0.11874 0.48057 0.0
H2583 H 0.69316 0.12036 0.54073 0.0
H2584 H 0.66116 0.17891 0.53546 0.0
H2585 H 0.6545 0.17752 0.47525 0.0
C2586 C 0.73447 0.20947 0.33139 0.0
C2587 C 0.72905 0.23142 0.3297 0.0
C2588 C 0.71938 0.18953 0.35004 0.0
C2589 C 0.69844 0.19104 0.36724 0.0
C2590 C 0.69348 0.21308 0.36656 0.0
C2591 C 0.7086 0.23311 0.34786 0.0
C2592 C 0.68115 0.16923 0.38476 0.0
C2593 C 0.68059 0.16887 0.41889 0.0
C2594 C 0.66685 0.14827 0.36812 0.0
C2595 C 0.66686 0.14764 0.33201 0.0
C2596 C 0.65959 0.1649 0.31072 0.0
C2597 C 0.66152 0.16521 0.27694 0.0
C2598 C 0.67031 0.14814 0.2641 0.0
C2599 C 0.67686 0.13053 0.28495 0.0
C2600 C 0.67516 0.13024 0.31877 0.0
C2601 C 0.60607 0.08024 0.47675 0.0
C2602 C 0.6112 0.05904 0.47068 0.0
C2603 C 0.61941 0.10225 0.46043 0.0
C2604 C 0.63832 0.1035 0.43801 0.0
C2605 C 0.64326 0.08232 0.43179 0.0
C2606 C 0.62987 0.06038 0.44786 0.0
C2607 C 0.65281 0.12664 0.42047 0.0
C2608 C 0.65278 0.12733 0.38616 0.0
C2609 C 0.66704 0.14771 0.4371 0.0
C2610 C 0.6699 0.14784 0.47341 0.0
C2611 C 0.68086 0.13176 0.49226 0.0
C2612 C 0.6846 0.13271 0.52636 0.0
C2613 C 0.67757 0.14974 0.54189 0.0
C2614 C 0.66661 0.16574 0.52338 0.0
C2615 C 0.66286 0.16489 0.48928 0.0
H2616 H 0.68066 0.15061 0.56825 0.0
H2617 H 0.67208 0.14855 0.23801 0.0
H2618 H 0.80687 0.70497 0.33938 0.0
H2619 H 0.83279 0.67847 0.35961 0.0
H2620 H 0.90484 0.73356 0.33207 0.0
H2621 H 0.87833 0.75945 0.30958 0.0
H2622 H 0.921 0.69964 0.33096 0.0
H2623 H 0.87391 0.70393 0.42231 0.0
H2624 H 0.83502 0.70041 0.45315 0.0
H2625 H 0.80333 0.62476 0.43766 0.0
H2626 H 0.84159 0.62797 0.40578 0.0
H2627 H 1.00593 0.63608 0.42946 0.0
H2628 H 0.98041 0.66325 0.40793 0.0
H2629 H 0.90777 0.60325 0.40747 0.0
H2630 H 0.93324 0.57615 0.42798 0.0
H2631 H 0.89313 0.64007 0.4243 0.0
H2632 H 0.94261 0.63737 0.33351 0.0
H2633 H 0.98296 0.64232 0.30474 0.0
H2634 H 1.01294 0.71728 0.32472 0.0
H2635 H 0.97289 0.71269 0.35397 0.0
C2636 C 0.82826 0.71186 0.33743 0.0
C2637 C 0.83946 0.73543 0.32217 0.0
C2638 C 0.8438 0.69629 0.34996 0.0
C2639 C 0.87235 0.70299 0.34969 0.0
C2640 C 0.88346 0.72654 0.33397 0.0
C2641 C 0.8678 0.74193 0.32074 0.0
C2642 C 0.89002 0.68599 0.36475 0.0
C2643 C 0.91452 0.68704 0.35174 0.0
C2644 C 0.88341 0.6683 0.39212 0.0
C2645 C 0.86044 0.66627 0.41128 0.0
C2646 C 0.85853 0.68659 0.42522 0.0
C2647 C 0.83655 0.68466 0.4428 0.0
C2648 C 0.8167 0.66239 0.44731 0.0
C2649 C 0.8187 0.64201 0.4341 0.0
C2650 C 0.84047 0.64389 0.41615 0.0
C2651 C 0.98453 0.6283 0.42487 0.0
C2652 C 0.97263 0.60285 0.43115 0.0
C2653 C 0.96944 0.6443 0.41198 0.0
C2654 C 0.94099 0.63643 0.40482 0.0
C2655 C 0.92918 0.61111 0.41191 0.0
C2656 C 0.94427 0.59511 0.42398 0.0
C2657 C 0.92381 0.65383 0.39044 0.0
C2658 C 0.89946 0.65279 0.40356 0.0
C2659 C 0.93083 0.67182 0.36368 0.0
C2660 C 0.95489 0.67462 0.34622 0.0
C2661 C 0.95791 0.65486 0.33198 0.0
C2662 C 0.9807 0.65761 0.31555 0.0
C2663 C 1.00054 0.68008 0.31299 0.0
C2664 C 0.99758 0.69987 0.32678 0.0
C2665 C 0.97483 0.69721 0.34327 0.0
H2666 H 1.01817 0.68218 0.30024 0.0
H2667 H 0.7998 0.66092 0.46112 0.0
H2668 H 0.29307 0.85263 0.36829 0.0
H2669 H 0.32483 0.88075 0.40515 0.0
H2670 H 0.38855 0.85765 0.37735 0.0
H2671 H 0.35677 0.8286 0.3424 0.0
H2672 H 0.39573 0.86392 0.43915 0.0
H2673 H 0.37491 0.91213 0.34417 0.0
H2674 H 0.34359 0.92616 0.30595 0.0
H2675 H 0.31714 0.95293 0.38584 0.0
H2676 H 0.34814 0.93883 0.4246 0.0
H2677 H 0.51003 0.96167 0.48257 0.0
H2678 H 0.47393 0.93172 0.45303 0.0
H2679 H 0.41629 0.95941 0.48807 0.0
H2680 H 0.45238 0.99014 0.51628 0.0
H2681 H 0.40347 0.95054 0.42655 0.0
H2682 H 0.42605 0.90564 0.52101 0.0
H2683 H 0.45641 0.89129 0.56037 0.0
H2684 H 0.47826 0.85786 0.48354 0.0
H2685 H 0.44832 0.87232 0.4436 0.0
C2686 C 0.31381 0.85342 0.37022 0.0
C2687 C 0.3224 0.83865 0.35174 0.0
C2688 C 0.33205 0.86968 0.39115 0.0
C2689 C 0.35937 0.87187 0.39356 0.0
C2690 C 0.36771 0.85655 0.37591 0.0
C2691 C 0.34947 0.84005 0.35556 0.0
C2692 C 0.37953 0.89027 0.41381 0.0
C2693 C 0.39755 0.88289 0.43611 0.0
C2694 C 0.38156 0.91501 0.41078 0.0
C2695 C 0.36368 0.92426 0.3873 0.0
C2696 C 0.36239 0.92098 0.35358 0.0
C2697 C 0.34468 0.92893 0.33183 0.0
C2698 C 0.32834 0.94037 0.34347 0.0
C2699 C 0.3298 0.94404 0.37687 0.0
C2700 C 0.34746 0.93612 0.39872 0.0
C2701 C 0.48968 0.9614 0.48404 0.0
C2702 C 0.48415 0.97813 0.50232 0.0
C2703 C 0.46898 0.94413 0.46726 0.0
C2704 C 0.4422 0.94292 0.46873 0.0
C2705 C 0.43669 0.9598 0.48663 0.0
C2706 C 0.45739 0.97724 0.50309 0.0
C2707 C 0.42001 0.92424 0.45135 0.0
C2708 C 0.4016 0.93156 0.42969 0.0
C2709 C 0.41751 0.89942 0.45512 0.0
C2710 C 0.43506 0.8902 0.47925 0.0
C2711 C 0.43741 0.89531 0.51247 0.0
C2712 C 0.45454 0.88716 0.53489 0.0
C2713 C 0.46928 0.8737 0.52444 0.0
C2714 C 0.46683 0.86829 0.49158 0.0
C2715 C 0.44975 0.87643 0.46905 0.0
H2716 H 0.48257 0.86744 0.54181 0.0
H2717 H 0.31455 0.94641 0.32663 0.0
H2718 H 0.28194 0.33916 0.36777 0.0
H2719 H 0.25961 0.36332 0.39223 0.0
H2720 H 0.19671 0.34615 0.31544 0.0
H2721 H 0.21936 0.32218 0.29066 0.0
H2722 H 0.1994 0.38852 0.32724 0.0
H2723 H 0.19439 0.3239 0.40789 0.0
H2724 H 0.21083 0.29696 0.44733 0.0
H2725 H 0.25938 0.35776 0.50031 0.0
H2726 H 0.24346 0.3851 0.46095 0.0
H2727 H 0.10692 0.42988 0.4052 0.0
H2728 H 0.13179 0.4075 0.38266 0.0
H2729 H 0.19545 0.43203 0.45698 0.0
H2730 H 0.17016 0.45491 0.48001 0.0
H2731 H 0.19368 0.38693 0.44714 0.0
H2732 H 0.19627 0.45123 0.36722 0.0
H2733 H 0.17998 0.47774 0.32694 0.0
H2734 H 0.13574 0.41689 0.27144 0.0
H2735 H 0.15129 0.38991 0.31178 0.0
C2736 C 0.26331 0.34029 0.35575 0.0
C2737 C 0.25313 0.32794 0.32652 0.0
C2738 C 0.25002 0.35431 0.37032 0.0
C2739 C 0.22531 0.3571 0.357 0.0
C2740 C 0.21534 0.34503 0.32744 0.0
C2741 C 0.2286 0.33091 0.31292 0.0
C2742 C 0.21037 0.37247 0.37308 0.0
C2743 C 0.19801 0.38759 0.35352 0.0
C2744 C 0.2082 0.37288 0.40771 0.0
C2745 C 0.21798 0.35657 0.43125 0.0
C2746 C 0.20873 0.33154 0.42781 0.0
C2747 C 0.21792 0.3162 0.45018 0.0
C2748 C 0.23619 0.32565 0.47626 0.0
C2749 C 0.24526 0.35047 0.48007 0.0
C2750 C 0.23616 0.3659 0.45774 0.0
C2751 C 0.12629 0.43096 0.41718 0.0
C2752 C 0.13577 0.44513 0.44505 0.0
C2753 C 0.141 0.41785 0.40366 0.0
C2754 C 0.16661 0.41752 0.41683 0.0
C2755 C 0.17614 0.43134 0.44517 0.0
C2756 C 0.16141 0.44485 0.45861 0.0
C2757 C 0.18255 0.40283 0.40123 0.0
C2758 C 0.19506 0.38783 0.42086 0.0
C2759 C 0.18474 0.40243 0.36659 0.0
C2760 C 0.17466 0.41848 0.34284 0.0
C2761 C 0.18278 0.44344 0.34669 0.0
C2762 C 0.17371 0.45856 0.32379 0.0
C2763 C 0.15674 0.44899 0.29673 0.0
C2764 C 0.14879 0.42427 0.2925 0.0
C2765 C 0.1577 0.40905 0.3154 0.0
H2766 H 0.14983 0.46075 0.27897 0.0
H2767 H 0.24327 0.31374 0.49357 0.0
H2768 H 0.41843 0.21237 0.7063 0.0
H2769 H 0.44072 0.18538 0.68966 0.0
H2770 H 0.36899 0.14689 0.6333 0.0
H2771 H 0.34645 0.17389 0.65008 0.0
H2772 H 0.39248 0.11591 0.66421 0.0
H2773 H 0.4202 0.1872 0.5943 0.0
H2774 H 0.43759 0.23089 0.58002 0.0
H2775 H 0.51167 0.23491 0.63498 0.0
H2776 H 0.49458 0.19127 0.64993 0.0
H2777 H 0.46415 0.05791 0.57896 0.0
H2778 H 0.43656 0.08182 0.59112 0.0
H2779 H 0.50238 0.12614 0.6511 0.0
H2780 H 0.53021 0.10285 0.63837 0.0
H2781 H 0.47876 0.15328 0.61317 0.0
H2782 H 0.44783 0.07995 0.68415 0.0
H2783 H 0.42926 0.03578 0.69367 0.0
H2784 H 0.35966 0.03522 0.63093 0.0
H2785 H 0.378 0.07936 0.62071 0.0
C2786 C 0.40738 0.19819 0.69031 0.0
C2787 C 0.38076 0.19549 0.67916 0.0
C2788 C 0.42015 0.18274 0.68082 0.0
C2789 C 0.40673 0.16437 0.65965 0.0
C2790 C 0.3798 0.16098 0.64952 0.0
C2791 C 0.36693 0.1764 0.65918 0.0
C2792 C 0.4212 0.14927 0.64759 0.0
C2793 C 0.4112 0.12407 0.65274 0.0
C2794 C 0.4456 0.15981 0.63248 0.0
C2795 C 0.45602 0.18603 0.62348 0.0
C2796 C 0.44012 0.19744 0.60354 0.0
C2797 C 0.44994 0.22218 0.59529 0.0
C2798 C 0.4757 0.23568 0.60665 0.0
C2799 C 0.49172 0.22444 0.62622 0.0
C2800 C 0.48199 0.1997 0.63456 0.0
C2801 C 0.47277 0.07278 0.59468 0.0
C2802 C 0.49939 0.07837 0.60779 0.0
C2803 C 0.45691 0.08638 0.60176 0.0
C2804 C 0.46724 0.10562 0.62245 0.0
C2805 C 0.4939 0.11137 0.63516 0.0
C2806 C 0.50979 0.09794 0.62792 0.0
C2807 C 0.45061 0.12001 0.63094 0.0
C2808 C 0.4601 0.14511 0.62479 0.0
C2809 C 0.42562 0.10932 0.64471 0.0
C2810 C 0.41434 0.08291 0.65155 0.0
C2811 C 0.4286 0.07038 0.67233 0.0
C2812 C 0.41813 0.04536 0.67783 0.0
C2813 C 0.39332 0.0327 0.66288 0.0
C2814 C 0.37888 0.04505 0.64249 0.0
C2815 C 0.38928 0.07007 0.63687 0.0
H2816 H 0.38527 0.01333 0.66712 0.0
H2817 H 0.48326 0.25483 0.60024 0.0
H2818 H 0.87625 0.32475 0.75513 0.0
H2819 H 0.91093 0.35403 0.72403 0.0
H2820 H 0.85176 0.35911 0.64688 0.0
H2821 H 0.81682 0.32951 0.67788 0.0
H2822 H 0.89651 0.35697 0.62159 0.0
H2823 H 0.87954 0.40325 0.70439 0.0
H2824 H 0.8758 0.41007 0.76194 0.0
H2825 H 0.95805 0.41554 0.78472 0.0
H2826 H 0.96217 0.40831 0.72743 0.0
H2827 H 0.96205 0.46574 0.53414 0.0
H2828 H 0.93343 0.43286 0.56769 0.0
H2829 H 1.00034 0.43572 0.6372 0.0
H2830 H 0.02943 0.46896 0.60299 0.0
H2831 H 0.95544 0.43255 0.66907 0.0
H2832 H 0.97529 0.38794 0.59155 0.0
H2833 H 0.9817 0.37596 0.5377 0.0
H2834 H 0.89875 0.36377 0.50868 0.0
H2835 H 0.89193 0.37598 0.56205 0.0
C2836 C 0.87045 0.33201 0.73153 0.0
C2837 C 0.84344 0.3246 0.71925 0.0
C2838 C 0.89046 0.34898 0.71373 0.0
C2839 C 0.88422 0.3593 0.68306 0.0
C2840 C 0.85733 0.35165 0.67045 0.0
C2841 C 0.83725 0.33467 0.68831 0.0
C2842 C 0.90561 0.37787 0.66412 0.0
C2843 C 0.90905 0.37364 0.6319 0.0
C2844 C 0.92317 0.39927 0.67779 0.0
C2845 C 0.92107 0.40495 0.71171 0.0
C2846 C 0.89681 0.40585 0.72168 0.0
C2847 C 0.89461 0.40975 0.75425 0.0
C2848 C 0.91662 0.41302 0.77697 0.0
C2849 C 0.94099 0.41285 0.76709 0.0
C2850 C 0.94328 0.40887 0.73457 0.0
C2851 C 0.9709 0.45911 0.55626 0.0
C2852 C 0.9982 0.46989 0.56555 0.0
C2853 C 0.9544 0.44023 0.57557 0.0
C2854 C 0.96445 0.4315 0.60522 0.0
C2855 C 0.9919 0.44199 0.61452 0.0
C2856 C 1.00866 0.46082 0.59475 0.0
C2857 C 0.94582 0.41187 0.62622 0.0
C2858 C 0.94288 0.41589 0.65876 0.0
C2859 C 0.92911 0.38997 0.61321 0.0
C2860 C 0.93314 0.38307 0.58072 0.0
C2861 C 0.95847 0.38293 0.57353 0.0
C2862 C 0.96217 0.37603 0.5431 0.0
C2863 C 0.94066 0.36907 0.51974 0.0
C2864 C 0.91542 0.36909 0.52672 0.0
C2865 C 0.91161 0.376 0.55708 0.0
H2866 H 0.94361 0.36365 0.49629 0.0
H2867 H 0.91477 0.4156 0.80225 0.0
H2868 H 0.24417 0.73375 0.67927 0.0
H2869 H 0.21821 0.70134 0.64375 0.0
H2870 H 0.24093 0.64943 0.71016 0.0
H2871 H 0.26732 0.68175 0.74531 0.0
H2872 H 0.23127 0.66919 0.60912 0.0
H2873 H 0.18573 0.59493 0.71035 0.0
H2874 H 0.16872 0.59083 0.76519 0.0
H2875 H 0.15753 0.66006 0.74844 0.0
H2876 H 0.17403 0.66442 0.69333 0.0
H2877 H 0.16971 0.55389 0.53547 0.0
H2878 H 0.19746 0.58717 0.56879 0.0
H2879 H 0.12645 0.59533 0.60168 0.0
H2880 H 0.09891 0.56246 0.56887 0.0
H2881 H 0.16009 0.59805 0.65248 0.0
H2882 H 0.16798 0.64344 0.54693 0.0
H2883 H 0.17771 0.65247 0.48871 0.0
H2884 H 0.25503 0.64443 0.51111 0.0
H2885 H 0.24622 0.63646 0.56978 0.0
C2886 C 0.24376 0.71547 0.68637 0.0
C2887 C 0.25813 0.71066 0.71542 0.0
C2888 C 0.22887 0.69682 0.66584 0.0
C2889 C 0.22724 0.67257 0.67395 0.0
C2890 C 0.24146 0.66775 0.70306 0.0
C2891 C 0.25675 0.68642 0.72324 0.0
C2892 C 0.21078 0.65244 0.65221 0.0
C2893 C 0.2159 0.65358 0.61889 0.0
C2894 C 0.19006 0.63199 0.66406 0.0
C2895 C 0.18144 0.63011 0.69782 0.0
C2896 C 0.17968 0.6093 0.71838 0.0
C2897 C 0.16998 0.60687 0.74945 0.0
C2898 C 0.16189 0.62511 0.76019 0.0
C2899 C 0.16372 0.64592 0.74003 0.0
C2900 C 0.17335 0.64841 0.70892 0.0
C2901 C 0.15996 0.56276 0.54974 0.0
C2902 C 0.13178 0.55513 0.54906 0.0
C2903 C 0.17594 0.58207 0.56875 0.0
C2904 C 0.16435 0.59428 0.58804 0.0
C2905 C 0.13628 0.58652 0.58741 0.0
C2906 C 0.12039 0.56752 0.56832 0.0
C2907 C 0.18102 0.61449 0.60963 0.0
C2908 C 0.17586 0.61342 0.64292 0.0
C2909 C 0.20127 0.6352 0.59767 0.0
C2910 C 0.20635 0.6391 0.56252 0.0
C2911 C 0.18698 0.64345 0.53935 0.0
C2912 C 0.19236 0.64846 0.50632 0.0
C2913 C 0.21677 0.64863 0.4961 0.0
C2914 C 0.23606 0.64417 0.51902 0.0
C2915 C 0.231 0.63963 0.5522 0.0
H2916 H 0.22081 0.6524 0.47048 0.0
H2917 H 0.15444 0.62322 0.78428 0.0
loop_
_geom_bond_atom_site_label_1
_geom_bond_atom_site_label_2
_geom_bond_distance
_geom_bond_site_symmetry_2
_ccdc_geom_bond_type
Tb0 C9 2.764 . S
Tb0 O10 2.325 . S
Tb0 O13 2.303 . S
Tb0 O17 2.322 . S
Tb0 O18 2.349 . S
Tb0 O21 2.415 . S
Tb0 O22 2.399 . S
Tb1 O11 2.322 . S
Tb1 O12 2.349 . S
Tb1 O14 2.415 . S
Tb1 O15 2.399 . S
Tb1 O16 2.325 . S
Tb1 O19 2.303 . S
Tb1 C30 2.764 . S
C2 O18 1.261 . S
C2 O19 1.257 . S
C3 C6 1.358 . S
C3 C7 1.332 . S
C3 C9 1.504 . S
C4 C5 1.373 . S
C4 C8 1.308 . S
C5 C4 1.373 . S
C5 C6 1.429 . S
C5 H32 0.932 . S
C6 C3 1.358 . S
C6 C5 1.429 . S
C6 H33 0.930 . S
C7 C3 1.332 . S
C7 C8 1.394 . S
C7 H34 0.932 . S
C8 C4 1.308 . S
C8 C7 1.394 . S
C8 H35 0.929 . S
C9 Tb0 2.764 . S
C9 C3 1.504 . S
C9 O21 1.239 . S
C9 O22 1.263 . S
O10 Tb0 2.325 . S
O10 C20 1.236 . S
O11 Tb1 2.322 . S
O11 C20 1.257 . S
O12 Tb1 2.349 . S
O12 C23 1.261 . S
O13 Tb0 2.303 . S
O13 C23 1.257 . S
O14 Tb1 2.415 . S
O14 C30 1.239 . S
O15 Tb1 2.399 . S
O15 C30 1.263 . S
O16 Tb1 2.325 . S
O16 C31 1.236 . S
O17 Tb0 2.322 . S
O17 C31 1.257 . S
O18 Tb0 2.349 . S
O18 C2 1.261 . S
O19 Tb1 2.303 . S
O19 C2 1.257 . S
C20 O10 1.236 . S
C20 O11 1.257 . S
O21 Tb0 2.415 . S
O21 C9 1.239 . S
O22 Tb0 2.399 . S
O22 C9 1.263 . S
C23 O12 1.261 . S
C23 O13 1.257 . S
C24 C27 1.358 . S
C24 C28 1.332 . S
C24 C30 1.504 . S
C25 C26 1.373 . S
C25 C29 1.308 . S
C26 C25 1.373 . S
C26 C27 1.429 . S
C26 H36 0.932 . S
C27 C24 1.358 . S
C27 C26 1.429 . S
C27 H37 0.930 . S
C28 C24 1.332 . S
C28 C29 1.394 . S
C28 H38 0.932 . S
C29 C25 1.308 . S
C29 C28 1.394 . S
C29 H39 0.929 . S
C30 Tb1 2.764 . S
C30 O14 1.239 . S
C30 O15 1.263 . S
C30 C24 1.504 . S
C31 O16 1.236 . S
C31 O17 1.257 . S
H32 C5 0.932 . S
H33 C6 0.930 . S
H34 C7 0.932 . S
H35 C8 0.929 . S
H36 C26 0.932 . S
H37 C27 0.930 . S
H38 C28 0.932 . S
H39 C29 0.929 . S
Tb40 C49 2.764 . S
Tb40 O50 2.325 . S
Tb40 O53 2.303 . S
Tb40 O57 2.322 . S
Tb40 O58 2.349 . S
Tb40 O61 2.415 . S
Tb40 O62 2.399 . S
Tb41 O51 2.322 . S
Tb41 O52 2.349 . S
Tb41 O54 2.415 . S
Tb41 O55 2.399 . S
Tb41 O56 2.325 . S
Tb41 O59 2.303 . S
Tb41 C70 2.764 . S
C42 O58 1.261 . S
C42 O59 1.257 . S
C43 C46 1.358 . S
C43 C47 1.332 . S
C43 C49 1.504 . S
C44 C45 1.373 . S
C44 C48 1.308 . S
C45 C44 1.373 . S
C45 C46 1.429 . S
C45 H72 0.932 . S
C46 C43 1.358 . S
C46 C45 1.429 . S
C46 H73 0.930 . S
C47 C43 1.332 . S
C47 C48 1.394 . S
C47 H74 0.932 . S
C48 C44 1.308 . S
C48 C47 1.394 . S
C48 H75 0.929 . S
C49 Tb40 2.764 . S
C49 C43 1.504 . S
C49 O61 1.239 . S
C49 O62 1.263 . S
O50 Tb40 2.325 . S
O50 C60 1.236 . S
O51 Tb41 2.322 . S
O51 C60 1.257 . S
O52 Tb41 2.349 . S
O52 C63 1.261 . S
O53 Tb40 2.303 . S
O53 C63 1.257 . S
O54 Tb41 2.415 . S
O54 C70 1.239 . S
O55 Tb41 2.399 . S
O55 C70 1.263 . S
O56 Tb41 2.325 . S
O56 C71 1.236 . S
O57 Tb40 2.322 . S
O57 C71 1.257 . S
O58 Tb40 2.349 . S
O58 C42 1.261 . S
O59 Tb41 2.303 . S
O59 C42 1.257 . S
C60 O50 1.236 . S
C60 O51 1.257 . S
O61 Tb40 2.415 . S
O61 C49 1.239 . S
O62 Tb40 2.399 . S
O62 C49 1.263 . S
C63 O52 1.261 . S
C63 O53 1.257 . S
C64 C67 1.358 . S
C64 C68 1.332 . S
C64 C70 1.504 . S
C65 C66 1.373 . S
C65 C69 1.308 . S
C66 C65 1.373 . S
C66 C67 1.429 . S
C66 H76 0.932 . S
C67 C64 1.358 . S
C67 C66 1.429 . S
C67 H77 0.930 . S
C68 C64 1.332 . S
C68 C69 1.394 . S
C68 H78 0.932 . S
C69 C65 1.308 . S
C69 C68 1.394 . S
C69 H79 0.929 . S
C70 Tb41 2.764 . S
C70 O54 1.239 . S
C70 O55 1.263 . S
C70 C64 1.504 . S
C71 O56 1.236 . S
C71 O57 1.257 . S
H72 C45 0.932 . S
H73 C46 0.930 . S
H74 C47 0.932 . S
H75 C48 0.929 . S
H76 C66 0.932 . S
H77 C67 0.930 . S
H78 C68 0.932 . S
H79 C69 0.929 . S
Tb80 C89 2.764 . S
Tb80 O90 2.325 . S
Tb80 O93 2.303 . S
Tb80 O97 2.322 . S
Tb80 O98 2.349 . S
Tb80 O101 2.415 . S
Tb80 O102 2.399 . S
Tb81 O91 2.322 . S
Tb81 O92 2.349 . S
Tb81 O94 2.415 . S
Tb81 O95 2.399 . S
Tb81 O96 2.325 . S
Tb81 O99 2.303 . S
Tb81 C110 2.764 . S
C82 O98 1.261 . S
C82 O99 1.257 . S
C83 C86 1.358 . S
C83 C87 1.332 . S
C83 C89 1.504 . S
C84 C85 1.373 . S
C84 C88 1.308 . S
C85 C84 1.373 . S
C85 C86 1.429 . S
C85 H112 0.932 . S
C86 C83 1.358 . S
C86 C85 1.429 . S
C86 H113 0.930 . S
C87 C83 1.332 . S
C87 C88 1.394 . S
C87 H114 0.932 . S
C88 C84 1.308 . S
C88 C87 1.394 . S
C88 H115 0.929 . S
C89 Tb80 2.764 . S
C89 C83 1.504 . S
C89 O101 1.239 . S
C89 O102 1.263 . S
O90 Tb80 2.325 . S
O90 C100 1.236 . S
O91 Tb81 2.322 . S
O91 C100 1.257 . S
O92 Tb81 2.349 . S
O92 C103 1.261 . S
O93 Tb80 2.303 . S
O93 C103 1.257 . S
O94 Tb81 2.415 . S
O94 C110 1.239 . S
O95 Tb81 2.399 . S
O95 C110 1.263 . S
O96 Tb81 2.325 . S
O96 C111 1.236 . S
O97 Tb80 2.322 . S
O97 C111 1.257 . S
O98 Tb80 2.349 . S
O98 C82 1.261 . S
O99 Tb81 2.303 . S
O99 C82 1.257 . S
C100 O90 1.236 . S
C100 O91 1.257 . S
O101 Tb80 2.415 . S
O101 C89 1.239 . S
O102 Tb80 2.399 . S
O102 C89 1.263 . S
C103 O92 1.261 . S
C103 O93 1.257 . S
C104 C107 1.358 . S
C104 C108 1.332 . S
C104 C110 1.504 . S
C105 C106 1.373 . S
C105 C109 1.308 . S
C106 C105 1.373 . S
C106 C107 1.429 . S
C106 H116 0.932 . S
C107 C104 1.358 . S
C107 C106 1.429 . S
C107 H117 0.930 . S
C108 C104 1.332 . S
C108 C109 1.394 . S
C108 H118 0.932 . S
C109 C105 1.308 . S
C109 C108 1.394 . S
C109 H119 0.929 . S
C110 Tb81 2.764 . S
C110 O94 1.239 . S
C110 O95 1.263 . S
C110 C104 1.504 . S
C111 O96 1.236 . S
C111 O97 1.257 . S
H112 C85 0.932 . S
H113 C86 0.930 . S
H114 C87 0.932 . S
H115 C88 0.929 . S
H116 C106 0.932 . S
H117 C107 0.930 . S
H118 C108 0.932 . S
H119 C109 0.929 . S
Tb120 C129 2.764 . S
Tb120 O130 2.325 . S
Tb120 O133 2.303 . S
Tb120 O137 2.322 . S
Tb120 O138 2.349 . S
Tb120 O141 2.415 . S
Tb120 O142 2.399 . S
Tb121 O131 2.322 . S
Tb121 O132 2.349 . S
Tb121 O134 2.415 . S
Tb121 O135 2.399 . S
Tb121 O136 2.325 . S
Tb121 O139 2.303 . S
Tb121 C150 2.764 . S
C122 O138 1.261 . S
C122 O139 1.257 . S
C123 C126 1.358 . S
C123 C127 1.332 . S
C123 C129 1.504 . S
C124 C125 1.373 . S
C124 C128 1.308 . S
C125 C124 1.373 . S
C125 C126 1.429 . S
C125 H152 0.932 . S
C126 C123 1.358 . S
C126 C125 1.429 . S
C126 H153 0.930 . S
C127 C123 1.332 . S
C127 C128 1.394 . S
C127 H154 0.932 . S
C128 C124 1.308 . S
C128 C127 1.394 . S
C128 H155 0.929 . S
C129 Tb120 2.764 . S
C129 C123 1.504 . S
C129 O141 1.239 . S
C129 O142 1.263 . S
O130 Tb120 2.325 . S
O130 C140 1.236 . S
O131 Tb121 2.322 . S
O131 C140 1.257 . S
O132 Tb121 2.349 . S
O132 C143 1.261 . S
O133 Tb120 2.303 . S
O133 C143 1.257 . S
O134 Tb121 2.415 . S
O134 C150 1.239 . S
O135 Tb121 2.399 . S
O135 C150 1.263 . S
O136 Tb121 2.325 . S
O136 C151 1.236 . S
O137 Tb120 2.322 . S
O137 C151 1.257 . S
O138 Tb120 2.349 . S
O138 C122 1.261 . S
O139 Tb121 2.303 . S
O139 C122 1.257 . S
C140 O130 1.236 . S
C140 O131 1.257 . S
O141 Tb120 2.415 . S
O141 C129 1.239 . S
O142 Tb120 2.399 . S
O142 C129 1.263 . S
C143 O132 1.261 . S
C143 O133 1.257 . S
C144 C147 1.358 . S
C144 C148 1.332 . S
C144 C150 1.504 . S
C145 C146 1.373 . S
C145 C149 1.308 . S
C146 C145 1.373 . S
C146 C147 1.429 . S
C146 H156 0.932 . S
C147 C144 1.358 . S
C147 C146 1.429 . S
C147 H157 0.930 . S
C148 C144 1.332 . S
C148 C149 1.394 . S
C148 H158 0.932 . S
C149 C145 1.308 . S
C149 C148 1.394 . S
C149 H159 0.929 . S
C150 Tb121 2.764 . S
C150 O134 1.239 . S
C150 O135 1.263 . S
C150 C144 1.504 . S
C151 O136 1.236 . S
C151 O137 1.257 . S
H152 C125 0.932 . S
H153 C126 0.930 . S
H154 C127 0.932 . S
H155 C128 0.929 . S
H156 C146 0.932 . S
H157 C147 0.930 . S
H158 C148 0.932 . S
H159 C149 0.929 . S
Tb160 C169 2.764 . S
Tb160 O170 2.325 . S
Tb160 O173 2.303 . S
Tb160 O177 2.322 . S
Tb160 O178 2.349 . S
Tb160 O181 2.415 . S
Tb160 O182 2.399 . S
Tb161 O171 2.322 . S
Tb161 O172 2.349 . S
Tb161 O174 2.415 . S
Tb161 O175 2.399 . S
Tb161 O176 2.325 . S
Tb161 O179 2.303 . S
Tb161 C190 2.764 . S
C162 O178 1.261 . S
C162 O179 1.257 . S
C163 C166 1.358 . S
C163 C167 1.332 . S
C163 C169 1.504 . S
C164 C165 1.373 . S
C164 C168 1.308 . S
C165 C164 1.373 . S
C165 C166 1.429 . S
C165 H192 0.932 . S
C166 C163 1.358 . S
C166 C165 1.429 . S
C166 H193 0.930 . S
C167 C163 1.332 . S
C167 C168 1.394 . S
C167 H194 0.932 . S
C168 C164 1.308 . S
C168 C167 1.394 . S
C168 H195 0.929 . S
C169 Tb160 2.764 . S
C169 C163 1.504 . S
C169 O181 1.239 . S
C169 O182 1.263 . S
O170 Tb160 2.325 . S
O170 C180 1.236 . S
O171 Tb161 2.322 . S
O171 C180 1.257 . S
O172 Tb161 2.349 . S
O172 C183 1.261 . S
O173 Tb160 2.303 . S
O173 C183 1.257 . S
O174 Tb161 2.415 . S
O174 C190 1.239 . S
O175 Tb161 2.399 . S
O175 C190 1.263 . S
O176 Tb161 2.325 . S
O176 C191 1.236 . S
O177 Tb160 2.322 . S
O177 C191 1.257 . S
O178 Tb160 2.349 . S
O178 C162 1.261 . S
O179 Tb161 2.303 . S
O179 C162 1.257 . S
C180 O170 1.236 . S
C180 O171 1.257 . S
O181 Tb160 2.415 . S
O181 C169 1.239 . S
O182 Tb160 2.399 . S
O182 C169 1.263 . S
C183 O172 1.261 . S
C183 O173 1.257 . S
C184 C187 1.358 . S
C184 C188 1.332 . S
C184 C190 1.504 . S
C185 C186 1.373 . S
C185 C189 1.308 . S
C186 C185 1.373 . S
C186 C187 1.429 . S
C186 H196 0.932 . S
C187 C184 1.358 . S
C187 C186 1.429 . S
C187 H197 0.930 . S
C188 C184 1.332 . S
C188 C189 1.394 . S
C188 H198 0.932 . S
C189 C185 1.308 . S
C189 C188 1.394 . S
C189 H199 0.929 . S
C190 Tb161 2.764 . S
C190 O174 1.239 . S
C190 O175 1.263 . S
C190 C184 1.504 . S
C191 O176 1.236 . S
C191 O177 1.257 . S
H192 C165 0.932 . S
H193 C166 0.930 . S
H194 C167 0.932 . S
H195 C168 0.929 . S
H196 C186 0.932 . S
H197 C187 0.930 . S
H198 C188 0.932 . S
H199 C189 0.929 . S
Tb200 C209 2.764 . S
Tb200 O210 2.325 . S
Tb200 O213 2.303 . S
Tb200 O217 2.322 . S
Tb200 O218 2.349 . S
Tb200 O221 2.415 . S
Tb200 O222 2.399 . S
Tb201 O211 2.322 . S
Tb201 O212 2.349 . S
Tb201 O214 2.415 . S
Tb201 O215 2.399 . S
Tb201 O216 2.325 . S
Tb201 O219 2.303 . S
Tb201 C230 2.764 . S
C202 O218 1.261 . S
C202 O219 1.257 . S
C203 C206 1.358 . S
C203 C207 1.332 . S
C203 C209 1.504 . S
C204 C205 1.373 . S
C204 C208 1.308 . S
C205 C204 1.373 . S
C205 C206 1.429 . S
C205 H232 0.932 . S
C206 C203 1.358 . S
C206 C205 1.429 . S
C206 H233 0.930 . S
C207 C203 1.332 . S
C207 C208 1.394 . S
C207 H234 0.932 . S
C208 C204 1.308 . S
C208 C207 1.394 . S
C208 H235 0.929 . S
C209 Tb200 2.764 . S
C209 C203 1.504 . S
C209 O221 1.239 . S
C209 O222 1.263 . S
O210 Tb200 2.325 . S
O210 C220 1.236 . S
O211 Tb201 2.322 . S
O211 C220 1.257 . S
O212 Tb201 2.349 . S
O212 C223 1.261 . S
O213 Tb200 2.303 . S
O213 C223 1.257 . S
O214 Tb201 2.415 . S
O214 C230 1.239 . S
O215 Tb201 2.399 . S
O215 C230 1.263 . S
O216 Tb201 2.325 . S
O216 C231 1.236 . S
O217 Tb200 2.322 . S
O217 C231 1.257 . S
O218 Tb200 2.349 . S
O218 C202 1.261 . S
O219 Tb201 2.303 . S
O219 C202 1.257 . S
C220 O210 1.236 . S
C220 O211 1.257 . S
O221 Tb200 2.415 . S
O221 C209 1.239 . S
O222 Tb200 2.399 . S
O222 C209 1.263 . S
C223 O212 1.261 . S
C223 O213 1.257 . S
C224 C227 1.358 . S
C224 C228 1.332 . S
C224 C230 1.504 . S
C225 C226 1.373 . S
C225 C229 1.308 . S
C226 C225 1.373 . S
C226 C227 1.429 . S
C226 H236 0.932 . S
C227 C224 1.358 . S
C227 C226 1.429 . S
C227 H237 0.930 . S
C228 C224 1.332 . S
C228 C229 1.394 . S
C228 H238 0.932 . S
C229 C225 1.308 . S
C229 C228 1.394 . S
C229 H239 0.929 . S
C230 Tb201 2.764 . S
C230 O214 1.239 . S
C230 O215 1.263 . S
C230 C224 1.504 . S
C231 O216 1.236 . S
C231 O217 1.257 . S
H232 C205 0.932 . S
H233 C206 0.930 . S
H234 C207 0.932 . S
H235 C208 0.929 . S
H236 C226 0.932 . S
H237 C227 0.930 . S
H238 C228 0.932 . S
H239 C229 0.929 . S
Tb240 C249 2.764 . S
Tb240 O250 2.325 . S
Tb240 O253 2.303 . S
Tb240 O257 2.322 . S
Tb240 O258 2.349 . S
Tb240 O261 2.415 . S
Tb240 O262 2.399 . S
Tb241 O251 2.322 . S
Tb241 O252 2.349 . S
Tb241 O254 2.415 . S
Tb241 O255 2.399 . S
Tb241 O256 2.325 . S
Tb241 O259 2.303 . S
Tb241 C270 2.764 . S
C242 O258 1.261 . S
C242 O259 1.257 . S
C243 C246 1.358 . S
C243 C247 1.332 . S
C243 C249 1.504 . S
C244 C245 1.373 . S
C244 C248 1.308 . S
C245 C244 1.373 . S
C245 C246 1.429 . S
C245 H272 0.932 . S
C246 C243 1.358 . S
C246 C245 1.429 . S
C246 H273 0.930 . S
C247 C243 1.332 . S
C247 C248 1.394 . S
C247 H274 0.932 . S
C248 C244 1.308 . S
C248 C247 1.394 . S
C248 H275 0.929 . S
C249 Tb240 2.764 . S
C249 C243 1.504 . S
C249 O261 1.239 . S
C249 O262 1.263 . S
O250 Tb240 2.325 . S
O250 C260 1.236 . S
O251 Tb241 2.322 . S
O251 C260 1.257 . S
O252 Tb241 2.349 . S
O252 C263 1.261 . S
O253 Tb240 2.303 . S
O253 C263 1.257 . S
O254 Tb241 2.415 . S
O254 C270 1.239 . S
O255 Tb241 2.399 . S
O255 C270 1.263 . S
O256 Tb241 2.325 . S
O256 C271 1.236 . S
O257 Tb240 2.322 . S
O257 C271 1.257 . S
O258 Tb240 2.349 . S
O258 C242 1.261 . S
O259 Tb241 2.303 . S
O259 C242 1.257 . S
C260 O250 1.236 . S
C260 O251 1.257 . S
O261 Tb240 2.415 . S
O261 C249 1.239 . S
O262 Tb240 2.399 . S
O262 C249 1.263 . S
C263 O252 1.261 . S
C263 O253 1.257 . S
C264 C267 1.358 . S
C264 C268 1.332 . S
C264 C270 1.504 . S
C265 C266 1.373 . S
C265 C269 1.308 . S
C266 C265 1.373 . S
C266 C267 1.429 . S
C266 H276 0.932 . S
C267 C264 1.358 . S
C267 C266 1.429 . S
C267 H277 0.930 . S
C268 C264 1.332 . S
C268 C269 1.394 . S
C268 H278 0.932 . S
C269 C265 1.308 . S
C269 C268 1.394 . S
C269 H279 0.929 . S
C270 Tb241 2.764 . S
C270 O254 1.239 . S
C270 O255 1.263 . S
C270 C264 1.504 . S
C271 O256 1.236 . S
C271 O257 1.257 . S
H272 C245 0.932 . S
H273 C246 0.930 . S
H274 C247 0.932 . S
H275 C248 0.929 . S
H276 C266 0.932 . S
H277 C267 0.930 . S
H278 C268 0.932 . S
H279 C269 0.929 . S
Tb280 C289 2.764 . S
Tb280 O290 2.325 . S
Tb280 O293 2.303 . S
Tb280 O297 2.322 . S
Tb280 O298 2.349 . S
Tb280 O301 2.415 . S
Tb280 O302 2.399 . S
Tb281 O291 2.322 . S
Tb281 O292 2.349 . S
Tb281 O294 2.415 . S
Tb281 O295 2.399 . S
Tb281 O296 2.325 . S
Tb281 O299 2.303 . S
Tb281 C310 2.764 . S
C282 O298 1.261 . S
C282 O299 1.257 . S
C283 C286 1.358 . S
C283 C287 1.332 . S
C283 C289 1.504 . S
C284 C285 1.373 . S
C284 C288 1.308 . S
C285 C284 1.373 . S
C285 C286 1.429 . S
C285 H312 0.932 . S
C286 C283 1.358 . S
C286 C285 1.429 . S
C286 H313 0.930 . S
C287 C283 1.332 . S
C287 C288 1.394 . S
C287 H314 0.932 . S
C288 C284 1.308 . S
C288 C287 1.394 . S
C288 H315 0.929 . S
C289 Tb280 2.764 . S
C289 C283 1.504 . S
C289 O301 1.239 . S
C289 O302 1.263 . S
O290 Tb280 2.325 . S
O290 C300 1.236 . S
O291 Tb281 2.322 . S
O291 C300 1.257 . S
O292 Tb281 2.349 . S
O292 C303 1.261 . S
O293 Tb280 2.303 . S
O293 C303 1.257 . S
O294 Tb281 2.415 . S
O294 C310 1.239 . S
O295 Tb281 2.399 . S
O295 C310 1.263 . S
O296 Tb281 2.325 . S
O296 C311 1.236 . S
O297 Tb280 2.322 . S
O297 C311 1.257 . S
O298 Tb280 2.349 . S
O298 C282 1.261 . S
O299 Tb281 2.303 . S
O299 C282 1.257 . S
C300 O290 1.236 . S
C300 O291 1.257 . S
O301 Tb280 2.415 . S
O301 C289 1.239 . S
O302 Tb280 2.399 . S
O302 C289 1.263 . S
C303 O292 1.261 . S
C303 O293 1.257 . S
C304 C307 1.358 . S
C304 C308 1.332 . S
C304 C310 1.504 . S
C305 C306 1.373 . S
C305 C309 1.308 . S
C306 C305 1.373 . S
C306 C307 1.429 . S
C306 H316 0.932 . S
C307 C304 1.358 . S
C307 C306 1.429 . S
C307 H317 0.930 . S
C308 C304 1.332 . S
C308 C309 1.394 . S
C308 H318 0.932 . S
C309 C305 1.308 . S
C309 C308 1.394 . S
C309 H319 0.929 . S
C310 Tb281 2.764 . S
C310 O294 1.239 . S
C310 O295 1.263 . S
C310 C304 1.504 . S
C311 O296 1.236 . S
C311 O297 1.257 . S
H312 C285 0.932 . S
H313 C286 0.930 . S
H314 C287 0.932 . S
H315 C288 0.929 . S
H316 C306 0.932 . S
H317 C307 0.930 . S
H318 C308 0.932 . S
H319 C309 0.929 . S
Co320 O323 2.042 . S
Co320 O330 2.264 . S
Co320 O349 2.286 . S
Co320 O350 2.069 . S
Co320 O352 2.015 1_455 S
Co321 O323 2.122 . S
Co321 O329 2.073 . S
Co321 O330 2.327 . S
Co321 O331 1.976 1_455 S
Co322 O323 2.087 1_545 S
Co322 O325 2.087 1_455 S
Co322 O332 2.111 1_445 S
Co322 O333 2.143 . S
Co322 O337 2.111 . S
Co322 O351 2.143 1_445 S
O323 Co320 2.042 . S
O323 Co321 2.122 . S
O323 Co322 2.087 1_565 S
O323 H324 0.980 1_565 S
H324 O323 0.980 1_545 S
O325 Co322 2.087 1_655 S
O325 Co326 2.042 . S
O325 Co327 2.122 . S
O325 H328 0.980 . S
Co326 O325 2.042 . S
Co326 O334 2.286 . S
Co326 O335 2.069 . S
Co326 O336 2.015 1_655 S
Co326 O339 2.264 . S
Co327 O325 2.122 . S
Co327 O338 1.976 1_655 S
Co327 O339 2.327 . S
Co327 O340 2.073 . S
H328 O325 0.980 . S
O329 Co321 2.073 . S
O329 C344 1.245 . S
O330 Co320 2.264 . S
O330 Co321 2.327 . S
O330 C344 1.257 . S
O331 Co321 1.976 1_655 S
O331 C343 1.251 . S
O332 Co322 2.111 1_665 S
O332 C343 1.274 . S
O333 Co322 2.143 . S
O333 C346 1.246 . S
O334 Co326 2.286 . S
O334 C345 1.259 . S
O335 Co326 2.069 . S
O335 C345 1.289 . S
O336 Co326 2.015 1_455 S
O336 C346 1.257 . S
O337 Co322 2.111 . S
O337 C347 1.274 . S
O338 Co327 1.976 1_455 S
O338 C347 1.251 . S
O339 Co326 2.264 . S
O339 Co327 2.327 . S
O339 C348 1.257 . S
O340 Co327 2.073 . S
O340 C348 1.245 . S
C341 O349 1.259 . S
C341 O350 1.289 . S
C342 O351 1.246 . S
C342 O352 1.257 . S
C343 O331 1.251 . S
C343 O332 1.274 . S
C344 O329 1.245 . S
C344 O330 1.257 . S
C345 O334 1.259 . S
C345 O335 1.289 . S
C346 O333 1.246 . S
C346 O336 1.257 . S
C347 O337 1.274 . S
C347 O338 1.251 . S
C348 O339 1.257 . S
C348 O340 1.245 . S
O349 Co320 2.286 . S
O349 C341 1.259 . S
O350 Co320 2.069 . S
O350 C341 1.289 . S
O351 Co322 2.143 1_665 S
O351 C342 1.246 . S
O352 Co320 2.015 1_655 S
O352 C342 1.257 . S
Co353 O356 2.042 1_565 S
Co353 O363 2.264 . S
Co353 O382 2.284 . S
Co353 O383 2.069 . S
Co353 O385 2.015 . S
Co354 O356 2.122 1_565 S
Co354 O362 2.073 . S
Co354 O363 2.327 . S
Co354 O364 1.976 . S
Co355 O356 2.087 . S
Co355 O358 2.087 . S
Co355 O365 2.111 . S
Co355 O366 2.143 . S
Co355 O370 2.111 . S
Co355 O384 2.143 . S
O356 Co353 2.042 1_545 S
O356 Co354 2.122 1_545 S
O356 Co355 2.087 . S
O356 H357 0.980 . S
H357 O356 0.980 . S
O358 Co355 2.087 . S
O358 Co359 2.042 . S
O358 Co360 2.122 1_554 S
O358 H361 0.980 . S
Co359 O358 2.042 . S
Co359 O367 2.286 . S
Co359 O368 2.069 . S
Co359 O369 2.015 . S
Co359 O372 2.264 . S
Co360 O358 2.122 1_556 S
Co360 O371 1.976 . S
Co360 O372 2.327 1_556 S
Co360 O373 2.073 . S
H361 O358 0.980 . S
O362 Co354 2.073 . S
O362 C377 1.245 . S
O363 Co353 2.264 . S
O363 Co354 2.327 . S
O363 C377 1.257 . S
O364 Co354 1.976 . S
O364 C376 1.251 . S
O365 Co355 2.111 . S
O365 C376 1.274 1_545 S
O366 Co355 2.143 . S
O366 C379 1.246 . S
O367 Co359 2.286 . S
O367 C378 1.259 . S
O368 Co359 2.069 . S
O368 C378 1.289 . S
O369 Co359 2.015 . S
O369 C379 1.257 . S
O370 Co355 2.111 . S
O370 C380 1.274 . S
O371 Co360 1.976 . S
O371 C380 1.251 1_556 S
O372 Co359 2.264 . S
O372 Co360 2.327 1_554 S
O372 C381 1.257 . S
O373 Co360 2.073 . S
O373 C381 1.245 1_556 S
C374 O382 1.259 . S
C374 O383 1.289 . S
C375 O384 1.246 1_565 S
C375 O385 1.257 . S
C376 O364 1.251 . S
C376 O365 1.274 1_565 S
C377 O362 1.245 . S
C377 O363 1.257 . S
C378 O367 1.259 . S
C378 O368 1.289 . S
C379 O366 1.246 . S
C379 O369 1.257 . S
C380 O370 1.274 . S
C380 O371 1.251 1_554 S
C381 O372 1.257 . S
C381 O373 1.245 1_554 S
O382 Co353 2.284 . S
O382 C374 1.259 . S
O383 Co353 2.069 . S
O383 C374 1.289 . S
O384 Co355 2.143 . S
O384 C375 1.246 1_545 S
O385 Co353 2.015 . S
O385 C375 1.257 . S
Co386 O389 2.042 1_556 S
Co386 O396 2.264 1_556 S
Co386 O415 2.286 . S
Co386 O416 2.069 . S
Co386 O418 2.015 1_455 S
Co387 O389 2.122 . S
Co387 O395 2.073 . S
Co387 O396 2.327 . S
Co387 O397 1.976 1_455 S
Co388 O389 2.108 . S
Co388 O391 2.066 1_454 S
Co388 O398 2.098 1_455 S
Co388 O399 2.151 . S
Co388 O403 2.124 1_554 S
Co388 O417 2.136 1_454 S
O389 Co386 2.042 1_554 S
O389 Co387 2.122 . S
O389 Co388 2.108 . S
O389 H390 0.980 . S
H390 O389 0.980 . S
O391 Co388 2.066 1_656 S
O391 Co392 2.042 1_556 S
O391 Co393 2.122 . S
O391 H394 0.980 . S
Co392 O391 2.042 1_554 S
Co392 O400 2.286 . S
Co392 O401 2.069 . S
Co392 O402 2.015 1_655 S
Co392 O405 2.264 1_554 S
Co393 O391 2.122 . S
Co393 O404 1.976 1_655 S
Co393 O405 2.327 . S
Co393 O406 2.073 . S
H394 O391 0.980 . S
O395 Co387 2.073 . S
O395 C410 1.245 . S
O396 Co386 2.264 1_554 S
O396 Co387 2.327 . S
O396 C410 1.257 . S
O397 Co387 1.976 1_655 S
O397 C409 1.251 . S
O398 Co388 2.098 1_655 S
O398 C409 1.274 . S
O399 Co388 2.151 . S
O399 C412 1.246 . S
O400 Co392 2.286 . S
O400 C411 1.259 . S
O401 Co392 2.069 . S
O401 C411 1.289 . S
O402 Co392 2.015 1_455 S
O402 C412 1.257 . S
O403 Co388 2.124 1_556 S
O403 C413 1.274 . S
O404 Co393 1.976 1_455 S
O404 C413 1.251 . S
O405 Co392 2.264 1_556 S
O405 Co393 2.327 . S
O405 C414 1.257 . S
O406 Co393 2.073 . S
O406 C414 1.245 . S
C407 O415 1.259 . S
C407 O416 1.289 . S
C408 O417 1.246 . S
C408 O418 1.257 . S
C409 O397 1.251 . S
C409 O398 1.274 . S
C410 O395 1.245 . S
C410 O396 1.257 . S
C411 O400 1.259 . S
C411 O401 1.289 . S
C412 O399 1.246 . S
C412 O402 1.257 . S
C413 O403 1.274 . S
C413 O404 1.251 . S
C414 O405 1.257 . S
C414 O406 1.245 . S
O415 Co386 2.286 . S
O415 C407 1.259 . S
O416 Co386 2.069 . S
O416 C407 1.289 . S
O417 Co388 2.136 1_656 S
O417 C408 1.246 . S
O418 Co386 2.015 1_655 S
O418 C408 1.257 . S
Co419 O422 2.042 . S
Co419 O429 2.264 . S
Co419 O448 2.286 1_554 S
Co419 O449 2.069 . S
Co419 O451 2.012 1_554 S
Co420 O422 2.122 . S
Co420 O428 2.073 . S
Co420 O429 2.327 . S
Co420 O430 1.976 . S
Co421 O422 2.087 . S
Co421 O424 2.087 . S
Co421 O431 2.111 . S
Co421 O432 2.143 . S
Co421 O436 2.111 1_554 S
Co421 O450 2.143 1_554 S
O422 Co419 2.042 . S
O422 Co420 2.122 . S
O422 Co421 2.087 . S
O422 H423 0.980 . S
H423 O422 0.980 . S
O424 Co421 2.087 . S
O424 Co425 2.042 . S
O424 Co426 2.122 1_554 S
O424 H427 0.980 . S
Co425 O424 2.042 . S
Co425 O433 2.286 . S
Co425 O434 2.069 . S
Co425 O435 2.015 . S
Co425 O438 2.264 1_554 S
Co426 O424 2.122 1_556 S
Co426 O437 1.976 . S
Co426 O438 2.327 . S
Co426 O439 2.073 . S
H427 O424 0.980 . S
O428 Co420 2.073 . S
O428 C443 1.245 . S
O429 Co419 2.264 . S
O429 Co420 2.327 . S
O429 C443 1.257 . S
O430 Co420 1.976 . S
O430 C442 1.251 . S
O431 Co421 2.111 . S
O431 C442 1.274 . S
O432 Co421 2.143 . S
O432 C445 1.246 . S
O433 Co425 2.286 . S
O433 C444 1.259 . S
O434 Co425 2.069 . S
O434 C444 1.289 . S
O435 Co425 2.015 . S
O435 C445 1.257 . S
O436 Co421 2.111 1_556 S
O436 C446 1.274 . S
O437 Co426 1.976 . S
O437 C446 1.251 . S
O438 Co425 2.264 1_556 S
O438 Co426 2.327 . S
O438 C447 1.257 . S
O439 Co426 2.073 . S
O439 C447 1.245 . S
C440 O448 1.259 . S
C440 O449 1.289 1_556 S
C441 O450 1.246 . S
C441 O451 1.261 . S
C442 O430 1.251 . S
C442 O431 1.274 . S
C443 O428 1.245 . S
C443 O429 1.257 . S
C444 O433 1.259 . S
C444 O434 1.289 . S
C445 O432 1.246 . S
C445 O435 1.257 . S
C446 O436 1.274 . S
C446 O437 1.251 . S
C447 O438 1.257 . S
C447 O439 1.245 . S
O448 Co419 2.286 1_556 S
O448 C440 1.259 . S
O449 Co419 2.069 . S
O449 C440 1.289 1_554 S
O450 Co421 2.143 1_556 S
O450 C441 1.246 . S
O451 Co419 2.012 1_556 S
O451 C441 1.261 . S
Co452 O455 2.042 . S
Co452 O462 2.264 . S
Co452 O481 2.286 . S
Co452 O482 2.069 . S
Co452 O484 2.015 . S
Co453 O455 2.122 . S
Co453 O461 2.073 . S
Co453 O462 2.327 . S
Co453 O463 1.976 . S
Co454 O455 2.087 . S
Co454 O457 2.087 . S
Co454 O464 2.111 . S
Co454 O465 2.143 1_455 S
Co454 O469 2.111 . S
Co454 O483 2.143 . S
O455 Co452 2.042 . S
O455 Co453 2.122 . S
O455 Co454 2.087 . S
O455 H456 0.980 . S
H456 O455 0.980 . S
O457 Co454 2.087 . S
O457 Co458 2.042 1_455 S
O457 Co459 2.122 1_455 S
O457 H460 0.980 . S
Co458 O457 2.042 1_655 S
Co458 O466 2.286 . S
Co458 O467 2.069 . S
Co458 O468 2.015 . S
Co458 O471 2.264 . S
Co459 O457 2.122 1_655 S
Co459 O470 1.976 . S
Co459 O471 2.327 . S
Co459 O472 2.073 . S
H460 O457 0.980 . S
O461 Co453 2.073 . S
O461 C476 1.245 . S
O462 Co452 2.264 . S
O462 Co453 2.327 . S
O462 C476 1.257 . S
O463 Co453 1.976 . S
O463 C475 1.251 . S
O464 Co454 2.111 . S
O464 C475 1.274 . S
O465 Co454 2.143 1_655 S
O465 C478 1.246 . S
O466 Co458 2.286 . S
O466 C477 1.259 . S
O467 Co458 2.069 . S
O467 C477 1.289 . S
O468 Co458 2.015 . S
O468 C478 1.257 . S
O469 Co454 2.111 . S
O469 C479 1.274 1_455 S
O470 Co459 1.976 . S
O470 C479 1.251 . S
O471 Co458 2.264 . S
O471 Co459 2.327 . S
O471 C480 1.257 . S
O472 Co459 2.073 . S
O472 C480 1.245 . S
C473 O481 1.259 . S
C473 O482 1.289 . S
C474 O483 1.246 . S
C474 O484 1.257 . S
C475 O463 1.251 . S
C475 O464 1.274 . S
C476 O461 1.245 . S
C476 O462 1.257 . S
C477 O466 1.259 . S
C477 O467 1.289 . S
C478 O465 1.246 . S
C478 O468 1.257 . S
C479 O469 1.274 1_655 S
C479 O470 1.251 . S
C480 O471 1.257 . S
C480 O472 1.245 . S
O481 Co452 2.286 . S
O481 C473 1.259 . S
O482 Co452 2.069 . S
O482 C473 1.289 . S
O483 Co454 2.143 . S
O483 C474 1.246 . S
O484 Co452 2.015 . S
O484 C474 1.257 . S
Co485 O488 2.042 . S
Co485 O495 2.264 . S
Co485 O514 2.286 . S
Co485 O515 2.069 . S
Co485 O517 2.015 1_565 S
Co486 O488 2.122 . S
Co486 O494 2.073 . S
Co486 O495 2.327 . S
Co486 O496 1.976 1_565 S
Co487 O488 2.087 1_545 S
Co487 O490 2.087 . S
Co487 O497 2.111 . S
Co487 O498 2.143 1_545 S
Co487 O502 2.111 1_545 S
Co487 O516 2.143 . S
O488 Co485 2.042 . S
O488 Co486 2.122 . S
O488 Co487 2.087 1_565 S
O488 H489 0.980 . S
H489 O488 0.980 . S
O490 Co487 2.087 . S
O490 Co491 2.042 . S
O490 Co492 2.122 . S
O490 H493 0.980 . S
Co491 O490 2.042 . S
Co491 O499 2.286 . S
Co491 O500 2.069 . S
Co491 O501 2.015 1_545 S
Co491 O504 2.264 . S
Co492 O490 2.122 . S
Co492 O503 1.976 1_545 S
Co492 O504 2.327 . S
Co492 O505 2.073 . S
H493 O490 0.980 . S
O494 Co486 2.073 . S
O494 C509 1.245 . S
O495 Co485 2.264 . S
O495 Co486 2.327 . S
O495 C509 1.257 . S
O496 Co486 1.976 1_545 S
O496 C508 1.251 . S
O497 Co487 2.111 . S
O497 C508 1.274 . S
O498 Co487 2.143 1_565 S
O498 C511 1.246 . S
O499 Co491 2.286 . S
O499 C510 1.259 . S
O500 Co491 2.069 . S
O500 C510 1.289 . S
O501 Co491 2.015 1_565 S
O501 C511 1.257 . S
O502 Co487 2.111 1_565 S
O502 C512 1.274 . S
O503 Co492 1.976 1_565 S
O503 C512 1.251 . S
O504 Co491 2.264 . S
O504 Co492 2.327 . S
O504 C513 1.257 . S
O505 Co492 2.073 . S
O505 C513 1.245 . S
C506 O514 1.259 . S
C506 O515 1.289 . S
C507 O516 1.246 . S
C507 O517 1.257 . S
C508 O496 1.251 . S
C508 O497 1.274 . S
C509 O494 1.245 . S
C509 O495 1.257 . S
C510 O499 1.259 . S
C510 O500 1.289 . S
C511 O498 1.246 . S
C511 O501 1.257 . S
C512 O502 1.274 . S
C512 O503 1.251 . S
C513 O504 1.257 . S
C513 O505 1.245 . S
O514 Co485 2.286 . S
O514 C506 1.259 . S
O515 Co485 2.069 . S
O515 C506 1.289 . S
O516 Co487 2.143 . S
O516 C507 1.246 . S
O517 Co485 2.015 1_545 S
O517 C507 1.257 . S
H518 C536 0.951 . S
H519 C538 0.951 . S
H520 C540 0.950 . S
H521 C541 0.950 . S
H522 C543 0.950 . S
H523 C546 0.950 . S
H524 C547 0.950 . S
H525 C549 0.950 . S
H526 C550 0.950 . S
H527 C551 0.951 . S
H528 C553 0.951 . S
H529 C555 0.950 . S
H530 C556 0.950 . S
H531 C558 0.950 . S
H532 C561 0.950 . S
H533 C562 0.950 . S
H534 C564 0.950 . S
H535 C565 0.950 . S
C536 H518 0.951 . S
C536 C537 1.366 . S
C536 C538 1.388 . S
C537 C536 1.366 . S
C537 C541 1.385 . S
C538 H519 0.951 . S
C538 C536 1.388 . S
C538 C539 1.366 . S
C539 C538 1.366 . S
C539 C540 1.414 . S
C539 C542 1.499 . S
C540 H520 0.950 . S
C540 C539 1.414 . S
C540 C541 1.374 . S
C541 H521 0.950 . S
C541 C537 1.385 . S
C541 C540 1.374 . S
C542 C539 1.499 . S
C542 C543 1.373 . S
C542 C544 1.389 . S
C543 H522 0.950 . S
C543 C542 1.373 . S
C543 C559 1.377 . S
C544 C542 1.389 . S
C544 C545 1.524 . S
C544 C558 1.377 . S
C545 C544 1.524 . S
C545 C546 1.397 . S
C545 C550 1.363 . S
C546 H523 0.950 . S
C546 C545 1.397 . S
C546 C547 1.334 . S
C547 H524 0.950 . S
C547 C546 1.334 . S
C547 C548 1.287 . S
C548 C547 1.287 . S
C548 C549 1.524 . S
C548 H567 0.913 . S
C549 H525 0.950 . S
C549 C548 1.524 . S
C549 C550 1.415 . S
C550 H526 0.950 . S
C550 C545 1.363 . S
C550 C549 1.415 . S
C551 H527 0.951 . S
C551 C552 1.366 . S
C551 C553 1.388 . S
C552 C551 1.366 . S
C552 C556 1.385 . S
C553 H528 0.951 . S
C553 C551 1.388 . S
C553 C554 1.366 . S
C554 C553 1.366 . S
C554 C555 1.414 . S
C554 C557 1.499 . S
C555 H529 0.950 . S
C555 C554 1.414 . S
C555 C556 1.374 . S
C556 H530 0.950 . S
C556 C552 1.385 . S
C556 C555 1.374 . S
C557 C554 1.499 . S
C557 C558 1.373 . S
C557 C559 1.389 . S
C558 H531 0.950 . S
C558 C544 1.377 . S
C558 C557 1.373 . S
C559 C543 1.377 . S
C559 C557 1.389 . S
C559 C560 1.524 . S
C560 C559 1.524 . S
C560 C561 1.397 . S
C560 C565 1.363 . S
C561 H532 0.950 . S
C561 C560 1.397 . S
C561 C562 1.334 . S
C562 H533 0.950 . S
C562 C561 1.334 . S
C562 C563 1.287 . S
C563 C562 1.287 . S
C563 C564 1.524 . S
C563 H566 0.999 . S
C564 H534 0.950 . S
C564 C563 1.524 . S
C564 C565 1.415 . S
C565 H535 0.950 . S
C565 C560 1.363 . S
C565 C564 1.415 . S
H566 C563 0.999 . S
H567 C548 0.913 . S
H568 C586 0.951 . S
H569 C588 0.951 . S
H570 C590 0.950 . S
H571 C591 0.950 . S
H572 C593 0.950 . S
H573 C596 0.950 . S
H574 C597 0.950 . S
H575 C599 0.950 . S
H576 C600 0.950 . S
H577 C601 0.951 . S
H578 C603 0.951 . S
H579 C605 0.950 . S
H580 C606 0.950 . S
H581 C608 0.950 . S
H582 C611 0.950 . S
H583 C612 0.950 . S
H584 C614 0.950 . S
H585 C615 0.950 . S
C586 H568 0.951 . S
C586 C587 1.366 . S
C586 C588 1.388 . S
C587 C586 1.366 . S
C587 C591 1.385 . S
C588 H569 0.951 . S
C588 C586 1.388 . S
C588 C589 1.366 . S
C589 C588 1.366 . S
C589 C590 1.414 . S
C589 C592 1.499 . S
C590 H570 0.950 . S
C590 C589 1.414 . S
C590 C591 1.374 . S
C591 H571 0.950 . S
C591 C587 1.385 . S
C591 C590 1.374 . S
C592 C589 1.499 . S
C592 C593 1.373 . S
C592 C594 1.389 . S
C593 H572 0.950 . S
C593 C592 1.373 . S
C593 C609 1.377 . S
C594 C592 1.389 . S
C594 C595 1.524 . S
C594 C608 1.377 . S
C595 C594 1.524 . S
C595 C596 1.397 . S
C595 C600 1.363 . S
C596 H573 0.950 . S
C596 C595 1.397 . S
C596 C597 1.334 . S
C597 H574 0.950 . S
C597 C596 1.334 . S
C597 C598 1.287 . S
C598 C597 1.287 . S
C598 C599 1.524 . S
C598 H617 0.913 . S
C599 H575 0.950 . S
C599 C598 1.524 . S
C599 C600 1.415 . S
C600 H576 0.950 . S
C600 C595 1.363 . S
C600 C599 1.415 . S
C601 H577 0.951 . S
C601 C602 1.366 . S
C601 C603 1.388 . S
C602 C601 1.366 . S
C602 C606 1.385 . S
C603 H578 0.951 . S
C603 C601 1.388 . S
C603 C604 1.366 . S
C604 C603 1.366 . S
C604 C605 1.414 . S
C604 C607 1.499 . S
C605 H579 0.950 . S
C605 C604 1.414 . S
C605 C606 1.374 . S
C606 H580 0.950 . S
C606 C602 1.385 . S
C606 C605 1.374 . S
C607 C604 1.499 . S
C607 C608 1.373 . S
C607 C609 1.389 . S
C608 H581 0.950 . S
C608 C594 1.377 . S
C608 C607 1.373 . S
C609 C593 1.377 . S
C609 C607 1.389 . S
C609 C610 1.524 . S
C610 C609 1.524 . S
C610 C611 1.397 . S
C610 C615 1.363 . S
C611 H582 0.950 . S
C611 C610 1.397 . S
C611 C612 1.334 . S
C612 H583 0.950 . S
C612 C611 1.334 . S
C612 C613 1.287 . S
C613 C612 1.287 . S
C613 C614 1.524 . S
C613 H616 0.999 . S
C614 H584 0.950 . S
C614 C613 1.524 . S
C614 C615 1.415 . S
C615 H585 0.950 . S
C615 C610 1.363 . S
C615 C614 1.415 . S
H616 C613 0.999 . S
H617 C598 0.913 . S
H618 C636 0.951 . S
H619 C638 0.951 . S
H620 C640 0.950 . S
H621 C641 0.950 . S
H622 C643 0.950 . S
H623 C646 0.950 . S
H624 C647 0.950 . S
H625 C649 0.950 . S
H626 C650 0.950 . S
H627 C651 0.951 . S
H628 C653 0.951 . S
H629 C655 0.950 . S
H630 C656 0.950 . S
H631 C658 0.950 . S
H632 C661 0.950 . S
H633 C662 0.950 . S
H634 C664 0.950 . S
H635 C665 0.950 . S
C636 H618 0.951 . S
C636 C637 1.366 . S
C636 C638 1.388 . S
C637 C636 1.366 . S
C637 C641 1.385 . S
C638 H619 0.951 . S
C638 C636 1.388 . S
C638 C639 1.366 . S
C639 C638 1.366 . S
C639 C640 1.414 . S
C639 C642 1.499 . S
C640 H620 0.950 . S
C640 C639 1.414 . S
C640 C641 1.374 . S
C641 H621 0.950 . S
C641 C637 1.385 . S
C641 C640 1.374 . S
C642 C639 1.499 . S
C642 C643 1.373 . S
C642 C644 1.389 . S
C643 H622 0.950 . S
C643 C642 1.373 . S
C643 C659 1.377 . S
C644 C642 1.389 . S
C644 C645 1.524 . S
C644 C658 1.377 . S
C645 C644 1.524 . S
C645 C646 1.397 . S
C645 C650 1.363 . S
C646 H623 0.950 . S
C646 C645 1.397 . S
C646 C647 1.334 . S
C647 H624 0.950 . S
C647 C646 1.334 . S
C647 C648 1.287 . S
C648 C647 1.287 . S
C648 C649 1.524 . S
C648 H667 0.913 . S
C649 H625 0.950 . S
C649 C648 1.524 . S
C649 C650 1.415 . S
C650 H626 0.950 . S
C650 C645 1.363 . S
C650 C649 1.415 . S
C651 H627 0.951 . S
C651 C652 1.366 . S
C651 C653 1.388 . S
C652 C651 1.366 . S
C652 C656 1.385 . S
C653 H628 0.951 . S
C653 C651 1.388 . S
C653 C654 1.366 . S
C654 C653 1.366 . S
C654 C655 1.414 . S
C654 C657 1.499 . S
C655 H629 0.950 . S
C655 C654 1.414 . S
C655 C656 1.374 . S
C656 H630 0.950 . S
C656 C652 1.385 . S
C656 C655 1.374 . S
C657 C654 1.499 . S
C657 C658 1.373 . S
C657 C659 1.389 . S
C658 H631 0.950 . S
C658 C644 1.377 . S
C658 C657 1.373 . S
C659 C643 1.377 . S
C659 C657 1.389 . S
C659 C660 1.524 . S
C660 C659 1.524 . S
C660 C661 1.397 . S
C660 C665 1.363 . S
C661 H632 0.950 . S
C661 C660 1.397 . S
C661 C662 1.334 . S
C662 H633 0.950 . S
C662 C661 1.334 . S
C662 C663 1.287 . S
C663 C662 1.287 . S
C663 C664 1.524 . S
C663 H666 0.999 . S
C664 H634 0.950 . S
C664 C663 1.524 . S
C664 C665 1.415 . S
C665 H635 0.950 . S
C665 C660 1.363 . S
C665 C664 1.415 . S
H666 C663 0.999 . S
H667 C648 0.913 . S
H668 C686 0.951 . S
H669 C688 0.951 . S
H670 C690 0.950 . S
H671 C691 0.950 . S
H672 C693 0.950 . S
H673 C696 0.950 . S
H674 C697 0.950 . S
H675 C699 0.950 . S
H676 C700 0.950 . S
H677 C701 0.951 . S
H678 C703 0.951 . S
H679 C705 0.950 . S
H680 C706 0.950 . S
H681 C708 0.950 . S
H682 C711 0.950 . S
H683 C712 0.950 . S
H684 C714 0.950 . S
H685 C715 0.950 . S
C686 H668 0.951 . S
C686 C687 1.366 . S
C686 C688 1.388 . S
C687 C686 1.366 . S
C687 C691 1.385 . S
C688 H669 0.951 . S
C688 C686 1.388 . S
C688 C689 1.366 . S
C689 C688 1.366 . S
C689 C690 1.414 . S
C689 C692 1.499 . S
C690 H670 0.950 . S
C690 C689 1.414 . S
C690 C691 1.374 . S
C691 H671 0.950 . S
C691 C687 1.385 . S
C691 C690 1.374 . S
C692 C689 1.499 . S
C692 C693 1.373 . S
C692 C694 1.389 . S
C693 H672 0.950 . S
C693 C692 1.373 . S
C693 C709 1.377 . S
C694 C692 1.389 . S
C694 C695 1.524 . S
C694 C708 1.377 . S
C695 C694 1.524 . S
C695 C696 1.397 . S
C695 C700 1.363 . S
C696 H673 0.950 . S
C696 C695 1.397 . S
C696 C697 1.334 . S
C697 H674 0.950 . S
C697 C696 1.334 . S
C697 C698 1.287 . S
C698 C697 1.287 . S
C698 C699 1.524 . S
C698 H717 0.913 . S
C699 H675 0.950 . S
C699 C698 1.524 . S
C699 C700 1.415 . S
C700 H676 0.950 . S
C700 C695 1.363 . S
C700 C699 1.415 . S
C701 H677 0.951 . S
C701 C702 1.366 . S
C701 C703 1.388 . S
C702 C701 1.366 . S
C702 C706 1.385 . S
C703 H678 0.951 . S
C703 C701 1.388 . S
C703 C704 1.366 . S
C704 C703 1.366 . S
C704 C705 1.414 . S
C704 C707 1.499 . S
C705 H679 0.950 . S
C705 C704 1.414 . S
C705 C706 1.374 . S
C706 H680 0.950 . S
C706 C702 1.385 . S
C706 C705 1.374 . S
C707 C704 1.499 . S
C707 C708 1.373 . S
C707 C709 1.389 . S
C708 H681 0.950 . S
C708 C694 1.377 . S
C708 C707 1.373 . S
C709 C693 1.377 . S
C709 C707 1.389 . S
C709 C710 1.524 . S
C710 C709 1.524 . S
C710 C711 1.397 . S
C710 C715 1.363 . S
C711 H682 0.950 . S
C711 C710 1.397 . S
C711 C712 1.334 . S
C712 H683 0.950 . S
C712 C711 1.334 . S
C712 C713 1.287 . S
C713 C712 1.287 . S
C713 C714 1.524 . S
C713 H716 0.999 . S
C714 H684 0.950 . S
C714 C713 1.524 . S
C714 C715 1.415 . S
C715 H685 0.950 . S
C715 C710 1.363 . S
C715 C714 1.415 . S
H716 C713 0.999 . S
H717 C698 0.913 . S
H718 C736 0.951 . S
H719 C738 0.951 . S
H720 C740 0.950 . S
H721 C741 0.950 . S
H722 C743 0.950 . S
H723 C746 0.950 . S
H724 C747 0.950 . S
H725 C749 0.950 . S
H726 C750 0.950 . S
H727 C751 0.951 . S
H728 C753 0.951 . S
H729 C755 0.950 . S
H730 C756 0.950 . S
H731 C758 0.950 . S
H732 C761 0.950 . S
H733 C762 0.950 . S
H734 C764 0.950 . S
H735 C765 0.950 . S
C736 H718 0.951 . S
C736 C737 1.366 . S
C736 C738 1.388 . S
C737 C736 1.366 . S
C737 C741 1.385 . S
C738 H719 0.951 . S
C738 C736 1.388 . S
C738 C739 1.366 . S
C739 C738 1.366 . S
C739 C740 1.414 . S
C739 C742 1.499 . S
C740 H720 0.950 . S
C740 C739 1.414 . S
C740 C741 1.374 . S
C741 H721 0.950 . S
C741 C737 1.385 . S
C741 C740 1.374 . S
C742 C739 1.499 . S
C742 C743 1.373 . S
C742 C744 1.389 . S
C743 H722 0.950 . S
C743 C742 1.373 . S
C743 C759 1.377 . S
C744 C742 1.389 . S
C744 C745 1.524 . S
C744 C758 1.377 . S
C745 C744 1.524 . S
C745 C746 1.397 . S
C745 C750 1.363 . S
C746 H723 0.950 . S
C746 C745 1.397 . S
C746 C747 1.334 . S
C747 H724 0.950 . S
C747 C746 1.334 . S
C747 C748 1.287 . S
C748 C747 1.287 . S
C748 C749 1.524 . S
C748 H767 0.913 . S
C749 H725 0.950 . S
C749 C748 1.524 . S
C749 C750 1.415 . S
C750 H726 0.950 . S
C750 C745 1.363 . S
C750 C749 1.415 . S
C751 H727 0.951 . S
C751 C752 1.366 . S
C751 C753 1.388 . S
C752 C751 1.366 . S
C752 C756 1.385 . S
C753 H728 0.951 . S
C753 C751 1.388 . S
C753 C754 1.366 . S
C754 C753 1.366 . S
C754 C755 1.414 . S
C754 C757 1.499 . S
C755 H729 0.950 . S
C755 C754 1.414 . S
C755 C756 1.374 . S
C756 H730 0.950 . S
C756 C752 1.385 . S
C756 C755 1.374 . S
C757 C754 1.499 . S
C757 C758 1.373 . S
C757 C759 1.389 . S
C758 H731 0.950 . S
C758 C744 1.377 . S
C758 C757 1.373 . S
C759 C743 1.377 . S
C759 C757 1.389 . S
C759 C760 1.524 . S
C760 C759 1.524 . S
C760 C761 1.397 . S
C760 C765 1.363 . S
C761 H732 0.950 . S
C761 C760 1.397 . S
C761 C762 1.334 . S
C762 H733 0.950 . S
C762 C761 1.334 . S
C762 C763 1.287 . S
C763 C762 1.287 . S
C763 C764 1.524 . S
C763 H766 0.999 . S
C764 H734 0.950 . S
C764 C763 1.524 . S
C764 C765 1.415 . S
C765 H735 0.950 . S
C765 C760 1.363 . S
C765 C764 1.415 . S
H766 C763 0.999 . S
H767 C748 0.913 . S
H768 C786 0.951 . S
H769 C788 0.951 . S
H770 C790 0.950 . S
H771 C791 0.950 . S
H772 C793 0.950 . S
H773 C796 0.950 . S
H774 C797 0.950 . S
H775 C799 0.950 . S
H776 C800 0.950 . S
H777 C801 0.951 . S
H778 C803 0.951 . S
H779 C805 0.950 . S
H780 C806 0.950 . S
H781 C808 0.950 . S
H782 C811 0.950 . S
H783 C812 0.950 . S
H784 C814 0.950 . S
H785 C815 0.950 . S
C786 H768 0.951 . S
C786 C787 1.366 . S
C786 C788 1.388 . S
C787 C786 1.366 . S
C787 C791 1.385 . S
C788 H769 0.951 . S
C788 C786 1.388 . S
C788 C789 1.366 . S
C789 C788 1.366 . S
C789 C790 1.414 . S
C789 C792 1.499 . S
C790 H770 0.950 . S
C790 C789 1.414 . S
C790 C791 1.374 . S
C791 H771 0.950 . S
C791 C787 1.385 . S
C791 C790 1.374 . S
C792 C789 1.499 . S
C792 C793 1.373 . S
C792 C794 1.389 . S
C793 H772 0.950 . S
C793 C792 1.373 . S
C793 C809 1.377 . S
C794 C792 1.389 . S
C794 C795 1.524 . S
C794 C808 1.377 . S
C795 C794 1.524 . S
C795 C796 1.397 . S
C795 C800 1.363 . S
C796 H773 0.950 . S
C796 C795 1.397 . S
C796 C797 1.334 . S
C797 H774 0.950 . S
C797 C796 1.334 . S
C797 C798 1.287 . S
C798 C797 1.287 . S
C798 C799 1.524 . S
C798 H817 0.913 . S
C799 H775 0.950 . S
C799 C798 1.524 . S
C799 C800 1.415 . S
C800 H776 0.950 . S
C800 C795 1.363 . S
C800 C799 1.415 . S
C801 H777 0.951 . S
C801 C802 1.366 . S
C801 C803 1.388 . S
C802 C801 1.366 . S
C802 C806 1.385 . S
C803 H778 0.951 . S
C803 C801 1.388 . S
C803 C804 1.366 . S
C804 C803 1.366 . S
C804 C805 1.414 . S
C804 C807 1.499 . S
C805 H779 0.950 . S
C805 C804 1.414 . S
C805 C806 1.374 . S
C806 H780 0.950 . S
C806 C802 1.385 . S
C806 C805 1.374 . S
C807 C804 1.499 . S
C807 C808 1.373 . S
C807 C809 1.389 . S
C808 H781 0.950 . S
C808 C794 1.377 . S
C808 C807 1.373 . S
C809 C793 1.377 . S
C809 C807 1.389 . S
C809 C810 1.524 . S
C810 C809 1.524 . S
C810 C811 1.397 . S
C810 C815 1.363 . S
C811 H782 0.950 . S
C811 C810 1.397 . S
C811 C812 1.334 . S
C812 H783 0.950 . S
C812 C811 1.334 . S
C812 C813 1.287 . S
C813 C812 1.287 . S
C813 C814 1.524 . S
C813 H816 0.999 . S
C814 H784 0.950 . S
C814 C813 1.524 . S
C814 C815 1.415 . S
C815 H785 0.950 . S
C815 C810 1.363 . S
C815 C814 1.415 . S
H816 C813 0.999 . S
H817 C798 0.913 . S
H818 C836 0.951 . S
H819 C838 0.951 . S
H820 C840 0.950 . S
H821 C841 0.950 . S
H822 C843 0.950 . S
H823 C846 0.950 . S
H824 C847 0.950 . S
H825 C849 0.950 . S
H826 C850 0.950 . S
H827 C851 0.951 . S
H828 C853 0.951 . S
H829 C855 0.950 . S
H830 C856 0.950 . S
H831 C858 0.950 . S
H832 C861 0.950 . S
H833 C862 0.950 . S
H834 C864 0.950 . S
H835 C865 0.950 . S
C836 H818 0.951 . S
C836 C837 1.366 . S
C836 C838 1.388 . S
C837 C836 1.366 . S
C837 C841 1.385 . S
C838 H819 0.951 . S
C838 C836 1.388 . S
C838 C839 1.366 . S
C839 C838 1.366 . S
C839 C840 1.414 . S
C839 C842 1.499 . S
C840 H820 0.950 . S
C840 C839 1.414 . S
C840 C841 1.374 . S
C841 H821 0.950 . S
C841 C837 1.385 . S
C841 C840 1.374 . S
C842 C839 1.499 . S
C842 C843 1.373 . S
C842 C844 1.389 . S
C843 H822 0.950 . S
C843 C842 1.373 . S
C843 C859 1.377 . S
C844 C842 1.389 . S
C844 C845 1.524 . S
C844 C858 1.377 . S
C845 C844 1.524 . S
C845 C846 1.397 . S
C845 C850 1.363 . S
C846 H823 0.950 . S
C846 C845 1.397 . S
C846 C847 1.334 . S
C847 H824 0.950 . S
C847 C846 1.334 . S
C847 C848 1.287 . S
C848 C847 1.287 . S
C848 C849 1.524 . S
C848 H867 0.913 . S
C849 H825 0.950 . S
C849 C848 1.524 . S
C849 C850 1.415 . S
C850 H826 0.950 . S
C850 C845 1.363 . S
C850 C849 1.415 . S
C851 H827 0.951 . S
C851 C852 1.366 . S
C851 C853 1.388 . S
C852 C851 1.366 . S
C852 C856 1.385 . S
C853 H828 0.951 . S
C853 C851 1.388 . S
C853 C854 1.366 . S
C854 C853 1.366 . S
C854 C855 1.414 . S
C854 C857 1.499 . S
C855 H829 0.950 . S
C855 C854 1.414 . S
C855 C856 1.374 . S
C856 H830 0.950 . S
C856 C852 1.385 . S
C856 C855 1.374 . S
C857 C854 1.499 . S
C857 C858 1.373 . S
C857 C859 1.389 . S
C858 H831 0.950 . S
C858 C844 1.377 . S
C858 C857 1.373 . S
C859 C843 1.377 . S
C859 C857 1.389 . S
C859 C860 1.524 . S
C860 C859 1.524 . S
C860 C861 1.397 . S
C860 C865 1.363 . S
C861 H832 0.950 . S
C861 C860 1.397 . S
C861 C862 1.334 . S
C862 H833 0.950 . S
C862 C861 1.334 . S
C862 C863 1.287 . S
C863 C862 1.287 . S
C863 C864 1.524 . S
C863 H866 0.999 . S
C864 H834 0.950 . S
C864 C863 1.524 . S
C864 C865 1.415 . S
C865 H835 0.950 . S
C865 C860 1.363 . S
C865 C864 1.415 . S
H866 C863 0.999 . S
H867 C848 0.913 . S
H868 C886 0.951 . S
H869 C888 0.951 . S
H870 C890 0.950 . S
H871 C891 0.950 . S
H872 C893 0.950 . S
H873 C896 0.950 . S
H874 C897 0.950 . S
H875 C899 0.950 . S
H876 C900 0.950 . S
H877 C901 0.951 . S
H878 C903 0.951 . S
H879 C905 0.950 . S
H880 C906 0.950 . S
H881 C908 0.950 . S
H882 C911 0.950 . S
H883 C912 0.950 . S
H884 C914 0.950 . S
H885 C915 0.950 . S
C886 H868 0.951 . S
C886 C887 1.366 . S
C886 C888 1.388 . S
C887 C886 1.366 . S
C887 C891 1.385 . S
C888 H869 0.951 . S
C888 C886 1.388 . S
C888 C889 1.366 . S
C889 C888 1.366 . S
C889 C890 1.414 . S
C889 C892 1.499 . S
C890 H870 0.950 . S
C890 C889 1.414 . S
C890 C891 1.374 . S
C891 H871 0.950 . S
C891 C887 1.385 . S
C891 C890 1.374 . S
C892 C889 1.499 . S
C892 C893 1.373 . S
C892 C894 1.389 . S
C893 H872 0.950 . S
C893 C892 1.373 . S
C893 C909 1.377 . S
C894 C892 1.389 . S
C894 C895 1.524 . S
C894 C908 1.377 . S
C895 C894 1.524 . S
C895 C896 1.397 . S
C895 C900 1.363 . S
C896 H873 0.950 . S
C896 C895 1.397 . S
C896 C897 1.334 . S
C897 H874 0.950 . S
C897 C896 1.334 . S
C897 C898 1.287 . S
C898 C897 1.287 . S
C898 C899 1.524 . S
C898 H917 0.913 . S
C899 H875 0.950 . S
C899 C898 1.524 . S
C899 C900 1.415 . S
C900 H876 0.950 . S
C900 C895 1.363 . S
C900 C899 1.415 . S
C901 H877 0.951 . S
C901 C902 1.366 . S
C901 C903 1.388 . S
C902 C901 1.366 . S
C902 C906 1.385 . S
C903 H878 0.951 . S
C903 C901 1.388 . S
C903 C904 1.366 . S
C904 C903 1.366 . S
C904 C905 1.414 . S
C904 C907 1.499 . S
C905 H879 0.950 . S
C905 C904 1.414 . S
C905 C906 1.374 . S
C906 H880 0.950 . S
C906 C902 1.385 . S
C906 C905 1.374 . S
C907 C904 1.499 . S
C907 C908 1.373 . S
C907 C909 1.389 . S
C908 H881 0.950 . S
C908 C894 1.377 . S
C908 C907 1.373 . S
C909 C893 1.377 . S
C909 C907 1.389 . S
C909 C910 1.524 . S
C910 C909 1.524 . S
C910 C911 1.397 . S
C910 C915 1.363 . S
C911 H882 0.950 . S
C911 C910 1.397 . S
C911 C912 1.334 . S
C912 H883 0.950 . S
C912 C911 1.334 . S
C912 C913 1.287 . S
C913 C912 1.287 . S
C913 C914 1.524 . S
C913 H916 0.999 . S
C914 H884 0.950 . S
C914 C913 1.524 . S
C914 C915 1.415 . S
C915 H885 0.950 . S
C915 C910 1.363 . S
C915 C914 1.415 . S
H916 C913 0.999 . S
H917 C898 0.913 . S
H918 C936 0.951 . S
H919 C938 0.951 . S
H920 C940 0.950 . S
H921 C941 0.950 . S
H922 C943 0.950 . S
H923 C946 0.950 . S
H924 C947 0.950 . S
H925 C949 0.950 . S
H926 C950 0.950 . S
H927 C951 0.951 . S
H928 C953 0.951 . S
H929 C955 0.950 . S
H930 C956 0.950 . S
H931 C958 0.950 . S
H932 C961 0.950 . S
H933 C962 0.950 . S
H934 C964 0.950 . S
H935 C965 0.950 . S
C936 H918 0.951 . S
C936 C937 1.366 . S
C936 C938 1.388 . S
C937 C936 1.366 . S
C937 C941 1.385 . S
C938 H919 0.951 . S
C938 C936 1.388 . S
C938 C939 1.366 . S
C939 C938 1.366 . S
C939 C940 1.414 . S
C939 C942 1.499 . S
C940 H920 0.950 . S
C940 C939 1.414 . S
C940 C941 1.374 . S
C941 H921 0.950 . S
C941 C937 1.385 . S
C941 C940 1.374 . S
C942 C939 1.499 . S
C942 C943 1.373 . S
C942 C944 1.389 . S
C943 H922 0.950 . S
C943 C942 1.373 . S
C943 C959 1.377 . S
C944 C942 1.389 . S
C944 C945 1.524 . S
C944 C958 1.377 . S
C945 C944 1.524 . S
C945 C946 1.397 . S
C945 C950 1.363 . S
C946 H923 0.950 . S
C946 C945 1.397 . S
C946 C947 1.334 . S
C947 H924 0.950 . S
C947 C946 1.334 . S
C947 C948 1.287 . S
C948 C947 1.287 . S
C948 C949 1.524 . S
C948 H967 0.913 . S
C949 H925 0.950 . S
C949 C948 1.524 . S
C949 C950 1.415 . S
C950 H926 0.950 . S
C950 C945 1.363 . S
C950 C949 1.415 . S
C951 H927 0.951 . S
C951 C952 1.366 . S
C951 C953 1.388 . S
C952 C951 1.366 . S
C952 C956 1.385 . S
C953 H928 0.951 . S
C953 C951 1.388 . S
C953 C954 1.366 . S
C954 C953 1.366 . S
C954 C955 1.414 . S
C954 C957 1.499 . S
C955 H929 0.950 . S
C955 C954 1.414 . S
C955 C956 1.374 . S
C956 H930 0.950 . S
C956 C952 1.385 . S
C956 C955 1.374 . S
C957 C954 1.499 . S
C957 C958 1.373 . S
C957 C959 1.389 . S
C958 H931 0.950 . S
C958 C944 1.377 . S
C958 C957 1.373 . S
C959 C943 1.377 . S
C959 C957 1.389 . S
C959 C960 1.524 . S
C960 C959 1.524 . S
C960 C961 1.397 . S
C960 C965 1.363 . S
C961 H932 0.950 . S
C961 C960 1.397 . S
C961 C962 1.334 . S
C962 H933 0.950 . S
C962 C961 1.334 . S
C962 C963 1.287 . S
C963 C962 1.287 . S
C963 C964 1.524 . S
C963 H966 0.999 . S
C964 H934 0.950 . S
C964 C963 1.524 . S
C964 C965 1.415 . S
C965 H935 0.950 . S
C965 C960 1.363 . S
C965 C964 1.415 . S
H966 C963 0.999 . S
H967 C948 0.913 . S
H968 C986 0.951 . S
H969 C988 0.951 . S
H970 C990 0.950 . S
H971 C991 0.950 . S
H972 C993 0.950 . S
H973 C996 0.950 . S
H974 C997 0.950 . S
H975 C999 0.950 . S
H976 C1000 0.950 . S
H977 C1001 0.951 . S
H978 C1003 0.951 . S
H979 C1005 0.950 . S
H980 C1006 0.950 . S
H981 C1008 0.950 . S
H982 C1011 0.950 . S
H983 C1012 0.950 . S
H984 C1014 0.950 . S
H985 C1015 0.950 . S
C986 H968 0.951 . S
C986 C987 1.366 . S
C986 C988 1.388 . S
C987 C986 1.366 . S
C987 C991 1.385 . S
C988 H969 0.951 . S
C988 C986 1.388 . S
C988 C989 1.366 . S
C989 C988 1.366 . S
C989 C990 1.414 . S
C989 C992 1.499 . S
C990 H970 0.950 . S
C990 C989 1.414 . S
C990 C991 1.374 . S
C991 H971 0.950 . S
C991 C987 1.385 . S
C991 C990 1.374 . S
C992 C989 1.499 . S
C992 C993 1.373 . S
C992 C994 1.389 . S
C993 H972 0.950 . S
C993 C992 1.373 . S
C993 C1009 1.377 . S
C994 C992 1.389 . S
C994 C995 1.524 . S
C994 C1008 1.377 . S
C995 C994 1.524 . S
C995 C996 1.397 . S
C995 C1000 1.363 . S
C996 H973 0.950 . S
C996 C995 1.397 . S
C996 C997 1.334 . S
C997 H974 0.950 . S
C997 C996 1.334 . S
C997 C998 1.287 . S
C998 C997 1.287 . S
C998 C999 1.524 . S
C998 H1017 0.913 . S
C999 H975 0.950 . S
C999 C998 1.524 . S
C999 C1000 1.415 . S
C1000 H976 0.950 . S
C1000 C995 1.363 . S
C1000 C999 1.415 . S
C1001 H977 0.951 . S
C1001 C1002 1.366 . S
C1001 C1003 1.388 . S
C1002 C1001 1.366 . S
C1002 C1006 1.385 . S
C1003 H978 0.951 . S
C1003 C1001 1.388 . S
C1003 C1004 1.366 . S
C1004 C1003 1.366 . S
C1004 C1005 1.414 . S
C1004 C1007 1.499 . S
C1005 H979 0.950 . S
C1005 C1004 1.414 . S
C1005 C1006 1.374 . S
C1006 H980 0.950 . S
C1006 C1002 1.385 . S
C1006 C1005 1.374 . S
C1007 C1004 1.499 . S
C1007 C1008 1.373 . S
C1007 C1009 1.389 . S
C1008 H981 0.950 . S
C1008 C994 1.377 . S
C1008 C1007 1.373 . S
C1009 C993 1.377 . S
C1009 C1007 1.389 . S
C1009 C1010 1.524 . S
C1010 C1009 1.524 . S
C1010 C1011 1.397 . S
C1010 C1015 1.363 . S
C1011 H982 0.950 . S
C1011 C1010 1.397 . S
C1011 C1012 1.334 . S
C1012 H983 0.950 . S
C1012 C1011 1.334 . S
C1012 C1013 1.287 . S
C1013 C1012 1.287 . S
C1013 C1014 1.524 . S
C1013 H1016 0.999 . S
C1014 H984 0.950 . S
C1014 C1013 1.524 . S
C1014 C1015 1.415 . S
C1015 H985 0.950 . S
C1015 C1010 1.363 . S
C1015 C1014 1.415 . S
H1016 C1013 0.999 . S
H1017 C998 0.913 . S
H1018 C1036 0.951 . S
H1019 C1038 0.951 . S
H1020 C1040 0.950 . S
H1021 C1041 0.950 . S
H1022 C1043 0.950 . S
H1023 C1046 0.950 . S
H1024 C1047 0.950 . S
H1025 C1049 0.950 . S
H1026 C1050 0.950 . S
H1027 C1051 0.951 . S
H1028 C1053 0.951 . S
H1029 C1055 0.950 . S
H1030 C1056 0.950 . S
H1031 C1058 0.950 . S
H1032 C1061 0.950 . S
H1033 C1062 0.950 . S
H1034 C1064 0.950 . S
H1035 C1065 0.950 . S
C1036 H1018 0.951 . S
C1036 C1037 1.366 . S
C1036 C1038 1.388 . S
C1037 C1036 1.366 . S
C1037 C1041 1.385 . S
C1038 H1019 0.951 . S
C1038 C1036 1.388 . S
C1038 C1039 1.366 . S
C1039 C1038 1.366 . S
C1039 C1040 1.414 . S
C1039 C1042 1.499 . S
C1040 H1020 0.950 . S
C1040 C1039 1.414 . S
C1040 C1041 1.374 . S
C1041 H1021 0.950 . S
C1041 C1037 1.385 . S
C1041 C1040 1.374 . S
C1042 C1039 1.499 . S
C1042 C1043 1.373 . S
C1042 C1044 1.389 . S
C1043 H1022 0.950 . S
C1043 C1042 1.373 . S
C1043 C1059 1.377 . S
C1044 C1042 1.389 . S
C1044 C1045 1.524 . S
C1044 C1058 1.377 . S
C1045 C1044 1.524 . S
C1045 C1046 1.397 . S
C1045 C1050 1.363 . S
C1046 H1023 0.950 . S
C1046 C1045 1.397 . S
C1046 C1047 1.334 . S
C1047 H1024 0.950 . S
C1047 C1046 1.334 . S
C1047 C1048 1.287 . S
C1048 C1047 1.287 . S
C1048 C1049 1.524 . S
C1048 H1067 0.913 . S
C1049 H1025 0.950 . S
C1049 C1048 1.524 . S
C1049 C1050 1.415 . S
C1050 H1026 0.950 . S
C1050 C1045 1.363 . S
C1050 C1049 1.415 . S
C1051 H1027 0.951 . S
C1051 C1052 1.366 . S
C1051 C1053 1.388 . S
C1052 C1051 1.366 . S
C1052 C1056 1.385 . S
C1053 H1028 0.951 . S
C1053 C1051 1.388 . S
C1053 C1054 1.366 . S
C1054 C1053 1.366 . S
C1054 C1055 1.414 . S
C1054 C1057 1.499 . S
C1055 H1029 0.950 . S
C1055 C1054 1.414 . S
C1055 C1056 1.374 . S
C1056 H1030 0.950 . S
C1056 C1052 1.385 . S
C1056 C1055 1.374 . S
C1057 C1054 1.499 . S
C1057 C1058 1.373 . S
C1057 C1059 1.389 . S
C1058 H1031 0.950 . S
C1058 C1044 1.377 . S
C1058 C1057 1.373 . S
C1059 C1043 1.377 . S
C1059 C1057 1.389 . S
C1059 C1060 1.524 . S
C1060 C1059 1.524 . S
C1060 C1061 1.397 . S
C1060 C1065 1.363 . S
C1061 H1032 0.950 . S
C1061 C1060 1.397 . S
C1061 C1062 1.334 . S
C1062 H1033 0.950 . S
C1062 C1061 1.334 . S
C1062 C1063 1.287 . S
C1063 C1062 1.287 . S
C1063 C1064 1.524 . S
C1063 H1066 0.999 . S
C1064 H1034 0.950 . S
C1064 C1063 1.524 . S
C1064 C1065 1.415 . S
C1065 H1035 0.950 . S
C1065 C1060 1.363 . S
C1065 C1064 1.415 . S
H1066 C1063 0.999 . S
H1067 C1048 0.913 . S
H1068 C1086 0.951 . S
H1069 C1088 0.951 . S
H1070 C1090 0.950 . S
H1071 C1091 0.950 . S
H1072 C1093 0.950 . S
H1073 C1096 0.950 . S
H1074 C1097 0.950 . S
H1075 C1099 0.950 . S
H1076 C1100 0.950 . S
H1077 C1101 0.951 . S
H1078 C1103 0.951 . S
H1079 C1105 0.950 . S
H1080 C1106 0.950 . S
H1081 C1108 0.950 . S
H1082 C1111 0.950 . S
H1083 C1112 0.950 . S
H1084 C1114 0.950 . S
H1085 C1115 0.950 . S
C1086 H1068 0.951 . S
C1086 C1087 1.366 . S
C1086 C1088 1.388 . S
C1087 C1086 1.366 . S
C1087 C1091 1.385 . S
C1088 H1069 0.951 . S
C1088 C1086 1.388 . S
C1088 C1089 1.366 . S
C1089 C1088 1.366 . S
C1089 C1090 1.414 . S
C1089 C1092 1.499 . S
C1090 H1070 0.950 . S
C1090 C1089 1.414 . S
C1090 C1091 1.374 . S
C1091 H1071 0.950 . S
C1091 C1087 1.385 . S
C1091 C1090 1.374 . S
C1092 C1089 1.499 . S
C1092 C1093 1.373 . S
C1092 C1094 1.389 . S
C1093 H1072 0.950 . S
C1093 C1092 1.373 . S
C1093 C1109 1.377 . S
C1094 C1092 1.389 . S
C1094 C1095 1.524 . S
C1094 C1108 1.377 . S
C1095 C1094 1.524 . S
C1095 C1096 1.397 . S
C1095 C1100 1.363 . S
C1096 H1073 0.950 . S
C1096 C1095 1.397 . S
C1096 C1097 1.334 . S
C1097 H1074 0.950 . S
C1097 C1096 1.334 . S
C1097 C1098 1.287 . S
C1098 C1097 1.287 . S
C1098 C1099 1.524 . S
C1098 H1117 0.913 . S
C1099 H1075 0.950 . S
C1099 C1098 1.524 . S
C1099 C1100 1.415 . S
C1100 H1076 0.950 . S
C1100 C1095 1.363 . S
C1100 C1099 1.415 . S
C1101 H1077 0.951 . S
C1101 C1102 1.366 . S
C1101 C1103 1.388 . S
C1102 C1101 1.366 . S
C1102 C1106 1.385 . S
C1103 H1078 0.951 . S
C1103 C1101 1.388 . S
C1103 C1104 1.366 . S
C1104 C1103 1.366 . S
C1104 C1105 1.414 . S
C1104 C1107 1.499 . S
C1105 H1079 0.950 . S
C1105 C1104 1.414 . S
C1105 C1106 1.374 . S
C1106 H1080 0.950 . S
C1106 C1102 1.385 . S
C1106 C1105 1.374 . S
C1107 C1104 1.499 . S
C1107 C1108 1.373 . S
C1107 C1109 1.389 . S
C1108 H1081 0.950 . S
C1108 C1094 1.377 . S
C1108 C1107 1.373 . S
C1109 C1093 1.377 . S
C1109 C1107 1.389 . S
C1109 C1110 1.524 . S
C1110 C1109 1.524 . S
C1110 C1111 1.397 . S
C1110 C1115 1.363 . S
C1111 H1082 0.950 . S
C1111 C1110 1.397 . S
C1111 C1112 1.334 . S
C1112 H1083 0.950 . S
C1112 C1111 1.334 . S
C1112 C1113 1.287 . S
C1113 C1112 1.287 . S
C1113 C1114 1.524 . S
C1113 H1116 0.999 . S
C1114 H1084 0.950 . S
C1114 C1113 1.524 . S
C1114 C1115 1.415 . S
C1115 H1085 0.950 . S
C1115 C1110 1.363 . S
C1115 C1114 1.415 . S
H1116 C1113 0.999 . S
H1117 C1098 0.913 . S
H1118 C1136 0.951 . S
H1119 C1138 0.951 . S
H1120 C1140 0.950 . S
H1121 C1141 0.950 . S
H1122 C1143 0.950 . S
H1123 C1146 0.950 . S
H1124 C1147 0.950 . S
H1125 C1149 0.950 . S
H1126 C1150 0.950 . S
H1127 C1151 0.951 . S
H1128 C1153 0.951 . S
H1129 C1155 0.950 . S
H1130 C1156 0.950 . S
H1131 C1158 0.950 . S
H1132 C1161 0.950 . S
H1133 C1162 0.950 . S
H1134 C1164 0.950 . S
H1135 C1165 0.950 . S
C1136 H1118 0.951 . S
C1136 C1137 1.366 . S
C1136 C1138 1.388 . S
C1137 C1136 1.366 . S
C1137 C1141 1.385 . S
C1138 H1119 0.951 . S
C1138 C1136 1.388 . S
C1138 C1139 1.366 . S
C1139 C1138 1.366 . S
C1139 C1140 1.414 . S
C1139 C1142 1.499 . S
C1140 H1120 0.950 . S
C1140 C1139 1.414 . S
C1140 C1141 1.374 . S
C1141 H1121 0.950 . S
C1141 C1137 1.385 . S
C1141 C1140 1.374 . S
C1142 C1139 1.499 . S
C1142 C1143 1.373 . S
C1142 C1144 1.389 . S
C1143 H1122 0.950 . S
C1143 C1142 1.373 . S
C1143 C1159 1.377 . S
C1144 C1142 1.389 . S
C1144 C1145 1.524 . S
C1144 C1158 1.377 . S
C1145 C1144 1.524 . S
C1145 C1146 1.397 . S
C1145 C1150 1.363 . S
C1146 H1123 0.950 . S
C1146 C1145 1.397 . S
C1146 C1147 1.334 . S
C1147 H1124 0.950 . S
C1147 C1146 1.334 . S
C1147 C1148 1.287 . S
C1148 C1147 1.287 . S
C1148 C1149 1.524 . S
C1148 H1167 0.913 . S
C1149 H1125 0.950 . S
C1149 C1148 1.524 . S
C1149 C1150 1.415 . S
C1150 H1126 0.950 . S
C1150 C1145 1.363 . S
C1150 C1149 1.415 . S
C1151 H1127 0.951 . S
C1151 C1152 1.366 . S
C1151 C1153 1.388 . S
C1152 C1151 1.366 . S
C1152 C1156 1.385 . S
C1153 H1128 0.951 . S
C1153 C1151 1.388 . S
C1153 C1154 1.366 . S
C1154 C1153 1.366 . S
C1154 C1155 1.414 . S
C1154 C1157 1.499 . S
C1155 H1129 0.950 . S
C1155 C1154 1.414 . S
C1155 C1156 1.374 . S
C1156 H1130 0.950 . S
C1156 C1152 1.385 . S
C1156 C1155 1.374 . S
C1157 C1154 1.499 . S
C1157 C1158 1.373 . S
C1157 C1159 1.389 . S
C1158 H1131 0.950 . S
C1158 C1144 1.377 . S
C1158 C1157 1.373 . S
C1159 C1143 1.377 . S
C1159 C1157 1.389 . S
C1159 C1160 1.524 . S
C1160 C1159 1.524 . S
C1160 C1161 1.397 . S
C1160 C1165 1.363 . S
C1161 H1132 0.950 . S
C1161 C1160 1.397 . S
C1161 C1162 1.334 1_556 S
C1162 H1133 0.950 . S
C1162 C1161 1.334 1_554 S
C1162 C1163 1.287 . S
C1163 C1162 1.287 . S
C1163 C1164 1.524 1_554 S
C1163 H1166 0.999 . S
C1164 H1134 0.950 . S
C1164 C1163 1.524 1_556 S
C1164 C1165 1.415 . S
C1165 H1135 0.950 . S
C1165 C1160 1.363 . S
C1165 C1164 1.415 . S
H1166 C1163 0.999 . S
H1167 C1148 0.913 . S
H1168 C1186 0.951 . S
H1169 C1188 0.951 . S
H1170 C1190 0.950 . S
H1171 C1191 0.950 . S
H1172 C1193 0.950 . S
H1173 C1196 0.950 . S
H1174 C1197 0.950 . S
H1175 C1199 0.950 . S
H1176 C1200 0.950 . S
H1177 C1201 0.951 . S
H1178 C1203 0.951 . S
H1179 C1205 0.950 . S
H1180 C1206 0.950 . S
H1181 C1208 0.950 . S
H1182 C1211 0.950 . S
H1183 C1212 0.950 . S
H1184 C1214 0.950 . S
H1185 C1215 0.950 . S
C1186 H1168 0.951 . S
C1186 C1187 1.366 . S
C1186 C1188 1.388 . S
C1187 C1186 1.366 . S
C1187 C1191 1.385 . S
C1188 H1169 0.951 . S
C1188 C1186 1.388 . S
C1188 C1189 1.366 . S
C1189 C1188 1.366 . S
C1189 C1190 1.414 . S
C1189 C1192 1.499 . S
C1190 H1170 0.950 . S
C1190 C1189 1.414 . S
C1190 C1191 1.374 . S
C1191 H1171 0.950 . S
C1191 C1187 1.385 . S
C1191 C1190 1.374 . S
C1192 C1189 1.499 . S
C1192 C1193 1.373 . S
C1192 C1194 1.389 . S
C1193 H1172 0.950 . S
C1193 C1192 1.373 . S
C1193 C1209 1.377 . S
C1194 C1192 1.389 . S
C1194 C1195 1.524 . S
C1194 C1208 1.377 . S
C1195 C1194 1.524 . S
C1195 C1196 1.397 . S
C1195 C1200 1.363 . S
C1196 H1173 0.950 . S
C1196 C1195 1.397 . S
C1196 C1197 1.334 . S
C1197 H1174 0.950 . S
C1197 C1196 1.334 . S
C1197 C1198 1.287 1_556 S
C1198 C1197 1.287 1_554 S
C1198 C1199 1.524 . S
C1198 H1217 0.913 . S
C1199 H1175 0.950 . S
C1199 C1198 1.524 . S
C1199 C1200 1.415 1_554 S
C1200 H1176 0.950 . S
C1200 C1195 1.363 . S
C1200 C1199 1.415 1_556 S
C1201 H1177 0.951 . S
C1201 C1202 1.366 . S
C1201 C1203 1.388 . S
C1202 C1201 1.366 . S
C1202 C1206 1.385 . S
C1203 H1178 0.951 . S
C1203 C1201 1.388 . S
C1203 C1204 1.366 . S
C1204 C1203 1.366 . S
C1204 C1205 1.414 . S
C1204 C1207 1.499 . S
C1205 H1179 0.950 . S
C1205 C1204 1.414 . S
C1205 C1206 1.374 . S
C1206 H1180 0.950 . S
C1206 C1202 1.385 . S
C1206 C1205 1.374 . S
C1207 C1204 1.499 . S
C1207 C1208 1.373 . S
C1207 C1209 1.389 . S
C1208 H1181 0.950 . S
C1208 C1194 1.377 . S
C1208 C1207 1.373 . S
C1209 C1193 1.377 . S
C1209 C1207 1.389 . S
C1209 C1210 1.524 . S
C1210 C1209 1.524 . S
C1210 C1211 1.397 . S
C1210 C1215 1.363 . S
C1211 H1182 0.950 . S
C1211 C1210 1.397 . S
C1211 C1212 1.334 . S
C1212 H1183 0.950 . S
C1212 C1211 1.334 . S
C1212 C1213 1.287 . S
C1213 C1212 1.287 . S
C1213 C1214 1.524 . S
C1213 H1216 0.999 . S
C1214 H1184 0.950 . S
C1214 C1213 1.524 . S
C1214 C1215 1.415 . S
C1215 H1185 0.950 . S
C1215 C1210 1.363 . S
C1215 C1214 1.415 . S
H1216 C1213 0.999 . S
H1217 C1198 0.913 . S
H1218 C1236 0.951 . S
H1219 C1238 0.951 . S
H1220 C1240 0.950 . S
H1221 C1241 0.950 . S
H1222 C1243 0.950 . S
H1223 C1246 0.950 . S
H1224 C1247 0.950 . S
H1225 C1249 0.950 . S
H1226 C1250 0.950 . S
H1227 C1251 0.951 1_554 S
H1228 C1253 0.951 . S
H1229 C1255 0.950 . S
H1230 C1256 0.950 . S
H1231 C1258 0.950 . S
H1232 C1261 0.950 . S
H1233 C1262 0.950 . S
H1234 C1264 0.950 . S
H1235 C1265 0.950 1_556 S
C1236 H1218 0.951 . S
C1236 C1237 1.366 . S
C1236 C1238 1.388 . S
C1237 C1236 1.366 . S
C1237 C1241 1.385 . S
C1238 H1219 0.951 . S
C1238 C1236 1.388 . S
C1238 C1239 1.366 . S
C1239 C1238 1.366 . S
C1239 C1240 1.414 . S
C1239 C1242 1.499 . S
C1240 H1220 0.950 . S
C1240 C1239 1.414 . S
C1240 C1241 1.374 . S
C1241 H1221 0.950 . S
C1241 C1237 1.385 . S
C1241 C1240 1.374 . S
C1242 C1239 1.499 . S
C1242 C1243 1.373 . S
C1242 C1244 1.389 . S
C1243 H1222 0.950 . S
C1243 C1242 1.373 . S
C1243 C1259 1.377 . S
C1244 C1242 1.389 . S
C1244 C1245 1.524 . S
C1244 C1258 1.377 . S
C1245 C1244 1.524 . S
C1245 C1246 1.397 . S
C1245 C1250 1.363 . S
C1246 H1223 0.950 . S
C1246 C1245 1.397 . S
C1246 C1247 1.334 . S
C1247 H1224 0.950 . S
C1247 C1246 1.334 . S
C1247 C1248 1.287 . S
C1248 C1247 1.287 . S
C1248 C1249 1.524 . S
C1248 H1267 0.913 . S
C1249 H1225 0.950 . S
C1249 C1248 1.524 . S
C1249 C1250 1.415 . S
C1250 H1226 0.950 . S
C1250 C1245 1.363 . S
C1250 C1249 1.415 . S
C1251 H1227 0.951 1_556 S
C1251 C1252 1.367 . S
C1251 C1253 1.388 . S
C1252 C1251 1.367 . S
C1252 C1256 1.398 . S
C1253 H1228 0.951 . S
C1253 C1251 1.388 . S
C1253 C1254 1.366 . S
C1254 C1253 1.366 . S
C1254 C1255 1.414 . S
C1254 C1257 1.499 . S
C1255 H1229 0.950 . S
C1255 C1254 1.414 . S
C1255 C1256 1.374 . S
C1256 H1230 0.950 . S
C1256 C1252 1.398 . S
C1256 C1255 1.374 . S
C1257 C1254 1.499 . S
C1257 C1258 1.373 . S
C1257 C1259 1.389 . S
C1258 H1231 0.950 . S
C1258 C1244 1.377 . S
C1258 C1257 1.373 . S
C1259 C1243 1.377 . S
C1259 C1257 1.389 . S
C1259 C1260 1.524 . S
C1260 C1259 1.524 . S
C1260 C1261 1.397 1_556 S
C1260 C1265 1.363 1_556 S
C1261 H1232 0.950 . S
C1261 C1260 1.397 1_554 S
C1261 C1262 1.334 . S
C1262 H1233 0.950 . S
C1262 C1261 1.334 . S
C1262 C1263 1.287 . S
C1263 C1262 1.287 . S
C1263 C1264 1.524 . S
C1263 H1266 0.999 . S
C1264 H1234 0.950 . S
C1264 C1263 1.524 . S
C1264 C1265 1.415 . S
C1265 H1235 0.950 1_554 S
C1265 C1260 1.363 1_554 S
C1265 C1264 1.415 . S
H1266 C1263 0.999 . S
H1267 C1248 0.913 . S
H1268 C1286 0.951 . S
H1269 C1288 0.951 . S
H1270 C1290 0.950 . S
H1271 C1291 0.950 . S
H1272 C1293 0.950 . S
H1273 C1296 0.950 . S
H1274 C1297 0.950 . S
H1275 C1299 0.950 . S
H1276 C1300 0.950 . S
H1277 C1301 0.951 . S
H1278 C1303 0.951 . S
H1279 C1305 0.950 . S
H1280 C1306 0.950 . S
H1281 C1308 0.950 . S
H1282 C1311 0.950 . S
H1283 C1312 0.950 . S
H1284 C1314 0.950 . S
H1285 C1315 0.950 . S
C1286 H1268 0.951 . S
C1286 C1287 1.366 . S
C1286 C1288 1.388 . S
C1287 C1286 1.366 . S
C1287 C1291 1.385 . S
C1288 H1269 0.951 . S
C1288 C1286 1.388 . S
C1288 C1289 1.366 . S
C1289 C1288 1.366 . S
C1289 C1290 1.414 . S
C1289 C1292 1.499 . S
C1290 H1270 0.950 . S
C1290 C1289 1.414 . S
C1290 C1291 1.374 . S
C1291 H1271 0.950 . S
C1291 C1287 1.385 . S
C1291 C1290 1.374 . S
C1292 C1289 1.499 . S
C1292 C1293 1.373 . S
C1292 C1294 1.389 . S
C1293 H1272 0.950 . S
C1293 C1292 1.373 . S
C1293 C1309 1.377 . S
C1294 C1292 1.389 . S
C1294 C1295 1.524 . S
C1294 C1308 1.377 . S
C1295 C1294 1.524 . S
C1295 C1296 1.397 . S
C1295 C1300 1.363 . S
C1296 H1273 0.950 . S
C1296 C1295 1.397 . S
C1296 C1297 1.334 . S
C1297 H1274 0.950 . S
C1297 C1296 1.334 . S
C1297 C1298 1.287 . S
C1298 C1297 1.287 . S
C1298 C1299 1.524 . S
C1298 H1317 0.913 . S
C1299 H1275 0.950 . S
C1299 C1298 1.524 . S
C1299 C1300 1.415 . S
C1300 H1276 0.950 . S
C1300 C1295 1.363 . S
C1300 C1299 1.415 . S
C1301 H1277 0.951 . S
C1301 C1302 1.366 . S
C1301 C1303 1.388 . S
C1302 C1301 1.366 . S
C1302 C1306 1.385 . S
C1303 H1278 0.951 . S
C1303 C1301 1.388 . S
C1303 C1304 1.366 . S
C1304 C1303 1.366 . S
C1304 C1305 1.414 . S
C1304 C1307 1.499 . S
C1305 H1279 0.950 . S
C1305 C1304 1.414 . S
C1305 C1306 1.374 . S
C1306 H1280 0.950 . S
C1306 C1302 1.385 . S
C1306 C1305 1.374 . S
C1307 C1304 1.499 . S
C1307 C1308 1.373 . S
C1307 C1309 1.389 . S
C1308 H1281 0.950 . S
C1308 C1294 1.377 . S
C1308 C1307 1.373 . S
C1309 C1293 1.377 . S
C1309 C1307 1.389 . S
C1309 C1310 1.524 . S
C1310 C1309 1.524 . S
C1310 C1311 1.397 . S
C1310 C1315 1.363 . S
C1311 H1282 0.950 . S
C1311 C1310 1.397 . S
C1311 C1312 1.334 1_556 S
C1312 H1283 0.950 . S
C1312 C1311 1.334 1_554 S
C1312 C1313 1.287 . S
C1313 C1312 1.287 . S
C1313 C1314 1.524 . S
C1313 H1316 0.999 . S
C1314 H1284 0.950 . S
C1314 C1313 1.524 . S
C1314 C1315 1.415 1_554 S
C1315 H1285 0.950 . S
C1315 C1310 1.363 . S
C1315 C1314 1.415 1_556 S
H1316 C1313 0.999 . S
H1317 C1298 0.913 . S
H1318 C1336 0.951 . S
H1319 C1338 0.951 . S
H1320 C1340 0.950 . S
H1321 C1341 0.950 . S
H1322 C1343 0.950 . S
H1323 C1346 0.950 . S
H1324 C1347 0.950 . S
H1325 C1349 0.950 . S
H1326 C1350 0.950 . S
H1327 C1351 0.951 . S
H1328 C1353 0.951 . S
H1329 C1355 0.950 . S
H1330 C1356 0.950 . S
H1331 C1358 0.950 . S
H1332 C1361 0.950 . S
H1333 C1362 0.950 . S
H1334 C1364 0.950 . S
H1335 C1365 0.950 . S
C1336 H1318 0.951 . S
C1336 C1337 1.366 . S
C1336 C1338 1.388 . S
C1337 C1336 1.366 . S
C1337 C1341 1.385 . S
C1338 H1319 0.951 . S
C1338 C1336 1.388 . S
C1338 C1339 1.366 . S
C1339 C1338 1.366 . S
C1339 C1340 1.414 . S
C1339 C1342 1.499 . S
C1340 H1320 0.950 . S
C1340 C1339 1.414 . S
C1340 C1341 1.374 . S
C1341 H1321 0.950 . S
C1341 C1337 1.385 . S
C1341 C1340 1.374 . S
C1342 C1339 1.499 . S
C1342 C1343 1.373 . S
C1342 C1344 1.389 . S
C1343 H1322 0.950 . S
C1343 C1342 1.373 . S
C1343 C1359 1.377 . S
C1344 C1342 1.389 . S
C1344 C1345 1.524 . S
C1344 C1358 1.377 . S
C1345 C1344 1.524 . S
C1345 C1346 1.397 . S
C1345 C1350 1.363 . S
C1346 H1323 0.950 . S
C1346 C1345 1.397 . S
C1346 C1347 1.334 . S
C1347 H1324 0.950 . S
C1347 C1346 1.334 . S
C1347 C1348 1.287 . S
C1348 C1347 1.287 . S
C1348 C1349 1.524 . S
C1348 H1367 0.913 . S
C1349 H1325 0.950 . S
C1349 C1348 1.524 . S
C1349 C1350 1.415 . S
C1350 H1326 0.950 . S
C1350 C1345 1.363 . S
C1350 C1349 1.415 . S
C1351 H1327 0.951 . S
C1351 C1352 1.366 . S
C1351 C1353 1.388 . S
C1352 C1351 1.366 . S
C1352 C1356 1.385 . S
C1353 H1328 0.951 . S
C1353 C1351 1.388 . S
C1353 C1354 1.366 . S
C1354 C1353 1.366 . S
C1354 C1355 1.414 . S
C1354 C1357 1.499 . S
C1355 H1329 0.950 . S
C1355 C1354 1.414 . S
C1355 C1356 1.374 . S
C1356 H1330 0.950 . S
C1356 C1352 1.385 . S
C1356 C1355 1.374 . S
C1357 C1354 1.499 . S
C1357 C1358 1.373 . S
C1357 C1359 1.389 . S
C1358 H1331 0.950 . S
C1358 C1344 1.377 . S
C1358 C1357 1.373 . S
C1359 C1343 1.377 . S
C1359 C1357 1.389 . S
C1359 C1360 1.524 . S
C1360 C1359 1.524 . S
C1360 C1361 1.397 . S
C1360 C1365 1.363 . S
C1361 H1332 0.950 . S
C1361 C1360 1.397 . S
C1361 C1362 1.334 1_554 S
C1362 H1333 0.950 . S
C1362 C1361 1.334 1_556 S
C1362 C1363 1.287 . S
C1363 C1362 1.287 . S
C1363 C1364 1.524 . S
C1363 H1366 0.999 . S
C1364 H1334 0.950 . S
C1364 C1363 1.524 . S
C1364 C1365 1.415 1_556 S
C1365 H1335 0.950 . S
C1365 C1360 1.363 . S
C1365 C1364 1.415 1_554 S
H1366 C1363 0.999 . S
H1367 C1348 0.913 . S
H1368 C1386 0.951 . S
H1369 C1388 0.951 . S
H1370 C1390 0.950 . S
H1371 C1391 0.950 . S
H1372 C1393 0.950 . S
H1373 C1396 0.950 . S
H1374 C1397 0.950 . S
H1375 C1399 0.950 . S
H1376 C1400 0.950 . S
H1377 C1401 0.951 . S
H1378 C1403 0.951 . S
H1379 C1405 0.950 . S
H1380 C1406 0.950 . S
H1381 C1408 0.950 . S
H1382 C1411 0.950 . S
H1383 C1412 0.950 . S
H1384 C1414 0.950 . S
H1385 C1415 0.950 . S
C1386 H1368 0.951 . S
C1386 C1387 1.366 . S
C1386 C1388 1.388 . S
C1387 C1386 1.366 . S
C1387 C1391 1.385 . S
C1388 H1369 0.951 . S
C1388 C1386 1.388 . S
C1388 C1389 1.366 . S
C1389 C1388 1.366 . S
C1389 C1390 1.414 . S
C1389 C1392 1.499 . S
C1390 H1370 0.950 . S
C1390 C1389 1.414 . S
C1390 C1391 1.374 . S
C1391 H1371 0.950 . S
C1391 C1387 1.385 . S
C1391 C1390 1.374 . S
C1392 C1389 1.499 . S
C1392 C1393 1.373 . S
C1392 C1394 1.389 . S
C1393 H1372 0.950 . S
C1393 C1392 1.373 . S
C1393 C1409 1.377 . S
C1394 C1392 1.389 . S
C1394 C1395 1.524 . S
C1394 C1408 1.377 . S
C1395 C1394 1.524 . S
C1395 C1396 1.397 . S
C1395 C1400 1.363 . S
C1396 H1373 0.950 . S
C1396 C1395 1.397 . S
C1396 C1397 1.334 . S
C1397 H1374 0.950 . S
C1397 C1396 1.334 . S
C1397 C1398 1.287 . S
C1398 C1397 1.287 . S
C1398 C1399 1.524 . S
C1398 H1417 0.913 . S
C1399 H1375 0.950 . S
C1399 C1398 1.524 . S
C1399 C1400 1.415 . S
C1400 H1376 0.950 . S
C1400 C1395 1.363 . S
C1400 C1399 1.415 . S
C1401 H1377 0.951 . S
C1401 C1402 1.366 . S
C1401 C1403 1.388 . S
C1402 C1401 1.366 . S
C1402 C1406 1.385 . S
C1403 H1378 0.951 . S
C1403 C1401 1.388 . S
C1403 C1404 1.366 . S
C1404 C1403 1.366 . S
C1404 C1405 1.414 . S
C1404 C1407 1.499 . S
C1405 H1379 0.950 . S
C1405 C1404 1.414 . S
C1405 C1406 1.374 . S
C1406 H1380 0.950 . S
C1406 C1402 1.385 . S
C1406 C1405 1.374 . S
C1407 C1404 1.499 . S
C1407 C1408 1.373 . S
C1407 C1409 1.389 . S
C1408 H1381 0.950 . S
C1408 C1394 1.377 . S
C1408 C1407 1.373 . S
C1409 C1393 1.377 . S
C1409 C1407 1.389 . S
C1409 C1410 1.524 . S
C1410 C1409 1.524 . S
C1410 C1411 1.397 . S
C1410 C1415 1.363 . S
C1411 H1382 0.950 . S
C1411 C1410 1.397 . S
C1411 C1412 1.334 1_556 S
C1412 H1383 0.950 . S
C1412 C1411 1.334 1_554 S
C1412 C1413 1.287 . S
C1413 C1412 1.287 . S
C1413 C1414 1.524 1_554 S
C1413 H1416 0.999 . S
C1414 H1384 0.950 . S
C1414 C1413 1.524 1_556 S
C1414 C1415 1.415 . S
C1415 H1385 0.950 . S
C1415 C1410 1.363 . S
C1415 C1414 1.415 . S
H1416 C1413 0.999 . S
H1417 C1398 0.913 . S
H1418 C1436 0.951 . S
H1419 C1438 0.951 . S
H1420 C1440 0.950 . S
H1421 C1441 0.950 . S
H1422 C1443 0.950 . S
H1423 C1446 0.950 . S
H1424 C1447 0.950 . S
H1425 C1449 0.950 . S
H1426 C1450 0.950 . S
H1427 C1451 0.950 1_554 S
H1428 C1453 0.951 . S
H1429 C1455 0.950 . S
H1430 C1456 0.950 . S
H1431 C1458 0.950 . S
H1432 C1461 0.950 . S
H1433 C1462 0.950 . S
H1434 C1464 0.950 . S
H1435 C1465 0.950 . S
C1436 H1418 0.951 . S
C1436 C1437 1.366 . S
C1436 C1438 1.388 . S
C1437 C1436 1.366 . S
C1437 C1441 1.385 . S
C1438 H1419 0.951 . S
C1438 C1436 1.388 . S
C1438 C1439 1.366 . S
C1439 C1438 1.366 . S
C1439 C1440 1.414 . S
C1439 C1442 1.499 . S
C1440 H1420 0.950 . S
C1440 C1439 1.414 . S
C1440 C1441 1.374 . S
C1441 H1421 0.950 . S
C1441 C1437 1.385 . S
C1441 C1440 1.374 . S
C1442 C1439 1.499 . S
C1442 C1443 1.373 . S
C1442 C1444 1.389 . S
C1443 H1422 0.950 . S
C1443 C1442 1.373 . S
C1443 C1459 1.377 . S
C1444 C1442 1.389 . S
C1444 C1445 1.524 . S
C1444 C1458 1.377 . S
C1445 C1444 1.524 . S
C1445 C1446 1.397 . S
C1445 C1450 1.363 . S
C1446 H1423 0.950 . S
C1446 C1445 1.397 . S
C1446 C1447 1.334 . S
C1447 H1424 0.950 . S
C1447 C1446 1.334 . S
C1447 C1448 1.287 . S
C1448 C1447 1.287 . S
C1448 C1449 1.524 . S
C1448 H1467 0.913 . S
C1449 H1425 0.950 . S
C1449 C1448 1.524 . S
C1449 C1450 1.415 . S
C1450 H1426 0.950 . S
C1450 C1445 1.363 . S
C1450 C1449 1.415 . S
C1451 H1427 0.950 1_556 S
C1451 C1452 1.366 . S
C1451 C1453 1.388 . S
C1452 C1451 1.366 . S
C1452 C1456 1.385 . S
C1453 H1428 0.951 . S
C1453 C1451 1.388 . S
C1453 C1454 1.366 . S
C1454 C1453 1.366 . S
C1454 C1455 1.414 . S
C1454 C1457 1.499 . S
C1455 H1429 0.950 . S
C1455 C1454 1.414 . S
C1455 C1456 1.374 . S
C1456 H1430 0.950 . S
C1456 C1452 1.385 . S
C1456 C1455 1.374 . S
C1457 C1454 1.499 . S
C1457 C1458 1.373 . S
C1457 C1459 1.389 . S
C1458 H1431 0.950 . S
C1458 C1444 1.377 . S
C1458 C1457 1.373 . S
C1459 C1443 1.377 . S
C1459 C1457 1.389 . S
C1459 C1460 1.524 . S
C1460 C1459 1.524 . S
C1460 C1461 1.397 . S
C1460 C1465 1.363 . S
C1461 H1432 0.950 . S
C1461 C1460 1.397 . S
C1461 C1462 1.334 1_556 S
C1462 H1433 0.950 . S
C1462 C1461 1.334 1_554 S
C1462 C1463 1.287 . S
C1463 C1462 1.287 . S
C1463 C1464 1.524 . S
C1463 H1466 0.999 . S
C1464 H1434 0.950 . S
C1464 C1463 1.524 . S
C1464 C1465 1.415 1_554 S
C1465 H1435 0.950 . S
C1465 C1460 1.363 . S
C1465 C1464 1.415 1_556 S
H1466 C1463 0.999 . S
H1467 C1448 0.913 . S
H1468 C1486 0.951 . S
H1469 C1488 0.951 . S
H1470 C1490 0.950 . S
H1471 C1491 0.950 . S
H1472 C1493 0.950 . S
H1473 C1496 0.950 . S
H1474 C1497 0.950 . S
H1475 C1499 0.950 . S
H1476 C1500 0.950 . S
H1477 C1501 0.951 . S
H1478 C1503 0.951 . S
H1479 C1505 0.950 . S
H1480 C1506 0.950 . S
H1481 C1508 0.950 . S
H1482 C1511 0.950 . S
H1483 C1512 0.950 . S
H1484 C1514 0.950 . S
H1485 C1515 0.950 . S
C1486 H1468 0.951 . S
C1486 C1487 1.366 . S
C1486 C1488 1.388 . S
C1487 C1486 1.366 . S
C1487 C1491 1.385 . S
C1488 H1469 0.951 . S
C1488 C1486 1.388 . S
C1488 C1489 1.366 . S
C1489 C1488 1.366 . S
C1489 C1490 1.414 . S
C1489 C1492 1.499 . S
C1490 H1470 0.950 . S
C1490 C1489 1.414 . S
C1490 C1491 1.374 . S
C1491 H1471 0.950 . S
C1491 C1487 1.385 . S
C1491 C1490 1.374 . S
C1492 C1489 1.499 . S
C1492 C1493 1.373 . S
C1492 C1494 1.389 . S
C1493 H1472 0.950 . S
C1493 C1492 1.373 . S
C1493 C1509 1.377 . S
C1494 C1492 1.389 . S
C1494 C1495 1.524 . S
C1494 C1508 1.377 . S
C1495 C1494 1.524 . S
C1495 C1496 1.397 . S
C1495 C1500 1.363 . S
C1496 H1473 0.950 . S
C1496 C1495 1.397 . S
C1496 C1497 1.334 . S
C1497 H1474 0.950 . S
C1497 C1496 1.334 . S
C1497 C1498 1.287 1_556 S
C1498 C1497 1.287 1_554 S
C1498 C1499 1.524 . S
C1498 H1517 0.913 . S
C1499 H1475 0.950 . S
C1499 C1498 1.524 . S
C1499 C1500 1.415 1_554 S
C1500 H1476 0.950 . S
C1500 C1495 1.363 . S
C1500 C1499 1.415 1_556 S
C1501 H1477 0.951 . S
C1501 C1502 1.366 . S
C1501 C1503 1.388 . S
C1502 C1501 1.366 . S
C1502 C1506 1.385 . S
C1503 H1478 0.951 . S
C1503 C1501 1.388 . S
C1503 C1504 1.366 . S
C1504 C1503 1.366 . S
C1504 C1505 1.414 . S
C1504 C1507 1.499 . S
C1505 H1479 0.950 . S
C1505 C1504 1.414 . S
C1505 C1506 1.374 . S
C1506 H1480 0.950 . S
C1506 C1502 1.385 . S
C1506 C1505 1.374 . S
C1507 C1504 1.499 . S
C1507 C1508 1.373 . S
C1507 C1509 1.389 . S
C1508 H1481 0.950 . S
C1508 C1494 1.377 . S
C1508 C1507 1.373 . S
C1509 C1493 1.377 . S
C1509 C1507 1.389 . S
C1509 C1510 1.524 . S
C1510 C1509 1.524 . S
C1510 C1511 1.397 . S
C1510 C1515 1.363 . S
C1511 H1482 0.950 . S
C1511 C1510 1.397 . S
C1511 C1512 1.334 . S
C1512 H1483 0.950 . S
C1512 C1511 1.334 . S
C1512 C1513 1.287 . S
C1513 C1512 1.287 . S
C1513 C1514 1.524 . S
C1513 H1516 0.999 . S
C1514 H1484 0.950 . S
C1514 C1513 1.524 . S
C1514 C1515 1.415 . S
C1515 H1485 0.950 . S
C1515 C1510 1.363 . S
C1515 C1514 1.415 . S
H1516 C1513 0.999 . S
H1517 C1498 0.913 . S
H1518 C1536 0.951 . S
H1519 C1538 0.951 . S
H1520 C1540 0.950 . S
H1521 C1541 0.950 . S
H1522 C1543 0.950 . S
H1523 C1546 0.950 . S
H1524 C1547 0.950 . S
H1525 C1549 0.950 . S
H1526 C1550 0.950 . S
H1527 C1551 0.951 . S
H1528 C1553 0.951 . S
H1529 C1555 0.950 . S
H1530 C1556 0.950 . S
H1531 C1558 0.950 . S
H1532 C1561 0.950 . S
H1533 C1562 0.950 1_556 S
H1534 C1564 0.950 . S
H1535 C1565 0.950 . S
C1536 H1518 0.951 . S
C1536 C1537 1.366 . S
C1536 C1538 1.388 . S
C1537 C1536 1.366 . S
C1537 C1541 1.385 . S
C1538 H1519 0.951 . S
C1538 C1536 1.388 . S
C1538 C1539 1.366 . S
C1539 C1538 1.366 . S
C1539 C1540 1.414 . S
C1539 C1542 1.499 . S
C1540 H1520 0.950 . S
C1540 C1539 1.414 . S
C1540 C1541 1.374 . S
C1541 H1521 0.950 . S
C1541 C1537 1.385 . S
C1541 C1540 1.374 . S
C1542 C1539 1.499 . S
C1542 C1543 1.373 . S
C1542 C1544 1.389 . S
C1543 H1522 0.950 . S
C1543 C1542 1.373 . S
C1543 C1559 1.377 . S
C1544 C1542 1.389 . S
C1544 C1545 1.524 . S
C1544 C1558 1.377 . S
C1545 C1544 1.524 . S
C1545 C1546 1.397 . S
C1545 C1550 1.363 . S
C1546 H1523 0.950 . S
C1546 C1545 1.397 . S
C1546 C1547 1.334 . S
C1547 H1524 0.950 . S
C1547 C1546 1.334 . S
C1547 C1548 1.287 . S
C1548 C1547 1.287 . S
C1548 C1549 1.524 . S
C1548 H1567 0.913 . S
C1549 H1525 0.950 . S
C1549 C1548 1.524 . S
C1549 C1550 1.415 . S
C1550 H1526 0.950 . S
C1550 C1545 1.363 . S
C1550 C1549 1.415 . S
C1551 H1527 0.951 . S
C1551 C1552 1.366 1_554 S
C1551 C1553 1.388 . S
C1552 C1551 1.366 1_556 S
C1552 C1556 1.385 . S
C1553 H1528 0.951 . S
C1553 C1551 1.388 . S
C1553 C1554 1.366 1_554 S
C1554 C1553 1.366 1_556 S
C1554 C1555 1.414 . S
C1554 C1557 1.499 . S
C1555 H1529 0.950 . S
C1555 C1554 1.414 . S
C1555 C1556 1.374 . S
C1556 H1530 0.950 . S
C1556 C1552 1.385 . S
C1556 C1555 1.374 . S
C1557 C1554 1.499 . S
C1557 C1558 1.373 . S
C1557 C1559 1.389 . S
C1558 H1531 0.950 . S
C1558 C1544 1.377 . S
C1558 C1557 1.373 . S
C1559 C1543 1.377 . S
C1559 C1557 1.389 . S
C1559 C1560 1.524 . S
C1560 C1559 1.524 . S
C1560 C1561 1.397 . S
C1560 C1565 1.363 1_556 S
C1561 H1532 0.950 . S
C1561 C1560 1.397 . S
C1561 C1562 1.334 1_556 S
C1562 H1533 0.950 1_554 S
C1562 C1561 1.334 1_554 S
C1562 C1563 1.287 . S
C1563 C1562 1.287 . S
C1563 C1564 1.524 . S
C1563 H1566 0.999 . S
C1564 H1534 0.950 . S
C1564 C1563 1.524 . S
C1564 C1565 1.415 . S
C1565 H1535 0.950 . S
C1565 C1560 1.363 1_554 S
C1565 C1564 1.415 . S
H1566 C1563 0.999 . S
H1567 C1548 0.913 . S
H1568 C1586 0.951 . S
H1569 C1588 0.951 . S
H1570 C1590 0.950 . S
H1571 C1591 0.950 . S
H1572 C1593 0.950 . S
H1573 C1596 0.950 . S
H1574 C1597 0.950 . S
H1575 C1599 0.950 . S
H1576 C1600 0.950 . S
H1577 C1601 0.951 . S
H1578 C1603 0.951 . S
H1579 C1605 0.950 . S
H1580 C1606 0.950 . S
H1581 C1608 0.950 . S
H1582 C1611 0.950 . S
H1583 C1612 0.950 . S
H1584 C1614 0.970 . S
H1585 C1615 0.950 . S
C1586 H1568 0.951 . S
C1586 C1587 1.366 . S
C1586 C1588 1.388 . S
C1587 C1586 1.366 . S
C1587 C1591 1.385 . S
C1588 H1569 0.951 . S
C1588 C1586 1.388 . S
C1588 C1589 1.366 . S
C1589 C1588 1.366 . S
C1589 C1590 1.414 . S
C1589 C1592 1.499 . S
C1590 H1570 0.950 . S
C1590 C1589 1.414 . S
C1590 C1591 1.374 . S
C1591 H1571 0.950 . S
C1591 C1587 1.385 . S
C1591 C1590 1.374 . S
C1592 C1589 1.499 . S
C1592 C1593 1.373 . S
C1592 C1594 1.389 . S
C1593 H1572 0.950 . S
C1593 C1592 1.373 . S
C1593 C1609 1.377 . S
C1594 C1592 1.389 . S
C1594 C1595 1.524 . S
C1594 C1608 1.377 . S
C1595 C1594 1.524 . S
C1595 C1596 1.397 . S
C1595 C1600 1.363 . S
C1596 H1573 0.950 . S
C1596 C1595 1.397 . S
C1596 C1597 1.334 . S
C1597 H1574 0.950 . S
C1597 C1596 1.334 . S
C1597 C1598 1.287 . S
C1598 C1597 1.287 . S
C1598 C1599 1.524 . S
C1598 H1617 0.913 . S
C1599 H1575 0.950 . S
C1599 C1598 1.524 . S
C1599 C1600 1.415 . S
C1600 H1576 0.950 . S
C1600 C1595 1.363 . S
C1600 C1599 1.415 . S
C1601 H1577 0.951 . S
C1601 C1602 1.366 . S
C1601 C1603 1.388 . S
C1602 C1601 1.366 . S
C1602 C1606 1.385 . S
C1603 H1578 0.951 . S
C1603 C1601 1.388 . S
C1603 C1604 1.366 . S
C1604 C1603 1.366 . S
C1604 C1605 1.414 . S
C1604 C1607 1.499 . S
C1605 H1579 0.950 . S
C1605 C1604 1.414 . S
C1605 C1606 1.374 . S
C1606 H1580 0.950 . S
C1606 C1602 1.385 . S
C1606 C1605 1.374 . S
C1607 C1604 1.499 . S
C1607 C1608 1.373 . S
C1607 C1609 1.389 . S
C1608 H1581 0.950 . S
C1608 C1594 1.377 . S
C1608 C1607 1.373 . S
C1609 C1593 1.377 . S
C1609 C1607 1.389 . S
C1609 C1610 1.524 . S
C1610 C1609 1.524 . S
C1610 C1611 1.397 . S
C1610 C1615 1.363 . S
C1611 H1582 0.950 . S
C1611 C1610 1.397 . S
C1611 C1612 1.334 1_554 S
C1612 H1583 0.950 . S
C1612 C1611 1.334 1_556 S
C1612 C1613 1.287 1_556 S
C1613 C1612 1.287 1_554 S
C1613 C1614 1.524 . S
C1613 H1616 0.999 1_554 S
C1614 H1584 0.970 . S
C1614 C1613 1.524 . S
C1614 C1615 1.415 . S
C1615 H1585 0.950 . S
C1615 C1610 1.363 . S
C1615 C1614 1.415 . S
H1616 C1613 0.999 1_556 S
H1617 C1598 0.913 . S
H1618 C1636 0.951 . S
H1619 C1638 0.951 . S
H1620 C1640 0.950 . S
H1621 C1641 0.950 . S
H1622 C1643 0.950 . S
H1623 C1646 0.950 . S
H1624 C1647 0.950 . S
H1625 C1649 0.950 . S
H1626 C1650 0.950 . S
H1627 C1651 0.951 . S
H1628 C1653 0.951 . S
H1629 C1655 0.950 . S
H1630 C1656 0.950 . S
H1631 C1658 0.950 . S
H1632 C1661 0.950 . S
H1633 C1662 0.950 . S
H1634 C1664 0.950 . S
H1635 C1665 0.950 . S
C1636 H1618 0.951 . S
C1636 C1637 1.366 . S
C1636 C1638 1.388 . S
C1637 C1636 1.366 . S
C1637 C1641 1.385 . S
C1638 H1619 0.951 . S
C1638 C1636 1.388 . S
C1638 C1639 1.366 . S
C1639 C1638 1.366 . S
C1639 C1640 1.414 . S
C1639 C1642 1.499 . S
C1640 H1620 0.950 . S
C1640 C1639 1.414 . S
C1640 C1641 1.374 . S
C1641 H1621 0.950 . S
C1641 C1637 1.385 . S
C1641 C1640 1.374 . S
C1642 C1639 1.499 . S
C1642 C1643 1.373 . S
C1642 C1644 1.389 . S
C1643 H1622 0.950 . S
C1643 C1642 1.373 . S
C1643 C1659 1.377 . S
C1644 C1642 1.389 . S
C1644 C1645 1.524 . S
C1644 C1658 1.377 . S
C1645 C1644 1.524 . S
C1645 C1646 1.397 . S
C1645 C1650 1.363 . S
C1646 H1623 0.950 . S
C1646 C1645 1.397 . S
C1646 C1647 1.334 . S
C1647 H1624 0.950 . S
C1647 C1646 1.334 . S
C1647 C1648 1.287 . S
C1648 C1647 1.287 . S
C1648 C1649 1.524 . S
C1648 H1667 0.913 . S
C1649 H1625 0.950 . S
C1649 C1648 1.524 . S
C1649 C1650 1.415 . S
C1650 H1626 0.950 . S
C1650 C1645 1.363 . S
C1650 C1649 1.415 . S
C1651 H1627 0.951 . S
C1651 C1652 1.366 . S
C1651 C1653 1.388 . S
C1652 C1651 1.366 . S
C1652 C1656 1.385 . S
C1653 H1628 0.951 . S
C1653 C1651 1.388 . S
C1653 C1654 1.366 . S
C1654 C1653 1.366 . S
C1654 C1655 1.414 . S
C1654 C1657 1.499 . S
C1655 H1629 0.950 . S
C1655 C1654 1.414 . S
C1655 C1656 1.374 . S
C1656 H1630 0.950 . S
C1656 C1652 1.385 . S
C1656 C1655 1.374 . S
C1657 C1654 1.499 . S
C1657 C1658 1.373 . S
C1657 C1659 1.389 . S
C1658 H1631 0.950 . S
C1658 C1644 1.377 . S
C1658 C1657 1.373 . S
C1659 C1643 1.377 . S
C1659 C1657 1.389 . S
C1659 C1660 1.524 . S
C1660 C1659 1.524 . S
C1660 C1661 1.397 . S
C1660 C1665 1.363 . S
C1661 H1632 0.950 . S
C1661 C1660 1.397 . S
C1661 C1662 1.334 . S
C1662 H1633 0.950 . S
C1662 C1661 1.334 . S
C1662 C1663 1.287 . S
C1663 C1662 1.287 . S
C1663 C1664 1.524 . S
C1663 H1666 0.999 . S
C1664 H1634 0.950 . S
C1664 C1663 1.524 . S
C1664 C1665 1.415 . S
C1665 H1635 0.950 . S
C1665 C1660 1.363 . S
C1665 C1664 1.415 . S
H1666 C1663 0.999 . S
H1667 C1648 0.913 . S
H1668 C1686 0.951 . S
H1669 C1688 0.951 . S
H1670 C1690 0.950 . S
H1671 C1691 0.950 . S
H1672 C1693 0.950 . S
H1673 C1696 0.950 . S
H1674 C1697 0.950 . S
H1675 C1699 0.950 . S
H1676 C1700 0.950 . S
H1677 C1701 0.951 . S
H1678 C1703 0.951 . S
H1679 C1705 0.950 . S
H1680 C1706 0.950 . S
H1681 C1708 0.950 . S
H1682 C1711 0.950 . S
H1683 C1712 0.950 . S
H1684 C1714 0.950 . S
H1685 C1715 0.950 . S
C1686 H1668 0.951 . S
C1686 C1687 1.366 . S
C1686 C1688 1.388 . S
C1687 C1686 1.366 . S
C1687 C1691 1.385 . S
C1688 H1669 0.951 . S
C1688 C1686 1.388 . S
C1688 C1689 1.366 . S
C1689 C1688 1.366 . S
C1689 C1690 1.414 . S
C1689 C1692 1.499 . S
C1690 H1670 0.950 . S
C1690 C1689 1.414 . S
C1690 C1691 1.374 . S
C1691 H1671 0.950 . S
C1691 C1687 1.385 . S
C1691 C1690 1.374 . S
C1692 C1689 1.499 . S
C1692 C1693 1.373 . S
C1692 C1694 1.389 . S
C1693 H1672 0.950 . S
C1693 C1692 1.373 . S
C1693 C1709 1.377 . S
C1694 C1692 1.389 . S
C1694 C1695 1.524 . S
C1694 C1708 1.377 . S
C1695 C1694 1.524 . S
C1695 C1696 1.397 . S
C1695 C1700 1.363 . S
C1696 H1673 0.950 . S
C1696 C1695 1.397 . S
C1696 C1697 1.334 . S
C1697 H1674 0.950 . S
C1697 C1696 1.334 . S
C1697 C1698 1.287 . S
C1698 C1697 1.287 . S
C1698 C1699 1.524 . S
C1698 H1717 0.913 . S
C1699 H1675 0.950 . S
C1699 C1698 1.524 . S
C1699 C1700 1.415 . S
C1700 H1676 0.950 . S
C1700 C1695 1.363 . S
C1700 C1699 1.415 . S
C1701 H1677 0.951 . S
C1701 C1702 1.366 . S
C1701 C1703 1.388 . S
C1702 C1701 1.366 . S
C1702 C1706 1.385 . S
C1703 H1678 0.951 . S
C1703 C1701 1.388 . S
C1703 C1704 1.366 . S
C1704 C1703 1.366 . S
C1704 C1705 1.414 . S
C1704 C1707 1.499 . S
C1705 H1679 0.950 . S
C1705 C1704 1.414 . S
C1705 C1706 1.374 . S
C1706 H1680 0.950 . S
C1706 C1702 1.385 . S
C1706 C1705 1.374 . S
C1707 C1704 1.499 . S
C1707 C1708 1.373 . S
C1707 C1709 1.389 . S
C1708 H1681 0.950 . S
C1708 C1694 1.377 . S
C1708 C1707 1.373 . S
C1709 C1693 1.377 . S
C1709 C1707 1.389 . S
C1709 C1710 1.524 . S
C1710 C1709 1.524 . S
C1710 C1711 1.397 . S
C1710 C1715 1.363 . S
C1711 H1682 0.950 . S
C1711 C1710 1.397 . S
C1711 C1712 1.334 . S
C1712 H1683 0.950 . S
C1712 C1711 1.334 . S
C1712 C1713 1.287 . S
C1713 C1712 1.287 . S
C1713 C1714 1.524 . S
C1713 H1716 0.999 . S
C1714 H1684 0.950 . S
C1714 C1713 1.524 . S
C1714 C1715 1.415 . S
C1715 H1685 0.950 . S
C1715 C1710 1.363 . S
C1715 C1714 1.415 . S
H1716 C1713 0.999 . S
H1717 C1698 0.913 . S
H1718 C1736 0.951 . S
H1719 C1738 0.951 . S
H1720 C1740 0.950 . S
H1721 C1741 0.950 . S
H1722 C1743 0.950 . S
H1723 C1746 0.950 . S
H1724 C1747 0.950 . S
H1725 C1749 0.950 . S
H1726 C1750 0.950 . S
H1727 C1751 0.951 . S
H1728 C1753 0.951 . S
H1729 C1755 0.950 . S
H1730 C1756 0.950 . S
H1731 C1758 0.950 . S
H1732 C1761 0.950 . S
H1733 C1762 0.950 . S
H1734 C1764 0.950 . S
H1735 C1765 0.950 . S
C1736 H1718 0.951 . S
C1736 C1737 1.366 . S
C1736 C1738 1.388 . S
C1737 C1736 1.366 . S
C1737 C1741 1.385 . S
C1738 H1719 0.951 . S
C1738 C1736 1.388 . S
C1738 C1739 1.366 . S
C1739 C1738 1.366 . S
C1739 C1740 1.414 . S
C1739 C1742 1.499 . S
C1740 H1720 0.950 . S
C1740 C1739 1.414 . S
C1740 C1741 1.374 . S
C1741 H1721 0.950 . S
C1741 C1737 1.385 . S
C1741 C1740 1.374 . S
C1742 C1739 1.499 . S
C1742 C1743 1.373 . S
C1742 C1744 1.389 . S
C1743 H1722 0.950 . S
C1743 C1742 1.373 . S
C1743 C1759 1.377 . S
C1744 C1742 1.389 . S
C1744 C1745 1.524 . S
C1744 C1758 1.377 . S
C1745 C1744 1.524 . S
C1745 C1746 1.397 . S
C1745 C1750 1.363 . S
C1746 H1723 0.950 . S
C1746 C1745 1.397 . S
C1746 C1747 1.334 . S
C1747 H1724 0.950 . S
C1747 C1746 1.334 . S
C1747 C1748 1.287 . S
C1748 C1747 1.287 . S
C1748 C1749 1.524 . S
C1748 H1767 0.913 . S
C1749 H1725 0.950 . S
C1749 C1748 1.524 . S
C1749 C1750 1.415 . S
C1750 H1726 0.950 . S
C1750 C1745 1.363 . S
C1750 C1749 1.415 . S
C1751 H1727 0.951 . S
C1751 C1752 1.366 . S
C1751 C1753 1.388 . S
C1752 C1751 1.366 . S
C1752 C1756 1.385 . S
C1753 H1728 0.951 . S
C1753 C1751 1.388 . S
C1753 C1754 1.366 . S
C1754 C1753 1.366 . S
C1754 C1755 1.414 . S
C1754 C1757 1.499 . S
C1755 H1729 0.950 . S
C1755 C1754 1.414 . S
C1755 C1756 1.374 . S
C1756 H1730 0.950 . S
C1756 C1752 1.385 . S
C1756 C1755 1.374 . S
C1757 C1754 1.499 . S
C1757 C1758 1.373 . S
C1757 C1759 1.389 . S
C1758 H1731 0.950 . S
C1758 C1744 1.377 . S
C1758 C1757 1.373 . S
C1759 C1743 1.377 . S
C1759 C1757 1.389 . S
C1759 C1760 1.524 . S
C1760 C1759 1.524 . S
C1760 C1761 1.397 . S
C1760 C1765 1.363 . S
C1761 H1732 0.950 . S
C1761 C1760 1.397 . S
C1761 C1762 1.334 1_556 S
C1762 H1733 0.950 . S
C1762 C1761 1.334 1_554 S
C1762 C1763 1.287 . S
C1763 C1762 1.287 . S
C1763 C1764 1.524 . S
C1763 H1766 0.999 . S
C1764 H1734 0.950 . S
C1764 C1763 1.524 . S
C1764 C1765 1.415 1_554 S
C1765 H1735 0.950 . S
C1765 C1760 1.363 . S
C1765 C1764 1.415 1_556 S
H1766 C1763 0.999 . S
H1767 C1748 0.913 . S
H1768 C1786 0.951 . S
H1769 C1788 0.951 . S
H1770 C1790 0.950 . S
H1771 C1791 0.950 . S
H1772 C1793 0.950 . S
H1773 C1796 0.950 . S
H1774 C1797 0.950 . S
H1775 C1799 0.950 . S
H1776 C1800 0.950 . S
H1777 C1801 0.951 1_554 S
H1778 C1803 0.951 . S
H1779 C1805 0.950 . S
H1780 C1806 0.950 . S
H1781 C1808 0.950 . S
H1782 C1811 0.950 . S
H1783 C1812 0.950 . S
H1784 C1814 0.950 . S
H1785 C1815 0.950 . S
C1786 H1768 0.951 . S
C1786 C1787 1.366 . S
C1786 C1788 1.388 . S
C1787 C1786 1.366 . S
C1787 C1791 1.385 . S
C1788 H1769 0.951 . S
C1788 C1786 1.388 . S
C1788 C1789 1.366 . S
C1789 C1788 1.366 . S
C1789 C1790 1.414 . S
C1789 C1792 1.499 . S
C1790 H1770 0.950 . S
C1790 C1789 1.414 . S
C1790 C1791 1.374 . S
C1791 H1771 0.950 . S
C1791 C1787 1.385 . S
C1791 C1790 1.374 . S
C1792 C1789 1.499 . S
C1792 C1793 1.373 . S
C1792 C1794 1.389 . S
C1793 H1772 0.950 . S
C1793 C1792 1.373 . S
C1793 C1809 1.377 . S
C1794 C1792 1.389 . S
C1794 C1795 1.524 . S
C1794 C1808 1.377 . S
C1795 C1794 1.524 . S
C1795 C1796 1.397 . S
C1795 C1800 1.363 . S
C1796 H1773 0.950 . S
C1796 C1795 1.397 . S
C1796 C1797 1.334 . S
C1797 H1774 0.950 . S
C1797 C1796 1.334 . S
C1797 C1798 1.287 . S
C1798 C1797 1.287 . S
C1798 C1799 1.524 . S
C1798 H1817 0.913 . S
C1799 H1775 0.950 . S
C1799 C1798 1.524 . S
C1799 C1800 1.415 . S
C1800 H1776 0.950 . S
C1800 C1795 1.363 . S
C1800 C1799 1.415 . S
C1801 H1777 0.951 1_556 S
C1801 C1802 1.366 . S
C1801 C1803 1.388 . S
C1802 C1801 1.366 . S
C1802 C1806 1.385 . S
C1803 H1778 0.951 . S
C1803 C1801 1.388 . S
C1803 C1804 1.366 . S
C1804 C1803 1.366 . S
C1804 C1805 1.414 . S
C1804 C1807 1.499 . S
C1805 H1779 0.950 . S
C1805 C1804 1.414 . S
C1805 C1806 1.374 . S
C1806 H1780 0.950 . S
C1806 C1802 1.385 . S
C1806 C1805 1.374 . S
C1807 C1804 1.499 . S
C1807 C1808 1.373 . S
C1807 C1809 1.389 . S
C1808 H1781 0.950 . S
C1808 C1794 1.377 . S
C1808 C1807 1.373 . S
C1809 C1793 1.377 . S
C1809 C1807 1.389 . S
C1809 C1810 1.524 . S
C1810 C1809 1.524 . S
C1810 C1811 1.397 . S
C1810 C1815 1.363 . S
C1811 H1782 0.950 . S
C1811 C1810 1.397 . S
C1811 C1812 1.334 . S
C1812 H1783 0.950 . S
C1812 C1811 1.334 . S
C1812 C1813 1.287 . S
C1813 C1812 1.287 . S
C1813 C1814 1.524 . S
C1813 H1816 0.999 . S
C1814 H1784 0.950 . S
C1814 C1813 1.524 . S
C1814 C1815 1.415 . S
C1815 H1785 0.950 . S
C1815 C1810 1.363 . S
C1815 C1814 1.415 . S
H1816 C1813 0.999 . S
H1817 C1798 0.913 . S
H1818 C1836 0.951 . S
H1819 C1838 0.951 . S
H1820 C1840 0.950 . S
H1821 C1841 0.950 . S
H1822 C1843 0.950 . S
H1823 C1846 0.950 . S
H1824 C1847 0.950 . S
H1825 C1849 0.950 . S
H1826 C1850 0.950 . S
H1827 C1851 0.951 . S
H1828 C1853 0.951 . S
H1829 C1855 0.950 . S
H1830 C1856 0.950 . S
H1831 C1858 0.950 . S
H1832 C1861 0.950 . S
H1833 C1862 0.950 . S
H1834 C1864 0.950 . S
H1835 C1865 0.950 . S
C1836 H1818 0.951 . S
C1836 C1837 1.366 . S
C1836 C1838 1.388 . S
C1837 C1836 1.366 . S
C1837 C1841 1.385 . S
C1838 H1819 0.951 . S
C1838 C1836 1.388 . S
C1838 C1839 1.366 . S
C1839 C1838 1.366 . S
C1839 C1840 1.414 . S
C1839 C1842 1.499 . S
C1840 H1820 0.950 . S
C1840 C1839 1.414 . S
C1840 C1841 1.374 . S
C1841 H1821 0.950 . S
C1841 C1837 1.385 . S
C1841 C1840 1.374 . S
C1842 C1839 1.499 . S
C1842 C1843 1.373 . S
C1842 C1844 1.389 . S
C1843 H1822 0.950 . S
C1843 C1842 1.373 . S
C1843 C1859 1.377 . S
C1844 C1842 1.389 . S
C1844 C1845 1.524 . S
C1844 C1858 1.377 . S
C1845 C1844 1.524 . S
C1845 C1846 1.397 . S
C1845 C1850 1.363 . S
C1846 H1823 0.950 . S
C1846 C1845 1.397 . S
C1846 C1847 1.334 . S
C1847 H1824 0.950 . S
C1847 C1846 1.334 . S
C1847 C1848 1.287 . S
C1848 C1847 1.287 . S
C1848 C1849 1.524 . S
C1848 H1867 0.913 . S
C1849 H1825 0.950 . S
C1849 C1848 1.524 . S
C1849 C1850 1.415 . S
C1850 H1826 0.950 . S
C1850 C1845 1.363 . S
C1850 C1849 1.415 . S
C1851 H1827 0.951 . S
C1851 C1852 1.366 . S
C1851 C1853 1.388 . S
C1852 C1851 1.366 . S
C1852 C1856 1.385 . S
C1853 H1828 0.951 . S
C1853 C1851 1.388 . S
C1853 C1854 1.366 . S
C1854 C1853 1.366 . S
C1854 C1855 1.414 . S
C1854 C1857 1.499 . S
C1855 H1829 0.950 . S
C1855 C1854 1.414 . S
C1855 C1856 1.374 . S
C1856 H1830 0.950 . S
C1856 C1852 1.385 . S
C1856 C1855 1.374 . S
C1857 C1854 1.499 . S
C1857 C1858 1.373 . S
C1857 C1859 1.389 . S
C1858 H1831 0.950 . S
C1858 C1844 1.377 . S
C1858 C1857 1.373 . S
C1859 C1843 1.377 . S
C1859 C1857 1.389 . S
C1859 C1860 1.524 . S
C1860 C1859 1.524 . S
C1860 C1861 1.397 . S
C1860 C1865 1.363 . S
C1861 H1832 0.950 . S
C1861 C1860 1.397 . S
C1861 C1862 1.334 1_556 S
C1862 H1833 0.950 . S
C1862 C1861 1.334 1_554 S
C1862 C1863 1.287 . S
C1863 C1862 1.287 . S
C1863 C1864 1.524 1_554 S
C1863 H1866 0.999 . S
C1864 H1834 0.950 . S
C1864 C1863 1.524 1_556 S
C1864 C1865 1.415 . S
C1865 H1835 0.950 . S
C1865 C1860 1.363 . S
C1865 C1864 1.415 . S
H1866 C1863 0.999 . S
H1867 C1848 0.913 . S
H1868 C1886 0.951 . S
H1869 C1888 0.951 . S
H1870 C1890 0.950 . S
H1871 C1891 0.950 . S
H1872 C1893 0.950 . S
H1873 C1896 0.950 . S
H1874 C1897 0.950 . S
H1875 C1899 0.950 . S
H1876 C1900 0.956 . S
H1877 C1901 0.951 . S
H1878 C1903 0.951 . S
H1879 C1905 0.950 . S
H1880 C1906 0.950 1_554 S
H1881 C1908 0.950 . S
H1882 C1911 0.950 . S
H1883 C1912 0.950 . S
H1884 C1914 0.950 . S
H1885 C1915 0.950 . S
C1886 H1868 0.951 . S
C1886 C1887 1.366 . S
C1886 C1888 1.388 . S
C1887 C1886 1.366 . S
C1887 C1891 1.385 . S
C1888 H1869 0.951 . S
C1888 C1886 1.388 . S
C1888 C1889 1.366 . S
C1889 C1888 1.366 . S
C1889 C1890 1.414 . S
C1889 C1892 1.499 . S
C1890 H1870 0.950 . S
C1890 C1889 1.414 . S
C1890 C1891 1.374 . S
C1891 H1871 0.950 . S
C1891 C1887 1.385 . S
C1891 C1890 1.374 . S
C1892 C1889 1.499 . S
C1892 C1893 1.373 . S
C1892 C1894 1.389 . S
C1893 H1872 0.950 . S
C1893 C1892 1.373 . S
C1893 C1909 1.377 . S
C1894 C1892 1.389 . S
C1894 C1895 1.524 . S
C1894 C1908 1.377 . S
C1895 C1894 1.524 . S
C1895 C1896 1.397 . S
C1895 C1900 1.345 1_556 S
C1896 H1873 0.950 . S
C1896 C1895 1.397 . S
C1896 C1897 1.334 . S
C1897 H1874 0.950 . S
C1897 C1896 1.334 . S
C1897 C1898 1.287 1_556 S
C1898 C1897 1.287 1_554 S
C1898 C1899 1.524 . S
C1898 H1917 0.913 . S
C1899 H1875 0.950 . S
C1899 C1898 1.524 . S
C1899 C1900 1.427 . S
C1900 H1876 0.956 . S
C1900 C1895 1.345 1_554 S
C1900 C1899 1.427 . S
C1901 H1877 0.951 . S
C1901 C1902 1.366 . S
C1901 C1903 1.388 . S
C1902 C1901 1.366 . S
C1902 C1906 1.385 . S
C1903 H1878 0.951 . S
C1903 C1901 1.388 . S
C1903 C1904 1.366 . S
C1904 C1903 1.366 . S
C1904 C1905 1.414 . S
C1904 C1907 1.499 . S
C1905 H1879 0.950 . S
C1905 C1904 1.414 . S
C1905 C1906 1.374 . S
C1906 H1880 0.950 1_556 S
C1906 C1902 1.385 . S
C1906 C1905 1.374 . S
C1907 C1904 1.499 . S
C1907 C1908 1.373 . S
C1907 C1909 1.389 . S
C1908 H1881 0.950 . S
C1908 C1894 1.377 . S
C1908 C1907 1.373 . S
C1909 C1893 1.377 . S
C1909 C1907 1.389 . S
C1909 C1910 1.524 . S
C1910 C1909 1.524 . S
C1910 C1911 1.397 . S
C1910 C1915 1.363 . S
C1911 H1882 0.950 . S
C1911 C1910 1.397 . S
C1911 C1912 1.334 . S
C1912 H1883 0.950 . S
C1912 C1911 1.334 . S
C1912 C1913 1.287 . S
C1913 C1912 1.287 . S
C1913 C1914 1.524 . S
C1913 H1916 0.999 . S
C1914 H1884 0.950 . S
C1914 C1913 1.524 . S
C1914 C1915 1.415 . S
C1915 H1885 0.950 . S
C1915 C1910 1.363 . S
C1915 C1914 1.415 . S
H1916 C1913 0.999 . S
H1917 C1898 0.913 . S
H1918 C1936 0.951 . S
H1919 C1938 0.951 . S
H1920 C1940 0.950 . S
H1921 C1941 0.950 . S
H1922 C1943 0.950 . S
H1923 C1946 0.950 . S
H1924 C1947 0.950 . S
H1925 C1949 0.950 . S
H1926 C1950 0.950 . S
H1927 C1951 0.951 . S
H1928 C1953 0.951 . S
H1929 C1955 0.950 . S
H1930 C1956 0.950 . S
H1931 C1958 0.950 . S
H1932 C1961 0.950 . S
H1933 C1962 0.950 . S
H1934 C1964 0.950 . S
H1935 C1965 0.950 . S
C1936 H1918 0.951 . S
C1936 C1937 1.366 . S
C1936 C1938 1.388 . S
C1937 C1936 1.366 . S
C1937 C1941 1.385 . S
C1938 H1919 0.951 . S
C1938 C1936 1.388 . S
C1938 C1939 1.366 . S
C1939 C1938 1.366 . S
C1939 C1940 1.414 . S
C1939 C1942 1.499 . S
C1940 H1920 0.950 . S
C1940 C1939 1.414 . S
C1940 C1941 1.374 . S
C1941 H1921 0.950 . S
C1941 C1937 1.385 . S
C1941 C1940 1.374 . S
C1942 C1939 1.499 . S
C1942 C1943 1.373 . S
C1942 C1944 1.389 . S
C1943 H1922 0.950 . S
C1943 C1942 1.373 . S
C1943 C1959 1.377 . S
C1944 C1942 1.389 . S
C1944 C1945 1.524 . S
C1944 C1958 1.377 . S
C1945 C1944 1.524 . S
C1945 C1946 1.397 . S
C1945 C1950 1.363 . S
C1946 H1923 0.950 . S
C1946 C1945 1.397 . S
C1946 C1947 1.334 . S
C1947 H1924 0.950 . S
C1947 C1946 1.334 . S
C1947 C1948 1.287 . S
C1948 C1947 1.287 . S
C1948 C1949 1.524 . S
C1948 H1967 0.913 . S
C1949 H1925 0.950 . S
C1949 C1948 1.524 . S
C1949 C1950 1.415 . S
C1950 H1926 0.950 . S
C1950 C1945 1.363 . S
C1950 C1949 1.415 . S
C1951 H1927 0.951 . S
C1951 C1952 1.366 . S
C1951 C1953 1.388 . S
C1952 C1951 1.366 . S
C1952 C1956 1.385 . S
C1953 H1928 0.951 . S
C1953 C1951 1.388 . S
C1953 C1954 1.366 . S
C1954 C1953 1.366 . S
C1954 C1955 1.414 . S
C1954 C1957 1.499 . S
C1955 H1929 0.950 . S
C1955 C1954 1.414 . S
C1955 C1956 1.374 . S
C1956 H1930 0.950 . S
C1956 C1952 1.385 . S
C1956 C1955 1.374 . S
C1957 C1954 1.499 . S
C1957 C1958 1.373 . S
C1957 C1959 1.389 . S
C1958 H1931 0.950 . S
C1958 C1944 1.377 . S
C1958 C1957 1.373 . S
C1959 C1943 1.377 . S
C1959 C1957 1.389 . S
C1959 C1960 1.524 . S
C1960 C1959 1.524 . S
C1960 C1961 1.397 . S
C1960 C1965 1.363 . S
C1961 H1932 0.950 . S
C1961 C1960 1.397 . S
C1961 C1962 1.334 . S
C1962 H1933 0.950 . S
C1962 C1961 1.334 . S
C1962 C1963 1.287 . S
C1963 C1962 1.287 . S
C1963 C1964 1.524 . S
C1963 H1966 0.999 . S
C1964 H1934 0.950 . S
C1964 C1963 1.524 . S
C1964 C1965 1.415 . S
C1965 H1935 0.950 . S
C1965 C1960 1.363 . S
C1965 C1964 1.415 . S
H1966 C1963 0.999 . S
H1967 C1948 0.913 . S
H1968 C1986 0.951 . S
H1969 C1988 0.951 . S
H1970 C1990 0.950 . S
H1971 C1991 0.950 . S
H1972 C1993 0.950 . S
H1973 C1996 0.950 . S
H1974 C1997 0.950 . S
H1975 C1999 0.950 . S
H1976 C2000 0.950 . S
H1977 C2001 0.951 . S
H1978 C2003 0.951 . S
H1979 C2005 0.950 . S
H1980 C2006 0.950 . S
H1981 C2008 0.950 . S
H1982 C2011 0.950 . S
H1983 C2012 0.950 . S
H1984 C2014 0.950 . S
H1985 C2015 0.950 . S
C1986 H1968 0.951 . S
C1986 C1987 1.366 . S
C1986 C1988 1.388 . S
C1987 C1986 1.366 . S
C1987 C1991 1.385 . S
C1988 H1969 0.951 . S
C1988 C1986 1.388 . S
C1988 C1989 1.366 . S
C1989 C1988 1.366 . S
C1989 C1990 1.414 . S
C1989 C1992 1.499 . S
C1990 H1970 0.950 . S
C1990 C1989 1.414 . S
C1990 C1991 1.374 . S
C1991 H1971 0.950 . S
C1991 C1987 1.385 . S
C1991 C1990 1.374 . S
C1992 C1989 1.499 . S
C1992 C1993 1.373 . S
C1992 C1994 1.389 . S
C1993 H1972 0.950 . S
C1993 C1992 1.373 . S
C1993 C2009 1.377 . S
C1994 C1992 1.389 . S
C1994 C1995 1.524 . S
C1994 C2008 1.377 . S
C1995 C1994 1.524 . S
C1995 C1996 1.397 . S
C1995 C2000 1.363 . S
C1996 H1973 0.950 . S
C1996 C1995 1.397 . S
C1996 C1997 1.334 . S
C1997 H1974 0.950 . S
C1997 C1996 1.334 . S
C1997 C1998 1.287 . S
C1998 C1997 1.287 . S
C1998 C1999 1.524 . S
C1998 H2017 0.913 . S
C1999 H1975 0.950 . S
C1999 C1998 1.524 . S
C1999 C2000 1.415 . S
C2000 H1976 0.950 . S
C2000 C1995 1.363 . S
C2000 C1999 1.415 . S
C2001 H1977 0.951 . S
C2001 C2002 1.366 . S
C2001 C2003 1.388 . S
C2002 C2001 1.366 . S
C2002 C2006 1.385 . S
C2003 H1978 0.951 . S
C2003 C2001 1.388 . S
C2003 C2004 1.366 . S
C2004 C2003 1.366 . S
C2004 C2005 1.414 . S
C2004 C2007 1.499 . S
C2005 H1979 0.950 . S
C2005 C2004 1.414 . S
C2005 C2006 1.374 . S
C2006 H1980 0.950 . S
C2006 C2002 1.385 . S
C2006 C2005 1.374 . S
C2007 C2004 1.499 . S
C2007 C2008 1.373 . S
C2007 C2009 1.389 . S
C2008 H1981 0.950 . S
C2008 C1994 1.377 . S
C2008 C2007 1.373 . S
C2009 C1993 1.377 . S
C2009 C2007 1.389 . S
C2009 C2010 1.524 . S
C2010 C2009 1.524 . S
C2010 C2011 1.397 . S
C2010 C2015 1.363 . S
C2011 H1982 0.950 . S
C2011 C2010 1.397 . S
C2011 C2012 1.334 . S
C2012 H1983 0.950 . S
C2012 C2011 1.334 . S
C2012 C2013 1.287 . S
C2013 C2012 1.287 . S
C2013 C2014 1.524 . S
C2013 H2016 0.999 . S
C2014 H1984 0.950 . S
C2014 C2013 1.524 . S
C2014 C2015 1.415 . S
C2015 H1985 0.950 . S
C2015 C2010 1.363 . S
C2015 C2014 1.415 . S
H2016 C2013 0.999 . S
H2017 C1998 0.913 . S
H2018 C2036 0.951 . S
H2019 C2038 0.951 . S
H2020 C2040 0.950 . S
H2021 C2041 0.950 . S
H2022 C2043 0.950 . S
H2023 C2046 0.950 . S
H2024 C2047 0.950 . S
H2025 C2049 0.950 . S
H2026 C2050 0.950 . S
H2027 C2051 0.951 . S
H2028 C2053 0.951 . S
H2029 C2055 0.950 . S
H2030 C2056 0.950 . S
H2031 C2058 0.950 . S
H2032 C2061 0.950 . S
H2033 C2062 0.950 1_556 S
H2034 C2064 0.950 . S
H2035 C2065 0.950 . S
C2036 H2018 0.951 . S
C2036 C2037 1.366 . S
C2036 C2038 1.388 . S
C2037 C2036 1.366 . S
C2037 C2041 1.385 . S
C2038 H2019 0.951 . S
C2038 C2036 1.388 . S
C2038 C2039 1.366 . S
C2039 C2038 1.366 . S
C2039 C2040 1.414 . S
C2039 C2042 1.499 . S
C2040 H2020 0.950 . S
C2040 C2039 1.414 . S
C2040 C2041 1.374 . S
C2041 H2021 0.950 . S
C2041 C2037 1.385 . S
C2041 C2040 1.374 . S
C2042 C2039 1.499 . S
C2042 C2043 1.373 . S
C2042 C2044 1.389 . S
C2043 H2022 0.950 . S
C2043 C2042 1.373 . S
C2043 C2059 1.377 . S
C2044 C2042 1.389 . S
C2044 C2045 1.524 . S
C2044 C2058 1.377 . S
C2045 C2044 1.524 . S
C2045 C2046 1.397 . S
C2045 C2050 1.363 . S
C2046 H2023 0.950 . S
C2046 C2045 1.397 . S
C2046 C2047 1.334 . S
C2047 H2024 0.950 . S
C2047 C2046 1.334 . S
C2047 C2048 1.287 . S
C2048 C2047 1.287 . S
C2048 C2049 1.524 . S
C2048 H2067 0.913 . S
C2049 H2025 0.950 . S
C2049 C2048 1.524 . S
C2049 C2050 1.415 . S
C2050 H2026 0.950 . S
C2050 C2045 1.363 . S
C2050 C2049 1.415 . S
C2051 H2027 0.951 . S
C2051 C2052 1.366 . S
C2051 C2053 1.388 . S
C2052 C2051 1.366 . S
C2052 C2056 1.385 . S
C2053 H2028 0.951 . S
C2053 C2051 1.388 . S
C2053 C2054 1.366 . S
C2054 C2053 1.366 . S
C2054 C2055 1.414 . S
C2054 C2057 1.499 . S
C2055 H2029 0.950 . S
C2055 C2054 1.414 . S
C2055 C2056 1.374 . S
C2056 H2030 0.950 . S
C2056 C2052 1.385 . S
C2056 C2055 1.374 . S
C2057 C2054 1.499 . S
C2057 C2058 1.373 . S
C2057 C2059 1.389 . S
C2058 H2031 0.950 . S
C2058 C2044 1.377 . S
C2058 C2057 1.373 . S
C2059 C2043 1.377 . S
C2059 C2057 1.389 . S
C2059 C2060 1.524 . S
C2060 C2059 1.524 . S
C2060 C2061 1.397 . S
C2060 C2065 1.363 . S
C2061 H2032 0.950 . S
C2061 C2060 1.397 . S
C2061 C2062 1.334 . S
C2062 H2033 0.950 1_554 S
C2062 C2061 1.334 . S
C2062 C2063 1.287 . S
C2063 C2062 1.287 . S
C2063 C2064 1.524 . S
C2063 H2066 0.999 1_554 S
C2064 H2034 0.950 . S
C2064 C2063 1.524 . S
C2064 C2065 1.415 . S
C2065 H2035 0.950 . S
C2065 C2060 1.363 . S
C2065 C2064 1.415 . S
H2066 C2063 0.999 1_556 S
H2067 C2048 0.913 . S
H2068 C2086 0.951 . S
H2069 C2088 0.951 . S
H2070 C2090 0.950 . S
H2071 C2091 0.950 . S
H2072 C2093 0.950 . S
H2073 C2096 0.950 . S
H2074 C2097 0.950 . S
H2075 C2099 0.950 . S
H2076 C2100 0.950 . S
H2077 C2101 0.951 . S
H2078 C2103 0.951 . S
H2079 C2105 0.950 . S
H2080 C2106 0.950 . S
H2081 C2108 0.950 . S
H2082 C2111 0.950 . S
H2083 C2112 0.950 . S
H2084 C2114 0.950 . S
H2085 C2115 0.950 . S
C2086 H2068 0.951 . S
C2086 C2087 1.366 . S
C2086 C2088 1.388 . S
C2087 C2086 1.366 . S
C2087 C2091 1.385 . S
C2088 H2069 0.951 . S
C2088 C2086 1.388 . S
C2088 C2089 1.366 . S
C2089 C2088 1.366 . S
C2089 C2090 1.414 . S
C2089 C2092 1.499 . S
C2090 H2070 0.950 . S
C2090 C2089 1.414 . S
C2090 C2091 1.374 . S
C2091 H2071 0.950 . S
C2091 C2087 1.385 . S
C2091 C2090 1.374 . S
C2092 C2089 1.499 . S
C2092 C2093 1.373 . S
C2092 C2094 1.389 . S
C2093 H2072 0.950 . S
C2093 C2092 1.373 . S
C2093 C2109 1.377 . S
C2094 C2092 1.389 . S
C2094 C2095 1.524 . S
C2094 C2108 1.377 . S
C2095 C2094 1.524 . S
C2095 C2096 1.397 . S
C2095 C2100 1.363 . S
C2096 H2073 0.950 . S
C2096 C2095 1.397 . S
C2096 C2097 1.334 . S
C2097 H2074 0.950 . S
C2097 C2096 1.334 . S
C2097 C2098 1.287 . S
C2098 C2097 1.287 . S
C2098 C2099 1.524 . S
C2098 H2117 0.913 . S
C2099 H2075 0.950 . S
C2099 C2098 1.524 . S
C2099 C2100 1.415 . S
C2100 H2076 0.950 . S
C2100 C2095 1.363 . S
C2100 C2099 1.415 . S
C2101 H2077 0.951 . S
C2101 C2102 1.366 . S
C2101 C2103 1.388 . S
C2102 C2101 1.366 . S
C2102 C2106 1.385 . S
C2103 H2078 0.951 . S
C2103 C2101 1.388 . S
C2103 C2104 1.366 . S
C2104 C2103 1.366 . S
C2104 C2105 1.414 . S
C2104 C2107 1.499 . S
C2105 H2079 0.950 . S
C2105 C2104 1.414 . S
C2105 C2106 1.374 . S
C2106 H2080 0.950 . S
C2106 C2102 1.385 . S
C2106 C2105 1.374 . S
C2107 C2104 1.499 . S
C2107 C2108 1.373 . S
C2107 C2109 1.389 . S
C2108 H2081 0.950 . S
C2108 C2094 1.377 . S
C2108 C2107 1.373 . S
C2109 C2093 1.377 . S
C2109 C2107 1.389 . S
C2109 C2110 1.524 . S
C2110 C2109 1.524 . S
C2110 C2111 1.397 . S
C2110 C2115 1.363 . S
C2111 H2082 0.950 . S
C2111 C2110 1.397 . S
C2111 C2112 1.334 . S
C2112 H2083 0.950 . S
C2112 C2111 1.334 . S
C2112 C2113 1.287 . S
C2113 C2112 1.287 . S
C2113 C2114 1.524 . S
C2113 H2116 0.999 . S
C2114 H2084 0.950 . S
C2114 C2113 1.524 . S
C2114 C2115 1.415 . S
C2115 H2085 0.950 . S
C2115 C2110 1.363 . S
C2115 C2114 1.415 . S
H2116 C2113 0.999 . S
H2117 C2098 0.913 . S
H2118 C2136 0.951 . S
H2119 C2138 0.951 . S
H2120 C2140 0.950 . S
H2121 C2141 0.950 . S
H2122 C2143 0.950 . S
H2123 C2146 0.950 . S
H2124 C2147 0.950 . S
H2125 C2149 0.950 . S
H2126 C2150 0.950 . S
H2127 C2151 0.951 . S
H2128 C2153 0.951 . S
H2129 C2155 0.950 . S
H2130 C2156 0.950 . S
H2131 C2158 0.950 . S
H2132 C2161 0.950 . S
H2133 C2162 0.950 . S
H2134 C2164 0.950 . S
H2135 C2165 0.950 . S
C2136 H2118 0.951 . S
C2136 C2137 1.366 . S
C2136 C2138 1.388 . S
C2137 C2136 1.366 . S
C2137 C2141 1.385 . S
C2138 H2119 0.951 . S
C2138 C2136 1.388 . S
C2138 C2139 1.366 . S
C2139 C2138 1.366 . S
C2139 C2140 1.414 . S
C2139 C2142 1.499 . S
C2140 H2120 0.950 . S
C2140 C2139 1.414 . S
C2140 C2141 1.374 . S
C2141 H2121 0.950 . S
C2141 C2137 1.385 . S
C2141 C2140 1.374 . S
C2142 C2139 1.499 . S
C2142 C2143 1.373 . S
C2142 C2144 1.389 . S
C2143 H2122 0.950 . S
C2143 C2142 1.373 . S
C2143 C2159 1.377 . S
C2144 C2142 1.389 . S
C2144 C2145 1.524 . S
C2144 C2158 1.377 . S
C2145 C2144 1.524 . S
C2145 C2146 1.397 . S
C2145 C2150 1.363 . S
C2146 H2123 0.950 . S
C2146 C2145 1.397 . S
C2146 C2147 1.334 . S
C2147 H2124 0.950 . S
C2147 C2146 1.334 . S
C2147 C2148 1.287 . S
C2148 C2147 1.287 . S
C2148 C2149 1.524 . S
C2148 H2167 0.913 . S
C2149 H2125 0.950 . S
C2149 C2148 1.524 . S
C2149 C2150 1.415 . S
C2150 H2126 0.950 . S
C2150 C2145 1.363 . S
C2150 C2149 1.415 . S
C2151 H2127 0.951 . S
C2151 C2152 1.366 . S
C2151 C2153 1.388 . S
C2152 C2151 1.366 . S
C2152 C2156 1.385 . S
C2153 H2128 0.951 . S
C2153 C2151 1.388 . S
C2153 C2154 1.366 . S
C2154 C2153 1.366 . S
C2154 C2155 1.414 . S
C2154 C2157 1.499 . S
C2155 H2129 0.950 . S
C2155 C2154 1.414 . S
C2155 C2156 1.374 . S
C2156 H2130 0.950 . S
C2156 C2152 1.385 . S
C2156 C2155 1.374 . S
C2157 C2154 1.499 . S
C2157 C2158 1.373 . S
C2157 C2159 1.389 . S
C2158 H2131 0.950 . S
C2158 C2144 1.377 . S
C2158 C2157 1.373 . S
C2159 C2143 1.377 . S
C2159 C2157 1.389 . S
C2159 C2160 1.524 . S
C2160 C2159 1.524 . S
C2160 C2161 1.397 . S
C2160 C2165 1.363 . S
C2161 H2132 0.950 . S
C2161 C2160 1.397 . S
C2161 C2162 1.334 . S
C2162 H2133 0.950 . S
C2162 C2161 1.334 . S
C2162 C2163 1.287 . S
C2163 C2162 1.287 . S
C2163 C2164 1.524 . S
C2163 H2166 0.999 . S
C2164 H2134 0.950 . S
C2164 C2163 1.524 . S
C2164 C2165 1.415 . S
C2165 H2135 0.950 . S
C2165 C2160 1.363 . S
C2165 C2164 1.415 . S
H2166 C2163 0.999 . S
H2167 C2148 0.913 . S
H2168 C2186 0.951 . S
H2169 C2188 0.951 . S
H2170 C2190 0.950 . S
H2171 C2191 0.950 . S
H2172 C2193 0.950 . S
H2173 C2196 0.950 . S
H2174 C2197 0.950 . S
H2175 C2199 0.950 . S
H2176 C2200 0.950 . S
H2177 C2201 0.951 . S
H2178 C2203 0.951 . S
H2179 C2205 0.950 . S
H2180 C2206 0.950 . S
H2181 C2208 0.950 . S
H2182 C2211 0.950 . S
H2183 C2212 0.950 . S
H2184 C2214 0.950 . S
H2185 C2215 0.950 . S
C2186 H2168 0.951 . S
C2186 C2187 1.366 . S
C2186 C2188 1.388 . S
C2187 C2186 1.366 . S
C2187 C2191 1.385 . S
C2188 H2169 0.951 . S
C2188 C2186 1.388 . S
C2188 C2189 1.366 . S
C2189 C2188 1.366 . S
C2189 C2190 1.414 . S
C2189 C2192 1.499 . S
C2190 H2170 0.950 . S
C2190 C2189 1.414 . S
C2190 C2191 1.374 . S
C2191 H2171 0.950 . S
C2191 C2187 1.385 . S
C2191 C2190 1.374 . S
C2192 C2189 1.499 . S
C2192 C2193 1.373 . S
C2192 C2194 1.389 . S
C2193 H2172 0.950 . S
C2193 C2192 1.373 . S
C2193 C2209 1.377 . S
C2194 C2192 1.389 . S
C2194 C2195 1.524 . S
C2194 C2208 1.377 . S
C2195 C2194 1.524 . S
C2195 C2196 1.397 . S
C2195 C2200 1.363 . S
C2196 H2173 0.950 . S
C2196 C2195 1.397 . S
C2196 C2197 1.334 . S
C2197 H2174 0.950 . S
C2197 C2196 1.334 . S
C2197 C2198 1.287 . S
C2198 C2197 1.287 . S
C2198 C2199 1.524 . S
C2198 H2217 0.913 . S
C2199 H2175 0.950 . S
C2199 C2198 1.524 . S
C2199 C2200 1.415 . S
C2200 H2176 0.950 . S
C2200 C2195 1.363 . S
C2200 C2199 1.415 . S
C2201 H2177 0.951 . S
C2201 C2202 1.366 . S
C2201 C2203 1.388 . S
C2202 C2201 1.366 . S
C2202 C2206 1.385 . S
C2203 H2178 0.951 . S
C2203 C2201 1.388 . S
C2203 C2204 1.366 . S
C2204 C2203 1.366 . S
C2204 C2205 1.414 . S
C2204 C2207 1.499 . S
C2205 H2179 0.950 . S
C2205 C2204 1.414 . S
C2205 C2206 1.374 . S
C2206 H2180 0.950 . S
C2206 C2202 1.385 . S
C2206 C2205 1.374 . S
C2207 C2204 1.499 . S
C2207 C2208 1.373 . S
C2207 C2209 1.389 . S
C2208 H2181 0.950 . S
C2208 C2194 1.377 . S
C2208 C2207 1.373 . S
C2209 C2193 1.377 . S
C2209 C2207 1.389 . S
C2209 C2210 1.524 . S
C2210 C2209 1.524 . S
C2210 C2211 1.397 . S
C2210 C2215 1.363 . S
C2211 H2182 0.950 . S
C2211 C2210 1.397 . S
C2211 C2212 1.334 . S
C2212 H2183 0.950 . S
C2212 C2211 1.334 . S
C2212 C2213 1.287 . S
C2213 C2212 1.287 . S
C2213 C2214 1.524 . S
C2213 H2216 0.999 . S
C2214 H2184 0.950 . S
C2214 C2213 1.524 . S
C2214 C2215 1.415 . S
C2215 H2185 0.950 . S
C2215 C2210 1.363 . S
C2215 C2214 1.415 . S
H2216 C2213 0.999 . S
H2217 C2198 0.913 . S
H2218 C2236 0.951 . S
H2219 C2238 0.951 . S
H2220 C2240 0.950 . S
H2221 C2241 0.950 . S
H2222 C2243 0.950 . S
H2223 C2246 0.950 . S
H2224 C2247 0.950 . S
H2225 C2249 0.950 . S
H2226 C2250 0.950 . S
H2227 C2251 0.951 . S
H2228 C2253 0.951 . S
H2229 C2255 0.950 . S
H2230 C2256 0.950 . S
H2231 C2258 0.950 . S
H2232 C2261 0.950 . S
H2233 C2262 0.950 . S
H2234 C2264 0.950 . S
H2235 C2265 0.950 . S
C2236 H2218 0.951 . S
C2236 C2237 1.366 . S
C2236 C2238 1.388 . S
C2237 C2236 1.366 . S
C2237 C2241 1.385 . S
C2238 H2219 0.951 . S
C2238 C2236 1.388 . S
C2238 C2239 1.366 . S
C2239 C2238 1.366 . S
C2239 C2240 1.414 . S
C2239 C2242 1.499 . S
C2240 H2220 0.950 . S
C2240 C2239 1.414 . S
C2240 C2241 1.374 . S
C2241 H2221 0.950 . S
C2241 C2237 1.385 . S
C2241 C2240 1.374 . S
C2242 C2239 1.499 . S
C2242 C2243 1.373 . S
C2242 C2244 1.389 . S
C2243 H2222 0.950 . S
C2243 C2242 1.373 . S
C2243 C2259 1.377 . S
C2244 C2242 1.389 . S
C2244 C2245 1.524 . S
C2244 C2258 1.377 . S
C2245 C2244 1.524 . S
C2245 C2246 1.397 . S
C2245 C2250 1.363 . S
C2246 H2223 0.950 . S
C2246 C2245 1.397 . S
C2246 C2247 1.334 . S
C2247 H2224 0.950 . S
C2247 C2246 1.334 . S
C2247 C2248 1.287 . S
C2248 C2247 1.287 . S
C2248 C2249 1.524 . S
C2248 H2267 0.913 . S
C2249 H2225 0.950 . S
C2249 C2248 1.524 . S
C2249 C2250 1.415 . S
C2250 H2226 0.950 . S
C2250 C2245 1.363 . S
C2250 C2249 1.415 . S
C2251 H2227 0.951 . S
C2251 C2252 1.366 . S
C2251 C2253 1.388 . S
C2252 C2251 1.366 . S
C2252 C2256 1.385 . S
C2253 H2228 0.951 . S
C2253 C2251 1.388 . S
C2253 C2254 1.366 . S
C2254 C2253 1.366 . S
C2254 C2255 1.414 . S
C2254 C2257 1.499 . S
C2255 H2229 0.950 . S
C2255 C2254 1.414 . S
C2255 C2256 1.374 . S
C2256 H2230 0.950 . S
C2256 C2252 1.385 . S
C2256 C2255 1.374 . S
C2257 C2254 1.499 . S
C2257 C2258 1.373 . S
C2257 C2259 1.389 . S
C2258 H2231 0.950 . S
C2258 C2244 1.377 . S
C2258 C2257 1.373 . S
C2259 C2243 1.377 . S
C2259 C2257 1.389 . S
C2259 C2260 1.524 . S
C2260 C2259 1.524 . S
C2260 C2261 1.397 . S
C2260 C2265 1.363 . S
C2261 H2232 0.950 . S
C2261 C2260 1.397 . S
C2261 C2262 1.334 . S
C2262 H2233 0.950 . S
C2262 C2261 1.334 . S
C2262 C2263 1.287 . S
C2263 C2262 1.287 . S
C2263 C2264 1.524 . S
C2263 H2266 0.999 . S
C2264 H2234 0.950 . S
C2264 C2263 1.524 . S
C2264 C2265 1.415 . S
C2265 H2235 0.950 . S
C2265 C2260 1.363 . S
C2265 C2264 1.415 . S
H2266 C2263 0.999 . S
H2267 C2248 0.913 . S
H2268 C2286 0.951 . S
H2269 C2288 0.951 . S
H2270 C2290 0.950 . S
H2271 C2291 0.950 . S
H2272 C2293 0.950 . S
H2273 C2296 0.950 . S
H2274 C2297 0.950 . S
H2275 C2299 0.950 . S
H2276 C2300 0.950 . S
H2277 C2301 0.951 . S
H2278 C2303 0.951 . S
H2279 C2305 0.950 . S
H2280 C2306 0.950 . S
H2281 C2308 0.950 . S
H2282 C2311 0.950 . S
H2283 C2312 0.950 . S
H2284 C2314 0.950 . S
H2285 C2315 0.950 . S
C2286 H2268 0.951 . S
C2286 C2287 1.366 . S
C2286 C2288 1.388 . S
C2287 C2286 1.366 . S
C2287 C2291 1.385 . S
C2288 H2269 0.951 . S
C2288 C2286 1.388 . S
C2288 C2289 1.366 . S
C2289 C2288 1.366 . S
C2289 C2290 1.414 . S
C2289 C2292 1.499 . S
C2290 H2270 0.950 . S
C2290 C2289 1.414 . S
C2290 C2291 1.374 . S
C2291 H2271 0.950 . S
C2291 C2287 1.385 . S
C2291 C2290 1.374 . S
C2292 C2289 1.499 . S
C2292 C2293 1.373 . S
C2292 C2294 1.389 . S
C2293 H2272 0.950 . S
C2293 C2292 1.373 . S
C2293 C2309 1.377 . S
C2294 C2292 1.389 . S
C2294 C2295 1.524 . S
C2294 C2308 1.377 . S
C2295 C2294 1.524 . S
C2295 C2296 1.397 . S
C2295 C2300 1.363 . S
C2296 H2273 0.950 . S
C2296 C2295 1.397 . S
C2296 C2297 1.334 . S
C2297 H2274 0.950 . S
C2297 C2296 1.334 . S
C2297 C2298 1.287 . S
C2298 C2297 1.287 . S
C2298 C2299 1.524 . S
C2298 H2317 0.913 . S
C2299 H2275 0.950 . S
C2299 C2298 1.524 . S
C2299 C2300 1.415 . S
C2300 H2276 0.950 . S
C2300 C2295 1.363 . S
C2300 C2299 1.415 . S
C2301 H2277 0.951 . S
C2301 C2302 1.366 . S
C2301 C2303 1.388 . S
C2302 C2301 1.366 . S
C2302 C2306 1.385 . S
C2303 H2278 0.951 . S
C2303 C2301 1.388 . S
C2303 C2304 1.366 . S
C2304 C2303 1.366 . S
C2304 C2305 1.414 . S
C2304 C2307 1.499 . S
C2305 H2279 0.950 . S
C2305 C2304 1.414 . S
C2305 C2306 1.374 . S
C2306 H2280 0.950 . S
C2306 C2302 1.385 . S
C2306 C2305 1.374 . S
C2307 C2304 1.499 . S
C2307 C2308 1.373 . S
C2307 C2309 1.389 . S
C2308 H2281 0.950 . S
C2308 C2294 1.377 . S
C2308 C2307 1.373 . S
C2309 C2293 1.377 . S
C2309 C2307 1.389 . S
C2309 C2310 1.524 . S
C2310 C2309 1.524 . S
C2310 C2311 1.397 . S
C2310 C2315 1.363 . S
C2311 H2282 0.950 . S
C2311 C2310 1.397 . S
C2311 C2312 1.334 . S
C2312 H2283 0.950 . S
C2312 C2311 1.334 . S
C2312 C2313 1.287 . S
C2313 C2312 1.287 . S
C2313 C2314 1.524 . S
C2313 H2316 0.999 . S
C2314 H2284 0.950 . S
C2314 C2313 1.524 . S
C2314 C2315 1.415 . S
C2315 H2285 0.950 . S
C2315 C2310 1.363 . S
C2315 C2314 1.415 . S
H2316 C2313 0.999 . S
H2317 C2298 0.913 . S
H2318 C2336 0.951 . S
H2319 C2338 0.951 . S
H2320 C2340 0.950 . S
H2321 C2341 0.950 . S
H2322 C2343 0.950 . S
H2323 C2346 0.950 . S
H2324 C2347 0.950 . S
H2325 C2349 0.950 . S
H2326 C2350 0.950 . S
H2327 C2351 0.951 . S
H2328 C2353 0.951 . S
H2329 C2355 0.950 . S
H2330 C2356 0.950 . S
H2331 C2358 0.950 . S
H2332 C2361 0.950 . S
H2333 C2362 0.950 . S
H2334 C2364 0.950 . S
H2335 C2365 0.950 . S
C2336 H2318 0.951 . S
C2336 C2337 1.366 . S
C2336 C2338 1.388 . S
C2337 C2336 1.366 . S
C2337 C2341 1.385 . S
C2338 H2319 0.951 . S
C2338 C2336 1.388 . S
C2338 C2339 1.366 . S
C2339 C2338 1.366 . S
C2339 C2340 1.414 . S
C2339 C2342 1.499 . S
C2340 H2320 0.950 . S
C2340 C2339 1.414 . S
C2340 C2341 1.374 . S
C2341 H2321 0.950 . S
C2341 C2337 1.385 . S
C2341 C2340 1.374 . S
C2342 C2339 1.499 . S
C2342 C2343 1.373 . S
C2342 C2344 1.389 . S
C2343 H2322 0.950 . S
C2343 C2342 1.373 . S
C2343 C2359 1.377 . S
C2344 C2342 1.389 . S
C2344 C2345 1.524 . S
C2344 C2358 1.377 . S
C2345 C2344 1.524 . S
C2345 C2346 1.397 . S
C2345 C2350 1.363 . S
C2346 H2323 0.950 . S
C2346 C2345 1.397 . S
C2346 C2347 1.334 . S
C2347 H2324 0.950 . S
C2347 C2346 1.334 . S
C2347 C2348 1.287 . S
C2348 C2347 1.287 . S
C2348 C2349 1.524 . S
C2348 H2367 0.913 . S
C2349 H2325 0.950 . S
C2349 C2348 1.524 . S
C2349 C2350 1.415 . S
C2350 H2326 0.950 . S
C2350 C2345 1.363 . S
C2350 C2349 1.415 . S
C2351 H2327 0.951 . S
C2351 C2352 1.366 . S
C2351 C2353 1.388 . S
C2352 C2351 1.366 . S
C2352 C2356 1.385 . S
C2353 H2328 0.951 . S
C2353 C2351 1.388 . S
C2353 C2354 1.366 . S
C2354 C2353 1.366 . S
C2354 C2355 1.414 . S
C2354 C2357 1.499 . S
C2355 H2329 0.950 . S
C2355 C2354 1.414 . S
C2355 C2356 1.374 . S
C2356 H2330 0.950 . S
C2356 C2352 1.385 . S
C2356 C2355 1.374 . S
C2357 C2354 1.499 . S
C2357 C2358 1.373 . S
C2357 C2359 1.389 . S
C2358 H2331 0.950 . S
C2358 C2344 1.377 . S
C2358 C2357 1.373 . S
C2359 C2343 1.377 . S
C2359 C2357 1.389 . S
C2359 C2360 1.524 . S
C2360 C2359 1.524 . S
C2360 C2361 1.397 . S
C2360 C2365 1.363 . S
C2361 H2332 0.950 . S
C2361 C2360 1.397 . S
C2361 C2362 1.334 . S
C2362 H2333 0.950 . S
C2362 C2361 1.334 . S
C2362 C2363 1.287 . S
C2363 C2362 1.287 . S
C2363 C2364 1.524 . S
C2363 H2366 0.999 . S
C2364 H2334 0.950 . S
C2364 C2363 1.524 . S
C2364 C2365 1.415 . S
C2365 H2335 0.950 . S
C2365 C2360 1.363 . S
C2365 C2364 1.415 . S
H2366 C2363 0.999 . S
H2367 C2348 0.913 . S
H2368 C2386 0.951 . S
H2369 C2388 0.951 . S
H2370 C2390 0.950 . S
H2371 C2391 0.950 . S
H2372 C2393 0.950 . S
H2373 C2396 0.950 . S
H2374 C2397 0.950 . S
H2375 C2399 0.950 . S
H2376 C2400 0.950 . S
H2377 C2401 0.951 . S
H2378 C2403 0.951 . S
H2379 C2405 0.950 . S
H2380 C2406 0.950 . S
H2381 C2408 0.950 . S
H2382 C2411 0.950 . S
H2383 C2412 0.950 . S
H2384 C2414 0.950 . S
H2385 C2415 0.950 . S
C2386 H2368 0.951 . S
C2386 C2387 1.366 . S
C2386 C2388 1.388 . S
C2387 C2386 1.366 . S
C2387 C2391 1.385 . S
C2388 H2369 0.951 . S
C2388 C2386 1.388 . S
C2388 C2389 1.366 . S
C2389 C2388 1.366 . S
C2389 C2390 1.414 . S
C2389 C2392 1.499 . S
C2390 H2370 0.950 . S
C2390 C2389 1.414 . S
C2390 C2391 1.374 . S
C2391 H2371 0.950 . S
C2391 C2387 1.385 . S
C2391 C2390 1.374 . S
C2392 C2389 1.499 . S
C2392 C2393 1.373 . S
C2392 C2394 1.389 . S
C2393 H2372 0.950 . S
C2393 C2392 1.373 . S
C2393 C2409 1.377 . S
C2394 C2392 1.389 . S
C2394 C2395 1.524 . S
C2394 C2408 1.377 . S
C2395 C2394 1.524 . S
C2395 C2396 1.397 . S
C2395 C2400 1.363 . S
C2396 H2373 0.950 . S
C2396 C2395 1.397 . S
C2396 C2397 1.334 . S
C2397 H2374 0.950 . S
C2397 C2396 1.334 . S
C2397 C2398 1.287 . S
C2398 C2397 1.287 . S
C2398 C2399 1.524 . S
C2398 H2417 0.913 . S
C2399 H2375 0.950 . S
C2399 C2398 1.524 . S
C2399 C2400 1.415 . S
C2400 H2376 0.950 . S
C2400 C2395 1.363 . S
C2400 C2399 1.415 . S
C2401 H2377 0.951 . S
C2401 C2402 1.366 . S
C2401 C2403 1.388 . S
C2402 C2401 1.366 . S
C2402 C2406 1.385 . S
C2403 H2378 0.951 . S
C2403 C2401 1.388 . S
C2403 C2404 1.366 . S
C2404 C2403 1.366 . S
C2404 C2405 1.414 . S
C2404 C2407 1.499 . S
C2405 H2379 0.950 . S
C2405 C2404 1.414 . S
C2405 C2406 1.374 . S
C2406 H2380 0.950 . S
C2406 C2402 1.385 . S
C2406 C2405 1.374 . S
C2407 C2404 1.499 . S
C2407 C2408 1.373 . S
C2407 C2409 1.389 . S
C2408 H2381 0.950 . S
C2408 C2394 1.377 . S
C2408 C2407 1.373 . S
C2409 C2393 1.377 . S
C2409 C2407 1.389 . S
C2409 C2410 1.524 . S
C2410 C2409 1.524 . S
C2410 C2411 1.397 . S
C2410 C2415 1.363 . S
C2411 H2382 0.950 . S
C2411 C2410 1.397 . S
C2411 C2412 1.334 . S
C2412 H2383 0.950 . S
C2412 C2411 1.334 . S
C2412 C2413 1.287 . S
C2413 C2412 1.287 . S
C2413 C2414 1.524 . S
C2413 H2416 0.999 . S
C2414 H2384 0.950 . S
C2414 C2413 1.524 . S
C2414 C2415 1.415 . S
C2415 H2385 0.950 . S
C2415 C2410 1.363 . S
C2415 C2414 1.415 . S
H2416 C2413 0.999 . S
H2417 C2398 0.913 . S
H2418 C2436 0.951 . S
H2419 C2438 0.951 . S
H2420 C2440 0.950 . S
H2421 C2441 0.950 . S
H2422 C2443 0.950 . S
H2423 C2446 0.950 . S
H2424 C2447 0.950 . S
H2425 C2449 0.950 . S
H2426 C2450 0.950 . S
H2427 C2451 0.951 . S
H2428 C2453 0.951 . S
H2429 C2455 0.950 . S
H2430 C2456 0.950 . S
H2431 C2458 0.950 . S
H2432 C2461 0.950 . S
H2433 C2462 0.950 . S
H2434 C2464 0.950 . S
H2435 C2465 0.950 . S
C2436 H2418 0.951 . S
C2436 C2437 1.366 . S
C2436 C2438 1.388 . S
C2437 C2436 1.366 . S
C2437 C2441 1.385 . S
C2438 H2419 0.951 . S
C2438 C2436 1.388 . S
C2438 C2439 1.366 . S
C2439 C2438 1.366 . S
C2439 C2440 1.414 . S
C2439 C2442 1.499 . S
C2440 H2420 0.950 . S
C2440 C2439 1.414 . S
C2440 C2441 1.374 . S
C2441 H2421 0.950 . S
C2441 C2437 1.385 . S
C2441 C2440 1.374 . S
C2442 C2439 1.499 . S
C2442 C2443 1.373 . S
C2442 C2444 1.389 . S
C2443 H2422 0.950 . S
C2443 C2442 1.373 . S
C2443 C2459 1.377 . S
C2444 C2442 1.389 . S
C2444 C2445 1.524 . S
C2444 C2458 1.377 . S
C2445 C2444 1.524 . S
C2445 C2446 1.397 . S
C2445 C2450 1.363 . S
C2446 H2423 0.950 . S
C2446 C2445 1.397 . S
C2446 C2447 1.334 . S
C2447 H2424 0.950 . S
C2447 C2446 1.334 . S
C2447 C2448 1.287 . S
C2448 C2447 1.287 . S
C2448 C2449 1.524 . S
C2448 H2467 0.913 . S
C2449 H2425 0.950 . S
C2449 C2448 1.524 . S
C2449 C2450 1.415 . S
C2450 H2426 0.950 . S
C2450 C2445 1.363 . S
C2450 C2449 1.415 . S
C2451 H2427 0.951 . S
C2451 C2452 1.366 . S
C2451 C2453 1.388 . S
C2452 C2451 1.366 . S
C2452 C2456 1.385 . S
C2453 H2428 0.951 . S
C2453 C2451 1.388 . S
C2453 C2454 1.366 . S
C2454 C2453 1.366 . S
C2454 C2455 1.414 . S
C2454 C2457 1.499 . S
C2455 H2429 0.950 . S
C2455 C2454 1.414 . S
C2455 C2456 1.374 . S
C2456 H2430 0.950 . S
C2456 C2452 1.385 . S
C2456 C2455 1.374 . S
C2457 C2454 1.499 . S
C2457 C2458 1.373 . S
C2457 C2459 1.389 . S
C2458 H2431 0.950 . S
C2458 C2444 1.377 . S
C2458 C2457 1.373 . S
C2459 C2443 1.377 . S
C2459 C2457 1.389 . S
C2459 C2460 1.524 . S
C2460 C2459 1.524 . S
C2460 C2461 1.397 . S
C2460 C2465 1.363 . S
C2461 H2432 0.950 . S
C2461 C2460 1.397 . S
C2461 C2462 1.334 . S
C2462 H2433 0.950 . S
C2462 C2461 1.334 . S
C2462 C2463 1.287 . S
C2463 C2462 1.287 . S
C2463 C2464 1.524 . S
C2463 H2466 0.999 . S
C2464 H2434 0.950 . S
C2464 C2463 1.524 . S
C2464 C2465 1.415 . S
C2465 H2435 0.950 . S
C2465 C2460 1.363 . S
C2465 C2464 1.415 . S
H2466 C2463 0.999 . S
H2467 C2448 0.913 . S
H2468 C2486 0.951 . S
H2469 C2488 0.951 . S
H2470 C2490 0.950 . S
H2471 C2491 0.950 . S
H2472 C2493 0.950 . S
H2473 C2496 0.950 . S
H2474 C2497 0.950 . S
H2475 C2499 0.950 . S
H2476 C2500 0.950 . S
H2477 C2501 0.951 . S
H2478 C2503 0.951 . S
H2479 C2505 0.950 . S
H2480 C2506 0.950 . S
H2481 C2508 0.950 . S
H2482 C2511 0.950 . S
H2483 C2512 0.950 . S
H2484 C2514 0.950 . S
H2485 C2515 0.950 . S
C2486 H2468 0.951 . S
C2486 C2487 1.366 . S
C2486 C2488 1.388 . S
C2487 C2486 1.366 . S
C2487 C2491 1.385 . S
C2488 H2469 0.951 . S
C2488 C2486 1.388 . S
C2488 C2489 1.366 . S
C2489 C2488 1.366 . S
C2489 C2490 1.414 . S
C2489 C2492 1.499 . S
C2490 H2470 0.950 . S
C2490 C2489 1.414 . S
C2490 C2491 1.374 . S
C2491 H2471 0.950 . S
C2491 C2487 1.385 . S
C2491 C2490 1.374 . S
C2492 C2489 1.499 . S
C2492 C2493 1.373 . S
C2492 C2494 1.389 . S
C2493 H2472 0.950 . S
C2493 C2492 1.373 . S
C2493 C2509 1.377 . S
C2494 C2492 1.389 . S
C2494 C2495 1.524 . S
C2494 C2508 1.377 . S
C2495 C2494 1.524 . S
C2495 C2496 1.397 . S
C2495 C2500 1.363 . S
C2496 H2473 0.950 . S
C2496 C2495 1.397 . S
C2496 C2497 1.334 . S
C2497 H2474 0.950 . S
C2497 C2496 1.334 . S
C2497 C2498 1.287 . S
C2498 C2497 1.287 . S
C2498 C2499 1.524 . S
C2498 H2517 0.913 . S
C2499 H2475 0.950 . S
C2499 C2498 1.524 . S
C2499 C2500 1.415 . S
C2500 H2476 0.950 . S
C2500 C2495 1.363 . S
C2500 C2499 1.415 . S
C2501 H2477 0.951 . S
C2501 C2502 1.366 . S
C2501 C2503 1.388 . S
C2502 C2501 1.366 . S
C2502 C2506 1.385 . S
C2503 H2478 0.951 . S
C2503 C2501 1.388 . S
C2503 C2504 1.366 . S
C2504 C2503 1.366 . S
C2504 C2505 1.414 . S
C2504 C2507 1.499 . S
C2505 H2479 0.950 . S
C2505 C2504 1.414 . S
C2505 C2506 1.374 . S
C2506 H2480 0.950 . S
C2506 C2502 1.385 . S
C2506 C2505 1.374 . S
C2507 C2504 1.499 . S
C2507 C2508 1.373 . S
C2507 C2509 1.389 . S
C2508 H2481 0.950 . S
C2508 C2494 1.377 . S
C2508 C2507 1.373 . S
C2509 C2493 1.377 . S
C2509 C2507 1.389 . S
C2509 C2510 1.524 . S
C2510 C2509 1.524 . S
C2510 C2511 1.397 . S
C2510 C2515 1.363 . S
C2511 H2482 0.950 . S
C2511 C2510 1.397 . S
C2511 C2512 1.334 . S
C2512 H2483 0.950 . S
C2512 C2511 1.334 . S
C2512 C2513 1.287 . S
C2513 C2512 1.287 . S
C2513 C2514 1.524 . S
C2513 H2516 0.999 . S
C2514 H2484 0.950 . S
C2514 C2513 1.524 . S
C2514 C2515 1.415 . S
C2515 H2485 0.950 . S
C2515 C2510 1.363 . S
C2515 C2514 1.415 . S
H2516 C2513 0.999 . S
H2517 C2498 0.913 . S
H2518 C2536 0.951 . S
H2519 C2538 0.951 . S
H2520 C2540 0.950 . S
H2521 C2541 0.950 . S
H2522 C2543 0.950 . S
H2523 C2546 0.950 . S
H2524 C2547 0.950 . S
H2525 C2549 0.950 . S
H2526 C2550 0.950 . S
H2527 C2551 0.951 . S
H2528 C2553 0.951 . S
H2529 C2555 0.950 . S
H2530 C2556 0.950 . S
H2531 C2558 0.950 . S
H2532 C2561 0.950 . S
H2533 C2562 0.950 . S
H2534 C2564 0.950 . S
H2535 C2565 0.950 . S
C2536 H2518 0.951 . S
C2536 C2537 1.366 . S
C2536 C2538 1.388 . S
C2537 C2536 1.366 . S
C2537 C2541 1.385 . S
C2538 H2519 0.951 . S
C2538 C2536 1.388 . S
C2538 C2539 1.366 . S
C2539 C2538 1.366 . S
C2539 C2540 1.414 . S
C2539 C2542 1.499 . S
C2540 H2520 0.950 . S
C2540 C2539 1.414 . S
C2540 C2541 1.374 . S
C2541 H2521 0.950 . S
C2541 C2537 1.385 . S
C2541 C2540 1.374 . S
C2542 C2539 1.499 . S
C2542 C2543 1.373 . S
C2542 C2544 1.389 . S
C2543 H2522 0.950 . S
C2543 C2542 1.373 . S
C2543 C2559 1.377 . S
C2544 C2542 1.389 . S
C2544 C2545 1.524 . S
C2544 C2558 1.377 . S
C2545 C2544 1.524 . S
C2545 C2546 1.397 . S
C2545 C2550 1.363 . S
C2546 H2523 0.950 . S
C2546 C2545 1.397 . S
C2546 C2547 1.334 . S
C2547 H2524 0.950 . S
C2547 C2546 1.334 . S
C2547 C2548 1.287 . S
C2548 C2547 1.287 . S
C2548 C2549 1.524 . S
C2548 H2567 0.913 . S
C2549 H2525 0.950 . S
C2549 C2548 1.524 . S
C2549 C2550 1.415 . S
C2550 H2526 0.950 . S
C2550 C2545 1.363 . S
C2550 C2549 1.415 . S
C2551 H2527 0.951 . S
C2551 C2552 1.366 . S
C2551 C2553 1.388 . S
C2552 C2551 1.366 . S
C2552 C2556 1.385 . S
C2553 H2528 0.951 . S
C2553 C2551 1.388 . S
C2553 C2554 1.366 . S
C2554 C2553 1.366 . S
C2554 C2555 1.414 . S
C2554 C2557 1.499 . S
C2555 H2529 0.950 . S
C2555 C2554 1.414 . S
C2555 C2556 1.374 . S
C2556 H2530 0.950 . S
C2556 C2552 1.385 . S
C2556 C2555 1.374 . S
C2557 C2554 1.499 . S
C2557 C2558 1.373 . S
C2557 C2559 1.389 . S
C2558 H2531 0.950 . S
C2558 C2544 1.377 . S
C2558 C2557 1.373 . S
C2559 C2543 1.377 . S
C2559 C2557 1.389 . S
C2559 C2560 1.524 . S
C2560 C2559 1.524 . S
C2560 C2561 1.397 . S
C2560 C2565 1.363 . S
C2561 H2532 0.950 . S
C2561 C2560 1.397 . S
C2561 C2562 1.334 . S
C2562 H2533 0.950 . S
C2562 C2561 1.334 . S
C2562 C2563 1.287 . S
C2563 C2562 1.287 . S
C2563 C2564 1.524 . S
C2563 H2566 0.999 . S
C2564 H2534 0.950 . S
C2564 C2563 1.524 . S
C2564 C2565 1.415 . S
C2565 H2535 0.950 . S
C2565 C2560 1.363 . S
C2565 C2564 1.415 . S
H2566 C2563 0.999 . S
H2567 C2548 0.913 . S
H2568 C2586 0.951 . S
H2569 C2588 0.951 . S
H2570 C2590 0.950 . S
H2571 C2591 0.950 . S
H2572 C2593 0.950 . S
H2573 C2596 0.950 . S
H2574 C2597 0.950 . S
H2575 C2599 0.950 . S
H2576 C2600 0.950 . S
H2577 C2601 0.951 . S
H2578 C2603 0.951 . S
H2579 C2605 0.950 . S
H2580 C2606 0.950 . S
H2581 C2608 0.950 . S
H2582 C2611 0.950 . S
H2583 C2612 0.950 . S
H2584 C2614 0.950 . S
H2585 C2615 0.950 . S
C2586 H2568 0.951 . S
C2586 C2587 1.366 . S
C2586 C2588 1.388 . S
C2587 C2586 1.366 . S
C2587 C2591 1.385 . S
C2588 H2569 0.951 . S
C2588 C2586 1.388 . S
C2588 C2589 1.366 . S
C2589 C2588 1.366 . S
C2589 C2590 1.414 . S
C2589 C2592 1.499 . S
C2590 H2570 0.950 . S
C2590 C2589 1.414 . S
C2590 C2591 1.374 . S
C2591 H2571 0.950 . S
C2591 C2587 1.385 . S
C2591 C2590 1.374 . S
C2592 C2589 1.499 . S
C2592 C2593 1.373 . S
C2592 C2594 1.389 . S
C2593 H2572 0.950 . S
C2593 C2592 1.373 . S
C2593 C2609 1.377 . S
C2594 C2592 1.389 . S
C2594 C2595 1.524 . S
C2594 C2608 1.377 . S
C2595 C2594 1.524 . S
C2595 C2596 1.397 . S
C2595 C2600 1.363 . S
C2596 H2573 0.950 . S
C2596 C2595 1.397 . S
C2596 C2597 1.334 . S
C2597 H2574 0.950 . S
C2597 C2596 1.334 . S
C2597 C2598 1.287 . S
C2598 C2597 1.287 . S
C2598 C2599 1.524 . S
C2598 H2617 0.913 . S
C2599 H2575 0.950 . S
C2599 C2598 1.524 . S
C2599 C2600 1.415 . S
C2600 H2576 0.950 . S
C2600 C2595 1.363 . S
C2600 C2599 1.415 . S
C2601 H2577 0.951 . S
C2601 C2602 1.366 . S
C2601 C2603 1.388 . S
C2602 C2601 1.366 . S
C2602 C2606 1.385 . S
C2603 H2578 0.951 . S
C2603 C2601 1.388 . S
C2603 C2604 1.366 . S
C2604 C2603 1.366 . S
C2604 C2605 1.414 . S
C2604 C2607 1.499 . S
C2605 H2579 0.950 . S
C2605 C2604 1.414 . S
C2605 C2606 1.374 . S
C2606 H2580 0.950 . S
C2606 C2602 1.385 . S
C2606 C2605 1.374 . S
C2607 C2604 1.499 . S
C2607 C2608 1.373 . S
C2607 C2609 1.389 . S
C2608 H2581 0.950 . S
C2608 C2594 1.377 . S
C2608 C2607 1.373 . S
C2609 C2593 1.377 . S
C2609 C2607 1.389 . S
C2609 C2610 1.524 . S
C2610 C2609 1.524 . S
C2610 C2611 1.397 . S
C2610 C2615 1.363 . S
C2611 H2582 0.950 . S
C2611 C2610 1.397 . S
C2611 C2612 1.334 . S
C2612 H2583 0.950 . S
C2612 C2611 1.334 . S
C2612 C2613 1.287 . S
C2613 C2612 1.287 . S
C2613 C2614 1.524 . S
C2613 H2616 0.999 . S
C2614 H2584 0.950 . S
C2614 C2613 1.524 . S
C2614 C2615 1.415 . S
C2615 H2585 0.950 . S
C2615 C2610 1.363 . S
C2615 C2614 1.415 . S
H2616 C2613 0.999 . S
H2617 C2598 0.913 . S
H2618 C2636 0.951 . S
H2619 C2638 0.951 . S
H2620 C2640 0.950 . S
H2621 C2641 0.950 . S
H2622 C2643 0.950 . S
H2623 C2646 0.950 . S
H2624 C2647 0.950 . S
H2625 C2649 0.950 . S
H2626 C2650 0.950 . S
H2627 C2651 0.951 . S
H2628 C2653 0.951 . S
H2629 C2655 0.950 . S
H2630 C2656 0.950 . S
H2631 C2658 0.950 . S
H2632 C2661 0.950 . S
H2633 C2662 0.950 . S
H2634 C2664 0.950 . S
H2635 C2665 0.950 . S
C2636 H2618 0.951 . S
C2636 C2637 1.366 . S
C2636 C2638 1.388 . S
C2637 C2636 1.366 . S
C2637 C2641 1.385 . S
C2638 H2619 0.951 . S
C2638 C2636 1.388 . S
C2638 C2639 1.366 . S
C2639 C2638 1.366 . S
C2639 C2640 1.414 . S
C2639 C2642 1.499 . S
C2640 H2620 0.950 . S
C2640 C2639 1.414 . S
C2640 C2641 1.374 . S
C2641 H2621 0.950 . S
C2641 C2637 1.385 . S
C2641 C2640 1.374 . S
C2642 C2639 1.499 . S
C2642 C2643 1.373 . S
C2642 C2644 1.389 . S
C2643 H2622 0.950 . S
C2643 C2642 1.373 . S
C2643 C2659 1.377 . S
C2644 C2642 1.389 . S
C2644 C2645 1.524 . S
C2644 C2658 1.377 . S
C2645 C2644 1.524 . S
C2645 C2646 1.397 . S
C2645 C2650 1.363 . S
C2646 H2623 0.950 . S
C2646 C2645 1.397 . S
C2646 C2647 1.334 . S
C2647 H2624 0.950 . S
C2647 C2646 1.334 . S
C2647 C2648 1.287 . S
C2648 C2647 1.287 . S
C2648 C2649 1.524 . S
C2648 H2667 0.913 . S
C2649 H2625 0.950 . S
C2649 C2648 1.524 . S
C2649 C2650 1.415 . S
C2650 H2626 0.950 . S
C2650 C2645 1.363 . S
C2650 C2649 1.415 . S
C2651 H2627 0.951 . S
C2651 C2652 1.366 . S
C2651 C2653 1.388 . S
C2652 C2651 1.366 . S
C2652 C2656 1.385 . S
C2653 H2628 0.951 . S
C2653 C2651 1.388 . S
C2653 C2654 1.366 . S
C2654 C2653 1.366 . S
C2654 C2655 1.414 . S
C2654 C2657 1.499 . S
C2655 H2629 0.950 . S
C2655 C2654 1.414 . S
C2655 C2656 1.374 . S
C2656 H2630 0.950 . S
C2656 C2652 1.385 . S
C2656 C2655 1.374 . S
C2657 C2654 1.499 . S
C2657 C2658 1.373 . S
C2657 C2659 1.389 . S
C2658 H2631 0.950 . S
C2658 C2644 1.377 . S
C2658 C2657 1.373 . S
C2659 C2643 1.377 . S
C2659 C2657 1.389 . S
C2659 C2660 1.524 . S
C2660 C2659 1.524 . S
C2660 C2661 1.397 . S
C2660 C2665 1.363 . S
C2661 H2632 0.950 . S
C2661 C2660 1.397 . S
C2661 C2662 1.334 . S
C2662 H2633 0.950 . S
C2662 C2661 1.334 . S
C2662 C2663 1.287 . S
C2663 C2662 1.287 . S
C2663 C2664 1.524 . S
C2663 H2666 0.999 . S
C2664 H2634 0.950 . S
C2664 C2663 1.524 . S
C2664 C2665 1.415 . S
C2665 H2635 0.950 . S
C2665 C2660 1.363 . S
C2665 C2664 1.415 . S
H2666 C2663 0.999 . S
H2667 C2648 0.913 . S
H2668 C2686 0.951 . S
H2669 C2688 0.951 . S
H2670 C2690 0.950 . S
H2671 C2691 0.950 . S
H2672 C2693 0.950 . S
H2673 C2696 0.950 . S
H2674 C2697 0.950 . S
H2675 C2699 0.950 . S
H2676 C2700 0.950 . S
H2677 C2701 0.951 . S
H2678 C2703 0.951 . S
H2679 C2705 0.950 . S
H2680 C2706 0.950 . S
H2681 C2708 0.950 . S
H2682 C2711 0.950 . S
H2683 C2712 0.950 . S
H2684 C2714 0.950 . S
H2685 C2715 0.950 . S
C2686 H2668 0.951 . S
C2686 C2687 1.366 . S
C2686 C2688 1.388 . S
C2687 C2686 1.366 . S
C2687 C2691 1.385 . S
C2688 H2669 0.951 . S
C2688 C2686 1.388 . S
C2688 C2689 1.366 . S
C2689 C2688 1.366 . S
C2689 C2690 1.414 . S
C2689 C2692 1.499 . S
C2690 H2670 0.950 . S
C2690 C2689 1.414 . S
C2690 C2691 1.374 . S
C2691 H2671 0.950 . S
C2691 C2687 1.385 . S
C2691 C2690 1.374 . S
C2692 C2689 1.499 . S
C2692 C2693 1.373 . S
C2692 C2694 1.389 . S
C2693 H2672 0.950 . S
C2693 C2692 1.373 . S
C2693 C2709 1.377 . S
C2694 C2692 1.389 . S
C2694 C2695 1.524 . S
C2694 C2708 1.377 . S
C2695 C2694 1.524 . S
C2695 C2696 1.397 . S
C2695 C2700 1.363 . S
C2696 H2673 0.950 . S
C2696 C2695 1.397 . S
C2696 C2697 1.334 . S
C2697 H2674 0.950 . S
C2697 C2696 1.334 . S
C2697 C2698 1.287 . S
C2698 C2697 1.287 . S
C2698 C2699 1.524 . S
C2698 H2717 0.913 . S
C2699 H2675 0.950 . S
C2699 C2698 1.524 . S
C2699 C2700 1.415 . S
C2700 H2676 0.950 . S
C2700 C2695 1.363 . S
C2700 C2699 1.415 . S
C2701 H2677 0.951 . S
C2701 C2702 1.366 . S
C2701 C2703 1.388 . S
C2702 C2701 1.366 . S
C2702 C2706 1.385 . S
C2703 H2678 0.951 . S
C2703 C2701 1.388 . S
C2703 C2704 1.366 . S
C2704 C2703 1.366 . S
C2704 C2705 1.414 . S
C2704 C2707 1.499 . S
C2705 H2679 0.950 . S
C2705 C2704 1.414 . S
C2705 C2706 1.374 . S
C2706 H2680 0.950 . S
C2706 C2702 1.385 . S
C2706 C2705 1.374 . S
C2707 C2704 1.499 . S
C2707 C2708 1.373 . S
C2707 C2709 1.389 . S
C2708 H2681 0.950 . S
C2708 C2694 1.377 . S
C2708 C2707 1.373 . S
C2709 C2693 1.377 . S
C2709 C2707 1.389 . S
C2709 C2710 1.524 . S
C2710 C2709 1.524 . S
C2710 C2711 1.397 . S
C2710 C2715 1.363 . S
C2711 H2682 0.950 . S
C2711 C2710 1.397 . S
C2711 C2712 1.334 . S
C2712 H2683 0.950 . S
C2712 C2711 1.334 . S
C2712 C2713 1.287 . S
C2713 C2712 1.287 . S
C2713 C2714 1.524 . S
C2713 H2716 0.999 . S
C2714 H2684 0.950 . S
C2714 C2713 1.524 . S
C2714 C2715 1.415 . S
C2715 H2685 0.950 . S
C2715 C2710 1.363 . S
C2715 C2714 1.415 . S
H2716 C2713 0.999 . S
H2717 C2698 0.913 . S
H2718 C2736 0.951 . S
H2719 C2738 0.951 . S
H2720 C2740 0.950 . S
H2721 C2741 0.950 . S
H2722 C2743 0.950 . S
H2723 C2746 0.950 . S
H2724 C2747 0.950 . S
H2725 C2749 0.950 . S
H2726 C2750 0.950 . S
H2727 C2751 0.951 . S
H2728 C2753 0.951 . S
H2729 C2755 0.950 . S
H2730 C2756 0.950 . S
H2731 C2758 0.950 . S
H2732 C2761 0.950 . S
H2733 C2762 0.950 . S
H2734 C2764 0.950 . S
H2735 C2765 0.950 . S
C2736 H2718 0.951 . S
C2736 C2737 1.366 . S
C2736 C2738 1.388 . S
C2737 C2736 1.366 . S
C2737 C2741 1.385 . S
C2738 H2719 0.951 . S
C2738 C2736 1.388 . S
C2738 C2739 1.366 . S
C2739 C2738 1.366 . S
C2739 C2740 1.414 . S
C2739 C2742 1.499 . S
C2740 H2720 0.950 . S
C2740 C2739 1.414 . S
C2740 C2741 1.374 . S
C2741 H2721 0.950 . S
C2741 C2737 1.385 . S
C2741 C2740 1.374 . S
C2742 C2739 1.499 . S
C2742 C2743 1.373 . S
C2742 C2744 1.389 . S
C2743 H2722 0.950 . S
C2743 C2742 1.373 . S
C2743 C2759 1.377 . S
C2744 C2742 1.389 . S
C2744 C2745 1.524 . S
C2744 C2758 1.377 . S
C2745 C2744 1.524 . S
C2745 C2746 1.397 . S
C2745 C2750 1.363 . S
C2746 H2723 0.950 . S
C2746 C2745 1.397 . S
C2746 C2747 1.334 . S
C2747 H2724 0.950 . S
C2747 C2746 1.334 . S
C2747 C2748 1.287 . S
C2748 C2747 1.287 . S
C2748 C2749 1.524 . S
C2748 H2767 0.913 . S
C2749 H2725 0.950 . S
C2749 C2748 1.524 . S
C2749 C2750 1.415 . S
C2750 H2726 0.950 . S
C2750 C2745 1.363 . S
C2750 C2749 1.415 . S
C2751 H2727 0.951 . S
C2751 C2752 1.366 . S
C2751 C2753 1.388 . S
C2752 C2751 1.366 . S
C2752 C2756 1.385 . S
C2753 H2728 0.951 . S
C2753 C2751 1.388 . S
C2753 C2754 1.366 . S
C2754 C2753 1.366 . S
C2754 C2755 1.414 . S
C2754 C2757 1.499 . S
C2755 H2729 0.950 . S
C2755 C2754 1.414 . S
C2755 C2756 1.374 . S
C2756 H2730 0.950 . S
C2756 C2752 1.385 . S
C2756 C2755 1.374 . S
C2757 C2754 1.499 . S
C2757 C2758 1.373 . S
C2757 C2759 1.389 . S
C2758 H2731 0.950 . S
C2758 C2744 1.377 . S
C2758 C2757 1.373 . S
C2759 C2743 1.377 . S
C2759 C2757 1.389 . S
C2759 C2760 1.524 . S
C2760 C2759 1.524 . S
C2760 C2761 1.397 . S
C2760 C2765 1.363 . S
C2761 H2732 0.950 . S
C2761 C2760 1.397 . S
C2761 C2762 1.334 . S
C2762 H2733 0.950 . S
C2762 C2761 1.334 . S
C2762 C2763 1.287 . S
C2763 C2762 1.287 . S
C2763 C2764 1.524 . S
C2763 H2766 0.999 . S
C2764 H2734 0.950 . S
C2764 C2763 1.524 . S
C2764 C2765 1.415 . S
C2765 H2735 0.950 . S
C2765 C2760 1.363 . S
C2765 C2764 1.415 . S
H2766 C2763 0.999 . S
H2767 C2748 0.913 . S
H2768 C2786 0.951 . S
H2769 C2788 0.951 . S
H2770 C2790 0.950 . S
H2771 C2791 0.950 . S
H2772 C2793 0.950 . S
H2773 C2796 0.950 . S
H2774 C2797 0.950 . S
H2775 C2799 0.950 . S
H2776 C2800 0.950 . S
H2777 C2801 0.951 . S
H2778 C2803 0.951 . S
H2779 C2805 0.950 . S
H2780 C2806 0.950 . S
H2781 C2808 0.950 . S
H2782 C2811 0.950 . S
H2783 C2812 0.950 . S
H2784 C2814 0.950 . S
H2785 C2815 0.950 . S
C2786 H2768 0.951 . S
C2786 C2787 1.366 . S
C2786 C2788 1.388 . S
C2787 C2786 1.366 . S
C2787 C2791 1.385 . S
C2788 H2769 0.951 . S
C2788 C2786 1.388 . S
C2788 C2789 1.366 . S
C2789 C2788 1.366 . S
C2789 C2790 1.414 . S
C2789 C2792 1.499 . S
C2790 H2770 0.950 . S
C2790 C2789 1.414 . S
C2790 C2791 1.374 . S
C2791 H2771 0.950 . S
C2791 C2787 1.385 . S
C2791 C2790 1.374 . S
C2792 C2789 1.499 . S
C2792 C2793 1.373 . S
C2792 C2794 1.389 . S
C2793 H2772 0.950 . S
C2793 C2792 1.373 . S
C2793 C2809 1.377 . S
C2794 C2792 1.389 . S
C2794 C2795 1.524 . S
C2794 C2808 1.377 . S
C2795 C2794 1.524 . S
C2795 C2796 1.397 . S
C2795 C2800 1.363 . S
C2796 H2773 0.950 . S
C2796 C2795 1.397 . S
C2796 C2797 1.334 . S
C2797 H2774 0.950 . S
C2797 C2796 1.334 . S
C2797 C2798 1.287 . S
C2798 C2797 1.287 . S
C2798 C2799 1.524 . S
C2798 H2817 0.913 . S
C2799 H2775 0.950 . S
C2799 C2798 1.524 . S
C2799 C2800 1.415 . S
C2800 H2776 0.950 . S
C2800 C2795 1.363 . S
C2800 C2799 1.415 . S
C2801 H2777 0.951 . S
C2801 C2802 1.366 . S
C2801 C2803 1.388 . S
C2802 C2801 1.366 . S
C2802 C2806 1.385 . S
C2803 H2778 0.951 . S
C2803 C2801 1.388 . S
C2803 C2804 1.366 . S
C2804 C2803 1.366 . S
C2804 C2805 1.414 . S
C2804 C2807 1.499 . S
C2805 H2779 0.950 . S
C2805 C2804 1.414 . S
C2805 C2806 1.374 . S
C2806 H2780 0.950 . S
C2806 C2802 1.385 . S
C2806 C2805 1.374 . S
C2807 C2804 1.499 . S
C2807 C2808 1.373 . S
C2807 C2809 1.389 . S
C2808 H2781 0.950 . S
C2808 C2794 1.377 . S
C2808 C2807 1.373 . S
C2809 C2793 1.377 . S
C2809 C2807 1.389 . S
C2809 C2810 1.524 . S
C2810 C2809 1.524 . S
C2810 C2811 1.397 . S
C2810 C2815 1.363 . S
C2811 H2782 0.950 . S
C2811 C2810 1.397 . S
C2811 C2812 1.334 . S
C2812 H2783 0.950 . S
C2812 C2811 1.334 . S
C2812 C2813 1.287 . S
C2813 C2812 1.287 . S
C2813 C2814 1.524 . S
C2813 H2816 0.999 . S
C2814 H2784 0.950 . S
C2814 C2813 1.524 . S
C2814 C2815 1.415 . S
C2815 H2785 0.950 . S
C2815 C2810 1.363 . S
C2815 C2814 1.415 . S
H2816 C2813 0.999 . S
H2817 C2798 0.913 . S
H2818 C2836 0.951 . S
H2819 C2838 0.951 . S
H2820 C2840 0.950 . S
H2821 C2841 0.950 . S
H2822 C2843 0.950 . S
H2823 C2846 0.950 . S
H2824 C2847 0.950 . S
H2825 C2849 0.950 . S
H2826 C2850 0.950 . S
H2827 C2851 0.951 . S
H2828 C2853 0.951 . S
H2829 C2855 0.950 . S
H2830 C2856 0.950 . S
H2831 C2858 0.950 . S
H2832 C2861 0.950 . S
H2833 C2862 0.950 . S
H2834 C2864 0.950 . S
H2835 C2865 0.950 . S
C2836 H2818 0.951 . S
C2836 C2837 1.366 . S
C2836 C2838 1.388 . S
C2837 C2836 1.366 . S
C2837 C2841 1.385 . S
C2838 H2819 0.951 . S
C2838 C2836 1.388 . S
C2838 C2839 1.366 . S
C2839 C2838 1.366 . S
C2839 C2840 1.414 . S
C2839 C2842 1.499 . S
C2840 H2820 0.950 . S
C2840 C2839 1.414 . S
C2840 C2841 1.374 . S
C2841 H2821 0.950 . S
C2841 C2837 1.385 . S
C2841 C2840 1.374 . S
C2842 C2839 1.499 . S
C2842 C2843 1.373 . S
C2842 C2844 1.389 . S
C2843 H2822 0.950 . S
C2843 C2842 1.373 . S
C2843 C2859 1.377 . S
C2844 C2842 1.389 . S
C2844 C2845 1.524 . S
C2844 C2858 1.377 . S
C2845 C2844 1.524 . S
C2845 C2846 1.397 . S
C2845 C2850 1.363 . S
C2846 H2823 0.950 . S
C2846 C2845 1.397 . S
C2846 C2847 1.334 . S
C2847 H2824 0.950 . S
C2847 C2846 1.334 . S
C2847 C2848 1.287 . S
C2848 C2847 1.287 . S
C2848 C2849 1.524 . S
C2848 H2867 0.913 . S
C2849 H2825 0.950 . S
C2849 C2848 1.524 . S
C2849 C2850 1.415 . S
C2850 H2826 0.950 . S
C2850 C2845 1.363 . S
C2850 C2849 1.415 . S
C2851 H2827 0.951 . S
C2851 C2852 1.366 . S
C2851 C2853 1.388 . S
C2852 C2851 1.366 . S
C2852 C2856 1.385 . S
C2853 H2828 0.951 . S
C2853 C2851 1.388 . S
C2853 C2854 1.366 . S
C2854 C2853 1.366 . S
C2854 C2855 1.414 . S
C2854 C2857 1.499 . S
C2855 H2829 0.950 . S
C2855 C2854 1.414 . S
C2855 C2856 1.374 . S
C2856 H2830 0.950 . S
C2856 C2852 1.385 . S
C2856 C2855 1.374 . S
C2857 C2854 1.499 . S
C2857 C2858 1.373 . S
C2857 C2859 1.389 . S
C2858 H2831 0.950 . S
C2858 C2844 1.377 . S
C2858 C2857 1.373 . S
C2859 C2843 1.377 . S
C2859 C2857 1.389 . S
C2859 C2860 1.524 . S
C2860 C2859 1.524 . S
C2860 C2861 1.397 . S
C2860 C2865 1.363 . S
C2861 H2832 0.950 . S
C2861 C2860 1.397 . S
C2861 C2862 1.334 . S
C2862 H2833 0.950 . S
C2862 C2861 1.334 . S
C2862 C2863 1.287 . S
C2863 C2862 1.287 . S
C2863 C2864 1.524 . S
C2863 H2866 0.999 . S
C2864 H2834 0.950 . S
C2864 C2863 1.524 . S
C2864 C2865 1.415 . S
C2865 H2835 0.950 . S
C2865 C2860 1.363 . S
C2865 C2864 1.415 . S
H2866 C2863 0.999 . S
H2867 C2848 0.913 . S
H2868 C2886 0.951 . S
H2869 C2888 0.951 . S
H2870 C2890 0.950 . S
H2871 C2891 0.950 . S
H2872 C2893 0.950 . S
H2873 C2896 0.950 . S
H2874 C2897 0.950 . S
H2875 C2899 0.950 . S
H2876 C2900 0.950 . S
H2877 C2901 0.951 . S
H2878 C2903 0.951 . S
H2879 C2905 0.950 . S
H2880 C2906 0.950 . S
H2881 C2908 0.950 . S
H2882 C2911 0.950 . S
H2883 C2912 0.950 . S
H2884 C2914 0.950 . S
H2885 C2915 0.950 . S
C2886 H2868 0.951 . S
C2886 C2887 1.366 . S
C2886 C2888 1.388 . S
C2887 C2886 1.366 . S
C2887 C2891 1.385 . S
C2888 H2869 0.951 . S
C2888 C2886 1.388 . S
C2888 C2889 1.366 . S
C2889 C2888 1.366 . S
C2889 C2890 1.414 . S
C2889 C2892 1.499 . S
C2890 H2870 0.950 . S
C2890 C2889 1.414 . S
C2890 C2891 1.374 . S
C2891 H2871 0.950 . S
C2891 C2887 1.385 . S
C2891 C2890 1.374 . S
C2892 C2889 1.499 . S
C2892 C2893 1.373 . S
C2892 C2894 1.389 . S
C2893 H2872 0.950 . S
C2893 C2892 1.373 . S
C2893 C2909 1.377 . S
C2894 C2892 1.389 . S
C2894 C2895 1.524 . S
C2894 C2908 1.377 . S
C2895 C2894 1.524 . S
C2895 C2896 1.397 . S
C2895 C2900 1.363 . S
C2896 H2873 0.950 . S
C2896 C2895 1.397 . S
C2896 C2897 1.334 . S
C2897 H2874 0.950 . S
C2897 C2896 1.334 . S
C2897 C2898 1.287 . S
C2898 C2897 1.287 . S
C2898 C2899 1.524 . S
C2898 H2917 0.913 . S
C2899 H2875 0.950 . S
C2899 C2898 1.524 . S
C2899 C2900 1.415 . S
C2900 H2876 0.950 . S
C2900 C2895 1.363 . S
C2900 C2899 1.415 . S
C2901 H2877 0.951 . S
C2901 C2902 1.366 . S
C2901 C2903 1.388 . S
C2902 C2901 1.366 . S
C2902 C2906 1.385 . S
C2903 H2878 0.951 . S
C2903 C2901 1.388 . S
C2903 C2904 1.366 . S
C2904 C2903 1.366 . S
C2904 C2905 1.414 . S
C2904 C2907 1.499 . S
C2905 H2879 0.950 . S
C2905 C2904 1.414 . S
C2905 C2906 1.374 . S
C2906 H2880 0.950 . S
C2906 C2902 1.385 . S
C2906 C2905 1.374 . S
C2907 C2904 1.499 . S
C2907 C2908 1.373 . S
C2907 C2909 1.389 . S
C2908 H2881 0.950 . S
C2908 C2894 1.377 . S
C2908 C2907 1.373 . S
C2909 C2893 1.377 . S
C2909 C2907 1.389 . S
C2909 C2910 1.524 . S
C2910 C2909 1.524 . S
C2910 C2911 1.397 . S
C2910 C2915 1.363 . S
C2911 H2882 0.950 . S
C2911 C2910 1.397 . S
C2911 C2912 1.334 . S
C2912 H2883 0.950 . S
C2912 C2911 1.334 . S
C2912 C2913 1.287 . S
C2913 C2912 1.287 . S
C2913 C2914 1.524 . S
C2913 H2916 0.999 . S
C2914 H2884 0.950 . S
C2914 C2913 1.524 . S
C2914 C2915 1.415 . S
C2915 H2885 0.950 . S
C2915 C2910 1.363 . S
C2915 C2914 1.415 . S
H2916 C2913 0.999 . S
H2917 C2898 0.913 . S
C552 C347 1.129 . S
C537 C2 1.214 . S
C602 C348 0.668 . S
C587 C65 0.654 . S
C652 C342 1.123 . S
C637 C82 1.149 . S
C687 C145 0.476 . S
C702 C341 0.482 . S
C737 C164 0.454 . S
C752 C344 0.495 . S
C802 C346 1.126 . S
C787 C223 1.157 . S
C837 C244 0.796 . S
C852 C345 0.796 . S
C887 C282 1.265 . S
C902 C343 1.198 . S
C952 C378 3.338 . S
C937 C31 3.314 . S
C987 C60 1.728 . S
C1002 C409 1.638 . S
C1052 C377 3.436 . S
C1037 C111 3.472 . S
C1102 C412 1.259 . S
C1087 C140 1.262 . S
C1137 C162 1.624 . S
C1152 C375 1.607 1_556 S
C1202 C407 1.428 . S
C1187 C225 1.423 . S
C1237 C242 1.418 . S
C1252 C380 1.372 1_556 S
C1287 C311 2.407 . S
C1302 C414 2.361 . S
C1337 C4 0.944 . S
C1352 C410 0.927 . S
C1387 C191 1.151 . S
C1402 C413 1.140 . S
C1452 C381 2.772 1_556 S
C1437 C220 2.841 . S
C1502 C408 0.897 . S
C1487 C271 0.906 . S
C1537 C284 1.697 . S
C1552 C374 1.715 1_556 S
C1587 C84 0.846 . S
C1602 C411 0.843 . S
C1652 C376 0.814 . S
C1637 C143 0.821 . S
C1687 C63 1.293 . S
C1702 C379 1.301 . S
C1737 C303 1.173 . S
C1752 C446 1.100 . S
C1787 C185 0.173 . S
C1802 C447 0.450 . S
C1852 C441 1.268 . S
C1837 C202 1.305 . S
C1902 C440 1.272 . S
C1887 C265 1.271 . S
C1937 C44 0.248 . S
C1952 C443 0.447 . S
C2002 C445 1.342 . S
C1987 C103 1.376 . S
C2037 C124 1.016 . S
C2052 C444 1.014 . S
C2087 C23 1.239 . S
C2102 C442 1.165 . S
C2137 C305 1.792 . S
C2152 C480 1.747 . S
C2202 C512 0.742 . S
C2187 C180 0.741 . S
C2237 C231 2.722 . S
C2252 C473 2.729 . S
C2287 C260 1.297 . S
C2302 C507 1.317 . S
C2352 C478 1.008 . S
C2337 C42 0.989 . S
C2387 C105 1.045 . S
C2402 C509 1.024 . S
C2452 C475 1.169 . S
C2437 C122 1.171 . S
C2502 C510 0.957 . S
C2487 C25 0.944 . S
C2552 C506 2.369 . S
C2537 C300 2.311 . S
C2587 C71 1.360 . S
C2602 C508 1.323 . S
C2637 C100 3.356 . S
C2652 C477 3.371 . S
C2702 C511 1.658 . S
C2687 C151 1.671 . S
C2737 C20 3.553 . S
C2752 C476 3.476 . S
C2787 C204 1.598 . S
C2802 C513 1.594 . S
C2852 C479 1.649 . S
C2837 C263 1.717 . S
C2902 C474 1.364 . S
C2887 C183 1.314 . S
