# Generated by pormake.
# Topology pyr, (3,6)-cn, num edge types: 1
# Building blocks:
#     Node 0, Type 0, BuildingBlock: WUSLED_clean_sbu_0, # of connection points: 3
#     Node 1, Type 0, BuildingBlock: WUSLED_clean_sbu_0, # of connection points: 3
#     Node 2, Type 0, BuildingBlock: WUSLED_clean_sbu_0, # of connection points: 3
#     Node 3, Type 0, BuildingBlock: WUSLED_clean_sbu_0, # of connection points: 3
#     Node 4, Type 0, BuildingBlock: WUSLED_clean_sbu_0, # of connection points: 3
#     Node 5, Type 0, BuildingBlock: WUSLED_clean_sbu_0, # of connection points: 3
#     Node 6, Type 0, BuildingBlock: WUSLED_clean_sbu_0, # of connection points: 3
#     Node 7, Type 0, BuildingBlock: WUSLED_clean_sbu_0, # of connection points: 3
#     Node 8, Type 1, BuildingBlock: CIFDUS_clean_sbu_1, # of connection points: 6
#     Node 9, Type 1, BuildingBlock: CIFDUS_clean_sbu_1, # of connection points: 6
#     Node 10, Type 1, BuildingBlock: CIFDUS_clean_sbu_1, # of connection points: 6
#     Node 11, Type 1, BuildingBlock: CIFDUS_clean_sbu_1, # of connection points: 6
#     Edge 12, Type (0, 1), BuildingBlock: AJUNOK_clean_linker_0, # of connection points: 2
#     Edge 13, Type (0, 1), BuildingBlock: AJUNOK_clean_linker_0, # of connection points: 2
#     Edge 14, Type (0, 1), BuildingBlock: AJUNOK_clean_linker_0, # of connection points: 2
#     Edge 15, Type (0, 1), BuildingBlock: AJUNOK_clean_linker_0, # of connection points: 2
#     Edge 16, Type (0, 1), BuildingBlock: AJUNOK_clean_linker_0, # of connection points: 2
#     Edge 17, Type (0, 1), BuildingBlock: AJUNOK_clean_linker_0, # of connection points: 2
#     Edge 18, Type (0, 1), BuildingBlock: AJUNOK_clean_linker_0, # of connection points: 2
#     Edge 19, Type (0, 1), BuildingBlock: AJUNOK_clean_linker_0, # of connection points: 2
#     Edge 20, Type (0, 1), BuildingBlock: AJUNOK_clean_linker_0, # of connection points: 2
#     Edge 21, Type (0, 1), BuildingBlock: AJUNOK_clean_linker_0, # of connection points: 2
#     Edge 22, Type (0, 1), BuildingBlock: AJUNOK_clean_linker_0, # of connection points: 2
#     Edge 23, Type (0, 1), BuildingBlock: AJUNOK_clean_linker_0, # of connection points: 2
#     Edge 24, Type (0, 1), BuildingBlock: AJUNOK_clean_linker_0, # of connection points: 2
#     Edge 25, Type (0, 1), BuildingBlock: AJUNOK_clean_linker_0, # of connection points: 2
#     Edge 26, Type (0, 1), BuildingBlock: AJUNOK_clean_linker_0, # of connection points: 2
#     Edge 27, Type (0, 1), BuildingBlock: AJUNOK_clean_linker_0, # of connection points: 2
#     Edge 28, Type (0, 1), BuildingBlock: AJUNOK_clean_linker_0, # of connection points: 2
#     Edge 29, Type (0, 1), BuildingBlock: AJUNOK_clean_linker_0, # of connection points: 2
#     Edge 30, Type (0, 1), BuildingBlock: AJUNOK_clean_linker_0, # of connection points: 2
#     Edge 31, Type (0, 1), BuildingBlock: AJUNOK_clean_linker_0, # of connection points: 2
#     Edge 32, Type (0, 1), BuildingBlock: AJUNOK_clean_linker_0, # of connection points: 2
#     Edge 33, Type (0, 1), BuildingBlock: AJUNOK_clean_linker_0, # of connection points: 2
#     Edge 34, Type (0, 1), BuildingBlock: AJUNOK_clean_linker_0, # of connection points: 2
#     Edge 35, Type (0, 1), BuildingBlock: AJUNOK_clean_linker_0, # of connection points: 2
# Relax obj value: 0.035
# Max RMSD: 0.109
# Mean RMSD: 0.045
data_MOF--net-pry--node1-WUSLED_clean_sbu_0--node2-CIFDUS_clean_sbu_1--edge1-AJUNOK_clean_linker_0
_symmetry_space_group_name_H-M    P1
_symmetry_Int_Tables_number       1
_symmetry_cell_setting            triclinic
loop_
_symmetry_equiv_pos_as_xyz
'x, y, z'
_cell_length_a     38.208082
_cell_length_b     36.912766
_cell_length_c     36.319155
_cell_angle_alpha  92.816977
_cell_angle_beta   91.377467
_cell_angle_gamma 93.569275
loop_
_atom_site_label
_atom_site_type_symbol
_atom_site_fract_x
_atom_site_fract_y
_atom_site_fract_z
_atom_type_partial_charge
C0 C 0.13262 0.24751 0.09698 0.0
C1 C 0.10042 0.25589 0.11241 0.0
C2 C 0.09893 0.31116 0.07711 0.0
C3 C 0.08372 0.28739 0.10254 0.0
C4 C 0.13064 0.30186 0.06129 0.0
C5 C 0.14711 0.27068 0.07105 0.0
U6 U 0.16294 0.16555 0.15523 0.0
O7 O 0.1828 0.11366 0.13359 0.0
O8 O 0.21782 0.15291 0.16613 0.0
C9 C 0.21454 0.12121 0.14783 0.0
C10 C 0.15277 0.21574 0.10699 0.0
C11 C 0.24519 0.10917 0.12669 0.0
C12 C 0.29595 0.12029 0.08802 0.0
C13 C 0.26537 0.13225 0.10461 0.0
C14 C 0.28666 0.06214 0.11515 0.0
C15 C 0.30718 0.08503 0.09321 0.0
C16 C 0.25613 0.07399 0.13146 0.0
C17 C 0.11604 0.14236 0.24824 0.0
C18 C 0.11443 0.08986 0.28707 0.0
C19 C 0.09151 0.14608 0.30964 0.0
C20 C 0.10028 0.16205 0.27666 0.0
C21 C 0.09812 0.1097 0.31544 0.0
C22 C 0.12328 0.10603 0.25375 0.0
C23 C 0.12266 0.16077 0.21321 0.0
O24 O 0.17482 0.22047 0.13538 0.0
O25 O 0.13693 0.183 0.1044 0.0
O26 O 0.11579 0.14218 0.18177 0.0
O27 O 0.15084 0.18295 0.21234 0.0
H28 H 0.08855 0.23856 0.1325 0.0
H29 H 0.05962 0.2938 0.11578 0.0
H30 H 0.14315 0.31915 0.04155 0.0
H31 H 0.17175 0.26493 0.05854 0.0
H32 H 0.31137 0.13908 0.072 0.0
H33 H 0.25792 0.15967 0.10077 0.0
H34 H 0.29426 0.03492 0.11981 0.0
H35 H 0.24133 0.05571 0.14862 0.0
H36 H 0.11938 0.06158 0.29012 0.0
H37 H 0.07921 0.16235 0.33069 0.0
H38 H 0.09422 0.18999 0.27315 0.0
H39 H 0.13523 0.09006 0.23222 0.0
C40 C 0.2935 0.9109 0.59468 0.0
C41 C 0.27997 0.93623 0.61973 0.0
C42 C 0.22911 0.94176 0.5785 0.0
C43 C 0.24812 0.95157 0.61167 0.0
C44 C 0.24303 0.91662 0.55343 0.0
C45 C 0.27484 0.90135 0.56148 0.0
U46 U 0.37923 0.89609 0.65103 0.0
O47 O 0.40131 0.84439 0.66348 0.0
O48 O 0.43051 0.88237 0.62917 0.0
C49 C 0.42896 0.8502 0.64324 0.0
C50 C 0.32651 0.89344 0.6025 0.0
C51 C 0.4383 0.81914 0.61904 0.0
C52 C 0.4215 0.76702 0.57732 0.0
C53 C 0.41343 0.7999 0.59522 0.0
C54 C 0.48006 0.77359 0.60481 0.0
C55 C 0.45453 0.75293 0.58299 0.0
C56 C 0.47195 0.80633 0.62275 0.0
C57 C 0.40531 0.95207 0.74168 0.0
C58 C 0.46265 0.96031 0.77313 0.0
C59 C 0.41026 0.97199 0.80668 0.0
C60 C 0.38975 0.96282 0.77472 0.0
C61 C 0.447 0.97077 0.80649 0.0
C62 C 0.44201 0.95083 0.74113 0.0
C63 C 0.38252 0.94276 0.70846 0.0
O64 O 0.35586 0.9134 0.59911 0.0
O65 O 0.32696 0.87352 0.6315 0.0
O66 O 0.36466 0.91113 0.7079 0.0
O67 O 0.39555 0.95022 0.6763 0.0
H68 H 0.29393 0.94399 0.64551 0.0
H69 H 0.23813 0.97086 0.6316 0.0
H70 H 0.22958 0.90909 0.52733 0.0
H71 H 0.28491 0.88197 0.54169 0.0
H72 H 0.40135 0.75159 0.56063 0.0
H73 H 0.38732 0.80936 0.59189 0.0
H74 H 0.5055 0.76319 0.61006 0.0
H75 H 0.49148 0.82071 0.64109 0.0
H76 H 0.49087 0.95976 0.7716 0.0
H77 H 0.3972 0.97953 0.8318 0.0
H78 H 0.36153 0.96401 0.77586 0.0
H79 H 0.45474 0.94268 0.71599 0.0
C80 C 0.6041 0.42997 0.81041 0.0
C81 C 0.63213 0.45153 0.79681 0.0
C82 C 0.59736 0.46151 0.74158 0.0
C83 C 0.62872 0.46735 0.76264 0.0
C84 C 0.56866 0.44222 0.7567 0.0
C85 C 0.57206 0.42649 0.79069 0.0
U86 U 0.65328 0.40643 0.89846 0.0
O87 O 0.63534 0.37761 0.94713 0.0
O88 O 0.67491 0.3547 0.91143 0.0
C89 C 0.65506 0.35023 0.94005 0.0
C90 C 0.60903 0.40719 0.84215 0.0
C91 C 0.63962 0.31297 0.94375 0.0
C92 C 0.59169 0.26617 0.93782 0.0
C93 C 0.60484 0.30204 0.93305 0.0
C94 C 0.64821 0.25184 0.96274 0.0
C95 C 0.61328 0.24054 0.95282 0.0
C96 C 0.66107 0.28756 0.95847 0.0
C97 C 0.73295 0.46789 0.93315 0.0
C98 C 0.77727 0.44823 0.97581 0.0
C99 C 0.7872 0.50462 0.94503 0.0
C100 C 0.75429 0.49922 0.92748 0.0
C101 C 0.79929 0.47879 0.9686 0.0
C102 C 0.7442 0.44274 0.95805 0.0
C103 C 0.70139 0.46005 0.90948 0.0
O104 O 0.63769 0.38934 0.84158 0.0
O105 O 0.60241 0.4213 0.87505 0.0
O106 O 0.67099 0.45939 0.92577 0.0
O107 O 0.70375 0.43322 0.88477 0.0
H108 H 0.65705 0.45481 0.81184 0.0
H109 H 0.65095 0.48281 0.75202 0.0
H110 H 0.5437 0.43857 0.74175 0.0
H111 H 0.55003 0.41033 0.80085 0.0
H112 H 0.56436 0.25895 0.93083 0.0
H113 H 0.5878 0.32124 0.92157 0.0
H114 H 0.6657 0.23308 0.9742 0.0
H115 H 0.68799 0.29543 0.96686 0.0
H116 H 0.78635 0.42783 0.99357 0.0
H117 H 0.80397 0.52822 0.93892 0.0
H118 H 0.74618 0.51871 0.90813 0.0
H119 H 0.7281 0.41819 0.96245 0.0
C120 C 0.80522 0.58201 0.45193 0.0
C121 C 0.79494 0.60938 0.47698 0.0
C122 C 0.74013 0.57414 0.48719 0.0
C123 C 0.7625 0.60553 0.49435 0.0
C124 C 0.75149 0.54598 0.46388 0.0
C125 C 0.7837 0.5499 0.44642 0.0
U126 U 0.88971 0.63477 0.42094 0.0
O127 O 0.93588 0.61397 0.39302 0.0
O128 O 0.90223 0.6508 0.3651 0.0
C129 C 0.92943 0.63082 0.36274 0.0
C130 C 0.83549 0.58802 0.42774 0.0
C131 C 0.934 0.61118 0.32678 0.0
C132 C 0.91078 0.57728 0.27102 0.0
C133 C 0.90652 0.59043 0.30767 0.0
C134 C 0.97026 0.60407 0.27314 0.0
C135 C 0.94233 0.58525 0.25293 0.0
C136 C 0.96608 0.61695 0.30946 0.0
C137 C 0.92422 0.72202 0.48016 0.0
C138 C 0.96411 0.77205 0.46242 0.0
C139 C 0.93567 0.77589 0.52117 0.0
C140 C 0.91933 0.74123 0.51373 0.0
C141 C 0.95736 0.79225 0.49516 0.0
C142 C 0.94751 0.73722 0.45487 0.0
C143 C 0.90175 0.6884 0.47125 0.0
O144 O 0.83476 0.6168 0.40793 0.0
O145 O 0.86691 0.58322 0.44154 0.0
O146 O 0.91624 0.6571 0.47275 0.0
O147 O 0.87958 0.68947 0.44317 0.0
H148 H 0.81107 0.63446 0.48154 0.0
H149 H 0.75404 0.62784 0.51172 0.0
H150 H 0.73438 0.52188 0.45732 0.0
H151 H 0.79091 0.52858 0.427 0.0
H152 H 0.88904 0.56223 0.2564 0.0
H153 H 0.88154 0.58547 0.32058 0.0
H154 H 0.9953 0.60958 0.26049 0.0
H155 H 0.98768 0.6327 0.32364 0.0
H156 H 0.98051 0.78406 0.44175 0.0
H157 H 0.93002 0.79071 0.5466 0.0
H158 H 0.90148 0.73009 0.53363 0.0
H159 H 0.95165 0.7229 0.42874 0.0
C160 C 0.90658 0.80796 0.95886 0.0
C161 C 0.93507 0.79683 0.93831 0.0
C162 C 0.94346 0.74649 0.97914 0.0
C163 C 0.95325 0.76649 0.94832 0.0
C164 C 0.91515 0.75817 0.99974 0.0
C165 C 0.8971 0.78843 0.98977 0.0
U166 U 0.87607 0.88757 0.89863 0.0
O167 O 0.8214 0.90083 0.88715 0.0
O168 O 0.8571 0.94034 0.91861 0.0
C169 C 0.82533 0.93304 0.90438 0.0
C170 C 0.8854 0.83885 0.94869 0.0
C171 C 0.79499 0.94673 0.92475 0.0
C172 C 0.74909 0.94245 0.97052 0.0
C173 C 0.77896 0.92875 0.95383 0.0
C174 C 0.75117 0.99214 0.92956 0.0
C175 C 0.73445 0.9741 0.95815 0.0
C176 C 0.78088 0.97865 0.91318 0.0
C177 C 0.92473 0.90783 0.80562 0.0
C178 C 0.92633 0.95904 0.76504 0.0
C179 C 0.95288 0.90367 0.74601 0.0
C180 C 0.9428 0.8882 0.77889 0.0
C181 C 0.94543 0.93952 0.73874 0.0
C182 C 0.91621 0.94342 0.79829 0.0
C183 C 0.91702 0.89027 0.84095 0.0
O184 O 0.9009 0.87174 0.95067 0.0
O185 O 0.86383 0.83331 0.91995 0.0
O186 O 0.88835 0.8688 0.84191 0.0
O187 O 0.92389 0.90935 0.8721 0.0
H188 H 0.943 0.81129 0.91433 0.0
H189 H 0.9749 0.75849 0.9317 0.0
H190 H 0.90606 0.7432 1.02294 0.0
H191 H 0.87511 0.79623 1.00601 0.0
H192 H 0.73693 0.92781 0.99248 0.0
H193 H 0.78922 0.90404 0.96331 0.0
H194 H 0.74122 1.01687 0.91977 0.0
H195 H 0.79272 0.99312 0.8909 0.0
H196 H 0.92015 0.98671 0.76041 0.0
H197 H 0.96694 0.88754 0.72627 0.0
H198 H 0.9497 0.86076 0.78371 0.0
H199 H 0.90229 0.95926 0.81838 0.0
C200 C 0.61445 0.13217 0.3238 0.0
C201 C 0.63937 0.12766 0.29621 0.0
C202 C 0.59475 0.09575 0.25543 0.0
C203 C 0.62952 0.10962 0.2622 0.0
C204 C 0.57092 0.09737 0.28424 0.0
C205 C 0.58064 0.11548 0.31799 0.0
U206 U 0.66772 0.17015 0.41106 0.0
O207 O 0.6789 0.22664 0.43229 0.0
O208 O 0.64804 0.18858 0.46505 0.0
C209 C 0.66012 0.22236 0.46183 0.0
C210 C 0.62131 0.15736 0.35667 0.0
C211 C 0.63564 0.25095 0.47052 0.0
C212 C 0.59395 0.29399 0.45125 0.0
C213 C 0.61401 0.26421 0.44312 0.0
C214 C 0.61524 0.29642 0.51469 0.0
C215 C 0.59485 0.31081 0.48697 0.0
C216 C 0.63554 0.26682 0.50648 0.0
C217 C 0.75303 0.1206 0.43401 0.0
C218 C 0.80419 0.13804 0.47386 0.0
C219 C 0.79632 0.07696 0.44608 0.0
C220 C 0.76509 0.0857 0.42907 0.0
C221 C 0.81641 0.103 0.4684 0.0
C222 C 0.77255 0.14679 0.45682 0.0
C223 C 0.72102 0.1285 0.41324 0.0
O224 O 0.61788 0.14326 0.38901 0.0
O225 O 0.64805 0.18149 0.35563 0.0
O226 O 0.72158 0.15896 0.3959 0.0
O227 O 0.69091 0.12038 0.42854 0.0
H228 H 0.66577 0.13994 0.3 0.0
H229 H 0.64822 0.10915 0.24027 0.0
H230 H 0.54384 0.08734 0.2795 0.0
H231 H 0.56097 0.11848 0.33874 0.0
H232 H 0.57862 0.30475 0.4293 0.0
H233 H 0.61356 0.25236 0.41521 0.0
H234 H 0.61692 0.30926 0.5422 0.0
H235 H 0.65214 0.25711 0.528 0.0
H236 H 0.81913 0.15856 0.49106 0.0
H237 H 0.80531 0.04995 0.44092 0.0
H238 H 0.75058 0.06522 0.41136 0.0
H239 H 0.76364 0.17394 0.46098 0.0
C240 C 0.28912 0.62321 0.15094 0.0
C241 C 0.28251 0.6452 0.12133 0.0
C242 C 0.23005 0.60672 0.1034 0.0
C243 C 0.2531 0.63705 0.09773 0.0
C244 C 0.23703 0.58485 0.13305 0.0
C245 C 0.26621 0.59304 0.15656 0.0
U246 U 0.36902 0.68368 0.1865 0.0
O247 O 0.38635 0.70068 0.24313 0.0
O248 O 0.42028 0.66858 0.20827 0.0
C249 C 0.41524 0.68325 0.24131 0.0
C250 C 0.31929 0.63144 0.17667 0.0
C251 C 0.4223 0.66088 0.27285 0.0
C252 C 0.40498 0.61302 0.31375 0.0
C253 C 0.39886 0.6321 0.28199 0.0
C254 C 0.45832 0.65081 0.32701 0.0
C255 C 0.43454 0.62253 0.33699 0.0
C256 C 0.45215 0.66985 0.29539 0.0
C257 C 0.38971 0.77218 0.13563 0.0
C258 C 0.44145 0.81389 0.14415 0.0
C259 C 0.39498 0.82686 0.10111 0.0
C260 C 0.376 0.7951 0.11005 0.0
C261 C 0.42806 0.83625 0.11761 0.0
C262 C 0.42224 0.78209 0.15334 0.0
C263 C 0.37 0.73759 0.14183 0.0
O264 O 0.35045 0.62982 0.16233 0.0
O265 O 0.31688 0.65979 0.19958 0.0
O266 O 0.35142 0.73684 0.17175 0.0
O267 O 0.38647 0.70779 0.13529 0.0
H268 H 0.29996 0.66869 0.11663 0.0
H269 H 0.24843 0.6543 0.07509 0.0
H270 H 0.21944 0.56168 0.13852 0.0
H271 H 0.27073 0.57592 0.17938 0.0
H272 H 0.38647 0.591 0.3203 0.0
H273 H 0.37569 0.62471 0.26482 0.0
H274 H 0.48208 0.65788 0.34333 0.0
H275 H 0.47068 0.69181 0.28863 0.0
H276 H 0.46743 0.82009 0.15632 0.0
H277 H 0.38479 0.843 0.07964 0.0
H278 H 0.35106 0.78774 0.09594 0.0
H279 H 0.43326 0.76463 0.17313 0.0
C280 C 0.08366 0.32221 0.61637 0.0
C281 C 0.09571 0.31544 0.58055 0.0
C282 C 0.06366 0.25558 0.5766 0.0
C283 C 0.08565 0.28246 0.56075 0.0
C284 C 0.05122 0.26326 0.61216 0.0
C285 C 0.06102 0.29605 0.63163 0.0
U286 U 0.14396 0.40876 0.64624 0.0
O287 O 0.12862 0.45949 0.67455 0.0
O288 O 0.16409 0.42463 0.7024 0.0
C289 C 0.14558 0.45338 0.70537 0.0
C290 C 0.095 0.35512 0.63961 0.0
C291 C 0.1263 0.45761 0.74008 0.0
C292 C 0.07806 0.44064 0.77983 0.0
C293 C 0.09486 0.43718 0.74593 0.0
C294 C 0.12371 0.48516 0.80229 0.0
C295 C 0.09246 0.46444 0.80866 0.0
C296 C 0.14045 0.48166 0.76849 0.0
C297 C 0.22548 0.43453 0.58691 0.0
C298 C 0.28002 0.46908 0.60532 0.0
C299 C 0.27181 0.44389 0.54269 0.0
C300 C 0.23816 0.42999 0.55112 0.0
C301 C 0.29351 0.46275 0.56993 0.0
C302 C 0.24636 0.4549 0.61382 0.0
C303 C 0.19243 0.41423 0.59598 0.0
O304 O 0.12441 0.35353 0.65874 0.0
O305 O 0.09154 0.38698 0.62568 0.0
O306 O 0.16323 0.43127 0.59452 0.0
O307 O 0.19418 0.39328 0.62409 0.0
H308 H 0.11322 0.33531 0.56818 0.0
H309 H 0.09536 0.27793 0.53327 0.0
H310 H 0.03484 0.24327 0.62574 0.0
H311 H 0.0515 0.30061 0.65924 0.0
H312 H 0.05386 0.42453 0.78354 0.0
H313 H 0.08343 0.41843 0.7244 0.0
H314 H 0.13493 0.50473 0.82317 0.0
H315 H 0.16458 0.49785 0.76452 0.0
H316 H 0.2961 0.48366 0.62686 0.0
H317 H 0.28114 0.43926 0.51504 0.0
H318 H 0.22246 0.41444 0.52991 0.0
H319 H 0.23717 0.45873 0.64164 0.0
O320 O 0.9737 0.04786 0.51836 0.0
Mn321 Mn 0.02199 0.02461 0.52723 0.0
O322 O 0.94785 0.01817 0.46882 0.0
Mn323 Mn 0.98667 0.99253 0.4587 0.0
O324 O 0.07121 1.0024 0.5374 0.0
O325 O 0.03851 0.07364 0.55399 0.0
Mn326 Mn 0.05668 0.06057 0.59635 0.0
O327 O 1.00112 1.00243 0.57631 0.0
O328 O 0.09557 0.03536 0.58619 0.0
O329 O 0.04344 0.04725 0.47868 0.0
O330 O 0.0195 1.01476 0.43011 0.0
O331 O 0.06223 0.10945 0.60003 0.0
O332 O 0.02325 0.03778 0.62421 0.0
C333 C 0.9928 0.94384 0.4828 0.0
C334 C 0.9477 0.04173 0.49541 0.0
C335 C 0.09706 1.01091 0.5605 0.0
C336 C 0.04776 0.10665 0.5673 0.0
C337 C 1.0029 1.01162 0.61119 0.0
C338 C 0.04101 0.03944 0.44362 0.0
O339 O 1.00408 0.97501 0.50002 0.0
O340 O 0.97936 0.94485 0.44978 0.0
O341 O 0.5057 0.02126 0.97407 0.0
Mn342 Mn 0.52343 0.03312 0.02841 0.0
O343 O 0.54165 0.97856 0.96122 0.0
Mn344 Mn 0.54929 0.97118 1.01113 0.0
O345 O 0.54084 0.04655 0.08352 0.0
O346 O 0.5315 0.08748 1.01516 0.0
Mn347 Mn 0.50173 0.10576 0.04669 0.0
O348 O 0.46893 0.03591 0.04371 0.0
O349 O 0.5177 0.1001 0.09422 0.0
O350 O 0.57802 0.03217 1.0122 0.0
O351 O 0.59252 0.98133 0.03252 0.0
O352 O 0.51738 0.14541 0.02514 0.0
O353 O 0.4561 0.09247 0.0353 0.0
C354 C 0.51495 0.94097 0.03927 0.0
C355 C 0.51847 0.9991 0.95067 0.0
C356 C 0.53539 0.07439 0.10508 0.0
C357 C 0.53568 0.12209 1.00754 0.0
C358 C 0.44615 0.06017 0.04054 0.0
C359 C 0.60234 1.01157 1.02172 0.0
O360 O 0.51363 0.97709 0.04214 0.0
O361 O 0.53732 0.92628 1.01802 0.0
O362 O 0.56983 0.5488 0.52925 0.0
Mn363 Mn 0.51668 0.52926 0.53362 0.0
O364 O 0.58365 0.5279 0.47293 0.0
Mn365 Mn 0.53915 0.5088 0.46004 0.0
O366 O 0.46317 0.50974 0.53717 0.0
O367 O 0.52756 0.52499 0.58954 0.0
Mn368 Mn 0.48984 0.54322 0.609 0.0
O369 O 0.50153 0.58384 0.541 0.0
O370 O 0.44954 0.51556 0.59661 0.0
O371 O 0.53218 0.4742 0.52735 0.0
O372 O 0.52934 0.46103 0.46732 0.0
O373 O 0.51394 0.53245 0.64909 0.0
O374 O 0.48768 0.59122 0.60027 0.0
C375 C 0.50015 0.53868 0.44168 0.0
C376 C 0.59203 0.54477 0.50343 0.0
C377 C 0.44135 0.50592 0.56347 0.0
C378 C 0.53574 0.52166 0.62462 0.0
C379 C 0.49093 0.60338 0.5685 0.0
C380 C 0.53331 0.45106 0.49966 0.0
O381 O 0.50571 0.53564 0.47748 0.0
O382 O 0.52078 0.5233 0.41866 0.0
O383 O 0.96653 0.50623 0.0261 0.0
Mn384 Mn 0.0179 0.52823 0.03131 0.0
O385 O 0.95176 0.54468 0.98503 0.0
Mn386 Mn 0.99775 0.55148 0.96979 0.0
O387 O 0.07046 0.55059 0.03449 0.0
O388 O 1.00908 0.53533 0.08835 0.0
Mn389 Mn 0.05012 0.52 0.10418 0.0
O390 O 0.03455 0.47384 0.03658 0.0
O391 O 0.08763 0.55033 0.09349 0.0
O392 O 1.00056 0.58426 0.02865 0.0
O393 O 0.02095 0.59587 0.97587 0.0
O394 O 0.03037 0.53053 0.14648 0.0
O395 O 0.05524 0.47153 0.0943 0.0
C396 C 0.01926 0.51473 0.93713 0.0
C397 C 0.94316 0.51989 1.00649 0.0
C398 C 0.09303 0.55884 0.0608 0.0
C399 C 1.00525 0.53911 0.12456 0.0
C400 C 0.0479 0.45628 0.06294 0.0
C401 C 1.00889 0.60821 1.00499 0.0
O402 O 0.02666 0.51543 0.97334 0.0
O403 O 0.99748 0.5365 0.9238 0.0
C404 C 0.05196 0.09929 0.36285 0.0
C405 C 0.08574 0.09278 0.35016 0.0
C406 C 0.03903 0.08414 0.39496 0.0
C407 C 0.05926 0.06202 0.4163 0.0
H408 H 0.03478 0.11539 0.34716 0.0
H409 H 1.01226 0.08861 0.40238 0.0
S410 S 0.14915 0.036 0.396 0.0
N411 N 0.13934 0.06251 0.36233 0.0
N412 N 0.11452 0.03372 0.42241 0.0
C413 C 0.0931 0.05538 0.4044 0.0
C414 C 0.10641 0.07075 0.37146 0.0
C415 C 0.4606 1.00951 0.865 0.0
C416 C 0.46834 0.97975 0.84135 0.0
C417 C 0.47784 1.01652 0.89954 0.0
C418 C 0.50376 0.99416 0.91201 0.0
H419 H 0.44056 0.02731 0.85701 0.0
H420 H 0.47013 0.03918 0.91694 0.0
S421 S 0.53505 0.91349 0.86004 0.0
N422 N 0.50444 0.92821 0.83276 0.0
N423 N 0.53749 0.94179 0.89674 0.0
C424 C 0.51282 0.96516 0.88793 0.0
C425 C 0.49502 0.95788 0.85292 0.0
C426 C 0.60016 0.51241 0.69807 0.0
C427 C 0.59379 0.47527 0.70391 0.0
C428 C 0.58727 0.52729 0.66592 0.0
C429 C 0.56721 0.50564 0.63904 0.0
H430 H 0.61188 0.53062 0.71989 0.0
H431 H 0.58858 0.55663 0.66473 0.0
S432 S 0.55259 0.40563 0.63691 0.0
N433 N 0.57384 0.41607 0.67647 0.0
N434 N 0.54861 0.4444 0.61679 0.0
C435 C 0.56571 0.46791 0.64205 0.0
C436 C 0.57892 0.45267 0.67458 0.0
C437 C 0.94237 0.53852 0.19963 0.0
C438 C 0.94689 0.57496 0.21303 0.0
C439 C 0.95578 0.52741 0.1653 0.0
C440 C 0.97421 0.55225 0.14326 0.0
H441 H 0.93152 0.51799 0.21717 0.0
H442 H 0.95566 0.49853 0.15825 0.0
S443 S 0.98736 0.6514 0.1634 0.0
N444 N 0.9657 0.63655 0.19896 0.0
N445 N 0.99195 0.61541 0.1355 0.0
C446 C 0.97498 0.58917 0.15449 0.0
C447 C 0.96126 0.60054 0.18921 0.0
C448 C 0.36535 0.05537 0.09896 0.0
C449 C 0.34072 0.0725 0.07708 0.0
C450 C 0.39851 0.04686 0.08555 0.0
C451 C 0.40831 0.05474 0.04953 0.0
H452 H 0.3598 0.05039 0.12744 0.0
H453 H 0.41754 0.03676 0.10444 0.0
S454 S 0.35215 0.09468 0.97933 0.0
N455 N 0.3276 0.09322 1.0161 0.0
N456 N 0.38946 0.07762 0.9913 0.0
C457 C 0.38304 0.0695 0.02671 0.0
C458 C 0.34952 0.07834 0.04032 0.0
C459 C 0.19352 0.99637 0.57535 0.0
C460 C 0.19543 0.9586 0.56988 0.0
C461 C 0.16192 1.01294 0.56995 0.0
C462 C 0.13065 0.99261 0.55881 0.0
H463 H 0.21659 1.01332 0.5844 0.0
H464 H 0.16183 0.04205 0.57557 0.0
S465 S 0.12137 0.89294 0.53977 0.0
N466 N 0.16322 0.90126 0.55172 0.0
N467 N 0.10379 0.93274 0.54141 0.0
C468 C 0.13231 0.95503 0.55177 0.0
C469 C 0.16466 0.93797 0.55739 0.0
C470 C 0.84662 0.49332 1.01752 0.0
C471 C 0.83653 0.48196 0.98099 0.0
C472 C 0.88206 0.5032 0.02712 0.0
C473 C 0.90796 0.50178 1.00033 0.0
H474 H 0.82686 0.49655 0.03811 0.0
H475 H 0.88884 0.51401 0.05482 0.0
S476 S 0.89528 0.46984 0.90229 0.0
N477 N 0.85551 0.46678 0.91917 0.0
N478 N 0.92166 0.48508 0.93705 0.0
C479 C 0.89829 0.48813 0.96453 0.0
C480 C 0.86263 0.47826 0.95487 0.0
C481 C 0.68961 0.5545 0.5272 0.0
C482 C 0.70256 0.57348 0.4971 0.0
C483 C 0.65309 0.5484 0.532 0.0
C484 C 0.62865 0.56082 0.50659 0.0
H485 H 0.70771 0.54277 0.54594 0.0
H486 H 0.64408 0.53162 0.55396 0.0
S487 S 0.64956 0.61297 0.42433 0.0
N488 N 0.68824 0.60585 0.44289 0.0
N489 N 0.62028 0.59427 0.4515 0.0
C490 C 0.64159 0.58134 0.47766 0.0
C491 C 0.67837 0.58765 0.47297 0.0
C492 C 0.10738 0.37878 0.07081 0.0
C493 C 0.08442 0.34729 0.06933 0.0
C494 C 0.09535 0.41338 0.06538 0.0
C495 C 0.05975 0.41856 0.05771 0.0
H496 H 0.13493 0.37694 0.07771 0.0
H497 H 0.11401 0.43672 0.06889 0.0
S498 S 0.98858 0.34543 0.04842 0.0
N499 N 0.02406 0.32366 0.05767 0.0
N500 N 1.00158 0.38896 0.04771 0.0
C501 C 0.03647 0.38739 0.05484 0.0
C502 C 0.04872 0.35183 0.06067 0.0
C503 C 0.60828 0.18909 0.99555 0.0
C504 C 0.59902 0.20327 0.96155 0.0
C505 C 0.59166 0.15698 1.00742 0.0
C506 C 0.56447 0.13805 0.98631 0.0
H507 H 0.62658 0.20428 1.01461 0.0
H508 H 0.59709 0.14952 0.0354 0.0
S509 S 0.53494 0.15896 0.89234 0.0
N510 N 0.56511 0.19181 0.90407 0.0
N511 N 0.53237 0.13262 0.92779 0.0
C512 C 0.55723 0.14978 0.95093 0.0
C513 C 0.57462 0.18224 0.93835 0.0
C514 C 1.00348 0.84516 0.49806 0.0
C515 C 0.96814 0.8319 0.49982 0.0
C516 C 1.01271 0.8829 0.49813 0.0
C517 C 0.98696 0.9086 0.50021 0.0
H518 H 0.02389 0.82623 0.49501 0.0
H519 H 0.03973 0.89181 0.49352 0.0
S520 S 0.89088 0.88784 0.50352 0.0
N521 N 0.90755 0.84764 0.50291 0.0
N522 N 0.92481 0.9178 0.50368 0.0
C523 C 0.95186 0.89551 0.50361 0.0
C524 C 0.94246 0.85742 0.50313 0.0
C525 C 0.48992 0.70457 0.55248 0.0
C526 C 0.46035 0.71433 0.57241 0.0
C527 C 0.49864 0.66797 0.54828 0.0
C528 C 0.47828 0.64023 0.56437 0.0
H529 H 0.50712 0.7255 0.54134 0.0
H530 H 0.52246 0.66171 0.5344 0.0
S531 S 0.39772 0.65147 0.6181 0.0
N532 N 0.41038 0.69304 0.60723 0.0
N533 N 0.42621 0.6249 0.59918 0.0
C534 C 0.44777 0.64965 0.58276 0.0
C535 C 0.43895 0.68652 0.58686 0.0
C536 C 0.93758 0.97462 0.68053 0.0
C537 C 0.95934 0.95648 0.70467 0.0
C538 C 0.95085 0.99031 0.64841 0.0
C539 C 0.98635 0.98837 0.63923 0.0
H540 H 0.91018 0.97689 0.68663 0.0
H541 H 0.93359 1.00519 0.63147 0.0
S542 S 0.05479 0.94651 0.69406 0.0
N543 N 0.01868 0.93938 0.71741 0.0
N544 N 0.04306 0.96822 0.65754 0.0
C545 C 1.00817 0.97041 0.66309 0.0
C546 C 0.99486 0.95464 0.69557 0.0
C547 C 0.58715 0.05838 0.19462 0.0
C548 C 0.58072 0.08938 0.217 0.0
C549 C 0.57227 0.05314 0.15851 0.0
C550 C 0.55068 0.07886 0.14366 0.0
H551 H 0.60342 0.03802 0.20516 0.0
H552 H 0.57781 0.02893 0.14217 0.0
S553 S 0.52832 0.16588 0.1917 0.0
N554 N 0.55316 0.14656 0.22176 0.0
N555 N 0.52519 0.13747 0.15515 0.0
C556 C 0.54484 0.11026 0.1662 0.0
C557 C 0.55989 0.11533 0.20246 0.0
C558 C 0.44068 0.56298 0.36581 0.0
C559 C 0.44245 0.60111 0.36967 0.0
C560 C 0.45511 0.54229 0.39294 0.0
C561 C 0.47215 0.55878 0.4249 0.0
H562 H 0.43072 0.54909 0.34038 0.0
H563 H 0.45605 0.51328 0.3871 0.0
S564 S 0.47693 0.65692 0.45199 0.0
N565 N 0.45671 0.65409 0.41113 0.0
N566 N 0.48523 0.61491 0.46148 0.0
C567 C 0.47079 0.59642 0.43103 0.0
C568 C 0.45576 0.61765 0.40344 0.0
C569 C 0.03724 0.47444 0.84266 0.0
C570 C 0.07349 0.47002 0.84399 0.0
C571 C 0.01948 0.48513 0.87425 0.0
C572 C 0.03706 0.49246 0.90875 0.0
H573 H 0.02271 0.47174 0.81659 0.0
H574 H 0.9919 0.48997 0.87099 0.0
S575 S 0.13043 0.47794 0.92883 0.0
N576 N 0.1253 0.46804 0.88407 0.0
N577 N 0.0918 0.4895 0.94332 0.0
C578 C 0.07258 0.48512 0.91131 0.0
C579 C 0.09082 0.47385 0.87896 0.0
C580 C 0.69795 0.99243 1.01272 0.0
C581 C 0.70162 0.98819 0.97425 0.0
C582 C 0.66679 1.00429 0.0281 0.0
C583 C 0.63798 1.0129 1.0058 0.0
H584 H 0.71904 0.98572 0.03114 0.0
H585 H 0.66446 1.00482 0.05779 0.0
S586 S 0.63292 1.00393 0.90367 0.0
N587 N 0.67278 0.99217 0.91432 0.0
N588 N 0.61493 1.0149 0.94323 0.0
C589 C 0.64162 1.00957 0.96737 0.0
C590 C 0.67314 0.9971 0.95165 0.0
C591 C 0.85251 0.06041 0.50217 0.0
C592 C 0.85073 0.09307 0.48391 0.0
C593 C 0.88474 0.04544 0.50906 0.0
C594 C 0.91634 0.06284 0.49841 0.0
H595 H 0.82862 0.04516 0.5091 0.0
H596 H 0.88476 0.01896 0.5207 0.0
S597 S 0.92653 0.1499 0.45221 0.0
N598 N 0.88376 0.14331 0.45728 0.0
N599 N 0.94437 0.11521 0.47076 0.0
C600 C 0.91526 0.09664 0.4825 0.0
C601 C 0.88241 0.11185 0.47525 0.0
C602 C 0.18966 0.56185 0.06681 0.0
C603 C 0.19776 0.59797 0.08003 0.0
C604 C 0.15568 0.55025 0.05405 0.0
C605 C 0.12857 0.5743 0.05418 0.0
H606 H 0.20899 0.54176 0.06912 0.0
H607 H 0.1497 0.52144 0.04803 0.0
S608 S 0.13733 0.67281 0.07953 0.0
N609 N 0.17699 0.65883 0.08721 0.0
N610 N 0.11297 0.63662 0.06359 0.0
C611 C 0.13719 0.61118 0.06331 0.0
C612 C 0.17188 0.62316 0.07617 0.0
C613 C 0.34365 0.51018 0.5717 0.0
C614 C 0.33064 0.47443 0.56216 0.0
C615 C 0.37935 0.52067 0.56873 0.0
C616 C 0.4036 0.4959 0.55618 0.0
H617 H 0.32628 0.52994 0.58262 0.0
H618 H 0.38842 0.54807 0.57809 0.0
S619 S 0.38306 0.39937 0.52685 0.0
N620 N 0.3448 0.41443 0.53846 0.0
N621 N 0.41204 0.43441 0.5332 0.0
C622 C 0.39086 0.46056 0.54501 0.0
C623 C 0.35435 0.44978 0.54793 0.0
C624 C 0.96749 0.68691 0.95897 0.0
C625 C 0.96077 0.71202 0.9878 0.0
C626 C 0.98242 0.654 0.96561 0.0
C627 C 0.99179 0.64385 1.00155 0.0
H628 H 0.96055 0.69233 0.93077 0.0
H629 H 0.98634 0.63607 0.94174 0.0
S630 S 0.982 0.70121 0.08681 0.0
N631 N 0.96613 0.72536 0.05396 0.0
N632 N 0.99411 0.66311 0.0664 0.0
C633 C 0.98538 0.66873 0.03083 0.0
C634 C 0.97003 0.70273 0.02397 0.0
C635 C 0.45144 0.90098 0.10935 0.0
C636 C 0.4514 0.86345 0.10015 0.0
C637 C 0.47168 0.92648 0.0896 0.0
C638 C 0.49202 0.91506 0.05982 0.0
H639 H 0.4356 0.91061 0.13169 0.0
H640 H 0.47145 0.95509 0.0977 0.0
S641 S 0.49822 0.81892 0.0242 0.0
N642 N 0.4722 0.81606 0.0596 0.0
N643 N 0.50886 0.86266 1.02156 0.0
C644 C 0.49133 0.8772 0.05036 0.0
C645 C 0.47141 0.85174 0.07077 0.0
C646 C 0.02238 0.20024 0.56259 0.0
C647 C 0.05569 0.21829 0.55863 0.0
C648 C 1.01724 0.16219 0.55758 0.0
C649 C 0.04509 0.14073 0.54806 0.0
H650 H 1.00088 0.21521 0.573 0.0
H651 H 0.99263 0.14928 0.56589 0.0
S652 S 0.13482 0.17466 0.52526 0.0
N653 N 0.11516 0.21172 0.53784 0.0
N654 N 0.10492 0.14064 0.52764 0.0
C655 C 0.07674 0.15884 0.53836 0.0
C656 C 0.08228 0.19751 0.54398 0.0
C657 C 0.59053 0.37526 0.47218 0.0
C658 C 0.57915 0.3464 0.49347 0.0
C659 C 0.57663 0.40922 0.47653 0.0
C660 C 0.55019 0.41601 0.502 0.0
H661 H 0.61041 0.37154 0.45177 0.0
H662 H 0.58621 0.43033 0.45891 0.0
S663 S 0.51071 0.34912 0.56412 0.0
N664 N 0.54027 0.32654 0.54157 0.0
N665 N 0.51297 0.39065 0.54879 0.0
C666 C 0.53884 0.38763 0.5241 0.0
C667 C 0.55356 0.35277 0.52 0.0
loop_
_geom_bond_atom_site_label_1
_geom_bond_atom_site_label_2
_geom_bond_distance
_geom_bond_site_symmetry_2
_ccdc_geom_bond_type
C0 C1 1.264 . S
C0 C5 1.479 . S
C0 C10 1.465 . S
C1 C0 1.264 . S
C1 C3 1.339 . S
C1 H28 0.931 . S
C2 C3 1.395 . S
C2 C4 1.320 . S
C3 C1 1.339 . S
C3 C2 1.395 . S
C3 H29 0.929 . S
C4 C2 1.320 . S
C4 C5 1.405 . S
C4 H30 0.930 . S
C5 C0 1.479 . S
C5 C4 1.405 . S
C5 H31 0.931 . S
U6 O7 2.454 . S
U6 O8 2.458 . S
U6 C9 2.984 . S
U6 C10 2.847 . S
U6 C23 2.882 . S
U6 O24 2.441 . S
U6 O25 2.420 . S
U6 O26 2.455 . S
U6 O27 2.449 . S
O7 U6 2.454 . S
O7 C9 1.353 . S
O8 U6 2.458 . S
O8 C9 1.286 . S
C9 U6 2.984 . S
C9 O7 1.353 . S
C9 O8 1.286 . S
C9 C11 1.363 . S
C10 C0 1.465 . S
C10 U6 2.847 . S
C10 O24 1.249 . S
C10 O25 1.202 . S
C11 C9 1.363 . S
C11 C13 1.408 . S
C11 C16 1.342 . S
C12 C13 1.310 . S
C12 C15 1.461 . S
C12 H32 0.932 . S
C13 C11 1.408 . S
C13 C12 1.310 . S
C13 H33 0.930 . S
C14 C15 1.474 . S
C14 C16 1.285 . S
C14 H34 0.929 . S
C15 C12 1.461 . S
C15 C14 1.474 . S
C16 C11 1.342 . S
C16 C14 1.285 . S
C16 H35 0.930 . S
C17 C20 1.424 . S
C17 C22 1.245 . S
C17 C23 1.428 . S
C18 C21 1.260 . S
C18 C22 1.477 . S
C18 H36 0.932 . S
C19 C20 1.384 . S
C19 C21 1.479 . S
C19 H37 0.929 . S
C20 C17 1.424 . S
C20 C19 1.384 . S
C20 H38 0.928 . S
C21 C18 1.260 . S
C21 C19 1.479 . S
C22 C17 1.245 . S
C22 C18 1.477 . S
C22 H39 0.932 . S
C23 U6 2.882 . S
C23 C17 1.428 . S
C23 O26 1.301 . S
C23 O27 1.282 . S
O24 U6 2.441 . S
O24 C10 1.249 . S
O25 U6 2.420 . S
O25 C10 1.202 . S
O26 U6 2.455 . S
O26 C23 1.301 . S
O27 U6 2.449 . S
O27 C23 1.282 . S
H28 C1 0.931 . S
H29 C3 0.929 . S
H30 C4 0.930 . S
H31 C5 0.931 . S
H32 C12 0.932 . S
H33 C13 0.930 . S
H34 C14 0.929 . S
H35 C16 0.930 . S
H36 C18 0.932 . S
H37 C19 0.929 . S
H38 C20 0.928 . S
H39 C22 0.932 . S
C40 C41 1.264 . S
C40 C45 1.479 . S
C40 C50 1.465 . S
C41 C40 1.264 . S
C41 C43 1.339 . S
C41 H68 0.931 . S
C42 C43 1.395 . S
C42 C44 1.320 . S
C43 C41 1.339 . S
C43 C42 1.395 . S
C43 H69 0.929 . S
C44 C42 1.320 . S
C44 C45 1.405 . S
C44 H70 0.930 . S
C45 C40 1.479 . S
C45 C44 1.405 . S
C45 H71 0.931 . S
U46 O47 2.454 . S
U46 O48 2.458 . S
U46 C49 2.984 . S
U46 C50 2.847 . S
U46 C63 2.882 . S
U46 O64 2.441 . S
U46 O65 2.420 . S
U46 O66 2.455 . S
U46 O67 2.449 . S
O47 U46 2.454 . S
O47 C49 1.353 . S
O48 U46 2.458 . S
O48 C49 1.286 . S
C49 U46 2.984 . S
C49 O47 1.353 . S
C49 O48 1.286 . S
C49 C51 1.363 . S
C50 C40 1.465 . S
C50 U46 2.847 . S
C50 O64 1.249 . S
C50 O65 1.202 . S
C51 C49 1.363 . S
C51 C53 1.408 . S
C51 C56 1.342 . S
C52 C53 1.310 . S
C52 C55 1.461 . S
C52 H72 0.932 . S
C53 C51 1.408 . S
C53 C52 1.310 . S
C53 H73 0.930 . S
C54 C55 1.474 . S
C54 C56 1.285 . S
C54 H74 0.929 . S
C55 C52 1.461 . S
C55 C54 1.474 . S
C56 C51 1.342 . S
C56 C54 1.285 . S
C56 H75 0.930 . S
C57 C60 1.424 . S
C57 C62 1.245 . S
C57 C63 1.428 . S
C58 C61 1.260 . S
C58 C62 1.477 . S
C58 H76 0.932 . S
C59 C60 1.384 . S
C59 C61 1.479 . S
C59 H77 0.929 . S
C60 C57 1.424 . S
C60 C59 1.384 . S
C60 H78 0.928 . S
C61 C58 1.260 . S
C61 C59 1.479 . S
C62 C57 1.245 . S
C62 C58 1.477 . S
C62 H79 0.932 . S
C63 U46 2.882 . S
C63 C57 1.428 . S
C63 O66 1.301 . S
C63 O67 1.282 . S
O64 U46 2.441 . S
O64 C50 1.249 . S
O65 U46 2.420 . S
O65 C50 1.202 . S
O66 U46 2.455 . S
O66 C63 1.301 . S
O67 U46 2.449 . S
O67 C63 1.282 . S
H68 C41 0.931 . S
H69 C43 0.929 . S
H70 C44 0.930 . S
H71 C45 0.931 . S
H72 C52 0.932 . S
H73 C53 0.930 . S
H74 C54 0.929 . S
H75 C56 0.930 . S
H76 C58 0.932 . S
H77 C59 0.929 . S
H78 C60 0.928 . S
H79 C62 0.932 . S
C80 C81 1.264 . S
C80 C85 1.479 . S
C80 C90 1.465 . S
C81 C80 1.264 . S
C81 C83 1.339 . S
C81 H108 0.931 . S
C82 C83 1.395 . S
C82 C84 1.320 . S
C83 C81 1.339 . S
C83 C82 1.395 . S
C83 H109 0.929 . S
C84 C82 1.320 . S
C84 C85 1.405 . S
C84 H110 0.930 . S
C85 C80 1.479 . S
C85 C84 1.405 . S
C85 H111 0.931 . S
U86 O87 2.454 . S
U86 O88 2.458 . S
U86 C89 2.984 . S
U86 C90 2.847 . S
U86 C103 2.882 . S
U86 O104 2.441 . S
U86 O105 2.420 . S
U86 O106 2.455 . S
U86 O107 2.449 . S
O87 U86 2.454 . S
O87 C89 1.353 . S
O88 U86 2.458 . S
O88 C89 1.286 . S
C89 U86 2.984 . S
C89 O87 1.353 . S
C89 O88 1.286 . S
C89 C91 1.363 . S
C90 C80 1.465 . S
C90 U86 2.847 . S
C90 O104 1.249 . S
C90 O105 1.202 . S
C91 C89 1.363 . S
C91 C93 1.408 . S
C91 C96 1.342 . S
C92 C93 1.310 . S
C92 C95 1.461 . S
C92 H112 0.932 . S
C93 C91 1.408 . S
C93 C92 1.310 . S
C93 H113 0.930 . S
C94 C95 1.474 . S
C94 C96 1.285 . S
C94 H114 0.929 . S
C95 C92 1.461 . S
C95 C94 1.474 . S
C96 C91 1.342 . S
C96 C94 1.285 . S
C96 H115 0.930 . S
C97 C100 1.424 . S
C97 C102 1.245 . S
C97 C103 1.428 . S
C98 C101 1.260 . S
C98 C102 1.477 . S
C98 H116 0.932 . S
C99 C100 1.384 . S
C99 C101 1.479 . S
C99 H117 0.929 . S
C100 C97 1.424 . S
C100 C99 1.384 . S
C100 H118 0.928 . S
C101 C98 1.260 . S
C101 C99 1.479 . S
C102 C97 1.245 . S
C102 C98 1.477 . S
C102 H119 0.932 . S
C103 U86 2.882 . S
C103 C97 1.428 . S
C103 O106 1.301 . S
C103 O107 1.282 . S
O104 U86 2.441 . S
O104 C90 1.249 . S
O105 U86 2.420 . S
O105 C90 1.202 . S
O106 U86 2.455 . S
O106 C103 1.301 . S
O107 U86 2.449 . S
O107 C103 1.282 . S
H108 C81 0.931 . S
H109 C83 0.929 . S
H110 C84 0.930 . S
H111 C85 0.931 . S
H112 C92 0.932 . S
H113 C93 0.930 . S
H114 C94 0.929 . S
H115 C96 0.930 . S
H116 C98 0.932 . S
H117 C99 0.929 . S
H118 C100 0.928 . S
H119 C102 0.932 . S
C120 C121 1.264 . S
C120 C125 1.479 . S
C120 C130 1.465 . S
C121 C120 1.264 . S
C121 C123 1.339 . S
C121 H148 0.931 . S
C122 C123 1.395 . S
C122 C124 1.320 . S
C123 C121 1.339 . S
C123 C122 1.395 . S
C123 H149 0.929 . S
C124 C122 1.320 . S
C124 C125 1.405 . S
C124 H150 0.930 . S
C125 C120 1.479 . S
C125 C124 1.405 . S
C125 H151 0.931 . S
U126 O127 2.454 . S
U126 O128 2.458 . S
U126 C129 2.984 . S
U126 C130 2.847 . S
U126 C143 2.882 . S
U126 O144 2.441 . S
U126 O145 2.420 . S
U126 O146 2.455 . S
U126 O147 2.449 . S
O127 U126 2.454 . S
O127 C129 1.353 . S
O128 U126 2.458 . S
O128 C129 1.286 . S
C129 U126 2.984 . S
C129 O127 1.353 . S
C129 O128 1.286 . S
C129 C131 1.363 . S
C130 C120 1.465 . S
C130 U126 2.847 . S
C130 O144 1.249 . S
C130 O145 1.202 . S
C131 C129 1.363 . S
C131 C133 1.408 . S
C131 C136 1.342 . S
C132 C133 1.310 . S
C132 C135 1.461 . S
C132 H152 0.932 . S
C133 C131 1.408 . S
C133 C132 1.310 . S
C133 H153 0.930 . S
C134 C135 1.474 . S
C134 C136 1.285 . S
C134 H154 0.929 . S
C135 C132 1.461 . S
C135 C134 1.474 . S
C136 C131 1.342 . S
C136 C134 1.285 . S
C136 H155 0.930 . S
C137 C140 1.424 . S
C137 C142 1.245 . S
C137 C143 1.428 . S
C138 C141 1.260 . S
C138 C142 1.477 . S
C138 H156 0.932 . S
C139 C140 1.384 . S
C139 C141 1.479 . S
C139 H157 0.929 . S
C140 C137 1.424 . S
C140 C139 1.384 . S
C140 H158 0.928 . S
C141 C138 1.260 . S
C141 C139 1.479 . S
C142 C137 1.245 . S
C142 C138 1.477 . S
C142 H159 0.932 . S
C143 U126 2.882 . S
C143 C137 1.428 . S
C143 O146 1.301 . S
C143 O147 1.282 . S
O144 U126 2.441 . S
O144 C130 1.249 . S
O145 U126 2.420 . S
O145 C130 1.202 . S
O146 U126 2.455 . S
O146 C143 1.301 . S
O147 U126 2.449 . S
O147 C143 1.282 . S
H148 C121 0.931 . S
H149 C123 0.929 . S
H150 C124 0.930 . S
H151 C125 0.931 . S
H152 C132 0.932 . S
H153 C133 0.930 . S
H154 C134 0.929 . S
H155 C136 0.930 . S
H156 C138 0.932 . S
H157 C139 0.929 . S
H158 C140 0.928 . S
H159 C142 0.932 . S
C160 C161 1.264 . S
C160 C165 1.479 . S
C160 C170 1.465 . S
C161 C160 1.264 . S
C161 C163 1.339 . S
C161 H188 0.931 . S
C162 C163 1.395 . S
C162 C164 1.320 . S
C163 C161 1.339 . S
C163 C162 1.395 . S
C163 H189 0.929 . S
C164 C162 1.320 . S
C164 C165 1.405 . S
C164 H190 0.930 . S
C165 C160 1.479 . S
C165 C164 1.405 . S
C165 H191 0.931 . S
U166 O167 2.454 . S
U166 O168 2.458 . S
U166 C169 2.984 . S
U166 C170 2.847 . S
U166 C183 2.882 . S
U166 O184 2.441 . S
U166 O185 2.420 . S
U166 O186 2.455 . S
U166 O187 2.449 . S
O167 U166 2.454 . S
O167 C169 1.353 . S
O168 U166 2.458 . S
O168 C169 1.286 . S
C169 U166 2.984 . S
C169 O167 1.353 . S
C169 O168 1.286 . S
C169 C171 1.363 . S
C170 C160 1.465 . S
C170 U166 2.847 . S
C170 O184 1.249 . S
C170 O185 1.202 . S
C171 C169 1.363 . S
C171 C173 1.408 . S
C171 C176 1.342 . S
C172 C173 1.310 . S
C172 C175 1.461 . S
C172 H192 0.932 . S
C173 C171 1.408 . S
C173 C172 1.310 . S
C173 H193 0.930 . S
C174 C175 1.474 . S
C174 C176 1.285 . S
C174 H194 0.929 . S
C175 C172 1.461 . S
C175 C174 1.474 . S
C176 C171 1.342 . S
C176 C174 1.285 . S
C176 H195 0.930 . S
C177 C180 1.424 . S
C177 C182 1.245 . S
C177 C183 1.428 . S
C178 C181 1.260 . S
C178 C182 1.477 . S
C178 H196 0.932 . S
C179 C180 1.384 . S
C179 C181 1.479 . S
C179 H197 0.929 . S
C180 C177 1.424 . S
C180 C179 1.384 . S
C180 H198 0.928 . S
C181 C178 1.260 . S
C181 C179 1.479 . S
C182 C177 1.245 . S
C182 C178 1.477 . S
C182 H199 0.932 . S
C183 U166 2.882 . S
C183 C177 1.428 . S
C183 O186 1.301 . S
C183 O187 1.282 . S
O184 U166 2.441 . S
O184 C170 1.249 . S
O185 U166 2.420 . S
O185 C170 1.202 . S
O186 U166 2.455 . S
O186 C183 1.301 . S
O187 U166 2.449 . S
O187 C183 1.282 . S
H188 C161 0.931 . S
H189 C163 0.929 . S
H190 C164 0.930 . S
H191 C165 0.931 . S
H192 C172 0.932 . S
H193 C173 0.930 . S
H194 C174 0.929 . S
H195 C176 0.930 . S
H196 C178 0.932 . S
H197 C179 0.929 . S
H198 C180 0.928 . S
H199 C182 0.932 . S
C200 C201 1.264 . S
C200 C205 1.479 . S
C200 C210 1.465 . S
C201 C200 1.264 . S
C201 C203 1.339 . S
C201 H228 0.931 . S
C202 C203 1.395 . S
C202 C204 1.320 . S
C203 C201 1.339 . S
C203 C202 1.395 . S
C203 H229 0.929 . S
C204 C202 1.320 . S
C204 C205 1.405 . S
C204 H230 0.930 . S
C205 C200 1.479 . S
C205 C204 1.405 . S
C205 H231 0.931 . S
U206 O207 2.454 . S
U206 O208 2.458 . S
U206 C209 2.984 . S
U206 C210 2.847 . S
U206 C223 2.882 . S
U206 O224 2.441 . S
U206 O225 2.420 . S
U206 O226 2.455 . S
U206 O227 2.449 . S
O207 U206 2.454 . S
O207 C209 1.353 . S
O208 U206 2.458 . S
O208 C209 1.286 . S
C209 U206 2.984 . S
C209 O207 1.353 . S
C209 O208 1.286 . S
C209 C211 1.363 . S
C210 C200 1.465 . S
C210 U206 2.847 . S
C210 O224 1.249 . S
C210 O225 1.202 . S
C211 C209 1.363 . S
C211 C213 1.408 . S
C211 C216 1.342 . S
C212 C213 1.310 . S
C212 C215 1.461 . S
C212 H232 0.932 . S
C213 C211 1.408 . S
C213 C212 1.310 . S
C213 H233 0.930 . S
C214 C215 1.474 . S
C214 C216 1.285 . S
C214 H234 0.929 . S
C215 C212 1.461 . S
C215 C214 1.474 . S
C216 C211 1.342 . S
C216 C214 1.285 . S
C216 H235 0.930 . S
C217 C220 1.424 . S
C217 C222 1.245 . S
C217 C223 1.428 . S
C218 C221 1.260 . S
C218 C222 1.477 . S
C218 H236 0.932 . S
C219 C220 1.384 . S
C219 C221 1.479 . S
C219 H237 0.929 . S
C220 C217 1.424 . S
C220 C219 1.384 . S
C220 H238 0.928 . S
C221 C218 1.260 . S
C221 C219 1.479 . S
C222 C217 1.245 . S
C222 C218 1.477 . S
C222 H239 0.932 . S
C223 U206 2.882 . S
C223 C217 1.428 . S
C223 O226 1.301 . S
C223 O227 1.282 . S
O224 U206 2.441 . S
O224 C210 1.249 . S
O225 U206 2.420 . S
O225 C210 1.202 . S
O226 U206 2.455 . S
O226 C223 1.301 . S
O227 U206 2.449 . S
O227 C223 1.282 . S
H228 C201 0.931 . S
H229 C203 0.929 . S
H230 C204 0.930 . S
H231 C205 0.931 . S
H232 C212 0.932 . S
H233 C213 0.930 . S
H234 C214 0.929 . S
H235 C216 0.930 . S
H236 C218 0.932 . S
H237 C219 0.929 . S
H238 C220 0.928 . S
H239 C222 0.932 . S
C240 C241 1.264 . S
C240 C245 1.479 . S
C240 C250 1.465 . S
C241 C240 1.264 . S
C241 C243 1.339 . S
C241 H268 0.931 . S
C242 C243 1.395 . S
C242 C244 1.320 . S
C243 C241 1.339 . S
C243 C242 1.395 . S
C243 H269 0.929 . S
C244 C242 1.320 . S
C244 C245 1.405 . S
C244 H270 0.930 . S
C245 C240 1.479 . S
C245 C244 1.405 . S
C245 H271 0.931 . S
U246 O247 2.454 . S
U246 O248 2.458 . S
U246 C249 2.984 . S
U246 C250 2.847 . S
U246 C263 2.882 . S
U246 O264 2.441 . S
U246 O265 2.420 . S
U246 O266 2.455 . S
U246 O267 2.449 . S
O247 U246 2.454 . S
O247 C249 1.353 . S
O248 U246 2.458 . S
O248 C249 1.286 . S
C249 U246 2.984 . S
C249 O247 1.353 . S
C249 O248 1.286 . S
C249 C251 1.363 . S
C250 C240 1.465 . S
C250 U246 2.847 . S
C250 O264 1.249 . S
C250 O265 1.202 . S
C251 C249 1.363 . S
C251 C253 1.408 . S
C251 C256 1.342 . S
C252 C253 1.310 . S
C252 C255 1.461 . S
C252 H272 0.932 . S
C253 C251 1.408 . S
C253 C252 1.310 . S
C253 H273 0.930 . S
C254 C255 1.474 . S
C254 C256 1.285 . S
C254 H274 0.929 . S
C255 C252 1.461 . S
C255 C254 1.474 . S
C256 C251 1.342 . S
C256 C254 1.285 . S
C256 H275 0.930 . S
C257 C260 1.424 . S
C257 C262 1.245 . S
C257 C263 1.428 . S
C258 C261 1.260 . S
C258 C262 1.477 . S
C258 H276 0.932 . S
C259 C260 1.384 . S
C259 C261 1.479 . S
C259 H277 0.929 . S
C260 C257 1.424 . S
C260 C259 1.384 . S
C260 H278 0.928 . S
C261 C258 1.260 . S
C261 C259 1.479 . S
C262 C257 1.245 . S
C262 C258 1.477 . S
C262 H279 0.932 . S
C263 U246 2.882 . S
C263 C257 1.428 . S
C263 O266 1.301 . S
C263 O267 1.282 . S
O264 U246 2.441 . S
O264 C250 1.249 . S
O265 U246 2.420 . S
O265 C250 1.202 . S
O266 U246 2.455 . S
O266 C263 1.301 . S
O267 U246 2.449 . S
O267 C263 1.282 . S
H268 C241 0.931 . S
H269 C243 0.929 . S
H270 C244 0.930 . S
H271 C245 0.931 . S
H272 C252 0.932 . S
H273 C253 0.930 . S
H274 C254 0.929 . S
H275 C256 0.930 . S
H276 C258 0.932 . S
H277 C259 0.929 . S
H278 C260 0.928 . S
H279 C262 0.932 . S
C280 C281 1.264 . S
C280 C285 1.479 . S
C280 C290 1.465 . S
C281 C280 1.264 . S
C281 C283 1.339 . S
C281 H308 0.931 . S
C282 C283 1.395 . S
C282 C284 1.320 . S
C283 C281 1.339 . S
C283 C282 1.395 . S
C283 H309 0.929 . S
C284 C282 1.320 . S
C284 C285 1.405 . S
C284 H310 0.930 . S
C285 C280 1.479 . S
C285 C284 1.405 . S
C285 H311 0.931 . S
U286 O287 2.454 . S
U286 O288 2.458 . S
U286 C289 2.984 . S
U286 C290 2.847 . S
U286 C303 2.882 . S
U286 O304 2.441 . S
U286 O305 2.420 . S
U286 O306 2.455 . S
U286 O307 2.449 . S
O287 U286 2.454 . S
O287 C289 1.353 . S
O288 U286 2.458 . S
O288 C289 1.286 . S
C289 U286 2.984 . S
C289 O287 1.353 . S
C289 O288 1.286 . S
C289 C291 1.363 . S
C290 C280 1.465 . S
C290 U286 2.847 . S
C290 O304 1.249 . S
C290 O305 1.202 . S
C291 C289 1.363 . S
C291 C293 1.408 . S
C291 C296 1.342 . S
C292 C293 1.310 . S
C292 C295 1.461 . S
C292 H312 0.932 . S
C293 C291 1.408 . S
C293 C292 1.310 . S
C293 H313 0.930 . S
C294 C295 1.474 . S
C294 C296 1.285 . S
C294 H314 0.929 . S
C295 C292 1.461 . S
C295 C294 1.474 . S
C296 C291 1.342 . S
C296 C294 1.285 . S
C296 H315 0.930 . S
C297 C300 1.424 . S
C297 C302 1.245 . S
C297 C303 1.428 . S
C298 C301 1.260 . S
C298 C302 1.477 . S
C298 H316 0.932 . S
C299 C300 1.384 . S
C299 C301 1.479 . S
C299 H317 0.929 . S
C300 C297 1.424 . S
C300 C299 1.384 . S
C300 H318 0.928 . S
C301 C298 1.260 . S
C301 C299 1.479 . S
C302 C297 1.245 . S
C302 C298 1.477 . S
C302 H319 0.932 . S
C303 U286 2.882 . S
C303 C297 1.428 . S
C303 O306 1.301 . S
C303 O307 1.282 . S
O304 U286 2.441 . S
O304 C290 1.249 . S
O305 U286 2.420 . S
O305 C290 1.202 . S
O306 U286 2.455 . S
O306 C303 1.301 . S
O307 U286 2.449 . S
O307 C303 1.282 . S
H308 C281 0.931 . S
H309 C283 0.929 . S
H310 C284 0.930 . S
H311 C285 0.931 . S
H312 C292 0.932 . S
H313 C293 0.930 . S
H314 C294 0.929 . S
H315 C296 0.930 . S
H316 C298 0.932 . S
H317 C299 0.929 . S
H318 C300 0.928 . S
H319 C302 0.932 . S
O320 Mn321 2.163 1_655 S
O320 C334 1.244 . S
Mn321 O320 2.163 1_455 S
Mn321 O324 2.160 1_545 S
Mn321 O325 2.221 . S
Mn321 O327 2.163 1_445 S
Mn321 O329 2.160 . S
Mn321 O339 2.221 1_445 S
O322 Mn323 2.087 1_545 S
O322 C334 1.256 . S
Mn323 O322 2.087 1_565 S
Mn323 O330 2.089 1_565 S
Mn323 O339 2.290 . S
Mn323 O340 2.251 . S
O324 Mn321 2.160 1_565 S
O324 C335 1.239 . S
O325 Mn321 2.221 . S
O325 Mn326 2.290 . S
O325 C336 1.278 . S
Mn326 O325 2.290 . S
Mn326 O328 2.089 1_545 S
Mn326 O331 2.251 . S
Mn326 O332 2.087 . S
O327 Mn321 2.163 1_665 S
O327 C337 1.244 . S
O328 Mn326 2.089 1_565 S
O328 C335 1.256 . S
O329 Mn321 2.160 . S
O329 C338 1.239 . S
O330 Mn323 2.089 1_545 S
O330 C338 1.256 1_655 S
O331 Mn326 2.251 . S
O331 C336 1.241 . S
O332 Mn326 2.087 . S
O332 C337 1.256 1_445 S
C333 O339 1.278 . S
C333 O340 1.241 . S
C334 O320 1.244 . S
C334 O322 1.256 . S
C335 O324 1.239 . S
C335 O328 1.256 . S
C336 O325 1.278 . S
C336 O331 1.241 . S
C337 O327 1.244 . S
C337 O332 1.256 1_665 S
C338 O329 1.239 . S
C338 O330 1.256 1_455 S
O339 Mn321 2.221 1_665 S
O339 Mn323 2.290 . S
O339 C333 1.278 . S
O340 Mn323 2.251 . S
O340 C333 1.241 . S
O341 Mn342 2.163 1_556 S
O341 C355 1.244 1_545 S
Mn342 O341 2.163 1_554 S
Mn342 O345 2.160 . S
Mn342 O346 2.222 . S
Mn342 O348 2.163 . S
Mn342 O350 2.160 1_554 S
Mn342 O360 2.221 1_545 S
O343 Mn344 2.087 . S
O343 C355 1.256 . S
Mn344 O343 2.087 . S
Mn344 O351 2.089 . S
Mn344 O360 2.290 1_556 S
Mn344 O361 2.251 1_556 S
O345 Mn342 2.160 . S
O345 C356 1.239 . S
O346 Mn342 2.222 . S
O346 Mn347 2.294 . S
O346 C357 1.274 1_554 S
Mn347 O346 2.294 . S
Mn347 O349 2.089 . S
Mn347 O352 2.251 1_554 S
Mn347 O353 2.087 . S
O348 Mn342 2.163 . S
O348 C358 1.244 . S
O349 Mn347 2.089 . S
O349 C356 1.256 . S
O350 Mn342 2.160 1_556 S
O350 C359 1.239 1_545 S
O351 Mn344 2.089 . S
O351 C359 1.256 . S
O352 Mn347 2.251 1_556 S
O352 C357 1.241 . S
O353 Mn347 2.087 . S
O353 C358 1.256 . S
C354 O360 1.278 . S
C354 O361 1.241 . S
C355 O341 1.244 1_565 S
C355 O343 1.256 . S
C356 O345 1.239 . S
C356 O349 1.256 . S
C357 O346 1.274 1_556 S
C357 O352 1.241 . S
C358 O348 1.244 . S
C358 O353 1.256 . S
C359 O350 1.239 1_565 S
C359 O351 1.256 . S
O360 Mn342 2.221 1_565 S
O360 Mn344 2.290 1_554 S
O360 C354 1.278 . S
O361 Mn344 2.251 1_554 S
O361 C354 1.241 . S
O362 Mn363 2.163 . S
O362 C376 1.244 . S
Mn363 O362 2.163 . S
Mn363 O366 2.160 . S
Mn363 O367 2.221 . S
Mn363 O369 2.163 . S
Mn363 O371 2.160 . S
Mn363 O381 2.221 . S
O364 Mn365 2.087 . S
O364 C376 1.256 . S
Mn365 O364 2.087 . S
Mn365 O372 2.089 . S
Mn365 O381 2.290 . S
Mn365 O382 2.251 . S
O366 Mn363 2.160 . S
O366 C377 1.239 . S
O367 Mn363 2.221 . S
O367 Mn368 2.290 . S
O367 C378 1.278 . S
Mn368 O367 2.290 . S
Mn368 O370 2.089 . S
Mn368 O373 2.251 . S
Mn368 O374 2.087 . S
O369 Mn363 2.163 . S
O369 C379 1.244 . S
O370 Mn368 2.089 . S
O370 C377 1.256 . S
O371 Mn363 2.160 . S
O371 C380 1.239 . S
O372 Mn365 2.089 . S
O372 C380 1.256 . S
O373 Mn368 2.251 . S
O373 C378 1.241 . S
O374 Mn368 2.087 . S
O374 C379 1.256 . S
C375 O381 1.278 . S
C375 O382 1.241 . S
C376 O362 1.244 . S
C376 O364 1.256 . S
C377 O366 1.239 . S
C377 O370 1.256 . S
C378 O367 1.278 . S
C378 O373 1.241 . S
C379 O369 1.244 . S
C379 O374 1.256 . S
C380 O371 1.239 . S
C380 O372 1.256 . S
O381 Mn363 2.221 . S
O381 Mn365 2.290 . S
O381 C375 1.278 . S
O382 Mn365 2.251 . S
O382 C375 1.241 . S
O383 Mn384 2.163 1_655 S
O383 C397 1.244 1_554 S
Mn384 O383 2.163 1_455 S
Mn384 O387 2.160 . S
Mn384 O388 2.221 1_455 S
Mn384 O390 2.163 . S
Mn384 O392 2.160 1_454 S
Mn384 O402 2.221 1_554 S
O385 Mn386 2.087 . S
O385 C397 1.256 . S
Mn386 O385 2.087 . S
Mn386 O393 2.089 . S
Mn386 O402 2.290 1_655 S
Mn386 O403 2.251 . S
O387 Mn384 2.160 . S
O387 C398 1.239 . S
O388 Mn384 2.221 1_655 S
O388 Mn389 2.290 1_655 S
O388 C399 1.278 . S
Mn389 O388 2.290 1_455 S
Mn389 O391 2.089 . S
Mn389 O394 2.251 1_455 S
Mn389 O395 2.087 . S
O390 Mn384 2.163 . S
O390 C400 1.244 . S
O391 Mn389 2.089 . S
O391 C398 1.256 . S
O392 Mn384 2.160 1_656 S
O392 C401 1.239 . S
O393 Mn386 2.089 . S
O393 C401 1.256 . S
O394 Mn389 2.251 1_655 S
O394 C399 1.241 . S
O395 Mn389 2.087 . S
O395 C400 1.256 . S
C396 O402 1.278 . S
C396 O403 1.241 1_455 S
C397 O383 1.244 1_556 S
C397 O385 1.256 . S
C398 O387 1.239 . S
C398 O391 1.256 . S
C399 O388 1.278 . S
C399 O394 1.241 . S
C400 O390 1.244 . S
C400 O395 1.256 . S
C401 O392 1.239 . S
C401 O393 1.256 . S
O402 Mn384 2.221 1_556 S
O402 Mn386 2.290 1_455 S
O402 C396 1.278 . S
O403 Mn386 2.251 . S
O403 C396 1.241 1_655 S
C404 C405 1.369 . S
C404 C406 1.419 . S
C404 H408 0.930 . S
C405 C404 1.369 . S
C405 C414 1.429 . S
C406 C404 1.419 . S
C406 C407 1.363 . S
C406 H409 0.952 . S
C407 C406 1.363 . S
C407 C413 1.428 . S
H408 C404 0.930 . S
H409 C406 0.952 . S
S410 N411 1.615 1_565 S
S410 N412 1.611 1_565 S
N411 S410 1.615 1_545 S
N411 C414 1.350 . S
N412 S410 1.611 1_545 S
N412 C413 1.351 . S
C413 C407 1.428 . S
C413 N412 1.351 . S
C413 C414 1.434 . S
C414 C405 1.429 . S
C414 N411 1.350 . S
C414 C413 1.434 . S
C415 C416 1.369 1_545 S
C415 C417 1.419 . S
C415 H419 0.930 . S
C416 C415 1.369 1_565 S
C416 C425 1.429 . S
C417 C415 1.419 . S
C417 C418 1.363 1_545 S
C417 H420 0.929 . S
C418 C417 1.363 1_565 S
C418 C424 1.428 . S
H419 C415 0.930 . S
H420 C417 0.929 . S
S421 N422 1.613 . S
S421 N423 1.610 . S
N422 S421 1.613 . S
N422 C425 1.350 . S
N423 S421 1.610 . S
N423 C424 1.351 . S
C424 C418 1.428 . S
C424 N423 1.351 . S
C424 C425 1.434 . S
C425 C416 1.429 . S
C425 N422 1.350 . S
C425 C424 1.434 . S
C426 C427 1.369 . S
C426 C428 1.419 . S
C426 H430 0.930 . S
C427 C426 1.369 . S
C427 C436 1.429 . S
C428 C426 1.419 . S
C428 C429 1.363 . S
C428 H431 0.929 . S
C429 C428 1.363 . S
C429 C435 1.428 . S
H430 C426 0.930 . S
H431 C428 0.929 . S
S432 N433 1.613 . S
S432 N434 1.610 . S
N433 S432 1.613 . S
N433 C436 1.350 . S
N434 S432 1.610 . S
N434 C435 1.351 . S
C435 C429 1.428 . S
C435 N434 1.351 . S
C435 C436 1.434 . S
C436 C427 1.429 . S
C436 N433 1.350 . S
C436 C435 1.434 . S
C437 C438 1.369 . S
C437 C439 1.419 . S
C437 H441 0.930 . S
C438 C437 1.369 . S
C438 C447 1.429 . S
C439 C437 1.419 . S
C439 C440 1.363 . S
C439 H442 0.929 . S
C440 C439 1.363 . S
C440 C446 1.428 . S
H441 C437 0.930 . S
H442 C439 0.929 . S
S443 N444 1.613 . S
S443 N445 1.610 . S
N444 S443 1.613 . S
N444 C447 1.350 . S
N445 S443 1.610 . S
N445 C446 1.351 . S
C446 C440 1.428 . S
C446 N445 1.351 . S
C446 C447 1.434 . S
C447 C438 1.429 . S
C447 N444 1.350 . S
C447 C446 1.434 . S
C448 C449 1.369 . S
C448 C450 1.419 . S
C448 H452 0.930 . S
C449 C448 1.369 . S
C449 C458 1.429 . S
C450 C448 1.419 . S
C450 C451 1.363 . S
C450 H453 0.929 . S
C451 C450 1.363 . S
C451 C457 1.428 . S
H452 C448 0.930 . S
H453 C450 0.929 . S
S454 N455 1.613 . S
S454 N456 1.610 . S
N455 S454 1.613 . S
N455 C458 1.350 1_556 S
N456 S454 1.610 . S
N456 C457 1.351 1_556 S
C457 C451 1.428 . S
C457 N456 1.351 1_554 S
C457 C458 1.434 . S
C458 C449 1.429 . S
C458 N455 1.350 1_554 S
C458 C457 1.434 . S
C459 C460 1.369 . S
C459 C461 1.419 . S
C459 H463 0.930 1_565 S
C460 C459 1.369 . S
C460 C469 1.429 . S
C461 C459 1.419 . S
C461 C462 1.363 . S
C461 H464 0.929 1_565 S
C462 C461 1.363 . S
C462 C468 1.428 . S
H463 C459 0.930 1_545 S
H464 C461 0.929 1_545 S
S465 N466 1.613 . S
S465 N467 1.610 . S
N466 S465 1.613 . S
N466 C469 1.350 . S
N467 S465 1.610 . S
N467 C468 1.351 . S
C468 C462 1.428 . S
C468 N467 1.351 . S
C468 C469 1.434 . S
C469 C460 1.429 . S
C469 N466 1.350 . S
C469 C468 1.434 . S
C470 C471 1.369 . S
C470 C472 1.419 1_556 S
C470 H474 0.930 1_556 S
C471 C470 1.369 . S
C471 C480 1.429 . S
C472 C470 1.419 1_554 S
C472 C473 1.363 1_554 S
C472 H475 0.929 . S
C473 C472 1.363 1_556 S
C473 C479 1.428 . S
H474 C470 0.930 1_554 S
H475 C472 0.929 . S
S476 N477 1.613 . S
S476 N478 1.610 . S
N477 S476 1.613 . S
N477 C480 1.350 . S
N478 S476 1.610 . S
N478 C479 1.351 . S
C479 C473 1.428 . S
C479 N478 1.351 . S
C479 C480 1.434 . S
C480 C471 1.429 . S
C480 N477 1.350 . S
C480 C479 1.434 . S
C481 C482 1.369 . S
C481 C483 1.419 . S
C481 H485 0.930 . S
C482 C481 1.369 . S
C482 C491 1.429 . S
C483 C481 1.419 . S
C483 C484 1.363 . S
C483 H486 0.929 . S
C484 C483 1.363 . S
C484 C490 1.428 . S
H485 C481 0.930 . S
H486 C483 0.929 . S
S487 N488 1.613 . S
S487 N489 1.610 . S
N488 S487 1.613 . S
N488 C491 1.350 . S
N489 S487 1.610 . S
N489 C490 1.351 . S
C490 C484 1.428 . S
C490 N489 1.351 . S
C490 C491 1.434 . S
C491 C482 1.429 . S
C491 N488 1.350 . S
C491 C490 1.434 . S
C492 C493 1.369 . S
C492 C494 1.419 . S
C492 H496 0.930 . S
C493 C492 1.369 . S
C493 C502 1.429 . S
C494 C492 1.419 . S
C494 C495 1.363 . S
C494 H497 0.929 . S
C495 C494 1.363 . S
C495 C501 1.428 . S
H496 C492 0.930 . S
H497 C494 0.929 . S
S498 N499 1.618 . S
S498 N500 1.610 . S
N499 S498 1.618 . S
N499 C502 1.346 1_655 S
N500 S498 1.610 . S
N500 C501 1.351 1_655 S
C501 C495 1.428 . S
C501 N500 1.351 1_455 S
C501 C502 1.434 . S
C502 C493 1.429 . S
C502 N499 1.346 1_455 S
C502 C501 1.434 . S
C503 C504 1.369 . S
C503 C505 1.419 . S
C503 H507 0.930 1_556 S
C504 C503 1.369 . S
C504 C513 1.429 . S
C505 C503 1.419 . S
C505 C506 1.363 . S
C505 H508 0.929 1_556 S
C506 C505 1.363 . S
C506 C512 1.428 . S
H507 C503 0.930 1_554 S
H508 C505 0.929 1_554 S
S509 N510 1.613 . S
S509 N511 1.610 . S
N510 S509 1.613 . S
N510 C513 1.350 . S
N511 S509 1.610 . S
N511 C512 1.351 . S
C512 C506 1.428 . S
C512 N511 1.351 . S
C512 C513 1.434 . S
C513 C504 1.429 . S
C513 N510 1.350 . S
C513 C512 1.434 . S
C514 C515 1.369 . S
C514 C516 1.419 . S
C514 H518 0.930 1_655 S
C515 C514 1.369 . S
C515 C524 1.429 . S
C516 C514 1.419 . S
C516 C517 1.363 . S
C516 H519 0.929 1_655 S
C517 C516 1.363 . S
C517 C523 1.428 . S
H518 C514 0.930 1_455 S
H519 C516 0.929 1_455 S
S520 N521 1.613 . S
S520 N522 1.610 . S
N521 S520 1.613 . S
N521 C524 1.350 . S
N522 S520 1.610 . S
N522 C523 1.351 . S
C523 C517 1.428 . S
C523 N522 1.351 . S
C523 C524 1.434 . S
C524 C515 1.429 . S
C524 N521 1.350 . S
C524 C523 1.434 . S
C525 C526 1.369 . S
C525 C527 1.419 . S
C525 H529 0.930 . S
C526 C525 1.369 . S
C526 C535 1.429 . S
C527 C525 1.419 . S
C527 C528 1.363 . S
C527 H530 0.929 . S
C528 C527 1.363 . S
C528 C534 1.428 . S
H529 C525 0.930 . S
H530 C527 0.929 . S
S531 N532 1.613 . S
S531 N533 1.610 . S
N532 S531 1.613 . S
N532 C535 1.350 . S
N533 S531 1.610 . S
N533 C534 1.351 . S
C534 C528 1.428 . S
C534 N533 1.351 . S
C534 C535 1.434 . S
C535 C526 1.429 . S
C535 N532 1.350 . S
C535 C534 1.434 . S
C536 C537 1.369 . S
C536 C538 1.419 . S
C536 H540 0.930 . S
C537 C536 1.369 . S
C537 C546 1.429 . S
C538 C536 1.419 . S
C538 C539 1.363 . S
C538 H541 0.938 . S
C539 C538 1.363 . S
C539 C545 1.428 . S
H540 C536 0.930 . S
H541 C538 0.938 . S
S542 N543 1.613 . S
S542 N544 1.610 . S
N543 S542 1.613 . S
N543 C546 1.350 1_455 S
N544 S542 1.610 . S
N544 C545 1.351 1_455 S
C545 C539 1.428 . S
C545 N544 1.351 1_655 S
C545 C546 1.434 . S
C546 C537 1.429 . S
C546 N543 1.350 1_655 S
C546 C545 1.434 . S
C547 C548 1.369 . S
C547 C549 1.419 . S
C547 H551 0.930 . S
C548 C547 1.369 . S
C548 C557 1.429 . S
C549 C547 1.419 . S
C549 C550 1.363 . S
C549 H552 0.929 1_545 S
C550 C549 1.363 . S
C550 C556 1.428 . S
H551 C547 0.930 . S
H552 C549 0.929 1_565 S
S553 N554 1.613 . S
S553 N555 1.610 . S
N554 S553 1.613 . S
N554 C557 1.350 . S
N555 S553 1.610 . S
N555 C556 1.351 . S
C556 C550 1.428 . S
C556 N555 1.351 . S
C556 C557 1.434 . S
C557 C548 1.429 . S
C557 N554 1.350 . S
C557 C556 1.434 . S
C558 C559 1.369 . S
C558 C560 1.419 . S
C558 H562 0.930 . S
C559 C558 1.369 . S
C559 C568 1.429 . S
C560 C558 1.419 . S
C560 C561 1.363 . S
C560 H563 0.929 . S
C561 C560 1.363 . S
C561 C567 1.428 . S
H562 C558 0.930 . S
H563 C560 0.929 . S
S564 N565 1.613 . S
S564 N566 1.610 . S
N565 S564 1.613 . S
N565 C568 1.350 . S
N566 S564 1.610 . S
N566 C567 1.351 . S
C567 C561 1.428 . S
C567 N566 1.351 . S
C567 C568 1.434 . S
C568 C559 1.429 . S
C568 N565 1.350 . S
C568 C567 1.434 . S
C569 C570 1.369 . S
C569 C571 1.419 . S
C569 H573 0.930 1_455 S
C570 C569 1.369 . S
C570 C579 1.429 . S
C571 C569 1.419 . S
C571 C572 1.363 . S
C571 H574 0.929 1_455 S
C572 C571 1.363 . S
C572 C578 1.428 . S
H573 C569 0.930 1_655 S
H574 C571 0.929 1_655 S
S575 N576 1.613 . S
S575 N577 1.610 . S
N576 S575 1.613 . S
N576 C579 1.350 . S
N577 S575 1.610 . S
N577 C578 1.351 . S
C578 C572 1.428 . S
C578 N577 1.351 . S
C578 C579 1.434 . S
C579 C570 1.429 . S
C579 N576 1.350 . S
C579 C578 1.434 . S
C580 C581 1.369 . S
C580 C582 1.419 . S
C580 H584 0.930 1_556 S
C581 C580 1.369 . S
C581 C590 1.429 . S
C582 C580 1.419 . S
C582 C583 1.363 . S
C582 H585 0.929 1_556 S
C583 C582 1.363 . S
C583 C589 1.428 . S
H584 C580 0.930 1_554 S
H585 C582 0.929 1_554 S
S586 N587 1.613 . S
S586 N588 1.610 . S
N587 S586 1.613 . S
N587 C590 1.350 . S
N588 S586 1.610 . S
N588 C589 1.351 . S
C589 C583 1.428 . S
C589 N588 1.351 . S
C589 C590 1.434 . S
C590 C581 1.429 . S
C590 N587 1.350 . S
C590 C589 1.434 . S
C591 C592 1.369 . S
C591 C593 1.419 . S
C591 H595 0.930 . S
C592 C591 1.369 . S
C592 C601 1.429 . S
C593 C591 1.419 . S
C593 C594 1.363 . S
C593 H596 0.929 . S
C594 C593 1.363 . S
C594 C600 1.428 . S
H595 C591 0.930 . S
H596 C593 0.929 . S
S597 N598 1.613 . S
S597 N599 1.610 . S
N598 S597 1.613 . S
N598 C601 1.350 . S
N599 S597 1.610 . S
N599 C600 1.351 . S
C600 C594 1.428 . S
C600 N599 1.351 . S
C600 C601 1.434 . S
C601 C592 1.429 . S
C601 N598 1.350 . S
C601 C600 1.434 . S
C602 C603 1.369 . S
C602 C604 1.419 . S
C602 H606 0.930 . S
C603 C602 1.369 . S
C603 C612 1.429 . S
C604 C602 1.419 . S
C604 C605 1.363 . S
C604 H607 0.929 . S
C605 C604 1.363 . S
C605 C611 1.428 . S
H606 C602 0.930 . S
H607 C604 0.929 . S
S608 N609 1.613 . S
S608 N610 1.610 . S
N609 S608 1.613 . S
N609 C612 1.350 . S
N610 S608 1.610 . S
N610 C611 1.351 . S
C611 C605 1.428 . S
C611 N610 1.351 . S
C611 C612 1.434 . S
C612 C603 1.429 . S
C612 N609 1.350 . S
C612 C611 1.434 . S
C613 C614 1.369 . S
C613 C615 1.419 . S
C613 H617 0.930 . S
C614 C613 1.369 . S
C614 C623 1.429 . S
C615 C613 1.419 . S
C615 C616 1.363 . S
C615 H618 0.929 . S
C616 C615 1.363 . S
C616 C622 1.428 . S
H617 C613 0.930 . S
H618 C615 0.929 . S
S619 N620 1.613 . S
S619 N621 1.610 . S
N620 S619 1.613 . S
N620 C623 1.350 . S
N621 S619 1.610 . S
N621 C622 1.351 . S
C622 C616 1.428 . S
C622 N621 1.351 . S
C622 C623 1.434 . S
C623 C614 1.429 . S
C623 N620 1.350 . S
C623 C622 1.434 . S
C624 C625 1.369 . S
C624 C626 1.419 . S
C624 H628 0.930 . S
C625 C624 1.369 . S
C625 C634 1.429 . S
C626 C624 1.419 . S
C626 C627 1.363 . S
C626 H629 0.929 . S
C627 C626 1.363 . S
C627 C633 1.428 1_556 S
H628 C624 0.930 . S
H629 C626 0.929 . S
S630 N631 1.613 . S
S630 N632 1.610 . S
N631 S630 1.613 . S
N631 C634 1.350 1_554 S
N632 S630 1.610 . S
N632 C633 1.351 . S
C633 C627 1.428 1_554 S
C633 N632 1.351 . S
C633 C634 1.434 1_554 S
C634 C625 1.429 . S
C634 N631 1.350 1_556 S
C634 C633 1.434 1_556 S
C635 C636 1.369 . S
C635 C637 1.419 . S
C635 H639 0.930 . S
C636 C635 1.369 . S
C636 C645 1.429 . S
C637 C635 1.419 . S
C637 C638 1.363 . S
C637 H640 0.929 . S
C638 C637 1.363 . S
C638 C644 1.428 . S
H639 C635 0.930 . S
H640 C637 0.929 . S
S641 N642 1.613 1_556 S
S641 N643 1.610 . S
N642 S641 1.613 1_554 S
N642 C645 1.350 . S
N643 S641 1.610 . S
N643 C644 1.351 1_556 S
C644 C638 1.428 . S
C644 N643 1.351 1_554 S
C644 C645 1.434 . S
C645 C636 1.429 . S
C645 N642 1.350 . S
C645 C644 1.434 . S
C646 C647 1.369 . S
C646 C648 1.418 1_455 S
C646 H650 0.930 1_455 S
C647 C646 1.369 . S
C647 C656 1.429 . S
C648 C646 1.418 1_655 S
C648 C649 1.358 1_655 S
C648 H651 0.935 . S
C649 C648 1.358 1_455 S
C649 C655 1.428 . S
H650 C646 0.930 1_655 S
H651 C648 0.935 . S
S652 N653 1.613 . S
S652 N654 1.610 . S
N653 S652 1.613 . S
N653 C656 1.350 . S
N654 S652 1.610 . S
N654 C655 1.351 . S
C655 C649 1.428 . S
C655 N654 1.351 . S
C655 C656 1.434 . S
C656 C647 1.429 . S
C656 N653 1.350 . S
C656 C655 1.434 . S
C657 C658 1.369 . S
C657 C659 1.419 . S
C657 H661 0.930 . S
C658 C657 1.369 . S
C658 C667 1.429 . S
C659 C657 1.419 . S
C659 C660 1.363 . S
C659 H662 0.929 . S
C660 C659 1.363 . S
C660 C666 1.428 . S
H661 C657 0.930 . S
H662 C659 0.929 . S
S663 N664 1.613 . S
S663 N665 1.610 . S
N664 S663 1.613 . S
N664 C667 1.350 . S
N665 S663 1.610 . S
N665 C666 1.351 . S
C666 C660 1.428 . S
C666 N665 1.351 . S
C666 C667 1.434 . S
C667 C658 1.429 . S
C667 N664 1.350 . S
C667 C666 1.434 . S
C405 C21 1.663 . S
C407 C338 1.586 . S
C416 C61 1.521 . S
C418 C355 1.558 . S
C429 C378 1.162 . S
C427 C82 1.486 . S
C438 C135 1.909 . S
C440 C399 1.493 . S
C451 C358 1.780 . S
C449 C15 1.813 . S
C462 C335 1.739 . S
C460 C42 1.708 . S
C473 C397 1.384 . S
C471 C101 1.449 . S
C484 C376 1.560 . S
C482 C122 1.590 . S
C493 C2 1.801 . S
C495 C400 1.765 . S
C506 C357 1.270 . S
C504 C95 1.636 . S
C515 C141 1.812 . S
C517 C333 1.702 . S
C526 C55 1.579 . S
C528 C379 1.623 . S
C539 C337 1.615 . S
C537 C181 1.652 . S
C548 C202 1.337 . S
C550 C356 1.375 . S
C559 C255 1.525 . S
C561 C375 1.240 . S
C570 C295 1.819 . S
C572 C396 1.414 . S
C581 C175 1.750 . S
C583 C359 1.763 . S
C594 C334 1.818 . S
C592 C221 1.796 . S
C605 C398 1.212 . S
C603 C242 1.223 . S
C616 C377 1.676 . S
C614 C301 1.720 . S
C625 C162 1.546 . S
C627 C401 1.595 . S
C638 C354 1.226 . S
C636 C261 1.492 . S
C649 C336 1.504 . S
C647 C282 1.594 . S
C658 C215 1.568 . S
C660 C380 1.604 . S
