# Generated by pormake.
# Topology ssa, (4,4)-cn, num edge types: 1
# Building blocks:
#     Node 0, Type 0, BuildingBlock: NAWXER_clean_sbu_0, # of connection points: 4
#     Node 1, Type 0, BuildingBlock: NAWXER_clean_sbu_0, # of connection points: 4
#     Node 2, Type 0, BuildingBlock: NAWXER_clean_sbu_0, # of connection points: 4
#     Node 3, Type 0, BuildingBlock: NAWXER_clean_sbu_0, # of connection points: 4
#     Node 4, Type 0, BuildingBlock: NAWXER_clean_sbu_0, # of connection points: 4
#     Node 5, Type 0, BuildingBlock: NAWXER_clean_sbu_0, # of connection points: 4
#     Node 6, Type 1, BuildingBlock: ESEHIV_clean_sbu_0, # of connection points: 4
#     Node 7, Type 1, BuildingBlock: ESEHIV_clean_sbu_0, # of connection points: 4
#     Node 8, Type 1, BuildingBlock: ESEHIV_clean_sbu_0, # of connection points: 4
#     Node 9, Type 1, BuildingBlock: ESEHIV_clean_sbu_0, # of connection points: 4
#     Node 10, Type 1, BuildingBlock: ESEHIV_clean_sbu_0, # of connection points: 4
#     Node 11, Type 1, BuildingBlock: ESEHIV_clean_sbu_0, # of connection points: 4
#     Edge 12, Type (0, 1), BuildingBlock: XUDNAN_clean_linker_2, # of connection points: 2
#     Edge 13, Type (0, 1), BuildingBlock: XUDNAN_clean_linker_2, # of connection points: 2
#     Edge 14, Type (0, 1), BuildingBlock: XUDNAN_clean_linker_2, # of connection points: 2
#     Edge 15, Type (0, 1), BuildingBlock: XUDNAN_clean_linker_2, # of connection points: 2
#     Edge 16, Type (0, 1), BuildingBlock: XUDNAN_clean_linker_2, # of connection points: 2
#     Edge 17, Type (0, 1), BuildingBlock: XUDNAN_clean_linker_2, # of connection points: 2
#     Edge 18, Type (0, 1), BuildingBlock: XUDNAN_clean_linker_2, # of connection points: 2
#     Edge 19, Type (0, 1), BuildingBlock: XUDNAN_clean_linker_2, # of connection points: 2
#     Edge 20, Type (0, 1), BuildingBlock: XUDNAN_clean_linker_2, # of connection points: 2
#     Edge 21, Type (0, 1), BuildingBlock: XUDNAN_clean_linker_2, # of connection points: 2
#     Edge 22, Type (0, 1), BuildingBlock: XUDNAN_clean_linker_2, # of connection points: 2
#     Edge 23, Type (0, 1), BuildingBlock: XUDNAN_clean_linker_2, # of connection points: 2
#     Edge 24, Type (0, 1), BuildingBlock: XUDNAN_clean_linker_2, # of connection points: 2
#     Edge 25, Type (0, 1), BuildingBlock: XUDNAN_clean_linker_2, # of connection points: 2
#     Edge 26, Type (0, 1), BuildingBlock: XUDNAN_clean_linker_2, # of connection points: 2
#     Edge 27, Type (0, 1), BuildingBlock: XUDNAN_clean_linker_2, # of connection points: 2
#     Edge 28, Type (0, 1), BuildingBlock: XUDNAN_clean_linker_2, # of connection points: 2
#     Edge 29, Type (0, 1), BuildingBlock: XUDNAN_clean_linker_2, # of connection points: 2
#     Edge 30, Type (0, 1), BuildingBlock: XUDNAN_clean_linker_2, # of connection points: 2
#     Edge 31, Type (0, 1), BuildingBlock: XUDNAN_clean_linker_2, # of connection points: 2
#     Edge 32, Type (0, 1), BuildingBlock: XUDNAN_clean_linker_2, # of connection points: 2
#     Edge 33, Type (0, 1), BuildingBlock: XUDNAN_clean_linker_2, # of connection points: 2
#     Edge 34, Type (0, 1), BuildingBlock: XUDNAN_clean_linker_2, # of connection points: 2
#     Edge 35, Type (0, 1), BuildingBlock: XUDNAN_clean_linker_2, # of connection points: 2
# Relax obj value: 0.034
# Max RMSD: 0.097
# Mean RMSD: 0.065
data_MOF--net-ssa--node1-NAWXER_clean_sbu_0--node2-ESEHIV_clean_sbu_0--edge1-XUDNAN_clean_linker_2
_symmetry_space_group_name_H-M    P1
_symmetry_Int_Tables_number       1
_symmetry_cell_setting            triclinic
loop_
_symmetry_equiv_pos_as_xyz
'x, y, z'
_cell_length_a     47.789833
_cell_length_b     47.771759
_cell_length_c     34.933407
_cell_angle_alpha  89.947958
_cell_angle_beta   90.088501
_cell_angle_gamma 119.88967
loop_
_atom_site_label
_atom_site_type_symbol
_atom_site_fract_x
_atom_site_fract_y
_atom_site_fract_z
_atom_type_partial_charge
C0 C 0.05467 0.58775 0.03368 0.0
C1 C 0.03072 0.49206 0.95785 0.0
O2 O 0.03359 0.56101 0.0488 0.0
Zn3 Zn 1.01019 0.51037 0.03756 0.0
O4 O 0.06726 0.5875 1.00169 0.0
Zn5 Zn 0.04457 0.54081 0.99498 0.0
O6 O 0.99591 0.5294 0.98459 0.0
O7 O 0.96464 0.49931 0.03162 0.0
O8 O 0.05142 0.52118 0.94979 0.0
O9 O 1.01502 0.48567 0.98936 0.0
O10 O 0.026 0.4949 0.08037 0.0
O11 O 0.06475 0.52679 0.0408 0.0
C12 C 0.96781 0.51346 0.99963 0.0
C13 C 0.05582 0.50982 0.07147 0.0
C14 C 0.52469 0.06933 0.55283 0.0
C15 C 0.52763 0.98229 0.47844 0.0
O16 O 0.51388 0.04257 0.57095 0.0
Zn17 Zn 0.50654 0.99494 0.56164 0.0
O18 O 0.53425 0.07114 0.51842 0.0
Zn19 Zn 0.52712 0.02702 0.51393 0.0
O20 O 0.47551 0.99858 0.51393 0.0
O21 O 0.46008 0.96732 0.5653 0.0
O22 O 0.53806 1.01124 0.46736 0.0
O23 O 0.51604 0.97411 0.51231 0.0
O24 O 0.53449 0.99348 0.60104 0.0
O25 O 0.56116 0.02793 0.55446 0.0
C26 C 0.45309 0.9768 0.53458 0.0
C27 C 0.56104 0.01448 0.58624 0.0
C28 C 0.52291 0.47518 0.9799 0.0
C29 C 0.52817 0.56325 0.06076 0.0
O30 O 0.51092 0.49127 0.9647 0.0
Zn31 Zn 0.50176 0.5295 0.97822 0.0
O32 O 0.53302 0.48121 1.01433 0.0
Zn33 Zn 0.52575 0.51826 0.02272 0.0
O34 O 0.47448 0.4961 0.02863 0.0
O35 O 0.45496 0.50851 0.97814 0.0
O36 O 0.54029 0.54551 0.069 0.0
O37 O 0.51388 0.55944 0.02847 0.0
O38 O 0.52678 0.55974 0.93787 0.0
O39 O 0.55641 0.55118 0.97971 0.0
C40 C 0.4504 0.49427 1.01021 0.0
C41 C 0.55427 0.56472 0.94899 0.0
C42 C 0.05128 0.55573 0.46337 0.0
C43 C 0.97142 0.46709 0.54489 0.0
O44 O 0.06172 0.55515 0.49697 0.0
Zn45 Zn 0.04533 0.52619 0.54754 0.0
O46 O 0.02277 0.53419 0.45422 0.0
Zn47 Zn 1.01041 0.50987 0.50262 0.0
O48 O 1.00795 0.54249 0.54325 0.0
O49 O 0.04751 0.55691 0.58514 0.0
O50 O 0.96766 0.47202 0.50991 0.0
O51 O 0.9986 0.48512 0.56146 0.0
O52 O 0.07508 0.50961 0.55073 0.0
O53 O 0.04018 0.48831 0.50321 0.0
C54 C 0.02301 0.55826 0.57332 0.0
C55 C 0.06392 0.49036 0.5225 0.0
C56 C 0.54743 0.96364 1.0014 0.0
C57 C 0.48029 1.00532 0.94959 0.0
O58 O 0.54799 0.98608 0.02209 0.0
Zn59 Zn 0.52732 0.01699 0.02161 0.0
O60 O 0.5313 0.95553 0.97041 0.0
Zn61 Zn 0.51355 0.984 0.97479 0.0
O62 O 0.55362 0.03119 0.9633 0.0
O63 O 0.56547 0.06036 1.016 0.0
O64 O 0.48345 0.9822 0.93651 0.0
O65 O 0.49479 0.01939 0.9807 0.0
O66 O 0.50123 1.0032 0.0688 0.0
O67 O 0.4842 0.965 0.02501 0.0
C68 C 0.57098 0.05793 0.98086 0.0
C69 C 0.48184 0.9742 0.05872 0.0
C70 C 0.57401 0.51756 0.55443 0.0
C71 C 0.48229 0.5126 0.48158 0.0
O72 O 0.55877 0.52929 0.57223 0.0
Zn73 Zn 0.51929 0.53751 0.56302 0.0
O74 O 0.56549 0.50716 0.52043 0.0
Zn75 Zn 0.52835 0.51438 0.516 0.0
O76 O 0.55029 0.56582 0.51157 0.0
O77 O 0.53966 0.58428 0.56424 0.0
O78 O 0.49996 0.50103 0.47088 0.0
O79 O 0.48713 0.52607 0.51459 0.0
O80 O 0.4909 0.5118 0.60426 0.0
O81 O 0.4962 0.48257 0.55879 0.0
C82 C 0.55271 0.58953 0.53135 0.0
C83 C 0.48414 0.48443 0.59075 0.0
Cu84 Cu 0.24393 0.45873 0.27524 0.0
N85 N 0.2476 0.4341 0.23619 0.0
N86 N 0.26767 0.42363 0.18392 0.0
C87 C 0.27364 0.44389 0.21362 0.0
C88 C 0.23664 0.40014 0.18791 0.0
C89 C 0.22431 0.40665 0.22028 0.0
O90 O 0.28617 0.48368 0.30036 0.0
C91 C 0.19593 0.46763 0.24151 0.0
O92 O 0.17902 0.43695 0.25077 0.0
H93 H 0.29593 0.46646 0.21765 0.0
H94 H 0.19972 0.39314 0.23046 0.0
N95 N 0.21534 0.43309 0.31338 0.0
N96 N 0.18202 0.4199 0.3634 0.0
C97 C 0.20213 0.44367 0.33953 0.0
C98 C 0.20348 0.40157 0.321 0.0
C99 C 0.18273 0.3933 0.35179 0.0
C100 C 0.30033 0.46814 0.31063 0.0
O101 O 0.28664 0.43727 0.30229 0.0
H102 H 0.20655 0.4682 0.34025 0.0
H103 H 0.20937 0.38574 0.3052 0.0
O104 O 0.22583 0.48333 0.25076 0.0
H105 H 0.22361 0.38019 0.16835 0.0
H106 H 0.16929 0.36959 0.36463 0.0
Cu107 Cu 0.79868 0.2455 0.77075 0.0
N108 N 0.78964 0.20773 0.74491 0.0
N109 N 0.76113 0.16078 0.7141 0.0
C110 C 0.76064 0.18612 0.73051 0.0
C111 C 0.79173 0.16676 0.71845 0.0
C112 C 0.80921 0.19568 0.73761 0.0
O113 O 0.76091 0.23317 0.80377 0.0
C114 C 0.82559 0.28382 0.70507 0.0
O115 O 0.8351 0.2627 0.69925 0.0
H116 H 0.73974 0.18926 0.73168 0.0
H117 H 0.8344 0.20711 0.74562 0.0
N118 N 0.83674 0.26116 0.7993 0.0
N119 N 0.88437 0.2968 0.82455 0.0
C120 C 0.8592 0.29257 0.80283 0.0
C121 C 0.84837 0.24491 0.81906 0.0
C122 C 0.87761 0.26692 0.83509 0.0
C123 C 0.75733 0.21758 0.83486 0.0
O124 O 0.78093 0.2132 0.84667 0.0
H125 H 0.85692 0.31201 0.79008 0.0
H126 H 0.8365 0.21891 0.82155 0.0
O127 O 0.80739 0.2799 0.73373 0.0
H128 H 0.80079 0.15124 0.70886 0.0
H129 H 0.89291 0.26141 0.8527 0.0
Cu130 Cu 0.58196 0.79825 0.27271 0.0
N131 N 0.60635 0.82665 0.23354 0.0
N132 N 0.61555 0.8543 0.17906 0.0
C133 C 0.59366 0.82955 0.20036 0.0
C134 C 0.64319 0.86755 0.19943 0.0
C135 C 0.63755 0.85015 0.23293 0.0
O136 O 0.55628 0.81512 0.29737 0.0
C137 C 0.57381 0.74286 0.23598 0.0
O138 O 0.60513 0.75813 0.24189 0.0
H139 H 0.56838 0.81491 0.19298 0.0
H140 H 0.65465 0.85519 0.25581 0.0
N141 N 0.60742 0.79564 0.31169 0.0
N142 N 0.6187 0.77556 0.36355 0.0
C143 C 0.59959 0.76897 0.33248 0.0
C144 C 0.63233 0.81999 0.33031 0.0
C145 C 0.63941 0.80766 0.36227 0.0
C146 C 0.57023 0.84538 0.30469 0.0
O147 O 0.60009 0.86389 0.29317 0.0
H148 H 0.57875 0.74564 0.32645 0.0
H149 H 0.64323 0.84521 0.3227 0.0
O150 O 0.55754 0.75564 0.24833 0.0
H151 H 0.66554 0.88872 0.1911 0.0
H152 H 0.65752 0.82143 0.38365 0.0
Cu153 Cu 0.79685 0.56389 0.77458 0.0
N154 N 0.83686 0.59318 0.75302 0.0
N155 N 0.88392 0.61228 0.72217 0.0
C156 C 0.85366 0.58709 0.72659 0.0
C157 C 0.8858 0.63543 0.74591 0.0
C158 C 0.8568 0.62362 0.76478 0.0
O159 O 0.80389 0.53687 0.81179 0.0
C160 C 0.73533 0.52582 0.73723 0.0
O161 O 0.72341 0.51925 0.77205 0.0
H162 H 0.84458 0.5639 0.71275 0.0
H163 H 0.85123 0.63596 0.78679 0.0
N164 N 0.78308 0.58764 0.80373 0.0
N165 N 0.75251 0.60579 0.83025 0.0
C166 C 0.75616 0.58993 0.80035 0.0
C167 C 0.7972 0.60311 0.83641 0.0
C168 C 0.77856 0.6144 0.85274 0.0
C169 C 0.82476 0.52787 0.80757 0.0
O170 O 0.83834 0.53125 0.774 0.0
H171 H 0.73872 0.57875 0.77759 0.0
H172 H 0.81895 0.60488 0.8483 0.0
O173 O 0.76587 0.54187 0.73281 0.0
H174 H 0.90694 0.65887 0.75033 0.0
H175 H 0.78334 0.62698 0.8798 0.0
Cu176 Cu 0.24915 0.79802 0.27345 0.0
N177 N 0.22218 0.7979 0.23467 0.0
N178 N 0.18373 0.77603 0.19001 0.0
C179 C 0.19367 0.77224 0.22479 0.0
C180 C 0.20669 0.80521 0.17749 0.0
C181 C 0.23034 0.81876 0.20523 0.0
O182 O 0.22737 0.7533 0.29282 0.0
C183 C 0.30922 0.84423 0.24313 0.0
O184 O 0.29975 0.8638 0.25666 0.0
H185 H 0.18199 0.75 0.24107 0.0
H186 H 0.25304 0.84106 0.20265 0.0
N187 N 0.25273 0.82611 0.31284 0.0
N188 N 0.2723 0.85919 0.36326 0.0
C189 C 0.27681 0.83999 0.33866 0.0
C190 C 0.23221 0.83677 0.32134 0.0
C191 C 0.24426 0.85726 0.35238 0.0
C192 C 0.22179 0.74567 0.32817 0.0
O193 O 0.23572 0.7683 0.35423 0.0
H194 H 0.29751 0.83648 0.33884 0.0
H195 H 0.2101 0.83013 0.30597 0.0
O196 O 0.29152 0.81387 0.24907 0.0
H197 H 0.20719 0.81515 0.14946 0.0
H198 H 0.23309 0.86957 0.36601 0.0
Cu199 Cu 0.48073 0.24856 0.77224 0.0
N200 N 0.451 0.2576 0.74922 0.0
N201 N 0.43123 0.28608 0.72096 0.0
C202 C 0.45769 0.28659 0.73546 0.0
C203 C 0.40695 0.25543 0.72585 0.0
C204 C 0.41923 0.23793 0.74341 0.0
O205 O 0.50947 0.28873 0.80006 0.0
C206 C 0.51831 0.22403 0.73433 0.0
O207 O 0.5279 0.22128 0.76869 0.0
H208 H 0.4817 0.30748 0.7356 0.0
H209 H 0.40596 0.21273 0.75149 0.0
N210 N 0.45802 0.21301 0.80487 0.0
N211 N 0.43992 0.16494 0.8329 0.0
C212 C 0.45778 0.18467 0.80424 0.0
C213 C 0.4386 0.21051 0.83416 0.0
C214 C 0.42784 0.1811 0.85192 0.0
C215 C 0.51093 0.29253 0.83638 0.0
O216 O 0.4979 0.26704 0.85868 0.0
H217 H 0.47095 0.17874 0.78381 0.0
H218 H 0.43327 0.22916 0.84254 0.0
O219 O 0.50069 0.23697 0.73049 0.0
H220 H 0.38203 0.24631 0.71768 0.0
H221 H 0.41261 0.1724 0.87704 0.0
H222 H 0.04898 0.46556 0.12774 0.0
H223 H 0.11999 0.55388 0.07205 0.0
H224 H 0.16284 0.55478 0.11213 0.0
H225 H 0.08522 0.48469 0.22324 0.0
H226 H 0.07631 0.44397 0.23274 0.0
H227 H 0.05057 0.45112 0.20134 0.0
H228 H 0.05897 0.41868 0.14761 0.0
H229 H 0.0846 0.41133 0.17891 0.0
H230 H 0.09941 0.42999 0.13291 0.0
H231 H 0.19878 0.54583 0.15767 0.0
H232 H 0.22496 0.52528 0.20197 0.0
H233 H 0.13137 0.44207 0.2267 0.0
C234 C 0.07349 0.48521 0.12425 0.0
C235 C 0.08097 0.50968 0.09668 0.0
C236 C 0.11352 0.53474 0.09276 0.0
C237 C 0.13812 0.5356 0.11559 0.0
C238 C 0.13006 0.5111 0.14228 0.0
C239 C 0.09858 0.48623 0.14657 0.0
C240 C 0.09682 0.462 0.176 0.0
C241 C 0.076 0.46036 0.21036 0.0
C242 C 0.08421 0.42852 0.15776 0.0
C243 C 0.13215 0.47702 0.18722 0.0
C244 C 0.15089 0.50554 0.1678 0.0
C245 C 0.1843 0.52352 0.17311 0.0
C246 C 0.199 0.51174 0.19845 0.0
C247 C 0.18036 0.48208 0.21788 0.0
C248 C 0.14642 0.46485 0.21236 0.0
H249 H 0.57813 0.04627 0.65413 0.0
H250 H 0.61372 1.01246 0.56152 0.0
H251 H 0.66883 0.04209 0.58891 0.0
H252 H 0.64209 0.12424 0.65261 0.0
H253 H 0.6437 0.13121 0.70348 0.0
H254 H 0.60631 0.10235 0.68136 0.0
H255 H 0.60182 0.05788 0.72764 0.0
H256 H 0.63917 0.08676 0.75013 0.0
H257 H 0.63472 0.0497 0.73103 0.0
H258 H 0.72057 0.08007 0.62194 0.0
H259 H 0.76551 0.12448 0.65715 0.0
H260 H 0.69673 0.13577 0.72695 0.0
C261 C 0.59736 0.04402 0.64076 0.0
C262 C 0.59179 0.02628 0.6066 0.0
C263 C 0.61762 0.02525 0.58835 0.0
C264 C 0.64891 0.04206 0.60365 0.0
C265 C 0.65393 0.06015 0.63686 0.0
C266 C 0.62887 0.06125 0.65526 0.0
C267 C 0.64134 0.08567 0.6876 0.0
C268 C 0.63287 0.11245 0.68083 0.0
C269 C 0.6285 0.069 0.7264 0.0
C270 C 0.67732 0.09856 0.68402 0.0
C271 C 0.68402 0.08318 0.65497 0.0
C272 C 0.7156 0.09196 0.64513 0.0
C273 C 0.741 0.11719 0.66539 0.0
C274 C 0.73478 0.13367 0.69493 0.0
C275 C 0.7024 0.12387 0.70444 0.0
H276 H 0.57457 0.60056 0.11486 0.0
H277 H 0.48186 0.57983 0.06877 0.0
H278 H 0.48134 0.62038 0.11196 0.0
H279 H 0.56089 0.61699 0.21395 0.0
H280 H 0.6016 0.64986 0.21993 0.0
H281 H 0.59349 0.61708 0.18794 0.0
H282 H 0.62086 0.65778 0.13248 0.0
H283 H 0.62908 0.69064 0.16429 0.0
H284 H 0.60695 0.68555 0.12058 0.0
H285 H 0.49152 0.66475 0.15881 0.0
H286 H 0.51359 0.71185 0.20242 0.0
H287 H 0.60068 0.70579 0.21618 0.0
C288 C 0.55399 0.60427 0.11434 0.0
C289 C 0.52818 0.58688 0.08851 0.0
C290 C 0.50197 0.59291 0.08818 0.0
C291 C 0.50135 0.61581 0.11278 0.0
C292 C 0.52729 0.63289 0.13751 0.0
C293 C 0.55325 0.6276 0.13835 0.0
C294 C 0.57903 0.6509 0.16576 0.0
C295 C 0.58404 0.63261 0.19886 0.0
C296 C 0.61086 0.67249 0.1445 0.0
C297 C 0.56367 0.67025 0.17977 0.0
C298 C 0.53361 0.65917 0.16357 0.0
C299 C 0.51502 0.67357 0.17176 0.0
C300 C 0.5277 0.70028 0.19667 0.0
C301 C 0.55886 0.71265 0.21278 0.0
C302 C 0.57677 0.69702 0.2044 0.0
H303 H 0.96124 0.54682 0.57133 0.0
H304 H 0.05331 0.60544 0.62801 0.0
H305 H 0.02827 0.62899 0.66946 0.0
H306 H 0.93216 0.60458 0.57492 0.0
H307 H 0.89123 0.57358 0.58466 0.0
H308 H 0.91731 0.56421 0.55703 0.0
H309 H 0.90666 0.51815 0.60442 0.0
H310 H 0.88069 0.52743 0.63228 0.0
H311 H 0.91452 0.52712 0.6547 0.0
H312 H 0.99216 0.6437 0.70686 0.0
H313 H 0.94796 0.64674 0.7392 0.0
H314 H 0.87932 0.57718 0.65873 0.0
C315 C 0.9764 0.56519 0.59182 0.0
C316 C 1.00938 0.57472 0.59608 0.0
C317 C 0.02808 0.59804 0.62408 0.0
C318 C 1.01407 0.61154 0.64765 0.0
C319 C 0.98132 0.60123 0.64301 0.0
C320 C 0.96273 0.57848 0.61585 0.0
C321 C 0.9276 0.56949 0.61855 0.0
C322 C 0.91643 0.57852 0.58159 0.0
C323 C 0.90612 0.53342 0.62806 0.0
C324 C 0.9292 0.59062 0.65167 0.0
C325 C 0.96042 0.60898 0.66515 0.0
C326 C 0.96769 0.62966 0.69629 0.0
C327 C 0.94237 0.63136 0.71435 0.0
C328 C 0.91006 0.61233 0.70144 0.0
C329 C 0.90365 0.59195 0.66941 0.0
H330 H 0.45427 0.98455 0.12331 0.0
H331 H 0.45438 0.9089 0.05472 0.0
H332 H 0.41368 0.86769 0.09737 0.0
H333 H 0.44186 0.94457 0.21649 0.0
H334 H 0.41507 0.95816 0.23359 0.0
H335 H 0.44614 0.98214 0.19944 0.0
H336 H 0.4031 0.98124 0.15348 0.0
H337 H 0.37198 0.95743 0.18756 0.0
H338 H 0.36928 0.94301 0.13927 0.0
H339 H 0.37149 0.83408 0.14642 0.0
H340 H 0.32832 0.81104 0.19529 0.0
H341 H 0.35398 0.90794 0.23101 0.0
C342 C 0.44597 0.95934 0.11756 0.0
C343 C 0.45768 0.95007 0.08563 0.0
C344 C 0.44576 0.91672 0.07884 0.0
C345 C 0.42272 0.89304 0.10307 0.0
C346 C 0.41147 0.90287 0.13407 0.0
C347 C 0.42249 0.93521 0.14127 0.0
C348 C 0.40485 0.93906 0.17517 0.0
C349 C 0.42839 0.95705 0.20813 0.0
C350 C 0.38619 0.95619 0.16314 0.0
C351 C 0.38205 0.90394 0.18549 0.0
C352 C 0.38656 0.88345 0.16177 0.0
C353 C 0.36783 0.84992 0.16529 0.0
C354 C 0.34341 0.83701 0.19325 0.0
C355 C 0.33767 0.85755 0.21712 0.0
C356 C 0.35772 0.89147 0.21337 0.0
H357 H 0.50077 0.46832 0.65802 0.0
H358 H 0.4272 0.43265 0.56999 0.0
H359 H 0.40128 0.37827 0.59941 0.0
H360 H 0.51181 0.40268 0.65602 0.0
H361 H 0.51948 0.40205 0.70647 0.0
H362 H 0.52806 0.43928 0.68376 0.0
H363 H 0.49135 0.44645 0.73262 0.0
H364 H 0.4828 0.40921 0.75559 0.0
H365 H 0.45015 0.41461 0.73865 0.0
H366 H 0.38771 0.32681 0.63307 0.0
H367 H 0.3879 0.28181 0.66746 0.0
H368 H 0.47168 0.35047 0.73245 0.0
C369 C 0.47833 0.44932 0.64619 0.0
C370 C 0.46511 0.45463 0.61271 0.0
C371 C 0.43692 0.429 0.59636 0.0
C372 C 0.42217 0.39812 0.61281 0.0
C373 C 0.43627 0.39328 0.64527 0.0
C374 C 0.46372 0.4182 0.66187 0.0
C375 C 0.47653 0.40575 0.69336 0.0
C376 C 0.51099 0.41285 0.68434 0.0
C377 C 0.4751 0.41984 0.73237 0.0
C378 C 0.45248 0.36992 0.69126 0.0
C379 C 0.42919 0.36329 0.66377 0.0
C380 C 0.4055 0.33175 0.65513 0.0
C381 C 0.40576 0.30631 0.67491 0.0
C382 C 0.42975 0.31246 0.70276 0.0
C383 C 0.4531 0.34483 0.71123 0.0
H384 H 0.56731 0.99018 0.4166 0.0
H385 H 0.48683 0.91741 0.48223 0.0
H386 H 0.48595 0.87468 0.4418 0.0
H387 H 0.54264 0.94978 0.32319 0.0
H388 H 0.58333 0.96149 0.30924 0.0
H389 H 0.57602 0.98673 0.34125 0.0
H390 H 0.61479 0.98406 0.39116 0.0
H391 H 0.62227 0.95894 0.35927 0.0
H392 H 0.60794 0.94524 0.40714 0.0
H393 H 0.49495 0.83917 0.39538 0.0
H394 H 0.51567 0.8142 0.34963 0.0
H395 H 0.59125 0.90964 0.31566 0.0
C396 C 0.54927 0.96529 0.4221 0.0
C397 C 0.52709 0.95723 0.45259 0.0
C398 C 0.50419 0.92426 0.45919 0.0
C399 C 0.50335 0.89975 0.43622 0.0
C400 C 0.52573 0.90839 0.4067 0.0
C401 C 0.54839 0.94036 0.3997 0.0
C402 C 0.57103 0.9429 0.36775 0.0
C403 C 0.56807 0.96132 0.33332 0.0
C404 C 0.60608 0.95871 0.38221 0.0
C405 C 0.55781 0.90746 0.3583 0.0
C406 C 0.5314 0.88792 0.38069 0.0
C407 C 0.51557 0.85429 0.37757 0.0
C408 C 0.52742 0.84027 0.3514 0.0
C409 C 0.55507 0.85983 0.32896 0.0
C410 C 0.57003 0.89389 0.33228 0.0
H411 H 0.61656 0.58821 0.97085 0.0
H412 H 0.55734 0.5777 0.87177 0.0
H413 H 0.60474 0.59429 0.82975 0.0
H414 H 0.69424 0.65699 0.93398 0.0
H415 H 0.71707 0.64045 0.95575 0.0
H416 H 0.68032 0.6342 0.97781 0.0
H417 H 0.65799 0.57239 0.97673 0.0
H418 H 0.69433 0.57833 0.95428 0.0
H419 H 0.65582 0.55276 0.93187 0.0
H420 H 0.65643 0.60259 0.79826 0.0
H421 H 0.70784 0.60514 0.78092 0.0
H422 H 0.73173 0.6093 0.9014 0.0
C423 C 0.61375 0.59048 0.94043 0.0
C424 C 0.58331 0.58184 0.9246 0.0
C425 C 0.58055 0.58466 0.88459 0.0
C426 C 0.60734 0.59393 0.86049 0.0
C427 C 0.63671 0.60072 0.87698 0.0
C428 C 0.6401 0.59963 0.91618 0.0
C429 C 0.67296 0.60466 0.92684 0.0
C430 C 0.69229 0.63594 0.94996 0.0
C431 C 0.67008 0.57529 0.94869 0.0
C432 C 0.68726 0.6076 0.88751 0.0
C433 C 0.66624 0.6056 0.85901 0.0
C434 C 0.67331 0.60488 0.8204 0.0
C435 C 0.70248 0.60609 0.81082 0.0
C436 C 0.72414 0.60779 0.83973 0.0
C437 C 0.71637 0.60901 0.87846 0.0
H438 H 0.10788 0.61133 0.47905 0.0
H439 H 0.04451 0.5573 0.38502 0.0
H440 H 0.08273 0.59828 0.33939 0.0
H441 H 0.13071 0.68998 0.44219 0.0
H442 H 0.1715 0.70799 0.4599 0.0
H443 H 0.13948 0.67392 0.48436 0.0
H444 H 0.17092 0.64298 0.47759 0.0
H445 H 0.20291 0.67684 0.45273 0.0
H446 H 0.18324 0.63747 0.43076 0.0
H447 H 0.12918 0.64579 0.30386 0.0
H448 H 0.17622 0.69717 0.28271 0.0
H449 H 0.20787 0.72019 0.40073 0.0
C450 C 0.10195 0.608 0.44885 0.0
C451 C 0.07314 0.58092 0.43566 0.0
C452 C 0.06632 0.57781 0.39589 0.0
C453 C 0.08801 0.60091 0.36973 0.0
C454 C 0.11636 0.62715 0.38376 0.0
C455 C 0.12311 0.63091 0.4225 0.0
C456 C 0.15453 0.66174 0.43061 0.0
C457 C 0.1487 0.68477 0.45574 0.0
C458 C 0.17937 0.6543 0.449 0.0
C459 C 0.16451 0.6749 0.3904 0.0
C460 C 0.14241 0.6545 0.36365 0.0
C461 C 0.14657 0.66187 0.32465 0.0
C462 C 0.17352 0.69108 0.31285 0.0
C463 C 0.19592 0.71283 0.33996 0.0
C464 C 0.19136 0.70417 0.37917 0.0
H465 H 0.46357 0.04945 0.97339 0.0
H466 H 0.46187 0.99413 0.87408 0.0
H467 H 0.44493 0.02561 0.83374 0.0
H468 H 0.39435 0.06072 0.94393 0.0
H469 H 0.41376 0.10106 0.96325 0.0
H470 H 0.42053 0.0707 0.98498 0.0
H471 H 0.4822 0.10803 0.97665 0.0
H472 H 0.47569 0.1383 0.95454 0.0
H473 H 0.49829 0.12298 0.92965 0.0
H474 H 0.43766 0.06934 0.80279 0.0
H475 H 0.43599 0.11866 0.78484 0.0
H476 H 0.44066 0.14399 0.9046 0.0
C477 C 0.45868 0.04323 0.94337 0.0
C478 C 0.46394 0.01923 0.92692 0.0
C479 C 0.45767 1.01216 0.88742 0.0
C480 C 0.44812 0.03 0.86425 0.0
C481 C 0.44443 0.05441 0.88116 0.0
C482 C 0.44894 0.0606 0.91999 0.0
C483 C 0.44596 0.0897 0.93075 0.0
C484 C 0.41691 0.07995 0.9573 0.0
C485 C 0.4774 0.11631 0.94895 0.0
C486 C 0.44026 0.0997 0.89173 0.0
C487 C 0.43932 0.079 0.86346 0.0
C488 C 0.43752 0.08521 0.82478 0.0
C489 C 0.43677 0.11332 0.81482 0.0
C490 C 0.43766 0.13475 0.84339 0.0
C491 C 0.43894 0.12749 0.88229 0.0
H492 H 0.44745 0.4698 0.42327 0.0
H493 H 0.46029 0.55525 0.48238 0.0
H494 H 0.41821 0.55574 0.44192 0.0
H495 H 0.43014 0.49023 0.32817 0.0
H496 H 0.39968 0.44928 0.31743 0.0
H497 H 0.4327 0.457 0.34888 0.0
H498 H 0.39213 0.42225 0.40168 0.0
H499 H 0.35905 0.41435 0.37036 0.0
H500 H 0.36176 0.43169 0.41697 0.0
H501 H 0.37348 0.54636 0.39581 0.0
H502 H 0.32693 0.52511 0.3513 0.0
H503 H 0.34124 0.44451 0.32412 0.0
C504 C 0.44163 0.48879 0.42734 0.0
C505 C 0.45731 0.51255 0.45598 0.0
C506 C 0.44858 0.5367 0.46079 0.0
C507 C 0.42479 0.53731 0.43776 0.0
C508 C 0.40956 0.51344 0.41006 0.0
C509 C 0.41744 0.48946 0.40493 0.0
C510 C 0.39586 0.46547 0.37481 0.0
C511 C 0.41579 0.46551 0.34028 0.0
C512 C 0.37603 0.43143 0.39199 0.0
C513 C 0.37449 0.4795 0.36423 0.0
C514 C 0.3831 0.50745 0.38443 0.0
C515 C 0.36657 0.5245 0.37976 0.0
C516 C 0.34021 0.51233 0.35431 0.0
C517 C 0.33031 0.48314 0.3342 0.0
C518 C 0.3481 0.46688 0.33904 0.0
H519 H 1.00169 0.42757 0.97193 0.0
H520 H 0.03413 0.49747 0.8796 0.0
H521 H 1.00417 0.45326 0.83319 0.0
H522 H 1.0012 0.35994 0.91549 0.0
H523 H 0.96556 0.33023 0.94012 0.0
H524 H 0.99426 0.36662 0.96449 0.0
H525 H 0.94842 0.37876 0.98023 0.0
H526 H 0.91971 0.34287 0.9554 0.0
H527 H 0.92467 0.38149 0.94179 0.0
H528 H 0.96219 0.40292 0.79938 0.0
H529 H 0.91676 0.34971 0.77981 0.0
H530 H 0.91353 0.31258 0.89381 0.0
C531 C 1.0035 0.43345 0.94175 0.0
C532 C 0.02041 0.4659 0.92929 0.0
C533 C 0.02179 0.47274 0.88968 0.0
C534 C 1.00466 0.44778 0.86316 0.0
C535 C 0.98689 0.41614 0.8767 0.0
C536 C 0.98687 0.40886 0.91501 0.0
C537 C 0.96387 0.37342 0.92285 0.0
C538 C 0.98233 0.35656 0.93654 0.0
C539 C 0.93763 0.3689 0.95176 0.0
C540 C 0.94985 0.36208 0.88331 0.0
C541 C 0.96347 0.38701 0.85699 0.0
C542 C 0.952 0.38305 0.81951 0.0
C543 C 0.92607 0.3529 0.80871 0.0
C544 C 0.91205 0.32706 0.83521 0.0
C545 C 0.92444 0.33171 0.87278 0.0
H546 H 0.96442 0.52043 0.92282 0.0
H547 H 0.9077 0.49989 0.02648 0.0
H548 H 0.86277 0.49808 0.98844 0.0
H549 H 0.94076 0.57176 0.87899 0.0
H550 H 0.93996 0.55702 0.83128 0.0
H551 H 0.96641 0.5554 0.8668 0.0
H552 H 0.9409 0.49381 0.85567 0.0
H553 H 0.91429 0.49524 0.82011 0.0
H554 H 0.89785 0.46807 0.86022 0.0
H555 H 0.82562 0.50321 0.93786 0.0
H556 H 0.79983 0.51196 0.88088 0.0
H557 H 0.88083 0.52579 0.81127 0.0
C558 C 0.94254 0.51547 0.93769 0.0
C559 C 0.93971 0.51062 0.97778 0.0
C560 C 0.91044 0.50373 0.99584 0.0
C561 C 0.88483 0.50268 0.97442 0.0
C562 C 0.88867 0.50798 0.93487 0.0
C563 C 0.91678 0.51384 0.91678 0.0
C564 C 0.9154 0.51893 0.87419 0.0
C565 C 0.94221 0.55279 0.86213 0.0
C566 C 0.91721 0.49243 0.8512 0.0
C567 C 0.88237 0.51577 0.87095 0.0
C568 C 0.86719 0.50951 0.90614 0.0
C569 C 0.8372 0.50763 0.91017 0.0
C570 C 0.82268 0.51261 0.87762 0.0
C571 C 0.83799 0.51914 0.84136 0.0
C572 C 0.86804 0.52023 0.83826 0.0
H573 H 0.41818 0.91522 0.5091 0.0
H574 H 0.41576 1.00402 0.52259 0.0
H575 H 0.3649 0.98074 0.48528 0.0
H576 H 0.39645 0.90503 0.41401 0.0
H577 H 0.37264 0.86159 0.41485 0.0
H578 H 0.40479 0.8823 0.44889 0.0
H579 H 0.36487 0.85463 0.50493 0.0
H580 H 0.33258 0.83343 0.47101 0.0
H581 H 0.32885 0.85773 0.5079 0.0
H582 H 0.31806 0.95017 0.44082 0.0
H583 H 0.27955 0.91545 0.39126 0.0
H584 H 0.31397 0.84732 0.40396 0.0
C585 C 0.40602 0.92907 0.50557 0.0
C586 C 0.41994 0.96087 0.51972 0.0
C587 C 0.4047 0.97924 0.51281 0.0
C588 C 0.37595 0.96624 0.4916 0.0
C589 C 0.36315 0.93503 0.47706 0.0
C590 C 0.37768 0.91665 0.48376 0.0
C591 C 0.36141 0.88549 0.46101 0.0
C592 C 0.38525 0.88351 0.43304 0.0
C593 C 0.34601 0.85608 0.48782 0.0
C594 C 0.33593 0.88952 0.43987 0.0
C595 C 0.33701 0.918 0.44998 0.0
C596 C 0.3167 0.9276 0.43307 0.0
C597 C 0.29483 0.90765 0.40498 0.0
C598 C 0.29363 0.87859 0.39368 0.0
C599 C 0.31437 0.86943 0.41174 0.0
H600 H 0.51657 0.41522 0.9974 0.0
H601 H 0.53968 0.48438 0.9054 0.0
H602 H 0.54481 0.44747 0.86058 0.0
H603 H 0.5689 0.38274 0.96489 0.0
H604 H 0.53982 0.34178 0.97766 0.0
H605 H 0.54149 0.37498 1.0041 0.0
H606 H 0.4809 0.35339 0.99004 0.0
H607 H 0.47906 0.32014 0.96372 0.0
H608 H 0.46688 0.34634 0.94116 0.0
H609 H 0.54394 0.40219 0.82424 0.0
H610 H 0.5342 0.35012 0.79822 0.0
H611 H 0.51012 0.30852 0.91225 0.0
C612 C 0.52333 0.42273 0.96801 0.0
C613 C 0.5279 0.4528 0.95497 0.0
C614 C 0.53599 0.46147 0.91605 0.0
C615 C 0.53915 0.44073 0.89034 0.0
C616 C 0.53397 0.41108 0.90371 0.0
C617 C 0.52611 0.40191 0.94155 0.0
C618 C 0.51925 0.3675 0.94741 0.0
C619 C 0.54383 0.36672 0.97516 0.0
C620 C 0.48446 0.34556 0.9614 0.0
C621 C 0.52389 0.35873 0.90693 0.0
C622 C 0.53285 0.38445 0.88235 0.0
C623 C 0.53724 0.38195 0.84329 0.0
C624 C 0.53171 0.35221 0.82874 0.0
C625 C 0.52159 0.32509 0.85306 0.0
C626 C 0.51823 0.32877 0.89284 0.0
H627 H 0.12689 0.51386 0.5032 0.0
H628 H 0.03419 0.42604 0.50882 0.0
H629 H 0.05707 0.39637 0.47536 0.0
H630 H 0.14216 0.50286 0.41009 0.0
H631 H 0.18514 0.51973 0.41509 0.0
H632 H 0.16398 0.53256 0.44659 0.0
H633 H 0.18587 0.51658 0.50558 0.0
H634 H 0.20749 0.50402 0.47423 0.0
H635 H 0.17973 0.47624 0.50906 0.0
H636 H 0.08793 0.37792 0.43487 0.0
H637 H 0.1236 0.3725 0.38809 0.0
H638 H 0.19563 0.47304 0.40565 0.0
C639 C 0.11194 0.48808 0.49879 0.0
C640 C 0.07913 0.47184 0.50948 0.0
C641 C 0.0596 0.43855 0.50152 0.0
C642 C 0.07239 0.42158 0.48256 0.0
C643 C 0.10464 0.43842 0.47127 0.0
C644 C 0.12419 0.47097 0.47905 0.0
C645 C 0.15659 0.48434 0.45932 0.0
C646 C 0.16228 0.51146 0.4311 0.0
C647 C 0.18405 0.49598 0.48882 0.0
C648 C 0.15188 0.45449 0.43846 0.0
C649 C 0.12202 0.42812 0.44633 0.0
C650 C 0.11157 0.39828 0.42891 0.0
C651 C 0.13204 0.39539 0.40243 0.0
C652 C 0.16243 0.4223 0.39317 0.0
C653 C 0.17251 0.45206 0.41195 0.0
H654 H 0.63621 0.09858 0.99407 0.0
H655 H 0.55856 0.07974 0.91546 0.0
H656 H 0.59707 0.12332 0.87298 0.0
H657 H 0.68519 0.18738 0.97853 0.0
H658 H 0.72284 0.18729 0.98026 0.0
H659 H 0.68864 0.1579 1.0073 0.0
H660 H 0.69296 0.11173 0.97409 0.0
H661 H 0.72712 0.14094 0.94706 0.0
H662 H 0.69239 0.10963 0.92254 0.0
H663 H 0.6445 0.16654 0.83668 0.0
H664 H 0.69758 0.20269 0.80712 0.0
H665 H 0.74516 0.19166 0.90716 0.0
C666 C 0.62734 0.10432 0.96841 0.0
C667 C 0.59437 0.08625 0.95828 0.0
C668 C 0.58371 0.09358 0.92383 0.0
C669 C 0.60539 0.11836 0.89959 0.0
C670 C 0.63787 0.13547 0.9099 0.0
C671 C 0.6489 0.12867 0.94337 0.0
C672 C 0.68546 0.14843 0.94567 0.0
C673 C 0.69616 0.17163 0.97999 0.0
C674 C 0.70035 0.12636 0.94743 0.0
C675 C 0.6932 0.16678 0.90803 0.0
C676 C 0.66538 0.15946 0.88818 0.0
C677 C 0.66646 0.17266 0.85214 0.0
C678 C 0.69675 0.19331 0.83559 0.0
C679 C 0.72561 0.20019 0.85478 0.0
C680 C 0.7236 0.18707 0.89178 0.0
H681 H 0.56083 0.60366 0.45536 0.0
H682 H 0.57739 0.64852 0.56728 0.0
H683 H 0.59969 0.70217 0.53626 0.0
H684 H 0.63105 0.66733 0.4068 0.0
H685 H 0.60923 0.6625 0.3629 0.0
H686 H 0.5975 0.62842 0.39415 0.0
H687 H 0.53932 0.61927 0.39698 0.0
H688 H 0.55087 0.65333 0.36585 0.0
H689 H 0.53311 0.6519 0.4118 0.0
H690 H 0.61882 0.75079 0.49214 0.0
H691 H 0.62959 0.78946 0.43941 0.0
H692 H 0.5979 0.71164 0.35703 0.0
C693 C 0.56972 0.62481 0.47346 0.0
C694 C 0.56786 0.62202 0.51378 0.0
C695 C 0.57885 0.65018 0.53636 0.0
C696 C 0.59159 0.6807 0.51897 0.0
C697 C 0.59279 0.6825 0.47905 0.0
C698 C 0.58191 0.65521 0.45665 0.0
C699 C 0.58354 0.66312 0.41446 0.0
C700 C 0.60672 0.65486 0.39334 0.0
C701 C 0.5497 0.64589 0.39622 0.0
C702 C 0.59698 0.6992 0.41646 0.0
C703 C 0.60254 0.71005 0.4539 0.0
C704 C 0.61466 0.74253 0.46275 0.0
C705 C 0.62088 0.76435 0.4326 0.0
C706 C 0.61461 0.75354 0.39412 0.0
C707 C 0.60274 0.72055 0.38616 0.0
H708 H 0.52568 0.07911 0.63016 0.0
H709 H 0.528 0.12385 0.52123 0.0
H710 H 0.52892 0.16974 0.55556 0.0
H711 H 0.4747 0.1013 0.67971 0.0
H712 H 0.49588 0.10871 0.72461 0.0
H713 H 0.4959 0.08 0.69129 0.0
H714 H 0.55823 0.11085 0.69184 0.0
H715 H 0.55872 0.14006 0.72479 0.0
H716 H 0.58002 0.1532 0.67995 0.0
H717 H 0.52522 0.20885 0.60277 0.0
H718 H 0.52107 0.23912 0.65802 0.0
H719 H 0.52521 0.17042 0.73564 0.0
C720 C 0.52642 0.09856 0.61343 0.0
C721 C 0.5265 0.09772 0.57289 0.0
C722 C 0.5279 0.12392 0.55223 0.0
C723 C 0.52839 0.15006 0.57153 0.0
C724 C 0.52802 0.14997 0.61154 0.0
C725 C 0.52746 0.12501 0.6322 0.0
C726 C 0.52738 0.1306 0.67495 0.0
C727 C 0.49664 0.10355 0.69373 0.0
C728 C 0.55792 0.13389 0.69399 0.0
C729 C 0.52752 0.16241 0.67527 0.0
C730 C 0.52764 0.17313 0.63845 0.0
C731 C 0.52565 0.2009 0.63167 0.0
C732 C 0.52328 0.21795 0.66322 0.0
C733 C 0.52342 0.20753 0.70117 0.0
C734 C 0.5259 0.17953 0.70705 0.0
H735 H 0.43837 0.48824 0.08647 0.0
H736 H 0.39042 0.46643 0.97609 0.0
H737 H 0.33736 0.44257 1.00889 0.0
H738 H 0.37881 0.41826 0.13865 0.0
H739 H 0.38351 0.44102 0.18168 0.0
H740 H 0.41701 0.45361 0.14934 0.0
H741 H 0.42248 0.51028 0.14424 0.0
H742 H 0.38902 0.49786 0.17651 0.0
H743 H 0.38801 0.51364 0.12996 0.0
H744 H 0.28953 0.42157 0.05481 0.0
H745 H 0.25179 0.40971 0.10896 0.0
H746 H 0.3323 0.44871 0.1882 0.0
C747 C 0.41668 0.4779 0.06913 0.0
C748 C 0.41836 0.47859 0.02875 0.0
C749 C 0.38955 0.46582 1.00708 0.0
C750 C 0.35938 0.4522 0.02546 0.0
C751 C 0.35864 0.45205 0.06544 0.0
C752 C 0.38664 0.46491 0.08692 0.0
C753 C 0.37976 0.46414 0.12928 0.0
C754 C 0.3904 0.44299 0.15101 0.0
C755 C 0.39576 0.49852 0.14596 0.0
C756 C 0.34343 0.44874 0.12848 0.0
C757 C 0.33156 0.44153 0.0915 0.0
C758 C 0.2986 0.42712 0.08384 0.0
C759 C 0.27734 0.42031 0.11473 0.0
C760 C 0.2892 0.42835 0.15267 0.0
C761 C 0.32265 0.44253 0.15945 0.0
H762 H 0.94033 0.4008 0.54049 0.0
H763 H 0.9426 0.48002 0.60325 0.0
H764 H 0.90057 0.4412 0.64731 0.0
H765 H 0.85297 0.34192 0.55288 0.0
H766 H 0.8599 0.30842 0.55936 0.0
H767 H 0.88675 0.3421 0.52973 0.0
H768 H 0.93545 0.34985 0.57049 0.0
H769 H 0.90879 0.31624 0.60015 0.0
H770 H 0.93497 0.35505 0.62156 0.0
H771 H 0.86075 0.39365 0.68724 0.0
H772 H 0.82973 0.342 0.72219 0.0
H773 H 0.85537 0.29386 0.63538 0.0
C774 C 0.93125 0.40976 0.56293 0.0
C775 C 0.94406 0.44326 0.56816 0.0
C776 C 0.93261 0.45435 0.59859 0.0
C777 C 0.90874 0.43249 0.62367 0.0
C778 C 0.89677 0.39952 0.61821 0.0
C779 C 0.90775 0.38819 0.58868 0.0
C780 C 0.89321 0.35185 0.59131 0.0
C781 C 0.87194 0.33509 0.55623 0.0
C782 C 0.91969 0.34273 0.59618 0.0
C783 C 0.87297 0.34463 0.6273 0.0
C784 C 0.87483 0.37233 0.642 0.0
C785 C 0.85892 0.37176 0.67577 0.0
C786 C 0.84122 0.34227 0.69539 0.0
C787 C 0.83995 0.3138 0.68155 0.0
C788 C 0.85569 0.31512 0.64668 0.0
H789 H 0.59096 0.98043 0.05991 0.0
H790 H 0.53585 0.90391 0.9783 0.0
H791 H 0.55256 0.86889 1.01151 0.0
H792 H 0.65797 0.96202 0.0733 0.0
H793 H 0.66135 0.97194 0.12349 0.0
H794 H 0.6489 0.99233 0.08994 0.0
H795 H 0.59722 0.97517 0.12992 0.0
H796 H 0.60926 0.95447 0.16331 0.0
H797 H 0.57054 0.93296 0.13993 0.0
H798 H 0.56721 0.83937 0.0602 0.0
H799 H 0.5833 0.81955 0.11709 0.0
H800 H 0.6313 0.91596 0.16467 0.0
C801 C 0.58315 0.95663 0.04832 0.0
C802 C 0.56216 0.94493 0.01643 0.0
C803 C 0.5522 0.91352 1.00243 0.0
C804 C 0.56149 0.89342 0.02119 0.0
C805 C 0.58124 0.90531 0.05345 0.0
C806 C 0.59249 0.93644 0.06643 0.0
C807 C 0.61164 0.94274 0.10314 0.0
C808 C 0.64707 0.9688 0.09709 0.0
C809 C 0.59623 0.95186 0.13599 0.0
C810 C 0.6084 0.90992 0.10964 0.0
C811 C 0.59082 0.88864 0.08063 0.0
C812 C 0.58178 0.85604 0.08248 0.0
C813 C 0.59084 0.84495 0.11482 0.0
C814 C 0.60905 0.86644 0.14456 0.0
C815 C 0.6183 0.89938 0.14161 0.0
H816 H 0.58389 0.51892 0.63167 0.0
H817 H 0.62388 0.51151 0.52329 0.0
H818 H 0.66866 0.51039 0.55806 0.0
H819 H 0.65802 0.57026 0.67902 0.0
H820 H 0.64454 0.55084 0.72489 0.0
H821 H 0.61579 0.5505 0.69126 0.0
H822 H 0.5831 0.48828 0.69502 0.0
H823 H 0.61185 0.48803 0.72819 0.0
H824 H 0.60249 0.46505 0.68446 0.0
H825 H 0.71168 0.51442 0.60573 0.0
H826 H 0.74641 0.51963 0.66121 0.0
H827 H 0.67562 0.52056 0.73786 0.0
C828 C 0.60203 0.51703 0.61513 0.0
C829 C 0.60048 0.51558 0.57462 0.0
C830 C 0.62453 0.51268 0.55426 0.0
C831 C 0.65007 0.51207 0.57382 0.0
C832 C 0.65096 0.51382 0.6138 0.0
C833 C 0.62728 0.51588 0.63416 0.0
C834 C 0.63348 0.51735 0.67691 0.0
C835 C 0.63825 0.54912 0.69401 0.0
C836 C 0.60611 0.48791 0.69734 0.0
C837 C 0.66462 0.51625 0.67759 0.0
C838 C 0.67454 0.51445 0.64095 0.0
C839 C 0.7038 0.5153 0.63451 0.0
C840 C 0.7234 0.51827 0.66619 0.0
C841 C 0.71352 0.51989 0.70396 0.0
C842 C 0.68353 0.51852 0.70948 0.0
H843 H 0.11067 0.64624 0.0245 0.0
H844 H 0.02419 0.59691 0.094 0.0
H845 H 0.04575 0.64332 0.13785 0.0
H846 H 0.16446 0.67743 0.09939 0.0
H847 H 0.19155 0.71579 0.07761 0.0
H848 H 0.16753 0.68114 0.048 0.0
H849 H 0.14358 0.71223 1.01282 0.0
H850 H 0.16777 0.74716 0.0422 0.0
H851 H 0.12462 0.73023 0.04013 0.0
H852 H 0.07966 0.69022 0.17965 0.0
H853 H 0.123 0.737 0.21434 0.0
H854 H 0.18681 0.75773 0.11754 0.0
C855 C 0.09586 0.64569 0.04822 0.0
C856 C 0.06569 0.61796 0.0557 0.0
C857 C 0.04736 0.61786 0.08762 0.0
C858 C 0.05935 0.64418 0.1127 0.0
C859 C 0.08962 0.67065 0.10537 0.0
C860 C 0.10751 0.67189 0.07366 0.0
C861 C 0.14049 0.70213 0.07428 0.0
C862 C 0.16759 0.6936 0.07487 0.0
C863 C 0.14433 0.72425 0.04034 0.0
C864 C 0.13867 0.71699 0.1119 0.0
C865 C 0.10902 0.69848 0.12925 0.0
C866 C 0.10266 0.70541 0.16593 0.0
C867 C 0.12732 0.73185 0.18547 0.0
C868 C 0.15776 0.75116 0.16819 0.0
C869 C 0.16332 0.74389 0.13074 0.0
loop_
_geom_bond_atom_site_label_1
_geom_bond_atom_site_label_2
_geom_bond_distance
_geom_bond_site_symmetry_2
_ccdc_geom_bond_type
C0 O2 1.247 . S
C0 O4 1.258 . S
C1 O8 1.247 1_655 S
C1 O9 1.258 . S
O2 C0 1.247 . S
O2 Zn3 2.028 1_455 S
Zn3 O2 2.028 1_655 S
Zn3 O7 2.035 1_554 S
Zn3 O9 2.035 1_554 S
Zn3 O10 2.028 1_655 S
O4 C0 1.258 . S
O4 Zn5 2.035 1_554 S
Zn5 O4 2.035 1_556 S
Zn5 O6 2.028 . S
Zn5 O8 2.028 . S
Zn5 O11 2.035 1_556 S
O6 Zn5 2.028 . S
O6 C12 1.247 1_455 S
O7 Zn3 2.035 1_556 S
O7 C12 1.258 . S
O8 C1 1.247 1_455 S
O8 Zn5 2.028 . S
O9 C1 1.258 . S
O9 Zn3 2.035 1_556 S
O10 Zn3 2.028 1_455 S
O10 C13 1.247 . S
O11 Zn5 2.035 1_554 S
O11 C13 1.258 . S
C12 O6 1.247 1_655 S
C12 O7 1.258 . S
C13 O10 1.247 . S
C13 O11 1.258 . S
C14 O16 1.247 . S
C14 O18 1.258 . S
C15 O22 1.247 1_565 S
C15 O23 1.258 . S
O16 C14 1.247 . S
O16 Zn17 2.028 1_545 S
Zn17 O16 2.028 1_565 S
Zn17 O21 2.035 . S
Zn17 O23 2.035 . S
Zn17 O24 2.028 1_565 S
O18 C14 1.258 . S
O18 Zn19 2.035 . S
Zn19 O18 2.035 . S
Zn19 O20 2.028 . S
Zn19 O22 2.028 . S
Zn19 O25 2.035 . S
O20 Zn19 2.028 . S
O20 C26 1.247 1_545 S
O21 Zn17 2.035 . S
O21 C26 1.258 . S
O22 C15 1.247 1_545 S
O22 Zn19 2.028 . S
O23 C15 1.258 . S
O23 Zn17 2.035 . S
O24 Zn17 2.028 1_545 S
O24 C27 1.247 . S
O25 Zn19 2.035 . S
O25 C27 1.258 . S
C26 O20 1.247 1_565 S
C26 O21 1.258 . S
C27 O24 1.247 . S
C27 O25 1.258 . S
C28 O30 1.247 . S
C28 O32 1.258 . S
C29 O36 1.247 . S
C29 O37 1.258 . S
O30 C28 1.247 . S
O30 Zn31 2.028 . S
Zn31 O30 2.028 . S
Zn31 O35 2.035 1_556 S
Zn31 O37 2.035 1_556 S
Zn31 O38 2.028 . S
O32 C28 1.258 . S
O32 Zn33 2.035 1_556 S
Zn33 O32 2.035 1_554 S
Zn33 O34 2.028 . S
Zn33 O36 2.028 . S
Zn33 O39 2.035 1_554 S
O34 Zn33 2.028 . S
O34 C40 1.247 . S
O35 Zn31 2.035 1_554 S
O35 C40 1.258 . S
O36 C29 1.247 . S
O36 Zn33 2.028 . S
O37 C29 1.258 . S
O37 Zn31 2.035 1_554 S
O38 Zn31 2.028 . S
O38 C41 1.247 . S
O39 Zn33 2.035 1_556 S
O39 C41 1.258 . S
C40 O34 1.247 . S
C40 O35 1.258 . S
C41 O38 1.247 . S
C41 O39 1.258 . S
C42 O44 1.247 . S
C42 O46 1.258 . S
C43 O50 1.247 . S
C43 O51 1.258 . S
O44 C42 1.247 . S
O44 Zn45 2.028 . S
Zn45 O44 2.028 . S
Zn45 O49 2.035 1_455 S
Zn45 O51 2.035 1_455 S
Zn45 O52 2.028 . S
O46 C42 1.258 . S
O46 Zn47 2.035 1_455 S
Zn47 O46 2.035 1_655 S
Zn47 O48 2.028 . S
Zn47 O50 2.028 . S
Zn47 O53 2.035 1_655 S
O48 Zn47 2.028 . S
O48 C54 1.247 . S
O49 Zn45 2.035 1_655 S
O49 C54 1.258 . S
O50 C43 1.247 . S
O50 Zn47 2.028 . S
O51 C43 1.258 . S
O51 Zn45 2.035 1_655 S
O52 Zn45 2.028 . S
O52 C55 1.247 . S
O53 Zn47 2.035 1_455 S
O53 C55 1.258 . S
C54 O48 1.247 . S
C54 O49 1.258 . S
C55 O52 1.247 . S
C55 O53 1.258 . S
C56 O58 1.247 . S
C56 O60 1.258 . S
C57 O64 1.247 . S
C57 O65 1.258 . S
O58 C56 1.247 . S
O58 Zn59 2.028 1_565 S
Zn59 O58 2.028 1_545 S
Zn59 O63 2.035 1_554 S
Zn59 O65 2.035 1_554 S
Zn59 O66 2.028 1_545 S
O60 C56 1.258 . S
O60 Zn61 2.035 1_554 S
Zn61 O60 2.035 1_556 S
Zn61 O62 2.028 1_565 S
Zn61 O64 2.028 1_565 S
Zn61 O67 2.035 1_556 S
O62 Zn61 2.028 1_545 S
O62 C68 1.247 . S
O63 Zn59 2.035 1_556 S
O63 C68 1.258 . S
O64 C57 1.247 . S
O64 Zn61 2.028 1_545 S
O65 C57 1.258 . S
O65 Zn59 2.035 1_556 S
O66 Zn59 2.028 1_565 S
O66 C69 1.247 . S
O67 Zn61 2.035 1_554 S
O67 C69 1.258 . S
C68 O62 1.247 . S
C68 O63 1.258 . S
C69 O66 1.247 . S
C69 O67 1.258 . S
C70 O72 1.247 . S
C70 O74 1.258 . S
C71 O78 1.247 . S
C71 O79 1.258 . S
O72 C70 1.247 . S
O72 Zn73 2.028 . S
Zn73 O72 2.028 . S
Zn73 O77 2.035 . S
Zn73 O79 2.035 . S
Zn73 O80 2.028 . S
O74 C70 1.258 . S
O74 Zn75 2.035 . S
Zn75 O74 2.035 . S
Zn75 O76 2.028 . S
Zn75 O78 2.028 . S
Zn75 O81 2.035 . S
O76 Zn75 2.028 . S
O76 C82 1.247 . S
O77 Zn73 2.035 . S
O77 C82 1.258 . S
O78 C71 1.247 . S
O78 Zn75 2.028 . S
O79 C71 1.258 . S
O79 Zn73 2.035 . S
O80 Zn73 2.028 . S
O80 C83 1.247 . S
O81 Zn75 2.035 . S
O81 C83 1.258 . S
C82 O76 1.247 . S
C82 O77 1.258 . S
C83 O80 1.247 . S
C83 O81 1.258 . S
Cu84 N85 1.999 . S
Cu84 O90 1.974 . S
Cu84 N95 1.985 . S
Cu84 O104 1.959 . S
N85 Cu84 1.999 . S
N85 C87 1.263 . S
N85 C89 1.389 . S
N86 C87 1.358 . S
N86 C88 1.400 . S
C87 N85 1.263 . S
C87 N86 1.358 . S
C87 H93 0.930 . S
C88 N86 1.400 . S
C88 C89 1.351 . S
C88 H105 0.930 . S
C89 N85 1.389 . S
C89 C88 1.351 . S
C89 H94 0.930 . S
O90 Cu84 1.974 . S
O90 C100 1.282 . S
C91 O92 1.261 . S
C91 O104 1.251 . S
O92 C91 1.261 . S
H93 C87 0.930 . S
H94 C89 0.930 . S
N95 Cu84 1.985 . S
N95 C97 1.335 . S
N95 C98 1.390 . S
N96 C97 1.345 . S
N96 C99 1.336 . S
C97 N95 1.335 . S
C97 N96 1.345 . S
C97 H102 0.930 . S
C98 N95 1.390 . S
C98 C99 1.346 . S
C98 H103 0.930 . S
C99 N96 1.336 . S
C99 C98 1.346 . S
C99 H106 0.929 . S
C100 O90 1.282 . S
C100 O101 1.216 . S
O101 C100 1.216 . S
H102 C97 0.930 . S
H103 C98 0.930 . S
O104 Cu84 1.959 . S
O104 C91 1.251 . S
H105 C88 0.930 . S
H106 C99 0.929 . S
Cu107 N108 1.999 . S
Cu107 O113 1.974 . S
Cu107 N118 1.985 . S
Cu107 O127 1.959 . S
N108 Cu107 1.999 . S
N108 C110 1.263 . S
N108 C112 1.389 . S
N109 C110 1.358 . S
N109 C111 1.400 . S
C110 N108 1.263 . S
C110 N109 1.358 . S
C110 H116 0.930 . S
C111 N109 1.400 . S
C111 C112 1.351 . S
C111 H128 0.930 . S
C112 N108 1.389 . S
C112 C111 1.351 . S
C112 H117 0.930 . S
O113 Cu107 1.974 . S
O113 C123 1.282 . S
C114 O115 1.261 . S
C114 O127 1.251 . S
O115 C114 1.261 . S
H116 C110 0.930 . S
H117 C112 0.930 . S
N118 Cu107 1.985 . S
N118 C120 1.335 . S
N118 C121 1.390 . S
N119 C120 1.345 . S
N119 C122 1.336 . S
C120 N118 1.335 . S
C120 N119 1.345 . S
C120 H125 0.930 . S
C121 N118 1.390 . S
C121 C122 1.346 . S
C121 H126 0.930 . S
C122 N119 1.336 . S
C122 C121 1.346 . S
C122 H129 0.929 . S
C123 O113 1.282 . S
C123 O124 1.216 . S
O124 C123 1.216 . S
H125 C120 0.930 . S
H126 C121 0.930 . S
O127 Cu107 1.959 . S
O127 C114 1.251 . S
H128 C111 0.930 . S
H129 C122 0.929 . S
Cu130 N131 1.999 . S
Cu130 O136 1.974 . S
Cu130 N141 1.985 . S
Cu130 O150 1.959 . S
N131 Cu130 1.999 . S
N131 C133 1.263 . S
N131 C135 1.389 . S
N132 C133 1.358 . S
N132 C134 1.400 . S
C133 N131 1.263 . S
C133 N132 1.358 . S
C133 H139 0.930 . S
C134 N132 1.400 . S
C134 C135 1.351 . S
C134 H151 0.930 . S
C135 N131 1.389 . S
C135 C134 1.351 . S
C135 H140 0.930 . S
O136 Cu130 1.974 . S
O136 C146 1.282 . S
C137 O138 1.261 . S
C137 O150 1.251 . S
O138 C137 1.261 . S
H139 C133 0.930 . S
H140 C135 0.930 . S
N141 Cu130 1.985 . S
N141 C143 1.335 . S
N141 C144 1.390 . S
N142 C143 1.345 . S
N142 C145 1.336 . S
C143 N141 1.335 . S
C143 N142 1.345 . S
C143 H148 0.930 . S
C144 N141 1.390 . S
C144 C145 1.346 . S
C144 H149 0.930 . S
C145 N142 1.336 . S
C145 C144 1.346 . S
C145 H152 0.929 . S
C146 O136 1.282 . S
C146 O147 1.216 . S
O147 C146 1.216 . S
H148 C143 0.930 . S
H149 C144 0.930 . S
O150 Cu130 1.959 . S
O150 C137 1.251 . S
H151 C134 0.930 . S
H152 C145 0.929 . S
Cu153 N154 1.999 . S
Cu153 O159 1.974 . S
Cu153 N164 1.985 . S
Cu153 O173 1.959 . S
N154 Cu153 1.999 . S
N154 C156 1.263 . S
N154 C158 1.389 . S
N155 C156 1.358 . S
N155 C157 1.400 . S
C156 N154 1.263 . S
C156 N155 1.358 . S
C156 H162 0.930 . S
C157 N155 1.400 . S
C157 C158 1.351 . S
C157 H174 0.930 . S
C158 N154 1.389 . S
C158 C157 1.351 . S
C158 H163 0.930 . S
O159 Cu153 1.974 . S
O159 C169 1.282 . S
C160 O161 1.261 . S
C160 O173 1.251 . S
O161 C160 1.261 . S
H162 C156 0.930 . S
H163 C158 0.930 . S
N164 Cu153 1.985 . S
N164 C166 1.335 . S
N164 C167 1.390 . S
N165 C166 1.345 . S
N165 C168 1.336 . S
C166 N164 1.335 . S
C166 N165 1.345 . S
C166 H171 0.930 . S
C167 N164 1.390 . S
C167 C168 1.346 . S
C167 H172 0.930 . S
C168 N165 1.336 . S
C168 C167 1.346 . S
C168 H175 0.929 . S
C169 O159 1.282 . S
C169 O170 1.216 . S
O170 C169 1.216 . S
H171 C166 0.930 . S
H172 C167 0.930 . S
O173 Cu153 1.959 . S
O173 C160 1.251 . S
H174 C157 0.930 . S
H175 C168 0.929 . S
Cu176 N177 1.999 . S
Cu176 O182 1.974 . S
Cu176 N187 1.985 . S
Cu176 O196 1.959 . S
N177 Cu176 1.999 . S
N177 C179 1.263 . S
N177 C181 1.389 . S
N178 C179 1.358 . S
N178 C180 1.400 . S
C179 N177 1.263 . S
C179 N178 1.358 . S
C179 H185 0.930 . S
C180 N178 1.400 . S
C180 C181 1.351 . S
C180 H197 0.930 . S
C181 N177 1.389 . S
C181 C180 1.351 . S
C181 H186 0.930 . S
O182 Cu176 1.974 . S
O182 C192 1.282 . S
C183 O184 1.261 . S
C183 O196 1.251 . S
O184 C183 1.261 . S
H185 C179 0.930 . S
H186 C181 0.930 . S
N187 Cu176 1.985 . S
N187 C189 1.335 . S
N187 C190 1.390 . S
N188 C189 1.345 . S
N188 C191 1.336 . S
C189 N187 1.335 . S
C189 N188 1.345 . S
C189 H194 0.930 . S
C190 N187 1.390 . S
C190 C191 1.346 . S
C190 H195 0.930 . S
C191 N188 1.336 . S
C191 C190 1.346 . S
C191 H198 0.929 . S
C192 O182 1.282 . S
C192 O193 1.216 . S
O193 C192 1.216 . S
H194 C189 0.930 . S
H195 C190 0.930 . S
O196 Cu176 1.959 . S
O196 C183 1.251 . S
H197 C180 0.930 . S
H198 C191 0.929 . S
Cu199 N200 1.999 . S
Cu199 O205 1.974 . S
Cu199 N210 1.985 . S
Cu199 O219 1.959 . S
N200 Cu199 1.999 . S
N200 C202 1.263 . S
N200 C204 1.389 . S
N201 C202 1.358 . S
N201 C203 1.400 . S
C202 N200 1.263 . S
C202 N201 1.358 . S
C202 H208 0.930 . S
C203 N201 1.400 . S
C203 C204 1.351 . S
C203 H220 0.930 . S
C204 N200 1.389 . S
C204 C203 1.351 . S
C204 H209 0.930 . S
O205 Cu199 1.974 . S
O205 C215 1.282 . S
C206 O207 1.261 . S
C206 O219 1.251 . S
O207 C206 1.261 . S
H208 C202 0.930 . S
H209 C204 0.930 . S
N210 Cu199 1.985 . S
N210 C212 1.335 . S
N210 C213 1.390 . S
N211 C212 1.345 . S
N211 C214 1.336 . S
C212 N210 1.335 . S
C212 N211 1.345 . S
C212 H217 0.930 . S
C213 N210 1.390 . S
C213 C214 1.346 . S
C213 H218 0.930 . S
C214 N211 1.336 . S
C214 C213 1.346 . S
C214 H221 0.929 . S
C215 O205 1.282 . S
C215 O216 1.216 . S
O216 C215 1.216 . S
H217 C212 0.930 . S
H218 C213 0.930 . S
O219 Cu199 1.959 . S
O219 C206 1.251 . S
H220 C203 0.930 . S
H221 C214 0.929 . S
H222 C234 0.930 . S
H223 C236 0.930 . S
H224 C237 0.930 . S
H225 C241 0.959 . S
H226 C241 0.959 . S
H227 C241 0.961 . S
H228 C242 0.960 . S
H229 C242 0.961 . S
H230 C242 0.959 . S
H231 C245 0.929 . S
H232 C246 0.931 . S
H233 C248 0.930 . S
C234 H222 0.930 . S
C234 C235 1.399 . S
C234 C239 1.399 . S
C235 C234 1.399 . S
C235 C236 1.376 . S
C236 H223 0.930 . S
C236 C235 1.376 . S
C236 C237 1.388 . S
C237 H224 0.930 . S
C237 C236 1.388 . S
C237 C238 1.390 . S
C238 C237 1.390 . S
C238 C239 1.394 . S
C238 C244 1.465 . S
C239 C234 1.399 . S
C239 C238 1.394 . S
C239 C240 1.516 . S
C240 C239 1.516 . S
C240 C241 1.502 . S
C240 C242 1.561 . S
C240 C243 1.526 . S
C241 H225 0.959 . S
C241 H226 0.959 . S
C241 H227 0.961 . S
C241 C240 1.502 . S
C242 H228 0.960 . S
C242 H229 0.961 . S
C242 H230 0.959 . S
C242 C240 1.561 . S
C243 C240 1.526 . S
C243 C244 1.396 . S
C243 C248 1.390 . S
C244 C238 1.465 . S
C244 C243 1.396 . S
C244 C245 1.399 . S
C245 H231 0.929 . S
C245 C244 1.399 . S
C245 C246 1.385 . S
C246 H232 0.931 . S
C246 C245 1.385 . S
C246 C247 1.389 . S
C247 C246 1.389 . S
C247 C248 1.387 . S
C248 H233 0.930 . S
C248 C243 1.390 . S
C248 C247 1.387 . S
H249 C261 0.930 . S
H250 C263 0.930 . S
H251 C264 0.930 . S
H252 C268 0.959 . S
H253 C268 0.959 . S
H254 C268 0.961 . S
H255 C269 0.960 . S
H256 C269 0.961 . S
H257 C269 0.959 . S
H258 C272 0.929 . S
H259 C273 0.931 . S
H260 C275 0.930 . S
C261 H249 0.930 . S
C261 C262 1.399 . S
C261 C266 1.399 . S
C262 C261 1.399 . S
C262 C263 1.376 . S
C263 H250 0.930 . S
C263 C262 1.376 . S
C263 C264 1.388 . S
C264 H251 0.930 . S
C264 C263 1.388 . S
C264 C265 1.390 . S
C265 C264 1.390 . S
C265 C266 1.394 . S
C265 C271 1.465 . S
C266 C261 1.399 . S
C266 C265 1.394 . S
C266 C267 1.516 . S
C267 C266 1.516 . S
C267 C268 1.502 . S
C267 C269 1.561 . S
C267 C270 1.526 . S
C268 H252 0.959 . S
C268 H253 0.959 . S
C268 H254 0.961 . S
C268 C267 1.502 . S
C269 H255 0.960 . S
C269 H256 0.961 . S
C269 H257 0.959 . S
C269 C267 1.561 . S
C270 C267 1.526 . S
C270 C271 1.396 . S
C270 C275 1.390 . S
C271 C265 1.465 . S
C271 C270 1.396 . S
C271 C272 1.399 . S
C272 H258 0.929 . S
C272 C271 1.399 . S
C272 C273 1.385 . S
C273 H259 0.931 . S
C273 C272 1.385 . S
C273 C274 1.389 . S
C274 C273 1.389 . S
C274 C275 1.387 . S
C275 H260 0.930 . S
C275 C270 1.390 . S
C275 C274 1.387 . S
H276 C288 0.930 . S
H277 C290 0.930 . S
H278 C291 0.930 . S
H279 C295 0.959 . S
H280 C295 0.959 . S
H281 C295 0.961 . S
H282 C296 0.960 . S
H283 C296 0.961 . S
H284 C296 0.959 . S
H285 C299 0.929 . S
H286 C300 0.931 . S
H287 C302 0.930 . S
C288 H276 0.930 . S
C288 C289 1.399 . S
C288 C293 1.399 . S
C289 C288 1.399 . S
C289 C290 1.376 . S
C290 H277 0.930 . S
C290 C289 1.376 . S
C290 C291 1.388 . S
C291 H278 0.930 . S
C291 C290 1.388 . S
C291 C292 1.390 . S
C292 C291 1.390 . S
C292 C293 1.394 . S
C292 C298 1.465 . S
C293 C288 1.399 . S
C293 C292 1.394 . S
C293 C294 1.516 . S
C294 C293 1.516 . S
C294 C295 1.502 . S
C294 C296 1.561 . S
C294 C297 1.526 . S
C295 H279 0.959 . S
C295 H280 0.959 . S
C295 H281 0.961 . S
C295 C294 1.502 . S
C296 H282 0.960 . S
C296 H283 0.961 . S
C296 H284 0.959 . S
C296 C294 1.561 . S
C297 C294 1.526 . S
C297 C298 1.396 . S
C297 C302 1.390 . S
C298 C292 1.465 . S
C298 C297 1.396 . S
C298 C299 1.399 . S
C299 H285 0.929 . S
C299 C298 1.399 . S
C299 C300 1.385 . S
C300 H286 0.931 . S
C300 C299 1.385 . S
C300 C301 1.389 . S
C301 C300 1.389 . S
C301 C302 1.387 . S
C302 H287 0.930 . S
C302 C297 1.390 . S
C302 C301 1.387 . S
H303 C315 0.930 . S
H304 C317 0.930 . S
H305 C318 0.930 . S
H306 C322 0.959 . S
H307 C322 0.959 . S
H308 C322 0.961 . S
H309 C323 0.960 . S
H310 C323 0.961 . S
H311 C323 0.959 . S
H312 C326 0.929 . S
H313 C327 0.931 . S
H314 C329 0.930 . S
C315 H303 0.930 . S
C315 C316 1.399 . S
C315 C320 1.399 . S
C316 C315 1.399 . S
C316 C317 1.376 . S
C317 H304 0.930 . S
C317 C316 1.376 . S
C317 C318 1.388 . S
C318 H305 0.930 . S
C318 C317 1.388 . S
C318 C319 1.390 . S
C319 C318 1.390 . S
C319 C320 1.394 . S
C319 C325 1.465 . S
C320 C315 1.399 . S
C320 C319 1.394 . S
C320 C321 1.516 . S
C321 C320 1.516 . S
C321 C322 1.502 . S
C321 C323 1.561 . S
C321 C324 1.526 . S
C322 H306 0.959 . S
C322 H307 0.959 . S
C322 H308 0.961 . S
C322 C321 1.502 . S
C323 H309 0.960 . S
C323 H310 0.961 . S
C323 H311 0.959 . S
C323 C321 1.561 . S
C324 C321 1.526 . S
C324 C325 1.396 . S
C324 C329 1.390 . S
C325 C319 1.465 . S
C325 C324 1.396 . S
C325 C326 1.399 . S
C326 H312 0.929 . S
C326 C325 1.399 . S
C326 C327 1.385 . S
C327 H313 0.931 . S
C327 C326 1.385 . S
C327 C328 1.389 . S
C328 C327 1.389 . S
C328 C329 1.387 . S
C329 H314 0.930 . S
C329 C324 1.390 . S
C329 C328 1.387 . S
H330 C342 0.930 . S
H331 C344 0.930 . S
H332 C345 0.930 . S
H333 C349 0.959 . S
H334 C349 0.959 . S
H335 C349 0.961 . S
H336 C350 0.960 . S
H337 C350 0.961 . S
H338 C350 0.959 . S
H339 C353 0.929 . S
H340 C354 0.931 . S
H341 C356 0.930 . S
C342 H330 0.930 . S
C342 C343 1.399 . S
C342 C347 1.399 . S
C343 C342 1.399 . S
C343 C344 1.376 . S
C344 H331 0.930 . S
C344 C343 1.376 . S
C344 C345 1.388 . S
C345 H332 0.930 . S
C345 C344 1.388 . S
C345 C346 1.390 . S
C346 C345 1.390 . S
C346 C347 1.394 . S
C346 C352 1.465 . S
C347 C342 1.399 . S
C347 C346 1.394 . S
C347 C348 1.516 . S
C348 C347 1.516 . S
C348 C349 1.502 . S
C348 C350 1.561 . S
C348 C351 1.526 . S
C349 H333 0.959 . S
C349 H334 0.959 . S
C349 H335 0.961 . S
C349 C348 1.502 . S
C350 H336 0.960 . S
C350 H337 0.961 . S
C350 H338 0.959 . S
C350 C348 1.561 . S
C351 C348 1.526 . S
C351 C352 1.396 . S
C351 C356 1.390 . S
C352 C346 1.465 . S
C352 C351 1.396 . S
C352 C353 1.399 . S
C353 H339 0.929 . S
C353 C352 1.399 . S
C353 C354 1.385 . S
C354 H340 0.931 . S
C354 C353 1.385 . S
C354 C355 1.389 . S
C355 C354 1.389 . S
C355 C356 1.387 . S
C356 H341 0.930 . S
C356 C351 1.390 . S
C356 C355 1.387 . S
H357 C369 0.930 . S
H358 C371 0.930 . S
H359 C372 0.930 . S
H360 C376 0.959 . S
H361 C376 0.959 . S
H362 C376 0.961 . S
H363 C377 0.960 . S
H364 C377 0.961 . S
H365 C377 0.959 . S
H366 C380 0.929 . S
H367 C381 0.931 . S
H368 C383 0.930 . S
C369 H357 0.930 . S
C369 C370 1.399 . S
C369 C374 1.399 . S
C370 C369 1.399 . S
C370 C371 1.376 . S
C371 H358 0.930 . S
C371 C370 1.376 . S
C371 C372 1.388 . S
C372 H359 0.930 . S
C372 C371 1.388 . S
C372 C373 1.390 . S
C373 C372 1.390 . S
C373 C374 1.394 . S
C373 C379 1.465 . S
C374 C369 1.399 . S
C374 C373 1.394 . S
C374 C375 1.516 . S
C375 C374 1.516 . S
C375 C376 1.502 . S
C375 C377 1.561 . S
C375 C378 1.526 . S
C376 H360 0.959 . S
C376 H361 0.959 . S
C376 H362 0.961 . S
C376 C375 1.502 . S
C377 H363 0.960 . S
C377 H364 0.961 . S
C377 H365 0.959 . S
C377 C375 1.561 . S
C378 C375 1.526 . S
C378 C379 1.396 . S
C378 C383 1.390 . S
C379 C373 1.465 . S
C379 C378 1.396 . S
C379 C380 1.399 . S
C380 H366 0.929 . S
C380 C379 1.399 . S
C380 C381 1.385 . S
C381 H367 0.931 . S
C381 C380 1.385 . S
C381 C382 1.389 . S
C382 C381 1.389 . S
C382 C383 1.387 . S
C383 H368 0.930 . S
C383 C378 1.390 . S
C383 C382 1.387 . S
H384 C396 0.930 . S
H385 C398 0.930 . S
H386 C399 0.930 . S
H387 C403 0.959 . S
H388 C403 0.959 . S
H389 C403 0.961 . S
H390 C404 0.960 . S
H391 C404 0.961 . S
H392 C404 0.959 . S
H393 C407 0.929 . S
H394 C408 0.931 . S
H395 C410 0.930 . S
C396 H384 0.930 . S
C396 C397 1.399 . S
C396 C401 1.399 . S
C397 C396 1.399 . S
C397 C398 1.376 . S
C398 H385 0.930 . S
C398 C397 1.376 . S
C398 C399 1.388 . S
C399 H386 0.930 . S
C399 C398 1.388 . S
C399 C400 1.390 . S
C400 C399 1.390 . S
C400 C401 1.394 . S
C400 C406 1.465 . S
C401 C396 1.399 . S
C401 C400 1.394 . S
C401 C402 1.516 . S
C402 C401 1.516 . S
C402 C403 1.502 . S
C402 C404 1.561 . S
C402 C405 1.526 . S
C403 H387 0.959 . S
C403 H388 0.959 . S
C403 H389 0.961 . S
C403 C402 1.502 . S
C404 H390 0.960 . S
C404 H391 0.961 . S
C404 H392 0.959 . S
C404 C402 1.561 . S
C405 C402 1.526 . S
C405 C406 1.396 . S
C405 C410 1.390 . S
C406 C400 1.465 . S
C406 C405 1.396 . S
C406 C407 1.399 . S
C407 H393 0.929 . S
C407 C406 1.399 . S
C407 C408 1.385 . S
C408 H394 0.931 . S
C408 C407 1.385 . S
C408 C409 1.389 . S
C409 C408 1.389 . S
C409 C410 1.387 . S
C410 H395 0.930 . S
C410 C405 1.390 . S
C410 C409 1.387 . S
H411 C423 0.930 . S
H412 C425 0.930 . S
H413 C426 0.930 . S
H414 C430 0.959 . S
H415 C430 0.959 . S
H416 C430 0.961 . S
H417 C431 0.960 . S
H418 C431 0.961 . S
H419 C431 0.959 . S
H420 C434 0.929 . S
H421 C435 0.931 . S
H422 C437 0.930 . S
C423 H411 0.930 . S
C423 C424 1.399 . S
C423 C428 1.399 . S
C424 C423 1.399 . S
C424 C425 1.376 . S
C425 H412 0.930 . S
C425 C424 1.376 . S
C425 C426 1.388 . S
C426 H413 0.930 . S
C426 C425 1.388 . S
C426 C427 1.390 . S
C427 C426 1.390 . S
C427 C428 1.394 . S
C427 C433 1.465 . S
C428 C423 1.399 . S
C428 C427 1.394 . S
C428 C429 1.516 . S
C429 C428 1.516 . S
C429 C430 1.502 . S
C429 C431 1.561 . S
C429 C432 1.526 . S
C430 H414 0.959 . S
C430 H415 0.959 . S
C430 H416 0.961 . S
C430 C429 1.502 . S
C431 H417 0.960 . S
C431 H418 0.961 . S
C431 H419 0.959 . S
C431 C429 1.561 . S
C432 C429 1.526 . S
C432 C433 1.396 . S
C432 C437 1.390 . S
C433 C427 1.465 . S
C433 C432 1.396 . S
C433 C434 1.399 . S
C434 H420 0.929 . S
C434 C433 1.399 . S
C434 C435 1.385 . S
C435 H421 0.931 . S
C435 C434 1.385 . S
C435 C436 1.389 . S
C436 C435 1.389 . S
C436 C437 1.387 . S
C437 H422 0.930 . S
C437 C432 1.390 . S
C437 C436 1.387 . S
H438 C450 0.930 . S
H439 C452 0.930 . S
H440 C453 0.930 . S
H441 C457 0.959 . S
H442 C457 0.959 . S
H443 C457 0.961 . S
H444 C458 0.960 . S
H445 C458 0.961 . S
H446 C458 0.959 . S
H447 C461 0.929 . S
H448 C462 0.931 . S
H449 C464 0.930 . S
C450 H438 0.930 . S
C450 C451 1.399 . S
C450 C455 1.399 . S
C451 C450 1.399 . S
C451 C452 1.376 . S
C452 H439 0.930 . S
C452 C451 1.376 . S
C452 C453 1.388 . S
C453 H440 0.930 . S
C453 C452 1.388 . S
C453 C454 1.390 . S
C454 C453 1.390 . S
C454 C455 1.394 . S
C454 C460 1.465 . S
C455 C450 1.399 . S
C455 C454 1.394 . S
C455 C456 1.516 . S
C456 C455 1.516 . S
C456 C457 1.502 . S
C456 C458 1.561 . S
C456 C459 1.526 . S
C457 H441 0.959 . S
C457 H442 0.959 . S
C457 H443 0.961 . S
C457 C456 1.502 . S
C458 H444 0.960 . S
C458 H445 0.961 . S
C458 H446 0.959 . S
C458 C456 1.561 . S
C459 C456 1.526 . S
C459 C460 1.396 . S
C459 C464 1.390 . S
C460 C454 1.465 . S
C460 C459 1.396 . S
C460 C461 1.399 . S
C461 H447 0.929 . S
C461 C460 1.399 . S
C461 C462 1.385 . S
C462 H448 0.931 . S
C462 C461 1.385 . S
C462 C463 1.389 . S
C463 C462 1.389 . S
C463 C464 1.387 . S
C464 H449 0.930 . S
C464 C459 1.390 . S
C464 C463 1.387 . S
H465 C477 0.930 . S
H466 C479 0.930 . S
H467 C480 0.930 . S
H468 C484 0.959 . S
H469 C484 0.959 . S
H470 C484 0.961 . S
H471 C485 0.960 . S
H472 C485 0.961 . S
H473 C485 0.959 . S
H474 C488 0.929 . S
H475 C489 0.931 . S
H476 C491 0.930 . S
C477 H465 0.930 . S
C477 C478 1.399 . S
C477 C482 1.399 . S
C478 C477 1.399 . S
C478 C479 1.376 . S
C479 H466 0.930 . S
C479 C478 1.376 . S
C479 C480 1.388 . S
C480 H467 0.930 . S
C480 C479 1.388 . S
C480 C481 1.390 . S
C481 C480 1.390 . S
C481 C482 1.394 . S
C481 C487 1.465 . S
C482 C477 1.399 . S
C482 C481 1.394 . S
C482 C483 1.516 . S
C483 C482 1.516 . S
C483 C484 1.502 . S
C483 C485 1.561 . S
C483 C486 1.526 . S
C484 H468 0.959 . S
C484 H469 0.959 . S
C484 H470 0.961 . S
C484 C483 1.502 . S
C485 H471 0.960 . S
C485 H472 0.961 . S
C485 H473 0.959 . S
C485 C483 1.561 . S
C486 C483 1.526 . S
C486 C487 1.396 . S
C486 C491 1.390 . S
C487 C481 1.465 . S
C487 C486 1.396 . S
C487 C488 1.399 . S
C488 H474 0.929 . S
C488 C487 1.399 . S
C488 C489 1.385 . S
C489 H475 0.931 . S
C489 C488 1.385 . S
C489 C490 1.389 . S
C490 C489 1.389 . S
C490 C491 1.387 . S
C491 H476 0.930 . S
C491 C486 1.390 . S
C491 C490 1.387 . S
H492 C504 0.930 . S
H493 C506 0.930 . S
H494 C507 0.930 . S
H495 C511 0.959 . S
H496 C511 0.959 . S
H497 C511 0.961 . S
H498 C512 0.960 . S
H499 C512 0.961 . S
H500 C512 0.959 . S
H501 C515 0.929 . S
H502 C516 0.931 . S
H503 C518 0.930 . S
C504 H492 0.930 . S
C504 C505 1.399 . S
C504 C509 1.399 . S
C505 C504 1.399 . S
C505 C506 1.376 . S
C506 H493 0.930 . S
C506 C505 1.376 . S
C506 C507 1.388 . S
C507 H494 0.930 . S
C507 C506 1.388 . S
C507 C508 1.390 . S
C508 C507 1.390 . S
C508 C509 1.394 . S
C508 C514 1.465 . S
C509 C504 1.399 . S
C509 C508 1.394 . S
C509 C510 1.516 . S
C510 C509 1.516 . S
C510 C511 1.502 . S
C510 C512 1.561 . S
C510 C513 1.526 . S
C511 H495 0.959 . S
C511 H496 0.959 . S
C511 H497 0.961 . S
C511 C510 1.502 . S
C512 H498 0.960 . S
C512 H499 0.961 . S
C512 H500 0.959 . S
C512 C510 1.561 . S
C513 C510 1.526 . S
C513 C514 1.396 . S
C513 C518 1.390 . S
C514 C508 1.465 . S
C514 C513 1.396 . S
C514 C515 1.399 . S
C515 H501 0.929 . S
C515 C514 1.399 . S
C515 C516 1.385 . S
C516 H502 0.931 . S
C516 C515 1.385 . S
C516 C517 1.389 . S
C517 C516 1.389 . S
C517 C518 1.387 . S
C518 H503 0.930 . S
C518 C513 1.390 . S
C518 C517 1.387 . S
H519 C531 0.930 . S
H520 C533 0.930 . S
H521 C534 0.930 . S
H522 C538 0.959 . S
H523 C538 0.959 . S
H524 C538 0.961 . S
H525 C539 0.960 . S
H526 C539 0.961 . S
H527 C539 0.959 . S
H528 C542 0.929 . S
H529 C543 0.931 . S
H530 C545 0.930 . S
C531 H519 0.930 . S
C531 C532 1.399 . S
C531 C536 1.399 . S
C532 C531 1.399 . S
C532 C533 1.376 . S
C533 H520 0.930 . S
C533 C532 1.376 . S
C533 C534 1.388 . S
C534 H521 0.930 . S
C534 C533 1.388 . S
C534 C535 1.390 . S
C535 C534 1.390 . S
C535 C536 1.394 . S
C535 C541 1.465 . S
C536 C531 1.399 . S
C536 C535 1.394 . S
C536 C537 1.516 . S
C537 C536 1.516 . S
C537 C538 1.502 . S
C537 C539 1.561 . S
C537 C540 1.526 . S
C538 H522 0.959 . S
C538 H523 0.959 . S
C538 H524 0.961 . S
C538 C537 1.502 . S
C539 H525 0.960 . S
C539 H526 0.961 . S
C539 H527 0.959 . S
C539 C537 1.561 . S
C540 C537 1.526 . S
C540 C541 1.396 . S
C540 C545 1.390 . S
C541 C535 1.465 . S
C541 C540 1.396 . S
C541 C542 1.399 . S
C542 H528 0.929 . S
C542 C541 1.399 . S
C542 C543 1.385 . S
C543 H529 0.931 . S
C543 C542 1.385 . S
C543 C544 1.389 . S
C544 C543 1.389 . S
C544 C545 1.387 . S
C545 H530 0.930 . S
C545 C540 1.390 . S
C545 C544 1.387 . S
H546 C558 0.930 . S
H547 C560 0.930 . S
H548 C561 0.930 . S
H549 C565 0.959 . S
H550 C565 0.959 . S
H551 C565 0.961 . S
H552 C566 0.960 . S
H553 C566 0.961 . S
H554 C566 0.959 . S
H555 C569 0.929 . S
H556 C570 0.931 . S
H557 C572 0.930 . S
C558 H546 0.930 . S
C558 C559 1.399 . S
C558 C563 1.399 . S
C559 C558 1.399 . S
C559 C560 1.376 . S
C560 H547 0.930 . S
C560 C559 1.376 . S
C560 C561 1.388 . S
C561 H548 0.930 . S
C561 C560 1.388 . S
C561 C562 1.390 . S
C562 C561 1.390 . S
C562 C563 1.394 . S
C562 C568 1.465 . S
C563 C558 1.399 . S
C563 C562 1.394 . S
C563 C564 1.516 . S
C564 C563 1.516 . S
C564 C565 1.502 . S
C564 C566 1.561 . S
C564 C567 1.526 . S
C565 H549 0.959 . S
C565 H550 0.959 . S
C565 H551 0.961 . S
C565 C564 1.502 . S
C566 H552 0.960 . S
C566 H553 0.961 . S
C566 H554 0.959 . S
C566 C564 1.561 . S
C567 C564 1.526 . S
C567 C568 1.396 . S
C567 C572 1.390 . S
C568 C562 1.465 . S
C568 C567 1.396 . S
C568 C569 1.399 . S
C569 H555 0.929 . S
C569 C568 1.399 . S
C569 C570 1.385 . S
C570 H556 0.931 . S
C570 C569 1.385 . S
C570 C571 1.389 . S
C571 C570 1.389 . S
C571 C572 1.387 . S
C572 H557 0.930 . S
C572 C567 1.390 . S
C572 C571 1.387 . S
H573 C585 0.930 . S
H574 C587 0.930 1_545 S
H575 C588 0.930 . S
H576 C592 0.959 . S
H577 C592 0.959 . S
H578 C592 0.961 . S
H579 C593 0.960 . S
H580 C593 0.961 . S
H581 C593 0.959 . S
H582 C596 0.929 . S
H583 C597 0.931 . S
H584 C599 0.930 . S
C585 H573 0.930 . S
C585 C586 1.399 . S
C585 C590 1.399 . S
C586 C585 1.399 . S
C586 C587 1.376 . S
C587 H574 0.930 1_565 S
C587 C586 1.376 . S
C587 C588 1.388 . S
C588 H575 0.930 . S
C588 C587 1.388 . S
C588 C589 1.390 . S
C589 C588 1.390 . S
C589 C590 1.394 . S
C589 C595 1.465 . S
C590 C585 1.399 . S
C590 C589 1.394 . S
C590 C591 1.516 . S
C591 C590 1.516 . S
C591 C592 1.502 . S
C591 C593 1.561 . S
C591 C594 1.526 . S
C592 H576 0.959 . S
C592 H577 0.959 . S
C592 H578 0.961 . S
C592 C591 1.502 . S
C593 H579 0.960 . S
C593 H580 0.961 . S
C593 H581 0.959 . S
C593 C591 1.561 . S
C594 C591 1.526 . S
C594 C595 1.396 . S
C594 C599 1.390 . S
C595 C589 1.465 . S
C595 C594 1.396 . S
C595 C596 1.399 . S
C596 H582 0.929 . S
C596 C595 1.399 . S
C596 C597 1.385 . S
C597 H583 0.931 . S
C597 C596 1.385 . S
C597 C598 1.389 . S
C598 C597 1.389 . S
C598 C599 1.387 . S
C599 H584 0.930 . S
C599 C594 1.390 . S
C599 C598 1.387 . S
H600 C612 0.930 . S
H601 C614 0.930 . S
H602 C615 0.930 . S
H603 C619 0.959 . S
H604 C619 0.959 . S
H605 C619 0.961 . S
H606 C620 0.960 . S
H607 C620 0.961 . S
H608 C620 0.959 . S
H609 C623 0.929 . S
H610 C624 0.931 . S
H611 C626 0.930 . S
C612 H600 0.930 . S
C612 C613 1.399 . S
C612 C617 1.399 . S
C613 C612 1.399 . S
C613 C614 1.376 . S
C614 H601 0.930 . S
C614 C613 1.376 . S
C614 C615 1.388 . S
C615 H602 0.930 . S
C615 C614 1.388 . S
C615 C616 1.390 . S
C616 C615 1.390 . S
C616 C617 1.394 . S
C616 C622 1.465 . S
C617 C612 1.399 . S
C617 C616 1.394 . S
C617 C618 1.516 . S
C618 C617 1.516 . S
C618 C619 1.502 . S
C618 C620 1.561 . S
C618 C621 1.526 . S
C619 H603 0.959 . S
C619 H604 0.959 . S
C619 H605 0.961 . S
C619 C618 1.502 . S
C620 H606 0.960 . S
C620 H607 0.961 . S
C620 H608 0.959 . S
C620 C618 1.561 . S
C621 C618 1.526 . S
C621 C622 1.396 . S
C621 C626 1.390 . S
C622 C616 1.465 . S
C622 C621 1.396 . S
C622 C623 1.399 . S
C623 H609 0.929 . S
C623 C622 1.399 . S
C623 C624 1.385 . S
C624 H610 0.931 . S
C624 C623 1.385 . S
C624 C625 1.389 . S
C625 C624 1.389 . S
C625 C626 1.387 . S
C626 H611 0.930 . S
C626 C621 1.390 . S
C626 C625 1.387 . S
H627 C639 0.930 . S
H628 C641 0.930 . S
H629 C642 0.930 . S
H630 C646 0.959 . S
H631 C646 0.959 . S
H632 C646 0.961 . S
H633 C647 0.960 . S
H634 C647 0.961 . S
H635 C647 0.959 . S
H636 C650 0.929 . S
H637 C651 0.931 . S
H638 C653 0.930 . S
C639 H627 0.930 . S
C639 C640 1.399 . S
C639 C644 1.399 . S
C640 C639 1.399 . S
C640 C641 1.376 . S
C641 H628 0.930 . S
C641 C640 1.376 . S
C641 C642 1.388 . S
C642 H629 0.930 . S
C642 C641 1.388 . S
C642 C643 1.390 . S
C643 C642 1.390 . S
C643 C644 1.394 . S
C643 C649 1.465 . S
C644 C639 1.399 . S
C644 C643 1.394 . S
C644 C645 1.516 . S
C645 C644 1.516 . S
C645 C646 1.502 . S
C645 C647 1.561 . S
C645 C648 1.526 . S
C646 H630 0.959 . S
C646 H631 0.959 . S
C646 H632 0.961 . S
C646 C645 1.502 . S
C647 H633 0.960 . S
C647 H634 0.961 . S
C647 H635 0.959 . S
C647 C645 1.561 . S
C648 C645 1.526 . S
C648 C649 1.396 . S
C648 C653 1.390 . S
C649 C643 1.465 . S
C649 C648 1.396 . S
C649 C650 1.399 . S
C650 H636 0.929 . S
C650 C649 1.399 . S
C650 C651 1.385 . S
C651 H637 0.931 . S
C651 C650 1.385 . S
C651 C652 1.389 . S
C652 C651 1.389 . S
C652 C653 1.387 . S
C653 H638 0.930 . S
C653 C648 1.390 . S
C653 C652 1.387 . S
H654 C666 0.930 . S
H655 C668 0.930 . S
H656 C669 0.930 . S
H657 C673 0.959 . S
H658 C673 0.959 . S
H659 C673 0.961 . S
H660 C674 0.960 . S
H661 C674 0.961 . S
H662 C674 0.959 . S
H663 C677 0.929 . S
H664 C678 0.931 . S
H665 C680 0.930 . S
C666 H654 0.930 . S
C666 C667 1.399 . S
C666 C671 1.399 . S
C667 C666 1.399 . S
C667 C668 1.376 . S
C668 H655 0.930 . S
C668 C667 1.376 . S
C668 C669 1.388 . S
C669 H656 0.930 . S
C669 C668 1.388 . S
C669 C670 1.390 . S
C670 C669 1.390 . S
C670 C671 1.394 . S
C670 C676 1.465 . S
C671 C666 1.399 . S
C671 C670 1.394 . S
C671 C672 1.516 . S
C672 C671 1.516 . S
C672 C673 1.502 . S
C672 C674 1.561 . S
C672 C675 1.526 . S
C673 H657 0.959 . S
C673 H658 0.959 . S
C673 H659 0.961 . S
C673 C672 1.502 . S
C674 H660 0.960 . S
C674 H661 0.961 . S
C674 H662 0.959 . S
C674 C672 1.561 . S
C675 C672 1.526 . S
C675 C676 1.396 . S
C675 C680 1.390 . S
C676 C670 1.465 . S
C676 C675 1.396 . S
C676 C677 1.399 . S
C677 H663 0.929 . S
C677 C676 1.399 . S
C677 C678 1.385 . S
C678 H664 0.931 . S
C678 C677 1.385 . S
C678 C679 1.389 . S
C679 C678 1.389 . S
C679 C680 1.387 . S
C680 H665 0.930 . S
C680 C675 1.390 . S
C680 C679 1.387 . S
H681 C693 0.930 . S
H682 C695 0.930 . S
H683 C696 0.930 . S
H684 C700 0.959 . S
H685 C700 0.959 . S
H686 C700 0.961 . S
H687 C701 0.960 . S
H688 C701 0.961 . S
H689 C701 0.959 . S
H690 C704 0.929 . S
H691 C705 0.931 . S
H692 C707 0.930 . S
C693 H681 0.930 . S
C693 C694 1.399 . S
C693 C698 1.399 . S
C694 C693 1.399 . S
C694 C695 1.376 . S
C695 H682 0.930 . S
C695 C694 1.376 . S
C695 C696 1.388 . S
C696 H683 0.930 . S
C696 C695 1.388 . S
C696 C697 1.390 . S
C697 C696 1.390 . S
C697 C698 1.394 . S
C697 C703 1.465 . S
C698 C693 1.399 . S
C698 C697 1.394 . S
C698 C699 1.516 . S
C699 C698 1.516 . S
C699 C700 1.502 . S
C699 C701 1.561 . S
C699 C702 1.526 . S
C700 H684 0.959 . S
C700 H685 0.959 . S
C700 H686 0.961 . S
C700 C699 1.502 . S
C701 H687 0.960 . S
C701 H688 0.961 . S
C701 H689 0.959 . S
C701 C699 1.561 . S
C702 C699 1.526 . S
C702 C703 1.396 . S
C702 C707 1.390 . S
C703 C697 1.465 . S
C703 C702 1.396 . S
C703 C704 1.399 . S
C704 H690 0.929 . S
C704 C703 1.399 . S
C704 C705 1.385 . S
C705 H691 0.931 . S
C705 C704 1.385 . S
C705 C706 1.389 . S
C706 C705 1.389 . S
C706 C707 1.387 . S
C707 H692 0.930 . S
C707 C702 1.390 . S
C707 C706 1.387 . S
H708 C720 0.930 . S
H709 C722 0.930 . S
H710 C723 0.930 . S
H711 C727 0.959 . S
H712 C727 0.959 . S
H713 C727 0.961 . S
H714 C728 0.960 . S
H715 C728 0.961 . S
H716 C728 0.959 . S
H717 C731 0.929 . S
H718 C732 0.931 . S
H719 C734 0.930 . S
C720 H708 0.930 . S
C720 C721 1.399 . S
C720 C725 1.399 . S
C721 C720 1.399 . S
C721 C722 1.376 . S
C722 H709 0.930 . S
C722 C721 1.376 . S
C722 C723 1.388 . S
C723 H710 0.930 . S
C723 C722 1.388 . S
C723 C724 1.390 . S
C724 C723 1.390 . S
C724 C725 1.394 . S
C724 C730 1.465 . S
C725 C720 1.399 . S
C725 C724 1.394 . S
C725 C726 1.516 . S
C726 C725 1.516 . S
C726 C727 1.502 . S
C726 C728 1.561 . S
C726 C729 1.526 . S
C727 H711 0.959 . S
C727 H712 0.959 . S
C727 H713 0.961 . S
C727 C726 1.502 . S
C728 H714 0.960 . S
C728 H715 0.961 . S
C728 H716 0.959 . S
C728 C726 1.561 . S
C729 C726 1.526 . S
C729 C730 1.396 . S
C729 C734 1.390 . S
C730 C724 1.465 . S
C730 C729 1.396 . S
C730 C731 1.399 . S
C731 H717 0.929 . S
C731 C730 1.399 . S
C731 C732 1.385 . S
C732 H718 0.931 . S
C732 C731 1.385 . S
C732 C733 1.389 . S
C733 C732 1.389 . S
C733 C734 1.387 . S
C734 H719 0.930 . S
C734 C729 1.390 . S
C734 C733 1.387 . S
H735 C747 0.930 . S
H736 C749 0.930 . S
H737 C750 0.930 . S
H738 C754 0.959 . S
H739 C754 0.959 . S
H740 C754 0.961 . S
H741 C755 0.960 . S
H742 C755 0.961 . S
H743 C755 0.959 . S
H744 C758 0.929 . S
H745 C759 0.931 . S
H746 C761 0.930 . S
C747 H735 0.930 . S
C747 C748 1.399 . S
C747 C752 1.399 . S
C748 C747 1.399 . S
C748 C749 1.376 . S
C749 H736 0.930 . S
C749 C748 1.376 . S
C749 C750 1.388 . S
C750 H737 0.930 . S
C750 C749 1.388 . S
C750 C751 1.390 . S
C751 C750 1.390 . S
C751 C752 1.394 . S
C751 C757 1.465 . S
C752 C747 1.399 . S
C752 C751 1.394 . S
C752 C753 1.516 . S
C753 C752 1.516 . S
C753 C754 1.502 . S
C753 C755 1.561 . S
C753 C756 1.526 . S
C754 H738 0.959 . S
C754 H739 0.959 . S
C754 H740 0.961 . S
C754 C753 1.502 . S
C755 H741 0.960 . S
C755 H742 0.961 . S
C755 H743 0.959 . S
C755 C753 1.561 . S
C756 C753 1.526 . S
C756 C757 1.396 . S
C756 C761 1.390 . S
C757 C751 1.465 . S
C757 C756 1.396 . S
C757 C758 1.399 . S
C758 H744 0.929 . S
C758 C757 1.399 . S
C758 C759 1.385 . S
C759 H745 0.931 . S
C759 C758 1.385 . S
C759 C760 1.389 . S
C760 C759 1.389 . S
C760 C761 1.387 . S
C761 H746 0.930 . S
C761 C756 1.390 . S
C761 C760 1.387 . S
H762 C774 0.930 . S
H763 C776 0.930 . S
H764 C777 0.930 . S
H765 C781 0.959 . S
H766 C781 0.959 . S
H767 C781 0.961 . S
H768 C782 0.960 . S
H769 C782 0.961 . S
H770 C782 0.959 . S
H771 C785 0.929 . S
H772 C786 0.931 . S
H773 C788 0.930 . S
C774 H762 0.930 . S
C774 C775 1.399 . S
C774 C779 1.399 . S
C775 C774 1.399 . S
C775 C776 1.376 . S
C776 H763 0.930 . S
C776 C775 1.376 . S
C776 C777 1.388 . S
C777 H764 0.930 . S
C777 C776 1.388 . S
C777 C778 1.390 . S
C778 C777 1.390 . S
C778 C779 1.394 . S
C778 C784 1.465 . S
C779 C774 1.399 . S
C779 C778 1.394 . S
C779 C780 1.516 . S
C780 C779 1.516 . S
C780 C781 1.502 . S
C780 C782 1.561 . S
C780 C783 1.526 . S
C781 H765 0.959 . S
C781 H766 0.959 . S
C781 H767 0.961 . S
C781 C780 1.502 . S
C782 H768 0.960 . S
C782 H769 0.961 . S
C782 H770 0.959 . S
C782 C780 1.561 . S
C783 C780 1.526 . S
C783 C784 1.396 . S
C783 C788 1.390 . S
C784 C778 1.465 . S
C784 C783 1.396 . S
C784 C785 1.399 . S
C785 H771 0.929 . S
C785 C784 1.399 . S
C785 C786 1.385 . S
C786 H772 0.931 . S
C786 C785 1.385 . S
C786 C787 1.389 . S
C787 C786 1.389 . S
C787 C788 1.387 . S
C788 H773 0.930 . S
C788 C783 1.390 . S
C788 C787 1.387 . S
H789 C801 0.930 . S
H790 C803 0.930 . S
H791 C804 0.930 . S
H792 C808 0.959 . S
H793 C808 0.959 . S
H794 C808 0.961 . S
H795 C809 0.960 . S
H796 C809 0.961 . S
H797 C809 0.959 . S
H798 C812 0.929 . S
H799 C813 0.931 . S
H800 C815 0.930 . S
C801 H789 0.930 . S
C801 C802 1.399 . S
C801 C806 1.399 . S
C802 C801 1.399 . S
C802 C803 1.376 . S
C803 H790 0.930 . S
C803 C802 1.376 . S
C803 C804 1.388 . S
C804 H791 0.930 . S
C804 C803 1.388 . S
C804 C805 1.390 . S
C805 C804 1.390 . S
C805 C806 1.394 . S
C805 C811 1.465 . S
C806 C801 1.399 . S
C806 C805 1.394 . S
C806 C807 1.516 . S
C807 C806 1.516 . S
C807 C808 1.502 . S
C807 C809 1.561 . S
C807 C810 1.526 . S
C808 H792 0.959 . S
C808 H793 0.959 . S
C808 H794 0.961 . S
C808 C807 1.502 . S
C809 H795 0.960 . S
C809 H796 0.961 . S
C809 H797 0.959 . S
C809 C807 1.561 . S
C810 C807 1.526 . S
C810 C811 1.396 . S
C810 C815 1.390 . S
C811 C805 1.465 . S
C811 C810 1.396 . S
C811 C812 1.399 . S
C812 H798 0.929 . S
C812 C811 1.399 . S
C812 C813 1.385 . S
C813 H799 0.931 . S
C813 C812 1.385 . S
C813 C814 1.389 . S
C814 C813 1.389 . S
C814 C815 1.387 . S
C815 H800 0.930 . S
C815 C810 1.390 . S
C815 C814 1.387 . S
H816 C828 0.930 . S
H817 C830 0.930 . S
H818 C831 0.930 . S
H819 C835 0.959 . S
H820 C835 0.959 . S
H821 C835 0.961 . S
H822 C836 0.960 . S
H823 C836 0.961 . S
H824 C836 0.959 . S
H825 C839 0.929 . S
H826 C840 0.931 . S
H827 C842 0.930 . S
C828 H816 0.930 . S
C828 C829 1.399 . S
C828 C833 1.399 . S
C829 C828 1.399 . S
C829 C830 1.376 . S
C830 H817 0.930 . S
C830 C829 1.376 . S
C830 C831 1.388 . S
C831 H818 0.930 . S
C831 C830 1.388 . S
C831 C832 1.390 . S
C832 C831 1.390 . S
C832 C833 1.394 . S
C832 C838 1.465 . S
C833 C828 1.399 . S
C833 C832 1.394 . S
C833 C834 1.516 . S
C834 C833 1.516 . S
C834 C835 1.502 . S
C834 C836 1.561 . S
C834 C837 1.526 . S
C835 H819 0.959 . S
C835 H820 0.959 . S
C835 H821 0.961 . S
C835 C834 1.502 . S
C836 H822 0.960 . S
C836 H823 0.961 . S
C836 H824 0.959 . S
C836 C834 1.561 . S
C837 C834 1.526 . S
C837 C838 1.396 . S
C837 C842 1.390 . S
C838 C832 1.465 . S
C838 C837 1.396 . S
C838 C839 1.399 . S
C839 H825 0.929 . S
C839 C838 1.399 . S
C839 C840 1.385 . S
C840 H826 0.931 . S
C840 C839 1.385 . S
C840 C841 1.389 . S
C841 C840 1.389 . S
C841 C842 1.387 . S
C842 H827 0.930 . S
C842 C837 1.390 . S
C842 C841 1.387 . S
H843 C855 0.930 . S
H844 C857 0.930 . S
H845 C858 0.930 . S
H846 C862 0.959 . S
H847 C862 0.959 . S
H848 C862 0.961 . S
H849 C863 0.960 . S
H850 C863 0.961 . S
H851 C863 0.959 . S
H852 C866 0.929 . S
H853 C867 0.931 . S
H854 C869 0.930 . S
C855 H843 0.930 . S
C855 C856 1.399 . S
C855 C860 1.399 . S
C856 C855 1.399 . S
C856 C857 1.376 . S
C857 H844 0.930 . S
C857 C856 1.376 . S
C857 C858 1.388 . S
C858 H845 0.930 . S
C858 C857 1.388 . S
C858 C859 1.390 . S
C859 C858 1.390 . S
C859 C860 1.394 . S
C859 C865 1.465 . S
C860 C855 1.399 . S
C860 C859 1.394 . S
C860 C861 1.516 . S
C861 C860 1.516 . S
C861 C862 1.502 . S
C861 C863 1.561 . S
C861 C864 1.526 . S
C862 H846 0.959 . S
C862 H847 0.959 . S
C862 H848 0.961 . S
C862 C861 1.502 . S
C863 H849 0.960 . S
C863 H850 0.961 . S
C863 H851 0.959 . S
C863 C861 1.561 . S
C864 C861 1.526 . S
C864 C865 1.396 . S
C864 C869 1.390 . S
C865 C859 1.465 . S
C865 C864 1.396 . S
C865 C866 1.399 . S
C866 H852 0.929 . S
C866 C865 1.399 . S
C866 C867 1.385 . S
C867 H853 0.931 . S
C867 C866 1.385 . S
C867 C868 1.389 . S
C868 C867 1.389 . S
C868 C869 1.387 . S
C869 H854 0.930 . S
C869 C864 1.390 . S
C869 C868 1.387 . S
C235 C13 2.076 . S
C247 C91 2.010 . S
C262 C27 1.411 . S
C274 N109 1.401 . S
C301 C137 2.014 . S
C289 C29 2.071 . S
C328 N155 1.422 . S
C316 C54 1.405 . S
C355 C183 2.017 . S
C343 C69 2.069 . S
C382 N201 1.408 . S
C370 C83 1.406 . S
C397 C15 2.053 . S
C409 C146 2.052 . S
C424 C41 1.436 . S
C436 N165 1.366 . S
C463 C192 2.047 . S
C451 C42 2.069 . S
C490 N211 1.397 . S
C478 C57 1.412 . S
C505 C71 2.053 . S
C517 C100 2.052 . S
C544 N119 1.337 . S
C532 C1 1.442 . S
C571 C169 1.871 . S
C559 C12 1.925 . S
C586 C26 1.262 . S
C598 N188 1.283 . S
C625 C215 1.893 . S
C613 C28 1.921 . S
C640 C55 1.277 . S
C652 N96 1.270 . S
C667 C68 1.920 . S
C679 C123 1.894 . S
C694 C82 1.274 . S
C706 N142 1.217 . S
C721 C14 1.943 . S
C733 C206 1.896 . S
C760 N86 1.222 . S
C748 C40 1.262 . S
C775 C43 1.932 . S
C787 C114 1.930 . S
C802 C56 1.288 . S
C814 N132 1.120 . S
C829 C70 1.935 . S
C841 C160 1.921 . S
C856 C0 1.266 . S
C868 N178 1.225 . S
