# Generated by pormake.
# Topology apo, (3,6)-cn, num edge types: 1
# Building blocks:
#     Node 0, Type 0, BuildingBlock: OLANEW_clean_sbu_2, # of connection points: 3
#     Node 1, Type 0, BuildingBlock: OLANEW_clean_sbu_2, # of connection points: 3
#     Node 2, Type 0, BuildingBlock: OLANEW_clean_sbu_2, # of connection points: 3
#     Node 3, Type 0, BuildingBlock: OLANEW_clean_sbu_2, # of connection points: 3
#     Node 4, Type 0, BuildingBlock: OLANEW_clean_sbu_2, # of connection points: 3
#     Node 5, Type 0, BuildingBlock: OLANEW_clean_sbu_2, # of connection points: 3
#     Node 6, Type 0, BuildingBlock: OLANEW_clean_sbu_2, # of connection points: 3
#     Node 7, Type 0, BuildingBlock: OLANEW_clean_sbu_2, # of connection points: 3
#     Node 8, Type 1, BuildingBlock: KUMBUR_clean_sbu_1, # of connection points: 6
#     Node 9, Type 1, BuildingBlock: KUMBUR_clean_sbu_1, # of connection points: 6
#     Node 10, Type 1, BuildingBlock: KUMBUR_clean_sbu_1, # of connection points: 6
#     Node 11, Type 1, BuildingBlock: KUMBUR_clean_sbu_1, # of connection points: 6
#     Edge 12, Type (0, 1), BuildingBlock: MIFKUJ_clean_linker_0, # of connection points: 2
#     Edge 13, Type (0, 1), BuildingBlock: MIFKUJ_clean_linker_0, # of connection points: 2
#     Edge 14, Type (0, 1), BuildingBlock: MIFKUJ_clean_linker_0, # of connection points: 2
#     Edge 15, Type (0, 1), BuildingBlock: MIFKUJ_clean_linker_0, # of connection points: 2
#     Edge 16, Type (0, 1), BuildingBlock: MIFKUJ_clean_linker_0, # of connection points: 2
#     Edge 17, Type (0, 1), BuildingBlock: MIFKUJ_clean_linker_0, # of connection points: 2
#     Edge 18, Type (0, 1), BuildingBlock: MIFKUJ_clean_linker_0, # of connection points: 2
#     Edge 19, Type (0, 1), BuildingBlock: MIFKUJ_clean_linker_0, # of connection points: 2
#     Edge 20, Type (0, 1), BuildingBlock: MIFKUJ_clean_linker_0, # of connection points: 2
#     Edge 21, Type (0, 1), BuildingBlock: MIFKUJ_clean_linker_0, # of connection points: 2
#     Edge 22, Type (0, 1), BuildingBlock: MIFKUJ_clean_linker_0, # of connection points: 2
#     Edge 23, Type (0, 1), BuildingBlock: MIFKUJ_clean_linker_0, # of connection points: 2
#     Edge 24, Type (0, 1), BuildingBlock: MIFKUJ_clean_linker_0, # of connection points: 2
#     Edge 25, Type (0, 1), BuildingBlock: MIFKUJ_clean_linker_0, # of connection points: 2
#     Edge 26, Type (0, 1), BuildingBlock: MIFKUJ_clean_linker_0, # of connection points: 2
#     Edge 27, Type (0, 1), BuildingBlock: MIFKUJ_clean_linker_0, # of connection points: 2
#     Edge 28, Type (0, 1), BuildingBlock: MIFKUJ_clean_linker_0, # of connection points: 2
#     Edge 29, Type (0, 1), BuildingBlock: MIFKUJ_clean_linker_0, # of connection points: 2
#     Edge 30, Type (0, 1), BuildingBlock: MIFKUJ_clean_linker_0, # of connection points: 2
#     Edge 31, Type (0, 1), BuildingBlock: MIFKUJ_clean_linker_0, # of connection points: 2
#     Edge 32, Type (0, 1), BuildingBlock: MIFKUJ_clean_linker_0, # of connection points: 2
#     Edge 33, Type (0, 1), BuildingBlock: MIFKUJ_clean_linker_0, # of connection points: 2
#     Edge 34, Type (0, 1), BuildingBlock: MIFKUJ_clean_linker_0, # of connection points: 2
#     Edge 35, Type (0, 1), BuildingBlock: MIFKUJ_clean_linker_0, # of connection points: 2
# Relax obj value: 0.029
# Max RMSD: 0.212
# Mean RMSD: 0.128
data_MOF--net-apo--node1-OLANEW_clean_sbu_2--node2-KUMBUR_clean_sbu_1--edge1-MIFKUJ_clean_linker_0
_symmetry_space_group_name_H-M    P1
_symmetry_Int_Tables_number       1
_symmetry_cell_setting            triclinic
loop_
_symmetry_equiv_pos_as_xyz
'x, y, z'
_cell_length_a     36.319901
_cell_length_b     57.743042
_cell_length_c     68.999268
_cell_angle_alpha  88.77728
_cell_angle_beta   89.935452
_cell_angle_gamma 90.1886
loop_
_atom_site_label
_atom_site_type_symbol
_atom_site_fract_x
_atom_site_fract_y
_atom_site_fract_z
_atom_type_partial_charge
O0 O 0.27552 0.38222 0.3761 0.0
Cd1 Cd 0.25608 0.34754 0.39454 0.0
O2 O 0.31896 0.38006 0.39772 0.0
Cd3 Cd 0.36482 0.38848 0.41671 0.0
O4 O 0.3823 0.38554 0.44698 0.0
C5 C 0.35666 0.38754 0.45939 0.0
O6 O 0.32306 0.39174 0.45323 0.0
C7 C 0.30493 0.39054 0.38313 0.0
C8 C 0.21951 0.31362 0.37383 0.0
O9 O 0.20151 0.32828 0.38378 0.0
O10 O 0.25469 0.31534 0.37331 0.0
O11 O 0.24357 0.14881 0.94029 0.0
Cd12 Cd 0.26865 0.14716 0.90715 0.0
O13 O 0.26807 0.11492 0.94773 0.0
Cd14 Cd 0.27383 0.10581 0.91739 0.0
O15 O 0.24735 0.08759 0.89368 0.0
C16 C 0.23822 0.06665 0.89722 0.0
O17 O 0.24682 0.05724 0.91412 0.0
C18 C 0.25117 0.13304 0.95282 0.0
C19 C 0.30915 0.18529 0.89284 0.0
O20 O 0.27443 0.18352 0.88984 0.0
O21 O 0.32465 0.16944 0.90323 0.0
O22 O 0.77602 0.11708 0.62721 0.0
Cd23 Cd 0.74768 0.14913 0.60883 0.0
O24 O 0.82044 0.12192 0.60618 0.0
Cd25 Cd 0.86854 0.11387 0.58861 0.0
O26 O 0.88859 0.11422 0.55866 0.0
C27 C 0.86491 0.10866 0.546 0.0
O28 O 0.83178 0.10244 0.55181 0.0
C29 C 0.80711 0.11087 0.62069 0.0
C30 C 0.71952 0.18488 0.63092 0.0
O31 O 0.69892 0.16809 0.62563 0.0
O32 O 0.7536 0.18451 0.62609 0.0
O33 O 0.74032 0.35341 0.06794 0.0
Cd34 Cd 0.75778 0.35242 0.10238 0.0
O35 O 0.76779 0.38678 0.06172 0.0
Cd36 Cd 0.77439 0.39329 0.0925 0.0
O37 O 0.74794 0.41159 0.1161 0.0
C38 C 0.73066 0.42965 0.11056 0.0
O39 O 0.73141 0.43563 0.09207 0.0
C40 C 0.74977 0.36936 0.05589 0.0
C41 C 0.80164 0.31539 0.11537 0.0
O42 O 0.76653 0.31344 0.11429 0.0
O43 O 0.81624 0.33463 0.10972 0.0
O44 O 0.7398 0.61528 0.62657 0.0
Cd45 Cd 0.76619 0.64429 0.6043 0.0
O46 O 0.71852 0.5959 0.60186 0.0
Cd47 Cd 0.74246 0.6175 0.57905 0.0
O48 O 0.73357 0.62489 0.54856 0.0
C49 C 0.70125 0.63154 0.54427 0.0
O50 O 0.67781 0.63536 0.55837 0.0
C51 C 0.72142 0.59841 0.62002 0.0
C52 C 0.79756 0.68117 0.62363 0.0
O53 O 0.76298 0.68076 0.61997 0.0
O54 O 0.81723 0.6641 0.61817 0.0
O55 O 0.79004 0.88349 0.12319 0.0
Cd56 Cd 0.76063 0.85284 0.10448 0.0
O57 O 0.76713 0.91192 0.10524 0.0
Cd58 Cd 0.75274 0.8888 0.08171 0.0
O59 O 0.76997 0.88006 0.05233 0.0
C60 C 0.79334 0.89433 0.04524 0.0
O61 O 0.80367 0.91187 0.0558 0.0
C62 C 0.7853 0.90506 0.12 0.0
C63 C 0.71809 0.82179 0.12695 0.0
O64 O 0.75292 0.81913 0.12507 0.0
O65 O 0.70323 0.83932 0.11839 0.0
O66 O 0.21595 0.87873 0.38025 0.0
Cd67 Cd 0.24283 0.84904 0.40177 0.0
O68 O 0.2436 0.90763 0.39464 0.0
Cd69 Cd 0.25787 0.88676 0.42013 0.0
O70 O 0.24217 0.88203 0.45045 0.0
C71 C 0.20796 0.87975 0.45396 0.0
O72 O 0.18491 0.87878 0.43933 0.0
C73 C 0.22359 0.90021 0.38099 0.0
C74 C 0.2803 0.81541 0.38088 0.0
O75 O 0.24587 0.81334 0.38467 0.0
O76 O 0.29711 0.83338 0.38701 0.0
O77 O 0.29386 0.62086 0.88205 0.0
Cd78 Cd 0.26533 0.65236 0.90021 0.0
O79 O 0.26054 0.59255 0.89497 0.0
Cd80 Cd 0.24552 0.61383 0.91946 0.0
O81 O 0.2628 0.6193 0.94939 0.0
C82 C 0.29177 0.60847 0.95452 0.0
O83 O 0.3085 0.59558 0.94177 0.0
C84 C 0.28427 0.59964 0.88265 0.0
C85 C 0.22113 0.68252 0.87789 0.0
O86 O 0.25633 0.68391 0.87739 0.0
O87 O 0.20653 0.66667 0.8887 0.0
Tb88 Tb 0.06272 0.10594 0.22381 0.0
C89 C 0.90244 0.08708 0.25053 0.0
N90 N 0.92154 0.10722 0.24842 0.0
C91 C 0.87032 0.12478 0.23196 0.0
C92 C 0.86681 0.08471 0.24273 0.0
C93 C 0.90557 0.12628 0.23998 0.0
C94 C 0.85097 0.10385 0.23317 0.0
C95 C 0.89988 0.04769 0.26317 0.0
C96 C 0.91897 0.0688 0.26047 0.0
C97 C 0.86475 0.04496 0.25499 0.0
C98 C 0.84826 0.06343 0.24478 0.0
Tb99 Tb 0.97825 0.108 0.26235 0.0
N100 N 0.95307 0.07208 0.26814 0.0
C101 C 0.91619 0.03021 0.27451 0.0
C102 C 0.9682 0.05543 0.28001 0.0
C103 C 0.9504 0.03415 0.28305 0.0
H104 H 0.9197 0.14273 0.23958 0.0
H105 H 0.96268 0.02098 0.29236 0.0
H106 H 0.11428 0.06071 0.23923 0.0
H107 H 0.10323 0.1933 0.20541 0.0
H108 H 0.99328 0.05865 0.28784 0.0
H109 H 0.902 0.01397 0.27734 0.0
H110 H 0.06222 0.15887 0.20571 0.0
H111 H 0.858 0.13982 0.22499 0.0
H112 H 0.84985 0.02876 0.25675 0.0
H113 H 0.82099 0.06117 0.23874 0.0
H114 H 0.17283 0.05508 0.25639 0.0
H115 H 0.82365 0.10275 0.22696 0.0
H116 H 0.16244 0.19192 0.22319 0.0
N117 N 0.11802 0.09766 0.23854 0.0
C118 C 0.14102 0.11605 0.24074 0.0
C119 C 0.16394 0.0724 0.25238 0.0
C120 C 0.17573 0.11349 0.24966 0.0
C121 C 0.13015 0.07578 0.24303 0.0
C122 C 0.18652 0.0914 0.25607 0.0
N123 N 0.09756 0.13878 0.22388 0.0
C124 C 0.08799 0.15828 0.21353 0.0
C125 C 0.15501 0.15633 0.23304 0.0
C126 C 0.13089 0.13719 0.23266 0.0
C127 C 0.14462 0.17683 0.22332 0.0
C128 C 0.11118 0.17769 0.21328 0.0
H129 H 0.21293 0.08869 0.26304 0.0
H130 H 0.22574 0.13125 0.25807 0.0
H131 H 0.20762 0.16877 0.24343 0.0
O132 O 0.0551 0.11278 0.19408 0.0
O133 O 0.0594 0.13416 0.24477 0.0
O134 O 0.03432 0.11596 0.27127 0.0
O135 O 0.10008 0.0917 0.20394 0.0
O136 O 0.01234 0.12432 0.2155 0.0
O137 O 0.9875 0.13893 0.24379 0.0
O138 O 0.95522 0.10492 0.29045 0.0
O139 O 0.96914 0.09484 0.23293 0.0
O140 O 0.02328 0.07717 0.22411 0.0
O141 O 0.96002 0.13854 0.27557 0.0
O142 O 0.02745 0.08804 0.27066 0.0
O143 O 0.05337 0.0747 0.24214 0.0
C144 C 0.05385 0.13281 0.26356 0.0
C145 C 0.07804 0.08587 0.17217 0.0
C146 C 0.08738 0.08016 0.13758 0.0
C147 C 0.0657 0.05996 0.1389 0.0
C148 C 0.05669 0.06563 0.17332 0.0
C149 C 0.05064 0.05271 0.15671 0.0
C150 C 0.09347 0.09297 0.15437 0.0
C151 C 0.99377 0.14005 0.22495 0.0
C152 C 0.08333 0.10063 0.18896 0.0
C153 C 0.19913 0.13283 0.2511 0.0
C154 C 0.18886 0.15419 0.24273 0.0
C155 C 0.98706 0.07816 0.22432 0.0
C156 C 0.93279 0.13833 0.30794 0.0
C157 C 0.91806 0.13887 0.34245 0.0
C158 C 0.90182 0.1607 0.33975 0.0
C159 C 0.91647 0.16021 0.30556 0.0
C160 C 0.93334 0.12758 0.32649 0.0
C161 C 0.90093 0.17125 0.32138 0.0
C162 C 0.0468 0.07288 0.26093 0.0
C163 C 0.94961 0.12709 0.2911 0.0
H164 H 0.06077 0.04966 0.12622 0.0
H165 H 0.04459 0.06 0.18697 0.0
H166 H 0.03411 0.03709 0.15762 0.0
H167 H 0.10958 0.10881 0.15351 0.0
H168 H 0.89002 0.16964 0.35193 0.0
H169 H 0.91562 0.16878 0.29144 0.0
H170 H 0.94619 0.1108 0.3286 0.0
H171 H 0.88837 0.18811 0.31943 0.0
Tb172 Tb 0.47752 0.39167 0.74449 0.0
C173 C 0.64506 0.41356 0.77171 0.0
N174 N 0.62596 0.3937 0.77544 0.0
C175 C 0.68152 0.37155 0.7729 0.0
C176 C 0.68328 0.41314 0.76813 0.0
C177 C 0.64367 0.37284 0.77643 0.0
C178 C 0.70138 0.39177 0.7686 0.0
C179 C 0.64532 0.45547 0.76831 0.0
C180 C 0.62629 0.43446 0.77184 0.0
C181 C 0.68331 0.45511 0.7645 0.0
C182 C 0.70223 0.434 0.76439 0.0
Tb183 Tb 0.56433 0.39816 0.78065 0.0
N184 N 0.58929 0.43413 0.77497 0.0
C185 C 0.62553 0.4762 0.76855 0.0
C186 C 0.57007 0.45439 0.77564 0.0
C187 C 0.58777 0.47565 0.77231 0.0
H188 H 0.62858 0.3572 0.78021 0.0
H189 H 0.5722 0.4916 0.77252 0.0
H190 H 0.41944 0.43547 0.73905 0.0
H191 H 0.45546 0.2997 0.75644 0.0
H192 H 0.54095 0.45435 0.77808 0.0
H193 H 0.6391 0.4927 0.76584 0.0
H194 H 0.49196 0.33444 0.74789 0.0
H195 H 0.69537 0.35499 0.77359 0.0
H196 H 0.69833 0.47107 0.76164 0.0
H197 H 0.73157 0.43402 0.76152 0.0
H198 H 0.3528 0.44211 0.74424 0.0
H199 H 0.73072 0.39072 0.76591 0.0
H200 H 0.38967 0.30346 0.76509 0.0
N201 N 0.41697 0.40015 0.7483 0.0
C202 C 0.39534 0.38203 0.7541 0.0
C203 C 0.36448 0.42517 0.74715 0.0
C204 C 0.35732 0.38498 0.75719 0.0
C205 C 0.40211 0.4214 0.74425 0.0
C206 C 0.34209 0.40697 0.7539 0.0
N207 N 0.44752 0.35778 0.75172 0.0
C208 C 0.46323 0.33634 0.75125 0.0
C209 C 0.3891 0.34071 0.76067 0.0
C210 C 0.41101 0.36012 0.75567 0.0
C211 C 0.40552 0.3188 0.7612 0.0
C212 C 0.44263 0.31659 0.75627 0.0
H213 H 0.31295 0.40994 0.75609 0.0
H214 H 0.30639 0.36775 0.76546 0.0
H215 H 0.33425 0.32905 0.76864 0.0
O216 O 0.49887 0.39028 0.71606 0.0
O217 O 0.47563 0.37664 0.77407 0.0
O218 O 0.53447 0.36544 0.78248 0.0
O219 O 0.44062 0.3907 0.72113 0.0
O220 O 0.52581 0.37072 0.73837 0.0
O221 O 0.56858 0.36656 0.76353 0.0
O222 O 0.54669 0.40431 0.8092 0.0
O223 O 0.56679 0.41256 0.751 0.0
O224 O 0.50813 0.4242 0.74258 0.0
O225 O 0.60152 0.39264 0.8036 0.0
O226 O 0.51285 0.41601 0.78792 0.0
O227 O 0.47494 0.4234 0.76118 0.0
C228 C 0.49861 0.36352 0.78408 0.0
C229 C 0.46095 0.40858 0.6925 0.0
C230 C 0.44538 0.41775 0.65883 0.0
C231 C 0.44515 0.44144 0.66328 0.0
C232 C 0.45927 0.43215 0.69676 0.0
C233 C 0.45209 0.44854 0.68214 0.0
C234 C 0.45407 0.40139 0.67353 0.0
C235 C 0.55602 0.36192 0.74598 0.0
C236 C 0.46633 0.39132 0.70812 0.0
C237 C 0.33562 0.3658 0.76284 0.0
C238 C 0.35148 0.34374 0.76462 0.0
C239 C 0.54409 0.42563 0.74075 0.0
C240 C 0.5755 0.38103 0.83324 0.0
C241 C 0.58605 0.37157 0.86737 0.0
C242 C 0.57334 0.34894 0.86423 0.0
C243 C 0.56355 0.3583 0.83036 0.0
C244 C 0.587 0.38763 0.85175 0.0
C245 C 0.56204 0.34239 0.84582 0.0
C246 C 0.48432 0.42613 0.77952 0.0
C247 C 0.57776 0.3976 0.81686 0.0
H248 H 0.43922 0.45447 0.65221 0.0
H249 H 0.46261 0.43771 0.7115 0.0
H250 H 0.45115 0.46675 0.68551 0.0
H251 H 0.45392 0.38305 0.67044 0.0
H252 H 0.57321 0.3361 0.8759 0.0
H253 H 0.55618 0.35281 0.81607 0.0
H254 H 0.59688 0.40512 0.85395 0.0
H255 H 0.55279 0.32483 0.84346 0.0
Tb256 Tb 0.04536 0.89175 0.73204 0.0
C257 C 0.8788 0.87961 0.75635 0.0
N258 N 0.90065 0.89877 0.75519 0.0
C259 C 0.85124 0.92053 0.74082 0.0
C260 C 0.84217 0.8802 0.74963 0.0
C261 C 0.88717 0.91924 0.74794 0.0
C262 C 0.82859 0.90095 0.74166 0.0
C263 C 0.87163 0.839 0.76544 0.0
C264 C 0.89359 0.85915 0.76395 0.0
C265 C 0.83502 0.83959 0.75892 0.0
C266 C 0.82037 0.86009 0.75098 0.0
Tb267 Tb 0.95802 0.89437 0.76807 0.0
N268 N 0.92948 0.85902 0.76972 0.0
C269 C 0.88699 0.8189 0.77364 0.0
C270 C 0.9437 0.83983 0.77883 0.0
C271 C 0.92304 0.81942 0.78056 0.0
H272 H 0.9035 0.93482 0.74829 0.0
H273 H 0.93469 0.80422 0.78764 0.0
H274 H 0.10479 0.85645 0.75358 0.0
H275 H 0.05523 0.98202 0.70952 0.0
H276 H 0.97023 0.84017 0.78558 0.0
H277 H 0.87099 0.80309 0.77514 0.0
H278 H 0.02807 0.94319 0.71031 0.0
H279 H 0.84092 0.93671 0.73496 0.0
H280 H 0.81778 0.82426 0.75997 0.0
H281 H 0.79212 0.86024 0.74595 0.0
H282 H 0.16652 0.85908 0.76794 0.0
H283 H 0.80064 0.9021 0.73625 0.0
H284 H 0.11425 0.98918 0.72621 0.0
N285 N 0.10137 0.8924 0.74677 0.0
C286 C 0.11904 0.91318 0.74642 0.0
C287 C 0.15327 0.87454 0.76232 0.0
C288 C 0.15445 0.91554 0.75447 0.0
C289 C 0.11804 0.8731 0.75434 0.0
C290 C 0.17148 0.89587 0.76255 0.0
N291 N 0.06714 0.92903 0.73023 0.0
C292 C 0.05173 0.94634 0.71918 0.0
C293 C 0.11899 0.95388 0.7371 0.0
C294 C 0.10123 0.93213 0.73804 0.0
C295 C 0.10146 0.97223 0.72736 0.0
C296 C 0.06799 0.96831 0.71806 0.0
H297 H 0.19884 0.8969 0.76872 0.0
H298 H 0.19902 0.93949 0.76009 0.0
H299 H 0.16813 0.97302 0.74476 0.0
O300 O 0.0508 0.89703 0.70175 0.0
O301 O 0.05128 0.90455 0.76159 0.0
O302 O 0.99731 0.92327 0.76858 0.0
O303 O 0.08588 0.87326 0.71721 0.0
O304 O 0.9946 0.90921 0.72208 0.0
O305 O 0.96918 0.92481 0.74962 0.0
O306 O 0.96042 0.89043 0.79872 0.0
O307 O 0.9498 0.87702 0.74025 0.0
O308 O 0.00638 0.86316 0.73012 0.0
O309 O 0.91793 0.91049 0.78474 0.0
O310 O 0.0064 0.874 0.77727 0.0
O311 O 0.03578 0.86033 0.74977 0.0
C312 C 0.0333 0.92136 0.76977 0.0
C313 C 0.07819 0.86703 0.68355 0.0
C314 C 0.08578 0.86307 0.64859 0.0
C315 C 0.08706 0.83889 0.6512 0.0
C316 C 0.07954 0.84279 0.68585 0.0
C317 C 0.08403 0.82886 0.66973 0.0
C318 C 0.0815 0.87707 0.66485 0.0
C319 C 0.97356 0.92449 0.73068 0.0
C320 C 0.07762 0.8823 0.70042 0.0
C321 C 0.17178 0.93731 0.754 0.0
C322 C 0.15412 0.95642 0.74533 0.0
C323 C 0.97019 0.86345 0.72955 0.0
C324 C 0.92839 0.91831 0.81779 0.0
C325 C 0.91873 0.92199 0.85269 0.0
C326 C 0.90983 0.94548 0.84956 0.0
C327 C 0.91997 0.94189 0.8151 0.0
C328 C 0.92793 0.90849 0.83665 0.0
C329 C 0.91037 0.95526 0.8309 0.0
C330 C 0.02801 0.85909 0.76849 0.0
C331 C 0.93096 0.90284 0.80112 0.0
H332 H 0.0913 0.8278 0.63893 0.0
H333 H 0.07788 0.83462 0.70011 0.0
H334 H 0.08572 0.81024 0.67161 0.0
H335 H 0.08135 0.89576 0.66298 0.0
H336 H 0.90142 0.95618 0.86148 0.0
H337 H 0.91929 0.94979 0.80072 0.0
H338 H 0.9336 0.89018 0.83873 0.0
H339 H 0.90254 0.97317 0.82862 0.0
Tb340 Tb 0.45198 0.60613 0.23477 0.0
C341 C 0.61973 0.62007 0.25791 0.0
N342 N 0.59721 0.60147 0.26094 0.0
C343 C 0.64575 0.576 0.25145 0.0
C344 C 0.65591 0.61742 0.25097 0.0
C345 C 0.6102 0.57954 0.25863 0.0
C346 C 0.66857 0.59504 0.24737 0.0
C347 C 0.62951 0.6615 0.26046 0.0
C348 C 0.60682 0.64179 0.26259 0.0
C349 C 0.66525 0.65908 0.25298 0.0
C350 C 0.67841 0.63709 0.24822 0.0
Tb351 Tb 0.53902 0.60984 0.2713 0.0
N352 N 0.5717 0.64352 0.2692 0.0
C353 C 0.61561 0.68293 0.2661 0.0
C354 C 0.5591 0.66392 0.27615 0.0
C355 C 0.58045 0.68406 0.27431 0.0
H356 H 0.59334 0.56473 0.26255 0.0
H357 H 0.57 0.70036 0.27944 0.0
H358 H 0.38413 0.64013 0.24916 0.0
H359 H 0.46228 0.51284 0.22885 0.0
H360 H 0.53298 0.66451 0.28343 0.0
H361 H 0.63213 0.69854 0.2647 0.0
H362 H 0.48186 0.55303 0.22307 0.0
H363 H 0.65568 0.5586 0.24928 0.0
H364 H 0.68307 0.67404 0.25107 0.0
H365 H 0.70623 0.63544 0.24276 0.0
H366 H 0.32202 0.63516 0.2632 0.0
H367 H 0.69618 0.59224 0.24197 0.0
H368 H 0.40245 0.50449 0.24468 0.0
N369 N 0.39421 0.60393 0.24755 0.0
C370 C 0.38037 0.58219 0.25013 0.0
C371 C 0.33821 0.62011 0.25968 0.0
C372 C 0.345 0.57856 0.25807 0.0
C373 C 0.37355 0.62285 0.25189 0.0
C374 C 0.32392 0.59787 0.26288 0.0
N375 N 0.43663 0.5677 0.23797 0.0
C376 C 0.45719 0.54986 0.23121 0.0
C377 C 0.38913 0.54068 0.24817 0.0
C378 C 0.40232 0.56349 0.2453 0.0
C379 C 0.41152 0.52228 0.2427 0.0
C380 C 0.44544 0.52692 0.2339 0.0
H381 H 0.2966 0.59581 0.26901 0.0
H382 H 0.30496 0.5527 0.26734 0.0
H383 H 0.34355 0.51954 0.25868 0.0
O384 O 0.44823 0.59567 0.20571 0.0
O385 O 0.44826 0.59444 0.26547 0.0
O386 O 0.50487 0.57883 0.27131 0.0
O387 O 0.41135 0.62101 0.21687 0.0
O388 O 0.50634 0.59429 0.22513 0.0
O389 O 0.5321 0.57978 0.25312 0.0
O390 O 0.52425 0.61235 0.30079 0.0
O391 O 0.54245 0.63168 0.24506 0.0
O392 O 0.48593 0.6371 0.22944 0.0
O393 O 0.57821 0.60098 0.29231 0.0
O394 O 0.49081 0.63151 0.27776 0.0
O395 O 0.45291 0.63847 0.2506 0.0
C396 C 0.46942 0.57949 0.27474 0.0
C397 C 0.42812 0.62515 0.18411 0.0
C398 C 0.42087 0.63214 0.1494 0.0
C399 C 0.43654 0.65423 0.15131 0.0
C400 C 0.44349 0.64734 0.18574 0.0
C401 C 0.44801 0.66171 0.16941 0.0
C402 C 0.41708 0.61747 0.16581 0.0
C403 C 0.5311 0.58154 0.23416 0.0
C404 C 0.42229 0.61041 0.20152 0.0
C405 C 0.332 0.55584 0.26115 0.0
C406 C 0.35402 0.53696 0.25625 0.0
C407 C 0.52107 0.64196 0.23214 0.0
C408 C 0.55651 0.587 0.32218 0.0
C409 C 0.57096 0.57746 0.35577 0.0
C410 C 0.56908 0.55379 0.35157 0.0
C411 C 0.55419 0.56334 0.31814 0.0
C412 C 0.56414 0.59397 0.34105 0.0
C413 C 0.55999 0.5468 0.3329 0.0
C414 C 0.46454 0.64285 0.26829 0.0
C415 C 0.55611 0.60467 0.30668 0.0
H416 H 0.43946 0.66576 0.1388 0.0
H417 H 0.4512 0.65367 0.19973 0.0
H418 H 0.45982 0.67882 0.17086 0.0
H419 H 0.4046 0.6005 0.16442 0.0
H420 H 0.57452 0.54079 0.36274 0.0
H421 H 0.54929 0.55776 0.30351 0.0
H422 H 0.56681 0.61227 0.34404 0.0
H423 H 0.55845 0.52854 0.32973 0.0
H424 H 0.24121 0.94589 0.37535 0.0
H425 H 0.21049 0.97415 0.35417 0.0
H426 H 0.13689 0.92088 0.33432 0.0
H427 H 0.16818 0.89233 0.35509 0.0
H428 H 0.15791 0.94774 0.30496 0.0
H429 H 0.11046 0.96074 0.36894 0.0
H430 H 0.11414 0.9687 0.40387 0.0
H431 H 0.16924 0.03318 0.39122 0.0
H432 H 0.16632 0.02547 0.35622 0.0
H433 H 0.03363 0.02668 0.25921 0.0
H434 H 0.06135 0.99604 0.2795 0.0
H435 H 0.13009 0.04711 0.30687 0.0
H436 H 0.09968 0.07776 0.28787 0.0
H437 H 0.10861 0.01979 0.33282 0.0
H438 H 0.15937 0.00603 0.26892 0.0
H439 H 0.15518 0.99832 0.23395 0.0
H440 H 0.09449 0.93578 0.24635 0.0
H441 H 0.09801 0.94324 0.28138 0.0
C442 C 0.21867 0.94013 0.36637 0.0
C443 C 0.20705 0.91687 0.36696 0.0
C444 C 0.20096 0.95635 0.35437 0.0
C445 C 0.17087 0.94973 0.34297 0.0
C446 C 0.15993 0.92639 0.34307 0.0
C447 C 0.17788 0.91009 0.35494 0.0
C448 C 0.15077 0.96717 0.33098 0.0
C449 C 0.14677 0.9634 0.31107 0.0
C450 C 0.13672 0.98777 0.3389 0.0
C451 C 0.13845 0.99242 0.35996 0.0
C452 C 0.1236 0.97653 0.37362 0.0
C453 C 0.12551 0.98102 0.39343 0.0
C454 C 0.14199 0.0014 0.39976 0.0
C455 C 0.15652 0.01738 0.38629 0.0
C456 C 0.15471 0.01297 0.36647 0.0
C457 C 0.05475 0.03115 0.26957 0.0
C458 C 0.06491 0.05431 0.27205 0.0
C459 C 0.07081 0.0137 0.28105 0.0
C460 C 0.09856 0.01909 0.29448 0.0
C461 C 0.10878 0.0424 0.29669 0.0
C462 C 0.09164 0.05989 0.2858 0.0
C463 C 0.11651 0.00073 0.30661 0.0
C464 C 0.11988 0.00422 0.32662 0.0
C465 C 0.13018 0.97995 0.29876 0.0
C466 C 0.12875 0.97527 0.27773 0.0
C467 C 0.14506 0.99067 0.26417 0.0
C468 C 0.14279 0.98634 0.24435 0.0
C469 C 0.12453 0.96659 0.23793 0.0
C470 C 0.10861 0.95107 0.25133 0.0
C471 C 0.11078 0.95532 0.27117 0.0
H472 H 0.12276 0.96329 0.22258 0.0
H473 H 0.14344 0.00484 0.4151 0.0
H474 H 0.25601 0.56238 0.86391 0.0
H475 H 0.29029 0.53295 0.8464 0.0
H476 H 0.39216 0.56804 0.85974 0.0
H477 H 0.35752 0.59843 0.87559 0.0
H478 H 0.40089 0.55353 0.82742 0.0
H479 H 0.35626 0.51509 0.88449 0.0
H480 H 0.31148 0.50101 0.90896 0.0
H481 H 0.25532 0.46201 0.86563 0.0
H482 H 0.29948 0.4761 0.84085 0.0
H483 H 0.51135 0.45353 0.80827 0.0
H484 H 0.47826 0.48291 0.82639 0.0
H485 H 0.37797 0.46542 0.79664 0.0
H486 H 0.41091 0.43602 0.77873 0.0
H487 H 0.37134 0.47029 0.83797 0.0
H488 H 0.42377 0.51128 0.7815 0.0
H489 H 0.47651 0.52307 0.76096 0.0
H490 H 0.52753 0.5555 0.80955 0.0
H491 H 0.47535 0.54356 0.83045 0.0
C492 C 0.28568 0.56388 0.86279 0.0
C493 C 0.30417 0.58268 0.87093 0.0
C494 C 0.30538 0.54689 0.85303 0.0
C495 C 0.34412 0.54776 0.85211 0.0
C496 C 0.3624 0.56682 0.86012 0.0
C497 C 0.3426 0.58423 0.86919 0.0
C498 C 0.36565 0.52906 0.84272 0.0
C499 C 0.39457 0.53537 0.83006 0.0
C500 C 0.35781 0.50518 0.84595 0.0
C501 C 0.33095 0.49687 0.86077 0.0
C502 C 0.33417 0.50367 0.88015 0.0
C503 C 0.30893 0.49566 0.89408 0.0
C504 C 0.28051 0.48068 0.88884 0.0
C505 C 0.27731 0.47365 0.86966 0.0
C506 C 0.30244 0.48163 0.85567 0.0
C507 C 0.48237 0.45612 0.80536 0.0
C508 C 0.4641 0.44327 0.79113 0.0
C509 C 0.46349 0.47285 0.81581 0.0
C510 C 0.42586 0.47663 0.81255 0.0
C511 C 0.40718 0.46304 0.79912 0.0
C512 C 0.42617 0.44656 0.78854 0.0
C513 C 0.40589 0.49499 0.82285 0.0
C514 C 0.37741 0.48855 0.83559 0.0
C515 C 0.41504 0.51865 0.8203 0.0
C516 C 0.4458 0.52638 0.80756 0.0
C517 C 0.44632 0.52082 0.78782 0.0
C518 C 0.47611 0.52753 0.77611 0.0
C519 C 0.50539 0.53998 0.78395 0.0
C520 C 0.50486 0.54584 0.8035 0.0
C521 C 0.47517 0.53912 0.81527 0.0
H522 H 0.52845 0.54513 0.77488 0.0
H523 H 0.26102 0.47448 0.89965 0.0
H524 H 0.66301 0.57105 0.61147 0.0
H525 H 0.63146 0.5431 0.63282 0.0
H526 H 0.70516 0.55995 0.6794 0.0
H527 H 0.73655 0.58857 0.65822 0.0
H528 H 0.68694 0.5061 0.66175 0.0
H529 H 0.64079 0.57846 0.69138 0.0
H530 H 0.6103 0.6164 0.68749 0.0
H531 H 0.51696 0.5837 0.66129 0.0
H532 H 0.54721 0.54563 0.66475 0.0
H533 H 0.61697 0.43215 0.73293 0.0
H534 H 0.64559 0.46366 0.71519 0.0
H535 H 0.53837 0.48852 0.69745 0.0
H536 H 0.5098 0.46034 0.71954 0.0
H537 H 0.57338 0.52255 0.69893 0.0
H538 H 0.60846 0.4529 0.66767 0.0
H539 H 0.63334 0.41337 0.66501 0.0
H540 H 0.7388 0.43696 0.68477 0.0
H541 H 0.71446 0.47656 0.68774 0.0
C542 C 0.67248 0.5689 0.62628 0.0
C543 C 0.70232 0.58192 0.63321 0.0
C544 C 0.65433 0.55302 0.63843 0.0
C545 C 0.666 0.54969 0.65759 0.0
C546 C 0.69578 0.56253 0.66462 0.0
C547 C 0.71359 0.57881 0.65256 0.0
C548 C 0.64788 0.53196 0.66991 0.0
C549 C 0.66239 0.50957 0.67017 0.0
C550 C 0.61476 0.53645 0.67977 0.0
C551 C 0.5964 0.55927 0.67816 0.0
C552 C 0.61392 0.57941 0.68464 0.0
C553 C 0.59665 0.60092 0.68255 0.0
C554 C 0.56175 0.60247 0.67411 0.0
C555 C 0.544 0.58249 0.66781 0.0
C556 C 0.56117 0.56095 0.66986 0.0
C557 C 0.59929 0.44472 0.72582 0.0
C558 C 0.56081 0.44357 0.72779 0.0
C559 C 0.61588 0.46242 0.71498 0.0
C560 C 0.59451 0.47806 0.70397 0.0
C561 C 0.55588 0.47669 0.70557 0.0
C562 C 0.53931 0.46007 0.71782 0.0
C563 C 0.61253 0.49605 0.69128 0.0
C564 C 0.59791 0.51861 0.69068 0.0
C565 C 0.64465 0.49138 0.68022 0.0
C566 C 0.65955 0.46766 0.67803 0.0
C567 C 0.63693 0.44963 0.67147 0.0
C568 C 0.65094 0.42722 0.66993 0.0
C569 C 0.6876 0.42266 0.67475 0.0
C570 C 0.7104 0.44052 0.68104 0.0
C571 C 0.69654 0.46296 0.68262 0.0
H572 H 0.69836 0.40528 0.67358 0.0
H573 H 0.54844 0.61914 0.67248 0.0
H574 H 0.76309 0.94906 0.12802 0.0
H575 H 0.79658 0.97813 0.14641 0.0
H576 H 0.88495 0.92937 0.15618 0.0
H577 H 0.85023 0.89991 0.1391 0.0
H578 H 0.87975 0.9507 0.1861 0.0
H579 H 0.88618 0.97721 0.12066 0.0
H580 H 0.86477 0.98937 0.08812 0.0
H581 H 0.80478 0.0456 0.11268 0.0
H582 H 0.8254 0.03358 0.14542 0.0
H583 H 0.01134 0.03561 0.21364 0.0
H584 H 0.97776 0.0062 0.19589 0.0
H585 H 0.88183 0.05012 0.19429 0.0
H586 H 0.91646 0.08041 0.21055 0.0
H587 H 0.89231 0.03113 0.16033 0.0
H588 H 0.89493 1.00012 0.22773 0.0
H589 H 0.92768 0.98609 0.25707 0.0
H590 H 0.98599 0.93643 0.22355 0.0
H591 H 0.95371 0.94998 0.19402 0.0
C592 C 0.78948 0.94454 0.13433 0.0
C593 C 0.80402 0.92222 0.13221 0.0
C594 C 0.80886 0.96124 0.14465 0.0
C595 C 0.84388 0.95627 0.15238 0.0
C596 C 0.85805 0.93379 0.15046 0.0
C597 C 0.83817 0.9169 0.14068 0.0
C598 C 0.86569 0.97427 0.1626 0.0
C599 C 0.88271 0.9682 0.18027 0.0
C600 C 0.86993 0.99722 0.15516 0.0
C601 C 0.85697 0.00431 0.13552 0.0
C602 C 0.86812 0.99203 0.11915 0.0
C603 C 0.85618 0.99892 0.10066 0.0
C604 C 0.83333 0.0182 0.09834 0.0
C605 C 0.82241 0.03064 0.1145 0.0
C606 C 0.83421 0.02379 0.13303 0.0
C607 C 0.98314 0.03907 0.20942 0.0
C608 C 0.96629 0.06021 0.21386 0.0
C609 C 0.96379 0.02209 0.19947 0.0
C610 C 0.92686 0.02561 0.19419 0.0
C611 C 0.91014 0.04683 0.19841 0.0
C612 C 0.92976 0.06403 0.20799 0.0
C613 C 0.90583 0.00753 0.18379 0.0
C614 C 0.88903 0.01362 0.1661 0.0
C615 C 0.90322 0.98433 0.19075 0.0
C616 C 0.92204 0.97614 0.20866 0.0
C617 C 0.9148 0.98625 0.22661 0.0
C618 C 0.93327 0.97841 0.24327 0.0
C619 C 0.95896 0.96053 0.24216 0.0
C620 C 0.96611 0.9503 0.2244 0.0
C621 C 0.94766 0.95799 0.20772 0.0
H622 H 0.97325 0.95457 0.25508 0.0
H623 H 0.82417 0.02354 0.08401 0.0
H624 H 0.87896 0.10785 0.63171 0.0
H625 H 0.9084 0.07579 0.64952 0.0
H626 H 0.80772 0.03601 0.64597 0.0
H627 H 0.77762 0.06889 0.62981 0.0
H628 H 0.83012 0.03015 0.67907 0.0
H629 H 0.8947 0.02656 0.61797 0.0
H630 H 0.93222 0.04202 0.59078 0.0
H631 H 0.01992 0.05771 0.63012 0.0
H632 H 0.98276 0.04262 0.65756 0.0
H633 H 0.9519 0.92243 0.69283 0.0
H634 H 0.92378 0.95339 0.67293 0.0
H635 H 0.92973 0.99937 0.72123 0.0
H636 H 0.95704 0.96847 0.74127 0.0
H637 H 0.95506 1.00027 0.66521 0.0
H638 H 0.86834 0.01639 0.72554 0.0
H639 H 0.82609 0.99973 0.75025 0.0
H640 H 0.77776 0.95604 0.70749 0.0
H641 H 0.82046 0.97208 0.68269 0.0
C642 C 0.86339 0.09213 0.63465 0.0
C643 C 0.82614 0.09072 0.62942 0.0
C644 C 0.88027 0.07369 0.64469 0.0
C645 C 0.86063 0.05311 0.64891 0.0
C646 C 0.8236 0.05161 0.64307 0.0
C647 C 0.8064 0.07034 0.63372 0.0
C648 C 0.87763 0.03362 0.66032 0.0
C649 C 0.8574 0.0237 0.67581 0.0
C650 C 0.91331 0.02488 0.65637 0.0
C651 C 0.93583 0.03362 0.63982 0.0
C652 C 0.92193 0.0334 0.62082 0.0
C653 C 0.94313 0.0421 0.60537 0.0
C654 C 0.9784 0.05088 0.60872 0.0
C655 C 0.99259 0.05092 0.62754 0.0
C656 C 0.97149 0.04227 0.64304 0.0
C657 C 0.94697 0.93912 0.69921 0.0
C658 C 0.9562 0.94298 0.71866 0.0
C659 C 0.93093 0.95675 0.68785 0.0
C660 C 0.92401 0.97851 0.69574 0.0
C661 C 0.93382 0.9825 0.71504 0.0
C662 C 0.94955 0.96487 0.72644 0.0
C663 C 0.90746 0.9973 0.68368 0.0
C664 C 0.92779 0.00695 0.66819 0.0
C665 C 0.87175 0.00565 0.68734 0.0
C666 C 0.84786 0.9951 0.70244 0.0
C667 C 0.84906 0.00297 0.72153 0.0
C668 C 0.82498 0.99371 0.73552 0.0
C669 C 0.79917 0.97689 0.73043 0.0
C670 C 0.79772 0.96908 0.71141 0.0
C671 C 0.82203 0.97812 0.69743 0.0
H672 H 0.78043 0.96982 0.74125 0.0
H673 H 0.99475 0.05763 0.59674 0.0
H674 H 0.70178 0.47254 0.10408 0.0
H675 H 0.66785 0.49632 0.12676 0.0
H676 H 0.67741 0.44268 0.17087 0.0
H677 H 0.71194 0.41866 0.14822 0.0
H678 H 0.60417 0.4641 0.1668 0.0
H679 H 0.73116 0.4843 0.17591 0.0
H680 H 0.79355 0.49549 0.16508 0.0
H681 H 0.75088 0.55807 0.13911 0.0
H682 H 0.68809 0.54707 0.14954 0.0
H683 H 0.55242 0.53767 0.24426 0.0
H684 H 0.58655 0.51037 0.22439 0.0
H685 H 0.59198 0.56141 0.17789 0.0
H686 H 0.55794 0.58882 0.19776 0.0
H687 H 0.65889 0.5395 0.18496 0.0
H688 H 0.53226 0.51967 0.17522 0.0
H689 H 0.4693 0.50884 0.18531 0.0
H690 H 0.50993 0.44591 0.21161 0.0
H691 H 0.57332 0.45659 0.20202 0.0
C692 C 0.69668 0.46572 0.11858 0.0
C693 C 0.7098 0.44378 0.12441 0.0
C694 C 0.67725 0.47934 0.13151 0.0
C695 C 0.67031 0.47126 0.15047 0.0
C696 C 0.68253 0.44916 0.15626 0.0
C697 C 0.70242 0.43557 0.14337 0.0
C698 C 0.65152 0.4865 0.16431 0.0
C699 C 0.61631 0.4804 0.1711 0.0
C700 C 0.66716 0.50795 0.16948 0.0
C701 C 0.7049 0.51476 0.16336 0.0
C702 C 0.73504 0.50036 0.16776 0.0
C703 C 0.77048 0.50668 0.16171 0.0
C704 C 0.77617 0.52745 0.15137 0.0
C705 C 0.74642 0.54198 0.1471 0.0
C706 C 0.71091 0.53572 0.1531 0.0
C707 C 0.56137 0.54315 0.2299 0.0
C708 C 0.55298 0.5654 0.22257 0.0
C709 C 0.58052 0.52749 0.21852 0.0
C710 C 0.5916 0.53387 0.19966 0.0
C711 C 0.58367 0.5562 0.19242 0.0
C712 C 0.5642 0.57178 0.20373 0.0
C713 C 0.61136 0.51724 0.1874 0.0
C714 C 0.64679 0.52311 0.18086 0.0
C715 C 0.59579 0.49564 0.18244 0.0
C716 C 0.55765 0.48908 0.18811 0.0
C717 C 0.52786 0.50363 0.18332 0.0
C718 C 0.49207 0.49749 0.18892 0.0
C719 C 0.48563 0.47672 0.19913 0.0
C720 C 0.51497 0.46201 0.20373 0.0
C721 C 0.55085 0.4681 0.19822 0.0
H722 H 0.4579 0.47201 0.20346 0.0
H723 H 0.80363 0.53232 0.14669 0.0
H724 H 0.26967 0.42608 0.36459 0.0
H725 H 0.29703 0.46001 0.34841 0.0
H726 H 0.40534 0.43634 0.365 0.0
H727 H 0.37777 0.40289 0.38204 0.0
H728 H 0.40397 0.48084 0.36736 0.0
H729 H 0.36649 0.42821 0.31816 0.0
H730 H 0.3232 0.4031 0.30074 0.0
H731 H 0.25452 0.46173 0.28759 0.0
H732 H 0.29717 0.48715 0.30515 0.0
H733 H 0.50007 0.53899 0.28803 0.0
H734 H 0.47185 0.50925 0.30905 0.0
H735 H 0.37117 0.54848 0.31022 0.0
H736 H 0.40016 0.57926 0.29048 0.0
H737 H 0.36854 0.49738 0.29902 0.0
H738 H 0.40911 0.55004 0.34752 0.0
H739 H 0.45304 0.57427 0.36531 0.0
H740 H 0.5183 0.51432 0.3791 0.0
H741 H 0.47527 0.48977 0.36094 0.0
C742 C 0.29931 0.42823 0.36493 0.0
C743 C 0.3216 0.41182 0.37454 0.0
C744 C 0.31497 0.44757 0.35556 0.0
C745 C 0.3534 0.45051 0.355 0.0
C746 C 0.37565 0.43447 0.36513 0.0
C747 C 0.35988 0.41536 0.3749 0.0
C748 C 0.37032 0.46995 0.34348 0.0
C749 C 0.39652 0.48422 0.35234 0.0
C750 C 0.36026 0.47474 0.32393 0.0
C751 C 0.33484 0.45953 0.31314 0.0
C752 C 0.34205 0.43572 0.31165 0.0
C753 C 0.31764 0.42143 0.30174 0.0
C754 C 0.28608 0.4308 0.29311 0.0
C755 C 0.27895 0.45449 0.2943 0.0
C756 C 0.30324 0.46885 0.30422 0.0
C757 C 0.47227 0.54163 0.29316 0.0
C758 C 0.45244 0.56159 0.28765 0.0
C759 C 0.4561 0.5245 0.30502 0.0
C760 C 0.41953 0.52675 0.3112 0.0
C761 C 0.39948 0.5465 0.3056 0.0
C762 C 0.41601 0.56397 0.29422 0.0
C763 C 0.40194 0.50805 0.32296 0.0
C764 C 0.37583 0.4939 0.31405 0.0
C765 C 0.41243 0.50323 0.34234 0.0
C766 C 0.43913 0.51809 0.35266 0.0
C767 C 0.43314 0.54206 0.35405 0.0
C768 C 0.4578 0.55584 0.36428 0.0
C769 C 0.48833 0.54582 0.37339 0.0
C770 C 0.49454 0.52204 0.37209 0.0
C771 C 0.47007 0.50819 0.36179 0.0
H772 H 0.50718 0.55648 0.38147 0.0
H773 H 0.2672 0.41971 0.28546 0.0
H774 H 0.22654 0.02 0.89741 0.0
H775 H 0.1911 0.99764 0.87415 0.0
H776 H 0.16546 0.06033 0.84199 0.0
H777 H 0.20151 0.08292 0.86504 0.0
H778 H 0.10287 0.02578 0.8519 0.0
H779 H 0.22389 0.03253 0.82188 0.0
H780 H 0.29159 0.02956 0.8229 0.0
H781 H 0.28303 0.95724 0.83813 0.0
H782 H 0.21523 0.95988 0.83744 0.0
H783 H 0.02168 0.96762 0.77336 0.0
H784 H 0.05746 0.99471 0.79274 0.0
H785 H 0.12678 0.93839 0.81266 0.0
H786 H 0.09266 0.9118 0.79227 0.0
H787 H 0.16772 0.97252 0.80794 0.0
H788 H 0.05215 0.96315 0.84069 0.0
H789 H 0.9848 0.96319 0.84448 0.0
H790 H 0.98172 0.03562 0.82903 0.0
H791 H 0.04929 0.03597 0.82513 0.0
C792 C 0.21345 0.02907 0.88538 0.0
C793 C 0.21705 0.05321 0.88298 0.0
C794 C 0.19319 0.01626 0.87214 0.0
C795 C 0.1758 0.02738 0.8564 0.0
C796 C 0.17872 0.05151 0.85409 0.0
C797 C 0.19949 0.06432 0.86718 0.0
C798 C 0.15543 0.01356 0.84213 0.0
C799 C 0.11691 0.01442 0.842 0.0
C800 C 0.17387 0.99818 0.82983 0.0
C801 C 0.21456 0.99644 0.82972 0.0
C802 C 0.23647 0.01603 0.82554 0.0
C803 C 0.27485 0.0144 0.82604 0.0
C804 C 0.29161 0.99324 0.8306 0.0
C805 C 0.27002 0.97363 0.83459 0.0
C806 C 0.23162 0.97517 0.83411 0.0
C807 C 0.04453 0.96114 0.78196 0.0
C808 C 0.05416 0.93767 0.78164 0.0
C809 C 0.0649 0.97656 0.79308 0.0
C810 C 0.09434 0.96857 0.80464 0.0
C811 C 0.10422 0.94508 0.80398 0.0
C812 C 0.08457 0.92984 0.79242 0.0
C813 C 0.11464 0.98445 0.81762 0.0
C814 C 0.15334 0.98399 0.81761 0.0
C815 C 0.09624 0.9997 0.83022 0.0
C816 C 0.05568 0.99955 0.83248 0.0
C817 C 0.03707 0.97905 0.83799 0.0
C818 C 0.99884 0.97901 0.84016 0.0
C819 C 0.97892 0.99941 0.83695 0.0
C820 C 0.9972 0.01986 0.83152 0.0
C821 C 0.03547 0.02 0.82937 0.0
H822 H 0.94937 0.99948 0.83881 0.0
H823 H 0.32133 0.99202 0.83102 0.0
H824 H 0.18095 0.14257 0.96301 0.0
H825 H 0.1525 0.13618 0.99473 0.0
H826 H 0.2589 0.11919 0.01904 0.0
H827 H 0.28658 0.12351 0.98678 0.0
H828 H 0.21569 0.08988 0.03192 0.0
H829 H 0.20461 0.17281 0.02787 0.0
H830 H 0.18736 0.21024 0.01261 0.0
H831 H 0.07385 0.18923 0.01212 0.0
H832 H 0.09047 0.15158 0.02717 0.0
H833 H 0.15811 0.09402 0.13045 0.0
H834 H 0.18518 0.10648 0.09938 0.0
H835 H 0.08043 0.09682 0.0713 0.0
H836 H 0.05318 0.08413 0.10236 0.0
H837 H 0.12152 0.14044 0.06121 0.0
H838 H 0.13525 0.05708 0.06479 0.0
H839 H 0.15378 0.02052 0.08105 0.0
H840 H 0.26558 0.04467 0.08374 0.0
H841 H 0.24756 0.08154 0.06773 0.0
C842 C 0.19829 0.13798 0.97526 0.0
C843 C 0.23597 0.13381 0.97259 0.0
C844 C 0.18205 0.13441 0.99347 0.0
C845 C 0.20349 0.12758 0.00957 0.0
C846 C 0.24158 0.12439 0.00695 0.0
C847 C 0.25752 0.12709 0.98858 0.0
C848 C 0.18603 0.12211 0.02875 0.0
C849 C 0.19568 0.10129 0.03839 0.0
C850 C 0.15899 0.13649 0.03718 0.0
C851 C 0.14884 0.15932 0.02853 0.0
C852 C 0.17599 0.17615 0.02445 0.0
C853 C 0.16632 0.1974 0.01583 0.0
C854 C 0.12954 0.20209 0.01136 0.0
C855 C 0.10233 0.18558 0.01558 0.0
C856 C 0.11185 0.16429 0.02418 0.0
C857 C 0.14079 0.09469 0.11768 0.0
C858 C 0.10359 0.08799 0.11878 0.0
C859 C 0.15628 0.10179 0.09997 0.0
C860 C 0.13476 0.10256 0.0831 0.0
C861 C 0.09741 0.0964 0.0842 0.0
C862 C 0.08201 0.08897 0.10188 0.0
C863 C 0.15185 0.10865 0.06416 0.0
C864 C 0.14191 0.12938 0.05464 0.0
C865 C 0.17902 0.09444 0.05594 0.0
C866 C 0.19 0.07213 0.06523 0.0
C867 C 0.16373 0.05466 0.06897 0.0
C868 C 0.17415 0.03387 0.07812 0.0
C869 C 0.21082 0.03029 0.08347 0.0
C870 C 0.23718 0.04747 0.07961 0.0
C871 C 0.22689 0.06831 0.07048 0.0
H872 H 0.21883 0.01419 0.09057 0.0
H873 H 0.12212 0.21853 0.00465 0.0
H874 H 0.41654 0.3682 0.47765 0.0
H875 H 0.4298 0.36749 0.51258 0.0
H876 H 0.32781 0.40295 0.52333 0.0
H877 H 0.31385 0.40322 0.48867 0.0
H878 H 0.40066 0.42392 0.53663 0.0
H879 H 0.32393 0.35583 0.53879 0.0
H880 H 0.30437 0.31655 0.52994 0.0
H881 H 0.40791 0.28921 0.5496 0.0
H882 H 0.42837 0.32845 0.55827 0.0
H883 H 0.38828 0.43354 0.63676 0.0
H884 H 0.37296 0.42346 0.60358 0.0
H885 H 0.46271 0.37475 0.60304 0.0
H886 H 0.4783 0.38481 0.63647 0.0
H887 H 0.39954 0.35825 0.58423 0.0
H888 H 0.47592 0.42604 0.58266 0.0
H889 H 0.49536 0.46526 0.59182 0.0
H890 H 0.39318 0.49303 0.57059 0.0
H891 H 0.37289 0.45389 0.56157 0.0
C892 C 0.3968 0.37563 0.4875 0.0
C893 C 0.36431 0.38595 0.48042 0.0
C894 C 0.40428 0.37504 0.50741 0.0
C895 C 0.37965 0.38506 0.52044 0.0
C896 C 0.34697 0.39499 0.51345 0.0
C897 C 0.33913 0.39518 0.49366 0.0
C898 C 0.38968 0.38757 0.54103 0.0
C899 C 0.4001 0.40962 0.54709 0.0
C900 C 0.38988 0.3687 0.55443 0.0
C901 C 0.37794 0.34516 0.54888 0.0
C902 C 0.34278 0.34152 0.54095 0.0
C903 C 0.33145 0.31924 0.53604 0.0
C904 C 0.35495 0.30041 0.53912 0.0
C905 C 0.38979 0.30383 0.54716 0.0
C906 C 0.40126 0.32609 0.55207 0.0
C907 C 0.40485 0.42072 0.62959 0.0
C908 C 0.43495 0.4103 0.6391 0.0
C909 C 0.39592 0.41487 0.61067 0.0
C910 C 0.41706 0.39863 0.60075 0.0
C911 C 0.44611 0.38736 0.61044 0.0
C912 C 0.45501 0.39316 0.6295 0.0
C913 C 0.40999 0.39475 0.57989 0.0
C914 C 0.40033 0.3725 0.57374 0.0
C915 C 0.41059 0.41343 0.56627 0.0
C916 C 0.42278 0.43701 0.57159 0.0
C917 C 0.45749 0.44049 0.58008 0.0
C918 C 0.46868 0.46271 0.58523 0.0
C919 C 0.44549 0.48162 0.58183 0.0
C920 C 0.4111 0.47836 0.57323 0.0
C921 C 0.39975 0.45616 0.56808 0.0
H922 H 0.45421 0.49881 0.58582 0.0
H923 H 0.3461 0.28316 0.53535 0.0
H924 H 0.77934 0.39083 0.02368 0.0
H925 H 0.75217 0.39385 0.99127 0.0
H926 H 0.65931 0.35281 0.01108 0.0
H927 H 0.68758 0.3485 0.04295 0.0
H928 H 0.67342 0.34027 0.97791 0.0
H929 H 0.66018 0.41596 0.0045 0.0
H930 H 0.68034 0.4525 0.01909 0.0
H931 H 0.74842 0.46766 0.96949 0.0
H932 H 0.72902 0.43107 0.9547 0.0
H933 H 0.5523 0.36439 0.90224 0.0
H934 H 0.57923 0.36866 0.93442 0.0
H935 H 0.67887 0.39592 0.90847 0.0
H936 H 0.65153 0.39225 0.87617 0.0
H937 H 0.662 0.41649 0.94388 0.0
H938 H 0.67189 0.33871 0.91824 0.0
H939 H 0.64424 0.30401 0.90382 0.0
H940 H 0.57429 0.29473 0.95362 0.0
H941 H 0.6012 0.32957 0.9682 0.0
C942 C 0.7534 0.38218 0.02097 0.0
C943 C 0.73567 0.36932 0.0358 0.0
C944 C 0.7376 0.38417 0.00251 0.0
C945 C 0.70313 0.37406 0.99874 0.0
C946 C 0.68588 0.36082 0.01351 0.0
C947 C 0.70213 0.35828 0.03175 0.0
C948 C 0.685 0.37687 0.97946 0.0
C949 C 0.67062 0.35705 0.9707 0.0
C950 C 0.68163 0.39867 0.96968 0.0
C951 C 0.69346 0.42064 0.97859 0.0
C952 C 0.67968 0.427 0.99677 0.0
C953 C 0.69093 0.44773 0.00507 0.0
C954 C 0.71573 0.46236 0.99525 0.0
C955 C 0.72927 0.4563 0.97709 0.0
C956 C 0.71814 0.43557 0.96874 0.0
C957 C 0.57965 0.37172 0.90343 0.0
C958 C 0.60002 0.37772 0.88675 0.0
C959 C 0.595 0.37417 0.9218 0.0
C960 C 0.63135 0.38212 0.92379 0.0
C961 C 0.65084 0.38967 0.90723 0.0
C962 C 0.63523 0.38754 0.88882 0.0
C963 C 0.65025 0.38001 0.94278 0.0
C964 C 0.66491 0.39984 0.9513 0.0
C965 C 0.65325 0.35835 0.95261 0.0
C966 C 0.63847 0.33676 0.94427 0.0
C967 C 0.65063 0.32925 0.92611 0.0
C968 C 0.63504 0.30959 0.91789 0.0
C969 C 0.60751 0.29718 0.92779 0.0
C970 C 0.59564 0.30434 0.94597 0.0
C971 C 0.61109 0.32402 0.95424 0.0
H972 H 0.59538 0.28201 0.92138 0.0
H973 H 0.7244 0.47841 1.00169 0.0
H974 H 0.82391 0.09192 0.51631 0.0
H975 H 0.83744 0.09421 0.48164 0.0
H976 H 0.93859 0.1306 0.49332 0.0
H977 H 0.92539 0.12826 0.5282 0.0
H978 H 0.89455 0.15065 0.46265 0.0
H979 H 0.94567 0.07687 0.48227 0.0
H980 H 0.94212 0.03883 0.49909 0.0
H981 H 0.85297 0.01886 0.46212 0.0
H982 H 0.85566 0.05695 0.44524 0.0
H983 H 0.96874 0.14808 0.36988 0.0
H984 H 0.96472 0.13838 0.40459 0.0
H985 H 0.8661 0.09861 0.39445 0.0
H986 H 0.87045 0.10816 0.35959 0.0
H987 H 0.91018 0.07931 0.42454 0.0
H988 H 0.85535 0.15148 0.40605 0.0
H989 H 0.85381 0.18967 0.38942 0.0
H990 H 0.94357 0.21294 0.42456 0.0
H991 H 0.94612 0.17467 0.44116 0.0
C992 C 0.84912 0.10036 0.51155 0.0
C993 C 0.87371 0.10979 0.52503 0.0
C994 C 0.8568 0.10163 0.49173 0.0
C995 C 0.88912 0.11243 0.48495 0.0
C996 C 0.91353 0.12215 0.4983 0.0
C997 C 0.90605 0.12069 0.5182 0.0
C998 C 0.89732 0.11342 0.46389 0.0
C999 C 0.89866 0.13509 0.45438 0.0
C1000 C 0.90139 0.09305 0.45303 0.0
C1001 C 0.90076 0.06979 0.46255 0.0
C1002 C 0.92525 0.06438 0.47775 0.0
C1003 C 0.92338 0.04282 0.48731 0.0
C1004 C 0.8973 0.02645 0.4817 0.0
C1005 C 0.87317 0.03156 0.46644 0.0
C1006 C 0.8749 0.05312 0.45685 0.0
C1007 C 0.94693 0.13667 0.37504 0.0
C1008 C 0.91995 0.12878 0.36224 0.0
C1009 C 0.94455 0.1312 0.39482 0.0
C1010 C 0.91483 0.11803 0.40213 0.0
C1011 C 0.88927 0.10875 0.38911 0.0
C1012 C 0.89172 0.1142 0.36927 0.0
C1013 C 0.90801 0.11659 0.42335 0.0
C1014 C 0.90656 0.09487 0.43285 0.0
C1015 C 0.90325 0.13691 0.43422 0.0
C1016 C 0.90117 0.16015 0.4247 0.0
C1017 C 0.87491 0.1647 0.41015 0.0
C1018 C 0.87385 0.18635 0.40073 0.0
C1019 C 0.89864 0.2037 0.4059 0.0
C1020 C 0.92443 0.19946 0.42056 0.0
C1021 C 0.9257 0.17779 0.42998 0.0
H1022 H 0.8978 0.22046 0.39858 0.0
H1023 H 0.89581 0.00979 0.48915 0.0
H1024 H 0.83708 0.92493 0.02543 0.0
H1025 H 0.86061 0.9221 0.99252 0.0
H1026 H 0.80806 0.85552 0.98701 0.0
H1027 H 0.78399 0.85821 0.02023 0.0
H1028 H 0.88332 0.8589 0.97128 0.0
H1029 H 0.76664 0.89643 0.96619 0.0
H1030 H 0.71833 0.92448 0.9744 0.0
H1031 H 0.79129 0.98083 0.95965 0.0
H1032 H 0.84026 0.95311 0.95165 0.0
H1033 H 0.88666 0.88055 0.86371 0.0
H1034 H 0.87125 0.86747 0.89684 0.0
H1035 H 0.92662 0.92719 0.91948 0.0
H1036 H 0.94282 0.94009 0.8866 0.0
H1037 H 0.84455 0.92127 0.92521 0.0
H1038 H 0.96232 0.88318 0.93183 0.0
H1039 H 0.01081 0.8549 0.92454 0.0
H1040 H 0.93528 0.79893 0.93612 0.0
H1041 H 0.8861 0.82691 0.94315 0.0
C1042 C 0.83057 0.90958 0.01734 0.0
C1043 C 0.80839 0.89186 0.02542 0.0
C1044 C 0.84412 0.908 0.99851 0.0
C1045 C 0.83589 0.88868 0.98732 0.0
C1046 C 0.81471 0.87056 0.99546 0.0
C1047 C 0.80083 0.8722 0.01436 0.0
C1048 C 0.84802 0.88842 0.96682 0.0
C1049 C 0.87437 0.87221 0.96102 0.0
C1050 C 0.83652 0.90593 0.95357 0.0
C1051 C 0.80721 0.92268 0.95847 0.0
C1052 C 0.7725 0.91481 0.96487 0.0
C1053 C 0.74497 0.93065 0.96946 0.0
C1054 C 0.75176 0.95442 0.96759 0.0
C1055 C 0.78608 0.96241 0.96111 0.0
C1056 C 0.81372 0.94664 0.95653 0.0
C1057 C 0.89668 0.89045 0.87578 0.0
C1058 C 0.91548 0.91157 0.87254 0.0
C1059 C 0.88787 0.88292 0.89468 0.0
C1060 C 0.89782 0.89639 0.91054 0.0
C1061 C 0.91881 0.91655 0.9074 0.0
C1062 C 0.92774 0.924 0.8886 0.0
C1063 C 0.88076 0.89225 0.92979 0.0
C1064 C 0.85317 0.90767 0.93531 0.0
C1065 C 0.89111 0.87396 0.94261 0.0
C1066 C 0.92029 0.85718 0.93765 0.0
C1067 C 0.95581 0.86487 0.93246 0.0
C1068 C 0.9835 0.84888 0.92848 0.0
C1069 C 0.97608 0.82513 0.92977 0.0
C1070 C 0.94095 0.81733 0.93505 0.0
C1071 C 0.91316 0.83325 0.93902 0.0
H1072 H 0.99759 0.81279 0.92675 0.0
H1073 H 0.7304 0.96666 0.97112 0.0
H1074 H 0.63498 0.64629 0.53017 0.0
H1075 H 0.61107 0.64176 0.49738 0.0
H1076 H 0.71398 0.61132 0.47998 0.0
H1077 H 0.73841 0.61633 0.51256 0.0
H1078 H 0.68858 0.63898 0.45212 0.0
H1079 H 0.63823 0.5775 0.49272 0.0
H1080 H 0.60421 0.56077 0.52067 0.0
H1081 H 0.50689 0.59745 0.50284 0.0
H1082 H 0.54048 0.61459 0.4749 0.0
H1083 H 0.63348 0.56603 0.37523 0.0
H1084 H 0.65433 0.58076 0.40648 0.0
H1085 H 0.555 0.62105 0.41092 0.0
H1086 H 0.5344 0.60671 0.37942 0.0
H1087 H 0.57453 0.59245 0.44474 0.0
H1088 H 0.62473 0.6503 0.40175 0.0
H1089 H 0.65976 0.66627 0.37389 0.0
H1090 H 0.7587 0.63516 0.39615 0.0
H1091 H 0.72413 0.61868 0.424 0.0
C1092 C 0.6527 0.63893 0.51929 0.0
C1093 C 0.68848 0.6315 0.52398 0.0
C1094 C 0.63891 0.63623 0.50059 0.0
C1095 C 0.66049 0.62578 0.48636 0.0
C1096 C 0.69681 0.61935 0.49077 0.0
C1097 C 0.71073 0.62222 0.50941 0.0
C1098 C 0.64494 0.62066 0.46709 0.0
C1099 C 0.66382 0.62864 0.4505 0.0
C1100 C 0.61209 0.60767 0.465 0.0
C1101 C 0.59197 0.59753 0.48187 0.0
C1102 C 0.60966 0.58215 0.49487 0.0
C1103 C 0.59045 0.57256 0.51068 0.0
C1104 C 0.55345 0.5781 0.51356 0.0
C1105 C 0.53557 0.59321 0.50061 0.0
C1106 C 0.55467 0.60285 0.48478 0.0
C1107 C 0.61608 0.57792 0.38297 0.0
C1108 C 0.58232 0.58519 0.37511 0.0
C1109 C 0.62811 0.58646 0.40066 0.0
C1110 C 0.60629 0.60211 0.41082 0.0
C1111 C 0.57223 0.60908 0.40317 0.0
C1112 C 0.56052 0.60088 0.38529 0.0
C1113 C 0.61858 0.6104 0.42984 0.0
C1114 C 0.59908 0.60299 0.44638 0.0
C1115 C 0.65103 0.6237 0.43187 0.0
C1116 C 0.67171 0.63301 0.41484 0.0
C1117 C 0.65384 0.64658 0.40057 0.0
C1118 C 0.67365 0.6558 0.38481 0.0
C1119 C 0.7114 0.65167 0.38321 0.0
C1120 C 0.72943 0.63831 0.39738 0.0
C1121 C 0.70975 0.62903 0.41316 0.0
H1122 H 0.72671 0.65889 0.37103 0.0
H1123 H 0.5386 0.57064 0.5258 0.0
H1124 H 0.35273 0.58711 0.96954 0.0
H1125 H 0.37654 0.58895 0.00256 0.0
H1126 H 0.28771 0.63447 0.0179 0.0
H1127 H 0.26388 0.63296 0.98479 0.0
H1128 H 0.35399 0.64959 0.03129 0.0
H1129 H 0.28654 0.57682 0.03106 0.0
H1130 H 0.27231 0.53804 0.01869 0.0
H1131 H 0.38323 0.5163 0.03025 0.0
H1132 H 0.39824 0.55506 0.04247 0.0
H1133 H 0.36009 0.64876 0.13169 0.0
H1134 H 0.33946 0.6416 0.09859 0.0
H1135 H 0.42979 0.59425 0.09091 0.0
H1136 H 0.44972 0.60091 0.12446 0.0
H1137 H 0.36853 0.57894 0.07282 0.0
H1138 H 0.4371 0.64907 0.07389 0.0
H1139 H 0.45487 0.68738 0.08598 0.0
H1140 H 0.34773 0.71389 0.0717 0.0
H1141 H 0.32911 0.67561 0.05979 0.0
C1142 C 0.3382 0.59754 0.97992 0.0
C1143 C 0.3063 0.60985 0.97453 0.0
C1144 C 0.35181 0.59848 0.99882 0.0
C1145 C 0.33366 0.61162 0.01276 0.0
C1146 C 0.30209 0.62417 0.00738 0.0
C1147 C 0.28846 0.62325 0.98846 0.0
C1148 C 0.34768 0.61251 0.03293 0.0
C1149 C 0.35673 0.63417 0.04044 0.0
C1150 C 0.35277 0.59228 0.0446 0.0
C1151 C 0.34359 0.56889 0.03752 0.0
C1152 C 0.30795 0.56381 0.03086 0.0
C1153 C 0.29974 0.54183 0.02389 0.0
C1154 C 0.32687 0.52473 0.02364 0.0
C1155 C 0.36225 0.52957 0.03043 0.0
C1156 C 0.37061 0.55152 0.0374 0.0
C1157 C 0.37507 0.63653 0.12299 0.0
C1158 C 0.40641 0.6254 0.13041 0.0
C1159 C 0.36347 0.63253 0.1041 0.0
C1160 C 0.38356 0.61778 0.09213 0.0
C1161 C 0.41398 0.60577 0.09986 0.0
C1162 C 0.42535 0.60957 0.11894 0.0
C1163 C 0.37378 0.6161 0.07132 0.0
C1164 C 0.36584 0.59434 0.06365 0.0
C1165 C 0.37031 0.6362 0.05934 0.0
C1166 C 0.38163 0.65942 0.06606 0.0
C1167 C 0.41726 0.66304 0.07341 0.0
C1168 C 0.42749 0.68475 0.08023 0.0
C1169 C 0.40242 0.70305 0.07964 0.0
C1170 C 0.36712 0.69969 0.07215 0.0
C1171 C 0.35672 0.678 0.06534 0.0
H1172 H 0.41038 0.71984 0.08495 0.0
H1173 H 0.32047 0.50774 0.01823 0.0
H1174 H 0.24623 0.88944 0.48692 0.0
H1175 H 0.22218 0.89198 0.51985 0.0
H1176 H 0.11396 0.87328 0.49956 0.0
H1177 H 0.13765 0.87135 0.46646 0.0
H1178 H 0.10797 0.90673 0.52447 0.0
H1179 H 0.16848 0.83394 0.52406 0.0
H1180 H 0.21856 0.80601 0.51889 0.0
H1181 H 0.2867 0.84194 0.55932 0.0
H1182 H 0.23715 0.87028 0.56455 0.0
H1183 H 0.0458 0.85498 0.61609 0.0
H1184 H 0.06208 0.86599 0.58261 0.0
H1185 H 0.1558 0.90416 0.60335 0.0
H1186 H 0.13904 0.89366 0.6369 0.0
H1187 H 0.16879 0.86378 0.5785 0.0
H1188 H 0.09973 0.93471 0.58034 0.0
H1189 H 0.04537 0.95952 0.58478 0.0
H1190 H 0.987 0.92202 0.54133 0.0
H1191 H 0.04085 0.8968 0.53678 0.0
C1192 C 0.21736 0.88575 0.48947 0.0
C1193 C 0.1939 0.88007 0.47409 0.0
C1194 C 0.20362 0.88719 0.50832 0.0
C1195 C 0.16631 0.8826 0.51224 0.0
C1196 C 0.14281 0.87696 0.49689 0.0
C1197 C 0.15646 0.87572 0.47799 0.0
C1198 C 0.15198 0.88345 0.53239 0.0
C1199 C 0.12102 0.89716 0.53627 0.0
C1200 C 0.16919 0.87116 0.54782 0.0
C1201 C 0.19928 0.85438 0.54452 0.0
C1202 C 0.19428 0.83602 0.5317 0.0
C1203 C 0.22254 0.82008 0.52879 0.0
C1204 C 0.25583 0.82224 0.53872 0.0
C1205 C 0.26092 0.84032 0.55161 0.0
C1206 C 0.23276 0.85631 0.55456 0.0
C1207 C 0.0692 0.86631 0.61348 0.0
C1208 C 0.09134 0.87337 0.62897 0.0
C1209 C 0.07832 0.87271 0.59441 0.0
C1210 C 0.11006 0.88592 0.59056 0.0
C1211 C 0.131 0.89413 0.60609 0.0
C1212 C 0.12146 0.88811 0.6252 0.0
C1213 C 0.12503 0.88717 0.57061 0.0
C1214 C 0.156 0.8736 0.56674 0.0
C1215 C 0.10708 0.89902 0.5552 0.0
C1216 C 0.07423 0.91367 0.5584 0.0
C1217 C 0.07514 0.93153 0.57193 0.0
C1218 C 0.04446 0.94574 0.5744 0.0
C1219 C 0.01272 0.9423 0.5634 0.0
C1220 C 0.01158 0.92464 0.54988 0.0
C1221 C 0.04219 0.9104 0.54734 0.0
H1222 H 0.98904 0.95336 0.5653 0.0
H1223 H 0.27766 0.80986 0.53648 0.0
H1224 H 0.24441 0.28936 0.34299 0.0
H1225 H 0.21255 0.25815 0.32613 0.0
H1226 H 0.12049 0.26367 0.3652 0.0
H1227 H 0.15158 0.29542 0.38177 0.0
H1228 H 0.16727 0.21328 0.35223 0.0
H1229 H 0.08749 0.2808 0.33471 0.0
H1230 H 0.08112 0.32113 0.32268 0.0
H1231 H 0.14198 0.30476 0.27139 0.0
H1232 H 0.14924 0.26442 0.28333 0.0
H1233 H 0.04872 0.13555 0.30316 0.0
H1234 H 0.07281 0.1661 0.32364 0.0
H1235 H 0.11673 0.20166 0.27295 0.0
H1236 H 0.08941 0.17264 0.25256 0.0
H1237 H 0.09191 0.23183 0.29405 0.0
H1238 H 0.17009 0.1665 0.30717 0.0
H1239 H 0.18462 0.12622 0.31692 0.0
H1240 H 0.13814 0.13716 0.37323 0.0
H1241 H 0.12286 0.17743 0.36372 0.0
C1242 C 0.21735 0.28395 0.34796 0.0
C1243 C 0.20034 0.2949 0.3636 0.0
C1244 C 0.1993 0.26613 0.33837 0.0
C1245 C 0.1643 0.25873 0.34448 0.0
C1246 C 0.14749 0.26928 0.36029 0.0
C1247 C 0.16518 0.28744 0.36965 0.0
C1248 C 0.145 0.24036 0.33391 0.0
C1249 C 0.15023 0.2172 0.33968 0.0
C1250 C 0.12401 0.24562 0.31723 0.0
C1251 C 0.11931 0.26975 0.31002 0.0
C1252 C 0.09986 0.28589 0.32098 0.0
C1253 C 0.09601 0.30872 0.31416 0.0
C1254 C 0.11125 0.31553 0.29631 0.0
C1255 C 0.13027 0.29949 0.28523 0.0
C1256 C 0.13426 0.27665 0.29202 0.0
C1257 C 0.06344 0.14993 0.29639 0.0
C1258 C 0.06824 0.15123 0.27615 0.0
C1259 C 0.07752 0.16731 0.30815 0.0
C1260 C 0.09756 0.18598 0.29997 0.0
C1261 C 0.1017 0.18742 0.27975 0.0
C1262 C 0.08667 0.17049 0.26802 0.0
C1263 C 0.11391 0.20427 0.31222 0.0
C1264 C 0.10842 0.22759 0.30672 0.0
C1265 C 0.13549 0.19902 0.32886 0.0
C1266 C 0.14499 0.1749 0.33467 0.0
C1267 C 0.16277 0.16027 0.3216 0.0
C1268 C 0.17116 0.13744 0.32708 0.0
C1269 C 0.16222 0.12912 0.34566 0.0
C1270 C 0.14499 0.14362 0.35883 0.0
C1271 C 0.13648 0.16645 0.3534 0.0
H1272 H 0.16872 0.11144 0.34988 0.0
H1273 H 0.10823 0.33321 0.29104 0.0
H1274 H 0.28674 0.21614 0.8648 0.0
H1275 H 0.32368 0.24562 0.84781 0.0
H1276 H 0.41777 0.22724 0.88287 0.0
H1277 H 0.38099 0.19742 0.8999 0.0
H1278 H 0.4088 0.27554 0.87792 0.0
H1279 H 0.41696 0.20841 0.83944 0.0
H1280 H 0.39477 0.17461 0.82157 0.0
H1281 H 0.33349 0.21941 0.78313 0.0
H1282 H 0.35489 0.25349 0.80097 0.0
H1283 H 0.53057 0.32287 0.79669 0.0
H1284 H 0.50262 0.29244 0.81736 0.0
H1285 H 0.40115 0.33084 0.81857 0.0
H1286 H 0.42943 0.36196 0.79918 0.0
H1287 H 0.42145 0.27081 0.80644 0.0
H1288 H 0.4041 0.33648 0.85334 0.0
H1289 H 0.43154 0.36914 0.87078 0.0
H1290 H 0.51623 0.32434 0.89321 0.0
H1291 H 0.49018 0.29167 0.87512 0.0
C1292 C 0.3152 0.21845 0.86904 0.0
C1293 C 0.33094 0.20436 0.88367 0.0
C1294 C 0.33631 0.23526 0.85925 0.0
C1295 C 0.37355 0.23845 0.86395 0.0
C1296 C 0.3891 0.225 0.87899 0.0
C1297 C 0.36806 0.20795 0.88867 0.0
C1298 C 0.39617 0.2555 0.85273 0.0
C1299 C 0.41176 0.27436 0.86233 0.0
C1300 C 0.40041 0.25392 0.83239 0.0
C1301 C 0.38721 0.23349 0.82169 0.0
C1302 C 0.39844 0.21105 0.82731 0.0
C1303 C 0.38607 0.19184 0.81715 0.0
C1304 C 0.36264 0.19485 0.80126 0.0
C1305 C 0.35159 0.2171 0.79547 0.0
C1306 C 0.36385 0.23637 0.80559 0.0
C1307 C 0.50267 0.32513 0.80185 0.0
C1308 C 0.48254 0.3451 0.79674 0.0
C1309 C 0.48668 0.30766 0.81348 0.0
C1310 C 0.45018 0.30974 0.81983 0.0
C1311 C 0.42971 0.32927 0.81426 0.0
C1312 C 0.44586 0.34694 0.80305 0.0
C1313 C 0.43267 0.29106 0.83156 0.0
C1314 C 0.41838 0.27185 0.82204 0.0
C1315 C 0.42983 0.29221 0.85192 0.0
C1316 C 0.44563 0.31181 0.86262 0.0
C1317 C 0.429 0.33373 0.86167 0.0
C1318 C 0.4443 0.35223 0.87166 0.0
C1319 C 0.47584 0.34888 0.88294 0.0
C1320 C 0.49207 0.32699 0.88428 0.0
C1321 C 0.47715 0.30851 0.87409 0.0
H1322 H 0.48749 0.36321 0.89074 0.0
H1323 H 0.35313 0.17996 0.7934 0.0
H1324 H 0.75745 0.2191 0.64916 0.0
H1325 H 0.73204 0.25108 0.66763 0.0
H1326 H 0.62201 0.22687 0.65597 0.0
H1327 H 0.64712 0.19472 0.6376 0.0
H1328 H 0.63224 0.27602 0.65079 0.0
H1329 H 0.65633 0.21447 0.69814 0.0
H1330 H 0.69573 0.18569 0.71489 0.0
H1331 H 0.76923 0.2398 0.73227 0.0
H1332 H 0.73048 0.26888 0.71539 0.0
H1333 H 0.52513 0.33372 0.71911 0.0
H1334 H 0.55551 0.30558 0.69898 0.0
H1335 H 0.66024 0.32361 0.72409 0.0
H1336 H 0.62953 0.35119 0.74482 0.0
H1337 H 0.65706 0.27951 0.72137 0.0
H1338 H 0.63312 0.34178 0.67706 0.0
H1339 H 0.59649 0.37179 0.66006 0.0
H1340 H 0.52731 0.31929 0.636 0.0
H1341 H 0.5632 0.28895 0.65307 0.0
C1342 C 0.72784 0.22058 0.6505 0.0
C1343 C 0.70429 0.20429 0.64203 0.0
C1344 C 0.7134 0.23887 0.66105 0.0
C1345 C 0.67519 0.24126 0.66318 0.0
C1346 C 0.65158 0.22531 0.65443 0.0
C1347 C 0.666 0.20688 0.64407 0.0
C1348 C 0.65979 0.25991 0.67513 0.0
C1349 C 0.63731 0.27675 0.66626 0.0
C1350 C 0.66758 0.26124 0.69513 0.0
C1351 C 0.69075 0.24379 0.70534 0.0
C1352 C 0.68106 0.2202 0.7054 0.0
C1353 C 0.70324 0.20384 0.71494 0.0
C1354 C 0.73502 0.2109 0.72459 0.0
C1355 C 0.74464 0.23435 0.72477 0.0
C1356 C 0.72257 0.25077 0.71523 0.0
C1357 C 0.55454 0.33146 0.72069 0.0
C1358 C 0.57473 0.34422 0.73425 0.0
C1359 C 0.57202 0.31556 0.70887 0.0
C1360 C 0.61031 0.31261 0.70979 0.0
C1361 C 0.63061 0.32542 0.72318 0.0
C1362 C 0.61296 0.34104 0.73528 0.0
C1363 C 0.6289 0.29568 0.69717 0.0
C1364 C 0.65209 0.27909 0.70588 0.0
C1365 C 0.62223 0.29488 0.67694 0.0
C1366 C 0.6007 0.31307 0.6665 0.0
C1367 C 0.60994 0.33662 0.66825 0.0
C1368 C 0.58933 0.3537 0.65859 0.0
C1369 C 0.55954 0.34745 0.647 0.0
C1370 C 0.55038 0.3241 0.645 0.0
C1371 C 0.57088 0.30695 0.65465 0.0
H1372 H 0.5436 0.36069 0.63954 0.0
H1373 H 0.75215 0.19821 0.73198 0.0
H1374 H 0.87406 0.31711 0.12629 0.0
H1375 H 0.90911 0.28723 0.14372 0.0
H1376 H 0.81574 0.24097 0.14123 0.0
H1377 H 0.78021 0.27104 0.12436 0.0
H1378 H 0.84057 0.23996 0.17591 0.0
H1379 H 0.89691 0.23363 0.11372 0.0
H1380 H 0.92913 0.24605 0.08377 0.0
H1381 H 0.02146 0.26889 0.11723 0.0
H1382 H 0.98959 0.25689 0.14742 0.0
H1383 H 0.95023 0.13494 0.19359 0.0
H1384 H 0.91956 0.16562 0.17447 0.0
H1385 H 0.96816 0.21724 0.21085 0.0
H1386 H 0.99754 0.18644 0.23061 0.0
H1387 H 0.96741 0.21523 0.15968 0.0
H1388 H 0.90293 0.2234 0.22266 0.0
H1389 H 0.87066 0.20562 0.25074 0.0
H1390 H 0.79203 0.17474 0.21261 0.0
H1391 H 0.82453 0.19186 0.18426 0.0
C1392 C 0.86113 0.30047 0.12925 0.0
C1393 C 0.82427 0.29649 0.124 0.0
C1394 C 0.88129 0.28334 0.13916 0.0
C1395 C 0.86521 0.26173 0.14375 0.0
C1396 C 0.82876 0.25751 0.13797 0.0
C1397 C 0.80848 0.27471 0.12826 0.0
C1398 C 0.88548 0.24403 0.15555 0.0
C1399 C 0.86823 0.23457 0.17219 0.0
C1400 C 0.92175 0.23692 0.15094 0.0
C1401 C 0.94064 0.24463 0.13285 0.0
C1402 C 0.9239 0.24155 0.11471 0.0
C1403 C 0.94215 0.24845 0.09769 0.0
C1404 C 0.97726 0.25833 0.0986 0.0
C1405 C 0.99423 0.26129 0.11655 0.0
C1406 C 0.97608 0.25444 0.13362 0.0
C1407 C 0.95425 0.15287 0.19746 0.0
C1408 C 0.97595 0.15852 0.2135 0.0
C1409 C 0.93681 0.17029 0.18659 0.0
C1410 C 0.94157 0.19358 0.19136 0.0
C1411 C 0.96399 0.1993 0.20711 0.0
C1412 C 0.9806 0.18181 0.21836 0.0
C1413 C 0.92259 0.21181 0.1799 0.0
C1414 C 0.93994 0.22107 0.16332 0.0
C1415 C 0.88632 0.21853 0.18436 0.0
C1416 C 0.86648 0.20858 0.20137 0.0
C1417 C 0.87908 0.21255 0.22026 0.0
C1418 C 0.8607 0.20264 0.23622 0.0
C1419 C 0.82938 0.189 0.23346 0.0
C1420 C 0.81634 0.18528 0.21472 0.0
C1421 C 0.83477 0.19504 0.19871 0.0
H1422 H 0.81517 0.18134 0.24583 0.0
H1423 H 0.99137 0.26362 0.0854 0.0
H1424 H 0.76261 0.71419 0.64456 0.0
H1425 H 0.7907 0.74613 0.66201 0.0
H1426 H 0.89822 0.72478 0.64271 0.0
H1427 H 0.8704 0.69231 0.62588 0.0
H1428 H 0.9007 0.73435 0.67937 0.0
H1429 H 0.85035 0.77313 0.62248 0.0
H1430 H 0.80128 0.78443 0.5995 0.0
H1431 H 0.74045 0.81536 0.64559 0.0
H1432 H 0.78897 0.80402 0.66888 0.0
H1433 H 0.00217 0.83188 0.70586 0.0
H1434 H 0.97169 0.80277 0.68651 0.0
H1435 H 0.86576 0.82692 0.70583 0.0
H1436 H 0.89595 0.85747 0.72364 0.0
H1437 H 0.86108 0.81595 0.66989 0.0
H1438 H 0.91014 0.77775 0.72678 0.0
H1439 H 0.95938 0.76784 0.75006 0.0
H1440 H 0.02149 0.73613 0.70481 0.0
H1441 H 0.97282 0.74614 0.68119 0.0
C1442 C 0.79223 0.71636 0.64401 0.0
C1443 C 0.81433 0.70077 0.63386 0.0
C1444 C 0.80824 0.73469 0.65389 0.0
C1445 C 0.84655 0.73808 0.65344 0.0
C1446 C 0.86861 0.72252 0.64327 0.0
C1447 C 0.85268 0.70399 0.63364 0.0
C1448 C 0.8639 0.75742 0.66395 0.0
C1449 C 0.89232 0.75222 0.67709 0.0
C1450 C 0.85225 0.78068 0.66146 0.0
C1451 C 0.82313 0.78753 0.64744 0.0
C1452 C 0.82639 0.7822 0.62773 0.0
C1453 C 0.7987 0.78864 0.61464 0.0
C1454 C 0.76773 0.80055 0.62109 0.0
C1455 C 0.76443 0.80611 0.64062 0.0
C1456 C 0.79203 0.7997 0.65376 0.0
C1457 C 0.97237 0.83113 0.70596 0.0
C1458 C 0.95155 0.8465 0.71705 0.0
C1459 C 0.95498 0.81433 0.69496 0.0
C1460 C 0.91647 0.81209 0.69527 0.0
C1461 C 0.89555 0.82804 0.70561 0.0
C1462 C 0.91293 0.84528 0.71614 0.0
C1463 C 0.89809 0.79287 0.68511 0.0
C1464 C 0.86941 0.79806 0.67214 0.0
C1465 C 0.90927 0.76957 0.68786 0.0
C1466 C 0.93792 0.76278 0.7022 0.0
C1467 C 0.93432 0.76868 0.72179 0.0
C1468 C 0.96214 0.76307 0.73505 0.0
C1469 C 0.99356 0.75137 0.72892 0.0
C1470 C 0.99713 0.74518 0.70954 0.0
C1471 C 0.96941 0.75078 0.69622 0.0
H1472 H 0.01512 0.7471 0.73919 0.0
H1473 H 0.74632 0.80552 0.61093 0.0
H1474 H 0.74256 0.78774 0.15174 0.0
H1475 H 0.70606 0.75847 0.1692 0.0
H1476 H 0.60656 0.78742 0.14485 0.0
H1477 H 0.64294 0.81729 0.12778 0.0
H1478 H 0.59638 0.77534 0.18217 0.0
H1479 H 0.64742 0.73781 0.12613 0.0
H1480 H 0.69796 0.72611 0.10454 0.0
H1481 H 0.74978 0.68949 0.15191 0.0
H1482 H 0.69975 0.70117 0.17381 0.0
H1483 H 0.48787 0.67944 0.21414 0.0
H1484 H 0.51711 0.70941 0.19393 0.0
H1485 H 0.62347 0.67915 0.20614 0.0
H1486 H 0.59362 0.64713 0.22322 0.0
H1487 H 0.62661 0.69267 0.17265 0.0
H1488 H 0.58049 0.73142 0.22959 0.0
H1489 H 0.5316 0.74286 0.25229 0.0
H1490 H 0.47367 0.7772 0.20574 0.0
H1491 H 0.522 0.76572 0.18273 0.0
C1492 C 0.7129 0.78796 0.15014 0.0
C1493 C 0.69569 0.80473 0.13824 0.0
C1494 C 0.69205 0.77113 0.16008 0.0
C1495 C 0.65359 0.7704 0.15802 0.0
C1496 C 0.6362 0.78755 0.14659 0.0
C1497 C 0.65704 0.80459 0.13681 0.0
C1498 C 0.6317 0.75149 0.1675 0.0
C1499 C 0.60271 0.75724 0.17997 0.0
C1500 C 0.64028 0.72786 0.16489 0.0
C1501 C 0.66996 0.72048 0.15161 0.0
C1502 C 0.66967 0.72733 0.13194 0.0
C1503 C 0.69821 0.7207 0.11965 0.0
C1504 C 0.72709 0.7071 0.12685 0.0
C1505 C 0.7274 0.70002 0.14634 0.0
C1506 C 0.69893 0.70661 0.15869 0.0
C1507 C 0.51728 0.6787 0.21186 0.0
C1508 C 0.53829 0.66075 0.22026 0.0
C1509 C 0.53424 0.69631 0.20077 0.0
C1510 C 0.57283 0.69714 0.19885 0.0
C1511 C 0.59373 0.67917 0.20732 0.0
C1512 C 0.57663 0.66101 0.21751 0.0
C1513 C 0.59187 0.71638 0.18798 0.0
C1514 C 0.6202 0.71072 0.17504 0.0
C1515 C 0.5831 0.74008 0.19047 0.0
C1516 C 0.55472 0.74759 0.20443 0.0
C1517 C 0.5573 0.7414 0.22421 0.0
C1518 C 0.52967 0.74787 0.23712 0.0
C1519 C 0.49953 0.76073 0.23046 0.0
C1520 C 0.49703 0.76724 0.21088 0.0
C1521 C 0.52454 0.76078 0.1979 0.0
H1522 H 0.47812 0.76567 0.24047 0.0
H1523 H 0.74919 0.70202 0.11733 0.0
H1524 H 0.35384 0.81364 0.37215 0.0
H1525 H 0.38589 0.78435 0.35342 0.0
H1526 H 0.28342 0.74786 0.34537 0.0
H1527 H 0.25127 0.77683 0.36434 0.0
H1528 H 0.33963 0.71857 0.35512 0.0
H1529 H 0.32155 0.78353 0.30935 0.0
H1530 H 0.32923 0.82435 0.29872 0.0
H1531 H 0.44673 0.81747 0.30228 0.0
H1532 H 0.43972 0.77672 0.31315 0.0
H1533 H 0.39833 0.63911 0.28608 0.0
H1534 H 0.36528 0.66884 0.30351 0.0
H1535 H 0.45771 0.71545 0.29516 0.0
H1536 H 0.48662 0.68737 0.2742 0.0
H1537 H 0.40684 0.74031 0.29484 0.0
H1538 H 0.43118 0.67867 0.34122 0.0
H1539 H 0.4297 0.63855 0.35429 0.0
H1540 H 0.31149 0.63943 0.35393 0.0
H1541 H 0.31226 0.67944 0.34066 0.0
C1542 C 0.33811 0.79938 0.3664 0.0
C1543 C 0.29995 0.79762 0.36968 0.0
C1544 C 0.35647 0.78269 0.35564 0.0
C1545 C 0.33697 0.76406 0.34779 0.0
C1546 C 0.299 0.76211 0.35127 0.0
C1547 C 0.28065 0.77872 0.36207 0.0
C1548 C 0.35595 0.74657 0.3359 0.0
C1549 C 0.35419 0.72322 0.34185 0.0
C1550 C 0.37607 0.75275 0.319 0.0
C1551 C 0.38008 0.77715 0.31219 0.0
C1552 C 0.349 0.79077 0.30795 0.0
C1553 C 0.35324 0.81389 0.30188 0.0
C1554 C 0.38844 0.82351 0.29986 0.0
C1555 C 0.41948 0.81001 0.30386 0.0
C1556 C 0.41539 0.78691 0.30995 0.0
C1557 C 0.41082 0.65603 0.28742 0.0
C1558 C 0.44508 0.66091 0.27892 0.0
C1559 C 0.3925 0.67285 0.29799 0.0
C1560 C 0.40943 0.69431 0.30162 0.0
C1561 C 0.44382 0.69911 0.29291 0.0
C1562 C 0.46095 0.68281 0.28127 0.0
C1563 C 0.39129 0.7119 0.31407 0.0
C1564 C 0.39289 0.73538 0.30821 0.0
C1565 C 0.37227 0.70589 0.3315 0.0
C1566 C 0.3718 0.68198 0.33982 0.0
C1567 C 0.40489 0.67027 0.34388 0.0
C1568 C 0.40417 0.64755 0.35132 0.0
C1569 C 0.37053 0.63644 0.3549 0.0
C1570 C 0.33753 0.64805 0.35114 0.0
C1571 C 0.33808 0.67076 0.34369 0.0
H1572 H 0.37004 0.61884 0.36062 0.0
H1573 H 0.39166 0.8414 0.29518 0.0
H1574 H 0.1526 0.69848 0.88694 0.0
H1575 H 0.11715 0.72839 0.86969 0.0
H1576 H 0.20181 0.7331 0.82576 0.0
H1577 H 0.23832 0.70446 0.84375 0.0
H1578 H 0.18394 0.77332 0.83284 0.0
H1579 H 0.1099 0.70575 0.82037 0.0
H1580 H 0.07281 0.671 0.8285 0.0
H1581 H 0.9979 0.71236 0.86115 0.0
H1582 H 0.03476 0.74731 0.85337 0.0
H1583 H 0.06524 0.82072 0.75632 0.0
H1584 H 0.09599 0.79118 0.77644 0.0
H1585 H 0.05944 0.82502 0.82804 0.0
H1586 H 0.02993 0.85522 0.80815 0.0
H1587 H 0.05055 0.76724 0.81844 0.0
H1588 H 0.12962 0.83477 0.83079 0.0
H1589 H 0.1677 0.86834 0.8206 0.0
H1590 H 0.23353 0.82449 0.78505 0.0
H1591 H 0.19531 0.79074 0.79475 0.0
C1592 C 0.16344 0.70583 0.87352 0.0
C1593 C 0.19821 0.69918 0.86668 0.0
C1594 C 0.14302 0.72284 0.86356 0.0
C1595 C 0.15636 0.73293 0.84617 0.0
C1596 C 0.19081 0.72579 0.83916 0.0
C1597 C 0.21167 0.70933 0.8494 0.0
C1598 C 0.13557 0.75164 0.83566 0.0
C1599 C 0.15484 0.7717 0.8296 0.0
C1600 C 0.0973 0.7501 0.83165 0.0
C1601 C 0.07532 0.72908 0.83647 0.0
C1602 C 0.08568 0.70739 0.82941 0.0
C1603 C 0.06467 0.68767 0.83393 0.0
C1604 C 0.03309 0.68946 0.84538 0.0
C1605 C 0.0224 0.71099 0.85231 0.0
C1606 C 0.04332 0.73076 0.84784 0.0
C1607 C 0.06399 0.82205 0.77194 0.0
C1608 C 0.04551 0.84056 0.78057 0.0
C1609 C 0.08144 0.8051 0.78339 0.0
C1610 C 0.08017 0.8061 0.80366 0.0
C1611 C 0.06088 0.82408 0.81239 0.0
C1612 C 0.044 0.84129 0.80096 0.0
C1613 C 0.09923 0.7883 0.81564 0.0
C1614 C 0.07962 0.76858 0.82188 0.0
C1615 C 0.13722 0.78993 0.81961 0.0
C1616 C 0.15935 0.81033 0.81329 0.0
C1617 C 0.15185 0.83237 0.82057 0.0
C1618 C 0.17359 0.8514 0.81498 0.0
C1619 C 0.20315 0.84852 0.80228 0.0
C1620 C 0.21076 0.82666 0.79497 0.0
C1621 C 0.18903 0.8076 0.80047 0.0
H1622 H 0.21998 0.86326 0.79799 0.0
H1623 H 0.01685 0.67417 0.84885 0.0
loop_
_geom_bond_atom_site_label_1
_geom_bond_atom_site_label_2
_geom_bond_distance
_geom_bond_site_symmetry_2
_ccdc_geom_bond_type
O0 Cd1 2.300 . S
O0 C7 1.275 . S
Cd1 O0 2.300 . S
Cd1 O9 2.381 . S
Cd1 O10 2.378 . S
O2 Cd3 2.385 . S
O2 C7 1.255 . S
Cd3 O2 2.385 . S
Cd3 O4 2.317 . S
O4 Cd3 2.317 . S
O4 C5 1.232 . S
C5 O4 1.232 . S
C5 O6 1.218 . S
O6 C5 1.218 . S
C7 O0 1.275 . S
C7 O2 1.255 . S
C8 O9 1.258 . S
C8 O10 1.256 . S
O9 Cd1 2.381 . S
O9 C8 1.258 . S
O10 Cd1 2.378 . S
O10 C8 1.256 . S
O11 Cd12 2.300 . S
O11 C18 1.275 . S
Cd12 O11 2.300 . S
Cd12 O20 2.381 . S
Cd12 O21 2.378 . S
O13 Cd14 2.385 . S
O13 C18 1.255 . S
Cd14 O13 2.385 . S
Cd14 O15 2.317 . S
O15 Cd14 2.317 . S
O15 C16 1.232 . S
C16 O15 1.232 . S
C16 O17 1.218 . S
O17 C16 1.218 . S
C18 O11 1.275 . S
C18 O13 1.255 . S
C19 O20 1.258 . S
C19 O21 1.256 . S
O20 Cd12 2.381 . S
O20 C19 1.258 . S
O21 Cd12 2.378 . S
O21 C19 1.256 . S
O22 Cd23 2.300 . S
O22 C29 1.275 . S
Cd23 O22 2.300 . S
Cd23 O31 2.381 . S
Cd23 O32 2.378 . S
O24 Cd25 2.385 . S
O24 C29 1.255 . S
Cd25 O24 2.385 . S
Cd25 O26 2.317 . S
O26 Cd25 2.317 . S
O26 C27 1.232 . S
C27 O26 1.232 . S
C27 O28 1.218 . S
O28 C27 1.218 . S
C29 O22 1.275 . S
C29 O24 1.255 . S
C30 O31 1.258 . S
C30 O32 1.256 . S
O31 Cd23 2.381 . S
O31 C30 1.258 . S
O32 Cd23 2.378 . S
O32 C30 1.256 . S
O33 Cd34 2.300 . S
O33 C40 1.275 . S
Cd34 O33 2.300 . S
Cd34 O42 2.381 . S
Cd34 O43 2.378 . S
O35 Cd36 2.385 . S
O35 C40 1.255 . S
Cd36 O35 2.385 . S
Cd36 O37 2.317 . S
O37 Cd36 2.317 . S
O37 C38 1.232 . S
C38 O37 1.232 . S
C38 O39 1.218 . S
O39 C38 1.218 . S
C40 O33 1.275 . S
C40 O35 1.255 . S
C41 O42 1.258 . S
C41 O43 1.256 . S
O42 Cd34 2.381 . S
O42 C41 1.258 . S
O43 Cd34 2.378 . S
O43 C41 1.256 . S
O44 Cd45 2.300 . S
O44 C51 1.275 . S
Cd45 O44 2.300 . S
Cd45 O53 2.381 . S
Cd45 O54 2.378 . S
O46 Cd47 2.385 . S
O46 C51 1.255 . S
Cd47 O46 2.385 . S
Cd47 O48 2.317 . S
O48 Cd47 2.317 . S
O48 C49 1.232 . S
C49 O48 1.232 . S
C49 O50 1.218 . S
O50 C49 1.218 . S
C51 O44 1.275 . S
C51 O46 1.255 . S
C52 O53 1.258 . S
C52 O54 1.256 . S
O53 Cd45 2.381 . S
O53 C52 1.258 . S
O54 Cd45 2.378 . S
O54 C52 1.256 . S
O55 Cd56 2.300 . S
O55 C62 1.275 . S
Cd56 O55 2.300 . S
Cd56 O64 2.381 . S
Cd56 O65 2.378 . S
O57 Cd58 2.385 . S
O57 C62 1.255 . S
Cd58 O57 2.385 . S
Cd58 O59 2.317 . S
O59 Cd58 2.317 . S
O59 C60 1.232 . S
C60 O59 1.232 . S
C60 O61 1.218 . S
O61 C60 1.218 . S
C62 O55 1.275 . S
C62 O57 1.255 . S
C63 O64 1.258 . S
C63 O65 1.256 . S
O64 Cd56 2.381 . S
O64 C63 1.258 . S
O65 Cd56 2.378 . S
O65 C63 1.256 . S
O66 Cd67 2.300 . S
O66 C73 1.275 . S
Cd67 O66 2.300 . S
Cd67 O75 2.381 . S
Cd67 O76 2.378 . S
O68 Cd69 2.385 . S
O68 C73 1.255 . S
Cd69 O68 2.385 . S
Cd69 O70 2.317 . S
O70 Cd69 2.317 . S
O70 C71 1.232 . S
C71 O70 1.232 . S
C71 O72 1.218 . S
O72 C71 1.218 . S
C73 O66 1.275 . S
C73 O68 1.255 . S
C74 O75 1.258 . S
C74 O76 1.256 . S
O75 Cd67 2.381 . S
O75 C74 1.258 . S
O76 Cd67 2.378 . S
O76 C74 1.256 . S
O77 Cd78 2.300 . S
O77 C84 1.275 . S
Cd78 O77 2.300 . S
Cd78 O86 2.381 . S
Cd78 O87 2.378 . S
O79 Cd80 2.385 . S
O79 C84 1.255 . S
Cd80 O79 2.385 . S
Cd80 O81 2.317 . S
O81 Cd80 2.317 . S
O81 C82 1.232 . S
C82 O81 1.232 . S
C82 O83 1.218 . S
O83 C82 1.218 . S
C84 O77 1.275 . S
C84 O79 1.255 . S
C85 O86 1.258 . S
C85 O87 1.256 . S
O86 Cd78 2.381 . S
O86 C85 1.258 . S
O87 Cd78 2.378 . S
O87 C85 1.256 . S
Tb88 N117 2.617 . S
Tb88 N123 2.572 . S
Tb88 O132 2.465 . S
Tb88 O133 2.387 . S
Tb88 O135 2.428 . S
Tb88 O136 2.308 . S
Tb88 O140 2.349 . S
Tb88 O143 2.393 . S
Tb88 C152 2.802 . S
C89 N90 1.379 . S
C89 C92 1.416 . S
C89 C96 1.424 . S
N90 C89 1.379 . S
N90 C93 1.334 . S
N90 Tb99 2.617 . S
C91 C93 1.390 . S
C91 C94 1.339 . S
C91 H111 0.930 . S
C92 C89 1.416 . S
C92 C94 1.416 . S
C92 C98 1.448 . S
C93 N90 1.334 . S
C93 C91 1.390 . S
C93 H104 0.930 . S
C94 C91 1.339 . S
C94 C92 1.416 . S
C94 H115 0.930 . S
C95 C96 1.413 . S
C95 C97 1.427 . S
C95 C101 1.416 . S
C96 C89 1.424 . S
C96 C95 1.413 . S
C96 N100 1.361 . S
C97 C95 1.427 . S
C97 C98 1.328 . S
C97 H112 0.929 . S
C98 C92 1.448 . S
C98 C97 1.328 . S
C98 H113 0.930 . S
Tb99 N90 2.617 . S
Tb99 N100 2.572 . S
Tb99 O134 2.349 1_655 S
Tb99 O137 2.393 . S
Tb99 O138 2.465 . S
Tb99 O139 2.387 . S
Tb99 O141 2.428 . S
Tb99 O142 2.308 1_655 S
Tb99 C163 2.802 . S
N100 C96 1.361 . S
N100 Tb99 2.572 . S
N100 C102 1.340 . S
C101 C95 1.416 . S
C101 C103 1.332 . S
C101 H109 0.931 . S
C102 N100 1.340 . S
C102 C103 1.407 . S
C102 H108 0.930 . S
C103 C101 1.332 . S
C103 C102 1.407 . S
C103 H105 0.929 . S
H104 C93 0.930 . S
H105 C103 0.929 . S
H106 C121 0.930 . S
H107 C128 0.929 . S
H108 C102 0.930 . S
H109 C101 0.931 . S
H110 C124 0.930 . S
H111 C91 0.930 . S
H112 C97 0.929 . S
H113 C98 0.930 . S
H114 C119 0.930 . S
H115 C94 0.930 . S
H116 C127 0.931 . S
N117 Tb88 2.617 . S
N117 C118 1.379 . S
N117 C121 1.334 . S
C118 N117 1.379 . S
C118 C120 1.416 . S
C118 C126 1.424 . S
C119 H114 0.930 . S
C119 C121 1.390 . S
C119 C122 1.339 . S
C120 C118 1.416 . S
C120 C122 1.416 . S
C120 C153 1.448 . S
C121 H106 0.930 . S
C121 N117 1.334 . S
C121 C119 1.390 . S
C122 C119 1.339 . S
C122 C120 1.416 . S
C122 H129 0.930 . S
N123 Tb88 2.572 . S
N123 C124 1.340 . S
N123 C126 1.361 . S
C124 H110 0.930 . S
C124 N123 1.340 . S
C124 C128 1.407 . S
C125 C126 1.413 . S
C125 C127 1.416 . S
C125 C154 1.427 . S
C126 C118 1.424 . S
C126 N123 1.361 . S
C126 C125 1.413 . S
C127 H116 0.931 . S
C127 C125 1.416 . S
C127 C128 1.332 . S
C128 H107 0.929 . S
C128 C124 1.407 . S
C128 C127 1.332 . S
H129 C122 0.930 . S
H130 C153 0.930 . S
H131 C154 0.929 . S
O132 Tb88 2.465 . S
O132 C152 1.264 . S
O133 Tb88 2.387 . S
O133 C144 1.264 . S
O134 Tb99 2.349 1_455 S
O134 C144 1.243 . S
O135 Tb88 2.428 . S
O135 C152 1.256 . S
O136 Tb88 2.308 . S
O136 C151 1.266 1_455 S
O137 Tb99 2.393 . S
O137 C151 1.248 . S
O138 Tb99 2.465 . S
O138 C163 1.264 . S
O139 Tb99 2.387 . S
O139 C155 1.264 . S
O140 Tb88 2.349 . S
O140 C155 1.243 1_455 S
O141 Tb99 2.428 . S
O141 C163 1.256 . S
O142 Tb99 2.308 1_455 S
O142 C162 1.266 . S
O143 Tb88 2.393 . S
O143 C162 1.248 . S
C144 O133 1.264 . S
C144 O134 1.243 . S
C145 C148 1.399 . S
C145 C150 1.383 . S
C145 C152 1.496 . S
C146 C147 1.399 . S
C146 C150 1.389 . S
C147 C146 1.399 . S
C147 C149 1.380 . S
C147 H164 0.929 . S
C148 C145 1.399 . S
C148 C149 1.392 . S
C148 H165 0.929 . S
C149 C147 1.380 . S
C149 C148 1.392 . S
C149 H166 0.929 . S
C150 C145 1.383 . S
C150 C146 1.389 . S
C150 H167 0.931 . S
C151 O136 1.266 1_655 S
C151 O137 1.248 . S
C152 Tb88 2.802 . S
C152 O132 1.264 . S
C152 O135 1.256 . S
C152 C145 1.496 . S
C153 C120 1.448 . S
C153 H130 0.930 . S
C153 C154 1.328 . S
C154 C125 1.427 . S
C154 H131 0.929 . S
C154 C153 1.328 . S
C155 O139 1.264 . S
C155 O140 1.243 1_655 S
C156 C159 1.399 . S
C156 C160 1.383 . S
C156 C163 1.496 . S
C157 C158 1.399 . S
C157 C160 1.389 . S
C158 C157 1.399 . S
C158 C161 1.380 . S
C158 H168 0.929 . S
C159 C156 1.399 . S
C159 C161 1.392 . S
C159 H169 0.929 . S
C160 C156 1.383 . S
C160 C157 1.389 . S
C160 H170 0.931 . S
C161 C158 1.380 . S
C161 C159 1.392 . S
C161 H171 0.929 . S
C162 O142 1.266 . S
C162 O143 1.248 . S
C163 Tb99 2.802 . S
C163 O138 1.264 . S
C163 O141 1.256 . S
C163 C156 1.496 . S
H164 C147 0.929 . S
H165 C148 0.929 . S
H166 C149 0.929 . S
H167 C150 0.931 . S
H168 C158 0.929 . S
H169 C159 0.929 . S
H170 C160 0.931 . S
H171 C161 0.929 . S
Tb172 N201 2.617 . S
Tb172 N207 2.572 . S
Tb172 O216 2.465 . S
Tb172 O217 2.387 . S
Tb172 O219 2.428 . S
Tb172 O220 2.308 . S
Tb172 O224 2.349 . S
Tb172 O227 2.393 . S
Tb172 C236 2.802 . S
C173 N174 1.379 . S
C173 C176 1.416 . S
C173 C180 1.424 . S
N174 C173 1.379 . S
N174 C177 1.334 . S
N174 Tb183 2.617 . S
C175 C177 1.390 . S
C175 C178 1.339 . S
C175 H195 0.930 . S
C176 C173 1.416 . S
C176 C178 1.416 . S
C176 C182 1.448 . S
C177 N174 1.334 . S
C177 C175 1.390 . S
C177 H188 0.930 . S
C178 C175 1.339 . S
C178 C176 1.416 . S
C178 H199 0.930 . S
C179 C180 1.413 . S
C179 C181 1.427 . S
C179 C185 1.416 . S
C180 C173 1.424 . S
C180 C179 1.413 . S
C180 N184 1.361 . S
C181 C179 1.427 . S
C181 C182 1.328 . S
C181 H196 0.929 . S
C182 C176 1.448 . S
C182 C181 1.328 . S
C182 H197 0.930 . S
Tb183 N174 2.617 . S
Tb183 N184 2.572 . S
Tb183 O218 2.349 . S
Tb183 O221 2.393 . S
Tb183 O222 2.465 . S
Tb183 O223 2.387 . S
Tb183 O225 2.428 . S
Tb183 O226 2.308 . S
Tb183 C247 2.802 . S
N184 C180 1.361 . S
N184 Tb183 2.572 . S
N184 C186 1.340 . S
C185 C179 1.416 . S
C185 C187 1.332 . S
C185 H193 0.931 . S
C186 N184 1.340 . S
C186 C187 1.407 . S
C186 H192 0.930 . S
C187 C185 1.332 . S
C187 C186 1.407 . S
C187 H189 0.929 . S
H188 C177 0.930 . S
H189 C187 0.929 . S
H190 C205 0.930 . S
H191 C212 0.929 . S
H192 C186 0.930 . S
H193 C185 0.931 . S
H194 C208 0.930 . S
H195 C175 0.930 . S
H196 C181 0.929 . S
H197 C182 0.930 . S
H198 C203 0.930 . S
H199 C178 0.930 . S
H200 C211 0.931 . S
N201 Tb172 2.617 . S
N201 C202 1.379 . S
N201 C205 1.334 . S
C202 N201 1.379 . S
C202 C204 1.416 . S
C202 C210 1.424 . S
C203 H198 0.930 . S
C203 C205 1.390 . S
C203 C206 1.339 . S
C204 C202 1.416 . S
C204 C206 1.416 . S
C204 C237 1.448 . S
C205 H190 0.930 . S
C205 N201 1.334 . S
C205 C203 1.390 . S
C206 C203 1.339 . S
C206 C204 1.416 . S
C206 H213 0.930 . S
N207 Tb172 2.572 . S
N207 C208 1.340 . S
N207 C210 1.361 . S
C208 H194 0.930 . S
C208 N207 1.340 . S
C208 C212 1.407 . S
C209 C210 1.413 . S
C209 C211 1.416 . S
C209 C238 1.427 . S
C210 C202 1.424 . S
C210 N207 1.361 . S
C210 C209 1.413 . S
C211 H200 0.931 . S
C211 C209 1.416 . S
C211 C212 1.332 . S
C212 H191 0.929 . S
C212 C208 1.407 . S
C212 C211 1.332 . S
H213 C206 0.930 . S
H214 C237 0.930 . S
H215 C238 0.929 . S
O216 Tb172 2.465 . S
O216 C236 1.264 . S
O217 Tb172 2.387 . S
O217 C228 1.264 . S
O218 Tb183 2.349 . S
O218 C228 1.243 . S
O219 Tb172 2.428 . S
O219 C236 1.256 . S
O220 Tb172 2.308 . S
O220 C235 1.266 . S
O221 Tb183 2.393 . S
O221 C235 1.248 . S
O222 Tb183 2.465 . S
O222 C247 1.264 . S
O223 Tb183 2.387 . S
O223 C239 1.264 . S
O224 Tb172 2.349 . S
O224 C239 1.243 . S
O225 Tb183 2.428 . S
O225 C247 1.256 . S
O226 Tb183 2.308 . S
O226 C246 1.266 . S
O227 Tb172 2.393 . S
O227 C246 1.248 . S
C228 O217 1.264 . S
C228 O218 1.243 . S
C229 C232 1.399 . S
C229 C234 1.383 . S
C229 C236 1.496 . S
C230 C231 1.399 . S
C230 C234 1.389 . S
C231 C230 1.399 . S
C231 C233 1.380 . S
C231 H248 0.929 . S
C232 C229 1.399 . S
C232 C233 1.392 . S
C232 H249 0.929 . S
C233 C231 1.380 . S
C233 C232 1.392 . S
C233 H250 0.929 . S
C234 C229 1.383 . S
C234 C230 1.389 . S
C234 H251 0.931 . S
C235 O220 1.266 . S
C235 O221 1.248 . S
C236 Tb172 2.802 . S
C236 O216 1.264 . S
C236 O219 1.256 . S
C236 C229 1.496 . S
C237 C204 1.448 . S
C237 H214 0.930 . S
C237 C238 1.328 . S
C238 C209 1.427 . S
C238 H215 0.929 . S
C238 C237 1.328 . S
C239 O223 1.264 . S
C239 O224 1.243 . S
C240 C243 1.399 . S
C240 C244 1.383 . S
C240 C247 1.496 . S
C241 C242 1.399 . S
C241 C244 1.389 . S
C242 C241 1.399 . S
C242 C245 1.380 . S
C242 H252 0.929 . S
C243 C240 1.399 . S
C243 C245 1.392 . S
C243 H253 0.929 . S
C244 C240 1.383 . S
C244 C241 1.389 . S
C244 H254 0.931 . S
C245 C242 1.380 . S
C245 C243 1.392 . S
C245 H255 0.929 . S
C246 O226 1.266 . S
C246 O227 1.248 . S
C247 Tb183 2.802 . S
C247 O222 1.264 . S
C247 O225 1.256 . S
C247 C240 1.496 . S
H248 C231 0.929 . S
H249 C232 0.929 . S
H250 C233 0.929 . S
H251 C234 0.931 . S
H252 C242 0.929 . S
H253 C243 0.929 . S
H254 C244 0.931 . S
H255 C245 0.929 . S
Tb256 N285 2.617 . S
Tb256 N291 2.572 . S
Tb256 O300 2.465 . S
Tb256 O301 2.387 . S
Tb256 O303 2.428 . S
Tb256 O304 2.319 . S
Tb256 O308 2.330 1_455 S
Tb256 O311 2.393 . S
Tb256 C320 2.802 . S
C257 N258 1.379 . S
C257 C260 1.416 . S
C257 C264 1.424 . S
N258 C257 1.379 . S
N258 C261 1.334 . S
N258 Tb267 2.617 . S
C259 C261 1.390 . S
C259 C262 1.339 . S
C259 H279 0.930 . S
C260 C257 1.416 . S
C260 C262 1.416 . S
C260 C266 1.448 . S
C261 N258 1.334 . S
C261 C259 1.390 . S
C261 H272 0.930 . S
C262 C259 1.339 . S
C262 C260 1.416 . S
C262 H283 0.930 . S
C263 C264 1.413 . S
C263 C265 1.427 . S
C263 C269 1.416 . S
C264 C257 1.424 . S
C264 C263 1.413 . S
C264 N268 1.361 . S
C265 C263 1.427 . S
C265 C266 1.328 . S
C265 H280 0.929 . S
C266 C260 1.448 . S
C266 C265 1.328 . S
C266 H281 0.930 . S
Tb267 N258 2.617 . S
Tb267 N268 2.572 . S
Tb267 O302 2.349 1_655 S
Tb267 O305 2.393 . S
Tb267 O306 2.465 . S
Tb267 O307 2.387 . S
Tb267 O309 2.428 . S
Tb267 O310 2.310 1_655 S
Tb267 C331 2.802 . S
N268 C264 1.361 . S
N268 Tb267 2.572 . S
N268 C270 1.340 . S
C269 C263 1.416 . S
C269 C271 1.332 . S
C269 H277 0.931 . S
C270 N268 1.340 . S
C270 C271 1.407 . S
C270 H276 0.930 . S
C271 C269 1.332 . S
C271 C270 1.407 . S
C271 H273 0.929 . S
H272 C261 0.930 . S
H273 C271 0.929 . S
H274 C289 0.930 . S
H275 C296 0.929 . S
H276 C270 0.930 . S
H277 C269 0.931 . S
H278 C292 0.930 . S
H279 C259 0.930 . S
H280 C265 0.929 . S
H281 C266 0.930 . S
H282 C287 0.930 . S
H283 C262 0.930 . S
H284 C295 0.931 . S
N285 Tb256 2.617 . S
N285 C286 1.379 . S
N285 C289 1.334 . S
C286 N285 1.379 . S
C286 C288 1.416 . S
C286 C294 1.424 . S
C287 H282 0.930 . S
C287 C289 1.390 . S
C287 C290 1.339 . S
C288 C286 1.416 . S
C288 C290 1.416 . S
C288 C321 1.448 . S
C289 H274 0.930 . S
C289 N285 1.334 . S
C289 C287 1.390 . S
C290 C287 1.339 . S
C290 C288 1.416 . S
C290 H297 0.930 . S
N291 Tb256 2.572 . S
N291 C292 1.340 . S
N291 C294 1.361 . S
C292 H278 0.930 . S
C292 N291 1.340 . S
C292 C296 1.407 . S
C293 C294 1.413 . S
C293 C295 1.416 . S
C293 C322 1.427 . S
C294 C286 1.424 . S
C294 N291 1.361 . S
C294 C293 1.413 . S
C295 H284 0.931 . S
C295 C293 1.416 . S
C295 C296 1.332 . S
C296 H275 0.929 . S
C296 C292 1.407 . S
C296 C295 1.332 . S
H297 C290 0.930 . S
H298 C321 0.930 . S
H299 C322 0.929 . S
O300 Tb256 2.465 . S
O300 C320 1.264 . S
O301 Tb256 2.387 . S
O301 C312 1.264 . S
O302 Tb267 2.349 1_455 S
O302 C312 1.243 . S
O303 Tb256 2.428 . S
O303 C320 1.256 . S
O304 Tb256 2.319 . S
O304 C319 1.253 1_455 S
O305 Tb267 2.393 . S
O305 C319 1.248 . S
O306 Tb267 2.465 . S
O306 C331 1.264 . S
O307 Tb267 2.387 . S
O307 C323 1.264 . S
O308 Tb256 2.330 1_655 S
O308 C323 1.267 . S
O309 Tb267 2.428 . S
O309 C331 1.256 . S
O310 Tb267 2.310 1_455 S
O310 C330 1.264 . S
O311 Tb256 2.393 . S
O311 C330 1.248 . S
C312 O301 1.264 . S
C312 O302 1.243 . S
C313 C316 1.399 . S
C313 C318 1.383 . S
C313 C320 1.496 . S
C314 C315 1.399 . S
C314 C318 1.389 . S
C315 C314 1.399 . S
C315 C317 1.380 . S
C315 H332 0.929 . S
C316 C313 1.399 . S
C316 C317 1.392 . S
C316 H333 0.929 . S
C317 C315 1.380 . S
C317 C316 1.392 . S
C317 H334 0.929 . S
C318 C313 1.383 . S
C318 C314 1.389 . S
C318 H335 0.931 . S
C319 O304 1.253 1_655 S
C319 O305 1.248 . S
C320 Tb256 2.802 . S
C320 O300 1.264 . S
C320 O303 1.256 . S
C320 C313 1.496 . S
C321 C288 1.448 . S
C321 H298 0.930 . S
C321 C322 1.328 . S
C322 C293 1.427 . S
C322 H299 0.929 . S
C322 C321 1.328 . S
C323 O307 1.264 . S
C323 O308 1.267 . S
C324 C327 1.399 . S
C324 C328 1.383 . S
C324 C331 1.496 . S
C325 C326 1.399 . S
C325 C328 1.389 . S
C326 C325 1.399 . S
C326 C329 1.380 . S
C326 H336 0.929 . S
C327 C324 1.399 . S
C327 C329 1.392 . S
C327 H337 0.929 . S
C328 C324 1.383 . S
C328 C325 1.389 . S
C328 H338 0.931 . S
C329 C326 1.380 . S
C329 C327 1.392 . S
C329 H339 0.929 . S
C330 O310 1.264 . S
C330 O311 1.248 . S
C331 Tb267 2.802 . S
C331 O306 1.264 . S
C331 O309 1.256 . S
C331 C324 1.496 . S
H332 C315 0.929 . S
H333 C316 0.929 . S
H334 C317 0.929 . S
H335 C318 0.931 . S
H336 C326 0.929 . S
H337 C327 0.929 . S
H338 C328 0.931 . S
H339 C329 0.929 . S
Tb340 N369 2.617 . S
Tb340 N375 2.572 . S
Tb340 O384 2.465 . S
Tb340 O385 2.387 . S
Tb340 O387 2.428 . S
Tb340 O388 2.308 . S
Tb340 O392 2.349 . S
Tb340 O395 2.393 . S
Tb340 C404 2.802 . S
C341 N342 1.379 . S
C341 C344 1.416 . S
C341 C348 1.424 . S
N342 C341 1.379 . S
N342 C345 1.334 . S
N342 Tb351 2.617 . S
C343 C345 1.390 . S
C343 C346 1.339 . S
C343 H363 0.930 . S
C344 C341 1.416 . S
C344 C346 1.416 . S
C344 C350 1.448 . S
C345 N342 1.334 . S
C345 C343 1.390 . S
C345 H356 0.930 . S
C346 C343 1.339 . S
C346 C344 1.416 . S
C346 H367 0.930 . S
C347 C348 1.413 . S
C347 C349 1.427 . S
C347 C353 1.416 . S
C348 C341 1.424 . S
C348 C347 1.413 . S
C348 N352 1.361 . S
C349 C347 1.427 . S
C349 C350 1.328 . S
C349 H364 0.929 . S
C350 C344 1.448 . S
C350 C349 1.328 . S
C350 H365 0.930 . S
Tb351 N342 2.617 . S
Tb351 N352 2.572 . S
Tb351 O386 2.349 . S
Tb351 O389 2.393 . S
Tb351 O390 2.465 . S
Tb351 O391 2.387 . S
Tb351 O393 2.428 . S
Tb351 O394 2.308 . S
Tb351 C415 2.802 . S
N352 C348 1.361 . S
N352 Tb351 2.572 . S
N352 C354 1.340 . S
C353 C347 1.416 . S
C353 C355 1.332 . S
C353 H361 0.931 . S
C354 N352 1.340 . S
C354 C355 1.407 . S
C354 H360 0.930 . S
C355 C353 1.332 . S
C355 C354 1.407 . S
C355 H357 0.929 . S
H356 C345 0.930 . S
H357 C355 0.929 . S
H358 C373 0.930 . S
H359 C380 0.929 . S
H360 C354 0.930 . S
H361 C353 0.931 . S
H362 C376 0.930 . S
H363 C343 0.930 . S
H364 C349 0.929 . S
H365 C350 0.930 . S
H366 C371 0.930 . S
H367 C346 0.930 . S
H368 C379 0.931 . S
N369 Tb340 2.617 . S
N369 C370 1.379 . S
N369 C373 1.334 . S
C370 N369 1.379 . S
C370 C372 1.416 . S
C370 C378 1.424 . S
C371 H366 0.930 . S
C371 C373 1.390 . S
C371 C374 1.339 . S
C372 C370 1.416 . S
C372 C374 1.416 . S
C372 C405 1.448 . S
C373 H358 0.930 . S
C373 N369 1.334 . S
C373 C371 1.390 . S
C374 C371 1.339 . S
C374 C372 1.416 . S
C374 H381 0.930 . S
N375 Tb340 2.572 . S
N375 C376 1.340 . S
N375 C378 1.361 . S
C376 H362 0.930 . S
C376 N375 1.340 . S
C376 C380 1.407 . S
C377 C378 1.413 . S
C377 C379 1.416 . S
C377 C406 1.427 . S
C378 C370 1.424 . S
C378 N375 1.361 . S
C378 C377 1.413 . S
C379 H368 0.931 . S
C379 C377 1.416 . S
C379 C380 1.332 . S
C380 H359 0.929 . S
C380 C376 1.407 . S
C380 C379 1.332 . S
H381 C374 0.930 . S
H382 C405 0.930 . S
H383 C406 0.929 . S
O384 Tb340 2.465 . S
O384 C404 1.264 . S
O385 Tb340 2.387 . S
O385 C396 1.264 . S
O386 Tb351 2.349 . S
O386 C396 1.243 . S
O387 Tb340 2.428 . S
O387 C404 1.256 . S
O388 Tb340 2.308 . S
O388 C403 1.266 . S
O389 Tb351 2.393 . S
O389 C403 1.248 . S
O390 Tb351 2.465 . S
O390 C415 1.264 . S
O391 Tb351 2.387 . S
O391 C407 1.264 . S
O392 Tb340 2.349 . S
O392 C407 1.243 . S
O393 Tb351 2.428 . S
O393 C415 1.256 . S
O394 Tb351 2.308 . S
O394 C414 1.266 . S
O395 Tb340 2.393 . S
O395 C414 1.248 . S
C396 O385 1.264 . S
C396 O386 1.243 . S
C397 C400 1.399 . S
C397 C402 1.383 . S
C397 C404 1.496 . S
C398 C399 1.399 . S
C398 C402 1.389 . S
C399 C398 1.399 . S
C399 C401 1.380 . S
C399 H416 0.929 . S
C400 C397 1.399 . S
C400 C401 1.392 . S
C400 H417 0.929 . S
C401 C399 1.380 . S
C401 C400 1.392 . S
C401 H418 0.929 . S
C402 C397 1.383 . S
C402 C398 1.389 . S
C402 H419 0.931 . S
C403 O388 1.266 . S
C403 O389 1.248 . S
C404 Tb340 2.802 . S
C404 O384 1.264 . S
C404 O387 1.256 . S
C404 C397 1.496 . S
C405 C372 1.448 . S
C405 H382 0.930 . S
C405 C406 1.328 . S
C406 C377 1.427 . S
C406 H383 0.929 . S
C406 C405 1.328 . S
C407 O391 1.264 . S
C407 O392 1.243 . S
C408 C411 1.399 . S
C408 C412 1.383 . S
C408 C415 1.496 . S
C409 C410 1.399 . S
C409 C412 1.389 . S
C410 C409 1.399 . S
C410 C413 1.380 . S
C410 H420 0.929 . S
C411 C408 1.399 . S
C411 C413 1.392 . S
C411 H421 0.929 . S
C412 C408 1.383 . S
C412 C409 1.389 . S
C412 H422 0.931 . S
C413 C410 1.380 . S
C413 C411 1.392 . S
C413 H423 0.929 . S
C414 O394 1.266 . S
C414 O395 1.248 . S
C415 Tb351 2.802 . S
C415 O390 1.264 . S
C415 O393 1.256 . S
C415 C408 1.496 . S
H416 C399 0.929 . S
H417 C400 0.929 . S
H418 C401 0.929 . S
H419 C402 0.931 . S
H420 C410 0.929 . S
H421 C411 0.929 . S
H422 C412 0.931 . S
H423 C413 0.929 . S
H424 C442 0.951 . S
H425 C444 0.951 . S
H426 C446 0.950 . S
H427 C447 0.950 . S
H428 C449 0.950 . S
H429 C452 0.950 . S
H430 C453 0.950 . S
H431 C455 0.950 . S
H432 C456 0.950 . S
H433 C457 0.951 . S
H434 C459 0.951 1_565 S
H435 C461 0.950 . S
H436 C462 0.950 . S
H437 C464 0.950 . S
H438 C467 0.950 . S
H439 C468 0.950 . S
H440 C470 0.950 . S
H441 C471 0.950 . S
C442 H424 0.951 . S
C442 C443 1.366 . S
C442 C444 1.388 . S
C443 C442 1.366 . S
C443 C447 1.385 . S
C444 H425 0.951 . S
C444 C442 1.388 . S
C444 C445 1.366 . S
C445 C444 1.366 . S
C445 C446 1.414 . S
C445 C448 1.499 . S
C446 H426 0.950 . S
C446 C445 1.414 . S
C446 C447 1.374 . S
C447 H427 0.950 . S
C447 C443 1.385 . S
C447 C446 1.374 . S
C448 C445 1.499 . S
C448 C449 1.373 . S
C448 C450 1.389 . S
C449 H428 0.950 . S
C449 C448 1.373 . S
C449 C465 1.377 . S
C450 C448 1.389 . S
C450 C451 1.524 . S
C450 C464 1.377 1_565 S
C451 C450 1.524 . S
C451 C452 1.397 . S
C451 C456 1.363 1_565 S
C452 H429 0.950 . S
C452 C451 1.397 . S
C452 C453 1.334 . S
C453 H430 0.950 . S
C453 C452 1.334 . S
C453 C454 1.287 1_565 S
C454 C453 1.287 1_545 S
C454 C455 1.524 . S
C454 H473 0.913 . S
C455 H431 0.950 . S
C455 C454 1.524 . S
C455 C456 1.415 . S
C456 H432 0.950 . S
C456 C451 1.363 1_545 S
C456 C455 1.415 . S
C457 H433 0.951 . S
C457 C458 1.366 . S
C457 C459 1.388 . S
C458 C457 1.366 . S
C458 C462 1.385 . S
C459 H434 0.951 1_545 S
C459 C457 1.388 . S
C459 C460 1.366 . S
C460 C459 1.366 . S
C460 C461 1.414 . S
C460 C463 1.499 1_545 S
C461 H435 0.950 . S
C461 C460 1.414 . S
C461 C462 1.374 . S
C462 H436 0.950 . S
C462 C458 1.385 . S
C462 C461 1.374 . S
C463 C460 1.499 1_565 S
C463 C464 1.373 1_565 S
C463 C465 1.389 . S
C464 H437 0.950 . S
C464 C450 1.377 1_545 S
C464 C463 1.373 1_545 S
C465 C449 1.377 . S
C465 C463 1.389 . S
C465 C466 1.524 . S
C466 C465 1.524 . S
C466 C467 1.397 . S
C466 C471 1.363 . S
C467 H438 0.950 . S
C467 C466 1.397 . S
C467 C468 1.334 . S
C468 H439 0.950 . S
C468 C467 1.334 . S
C468 C469 1.287 . S
C469 C468 1.287 . S
C469 C470 1.524 . S
C469 H472 0.999 . S
C470 H440 0.950 . S
C470 C469 1.524 . S
C470 C471 1.415 . S
C471 H441 0.950 . S
C471 C466 1.363 . S
C471 C470 1.415 . S
H472 C469 0.999 . S
H473 C454 0.913 . S
H474 C492 0.951 . S
H475 C494 0.951 . S
H476 C496 0.950 . S
H477 C497 0.950 . S
H478 C499 0.950 . S
H479 C502 0.950 . S
H480 C503 0.950 . S
H481 C505 0.950 . S
H482 C506 0.950 . S
H483 C507 0.951 . S
H484 C509 0.951 . S
H485 C511 0.950 . S
H486 C512 0.950 . S
H487 C514 0.950 . S
H488 C517 0.950 . S
H489 C518 0.950 . S
H490 C520 0.950 . S
H491 C521 0.950 . S
C492 H474 0.951 . S
C492 C493 1.366 . S
C492 C494 1.388 . S
C493 C492 1.366 . S
C493 C497 1.385 . S
C494 H475 0.951 . S
C494 C492 1.388 . S
C494 C495 1.366 . S
C495 C494 1.366 . S
C495 C496 1.414 . S
C495 C498 1.499 . S
C496 H476 0.950 . S
C496 C495 1.414 . S
C496 C497 1.374 . S
C497 H477 0.950 . S
C497 C493 1.385 . S
C497 C496 1.374 . S
C498 C495 1.499 . S
C498 C499 1.373 . S
C498 C500 1.389 . S
C499 H478 0.950 . S
C499 C498 1.373 . S
C499 C515 1.377 . S
C500 C498 1.389 . S
C500 C501 1.524 . S
C500 C514 1.377 . S
C501 C500 1.524 . S
C501 C502 1.397 . S
C501 C506 1.363 . S
C502 H479 0.950 . S
C502 C501 1.397 . S
C502 C503 1.334 . S
C503 H480 0.950 . S
C503 C502 1.334 . S
C503 C504 1.287 . S
C504 C503 1.287 . S
C504 C505 1.524 . S
C504 H523 0.913 . S
C505 H481 0.950 . S
C505 C504 1.524 . S
C505 C506 1.415 . S
C506 H482 0.950 . S
C506 C501 1.363 . S
C506 C505 1.415 . S
C507 H483 0.951 . S
C507 C508 1.366 . S
C507 C509 1.388 . S
C508 C507 1.366 . S
C508 C512 1.385 . S
C509 H484 0.951 . S
C509 C507 1.388 . S
C509 C510 1.366 . S
C510 C509 1.366 . S
C510 C511 1.414 . S
C510 C513 1.499 . S
C511 H485 0.950 . S
C511 C510 1.414 . S
C511 C512 1.374 . S
C512 H486 0.950 . S
C512 C508 1.385 . S
C512 C511 1.374 . S
C513 C510 1.499 . S
C513 C514 1.373 . S
C513 C515 1.389 . S
C514 H487 0.950 . S
C514 C500 1.377 . S
C514 C513 1.373 . S
C515 C499 1.377 . S
C515 C513 1.389 . S
C515 C516 1.524 . S
C516 C515 1.524 . S
C516 C517 1.397 . S
C516 C521 1.363 . S
C517 H488 0.950 . S
C517 C516 1.397 . S
C517 C518 1.334 . S
C518 H489 0.950 . S
C518 C517 1.334 . S
C518 C519 1.287 . S
C519 C518 1.287 . S
C519 C520 1.524 . S
C519 H522 0.999 . S
C520 H490 0.950 . S
C520 C519 1.524 . S
C520 C521 1.415 . S
C521 H491 0.950 . S
C521 C516 1.363 . S
C521 C520 1.415 . S
H522 C519 0.999 . S
H523 C504 0.913 . S
H524 C542 0.951 . S
H525 C544 0.951 . S
H526 C546 0.950 . S
H527 C547 0.950 . S
H528 C549 0.950 . S
H529 C552 0.950 . S
H530 C553 0.950 . S
H531 C555 0.950 . S
H532 C556 0.950 . S
H533 C557 0.951 . S
H534 C559 0.951 . S
H535 C561 0.950 . S
H536 C562 0.950 . S
H537 C564 0.950 . S
H538 C567 0.950 . S
H539 C568 0.950 . S
H540 C570 0.950 . S
H541 C571 0.950 . S
C542 H524 0.951 . S
C542 C543 1.366 . S
C542 C544 1.388 . S
C543 C542 1.366 . S
C543 C547 1.385 . S
C544 H525 0.951 . S
C544 C542 1.388 . S
C544 C545 1.366 . S
C545 C544 1.366 . S
C545 C546 1.414 . S
C545 C548 1.499 . S
C546 H526 0.950 . S
C546 C545 1.414 . S
C546 C547 1.374 . S
C547 H527 0.950 . S
C547 C543 1.385 . S
C547 C546 1.374 . S
C548 C545 1.499 . S
C548 C549 1.373 . S
C548 C550 1.389 . S
C549 H528 0.950 . S
C549 C548 1.373 . S
C549 C565 1.377 . S
C550 C548 1.389 . S
C550 C551 1.524 . S
C550 C564 1.377 . S
C551 C550 1.524 . S
C551 C552 1.397 . S
C551 C556 1.363 . S
C552 H529 0.950 . S
C552 C551 1.397 . S
C552 C553 1.334 . S
C553 H530 0.950 . S
C553 C552 1.334 . S
C553 C554 1.287 . S
C554 C553 1.287 . S
C554 C555 1.524 . S
C554 H573 0.913 . S
C555 H531 0.950 . S
C555 C554 1.524 . S
C555 C556 1.415 . S
C556 H532 0.950 . S
C556 C551 1.363 . S
C556 C555 1.415 . S
C557 H533 0.951 . S
C557 C558 1.366 . S
C557 C559 1.388 . S
C558 C557 1.366 . S
C558 C562 1.385 . S
C559 H534 0.951 . S
C559 C557 1.388 . S
C559 C560 1.366 . S
C560 C559 1.366 . S
C560 C561 1.414 . S
C560 C563 1.499 . S
C561 H535 0.950 . S
C561 C560 1.414 . S
C561 C562 1.374 . S
C562 H536 0.950 . S
C562 C558 1.385 . S
C562 C561 1.374 . S
C563 C560 1.499 . S
C563 C564 1.373 . S
C563 C565 1.389 . S
C564 H537 0.950 . S
C564 C550 1.377 . S
C564 C563 1.373 . S
C565 C549 1.377 . S
C565 C563 1.389 . S
C565 C566 1.524 . S
C566 C565 1.524 . S
C566 C567 1.397 . S
C566 C571 1.363 . S
C567 H538 0.950 . S
C567 C566 1.397 . S
C567 C568 1.334 . S
C568 H539 0.950 . S
C568 C567 1.334 . S
C568 C569 1.287 . S
C569 C568 1.287 . S
C569 C570 1.524 . S
C569 H572 0.999 . S
C570 H540 0.950 . S
C570 C569 1.524 . S
C570 C571 1.415 . S
C571 H541 0.950 . S
C571 C566 1.363 . S
C571 C570 1.415 . S
H572 C569 0.999 . S
H573 C554 0.913 . S
H574 C592 0.951 . S
H575 C594 0.951 . S
H576 C596 0.950 . S
H577 C597 0.950 . S
H578 C599 0.950 . S
H579 C602 0.950 . S
H580 C603 0.950 1_565 S
H581 C605 0.950 . S
H582 C606 0.950 . S
H583 C607 0.951 1_455 S
H584 C609 0.994 . S
H585 C611 0.950 . S
H586 C612 0.950 . S
H587 C614 0.950 . S
H588 C617 0.950 . S
H589 C618 0.950 . S
H590 C620 0.950 . S
H591 C621 0.950 . S
C592 H574 0.951 . S
C592 C593 1.366 . S
C592 C594 1.388 . S
C593 C592 1.366 . S
C593 C597 1.385 . S
C594 H575 0.951 . S
C594 C592 1.388 . S
C594 C595 1.366 . S
C595 C594 1.366 . S
C595 C596 1.414 . S
C595 C598 1.499 . S
C596 H576 0.950 . S
C596 C595 1.414 . S
C596 C597 1.374 . S
C597 H577 0.950 . S
C597 C593 1.385 . S
C597 C596 1.374 . S
C598 C595 1.499 . S
C598 C599 1.373 . S
C598 C600 1.389 . S
C599 H578 0.950 . S
C599 C598 1.373 . S
C599 C615 1.377 . S
C600 C598 1.389 . S
C600 C601 1.524 1_565 S
C600 C614 1.377 1_565 S
C601 C600 1.524 1_545 S
C601 C602 1.397 1_545 S
C601 C606 1.363 . S
C602 H579 0.950 . S
C602 C601 1.397 1_565 S
C602 C603 1.334 1_565 S
C603 H580 0.950 1_545 S
C603 C602 1.334 1_545 S
C603 C604 1.287 . S
C604 C603 1.287 . S
C604 C605 1.524 . S
C604 H623 0.913 . S
C605 H581 0.950 . S
C605 C604 1.524 . S
C605 C606 1.415 . S
C606 H582 0.950 . S
C606 C601 1.363 . S
C606 C605 1.415 . S
C607 H583 0.951 1_655 S
C607 C608 1.366 . S
C607 C609 1.388 . S
C608 C607 1.366 . S
C608 C612 1.385 . S
C609 H584 0.994 . S
C609 C607 1.388 . S
C609 C610 1.366 . S
C610 C609 1.366 . S
C610 C611 1.414 . S
C610 C613 1.499 . S
C611 H585 0.950 . S
C611 C610 1.414 . S
C611 C612 1.374 . S
C612 H586 0.950 . S
C612 C608 1.385 . S
C612 C611 1.374 . S
C613 C610 1.499 . S
C613 C614 1.373 . S
C613 C615 1.389 1_545 S
C614 H587 0.950 . S
C614 C600 1.377 1_545 S
C614 C613 1.373 . S
C615 C599 1.377 . S
C615 C613 1.389 1_565 S
C615 C616 1.524 . S
C616 C615 1.524 . S
C616 C617 1.397 . S
C616 C621 1.363 . S
C617 H588 0.950 . S
C617 C616 1.397 . S
C617 C618 1.334 . S
C618 H589 0.950 . S
C618 C617 1.334 . S
C618 C619 1.287 . S
C619 C618 1.287 . S
C619 C620 1.524 . S
C619 H622 0.999 . S
C620 H590 0.950 . S
C620 C619 1.524 . S
C620 C621 1.415 . S
C621 H591 0.950 . S
C621 C616 1.363 . S
C621 C620 1.415 . S
H622 C619 0.999 . S
H623 C604 0.913 . S
H624 C642 0.951 . S
H625 C644 0.951 . S
H626 C646 0.950 . S
H627 C647 0.950 . S
H628 C649 0.950 . S
H629 C652 0.950 . S
H630 C653 0.950 . S
H631 C655 0.950 1_455 S
H632 C656 0.950 . S
H633 C657 0.951 . S
H634 C659 0.951 . S
H635 C661 0.951 . S
H636 C662 0.950 . S
H637 C664 0.950 . S
H638 C667 0.950 1_545 S
H639 C668 0.950 . S
H640 C670 0.950 . S
H641 C671 0.950 . S
C642 H624 0.951 . S
C642 C643 1.366 . S
C642 C644 1.388 . S
C643 C642 1.366 . S
C643 C647 1.385 . S
C644 H625 0.951 . S
C644 C642 1.388 . S
C644 C645 1.366 . S
C645 C644 1.366 . S
C645 C646 1.414 . S
C645 C648 1.499 . S
C646 H626 0.950 . S
C646 C645 1.414 . S
C646 C647 1.374 . S
C647 H627 0.950 . S
C647 C643 1.385 . S
C647 C646 1.374 . S
C648 C645 1.499 . S
C648 C649 1.373 . S
C648 C650 1.389 . S
C649 H628 0.950 . S
C649 C648 1.373 . S
C649 C665 1.377 . S
C650 C648 1.389 . S
C650 C651 1.524 . S
C650 C664 1.377 . S
C651 C650 1.524 . S
C651 C652 1.397 . S
C651 C656 1.363 . S
C652 H629 0.950 . S
C652 C651 1.397 . S
C652 C653 1.334 . S
C653 H630 0.950 . S
C653 C652 1.334 . S
C653 C654 1.287 . S
C654 C653 1.287 . S
C654 C655 1.524 . S
C654 H673 0.913 . S
C655 H631 0.950 1_655 S
C655 C654 1.524 . S
C655 C656 1.415 . S
C656 H632 0.950 . S
C656 C651 1.363 . S
C656 C655 1.415 . S
C657 H633 0.951 . S
C657 C658 1.366 . S
C657 C659 1.388 . S
C658 C657 1.366 . S
C658 C662 1.385 . S
C659 H634 0.951 . S
C659 C657 1.388 . S
C659 C660 1.366 . S
C660 C659 1.366 . S
C660 C661 1.414 . S
C660 C663 1.472 1_565 S
C661 H635 0.951 . S
C661 C660 1.414 . S
C661 C662 1.374 . S
C662 H636 0.950 . S
C662 C658 1.385 . S
C662 C661 1.374 . S
C663 C660 1.472 1_545 S
C663 C664 1.392 . S
C663 C665 1.398 . S
C664 H637 0.950 . S
C664 C650 1.377 . S
C664 C663 1.392 . S
C665 C649 1.377 . S
C665 C663 1.398 . S
C665 C666 1.524 1_545 S
C666 C665 1.524 1_565 S
C666 C667 1.397 . S
C666 C671 1.363 . S
C667 H638 0.950 1_565 S
C667 C666 1.397 . S
C667 C668 1.334 . S
C668 H639 0.950 . S
C668 C667 1.334 . S
C668 C669 1.287 . S
C669 C668 1.287 . S
C669 C670 1.524 . S
C669 H672 0.999 . S
C670 H640 0.950 . S
C670 C669 1.524 . S
C670 C671 1.415 . S
C671 H641 0.950 . S
C671 C666 1.363 . S
C671 C670 1.415 . S
H672 C669 0.999 . S
H673 C654 0.913 . S
H674 C692 0.951 . S
H675 C694 0.951 . S
H676 C696 0.950 . S
H677 C697 0.950 . S
H678 C699 0.950 . S
H679 C702 0.950 . S
H680 C703 0.950 . S
H681 C705 0.950 . S
H682 C706 0.950 . S
H683 C707 0.951 . S
H684 C709 0.951 . S
H685 C711 0.950 . S
H686 C712 0.950 . S
H687 C714 0.950 . S
H688 C717 0.950 . S
H689 C718 0.950 . S
H690 C720 0.950 . S
H691 C721 0.950 . S
C692 H674 0.951 . S
C692 C693 1.366 . S
C692 C694 1.388 . S
C693 C692 1.366 . S
C693 C697 1.385 . S
C694 H675 0.951 . S
C694 C692 1.388 . S
C694 C695 1.366 . S
C695 C694 1.366 . S
C695 C696 1.414 . S
C695 C698 1.499 . S
C696 H676 0.950 . S
C696 C695 1.414 . S
C696 C697 1.374 . S
C697 H677 0.950 . S
C697 C693 1.385 . S
C697 C696 1.374 . S
C698 C695 1.499 . S
C698 C699 1.373 . S
C698 C700 1.389 . S
C699 H678 0.950 . S
C699 C698 1.373 . S
C699 C715 1.377 . S
C700 C698 1.389 . S
C700 C701 1.524 . S
C700 C714 1.377 . S
C701 C700 1.524 . S
C701 C702 1.397 . S
C701 C706 1.363 . S
C702 H679 0.950 . S
C702 C701 1.397 . S
C702 C703 1.334 . S
C703 H680 0.950 . S
C703 C702 1.334 . S
C703 C704 1.287 . S
C704 C703 1.287 . S
C704 C705 1.524 . S
C704 H723 0.913 . S
C705 H681 0.950 . S
C705 C704 1.524 . S
C705 C706 1.415 . S
C706 H682 0.950 . S
C706 C701 1.363 . S
C706 C705 1.415 . S
C707 H683 0.951 . S
C707 C708 1.366 . S
C707 C709 1.388 . S
C708 C707 1.366 . S
C708 C712 1.385 . S
C709 H684 0.951 . S
C709 C707 1.388 . S
C709 C710 1.366 . S
C710 C709 1.366 . S
C710 C711 1.414 . S
C710 C713 1.499 . S
C711 H685 0.950 . S
C711 C710 1.414 . S
C711 C712 1.374 . S
C712 H686 0.950 . S
C712 C708 1.385 . S
C712 C711 1.374 . S
C713 C710 1.499 . S
C713 C714 1.373 . S
C713 C715 1.389 . S
C714 H687 0.950 . S
C714 C700 1.377 . S
C714 C713 1.373 . S
C715 C699 1.377 . S
C715 C713 1.389 . S
C715 C716 1.524 . S
C716 C715 1.524 . S
C716 C717 1.397 . S
C716 C721 1.363 . S
C717 H688 0.950 . S
C717 C716 1.397 . S
C717 C718 1.334 . S
C718 H689 0.950 . S
C718 C717 1.334 . S
C718 C719 1.287 . S
C719 C718 1.287 . S
C719 C720 1.524 . S
C719 H722 0.999 . S
C720 H690 0.950 . S
C720 C719 1.524 . S
C720 C721 1.415 . S
C721 H691 0.950 . S
C721 C716 1.363 . S
C721 C720 1.415 . S
H722 C719 0.999 . S
H723 C704 0.913 . S
H724 C742 0.951 . S
H725 C744 0.951 . S
H726 C746 0.950 . S
H727 C747 0.950 . S
H728 C749 0.950 . S
H729 C752 0.950 . S
H730 C753 0.950 . S
H731 C755 0.950 . S
H732 C756 0.950 . S
H733 C757 0.951 . S
H734 C759 0.951 . S
H735 C761 0.950 . S
H736 C762 0.950 . S
H737 C764 0.950 . S
H738 C767 0.950 . S
H739 C768 0.950 . S
H740 C770 0.950 . S
H741 C771 0.950 . S
C742 H724 0.951 . S
C742 C743 1.366 . S
C742 C744 1.388 . S
C743 C742 1.366 . S
C743 C747 1.385 . S
C744 H725 0.951 . S
C744 C742 1.388 . S
C744 C745 1.366 . S
C745 C744 1.366 . S
C745 C746 1.414 . S
C745 C748 1.499 . S
C746 H726 0.950 . S
C746 C745 1.414 . S
C746 C747 1.374 . S
C747 H727 0.950 . S
C747 C743 1.385 . S
C747 C746 1.374 . S
C748 C745 1.499 . S
C748 C749 1.373 . S
C748 C750 1.389 . S
C749 H728 0.950 . S
C749 C748 1.373 . S
C749 C765 1.377 . S
C750 C748 1.389 . S
C750 C751 1.524 . S
C750 C764 1.377 . S
C751 C750 1.524 . S
C751 C752 1.397 . S
C751 C756 1.363 . S
C752 H729 0.950 . S
C752 C751 1.397 . S
C752 C753 1.334 . S
C753 H730 0.950 . S
C753 C752 1.334 . S
C753 C754 1.287 . S
C754 C753 1.287 . S
C754 C755 1.524 . S
C754 H773 0.913 . S
C755 H731 0.950 . S
C755 C754 1.524 . S
C755 C756 1.415 . S
C756 H732 0.950 . S
C756 C751 1.363 . S
C756 C755 1.415 . S
C757 H733 0.951 . S
C757 C758 1.366 . S
C757 C759 1.388 . S
C758 C757 1.366 . S
C758 C762 1.385 . S
C759 H734 0.951 . S
C759 C757 1.388 . S
C759 C760 1.366 . S
C760 C759 1.366 . S
C760 C761 1.414 . S
C760 C763 1.499 . S
C761 H735 0.950 . S
C761 C760 1.414 . S
C761 C762 1.374 . S
C762 H736 0.950 . S
C762 C758 1.385 . S
C762 C761 1.374 . S
C763 C760 1.499 . S
C763 C764 1.373 . S
C763 C765 1.389 . S
C764 H737 0.950 . S
C764 C750 1.377 . S
C764 C763 1.373 . S
C765 C749 1.377 . S
C765 C763 1.389 . S
C765 C766 1.524 . S
C766 C765 1.524 . S
C766 C767 1.397 . S
C766 C771 1.363 . S
C767 H738 0.950 . S
C767 C766 1.397 . S
C767 C768 1.334 . S
C768 H739 0.950 . S
C768 C767 1.334 . S
C768 C769 1.287 . S
C769 C768 1.287 . S
C769 C770 1.524 . S
C769 H772 0.999 . S
C770 H740 0.950 . S
C770 C769 1.524 . S
C770 C771 1.415 . S
C771 H741 0.950 . S
C771 C766 1.363 . S
C771 C770 1.415 . S
H772 C769 0.999 . S
H773 C754 0.913 . S
H774 C792 0.951 . S
H775 C794 0.951 . S
H776 C796 0.950 . S
H777 C797 0.950 . S
H778 C799 0.950 . S
H779 C802 0.950 . S
H780 C803 0.950 . S
H781 C805 0.950 . S
H782 C806 0.950 . S
H783 C807 0.951 . S
H784 C809 0.951 . S
H785 C811 0.950 . S
H786 C812 0.950 . S
H787 C814 0.950 . S
H788 C817 0.950 . S
H789 C818 0.950 . S
H790 C820 0.950 . S
H791 C821 0.950 . S
C792 H774 0.951 . S
C792 C793 1.366 . S
C792 C794 1.388 . S
C793 C792 1.366 . S
C793 C797 1.385 . S
C794 H775 0.951 . S
C794 C792 1.388 . S
C794 C795 1.366 . S
C795 C794 1.366 . S
C795 C796 1.414 . S
C795 C798 1.499 . S
C796 H776 0.950 . S
C796 C795 1.414 . S
C796 C797 1.374 . S
C797 H777 0.950 . S
C797 C793 1.385 . S
C797 C796 1.374 . S
C798 C795 1.499 . S
C798 C799 1.373 . S
C798 C800 1.428 . S
C799 H778 0.950 . S
C799 C798 1.373 . S
C799 C815 1.377 . S
C800 C798 1.428 . S
C800 C801 1.520 1_545 S
C800 C814 1.343 1_545 S
C801 C800 1.520 1_565 S
C801 C802 1.397 1_565 S
C801 C806 1.363 . S
C802 H779 0.950 . S
C802 C801 1.397 1_545 S
C802 C803 1.334 . S
C803 H780 0.950 . S
C803 C802 1.334 . S
C803 C804 1.287 1_545 S
C804 C803 1.287 1_565 S
C804 C805 1.524 . S
C804 H823 0.913 . S
C805 H781 0.950 . S
C805 C804 1.524 . S
C805 C806 1.415 . S
C806 H782 0.950 . S
C806 C801 1.363 . S
C806 C805 1.415 . S
C807 H783 0.951 . S
C807 C808 1.366 . S
C807 C809 1.388 . S
C808 C807 1.366 . S
C808 C812 1.385 . S
C809 H784 0.951 . S
C809 C807 1.388 . S
C809 C810 1.366 . S
C810 C809 1.366 . S
C810 C811 1.414 . S
C810 C813 1.499 . S
C811 H785 0.950 . S
C811 C810 1.414 . S
C811 C812 1.374 . S
C812 H786 0.950 . S
C812 C808 1.385 . S
C812 C811 1.374 . S
C813 C810 1.499 . S
C813 C814 1.373 . S
C813 C815 1.389 1_565 S
C814 H787 0.950 . S
C814 C800 1.343 1_565 S
C814 C813 1.373 . S
C815 C799 1.377 . S
C815 C813 1.389 1_545 S
C815 C816 1.524 . S
C816 C815 1.524 . S
C816 C817 1.397 1_545 S
C816 C821 1.363 . S
C817 H788 0.950 . S
C817 C816 1.397 1_565 S
C817 C818 1.334 1_455 S
C818 H789 0.950 . S
C818 C817 1.334 1_655 S
C818 C819 1.287 1_565 S
C819 C818 1.287 1_545 S
C819 C820 1.524 . S
C819 H822 0.999 . S
C820 H790 0.950 . S
C820 C819 1.524 . S
C820 C821 1.415 1_655 S
C821 H791 0.950 . S
C821 C816 1.363 . S
C821 C820 1.415 1_455 S
H822 C819 0.999 . S
H823 C804 0.913 . S
H824 C842 0.951 . S
H825 C844 0.951 . S
H826 C846 0.950 1_554 S
H827 C847 0.950 . S
H828 C849 0.950 . S
H829 C852 0.950 . S
H830 C853 0.942 1_556 S
H831 C855 0.950 1_556 S
H832 C856 0.950 . S
H833 C857 0.951 . S
H834 C859 0.951 . S
H835 C861 0.950 . S
H836 C862 0.950 . S
H837 C864 0.950 . S
H838 C867 0.950 . S
H839 C868 0.950 . S
H840 C870 0.950 . S
H841 C871 0.950 . S
C842 H824 0.951 . S
C842 C843 1.366 . S
C842 C844 1.388 . S
C843 C842 1.366 . S
C843 C847 1.385 . S
C844 H825 0.951 . S
C844 C842 1.388 . S
C844 C845 1.366 1_556 S
C845 C844 1.366 1_554 S
C845 C846 1.414 1_554 S
C845 C848 1.498 . S
C846 H826 0.950 1_556 S
C846 C845 1.414 1_556 S
C846 C847 1.374 . S
C847 H827 0.950 . S
C847 C843 1.385 . S
C847 C846 1.374 . S
C848 C845 1.498 . S
C848 C849 1.373 . S
C848 C850 1.389 . S
C849 H828 0.950 . S
C849 C848 1.373 . S
C849 C865 1.377 . S
C850 C848 1.389 . S
C850 C851 1.524 . S
C850 C864 1.377 . S
C851 C850 1.524 . S
C851 C852 1.397 . S
C851 C856 1.363 . S
C852 H829 0.950 . S
C852 C851 1.397 . S
C852 C853 1.348 . S
C853 H830 0.942 1_554 S
C853 C852 1.348 . S
C853 C854 1.282 1_554 S
C854 C853 1.282 1_556 S
C854 C855 1.524 1_556 S
C854 H873 0.913 . S
C855 H831 0.950 1_554 S
C855 C854 1.524 1_554 S
C855 C856 1.415 . S
C856 H832 0.950 . S
C856 C851 1.363 . S
C856 C855 1.415 . S
C857 H833 0.951 . S
C857 C858 1.366 . S
C857 C859 1.388 . S
C858 C857 1.366 . S
C858 C862 1.385 . S
C859 H834 0.951 . S
C859 C857 1.388 . S
C859 C860 1.366 . S
C860 C859 1.366 . S
C860 C861 1.414 . S
C860 C863 1.499 . S
C861 H835 0.950 . S
C861 C860 1.414 . S
C861 C862 1.374 . S
C862 H836 0.950 . S
C862 C858 1.385 . S
C862 C861 1.374 . S
C863 C860 1.499 . S
C863 C864 1.373 . S
C863 C865 1.389 . S
C864 H837 0.950 . S
C864 C850 1.377 . S
C864 C863 1.373 . S
C865 C849 1.377 . S
C865 C863 1.389 . S
C865 C866 1.524 . S
C866 C865 1.524 . S
C866 C867 1.397 . S
C866 C871 1.363 . S
C867 H838 0.950 . S
C867 C866 1.397 . S
C867 C868 1.334 . S
C868 H839 0.950 . S
C868 C867 1.334 . S
C868 C869 1.287 . S
C869 C868 1.287 . S
C869 C870 1.524 . S
C869 H872 0.999 . S
C870 H840 0.950 . S
C870 C869 1.524 . S
C870 C871 1.415 . S
C871 H841 0.950 . S
C871 C866 1.363 . S
C871 C870 1.415 . S
H872 C869 0.999 . S
H873 C854 0.913 . S
H874 C892 0.951 . S
H875 C894 0.951 . S
H876 C896 0.950 . S
H877 C897 0.950 . S
H878 C899 0.950 . S
H879 C902 0.950 . S
H880 C903 0.950 . S
H881 C905 0.950 . S
H882 C906 0.950 . S
H883 C907 0.951 . S
H884 C909 0.951 . S
H885 C911 0.950 . S
H886 C912 0.950 . S
H887 C914 0.950 . S
H888 C917 0.950 . S
H889 C918 0.950 . S
H890 C920 0.950 . S
H891 C921 0.950 . S
C892 H874 0.951 . S
C892 C893 1.366 . S
C892 C894 1.388 . S
C893 C892 1.366 . S
C893 C897 1.385 . S
C894 H875 0.951 . S
C894 C892 1.388 . S
C894 C895 1.366 . S
C895 C894 1.366 . S
C895 C896 1.414 . S
C895 C898 1.499 . S
C896 H876 0.950 . S
C896 C895 1.414 . S
C896 C897 1.374 . S
C897 H877 0.950 . S
C897 C893 1.385 . S
C897 C896 1.374 . S
C898 C895 1.499 . S
C898 C899 1.373 . S
C898 C900 1.389 . S
C899 H878 0.950 . S
C899 C898 1.373 . S
C899 C915 1.377 . S
C900 C898 1.389 . S
C900 C901 1.524 . S
C900 C914 1.377 . S
C901 C900 1.524 . S
C901 C902 1.397 . S
C901 C906 1.363 . S
C902 H879 0.950 . S
C902 C901 1.397 . S
C902 C903 1.334 . S
C903 H880 0.950 . S
C903 C902 1.334 . S
C903 C904 1.287 . S
C904 C903 1.287 . S
C904 C905 1.524 . S
C904 H923 0.913 . S
C905 H881 0.950 . S
C905 C904 1.524 . S
C905 C906 1.415 . S
C906 H882 0.950 . S
C906 C901 1.363 . S
C906 C905 1.415 . S
C907 H883 0.951 . S
C907 C908 1.366 . S
C907 C909 1.388 . S
C908 C907 1.366 . S
C908 C912 1.385 . S
C909 H884 0.951 . S
C909 C907 1.388 . S
C909 C910 1.366 . S
C910 C909 1.366 . S
C910 C911 1.414 . S
C910 C913 1.499 . S
C911 H885 0.950 . S
C911 C910 1.414 . S
C911 C912 1.374 . S
C912 H886 0.950 . S
C912 C908 1.385 . S
C912 C911 1.374 . S
C913 C910 1.499 . S
C913 C914 1.373 . S
C913 C915 1.389 . S
C914 H887 0.950 . S
C914 C900 1.377 . S
C914 C913 1.373 . S
C915 C899 1.377 . S
C915 C913 1.389 . S
C915 C916 1.524 . S
C916 C915 1.524 . S
C916 C917 1.397 . S
C916 C921 1.363 . S
C917 H888 0.950 . S
C917 C916 1.397 . S
C917 C918 1.334 . S
C918 H889 0.950 . S
C918 C917 1.334 . S
C918 C919 1.287 . S
C919 C918 1.287 . S
C919 C920 1.524 . S
C919 H922 0.999 . S
C920 H890 0.950 . S
C920 C919 1.524 . S
C920 C921 1.415 . S
C921 H891 0.950 . S
C921 C916 1.363 . S
C921 C920 1.415 . S
H922 C919 0.999 . S
H923 C904 0.913 . S
H924 C942 0.951 . S
H925 C944 0.951 1_556 S
H926 C946 0.950 . S
H927 C947 0.950 . S
H928 C949 0.950 . S
H929 C952 0.950 1_554 S
H930 C953 0.950 . S
H931 C955 0.950 . S
H932 C956 0.950 . S
H933 C957 0.951 . S
H934 C959 0.951 . S
H935 C961 0.950 . S
H936 C962 0.950 . S
H937 C964 0.950 . S
H938 C967 0.950 . S
H939 C968 0.950 . S
H940 C970 0.950 . S
H941 C971 0.950 . S
C942 H924 0.951 . S
C942 C943 1.366 . S
C942 C944 1.388 . S
C943 C942 1.366 . S
C943 C947 1.385 . S
C944 H925 0.951 1_554 S
C944 C942 1.388 . S
C944 C945 1.366 . S
C945 C944 1.366 . S
C945 C946 1.414 . S
C945 C948 1.499 1_554 S
C946 H926 0.950 . S
C946 C945 1.414 . S
C946 C947 1.374 . S
C947 H927 0.950 . S
C947 C943 1.385 . S
C947 C946 1.374 . S
C948 C945 1.499 1_556 S
C948 C949 1.373 . S
C948 C950 1.389 . S
C949 H928 0.950 . S
C949 C948 1.373 . S
C949 C965 1.377 . S
C950 C948 1.389 . S
C950 C951 1.524 . S
C950 C964 1.377 . S
C951 C950 1.524 . S
C951 C952 1.397 . S
C951 C956 1.363 . S
C952 H929 0.950 1_556 S
C952 C951 1.397 . S
C952 C953 1.334 1_556 S
C953 H930 0.950 . S
C953 C952 1.334 1_554 S
C953 C954 1.287 1_554 S
C954 C953 1.287 1_556 S
C954 C955 1.524 . S
C954 H973 0.938 . S
C955 H931 0.950 . S
C955 C954 1.524 . S
C955 C956 1.415 . S
C956 H932 0.950 . S
C956 C951 1.363 . S
C956 C955 1.415 . S
C957 H933 0.951 . S
C957 C958 1.366 . S
C957 C959 1.388 . S
C958 C957 1.366 . S
C958 C962 1.385 . S
C959 H934 0.951 . S
C959 C957 1.388 . S
C959 C960 1.366 . S
C960 C959 1.366 . S
C960 C961 1.414 . S
C960 C963 1.499 . S
C961 H935 0.950 . S
C961 C960 1.414 . S
C961 C962 1.374 . S
C962 H936 0.950 . S
C962 C958 1.385 . S
C962 C961 1.374 . S
C963 C960 1.499 . S
C963 C964 1.373 . S
C963 C965 1.389 . S
C964 H937 0.950 . S
C964 C950 1.377 . S
C964 C963 1.373 . S
C965 C949 1.377 . S
C965 C963 1.389 . S
C965 C966 1.524 . S
C966 C965 1.524 . S
C966 C967 1.397 . S
C966 C971 1.363 . S
C967 H938 0.950 . S
C967 C966 1.397 . S
C967 C968 1.334 . S
C968 H939 0.950 . S
C968 C967 1.334 . S
C968 C969 1.287 . S
C969 C968 1.287 . S
C969 C970 1.524 . S
C969 H972 0.999 . S
C970 H940 0.950 . S
C970 C969 1.524 . S
C970 C971 1.415 . S
C971 H941 0.950 . S
C971 C966 1.363 . S
C971 C970 1.415 . S
H972 C969 0.999 . S
H973 C954 0.938 . S
H974 C992 0.951 . S
H975 C994 0.951 . S
H976 C996 0.950 . S
H977 C997 0.950 . S
H978 C999 0.950 . S
H979 C1002 0.950 . S
H980 C1003 0.950 . S
H981 C1005 0.950 . S
H982 C1006 0.950 . S
H983 C1007 0.951 . S
H984 C1009 0.951 . S
H985 C1011 0.950 . S
H986 C1012 0.950 . S
H987 C1014 0.950 . S
H988 C1017 0.950 . S
H989 C1018 0.950 . S
H990 C1020 0.950 . S
H991 C1021 0.950 . S
C992 H974 0.951 . S
C992 C993 1.366 . S
C992 C994 1.388 . S
C993 C992 1.366 . S
C993 C997 1.385 . S
C994 H975 0.951 . S
C994 C992 1.388 . S
C994 C995 1.366 . S
C995 C994 1.366 . S
C995 C996 1.414 . S
C995 C998 1.499 . S
C996 H976 0.950 . S
C996 C995 1.414 . S
C996 C997 1.374 . S
C997 H977 0.950 . S
C997 C993 1.385 . S
C997 C996 1.374 . S
C998 C995 1.499 . S
C998 C999 1.373 . S
C998 C1000 1.389 . S
C999 H978 0.950 . S
C999 C998 1.373 . S
C999 C1015 1.377 . S
C1000 C998 1.389 . S
C1000 C1001 1.524 . S
C1000 C1014 1.377 . S
C1001 C1000 1.524 . S
C1001 C1002 1.397 . S
C1001 C1006 1.363 . S
C1002 H979 0.950 . S
C1002 C1001 1.397 . S
C1002 C1003 1.334 . S
C1003 H980 0.950 . S
C1003 C1002 1.334 . S
C1003 C1004 1.287 . S
C1004 C1003 1.287 . S
C1004 C1005 1.524 . S
C1004 H1023 0.913 . S
C1005 H981 0.950 . S
C1005 C1004 1.524 . S
C1005 C1006 1.415 . S
C1006 H982 0.950 . S
C1006 C1001 1.363 . S
C1006 C1005 1.415 . S
C1007 H983 0.951 . S
C1007 C1008 1.366 . S
C1007 C1009 1.388 . S
C1008 C1007 1.366 . S
C1008 C1012 1.385 . S
C1009 H984 0.951 . S
C1009 C1007 1.388 . S
C1009 C1010 1.366 . S
C1010 C1009 1.366 . S
C1010 C1011 1.414 . S
C1010 C1013 1.499 . S
C1011 H985 0.950 . S
C1011 C1010 1.414 . S
C1011 C1012 1.374 . S
C1012 H986 0.950 . S
C1012 C1008 1.385 . S
C1012 C1011 1.374 . S
C1013 C1010 1.499 . S
C1013 C1014 1.373 . S
C1013 C1015 1.389 . S
C1014 H987 0.950 . S
C1014 C1000 1.377 . S
C1014 C1013 1.373 . S
C1015 C999 1.377 . S
C1015 C1013 1.389 . S
C1015 C1016 1.524 . S
C1016 C1015 1.524 . S
C1016 C1017 1.397 . S
C1016 C1021 1.363 . S
C1017 H988 0.950 . S
C1017 C1016 1.397 . S
C1017 C1018 1.334 . S
C1018 H989 0.950 . S
C1018 C1017 1.334 . S
C1018 C1019 1.287 . S
C1019 C1018 1.287 . S
C1019 C1020 1.524 . S
C1019 H1022 0.999 . S
C1020 H990 0.950 . S
C1020 C1019 1.524 . S
C1020 C1021 1.415 . S
C1021 H991 0.950 . S
C1021 C1016 1.363 . S
C1021 C1020 1.415 . S
H1022 C1019 0.999 . S
H1023 C1004 0.913 . S
H1024 C1042 0.951 . S
H1025 C1044 0.951 1_556 S
H1026 C1046 0.950 . S
H1027 C1047 0.950 . S
H1028 C1049 0.950 . S
H1029 C1052 0.950 . S
H1030 C1053 0.950 . S
H1031 C1055 0.950 . S
H1032 C1056 0.950 . S
H1033 C1057 0.951 . S
H1034 C1059 0.951 . S
H1035 C1061 0.950 . S
H1036 C1062 0.950 . S
H1037 C1064 0.950 . S
H1038 C1067 0.950 . S
H1039 C1068 0.950 1_455 S
H1040 C1070 0.950 . S
H1041 C1071 0.950 . S
C1042 H1024 0.951 . S
C1042 C1043 1.366 . S
C1042 C1044 1.388 . S
C1043 C1042 1.366 . S
C1043 C1047 1.385 . S
C1044 H1025 0.951 1_554 S
C1044 C1042 1.388 . S
C1044 C1045 1.366 1_554 S
C1045 C1044 1.366 1_556 S
C1045 C1046 1.414 . S
C1045 C1048 1.499 . S
C1046 H1026 0.950 . S
C1046 C1045 1.414 . S
C1046 C1047 1.374 1_556 S
C1047 H1027 0.950 . S
C1047 C1043 1.385 . S
C1047 C1046 1.374 1_554 S
C1048 C1045 1.499 . S
C1048 C1049 1.373 . S
C1048 C1050 1.389 . S
C1049 H1028 0.950 . S
C1049 C1048 1.373 . S
C1049 C1065 1.377 . S
C1050 C1048 1.389 . S
C1050 C1051 1.524 . S
C1050 C1064 1.377 . S
C1051 C1050 1.524 . S
C1051 C1052 1.397 . S
C1051 C1056 1.363 . S
C1052 H1029 0.950 . S
C1052 C1051 1.397 . S
C1052 C1053 1.334 . S
C1053 H1030 0.950 . S
C1053 C1052 1.334 . S
C1053 C1054 1.287 . S
C1054 C1053 1.287 . S
C1054 C1055 1.524 . S
C1054 H1073 0.913 . S
C1055 H1031 0.950 . S
C1055 C1054 1.524 . S
C1055 C1056 1.415 . S
C1056 H1032 0.950 . S
C1056 C1051 1.363 . S
C1056 C1055 1.415 . S
C1057 H1033 0.951 . S
C1057 C1058 1.366 . S
C1057 C1059 1.388 . S
C1058 C1057 1.366 . S
C1058 C1062 1.385 . S
C1059 H1034 0.951 . S
C1059 C1057 1.388 . S
C1059 C1060 1.366 . S
C1060 C1059 1.366 . S
C1060 C1061 1.414 . S
C1060 C1063 1.499 . S
C1061 H1035 0.950 . S
C1061 C1060 1.414 . S
C1061 C1062 1.374 . S
C1062 H1036 0.950 . S
C1062 C1058 1.385 . S
C1062 C1061 1.374 . S
C1063 C1060 1.499 . S
C1063 C1064 1.373 . S
C1063 C1065 1.389 . S
C1064 H1037 0.950 . S
C1064 C1050 1.377 . S
C1064 C1063 1.373 . S
C1065 C1049 1.377 . S
C1065 C1063 1.389 . S
C1065 C1066 1.524 . S
C1066 C1065 1.524 . S
C1066 C1067 1.397 . S
C1066 C1071 1.363 . S
C1067 H1038 0.950 . S
C1067 C1066 1.397 . S
C1067 C1068 1.334 . S
C1068 H1039 0.950 1_655 S
C1068 C1067 1.334 . S
C1068 C1069 1.287 . S
C1069 C1068 1.287 . S
C1069 C1070 1.524 . S
C1069 H1072 1.019 . S
C1070 H1040 0.950 . S
C1070 C1069 1.524 . S
C1070 C1071 1.415 . S
C1071 H1041 0.950 . S
C1071 C1066 1.363 . S
C1071 C1070 1.415 . S
H1072 C1069 1.019 . S
H1073 C1054 0.913 . S
H1074 C1092 0.951 . S
H1075 C1094 0.951 . S
H1076 C1096 0.950 . S
H1077 C1097 0.950 . S
H1078 C1099 0.950 . S
H1079 C1102 0.950 . S
H1080 C1103 0.950 . S
H1081 C1105 0.950 . S
H1082 C1106 0.950 . S
H1083 C1107 0.951 . S
H1084 C1109 0.951 . S
H1085 C1111 0.950 . S
H1086 C1112 0.950 . S
H1087 C1114 0.950 . S
H1088 C1117 0.950 . S
H1089 C1118 0.950 . S
H1090 C1120 0.950 . S
H1091 C1121 0.950 . S
C1092 H1074 0.951 . S
C1092 C1093 1.366 . S
C1092 C1094 1.388 . S
C1093 C1092 1.366 . S
C1093 C1097 1.385 . S
C1094 H1075 0.951 . S
C1094 C1092 1.388 . S
C1094 C1095 1.366 . S
C1095 C1094 1.366 . S
C1095 C1096 1.414 . S
C1095 C1098 1.499 . S
C1096 H1076 0.950 . S
C1096 C1095 1.414 . S
C1096 C1097 1.374 . S
C1097 H1077 0.950 . S
C1097 C1093 1.385 . S
C1097 C1096 1.374 . S
C1098 C1095 1.499 . S
C1098 C1099 1.373 . S
C1098 C1100 1.389 . S
C1099 H1078 0.950 . S
C1099 C1098 1.373 . S
C1099 C1115 1.377 . S
C1100 C1098 1.389 . S
C1100 C1101 1.524 . S
C1100 C1114 1.377 . S
C1101 C1100 1.524 . S
C1101 C1102 1.397 . S
C1101 C1106 1.363 . S
C1102 H1079 0.950 . S
C1102 C1101 1.397 . S
C1102 C1103 1.334 . S
C1103 H1080 0.950 . S
C1103 C1102 1.334 . S
C1103 C1104 1.287 . S
C1104 C1103 1.287 . S
C1104 C1105 1.524 . S
C1104 H1123 0.913 . S
C1105 H1081 0.950 . S
C1105 C1104 1.524 . S
C1105 C1106 1.415 . S
C1106 H1082 0.950 . S
C1106 C1101 1.363 . S
C1106 C1105 1.415 . S
C1107 H1083 0.951 . S
C1107 C1108 1.366 . S
C1107 C1109 1.388 . S
C1108 C1107 1.366 . S
C1108 C1112 1.385 . S
C1109 H1084 0.951 . S
C1109 C1107 1.388 . S
C1109 C1110 1.366 . S
C1110 C1109 1.366 . S
C1110 C1111 1.414 . S
C1110 C1113 1.499 . S
C1111 H1085 0.950 . S
C1111 C1110 1.414 . S
C1111 C1112 1.374 . S
C1112 H1086 0.950 . S
C1112 C1108 1.385 . S
C1112 C1111 1.374 . S
C1113 C1110 1.499 . S
C1113 C1114 1.373 . S
C1113 C1115 1.389 . S
C1114 H1087 0.950 . S
C1114 C1100 1.377 . S
C1114 C1113 1.373 . S
C1115 C1099 1.377 . S
C1115 C1113 1.389 . S
C1115 C1116 1.524 . S
C1116 C1115 1.524 . S
C1116 C1117 1.397 . S
C1116 C1121 1.363 . S
C1117 H1088 0.950 . S
C1117 C1116 1.397 . S
C1117 C1118 1.334 . S
C1118 H1089 0.950 . S
C1118 C1117 1.334 . S
C1118 C1119 1.287 . S
C1119 C1118 1.287 . S
C1119 C1120 1.524 . S
C1119 H1122 0.999 . S
C1120 H1090 0.950 . S
C1120 C1119 1.524 . S
C1120 C1121 1.415 . S
C1121 H1091 0.950 . S
C1121 C1116 1.363 . S
C1121 C1120 1.415 . S
H1122 C1119 0.999 . S
H1123 C1104 0.913 . S
H1124 C1142 0.951 . S
H1125 C1144 0.951 . S
H1126 C1146 0.950 . S
H1127 C1147 0.950 . S
H1128 C1149 0.950 . S
H1129 C1152 0.950 . S
H1130 C1153 0.950 . S
H1131 C1155 0.950 . S
H1132 C1156 0.950 . S
H1133 C1157 0.951 . S
H1134 C1159 0.951 . S
H1135 C1161 0.950 . S
H1136 C1162 0.950 . S
H1137 C1164 0.950 . S
H1138 C1167 0.950 . S
H1139 C1168 0.950 . S
H1140 C1170 0.950 . S
H1141 C1171 0.950 . S
C1142 H1124 0.951 . S
C1142 C1143 1.366 . S
C1142 C1144 1.388 . S
C1143 C1142 1.366 . S
C1143 C1147 1.385 . S
C1144 H1125 0.951 . S
C1144 C1142 1.388 . S
C1144 C1145 1.366 1_556 S
C1145 C1144 1.366 1_554 S
C1145 C1146 1.414 . S
C1145 C1148 1.499 . S
C1146 H1126 0.950 . S
C1146 C1145 1.414 . S
C1146 C1147 1.374 1_554 S
C1147 H1127 0.950 . S
C1147 C1143 1.385 . S
C1147 C1146 1.374 1_556 S
C1148 C1145 1.499 . S
C1148 C1149 1.373 . S
C1148 C1150 1.389 . S
C1149 H1128 0.950 . S
C1149 C1148 1.373 . S
C1149 C1165 1.377 . S
C1150 C1148 1.389 . S
C1150 C1151 1.524 . S
C1150 C1164 1.377 . S
C1151 C1150 1.524 . S
C1151 C1152 1.397 . S
C1151 C1156 1.363 . S
C1152 H1129 0.950 . S
C1152 C1151 1.397 . S
C1152 C1153 1.334 . S
C1153 H1130 0.950 . S
C1153 C1152 1.334 . S
C1153 C1154 1.287 . S
C1154 C1153 1.287 . S
C1154 C1155 1.524 . S
C1154 H1173 0.913 . S
C1155 H1131 0.950 . S
C1155 C1154 1.524 . S
C1155 C1156 1.415 . S
C1156 H1132 0.950 . S
C1156 C1151 1.363 . S
C1156 C1155 1.415 . S
C1157 H1133 0.951 . S
C1157 C1158 1.366 . S
C1157 C1159 1.388 . S
C1158 C1157 1.366 . S
C1158 C1162 1.385 . S
C1159 H1134 0.951 . S
C1159 C1157 1.388 . S
C1159 C1160 1.366 . S
C1160 C1159 1.366 . S
C1160 C1161 1.414 . S
C1160 C1163 1.499 . S
C1161 H1135 0.950 . S
C1161 C1160 1.414 . S
C1161 C1162 1.374 . S
C1162 H1136 0.950 . S
C1162 C1158 1.385 . S
C1162 C1161 1.374 . S
C1163 C1160 1.499 . S
C1163 C1164 1.373 . S
C1163 C1165 1.389 . S
C1164 H1137 0.950 . S
C1164 C1150 1.377 . S
C1164 C1163 1.373 . S
C1165 C1149 1.377 . S
C1165 C1163 1.389 . S
C1165 C1166 1.524 . S
C1166 C1165 1.524 . S
C1166 C1167 1.397 . S
C1166 C1171 1.363 . S
C1167 H1138 0.950 . S
C1167 C1166 1.397 . S
C1167 C1168 1.334 . S
C1168 H1139 0.950 . S
C1168 C1167 1.334 . S
C1168 C1169 1.287 . S
C1169 C1168 1.287 . S
C1169 C1170 1.524 . S
C1169 H1172 0.999 . S
C1170 H1140 0.950 . S
C1170 C1169 1.524 . S
C1170 C1171 1.415 . S
C1171 H1141 0.950 . S
C1171 C1166 1.363 . S
C1171 C1170 1.415 . S
H1172 C1169 0.999 . S
H1173 C1154 0.913 . S
H1174 C1192 0.951 . S
H1175 C1194 0.951 . S
H1176 C1196 0.950 . S
H1177 C1197 0.950 . S
H1178 C1199 0.950 . S
H1179 C1202 0.950 . S
H1180 C1203 0.950 . S
H1181 C1205 0.950 . S
H1182 C1206 0.950 . S
H1183 C1207 0.951 . S
H1184 C1209 0.951 . S
H1185 C1211 0.950 . S
H1186 C1212 0.950 . S
H1187 C1214 0.950 . S
H1188 C1217 0.950 . S
H1189 C1218 0.950 . S
H1190 C1220 0.950 1_655 S
H1191 C1221 0.950 . S
C1192 H1174 0.951 . S
C1192 C1193 1.366 . S
C1192 C1194 1.388 . S
C1193 C1192 1.366 . S
C1193 C1197 1.385 . S
C1194 H1175 0.951 . S
C1194 C1192 1.388 . S
C1194 C1195 1.366 . S
C1195 C1194 1.366 . S
C1195 C1196 1.414 . S
C1195 C1198 1.499 . S
C1196 H1176 0.950 . S
C1196 C1195 1.414 . S
C1196 C1197 1.374 . S
C1197 H1177 0.950 . S
C1197 C1193 1.385 . S
C1197 C1196 1.374 . S
C1198 C1195 1.499 . S
C1198 C1199 1.373 . S
C1198 C1200 1.389 . S
C1199 H1178 0.950 . S
C1199 C1198 1.373 . S
C1199 C1215 1.377 . S
C1200 C1198 1.389 . S
C1200 C1201 1.524 . S
C1200 C1214 1.377 . S
C1201 C1200 1.524 . S
C1201 C1202 1.397 . S
C1201 C1206 1.363 . S
C1202 H1179 0.950 . S
C1202 C1201 1.397 . S
C1202 C1203 1.334 . S
C1203 H1180 0.950 . S
C1203 C1202 1.334 . S
C1203 C1204 1.287 . S
C1204 C1203 1.287 . S
C1204 C1205 1.524 . S
C1204 H1223 0.913 . S
C1205 H1181 0.950 . S
C1205 C1204 1.524 . S
C1205 C1206 1.415 . S
C1206 H1182 0.950 . S
C1206 C1201 1.363 . S
C1206 C1205 1.415 . S
C1207 H1183 0.951 . S
C1207 C1208 1.366 . S
C1207 C1209 1.388 . S
C1208 C1207 1.366 . S
C1208 C1212 1.385 . S
C1209 H1184 0.951 . S
C1209 C1207 1.388 . S
C1209 C1210 1.366 . S
C1210 C1209 1.366 . S
C1210 C1211 1.414 . S
C1210 C1213 1.499 . S
C1211 H1185 0.950 . S
C1211 C1210 1.414 . S
C1211 C1212 1.374 . S
C1212 H1186 0.950 . S
C1212 C1208 1.385 . S
C1212 C1211 1.374 . S
C1213 C1210 1.499 . S
C1213 C1214 1.373 . S
C1213 C1215 1.389 . S
C1214 H1187 0.950 . S
C1214 C1200 1.377 . S
C1214 C1213 1.373 . S
C1215 C1199 1.377 . S
C1215 C1213 1.389 . S
C1215 C1216 1.524 . S
C1216 C1215 1.524 . S
C1216 C1217 1.397 . S
C1216 C1221 1.363 . S
C1217 H1188 0.950 . S
C1217 C1216 1.397 . S
C1217 C1218 1.334 . S
C1218 H1189 0.950 . S
C1218 C1217 1.334 . S
C1218 C1219 1.287 . S
C1219 C1218 1.287 . S
C1219 C1220 1.524 . S
C1219 H1222 0.999 1_455 S
C1220 H1190 0.950 1_455 S
C1220 C1219 1.524 . S
C1220 C1221 1.415 . S
C1221 H1191 0.950 . S
C1221 C1216 1.363 . S
C1221 C1220 1.415 . S
H1222 C1219 0.999 1_655 S
H1223 C1204 0.913 . S
H1224 C1242 0.951 . S
H1225 C1244 0.951 . S
H1226 C1246 0.950 . S
H1227 C1247 0.950 . S
H1228 C1249 0.950 . S
H1229 C1252 0.950 . S
H1230 C1253 0.950 . S
H1231 C1255 0.950 . S
H1232 C1256 0.950 . S
H1233 C1257 0.951 . S
H1234 C1259 0.951 . S
H1235 C1261 0.950 . S
H1236 C1262 0.950 . S
H1237 C1264 0.950 . S
H1238 C1267 0.950 . S
H1239 C1268 0.950 . S
H1240 C1270 0.950 . S
H1241 C1271 0.950 . S
C1242 H1224 0.951 . S
C1242 C1243 1.366 . S
C1242 C1244 1.388 . S
C1243 C1242 1.366 . S
C1243 C1247 1.385 . S
C1244 H1225 0.951 . S
C1244 C1242 1.388 . S
C1244 C1245 1.366 . S
C1245 C1244 1.366 . S
C1245 C1246 1.414 . S
C1245 C1248 1.499 . S
C1246 H1226 0.950 . S
C1246 C1245 1.414 . S
C1246 C1247 1.374 . S
C1247 H1227 0.950 . S
C1247 C1243 1.385 . S
C1247 C1246 1.374 . S
C1248 C1245 1.499 . S
C1248 C1249 1.373 . S
C1248 C1250 1.389 . S
C1249 H1228 0.950 . S
C1249 C1248 1.373 . S
C1249 C1265 1.377 . S
C1250 C1248 1.389 . S
C1250 C1251 1.524 . S
C1250 C1264 1.377 . S
C1251 C1250 1.524 . S
C1251 C1252 1.397 . S
C1251 C1256 1.363 . S
C1252 H1229 0.950 . S
C1252 C1251 1.397 . S
C1252 C1253 1.334 . S
C1253 H1230 0.950 . S
C1253 C1252 1.334 . S
C1253 C1254 1.287 . S
C1254 C1253 1.287 . S
C1254 C1255 1.524 . S
C1254 H1273 0.913 . S
C1255 H1231 0.950 . S
C1255 C1254 1.524 . S
C1255 C1256 1.415 . S
C1256 H1232 0.950 . S
C1256 C1251 1.363 . S
C1256 C1255 1.415 . S
C1257 H1233 0.951 . S
C1257 C1258 1.366 . S
C1257 C1259 1.388 . S
C1258 C1257 1.366 . S
C1258 C1262 1.385 . S
C1259 H1234 0.951 . S
C1259 C1257 1.388 . S
C1259 C1260 1.366 . S
C1260 C1259 1.366 . S
C1260 C1261 1.414 . S
C1260 C1263 1.499 . S
C1261 H1235 0.950 . S
C1261 C1260 1.414 . S
C1261 C1262 1.374 . S
C1262 H1236 0.950 . S
C1262 C1258 1.385 . S
C1262 C1261 1.374 . S
C1263 C1260 1.499 . S
C1263 C1264 1.373 . S
C1263 C1265 1.389 . S
C1264 H1237 0.950 . S
C1264 C1250 1.377 . S
C1264 C1263 1.373 . S
C1265 C1249 1.377 . S
C1265 C1263 1.389 . S
C1265 C1266 1.524 . S
C1266 C1265 1.524 . S
C1266 C1267 1.397 . S
C1266 C1271 1.363 . S
C1267 H1238 0.950 . S
C1267 C1266 1.397 . S
C1267 C1268 1.334 . S
C1268 H1239 0.950 . S
C1268 C1267 1.334 . S
C1268 C1269 1.287 . S
C1269 C1268 1.287 . S
C1269 C1270 1.524 . S
C1269 H1272 0.999 . S
C1270 H1240 0.950 . S
C1270 C1269 1.524 . S
C1270 C1271 1.415 . S
C1271 H1241 0.950 . S
C1271 C1266 1.363 . S
C1271 C1270 1.415 . S
H1272 C1269 0.999 . S
H1273 C1254 0.913 . S
H1274 C1292 0.951 . S
H1275 C1294 0.951 . S
H1276 C1296 0.950 . S
H1277 C1297 0.950 . S
H1278 C1299 0.950 . S
H1279 C1302 0.950 . S
H1280 C1303 0.950 . S
H1281 C1305 0.950 . S
H1282 C1306 0.950 . S
H1283 C1307 0.951 . S
H1284 C1309 0.951 . S
H1285 C1311 0.950 . S
H1286 C1312 0.950 . S
H1287 C1314 0.950 . S
H1288 C1317 0.950 . S
H1289 C1318 0.950 . S
H1290 C1320 0.950 . S
H1291 C1321 0.950 . S
C1292 H1274 0.951 . S
C1292 C1293 1.366 . S
C1292 C1294 1.388 . S
C1293 C1292 1.366 . S
C1293 C1297 1.385 . S
C1294 H1275 0.951 . S
C1294 C1292 1.388 . S
C1294 C1295 1.366 . S
C1295 C1294 1.366 . S
C1295 C1296 1.414 . S
C1295 C1298 1.499 . S
C1296 H1276 0.950 . S
C1296 C1295 1.414 . S
C1296 C1297 1.374 . S
C1297 H1277 0.950 . S
C1297 C1293 1.385 . S
C1297 C1296 1.374 . S
C1298 C1295 1.499 . S
C1298 C1299 1.373 . S
C1298 C1300 1.389 . S
C1299 H1278 0.950 . S
C1299 C1298 1.373 . S
C1299 C1315 1.377 . S
C1300 C1298 1.389 . S
C1300 C1301 1.524 . S
C1300 C1314 1.377 . S
C1301 C1300 1.524 . S
C1301 C1302 1.397 . S
C1301 C1306 1.363 . S
C1302 H1279 0.950 . S
C1302 C1301 1.397 . S
C1302 C1303 1.334 . S
C1303 H1280 0.950 . S
C1303 C1302 1.334 . S
C1303 C1304 1.287 . S
C1304 C1303 1.287 . S
C1304 C1305 1.524 . S
C1304 H1323 0.913 . S
C1305 H1281 0.950 . S
C1305 C1304 1.524 . S
C1305 C1306 1.415 . S
C1306 H1282 0.950 . S
C1306 C1301 1.363 . S
C1306 C1305 1.415 . S
C1307 H1283 0.951 . S
C1307 C1308 1.366 . S
C1307 C1309 1.388 . S
C1308 C1307 1.366 . S
C1308 C1312 1.385 . S
C1309 H1284 0.951 . S
C1309 C1307 1.388 . S
C1309 C1310 1.366 . S
C1310 C1309 1.366 . S
C1310 C1311 1.414 . S
C1310 C1313 1.499 . S
C1311 H1285 0.950 . S
C1311 C1310 1.414 . S
C1311 C1312 1.374 . S
C1312 H1286 0.950 . S
C1312 C1308 1.385 . S
C1312 C1311 1.374 . S
C1313 C1310 1.499 . S
C1313 C1314 1.373 . S
C1313 C1315 1.389 . S
C1314 H1287 0.950 . S
C1314 C1300 1.377 . S
C1314 C1313 1.373 . S
C1315 C1299 1.377 . S
C1315 C1313 1.389 . S
C1315 C1316 1.524 . S
C1316 C1315 1.524 . S
C1316 C1317 1.397 . S
C1316 C1321 1.363 . S
C1317 H1288 0.950 . S
C1317 C1316 1.397 . S
C1317 C1318 1.334 . S
C1318 H1289 0.950 . S
C1318 C1317 1.334 . S
C1318 C1319 1.287 . S
C1319 C1318 1.287 . S
C1319 C1320 1.524 . S
C1319 H1322 0.999 . S
C1320 H1290 0.950 . S
C1320 C1319 1.524 . S
C1320 C1321 1.415 . S
C1321 H1291 0.950 . S
C1321 C1316 1.363 . S
C1321 C1320 1.415 . S
H1322 C1319 0.999 . S
H1323 C1304 0.913 . S
H1324 C1342 0.951 . S
H1325 C1344 0.951 . S
H1326 C1346 0.950 . S
H1327 C1347 0.950 . S
H1328 C1349 0.950 . S
H1329 C1352 0.950 . S
H1330 C1353 0.950 . S
H1331 C1355 0.950 . S
H1332 C1356 0.950 . S
H1333 C1357 0.951 . S
H1334 C1359 0.951 . S
H1335 C1361 0.950 . S
H1336 C1362 0.950 . S
H1337 C1364 0.950 . S
H1338 C1367 0.950 . S
H1339 C1368 0.950 . S
H1340 C1370 0.950 . S
H1341 C1371 0.950 . S
C1342 H1324 0.951 . S
C1342 C1343 1.366 . S
C1342 C1344 1.388 . S
C1343 C1342 1.366 . S
C1343 C1347 1.385 . S
C1344 H1325 0.951 . S
C1344 C1342 1.388 . S
C1344 C1345 1.366 . S
C1345 C1344 1.366 . S
C1345 C1346 1.414 . S
C1345 C1348 1.499 . S
C1346 H1326 0.950 . S
C1346 C1345 1.414 . S
C1346 C1347 1.374 . S
C1347 H1327 0.950 . S
C1347 C1343 1.385 . S
C1347 C1346 1.374 . S
C1348 C1345 1.499 . S
C1348 C1349 1.373 . S
C1348 C1350 1.389 . S
C1349 H1328 0.950 . S
C1349 C1348 1.373 . S
C1349 C1365 1.377 . S
C1350 C1348 1.389 . S
C1350 C1351 1.524 . S
C1350 C1364 1.377 . S
C1351 C1350 1.524 . S
C1351 C1352 1.397 . S
C1351 C1356 1.363 . S
C1352 H1329 0.950 . S
C1352 C1351 1.397 . S
C1352 C1353 1.334 . S
C1353 H1330 0.950 . S
C1353 C1352 1.334 . S
C1353 C1354 1.287 . S
C1354 C1353 1.287 . S
C1354 C1355 1.524 . S
C1354 H1373 0.913 . S
C1355 H1331 0.950 . S
C1355 C1354 1.524 . S
C1355 C1356 1.415 . S
C1356 H1332 0.950 . S
C1356 C1351 1.363 . S
C1356 C1355 1.415 . S
C1357 H1333 0.951 . S
C1357 C1358 1.366 . S
C1357 C1359 1.388 . S
C1358 C1357 1.366 . S
C1358 C1362 1.385 . S
C1359 H1334 0.951 . S
C1359 C1357 1.388 . S
C1359 C1360 1.366 . S
C1360 C1359 1.366 . S
C1360 C1361 1.414 . S
C1360 C1363 1.499 . S
C1361 H1335 0.950 . S
C1361 C1360 1.414 . S
C1361 C1362 1.374 . S
C1362 H1336 0.950 . S
C1362 C1358 1.385 . S
C1362 C1361 1.374 . S
C1363 C1360 1.499 . S
C1363 C1364 1.373 . S
C1363 C1365 1.389 . S
C1364 H1337 0.950 . S
C1364 C1350 1.377 . S
C1364 C1363 1.373 . S
C1365 C1349 1.377 . S
C1365 C1363 1.389 . S
C1365 C1366 1.524 . S
C1366 C1365 1.524 . S
C1366 C1367 1.397 . S
C1366 C1371 1.363 . S
C1367 H1338 0.950 . S
C1367 C1366 1.397 . S
C1367 C1368 1.334 . S
C1368 H1339 0.950 . S
C1368 C1367 1.334 . S
C1368 C1369 1.287 . S
C1369 C1368 1.287 . S
C1369 C1370 1.524 . S
C1369 H1372 0.999 . S
C1370 H1340 0.950 . S
C1370 C1369 1.524 . S
C1370 C1371 1.415 . S
C1371 H1341 0.950 . S
C1371 C1366 1.363 . S
C1371 C1370 1.415 . S
H1372 C1369 0.999 . S
H1373 C1354 0.913 . S
H1374 C1392 0.951 . S
H1375 C1394 0.951 . S
H1376 C1396 0.950 . S
H1377 C1397 0.950 . S
H1378 C1399 0.950 . S
H1379 C1402 0.950 . S
H1380 C1403 0.950 . S
H1381 C1405 0.950 . S
H1382 C1406 0.950 . S
H1383 C1407 0.951 . S
H1384 C1409 0.951 . S
H1385 C1411 0.950 . S
H1386 C1412 0.950 1_455 S
H1387 C1414 0.950 . S
H1388 C1417 0.950 . S
H1389 C1418 0.950 . S
H1390 C1420 0.950 . S
H1391 C1421 0.950 . S
C1392 H1374 0.951 . S
C1392 C1393 1.366 . S
C1392 C1394 1.388 . S
C1393 C1392 1.366 . S
C1393 C1397 1.385 . S
C1394 H1375 0.951 . S
C1394 C1392 1.388 . S
C1394 C1395 1.366 . S
C1395 C1394 1.366 . S
C1395 C1396 1.414 . S
C1395 C1398 1.499 . S
C1396 H1376 0.950 . S
C1396 C1395 1.414 . S
C1396 C1397 1.374 . S
C1397 H1377 0.950 . S
C1397 C1393 1.385 . S
C1397 C1396 1.374 . S
C1398 C1395 1.499 . S
C1398 C1399 1.373 . S
C1398 C1400 1.389 . S
C1399 H1378 0.950 . S
C1399 C1398 1.373 . S
C1399 C1415 1.377 . S
C1400 C1398 1.389 . S
C1400 C1401 1.524 . S
C1400 C1414 1.377 . S
C1401 C1400 1.524 . S
C1401 C1402 1.397 . S
C1401 C1406 1.363 . S
C1402 H1379 0.950 . S
C1402 C1401 1.397 . S
C1402 C1403 1.334 . S
C1403 H1380 0.950 . S
C1403 C1402 1.334 . S
C1403 C1404 1.287 . S
C1404 C1403 1.287 . S
C1404 C1405 1.524 1_655 S
C1404 H1423 0.913 . S
C1405 H1381 0.950 . S
C1405 C1404 1.524 1_455 S
C1405 C1406 1.415 1_455 S
C1406 H1382 0.950 . S
C1406 C1401 1.363 . S
C1406 C1405 1.415 1_655 S
C1407 H1383 0.951 . S
C1407 C1408 1.366 . S
C1407 C1409 1.388 . S
C1408 C1407 1.366 . S
C1408 C1412 1.385 . S
C1409 H1384 0.951 . S
C1409 C1407 1.388 . S
C1409 C1410 1.366 . S
C1410 C1409 1.366 . S
C1410 C1411 1.414 . S
C1410 C1413 1.499 . S
C1411 H1385 0.950 . S
C1411 C1410 1.414 . S
C1411 C1412 1.374 . S
C1412 H1386 0.950 1_655 S
C1412 C1408 1.385 . S
C1412 C1411 1.374 . S
C1413 C1410 1.499 . S
C1413 C1414 1.373 . S
C1413 C1415 1.389 . S
C1414 H1387 0.950 . S
C1414 C1400 1.377 . S
C1414 C1413 1.373 . S
C1415 C1399 1.377 . S
C1415 C1413 1.389 . S
C1415 C1416 1.524 . S
C1416 C1415 1.524 . S
C1416 C1417 1.397 . S
C1416 C1421 1.363 . S
C1417 H1388 0.950 . S
C1417 C1416 1.397 . S
C1417 C1418 1.334 . S
C1418 H1389 0.950 . S
C1418 C1417 1.334 . S
C1418 C1419 1.287 . S
C1419 C1418 1.287 . S
C1419 C1420 1.524 . S
C1419 H1422 0.999 . S
C1420 H1390 0.950 . S
C1420 C1419 1.524 . S
C1420 C1421 1.415 . S
C1421 H1391 0.950 . S
C1421 C1416 1.363 . S
C1421 C1420 1.415 . S
H1422 C1419 0.999 . S
H1423 C1404 0.913 . S
H1424 C1442 0.951 . S
H1425 C1444 0.951 . S
H1426 C1446 0.950 . S
H1427 C1447 0.950 . S
H1428 C1449 0.950 . S
H1429 C1452 0.950 . S
H1430 C1453 0.950 . S
H1431 C1455 0.950 . S
H1432 C1456 0.950 . S
H1433 C1457 0.951 . S
H1434 C1459 0.951 . S
H1435 C1461 0.950 . S
H1436 C1462 0.950 . S
H1437 C1464 0.950 . S
H1438 C1467 0.950 . S
H1439 C1468 0.950 . S
H1440 C1470 0.950 . S
H1441 C1471 0.950 . S
C1442 H1424 0.951 . S
C1442 C1443 1.366 . S
C1442 C1444 1.388 . S
C1443 C1442 1.366 . S
C1443 C1447 1.385 . S
C1444 H1425 0.951 . S
C1444 C1442 1.388 . S
C1444 C1445 1.366 . S
C1445 C1444 1.366 . S
C1445 C1446 1.414 . S
C1445 C1448 1.499 . S
C1446 H1426 0.950 . S
C1446 C1445 1.414 . S
C1446 C1447 1.374 . S
C1447 H1427 0.950 . S
C1447 C1443 1.385 . S
C1447 C1446 1.374 . S
C1448 C1445 1.499 . S
C1448 C1449 1.373 . S
C1448 C1450 1.389 . S
C1449 H1428 0.950 . S
C1449 C1448 1.373 . S
C1449 C1465 1.377 . S
C1450 C1448 1.389 . S
C1450 C1451 1.524 . S
C1450 C1464 1.377 . S
C1451 C1450 1.524 . S
C1451 C1452 1.397 . S
C1451 C1456 1.363 . S
C1452 H1429 0.950 . S
C1452 C1451 1.397 . S
C1452 C1453 1.334 . S
C1453 H1430 0.950 . S
C1453 C1452 1.334 . S
C1453 C1454 1.287 . S
C1454 C1453 1.287 . S
C1454 C1455 1.524 . S
C1454 H1473 0.913 . S
C1455 H1431 0.950 . S
C1455 C1454 1.524 . S
C1455 C1456 1.415 . S
C1456 H1432 0.950 . S
C1456 C1451 1.363 . S
C1456 C1455 1.415 . S
C1457 H1433 0.951 . S
C1457 C1458 1.366 . S
C1457 C1459 1.388 . S
C1458 C1457 1.366 . S
C1458 C1462 1.385 . S
C1459 H1434 0.951 . S
C1459 C1457 1.388 . S
C1459 C1460 1.366 . S
C1460 C1459 1.366 . S
C1460 C1461 1.414 . S
C1460 C1463 1.499 . S
C1461 H1435 0.950 . S
C1461 C1460 1.414 . S
C1461 C1462 1.374 . S
C1462 H1436 0.950 . S
C1462 C1458 1.385 . S
C1462 C1461 1.374 . S
C1463 C1460 1.499 . S
C1463 C1464 1.373 . S
C1463 C1465 1.389 . S
C1464 H1437 0.950 . S
C1464 C1450 1.377 . S
C1464 C1463 1.373 . S
C1465 C1449 1.377 . S
C1465 C1463 1.389 . S
C1465 C1466 1.524 . S
C1466 C1465 1.524 . S
C1466 C1467 1.397 . S
C1466 C1471 1.363 . S
C1467 H1438 0.950 . S
C1467 C1466 1.397 . S
C1467 C1468 1.334 . S
C1468 H1439 0.950 . S
C1468 C1467 1.334 . S
C1468 C1469 1.287 . S
C1469 C1468 1.287 . S
C1469 C1470 1.524 1_655 S
C1469 H1472 0.999 1_655 S
C1470 H1440 0.950 . S
C1470 C1469 1.524 1_455 S
C1470 C1471 1.415 1_455 S
C1471 H1441 0.950 . S
C1471 C1466 1.363 . S
C1471 C1470 1.415 1_655 S
H1472 C1469 0.999 1_455 S
H1473 C1454 0.913 . S
H1474 C1492 0.951 . S
H1475 C1494 0.951 . S
H1476 C1496 0.950 . S
H1477 C1497 0.950 . S
H1478 C1499 0.950 . S
H1479 C1502 0.950 . S
H1480 C1503 0.950 . S
H1481 C1505 0.950 . S
H1482 C1506 0.950 . S
H1483 C1507 0.951 . S
H1484 C1509 0.951 . S
H1485 C1511 0.950 . S
H1486 C1512 0.950 . S
H1487 C1514 0.950 . S
H1488 C1517 0.950 . S
H1489 C1518 0.950 . S
H1490 C1520 0.950 . S
H1491 C1521 0.950 . S
C1492 H1474 0.951 . S
C1492 C1493 1.366 . S
C1492 C1494 1.388 . S
C1493 C1492 1.366 . S
C1493 C1497 1.385 . S
C1494 H1475 0.951 . S
C1494 C1492 1.388 . S
C1494 C1495 1.366 . S
C1495 C1494 1.366 . S
C1495 C1496 1.414 . S
C1495 C1498 1.499 . S
C1496 H1476 0.950 . S
C1496 C1495 1.414 . S
C1496 C1497 1.374 . S
C1497 H1477 0.950 . S
C1497 C1493 1.385 . S
C1497 C1496 1.374 . S
C1498 C1495 1.499 . S
C1498 C1499 1.373 . S
C1498 C1500 1.389 . S
C1499 H1478 0.950 . S
C1499 C1498 1.373 . S
C1499 C1515 1.377 . S
C1500 C1498 1.389 . S
C1500 C1501 1.524 . S
C1500 C1514 1.377 . S
C1501 C1500 1.524 . S
C1501 C1502 1.397 . S
C1501 C1506 1.363 . S
C1502 H1479 0.950 . S
C1502 C1501 1.397 . S
C1502 C1503 1.334 . S
C1503 H1480 0.950 . S
C1503 C1502 1.334 . S
C1503 C1504 1.287 . S
C1504 C1503 1.287 . S
C1504 C1505 1.524 . S
C1504 H1523 0.913 . S
C1505 H1481 0.950 . S
C1505 C1504 1.524 . S
C1505 C1506 1.415 . S
C1506 H1482 0.950 . S
C1506 C1501 1.363 . S
C1506 C1505 1.415 . S
C1507 H1483 0.951 . S
C1507 C1508 1.366 . S
C1507 C1509 1.388 . S
C1508 C1507 1.366 . S
C1508 C1512 1.385 . S
C1509 H1484 0.951 . S
C1509 C1507 1.388 . S
C1509 C1510 1.366 . S
C1510 C1509 1.366 . S
C1510 C1511 1.414 . S
C1510 C1513 1.499 . S
C1511 H1485 0.950 . S
C1511 C1510 1.414 . S
C1511 C1512 1.374 . S
C1512 H1486 0.950 . S
C1512 C1508 1.385 . S
C1512 C1511 1.374 . S
C1513 C1510 1.499 . S
C1513 C1514 1.373 . S
C1513 C1515 1.389 . S
C1514 H1487 0.950 . S
C1514 C1500 1.377 . S
C1514 C1513 1.373 . S
C1515 C1499 1.377 . S
C1515 C1513 1.389 . S
C1515 C1516 1.524 . S
C1516 C1515 1.524 . S
C1516 C1517 1.397 . S
C1516 C1521 1.363 . S
C1517 H1488 0.950 . S
C1517 C1516 1.397 . S
C1517 C1518 1.334 . S
C1518 H1489 0.950 . S
C1518 C1517 1.334 . S
C1518 C1519 1.287 . S
C1519 C1518 1.287 . S
C1519 C1520 1.524 . S
C1519 H1522 0.999 . S
C1520 H1490 0.950 . S
C1520 C1519 1.524 . S
C1520 C1521 1.415 . S
C1521 H1491 0.950 . S
C1521 C1516 1.363 . S
C1521 C1520 1.415 . S
H1522 C1519 0.999 . S
H1523 C1504 0.913 . S
H1524 C1542 0.951 . S
H1525 C1544 0.951 . S
H1526 C1546 0.950 . S
H1527 C1547 0.950 . S
H1528 C1549 0.950 . S
H1529 C1552 0.950 . S
H1530 C1553 0.950 . S
H1531 C1555 0.950 . S
H1532 C1556 0.950 . S
H1533 C1557 0.951 . S
H1534 C1559 0.951 . S
H1535 C1561 0.950 . S
H1536 C1562 0.950 . S
H1537 C1564 0.950 . S
H1538 C1567 0.950 . S
H1539 C1568 0.950 . S
H1540 C1570 0.950 . S
H1541 C1571 0.950 . S
C1542 H1524 0.951 . S
C1542 C1543 1.366 . S
C1542 C1544 1.388 . S
C1543 C1542 1.366 . S
C1543 C1547 1.385 . S
C1544 H1525 0.951 . S
C1544 C1542 1.388 . S
C1544 C1545 1.366 . S
C1545 C1544 1.366 . S
C1545 C1546 1.414 . S
C1545 C1548 1.499 . S
C1546 H1526 0.950 . S
C1546 C1545 1.414 . S
C1546 C1547 1.374 . S
C1547 H1527 0.950 . S
C1547 C1543 1.385 . S
C1547 C1546 1.374 . S
C1548 C1545 1.499 . S
C1548 C1549 1.373 . S
C1548 C1550 1.389 . S
C1549 H1528 0.950 . S
C1549 C1548 1.373 . S
C1549 C1565 1.377 . S
C1550 C1548 1.389 . S
C1550 C1551 1.524 . S
C1550 C1564 1.377 . S
C1551 C1550 1.524 . S
C1551 C1552 1.397 . S
C1551 C1556 1.363 . S
C1552 H1529 0.950 . S
C1552 C1551 1.397 . S
C1552 C1553 1.334 . S
C1553 H1530 0.950 . S
C1553 C1552 1.334 . S
C1553 C1554 1.287 . S
C1554 C1553 1.287 . S
C1554 C1555 1.524 . S
C1554 H1573 0.913 . S
C1555 H1531 0.950 . S
C1555 C1554 1.524 . S
C1555 C1556 1.415 . S
C1556 H1532 0.950 . S
C1556 C1551 1.363 . S
C1556 C1555 1.415 . S
C1557 H1533 0.951 . S
C1557 C1558 1.366 . S
C1557 C1559 1.388 . S
C1558 C1557 1.366 . S
C1558 C1562 1.385 . S
C1559 H1534 0.951 . S
C1559 C1557 1.388 . S
C1559 C1560 1.366 . S
C1560 C1559 1.366 . S
C1560 C1561 1.414 . S
C1560 C1563 1.499 . S
C1561 H1535 0.950 . S
C1561 C1560 1.414 . S
C1561 C1562 1.374 . S
C1562 H1536 0.950 . S
C1562 C1558 1.385 . S
C1562 C1561 1.374 . S
C1563 C1560 1.499 . S
C1563 C1564 1.373 . S
C1563 C1565 1.389 . S
C1564 H1537 0.950 . S
C1564 C1550 1.377 . S
C1564 C1563 1.373 . S
C1565 C1549 1.377 . S
C1565 C1563 1.389 . S
C1565 C1566 1.524 . S
C1566 C1565 1.524 . S
C1566 C1567 1.397 . S
C1566 C1571 1.363 . S
C1567 H1538 0.950 . S
C1567 C1566 1.397 . S
C1567 C1568 1.334 . S
C1568 H1539 0.950 . S
C1568 C1567 1.334 . S
C1568 C1569 1.287 . S
C1569 C1568 1.287 . S
C1569 C1570 1.524 . S
C1569 H1572 0.999 . S
C1570 H1540 0.950 . S
C1570 C1569 1.524 . S
C1570 C1571 1.415 . S
C1571 H1541 0.950 . S
C1571 C1566 1.363 . S
C1571 C1570 1.415 . S
H1572 C1569 0.999 . S
H1573 C1554 0.913 . S
H1574 C1592 0.951 . S
H1575 C1594 0.951 . S
H1576 C1596 0.950 . S
H1577 C1597 0.950 . S
H1578 C1599 0.950 . S
H1579 C1602 0.950 . S
H1580 C1603 0.950 . S
H1581 C1605 0.950 1_655 S
H1582 C1606 0.950 . S
H1583 C1607 0.951 . S
H1584 C1609 0.951 . S
H1585 C1611 0.950 . S
H1586 C1612 0.950 . S
H1587 C1614 0.950 . S
H1588 C1617 0.950 . S
H1589 C1618 0.950 . S
H1590 C1620 0.950 . S
H1591 C1621 0.950 . S
C1592 H1574 0.951 . S
C1592 C1593 1.366 . S
C1592 C1594 1.388 . S
C1593 C1592 1.366 . S
C1593 C1597 1.385 . S
C1594 H1575 0.951 . S
C1594 C1592 1.388 . S
C1594 C1595 1.366 . S
C1595 C1594 1.366 . S
C1595 C1596 1.414 . S
C1595 C1598 1.499 . S
C1596 H1576 0.950 . S
C1596 C1595 1.414 . S
C1596 C1597 1.374 . S
C1597 H1577 0.950 . S
C1597 C1593 1.385 . S
C1597 C1596 1.374 . S
C1598 C1595 1.499 . S
C1598 C1599 1.373 . S
C1598 C1600 1.389 . S
C1599 H1578 0.950 . S
C1599 C1598 1.373 . S
C1599 C1615 1.377 . S
C1600 C1598 1.389 . S
C1600 C1601 1.524 . S
C1600 C1614 1.377 . S
C1601 C1600 1.524 . S
C1601 C1602 1.397 . S
C1601 C1606 1.363 . S
C1602 H1579 0.950 . S
C1602 C1601 1.397 . S
C1602 C1603 1.334 . S
C1603 H1580 0.950 . S
C1603 C1602 1.334 . S
C1603 C1604 1.287 . S
C1604 C1603 1.287 . S
C1604 C1605 1.524 . S
C1604 H1623 0.913 . S
C1605 H1581 0.950 1_455 S
C1605 C1604 1.524 . S
C1605 C1606 1.415 . S
C1606 H1582 0.950 . S
C1606 C1601 1.363 . S
C1606 C1605 1.415 . S
C1607 H1583 0.951 . S
C1607 C1608 1.366 . S
C1607 C1609 1.388 . S
C1608 C1607 1.366 . S
C1608 C1612 1.385 . S
C1609 H1584 0.951 . S
C1609 C1607 1.388 . S
C1609 C1610 1.366 . S
C1610 C1609 1.366 . S
C1610 C1611 1.414 . S
C1610 C1613 1.499 . S
C1611 H1585 0.950 . S
C1611 C1610 1.414 . S
C1611 C1612 1.374 . S
C1612 H1586 0.950 . S
C1612 C1608 1.385 . S
C1612 C1611 1.374 . S
C1613 C1610 1.499 . S
C1613 C1614 1.373 . S
C1613 C1615 1.389 . S
C1614 H1587 0.950 . S
C1614 C1600 1.377 . S
C1614 C1613 1.373 . S
C1615 C1599 1.377 . S
C1615 C1613 1.389 . S
C1615 C1616 1.524 . S
C1616 C1615 1.524 . S
C1616 C1617 1.397 . S
C1616 C1621 1.363 . S
C1617 H1588 0.950 . S
C1617 C1616 1.397 . S
C1617 C1618 1.334 . S
C1618 H1589 0.950 . S
C1618 C1617 1.334 . S
C1618 C1619 1.287 . S
C1619 C1618 1.287 . S
C1619 C1620 1.524 . S
C1619 H1622 0.999 . S
C1620 H1590 0.950 . S
C1620 C1619 1.524 . S
C1620 C1621 1.415 . S
C1621 H1591 0.950 . S
C1621 C1616 1.363 . S
C1621 C1620 1.415 . S
H1622 C1619 0.999 . S
H1623 C1604 0.913 . S
C443 C73 1.618 . S
C458 C162 1.652 . S
C508 C246 1.772 . S
C493 C84 1.758 . S
C558 C239 1.653 . S
C543 C51 1.607 . S
C593 C62 1.748 . S
C608 C155 1.785 . S
C658 C319 1.656 . S
C643 C29 1.604 . S
C708 C403 1.577 . S
C693 C38 1.458 . S
C743 C7 1.587 . S
C758 C396 1.662 . S
C793 C16 1.463 . S
C808 C312 1.581 . S
C858 C146 1.514 . S
C843 C18 1.664 . S
C908 C230 1.542 . S
C893 C5 1.452 . S
C958 C241 1.490 . S
C943 C40 1.677 . S
C1008 C157 1.516 . S
C993 C27 1.473 . S
C1058 C325 1.338 . S
C1043 C60 1.355 . S
C1093 C49 1.366 . S
C1108 C409 1.370 . S
C1158 C398 1.338 . S
C1143 C82 1.365 . S
C1193 C71 1.373 . S
C1208 C314 1.355 . S
C1258 C144 1.700 . S
C1243 C8 1.677 . S
C1308 C228 1.569 . S
C1293 C19 1.566 . S
C1343 C30 1.679 . S
C1358 C235 1.676 . S
C1408 C151 1.538 . S
C1393 C41 1.555 . S
C1458 C323 1.420 . S
C1443 C52 1.417 . S
C1493 C63 1.573 . S
C1508 C407 1.572 . S
C1543 C74 1.410 . S
C1558 C414 1.386 . S
C1593 C85 1.564 . S
C1608 C330 1.534 . S
