# Generated by pormake.
# Topology gar, (4,6)-cn, num edge types: 1
# Building blocks:
#     Node 0, Type 0, BuildingBlock: UXUYUI_clean_sbu_0, # of connection points: 4
#     Node 1, Type 0, BuildingBlock: UXUYUI_clean_sbu_0, # of connection points: 4
#     Node 2, Type 0, BuildingBlock: UXUYUI_clean_sbu_0, # of connection points: 4
#     Node 3, Type 0, BuildingBlock: UXUYUI_clean_sbu_0, # of connection points: 4
#     Node 4, Type 0, BuildingBlock: UXUYUI_clean_sbu_0, # of connection points: 4
#     Node 5, Type 0, BuildingBlock: UXUYUI_clean_sbu_0, # of connection points: 4
#     Node 6, Type 0, BuildingBlock: UXUYUI_clean_sbu_0, # of connection points: 4
#     Node 7, Type 0, BuildingBlock: UXUYUI_clean_sbu_0, # of connection points: 4
#     Node 8, Type 0, BuildingBlock: UXUYUI_clean_sbu_0, # of connection points: 4
#     Node 9, Type 0, BuildingBlock: UXUYUI_clean_sbu_0, # of connection points: 4
#     Node 10, Type 0, BuildingBlock: UXUYUI_clean_sbu_0, # of connection points: 4
#     Node 11, Type 0, BuildingBlock: UXUYUI_clean_sbu_0, # of connection points: 4
#     Node 12, Type 0, BuildingBlock: UXUYUI_clean_sbu_0, # of connection points: 4
#     Node 13, Type 0, BuildingBlock: UXUYUI_clean_sbu_0, # of connection points: 4
#     Node 14, Type 0, BuildingBlock: UXUYUI_clean_sbu_0, # of connection points: 4
#     Node 15, Type 0, BuildingBlock: UXUYUI_clean_sbu_0, # of connection points: 4
#     Node 16, Type 0, BuildingBlock: UXUYUI_clean_sbu_0, # of connection points: 4
#     Node 17, Type 0, BuildingBlock: UXUYUI_clean_sbu_0, # of connection points: 4
#     Node 18, Type 0, BuildingBlock: UXUYUI_clean_sbu_0, # of connection points: 4
#     Node 19, Type 0, BuildingBlock: UXUYUI_clean_sbu_0, # of connection points: 4
#     Node 20, Type 0, BuildingBlock: UXUYUI_clean_sbu_0, # of connection points: 4
#     Node 21, Type 0, BuildingBlock: UXUYUI_clean_sbu_0, # of connection points: 4
#     Node 22, Type 0, BuildingBlock: UXUYUI_clean_sbu_0, # of connection points: 4
#     Node 23, Type 0, BuildingBlock: UXUYUI_clean_sbu_0, # of connection points: 4
#     Node 24, Type 1, BuildingBlock: BETDIP_clean_sbu_0, # of connection points: 6
#     Node 25, Type 1, BuildingBlock: BETDIP_clean_sbu_0, # of connection points: 6
#     Node 26, Type 1, BuildingBlock: BETDIP_clean_sbu_0, # of connection points: 6
#     Node 27, Type 1, BuildingBlock: BETDIP_clean_sbu_0, # of connection points: 6
#     Node 28, Type 1, BuildingBlock: BETDIP_clean_sbu_0, # of connection points: 6
#     Node 29, Type 1, BuildingBlock: BETDIP_clean_sbu_0, # of connection points: 6
#     Node 30, Type 1, BuildingBlock: BETDIP_clean_sbu_0, # of connection points: 6
#     Node 31, Type 1, BuildingBlock: BETDIP_clean_sbu_0, # of connection points: 6
#     Node 32, Type 1, BuildingBlock: BETDIP_clean_sbu_0, # of connection points: 6
#     Node 33, Type 1, BuildingBlock: BETDIP_clean_sbu_0, # of connection points: 6
#     Node 34, Type 1, BuildingBlock: BETDIP_clean_sbu_0, # of connection points: 6
#     Node 35, Type 1, BuildingBlock: BETDIP_clean_sbu_0, # of connection points: 6
#     Node 36, Type 1, BuildingBlock: BETDIP_clean_sbu_0, # of connection points: 6
#     Node 37, Type 1, BuildingBlock: BETDIP_clean_sbu_0, # of connection points: 6
#     Node 38, Type 1, BuildingBlock: BETDIP_clean_sbu_0, # of connection points: 6
#     Node 39, Type 1, BuildingBlock: BETDIP_clean_sbu_0, # of connection points: 6
#     Edge 40, Type (0, 1), BuildingBlock: KIFKEQ_clean_linker_1, # of connection points: 2
#     Edge 41, Type (0, 1), BuildingBlock: KIFKEQ_clean_linker_1, # of connection points: 2
#     Edge 42, Type (0, 1), BuildingBlock: KIFKEQ_clean_linker_1, # of connection points: 2
#     Edge 43, Type (0, 1), BuildingBlock: KIFKEQ_clean_linker_1, # of connection points: 2
#     Edge 44, Type (0, 1), BuildingBlock: KIFKEQ_clean_linker_1, # of connection points: 2
#     Edge 45, Type (0, 1), BuildingBlock: KIFKEQ_clean_linker_1, # of connection points: 2
#     Edge 46, Type (0, 1), BuildingBlock: KIFKEQ_clean_linker_1, # of connection points: 2
#     Edge 47, Type (0, 1), BuildingBlock: KIFKEQ_clean_linker_1, # of connection points: 2
#     Edge 48, Type (0, 1), BuildingBlock: KIFKEQ_clean_linker_1, # of connection points: 2
#     Edge 49, Type (0, 1), BuildingBlock: KIFKEQ_clean_linker_1, # of connection points: 2
#     Edge 50, Type (0, 1), BuildingBlock: KIFKEQ_clean_linker_1, # of connection points: 2
#     Edge 51, Type (0, 1), BuildingBlock: KIFKEQ_clean_linker_1, # of connection points: 2
#     Edge 52, Type (0, 1), BuildingBlock: KIFKEQ_clean_linker_1, # of connection points: 2
#     Edge 53, Type (0, 1), BuildingBlock: KIFKEQ_clean_linker_1, # of connection points: 2
#     Edge 54, Type (0, 1), BuildingBlock: KIFKEQ_clean_linker_1, # of connection points: 2
#     Edge 55, Type (0, 1), BuildingBlock: KIFKEQ_clean_linker_1, # of connection points: 2
#     Edge 56, Type (0, 1), BuildingBlock: KIFKEQ_clean_linker_1, # of connection points: 2
#     Edge 57, Type (0, 1), BuildingBlock: KIFKEQ_clean_linker_1, # of connection points: 2
#     Edge 58, Type (0, 1), BuildingBlock: KIFKEQ_clean_linker_1, # of connection points: 2
#     Edge 59, Type (0, 1), BuildingBlock: KIFKEQ_clean_linker_1, # of connection points: 2
#     Edge 60, Type (0, 1), BuildingBlock: KIFKEQ_clean_linker_1, # of connection points: 2
#     Edge 61, Type (0, 1), BuildingBlock: KIFKEQ_clean_linker_1, # of connection points: 2
#     Edge 62, Type (0, 1), BuildingBlock: KIFKEQ_clean_linker_1, # of connection points: 2
#     Edge 63, Type (0, 1), BuildingBlock: KIFKEQ_clean_linker_1, # of connection points: 2
#     Edge 64, Type (0, 1), BuildingBlock: KIFKEQ_clean_linker_1, # of connection points: 2
#     Edge 65, Type (0, 1), BuildingBlock: KIFKEQ_clean_linker_1, # of connection points: 2
#     Edge 66, Type (0, 1), BuildingBlock: KIFKEQ_clean_linker_1, # of connection points: 2
#     Edge 67, Type (0, 1), BuildingBlock: KIFKEQ_clean_linker_1, # of connection points: 2
#     Edge 68, Type (0, 1), BuildingBlock: KIFKEQ_clean_linker_1, # of connection points: 2
#     Edge 69, Type (0, 1), BuildingBlock: KIFKEQ_clean_linker_1, # of connection points: 2
#     Edge 70, Type (0, 1), BuildingBlock: KIFKEQ_clean_linker_1, # of connection points: 2
#     Edge 71, Type (0, 1), BuildingBlock: KIFKEQ_clean_linker_1, # of connection points: 2
#     Edge 72, Type (0, 1), BuildingBlock: KIFKEQ_clean_linker_1, # of connection points: 2
#     Edge 73, Type (0, 1), BuildingBlock: KIFKEQ_clean_linker_1, # of connection points: 2
#     Edge 74, Type (0, 1), BuildingBlock: KIFKEQ_clean_linker_1, # of connection points: 2
#     Edge 75, Type (0, 1), BuildingBlock: KIFKEQ_clean_linker_1, # of connection points: 2
#     Edge 76, Type (0, 1), BuildingBlock: KIFKEQ_clean_linker_1, # of connection points: 2
#     Edge 77, Type (0, 1), BuildingBlock: KIFKEQ_clean_linker_1, # of connection points: 2
#     Edge 78, Type (0, 1), BuildingBlock: KIFKEQ_clean_linker_1, # of connection points: 2
#     Edge 79, Type (0, 1), BuildingBlock: KIFKEQ_clean_linker_1, # of connection points: 2
#     Edge 80, Type (0, 1), BuildingBlock: KIFKEQ_clean_linker_1, # of connection points: 2
#     Edge 81, Type (0, 1), BuildingBlock: KIFKEQ_clean_linker_1, # of connection points: 2
#     Edge 82, Type (0, 1), BuildingBlock: KIFKEQ_clean_linker_1, # of connection points: 2
#     Edge 83, Type (0, 1), BuildingBlock: KIFKEQ_clean_linker_1, # of connection points: 2
#     Edge 84, Type (0, 1), BuildingBlock: KIFKEQ_clean_linker_1, # of connection points: 2
#     Edge 85, Type (0, 1), BuildingBlock: KIFKEQ_clean_linker_1, # of connection points: 2
#     Edge 86, Type (0, 1), BuildingBlock: KIFKEQ_clean_linker_1, # of connection points: 2
#     Edge 87, Type (0, 1), BuildingBlock: KIFKEQ_clean_linker_1, # of connection points: 2
#     Edge 88, Type (0, 1), BuildingBlock: KIFKEQ_clean_linker_1, # of connection points: 2
#     Edge 89, Type (0, 1), BuildingBlock: KIFKEQ_clean_linker_1, # of connection points: 2
#     Edge 90, Type (0, 1), BuildingBlock: KIFKEQ_clean_linker_1, # of connection points: 2
#     Edge 91, Type (0, 1), BuildingBlock: KIFKEQ_clean_linker_1, # of connection points: 2
#     Edge 92, Type (0, 1), BuildingBlock: KIFKEQ_clean_linker_1, # of connection points: 2
#     Edge 93, Type (0, 1), BuildingBlock: KIFKEQ_clean_linker_1, # of connection points: 2
#     Edge 94, Type (0, 1), BuildingBlock: KIFKEQ_clean_linker_1, # of connection points: 2
#     Edge 95, Type (0, 1), BuildingBlock: KIFKEQ_clean_linker_1, # of connection points: 2
#     Edge 96, Type (0, 1), BuildingBlock: KIFKEQ_clean_linker_1, # of connection points: 2
#     Edge 97, Type (0, 1), BuildingBlock: KIFKEQ_clean_linker_1, # of connection points: 2
#     Edge 98, Type (0, 1), BuildingBlock: KIFKEQ_clean_linker_1, # of connection points: 2
#     Edge 99, Type (0, 1), BuildingBlock: KIFKEQ_clean_linker_1, # of connection points: 2
#     Edge 100, Type (0, 1), BuildingBlock: KIFKEQ_clean_linker_1, # of connection points: 2
#     Edge 101, Type (0, 1), BuildingBlock: KIFKEQ_clean_linker_1, # of connection points: 2
#     Edge 102, Type (0, 1), BuildingBlock: KIFKEQ_clean_linker_1, # of connection points: 2
#     Edge 103, Type (0, 1), BuildingBlock: KIFKEQ_clean_linker_1, # of connection points: 2
#     Edge 104, Type (0, 1), BuildingBlock: KIFKEQ_clean_linker_1, # of connection points: 2
#     Edge 105, Type (0, 1), BuildingBlock: KIFKEQ_clean_linker_1, # of connection points: 2
#     Edge 106, Type (0, 1), BuildingBlock: KIFKEQ_clean_linker_1, # of connection points: 2
#     Edge 107, Type (0, 1), BuildingBlock: KIFKEQ_clean_linker_1, # of connection points: 2
#     Edge 108, Type (0, 1), BuildingBlock: KIFKEQ_clean_linker_1, # of connection points: 2
#     Edge 109, Type (0, 1), BuildingBlock: KIFKEQ_clean_linker_1, # of connection points: 2
#     Edge 110, Type (0, 1), BuildingBlock: KIFKEQ_clean_linker_1, # of connection points: 2
#     Edge 111, Type (0, 1), BuildingBlock: KIFKEQ_clean_linker_1, # of connection points: 2
#     Edge 112, Type (0, 1), BuildingBlock: KIFKEQ_clean_linker_1, # of connection points: 2
#     Edge 113, Type (0, 1), BuildingBlock: KIFKEQ_clean_linker_1, # of connection points: 2
#     Edge 114, Type (0, 1), BuildingBlock: KIFKEQ_clean_linker_1, # of connection points: 2
#     Edge 115, Type (0, 1), BuildingBlock: KIFKEQ_clean_linker_1, # of connection points: 2
#     Edge 116, Type (0, 1), BuildingBlock: KIFKEQ_clean_linker_1, # of connection points: 2
#     Edge 117, Type (0, 1), BuildingBlock: KIFKEQ_clean_linker_1, # of connection points: 2
#     Edge 118, Type (0, 1), BuildingBlock: KIFKEQ_clean_linker_1, # of connection points: 2
#     Edge 119, Type (0, 1), BuildingBlock: KIFKEQ_clean_linker_1, # of connection points: 2
#     Edge 120, Type (0, 1), BuildingBlock: KIFKEQ_clean_linker_1, # of connection points: 2
#     Edge 121, Type (0, 1), BuildingBlock: KIFKEQ_clean_linker_1, # of connection points: 2
#     Edge 122, Type (0, 1), BuildingBlock: KIFKEQ_clean_linker_1, # of connection points: 2
#     Edge 123, Type (0, 1), BuildingBlock: KIFKEQ_clean_linker_1, # of connection points: 2
#     Edge 124, Type (0, 1), BuildingBlock: KIFKEQ_clean_linker_1, # of connection points: 2
#     Edge 125, Type (0, 1), BuildingBlock: KIFKEQ_clean_linker_1, # of connection points: 2
#     Edge 126, Type (0, 1), BuildingBlock: KIFKEQ_clean_linker_1, # of connection points: 2
#     Edge 127, Type (0, 1), BuildingBlock: KIFKEQ_clean_linker_1, # of connection points: 2
#     Edge 128, Type (0, 1), BuildingBlock: KIFKEQ_clean_linker_1, # of connection points: 2
#     Edge 129, Type (0, 1), BuildingBlock: KIFKEQ_clean_linker_1, # of connection points: 2
#     Edge 130, Type (0, 1), BuildingBlock: KIFKEQ_clean_linker_1, # of connection points: 2
#     Edge 131, Type (0, 1), BuildingBlock: KIFKEQ_clean_linker_1, # of connection points: 2
#     Edge 132, Type (0, 1), BuildingBlock: KIFKEQ_clean_linker_1, # of connection points: 2
#     Edge 133, Type (0, 1), BuildingBlock: KIFKEQ_clean_linker_1, # of connection points: 2
#     Edge 134, Type (0, 1), BuildingBlock: KIFKEQ_clean_linker_1, # of connection points: 2
#     Edge 135, Type (0, 1), BuildingBlock: KIFKEQ_clean_linker_1, # of connection points: 2
# Relax obj value: 0.184
# Max RMSD: 0.267
# Mean RMSD: 0.185
data_MOF--net-gar--node1-UXUYUI_clean_sbu_0--node2-BETDIP_clean_sbu_0--edge1-KIFKEQ_clean_linker_1
_symmetry_space_group_name_H-M    P1
_symmetry_Int_Tables_number       1
_symmetry_cell_setting            triclinic
loop_
_symmetry_equiv_pos_as_xyz
'x, y, z'
_cell_length_a     77.192761
_cell_length_b     71.197836
_cell_length_c     68.946142
_cell_angle_alpha  97.140151
_cell_angle_beta   98.159341
_cell_angle_gamma 100.44914
loop_
_atom_site_label
_atom_site_type_symbol
_atom_site_fract_x
_atom_site_fract_y
_atom_site_fract_z
_atom_type_partial_charge
Li0 Li 0.01048 0.29648 0.36719 0.0
Li1 Li 0.02809 0.31496 0.39799 0.0
Li2 Li 0.04214 0.30011 0.37083 0.0
Li3 Li 0.02539 0.28013 0.39128 0.0
C4 C 0.02868 0.33323 0.35752 0.0
N5 N 0.02966 0.35879 0.33057 0.0
C6 C 0.02546 0.3517 0.36273 0.0
C7 C 0.03251 0.32774 0.33869 0.0
C8 C 0.02598 0.36442 0.34887 0.0
C9 C 0.03292 0.34087 0.32525 0.0
C10 C 0.99586 0.29519 0.40822 0.0
C11 C 0.99002 0.29168 0.44114 0.0
N12 N 0.97383 0.29646 0.4364 0.0
C13 C 0.97915 0.30002 0.40366 0.0
C14 C 1.00134 0.29097 0.4271 0.0
C15 C 0.96822 0.30062 0.41811 0.0
C16 C 0.97546 0.28016 0.35409 0.0
N17 N 0.98838 0.29472 0.35116 0.0
C18 C 0.9668 0.30893 0.33318 0.0
C19 C 0.98451 0.30869 0.34049 0.0
C20 C 0.95318 0.29481 0.33722 0.0
C21 C 0.95763 0.2799 0.34718 0.0
H22 H 0.97896 0.26955 0.36308 0.0
H23 H 0.99495 0.32026 0.33862 0.0
C24 C 0.04296 0.34527 0.43048 0.0
N25 N 0.02839 0.33614 0.41698 0.0
C26 C 0.04165 0.36059 0.44455 0.0
C27 C 0.01037 0.3564 0.43055 0.0
C28 C 0.01247 0.34172 0.41643 0.0
C29 C 0.0251 0.36624 0.4448 0.0
H30 H 0.05558 0.34076 0.43023 0.0
H31 H 1.00136 0.33468 0.40498 0.0
C32 C 0.01293 0.26367 0.34691 0.0
N33 N 0.98975 0.23949 0.31585 0.0
C34 C 1.00319 0.24607 0.35002 0.0
C35 C 0.01102 0.26888 0.32796 0.0
C36 C 0.9915 0.23407 0.33415 0.0
C37 C 0.99919 0.25649 0.31246 0.0
C38 C 0.05901 0.2978 0.41583 0.0
C39 C 0.07514 0.29247 0.41307 0.0
C40 C 0.05472 0.30039 0.43485 0.0
C41 C 0.0866 0.28942 0.42945 0.0
C42 C 0.06654 0.29724 0.45085 0.0
N43 N 0.08209 0.29184 0.44784 0.0
C44 C 0.0747 0.31788 0.36021 0.0
C45 C 0.06167 0.28569 0.34492 0.0
C46 C 0.08892 0.31798 0.34975 0.0
N47 N 0.06153 0.30185 0.35754 0.0
C48 C 0.0755 0.28515 0.3342 0.0
C49 C 0.08933 0.30143 0.33654 0.0
H50 H 0.07414 0.33049 0.37044 0.0
H51 H 0.05109 0.27311 0.34332 0.0
C52 C 1.00694 0.24907 0.40545 0.0
N53 N 0.02343 0.25791 0.40295 0.0
C54 C 1.005 0.23291 0.41495 0.0
C55 C 0.03698 0.23488 0.41826 0.0
C56 C 0.03826 0.2509 0.40859 0.0
C57 C 0.02022 0.22593 0.42175 0.0
H58 H 0.99532 0.25466 0.40016 0.0
H59 H 0.05105 0.25775 0.40562 0.0
O60 O 0.02833 0.32074 0.37097 0.0
O61 O 1.00661 0.2943 0.39411 0.0
O62 O 0.02442 0.27564 0.36227 0.0
O63 O 0.04768 0.30079 0.39994 0.0
H64 H 0.02255 0.35612 0.37733 0.0
H65 H 0.03518 0.31356 0.3345 0.0
H66 H 0.02347 0.37877 0.35267 0.0
H67 H 0.03584 0.33683 0.3106 0.0
H68 H 0.99407 0.28837 0.45579 0.0
H69 H 0.97476 0.30359 0.38922 0.0
H70 H 0.01406 0.28688 0.43079 0.0
H71 H 0.95529 0.30441 0.4148 0.0
H72 H 0.96374 0.32065 0.32556 0.0
H73 H 0.94739 0.26867 0.35034 0.0
H74 H 0.05353 0.36806 0.45483 0.0
H75 H 0.99726 0.35988 0.4302 0.0
H76 H 1.00464 0.24169 0.36451 0.0
H77 H 0.01853 0.28236 0.32525 0.0
H78 H 0.98384 0.22044 0.33637 0.0
H79 H 0.99753 0.26039 0.29774 0.0
H80 H 0.07867 0.29055 0.39841 0.0
H81 H 0.04251 0.30498 0.43729 0.0
H82 H 0.09907 0.28515 0.42754 0.0
H83 H 0.06337 0.29916 0.46567 0.0
H84 H 0.09941 0.33079 0.35191 0.0
H85 H 0.07556 0.27196 0.32452 0.0
H86 H 0.99186 0.22629 0.4174 0.0
H87 H 0.04893 0.22954 0.42298 0.0
Li88 Li 0.05349 0.77011 0.67006 0.0
Li89 Li 0.06645 0.74973 0.69264 0.0
Li90 Li 0.04681 0.73593 0.66338 0.0
Li91 Li 0.0348 0.74997 0.68988 0.0
C92 C 0.07755 0.74546 0.65102 0.0
N93 N 0.09188 0.72859 0.62051 0.0
C94 C 0.08812 0.73185 0.65447 0.0
C95 C 0.07433 0.75061 0.63214 0.0
C96 C 0.09522 0.72345 0.63882 0.0
C97 C 0.08168 0.74188 0.61689 0.0
C98 C 0.0637 0.78686 0.71393 0.0
C99 C 0.06749 0.80354 0.74738 0.0
N100 N 0.08039 0.81746 0.74323 0.0
C101 C 0.07687 0.80143 0.70995 0.0
C102 C 0.05886 0.788 0.73276 0.0
C103 C 0.08522 0.81672 0.72497 0.0
C104 C 0.04414 0.80324 0.65926 0.0
N105 N 0.05739 0.79308 0.66022 0.0
C106 C 0.07571 0.81603 0.64568 0.0
C107 C 0.07305 0.79911 0.6539 0.0
C108 C 0.06209 0.82665 0.64406 0.0
C109 C 0.0462 0.82022 0.65111 0.0
H110 H 0.03187 0.79788 0.66447 0.0
H111 H 0.08338 0.79069 0.65518 0.0
C112 C 0.09154 0.73137 0.71286 0.0
N113 N 0.0883 0.74834 0.70755 0.0
C114 C 0.10896 0.72965 0.71974 0.0
C115 C 0.11923 0.76287 0.71558 0.0
C116 C 0.10167 0.76395 0.70885 0.0
C117 C 0.12303 0.74541 0.72063 0.0
H118 H 0.08085 0.71883 0.71061 0.0
H119 H 0.09886 0.77683 0.70345 0.0
C120 C 0.01736 0.74643 0.64521 0.0
N121 N 0.99221 0.73236 0.61149 0.0
C122 C 1.00419 0.73005 0.64483 0.0
C123 C 0.01769 0.75579 0.62857 0.0
C124 C 0.9916 0.72312 0.62759 0.0
C125 C 1.00488 0.7484 0.61163 0.0
C126 C 0.04529 0.72026 0.70679 0.0
C127 C 0.03823 0.70075 0.70665 0.0
C128 C 0.05112 0.73263 0.72481 0.0
C129 C 0.03713 0.6939 0.72464 0.0
C130 C 0.0498 0.72525 0.74249 0.0
N131 N 0.04289 0.70619 0.74205 0.0
C132 C 0.0487 0.69883 0.64945 0.0
C133 C 0.03962 0.71561 0.62337 0.0
C134 C 0.04991 0.68317 0.6359 0.0
N135 N 0.04378 0.71467 0.64302 0.0
C136 C 0.04055 0.70019 0.60926 0.0
C137 C 0.04607 0.6839 0.61554 0.0
H138 H 0.05243 0.6987 0.66513 0.0
H139 H 0.03657 0.72865 0.61859 0.0
C140 C 0.01319 0.76817 0.71045 0.0
N141 N 0.01564 0.75038 0.70335 0.0
C142 C 0.99907 0.77 0.72049 0.0
C143 C 0.99008 0.73509 0.71533 0.0
C144 C 1.00448 0.73394 0.70544 0.0
C145 C 0.98732 0.75332 0.723 0.0
H146 H 0.02213 0.78093 0.70811 0.0
H147 H 1.00666 0.72001 0.69928 0.0
O148 O 0.0703 0.75364 0.66606 0.0
O149 O 0.05493 0.77209 0.69923 0.0
O150 O 0.0296 0.75367 0.66197 0.0
O151 O 0.04611 0.72712 0.68923 0.0
H152 H 0.09067 0.7277 0.66901 0.0
H153 H 0.06598 0.76096 0.62922 0.0
H154 H 0.10336 0.71281 0.64122 0.0
H155 H 0.0792 0.7456 0.60214 0.0
H156 H 0.06386 0.80458 0.76201 0.0
H157 H 0.08072 0.8009 0.69546 0.0
H158 H 0.04844 0.77709 0.73605 0.0
H159 H 0.0955 0.82803 0.72211 0.0
H160 H 0.08819 0.82069 0.64054 0.0
H161 H 0.03528 0.82788 0.64979 0.0
H162 H 0.11151 0.71588 0.72326 0.0
H163 H 0.1298 0.77534 0.71617 0.0
H164 H 1.00373 0.72276 0.65768 0.0
H165 H 0.02783 0.7685 0.6287 0.0
H166 H 0.98133 0.71042 0.62702 0.0
H167 H 1.00503 0.75541 0.59859 0.0
H168 H 0.03355 0.69102 0.69277 0.0
H169 H 0.05681 0.74767 0.72516 0.0
H170 H 0.03167 0.67882 0.72476 0.0
H171 H 0.05432 0.73467 0.75657 0.0
H172 H 0.05404 0.67074 0.64129 0.0
H173 H 0.03772 0.70133 0.59366 0.0
H174 H 0.99712 0.78431 0.7258 0.0
H175 H 0.98123 0.72194 0.71699 0.0
Li176 Li 0.50897 0.79833 0.86715 0.0
Li177 Li 0.52674 0.81455 0.89749 0.0
Li178 Li 0.54058 0.79794 0.87121 0.0
Li179 Li 0.52148 0.78006 0.89132 0.0
C180 C 0.52579 0.8292 0.85428 0.0
N181 N 0.518 0.84593 0.82097 0.0
C182 C 0.52113 0.84731 0.8561 0.0
C183 C 0.52661 0.81962 0.83559 0.0
C184 C 0.51719 0.85551 0.83906 0.0
C185 C 0.5226 0.82831 0.81891 0.0
C186 C 0.49593 0.80113 0.90989 0.0
C187 C 0.49479 0.80272 0.94483 0.0
N188 N 0.4809 0.81202 0.94252 0.0
C189 C 0.48146 0.81043 0.90783 0.0
C190 C 0.50249 0.79704 0.9285 0.0
C191 C 0.47412 0.81592 0.9245 0.0
C192 C 0.47927 0.7867 0.83434 0.0
N193 N 0.48833 0.80025 0.84981 0.0
C194 C 0.46433 0.81711 0.84854 0.0
C195 C 0.48162 0.81579 0.85621 0.0
C196 C 0.45397 0.80244 0.83376 0.0
C197 C 0.462 0.78764 0.82589 0.0
H198 H 0.48491 0.77467 0.82911 0.0
H199 H 0.48927 0.82644 0.86838 0.0
C200 C 0.54041 0.83912 0.93416 0.0
N201 N 0.52881 0.83602 0.91679 0.0
C202 C 0.53981 0.85399 0.94905 0.0
C203 C 0.51601 0.8627 0.92735 0.0
C204 C 0.51691 0.84752 0.91306 0.0
C205 C 0.52735 0.86589 0.94579 0.0
H206 H 0.54988 0.82988 0.93659 0.0
H207 H 0.50782 0.84455 0.89911 0.0
C208 C 0.51161 0.76134 0.84808 0.0
N209 N 0.49345 0.73137 0.81886 0.0
C210 C 0.49759 0.74777 0.85209 0.0
C211 C 0.51637 0.7597 0.82922 0.0
C212 C 0.48859 0.7327 0.83711 0.0
C213 C 0.50702 0.74445 0.81464 0.0
C214 C 0.55611 0.79127 0.91357 0.0
C215 C 0.57064 0.7844 0.9075 0.0
C216 C 0.55333 0.79105 0.93314 0.0
C217 C 0.58185 0.77698 0.92096 0.0
C218 C 0.56484 0.78355 0.94617 0.0
N219 N 0.57874 0.77669 0.93986 0.0
C220 C 0.57138 0.81156 0.85447 0.0
C221 C 0.56124 0.77771 0.85227 0.0
C222 C 0.58543 0.80853 0.84454 0.0
N223 N 0.55979 0.79617 0.85813 0.0
C224 C 0.57484 0.77401 0.84219 0.0
C225 C 0.58729 0.78952 0.83841 0.0
H226 H 0.56977 0.82609 0.85935 0.0
H227 H 0.55183 0.76582 0.8556 0.0
C228 C 0.50267 0.75105 0.9089 0.0
N229 N 0.51811 0.75724 0.90218 0.0
C230 C 0.50077 0.73477 0.91827 0.0
C231 C 0.53032 0.73109 0.91259 0.0
C232 C 0.53154 0.74727 0.90315 0.0
C233 C 0.51492 0.72495 0.92056 0.0
H234 H 0.49195 0.75891 0.90723 0.0
H235 H 0.54327 0.75206 0.89681 0.0
O236 O 0.52935 0.82077 0.8707 0.0
O237 O 0.50355 0.79593 0.89379 0.0
O238 O 0.5208 0.77603 0.86255 0.0
O239 O 0.54504 0.79865 0.90055 0.0
H240 H 0.52051 0.8549 0.8705 0.0
H241 H 0.53015 0.80555 0.834 0.0
H242 H 0.51349 0.8695 0.84022 0.0
H243 H 0.52311 0.82105 0.80433 0.0
H244 H 0.49981 0.79967 0.95932 0.0
H245 H 0.47584 0.81336 0.89357 0.0
H246 H 0.51326 0.78935 0.93028 0.0
H247 H 0.46299 0.82324 0.92309 0.0
H248 H 0.45882 0.82875 0.85526 0.0
H249 H 0.45473 0.77634 0.81404 0.0
H250 H 0.54873 0.85585 0.96307 0.0
H251 H 0.5065 0.87178 0.92397 0.0
H252 H 0.49362 0.74893 0.86654 0.0
H253 H 0.52713 0.77014 0.82584 0.0
H254 H 0.47771 0.72208 0.83998 0.0
H255 H 0.51056 0.74303 0.79998 0.0
H256 H 0.57327 0.78476 0.89259 0.0
H257 H 0.54254 0.79675 0.93837 0.0
H258 H 0.59307 0.7715 0.9164 0.0
H259 H 0.56277 0.78325 0.96133 0.0
H260 H 0.59485 0.82086 0.84201 0.0
H261 H 0.57554 0.75914 0.83738 0.0
H262 H 0.48868 0.7303 0.92421 0.0
H263 H 0.54132 0.72353 0.91378 0.0
Li264 Li 0.5519 0.26783 0.1722 0.0
Li265 Li 0.5637 0.2482 0.19394 0.0
Li266 Li 0.54679 0.23317 0.16241 0.0
Li267 Li 0.53222 0.24696 0.18927 0.0
C268 C 0.58057 0.2585 0.15572 0.0
N269 N 0.60329 0.27205 0.13079 0.0
C270 C 0.59868 0.26581 0.1631 0.0
C271 C 0.57403 0.2579 0.13565 0.0
C272 C 0.60994 0.27266 0.15026 0.0
C273 C 0.58573 0.26485 0.12328 0.0
C274 C 0.56268 0.28538 0.21228 0.0
C275 C 0.56935 0.31067 0.24052 0.0
N276 N 0.58556 0.31707 0.23547 0.0
C277 C 0.5794 0.29215 0.20739 0.0
C278 C 0.5576 0.29467 0.22897 0.0
C279 C 0.59078 0.30822 0.21927 0.0
C280 C 0.53831 0.29685 0.15752 0.0
N281 N 0.55407 0.29131 0.16242 0.0
C282 C 0.56997 0.31837 0.1508 0.0
C283 C 0.56981 0.30186 0.15966 0.0
C284 C 0.55381 0.32413 0.14506 0.0
C285 C 0.53786 0.31337 0.14884 0.0
H286 H 0.52605 0.28825 0.16014 0.0
H287 H 0.58221 0.29739 0.16401 0.0
C288 C 0.5944 0.23512 0.20115 0.0
N289 N 0.58452 0.24618 0.21044 0.0
C290 C 0.6114 0.2343 0.21027 0.0
C291 C 0.60746 0.25574 0.23874 0.0
C292 C 0.59036 0.25593 0.22913 0.0
C293 C 0.61828 0.24521 0.229 0.0
H294 H 0.58932 0.22763 0.18623 0.0
H295 H 0.5821 0.26443 0.23622 0.0
C296 C 0.51663 0.24397 0.14425 0.0
N297 N 0.49131 0.23135 0.11041 0.0
C298 C 0.50068 0.23134 0.14495 0.0
C299 C 0.51962 0.25038 0.12644 0.0
C300 C 0.48806 0.22507 0.12765 0.0
C301 C 0.50668 0.24377 0.10947 0.0
C302 C 0.55158 0.2134 0.19996 0.0
C303 C 0.55793 0.19767 0.19157 0.0
C304 C 0.5536 0.21798 0.22056 0.0
C305 C 0.56633 0.18676 0.204 0.0
C306 C 0.56208 0.20672 0.23249 0.0
N307 N 0.56821 0.19148 0.22403 0.0
C308 C 0.56261 0.21065 0.1383 0.0
C309 C 0.53102 0.20126 0.13155 0.0
C310 C 0.56423 0.19604 0.12381 0.0
N311 N 0.54622 0.21319 0.14168 0.0
C312 C 0.53202 0.18617 0.11706 0.0
C313 C 0.54883 0.1834 0.11315 0.0
H314 H 0.57452 0.2197 0.14718 0.0
H315 H 0.51819 0.20302 0.1351 0.0
C316 C 0.50016 0.25679 0.1925 0.0
N317 N 0.51162 0.24628 0.20035 0.0
C318 C 0.4851 0.25875 0.2008 0.0
C319 C 0.49409 0.23919 0.22527 0.0
C320 C 0.50889 0.23738 0.21629 0.0
C321 C 0.48209 0.25007 0.2175 0.0
H322 H 0.50298 0.26401 0.18006 0.0
H323 H 0.51835 0.22926 0.22226 0.0
O324 O 0.56938 0.25169 0.16808 0.0
O325 O 0.55144 0.26939 0.20125 0.0
O326 O 0.52908 0.25041 0.16103 0.0
O327 O 0.54363 0.22442 0.18805 0.0
H328 H 0.60397 0.26632 0.1786 0.0
H329 H 0.56011 0.25202 0.12969 0.0
H330 H 0.62397 0.27846 0.15578 0.0
H331 H 0.58086 0.2645 0.10771 0.0
H332 H 0.56561 0.31797 0.25353 0.0
H333 H 0.58368 0.28486 0.1948 0.0
H334 H 0.54473 0.28946 0.23302 0.0
H335 H 0.60379 0.31358 0.21569 0.0
H336 H 0.58254 0.3262 0.14801 0.0
H337 H 0.52516 0.31758 0.14502 0.0
H338 H 0.61948 0.22626 0.20222 0.0
H339 H 0.61243 0.26428 0.25326 0.0
H340 H 0.49818 0.22624 0.15864 0.0
H341 H 0.53173 0.26047 0.12577 0.0
H342 H 0.4757 0.21519 0.12792 0.0
H343 H 0.50883 0.24857 0.09556 0.0
H344 H 0.55649 0.194 0.17563 0.0
H345 H 0.54914 0.23041 0.22727 0.0
H346 H 0.57138 0.17457 0.19773 0.0
H347 H 0.56388 0.21019 0.24847 0.0
H348 H 0.57746 0.19451 0.12125 0.0
H349 H 0.51981 0.17642 0.10956 0.0
H350 H 0.47625 0.26752 0.19465 0.0
H351 H 0.49208 0.23232 0.23817 0.0
Li352 Li 0.06047 0.80727 0.12865 0.0
Li353 Li 0.0798 0.79107 0.15507 0.0
Li354 Li 0.05802 0.7713 0.1273 0.0
Li355 Li 0.04543 0.78835 0.15301 0.0
C356 C 0.08469 0.78321 0.1093 0.0
N357 N 0.09391 0.76507 0.07569 0.0
C358 C 0.09788 0.77216 0.111 0.0
C359 C 0.0763 0.78522 0.09059 0.0
C360 C 0.10232 0.76305 0.09381 0.0
C361 C 0.08112 0.7759 0.07375 0.0
C362 C 0.06294 0.82243 0.17579 0.0
C363 C 0.06442 0.82654 0.21121 0.0
N364 N 0.0571 0.84248 0.21029 0.0
C365 C 0.05545 0.83881 0.17514 0.0
C366 C 0.06748 0.81618 0.19389 0.0
C367 C 0.0526 0.84877 0.19278 0.0
C368 C 0.04308 0.83394 0.10868 0.0
N369 N 0.05944 0.83046 0.11562 0.0
C370 C 0.07354 0.86019 0.10606 0.0
C371 C 0.07455 0.84326 0.11443 0.0
C372 C 0.05679 0.8642 0.09874 0.0
C373 C 0.04145 0.85062 0.10017 0.0
H374 H 0.03117 0.82385 0.11 0.0
H375 H 0.08747 0.84044 0.12014 0.0
C376 C 0.1093 0.77461 0.16902 0.0
N377 N 0.10326 0.79146 0.17103 0.0
C378 C 0.1259 0.77321 0.17943 0.0
C379 C 0.13021 0.80666 0.19382 0.0
C380 C 0.11341 0.80739 0.18316 0.0
C381 C 0.13679 0.78936 0.19212 0.0
H382 H 0.10113 0.76209 0.15931 0.0
H383 H 0.10855 0.82074 0.18453 0.0
C384 C 0.02441 0.77741 0.1099 0.0
N385 N 0.99569 0.75881 0.08118 0.0
C386 C 0.01045 0.76445 0.11487 0.0
C387 C 0.02363 0.78118 0.09041 0.0
C388 C 0.9961 0.7551 0.10011 0.0
C389 C 0.00902 0.77158 0.07609 0.0
C390 C 0.0561 0.75096 0.16044 0.0
C391 C 0.04052 0.73839 0.1503 0.0
C392 C 0.06713 0.74485 0.1752 0.0
C393 C 0.03632 0.71976 0.15497 0.0
C394 C 0.06247 0.72611 0.17945 0.0
N395 N 0.0473 0.71405 0.16932 0.0
C396 C 0.06796 0.73517 0.11873 0.0
C397 C 0.04359 0.73757 0.09494 0.0
C398 C 0.06717 0.71601 0.11035 0.0
N399 N 0.0561 0.74556 0.11128 0.0
C400 C 0.04248 0.71847 0.08588 0.0
C401 C 0.05422 0.70717 0.09369 0.0
H402 H 0.07784 0.74161 0.13169 0.0
H403 H 0.03428 0.74582 0.08896 0.0
C404 C 0.01578 0.80203 0.16701 0.0
N405 N 0.02529 0.7877 0.16774 0.0
C406 C 1.00056 0.80149 0.17611 0.0
C407 C 1.00478 0.77125 0.18628 0.0
C408 C 0.0201 0.77257 0.17732 0.0
C409 C 0.99462 0.78582 0.18583 0.0
H410 H 0.0199 0.81385 0.15914 0.0
H411 H 0.02764 0.76123 0.17781 0.0
O412 O 0.07975 0.79176 0.12588 0.0
O413 O 0.0657 0.81242 0.15873 0.0
O414 O 0.03855 0.78674 0.12412 0.0
O415 O 0.06067 0.76915 0.15592 0.0
H416 H 0.1045 0.77052 0.12542 0.0
H417 H 0.06614 0.79385 0.08912 0.0
H418 H 0.11243 0.75433 0.09487 0.0
H419 H 0.07469 0.77725 0.05914 0.0
H420 H 0.06784 0.8219 0.22536 0.0
H421 H 0.05184 0.84371 0.16114 0.0
H422 H 0.07323 0.80343 0.19452 0.0
H423 H 0.04679 0.86148 0.19254 0.0
H424 H 0.08581 0.86995 0.1052 0.0
H425 H 0.0282 0.85302 0.09517 0.0
H426 H 0.12998 0.75942 0.17772 0.0
H427 H 0.13802 0.81967 0.20308 0.0
H428 H 0.01063 0.76173 0.12998 0.0
H429 H 0.0342 0.79138 0.08639 0.0
H430 H 0.98524 0.74495 0.10371 0.0
H431 H 0.00828 0.77427 0.06092 0.0
H432 H 0.03188 0.7429 0.13881 0.0
H433 H 0.07911 0.75451 0.18336 0.0
H434 H 0.02436 0.70983 0.14715 0.0
H435 H 0.07091 0.72117 0.19083 0.0
H436 H 0.07639 0.70812 0.11735 0.0
H437 H 0.03245 0.71269 0.07284 0.0
H438 H 0.9936 0.81335 0.17552 0.0
H439 H 1.00081 0.75862 0.1931 0.0
Li440 Li 0.51419 0.77656 0.43676 0.0
Li441 Li 0.49256 0.75614 0.40827 0.0
Li442 Li 0.51159 0.74043 0.43552 0.0
Li443 Li 0.52667 0.75917 0.41087 0.0
C444 C 0.48576 0.76535 0.45242 0.0
N445 N 0.47327 0.78525 0.4826 0.0
C446 C 0.47311 0.77659 0.44797 0.0
C447 C 0.49206 0.76413 0.47213 0.0
C448 C 0.46697 0.78658 0.46347 0.0
C449 C 0.48558 0.77432 0.4872 0.0
C450 C 0.51741 0.79065 0.39569 0.0
C451 C 0.51895 0.79665 0.3623 0.0
N452 N 0.52945 0.81433 0.36957 0.0
C453 C 0.5282 0.80887 0.40286 0.0
C454 C 0.51272 0.78447 0.37528 0.0
C455 C 0.53416 0.82063 0.3894 0.0
C456 C 0.52606 0.8094 0.47055 0.0
N457 N 0.51588 0.80233 0.4524 0.0
C458 C 0.50655 0.83271 0.45129 0.0
C459 C 0.50599 0.81358 0.44298 0.0
C460 C 0.51727 0.84064 0.46977 0.0
C461 C 0.52698 0.82852 0.47947 0.0
H462 H 0.53356 0.80036 0.4782 0.0
H463 H 0.49784 0.80778 0.42865 0.0
C464 C 0.45499 0.74054 0.38927 0.0
N465 N 0.46913 0.75573 0.39198 0.0
C466 C 0.43818 0.7417 0.37889 0.0
C467 C 0.45069 0.77401 0.3742 0.0
C468 C 0.46713 0.7723 0.38475 0.0
C469 C 0.43578 0.75863 0.37109 0.0
H470 H 0.45663 0.72757 0.39538 0.0
H471 H 0.47824 0.78448 0.38751 0.0
C472 C 0.54577 0.77051 0.45624 0.0
N473 N 0.57052 0.78925 0.48898 0.0
C474 C 0.55932 0.78575 0.45432 0.0
C475 C 0.54477 0.7648 0.47479 0.0
C476 C 0.57171 0.79505 0.47106 0.0
C477 C 0.55743 0.77445 0.49117 0.0
C478 C 0.50735 0.72133 0.39024 0.0
C479 C 0.51363 0.70475 0.39414 0.0
C480 C 0.50153 0.7236 0.37072 0.0
C481 C 0.51423 0.69075 0.3783 0.0
C482 C 0.50236 0.70929 0.35528 0.0
N483 N 0.50865 0.6933 0.35936 0.0
C484 C 0.49758 0.7043 0.44992 0.0
C485 C 0.52903 0.71365 0.45515 0.0
C486 C 0.49877 0.68725 0.45803 0.0
N487 N 0.5126 0.71716 0.44856 0.0
C488 C 0.53082 0.69693 0.46351 0.0
C489 C 0.5156 0.68318 0.46497 0.0
H490 H 0.4846 0.70707 0.44437 0.0
H491 H 0.54087 0.72379 0.45375 0.0
C492 C 0.55836 0.77776 0.3972 0.0
N493 N 0.54727 0.76034 0.39636 0.0
C494 C 0.57365 0.7793 0.38819 0.0
C495 C 0.56636 0.74486 0.37776 0.0
C496 C 0.55117 0.74401 0.38694 0.0
C497 C 0.57796 0.7627 0.37828 0.0
H498 H 0.55565 0.79056 0.40528 0.0
H499 H 0.54271 0.73016 0.38674 0.0
O500 O 0.49223 0.75586 0.43754 0.0
O501 O 0.51142 0.77895 0.40861 0.0
O502 O 0.53368 0.76104 0.44001 0.0
O503 O 0.50678 0.7352 0.40552 0.0
H504 H 0.46822 0.77772 0.43273 0.0
H505 H 0.5019 0.75547 0.47572 0.0
H506 H 0.45721 0.79542 0.46029 0.0
H507 H 0.49034 0.77357 0.50256 0.0
H508 H 0.51542 0.79206 0.34645 0.0
H509 H 0.53222 0.81374 0.41862 0.0
H510 H 0.50432 0.77044 0.36954 0.0
H511 H 0.5426 0.83473 0.39472 0.0
H512 H 0.49895 0.84131 0.44295 0.0
H513 H 0.53518 0.83366 0.4939 0.0
H514 H 0.42723 0.72937 0.37686 0.0
H515 H 0.4496 0.78752 0.36892 0.0
H516 H 0.56022 0.7904 0.44011 0.0
H517 H 0.53431 0.7531 0.47655 0.0
H518 H 0.58226 0.80689 0.4698 0.0
H519 H 0.55681 0.7702 0.50562 0.0
H520 H 0.51812 0.7028 0.40922 0.0
H521 H 0.49641 0.73626 0.36754 0.0
H522 H 0.51915 0.67788 0.38105 0.0
H523 H 0.49798 0.71086 0.34007 0.0
H524 H 0.48655 0.67718 0.45839 0.0
H525 H 0.54414 0.69495 0.46886 0.0
H526 H 0.58227 0.79336 0.3895 0.0
H527 H 0.56892 0.73162 0.37025 0.0
Li528 Li 0.56002 0.30757 0.62728 0.0
Li529 Li 0.57901 0.29167 0.65293 0.0
Li530 Li 0.55725 0.27133 0.62499 0.0
Li531 Li 0.54508 0.28809 0.6522 0.0
C532 C 0.58538 0.28282 0.60877 0.0
N533 N 0.59768 0.26314 0.57826 0.0
C534 C 0.60117 0.27598 0.61259 0.0
C535 C 0.57585 0.27974 0.58948 0.0
C536 C 0.60717 0.26603 0.59695 0.0
C537 C 0.58229 0.26974 0.57424 0.0
C538 C 0.57044 0.32202 0.67643 0.0
C539 C 0.57404 0.32248 0.71177 0.0
N540 N 0.5833 0.34105 0.71453 0.0
C541 C 0.58002 0.34107 0.67957 0.0
C542 C 0.56744 0.3126 0.6926 0.0
C543 C 0.5864 0.35046 0.69897 0.0
C544 C 0.5568 0.34723 0.6261 0.0
N545 N 0.55905 0.33112 0.61459 0.0
C546 C 0.55901 0.34825 0.58652 0.0
C547 C 0.5602 0.33145 0.59507 0.0
C548 C 0.55676 0.36515 0.59807 0.0
C549 C 0.55572 0.36436 0.6182 0.0
H550 H 0.55566 0.34677 0.64149 0.0
H551 H 0.56199 0.31865 0.58602 0.0
C552 C 0.60718 0.27423 0.669 0.0
N553 N 0.6025 0.29178 0.66887 0.0
C554 C 0.62387 0.27257 0.679 0.0
C555 C 0.63094 0.30711 0.68883 0.0
C556 C 0.61407 0.30811 0.67858 0.0
C557 C 0.63619 0.28914 0.68913 0.0
H558 H 0.598 0.26141 0.66099 0.0
H559 H 0.61034 0.322 0.67825 0.0
C560 C 0.52393 0.27775 0.6085 0.0
N561 N 0.49564 0.25944 0.57914 0.0
C562 C 0.51046 0.26366 0.61271 0.0
C563 C 0.523 0.28261 0.58941 0.0
C564 C 0.49625 0.25456 0.59765 0.0
C565 C 0.5086 0.27315 0.57476 0.0
C566 C 0.55718 0.25416 0.66367 0.0
C567 C 0.54529 0.237 0.65493 0.0
C568 C 0.56577 0.25608 0.68326 0.0
C569 C 0.54213 0.22199 0.66602 0.0
C570 C 0.56227 0.24073 0.69385 0.0
N571 N 0.55062 0.22415 0.68509 0.0
C572 C 0.56859 0.23638 0.6151 0.0
C573 C 0.54106 0.23607 0.59504 0.0
C574 C 0.56824 0.21727 0.60686 0.0
N575 N 0.55512 0.24549 0.60924 0.0
C576 C 0.53998 0.21676 0.58669 0.0
C577 C 0.55362 0.20686 0.59264 0.0
H578 H 0.57956 0.24388 0.62657 0.0
H579 H 0.5304 0.24324 0.59041 0.0
C580 C 0.52014 0.30302 0.67453 0.0
N581 N 0.52512 0.28649 0.66729 0.0
C582 C 0.50513 0.30227 0.68405 0.0
C583 C 0.50059 0.26752 0.67869 0.0
C584 C 0.51563 0.26894 0.66928 0.0
C585 C 0.49495 0.28431 0.68615 0.0
H586 H 0.52764 0.31686 0.67261 0.0
H587 H 0.51944 0.25591 0.6632 0.0
O588 O 0.57908 0.29218 0.62391 0.0
O589 O 0.56426 0.31253 0.65759 0.0
O590 O 0.53783 0.28698 0.62304 0.0
O591 O 0.56065 0.26892 0.65302 0.0
H592 H 0.60866 0.27824 0.62748 0.0
H593 H 0.56348 0.28475 0.58638 0.0
H594 H 0.61934 0.26058 0.59968 0.0
H595 H 0.57501 0.26715 0.55923 0.0
H596 H 0.5718 0.31539 0.72445 0.0
H597 H 0.58262 0.34846 0.66716 0.0
H598 H 0.56009 0.29783 0.69036 0.0
H599 H 0.59385 0.3652 0.70165 0.0
H600 H 0.56009 0.34803 0.57101 0.0
H601 H 0.5537 0.37675 0.62776 0.0
H602 H 0.6272 0.25841 0.67836 0.0
H603 H 0.63972 0.32034 0.69654 0.0
H604 H 0.51103 0.25968 0.62737 0.0
H605 H 0.53328 0.29357 0.58597 0.0
H606 H 0.48575 0.24357 0.60066 0.0
H607 H 0.50772 0.27673 0.5599 0.0
H608 H 0.53838 0.23539 0.63984 0.0
H609 H 0.57508 0.26926 0.69018 0.0
H610 H 0.5329 0.20865 0.65948 0.0
H611 H 0.56883 0.24199 0.70904 0.0
H612 H 0.5794 0.2108 0.61178 0.0
H613 H 0.52823 0.20958 0.57607 0.0
H614 H 0.50131 0.31567 0.68922 0.0
H615 H 0.49348 0.25331 0.68009 0.0
Li616 Li 0.01391 0.27587 0.93825 0.0
Li617 Li 0.99299 0.25541 0.91019 0.0
Li618 Li 0.01128 0.23965 0.93694 0.0
Li619 Li 0.02703 0.25834 0.91228 0.0
C620 C 0.98193 0.26078 0.95209 0.0
N621 N 0.96046 0.27132 0.97852 0.0
C622 C 0.96963 0.27224 0.94695 0.0
C623 C 0.9833 0.25458 0.97057 0.0
C624 C 0.95889 0.27744 0.96055 0.0
C625 C 0.97233 0.2601 0.98376 0.0
C626 C 0.00825 0.29249 0.90051 0.0
C627 C 0.01139 0.31155 0.87426 0.0
N628 N 0.99981 0.32204 0.88107 0.0
C629 C 0.99637 0.30337 0.90726 0.0
C630 C 0.01583 0.29653 0.8839 0.0
C631 C 0.99228 0.31829 0.89723 0.0
C632 C 0.02949 0.31597 0.94827 0.0
N633 N 0.01759 0.30199 0.95394 0.0
C634 C 0.00907 0.3262 0.97618 0.0
C635 C 1.00783 0.30679 0.9681 0.0
C636 C 0.02085 0.34109 0.97015 0.0
C637 C 0.03148 0.33549 0.9563 0.0
H638 H 0.0372 0.31202 0.93704 0.0
H639 H 0.99866 0.29573 0.97287 0.0
C640 C 0.9543 0.2461 0.89991 0.0
N641 N 0.96943 0.25423 0.89351 0.0
C642 C 0.9373 0.24709 0.89008 0.0
C643 C 0.95145 0.26432 0.86673 0.0
C644 C 0.96819 0.26301 0.87702 0.0
C645 C 0.93558 0.2565 0.87328 0.0
H646 H 0.95541 0.23928 0.91308 0.0
H647 H 0.9802 0.26936 0.87194 0.0
C648 C 0.04367 0.27101 0.95869 0.0
N649 N 0.06369 0.29312 0.99299 0.0
C650 C 0.05855 0.2851 0.95769 0.0
C651 C 0.03894 0.26815 0.97707 0.0
C652 C 0.0685 0.29615 0.97523 0.0
C653 C 0.04924 0.27947 0.99426 0.0
C654 C 1.0059 0.22367 0.8887 0.0
C655 C 1.0071 0.20424 0.88708 0.0
C656 C 1.00371 0.23239 0.8717 0.0
C657 C 1.0061 0.19374 0.86832 0.0
C658 C 1.00274 0.22138 0.8532 0.0
N659 N 1.00395 0.20245 0.85191 0.0
C660 C 0.99736 0.20277 0.94976 0.0
C661 C 0.02853 0.21424 0.95881 0.0
C662 C 0.99864 0.1858 0.95796 0.0
N663 N 0.01221 0.21662 0.95022 0.0
C664 C 0.03039 0.19756 0.96722 0.0
C665 C 0.01537 0.18281 0.96678 0.0
H666 H 0.98451 0.2047 0.94266 0.0
H667 H 0.04024 0.22524 0.95894 0.0
C668 C 0.05803 0.27726 0.89864 0.0
N669 N 0.04734 0.25968 0.89807 0.0
C670 C 0.0734 0.27893 0.88975 0.0
C671 C 0.06649 0.24441 0.87953 0.0
C672 C 0.05137 0.24339 0.88882 0.0
C673 C 0.07792 0.26236 0.87996 0.0
H674 H 0.05478 0.29004 0.9063 0.0
H675 H 0.04298 0.22948 0.88878 0.0
O676 O 0.99238 0.25531 0.93896 0.0
O677 O 0.01239 0.27778 0.90997 0.0
O678 O 0.03357 0.26028 0.94173 0.0
O679 O 1.00724 0.23423 0.90693 0.0
H680 H 0.96847 0.27717 0.93269 0.0
H681 H 0.99272 0.2456 0.97465 0.0
H682 H 0.94934 0.28636 0.95682 0.0
H683 H 0.97323 0.25545 0.99816 0.0
H684 H 0.01713 0.31485 0.86135 0.0
H685 H 0.99038 0.30033 0.92009 0.0
H686 H 0.02494 0.28807 0.87844 0.0
H687 H 0.98312 0.32689 0.90228 0.0
H688 H 1.00039 0.32939 0.98662 0.0
H689 H 0.04122 0.34604 0.95146 0.0
H690 H 0.92565 0.241 0.89601 0.0
H691 H 0.95102 0.2714 0.8537 0.0
H692 H 0.0623 0.28754 0.94354 0.0
H693 H 0.02738 0.25735 0.97802 0.0
H694 H 0.08004 0.30714 0.97471 0.0
H695 H 0.04575 0.27743 0.00861 0.0
H696 H 0.0089 0.1974 0.90021 0.0
H697 H 1.00296 0.2475 0.87282 0.0
H698 H 1.00706 0.17867 0.8668 0.0
H699 H 1.00108 0.22791 0.83988 0.0
H700 H 0.98663 0.17491 0.95689 0.0
H701 H 0.04357 0.19635 0.97407 0.0
H702 H 0.08181 0.29309 0.89096 0.0
H703 H 0.06907 0.23119 0.87202 0.0
Li704 Li 0.42288 0.04309 0.291 0.0
Li705 Li 0.39486 0.02021 0.26797 0.0
Li706 Li 0.42014 0.04073 0.2502 0.0
Li707 Li 0.39746 0.0599 0.26942 0.0
C708 C 0.43238 1.00813 0.27064 0.0
N709 N 0.45536 0.98285 0.27438 0.0
C710 C 0.42732 0.99115 0.27838 0.0
C711 C 0.44908 0.01234 0.26481 0.0
C712 C 0.43915 0.97853 0.28014 0.0
C713 C 0.46053 0.99935 0.26682 0.0
C714 C 0.38425 0.03907 0.3035 0.0
C715 C 0.35497 0.03968 0.31149 0.0
N716 N 0.35981 0.03313 0.32877 0.0
C717 C 0.38898 0.03242 0.32133 0.0
C718 C 0.36717 0.04281 0.29851 0.0
C719 C 0.37641 0.02947 0.33391 0.0
C720 C 0.4367 0.055 0.33578 0.0
N721 N 0.43857 0.04338 0.31911 0.0
C722 C 0.45926 0.02925 0.34025 0.0
C723 C 0.44986 0.03072 0.32137 0.0
C724 C 0.45754 0.04089 0.35784 0.0
C725 C 0.44593 0.05401 0.35499 0.0
H726 H 0.42773 0.06498 0.33439 0.0
H727 H 0.45151 0.02132 0.30854 0.0
C728 C 0.37576 0.97838 0.25101 0.0
N729 N 0.37969 0.99213 0.26763 0.0
C730 C 0.36717 0.95894 0.2514 0.0
C731 C 0.3665 0.96747 0.28589 0.0
C732 C 0.37508 0.98668 0.28487 0.0
C733 C 0.36232 0.95285 0.26906 0.0
H734 H 0.37954 0.9823 0.23731 0.0
H735 H 0.37846 0.99709 0.29826 0.0
C736 C 0.43965 0.07824 0.27125 0.0
N737 N 0.46867 0.10557 0.26732 0.0
C738 C 0.43707 0.09409 0.26195 0.0
C739 C 0.45693 0.07622 0.27857 0.0
C740 C 0.45194 0.10777 0.26011 0.0
C741 C 0.47145 0.09022 0.27643 0.0
C742 C 0.37795 0.03355 0.2311 0.0
C743 C 0.37991 0.03478 0.21145 0.0
C744 C 0.36093 0.02829 0.23588 0.0
C745 C 0.3647 0.03077 0.19681 0.0
C746 C 0.34604 0.02443 0.22082 0.0
N747 N 0.34822 0.02574 0.20176 0.0
C748 C 0.42792 0.0238 0.20939 0.0
C749 C 0.4487 0.05219 0.22324 0.0
C750 C 0.43649 0.02185 0.19235 0.0
N751 N 0.43389 0.03885 0.22477 0.0
C752 C 0.45768 0.05075 0.20646 0.0
C753 C 0.45183 0.03538 0.19026 0.0
H754 H 0.41632 0.01299 0.21019 0.0
H755 H 0.45377 0.06424 0.23506 0.0
C756 C 0.39203 0.1022 0.28162 0.0
N757 N 0.38404 0.08478 0.27008 0.0
C758 C 0.38377 0.11874 0.28243 0.0
C759 C 0.35879 0.10009 0.2595 0.0
C760 C 0.36749 0.08386 0.25914 0.0
C761 C 0.36666 0.11836 0.27129 0.0
H762 H 0.40506 0.1035 0.29046 0.0
H763 H 0.36077 0.07042 0.24983 0.0
O764 O 0.42107 0.02067 0.26879 0.0
O765 O 0.39634 0.04212 0.29105 0.0
O766 O 0.42531 0.06465 0.27303 0.0
O767 O 0.39266 0.03734 0.24558 0.0
H768 H 0.41447 0.98781 0.28306 0.0
H769 H 0.45316 0.02553 0.25888 0.0
H770 H 0.43544 0.9653 0.28612 0.0
H771 H 0.47352 1.00239 0.2624 0.0
H772 H 0.34168 0.04249 0.30784 0.0
H773 H 0.40212 0.02931 0.32528 0.0
H774 H 0.3634 0.04809 0.28478 0.0
H775 H 0.37983 0.02423 0.34773 0.0
H776 H 0.46756 0.01856 0.3409 0.0
H777 H 0.44393 0.06366 0.3675 0.0
H778 H 0.36433 0.94882 0.23774 0.0
H779 H 0.36365 0.96413 0.30013 0.0
H780 H 0.42372 0.09574 0.25619 0.0
H781 H 0.45906 0.06394 0.28574 0.0
H782 H 0.45017 0.12013 0.25294 0.0
H783 H 0.48493 0.08888 0.28198 0.0
H784 H 0.39304 0.03882 0.20757 0.0
H785 H 0.35926 0.02718 0.25105 0.0
H786 H 0.36599 0.03168 0.18152 0.0
H787 H 0.33276 0.02037 0.22427 0.0
H788 H 0.43108 0.00945 0.181 0.0
H789 H 0.4691 0.06199 0.20626 0.0
H790 H 0.39098 0.13175 0.2921 0.0
H791 H 0.34589 0.09809 0.25022 0.0
Li792 Li 0.26766 0.1699 0.53112 0.0
Li793 Li 0.27935 0.14526 0.51285 0.0
Li794 Li 0.26572 0.16885 0.4943 0.0
Li795 Li 0.24565 0.14224 0.51066 0.0
C796 C 0.30121 0.1878 0.52423 0.0
N797 N 0.32954 0.21691 0.54285 0.0
C798 C 0.31495 0.18366 0.53749 0.0
C799 C 0.302 0.20665 0.52017 0.0
C800 C 0.32912 0.19861 0.54684 0.0
C801 C 0.31641 0.22119 0.5298 0.0
C802 C 0.27082 0.13481 0.5493 0.0
C803 C 0.26945 0.10936 0.56936 0.0
N804 N 0.28448 0.11954 0.58163 0.0
C805 C 0.28623 0.14504 0.56208 0.0
C806 C 0.26233 0.11685 0.55293 0.0
C807 C 0.29294 0.13707 0.57836 0.0
C808 C 0.25949 0.17642 0.56957 0.0
N809 N 0.26952 0.1854 0.55737 0.0
C810 C 0.2805 0.21275 0.58314 0.0
C811 C 0.2798 0.20339 0.56377 0.0
C812 C 0.27055 0.20359 0.59622 0.0
C813 C 0.2599 0.18514 0.58902 0.0
H814 H 0.25119 0.16226 0.56424 0.0
H815 H 0.28744 0.2106 0.55394 0.0
C816 C 0.31314 0.13829 0.50396 0.0
N817 N 0.29938 0.13137 0.51321 0.0
C818 C 0.32824 0.1298 0.50444 0.0
C819 C 0.31499 0.1072 0.52407 0.0
C820 C 0.30002 0.11591 0.52294 0.0
C821 C 0.32946 0.11414 0.5148 0.0
H822 H 0.31249 0.15061 0.49634 0.0
H823 H 0.28896 0.11028 0.52994 0.0
C824 C 0.24102 0.18602 0.52036 0.0
N825 N 0.23144 0.21708 0.54115 0.0
C826 C 0.22837 0.18293 0.53283 0.0
C827 C 0.24876 0.20482 0.51834 0.0
C828 C 0.22371 0.19885 0.54326 0.0
C829 C 0.24374 0.22036 0.529 0.0
C830 C 0.26626 0.12512 0.4783 0.0
C831 C 0.27762 0.12945 0.46472 0.0
C832 C 0.26214 0.1063 0.48249 0.0
C833 C 0.28474 0.11474 0.45546 0.0
C834 C 0.26953 0.09199 0.47293 0.0
N835 N 0.28059 0.09647 0.45973 0.0
C836 C 0.28352 0.18992 0.46712 0.0
C837 C 0.25204 0.18473 0.45949 0.0
C838 C 0.28525 0.19955 0.45069 0.0
N839 N 0.26711 0.18276 0.47133 0.0
C840 C 0.25315 0.1942 0.44282 0.0
C841 C 0.26995 0.20184 0.43813 0.0
H842 H 0.29537 0.18801 0.47647 0.0
H843 H 0.23909 0.1789 0.46295 0.0
C844 C 0.21776 0.1246 0.52924 0.0
N845 N 0.22187 0.12654 0.51093 0.0
C846 C 0.20098 0.11444 0.53145 0.0
C847 C 0.19249 0.10857 0.4959 0.0
C848 C 0.20957 0.11877 0.49435 0.0
C849 C 0.18794 0.10619 0.51468 0.0
H850 H 0.22751 0.13121 0.54228 0.0
H851 H 0.21293 0.12059 0.4799 0.0
O852 O 0.28731 0.17337 0.51479 0.0
O853 O 0.26394 0.14233 0.53336 0.0
O854 O 0.24624 0.17073 0.51062 0.0
O855 O 0.25973 0.13942 0.48805 0.0
H856 H 0.31477 0.16906 0.54041 0.0
H857 H 0.29154 0.21004 0.50982 0.0
H858 H 0.33982 0.19564 0.5572 0.0
H859 H 0.31715 0.23588 0.52691 0.0
H860 H 0.26304 0.09545 0.57234 0.0
H861 H 0.29282 0.15905 0.55959 0.0
H862 H 0.25043 0.10873 0.54307 0.0
H863 H 0.30483 0.14484 0.58842 0.0
H864 H 0.28867 0.22711 0.5877 0.0
H865 H 0.25215 0.17722 0.59839 0.0
H866 H 0.33906 0.13579 0.49717 0.0
H867 H 0.31515 0.09501 0.532 0.0
H868 H 0.22239 0.1684 0.53461 0.0
H869 H 0.25861 0.20735 0.50874 0.0
H870 H 0.21401 0.19672 0.55307 0.0
H871 H 0.24966 0.23502 0.52766 0.0
H872 H 0.28104 0.14406 0.46154 0.0
H873 H 0.25349 0.10286 0.49317 0.0
H874 H 0.29361 0.11785 0.44495 0.0
H875 H 0.26655 0.07734 0.47606 0.0
H876 H 0.29851 0.20482 0.44768 0.0
H877 H 0.24093 0.19569 0.43384 0.0
H878 H 0.19816 0.11339 0.54627 0.0
H879 H 0.18303 0.10241 0.48249 0.0
Li880 Li 0.15218 0.06581 0.8065 0.0
Li881 Li 0.12843 0.04527 0.82248 0.0
Li882 Li 0.14952 0.03013 0.80268 0.0
Li883 Li 0.12553 0.04337 0.78512 0.0
C884 C 0.17079 0.05505 0.84094 0.0
N885 N 0.2021 0.06743 0.86791 0.0
C886 C 0.17046 0.06423 0.85996 0.0
C887 C 0.18701 0.05207 0.83564 0.0
C888 C 0.18645 0.0704 0.87339 0.0
C889 C 0.2027 0.05847 0.84948 0.0
C890 C 0.11337 0.0765 0.80155 0.0
C891 C 0.08231 0.0784 0.79475 0.0
N892 N 0.08718 0.09703 0.79181 0.0
C893 C 0.11809 0.09563 0.79844 0.0
C894 C 0.09537 0.06776 0.79965 0.0
C895 C 0.10464 0.10578 0.79353 0.0
C896 C 0.16724 0.09768 0.78997 0.0
N897 N 0.16842 0.09027 0.80726 0.0
C898 C 0.19322 0.11596 0.82195 0.0
C899 C 0.18102 0.09917 0.8232 0.0
C900 C 0.19243 0.12383 0.80418 0.0
C901 C 0.17907 0.11449 0.78811 0.0
H902 H 0.15724 0.09028 0.77743 0.0
H903 H 0.18179 0.09324 0.83686 0.0
C904 C 0.12525 0.03371 0.85991 0.0
N905 N 0.1173 0.04288 0.84602 0.0
C906 C 0.11801 0.03079 0.87709 0.0
C907 C 0.09439 0.04673 0.86551 0.0
C908 C 0.10216 0.04946 0.8486 0.0
C909 C 0.10227 0.03721 0.8801 0.0
H910 H 0.13722 0.02848 0.85755 0.0
H911 H 0.09601 0.05678 0.83754 0.0
C912 C 0.16409 0.04585 0.77142 0.0
N913 N 0.19085 0.04319 0.74916 0.0
C914 C 0.15992 0.03638 0.75185 0.0
C915 C 0.18185 0.05416 0.77961 0.0
C916 C 0.17363 0.0351 0.74087 0.0
C917 C 0.19519 0.05264 0.76813 0.0
C918 C 0.10881 1.0077 0.79423 0.0
C919 C 0.11054 0.99123 0.78196 0.0
C920 C 0.0922 1.00919 0.79938 0.0
C921 C 0.09548 0.97665 0.77466 0.0
C922 C 0.07745 0.99429 0.7918 0.0
N923 N 0.07938 0.97847 0.77968 0.0
C924 C 0.16919 1.0044 0.81872 0.0
C925 C 0.16283 0.99946 0.7836 0.0
C926 C 0.17814 0.98904 0.81845 0.0
N927 N 0.16198 0.00944 0.80145 0.0
C928 C 0.17152 0.98389 0.78263 0.0
C929 C 0.17937 0.97851 0.80022 0.0
H930 H 0.16796 0.01228 0.83273 0.0
H931 H 0.15645 1.00334 0.77012 0.0
C932 C 0.10313 0.05407 0.75209 0.0
N933 N 0.11057 0.03971 0.75894 0.0
C934 C 0.09484 0.05202 0.73229 0.0
C935 C 0.10236 0.02064 0.72651 0.0
C936 C 0.11011 0.02312 0.74654 0.0
C937 C 0.09469 0.0353 0.7189 0.0
H938 H 0.10414 0.06751 0.76167 0.0
H939 H 0.11674 0.01219 0.75188 0.0
O940 O 0.15526 0.0489 0.82765 0.0
O941 O 0.12636 0.06637 0.80621 0.0
O942 O 0.15078 0.0474 0.78229 0.0
O943 O 0.12344 0.022 0.80171 0.0
H944 H 0.15799 0.06664 0.86427 0.0
H945 H 0.18747 0.04472 0.82109 0.0
H946 H 0.18641 0.07757 0.88816 0.0
H947 H 0.21535 0.05625 0.84558 0.0
H948 H 0.06831 0.07181 0.79318 0.0
H949 H 0.13199 0.10255 0.79983 0.0
H950 H 0.09152 0.05285 0.80164 0.0
H951 H 0.10808 0.12062 0.79108 0.0
H952 H 0.20313 0.12276 0.83481 0.0
H953 H 0.17804 0.11982 0.77403 0.0
H954 H 0.1245 0.02316 0.88769 0.0
H955 H 0.08238 0.05217 0.8672 0.0
H956 H 0.14626 0.02999 0.74521 0.0
H957 H 0.18531 0.06189 0.79457 0.0
H958 H 0.17059 0.02771 0.72573 0.0
H959 H 0.20899 0.05903 0.77428 0.0
H960 H 0.12337 0.98978 0.77804 0.0
H961 H 0.09074 0.02161 0.80928 0.0
H962 H 0.09659 0.96387 0.76503 0.0
H963 H 0.06449 0.99525 0.79562 0.0
H964 H 0.18412 0.98556 0.83238 0.0
H965 H 0.17176 0.97595 0.76825 0.0
H966 H 0.08893 0.0637 0.72756 0.0
H967 H 0.10317 1.00766 0.717 0.0
Li968 Li 0.23477 0.86437 0.01806 0.0
Li969 Li 0.25762 0.846 0.02977 0.0
Li970 Li 0.26367 0.87059 0.00804 0.0
Li971 Li 0.24286 0.8405 0.99637 0.0
C972 C 0.26073 0.89296 0.0437 0.0
N973 N 0.26519 0.93104 0.06076 0.0
C974 C 0.2672 0.89845 0.06395 0.0
C975 C 0.25661 0.90678 0.03207 0.0
C976 C 0.26934 0.91779 0.07232 0.0
C977 C 0.25894 0.92597 0.04098 0.0
C978 C 0.21932 0.82031 0.01216 0.0
C979 C 0.2107 0.78564 1.0044 0.0
N980 N 0.19488 0.78742 0.994 0.0
C981 C 0.20298 0.82185 1.00148 0.0
C982 C 0.22324 0.80212 0.01371 0.0
C983 C 0.1908 0.80502 0.99237 0.0
C984 C 0.20554 0.87935 0.00753 0.0
N985 N 0.21674 0.87692 0.02364 0.0
C986 C 0.20548 0.89897 0.04486 0.0
C987 C 0.21657 0.88582 0.04218 0.0
C988 C 0.1947 0.90276 0.02823 0.0
C989 C 0.1943 0.89235 0.0095 0.0
H990 H 0.20607 0.87198 0.99301 0.0
H991 H 0.22578 0.88359 0.05463 0.0
C992 C 0.28833 0.8416 0.05021 0.0
N993 N 0.27038 0.83648 0.04944 0.0
C994 C 0.29987 0.83428 0.06313 0.0
C995 C 0.27418 0.81722 0.07485 0.0
C996 C 0.26305 0.82466 0.06139 0.0
C997 C 0.29271 0.82195 0.07547 0.0
H998 H 0.2936 0.85103 0.04037 0.0
H999 H 0.24868 0.82086 0.06023 0.0
C1000 C 0.241 0.87445 0.97453 0.0
N1001 N 0.24307 0.89099 0.94054 0.0
C1002 C 0.2475 0.86535 0.95874 0.0
C1003 C 0.23556 0.89198 0.97303 0.0
C1004 C 0.2484 0.87391 0.94167 0.0
C1005 C 0.23674 0.90012 0.95574 0.0
C1006 C 0.2792 0.83596 0.99578 0.0
C1007 C 0.28529 0.84366 0.97974 0.0
C1008 C 0.28457 0.81943 1.0014 0.0
C1009 C 0.29625 0.83432 0.96916 0.0
C1010 C 0.29554 0.81051 0.99045 0.0
N1011 N 0.30108 0.81806 0.97467 0.0
C1012 C 0.29655 0.8927 0.02125 0.0
C1013 C 0.28504 0.89871 0.98935 0.0
C1014 C 0.3122 0.90612 0.02195 0.0
N1015 N 0.28335 0.88933 1.0052 0.0
C1016 C 0.30061 0.9121 0.98929 0.0
C1017 C 0.31434 0.91591 1.00578 0.0
H1018 H 0.29488 0.88488 0.03356 0.0
H1019 H 0.27449 0.89584 0.97673 0.0
C1020 C 0.22221 0.82397 0.9593 0.0
N1021 N 0.23438 0.821 0.97427 0.0
C1022 C 0.21956 0.81259 0.94081 0.0
C1023 C 0.24013 0.79378 0.95448 0.0
C1024 C 0.24222 0.80543 0.97269 0.0
C1025 C 0.22956 0.79815 0.938 0.0
H1026 H 0.21574 0.83617 0.96126 0.0
H1027 H 0.251 0.80281 0.98523 0.0
O1028 O 0.25846 0.87407 0.03537 0.0
O1029 O 0.23157 0.83657 0.02081 0.0
O1030 O 0.23975 0.86628 0.99133 0.0
O1031 O 0.26848 0.84486 0.00637 0.0
H1032 H 0.27047 0.88785 0.0731 0.0
H1033 H 0.25166 0.90271 0.01636 0.0
H1034 H 0.27428 0.92227 0.08801 0.0
H1035 H 0.25576 0.93684 0.03218 0.0
H1036 H 0.21357 0.77144 1.00538 0.0
H1037 H 0.19983 0.83587 1.00007 0.0
H1038 H 0.23592 0.80077 0.02184 0.0
H1039 H 0.17812 0.80596 0.98396 0.0
H1040 H 0.20612 0.90689 0.0595 0.0
H1041 H 0.18591 0.89479 0.99644 0.0
H1042 H 0.31417 0.83811 0.06349 0.0
H1043 H 0.26845 0.80767 0.08438 0.0
H1044 H 0.25189 0.85188 0.95964 0.0
H1045 H 0.23053 0.89926 0.9851 0.0
H1046 H 0.2534 0.86701 0.92935 0.0
H1047 H 0.23262 0.9137 0.9544 0.0
H1048 H 0.28172 0.85677 0.97557 0.0
H1049 H 0.28005 0.81337 0.01388 0.0
H1050 H 0.30097 0.84005 0.95662 0.0
H1051 H 0.29963 0.79757 0.99449 0.0
H1052 H 0.32266 0.90853 0.03479 0.0
H1053 H 0.30188 0.91947 0.97657 0.0
H1054 H 0.21095 0.81605 0.92851 0.0
H1055 H 0.24801 0.78271 0.95302 0.0
Li1056 Li 0.29052 0.39913 0.05069 0.0
Li1057 Li 0.3051 0.37521 0.06953 0.0
Li1058 Li 0.32418 0.40129 0.05225 0.0
Li1059 Li 0.3023 0.37356 0.03258 0.0
C1060 C 0.31082 0.41973 0.08883 0.0
N1061 N 0.31166 0.45062 0.1176 0.0
C1062 C 0.30333 0.41672 0.10575 0.0
C1063 C 0.31905 0.43832 0.08667 0.0
C1064 C 0.30381 0.43256 0.1201 0.0
C1065 C 0.31924 0.45379 0.10134 0.0
C1066 C 0.27247 0.35425 0.03797 0.0
C1067 C 0.266 0.31969 0.02822 0.0
N1068 N 0.25265 0.32135 0.01378 0.0
C1069 C 0.25871 0.35566 0.02304 0.0
C1070 C 0.2762 0.33617 0.0406 0.0
C1071 C 0.24883 0.33883 0.01095 0.0
C1072 C 0.2609 0.41312 0.03166 0.0
N1073 N 0.27066 0.41311 0.04975 0.0
C1074 C 0.2513 0.43075 0.0655 0.0
C1075 C 0.26608 0.42172 0.06652 0.0
C1076 C 0.24087 0.43085 0.04703 0.0
C1077 C 0.24597 0.42188 0.02996 0.0
H1078 H 0.26464 0.40615 0.01848 0.0
H1079 H 0.27365 0.42134 0.08081 0.0
C1080 C 0.31946 0.36205 0.10594 0.0
N1081 N 0.30436 0.36184 0.09293 0.0
C1082 C 0.31859 0.35284 0.12281 0.0
C1083 C 0.28668 0.34333 0.11276 0.0
C1084 C 0.28815 0.3527 0.09612 0.0
C1085 C 0.30201 0.34323 0.12653 0.0
H1086 H 0.33224 0.36941 0.10326 0.0
H1087 H 0.27625 0.3528 0.08579 0.0
C1088 C 0.30704 0.41697 0.02038 0.0
N1089 N 0.31076 0.44954 1.00221 0.0
C1090 C 0.31058 0.41586 1.001 0.0
C1091 C 0.30532 0.4346 0.0305 0.0
C1092 C 0.31246 0.4325 0.99208 0.0
C1093 C 0.30725 0.45091 0.02106 0.0
C1094 C 0.33318 0.36017 0.04576 0.0
C1095 C 0.34415 0.36447 0.03179 0.0
C1096 C 0.33197 0.34254 0.05287 0.0
C1097 C 0.35371 0.35085 0.02499 0.0
C1098 C 0.34175 0.32932 0.04571 0.0
N1099 N 0.35232 0.3337 0.03203 0.0
C1100 C 0.36042 0.42292 0.06968 0.0
C1101 C 0.35283 0.42094 0.03501 0.0
C1102 C 0.37786 0.4329 0.06924 0.0
N1103 N 0.34822 0.4171 0.05268 0.0
C1104 C 0.36991 0.43116 0.03394 0.0
C1105 C 0.38298 0.43725 0.05115 0.0
H1106 H 0.35676 0.41947 0.08359 0.0
H1107 H 0.34334 0.41573 0.02153 0.0
C1108 C 0.29016 0.36469 0.9912 0.0
N1109 N 0.29839 0.3573 0.00644 0.0
C1110 C 0.28854 0.35588 0.97153 0.0
C1111 C 0.303 0.3312 0.98335 0.0
C1112 C 0.30435 0.34053 1.00285 0.0
C1113 C 0.29527 0.33901 0.96724 0.0
H1114 H 0.28518 0.3778 0.99429 0.0
H1115 H 0.31037 0.33442 0.01502 0.0
O1116 O 0.31046 0.40444 0.07466 0.0
O1117 O 0.28267 0.37054 0.04954 0.0
O1118 O 0.305 0.40078 0.02923 0.0
O1119 O 0.32381 0.37327 0.05268 0.0
H1120 H 0.29708 0.40232 0.10766 0.0
H1121 H 0.32529 0.44078 0.07387 0.0
H1122 H 0.29794 0.43051 0.13321 0.0
H1123 H 0.32547 0.4683 0.09984 0.0
H1124 H 0.26876 0.30559 0.03005 0.0
H1125 H 0.2558 0.36959 0.02071 0.0
H1126 H 0.28697 0.33492 0.05196 0.0
H1127 H 0.23816 0.33968 0.99929 0.0
H1128 H 0.24785 0.43717 0.07913 0.0
H1129 H 0.23857 0.42172 0.01535 0.0
H1130 H 0.33088 0.35308 0.13269 0.0
H1131 H 0.27353 0.33652 0.11495 0.0
H1132 H 0.31214 0.40235 0.99303 0.0
H1133 H 0.30235 0.43564 0.0454 0.0
H1134 H 0.3153 0.43187 0.97713 0.0
H1135 H 0.30591 0.46466 0.0287 0.0
H1136 H 0.34515 0.37808 0.02617 0.0
H1137 H 0.32351 0.33912 0.06373 0.0
H1138 H 0.36222 0.3539 0.01412 0.0
H1139 H 0.34092 0.31556 0.05101 0.0
H1140 H 0.38727 0.43675 0.08299 0.0
H1141 H 0.3727 0.43423 0.01959 0.0
H1142 H 0.28255 0.36263 0.95979 0.0
H1143 H 0.30799 0.31798 0.98096 0.0
Li1144 Li 0.82761 0.20429 0.07022 0.0
Li1145 Li 0.83693 0.1817 0.04857 0.0
Li1146 Li 0.8156 0.20023 0.03719 0.0
Li1147 Li 0.80662 0.17447 0.05493 0.0
C1148 C 0.85432 0.22415 0.05905 0.0
N1149 N 0.88074 0.25305 0.08186 0.0
C1150 C 0.87059 0.21997 0.06711 0.0
C1151 C 0.85152 0.24304 0.0625 0.0
C1152 C 0.88378 0.23478 0.07862 0.0
C1153 C 0.86503 0.25744 0.07411 0.0
C1154 C 0.82557 0.17329 0.09186 0.0
C1155 C 0.83027 0.15649 0.11982 0.0
N1156 N 0.8187 0.16557 0.12863 0.0
C1157 C 0.81362 0.18238 0.10114 0.0
C1158 C 0.83393 0.16022 0.10125 0.0
C1159 C 0.81039 0.17833 0.11975 0.0
C1160 C 0.82556 0.23573 0.09733 0.0
N1161 N 0.83504 0.22174 0.09395 0.0
C1162 C 0.85114 0.22942 0.12696 0.0
C1163 C 0.84811 0.21883 0.10799 0.0
C1164 C 0.84074 0.24317 0.13111 0.0
C1165 C 0.82833 0.24684 0.11589 0.0
H1166 H 0.81514 0.23752 0.08603 0.0
H1167 H 0.85535 0.20747 0.1048 0.0
C1168 C 0.85691 0.1633 0.02445 0.0
N1169 N 0.85522 0.1694 0.0434 0.0
C1170 C 0.86787 0.15026 0.02074 0.0
C1171 C 0.87602 0.15138 0.05621 0.0
C1172 C 0.86479 0.16421 0.0592 0.0
C1173 C 0.87711 0.14375 0.03677 0.0
H1174 H 0.8489 0.16763 0.01226 0.0
H1175 H 0.86308 0.16944 0.07407 0.0
C1176 C 0.78822 0.20926 0.05336 0.0
N1177 N 0.76017 0.22632 0.04035 0.0
C1178 C 0.77068 0.19864 0.04967 0.0
C1179 C 0.79141 0.22871 0.05091 0.0
C1180 C 0.7567 0.20747 0.04297 0.0
C1181 C 0.7771 0.23704 0.04419 0.0
C1182 C 0.81323 0.1537 0.02136 0.0
C1183 C 0.80772 0.14764 1.00102 0.0
C1184 C 0.81725 0.14035 0.03369 0.0
C1185 C 0.80639 0.12826 0.99327 0.0
C1186 C 0.81578 0.12111 0.02537 0.0
N1187 N 0.81043 0.11551 1.0055 0.0
C1188 C 0.81191 0.22967 0.01428 0.0
C1189 C 0.79082 0.20003 1.0049 0.0
C1190 C 0.80175 0.2385 1.0013 0.0
N1191 N 0.80593 0.211 0.01621 0.0
C1192 C 0.78049 0.20809 0.99138 0.0
C1193 C 0.78565 0.22773 0.98986 0.0
H1194 H 0.8239 0.23799 0.0237 0.0
H1195 H 0.78643 0.18523 0.00702 0.0
C1196 C 0.7843 0.14438 0.07029 0.0
N1197 N 0.78689 0.15426 0.05495 0.0
C1198 C 0.76902 0.13007 0.06873 0.0
C1199 C 0.75988 0.13564 0.03527 0.0
C1200 C 0.77516 0.14999 0.03759 0.0
C1201 C 0.75649 0.12568 0.05109 0.0
H1202 H 0.7939 0.14755 0.08379 0.0
H1203 H 0.77758 0.15799 0.02558 0.0
O1204 O 0.84113 0.20978 0.04805 0.0
O1205 O 0.82953 0.17739 0.07395 0.0
O1206 O 0.8021 0.20077 0.05978 0.0
O1207 O 0.81456 0.17265 0.02905 0.0
H1208 H 0.873 0.20546 0.06462 0.0
H1209 H 0.83893 0.24649 0.05664 0.0
H1210 H 0.89641 0.23174 0.08501 0.0
H1211 H 0.86298 0.27209 0.07703 0.0
H1212 H 0.83667 0.14641 0.12725 0.0
H1213 H 0.80688 0.19244 0.09417 0.0
H1214 H 0.84315 0.15302 0.09426 0.0
H1215 H 0.80125 0.18531 0.12713 0.0
H1216 H 0.86072 0.22619 0.1385 0.0
H1217 H 0.81978 0.25704 0.11869 0.0
H1218 H 0.86831 0.14453 1.00555 0.0
H1219 H 0.88326 0.14693 0.06892 0.0
H1220 H 0.7678 0.18383 0.05218 0.0
H1221 H 0.80487 0.23719 0.05361 0.0
H1222 H 0.74308 0.19937 0.03995 0.0
H1223 H 0.77946 0.25199 0.04193 0.0
H1224 H 0.80451 0.15782 0.99132 0.0
H1225 H 0.82149 0.14476 0.04949 0.0
H1226 H 0.80216 0.12336 0.97753 0.0
H1227 H 0.81889 0.11063 0.03471 0.0
H1228 H 0.80616 0.25374 1.00082 0.0
H1229 H 0.76849 0.19909 0.98245 0.0
H1230 H 0.76689 0.12287 0.08138 0.0
H1231 H 0.7508 0.13249 0.02126 0.0
Li1232 Li 0.17637 0.52462 0.29623 0.0
Li1233 Li 0.1522 0.50624 0.3139 0.0
Li1234 Li 0.17504 0.4861 0.29451 0.0
Li1235 Li 0.14976 0.50335 0.27234 0.0
C1236 C 0.19418 0.51616 0.33264 0.0
N1237 N 0.22399 0.53266 0.36079 0.0
C1238 C 0.19297 0.52985 0.34849 0.0
C1239 C 0.21047 0.51061 0.33126 0.0
C1240 C 0.20821 0.5381 0.36252 0.0
C1241 C 0.22542 0.51919 0.34559 0.0
C1242 C 0.14886 0.54414 0.29663 0.0
C1243 C 0.13878 0.57112 0.28413 0.0
N1244 N 0.14724 0.58281 0.30123 0.0
C1245 C 0.15734 0.55636 0.31413 0.0
C1246 C 0.13942 0.55151 0.28154 0.0
C1247 C 0.15643 0.57589 0.31616 0.0
C1248 C 0.19018 0.55993 0.27877 0.0
N1249 N 0.19173 0.55254 0.29621 0.0
C1250 C 0.21027 0.58367 0.31217 0.0
C1251 C 0.20174 0.5643 0.31277 0.0
C1252 C 0.20892 0.59167 0.29434 0.0
C1253 C 0.19866 0.5791 0.27748 0.0
H1254 H 0.18194 0.55108 0.26566 0.0
H1255 H 0.20291 0.55894 0.32676 0.0
C1256 C 0.126 0.49271 0.34277 0.0
N1257 N 0.13816 0.50795 0.33913 0.0
C1258 C 0.11701 0.49405 0.35956 0.0
C1259 C 0.1328 0.52666 0.36936 0.0
C1260 C 0.14136 0.5248 0.35234 0.0
C1261 C 0.12023 0.51122 0.3736 0.0
H1262 H 0.12315 0.47921 0.33268 0.0
H1263 H 0.15065 0.53718 0.34987 0.0
C1264 C 0.18999 0.511 0.26362 0.0
N1265 N 0.21774 0.52649 0.24549 0.0
C1266 C 0.18656 0.51443 0.24408 0.0
C1267 C 0.20751 0.51528 0.2739 0.0
C1268 C 0.20077 0.52232 0.23518 0.0
C1269 C 0.22137 0.52314 0.26449 0.0
C1270 C 0.1309 0.46973 0.28952 0.0
C1271 C 0.13006 0.45011 0.29034 0.0
C1272 C 0.11519 0.47696 0.28724 0.0
C1273 C 0.11341 0.43796 0.28896 0.0
C1274 C 0.0988 0.46434 0.2859 0.0
N1275 N 0.09826 0.44526 0.2868 0.0
C1276 C 0.18277 0.44565 0.30323 0.0
C1277 C 0.2028 0.46033 0.2845 0.0
C1278 C 0.19111 0.42917 0.30286 0.0
N1279 N 0.18843 0.46118 0.29406 0.0
C1280 C 0.21159 0.44416 0.2839 0.0
C1281 C 0.20598 0.42779 0.29309 0.0
H1282 H 0.17163 0.44586 0.3111 0.0
H1283 H 0.20767 0.47226 0.2771 0.0
C1284 C 0.13877 0.51904 0.23482 0.0
N1285 N 0.13447 0.50332 0.24412 0.0
C1286 C 0.12958 0.52041 0.2158 0.0
C1287 C 0.11129 0.48939 0.21536 0.0
C1288 C 0.12083 0.4886 0.23448 0.0
C1289 C 0.11543 0.50549 0.20533 0.0
H1290 H 0.14953 0.5308 0.24216 0.0
H1291 H 0.11727 0.47599 0.24148 0.0
O1292 O 0.17941 0.50786 0.31879 0.0
O1293 O 0.14991 0.52509 0.29424 0.0
O1294 O 0.17624 0.50366 0.27272 0.0
O1295 O 0.14703 0.48191 0.2911 0.0
H1296 H 0.18045 0.53417 0.34987 0.0
H1297 H 0.21153 0.49969 0.31933 0.0
H1298 H 0.20748 0.54882 0.37479 0.0
H1299 H 0.23813 0.51508 0.34468 0.0
H1300 H 0.13153 0.57703 0.27255 0.0
H1301 H 0.16494 0.5509 0.32578 0.0
H1302 H 0.13252 0.54216 0.26806 0.0
H1303 H 0.16309 0.58556 0.32955 0.0
H1304 H 0.21798 0.59227 0.32573 0.0
H1305 H 0.19668 0.58414 0.26332 0.0
H1306 H 0.10774 0.48139 0.36159 0.0
H1307 H 0.13595 0.54047 0.37896 0.0
H1308 H 0.1731 0.51096 0.23584 0.0
H1309 H 0.21034 0.51274 0.28904 0.0
H1310 H 0.19832 0.52511 0.22006 0.0
H1311 H 0.23499 0.52662 0.27231 0.0
H1312 H 0.14212 0.44433 0.292 0.0
H1313 H 0.11569 0.49217 0.28658 0.0
H1314 H 0.11254 0.42272 0.28961 0.0
H1315 H 0.08652 0.4697 0.28417 0.0
H1316 H 0.18591 0.41766 0.3106 0.0
H1317 H 0.22266 0.44456 0.27586 0.0
H1318 H 0.13354 0.53341 0.20955 0.0
H1319 H 0.10088 0.47713 0.20845 0.0
Li1320 Li 0.79096 0.90072 0.55121 0.0
Li1321 Li 0.80351 0.87753 0.56949 0.0
Li1322 Li 0.82419 0.90387 0.55422 0.0
Li1323 Li 0.80201 0.8754 0.53207 0.0
C1324 C 0.80414 0.91841 0.58971 0.0
N1325 N 0.79278 0.94258 0.61746 0.0
C1326 C 0.78906 0.91159 0.59781 0.0
C1327 C 0.81352 0.93742 0.59572 0.0
C1328 C 0.7835 0.92407 0.61182 0.0
C1329 C 0.80754 0.94944 0.60978 0.0
C1330 C 0.77194 0.8543 0.54601 0.0
C1331 C 0.76884 0.8197 0.53976 0.0
N1332 N 0.75156 0.81757 0.54265 0.0
C1333 C 0.75414 0.8518 0.54884 0.0
C1334 C 0.77936 0.83816 0.5414 0.0
C1335 C 0.74407 0.8331 0.54712 0.0
C1336 C 0.75497 0.90481 0.53953 0.0
N1337 N 0.7711 0.9148 0.54973 0.0
C1338 C 0.75823 0.94264 0.5572 0.0
C1339 C 0.77295 0.93352 0.55828 0.0
C1340 C 0.74131 0.93256 0.54703 0.0
C1341 C 0.73994 0.91337 0.538 0.0
H1342 H 0.75378 0.89013 0.53239 0.0
H1343 H 0.78585 0.94148 0.56596 0.0
C1344 C 0.81718 0.86327 0.60552 0.0
N1345 N 0.80214 0.86384 0.59277 0.0
C1346 C 0.81606 0.85453 0.62268 0.0
C1347 C 0.78406 0.84671 0.61323 0.0
C1348 C 0.78578 0.85583 0.5965 0.0
C1349 C 0.79928 0.84608 0.62692 0.0
H1350 H 0.8301 0.86991 0.60257 0.0
H1351 H 0.77389 0.85672 0.58666 0.0
C1352 C 0.7979 0.91492 0.51982 0.0
N1353 N 0.77953 0.93838 0.4997 0.0
C1354 C 0.78437 0.9068 0.50373 0.0
C1355 C 0.80208 0.93491 0.52578 0.0
C1356 C 0.77524 0.91893 0.49372 0.0
C1357 C 0.79264 0.94654 0.51539 0.0
C1358 C 0.83338 0.86234 0.54996 0.0
C1359 C 0.84826 0.86732 0.54088 0.0
C1360 C 0.82968 0.84427 0.55604 0.0
C1361 C 0.859 0.85384 0.53755 0.0
C1362 C 0.84074 0.83119 0.55246 0.0
N1363 N 0.85503 0.83619 0.54334 0.0
C1364 C 0.86237 0.91803 0.56891 0.0
C1365 C 0.85085 0.92996 0.54035 0.0
C1366 C 0.87979 0.92767 0.56803 0.0
N1367 N 0.84827 0.91928 0.55515 0.0
C1368 C 0.86797 0.93991 0.53899 0.0
C1369 C 0.88291 0.93879 0.55282 0.0
H1370 H 0.86018 0.90914 0.58032 0.0
H1371 H 0.83962 0.9305 0.52928 0.0
C1372 C 0.78385 0.84976 0.49572 0.0
N1373 N 0.79989 0.85979 0.5061 0.0
C1374 C 0.78254 0.84044 0.47622 0.0
C1375 C 0.81422 0.85192 0.47829 0.0
C1376 C 0.81489 0.86107 0.49766 0.0
C1377 C 0.79786 0.84151 0.46715 0.0
H1378 H 0.77192 0.84939 0.50233 0.0
H1379 H 0.82734 0.8698 0.50572 0.0
O1380 O 0.80973 0.9065 0.57595 0.0
O1381 O 0.78196 0.87251 0.54769 0.0
O1382 O 0.80663 0.90328 0.53012 0.0
O1383 O 0.82281 0.87536 0.55347 0.0
H1384 H 0.78165 0.8969 0.59317 0.0
H1385 H 0.82523 0.94282 0.58951 0.0
H1386 H 0.7718 0.91906 0.61818 0.0
H1387 H 0.81462 0.96423 0.61456 0.0
H1388 H 0.77439 0.80707 0.53614 0.0
H1389 H 0.74824 0.86416 0.55256 0.0
H1390 H 0.79299 0.83987 0.53884 0.0
H1391 H 0.7303 0.83094 0.54936 0.0
H1392 H 0.76011 0.95738 0.56454 0.0
H1393 H 0.72741 0.90505 0.52956 0.0
H1394 H 0.82828 0.85485 0.6327 0.0
H1395 H 0.77078 0.8402 0.61527 0.0
H1396 H 0.78086 0.89131 0.49913 0.0
H1397 H 0.81231 0.94133 0.53848 0.0
H1398 H 0.76471 0.91287 0.48123 0.0
H1399 H 0.79567 0.96205 0.51986 0.0
H1400 H 0.85141 0.88139 0.53633 0.0
H1401 H 0.81844 0.84041 0.56354 0.0
H1402 H 0.8705 0.85741 0.53038 0.0
H1403 H 0.83799 0.81709 0.557 0.0
H1404 H 0.89073 0.92595 0.5789 0.0
H1405 H 0.86941 0.94842 0.52715 0.0
H1406 H 0.76963 0.83257 0.46832 0.0
H1407 H 0.82632 0.8536 0.47189 0.0
Li1408 Li 0.94462 1.00721 0.2785 0.0
Li1409 Li 0.91875 0.98425 0.25801 0.0
Li1410 Li 0.94322 1.00474 0.24196 0.0
Li1411 Li 0.9215 0.01986 0.25989 0.0
C1412 C 0.95766 0.97682 0.2696 0.0
N1413 N 0.98364 0.96403 0.29317 0.0
C1414 C 0.95278 0.96287 0.28144 0.0
C1415 C 0.97569 0.98427 0.26966 0.0
C1416 C 0.96614 0.95659 0.29329 0.0
C1417 C 0.98865 0.97761 0.2817 0.0
C1418 C 0.90953 0.01137 0.29378 0.0
C1419 C 0.88112 0.01413 0.30331 0.0
N1420 N 0.88975 0.02677 0.31972 0.0
C1421 C 0.91811 0.02438 0.31075 0.0
C1422 C 0.89089 1.00618 0.29003 0.0
C1423 C 0.90788 0.03202 0.32367 0.0
C1424 C 0.97577 0.02063 0.31139 0.0
N1425 N 0.95914 0.00948 0.30485 0.0
C1426 C 0.95835 1.00009 0.33702 0.0
C1427 C 0.95065 0.99898 0.3172 0.0
C1428 C 0.97524 0.01194 0.34444 0.0
C1429 C 0.98403 0.02215 0.33119 0.0
H1430 H 0.9827 0.02842 0.3014 0.0
H1431 H 0.93755 0.99001 0.31175 0.0
C1432 C 0.89761 0.94597 0.24123 0.0
N1433 N 0.90244 0.96004 0.25737 0.0
C1434 C 0.88583 0.92864 0.24196 0.0
C1435 C 0.8839 0.94084 0.27566 0.0
C1436 C 0.89595 0.95765 0.27442 0.0
C1437 C 0.87872 0.92582 0.25939 0.0
H1438 H 0.90302 0.94811 0.22784 0.0
H1439 H 0.90014 0.96885 0.28718 0.0
C1440 C 0.96329 0.0411 0.27003 0.0
N1441 N 0.99482 0.06688 0.28604 0.0
C1442 C 0.96356 0.05602 0.28536 0.0
C1443 C 0.97901 0.03932 0.26278 0.0
C1444 C 0.97964 0.0689 0.29328 0.0
C1445 C 0.99483 0.05248 0.27109 0.0
C1446 C 0.90086 0.99636 0.2225 0.0
C1447 C 0.90137 0.99901 0.20284 0.0
C1448 C 0.88444 0.99052 0.2285 0.0
C1449 C 0.88536 0.99594 0.1895 0.0
C1450 C 0.86872 0.98758 0.21471 0.0
N1451 N 0.8695 0.99035 0.19566 0.0
C1452 C 0.96518 0.99418 0.21284 0.0
C1453 C 0.95171 0.02099 0.20832 0.0
C1454 C 0.973 0.99612 0.1958 0.0
N1455 N 0.95474 1.00655 0.21874 0.0
C1456 C 0.95915 0.02337 0.19118 0.0
C1457 C 0.97 0.01085 0.18462 0.0
H1458 H 0.96742 0.98278 0.2213 0.0
H1459 H 0.94342 0.0307 0.21333 0.0
C1460 C 0.9112 0.05372 0.27647 0.0
N1461 N 0.90847 0.04052 0.25973 0.0
C1462 C 0.90206 0.0689 0.27734 0.0
C1463 C 0.88806 0.0574 0.24332 0.0
C1464 C 0.89733 0.04228 0.24321 0.0
C1465 C 0.89026 0.07092 0.26061 0.0
H1466 H 0.92056 0.05258 0.2892 0.0
H1467 H 0.89576 0.03221 0.22977 0.0
O1468 O 0.9448 0.98353 0.25839 0.0
O1469 O 0.91934 1.00354 0.28106 0.0
O1470 O 0.94764 0.02854 0.26188 0.0
O1471 O 0.91638 0.99957 0.23579 0.0
H1472 H 0.93882 0.95712 0.28162 0.0
H1473 H 0.97961 0.99516 0.26061 0.0
H1474 H 0.96259 0.94585 0.30261 0.0
H1475 H 1.00268 0.98328 0.28197 0.0
H1476 H 0.86669 0.01021 0.30059 0.0
H1477 H 0.9325 0.02892 0.3137 0.0
H1478 H 0.88399 0.99605 0.27708 0.0
H1479 H 0.91435 0.04219 0.33679 0.0
H1480 H 0.95087 0.99206 0.34653 0.0
H1481 H 0.99722 0.03114 0.33601 0.0
H1482 H 0.8826 0.91752 0.22906 0.0
H1483 H 0.87864 0.93984 0.28931 0.0
H1484 H 0.95154 0.05757 0.29119 0.0
H1485 H 0.97902 0.0279 0.25087 0.0
H1486 H 0.98007 0.08049 0.30519 0.0
H1487 H 1.00712 0.05126 0.26566 0.0
H1488 H 0.91398 1.00347 0.19795 0.0
H1489 H 0.88384 0.98832 0.24361 0.0
H1490 H 0.88555 0.99802 0.17425 0.0
H1491 H 0.85591 0.9831 0.21916 0.0
H1492 H 0.98113 0.986 0.19131 0.0
H1493 H 0.95664 0.03513 0.18333 0.0
H1494 H 0.90415 0.07883 0.29108 0.0
H1495 H 0.8795 0.05862 0.22985 0.0
Li1496 Li 0.32754 0.70264 0.57224 0.0
Li1497 Li 0.33845 0.68096 0.54808 0.0
Li1498 Li 0.32355 0.70429 0.53855 0.0
Li1499 Li 0.30642 0.67693 0.54746 0.0
C1500 C 0.3558 0.72315 0.54872 0.0
N1501 N 0.37331 0.75234 0.53151 0.0
C1502 C 0.36215 0.71871 0.53107 0.0
C1503 C 0.35841 0.74236 0.55771 0.0
C1504 C 0.37096 0.7337 0.52258 0.0
C1505 C 0.36728 0.75694 0.54874 0.0
C1506 C 0.3284 0.6637 0.58377 0.0
C1507 C 0.3235 0.63392 0.5973 0.0
N1508 N 0.33582 0.64236 0.6136 0.0
C1509 C 0.34093 0.67211 0.6007 0.0
C1510 C 0.31953 0.64448 0.58208 0.0
C1511 C 0.34454 0.66107 0.61559 0.0
C1512 C 0.31476 0.71602 0.60449 0.0
N1513 N 0.33024 0.71611 0.59734 0.0
C1514 C 0.3471 0.73689 0.62611 0.0
C1515 C 0.34627 0.72621 0.60754 0.0
C1516 C 0.33122 0.73717 0.63361 0.0
C1517 C 0.31493 0.72666 0.62277 0.0
H1518 H 0.30229 0.70781 0.59582 0.0
H1519 H 0.35829 0.72595 0.60122 0.0
C1520 C 0.35872 0.65961 0.52687 0.0
N1521 N 0.35641 0.66706 0.54521 0.0
C1522 C 0.36914 0.64574 0.52483 0.0
C1523 C 0.37639 0.64948 0.56063 0.0
C1524 C 0.36566 0.66308 0.56192 0.0
C1525 C 0.37757 0.64006 0.5419 0.0
H1526 H 0.35173 0.66365 0.51382 0.0
H1527 H 0.36427 0.67002 0.57624 0.0
C1528 C 0.29054 0.7097 0.54724 0.0
N1529 N 0.26166 0.7229 0.52955 0.0
C1530 C 0.28201 0.7014 0.52804 0.0
C1531 C 0.28443 0.7247 0.55745 0.0
C1532 C 0.26741 0.70827 0.51935 0.0
C1533 C 0.26979 0.73117 0.54825 0.0
C1534 C 0.31624 0.65929 0.51433 0.0
C1535 C 0.31214 0.65604 0.49364 0.0
C1536 C 0.3169 0.64364 0.52459 0.0
C1537 C 0.30867 0.63714 0.48356 0.0
C1538 C 0.31339 0.62496 0.51399 0.0
N1539 N 0.30935 0.62212 0.49386 0.0
C1540 C 0.31765 0.7175 0.50224 0.0
C1541 C 0.3179 0.7397 0.53111 0.0
C1542 C 0.31015 0.72928 0.49029 0.0
N1543 N 0.32084 0.72272 0.52221 0.0
C1544 C 0.31007 0.7517 0.51979 0.0
C1545 C 0.30575 0.74616 0.49926 0.0
H1546 H 0.31973 0.70363 0.49578 0.0
H1547 H 0.3202 0.74306 0.54712 0.0
C1548 C 0.27906 0.65541 0.56182 0.0
N1549 N 0.2846 0.65938 0.54468 0.0
C1550 C 0.26346 0.64192 0.56127 0.0
C1551 C 0.2592 0.63745 0.52539 0.0
C1552 C 0.27498 0.65095 0.52665 0.0
C1553 C 0.25344 0.63269 0.54288 0.0
H1554 H 0.2869 0.66261 0.57591 0.0
H1555 H 0.27956 0.65458 0.51324 0.0
O1556 O 0.34698 0.70872 0.5571 0.0
O1557 O 0.32435 0.67441 0.56925 0.0
O1558 O 0.3054 0.70393 0.55568 0.0
O1559 O 0.31924 0.67775 0.52427 0.0
H1560 H 0.36014 0.70387 0.52395 0.0
H1561 H 0.35348 0.74597 0.57134 0.0
H1562 H 0.37589 0.73052 0.50887 0.0
H1563 H 0.36934 0.7719 0.55546 0.0
H1564 H 0.31674 0.61903 0.59617 0.0
H1565 H 0.34803 0.68689 0.60219 0.0
H1566 H 0.30962 0.63776 0.56923 0.0
H1567 H 0.3543 0.66737 0.62871 0.0
H1568 H 0.35981 0.7449 0.63444 0.0
H1569 H 0.30254 0.72665 0.62846 0.0
H1570 H 0.3698 0.63886 0.51011 0.0
H1571 H 0.38324 0.64596 0.57411 0.0
H1572 H 0.2869 0.69016 0.51973 0.0
H1573 H 0.29109 0.73144 0.57221 0.0
H1574 H 0.26075 0.7021 0.50444 0.0
H1575 H 0.26497 0.74286 0.55593 0.0
H1576 H 0.31149 0.668 0.48547 0.0
H1577 H 0.32019 0.64588 0.54052 0.0
H1578 H 0.30534 0.63441 0.46755 0.0
H1579 H 0.31381 0.61272 0.52178 0.0
H1580 H 0.30673 0.72467 0.4744 0.0
H1581 H 0.30671 0.76465 0.527 0.0
H1582 H 0.25922 0.63885 0.57506 0.0
H1583 H 0.25178 0.63058 0.51096 0.0
Li1584 Li 0.42011 0.48203 0.75689 0.0
Li1585 Li 0.44681 0.50499 0.77787 0.0
Li1586 Li 0.42261 0.51772 0.75984 0.0
Li1587 Li 0.44385 0.5033 0.74075 0.0
C1588 C 0.41078 0.50199 0.79434 0.0
N1589 N 0.38896 0.50399 0.82265 0.0
C1590 C 0.41783 0.51162 0.81353 0.0
C1591 C 0.39268 0.49324 0.78957 0.0
C1592 C 0.40657 0.51252 0.82762 0.0
C1593 C 0.38186 0.49444 0.80409 0.0
C1594 C 0.46001 0.47347 0.76331 0.0
C1595 C 0.49155 0.47393 0.77034 0.0
N1596 N 0.48789 0.45629 0.7762 0.0
C1597 C 0.45652 0.45534 0.7693 0.0
C1598 C 0.47761 0.48285 0.76374 0.0
C1599 C 0.47082 0.4469 0.77582 0.0
C1600 C 0.39073 0.44999 0.74055 0.0
N1601 N 0.404 0.45785 0.75617 0.0
C1602 C 0.394 0.43251 0.77426 0.0
C1603 C 0.4058 0.44946 0.77281 0.0
C1604 C 0.37995 0.42411 0.75852 0.0
C1605 C 0.3785 0.43309 0.74143 0.0
H1606 H 0.38943 0.457 0.72753 0.0
H1607 H 0.41635 0.45613 0.78511 0.0
C1608 C 0.46998 0.5258 0.81403 0.0
N1609 N 0.46172 0.50804 0.80389 0.0
C1610 C 0.47796 0.52797 0.83397 0.0
C1611 C 0.4693 0.4935 0.83273 0.0
C1612 C 0.46129 0.49203 0.8129 0.0
C1613 C 0.47754 0.51171 0.84369 0.0
H1614 H 0.46978 0.53847 0.80703 0.0
H1615 H 0.45403 0.47816 0.80497 0.0
C1616 C 0.40205 0.4996 0.72273 0.0
N1617 N 0.37213 0.50367 0.69776 0.0
C1618 C 0.40336 0.50361 0.70361 0.0
C1619 C 0.38554 0.49757 0.72914 0.0
C1620 C 0.38809 0.50566 0.69121 0.0
C1621 C 0.37056 0.49969 0.71629 0.0
C1622 C 0.46214 0.54197 0.76724 0.0
C1623 C 0.45918 0.55875 0.77796 0.0
C1624 C 0.47896 0.54147 0.76222 0.0
C1625 C 0.47328 0.57471 0.78379 0.0
C1626 C 0.49272 0.55772 0.76832 0.0
N1627 N 0.48962 0.57386 0.77891 0.0
C1628 C 0.40707 0.5462 0.77934 0.0
C1629 C 0.40449 0.54555 0.74463 0.0
C1630 C 0.3983 0.56166 0.78103 0.0
N1631 N 0.40981 0.53831 0.76132 0.0
C1632 C 0.39548 0.56087 0.74558 0.0
C1633 C 0.39228 0.56916 0.76399 0.0
H1634 H 0.41208 0.54085 0.79252 0.0
H1635 H 0.40737 0.53956 0.73055 0.0
C1636 C 0.46482 0.49275 0.71083 0.0
N1637 N 0.45538 0.50579 0.71771 0.0
C1638 C 0.47254 0.49488 0.69377 0.0
C1639 C 0.4606 0.5237 0.6911 0.0
C1640 C 0.4533 0.52114 0.70829 0.0
C1641 C 0.47039 0.51048 0.68356 0.0
H1642 H 0.46628 0.48062 0.71849 0.0
H1643 H 0.44578 0.53135 0.71407 0.0
O1644 O 0.42165 0.50084 0.78043 0.0
O1645 O 0.4462 0.48191 0.75689 0.0
O1646 O 0.41693 0.49783 0.73512 0.0
O1647 O 0.44848 0.52628 0.76133 0.0
H1648 H 0.4318 0.51849 0.81745 0.0
H1649 H 0.38706 0.48544 0.77492 0.0
H1650 H 0.41182 0.52001 0.84251 0.0
H1651 H 0.36782 0.48773 0.80061 0.0
H1652 H 0.50526 0.48101 0.77078 0.0
H1653 H 0.44293 0.44788 0.76892 0.0
H1654 H 0.48047 0.49684 0.75903 0.0
H1655 H 0.46834 0.43287 0.78056 0.0
H1656 H 0.39595 0.42607 0.78762 0.0
H1657 H 0.36778 0.42743 0.72902 0.0
H1658 H 0.4842 0.54229 0.84177 0.0
H1659 H 0.46834 0.48059 0.83966 0.0
H1660 H 0.41603 0.50512 0.69839 0.0
H1661 H 0.38433 0.49454 0.7439 0.0
H1662 H 0.38891 0.50881 0.67638 0.0
H1663 H 0.35769 0.49821 0.72107 0.0
H1664 H 0.44619 0.55937 0.78187 0.0
H1665 H 0.48135 0.52874 0.75356 0.0
H1666 H 0.47123 0.58776 0.7922 0.0
H1667 H 0.50583 0.55754 0.76458 0.0
H1668 H 0.39661 0.5679 0.79561 0.0
H1669 H 0.39103 0.56608 0.73201 0.0
H1670 H 0.47987 0.48425 0.68847 0.0
H1671 H 0.45881 0.53609 0.68396 0.0
Li1672 Li 0.6519 1.00614 0.81334 0.0
Li1673 Li 0.67583 0.02509 0.79561 0.0
Li1674 Li 0.64894 1.00333 0.77159 0.0
Li1675 Li 0.67488 0.98649 0.79393 0.0
C1676 C 0.6469 0.04357 0.79654 0.0
N1677 N 0.64212 0.0812 0.80227 0.0
C1678 C 0.65556 0.05608 0.81378 0.0
C1679 C 0.6357 0.05009 0.78228 0.0
C1680 C 0.65302 0.07509 0.81639 0.0
C1681 C 0.63347 0.06919 0.78543 0.0
C1682 C 0.6934 0.01823 0.83225 0.0
C1683 C 0.72503 0.02632 0.8449 0.0
N1684 N 0.72196 0.03821 0.86051 0.0
C1685 C 0.69055 0.03042 0.84848 0.0
C1686 C 0.71076 0.01607 0.83049 0.0
C1687 C 0.70516 0.04043 0.86259 0.0
C1688 C 0.62657 0.99178 0.84291 0.0
N1689 N 0.63765 1.00754 0.83856 0.0
C1690 C 0.63111 0.02633 0.86811 0.0
C1691 C 0.63967 0.02468 0.85106 0.0
C1692 C 0.61966 0.01035 0.87306 0.0
C1693 C 0.61754 0.99289 0.8597 0.0
H1694 H 0.62462 0.97804 0.8334 0.0
H1695 H 0.64802 0.03748 0.84801 0.0
C1696 C 0.69026 0.06026 0.77798 0.0
N1697 N 0.6909 0.05323 0.79562 0.0
C1698 C 0.69869 0.07948 0.77673 0.0
C1699 C 0.70826 0.08488 0.81186 0.0
C1700 C 0.69986 0.06544 0.81242 0.0
C1701 C 0.7079 0.09249 0.79381 0.0
H1702 H 0.68281 0.05109 0.76464 0.0
H1703 H 0.70027 0.06039 0.82657 0.0
C1704 C 0.6329 0.96793 0.792 0.0
N1705 N 0.60462 0.93968 0.79596 0.0
C1706 C 0.63611 0.95164 0.80013 0.0
C1707 C 0.61539 0.96994 0.78587 0.0
C1708 C 0.62161 0.93749 0.80201 0.0
C1709 C 0.60125 0.95546 0.788 0.0
C1710 C 0.68886 0.0105 0.76188 0.0
C1711 C 0.68461 0.01459 0.7427 0.0
C1712 C 0.70673 0.01295 0.77063 0.0
C1713 C 0.69838 0.02139 0.73266 0.0
C1714 C 0.72013 0.01977 0.76012 0.0
N1715 N 0.71572 0.02384 0.74151 0.0
C1716 C 0.63682 0.0197 0.73484 0.0
C1717 C 0.62077 0.98806 0.73315 0.0
C1718 C 0.6276 0.0211 0.71584 0.0
N1719 N 0.6335 1.00336 0.74345 0.0
C1720 C 0.61119 0.98888 0.71405 0.0
C1721 C 0.61439 1.00558 0.70471 0.0
H1722 H 0.64686 0.03192 0.7427 0.0
H1723 H 0.61799 0.97496 0.73959 0.0
C1724 C 0.70244 0.96063 0.80729 0.0
N1725 N 0.68821 0.96142 0.79316 0.0
C1726 C 0.71122 0.94446 0.80687 0.0
C1727 C 0.69091 0.92919 0.77755 0.0
C1728 C 0.68255 0.94568 0.77844 0.0
C1729 C 0.70574 0.92795 0.79185 0.0
H1730 H 0.70719 0.97257 0.81928 0.0
H1731 H 0.67136 0.9457 0.76706 0.0
O1732 O 0.64932 0.02498 0.79369 0.0
O1733 O 0.67924 1.00834 0.81829 0.0
O1734 O 0.64689 0.982 0.79026 0.0
O1735 O 0.67559 1.00409 0.77205 0.0
H1736 H 0.66439 0.05124 0.82485 0.0
H1737 H 0.62866 0.04046 0.76903 0.0
H1738 H 0.65975 0.08499 0.8296 0.0
H1739 H 0.62483 0.07446 0.77451 0.0
H1740 H 0.73854 0.02479 0.84369 0.0
H1741 H 0.67723 0.03216 0.85015 0.0
H1742 H 0.71322 1.00653 0.81819 0.0
H1743 H 0.70313 0.04998 0.87517 0.0
H1744 H 0.63334 0.04036 0.87717 0.0
H1745 H 0.60915 0.97984 0.86229 0.0
H1746 H 0.69747 0.0842 0.76236 0.0
H1747 H 0.71512 0.09383 0.82561 0.0
H1748 H 0.64965 0.94999 0.80497 0.0
H1749 H 0.61277 0.98256 0.7796 0.0
H1750 H 0.62385 0.92478 0.80829 0.0
H1751 H 0.58759 0.95679 0.78335 0.0
H1752 H 0.67086 0.01247 0.73561 0.0
H1753 H 0.71021 0.00967 0.78537 0.0
H1754 H 0.69529 0.02468 0.71782 0.0
H1755 H 0.73404 0.02182 0.76675 0.0
H1756 H 0.63078 0.03454 0.7101 0.0
H1757 H 0.60152 0.97619 0.70659 0.0
H1758 H 0.72219 0.94498 0.8187 0.0
H1759 H 0.68572 0.91753 0.76533 0.0
Li1760 Li 0.77053 0.67221 0.03096 0.0
Li1761 Li 0.78186 0.64701 0.01288 0.0
Li1762 Li 0.76863 0.67093 0.99413 0.0
Li1763 Li 0.74805 0.64494 0.01064 0.0
C1764 C 0.80467 0.68932 0.02249 0.0
N1765 N 0.83414 0.71824 0.03807 0.0
C1766 C 0.81961 0.68503 0.0337 0.0
C1767 C 0.80482 0.70824 0.01894 0.0
C1768 C 0.83435 0.69988 0.04154 0.0
C1769 C 0.81982 0.72268 0.02701 0.0
C1770 C 0.7735 0.64021 0.05128 0.0
C1771 C 0.77186 0.62109 0.07769 0.0
N1772 N 0.78769 0.63203 0.08758 0.0
C1773 C 0.78981 0.65116 0.06161 0.0
C1774 C 0.76449 0.62499 0.05929 0.0
C1775 C 0.79674 0.64684 0.07998 0.0
C1776 C 0.75924 0.68271 0.06718 0.0
N1777 N 0.77279 0.68807 0.05707 0.0
C1778 C 0.7882 0.71145 0.08523 0.0
C1779 C 0.78714 0.70223 0.06575 0.0
C1780 C 0.77432 0.70621 0.09594 0.0
C1781 C 0.75963 0.69172 0.08653 0.0
H1782 H 0.74822 0.67103 0.06035 0.0
H1783 H 0.798 0.7062 0.05787 0.0
C1784 C 0.81407 0.63729 1.0017 0.0
N1785 N 0.8015 0.63263 0.01327 0.0
C1786 C 0.82895 0.62845 1.00218 0.0
C1787 C 0.81803 0.61027 0.0267 0.0
C1788 C 0.80321 0.61923 0.02551 0.0
C1789 C 0.83132 0.61478 0.01496 0.0
H1790 H 0.81262 0.64806 0.99214 0.0
H1791 H 0.7932 0.61559 0.03464 0.0
C1792 C 0.74295 0.68835 0.01914 0.0
N1793 N 0.73046 0.71875 0.03724 0.0
C1794 C 0.72822 0.68474 0.02874 0.0
C1795 C 0.75123 0.70734 0.0185 0.0
C1796 C 0.72213 0.70033 0.03788 0.0
C1797 C 0.74474 0.72253 0.0278 0.0
C1798 C 0.76759 0.62675 0.97783 0.0
C1799 C 0.77795 0.63033 0.96316 0.0
C1800 C 0.76313 0.60807 0.98229 0.0
C1801 C 0.78373 0.61499 0.95309 0.0
C1802 C 0.76919 0.59313 0.9719 0.0
N1803 N 0.77927 0.59687 0.95764 0.0
C1804 C 0.78654 0.69144 0.96669 0.0
C1805 C 0.75508 0.68709 0.95958 0.0
C1806 C 0.78828 0.70105 0.95024 0.0
N1807 N 0.77013 0.68471 0.97115 0.0
C1808 C 0.7562 0.69654 0.94291 0.0
C1809 C 0.77299 0.70376 0.93796 0.0
H1810 H 0.79836 0.68923 0.97584 0.0
H1811 H 0.74213 0.6816 0.96326 0.0
C1812 C 0.71918 0.62693 0.02808 0.0
N1813 N 0.72387 0.62983 0.01021 0.0
C1814 C 0.702 0.61705 0.02937 0.0
C1815 C 0.69427 0.61381 0.99387 0.0
C1816 C 0.71176 0.62348 0.99324 0.0
C1817 C 0.68901 0.61033 0.01215 0.0
H1818 H 0.72874 0.63255 0.04149 0.0
H1819 H 0.71553 0.62621 0.97917 0.0
O1820 O 0.79015 0.67499 0.01461 0.0
O1821 O 0.76632 0.64442 0.03346 0.0
O1822 O 0.74933 0.67335 0.01047 0.0
O1823 O 0.76218 0.64159 0.98815 0.0
H1824 H 0.81987 0.6704 0.03628 0.0
H1825 H 0.79348 0.71175 0.01006 0.0
H1826 H 0.84597 0.69679 0.05032 0.0
H1827 H 0.82009 0.73741 0.02446 0.0
H1828 H 0.76501 0.60936 0.08409 0.0
H1829 H 0.79693 0.66297 0.05561 0.0
H1830 H 0.752 0.61616 0.05133 0.0
H1831 H 0.80929 0.65529 0.0882 0.0
H1832 H 0.79979 0.72258 0.09184 0.0
H1833 H 0.74876 0.68693 0.09427 0.0
H1834 H 0.83845 0.6323 0.99248 0.0
H1835 H 0.81915 0.60018 0.0371 0.0
H1836 H 0.72168 0.67007 0.02929 0.0
H1837 H 0.76254 0.71027 0.01092 0.0
H1838 H 0.71081 0.69779 0.04551 0.0
H1839 H 0.75106 0.73733 0.02751 0.0
H1840 H 0.78157 0.6448 0.9597 0.0
H1841 H 0.75521 0.60521 0.99376 0.0
H1842 H 0.7918 0.61751 0.9417 0.0
H1843 H 0.7659 0.57858 0.9752 0.0
H1844 H 0.80152 0.70599 0.94701 0.0
H1845 H 0.744 0.69838 0.93416 0.0
H1846 H 0.6991 0.61468 0.04387 0.0
H1847 H 0.68493 0.60951 0.98009 0.0
Li1848 Li 0.89652 0.52188 0.76833 0.0
Li1849 Li 0.92357 0.54413 0.79206 0.0
Li1850 Li 0.89825 0.56096 0.76991 0.0
Li1851 Li 0.921 0.54158 0.75058 0.0
C1852 C 0.88577 0.53887 0.80448 0.0
N1853 N 0.86294 0.53019 0.8309 0.0
C1854 C 0.89078 0.52902 0.81997 0.0
C1855 C 0.86923 0.54438 0.8024 0.0
C1856 C 0.87903 0.52475 0.83319 0.0
C1857 C 0.85785 0.53982 0.81591 0.0
C1858 C 0.92577 0.504 0.7707 0.0
C1859 C 0.93314 0.47483 0.7555 0.0
N1860 N 0.93034 0.46663 0.77189 0.0
C1861 C 0.92299 0.49535 0.7874 0.0
C1862 C 0.93088 0.49374 0.75461 0.0
C1863 C 0.92536 0.47641 0.78771 0.0
C1864 C 0.88299 0.47861 0.75351 0.0
N1865 N 0.88122 0.49352 0.76722 0.0
C1866 C 0.86229 0.46979 0.78197 0.0
C1867 C 0.87073 0.48911 0.78113 0.0
C1868 C 0.8641 0.45396 0.76827 0.0
C1869 C 0.87467 0.45906 0.75375 0.0
H1870 H 0.8912 0.48171 0.74238 0.0
H1871 H 0.86896 0.50051 0.79202 0.0
C1872 C 0.93562 0.55424 0.83712 0.0
N1873 N 0.93913 0.54456 0.82012 0.0
C1874 C 0.94483 0.55308 0.85625 0.0
C1875 C 0.96151 0.53212 0.84077 0.0
C1876 C 0.95202 0.53369 0.82195 0.0
C1877 C 0.95813 0.5418 0.85869 0.0
H1878 H 0.92533 0.56274 0.83601 0.0
H1879 H 0.95484 0.52574 0.80874 0.0
C1880 C 0.87819 0.53375 0.73256 0.0
N1881 N 0.84674 0.52422 0.70564 0.0
C1882 C 0.87864 0.53216 0.71225 0.0
C1883 C 0.86181 0.53047 0.73923 0.0
C1884 C 0.86257 0.52732 0.69886 0.0
C1885 C 0.84603 0.52567 0.72537 0.0
C1886 C 0.9394 0.58003 0.77129 0.0
C1887 C 0.93544 0.59423 0.76011 0.0
C1888 C 0.95704 0.58057 0.77985 0.0
C1889 C 0.9493 0.60885 0.75764 0.0
C1890 C 0.97052 0.59543 0.77703 0.0
N1891 N 0.9664 0.60914 0.76608 0.0
C1892 C 0.89143 0.60222 0.78437 0.0
C1893 C 0.86983 0.58604 0.75736 0.0
C1894 C 0.88314 0.61875 0.78523 0.0
N1895 N 0.8849 0.58588 0.77057 0.0
C1896 C 0.86116 0.60228 0.75771 0.0
C1897 C 0.86753 0.61944 0.7718 0.0
H1898 H 0.90327 0.60265 0.79503 0.0
H1899 H 0.86431 0.57348 0.74621 0.0
C1900 C 0.92831 0.5255 0.7094 0.0
N1901 N 0.93479 0.53998 0.72526 0.0
C1902 C 0.93684 0.52369 0.69233 0.0
C1903 C 0.959 0.55152 0.70739 0.0
C1904 C 0.95005 0.55286 0.7242 0.0
C1905 C 0.95263 0.53676 0.6907 0.0
H1906 H 0.91638 0.51503 0.70986 0.0
H1907 H 0.95552 0.56443 0.73643 0.0
O1908 O 0.89706 0.54324 0.79146 0.0
O1909 O 0.92324 0.52236 0.77001 0.0
O1910 O 0.89375 0.53868 0.74587 0.0
O1911 O 0.92607 0.56555 0.77368 0.0
H1912 H 0.90349 0.52452 0.82163 0.0
H1913 H 0.86524 0.55208 0.79047 0.0
H1914 H 0.88268 0.51707 0.84522 0.0
H1915 H 0.84497 0.54396 0.8145 0.0
H1916 H 0.93708 0.46666 0.74315 0.0
H1917 H 0.91888 0.50314 0.79989 0.0
H1918 H 0.93303 0.5003 0.74158 0.0
H1919 H 0.92319 0.46948 0.8005 0.0
H1920 H 0.8547 0.46747 0.79378 0.0
H1921 H 0.87662 0.4481 0.7424 0.0
H1922 H 0.94148 0.56118 0.86904 0.0
H1923 H 0.97119 0.52288 0.8411 0.0
H1924 H 0.89125 0.53477 0.70691 0.0
H1925 H 0.8613 0.53165 0.75494 0.0
H1926 H 0.86269 0.52609 0.68309 0.0
H1927 H 0.83323 0.52311 0.73028 0.0
H1928 H 0.9218 0.59389 0.75339 0.0
H1929 H 0.96025 0.56958 0.7885 0.0
H1930 H 0.94645 0.61995 0.74901 0.0
H1931 H 0.98426 0.59606 0.78352 0.0
H1932 H 0.88907 0.63086 0.79674 0.0
H1933 H 0.84951 0.60123 0.74659 0.0
H1934 H 0.93103 0.51173 0.68058 0.0
H1935 H 0.97082 0.56238 0.70756 0.0
Li1936 Li 0.75467 0.34754 0.52706 0.0
Li1937 Li 0.73529 0.36637 0.51438 0.0
Li1938 Li 0.74327 0.34013 0.49249 0.0
Li1939 Li 0.76503 0.37094 0.50708 0.0
C1940 C 0.7224 0.32329 0.52298 0.0
N1941 N 0.70765 0.29283 0.54048 0.0
C1942 C 0.7172 0.32682 0.54145 0.0
C1943 C 0.72002 0.30434 0.5133 0.0
C1944 C 0.70979 0.3112 0.55008 0.0
C1945 C 0.71256 0.28911 0.52243 0.0
C1946 C 0.75521 0.39054 0.54535 0.0
C1947 C 0.75214 0.42371 0.55185 0.0
N1948 N 0.74957 0.42128 0.57056 0.0
C1949 C 0.75265 0.38837 0.56467 0.0
C1950 C 0.75508 0.40836 0.5389 0.0
C1951 C 0.74978 0.40409 0.57719 0.0
C1952 C 0.77858 0.35067 0.56044 0.0
N1953 N 0.76439 0.33786 0.54929 0.0
C1954 C 0.7719 0.31233 0.56588 0.0
C1955 C 0.76063 0.31905 0.55196 0.0
C1956 C 0.78704 0.32514 0.57694 0.0
C1957 C 0.79011 0.34461 0.57452 0.0
H1958 H 0.78167 0.36534 0.55746 0.0
H1959 H 0.74983 0.30895 0.54235 0.0
C1960 C 0.71024 0.38726 0.50252 0.0
N1961 N 0.71703 0.37939 0.51811 0.0
C1962 C 0.69853 0.39963 0.50503 0.0
C1963 C 0.70025 0.39461 0.53933 0.0
C1964 C 0.71182 0.38216 0.53607 0.0
C1965 C 0.69382 0.40374 0.52375 0.0
H1966 H 0.71435 0.3844 0.48831 0.0
H1967 H 0.71717 0.37529 0.54802 0.0
C1968 C 0.78183 0.33579 0.51274 0.0
N1969 N 0.80873 0.3192 0.5298 0.0
C1970 C 0.79884 0.34707 0.52006 0.0
C1971 C 0.77852 0.31607 0.51404 0.0
C1972 C 0.81225 0.33842 0.52865 0.0
C1973 C 0.79229 0.30795 0.52272 0.0
C1974 C 0.74666 0.37746 0.47349 0.0
C1975 C 0.74987 0.36813 0.45569 0.0
C1976 C 0.74795 0.39746 0.47633 0.0
C1977 C 0.75436 0.37903 0.44098 0.0
C1978 C 0.75253 0.40786 0.46129 0.0
N1979 N 0.75561 0.39851 0.44407 0.0
C1980 C 0.72099 0.32309 0.45686 0.0
C1981 C 0.74604 0.30906 0.46591 0.0
C1982 C 0.71741 0.31206 0.43805 0.0
N1983 N 0.73548 0.3218 0.46995 0.0
C1984 C 0.74276 0.2975 0.44755 0.0
C1985 C 0.72875 0.29955 0.43316 0.0
H1986 H 0.71307 0.33369 0.46052 0.0
H1987 H 0.75775 0.30884 0.47634 0.0
C1988 C 0.79386 0.40107 0.52126 0.0
N1989 N 0.78514 0.38917 0.50441 0.0
C1990 C 0.80924 0.41451 0.5209 0.0
C1991 C 0.80665 0.40297 0.48589 0.0
C1992 C 0.79139 0.38957 0.487 0.0
C1993 C 0.81577 0.41565 0.50302 0.0
H1994 H 0.78918 0.39978 0.53514 0.0
H1995 H 0.78472 0.37933 0.47407 0.0
O1996 O 0.72923 0.33834 0.51406 0.0
O1997 O 0.75801 0.37534 0.53287 0.0
O1998 O 0.76845 0.34406 0.50453 0.0
O1999 O 0.74211 0.36706 0.48801 0.0
H2000 H 0.71894 0.34145 0.54904 0.0
H2001 H 0.72391 0.30141 0.49894 0.0
H2002 H 0.70573 0.31368 0.56441 0.0
H2003 H 0.71068 0.27435 0.51517 0.0
H2004 H 0.75192 0.43757 0.54703 0.0
H2005 H 0.75265 0.37463 0.56985 0.0
H2006 H 0.75721 0.41029 0.52406 0.0
H2007 H 0.74768 0.4026 0.59214 0.0
H2008 H 0.76914 0.29719 0.56751 0.0
H2009 H 0.8018 0.3548 0.58267 0.0
H2010 H 0.6938 0.40652 0.49272 0.0
H2011 H 0.69663 0.39736 0.55389 0.0
H2012 H 0.80167 0.36235 0.51926 0.0
H2013 H 0.76531 0.30721 0.50904 0.0
H2014 H 0.82546 0.34699 0.53446 0.0
H2015 H 0.78984 0.29275 0.52402 0.0
H2016 H 0.74921 0.35271 0.45332 0.0
H2017 H 0.74542 0.40488 0.48997 0.0
H2018 H 0.75695 0.37202 0.42716 0.0
H2019 H 0.75362 0.42336 0.4633 0.0
H2020 H 0.70669 0.31416 0.42709 0.0
H2021 H 0.75208 0.2884 0.44408 0.0
H2022 H 0.81619 0.42355 0.53459 0.0
H2023 H 0.81128 0.40332 0.4718 0.0
Li2024 Li 0.62857 0.54372 0.32148 0.0
Li2025 Li 0.65257 0.56464 0.30591 0.0
Li2026 Li 0.62684 0.5422 0.28506 0.0
Li2027 Li 0.65014 0.52873 0.3026 0.0
C2028 C 0.61265 0.57091 0.29492 0.0
N2029 N 0.58469 0.58134 0.27203 0.0
C2030 C 0.61586 0.58676 0.28494 0.0
C2031 C 0.59526 0.56033 0.29328 0.0
C2032 C 0.60153 0.5918 0.27342 0.0
C2033 C 0.58129 0.56585 0.28164 0.0
C2034 C 0.67238 0.55231 0.33825 0.0
C2035 C 0.70425 0.55584 0.34016 0.0
N2036 N 0.7064 0.56081 0.36018 0.0
C2037 C 0.67487 0.55743 0.35882 0.0
C2038 C 0.68715 0.55149 0.3288 0.0
C2039 C 0.69219 0.56168 0.36965 0.0
C2040 C 0.62511 0.53226 0.35882 0.0
N2041 N 0.6173 0.54141 0.34482 0.0
C2042 C 0.59449 0.5459 0.36425 0.0
C2043 C 0.60229 0.54829 0.34729 0.0
C2044 C 0.60226 0.53646 0.37898 0.0
C2045 C 0.61786 0.52969 0.37606 0.0
H2046 H 0.63699 0.52682 0.35654 0.0
H2047 H 0.59631 0.55565 0.33612 0.0
C2048 C 0.66814 0.5965 0.28967 0.0
N2049 N 0.66887 0.58901 0.30692 0.0
C2050 C 0.67979 0.61362 0.28835 0.0
C2051 C 0.69301 0.61507 0.32253 0.0
C2052 C 0.68092 0.59801 0.32328 0.0
C2053 C 0.69254 0.62311 0.30488 0.0
H2054 H 0.6586 0.58898 0.27679 0.0
H2055 H 0.68127 0.59199 0.33691 0.0
C2056 C 0.61021 0.50622 0.29106 0.0
N2057 N 0.58224 0.47741 0.27105 0.0
C2058 C 0.61267 0.49382 0.27478 0.0
C2059 C 0.5936 0.50394 0.29728 0.0
C2060 C 0.59834 0.47935 0.26482 0.0
C2061 C 0.57961 0.48929 0.28694 0.0
C2062 C 0.66201 0.54256 0.26826 0.0
C2063 C 0.65439 0.5296 0.25094 0.0
C2064 C 0.67971 0.55245 0.27051 0.0
C2065 C 0.66472 0.52656 0.23623 0.0
C2066 C 0.68959 0.54903 0.25545 0.0
N2067 N 0.68196 0.53626 0.23877 0.0
C2068 C 0.62047 0.55155 0.24676 0.0
C2069 C 0.59615 0.52832 0.25181 0.0
C2070 C 0.61286 0.5505 0.22691 0.0
N2071 N 0.61238 0.54019 0.25871 0.0
C2072 C 0.58793 0.52695 0.23202 0.0
C2073 C 0.5964 0.53793 0.2191 0.0
H2074 H 0.63319 0.56116 0.25253 0.0
H2075 H 0.5895 0.51985 0.26152 0.0
C2076 C 0.67045 0.50372 0.31977 0.0
N2077 N 0.66317 0.50821 0.30222 0.0
C2078 C 0.67994 0.48879 0.32009 0.0
C2079 C 0.67394 0.48302 0.28428 0.0
C2080 C 0.66452 0.49799 0.28468 0.0
C2081 C 0.68185 0.47825 0.30215 0.0
H2082 H 0.66876 0.51162 0.33358 0.0
H2083 H 0.65816 0.50124 0.27094 0.0
O2084 O 0.62653 0.56539 0.30577 0.0
O2085 O 0.65553 0.54812 0.32744 0.0
O2086 O 0.62404 0.52038 0.30107 0.0
O2087 O 0.65199 0.54609 0.28262 0.0
H2088 H 0.62928 0.59502 0.28602 0.0
H2089 H 0.59264 0.54778 0.3006 0.0
H2090 H 0.60381 0.60402 0.26557 0.0
H2091 H 0.56776 0.55774 0.28014 0.0
H2092 H 0.71581 0.55525 0.33306 0.0
H2093 H 0.66355 0.55816 0.36631 0.0
H2094 H 0.68539 0.5474 0.31292 0.0
H2095 H 0.69434 0.56568 0.3856 0.0
H2096 H 0.5826 0.55158 0.36589 0.0
H2097 H 0.62422 0.52211 0.38678 0.0
H2098 H 0.67907 0.61913 0.27436 0.0
H2099 H 0.7025 0.62199 0.3357 0.0
H2100 H 0.62544 0.49546 0.26978 0.0
H2101 H 0.59155 0.51341 0.30993 0.0
H2102 H 0.6 0.46969 0.25213 0.0
H2103 H 0.56665 0.48737 0.29152 0.0
H2104 H 0.64072 0.52175 0.249 0.0
H2105 H 0.68576 0.56274 0.28369 0.0
H2106 H 0.65902 0.51647 0.22281 0.0
H2107 H 0.70332 0.55658 0.25699 0.0
H2108 H 0.62014 0.55916 0.21771 0.0
H2109 H 0.57503 0.51741 0.22698 0.0
H2110 H 0.68546 0.48537 0.33424 0.0
H2111 H 0.67513 0.47541 0.27008 0.0
Tb2112 Tb 0.01688 0.01323 0.02233 0.0
Tb2113 Tb 0.0566 0.03391 0.04274 0.0
C2114 C 0.98375 1.00277 0.0164 0.0
C2115 C 0.97064 0.01426 0.02069 0.0
C2116 C 0.97643 0.03224 0.03291 0.0
C2117 C 0.96494 0.04502 0.03436 0.0
C2118 C 0.94761 0.04012 0.02332 0.0
C2119 C 0.9416 0.02182 0.01167 0.0
C2120 C 0.95313 1.00893 0.01032 0.0
C2121 C 0.04004 0.01105 0.99716 0.0
C2122 C 0.03117 0.05873 0.02236 0.0
C2123 C 0.08969 0.04453 0.04803 0.0
C2124 C 0.10265 0.03362 0.04185 0.0
C2125 C 0.09663 0.01674 0.0279 0.0
C2126 C 0.10788 1.00393 0.02483 0.0
C2127 C 0.12519 1.00776 0.03584 0.0
C2128 C 0.13153 0.02515 0.04901 0.0
C2129 C 0.12022 0.03803 0.05206 0.0
C2130 C 0.03369 0.03582 0.06819 0.0
C2131 C 0.04218 0.98839 0.04268 0.0
O2132 O 0.99403 0.9994 0.0319 0.0
O2133 O 0.99274 1.00865 1.0028 0.0
O2134 O 0.04287 0.01819 0.01523 0.0
O2135 O 0.02321 1.00313 0.99305 0.0
O2136 O 0.01729 0.04405 0.02044 0.0
O2137 O 0.0477 0.05763 0.02984 0.0
O2138 O 0.07905 0.04918 0.03365 0.0
O2139 O 0.08112 0.03715 0.0613 0.0
O2140 O 0.03062 0.02905 0.04997 0.0
O2141 O 0.05059 0.04347 0.07219 0.0
O2142 O 0.05614 1.00293 0.04413 0.0
O2143 O 0.02561 0.98963 0.03553 0.0
H2144 H 0.99007 0.03678 0.04063 0.0
H2145 H 0.96978 0.05896 0.04366 0.0
H2146 H 0.92831 0.01785 1.00291 0.0
H2147 H 0.94868 0.99524 1.00052 0.0
H2148 H 0.08294 0.01297 0.02018 0.0
H2149 H 0.10282 0.99064 0.01449 0.0
H2150 H 0.14481 0.02823 0.05777 0.0
H2151 H 0.12485 0.05084 0.06313 0.0
Tb2152 Tb 0.28803 0.76511 0.26046 0.0
Tb2153 Tb 0.28304 0.77941 0.3035 0.0
C2154 C 0.28437 0.75522 0.22414 0.0
C2155 C 0.29694 0.75835 0.21035 0.0
C2156 C 0.30625 0.77701 0.20959 0.0
C2157 C 0.31737 0.7799 0.19564 0.0
C2158 C 0.31968 0.76414 0.18245 0.0
C2159 C 0.31151 0.74532 0.18445 0.0
C2160 C 0.30008 0.74248 0.1982 0.0
C2161 C 0.31789 0.76625 0.28637 0.0
C2162 C 0.3023 0.81012 0.27805 0.0
C2163 C 0.28715 0.78939 0.3399 0.0
C2164 C 0.27526 0.78782 0.35466 0.0
C2165 C 0.27021 0.77027 0.36157 0.0
C2166 C 0.26127 0.76969 0.37768 0.0
C2167 C 0.25715 0.78665 0.38708 0.0
C2168 C 0.26051 0.80369 0.37875 0.0
C2169 C 0.26968 0.80433 0.36279 0.0
C2170 C 0.25322 0.77839 0.27771 0.0
C2171 C 0.26881 0.73444 0.2858 0.0
O2172 O 0.27933 0.77066 0.23213 0.0
O2173 O 0.28824 0.74376 0.23688 0.0
O2174 O 0.30325 0.77042 0.28944 0.0
O2175 O 0.31598 0.76134 0.26736 0.0
O2176 O 0.29783 0.79668 0.26188 0.0
O2177 O 0.29921 0.80578 0.2957 0.0
O2178 O 0.29091 0.77323 0.33178 0.0
O2179 O 0.28398 0.80107 0.32714 0.0
O2180 O 0.26781 0.77413 0.27456 0.0
O2181 O 0.25513 0.78325 0.29673 0.0
O2182 O 0.27351 0.74779 0.30203 0.0
O2183 O 0.27168 0.73884 0.26812 0.0
H2184 H 0.30446 0.78949 0.21923 0.0
H2185 H 0.32314 0.79465 0.1944 0.0
H2186 H 0.31323 0.73288 0.17473 0.0
H2187 H 0.29334 0.72793 0.19903 0.0
H2188 H 0.27407 0.7572 0.35538 0.0
H2189 H 0.25915 0.75632 0.38379 0.0
H2190 H 0.25731 0.81691 0.38555 0.0
H2191 H 0.27321 0.81798 0.35748 0.0
Tb2192 Tb 0.55553 0.0261 0.52655 0.0
Tb2193 Tb 0.51605 0.02172 0.53656 0.0
C2194 C 0.5884 0.02595 0.52784 0.0
C2195 C 0.60233 0.01406 0.53057 0.0
C2196 C 0.60832 1.00867 0.54893 0.0
C2197 C 0.62289 0.9993 0.55119 0.0
C2198 C 0.63189 0.99522 0.5352 0.0
C2199 C 0.6255 1.00022 0.51679 0.0
C2200 C 0.61102 0.00952 0.51455 0.0
C2201 C 0.53178 0.03088 0.4949 0.0
C2202 C 0.52967 0.98429 0.5206 0.0
C2203 C 0.48324 0.02226 0.53526 0.0
C2204 C 0.46947 0.03433 0.53195 0.0
C2205 C 0.46178 0.03679 0.5129 0.0
C2206 C 0.44742 0.04646 0.51036 0.0
C2207 C 0.4402 0.05372 0.52678 0.0
C2208 C 0.44811 0.05132 0.54578 0.0
C2209 C 0.46249 0.04187 0.5483 0.0
C2210 C 0.53982 0.01685 0.56819 0.0
C2211 C 0.54191 0.06349 0.54219 0.0
O2212 O 0.58162 0.03244 0.54314 0.0
O2213 O 0.5764 0.02072 0.51171 0.0
O2214 O 0.5292 0.02747 0.51208 0.0
O2215 O 0.54889 0.03238 0.49586 0.0
O2216 O 0.54613 0.9948 0.52298 0.0
O2217 O 0.51559 0.99186 0.52377 0.0
O2218 O 0.48983 0.01493 0.52017 0.0
O2219 O 0.49537 0.02794 0.55125 0.0
O2220 O 0.54239 0.02045 0.55106 0.0
O2221 O 0.5227 0.01526 0.56721 0.0
O2222 O 0.52541 0.05304 0.53955 0.0
O2223 O 0.55603 0.05585 0.53955 0.0
H2224 H 0.60205 0.01206 0.56165 0.0
H2225 H 0.62745 0.99581 0.56565 0.0
H2226 H 0.63175 0.99704 0.504 0.0
H2227 H 0.60684 0.01358 0.50025 0.0
H2228 H 0.46658 0.03095 0.49991 0.0
H2229 H 0.44198 0.04814 0.49548 0.0
H2230 H 0.44286 0.05616 0.55884 0.0
H2231 H 0.46782 0.03993 0.56316 0.0
Tb2232 Tb 0.26526 0.27764 0.77878 0.0
Tb2233 Tb 0.30592 0.27238 0.78414 0.0
C2234 C 0.23302 0.27795 0.78118 0.0
C2235 C 0.21927 0.27621 0.79432 0.0
C2236 C 0.21284 0.25881 0.80106 0.0
C2237 C 0.19823 0.25717 0.81128 0.0
C2238 C 0.18961 0.27281 0.81479 0.0
C2239 C 0.19644 0.29031 0.80849 0.0
C2240 C 0.21102 0.29195 0.79841 0.0
C2241 C 0.2897 0.3058 0.77166 0.0
C2242 C 0.28982 0.28502 0.82206 0.0
C2243 C 0.33865 0.28098 0.78188 0.0
C2244 C 0.3529 0.27681 0.77048 0.0
C2245 C 0.35221 0.27958 0.75053 0.0
C2246 C 0.36714 0.27908 0.74111 0.0
C2247 C 0.38319 0.27575 0.75132 0.0
C2248 C 0.38355 0.27221 0.77104 0.0
C2249 C 0.36867 0.27283 0.78048 0.0
C2250 C 0.28287 0.24034 0.78672 0.0
C2251 C 0.27993 0.2599 0.74166 0.0
O2252 O 0.23864 0.26242 0.7745 0.0
O2253 O 0.24582 0.29345 0.78531 0.0
O2254 O 0.29147 0.29526 0.78483 0.0
O2255 O 0.2733 0.30146 0.76242 0.0
O2256 O 0.27357 0.28045 0.81104 0.0
O2257 O 0.30469 0.28482 0.81441 0.0
O2258 O 0.32628 0.28896 0.77308 0.0
O2259 O 0.3323 0.26858 0.79306 0.0
O2260 O 0.28022 0.25652 0.78332 0.0
O2261 O 0.30008 0.24144 0.78841 0.0
O2262 O 0.29637 0.26431 0.75215 0.0
O2263 O 0.26547 0.26227 0.74938 0.0
H2264 H 0.21872 0.24631 0.79799 0.0
H2265 H 0.19329 0.24343 0.81578 0.0
H2266 H 0.1904 0.30277 0.81118 0.0
H2267 H 0.21555 0.30549 0.79328 0.0
H2268 H 0.34037 0.28289 0.74236 0.0
H2269 H 0.36625 0.2821 0.72603 0.0
H2270 H 0.39545 0.2692 0.77937 0.0
H2271 H 0.3697 0.27084 0.7959 0.0
Tb2272 Tb 0.03177 0.043 0.53622 0.0
Tb2273 Tb 0.03643 1.00161 0.52726 0.0
C2274 C 0.03087 0.07802 0.53895 0.0
C2275 C 0.02729 0.09146 0.52544 0.0
C2276 C 0.03401 0.0913 0.50757 0.0
C2277 C 0.0304 0.10464 0.4952 0.0
C2278 C 0.01986 0.11797 0.50051 0.0
C2279 C 0.0126 0.11744 0.51801 0.0
C2280 C 0.01639 0.10433 0.53044 0.0
C2281 C 1.00566 0.01607 0.54264 0.0
C2282 C 0.02328 0.02163 0.49133 0.0
C2283 C 0.02934 0.9657 0.52377 0.0
C2284 C 0.03667 0.95158 0.53395 0.0
C2285 C 0.02599 0.93329 0.53271 0.0
C2286 C 0.03142 0.92047 0.54474 0.0
C2287 C 0.04758 0.92593 0.55815 0.0
C2288 C 0.05866 0.94401 0.5588 0.0
C2289 C 0.05315 0.9569 0.5468 0.0
C2290 C 0.06745 0.0255 0.52721 0.0
C2291 C 0.04885 0.02471 0.57097 0.0
O2292 O 0.04566 0.07147 0.53865 0.0
O2293 O 0.01706 0.06463 0.53968 0.0
O2294 O 0.01402 0.01527 0.52815 0.0
O2295 O 0.01196 0.03244 0.55407 0.0
O2296 O 0.02578 0.03815 0.50362 0.0
O2297 O 0.02547 1.00531 0.49762 0.0
O2298 O 0.02178 0.97694 0.53494 0.0
O2299 O 0.03958 0.97507 0.513 0.0
O2300 O 0.05273 0.02948 0.5302 0.0
O2301 O 0.0651 1.0068 0.52467 0.0
O2302 O 0.04297 1.00756 0.55977 0.0
O2303 O 0.04813 0.041 0.56389 0.0
H2304 H 0.04219 0.08114 0.50333 0.0
H2305 H 0.03627 0.10489 0.48184 0.0
H2306 H 1.00415 0.12732 0.52222 0.0
H2307 H 0.01087 0.10427 0.54404 0.0
H2308 H 0.01313 0.92922 0.52302 0.0
H2309 H 0.02277 0.9065 0.54398 0.0
H2310 H 0.07108 0.9485 0.56924 0.0
H2311 H 0.06134 0.97123 0.5481 0.0
Tb2312 Tb 0.28986 0.75411 0.78357 0.0
Tb2313 Tb 0.28469 0.79598 0.79145 0.0
C2314 C 0.29338 0.72153 0.7682 0.0
C2315 C 0.30586 0.70821 0.77056 0.0
C2316 C 0.31798 0.70672 0.75733 0.0
C2317 C 0.32842 0.69265 0.75794 0.0
C2318 C 0.32689 0.67975 0.77175 0.0
C2319 C 0.31516 0.68162 0.78537 0.0
C2320 C 0.30472 0.69567 0.78476 0.0
C2321 C 0.27986 0.76445 0.81713 0.0
C2322 C 0.32144 0.7845 0.8088 0.0
C2323 C 0.2813 0.82907 0.80535 0.0
C2324 C 0.26831 0.84177 0.8025 0.0
C2325 C 0.25752 0.84492 0.81686 0.0
C2326 C 0.24662 0.85852 0.81545 0.0
C2327 C 0.24636 0.86927 0.79967 0.0
C2328 C 0.25671 0.86565 0.78497 0.0
C2329 C 0.26759 0.85207 0.78636 0.0
C2330 C 0.29416 0.7852 0.75785 0.0
C2331 C 0.2528 0.76525 0.7674 0.0
O2332 O 0.29914 0.73758 0.7615 0.0
O2333 O 0.28392 0.72412 0.7823 0.0
O2334 O 0.27508 0.76948 0.80081 0.0
O2335 O 0.2898 0.75171 0.81492 0.0
O2336 O 0.31657 0.76703 0.79828 0.0
O2337 O 0.31086 0.79722 0.80939 0.0
O2338 O 0.27649 0.8137 0.81356 0.0
O2339 O 0.29 0.82564 0.79074 0.0
O2340 O 0.29952 0.78066 0.77425 0.0
O2341 O 0.28351 0.79721 0.75978 0.0
O2342 O 0.25754 0.78217 0.77903 0.0
O2343 O 0.26398 0.75337 0.76502 0.0
H2344 H 0.31902 0.71605 0.74609 0.0
H2345 H 0.33719 0.69143 0.7471 0.0
H2346 H 0.31388 0.67205 0.79636 0.0
H2347 H 0.29546 0.69637 0.79513 0.0
H2348 H 0.2579 0.83729 0.82951 0.0
H2349 H 0.23892 0.86112 0.82712 0.0
H2350 H 0.25658 0.8735 0.77247 0.0
H2351 H 0.27573 0.85002 0.77502 0.0
Tb2352 Tb 0.51966 0.02265 0.01805 0.0
Tb2353 Tb 0.55265 0.02263 0.04563 0.0
C2354 C 0.48871 0.01498 0.99848 0.0
C2355 C 0.47069 0.0095 1.00289 0.0
C2356 C 0.46696 0.99626 0.01596 0.0
C2357 C 0.44939 0.98961 0.01828 0.0
C2358 C 0.43534 0.99634 0.00781 0.0
C2359 C 0.43933 0.01047 0.99568 0.0
C2360 C 0.45689 0.0169 0.99315 0.0
C2361 C 0.53988 0.05666 0.03146 0.0
C2362 C 0.51801 0.02322 0.06567 0.0
C2363 C 0.58366 0.03101 0.06507 0.0
C2364 C 0.60161 0.03551 0.06019 0.0
C2365 C 0.60523 0.04698 0.04553 0.0
C2366 C 0.62268 0.05243 0.04223 0.0
C2367 C 0.63675 0.04625 0.05332 0.0
C2368 C 0.63288 0.03395 0.06727 0.0
C2369 C 0.61543 0.02871 0.07074 0.0
C2370 C 0.53253 0.98845 0.03244 0.0
C2371 C 0.5542 0.02181 0.99792 0.0
O2372 O 0.49882 1.00223 1.00048 0.0
O2373 O 0.49721 0.03262 1.00572 0.0
O2374 O 0.53647 0.04294 0.04098 0.0
O2375 O 0.53104 0.05186 0.01354 0.0
O2376 O 0.50916 0.01976 0.04694 0.0
O2377 O 0.53578 0.02621 0.06882 0.0
O2378 O 0.57371 0.04376 0.06194 0.0
O2379 O 0.57493 0.0132 0.05919 0.0
O2380 O 0.53576 1.00213 0.02277 0.0
O2381 O 0.54157 0.99348 0.05027 0.0
O2382 O 0.56307 0.02505 0.01663 0.0
O2383 O 0.53645 0.01909 0.99481 0.0
H2384 H 0.47751 0.99054 0.02383 0.0
H2385 H 0.4468 0.97858 0.02758 0.0
H2386 H 0.42885 0.01626 0.98778 0.0
H2387 H 0.45963 0.0273 0.9832 0.0
H2388 H 0.59468 0.05222 0.03705 0.0
H2389 H 0.62519 0.06211 0.03155 0.0
H2390 H 0.64337 0.02866 0.07578 0.0
H2391 H 0.61277 0.01965 0.08193 0.0
Tb2392 Tb 0.27001 0.26079 0.27401 0.0
Tb2393 Tb 0.30297 0.28582 0.29189 0.0
C2394 C 0.23805 0.2437 0.26865 0.0
C2395 C 0.22234 0.25122 0.27293 0.0
C2396 C 0.2236 0.26461 0.29011 0.0
C2397 C 0.2089 0.27225 0.29396 0.0
C2398 C 0.1927 0.26677 0.28064 0.0
C2399 C 0.19148 0.2535 0.26335 0.0
C2400 C 0.20626 0.24579 0.25952 0.0
C2401 C 0.28787 0.27536 0.24746 0.0
C2402 C 0.26999 0.30677 0.28864 0.0
C2403 C 0.3348 0.30351 0.29775 0.0
C2404 C 0.35037 0.29769 0.29087 0.0
C2405 C 0.34849 0.28677 0.27199 0.0
C2406 C 0.36325 0.28134 0.2653 0.0
C2407 C 0.38007 0.28653 0.27745 0.0
C2408 C 0.38189 0.29691 0.29657 0.0
C2409 C 0.36707 0.30253 0.30323 0.0
C2410 C 0.28505 0.27107 0.31834 0.0
C2411 C 0.30298 0.23997 0.27679 0.0
O2412 O 0.24968 0.24313 0.28421 0.0
O2413 O 0.24561 0.25067 0.25456 0.0
O2414 O 0.28628 0.28407 0.26404 0.0
O2415 O 0.279 0.25768 0.24531 0.0
O2416 O 0.26069 0.28868 0.28273 0.0
O2417 O 0.28769 0.30949 0.29276 0.0
O2418 O 0.32258 0.3062 0.28378 0.0
O2419 O 0.32799 0.29356 0.31051 0.0
O2420 O 0.28677 0.26248 0.30178 0.0
O2421 O 0.29387 0.28876 0.32056 0.0
O2422 O 0.31227 0.25818 0.28185 0.0
O2423 O 0.28524 0.23713 0.27363 0.0
H2424 H 0.23593 0.26917 0.30066 0.0
H2425 H 0.21016 0.28218 0.30757 0.0
H2426 H 0.17916 0.24917 0.25276 0.0
H2427 H 0.20516 0.23568 0.24608 0.0
H2428 H 0.33562 0.28251 0.26234 0.0
H2429 H 0.36153 0.27304 0.25063 0.0
H2430 H 0.3948 0.30102 0.30613 0.0
H2431 H 0.36865 0.31071 0.31793 0.0
Tb2432 Tb 0.5318 0.54299 0.03586 0.0
Tb2433 Tb 0.53958 0.50585 0.02742 0.0
C2434 C 0.52862 0.57752 0.0381 0.0
C2435 C 0.5241 0.59068 0.02462 0.0
C2436 C 0.52855 0.58922 1.00553 0.0
C2437 C 0.52475 0.6027 0.9934 0.0
C2438 C 0.51641 0.6176 1.00027 0.0
C2439 C 0.51139 0.61846 0.01908 0.0
C2440 C 0.51526 0.60508 0.03119 0.0
C2441 C 0.50656 0.51526 0.04292 0.0
C2442 C 0.5228 0.52153 0.99121 0.0
C2443 C 0.54284 0.4714 0.02592 0.0
C2444 C 0.54514 0.45846 0.04036 0.0
C2445 C 0.53821 0.4606 0.05807 0.0
C2446 C 0.54034 0.44777 0.07145 0.0
C2447 C 0.5495 0.43282 0.06727 0.0
C2448 C 0.55675 0.43106 0.04974 0.0
C2449 C 0.55459 0.44385 0.03637 0.0
C2450 C 0.56483 0.5336 0.0204 0.0
C2451 C 0.54835 0.52729 0.072 0.0
O2452 O 0.5438 0.57201 0.03741 0.0
O2453 O 0.51562 0.56336 0.03911 0.0
O2454 O 0.51463 0.51464 0.02818 0.0
O2455 O 0.51256 0.53183 0.054 0.0
O2456 O 0.52638 0.53828 1.00317 0.0
O2457 O 0.52516 0.50563 0.99814 0.0
O2458 O 0.52741 0.47665 0.02348 0.0
O2459 O 0.55628 0.48577 0.02709 0.0
O2460 O 0.55678 0.53418 0.03517 0.0
O2461 O 0.55879 0.51704 0.00928 0.0
O2462 O 0.54426 0.51048 0.06013 0.0
O2463 O 0.54661 0.54326 0.06491 0.0
H2464 H 0.5353 0.57802 1.00023 0.0
H2465 H 0.5289 0.60187 0.979 0.0
H2466 H 0.50471 0.62966 0.02455 0.0
H2467 H 0.51159 0.60614 0.04583 0.0
H2468 H 0.53103 0.472 0.06144 0.0
H2469 H 0.53479 0.44945 0.085 0.0
H2470 H 0.56369 0.41949 0.04613 0.0
H2471 H 0.5601 0.44222 0.02279 0.0
Tb2472 Tb 0.78659 0.25343 0.27973 0.0
Tb2473 Tb 0.78689 0.29682 0.28626 0.0
C2474 C 0.78636 0.21905 0.26618 0.0
C2475 C 0.7992 0.20597 0.26652 0.0
C2476 C 0.80877 0.20347 0.25083 0.0
C2477 C 0.81984 0.18998 0.25042 0.0
C2478 C 0.82153 0.1787 0.26566 0.0
C2479 C 0.81224 0.18148 0.28154 0.0
C2480 C 0.80119 0.19494 0.28196 0.0
C2481 C 0.77934 0.2676 0.31371 0.0
C2482 C 0.8219 0.28115 0.30098 0.0
C2483 C 0.78748 0.3313 0.29969 0.0
C2484 C 0.77525 0.34493 0.29883 0.0
C2485 C 0.75883 0.34142 0.3057 0.0
C2486 C 0.7481 0.35527 0.30568 0.0
C2487 C 0.75353 0.37278 0.29865 0.0
C2488 C 0.7697 0.3759 0.29124 0.0
C2489 C 0.78046 0.36217 0.29143 0.0
C2490 C 0.79411 0.28247 0.25234 0.0
C2491 C 0.75137 0.26908 0.26546 0.0
O2492 O 0.78906 0.23331 0.25588 0.0
O2493 O 0.78137 0.22431 0.28308 0.0
O2494 O 0.7747 0.27223 0.29717 0.0
O2495 O 0.78764 0.25337 0.31158 0.0
O2496 O 0.81467 0.26403 0.29041 0.0
O2497 O 0.81286 0.29522 0.30318 0.0
O2498 O 0.7839 0.31699 0.30973 0.0
O2499 O 0.79282 0.326 0.28303 0.0
O2500 O 0.79881 0.27803 0.26893 0.0
O2501 O 0.78578 0.29669 0.25431 0.0
O2502 O 0.75882 0.28637 0.27556 0.0
O2503 O 0.7603 0.25488 0.2634 0.0
H2504 H 0.80749 0.21169 0.23868 0.0
H2505 H 0.827 0.18832 0.2381 0.0
H2506 H 0.81306 0.17283 0.29337 0.0
H2507 H 0.79389 0.19638 0.29419 0.0
H2508 H 0.75441 0.32816 0.31137 0.0
H2509 H 0.7358 0.35247 0.31163 0.0
H2510 H 0.7741 0.38899 0.28529 0.0
H2511 H 0.793 0.36511 0.28594 0.0
Tb2512 Tb 0.02003 0.52489 0.51821 0.0
Tb2513 Tb 0.05314 0.52476 0.54598 0.0
C2514 C 0.9893 0.51596 0.49816 0.0
C2515 C 0.97092 0.51204 0.50181 0.0
C2516 C 0.96643 0.50276 0.51775 0.0
C2517 C 0.94854 0.49659 0.51922 0.0
C2518 C 0.93497 0.49975 0.50483 0.0
C2519 C 0.93963 0.51024 0.48972 0.0
C2520 C 0.9575 0.51626 0.48819 0.0
C2521 C 0.03984 0.55897 0.53219 0.0
C2522 C 0.01837 0.52513 0.56591 0.0
C2523 C 0.0842 0.5336 0.5652 0.0
C2524 C 0.10185 0.53878 0.55976 0.0
C2525 C 0.1043 0.54923 0.54404 0.0
C2526 C 0.1214 0.55542 0.54004 0.0
C2527 C 0.13626 0.55114 0.55161 0.0
C2528 C 0.13363 0.53988 0.56671 0.0
C2529 C 0.11651 0.53378 0.57078 0.0
C2530 C 0.03335 0.49077 0.53137 0.0
C2531 C 0.05476 0.52432 0.49826 0.0
O2532 O 0.99888 0.5033 0.50298 0.0
O2533 O 0.99808 0.53384 0.50325 0.0
O2534 O 0.0367 0.54499 0.54148 0.0
O2535 O 0.03082 0.55439 0.51431 0.0
O2536 O 0.00957 0.52266 0.54721 0.0
O2537 O 0.0361 0.52732 0.56911 0.0
O2538 O 0.07386 0.54608 0.56256 0.0
O2539 O 0.07579 0.51569 0.55916 0.0
O2540 O 0.03667 0.50503 0.52259 0.0
O2541 O 0.04227 0.49493 0.54933 0.0
O2542 O 0.06358 0.52755 0.517 0.0
O2543 O 0.03699 0.52145 0.49511 0.0
H2544 H 0.97668 0.49948 0.52851 0.0
H2545 H 0.94537 0.48842 0.53094 0.0
H2546 H 0.92943 0.51317 0.47865 0.0
H2547 H 0.96082 0.52357 0.47592 0.0
H2548 H 0.0931 0.55317 0.53529 0.0
H2549 H 0.12301 0.56426 0.52846 0.0
H2550 H 0.14483 0.53613 0.57565 0.0
H2551 H 0.11476 0.52555 0.58281 0.0
Tb2552 Tb 0.7664 0.77596 0.27859 0.0
Tb2553 Tb 0.80547 0.77133 0.28438 0.0
C2554 C 0.73351 0.77304 0.28031 0.0
C2555 C 0.72008 0.77347 0.29386 0.0
C2556 C 0.71496 0.75794 0.30403 0.0
C2557 C 0.70035 0.75725 0.31418 0.0
C2558 C 0.6904 0.77203 0.31438 0.0
C2559 C 0.69596 0.78783 0.30472 0.0
C2560 C 0.71051 0.78849 0.29457 0.0
C2561 C 0.78996 0.80536 0.27225 0.0
C2562 C 0.79059 0.78564 0.32214 0.0
C2563 C 0.83834 0.77339 0.283 0.0
C2564 C 0.8521 0.77288 0.26997 0.0
C2565 C 0.85375 0.78461 0.25505 0.0
C2566 C 0.86847 0.78566 0.24499 0.0
C2567 C 0.88192 0.77515 0.24974 0.0
C2568 C 0.87983 0.76301 0.26424 0.0
C2569 C 0.86516 0.76192 0.27418 0.0
C2570 C 0.78172 0.74217 0.29084 0.0
C2571 C 0.78137 0.76201 0.24083 0.0
O2572 O 0.74159 0.75838 0.27916 0.0
O2573 O 0.7442 0.7893 0.27925 0.0
O2574 O 0.79206 0.79487 0.28545 0.0
O2575 O 0.77364 0.80038 0.26276 0.0
O2576 O 0.77442 0.78076 0.31107 0.0
O2577 O 0.8053 0.78509 0.3144 0.0
O2578 O 0.83061 0.78829 0.28407 0.0
O2579 O 0.82726 0.75726 0.28354 0.0
O2580 O 0.77986 0.75249 0.27748 0.0
O2581 O 0.79793 0.74724 0.3006 0.0
O2582 O 0.79755 0.76698 0.25188 0.0
O2583 O 0.76665 0.76235 0.24858 0.0
H2584 H 0.72184 0.74595 0.30362 0.0
H2585 H 0.69646 0.74473 0.32121 0.0
H2586 H 0.68894 0.79969 0.30478 0.0
H2587 H 0.71394 0.80055 0.28672 0.0
H2588 H 0.84398 0.79337 0.25154 0.0
H2589 H 0.86963 0.79525 0.23401 0.0
H2590 H 0.88968 0.75443 0.26809 0.0
H2591 H 0.8643 0.75287 0.28568 0.0
Tb2592 Tb 0.79053 0.26519 0.76417 0.0
Tb2593 Tb 0.78147 0.28108 0.79766 0.0
C2594 C 0.79675 0.2552 0.73015 0.0
C2595 C 0.80928 0.26207 0.71747 0.0
C2596 C 0.8138 0.28171 0.71589 0.0
C2597 C 0.82343 0.28742 0.70131 0.0
C2598 C 0.82871 0.27352 0.68828 0.0
C2599 C 0.82572 0.25415 0.69135 0.0
C2600 C 0.81593 0.24845 0.70581 0.0
C2601 C 0.8141 0.26324 0.79565 0.0
C2602 C 0.8045 0.31132 0.77797 0.0
C2603 C 0.77455 0.29063 0.83145 0.0
C2604 C 0.76233 0.28269 0.84403 0.0
C2605 C 0.76144 0.26387 0.8484 0.0
C2606 C 0.75185 0.25786 0.86291 0.0
C2607 C 0.74292 0.27054 0.87304 0.0
C2608 C 0.74233 0.28857 0.86703 0.0
C2609 C 0.75213 0.29466 0.85272 0.0
C2610 C 0.75809 0.28303 0.76605 0.0
C2611 C 0.76757 0.23511 0.78401 0.0
O2612 O 0.78497 0.26571 0.73371 0.0
O2613 O 0.80371 0.24907 0.74588 0.0
O2614 O 0.80755 0.27782 0.79239 0.0
O2615 O 0.80696 0.24926 0.78146 0.0
O2616 O 0.80097 0.29672 0.76297 0.0
O2617 O 0.79984 0.30768 0.79499 0.0
O2618 O 0.78746 0.28163 0.82829 0.0
O2619 O 0.76701 0.29592 0.81549 0.0
O2620 O 0.76451 0.26842 0.76951 0.0
O2621 O 0.76533 0.2971 0.78011 0.0
O2622 O 0.77179 0.24951 0.7992 0.0
O2623 O 0.77156 0.23899 0.76679 0.0
H2624 H 0.80896 0.29246 0.72503 0.0
H2625 H 0.82531 0.30243 0.69919 0.0
H2626 H 0.82977 0.24321 0.6816 0.0
H2627 H 0.81274 0.23326 0.70716 0.0
H2628 H 0.76896 0.25424 0.84153 0.0
H2629 H 0.75279 0.24394 0.8673 0.0
H2630 H 0.73539 0.29851 0.87442 0.0
H2631 H 0.75246 0.30912 0.84918 0.0
Tb2632 Tb 0.7691 0.7603 0.77574 0.0
Tb2633 Tb 0.80465 0.78745 0.79079 0.0
C2634 C 0.73973 0.74039 0.77846 0.0
C2635 C 0.72137 0.74311 0.77521 0.0
C2636 C 0.70867 0.73126 0.78321 0.0
C2637 C 0.69211 0.73603 0.78432 0.0
C2638 C 0.68804 0.75274 0.77737 0.0
C2639 C 0.70051 0.76402 0.7683 0.0
C2640 C 0.71715 0.75926 0.7673 0.0
C2641 C 0.77937 0.77708 0.74573 0.0
C2642 C 0.77008 0.80695 0.78681 0.0
C2643 C 0.83615 0.80542 0.79396 0.0
C2644 C 0.85249 0.79943 0.78936 0.0
C2645 C 0.86145 0.80836 0.77559 0.0
C2646 C 0.87603 0.80181 0.76951 0.0
C2647 C 0.8819 0.78629 0.77721 0.0
C2648 C 0.8732 0.77758 0.79133 0.0
C2649 C 0.8585 0.78403 0.79729 0.0
C2650 C 0.78817 0.77306 0.81836 0.0
C2651 C 0.80394 0.74099 0.77731 0.0
O2652 O 0.74999 0.75256 0.79326 0.0
O2653 O 0.74735 0.73803 0.76271 0.0
O2654 O 0.78741 0.77929 0.76339 0.0
O2655 O 0.76484 0.76423 0.7444 0.0
O2656 O 0.7605 0.78879 0.78289 0.0
O2657 O 0.78791 0.80992 0.78962 0.0
O2658 O 0.82388 0.80459 0.77853 0.0
O2659 O 0.82952 0.79874 0.80878 0.0
O2660 O 0.78903 0.76449 0.80147 0.0
O2661 O 0.79715 0.7907 0.82035 0.0
O2662 O 0.81349 0.7591 0.7831 0.0
O2663 O 0.78609 0.73804 0.77366 0.0
H2664 H 0.71193 0.71897 0.78969 0.0
H2665 H 0.68299 0.72726 0.79177 0.0
H2666 H 0.69767 0.77689 0.76269 0.0
H2667 H 0.72699 0.76869 0.76128 0.0
H2668 H 0.85692 0.82014 0.7692 0.0
H2669 H 0.88268 0.80884 0.75872 0.0
H2670 H 0.87745 0.76546 0.7973 0.0
H2671 H 0.85166 0.77669 0.80775 0.0
Tb2672 Tb 0.51697 0.51378 0.52139 0.0
Tb2673 Tb 0.5565 0.53479 0.54201 0.0
C2674 C 0.48395 0.50222 0.5158 0.0
C2675 C 0.47022 0.51212 0.52165 0.0
C2676 C 0.47532 0.52997 0.53416 0.0
C2677 C 0.46258 0.54069 0.53813 0.0
C2678 C 0.44465 0.53383 0.52934 0.0
C2679 C 0.43952 0.51582 0.51703 0.0
C2680 C 0.45231 0.50496 0.51323 0.0
C2681 C 0.54017 0.51191 0.49631 0.0
C2682 C 0.5309 0.55932 0.5214 0.0
C2683 C 0.58955 0.54594 0.54779 0.0
C2684 C 0.60294 0.5353 0.54225 0.0
C2685 C 0.59801 0.5199 0.52648 0.0
C2686 C 0.60921 0.507 0.52364 0.0
C2687 C 0.62523 0.50901 0.5369 0.0
C2688 C 0.63054 0.52495 0.55213 0.0
C2689 C 0.61939 0.53807 0.55479 0.0
C2690 C 0.5334 0.53645 0.56726 0.0
C2691 C 0.54264 0.48917 0.54177 0.0
O2692 O 0.49472 0.49809 0.53043 0.0
O2693 O 0.49245 0.5101 0.50273 0.0
O2694 O 0.54298 0.51898 0.5144 0.0
O2695 O 0.52335 0.50396 0.49209 0.0
O2696 O 0.51705 0.54461 0.51967 0.0
O2697 O 0.54745 0.55829 0.52886 0.0
O2698 O 0.57898 0.55016 0.53305 0.0
O2699 O 0.58087 0.53865 0.56101 0.0
O2700 O 0.53046 0.52961 0.54908 0.0
O2701 O 0.55023 0.54436 0.57133 0.0
O2702 O 0.55645 0.50396 0.54368 0.0
O2703 O 0.52608 0.49016 0.53429 0.0
H2704 H 0.48923 0.53596 0.54026 0.0
H2705 H 0.4669 0.55477 0.54728 0.0
H2706 H 0.42573 0.5104 0.51003 0.0
H2707 H 0.44833 0.49134 0.50325 0.0
H2708 H 0.58508 0.51717 0.51704 0.0
H2709 H 0.60495 0.49495 0.51162 0.0
H2710 H 0.64275 0.52665 0.56267 0.0
H2711 H 0.6231 0.54965 0.56731 0.0
Tb2712 Tb 0.05632 0.52646 0.02702 0.0
Tb2713 Tb 0.01696 0.52136 0.03723 0.0
C2714 C 0.08927 0.52664 0.02849 0.0
C2715 C 0.10315 0.51465 0.03102 0.0
C2716 C 0.10731 0.50664 0.04834 0.0
C2717 C 0.12152 0.4967 0.05044 0.0
C2718 C 0.13194 0.49461 0.03534 0.0
C2719 C 0.12754 0.50258 0.01804 0.0
C2720 C 0.11337 0.51236 0.01593 0.0
C2721 C 0.0324 0.53125 0.99557 0.0
C2722 C 0.03098 0.48434 0.02064 0.0
C2723 C 0.98399 0.52073 0.03605 0.0
C2724 C 0.9691 0.53087 0.03132 0.0
C2725 C 0.97142 0.54895 0.02477 0.0
C2726 C 0.95692 0.55843 0.02186 0.0
C2727 C 0.93986 0.55003 0.02551 0.0
C2728 C 0.93782 0.53192 0.03207 0.0
C2729 C 0.95218 0.52252 0.03487 0.0
C2730 C 0.04082 0.51659 0.06873 0.0
C2731 C 0.04226 0.56349 0.04288 0.0
O2732 O 0.0823 0.53264 0.04383 0.0
O2733 O 0.07744 0.52178 0.01221 0.0
O2734 O 0.02984 0.52751 0.01266 0.0
O2735 O 0.04954 0.53307 0.99651 0.0
O2736 O 0.04727 0.4951 0.02259 0.0
O2737 O 0.01689 0.49158 0.02448 0.0
O2738 O 0.9906 0.51253 0.02145 0.0
O2739 O 0.99631 0.52887 0.05131 0.0
O2740 O 0.04338 0.52033 0.05163 0.0
O2741 O 0.02368 0.51478 0.06777 0.0
O2742 O 0.02591 0.55273 0.04047 0.0
O2743 O 0.05647 0.55619 0.03975 0.0
H2744 H 0.09975 0.50815 0.0603 0.0
H2745 H 0.12426 0.49061 0.06391 0.0
H2746 H 0.13533 0.50177 0.0062 0.0
H2747 H 0.11064 0.51857 1.00252 0.0
H2748 H 0.9844 0.55579 0.02209 0.0
H2749 H 0.95907 0.57227 0.01666 0.0
H2750 H 0.92515 0.5251 0.03554 0.0
H2751 H 0.95013 0.50874 0.04022 0.0
H2752 H 0.99161 0.15988 0.98511 0.0
H2753 H 0.04343 0.16352 0.96737 0.0
H2754 H 0.99497 0.13051 0.99871 0.0
H2755 H 0.04676 0.13429 0.9809 0.0
H2756 H 0.05623 0.09152 0.0225 0.0
H2757 H 0.05212 0.12098 0.00979 0.0
H2758 H 0.99558 0.09734 0.99237 0.0
H2759 H 0.99966 0.06797 1.00574 0.0
C2760 C 1.00369 0.15443 0.98391 0.0
C2761 C 0.01727 0.16445 0.97512 0.0
C2762 C 1.00562 0.13744 0.99177 0.0
C2763 C 0.02121 0.12983 0.99115 0.0
C2764 C 0.0347 0.13976 0.9822 0.0
C2765 C 0.03278 0.1567 0.97436 0.0
C2766 C 0.04286 0.09257 0.01611 0.0
C2767 C 0.02829 0.07719 0.01525 0.0
C2768 C 0.04051 0.10953 0.00857 0.0
C2769 C 0.02351 0.11175 0.99977 0.0
C2770 C 0.00887 0.09644 0.99915 0.0
C2771 C 0.01123 0.07945 0.00677 0.0
H2772 H 0.16098 0.7671 0.18139 0.0
H2773 H 0.15352 0.80854 0.22926 0.0
H2774 H 0.18886 0.76369 0.20086 0.0
H2775 H 0.18182 0.8061 0.24803 0.0
H2776 H 0.22167 0.78324 0.28751 0.0
H2777 H 0.19449 0.78557 0.26656 0.0
H2778 H 0.21951 0.77706 0.21481 0.0
H2779 H 0.2469 0.77402 0.23621 0.0
C2780 C 0.1652 0.77555 0.19603 0.0
C2781 C 0.15462 0.788 0.20364 0.0
C2782 C 0.18145 0.77377 0.20714 0.0
C2783 C 0.18776 0.78444 0.22625 0.0
C2784 C 0.1774 0.79724 0.23362 0.0
C2785 C 0.16114 0.79891 0.2226 0.0
C2786 C 0.22145 0.78176 0.27164 0.0
C2787 C 0.23661 0.77852 0.26363 0.0
C2788 C 0.20579 0.78332 0.25954 0.0
C2789 C 0.20464 0.78191 0.23884 0.0
C2790 C 0.21972 0.7782 0.23064 0.0
C2791 C 0.23551 0.77649 0.24291 0.0
H2792 H 0.54633 0.86628 0.49252 0.0
H2793 H 0.49113 0.86258 0.46701 0.0
H2794 H 0.54862 0.89996 0.50594 0.0
H2795 H 0.49382 0.89668 0.47919 0.0
H2796 H 0.4994 0.95566 0.51707 0.0
H2797 H 0.4961 0.92101 0.50612 0.0
H2798 H 0.5511 0.93043 0.49708 0.0
H2799 H 0.55453 0.96458 0.5087 0.0
C2800 C 0.53461 0.87254 0.48977 0.0
C2801 C 0.51855 0.86143 0.47852 0.0
C2802 C 0.53602 0.89212 0.49724 0.0
C2803 C 0.52148 0.90138 0.49356 0.0
C2804 C 0.50532 0.89021 0.48257 0.0
C2805 C 0.50386 0.87057 0.47526 0.0
C2806 C 0.5108 0.95029 0.51285 0.0
C2807 C 0.52726 0.96304 0.51394 0.0
C2808 C 0.50889 0.93036 0.5064 0.0
C2809 C 0.52335 0.92263 0.50072 0.0
C2810 C 0.53972 0.93552 0.50172 0.0
C2811 C 0.54166 0.9553 0.50829 0.0
H2812 H 0.46365 0.25677 0.6767 0.0
H2813 H 0.48862 0.30891 0.71744 0.0
H2814 H 0.43734 0.25426 0.69257 0.0
H2815 H 0.46184 0.30706 0.73251 0.0
H2816 H 0.41848 0.28926 0.76864 0.0
H2817 H 0.44502 0.29068 0.75328 0.0
H2818 H 0.41192 0.26704 0.69647 0.0
H2819 H 0.38543 0.26441 0.71209 0.0
C2820 C 0.46362 0.26773 0.68906 0.0
C2821 C 0.4785 0.28302 0.69573 0.0
C2822 C 0.4483 0.26644 0.69802 0.0
C2823 C 0.44725 0.28045 0.71391 0.0
C2824 C 0.4621 0.29579 0.72053 0.0
C2825 C 0.47746 0.29702 0.71164 0.0
C2826 C 0.41679 0.28401 0.75293 0.0
C2827 C 0.39961 0.27661 0.74174 0.0
C2828 C 0.43211 0.28515 0.74399 0.0
C2829 C 0.43081 0.27907 0.7235 0.0
C2830 C 0.41363 0.27167 0.7123 0.0
C2831 C 0.39831 0.2704 0.72127 0.0
H2832 H 0.05268 0.86085 0.65536 0.0
H2833 H 0.07533 0.8307 0.60996 0.0
H2834 H 0.05174 0.88731 0.6362 0.0
H2835 H 0.0745 0.85723 0.59093 0.0
H2836 H 0.07922 0.91461 0.5673 0.0
H2837 H 0.08595 0.89266 0.59075 0.0
H2838 H 0.03236 0.8871 0.60414 0.0
H2839 H 0.02586 0.90921 0.58124 0.0
C2840 C 0.05765 0.86002 0.64142 0.0
C2841 C 0.06391 0.84373 0.63401 0.0
C2842 C 0.05716 0.87512 0.63054 0.0
C2843 C 0.06296 0.87413 0.61214 0.0
C2844 C 0.07016 0.85836 0.60523 0.0
C2845 C 0.07062 0.84322 0.61609 0.0
C2846 C 0.06904 0.9088 0.57548 0.0
C2847 C 0.05202 0.91331 0.57247 0.0
C2848 C 0.07284 0.89628 0.58875 0.0
C2849 C 0.05969 0.8884 0.59923 0.0
C2850 C 0.0428 0.89327 0.59644 0.0
C2851 C 0.03901 0.90566 0.58318 0.0
H2852 H 0.43588 0.83228 0.83161 0.0
H2853 H 0.42763 0.76987 0.82485 0.0
H2854 H 0.40388 0.83018 0.82924 0.0
H2855 H 0.39577 0.76777 0.82032 0.0
H2856 H 0.34147 0.76606 0.8321 0.0
H2857 H 0.37398 0.77225 0.83922 0.0
H2858 H 0.37618 0.82193 0.80854 0.0
H2859 H 0.34365 0.8164 0.80291 0.0
C2860 C 0.42728 0.81811 0.82935 0.0
C2861 C 0.43445 0.80127 0.82865 0.0
C2862 C 0.40888 0.81691 0.82777 0.0
C2863 C 0.39724 0.79882 0.82502 0.0
C2864 C 0.40435 0.78199 0.82313 0.0
C2865 C 0.42271 0.78319 0.8252 0.0
C2866 C 0.34903 0.77868 0.82759 0.0
C2867 C 0.34031 0.79087 0.81718 0.0
C2868 C 0.3676 0.78206 0.83129 0.0
C2869 C 0.37772 0.79728 0.82395 0.0
C2870 C 0.36887 0.81016 0.81453 0.0
C2871 C 0.35025 0.80707 0.81134 0.0
H2872 H 0.52731 0.16782 0.0776 0.0
H2873 H 0.57391 0.16101 0.11696 0.0
H2874 H 0.52844 0.13833 0.05618 0.0
H2875 H 0.5758 0.13252 0.09483 0.0
H2876 H 0.55295 0.06836 0.07038 0.0
H2877 H 0.55779 0.10071 0.08845 0.0
H2878 H 0.54473 0.12251 0.03352 0.0
H2879 H 0.53956 0.08968 0.01531 0.0
C2880 C 0.53793 0.16021 0.08152 0.0
C2881 C 0.55044 0.16669 0.09903 0.0
C2882 C 0.53876 0.14353 0.06908 0.0
C2883 C 0.55222 0.13317 0.07387 0.0
C2884 C 0.56518 0.14014 0.09089 0.0
C2885 C 0.56421 0.15661 0.10344 0.0
C2886 C 0.55161 0.0801 0.06207 0.0
C2887 C 0.54593 0.07661 0.04147 0.0
C2888 C 0.55441 0.09868 0.07243 0.0
C2889 C 0.55163 0.11413 0.06237 0.0
C2890 C 0.54681 0.11079 0.04162 0.0
C2891 C 0.544 0.0921 0.03121 0.0
H2892 H 0.12482 0.31404 0.35117 0.0
H2893 H 0.08783 0.28639 0.29793 0.0
H2894 H 0.14974 0.308 0.33491 0.0
H2895 H 0.11275 0.28029 0.28171 0.0
H2896 H 0.15847 0.24673 0.27614 0.0
H2897 H 0.13322 0.25813 0.28738 0.0
H2898 H 0.16629 0.31499 0.30767 0.0
H2899 H 0.19159 0.30364 0.29617 0.0
C2900 C 0.12206 0.30713 0.33584 0.0
C2901 C 0.10444 0.30051 0.32585 0.0
C2902 C 0.1363 0.30367 0.32654 0.0
C2903 C 0.13309 0.29355 0.30713 0.0
C2904 C 0.11553 0.28787 0.29679 0.0
C2905 C 0.10131 0.29135 0.30606 0.0
C2906 C 0.16024 0.26178 0.28254 0.0
C2907 C 0.17698 0.27427 0.28539 0.0
C2908 C 0.1458 0.26831 0.28898 0.0
C2909 C 0.14787 0.28743 0.2984 0.0
C2910 C 0.16444 0.30012 0.30063 0.0
C2911 C 0.17887 0.29362 0.2941 0.0
H2912 H 0.95539 0.02082 0.14939 0.0
H2913 H 1.00365 1.00683 0.17866 0.0
H2914 H 0.96967 0.02655 0.12061 0.0
H2915 H 0.01764 0.01192 0.14973 0.0
H2916 H 0.04485 0.04586 0.10745 0.0
H2917 H 0.02898 0.03925 0.13448 0.0
H2918 H 0.9817 0.01097 0.09249 0.0
H2919 H 0.99785 0.01781 0.06516 0.0
C2920 C 0.96902 0.01891 0.14971 0.0
C2921 C 0.97836 0.01343 0.16651 0.0
C2922 C 0.97713 0.02199 0.13307 0.0
C2923 C 0.99485 0.01982 0.13282 0.0
C2924 C 1.00405 0.014 0.14946 0.0
C2925 C 0.99594 0.01085 0.16602 0.0
C2926 C 0.03102 0.03829 0.10383 0.0
C2927 C 0.02265 0.03233 0.08395 0.0
C2928 C 0.02195 0.03434 0.11944 0.0
C2929 C 1.0041 0.02433 0.11577 0.0
C2930 C 0.99546 0.01873 0.09589 0.0
C2931 C 1.0047 0.02259 0.08014 0.0
H2932 H 0.2729 0.75304 0.503 0.0
H2933 H 0.3152 0.76285 0.46837 0.0
H2934 H 0.25411 0.7682 0.48029 0.0
H2935 H 0.29673 0.77826 0.44611 0.0
H2936 H 0.27189 0.81554 0.41777 0.0
H2937 H 0.27936 0.81016 0.45154 0.0
H2938 H 0.24469 0.75385 0.43753 0.0
H2939 H 0.23646 0.75937 0.40354 0.0
C2940 C 0.27826 0.75893 0.49083 0.0
C2941 C 0.29539 0.75708 0.48728 0.0
C2942 C 0.26758 0.7675 0.47799 0.0
C2943 C 0.27425 0.77465 0.46194 0.0
C2944 C 0.29159 0.77323 0.4588 0.0
C2945 C 0.30206 0.76437 0.47133 0.0
C2946 C 0.26475 0.80257 0.42204 0.0
C2947 C 0.25408 0.78751 0.40779 0.0
C2948 C 0.26912 0.79954 0.44147 0.0
C2949 C 0.26288 0.7815 0.44674 0.0
C2950 C 0.24963 0.76789 0.43362 0.0
C2951 C 0.24509 0.77099 0.41415 0.0
H2952 H 0.58047 0.98557 0.68489 0.0
H2953 H 0.62454 0.02856 0.67602 0.0
H2954 H 0.56448 0.98742 0.6525 0.0
H2955 H 0.60805 0.03111 0.64385 0.0
H2956 H 0.57796 0.0237 0.57821 0.0
H2957 H 0.59603 0.0207 0.60976 0.0
H2958 H 0.54762 1.00318 0.63306 0.0
H2959 H 0.53007 1.00564 0.6019 0.0
C2960 C 0.58696 0.99549 0.67621 0.0
C2961 C 0.60418 1.00688 0.68393 0.0
C2962 C 0.57747 0.9968 0.65733 0.0
C2963 C 0.58451 0.00965 0.64488 0.0
C2964 C 0.60182 0.0209 0.65243 0.0
C2965 C 0.61134 0.01958 0.67137 0.0
C2966 C 0.57119 0.01897 0.58995 0.0
C2967 C 0.55229 0.01475 0.58694 0.0
C2968 C 0.58163 0.01739 0.60839 0.0
C2969 C 0.57365 0.01146 0.62465 0.0
C2970 C 0.55476 1.00733 0.62135 0.0
C2971 C 0.54448 1.00891 0.60315 0.0
H2972 H 0.32001 0.32113 0.95122 0.0
H2973 H 0.26876 0.33636 0.93515 0.0
H2974 H 0.31887 0.30698 0.9169 0.0
H2975 H 0.26815 0.32336 0.90078 0.0
H2976 H 0.26264 0.28318 0.84362 0.0
H2977 H 0.26412 0.29493 0.87847 0.0
H2978 H 0.32133 0.31412 0.88467 0.0
H2979 H 0.31988 0.30167 0.84972 0.0
C2980 C 0.30845 0.32142 0.94044 0.0
C2981 C 0.29447 0.32994 0.94617 0.0
C2982 C 0.30792 0.31353 0.92061 0.0
C2983 C 0.29343 0.31396 0.90585 0.0
C2984 C 0.27945 0.32242 0.91162 0.0
C2985 C 0.27992 0.33019 0.93143 0.0
C2986 C 0.27559 0.28979 0.85239 0.0
C2987 C 0.29114 0.29145 0.84374 0.0
C2988 C 0.27643 0.29672 0.87246 0.0
C2989 C 0.29282 0.30573 0.88457 0.0
C2990 C 0.30845 0.30711 0.87599 0.0
C2991 C 0.30763 0.30002 0.85586 0.0
H2992 H 0.97331 0.98368 0.36826 0.0
H2993 H 0.99567 0.04408 0.36937 0.0
H2994 H 0.98476 0.98671 0.40334 0.0
H2995 H 0.0082 0.04682 0.40435 0.0
H2996 H 0.012 0.04997 0.47201 0.0
H2997 H 1.00095 0.04792 0.43667 0.0
H2998 H 0.01064 0.98987 0.42638 0.0
H2999 H 0.02094 0.99166 0.46156 0.0
C3000 C 0.98071 0.99764 0.37594 0.0
C3001 C 0.98338 0.01365 0.36582 0.0
C3002 C 0.98756 0.99932 0.39612 0.0
C3003 C 0.99752 0.01702 0.40687 0.0
C3004 C 1.00042 0.033 0.39673 0.0
C3005 C 0.99344 0.03135 0.37651 0.0
C3006 C 0.01177 0.03679 0.46218 0.0
C3007 C 0.01726 0.02096 0.46972 0.0
C3008 C 1.00552 0.03563 0.44184 0.0
C3009 C 1.00473 0.01866 0.42851 0.0
C3010 C 0.01061 1.00302 0.43611 0.0
C3011 C 0.01667 1.00411 0.45639 0.0
H3012 H 0.33802 0.72503 0.66866 0.0
H3013 H 0.32341 0.77241 0.64124 0.0
H3014 H 0.33102 0.73901 0.69994 0.0
H3015 H 0.31722 0.7872 0.67279 0.0
H3016 H 0.28096 0.78809 0.72007 0.0
H3017 H 0.29348 0.77914 0.69054 0.0
H3018 H 0.3377 0.76404 0.72722 0.0
H3019 H 0.32463 0.77203 0.75643 0.0
C3020 C 0.33398 0.73887 0.66971 0.0
C3021 C 0.33131 0.74787 0.65296 0.0
C3022 C 0.33 0.74692 0.68753 0.0
C3023 C 0.32345 0.76415 0.68874 0.0
C3024 C 0.32195 0.77375 0.67215 0.0
C3025 C 0.32569 0.76551 0.65426 0.0
C3026 C 0.29337 0.7829 0.72166 0.0
C3027 C 0.3018 0.78052 0.74024 0.0
C3028 C 0.30066 0.77798 0.70489 0.0
C3029 C 0.31663 0.77096 0.70662 0.0
C3030 C 0.32527 0.76915 0.72541 0.0
C3031 C 0.31781 0.77373 0.74209 0.0
H3032 H 0.63009 0.03545 0.90963 0.0
H3033 H 0.58708 0.98903 0.8799 0.0
H3034 H 0.61513 0.03828 0.93845 0.0
H3035 H 0.5723 0.99159 0.90888 0.0
H3036 H 0.5403 0.00962 0.95779 0.0
H3037 H 0.55545 1.00695 0.92908 0.0
H3038 H 0.60632 0.02783 0.96743 0.0
H3039 H 0.591 0.03053 0.99621 0.0
C3040 C 0.61741 0.02577 0.90896 0.0
C3041 C 0.61016 0.01196 0.89165 0.0
C3042 C 0.60875 0.02729 0.92595 0.0
C3043 C 0.59212 0.01525 0.92674 0.0
C3044 C 0.58485 1.00148 0.90943 0.0
C3045 C 0.5936 0.99983 0.89252 0.0
C3046 C 0.55474 0.01372 0.96029 0.0
C3047 C 0.56413 0.0204 0.97988 0.0
C3048 C 0.56362 0.01202 0.94353 0.0
C3049 C 0.58249 0.01707 0.94519 0.0
C3050 C 0.59188 0.02387 0.96485 0.0
C3051 C 0.58298 0.02537 0.98168 0.0
H3052 H 0.32216 0.35367 0.16422 0.0
H3053 H 0.27872 0.30991 0.13001 0.0
H3054 H 0.31996 0.33737 0.1931 0.0
H3055 H 0.27587 0.29428 0.15909 0.0
H3056 H 0.28472 0.25916 0.20874 0.0
H3057 H 0.28881 0.2753 0.18008 0.0
H3058 H 0.30287 0.3306 0.21826 0.0
H3059 H 0.29917 0.31423 0.24702 0.0
C3060 C 0.31214 0.34057 0.16275 0.0
C3061 C 0.30065 0.33324 0.14452 0.0
C3062 C 0.3107 0.33131 0.17951 0.0
C3063 C 0.29772 0.31438 0.17867 0.0
C3064 C 0.28624 0.30707 0.16045 0.0
C3065 C 0.28771 0.31628 0.1437 0.0
C3066 C 0.28886 0.27475 0.21106 0.0
C3067 C 0.29167 0.28534 0.23024 0.0
C3068 C 0.29104 0.2841 0.19453 0.0
C3069 C 0.29606 0.3044 0.1966 0.0
C3070 C 0.29919 0.31497 0.21592 0.0
C3071 C 0.29701 0.30558 0.23249 0.0
H3072 H 0.17353 0.91014 0.05542 0.0
H3073 H 0.1944 0.931 1.00537 0.0
H3074 H 0.15737 0.93662 0.05824 0.0
H3075 H 0.17794 0.9571 0.00787 0.0
H3076 H 0.16033 0.01206 0.03234 0.0
H3077 H 0.17809 0.98686 0.0317 0.0
H3078 H 0.13162 0.94476 0.03678 0.0
H3079 H 0.11408 0.96991 0.03798 0.0
C3080 C 0.17464 0.92041 0.04509 0.0
C3081 C 0.18496 0.91854 0.03008 0.0
C3082 C 0.16538 0.93542 0.04662 0.0
C3083 C 0.16648 0.94874 0.03323 0.0
C3084 C 0.17705 0.94704 0.01843 0.0
C3085 C 0.18624 0.93203 0.01687 0.0
C3086 C 0.15403 0.99741 0.03339 0.0
C3087 C 0.1359 0.99277 0.03499 0.0
C3088 C 0.16409 0.98307 0.03294 0.0
C3089 C 0.15612 0.96401 0.03422 0.0
C3090 C 0.13804 0.95943 0.03597 0.0
C3091 C 0.128 0.97372 0.03638 0.0
H3092 H 0.6697 0.61337 0.04323 0.0
H3093 H 0.66506 0.58329 0.98368 0.0
H3094 H 0.64053 0.59537 0.04562 0.0
H3095 H 0.6352 0.56698 0.98528 0.0
H3096 H 0.58894 0.52471 0.99757 0.0
H3097 H 0.61819 0.54296 0.99615 0.0
H3098 H 0.61008 0.58918 0.0388 0.0
H3099 H 0.58101 0.56985 0.04117 0.0
C3100 C 0.66259 0.60298 0.03055 0.0
C3101 C 0.6703 0.59988 0.0133 0.0
C3102 C 0.64546 0.59281 0.0318 0.0
C3103 C 0.63511 0.57937 0.01573 0.0
C3104 C 0.64262 0.57669 0.99832 0.0
C3105 C 0.65988 0.58651 0.99722 0.0
C3106 C 0.59337 0.53878 0.00668 0.0
C3107 C 0.58253 0.54578 0.01946 0.0
C3108 C 0.61025 0.54949 1.00572 0.0
C3109 C 0.61686 0.56793 0.01714 0.0
C3110 C 0.60586 0.57502 0.02989 0.0
C3111 C 0.58901 0.56401 0.03117 0.0
H3112 H 0.67419 0.44363 0.27712 0.0
H3113 H 0.71249 0.4769 0.32692 0.0
H3114 H 0.69149 0.41829 0.27613 0.0
H3115 H 0.72908 0.45099 0.32679 0.0
H3116 H 0.76554 0.41189 0.30774 0.0
H3117 H 0.74806 0.43695 0.30807 0.0
H3118 H 0.69941 0.3933 0.29321 0.0
H3119 H 0.71699 0.36818 0.29148 0.0
C3120 C 0.68628 0.44555 0.28789 0.0
C3121 C 0.69199 0.46239 0.30204 0.0
C3122 C 0.69606 0.43086 0.2875 0.0
C3123 C 0.71169 0.43258 0.30137 0.0
C3124 C 0.71725 0.4493 0.31569 0.0
C3125 C 0.70758 0.46405 0.31595 0.0
C3126 C 0.75112 0.4076 0.30422 0.0
C3127 C 0.74269 0.38799 0.29943 0.0
C3128 C 0.74107 0.422 0.30474 0.0
C3129 C 0.72231 0.41717 0.30076 0.0
C3130 C 0.71384 0.39755 0.29613 0.0
C3131 C 0.72392 0.38312 0.29541 0.0
H3132 H 0.82657 0.45283 0.52236 0.0
H3133 H 0.84272 0.40958 0.48289 0.0
H3134 H 0.85475 0.475 0.52275 0.0
H3135 H 0.87062 0.43185 0.48303 0.0
H3136 H 0.91091 0.48131 0.47239 0.0
H3137 H 0.88107 0.46273 0.47151 0.0
H3138 H 0.88715 0.47693 0.53521 0.0
H3139 H 0.91688 0.49633 0.53606 0.0
C3140 C 0.83612 0.44806 0.51378 0.0
C3141 C 0.83241 0.42947 0.50254 0.0
C3142 C 0.85219 0.46076 0.514 0.0
C3143 C 0.86474 0.45514 0.50284 0.0
C3144 C 0.86099 0.43665 0.49148 0.0
C3145 C 0.845 0.42393 0.49136 0.0
C3146 C 0.90573 0.48093 0.48616 0.0
C3147 C 0.91621 0.4903 0.50431 0.0
C3148 C 0.88874 0.47007 0.48567 0.0
C3149 C 0.88194 0.46826 0.5033 0.0
C3150 C 0.89209 0.4782 0.52139 0.0
C3151 C 0.90912 0.48913 0.52189 0.0
H3152 H 0.33075 0.12123 0.25737 0.0
H3153 H 0.38049 0.15823 0.28673 0.0
H3154 H 0.31658 0.14888 0.25795 0.0
H3155 H 0.36608 0.18575 0.28817 0.0
H3156 H 0.33965 0.23877 0.28233 0.0
H3157 H 0.35436 0.21112 0.28082 0.0
H3158 H 0.30276 0.17252 0.26737 0.0
H3159 H 0.28832 0.20024 0.26841 0.0
C3160 C 0.33897 0.1351 0.26405 0.0
C3161 C 0.35732 0.13644 0.27194 0.0
C3162 C 0.33051 0.15148 0.26461 0.0
C3163 C 0.33964 0.17057 0.27321 0.0
C3164 C 0.35798 0.17192 0.28113 0.0
C3165 C 0.36647 0.15556 0.28048 0.0
C3166 C 0.33134 0.22441 0.27892 0.0
C3167 C 0.31248 0.22237 0.2754 0.0
C3168 C 0.33992 0.20811 0.27817 0.0
C3169 C 0.33026 0.18857 0.27393 0.0
C3170 C 0.31133 0.1867 0.27043 0.0
C3171 C 0.30279 0.20298 0.27112 0.0
H3172 H 0.34716 0.10265 0.54731 0.0
H3173 H 0.34883 0.10558 0.48544 0.0
H3174 H 0.37371 0.08838 0.54969 0.0
H3175 H 0.37558 0.09153 0.48788 0.0
H3176 H 0.41162 0.04632 0.49572 0.0
H3177 H 0.38541 0.06105 0.49248 0.0
H3178 H 0.4058 0.09712 0.5491 0.0
H3179 H 0.43226 0.08303 0.55212 0.0
C3180 C 0.35313 0.10019 0.53417 0.0
C3181 C 0.34575 0.10529 0.51617 0.0
C3182 C 0.3685 0.09216 0.53558 0.0
C3183 C 0.3769 0.0888 0.51899 0.0
C3184 C 0.36945 0.09375 0.50094 0.0
C3185 C 0.35417 0.10198 0.49958 0.0
C3186 C 0.41077 0.05762 0.50738 0.0
C3187 C 0.42427 0.06327 0.52427 0.0
C3188 C 0.39561 0.06604 0.50553 0.0
C3189 C 0.39334 0.08021 0.52059 0.0
C3190 C 0.40687 0.08601 0.53735 0.0
C3191 C 0.42211 0.0778 0.5391 0.0
H3192 H 0.68566 0.65416 0.28747 0.0
H3193 H 0.72848 0.63284 0.31925 0.0
H3194 H 0.70662 0.68335 0.28485 0.0
H3195 H 0.74964 0.66164 0.31605 0.0
H3196 H 0.78194 0.72239 0.32215 0.0
H3197 H 0.7601 0.69449 0.32638 0.0
H3198 H 0.72969 0.69582 0.26897 0.0
H3199 H 0.75122 0.72418 0.2653 0.0
C3200 C 0.69961 0.65564 0.29376 0.0
C3201 C 0.70537 0.64113 0.30357 0.0
C3202 C 0.7117 0.67239 0.29219 0.0
C3203 C 0.72997 0.67501 0.30017 0.0
C3204 C 0.73568 0.66046 0.31003 0.0
C3205 C 0.72354 0.64383 0.31182 0.0
C3206 C 0.77051 0.71673 0.31053 0.0
C3207 C 0.76824 0.72547 0.29346 0.0
C3208 C 0.75801 0.70061 0.31284 0.0
C3209 C 0.74302 0.69267 0.298 0.0
C3210 C 0.7408 0.7016 0.28093 0.0
C3211 C 0.75321 0.71785 0.27874 0.0
H3212 H 0.83526 0.43936 0.78683 0.0
H3213 H 0.87215 0.41875 0.75189 0.0
H3214 H 0.82182 0.4063 0.78884 0.0
H3215 H 0.85829 0.3856 0.75361 0.0
H3216 H 0.82027 0.32521 0.74692 0.0
H3217 H 0.83418 0.35843 0.74427 0.0
H3218 H 0.82342 0.37795 0.80228 0.0
H3219 H 0.80948 0.34496 0.80474 0.0
C3220 C 0.84082 0.42803 0.77963 0.0
C3221 C 0.85525 0.43269 0.76922 0.0
C3222 C 0.83289 0.40864 0.78079 0.0
C3223 C 0.83872 0.3926 0.77148 0.0
C3224 C 0.85297 0.39713 0.76088 0.0
C3225 C 0.86104 0.41656 0.75986 0.0
C3226 C 0.82083 0.33654 0.75914 0.0
C3227 C 0.81354 0.33192 0.77605 0.0
C3228 C 0.829 0.35584 0.75769 0.0
C3229 C 0.83012 0.37155 0.77299 0.0
C3230 C 0.8228 0.36679 0.78988 0.0
C3231 C 0.8148 0.34754 0.79139 0.0
H3232 H 0.0782 0.90083 0.10934 0.0
H3233 H 0.0319 0.86913 0.06778 0.0
H3234 H 0.07518 0.93015 0.09557 0.0
H3235 H 0.02901 0.89828 0.05383 0.0
H3236 H 0.01671 0.95679 0.04497 0.0
H3237 H 0.02055 0.92762 0.05828 0.0
H3238 H 0.0778 0.94829 0.06988 0.0
H3239 H 0.07381 0.97803 0.0572 0.0
C3240 C 0.06747 0.89996 0.0971 0.0
C3241 C 0.05526 0.88235 0.08987 0.0
C3242 C 0.06574 0.91693 0.08911 0.0
C3243 C 0.05176 0.91693 0.07351 0.0
C3244 C 0.03972 0.89924 0.06611 0.0
C3245 C 0.04141 0.88233 0.07415 0.0
C3246 C 0.03017 0.95517 0.05025 0.0
C3247 C 0.04494 0.96993 0.04987 0.0
C3248 C 0.03241 0.93821 0.05784 0.0
C3249 C 0.04953 0.93522 0.06522 0.0
C3250 C 0.06435 0.94996 0.06468 0.0
C3251 C 0.06209 0.96705 0.05719 0.0
H3252 H 0.92617 0.28656 0.85488 0.0
H3253 H 0.90344 0.23039 0.8678 0.0
H3254 H 0.89704 0.28883 0.83736 0.0
H3255 H 0.87427 0.23312 0.85127 0.0
H3256 H 0.82925 0.23244 0.80086 0.0
H3257 H 0.85801 0.23146 0.81965 0.0
H3258 H 0.86708 0.29298 0.83942 0.0
H3259 H 0.8381 0.29394 0.81985 0.0
C3260 C 0.91503 0.27464 0.85403 0.0
C3261 C 0.91745 0.2582 0.8628 0.0
C3262 C 0.89815 0.2761 0.84417 0.0
C3263 C 0.88307 0.26115 0.84269 0.0
C3264 C 0.88547 0.24486 0.8517 0.0
C3265 C 0.90231 0.24339 0.8615 0.0
C3266 C 0.83729 0.2458 0.80929 0.0
C3267 C 0.83128 0.26326 0.80879 0.0
C3268 C 0.85386 0.24522 0.82026 0.0
C3269 C 0.8651 0.2621 0.83129 0.0
C3270 C 0.85899 0.27966 0.831 0.0
C3271 C 0.84227 0.28022 0.81993 0.0
H3272 H 0.568 0.17912 0.61073 0.0
H3273 H 0.53651 0.18621 0.55597 0.0
H3274 H 0.56618 0.1454 0.59768 0.0
H3275 H 0.53404 0.15217 0.54351 0.0
H3276 H 0.51653 0.08567 0.5391 0.0
H3277 H 0.51984 0.12009 0.55063 0.0
H3278 H 0.57606 0.1242 0.57133 0.0
H3279 H 0.57277 0.08958 0.55968 0.0
C3280 C 0.56085 0.17374 0.59584 0.0
C3281 C 0.55249 0.18586 0.58452 0.0
C3282 C 0.55974 0.15422 0.5884 0.0
C3283 C 0.54997 0.146 0.56954 0.0
C3284 C 0.54154 0.15795 0.5582 0.0
C3285 C 0.54289 0.17757 0.56548 0.0
C3286 C 0.52965 0.09388 0.54603 0.0
C3287 C 0.54438 0.08477 0.54844 0.0
C3288 C 0.53155 0.11369 0.55255 0.0
C3289 C 0.54821 0.12498 0.56194 0.0
C3290 C 0.563 0.11592 0.5643 0.0
C3291 C 0.56114 0.09609 0.55749 0.0
H3292 H 0.59308 0.79149 0.35889 0.0
H3293 H 0.60066 0.73694 0.37632 0.0
H3294 H 0.6202 0.794 0.34438 0.0
H3295 H 0.62731 0.73899 0.36091 0.0
H3296 H 0.68429 0.75739 0.34863 0.0
H3297 H 0.65756 0.75514 0.36395 0.0
H3298 H 0.63235 0.78129 0.31723 0.0
H3299 H 0.65899 0.78352 0.30195 0.0
C3300 C 0.6005 0.77999 0.35967 0.0
C3301 C 0.59451 0.764 0.36889 0.0
C3302 C 0.61602 0.78132 0.35107 0.0
C3303 C 0.62609 0.76668 0.35133 0.0
C3304 C 0.62012 0.75069 0.36054 0.0
C3305 C 0.6046 0.74937 0.36918 0.0
C3306 C 0.67302 0.76255 0.34151 0.0
C3307 C 0.674 0.77073 0.32402 0.0
C3308 C 0.6576 0.76124 0.35033 0.0
C3309 C 0.64264 0.76806 0.34194 0.0
C3310 C 0.64363 0.7762 0.32443 0.0
C3311 C 0.65902 0.7775 0.31562 0.0
H3312 H 0.04129 0.22383 0.4559 0.0
H3313 H 0.99583 0.19195 0.41304 0.0
H3314 H 0.03947 0.19702 0.47463 0.0
H3315 H 0.99357 0.16525 0.4323 0.0
H3316 H 0.01302 0.11468 0.46015 0.0
H3317 H 0.01176 0.14095 0.44069 0.0
H3318 H 0.0191 0.18159 0.49472 0.0
H3319 H 0.02141 0.15572 0.51412 0.0
C3320 C 0.03093 0.21104 0.45052 0.0
C3321 C 0.01877 0.20978 0.43304 0.0
C3322 C 0.02974 0.19585 0.46134 0.0
C3323 C 0.01631 0.17923 0.45489 0.0
C3324 C 1.00408 0.17795 0.43744 0.0
C3325 C 1.00528 0.1932 0.42657 0.0
C3326 C 0.01438 0.12925 0.46779 0.0
C3327 C 0.01739 0.13324 0.48858 0.0
C3328 C 0.01343 0.14417 0.4567 0.0
C3329 C 0.01543 0.16318 0.46631 0.0
C3330 C 0.01775 0.16703 0.48704 0.0
C3331 C 0.01884 0.1522 0.4981 0.0
H3332 H 0.63793 0.21712 0.23214 0.0
H3333 H 0.64165 0.27891 0.24243 0.0
H3334 H 0.67038 0.2219 0.24152 0.0
H3335 H 0.67384 0.28381 0.25096 0.0
H3336 H 0.72858 0.28758 0.28245 0.0
H3337 H 0.69642 0.28026 0.27563 0.0
H3338 H 0.69743 0.23348 0.22955 0.0
H3339 H 0.73015 0.24024 0.23732 0.0
C3340 C 0.64573 0.23168 0.23659 0.0
C3341 C 0.63739 0.24765 0.23688 0.0
C3342 C 0.66425 0.23444 0.24173 0.0
C3343 C 0.67468 0.25322 0.24699 0.0
C3344 C 0.6662 0.26913 0.24744 0.0
C3345 C 0.64774 0.26635 0.24259 0.0
C3346 C 0.72202 0.27581 0.27072 0.0
C3347 C 0.73185 0.26472 0.26007 0.0
C3348 C 0.70353 0.27162 0.26681 0.0
C3349 C 0.69435 0.2565 0.25185 0.0
C3350 C 0.70415 0.24516 0.2413 0.0
C3351 C 0.72282 0.24913 0.24554 0.0
H3352 H 0.49729 0.87799 0.95457 0.0
H3353 H 0.55478 0.88949 0.97227 0.0
H3354 H 0.49578 0.90606 0.97797 0.0
H3355 H 0.55296 0.91682 0.99636 0.0
H3356 H 0.54016 0.95664 0.0472 0.0
H3357 H 0.53708 0.92442 0.02827 0.0
H3358 H 0.51089 0.94304 0.97661 0.0
H3359 H 0.51475 0.9753 0.99504 0.0
C3360 C 0.50957 0.88637 0.96351 0.0
C3361 C 0.5262 0.88165 0.96136 0.0
C3362 C 0.50863 0.90223 0.97702 0.0
C3363 C 0.52423 0.9133 0.98891 0.0
C3364 C 0.54074 0.90817 0.98749 0.0
C3365 C 0.54175 0.89254 0.97372 0.0
C3366 C 0.53331 0.95367 0.03197 0.0
C3367 C 0.52744 0.96835 0.02262 0.0
C3368 C 0.53164 0.93534 0.02119 0.0
C3369 C 0.52366 0.93143 1.00117 0.0
C3370 C 0.51682 0.94574 0.99217 0.0
C3371 C 0.51892 0.96416 1.00276 0.0
H3372 H 0.98691 0.77704 0.75698 0.0
H3373 H 0.95291 0.73396 0.71089 0.0
H3374 H 0.96077 0.78293 0.77101 0.0
H3375 H 0.92681 0.73942 0.72531 0.0
H3376 H 0.88632 0.77785 0.73903 0.0
H3377 H 0.91183 0.76747 0.72711 0.0
H3378 H 0.93642 0.7675 0.78749 0.0
H3379 H 0.91098 0.77834 0.79946 0.0
C3380 C 0.97386 0.76867 0.75004 0.0
C3381 C 0.97185 0.75516 0.73281 0.0
C3382 C 0.95896 0.77189 0.75816 0.0
C3383 C 0.94185 0.76165 0.74916 0.0
C3384 C 0.9399 0.7476 0.73239 0.0
C3385 C 0.95481 0.74435 0.72427 0.0
C3386 C 0.8972 0.77562 0.74972 0.0
C3387 C 0.89685 0.77899 0.77012 0.0
C3388 C 0.91166 0.76948 0.74291 0.0
C3389 C 0.926 0.76665 0.75642 0.0
C3390 C 0.92551 0.76968 0.77683 0.0
C3391 C 0.91098 0.77574 0.78364 0.0
H3392 H 0.11897 0.0389 0.9186 0.0
H3393 H 0.06661 0.02737 0.88243 0.0
H3394 H 0.10529 0.03207 0.9475 0.0
H3395 H 0.05299 0.02129 0.91135 0.0
H3396 H 0.0338 0.9912 0.96021 0.0
H3397 H 0.04932 0.9974 0.93267 0.0
H3398 H 0.08719 0.04415 0.97081 0.0
H3399 H 0.07138 0.03783 0.99842 0.0
C3400 C 0.10455 0.03492 0.91677 0.0
C3401 C 0.09395 0.03366 0.89805 0.0
C3402 C 0.09669 0.0312 0.93343 0.0
C3403 C 0.07801 0.026 0.93183 0.0
C3404 C 0.06743 0.02495 0.91316 0.0
C3405 C 0.07526 0.0287 0.89655 0.0
C3406 C 0.04562 1.00263 0.96286 0.0
C3407 C 0.05153 0.01381 0.98173 0.0
C3408 C 0.05443 1.00633 0.94695 0.0
C3409 C 0.06946 0.02142 0.94935 0.0
C3410 C 0.07576 0.03228 0.9684 0.0
C3411 C 0.06681 0.02858 0.98437 0.0
H3412 H 0.80124 0.29316 0.56999 0.0
H3413 H 0.80181 0.34173 0.61454 0.0
H3414 H 0.82059 0.28025 0.59387 0.0
H3415 H 0.82068 0.32881 0.63843 0.0
H3416 H 0.85074 0.30595 0.68154 0.0
H3417 H 0.84792 0.31912 0.6505 0.0
H3418 H 0.81273 0.26563 0.62142 0.0
H3419 H 0.81568 0.2526 0.65193 0.0
C3420 C 0.80565 0.3011 0.58486 0.0
C3421 C 0.79987 0.31819 0.59066 0.0
C3422 C 0.81683 0.29385 0.59842 0.0
C3423 C 0.82219 0.30351 0.61799 0.0
C3424 C 0.81717 0.32121 0.62336 0.0
C3425 C 0.80615 0.32852 0.60977 0.0
C3426 C 0.84308 0.29678 0.66825 0.0
C3427 C 0.83311 0.27847 0.66922 0.0
C3428 C 0.84143 0.3043 0.65053 0.0
C3429 C 0.82971 0.2936 0.63372 0.0
C3430 C 0.82191 0.27427 0.63405 0.0
C3431 C 0.82362 0.26674 0.65168 0.0
H3432 H 0.44944 0.05037 0.39618 0.0
H3433 H 0.48927 0.02765 0.36786 0.0
H3434 H 0.46581 0.04811 0.42859 0.0
H3435 H 0.50489 0.02445 0.39985 0.0
H3436 H 0.54118 0.03627 0.45933 0.0
H3437 H 0.52368 0.03885 0.42823 0.0
H3438 H 0.47591 0.03124 0.45459 0.0
H3439 H 0.49405 0.02908 0.48649 0.0
C3440 C 0.46165 0.0449 0.39657 0.0
C3441 C 0.46766 0.03931 0.37857 0.0
C3442 C 0.47107 0.04334 0.41551 0.0
C3443 C 0.4871 0.03618 0.4176 0.0
C3444 C 0.49297 0.03044 0.39959 0.0
C3445 C 0.48362 0.03202 0.38076 0.0
C3446 C 0.52692 0.0351 0.45875 0.0
C3447 C 0.51931 0.03236 0.47593 0.0
C3448 C 0.51664 0.03641 0.44047 0.0
C3449 C 0.49794 0.03501 0.43803 0.0
C3450 C 0.49017 0.03249 0.45534 0.0
C3451 C 0.50062 0.03112 0.47386 0.0
H3452 H 0.74775 0.7186 0.11344 0.0
H3453 H 0.80314 0.71436 0.12608 0.0
H3454 H 0.74921 0.73299 0.14772 0.0
H3455 H 0.80453 0.72789 0.16053 0.0
H3456 H 0.80762 0.76669 0.2181 0.0
H3457 H 0.80578 0.75453 0.18325 0.0
H3458 H 0.75018 0.72807 0.18011 0.0
H3459 H 0.75188 0.74127 0.21479 0.0
C3460 C 0.76023 0.7206 0.12361 0.0
C3461 C 0.77533 0.71535 0.11693 0.0
C3462 C 0.76107 0.72878 0.14339 0.0
C3463 C 0.777 0.7317 0.15723 0.0
C3464 C 0.7921 0.72638 0.15045 0.0
C3465 C 0.79131 0.71849 0.1306 0.0
C3466 C 0.79495 0.75839 0.20993 0.0
C3467 C 0.7799 0.755 0.21929 0.0
C3468 C 0.79391 0.75119 0.18987 0.0
C3469 C 0.77785 0.74006 0.17857 0.0
C3470 C 0.76274 0.73681 0.188 0.0
C3471 C 0.76372 0.7443 0.20803 0.0
H3472 H 0.07994 1.00218 0.69172 0.0
H3473 H 0.09294 0.06443 0.69601 0.0
H3474 H 0.07029 0.9994 0.65644 0.0
H3475 H 0.08114 0.06174 0.6613 0.0
H3476 H 0.0739 0.0534 0.59479 0.0
H3477 H 0.08525 0.05551 0.62984 0.0
H3478 H 0.04957 1.00125 0.6308 0.0
H3479 H 0.0395 0.9986 0.59537 0.0
C3480 C 0.08069 0.01536 0.6853 0.0
C3481 C 0.08743 0.03355 0.69714 0.0
C3482 C 0.07472 0.01376 0.66488 0.0
C3483 C 0.07479 0.03031 0.65557 0.0
C3484 C 0.08115 0.04851 0.6675 0.0
C3485 C 0.08759 0.05009 0.6878 0.0
C3486 C 0.06863 0.04187 0.60254 0.0
C3487 C 0.05589 0.02578 0.59231 0.0
C3488 C 0.07499 0.04315 0.62281 0.0
C3489 C 0.06835 0.02865 0.63364 0.0
C3490 C 0.05545 0.01259 0.62323 0.0
C3491 C 0.04951 0.01107 0.60282 0.0
H3492 H 0.72919 0.3198 0.40267 0.0
H3493 H 0.72986 0.2628 0.41771 0.0
H3494 H 0.73938 0.31073 0.37189 0.0
H3495 H 0.73947 0.2533 0.38635 0.0
H3496 H 0.78487 0.25661 0.34999 0.0
H3497 H 0.76801 0.26212 0.37677 0.0
H3498 H 0.7353 0.29211 0.34029 0.0
H3499 H 0.75276 0.28755 0.31418 0.0
C3500 C 0.73065 0.305 0.39887 0.0
C3501 C 0.72881 0.29196 0.41245 0.0
C3502 C 0.73658 0.29981 0.38127 0.0
C3503 C 0.74053 0.28141 0.37693 0.0
C3504 C 0.73693 0.26774 0.38961 0.0
C3505 C 0.73121 0.27303 0.40736 0.0
C3506 C 0.77417 0.26451 0.3479 0.0
C3507 C 0.77015 0.27177 0.33025 0.0
C3508 C 0.76433 0.26739 0.36301 0.0
C3509 C 0.75018 0.27733 0.36048 0.0
C3510 C 0.74619 0.28453 0.34271 0.0
C3511 C 0.75621 0.28193 0.32779 0.0
H3512 H 0.48714 0.05142 0.18571 0.0
H3513 H 0.43914 0.01498 0.15129 0.0
H3514 H 0.50193 0.0489 0.15697 0.0
H3515 H 0.45424 0.01172 0.12278 0.0
H3516 H 0.48113 0.01751 0.06696 0.0
H3517 H 0.46572 0.02047 0.09554 0.0
H3518 H 0.5166 0.03486 0.1347 0.0
H3519 H 0.53181 0.0323 0.10613 0.0
C3520 C 0.47948 0.04281 0.17214 0.0
C3521 C 0.46147 0.03352 0.17172 0.0
C3522 C 0.48828 0.0411 0.15528 0.0
C3523 C 0.47975 0.02995 0.13671 0.0
C3524 C 0.46173 0.02068 0.13624 0.0
C3525 C 0.45292 0.02239 0.15311 0.0
C3526 C 0.48913 0.0213 0.08164 0.0
C3527 C 0.50801 0.02457 0.08366 0.0
C3528 C 0.48015 0.02294 0.0984 0.0
C3529 C 0.48948 0.02802 0.11828 0.0
C3530 C 0.50841 0.03124 0.12015 0.0
C3531 C 0.51734 0.02957 0.10343 0.0
H3532 H 0.79864 0.73486 0.93402 0.0
H3533 H 0.75104 0.69601 0.90134 0.0
H3534 H 0.8017 0.75098 0.90521 0.0
H3535 H 0.75368 0.7127 0.87273 0.0
H3536 H 0.77472 0.73449 0.81814 0.0
H3537 H 0.77073 0.71779 0.84665 0.0
H3538 H 0.78927 0.77218 0.88593 0.0
H3539 H 0.79346 0.78869 0.85749 0.0
C3540 C 0.7888 0.72968 0.92071 0.0
C3541 C 0.7746 0.71398 0.9202 0.0
C3542 C 0.79043 0.73915 0.90416 0.0
C3543 C 0.77791 0.73329 0.88647 0.0
C3544 C 0.76371 0.71759 0.88593 0.0
C3545 C 0.76206 0.70813 0.90252 0.0
C3546 C 0.77778 0.74289 0.83287 0.0
C3547 C 0.78436 0.76297 0.83549 0.0
C3548 C 0.77546 0.73331 0.84927 0.0
C3549 C 0.77974 0.74352 0.86878 0.0
C3550 C 0.78608 0.76368 0.87127 0.0
C3551 C 0.78833 0.77323 0.85489 0.0
H3552 H 0.89901 0.13927 0.00954 0.0
H3553 H 0.87655 0.11265 0.05591 0.0
H3554 H 0.91471 0.11283 1.00376 0.0
H3555 H 0.89297 0.08691 0.05092 0.0
H3556 H 0.91224 0.03477 0.02598 0.0
H3557 H 0.89392 0.05933 0.02683 0.0
H3558 H 0.93967 0.10258 0.02198 0.0
H3559 H 0.95764 0.07794 0.02003 0.0
C3560 C 0.89746 0.12778 0.01847 0.0
C3561 C 0.88678 0.12805 0.03329 0.0
C3562 C 0.9065 0.11278 0.01527 0.0
C3563 C 0.90501 0.09792 0.02692 0.0
C3564 C 0.89414 0.09808 0.04157 0.0
C3565 C 0.88502 0.11297 0.04466 0.0
C3566 C 0.91823 0.04948 0.02478 0.0
C3567 C 0.93632 0.05459 0.02318 0.0
C3568 C 0.90784 0.06351 0.02543 0.0
C3569 C 0.91546 0.08279 0.02456 0.0
C3570 C 0.93344 0.08776 0.02247 0.0
C3571 C 0.94377 0.07375 0.02167 0.0
H3572 H 0.40715 0.46347 0.08018 0.0
H3573 H 0.40198 0.43535 0.01975 0.0
H3574 H 0.43696 0.48012 0.07862 0.0
H3575 H 0.43104 0.45366 0.0175 0.0
H3576 H 0.4904 0.47925 0.02167 0.0
H3577 H 0.46151 0.45959 0.02411 0.0
H3578 H 0.45371 0.50478 0.06815 0.0
H3579 H 0.48281 0.5234 0.06659 0.0
C3580 C 0.4122 0.46076 0.06647 0.0
C3581 C 0.40166 0.44787 0.05011 0.0
C3582 C 0.42942 0.47077 0.06541 0.0
C3583 C 0.43673 0.4687 0.0478 0.0
C3584 C 0.42626 0.45572 0.03147 0.0
C3585 C 0.40918 0.44539 0.03266 0.0
C3586 C 0.48251 0.48479 0.03199 0.0
C3587 C 0.48902 0.50286 0.04401 0.0
C3588 C 0.46577 0.4736 0.0333 0.0
C3589 C 0.45491 0.48032 0.04644 0.0
C3590 C 0.46156 0.49856 0.05824 0.0
C3591 C 0.47834 0.50947 0.0572 0.0
H3592 H 0.36845 0.57629 0.78852 0.0
H3593 H 0.39497 0.5995 0.7429 0.0
H3594 H 0.35363 0.60356 0.79144 0.0
H3595 H 0.3791 0.62601 0.7448 0.0
H3596 H 0.36161 0.68127 0.76665 0.0
H3597 H 0.37772 0.65486 0.76526 0.0
H3598 H 0.3306 0.6158 0.77403 0.0
H3599 H 0.31464 0.64223 0.77568 0.0
C3600 C 0.37114 0.58719 0.7791 0.0
C3601 C 0.38294 0.58566 0.76547 0.0
C3602 C 0.36241 0.6027 0.78057 0.0
C3603 C 0.3651 0.61695 0.7683 0.0
C3604 C 0.37688 0.61543 0.75466 0.0
C3605 C 0.38577 0.60003 0.75334 0.0
C3606 C 0.35471 0.66702 0.76824 0.0
C3607 C 0.33689 0.66385 0.77137 0.0
C3608 C 0.36392 0.65187 0.76739 0.0
C3609 C 0.35546 0.63319 0.76954 0.0
C3610 C 0.33764 0.63006 0.77269 0.0
C3611 C 0.32848 0.64522 0.77363 0.0
H3612 H 0.22117 0.62944 0.51942 0.0
H3613 H 0.24883 0.60337 0.56455 0.0
H3614 H 0.19343 0.60698 0.5201 0.0
H3615 H 0.22118 0.58078 0.5651 0.0
H3616 H 0.16459 0.56724 0.58064 0.0
H3617 H 0.19366 0.58465 0.57687 0.0
H3618 H 0.17811 0.57288 0.51312 0.0
H3619 H 0.14887 0.55521 0.51688 0.0
C3620 C 0.22135 0.61867 0.52921 0.0
C3621 C 0.23702 0.6182 0.54208 0.0
C3622 C 0.20553 0.60579 0.52955 0.0
C3623 C 0.20519 0.59222 0.54272 0.0
C3624 C 0.22104 0.5913 0.55503 0.0
C3625 C 0.23681 0.60421 0.55474 0.0
C3626 C 0.1675 0.56791 0.5658 0.0
C3627 C 0.15448 0.55984 0.54905 0.0
C3628 C 0.18415 0.57792 0.56365 0.0
C3629 C 0.18811 0.58009 0.5447 0.0
C3630 C 0.1753 0.57157 0.5279 0.0
C3631 C 0.15861 0.56149 0.53005 0.0
H3632 H 0.74024 0.92442 0.81001 0.0
H3633 H 0.69349 0.88922 0.77207 0.0
H3634 H 0.75465 0.89676 0.80929 0.0
H3635 H 0.70819 0.86174 0.77072 0.0
H3636 H 0.73345 0.8081 0.77928 0.0
H3637 H 0.7186 0.83569 0.78056 0.0
H3638 H 0.76991 0.87446 0.7975 0.0
H3639 H 0.78458 0.84679 0.79649 0.0
C3640 C 0.73276 0.91091 0.80143 0.0
C3641 C 0.71519 0.91 0.79116 0.0
C3642 C 0.74136 0.89464 0.80081 0.0
C3643 C 0.73309 0.8761 0.78987 0.0
C3644 C 0.71551 0.87516 0.77962 0.0
C3645 C 0.70692 0.89145 0.78022 0.0
C3646 C 0.7417 0.82247 0.78337 0.0
C3647 C 0.76055 0.82456 0.78782 0.0
C3648 C 0.73303 0.83869 0.78399 0.0
C3649 C 0.74258 0.85822 0.78918 0.0
C3650 C 0.76148 0.8602 0.79367 0.0
C3651 C 0.77013 0.84398 0.79297 0.0
H3652 H 0.70606 0.91586 0.54686 0.0
H3653 H 0.73989 0.97065 0.54434 0.0
H3654 H 0.68006 0.93081 0.54399 0.0
H3655 H 0.71402 0.98581 0.54266 0.0
H3656 H 0.66225 1.00339 0.51866 0.0
H3657 H 0.68805 0.9882 0.5214 0.0
H3658 H 0.66482 0.9521 0.56082 0.0
H3659 H 0.63849 0.96667 0.55725 0.0
C3660 C 0.70804 0.9311 0.5457 0.0
C3661 C 0.72527 0.94193 0.54578 0.0
C3662 C 0.69305 0.93978 0.54435 0.0
C3663 C 0.69478 0.95961 0.54311 0.0
C3664 C 0.71201 0.97047 0.54332 0.0
C3665 C 0.72698 0.96178 0.54458 0.0
C3666 C 0.66247 0.99205 0.52775 0.0
C3667 C 0.64808 0.98622 0.53761 0.0
C3668 C 0.67749 0.98349 0.52956 0.0
C3669 C 0.6787 0.96886 0.54138 0.0
C3670 C 0.66437 0.96312 0.55138 0.0
C3671 C 0.6493 0.97168 0.54954 0.0
H3672 H 0.36672 0.41399 0.79161 0.0
H3673 H 0.3631 0.39381 0.72909 0.0
H3674 H 0.34558 0.38507 0.79438 0.0
H3675 H 0.34161 0.36503 0.73188 0.0
H3676 H 0.28909 0.32687 0.74132 0.0
H3677 H 0.31099 0.3552 0.73785 0.0
H3678 H 0.34311 0.35025 0.79293 0.0
H3679 H 0.32102 0.32219 0.79652 0.0
C3680 C 0.3616 0.40334 0.77846 0.0
C3681 C 0.3668 0.40634 0.76013 0.0
C3682 C 0.34941 0.38672 0.78007 0.0
C3683 C 0.34192 0.37267 0.76337 0.0
C3684 C 0.34696 0.37567 0.745 0.0
C3685 C 0.35928 0.39224 0.74341 0.0
C3686 C 0.30087 0.33184 0.75262 0.0
C3687 C 0.30338 0.32234 0.76914 0.0
C3688 C 0.31347 0.34799 0.7506 0.0
C3689 C 0.32881 0.35506 0.76514 0.0
C3690 C 0.33136 0.34537 0.78159 0.0
C3691 C 0.31878 0.3292 0.78356 0.0
H3692 H 0.21567 0.62481 0.32307 0.0
H3693 H 0.2229 0.60726 0.26317 0.0
H3694 H 0.22922 0.65797 0.3212 0.0
H3695 H 0.23696 0.64018 0.26136 0.0
H3696 H 0.25335 0.70386 0.2556 0.0
H3697 H 0.23911 0.67098 0.25757 0.0
H3698 H 0.25037 0.684 0.32155 0.0
H3699 H 0.2638 0.7172 0.31931 0.0
C3700 C 0.2203 0.62783 0.30947 0.0
C3701 C 0.21787 0.61271 0.2933 0.0
C3702 C 0.22829 0.64723 0.30836 0.0
C3703 C 0.23454 0.6527 0.29106 0.0
C3704 C 0.23222 0.63745 0.27496 0.0
C3705 C 0.22404 0.61811 0.27601 0.0
C3706 C 0.25277 0.69981 0.27016 0.0
C3707 C 0.2599 0.71368 0.28726 0.0
C3708 C 0.2446 0.68053 0.27136 0.0
C3709 C 0.24329 0.67386 0.28979 0.0
C3710 C 0.25053 0.68789 0.30691 0.0
C3711 C 0.2585 0.70726 0.30567 0.0
H3712 H 0.49268 0.66165 0.48547 0.0
H3713 H 0.54247 0.66224 0.46352 0.0
H3714 H 0.49582 0.63223 0.49907 0.0
H3715 H 0.54567 0.63313 0.47734 0.0
H3716 H 0.55614 0.59152 0.52019 0.0
H3717 H 0.5521 0.62084 0.50713 0.0
H3718 H 0.49524 0.59834 0.49208 0.0
H3719 H 0.49927 0.56898 0.50565 0.0
C3720 C 0.50425 0.65556 0.48334 0.0
C3721 C 0.51735 0.66477 0.47335 0.0
C3722 C 0.50607 0.63855 0.49123 0.0
C3723 C 0.52108 0.63015 0.48954 0.0
C3724 C 0.53408 0.63924 0.47943 0.0
C3725 C 0.53224 0.65614 0.47147 0.0
C3726 C 0.5427 0.59278 0.51425 0.0
C3727 C 0.52803 0.57771 0.51411 0.0
C3728 C 0.5404 0.60966 0.50652 0.0
C3729 C 0.52333 0.61215 0.4983 0.0
C3730 C 0.50859 0.59718 0.49841 0.0
C3731 C 0.51091 0.58022 0.50614 0.0
H3732 H 0.66844 0.31474 0.69295 0.0
H3733 H 0.64561 0.26009 0.70916 0.0
H3734 H 0.69769 0.31248 0.7098 0.0
H3735 H 0.67495 0.25784 0.72607 0.0
H3736 H 0.73366 0.25216 0.74275 0.0
H3737 H 0.70459 0.25307 0.72339 0.0
H3738 H 0.71449 0.31492 0.74141 0.0
H3739 H 0.74335 0.31396 0.76004 0.0
C3740 C 0.66953 0.30229 0.70025 0.0
C3741 C 0.65438 0.28768 0.69962 0.0
C3742 C 0.68645 0.30096 0.70997 0.0
C3743 C 0.68891 0.28498 0.7195 0.0
C3744 C 0.67381 0.27025 0.71872 0.0
C3745 C 0.65686 0.27158 0.70897 0.0
C3746 C 0.72965 0.26593 0.74233 0.0
C3747 C 0.7409 0.28299 0.75294 0.0
C3748 C 0.71289 0.26648 0.73137 0.0
C3749 C 0.70698 0.2841 0.73069 0.0
C3750 C 0.71848 0.30109 0.74115 0.0
C3751 C 0.7351 0.30053 0.75202 0.0
H3752 H 0.02988 0.37305 0.95165 0.0
H3753 H 0.01375 0.35767 0.00617 0.0
H3754 H 0.032 0.4069 0.96415 0.0
H3755 H 0.01495 0.39165 0.01802 0.0
H3756 H 1.00304 0.45449 0.02246 0.0
H3757 H 1.00014 0.41988 0.01066 0.0
H3758 H 0.05101 0.43193 0.99082 0.0
H3759 H 0.05397 0.46617 1.00257 0.0
C3760 C 0.0269 0.37669 0.96635 0.0
C3761 C 0.02179 0.36217 0.97782 0.0
C3762 C 0.02799 0.39627 0.97345 0.0
C3763 C 0.02367 0.40207 0.99211 0.0
C3764 C 0.01821 0.3877 1.00349 0.0
C3765 C 0.01745 0.36809 0.99656 0.0
C3766 C 0.01359 0.44973 0.01559 0.0
C3767 C 0.02876 0.46321 0.01356 0.0
C3768 C 0.01198 0.42988 0.00892 0.0
C3769 C 0.02533 0.42308 0.99973 0.0
C3770 C 0.04039 0.43661 0.99764 0.0
C3771 C 0.04213 0.45631 1.00452 0.0
H3772 H 0.96418 0.80026 0.175 0.0
H3773 H 0.98681 0.76844 0.2182 0.0
H3774 H 0.93776 0.79867 0.19049 0.0
H3775 H 0.95974 0.76526 0.23242 0.0
H3776 H 0.91659 0.7773 0.26721 0.0
H3777 H 0.94328 0.78032 0.2521 0.0
H3778 H 0.91133 0.78018 0.19522 0.0
H3779 H 0.88465 0.77777 0.21065 0.0
C3780 C 0.96365 0.7929 0.18778 0.0
C3781 C 0.97799 0.78456 0.19521 0.0
C3782 C 0.94818 0.79166 0.19652 0.0
C3783 C 0.94632 0.78179 0.21284 0.0
C3784 C 0.96058 0.77331 0.22015 0.0
C3785 C 0.97615 0.77483 0.21165 0.0
C3786 C 0.9152 0.77779 0.25144 0.0
C3787 C 0.89833 0.77716 0.24018 0.0
C3788 C 0.93061 0.77946 0.24267 0.0
C3789 C 0.92972 0.78037 0.22225 0.0
C3790 C 0.91281 0.77984 0.21101 0.0
C3791 C 0.89739 0.77838 0.21986 0.0
H3792 H 0.52906 0.32747 0.11407 0.0
H3793 H 0.5779 0.35851 0.15225 0.0
H3794 H 0.52835 0.35503 0.09669 0.0
H3795 H 0.57733 0.38596 0.1344 0.0
H3796 H 0.57884 0.41879 0.0802 0.0
H3797 H 0.58014 0.39281 0.10003 0.0
H3798 H 0.52429 0.38887 0.10428 0.0
H3799 H 0.52284 0.41436 0.08393 0.0
C3800 C 0.53952 0.34025 0.1189 0.0
C3801 C 0.55346 0.34091 0.13463 0.0
C3802 C 0.53913 0.35597 0.10892 0.0
C3803 C 0.55272 0.37254 0.11437 0.0
C3804 C 0.56676 0.37322 0.12992 0.0
C3805 C 0.56709 0.35753 0.14005 0.0
C3806 C 0.5669 0.41236 0.08545 0.0
C3807 C 0.55075 0.41846 0.08061 0.0
C3808 C 0.56768 0.39769 0.09689 0.0
C3809 C 0.5523 0.38893 0.10355 0.0
C3810 C 0.53627 0.39536 0.09911 0.0
C3811 C 0.53549 0.41002 0.0877 0.0
H3812 H 0.92877 0.29301 0.36191 0.0
H3813 H 0.93554 0.30027 0.30196 0.0
H3814 H 0.89694 0.29306 0.35352 0.0
H3815 H 0.90366 0.30042 0.2936 0.0
H3816 H 0.8455 0.26429 0.28368 0.0
H3817 H 0.87775 0.27125 0.29268 0.0
H3818 H 0.87478 0.31507 0.3407 0.0
H3819 H 0.84202 0.30825 0.33147 0.0
C3820 C 0.92341 0.29475 0.34699 0.0
C3821 C 0.93439 0.29631 0.33243 0.0
C3822 C 0.90534 0.29505 0.34231 0.0
C3823 C 0.89803 0.29676 0.32298 0.0
C3824 C 0.90913 0.29908 0.30862 0.0
C3825 C 0.92726 0.29898 0.31335 0.0
C3826 C 0.85165 0.27537 0.29624 0.0
C3827 C 0.84132 0.28555 0.30714 0.0
C3828 C 0.87011 0.27951 0.30117 0.0
C3829 C 0.8786 0.29376 0.31723 0.0
C3830 C 0.86837 0.30404 0.3282 0.0
C3831 C 0.84976 0.30013 0.323 0.0
H3832 H 0.02331 0.66688 0.58147 0.0
H3833 H 0.07358 0.66475 0.61697 0.0
H3834 H 0.02542 0.63825 0.55925 0.0
H3835 H 0.07569 0.63612 0.59475 0.0
H3836 H 0.05364 0.57063 0.57108 0.0
H3837 H 0.05814 0.60294 0.58946 0.0
H3838 H 0.04248 0.62457 0.53513 0.0
H3839 H 0.03802 0.59199 0.5166 0.0
C3840 C 0.03496 0.6605 0.58427 0.0
C3841 C 0.04815 0.66779 0.60104 0.0
C3842 C 0.03622 0.64419 0.57153 0.0
C3843 C 0.0507 0.63499 0.57537 0.0
C3844 C 0.06429 0.64284 0.59163 0.0
C3845 C 0.06304 0.65912 0.60436 0.0
C3846 C 0.05173 0.58237 0.56295 0.0
C3847 C 0.04557 0.5789 0.54242 0.0
C3848 C 0.05429 0.60088 0.57348 0.0
C3849 C 0.05063 0.61621 0.56368 0.0
C3850 C 0.04529 0.61292 0.543 0.0
C3851 C 0.04285 0.59437 0.53242 0.0
H3852 H 0.60159 0.80847 0.81026 0.0
H3853 H 0.60673 0.76175 0.84389 0.0
H3854 H 0.62528 0.80049 0.79254 0.0
H3855 H 0.6297 0.75348 0.8257 0.0
H3856 H 0.6548 0.73069 0.77542 0.0
H3857 H 0.62979 0.7407 0.78887 0.0
H3858 H 0.65929 0.79967 0.80249 0.0
H3859 H 0.68461 0.78968 0.78969 0.0
C3860 C 0.60781 0.79661 0.81394 0.0
C3861 C 0.60216 0.78558 0.82828 0.0
C3862 C 0.62121 0.79201 0.80372 0.0
C3863 C 0.62892 0.77619 0.80757 0.0
C3864 C 0.62357 0.76546 0.82217 0.0
C3865 C 0.61042 0.77019 0.83253 0.0
C3866 C 0.6559 0.74582 0.78109 0.0
C3867 C 0.67173 0.75935 0.78169 0.0
C3868 C 0.6416 0.75152 0.78871 0.0
C3869 C 0.64282 0.77087 0.7968 0.0
C3870 C 0.65809 0.78468 0.79617 0.0
C3871 C 0.67251 0.77894 0.78876 0.0
H3872 H 0.50362 0.50572 0.67693 0.0
H3873 H 0.4557 0.5214 0.64898 0.0
H3874 H 0.51743 0.5112 0.64789 0.0
H3875 H 0.46971 0.52715 0.61994 0.0
H3876 H 0.49814 0.51668 0.56405 0.0
H3877 H 0.4819 0.50978 0.59135 0.0
H3878 H 0.5282 0.54052 0.63344 0.0
H3879 H 0.54404 0.54763 0.60645 0.0
C3880 C 0.49595 0.51016 0.66453 0.0
C3881 C 0.47855 0.51316 0.66539 0.0
C3882 C 0.50393 0.51345 0.64792 0.0
C3883 C 0.4947 0.5197 0.63161 0.0
C3884 C 0.47713 0.52225 0.63219 0.0
C3885 C 0.46919 0.51913 0.64893 0.0
C3886 C 0.50468 0.52217 0.57904 0.0
C3887 C 0.52233 0.53282 0.58292 0.0
C3888 C 0.49543 0.51819 0.59474 0.0
C3889 C 0.50383 0.52443 0.61462 0.0
C3890 C 0.52139 0.53523 0.61837 0.0
C3891 C 0.53043 0.53943 0.60279 0.0
H3892 H 0.749 0.22033 0.98055 0.0
H3893 H 0.79688 0.25559 0.96809 0.0
H3894 H 0.73099 0.23291 0.95507 0.0
H3895 H 0.77883 0.26882 0.94386 0.0
H3896 H 0.72722 0.23622 0.88317 0.0
H3897 H 0.73238 0.22804 0.9165 0.0
H3898 H 0.75333 0.28822 0.94006 0.0
H3899 H 0.74903 0.29638 0.90696 0.0
C3900 C 0.75568 0.2309 0.97262 0.0
C3901 C 0.77444 0.23682 0.97622 0.0
C3902 C 0.74532 0.23825 0.95832 0.0
C3903 C 0.75354 0.252 0.94792 0.0
C3904 C 0.77214 0.25858 0.95215 0.0
C3905 C 0.7825 0.25097 0.96605 0.0
C3906 C 0.7322 0.24778 0.89557 0.0
C3907 C 0.73824 0.2668 0.89239 0.0
C3908 C 0.73497 0.24313 0.91464 0.0
C3909 C 0.74358 0.25754 0.93058 0.0
C3910 C 0.74679 0.27693 0.92783 0.0
C3911 C 0.7442 0.28157 0.90881 0.0
H3912 H 0.08087 0.48669 0.18619 0.0
H3913 H 0.12614 0.52722 0.17586 0.0
H3914 H 0.06492 0.48845 0.15384 0.0
H3915 H 0.10965 0.52984 0.14377 0.0
H3916 H 0.07897 0.52288 0.07854 0.0
H3917 H 0.09703 0.51984 0.11007 0.0
H3918 H 0.04862 0.50394 0.13392 0.0
H3919 H 0.0311 0.50628 0.10276 0.0
C3920 C 0.08764 0.49606 0.17722 0.0
C3921 C 0.1052 0.50678 0.18454 0.0
C3922 C 0.07816 0.49735 0.15833 0.0
C3923 C 0.08551 0.50955 0.14548 0.0
C3924 C 0.10314 0.52013 0.15264 0.0
C3925 C 0.11269 0.51879 0.17157 0.0
C3926 C 0.0722 0.51848 0.0904 0.0
C3927 C 0.0533 0.51464 0.08753 0.0
C3928 C 0.08264 0.51688 0.10883 0.0
C3929 C 0.07467 0.51138 0.12525 0.0
C3930 C 0.05578 0.5077 0.12211 0.0
C3931 C 0.0455 0.50924 0.10389 0.0
H3932 H 0.82189 0.82284 0.45082 0.0
H3933 H 0.77142 0.83988 0.43538 0.0
H3934 H 0.82036 0.80882 0.4164 0.0
H3935 H 0.77 0.82623 0.40096 0.0
H3936 H 0.76349 0.7854 0.34373 0.0
H3937 H 0.76531 0.79784 0.3785 0.0
H3938 H 0.82265 0.81544 0.38422 0.0
H3939 H 0.82084 0.80226 0.34943 0.0
C3940 C 0.8105 0.82373 0.44008 0.0
C3941 C 0.79675 0.83249 0.44603 0.0
C3942 C 0.80964 0.81571 0.42023 0.0
C3943 C 0.79505 0.81629 0.40567 0.0
C3944 C 0.7813 0.82506 0.41167 0.0
C3945 C 0.78211 0.83297 0.43152 0.0
C3946 C 0.77653 0.79183 0.35239 0.0
C3947 C 0.79202 0.79279 0.34367 0.0
C3948 C 0.77757 0.79916 0.37241 0.0
C3949 C 0.79412 0.80787 0.38437 0.0
C3950 C 0.80966 0.80865 0.37568 0.0
C3951 C 0.80863 0.80116 0.35563 0.0
H3952 H 0.49737 0.48887 0.86247 0.0
H3953 H 0.47425 0.53913 0.87389 0.0
H3954 H 0.50872 0.49171 0.89773 0.0
H3955 H 0.48507 0.54169 0.90924 0.0
H3956 H 0.51975 0.55144 0.97024 0.0
H3957 H 0.50973 0.54956 0.93479 0.0
H3958 H 0.50026 0.48716 0.92814 0.0
H3959 H 0.51099 0.48915 0.96332 0.0
C3960 C 0.4946 0.50046 0.87254 0.0
C3961 C 0.4849 0.51377 0.86528 0.0
C3962 C 0.50104 0.50206 0.89285 0.0
C3963 C 0.49779 0.51689 0.90657 0.0
C3964 C 0.48816 0.53027 0.89924 0.0
C3965 C 0.48189 0.52878 0.87889 0.0
C3966 C 0.51556 0.53733 0.96119 0.0
C3967 C 0.51624 0.52048 0.96968 0.0
C3968 C 0.50968 0.53622 0.94081 0.0
C3969 C 0.50417 0.51819 0.92837 0.0
C3970 C 0.50472 0.50134 0.937 0.0
C3971 C 0.51075 0.50247 0.95731 0.0
H3972 H 0.84124 0.28048 0.14624 0.0
H3973 H 0.83751 0.223 0.16151 0.0
H3974 H 0.83205 0.29135 0.17748 0.0
H3975 H 0.82796 0.2336 0.19233 0.0
H3976 H 0.81925 0.26067 0.25122 0.0
H3977 H 0.83489 0.25343 0.22401 0.0
H3978 H 0.80329 0.2848 0.18801 0.0
H3979 H 0.78808 0.29273 0.21574 0.0
C3980 C 0.83892 0.27037 0.15656 0.0
C3981 C 0.84009 0.25098 0.15162 0.0
C3982 C 0.83349 0.27648 0.17426 0.0
C3983 C 0.82904 0.26323 0.1871 0.0
C3984 C 0.83149 0.24419 0.18279 0.0
C3985 C 0.83705 0.23813 0.1652 0.0
C3986 C 0.81562 0.26599 0.23747 0.0
C3987 C 0.80244 0.27718 0.23538 0.0
C3988 C 0.8246 0.26187 0.22194 0.0
C3989 C 0.82038 0.26867 0.20399 0.0
C3990 C 0.80707 0.27974 0.20187 0.0
C3991 C 0.7982 0.28406 0.21755 0.0
H3992 H 0.08689 0.49126 0.38 0.0
H3993 H 0.1314 0.53554 0.41063 0.0
H3994 H 0.07217 0.49413 0.40894 0.0
H3995 H 0.11642 0.53883 0.43934 0.0
H3996 H 0.0916 0.5322 0.49668 0.0
H3997 H 0.10692 0.52906 0.46797 0.0
H3998 H 0.05597 0.50952 0.42947 0.0
H3999 H 0.04084 0.51252 0.45812 0.0
C4000 C 0.09375 0.50165 0.39279 0.0
C4001 C 0.11073 0.51309 0.39217 0.0
C4002 C 0.08502 0.50351 0.40969 0.0
C4003 C 0.09269 0.51685 0.42722 0.0
C4004 C 0.10971 0.52819 0.42667 0.0
C4005 C 0.11839 0.52642 0.40973 0.0
C4006 C 0.08357 0.52725 0.48212 0.0
C4007 C 0.0647 0.52275 0.48027 0.0
C4008 C 0.09247 0.5255 0.46533 0.0
C4009 C 0.08307 0.51893 0.44564 0.0
C4010 C 0.06417 0.51437 0.44393 0.0
C4011 C 0.0553 0.51628 0.46066 0.0
H4012 H 0.8231 0.82799 0.64827 0.0
H4013 H 0.77147 0.84349 0.6484 0.0
H4014 H 0.81954 0.8127 0.67766 0.0
H4015 H 0.7678 0.82764 0.67709 0.0
H4016 H 0.75714 0.77794 0.71215 0.0
H4017 H 0.76277 0.79491 0.68456 0.0
H4018 H 0.81706 0.81816 0.71386 0.0
H4019 H 0.81134 0.80075 0.74174 0.0
C4020 C 0.81104 0.82835 0.65449 0.0
C4021 C 0.79751 0.83695 0.64544 0.0
C4022 C 0.80901 0.81948 0.67143 0.0
C4023 C 0.7933 0.81871 0.67974 0.0
C4024 C 0.77995 0.82757 0.67095 0.0
C4025 C 0.78205 0.83661 0.65424 0.0
C4026 C 0.77032 0.78667 0.71283 0.0
C4027 C 0.78375 0.78804 0.72933 0.0
C4028 C 0.77352 0.79656 0.69697 0.0
C4029 C 0.79034 0.80812 0.69692 0.0
C4030 C 0.80394 0.80937 0.71333 0.0
C4031 C 0.80064 0.79953 0.72943 0.0
H4032 H 0.66314 0.40666 0.50091 0.0
H4033 H 0.70073 0.4338 0.55388 0.0
H4034 H 0.64667 0.43264 0.50489 0.0
H4035 H 0.68392 0.45956 0.55819 0.0
H4036 H 0.66144 0.51269 0.5413 0.0
H4037 H 0.67803 0.48655 0.53949 0.0
H4038 H 0.62836 0.44452 0.52878 0.0
H4039 H 0.61184 0.47044 0.53084 0.0
C4040 C 0.66771 0.41811 0.51349 0.0
C4041 C 0.68305 0.41834 0.52714 0.0
C4042 C 0.65829 0.43284 0.51582 0.0
C4043 C 0.66411 0.44795 0.53184 0.0
C4044 C 0.67932 0.44805 0.54566 0.0
C4045 C 0.68874 0.43328 0.54334 0.0
C4046 C 0.65414 0.49785 0.53869 0.0
C4047 C 0.63541 0.49352 0.53587 0.0
C4048 C 0.66358 0.48298 0.53771 0.0
C4049 C 0.65436 0.46367 0.53388 0.0
C4050 C 0.63568 0.45935 0.53142 0.0
C4051 C 0.62627 0.47416 0.53249 0.0
H4052 H 0.18009 0.08141 0.54125 0.0
H4053 H 0.15463 0.10579 0.49328 0.0
H4054 H 0.15108 0.06372 0.54534 0.0
H4055 H 0.12547 0.08762 0.49711 0.0
H4056 H 0.07384 0.06419 0.52227 0.0
H4057 H 0.1026 0.08447 0.51956 0.0
H4058 H 0.12856 0.0365 0.52775 0.0
H4059 H 0.10016 0.0166 0.53052 0.0
C4060 C 0.16831 0.08312 0.5316 0.0
C4061 C 0.16989 0.09515 0.51692 0.0
C4062 C 0.15159 0.07278 0.53384 0.0
C4063 C 0.13578 0.07413 0.52155 0.0
C4064 C 0.13727 0.08631 0.50699 0.0
C4065 C 0.15407 0.09657 0.50463 0.0
C4066 C 0.08576 0.05814 0.52377 0.0
C4067 C 0.0847 0.03881 0.5268 0.0
C4068 C 0.10223 0.06968 0.52201 0.0
C4069 C 0.11805 0.06222 0.52351 0.0
C4070 C 0.11685 0.04294 0.52679 0.0
C4071 C 0.10047 0.03145 0.5283 0.0
H4072 H 0.20039 0.96795 0.77361 0.0
H4073 H 0.17939 0.95153 0.82533 0.0
H4074 H 0.21549 0.94082 0.77248 0.0
H4075 H 0.19552 0.92523 0.82502 0.0
H4076 H 0.21264 0.86858 0.80796 0.0
H4077 H 0.19592 0.89449 0.80743 0.0
H4078 H 0.24026 0.93112 0.78988 0.0
H4079 H 0.25679 0.90517 0.79016 0.0
C4080 C 0.19896 0.95856 0.78474 0.0
C4081 C 0.18867 0.96198 0.79958 0.0
C4082 C 0.20784 0.94314 0.78425 0.0
C4083 C 0.2068 0.93089 0.79872 0.0
C4084 C 0.19645 0.93424 0.8135 0.0
C4085 C 0.18742 0.94953 0.81387 0.0
C4086 C 0.21879 0.88219 0.80403 0.0
C4087 C 0.23598 0.88481 0.79901 0.0
C4088 C 0.20924 0.89706 0.80377 0.0
C4089 C 0.21673 0.91489 0.79859 0.0
C4090 C 0.23393 0.91746 0.79356 0.0
C4091 C 0.24343 0.90258 0.79373 0.0
H4092 H 0.33471 0.91719 0.97684 0.0
H4093 H 0.33175 0.94501 0.03527 0.0
H4094 H 0.36344 0.93835 0.97782 0.0
H4095 H 0.36026 0.96678 0.03607 0.0
H4096 H 0.42092 0.98464 0.03949 0.0
H4097 H 0.39109 0.96609 0.03891 0.0
H4098 H 0.37719 0.97053 0.97686 0.0
H4099 H 0.40737 0.98757 0.97701 0.0
C4100 C 0.34011 0.92812 0.98972 0.0
C4101 C 0.33112 0.92957 1.00595 0.0
C4102 C 0.35651 0.9403 0.99029 0.0
C4103 C 0.36409 0.95432 0.007 0.0
C4104 C 0.35489 0.95595 0.02311 0.0
C4105 C 0.33857 0.94359 0.02263 0.0
C4106 C 0.41151 0.98157 0.02571 0.0
C4107 C 0.41658 0.98745 0.00827 0.0
C4108 C 0.39433 0.97117 0.02544 0.0
C4109 C 0.38181 0.96672 0.00778 0.0
C4110 C 0.38664 0.97341 0.9906 0.0
C4111 C 0.40388 0.9835 0.99079 0.0
H4112 H 0.83284 0.62311 0.75414 0.0
H4113 H 0.88019 0.65839 0.79101 0.0
H4114 H 0.81869 0.65086 0.7548 0.0
H4115 H 0.8657 0.68591 0.79243 0.0
H4116 H 0.84048 0.73963 0.78541 0.0
H4117 H 0.85518 0.71196 0.78393 0.0
H4118 H 0.80379 0.67355 0.76537 0.0
H4119 H 0.78934 0.70132 0.76647 0.0
C4120 C 0.84052 0.63663 0.76249 0.0
C4121 C 0.8582 0.63749 0.77246 0.0
C4122 C 0.83205 0.65299 0.76309 0.0
C4123 C 0.84053 0.67159 0.77376 0.0
C4124 C 0.85819 0.67248 0.78373 0.0
C4125 C 0.86668 0.65612 0.78309 0.0
C4126 C 0.83221 0.72532 0.78087 0.0
C4127 C 0.81341 0.72336 0.77596 0.0
C4128 C 0.84077 0.70903 0.78015 0.0
C4129 C 0.83116 0.68956 0.77448 0.0
C4130 C 0.8123 0.68773 0.76957 0.0
C4131 C 0.80376 0.70402 0.77029 0.0
H4132 H 0.86566 0.6298 0.00925 0.0
H4133 H 0.83403 0.57829 0.02342 0.0
H4134 H 0.89135 0.61447 0.01053 0.0
H4135 H 0.86007 0.56366 0.02632 0.0
H4136 H 0.90442 0.53363 0.01172 0.0
H4137 H 0.87889 0.54912 0.00896 0.0
H4138 H 0.91389 0.60464 0.03066 0.0
H4139 H 0.93956 0.58904 0.03323 0.0
C4140 C 0.86406 0.61522 0.01264 0.0
C4141 C 0.84745 0.60543 0.01614 0.0
C4142 C 0.87903 0.60648 0.01372 0.0
C4143 C 0.87804 0.5877 0.01856 0.0
C4144 C 0.86149 0.57798 0.02221 0.0
C4145 C 0.84648 0.58661 0.02089 0.0
C4146 C 0.90676 0.54914 0.01605 0.0
C4147 C 0.92423 0.55996 0.02285 0.0
C4148 C 0.89198 0.5581 0.01451 0.0
C4149 C 0.89406 0.57825 0.01974 0.0
C4150 C 0.91159 0.58915 0.02622 0.0
C4151 C 0.92642 0.58016 0.02771 0.0
H4152 H 0.1863 0.1544 0.78536 0.0
H4153 H 0.22844 0.13313 0.81857 0.0
H4154 H 0.20799 0.18249 0.78115 0.0
H4155 H 0.25001 0.16151 0.81493 0.0
H4156 H 0.28661 0.20304 0.78522 0.0
H4157 H 0.26474 0.17515 0.78968 0.0
H4158 H 0.22725 0.21216 0.7996 0.0
H4159 H 0.24941 0.23999 0.79549 0.0
C4160 C 0.20019 0.1557 0.79178 0.0
C4161 C 0.20559 0.14141 0.80225 0.0
C4162 C 0.21261 0.17193 0.78954 0.0
C4163 C 0.2308 0.17428 0.79765 0.0
C4164 C 0.23617 0.16008 0.80827 0.0
C4165 C 0.22374 0.14389 0.81057 0.0
C4166 C 0.27366 0.20516 0.78829 0.0
C4167 C 0.26947 0.22358 0.78941 0.0
C4168 C 0.26115 0.18921 0.79095 0.0
C4169 C 0.24413 0.19133 0.79486 0.0
C4170 C 0.24004 0.20988 0.79616 0.0
C4171 C 0.25264 0.22583 0.7936 0.0
H4172 H 0.34016 0.93844 0.29516 0.0
H4173 H 0.36346 0.91804 0.24535 0.0
H4174 H 0.32635 0.90543 0.29709 0.0
H4175 H 0.34962 0.88494 0.2473 0.0
H4176 H 0.31222 0.82583 0.24514 0.0
H4177 H 0.32593 0.85902 0.24275 0.0
H4178 H 0.32699 0.87536 0.30539 0.0
H4179 H 0.31289 0.84234 0.30753 0.0
C4180 C 0.34264 0.92706 0.28463 0.0
C4181 C 0.35331 0.93172 0.27008 0.0
C4182 C 0.33455 0.90771 0.28577 0.0
C4183 C 0.3366 0.89173 0.27244 0.0
C4184 C 0.34719 0.89636 0.25782 0.0
C4185 C 0.35529 0.91574 0.25668 0.0
C4186 C 0.31533 0.83645 0.25846 0.0
C4187 C 0.31121 0.8309 0.27654 0.0
C4188 C 0.32343 0.85577 0.25714 0.0
C4189 C 0.32786 0.87065 0.27383 0.0
C4190 C 0.32375 0.86495 0.29192 0.0
C4191 C 0.31565 0.84566 0.29323 0.0
H4192 H 0.57002 0.40322 0.61524 0.0
H4193 H 0.54023 0.36867 0.56078 0.0
H4194 H 0.56701 0.43258 0.60136 0.0
H4195 H 0.53773 0.39802 0.54669 0.0
H4196 H 0.51912 0.45421 0.53571 0.0
H4197 H 0.52291 0.42478 0.54888 0.0
H4198 H 0.57649 0.4525 0.57745 0.0
H4199 H 0.57261 0.48215 0.5644 0.0
C4200 C 0.56281 0.4018 0.6003 0.0
C4201 C 0.55534 0.38334 0.58926 0.0
C4202 C 0.56126 0.41875 0.59221 0.0
C4203 C 0.55212 0.41788 0.57281 0.0
C4204 C 0.54472 0.39943 0.56173 0.0
C4205 C 0.54634 0.38249 0.56979 0.0
C4206 C 0.53179 0.45408 0.54469 0.0
C4207 C 0.54558 0.47071 0.54886 0.0
C4208 C 0.534 0.43705 0.55222 0.0
C4209 C 0.55003 0.43605 0.56432 0.0
C4210 C 0.56387 0.45265 0.5684 0.0
C4211 C 0.5617 0.46968 0.56073 0.0
H4212 H 0.42962 0.77635 0.33825 0.0
H4213 H 0.40149 0.74497 0.37792 0.0
H4214 H 0.40133 0.77961 0.31984 0.0
H4215 H 0.37292 0.74777 0.35897 0.0
H4216 H 0.32464 0.77164 0.32799 0.0
H4217 H 0.35272 0.77024 0.34941 0.0
H4218 H 0.37676 0.75939 0.29737 0.0
H4219 H 0.34926 0.76093 0.27644 0.0
C4220 C 0.41742 0.77019 0.34318 0.0
C4221 C 0.41806 0.76037 0.3597 0.0
C4222 C 0.40106 0.77191 0.33243 0.0
C4223 C 0.38465 0.76389 0.33775 0.0
C4224 C 0.38521 0.75428 0.35445 0.0
C4225 C 0.40165 0.75246 0.36519 0.0
C4226 C 0.33598 0.76909 0.32123 0.0
C4227 C 0.33463 0.76648 0.30044 0.0
C4228 C 0.35207 0.76815 0.33348 0.0
C4229 C 0.36722 0.76483 0.32521 0.0
C4230 C 0.36567 0.76233 0.30445 0.0
C4231 C 0.34974 0.76312 0.29236 0.0
H4232 H 0.08103 0.68608 0.0927 0.0
H4233 H 0.02412 0.68038 0.07464 0.0
H4234 H 0.07835 0.65202 0.08086 0.0
H4235 H 0.02175 0.64683 0.06108 0.0
H4236 H 0.01788 0.58249 0.05713 0.0
H4237 H 0.02108 0.61658 0.06888 0.0
H4238 H 0.07453 0.62721 0.05485 0.0
H4239 H 0.07156 0.59266 0.04404 0.0
C4240 C 0.0679 0.67769 0.08617 0.0
C4241 C 0.05278 0.68632 0.08496 0.0
C4242 C 0.06642 0.65803 0.07897 0.0
C4243 C 0.0498 0.64629 0.06997 0.0
C4244 C 0.03477 0.65505 0.06826 0.0
C4245 C 0.0362 0.67461 0.07577 0.0
C4246 C 0.03035 0.59205 0.0565 0.0
C4247 C 0.04444 0.58469 0.04954 0.0
C4248 C 0.03216 0.61181 0.06314 0.0
C4249 C 0.04804 0.62504 0.06279 0.0
C4250 C 0.06215 0.61765 0.05572 0.0
C4251 C 0.06042 0.59775 0.04932 0.0
H4252 H 0.09989 0.23589 0.87616 0.0
H4253 H 0.09383 0.29208 0.86208 0.0
H4254 H 0.12608 0.23787 0.86015 0.0
H4255 H 0.12081 0.29471 0.84754 0.0
H4256 H 0.15935 0.287 0.80485 0.0
H4257 H 0.13281 0.28425 0.82027 0.0
H4258 H 0.15615 0.25172 0.86226 0.0
H4259 H 0.18259 0.25413 0.84638 0.0
C4260 C 0.10406 0.2487 0.86968 0.0
C4261 C 0.09444 0.26376 0.87047 0.0
C4262 C 0.11939 0.24998 0.86073 0.0
C4263 C 0.12579 0.26646 0.85243 0.0
C4264 C 0.11628 0.2816 0.85339 0.0
C4265 C 0.10084 0.28022 0.86212 0.0
C4266 C 0.15891 0.27937 0.81747 0.0
C4267 C 0.17325 0.27089 0.82439 0.0
C4268 C 0.14362 0.27782 0.82642 0.0
C4269 C 0.14216 0.26785 0.84273 0.0
C4270 C 0.15651 0.25927 0.84959 0.0
C4271 C 0.17177 0.26069 0.8405 0.0
H4272 H 0.54021 0.72027 0.94988 0.0
H4273 H 0.48764 0.69388 0.91707 0.0
H4274 H 0.53914 0.69376 0.9691 0.0
H4275 H 0.4864 0.6674 0.9367 0.0
H4276 H 0.50445 0.61393 0.96052 0.0
H4277 H 0.50299 0.64011 0.94089 0.0
H4278 H 0.52141 0.68202 0.99419 0.0
H4279 H 0.52354 0.65607 0.01363 0.0
C4280 C 0.52846 0.70872 0.94678 0.0
C4281 C 0.51404 0.70892 0.93201 0.0
C4282 C 0.52777 0.69372 0.95788 0.0
C4283 C 0.51265 0.67871 0.95435 0.0
C4284 C 0.49821 0.67884 0.93954 0.0
C4285 C 0.49887 0.69396 0.92848 0.0
C4286 C 0.50815 0.62875 0.96796 0.0
C4287 C 0.51412 0.63305 0.98851 0.0
C4288 C 0.50715 0.64365 0.95682 0.0
C4289 C 0.51215 0.66294 0.96613 0.0
C4290 C 0.51764 0.6672 0.98672 0.0
C4291 C 0.51867 0.65237 0.99783 0.0
H4292 H 0.15021 0.75617 0.70075 0.0
H4293 H 0.13775 0.73027 0.75185 0.0
H4294 H 0.18184 0.75642 0.71108 0.0
H4295 H 0.16948 0.73036 0.76209 0.0
H4296 H 0.22578 0.77089 0.78641 0.0
H4297 H 0.19393 0.76118 0.77388 0.0
H4298 H 0.20495 0.73426 0.7185 0.0
H4299 H 0.23724 0.7438 0.73136 0.0
C4300 C 0.15426 0.75031 0.71406 0.0
C4301 C 0.14171 0.7435 0.72575 0.0
C4302 C 0.17227 0.75021 0.71978 0.0
C4303 C 0.17795 0.74339 0.73732 0.0
C4304 C 0.1653 0.73569 0.74849 0.0
C4305 C 0.14724 0.73563 0.74267 0.0
C4306 C 0.2214 0.76281 0.77159 0.0
C4307 C 0.23379 0.75833 0.75964 0.0
C4308 C 0.20322 0.75704 0.76455 0.0
C4309 C 0.19711 0.74692 0.74532 0.0
C4310 C 0.20948 0.74202 0.73343 0.0
C4311 C 0.2278 0.74747 0.7407 0.0
H4312 H 1.00308 0.39199 0.43924 0.0
H4313 H 0.04294 0.3782 0.48309 0.0
H4314 H 1.00047 0.41929 0.46217 0.0
H4315 H 0.04193 0.40717 0.50514 0.0
H4316 H 0.03192 0.45655 0.54579 0.0
H4317 H 0.0266 0.42436 0.52611 0.0
H4318 H 0.01802 0.44962 0.47245 0.0
H4319 H 0.02231 0.48106 0.49195 0.0
C4320 C 0.01122 0.39459 0.45381 0.0
C4321 C 0.02328 0.38276 0.4592 0.0
C4322 C 0.00994 0.41056 0.46688 0.0
C4323 C 0.02119 0.41563 0.48538 0.0
C4324 C 0.03292 0.40359 0.49107 0.0
C4325 C 0.0338 0.38719 0.4782 0.0
C4326 C 0.02838 0.45497 0.52982 0.0
C4327 C 0.02749 0.47117 0.52037 0.0
C4328 C 0.02554 0.43664 0.51854 0.0
C4329 C 0.02193 0.43439 0.4977 0.0
C4330 C 0.02035 0.45064 0.48844 0.0
C4331 C 0.02293 0.46877 0.49966 0.0
H4332 H 0.44765 0.24612 0.19994 0.0
H4333 H 0.48254 0.26139 0.25674 0.0
H4334 H 0.42296 0.25423 0.21536 0.0
H4335 H 0.45799 0.27018 0.27218 0.0
H4336 H 0.40501 0.26882 0.29535 0.0
H4337 H 0.42971 0.25839 0.28135 0.0
H4338 H 0.41487 0.28306 0.22865 0.0
H4339 H 0.39 0.29279 0.2424 0.0
C4340 C 0.44996 0.25119 0.21575 0.0
C4341 C 0.46689 0.25322 0.2272 0.0
C4342 C 0.43591 0.25595 0.22456 0.0
C4343 C 0.43863 0.2631 0.24493 0.0
C4344 C 0.45547 0.26454 0.25649 0.0
C4345 C 0.46949 0.25954 0.24769 0.0
C4346 C 0.4072 0.27204 0.28084 0.0
C4347 C 0.39565 0.28139 0.26981 0.0
C4348 C 0.42129 0.26613 0.27283 0.0
C4349 C 0.42406 0.26969 0.2538 0.0
C4350 C 0.41277 0.27962 0.24312 0.0
C4351 C 0.39863 0.2853 0.251 0.0
H4352 H 0.61904 0.5389 0.41756 0.0
H4353 H 0.56664 0.52687 0.38142 0.0
H4354 H 0.60539 0.53271 0.44667 0.0
H4355 H 0.55306 0.52129 0.41051 0.0
H4356 H 0.53462 0.49121 0.45988 0.0
H4357 H 0.55012 0.49726 0.43228 0.0
H4358 H 0.5867 0.54562 0.46954 0.0
H4359 H 0.57077 0.53962 0.49719 0.0
C4360 C 0.60462 0.53495 0.41578 0.0
C4361 C 0.59398 0.53335 0.39702 0.0
C4362 C 0.59679 0.53159 0.43255 0.0
C4363 C 0.57812 0.52638 0.43098 0.0
C4364 C 0.5675 0.525 0.41227 0.0
C4365 C 0.5753 0.52844 0.39557 0.0
C4366 C 0.54615 0.50298 0.46233 0.0
C4367 C 0.5517 0.51467 0.48095 0.0
C4368 C 0.55495 0.50657 0.44639 0.0
C4369 C 0.56961 0.52203 0.44855 0.0
C4370 C 0.57556 0.53346 0.46737 0.0
C4371 C 0.56657 0.52992 0.48335 0.0
H4372 H 0.30909 0.79239 0.06633 0.0
H4373 H 0.30268 0.83384 0.11463 0.0
H4374 H 0.32617 0.77653 0.08988 0.0
H4375 H 0.31979 0.81835 0.13811 0.0
H4376 H 0.34795 0.79245 0.17897 0.0
H4377 H 0.34974 0.80728 0.14912 0.0
H4378 H 0.31065 0.75891 0.11534 0.0
H4379 H 0.30806 0.74466 0.1449 0.0
C4380 C 0.31182 0.79831 0.08196 0.0
C4381 C 0.30462 0.81402 0.089 0.0
C4382 C 0.32166 0.78945 0.09529 0.0
C4383 C 0.32452 0.79646 0.11565 0.0
C4384 C 0.3182 0.813 0.12241 0.0
C4385 C 0.30819 0.82166 0.10914 0.0
C4386 C 0.34028 0.78462 0.165 0.0
C4387 C 0.32726 0.76786 0.16447 0.0
C4388 C 0.34147 0.79302 0.14794 0.0
C4389 C 0.33001 0.7844 0.1302 0.0
C4390 C 0.31962 0.76584 0.1289 0.0
C4391 C 0.31815 0.75764 0.14599 0.0
H4392 H 0.94807 0.54679 0.89661 0.0
H4393 H 0.99185 0.53278 0.86903 0.0
H4394 H 0.96444 0.54454 0.92899 0.0
H4395 H 1.00757 0.52947 0.90093 0.0
H4396 H 0.04209 0.54066 0.96127 0.0
H4397 H 0.0246 0.54339 0.93026 0.0
H4398 H 0.97618 0.52826 0.9543 0.0
H4399 H 0.99426 0.52609 0.98623 0.0
C4400 C 0.96116 0.54325 0.89717 0.0
C4401 C 0.96827 0.5401 0.87938 0.0
C4402 C 0.97061 0.54169 0.91608 0.0
C4403 C 0.98776 0.53693 0.91838 0.0
C4404 C 0.99473 0.53359 0.90056 0.0
C4405 C 0.98535 0.5352 0.88175 0.0
C4406 C 0.02769 0.53789 0.9602 0.0
C4407 C 0.0199 0.53306 0.97675 0.0
C4408 C 0.01743 0.53927 0.94195 0.0
C4409 C 0.99855 0.53577 0.93885 0.0
C4410 C 0.99058 0.53119 0.95557 0.0
C4411 C 1.00102 0.52983 0.97411 0.0
H4412 H 0.2992 0.22763 0.62133 0.0
H4413 H 0.24388 0.20091 0.61916 0.0
H4414 H 0.30078 0.24207 0.65548 0.0
H4415 H 0.24589 0.21409 0.6538 0.0
H4416 H 0.25009 0.2535 0.71254 0.0
H4417 H 0.24756 0.24113 0.67739 0.0
H4418 H 0.30269 0.23499 0.68741 0.0
H4419 H 0.30537 0.24806 0.72206 0.0
C4420 C 0.28732 0.22481 0.62804 0.0
C4421 C 0.27142 0.21293 0.61724 0.0
C4422 C 0.28832 0.23288 0.64788 0.0
C4423 C 0.27354 0.22917 0.65773 0.0
C4424 C 0.25756 0.21751 0.64686 0.0
C4425 C 0.2565 0.20963 0.62693 0.0
C4426 C 0.26167 0.24954 0.70721 0.0
C4427 C 0.27794 0.25188 0.72023 0.0
C4428 C 0.26021 0.24231 0.687 0.0
C4429 C 0.27494 0.23705 0.67929 0.0
C4430 C 0.29112 0.23924 0.69247 0.0
C4431 C 0.29262 0.24663 0.71254 0.0
H4432 H 0.57633 0.50569 0.19393 0.0
H4433 H 0.59819 0.56627 0.19522 0.0
H4434 H 0.56386 0.50297 0.15903 0.0
H4435 H 0.58709 0.56316 0.16012 0.0
H4436 H 0.5518 0.55801 0.10121 0.0
H4437 H 0.56212 0.56017 0.13646 0.0
H4438 H 0.57046 0.5015 0.12696 0.0
H4439 H 0.55921 0.4991 0.09167 0.0
C4440 C 0.5785 0.51847 0.18687 0.0
C4441 C 0.58838 0.53621 0.19764 0.0
C4442 C 0.57157 0.51681 0.16664 0.0
C4443 C 0.57445 0.5328 0.15649 0.0
C4444 C 0.58428 0.55053 0.1673 0.0
C4445 C 0.59098 0.55225 0.18753 0.0
C4446 C 0.5558 0.54553 0.10662 0.0
C4447 C 0.55472 0.52839 0.09355 0.0
C4448 C 0.56188 0.54681 0.12693 0.0
C4449 C 0.56735 0.53108 0.13479 0.0
C4450 C 0.56617 0.51387 0.12166 0.0
C4451 C 0.55984 0.51251 0.10133 0.0
H4452 H 0.23343 0.81833 0.90755 0.0
H4453 H 0.23224 0.7613 0.92356 0.0
H4454 H 0.24374 0.80833 0.87719 0.0
H4455 H 0.24276 0.75126 0.89286 0.0
H4456 H 0.25174 0.78196 0.81815 0.0
H4457 H 0.23594 0.78731 0.84564 0.0
H4458 H 0.2717 0.76007 0.88158 0.0
H4459 H 0.28732 0.75421 0.85361 0.0
C4460 C 0.23471 0.80342 0.90425 0.0
C4461 C 0.23192 0.79054 0.9179 0.0
C4462 C 0.24075 0.79773 0.88687 0.0
C4463 C 0.24412 0.77907 0.88281 0.0
C4464 C 0.24046 0.76582 0.89587 0.0
C4465 C 0.23436 0.77151 0.91331 0.0
C4466 C 0.25626 0.77714 0.83193 0.0
C4467 C 0.27084 0.76788 0.83399 0.0
C4468 C 0.24717 0.78015 0.84761 0.0
C4469 C 0.25262 0.7741 0.86567 0.0
C4470 C 0.26709 0.7646 0.86766 0.0
C4471 C 0.27613 0.76145 0.85184 0.0
H4472 H 0.9393 0.51818 0.65121 0.0
H4473 H 0.98841 0.55121 0.68665 0.0
H4474 H 0.95429 0.51501 0.62261 0.0
H4475 H 1.00314 0.54884 0.65785 0.0
H4476 H 0.03216 0.53205 0.60637 0.0
H4477 H 0.01703 0.53448 0.63499 0.0
H4478 H 0.96631 0.52427 0.59588 0.0
H4479 H 0.98162 0.5214 0.56722 0.0
C4480 C 0.95331 0.52485 0.65323 0.0
C4481 C 0.96221 0.53499 0.67214 0.0
C4482 C 0.96206 0.52321 0.63632 0.0
C4483 C 0.98036 0.53158 0.63706 0.0
C4484 C 0.98925 0.54176 0.65595 0.0
C4485 C 0.9805 0.54339 0.67285 0.0
C4486 C 0.01774 0.53022 0.60369 0.0
C4487 C 0.00841 0.5264 0.58391 0.0
C4488 C 0.00887 0.53182 0.62045 0.0
C4489 C 0.99001 0.52972 0.6186 0.0
C4490 C 0.98068 0.52583 0.5987 0.0
C4491 C 0.9896 0.52425 0.58191 0.0
H4492 H 0.24841 0.19358 0.40123 0.0
H4493 H 0.29518 0.23344 0.43439 0.0
H4494 H 0.25104 0.21022 0.37259 0.0
H4495 H 0.29823 0.24953 0.40556 0.0
H4496 H 0.28968 0.28679 0.35743 0.0
H4497 H 0.28554 0.2703 0.38588 0.0
H4498 H 0.26836 0.21568 0.34678 0.0
H4499 H 0.27231 0.23236 0.31824 0.0
C4500 C 0.25925 0.20591 0.40251 0.0
C4501 C 0.27155 0.21205 0.42034 0.0
C4502 C 0.26089 0.21535 0.3859 0.0
C4503 C 0.27487 0.23132 0.38656 0.0
C4504 C 0.28714 0.23748 0.4044 0.0
C4505 C 0.28552 0.22803 0.42097 0.0
C4506 C 0.28486 0.27128 0.35486 0.0
C4507 C 0.28126 0.26096 0.33549 0.0
C4508 C 0.28264 0.26174 0.37126 0.0
C4509 C 0.27669 0.24153 0.36884 0.0
C4510 C 0.27278 0.23124 0.34935 0.0
C4511 C 0.27508 0.24081 0.33293 0.0
H4512 H 0.37607 0.61135 0.56456 0.0
H4513 H 0.39899 0.63143 0.51524 0.0
H4514 H 0.3904 0.58361 0.56144 0.0
H4515 H 0.41301 0.60344 0.51196 0.0
H4516 H 0.42158 0.54259 0.50004 0.0
H4517 H 0.40362 0.56737 0.50303 0.0
H4518 H 0.42201 0.57906 0.56637 0.0
H4519 H 0.43957 0.55392 0.56345 0.0
C4520 C 0.38431 0.60993 0.55319 0.0
C4521 C 0.38658 0.62359 0.54023 0.0
C4522 C 0.39235 0.59402 0.55135 0.0
C4523 C 0.40263 0.59147 0.53642 0.0
C4524 C 0.40485 0.60502 0.52338 0.0
C4525 C 0.3969 0.62101 0.5253 0.0
C4526 C 0.42134 0.5501 0.51463 0.0
C4527 C 0.43184 0.54646 0.53155 0.0
C4528 C 0.4113 0.56437 0.5163 0.0
C4529 C 0.41164 0.57509 0.53488 0.0
C4530 C 0.42148 0.57083 0.55191 0.0
C4531 C 0.43155 0.55658 0.55024 0.0
H4532 H 0.89717 0.94557 0.51907 0.0
H4533 H 0.91127 0.95524 0.58294 0.0
H4534 H 0.92666 0.96321 0.51662 0.0
H4535 H 0.9411 0.97172 0.58041 0.0
H4536 H 0.98575 0.01957 0.57175 0.0
H4537 H 0.95681 1.00062 0.57394 0.0
H4538 H 0.95764 0.96391 0.51935 0.0
H4539 H 0.98658 0.98362 0.51687 0.0
C4540 C 0.90649 0.95141 0.53266 0.0
C4541 C 0.90149 0.94899 0.55125 0.0
C4542 C 0.92365 0.96133 0.53121 0.0
C4543 C 0.9365 0.9691 0.54829 0.0
C4544 C 0.93162 0.96634 0.56685 0.0
C4545 C 0.91444 0.95655 0.56831 0.0
C4546 C 0.97982 1.0074 0.56023 0.0
C4547 C 0.98852 1.00316 0.54414 0.0
C4548 C 0.96317 0.99636 0.56155 0.0
C4549 C 0.95465 0.98052 0.54688 0.0
C4550 C 0.96354 0.97609 0.53085 0.0
C4551 C 0.98025 0.98728 0.52948 0.0
H4552 H 0.85616 0.07044 0.24242 0.0
H4553 H 0.90212 0.10814 0.28002 0.0
H4554 H 0.84015 0.09688 0.24334 0.0
H4555 H 0.8859 0.13441 0.28123 0.0
H4556 H 0.84394 0.16965 0.29595 0.0
H4557 H 0.86053 0.1436 0.29464 0.0
H4558 H 0.84067 0.1279 0.23177 0.0
H4559 H 0.82348 0.1534 0.23323 0.0
C4560 C 0.86294 0.08438 0.25074 0.0
C4561 C 0.88047 0.08709 0.26114 0.0
C4562 C 0.85372 0.09953 0.25129 0.0
C4563 C 0.86177 0.11771 0.26236 0.0
C4564 C 0.87926 0.12047 0.27279 0.0
C4565 C 0.88853 0.10536 0.27213 0.0
C4566 C 0.84305 0.16056 0.28187 0.0
C4567 C 0.8324 0.16357 0.2647 0.0
C4568 C 0.85269 0.14578 0.28109 0.0
C4569 C 0.85189 0.1337 0.26311 0.0
C4570 C 0.8414 0.13684 0.24589 0.0
C4571 C 0.83174 0.15161 0.24668 0.0
H4572 H 0.7233 0.12758 0.03257 0.0
H4573 H 0.75151 0.09154 0.06607 0.0
H4574 H 0.69535 0.10496 0.03112 0.0
H4575 H 0.72325 0.06925 0.06516 0.0
H4576 H 0.6657 0.05718 0.08295 0.0
H4577 H 0.69565 0.07345 0.08053 0.0
H4578 H 0.68001 0.06999 0.01732 0.0
H4579 H 0.65008 0.05299 0.01949 0.0
C4580 C 0.72362 0.11468 0.03932 0.0
C4581 C 0.73966 0.11137 0.04943 0.0
C4582 C 0.70759 0.10175 0.03849 0.0
C4583 C 0.70725 0.08539 0.04795 0.0
C4584 C 0.72324 0.08185 0.05782 0.0
C4585 C 0.73935 0.09467 0.05845 0.0
C4586 C 0.66874 0.05929 0.06842 0.0
C4587 C 0.65546 0.05388 0.05141 0.0
C4588 C 0.68589 0.06867 0.06708 0.0
C4589 C 0.69001 0.07299 0.04877 0.0
C4590 C 0.67703 0.06692 0.03163 0.0
C4591 C 0.65992 0.05732 0.03292 0.0
H4592 H 0.24082 0.4243 0.28636 0.0
H4593 H 0.1932 0.38905 0.29849 0.0
H4594 H 0.25519 0.39656 0.28515 0.0
H4595 H 0.20782 0.36147 0.29798 0.0
H4596 H 0.23332 0.30787 0.28343 0.0
H4597 H 0.2185 0.33552 0.28439 0.0
H4598 H 0.26995 0.37427 0.29743 0.0
H4599 H 0.28459 0.34657 0.29623 0.0
C4600 C 0.23315 0.41076 0.28878 0.0
C4601 C 0.21537 0.40983 0.29253 0.0
C4602 C 0.2417 0.39446 0.28832 0.0
C4603 C 0.23315 0.3759 0.2915 0.0
C4604 C 0.21535 0.37493 0.29519 0.0
C4605 C 0.20681 0.39126 0.29573 0.0
C4606 C 0.2416 0.32225 0.2866 0.0
C4607 C 0.26047 0.32436 0.28983 0.0
C4608 C 0.23295 0.33849 0.28724 0.0
C4609 C 0.24258 0.35801 0.29099 0.0
C4610 C 0.26151 0.36001 0.2942 0.0
C4611 C 0.27012 0.34378 0.29368 0.0
H4612 H 0.23628 0.46421 0.06894 0.0
H4613 H 0.20858 0.41825 0.02195 0.0
H4614 H 0.21021 0.47909 0.06643 0.0
H4615 H 0.18239 0.43285 0.01967 0.0
H4616 H 0.14382 0.47231 0.00638 0.0
H4617 H 0.16994 0.45781 0.00926 0.0
H4618 H 0.18109 0.47801 0.07237 0.0
H4619 H 0.15564 0.49384 0.06921 0.0
C4620 C 0.22457 0.45712 0.05819 0.0
C4621 C 0.22471 0.43999 0.04561 0.0
C4622 C 0.2095 0.46568 0.05677 0.0
C4623 C 0.19397 0.45732 0.04281 0.0
C4624 C 0.19409 0.44008 0.03035 0.0
C4625 C 0.2092 0.43162 0.03167 0.0
C4626 C 0.15193 0.47396 0.02088 0.0
C4627 C 0.14749 0.48451 0.03752 0.0
C4628 C 0.16688 0.46529 0.02261 0.0
C4629 C 0.17785 0.46657 0.04108 0.0
C4630 C 0.17326 0.47685 0.0578 0.0
C4631 C 0.15838 0.48573 0.05604 0.0
H4632 H 0.85418 0.90123 0.2296 0.0
H4633 H 0.87446 0.90826 0.2924 0.0
H4634 H 0.83398 0.87165 0.23208 0.0
H4635 H 0.85294 0.88013 0.29528 0.0
H4636 H 0.8227 0.8203 0.29499 0.0
H4637 H 0.8448 0.84766 0.29065 0.0
H4638 H 0.80805 0.85821 0.24156 0.0
H4639 H 0.78684 0.82943 0.24473 0.0
C4640 C 0.85439 0.8966 0.24398 0.0
C4641 C 0.86611 0.90747 0.26078 0.0
C4642 C 0.84244 0.87969 0.24549 0.0
C4643 C 0.84154 0.87327 0.26393 0.0
C4644 C 0.85326 0.88417 0.2807 0.0
C4645 C 0.86547 0.90077 0.27911 0.0
C4646 C 0.8196 0.82811 0.28288 0.0
C4647 C 0.80322 0.8224 0.26988 0.0
C4648 C 0.83215 0.84419 0.28064 0.0
C4649 C 0.8284 0.85549 0.26575 0.0
C4650 C 0.81179 0.84981 0.25292 0.0
C4651 C 0.79946 0.83338 0.25486 0.0
H4652 H 0.71265 0.12614 0.8216 0.0
H4653 H 0.72375 0.1077 0.76356 0.0
H4654 H 0.72607 0.15934 0.81958 0.0
H4655 H 0.73768 0.14061 0.76166 0.0
H4656 H 0.75389 0.20372 0.75447 0.0
H4657 H 0.73971 0.17097 0.75677 0.0
H4658 H 0.74689 0.18597 0.8205 0.0
H4659 H 0.76033 0.21913 0.81781 0.0
C4660 C 0.7181 0.12897 0.80839 0.0
C4661 C 0.71677 0.11358 0.79275 0.0
C4662 C 0.72601 0.1484 0.80719 0.0
C4663 C 0.73328 0.15363 0.79036 0.0
C4664 C 0.7321 0.13809 0.77483 0.0
C4665 C 0.724 0.11875 0.77595 0.0
C4666 C 0.75241 0.20015 0.76905 0.0
C4667 C 0.75843 0.21456 0.78592 0.0
C4668 C 0.74428 0.18093 0.77047 0.0
C4669 C 0.7419 0.17481 0.78891 0.0
C4670 C 0.74795 0.1894 0.80583 0.0
C4671 C 0.75591 0.20875 0.80435 0.0
loop_
_geom_bond_atom_site_label_1
_geom_bond_atom_site_label_2
_geom_bond_distance
_geom_bond_site_symmetry_2
_ccdc_geom_bond_type
Li0 N17 1.990 . S
Li0 O60 1.956 1_655 S
Li0 O61 1.970 . S
Li0 O62 1.961 . S
Li1 N25 1.990 . S
Li1 O60 1.970 . S
Li1 O61 1.956 1_455 S
Li1 O63 1.961 . S
Li2 N47 1.990 . S
Li2 O60 1.961 . S
Li2 O62 1.956 1_455 S
Li2 O63 1.970 . S
Li3 N53 1.990 . S
Li3 O61 1.961 1_455 S
Li3 O62 1.970 1_455 S
Li3 O63 1.956 . S
C4 C6 1.328 1_455 S
C4 C7 1.356 . S
C4 O60 1.325 . S
N5 C8 1.303 1_455 S
N5 C9 1.279 . S
C6 C4 1.328 1_655 S
C6 C8 1.353 . S
C6 H64 0.949 . S
C7 C4 1.356 . S
C7 C9 1.358 . S
C7 H65 0.930 . S
C8 N5 1.303 1_655 S
C8 C6 1.353 . S
C8 H66 0.945 . S
C9 N5 1.279 . S
C9 C7 1.358 . S
C9 H67 0.930 . S
C10 C13 1.348 . S
C10 C14 1.356 . S
C10 O61 1.325 . S
C11 N12 1.279 . S
C11 C14 1.358 . S
C11 H68 0.930 . S
N12 C11 1.279 . S
N12 C15 1.314 . S
C13 C10 1.348 . S
C13 C15 1.353 . S
C13 H69 0.929 . S
C14 C10 1.356 . S
C14 C11 1.358 . S
C14 H70 0.930 . S
C15 N12 1.314 . S
C15 C13 1.353 . S
C15 H71 0.930 . S
C16 N17 1.314 . S
C16 C21 1.353 . S
C16 H22 0.930 . S
N17 Li0 1.990 . S
N17 C16 1.314 . S
N17 C19 1.279 . S
C18 C19 1.358 . S
C18 C20 1.356 . S
C18 H72 0.930 . S
C19 N17 1.279 . S
C19 C18 1.358 . S
C19 H23 0.930 . S
C20 C18 1.356 . S
C20 C21 1.348 . S
C21 C16 1.353 . S
C21 C20 1.348 . S
C21 H73 0.929 . S
H22 C16 0.930 . S
H23 C19 0.930 . S
C24 N25 1.314 . S
C24 C26 1.353 . S
C24 H30 0.930 . S
N25 Li1 1.990 . S
N25 C24 1.314 . S
N25 C28 1.279 1_455 S
C26 C24 1.353 . S
C26 C29 1.348 . S
C26 H74 0.929 . S
C27 C28 1.358 . S
C27 C29 1.356 1_655 S
C27 H75 0.930 . S
C28 N25 1.279 1_655 S
C28 C27 1.358 . S
C28 H31 0.930 . S
C29 C26 1.348 . S
C29 C27 1.356 1_455 S
H30 C24 0.930 . S
H31 C28 0.930 . S
C32 C34 1.369 . S
C32 C35 1.356 . S
C32 O62 1.325 . S
N33 C36 1.314 . S
N33 C37 1.279 . S
C34 C32 1.369 . S
C34 C36 1.348 . S
C34 H76 0.917 1_655 S
C35 C32 1.356 . S
C35 C37 1.358 . S
C35 H77 0.930 . S
C36 N33 1.314 . S
C36 C34 1.348 . S
C36 H78 0.930 . S
C37 N33 1.279 . S
C37 C35 1.358 . S
C37 H79 0.930 . S
C38 C39 1.348 . S
C38 C40 1.356 . S
C38 O63 1.325 . S
C39 C38 1.348 . S
C39 C41 1.353 . S
C39 H80 0.929 . S
C40 C38 1.356 . S
C40 C42 1.358 . S
C40 H81 0.930 . S
C41 C39 1.353 . S
C41 N43 1.314 . S
C41 H82 0.930 . S
C42 C40 1.358 . S
C42 N43 1.279 . S
C42 H83 0.930 . S
N43 C41 1.314 . S
N43 C42 1.279 . S
C44 C46 1.353 . S
C44 N47 1.314 . S
C44 H50 0.930 . S
C45 N47 1.279 . S
C45 C48 1.358 . S
C45 H51 0.930 . S
C46 C44 1.353 . S
C46 C49 1.348 . S
C46 H84 0.929 . S
N47 Li2 1.990 . S
N47 C44 1.314 . S
N47 C45 1.279 . S
C48 C45 1.358 . S
C48 C49 1.356 . S
C48 H85 0.930 . S
C49 C46 1.348 . S
C49 C48 1.356 . S
H50 C44 0.930 . S
H51 C45 0.930 . S
C52 N53 1.314 1_655 S
C52 C54 1.353 . S
C52 H58 0.930 . S
N53 Li3 1.990 . S
N53 C52 1.314 1_455 S
N53 C56 1.279 . S
C54 C52 1.353 . S
C54 C57 1.365 . S
C54 H86 0.929 . S
C55 C56 1.358 . S
C55 C57 1.340 1_455 S
C55 H87 0.930 . S
C56 N53 1.279 . S
C56 C55 1.358 . S
C56 H59 0.930 . S
C57 C54 1.365 . S
C57 C55 1.340 1_655 S
H58 C52 0.930 . S
H59 C56 0.930 . S
O60 Li0 1.956 1_455 S
O60 Li1 1.970 . S
O60 Li2 1.961 . S
O60 C4 1.325 . S
O61 Li0 1.970 . S
O61 Li1 1.956 1_655 S
O61 Li3 1.961 1_655 S
O61 C10 1.325 . S
O62 Li0 1.961 . S
O62 Li2 1.956 1_655 S
O62 Li3 1.970 1_655 S
O62 C32 1.325 . S
O63 Li1 1.961 . S
O63 Li2 1.970 . S
O63 Li3 1.956 . S
O63 C38 1.325 . S
H64 C6 0.949 . S
H65 C7 0.930 . S
H66 C8 0.945 . S
H67 C9 0.930 . S
H68 C11 0.930 . S
H69 C13 0.929 . S
H70 C14 0.930 . S
H71 C15 0.930 . S
H72 C18 0.930 . S
H73 C21 0.929 . S
H74 C26 0.929 . S
H75 C27 0.930 . S
H76 C34 0.917 1_455 S
H77 C35 0.930 . S
H78 C36 0.930 . S
H79 C37 0.930 . S
H80 C39 0.929 . S
H81 C40 0.930 . S
H82 C41 0.930 . S
H83 C42 0.930 . S
H84 C46 0.929 . S
H85 C48 0.930 . S
H86 C54 0.929 . S
H87 C55 0.930 . S
Li88 N105 1.990 . S
Li88 O148 1.956 . S
Li88 O149 1.970 . S
Li88 O150 1.961 . S
Li89 N113 1.990 . S
Li89 O148 1.970 . S
Li89 O149 1.956 . S
Li89 O151 1.961 . S
Li90 N135 1.990 . S
Li90 O148 1.961 . S
Li90 O150 1.956 . S
Li90 O151 1.970 . S
Li91 N141 1.990 . S
Li91 O149 1.961 . S
Li91 O150 1.970 . S
Li91 O151 1.956 . S
C92 C94 1.348 . S
C92 C95 1.356 . S
C92 O148 1.325 . S
N93 C96 1.314 . S
N93 C97 1.279 . S
C94 C92 1.348 . S
C94 C96 1.353 . S
C94 H152 0.929 . S
C95 C92 1.356 . S
C95 C97 1.358 . S
C95 H153 0.930 . S
C96 N93 1.314 . S
C96 C94 1.353 . S
C96 H154 0.930 . S
C97 N93 1.279 . S
C97 C95 1.358 . S
C97 H155 0.930 . S
C98 C101 1.348 . S
C98 C102 1.356 . S
C98 O149 1.325 . S
C99 N100 1.279 . S
C99 C102 1.358 . S
C99 H156 0.930 . S
N100 C99 1.279 . S
N100 C103 1.314 . S
C101 C98 1.348 . S
C101 C103 1.353 . S
C101 H157 0.929 . S
C102 C98 1.356 . S
C102 C99 1.358 . S
C102 H158 0.930 . S
C103 N100 1.314 . S
C103 C101 1.353 . S
C103 H159 0.930 . S
C104 N105 1.314 . S
C104 C109 1.353 . S
C104 H110 0.930 . S
N105 Li88 1.990 . S
N105 C104 1.314 . S
N105 C107 1.279 . S
C106 C107 1.358 . S
C106 C108 1.356 . S
C106 H160 0.930 . S
C107 N105 1.279 . S
C107 C106 1.358 . S
C107 H111 0.930 . S
C108 C106 1.356 . S
C108 C109 1.348 . S
C109 C104 1.353 . S
C109 C108 1.348 . S
C109 H161 0.929 . S
H110 C104 0.930 . S
H111 C107 0.930 . S
C112 N113 1.314 . S
C112 C114 1.353 . S
C112 H118 0.930 . S
N113 Li89 1.990 . S
N113 C112 1.314 . S
N113 C116 1.279 . S
C114 C112 1.353 . S
C114 C117 1.348 . S
C114 H162 0.929 . S
C115 C116 1.358 . S
C115 C117 1.356 . S
C115 H163 0.930 . S
C116 N113 1.279 . S
C116 C115 1.358 . S
C116 H119 0.930 . S
C117 C114 1.348 . S
C117 C115 1.356 . S
H118 C112 0.930 . S
H119 C116 0.930 . S
C120 C122 1.348 . S
C120 C123 1.356 . S
C120 O150 1.325 . S
N121 C124 1.314 . S
N121 C125 1.279 1_655 S
C122 C120 1.348 . S
C122 C124 1.353 1_455 S
C122 H164 0.929 . S
C123 C120 1.356 . S
C123 C125 1.358 . S
C123 H165 0.930 . S
C124 N121 1.314 . S
C124 C122 1.353 1_655 S
C124 H166 0.930 . S
C125 N121 1.279 1_455 S
C125 C123 1.358 . S
C125 H167 0.930 . S
C126 C127 1.348 . S
C126 C128 1.356 . S
C126 O151 1.325 . S
C127 C126 1.348 . S
C127 C129 1.353 . S
C127 H168 0.929 . S
C128 C126 1.356 . S
C128 C130 1.358 . S
C128 H169 0.930 . S
C129 C127 1.353 . S
C129 N131 1.314 . S
C129 H170 0.930 . S
C130 C128 1.358 . S
C130 N131 1.279 . S
C130 H171 0.930 . S
N131 C129 1.314 . S
N131 C130 1.279 . S
C132 C134 1.353 . S
C132 N135 1.314 . S
C132 H138 0.930 . S
C133 N135 1.279 . S
C133 C136 1.358 . S
C133 H139 0.930 . S
C134 C132 1.353 . S
C134 C137 1.348 . S
C134 H172 0.929 . S
N135 Li90 1.990 . S
N135 C132 1.314 . S
N135 C133 1.279 . S
C136 C133 1.358 . S
C136 C137 1.356 . S
C136 H173 0.930 . S
C137 C134 1.348 . S
C137 C136 1.356 . S
H138 C132 0.930 . S
H139 C133 0.930 . S
C140 N141 1.314 . S
C140 C142 1.331 1_455 S
C140 H146 0.930 . S
N141 Li91 1.990 . S
N141 C140 1.314 . S
N141 C144 1.279 . S
C142 C140 1.331 1_655 S
C142 C145 1.356 . S
C142 H174 0.943 . S
C143 C144 1.358 . S
C143 C145 1.356 1_455 S
C143 H175 0.930 1_455 S
C144 N141 1.279 . S
C144 C143 1.358 . S
C144 H147 0.930 . S
C145 C142 1.356 . S
C145 C143 1.356 1_655 S
H146 C140 0.930 . S
H147 C144 0.930 . S
O148 Li88 1.956 . S
O148 Li89 1.970 . S
O148 Li90 1.961 . S
O148 C92 1.325 . S
O149 Li88 1.970 . S
O149 Li89 1.956 . S
O149 Li91 1.961 . S
O149 C98 1.325 . S
O150 Li88 1.961 . S
O150 Li90 1.956 . S
O150 Li91 1.970 . S
O150 C120 1.325 . S
O151 Li89 1.961 . S
O151 Li90 1.970 . S
O151 Li91 1.956 . S
O151 C126 1.325 . S
H152 C94 0.929 . S
H153 C95 0.930 . S
H154 C96 0.930 . S
H155 C97 0.930 . S
H156 C99 0.930 . S
H157 C101 0.929 . S
H158 C102 0.930 . S
H159 C103 0.930 . S
H160 C106 0.930 . S
H161 C109 0.929 . S
H162 C114 0.929 . S
H163 C115 0.930 . S
H164 C122 0.929 . S
H165 C123 0.930 . S
H166 C124 0.930 . S
H167 C125 0.930 . S
H168 C127 0.929 . S
H169 C128 0.930 . S
H170 C129 0.930 . S
H171 C130 0.930 . S
H172 C134 0.929 . S
H173 C136 0.930 . S
H174 C142 0.943 . S
H175 C143 0.930 1_655 S
Li176 N193 1.990 . S
Li176 O236 1.956 . S
Li176 O237 1.970 . S
Li176 O238 1.961 . S
Li177 N201 1.990 . S
Li177 O236 1.970 . S
Li177 O237 1.956 . S
Li177 O239 1.961 . S
Li178 N223 1.990 . S
Li178 O236 1.961 . S
Li178 O238 1.956 . S
Li178 O239 1.970 . S
Li179 N229 1.990 . S
Li179 O237 1.961 . S
Li179 O238 1.970 . S
Li179 O239 1.956 . S
C180 C182 1.348 . S
C180 C183 1.356 . S
C180 O236 1.325 . S
N181 C184 1.314 . S
N181 C185 1.279 . S
C182 C180 1.348 . S
C182 C184 1.353 . S
C182 H240 0.929 . S
C183 C180 1.356 . S
C183 C185 1.358 . S
C183 H241 0.930 . S
C184 N181 1.314 . S
C184 C182 1.353 . S
C184 H242 0.930 . S
C185 N181 1.279 . S
C185 C183 1.358 . S
C185 H243 0.930 . S
C186 C189 1.348 . S
C186 C190 1.356 . S
C186 O237 1.325 . S
C187 N188 1.279 . S
C187 C190 1.358 . S
C187 H244 0.930 . S
N188 C187 1.279 . S
N188 C191 1.314 . S
C189 C186 1.348 . S
C189 C191 1.353 . S
C189 H245 0.929 . S
C190 C186 1.356 . S
C190 C187 1.358 . S
C190 H246 0.930 . S
C191 N188 1.314 . S
C191 C189 1.353 . S
C191 H247 0.930 . S
C192 N193 1.314 . S
C192 C197 1.353 . S
C192 H198 0.930 . S
N193 Li176 1.990 . S
N193 C192 1.314 . S
N193 C195 1.279 . S
C194 C195 1.358 . S
C194 C196 1.356 . S
C194 H248 0.930 . S
C195 N193 1.279 . S
C195 C194 1.358 . S
C195 H199 0.930 . S
C196 C194 1.356 . S
C196 C197 1.348 . S
C197 C192 1.353 . S
C197 C196 1.348 . S
C197 H249 0.929 . S
H198 C192 0.930 . S
H199 C195 0.930 . S
C200 N201 1.314 . S
C200 C202 1.353 . S
C200 H206 0.930 . S
N201 Li177 1.990 . S
N201 C200 1.314 . S
N201 C204 1.279 . S
C202 C200 1.353 . S
C202 C205 1.348 . S
C202 H250 0.929 . S
C203 C204 1.358 . S
C203 C205 1.356 . S
C203 H251 0.930 . S
C204 N201 1.279 . S
C204 C203 1.358 . S
C204 H207 0.930 . S
C205 C202 1.348 . S
C205 C203 1.356 . S
H206 C200 0.930 . S
H207 C204 0.930 . S
C208 C210 1.348 . S
C208 C211 1.356 . S
C208 O238 1.325 . S
N209 C212 1.314 . S
N209 C213 1.279 . S
C210 C208 1.348 . S
C210 C212 1.353 . S
C210 H252 0.929 . S
C211 C208 1.356 . S
C211 C213 1.358 . S
C211 H253 0.930 . S
C212 N209 1.314 . S
C212 C210 1.353 . S
C212 H254 0.930 . S
C213 N209 1.279 . S
C213 C211 1.358 . S
C213 H255 0.930 . S
C214 C215 1.348 . S
C214 C216 1.356 . S
C214 O239 1.325 . S
C215 C214 1.348 . S
C215 C217 1.353 . S
C215 H256 0.929 . S
C216 C214 1.356 . S
C216 C218 1.358 . S
C216 H257 0.930 . S
C217 C215 1.353 . S
C217 N219 1.314 . S
C217 H258 0.930 . S
C218 C216 1.358 . S
C218 N219 1.279 . S
C218 H259 0.930 . S
N219 C217 1.314 . S
N219 C218 1.279 . S
C220 C222 1.353 . S
C220 N223 1.314 . S
C220 H226 0.930 . S
C221 N223 1.279 . S
C221 C224 1.358 . S
C221 H227 0.930 . S
C222 C220 1.353 . S
C222 C225 1.348 . S
C222 H260 0.929 . S
N223 Li178 1.990 . S
N223 C220 1.314 . S
N223 C221 1.279 . S
C224 C221 1.358 . S
C224 C225 1.356 . S
C224 H261 0.930 . S
C225 C222 1.348 . S
C225 C224 1.356 . S
H226 C220 0.930 . S
H227 C221 0.930 . S
C228 N229 1.314 . S
C228 C230 1.353 . S
C228 H234 0.930 . S
N229 Li179 1.990 . S
N229 C228 1.314 . S
N229 C232 1.279 . S
C230 C228 1.353 . S
C230 C233 1.348 . S
C230 H262 0.929 . S
C231 C232 1.358 . S
C231 C233 1.356 . S
C231 H263 0.930 . S
C232 N229 1.279 . S
C232 C231 1.358 . S
C232 H235 0.930 . S
C233 C230 1.348 . S
C233 C231 1.356 . S
H234 C228 0.930 . S
H235 C232 0.930 . S
O236 Li176 1.956 . S
O236 Li177 1.970 . S
O236 Li178 1.961 . S
O236 C180 1.325 . S
O237 Li176 1.970 . S
O237 Li177 1.956 . S
O237 Li179 1.961 . S
O237 C186 1.325 . S
O238 Li176 1.961 . S
O238 Li178 1.956 . S
O238 Li179 1.970 . S
O238 C208 1.325 . S
O239 Li177 1.961 . S
O239 Li178 1.970 . S
O239 Li179 1.956 . S
O239 C214 1.325 . S
H240 C182 0.929 . S
H241 C183 0.930 . S
H242 C184 0.930 . S
H243 C185 0.930 . S
H244 C187 0.930 . S
H245 C189 0.929 . S
H246 C190 0.930 . S
H247 C191 0.930 . S
H248 C194 0.930 . S
H249 C197 0.929 . S
H250 C202 0.929 . S
H251 C203 0.930 . S
H252 C210 0.929 . S
H253 C211 0.930 . S
H254 C212 0.930 . S
H255 C213 0.930 . S
H256 C215 0.929 . S
H257 C216 0.930 . S
H258 C217 0.930 . S
H259 C218 0.930 . S
H260 C222 0.929 . S
H261 C224 0.930 . S
H262 C230 0.929 . S
H263 C231 0.930 . S
Li264 N281 1.990 . S
Li264 O324 1.956 . S
Li264 O325 1.970 . S
Li264 O326 1.961 . S
Li265 N289 1.990 . S
Li265 O324 1.970 . S
Li265 O325 1.956 . S
Li265 O327 1.961 . S
Li266 N311 1.990 . S
Li266 O324 1.961 . S
Li266 O326 1.956 . S
Li266 O327 1.970 . S
Li267 N317 1.990 . S
Li267 O325 1.961 . S
Li267 O326 1.970 . S
Li267 O327 1.956 . S
C268 C270 1.348 . S
C268 C271 1.356 . S
C268 O324 1.325 . S
N269 C272 1.314 . S
N269 C273 1.279 . S
C270 C268 1.348 . S
C270 C272 1.353 . S
C270 H328 0.929 . S
C271 C268 1.356 . S
C271 C273 1.358 . S
C271 H329 0.930 . S
C272 N269 1.314 . S
C272 C270 1.353 . S
C272 H330 0.930 . S
C273 N269 1.279 . S
C273 C271 1.358 . S
C273 H331 0.930 . S
C274 C277 1.348 . S
C274 C278 1.356 . S
C274 O325 1.325 . S
C275 N276 1.279 . S
C275 C278 1.358 . S
C275 H332 0.930 . S
N276 C275 1.279 . S
N276 C279 1.314 . S
C277 C274 1.348 . S
C277 C279 1.353 . S
C277 H333 0.929 . S
C278 C274 1.356 . S
C278 C275 1.358 . S
C278 H334 0.930 . S
C279 N276 1.314 . S
C279 C277 1.353 . S
C279 H335 0.930 . S
C280 N281 1.314 . S
C280 C285 1.353 . S
C280 H286 0.930 . S
N281 Li264 1.990 . S
N281 C280 1.314 . S
N281 C283 1.279 . S
C282 C283 1.358 . S
C282 C284 1.356 . S
C282 H336 0.930 . S
C283 N281 1.279 . S
C283 C282 1.358 . S
C283 H287 0.930 . S
C284 C282 1.356 . S
C284 C285 1.348 . S
C285 C280 1.353 . S
C285 C284 1.348 . S
C285 H337 0.929 . S
H286 C280 0.930 . S
H287 C283 0.930 . S
C288 N289 1.314 . S
C288 C290 1.353 . S
C288 H294 0.930 . S
N289 Li265 1.990 . S
N289 C288 1.314 . S
N289 C292 1.279 . S
C290 C288 1.353 . S
C290 C293 1.348 . S
C290 H338 0.929 . S
C291 C292 1.358 . S
C291 C293 1.356 . S
C291 H339 0.930 . S
C292 N289 1.279 . S
C292 C291 1.358 . S
C292 H295 0.930 . S
C293 C290 1.348 . S
C293 C291 1.356 . S
H294 C288 0.930 . S
H295 C292 0.930 . S
C296 C298 1.348 . S
C296 C299 1.356 . S
C296 O326 1.325 . S
N297 C300 1.314 . S
N297 C301 1.279 . S
C298 C296 1.348 . S
C298 C300 1.353 . S
C298 H340 0.929 . S
C299 C296 1.356 . S
C299 C301 1.358 . S
C299 H341 0.930 . S
C300 N297 1.314 . S
C300 C298 1.353 . S
C300 H342 0.930 . S
C301 N297 1.279 . S
C301 C299 1.358 . S
C301 H343 0.930 . S
C302 C303 1.348 . S
C302 C304 1.356 . S
C302 O327 1.325 . S
C303 C302 1.348 . S
C303 C305 1.353 . S
C303 H344 0.929 . S
C304 C302 1.356 . S
C304 C306 1.358 . S
C304 H345 0.930 . S
C305 C303 1.353 . S
C305 N307 1.314 . S
C305 H346 0.930 . S
C306 C304 1.358 . S
C306 N307 1.279 . S
C306 H347 0.930 . S
N307 C305 1.314 . S
N307 C306 1.279 . S
C308 C310 1.353 . S
C308 N311 1.314 . S
C308 H314 0.930 . S
C309 N311 1.279 . S
C309 C312 1.358 . S
C309 H315 0.930 . S
C310 C308 1.353 . S
C310 C313 1.348 . S
C310 H348 0.929 . S
N311 Li266 1.990 . S
N311 C308 1.314 . S
N311 C309 1.279 . S
C312 C309 1.358 . S
C312 C313 1.356 . S
C312 H349 0.930 . S
C313 C310 1.348 . S
C313 C312 1.356 . S
H314 C308 0.930 . S
H315 C309 0.930 . S
C316 N317 1.314 . S
C316 C318 1.353 . S
C316 H322 0.930 . S
N317 Li267 1.990 . S
N317 C316 1.314 . S
N317 C320 1.279 . S
C318 C316 1.353 . S
C318 C321 1.348 . S
C318 H350 0.929 . S
C319 C320 1.358 . S
C319 C321 1.356 . S
C319 H351 0.930 . S
C320 N317 1.279 . S
C320 C319 1.358 . S
C320 H323 0.930 . S
C321 C318 1.348 . S
C321 C319 1.356 . S
H322 C316 0.930 . S
H323 C320 0.930 . S
O324 Li264 1.956 . S
O324 Li265 1.970 . S
O324 Li266 1.961 . S
O324 C268 1.325 . S
O325 Li264 1.970 . S
O325 Li265 1.956 . S
O325 Li267 1.961 . S
O325 C274 1.325 . S
O326 Li264 1.961 . S
O326 Li266 1.956 . S
O326 Li267 1.970 . S
O326 C296 1.325 . S
O327 Li265 1.961 . S
O327 Li266 1.970 . S
O327 Li267 1.956 . S
O327 C302 1.325 . S
H328 C270 0.929 . S
H329 C271 0.930 . S
H330 C272 0.930 . S
H331 C273 0.930 . S
H332 C275 0.930 . S
H333 C277 0.929 . S
H334 C278 0.930 . S
H335 C279 0.930 . S
H336 C282 0.930 . S
H337 C285 0.929 . S
H338 C290 0.929 . S
H339 C291 0.930 . S
H340 C298 0.929 . S
H341 C299 0.930 . S
H342 C300 0.930 . S
H343 C301 0.930 . S
H344 C303 0.929 . S
H345 C304 0.930 . S
H346 C305 0.930 . S
H347 C306 0.930 . S
H348 C310 0.929 . S
H349 C312 0.930 . S
H350 C318 0.929 . S
H351 C319 0.930 . S
Li352 N369 1.990 . S
Li352 O412 1.956 . S
Li352 O413 1.970 . S
Li352 O414 1.961 . S
Li353 N377 1.990 . S
Li353 O412 1.970 . S
Li353 O413 1.956 . S
Li353 O415 1.961 . S
Li354 N399 1.990 . S
Li354 O412 1.961 . S
Li354 O414 1.956 . S
Li354 O415 1.970 . S
Li355 N405 1.990 . S
Li355 O413 1.961 . S
Li355 O414 1.970 . S
Li355 O415 1.956 . S
C356 C358 1.348 . S
C356 C359 1.356 . S
C356 O412 1.325 . S
N357 C360 1.314 . S
N357 C361 1.279 . S
C358 C356 1.348 . S
C358 C360 1.353 . S
C358 H416 0.929 . S
C359 C356 1.356 . S
C359 C361 1.358 . S
C359 H417 0.930 . S
C360 N357 1.314 . S
C360 C358 1.353 . S
C360 H418 0.930 . S
C361 N357 1.279 . S
C361 C359 1.358 . S
C361 H419 0.930 . S
C362 C365 1.348 . S
C362 C366 1.356 . S
C362 O413 1.325 . S
C363 N364 1.279 . S
C363 C366 1.358 . S
C363 H420 0.930 . S
N364 C363 1.279 . S
N364 C367 1.314 . S
C365 C362 1.348 . S
C365 C367 1.353 . S
C365 H421 0.929 . S
C366 C362 1.356 . S
C366 C363 1.358 . S
C366 H422 0.930 . S
C367 N364 1.314 . S
C367 C365 1.353 . S
C367 H423 0.930 . S
C368 N369 1.314 . S
C368 C373 1.353 . S
C368 H374 0.930 . S
N369 Li352 1.990 . S
N369 C368 1.314 . S
N369 C371 1.279 . S
C370 C371 1.358 . S
C370 C372 1.356 . S
C370 H424 0.930 . S
C371 N369 1.279 . S
C371 C370 1.358 . S
C371 H375 0.930 . S
C372 C370 1.356 . S
C372 C373 1.348 . S
C373 C368 1.353 . S
C373 C372 1.348 . S
C373 H425 0.929 . S
H374 C368 0.930 . S
H375 C371 0.930 . S
C376 N377 1.314 . S
C376 C378 1.353 . S
C376 H382 0.930 . S
N377 Li353 1.990 . S
N377 C376 1.314 . S
N377 C380 1.279 . S
C378 C376 1.353 . S
C378 C381 1.348 . S
C378 H426 0.929 . S
C379 C380 1.358 . S
C379 C381 1.356 . S
C379 H427 0.930 . S
C380 N377 1.279 . S
C380 C379 1.358 . S
C380 H383 0.930 . S
C381 C378 1.348 . S
C381 C379 1.356 . S
H382 C376 0.930 . S
H383 C380 0.930 . S
C384 C386 1.348 1_455 S
C384 C387 1.356 . S
C384 O414 1.325 . S
N385 C388 1.314 . S
N385 C389 1.279 . S
C386 C384 1.348 1_655 S
C386 C388 1.353 . S
C386 H428 0.929 . S
C387 C384 1.356 . S
C387 C389 1.358 1_455 S
C387 H429 0.930 . S
C388 N385 1.314 . S
C388 C386 1.353 . S
C388 H430 0.930 . S
C389 N385 1.279 . S
C389 C387 1.358 1_655 S
C389 H431 0.930 . S
C390 C391 1.348 . S
C390 C392 1.356 . S
C390 O415 1.325 . S
C391 C390 1.348 . S
C391 C393 1.353 . S
C391 H432 0.929 . S
C392 C390 1.356 . S
C392 C394 1.358 . S
C392 H433 0.930 . S
C393 C391 1.353 . S
C393 N395 1.314 . S
C393 H434 0.930 . S
C394 C392 1.358 . S
C394 N395 1.279 . S
C394 H435 0.930 . S
N395 C393 1.314 . S
N395 C394 1.279 . S
C396 C398 1.353 . S
C396 N399 1.314 . S
C396 H402 0.930 . S
C397 N399 1.279 . S
C397 C400 1.358 . S
C397 H403 0.930 . S
C398 C396 1.353 . S
C398 C401 1.348 . S
C398 H436 0.929 . S
N399 Li354 1.990 . S
N399 C396 1.314 . S
N399 C397 1.279 . S
C400 C397 1.358 . S
C400 C401 1.356 . S
C400 H437 0.930 . S
C401 C398 1.348 . S
C401 C400 1.356 . S
H402 C396 0.930 . S
H403 C397 0.930 . S
C404 N405 1.314 . S
C404 C406 1.353 1_455 S
C404 H410 0.930 . S
N405 Li355 1.990 . S
N405 C404 1.314 . S
N405 C408 1.279 . S
C406 C404 1.353 1_655 S
C406 C409 1.348 . S
C406 H438 0.929 . S
C407 C408 1.358 1_655 S
C407 C409 1.356 . S
C407 H439 0.930 . S
C408 N405 1.279 . S
C408 C407 1.358 1_455 S
C408 H411 0.930 . S
C409 C406 1.348 . S
C409 C407 1.356 . S
H410 C404 0.930 . S
H411 C408 0.930 . S
O412 Li352 1.956 . S
O412 Li353 1.970 . S
O412 Li354 1.961 . S
O412 C356 1.325 . S
O413 Li352 1.970 . S
O413 Li353 1.956 . S
O413 Li355 1.961 . S
O413 C362 1.325 . S
O414 Li352 1.961 . S
O414 Li354 1.956 . S
O414 Li355 1.970 . S
O414 C384 1.325 . S
O415 Li353 1.961 . S
O415 Li354 1.970 . S
O415 Li355 1.956 . S
O415 C390 1.325 . S
H416 C358 0.929 . S
H417 C359 0.930 . S
H418 C360 0.930 . S
H419 C361 0.930 . S
H420 C363 0.930 . S
H421 C365 0.929 . S
H422 C366 0.930 . S
H423 C367 0.930 . S
H424 C370 0.930 . S
H425 C373 0.929 . S
H426 C378 0.929 . S
H427 C379 0.930 . S
H428 C386 0.929 . S
H429 C387 0.930 . S
H430 C388 0.930 . S
H431 C389 0.930 . S
H432 C391 0.929 . S
H433 C392 0.930 . S
H434 C393 0.930 . S
H435 C394 0.930 . S
H436 C398 0.929 . S
H437 C400 0.930 . S
H438 C406 0.929 . S
H439 C407 0.930 . S
Li440 N457 1.990 . S
Li440 O500 1.956 . S
Li440 O501 1.970 . S
Li440 O502 1.961 . S
Li441 N465 1.990 . S
Li441 O500 1.970 . S
Li441 O501 1.956 . S
Li441 O503 1.961 . S
Li442 N487 1.990 . S
Li442 O500 1.961 . S
Li442 O502 1.956 . S
Li442 O503 1.970 . S
Li443 N493 1.990 . S
Li443 O501 1.961 . S
Li443 O502 1.970 . S
Li443 O503 1.956 . S
C444 C446 1.348 . S
C444 C447 1.356 . S
C444 O500 1.325 . S
N445 C448 1.314 . S
N445 C449 1.279 . S
C446 C444 1.348 . S
C446 C448 1.353 . S
C446 H504 0.929 . S
C447 C444 1.356 . S
C447 C449 1.358 . S
C447 H505 0.930 . S
C448 N445 1.314 . S
C448 C446 1.353 . S
C448 H506 0.930 . S
C449 N445 1.279 . S
C449 C447 1.358 . S
C449 H507 0.930 . S
C450 C453 1.348 . S
C450 C454 1.356 . S
C450 O501 1.325 . S
C451 N452 1.279 . S
C451 C454 1.358 . S
C451 H508 0.930 . S
N452 C451 1.279 . S
N452 C455 1.314 . S
C453 C450 1.348 . S
C453 C455 1.353 . S
C453 H509 0.929 . S
C454 C450 1.356 . S
C454 C451 1.358 . S
C454 H510 0.930 . S
C455 N452 1.314 . S
C455 C453 1.353 . S
C455 H511 0.930 . S
C456 N457 1.314 . S
C456 C461 1.353 . S
C456 H462 0.930 . S
N457 Li440 1.990 . S
N457 C456 1.314 . S
N457 C459 1.279 . S
C458 C459 1.358 . S
C458 C460 1.356 . S
C458 H512 0.930 . S
C459 N457 1.279 . S
C459 C458 1.358 . S
C459 H463 0.930 . S
C460 C458 1.356 . S
C460 C461 1.348 . S
C461 C456 1.353 . S
C461 C460 1.348 . S
C461 H513 0.929 . S
H462 C456 0.930 . S
H463 C459 0.930 . S
C464 N465 1.314 . S
C464 C466 1.353 . S
C464 H470 0.930 . S
N465 Li441 1.990 . S
N465 C464 1.314 . S
N465 C468 1.279 . S
C466 C464 1.353 . S
C466 C469 1.348 . S
C466 H514 0.929 . S
C467 C468 1.358 . S
C467 C469 1.356 . S
C467 H515 0.930 . S
C468 N465 1.279 . S
C468 C467 1.358 . S
C468 H471 0.930 . S
C469 C466 1.348 . S
C469 C467 1.356 . S
H470 C464 0.930 . S
H471 C468 0.930 . S
C472 C474 1.348 . S
C472 C475 1.356 . S
C472 O502 1.325 . S
N473 C476 1.314 . S
N473 C477 1.279 . S
C474 C472 1.348 . S
C474 C476 1.353 . S
C474 H516 0.929 . S
C475 C472 1.356 . S
C475 C477 1.358 . S
C475 H517 0.930 . S
C476 N473 1.314 . S
C476 C474 1.353 . S
C476 H518 0.930 . S
C477 N473 1.279 . S
C477 C475 1.358 . S
C477 H519 0.930 . S
C478 C479 1.348 . S
C478 C480 1.356 . S
C478 O503 1.325 . S
C479 C478 1.348 . S
C479 C481 1.353 . S
C479 H520 0.929 . S
C480 C478 1.356 . S
C480 C482 1.358 . S
C480 H521 0.930 . S
C481 C479 1.353 . S
C481 N483 1.314 . S
C481 H522 0.930 . S
C482 C480 1.358 . S
C482 N483 1.279 . S
C482 H523 0.930 . S
N483 C481 1.314 . S
N483 C482 1.279 . S
C484 C486 1.353 . S
C484 N487 1.314 . S
C484 H490 0.930 . S
C485 N487 1.279 . S
C485 C488 1.358 . S
C485 H491 0.930 . S
C486 C484 1.353 . S
C486 C489 1.348 . S
C486 H524 0.929 . S
N487 Li442 1.990 . S
N487 C484 1.314 . S
N487 C485 1.279 . S
C488 C485 1.358 . S
C488 C489 1.356 . S
C488 H525 0.930 . S
C489 C486 1.348 . S
C489 C488 1.356 . S
H490 C484 0.930 . S
H491 C485 0.930 . S
C492 N493 1.314 . S
C492 C494 1.353 . S
C492 H498 0.930 . S
N493 Li443 1.990 . S
N493 C492 1.314 . S
N493 C496 1.279 . S
C494 C492 1.353 . S
C494 C497 1.348 . S
C494 H526 0.929 . S
C495 C496 1.358 . S
C495 C497 1.356 . S
C495 H527 0.930 . S
C496 N493 1.279 . S
C496 C495 1.358 . S
C496 H499 0.930 . S
C497 C494 1.348 . S
C497 C495 1.356 . S
H498 C492 0.930 . S
H499 C496 0.930 . S
O500 Li440 1.956 . S
O500 Li441 1.970 . S
O500 Li442 1.961 . S
O500 C444 1.325 . S
O501 Li440 1.970 . S
O501 Li441 1.956 . S
O501 Li443 1.961 . S
O501 C450 1.325 . S
O502 Li440 1.961 . S
O502 Li442 1.956 . S
O502 Li443 1.970 . S
O502 C472 1.325 . S
O503 Li441 1.961 . S
O503 Li442 1.970 . S
O503 Li443 1.956 . S
O503 C478 1.325 . S
H504 C446 0.929 . S
H505 C447 0.930 . S
H506 C448 0.930 . S
H507 C449 0.930 . S
H508 C451 0.930 . S
H509 C453 0.929 . S
H510 C454 0.930 . S
H511 C455 0.930 . S
H512 C458 0.930 . S
H513 C461 0.929 . S
H514 C466 0.929 . S
H515 C467 0.930 . S
H516 C474 0.929 . S
H517 C475 0.930 . S
H518 C476 0.930 . S
H519 C477 0.930 . S
H520 C479 0.929 . S
H521 C480 0.930 . S
H522 C481 0.930 . S
H523 C482 0.930 . S
H524 C486 0.929 . S
H525 C488 0.930 . S
H526 C494 0.929 . S
H527 C495 0.930 . S
Li528 N545 1.990 . S
Li528 O588 1.956 . S
Li528 O589 1.970 . S
Li528 O590 1.961 . S
Li529 N553 1.990 . S
Li529 O588 1.970 . S
Li529 O589 1.956 . S
Li529 O591 1.961 . S
Li530 N575 1.990 . S
Li530 O588 1.961 . S
Li530 O590 1.956 . S
Li530 O591 1.970 . S
Li531 N581 1.990 . S
Li531 O589 1.961 . S
Li531 O590 1.970 . S
Li531 O591 1.956 . S
C532 C534 1.348 . S
C532 C535 1.356 . S
C532 O588 1.325 . S
N533 C536 1.314 . S
N533 C537 1.279 . S
C534 C532 1.348 . S
C534 C536 1.353 . S
C534 H592 0.929 . S
C535 C532 1.356 . S
C535 C537 1.358 . S
C535 H593 0.930 . S
C536 N533 1.314 . S
C536 C534 1.353 . S
C536 H594 0.930 . S
C537 N533 1.279 . S
C537 C535 1.358 . S
C537 H595 0.930 . S
C538 C541 1.348 . S
C538 C542 1.356 . S
C538 O589 1.325 . S
C539 N540 1.279 . S
C539 C542 1.358 . S
C539 H596 0.930 . S
N540 C539 1.279 . S
N540 C543 1.314 . S
C541 C538 1.348 . S
C541 C543 1.353 . S
C541 H597 0.929 . S
C542 C538 1.356 . S
C542 C539 1.358 . S
C542 H598 0.930 . S
C543 N540 1.314 . S
C543 C541 1.353 . S
C543 H599 0.930 . S
C544 N545 1.314 . S
C544 C549 1.353 . S
C544 H550 0.930 . S
N545 Li528 1.990 . S
N545 C544 1.314 . S
N545 C547 1.279 . S
C546 C547 1.358 . S
C546 C548 1.356 . S
C546 H600 0.930 . S
C547 N545 1.279 . S
C547 C546 1.358 . S
C547 H551 0.930 . S
C548 C546 1.356 . S
C548 C549 1.348 . S
C549 C544 1.353 . S
C549 C548 1.348 . S
C549 H601 0.929 . S
H550 C544 0.930 . S
H551 C547 0.930 . S
C552 N553 1.314 . S
C552 C554 1.353 . S
C552 H558 0.930 . S
N553 Li529 1.990 . S
N553 C552 1.314 . S
N553 C556 1.279 . S
C554 C552 1.353 . S
C554 C557 1.348 . S
C554 H602 0.929 . S
C555 C556 1.358 . S
C555 C557 1.356 . S
C555 H603 0.930 . S
C556 N553 1.279 . S
C556 C555 1.358 . S
C556 H559 0.930 . S
C557 C554 1.348 . S
C557 C555 1.356 . S
H558 C552 0.930 . S
H559 C556 0.930 . S
C560 C562 1.348 . S
C560 C563 1.356 . S
C560 O590 1.325 . S
N561 C564 1.314 . S
N561 C565 1.279 . S
C562 C560 1.348 . S
C562 C564 1.353 . S
C562 H604 0.929 . S
C563 C560 1.356 . S
C563 C565 1.358 . S
C563 H605 0.930 . S
C564 N561 1.314 . S
C564 C562 1.353 . S
C564 H606 0.930 . S
C565 N561 1.279 . S
C565 C563 1.358 . S
C565 H607 0.930 . S
C566 C567 1.348 . S
C566 C568 1.356 . S
C566 O591 1.325 . S
C567 C566 1.348 . S
C567 C569 1.353 . S
C567 H608 0.929 . S
C568 C566 1.356 . S
C568 C570 1.358 . S
C568 H609 0.930 . S
C569 C567 1.353 . S
C569 N571 1.314 . S
C569 H610 0.930 . S
C570 C568 1.358 . S
C570 N571 1.279 . S
C570 H611 0.930 . S
N571 C569 1.314 . S
N571 C570 1.279 . S
C572 C574 1.353 . S
C572 N575 1.314 . S
C572 H578 0.930 . S
C573 N575 1.279 . S
C573 C576 1.358 . S
C573 H579 0.930 . S
C574 C572 1.353 . S
C574 C577 1.348 . S
C574 H612 0.929 . S
N575 Li530 1.990 . S
N575 C572 1.314 . S
N575 C573 1.279 . S
C576 C573 1.358 . S
C576 C577 1.356 . S
C576 H613 0.930 . S
C577 C574 1.348 . S
C577 C576 1.356 . S
H578 C572 0.930 . S
H579 C573 0.930 . S
C580 N581 1.314 . S
C580 C582 1.353 . S
C580 H586 0.930 . S
N581 Li531 1.990 . S
N581 C580 1.314 . S
N581 C584 1.279 . S
C582 C580 1.353 . S
C582 C585 1.348 . S
C582 H614 0.929 . S
C583 C584 1.358 . S
C583 C585 1.356 . S
C583 H615 0.930 . S
C584 N581 1.279 . S
C584 C583 1.358 . S
C584 H587 0.930 . S
C585 C582 1.348 . S
C585 C583 1.356 . S
H586 C580 0.930 . S
H587 C584 0.930 . S
O588 Li528 1.956 . S
O588 Li529 1.970 . S
O588 Li530 1.961 . S
O588 C532 1.325 . S
O589 Li528 1.970 . S
O589 Li529 1.956 . S
O589 Li531 1.961 . S
O589 C538 1.325 . S
O590 Li528 1.961 . S
O590 Li530 1.956 . S
O590 Li531 1.970 . S
O590 C560 1.325 . S
O591 Li529 1.961 . S
O591 Li530 1.970 . S
O591 Li531 1.956 . S
O591 C566 1.325 . S
H592 C534 0.929 . S
H593 C535 0.930 . S
H594 C536 0.930 . S
H595 C537 0.930 . S
H596 C539 0.930 . S
H597 C541 0.929 . S
H598 C542 0.930 . S
H599 C543 0.930 . S
H600 C546 0.930 . S
H601 C549 0.929 . S
H602 C554 0.929 . S
H603 C555 0.930 . S
H604 C562 0.929 . S
H605 C563 0.930 . S
H606 C564 0.930 . S
H607 C565 0.930 . S
H608 C567 0.929 . S
H609 C568 0.930 . S
H610 C569 0.930 . S
H611 C570 0.930 . S
H612 C574 0.929 . S
H613 C576 0.930 . S
H614 C582 0.929 . S
H615 C583 0.930 . S
Li616 N633 1.990 . S
Li616 O676 1.956 1_455 S
Li616 O677 1.970 . S
Li616 O678 1.961 . S
Li617 N641 1.990 . S
Li617 O676 1.970 . S
Li617 O677 1.956 1_655 S
Li617 O679 1.961 1_655 S
Li618 N663 1.990 . S
Li618 O676 1.961 1_455 S
Li618 O678 1.956 . S
Li618 O679 1.970 . S
Li619 N669 1.990 . S
Li619 O677 1.961 . S
Li619 O678 1.970 . S
Li619 O679 1.956 . S
C620 C622 1.348 . S
C620 C623 1.356 . S
C620 O676 1.325 . S
N621 C624 1.314 . S
N621 C625 1.279 . S
C622 C620 1.348 . S
C622 C624 1.353 . S
C622 H680 0.929 . S
C623 C620 1.356 . S
C623 C625 1.358 . S
C623 H681 0.930 . S
C624 N621 1.314 . S
C624 C622 1.353 . S
C624 H682 0.930 . S
C625 N621 1.279 . S
C625 C623 1.358 . S
C625 H683 0.930 . S
C626 C629 1.348 . S
C626 C630 1.356 . S
C626 O677 1.325 . S
C627 N628 1.279 . S
C627 C630 1.358 . S
C627 H684 0.930 . S
N628 C627 1.279 . S
N628 C631 1.314 . S
C629 C626 1.348 . S
C629 C631 1.353 . S
C629 H685 0.929 . S
C630 C626 1.356 . S
C630 C627 1.358 . S
C630 H686 0.930 . S
C631 N628 1.314 . S
C631 C629 1.353 . S
C631 H687 0.930 . S
C632 N633 1.314 . S
C632 C637 1.353 . S
C632 H638 0.930 . S
N633 Li616 1.990 . S
N633 C632 1.314 . S
N633 C635 1.279 . S
C634 C635 1.358 . S
C634 C636 1.356 . S
C634 H688 0.972 . S
C635 N633 1.279 . S
C635 C634 1.358 . S
C635 H639 0.930 1_455 S
C636 C634 1.356 . S
C636 C637 1.348 . S
C637 C632 1.353 . S
C637 C636 1.348 . S
C637 H689 0.929 . S
H638 C632 0.930 . S
H639 C635 0.930 1_655 S
C640 N641 1.314 . S
C640 C642 1.353 . S
C640 H646 0.930 . S
N641 Li617 1.990 . S
N641 C640 1.314 . S
N641 C644 1.279 . S
C642 C640 1.353 . S
C642 C645 1.348 . S
C642 H690 0.929 . S
C643 C644 1.358 . S
C643 C645 1.356 . S
C643 H691 0.930 . S
C644 N641 1.279 . S
C644 C643 1.358 . S
C644 H647 0.930 . S
C645 C642 1.348 . S
C645 C643 1.356 . S
H646 C640 0.930 . S
H647 C644 0.930 . S
C648 C650 1.348 . S
C648 C651 1.356 . S
C648 O678 1.325 . S
N649 C652 1.314 . S
N649 C653 1.279 . S
C650 C648 1.348 . S
C650 C652 1.353 . S
C650 H692 0.929 . S
C651 C648 1.356 . S
C651 C653 1.358 . S
C651 H693 0.930 . S
C652 N649 1.314 . S
C652 C650 1.353 . S
C652 H694 0.930 . S
C653 N649 1.279 . S
C653 C651 1.358 . S
C653 H695 0.930 1_556 S
C654 C655 1.348 . S
C654 C656 1.356 . S
C654 O679 1.325 . S
C655 C654 1.348 . S
C655 C657 1.353 . S
C655 H696 0.929 . S
C656 C654 1.356 . S
C656 C658 1.361 1_455 S
C656 H697 0.930 1_455 S
C657 C655 1.353 . S
C657 N659 1.314 . S
C657 H698 0.930 . S
C658 C656 1.361 1_655 S
C658 N659 1.275 1_655 S
C658 H699 0.933 . S
N659 C657 1.314 . S
N659 C658 1.275 1_455 S
C660 C662 1.353 . S
C660 N663 1.314 1_655 S
C660 H666 0.930 . S
C661 N663 1.279 . S
C661 C664 1.358 . S
C661 H667 0.930 . S
C662 C660 1.353 . S
C662 C665 1.348 1_655 S
C662 H700 0.929 . S
N663 Li618 1.990 . S
N663 C660 1.314 1_455 S
N663 C661 1.279 . S
C664 C661 1.358 . S
C664 C665 1.356 . S
C664 H701 0.930 . S
C665 C662 1.348 1_455 S
C665 C664 1.356 . S
H666 C660 0.930 . S
H667 C661 0.930 . S
C668 N669 1.314 . S
C668 C670 1.353 . S
C668 H674 0.930 . S
N669 Li619 1.990 . S
N669 C668 1.314 . S
N669 C672 1.279 . S
C670 C668 1.353 . S
C670 C673 1.348 . S
C670 H702 0.929 . S
C671 C672 1.358 . S
C671 C673 1.356 . S
C671 H703 0.930 . S
C672 N669 1.279 . S
C672 C671 1.358 . S
C672 H675 0.930 . S
C673 C670 1.348 . S
C673 C671 1.356 . S
H674 C668 0.930 . S
H675 C672 0.930 . S
O676 Li616 1.956 1_655 S
O676 Li617 1.970 . S
O676 Li618 1.961 1_655 S
O676 C620 1.325 . S
O677 Li616 1.970 . S
O677 Li617 1.956 1_455 S
O677 Li619 1.961 . S
O677 C626 1.325 . S
O678 Li616 1.961 . S
O678 Li618 1.956 . S
O678 Li619 1.970 . S
O678 C648 1.325 . S
O679 Li617 1.961 1_455 S
O679 Li618 1.970 . S
O679 Li619 1.956 . S
O679 C654 1.325 . S
H680 C622 0.929 . S
H681 C623 0.930 . S
H682 C624 0.930 . S
H683 C625 0.930 . S
H684 C627 0.930 . S
H685 C629 0.929 . S
H686 C630 0.930 . S
H687 C631 0.930 . S
H688 C634 0.972 . S
H689 C637 0.929 . S
H690 C642 0.929 . S
H691 C643 0.930 . S
H692 C650 0.929 . S
H693 C651 0.930 . S
H694 C652 0.930 . S
H695 C653 0.930 1_554 S
H696 C655 0.929 . S
H697 C656 0.930 1_655 S
H698 C657 0.930 . S
H699 C658 0.933 . S
H700 C662 0.929 . S
H701 C664 0.930 . S
H702 C670 0.929 . S
H703 C671 0.930 . S
Li704 N721 1.990 . S
Li704 O764 1.956 1_545 S
Li704 O765 1.970 . S
Li704 O766 1.961 . S
Li705 N729 1.990 . S
Li705 O764 1.970 . S
Li705 O765 1.956 1_565 S
Li705 O767 1.961 1_565 S
Li706 N751 1.990 . S
Li706 O764 1.961 1_545 S
Li706 O766 1.956 . S
Li706 O767 1.970 . S
Li707 N757 1.990 . S
Li707 O765 1.961 . S
Li707 O766 1.970 . S
Li707 O767 1.956 . S
C708 C710 1.348 . S
C708 C711 1.356 . S
C708 O764 1.325 . S
N709 C712 1.314 . S
N709 C713 1.279 . S
C710 C708 1.348 . S
C710 C712 1.353 . S
C710 H768 0.929 . S
C711 C708 1.356 . S
C711 C713 1.358 . S
C711 H769 0.931 . S
C712 N709 1.314 . S
C712 C710 1.353 . S
C712 H770 0.930 . S
C713 N709 1.279 . S
C713 C711 1.358 . S
C713 H771 0.930 . S
C714 C717 1.348 . S
C714 C718 1.356 . S
C714 O765 1.325 . S
C715 N716 1.279 . S
C715 C718 1.358 . S
C715 H772 0.930 . S
N716 C715 1.279 . S
N716 C719 1.314 . S
C717 C714 1.348 . S
C717 C719 1.353 . S
C717 H773 0.929 . S
C718 C714 1.356 . S
C718 C715 1.358 . S
C718 H774 0.930 . S
C719 N716 1.314 . S
C719 C717 1.353 . S
C719 H775 0.930 . S
C720 N721 1.314 . S
C720 C725 1.353 . S
C720 H726 0.930 . S
N721 Li704 1.990 . S
N721 C720 1.314 . S
N721 C723 1.279 . S
C722 C723 1.358 . S
C722 C724 1.356 . S
C722 H776 0.930 . S
C723 N721 1.279 . S
C723 C722 1.358 . S
C723 H727 0.930 1_545 S
C724 C722 1.356 . S
C724 C725 1.348 . S
C725 C720 1.353 . S
C725 C724 1.348 . S
C725 H777 0.929 . S
H726 C720 0.930 . S
H727 C723 0.930 1_565 S
C728 N729 1.314 . S
C728 C730 1.353 . S
C728 H734 0.930 . S
N729 Li705 1.990 . S
N729 C728 1.314 . S
N729 C732 1.279 . S
C730 C728 1.353 . S
C730 C733 1.348 . S
C730 H778 0.929 . S
C731 C732 1.358 . S
C731 C733 1.356 . S
C731 H779 0.930 . S
C732 N729 1.279 . S
C732 C731 1.358 . S
C732 H735 0.930 . S
C733 C730 1.348 . S
C733 C731 1.356 . S
H734 C728 0.930 . S
H735 C732 0.930 . S
C736 C738 1.348 . S
C736 C739 1.356 . S
C736 O766 1.325 . S
N737 C740 1.314 . S
N737 C741 1.279 . S
C738 C736 1.348 . S
C738 C740 1.353 . S
C738 H780 0.929 . S
C739 C736 1.356 . S
C739 C741 1.358 . S
C739 H781 0.930 . S
C740 N737 1.314 . S
C740 C738 1.353 . S
C740 H782 0.930 . S
C741 N737 1.279 . S
C741 C739 1.358 . S
C741 H783 0.930 . S
C742 C743 1.348 . S
C742 C744 1.356 . S
C742 O767 1.325 . S
C743 C742 1.348 . S
C743 C745 1.353 . S
C743 H784 0.929 . S
C744 C742 1.356 . S
C744 C746 1.358 . S
C744 H785 0.930 . S
C745 C743 1.353 . S
C745 N747 1.314 . S
C745 H786 0.930 . S
C746 C744 1.358 . S
C746 N747 1.279 . S
C746 H787 0.930 1_545 S
N747 C745 1.314 . S
N747 C746 1.279 . S
C748 C750 1.353 . S
C748 N751 1.314 . S
C748 H754 0.930 1_545 S
C749 N751 1.279 . S
C749 C752 1.358 . S
C749 H755 0.930 . S
C750 C748 1.353 . S
C750 C753 1.348 . S
C750 H788 0.929 1_545 S
N751 Li706 1.990 . S
N751 C748 1.314 . S
N751 C749 1.279 . S
C752 C749 1.358 . S
C752 C753 1.356 . S
C752 H789 0.930 . S
C753 C750 1.348 . S
C753 C752 1.356 . S
H754 C748 0.930 1_565 S
H755 C749 0.930 . S
C756 N757 1.314 . S
C756 C758 1.353 . S
C756 H762 0.930 . S
N757 Li707 1.990 . S
N757 C756 1.314 . S
N757 C760 1.279 . S
C758 C756 1.353 . S
C758 C761 1.348 . S
C758 H790 0.929 . S
C759 C760 1.358 . S
C759 C761 1.356 . S
C759 H791 0.930 . S
C760 N757 1.279 . S
C760 C759 1.358 . S
C760 H763 0.930 . S
C761 C758 1.348 . S
C761 C759 1.356 . S
H762 C756 0.930 . S
H763 C760 0.930 . S
O764 Li704 1.956 1_565 S
O764 Li705 1.970 . S
O764 Li706 1.961 1_565 S
O764 C708 1.325 . S
O765 Li704 1.970 . S
O765 Li705 1.956 1_545 S
O765 Li707 1.961 . S
O765 C714 1.325 . S
O766 Li704 1.961 . S
O766 Li706 1.956 . S
O766 Li707 1.970 . S
O766 C736 1.325 . S
O767 Li705 1.961 1_545 S
O767 Li706 1.970 . S
O767 Li707 1.956 . S
O767 C742 1.325 . S
H768 C710 0.929 . S
H769 C711 0.931 . S
H770 C712 0.930 . S
H771 C713 0.930 . S
H772 C715 0.930 . S
H773 C717 0.929 . S
H774 C718 0.930 . S
H775 C719 0.930 . S
H776 C722 0.930 . S
H777 C725 0.929 . S
H778 C730 0.929 . S
H779 C731 0.930 . S
H780 C738 0.929 . S
H781 C739 0.930 . S
H782 C740 0.930 . S
H783 C741 0.930 . S
H784 C743 0.929 . S
H785 C744 0.930 . S
H786 C745 0.930 . S
H787 C746 0.930 1_565 S
H788 C750 0.929 1_565 S
H789 C752 0.930 . S
H790 C758 0.929 . S
H791 C759 0.930 . S
Li792 N809 1.990 . S
Li792 O852 1.956 . S
Li792 O853 1.970 . S
Li792 O854 1.961 . S
Li793 N817 1.990 . S
Li793 O852 1.970 . S
Li793 O853 1.956 . S
Li793 O855 1.961 . S
Li794 N839 1.990 . S
Li794 O852 1.961 . S
Li794 O854 1.956 . S
Li794 O855 1.970 . S
Li795 N845 1.990 . S
Li795 O853 1.961 . S
Li795 O854 1.970 . S
Li795 O855 1.956 . S
C796 C798 1.348 . S
C796 C799 1.356 . S
C796 O852 1.325 . S
N797 C800 1.314 . S
N797 C801 1.279 . S
C798 C796 1.348 . S
C798 C800 1.353 . S
C798 H856 0.929 . S
C799 C796 1.356 . S
C799 C801 1.358 . S
C799 H857 0.930 . S
C800 N797 1.314 . S
C800 C798 1.353 . S
C800 H858 0.930 . S
C801 N797 1.279 . S
C801 C799 1.358 . S
C801 H859 0.930 . S
C802 C805 1.348 . S
C802 C806 1.356 . S
C802 O853 1.325 . S
C803 N804 1.279 . S
C803 C806 1.358 . S
C803 H860 0.930 . S
N804 C803 1.279 . S
N804 C807 1.314 . S
C805 C802 1.348 . S
C805 C807 1.353 . S
C805 H861 0.929 . S
C806 C802 1.356 . S
C806 C803 1.358 . S
C806 H862 0.930 . S
C807 N804 1.314 . S
C807 C805 1.353 . S
C807 H863 0.930 . S
C808 N809 1.314 . S
C808 C813 1.353 . S
C808 H814 0.930 . S
N809 Li792 1.990 . S
N809 C808 1.314 . S
N809 C811 1.279 . S
C810 C811 1.358 . S
C810 C812 1.356 . S
C810 H864 0.930 . S
C811 N809 1.279 . S
C811 C810 1.358 . S
C811 H815 0.930 . S
C812 C810 1.356 . S
C812 C813 1.348 . S
C813 C808 1.353 . S
C813 C812 1.348 . S
C813 H865 0.929 . S
H814 C808 0.930 . S
H815 C811 0.930 . S
C816 N817 1.314 . S
C816 C818 1.353 . S
C816 H822 0.930 . S
N817 Li793 1.990 . S
N817 C816 1.314 . S
N817 C820 1.279 . S
C818 C816 1.353 . S
C818 C821 1.348 . S
C818 H866 0.929 . S
C819 C820 1.358 . S
C819 C821 1.356 . S
C819 H867 0.930 . S
C820 N817 1.279 . S
C820 C819 1.358 . S
C820 H823 0.930 . S
C821 C818 1.348 . S
C821 C819 1.356 . S
H822 C816 0.930 . S
H823 C820 0.930 . S
C824 C826 1.348 . S
C824 C827 1.356 . S
C824 O854 1.325 . S
N825 C828 1.314 . S
N825 C829 1.279 . S
C826 C824 1.348 . S
C826 C828 1.353 . S
C826 H868 0.929 . S
C827 C824 1.356 . S
C827 C829 1.358 . S
C827 H869 0.930 . S
C828 N825 1.314 . S
C828 C826 1.353 . S
C828 H870 0.930 . S
C829 N825 1.279 . S
C829 C827 1.358 . S
C829 H871 0.930 . S
C830 C831 1.348 . S
C830 C832 1.356 . S
C830 O855 1.325 . S
C831 C830 1.348 . S
C831 C833 1.353 . S
C831 H872 0.929 . S
C832 C830 1.356 . S
C832 C834 1.358 . S
C832 H873 0.930 . S
C833 C831 1.353 . S
C833 N835 1.314 . S
C833 H874 0.930 . S
C834 C832 1.358 . S
C834 N835 1.279 . S
C834 H875 0.930 . S
N835 C833 1.314 . S
N835 C834 1.279 . S
C836 C838 1.353 . S
C836 N839 1.314 . S
C836 H842 0.930 . S
C837 N839 1.279 . S
C837 C840 1.358 . S
C837 H843 0.930 . S
C838 C836 1.353 . S
C838 C841 1.348 . S
C838 H876 0.929 . S
N839 Li794 1.990 . S
N839 C836 1.314 . S
N839 C837 1.279 . S
C840 C837 1.358 . S
C840 C841 1.356 . S
C840 H877 0.930 . S
C841 C838 1.348 . S
C841 C840 1.356 . S
H842 C836 0.930 . S
H843 C837 0.930 . S
C844 N845 1.314 . S
C844 C846 1.353 . S
C844 H850 0.930 . S
N845 Li795 1.990 . S
N845 C844 1.314 . S
N845 C848 1.279 . S
C846 C844 1.353 . S
C846 C849 1.348 . S
C846 H878 0.929 . S
C847 C848 1.358 . S
C847 C849 1.356 . S
C847 H879 0.930 . S
C848 N845 1.279 . S
C848 C847 1.358 . S
C848 H851 0.930 . S
C849 C846 1.348 . S
C849 C847 1.356 . S
H850 C844 0.930 . S
H851 C848 0.930 . S
O852 Li792 1.956 . S
O852 Li793 1.970 . S
O852 Li794 1.961 . S
O852 C796 1.325 . S
O853 Li792 1.970 . S
O853 Li793 1.956 . S
O853 Li795 1.961 . S
O853 C802 1.325 . S
O854 Li792 1.961 . S
O854 Li794 1.956 . S
O854 Li795 1.970 . S
O854 C824 1.325 . S
O855 Li793 1.961 . S
O855 Li794 1.970 . S
O855 Li795 1.956 . S
O855 C830 1.325 . S
H856 C798 0.929 . S
H857 C799 0.930 . S
H858 C800 0.930 . S
H859 C801 0.930 . S
H860 C803 0.930 . S
H861 C805 0.929 . S
H862 C806 0.930 . S
H863 C807 0.930 . S
H864 C810 0.930 . S
H865 C813 0.929 . S
H866 C818 0.929 . S
H867 C819 0.930 . S
H868 C826 0.929 . S
H869 C827 0.930 . S
H870 C828 0.930 . S
H871 C829 0.930 . S
H872 C831 0.929 . S
H873 C832 0.930 . S
H874 C833 0.930 . S
H875 C834 0.930 . S
H876 C838 0.929 . S
H877 C840 0.930 . S
H878 C846 0.929 . S
H879 C847 0.930 . S
Li880 N897 1.990 . S
Li880 O940 1.956 . S
Li880 O941 1.970 . S
Li880 O942 1.961 . S
Li881 N905 1.990 . S
Li881 O940 1.970 . S
Li881 O941 1.956 . S
Li881 O943 1.961 . S
Li882 N927 1.990 1_545 S
Li882 O940 1.961 . S
Li882 O942 1.956 . S
Li882 O943 1.970 . S
Li883 N933 1.990 . S
Li883 O941 1.961 . S
Li883 O942 1.970 . S
Li883 O943 1.956 . S
C884 C886 1.348 . S
C884 C887 1.356 . S
C884 O940 1.325 . S
N885 C888 1.314 . S
N885 C889 1.279 . S
C886 C884 1.348 . S
C886 C888 1.353 . S
C886 H944 0.929 . S
C887 C884 1.356 . S
C887 C889 1.358 . S
C887 H945 0.930 . S
C888 N885 1.314 . S
C888 C886 1.353 . S
C888 H946 0.930 . S
C889 N885 1.279 . S
C889 C887 1.358 . S
C889 H947 0.930 . S
C890 C893 1.348 . S
C890 C894 1.356 . S
C890 O941 1.325 . S
C891 N892 1.279 . S
C891 C894 1.358 . S
C891 H948 0.930 . S
N892 C891 1.279 . S
N892 C895 1.314 . S
C893 C890 1.348 . S
C893 C895 1.353 . S
C893 H949 0.929 . S
C894 C890 1.356 . S
C894 C891 1.358 . S
C894 H950 0.930 . S
C895 N892 1.314 . S
C895 C893 1.353 . S
C895 H951 0.930 . S
C896 N897 1.314 . S
C896 C901 1.353 . S
C896 H902 0.930 . S
N897 Li880 1.990 . S
N897 C896 1.314 . S
N897 C899 1.279 . S
C898 C899 1.358 . S
C898 C900 1.356 . S
C898 H952 0.930 . S
C899 N897 1.279 . S
C899 C898 1.358 . S
C899 H903 0.930 . S
C900 C898 1.356 . S
C900 C901 1.348 . S
C901 C896 1.353 . S
C901 C900 1.348 . S
C901 H953 0.929 . S
H902 C896 0.930 . S
H903 C899 0.930 . S
C904 N905 1.314 . S
C904 C906 1.353 . S
C904 H910 0.930 1_545 S
N905 Li881 1.990 . S
N905 C904 1.314 . S
N905 C908 1.279 . S
C906 C904 1.353 . S
C906 C909 1.348 . S
C906 H954 0.929 1_545 S
C907 C908 1.358 . S
C907 C909 1.356 . S
C907 H955 0.930 . S
C908 N905 1.279 . S
C908 C907 1.358 . S
C908 H911 0.930 . S
C909 C906 1.348 . S
C909 C907 1.356 . S
H910 C904 0.930 1_565 S
H911 C908 0.930 . S
C912 C914 1.348 . S
C912 C915 1.356 . S
C912 O942 1.325 . S
N913 C916 1.314 . S
N913 C917 1.279 . S
C914 C912 1.348 . S
C914 C916 1.353 . S
C914 H956 0.929 . S
C915 C912 1.356 . S
C915 C917 1.358 . S
C915 H957 0.930 . S
C916 N913 1.314 . S
C916 C914 1.353 . S
C916 H958 0.930 . S
C917 N913 1.279 . S
C917 C915 1.358 . S
C917 H959 0.930 . S
C918 C919 1.348 . S
C918 C920 1.356 . S
C918 O943 1.325 1_565 S
C919 C918 1.348 . S
C919 C921 1.353 . S
C919 H960 0.929 . S
C920 C918 1.356 . S
C920 C922 1.358 . S
C920 H961 0.930 . S
C921 C919 1.353 . S
C921 N923 1.314 . S
C921 H962 0.930 . S
C922 C920 1.358 . S
C922 N923 1.279 . S
C922 H963 0.930 . S
N923 C921 1.314 . S
N923 C922 1.279 . S
C924 C926 1.353 . S
C924 N927 1.314 . S
C924 H930 0.930 . S
C925 N927 1.279 . S
C925 C928 1.358 . S
C925 H931 0.930 . S
C926 C924 1.353 . S
C926 C929 1.348 . S
C926 H964 0.929 . S
N927 Li882 1.990 1_565 S
N927 C924 1.314 . S
N927 C925 1.279 . S
C928 C925 1.358 . S
C928 C929 1.356 . S
C928 H965 0.930 . S
C929 C926 1.348 . S
C929 C928 1.356 . S
H930 C924 0.930 . S
H931 C925 0.930 . S
C932 N933 1.314 . S
C932 C934 1.353 . S
C932 H938 0.930 . S
N933 Li883 1.990 . S
N933 C932 1.314 . S
N933 C936 1.277 . S
C934 C932 1.353 . S
C934 C937 1.348 . S
C934 H966 0.929 . S
C935 C936 1.358 1_565 S
C935 C937 1.356 1_565 S
C935 H967 0.930 . S
C936 N933 1.277 . S
C936 C935 1.358 1_545 S
C936 H939 0.934 1_545 S
C937 C934 1.348 . S
C937 C935 1.356 1_545 S
H938 C932 0.930 . S
H939 C936 0.934 1_565 S
O940 Li880 1.956 . S
O940 Li881 1.970 . S
O940 Li882 1.961 . S
O940 C884 1.325 . S
O941 Li880 1.970 . S
O941 Li881 1.956 . S
O941 Li883 1.961 . S
O941 C890 1.325 . S
O942 Li880 1.961 . S
O942 Li882 1.956 . S
O942 Li883 1.970 . S
O942 C912 1.325 . S
O943 Li881 1.961 . S
O943 Li882 1.970 . S
O943 Li883 1.956 . S
O943 C918 1.325 1_545 S
H944 C886 0.929 . S
H945 C887 0.930 . S
H946 C888 0.930 . S
H947 C889 0.930 . S
H948 C891 0.930 . S
H949 C893 0.929 . S
H950 C894 0.930 . S
H951 C895 0.930 . S
H952 C898 0.930 . S
H953 C901 0.929 . S
H954 C906 0.929 1_565 S
H955 C907 0.930 . S
H956 C914 0.929 . S
H957 C915 0.930 . S
H958 C916 0.930 . S
H959 C917 0.930 . S
H960 C919 0.929 . S
H961 C920 0.930 . S
H962 C921 0.930 . S
H963 C922 0.930 . S
H964 C926 0.929 . S
H965 C928 0.930 . S
H966 C934 0.929 . S
H967 C935 0.930 . S
Li968 N985 1.990 . S
Li968 O1028 1.973 . S
Li968 O1029 1.971 1_554 S
Li968 O1030 1.940 1_554 S
Li969 N993 1.990 . S
Li969 O1028 1.970 . S
Li969 O1029 1.956 1_554 S
Li969 O1031 1.961 . S
Li970 N1015 1.990 . S
Li970 O1028 1.961 . S
Li970 O1030 1.956 1_554 S
Li970 O1031 1.970 . S
Li971 N1021 1.990 . S
Li971 O1029 1.961 . S
Li971 O1030 1.970 . S
Li971 O1031 1.956 1_556 S
C972 C974 1.348 . S
C972 C975 1.356 . S
C972 O1028 1.325 . S
N973 C976 1.314 . S
N973 C977 1.279 . S
C974 C972 1.348 . S
C974 C976 1.353 . S
C974 H1032 0.929 . S
C975 C972 1.356 . S
C975 C977 1.358 . S
C975 H1033 0.930 . S
C976 N973 1.314 . S
C976 C974 1.353 . S
C976 H1034 0.930 . S
C977 N973 1.279 . S
C977 C975 1.358 . S
C977 H1035 0.930 . S
C978 C981 1.365 . S
C978 C982 1.356 . S
C978 O1029 1.325 . S
C979 N980 1.279 . S
C979 C982 1.358 . S
C979 H1036 0.930 . S
N980 C979 1.279 . S
N980 C983 1.314 . S
C981 C978 1.365 . S
C981 C983 1.349 . S
C981 H1037 0.919 1_556 S
C982 C978 1.356 . S
C982 C979 1.358 . S
C982 H1038 0.930 . S
C983 N980 1.314 . S
C983 C981 1.349 . S
C983 H1039 0.938 . S
C984 N985 1.285 1_556 S
C984 C989 1.353 . S
C984 H990 0.930 . S
N985 Li968 1.990 . S
N985 C984 1.285 1_554 S
N985 C987 1.310 . S
C986 C987 1.358 . S
C986 C988 1.313 1_554 S
C986 H1040 0.930 . S
C987 N985 1.310 . S
C987 C986 1.358 . S
C987 H991 0.930 . S
C988 C986 1.313 1_556 S
C988 C989 1.394 . S
C989 C984 1.353 . S
C989 C988 1.394 . S
C989 H1041 0.929 . S
H990 C984 0.930 . S
H991 C987 0.930 . S
C992 N993 1.314 . S
C992 C994 1.353 . S
C992 H998 0.930 . S
N993 Li969 1.990 . S
N993 C992 1.314 . S
N993 C996 1.279 . S
C994 C992 1.353 . S
C994 C997 1.348 . S
C994 H1042 0.929 . S
C995 C996 1.358 . S
C995 C997 1.356 . S
C995 H1043 0.930 . S
C996 N993 1.279 . S
C996 C995 1.358 . S
C996 H999 0.930 . S
C997 C994 1.348 . S
C997 C995 1.356 . S
H998 C992 0.930 . S
H999 C996 0.930 . S
C1000 C1002 1.348 . S
C1000 C1003 1.356 . S
C1000 O1030 1.325 . S
N1001 C1004 1.314 . S
N1001 C1005 1.279 . S
C1002 C1000 1.348 . S
C1002 C1004 1.353 . S
C1002 H1044 0.929 . S
C1003 C1000 1.356 . S
C1003 C1005 1.358 . S
C1003 H1045 0.930 . S
C1004 N1001 1.314 . S
C1004 C1002 1.353 . S
C1004 H1046 0.930 . S
C1005 N1001 1.279 . S
C1005 C1003 1.358 . S
C1005 H1047 0.930 . S
C1006 C1007 1.334 1_554 S
C1006 C1008 1.366 . S
C1006 O1031 1.327 . S
C1007 C1006 1.334 1_556 S
C1007 C1009 1.353 . S
C1007 H1048 0.929 . S
C1008 C1006 1.366 . S
C1008 C1010 1.358 . S
C1008 H1049 0.930 . S
C1009 C1007 1.353 . S
C1009 N1011 1.325 . S
C1009 H1050 0.930 . S
C1010 C1008 1.358 . S
C1010 N1011 1.268 1_554 S
C1010 H1051 0.930 . S
N1011 C1009 1.325 . S
N1011 C1010 1.268 1_556 S
C1012 C1014 1.353 . S
C1012 N1015 1.314 . S
C1012 H1018 0.930 . S
C1013 N1015 1.279 1_556 S
C1013 C1016 1.358 . S
C1013 H1019 0.930 . S
C1014 C1012 1.353 . S
C1014 C1017 1.348 . S
C1014 H1052 0.929 . S
N1015 Li970 1.990 . S
N1015 C1012 1.314 . S
N1015 C1013 1.279 1_554 S
C1016 C1013 1.358 . S
C1016 C1017 1.356 1_556 S
C1016 H1053 0.930 . S
C1017 C1014 1.348 . S
C1017 C1016 1.356 1_554 S
H1018 C1012 0.930 . S
H1019 C1013 0.930 . S
C1020 N1021 1.314 . S
C1020 C1022 1.353 . S
C1020 H1026 0.930 . S
N1021 Li971 1.990 . S
N1021 C1020 1.314 . S
N1021 C1024 1.279 . S
C1022 C1020 1.353 . S
C1022 C1025 1.348 . S
C1022 H1054 0.929 . S
C1023 C1024 1.358 . S
C1023 C1025 1.356 . S
C1023 H1055 0.930 . S
C1024 N1021 1.279 . S
C1024 C1023 1.358 . S
C1024 H1027 0.930 . S
C1025 C1022 1.348 . S
C1025 C1023 1.356 . S
H1026 C1020 0.930 . S
H1027 C1024 0.930 . S
O1028 Li968 1.973 . S
O1028 Li969 1.970 . S
O1028 Li970 1.961 . S
O1028 C972 1.325 . S
O1029 Li968 1.971 1_556 S
O1029 Li969 1.956 1_556 S
O1029 Li971 1.961 . S
O1029 C978 1.325 . S
O1030 Li968 1.940 1_556 S
O1030 Li970 1.956 1_556 S
O1030 Li971 1.970 . S
O1030 C1000 1.325 . S
O1031 Li969 1.961 . S
O1031 Li970 1.970 . S
O1031 Li971 1.956 1_554 S
O1031 C1006 1.327 . S
H1032 C974 0.929 . S
H1033 C975 0.930 . S
H1034 C976 0.930 . S
H1035 C977 0.930 . S
H1036 C979 0.930 . S
H1037 C981 0.919 1_554 S
H1038 C982 0.930 . S
H1039 C983 0.938 . S
H1040 C986 0.930 . S
H1041 C989 0.929 . S
H1042 C994 0.929 . S
H1043 C995 0.930 . S
H1044 C1002 0.929 . S
H1045 C1003 0.930 . S
H1046 C1004 0.930 . S
H1047 C1005 0.930 . S
H1048 C1007 0.929 . S
H1049 C1008 0.930 . S
H1050 C1009 0.930 . S
H1051 C1010 0.930 . S
H1052 C1014 0.929 . S
H1053 C1016 0.930 . S
H1054 C1022 0.929 . S
H1055 C1023 0.930 . S
Li1056 N1073 1.990 . S
Li1056 O1116 1.956 . S
Li1056 O1117 1.970 . S
Li1056 O1118 1.961 . S
Li1057 N1081 1.990 . S
Li1057 O1116 1.970 . S
Li1057 O1117 1.956 . S
Li1057 O1119 1.961 . S
Li1058 N1103 1.990 . S
Li1058 O1116 1.961 . S
Li1058 O1118 1.956 . S
Li1058 O1119 1.970 . S
Li1059 N1109 1.990 1_554 S
Li1059 O1117 1.961 . S
Li1059 O1118 1.970 . S
Li1059 O1119 1.956 . S
C1060 C1062 1.348 . S
C1060 C1063 1.356 . S
C1060 O1116 1.325 . S
N1061 C1064 1.314 . S
N1061 C1065 1.279 . S
C1062 C1060 1.348 . S
C1062 C1064 1.353 . S
C1062 H1120 0.929 . S
C1063 C1060 1.356 . S
C1063 C1065 1.358 . S
C1063 H1121 0.930 . S
C1064 N1061 1.314 . S
C1064 C1062 1.353 . S
C1064 H1122 0.930 . S
C1065 N1061 1.279 . S
C1065 C1063 1.358 . S
C1065 H1123 0.930 . S
C1066 C1069 1.348 . S
C1066 C1070 1.356 . S
C1066 O1117 1.325 . S
C1067 N1068 1.279 . S
C1067 C1070 1.358 . S
C1067 H1124 0.930 . S
N1068 C1067 1.279 . S
N1068 C1071 1.314 . S
C1069 C1066 1.348 . S
C1069 C1071 1.353 . S
C1069 H1125 0.929 . S
C1070 C1066 1.356 . S
C1070 C1067 1.358 . S
C1070 H1126 0.930 . S
C1071 N1068 1.314 . S
C1071 C1069 1.353 . S
C1071 H1127 0.930 . S
C1072 N1073 1.314 . S
C1072 C1077 1.353 . S
C1072 H1078 0.919 1_554 S
N1073 Li1056 1.990 . S
N1073 C1072 1.314 . S
N1073 C1075 1.279 . S
C1074 C1075 1.358 . S
C1074 C1076 1.356 . S
C1074 H1128 0.930 . S
C1075 N1073 1.279 . S
C1075 C1074 1.358 . S
C1075 H1079 0.930 . S
C1076 C1074 1.356 . S
C1076 C1077 1.348 . S
C1077 C1072 1.353 . S
C1077 C1076 1.348 . S
C1077 H1129 0.929 1_554 S
H1078 C1072 0.919 1_556 S
H1079 C1075 0.930 . S
C1080 N1081 1.314 . S
C1080 C1082 1.353 . S
C1080 H1086 0.930 . S
N1081 Li1057 1.990 . S
N1081 C1080 1.314 . S
N1081 C1084 1.279 . S
C1082 C1080 1.353 . S
C1082 C1085 1.348 . S
C1082 H1130 0.929 . S
C1083 C1084 1.358 . S
C1083 C1085 1.356 . S
C1083 H1131 0.930 . S
C1084 N1081 1.279 . S
C1084 C1083 1.358 . S
C1084 H1087 0.930 . S
C1085 C1082 1.348 . S
C1085 C1083 1.356 . S
H1086 C1080 0.930 . S
H1087 C1084 0.930 . S
C1088 C1090 1.348 . S
C1088 C1091 1.356 . S
C1088 O1118 1.325 1_556 S
N1089 C1092 1.314 . S
N1089 C1093 1.279 . S
C1090 C1088 1.348 . S
C1090 C1092 1.353 . S
C1090 H1132 0.929 . S
C1091 C1088 1.356 . S
C1091 C1093 1.358 . S
C1091 H1133 0.930 1_556 S
C1092 N1089 1.314 . S
C1092 C1090 1.353 . S
C1092 H1134 0.930 . S
C1093 N1089 1.279 . S
C1093 C1091 1.358 . S
C1093 H1135 0.930 . S
C1094 C1095 1.348 . S
C1094 C1096 1.356 . S
C1094 O1119 1.325 . S
C1095 C1094 1.348 . S
C1095 C1097 1.353 . S
C1095 H1136 0.929 . S
C1096 C1094 1.356 . S
C1096 C1098 1.358 . S
C1096 H1137 0.930 . S
C1097 C1095 1.353 . S
C1097 N1099 1.314 . S
C1097 H1138 0.930 . S
C1098 C1096 1.358 . S
C1098 N1099 1.279 . S
C1098 H1139 0.930 . S
N1099 C1097 1.314 . S
N1099 C1098 1.279 . S
C1100 C1102 1.353 . S
C1100 N1103 1.314 . S
C1100 H1106 0.930 . S
C1101 N1103 1.279 . S
C1101 C1104 1.358 . S
C1101 H1107 0.930 . S
C1102 C1100 1.353 . S
C1102 C1105 1.348 . S
C1102 H1140 0.929 . S
N1103 Li1058 1.990 . S
N1103 C1100 1.314 . S
N1103 C1101 1.279 . S
C1104 C1101 1.358 . S
C1104 C1105 1.356 . S
C1104 H1141 0.930 . S
C1105 C1102 1.348 . S
C1105 C1104 1.356 . S
H1106 C1100 0.930 . S
H1107 C1101 0.930 . S
C1108 N1109 1.314 . S
C1108 C1110 1.353 . S
C1108 H1114 0.930 . S
N1109 Li1059 1.990 1_556 S
N1109 C1108 1.314 . S
N1109 C1112 1.279 . S
C1110 C1108 1.353 . S
C1110 C1113 1.348 . S
C1110 H1142 0.929 . S
C1111 C1112 1.358 . S
C1111 C1113 1.356 . S
C1111 H1143 0.930 . S
C1112 N1109 1.279 . S
C1112 C1111 1.358 . S
C1112 H1115 0.930 . S
C1113 C1110 1.348 . S
C1113 C1111 1.356 . S
H1114 C1108 0.930 . S
H1115 C1112 0.930 . S
O1116 Li1056 1.956 . S
O1116 Li1057 1.970 . S
O1116 Li1058 1.961 . S
O1116 C1060 1.325 . S
O1117 Li1056 1.970 . S
O1117 Li1057 1.956 . S
O1117 Li1059 1.961 . S
O1117 C1066 1.325 . S
O1118 Li1056 1.961 . S
O1118 Li1058 1.956 . S
O1118 Li1059 1.970 . S
O1118 C1088 1.325 1_554 S
O1119 Li1057 1.961 . S
O1119 Li1058 1.970 . S
O1119 Li1059 1.956 . S
O1119 C1094 1.325 . S
H1120 C1062 0.929 . S
H1121 C1063 0.930 . S
H1122 C1064 0.930 . S
H1123 C1065 0.930 . S
H1124 C1067 0.930 . S
H1125 C1069 0.929 . S
H1126 C1070 0.930 . S
H1127 C1071 0.930 . S
H1128 C1074 0.930 . S
H1129 C1077 0.929 1_556 S
H1130 C1082 0.929 . S
H1131 C1083 0.930 . S
H1132 C1090 0.929 . S
H1133 C1091 0.930 1_554 S
H1134 C1092 0.930 . S
H1135 C1093 0.930 . S
H1136 C1095 0.929 . S
H1137 C1096 0.930 . S
H1138 C1097 0.930 . S
H1139 C1098 0.930 . S
H1140 C1102 0.929 . S
H1141 C1104 0.930 . S
H1142 C1110 0.929 . S
H1143 C1111 0.930 . S
Li1144 N1161 1.990 . S
Li1144 O1204 1.956 . S
Li1144 O1205 1.970 . S
Li1144 O1206 1.961 . S
Li1145 N1169 1.990 . S
Li1145 O1204 1.970 . S
Li1145 O1205 1.956 . S
Li1145 O1207 1.961 . S
Li1146 N1191 1.990 . S
Li1146 O1204 1.961 . S
Li1146 O1206 1.956 . S
Li1146 O1207 1.970 . S
Li1147 N1197 1.990 . S
Li1147 O1205 1.961 . S
Li1147 O1206 1.970 . S
Li1147 O1207 1.956 . S
C1148 C1150 1.348 . S
C1148 C1151 1.356 . S
C1148 O1204 1.325 . S
N1149 C1152 1.314 . S
N1149 C1153 1.279 . S
C1150 C1148 1.348 . S
C1150 C1152 1.353 . S
C1150 H1208 0.929 . S
C1151 C1148 1.356 . S
C1151 C1153 1.358 . S
C1151 H1209 0.930 . S
C1152 N1149 1.314 . S
C1152 C1150 1.353 . S
C1152 H1210 0.930 . S
C1153 N1149 1.279 . S
C1153 C1151 1.358 . S
C1153 H1211 0.930 . S
C1154 C1157 1.348 . S
C1154 C1158 1.356 . S
C1154 O1205 1.325 . S
C1155 N1156 1.279 . S
C1155 C1158 1.358 . S
C1155 H1212 0.930 . S
N1156 C1155 1.279 . S
N1156 C1159 1.314 . S
C1157 C1154 1.348 . S
C1157 C1159 1.353 . S
C1157 H1213 0.929 . S
C1158 C1154 1.356 . S
C1158 C1155 1.358 . S
C1158 H1214 0.930 . S
C1159 N1156 1.314 . S
C1159 C1157 1.353 . S
C1159 H1215 0.930 . S
C1160 N1161 1.314 . S
C1160 C1165 1.353 . S
C1160 H1166 0.930 . S
N1161 Li1144 1.990 . S
N1161 C1160 1.314 . S
N1161 C1163 1.279 . S
C1162 C1163 1.358 . S
C1162 C1164 1.356 . S
C1162 H1216 0.930 . S
C1163 N1161 1.279 . S
C1163 C1162 1.358 . S
C1163 H1167 0.930 . S
C1164 C1162 1.356 . S
C1164 C1165 1.348 . S
C1165 C1160 1.353 . S
C1165 C1164 1.348 . S
C1165 H1217 0.929 . S
H1166 C1160 0.930 . S
H1167 C1163 0.930 . S
C1168 N1169 1.314 . S
C1168 C1170 1.353 . S
C1168 H1174 0.930 . S
N1169 Li1145 1.990 . S
N1169 C1168 1.314 . S
N1169 C1172 1.279 . S
C1170 C1168 1.353 . S
C1170 C1173 1.348 . S
C1170 H1218 0.929 . S
C1171 C1172 1.358 . S
C1171 C1173 1.356 . S
C1171 H1219 0.930 . S
C1172 N1169 1.279 . S
C1172 C1171 1.358 . S
C1172 H1175 0.930 . S
C1173 C1170 1.348 . S
C1173 C1171 1.356 . S
H1174 C1168 0.930 . S
H1175 C1172 0.930 . S
C1176 C1178 1.348 . S
C1176 C1179 1.356 . S
C1176 O1206 1.325 . S
N1177 C1180 1.314 . S
N1177 C1181 1.279 . S
C1178 C1176 1.348 . S
C1178 C1180 1.353 . S
C1178 H1220 0.929 . S
C1179 C1176 1.356 . S
C1179 C1181 1.358 . S
C1179 H1221 0.930 . S
C1180 N1177 1.314 . S
C1180 C1178 1.353 . S
C1180 H1222 0.930 . S
C1181 N1177 1.279 . S
C1181 C1179 1.358 . S
C1181 H1223 0.930 . S
C1182 C1183 1.348 1_554 S
C1182 C1184 1.356 . S
C1182 O1207 1.325 . S
C1183 C1182 1.348 1_556 S
C1183 C1185 1.353 . S
C1183 H1224 0.929 . S
C1184 C1182 1.356 . S
C1184 C1186 1.358 1_554 S
C1184 H1225 0.930 . S
C1185 C1183 1.353 . S
C1185 N1187 1.314 . S
C1185 H1226 0.930 . S
C1186 C1184 1.358 1_556 S
C1186 N1187 1.279 . S
C1186 H1227 0.930 . S
N1187 C1185 1.314 . S
N1187 C1186 1.279 . S
C1188 C1190 1.353 1_554 S
C1188 N1191 1.314 . S
C1188 H1194 0.930 . S
C1189 N1191 1.279 . S
C1189 C1192 1.358 1_554 S
C1189 H1195 0.930 . S
C1190 C1188 1.353 1_556 S
C1190 C1193 1.348 . S
C1190 H1228 0.929 . S
N1191 Li1146 1.990 . S
N1191 C1188 1.314 . S
N1191 C1189 1.279 . S
C1192 C1189 1.358 1_556 S
C1192 C1193 1.356 . S
C1192 H1229 0.930 . S
C1193 C1190 1.348 . S
C1193 C1192 1.356 . S
H1194 C1188 0.930 . S
H1195 C1189 0.930 . S
C1196 N1197 1.314 . S
C1196 C1198 1.353 . S
C1196 H1202 0.930 . S
N1197 Li1147 1.990 . S
N1197 C1196 1.314 . S
N1197 C1200 1.279 . S
C1198 C1196 1.353 . S
C1198 C1201 1.348 . S
C1198 H1230 0.929 . S
C1199 C1200 1.358 . S
C1199 C1201 1.356 . S
C1199 H1231 0.930 . S
C1200 N1197 1.279 . S
C1200 C1199 1.358 . S
C1200 H1203 0.930 . S
C1201 C1198 1.348 . S
C1201 C1199 1.356 . S
H1202 C1196 0.930 . S
H1203 C1200 0.930 . S
O1204 Li1144 1.956 . S
O1204 Li1145 1.970 . S
O1204 Li1146 1.961 . S
O1204 C1148 1.325 . S
O1205 Li1144 1.970 . S
O1205 Li1145 1.956 . S
O1205 Li1147 1.961 . S
O1205 C1154 1.325 . S
O1206 Li1144 1.961 . S
O1206 Li1146 1.956 . S
O1206 Li1147 1.970 . S
O1206 C1176 1.325 . S
O1207 Li1145 1.961 . S
O1207 Li1146 1.970 . S
O1207 Li1147 1.956 . S
O1207 C1182 1.325 . S
H1208 C1150 0.929 . S
H1209 C1151 0.930 . S
H1210 C1152 0.930 . S
H1211 C1153 0.930 . S
H1212 C1155 0.930 . S
H1213 C1157 0.929 . S
H1214 C1158 0.930 . S
H1215 C1159 0.930 . S
H1216 C1162 0.930 . S
H1217 C1165 0.929 . S
H1218 C1170 0.929 . S
H1219 C1171 0.930 . S
H1220 C1178 0.929 . S
H1221 C1179 0.930 . S
H1222 C1180 0.930 . S
H1223 C1181 0.930 . S
H1224 C1183 0.929 . S
H1225 C1184 0.930 . S
H1226 C1185 0.930 . S
H1227 C1186 0.930 . S
H1228 C1190 0.929 . S
H1229 C1192 0.930 . S
H1230 C1198 0.929 . S
H1231 C1199 0.930 . S
Li1232 N1249 1.990 . S
Li1232 O1292 1.956 . S
Li1232 O1293 1.970 . S
Li1232 O1294 1.961 . S
Li1233 N1257 1.990 . S
Li1233 O1292 1.970 . S
Li1233 O1293 1.956 . S
Li1233 O1295 1.961 . S
Li1234 N1279 1.990 . S
Li1234 O1292 1.961 . S
Li1234 O1294 1.956 . S
Li1234 O1295 1.970 . S
Li1235 N1285 1.990 . S
Li1235 O1293 1.961 . S
Li1235 O1294 1.970 . S
Li1235 O1295 1.956 . S
C1236 C1238 1.348 . S
C1236 C1239 1.356 . S
C1236 O1292 1.325 . S
N1237 C1240 1.314 . S
N1237 C1241 1.279 . S
C1238 C1236 1.348 . S
C1238 C1240 1.353 . S
C1238 H1296 0.929 . S
C1239 C1236 1.356 . S
C1239 C1241 1.358 . S
C1239 H1297 0.930 . S
C1240 N1237 1.314 . S
C1240 C1238 1.353 . S
C1240 H1298 0.930 . S
C1241 N1237 1.279 . S
C1241 C1239 1.358 . S
C1241 H1299 0.930 . S
C1242 C1245 1.348 . S
C1242 C1246 1.356 . S
C1242 O1293 1.325 . S
C1243 N1244 1.279 . S
C1243 C1246 1.358 . S
C1243 H1300 0.930 . S
N1244 C1243 1.279 . S
N1244 C1247 1.314 . S
C1245 C1242 1.348 . S
C1245 C1247 1.353 . S
C1245 H1301 0.929 . S
C1246 C1242 1.356 . S
C1246 C1243 1.358 . S
C1246 H1302 0.930 . S
C1247 N1244 1.314 . S
C1247 C1245 1.353 . S
C1247 H1303 0.930 . S
C1248 N1249 1.314 . S
C1248 C1253 1.353 . S
C1248 H1254 0.930 . S
N1249 Li1232 1.990 . S
N1249 C1248 1.314 . S
N1249 C1251 1.279 . S
C1250 C1251 1.358 . S
C1250 C1252 1.356 . S
C1250 H1304 0.930 . S
C1251 N1249 1.279 . S
C1251 C1250 1.358 . S
C1251 H1255 0.930 . S
C1252 C1250 1.356 . S
C1252 C1253 1.348 . S
C1253 C1248 1.353 . S
C1253 C1252 1.348 . S
C1253 H1305 0.929 . S
H1254 C1248 0.930 . S
H1255 C1251 0.930 . S
C1256 N1257 1.314 . S
C1256 C1258 1.353 . S
C1256 H1262 0.930 . S
N1257 Li1233 1.990 . S
N1257 C1256 1.314 . S
N1257 C1260 1.279 . S
C1258 C1256 1.353 . S
C1258 C1261 1.348 . S
C1258 H1306 0.929 . S
C1259 C1260 1.358 . S
C1259 C1261 1.356 . S
C1259 H1307 0.930 . S
C1260 N1257 1.279 . S
C1260 C1259 1.358 . S
C1260 H1263 0.930 . S
C1261 C1258 1.348 . S
C1261 C1259 1.356 . S
H1262 C1256 0.930 . S
H1263 C1260 0.930 . S
C1264 C1266 1.348 . S
C1264 C1267 1.356 . S
C1264 O1294 1.325 . S
N1265 C1268 1.314 . S
N1265 C1269 1.279 . S
C1266 C1264 1.348 . S
C1266 C1268 1.353 . S
C1266 H1308 0.929 . S
C1267 C1264 1.356 . S
C1267 C1269 1.358 . S
C1267 H1309 0.930 . S
C1268 N1265 1.314 . S
C1268 C1266 1.353 . S
C1268 H1310 0.930 . S
C1269 N1265 1.279 . S
C1269 C1267 1.358 . S
C1269 H1311 0.930 . S
C1270 C1271 1.348 . S
C1270 C1272 1.356 . S
C1270 O1295 1.325 . S
C1271 C1270 1.348 . S
C1271 C1273 1.353 . S
C1271 H1312 0.929 . S
C1272 C1270 1.356 . S
C1272 C1274 1.358 . S
C1272 H1313 0.930 . S
C1273 C1271 1.353 . S
C1273 N1275 1.314 . S
C1273 H1314 0.930 . S
C1274 C1272 1.358 . S
C1274 N1275 1.279 . S
C1274 H1315 0.930 . S
N1275 C1273 1.314 . S
N1275 C1274 1.279 . S
C1276 C1278 1.353 . S
C1276 N1279 1.314 . S
C1276 H1282 0.930 . S
C1277 N1279 1.279 . S
C1277 C1280 1.358 . S
C1277 H1283 0.930 . S
C1278 C1276 1.353 . S
C1278 C1281 1.348 . S
C1278 H1316 0.929 . S
N1279 Li1234 1.990 . S
N1279 C1276 1.314 . S
N1279 C1277 1.279 . S
C1280 C1277 1.358 . S
C1280 C1281 1.356 . S
C1280 H1317 0.930 . S
C1281 C1278 1.348 . S
C1281 C1280 1.356 . S
H1282 C1276 0.930 . S
H1283 C1277 0.930 . S
C1284 N1285 1.314 . S
C1284 C1286 1.353 . S
C1284 H1290 0.930 . S
N1285 Li1235 1.990 . S
N1285 C1284 1.314 . S
N1285 C1288 1.279 . S
C1286 C1284 1.353 . S
C1286 C1289 1.348 . S
C1286 H1318 0.929 . S
C1287 C1288 1.358 . S
C1287 C1289 1.356 . S
C1287 H1319 0.930 . S
C1288 N1285 1.279 . S
C1288 C1287 1.358 . S
C1288 H1291 0.930 . S
C1289 C1286 1.348 . S
C1289 C1287 1.356 . S
H1290 C1284 0.930 . S
H1291 C1288 0.930 . S
O1292 Li1232 1.956 . S
O1292 Li1233 1.970 . S
O1292 Li1234 1.961 . S
O1292 C1236 1.325 . S
O1293 Li1232 1.970 . S
O1293 Li1233 1.956 . S
O1293 Li1235 1.961 . S
O1293 C1242 1.325 . S
O1294 Li1232 1.961 . S
O1294 Li1234 1.956 . S
O1294 Li1235 1.970 . S
O1294 C1264 1.325 . S
O1295 Li1233 1.961 . S
O1295 Li1234 1.970 . S
O1295 Li1235 1.956 . S
O1295 C1270 1.325 . S
H1296 C1238 0.929 . S
H1297 C1239 0.930 . S
H1298 C1240 0.930 . S
H1299 C1241 0.930 . S
H1300 C1243 0.930 . S
H1301 C1245 0.929 . S
H1302 C1246 0.930 . S
H1303 C1247 0.930 . S
H1304 C1250 0.930 . S
H1305 C1253 0.929 . S
H1306 C1258 0.929 . S
H1307 C1259 0.930 . S
H1308 C1266 0.929 . S
H1309 C1267 0.930 . S
H1310 C1268 0.930 . S
H1311 C1269 0.930 . S
H1312 C1271 0.929 . S
H1313 C1272 0.930 . S
H1314 C1273 0.930 . S
H1315 C1274 0.930 . S
H1316 C1278 0.929 . S
H1317 C1280 0.930 . S
H1318 C1286 0.929 . S
H1319 C1287 0.930 . S
Li1320 N1337 1.990 . S
Li1320 O1380 1.956 . S
Li1320 O1381 1.970 . S
Li1320 O1382 1.961 . S
Li1321 N1345 1.990 . S
Li1321 O1380 1.970 . S
Li1321 O1381 1.956 . S
Li1321 O1383 1.961 . S
Li1322 N1367 1.990 . S
Li1322 O1380 1.961 . S
Li1322 O1382 1.956 . S
Li1322 O1383 1.970 . S
Li1323 N1373 1.990 . S
Li1323 O1381 1.961 . S
Li1323 O1382 1.970 . S
Li1323 O1383 1.956 . S
C1324 C1326 1.348 . S
C1324 C1327 1.356 . S
C1324 O1380 1.325 . S
N1325 C1328 1.314 . S
N1325 C1329 1.279 . S
C1326 C1324 1.348 . S
C1326 C1328 1.353 . S
C1326 H1384 0.929 . S
C1327 C1324 1.356 . S
C1327 C1329 1.358 . S
C1327 H1385 0.930 . S
C1328 N1325 1.314 . S
C1328 C1326 1.353 . S
C1328 H1386 0.930 . S
C1329 N1325 1.279 . S
C1329 C1327 1.358 . S
C1329 H1387 0.930 . S
C1330 C1333 1.348 . S
C1330 C1334 1.356 . S
C1330 O1381 1.325 . S
C1331 N1332 1.279 . S
C1331 C1334 1.358 . S
C1331 H1388 0.930 . S
N1332 C1331 1.279 . S
N1332 C1335 1.314 . S
C1333 C1330 1.348 . S
C1333 C1335 1.353 . S
C1333 H1389 0.929 . S
C1334 C1330 1.356 . S
C1334 C1331 1.358 . S
C1334 H1390 0.930 . S
C1335 N1332 1.314 . S
C1335 C1333 1.353 . S
C1335 H1391 0.930 . S
C1336 N1337 1.314 . S
C1336 C1341 1.353 . S
C1336 H1342 0.930 . S
N1337 Li1320 1.990 . S
N1337 C1336 1.314 . S
N1337 C1339 1.279 . S
C1338 C1339 1.358 . S
C1338 C1340 1.356 . S
C1338 H1392 0.930 . S
C1339 N1337 1.279 . S
C1339 C1338 1.358 . S
C1339 H1343 0.930 . S
C1340 C1338 1.356 . S
C1340 C1341 1.348 . S
C1341 C1336 1.353 . S
C1341 C1340 1.348 . S
C1341 H1393 0.929 . S
H1342 C1336 0.930 . S
H1343 C1339 0.930 . S
C1344 N1345 1.314 . S
C1344 C1346 1.353 . S
C1344 H1350 0.930 . S
N1345 Li1321 1.990 . S
N1345 C1344 1.314 . S
N1345 C1348 1.279 . S
C1346 C1344 1.353 . S
C1346 C1349 1.348 . S
C1346 H1394 0.929 . S
C1347 C1348 1.358 . S
C1347 C1349 1.356 . S
C1347 H1395 0.930 . S
C1348 N1345 1.279 . S
C1348 C1347 1.358 . S
C1348 H1351 0.930 . S
C1349 C1346 1.348 . S
C1349 C1347 1.356 . S
H1350 C1344 0.930 . S
H1351 C1348 0.930 . S
C1352 C1354 1.348 . S
C1352 C1355 1.356 . S
C1352 O1382 1.325 . S
N1353 C1356 1.314 . S
N1353 C1357 1.279 . S
C1354 C1352 1.348 . S
C1354 C1356 1.353 . S
C1354 H1396 0.929 . S
C1355 C1352 1.356 . S
C1355 C1357 1.358 . S
C1355 H1397 0.930 . S
C1356 N1353 1.314 . S
C1356 C1354 1.353 . S
C1356 H1398 0.930 . S
C1357 N1353 1.279 . S
C1357 C1355 1.358 . S
C1357 H1399 0.930 . S
C1358 C1359 1.348 . S
C1358 C1360 1.356 . S
C1358 O1383 1.325 . S
C1359 C1358 1.348 . S
C1359 C1361 1.353 . S
C1359 H1400 0.929 . S
C1360 C1358 1.356 . S
C1360 C1362 1.358 . S
C1360 H1401 0.930 . S
C1361 C1359 1.353 . S
C1361 N1363 1.314 . S
C1361 H1402 0.930 . S
C1362 C1360 1.358 . S
C1362 N1363 1.279 . S
C1362 H1403 0.930 . S
N1363 C1361 1.314 . S
N1363 C1362 1.279 . S
C1364 C1366 1.353 . S
C1364 N1367 1.314 . S
C1364 H1370 0.930 . S
C1365 N1367 1.279 . S
C1365 C1368 1.358 . S
C1365 H1371 0.930 . S
C1366 C1364 1.353 . S
C1366 C1369 1.348 . S
C1366 H1404 0.929 . S
N1367 Li1322 1.990 . S
N1367 C1364 1.314 . S
N1367 C1365 1.279 . S
C1368 C1365 1.358 . S
C1368 C1369 1.356 . S
C1368 H1405 0.930 . S
C1369 C1366 1.348 . S
C1369 C1368 1.356 . S
H1370 C1364 0.930 . S
H1371 C1365 0.930 . S
C1372 N1373 1.314 . S
C1372 C1374 1.353 . S
C1372 H1378 0.930 . S
N1373 Li1323 1.990 . S
N1373 C1372 1.314 . S
N1373 C1376 1.279 . S
C1374 C1372 1.353 . S
C1374 C1377 1.348 . S
C1374 H1406 0.929 . S
C1375 C1376 1.358 . S
C1375 C1377 1.356 . S
C1375 H1407 0.930 . S
C1376 N1373 1.279 . S
C1376 C1375 1.358 . S
C1376 H1379 0.930 . S
C1377 C1374 1.348 . S
C1377 C1375 1.356 . S
H1378 C1372 0.930 . S
H1379 C1376 0.930 . S
O1380 Li1320 1.956 . S
O1380 Li1321 1.970 . S
O1380 Li1322 1.961 . S
O1380 C1324 1.325 . S
O1381 Li1320 1.970 . S
O1381 Li1321 1.956 . S
O1381 Li1323 1.961 . S
O1381 C1330 1.325 . S
O1382 Li1320 1.961 . S
O1382 Li1322 1.956 . S
O1382 Li1323 1.970 . S
O1382 C1352 1.325 . S
O1383 Li1321 1.961 . S
O1383 Li1322 1.970 . S
O1383 Li1323 1.956 . S
O1383 C1358 1.325 . S
H1384 C1326 0.929 . S
H1385 C1327 0.930 . S
H1386 C1328 0.930 . S
H1387 C1329 0.930 . S
H1388 C1331 0.930 . S
H1389 C1333 0.929 . S
H1390 C1334 0.930 . S
H1391 C1335 0.930 . S
H1392 C1338 0.930 . S
H1393 C1341 0.929 . S
H1394 C1346 0.929 . S
H1395 C1347 0.930 . S
H1396 C1354 0.929 . S
H1397 C1355 0.930 . S
H1398 C1356 0.930 . S
H1399 C1357 0.930 . S
H1400 C1359 0.929 . S
H1401 C1360 0.930 . S
H1402 C1361 0.930 . S
H1403 C1362 0.930 . S
H1404 C1366 0.929 . S
H1405 C1368 0.930 . S
H1406 C1374 0.929 . S
H1407 C1375 0.930 . S
Li1408 N1425 1.990 . S
Li1408 O1468 1.956 1_545 S
Li1408 O1469 1.970 . S
Li1408 O1470 1.961 . S
Li1409 N1433 1.990 . S
Li1409 O1468 1.970 . S
Li1409 O1469 1.956 1_565 S
Li1409 O1471 1.961 1_565 S
Li1410 N1455 1.990 . S
Li1410 O1468 1.961 1_545 S
Li1410 O1470 1.956 . S
Li1410 O1471 1.970 . S
Li1411 N1461 1.990 . S
Li1411 O1469 1.961 . S
Li1411 O1470 1.970 . S
Li1411 O1471 1.956 . S
C1412 C1414 1.348 . S
C1412 C1415 1.356 . S
C1412 O1468 1.325 . S
N1413 C1416 1.314 . S
N1413 C1417 1.279 . S
C1414 C1412 1.348 . S
C1414 C1416 1.353 . S
C1414 H1472 0.929 . S
C1415 C1412 1.356 . S
C1415 C1417 1.358 . S
C1415 H1473 0.930 . S
C1416 N1413 1.314 . S
C1416 C1414 1.353 . S
C1416 H1474 0.930 . S
C1417 N1413 1.279 . S
C1417 C1415 1.358 . S
C1417 H1475 0.930 . S
C1418 C1421 1.348 . S
C1418 C1422 1.356 . S
C1418 O1469 1.325 . S
C1419 N1420 1.279 . S
C1419 C1422 1.358 . S
C1419 H1476 0.930 . S
N1420 C1419 1.279 . S
N1420 C1423 1.335 . S
C1421 C1418 1.348 . S
C1421 C1423 1.355 . S
C1421 H1477 0.916 1_545 S
C1422 C1418 1.356 . S
C1422 C1419 1.358 . S
C1422 H1478 0.930 . S
C1423 N1420 1.335 . S
C1423 C1421 1.355 . S
C1423 H1479 0.899 1_545 S
C1424 N1425 1.314 . S
C1424 C1429 1.353 . S
C1424 H1430 0.930 . S
N1425 Li1408 1.990 . S
N1425 C1424 1.314 . S
N1425 C1427 1.279 1_545 S
C1426 C1427 1.367 1_545 S
C1426 C1428 1.402 . S
C1426 H1480 0.877 1_545 S
C1427 N1425 1.279 1_565 S
C1427 C1426 1.367 1_565 S
C1427 H1431 0.930 . S
C1428 C1426 1.402 . S
C1428 C1429 1.348 . S
C1429 C1424 1.353 . S
C1429 C1428 1.348 . S
C1429 H1481 0.929 . S
H1430 C1424 0.930 . S
H1431 C1427 0.930 . S
C1432 N1433 1.314 . S
C1432 C1434 1.353 . S
C1432 H1438 0.930 . S
N1433 Li1409 1.990 . S
N1433 C1432 1.314 . S
N1433 C1436 1.279 . S
C1434 C1432 1.353 . S
C1434 C1437 1.348 . S
C1434 H1482 0.929 . S
C1435 C1436 1.358 . S
C1435 C1437 1.356 . S
C1435 H1483 0.930 . S
C1436 N1433 1.279 . S
C1436 C1435 1.358 . S
C1436 H1439 0.930 . S
C1437 C1434 1.348 . S
C1437 C1435 1.356 . S
H1438 C1432 0.930 . S
H1439 C1436 0.930 . S
C1440 C1442 1.348 . S
C1440 C1443 1.356 . S
C1440 O1470 1.325 . S
N1441 C1444 1.314 . S
N1441 C1445 1.279 . S
C1442 C1440 1.348 . S
C1442 C1444 1.353 . S
C1442 H1484 0.929 . S
C1443 C1440 1.356 . S
C1443 C1445 1.358 . S
C1443 H1485 0.930 . S
C1444 N1441 1.314 . S
C1444 C1442 1.353 . S
C1444 H1486 0.930 . S
C1445 N1441 1.279 . S
C1445 C1443 1.358 . S
C1445 H1487 0.976 . S
C1446 C1447 1.333 1_565 S
C1446 C1448 1.362 . S
C1446 O1471 1.332 1_565 S
C1447 C1446 1.333 1_545 S
C1447 C1449 1.353 . S
C1447 H1488 0.929 . S
C1448 C1446 1.362 . S
C1448 C1450 1.358 . S
C1448 H1489 0.930 . S
C1449 C1447 1.353 . S
C1449 N1451 1.314 1_545 S
C1449 H1490 0.930 . S
C1450 C1448 1.358 . S
C1450 N1451 1.279 . S
C1450 H1491 0.930 . S
N1451 C1449 1.314 1_565 S
N1451 C1450 1.279 . S
C1452 C1454 1.353 . S
C1452 N1455 1.314 1_565 S
C1452 H1458 0.930 . S
C1453 N1455 1.279 . S
C1453 C1456 1.358 . S
C1453 H1459 0.930 . S
C1454 C1452 1.353 . S
C1454 C1457 1.348 1_565 S
C1454 H1492 0.929 . S
N1455 Li1410 1.990 . S
N1455 C1452 1.314 1_545 S
N1455 C1453 1.279 . S
C1456 C1453 1.358 . S
C1456 C1457 1.356 . S
C1456 H1493 0.930 . S
C1457 C1454 1.348 1_545 S
C1457 C1456 1.356 . S
H1458 C1452 0.930 . S
H1459 C1453 0.930 . S
C1460 N1461 1.314 . S
C1460 C1462 1.353 . S
C1460 H1466 0.930 . S
N1461 Li1411 1.990 . S
N1461 C1460 1.314 . S
N1461 C1464 1.279 . S
C1462 C1460 1.353 . S
C1462 C1465 1.348 . S
C1462 H1494 0.929 . S
C1463 C1464 1.358 . S
C1463 C1465 1.356 . S
C1463 H1495 0.930 . S
C1464 N1461 1.279 . S
C1464 C1463 1.358 . S
C1464 H1467 0.930 . S
C1465 C1462 1.348 . S
C1465 C1463 1.356 . S
H1466 C1460 0.930 . S
H1467 C1464 0.930 . S
O1468 Li1408 1.956 1_565 S
O1468 Li1409 1.970 . S
O1468 Li1410 1.961 1_565 S
O1468 C1412 1.325 . S
O1469 Li1408 1.970 . S
O1469 Li1409 1.956 1_545 S
O1469 Li1411 1.961 . S
O1469 C1418 1.325 . S
O1470 Li1408 1.961 . S
O1470 Li1410 1.956 . S
O1470 Li1411 1.970 . S
O1470 C1440 1.325 . S
O1471 Li1409 1.961 1_545 S
O1471 Li1410 1.970 . S
O1471 Li1411 1.956 . S
O1471 C1446 1.332 1_545 S
H1472 C1414 0.929 . S
H1473 C1415 0.930 . S
H1474 C1416 0.930 . S
H1475 C1417 0.930 . S
H1476 C1419 0.930 . S
H1477 C1421 0.916 1_565 S
H1478 C1422 0.930 . S
H1479 C1423 0.899 1_565 S
H1480 C1426 0.877 1_565 S
H1481 C1429 0.929 . S
H1482 C1434 0.929 . S
H1483 C1435 0.930 . S
H1484 C1442 0.929 . S
H1485 C1443 0.930 . S
H1486 C1444 0.930 . S
H1487 C1445 0.976 . S
H1488 C1447 0.929 . S
H1489 C1448 0.930 . S
H1490 C1449 0.930 . S
H1491 C1450 0.930 . S
H1492 C1454 0.929 . S
H1493 C1456 0.930 . S
H1494 C1462 0.929 . S
H1495 C1463 0.930 . S
Li1496 N1513 1.990 . S
Li1496 O1556 1.956 . S
Li1496 O1557 1.970 . S
Li1496 O1558 1.961 . S
Li1497 N1521 1.990 . S
Li1497 O1556 1.970 . S
Li1497 O1557 1.956 . S
Li1497 O1559 1.961 . S
Li1498 N1543 1.990 . S
Li1498 O1556 1.961 . S
Li1498 O1558 1.956 . S
Li1498 O1559 1.970 . S
Li1499 N1549 1.990 . S
Li1499 O1557 1.961 . S
Li1499 O1558 1.970 . S
Li1499 O1559 1.956 . S
C1500 C1502 1.348 . S
C1500 C1503 1.356 . S
C1500 O1556 1.325 . S
N1501 C1504 1.314 . S
N1501 C1505 1.279 . S
C1502 C1500 1.348 . S
C1502 C1504 1.353 . S
C1502 H1560 0.929 . S
C1503 C1500 1.356 . S
C1503 C1505 1.358 . S
C1503 H1561 0.930 . S
C1504 N1501 1.314 . S
C1504 C1502 1.353 . S
C1504 H1562 0.930 . S
C1505 N1501 1.279 . S
C1505 C1503 1.358 . S
C1505 H1563 0.930 . S
C1506 C1509 1.348 . S
C1506 C1510 1.356 . S
C1506 O1557 1.325 . S
C1507 N1508 1.279 . S
C1507 C1510 1.358 . S
C1507 H1564 0.930 . S
N1508 C1507 1.279 . S
N1508 C1511 1.314 . S
C1509 C1506 1.348 . S
C1509 C1511 1.353 . S
C1509 H1565 0.929 . S
C1510 C1506 1.356 . S
C1510 C1507 1.358 . S
C1510 H1566 0.930 . S
C1511 N1508 1.314 . S
C1511 C1509 1.353 . S
C1511 H1567 0.930 . S
C1512 N1513 1.314 . S
C1512 C1517 1.353 . S
C1512 H1518 0.930 . S
N1513 Li1496 1.990 . S
N1513 C1512 1.314 . S
N1513 C1515 1.279 . S
C1514 C1515 1.358 . S
C1514 C1516 1.356 . S
C1514 H1568 0.930 . S
C1515 N1513 1.279 . S
C1515 C1514 1.358 . S
C1515 H1519 0.930 . S
C1516 C1514 1.356 . S
C1516 C1517 1.348 . S
C1517 C1512 1.353 . S
C1517 C1516 1.348 . S
C1517 H1569 0.929 . S
H1518 C1512 0.930 . S
H1519 C1515 0.930 . S
C1520 N1521 1.314 . S
C1520 C1522 1.353 . S
C1520 H1526 0.930 . S
N1521 Li1497 1.990 . S
N1521 C1520 1.314 . S
N1521 C1524 1.279 . S
C1522 C1520 1.353 . S
C1522 C1525 1.348 . S
C1522 H1570 0.929 . S
C1523 C1524 1.358 . S
C1523 C1525 1.356 . S
C1523 H1571 0.930 . S
C1524 N1521 1.279 . S
C1524 C1523 1.358 . S
C1524 H1527 0.930 . S
C1525 C1522 1.348 . S
C1525 C1523 1.356 . S
H1526 C1520 0.930 . S
H1527 C1524 0.930 . S
C1528 C1530 1.348 . S
C1528 C1531 1.356 . S
C1528 O1558 1.325 . S
N1529 C1532 1.314 . S
N1529 C1533 1.279 . S
C1530 C1528 1.348 . S
C1530 C1532 1.353 . S
C1530 H1572 0.929 . S
C1531 C1528 1.356 . S
C1531 C1533 1.358 . S
C1531 H1573 0.930 . S
C1532 N1529 1.314 . S
C1532 C1530 1.353 . S
C1532 H1574 0.930 . S
C1533 N1529 1.279 . S
C1533 C1531 1.358 . S
C1533 H1575 0.930 . S
C1534 C1535 1.348 . S
C1534 C1536 1.356 . S
C1534 O1559 1.325 . S
C1535 C1534 1.348 . S
C1535 C1537 1.353 . S
C1535 H1576 0.929 . S
C1536 C1534 1.356 . S
C1536 C1538 1.358 . S
C1536 H1577 0.930 . S
C1537 C1535 1.353 . S
C1537 N1539 1.314 . S
C1537 H1578 0.930 . S
C1538 C1536 1.358 . S
C1538 N1539 1.279 . S
C1538 H1579 0.930 . S
N1539 C1537 1.314 . S
N1539 C1538 1.279 . S
C1540 C1542 1.353 . S
C1540 N1543 1.314 . S
C1540 H1546 0.930 . S
C1541 N1543 1.279 . S
C1541 C1544 1.358 . S
C1541 H1547 0.930 . S
C1542 C1540 1.353 . S
C1542 C1545 1.348 . S
C1542 H1580 0.929 . S
N1543 Li1498 1.990 . S
N1543 C1540 1.314 . S
N1543 C1541 1.279 . S
C1544 C1541 1.358 . S
C1544 C1545 1.356 . S
C1544 H1581 0.930 . S
C1545 C1542 1.348 . S
C1545 C1544 1.356 . S
H1546 C1540 0.930 . S
H1547 C1541 0.930 . S
C1548 N1549 1.314 . S
C1548 C1550 1.353 . S
C1548 H1554 0.930 . S
N1549 Li1499 1.990 . S
N1549 C1548 1.314 . S
N1549 C1552 1.279 . S
C1550 C1548 1.353 . S
C1550 C1553 1.348 . S
C1550 H1582 0.929 . S
C1551 C1552 1.358 . S
C1551 C1553 1.356 . S
C1551 H1583 0.930 . S
C1552 N1549 1.279 . S
C1552 C1551 1.358 . S
C1552 H1555 0.930 . S
C1553 C1550 1.348 . S
C1553 C1551 1.356 . S
H1554 C1548 0.930 . S
H1555 C1552 0.930 . S
O1556 Li1496 1.956 . S
O1556 Li1497 1.970 . S
O1556 Li1498 1.961 . S
O1556 C1500 1.325 . S
O1557 Li1496 1.970 . S
O1557 Li1497 1.956 . S
O1557 Li1499 1.961 . S
O1557 C1506 1.325 . S
O1558 Li1496 1.961 . S
O1558 Li1498 1.956 . S
O1558 Li1499 1.970 . S
O1558 C1528 1.325 . S
O1559 Li1497 1.961 . S
O1559 Li1498 1.970 . S
O1559 Li1499 1.956 . S
O1559 C1534 1.325 . S
H1560 C1502 0.929 . S
H1561 C1503 0.930 . S
H1562 C1504 0.930 . S
H1563 C1505 0.930 . S
H1564 C1507 0.930 . S
H1565 C1509 0.929 . S
H1566 C1510 0.930 . S
H1567 C1511 0.930 . S
H1568 C1514 0.930 . S
H1569 C1517 0.929 . S
H1570 C1522 0.929 . S
H1571 C1523 0.930 . S
H1572 C1530 0.929 . S
H1573 C1531 0.930 . S
H1574 C1532 0.930 . S
H1575 C1533 0.930 . S
H1576 C1535 0.929 . S
H1577 C1536 0.930 . S
H1578 C1537 0.930 . S
H1579 C1538 0.930 . S
H1580 C1542 0.929 . S
H1581 C1544 0.930 . S
H1582 C1550 0.929 . S
H1583 C1551 0.930 . S
Li1584 N1601 1.990 . S
Li1584 O1644 1.956 . S
Li1584 O1645 1.970 . S
Li1584 O1646 1.961 . S
Li1585 N1609 1.990 . S
Li1585 O1644 1.970 . S
Li1585 O1645 1.956 . S
Li1585 O1647 1.961 . S
Li1586 N1631 1.990 . S
Li1586 O1644 1.961 . S
Li1586 O1646 1.956 . S
Li1586 O1647 1.970 . S
Li1587 N1637 1.990 . S
Li1587 O1645 1.961 . S
Li1587 O1646 1.970 . S
Li1587 O1647 1.956 . S
C1588 C1590 1.348 . S
C1588 C1591 1.356 . S
C1588 O1644 1.325 . S
N1589 C1592 1.314 . S
N1589 C1593 1.279 . S
C1590 C1588 1.348 . S
C1590 C1592 1.353 . S
C1590 H1648 0.929 . S
C1591 C1588 1.356 . S
C1591 C1593 1.358 . S
C1591 H1649 0.930 . S
C1592 N1589 1.314 . S
C1592 C1590 1.353 . S
C1592 H1650 0.930 . S
C1593 N1589 1.279 . S
C1593 C1591 1.358 . S
C1593 H1651 0.930 . S
C1594 C1597 1.348 . S
C1594 C1598 1.356 . S
C1594 O1645 1.325 . S
C1595 N1596 1.279 . S
C1595 C1598 1.358 . S
C1595 H1652 0.930 . S
N1596 C1595 1.279 . S
N1596 C1599 1.314 . S
C1597 C1594 1.348 . S
C1597 C1599 1.353 . S
C1597 H1653 0.929 . S
C1598 C1594 1.356 . S
C1598 C1595 1.358 . S
C1598 H1654 0.930 . S
C1599 N1596 1.314 . S
C1599 C1597 1.353 . S
C1599 H1655 0.930 . S
C1600 N1601 1.314 . S
C1600 C1605 1.353 . S
C1600 H1606 0.930 . S
N1601 Li1584 1.990 . S
N1601 C1600 1.314 . S
N1601 C1603 1.279 . S
C1602 C1603 1.358 . S
C1602 C1604 1.356 . S
C1602 H1656 0.930 . S
C1603 N1601 1.279 . S
C1603 C1602 1.358 . S
C1603 H1607 0.930 . S
C1604 C1602 1.356 . S
C1604 C1605 1.348 . S
C1605 C1600 1.353 . S
C1605 C1604 1.348 . S
C1605 H1657 0.929 . S
H1606 C1600 0.930 . S
H1607 C1603 0.930 . S
C1608 N1609 1.314 . S
C1608 C1610 1.353 . S
C1608 H1614 0.930 . S
N1609 Li1585 1.990 . S
N1609 C1608 1.314 . S
N1609 C1612 1.279 . S
C1610 C1608 1.353 . S
C1610 C1613 1.348 . S
C1610 H1658 0.929 . S
C1611 C1612 1.358 . S
C1611 C1613 1.356 . S
C1611 H1659 0.930 . S
C1612 N1609 1.279 . S
C1612 C1611 1.358 . S
C1612 H1615 0.930 . S
C1613 C1610 1.348 . S
C1613 C1611 1.356 . S
H1614 C1608 0.930 . S
H1615 C1612 0.930 . S
C1616 C1618 1.348 . S
C1616 C1619 1.356 . S
C1616 O1646 1.325 . S
N1617 C1620 1.314 . S
N1617 C1621 1.279 . S
C1618 C1616 1.348 . S
C1618 C1620 1.353 . S
C1618 H1660 0.929 . S
C1619 C1616 1.356 . S
C1619 C1621 1.358 . S
C1619 H1661 0.930 . S
C1620 N1617 1.314 . S
C1620 C1618 1.353 . S
C1620 H1662 0.930 . S
C1621 N1617 1.279 . S
C1621 C1619 1.358 . S
C1621 H1663 0.930 . S
C1622 C1623 1.348 . S
C1622 C1624 1.356 . S
C1622 O1647 1.325 . S
C1623 C1622 1.348 . S
C1623 C1625 1.353 . S
C1623 H1664 0.929 . S
C1624 C1622 1.356 . S
C1624 C1626 1.358 . S
C1624 H1665 0.930 . S
C1625 C1623 1.353 . S
C1625 N1627 1.314 . S
C1625 H1666 0.930 . S
C1626 C1624 1.358 . S
C1626 N1627 1.279 . S
C1626 H1667 0.930 . S
N1627 C1625 1.314 . S
N1627 C1626 1.279 . S
C1628 C1630 1.353 . S
C1628 N1631 1.314 . S
C1628 H1634 0.930 . S
C1629 N1631 1.279 . S
C1629 C1632 1.358 . S
C1629 H1635 0.930 . S
C1630 C1628 1.353 . S
C1630 C1633 1.348 . S
C1630 H1668 0.929 . S
N1631 Li1586 1.990 . S
N1631 C1628 1.314 . S
N1631 C1629 1.279 . S
C1632 C1629 1.358 . S
C1632 C1633 1.356 . S
C1632 H1669 0.930 . S
C1633 C1630 1.348 . S
C1633 C1632 1.356 . S
H1634 C1628 0.930 . S
H1635 C1629 0.930 . S
C1636 N1637 1.314 . S
C1636 C1638 1.353 . S
C1636 H1642 0.930 . S
N1637 Li1587 1.990 . S
N1637 C1636 1.314 . S
N1637 C1640 1.279 . S
C1638 C1636 1.353 . S
C1638 C1641 1.348 . S
C1638 H1670 0.929 . S
C1639 C1640 1.358 . S
C1639 C1641 1.356 . S
C1639 H1671 0.930 . S
C1640 N1637 1.279 . S
C1640 C1639 1.358 . S
C1640 H1643 0.930 . S
C1641 C1638 1.348 . S
C1641 C1639 1.356 . S
H1642 C1636 0.930 . S
H1643 C1640 0.930 . S
O1644 Li1584 1.956 . S
O1644 Li1585 1.970 . S
O1644 Li1586 1.961 . S
O1644 C1588 1.325 . S
O1645 Li1584 1.970 . S
O1645 Li1585 1.956 . S
O1645 Li1587 1.961 . S
O1645 C1594 1.325 . S
O1646 Li1584 1.961 . S
O1646 Li1586 1.956 . S
O1646 Li1587 1.970 . S
O1646 C1616 1.325 . S
O1647 Li1585 1.961 . S
O1647 Li1586 1.970 . S
O1647 Li1587 1.956 . S
O1647 C1622 1.325 . S
H1648 C1590 0.929 . S
H1649 C1591 0.930 . S
H1650 C1592 0.930 . S
H1651 C1593 0.930 . S
H1652 C1595 0.930 . S
H1653 C1597 0.929 . S
H1654 C1598 0.930 . S
H1655 C1599 0.930 . S
H1656 C1602 0.930 . S
H1657 C1605 0.929 . S
H1658 C1610 0.929 . S
H1659 C1611 0.930 . S
H1660 C1618 0.929 . S
H1661 C1619 0.930 . S
H1662 C1620 0.930 . S
H1663 C1621 0.930 . S
H1664 C1623 0.929 . S
H1665 C1624 0.930 . S
H1666 C1625 0.930 . S
H1667 C1626 0.930 . S
H1668 C1630 0.929 . S
H1669 C1632 0.930 . S
H1670 C1638 0.929 . S
H1671 C1639 0.930 . S
Li1672 N1689 1.990 . S
Li1672 O1732 1.956 . S
Li1672 O1733 1.970 . S
Li1672 O1734 1.961 1_545 S
Li1673 N1697 1.990 . S
Li1673 O1732 1.970 . S
Li1673 O1733 1.956 . S
Li1673 O1735 1.961 . S
Li1674 N1719 1.990 . S
Li1674 O1732 1.961 . S
Li1674 O1734 1.956 1_545 S
Li1674 O1735 1.970 . S
Li1675 N1725 1.990 . S
Li1675 O1733 1.961 1_565 S
Li1675 O1734 1.970 . S
Li1675 O1735 1.956 1_565 S
C1676 C1678 1.348 . S
C1676 C1679 1.356 . S
C1676 O1732 1.325 . S
N1677 C1680 1.314 . S
N1677 C1681 1.279 . S
C1678 C1676 1.348 . S
C1678 C1680 1.353 . S
C1678 H1736 0.929 . S
C1679 C1676 1.356 . S
C1679 C1681 1.358 . S
C1679 H1737 0.930 . S
C1680 N1677 1.314 . S
C1680 C1678 1.353 . S
C1680 H1738 0.930 . S
C1681 N1677 1.279 . S
C1681 C1679 1.358 . S
C1681 H1739 0.930 . S
C1682 C1685 1.348 . S
C1682 C1686 1.356 . S
C1682 O1733 1.325 . S
C1683 N1684 1.279 . S
C1683 C1686 1.358 . S
C1683 H1740 0.930 . S
N1684 C1683 1.279 . S
N1684 C1687 1.314 . S
C1685 C1682 1.348 . S
C1685 C1687 1.353 . S
C1685 H1741 0.929 . S
C1686 C1682 1.356 . S
C1686 C1683 1.358 . S
C1686 H1742 0.930 . S
C1687 N1684 1.314 . S
C1687 C1685 1.353 . S
C1687 H1743 0.930 . S
C1688 N1689 1.314 1_565 S
C1688 C1693 1.353 . S
C1688 H1694 0.930 . S
N1689 Li1672 1.990 . S
N1689 C1688 1.314 1_545 S
N1689 C1691 1.279 . S
C1690 C1691 1.358 . S
C1690 C1692 1.356 . S
C1690 H1744 0.930 . S
C1691 N1689 1.279 . S
C1691 C1690 1.358 . S
C1691 H1695 0.930 . S
C1692 C1690 1.356 . S
C1692 C1693 1.348 1_545 S
C1693 C1688 1.353 . S
C1693 C1692 1.348 1_565 S
C1693 H1745 0.929 . S
H1694 C1688 0.930 . S
H1695 C1691 0.930 . S
C1696 N1697 1.314 . S
C1696 C1698 1.353 . S
C1696 H1702 0.930 . S
N1697 Li1673 1.990 . S
N1697 C1696 1.314 . S
N1697 C1700 1.279 . S
C1698 C1696 1.353 . S
C1698 C1701 1.348 . S
C1698 H1746 0.929 . S
C1699 C1700 1.358 . S
C1699 C1701 1.356 . S
C1699 H1747 0.930 . S
C1700 N1697 1.279 . S
C1700 C1699 1.358 . S
C1700 H1703 0.930 . S
C1701 C1698 1.348 . S
C1701 C1699 1.356 . S
H1702 C1696 0.930 . S
H1703 C1700 0.930 . S
C1704 C1706 1.348 . S
C1704 C1707 1.356 . S
C1704 O1734 1.325 . S
N1705 C1708 1.314 . S
N1705 C1709 1.279 . S
C1706 C1704 1.348 . S
C1706 C1708 1.353 . S
C1706 H1748 0.929 . S
C1707 C1704 1.356 . S
C1707 C1709 1.358 . S
C1707 H1749 0.930 . S
C1708 N1705 1.314 . S
C1708 C1706 1.353 . S
C1708 H1750 0.930 . S
C1709 N1705 1.279 . S
C1709 C1707 1.358 . S
C1709 H1751 0.930 . S
C1710 C1711 1.348 . S
C1710 C1712 1.356 . S
C1710 O1735 1.325 . S
C1711 C1710 1.348 . S
C1711 C1713 1.353 . S
C1711 H1752 0.924 1_545 S
C1712 C1710 1.356 . S
C1712 C1714 1.358 . S
C1712 H1753 0.930 . S
C1713 C1711 1.353 . S
C1713 N1715 1.314 . S
C1713 H1754 0.936 . S
C1714 C1712 1.358 . S
C1714 N1715 1.279 . S
C1714 H1755 0.930 . S
N1715 C1713 1.314 . S
N1715 C1714 1.279 . S
C1716 C1718 1.353 . S
C1716 N1719 1.314 . S
C1716 H1722 0.930 . S
C1717 N1719 1.279 1_565 S
C1717 C1720 1.358 . S
C1717 H1723 0.930 . S
C1718 C1716 1.353 . S
C1718 C1721 1.334 1_545 S
C1718 H1756 0.929 . S
N1719 Li1674 1.990 . S
N1719 C1716 1.314 . S
N1719 C1717 1.279 1_545 S
C1720 C1717 1.358 . S
C1720 C1721 1.372 . S
C1720 H1757 0.930 . S
C1721 C1718 1.334 1_565 S
C1721 C1720 1.372 . S
H1722 C1716 0.930 . S
H1723 C1717 0.930 . S
C1724 N1725 1.314 . S
C1724 C1726 1.353 . S
C1724 H1730 0.930 . S
N1725 Li1675 1.990 . S
N1725 C1724 1.314 . S
N1725 C1728 1.279 . S
C1726 C1724 1.353 . S
C1726 C1729 1.348 . S
C1726 H1758 0.929 . S
C1727 C1728 1.358 . S
C1727 C1729 1.356 . S
C1727 H1759 0.930 . S
C1728 N1725 1.279 . S
C1728 C1727 1.358 . S
C1728 H1731 0.930 . S
C1729 C1726 1.348 . S
C1729 C1727 1.356 . S
H1730 C1724 0.930 . S
H1731 C1728 0.930 . S
O1732 Li1672 1.956 . S
O1732 Li1673 1.970 . S
O1732 Li1674 1.961 . S
O1732 C1676 1.325 . S
O1733 Li1672 1.970 . S
O1733 Li1673 1.956 . S
O1733 Li1675 1.961 1_545 S
O1733 C1682 1.325 . S
O1734 Li1672 1.961 1_565 S
O1734 Li1674 1.956 1_565 S
O1734 Li1675 1.970 . S
O1734 C1704 1.325 . S
O1735 Li1673 1.961 . S
O1735 Li1674 1.970 . S
O1735 Li1675 1.956 1_545 S
O1735 C1710 1.325 . S
H1736 C1678 0.929 . S
H1737 C1679 0.930 . S
H1738 C1680 0.930 . S
H1739 C1681 0.930 . S
H1740 C1683 0.930 . S
H1741 C1685 0.929 . S
H1742 C1686 0.930 . S
H1743 C1687 0.930 . S
H1744 C1690 0.930 . S
H1745 C1693 0.929 . S
H1746 C1698 0.929 . S
H1747 C1699 0.930 . S
H1748 C1706 0.929 . S
H1749 C1707 0.930 . S
H1750 C1708 0.930 . S
H1751 C1709 0.930 . S
H1752 C1711 0.924 1_565 S
H1753 C1712 0.930 . S
H1754 C1713 0.936 . S
H1755 C1714 0.930 . S
H1756 C1718 0.929 . S
H1757 C1720 0.930 . S
H1758 C1726 0.929 . S
H1759 C1727 0.930 . S
Li1760 N1777 1.990 . S
Li1760 O1820 1.956 . S
Li1760 O1821 1.970 . S
Li1760 O1822 1.961 . S
Li1761 N1785 1.990 . S
Li1761 O1820 1.970 . S
Li1761 O1821 1.956 . S
Li1761 O1823 1.961 . S
Li1762 N1807 1.990 1_554 S
Li1762 O1820 1.961 . S
Li1762 O1822 1.956 . S
Li1762 O1823 1.970 . S
Li1763 N1813 1.990 . S
Li1763 O1821 1.961 . S
Li1763 O1822 1.970 . S
Li1763 O1823 1.956 . S
C1764 C1766 1.348 . S
C1764 C1767 1.356 . S
C1764 O1820 1.325 . S
N1765 C1768 1.314 . S
N1765 C1769 1.279 . S
C1766 C1764 1.348 . S
C1766 C1768 1.353 . S
C1766 H1824 0.929 . S
C1767 C1764 1.356 . S
C1767 C1769 1.358 . S
C1767 H1825 0.930 . S
C1768 N1765 1.314 . S
C1768 C1766 1.353 . S
C1768 H1826 0.930 . S
C1769 N1765 1.279 . S
C1769 C1767 1.358 . S
C1769 H1827 0.930 . S
C1770 C1773 1.348 . S
C1770 C1774 1.356 . S
C1770 O1821 1.325 . S
C1771 N1772 1.279 . S
C1771 C1774 1.358 . S
C1771 H1828 0.930 . S
N1772 C1771 1.279 . S
N1772 C1775 1.314 . S
C1773 C1770 1.348 . S
C1773 C1775 1.353 . S
C1773 H1829 0.929 . S
C1774 C1770 1.356 . S
C1774 C1771 1.358 . S
C1774 H1830 0.930 . S
C1775 N1772 1.314 . S
C1775 C1773 1.353 . S
C1775 H1831 0.930 . S
C1776 N1777 1.314 . S
C1776 C1781 1.353 . S
C1776 H1782 0.930 . S
N1777 Li1760 1.990 . S
N1777 C1776 1.314 . S
N1777 C1779 1.279 . S
C1778 C1779 1.358 . S
C1778 C1780 1.356 . S
C1778 H1832 0.930 . S
C1779 N1777 1.279 . S
C1779 C1778 1.358 . S
C1779 H1783 0.930 . S
C1780 C1778 1.356 . S
C1780 C1781 1.348 . S
C1781 C1776 1.353 . S
C1781 C1780 1.348 . S
C1781 H1833 0.929 . S
H1782 C1776 0.930 . S
H1783 C1779 0.930 . S
C1784 N1785 1.314 . S
C1784 C1786 1.353 . S
C1784 H1790 0.932 . S
N1785 Li1761 1.990 . S
N1785 C1784 1.314 . S
N1785 C1788 1.279 . S
C1786 C1784 1.353 . S
C1786 C1789 1.348 . S
C1786 H1834 0.929 1_554 S
C1787 C1788 1.358 . S
C1787 C1789 1.356 . S
C1787 H1835 0.930 . S
C1788 N1785 1.279 . S
C1788 C1787 1.358 . S
C1788 H1791 0.930 . S
C1789 C1786 1.348 . S
C1789 C1787 1.356 . S
H1790 C1784 0.932 . S
H1791 C1788 0.930 . S
C1792 C1794 1.348 . S
C1792 C1795 1.356 . S
C1792 O1822 1.325 . S
N1793 C1796 1.314 . S
N1793 C1797 1.279 . S
C1794 C1792 1.348 . S
C1794 C1796 1.353 . S
C1794 H1836 0.929 . S
C1795 C1792 1.356 . S
C1795 C1797 1.358 . S
C1795 H1837 0.930 . S
C1796 N1793 1.314 . S
C1796 C1794 1.353 . S
C1796 H1838 0.930 . S
C1797 N1793 1.279 . S
C1797 C1795 1.358 . S
C1797 H1839 0.930 . S
C1798 C1799 1.348 . S
C1798 C1800 1.356 . S
C1798 O1823 1.325 1_556 S
C1799 C1798 1.348 . S
C1799 C1801 1.353 . S
C1799 H1840 0.929 . S
C1800 C1798 1.356 . S
C1800 C1802 1.358 . S
C1800 H1841 0.930 . S
C1801 C1799 1.353 . S
C1801 N1803 1.314 . S
C1801 H1842 0.930 . S
C1802 C1800 1.358 . S
C1802 N1803 1.279 . S
C1802 H1843 0.930 . S
N1803 C1801 1.314 . S
N1803 C1802 1.279 . S
C1804 C1806 1.353 . S
C1804 N1807 1.314 . S
C1804 H1810 0.930 . S
C1805 N1807 1.279 . S
C1805 C1808 1.358 . S
C1805 H1811 0.930 . S
C1806 C1804 1.353 . S
C1806 C1809 1.348 . S
C1806 H1844 0.929 . S
N1807 Li1762 1.990 1_556 S
N1807 C1804 1.314 . S
N1807 C1805 1.279 . S
C1808 C1805 1.358 . S
C1808 C1809 1.356 . S
C1808 H1845 0.930 . S
C1809 C1806 1.348 . S
C1809 C1808 1.356 . S
H1810 C1804 0.930 . S
H1811 C1805 0.930 . S
C1812 N1813 1.314 . S
C1812 C1814 1.353 . S
C1812 H1818 0.930 . S
N1813 Li1763 1.990 . S
N1813 C1812 1.314 . S
N1813 C1816 1.279 . S
C1814 C1812 1.353 . S
C1814 C1817 1.348 . S
C1814 H1846 0.929 . S
C1815 C1816 1.358 1_556 S
C1815 C1817 1.356 1_556 S
C1815 H1847 0.930 . S
C1816 N1813 1.279 . S
C1816 C1815 1.358 1_554 S
C1816 H1819 0.930 1_554 S
C1817 C1814 1.348 . S
C1817 C1815 1.356 1_554 S
H1818 C1812 0.930 . S
H1819 C1816 0.930 1_556 S
O1820 Li1760 1.956 . S
O1820 Li1761 1.970 . S
O1820 Li1762 1.961 . S
O1820 C1764 1.325 . S
O1821 Li1760 1.970 . S
O1821 Li1761 1.956 . S
O1821 Li1763 1.961 . S
O1821 C1770 1.325 . S
O1822 Li1760 1.961 . S
O1822 Li1762 1.956 . S
O1822 Li1763 1.970 . S
O1822 C1792 1.325 . S
O1823 Li1761 1.961 . S
O1823 Li1762 1.970 . S
O1823 Li1763 1.956 . S
O1823 C1798 1.325 1_554 S
H1824 C1766 0.929 . S
H1825 C1767 0.930 . S
H1826 C1768 0.930 . S
H1827 C1769 0.930 . S
H1828 C1771 0.930 . S
H1829 C1773 0.929 . S
H1830 C1774 0.930 . S
H1831 C1775 0.930 . S
H1832 C1778 0.930 . S
H1833 C1781 0.929 . S
H1834 C1786 0.929 1_556 S
H1835 C1787 0.930 . S
H1836 C1794 0.929 . S
H1837 C1795 0.930 . S
H1838 C1796 0.930 . S
H1839 C1797 0.930 . S
H1840 C1799 0.929 . S
H1841 C1800 0.930 . S
H1842 C1801 0.930 . S
H1843 C1802 0.930 . S
H1844 C1806 0.929 . S
H1845 C1808 0.930 . S
H1846 C1814 0.929 . S
H1847 C1815 0.930 . S
Li1848 N1865 1.990 . S
Li1848 O1908 1.956 . S
Li1848 O1909 1.970 . S
Li1848 O1910 1.961 . S
Li1849 N1873 1.990 . S
Li1849 O1908 1.970 . S
Li1849 O1909 1.956 . S
Li1849 O1911 1.961 . S
Li1850 N1895 1.990 . S
Li1850 O1908 1.961 . S
Li1850 O1910 1.956 . S
Li1850 O1911 1.970 . S
Li1851 N1901 1.990 . S
Li1851 O1909 1.961 . S
Li1851 O1910 1.970 . S
Li1851 O1911 1.956 . S
C1852 C1854 1.348 . S
C1852 C1855 1.356 . S
C1852 O1908 1.325 . S
N1853 C1856 1.314 . S
N1853 C1857 1.279 . S
C1854 C1852 1.348 . S
C1854 C1856 1.353 . S
C1854 H1912 0.929 . S
C1855 C1852 1.356 . S
C1855 C1857 1.358 . S
C1855 H1913 0.930 . S
C1856 N1853 1.314 . S
C1856 C1854 1.353 . S
C1856 H1914 0.930 . S
C1857 N1853 1.279 . S
C1857 C1855 1.358 . S
C1857 H1915 0.930 . S
C1858 C1861 1.348 . S
C1858 C1862 1.356 . S
C1858 O1909 1.325 . S
C1859 N1860 1.279 . S
C1859 C1862 1.358 . S
C1859 H1916 0.930 . S
N1860 C1859 1.279 . S
N1860 C1863 1.314 . S
C1861 C1858 1.348 . S
C1861 C1863 1.353 . S
C1861 H1917 0.929 . S
C1862 C1858 1.356 . S
C1862 C1859 1.358 . S
C1862 H1918 0.930 . S
C1863 N1860 1.314 . S
C1863 C1861 1.353 . S
C1863 H1919 0.930 . S
C1864 N1865 1.314 . S
C1864 C1869 1.353 . S
C1864 H1870 0.930 . S
N1865 Li1848 1.990 . S
N1865 C1864 1.314 . S
N1865 C1867 1.279 . S
C1866 C1867 1.358 . S
C1866 C1868 1.356 . S
C1866 H1920 0.930 . S
C1867 N1865 1.279 . S
C1867 C1866 1.358 . S
C1867 H1871 0.930 . S
C1868 C1866 1.356 . S
C1868 C1869 1.348 . S
C1869 C1864 1.353 . S
C1869 C1868 1.348 . S
C1869 H1921 0.929 . S
H1870 C1864 0.930 . S
H1871 C1867 0.930 . S
C1872 N1873 1.314 . S
C1872 C1874 1.353 . S
C1872 H1878 0.930 . S
N1873 Li1849 1.990 . S
N1873 C1872 1.314 . S
N1873 C1876 1.279 . S
C1874 C1872 1.353 . S
C1874 C1877 1.348 . S
C1874 H1922 0.929 . S
C1875 C1876 1.358 . S
C1875 C1877 1.356 . S
C1875 H1923 0.930 . S
C1876 N1873 1.279 . S
C1876 C1875 1.358 . S
C1876 H1879 0.930 . S
C1877 C1874 1.348 . S
C1877 C1875 1.356 . S
H1878 C1872 0.930 . S
H1879 C1876 0.930 . S
C1880 C1882 1.348 . S
C1880 C1883 1.356 . S
C1880 O1910 1.325 . S
N1881 C1884 1.314 . S
N1881 C1885 1.279 . S
C1882 C1880 1.348 . S
C1882 C1884 1.353 . S
C1882 H1924 0.929 . S
C1883 C1880 1.356 . S
C1883 C1885 1.358 . S
C1883 H1925 0.930 . S
C1884 N1881 1.314 . S
C1884 C1882 1.353 . S
C1884 H1926 0.930 . S
C1885 N1881 1.279 . S
C1885 C1883 1.358 . S
C1885 H1927 0.930 . S
C1886 C1887 1.348 . S
C1886 C1888 1.356 . S
C1886 O1911 1.325 . S
C1887 C1886 1.348 . S
C1887 C1889 1.353 . S
C1887 H1928 0.929 . S
C1888 C1886 1.356 . S
C1888 C1890 1.358 . S
C1888 H1929 0.930 . S
C1889 C1887 1.353 . S
C1889 N1891 1.314 . S
C1889 H1930 0.930 . S
C1890 C1888 1.358 . S
C1890 N1891 1.279 . S
C1890 H1931 0.930 . S
N1891 C1889 1.314 . S
N1891 C1890 1.279 . S
C1892 C1894 1.353 . S
C1892 N1895 1.314 . S
C1892 H1898 0.930 . S
C1893 N1895 1.279 . S
C1893 C1896 1.358 . S
C1893 H1899 0.930 . S
C1894 C1892 1.353 . S
C1894 C1897 1.348 . S
C1894 H1932 0.929 . S
N1895 Li1850 1.990 . S
N1895 C1892 1.314 . S
N1895 C1893 1.279 . S
C1896 C1893 1.358 . S
C1896 C1897 1.356 . S
C1896 H1933 0.930 . S
C1897 C1894 1.348 . S
C1897 C1896 1.356 . S
H1898 C1892 0.930 . S
H1899 C1893 0.930 . S
C1900 N1901 1.314 . S
C1900 C1902 1.353 . S
C1900 H1906 0.930 . S
N1901 Li1851 1.990 . S
N1901 C1900 1.314 . S
N1901 C1904 1.279 . S
C1902 C1900 1.353 . S
C1902 C1905 1.348 . S
C1902 H1934 0.929 . S
C1903 C1904 1.358 . S
C1903 C1905 1.356 . S
C1903 H1935 0.930 . S
C1904 N1901 1.279 . S
C1904 C1903 1.358 . S
C1904 H1907 0.930 . S
C1905 C1902 1.348 . S
C1905 C1903 1.356 . S
H1906 C1900 0.930 . S
H1907 C1904 0.930 . S
O1908 Li1848 1.956 . S
O1908 Li1849 1.970 . S
O1908 Li1850 1.961 . S
O1908 C1852 1.325 . S
O1909 Li1848 1.970 . S
O1909 Li1849 1.956 . S
O1909 Li1851 1.961 . S
O1909 C1858 1.325 . S
O1910 Li1848 1.961 . S
O1910 Li1850 1.956 . S
O1910 Li1851 1.970 . S
O1910 C1880 1.325 . S
O1911 Li1849 1.961 . S
O1911 Li1850 1.970 . S
O1911 Li1851 1.956 . S
O1911 C1886 1.325 . S
H1912 C1854 0.929 . S
H1913 C1855 0.930 . S
H1914 C1856 0.930 . S
H1915 C1857 0.930 . S
H1916 C1859 0.930 . S
H1917 C1861 0.929 . S
H1918 C1862 0.930 . S
H1919 C1863 0.930 . S
H1920 C1866 0.930 . S
H1921 C1869 0.929 . S
H1922 C1874 0.929 . S
H1923 C1875 0.930 . S
H1924 C1882 0.929 . S
H1925 C1883 0.930 . S
H1926 C1884 0.930 . S
H1927 C1885 0.930 . S
H1928 C1887 0.929 . S
H1929 C1888 0.930 . S
H1930 C1889 0.930 . S
H1931 C1890 0.930 . S
H1932 C1894 0.929 . S
H1933 C1896 0.930 . S
H1934 C1902 0.929 . S
H1935 C1903 0.930 . S
Li1936 N1953 1.990 . S
Li1936 O1996 1.956 . S
Li1936 O1997 1.970 . S
Li1936 O1998 1.961 . S
Li1937 N1961 1.990 . S
Li1937 O1996 1.970 . S
Li1937 O1997 1.956 . S
Li1937 O1999 1.961 . S
Li1938 N1983 1.990 . S
Li1938 O1996 1.961 . S
Li1938 O1998 1.956 . S
Li1938 O1999 1.970 . S
Li1939 N1989 1.990 . S
Li1939 O1997 1.961 . S
Li1939 O1998 1.970 . S
Li1939 O1999 1.956 . S
C1940 C1942 1.348 . S
C1940 C1943 1.356 . S
C1940 O1996 1.325 . S
N1941 C1944 1.314 . S
N1941 C1945 1.279 . S
C1942 C1940 1.348 . S
C1942 C1944 1.353 . S
C1942 H2000 0.929 . S
C1943 C1940 1.356 . S
C1943 C1945 1.358 . S
C1943 H2001 0.930 . S
C1944 N1941 1.314 . S
C1944 C1942 1.353 . S
C1944 H2002 0.930 . S
C1945 N1941 1.279 . S
C1945 C1943 1.358 . S
C1945 H2003 0.930 . S
C1946 C1949 1.348 . S
C1946 C1950 1.356 . S
C1946 O1997 1.325 . S
C1947 N1948 1.279 . S
C1947 C1950 1.358 . S
C1947 H2004 0.930 . S
N1948 C1947 1.279 . S
N1948 C1951 1.314 . S
C1949 C1946 1.348 . S
C1949 C1951 1.353 . S
C1949 H2005 0.929 . S
C1950 C1946 1.356 . S
C1950 C1947 1.358 . S
C1950 H2006 0.930 . S
C1951 N1948 1.314 . S
C1951 C1949 1.353 . S
C1951 H2007 0.930 . S
C1952 N1953 1.314 . S
C1952 C1957 1.353 . S
C1952 H1958 0.930 . S
N1953 Li1936 1.990 . S
N1953 C1952 1.314 . S
N1953 C1955 1.279 . S
C1954 C1955 1.358 . S
C1954 C1956 1.356 . S
C1954 H2008 0.930 . S
C1955 N1953 1.279 . S
C1955 C1954 1.358 . S
C1955 H1959 0.930 . S
C1956 C1954 1.356 . S
C1956 C1957 1.348 . S
C1957 C1952 1.353 . S
C1957 C1956 1.348 . S
C1957 H2009 0.929 . S
H1958 C1952 0.930 . S
H1959 C1955 0.930 . S
C1960 N1961 1.314 . S
C1960 C1962 1.353 . S
C1960 H1966 0.930 . S
N1961 Li1937 1.990 . S
N1961 C1960 1.314 . S
N1961 C1964 1.279 . S
C1962 C1960 1.353 . S
C1962 C1965 1.348 . S
C1962 H2010 0.929 . S
C1963 C1964 1.358 . S
C1963 C1965 1.356 . S
C1963 H2011 0.930 . S
C1964 N1961 1.279 . S
C1964 C1963 1.358 . S
C1964 H1967 0.930 . S
C1965 C1962 1.348 . S
C1965 C1963 1.356 . S
H1966 C1960 0.930 . S
H1967 C1964 0.930 . S
C1968 C1970 1.348 . S
C1968 C1971 1.356 . S
C1968 O1998 1.325 . S
N1969 C1972 1.314 . S
N1969 C1973 1.279 . S
C1970 C1968 1.348 . S
C1970 C1972 1.353 . S
C1970 H2012 0.929 . S
C1971 C1968 1.356 . S
C1971 C1973 1.358 . S
C1971 H2013 0.930 . S
C1972 N1969 1.314 . S
C1972 C1970 1.353 . S
C1972 H2014 0.930 . S
C1973 N1969 1.279 . S
C1973 C1971 1.358 . S
C1973 H2015 0.930 . S
C1974 C1975 1.348 . S
C1974 C1976 1.356 . S
C1974 O1999 1.325 . S
C1975 C1974 1.348 . S
C1975 C1977 1.353 . S
C1975 H2016 0.929 . S
C1976 C1974 1.356 . S
C1976 C1978 1.358 . S
C1976 H2017 0.930 . S
C1977 C1975 1.353 . S
C1977 N1979 1.314 . S
C1977 H2018 0.930 . S
C1978 C1976 1.358 . S
C1978 N1979 1.279 . S
C1978 H2019 0.930 . S
N1979 C1977 1.314 . S
N1979 C1978 1.279 . S
C1980 C1982 1.353 . S
C1980 N1983 1.314 . S
C1980 H1986 0.930 . S
C1981 N1983 1.279 . S
C1981 C1984 1.358 . S
C1981 H1987 0.930 . S
C1982 C1980 1.353 . S
C1982 C1985 1.348 . S
C1982 H2020 0.929 . S
N1983 Li1938 1.990 . S
N1983 C1980 1.314 . S
N1983 C1981 1.279 . S
C1984 C1981 1.358 . S
C1984 C1985 1.356 . S
C1984 H2021 0.930 . S
C1985 C1982 1.348 . S
C1985 C1984 1.356 . S
H1986 C1980 0.930 . S
H1987 C1981 0.930 . S
C1988 N1989 1.314 . S
C1988 C1990 1.353 . S
C1988 H1994 0.930 . S
N1989 Li1939 1.990 . S
N1989 C1988 1.314 . S
N1989 C1992 1.279 . S
C1990 C1988 1.353 . S
C1990 C1993 1.348 . S
C1990 H2022 0.929 . S
C1991 C1992 1.358 . S
C1991 C1993 1.356 . S
C1991 H2023 0.930 . S
C1992 N1989 1.279 . S
C1992 C1991 1.358 . S
C1992 H1995 0.930 . S
C1993 C1990 1.348 . S
C1993 C1991 1.356 . S
H1994 C1988 0.930 . S
H1995 C1992 0.930 . S
O1996 Li1936 1.956 . S
O1996 Li1937 1.970 . S
O1996 Li1938 1.961 . S
O1996 C1940 1.325 . S
O1997 Li1936 1.970 . S
O1997 Li1937 1.956 . S
O1997 Li1939 1.961 . S
O1997 C1946 1.325 . S
O1998 Li1936 1.961 . S
O1998 Li1938 1.956 . S
O1998 Li1939 1.970 . S
O1998 C1968 1.325 . S
O1999 Li1937 1.961 . S
O1999 Li1938 1.970 . S
O1999 Li1939 1.956 . S
O1999 C1974 1.325 . S
H2000 C1942 0.929 . S
H2001 C1943 0.930 . S
H2002 C1944 0.930 . S
H2003 C1945 0.930 . S
H2004 C1947 0.930 . S
H2005 C1949 0.929 . S
H2006 C1950 0.930 . S
H2007 C1951 0.930 . S
H2008 C1954 0.930 . S
H2009 C1957 0.929 . S
H2010 C1962 0.929 . S
H2011 C1963 0.930 . S
H2012 C1970 0.929 . S
H2013 C1971 0.930 . S
H2014 C1972 0.930 . S
H2015 C1973 0.930 . S
H2016 C1975 0.929 . S
H2017 C1976 0.930 . S
H2018 C1977 0.930 . S
H2019 C1978 0.930 . S
H2020 C1982 0.929 . S
H2021 C1984 0.930 . S
H2022 C1990 0.929 . S
H2023 C1991 0.930 . S
Li2024 N2041 1.990 . S
Li2024 O2084 1.956 . S
Li2024 O2085 1.970 . S
Li2024 O2086 1.961 . S
Li2025 N2049 1.990 . S
Li2025 O2084 1.970 . S
Li2025 O2085 1.956 . S
Li2025 O2087 1.961 . S
Li2026 N2071 1.990 . S
Li2026 O2084 1.961 . S
Li2026 O2086 1.956 . S
Li2026 O2087 1.970 . S
Li2027 N2077 1.990 . S
Li2027 O2085 1.961 . S
Li2027 O2086 1.970 . S
Li2027 O2087 1.956 . S
C2028 C2030 1.348 . S
C2028 C2031 1.356 . S
C2028 O2084 1.325 . S
N2029 C2032 1.314 . S
N2029 C2033 1.279 . S
C2030 C2028 1.348 . S
C2030 C2032 1.353 . S
C2030 H2088 0.929 . S
C2031 C2028 1.356 . S
C2031 C2033 1.358 . S
C2031 H2089 0.930 . S
C2032 N2029 1.314 . S
C2032 C2030 1.353 . S
C2032 H2090 0.930 . S
C2033 N2029 1.279 . S
C2033 C2031 1.358 . S
C2033 H2091 0.930 . S
C2034 C2037 1.348 . S
C2034 C2038 1.356 . S
C2034 O2085 1.325 . S
C2035 N2036 1.279 . S
C2035 C2038 1.358 . S
C2035 H2092 0.930 . S
N2036 C2035 1.279 . S
N2036 C2039 1.314 . S
C2037 C2034 1.348 . S
C2037 C2039 1.353 . S
C2037 H2093 0.929 . S
C2038 C2034 1.356 . S
C2038 C2035 1.358 . S
C2038 H2094 0.930 . S
C2039 N2036 1.314 . S
C2039 C2037 1.353 . S
C2039 H2095 0.930 . S
C2040 N2041 1.314 . S
C2040 C2045 1.353 . S
C2040 H2046 0.930 . S
N2041 Li2024 1.990 . S
N2041 C2040 1.314 . S
N2041 C2043 1.279 . S
C2042 C2043 1.358 . S
C2042 C2044 1.356 . S
C2042 H2096 0.930 . S
C2043 N2041 1.279 . S
C2043 C2042 1.358 . S
C2043 H2047 0.930 . S
C2044 C2042 1.356 . S
C2044 C2045 1.348 . S
C2045 C2040 1.353 . S
C2045 C2044 1.348 . S
C2045 H2097 0.929 . S
H2046 C2040 0.930 . S
H2047 C2043 0.930 . S
C2048 N2049 1.314 . S
C2048 C2050 1.353 . S
C2048 H2054 0.930 . S
N2049 Li2025 1.990 . S
N2049 C2048 1.314 . S
N2049 C2052 1.279 . S
C2050 C2048 1.353 . S
C2050 C2053 1.348 . S
C2050 H2098 0.929 . S
C2051 C2052 1.358 . S
C2051 C2053 1.356 . S
C2051 H2099 0.930 . S
C2052 N2049 1.279 . S
C2052 C2051 1.358 . S
C2052 H2055 0.930 . S
C2053 C2050 1.348 . S
C2053 C2051 1.356 . S
H2054 C2048 0.930 . S
H2055 C2052 0.930 . S
C2056 C2058 1.348 . S
C2056 C2059 1.356 . S
C2056 O2086 1.325 . S
N2057 C2060 1.314 . S
N2057 C2061 1.279 . S
C2058 C2056 1.348 . S
C2058 C2060 1.353 . S
C2058 H2100 0.929 . S
C2059 C2056 1.356 . S
C2059 C2061 1.358 . S
C2059 H2101 0.930 . S
C2060 N2057 1.314 . S
C2060 C2058 1.353 . S
C2060 H2102 0.930 . S
C2061 N2057 1.279 . S
C2061 C2059 1.358 . S
C2061 H2103 0.930 . S
C2062 C2063 1.348 . S
C2062 C2064 1.356 . S
C2062 O2087 1.325 . S
C2063 C2062 1.348 . S
C2063 C2065 1.353 . S
C2063 H2104 0.929 . S
C2064 C2062 1.356 . S
C2064 C2066 1.358 . S
C2064 H2105 0.930 . S
C2065 C2063 1.353 . S
C2065 N2067 1.314 . S
C2065 H2106 0.930 . S
C2066 C2064 1.358 . S
C2066 N2067 1.279 . S
C2066 H2107 0.930 . S
N2067 C2065 1.314 . S
N2067 C2066 1.279 . S
C2068 C2070 1.353 . S
C2068 N2071 1.314 . S
C2068 H2074 0.930 . S
C2069 N2071 1.279 . S
C2069 C2072 1.358 . S
C2069 H2075 0.930 . S
C2070 C2068 1.353 . S
C2070 C2073 1.348 . S
C2070 H2108 0.929 . S
N2071 Li2026 1.990 . S
N2071 C2068 1.314 . S
N2071 C2069 1.279 . S
C2072 C2069 1.358 . S
C2072 C2073 1.356 . S
C2072 H2109 0.930 . S
C2073 C2070 1.348 . S
C2073 C2072 1.356 . S
H2074 C2068 0.930 . S
H2075 C2069 0.930 . S
C2076 N2077 1.314 . S
C2076 C2078 1.353 . S
C2076 H2082 0.930 . S
N2077 Li2027 1.990 . S
N2077 C2076 1.314 . S
N2077 C2080 1.279 . S
C2078 C2076 1.353 . S
C2078 C2081 1.348 . S
C2078 H2110 0.929 . S
C2079 C2080 1.358 . S
C2079 C2081 1.356 . S
C2079 H2111 0.930 . S
C2080 N2077 1.279 . S
C2080 C2079 1.358 . S
C2080 H2083 0.930 . S
C2081 C2078 1.348 . S
C2081 C2079 1.356 . S
H2082 C2076 0.930 . S
H2083 C2080 0.930 . S
O2084 Li2024 1.956 . S
O2084 Li2025 1.970 . S
O2084 Li2026 1.961 . S
O2084 C2028 1.325 . S
O2085 Li2024 1.970 . S
O2085 Li2025 1.956 . S
O2085 Li2027 1.961 . S
O2085 C2034 1.325 . S
O2086 Li2024 1.961 . S
O2086 Li2026 1.956 . S
O2086 Li2027 1.970 . S
O2086 C2056 1.325 . S
O2087 Li2025 1.961 . S
O2087 Li2026 1.970 . S
O2087 Li2027 1.956 . S
O2087 C2062 1.325 . S
H2088 C2030 0.929 . S
H2089 C2031 0.930 . S
H2090 C2032 0.930 . S
H2091 C2033 0.930 . S
H2092 C2035 0.930 . S
H2093 C2037 0.929 . S
H2094 C2038 0.930 . S
H2095 C2039 0.930 . S
H2096 C2042 0.930 . S
H2097 C2045 0.929 . S
H2098 C2050 0.929 . S
H2099 C2051 0.930 . S
H2100 C2058 0.929 . S
H2101 C2059 0.930 . S
H2102 C2060 0.930 . S
H2103 C2061 0.930 . S
H2104 C2063 0.929 . S
H2105 C2064 0.930 . S
H2106 C2065 0.930 . S
H2107 C2066 0.930 . S
H2108 C2070 0.929 . S
H2109 C2072 0.930 . S
H2110 C2078 0.929 . S
H2111 C2079 0.930 . S
Tb2112 C2114 2.809 1_455 S
Tb2112 O2132 2.484 1_455 S
Tb2112 O2133 2.440 1_454 S
Tb2112 O2134 2.658 . S
Tb2112 O2135 2.409 1_554 S
Tb2112 O2136 2.378 . S
Tb2112 O2140 2.325 . S
Tb2112 O2143 2.341 1_545 S
Tb2113 C2123 2.809 1_545 S
Tb2113 O2134 2.325 . S
Tb2113 O2137 2.341 . S
Tb2113 O2138 2.484 1_545 S
Tb2113 O2139 2.440 . S
Tb2113 O2140 2.658 . S
Tb2113 O2141 2.409 . S
Tb2113 O2142 2.378 1_545 S
C2114 Tb2112 2.809 1_655 S
C2114 C2115 1.514 . S
C2114 O2132 1.248 . S
C2114 O2133 1.266 1_554 S
C2115 C2114 1.514 . S
C2115 C2116 1.359 . S
C2115 C2120 1.348 1_554 S
C2116 C2115 1.359 . S
C2116 C2117 1.380 . S
C2116 H2144 0.929 . S
C2117 C2116 1.380 . S
C2117 C2118 1.393 . S
C2117 H2145 0.931 . S
C2118 C2117 1.393 . S
C2118 C2119 1.327 1_554 S
C2119 C2118 1.327 1_556 S
C2119 C2120 1.408 . S
C2119 H2146 0.930 . S
C2120 C2115 1.348 1_556 S
C2120 C2119 1.408 . S
C2120 H2147 0.930 . S
C2121 O2134 1.281 1_556 S
C2121 O2135 1.254 . S
C2122 O2136 1.236 . S
C2122 O2137 1.266 . S
C2123 Tb2113 2.809 1_565 S
C2123 C2124 1.514 . S
C2123 O2138 1.248 . S
C2123 O2139 1.266 1_565 S
C2124 C2123 1.514 . S
C2124 C2125 1.359 . S
C2124 C2129 1.348 . S
C2125 C2124 1.359 . S
C2125 C2126 1.380 . S
C2125 H2148 0.929 . S
C2126 C2125 1.380 . S
C2126 C2127 1.347 . S
C2126 H2149 0.931 . S
C2127 C2126 1.347 . S
C2127 C2128 1.369 . S
C2128 C2127 1.369 . S
C2128 C2129 1.408 . S
C2128 H2150 0.930 . S
C2129 C2124 1.348 . S
C2129 C2128 1.408 . S
C2129 H2151 0.930 . S
C2130 O2140 1.281 . S
C2130 O2141 1.254 . S
C2131 O2142 1.236 . S
C2131 O2143 1.266 . S
O2132 Tb2112 2.484 1_655 S
O2132 C2114 1.248 . S
O2133 Tb2112 2.440 1_656 S
O2133 C2114 1.266 1_556 S
O2134 Tb2112 2.658 . S
O2134 Tb2113 2.325 . S
O2134 C2121 1.281 1_554 S
O2135 Tb2112 2.409 1_556 S
O2135 C2121 1.254 . S
O2136 Tb2112 2.378 . S
O2136 C2122 1.236 . S
O2137 Tb2113 2.341 . S
O2137 C2122 1.266 . S
O2138 Tb2113 2.484 1_565 S
O2138 C2123 1.248 . S
O2139 Tb2113 2.440 . S
O2139 C2123 1.266 1_545 S
O2140 Tb2112 2.325 . S
O2140 Tb2113 2.658 . S
O2140 C2130 1.281 . S
O2141 Tb2113 2.409 . S
O2141 C2130 1.254 . S
O2142 Tb2113 2.378 1_565 S
O2142 C2131 1.236 . S
O2143 Tb2112 2.341 1_565 S
O2143 C2131 1.266 . S
H2144 C2116 0.929 . S
H2145 C2117 0.931 . S
H2146 C2119 0.930 . S
H2147 C2120 0.930 . S
H2148 C2125 0.929 . S
H2149 C2126 0.931 . S
H2150 C2128 0.930 . S
H2151 C2129 0.930 . S
Tb2152 C2154 2.809 . S
Tb2152 O2172 2.484 . S
Tb2152 O2173 2.440 . S
Tb2152 O2174 2.658 . S
Tb2152 O2175 2.409 . S
Tb2152 O2176 2.378 . S
Tb2152 O2180 2.325 . S
Tb2152 O2183 2.341 . S
Tb2153 C2163 2.809 . S
Tb2153 O2174 2.325 . S
Tb2153 O2177 2.341 . S
Tb2153 O2178 2.484 . S
Tb2153 O2179 2.440 . S
Tb2153 O2180 2.658 . S
Tb2153 O2181 2.409 . S
Tb2153 O2182 2.378 . S
C2154 Tb2152 2.809 . S
C2154 C2155 1.514 . S
C2154 O2172 1.248 . S
C2154 O2173 1.266 . S
C2155 C2154 1.514 . S
C2155 C2156 1.359 . S
C2155 C2160 1.348 . S
C2156 C2155 1.359 . S
C2156 C2157 1.380 . S
C2156 H2184 0.929 . S
C2157 C2156 1.380 . S
C2157 C2158 1.347 . S
C2157 H2185 0.931 . S
C2158 C2157 1.347 . S
C2158 C2159 1.369 . S
C2159 C2158 1.369 . S
C2159 C2160 1.408 . S
C2159 H2186 0.930 . S
C2160 C2155 1.348 . S
C2160 C2159 1.408 . S
C2160 H2187 0.930 . S
C2161 O2174 1.281 . S
C2161 O2175 1.254 . S
C2162 O2176 1.236 . S
C2162 O2177 1.266 . S
C2163 Tb2153 2.809 . S
C2163 C2164 1.514 . S
C2163 O2178 1.248 . S
C2163 O2179 1.266 . S
C2164 C2163 1.514 . S
C2164 C2165 1.359 . S
C2164 C2169 1.348 . S
C2165 C2164 1.359 . S
C2165 C2166 1.380 . S
C2165 H2188 0.929 . S
C2166 C2165 1.380 . S
C2166 C2167 1.347 . S
C2166 H2189 0.931 . S
C2167 C2166 1.347 . S
C2167 C2168 1.369 . S
C2168 C2167 1.369 . S
C2168 C2169 1.408 . S
C2168 H2190 0.930 . S
C2169 C2164 1.348 . S
C2169 C2168 1.408 . S
C2169 H2191 0.930 . S
C2170 O2180 1.281 . S
C2170 O2181 1.254 . S
C2171 O2182 1.236 . S
C2171 O2183 1.266 . S
O2172 Tb2152 2.484 . S
O2172 C2154 1.248 . S
O2173 Tb2152 2.440 . S
O2173 C2154 1.266 . S
O2174 Tb2152 2.658 . S
O2174 Tb2153 2.325 . S
O2174 C2161 1.281 . S
O2175 Tb2152 2.409 . S
O2175 C2161 1.254 . S
O2176 Tb2152 2.378 . S
O2176 C2162 1.236 . S
O2177 Tb2153 2.341 . S
O2177 C2162 1.266 . S
O2178 Tb2153 2.484 . S
O2178 C2163 1.248 . S
O2179 Tb2153 2.440 . S
O2179 C2163 1.266 . S
O2180 Tb2152 2.325 . S
O2180 Tb2153 2.658 . S
O2180 C2170 1.281 . S
O2181 Tb2153 2.409 . S
O2181 C2170 1.254 . S
O2182 Tb2153 2.378 . S
O2182 C2171 1.236 . S
O2183 Tb2152 2.341 . S
O2183 C2171 1.266 . S
H2184 C2156 0.929 . S
H2185 C2157 0.931 . S
H2186 C2159 0.930 . S
H2187 C2160 0.930 . S
H2188 C2165 0.929 . S
H2189 C2166 0.931 . S
H2190 C2168 0.930 . S
H2191 C2169 0.930 . S
Tb2192 C2194 2.809 1_545 S
Tb2192 O2212 2.484 1_545 S
Tb2192 O2213 2.440 . S
Tb2192 O2214 2.658 . S
Tb2192 O2215 2.409 . S
Tb2192 O2216 2.378 1_545 S
Tb2192 O2220 2.325 . S
Tb2192 O2223 2.341 . S
Tb2193 C2203 2.809 . S
Tb2193 O2214 2.325 . S
Tb2193 O2217 2.341 1_545 S
Tb2193 O2218 2.484 . S
Tb2193 O2219 2.440 . S
Tb2193 O2220 2.658 . S
Tb2193 O2221 2.409 . S
Tb2193 O2222 2.378 . S
C2194 Tb2192 2.809 1_565 S
C2194 C2195 1.514 . S
C2194 O2212 1.248 . S
C2194 O2213 1.266 1_565 S
C2195 C2194 1.514 . S
C2195 C2196 1.359 . S
C2195 C2200 1.348 . S
C2196 C2195 1.359 . S
C2196 C2197 1.380 . S
C2196 H2224 0.929 . S
C2197 C2196 1.380 . S
C2197 C2198 1.347 . S
C2197 H2225 0.931 . S
C2198 C2197 1.347 . S
C2198 C2199 1.369 . S
C2199 C2198 1.369 . S
C2199 C2200 1.408 . S
C2199 H2226 0.930 . S
C2200 C2195 1.348 . S
C2200 C2199 1.408 . S
C2200 H2227 0.930 . S
C2201 O2214 1.281 . S
C2201 O2215 1.254 . S
C2202 O2216 1.236 . S
C2202 O2217 1.266 . S
C2203 Tb2193 2.809 . S
C2203 C2204 1.514 . S
C2203 O2218 1.248 . S
C2203 O2219 1.266 . S
C2204 C2203 1.514 . S
C2204 C2205 1.359 . S
C2204 C2209 1.348 . S
C2205 C2204 1.359 . S
C2205 C2206 1.380 . S
C2205 H2228 0.929 . S
C2206 C2205 1.380 . S
C2206 C2207 1.347 . S
C2206 H2229 0.931 . S
C2207 C2206 1.347 . S
C2207 C2208 1.369 . S
C2208 C2207 1.369 . S
C2208 C2209 1.408 . S
C2208 H2230 0.930 . S
C2209 C2204 1.348 . S
C2209 C2208 1.408 . S
C2209 H2231 0.930 . S
C2210 O2220 1.281 . S
C2210 O2221 1.254 . S
C2211 O2222 1.236 . S
C2211 O2223 1.266 . S
O2212 Tb2192 2.484 1_565 S
O2212 C2194 1.248 . S
O2213 Tb2192 2.440 . S
O2213 C2194 1.266 1_545 S
O2214 Tb2192 2.658 . S
O2214 Tb2193 2.325 . S
O2214 C2201 1.281 . S
O2215 Tb2192 2.409 . S
O2215 C2201 1.254 . S
O2216 Tb2192 2.378 1_565 S
O2216 C2202 1.236 . S
O2217 Tb2193 2.341 1_565 S
O2217 C2202 1.266 . S
O2218 Tb2193 2.484 . S
O2218 C2203 1.248 . S
O2219 Tb2193 2.440 . S
O2219 C2203 1.266 . S
O2220 Tb2192 2.325 . S
O2220 Tb2193 2.658 . S
O2220 C2210 1.281 . S
O2221 Tb2193 2.409 . S
O2221 C2210 1.254 . S
O2222 Tb2193 2.378 . S
O2222 C2211 1.236 . S
O2223 Tb2192 2.341 . S
O2223 C2211 1.266 . S
H2224 C2196 0.929 . S
H2225 C2197 0.931 . S
H2226 C2199 0.930 . S
H2227 C2200 0.930 . S
H2228 C2205 0.929 . S
H2229 C2206 0.931 . S
H2230 C2208 0.930 . S
H2231 C2209 0.930 . S
Tb2232 C2234 2.809 . S
Tb2232 O2252 2.484 . S
Tb2232 O2253 2.440 . S
Tb2232 O2254 2.658 . S
Tb2232 O2255 2.409 . S
Tb2232 O2256 2.378 . S
Tb2232 O2260 2.325 . S
Tb2232 O2263 2.341 . S
Tb2233 C2243 2.809 . S
Tb2233 O2254 2.325 . S
Tb2233 O2257 2.341 . S
Tb2233 O2258 2.484 . S
Tb2233 O2259 2.440 . S
Tb2233 O2260 2.658 . S
Tb2233 O2261 2.409 . S
Tb2233 O2262 2.378 . S
C2234 Tb2232 2.809 . S
C2234 C2235 1.514 . S
C2234 O2252 1.248 . S
C2234 O2253 1.266 . S
C2235 C2234 1.514 . S
C2235 C2236 1.359 . S
C2235 C2240 1.348 . S
C2236 C2235 1.359 . S
C2236 C2237 1.380 . S
C2236 H2264 0.929 . S
C2237 C2236 1.380 . S
C2237 C2238 1.347 . S
C2237 H2265 0.931 . S
C2238 C2237 1.347 . S
C2238 C2239 1.369 . S
C2239 C2238 1.369 . S
C2239 C2240 1.408 . S
C2239 H2266 0.930 . S
C2240 C2235 1.348 . S
C2240 C2239 1.408 . S
C2240 H2267 0.930 . S
C2241 O2254 1.281 . S
C2241 O2255 1.254 . S
C2242 O2256 1.236 . S
C2242 O2257 1.266 . S
C2243 Tb2233 2.809 . S
C2243 C2244 1.514 . S
C2243 O2258 1.248 . S
C2243 O2259 1.266 . S
C2244 C2243 1.514 . S
C2244 C2245 1.359 . S
C2244 C2249 1.348 . S
C2245 C2244 1.359 . S
C2245 C2246 1.380 . S
C2245 H2268 0.929 . S
C2246 C2245 1.380 . S
C2246 C2247 1.347 . S
C2246 H2269 0.931 . S
C2247 C2246 1.347 . S
C2247 C2248 1.369 . S
C2248 C2247 1.369 . S
C2248 C2249 1.408 . S
C2248 H2270 0.930 . S
C2249 C2244 1.348 . S
C2249 C2248 1.408 . S
C2249 H2271 0.930 . S
C2250 O2260 1.281 . S
C2250 O2261 1.254 . S
C2251 O2262 1.236 . S
C2251 O2263 1.266 . S
O2252 Tb2232 2.484 . S
O2252 C2234 1.248 . S
O2253 Tb2232 2.440 . S
O2253 C2234 1.266 . S
O2254 Tb2232 2.658 . S
O2254 Tb2233 2.325 . S
O2254 C2241 1.281 . S
O2255 Tb2232 2.409 . S
O2255 C2241 1.254 . S
O2256 Tb2232 2.378 . S
O2256 C2242 1.236 . S
O2257 Tb2233 2.341 . S
O2257 C2242 1.266 . S
O2258 Tb2233 2.484 . S
O2258 C2243 1.248 . S
O2259 Tb2233 2.440 . S
O2259 C2243 1.266 . S
O2260 Tb2232 2.325 . S
O2260 Tb2233 2.658 . S
O2260 C2250 1.281 . S
O2261 Tb2233 2.409 . S
O2261 C2250 1.254 . S
O2262 Tb2233 2.378 . S
O2262 C2251 1.236 . S
O2263 Tb2232 2.341 . S
O2263 C2251 1.266 . S
H2264 C2236 0.929 . S
H2265 C2237 0.931 . S
H2266 C2239 0.930 . S
H2267 C2240 0.930 . S
H2268 C2245 0.929 . S
H2269 C2246 0.931 . S
H2270 C2248 0.930 . S
H2271 C2249 0.930 . S
Tb2272 C2274 2.809 . S
Tb2272 O2292 2.484 . S
Tb2272 O2293 2.440 . S
Tb2272 O2294 2.658 . S
Tb2272 O2295 2.409 1_455 S
Tb2272 O2296 2.378 . S
Tb2272 O2300 2.325 . S
Tb2272 O2303 2.341 . S
Tb2273 C2283 2.809 . S
Tb2273 O2294 2.325 1_565 S
Tb2273 O2297 2.362 . S
Tb2273 O2298 2.484 . S
Tb2273 O2299 2.440 . S
Tb2273 O2300 2.658 1_565 S
Tb2273 O2301 2.409 1_565 S
Tb2273 O2302 2.378 1_565 S
C2274 Tb2272 2.809 . S
C2274 C2275 1.514 . S
C2274 O2292 1.248 . S
C2274 O2293 1.266 . S
C2275 C2274 1.514 . S
C2275 C2276 1.359 . S
C2275 C2280 1.348 1_455 S
C2276 C2275 1.359 . S
C2276 C2277 1.380 . S
C2276 H2304 0.929 . S
C2277 C2276 1.380 . S
C2277 C2278 1.347 . S
C2277 H2305 0.931 . S
C2278 C2277 1.347 . S
C2278 C2279 1.369 1_455 S
C2279 C2278 1.369 1_655 S
C2279 C2280 1.408 . S
C2279 H2306 0.930 . S
C2280 C2275 1.348 1_655 S
C2280 C2279 1.408 . S
C2280 H2307 0.930 . S
C2281 O2294 1.281 1_655 S
C2281 O2295 1.254 . S
C2282 O2296 1.236 . S
C2282 O2297 1.228 1_545 S
C2283 Tb2273 2.809 . S
C2283 C2284 1.514 . S
C2283 O2298 1.248 . S
C2283 O2299 1.266 . S
C2284 C2283 1.514 . S
C2284 C2285 1.359 . S
C2284 C2289 1.348 . S
C2285 C2284 1.359 . S
C2285 C2286 1.380 . S
C2285 H2308 0.929 . S
C2286 C2285 1.380 . S
C2286 C2287 1.347 . S
C2286 H2309 0.931 . S
C2287 C2286 1.347 . S
C2287 C2288 1.369 . S
C2288 C2287 1.369 . S
C2288 C2289 1.408 . S
C2288 H2310 0.930 . S
C2289 C2284 1.348 . S
C2289 C2288 1.408 . S
C2289 H2311 0.930 . S
C2290 O2300 1.281 . S
C2290 O2301 1.254 . S
C2291 O2302 1.236 . S
C2291 O2303 1.266 . S
O2292 Tb2272 2.484 . S
O2292 C2274 1.248 . S
O2293 Tb2272 2.440 . S
O2293 C2274 1.266 . S
O2294 Tb2272 2.658 . S
O2294 Tb2273 2.325 1_545 S
O2294 C2281 1.281 1_455 S
O2295 Tb2272 2.409 1_655 S
O2295 C2281 1.254 . S
O2296 Tb2272 2.378 . S
O2296 C2282 1.236 . S
O2297 Tb2273 2.362 . S
O2297 C2282 1.228 1_565 S
O2298 Tb2273 2.484 . S
O2298 C2283 1.248 . S
O2299 Tb2273 2.440 . S
O2299 C2283 1.266 . S
O2300 Tb2272 2.325 . S
O2300 Tb2273 2.658 1_545 S
O2300 C2290 1.281 . S
O2301 Tb2273 2.409 1_545 S
O2301 C2290 1.254 . S
O2302 Tb2273 2.378 1_545 S
O2302 C2291 1.236 . S
O2303 Tb2272 2.341 . S
O2303 C2291 1.266 . S
H2304 C2276 0.929 . S
H2305 C2277 0.931 . S
H2306 C2279 0.930 . S
H2307 C2280 0.930 . S
H2308 C2285 0.929 . S
H2309 C2286 0.931 . S
H2310 C2288 0.930 . S
H2311 C2289 0.930 . S
Tb2312 C2314 2.809 . S
Tb2312 O2332 2.484 . S
Tb2312 O2333 2.440 . S
Tb2312 O2334 2.658 . S
Tb2312 O2335 2.409 . S
Tb2312 O2336 2.378 . S
Tb2312 O2340 2.325 . S
Tb2312 O2343 2.341 . S
Tb2313 C2323 2.809 . S
Tb2313 O2334 2.325 . S
Tb2313 O2337 2.341 . S
Tb2313 O2338 2.484 . S
Tb2313 O2339 2.440 . S
Tb2313 O2340 2.658 . S
Tb2313 O2341 2.409 . S
Tb2313 O2342 2.378 . S
C2314 Tb2312 2.809 . S
C2314 C2315 1.514 . S
C2314 O2332 1.248 . S
C2314 O2333 1.266 . S
C2315 C2314 1.514 . S
C2315 C2316 1.359 . S
C2315 C2320 1.348 . S
C2316 C2315 1.359 . S
C2316 C2317 1.380 . S
C2316 H2344 0.929 . S
C2317 C2316 1.380 . S
C2317 C2318 1.347 . S
C2317 H2345 0.931 . S
C2318 C2317 1.347 . S
C2318 C2319 1.369 . S
C2319 C2318 1.369 . S
C2319 C2320 1.408 . S
C2319 H2346 0.930 . S
C2320 C2315 1.348 . S
C2320 C2319 1.408 . S
C2320 H2347 0.930 . S
C2321 O2334 1.281 . S
C2321 O2335 1.254 . S
C2322 O2336 1.236 . S
C2322 O2337 1.266 . S
C2323 Tb2313 2.809 . S
C2323 C2324 1.514 . S
C2323 O2338 1.248 . S
C2323 O2339 1.266 . S
C2324 C2323 1.514 . S
C2324 C2325 1.359 . S
C2324 C2329 1.348 . S
C2325 C2324 1.359 . S
C2325 C2326 1.380 . S
C2325 H2348 0.929 . S
C2326 C2325 1.380 . S
C2326 C2327 1.347 . S
C2326 H2349 0.931 . S
C2327 C2326 1.347 . S
C2327 C2328 1.369 . S
C2328 C2327 1.369 . S
C2328 C2329 1.408 . S
C2328 H2350 0.930 . S
C2329 C2324 1.348 . S
C2329 C2328 1.408 . S
C2329 H2351 0.930 . S
C2330 O2340 1.281 . S
C2330 O2341 1.254 . S
C2331 O2342 1.236 . S
C2331 O2343 1.266 . S
O2332 Tb2312 2.484 . S
O2332 C2314 1.248 . S
O2333 Tb2312 2.440 . S
O2333 C2314 1.266 . S
O2334 Tb2312 2.658 . S
O2334 Tb2313 2.325 . S
O2334 C2321 1.281 . S
O2335 Tb2312 2.409 . S
O2335 C2321 1.254 . S
O2336 Tb2312 2.378 . S
O2336 C2322 1.236 . S
O2337 Tb2313 2.341 . S
O2337 C2322 1.266 . S
O2338 Tb2313 2.484 . S
O2338 C2323 1.248 . S
O2339 Tb2313 2.440 . S
O2339 C2323 1.266 . S
O2340 Tb2312 2.325 . S
O2340 Tb2313 2.658 . S
O2340 C2330 1.281 . S
O2341 Tb2313 2.409 . S
O2341 C2330 1.254 . S
O2342 Tb2313 2.378 . S
O2342 C2331 1.236 . S
O2343 Tb2312 2.341 . S
O2343 C2331 1.266 . S
H2344 C2316 0.929 . S
H2345 C2317 0.931 . S
H2346 C2319 0.930 . S
H2347 C2320 0.930 . S
H2348 C2325 0.929 . S
H2349 C2326 0.931 . S
H2350 C2328 0.930 . S
H2351 C2329 0.930 . S
Tb2352 C2354 2.809 1_545 S
Tb2352 O2372 2.484 1_545 S
Tb2352 O2373 2.440 . S
Tb2352 O2374 2.658 . S
Tb2352 O2375 2.409 . S
Tb2352 O2376 2.378 . S
Tb2352 O2380 2.325 1_545 S
Tb2352 O2383 2.341 1_554 S
Tb2353 C2363 2.809 . S
Tb2353 O2374 2.325 . S
Tb2353 O2377 2.341 . S
Tb2353 O2378 2.484 . S
Tb2353 O2379 2.440 . S
Tb2353 O2380 2.658 1_545 S
Tb2353 O2381 2.409 1_545 S
Tb2353 O2382 2.378 . S
C2354 Tb2352 2.809 1_565 S
C2354 C2355 1.514 . S
C2354 O2372 1.248 . S
C2354 O2373 1.266 1_565 S
C2355 C2354 1.514 . S
C2355 C2356 1.359 . S
C2355 C2360 1.348 1_565 S
C2356 C2355 1.359 . S
C2356 C2357 1.380 . S
C2356 H2384 0.929 . S
C2357 C2356 1.380 . S
C2357 C2358 1.347 . S
C2357 H2385 0.931 . S
C2358 C2357 1.347 . S
C2358 C2359 1.369 . S
C2359 C2358 1.369 . S
C2359 C2360 1.408 1_565 S
C2359 H2386 0.930 1_565 S
C2360 C2355 1.348 1_545 S
C2360 C2359 1.408 1_545 S
C2360 H2387 0.930 . S
C2361 O2374 1.281 . S
C2361 O2375 1.254 . S
C2362 O2376 1.236 . S
C2362 O2377 1.266 . S
C2363 Tb2353 2.809 . S
C2363 C2364 1.514 . S
C2363 O2378 1.248 . S
C2363 O2379 1.266 . S
C2364 C2363 1.514 . S
C2364 C2365 1.359 . S
C2364 C2369 1.348 . S
C2365 C2364 1.359 . S
C2365 C2366 1.380 . S
C2365 H2388 0.929 . S
C2366 C2365 1.380 . S
C2366 C2367 1.347 . S
C2366 H2389 0.931 . S
C2367 C2366 1.347 . S
C2367 C2368 1.369 . S
C2368 C2367 1.369 . S
C2368 C2369 1.408 . S
C2368 H2390 0.930 . S
C2369 C2364 1.348 . S
C2369 C2368 1.408 . S
C2369 H2391 0.930 . S
C2370 O2380 1.281 . S
C2370 O2381 1.254 . S
C2371 O2382 1.236 1_556 S
C2371 O2383 1.266 . S
O2372 Tb2352 2.484 1_565 S
O2372 C2354 1.248 . S
O2373 Tb2352 2.440 . S
O2373 C2354 1.266 1_545 S
O2374 Tb2352 2.658 . S
O2374 Tb2353 2.325 . S
O2374 C2361 1.281 . S
O2375 Tb2352 2.409 . S
O2375 C2361 1.254 . S
O2376 Tb2352 2.378 . S
O2376 C2362 1.236 . S
O2377 Tb2353 2.341 . S
O2377 C2362 1.266 . S
O2378 Tb2353 2.484 . S
O2378 C2363 1.248 . S
O2379 Tb2353 2.440 . S
O2379 C2363 1.266 . S
O2380 Tb2352 2.325 1_565 S
O2380 Tb2353 2.658 1_565 S
O2380 C2370 1.281 . S
O2381 Tb2353 2.409 1_565 S
O2381 C2370 1.254 . S
O2382 Tb2353 2.378 . S
O2382 C2371 1.236 1_554 S
O2383 Tb2352 2.341 1_556 S
O2383 C2371 1.266 . S
H2384 C2356 0.929 . S
H2385 C2357 0.931 . S
H2386 C2359 0.930 1_545 S
H2387 C2360 0.930 . S
H2388 C2365 0.929 . S
H2389 C2366 0.931 . S
H2390 C2368 0.930 . S
H2391 C2369 0.930 . S
Tb2392 C2394 2.809 . S
Tb2392 O2412 2.484 . S
Tb2392 O2413 2.440 . S
Tb2392 O2414 2.658 . S
Tb2392 O2415 2.409 . S
Tb2392 O2416 2.378 . S
Tb2392 O2420 2.325 . S
Tb2392 O2423 2.341 . S
Tb2393 C2403 2.809 . S
Tb2393 O2414 2.325 . S
Tb2393 O2417 2.341 . S
Tb2393 O2418 2.484 . S
Tb2393 O2419 2.440 . S
Tb2393 O2420 2.658 . S
Tb2393 O2421 2.409 . S
Tb2393 O2422 2.378 . S
C2394 Tb2392 2.809 . S
C2394 C2395 1.514 . S
C2394 O2412 1.248 . S
C2394 O2413 1.266 . S
C2395 C2394 1.514 . S
C2395 C2396 1.359 . S
C2395 C2400 1.348 . S
C2396 C2395 1.359 . S
C2396 C2397 1.380 . S
C2396 H2424 0.929 . S
C2397 C2396 1.380 . S
C2397 C2398 1.347 . S
C2397 H2425 0.931 . S
C2398 C2397 1.347 . S
C2398 C2399 1.369 . S
C2399 C2398 1.369 . S
C2399 C2400 1.408 . S
C2399 H2426 0.930 . S
C2400 C2395 1.348 . S
C2400 C2399 1.408 . S
C2400 H2427 0.930 . S
C2401 O2414 1.281 . S
C2401 O2415 1.254 . S
C2402 O2416 1.236 . S
C2402 O2417 1.266 . S
C2403 Tb2393 2.809 . S
C2403 C2404 1.514 . S
C2403 O2418 1.248 . S
C2403 O2419 1.266 . S
C2404 C2403 1.514 . S
C2404 C2405 1.359 . S
C2404 C2409 1.348 . S
C2405 C2404 1.359 . S
C2405 C2406 1.380 . S
C2405 H2428 0.929 . S
C2406 C2405 1.380 . S
C2406 C2407 1.347 . S
C2406 H2429 0.931 . S
C2407 C2406 1.347 . S
C2407 C2408 1.369 . S
C2408 C2407 1.369 . S
C2408 C2409 1.408 . S
C2408 H2430 0.930 . S
C2409 C2404 1.348 . S
C2409 C2408 1.408 . S
C2409 H2431 0.930 . S
C2410 O2420 1.281 . S
C2410 O2421 1.254 . S
C2411 O2422 1.236 . S
C2411 O2423 1.266 . S
O2412 Tb2392 2.484 . S
O2412 C2394 1.248 . S
O2413 Tb2392 2.440 . S
O2413 C2394 1.266 . S
O2414 Tb2392 2.658 . S
O2414 Tb2393 2.325 . S
O2414 C2401 1.281 . S
O2415 Tb2392 2.409 . S
O2415 C2401 1.254 . S
O2416 Tb2392 2.378 . S
O2416 C2402 1.236 . S
O2417 Tb2393 2.341 . S
O2417 C2402 1.266 . S
O2418 Tb2393 2.484 . S
O2418 C2403 1.248 . S
O2419 Tb2393 2.440 . S
O2419 C2403 1.266 . S
O2420 Tb2392 2.325 . S
O2420 Tb2393 2.658 . S
O2420 C2410 1.281 . S
O2421 Tb2393 2.409 . S
O2421 C2410 1.254 . S
O2422 Tb2393 2.378 . S
O2422 C2411 1.236 . S
O2423 Tb2392 2.341 . S
O2423 C2411 1.266 . S
H2424 C2396 0.929 . S
H2425 C2397 0.931 . S
H2426 C2399 0.930 . S
H2427 C2400 0.930 . S
H2428 C2405 0.929 . S
H2429 C2406 0.931 . S
H2430 C2408 0.930 . S
H2431 C2409 0.930 . S
Tb2432 C2434 2.809 . S
Tb2432 O2452 2.484 . S
Tb2432 O2453 2.440 . S
Tb2432 O2454 2.658 . S
Tb2432 O2455 2.409 . S
Tb2432 O2456 2.378 1_554 S
Tb2432 O2460 2.325 . S
Tb2432 O2463 2.341 . S
Tb2433 C2443 2.809 . S
Tb2433 O2454 2.325 . S
Tb2433 O2457 2.341 1_554 S
Tb2433 O2458 2.484 . S
Tb2433 O2459 2.440 . S
Tb2433 O2460 2.658 . S
Tb2433 O2461 2.409 . S
Tb2433 O2462 2.378 . S
C2434 Tb2432 2.809 . S
C2434 C2435 1.514 1_554 S
C2434 O2452 1.248 . S
C2434 O2453 1.266 . S
C2435 C2434 1.514 1_556 S
C2435 C2436 1.359 . S
C2435 C2440 1.348 . S
C2436 C2435 1.359 . S
C2436 C2437 1.380 . S
C2436 H2464 0.929 . S
C2437 C2436 1.380 . S
C2437 C2438 1.347 . S
C2437 H2465 0.931 . S
C2438 C2437 1.347 . S
C2438 C2439 1.369 . S
C2439 C2438 1.369 . S
C2439 C2440 1.408 . S
C2439 H2466 0.930 . S
C2440 C2435 1.348 . S
C2440 C2439 1.408 . S
C2440 H2467 0.939 . S
C2441 O2454 1.281 . S
C2441 O2455 1.254 . S
C2442 O2456 1.236 . S
C2442 O2457 1.266 . S
C2443 Tb2433 2.809 . S
C2443 C2444 1.514 . S
C2443 O2458 1.248 . S
C2443 O2459 1.266 . S
C2444 C2443 1.514 . S
C2444 C2445 1.359 . S
C2444 C2449 1.348 . S
C2445 C2444 1.359 . S
C2445 C2446 1.380 . S
C2445 H2468 0.929 . S
C2446 C2445 1.380 . S
C2446 C2447 1.347 . S
C2446 H2469 0.931 . S
C2447 C2446 1.347 . S
C2447 C2448 1.369 . S
C2448 C2447 1.369 . S
C2448 C2449 1.408 . S
C2448 H2470 0.930 . S
C2449 C2444 1.348 . S
C2449 C2448 1.408 . S
C2449 H2471 0.930 . S
C2450 O2460 1.281 . S
C2450 O2461 1.254 . S
C2451 O2462 1.236 . S
C2451 O2463 1.266 . S
O2452 Tb2432 2.484 . S
O2452 C2434 1.248 . S
O2453 Tb2432 2.440 . S
O2453 C2434 1.266 . S
O2454 Tb2432 2.658 . S
O2454 Tb2433 2.325 . S
O2454 C2441 1.281 . S
O2455 Tb2432 2.409 . S
O2455 C2441 1.254 . S
O2456 Tb2432 2.378 1_556 S
O2456 C2442 1.236 . S
O2457 Tb2433 2.341 1_556 S
O2457 C2442 1.266 . S
O2458 Tb2433 2.484 . S
O2458 C2443 1.248 . S
O2459 Tb2433 2.440 . S
O2459 C2443 1.266 . S
O2460 Tb2432 2.325 . S
O2460 Tb2433 2.658 . S
O2460 C2450 1.281 . S
O2461 Tb2433 2.409 . S
O2461 C2450 1.254 . S
O2462 Tb2433 2.378 . S
O2462 C2451 1.236 . S
O2463 Tb2432 2.341 . S
O2463 C2451 1.266 . S
H2464 C2436 0.929 . S
H2465 C2437 0.931 . S
H2466 C2439 0.930 . S
H2467 C2440 0.939 . S
H2468 C2445 0.929 . S
H2469 C2446 0.931 . S
H2470 C2448 0.930 . S
H2471 C2449 0.930 . S
Tb2472 C2474 2.809 . S
Tb2472 O2492 2.484 . S
Tb2472 O2493 2.440 . S
Tb2472 O2494 2.658 . S
Tb2472 O2495 2.409 . S
Tb2472 O2496 2.378 . S
Tb2472 O2500 2.325 . S
Tb2472 O2503 2.341 . S
Tb2473 C2483 2.809 . S
Tb2473 O2494 2.325 . S
Tb2473 O2497 2.341 . S
Tb2473 O2498 2.484 . S
Tb2473 O2499 2.440 . S
Tb2473 O2500 2.658 . S
Tb2473 O2501 2.409 . S
Tb2473 O2502 2.378 . S
C2474 Tb2472 2.809 . S
C2474 C2475 1.514 . S
C2474 O2492 1.248 . S
C2474 O2493 1.266 . S
C2475 C2474 1.514 . S
C2475 C2476 1.359 . S
C2475 C2480 1.348 . S
C2476 C2475 1.359 . S
C2476 C2477 1.380 . S
C2476 H2504 0.929 . S
C2477 C2476 1.380 . S
C2477 C2478 1.347 . S
C2477 H2505 0.931 . S
C2478 C2477 1.347 . S
C2478 C2479 1.369 . S
C2479 C2478 1.369 . S
C2479 C2480 1.408 . S
C2479 H2506 0.930 . S
C2480 C2475 1.348 . S
C2480 C2479 1.408 . S
C2480 H2507 0.930 . S
C2481 O2494 1.281 . S
C2481 O2495 1.254 . S
C2482 O2496 1.236 . S
C2482 O2497 1.266 . S
C2483 Tb2473 2.809 . S
C2483 C2484 1.514 . S
C2483 O2498 1.248 . S
C2483 O2499 1.266 . S
C2484 C2483 1.514 . S
C2484 C2485 1.359 . S
C2484 C2489 1.348 . S
C2485 C2484 1.359 . S
C2485 C2486 1.380 . S
C2485 H2508 0.929 . S
C2486 C2485 1.380 . S
C2486 C2487 1.347 . S
C2486 H2509 0.931 . S
C2487 C2486 1.347 . S
C2487 C2488 1.369 . S
C2488 C2487 1.369 . S
C2488 C2489 1.408 . S
C2488 H2510 0.930 . S
C2489 C2484 1.348 . S
C2489 C2488 1.408 . S
C2489 H2511 0.930 . S
C2490 O2500 1.281 . S
C2490 O2501 1.254 . S
C2491 O2502 1.236 . S
C2491 O2503 1.266 . S
O2492 Tb2472 2.484 . S
O2492 C2474 1.248 . S
O2493 Tb2472 2.440 . S
O2493 C2474 1.266 . S
O2494 Tb2472 2.658 . S
O2494 Tb2473 2.325 . S
O2494 C2481 1.281 . S
O2495 Tb2472 2.409 . S
O2495 C2481 1.254 . S
O2496 Tb2472 2.378 . S
O2496 C2482 1.236 . S
O2497 Tb2473 2.341 . S
O2497 C2482 1.266 . S
O2498 Tb2473 2.484 . S
O2498 C2483 1.248 . S
O2499 Tb2473 2.440 . S
O2499 C2483 1.266 . S
O2500 Tb2472 2.325 . S
O2500 Tb2473 2.658 . S
O2500 C2490 1.281 . S
O2501 Tb2473 2.409 . S
O2501 C2490 1.254 . S
O2502 Tb2473 2.378 . S
O2502 C2491 1.236 . S
O2503 Tb2472 2.341 . S
O2503 C2491 1.266 . S
H2504 C2476 0.929 . S
H2505 C2477 0.931 . S
H2506 C2479 0.930 . S
H2507 C2480 0.930 . S
H2508 C2485 0.929 . S
H2509 C2486 0.931 . S
H2510 C2488 0.930 . S
H2511 C2489 0.930 . S
Tb2512 C2514 2.809 1_455 S
Tb2512 O2532 2.484 1_455 S
Tb2512 O2533 2.440 1_455 S
Tb2512 O2534 2.658 . S
Tb2512 O2535 2.409 . S
Tb2512 O2536 2.378 . S
Tb2512 O2540 2.325 . S
Tb2512 O2543 2.341 . S
Tb2513 C2523 2.809 . S
Tb2513 O2534 2.325 . S
Tb2513 O2537 2.341 . S
Tb2513 O2538 2.484 . S
Tb2513 O2539 2.440 . S
Tb2513 O2540 2.658 . S
Tb2513 O2541 2.409 . S
Tb2513 O2542 2.378 . S
C2514 Tb2512 2.809 1_655 S
C2514 C2515 1.514 . S
C2514 O2532 1.248 . S
C2514 O2533 1.266 . S
C2515 C2514 1.514 . S
C2515 C2516 1.359 . S
C2515 C2520 1.348 . S
C2516 C2515 1.359 . S
C2516 C2517 1.380 . S
C2516 H2544 0.929 . S
C2517 C2516 1.380 . S
C2517 C2518 1.347 . S
C2517 H2545 0.931 . S
C2518 C2517 1.347 . S
C2518 C2519 1.369 . S
C2519 C2518 1.369 . S
C2519 C2520 1.408 . S
C2519 H2546 0.930 . S
C2520 C2515 1.348 . S
C2520 C2519 1.408 . S
C2520 H2547 0.930 . S
C2521 O2534 1.281 . S
C2521 O2535 1.254 . S
C2522 O2536 1.236 . S
C2522 O2537 1.266 . S
C2523 Tb2513 2.809 . S
C2523 C2524 1.514 . S
C2523 O2538 1.248 . S
C2523 O2539 1.266 . S
C2524 C2523 1.514 . S
C2524 C2525 1.359 . S
C2524 C2529 1.348 . S
C2525 C2524 1.359 . S
C2525 C2526 1.380 . S
C2525 H2548 0.929 . S
C2526 C2525 1.380 . S
C2526 C2527 1.347 . S
C2526 H2549 0.931 . S
C2527 C2526 1.347 . S
C2527 C2528 1.369 . S
C2528 C2527 1.369 . S
C2528 C2529 1.408 . S
C2528 H2550 0.930 . S
C2529 C2524 1.348 . S
C2529 C2528 1.408 . S
C2529 H2551 0.930 . S
C2530 O2540 1.281 . S
C2530 O2541 1.254 . S
C2531 O2542 1.236 . S
C2531 O2543 1.266 . S
O2532 Tb2512 2.484 1_655 S
O2532 C2514 1.248 . S
O2533 Tb2512 2.440 1_655 S
O2533 C2514 1.266 . S
O2534 Tb2512 2.658 . S
O2534 Tb2513 2.325 . S
O2534 C2521 1.281 . S
O2535 Tb2512 2.409 . S
O2535 C2521 1.254 . S
O2536 Tb2512 2.378 . S
O2536 C2522 1.236 . S
O2537 Tb2513 2.341 . S
O2537 C2522 1.266 . S
O2538 Tb2513 2.484 . S
O2538 C2523 1.248 . S
O2539 Tb2513 2.440 . S
O2539 C2523 1.266 . S
O2540 Tb2512 2.325 . S
O2540 Tb2513 2.658 . S
O2540 C2530 1.281 . S
O2541 Tb2513 2.409 . S
O2541 C2530 1.254 . S
O2542 Tb2513 2.378 . S
O2542 C2531 1.236 . S
O2543 Tb2512 2.341 . S
O2543 C2531 1.266 . S
H2544 C2516 0.929 . S
H2545 C2517 0.931 . S
H2546 C2519 0.930 . S
H2547 C2520 0.930 . S
H2548 C2525 0.929 . S
H2549 C2526 0.931 . S
H2550 C2528 0.930 . S
H2551 C2529 0.930 . S
Tb2552 C2554 2.809 . S
Tb2552 O2572 2.484 . S
Tb2552 O2573 2.440 . S
Tb2552 O2574 2.658 . S
Tb2552 O2575 2.409 . S
Tb2552 O2576 2.378 . S
Tb2552 O2580 2.325 . S
Tb2552 O2583 2.341 . S
Tb2553 C2563 2.809 . S
Tb2553 O2574 2.325 . S
Tb2553 O2577 2.341 . S
Tb2553 O2578 2.484 . S
Tb2553 O2579 2.440 . S
Tb2553 O2580 2.658 . S
Tb2553 O2581 2.409 . S
Tb2553 O2582 2.378 . S
C2554 Tb2552 2.809 . S
C2554 C2555 1.514 . S
C2554 O2572 1.248 . S
C2554 O2573 1.266 . S
C2555 C2554 1.514 . S
C2555 C2556 1.359 . S
C2555 C2560 1.348 . S
C2556 C2555 1.359 . S
C2556 C2557 1.380 . S
C2556 H2584 0.929 . S
C2557 C2556 1.380 . S
C2557 C2558 1.347 . S
C2557 H2585 0.931 . S
C2558 C2557 1.347 . S
C2558 C2559 1.369 . S
C2559 C2558 1.369 . S
C2559 C2560 1.408 . S
C2559 H2586 0.930 . S
C2560 C2555 1.348 . S
C2560 C2559 1.408 . S
C2560 H2587 0.930 . S
C2561 O2574 1.281 . S
C2561 O2575 1.254 . S
C2562 O2576 1.236 . S
C2562 O2577 1.266 . S
C2563 Tb2553 2.809 . S
C2563 C2564 1.514 . S
C2563 O2578 1.248 . S
C2563 O2579 1.266 . S
C2564 C2563 1.514 . S
C2564 C2565 1.359 . S
C2564 C2569 1.348 . S
C2565 C2564 1.359 . S
C2565 C2566 1.380 . S
C2565 H2588 0.929 . S
C2566 C2565 1.380 . S
C2566 C2567 1.347 . S
C2566 H2589 0.931 . S
C2567 C2566 1.347 . S
C2567 C2568 1.369 . S
C2568 C2567 1.369 . S
C2568 C2569 1.408 . S
C2568 H2590 0.930 . S
C2569 C2564 1.348 . S
C2569 C2568 1.408 . S
C2569 H2591 0.930 . S
C2570 O2580 1.281 . S
C2570 O2581 1.254 . S
C2571 O2582 1.236 . S
C2571 O2583 1.266 . S
O2572 Tb2552 2.484 . S
O2572 C2554 1.248 . S
O2573 Tb2552 2.440 . S
O2573 C2554 1.266 . S
O2574 Tb2552 2.658 . S
O2574 Tb2553 2.325 . S
O2574 C2561 1.281 . S
O2575 Tb2552 2.409 . S
O2575 C2561 1.254 . S
O2576 Tb2552 2.378 . S
O2576 C2562 1.236 . S
O2577 Tb2553 2.341 . S
O2577 C2562 1.266 . S
O2578 Tb2553 2.484 . S
O2578 C2563 1.248 . S
O2579 Tb2553 2.440 . S
O2579 C2563 1.266 . S
O2580 Tb2552 2.325 . S
O2580 Tb2553 2.658 . S
O2580 C2570 1.281 . S
O2581 Tb2553 2.409 . S
O2581 C2570 1.254 . S
O2582 Tb2553 2.378 . S
O2582 C2571 1.236 . S
O2583 Tb2552 2.341 . S
O2583 C2571 1.266 . S
H2584 C2556 0.929 . S
H2585 C2557 0.931 . S
H2586 C2559 0.930 . S
H2587 C2560 0.930 . S
H2588 C2565 0.929 . S
H2589 C2566 0.931 . S
H2590 C2568 0.930 . S
H2591 C2569 0.930 . S
Tb2592 C2594 2.809 . S
Tb2592 O2612 2.484 . S
Tb2592 O2613 2.440 . S
Tb2592 O2614 2.658 . S
Tb2592 O2615 2.409 . S
Tb2592 O2616 2.378 . S
Tb2592 O2620 2.325 . S
Tb2592 O2623 2.341 . S
Tb2593 C2603 2.809 . S
Tb2593 O2614 2.325 . S
Tb2593 O2617 2.341 . S
Tb2593 O2618 2.484 . S
Tb2593 O2619 2.440 . S
Tb2593 O2620 2.658 . S
Tb2593 O2621 2.409 . S
Tb2593 O2622 2.378 . S
C2594 Tb2592 2.809 . S
C2594 C2595 1.514 . S
C2594 O2612 1.248 . S
C2594 O2613 1.266 . S
C2595 C2594 1.514 . S
C2595 C2596 1.359 . S
C2595 C2600 1.348 . S
C2596 C2595 1.359 . S
C2596 C2597 1.380 . S
C2596 H2624 0.929 . S
C2597 C2596 1.380 . S
C2597 C2598 1.347 . S
C2597 H2625 0.931 . S
C2598 C2597 1.347 . S
C2598 C2599 1.369 . S
C2599 C2598 1.369 . S
C2599 C2600 1.408 . S
C2599 H2626 0.930 . S
C2600 C2595 1.348 . S
C2600 C2599 1.408 . S
C2600 H2627 0.930 . S
C2601 O2614 1.281 . S
C2601 O2615 1.254 . S
C2602 O2616 1.236 . S
C2602 O2617 1.266 . S
C2603 Tb2593 2.809 . S
C2603 C2604 1.514 . S
C2603 O2618 1.248 . S
C2603 O2619 1.266 . S
C2604 C2603 1.514 . S
C2604 C2605 1.359 . S
C2604 C2609 1.348 . S
C2605 C2604 1.359 . S
C2605 C2606 1.380 . S
C2605 H2628 0.929 . S
C2606 C2605 1.380 . S
C2606 C2607 1.347 . S
C2606 H2629 0.931 . S
C2607 C2606 1.347 . S
C2607 C2608 1.369 . S
C2608 C2607 1.369 . S
C2608 C2609 1.408 . S
C2608 H2630 0.930 . S
C2609 C2604 1.348 . S
C2609 C2608 1.408 . S
C2609 H2631 0.930 . S
C2610 O2620 1.281 . S
C2610 O2621 1.254 . S
C2611 O2622 1.236 . S
C2611 O2623 1.266 . S
O2612 Tb2592 2.484 . S
O2612 C2594 1.248 . S
O2613 Tb2592 2.440 . S
O2613 C2594 1.266 . S
O2614 Tb2592 2.658 . S
O2614 Tb2593 2.325 . S
O2614 C2601 1.281 . S
O2615 Tb2592 2.409 . S
O2615 C2601 1.254 . S
O2616 Tb2592 2.378 . S
O2616 C2602 1.236 . S
O2617 Tb2593 2.341 . S
O2617 C2602 1.266 . S
O2618 Tb2593 2.484 . S
O2618 C2603 1.248 . S
O2619 Tb2593 2.440 . S
O2619 C2603 1.266 . S
O2620 Tb2592 2.325 . S
O2620 Tb2593 2.658 . S
O2620 C2610 1.281 . S
O2621 Tb2593 2.409 . S
O2621 C2610 1.254 . S
O2622 Tb2593 2.378 . S
O2622 C2611 1.236 . S
O2623 Tb2592 2.341 . S
O2623 C2611 1.266 . S
H2624 C2596 0.929 . S
H2625 C2597 0.931 . S
H2626 C2599 0.930 . S
H2627 C2600 0.930 . S
H2628 C2605 0.929 . S
H2629 C2606 0.931 . S
H2630 C2608 0.930 . S
H2631 C2609 0.930 . S
Tb2632 C2634 2.809 . S
Tb2632 O2652 2.484 . S
Tb2632 O2653 2.440 . S
Tb2632 O2654 2.658 . S
Tb2632 O2655 2.409 . S
Tb2632 O2656 2.378 . S
Tb2632 O2660 2.325 . S
Tb2632 O2663 2.341 . S
Tb2633 C2643 2.809 . S
Tb2633 O2654 2.325 . S
Tb2633 O2657 2.341 . S
Tb2633 O2658 2.484 . S
Tb2633 O2659 2.440 . S
Tb2633 O2660 2.658 . S
Tb2633 O2661 2.409 . S
Tb2633 O2662 2.378 . S
C2634 Tb2632 2.809 . S
C2634 C2635 1.514 . S
C2634 O2652 1.248 . S
C2634 O2653 1.266 . S
C2635 C2634 1.514 . S
C2635 C2636 1.359 . S
C2635 C2640 1.348 . S
C2636 C2635 1.359 . S
C2636 C2637 1.380 . S
C2636 H2664 0.929 . S
C2637 C2636 1.380 . S
C2637 C2638 1.347 . S
C2637 H2665 0.931 . S
C2638 C2637 1.347 . S
C2638 C2639 1.369 . S
C2639 C2638 1.369 . S
C2639 C2640 1.408 . S
C2639 H2666 0.930 . S
C2640 C2635 1.348 . S
C2640 C2639 1.408 . S
C2640 H2667 0.930 . S
C2641 O2654 1.281 . S
C2641 O2655 1.254 . S
C2642 O2656 1.236 . S
C2642 O2657 1.266 . S
C2643 Tb2633 2.809 . S
C2643 C2644 1.514 . S
C2643 O2658 1.248 . S
C2643 O2659 1.266 . S
C2644 C2643 1.514 . S
C2644 C2645 1.359 . S
C2644 C2649 1.348 . S
C2645 C2644 1.359 . S
C2645 C2646 1.380 . S
C2645 H2668 0.929 . S
C2646 C2645 1.380 . S
C2646 C2647 1.347 . S
C2646 H2669 0.931 . S
C2647 C2646 1.347 . S
C2647 C2648 1.369 . S
C2648 C2647 1.369 . S
C2648 C2649 1.408 . S
C2648 H2670 0.930 . S
C2649 C2644 1.348 . S
C2649 C2648 1.408 . S
C2649 H2671 0.930 . S
C2650 O2660 1.281 . S
C2650 O2661 1.254 . S
C2651 O2662 1.236 . S
C2651 O2663 1.266 . S
O2652 Tb2632 2.484 . S
O2652 C2634 1.248 . S
O2653 Tb2632 2.440 . S
O2653 C2634 1.266 . S
O2654 Tb2632 2.658 . S
O2654 Tb2633 2.325 . S
O2654 C2641 1.281 . S
O2655 Tb2632 2.409 . S
O2655 C2641 1.254 . S
O2656 Tb2632 2.378 . S
O2656 C2642 1.236 . S
O2657 Tb2633 2.341 . S
O2657 C2642 1.266 . S
O2658 Tb2633 2.484 . S
O2658 C2643 1.248 . S
O2659 Tb2633 2.440 . S
O2659 C2643 1.266 . S
O2660 Tb2632 2.325 . S
O2660 Tb2633 2.658 . S
O2660 C2650 1.281 . S
O2661 Tb2633 2.409 . S
O2661 C2650 1.254 . S
O2662 Tb2633 2.378 . S
O2662 C2651 1.236 . S
O2663 Tb2632 2.341 . S
O2663 C2651 1.266 . S
H2664 C2636 0.929 . S
H2665 C2637 0.931 . S
H2666 C2639 0.930 . S
H2667 C2640 0.930 . S
H2668 C2645 0.929 . S
H2669 C2646 0.931 . S
H2670 C2648 0.930 . S
H2671 C2649 0.930 . S
Tb2672 C2674 2.809 . S
Tb2672 O2692 2.484 . S
Tb2672 O2693 2.440 . S
Tb2672 O2694 2.658 . S
Tb2672 O2695 2.409 . S
Tb2672 O2696 2.378 . S
Tb2672 O2700 2.325 . S
Tb2672 O2703 2.341 . S
Tb2673 C2683 2.809 . S
Tb2673 O2694 2.325 . S
Tb2673 O2697 2.341 . S
Tb2673 O2698 2.484 . S
Tb2673 O2699 2.440 . S
Tb2673 O2700 2.658 . S
Tb2673 O2701 2.409 . S
Tb2673 O2702 2.378 . S
C2674 Tb2672 2.809 . S
C2674 C2675 1.514 . S
C2674 O2692 1.248 . S
C2674 O2693 1.266 . S
C2675 C2674 1.514 . S
C2675 C2676 1.359 . S
C2675 C2680 1.348 . S
C2676 C2675 1.359 . S
C2676 C2677 1.380 . S
C2676 H2704 0.929 . S
C2677 C2676 1.380 . S
C2677 C2678 1.347 . S
C2677 H2705 0.931 . S
C2678 C2677 1.347 . S
C2678 C2679 1.369 . S
C2679 C2678 1.369 . S
C2679 C2680 1.408 . S
C2679 H2706 0.930 . S
C2680 C2675 1.348 . S
C2680 C2679 1.408 . S
C2680 H2707 0.930 . S
C2681 O2694 1.281 . S
C2681 O2695 1.254 . S
C2682 O2696 1.236 . S
C2682 O2697 1.266 . S
C2683 Tb2673 2.809 . S
C2683 C2684 1.514 . S
C2683 O2698 1.248 . S
C2683 O2699 1.266 . S
C2684 C2683 1.514 . S
C2684 C2685 1.359 . S
C2684 C2689 1.348 . S
C2685 C2684 1.359 . S
C2685 C2686 1.380 . S
C2685 H2708 0.929 . S
C2686 C2685 1.380 . S
C2686 C2687 1.347 . S
C2686 H2709 0.931 . S
C2687 C2686 1.347 . S
C2687 C2688 1.369 . S
C2688 C2687 1.369 . S
C2688 C2689 1.408 . S
C2688 H2710 0.930 . S
C2689 C2684 1.348 . S
C2689 C2688 1.408 . S
C2689 H2711 0.930 . S
C2690 O2700 1.281 . S
C2690 O2701 1.254 . S
C2691 O2702 1.236 . S
C2691 O2703 1.266 . S
O2692 Tb2672 2.484 . S
O2692 C2674 1.248 . S
O2693 Tb2672 2.440 . S
O2693 C2674 1.266 . S
O2694 Tb2672 2.658 . S
O2694 Tb2673 2.325 . S
O2694 C2681 1.281 . S
O2695 Tb2672 2.409 . S
O2695 C2681 1.254 . S
O2696 Tb2672 2.378 . S
O2696 C2682 1.236 . S
O2697 Tb2673 2.341 . S
O2697 C2682 1.266 . S
O2698 Tb2673 2.484 . S
O2698 C2683 1.248 . S
O2699 Tb2673 2.440 . S
O2699 C2683 1.266 . S
O2700 Tb2672 2.325 . S
O2700 Tb2673 2.658 . S
O2700 C2690 1.281 . S
O2701 Tb2673 2.409 . S
O2701 C2690 1.254 . S
O2702 Tb2673 2.378 . S
O2702 C2691 1.236 . S
O2703 Tb2672 2.341 . S
O2703 C2691 1.266 . S
H2704 C2676 0.929 . S
H2705 C2677 0.931 . S
H2706 C2679 0.930 . S
H2707 C2680 0.930 . S
H2708 C2685 0.929 . S
H2709 C2686 0.931 . S
H2710 C2688 0.930 . S
H2711 C2689 0.930 . S
Tb2712 C2714 2.809 . S
Tb2712 O2732 2.484 . S
Tb2712 O2733 2.444 1_554 S
Tb2712 O2734 2.658 . S
Tb2712 O2735 2.409 1_554 S
Tb2712 O2736 2.378 . S
Tb2712 O2740 2.325 . S
Tb2712 O2743 2.341 . S
Tb2713 C2723 2.809 1_455 S
Tb2713 O2734 2.325 . S
Tb2713 O2737 2.341 . S
Tb2713 O2738 2.484 1_455 S
Tb2713 O2739 2.440 1_455 S
Tb2713 O2740 2.658 . S
Tb2713 O2741 2.409 . S
Tb2713 O2742 2.378 . S
C2714 Tb2712 2.809 . S
C2714 C2715 1.514 . S
C2714 O2732 1.248 . S
C2714 O2733 1.271 1_554 S
C2715 C2714 1.514 . S
C2715 C2716 1.359 . S
C2715 C2720 1.348 1_554 S
C2716 C2715 1.359 . S
C2716 C2717 1.380 . S
C2716 H2744 0.929 . S
C2717 C2716 1.380 . S
C2717 C2718 1.347 . S
C2717 H2745 0.931 . S
C2718 C2717 1.347 . S
C2718 C2719 1.369 1_554 S
C2719 C2718 1.369 1_556 S
C2719 C2720 1.408 . S
C2719 H2746 0.930 . S
C2720 C2715 1.348 1_556 S
C2720 C2719 1.408 . S
C2720 H2747 0.930 . S
C2721 O2734 1.281 1_556 S
C2721 O2735 1.254 . S
C2722 O2736 1.236 . S
C2722 O2737 1.266 . S
C2723 Tb2713 2.809 1_655 S
C2723 C2724 1.514 . S
C2723 O2738 1.248 . S
C2723 O2739 1.266 . S
C2724 C2723 1.514 . S
C2724 C2725 1.359 . S
C2724 C2729 1.348 . S
C2725 C2724 1.359 . S
C2725 C2726 1.380 . S
C2725 H2748 0.929 . S
C2726 C2725 1.380 . S
C2726 C2727 1.347 . S
C2726 H2749 0.931 . S
C2727 C2726 1.347 . S
C2727 C2728 1.369 . S
C2728 C2727 1.369 . S
C2728 C2729 1.408 . S
C2728 H2750 0.930 . S
C2729 C2724 1.348 . S
C2729 C2728 1.408 . S
C2729 H2751 0.930 . S
C2730 O2740 1.281 . S
C2730 O2741 1.254 . S
C2731 O2742 1.236 . S
C2731 O2743 1.266 . S
O2732 Tb2712 2.484 . S
O2732 C2714 1.248 . S
O2733 Tb2712 2.444 1_556 S
O2733 C2714 1.271 1_556 S
O2734 Tb2712 2.658 . S
O2734 Tb2713 2.325 . S
O2734 C2721 1.281 1_554 S
O2735 Tb2712 2.409 1_556 S
O2735 C2721 1.254 . S
O2736 Tb2712 2.378 . S
O2736 C2722 1.236 . S
O2737 Tb2713 2.341 . S
O2737 C2722 1.266 . S
O2738 Tb2713 2.484 1_655 S
O2738 C2723 1.248 . S
O2739 Tb2713 2.440 1_655 S
O2739 C2723 1.266 . S
O2740 Tb2712 2.325 . S
O2740 Tb2713 2.658 . S
O2740 C2730 1.281 . S
O2741 Tb2713 2.409 . S
O2741 C2730 1.254 . S
O2742 Tb2713 2.378 . S
O2742 C2731 1.236 . S
O2743 Tb2712 2.341 . S
O2743 C2731 1.266 . S
H2744 C2716 0.929 . S
H2745 C2717 0.931 . S
H2746 C2719 0.930 . S
H2747 C2720 0.930 . S
H2748 C2725 0.929 . S
H2749 C2726 0.931 . S
H2750 C2728 0.930 . S
H2751 C2729 0.930 . S
H2752 C2760 0.892 1_654 S
H2753 C2765 0.950 . S
H2754 C2762 0.950 1_655 S
H2755 C2764 0.950 . S
H2756 C2766 0.950 . S
H2757 C2768 0.950 1_556 S
H2758 C2770 0.950 1_655 S
H2759 C2771 0.950 . S
C2760 H2752 0.892 1_456 S
C2760 C2761 1.421 . S
C2760 C2762 1.406 1_556 S
C2761 C2760 1.421 . S
C2761 C2765 1.393 . S
C2762 H2754 0.950 1_455 S
C2762 C2760 1.406 1_554 S
C2762 C2763 1.400 . S
C2763 C2762 1.400 . S
C2763 C2764 1.398 1_554 S
C2763 C2769 1.491 . S
C2764 H2755 0.950 . S
C2764 C2763 1.398 1_556 S
C2764 C2765 1.391 . S
C2765 H2753 0.950 . S
C2765 C2761 1.393 . S
C2765 C2764 1.391 . S
C2766 H2756 0.950 . S
C2766 C2767 1.386 . S
C2766 C2768 1.391 . S
C2767 C2766 1.386 . S
C2767 C2771 1.393 . S
C2768 H2757 0.950 1_554 S
C2768 C2766 1.391 . S
C2768 C2769 1.400 . S
C2769 C2763 1.491 . S
C2769 C2768 1.400 . S
C2769 C2770 1.398 . S
C2770 H2758 0.950 1_455 S
C2770 C2769 1.398 . S
C2770 C2771 1.391 . S
C2771 H2759 0.950 . S
C2771 C2767 1.393 . S
C2771 C2770 1.391 . S
H2772 C2780 0.950 . S
H2773 C2785 0.950 . S
H2774 C2782 0.950 . S
H2775 C2784 0.950 . S
H2776 C2786 0.950 . S
H2777 C2788 0.950 . S
H2778 C2790 0.950 . S
H2779 C2791 0.950 . S
C2780 H2772 0.950 . S
C2780 C2781 1.386 . S
C2780 C2782 1.391 . S
C2781 C2780 1.386 . S
C2781 C2785 1.393 . S
C2782 H2774 0.950 . S
C2782 C2780 1.391 . S
C2782 C2783 1.400 . S
C2783 C2782 1.400 . S
C2783 C2784 1.398 . S
C2783 C2789 1.491 . S
C2784 H2775 0.950 . S
C2784 C2783 1.398 . S
C2784 C2785 1.391 . S
C2785 H2773 0.950 . S
C2785 C2781 1.393 . S
C2785 C2784 1.391 . S
C2786 H2776 0.950 . S
C2786 C2787 1.386 . S
C2786 C2788 1.391 . S
C2787 C2786 1.386 . S
C2787 C2791 1.393 . S
C2788 H2777 0.950 . S
C2788 C2786 1.391 . S
C2788 C2789 1.400 . S
C2789 C2783 1.491 . S
C2789 C2788 1.400 . S
C2789 C2790 1.398 . S
C2790 H2778 0.950 . S
C2790 C2789 1.398 . S
C2790 C2791 1.391 . S
C2791 H2779 0.950 . S
C2791 C2787 1.393 . S
C2791 C2790 1.391 . S
H2792 C2800 0.950 . S
H2793 C2805 0.950 . S
H2794 C2802 0.950 . S
H2795 C2804 0.950 . S
H2796 C2806 0.950 . S
H2797 C2808 0.950 . S
H2798 C2810 0.950 . S
H2799 C2811 0.950 . S
C2800 H2792 0.950 . S
C2800 C2801 1.386 . S
C2800 C2802 1.391 . S
C2801 C2800 1.386 . S
C2801 C2805 1.393 . S
C2802 H2794 0.950 . S
C2802 C2800 1.391 . S
C2802 C2803 1.400 . S
C2803 C2802 1.400 . S
C2803 C2804 1.398 . S
C2803 C2809 1.491 . S
C2804 H2795 0.950 . S
C2804 C2803 1.398 . S
C2804 C2805 1.391 . S
C2805 H2793 0.950 . S
C2805 C2801 1.393 . S
C2805 C2804 1.391 . S
C2806 H2796 0.950 . S
C2806 C2807 1.386 . S
C2806 C2808 1.391 . S
C2807 C2806 1.386 . S
C2807 C2811 1.393 . S
C2808 H2797 0.950 . S
C2808 C2806 1.391 . S
C2808 C2809 1.400 . S
C2809 C2803 1.491 . S
C2809 C2808 1.400 . S
C2809 C2810 1.398 . S
C2810 H2798 0.950 . S
C2810 C2809 1.398 . S
C2810 C2811 1.391 . S
C2811 H2799 0.950 . S
C2811 C2807 1.393 . S
C2811 C2810 1.391 . S
H2812 C2820 0.950 . S
H2813 C2825 0.950 . S
H2814 C2822 0.950 . S
H2815 C2824 0.950 . S
H2816 C2826 0.950 . S
H2817 C2828 0.950 . S
H2818 C2830 0.950 . S
H2819 C2831 0.950 . S
C2820 H2812 0.950 . S
C2820 C2821 1.386 . S
C2820 C2822 1.391 . S
C2821 C2820 1.386 . S
C2821 C2825 1.393 . S
C2822 H2814 0.950 . S
C2822 C2820 1.391 . S
C2822 C2823 1.400 . S
C2823 C2822 1.400 . S
C2823 C2824 1.398 . S
C2823 C2829 1.491 . S
C2824 H2815 0.950 . S
C2824 C2823 1.398 . S
C2824 C2825 1.391 . S
C2825 H2813 0.950 . S
C2825 C2821 1.393 . S
C2825 C2824 1.391 . S
C2826 H2816 0.950 . S
C2826 C2827 1.386 . S
C2826 C2828 1.391 . S
C2827 C2826 1.386 . S
C2827 C2831 1.393 . S
C2828 H2817 0.950 . S
C2828 C2826 1.391 . S
C2828 C2829 1.400 . S
C2829 C2823 1.491 . S
C2829 C2828 1.400 . S
C2829 C2830 1.398 . S
C2830 H2818 0.950 . S
C2830 C2829 1.398 . S
C2830 C2831 1.391 . S
C2831 H2819 0.950 . S
C2831 C2827 1.393 . S
C2831 C2830 1.391 . S
H2832 C2840 0.950 . S
H2833 C2845 0.950 . S
H2834 C2842 0.950 . S
H2835 C2844 0.950 . S
H2836 C2846 0.950 . S
H2837 C2848 0.950 . S
H2838 C2850 0.950 . S
H2839 C2851 0.950 . S
C2840 H2832 0.950 . S
C2840 C2841 1.386 . S
C2840 C2842 1.391 . S
C2841 C2840 1.386 . S
C2841 C2845 1.393 . S
C2842 H2834 0.950 . S
C2842 C2840 1.391 . S
C2842 C2843 1.400 . S
C2843 C2842 1.400 . S
C2843 C2844 1.398 . S
C2843 C2849 1.491 . S
C2844 H2835 0.950 . S
C2844 C2843 1.398 . S
C2844 C2845 1.391 . S
C2845 H2833 0.950 . S
C2845 C2841 1.393 . S
C2845 C2844 1.391 . S
C2846 H2836 0.950 . S
C2846 C2847 1.386 . S
C2846 C2848 1.391 . S
C2847 C2846 1.386 . S
C2847 C2851 1.393 . S
C2848 H2837 0.950 . S
C2848 C2846 1.391 . S
C2848 C2849 1.400 . S
C2849 C2843 1.491 . S
C2849 C2848 1.400 . S
C2849 C2850 1.398 . S
C2850 H2838 0.950 . S
C2850 C2849 1.398 . S
C2850 C2851 1.391 . S
C2851 H2839 0.950 . S
C2851 C2847 1.393 . S
C2851 C2850 1.391 . S
H2852 C2860 0.950 . S
H2853 C2865 0.950 . S
H2854 C2862 0.950 . S
H2855 C2864 0.950 . S
H2856 C2866 0.950 . S
H2857 C2868 0.950 . S
H2858 C2870 0.950 . S
H2859 C2871 0.950 . S
C2860 H2852 0.950 . S
C2860 C2861 1.386 . S
C2860 C2862 1.391 . S
C2861 C2860 1.386 . S
C2861 C2865 1.393 . S
C2862 H2854 0.950 . S
C2862 C2860 1.391 . S
C2862 C2863 1.400 . S
C2863 C2862 1.400 . S
C2863 C2864 1.398 . S
C2863 C2869 1.491 . S
C2864 H2855 0.950 . S
C2864 C2863 1.398 . S
C2864 C2865 1.391 . S
C2865 H2853 0.950 . S
C2865 C2861 1.393 . S
C2865 C2864 1.391 . S
C2866 H2856 0.950 . S
C2866 C2867 1.386 . S
C2866 C2868 1.391 . S
C2867 C2866 1.386 . S
C2867 C2871 1.393 . S
C2868 H2857 0.950 . S
C2868 C2866 1.391 . S
C2868 C2869 1.400 . S
C2869 C2863 1.491 . S
C2869 C2868 1.400 . S
C2869 C2870 1.398 . S
C2870 H2858 0.950 . S
C2870 C2869 1.398 . S
C2870 C2871 1.391 . S
C2871 H2859 0.950 . S
C2871 C2867 1.393 . S
C2871 C2870 1.391 . S
H2872 C2880 0.950 . S
H2873 C2885 0.950 . S
H2874 C2882 0.950 . S
H2875 C2884 0.950 . S
H2876 C2886 0.950 . S
H2877 C2888 0.950 . S
H2878 C2890 0.950 . S
H2879 C2891 0.950 . S
C2880 H2872 0.950 . S
C2880 C2881 1.386 . S
C2880 C2882 1.391 . S
C2881 C2880 1.386 . S
C2881 C2885 1.393 . S
C2882 H2874 0.950 . S
C2882 C2880 1.391 . S
C2882 C2883 1.400 . S
C2883 C2882 1.400 . S
C2883 C2884 1.398 . S
C2883 C2889 1.491 . S
C2884 H2875 0.950 . S
C2884 C2883 1.398 . S
C2884 C2885 1.391 . S
C2885 H2873 0.950 . S
C2885 C2881 1.393 . S
C2885 C2884 1.391 . S
C2886 H2876 0.950 . S
C2886 C2887 1.386 . S
C2886 C2888 1.391 . S
C2887 C2886 1.386 . S
C2887 C2891 1.393 . S
C2888 H2877 0.950 . S
C2888 C2886 1.391 . S
C2888 C2889 1.400 . S
C2889 C2883 1.491 . S
C2889 C2888 1.400 . S
C2889 C2890 1.398 . S
C2890 H2878 0.950 . S
C2890 C2889 1.398 . S
C2890 C2891 1.391 . S
C2891 H2879 0.950 . S
C2891 C2887 1.393 . S
C2891 C2890 1.391 . S
H2892 C2900 0.950 . S
H2893 C2905 0.950 . S
H2894 C2902 0.950 . S
H2895 C2904 0.950 . S
H2896 C2906 0.950 . S
H2897 C2908 0.950 . S
H2898 C2910 0.950 . S
H2899 C2911 0.950 . S
C2900 H2892 0.950 . S
C2900 C2901 1.386 . S
C2900 C2902 1.391 . S
C2901 C2900 1.386 . S
C2901 C2905 1.393 . S
C2902 H2894 0.950 . S
C2902 C2900 1.391 . S
C2902 C2903 1.400 . S
C2903 C2902 1.400 . S
C2903 C2904 1.398 . S
C2903 C2909 1.491 . S
C2904 H2895 0.950 . S
C2904 C2903 1.398 . S
C2904 C2905 1.391 . S
C2905 H2893 0.950 . S
C2905 C2901 1.393 . S
C2905 C2904 1.391 . S
C2906 H2896 0.950 . S
C2906 C2907 1.386 . S
C2906 C2908 1.391 . S
C2907 C2906 1.386 . S
C2907 C2911 1.393 . S
C2908 H2897 0.950 . S
C2908 C2906 1.391 . S
C2908 C2909 1.400 . S
C2909 C2903 1.491 . S
C2909 C2908 1.400 . S
C2909 C2910 1.398 . S
C2910 H2898 0.950 . S
C2910 C2909 1.398 . S
C2910 C2911 1.391 . S
C2911 H2899 0.950 . S
C2911 C2907 1.393 . S
C2911 C2910 1.391 . S
H2912 C2920 0.950 . S
H2913 C2925 0.950 . S
H2914 C2922 0.950 . S
H2915 C2924 0.950 . S
H2916 C2926 0.950 . S
H2917 C2928 0.950 . S
H2918 C2930 0.950 . S
H2919 C2931 0.950 . S
C2920 H2912 0.950 . S
C2920 C2921 1.386 . S
C2920 C2922 1.391 . S
C2921 C2920 1.386 . S
C2921 C2925 1.393 1_655 S
C2922 H2914 0.950 . S
C2922 C2920 1.391 . S
C2922 C2923 1.400 . S
C2923 C2922 1.400 . S
C2923 C2924 1.398 1_655 S
C2923 C2929 1.491 1_655 S
C2924 H2915 0.950 . S
C2924 C2923 1.398 1_455 S
C2924 C2925 1.391 . S
C2925 H2913 0.950 . S
C2925 C2921 1.393 1_455 S
C2925 C2924 1.391 . S
C2926 H2916 0.950 . S
C2926 C2927 1.386 . S
C2926 C2928 1.391 . S
C2927 C2926 1.386 . S
C2927 C2931 1.393 1_455 S
C2928 H2917 0.950 . S
C2928 C2926 1.391 . S
C2928 C2929 1.400 . S
C2929 C2923 1.491 1_455 S
C2929 C2928 1.400 . S
C2929 C2930 1.398 1_455 S
C2930 H2918 0.950 . S
C2930 C2929 1.398 1_655 S
C2930 C2931 1.391 . S
C2931 H2919 0.950 . S
C2931 C2927 1.393 1_655 S
C2931 C2930 1.391 . S
H2932 C2940 0.950 . S
H2933 C2945 0.950 . S
H2934 C2942 0.950 . S
H2935 C2944 0.950 . S
H2936 C2946 0.950 . S
H2937 C2948 0.950 . S
H2938 C2950 0.950 . S
H2939 C2951 0.950 . S
C2940 H2932 0.950 . S
C2940 C2941 1.386 . S
C2940 C2942 1.391 . S
C2941 C2940 1.386 . S
C2941 C2945 1.393 . S
C2942 H2934 0.950 . S
C2942 C2940 1.391 . S
C2942 C2943 1.400 . S
C2943 C2942 1.400 . S
C2943 C2944 1.398 . S
C2943 C2949 1.491 . S
C2944 H2935 0.950 . S
C2944 C2943 1.398 . S
C2944 C2945 1.391 . S
C2945 H2933 0.950 . S
C2945 C2941 1.393 . S
C2945 C2944 1.391 . S
C2946 H2936 0.950 . S
C2946 C2947 1.386 . S
C2946 C2948 1.391 . S
C2947 C2946 1.386 . S
C2947 C2951 1.393 . S
C2948 H2937 0.950 . S
C2948 C2946 1.391 . S
C2948 C2949 1.400 . S
C2949 C2943 1.491 . S
C2949 C2948 1.400 . S
C2949 C2950 1.398 . S
C2950 H2938 0.950 . S
C2950 C2949 1.398 . S
C2950 C2951 1.391 . S
C2951 H2939 0.950 . S
C2951 C2947 1.393 . S
C2951 C2950 1.391 . S
H2952 C2960 0.962 . S
H2953 C2965 0.950 . S
H2954 C2962 0.955 1_565 S
H2955 C2964 0.950 . S
H2956 C2966 0.950 . S
H2957 C2968 0.950 . S
H2958 C2970 0.945 1_565 S
H2959 C2971 0.950 . S
C2960 H2952 0.962 . S
C2960 C2961 1.393 1_565 S
C2960 C2962 1.366 1_565 S
C2961 C2960 1.393 1_545 S
C2961 C2965 1.393 . S
C2962 H2954 0.955 1_545 S
C2962 C2960 1.366 1_545 S
C2962 C2963 1.409 . S
C2963 C2962 1.409 . S
C2963 C2964 1.398 . S
C2963 C2969 1.491 . S
C2964 H2955 0.950 . S
C2964 C2963 1.398 . S
C2964 C2965 1.391 . S
C2965 H2953 0.950 . S
C2965 C2961 1.393 . S
C2965 C2964 1.391 . S
C2966 H2956 0.950 . S
C2966 C2967 1.386 . S
C2966 C2968 1.391 . S
C2967 C2966 1.386 . S
C2967 C2971 1.393 . S
C2968 H2957 0.950 . S
C2968 C2966 1.391 . S
C2968 C2969 1.400 . S
C2969 C2963 1.491 . S
C2969 C2968 1.400 . S
C2969 C2970 1.398 . S
C2970 H2958 0.945 1_545 S
C2970 C2969 1.398 . S
C2970 C2971 1.391 . S
C2971 H2959 0.950 . S
C2971 C2967 1.393 . S
C2971 C2970 1.391 . S
H2972 C2980 0.950 . S
H2973 C2985 0.950 . S
H2974 C2982 0.950 . S
H2975 C2984 0.950 . S
H2976 C2986 0.950 . S
H2977 C2988 0.950 . S
H2978 C2990 0.950 . S
H2979 C2991 0.950 . S
C2980 H2972 0.950 . S
C2980 C2981 1.386 . S
C2980 C2982 1.391 . S
C2981 C2980 1.386 . S
C2981 C2985 1.393 . S
C2982 H2974 0.950 . S
C2982 C2980 1.391 . S
C2982 C2983 1.400 . S
C2983 C2982 1.400 . S
C2983 C2984 1.398 . S
C2983 C2989 1.491 . S
C2984 H2975 0.950 . S
C2984 C2983 1.398 . S
C2984 C2985 1.391 . S
C2985 H2973 0.950 . S
C2985 C2981 1.393 . S
C2985 C2984 1.391 . S
C2986 H2976 0.950 . S
C2986 C2987 1.386 . S
C2986 C2988 1.391 . S
C2987 C2986 1.386 . S
C2987 C2991 1.393 . S
C2988 H2977 0.950 . S
C2988 C2986 1.391 . S
C2988 C2989 1.400 . S
C2989 C2983 1.491 . S
C2989 C2988 1.400 . S
C2989 C2990 1.398 . S
C2990 H2978 0.950 . S
C2990 C2989 1.398 . S
C2990 C2991 1.391 . S
C2991 H2979 0.950 . S
C2991 C2987 1.393 . S
C2991 C2990 1.391 . S
H2992 C3000 0.950 . S
H2993 C3005 0.950 . S
H2994 C3002 0.951 . S
H2995 C3004 0.950 . S
H2996 C3006 0.950 1_655 S
H2997 C3008 0.950 . S
H2998 C3010 0.950 1_565 S
H2999 C3011 0.950 1_565 S
C3000 H2992 0.950 . S
C3000 C3001 1.386 1_455 S
C3000 C3002 1.391 . S
C3001 C3000 1.386 1_655 S
C3001 C3005 1.393 . S
C3002 H2994 0.951 . S
C3002 C3000 1.391 . S
C3002 C3003 1.400 . S
C3003 C3002 1.400 . S
C3003 C3004 1.398 1_455 S
C3003 C3009 1.491 . S
C3004 H2995 0.950 . S
C3004 C3003 1.398 1_655 S
C3004 C3005 1.391 . S
C3005 H2993 0.950 . S
C3005 C3001 1.393 . S
C3005 C3004 1.391 . S
C3006 H2996 0.950 1_455 S
C3006 C3007 1.386 . S
C3006 C3008 1.391 1_455 S
C3007 C3006 1.386 . S
C3007 C3011 1.393 . S
C3008 H2997 0.950 . S
C3008 C3006 1.391 1_655 S
C3008 C3009 1.400 1_655 S
C3009 C3003 1.491 . S
C3009 C3008 1.400 1_455 S
C3009 C3010 1.398 . S
C3010 H2998 0.950 1_545 S
C3010 C3009 1.398 . S
C3010 C3011 1.391 . S
C3011 H2999 0.950 1_545 S
C3011 C3007 1.393 . S
C3011 C3010 1.391 . S
H3012 C3020 0.950 . S
H3013 C3025 0.950 . S
H3014 C3022 0.950 . S
H3015 C3024 0.950 . S
H3016 C3026 0.950 . S
H3017 C3028 0.950 . S
H3018 C3030 0.950 . S
H3019 C3031 0.950 . S
C3020 H3012 0.950 . S
C3020 C3021 1.386 . S
C3020 C3022 1.391 . S
C3021 C3020 1.386 . S
C3021 C3025 1.393 . S
C3022 H3014 0.950 . S
C3022 C3020 1.391 . S
C3022 C3023 1.400 . S
C3023 C3022 1.400 . S
C3023 C3024 1.398 . S
C3023 C3029 1.491 . S
C3024 H3015 0.950 . S
C3024 C3023 1.398 . S
C3024 C3025 1.391 . S
C3025 H3013 0.950 . S
C3025 C3021 1.393 . S
C3025 C3024 1.391 . S
C3026 H3016 0.950 . S
C3026 C3027 1.386 . S
C3026 C3028 1.391 . S
C3027 C3026 1.386 . S
C3027 C3031 1.393 . S
C3028 H3017 0.950 . S
C3028 C3026 1.391 . S
C3028 C3029 1.400 . S
C3029 C3023 1.491 . S
C3029 C3028 1.400 . S
C3029 C3030 1.398 . S
C3030 H3018 0.950 . S
C3030 C3029 1.398 . S
C3030 C3031 1.391 . S
C3031 H3019 0.950 . S
C3031 C3027 1.393 . S
C3031 C3030 1.391 . S
H3032 C3040 0.950 . S
H3033 C3045 0.950 . S
H3034 C3042 0.950 . S
H3035 C3044 0.924 1_565 S
H3036 C3046 0.950 1_565 S
H3037 C3048 0.950 1_565 S
H3038 C3050 0.950 . S
H3039 C3051 0.950 . S
C3040 H3032 0.950 . S
C3040 C3041 1.386 . S
C3040 C3042 1.391 . S
C3041 C3040 1.386 . S
C3041 C3045 1.393 1_545 S
C3042 H3034 0.950 . S
C3042 C3040 1.391 . S
C3042 C3043 1.400 . S
C3043 C3042 1.400 . S
C3043 C3044 1.429 . S
C3043 C3049 1.491 . S
C3044 H3035 0.924 1_545 S
C3044 C3043 1.429 . S
C3044 C3045 1.386 1_545 S
C3045 H3033 0.950 . S
C3045 C3041 1.393 1_565 S
C3045 C3044 1.386 1_565 S
C3046 H3036 0.950 1_545 S
C3046 C3047 1.386 . S
C3046 C3048 1.391 . S
C3047 C3046 1.386 . S
C3047 C3051 1.393 . S
C3048 H3037 0.950 1_545 S
C3048 C3046 1.391 . S
C3048 C3049 1.400 . S
C3049 C3043 1.491 . S
C3049 C3048 1.400 . S
C3049 C3050 1.398 . S
C3050 H3038 0.950 . S
C3050 C3049 1.398 . S
C3050 C3051 1.391 . S
C3051 H3039 0.950 . S
C3051 C3047 1.393 . S
C3051 C3050 1.391 . S
H3052 C3060 0.950 . S
H3053 C3065 0.950 . S
H3054 C3062 0.950 . S
H3055 C3064 0.950 . S
H3056 C3066 0.950 . S
H3057 C3068 0.950 . S
H3058 C3070 0.950 . S
H3059 C3071 0.950 . S
C3060 H3052 0.950 . S
C3060 C3061 1.386 . S
C3060 C3062 1.391 . S
C3061 C3060 1.386 . S
C3061 C3065 1.393 . S
C3062 H3054 0.950 . S
C3062 C3060 1.391 . S
C3062 C3063 1.400 . S
C3063 C3062 1.400 . S
C3063 C3064 1.398 . S
C3063 C3069 1.491 . S
C3064 H3055 0.950 . S
C3064 C3063 1.398 . S
C3064 C3065 1.391 . S
C3065 H3053 0.950 . S
C3065 C3061 1.393 . S
C3065 C3064 1.391 . S
C3066 H3056 0.950 . S
C3066 C3067 1.386 . S
C3066 C3068 1.391 . S
C3067 C3066 1.386 . S
C3067 C3071 1.393 . S
C3068 H3057 0.950 . S
C3068 C3066 1.391 . S
C3068 C3069 1.400 . S
C3069 C3063 1.491 . S
C3069 C3068 1.400 . S
C3069 C3070 1.398 . S
C3070 H3058 0.950 . S
C3070 C3069 1.398 . S
C3070 C3071 1.391 . S
C3071 H3059 0.950 . S
C3071 C3067 1.393 . S
C3071 C3070 1.391 . S
H3072 C3080 0.950 . S
H3073 C3085 0.950 . S
H3074 C3082 0.950 . S
H3075 C3084 0.962 . S
H3076 C3086 0.950 . S
H3077 C3088 0.950 . S
H3078 C3090 0.950 . S
H3079 C3091 0.950 . S
C3080 H3072 0.950 . S
C3080 C3081 1.386 . S
C3080 C3082 1.391 . S
C3081 C3080 1.386 . S
C3081 C3085 1.393 1_554 S
C3082 H3074 0.950 . S
C3082 C3080 1.391 . S
C3082 C3083 1.400 . S
C3083 C3082 1.400 . S
C3083 C3084 1.398 . S
C3083 C3089 1.491 . S
C3084 H3075 0.962 . S
C3084 C3083 1.398 . S
C3084 C3085 1.391 1_554 S
C3085 H3073 0.950 . S
C3085 C3081 1.393 1_556 S
C3085 C3084 1.391 1_556 S
C3086 H3076 0.950 . S
C3086 C3087 1.386 . S
C3086 C3088 1.391 . S
C3087 C3086 1.386 . S
C3087 C3091 1.393 . S
C3088 H3077 0.950 . S
C3088 C3086 1.391 . S
C3088 C3089 1.400 . S
C3089 C3083 1.491 . S
C3089 C3088 1.400 . S
C3089 C3090 1.398 . S
C3090 H3078 0.950 . S
C3090 C3089 1.398 . S
C3090 C3091 1.391 . S
C3091 H3079 0.950 . S
C3091 C3087 1.393 . S
C3091 C3090 1.391 . S
H3092 C3100 0.950 . S
H3093 C3105 0.950 1_556 S
H3094 C3102 0.950 . S
H3095 C3104 0.950 1_556 S
H3096 C3106 0.950 . S
H3097 C3108 0.950 1_556 S
H3098 C3110 0.950 . S
H3099 C3111 0.950 . S
C3100 H3092 0.950 . S
C3100 C3101 1.386 . S
C3100 C3102 1.391 . S
C3101 C3100 1.386 . S
C3101 C3105 1.393 . S
C3102 H3094 0.950 . S
C3102 C3100 1.391 . S
C3102 C3103 1.400 . S
C3103 C3102 1.400 . S
C3103 C3104 1.398 . S
C3103 C3109 1.491 . S
C3104 H3095 0.950 1_554 S
C3104 C3103 1.398 . S
C3104 C3105 1.391 . S
C3105 H3093 0.950 1_554 S
C3105 C3101 1.393 . S
C3105 C3104 1.391 . S
C3106 H3096 0.950 . S
C3106 C3107 1.386 . S
C3106 C3108 1.391 . S
C3107 C3106 1.386 . S
C3107 C3111 1.393 . S
C3108 H3097 0.950 1_554 S
C3108 C3106 1.391 . S
C3108 C3109 1.400 . S
C3109 C3103 1.491 . S
C3109 C3108 1.400 . S
C3109 C3110 1.398 . S
C3110 H3098 0.950 . S
C3110 C3109 1.398 . S
C3110 C3111 1.391 . S
C3111 H3099 0.950 . S
C3111 C3107 1.393 . S
C3111 C3110 1.391 . S
H3112 C3120 0.950 . S
H3113 C3125 0.950 . S
H3114 C3122 0.950 . S
H3115 C3124 0.950 . S
H3116 C3126 0.950 . S
H3117 C3128 0.950 . S
H3118 C3130 0.950 . S
H3119 C3131 0.950 . S
C3120 H3112 0.950 . S
C3120 C3121 1.386 . S
C3120 C3122 1.391 . S
C3121 C3120 1.386 . S
C3121 C3125 1.393 . S
C3122 H3114 0.950 . S
C3122 C3120 1.391 . S
C3122 C3123 1.400 . S
C3123 C3122 1.400 . S
C3123 C3124 1.398 . S
C3123 C3129 1.491 . S
C3124 H3115 0.950 . S
C3124 C3123 1.398 . S
C3124 C3125 1.391 . S
C3125 H3113 0.950 . S
C3125 C3121 1.393 . S
C3125 C3124 1.391 . S
C3126 H3116 0.950 . S
C3126 C3127 1.386 . S
C3126 C3128 1.391 . S
C3127 C3126 1.386 . S
C3127 C3131 1.393 . S
C3128 H3117 0.950 . S
C3128 C3126 1.391 . S
C3128 C3129 1.400 . S
C3129 C3123 1.491 . S
C3129 C3128 1.400 . S
C3129 C3130 1.398 . S
C3130 H3118 0.950 . S
C3130 C3129 1.398 . S
C3130 C3131 1.391 . S
C3131 H3119 0.950 . S
C3131 C3127 1.393 . S
C3131 C3130 1.391 . S
H3132 C3140 0.950 . S
H3133 C3145 0.950 . S
H3134 C3142 0.950 . S
H3135 C3144 0.950 . S
H3136 C3146 0.950 . S
H3137 C3148 0.950 . S
H3138 C3150 0.950 . S
H3139 C3151 0.950 . S
C3140 H3132 0.950 . S
C3140 C3141 1.386 . S
C3140 C3142 1.391 . S
C3141 C3140 1.386 . S
C3141 C3145 1.393 . S
C3142 H3134 0.950 . S
C3142 C3140 1.391 . S
C3142 C3143 1.400 . S
C3143 C3142 1.400 . S
C3143 C3144 1.398 . S
C3143 C3149 1.491 . S
C3144 H3135 0.950 . S
C3144 C3143 1.398 . S
C3144 C3145 1.391 . S
C3145 H3133 0.950 . S
C3145 C3141 1.393 . S
C3145 C3144 1.391 . S
C3146 H3136 0.950 . S
C3146 C3147 1.386 . S
C3146 C3148 1.391 . S
C3147 C3146 1.386 . S
C3147 C3151 1.393 . S
C3148 H3137 0.950 . S
C3148 C3146 1.391 . S
C3148 C3149 1.400 . S
C3149 C3143 1.491 . S
C3149 C3148 1.400 . S
C3149 C3150 1.398 . S
C3150 H3138 0.950 . S
C3150 C3149 1.398 . S
C3150 C3151 1.391 . S
C3151 H3139 0.950 . S
C3151 C3147 1.393 . S
C3151 C3150 1.391 . S
H3152 C3160 0.950 . S
H3153 C3165 0.950 . S
H3154 C3162 0.950 . S
H3155 C3164 0.950 . S
H3156 C3166 0.950 . S
H3157 C3168 0.950 . S
H3158 C3170 0.950 . S
H3159 C3171 0.950 . S
C3160 H3152 0.950 . S
C3160 C3161 1.386 . S
C3160 C3162 1.391 . S
C3161 C3160 1.386 . S
C3161 C3165 1.393 . S
C3162 H3154 0.950 . S
C3162 C3160 1.391 . S
C3162 C3163 1.400 . S
C3163 C3162 1.400 . S
C3163 C3164 1.398 . S
C3163 C3169 1.491 . S
C3164 H3155 0.950 . S
C3164 C3163 1.398 . S
C3164 C3165 1.391 . S
C3165 H3153 0.950 . S
C3165 C3161 1.393 . S
C3165 C3164 1.391 . S
C3166 H3156 0.950 . S
C3166 C3167 1.386 . S
C3166 C3168 1.391 . S
C3167 C3166 1.386 . S
C3167 C3171 1.393 . S
C3168 H3157 0.950 . S
C3168 C3166 1.391 . S
C3168 C3169 1.400 . S
C3169 C3163 1.491 . S
C3169 C3168 1.400 . S
C3169 C3170 1.398 . S
C3170 H3158 0.950 . S
C3170 C3169 1.398 . S
C3170 C3171 1.391 . S
C3171 H3159 0.950 . S
C3171 C3167 1.393 . S
C3171 C3170 1.391 . S
H3172 C3180 0.950 . S
H3173 C3185 0.950 . S
H3174 C3182 0.950 . S
H3175 C3184 0.950 . S
H3176 C3186 0.950 . S
H3177 C3188 0.950 . S
H3178 C3190 0.950 . S
H3179 C3191 0.950 . S
C3180 H3172 0.950 . S
C3180 C3181 1.386 . S
C3180 C3182 1.391 . S
C3181 C3180 1.386 . S
C3181 C3185 1.393 . S
C3182 H3174 0.950 . S
C3182 C3180 1.391 . S
C3182 C3183 1.400 . S
C3183 C3182 1.400 . S
C3183 C3184 1.398 . S
C3183 C3189 1.491 . S
C3184 H3175 0.950 . S
C3184 C3183 1.398 . S
C3184 C3185 1.391 . S
C3185 H3173 0.950 . S
C3185 C3181 1.393 . S
C3185 C3184 1.391 . S
C3186 H3176 0.950 . S
C3186 C3187 1.386 . S
C3186 C3188 1.391 . S
C3187 C3186 1.386 . S
C3187 C3191 1.393 . S
C3188 H3177 0.950 . S
C3188 C3186 1.391 . S
C3188 C3189 1.400 . S
C3189 C3183 1.491 . S
C3189 C3188 1.400 . S
C3189 C3190 1.398 . S
C3190 H3178 0.950 . S
C3190 C3189 1.398 . S
C3190 C3191 1.391 . S
C3191 H3179 0.950 . S
C3191 C3187 1.393 . S
C3191 C3190 1.391 . S
H3192 C3200 0.950 . S
H3193 C3205 0.950 . S
H3194 C3202 0.950 . S
H3195 C3204 0.950 . S
H3196 C3206 0.950 . S
H3197 C3208 0.950 . S
H3198 C3210 0.950 . S
H3199 C3211 0.950 . S
C3200 H3192 0.950 . S
C3200 C3201 1.386 . S
C3200 C3202 1.391 . S
C3201 C3200 1.386 . S
C3201 C3205 1.393 . S
C3202 H3194 0.950 . S
C3202 C3200 1.391 . S
C3202 C3203 1.400 . S
C3203 C3202 1.400 . S
C3203 C3204 1.398 . S
C3203 C3209 1.491 . S
C3204 H3195 0.950 . S
C3204 C3203 1.398 . S
C3204 C3205 1.391 . S
C3205 H3193 0.950 . S
C3205 C3201 1.393 . S
C3205 C3204 1.391 . S
C3206 H3196 0.950 . S
C3206 C3207 1.386 . S
C3206 C3208 1.391 . S
C3207 C3206 1.386 . S
C3207 C3211 1.393 . S
C3208 H3197 0.950 . S
C3208 C3206 1.391 . S
C3208 C3209 1.400 . S
C3209 C3203 1.491 . S
C3209 C3208 1.400 . S
C3209 C3210 1.398 . S
C3210 H3198 0.950 . S
C3210 C3209 1.398 . S
C3210 C3211 1.391 . S
C3211 H3199 0.950 . S
C3211 C3207 1.393 . S
C3211 C3210 1.391 . S
H3212 C3220 0.950 . S
H3213 C3225 0.950 . S
H3214 C3222 0.950 . S
H3215 C3224 0.950 . S
H3216 C3226 0.950 . S
H3217 C3228 0.950 . S
H3218 C3230 0.950 . S
H3219 C3231 0.950 . S
C3220 H3212 0.950 . S
C3220 C3221 1.386 . S
C3220 C3222 1.391 . S
C3221 C3220 1.386 . S
C3221 C3225 1.393 . S
C3222 H3214 0.950 . S
C3222 C3220 1.391 . S
C3222 C3223 1.400 . S
C3223 C3222 1.400 . S
C3223 C3224 1.398 . S
C3223 C3229 1.491 . S
C3224 H3215 0.950 . S
C3224 C3223 1.398 . S
C3224 C3225 1.391 . S
C3225 H3213 0.950 . S
C3225 C3221 1.393 . S
C3225 C3224 1.391 . S
C3226 H3216 0.950 . S
C3226 C3227 1.386 . S
C3226 C3228 1.391 . S
C3227 C3226 1.386 . S
C3227 C3231 1.393 . S
C3228 H3217 0.950 . S
C3228 C3226 1.391 . S
C3228 C3229 1.400 . S
C3229 C3223 1.491 . S
C3229 C3228 1.400 . S
C3229 C3230 1.398 . S
C3230 H3218 0.950 . S
C3230 C3229 1.398 . S
C3230 C3231 1.391 . S
C3231 H3219 0.950 . S
C3231 C3227 1.393 . S
C3231 C3230 1.391 . S
H3232 C3240 0.950 . S
H3233 C3245 0.950 . S
H3234 C3242 0.950 . S
H3235 C3244 0.950 . S
H3236 C3246 0.950 . S
H3237 C3248 0.950 . S
H3238 C3250 0.950 . S
H3239 C3251 0.950 . S
C3240 H3232 0.950 . S
C3240 C3241 1.386 . S
C3240 C3242 1.391 . S
C3241 C3240 1.386 . S
C3241 C3245 1.393 . S
C3242 H3234 0.950 . S
C3242 C3240 1.391 . S
C3242 C3243 1.400 . S
C3243 C3242 1.400 . S
C3243 C3244 1.398 . S
C3243 C3249 1.491 . S
C3244 H3235 0.950 . S
C3244 C3243 1.398 . S
C3244 C3245 1.391 . S
C3245 H3233 0.950 . S
C3245 C3241 1.393 . S
C3245 C3244 1.391 . S
C3246 H3236 0.950 . S
C3246 C3247 1.386 . S
C3246 C3248 1.391 . S
C3247 C3246 1.386 . S
C3247 C3251 1.393 . S
C3248 H3237 0.950 . S
C3248 C3246 1.391 . S
C3248 C3249 1.400 . S
C3249 C3243 1.491 . S
C3249 C3248 1.400 . S
C3249 C3250 1.398 . S
C3250 H3238 0.950 . S
C3250 C3249 1.398 . S
C3250 C3251 1.391 . S
C3251 H3239 0.950 . S
C3251 C3247 1.393 . S
C3251 C3250 1.391 . S
H3252 C3260 0.950 . S
H3253 C3265 0.950 . S
H3254 C3262 0.950 . S
H3255 C3264 0.950 . S
H3256 C3266 0.950 . S
H3257 C3268 0.950 . S
H3258 C3270 0.950 . S
H3259 C3271 0.950 . S
C3260 H3252 0.950 . S
C3260 C3261 1.386 . S
C3260 C3262 1.391 . S
C3261 C3260 1.386 . S
C3261 C3265 1.393 . S
C3262 H3254 0.950 . S
C3262 C3260 1.391 . S
C3262 C3263 1.400 . S
C3263 C3262 1.400 . S
C3263 C3264 1.398 . S
C3263 C3269 1.491 . S
C3264 H3255 0.950 . S
C3264 C3263 1.398 . S
C3264 C3265 1.391 . S
C3265 H3253 0.950 . S
C3265 C3261 1.393 . S
C3265 C3264 1.391 . S
C3266 H3256 0.950 . S
C3266 C3267 1.386 . S
C3266 C3268 1.391 . S
C3267 C3266 1.386 . S
C3267 C3271 1.393 . S
C3268 H3257 0.950 . S
C3268 C3266 1.391 . S
C3268 C3269 1.400 . S
C3269 C3263 1.491 . S
C3269 C3268 1.400 . S
C3269 C3270 1.398 . S
C3270 H3258 0.950 . S
C3270 C3269 1.398 . S
C3270 C3271 1.391 . S
C3271 H3259 0.950 . S
C3271 C3267 1.393 . S
C3271 C3270 1.391 . S
H3272 C3280 0.950 . S
H3273 C3285 0.950 . S
H3274 C3282 0.950 . S
H3275 C3284 0.950 . S
H3276 C3286 0.950 . S
H3277 C3288 0.950 . S
H3278 C3290 0.950 . S
H3279 C3291 0.950 . S
C3280 H3272 0.950 . S
C3280 C3281 1.386 . S
C3280 C3282 1.391 . S
C3281 C3280 1.386 . S
C3281 C3285 1.393 . S
C3282 H3274 0.950 . S
C3282 C3280 1.391 . S
C3282 C3283 1.400 . S
C3283 C3282 1.400 . S
C3283 C3284 1.398 . S
C3283 C3289 1.491 . S
C3284 H3275 0.950 . S
C3284 C3283 1.398 . S
C3284 C3285 1.391 . S
C3285 H3273 0.950 . S
C3285 C3281 1.393 . S
C3285 C3284 1.391 . S
C3286 H3276 0.950 . S
C3286 C3287 1.386 . S
C3286 C3288 1.391 . S
C3287 C3286 1.386 . S
C3287 C3291 1.393 . S
C3288 H3277 0.950 . S
C3288 C3286 1.391 . S
C3288 C3289 1.400 . S
C3289 C3283 1.491 . S
C3289 C3288 1.400 . S
C3289 C3290 1.398 . S
C3290 H3278 0.950 . S
C3290 C3289 1.398 . S
C3290 C3291 1.391 . S
C3291 H3279 0.950 . S
C3291 C3287 1.393 . S
C3291 C3290 1.391 . S
H3292 C3300 0.950 . S
H3293 C3305 0.950 . S
H3294 C3302 0.950 . S
H3295 C3304 0.950 . S
H3296 C3306 0.950 . S
H3297 C3308 0.950 . S
H3298 C3310 0.950 . S
H3299 C3311 0.950 . S
C3300 H3292 0.950 . S
C3300 C3301 1.386 . S
C3300 C3302 1.391 . S
C3301 C3300 1.386 . S
C3301 C3305 1.393 . S
C3302 H3294 0.950 . S
C3302 C3300 1.391 . S
C3302 C3303 1.400 . S
C3303 C3302 1.400 . S
C3303 C3304 1.398 . S
C3303 C3309 1.491 . S
C3304 H3295 0.950 . S
C3304 C3303 1.398 . S
C3304 C3305 1.391 . S
C3305 H3293 0.950 . S
C3305 C3301 1.393 . S
C3305 C3304 1.391 . S
C3306 H3296 0.950 . S
C3306 C3307 1.386 . S
C3306 C3308 1.391 . S
C3307 C3306 1.386 . S
C3307 C3311 1.393 . S
C3308 H3297 0.950 . S
C3308 C3306 1.391 . S
C3308 C3309 1.400 . S
C3309 C3303 1.491 . S
C3309 C3308 1.400 . S
C3309 C3310 1.398 . S
C3310 H3298 0.950 . S
C3310 C3309 1.398 . S
C3310 C3311 1.391 . S
C3311 H3299 0.950 . S
C3311 C3307 1.393 . S
C3311 C3310 1.391 . S
H3312 C3320 0.950 . S
H3313 C3325 0.955 . S
H3314 C3322 0.950 . S
H3315 C3324 0.957 . S
H3316 C3326 0.950 . S
H3317 C3328 0.950 . S
H3318 C3330 0.950 . S
H3319 C3331 0.950 . S
C3320 H3312 0.950 . S
C3320 C3321 1.386 . S
C3320 C3322 1.391 . S
C3321 C3320 1.386 . S
C3321 C3325 1.385 1_655 S
C3322 H3314 0.950 . S
C3322 C3320 1.391 . S
C3322 C3323 1.421 . S
C3323 C3322 1.421 . S
C3323 C3324 1.386 1_655 S
C3323 C3329 1.484 1_655 S
C3324 H3315 0.957 . S
C3324 C3323 1.386 1_455 S
C3324 C3325 1.391 . S
C3325 H3313 0.955 . S
C3325 C3321 1.385 1_455 S
C3325 C3324 1.391 . S
C3326 H3316 0.950 . S
C3326 C3327 1.395 . S
C3326 C3328 1.391 . S
C3327 C3326 1.395 . S
C3327 C3331 1.380 1_455 S
C3328 H3317 0.950 . S
C3328 C3326 1.391 . S
C3328 C3329 1.398 . S
C3329 C3323 1.484 1_455 S
C3329 C3328 1.398 . S
C3329 C3330 1.400 1_455 S
C3330 H3318 0.950 . S
C3330 C3329 1.400 1_655 S
C3330 C3331 1.391 . S
C3331 H3319 0.950 . S
C3331 C3327 1.380 1_655 S
C3331 C3330 1.391 . S
H3332 C3340 0.950 . S
H3333 C3345 0.950 . S
H3334 C3342 0.950 . S
H3335 C3344 0.950 . S
H3336 C3346 0.950 . S
H3337 C3348 0.950 . S
H3338 C3350 0.950 . S
H3339 C3351 0.950 . S
C3340 H3332 0.950 . S
C3340 C3341 1.386 . S
C3340 C3342 1.391 . S
C3341 C3340 1.386 . S
C3341 C3345 1.393 . S
C3342 H3334 0.950 . S
C3342 C3340 1.391 . S
C3342 C3343 1.400 . S
C3343 C3342 1.400 . S
C3343 C3344 1.398 . S
C3343 C3349 1.491 . S
C3344 H3335 0.950 . S
C3344 C3343 1.398 . S
C3344 C3345 1.391 . S
C3345 H3333 0.950 . S
C3345 C3341 1.393 . S
C3345 C3344 1.391 . S
C3346 H3336 0.950 . S
C3346 C3347 1.386 . S
C3346 C3348 1.391 . S
C3347 C3346 1.386 . S
C3347 C3351 1.393 . S
C3348 H3337 0.950 . S
C3348 C3346 1.391 . S
C3348 C3349 1.400 . S
C3349 C3343 1.491 . S
C3349 C3348 1.400 . S
C3349 C3350 1.398 . S
C3350 H3338 0.950 . S
C3350 C3349 1.398 . S
C3350 C3351 1.391 . S
C3351 H3339 0.950 . S
C3351 C3347 1.393 . S
C3351 C3350 1.391 . S
H3352 C3360 0.950 . S
H3353 C3365 0.950 . S
H3354 C3362 0.950 . S
H3355 C3364 0.950 . S
H3356 C3366 0.950 . S
H3357 C3368 0.950 . S
H3358 C3370 0.950 . S
H3359 C3371 0.950 . S
C3360 H3352 0.950 . S
C3360 C3361 1.386 . S
C3360 C3362 1.391 . S
C3361 C3360 1.386 . S
C3361 C3365 1.393 . S
C3362 H3354 0.950 . S
C3362 C3360 1.391 . S
C3362 C3363 1.400 . S
C3363 C3362 1.400 . S
C3363 C3364 1.398 . S
C3363 C3369 1.491 . S
C3364 H3355 0.950 . S
C3364 C3363 1.398 . S
C3364 C3365 1.391 . S
C3365 H3353 0.950 . S
C3365 C3361 1.393 . S
C3365 C3364 1.391 . S
C3366 H3356 0.950 . S
C3366 C3367 1.386 1_556 S
C3366 C3368 1.391 . S
C3367 C3366 1.386 1_554 S
C3367 C3371 1.393 . S
C3368 H3357 0.950 . S
C3368 C3366 1.391 . S
C3368 C3369 1.400 . S
C3369 C3363 1.491 . S
C3369 C3368 1.400 . S
C3369 C3370 1.398 . S
C3370 H3358 0.950 . S
C3370 C3369 1.398 . S
C3370 C3371 1.391 1_556 S
C3371 H3359 0.950 . S
C3371 C3367 1.393 . S
C3371 C3370 1.391 1_554 S
H3372 C3380 0.950 . S
H3373 C3385 0.950 . S
H3374 C3382 0.950 . S
H3375 C3384 0.950 . S
H3376 C3386 0.950 . S
H3377 C3388 0.950 . S
H3378 C3390 0.950 . S
H3379 C3391 0.950 . S
C3380 H3372 0.950 . S
C3380 C3381 1.386 . S
C3380 C3382 1.391 . S
C3381 C3380 1.386 . S
C3381 C3385 1.393 . S
C3382 H3374 0.950 . S
C3382 C3380 1.391 . S
C3382 C3383 1.400 . S
C3383 C3382 1.400 . S
C3383 C3384 1.398 . S
C3383 C3389 1.491 . S
C3384 H3375 0.950 . S
C3384 C3383 1.398 . S
C3384 C3385 1.391 . S
C3385 H3373 0.950 . S
C3385 C3381 1.393 . S
C3385 C3384 1.391 . S
C3386 H3376 0.950 . S
C3386 C3387 1.386 . S
C3386 C3388 1.391 . S
C3387 C3386 1.386 . S
C3387 C3391 1.393 . S
C3388 H3377 0.950 . S
C3388 C3386 1.391 . S
C3388 C3389 1.400 . S
C3389 C3383 1.491 . S
C3389 C3388 1.400 . S
C3389 C3390 1.398 . S
C3390 H3378 0.950 . S
C3390 C3389 1.398 . S
C3390 C3391 1.391 . S
C3391 H3379 0.950 . S
C3391 C3387 1.393 . S
C3391 C3390 1.391 . S
H3392 C3400 0.950 . S
H3393 C3405 0.950 . S
H3394 C3402 0.950 . S
H3395 C3404 0.950 . S
H3396 C3406 0.950 1_565 S
H3397 C3408 0.950 . S
H3398 C3410 0.950 . S
H3399 C3411 0.950 . S
C3400 H3392 0.950 . S
C3400 C3401 1.386 . S
C3400 C3402 1.391 . S
C3401 C3400 1.386 . S
C3401 C3405 1.393 . S
C3402 H3394 0.950 . S
C3402 C3400 1.391 . S
C3402 C3403 1.400 . S
C3403 C3402 1.400 . S
C3403 C3404 1.398 . S
C3403 C3409 1.491 . S
C3404 H3395 0.950 . S
C3404 C3403 1.398 . S
C3404 C3405 1.391 . S
C3405 H3393 0.950 . S
C3405 C3401 1.393 . S
C3405 C3404 1.391 . S
C3406 H3396 0.950 1_545 S
C3406 C3407 1.386 . S
C3406 C3408 1.391 . S
C3407 C3406 1.386 . S
C3407 C3411 1.393 . S
C3408 H3397 0.950 . S
C3408 C3406 1.391 . S
C3408 C3409 1.400 . S
C3409 C3403 1.491 . S
C3409 C3408 1.400 . S
C3409 C3410 1.398 . S
C3410 H3398 0.950 . S
C3410 C3409 1.398 . S
C3410 C3411 1.391 . S
C3411 H3399 0.950 . S
C3411 C3407 1.393 . S
C3411 C3410 1.391 . S
H3412 C3420 0.950 . S
H3413 C3425 0.950 . S
H3414 C3422 0.950 . S
H3415 C3424 0.950 . S
H3416 C3426 0.950 . S
H3417 C3428 0.950 . S
H3418 C3430 0.950 . S
H3419 C3431 0.950 . S
C3420 H3412 0.950 . S
C3420 C3421 1.386 . S
C3420 C3422 1.391 . S
C3421 C3420 1.386 . S
C3421 C3425 1.393 . S
C3422 H3414 0.950 . S
C3422 C3420 1.391 . S
C3422 C3423 1.400 . S
C3423 C3422 1.400 . S
C3423 C3424 1.398 . S
C3423 C3429 1.491 . S
C3424 H3415 0.950 . S
C3424 C3423 1.398 . S
C3424 C3425 1.391 . S
C3425 H3413 0.950 . S
C3425 C3421 1.393 . S
C3425 C3424 1.391 . S
C3426 H3416 0.950 . S
C3426 C3427 1.386 . S
C3426 C3428 1.391 . S
C3427 C3426 1.386 . S
C3427 C3431 1.393 . S
C3428 H3417 0.950 . S
C3428 C3426 1.391 . S
C3428 C3429 1.400 . S
C3429 C3423 1.491 . S
C3429 C3428 1.400 . S
C3429 C3430 1.398 . S
C3430 H3418 0.950 . S
C3430 C3429 1.398 . S
C3430 C3431 1.391 . S
C3431 H3419 0.950 . S
C3431 C3427 1.393 . S
C3431 C3430 1.391 . S
H3432 C3440 0.950 . S
H3433 C3445 0.950 . S
H3434 C3442 0.950 . S
H3435 C3444 0.950 1_565 S
H3436 C3446 0.950 1_565 S
H3437 C3448 0.950 1_565 S
H3438 C3450 0.950 . S
H3439 C3451 0.950 . S
C3440 H3432 0.950 . S
C3440 C3441 1.386 . S
C3440 C3442 1.391 . S
C3441 C3440 1.386 . S
C3441 C3445 1.393 . S
C3442 H3434 0.950 . S
C3442 C3440 1.391 . S
C3442 C3443 1.400 . S
C3443 C3442 1.400 . S
C3443 C3444 1.398 . S
C3443 C3449 1.491 . S
C3444 H3435 0.950 1_545 S
C3444 C3443 1.398 . S
C3444 C3445 1.391 . S
C3445 H3433 0.950 . S
C3445 C3441 1.393 . S
C3445 C3444 1.391 . S
C3446 H3436 0.950 1_545 S
C3446 C3447 1.386 . S
C3446 C3448 1.391 . S
C3447 C3446 1.386 . S
C3447 C3451 1.393 . S
C3448 H3437 0.950 1_545 S
C3448 C3446 1.391 . S
C3448 C3449 1.400 . S
C3449 C3443 1.491 . S
C3449 C3448 1.400 . S
C3449 C3450 1.398 . S
C3450 H3438 0.950 . S
C3450 C3449 1.398 . S
C3450 C3451 1.391 . S
C3451 H3439 0.950 . S
C3451 C3447 1.393 . S
C3451 C3450 1.391 . S
H3452 C3460 0.950 . S
H3453 C3465 0.950 . S
H3454 C3462 0.950 . S
H3455 C3464 0.950 . S
H3456 C3466 0.950 . S
H3457 C3468 0.950 . S
H3458 C3470 0.950 . S
H3459 C3471 0.950 . S
C3460 H3452 0.950 . S
C3460 C3461 1.386 . S
C3460 C3462 1.391 . S
C3461 C3460 1.386 . S
C3461 C3465 1.393 . S
C3462 H3454 0.950 . S
C3462 C3460 1.391 . S
C3462 C3463 1.400 . S
C3463 C3462 1.400 . S
C3463 C3464 1.398 . S
C3463 C3469 1.491 . S
C3464 H3455 0.950 . S
C3464 C3463 1.398 . S
C3464 C3465 1.391 . S
C3465 H3453 0.950 . S
C3465 C3461 1.393 . S
C3465 C3464 1.391 . S
C3466 H3456 0.950 . S
C3466 C3467 1.386 . S
C3466 C3468 1.391 . S
C3467 C3466 1.386 . S
C3467 C3471 1.393 . S
C3468 H3457 0.950 . S
C3468 C3466 1.391 . S
C3468 C3469 1.400 . S
C3469 C3463 1.491 . S
C3469 C3468 1.400 . S
C3469 C3470 1.398 . S
C3470 H3458 0.950 . S
C3470 C3469 1.398 . S
C3470 C3471 1.391 . S
C3471 H3459 0.950 . S
C3471 C3467 1.393 . S
C3471 C3470 1.391 . S
H3472 C3480 0.950 1_565 S
H3473 C3485 0.950 . S
H3474 C3482 0.950 1_565 S
H3475 C3484 0.950 . S
H3476 C3486 0.950 . S
H3477 C3488 0.950 . S
H3478 C3490 0.950 1_565 S
H3479 C3491 0.950 1_565 S
C3480 H3472 0.950 1_545 S
C3480 C3481 1.386 . S
C3480 C3482 1.391 . S
C3481 C3480 1.386 . S
C3481 C3485 1.393 . S
C3482 H3474 0.950 1_545 S
C3482 C3480 1.391 . S
C3482 C3483 1.400 . S
C3483 C3482 1.400 . S
C3483 C3484 1.398 . S
C3483 C3489 1.491 . S
C3484 H3475 0.950 . S
C3484 C3483 1.398 . S
C3484 C3485 1.391 . S
C3485 H3473 0.950 . S
C3485 C3481 1.393 . S
C3485 C3484 1.391 . S
C3486 H3476 0.950 . S
C3486 C3487 1.386 . S
C3486 C3488 1.391 . S
C3487 C3486 1.386 . S
C3487 C3491 1.393 . S
C3488 H3477 0.950 . S
C3488 C3486 1.391 . S
C3488 C3489 1.400 . S
C3489 C3483 1.491 . S
C3489 C3488 1.400 . S
C3489 C3490 1.398 . S
C3490 H3478 0.950 1_545 S
C3490 C3489 1.398 . S
C3490 C3491 1.391 . S
C3491 H3479 0.950 1_545 S
C3491 C3487 1.393 . S
C3491 C3490 1.391 . S
H3492 C3500 0.950 . S
H3493 C3505 0.950 . S
H3494 C3502 0.950 . S
H3495 C3504 0.950 . S
H3496 C3506 0.950 . S
H3497 C3508 0.950 . S
H3498 C3510 0.950 . S
H3499 C3511 0.950 . S
C3500 H3492 0.950 . S
C3500 C3501 1.386 . S
C3500 C3502 1.391 . S
C3501 C3500 1.386 . S
C3501 C3505 1.393 . S
C3502 H3494 0.950 . S
C3502 C3500 1.391 . S
C3502 C3503 1.400 . S
C3503 C3502 1.400 . S
C3503 C3504 1.398 . S
C3503 C3509 1.491 . S
C3504 H3495 0.950 . S
C3504 C3503 1.398 . S
C3504 C3505 1.391 . S
C3505 H3493 0.950 . S
C3505 C3501 1.393 . S
C3505 C3504 1.391 . S
C3506 H3496 0.950 . S
C3506 C3507 1.386 . S
C3506 C3508 1.391 . S
C3507 C3506 1.386 . S
C3507 C3511 1.393 . S
C3508 H3497 0.950 . S
C3508 C3506 1.391 . S
C3508 C3509 1.400 . S
C3509 C3503 1.491 . S
C3509 C3508 1.400 . S
C3509 C3510 1.398 . S
C3510 H3498 0.950 . S
C3510 C3509 1.398 . S
C3510 C3511 1.391 . S
C3511 H3499 0.950 . S
C3511 C3507 1.393 . S
C3511 C3510 1.391 . S
H3512 C3520 0.950 . S
H3513 C3525 0.976 . S
H3514 C3522 0.950 . S
H3515 C3524 0.950 . S
H3516 C3526 0.950 . S
H3517 C3528 0.950 . S
H3518 C3530 0.950 . S
H3519 C3531 0.950 . S
C3520 H3512 0.950 . S
C3520 C3521 1.386 . S
C3520 C3522 1.391 . S
C3521 C3520 1.386 . S
C3521 C3525 1.361 1_545 S
C3522 H3514 0.950 . S
C3522 C3520 1.391 . S
C3522 C3523 1.400 . S
C3523 C3522 1.400 . S
C3523 C3524 1.398 1_545 S
C3523 C3529 1.491 . S
C3524 H3515 0.950 . S
C3524 C3523 1.398 1_565 S
C3524 C3525 1.397 . S
C3525 H3513 0.976 . S
C3525 C3521 1.361 1_565 S
C3525 C3524 1.397 . S
C3526 H3516 0.950 . S
C3526 C3527 1.386 1_565 S
C3526 C3528 1.391 . S
C3527 C3526 1.386 1_545 S
C3527 C3531 1.393 . S
C3528 H3517 0.950 . S
C3528 C3526 1.391 . S
C3528 C3529 1.400 1_565 S
C3529 C3523 1.491 . S
C3529 C3528 1.400 1_545 S
C3529 C3530 1.398 . S
C3530 H3518 0.950 . S
C3530 C3529 1.398 . S
C3530 C3531 1.391 . S
C3531 H3519 0.950 . S
C3531 C3527 1.393 . S
C3531 C3530 1.391 . S
H3532 C3540 0.950 . S
H3533 C3545 0.950 . S
H3534 C3542 0.950 . S
H3535 C3544 0.950 . S
H3536 C3546 0.950 . S
H3537 C3548 0.950 . S
H3538 C3550 0.950 . S
H3539 C3551 0.950 . S
C3540 H3532 0.950 . S
C3540 C3541 1.386 . S
C3540 C3542 1.391 . S
C3541 C3540 1.386 . S
C3541 C3545 1.393 . S
C3542 H3534 0.950 . S
C3542 C3540 1.391 . S
C3542 C3543 1.400 . S
C3543 C3542 1.400 . S
C3543 C3544 1.398 . S
C3543 C3549 1.491 . S
C3544 H3535 0.950 . S
C3544 C3543 1.398 . S
C3544 C3545 1.391 . S
C3545 H3533 0.950 . S
C3545 C3541 1.393 . S
C3545 C3544 1.391 . S
C3546 H3536 0.950 . S
C3546 C3547 1.386 . S
C3546 C3548 1.391 . S
C3547 C3546 1.386 . S
C3547 C3551 1.393 . S
C3548 H3537 0.950 . S
C3548 C3546 1.391 . S
C3548 C3549 1.400 . S
C3549 C3543 1.491 . S
C3549 C3548 1.400 . S
C3549 C3550 1.398 . S
C3550 H3538 0.950 . S
C3550 C3549 1.398 . S
C3550 C3551 1.391 . S
C3551 H3539 0.950 . S
C3551 C3547 1.393 . S
C3551 C3550 1.391 . S
H3552 C3560 0.950 . S
H3553 C3565 0.950 . S
H3554 C3562 0.950 . S
H3555 C3564 0.950 . S
H3556 C3566 0.950 . S
H3557 C3568 0.950 . S
H3558 C3570 0.959 . S
H3559 C3571 0.950 . S
C3560 H3552 0.950 . S
C3560 C3561 1.386 . S
C3560 C3562 1.391 . S
C3561 C3560 1.386 . S
C3561 C3565 1.393 . S
C3562 H3554 0.950 . S
C3562 C3560 1.391 . S
C3562 C3563 1.400 . S
C3563 C3562 1.400 . S
C3563 C3564 1.398 . S
C3563 C3569 1.491 . S
C3564 H3555 0.950 . S
C3564 C3563 1.398 . S
C3564 C3565 1.391 . S
C3565 H3553 0.950 . S
C3565 C3561 1.393 . S
C3565 C3564 1.391 . S
C3566 H3556 0.950 . S
C3566 C3567 1.386 . S
C3566 C3568 1.391 . S
C3567 C3566 1.386 . S
C3567 C3571 1.393 1_554 S
C3568 H3557 0.950 . S
C3568 C3566 1.391 . S
C3568 C3569 1.400 . S
C3569 C3563 1.491 . S
C3569 C3568 1.400 . S
C3569 C3570 1.398 . S
C3570 H3558 0.959 . S
C3570 C3569 1.398 . S
C3570 C3571 1.391 1_554 S
C3571 H3559 0.950 . S
C3571 C3567 1.393 1_556 S
C3571 C3570 1.391 1_556 S
H3572 C3580 0.950 . S
H3573 C3585 0.950 . S
H3574 C3582 0.950 . S
H3575 C3584 0.950 . S
H3576 C3586 0.950 . S
H3577 C3588 0.950 . S
H3578 C3590 0.950 . S
H3579 C3591 0.950 . S
C3580 H3572 0.950 . S
C3580 C3581 1.386 . S
C3580 C3582 1.391 . S
C3581 C3580 1.386 . S
C3581 C3585 1.393 . S
C3582 H3574 0.950 . S
C3582 C3580 1.391 . S
C3582 C3583 1.400 . S
C3583 C3582 1.400 . S
C3583 C3584 1.398 . S
C3583 C3589 1.491 . S
C3584 H3575 0.950 . S
C3584 C3583 1.398 . S
C3584 C3585 1.391 . S
C3585 H3573 0.950 . S
C3585 C3581 1.393 . S
C3585 C3584 1.391 . S
C3586 H3576 0.950 . S
C3586 C3587 1.386 . S
C3586 C3588 1.391 . S
C3587 C3586 1.386 . S
C3587 C3591 1.393 . S
C3588 H3577 0.950 . S
C3588 C3586 1.391 . S
C3588 C3589 1.400 . S
C3589 C3583 1.491 . S
C3589 C3588 1.400 . S
C3589 C3590 1.398 . S
C3590 H3578 0.950 . S
C3590 C3589 1.398 . S
C3590 C3591 1.391 . S
C3591 H3579 0.950 . S
C3591 C3587 1.393 . S
C3591 C3590 1.391 . S
H3592 C3600 0.950 . S
H3593 C3605 0.950 . S
H3594 C3602 0.950 . S
H3595 C3604 0.950 . S
H3596 C3606 0.950 . S
H3597 C3608 0.950 . S
H3598 C3610 0.950 . S
H3599 C3611 0.950 . S
C3600 H3592 0.950 . S
C3600 C3601 1.386 . S
C3600 C3602 1.391 . S
C3601 C3600 1.386 . S
C3601 C3605 1.393 . S
C3602 H3594 0.950 . S
C3602 C3600 1.391 . S
C3602 C3603 1.400 . S
C3603 C3602 1.400 . S
C3603 C3604 1.398 . S
C3603 C3609 1.491 . S
C3604 H3595 0.950 . S
C3604 C3603 1.398 . S
C3604 C3605 1.391 . S
C3605 H3593 0.950 . S
C3605 C3601 1.393 . S
C3605 C3604 1.391 . S
C3606 H3596 0.950 . S
C3606 C3607 1.386 . S
C3606 C3608 1.391 . S
C3607 C3606 1.386 . S
C3607 C3611 1.393 . S
C3608 H3597 0.950 . S
C3608 C3606 1.391 . S
C3608 C3609 1.400 . S
C3609 C3603 1.491 . S
C3609 C3608 1.400 . S
C3609 C3610 1.398 . S
C3610 H3598 0.950 . S
C3610 C3609 1.398 . S
C3610 C3611 1.391 . S
C3611 H3599 0.950 . S
C3611 C3607 1.393 . S
C3611 C3610 1.391 . S
H3612 C3620 0.950 . S
H3613 C3625 0.950 . S
H3614 C3622 0.950 . S
H3615 C3624 0.950 . S
H3616 C3626 0.950 . S
H3617 C3628 0.950 . S
H3618 C3630 0.950 . S
H3619 C3631 0.950 . S
C3620 H3612 0.950 . S
C3620 C3621 1.386 . S
C3620 C3622 1.391 . S
C3621 C3620 1.386 . S
C3621 C3625 1.393 . S
C3622 H3614 0.950 . S
C3622 C3620 1.391 . S
C3622 C3623 1.400 . S
C3623 C3622 1.400 . S
C3623 C3624 1.398 . S
C3623 C3629 1.491 . S
C3624 H3615 0.950 . S
C3624 C3623 1.398 . S
C3624 C3625 1.391 . S
C3625 H3613 0.950 . S
C3625 C3621 1.393 . S
C3625 C3624 1.391 . S
C3626 H3616 0.950 . S
C3626 C3627 1.386 . S
C3626 C3628 1.391 . S
C3627 C3626 1.386 . S
C3627 C3631 1.393 . S
C3628 H3617 0.950 . S
C3628 C3626 1.391 . S
C3628 C3629 1.400 . S
C3629 C3623 1.491 . S
C3629 C3628 1.400 . S
C3629 C3630 1.398 . S
C3630 H3618 0.950 . S
C3630 C3629 1.398 . S
C3630 C3631 1.391 . S
C3631 H3619 0.950 . S
C3631 C3627 1.393 . S
C3631 C3630 1.391 . S
H3632 C3640 0.950 . S
H3633 C3645 0.950 . S
H3634 C3642 0.950 . S
H3635 C3644 0.950 . S
H3636 C3646 0.950 . S
H3637 C3648 0.950 . S
H3638 C3650 0.950 . S
H3639 C3651 0.950 . S
C3640 H3632 0.950 . S
C3640 C3641 1.386 . S
C3640 C3642 1.391 . S
C3641 C3640 1.386 . S
C3641 C3645 1.393 . S
C3642 H3634 0.950 . S
C3642 C3640 1.391 . S
C3642 C3643 1.400 . S
C3643 C3642 1.400 . S
C3643 C3644 1.398 . S
C3643 C3649 1.491 . S
C3644 H3635 0.950 . S
C3644 C3643 1.398 . S
C3644 C3645 1.391 . S
C3645 H3633 0.950 . S
C3645 C3641 1.393 . S
C3645 C3644 1.391 . S
C3646 H3636 0.950 . S
C3646 C3647 1.386 . S
C3646 C3648 1.391 . S
C3647 C3646 1.386 . S
C3647 C3651 1.393 . S
C3648 H3637 0.950 . S
C3648 C3646 1.391 . S
C3648 C3649 1.400 . S
C3649 C3643 1.491 . S
C3649 C3648 1.400 . S
C3649 C3650 1.398 . S
C3650 H3638 0.950 . S
C3650 C3649 1.398 . S
C3650 C3651 1.391 . S
C3651 H3639 0.950 . S
C3651 C3647 1.393 . S
C3651 C3650 1.391 . S
H3652 C3660 0.950 . S
H3653 C3665 0.950 . S
H3654 C3662 0.950 . S
H3655 C3664 0.950 . S
H3656 C3666 0.950 . S
H3657 C3668 0.950 . S
H3658 C3670 0.950 . S
H3659 C3671 0.950 . S
C3660 H3652 0.950 . S
C3660 C3661 1.386 . S
C3660 C3662 1.391 . S
C3661 C3660 1.386 . S
C3661 C3665 1.393 . S
C3662 H3654 0.950 . S
C3662 C3660 1.391 . S
C3662 C3663 1.400 . S
C3663 C3662 1.400 . S
C3663 C3664 1.398 . S
C3663 C3669 1.491 . S
C3664 H3655 0.950 . S
C3664 C3663 1.398 . S
C3664 C3665 1.391 . S
C3665 H3653 0.950 . S
C3665 C3661 1.393 . S
C3665 C3664 1.391 . S
C3666 H3656 0.950 . S
C3666 C3667 1.386 . S
C3666 C3668 1.391 . S
C3667 C3666 1.386 . S
C3667 C3671 1.393 . S
C3668 H3657 0.950 . S
C3668 C3666 1.391 . S
C3668 C3669 1.400 . S
C3669 C3663 1.491 . S
C3669 C3668 1.400 . S
C3669 C3670 1.398 . S
C3670 H3658 0.950 . S
C3670 C3669 1.398 . S
C3670 C3671 1.391 . S
C3671 H3659 0.950 . S
C3671 C3667 1.393 . S
C3671 C3670 1.391 . S
H3672 C3680 0.950 . S
H3673 C3685 0.950 . S
H3674 C3682 0.950 . S
H3675 C3684 0.950 . S
H3676 C3686 0.950 . S
H3677 C3688 0.950 . S
H3678 C3690 0.950 . S
H3679 C3691 0.950 . S
C3680 H3672 0.950 . S
C3680 C3681 1.386 . S
C3680 C3682 1.391 . S
C3681 C3680 1.386 . S
C3681 C3685 1.393 . S
C3682 H3674 0.950 . S
C3682 C3680 1.391 . S
C3682 C3683 1.400 . S
C3683 C3682 1.400 . S
C3683 C3684 1.398 . S
C3683 C3689 1.491 . S
C3684 H3675 0.950 . S
C3684 C3683 1.398 . S
C3684 C3685 1.391 . S
C3685 H3673 0.950 . S
C3685 C3681 1.393 . S
C3685 C3684 1.391 . S
C3686 H3676 0.950 . S
C3686 C3687 1.386 . S
C3686 C3688 1.391 . S
C3687 C3686 1.386 . S
C3687 C3691 1.393 . S
C3688 H3677 0.950 . S
C3688 C3686 1.391 . S
C3688 C3689 1.400 . S
C3689 C3683 1.491 . S
C3689 C3688 1.400 . S
C3689 C3690 1.398 . S
C3690 H3678 0.950 . S
C3690 C3689 1.398 . S
C3690 C3691 1.391 . S
C3691 H3679 0.950 . S
C3691 C3687 1.393 . S
C3691 C3690 1.391 . S
H3692 C3700 0.950 . S
H3693 C3705 0.950 . S
H3694 C3702 0.950 . S
H3695 C3704 0.950 . S
H3696 C3706 0.950 . S
H3697 C3708 0.950 . S
H3698 C3710 0.950 . S
H3699 C3711 0.950 . S
C3700 H3692 0.950 . S
C3700 C3701 1.386 . S
C3700 C3702 1.391 . S
C3701 C3700 1.386 . S
C3701 C3705 1.393 . S
C3702 H3694 0.950 . S
C3702 C3700 1.391 . S
C3702 C3703 1.400 . S
C3703 C3702 1.400 . S
C3703 C3704 1.398 . S
C3703 C3709 1.491 . S
C3704 H3695 0.950 . S
C3704 C3703 1.398 . S
C3704 C3705 1.391 . S
C3705 H3693 0.950 . S
C3705 C3701 1.393 . S
C3705 C3704 1.391 . S
C3706 H3696 0.950 . S
C3706 C3707 1.386 . S
C3706 C3708 1.391 . S
C3707 C3706 1.386 . S
C3707 C3711 1.393 . S
C3708 H3697 0.950 . S
C3708 C3706 1.391 . S
C3708 C3709 1.400 . S
C3709 C3703 1.491 . S
C3709 C3708 1.400 . S
C3709 C3710 1.398 . S
C3710 H3698 0.950 . S
C3710 C3709 1.398 . S
C3710 C3711 1.391 . S
C3711 H3699 0.950 . S
C3711 C3707 1.393 . S
C3711 C3710 1.391 . S
H3712 C3720 0.950 . S
H3713 C3725 0.950 . S
H3714 C3722 0.950 . S
H3715 C3724 0.950 . S
H3716 C3726 0.950 . S
H3717 C3728 0.950 . S
H3718 C3730 0.950 . S
H3719 C3731 0.950 . S
C3720 H3712 0.950 . S
C3720 C3721 1.386 . S
C3720 C3722 1.391 . S
C3721 C3720 1.386 . S
C3721 C3725 1.393 . S
C3722 H3714 0.950 . S
C3722 C3720 1.391 . S
C3722 C3723 1.400 . S
C3723 C3722 1.400 . S
C3723 C3724 1.398 . S
C3723 C3729 1.491 . S
C3724 H3715 0.950 . S
C3724 C3723 1.398 . S
C3724 C3725 1.391 . S
C3725 H3713 0.950 . S
C3725 C3721 1.393 . S
C3725 C3724 1.391 . S
C3726 H3716 0.950 . S
C3726 C3727 1.386 . S
C3726 C3728 1.391 . S
C3727 C3726 1.386 . S
C3727 C3731 1.393 . S
C3728 H3717 0.950 . S
C3728 C3726 1.391 . S
C3728 C3729 1.400 . S
C3729 C3723 1.491 . S
C3729 C3728 1.400 . S
C3729 C3730 1.398 . S
C3730 H3718 0.950 . S
C3730 C3729 1.398 . S
C3730 C3731 1.391 . S
C3731 H3719 0.950 . S
C3731 C3727 1.393 . S
C3731 C3730 1.391 . S
H3732 C3740 0.950 . S
H3733 C3745 0.950 . S
H3734 C3742 0.950 . S
H3735 C3744 0.950 . S
H3736 C3746 0.950 . S
H3737 C3748 0.950 . S
H3738 C3750 0.950 . S
H3739 C3751 0.950 . S
C3740 H3732 0.950 . S
C3740 C3741 1.386 . S
C3740 C3742 1.391 . S
C3741 C3740 1.386 . S
C3741 C3745 1.393 . S
C3742 H3734 0.950 . S
C3742 C3740 1.391 . S
C3742 C3743 1.400 . S
C3743 C3742 1.400 . S
C3743 C3744 1.398 . S
C3743 C3749 1.491 . S
C3744 H3735 0.950 . S
C3744 C3743 1.398 . S
C3744 C3745 1.391 . S
C3745 H3733 0.950 . S
C3745 C3741 1.393 . S
C3745 C3744 1.391 . S
C3746 H3736 0.950 . S
C3746 C3747 1.386 . S
C3746 C3748 1.391 . S
C3747 C3746 1.386 . S
C3747 C3751 1.393 . S
C3748 H3737 0.950 . S
C3748 C3746 1.391 . S
C3748 C3749 1.400 . S
C3749 C3743 1.491 . S
C3749 C3748 1.400 . S
C3749 C3750 1.398 . S
C3750 H3738 0.950 . S
C3750 C3749 1.398 . S
C3750 C3751 1.391 . S
C3751 H3739 0.950 . S
C3751 C3747 1.393 . S
C3751 C3750 1.391 . S
H3752 C3760 0.950 . S
H3753 C3765 0.950 . S
H3754 C3762 0.950 . S
H3755 C3764 0.950 . S
H3756 C3766 0.950 . S
H3757 C3768 0.950 . S
H3758 C3770 0.950 . S
H3759 C3771 0.950 . S
C3760 H3752 0.950 . S
C3760 C3761 1.386 . S
C3760 C3762 1.391 . S
C3761 C3760 1.386 . S
C3761 C3765 1.393 1_556 S
C3762 H3754 0.950 . S
C3762 C3760 1.391 . S
C3762 C3763 1.400 1_556 S
C3763 C3762 1.400 1_554 S
C3763 C3764 1.398 . S
C3763 C3769 1.491 . S
C3764 H3755 0.950 . S
C3764 C3763 1.398 . S
C3764 C3765 1.391 . S
C3765 H3753 0.950 . S
C3765 C3761 1.393 1_554 S
C3765 C3764 1.391 . S
C3766 H3756 0.950 . S
C3766 C3767 1.386 . S
C3766 C3768 1.391 . S
C3767 C3766 1.386 . S
C3767 C3771 1.393 1_554 S
C3768 H3757 0.950 . S
C3768 C3766 1.391 . S
C3768 C3769 1.400 . S
C3769 C3763 1.491 . S
C3769 C3768 1.400 . S
C3769 C3770 1.398 1_554 S
C3770 H3758 0.950 . S
C3770 C3769 1.398 1_556 S
C3770 C3771 1.391 . S
C3771 H3759 0.950 . S
C3771 C3767 1.393 1_556 S
C3771 C3770 1.391 . S
H3772 C3780 0.950 . S
H3773 C3785 0.950 . S
H3774 C3782 0.950 . S
H3775 C3784 0.950 . S
H3776 C3786 0.950 . S
H3777 C3788 0.950 . S
H3778 C3790 0.950 . S
H3779 C3791 0.950 . S
C3780 H3772 0.950 . S
C3780 C3781 1.386 . S
C3780 C3782 1.391 . S
C3781 C3780 1.386 . S
C3781 C3785 1.393 . S
C3782 H3774 0.950 . S
C3782 C3780 1.391 . S
C3782 C3783 1.400 . S
C3783 C3782 1.400 . S
C3783 C3784 1.398 . S
C3783 C3789 1.491 . S
C3784 H3775 0.950 . S
C3784 C3783 1.398 . S
C3784 C3785 1.391 . S
C3785 H3773 0.950 . S
C3785 C3781 1.393 . S
C3785 C3784 1.391 . S
C3786 H3776 0.950 . S
C3786 C3787 1.386 . S
C3786 C3788 1.391 . S
C3787 C3786 1.386 . S
C3787 C3791 1.393 . S
C3788 H3777 0.950 . S
C3788 C3786 1.391 . S
C3788 C3789 1.400 . S
C3789 C3783 1.491 . S
C3789 C3788 1.400 . S
C3789 C3790 1.398 . S
C3790 H3778 0.950 . S
C3790 C3789 1.398 . S
C3790 C3791 1.391 . S
C3791 H3779 0.950 . S
C3791 C3787 1.393 . S
C3791 C3790 1.391 . S
H3792 C3800 0.950 . S
H3793 C3805 0.950 . S
H3794 C3802 0.950 . S
H3795 C3804 0.950 . S
H3796 C3806 0.950 . S
H3797 C3808 0.950 . S
H3798 C3810 0.950 . S
H3799 C3811 0.950 . S
C3800 H3792 0.950 . S
C3800 C3801 1.386 . S
C3800 C3802 1.391 . S
C3801 C3800 1.386 . S
C3801 C3805 1.393 . S
C3802 H3794 0.950 . S
C3802 C3800 1.391 . S
C3802 C3803 1.400 . S
C3803 C3802 1.400 . S
C3803 C3804 1.398 . S
C3803 C3809 1.491 . S
C3804 H3795 0.950 . S
C3804 C3803 1.398 . S
C3804 C3805 1.391 . S
C3805 H3793 0.950 . S
C3805 C3801 1.393 . S
C3805 C3804 1.391 . S
C3806 H3796 0.950 . S
C3806 C3807 1.386 . S
C3806 C3808 1.391 . S
C3807 C3806 1.386 . S
C3807 C3811 1.393 . S
C3808 H3797 0.950 . S
C3808 C3806 1.391 . S
C3808 C3809 1.400 . S
C3809 C3803 1.491 . S
C3809 C3808 1.400 . S
C3809 C3810 1.398 . S
C3810 H3798 0.950 . S
C3810 C3809 1.398 . S
C3810 C3811 1.391 . S
C3811 H3799 0.950 . S
C3811 C3807 1.393 . S
C3811 C3810 1.391 . S
H3812 C3820 0.950 . S
H3813 C3825 0.950 . S
H3814 C3822 0.950 . S
H3815 C3824 0.950 . S
H3816 C3826 0.950 . S
H3817 C3828 0.950 . S
H3818 C3830 0.950 . S
H3819 C3831 0.950 . S
C3820 H3812 0.950 . S
C3820 C3821 1.386 . S
C3820 C3822 1.391 . S
C3821 C3820 1.386 . S
C3821 C3825 1.393 . S
C3822 H3814 0.950 . S
C3822 C3820 1.391 . S
C3822 C3823 1.400 . S
C3823 C3822 1.400 . S
C3823 C3824 1.398 . S
C3823 C3829 1.491 . S
C3824 H3815 0.950 . S
C3824 C3823 1.398 . S
C3824 C3825 1.391 . S
C3825 H3813 0.950 . S
C3825 C3821 1.393 . S
C3825 C3824 1.391 . S
C3826 H3816 0.950 . S
C3826 C3827 1.386 . S
C3826 C3828 1.391 . S
C3827 C3826 1.386 . S
C3827 C3831 1.393 . S
C3828 H3817 0.950 . S
C3828 C3826 1.391 . S
C3828 C3829 1.400 . S
C3829 C3823 1.491 . S
C3829 C3828 1.400 . S
C3829 C3830 1.398 . S
C3830 H3818 0.950 . S
C3830 C3829 1.398 . S
C3830 C3831 1.391 . S
C3831 H3819 0.950 . S
C3831 C3827 1.393 . S
C3831 C3830 1.391 . S
H3832 C3840 0.950 . S
H3833 C3845 0.950 . S
H3834 C3842 0.950 . S
H3835 C3844 0.950 . S
H3836 C3846 0.950 . S
H3837 C3848 0.950 . S
H3838 C3850 0.950 . S
H3839 C3851 0.950 . S
C3840 H3832 0.950 . S
C3840 C3841 1.386 . S
C3840 C3842 1.391 . S
C3841 C3840 1.386 . S
C3841 C3845 1.393 . S
C3842 H3834 0.950 . S
C3842 C3840 1.391 . S
C3842 C3843 1.400 . S
C3843 C3842 1.400 . S
C3843 C3844 1.398 . S
C3843 C3849 1.491 . S
C3844 H3835 0.950 . S
C3844 C3843 1.398 . S
C3844 C3845 1.391 . S
C3845 H3833 0.950 . S
C3845 C3841 1.393 . S
C3845 C3844 1.391 . S
C3846 H3836 0.950 . S
C3846 C3847 1.386 . S
C3846 C3848 1.391 . S
C3847 C3846 1.386 . S
C3847 C3851 1.393 . S
C3848 H3837 0.950 . S
C3848 C3846 1.391 . S
C3848 C3849 1.400 . S
C3849 C3843 1.491 . S
C3849 C3848 1.400 . S
C3849 C3850 1.398 . S
C3850 H3838 0.950 . S
C3850 C3849 1.398 . S
C3850 C3851 1.391 . S
C3851 H3839 0.950 . S
C3851 C3847 1.393 . S
C3851 C3850 1.391 . S
H3852 C3860 0.950 . S
H3853 C3865 0.950 . S
H3854 C3862 0.950 . S
H3855 C3864 0.950 . S
H3856 C3866 0.950 . S
H3857 C3868 0.950 . S
H3858 C3870 0.950 . S
H3859 C3871 0.950 . S
C3860 H3852 0.950 . S
C3860 C3861 1.386 . S
C3860 C3862 1.391 . S
C3861 C3860 1.386 . S
C3861 C3865 1.393 . S
C3862 H3854 0.950 . S
C3862 C3860 1.391 . S
C3862 C3863 1.400 . S
C3863 C3862 1.400 . S
C3863 C3864 1.398 . S
C3863 C3869 1.491 . S
C3864 H3855 0.950 . S
C3864 C3863 1.398 . S
C3864 C3865 1.391 . S
C3865 H3853 0.950 . S
C3865 C3861 1.393 . S
C3865 C3864 1.391 . S
C3866 H3856 0.950 . S
C3866 C3867 1.386 . S
C3866 C3868 1.391 . S
C3867 C3866 1.386 . S
C3867 C3871 1.393 . S
C3868 H3857 0.950 . S
C3868 C3866 1.391 . S
C3868 C3869 1.400 . S
C3869 C3863 1.491 . S
C3869 C3868 1.400 . S
C3869 C3870 1.398 . S
C3870 H3858 0.950 . S
C3870 C3869 1.398 . S
C3870 C3871 1.391 . S
C3871 H3859 0.950 . S
C3871 C3867 1.393 . S
C3871 C3870 1.391 . S
H3872 C3880 0.950 . S
H3873 C3885 0.950 . S
H3874 C3882 0.950 . S
H3875 C3884 0.950 . S
H3876 C3886 0.950 . S
H3877 C3888 0.950 . S
H3878 C3890 0.950 . S
H3879 C3891 0.950 . S
C3880 H3872 0.950 . S
C3880 C3881 1.386 . S
C3880 C3882 1.391 . S
C3881 C3880 1.386 . S
C3881 C3885 1.393 . S
C3882 H3874 0.950 . S
C3882 C3880 1.391 . S
C3882 C3883 1.400 . S
C3883 C3882 1.400 . S
C3883 C3884 1.398 . S
C3883 C3889 1.491 . S
C3884 H3875 0.950 . S
C3884 C3883 1.398 . S
C3884 C3885 1.391 . S
C3885 H3873 0.950 . S
C3885 C3881 1.393 . S
C3885 C3884 1.391 . S
C3886 H3876 0.950 . S
C3886 C3887 1.386 . S
C3886 C3888 1.391 . S
C3887 C3886 1.386 . S
C3887 C3891 1.393 . S
C3888 H3877 0.950 . S
C3888 C3886 1.391 . S
C3888 C3889 1.400 . S
C3889 C3883 1.491 . S
C3889 C3888 1.400 . S
C3889 C3890 1.398 . S
C3890 H3878 0.950 . S
C3890 C3889 1.398 . S
C3890 C3891 1.391 . S
C3891 H3879 0.950 . S
C3891 C3887 1.393 . S
C3891 C3890 1.391 . S
H3892 C3900 0.950 . S
H3893 C3905 0.950 . S
H3894 C3902 0.950 . S
H3895 C3904 0.950 . S
H3896 C3906 0.950 . S
H3897 C3908 0.950 . S
H3898 C3910 0.950 . S
H3899 C3911 0.950 . S
C3900 H3892 0.950 . S
C3900 C3901 1.386 . S
C3900 C3902 1.391 . S
C3901 C3900 1.386 . S
C3901 C3905 1.393 . S
C3902 H3894 0.950 . S
C3902 C3900 1.391 . S
C3902 C3903 1.400 . S
C3903 C3902 1.400 . S
C3903 C3904 1.398 . S
C3903 C3909 1.491 . S
C3904 H3895 0.950 . S
C3904 C3903 1.398 . S
C3904 C3905 1.391 . S
C3905 H3893 0.950 . S
C3905 C3901 1.393 . S
C3905 C3904 1.391 . S
C3906 H3896 0.950 . S
C3906 C3907 1.386 . S
C3906 C3908 1.391 . S
C3907 C3906 1.386 . S
C3907 C3911 1.393 . S
C3908 H3897 0.950 . S
C3908 C3906 1.391 . S
C3908 C3909 1.400 . S
C3909 C3903 1.491 . S
C3909 C3908 1.400 . S
C3909 C3910 1.398 . S
C3910 H3898 0.950 . S
C3910 C3909 1.398 . S
C3910 C3911 1.391 . S
C3911 H3899 0.950 . S
C3911 C3907 1.393 . S
C3911 C3910 1.391 . S
H3912 C3920 0.950 . S
H3913 C3925 0.950 . S
H3914 C3922 0.950 . S
H3915 C3924 0.950 . S
H3916 C3926 0.950 . S
H3917 C3928 0.950 . S
H3918 C3930 0.950 . S
H3919 C3931 0.950 . S
C3920 H3912 0.950 . S
C3920 C3921 1.386 . S
C3920 C3922 1.391 . S
C3921 C3920 1.386 . S
C3921 C3925 1.393 . S
C3922 H3914 0.950 . S
C3922 C3920 1.391 . S
C3922 C3923 1.400 . S
C3923 C3922 1.400 . S
C3923 C3924 1.398 . S
C3923 C3929 1.491 . S
C3924 H3915 0.950 . S
C3924 C3923 1.398 . S
C3924 C3925 1.391 . S
C3925 H3913 0.950 . S
C3925 C3921 1.393 . S
C3925 C3924 1.391 . S
C3926 H3916 0.950 . S
C3926 C3927 1.386 . S
C3926 C3928 1.391 . S
C3927 C3926 1.386 . S
C3927 C3931 1.393 . S
C3928 H3917 0.950 . S
C3928 C3926 1.391 . S
C3928 C3929 1.400 . S
C3929 C3923 1.491 . S
C3929 C3928 1.400 . S
C3929 C3930 1.398 . S
C3930 H3918 0.950 . S
C3930 C3929 1.398 . S
C3930 C3931 1.391 . S
C3931 H3919 0.950 . S
C3931 C3927 1.393 . S
C3931 C3930 1.391 . S
H3932 C3940 0.950 . S
H3933 C3945 0.950 . S
H3934 C3942 0.950 . S
H3935 C3944 0.950 . S
H3936 C3946 0.950 . S
H3937 C3948 0.950 . S
H3938 C3950 0.950 . S
H3939 C3951 0.950 . S
C3940 H3932 0.950 . S
C3940 C3941 1.386 . S
C3940 C3942 1.391 . S
C3941 C3940 1.386 . S
C3941 C3945 1.393 . S
C3942 H3934 0.950 . S
C3942 C3940 1.391 . S
C3942 C3943 1.400 . S
C3943 C3942 1.400 . S
C3943 C3944 1.398 . S
C3943 C3949 1.491 . S
C3944 H3935 0.950 . S
C3944 C3943 1.398 . S
C3944 C3945 1.391 . S
C3945 H3933 0.950 . S
C3945 C3941 1.393 . S
C3945 C3944 1.391 . S
C3946 H3936 0.950 . S
C3946 C3947 1.386 . S
C3946 C3948 1.391 . S
C3947 C3946 1.386 . S
C3947 C3951 1.393 . S
C3948 H3937 0.950 . S
C3948 C3946 1.391 . S
C3948 C3949 1.400 . S
C3949 C3943 1.491 . S
C3949 C3948 1.400 . S
C3949 C3950 1.398 . S
C3950 H3938 0.950 . S
C3950 C3949 1.398 . S
C3950 C3951 1.391 . S
C3951 H3939 0.950 . S
C3951 C3947 1.393 . S
C3951 C3950 1.391 . S
H3952 C3960 0.950 . S
H3953 C3965 0.950 . S
H3954 C3962 0.950 . S
H3955 C3964 0.950 . S
H3956 C3966 0.950 . S
H3957 C3968 0.950 . S
H3958 C3970 0.950 . S
H3959 C3971 0.950 . S
C3960 H3952 0.950 . S
C3960 C3961 1.386 . S
C3960 C3962 1.391 . S
C3961 C3960 1.386 . S
C3961 C3965 1.393 . S
C3962 H3954 0.950 . S
C3962 C3960 1.391 . S
C3962 C3963 1.400 . S
C3963 C3962 1.400 . S
C3963 C3964 1.398 . S
C3963 C3969 1.491 . S
C3964 H3955 0.950 . S
C3964 C3963 1.398 . S
C3964 C3965 1.391 . S
C3965 H3953 0.950 . S
C3965 C3961 1.393 . S
C3965 C3964 1.391 . S
C3966 H3956 0.950 . S
C3966 C3967 1.386 . S
C3966 C3968 1.391 . S
C3967 C3966 1.386 . S
C3967 C3971 1.393 . S
C3968 H3957 0.950 . S
C3968 C3966 1.391 . S
C3968 C3969 1.400 . S
C3969 C3963 1.491 . S
C3969 C3968 1.400 . S
C3969 C3970 1.398 . S
C3970 H3958 0.950 . S
C3970 C3969 1.398 . S
C3970 C3971 1.391 . S
C3971 H3959 0.950 . S
C3971 C3967 1.393 . S
C3971 C3970 1.391 . S
H3972 C3980 0.950 . S
H3973 C3985 0.950 . S
H3974 C3982 0.950 . S
H3975 C3984 0.950 . S
H3976 C3986 0.950 . S
H3977 C3988 0.950 . S
H3978 C3990 0.950 . S
H3979 C3991 0.950 . S
C3980 H3972 0.950 . S
C3980 C3981 1.386 . S
C3980 C3982 1.391 . S
C3981 C3980 1.386 . S
C3981 C3985 1.393 . S
C3982 H3974 0.950 . S
C3982 C3980 1.391 . S
C3982 C3983 1.400 . S
C3983 C3982 1.400 . S
C3983 C3984 1.398 . S
C3983 C3989 1.491 . S
C3984 H3975 0.950 . S
C3984 C3983 1.398 . S
C3984 C3985 1.391 . S
C3985 H3973 0.950 . S
C3985 C3981 1.393 . S
C3985 C3984 1.391 . S
C3986 H3976 0.950 . S
C3986 C3987 1.386 . S
C3986 C3988 1.391 . S
C3987 C3986 1.386 . S
C3987 C3991 1.393 . S
C3988 H3977 0.950 . S
C3988 C3986 1.391 . S
C3988 C3989 1.400 . S
C3989 C3983 1.491 . S
C3989 C3988 1.400 . S
C3989 C3990 1.398 . S
C3990 H3978 0.950 . S
C3990 C3989 1.398 . S
C3990 C3991 1.391 . S
C3991 H3979 0.950 . S
C3991 C3987 1.393 . S
C3991 C3990 1.391 . S
H3992 C4000 0.950 . S
H3993 C4005 0.950 . S
H3994 C4002 0.950 . S
H3995 C4004 0.950 . S
H3996 C4006 0.950 . S
H3997 C4008 0.950 . S
H3998 C4010 0.950 . S
H3999 C4011 0.950 . S
C4000 H3992 0.950 . S
C4000 C4001 1.386 . S
C4000 C4002 1.391 . S
C4001 C4000 1.386 . S
C4001 C4005 1.393 . S
C4002 H3994 0.950 . S
C4002 C4000 1.391 . S
C4002 C4003 1.400 . S
C4003 C4002 1.400 . S
C4003 C4004 1.398 . S
C4003 C4009 1.491 . S
C4004 H3995 0.950 . S
C4004 C4003 1.398 . S
C4004 C4005 1.391 . S
C4005 H3993 0.950 . S
C4005 C4001 1.393 . S
C4005 C4004 1.391 . S
C4006 H3996 0.950 . S
C4006 C4007 1.386 . S
C4006 C4008 1.391 . S
C4007 C4006 1.386 . S
C4007 C4011 1.393 . S
C4008 H3997 0.950 . S
C4008 C4006 1.391 . S
C4008 C4009 1.400 . S
C4009 C4003 1.491 . S
C4009 C4008 1.400 . S
C4009 C4010 1.398 . S
C4010 H3998 0.950 . S
C4010 C4009 1.398 . S
C4010 C4011 1.391 . S
C4011 H3999 0.950 . S
C4011 C4007 1.393 . S
C4011 C4010 1.391 . S
H4012 C4020 0.950 . S
H4013 C4025 0.950 . S
H4014 C4022 0.950 . S
H4015 C4024 0.950 . S
H4016 C4026 0.950 . S
H4017 C4028 0.950 . S
H4018 C4030 0.950 . S
H4019 C4031 0.950 . S
C4020 H4012 0.950 . S
C4020 C4021 1.386 . S
C4020 C4022 1.391 . S
C4021 C4020 1.386 . S
C4021 C4025 1.393 . S
C4022 H4014 0.950 . S
C4022 C4020 1.391 . S
C4022 C4023 1.400 . S
C4023 C4022 1.400 . S
C4023 C4024 1.398 . S
C4023 C4029 1.491 . S
C4024 H4015 0.950 . S
C4024 C4023 1.398 . S
C4024 C4025 1.391 . S
C4025 H4013 0.950 . S
C4025 C4021 1.393 . S
C4025 C4024 1.391 . S
C4026 H4016 0.950 . S
C4026 C4027 1.386 . S
C4026 C4028 1.391 . S
C4027 C4026 1.386 . S
C4027 C4031 1.393 . S
C4028 H4017 0.950 . S
C4028 C4026 1.391 . S
C4028 C4029 1.400 . S
C4029 C4023 1.491 . S
C4029 C4028 1.400 . S
C4029 C4030 1.398 . S
C4030 H4018 0.950 . S
C4030 C4029 1.398 . S
C4030 C4031 1.391 . S
C4031 H4019 0.950 . S
C4031 C4027 1.393 . S
C4031 C4030 1.391 . S
H4032 C4040 0.950 . S
H4033 C4045 0.950 . S
H4034 C4042 0.950 . S
H4035 C4044 0.950 . S
H4036 C4046 0.950 . S
H4037 C4048 0.950 . S
H4038 C4050 0.950 . S
H4039 C4051 0.950 . S
C4040 H4032 0.950 . S
C4040 C4041 1.386 . S
C4040 C4042 1.391 . S
C4041 C4040 1.386 . S
C4041 C4045 1.393 . S
C4042 H4034 0.950 . S
C4042 C4040 1.391 . S
C4042 C4043 1.400 . S
C4043 C4042 1.400 . S
C4043 C4044 1.398 . S
C4043 C4049 1.491 . S
C4044 H4035 0.950 . S
C4044 C4043 1.398 . S
C4044 C4045 1.391 . S
C4045 H4033 0.950 . S
C4045 C4041 1.393 . S
C4045 C4044 1.391 . S
C4046 H4036 0.950 . S
C4046 C4047 1.386 . S
C4046 C4048 1.391 . S
C4047 C4046 1.386 . S
C4047 C4051 1.393 . S
C4048 H4037 0.950 . S
C4048 C4046 1.391 . S
C4048 C4049 1.400 . S
C4049 C4043 1.491 . S
C4049 C4048 1.400 . S
C4049 C4050 1.398 . S
C4050 H4038 0.950 . S
C4050 C4049 1.398 . S
C4050 C4051 1.391 . S
C4051 H4039 0.950 . S
C4051 C4047 1.393 . S
C4051 C4050 1.391 . S
H4052 C4060 0.950 . S
H4053 C4065 0.950 . S
H4054 C4062 0.950 . S
H4055 C4064 0.950 . S
H4056 C4066 0.950 . S
H4057 C4068 0.950 . S
H4058 C4070 0.950 . S
H4059 C4071 0.950 . S
C4060 H4052 0.950 . S
C4060 C4061 1.386 . S
C4060 C4062 1.391 . S
C4061 C4060 1.386 . S
C4061 C4065 1.393 . S
C4062 H4054 0.950 . S
C4062 C4060 1.391 . S
C4062 C4063 1.400 . S
C4063 C4062 1.400 . S
C4063 C4064 1.398 . S
C4063 C4069 1.491 . S
C4064 H4055 0.950 . S
C4064 C4063 1.398 . S
C4064 C4065 1.391 . S
C4065 H4053 0.950 . S
C4065 C4061 1.393 . S
C4065 C4064 1.391 . S
C4066 H4056 0.950 . S
C4066 C4067 1.386 . S
C4066 C4068 1.391 . S
C4067 C4066 1.386 . S
C4067 C4071 1.393 . S
C4068 H4057 0.950 . S
C4068 C4066 1.391 . S
C4068 C4069 1.400 . S
C4069 C4063 1.491 . S
C4069 C4068 1.400 . S
C4069 C4070 1.398 . S
C4070 H4058 0.950 . S
C4070 C4069 1.398 . S
C4070 C4071 1.391 . S
C4071 H4059 0.950 . S
C4071 C4067 1.393 . S
C4071 C4070 1.391 . S
H4072 C4080 0.950 . S
H4073 C4085 0.950 . S
H4074 C4082 0.950 . S
H4075 C4084 0.950 . S
H4076 C4086 0.950 . S
H4077 C4088 0.950 . S
H4078 C4090 0.950 . S
H4079 C4091 0.950 . S
C4080 H4072 0.950 . S
C4080 C4081 1.386 . S
C4080 C4082 1.391 . S
C4081 C4080 1.386 . S
C4081 C4085 1.393 . S
C4082 H4074 0.950 . S
C4082 C4080 1.391 . S
C4082 C4083 1.400 . S
C4083 C4082 1.400 . S
C4083 C4084 1.398 . S
C4083 C4089 1.491 . S
C4084 H4075 0.950 . S
C4084 C4083 1.398 . S
C4084 C4085 1.391 . S
C4085 H4073 0.950 . S
C4085 C4081 1.393 . S
C4085 C4084 1.391 . S
C4086 H4076 0.950 . S
C4086 C4087 1.386 . S
C4086 C4088 1.391 . S
C4087 C4086 1.386 . S
C4087 C4091 1.393 . S
C4088 H4077 0.950 . S
C4088 C4086 1.391 . S
C4088 C4089 1.400 . S
C4089 C4083 1.491 . S
C4089 C4088 1.400 . S
C4089 C4090 1.398 . S
C4090 H4078 0.950 . S
C4090 C4089 1.398 . S
C4090 C4091 1.391 . S
C4091 H4079 0.950 . S
C4091 C4087 1.393 . S
C4091 C4090 1.391 . S
H4092 C4100 0.934 1_556 S
H4093 C4105 0.950 . S
H4094 C4102 0.975 . S
H4095 C4104 0.950 . S
H4096 C4106 0.950 . S
H4097 C4108 0.950 . S
H4098 C4110 0.950 . S
H4099 C4111 0.950 . S
C4100 H4092 0.934 1_554 S
C4100 C4101 1.386 . S
C4100 C4102 1.391 . S
C4101 C4100 1.386 . S
C4101 C4105 1.393 . S
C4102 H4094 0.975 . S
C4102 C4100 1.391 . S
C4102 C4103 1.400 . S
C4103 C4102 1.400 . S
C4103 C4104 1.398 . S
C4103 C4109 1.491 . S
C4104 H4095 0.950 . S
C4104 C4103 1.398 . S
C4104 C4105 1.391 . S
C4105 H4093 0.950 . S
C4105 C4101 1.393 . S
C4105 C4104 1.391 . S
C4106 H4096 0.950 . S
C4106 C4107 1.386 . S
C4106 C4108 1.391 . S
C4107 C4106 1.386 . S
C4107 C4111 1.393 . S
C4108 H4097 0.950 . S
C4108 C4106 1.391 . S
C4108 C4109 1.400 . S
C4109 C4103 1.491 . S
C4109 C4108 1.400 . S
C4109 C4110 1.398 . S
C4110 H4098 0.950 . S
C4110 C4109 1.398 . S
C4110 C4111 1.391 . S
C4111 H4099 0.950 . S
C4111 C4107 1.393 . S
C4111 C4110 1.391 . S
H4112 C4120 0.950 . S
H4113 C4125 0.950 . S
H4114 C4122 0.950 . S
H4115 C4124 0.950 . S
H4116 C4126 0.950 . S
H4117 C4128 0.950 . S
H4118 C4130 0.950 . S
H4119 C4131 0.950 . S
C4120 H4112 0.950 . S
C4120 C4121 1.386 . S
C4120 C4122 1.391 . S
C4121 C4120 1.386 . S
C4121 C4125 1.393 . S
C4122 H4114 0.950 . S
C4122 C4120 1.391 . S
C4122 C4123 1.400 . S
C4123 C4122 1.400 . S
C4123 C4124 1.398 . S
C4123 C4129 1.491 . S
C4124 H4115 0.950 . S
C4124 C4123 1.398 . S
C4124 C4125 1.391 . S
C4125 H4113 0.950 . S
C4125 C4121 1.393 . S
C4125 C4124 1.391 . S
C4126 H4116 0.950 . S
C4126 C4127 1.386 . S
C4126 C4128 1.391 . S
C4127 C4126 1.386 . S
C4127 C4131 1.393 . S
C4128 H4117 0.950 . S
C4128 C4126 1.391 . S
C4128 C4129 1.400 . S
C4129 C4123 1.491 . S
C4129 C4128 1.400 . S
C4129 C4130 1.398 . S
C4130 H4118 0.950 . S
C4130 C4129 1.398 . S
C4130 C4131 1.391 . S
C4131 H4119 0.950 . S
C4131 C4127 1.393 . S
C4131 C4130 1.391 . S
H4132 C4140 0.950 . S
H4133 C4145 0.950 . S
H4134 C4142 0.950 . S
H4135 C4144 0.950 . S
H4136 C4146 0.950 . S
H4137 C4148 0.950 . S
H4138 C4150 0.950 . S
H4139 C4151 0.950 . S
C4140 H4132 0.950 . S
C4140 C4141 1.386 . S
C4140 C4142 1.391 . S
C4141 C4140 1.386 . S
C4141 C4145 1.393 . S
C4142 H4134 0.950 . S
C4142 C4140 1.391 . S
C4142 C4143 1.400 . S
C4143 C4142 1.400 . S
C4143 C4144 1.398 . S
C4143 C4149 1.491 . S
C4144 H4135 0.950 . S
C4144 C4143 1.398 . S
C4144 C4145 1.391 . S
C4145 H4133 0.950 . S
C4145 C4141 1.393 . S
C4145 C4144 1.391 . S
C4146 H4136 0.950 . S
C4146 C4147 1.386 . S
C4146 C4148 1.391 . S
C4147 C4146 1.386 . S
C4147 C4151 1.393 . S
C4148 H4137 0.950 . S
C4148 C4146 1.391 . S
C4148 C4149 1.400 . S
C4149 C4143 1.491 . S
C4149 C4148 1.400 . S
C4149 C4150 1.398 . S
C4150 H4138 0.950 . S
C4150 C4149 1.398 . S
C4150 C4151 1.391 . S
C4151 H4139 0.950 . S
C4151 C4147 1.393 . S
C4151 C4150 1.391 . S
H4152 C4160 0.950 . S
H4153 C4165 0.950 . S
H4154 C4162 0.950 . S
H4155 C4164 0.950 . S
H4156 C4166 0.950 . S
H4157 C4168 0.950 . S
H4158 C4170 0.950 . S
H4159 C4171 0.950 . S
C4160 H4152 0.950 . S
C4160 C4161 1.386 . S
C4160 C4162 1.391 . S
C4161 C4160 1.386 . S
C4161 C4165 1.393 . S
C4162 H4154 0.950 . S
C4162 C4160 1.391 . S
C4162 C4163 1.400 . S
C4163 C4162 1.400 . S
C4163 C4164 1.398 . S
C4163 C4169 1.491 . S
C4164 H4155 0.950 . S
C4164 C4163 1.398 . S
C4164 C4165 1.391 . S
C4165 H4153 0.950 . S
C4165 C4161 1.393 . S
C4165 C4164 1.391 . S
C4166 H4156 0.950 . S
C4166 C4167 1.386 . S
C4166 C4168 1.391 . S
C4167 C4166 1.386 . S
C4167 C4171 1.393 . S
C4168 H4157 0.950 . S
C4168 C4166 1.391 . S
C4168 C4169 1.400 . S
C4169 C4163 1.491 . S
C4169 C4168 1.400 . S
C4169 C4170 1.398 . S
C4170 H4158 0.950 . S
C4170 C4169 1.398 . S
C4170 C4171 1.391 . S
C4171 H4159 0.950 . S
C4171 C4167 1.393 . S
C4171 C4170 1.391 . S
H4172 C4180 0.950 . S
H4173 C4185 0.950 . S
H4174 C4182 0.950 . S
H4175 C4184 0.950 . S
H4176 C4186 0.950 . S
H4177 C4188 0.950 . S
H4178 C4190 0.950 . S
H4179 C4191 0.950 . S
C4180 H4172 0.950 . S
C4180 C4181 1.386 . S
C4180 C4182 1.391 . S
C4181 C4180 1.386 . S
C4181 C4185 1.393 . S
C4182 H4174 0.950 . S
C4182 C4180 1.391 . S
C4182 C4183 1.400 . S
C4183 C4182 1.400 . S
C4183 C4184 1.398 . S
C4183 C4189 1.491 . S
C4184 H4175 0.950 . S
C4184 C4183 1.398 . S
C4184 C4185 1.391 . S
C4185 H4173 0.950 . S
C4185 C4181 1.393 . S
C4185 C4184 1.391 . S
C4186 H4176 0.950 . S
C4186 C4187 1.386 . S
C4186 C4188 1.391 . S
C4187 C4186 1.386 . S
C4187 C4191 1.393 . S
C4188 H4177 0.950 . S
C4188 C4186 1.391 . S
C4188 C4189 1.400 . S
C4189 C4183 1.491 . S
C4189 C4188 1.400 . S
C4189 C4190 1.398 . S
C4190 H4178 0.950 . S
C4190 C4189 1.398 . S
C4190 C4191 1.391 . S
C4191 H4179 0.950 . S
C4191 C4187 1.393 . S
C4191 C4190 1.391 . S
H4192 C4200 0.950 . S
H4193 C4205 0.950 . S
H4194 C4202 0.950 . S
H4195 C4204 0.950 . S
H4196 C4206 0.950 . S
H4197 C4208 0.950 . S
H4198 C4210 0.950 . S
H4199 C4211 0.950 . S
C4200 H4192 0.950 . S
C4200 C4201 1.386 . S
C4200 C4202 1.391 . S
C4201 C4200 1.386 . S
C4201 C4205 1.393 . S
C4202 H4194 0.950 . S
C4202 C4200 1.391 . S
C4202 C4203 1.400 . S
C4203 C4202 1.400 . S
C4203 C4204 1.398 . S
C4203 C4209 1.491 . S
C4204 H4195 0.950 . S
C4204 C4203 1.398 . S
C4204 C4205 1.391 . S
C4205 H4193 0.950 . S
C4205 C4201 1.393 . S
C4205 C4204 1.391 . S
C4206 H4196 0.950 . S
C4206 C4207 1.386 . S
C4206 C4208 1.391 . S
C4207 C4206 1.386 . S
C4207 C4211 1.393 . S
C4208 H4197 0.950 . S
C4208 C4206 1.391 . S
C4208 C4209 1.400 . S
C4209 C4203 1.491 . S
C4209 C4208 1.400 . S
C4209 C4210 1.398 . S
C4210 H4198 0.950 . S
C4210 C4209 1.398 . S
C4210 C4211 1.391 . S
C4211 H4199 0.950 . S
C4211 C4207 1.393 . S
C4211 C4210 1.391 . S
H4212 C4220 0.950 . S
H4213 C4225 0.950 . S
H4214 C4222 0.950 . S
H4215 C4224 0.950 . S
H4216 C4226 0.950 . S
H4217 C4228 0.950 . S
H4218 C4230 0.950 . S
H4219 C4231 0.950 . S
C4220 H4212 0.950 . S
C4220 C4221 1.386 . S
C4220 C4222 1.391 . S
C4221 C4220 1.386 . S
C4221 C4225 1.393 . S
C4222 H4214 0.950 . S
C4222 C4220 1.391 . S
C4222 C4223 1.400 . S
C4223 C4222 1.400 . S
C4223 C4224 1.398 . S
C4223 C4229 1.491 . S
C4224 H4215 0.950 . S
C4224 C4223 1.398 . S
C4224 C4225 1.391 . S
C4225 H4213 0.950 . S
C4225 C4221 1.393 . S
C4225 C4224 1.391 . S
C4226 H4216 0.950 . S
C4226 C4227 1.386 . S
C4226 C4228 1.391 . S
C4227 C4226 1.386 . S
C4227 C4231 1.393 . S
C4228 H4217 0.950 . S
C4228 C4226 1.391 . S
C4228 C4229 1.400 . S
C4229 C4223 1.491 . S
C4229 C4228 1.400 . S
C4229 C4230 1.398 . S
C4230 H4218 0.950 . S
C4230 C4229 1.398 . S
C4230 C4231 1.391 . S
C4231 H4219 0.950 . S
C4231 C4227 1.393 . S
C4231 C4230 1.391 . S
H4232 C4240 0.950 . S
H4233 C4245 0.950 . S
H4234 C4242 0.950 . S
H4235 C4244 0.950 . S
H4236 C4246 0.950 . S
H4237 C4248 0.950 . S
H4238 C4250 0.950 . S
H4239 C4251 0.950 . S
C4240 H4232 0.950 . S
C4240 C4241 1.386 . S
C4240 C4242 1.391 . S
C4241 C4240 1.386 . S
C4241 C4245 1.393 . S
C4242 H4234 0.950 . S
C4242 C4240 1.391 . S
C4242 C4243 1.400 . S
C4243 C4242 1.400 . S
C4243 C4244 1.398 . S
C4243 C4249 1.491 . S
C4244 H4235 0.950 . S
C4244 C4243 1.398 . S
C4244 C4245 1.391 . S
C4245 H4233 0.950 . S
C4245 C4241 1.393 . S
C4245 C4244 1.391 . S
C4246 H4236 0.950 . S
C4246 C4247 1.386 . S
C4246 C4248 1.391 . S
C4247 C4246 1.386 . S
C4247 C4251 1.393 . S
C4248 H4237 0.950 . S
C4248 C4246 1.391 . S
C4248 C4249 1.400 . S
C4249 C4243 1.491 . S
C4249 C4248 1.400 . S
C4249 C4250 1.398 . S
C4250 H4238 0.950 . S
C4250 C4249 1.398 . S
C4250 C4251 1.391 . S
C4251 H4239 0.950 . S
C4251 C4247 1.393 . S
C4251 C4250 1.391 . S
H4252 C4260 0.950 . S
H4253 C4265 0.950 . S
H4254 C4262 0.950 . S
H4255 C4264 0.950 . S
H4256 C4266 0.950 . S
H4257 C4268 0.950 . S
H4258 C4270 0.950 . S
H4259 C4271 0.950 . S
C4260 H4252 0.950 . S
C4260 C4261 1.386 . S
C4260 C4262 1.391 . S
C4261 C4260 1.386 . S
C4261 C4265 1.393 . S
C4262 H4254 0.950 . S
C4262 C4260 1.391 . S
C4262 C4263 1.400 . S
C4263 C4262 1.400 . S
C4263 C4264 1.398 . S
C4263 C4269 1.491 . S
C4264 H4255 0.950 . S
C4264 C4263 1.398 . S
C4264 C4265 1.391 . S
C4265 H4253 0.950 . S
C4265 C4261 1.393 . S
C4265 C4264 1.391 . S
C4266 H4256 0.950 . S
C4266 C4267 1.386 . S
C4266 C4268 1.391 . S
C4267 C4266 1.386 . S
C4267 C4271 1.393 . S
C4268 H4257 0.950 . S
C4268 C4266 1.391 . S
C4268 C4269 1.400 . S
C4269 C4263 1.491 . S
C4269 C4268 1.400 . S
C4269 C4270 1.398 . S
C4270 H4258 0.950 . S
C4270 C4269 1.398 . S
C4270 C4271 1.391 . S
C4271 H4259 0.950 . S
C4271 C4267 1.393 . S
C4271 C4270 1.391 . S
H4272 C4280 0.950 . S
H4273 C4285 0.950 . S
H4274 C4282 0.950 . S
H4275 C4284 0.950 . S
H4276 C4286 0.950 . S
H4277 C4288 0.950 . S
H4278 C4290 0.950 . S
H4279 C4291 0.950 . S
C4280 H4272 0.950 . S
C4280 C4281 1.386 . S
C4280 C4282 1.391 . S
C4281 C4280 1.386 . S
C4281 C4285 1.393 . S
C4282 H4274 0.950 . S
C4282 C4280 1.391 . S
C4282 C4283 1.400 . S
C4283 C4282 1.400 . S
C4283 C4284 1.398 . S
C4283 C4289 1.491 . S
C4284 H4275 0.950 . S
C4284 C4283 1.398 . S
C4284 C4285 1.391 . S
C4285 H4273 0.950 . S
C4285 C4281 1.393 . S
C4285 C4284 1.391 . S
C4286 H4276 0.950 . S
C4286 C4287 1.386 . S
C4286 C4288 1.391 . S
C4287 C4286 1.386 . S
C4287 C4291 1.393 . S
C4288 H4277 0.950 . S
C4288 C4286 1.391 . S
C4288 C4289 1.400 . S
C4289 C4283 1.491 . S
C4289 C4288 1.400 . S
C4289 C4290 1.398 . S
C4290 H4278 0.950 . S
C4290 C4289 1.398 . S
C4290 C4291 1.391 . S
C4291 H4279 0.950 . S
C4291 C4287 1.393 . S
C4291 C4290 1.391 . S
H4292 C4300 0.950 . S
H4293 C4305 0.950 . S
H4294 C4302 0.950 . S
H4295 C4304 0.950 . S
H4296 C4306 0.950 . S
H4297 C4308 0.950 . S
H4298 C4310 0.950 . S
H4299 C4311 0.950 . S
C4300 H4292 0.950 . S
C4300 C4301 1.386 . S
C4300 C4302 1.391 . S
C4301 C4300 1.386 . S
C4301 C4305 1.393 . S
C4302 H4294 0.950 . S
C4302 C4300 1.391 . S
C4302 C4303 1.400 . S
C4303 C4302 1.400 . S
C4303 C4304 1.398 . S
C4303 C4309 1.491 . S
C4304 H4295 0.950 . S
C4304 C4303 1.398 . S
C4304 C4305 1.391 . S
C4305 H4293 0.950 . S
C4305 C4301 1.393 . S
C4305 C4304 1.391 . S
C4306 H4296 0.950 . S
C4306 C4307 1.386 . S
C4306 C4308 1.391 . S
C4307 C4306 1.386 . S
C4307 C4311 1.393 . S
C4308 H4297 0.950 . S
C4308 C4306 1.391 . S
C4308 C4309 1.400 . S
C4309 C4303 1.491 . S
C4309 C4308 1.400 . S
C4309 C4310 1.398 . S
C4310 H4298 0.950 . S
C4310 C4309 1.398 . S
C4310 C4311 1.391 . S
C4311 H4299 0.950 . S
C4311 C4307 1.393 . S
C4311 C4310 1.391 . S
H4312 C4320 0.950 1_655 S
H4313 C4325 0.950 . S
H4314 C4322 0.950 . S
H4315 C4324 0.950 . S
H4316 C4326 0.950 . S
H4317 C4328 0.950 . S
H4318 C4330 0.950 . S
H4319 C4331 0.950 . S
C4320 H4312 0.950 1_455 S
C4320 C4321 1.386 . S
C4320 C4322 1.391 . S
C4321 C4320 1.386 . S
C4321 C4325 1.393 . S
C4322 H4314 0.950 . S
C4322 C4320 1.391 . S
C4322 C4323 1.400 . S
C4323 C4322 1.400 . S
C4323 C4324 1.398 . S
C4323 C4329 1.491 . S
C4324 H4315 0.950 . S
C4324 C4323 1.398 . S
C4324 C4325 1.391 . S
C4325 H4313 0.950 . S
C4325 C4321 1.393 . S
C4325 C4324 1.391 . S
C4326 H4316 0.950 . S
C4326 C4327 1.386 . S
C4326 C4328 1.391 . S
C4327 C4326 1.386 . S
C4327 C4331 1.393 . S
C4328 H4317 0.950 . S
C4328 C4326 1.391 . S
C4328 C4329 1.400 . S
C4329 C4323 1.491 . S
C4329 C4328 1.400 . S
C4329 C4330 1.398 . S
C4330 H4318 0.950 . S
C4330 C4329 1.398 . S
C4330 C4331 1.391 . S
C4331 H4319 0.950 . S
C4331 C4327 1.393 . S
C4331 C4330 1.391 . S
H4332 C4340 0.950 . S
H4333 C4345 0.950 . S
H4334 C4342 0.950 . S
H4335 C4344 0.950 . S
H4336 C4346 0.950 . S
H4337 C4348 0.950 . S
H4338 C4350 0.950 . S
H4339 C4351 0.950 . S
C4340 H4332 0.950 . S
C4340 C4341 1.386 . S
C4340 C4342 1.391 . S
C4341 C4340 1.386 . S
C4341 C4345 1.393 . S
C4342 H4334 0.950 . S
C4342 C4340 1.391 . S
C4342 C4343 1.400 . S
C4343 C4342 1.400 . S
C4343 C4344 1.398 . S
C4343 C4349 1.491 . S
C4344 H4335 0.950 . S
C4344 C4343 1.398 . S
C4344 C4345 1.391 . S
C4345 H4333 0.950 . S
C4345 C4341 1.393 . S
C4345 C4344 1.391 . S
C4346 H4336 0.950 . S
C4346 C4347 1.386 . S
C4346 C4348 1.391 . S
C4347 C4346 1.386 . S
C4347 C4351 1.393 . S
C4348 H4337 0.950 . S
C4348 C4346 1.391 . S
C4348 C4349 1.400 . S
C4349 C4343 1.491 . S
C4349 C4348 1.400 . S
C4349 C4350 1.398 . S
C4350 H4338 0.950 . S
C4350 C4349 1.398 . S
C4350 C4351 1.391 . S
C4351 H4339 0.950 . S
C4351 C4347 1.393 . S
C4351 C4350 1.391 . S
H4352 C4360 0.950 . S
H4353 C4365 0.950 . S
H4354 C4362 0.950 . S
H4355 C4364 0.950 . S
H4356 C4366 0.950 . S
H4357 C4368 0.950 . S
H4358 C4370 0.950 . S
H4359 C4371 0.950 . S
C4360 H4352 0.950 . S
C4360 C4361 1.386 . S
C4360 C4362 1.391 . S
C4361 C4360 1.386 . S
C4361 C4365 1.393 . S
C4362 H4354 0.950 . S
C4362 C4360 1.391 . S
C4362 C4363 1.400 . S
C4363 C4362 1.400 . S
C4363 C4364 1.398 . S
C4363 C4369 1.491 . S
C4364 H4355 0.950 . S
C4364 C4363 1.398 . S
C4364 C4365 1.391 . S
C4365 H4353 0.950 . S
C4365 C4361 1.393 . S
C4365 C4364 1.391 . S
C4366 H4356 0.950 . S
C4366 C4367 1.386 . S
C4366 C4368 1.391 . S
C4367 C4366 1.386 . S
C4367 C4371 1.393 . S
C4368 H4357 0.950 . S
C4368 C4366 1.391 . S
C4368 C4369 1.400 . S
C4369 C4363 1.491 . S
C4369 C4368 1.400 . S
C4369 C4370 1.398 . S
C4370 H4358 0.950 . S
C4370 C4369 1.398 . S
C4370 C4371 1.391 . S
C4371 H4359 0.950 . S
C4371 C4367 1.393 . S
C4371 C4370 1.391 . S
H4372 C4380 0.950 . S
H4373 C4385 0.950 . S
H4374 C4382 0.950 . S
H4375 C4384 0.950 . S
H4376 C4386 0.950 . S
H4377 C4388 0.950 . S
H4378 C4390 0.950 . S
H4379 C4391 0.950 . S
C4380 H4372 0.950 . S
C4380 C4381 1.386 . S
C4380 C4382 1.391 . S
C4381 C4380 1.386 . S
C4381 C4385 1.393 . S
C4382 H4374 0.950 . S
C4382 C4380 1.391 . S
C4382 C4383 1.400 . S
C4383 C4382 1.400 . S
C4383 C4384 1.398 . S
C4383 C4389 1.491 . S
C4384 H4375 0.950 . S
C4384 C4383 1.398 . S
C4384 C4385 1.391 . S
C4385 H4373 0.950 . S
C4385 C4381 1.393 . S
C4385 C4384 1.391 . S
C4386 H4376 0.950 . S
C4386 C4387 1.386 . S
C4386 C4388 1.391 . S
C4387 C4386 1.386 . S
C4387 C4391 1.393 . S
C4388 H4377 0.950 . S
C4388 C4386 1.391 . S
C4388 C4389 1.400 . S
C4389 C4383 1.491 . S
C4389 C4388 1.400 . S
C4389 C4390 1.398 . S
C4390 H4378 0.950 . S
C4390 C4389 1.398 . S
C4390 C4391 1.391 . S
C4391 H4379 0.950 . S
C4391 C4387 1.393 . S
C4391 C4390 1.391 . S
H4392 C4400 0.950 . S
H4393 C4405 0.950 . S
H4394 C4402 0.950 . S
H4395 C4404 0.950 . S
H4396 C4406 0.950 . S
H4397 C4408 0.950 . S
H4398 C4410 0.950 . S
H4399 C4411 0.950 . S
C4400 H4392 0.950 . S
C4400 C4401 1.386 . S
C4400 C4402 1.391 . S
C4401 C4400 1.386 . S
C4401 C4405 1.393 . S
C4402 H4394 0.950 . S
C4402 C4400 1.391 . S
C4402 C4403 1.400 . S
C4403 C4402 1.400 . S
C4403 C4404 1.398 . S
C4403 C4409 1.491 . S
C4404 H4395 0.950 . S
C4404 C4403 1.398 . S
C4404 C4405 1.391 . S
C4405 H4393 0.950 . S
C4405 C4401 1.393 . S
C4405 C4404 1.391 . S
C4406 H4396 0.950 . S
C4406 C4407 1.386 . S
C4406 C4408 1.391 . S
C4407 C4406 1.386 . S
C4407 C4411 1.393 1_455 S
C4408 H4397 0.950 . S
C4408 C4406 1.391 . S
C4408 C4409 1.400 1_455 S
C4409 C4403 1.491 . S
C4409 C4408 1.400 1_655 S
C4409 C4410 1.398 . S
C4410 H4398 0.950 . S
C4410 C4409 1.398 . S
C4410 C4411 1.391 . S
C4411 H4399 0.950 . S
C4411 C4407 1.393 1_655 S
C4411 C4410 1.391 . S
H4412 C4420 0.950 . S
H4413 C4425 0.950 . S
H4414 C4422 0.950 . S
H4415 C4424 0.950 . S
H4416 C4426 0.950 . S
H4417 C4428 0.950 . S
H4418 C4430 0.950 . S
H4419 C4431 0.950 . S
C4420 H4412 0.950 . S
C4420 C4421 1.386 . S
C4420 C4422 1.391 . S
C4421 C4420 1.386 . S
C4421 C4425 1.393 . S
C4422 H4414 0.950 . S
C4422 C4420 1.391 . S
C4422 C4423 1.400 . S
C4423 C4422 1.400 . S
C4423 C4424 1.398 . S
C4423 C4429 1.491 . S
C4424 H4415 0.950 . S
C4424 C4423 1.398 . S
C4424 C4425 1.391 . S
C4425 H4413 0.950 . S
C4425 C4421 1.393 . S
C4425 C4424 1.391 . S
C4426 H4416 0.950 . S
C4426 C4427 1.386 . S
C4426 C4428 1.391 . S
C4427 C4426 1.386 . S
C4427 C4431 1.393 . S
C4428 H4417 0.950 . S
C4428 C4426 1.391 . S
C4428 C4429 1.400 . S
C4429 C4423 1.491 . S
C4429 C4428 1.400 . S
C4429 C4430 1.398 . S
C4430 H4418 0.950 . S
C4430 C4429 1.398 . S
C4430 C4431 1.391 . S
C4431 H4419 0.950 . S
C4431 C4427 1.393 . S
C4431 C4430 1.391 . S
H4432 C4440 0.950 . S
H4433 C4445 0.950 . S
H4434 C4442 0.950 . S
H4435 C4444 0.950 . S
H4436 C4446 0.950 . S
H4437 C4448 0.950 . S
H4438 C4450 0.950 . S
H4439 C4451 0.950 . S
C4440 H4432 0.950 . S
C4440 C4441 1.386 . S
C4440 C4442 1.391 . S
C4441 C4440 1.386 . S
C4441 C4445 1.393 . S
C4442 H4434 0.950 . S
C4442 C4440 1.391 . S
C4442 C4443 1.400 . S
C4443 C4442 1.400 . S
C4443 C4444 1.398 . S
C4443 C4449 1.491 . S
C4444 H4435 0.950 . S
C4444 C4443 1.398 . S
C4444 C4445 1.391 . S
C4445 H4433 0.950 . S
C4445 C4441 1.393 . S
C4445 C4444 1.391 . S
C4446 H4436 0.950 . S
C4446 C4447 1.386 . S
C4446 C4448 1.391 . S
C4447 C4446 1.386 . S
C4447 C4451 1.393 . S
C4448 H4437 0.950 . S
C4448 C4446 1.391 . S
C4448 C4449 1.400 . S
C4449 C4443 1.491 . S
C4449 C4448 1.400 . S
C4449 C4450 1.398 . S
C4450 H4438 0.950 . S
C4450 C4449 1.398 . S
C4450 C4451 1.391 . S
C4451 H4439 0.950 . S
C4451 C4447 1.393 . S
C4451 C4450 1.391 . S
H4452 C4460 0.950 . S
H4453 C4465 0.950 . S
H4454 C4462 0.950 . S
H4455 C4464 0.950 . S
H4456 C4466 0.950 . S
H4457 C4468 0.950 . S
H4458 C4470 0.950 . S
H4459 C4471 0.950 . S
C4460 H4452 0.950 . S
C4460 C4461 1.386 . S
C4460 C4462 1.391 . S
C4461 C4460 1.386 . S
C4461 C4465 1.393 . S
C4462 H4454 0.950 . S
C4462 C4460 1.391 . S
C4462 C4463 1.400 . S
C4463 C4462 1.400 . S
C4463 C4464 1.398 . S
C4463 C4469 1.491 . S
C4464 H4455 0.950 . S
C4464 C4463 1.398 . S
C4464 C4465 1.391 . S
C4465 H4453 0.950 . S
C4465 C4461 1.393 . S
C4465 C4464 1.391 . S
C4466 H4456 0.950 . S
C4466 C4467 1.386 . S
C4466 C4468 1.391 . S
C4467 C4466 1.386 . S
C4467 C4471 1.393 . S
C4468 H4457 0.950 . S
C4468 C4466 1.391 . S
C4468 C4469 1.400 . S
C4469 C4463 1.491 . S
C4469 C4468 1.400 . S
C4469 C4470 1.398 . S
C4470 H4458 0.950 . S
C4470 C4469 1.398 . S
C4470 C4471 1.391 . S
C4471 H4459 0.950 . S
C4471 C4467 1.393 . S
C4471 C4470 1.391 . S
H4472 C4480 0.950 . S
H4473 C4485 0.950 . S
H4474 C4482 0.950 . S
H4475 C4484 0.950 . S
H4476 C4486 0.950 . S
H4477 C4488 0.949 1_455 S
H4478 C4490 0.950 . S
H4479 C4491 0.950 . S
C4480 H4472 0.950 . S
C4480 C4481 1.386 . S
C4480 C4482 1.391 . S
C4481 C4480 1.386 . S
C4481 C4485 1.393 . S
C4482 H4474 0.950 . S
C4482 C4480 1.391 . S
C4482 C4483 1.400 . S
C4483 C4482 1.400 . S
C4483 C4484 1.398 . S
C4483 C4489 1.491 . S
C4484 H4475 0.950 . S
C4484 C4483 1.398 . S
C4484 C4485 1.391 . S
C4485 H4473 0.950 . S
C4485 C4481 1.393 . S
C4485 C4484 1.391 . S
C4486 H4476 0.950 . S
C4486 C4487 1.384 1_455 S
C4486 C4488 1.389 1_455 S
C4487 C4486 1.384 1_655 S
C4487 C4491 1.397 . S
C4488 H4477 0.949 1_655 S
C4488 C4486 1.389 1_655 S
C4488 C4489 1.404 . S
C4489 C4483 1.491 . S
C4489 C4488 1.404 . S
C4489 C4490 1.398 . S
C4490 H4478 0.950 . S
C4490 C4489 1.398 . S
C4490 C4491 1.391 . S
C4491 H4479 0.950 . S
C4491 C4487 1.397 . S
C4491 C4490 1.391 . S
H4492 C4500 0.950 . S
H4493 C4505 0.950 . S
H4494 C4502 0.950 . S
H4495 C4504 0.950 . S
H4496 C4506 0.950 . S
H4497 C4508 0.950 . S
H4498 C4510 0.950 . S
H4499 C4511 0.950 . S
C4500 H4492 0.950 . S
C4500 C4501 1.386 . S
C4500 C4502 1.391 . S
C4501 C4500 1.386 . S
C4501 C4505 1.393 . S
C4502 H4494 0.950 . S
C4502 C4500 1.391 . S
C4502 C4503 1.400 . S
C4503 C4502 1.400 . S
C4503 C4504 1.398 . S
C4503 C4509 1.491 . S
C4504 H4495 0.950 . S
C4504 C4503 1.398 . S
C4504 C4505 1.391 . S
C4505 H4493 0.950 . S
C4505 C4501 1.393 . S
C4505 C4504 1.391 . S
C4506 H4496 0.950 . S
C4506 C4507 1.386 . S
C4506 C4508 1.391 . S
C4507 C4506 1.386 . S
C4507 C4511 1.393 . S
C4508 H4497 0.950 . S
C4508 C4506 1.391 . S
C4508 C4509 1.400 . S
C4509 C4503 1.491 . S
C4509 C4508 1.400 . S
C4509 C4510 1.398 . S
C4510 H4498 0.950 . S
C4510 C4509 1.398 . S
C4510 C4511 1.391 . S
C4511 H4499 0.950 . S
C4511 C4507 1.393 . S
C4511 C4510 1.391 . S
H4512 C4520 0.950 . S
H4513 C4525 0.950 . S
H4514 C4522 0.950 . S
H4515 C4524 0.950 . S
H4516 C4526 0.950 . S
H4517 C4528 0.950 . S
H4518 C4530 0.950 . S
H4519 C4531 0.950 . S
C4520 H4512 0.950 . S
C4520 C4521 1.386 . S
C4520 C4522 1.391 . S
C4521 C4520 1.386 . S
C4521 C4525 1.393 . S
C4522 H4514 0.950 . S
C4522 C4520 1.391 . S
C4522 C4523 1.400 . S
C4523 C4522 1.400 . S
C4523 C4524 1.398 . S
C4523 C4529 1.491 . S
C4524 H4515 0.950 . S
C4524 C4523 1.398 . S
C4524 C4525 1.391 . S
C4525 H4513 0.950 . S
C4525 C4521 1.393 . S
C4525 C4524 1.391 . S
C4526 H4516 0.950 . S
C4526 C4527 1.386 . S
C4526 C4528 1.391 . S
C4527 C4526 1.386 . S
C4527 C4531 1.393 . S
C4528 H4517 0.950 . S
C4528 C4526 1.391 . S
C4528 C4529 1.400 . S
C4529 C4523 1.491 . S
C4529 C4528 1.400 . S
C4529 C4530 1.398 . S
C4530 H4518 0.950 . S
C4530 C4529 1.398 . S
C4530 C4531 1.391 . S
C4531 H4519 0.950 . S
C4531 C4527 1.393 . S
C4531 C4530 1.391 . S
H4532 C4540 0.950 . S
H4533 C4545 0.950 . S
H4534 C4542 0.950 . S
H4535 C4544 0.950 . S
H4536 C4546 0.950 . S
H4537 C4548 0.950 . S
H4538 C4550 0.950 . S
H4539 C4551 0.950 . S
C4540 H4532 0.950 . S
C4540 C4541 1.386 . S
C4540 C4542 1.391 . S
C4541 C4540 1.386 . S
C4541 C4545 1.393 . S
C4542 H4534 0.950 . S
C4542 C4540 1.391 . S
C4542 C4543 1.400 . S
C4543 C4542 1.400 . S
C4543 C4544 1.398 . S
C4543 C4549 1.491 . S
C4544 H4535 0.950 . S
C4544 C4543 1.398 . S
C4544 C4545 1.391 . S
C4545 H4533 0.950 . S
C4545 C4541 1.393 . S
C4545 C4544 1.391 . S
C4546 H4536 0.950 . S
C4546 C4547 1.386 . S
C4546 C4548 1.391 . S
C4547 C4546 1.386 . S
C4547 C4551 1.393 . S
C4548 H4537 0.950 . S
C4548 C4546 1.391 . S
C4548 C4549 1.400 . S
C4549 C4543 1.491 . S
C4549 C4548 1.400 . S
C4549 C4550 1.398 . S
C4550 H4538 0.950 . S
C4550 C4549 1.398 . S
C4550 C4551 1.391 . S
C4551 H4539 0.950 . S
C4551 C4547 1.393 . S
C4551 C4550 1.391 . S
H4552 C4560 0.950 . S
H4553 C4565 0.950 . S
H4554 C4562 0.950 . S
H4555 C4564 0.950 . S
H4556 C4566 0.950 . S
H4557 C4568 0.950 . S
H4558 C4570 0.950 . S
H4559 C4571 0.950 . S
C4560 H4552 0.950 . S
C4560 C4561 1.386 . S
C4560 C4562 1.391 . S
C4561 C4560 1.386 . S
C4561 C4565 1.393 . S
C4562 H4554 0.950 . S
C4562 C4560 1.391 . S
C4562 C4563 1.400 . S
C4563 C4562 1.400 . S
C4563 C4564 1.398 . S
C4563 C4569 1.491 . S
C4564 H4555 0.950 . S
C4564 C4563 1.398 . S
C4564 C4565 1.391 . S
C4565 H4553 0.950 . S
C4565 C4561 1.393 . S
C4565 C4564 1.391 . S
C4566 H4556 0.950 . S
C4566 C4567 1.386 . S
C4566 C4568 1.391 . S
C4567 C4566 1.386 . S
C4567 C4571 1.393 . S
C4568 H4557 0.950 . S
C4568 C4566 1.391 . S
C4568 C4569 1.400 . S
C4569 C4563 1.491 . S
C4569 C4568 1.400 . S
C4569 C4570 1.398 . S
C4570 H4558 0.950 . S
C4570 C4569 1.398 . S
C4570 C4571 1.391 . S
C4571 H4559 0.950 . S
C4571 C4567 1.393 . S
C4571 C4570 1.391 . S
H4572 C4580 0.950 . S
H4573 C4585 0.950 . S
H4574 C4582 0.950 . S
H4575 C4584 0.950 . S
H4576 C4586 0.950 . S
H4577 C4588 0.950 . S
H4578 C4590 0.950 . S
H4579 C4591 0.950 . S
C4580 H4572 0.950 . S
C4580 C4581 1.386 . S
C4580 C4582 1.391 . S
C4581 C4580 1.386 . S
C4581 C4585 1.393 . S
C4582 H4574 0.950 . S
C4582 C4580 1.391 . S
C4582 C4583 1.400 . S
C4583 C4582 1.400 . S
C4583 C4584 1.398 . S
C4583 C4589 1.491 . S
C4584 H4575 0.950 . S
C4584 C4583 1.398 . S
C4584 C4585 1.391 . S
C4585 H4573 0.950 . S
C4585 C4581 1.393 . S
C4585 C4584 1.391 . S
C4586 H4576 0.950 . S
C4586 C4587 1.386 . S
C4586 C4588 1.391 . S
C4587 C4586 1.386 . S
C4587 C4591 1.393 . S
C4588 H4577 0.950 . S
C4588 C4586 1.391 . S
C4588 C4589 1.400 . S
C4589 C4583 1.491 . S
C4589 C4588 1.400 . S
C4589 C4590 1.398 . S
C4590 H4578 0.950 . S
C4590 C4589 1.398 . S
C4590 C4591 1.391 . S
C4591 H4579 0.950 . S
C4591 C4587 1.393 . S
C4591 C4590 1.391 . S
H4592 C4600 0.950 . S
H4593 C4605 0.950 . S
H4594 C4602 0.950 . S
H4595 C4604 0.950 . S
H4596 C4606 0.950 . S
H4597 C4608 0.950 . S
H4598 C4610 0.950 . S
H4599 C4611 0.950 . S
C4600 H4592 0.950 . S
C4600 C4601 1.386 . S
C4600 C4602 1.391 . S
C4601 C4600 1.386 . S
C4601 C4605 1.393 . S
C4602 H4594 0.950 . S
C4602 C4600 1.391 . S
C4602 C4603 1.400 . S
C4603 C4602 1.400 . S
C4603 C4604 1.398 . S
C4603 C4609 1.491 . S
C4604 H4595 0.950 . S
C4604 C4603 1.398 . S
C4604 C4605 1.391 . S
C4605 H4593 0.950 . S
C4605 C4601 1.393 . S
C4605 C4604 1.391 . S
C4606 H4596 0.950 . S
C4606 C4607 1.386 . S
C4606 C4608 1.391 . S
C4607 C4606 1.386 . S
C4607 C4611 1.393 . S
C4608 H4597 0.950 . S
C4608 C4606 1.391 . S
C4608 C4609 1.400 . S
C4609 C4603 1.491 . S
C4609 C4608 1.400 . S
C4609 C4610 1.398 . S
C4610 H4598 0.950 . S
C4610 C4609 1.398 . S
C4610 C4611 1.391 . S
C4611 H4599 0.950 . S
C4611 C4607 1.393 . S
C4611 C4610 1.391 . S
H4612 C4620 0.950 . S
H4613 C4625 0.977 . S
H4614 C4622 0.950 . S
H4615 C4624 0.950 1_556 S
H4616 C4626 0.950 . S
H4617 C4628 0.950 . S
H4618 C4630 0.950 . S
H4619 C4631 0.950 . S
C4620 H4612 0.950 . S
C4620 C4621 1.386 . S
C4620 C4622 1.391 . S
C4621 C4620 1.386 . S
C4621 C4625 1.393 . S
C4622 H4614 0.950 . S
C4622 C4620 1.391 . S
C4622 C4623 1.400 . S
C4623 C4622 1.400 . S
C4623 C4624 1.398 . S
C4623 C4629 1.491 . S
C4624 H4615 0.950 1_554 S
C4624 C4623 1.398 . S
C4624 C4625 1.391 . S
C4625 H4613 0.977 . S
C4625 C4621 1.393 . S
C4625 C4624 1.391 . S
C4626 H4616 0.950 . S
C4626 C4627 1.386 1_556 S
C4626 C4628 1.391 . S
C4627 C4626 1.386 1_554 S
C4627 C4631 1.393 . S
C4628 H4617 0.950 . S
C4628 C4626 1.391 . S
C4628 C4629 1.400 1_556 S
C4629 C4623 1.491 . S
C4629 C4628 1.400 1_554 S
C4629 C4630 1.398 . S
C4630 H4618 0.950 . S
C4630 C4629 1.398 . S
C4630 C4631 1.391 . S
C4631 H4619 0.950 . S
C4631 C4627 1.393 . S
C4631 C4630 1.391 . S
H4632 C4640 0.950 . S
H4633 C4645 0.950 . S
H4634 C4642 0.950 . S
H4635 C4644 0.950 . S
H4636 C4646 0.950 . S
H4637 C4648 0.950 . S
H4638 C4650 0.950 . S
H4639 C4651 0.950 . S
C4640 H4632 0.950 . S
C4640 C4641 1.386 . S
C4640 C4642 1.391 . S
C4641 C4640 1.386 . S
C4641 C4645 1.393 . S
C4642 H4634 0.950 . S
C4642 C4640 1.391 . S
C4642 C4643 1.400 . S
C4643 C4642 1.400 . S
C4643 C4644 1.398 . S
C4643 C4649 1.491 . S
C4644 H4635 0.950 . S
C4644 C4643 1.398 . S
C4644 C4645 1.391 . S
C4645 H4633 0.950 . S
C4645 C4641 1.393 . S
C4645 C4644 1.391 . S
C4646 H4636 0.950 . S
C4646 C4647 1.386 . S
C4646 C4648 1.391 . S
C4647 C4646 1.386 . S
C4647 C4651 1.393 . S
C4648 H4637 0.950 . S
C4648 C4646 1.391 . S
C4648 C4649 1.400 . S
C4649 C4643 1.491 . S
C4649 C4648 1.400 . S
C4649 C4650 1.398 . S
C4650 H4638 0.950 . S
C4650 C4649 1.398 . S
C4650 C4651 1.391 . S
C4651 H4639 0.950 . S
C4651 C4647 1.393 . S
C4651 C4650 1.391 . S
H4652 C4660 0.950 . S
H4653 C4665 0.950 . S
H4654 C4662 0.950 . S
H4655 C4664 0.950 . S
H4656 C4666 0.950 . S
H4657 C4668 0.950 . S
H4658 C4670 0.950 . S
H4659 C4671 0.950 . S
C4660 H4652 0.950 . S
C4660 C4661 1.386 . S
C4660 C4662 1.391 . S
C4661 C4660 1.386 . S
C4661 C4665 1.393 . S
C4662 H4654 0.950 . S
C4662 C4660 1.391 . S
C4662 C4663 1.400 . S
C4663 C4662 1.400 . S
C4663 C4664 1.398 . S
C4663 C4669 1.491 . S
C4664 H4655 0.950 . S
C4664 C4663 1.398 . S
C4664 C4665 1.391 . S
C4665 H4653 0.950 . S
C4665 C4661 1.393 . S
C4665 C4664 1.391 . S
C4666 H4656 0.950 . S
C4666 C4667 1.386 . S
C4666 C4668 1.391 . S
C4667 C4666 1.386 . S
C4667 C4671 1.393 . S
C4668 H4657 0.950 . S
C4668 C4666 1.391 . S
C4668 C4669 1.400 . S
C4669 C4663 1.491 . S
C4669 C4668 1.400 . S
C4669 C4670 1.398 . S
C4670 H4658 0.950 . S
C4670 C4669 1.398 . S
C4670 C4671 1.391 . S
C4671 H4659 0.950 . S
C4671 C4667 1.393 . S
C4671 C4670 1.391 . S
C2761 C665 2.232 . S
C2767 C2122 2.228 . S
C2781 C381 1.999 . S
C2787 C2170 1.981 . S
C2801 C460 1.205 . S
C2807 C2202 1.253 . S
C2827 C2247 1.527 . S
C2821 C585 1.561 . S
C2841 C108 0.879 . S
C2847 C2287 0.868 . S
C2867 C2322 0.839 . S
C2861 C196 0.843 . S
C2887 C2361 1.062 . S
C2881 C313 1.081 . S
C2901 C49 1.157 . S
C2907 C2398 1.178 . S
C2927 C2130 1.941 . S
C2921 C1457 1.958 . S
C2941 C1545 0.554 . S
C2947 C2167 0.573 . S
C2967 C2210 2.451 . S
C2961 C1721 2.479 1_545 S
C2987 C2242 1.105 . S
C2981 C1113 1.093 . S
C3001 C1428 1.203 . S
C3007 C2282 1.211 . S
C3027 C2330 0.709 . S
C3021 C1516 0.700 . S
C3047 C2371 1.760 . S
C3041 C1692 1.847 . S
C3067 C2401 1.946 . S
C3061 C1085 1.955 . S
C3087 C2127 1.136 . S
C3081 C988 1.150 1_554 S
C3101 C1817 2.149 . S
C3107 C2450 2.107 . S
C3127 C2487 1.117 . S
C3121 C2081 1.129 . S
C3147 C2518 0.368 . S
C3141 C1993 0.237 . S
C3161 C761 2.790 . S
C3167 C2411 2.749 . S
C3181 C821 1.359 . S
C3187 C2207 1.340 . S
C3201 C2053 1.740 . S
C3207 C2570 1.720 . S
C3227 C2602 1.808 . S
C3221 C1868 1.781 . S
C3247 C2131 2.212 . S
C3241 C372 2.239 . S
C3267 C2601 1.975 . S
C3261 C645 1.988 . S
C3281 C577 1.205 . S
C3287 C2211 1.244 . S
C3301 C497 1.556 . S
C3307 C2558 1.521 . S
C3327 C2278 0.875 . S
C3321 C57 0.877 . S
C3341 C293 0.809 . S
C3347 C2491 0.838 . S
C3367 C2370 1.074 . S
C3361 C205 1.080 . S
C3387 C2647 1.176 . S
C3381 C145 1.154 . S
C3407 C2121 1.941 . S
C3401 C909 1.961 . S
C3427 C2598 0.512 . S
C3421 C1956 0.470 . S
C3441 C724 2.476 . S
C3447 C2201 2.444 . S
C3461 C1780 1.068 . S
C3467 C2571 1.105 . S
C3481 C937 1.188 . S
C3487 C2291 1.211 . S
C3507 C2481 0.648 . S
C3501 C1985 0.650 . S
C3521 C753 1.843 . S
C3527 C2362 1.750 . S
C3541 C1809 1.954 . S
C3547 C2650 1.945 . S
C3561 C1173 1.187 . S
C3567 C2118 1.170 . S
C3581 C1105 2.142 . S
C3587 C2441 2.103 . S
C3601 C1633 1.132 . S
C3607 C2318 1.117 . S
C3621 C1553 0.208 . S
C3627 C2527 0.317 . S
C3647 C2642 2.737 . S
C3641 C1729 2.785 . S
C3661 C1340 1.362 . S
C3667 C2198 1.349 . S
C3687 C2241 1.728 . S
C3681 C1604 1.733 . S
C3707 C2171 1.797 . S
C3701 C1252 1.777 . S
C3721 C489 2.230 . S
C3727 C2682 2.228 . S
C3747 C2610 1.982 . S
C3741 C557 1.997 . S
C3761 C636 1.215 . S
C3767 C2722 1.251 . S
C3781 C409 1.558 . S
C3787 C2567 1.523 . S
C3801 C284 0.873 . S
C3807 C2447 0.871 . S
C3827 C2482 0.846 . S
C3821 C20 0.822 . S
C3847 C2521 1.072 . S
C3841 C137 1.081 . S
C3867 C2638 1.183 . S
C3861 C225 1.166 . S
C3887 C2690 1.937 . S
C3881 C1641 1.959 . S
C3901 C1193 0.566 . S
C3907 C2607 0.590 . S
C3927 C2730 2.450 . S
C3921 C1289 2.483 . S
C3947 C2562 1.103 . S
C3941 C1377 1.099 . S
C3967 C2442 1.211 . S
C3961 C1613 1.205 . S
C3981 C1164 0.658 . S
C3987 C2490 0.655 . S
C4007 C2531 1.761 . S
C4001 C1261 1.848 . S
C4021 C1349 1.956 . S
C4027 C2641 1.945 . S
C4047 C2687 1.132 . S
C4041 C1965 1.159 . S
C4061 C849 2.144 . S
C4067 C2290 2.102 . S
C4087 C2327 1.132 . S
C4081 C929 1.138 . S
C4107 C2358 0.309 . S
C4101 C1017 0.180 . S
C4127 C2651 2.745 . S
C4121 C1897 2.791 . S
C4141 C1789 1.353 . S
C4147 C2727 1.332 . S
C4167 C2250 1.730 . S
C4161 C900 1.741 . S
C4187 C2162 1.805 . S
C4181 C733 1.784 . S
C4201 C548 2.240 . S
C4207 C2691 2.216 . S
C4227 C2161 1.975 . S
C4221 C469 1.992 . S
C4241 C401 1.204 . S
C4247 C2731 1.247 . S
C4261 C673 1.565 . S
C4267 C2238 1.535 . S
C4281 C233 0.879 . S
C4287 C2438 0.866 . S
C4307 C2331 0.831 . S
C4301 C117 0.837 . S
C4321 C29 1.079 . S
C4327 C2530 1.062 . S
C4341 C321 1.169 . S
C4347 C2407 1.177 . S
C4367 C2681 1.939 . S
C4361 C2044 1.960 . S
C4381 C997 0.465 . S
C4387 C2158 0.511 . S
C4407 C2721 2.445 . S
C4401 C1877 2.476 . S
C4421 C812 1.090 . S
C4427 C2251 1.098 . S
C4441 C2073 1.197 . S
C4447 C2451 1.205 . S
C4467 C2321 0.702 . S
C4461 C1025 0.692 . S
C4481 C1905 1.848 . S
C4487 C2522 1.768 1_655 S
C4507 C2410 1.949 . S
C4501 C841 1.964 . S
C4527 C2678 1.134 . S
C4521 C1525 1.164 . S
C4547 C2281 2.112 1_565 S
C4541 C1369 2.143 . S
C4561 C1465 1.129 . S
C4567 C2478 1.116 . S
C4587 C2367 0.296 . S
C4581 C1201 0.193 . S
C4601 C1281 2.787 . S
C4607 C2402 2.735 . S
C4621 C1076 1.355 . S
C4627 C2718 1.333 . S
C4647 C2561 1.718 . S
C4641 C1437 1.734 . S
C4667 C2611 1.797 . S
C4661 C1701 1.782 . S
