# Generated by pormake.
# Topology anh, (6,3)-cn, num edge types: 1
# Building blocks:
#     Node 0, Type 0, BuildingBlock: BETDAH_clean_sbu_0, # of connection points: 6
#     Node 1, Type 0, BuildingBlock: BETDAH_clean_sbu_0, # of connection points: 6
#     Node 2, Type 0, BuildingBlock: BETDAH_clean_sbu_0, # of connection points: 6
#     Node 3, Type 1, BuildingBlock: OLANEW_clean_sbu_2, # of connection points: 3
#     Node 4, Type 1, BuildingBlock: OLANEW_clean_sbu_2, # of connection points: 3
#     Node 5, Type 1, BuildingBlock: OLANEW_clean_sbu_2, # of connection points: 3
#     Node 6, Type 1, BuildingBlock: OLANEW_clean_sbu_2, # of connection points: 3
#     Node 7, Type 1, BuildingBlock: OLANEW_clean_sbu_2, # of connection points: 3
#     Node 8, Type 1, BuildingBlock: OLANEW_clean_sbu_2, # of connection points: 3
#     Edge 9, Type (0, 1), BuildingBlock: TEMPAE_clean_linker_10, # of connection points: 2
#     Edge 10, Type (0, 1), BuildingBlock: TEMPAE_clean_linker_10, # of connection points: 2
#     Edge 11, Type (0, 1), BuildingBlock: TEMPAE_clean_linker_10, # of connection points: 2
#     Edge 12, Type (0, 1), BuildingBlock: TEMPAE_clean_linker_10, # of connection points: 2
#     Edge 13, Type (0, 1), BuildingBlock: TEMPAE_clean_linker_10, # of connection points: 2
#     Edge 14, Type (0, 1), BuildingBlock: TEMPAE_clean_linker_10, # of connection points: 2
#     Edge 15, Type (0, 1), BuildingBlock: TEMPAE_clean_linker_10, # of connection points: 2
#     Edge 16, Type (0, 1), BuildingBlock: TEMPAE_clean_linker_10, # of connection points: 2
#     Edge 17, Type (0, 1), BuildingBlock: TEMPAE_clean_linker_10, # of connection points: 2
#     Edge 18, Type (0, 1), BuildingBlock: TEMPAE_clean_linker_10, # of connection points: 2
#     Edge 19, Type (0, 1), BuildingBlock: TEMPAE_clean_linker_10, # of connection points: 2
#     Edge 20, Type (0, 1), BuildingBlock: TEMPAE_clean_linker_10, # of connection points: 2
#     Edge 21, Type (0, 1), BuildingBlock: TEMPAE_clean_linker_10, # of connection points: 2
#     Edge 22, Type (0, 1), BuildingBlock: TEMPAE_clean_linker_10, # of connection points: 2
#     Edge 23, Type (0, 1), BuildingBlock: TEMPAE_clean_linker_10, # of connection points: 2
#     Edge 24, Type (0, 1), BuildingBlock: TEMPAE_clean_linker_10, # of connection points: 2
#     Edge 25, Type (0, 1), BuildingBlock: TEMPAE_clean_linker_10, # of connection points: 2
#     Edge 26, Type (0, 1), BuildingBlock: TEMPAE_clean_linker_10, # of connection points: 2
# Relax obj value: 0.140
# Max RMSD: 0.171
# Mean RMSD: 0.115
data_MOF--net-anh--node1-BETDAH_clean_sbu_0--node2-OLANEW_clean_sbu_2--edge1-TEMPAE_clean_linker_10
_symmetry_space_group_name_H-M    P1
_symmetry_Int_Tables_number       1
_symmetry_cell_setting            triclinic
loop_
_symmetry_equiv_pos_as_xyz
'x, y, z'
_cell_length_a     37.759809
_cell_length_b     42.007557
_cell_length_c     50.910583
_cell_angle_alpha  92.011872
_cell_angle_beta   89.649304
_cell_angle_gamma 130.35749
loop_
_atom_site_label
_atom_site_type_symbol
_atom_site_fract_x
_atom_site_fract_y
_atom_site_fract_z
_atom_type_partial_charge
Ho0 Ho 0.04594 0.48782 0.1199 0.0
Ho1 Ho 0.99106 0.51877 0.14065 0.0
C2 C 0.10279 0.58737 0.13305 0.0
C3 C 0.09794 0.47761 0.09532 0.0
C4 C 0.14418 0.49311 0.10303 0.0
C5 C 0.16847 0.48556 0.08698 0.0
C6 C 0.21129 0.49838 0.0956 0.0
C7 C 0.23016 0.51873 0.12046 0.0
C8 C 0.20576 0.52678 0.13618 0.0
C9 C 0.16334 0.51425 0.1275 0.0
C10 C 0.03453 0.48734 0.17231 0.0
C11 C 0.93584 0.42099 0.12651 0.0
C12 C 0.95072 0.53697 0.17062 0.0
C13 C 0.90515 0.52633 0.17215 0.0
C14 C 0.87623 0.50351 0.19328 0.0
C15 C 0.83304 0.4933 0.19529 0.0
C16 C 0.81811 0.50608 0.17631 0.0
C17 C 0.84724 0.52907 0.1552 0.0
C18 C 0.89025 0.539 0.15309 0.0
C19 C 0.98551 0.50696 0.08731 0.0
O20 O 0.10332 0.55787 0.12347 0.0
O21 O 0.06473 0.57932 0.14197 0.0
O22 O 0.06474 0.44995 0.11085 0.0
O23 O 0.09575 0.50644 0.08953 0.0
O24 O 0.04177 0.46456 0.15998 0.0
O25 O 0.04085 0.51328 0.15686 0.0
O26 O 0.9378 0.44875 0.14125 0.0
O27 O 0.97123 0.43038 0.1127 0.0
O28 O 0.97784 0.56036 0.15138 0.0
O29 O 0.95076 0.50642 0.17491 0.0
O30 O 0.9653 0.51868 0.0998 0.0
O31 O 1.00528 0.50211 0.10418 0.0
H32 H 0.15407 0.46931 0.06801 0.0
H33 H 0.22947 0.49216 0.0829 0.0
H34 H 0.21867 0.54163 0.1556 0.0
H35 H 0.14485 0.52018 0.14019 0.0
H36 H 0.88706 0.49352 0.20827 0.0
H37 H 0.81127 0.47522 0.21164 0.0
H38 H 0.8372 0.5401 0.14051 0.0
H39 H 0.91184 0.55682 0.13662 0.0
Ho40 Ho 0.55286 0.0139 0.48773 0.0
Ho41 Ho 0.49793 0.04094 0.47213 0.0
C42 C 0.44148 0.9435 0.47354 0.0
C43 C 0.58195 0.98106 0.51144 0.0
C44 C 0.56873 0.93966 0.51275 0.0
C45 C 0.57058 0.92626 0.5371 0.0
C46 C 0.55949 0.88764 0.5389 0.0
C47 C 0.54668 0.86172 0.51628 0.0
C48 C 0.5439 0.87489 0.49192 0.0
C49 C 0.55468 0.91348 0.49017 0.0
C50 C 0.55188 0.02442 0.436 0.0
C51 C 0.61027 0.11094 0.48291 0.0
C52 C 0.46881 0.07612 0.45182 0.0
C53 C 0.48144 0.11706 0.45653 0.0
C54 C 0.45673 0.12654 0.44372 0.0
C55 C 0.4664 0.16428 0.44969 0.0
C56 C 0.50083 0.19299 0.46866 0.0
C57 C 0.52632 0.18371 0.48094 0.0
C58 C 0.51665 0.14604 0.47494 0.0
C59 C 0.50194 0.03214 0.52406 0.0
O60 O 0.47851 0.95247 0.48515 0.0
O61 O 0.44239 0.97249 0.46331 0.0
O62 O 0.59858 0.99989 0.4892 0.0
O63 O 0.55301 0.9848 0.52191 0.0
O64 O 0.58642 0.03138 0.44833 0.0
O65 O 0.51803 0.00854 0.4511 0.0
O66 O 0.57274 0.10085 0.47127 0.0
O67 O 0.60929 0.08287 0.49473 0.0
O68 O 0.4488 0.05117 0.47145 0.0
O69 O 0.50074 0.07656 0.4412 0.0
O70 O 0.46625 0.02377 0.51239 0.0
O71 O 0.53439 0.04768 0.50815 0.0
H72 H 0.58083 0.94583 0.55477 0.0
H73 H 0.56093 0.87807 0.55806 0.0
H74 H 0.5344 0.85584 0.47411 0.0
H75 H 0.55255 0.92303 0.47117 0.0
H76 H 0.4293 0.10437 0.42954 0.0
H77 H 0.4459 0.17037 0.44009 0.0
H78 H 0.55345 0.20542 0.49537 0.0
H79 H 0.53604 0.13915 0.48505 0.0
Ho80 Ho 0.56533 0.55721 0.85212 0.0
Ho81 Ho 0.49942 0.46623 0.86629 0.0
C82 C 0.45435 0.50811 0.8593 0.0
C83 C 0.60418 0.62754 0.83046 0.0
C84 C 0.59265 0.65469 0.82622 0.0
C85 C 0.55823 0.64337 0.80776 0.0
C86 C 0.54855 0.66987 0.80374 0.0
C87 C 0.57289 0.70812 0.81814 0.0
C88 C 0.60712 0.7193 0.83663 0.0
C89 C 0.61705 0.69299 0.84052 0.0
C90 C 0.55508 0.54365 0.90409 0.0
C91 C 0.61161 0.5167 0.86126 0.0
C92 C 0.46125 0.39506 0.88627 0.0
C93 C 0.46987 0.36592 0.88142 0.0
C94 C 0.45268 0.33328 0.89832 0.0
C95 C 0.46049 0.30529 0.89315 0.0
C96 C 0.48529 0.30949 0.87088 0.0
C97 C 0.50313 0.34277 0.85432 0.0
C98 C 0.49566 0.37081 0.8596 0.0
C99 C 0.5093 0.47921 0.81432 0.0
O100 O 0.49351 0.53802 0.84745 0.0
O101 O 0.45072 0.4793 0.8722 0.0
O102 O 0.61279 0.62484 0.85475 0.0
O103 O 0.57941 0.59154 0.81733 0.0
O104 O 0.5942 0.57396 0.89374 0.0
O105 O 0.52342 0.52383 0.88674 0.0
O106 O 0.57088 0.48491 0.87084 0.0
O107 O 0.61702 0.54724 0.8496 0.0
O108 O 0.44329 0.39944 0.86629 0.0
O109 O 0.49541 0.43088 0.89792 0.0
O110 O 0.47072 0.44849 0.82477 0.0
O111 O 0.54116 0.49944 0.83159 0.0
H112 H 0.53878 0.61412 0.79635 0.0
H113 H 0.52174 0.66028 0.78949 0.0
H114 H 0.62688 0.74882 0.84777 0.0
H115 H 0.64405 0.70273 0.85467 0.0
H116 H 0.43295 0.32925 0.91534 0.0
H117 H 0.44629 0.27987 0.90619 0.0
H118 H 0.523 0.34716 0.83727 0.0
H119 H 0.50972 0.39618 0.84651 0.0
O120 O 0.54972 0.05602 0.22598 0.0
Cd121 Cd 0.54764 0.06409 0.17875 0.0
O122 O 0.50097 0.98709 0.227 0.0
Cd123 Cd 0.47818 0.96803 0.1859 0.0
O124 O 0.4213 0.90913 0.16522 0.0
C125 C 0.40076 0.8777 0.17965 0.0
O126 O 0.41602 0.88377 0.20398 0.0
C127 C 0.52843 0.02284 0.23877 0.0
C128 C 0.63219 0.13907 0.16336 0.0
O129 O 0.60178 0.13861 0.1751 0.0
O130 O 0.62274 0.1041 0.15856 0.0
O131 O 0.54835 0.50609 0.60379 0.0
Cd132 Cd 0.54876 0.5103 0.55598 0.0
O133 O 0.52801 0.54429 0.61049 0.0
Cd134 Cd 0.52662 0.55726 0.56959 0.0
O135 O 0.52227 0.59647 0.5454 0.0
C136 C 0.49448 0.60165 0.5538 0.0
O137 O 0.4694 0.58115 0.57434 0.0
C138 C 0.5382 0.5232 0.61948 0.0
C139 C 0.53978 0.44465 0.53181 0.0
O140 O 0.57993 0.47991 0.5375 0.0
O141 O 0.50394 0.44069 0.53725 0.0
O142 O 0.06827 0.50748 0.89048 0.0
Cd143 Cd 0.11852 0.52075 0.85273 0.0
O144 O 0.02073 0.51697 0.87511 0.0
Cd145 Cd 0.96198 0.51814 0.87764 0.0
O146 O 0.90051 0.51479 0.87169 0.0
C147 C 0.88879 0.53004 0.88813 0.0
O148 O 0.91375 0.54872 0.90991 0.0
C149 C 0.03546 0.50861 0.89393 0.0
C150 C 0.18913 0.51476 0.859 0.0
O151 O 0.19596 0.54787 0.86646 0.0
O152 O 0.14869 0.48394 0.84954 0.0
O153 O 0.05853 0.55205 0.38135 0.0
Cd154 Cd 0.0577 0.56935 0.42758 0.0
O155 O 0.01125 0.48319 0.38203 0.0
Cd156 Cd 0.98995 0.47344 0.423 0.0
O157 O 0.93301 0.4217 0.44592 0.0
C158 C 0.91215 0.38614 0.43438 0.0
O159 O 0.92749 0.38456 0.41154 0.0
C160 C 0.03783 0.5167 0.36955 0.0
C161 C 0.14142 0.64915 0.44068 0.0
O162 O 0.13422 0.6165 0.44793 0.0
O163 O 0.10907 0.64418 0.42775 0.0
O164 O 0.51258 0.9808 0.72985 0.0
Cd165 Cd 0.51176 0.97141 0.77709 0.0
O166 O 0.52421 0.03941 0.73384 0.0
Cd167 Cd 0.5209 0.04494 0.77646 0.0
O168 O 0.51264 0.07913 0.80568 0.0
C169 C 0.54439 0.11869 0.80716 0.0
O170 O 0.58154 0.13609 0.79289 0.0
C171 C 0.51906 0.01125 0.71944 0.0
C172 C 0.52336 0.91345 0.78701 0.0
O173 O 0.48276 0.90177 0.78368 0.0
O174 O 0.55842 0.95253 0.7858 0.0
O175 O 0.47595 0.49243 0.11045 0.0
Cd176 Cd 0.46963 0.48626 0.15813 0.0
O177 O 0.52701 0.56136 0.11218 0.0
Cd178 Cd 0.5296 0.56711 0.15494 0.0
O179 O 0.53469 0.57799 0.19765 0.0
C180 C 0.50489 0.5771 0.21025 0.0
O181 O 0.50774 0.58059 0.23604 0.0
C182 C 0.50226 0.52687 0.09887 0.0
C183 C 0.53872 0.48499 0.17462 0.0
O184 O 0.49751 0.45072 0.16933 0.0
O185 O 0.54636 0.51932 0.17316 0.0
C186 C 0.2826 0.5023 0.12689 0.0
C187 C 0.27389 0.52991 0.13075 0.0
C188 C 0.32162 0.51074 0.13857 0.0
C189 C 0.35226 0.54736 0.15478 0.0
C190 C 0.34443 0.57593 0.15816 0.0
C191 C 0.30559 0.56704 0.14592 0.0
C192 C 0.32933 0.4799 0.1342 0.0
C193 C 0.37627 0.61526 0.17537 0.0
C194 C 0.42238 0.54691 0.20761 0.0
C195 C 0.46617 0.57015 0.19623 0.0
C196 C 0.38494 0.53925 0.1943 0.0
C197 C 0.39157 0.55511 0.16899 0.0
C198 C 0.43588 0.57897 0.15755 0.0
C199 C 0.47287 0.58686 0.17155 0.0
C200 C 0.3383 0.51417 0.2073 0.0
C201 C 0.44427 0.59623 0.13056 0.0
H202 H 0.2581 0.47334 0.11545 0.0
H203 H 0.29966 0.58897 0.14857 0.0
H204 H 0.36511 0.49615 0.1273 0.0
H205 H 0.32577 0.46564 0.15304 0.0
H206 H 0.3042 0.45448 0.11959 0.0
H207 H 0.36605 0.63481 0.17535 0.0
H208 H 0.37579 0.60692 0.19589 0.0
H209 H 0.41258 0.63423 0.16867 0.0
H210 H 0.41726 0.5343 0.22682 0.0
H211 H 0.50725 0.60676 0.16333 0.0
H212 H 0.31172 0.48576 0.19495 0.0
H213 H 0.32707 0.53287 0.20915 0.0
H214 H 0.33908 0.50445 0.22715 0.0
H215 H 0.41932 0.57064 0.11603 0.0
H216 H 0.48015 0.61217 0.12389 0.0
H217 H 0.43834 0.61887 0.13067 0.0
C218 C 0.65665 0.18403 0.46793 0.0
C219 C 0.6548 0.15445 0.48147 0.0
C220 C 0.69922 0.22369 0.46337 0.0
C221 C 0.74104 0.23419 0.47266 0.0
C222 C 0.73925 0.20546 0.48769 0.0
C223 C 0.69614 0.16587 0.49187 0.0
C224 C 0.69954 0.2534 0.44728 0.0
C225 C 0.78303 0.21565 0.49816 0.0
C226 C 0.84676 0.30901 0.43124 0.0
C227 C 0.86991 0.34726 0.44534 0.0
C228 C 0.80535 0.27202 0.44023 0.0
C229 C 0.78653 0.27308 0.46404 0.0
C230 C 0.81022 0.31133 0.47877 0.0
C231 C 0.85164 0.34805 0.46921 0.0
C232 C 0.78115 0.23191 0.42387 0.0
C233 C 0.79134 0.31356 0.50434 0.0
H234 H 0.62493 0.17574 0.46 0.0
H235 H 0.69511 0.14341 0.50252 0.0
H236 H 0.72128 0.2849 0.45717 0.0
H237 H 0.71503 0.25669 0.42791 0.0
H238 H 0.66403 0.24236 0.44389 0.0
H239 H 0.77548 0.1924 0.51223 0.0
H240 H 0.80259 0.21617 0.48158 0.0
H241 H 0.80595 0.24713 0.50811 0.0
H242 H 0.86058 0.30797 0.41282 0.0
H243 H 0.86936 0.37744 0.48027 0.0
H244 H 0.74625 0.21987 0.4174 0.0
H245 H 0.77599 0.20766 0.43581 0.0
H246 H 0.801 0.23619 0.40618 0.0
H247 H 0.75745 0.30562 0.50062 0.0
H248 H 0.81532 0.34509 0.51425 0.0
H249 H 0.78501 0.2903 0.51789 0.0
C250 C 0.55884 0.75584 0.83499 0.0
C251 C 0.56329 0.7367 0.81364 0.0
C252 C 0.55113 0.78387 0.83104 0.0
C253 C 0.54818 0.79327 0.80511 0.0
C254 C 0.55228 0.77378 0.78348 0.0
C255 C 0.55959 0.7456 0.788 0.0
C256 C 0.54646 0.80366 0.85462 0.0
C257 C 0.54971 0.78322 0.75554 0.0
C258 C 0.49094 0.84004 0.79344 0.0
C259 C 0.52962 0.88271 0.79188 0.0
C260 C 0.49644 0.81059 0.7978 0.0
C261 C 0.5417 0.8241 0.80063 0.0
C262 C 0.58086 0.86711 0.79913 0.0
C263 C 0.57436 0.89588 0.79481 0.0
C264 C 0.45382 0.76502 0.79935 0.0
C265 C 0.6297 0.88274 0.80201 0.0
H266 H 0.56112 0.74868 0.85483 0.0
H267 H 0.56351 0.73123 0.77144 0.0
H268 H 0.57442 0.83812 0.85475 0.0
H269 H 0.51281 0.79689 0.85346 0.0
H270 H 0.54843 0.79226 0.87346 0.0
H271 H 0.5527 0.76487 0.7409 0.0
H272 H 0.51633 0.77627 0.75191 0.0
H273 H 0.57804 0.81698 0.75236 0.0
H274 H 0.45624 0.82955 0.79121 0.0
H275 H 0.60445 0.92875 0.79363 0.0
H276 H 0.45355 0.7532 0.81857 0.0
H277 H 0.4546 0.74628 0.78384 0.0
H278 H 0.42106 0.75964 0.79699 0.0
H279 H 0.63435 0.87443 0.82138 0.0
H280 H 0.65645 0.91716 0.80033 0.0
H281 H 0.63577 0.8674 0.78669 0.0
C282 C 0.74519 0.48558 0.15632 0.0
C283 C 0.77294 0.49656 0.17875 0.0
C284 C 0.70466 0.48035 0.15788 0.0
C285 C 0.6912 0.48565 0.18254 0.0
C286 C 0.71766 0.49457 0.20548 0.0
C287 C 0.75845 0.50021 0.20329 0.0
C288 C 0.67739 0.47097 0.13295 0.0
C289 C 0.704 0.49991 0.23214 0.0
C290 C 0.62335 0.523 0.17905 0.0
C291 C 0.57738 0.48537 0.18001 0.0
C292 C 0.66076 0.5236 0.18067 0.0
C293 C 0.652 0.48572 0.18378 0.0
C294 C 0.6058 0.44791 0.18619 0.0
C295 C 0.56889 0.44811 0.18404 0.0
C296 C 0.70955 0.56451 0.17774 0.0
C297 C 0.59532 0.4071 0.19007 0.0
H298 H 0.75561 0.48177 0.1374 0.0
H299 H 0.77985 0.50899 0.2207 0.0
H300 H 0.64032 0.44299 0.13513 0.0
H301 H 0.67877 0.49759 0.12909 0.0
H302 H 0.69107 0.46549 0.1156 0.0
H303 H 0.72485 0.50161 0.24832 0.0
H304 H 0.70915 0.52909 0.23304 0.0
H305 H 0.66663 0.47362 0.23547 0.0
H306 H 0.63017 0.55192 0.1759 0.0
H307 H 0.53341 0.41898 0.18495 0.0
H308 H 0.72472 0.56282 0.15956 0.0
H309 H 0.73202 0.57047 0.19451 0.0
H310 H 0.71054 0.59145 0.17668 0.0
H311 H 0.60387 0.3979 0.17202 0.0
H312 H 0.55817 0.38145 0.19446 0.0
H313 H 0.61716 0.41067 0.20637 0.0
C314 C 0.40005 0.86802 0.4636 0.0
C315 C 0.39839 0.89953 0.47072 0.0
C316 C 0.35893 0.82645 0.4592 0.0
C317 C 0.31534 0.81607 0.46305 0.0
C318 C 0.31376 0.84768 0.47135 0.0
C319 C 0.35532 0.8892 0.47454 0.0
C320 C 0.36209 0.794 0.44949 0.0
C321 C 0.26817 0.83771 0.47664 0.0
C322 C 0.20613 0.72166 0.42741 0.0
C323 C 0.18616 0.6914 0.44645 0.0
C324 C 0.24894 0.76191 0.43229 0.0
C325 C 0.27129 0.77266 0.45722 0.0
C326 C 0.25087 0.74226 0.47666 0.0
C327 C 0.20895 0.70164 0.47083 0.0
C328 C 0.2703 0.7929 0.41071 0.0
C329 C 0.27266 0.75293 0.5038 0.0
H330 H 0.43347 0.87619 0.4605 0.0
H331 H 0.3542 0.91362 0.48033 0.0
H332 H 0.34362 0.76754 0.46286 0.0
H333 H 0.34478 0.78115 0.42984 0.0
H334 H 0.39864 0.80701 0.44793 0.0
H335 H 0.27321 0.86505 0.48536 0.0
H336 H 0.24764 0.82748 0.45806 0.0
H337 H 0.2473 0.81156 0.49023 0.0
H338 H 0.18866 0.71352 0.40846 0.0
H339 H 0.19324 0.67821 0.48559 0.0
H340 H 0.30645 0.80574 0.40741 0.0
H341 H 0.27202 0.81954 0.4166 0.0
H342 H 0.25023 0.77865 0.39186 0.0
H343 H 0.30827 0.76374 0.50252 0.0
H344 H 0.25207 0.72588 0.51678 0.0
H345 H 0.2758 0.779 0.51306 0.0
C346 C 0.50778 0.26736 0.88363 0.0
C347 C 0.49197 0.27896 0.86444 0.0
C348 C 0.51633 0.24006 0.87719 0.0
C349 C 0.5084 0.22376 0.85104 0.0
C350 C 0.49129 0.23459 0.83179 0.0
C351 C 0.48346 0.26216 0.8387 0.0
C352 C 0.53489 0.22947 0.89819 0.0
C353 C 0.48192 0.2176 0.80374 0.0
C354 C 0.57197 0.18888 0.82246 0.0
C355 C 0.53708 0.1452 0.82172 0.0
C356 C 0.56377 0.2148 0.83313 0.0
C357 C 0.51957 0.19665 0.84329 0.0
C358 C 0.48495 0.15258 0.84382 0.0
C359 C 0.49413 0.12736 0.83307 0.0
C360 C 0.60173 0.26166 0.83233 0.0
C361 C 0.43741 0.13205 0.85454 0.0
H362 H 0.51466 0.28053 0.9035 0.0
H363 H 0.47059 0.2706 0.82392 0.0
H364 H 0.51245 0.19506 0.89943 0.0
H365 H 0.57014 0.24149 0.89299 0.0
H366 H 0.53699 0.24303 0.91784 0.0
H367 H 0.46694 0.2278 0.79142 0.0
H368 H 0.51473 0.22823 0.79482 0.0
H369 H 0.4575 0.18292 0.80326 0.0
H370 H 0.60539 0.203 0.81392 0.0
H371 H 0.46699 0.09365 0.83267 0.0
H372 H 0.60683 0.27661 0.85194 0.0
H373 H 0.59146 0.27425 0.81835 0.0
H374 H 0.63539 0.27084 0.82608 0.0
H375 H 0.44052 0.14579 0.87428 0.0
H376 H 0.41603 0.09774 0.856 0.0
H377 H 0.4188 0.13781 0.84149 0.0
C378 C 0.56478 0.81923 0.53491 0.0
C379 C 0.53718 0.82156 0.51822 0.0
C380 C 0.5554 0.78141 0.53798 0.0
C381 C 0.51784 0.745 0.52372 0.0
C382 C 0.49064 0.74728 0.5062 0.0
C383 C 0.50048 0.78552 0.50375 0.0
C384 C 0.58517 0.78028 0.55695 0.0
C385 C 0.45061 0.70917 0.49049 0.0
C386 C 0.52309 0.65778 0.52201 0.0
C387 C 0.49512 0.63445 0.54328 0.0
C388 C 0.52862 0.69254 0.51429 0.0
C389 C 0.50604 0.70438 0.52837 0.0
C390 C 0.47579 0.67958 0.54889 0.0
C391 C 0.47051 0.6448 0.556 0.0
C392 C 0.56052 0.71782 0.49199 0.0
C393 C 0.45122 0.69125 0.56446 0.0
H394 H 0.59388 0.84709 0.54568 0.0
H395 H 0.47875 0.78695 0.49095 0.0
H396 H 0.56332 0.75844 0.57273 0.0
H397 H 0.60085 0.76849 0.54662 0.0
H398 H 0.61355 0.81154 0.56619 0.0
H399 H 0.43521 0.71685 0.47622 0.0
H400 H 0.46233 0.6942 0.4796 0.0
H401 H 0.42307 0.68583 0.50395 0.0
H402 H 0.54189 0.64976 0.51192 0.0
H403 H 0.44858 0.62682 0.57235 0.0
H404 H 0.59264 0.74827 0.49993 0.0
H405 H 0.5437 0.72456 0.47818 0.0
H406 H 0.5705 0.70152 0.48089 0.0
H407 H 0.47719 0.7208 0.57608 0.0
H408 H 0.42572 0.66671 0.57818 0.0
H409 H 0.43276 0.69678 0.55108 0.0
C410 C 0.64641 0.48492 0.87543 0.0
C411 C 0.65176 0.51749 0.86352 0.0
C412 C 0.6841 0.48571 0.87844 0.0
C413 C 0.72861 0.51988 0.86937 0.0
C414 C 0.73408 0.55249 0.85692 0.0
C415 C 0.69578 0.55093 0.85416 0.0
C416 C 0.67637 0.45019 0.8918 0.0
C417 C 0.78068 0.58946 0.84683 0.0
C418 C 0.83563 0.54425 0.90151 0.0
C419 C 0.84768 0.52717 0.88302 0.0
C420 C 0.79726 0.5421 0.89727 0.0
C421 C 0.76977 0.52239 0.87392 0.0
C422 C 0.78167 0.50507 0.85513 0.0
C423 C 0.82033 0.50764 0.85988 0.0
C424 C 0.78609 0.56098 0.91791 0.0
C425 C 0.75349 0.48376 0.82997 0.0
H426 H 0.6127 0.45877 0.88267 0.0
H427 H 0.70055 0.57624 0.84486 0.0
H428 H 0.68785 0.43658 0.879 0.0
H429 H 0.6976 0.46213 0.91024 0.0
H430 H 0.63933 0.42496 0.89664 0.0
H431 H 0.77892 0.61136 0.83661 0.0
H432 H 0.80617 0.60681 0.86344 0.0
H433 H 0.79407 0.5786 0.833 0.0
H434 H 0.85628 0.55944 0.91946 0.0
H435 H 0.82911 0.49431 0.84541 0.0
H436 H 0.75039 0.53661 0.92508 0.0
H437 H 0.78701 0.58537 0.90923 0.0
H438 H 0.81078 0.57527 0.93499 0.0
H439 H 0.71684 0.45707 0.83453 0.0
H440 H 0.7672 0.472 0.81727 0.0
H441 H 0.75338 0.50587 0.81875 0.0
C442 C 0.14818 0.66318 0.14544 0.0
C443 C 0.14748 0.63103 0.13584 0.0
C444 C 0.19026 0.70396 0.15021 0.0
C445 C 0.23283 0.71298 0.14527 0.0
C446 C 0.23242 0.68111 0.13468 0.0
C447 C 0.18977 0.64052 0.13008 0.0
C448 C 0.18916 0.73704 0.16153 0.0
C449 C 0.27708 0.6895 0.12912 0.0
C450 C 0.34163 0.82794 0.1443 0.0
C451 C 0.35923 0.83529 0.17003 0.0
C452 C 0.30108 0.78801 0.13567 0.0
C453 C 0.27756 0.75481 0.15324 0.0
C454 C 0.29568 0.76193 0.17905 0.0
C455 C 0.33624 0.80196 0.18708 0.0
C456 C 0.2829 0.78153 0.10796 0.0
C457 C 0.27161 0.72743 0.19843 0.0
H458 H 0.1158 0.65638 0.14979 0.0
H459 H 0.18974 0.61603 0.1226 0.0
H460 H 0.20476 0.74684 0.18166 0.0
H461 H 0.21021 0.76515 0.1495 0.0
H462 H 0.15326 0.72577 0.16253 0.0
H463 H 0.27083 0.6624 0.11889 0.0
H464 H 0.29984 0.7172 0.11686 0.0
H465 H 0.29626 0.69668 0.14785 0.0
H466 H 0.35923 0.85346 0.13097 0.0
H467 H 0.34954 0.80723 0.20699 0.0
H468 H 0.24833 0.77307 0.10843 0.0
H469 H 0.27818 0.75518 0.09778 0.0
H470 H 0.30653 0.80989 0.09631 0.0
H471 H 0.23632 0.71639 0.20223 0.0
H472 H 0.29104 0.73774 0.21748 0.0
H473 H 0.26736 0.70033 0.19013 0.0
C474 C 0.51336 0.24338 0.50326 0.0
C475 C 0.50866 0.23154 0.47657 0.0
C476 C 0.51927 0.27887 0.51125 0.0
C477 C 0.52061 0.30322 0.49209 0.0
C478 C 0.51637 0.29173 0.46508 0.0
C479 C 0.51031 0.25592 0.45764 0.0
C480 C 0.52339 0.28995 0.54026 0.0
C481 C 0.51794 0.3171 0.44409 0.0
C482 C 0.49069 0.37 0.51551 0.0
C483 C 0.5349 0.40916 0.52008 0.0
C484 C 0.48554 0.33548 0.50581 0.0
C485 C 0.52556 0.34024 0.50049 0.0
C486 C 0.57026 0.37991 0.50441 0.0
C487 C 0.5744 0.41389 0.51419 0.0
C488 C 0.43727 0.29365 0.5019 0.0
C489 C 0.61373 0.38623 0.49886 0.0
H490 H 0.51139 0.2243 0.518 0.0
H491 H 0.50714 0.24712 0.43697 0.0
H492 H 0.55633 0.3222 0.54457 0.0
H493 H 0.49449 0.28921 0.54602 0.0
H494 H 0.52256 0.26821 0.55262 0.0
H495 H 0.51519 0.3045 0.42394 0.0
H496 H 0.48905 0.31752 0.44667 0.0
H497 H 0.55087 0.34998 0.44596 0.0
H498 H 0.45997 0.36606 0.51995 0.0
H499 H 0.6087 0.44406 0.51758 0.0
H500 H 0.43259 0.27089 0.51524 0.0
H501 H 0.43248 0.28114 0.48148 0.0
H502 H 0.40972 0.29558 0.50584 0.0
H503 H 0.61613 0.36737 0.51223 0.0
H504 H 0.64577 0.4195 0.5015 0.0
H505 H 0.61231 0.37522 0.47845 0.0
C506 C 0.4138 0.53289 0.84186 0.0
C507 C 0.41515 0.50869 0.85949 0.0
C508 C 0.37711 0.53383 0.84189 0.0
C509 C 0.34102 0.51055 0.86029 0.0
C510 C 0.34252 0.48646 0.87834 0.0
C511 C 0.37919 0.48553 0.87757 0.0
C512 C 0.37683 0.55954 0.82204 0.0
C513 C 0.30546 0.46181 0.89863 0.0
C514 C 0.26833 0.54301 0.87494 0.0
C515 C 0.22728 0.51281 0.86022 0.0
C516 C 0.30519 0.5423 0.87547 0.0
C517 C 0.30156 0.51112 0.8605 0.0
C518 C 0.2602 0.48057 0.84561 0.0
C519 C 0.22355 0.48155 0.84584 0.0
C520 C 0.34814 0.57505 0.89202 0.0
C521 C 0.25492 0.44715 0.82903 0.0
H522 H 0.44126 0.55088 0.82777 0.0
H523 H 0.38 0.46703 0.89147 0.0
H524 H 0.34455 0.53913 0.80974 0.0
H525 H 0.377 0.58338 0.83228 0.0
H526 H 0.40722 0.57568 0.80896 0.0
H527 H 0.31222 0.4456 0.91176 0.0
H528 H 0.30339 0.48293 0.91086 0.0
H529 H 0.27103 0.43812 0.88876 0.0
H530 H 0.27166 0.56726 0.88618 0.0
H531 H 0.19224 0.45823 0.83424 0.0
H532 H 0.37884 0.59415 0.87929 0.0
H533 H 0.35485 0.55978 0.90606 0.0
H534 H 0.34499 0.59622 0.90328 0.0
H535 H 0.28294 0.46188 0.81441 0.0
H536 H 0.2208 0.42584 0.81841 0.0
H537 H 0.25851 0.4283 0.84159 0.0
C538 C 0.89259 0.34711 0.13753 0.0
C539 C 0.89254 0.37728 0.12681 0.0
C540 C 0.85061 0.30692 0.14214 0.0
C541 C 0.80785 0.29649 0.13503 0.0
C542 C 0.80802 0.32637 0.12278 0.0
C543 C 0.85041 0.36677 0.11935 0.0
C544 C 0.85197 0.27656 0.15605 0.0
C545 C 0.76338 0.31616 0.11411 0.0
C546 C 0.69872 0.18146 0.13276 0.0
C547 C 0.67718 0.17897 0.15604 0.0
C548 C 0.74096 0.21964 0.1254 0.0
C549 C 0.76295 0.25567 0.14228 0.0
C550 C 0.74175 0.25293 0.16614 0.0
C551 C 0.69868 0.2148 0.17246 0.0
C552 C 0.76158 0.22165 0.09938 0.0
C553 C 0.76472 0.2902 0.18511 0.0
H554 H 0.92535 0.35572 0.14369 0.0
H555 H 0.85064 0.3904 0.11117 0.0
H556 H 0.83589 0.27042 0.17558 0.0
H557 H 0.83147 0.2462 0.1448 0.0
H558 H 0.888 0.28861 0.15894 0.0
H559 H 0.76981 0.34082 0.10193 0.0
H560 H 0.74106 0.28593 0.10265 0.0
H561 H 0.74372 0.31284 0.1316 0.0
H562 H 0.68188 0.15377 0.11997 0.0
H563 H 0.68221 0.21277 0.1906 0.0
H564 H 0.79672 0.23191 0.10254 0.0
H565 H 0.76563 0.24514 0.08714 0.0
H566 H 0.73974 0.19102 0.0883 0.0
H567 H 0.8005 0.30312 0.1902 0.0
H568 H 0.74508 0.28218 0.20355 0.0
H569 H 0.76765 0.31527 0.17579 0.0
C570 C 0.94884 0.48691 0.04258 0.0
C571 C 0.98767 0.50333 0.05862 0.0
C572 C 0.95096 0.48414 0.01509 0.0
C573 C 0.99355 0.49995 0.00351 0.0
C574 C 0.03304 0.51713 0.01979 0.0
C575 C 0.02931 0.51785 0.04721 0.0
C576 C 0.90766 0.46403 0.9985 0.0
C577 C 0.07952 0.53562 0.00828 0.0
C578 C 1.0046 0.46909 0.93497 0.0
C579 C 0.01702 0.50264 0.92054 0.0
C580 C 0.99359 0.46628 0.96164 0.0
C581 C 0.99732 0.49889 0.97439 0.0
C582 C 0.00858 0.53227 0.95962 0.0
C583 C 0.01746 0.53331 0.93268 0.0
C584 C 0.97979 0.42927 0.97638 0.0
C585 C 0.01445 0.56836 0.97259 0.0
H586 H 0.91661 0.47559 0.05157 0.0
H587 H 0.05949 0.53125 0.05972 0.0
H588 H 0.91294 0.48714 0.98527 0.0
H589 H 0.90034 0.43821 0.98585 0.0
H590 H 0.87679 0.45133 0.01063 0.0
H591 H 0.10722 0.54942 0.02364 0.0
H592 H 0.07682 0.51118 0.99679 0.0
H593 H 0.09015 0.56031 0.99457 0.0
H594 H 1.00428 0.44539 0.92547 0.0
H595 H 0.02773 0.55954 0.92151 0.0
H596 H 0.94882 0.41651 0.98841 0.0
H597 H 0.00846 0.4393 0.99002 0.0
H598 H 0.97192 0.40392 0.96292 0.0
H599 H 0.98335 0.55681 0.98405 0.0
H600 H 0.02043 0.59049 0.9581 0.0
H601 H 0.04455 0.58567 0.9866 0.0
C602 C 0.51085 0.01859 0.39541 0.0
C603 C 0.54991 0.02761 0.40738 0.0
C604 C 0.50818 0.02014 0.36804 0.0
C605 C 0.54521 0.03043 0.35235 0.0
C606 C 0.58505 0.04023 0.36446 0.0
C607 C 0.58702 0.03894 0.39186 0.0
C608 C 0.46537 0.00999 0.35588 0.0
C609 C 0.62506 0.05098 0.34841 0.0
C610 C 0.51723 0.98962 0.28132 0.0
C611 C 0.53417 0.02543 0.26777 0.0
C612 C 0.52079 0.99093 0.3088 0.0
C613 C 0.54136 0.02888 0.32319 0.0
C614 C 0.5586 0.0652 0.3097 0.0
C615 C 0.55506 0.06312 0.28212 0.0
C616 C 0.50251 0.95164 0.32245 0.0
C617 C 0.58038 0.10613 0.32442 0.0
H618 H 0.4822 0.00997 0.40742 0.0
H619 H 0.61733 0.04603 0.4011 0.0
H620 H 0.47539 0.03549 0.34315 0.0
H621 H 0.44666 0.98105 0.34322 0.0
H622 H 0.44113 0.00539 0.37093 0.0
H623 H 0.65419 0.05925 0.36091 0.0
H624 H 0.61288 0.02399 0.3351 0.0
H625 H 0.63839 0.07764 0.33589 0.0
H626 H 0.50118 0.96039 0.27042 0.0
H627 H 0.56798 0.09088 0.27184 0.0
H628 H 0.47494 0.94303 0.33626 0.0
H629 H 0.53082 0.9572 0.33423 0.0
H630 H 0.48796 0.92477 0.30838 0.0
H631 H 0.55517 0.10209 0.33838 0.0
H632 H 0.59174 0.13142 0.31104 0.0
H633 H 0.61094 0.11611 0.3362 0.0
C634 C 0.47748 0.46144 0.76853 0.0
C635 C 0.51578 0.48637 0.78592 0.0
C636 C 0.48269 0.46773 0.74144 0.0
C637 C 0.52732 0.49976 0.73155 0.0
C638 C 0.56621 0.52494 0.74904 0.0
C639 C 0.55996 0.51789 0.77608 0.0
C640 C 0.44037 0.4403 0.72343 0.0
C641 C 0.61428 0.55947 0.73922 0.0
C642 C 0.5438 0.4918 0.6586 0.0
C643 C 0.53754 0.51841 0.64825 0.0
C644 C 0.54148 0.48602 0.68576 0.0
C645 C 0.53285 0.50747 0.70295 0.0
C646 C 0.5275 0.53504 0.6927 0.0
C647 C 0.52981 0.5401 0.6655 0.0
C648 C 0.54729 0.45632 0.69602 0.0
C649 C 0.51845 0.55861 0.71042 0.0
H650 H 0.44327 0.43706 0.77613 0.0
H651 H 0.58965 0.53709 0.78952 0.0
H652 H 0.435 0.45977 0.71314 0.0
H653 H 0.4457 0.42435 0.70815 0.0
H654 H 0.40831 0.41621 0.7342 0.0
H655 H 0.64098 0.57572 0.75533 0.0
H656 H 0.6241 0.54656 0.72438 0.0
H657 H 0.61462 0.58282 0.72939 0.0
H658 H 0.54984 0.47496 0.64545 0.0
H659 H 0.52519 0.56093 0.65774 0.0
H660 H 0.51478 0.42995 0.70541 0.0
H661 H 0.57534 0.4725 0.71132 0.0
H662 H 0.55575 0.4434 0.68022 0.0
H663 H 0.48486 0.53619 0.72037 0.0
H664 H 0.5172 0.58029 0.69947 0.0
H665 H 0.54595 0.57691 0.72599 0.0
C666 C 0.46614 0.00791 0.568 0.0
C667 C 0.50518 0.02702 0.55223 0.0
C668 C 0.46888 0.00368 0.59496 0.0
C669 C 0.51173 0.019 0.60637 0.0
C670 C 0.55107 0.03764 0.59038 0.0
C671 C 0.54733 0.0415 0.56347 0.0
C672 C 0.42614 0.98356 0.61134 0.0
C673 C 0.59734 0.05432 0.60181 0.0
C674 C 0.52918 0.04872 0.67921 0.0
C675 C 0.51939 0.01377 0.69042 0.0
C676 C 0.52763 0.05107 0.6519 0.0
C677 C 0.5159 0.01763 0.63527 0.0
C678 C 0.50682 0.98257 0.64634 0.0
C679 C 0.50873 0.98107 0.6738 0.0
C680 C 0.53778 0.0891 0.64085 0.0
C681 C 0.49423 0.94633 0.6292 0.0
H682 H 0.43346 0.99653 0.55929 0.0
H683 H 0.57759 0.05633 0.55128 0.0
H684 H 0.41868 0.95732 0.62206 0.0
H685 H 0.43236 0.00667 0.62628 0.0
H686 H 0.39498 0.97149 0.59926 0.0
H687 H 0.62379 0.06573 0.58646 0.0
H688 H 0.61051 0.08051 0.61617 0.0
H689 H 0.59324 0.02965 0.61258 0.0
H690 H 0.53768 0.07427 0.69181 0.0
H691 H 0.50114 0.95395 0.68225 0.0
H692 H 0.50661 0.07972 0.63011 0.0
H693 H 0.56625 0.10355 0.62654 0.0
H694 H 0.5479 0.11305 0.6564 0.0
H695 H 0.46118 0.93148 0.61829 0.0
H696 H 0.4901 0.92221 0.64077 0.0
H697 H 0.52138 0.9576 0.61438 0.0
C698 C 0.50117 0.51744 0.94149 0.0
C699 C 0.5464 0.53898 0.93248 0.0
C700 C 0.49232 0.51434 0.96846 0.0
C701 C 0.52945 0.53228 0.98678 0.0
C702 C 0.57504 0.5531 0.97773 0.0
C703 C 0.58307 0.55667 0.95061 0.0
C704 C 0.44345 0.49271 0.97732 0.0
C705 C 0.6153 0.57174 0.99669 0.0
C706 C 0.51959 0.56142 0.05622 0.0
C707 C 0.50636 0.52701 0.07001 0.0
C708 C 0.52625 0.56309 0.029 0.0
C709 C 0.52077 0.53009 0.01544 0.0
C710 C 0.50726 0.49519 0.02927 0.0
C711 C 0.4996 0.49382 0.05637 0.0
C712 C 0.5394 0.60029 0.01479 0.0
C713 C 0.50203 0.45984 0.01556 0.0
H714 H 0.47277 0.5039 0.92744 0.0
H715 H 0.61798 0.57307 0.94357 0.0
H716 H 0.4312 0.4662 0.98969 0.0
H717 H 0.44298 0.5148 0.98958 0.0
H718 H 0.41856 0.48064 0.96051 0.0
H719 H 0.64807 0.58494 0.98644 0.0
H720 H 0.62098 0.59697 0.00913 0.0
H721 H 0.60728 0.54756 0.01003 0.0
H722 H 0.52459 0.58701 0.06672 0.0
H723 H 0.48985 0.46738 0.06706 0.0
H724 H 0.51434 0.58962 0.99835 0.0
H725 H 0.57422 0.61743 0.00615 0.0
H726 H 0.54011 0.62233 0.028 0.0
H727 H 0.47572 0.44558 0.99937 0.0
H728 H 0.49146 0.43503 0.02917 0.0
H729 H 0.53544 0.47211 0.00662 0.0
C730 C 0.07646 0.50492 0.2149 0.0
C731 C 0.03732 0.49294 0.20107 0.0
C732 C 0.07952 0.51009 0.24243 0.0
C733 C 0.04244 0.50298 0.25627 0.0
C734 C 1.00274 0.49064 0.24223 0.0
C735 C 1.00052 0.48533 0.21477 0.0
C736 C 0.12221 0.52289 0.25669 0.0
C737 C 0.96237 0.48258 0.25622 0.0
C738 C 0.02465 0.47599 0.32816 0.0
C739 C 0.04246 0.51415 0.34076 0.0
C740 C 0.02562 0.47224 0.30072 0.0
C741 C 0.04447 0.50739 0.28546 0.0
C742 C 0.06347 0.54623 0.29805 0.0
C743 C 0.06245 0.54921 0.32557 0.0
C744 C 1.0055 0.43039 0.28803 0.0
C745 C 0.08356 0.58432 0.2824 0.0
H746 H 0.10472 0.51038 0.20414 0.0
H747 H 0.96946 0.47409 0.2041 0.0
H748 H 0.13894 0.55237 0.26846 0.0
H749 H 0.11216 0.49863 0.27061 0.0
H750 H 0.14811 0.52754 0.24301 0.0
H751 H 0.93515 0.47518 0.2423 0.0
H752 H 0.9464 0.45605 0.26936 0.0
H753 H 0.97474 0.51037 0.26873 0.0
H754 H 0.00937 0.44878 0.33973 0.0
H755 H 0.07618 0.57879 0.3351 0.0
H756 H 0.03142 0.43379 0.27508 0.0
H757 H 0.97488 0.41846 0.2755 0.0
H758 H 0.99452 0.40676 0.30275 0.0
H759 H 0.11096 0.5907 0.26932 0.0
H760 H 0.09872 0.61262 0.29519 0.0
H761 H 0.05596 0.57843 0.26966 0.0
loop_
_geom_bond_atom_site_label_1
_geom_bond_atom_site_label_2
_geom_bond_distance
_geom_bond_site_symmetry_2
_ccdc_geom_bond_type
Ho0 C3 2.811 . S
Ho0 O20 2.322 . S
Ho0 O22 2.378 . S
Ho0 O23 2.524 . S
Ho0 O24 2.381 . S
Ho0 O25 2.669 . S
Ho0 O27 2.346 1_455 S
Ho0 O31 2.305 . S
Ho1 C12 2.811 . S
Ho1 O21 2.346 1_655 S
Ho1 O25 2.305 1_655 S
Ho1 O26 2.322 . S
Ho1 O28 2.378 . S
Ho1 O29 2.524 . S
Ho1 O30 2.381 1_655 S
Ho1 O31 2.669 1_655 S
C2 O20 1.259 . S
C2 O21 1.268 . S
C3 Ho0 2.811 . S
C3 C4 1.488 . S
C3 O22 1.215 . S
C3 O23 1.289 . S
C4 C3 1.488 . S
C4 C5 1.348 . S
C4 C9 1.413 . S
C5 C4 1.348 . S
C5 C6 1.442 . S
C5 H32 0.930 . S
C6 C5 1.442 . S
C6 C7 1.381 . S
C6 H33 0.931 . S
C7 C6 1.381 . S
C7 C8 1.321 . S
C8 C7 1.321 . S
C8 C9 1.403 . S
C8 H34 0.934 . S
C9 C4 1.413 . S
C9 C8 1.403 . S
C9 H35 0.930 . S
C10 O24 1.275 . S
C10 O25 1.256 . S
C11 O26 1.259 . S
C11 O27 1.268 . S
C12 Ho1 2.811 . S
C12 C13 1.488 . S
C12 O28 1.215 . S
C12 O29 1.289 . S
C13 C12 1.488 . S
C13 C14 1.348 . S
C13 C18 1.413 . S
C14 C13 1.348 . S
C14 C15 1.442 . S
C14 H36 0.930 . S
C15 C14 1.442 . S
C15 C16 1.381 . S
C15 H37 0.931 . S
C16 C15 1.381 . S
C16 C17 1.321 . S
C17 C16 1.321 . S
C17 C18 1.403 . S
C17 H38 0.934 . S
C18 C13 1.413 . S
C18 C17 1.403 . S
C18 H39 0.930 . S
C19 O30 1.275 . S
C19 O31 1.256 . S
O20 Ho0 2.322 . S
O20 C2 1.259 . S
O21 Ho1 2.346 1_455 S
O21 C2 1.268 . S
O22 Ho0 2.378 . S
O22 C3 1.215 . S
O23 Ho0 2.524 . S
O23 C3 1.289 . S
O24 Ho0 2.381 . S
O24 C10 1.275 . S
O25 Ho0 2.669 . S
O25 Ho1 2.305 1_455 S
O25 C10 1.256 . S
O26 Ho1 2.322 . S
O26 C11 1.259 . S
O27 Ho0 2.346 1_655 S
O27 C11 1.268 . S
O28 Ho1 2.378 . S
O28 C12 1.215 . S
O29 Ho1 2.524 . S
O29 C12 1.289 . S
O30 Ho1 2.381 1_455 S
O30 C19 1.275 . S
O31 Ho0 2.305 . S
O31 Ho1 2.669 1_455 S
O31 C19 1.256 . S
H32 C5 0.930 . S
H33 C6 0.931 . S
H34 C8 0.934 . S
H35 C9 0.930 . S
H36 C14 0.930 . S
H37 C15 0.931 . S
H38 C17 0.934 . S
H39 C18 0.930 . S
Ho40 C43 2.811 . S
Ho40 O60 2.322 . S
Ho40 O62 2.378 . S
Ho40 O63 2.524 . S
Ho40 O64 2.381 . S
Ho40 O65 2.669 1_565 S
Ho40 O67 2.346 1_565 S
Ho40 O71 2.305 1_565 S
Ho41 C52 2.811 . S
Ho41 O61 2.346 1_545 S
Ho41 O65 2.305 . S
Ho41 O66 2.322 . S
Ho41 O68 2.378 . S
Ho41 O69 2.524 . S
Ho41 O70 2.381 . S
Ho41 O71 2.669 . S
C42 O60 1.259 . S
C42 O61 1.268 . S
C43 Ho40 2.811 . S
C43 C44 1.488 . S
C43 O62 1.215 . S
C43 O63 1.289 . S
C44 C43 1.488 . S
C44 C45 1.348 . S
C44 C49 1.413 . S
C45 C44 1.348 . S
C45 C46 1.442 . S
C45 H72 0.930 . S
C46 C45 1.442 . S
C46 C47 1.381 . S
C46 H73 0.931 . S
C47 C46 1.381 . S
C47 C48 1.321 . S
C48 C47 1.321 . S
C48 C49 1.403 . S
C48 H74 0.934 . S
C49 C44 1.413 . S
C49 C48 1.403 . S
C49 H75 0.930 . S
C50 O64 1.275 1_545 S
C50 O65 1.256 . S
C51 O66 1.259 . S
C51 O67 1.268 . S
C52 Ho41 2.811 . S
C52 C53 1.488 . S
C52 O68 1.215 . S
C52 O69 1.289 . S
C53 C52 1.488 . S
C53 C54 1.348 . S
C53 C58 1.413 . S
C54 C53 1.348 . S
C54 C55 1.442 . S
C54 H76 0.930 . S
C55 C54 1.442 . S
C55 C56 1.381 . S
C55 H77 0.931 . S
C56 C55 1.381 . S
C56 C57 1.321 . S
C57 C56 1.321 . S
C57 C58 1.403 . S
C57 H78 0.934 . S
C58 C53 1.413 . S
C58 C57 1.403 . S
C58 H79 0.930 . S
C59 O70 1.275 . S
C59 O71 1.256 . S
O60 Ho40 2.322 . S
O60 C42 1.259 . S
O61 Ho41 2.346 1_565 S
O61 C42 1.268 . S
O62 Ho40 2.378 . S
O62 C43 1.215 . S
O63 Ho40 2.524 . S
O63 C43 1.289 . S
O64 Ho40 2.381 . S
O64 C50 1.275 1_565 S
O65 Ho40 2.669 1_545 S
O65 Ho41 2.305 . S
O65 C50 1.256 . S
O66 Ho41 2.322 . S
O66 C51 1.259 . S
O67 Ho40 2.346 1_545 S
O67 C51 1.268 . S
O68 Ho41 2.378 . S
O68 C52 1.215 . S
O69 Ho41 2.524 . S
O69 C52 1.289 . S
O70 Ho41 2.381 . S
O70 C59 1.275 . S
O71 Ho40 2.305 1_545 S
O71 Ho41 2.669 . S
O71 C59 1.256 . S
H72 C45 0.930 . S
H73 C46 0.931 . S
H74 C48 0.934 . S
H75 C49 0.930 . S
H76 C54 0.930 . S
H77 C55 0.931 . S
H78 C57 0.934 . S
H79 C58 0.930 . S
Ho80 C83 2.811 . S
Ho80 O100 2.322 . S
Ho80 O102 2.378 . S
Ho80 O103 2.524 . S
Ho80 O104 2.381 . S
Ho80 O105 2.669 . S
Ho80 O107 2.346 . S
Ho80 O111 2.305 . S
Ho81 C92 2.811 . S
Ho81 O101 2.346 . S
Ho81 O105 2.305 . S
Ho81 O106 2.322 . S
Ho81 O108 2.378 . S
Ho81 O109 2.524 . S
Ho81 O110 2.381 . S
Ho81 O111 2.669 . S
C82 O100 1.259 . S
C82 O101 1.268 . S
C83 Ho80 2.811 . S
C83 C84 1.488 . S
C83 O102 1.215 . S
C83 O103 1.289 . S
C84 C83 1.488 . S
C84 C85 1.348 . S
C84 C89 1.413 . S
C85 C84 1.348 . S
C85 C86 1.442 . S
C85 H112 0.930 . S
C86 C85 1.442 . S
C86 C87 1.381 . S
C86 H113 0.931 . S
C87 C86 1.381 . S
C87 C88 1.321 . S
C88 C87 1.321 . S
C88 C89 1.403 . S
C88 H114 0.934 . S
C89 C84 1.413 . S
C89 C88 1.403 . S
C89 H115 0.930 . S
C90 O104 1.275 . S
C90 O105 1.256 . S
C91 O106 1.259 . S
C91 O107 1.268 . S
C92 Ho81 2.811 . S
C92 C93 1.488 . S
C92 O108 1.215 . S
C92 O109 1.289 . S
C93 C92 1.488 . S
C93 C94 1.348 . S
C93 C98 1.413 . S
C94 C93 1.348 . S
C94 C95 1.442 . S
C94 H116 0.930 . S
C95 C94 1.442 . S
C95 C96 1.381 . S
C95 H117 0.931 . S
C96 C95 1.381 . S
C96 C97 1.321 . S
C97 C96 1.321 . S
C97 C98 1.403 . S
C97 H118 0.934 . S
C98 C93 1.413 . S
C98 C97 1.403 . S
C98 H119 0.930 . S
C99 O110 1.275 . S
C99 O111 1.256 . S
O100 Ho80 2.322 . S
O100 C82 1.259 . S
O101 Ho81 2.346 . S
O101 C82 1.268 . S
O102 Ho80 2.378 . S
O102 C83 1.215 . S
O103 Ho80 2.524 . S
O103 C83 1.289 . S
O104 Ho80 2.381 . S
O104 C90 1.275 . S
O105 Ho80 2.669 . S
O105 Ho81 2.305 . S
O105 C90 1.256 . S
O106 Ho81 2.322 . S
O106 C91 1.259 . S
O107 Ho80 2.346 . S
O107 C91 1.268 . S
O108 Ho81 2.378 . S
O108 C92 1.215 . S
O109 Ho81 2.524 . S
O109 C92 1.289 . S
O110 Ho81 2.381 . S
O110 C99 1.275 . S
O111 Ho80 2.305 . S
O111 Ho81 2.669 . S
O111 C99 1.256 . S
H112 C85 0.930 . S
H113 C86 0.931 . S
H114 C88 0.934 . S
H115 C89 0.930 . S
H116 C94 0.930 . S
H117 C95 0.931 . S
H118 C97 0.934 . S
H119 C98 0.930 . S
O120 Cd121 2.300 . S
O120 C127 1.275 . S
Cd121 O120 2.300 . S
Cd121 O129 2.381 . S
Cd121 O130 2.378 . S
O122 Cd123 2.385 . S
O122 C127 1.255 1_565 S
Cd123 O122 2.385 . S
Cd123 O124 2.317 . S
O124 Cd123 2.317 . S
O124 C125 1.232 . S
C125 O124 1.232 . S
C125 O126 1.218 . S
O126 C125 1.218 . S
C127 O120 1.275 . S
C127 O122 1.255 1_545 S
C128 O129 1.258 . S
C128 O130 1.256 . S
O129 Cd121 2.381 . S
O129 C128 1.258 . S
O130 Cd121 2.378 . S
O130 C128 1.256 . S
O131 Cd132 2.300 . S
O131 C138 1.275 . S
Cd132 O131 2.300 . S
Cd132 O140 2.381 . S
Cd132 O141 2.378 . S
O133 Cd134 2.385 . S
O133 C138 1.255 . S
Cd134 O133 2.385 . S
Cd134 O135 2.317 . S
O135 Cd134 2.317 . S
O135 C136 1.232 . S
C136 O135 1.232 . S
C136 O137 1.218 . S
O137 C136 1.218 . S
C138 O131 1.275 . S
C138 O133 1.255 . S
C139 O140 1.258 . S
C139 O141 1.256 . S
O140 Cd132 2.381 . S
O140 C139 1.258 . S
O141 Cd132 2.378 . S
O141 C139 1.256 . S
O142 Cd143 2.300 . S
O142 C149 1.275 . S
Cd143 O142 2.300 . S
Cd143 O151 2.381 . S
Cd143 O152 2.378 . S
O144 Cd145 2.385 1_455 S
O144 C149 1.255 . S
Cd145 O144 2.385 1_655 S
Cd145 O146 2.317 . S
O146 Cd145 2.317 . S
O146 C147 1.232 . S
C147 O146 1.232 . S
C147 O148 1.218 . S
O148 C147 1.218 . S
C149 O142 1.275 . S
C149 O144 1.255 . S
C150 O151 1.258 . S
C150 O152 1.256 . S
O151 Cd143 2.381 . S
O151 C150 1.258 . S
O152 Cd143 2.378 . S
O152 C150 1.256 . S
O153 Cd154 2.300 . S
O153 C160 1.275 1_455 S
Cd154 O153 2.300 . S
Cd154 O162 2.381 . S
Cd154 O163 2.378 . S
O155 Cd156 2.385 . S
O155 C160 1.255 . S
Cd156 O155 2.385 . S
Cd156 O157 2.317 . S
O157 Cd156 2.317 . S
O157 C158 1.232 . S
C158 O157 1.232 . S
C158 O159 1.218 . S
O159 C158 1.218 . S
C160 O153 1.275 1_655 S
C160 O155 1.255 . S
C161 O162 1.258 . S
C161 O163 1.256 . S
O162 Cd154 2.381 . S
O162 C161 1.258 . S
O163 Cd154 2.378 . S
O163 C161 1.256 . S
O164 Cd165 2.300 . S
O164 C171 1.275 1_565 S
Cd165 O164 2.300 . S
Cd165 O173 2.381 . S
Cd165 O174 2.378 . S
O166 Cd167 2.385 . S
O166 C171 1.255 . S
Cd167 O166 2.385 . S
Cd167 O168 2.317 . S
O168 Cd167 2.317 . S
O168 C169 1.232 . S
C169 O168 1.232 . S
C169 O170 1.218 . S
O170 C169 1.218 . S
C171 O164 1.275 1_545 S
C171 O166 1.255 . S
C172 O173 1.258 . S
C172 O174 1.256 . S
O173 Cd165 2.381 . S
O173 C172 1.258 . S
O174 Cd165 2.378 . S
O174 C172 1.256 . S
O175 Cd176 2.300 . S
O175 C182 1.275 . S
Cd176 O175 2.300 . S
Cd176 O184 2.381 . S
Cd176 O185 2.378 . S
O177 Cd178 2.385 . S
O177 C182 1.255 . S
Cd178 O177 2.385 . S
Cd178 O179 2.317 . S
O179 Cd178 2.317 . S
O179 C180 1.232 . S
C180 O179 1.232 . S
C180 O181 1.218 . S
O181 C180 1.218 . S
C182 O175 1.275 . S
C182 O177 1.255 . S
C183 O184 1.258 . S
C183 O185 1.256 . S
O184 Cd176 2.381 . S
O184 C183 1.258 . S
O185 Cd176 2.378 . S
O185 C183 1.256 . S
C186 C187 1.391 . S
C186 C188 1.394 . S
C186 H202 0.931 . S
C187 C186 1.391 . S
C187 C191 1.376 . S
C188 C186 1.394 . S
C188 C189 1.369 . S
C188 C192 1.531 . S
C189 C188 1.369 . S
C189 C190 1.410 . S
C189 C197 1.503 . S
C190 C189 1.410 . S
C190 C191 1.392 . S
C190 C193 1.511 . S
C191 C187 1.376 . S
C191 C190 1.392 . S
C191 H203 0.929 . S
C192 C188 1.531 . S
C192 H204 0.960 . S
C192 H205 0.962 . S
C192 H206 0.960 . S
C193 C190 1.511 . S
C193 H207 0.961 . S
C193 H208 0.961 . S
C193 H209 0.961 . S
C194 C195 1.370 . S
C194 C196 1.363 . S
C194 H210 0.931 . S
C195 C194 1.370 . S
C195 C199 1.408 . S
C196 C194 1.363 . S
C196 C197 1.370 . S
C196 C200 1.524 . S
C197 C189 1.503 . S
C197 C196 1.370 . S
C197 C198 1.403 . S
C198 C197 1.403 . S
C198 C199 1.404 . S
C198 C201 1.539 . S
C199 C195 1.408 . S
C199 C198 1.404 . S
C199 H211 0.930 . S
C200 C196 1.524 . S
C200 H212 0.956 . S
C200 H213 0.961 . S
C200 H214 0.961 . S
C201 C198 1.539 . S
C201 H215 0.958 . S
C201 H216 0.961 . S
C201 H217 0.960 . S
H202 C186 0.931 . S
H203 C191 0.929 . S
H204 C192 0.960 . S
H205 C192 0.962 . S
H206 C192 0.960 . S
H207 C193 0.961 . S
H208 C193 0.961 . S
H209 C193 0.961 . S
H210 C194 0.931 . S
H211 C199 0.930 . S
H212 C200 0.956 . S
H213 C200 0.961 . S
H214 C200 0.961 . S
H215 C201 0.958 . S
H216 C201 0.961 . S
H217 C201 0.960 . S
C218 C219 1.391 . S
C218 C220 1.394 . S
C218 H234 0.931 . S
C219 C218 1.391 . S
C219 C223 1.376 . S
C220 C218 1.394 . S
C220 C221 1.369 . S
C220 C224 1.531 . S
C221 C220 1.369 . S
C221 C222 1.410 . S
C221 C229 1.503 . S
C222 C221 1.410 . S
C222 C223 1.392 . S
C222 C225 1.511 . S
C223 C219 1.376 . S
C223 C222 1.392 . S
C223 H235 0.929 . S
C224 C220 1.531 . S
C224 H236 0.960 . S
C224 H237 0.962 . S
C224 H238 0.960 . S
C225 C222 1.511 . S
C225 H239 0.961 . S
C225 H240 0.961 . S
C225 H241 0.961 . S
C226 C227 1.370 . S
C226 C228 1.363 . S
C226 H242 0.931 . S
C227 C226 1.370 . S
C227 C231 1.408 . S
C228 C226 1.363 . S
C228 C229 1.370 . S
C228 C232 1.524 . S
C229 C221 1.503 . S
C229 C228 1.370 . S
C229 C230 1.403 . S
C230 C229 1.403 . S
C230 C231 1.404 . S
C230 C233 1.539 . S
C231 C227 1.408 . S
C231 C230 1.404 . S
C231 H243 0.930 . S
C232 C228 1.524 . S
C232 H244 0.956 . S
C232 H245 0.961 . S
C232 H246 0.961 . S
C233 C230 1.539 . S
C233 H247 0.958 . S
C233 H248 0.961 . S
C233 H249 0.960 . S
H234 C218 0.931 . S
H235 C223 0.929 . S
H236 C224 0.960 . S
H237 C224 0.962 . S
H238 C224 0.960 . S
H239 C225 0.961 . S
H240 C225 0.961 . S
H241 C225 0.961 . S
H242 C226 0.931 . S
H243 C231 0.930 . S
H244 C232 0.956 . S
H245 C232 0.961 . S
H246 C232 0.961 . S
H247 C233 0.958 . S
H248 C233 0.961 . S
H249 C233 0.960 . S
C250 C251 1.391 . S
C250 C252 1.394 . S
C250 H266 0.931 . S
C251 C250 1.391 . S
C251 C255 1.376 . S
C252 C250 1.394 . S
C252 C253 1.369 . S
C252 C256 1.531 . S
C253 C252 1.369 . S
C253 C254 1.410 . S
C253 C261 1.503 . S
C254 C253 1.410 . S
C254 C255 1.392 . S
C254 C257 1.511 . S
C255 C251 1.376 . S
C255 C254 1.392 . S
C255 H267 0.929 . S
C256 C252 1.531 . S
C256 H268 0.960 . S
C256 H269 0.962 . S
C256 H270 0.960 . S
C257 C254 1.511 . S
C257 H271 0.961 . S
C257 H272 0.961 . S
C257 H273 0.961 . S
C258 C259 1.370 . S
C258 C260 1.363 . S
C258 H274 0.931 . S
C259 C258 1.370 . S
C259 C263 1.408 . S
C260 C258 1.363 . S
C260 C261 1.370 . S
C260 C264 1.524 . S
C261 C253 1.503 . S
C261 C260 1.370 . S
C261 C262 1.403 . S
C262 C261 1.403 . S
C262 C263 1.404 . S
C262 C265 1.539 . S
C263 C259 1.408 . S
C263 C262 1.404 . S
C263 H275 0.930 . S
C264 C260 1.524 . S
C264 H276 0.956 . S
C264 H277 0.961 . S
C264 H278 0.961 . S
C265 C262 1.539 . S
C265 H279 0.958 . S
C265 H280 0.961 . S
C265 H281 0.960 . S
H266 C250 0.931 . S
H267 C255 0.929 . S
H268 C256 0.960 . S
H269 C256 0.962 . S
H270 C256 0.960 . S
H271 C257 0.961 . S
H272 C257 0.961 . S
H273 C257 0.961 . S
H274 C258 0.931 . S
H275 C263 0.930 . S
H276 C264 0.956 . S
H277 C264 0.961 . S
H278 C264 0.961 . S
H279 C265 0.958 . S
H280 C265 0.961 . S
H281 C265 0.960 . S
C282 C283 1.391 . S
C282 C284 1.394 . S
C282 H298 0.931 . S
C283 C282 1.391 . S
C283 C287 1.376 . S
C284 C282 1.394 . S
C284 C285 1.369 . S
C284 C288 1.531 . S
C285 C284 1.369 . S
C285 C286 1.410 . S
C285 C293 1.503 . S
C286 C285 1.410 . S
C286 C287 1.392 . S
C286 C289 1.511 . S
C287 C283 1.376 . S
C287 C286 1.392 . S
C287 H299 0.929 . S
C288 C284 1.531 . S
C288 H300 0.960 . S
C288 H301 0.962 . S
C288 H302 0.960 . S
C289 C286 1.511 . S
C289 H303 0.961 . S
C289 H304 0.961 . S
C289 H305 0.961 . S
C290 C291 1.370 . S
C290 C292 1.363 . S
C290 H306 0.931 . S
C291 C290 1.370 . S
C291 C295 1.408 . S
C292 C290 1.363 . S
C292 C293 1.370 . S
C292 C296 1.524 . S
C293 C285 1.503 . S
C293 C292 1.370 . S
C293 C294 1.403 . S
C294 C293 1.403 . S
C294 C295 1.404 . S
C294 C297 1.539 . S
C295 C291 1.408 . S
C295 C294 1.404 . S
C295 H307 0.930 . S
C296 C292 1.524 . S
C296 H308 0.956 . S
C296 H309 0.961 . S
C296 H310 0.961 . S
C297 C294 1.539 . S
C297 H311 0.958 . S
C297 H312 0.961 . S
C297 H313 0.960 . S
H298 C282 0.931 . S
H299 C287 0.929 . S
H300 C288 0.960 . S
H301 C288 0.962 . S
H302 C288 0.960 . S
H303 C289 0.961 . S
H304 C289 0.961 . S
H305 C289 0.961 . S
H306 C290 0.931 . S
H307 C295 0.930 . S
H308 C296 0.956 . S
H309 C296 0.961 . S
H310 C296 0.961 . S
H311 C297 0.958 . S
H312 C297 0.961 . S
H313 C297 0.960 . S
C314 C315 1.391 . S
C314 C316 1.394 . S
C314 H330 0.931 . S
C315 C314 1.391 . S
C315 C319 1.376 . S
C316 C314 1.394 . S
C316 C317 1.369 . S
C316 C320 1.531 . S
C317 C316 1.369 . S
C317 C318 1.410 . S
C317 C325 1.503 . S
C318 C317 1.410 . S
C318 C319 1.392 . S
C318 C321 1.511 . S
C319 C315 1.376 . S
C319 C318 1.392 . S
C319 H331 0.929 . S
C320 C316 1.531 . S
C320 H332 0.960 . S
C320 H333 0.962 . S
C320 H334 0.960 . S
C321 C318 1.511 . S
C321 H335 0.961 . S
C321 H336 0.961 . S
C321 H337 0.961 . S
C322 C323 1.370 . S
C322 C324 1.363 . S
C322 H338 0.931 . S
C323 C322 1.370 . S
C323 C327 1.408 . S
C324 C322 1.363 . S
C324 C325 1.370 . S
C324 C328 1.524 . S
C325 C317 1.503 . S
C325 C324 1.370 . S
C325 C326 1.403 . S
C326 C325 1.403 . S
C326 C327 1.404 . S
C326 C329 1.539 . S
C327 C323 1.408 . S
C327 C326 1.404 . S
C327 H339 0.930 . S
C328 C324 1.524 . S
C328 H340 0.956 . S
C328 H341 0.961 . S
C328 H342 0.961 . S
C329 C326 1.539 . S
C329 H343 0.958 . S
C329 H344 0.961 . S
C329 H345 0.960 . S
H330 C314 0.931 . S
H331 C319 0.929 . S
H332 C320 0.960 . S
H333 C320 0.962 . S
H334 C320 0.960 . S
H335 C321 0.961 . S
H336 C321 0.961 . S
H337 C321 0.961 . S
H338 C322 0.931 . S
H339 C327 0.930 . S
H340 C328 0.956 . S
H341 C328 0.961 . S
H342 C328 0.961 . S
H343 C329 0.958 . S
H344 C329 0.961 . S
H345 C329 0.960 . S
C346 C347 1.391 . S
C346 C348 1.394 . S
C346 H362 0.931 . S
C347 C346 1.391 . S
C347 C351 1.376 . S
C348 C346 1.394 . S
C348 C349 1.369 . S
C348 C352 1.531 . S
C349 C348 1.369 . S
C349 C350 1.410 . S
C349 C357 1.503 . S
C350 C349 1.410 . S
C350 C351 1.392 . S
C350 C353 1.511 . S
C351 C347 1.376 . S
C351 C350 1.392 . S
C351 H363 0.929 . S
C352 C348 1.531 . S
C352 H364 0.960 . S
C352 H365 0.962 . S
C352 H366 0.960 . S
C353 C350 1.511 . S
C353 H367 0.961 . S
C353 H368 0.961 . S
C353 H369 0.961 . S
C354 C355 1.370 . S
C354 C356 1.363 . S
C354 H370 0.931 . S
C355 C354 1.370 . S
C355 C359 1.408 . S
C356 C354 1.363 . S
C356 C357 1.370 . S
C356 C360 1.524 . S
C357 C349 1.503 . S
C357 C356 1.370 . S
C357 C358 1.403 . S
C358 C357 1.403 . S
C358 C359 1.404 . S
C358 C361 1.539 . S
C359 C355 1.408 . S
C359 C358 1.404 . S
C359 H371 0.930 . S
C360 C356 1.524 . S
C360 H372 0.956 . S
C360 H373 0.961 . S
C360 H374 0.961 . S
C361 C358 1.539 . S
C361 H375 0.958 . S
C361 H376 0.961 . S
C361 H377 0.960 . S
H362 C346 0.931 . S
H363 C351 0.929 . S
H364 C352 0.960 . S
H365 C352 0.962 . S
H366 C352 0.960 . S
H367 C353 0.961 . S
H368 C353 0.961 . S
H369 C353 0.961 . S
H370 C354 0.931 . S
H371 C359 0.930 . S
H372 C360 0.956 . S
H373 C360 0.961 . S
H374 C360 0.961 . S
H375 C361 0.958 . S
H376 C361 0.961 . S
H377 C361 0.960 . S
C378 C379 1.391 . S
C378 C380 1.394 . S
C378 H394 0.931 . S
C379 C378 1.391 . S
C379 C383 1.376 . S
C380 C378 1.394 . S
C380 C381 1.369 . S
C380 C384 1.531 . S
C381 C380 1.369 . S
C381 C382 1.410 . S
C381 C389 1.503 . S
C382 C381 1.410 . S
C382 C383 1.392 . S
C382 C385 1.511 . S
C383 C379 1.376 . S
C383 C382 1.392 . S
C383 H395 0.929 . S
C384 C380 1.531 . S
C384 H396 0.960 . S
C384 H397 0.962 . S
C384 H398 0.960 . S
C385 C382 1.511 . S
C385 H399 0.961 . S
C385 H400 0.961 . S
C385 H401 0.961 . S
C386 C387 1.370 . S
C386 C388 1.363 . S
C386 H402 0.931 . S
C387 C386 1.370 . S
C387 C391 1.408 . S
C388 C386 1.363 . S
C388 C389 1.370 . S
C388 C392 1.524 . S
C389 C381 1.503 . S
C389 C388 1.370 . S
C389 C390 1.403 . S
C390 C389 1.403 . S
C390 C391 1.404 . S
C390 C393 1.539 . S
C391 C387 1.408 . S
C391 C390 1.404 . S
C391 H403 0.930 . S
C392 C388 1.524 . S
C392 H404 0.956 . S
C392 H405 0.961 . S
C392 H406 0.961 . S
C393 C390 1.539 . S
C393 H407 0.958 . S
C393 H408 0.961 . S
C393 H409 0.960 . S
H394 C378 0.931 . S
H395 C383 0.929 . S
H396 C384 0.960 . S
H397 C384 0.962 . S
H398 C384 0.960 . S
H399 C385 0.961 . S
H400 C385 0.961 . S
H401 C385 0.961 . S
H402 C386 0.931 . S
H403 C391 0.930 . S
H404 C392 0.956 . S
H405 C392 0.961 . S
H406 C392 0.961 . S
H407 C393 0.958 . S
H408 C393 0.961 . S
H409 C393 0.960 . S
C410 C411 1.391 . S
C410 C412 1.394 . S
C410 H426 0.931 . S
C411 C410 1.391 . S
C411 C415 1.376 . S
C412 C410 1.394 . S
C412 C413 1.369 . S
C412 C416 1.531 . S
C413 C412 1.369 . S
C413 C414 1.410 . S
C413 C421 1.503 . S
C414 C413 1.410 . S
C414 C415 1.392 . S
C414 C417 1.511 . S
C415 C411 1.376 . S
C415 C414 1.392 . S
C415 H427 0.929 . S
C416 C412 1.531 . S
C416 H428 0.960 . S
C416 H429 0.962 . S
C416 H430 0.960 . S
C417 C414 1.511 . S
C417 H431 0.961 . S
C417 H432 0.961 . S
C417 H433 0.961 . S
C418 C419 1.370 . S
C418 C420 1.363 . S
C418 H434 0.931 . S
C419 C418 1.370 . S
C419 C423 1.408 . S
C420 C418 1.363 . S
C420 C421 1.370 . S
C420 C424 1.524 . S
C421 C413 1.503 . S
C421 C420 1.370 . S
C421 C422 1.403 . S
C422 C421 1.403 . S
C422 C423 1.404 . S
C422 C425 1.539 . S
C423 C419 1.408 . S
C423 C422 1.404 . S
C423 H435 0.930 . S
C424 C420 1.524 . S
C424 H436 0.956 . S
C424 H437 0.961 . S
C424 H438 0.961 . S
C425 C422 1.539 . S
C425 H439 0.958 . S
C425 H440 0.961 . S
C425 H441 0.960 . S
H426 C410 0.931 . S
H427 C415 0.929 . S
H428 C416 0.960 . S
H429 C416 0.962 . S
H430 C416 0.960 . S
H431 C417 0.961 . S
H432 C417 0.961 . S
H433 C417 0.961 . S
H434 C418 0.931 . S
H435 C423 0.930 . S
H436 C424 0.956 . S
H437 C424 0.961 . S
H438 C424 0.961 . S
H439 C425 0.958 . S
H440 C425 0.961 . S
H441 C425 0.960 . S
C442 C443 1.391 . S
C442 C444 1.394 . S
C442 H458 0.931 . S
C443 C442 1.391 . S
C443 C447 1.376 . S
C444 C442 1.394 . S
C444 C445 1.369 . S
C444 C448 1.531 . S
C445 C444 1.369 . S
C445 C446 1.410 . S
C445 C453 1.503 . S
C446 C445 1.410 . S
C446 C447 1.392 . S
C446 C449 1.511 . S
C447 C443 1.376 . S
C447 C446 1.392 . S
C447 H459 0.929 . S
C448 C444 1.531 . S
C448 H460 0.960 . S
C448 H461 0.962 . S
C448 H462 0.960 . S
C449 C446 1.511 . S
C449 H463 0.961 . S
C449 H464 0.961 . S
C449 H465 0.961 . S
C450 C451 1.370 . S
C450 C452 1.363 . S
C450 H466 0.931 . S
C451 C450 1.370 . S
C451 C455 1.408 . S
C452 C450 1.363 . S
C452 C453 1.370 . S
C452 C456 1.524 . S
C453 C445 1.503 . S
C453 C452 1.370 . S
C453 C454 1.403 . S
C454 C453 1.403 . S
C454 C455 1.404 . S
C454 C457 1.539 . S
C455 C451 1.408 . S
C455 C454 1.404 . S
C455 H467 0.930 . S
C456 C452 1.524 . S
C456 H468 0.956 . S
C456 H469 0.961 . S
C456 H470 0.961 . S
C457 C454 1.539 . S
C457 H471 0.958 . S
C457 H472 0.961 . S
C457 H473 0.960 . S
H458 C442 0.931 . S
H459 C447 0.929 . S
H460 C448 0.960 . S
H461 C448 0.962 . S
H462 C448 0.960 . S
H463 C449 0.961 . S
H464 C449 0.961 . S
H465 C449 0.961 . S
H466 C450 0.931 . S
H467 C455 0.930 . S
H468 C456 0.956 . S
H469 C456 0.961 . S
H470 C456 0.961 . S
H471 C457 0.958 . S
H472 C457 0.961 . S
H473 C457 0.960 . S
C474 C475 1.391 . S
C474 C476 1.394 . S
C474 H490 0.931 . S
C475 C474 1.391 . S
C475 C479 1.376 . S
C476 C474 1.394 . S
C476 C477 1.369 . S
C476 C480 1.531 . S
C477 C476 1.369 . S
C477 C478 1.410 . S
C477 C485 1.503 . S
C478 C477 1.410 . S
C478 C479 1.392 . S
C478 C481 1.511 . S
C479 C475 1.376 . S
C479 C478 1.392 . S
C479 H491 0.929 . S
C480 C476 1.531 . S
C480 H492 0.960 . S
C480 H493 0.962 . S
C480 H494 0.960 . S
C481 C478 1.511 . S
C481 H495 0.961 . S
C481 H496 0.961 . S
C481 H497 0.961 . S
C482 C483 1.370 . S
C482 C484 1.363 . S
C482 H498 0.931 . S
C483 C482 1.370 . S
C483 C487 1.408 . S
C484 C482 1.363 . S
C484 C485 1.370 . S
C484 C488 1.524 . S
C485 C477 1.503 . S
C485 C484 1.370 . S
C485 C486 1.403 . S
C486 C485 1.403 . S
C486 C487 1.404 . S
C486 C489 1.539 . S
C487 C483 1.408 . S
C487 C486 1.404 . S
C487 H499 0.930 . S
C488 C484 1.524 . S
C488 H500 0.956 . S
C488 H501 0.961 . S
C488 H502 0.961 . S
C489 C486 1.539 . S
C489 H503 0.958 . S
C489 H504 0.961 . S
C489 H505 0.960 . S
H490 C474 0.931 . S
H491 C479 0.929 . S
H492 C480 0.960 . S
H493 C480 0.962 . S
H494 C480 0.960 . S
H495 C481 0.961 . S
H496 C481 0.961 . S
H497 C481 0.961 . S
H498 C482 0.931 . S
H499 C487 0.930 . S
H500 C488 0.956 . S
H501 C488 0.961 . S
H502 C488 0.961 . S
H503 C489 0.958 . S
H504 C489 0.961 . S
H505 C489 0.960 . S
C506 C507 1.391 . S
C506 C508 1.394 . S
C506 H522 0.931 . S
C507 C506 1.391 . S
C507 C511 1.376 . S
C508 C506 1.394 . S
C508 C509 1.369 . S
C508 C512 1.531 . S
C509 C508 1.369 . S
C509 C510 1.410 . S
C509 C517 1.503 . S
C510 C509 1.410 . S
C510 C511 1.392 . S
C510 C513 1.511 . S
C511 C507 1.376 . S
C511 C510 1.392 . S
C511 H523 0.929 . S
C512 C508 1.531 . S
C512 H524 0.960 . S
C512 H525 0.962 . S
C512 H526 0.960 . S
C513 C510 1.511 . S
C513 H527 0.961 . S
C513 H528 0.961 . S
C513 H529 0.961 . S
C514 C515 1.370 . S
C514 C516 1.363 . S
C514 H530 0.931 . S
C515 C514 1.370 . S
C515 C519 1.408 . S
C516 C514 1.363 . S
C516 C517 1.370 . S
C516 C520 1.524 . S
C517 C509 1.503 . S
C517 C516 1.370 . S
C517 C518 1.403 . S
C518 C517 1.403 . S
C518 C519 1.404 . S
C518 C521 1.539 . S
C519 C515 1.408 . S
C519 C518 1.404 . S
C519 H531 0.930 . S
C520 C516 1.524 . S
C520 H532 0.956 . S
C520 H533 0.961 . S
C520 H534 0.961 . S
C521 C518 1.539 . S
C521 H535 0.958 . S
C521 H536 0.961 . S
C521 H537 0.960 . S
H522 C506 0.931 . S
H523 C511 0.929 . S
H524 C512 0.960 . S
H525 C512 0.962 . S
H526 C512 0.960 . S
H527 C513 0.961 . S
H528 C513 0.961 . S
H529 C513 0.961 . S
H530 C514 0.931 . S
H531 C519 0.930 . S
H532 C520 0.956 . S
H533 C520 0.961 . S
H534 C520 0.961 . S
H535 C521 0.958 . S
H536 C521 0.961 . S
H537 C521 0.960 . S
C538 C539 1.391 . S
C538 C540 1.394 . S
C538 H554 0.931 . S
C539 C538 1.391 . S
C539 C543 1.376 . S
C540 C538 1.394 . S
C540 C541 1.369 . S
C540 C544 1.531 . S
C541 C540 1.369 . S
C541 C542 1.410 . S
C541 C549 1.503 . S
C542 C541 1.410 . S
C542 C543 1.392 . S
C542 C545 1.511 . S
C543 C539 1.376 . S
C543 C542 1.392 . S
C543 H555 0.929 . S
C544 C540 1.531 . S
C544 H556 0.960 . S
C544 H557 0.962 . S
C544 H558 0.960 . S
C545 C542 1.511 . S
C545 H559 0.961 . S
C545 H560 0.961 . S
C545 H561 0.961 . S
C546 C547 1.370 . S
C546 C548 1.363 . S
C546 H562 0.931 . S
C547 C546 1.370 . S
C547 C551 1.408 . S
C548 C546 1.363 . S
C548 C549 1.370 . S
C548 C552 1.524 . S
C549 C541 1.503 . S
C549 C548 1.370 . S
C549 C550 1.403 . S
C550 C549 1.403 . S
C550 C551 1.404 . S
C550 C553 1.539 . S
C551 C547 1.408 . S
C551 C550 1.404 . S
C551 H563 0.930 . S
C552 C548 1.524 . S
C552 H564 0.956 . S
C552 H565 0.961 . S
C552 H566 0.961 . S
C553 C550 1.539 . S
C553 H567 0.958 . S
C553 H568 0.961 . S
C553 H569 0.960 . S
H554 C538 0.931 . S
H555 C543 0.929 . S
H556 C544 0.960 . S
H557 C544 0.962 . S
H558 C544 0.960 . S
H559 C545 0.961 . S
H560 C545 0.961 . S
H561 C545 0.961 . S
H562 C546 0.931 . S
H563 C551 0.930 . S
H564 C552 0.956 . S
H565 C552 0.961 . S
H566 C552 0.961 . S
H567 C553 0.958 . S
H568 C553 0.961 . S
H569 C553 0.960 . S
C570 C571 1.391 1_655 S
C570 C572 1.394 . S
C570 H586 0.931 . S
C571 C570 1.391 1_455 S
C571 C575 1.376 . S
C572 C570 1.394 . S
C572 C573 1.369 1_655 S
C572 C576 1.531 . S
C573 C572 1.369 1_455 S
C573 C574 1.410 . S
C573 C581 1.503 . S
C574 C573 1.410 . S
C574 C575 1.392 . S
C574 C577 1.511 . S
C575 C571 1.376 . S
C575 C574 1.392 . S
C575 H587 0.929 . S
C576 C572 1.531 . S
C576 H588 0.960 . S
C576 H589 0.962 . S
C576 H590 0.960 . S
C577 C574 1.511 . S
C577 H591 0.961 . S
C577 H592 0.961 . S
C577 H593 0.961 . S
C578 C579 1.370 . S
C578 C580 1.363 . S
C578 H594 0.927 . S
C579 C578 1.370 . S
C579 C583 1.408 . S
C580 C578 1.363 . S
C580 C581 1.370 1_556 S
C580 C584 1.511 1_456 S
C581 C573 1.503 . S
C581 C580 1.370 1_554 S
C581 C582 1.403 1_554 S
C582 C581 1.403 1_556 S
C582 C583 1.404 . S
C582 C585 1.539 1_556 S
C583 C579 1.408 . S
C583 C582 1.404 . S
C583 H595 0.930 . S
C584 C580 1.511 1_654 S
C584 H596 0.971 . S
C584 H597 0.979 1_655 S
C584 H598 0.942 1_554 S
C585 C582 1.539 1_554 S
C585 H599 0.958 . S
C585 H600 0.961 1_554 S
C585 H601 0.960 . S
H586 C570 0.931 . S
H587 C575 0.929 . S
H588 C576 0.960 . S
H589 C576 0.962 . S
H590 C576 0.960 . S
H591 C577 0.961 . S
H592 C577 0.961 . S
H593 C577 0.961 . S
H594 C578 0.927 . S
H595 C583 0.930 . S
H596 C584 0.971 . S
H597 C584 0.979 1_455 S
H598 C584 0.942 1_556 S
H599 C585 0.958 . S
H600 C585 0.961 1_556 S
H601 C585 0.960 . S
C602 C603 1.391 . S
C602 C604 1.394 . S
C602 H618 0.931 . S
C603 C602 1.391 . S
C603 C607 1.376 1_545 S
C604 C602 1.394 . S
C604 C605 1.369 . S
C604 C608 1.531 . S
C605 C604 1.369 . S
C605 C606 1.410 1_545 S
C605 C613 1.503 . S
C606 C605 1.410 1_565 S
C606 C607 1.392 . S
C606 C609 1.511 . S
C607 C603 1.376 1_565 S
C607 C606 1.392 . S
C607 H619 0.929 . S
C608 C604 1.531 . S
C608 H620 0.960 . S
C608 H621 0.962 . S
C608 H622 0.960 . S
C609 C606 1.511 . S
C609 H623 0.961 . S
C609 H624 0.961 . S
C609 H625 0.961 . S
C610 C611 1.370 1_565 S
C610 C612 1.363 . S
C610 H626 0.931 . S
C611 C610 1.370 1_545 S
C611 C615 1.408 . S
C612 C610 1.363 . S
C612 C613 1.370 1_565 S
C612 C616 1.524 . S
C613 C605 1.503 . S
C613 C612 1.370 1_545 S
C613 C614 1.403 . S
C614 C613 1.403 . S
C614 C615 1.404 . S
C614 C617 1.539 . S
C615 C611 1.408 . S
C615 C614 1.404 . S
C615 H627 0.930 . S
C616 C612 1.524 . S
C616 H628 0.956 . S
C616 H629 0.961 . S
C616 H630 0.961 . S
C617 C614 1.539 . S
C617 H631 0.958 . S
C617 H632 0.961 . S
C617 H633 0.960 . S
H618 C602 0.931 . S
H619 C607 0.929 . S
H620 C608 0.960 . S
H621 C608 0.962 . S
H622 C608 0.960 . S
H623 C609 0.961 . S
H624 C609 0.961 . S
H625 C609 0.961 . S
H626 C610 0.931 . S
H627 C615 0.930 . S
H628 C616 0.956 . S
H629 C616 0.961 . S
H630 C616 0.961 . S
H631 C617 0.958 . S
H632 C617 0.961 . S
H633 C617 0.960 . S
C634 C635 1.391 . S
C634 C636 1.394 . S
C634 H650 0.931 . S
C635 C634 1.391 . S
C635 C639 1.376 . S
C636 C634 1.394 . S
C636 C637 1.369 . S
C636 C640 1.531 . S
C637 C636 1.369 . S
C637 C638 1.410 . S
C637 C645 1.503 . S
C638 C637 1.410 . S
C638 C639 1.392 . S
C638 C641 1.511 . S
C639 C635 1.376 . S
C639 C638 1.392 . S
C639 H651 0.929 . S
C640 C636 1.531 . S
C640 H652 0.960 . S
C640 H653 0.962 . S
C640 H654 0.960 . S
C641 C638 1.511 . S
C641 H655 0.961 . S
C641 H656 0.961 . S
C641 H657 0.961 . S
C642 C643 1.370 . S
C642 C644 1.363 . S
C642 H658 0.931 . S
C643 C642 1.370 . S
C643 C647 1.408 . S
C644 C642 1.363 . S
C644 C645 1.370 . S
C644 C648 1.524 . S
C645 C637 1.503 . S
C645 C644 1.370 . S
C645 C646 1.403 . S
C646 C645 1.403 . S
C646 C647 1.404 . S
C646 C649 1.539 . S
C647 C643 1.408 . S
C647 C646 1.404 . S
C647 H659 0.930 . S
C648 C644 1.524 . S
C648 H660 0.956 . S
C648 H661 0.961 . S
C648 H662 0.961 . S
C649 C646 1.539 . S
C649 H663 0.958 . S
C649 H664 0.961 . S
C649 H665 0.960 . S
H650 C634 0.931 . S
H651 C639 0.929 . S
H652 C640 0.960 . S
H653 C640 0.962 . S
H654 C640 0.960 . S
H655 C641 0.961 . S
H656 C641 0.961 . S
H657 C641 0.961 . S
H658 C642 0.931 . S
H659 C647 0.930 . S
H660 C648 0.956 . S
H661 C648 0.961 . S
H662 C648 0.961 . S
H663 C649 0.958 . S
H664 C649 0.961 . S
H665 C649 0.960 . S
C666 C667 1.391 1_565 S
C666 C668 1.394 . S
C666 H682 0.931 . S
C667 C666 1.391 1_545 S
C667 C671 1.376 . S
C668 C666 1.394 . S
C668 C669 1.369 1_565 S
C668 C672 1.531 . S
C669 C668 1.369 1_545 S
C669 C670 1.410 . S
C669 C677 1.503 . S
C670 C669 1.410 . S
C670 C671 1.392 . S
C670 C673 1.511 . S
C671 C667 1.376 . S
C671 C670 1.392 . S
C671 H683 0.929 . S
C672 C668 1.531 . S
C672 H684 0.960 . S
C672 H685 0.962 . S
C672 H686 0.960 . S
C673 C670 1.511 . S
C673 H687 0.961 . S
C673 H688 0.961 . S
C673 H689 0.961 . S
C674 C675 1.370 . S
C674 C676 1.363 . S
C674 H690 0.931 . S
C675 C674 1.370 . S
C675 C679 1.408 1_545 S
C676 C674 1.363 . S
C676 C677 1.370 . S
C676 C680 1.524 . S
C677 C669 1.503 . S
C677 C676 1.370 . S
C677 C678 1.403 1_545 S
C678 C677 1.403 1_565 S
C678 C679 1.404 . S
C678 C681 1.539 . S
C679 C675 1.408 1_565 S
C679 C678 1.404 . S
C679 H691 0.930 . S
C680 C676 1.524 . S
C680 H692 0.956 . S
C680 H693 0.961 . S
C680 H694 0.961 . S
C681 C678 1.539 . S
C681 H695 0.958 . S
C681 H696 0.961 . S
C681 H697 0.960 . S
H682 C666 0.931 . S
H683 C671 0.929 . S
H684 C672 0.960 . S
H685 C672 0.962 . S
H686 C672 0.960 . S
H687 C673 0.961 . S
H688 C673 0.961 . S
H689 C673 0.961 . S
H690 C674 0.931 . S
H691 C679 0.930 . S
H692 C680 0.956 . S
H693 C680 0.961 . S
H694 C680 0.961 . S
H695 C681 0.958 . S
H696 C681 0.961 . S
H697 C681 0.960 . S
C698 C699 1.391 . S
C698 C700 1.394 . S
C698 H714 0.931 . S
C699 C698 1.391 . S
C699 C703 1.376 . S
C700 C698 1.394 . S
C700 C701 1.369 . S
C700 C704 1.531 . S
C701 C700 1.369 . S
C701 C702 1.410 . S
C701 C709 1.503 . S
C702 C701 1.410 . S
C702 C703 1.392 . S
C702 C705 1.511 . S
C703 C699 1.376 . S
C703 C702 1.392 . S
C703 H715 0.929 . S
C704 C700 1.531 . S
C704 H716 0.960 . S
C704 H717 0.962 . S
C704 H718 0.960 . S
C705 C702 1.511 . S
C705 H719 0.961 . S
C705 H720 0.961 . S
C705 H721 0.961 . S
C706 C707 1.370 . S
C706 C708 1.363 . S
C706 H722 0.931 . S
C707 C706 1.370 . S
C707 C711 1.408 . S
C708 C706 1.363 . S
C708 C709 1.370 1_554 S
C708 C712 1.524 1_554 S
C709 C701 1.503 . S
C709 C708 1.370 1_556 S
C709 C710 1.394 1_556 S
C710 C709 1.394 1_554 S
C710 C711 1.421 . S
C710 C713 1.531 1_554 S
C711 C707 1.408 . S
C711 C710 1.421 . S
C711 H723 0.930 . S
C712 C708 1.524 1_556 S
C712 H724 0.956 . S
C712 H725 0.961 . S
C712 H726 0.961 1_556 S
C713 C710 1.531 1_556 S
C713 H727 0.958 . S
C713 H728 0.961 . S
C713 H729 0.960 . S
H714 C698 0.931 . S
H715 C703 0.929 . S
H716 C704 0.960 . S
H717 C704 0.962 . S
H718 C704 0.960 . S
H719 C705 0.961 . S
H720 C705 0.961 . S
H721 C705 0.961 . S
H722 C706 0.931 . S
H723 C711 0.930 . S
H724 C712 0.956 . S
H725 C712 0.961 . S
H726 C712 0.961 1_554 S
H727 C713 0.958 . S
H728 C713 0.961 . S
H729 C713 0.960 . S
C730 C731 1.391 . S
C730 C732 1.394 . S
C730 H746 0.931 . S
C731 C730 1.391 . S
C731 C735 1.376 1_455 S
C732 C730 1.394 . S
C732 C733 1.369 . S
C732 C736 1.531 . S
C733 C732 1.369 . S
C733 C734 1.410 1_455 S
C733 C741 1.503 . S
C734 C733 1.410 1_655 S
C734 C735 1.392 . S
C734 C737 1.511 . S
C735 C731 1.376 1_655 S
C735 C734 1.392 . S
C735 H747 0.929 . S
C736 C732 1.531 . S
C736 H748 0.960 . S
C736 H749 0.962 . S
C736 H750 0.960 . S
C737 C734 1.511 . S
C737 H751 0.961 . S
C737 H752 0.961 . S
C737 H753 0.961 . S
C738 C739 1.370 . S
C738 C740 1.363 . S
C738 H754 0.931 . S
C739 C738 1.370 . S
C739 C743 1.408 1_655 S
C740 C738 1.363 . S
C740 C741 1.370 1_655 S
C740 C744 1.524 . S
C741 C733 1.503 . S
C741 C740 1.370 1_455 S
C741 C742 1.403 . S
C742 C741 1.403 . S
C742 C743 1.404 . S
C742 C745 1.539 . S
C743 C739 1.408 1_455 S
C743 C742 1.404 . S
C743 H755 0.930 . S
C744 C740 1.524 . S
C744 H756 0.956 . S
C744 H757 0.961 . S
C744 H758 0.961 . S
C745 C742 1.539 . S
C745 H759 0.958 . S
C745 H760 0.961 . S
C745 H761 0.960 . S
H746 C730 0.931 . S
H747 C735 0.929 . S
H748 C736 0.960 . S
H749 C736 0.962 . S
H750 C736 0.960 . S
H751 C737 0.961 . S
H752 C737 0.961 . S
H753 C737 0.961 . S
H754 C738 0.931 . S
H755 C743 0.930 . S
H756 C744 0.956 . S
H757 C744 0.961 . S
H758 C744 0.961 . S
H759 C745 0.958 . S
H760 C745 0.961 . S
H761 C745 0.960 . S
C187 C7 0.728 . S
C195 C180 0.690 . S
C219 C51 2.045 . S
C227 C158 1.760 . S
C251 C87 1.078 . S
C259 C172 1.041 . S
C283 C16 0.449 . S
C291 C183 0.252 . S
C323 C161 1.821 . S
C315 C42 1.870 . S
C355 C169 1.236 . S
C347 C96 1.408 . S
C379 C47 1.349 . S
C387 C136 1.126 . S
C411 C91 3.272 . S
C419 C147 2.914 . S
C443 C2 2.104 . S
C451 C125 1.807 . S
C483 C139 1.083 . S
C475 C56 1.084 . S
C515 C150 2.828 . S
C507 C82 2.890 . S
C539 C11 1.798 . S
C547 C128 1.744 . S
C579 C149 1.659 . S
C571 C19 1.643 . S
C603 C50 1.400 . S
C611 C127 1.379 . S
C635 C99 1.536 . S
C643 C138 1.491 . S
C675 C171 1.432 . S
C667 C59 1.489 . S
C707 C182 1.191 . S
C699 C90 1.262 . S
C731 C10 1.442 . S
C739 C160 1.377 . S
