# Generated by pormake.
# Topology pyr, (3,6)-cn, num edge types: 1
# Building blocks:
#     Node 0, Type 0, BuildingBlock: WUSLED_clean_sbu_0, # of connection points: 3
#     Node 1, Type 0, BuildingBlock: WUSLED_clean_sbu_0, # of connection points: 3
#     Node 2, Type 0, BuildingBlock: WUSLED_clean_sbu_0, # of connection points: 3
#     Node 3, Type 0, BuildingBlock: WUSLED_clean_sbu_0, # of connection points: 3
#     Node 4, Type 0, BuildingBlock: WUSLED_clean_sbu_0, # of connection points: 3
#     Node 5, Type 0, BuildingBlock: WUSLED_clean_sbu_0, # of connection points: 3
#     Node 6, Type 0, BuildingBlock: WUSLED_clean_sbu_0, # of connection points: 3
#     Node 7, Type 0, BuildingBlock: WUSLED_clean_sbu_0, # of connection points: 3
#     Node 8, Type 1, BuildingBlock: VOLQOD_clean_sbu_1, # of connection points: 6
#     Node 9, Type 1, BuildingBlock: VOLQOD_clean_sbu_1, # of connection points: 6
#     Node 10, Type 1, BuildingBlock: VOLQOD_clean_sbu_1, # of connection points: 6
#     Node 11, Type 1, BuildingBlock: VOLQOD_clean_sbu_1, # of connection points: 6
#     Edge 12, Type (0, 1), None
#     Edge 13, Type (0, 1), None
#     Edge 14, Type (0, 1), None
#     Edge 15, Type (0, 1), None
#     Edge 16, Type (0, 1), None
#     Edge 17, Type (0, 1), None
#     Edge 18, Type (0, 1), None
#     Edge 19, Type (0, 1), None
#     Edge 20, Type (0, 1), None
#     Edge 21, Type (0, 1), None
#     Edge 22, Type (0, 1), None
#     Edge 23, Type (0, 1), None
#     Edge 24, Type (0, 1), None
#     Edge 25, Type (0, 1), None
#     Edge 26, Type (0, 1), None
#     Edge 27, Type (0, 1), None
#     Edge 28, Type (0, 1), None
#     Edge 29, Type (0, 1), None
#     Edge 30, Type (0, 1), None
#     Edge 31, Type (0, 1), None
#     Edge 32, Type (0, 1), None
#     Edge 33, Type (0, 1), None
#     Edge 34, Type (0, 1), None
#     Edge 35, Type (0, 1), None
# Relax obj value: 0.036
# Max RMSD: 0.119
# Mean RMSD: 0.045
data_MOF--net-pry--node1-WUSLED_clean_sbu_0--node2-VOLQOD_clean_sbu_1--edge1-none
_symmetry_space_group_name_H-M    P1
_symmetry_Int_Tables_number       1
_symmetry_cell_setting            triclinic
loop_
_symmetry_equiv_pos_as_xyz
'x, y, z'
_cell_length_a     28.375751
_cell_length_b     28.272181
_cell_length_c     28.42592
_cell_angle_alpha  90.418465
_cell_angle_beta   90.163182
_cell_angle_gamma 90.377994
loop_
_atom_site_label
_atom_site_type_symbol
_atom_site_fract_x
_atom_site_fract_y
_atom_site_fract_z
_atom_type_partial_charge
C0 C 0.10659 0.27551 0.08525 0.0
C1 C 0.07818 0.29854 0.1187 0.0
C2 C 0.05826 0.35862 0.06108 0.0
C3 C 0.05384 0.33989 0.10655 0.0
C4 C 0.08449 0.33367 0.02728 0.0
C5 C 0.10824 0.2925 0.03922 0.0
U6 U 0.15087 0.17366 0.16388 0.0
O7 O 0.17932 0.1047 0.14165 0.0
O8 O 0.22392 0.15509 0.18109 0.0
C9 C 0.22144 0.11434 0.15865 0.0
C10 C 0.13815 0.23643 0.09763 0.0
C11 C 0.26182 0.1021 0.12866 0.0
C12 C 0.32531 0.1228 0.07476 0.0
C13 C 0.2836 0.13485 0.09852 0.0
C14 C 0.32232 0.04504 0.10996 0.0
C15 C 0.34574 0.07812 0.08141 0.0
C16 C 0.28088 0.05691 0.13319 0.0
C17 C 0.09007 0.13717 0.27844 0.0
C18 C 0.11133 0.11808 0.35931 0.0
C19 C 0.04952 0.07371 0.31971 0.0
C20 C 0.05608 0.10084 0.27934 0.0
C21 C 0.07646 0.0825 0.36054 0.0
C22 C 0.11802 0.14516 0.31876 0.0
C23 C 0.09415 0.16771 0.23633 0.0
O24 O 0.16579 0.24363 0.13422 0.0
O25 O 0.12008 0.19355 0.09563 0.0
O26 O 0.08535 0.1471 0.19559 0.0
O27 O 0.13031 0.19703 0.2349 0.0
H28 H 0.07648 0.28576 0.15449 0.0
H29 H 0.03426 0.35875 0.13335 0.0
H30 H 0.08839 0.34726 0.99194 0.0
H31 H 0.12979 0.27512 0.01293 0.0
H32 H 0.34262 0.14901 0.0531 0.0
H33 H 0.26923 0.17 0.09453 0.0
H34 H 0.33676 0.01012 0.11544 0.0
H35 H 0.26451 0.03113 0.1561 0.0
H36 H 0.13259 0.12601 0.39012 0.0
H37 H 0.02219 0.04679 0.31928 0.0
H38 H 0.03372 0.09397 0.24907 0.0
H39 H 0.14441 0.17301 0.31947 0.0
C40 C 0.27055 0.90106 0.5841 0.0
C41 C 0.26844 0.95053 0.57923 0.0
C42 C 0.18571 0.94479 0.55578 0.0
C43 C 0.22635 0.97222 0.56495 0.0
C44 C 0.18853 0.89532 0.55998 0.0
C45 C 0.23039 0.87382 0.57377 0.0
U46 U 0.37613 0.8811 0.66808 0.0
O47 O 0.39988 0.81411 0.69859 0.0
O48 O 0.44703 0.85365 0.65203 0.0
C49 C 0.43982 0.81423 0.67529 0.0
C50 C 0.31342 0.87625 0.59995 0.0
C51 C 0.45102 0.7698 0.6501 0.0
C52 C 0.42799 0.70384 0.59928 0.0
C53 C 0.41764 0.74725 0.62094 0.0
C54 C 0.50562 0.70539 0.63485 0.0
C55 C 0.47204 0.68213 0.60618 0.0
C56 C 0.49513 0.7487 0.65662 0.0
C57 C 0.3971 0.96498 0.77364 0.0
C58 C 0.45061 0.94786 0.83805 0.0
C59 C 0.40833 0.02201 0.83745 0.0
C60 C 0.38704 1.0088 0.79472 0.0
C61 C 0.44002 0.99145 0.85997 0.0
C62 C 0.42939 0.9348 0.79534 0.0
C63 C 0.37217 0.95047 0.73025 0.0
O64 O 0.35411 0.89839 0.59578 0.0
O65 O 0.30928 0.85323 0.63972 0.0
O66 O 0.34716 0.91133 0.73324 0.0
O67 O 0.39643 0.95314 0.69101 0.0
H68 H 0.299 0.97242 0.58697 0.0
H69 H 0.2253 0.01039 0.56227 0.0
H70 H 0.15813 0.87295 0.55297 0.0
H71 H 0.23121 0.83565 0.57693 0.0
H72 H 0.40128 0.68721 0.57734 0.0
H73 H 0.38336 0.76296 0.61535 0.0
H74 H 0.53988 0.6899 0.64099 0.0
H75 H 0.52137 0.76549 0.67904 0.0
H76 H 0.47492 0.9234 0.85415 0.0
H77 H 0.39932 0.05574 0.85319 0.0
H78 H 0.36211 0.03255 0.77845 0.0
H79 H 0.43762 0.90082 0.77962 0.0
C80 C 0.57134 0.42104 0.78411 0.0
C81 C 0.605 0.45105 0.76338 0.0
C82 C 0.55126 0.46607 0.69826 0.0
C83 C 0.59493 0.47367 0.7207 0.0
C84 C 0.51714 0.43772 0.7206 0.0
C85 C 0.52711 0.41551 0.76302 0.0
U86 U 0.64922 0.38746 0.88906 0.0
O87 O 0.6286 0.36266 0.95942 0.0
O88 O 0.67025 0.31696 0.91276 0.0
C89 C 0.6471 0.32067 0.95256 0.0
C90 C 0.58221 0.39243 0.82565 0.0
C91 C 0.6175 0.27971 0.96472 0.0
C92 C 0.55597 0.22176 0.94632 0.0
C93 C 0.58022 0.26389 0.93575 0.0
C94 C 0.60534 0.2123 0.01528 0.0
C95 C 0.56923 0.19494 0.98563 0.0
C96 C 0.62911 0.25417 1.00493 0.0
C97 C 0.76432 0.45825 0.91067 0.0
C98 C 0.82145 0.44618 0.97361 0.0
C99 C 0.83855 0.50082 0.91052 0.0
C100 C 0.79501 0.49078 0.89002 0.0
C101 C 0.85261 0.47858 0.95245 0.0
C102 C 0.77754 0.4359 0.95268 0.0
C103 C 0.71958 0.44801 0.88642 0.0
O104 O 0.61888 0.36459 0.8215 0.0
O105 O 0.57998 0.41414 0.86662 0.0
O106 O 0.68075 0.45569 0.91034 0.0
O107 O 0.71835 0.40875 0.86145 0.0
H108 H 0.63943 0.45571 0.77939 0.0
H109 H 0.62191 0.49516 0.7043 0.0
H110 H 0.48295 0.4315 0.70456 0.0
H111 H 0.50069 0.39266 0.77859 0.0
H112 H 0.52843 0.20922 0.92282 0.0
H113 H 0.57086 0.28334 0.90442 0.0
H114 H 0.61613 0.19286 0.04617 0.0
H115 H 0.65764 0.2659 0.02772 0.0
H116 H 0.83117 0.42847 1.00583 0.0
H117 H 0.86121 0.52626 0.89323 0.0
H118 H 0.78539 0.50834 0.85764 0.0
H119 H 0.75414 0.41045 0.96898 0.0
C120 C 0.75744 0.57926 0.42237 0.0
C121 C 0.74078 0.61204 0.45583 0.0
C122 C 0.67455 0.55977 0.47351 0.0
C123 C 0.69957 0.60219 0.48156 0.0
C124 C 0.69288 0.5265 0.44147 0.0
C125 C 0.73383 0.53613 0.41634 0.0
U126 U 0.86406 0.65317 0.37978 0.0
O127 O 0.93167 0.62825 0.35102 0.0
O128 O 0.88412 0.67061 0.30729 0.0
C129 C 0.92366 0.64677 0.30952 0.0
C130 C 0.79729 0.5896 0.39094 0.0
C131 C 0.93612 0.61798 0.268 0.0
C132 C 0.91606 0.56685 0.2012 0.0
C133 C 0.90346 0.58887 0.24393 0.0
C134 C 0.99403 0.60175 0.20761 0.0
C135 C 0.96115 0.57435 0.18202 0.0
C136 C 0.98168 0.62312 0.25007 0.0
C137 C 0.90479 0.76618 0.44453 0.0
C138 C 0.93547 0.84251 0.41889 0.0
C139 C 0.95753 0.81196 0.49512 0.0
C140 C 0.93025 0.77144 0.48663 0.0
C141 C 0.95969 0.84852 0.46182 0.0
C142 C 0.90833 0.80174 0.41029 0.0
C143 C 0.8731 0.72471 0.43849 0.0
O144 O 0.79271 0.62685 0.36395 0.0
O145 O 0.83975 0.58529 0.40893 0.0
O146 O 0.89212 0.68315 0.44596 0.0
O147 O 0.84431 0.72494 0.40214 0.0
H148 H 0.75874 0.64562 0.46094 0.0
H149 H 0.68609 0.62853 0.50579 0.0
H150 H 0.67467 0.49331 0.43475 0.0
H151 H 0.74622 0.51034 0.39089 0.0
H152 H 0.88998 0.5461 0.18213 0.0
H153 H 0.86801 0.58447 0.2573 0.0
H154 H 0.02918 0.60789 0.19406 0.0
H155 H 0.0074 0.64529 0.26811 0.0
H156 H 0.93628 0.8699 0.39246 0.0
H157 H 0.97561 0.81525 0.52861 0.0
H158 H 0.92812 0.74463 0.5136 0.0
H159 H 0.88929 0.7987 0.37733 0.0
C160 C 0.90464 0.77585 0.94621 0.0
C161 C 0.91414 0.74301 0.91013 0.0
C162 C 0.95982 0.69516 0.96438 0.0
C163 C 0.94125 0.70298 0.9192 0.0
C164 C 0.95217 0.72928 0.99979 0.0
C165 C 0.92462 0.76908 0.99082 0.0
U166 U 0.86722 0.8842 0.8767 0.0
O167 O 0.79743 0.90663 0.85243 0.0
O168 O 0.83833 0.95248 0.90031 0.0
C169 C 0.7974 0.94432 0.87982 0.0
C170 C 0.87272 0.81618 0.93853 0.0
C171 C 0.75506 0.95139 0.90935 0.0
C172 C 0.67509 0.9296 0.93192 0.0
C173 C 0.71614 0.92037 0.90646 0.0
C174 C 0.71151 1.00011 0.96492 0.0
C175 C 0.67202 0.96997 0.9609 0.0
C176 C 0.75244 0.99104 0.93922 0.0
C177 C 0.94474 0.91607 0.76971 0.0
C178 C 0.92533 0.96949 0.70582 0.0
C179 C 1.00057 0.92938 0.70698 0.0
C180 C 0.98868 0.90796 0.74927 0.0
C181 C 0.96872 0.95955 0.68416 0.0
C182 C 0.91327 0.94761 0.74837 0.0
C183 C 0.93214 0.88856 0.81143 0.0
O184 O 0.891 0.85847 0.94584 0.0
O185 O 0.84583 0.81374 0.90083 0.0
O186 O 0.89399 0.86219 0.80765 0.0
O187 O 0.93614 0.91033 0.85227 0.0
H188 H 0.89972 0.74754 0.87515 0.0
H189 H 0.94662 0.67753 0.89107 0.0
H190 H 0.96578 0.72433 0.03504 0.0
H191 H 0.91796 0.79403 0.01911 0.0
H192 H 0.64538 0.90563 0.928 0.0
H193 H 0.71686 0.88943 0.88379 0.0
H194 H 0.71037 0.03166 0.98672 0.0
H195 H 0.78175 0.01567 0.94195 0.0
H196 H 0.90009 0.99251 0.68901 0.0
H197 H 0.0345 0.92135 0.69159 0.0
H198 H 0.01341 0.88385 0.76537 0.0
H199 H 0.87909 0.95422 0.76389 0.0
C200 C 0.58914 0.12626 0.27669 0.0
C201 C 0.62387 0.12036 0.24195 0.0
C202 C 0.56877 0.07519 0.19309 0.0
C203 C 0.61372 0.09522 0.20053 0.0
C204 C 0.53491 0.07915 0.22898 0.0
C205 C 0.54496 0.10462 0.27019 0.0
U206 U 0.65898 0.16286 0.38695 0.0
O207 O 0.68041 0.23338 0.41214 0.0
O208 O 0.63386 0.18931 0.45554 0.0
C209 C 0.65283 0.23134 0.4492 0.0
C210 C 0.59716 0.1569 0.31838 0.0
C211 C 0.62141 0.27216 0.45698 0.0
C212 C 0.58528 0.34534 0.43067 0.0
C213 C 0.61226 0.3051 0.42128 0.0
C214 C 0.57428 0.3192 0.51085 0.0
C215 C 0.56662 0.35328 0.47582 0.0
C216 C 0.60154 0.27923 0.50154 0.0
C217 C 0.76917 0.08716 0.41578 0.0
C218 C 0.82591 0.09795 0.47957 0.0
C219 C 0.83908 0.03876 0.419 0.0
C220 C 0.79699 0.05103 0.39723 0.0
C221 C 0.85451 0.06233 0.4601 0.0
C222 C 0.78346 0.11049 0.45734 0.0
C223 C 0.72658 0.10004 0.38949 0.0
O224 O 0.59059 0.13711 0.35958 0.0
O225 O 0.63438 0.18482 0.31723 0.0
O226 O 0.72921 0.13921 0.36502 0.0
O227 O 0.68597 0.09425 0.4109 0.0
H228 H 0.65848 0.13627 0.24607 0.0
H229 H 0.64068 0.09275 0.17374 0.0
H230 H 0.49989 0.06429 0.22449 0.0
H231 H 0.51765 0.10859 0.29647 0.0
H232 H 0.58003 0.37076 0.40284 0.0
H233 H 0.62675 0.30038 0.38636 0.0
H234 H 0.56055 0.32409 0.54605 0.0
H235 H 0.60797 0.25428 0.52956 0.0
H236 H 0.83685 0.11678 0.51111 0.0
H237 H 0.8598 0.01085 0.40314 0.0
H238 H 0.78646 0.03261 0.36527 0.0
H239 H 0.76224 0.13862 0.47207 0.0
C240 C 0.26021 0.60038 0.13649 0.0
C241 C 0.22745 0.63624 0.12705 0.0
C242 C 0.17967 0.58111 0.08089 0.0
C243 C 0.18748 0.62662 0.09969 0.0
C244 C 0.21359 0.5459 0.08867 0.0
C245 C 0.2533 0.55542 0.11642 0.0
U246 U 0.37031 0.66926 0.17421 0.0
O247 O 0.39228 0.69442 0.24428 0.0
O248 O 0.4371 0.64507 0.20497 0.0
C249 C 0.42908 0.6664 0.24543 0.0
C250 C 0.30045 0.60848 0.16866 0.0
C251 C 0.435 0.63723 0.28813 0.0
C252 C 0.41452 0.61812 0.36905 0.0
C253 C 0.40631 0.64374 0.32794 0.0
C254 C 0.4795 0.57818 0.33108 0.0
C255 C 0.45162 0.58547 0.37132 0.0
C256 C 0.47143 0.60393 0.29012 0.0
C257 C 0.41061 0.77427 0.09913 0.0
C258 C 0.44634 0.84904 0.12299 0.0
C259 C 0.45136 0.82292 0.0418 0.0
C260 C 0.42652 0.78168 0.05309 0.0
C261 C 0.46025 0.85773 0.07635 0.0
C262 C 0.42194 0.8076 0.13433 0.0
C263 C 0.37956 0.73352 0.10881 0.0
O264 O 0.34246 0.59979 0.15132 0.0
O265 O 0.29902 0.64723 0.19447 0.0
O266 O 0.35108 0.73805 0.14497 0.0
O267 O 0.39895 0.69151 0.10572 0.0
H268 H 0.23202 0.67147 0.14165 0.0
H269 H 0.16217 0.65458 0.09422 0.0
H270 H 0.20866 0.51041 0.07484 0.0
H271 H 0.27812 0.52727 0.12313 0.0
H272 H 0.39242 0.62472 0.39937 0.0
H273 H 0.37802 0.66927 0.32777 0.0
H274 H 0.50853 0.5535 0.33153 0.0
H275 H 0.49438 0.59839 0.26021 0.0
H276 H 0.45295 0.87496 0.15052 0.0
H277 H 0.4615 0.8285 1.00555 0.0
H278 H 0.41827 0.7563 0.02547 0.0
H279 H 0.41056 0.80247 0.17029 0.0
C280 C 0.07476 0.26509 0.63963 0.0
C281 C 0.10809 0.24388 0.60994 0.0
C282 C 0.05473 0.17724 0.59543 0.0
C283 C 0.09823 0.20033 0.58814 0.0
C284 C 0.02118 0.19919 0.6246 0.0
C285 C 0.03119 0.24263 0.64654 0.0
U286 U 0.14954 0.37674 0.65744 0.0
O287 O 0.13051 0.44849 0.68117 0.0
O288 O 0.18034 0.40639 0.72232 0.0
C289 C 0.15519 0.4452 0.72028 0.0
C290 C 0.08569 0.30949 0.66502 0.0
C291 C 0.13229 0.45989 0.7648 0.0
C292 C 0.06598 0.4921 0.80873 0.0
C293 C 0.08594 0.47728 0.76607 0.0
C294 C 0.13836 0.47275 0.84934 0.0
C295 C 0.09191 0.48973 0.85093 0.0
C296 C 0.15831 0.45829 0.80682 0.0
C297 C 0.25476 0.39914 0.57595 0.0
C298 C 0.29977 0.47221 0.56634 0.0
C299 C 0.33743 0.3964 0.55464 0.0
C300 C 0.29502 0.3733 0.56421 0.0
C301 C 0.34057 0.44607 0.55617 0.0
C302 C 0.2572 0.44888 0.57653 0.0
C303 C 0.21189 0.3728 0.58955 0.0
O304 O 0.12575 0.30978 0.68832 0.0
O305 O 0.07833 0.34883 0.64178 0.0
O306 O 0.17124 0.39451 0.58525 0.0
O307 O 0.21567 0.34887 0.62879 0.0
H308 H 0.14196 0.26073 0.60411 0.0
H309 H 0.12484 0.18468 0.56578 0.0
H310 H 0.98732 0.18258 0.63102 0.0
H311 H 0.00506 0.25843 0.66938 0.0
H312 H 0.03009 0.50489 0.80869 0.0
H313 H 0.06504 0.47945 0.73423 0.0
H314 H 0.1595 0.47058 0.88103 0.0
H315 H 0.19433 0.44578 0.80682 0.0
H316 H 0.30113 0.51048 0.56796 0.0
H317 H 0.36803 0.37513 0.54657 0.0
H318 H 0.29393 0.33497 0.56348 0.0
H319 H 0.2266 0.46965 0.58574 0.0
O320 O 1.00374 0.11184 0.57776 0.0
Zn321 Zn 0.97434 0.04894 0.55823 0.0
O322 O 0.01997 0.01368 0.51877 0.0
Zn323 Zn 0.99286 0.99893 0.45739 0.0
Zn324 Zn 0.0794 0.04906 0.51128 0.0
Zn325 Zn 0.0336 0.95374 0.54748 0.0
O326 O 0.98062 0.92895 0.44592 0.0
O327 O 1.00144 0.89929 0.51467 0.0
O328 O 0.91272 0.06166 0.52215 0.0
O329 O 0.92926 0.02721 0.45381 0.0
O330 O 0.02991 0.02927 0.40545 0.0
O331 O 0.08663 0.06906 0.44296 0.0
O332 O 0.13687 0.00962 0.53124 0.0
O333 O 0.96029 0.01311 0.61931 0.0
O334 O 0.10261 0.94159 0.55021 0.0
O335 O 0.01028 0.95328 0.61297 0.0
C336 C 0.0446 0.13044 0.57317 0.0
C337 C 0.98312 0.89418 0.47406 0.0
C338 C 0.0648 0.05789 0.40509 0.0
C339 C 0.9012 0.05008 0.48011 0.0
C340 C 0.13953 0.96666 0.54464 0.0
C341 C 0.98035 0.97677 0.63651 0.0
O342 O 0.07702 0.10955 0.55008 0.0
O343 O 0.50823 0.13511 0.9804 0.0
Zn344 Zn 0.4715 0.07252 0.9902 0.0
O345 O 0.51091 0.02653 0.02547 0.0
Zn346 Zn 0.52067 0.96884 0.98851 0.0
Zn347 Zn 0.57212 0.05354 0.04173 0.0
Zn348 Zn 0.48108 0.00951 0.08438 0.0
O349 O 0.49618 0.91085 0.02214 0.0
O350 O 0.47313 0.93942 0.09117 0.0
O351 O 0.45289 0.04383 0.92598 0.0
O352 O 0.48563 0.97263 0.92735 0.0
O353 O 0.58938 0.96022 0.97232 0.0
O354 O 0.62546 0.01865 0.01089 0.0
O355 O 0.58289 0.06099 0.11164 0.0
O356 O 0.40986 0.0859 0.02636 0.0
O357 O 0.51495 0.03635 0.14099 0.0
O358 O 0.41681 0.03622 0.08619 0.0
C359 C 0.54935 0.14727 0.9948 0.0
C360 C 0.47897 0.90476 0.06303 0.0
C361 C 0.62681 0.9828 0.98356 0.0
C362 C 0.46085 1.00365 0.9067 0.0
C363 C 0.55555 0.05493 0.14653 0.0
C364 C 0.39313 0.06626 0.06315 0.0
O365 O 0.57511 0.1189 0.0177 0.0
O366 O 0.56404 0.51823 0.63261 0.0
Zn367 Zn 0.55267 0.5539 0.57035 0.0
O368 O 0.507 0.51837 0.53047 0.0
Zn369 Zn 0.53352 0.50237 0.46953 0.0
Zn370 Zn 0.4925 0.45863 0.559 0.0
Zn371 Zn 0.44813 0.55337 0.52198 0.0
O372 O 0.49805 0.53312 0.41692 0.0
O373 O 0.44201 0.57336 0.45381 0.0
O374 O 0.6155 0.56462 0.53458 0.0
O375 O 0.5983 0.52816 0.46704 0.0
O376 O 0.54315 0.43223 0.45828 0.0
O377 O 0.52694 0.40458 0.52902 0.0
O378 O 0.42375 0.44458 0.55649 0.0
O379 O 0.52364 0.61754 0.58862 0.0
O380 O 0.3902 0.51291 0.53863 0.0
O381 O 0.45005 0.61361 0.5613 0.0
C382 C 0.54179 0.48294 0.64993 0.0
C383 C 0.46368 0.56188 0.41618 0.0
C384 C 0.54307 0.39853 0.48776 0.0
C385 C 0.627 0.55097 0.49316 0.0
C386 C 0.3871 0.4693 0.54976 0.0
C387 C 0.48255 0.63534 0.5841 0.0
O388 O 0.51174 0.45968 0.62576 0.0
O389 O 0.95756 0.52045 0.11572 0.0
Zn390 Zn 0.97289 0.48855 0.05175 0.0
O391 O 0.0167 0.52925 0.01431 0.0
Zn392 Zn 0.99039 0.54493 0.95302 0.0
Zn393 Zn 0.03068 0.58802 0.04771 0.0
Zn394 Zn 0.07598 0.4976 1.003 0.0
O395 O 0.03044 0.52306 0.89798 0.0
O396 O 0.09222 0.49278 0.93448 0.0
O397 O 0.91125 0.47755 0.0142 0.0
O398 O 0.92776 0.51408 0.94714 0.0
O399 O 0.97714 0.61464 0.94771 0.0
O400 O 1.00263 0.64459 0.01553 0.0
O401 O 0.10007 0.59748 0.06041 0.0
O402 O 1.00396 0.42381 0.06446 0.0
O403 O 0.12978 0.52881 0.03743 0.0
O404 O 0.07173 0.432 0.02602 0.0
C405 C 0.97368 0.55889 0.13371 0.0
C406 C 0.07055 0.50311 0.89672 0.0
C407 C 0.98251 0.64956 0.97579 0.0
C408 C 0.89977 0.49004 0.97254 0.0
C409 C 0.1346 0.56913 0.05709 0.0
C410 C 0.04319 0.4072 0.04997 0.0
O411 O 1.00151 0.58561 0.11095 0.0
loop_
_geom_bond_atom_site_label_1
_geom_bond_atom_site_label_2
_geom_bond_distance
_geom_bond_site_symmetry_2
_ccdc_geom_bond_type
C0 C1 1.264 . S
C0 C5 1.479 . S
C0 C10 1.465 . S
C1 C0 1.264 . S
C1 C3 1.339 . S
C1 H28 0.931 . S
C2 C3 1.395 . S
C2 C4 1.320 . S
C3 C1 1.339 . S
C3 C2 1.395 . S
C3 H29 0.929 1_455 S
C4 C2 1.320 . S
C4 C5 1.405 . S
C4 H30 0.930 . S
C5 C0 1.479 . S
C5 C4 1.405 . S
C5 H31 0.931 . S
U6 O7 2.454 . S
U6 O8 2.458 . S
U6 C9 2.984 . S
U6 C10 2.847 . S
U6 C23 2.882 . S
U6 O24 2.441 . S
U6 O25 2.420 . S
U6 O26 2.455 . S
U6 O27 2.449 . S
O7 U6 2.454 . S
O7 C9 1.353 . S
O8 U6 2.458 . S
O8 C9 1.286 . S
C9 U6 2.984 . S
C9 O7 1.353 . S
C9 O8 1.286 . S
C9 C11 1.363 . S
C10 C0 1.465 . S
C10 U6 2.847 . S
C10 O24 1.249 . S
C10 O25 1.202 . S
C11 C9 1.363 . S
C11 C13 1.408 . S
C11 C16 1.342 . S
C12 C13 1.310 . S
C12 C15 1.461 . S
C12 H32 0.932 . S
C13 C11 1.408 . S
C13 C12 1.310 . S
C13 H33 0.930 . S
C14 C15 1.474 . S
C14 C16 1.285 . S
C14 H34 0.929 . S
C15 C12 1.461 . S
C15 C14 1.474 . S
C16 C11 1.342 . S
C16 C14 1.285 . S
C16 H35 0.930 . S
C17 C20 1.424 . S
C17 C22 1.245 . S
C17 C23 1.428 . S
C18 C21 1.260 . S
C18 C22 1.477 . S
C18 H36 0.932 . S
C19 C20 1.384 . S
C19 C21 1.479 . S
C19 H37 0.929 1_455 S
C20 C17 1.424 . S
C20 C19 1.384 . S
C20 H38 0.928 . S
C21 C18 1.260 . S
C21 C19 1.479 . S
C22 C17 1.245 . S
C22 C18 1.477 . S
C22 H39 0.932 . S
C23 U6 2.882 . S
C23 C17 1.428 . S
C23 O26 1.301 . S
C23 O27 1.282 . S
O24 U6 2.441 . S
O24 C10 1.249 . S
O25 U6 2.420 . S
O25 C10 1.202 . S
O26 U6 2.455 . S
O26 C23 1.301 . S
O27 U6 2.449 . S
O27 C23 1.282 . S
H28 C1 0.931 . S
H29 C3 0.929 1_655 S
H30 C4 0.930 . S
H31 C5 0.931 . S
H32 C12 0.932 . S
H33 C13 0.930 . S
H34 C14 0.929 . S
H35 C16 0.930 . S
H36 C18 0.932 . S
H37 C19 0.929 1_655 S
H38 C20 0.928 . S
H39 C22 0.932 . S
C40 C41 1.264 . S
C40 C45 1.479 . S
C40 C50 1.465 . S
C41 C40 1.264 . S
C41 C43 1.339 . S
C41 H68 0.931 . S
C42 C43 1.395 . S
C42 C44 1.320 . S
C43 C41 1.339 . S
C43 C42 1.395 . S
C43 H69 0.929 . S
C44 C42 1.320 . S
C44 C45 1.405 . S
C44 H70 0.930 . S
C45 C40 1.479 . S
C45 C44 1.405 . S
C45 H71 0.931 . S
U46 O47 2.454 . S
U46 O48 2.458 . S
U46 C49 2.984 . S
U46 C50 2.847 . S
U46 C63 2.882 . S
U46 O64 2.441 . S
U46 O65 2.420 . S
U46 O66 2.455 . S
U46 O67 2.449 . S
O47 U46 2.454 . S
O47 C49 1.353 . S
O48 U46 2.458 . S
O48 C49 1.286 . S
C49 U46 2.984 . S
C49 O47 1.353 . S
C49 O48 1.286 . S
C49 C51 1.363 . S
C50 C40 1.465 . S
C50 U46 2.847 . S
C50 O64 1.249 . S
C50 O65 1.202 . S
C51 C49 1.363 . S
C51 C53 1.408 . S
C51 C56 1.342 . S
C52 C53 1.310 . S
C52 C55 1.461 . S
C52 H72 0.932 . S
C53 C51 1.408 . S
C53 C52 1.310 . S
C53 H73 0.930 . S
C54 C55 1.474 . S
C54 C56 1.285 . S
C54 H74 0.929 . S
C55 C52 1.461 . S
C55 C54 1.474 . S
C56 C51 1.342 . S
C56 C54 1.285 . S
C56 H75 0.930 . S
C57 C60 1.424 . S
C57 C62 1.245 . S
C57 C63 1.428 . S
C58 C61 1.260 . S
C58 C62 1.477 . S
C58 H76 0.932 . S
C59 C60 1.384 . S
C59 C61 1.479 . S
C59 H77 0.929 . S
C60 C57 1.424 . S
C60 C59 1.384 . S
C60 H78 0.928 . S
C61 C58 1.260 . S
C61 C59 1.479 . S
C62 C57 1.245 . S
C62 C58 1.477 . S
C62 H79 0.932 . S
C63 U46 2.882 . S
C63 C57 1.428 . S
C63 O66 1.301 . S
C63 O67 1.282 . S
O64 U46 2.441 . S
O64 C50 1.249 . S
O65 U46 2.420 . S
O65 C50 1.202 . S
O66 U46 2.455 . S
O66 C63 1.301 . S
O67 U46 2.449 . S
O67 C63 1.282 . S
H68 C41 0.931 . S
H69 C43 0.929 . S
H70 C44 0.930 . S
H71 C45 0.931 . S
H72 C52 0.932 . S
H73 C53 0.930 . S
H74 C54 0.929 . S
H75 C56 0.930 . S
H76 C58 0.932 . S
H77 C59 0.929 . S
H78 C60 0.928 . S
H79 C62 0.932 . S
C80 C81 1.264 . S
C80 C85 1.479 . S
C80 C90 1.465 . S
C81 C80 1.264 . S
C81 C83 1.339 . S
C81 H108 0.931 . S
C82 C83 1.395 . S
C82 C84 1.320 . S
C83 C81 1.339 . S
C83 C82 1.395 . S
C83 H109 0.929 . S
C84 C82 1.320 . S
C84 C85 1.405 . S
C84 H110 0.930 . S
C85 C80 1.479 . S
C85 C84 1.405 . S
C85 H111 0.931 . S
U86 O87 2.454 . S
U86 O88 2.458 . S
U86 C89 2.984 . S
U86 C90 2.847 . S
U86 C103 2.882 . S
U86 O104 2.441 . S
U86 O105 2.420 . S
U86 O106 2.455 . S
U86 O107 2.449 . S
O87 U86 2.454 . S
O87 C89 1.353 . S
O88 U86 2.458 . S
O88 C89 1.286 . S
C89 U86 2.984 . S
C89 O87 1.353 . S
C89 O88 1.286 . S
C89 C91 1.363 . S
C90 C80 1.465 . S
C90 U86 2.847 . S
C90 O104 1.249 . S
C90 O105 1.202 . S
C91 C89 1.363 . S
C91 C93 1.408 . S
C91 C96 1.342 . S
C92 C93 1.310 . S
C92 C95 1.461 . S
C92 H112 0.932 . S
C93 C91 1.408 . S
C93 C92 1.310 . S
C93 H113 0.930 . S
C94 C95 1.474 1_554 S
C94 C96 1.285 1_554 S
C94 H114 0.929 . S
C95 C92 1.461 . S
C95 C94 1.474 1_556 S
C96 C91 1.342 . S
C96 C94 1.285 1_556 S
C96 H115 0.930 1_556 S
C97 C100 1.424 . S
C97 C102 1.245 . S
C97 C103 1.428 . S
C98 C101 1.260 1_554 S
C98 C102 1.477 1_554 S
C98 H116 0.932 . S
C99 C100 1.384 . S
C99 C101 1.479 . S
C99 H117 0.929 . S
C100 C97 1.424 . S
C100 C99 1.384 . S
C100 H118 0.928 . S
C101 C98 1.260 1_556 S
C101 C99 1.479 . S
C102 C97 1.245 . S
C102 C98 1.477 1_556 S
C102 H119 0.932 1_556 S
C103 U86 2.882 . S
C103 C97 1.428 . S
C103 O106 1.301 . S
C103 O107 1.282 . S
O104 U86 2.441 . S
O104 C90 1.249 . S
O105 U86 2.420 . S
O105 C90 1.202 . S
O106 U86 2.455 . S
O106 C103 1.301 . S
O107 U86 2.449 . S
O107 C103 1.282 . S
H108 C81 0.931 . S
H109 C83 0.929 . S
H110 C84 0.930 . S
H111 C85 0.931 . S
H112 C92 0.932 . S
H113 C93 0.930 . S
H114 C94 0.929 . S
H115 C96 0.930 1_554 S
H116 C98 0.932 . S
H117 C99 0.929 . S
H118 C100 0.928 . S
H119 C102 0.932 1_554 S
C120 C121 1.264 . S
C120 C125 1.479 . S
C120 C130 1.465 . S
C121 C120 1.264 . S
C121 C123 1.339 . S
C121 H148 0.931 . S
C122 C123 1.395 . S
C122 C124 1.320 . S
C123 C121 1.339 . S
C123 C122 1.395 . S
C123 H149 0.929 . S
C124 C122 1.320 . S
C124 C125 1.405 . S
C124 H150 0.930 . S
C125 C120 1.479 . S
C125 C124 1.405 . S
C125 H151 0.931 . S
U126 O127 2.454 . S
U126 O128 2.458 . S
U126 C129 2.984 . S
U126 C130 2.847 . S
U126 C143 2.882 . S
U126 O144 2.441 . S
U126 O145 2.420 . S
U126 O146 2.455 . S
U126 O147 2.449 . S
O127 U126 2.454 . S
O127 C129 1.353 . S
O128 U126 2.458 . S
O128 C129 1.286 . S
C129 U126 2.984 . S
C129 O127 1.353 . S
C129 O128 1.286 . S
C129 C131 1.363 . S
C130 C120 1.465 . S
C130 U126 2.847 . S
C130 O144 1.249 . S
C130 O145 1.202 . S
C131 C129 1.363 . S
C131 C133 1.408 . S
C131 C136 1.342 . S
C132 C133 1.310 . S
C132 C135 1.461 . S
C132 H152 0.932 . S
C133 C131 1.408 . S
C133 C132 1.310 . S
C133 H153 0.930 . S
C134 C135 1.474 1_455 S
C134 C136 1.285 1_455 S
C134 H154 0.929 . S
C135 C132 1.461 . S
C135 C134 1.474 1_655 S
C136 C131 1.342 . S
C136 C134 1.285 1_655 S
C136 H155 0.938 . S
C137 C140 1.424 . S
C137 C142 1.245 . S
C137 C143 1.428 . S
C138 C141 1.260 1_455 S
C138 C142 1.477 1_455 S
C138 H156 0.932 . S
C139 C140 1.384 . S
C139 C141 1.479 . S
C139 H157 0.929 . S
C140 C137 1.424 . S
C140 C139 1.384 . S
C140 H158 0.928 . S
C141 C138 1.260 1_655 S
C141 C139 1.479 . S
C142 C137 1.245 . S
C142 C138 1.477 1_655 S
C142 H159 0.932 1_655 S
C143 U126 2.882 . S
C143 C137 1.428 . S
C143 O146 1.301 . S
C143 O147 1.282 . S
O144 U126 2.441 . S
O144 C130 1.249 . S
O145 U126 2.420 . S
O145 C130 1.202 . S
O146 U126 2.455 . S
O146 C143 1.301 . S
O147 U126 2.449 . S
O147 C143 1.282 . S
H148 C121 0.931 . S
H149 C123 0.929 . S
H150 C124 0.930 . S
H151 C125 0.931 . S
H152 C132 0.932 . S
H153 C133 0.930 . S
H154 C134 0.929 . S
H155 C136 0.938 . S
H156 C138 0.932 . S
H157 C139 0.929 . S
H158 C140 0.928 . S
H159 C142 0.932 1_455 S
C160 C161 1.264 . S
C160 C165 1.479 1_556 S
C160 C170 1.465 . S
C161 C160 1.264 . S
C161 C163 1.339 1_655 S
C161 H188 0.935 . S
C162 C163 1.395 1_554 S
C162 C164 1.320 1_455 S
C163 C161 1.339 1_455 S
C163 C162 1.395 1_556 S
C163 H189 0.929 . S
C164 C162 1.320 1_655 S
C164 C165 1.405 . S
C164 H190 0.930 . S
C165 C160 1.479 1_554 S
C165 C164 1.405 . S
C165 H191 0.931 . S
U166 O167 2.454 . S
U166 O168 2.458 . S
U166 C169 2.984 . S
U166 C170 2.847 . S
U166 C183 2.882 . S
U166 O184 2.441 . S
U166 O185 2.420 . S
U166 O186 2.455 . S
U166 O187 2.449 . S
O167 U166 2.454 . S
O167 C169 1.353 . S
O168 U166 2.458 . S
O168 C169 1.286 . S
C169 U166 2.984 . S
C169 O167 1.353 . S
C169 O168 1.286 . S
C169 C171 1.363 . S
C170 C160 1.465 . S
C170 U166 2.847 . S
C170 O184 1.249 . S
C170 O185 1.202 . S
C171 C169 1.363 . S
C171 C173 1.408 1_556 S
C171 C176 1.342 1_565 S
C172 C173 1.310 . S
C172 C175 1.461 1_565 S
C172 H192 0.932 . S
C173 C171 1.408 1_554 S
C173 C172 1.310 . S
C173 H193 0.930 . S
C174 C175 1.474 1_556 S
C174 C176 1.285 . S
C174 H194 0.929 . S
C175 C172 1.461 1_545 S
C175 C174 1.474 1_554 S
C176 C171 1.342 1_545 S
C176 C174 1.285 . S
C176 H195 0.930 . S
C177 C180 1.424 . S
C177 C182 1.245 1_565 S
C177 C183 1.428 . S
C178 C181 1.250 1_655 S
C178 C182 1.477 . S
C178 H196 0.932 . S
C179 C180 1.384 1_455 S
C179 C181 1.482 1_565 S
C179 H197 0.929 . S
C180 C177 1.424 . S
C180 C179 1.384 1_655 S
C180 H198 0.928 1_655 S
C181 C178 1.250 1_455 S
C181 C179 1.482 1_545 S
C182 C177 1.245 1_545 S
C182 C178 1.477 . S
C182 H199 0.932 . S
C183 U166 2.882 . S
C183 C177 1.428 . S
C183 O186 1.301 . S
C183 O187 1.282 . S
O184 U166 2.441 . S
O184 C170 1.249 . S
O185 U166 2.420 . S
O185 C170 1.202 . S
O186 U166 2.455 . S
O186 C183 1.301 . S
O187 U166 2.449 . S
O187 C183 1.282 . S
H188 C161 0.935 . S
H189 C163 0.929 . S
H190 C164 0.930 . S
H191 C165 0.931 . S
H192 C172 0.932 . S
H193 C173 0.930 . S
H194 C174 0.929 . S
H195 C176 0.930 . S
H196 C178 0.932 . S
H197 C179 0.929 . S
H198 C180 0.928 1_455 S
H199 C182 0.932 . S
C200 C201 1.264 . S
C200 C205 1.479 . S
C200 C210 1.465 . S
C201 C200 1.264 . S
C201 C203 1.339 1_545 S
C201 H228 0.931 . S
C202 C203 1.395 . S
C202 C204 1.320 1_565 S
C203 C201 1.339 1_565 S
C203 C202 1.395 . S
C203 H229 0.929 . S
C204 C202 1.320 1_545 S
C204 C205 1.405 . S
C204 H230 0.930 . S
C205 C200 1.479 . S
C205 C204 1.405 . S
C205 H231 0.931 . S
U206 O207 2.454 . S
U206 O208 2.458 . S
U206 C209 2.984 . S
U206 C210 2.847 . S
U206 C223 2.882 . S
U206 O224 2.441 . S
U206 O225 2.420 . S
U206 O226 2.455 . S
U206 O227 2.449 . S
O207 U206 2.454 . S
O207 C209 1.353 . S
O208 U206 2.458 . S
O208 C209 1.286 . S
C209 U206 2.984 . S
C209 O207 1.353 . S
C209 O208 1.286 . S
C209 C211 1.363 . S
C210 C200 1.465 . S
C210 U206 2.847 . S
C210 O224 1.249 . S
C210 O225 1.202 . S
C211 C209 1.363 . S
C211 C213 1.408 . S
C211 C216 1.342 . S
C212 C213 1.310 . S
C212 C215 1.461 . S
C212 H232 0.932 . S
C213 C211 1.408 . S
C213 C212 1.310 . S
C213 H233 0.930 . S
C214 C215 1.474 . S
C214 C216 1.285 . S
C214 H234 0.929 . S
C215 C212 1.461 . S
C215 C214 1.474 . S
C216 C211 1.342 . S
C216 C214 1.285 . S
C216 H235 0.930 . S
C217 C220 1.424 . S
C217 C222 1.245 . S
C217 C223 1.428 . S
C218 C221 1.258 . S
C218 C222 1.477 . S
C218 H236 0.932 . S
C219 C220 1.384 1_565 S
C219 C221 1.479 1_565 S
C219 H237 0.929 . S
C220 C217 1.424 . S
C220 C219 1.384 1_545 S
C220 H238 0.928 1_545 S
C221 C218 1.258 . S
C221 C219 1.479 1_545 S
C222 C217 1.245 . S
C222 C218 1.477 . S
C222 H239 0.932 . S
C223 U206 2.882 . S
C223 C217 1.428 . S
C223 O226 1.301 . S
C223 O227 1.282 . S
O224 U206 2.441 . S
O224 C210 1.249 . S
O225 U206 2.420 . S
O225 C210 1.202 . S
O226 U206 2.455 . S
O226 C223 1.301 . S
O227 U206 2.449 . S
O227 C223 1.282 . S
H228 C201 0.931 . S
H229 C203 0.929 . S
H230 C204 0.930 . S
H231 C205 0.931 . S
H232 C212 0.932 . S
H233 C213 0.930 . S
H234 C214 0.929 . S
H235 C216 0.930 . S
H236 C218 0.932 . S
H237 C219 0.929 . S
H238 C220 0.928 1_565 S
H239 C222 0.932 . S
C240 C241 1.264 . S
C240 C245 1.479 . S
C240 C250 1.465 . S
C241 C240 1.264 . S
C241 C243 1.339 . S
C241 H268 0.931 . S
C242 C243 1.395 . S
C242 C244 1.320 . S
C243 C241 1.339 . S
C243 C242 1.395 . S
C243 H269 0.929 1_554 S
C244 C242 1.320 . S
C244 C245 1.405 . S
C244 H270 0.930 . S
C245 C240 1.479 . S
C245 C244 1.405 . S
C245 H271 0.931 . S
U246 O247 2.454 . S
U246 O248 2.458 . S
U246 C249 2.984 . S
U246 C250 2.847 . S
U246 C263 2.882 . S
U246 O264 2.441 . S
U246 O265 2.420 . S
U246 O266 2.455 . S
U246 O267 2.449 . S
O247 U246 2.454 . S
O247 C249 1.353 . S
O248 U246 2.458 . S
O248 C249 1.286 . S
C249 U246 2.984 . S
C249 O247 1.353 . S
C249 O248 1.286 . S
C249 C251 1.363 . S
C250 C240 1.465 . S
C250 U246 2.847 . S
C250 O264 1.249 . S
C250 O265 1.202 . S
C251 C249 1.363 . S
C251 C253 1.408 . S
C251 C256 1.342 . S
C252 C253 1.310 . S
C252 C255 1.461 . S
C252 H272 0.932 . S
C253 C251 1.408 . S
C253 C252 1.310 . S
C253 H273 0.930 . S
C254 C255 1.474 . S
C254 C256 1.285 . S
C254 H274 0.929 . S
C255 C252 1.461 . S
C255 C254 1.474 . S
C256 C251 1.342 . S
C256 C254 1.285 . S
C256 H275 0.930 . S
C257 C260 1.424 . S
C257 C262 1.245 . S
C257 C263 1.428 . S
C258 C261 1.260 . S
C258 C262 1.477 . S
C258 H276 0.932 . S
C259 C260 1.384 . S
C259 C261 1.479 . S
C259 H277 0.929 1_554 S
C260 C257 1.424 . S
C260 C259 1.384 . S
C260 H278 0.928 . S
C261 C258 1.260 . S
C261 C259 1.479 . S
C262 C257 1.245 . S
C262 C258 1.477 . S
C262 H279 0.932 . S
C263 U246 2.882 . S
C263 C257 1.428 . S
C263 O266 1.301 . S
C263 O267 1.282 . S
O264 U246 2.441 . S
O264 C250 1.249 . S
O265 U246 2.420 . S
O265 C250 1.202 . S
O266 U246 2.455 . S
O266 C263 1.301 . S
O267 U246 2.449 . S
O267 C263 1.282 . S
H268 C241 0.931 . S
H269 C243 0.929 1_556 S
H270 C244 0.930 . S
H271 C245 0.931 . S
H272 C252 0.932 . S
H273 C253 0.930 . S
H274 C254 0.929 . S
H275 C256 0.930 . S
H276 C258 0.932 . S
H277 C259 0.929 1_556 S
H278 C260 0.928 . S
H279 C262 0.932 . S
C280 C281 1.264 . S
C280 C285 1.479 . S
C280 C290 1.465 . S
C281 C280 1.264 . S
C281 C283 1.339 . S
C281 H308 0.931 . S
C282 C283 1.395 . S
C282 C284 1.320 1_455 S
C283 C281 1.339 . S
C283 C282 1.395 . S
C283 H309 0.929 . S
C284 C282 1.320 1_655 S
C284 C285 1.405 1_655 S
C284 H310 0.930 . S
C285 C280 1.479 . S
C285 C284 1.405 1_455 S
C285 H311 0.931 1_455 S
U286 O287 2.454 . S
U286 O288 2.458 . S
U286 C289 2.984 . S
U286 C290 2.847 . S
U286 C303 2.882 . S
U286 O304 2.441 . S
U286 O305 2.420 . S
U286 O306 2.455 . S
U286 O307 2.449 . S
O287 U286 2.454 . S
O287 C289 1.353 . S
O288 U286 2.458 . S
O288 C289 1.286 . S
C289 U286 2.984 . S
C289 O287 1.353 . S
C289 O288 1.286 . S
C289 C291 1.363 . S
C290 C280 1.465 . S
C290 U286 2.847 . S
C290 O304 1.249 . S
C290 O305 1.202 . S
C291 C289 1.363 . S
C291 C293 1.408 . S
C291 C296 1.342 . S
C292 C293 1.310 1_655 S
C292 C295 1.461 1_655 S
C292 H312 0.932 . S
C293 C291 1.408 . S
C293 C292 1.310 1_455 S
C293 H313 0.930 1_455 S
C294 C295 1.474 . S
C294 C296 1.285 . S
C294 H314 0.929 . S
C295 C292 1.461 1_455 S
C295 C294 1.474 . S
C296 C291 1.342 . S
C296 C294 1.285 . S
C296 H315 0.930 . S
C297 C300 1.424 . S
C297 C302 1.245 . S
C297 C303 1.428 . S
C298 C301 1.260 . S
C298 C302 1.477 . S
C298 H316 0.932 . S
C299 C300 1.384 . S
C299 C301 1.479 . S
C299 H317 0.929 . S
C300 C297 1.424 . S
C300 C299 1.384 . S
C300 H318 0.928 . S
C301 C298 1.260 . S
C301 C299 1.479 . S
C302 C297 1.245 . S
C302 C298 1.477 . S
C302 H319 0.932 . S
C303 U286 2.882 . S
C303 C297 1.428 . S
C303 O306 1.301 . S
C303 O307 1.282 . S
O304 U286 2.441 . S
O304 C290 1.249 . S
O305 U286 2.420 . S
O305 C290 1.202 . S
O306 U286 2.455 . S
O306 C303 1.301 . S
O307 U286 2.449 . S
O307 C303 1.282 . S
H308 C281 0.931 . S
H309 C283 0.929 . S
H310 C284 0.930 . S
H311 C285 0.931 1_655 S
H312 C292 0.932 . S
H313 C293 0.930 1_655 S
H314 C294 0.929 . S
H315 C296 0.930 . S
H316 C298 0.932 . S
H317 C299 0.929 . S
H318 C300 0.928 . S
H319 C302 0.932 . S
O320 Zn321 1.953 . S
O320 C336 1.225 1_655 S
Zn321 O320 1.953 . S
Zn321 O322 1.949 1_655 S
Zn321 O328 1.919 . S
Zn321 O333 1.924 . S
O322 Zn321 1.949 1_455 S
O322 Zn323 1.923 1_445 S
O322 Zn324 1.950 . S
O322 Zn325 1.945 1_545 S
Zn323 O322 1.923 1_665 S
Zn323 O326 1.933 . S
Zn323 O329 1.941 1_565 S
Zn323 O330 1.965 1_665 S
Zn324 O322 1.950 . S
Zn324 O331 1.938 . S
Zn324 O332 1.906 . S
Zn324 O342 1.953 . S
Zn325 O322 1.945 1_565 S
Zn325 O327 1.932 1_455 S
Zn325 O334 1.977 . S
Zn325 O335 1.910 1_455 S
O326 Zn323 1.933 . S
O326 C337 1.226 . S
O327 Zn325 1.932 1_655 S
O327 C337 1.307 . S
O328 Zn321 1.919 . S
O328 C339 1.253 . S
O329 Zn323 1.941 1_545 S
O329 C339 1.283 . S
O330 Zn323 1.965 1_445 S
O330 C338 1.303 . S
O331 Zn324 1.938 . S
O331 C338 1.247 . S
O332 Zn324 1.906 . S
O332 C340 1.304 1_545 S
O333 Zn321 1.924 . S
O333 C341 1.328 . S
O334 Zn325 1.977 . S
O334 C340 1.272 . S
O335 Zn325 1.910 1_655 S
O335 C341 1.213 1_565 S
C336 O320 1.225 1_455 S
C336 O342 1.298 . S
C337 O326 1.226 . S
C337 O327 1.307 . S
C338 O330 1.303 . S
C338 O331 1.247 . S
C339 O328 1.253 . S
C339 O329 1.283 . S
C340 O332 1.304 1_565 S
C340 O334 1.272 . S
C341 O333 1.328 . S
C341 O335 1.213 1_545 S
O342 Zn324 1.953 . S
O342 C336 1.298 . S
O343 Zn344 1.953 . S
O343 C359 1.225 . S
Zn344 O343 1.953 . S
Zn344 O345 1.949 1_556 S
Zn344 O351 1.919 . S
Zn344 O356 1.924 1_556 S
O345 Zn344 1.949 1_554 S
O345 Zn346 1.923 1_544 S
O345 Zn347 1.950 . S
O345 Zn348 1.945 1_545 S
Zn346 O345 1.923 1_566 S
Zn346 O349 1.933 1_556 S
Zn346 O352 1.941 . S
Zn346 O353 1.965 . S
Zn347 O345 1.950 . S
Zn347 O354 1.938 . S
Zn347 O355 1.906 . S
Zn347 O365 1.953 . S
Zn348 O345 1.945 1_565 S
Zn348 O350 1.932 . S
Zn348 O357 1.977 1_565 S
Zn348 O358 1.910 1_565 S
O349 Zn346 1.933 1_554 S
O349 C360 1.226 . S
O350 Zn348 1.932 . S
O350 C360 1.307 . S
O351 Zn344 1.919 . S
O351 C362 1.253 1_545 S
O352 Zn346 1.941 . S
O352 C362 1.283 . S
O353 Zn346 1.965 . S
O353 C361 1.303 . S
O354 Zn347 1.938 . S
O354 C361 1.247 1_544 S
O355 Zn347 1.906 . S
O355 C363 1.304 . S
O356 Zn344 1.924 1_554 S
O356 C364 1.311 . S
O357 Zn348 1.977 1_545 S
O357 C363 1.272 . S
O358 Zn348 1.910 1_545 S
O358 C364 1.231 . S
C359 O343 1.225 . S
C359 O365 1.298 1_556 S
C360 O349 1.226 . S
C360 O350 1.307 . S
C361 O353 1.303 . S
C361 O354 1.247 1_566 S
C362 O351 1.253 1_565 S
C362 O352 1.283 . S
C363 O355 1.304 . S
C363 O357 1.272 . S
C364 O356 1.311 . S
C364 O358 1.231 . S
O365 Zn347 1.953 . S
O365 C359 1.298 1_554 S
O366 Zn367 1.953 . S
O366 C382 1.225 . S
Zn367 O366 1.953 . S
Zn367 O368 1.949 . S
Zn367 O374 1.919 . S
Zn367 O379 1.924 . S
O368 Zn367 1.949 . S
O368 Zn369 1.923 . S
O368 Zn370 1.950 . S
O368 Zn371 1.945 . S
Zn369 O368 1.923 . S
Zn369 O372 1.933 . S
Zn369 O375 1.941 . S
Zn369 O376 1.965 . S
Zn370 O368 1.950 . S
Zn370 O377 1.938 . S
Zn370 O378 1.906 . S
Zn370 O388 1.953 . S
Zn371 O368 1.945 . S
Zn371 O373 1.932 . S
Zn371 O380 1.977 . S
Zn371 O381 1.910 . S
O372 Zn369 1.933 . S
O372 C383 1.226 . S
O373 Zn371 1.932 . S
O373 C383 1.307 . S
O374 Zn367 1.919 . S
O374 C385 1.253 . S
O375 Zn369 1.941 . S
O375 C385 1.283 . S
O376 Zn369 1.965 . S
O376 C384 1.303 . S
O377 Zn370 1.938 . S
O377 C384 1.247 . S
O378 Zn370 1.906 . S
O378 C386 1.304 . S
O379 Zn367 1.924 . S
O379 C387 1.311 . S
O380 Zn371 1.977 . S
O380 C386 1.272 . S
O381 Zn371 1.910 . S
O381 C387 1.231 . S
C382 O366 1.225 . S
C382 O388 1.298 . S
C383 O372 1.226 . S
C383 O373 1.307 . S
C384 O376 1.303 . S
C384 O377 1.247 . S
C385 O374 1.253 . S
C385 O375 1.283 . S
C386 O378 1.304 . S
C386 O380 1.272 . S
C387 O379 1.311 . S
C387 O381 1.231 . S
O388 Zn370 1.953 . S
O388 C382 1.298 . S
O389 Zn390 1.953 . S
O389 C405 1.225 . S
Zn390 O389 1.953 . S
Zn390 O391 1.949 1_655 S
Zn390 O397 1.919 . S
Zn390 O402 1.924 . S
O391 Zn390 1.949 1_455 S
O391 Zn392 1.923 1_454 S
O391 Zn393 1.950 . S
O391 Zn394 1.945 1_554 S
Zn392 O391 1.923 1_656 S
Zn392 O395 1.933 1_655 S
Zn392 O398 1.941 . S
Zn392 O399 1.965 . S
Zn393 O391 1.950 . S
Zn393 O400 1.938 . S
Zn393 O401 1.906 . S
Zn393 O411 1.953 . S
Zn394 O391 1.945 1_556 S
Zn394 O396 1.932 . S
Zn394 O403 1.977 1_556 S
Zn394 O404 1.910 1_556 S
O395 Zn392 1.933 1_455 S
O395 C406 1.226 . S
O396 Zn394 1.932 . S
O396 C406 1.307 . S
O397 Zn390 1.919 . S
O397 C408 1.253 1_554 S
O398 Zn392 1.941 . S
O398 C408 1.283 . S
O399 Zn392 1.965 . S
O399 C407 1.303 . S
O400 Zn393 1.938 . S
O400 C407 1.247 1_454 S
O401 Zn393 1.906 . S
O401 C409 1.304 . S
O402 Zn390 1.924 . S
O402 C410 1.311 1_655 S
O403 Zn394 1.977 1_554 S
O403 C409 1.272 . S
O404 Zn394 1.910 1_554 S
O404 C410 1.231 . S
C405 O389 1.225 . S
C405 O411 1.298 1_655 S
C406 O395 1.226 . S
C406 O396 1.307 . S
C407 O399 1.303 . S
C407 O400 1.247 1_656 S
C408 O397 1.253 1_556 S
C408 O398 1.283 . S
C409 O401 1.304 . S
C409 O403 1.272 . S
C410 O402 1.311 1_455 S
C410 O404 1.231 . S
O411 Zn393 1.953 . S
O411 C405 1.298 1_455 S
C21 C338 2.075 . S
C61 C362 1.684 . S
C382 C82 1.981 . S
C135 C405 1.950 . S
C364 C15 1.850 . S
C340 C42 1.818 . S
C408 C101 2.208 . S
C385 C122 2.128 . S
C2 C410 1.600 . S
C359 C95 2.011 . S
C141 C337 2.137 . S
C55 C387 1.480 . S
C341 C181 2.491 1_655 S
C202 C363 2.321 1_565 S
C255 C383 2.578 . S
C295 C406 2.592 . S
C175 C361 2.528 1_544 S
C339 C221 2.645 . S
C409 C242 1.992 . S
C386 C301 2.383 . S
C162 C407 2.578 1_454 S
C360 C261 2.372 . S
C336 C282 2.679 . S
C215 C384 2.708 . S
