# Generated by pormake.
# Topology gar, (4,6)-cn, num edge types: 1
# Building blocks:
#     Node 0, Type 0, BuildingBlock: KUFVIS_clean_sbu_0, # of connection points: 4
#     Node 1, Type 0, BuildingBlock: KUFVIS_clean_sbu_0, # of connection points: 4
#     Node 2, Type 0, BuildingBlock: KUFVIS_clean_sbu_0, # of connection points: 4
#     Node 3, Type 0, BuildingBlock: KUFVIS_clean_sbu_0, # of connection points: 4
#     Node 4, Type 0, BuildingBlock: KUFVIS_clean_sbu_0, # of connection points: 4
#     Node 5, Type 0, BuildingBlock: KUFVIS_clean_sbu_0, # of connection points: 4
#     Node 6, Type 0, BuildingBlock: KUFVIS_clean_sbu_0, # of connection points: 4
#     Node 7, Type 0, BuildingBlock: KUFVIS_clean_sbu_0, # of connection points: 4
#     Node 8, Type 0, BuildingBlock: KUFVIS_clean_sbu_0, # of connection points: 4
#     Node 9, Type 0, BuildingBlock: KUFVIS_clean_sbu_0, # of connection points: 4
#     Node 10, Type 0, BuildingBlock: KUFVIS_clean_sbu_0, # of connection points: 4
#     Node 11, Type 0, BuildingBlock: KUFVIS_clean_sbu_0, # of connection points: 4
#     Node 12, Type 0, BuildingBlock: KUFVIS_clean_sbu_0, # of connection points: 4
#     Node 13, Type 0, BuildingBlock: KUFVIS_clean_sbu_0, # of connection points: 4
#     Node 14, Type 0, BuildingBlock: KUFVIS_clean_sbu_0, # of connection points: 4
#     Node 15, Type 0, BuildingBlock: KUFVIS_clean_sbu_0, # of connection points: 4
#     Node 16, Type 0, BuildingBlock: KUFVIS_clean_sbu_0, # of connection points: 4
#     Node 17, Type 0, BuildingBlock: KUFVIS_clean_sbu_0, # of connection points: 4
#     Node 18, Type 0, BuildingBlock: KUFVIS_clean_sbu_0, # of connection points: 4
#     Node 19, Type 0, BuildingBlock: KUFVIS_clean_sbu_0, # of connection points: 4
#     Node 20, Type 0, BuildingBlock: KUFVIS_clean_sbu_0, # of connection points: 4
#     Node 21, Type 0, BuildingBlock: KUFVIS_clean_sbu_0, # of connection points: 4
#     Node 22, Type 0, BuildingBlock: KUFVIS_clean_sbu_0, # of connection points: 4
#     Node 23, Type 0, BuildingBlock: KUFVIS_clean_sbu_0, # of connection points: 4
#     Node 24, Type 1, BuildingBlock: BETDIP_clean_sbu_0, # of connection points: 6
#     Node 25, Type 1, BuildingBlock: BETDIP_clean_sbu_0, # of connection points: 6
#     Node 26, Type 1, BuildingBlock: BETDIP_clean_sbu_0, # of connection points: 6
#     Node 27, Type 1, BuildingBlock: BETDIP_clean_sbu_0, # of connection points: 6
#     Node 28, Type 1, BuildingBlock: BETDIP_clean_sbu_0, # of connection points: 6
#     Node 29, Type 1, BuildingBlock: BETDIP_clean_sbu_0, # of connection points: 6
#     Node 30, Type 1, BuildingBlock: BETDIP_clean_sbu_0, # of connection points: 6
#     Node 31, Type 1, BuildingBlock: BETDIP_clean_sbu_0, # of connection points: 6
#     Node 32, Type 1, BuildingBlock: BETDIP_clean_sbu_0, # of connection points: 6
#     Node 33, Type 1, BuildingBlock: BETDIP_clean_sbu_0, # of connection points: 6
#     Node 34, Type 1, BuildingBlock: BETDIP_clean_sbu_0, # of connection points: 6
#     Node 35, Type 1, BuildingBlock: BETDIP_clean_sbu_0, # of connection points: 6
#     Node 36, Type 1, BuildingBlock: BETDIP_clean_sbu_0, # of connection points: 6
#     Node 37, Type 1, BuildingBlock: BETDIP_clean_sbu_0, # of connection points: 6
#     Node 38, Type 1, BuildingBlock: BETDIP_clean_sbu_0, # of connection points: 6
#     Node 39, Type 1, BuildingBlock: BETDIP_clean_sbu_0, # of connection points: 6
#     Edge 40, Type (0, 1), BuildingBlock: TEMPAE_clean_linker_10, # of connection points: 2
#     Edge 41, Type (0, 1), BuildingBlock: TEMPAE_clean_linker_10, # of connection points: 2
#     Edge 42, Type (0, 1), BuildingBlock: TEMPAE_clean_linker_10, # of connection points: 2
#     Edge 43, Type (0, 1), BuildingBlock: TEMPAE_clean_linker_10, # of connection points: 2
#     Edge 44, Type (0, 1), BuildingBlock: TEMPAE_clean_linker_10, # of connection points: 2
#     Edge 45, Type (0, 1), BuildingBlock: TEMPAE_clean_linker_10, # of connection points: 2
#     Edge 46, Type (0, 1), BuildingBlock: TEMPAE_clean_linker_10, # of connection points: 2
#     Edge 47, Type (0, 1), BuildingBlock: TEMPAE_clean_linker_10, # of connection points: 2
#     Edge 48, Type (0, 1), BuildingBlock: TEMPAE_clean_linker_10, # of connection points: 2
#     Edge 49, Type (0, 1), BuildingBlock: TEMPAE_clean_linker_10, # of connection points: 2
#     Edge 50, Type (0, 1), BuildingBlock: TEMPAE_clean_linker_10, # of connection points: 2
#     Edge 51, Type (0, 1), BuildingBlock: TEMPAE_clean_linker_10, # of connection points: 2
#     Edge 52, Type (0, 1), BuildingBlock: TEMPAE_clean_linker_10, # of connection points: 2
#     Edge 53, Type (0, 1), BuildingBlock: TEMPAE_clean_linker_10, # of connection points: 2
#     Edge 54, Type (0, 1), BuildingBlock: TEMPAE_clean_linker_10, # of connection points: 2
#     Edge 55, Type (0, 1), BuildingBlock: TEMPAE_clean_linker_10, # of connection points: 2
#     Edge 56, Type (0, 1), BuildingBlock: TEMPAE_clean_linker_10, # of connection points: 2
#     Edge 57, Type (0, 1), BuildingBlock: TEMPAE_clean_linker_10, # of connection points: 2
#     Edge 58, Type (0, 1), BuildingBlock: TEMPAE_clean_linker_10, # of connection points: 2
#     Edge 59, Type (0, 1), BuildingBlock: TEMPAE_clean_linker_10, # of connection points: 2
#     Edge 60, Type (0, 1), BuildingBlock: TEMPAE_clean_linker_10, # of connection points: 2
#     Edge 61, Type (0, 1), BuildingBlock: TEMPAE_clean_linker_10, # of connection points: 2
#     Edge 62, Type (0, 1), BuildingBlock: TEMPAE_clean_linker_10, # of connection points: 2
#     Edge 63, Type (0, 1), BuildingBlock: TEMPAE_clean_linker_10, # of connection points: 2
#     Edge 64, Type (0, 1), BuildingBlock: TEMPAE_clean_linker_10, # of connection points: 2
#     Edge 65, Type (0, 1), BuildingBlock: TEMPAE_clean_linker_10, # of connection points: 2
#     Edge 66, Type (0, 1), BuildingBlock: TEMPAE_clean_linker_10, # of connection points: 2
#     Edge 67, Type (0, 1), BuildingBlock: TEMPAE_clean_linker_10, # of connection points: 2
#     Edge 68, Type (0, 1), BuildingBlock: TEMPAE_clean_linker_10, # of connection points: 2
#     Edge 69, Type (0, 1), BuildingBlock: TEMPAE_clean_linker_10, # of connection points: 2
#     Edge 70, Type (0, 1), BuildingBlock: TEMPAE_clean_linker_10, # of connection points: 2
#     Edge 71, Type (0, 1), BuildingBlock: TEMPAE_clean_linker_10, # of connection points: 2
#     Edge 72, Type (0, 1), BuildingBlock: TEMPAE_clean_linker_10, # of connection points: 2
#     Edge 73, Type (0, 1), BuildingBlock: TEMPAE_clean_linker_10, # of connection points: 2
#     Edge 74, Type (0, 1), BuildingBlock: TEMPAE_clean_linker_10, # of connection points: 2
#     Edge 75, Type (0, 1), BuildingBlock: TEMPAE_clean_linker_10, # of connection points: 2
#     Edge 76, Type (0, 1), BuildingBlock: TEMPAE_clean_linker_10, # of connection points: 2
#     Edge 77, Type (0, 1), BuildingBlock: TEMPAE_clean_linker_10, # of connection points: 2
#     Edge 78, Type (0, 1), BuildingBlock: TEMPAE_clean_linker_10, # of connection points: 2
#     Edge 79, Type (0, 1), BuildingBlock: TEMPAE_clean_linker_10, # of connection points: 2
#     Edge 80, Type (0, 1), BuildingBlock: TEMPAE_clean_linker_10, # of connection points: 2
#     Edge 81, Type (0, 1), BuildingBlock: TEMPAE_clean_linker_10, # of connection points: 2
#     Edge 82, Type (0, 1), BuildingBlock: TEMPAE_clean_linker_10, # of connection points: 2
#     Edge 83, Type (0, 1), BuildingBlock: TEMPAE_clean_linker_10, # of connection points: 2
#     Edge 84, Type (0, 1), BuildingBlock: TEMPAE_clean_linker_10, # of connection points: 2
#     Edge 85, Type (0, 1), BuildingBlock: TEMPAE_clean_linker_10, # of connection points: 2
#     Edge 86, Type (0, 1), BuildingBlock: TEMPAE_clean_linker_10, # of connection points: 2
#     Edge 87, Type (0, 1), BuildingBlock: TEMPAE_clean_linker_10, # of connection points: 2
#     Edge 88, Type (0, 1), BuildingBlock: TEMPAE_clean_linker_10, # of connection points: 2
#     Edge 89, Type (0, 1), BuildingBlock: TEMPAE_clean_linker_10, # of connection points: 2
#     Edge 90, Type (0, 1), BuildingBlock: TEMPAE_clean_linker_10, # of connection points: 2
#     Edge 91, Type (0, 1), BuildingBlock: TEMPAE_clean_linker_10, # of connection points: 2
#     Edge 92, Type (0, 1), BuildingBlock: TEMPAE_clean_linker_10, # of connection points: 2
#     Edge 93, Type (0, 1), BuildingBlock: TEMPAE_clean_linker_10, # of connection points: 2
#     Edge 94, Type (0, 1), BuildingBlock: TEMPAE_clean_linker_10, # of connection points: 2
#     Edge 95, Type (0, 1), BuildingBlock: TEMPAE_clean_linker_10, # of connection points: 2
#     Edge 96, Type (0, 1), BuildingBlock: TEMPAE_clean_linker_10, # of connection points: 2
#     Edge 97, Type (0, 1), BuildingBlock: TEMPAE_clean_linker_10, # of connection points: 2
#     Edge 98, Type (0, 1), BuildingBlock: TEMPAE_clean_linker_10, # of connection points: 2
#     Edge 99, Type (0, 1), BuildingBlock: TEMPAE_clean_linker_10, # of connection points: 2
#     Edge 100, Type (0, 1), BuildingBlock: TEMPAE_clean_linker_10, # of connection points: 2
#     Edge 101, Type (0, 1), BuildingBlock: TEMPAE_clean_linker_10, # of connection points: 2
#     Edge 102, Type (0, 1), BuildingBlock: TEMPAE_clean_linker_10, # of connection points: 2
#     Edge 103, Type (0, 1), BuildingBlock: TEMPAE_clean_linker_10, # of connection points: 2
#     Edge 104, Type (0, 1), BuildingBlock: TEMPAE_clean_linker_10, # of connection points: 2
#     Edge 105, Type (0, 1), BuildingBlock: TEMPAE_clean_linker_10, # of connection points: 2
#     Edge 106, Type (0, 1), BuildingBlock: TEMPAE_clean_linker_10, # of connection points: 2
#     Edge 107, Type (0, 1), BuildingBlock: TEMPAE_clean_linker_10, # of connection points: 2
#     Edge 108, Type (0, 1), BuildingBlock: TEMPAE_clean_linker_10, # of connection points: 2
#     Edge 109, Type (0, 1), BuildingBlock: TEMPAE_clean_linker_10, # of connection points: 2
#     Edge 110, Type (0, 1), BuildingBlock: TEMPAE_clean_linker_10, # of connection points: 2
#     Edge 111, Type (0, 1), BuildingBlock: TEMPAE_clean_linker_10, # of connection points: 2
#     Edge 112, Type (0, 1), BuildingBlock: TEMPAE_clean_linker_10, # of connection points: 2
#     Edge 113, Type (0, 1), BuildingBlock: TEMPAE_clean_linker_10, # of connection points: 2
#     Edge 114, Type (0, 1), BuildingBlock: TEMPAE_clean_linker_10, # of connection points: 2
#     Edge 115, Type (0, 1), BuildingBlock: TEMPAE_clean_linker_10, # of connection points: 2
#     Edge 116, Type (0, 1), BuildingBlock: TEMPAE_clean_linker_10, # of connection points: 2
#     Edge 117, Type (0, 1), BuildingBlock: TEMPAE_clean_linker_10, # of connection points: 2
#     Edge 118, Type (0, 1), BuildingBlock: TEMPAE_clean_linker_10, # of connection points: 2
#     Edge 119, Type (0, 1), BuildingBlock: TEMPAE_clean_linker_10, # of connection points: 2
#     Edge 120, Type (0, 1), BuildingBlock: TEMPAE_clean_linker_10, # of connection points: 2
#     Edge 121, Type (0, 1), BuildingBlock: TEMPAE_clean_linker_10, # of connection points: 2
#     Edge 122, Type (0, 1), BuildingBlock: TEMPAE_clean_linker_10, # of connection points: 2
#     Edge 123, Type (0, 1), BuildingBlock: TEMPAE_clean_linker_10, # of connection points: 2
#     Edge 124, Type (0, 1), BuildingBlock: TEMPAE_clean_linker_10, # of connection points: 2
#     Edge 125, Type (0, 1), BuildingBlock: TEMPAE_clean_linker_10, # of connection points: 2
#     Edge 126, Type (0, 1), BuildingBlock: TEMPAE_clean_linker_10, # of connection points: 2
#     Edge 127, Type (0, 1), BuildingBlock: TEMPAE_clean_linker_10, # of connection points: 2
#     Edge 128, Type (0, 1), BuildingBlock: TEMPAE_clean_linker_10, # of connection points: 2
#     Edge 129, Type (0, 1), BuildingBlock: TEMPAE_clean_linker_10, # of connection points: 2
#     Edge 130, Type (0, 1), BuildingBlock: TEMPAE_clean_linker_10, # of connection points: 2
#     Edge 131, Type (0, 1), BuildingBlock: TEMPAE_clean_linker_10, # of connection points: 2
#     Edge 132, Type (0, 1), BuildingBlock: TEMPAE_clean_linker_10, # of connection points: 2
#     Edge 133, Type (0, 1), BuildingBlock: TEMPAE_clean_linker_10, # of connection points: 2
#     Edge 134, Type (0, 1), BuildingBlock: TEMPAE_clean_linker_10, # of connection points: 2
#     Edge 135, Type (0, 1), BuildingBlock: TEMPAE_clean_linker_10, # of connection points: 2
# Relax obj value: 0.175
# Max RMSD: 0.300
# Mean RMSD: 0.147
data_MOF--net-gar--node1-KUFVIS_clean_sbu_0--node2-BETDIP_clean_sbu_0--edge1-TEMPAE_clean_linker_10
_symmetry_space_group_name_H-M    P1
_symmetry_Int_Tables_number       1
_symmetry_cell_setting            triclinic
loop_
_symmetry_equiv_pos_as_xyz
'x, y, z'
_cell_length_a     63.793266
_cell_length_b     57.604694
_cell_length_c     56.498849
_cell_angle_alpha  97.017129
_cell_angle_beta   98.657944
_cell_angle_gamma 101.24132
loop_
_atom_site_label
_atom_site_type_symbol
_atom_site_fract_x
_atom_site_fract_y
_atom_site_fract_z
_atom_type_partial_charge
Mn0 Mn 0.028 0.30527 0.40041 0.0
Mn1 Mn 0.02297 0.34693 0.36413 0.0
C2 C 0.9948 0.31497 0.39057 0.0
C3 C 0.02909 0.26649 0.40659 0.0
C4 C 0.04198 0.35928 0.41775 0.0
O5 O 0.05507 0.30801 0.38552 0.0
O6 O 0.04983 0.33477 0.36068 0.0
C7 C 0.01564 0.31541 0.31677 0.0
N8 N 1.00907 0.33149 0.33218 0.0
C9 C 0.97783 0.33167 0.30251 0.0
C10 C 0.98433 0.31523 0.28627 0.0
C11 C 1.00327 0.30699 0.29348 0.0
C12 C 0.99075 0.33932 0.32552 0.0
H13 H 0.0302 0.30905 0.3222 0.0
C14 C 0.06071 0.32027 0.36936 0.0
O15 O 0.03915 0.28487 0.42266 0.0
O16 O 0.01845 0.27057 0.38659 0.0
N17 N 0.99772 0.36011 0.36487 0.0
C18 C 0.99304 0.3749 0.38314 0.0
C19 C 0.9744 0.38442 0.37902 0.0
C20 C 0.96094 0.37888 0.35611 0.0
C21 C 0.96602 0.36355 0.33762 0.0
C22 C 0.98485 0.35467 0.34276 0.0
H23 H 1.00344 0.37944 0.40071 0.0
O24 O 0.99916 0.30492 0.40953 0.0
O25 O 1.00986 0.31847 0.37731 0.0
O26 O 0.03993 0.33773 0.42161 0.0
O27 O 0.03678 0.36482 0.39676 0.0
C28 C 0.95311 0.35663 0.31434 0.0
C29 C 0.95893 0.34059 0.29684 0.0
H30 H 0.97484 0.30871 0.26828 0.0
H31 H 1.00834 0.29422 0.28109 0.0
H32 H 0.9705 0.39615 0.39341 0.0
H33 H 0.94673 0.38651 0.35294 0.0
H34 H 0.93853 0.36334 0.30975 0.0
H35 H 0.94867 0.33509 0.27915 0.0
Mn36 Mn 0.06717 0.7457 0.70701 0.0
Mn37 Mn 0.09329 0.78231 0.75881 0.0
C38 C 0.10466 0.75644 0.7146 0.0
C39 C 0.05168 0.70925 0.6821 0.0
C40 C 0.07313 0.80047 0.71529 0.0
O41 O 0.04342 0.7436 0.7274 0.0
O42 O 0.06215 0.77007 0.7598 0.0
C43 C 0.09008 0.74526 0.79092 0.0
N44 N 0.10232 0.76324 0.78216 0.0
C45 C 0.13419 0.76236 0.81056 0.0
C46 C 0.12193 0.74386 0.81993 0.0
C47 C 0.09982 0.73515 0.80995 0.0
C48 C 0.12369 0.7714 0.79128 0.0
H49 H 0.07301 0.7388 0.78356 0.0
C50 C 0.0447 0.75582 0.74816 0.0
O51 O 0.04618 0.72899 0.67769 0.0
O52 O 0.06509 0.7103 0.70219 0.0
N53 N 0.12352 0.79603 0.76155 0.0
C54 C 0.13302 0.81393 0.75041 0.0
C55 C 0.15503 0.82492 0.75852 0.0
C56 C 0.16704 0.81746 0.77802 0.0
C57 C 0.1569 0.7991 0.78927 0.0
C58 C 0.13486 0.78901 0.78059 0.0
H59 H 0.12376 0.8201 0.73577 0.0
O60 O 0.0938 0.74975 0.69272 0.0
O61 O 0.09331 0.75655 0.73207 0.0
O62 O 0.06488 0.77974 0.70326 0.0
O63 O 0.08503 0.80394 0.7362 0.0
C64 C 0.1677 0.79064 0.80899 0.0
C65 C 0.15639 0.77222 0.81957 0.0
H66 H 0.12933 0.73618 0.83477 0.0
H67 H 0.09025 0.72087 0.81708 0.0
H68 H 0.1627 0.83926 0.7499 0.0
H69 H 0.18398 0.82608 0.78434 0.0
H70 H 0.18475 0.79798 0.81599 0.0
H71 H 0.16494 0.76571 0.83455 0.0
Mn72 Mn 0.52442 0.79698 0.89702 0.0
Mn73 Mn 0.51662 0.83864 0.86155 0.0
C74 C 0.49072 0.80574 0.88961 0.0
C75 C 0.52724 0.75838 0.90201 0.0
C76 C 0.53764 0.85086 0.91456 0.0
O77 O 0.55074 0.80122 0.88096 0.0
O78 O 0.54322 0.82693 0.85573 0.0
C79 C 0.50683 0.80729 0.81386 0.0
N80 N 0.50109 0.82324 0.83018 0.0
C81 C 0.46831 0.82324 0.80282 0.0
C82 C 0.47392 0.80692 0.78565 0.0
C83 C 0.49322 0.79883 0.79124 0.0
C84 C 0.48244 0.83091 0.8251 0.0
H85 H 0.52167 0.80107 0.81806 0.0
C86 C 0.55509 0.81322 0.86421 0.0
O87 O 0.53727 0.77672 0.91814 0.0
O88 O 0.51561 0.76242 0.88262 0.0
N89 N 0.49155 0.85159 0.86456 0.0
C90 C 0.488 0.86647 0.88352 0.0
C91 C 0.46936 0.87612 0.88093 0.0
C92 C 0.45471 0.8706 0.85882 0.0
C93 C 0.45858 0.85507 0.83963 0.0
C94 C 0.47752 0.84616 0.84321 0.0
H95 H 0.49935 0.87109 0.90046 0.0
O96 O 0.49622 0.79517 0.90785 0.0
O97 O 0.50486 0.80995 0.8753 0.0
O98 O 0.53589 0.82934 0.91841 0.0
O99 O 0.53203 0.85646 0.89369 0.0
C100 C 0.44437 0.84806 0.81713 0.0
C101 C 0.44916 0.83203 0.79879 0.0
H102 H 0.46348 0.80037 0.76818 0.0
H103 H 0.49762 0.78616 0.77812 0.0
H104 H 0.46641 0.888 0.89585 0.0
H105 H 0.44057 0.87845 0.85677 0.0
H106 H 0.42958 0.85465 0.81384 0.0
H107 H 0.43794 0.82647 0.78171 0.0
Mn108 Mn 0.55876 0.24215 0.2022 0.0
Mn109 Mn 0.51525 0.24293 0.16071 0.0
C110 C 0.5402 0.2075 0.17635 0.0
C111 C 0.59607 0.24589 0.2129 0.0
C112 C 0.51462 0.24622 0.21462 0.0
O113 O 0.5624 0.27761 0.19941 0.0
O114 O 0.53402 0.27555 0.16946 0.0
C115 C 0.53635 0.25455 0.11912 0.0
N116 N 0.5219 0.23949 0.12878 0.0
C117 C 0.50977 0.21309 0.09068 0.0
C118 C 0.52449 0.22832 0.0803 0.0
C119 C 0.5379 0.24909 0.09462 0.0
C120 C 0.50903 0.21938 0.11521 0.0
H121 H 0.54659 0.27062 0.13002 0.0
C122 C 0.55113 0.2872 0.18432 0.0
O123 O 0.58408 0.2487 0.22925 0.0
O124 O 0.58641 0.24137 0.19044 0.0
N125 N 0.49639 0.21196 0.1507 0.0
C126 C 0.48435 0.19824 0.16395 0.0
C127 C 0.47083 0.17622 0.1526 0.0
C128 C 0.46966 0.16869 0.12774 0.0
C129 C 0.4822 0.18316 0.1145 0.0
C130 C 0.49556 0.20477 0.12684 0.0
H131 H 0.48511 0.20403 0.18303 0.0
O132 O 0.55156 0.20617 0.19706 0.0
O133 O 0.53954 0.22895 0.17214 0.0
O134 O 0.53401 0.24387 0.22116 0.0
O135 O 0.50637 0.24631 0.19262 0.0
C136 C 0.48208 0.17691 0.08958 0.0
C137 C 0.49592 0.19181 0.0777 0.0
H138 H 0.52573 0.22417 0.06141 0.0
H139 H 0.54935 0.2609 0.08677 0.0
H140 H 0.46127 0.16511 0.16297 0.0
H141 H 0.45918 0.15172 0.11903 0.0
H142 H 0.47162 0.1605 0.07946 0.0
H143 H 0.49597 0.18658 0.05863 0.0
Mn144 Mn 0.08054 0.79557 0.15933 0.0
Mn145 Mn 0.04067 0.78312 0.1098 0.0
C146 C 0.0678 0.7558 0.13897 0.0
C147 C 0.11774 0.80442 0.17886 0.0
C148 C 0.03185 0.79237 0.16133 0.0
O149 O 0.08063 0.82932 0.14914 0.0
O150 O 0.05498 0.8179 0.11529 0.0
C151 C 0.06823 0.7917 0.07263 0.0
N152 N 0.0524 0.77724 0.08103 0.0
C153 C 0.04608 0.74751 0.04544 0.0
C154 C 0.06209 0.76226 0.0362 0.0
C155 C 0.07334 0.78436 0.04996 0.0
C156 C 0.04188 0.75568 0.06824 0.0
H157 H 0.07691 0.80862 0.08322 0.0
C158 C 0.06911 0.83402 0.13027 0.0
O159 O 0.10229 0.8086 0.19019 0.0
O160 O 0.11188 0.797 0.15573 0.0
N161 N 0.02524 0.75043 0.1017 0.0
C162 C 1.01146 0.73764 0.11401 0.0
C163 C 0.99925 0.71485 0.10306 0.0
C164 C 1.00112 0.70562 0.07948 0.0
C165 C 0.01562 0.71897 0.06728 0.0
C166 C 0.02732 0.74157 0.0791 0.0
H167 H 1.00961 0.74487 0.13194 0.0
O168 O 0.07734 0.76048 0.16146 0.0
O169 O 0.06584 0.77461 0.1288 0.0
O170 O 0.05161 0.79562 0.17199 0.0
O171 O 0.02634 0.78817 0.13826 0.0
C172 C 0.01892 0.71077 0.04387 0.0
C173 C 0.0343 0.72493 0.03305 0.0
H174 H 0.06602 0.75669 0.01868 0.0
H175 H 0.08587 0.79574 0.04308 0.0
H176 H 0.9882 0.70457 0.11264 0.0
H177 H 0.99137 0.68821 0.07095 0.0
H178 H 1.00994 0.69347 0.03414 0.0
H179 H 0.03704 0.7182 0.01528 0.0
Mn180 Mn 0.50683 0.75603 0.44118 0.0
Mn181 Mn 0.50566 0.78768 0.39396 0.0
C182 C 0.47285 0.75959 0.41929 0.0
C183 C 0.50939 0.72014 0.45856 0.0
C184 C 0.5141 0.81177 0.44646 0.0
O185 O 0.53813 0.75924 0.43359 0.0
O186 O 0.53453 0.78001 0.40269 0.0
C187 C 0.51011 0.74877 0.3569 0.0
N188 N 0.49952 0.76599 0.36418 0.0
C189 C 0.47715 0.76019 0.32478 0.0
C190 C 0.48782 0.74241 0.3168 0.0
C191 C 0.50425 0.73653 0.333 0.0
C192 C 0.48331 0.7713 0.34897 0.0
H193 H 0.52304 0.74457 0.36918 0.0
C194 C 0.54579 0.76974 0.417 0.0
O195 O 0.51498 0.7414 0.47123 0.0
O196 O 0.50225 0.71951 0.43563 0.0
N197 N 0.47958 0.79739 0.38219 0.0
C198 C 0.47113 0.81517 0.39272 0.0
C199 C 0.45505 0.82377 0.37879 0.0
C200 C 0.44784 0.81408 0.35418 0.0
C201 C 0.45688 0.79596 0.34367 0.0
C202 C 0.47306 0.78832 0.35837 0.0
H203 H 0.477 0.82315 0.41144 0.0
O204 O 0.47476 0.75374 0.44086 0.0
O205 O 0.49079 0.76227 0.41034 0.0
O206 O 0.51319 0.79251 0.45596 0.0
O207 O 0.51172 0.8116 0.42358 0.0
C208 C 0.45079 0.78553 0.31906 0.0
C209 C 0.46077 0.76748 0.30968 0.0
H210 H 0.48355 0.73318 0.29828 0.0
H211 H 0.51257 0.72284 0.32697 0.0
H212 H 0.44844 0.83809 0.38693 0.0
H213 H 0.43557 0.82091 0.34342 0.0
H214 H 0.43832 0.7911 0.30726 0.0
H215 H 0.45577 0.75937 0.29082 0.0
Mn216 Mn 0.5818 0.29437 0.65793 0.0
Mn217 Mn 0.54087 0.28245 0.60957 0.0
C218 C 0.56855 0.25483 0.63735 0.0
C219 C 0.61908 0.3029 0.67695 0.0
C220 C 0.53293 0.28992 0.66128 0.0
O221 O 0.58245 0.32815 0.64794 0.0
O222 O 0.55387 0.31756 0.61712 0.0
C223 C 0.56767 0.29542 0.57269 0.0
N224 N 0.55272 0.27926 0.58054 0.0
C225 C 0.54788 0.25129 0.54384 0.0
C226 C 0.56317 0.26766 0.53531 0.0
C227 C 0.57319 0.28977 0.54986 0.0
C228 C 0.54326 0.25779 0.56686 0.0
H229 H 0.57527 0.31251 0.58374 0.0
C230 C 0.56914 0.33337 0.63098 0.0
O231 O 0.60382 0.30713 0.68854 0.0
O232 O 0.61298 0.29541 0.65384 0.0
N233 N 0.52642 0.2496 0.5996 0.0
C234 C 0.51262 0.23551 0.61088 0.0
C235 C 0.50096 0.21295 0.59864 0.0
C236 C 0.50343 0.20525 0.57487 0.0
C237 C 0.51805 0.21985 0.5638 0.0
C238 C 0.52906 0.24224 0.57681 0.0
H239 H 0.51031 0.24156 0.62897 0.0
O240 O 0.57823 0.25926 0.65981 0.0
O241 O 0.56659 0.27377 0.62737 0.0
O242 O 0.55303 0.29482 0.67126 0.0
O243 O 0.52676 0.28477 0.63834 0.0
C244 C 0.522 0.21315 0.54032 0.0
C245 C 0.53708 0.22876 0.53044 0.0
H246 H 0.56738 0.26342 0.51765 0.0
H247 H 0.58504 0.30248 0.54343 0.0
H248 H 0.48984 0.20168 0.60736 0.0
H249 H 0.49399 0.1881 0.56529 0.0
H250 H 0.51371 0.19595 0.52979 0.0
H251 H 0.54022 0.22327 0.51252 0.0
Mn252 Mn 1.00875 0.25835 0.93903 0.0
Mn253 Mn 1.00518 0.28982 0.89181 0.0
C254 C 0.97402 0.26178 0.91885 0.0
C255 C 1.01261 0.22267 0.95591 0.0
C256 C 0.01606 0.314 0.94439 0.0
O257 O 0.03938 0.26157 0.92963 0.0
O258 O 0.03402 0.28178 0.89866 0.0
C259 C 1.00774 0.25091 0.85363 0.0
N260 N 0.99765 0.26822 0.8619 0.0
C261 C 0.97398 0.26314 0.82341 0.0
C262 C 0.9841 0.24525 0.81442 0.0
C263 C 1.00093 0.23896 0.82968 0.0
C264 C 0.98106 0.27391 0.84763 0.0
H265 H 0.02101 0.24644 0.86517 0.0
C266 C 0.04605 0.27173 0.91237 0.0
O267 O 0.01902 0.24393 0.9685 0.0
O268 O 1.00375 0.22187 0.93347 0.0
N269 N 0.97883 0.29977 0.88177 0.0
C270 C 0.97093 0.31752 0.89322 0.0
C271 C 0.95451 0.32648 0.88031 0.0
C272 C 0.94643 0.31718 0.85574 0.0
C273 C 0.95484 0.29901 0.8443 0.0
C274 C 0.97137 0.29098 0.85801 0.0
H275 H 0.9775 0.32523 0.9119 0.0
O276 O 0.97688 0.25613 0.9405 0.0
O277 O 0.99141 0.26449 0.90897 0.0
O278 O 0.01563 0.29476 0.95384 0.0
O279 O 1.01265 0.31379 0.92151 0.0
C280 C 0.94782 0.28891 0.81967 0.0
C281 C 0.95725 0.27084 0.80929 0.0
H282 H 0.97911 0.23626 0.79585 0.0
H283 H 1.00884 0.22519 0.82288 0.0
H284 H 0.94829 0.34075 0.88919 0.0
H285 H 0.93395 0.32434 0.84574 0.0
H286 H 0.93505 0.29478 0.80862 0.0
H287 H 0.95154 0.26299 0.79043 0.0
Mn288 Mn 0.42267 0.04912 0.28119 0.0
Mn289 Mn 0.38504 0.04498 0.31912 0.0
C290 C 0.4026 1.00918 0.28772 0.0
C291 C 0.43895 0.04998 0.24159 0.0
C292 C 0.43411 0.05541 0.33967 0.0
O293 O 0.41214 0.08435 0.28295 0.0
O294 O 0.38845 0.07751 0.30822 0.0
C295 C 0.34631 0.04605 0.28322 0.0
N296 N 0.35623 0.03548 0.3007 0.0
C297 C 0.323 1.00716 0.30032 0.0
C298 C 0.31239 0.0178 0.2824 0.0
C299 C 0.32415 0.0372 0.27367 0.0
C300 C 0.34522 0.0164 0.30872 0.0
H301 H 0.3552 0.06118 0.27671 0.0
C302 C 0.39745 0.09141 0.29473 0.0
O303 O 0.44939 0.05877 0.26326 0.0
O304 O 0.41847 0.04227 0.2423 0.0
N305 N 0.37851 0.01553 0.33162 0.0
C306 C 0.39135 1.00664 0.34819 0.0
C307 C 0.382 0.98766 0.35925 0.0
C308 C 0.35954 0.9782 0.35339 0.0
C309 C 0.34674 0.98705 0.33572 0.0
C310 C 0.35693 1.00614 0.32547 0.0
H311 H 0.40852 0.01429 0.3534 0.0
O312 O 0.4213 0.01259 0.28072 0.0
O313 O 0.39598 0.02933 0.291 0.0
O314 O 0.43983 0.05502 0.31852 0.0
O315 O 0.41414 0.05404 0.34149 0.0
C316 C 0.32423 0.97798 0.32817 0.0
C317 C 0.31242 0.98781 0.31024 0.0
H318 H 0.29523 1.0112 0.2752 0.0
H319 H 0.31608 0.04549 0.25981 0.0
H320 H 0.39199 0.98072 0.3727 0.0
H321 H 0.35229 0.96421 0.36269 0.0
H322 H 0.31586 0.96328 0.33584 0.0
H323 H 0.2952 0.9804 0.30427 0.0
Mn324 Mn 0.26407 0.17226 0.53285 0.0
Mn325 Mn 0.25231 0.12602 0.48683 0.0
C326 C 0.22768 0.15058 0.5197 0.0
C327 C 0.27335 0.18876 0.57479 0.0
C328 C 0.26475 0.17819 0.47908 0.0
O329 O 0.29387 0.1626 0.53219 0.0
O330 O 0.28309 0.13018 0.50296 0.0
C331 C 0.25588 0.08568 0.51394 0.0
N332 N 0.24398 0.09621 0.49807 0.0
C333 C 0.21405 0.06203 0.49026 0.0
C334 C 0.22598 0.05078 0.50649 0.0
C335 C 0.24693 0.06273 0.51849 0.0
C336 C 0.2237 0.08502 0.4867 0.0
H337 H 0.27207 0.09472 0.523 0.0
C338 C 0.29767 0.14431 0.51936 0.0
O339 O 0.27718 0.20153 0.55791 0.0
O340 O 0.26488 0.16617 0.56742 0.0
N341 N 0.22293 0.11997 0.47016 0.0
C342 C 0.21292 0.13413 0.45674 0.0
C343 C 0.19148 0.12527 0.44438 0.0
C344 C 0.18071 0.10185 0.44566 0.0
C345 C 0.19136 0.08766 0.45963 0.0
C346 C 0.21257 0.0976 0.47188 0.0
H347 H 0.22126 0.15201 0.45545 0.0
O348 O 0.23208 0.17263 0.53052 0.0
O349 O 0.24475 0.14234 0.51606 0.0
O350 O 0.2656 0.18735 0.50111 0.0
O351 O 0.26055 0.15555 0.47221 0.0
C352 C 0.18177 0.06406 0.46194 0.0
C353 C 0.19297 0.05136 0.4775 0.0
H354 H 0.21918 0.03303 0.50995 0.0
H355 H 0.25622 0.0542 0.53109 0.0
H356 H 0.18335 0.13637 0.43372 0.0
H357 H 0.16422 0.09501 0.43598 0.0
H358 H 0.16565 0.05561 0.45204 0.0
H359 H 0.18518 0.03345 0.4796 0.0
Mn360 Mn 0.1476 0.06569 0.82491 0.0
Mn361 Mn 0.1904 0.07096 0.87005 0.0
C362 C 0.17227 0.10289 0.83859 0.0
C363 C 0.13215 0.05801 0.78277 0.0
C364 C 0.1439 0.06509 0.87918 0.0
O365 O 0.15106 0.03091 0.82449 0.0
O366 O 0.18046 0.03713 0.8542 0.0
C367 C 0.22307 0.05864 0.84147 0.0
N368 N 0.21691 0.07429 0.85772 0.0
C369 C 0.25227 0.10059 0.86543 0.0
C370 C 0.25902 0.08478 0.84877 0.0
C371 C 0.2443 0.06378 0.83662 0.0
C372 C 0.23082 0.0947 0.86922 0.0
H373 H 0.21191 0.04229 0.83241 0.0
C374 C 0.16577 0.02348 0.83765 0.0
O375 O 0.12025 0.05564 0.79943 0.0
O376 O 0.15291 0.06463 0.79055 0.0
N377 N 0.20175 0.10293 0.88666 0.0
C378 C 0.19217 0.11704 0.9008 0.0
C379 C 0.20441 0.1392 0.91349 0.0
C380 C 0.22644 0.14633 0.91189 0.0
C381 C 0.23592 0.13145 0.89721 0.0
C382 C 0.2228 0.10985 0.88459 0.0
H383 H 0.17536 0.11135 0.90245 0.0
O384 O 0.15244 0.1019 0.82821 0.0
O385 O 0.17664 0.08224 0.84153 0.0
O386 O 0.13491 0.06471 0.85715 0.0
O387 O 0.16438 0.06768 0.88539 0.0
C388 C 0.25787 0.13714 0.89465 0.0
C389 C 0.26597 0.12192 0.8785 0.0
H390 H 0.27543 0.0886 0.84513 0.0
H391 H 0.24938 0.05148 0.82374 0.0
H392 H 0.19697 0.1506 0.92473 0.0
H393 H 0.2359 0.16332 0.9219 0.0
H394 H 0.26862 0.15331 0.90488 0.0
H395 H 0.28275 0.12681 0.87627 0.0
Mn396 Mn 0.25071 0.89431 1.00748 0.0
Mn397 Mn 0.23732 0.93391 0.97166 0.0
C398 C 0.2768 0.91791 0.99166 0.0
C399 C 0.26129 0.88328 0.04474 0.0
C400 C 0.23102 0.88109 0.9537 0.0
O401 O 0.22158 0.89768 0.01533 0.0
O402 O 0.21348 0.92264 0.98937 0.0
C403 C 0.23633 0.9726 0.01109 0.0
N404 N 0.24414 0.96504 0.991 0.0
C405 C 0.26666 1.00418 0.99277 0.0
C406 C 0.25872 1.01238 0.01331 0.0
C407 C 0.24356 0.99649 0.02256 0.0
C408 C 0.25893 0.98015 0.98213 0.0
H409 H 0.22476 0.96053 0.01842 0.0
C410 C 0.2091 0.9102 1.00605 0.0
O411 O 0.25107 0.86749 0.02617 0.0
O412 O 0.26492 0.90566 0.0419 0.0
N413 N 0.259 0.9471 0.95398 0.0
C414 C 0.26516 0.93651 0.93402 0.0
C415 C 0.28068 0.94988 0.92296 0.0
C416 C 0.2893 0.9742 0.93212 0.0
C417 C 0.28216 0.98497 0.95213 0.0
C418 C 0.26669 0.9707 0.96245 0.0
H419 H 0.2581 0.9181 0.92638 0.0
O420 O 0.27979 0.89773 0.99807 0.0
O421 O 0.25864 0.92379 0.99469 0.0
O422 O 0.23667 0.87525 0.97428 0.0
O423 O 0.23096 0.90258 0.95029 0.0
C424 C 0.28978 1.00931 0.96222 0.0
C425 C 0.28214 0.01888 0.98261 0.0
H426 H 0.26427 0.03079 0.02224 0.0
H427 H 0.23751 1.00268 0.03853 0.0
H428 H 0.28582 0.94151 0.90726 0.0
H429 H 0.30122 0.98449 0.9235 0.0
H430 H 0.30158 0.02083 0.9545 0.0
H431 H 0.28834 0.03755 0.9904 0.0
Mn432 Mn 0.32854 0.39761 0.07784 0.0
Mn433 Mn 0.33562 0.44381 0.04538 0.0
C434 C 0.36431 0.41734 0.07423 0.0
C435 C 0.3232 0.38051 0.11403 0.0
C436 C 0.3231 0.39168 0.02147 0.0
O437 O 0.29849 0.40744 0.07486 0.0
O438 O 0.30615 0.43734 0.05353 0.0
C439 C 0.333 0.48224 0.08404 0.0
N440 N 0.34352 0.47366 0.06679 0.0
C441 C 0.36859 0.51161 0.07128 0.0
C442 C 0.35805 0.52091 0.08911 0.0
C443 C 0.3403 0.50609 0.09568 0.0
C444 C 0.36096 0.48754 0.06082 0.0
H445 H 0.31905 0.47104 0.0887 0.0
C446 C 0.29306 0.42432 0.06407 0.0
O447 O 0.31669 0.3684 0.09243 0.0
O448 O 0.33272 0.4028 0.11488 0.0
N449 N 0.36287 0.45334 0.03535 0.0
C450 C 0.37118 0.44157 0.01783 0.0
C451 C 0.3887 0.45396 1.0088 0.0
C452 C 0.39742 0.47834 0.01775 0.0
C453 C 0.38855 0.49011 0.03569 0.0
C454 C 0.37098 0.4769 0.04384 0.0
H455 H 0.36416 0.42302 0.01038 0.0
O456 O 0.36019 0.39589 0.0798 0.0
O457 O 0.34749 0.42721 0.07145 0.0
O458 O 0.32216 0.3827 0.04109 0.0
O459 O 0.32783 0.41423 0.02139 0.0
C460 C 0.39617 0.51457 0.04544 0.0
C461 C 0.3863 0.52527 0.06336 0.0
H462 H 0.36343 0.53939 0.09787 0.0
H463 H 0.33206 0.51313 0.10941 0.0
H464 H 0.39531 0.44481 0.99474 0.0
H465 H 0.41078 0.48792 0.01055 0.0
H466 H 0.40974 0.52525 0.03945 0.0
H467 H 0.39247 0.544 0.07095 0.0
Mn468 Mn 0.85049 0.1822 0.09462 0.0
Mn469 Mn 0.83995 0.13984 0.0449 0.0
C470 C 0.81717 0.15574 0.08401 0.0
C471 C 0.86256 0.19778 0.13517 0.0
C472 C 0.83715 0.19087 0.04273 0.0
O473 O 0.88088 0.18164 0.08834 0.0
O474 O 0.87124 0.15465 0.05409 0.0
C475 C 0.86216 0.10539 0.06769 0.0
N476 N 0.84409 0.11034 0.055 0.0
C477 C 0.82484 0.0693 0.05031 0.0
C478 C 0.84331 0.06371 0.06317 0.0
C479 C 0.86202 0.08187 0.072 0.0
C480 C 0.82587 0.09312 0.04687 0.0
H481 H 0.8766 0.11925 0.07436 0.0
C482 C 0.88534 0.16969 0.07002 0.0
O483 O 0.86168 0.21142 0.11863 0.0
O484 O 0.85752 0.17472 0.12807 0.0
N485 N 0.81038 0.12359 0.03338 0.0
C486 C 0.79402 0.13197 0.02119 0.0
C487 C 0.77441 0.11596 0.01046 0.0
C488 C 0.77198 0.09147 0.01201 0.0
C489 C 0.78894 0.08329 0.02486 0.0
C490 C 0.80816 0.10005 0.03501 0.0
H491 H 0.79602 0.15068 0.01937 0.0
O492 O 0.81925 0.17633 0.09735 0.0
O493 O 0.83469 0.15082 0.07742 0.0
O494 O 0.84405 0.19824 0.06518 0.0
O495 O 0.83468 0.16918 0.03288 0.0
C496 C 0.78766 0.0591 0.02767 0.0
C497 C 0.8055 0.05216 0.04064 0.0
H498 H 0.84331 0.04554 0.06636 0.0
H499 H 0.87634 0.07773 0.08196 0.0
H500 H 0.76135 0.12239 1.00064 0.0
H501 H 0.75707 0.07908 1.00309 0.0
H502 H 0.77299 0.04571 0.02002 0.0
H503 H 0.80425 0.03356 0.04289 0.0
Mn504 Mn 0.16902 0.5191 0.30582 0.0
Mn505 Mn 0.21091 0.53135 0.35341 0.0
C506 C 0.19016 0.56053 0.31858 0.0
C507 C 0.15005 0.51271 0.26206 0.0
C508 C 0.16312 0.52116 0.36213 0.0
O509 O 0.1801 0.48478 0.30619 0.0
O510 O 0.20698 0.496 0.33881 0.0
C511 C 0.24743 0.52495 0.32815 0.0
N512 N 0.23823 0.53901 0.34285 0.0
C513 C 0.2697 0.57139 0.34917 0.0
C514 C 0.27954 0.55717 0.33427 0.0
C515 C 0.26831 0.53389 0.32364 0.0
C516 C 0.24887 0.5615 0.35308 0.0
H517 H 0.23895 0.50703 0.3199 0.0
C518 C 0.19636 0.4799 0.32076 0.0
O519 O 0.14061 0.5071 0.27994 0.0
O520 O 0.17097 0.51972 0.26891 0.0
N521 N 0.21749 0.56418 0.36861 0.0
C522 C 0.20491 0.57647 0.38043 0.0
C523 C 0.21324 0.60056 0.39079 0.0
C524 C 0.23444 0.61176 0.38901 0.0
C525 C 0.24705 0.59881 0.37669 0.0
C526 C 0.23785 0.57486 0.36662 0.0
H527 H 0.18857 0.56806 0.38181 0.0
O528 O 0.16988 0.55532 0.30837 0.0
O529 O 0.19723 0.54113 0.32272 0.0
O530 O 0.15521 0.51824 0.3391 0.0
O531 O 0.18379 0.52463 0.36881 0.0
C532 C 0.26824 0.60887 0.37359 0.0
C533 C 0.27956 0.59516 0.35987 0.0
H534 H 0.2956 0.56404 0.33065 0.0
H535 H 0.27575 0.52285 0.312 0.0
H536 H 0.20334 0.61049 0.40012 0.0
H537 H 0.24078 0.63038 0.39695 0.0
H538 H 0.27589 0.62723 0.38144 0.0
H539 H 0.29569 0.60325 0.35724 0.0
Mn540 Mn 0.82902 0.89684 0.57807 0.0
Mn541 Mn 0.83611 0.94356 0.54629 0.0
C542 C 0.86483 0.91655 0.57435 0.0
C543 C 0.82377 0.87918 0.61398 0.0
C544 C 0.82282 0.89165 0.5217 0.0
O545 O 0.7991 0.90691 0.57563 0.0
O546 O 0.80678 0.93724 0.55482 0.0
C547 C 0.83421 0.98175 0.58557 0.0
N548 N 0.84445 0.9732 0.56801 0.0
C549 C 0.86977 1.011 0.57262 0.0
C550 C 0.85952 0.02026 0.59077 0.0
C551 C 0.84178 1.00549 0.59742 0.0
C552 C 0.86187 0.98703 0.56195 0.0
H553 H 0.82026 0.97059 0.59029 0.0
C554 C 0.79372 0.92405 0.56526 0.0
O555 O 0.81708 0.8674 0.59226 0.0
O556 O 0.83347 0.90146 0.61513 0.0
N557 N 0.86324 0.95294 0.53596 0.0
C558 C 0.87129 0.9412 0.51818 0.0
C559 C 0.88878 0.95353 0.50906 0.0
C560 C 0.89772 0.97784 0.51818 0.0
C561 C 0.88915 0.98957 0.53642 0.0
C562 C 0.8716 0.97641 0.54466 0.0
H563 H 0.86408 0.92272 0.5106 0.0
O564 O 0.86063 0.89496 0.57955 0.0
O565 O 0.84806 0.92651 0.57192 0.0
O566 O 0.82217 0.88242 0.54119 0.0
O567 O 0.8278 0.91424 0.52191 0.0
C568 C 0.89704 0.01394 0.54639 0.0
C569 C 0.88744 0.02461 0.5646 0.0
H570 H 0.86512 0.03866 0.5997 0.0
H571 H 0.83377 1.0125 0.61139 0.0
H572 H 0.89519 0.94442 0.49481 0.0
H573 H 0.91104 0.98739 0.5109 0.0
H574 H 0.91059 0.02458 0.54034 0.0
H575 H 0.89382 0.04327 0.57236 0.0
Mn576 Mn 0.94499 0.99774 0.2739 0.0
Mn577 Mn 0.90543 0.9992 0.30812 0.0
C578 C 0.9206 0.96176 0.27671 0.0
C579 C 0.95863 1.00196 0.23694 0.0
C580 C 0.95248 1.0024 0.33028 0.0
O581 O 0.94342 0.03326 0.2781 0.0
O582 O 0.9171 0.03112 0.30056 0.0
C583 C 0.87267 1.01194 0.27194 0.0
N584 N 0.8781 0.99743 0.28809 0.0
C585 C 0.84063 0.97855 0.28597 0.0
C586 C 0.83459 0.99319 0.26921 0.0
C587 C 0.8507 1.00982 0.26202 0.0
C588 C 0.8628 0.981 0.29467 0.0
H589 H 0.88497 0.02523 0.26696 0.0
C590 C 0.93077 0.04282 0.28971 0.0
O591 O 0.97127 1.00509 0.25784 0.0
O592 O 0.93798 0.99581 0.23731 0.0
N593 N 0.89179 0.97018 0.3177 0.0
C594 C 0.90038 0.95767 0.33421 0.0
C595 C 0.88645 0.94078 0.34381 0.0
C596 C 0.86385 0.93688 0.33634 0.0
C597 C 0.85537 0.94998 0.31936 0.0
C598 C 0.87003 0.96676 0.31062 0.0
H599 H 0.9177 0.96103 0.34046 0.0
O600 O 0.9394 0.96165 0.27053 0.0
O601 O 0.91625 0.98294 0.28089 0.0
O602 O 0.95994 1.0015 0.31037 0.0
O603 O 0.93243 1.00125 0.3309 0.0
C604 C 0.83292 0.94751 0.31126 0.0
C605 C 0.82555 0.96171 0.29448 0.0
H606 H 0.81764 0.99187 0.26182 0.0
H607 H 0.84618 0.02129 0.24921 0.0
H608 H 0.89311 0.93091 0.35712 0.0
H609 H 0.85314 0.92397 0.34394 0.0
H610 H 0.82119 0.93469 0.31775 0.0
H611 H 0.80828 0.9595 0.28822 0.0
Mn612 Mn 0.35935 0.69339 0.60596 0.0
Mn613 Mn 0.3475 0.65052 0.55668 0.0
C614 C 0.32378 0.67367 0.59091 0.0
C615 C 0.36865 0.70678 0.64718 0.0
C616 C 0.35632 0.70316 0.5537 0.0
O617 O 0.38884 0.68582 0.60424 0.0
O618 O 0.37885 0.65828 0.57041 0.0
C619 C 0.35736 0.61113 0.58251 0.0
N620 N 0.34339 0.61994 0.56718 0.0
C621 C 0.31689 0.58273 0.55984 0.0
C622 C 0.33111 0.57311 0.57528 0.0
C623 C 0.35138 0.58743 0.58678 0.0
C624 C 0.32368 0.60651 0.55645 0.0
H625 H 0.37295 0.62208 0.59134 0.0
C626 C 0.39309 0.67139 0.58769 0.0
O627 O 0.37267 0.72105 0.63157 0.0
O628 O 0.36001 0.68437 0.63883 0.0
N629 N 0.31775 0.64083 0.54111 0.0
C630 C 0.3057 0.65311 0.52742 0.0
C631 C 0.28495 0.64142 0.51469 0.0
C632 C 0.27699 0.61715 0.51585 0.0
C633 C 0.28963 0.60491 0.53017 0.0
C634 C 0.31021 0.61748 0.54237 0.0
H635 H 0.31195 0.67163 0.52604 0.0
O636 O 0.32819 0.69463 0.6042 0.0
O637 O 0.34028 0.66453 0.58705 0.0
O638 O 0.36058 0.71032 0.57646 0.0
O639 O 0.35092 0.68112 0.54421 0.0
C640 C 0.28271 0.58072 0.53271 0.0
C641 C 0.29623 0.56971 0.54774 0.0
H642 H 0.32659 0.55481 0.57854 0.0
H643 H 0.36241 0.5802 0.59883 0.0
H644 H 0.27524 0.65099 0.50374 0.0
H645 H 0.26116 0.60807 0.5056 0.0
H646 H 0.26693 0.57045 0.52336 0.0
H647 H 0.29058 0.55122 0.54985 0.0
Mn648 Mn 0.44621 0.50128 0.77592 0.0
Mn649 Mn 0.40608 0.50601 0.80853 0.0
C650 C 0.42102 0.46652 0.78021 0.0
C651 C 0.46014 0.50363 0.73883 0.0
C652 C 0.4525 0.50799 0.83247 0.0
O653 O 0.44577 0.53709 0.77856 0.0
O654 O 0.41889 0.53714 0.79998 0.0
C655 C 0.37559 0.51759 0.76912 0.0
N656 N 0.37974 0.50384 0.78651 0.0
C657 C 0.3419 0.48539 0.78184 0.0
C658 C 0.33718 0.49925 0.76381 0.0
C659 C 0.35414 0.51523 0.75722 0.0
C660 C 0.36371 0.48764 0.79218 0.0
H661 H 0.38851 0.53046 0.76459 0.0
C662 C 0.43318 0.54775 0.78916 0.0
O663 O 0.4727 0.50698 0.75983 0.0
O664 O 0.43947 0.49815 0.73921 0.0
N665 N 0.3911 0.47809 0.819 0.0
C666 C 0.39814 0.46758 0.83816 0.0
C667 C 0.38313 0.45156 0.84747 0.0
C668 C 0.36089 0.44744 0.83787 0.0
C669 C 0.35387 0.45939 0.81903 0.0
C670 C 0.36965 0.47435 0.80975 0.0
H671 H 0.41509 0.47147 0.84636 0.0
O672 O 0.43955 0.46516 0.77391 0.0
O673 O 0.41728 0.48801 0.78303 0.0
O674 O 0.46034 0.50579 0.8128 0.0
O675 O 0.4325 0.50815 0.83251 0.0
C676 C 0.33176 0.45778 0.80974 0.0
C677 C 0.32579 0.47022 0.7907 0.0
H678 H 0.32056 0.49802 0.75514 0.0
H679 H 0.35064 0.52613 0.74345 0.0
H680 H 0.38865 0.44287 0.86243 0.0
H681 H 0.34931 0.4355 0.84548 0.0
H682 H 0.31919 0.44683 0.81698 0.0
H683 H 0.30875 0.46848 0.78344 0.0
Mn684 Mn 0.66958 0.01681 0.80424 0.0
Mn685 Mn 0.71182 0.03054 0.8515 0.0
C686 C 0.68983 0.05872 0.81707 0.0
C687 C 0.65088 1.01067 0.76031 0.0
C688 C 0.66418 0.01915 0.86078 0.0
O689 O 0.68157 0.98315 0.80423 0.0
O690 O 0.70763 0.99486 0.83757 0.0
C691 C 0.74779 0.02311 0.82564 0.0
N692 N 0.73895 0.03755 0.84038 0.0
C693 C 0.77081 0.06939 0.84621 0.0
C694 C 0.78027 0.05476 0.83128 0.0
C695 C 0.76866 0.03156 0.82087 0.0
C696 C 0.74996 0.05997 0.85039 0.0
H697 H 0.73904 1.00525 0.81756 0.0
C698 C 0.69757 0.97858 0.81935 0.0
O699 O 0.64147 1.0037 0.77778 0.0
O700 O 0.6716 0.01891 0.76766 0.0
N701 N 0.71884 0.06359 0.86608 0.0
C702 C 0.70646 0.07645 0.87756 0.0
C703 C 0.71518 0.10054 0.88767 0.0
C704 C 0.73653 0.11118 0.8859 0.0
C705 C 0.74886 0.09772 0.87372 0.0
C706 C 0.73929 0.07378 0.86394 0.0
H707 H 0.68995 0.06852 0.8787 0.0
O708 O 0.6694 0.05294 0.80734 0.0
O709 O 0.6975 0.03967 0.82096 0.0
O710 O 0.65599 0.01416 0.83772 0.0
O711 O 0.68493 0.0249 0.86723 0.0
C712 C 0.7701 0.10728 0.87041 0.0
C713 C 0.78107 0.09312 0.85669 0.0
H714 H 0.79633 0.06125 0.82746 0.0
H715 H 0.7758 0.02021 0.8092 0.0
H716 H 0.70544 0.1109 0.89675 0.0
H717 H 0.74317 0.1298 0.89364 0.0
H718 H 0.77802 0.12563 0.878 0.0
H719 H 0.79723 0.10083 0.85387 0.0
Mn720 Mn 0.76417 0.67127 0.03232 0.0
Mn721 Mn 0.75234 0.62414 0.98723 0.0
C722 C 0.72781 0.6492 0.01964 0.0
C723 C 0.77318 0.68837 0.0742 0.0
C724 C 0.76454 0.67595 0.978 0.0
O725 O 0.794 0.66164 0.03209 0.0
O726 O 0.78331 0.62903 1.00306 0.0
C727 C 0.75689 0.58481 0.0155 0.0
N728 N 0.74461 0.59472 0.99938 0.0
C729 C 0.71506 0.56023 0.99272 0.0
C730 C 0.72739 0.54961 0.00921 0.0
C731 C 0.74834 0.56203 0.02076 0.0
C732 C 0.72433 0.58309 0.98845 0.0
H733 H 0.77308 0.59419 0.02422 0.0
C734 C 0.79787 0.64333 0.01936 0.0
O735 O 0.77709 0.70091 0.05715 0.0
O736 O 0.76484 0.66574 0.06703 0.0
N737 N 0.72281 0.61735 0.9709 0.0
C738 C 0.71241 0.63095 0.95712 0.0
C739 C 0.69092 0.62158 0.94512 0.0
C740 C 0.6805 0.59824 0.94714 0.0
C741 C 0.69156 0.58463 0.96147 0.0
C742 C 0.71279 0.59507 0.97333 0.0
H743 H 0.72047 0.64877 0.95526 0.0
O744 O 0.7321 0.67148 0.02976 0.0
O745 O 0.74494 0.64104 0.01618 0.0
O746 O 0.76591 0.68564 1.00003 0.0
O747 O 0.75988 0.65321 0.97174 0.0
C748 C 0.68235 0.56114 0.96449 0.0
C749 C 0.69395 0.54906 0.98037 0.0
H750 H 0.72089 0.532 0.01322 0.0
H751 H 0.75793 0.55399 0.03356 0.0
H752 H 0.68247 0.63224 0.93418 0.0
H753 H 0.66398 0.59101 0.93773 0.0
H754 H 0.6662 0.55232 0.95492 0.0
H755 H 0.68645 0.53124 0.98302 0.0
Mn756 Mn 0.92238 0.54799 0.78236 0.0
Mn757 Mn 0.88465 0.54389 0.82011 0.0
C758 C 0.90236 0.50807 0.78886 0.0
C759 C 0.93873 0.54906 0.74297 0.0
C760 C 0.93369 0.55448 0.8408 0.0
O761 O 0.91182 0.58307 0.78392 0.0
O762 O 0.88818 0.5765 0.80932 0.0
C763 C 0.84606 0.54505 0.78407 0.0
N764 N 0.8559 0.53443 0.80155 0.0
C765 C 0.82266 0.50601 0.80086 0.0
C766 C 0.81212 0.51671 0.78293 0.0
C767 C 0.82393 0.53618 0.77435 0.0
C768 C 0.84484 0.51528 0.80943 0.0
H769 H 0.85499 0.56023 0.77766 0.0
C770 C 0.89723 0.59025 0.79574 0.0
O771 O 0.94912 0.5579 0.76464 0.0
O772 O 0.91827 0.5411 0.74355 0.0
N773 N 0.87804 0.51441 0.83253 0.0
C774 C 0.89082 0.50548 0.84913 0.0
C775 C 0.8814 0.48641 0.86004 0.0
C776 C 0.85896 0.47689 0.85399 0.0
C777 C 0.84624 0.4858 0.8363 0.0
C778 C 0.85648 0.50498 0.82621 0.0
H779 H 0.90797 0.51317 0.85448 0.0
O780 O 0.92112 0.51151 0.78198 0.0
O781 O 0.89568 0.5282 0.79206 0.0
O782 O 0.93945 0.55411 0.81968 0.0
O783 O 0.91369 0.55292 0.84257 0.0
C784 C 0.82375 0.4767 0.82857 0.0
C785 C 0.81202 0.48658 0.81062 0.0
H786 H 0.79499 0.51009 0.7756 0.0
H787 H 0.81593 0.54451 0.76048 0.0
H788 H 0.89134 0.47943 0.8735 0.0
H789 H 0.85166 0.46282 0.86316 0.0
H790 H 0.81534 0.46194 0.83613 0.0
H791 H 0.79482 0.47915 0.80452 0.0
Mn792 Mn 0.73876 0.38921 0.49923 0.0
Mn793 Mn 0.73186 0.43221 0.46518 0.0
C794 C 0.76789 0.41079 0.4862 0.0
C795 C 0.74528 0.37593 0.53616 0.0
C796 C 0.72053 0.37939 0.44486 0.0
O797 O 0.7099 0.39541 0.50519 0.0
O798 O 0.70652 0.42383 0.48177 0.0
C799 C 0.73365 0.47148 0.5051 0.0
N800 N 0.74127 0.46288 0.48528 0.0
C801 C 0.76696 0.50014 0.48797 0.0
C802 C 0.75924 0.50945 0.50824 0.0
C803 C 0.74256 0.49502 0.51689 0.0
C804 C 0.75741 0.47657 0.4769 0.0
H805 H 0.72091 0.4605 0.51193 0.0
C806 C 0.69979 0.41049 0.4969 0.0
O807 O 0.73519 0.36133 0.51666 0.0
O808 O 0.75122 0.39842 0.5343 0.0
N809 N 0.75544 0.4427 0.44888 0.0
C810 C 0.76246 0.4304 0.43057 0.0
C811 C 0.77963 0.44202 0.42045 0.0
C812 C 0.78943 0.46616 0.42925 0.0
C813 C 0.78209 0.47841 0.44826 0.0
C814 C 0.76483 0.46594 0.45754 0.0
H815 H 0.75536 0.41175 0.42411 0.0
O816 O 0.76831 0.38974 0.49198 0.0
O817 O 0.75042 0.41874 0.48832 0.0
O818 O 0.72533 0.37236 0.46507 0.0
O819 O 0.72243 0.40146 0.4426 0.0
C820 C 0.7915 0.50238 0.45865 0.0
C821 C 0.784 0.51321 0.47855 0.0
H822 H 0.76613 0.52758 0.51745 0.0
H823 H 0.7366 0.50202 0.53262 0.0
H824 H 0.78539 0.43233 0.406 0.0
H825 H 0.80275 0.47503 0.42148 0.0
H826 H 0.80472 0.51257 0.4517 0.0
H827 H 0.79164 0.53151 0.48667 0.0
Mn828 Mn 0.64921 0.5658 0.32664 0.0
Mn829 Mn 0.69224 0.57291 0.37194 0.0
C830 C 0.67279 0.60366 0.34009 0.0
C831 C 0.63391 0.55755 0.2845 0.0
C832 C 0.64559 0.56512 0.38081 0.0
O833 O 0.65385 0.53146 0.32665 0.0
O834 O 0.68353 0.53902 0.35615 0.0
C835 C 0.72574 0.56231 0.34378 0.0
N836 N 0.71888 0.57749 0.35984 0.0
C837 C 0.75355 0.60515 0.36781 0.0
C838 C 0.76102 0.58983 0.35135 0.0
C839 C 0.74699 0.5684 0.33916 0.0
C840 C 0.73212 0.59831 0.37138 0.0
H841 H 0.71513 0.54563 0.3347 0.0
C842 C 0.66911 0.52477 0.33975 0.0
O843 O 0.622 0.55469 0.3011 0.0
O844 O 0.65461 0.5649 0.29235 0.0
N845 N 0.70242 0.60507 0.38843 0.0
C846 C 0.69217 0.61858 0.40233 0.0
C847 C 0.70363 0.64109 0.41497 0.0
C848 C 0.72559 0.6492 0.41355 0.0
C849 C 0.73577 0.63491 0.39913 0.0
C850 C 0.7234 0.61292 0.38654 0.0
H851 H 0.67542 0.61217 0.40384 0.0
O852 O 0.65285 0.60187 0.32959 0.0
O853 O 0.67789 0.58339 0.34326 0.0
O854 O 0.63651 0.56448 0.35878 0.0
O855 O 0.66613 0.56839 0.38708 0.0
C856 C 0.75771 0.64157 0.39678 0.0
C857 C 0.76652 0.6269 0.38087 0.0
H858 H 0.77745 0.59438 0.34788 0.0
H859 H 0.75263 0.55648 0.32643 0.0
H860 H 0.69565 0.65203 0.42602 0.0
H861 H 0.73445 0.66646 0.42352 0.0
H862 H 0.7679 0.65809 0.40698 0.0
H863 H 0.78328 0.63252 0.37879 0.0
Tb864 Tb 0.02493 0.01838 0.03615 0.0
Tb865 Tb 0.06199 0.04804 0.06881 0.0
C866 C 0.98639 1.00312 0.01482 0.0
C867 C 0.97181 0.01695 1.00326 0.0
C868 C 0.95212 0.01711 0.01137 0.0
C869 C 0.94292 0.03712 0.01051 0.0
C870 C 0.95333 0.0571 1.00143 0.0
C871 C 0.97102 0.05526 0.98984 0.0
C872 C 0.9802 0.03522 0.99066 0.0
C873 C 0.05998 0.0254 0.0157 0.0
C874 C 0.03414 0.07633 0.03785 0.0
C875 C 0.10053 0.06559 0.0897 0.0
C876 C 0.1185 0.05406 0.09754 0.0
C877 C 0.13633 0.05676 0.0855 0.0
C878 C 0.14957 0.04015 0.08597 0.0
C879 C 0.14528 0.02083 0.09876 0.0
C880 C 0.1296 0.02038 0.11375 0.0
C881 C 0.11609 0.03672 0.11297 0.0
C882 C 0.02672 0.04087 0.08917 0.0
C883 C 0.05299 0.99003 0.06638 0.0
O884 O 0.99197 1.00987 0.03827 0.0
O885 O 1.00305 1.0002 1.00469 0.0
O886 O 0.05401 0.04053 0.02998 0.0
O887 O 0.04594 1.00516 0.01283 0.0
O888 O 0.02099 0.05498 0.02996 0.0
O889 O 0.05214 0.07834 0.05366 0.0
O890 O 0.09415 0.06227 0.06621 0.0
O891 O 0.08409 0.06275 0.10117 0.0
O892 O 0.03291 0.0258 0.07505 0.0
O893 O 0.04072 0.06111 0.09196 0.0
O894 O 0.06724 1.01103 0.07243 0.0
O895 O 0.0339 0.98875 0.05284 0.0
H896 H 0.94539 1.00321 0.02112 0.0
H897 H 0.92918 0.03803 0.01948 0.0
H898 H 0.97894 0.07025 0.98221 0.0
H899 H 0.99529 0.03544 0.98399 0.0
H900 H 0.13863 0.07017 0.07369 0.0
H901 H 0.16161 0.04104 0.07429 0.0
H902 H 0.12653 1.00614 0.1244 0.0
H903 H 0.10269 0.0344 0.12279 0.0
Tb904 Tb 0.30209 0.77359 0.27978 0.0
Tb905 Tb 0.28864 0.79434 0.31979 0.0
C906 C 0.31109 0.76276 0.23848 0.0
C907 C 0.31545 0.77663 0.21893 0.0
C908 C 0.30569 0.76677 0.19497 0.0
C909 C 0.30596 0.78118 0.17682 0.0
C910 C 0.31576 0.80569 0.18253 0.0
C911 C 0.32671 0.8152 0.20619 0.0
C912 C 0.32677 0.80068 0.22422 0.0
C913 C 0.32664 0.76857 0.32075 0.0
C914 C 0.31846 0.83178 0.29607 0.0
C915 C 0.27885 0.80781 0.36004 0.0
C916 C 0.2811 0.80054 0.384 0.0
C917 C 0.28961 0.81833 0.40427 0.0
C918 C 0.2966 0.812 0.42666 0.0
C919 C 0.29487 0.7878 0.42901 0.0
C920 C 0.28486 0.76996 0.40913 0.0
C921 C 0.27814 0.77629 0.38664 0.0
C922 C 0.26393 0.79873 0.27854 0.0
C923 C 0.27398 0.73618 0.30537 0.0
O924 O 0.29131 0.76023 0.24281 0.0
O925 O 0.32549 0.76818 0.25844 0.0
O926 O 0.31994 0.78718 0.3163 0.0
O927 O 0.31958 0.75225 0.30186 0.0
O928 O 0.31435 0.81321 0.27811 0.0
O929 O 0.31132 0.8277 0.3163 0.0
O930 O 0.29732 0.81604 0.35363 0.0
O931 O 0.2652 0.79329 0.34237 0.0
O932 O 0.27072 0.78037 0.28345 0.0
O933 O 0.27101 0.81514 0.29718 0.0
O934 O 0.279 0.75487 0.32335 0.0
O935 O 0.27979 0.7401 0.28435 0.0
H936 H 0.29686 0.74827 0.19056 0.0
H937 H 0.2973 0.77355 0.15867 0.0
H938 H 0.33448 0.83403 0.21086 0.0
H939 H 0.33482 0.80853 0.24248 0.0
H940 H 0.29209 0.83713 0.40243 0.0
H941 H 0.30425 0.82597 0.44185 0.0
H942 H 0.28359 0.75117 0.41058 0.0
H943 H 0.27179 0.76229 0.37117 0.0
Tb944 Tb 0.5671 0.03428 0.54008 0.0
Tb945 Tb 0.52155 0.02923 0.55672 0.0
C946 C 0.60623 0.03159 0.53931 0.0
C947 C 0.62208 0.01603 0.54533 0.0
C948 C 0.63307 0.01698 0.56916 0.0
C949 C 0.64955 1.00411 0.57389 0.0
C950 C 0.65568 0.98996 0.55497 0.0
C951 C 0.64434 0.98876 0.53125 0.0
C952 C 0.62793 1.00158 0.52654 0.0
C953 C 0.53578 0.04085 0.50306 0.0
C954 C 0.53538 0.98234 0.535 0.0
C955 C 0.48241 0.03114 0.55851 0.0
C956 C 0.46559 0.04534 0.55213 0.0
C957 C 0.47022 0.0706 0.55676 0.0
C958 C 0.45346 0.08331 0.55346 0.0
C959 C 0.43155 0.07115 0.5456 0.0
C960 C 0.42718 0.04591 0.54031 0.0
C961 C 0.4439 0.03327 0.54355 0.0
C962 C 0.55321 0.02399 0.59409 0.0
C963 C 0.55286 0.08092 0.56105 0.0
O964 O 0.60009 0.04406 0.55703 0.0
O965 O 0.59016 0.02294 0.52109 0.0
O966 O 0.53425 0.03582 0.52435 0.0
O967 O 0.55655 0.04351 0.50319 0.0
O968 O 0.55527 0.99542 0.53661 0.0
O969 O 0.519 0.99192 0.54041 0.0
O970 O 0.48819 0.01801 0.54098 0.0
O971 O 0.49895 0.04141 0.57569 0.0
O972 O 0.55436 0.0274 0.57226 0.0
O973 O 0.53275 0.02297 0.59462 0.0
O974 O 0.53279 0.06786 0.55795 0.0
O975 O 0.56963 0.07131 0.55728 0.0
H976 H 0.62925 0.02801 0.58416 0.0
H977 H 0.65758 1.0054 0.59245 0.0
H978 H 0.64864 0.97854 0.51603 0.0
H979 H 0.62017 1.00066 0.50792 0.0
H980 H 0.48672 0.08054 0.56355 0.0
H981 H 0.45763 0.10266 0.55787 0.0
H982 H 0.41071 0.03579 0.53375 0.0
H983 H 0.43975 0.01387 0.53991 0.0
Tb984 Tb 0.27588 0.28483 0.79841 0.0
Tb985 Tb 0.32141 0.27397 0.80649 0.0
C986 C 0.23653 0.28448 0.8013 0.0
C987 C 0.22074 0.28118 0.81846 0.0
C988 C 0.20812 0.25834 0.81908 0.0
C989 C 0.19128 0.25556 0.83265 0.0
C990 C 0.18642 0.27552 0.84607 0.0
C991 C 0.19949 0.29828 0.84602 0.0
C992 C 0.2163 0.30108 0.83236 0.0
C993 C 0.30692 0.31732 0.7871 0.0
C994 C 0.30542 0.29691 0.85184 0.0
C995 C 0.36051 0.27146 0.80518 0.0
C996 C 0.37719 0.27304 0.78925 0.0
C997 C 0.3742 0.2811 0.76671 0.0
C998 C 0.39097 0.2835 0.75292 0.0
C999 C 0.41097 0.27752 0.76115 0.0
C1000 C 0.41364 0.2691 0.78355 0.0
C1001 C 0.39704 0.267 0.79739 0.0
C1002 C 0.28968 0.24196 0.81734 0.0
C1003 C 0.29231 0.26325 0.75275 0.0
O1004 O 0.24349 0.2657 0.79296 0.0
O1005 O 0.25192 0.30401 0.8056 0.0
O1006 O 0.30873 0.30532 0.80427 0.0
O1007 O 0.28642 0.31355 0.77767 0.0
O1008 O 0.28573 0.29153 0.83823 0.0
O1009 O 0.32278 0.29363 0.84263 0.0
O1010 O 0.3544 0.29121 0.81226 0.0
O1011 O 0.34417 0.25288 0.80008 0.0
O1012 O 0.2887 0.25363 0.79996 0.0
O1013 O 0.3097 0.24675 0.82863 0.0
O1014 O 0.31191 0.26785 0.76659 0.0
O1015 O 0.27492 0.26671 0.7618 0.0
H1016 H 0.21084 0.24255 0.80851 0.0
H1017 H 0.18184 0.23772 0.83235 0.0
H1018 H 0.19621 0.31418 0.85577 0.0
H1019 H 0.22537 0.31899 0.83212 0.0
H1020 H 0.35898 0.28558 0.75978 0.0
H1021 H 0.38818 0.28978 0.73565 0.0
H1022 H 0.42879 0.26454 0.79068 0.0
H1023 H 0.39982 0.26081 0.81472 0.0
Tb1024 Tb 0.04198 0.05209 0.55847 0.0
Tb1025 Tb 0.05678 1.00537 0.54816 0.0
C1026 C 0.03241 0.0919 0.5561 0.0
C1027 C 0.02932 0.10551 0.53594 0.0
C1028 C 0.0447 0.10919 0.52064 0.0
C1029 C 0.04117 0.12161 0.50122 0.0
C1030 C 0.02207 0.13031 0.49652 0.0
C1031 C 1.00642 0.1259 0.51145 0.0
C1032 C 1.01009 0.11374 0.53105 0.0
C1033 C 0.01658 0.01351 0.56907 0.0
C1034 C 0.03514 0.02436 0.50323 0.0
C1035 C 0.05707 0.96187 0.54752 0.0
C1036 C 0.05635 0.94705 0.56675 0.0
C1037 C 0.05011 0.95518 0.58852 0.0
C1038 C 0.05211 0.9426 0.60804 0.0
C1039 C 0.06019 0.92157 0.60597 0.0
C1040 C 0.06563 0.91305 0.58375 0.0
C1041 C 0.06386 0.92581 0.56435 0.0
C1042 C 0.08771 0.04167 0.5416 0.0
C1043 C 0.06856 0.03609 0.60184 0.0
O1044 O 0.05225 0.08945 0.56361 0.0
O1045 O 0.01788 0.07199 0.55419 0.0
O1046 O 0.02614 0.01483 0.55103 0.0
O1047 O 0.02097 0.03477 0.5817 0.0
O1048 O 0.0349 0.04393 0.51831 0.0
O1049 O 0.04233 1.00609 0.51102 0.0
O1050 O 0.03946 0.96964 0.54091 0.0
O1051 O 0.07469 0.97869 0.55059 0.0
O1052 O 0.06982 0.04228 0.54841 0.0
O1053 O 0.08803 0.01916 0.53685 0.0
O1054 O 0.06452 0.01469 0.58814 0.0
O1055 O 0.0636 0.05489 0.59285 0.0
H1056 H 0.05952 0.10261 0.52373 0.0
H1057 H 0.0537 0.12495 0.49032 0.0
H1058 H 0.99137 0.13197 0.50809 0.0
H1059 H 0.99784 0.11066 0.54236 0.0
H1060 H 0.04417 0.97154 0.59064 0.0
H1061 H 0.04788 0.94971 0.62491 0.0
H1062 H 0.0714 0.89659 0.58138 0.0
H1063 H 0.06877 0.91935 0.54766 0.0
Tb1064 Tb 0.29606 0.75462 0.80242 0.0
Tb1065 Tb 0.29684 0.80885 0.80974 0.0
C1066 C 0.30016 0.71407 0.78405 0.0
C1067 C 0.31745 0.70052 0.78294 0.0
C1068 C 0.3385 0.7094 0.79639 0.0
C1069 C 0.3545 0.69588 0.79511 0.0
C1070 C 0.34973 0.6733 0.7803 0.0
C1071 C 0.32871 0.6649 0.76644 0.0
C1072 C 0.31277 0.67833 0.76782 0.0
C1073 C 0.27126 0.76907 0.83175 0.0
C1074 C 0.3318 0.78805 0.84352 0.0
C1075 C 0.29283 0.84967 0.82719 0.0
C1076 C 0.27588 0.86377 0.82593 0.0
C1077 C 0.25708 0.85712 0.80798 0.0
C1078 C 0.24151 0.87131 0.80687 0.0
C1079 C 0.2446 0.89241 0.82364 0.0
C1080 C 0.26323 0.89856 0.84192 0.0
C1081 C 0.27869 0.88439 0.84302 0.0
C1082 C 0.32085 0.79408 0.77986 0.0
C1083 C 0.26204 0.7763 0.76773 0.0
O1084 O 0.30176 0.73269 0.7727 0.0
O1085 O 0.29432 0.71832 0.80518 0.0
O1086 O 0.27534 0.77686 0.8129 0.0
O1087 O 0.27988 0.75063 0.83412 0.0
O1088 O 0.32583 0.76706 0.82907 0.0
O1089 O 0.32165 0.80581 0.84022 0.0
O1090 O 0.28934 0.83089 0.83818 0.0
O1091 O 0.30068 0.84539 0.80733 0.0
O1092 O 0.31735 0.78656 0.79898 0.0
O1093 O 0.31204 0.81237 0.7774 0.0
O1094 O 0.26793 0.79705 0.78247 0.0
O1095 O 0.27133 0.75795 0.77156 0.0
H1096 H 0.34249 0.72664 0.80801 0.0
H1097 H 0.37045 0.70288 0.80613 0.0
H1098 H 0.32454 0.64787 0.75446 0.0
H1099 H 0.29671 0.67134 0.75703 0.0
H1100 H 0.25452 0.84109 0.79476 0.0
H1101 H 0.22733 0.86608 0.79261 0.0
H1102 H 0.26588 0.91441 0.8554 0.0
H1103 H 0.29296 0.88964 0.85717 0.0
Tb1104 Tb 0.52952 0.02971 0.03093 0.0
Tb1105 Tb 0.56783 0.02998 0.067 0.0
C1106 C 0.49357 0.0166 1.00293 0.0
C1107 C 0.47069 0.01681 1.00245 0.0
C1108 C 0.45655 1.01093 0.98011 0.0
C1109 C 0.43424 1.00793 0.97921 0.0
C1110 C 0.42581 1.01071 1.00071 0.0
C1111 C 0.44019 0.01805 0.02302 0.0
C1112 C 0.46255 0.02111 0.02389 0.0
C1113 C 0.55011 0.07295 0.05253 0.0
C1114 C 0.52342 0.03061 0.08909 0.0
C1115 C 0.60442 0.04364 0.09379 0.0
C1116 C 0.62717 0.04639 0.0909 0.0
C1117 C 0.63367 0.05272 0.06951 0.0
C1118 C 0.65562 0.0582 0.06803 0.0
C1119 C 0.67149 0.05732 0.08787 0.0
C1120 C 0.66485 0.04982 0.10887 0.0
C1121 C 0.64282 0.04444 0.11037 0.0
C1122 C 0.54658 0.98686 0.04579 0.0
C1123 C 0.57385 0.0297 1.00895 0.0
O1124 O 0.5017 1.00295 0.01716 0.0
O1125 O 0.50665 0.0374 1.00404 0.0
O1126 O 0.54709 0.05404 0.06168 0.0
O1127 O 0.54047 0.06778 0.03002 0.0
O1128 O 0.51422 0.02917 0.06557 0.0
O1129 O 0.54485 0.03144 0.09389 0.0
O1130 O 0.59383 0.05803 0.08322 0.0
O1131 O 0.59293 0.02169 0.0909 0.0
O1132 O 0.55011 1.00557 0.03634 0.0
O1133 O 0.55661 0.9919 0.06819 0.0
O1134 O 0.58311 0.03159 0.03246 0.0
O1135 O 0.55234 0.02789 1.0041 0.0
H1136 H 0.4627 1.00763 0.96343 0.0
H1137 H 0.42355 1.00199 0.96181 0.0
H1138 H 0.43407 0.02051 0.03982 0.0
H1139 H 0.47336 0.0259 0.04127 0.0
H1140 H 0.62189 0.05445 0.05428 0.0
H1141 H 0.66014 0.06428 0.05173 0.0
H1142 H 0.6767 0.04869 0.12433 0.0
H1143 H 0.63803 0.03949 0.12699 0.0
Tb1144 Tb 0.27693 0.26975 0.28877 0.0
Tb1145 Tb 0.31553 0.30102 0.31397 0.0
C1146 C 0.23807 0.24652 0.27883 0.0
C1147 C 0.21716 0.2533 0.28032 0.0
C1148 C 0.20124 0.23808 0.28922 0.0
C1149 C 0.18304 0.24596 0.29522 0.0
C1150 C 0.1806 0.26928 0.29259 0.0
C1151 C 0.19595 0.28401 0.28242 0.0
C1152 C 0.21409 0.27609 0.2763 0.0
C1153 C 0.29955 0.29218 0.25909 0.0
C1154 C 0.27465 0.32671 0.30807 0.0
C1155 C 0.35471 0.32278 0.32165 0.0
C1156 C 0.37449 0.31361 0.31936 0.0
C1157 C 0.37379 0.2947 0.30081 0.0
C1158 C 0.39223 0.28581 0.29834 0.0
C1159 C 0.41202 0.29597 0.31397 0.0
C1160 C 0.41292 0.31504 0.33246 0.0
C1161 C 0.39417 0.32364 0.3353 0.0
C1162 C 0.29321 0.2793 0.3442 0.0
C1163 C 0.31783 0.24392 0.29535 0.0
O1164 O 0.25066 0.24866 0.29978 0.0
O1165 O 0.24883 0.25477 0.26257 0.0
O1166 O 0.29622 0.30094 0.27951 0.0
O1167 O 0.28993 0.26964 0.25479 0.0
O1168 O 0.26408 0.30383 0.29952 0.0
O1169 O 0.29628 0.33033 0.31456 0.0
O1170 O 0.34132 0.32101 0.30126 0.0
O1171 O 0.3445 0.31623 0.33897 0.0
O1172 O 0.29586 0.27007 0.32354 0.0
O1173 O 0.30379 0.30157 0.34848 0.0
O1174 O 0.32812 0.26652 0.30516 0.0
O1175 O 0.29637 0.2405 0.28754 0.0
H1176 H 0.20341 0.22052 0.29264 0.0
H1177 H 0.17148 0.23429 0.30311 0.0
H1178 H 0.19421 0.30188 0.27981 0.0
H1179 H 0.2261 0.28815 0.26938 0.0
H1180 H 0.35909 0.28702 0.28774 0.0
H1181 H 0.39119 0.27152 0.28354 0.0
H1182 H 0.4281 0.32331 0.34456 0.0
H1183 H 0.39511 0.33831 0.34966 0.0
Tb1184 Tb 0.54316 0.55169 0.06028 0.0
Tb1185 Tb 0.55662 0.50422 0.05003 0.0
C1186 C 0.53468 0.5919 0.0575 0.0
C1187 C 0.53143 0.60463 0.03666 0.0
C1188 C 0.54715 0.60851 0.02178 0.0
C1189 C 0.54327 0.61948 1.00135 0.0
C1190 C 0.5235 0.62655 0.99524 0.0
C1191 C 0.50761 0.62208 0.00986 0.0
C1192 C 0.5116 0.61137 0.03044 0.0
C1193 C 0.51623 0.51355 0.06912 0.0
C1194 C 0.53461 0.52372 1.00546 0.0
C1195 C 0.55632 0.46064 0.04987 0.0
C1196 C 0.56843 0.44712 0.06511 0.0
C1197 C 0.58353 0.45889 0.08585 0.0
C1198 C 0.59167 0.44572 0.10291 0.0
C1199 C 0.58494 0.42062 0.09927 0.0
C1200 C 0.57089 0.40894 0.07764 0.0
C1201 C 0.56266 0.42211 0.06075 0.0
C1202 C 0.58943 0.53999 0.04632 0.0
C1203 C 0.56978 0.53532 0.10379 0.0
O1204 O 0.55439 0.5889 0.06465 0.0
O1205 O 0.51977 0.57253 0.0567 0.0
O1206 O 0.5262 0.51475 0.05135 0.0
O1207 O 0.52124 0.53446 0.08252 0.0
O1208 O 0.53709 0.54426 0.02022 0.0
O1209 O 0.53931 0.50445 0.01371 0.0
O1210 O 0.54375 0.47196 0.06095 0.0
O1211 O 0.56716 0.47373 0.03644 0.0
O1212 O 0.57118 0.541 0.05196 0.0
O1213 O 0.58949 0.51738 0.04215 0.0
O1214 O 0.56683 0.51421 0.0898 0.0
O1215 O 0.56375 0.55387 0.09522 0.0
H1216 H 0.56246 0.60309 0.02587 0.0
H1217 H 0.55599 0.62296 0.99072 0.0
H1218 H 0.49208 0.62696 1.00545 0.0
H1219 H 0.4991 0.60813 0.04142 0.0
H1220 H 0.58821 0.47825 0.08938 0.0
H1221 H 0.60254 0.45517 0.11932 0.0
H1222 H 0.56508 0.38966 0.07445 0.0
H1223 H 0.55088 0.41281 0.04493 0.0
Tb1224 Tb 0.7955 0.25341 0.3029 0.0
Tb1225 Tb 0.79571 0.30644 0.30071 0.0
C1226 C 0.79782 0.21044 0.292 0.0
C1227 C 0.81507 0.1966 0.29159 0.0
C1228 C 0.83337 0.2041 0.28112 0.0
C1229 C 0.84893 0.19012 0.27973 0.0
C1230 C 0.84666 0.16833 0.28895 0.0
C1231 C 0.82857 0.16121 0.30004 0.0
C1232 C 0.81293 0.17513 0.30122 0.0
C1233 C 0.77693 0.275 0.33493 0.0
C1234 C 0.83551 0.29149 0.33311 0.0
C1235 C 0.79381 0.34929 0.31298 0.0
C1236 C 0.77723 0.36381 0.31321 0.0
C1237 C 0.75584 0.355 0.30065 0.0
C1238 C 0.74056 0.36952 0.30101 0.0
C1239 C 0.74648 0.39301 0.31394 0.0
C1240 C 0.76783 0.40141 0.32688 0.0
C1241 C 0.78302 0.38696 0.32648 0.0
C1242 C 0.8135 0.285 0.26798 0.0
C1243 C 0.75599 0.26875 0.2699 0.0
O1244 O 0.7966 0.22528 0.27623 0.0
O1245 O 0.79497 0.21954 0.31341 0.0
O1246 O 0.77675 0.27796 0.31344 0.0
O1247 O 0.78602 0.25725 0.33897 0.0
O1248 O 0.82804 0.2688 0.32302 0.0
O1249 O 0.82494 0.30848 0.32794 0.0
O1250 O 0.79321 0.33349 0.32784 0.0
O1251 O 0.7974 0.34089 0.29166 0.0
O1252 O 0.81433 0.28183 0.28958 0.0
O1253 O 0.80406 0.30262 0.26431 0.0
O1254 O 0.76348 0.29133 0.28027 0.0
O1255 O 0.7663 0.2515 0.27521 0.0
H1256 H 0.83545 0.22059 0.27364 0.0
H1257 H 0.86245 0.19612 0.27087 0.0
H1258 H 0.82646 0.14488 0.30791 0.0
H1259 H 0.79904 0.16901 0.30954 0.0
H1260 H 0.75103 0.33703 0.29048 0.0
H1261 H 0.72425 0.3625 0.29088 0.0
H1262 H 0.7728 0.41916 0.33751 0.0
H1263 H 0.79937 0.39393 0.33653 0.0
Tb1264 Tb 0.02765 0.52791 0.53207 0.0
Tb1265 Tb 0.06883 0.53894 0.56868 0.0
C1266 C 0.9923 0.50508 0.50686 0.0
C1267 C 0.96878 0.50023 0.50683 0.0
C1268 C 0.95799 0.47661 0.50701 0.0
C1269 C 0.93556 0.47089 0.50552 0.0
C1270 C 0.9234 0.48866 0.50364 0.0
C1271 C 0.93416 0.51238 0.50355 0.0
C1272 C 0.95673 0.51816 0.50521 0.0
C1273 C 0.04221 0.57368 0.55018 0.0
C1274 C 0.02391 0.53249 0.59115 0.0
C1275 C 0.10412 0.5622 0.59377 0.0
C1276 C 0.12666 0.57009 0.59052 0.0
C1277 C 0.13145 0.57826 0.56912 0.0
C1278 C 0.15288 0.58778 0.56725 0.0
C1279 C 0.16991 0.58915 0.58669 0.0
C1280 C 0.16507 0.58014 0.60775 0.0
C1281 C 0.1436 0.57077 0.60966 0.0
C1282 C 0.05364 0.49319 0.55163 0.0
C1283 C 0.07257 0.53419 0.50976 0.0
O1284 O 1.00397 0.49613 0.52311 0.0
O1285 O 1.00185 0.52662 0.5039 0.0
O1286 O 0.04285 0.55572 0.56048 0.0
O1287 O 0.03096 0.56597 0.52847 0.0
O1288 O 0.01386 0.52741 0.56762 0.0
O1289 O 0.04577 0.53776 0.59574 0.0
O1290 O 0.08981 0.57205 0.58182 0.0
O1291 O 0.09709 0.53915 0.5933 0.0
O1292 O 0.05342 0.51074 0.54052 0.0
O1293 O 0.06504 0.50116 0.57323 0.0
O1294 O 0.08249 0.54135 0.53317 0.0
O1295 O 0.05083 0.52686 0.50536 0.0
H1296 H 0.96691 0.46244 0.50791 0.0
H1297 H 0.92764 0.4524 0.50521 0.0
H1298 H 0.92513 0.5264 0.5022 0.0
H1299 H 0.96465 0.53653 0.50493 0.0
H1300 H 0.11862 0.5779 0.55407 0.0
H1301 H 0.15601 0.59475 0.55087 0.0
H1302 H 0.17785 0.58051 0.62286 0.0
H1303 H 0.14018 0.56446 0.62627 0.0
Tb1304 Tb 0.77212 0.78507 0.29685 0.0
Tb1305 Tb 0.81859 0.7762 0.30588 0.0
C1306 C 0.73237 0.78363 0.29854 0.0
C1307 C 0.71606 0.78248 0.31504 0.0
C1308 C 0.71758 0.77083 0.33557 0.0
C1309 C 0.70068 0.76818 0.34925 0.0
C1310 C 0.68172 0.77682 0.34254 0.0
C1311 C 0.68057 0.7888 0.32223 0.0
C1312 C 0.69745 0.7916 0.30877 0.0
C1313 C 0.80338 0.81816 0.287 0.0
C1314 C 0.80147 0.7981 0.35091 0.0
C1315 C 0.85827 0.77814 0.30382 0.0
C1316 C 0.87409 0.78054 0.28668 0.0
C1317 C 0.89025 0.80168 0.2897 0.0
C1318 C 0.90674 0.80359 0.27566 0.0
C1319 C 0.9077 0.78437 0.25812 0.0
C1320 C 0.89116 0.76339 0.25471 0.0
C1321 C 0.87465 0.76148 0.2688 0.0
C1322 C 0.78776 0.74315 0.31625 0.0
C1323 C 0.78943 0.76343 0.25182 0.0
O1324 O 0.74054 0.76471 0.29425 0.0
O1325 O 0.74691 0.80361 0.30041 0.0
O1326 O 0.80435 0.80631 0.30421 0.0
O1327 O 0.78347 0.81309 0.2752 0.0
O1328 O 0.78189 0.79316 0.33688 0.0
O1329 O 0.81899 0.79469 0.34212 0.0
O1330 O 0.85028 0.79689 0.30977 0.0
O1331 O 0.84374 0.75803 0.30132 0.0
O1332 O 0.78634 0.75484 0.29888 0.0
O1333 O 0.80784 0.7483 0.32758 0.0
O1334 O 0.80895 0.76849 0.26592 0.0
O1335 O 0.7718 0.76663 0.26052 0.0
H1336 H 0.73162 0.76338 0.34078 0.0
H1337 H 0.70218 0.75874 0.36465 0.0
H1338 H 0.6665 0.79606 0.31664 0.0
H1339 H 0.69573 0.80054 0.29302 0.0
H1340 H 0.8905 0.81665 0.30345 0.0
H1341 H 0.91917 0.81996 0.27918 0.0
H1342 H 0.89097 0.74831 0.24115 0.0
H1343 H 0.86254 0.74489 0.26591 0.0
Tb1344 Tb 0.80218 0.27235 0.78023 0.0
Tb1345 Tb 0.78789 0.29309 0.81933 0.0
C1346 C 0.80991 0.26258 0.73832 0.0
C1347 C 0.80385 0.27347 0.71672 0.0
C1348 C 0.782 0.27391 0.70856 0.0
C1349 C 0.77648 0.28651 0.68992 0.0
C1350 C 0.79264 0.29919 0.67915 0.0
C1351 C 0.81447 0.29835 0.68695 0.0
C1352 C 0.82001 0.28555 0.70557 0.0
C1353 C 0.82674 0.26764 0.82137 0.0
C1354 C 0.81812 0.33048 0.79623 0.0
C1355 C 0.7757 0.30732 0.8579 0.0
C1356 C 0.77194 0.29884 0.88047 0.0
C1357 C 0.76674 0.27428 0.88165 0.0
C1358 C 0.76754 0.26655 0.90411 0.0
C1359 C 0.77378 0.28333 0.92552 0.0
C1360 C 0.77723 0.30789 0.92417 0.0
C1361 C 0.77627 0.3156 0.90169 0.0
C1362 C 0.76469 0.29786 0.77722 0.0
C1363 C 0.77325 0.23502 0.80514 0.0
O1364 O 0.79383 0.25032 0.74642 0.0
O1365 O 0.8241 0.27658 0.75586 0.0
O1366 O 0.81954 0.28597 0.81697 0.0
O1367 O 0.8209 0.25187 0.80199 0.0
O1368 O 0.81361 0.31203 0.77808 0.0
O1369 O 0.81113 0.32628 0.81651 0.0
O1370 O 0.79592 0.31124 0.85496 0.0
O1371 O 0.7624 0.2962 0.83817 0.0
O1372 O 0.77083 0.27933 0.78261 0.0
O1373 O 0.77191 0.31447 0.7957 0.0
O1374 O 0.77777 0.25374 0.823 0.0
O1375 O 0.77957 0.23896 0.78439 0.0
H1376 H 0.7691 0.26496 0.71687 0.0
H1377 H 0.75948 0.28639 0.68402 0.0
H1378 H 0.82731 0.3081 0.67911 0.0
H1379 H 0.83696 0.28567 0.71174 0.0
H1380 H 0.76337 0.2611 0.8654 0.0
H1381 H 0.76509 0.2475 0.90475 0.0
H1382 H 0.78205 0.32107 0.94049 0.0
H1383 H 0.78028 0.33464 0.90095 0.0
Tb1384 Tb 0.77598 0.76731 0.78758 0.0
Tb1385 Tb 0.81799 0.80075 0.81141 0.0
C1386 C 0.73691 0.74503 0.77888 0.0
C1387 C 0.71639 0.75226 0.78159 0.0
C1388 C 0.70045 0.73705 0.79045 0.0
C1389 C 0.6819 0.74466 0.79565 0.0
C1390 C 0.67905 0.76769 0.7922 0.0
C1391 C 0.69473 0.78261 0.7826 0.0
C1392 C 0.71321 0.77495 0.7773 0.0
C1393 C 0.79855 0.78887 0.7574 0.0
C1394 C 0.77581 0.82532 0.80681 0.0
C1395 C 0.85566 0.8227 0.80999 0.0
C1396 C 0.87604 0.81411 0.80983 0.0
C1397 C 0.87574 0.792 0.79593 0.0
C1398 C 0.89485 0.78416 0.79449 0.0
C1399 C 0.9149 0.79842 0.80646 0.0
C1400 C 0.91537 0.82053 0.82051 0.0
C1401 C 0.89602 0.82824 0.82231 0.0
C1402 C 0.80228 0.77716 0.84523 0.0
C1403 C 0.81781 0.74244 0.79545 0.0
O1404 O 0.75013 0.7459 0.79919 0.0
O1405 O 0.74709 0.75378 0.76242 0.0
O1406 O 0.79586 0.79767 0.77811 0.0
O1407 O 0.78824 0.76653 0.75304 0.0
O1408 O 0.76477 0.80261 0.79763 0.0
O1409 O 0.79754 0.82897 0.81372 0.0
O1410 O 0.84072 0.81385 0.79075 0.0
O1411 O 0.84761 0.82321 0.83009 0.0
O1412 O 0.79418 0.77538 0.82298 0.0
O1413 O 0.81963 0.79426 0.84935 0.0
O1414 O 0.82883 0.76525 0.80303 0.0
O1415 O 0.79611 0.73873 0.78907 0.0
H1416 H 0.70267 0.71955 0.79403 0.0
H1417 H 0.67019 0.73287 0.80325 0.0
H1418 H 0.69282 0.80032 0.77949 0.0
H1419 H 0.72523 0.78702 0.77038 0.0
H1420 H 0.86082 0.78095 0.78538 0.0
H1421 H 0.89399 0.76732 0.78309 0.0
H1422 H 0.93068 0.83189 0.82988 0.0
H1423 H 0.89671 0.84542 0.83298 0.0
Tb1424 Tb 0.52629 0.51578 0.53676 0.0
Tb1425 Tb 0.56283 0.54648 0.56928 0.0
C1426 C 0.48794 0.49669 0.51648 0.0
C1427 C 0.46903 0.50793 0.51369 0.0
C1428 C 0.4551 0.50558 0.53075 0.0
C1429 C 0.44449 0.52386 0.53674 0.0
C1430 C 0.44725 0.54407 0.52514 0.0
C1431 C 0.4576 0.54415 0.50499 0.0
C1432 C 0.46853 0.52611 0.49924 0.0
C1433 C 0.56145 0.5236 0.51641 0.0
C1434 C 0.53368 0.57332 0.53845 0.0
C1435 C 0.60089 0.5639 0.59145 0.0
C1436 C 0.61696 0.55121 0.60217 0.0
C1437 C 0.63681 0.55365 0.59394 0.0
C1438 C 0.64788 0.53502 0.59399 0.0
C1439 C 0.63919 0.51383 0.60237 0.0
C1440 C 0.6214 0.51322 0.61433 0.0
C1441 C 0.61028 0.53184 0.61422 0.0
C1442 C 0.52744 0.53889 0.5894 0.0
C1443 C 0.55622 0.48869 0.56609 0.0
O1444 O 0.49583 0.49568 0.53897 0.0
O1445 O 0.50337 0.50406 0.50452 0.0
O1446 O 0.55508 0.5385 0.53048 0.0
O1447 O 0.54761 0.50324 0.5134 0.0
O1448 O 0.51944 0.55231 0.53407 0.0
O1449 O 0.55328 0.57504 0.55102 0.0
O1450 O 0.59568 0.55832 0.56787 0.0
O1451 O 0.58378 0.56418 0.60158 0.0
O1452 O 0.53401 0.52377 0.57569 0.0
O1453 O 0.54096 0.55941 0.59165 0.0
O1454 O 0.56868 0.51034 0.57435 0.0
O1455 O 0.53795 0.48609 0.55067 0.0
H1456 H 0.45481 0.49142 0.54176 0.0
H1457 H 0.43632 0.52352 0.55222 0.0
H1458 H 0.45936 0.55949 0.49553 0.0
H1459 H 0.47863 0.5281 0.48552 0.0
H1460 H 0.64229 0.56848 0.58466 0.0
H1461 H 0.66165 0.53606 0.58474 0.0
H1462 H 0.61484 0.49731 0.6215 0.0
H1463 H 0.59515 0.52967 0.62105 0.0
Tb1464 Tb 0.06785 0.53616 0.04107 0.0
Tb1465 Tb 0.02209 0.52932 0.05752 0.0
C1466 C 0.10728 0.53493 0.04012 0.0
C1467 C 0.12418 0.52111 0.04739 0.0
C1468 C 0.11915 0.49612 0.04689 0.0
C1469 C 0.13573 0.48337 0.05151 0.0
C1470 C 0.15789 0.49522 0.05678 0.0
C1471 C 0.16271 0.52033 0.05771 0.0
C1472 C 0.14616 0.533 0.0531 0.0
C1473 C 0.03623 0.54214 1.00413 0.0
C1474 C 0.03686 0.48363 0.035 0.0
C1475 C 0.98291 0.53082 0.05951 0.0
C1476 C 0.96606 0.54502 0.05331 0.0
C1477 C 0.94442 0.5329 0.04442 0.0
C1478 C 0.92766 0.54549 0.04111 0.0
C1479 C 0.93195 0.57072 0.04661 0.0
C1480 C 0.95381 0.58291 0.05482 0.0
C1481 C 0.97059 0.57025 0.05821 0.0
C1482 C 0.05398 0.52368 0.09433 0.0
C1483 C 0.05271 0.58176 0.06311 0.0
O1484 O 0.10103 0.54809 0.05721 0.0
O1485 O 0.09101 0.52418 0.02278 0.0
O1486 O 0.03479 0.53682 0.02533 0.0
O1487 O 0.05704 0.54547 1.00431 0.0
O1488 O 0.05676 0.49711 0.03769 0.0
O1489 O 0.02009 0.49271 0.03986 0.0
O1490 O 0.98875 0.51799 0.04182 0.0
O1491 O 0.99943 0.54096 0.0768 0.0
O1492 O 0.05513 0.52884 0.07309 0.0
O1493 O 0.03322 0.52022 0.09438 0.0
O1494 O 0.03283 0.56824 0.06008 0.0
O1495 O 0.06968 0.57275 0.05885 0.0
H1496 H 0.1024 0.48637 0.04256 0.0
H1497 H 0.13114 0.46416 0.0509 0.0
H1498 H 0.1794 0.53027 0.06124 0.0
H1499 H 0.15062 0.55219 0.05339 0.0
H1500 H 0.94033 0.51351 0.04055 0.0
H1501 H 0.91124 0.53535 0.0343 0.0
H1502 H 0.9579 0.60225 0.05941 0.0
H1503 H 0.98705 0.58022 0.06524 0.0
C1504 C 0.03634 0.19885 0.97813 0.0
C1505 C 0.01571 0.20064 0.96673 0.0
C1506 C 0.03969 0.17837 0.98853 0.0
C1507 C 0.02173 0.15948 0.98925 0.0
C1508 C 1.00074 0.16142 0.97769 0.0
C1509 C 0.99816 0.18154 0.96622 0.0
C1510 C 0.06281 0.17731 0.9982 0.0
C1511 C 0.98062 0.14239 0.97695 0.0
C1512 C 0.02432 0.09492 1.00055 0.0
C1513 C 0.03033 0.09754 0.02585 0.0
C1514 C 0.02213 0.11471 0.98846 0.0
C1515 C 0.02488 0.13804 1.00192 0.0
C1516 C 0.03092 0.14068 0.02766 0.0
C1517 C 0.03405 0.12067 0.0391 0.0
C1518 C 0.01724 0.11015 0.96112 0.0
C1519 C 0.03437 0.16462 0.0436 0.0
H1520 H 0.05014 0.2133 0.97837 0.0
H1521 H 0.98212 0.18261 0.95743 0.0
H1522 H 0.06868 0.18988 0.01549 0.0
H1523 H 0.0647 0.15911 1.00123 0.0
H1524 H 0.07353 0.18344 0.98538 0.0
H1525 H 0.96667 0.15069 0.97956 0.0
H1526 H 0.97625 0.13124 0.95874 0.0
H1527 H 0.98275 0.13057 0.99073 0.0
H1528 H 0.02208 0.07733 0.98993 0.0
H1529 H 0.03903 0.12311 0.05861 0.0
H1530 H 0.02181 0.12659 0.95302 0.0
H1531 H 0.99961 0.10253 0.95499 0.0
H1532 H 0.02595 0.09666 0.95397 0.0
H1533 H 0.05183 0.17349 0.04677 0.0
H1534 H 0.03006 0.16234 0.06163 0.0
H1535 H 0.02474 0.17664 0.03539 0.0
C1536 C 0.15725 0.80223 0.17969 0.0
C1537 C 0.14024 0.80522 0.19219 0.0
C1538 C 0.17797 0.80107 0.1921 0.0
C1539 C 0.1819 0.80247 0.21772 0.0
C1540 C 0.16479 0.80559 0.2304 0.0
C1541 C 0.14439 0.8071 0.21759 0.0
C1542 C 0.19568 0.79826 0.17774 0.0
C1543 C 0.16791 0.80694 0.25759 0.0
C1544 C 0.22865 0.77788 0.25019 0.0
C1545 C 0.24401 0.79897 0.26071 0.0
C1546 C 0.20862 0.77868 0.23584 0.0
C1547 C 0.20386 0.80105 0.23142 0.0
C1548 C 0.2198 0.82227 0.24119 0.0
C1549 C 0.23943 0.82098 0.25581 0.0
C1550 C 0.19219 0.75557 0.22616 0.0
C1551 C 0.21591 0.84651 0.2367 0.0
H1552 H 0.15435 0.80065 0.1601 0.0
H1553 H 0.13144 0.80916 0.22755 0.0
H1554 H 0.21011 0.8131 0.18451 0.0
H1555 H 0.20088 0.78129 0.1802 0.0
H1556 H 0.19036 0.79813 0.15807 0.0
H1557 H 0.15298 0.80892 0.2648 0.0
H1558 H 0.17269 0.7905 0.26282 0.0
H1559 H 0.18125 0.82236 0.26638 0.0
H1560 H 0.2319 0.76079 0.25395 0.0
H1561 H 0.25118 0.83738 0.26377 0.0
H1562 H 0.1872 0.75397 0.20626 0.0
H1563 H 0.1774 0.7556 0.23429 0.0
H1564 H 0.19858 0.7396 0.23022 0.0
H1565 H 0.21111 0.8465 0.21699 0.0
H1566 H 0.23049 0.86109 0.24385 0.0
H1567 H 0.20232 0.8505 0.2455 0.0
C1568 C 0.51886 0.83854 0.48735 0.0
C1569 C 0.51734 0.83585 0.46202 0.0
C1570 C 0.52124 0.86137 0.50142 0.0
C1571 C 0.52212 0.88214 0.49003 0.0
C1572 C 0.52055 0.87947 0.46453 0.0
C1573 C 0.51823 0.85662 0.451 0.0
C1574 C 0.52287 0.86328 0.52852 0.0
C1575 C 0.52144 0.90087 0.4514 0.0
C1576 C 0.5107 0.94131 0.51904 0.0
C1577 C 0.5317 0.95591 0.52598 0.0
C1578 C 0.50735 0.91702 0.50835 0.0
C1579 C 0.52537 0.90685 0.50446 0.0
C1580 C 0.54659 0.92125 0.51233 0.0
C1581 C 0.54947 0.94541 0.52287 0.0
C1582 C 0.48442 0.9025 0.5003 0.0
C1583 C 0.56636 0.91143 0.50871 0.0
H1584 H 0.51811 0.82282 0.49621 0.0
H1585 H 0.51705 0.85513 0.43152 0.0
H1586 H 0.5386 0.87509 0.53774 0.0
H1587 H 0.50981 0.87161 0.53433 0.0
H1588 H 0.52157 0.84555 0.53469 0.0
H1589 H 0.51955 0.89581 0.43146 0.0
H1590 H 0.50841 0.91025 0.45524 0.0
H1591 H 0.53718 0.91381 0.458 0.0
H1592 H 0.4968 0.94904 0.52126 0.0
H1593 H 0.56583 0.95624 0.52823 0.0
H1594 H 0.48269 0.88512 0.50718 0.0
H1595 H 0.48068 0.89846 0.48022 0.0
H1596 H 0.47228 0.91207 0.50664 0.0
H1597 H 0.56567 0.89429 0.51593 0.0
H1598 H 0.58175 0.92412 0.51769 0.0
H1599 H 0.56666 0.90761 0.48905 0.0
C1600 C 0.49363 0.2796 0.66609 0.0
C1601 C 0.51554 0.28928 0.67665 0.0
C1602 C 0.4769 0.27813 0.67991 0.0
C1603 C 0.48187 0.28682 0.70512 0.0
C1604 C 0.50389 0.29689 0.71594 0.0
C1605 C 0.52041 0.29786 0.70168 0.0
C1606 C 0.45384 0.26695 0.66749 0.0
C1607 C 0.51 0.30662 0.74266 0.0
C1608 C 0.43467 0.30033 0.73559 0.0
C1609 C 0.42906 0.27997 0.74666 0.0
C1610 C 0.45202 0.30304 0.72254 0.0
C1611 C 0.46403 0.28483 0.72006 0.0
C1612 C 0.45836 0.26419 0.73108 0.0
C1613 C 0.44114 0.26209 0.74427 0.0
C1614 C 0.45752 0.32545 0.71138 0.0
C1615 C 0.47031 0.24409 0.72867 0.0
H1616 H 0.48944 0.27277 0.64685 0.0
H1617 H 0.53715 0.30544 0.71017 0.0
H1618 H 0.44735 0.25125 0.67587 0.0
H1619 H 0.44332 0.27997 0.66991 0.0
H1620 H 0.45259 0.26098 0.64778 0.0
H1621 H 0.52765 0.31458 0.74827 0.0
H1622 H 0.50079 0.32051 0.74729 0.0
H1623 H 0.50554 0.29207 0.75335 0.0
H1624 H 0.4257 0.31441 0.73751 0.0
H1625 H 0.43687 0.24615 0.75245 0.0
H1626 H 0.45533 0.32073 0.6914 0.0
H1627 H 0.47482 0.33442 0.718 0.0
H1628 H 0.44724 0.33836 0.71565 0.0
H1629 H 0.46857 0.23657 0.70925 0.0
H1630 H 0.46421 0.22939 0.73857 0.0
H1631 H 0.48791 0.25102 0.73572 0.0
C1632 C 0.0791 0.84486 0.71469 0.0
C1633 C 0.06959 0.82127 0.70342 0.0
C1634 C 0.07733 0.8643 0.70229 0.0
C1635 C 0.06609 0.8599 0.67805 0.0
C1636 C 0.05571 0.83627 0.66699 0.0
C1637 C 0.05745 0.81731 0.67985 0.0
C1638 C 0.08818 0.88938 0.71476 0.0
C1639 C 0.04365 0.83079 0.64108 0.0
C1640 C 0.04735 0.9053 0.64174 0.0
C1641 C 0.06308 0.9085 0.62684 0.0
C1642 C 0.04902 0.89101 0.66004 0.0
C1643 C 0.06661 0.87939 0.66315 0.0
C1644 C 0.08319 0.88372 0.64916 0.0
C1645 C 0.0813 0.89838 0.63131 0.0
C1646 C 0.03125 0.88714 0.67494 0.0
C1647 C 0.10218 0.87155 0.65186 0.0
H1648 H 0.08836 0.84812 0.73296 0.0
H1649 H 0.04984 0.79923 0.67098 0.0
H1650 H 0.10267 0.89602 0.70683 0.0
H1651 H 0.07703 0.90175 0.7119 0.0
H1652 H 0.09345 0.89012 0.73455 0.0
H1653 H 0.03568 0.81153 0.63557 0.0
H1654 H 0.03104 0.84152 0.63862 0.0
H1655 H 0.05513 0.83578 0.62868 0.0
H1656 H 0.03323 0.91308 0.63843 0.0
H1657 H 0.09384 0.90139 0.62035 0.0
H1658 H 0.03822 0.88791 0.69431 0.0
H1659 H 0.02062 0.86909 0.66854 0.0
H1660 H 0.02104 0.90066 0.67348 0.0
H1661 H 0.10993 0.87389 0.67117 0.0
H1662 H 0.11468 0.8786 0.64128 0.0
H1663 H 0.0963 0.85202 0.64546 0.0
C1664 C 0.45556 0.80006 0.8614 0.0
C1665 C 0.46821 0.80871 0.88436 0.0
C1666 C 0.43317 0.7993 0.8573 0.0
C1667 C 0.42314 0.80621 0.87699 0.0
C1668 C 0.43592 0.81499 0.90023 0.0
C1669 C 0.45836 0.81626 0.90359 0.0
C1670 C 0.42016 0.79043 0.83208 0.0
C1671 C 0.42575 0.82194 0.92176 0.0
C1672 C 0.36653 0.81715 0.86022 0.0
C1673 C 0.35382 0.79398 0.85819 0.0
C1674 C 0.38912 0.82175 0.86745 0.0
C1675 C 0.39913 0.80286 0.87339 0.0
C1676 C 0.38611 0.78001 0.87374 0.0
C1677 C 0.36359 0.77572 0.86573 0.0
C1678 C 0.40221 0.84622 0.86624 0.0
C1679 C 0.39607 0.75966 0.88108 0.0
H1680 H 0.46304 0.79314 0.84685 0.0
H1681 H 0.46816 0.82238 0.92152 0.0
H1682 H 0.40835 0.77347 0.83189 0.0
H1683 H 0.41071 0.80372 0.82644 0.0
H1684 H 0.43062 0.78717 0.81853 0.0
H1685 H 0.43808 0.82922 0.93844 0.0
H1686 H 0.41613 0.83557 0.91793 0.0
H1687 H 0.4144 0.80602 0.92523 0.0
H1688 H 0.35914 0.83131 0.85414 0.0
H1689 H 0.35378 0.7578 0.86424 0.0
H1690 H 0.4078 0.84564 0.84857 0.0
H1691 H 0.41671 0.85164 0.88084 0.0
H1692 H 0.39236 0.8601 0.86748 0.0
H1693 H 0.40449 0.75312 0.86666 0.0
H1694 H 0.38364 0.74438 0.88404 0.0
H1695 H 0.40835 0.76586 0.89794 0.0
C1696 C 0.54585 0.19305 0.13541 0.0
C1697 C 0.53728 0.18792 0.15606 0.0
C1698 C 0.54636 0.17479 0.11697 0.0
C1699 C 0.53857 0.1507 0.11951 0.0
C1700 C 0.52919 0.14535 0.13997 0.0
C1701 C 0.52888 0.16413 0.15825 0.0
C1702 C 0.55613 0.18125 0.09527 0.0
C1703 C 0.52012 0.11982 0.14286 0.0
C1704 C 0.53024 0.10429 0.06327 0.0
C1705 C 0.54908 0.09525 0.06738 0.0
C1706 C 0.52626 0.12186 0.08039 0.0
C1707 C 0.54189 0.13122 0.10166 0.0
C1708 C 0.5613 0.12262 0.1055 0.0
C1709 C 0.56448 0.10441 0.08843 0.0
C1710 C 0.50523 0.1301 0.07561 0.0
C1711 C 0.5785 0.13237 0.12782 0.0
H1712 H 0.55303 0.21142 0.13412 0.0
H1713 H 0.52249 0.16023 0.1744 0.0
H1714 H 0.57053 0.17329 0.09425 0.0
H1715 H 0.54417 0.17375 0.07838 0.0
H1716 H 0.56117 0.20093 0.09594 0.0
H1717 H 0.51171 0.11881 0.15867 0.0
H1718 H 0.5085 0.11041 0.12626 0.0
H1719 H 0.53348 0.11005 0.14527 0.0
H1720 H 0.51798 0.09667 0.04729 0.0
H1721 H 0.57881 0.09701 0.09178 0.0
H1722 H 0.49892 0.13397 0.09259 0.0
H1723 H 0.49254 0.11657 0.06267 0.0
H1724 H 0.50818 0.14672 0.06748 0.0
H1725 H 0.58418 0.15201 0.12889 0.0
H1726 H 0.59275 0.12391 0.12792 0.0
H1727 H 0.57155 0.1293 0.14432 0.0
C1728 C 0.08427 0.32481 0.3376 0.0
C1729 C 0.07989 0.31603 0.35888 0.0
C1730 C 0.10101 0.31874 0.3262 0.0
C1731 C 0.11371 0.30359 0.33633 0.0
C1732 C 0.1099 0.29537 0.35823 0.0
C1733 C 0.09305 0.30165 0.3692 0.0
C1734 C 0.10473 0.32798 0.30297 0.0
C1735 C 0.12337 0.27955 0.36986 0.0
C1736 C 0.1416 0.26577 0.29671 0.0
C1737 C 0.16313 0.27884 0.30232 0.0
C1738 C 0.12523 0.27401 0.30714 0.0
C1739 C 0.13062 0.29567 0.32379 0.0
C1740 C 0.15234 0.30902 0.32936 0.0
C1741 C 0.16831 0.30049 0.31844 0.0
C1742 C 0.10226 0.25926 0.30075 0.0
C1743 C 0.15883 0.33214 0.34707 0.0
H1744 H 0.07421 0.33589 0.32942 0.0
H1745 H 0.08997 0.29488 0.38571 0.0
H1746 H 0.12184 0.33778 0.30489 0.0
H1747 H 0.10192 0.31271 0.28802 0.0
H1748 H 0.09387 0.34013 0.29779 0.0
H1749 H 0.11881 0.27533 0.38732 0.0
H1750 H 0.12133 0.26249 0.35742 0.0
H1751 H 0.14085 0.28845 0.3732 0.0
H1752 H 0.1376 0.24902 0.28425 0.0
H1753 H 0.18504 0.31034 0.32317 0.0
H1754 H 0.09097 0.27045 0.29417 0.0
H1755 H 0.09714 0.25284 0.31716 0.0
H1756 H 0.10056 0.24349 0.28661 0.0
H1757 H 0.15157 0.33027 0.36358 0.0
H1758 H 0.1527 0.34643 0.33851 0.0
H1759 H 0.17673 0.33799 0.35266 0.0
C1760 C 0.95359 1.00608 0.19219 0.0
C1761 C 0.96744 1.00613 0.2141 0.0
C1762 C 0.96187 1.01102 0.17097 0.0
C1763 C 0.98464 0.01603 0.17131 0.0
C1764 C 0.99865 0.01572 0.19329 0.0
C1765 C 0.98995 1.01093 0.21426 0.0
C1766 C 0.9462 1.01126 0.14821 0.0
C1767 C 0.02297 0.02069 0.19476 0.0
C1768 C 1.00756 1.01018 0.11189 0.0
C1769 C 0.01399 0.0342 0.10865 0.0
C1770 C 0.99775 1.00399 0.13182 0.0
C1771 C 0.99391 0.02215 0.14903 0.0
C1772 C 0.99975 0.04636 0.14534 0.0
C1773 C 1.00975 0.05205 0.12543 0.0
C1774 C 0.99208 0.97798 0.13485 0.0
C1775 C 0.99588 0.06643 0.16281 0.0
H1776 H 0.9362 1.00251 0.19169 0.0
H1777 H 1.00092 1.01104 0.23092 0.0
H1778 H 0.9494 0.02929 0.14275 0.0
H1779 H 0.94862 0.99838 0.13313 0.0
H1780 H 0.92899 1.00658 0.1506 0.0
H1781 H 0.03168 0.01902 0.21282 0.0
H1782 H 0.02727 1.00807 0.18077 0.0
H1783 H 0.02884 0.03907 0.19099 0.0
H1784 H 1.01082 0.99618 0.09923 0.0
H1785 H 0.01461 0.07065 0.12321 0.0
H1786 H 0.97469 0.97274 0.13627 0.0
H1787 H 1.00173 0.97525 0.15194 0.0
H1788 H 0.99528 0.96589 0.11956 0.0
H1789 H 0.97858 0.063 0.1649 0.0
H1790 H 1.00013 0.08413 0.15679 0.0
H1791 H 1.00575 0.06724 0.18094 0.0
C1792 C 0.35373 0.7148 0.51258 0.0
C1793 C 0.35459 0.72112 0.5375 0.0
C1794 C 0.34713 0.72949 0.49628 0.0
C1795 C 0.34105 0.75078 0.50522 0.0
C1796 C 0.34381 0.75834 0.53045 0.0
C1797 C 0.3507 0.74343 0.54638 0.0
C1798 C 0.3449 0.7212 0.46943 0.0
C1799 C 0.33761 0.78104 0.54057 0.0
C1800 C 0.32826 0.79036 0.45889 0.0
C1801 C 0.30595 0.78109 0.45103 0.0
C1802 C 0.33994 0.7814 0.47736 0.0
C1803 C 0.32886 0.76295 0.48816 0.0
C1804 C 0.30608 0.75451 0.48118 0.0
C1805 C 0.2949 0.7636 0.46247 0.0
C1806 C 0.36423 0.79057 0.48413 0.0
C1807 C 0.2937 0.73504 0.4926 0.0
H1808 H 0.3571 0.69776 0.50568 0.0
H1809 H 0.35144 0.74849 0.56566 0.0
H1810 H 0.32742 0.71508 0.46125 0.0
H1811 H 0.35183 0.73616 0.46033 0.0
H1812 H 0.35309 0.70616 0.46564 0.0
H1813 H 0.344 0.78634 0.5603 0.0
H1814 H 0.34372 0.79603 0.53107 0.0
H1815 H 0.31964 0.77822 0.53765 0.0
H1816 H 0.33679 0.8037 0.44969 0.0
H1817 H 0.27762 0.75657 0.45629 0.0
H1818 H 0.37249 0.77699 0.4763 0.0
H1819 H 0.36956 0.79356 0.50408 0.0
H1820 H 0.36969 0.80755 0.47717 0.0
H1821 H 0.29884 0.718 0.4878 0.0
H1822 H 0.27586 0.73198 0.48651 0.0
H1823 H 0.29737 0.73973 0.51265 0.0
C1824 C 0.64625 0.02783 0.71934 0.0
C1825 C 0.63828 1.01144 0.7344 0.0
C1826 C 0.63397 0.03023 0.69644 0.0
C1827 C 0.61292 0.01526 0.68668 0.0
C1828 C 0.60519 0.99806 0.7015 0.0
C1829 C 0.61741 0.99682 0.7248 0.0
C1830 C 0.64367 0.04942 0.68293 0.0
C1831 C 0.58374 0.98046 0.69309 0.0
C1832 C 0.56642 0.0307 0.64033 0.0
C1833 C 0.57033 0.02326 0.61684 0.0
C1834 C 0.58023 0.02908 0.66236 0.0
C1835 C 0.59869 0.01843 0.6622 0.0
C1836 C 0.60282 1.01078 0.63839 0.0
C1837 C 0.58911 0.01362 0.61649 0.0
C1838 C 0.57466 0.03901 0.68601 0.0
C1839 C 0.62161 0.99906 0.63545 0.0
H1840 H 0.66207 0.03961 0.72588 0.0
H1841 H 0.61048 0.98395 0.73552 0.0
H1842 H 0.65117 0.0412 0.6685 0.0
H1843 H 0.63107 0.05806 0.67424 0.0
H1844 H 0.65652 0.06348 0.69507 0.0
H1845 H 0.58487 0.9627 0.69831 0.0
H1846 H 0.57125 0.98683 0.70228 0.0
H1847 H 0.57821 0.97805 0.6732 0.0
H1848 H 0.55223 0.03818 0.64165 0.0
H1849 H 0.59276 1.00736 0.59901 0.0
H1850 H 0.58944 0.04657 0.69996 0.0
H1851 H 0.56432 0.02444 0.69285 0.0
H1852 H 0.56537 0.05325 0.68362 0.0
H1853 H 0.63517 1.0125 0.6316 0.0
H1854 H 0.61697 0.98437 0.6197 0.0
H1855 H 0.62752 0.99168 0.65181 0.0
C1856 C 0.31668 0.35065 0.99532 0.0
C1857 C 0.31942 0.37569 0.99734 0.0
C1858 C 0.31433 0.33609 0.97254 0.0
C1859 C 0.31468 0.34667 0.95111 0.0
C1860 C 0.31724 0.37185 0.95306 0.0
C1861 C 0.31956 0.38591 0.97592 0.0
C1862 C 0.31166 0.30936 0.97142 0.0
C1863 C 0.31764 0.3841 0.93092 0.0
C1864 C 0.32838 0.31575 0.89293 0.0
C1865 C 0.30785 0.3078 0.87797 0.0
C1866 C 0.33077 0.32757 0.91697 0.0
C1867 C 0.31223 0.33168 0.92654 0.0
C1868 C 0.29143 0.32306 0.91177 0.0
C1869 C 0.28951 0.31131 0.88785 0.0
C1870 C 0.35328 0.33635 0.9319 0.0
C1871 C 0.27116 0.32695 0.92096 0.0
H1872 H 0.31663 0.34241 0.01156 0.0
H1873 H 0.32165 0.40515 0.97693 0.0
H1874 H 0.29626 0.29996 0.9592 0.0
H1875 H 0.32509 0.30341 0.96372 0.0
H1876 H 0.31153 0.30377 0.98954 0.0
H1877 H 0.31969 0.40382 0.93539 0.0
H1878 H 0.33114 0.38036 0.92182 0.0
H1879 H 0.30231 0.3769 0.91772 0.0
H1880 H 0.34271 0.31321 0.8857 0.0
H1881 H 0.2735 0.30527 0.8767 0.0
H1882 H 0.35398 0.33001 0.94971 0.0
H1883 H 0.35725 0.35623 0.93549 0.0
H1884 H 0.36588 0.33021 0.92268 0.0
H1885 H 0.27057 0.32038 0.93855 0.0
H1886 H 0.25611 0.31774 0.908 0.0
H1887 H 0.27142 0.34641 0.92414 0.0
C1888 C 0.95787 1.00105 0.37506 0.0
C1889 C 0.96715 1.00526 0.35444 0.0
C1890 C 0.97052 1.00487 0.39839 0.0
C1891 C 0.9933 0.0133 0.40172 0.0
C1892 C 1.00295 0.01739 0.38107 0.0
C1893 C 0.98982 0.01325 0.3577 0.0
C1894 C 0.95935 0.99997 0.4196 0.0
C1895 C 0.02715 0.02645 0.38373 0.0
C1896 C 0.01937 0.04168 0.46716 0.0
C1897 C 0.02634 0.02246 0.47669 0.0
C1898 C 1.00969 0.03941 0.44255 0.0
C1899 C 1.00667 0.01733 0.42687 0.0
C1900 C 0.01438 0.99817 0.43619 0.0
C1901 C 0.0241 1.00097 0.4608 0.0
C1902 C 1.00195 0.06045 0.43356 0.0
C1903 C 1.01149 0.97426 0.42039 0.0
H1904 H 0.94045 0.99479 0.37307 0.0
H1905 H 0.99726 0.01674 0.3421 0.0
H1906 H 0.9661 0.98648 0.42895 0.0
H1907 H 0.96239 0.01659 0.43295 0.0
H1908 H 0.94151 0.99326 0.414 0.0
H1909 H 0.03228 0.02849 0.36602 0.0
H1910 H 0.03222 0.04405 0.39573 0.0
H1911 H 0.03587 0.01394 0.39243 0.0
H1912 H 0.0211 0.05846 0.47905 0.0
H1913 H 0.02942 0.98595 0.46773 0.0
H1914 H 0.98394 0.05628 0.42936 0.0
H1915 H 1.00788 0.06387 0.41655 0.0
H1916 H 1.00749 0.07706 0.44712 0.0
H1917 H 0.99395 0.96566 0.41546 0.0
H1918 H 0.0201 0.96191 0.42958 0.0
H1919 H 0.01756 0.97673 0.40327 0.0
C1920 C 0.35541 0.70546 0.68612 0.0
C1921 C 0.37002 0.71671 0.67272 0.0
C1922 C 0.35127 0.71808 0.70708 0.0
C1923 C 0.36244 0.74222 0.71491 0.0
C1924 C 0.37933 0.75245 0.70331 0.0
C1925 C 0.38274 0.73963 0.68204 0.0
C1926 C 0.33322 0.70648 0.7191 0.0
C1927 C 0.3923 0.77773 0.71187 0.0
C1928 C 0.32797 0.78307 0.73855 0.0
C1929 C 0.33327 0.78343 0.76346 0.0
C1930 C 0.33776 0.77001 0.72255 0.0
C1931 C 0.35367 0.75778 0.73193 0.0
C1932 C 0.35993 0.75929 0.75724 0.0
C1933 C 0.34936 0.77185 0.77275 0.0
C1934 C 0.33033 0.76841 0.6956 0.0
C1935 C 0.37751 0.74742 0.76787 0.0
H1936 H 0.34563 0.68767 0.67898 0.0
H1937 H 0.39434 0.74818 0.67186 0.0
H1938 H 0.33801 0.71036 0.73909 0.0
H1939 H 0.31869 0.71399 0.71415 0.0
H1940 H 0.32863 0.68674 0.71343 0.0
H1941 H 0.40769 0.78096 0.70462 0.0
H1942 H 0.38258 0.79053 0.70557 0.0
H1943 H 0.39617 0.78162 0.73196 0.0
H1944 H 0.31539 0.79195 0.73155 0.0
H1945 H 0.35354 0.77245 0.79219 0.0
H1946 H 0.32349 0.74942 0.68734 0.0
H1947 H 0.34433 0.77504 0.68691 0.0
H1948 H 0.31779 0.77895 0.69136 0.0
H1949 H 0.37354 0.728 0.76064 0.0
H1950 H 0.37992 0.7497 0.78798 0.0
H1951 H 0.39308 0.75523 0.76249 0.0
C1952 C 0.62832 1.00656 0.88009 0.0
C1953 C 0.64992 0.01989 0.88175 0.0
C1954 C 0.61624 1.00712 0.90007 0.0
C1955 C 0.62474 0.02239 0.92318 0.0
C1956 C 0.64634 0.03634 0.92454 0.0
C1957 C 0.65836 0.03441 0.90481 0.0
C1958 C 0.59417 0.99058 0.89592 0.0
C1959 C 0.65737 0.05399 0.94696 0.0
C1960 C 0.58055 0.03507 0.96454 0.0
C1961 C 0.58724 0.02815 0.98734 0.0
C1962 C 0.59233 0.03381 0.94447 0.0
C1963 C 0.61153 0.02401 0.94536 0.0
C1964 C 0.618 0.01634 0.96825 0.0
C1965 C 0.60647 0.01899 0.98844 0.0
C1966 C 0.58379 0.0435 0.92225 0.0
C1967 C 0.63716 1.00466 0.97197 0.0
H1968 H 0.62081 0.99491 0.86318 0.0
H1969 H 0.67475 0.04509 0.90755 0.0
H1970 H 0.58857 0.98711 0.91308 0.0
H1971 H 0.58225 0.99864 0.88516 0.0
H1972 H 0.59433 0.97315 0.88517 0.0
H1973 H 0.66767 0.06998 0.94212 0.0
H1974 H 0.64564 0.06009 0.95759 0.0
H1975 H 0.66826 0.04548 0.9586 0.0
H1976 H 0.56598 0.04219 0.96235 0.0
H1977 H 0.6124 0.01305 1.00516 0.0
H1978 H 0.57055 0.02949 0.9107 0.0
H1979 H 0.59653 0.04902 0.91145 0.0
H1980 H 0.57672 0.05917 0.92734 0.0
H1981 H 0.63351 0.98939 0.98206 0.0
H1982 H 0.65122 0.01781 0.98328 0.0
H1983 H 0.64183 0.99796 0.9547 0.0
C1984 C 0.33517 0.376 0.15811 0.0
C1985 C 0.31999 0.36909 0.13634 0.0
C1986 C 0.33285 0.36416 0.17853 0.0
C1987 C 0.31443 0.34543 0.17782 0.0
C1988 C 0.29875 0.33894 0.15607 0.0
C1989 C 0.30194 0.3504 0.13564 0.0
C1990 C 0.35048 0.3713 0.20072 0.0
C1991 C 0.27844 0.31987 0.15435 0.0
C1992 C 0.31429 0.29754 0.22034 0.0
C1993 C 0.30457 0.30654 0.23919 0.0
C1994 C 0.31829 0.31033 0.20095 0.0
C1995 C 0.31164 0.33238 0.1995 0.0
C1996 C 0.30168 0.34145 0.2185 0.0
C1997 C 0.29869 0.32875 0.23819 0.0
C1998 C 0.32967 0.30013 0.18191 0.0
C1999 C 0.29348 0.36424 0.21765 0.0
H2000 H 0.34931 0.39019 0.15892 0.0
H2001 H 0.29 0.34489 0.11907 0.0
H2002 H 0.34371 0.37762 0.21666 0.0
H2003 H 0.35709 0.35549 0.20482 0.0
H2004 H 0.36403 0.3857 0.19838 0.0
H2005 H 0.26701 0.3181 0.137 0.0
H2006 H 0.28277 0.30232 0.15588 0.0
H2007 H 0.26996 0.32411 0.16957 0.0
H2008 H 0.31896 0.28048 0.22087 0.0
H2009 H 0.29095 0.33584 0.25243 0.0
H2010 H 0.34365 0.31391 0.17945 0.0
H2011 H 0.31839 0.29494 0.16426 0.0
H2012 H 0.33566 0.28414 0.18668 0.0
H2013 H 0.30699 0.37935 0.21692 0.0
H2014 H 0.28597 0.36892 0.23359 0.0
H2015 H 0.28124 0.36226 0.20093 0.0
C2016 C 0.17834 0.93027 0.00983 0.0
C2017 C 0.19159 0.91543 0.01892 0.0
C2018 C 0.16806 0.94334 0.02521 0.0
C2019 C 0.17078 0.94108 0.05009 0.0
C2020 C 0.18136 0.92349 0.05853 0.0
C2021 C 0.19169 0.91079 0.04279 0.0
C2022 C 0.1563 0.96144 0.01534 0.0
C2023 C 0.18366 0.91983 0.0847 0.0
C2024 C 0.17489 1.00065 0.0887 0.0
C2025 C 0.15337 0.99901 0.09196 0.0
C2026 C 0.18115 0.98114 0.07652 0.0
C2027 C 0.16548 0.95957 0.06745 0.0
C2028 C 0.14415 0.9573 0.07224 0.0
C2029 C 0.13837 0.97707 0.08445 0.0
C2030 C 0.20407 0.98428 0.07158 0.0
C2031 C 0.1271 0.93451 0.06331 0.0
H2032 H 0.1777 0.93349 0.99125 0.0
H2033 H 0.20153 0.89899 0.04992 0.0
H2034 H 0.14034 0.95998 0.02124 0.0
H2035 H 0.16602 0.9798 0.02255 0.0
H2036 H 0.1536 0.95913 0.99522 0.0
H2037 H 0.18849 0.90267 0.08729 0.0
H2038 H 0.1963 0.93471 0.09595 0.0
H2039 H 0.16822 0.92003 0.09144 0.0
H2040 H 0.1865 0.0176 0.09449 0.0
H2041 H 0.12162 0.97589 0.08639 0.0
H2042 H 0.20375 0.98358 0.05181 0.0
H2043 H 0.21142 0.96946 0.07727 0.0
H2044 H 0.21461 1.00159 0.0811 0.0
H2045 H 0.12699 0.92774 0.04404 0.0
H2046 H 0.1106 0.93712 0.06511 0.0
H2047 H 0.13086 0.9205 0.07406 0.0
C2048 C 0.68659 0.64051 0.01379 0.0
C2049 C 0.70619 0.63319 0.02014 0.0
C2050 C 0.6664 0.6268 0.01686 0.0
C2051 C 0.66557 0.60538 0.02716 0.0
C2052 C 0.68535 0.59785 0.03336 0.0
C2053 C 0.70525 0.61183 0.03 0.0
C2054 C 0.64586 0.63517 1.00893 0.0
C2055 C 0.68556 0.57502 0.04382 0.0
C2056 C 0.61748 0.57939 0.05754 0.0
C2057 C 0.60636 0.55935 0.04043 0.0
C2058 C 0.63637 0.59485 0.05326 0.0
C2059 C 0.64416 0.5906 0.03111 0.0
C2060 C 0.63199 0.57117 0.01333 0.0
C2061 C 0.61375 0.55565 0.01841 0.0
C2062 C 0.64861 0.61506 0.07296 0.0
C2063 C 0.63869 0.5655 0.98925 0.0
H2064 H 0.68707 0.6571 1.00645 0.0
H2065 H 0.72026 0.60634 0.0358 0.0
H2066 H 0.63455 0.62106 0.99519 0.0
H2067 H 0.63757 0.63819 0.02458 0.0
H2068 H 0.64903 0.65199 1.00104 0.0
H2069 H 0.70224 0.57195 0.04853 0.0
H2070 H 0.67809 0.57554 0.06034 0.0
H2071 H 0.67569 0.55955 0.03049 0.0
H2072 H 0.61217 0.58221 0.0748 0.0
H2073 H 0.60542 0.54012 1.00511 0.0
H2074 H 0.65109 0.63223 0.06567 0.0
H2075 H 0.66493 0.61184 0.07956 0.0
H2076 H 0.64002 0.61692 0.08856 0.0
H2077 H 0.64828 0.58146 0.98366 0.0
H2078 H 0.62426 0.55778 0.97484 0.0
H2079 H 0.64858 0.55174 0.99071 0.0
C2080 C 0.68323 0.49045 0.35353 0.0
C2081 C 0.67223 0.4999 0.33483 0.0
C2082 C 0.69159 0.46996 0.34866 0.0
C2083 C 0.68891 0.45853 0.32443 0.0
C2084 C 0.67608 0.46663 0.30573 0.0
C2085 C 0.66785 0.48729 0.31115 0.0
C2086 C 0.70499 0.46193 0.36924 0.0
C2087 C 0.67254 0.45471 0.27972 0.0
C2088 C 0.7375 0.43325 0.31218 0.0
C2089 C 0.7307 0.40899 0.31411 0.0
C2090 C 0.72368 0.44924 0.31445 0.0
C2091 C 0.70235 0.44083 0.31857 0.0
C2092 C 0.69497 0.41613 0.31938 0.0
C2093 C 0.70927 0.40049 0.31722 0.0
C2094 C 0.73229 0.47542 0.31349 0.0
C2095 C 0.67233 0.40641 0.32356 0.0
H2096 H 0.68643 0.49995 0.37194 0.0
H2097 H 0.65941 0.4945 0.2966 0.0
H2098 H 0.70027 0.44224 0.36841 0.0
H2099 H 0.7224 0.46641 0.36764 0.0
H2100 H 0.70323 0.47071 0.38725 0.0
H2101 H 0.65915 0.46011 0.26823 0.0
H2102 H 0.68763 0.45985 0.2723 0.0
H2103 H 0.66879 0.43491 0.27846 0.0
H2104 H 0.75387 0.43986 0.30925 0.0
H2105 H 0.70391 0.3818 0.31885 0.0
H2106 H 0.73302 0.48624 0.33138 0.0
H2107 H 0.72122 0.48184 0.29994 0.0
H2108 H 0.7488 0.47883 0.30879 0.0
H2109 H 0.67116 0.41248 0.34263 0.0
H2110 H 0.668 0.38651 0.32006 0.0
H2111 H 0.66022 0.41335 0.31177 0.0
C2112 C 0.80243 0.41752 0.47051 0.0
C2113 C 0.78831 0.42649 0.48401 0.0
C2114 C 0.82358 0.43067 0.47168 0.0
C2115 C 0.83073 0.45312 0.48701 0.0
C2116 C 0.81609 0.46278 0.49968 0.0
C2117 C 0.7951 0.44911 0.49833 0.0
C2118 C 0.83872 0.41974 0.45789 0.0
C2119 C 0.82301 0.48676 0.51593 0.0
C2120 C 0.89008 0.46662 0.51576 0.0
C2121 C 0.89949 0.48197 0.50101 0.0
C2122 C 0.86761 0.45774 0.5118 0.0
C2123 C 0.85422 0.46446 0.49264 0.0
C2124 C 0.8635 0.48076 0.47831 0.0
C2125 C 0.88611 0.4894 0.4827 0.0
C2126 C 0.85832 0.44045 0.52758 0.0
C2127 C 0.84965 0.48844 0.45791 0.0
H2128 H 0.79714 0.39983 0.45971 0.0
H2129 H 0.78433 0.45564 0.50937 0.0
H2130 H 0.84745 0.43301 0.4481 0.0
H2131 H 0.85111 0.41438 0.47083 0.0
H2132 H 0.82996 0.40368 0.4446 0.0
H2133 H 0.80903 0.49288 0.52225 0.0
H2134 H 0.83481 0.48551 0.53204 0.0
H2135 H 0.83126 0.50051 0.50629 0.0
H2136 H 0.90041 0.46117 0.53016 0.0
H2137 H 0.89339 0.50118 0.47119 0.0
H2138 H 0.85068 0.42279 0.51633 0.0
H2139 H 0.84548 0.44704 0.53591 0.0
H2140 H 0.87089 0.4378 0.54228 0.0
H2141 H 0.8593 0.50175 0.44887 0.0
H2142 H 0.83692 0.49638 0.46498 0.0
H2143 H 0.84129 0.47262 0.44418 0.0
C2144 C 0.39092 0.13205 0.27666 0.0
C2145 C 0.38835 0.11573 0.2937 0.0
C2146 C 0.38047 0.15267 0.27603 0.0
C2147 C 0.36647 0.15858 0.29276 0.0
C2148 C 0.36417 0.14239 0.31004 0.0
C2149 C 0.37458 0.12206 0.31017 0.0
C2150 C 0.38437 0.16828 0.25696 0.0
C2151 C 0.35035 0.14649 0.3289 0.0
C2152 C 0.35233 0.22428 0.30608 0.0
C2153 C 0.33051 0.22221 0.29402 0.0
C2154 C 0.36379 0.20461 0.30571 0.0
C2155 C 0.3543 0.18093 0.29247 0.0
C2156 C 0.3324 0.17883 0.27999 0.0
C2157 C 0.32113 0.19866 0.28106 0.0
C2158 C 0.38644 0.20927 0.32012 0.0
C2159 C 0.32052 0.15512 0.26519 0.0
H2160 H 0.4009 0.12859 0.2633 0.0
H2161 H 0.37161 0.11069 0.32376 0.0
H2162 H 0.36861 0.16949 0.24633 0.0
H2163 H 0.39278 0.18671 0.26578 0.0
H2164 H 0.39438 0.16142 0.24439 0.0
H2165 H 0.35058 0.13357 0.34194 0.0
H2166 H 0.35611 0.16494 0.33912 0.0
H2167 H 0.3333 0.14485 0.31992 0.0
H2168 H 0.36064 0.24156 0.31643 0.0
H2169 H 0.30459 0.19553 0.27138 0.0
H2170 H 0.38733 0.19635 0.33309 0.0
H2171 H 0.39171 0.22775 0.3304 0.0
H2172 H 0.39797 0.20644 0.30775 0.0
H2173 H 0.33047 0.14898 0.25219 0.0
H2174 H 0.30449 0.15607 0.25496 0.0
H2175 H 0.31793 0.14142 0.27728 0.0
C2176 C 0.32494 0.12155 0.50604 0.0
C2177 C 0.31953 0.13772 0.52371 0.0
C2178 C 0.34404 0.11267 0.51018 0.0
C2179 C 0.35845 0.11985 0.53271 0.0
C2180 C 0.35353 0.13676 0.55044 0.0
C2181 C 0.33425 0.14553 0.54573 0.0
C2182 C 0.34843 0.09492 0.49056 0.0
C2183 C 0.36831 0.145 0.57472 0.0
C2184 C 0.39326 0.07501 0.54995 0.0
C2185 C 0.41326 0.08447 0.54339 0.0
C2186 C 0.37571 0.08669 0.54734 0.0
C2187 C 0.37789 0.10858 0.53788 0.0
C2188 C 0.39816 0.11856 0.53174 0.0
C2189 C 0.41551 0.1065 0.53458 0.0
C2190 C 0.35459 0.07527 0.55429 0.0
C2191 C 0.40137 0.14173 0.52149 0.0
H2192 H 0.31395 0.1154 0.48884 0.0
H2193 H 0.33034 0.15785 0.55964 0.0
H2194 H 0.36488 0.10116 0.48645 0.0
H2195 H 0.34804 0.07739 0.49693 0.0
H2196 H 0.33635 0.09214 0.47355 0.0
H2197 H 0.36321 0.15942 0.5859 0.0
H2198 H 0.36834 0.12964 0.58481 0.0
H2199 H 0.38525 0.15164 0.57224 0.0
H2200 H 0.39128 0.05835 0.55727 0.0
H2201 H 0.43069 0.11407 0.52926 0.0
H2202 H 0.34161 0.0702 0.53797 0.0
H2203 H 0.34952 0.08825 0.56723 0.0
H2204 H 0.35579 0.05899 0.56266 0.0
H2205 H 0.39073 0.13916 0.5035 0.0
H2206 H 0.41846 0.14817 0.51934 0.0
H2207 H 0.39661 0.15584 0.53342 0.0
C2208 C 0.70858 0.62349 0.33103 0.0
C2209 C 0.68969 0.62566 0.34021 0.0
C2210 C 0.72419 0.64374 0.32899 0.0
C2211 C 0.72065 0.66702 0.3355 0.0
C2212 C 0.70158 0.66941 0.34484 0.0
C2213 C 0.68627 0.64871 0.34694 0.0
C2214 C 0.74442 0.64019 0.31953 0.0
C2215 C 0.69736 0.69384 0.35248 0.0
C2216 C 0.77128 0.71775 0.34454 0.0
C2217 C 0.7698 0.72507 0.32173 0.0
C2218 C 0.75486 0.69998 0.34981 0.0
C2219 C 0.73664 0.6886 0.33163 0.0
C2220 C 0.73474 0.69659 0.30876 0.0
C2221 C 0.75128 0.7147 0.30412 0.0
C2222 C 0.75795 0.69312 0.37474 0.0
C2223 C 0.71554 0.68547 0.28887 0.0
H2224 H 0.71095 0.60579 0.32484 0.0
H2225 H 0.67156 0.65055 0.35371 0.0
H2226 H 0.74542 0.6483 0.30279 0.0
H2227 H 0.759 0.64942 0.33316 0.0
H2228 H 0.74488 0.62096 0.3154 0.0
H2229 H 0.68192 0.69281 0.35953 0.0
H2230 H 0.71094 0.7043 0.36678 0.0
H2231 H 0.69671 0.70384 0.33689 0.0
H2232 H 0.78541 0.72587 0.35838 0.0
H2233 H 0.75001 0.72024 0.28639 0.0
H2234 H 0.77093 0.6828 0.37608 0.0
H2235 H 0.74297 0.68236 0.37895 0.0
H2236 H 0.76363 0.70943 0.38866 0.0
H2237 H 0.71583 0.66646 0.28294 0.0
H2238 H 0.71553 0.69493 0.27288 0.0
H2239 H 0.70016 0.68567 0.29572 0.0
C2240 C 0.8669 0.47397 0.78156 0.0
C2241 C 0.88948 0.48229 0.79042 0.0
C2242 C 0.85533 0.44988 0.78207 0.0
C2243 C 0.86617 0.43228 0.79102 0.0
C2244 C 0.88907 0.44046 0.79946 0.0
C2245 C 0.90016 0.4647 0.79896 0.0
C2246 C 0.83121 0.44321 0.77281 0.0
C2247 C 0.9021 0.42339 0.80911 0.0
C2248 C 0.83409 0.37541 0.81368 0.0
C2249 C 0.83046 0.3563 0.79419 0.0
C2250 C 0.84537 0.39938 0.81285 0.0
C2251 C 0.85377 0.40585 0.79192 0.0
C2252 C 0.85027 0.38658 0.77211 0.0
C2253 C 0.83886 0.36258 0.77341 0.0
C2254 C 0.84773 0.41807 0.83461 0.0
C2255 C 0.85881 0.39127 0.74931 0.0
H2256 H 0.85812 0.48633 0.77377 0.0
H2257 H 0.91753 0.46995 0.80546 0.0
H2258 H 0.82744 0.42845 0.75722 0.0
H2259 H 0.82266 0.43653 0.78717 0.0
H2260 H 0.82474 0.45856 0.76698 0.0
H2261 H 0.9197 0.43172 0.81437 0.0
H2262 H 0.8961 0.41717 0.82519 0.0
H2263 H 0.89995 0.40733 0.79522 0.0
H2264 H 0.82795 0.37168 0.83 0.0
H2265 H 0.8366 0.34864 0.75796 0.0
H2266 H 0.83642 0.42989 0.83015 0.0
H2267 H 0.8645 0.42915 0.83916 0.0
H2268 H 0.84375 0.41016 0.85078 0.0
H2269 H 0.85139 0.40506 0.74129 0.0
H2270 H 0.85537 0.37485 0.73558 0.0
H2271 H 0.87663 0.39847 0.7537 0.0
C2272 C 0.07718 0.86391 0.10218 0.0
C2273 C 0.07151 0.85909 0.12444 0.0
C2274 C 0.0753 0.88551 0.09343 0.0
C2275 C 0.06726 0.90317 0.10708 0.0
C2276 C 0.06169 0.89849 0.1298 0.0
C2277 C 0.06402 0.87671 0.13824 0.0
C2278 C 0.08108 0.88826 0.06884 0.0
C2279 C 0.05191 0.91583 0.14453 0.0
C2280 C 0.07623 0.96823 0.09318 0.0
C2281 C 0.05729 0.96787 0.07658 0.0
C2282 C 0.07963 0.94753 0.10331 0.0
C2283 C 0.06365 0.92577 0.09712 0.0
C2284 C 0.04444 0.92539 0.08058 0.0
C2285 C 0.04158 0.94616 0.07055 0.0
C2286 C 0.10057 0.94871 0.12031 0.0
C2287 C 0.02686 0.90286 0.07328 0.0
H2288 H 0.08257 0.85037 0.09104 0.0
H2289 H 0.05883 0.87289 0.15503 0.0
H2290 H 0.07027 0.87378 0.05505 0.0
H2291 H 0.07967 0.90569 0.06315 0.0
H2292 H 0.09793 0.8859 0.06879 0.0
H2293 H 0.0492 0.91023 0.16215 0.0
H2294 H 0.06257 0.93401 0.14806 0.0
H2295 H 0.03609 0.91715 0.1341 0.0
H2296 H 0.08842 0.98474 0.09836 0.0
H2297 H 0.02676 0.94533 0.05796 0.0
H2298 H 0.11034 0.93756 0.1113 0.0
H2299 H 0.09735 0.94129 0.13693 0.0
H2300 H 0.11032 0.96724 0.12576 0.0
H2301 H 0.03306 0.88894 0.06273 0.0
H2302 H 1.01207 0.90587 0.06205 0.0
H2303 H 0.02231 0.89573 0.08963 0.0
C2304 C 0.94411 0.25329 0.8818 0.0
C2305 C 0.95171 0.26295 0.90631 0.0
C2306 C 0.92328 0.25453 0.8698 0.0
C2307 C 0.90881 0.26451 0.88281 0.0
C2308 C 0.91583 0.27245 0.90815 0.0
C2309 C 0.93716 0.272 0.91937 0.0
C2310 C 0.91681 0.24495 0.84307 0.0
C2311 C 0.90093 0.28142 0.92372 0.0
C2312 C 0.86161 0.28869 0.85004 0.0
C2313 C 0.8463 0.26757 0.8398 0.0
C2314 C 0.8815 0.28821 0.86478 0.0
C2315 C 0.8864 0.26596 0.86988 0.0
C2316 C 0.86987 0.24482 0.86134 0.0
C2317 C 0.8505 0.24583 0.84598 0.0
C2318 C 0.8968 0.31199 0.87449 0.0
C2319 C 0.87194 0.22081 0.86841 0.0
H2320 H 0.95455 0.24473 0.87191 0.0
H2321 H 0.94243 0.27869 0.93857 0.0
H2322 H 0.90463 0.22786 0.84024 0.0
H2323 H 0.9094 0.25777 0.83327 0.0
H2324 H 0.93082 0.24122 0.83492 0.0
H2325 H 0.90528 0.27853 0.94276 0.0
H2326 H 0.9026 0.30097 0.92387 0.0
H2327 H 0.88367 0.27245 0.91678 0.0
H2328 H 0.85844 0.30569 0.8458 0.0
H2329 H 0.83852 0.22939 0.83878 0.0
H2330 H 0.89946 0.32228 0.85943 0.0
H2331 H 0.91262 0.31042 0.88436 0.0
H2332 H 0.88915 0.32264 0.88705 0.0
H2333 H 0.87204 0.20811 0.85201 0.0
H2334 H 0.85744 0.21322 0.87594 0.0
H2335 H 0.88661 0.22165 0.88206 0.0
C2336 C 0.55741 0.21023 0.63529 0.0
C2337 C 0.56438 0.22987 0.62379 0.0
C2338 C 0.55585 0.18645 0.62425 0.0
C2339 C 0.56137 0.18189 0.60097 0.0
C2340 C 0.56827 0.2017 0.58917 0.0
C2341 C 0.5701 0.22536 0.60089 0.0
C2342 C 0.54857 0.16614 0.63775 0.0
C2343 C 0.57397 0.19792 0.56424 0.0
C2344 C 0.57597 0.12118 0.58246 0.0
C2345 C 0.55605 0.10731 0.56942 0.0
C2346 C 0.57805 0.14548 0.5925 0.0
C2347 C 0.5599 0.15644 0.58916 0.0
C2348 C 0.54 0.14258 0.57539 0.0
C2349 C 0.53832 0.11841 0.56584 0.0
C2350 C 0.5995 0.15919 0.60742 0.0
C2351 C 0.52034 0.15326 0.57061 0.0
H2352 H 0.55343 0.21352 0.65321 0.0
H2353 H 0.5765 0.24038 0.59234 0.0
H2354 H 0.5336 0.15395 0.62707 0.0
H2355 H 0.56124 0.15547 0.64015 0.0
H2356 H 0.54524 0.17259 0.65587 0.0
H2357 H 0.57854 0.21506 0.55723 0.0
H2358 H 0.5877 0.18867 0.56464 0.0
H2359 H 0.55995 0.18621 0.5514 0.0
H2360 H 0.58975 0.11283 0.58557 0.0
H2361 H 0.52289 0.10806 0.55558 0.0
H2362 H 0.5974 0.16453 0.62632 0.0
H2363 H 0.6052 0.17587 0.60015 0.0
H2364 H 0.61225 0.1485 0.60774 0.0
H2365 H 0.51709 0.1622 0.58779 0.0
H2366 H 0.50553 0.13968 0.56156 0.0
H2367 H 0.52363 0.16698 0.55873 0.0
C2368 C 0.57701 0.74944 0.41098 0.0
C2369 C 0.56849 0.77018 0.41271 0.0
C2370 C 0.59646 0.74902 0.40173 0.0
C2371 C 0.60787 0.7699 0.3943 0.0
C2372 C 0.59991 0.79118 0.39742 0.0
C2373 C 0.58038 0.79098 0.40629 0.0
C2374 C 0.60411 0.72585 0.39864 0.0
C2375 C 0.61145 0.81402 0.39025 0.0
C2376 C 0.66633 0.77693 0.38164 0.0
C2377 C 0.66297 0.77321 0.35615 0.0
C2378 C 0.64868 0.77519 0.39434 0.0
C2379 C 0.62697 0.76928 0.38139 0.0
C2380 C 0.62353 0.76461 0.35569 0.0
C2381 C 0.64142 0.76673 0.34349 0.0
C2382 C 0.6533 0.78056 0.42165 0.0
C2383 C 0.60084 0.75796 0.34093 0.0
H2384 H 0.56783 0.73317 0.41547 0.0
H2385 H 0.57396 0.8071 0.40749 0.0
H2386 H 0.60181 0.71877 0.37904 0.0
H2387 H 0.62171 0.7289 0.40608 0.0
H2388 H 0.59507 0.71205 0.40768 0.0
H2389 H 0.60446 0.82957 0.39596 0.0
H2390 H 0.62896 0.81814 0.3984 0.0
H2391 H 0.61026 0.81173 0.37027 0.0
H2392 H 0.68281 0.78205 0.39171 0.0
H2393 H 0.63848 0.76334 0.32385 0.0
H2394 H 0.64392 0.76591 0.42935 0.0
H2395 H 0.64801 0.79721 0.4277 0.0
H2396 H 0.67083 0.78293 0.42919 0.0
H2397 H 0.59101 0.74262 0.34727 0.0
H2398 H 0.60078 0.7531 0.32127 0.0
H2399 H 0.59275 0.77325 0.34343 0.0
C2400 C 0.04531 0.23822 0.42923 0.0
C2401 C 0.02865 0.2421 0.41204 0.0
C2402 C 0.04344 0.21655 0.43834 0.0
C2403 C 0.02425 0.19853 0.43034 0.0
C2404 C 1.00812 0.20162 0.41155 0.0
C2405 C 1.01059 0.22344 0.40246 0.0
C2406 C 0.06126 0.21377 0.45798 0.0
C2407 C 0.98748 0.18278 0.40251 0.0
C2408 C 0.02673 0.1409 0.45546 0.0
C2409 C 0.01936 0.14558 0.4774 0.0
C2410 C 0.02713 0.15726 0.43894 0.0
C2411 C 0.01986 0.17862 0.44449 0.0
C2412 C 1.01092 0.18255 0.46572 0.0
C2413 C 1.01094 0.16609 0.48198 0.0
C2414 C 0.03663 0.15238 0.41642 0.0
C2415 C 1.00274 0.205 0.47218 0.0
H2416 H 0.05944 0.25255 0.43635 0.0
H2417 H 0.9977 0.22645 0.38911 0.0
H2418 H 0.05552 0.21477 0.4756 0.0
H2419 H 0.06543 0.19604 0.45418 0.0
H2420 H 0.07621 0.22796 0.45982 0.0
H2421 H 0.97879 0.18568 0.38491 0.0
H2422 H 0.99092 0.16457 0.40038 0.0
H2423 H 0.97654 0.18347 0.41597 0.0
H2424 H 0.03281 0.12481 0.45152 0.0
H2425 H 1.00542 0.17004 0.49894 0.0
H2426 H 0.05328 0.16364 0.41902 0.0
H2427 H 0.02687 0.15715 0.4005 0.0
H2428 H 0.03761 0.1333 0.41239 0.0
H2429 H 0.01667 0.22066 0.47702 0.0
H2430 H 0.99401 0.204 0.48774 0.0
H2431 H 0.99164 0.20826 0.45644 0.0
C2432 C 0.63018 0.25353 0.24367 0.0
C2433 C 0.61965 0.24734 0.21944 0.0
C2434 C 0.6526 0.25517 0.24998 0.0
C2435 C 0.66473 0.2504 0.23159 0.0
C2436 C 0.65413 0.24374 0.20715 0.0
C2437 C 0.63171 0.24234 0.20135 0.0
C2438 C 0.66341 0.26248 0.27626 0.0
C2439 C 0.66654 0.23853 0.18709 0.0
C2440 C 0.72421 0.28084 0.24769 0.0
C2441 C 0.73361 0.26255 0.25595 0.0
C2442 C 0.70193 0.2768 0.23873 0.0
C2443 C 0.68869 0.25387 0.23791 0.0
C2444 C 0.69825 0.2349 0.24476 0.0
C2445 C 0.72068 0.23946 0.2537 0.0
C2446 C 0.6924 0.29748 0.23146 0.0
C2447 C 0.68461 0.21017 0.24397 0.0
H2448 H 0.62093 0.25735 0.25772 0.0
H2449 H 0.62365 0.2374 0.18258 0.0
H2450 H 0.67243 0.24893 0.2821 0.0
H2451 H 0.67539 0.27973 0.27853 0.0
H2452 H 0.65154 0.2646 0.28845 0.0
H2453 H 0.65569 0.23226 0.1692 0.0
H2454 H 0.67847 0.25495 0.18582 0.0
H2455 H 0.67584 0.22468 0.19117 0.0
H2456 H 0.73416 0.29869 0.24916 0.0
H2457 H 0.72783 0.22528 0.26012 0.0
H2458 H 0.68184 0.30227 0.24434 0.0
H2459 H 0.68212 0.2923 0.21318 0.0
H2460 H 0.70513 0.31364 0.23133 0.0
H2461 H 0.67416 0.21071 0.25797 0.0
H2462 H 0.69472 0.19684 0.24734 0.0
H2463 H 0.67371 0.20404 0.22613 0.0
C2464 C 0.54007 0.86422 0.95872 0.0
C2465 C 0.54338 0.87001 0.93592 0.0
C2466 C 0.54156 0.88214 0.97841 0.0
C2467 C 0.54698 0.90646 0.97543 0.0
C2468 C 0.5517 0.91248 0.95294 0.0
C2469 C 0.54957 0.89416 0.93332 0.0
C2470 C 0.53609 0.87501 1.00199 0.0
C2471 C 0.55814 0.93829 0.94931 0.0
C2472 C 0.52677 0.95333 0.01362 0.0
C2473 C 0.5453 0.96373 0.03098 0.0
C2474 C 0.52687 0.93405 0.99592 0.0
C2475 C 0.54621 0.92554 0.99529 0.0
C2476 C 0.56485 0.93567 0.01323 0.0
C2477 C 0.5641 0.95458 0.03103 0.0
C2478 C 0.50652 0.92334 0.97741 0.0
C2479 C 0.58588 0.92745 0.01284 0.0
H2480 H 0.53507 0.84563 0.96089 0.0
H2481 H 0.55223 0.89876 0.91581 0.0
H2482 H 0.54918 0.88422 0.01736 0.0
H2483 H 0.52099 0.88065 1.00534 0.0
H2484 H 0.53364 0.85536 1.00189 0.0
H2485 H 0.56351 0.93992 0.93165 0.0
H2486 H 0.54413 0.94697 0.94999 0.0
H2487 H 0.57148 0.94834 0.96408 0.0
H2488 H 0.51237 0.96068 0.0135 0.0
H2489 H 0.57863 0.96317 0.04413 0.0
H2490 H 0.50224 0.90362 0.9767 0.0
H2491 H 0.50939 0.9268 0.95915 0.0
H2492 H 0.49246 0.93088 0.98147 0.0
H2493 H 0.58311 0.90772 0.01196 0.0
H2494 H 0.59841 0.93605 0.02901 0.0
H2495 H 0.59232 0.93187 0.99637 0.0
C2496 C 0.0266 0.76281 0.78373 0.0
C2497 C 0.02483 0.75575 0.75871 0.0
C2498 C 1.0087 0.76748 0.79364 0.0
C2499 C 0.98862 0.76531 0.7781 0.0
C2500 C 0.98636 0.75673 0.75305 0.0
C2501 C 1.0045 0.75187 0.74365 0.0
C2502 C 1.01164 0.77608 0.82051 0.0
C2503 C 0.96519 0.7542 0.7359 0.0
C2504 C 0.93677 0.76688 0.80309 0.0
C2505 C 0.93512 0.79073 0.8024 0.0
C2506 C 0.95439 0.75843 0.79589 0.0
C2507 C 0.97064 0.7742 0.7876 0.0
C2508 C 0.96944 0.79852 0.78768 0.0
C2509 C 0.95173 0.80652 0.79519 0.0
C2510 C 0.95523 0.73248 0.79641 0.0
C2511 C 0.98644 0.8159 0.77892 0.0
H2512 H 0.04224 0.76559 0.7955 0.0
H2513 H 1.00306 0.74653 0.7243 0.0
H2514 H 1.0111 0.79533 0.82362 0.0
H2515 H 0.99825 0.76617 0.82826 0.0
H2516 H 0.02737 0.7739 0.83046 0.0
H2517 H 0.96553 0.74527 0.71742 0.0
H2518 H 0.95157 0.74377 0.74288 0.0
H2519 H 0.96179 0.77221 0.73455 0.0
H2520 H 0.92399 0.75468 0.80881 0.0
H2521 H 0.95036 0.82488 0.79433 0.0
H2522 H 0.97137 0.73106 0.80589 0.0
H2523 H 0.95293 0.72295 0.7776 0.0
H2524 H 0.9425 0.72321 0.80553 0.0
H2525 H 1.00279 0.81649 0.7893 0.0
H2526 H 0.98344 0.83434 0.78076 0.0
H2527 H 0.98664 0.80977 0.75958 0.0
C2528 C 0.14109 0.06159 0.92283 0.0
C2529 C 0.13054 0.0613 0.89893 0.0
C2530 C 0.12949 0.05643 0.94162 0.0
C2531 C 0.10648 0.05094 0.93693 0.0
C2532 C 0.0956 0.05115 0.91305 0.0
C2533 C 0.10768 0.0562 0.8944 0.0
C2534 C 0.142 0.05637 0.96653 0.0
C2535 C 0.07113 0.04569 0.90713 0.0
C2536 C 0.07786 0.0144 0.98018 0.0
C2537 C 0.0727 0.03213 0.99629 0.0
C2538 C 0.08855 0.02021 0.96079 0.0
C2539 C 0.09408 0.0444 0.95694 0.0
C2540 C 0.08878 0.06238 0.97311 0.0
C2541 C 0.07837 0.05609 0.99258 0.0
C2542 C 0.09407 1.00038 0.94447 0.0
C2543 C 0.09404 0.08835 0.9698 0.0
H2544 H 0.15868 0.06549 0.92696 0.0
H2545 H 0.09918 0.05584 0.8762 0.0
H2546 H 0.13737 0.06908 0.98016 0.0
H2547 H 0.13787 0.03829 0.97173 0.0
H2548 H 0.15986 0.06139 0.96746 0.0
H2549 H 0.06502 0.04773 0.88818 0.0
H2550 H 0.06457 0.02707 0.90975 0.0
H2551 H 0.06469 0.05776 0.91965 0.0
H2552 H 0.07349 0.99584 0.98274 0.0
H2553 H 0.07428 0.06998 1.00466 0.0
H2554 H 0.11192 1.00362 0.94532 0.0
H2555 H 0.08658 1.00019 0.92539 0.0
H2556 H 0.08843 0.98247 0.94953 0.0
H2557 H 0.11189 0.09477 0.97204 0.0
H2558 H 0.08782 0.10002 0.98298 0.0
H2559 H 0.08693 0.0903 0.95118 0.0
C2560 C 0.74136 0.34357 0.56164 0.0
C2561 C 0.75087 0.36699 0.55911 0.0
C2562 C 0.74788 0.33399 0.58244 0.0
C2563 C 0.76448 0.3481 0.60098 0.0
C2564 C 0.77369 0.37202 0.59888 0.0
C2565 C 0.76667 0.38125 0.57796 0.0
C2566 C 0.73747 0.30851 0.58424 0.0
C2567 C 0.79152 0.38751 0.61826 0.0
C2568 C 0.7704 0.32639 0.66174 0.0
C2569 C 0.78657 0.31319 0.65988 0.0
C2570 C 0.76336 0.33834 0.64293 0.0
C2571 C 0.77291 0.33729 0.62191 0.0
C2572 C 0.78977 0.32475 0.62029 0.0
C2573 C 0.79635 0.31275 0.63927 0.0
C2574 C 0.74528 0.35148 0.64525 0.0
C2575 C 0.80041 0.32337 0.59816 0.0
H2576 H 0.72902 0.33256 0.54716 0.0
H2577 H 0.77409 0.39936 0.57603 0.0
H2578 H 0.74978 0.2973 0.58432 0.0
H2579 H 0.73122 0.30786 0.6015 0.0
H2580 H 0.72385 0.30048 0.56895 0.0
H2581 H 0.79599 0.40618 0.61459 0.0
H2582 H 0.78644 0.38794 0.63622 0.0
H2583 H 0.80619 0.37976 0.61944 0.0
H2584 H 0.76309 0.3272 0.67786 0.0
H2585 H 0.8087 0.30242 0.63763 0.0
H2586 H 0.7309 0.34289 0.6311 0.0
H2587 H 0.7504 0.37028 0.6423 0.0
H2588 H 0.74032 0.35154 0.66329 0.0
H2589 H 0.7883 0.3134 0.58219 0.0
H2590 H 0.81425 0.31426 0.60044 0.0
H2591 H 0.80638 0.34162 0.59413 0.0
C2592 C 0.44743 0.06611 0.38656 0.0
C2593 C 0.45037 0.0555 0.36357 0.0
C2594 C 0.46054 0.06446 0.40919 0.0
C2595 C 0.47704 0.05076 0.41021 0.0
C2596 C 0.47991 0.0397 0.38708 0.0
C2597 C 0.4671 0.04244 0.36458 0.0
C2598 C 0.45659 0.0776 0.43228 0.0
C2599 C 0.4963 0.02415 0.38606 0.0
C2600 C 0.52568 0.06141 0.46596 0.0
C2601 C 0.51911 0.04449 0.48114 0.0
C2602 C 0.51228 0.06399 0.44395 0.0
C2603 C 0.4914 0.04859 0.435 0.0
C2604 C 0.48462 0.03128 0.45017 0.0
C2605 C 0.4981 0.0297 0.47275 0.0
C2606 C 0.52072 0.08353 0.43012 0.0
C2607 C 0.46315 0.0137 0.44215 0.0
H2608 H 0.43466 0.07603 0.38694 0.0
H2609 H 0.46967 0.03337 0.34764 0.0
H2610 H 0.44951 0.06452 0.44334 0.0
H2611 H 0.47217 0.0883 0.44321 0.0
H2612 H 0.44532 0.08976 0.42875 0.0
H2613 H 0.4958 0.01522 0.36735 0.0
H2614 H 0.51289 0.03513 0.3931 0.0
H2615 H 0.49325 1.01021 0.39783 0.0
H2616 H 0.54171 0.07299 0.47139 0.0
H2617 H 0.49245 0.01606 0.48333 0.0
H2618 H 0.50833 0.09429 0.42608 0.0
H2619 H 0.52395 0.07549 0.41255 0.0
H2620 H 0.53596 0.09571 0.44028 0.0
H2621 H 0.44971 0.02336 0.44192 0.0
H2622 H 0.46073 0.99996 0.45425 0.0
H2623 H 0.46206 1.00455 0.42339 0.0
C2624 C 0.7831 0.72457 0.10724 0.0
C2625 C 0.77682 0.69956 0.10037 0.0
C2626 C 0.78542 0.73543 0.13161 0.0
C2627 C 0.78152 0.72105 0.14986 0.0
C2628 C 0.77549 0.69577 0.14306 0.0
C2629 C 0.77313 0.6854 0.11854 0.0
C2630 C 0.79177 0.76239 0.13778 0.0
C2631 C 0.77134 0.67961 0.16174 0.0
C2632 C 0.80547 0.74739 0.2165 0.0
C2633 C 0.78743 0.75321 0.22554 0.0
C2634 C 0.8038 0.73704 0.1921 0.0
C2635 C 0.78362 0.7324 0.17595 0.0
C2636 C 0.76541 0.73848 0.18487 0.0
C2637 C 0.7675 0.74866 0.20942 0.0
C2638 C 0.82367 0.73085 0.18366 0.0
C2639 C 0.74361 0.73411 0.16843 0.0
H2640 H 0.78592 0.73578 0.09347 0.0
H2641 H 0.76826 0.6661 0.11357 0.0
H2642 H 0.77889 0.76922 0.14582 0.0
H2643 H 0.80689 0.76782 0.15156 0.0
H2644 H 0.7944 0.77109 0.12167 0.0
H2645 H 0.76727 0.66034 0.15375 0.0
H2646 H 0.7859 0.68292 0.17621 0.0
H2647 H 0.75774 0.6837 0.17046 0.0
H2648 H 0.82099 0.75067 0.22859 0.0
H2649 H 0.75341 0.75303 0.21599 0.0
H2650 H 0.82734 0.74032 0.16832 0.0
H2651 H 0.82053 0.71135 0.17695 0.0
H2652 H 0.8382 0.73568 0.19832 0.0
H2653 H 0.74513 0.74361 0.15263 0.0
H2654 H 0.73112 0.74022 0.17788 0.0
H2655 H 0.73787 0.71472 0.16131 0.0
C2656 C 0.1362 0.05599 0.73879 0.0
C2657 C 0.12264 0.05374 0.75621 0.0
C2658 C 0.12761 0.05254 0.71375 0.0
C2659 C 0.10479 0.04673 0.70561 0.0
C2660 C 0.091 0.04424 0.72309 0.0
C2661 C 0.10004 0.04773 0.74805 0.0
C2662 C 0.14303 0.05533 0.69596 0.0
C2663 C 0.06662 0.03811 0.71544 0.0
C2664 C 0.08258 0.06118 0.64331 0.0
C2665 C 0.07804 0.03877 0.62834 0.0
C2666 C 0.09115 0.06395 0.6683 0.0
C2667 C 0.09541 0.04387 0.67893 0.0
C2668 C 0.09085 0.02119 0.66393 0.0
C2669 C 0.08228 0.01893 0.63897 0.0
C2670 C 0.09566 0.08847 0.68339 0.0
C2671 C 0.09505 0.99923 0.67425 0.0
H2672 H 0.15366 0.06058 0.74473 0.0
H2673 H 0.08934 0.04592 0.76122 0.0
H2674 H 0.13982 0.0387 0.68258 0.0
H2675 H 0.14035 0.07006 0.68572 0.0
H2676 H 0.16032 0.05931 0.70503 0.0
H2677 H 0.05808 0.03628 0.73108 0.0
H2678 H 0.06132 0.05227 0.70588 0.0
H2679 H 0.06152 0.02107 0.70252 0.0
H2680 H 0.07941 0.0767 0.63552 0.0
H2681 H 0.07885 1.00148 0.62778 0.0
H2682 H 0.11312 0.09403 0.69168 0.0
H2683 H 0.08629 0.08792 0.69842 0.0
H2684 H 0.09135 0.10227 0.67256 0.0
H2685 H 0.11256 1.00192 0.682 0.0
H2686 H 0.09032 0.98281 0.66039 0.0
H2687 H 0.08589 0.99633 0.68923 0.0
C2688 C 0.71252 0.33682 0.4249 0.0
C2689 C 0.71704 0.36128 0.42289 0.0
C2690 C 0.71714 0.31985 0.40762 0.0
C2691 C 0.72711 0.32772 0.38846 0.0
C2692 C 0.72886 0.35177 0.38454 0.0
C2693 C 0.72317 0.3682 0.40154 0.0
C2694 C 0.71334 0.29393 0.41118 0.0
C2695 C 0.73886 0.36073 0.36389 0.0
C2696 C 0.77233 0.29779 0.37317 0.0
C2697 C 0.76334 0.28551 0.34993 0.0
C2698 C 0.76054 0.31153 0.38592 0.0
C2699 C 0.73899 0.3121 0.3754 0.0
C2700 C 0.7295 0.29856 0.35235 0.0
C2701 C 0.74203 0.28589 0.33963 0.0
C2702 C 0.77152 0.32632 0.41015 0.0
C2703 C 0.70648 0.29793 0.34057 0.0
H2704 H 0.70696 0.33116 0.44094 0.0
H2705 H 0.72567 0.38686 0.39923 0.0
H2706 H 0.70701 0.28196 0.39355 0.0
H2707 H 0.72894 0.28973 0.41897 0.0
H2708 H 0.7017 0.28995 0.42369 0.0
H2709 H 0.73813 0.37969 0.36277 0.0
H2710 H 0.75614 0.3593 0.36625 0.0
H2711 H 0.73039 0.34953 0.34645 0.0
H2712 H 0.78899 0.29775 0.38075 0.0
H2713 H 0.73523 0.27644 0.32144 0.0
H2714 H 0.76243 0.32074 0.4245 0.0
H2715 H 0.77152 0.34552 0.40959 0.0
H2716 H 0.78857 0.32453 0.41532 0.0
H2717 H 0.69595 0.30078 0.35412 0.0
H2718 H 0.6992 0.28054 0.32859 0.0
H2719 H 0.70656 0.31221 0.32906 0.0
C2720 C 0.47136 0.06146 0.21766 0.0
C2721 C 0.45033 0.04778 0.21826 0.0
C2722 C 0.48244 0.05942 0.19704 0.0
C2723 C 0.47344 0.04229 0.17534 0.0
C2724 C 0.45224 0.02818 0.17598 0.0
C2725 C 0.44117 0.03133 0.19654 0.0
C2726 C 0.50409 0.07631 0.19899 0.0
C2727 C 0.44083 1.00912 0.15484 0.0
C2728 C 0.49101 0.04251 0.10938 0.0
C2729 C 0.5101 0.03303 0.11075 0.0
C2730 C 0.47957 0.04598 0.12956 0.0
C2731 C 0.48603 0.03899 0.15278 0.0
C2732 C 0.50509 0.02893 0.154 0.0
C2733 C 0.51674 0.02672 0.13388 0.0
C2734 C 0.46053 0.05779 0.12549 0.0
C2735 C 0.51367 0.02011 0.17678 0.0
H2736 H 0.47941 0.07438 0.23357 0.0
H2737 H 0.42523 0.02014 0.19569 0.0
H2738 H 0.51682 0.0693 0.20972 0.0
H2739 H 0.50854 0.07859 0.18104 0.0
H2740 H 0.50401 0.09422 0.2088 0.0
H2741 H 0.42975 0.99443 0.16075 0.0
H2742 H 0.43082 0.01717 0.14171 0.0
H2743 H 0.45249 1.00132 0.14539 0.0
H2744 H 0.48511 0.04804 0.09241 0.0
H2745 H 0.53122 0.01945 0.13635 0.0
H2746 H 0.45645 0.06567 0.14267 0.0
H2747 H 0.44616 0.04429 0.11527 0.0
H2748 H 0.4639 0.07218 0.11427 0.0
H2749 H 0.52645 0.03467 0.18826 0.0
H2750 H 0.52127 1.00469 0.17246 0.0
H2751 H 0.50077 0.01457 0.18738 0.0
C2752 C 0.76737 0.71549 0.9608 0.0
C2753 C 0.76887 0.69128 0.95844 0.0
C2754 C 0.77121 0.72948 0.94214 0.0
C2755 C 0.7773 0.71944 0.92056 0.0
C2756 C 0.77894 0.69506 0.9182 0.0
C2757 C 0.77451 0.68138 0.9368 0.0
C2758 C 0.76875 0.75512 0.94556 0.0
C2759 C 0.78591 0.68344 0.89614 0.0
C2760 C 0.77379 0.7488 0.86204 0.0
C2761 C 0.79508 0.76217 0.86398 0.0
C2762 C 0.76762 0.73533 0.88039 0.0
C2763 C 0.78314 0.7346 0.90112 0.0
C2764 C 0.80468 0.74793 0.90291 0.0
C2765 C 0.81022 0.76162 0.88469 0.0
C2766 C 0.74437 0.72198 0.87765 0.0
C2767 C 0.82212 0.74749 0.92401 0.0
H2768 H 0.76291 0.7235 0.97715 0.0
H2769 H 0.77592 0.66282 0.93453 0.0
H2770 H 0.78467 0.76736 0.94639 0.0
H2771 H 0.7575 0.7582 0.92984 0.0
H2772 H 0.76247 0.75991 0.96239 0.0
H2773 H 0.7863 0.66433 0.89678 0.0
H2774 H 0.77468 0.68451 0.87949 0.0
H2775 H 0.80234 0.6932 0.89461 0.0
H2776 H 0.76182 0.7492 0.84644 0.0
H2777 H 0.82676 0.77172 0.88652 0.0
H2778 H 0.73754 0.72767 0.8938 0.0
H2779 H 0.74364 0.70248 0.87661 0.0
H2780 H 0.734 0.72503 0.86119 0.0
H2781 H 0.8175 0.7543 0.94127 0.0
H2782 H 0.83816 0.75848 0.92271 0.0
H2783 H 0.82381 0.72878 0.92485 0.0
C2784 C 0.91491 0.17498 0.04691 0.0
C2785 C 0.90783 0.1694 0.06823 0.0
C2786 C 0.92865 0.16213 0.03654 0.0
C2787 C 0.93453 0.14301 0.04747 0.0
C2788 C 0.93056 0.14036 0.07109 0.0
C2789 C 0.91748 0.15409 0.0815 0.0
C2790 C 0.93461 0.16694 0.01251 0.0
C2791 C 0.93726 0.12066 0.08375 0.0
C2792 C 0.92725 0.08349 1.00736 0.0
C2793 C 0.94869 0.0808 1.00883 0.0
C2794 C 0.92258 0.10428 0.01899 0.0
C2795 C 0.93983 0.12278 0.03241 0.0
C2796 C 0.96155 0.12063 0.03299 0.0
C2797 C 0.96574 0.09968 0.02106 0.0
C2798 C 0.89909 0.10577 0.01811 0.0
C2799 C 0.98044 0.13999 0.04661 0.0
H2800 H 0.90756 0.18712 0.03685 0.0
H2801 H 0.912 0.14995 0.09808 0.0
H2802 H 0.95225 0.16794 0.01323 0.0
H2803 H 0.92571 0.15198 0.99801 0.0
H2804 H 0.93072 0.18392 1.00763 0.0
H2805 H 0.93585 0.12325 0.10321 0.0
H2806 H 0.92664 0.10318 0.07487 0.0
H2807 H 0.95426 0.11977 0.08234 0.0
H2808 H 0.91411 0.06887 0.99796 0.0
H2809 H 0.98237 0.09757 0.02246 0.0
H2810 H 0.89615 0.12211 0.01083 0.0
H2811 H 0.89534 0.10709 0.0367 0.0
H2812 H 0.88767 0.08993 1.00669 0.0
H2813 H 0.97622 0.15083 0.06208 0.0
H2814 H 0.98587 0.15225 0.03399 0.0
H2815 H 0.99423 0.13213 0.05365 0.0
C2816 C 0.40201 0.41691 0.06519 0.0
C2817 C 0.38729 0.42982 0.07356 0.0
C2818 C 0.4239 0.42809 0.06521 0.0
C2819 C 0.43141 0.45323 0.07291 0.0
C2820 C 0.41671 0.46609 0.08226 0.0
C2821 C 0.39526 0.45414 0.08311 0.0
C2822 C 0.43882 0.41266 0.05694 0.0
C2823 C 0.42355 0.49262 0.09156 0.0
C2824 C 0.4902 0.49063 0.09191 0.0
C2825 C 0.49594 0.49552 0.06973 0.0
C2826 C 0.47015 0.47552 0.09308 0.0
C2827 C 0.45443 0.46611 0.07159 0.0
C2828 C 0.4608 0.4702 0.04899 0.0
C2829 C 0.48141 0.4845 0.0484 0.0
C2830 C 0.46654 0.46952 0.11764 0.0
C2831 C 0.44632 0.45989 0.0249 0.0
H2832 H 0.39643 0.39787 0.05863 0.0
H2833 H 0.38461 0.46394 0.09124 0.0
H2834 H 0.4377 0.41144 0.03703 0.0
H2835 H 0.456 0.42007 0.06572 0.0
H2836 H 0.43393 0.39414 0.0609 0.0
H2837 H 0.40951 0.50059 0.09456 0.0
H2838 H 0.43468 0.49576 0.10921 0.0
H2839 H 0.43228 0.50213 0.07875 0.0
H2840 H 0.50155 0.49852 0.10855 0.0
H2841 H 0.48573 0.48787 0.03109 0.0
H2842 H 0.45121 0.45636 0.11707 0.0
H2843 H 0.46675 0.48618 0.12993 0.0
H2844 H 0.48024 0.46208 0.12581 0.0
H2845 H 0.42987 0.45065 0.02646 0.0
H2846 H 0.45388 0.44688 0.01491 0.0
H2847 H 0.44508 0.47431 0.01374 0.0
C2848 C 0.43095 0.58815 0.80763 0.0
C2849 C 0.43232 0.57283 0.78692 0.0
C2850 C 0.4215 0.60807 0.80577 0.0
C2851 C 0.41293 0.61259 0.78258 0.0
C2852 C 0.41646 0.5987 0.7616 0.0
C2853 C 0.42619 0.57894 0.76403 0.0
C2854 C 0.41844 0.62248 0.82867 0.0
C2855 C 0.40782 0.60298 0.73653 0.0
C2856 C 0.35967 0.63322 0.78 0.0
C2857 C 0.36612 0.65796 0.78001 0.0
C2858 C 0.37468 0.61835 0.78018 0.0
C2859 C 0.39688 0.62835 0.7805 0.0
C2860 C 0.40354 0.65325 0.78021 0.0
C2861 C 0.3881 0.66777 0.78002 0.0
C2862 C 0.36678 0.59191 0.78058 0.0
C2863 C 0.42699 0.66457 0.78041 0.0
H2864 H 0.43552 0.58331 0.82535 0.0
H2865 H 0.42688 0.5669 0.74797 0.0
H2866 H 0.42167 0.64188 0.82748 0.0
H2867 H 0.40134 0.61703 0.83119 0.0
H2868 H 0.42923 0.6196 0.84491 0.0
H2869 H 0.41566 0.59438 0.72261 0.0
H2870 H 0.39008 0.5953 0.73203 0.0
H2871 H 0.41033 0.62243 0.73562 0.0
H2872 H 0.34286 0.62548 0.78043 0.0
H2873 H 0.39321 0.6868 0.77974 0.0
H2874 H 0.37467 0.58703 0.79759 0.0
H2875 H 0.37131 0.58113 0.76527 0.0
H2876 H 0.34889 0.5868 0.77935 0.0
H2877 H 0.43713 0.66289 0.79761 0.0
H2878 H 0.42934 0.68385 0.77859 0.0
H2879 H 0.433 0.65506 0.76543 0.0
C2880 C 0.29668 0.6364 0.59097 0.0
C2881 C 0.3013 0.65965 0.58542 0.0
C2882 C 0.27516 0.62376 0.58866 0.0
C2883 C 0.25794 0.63502 0.58134 0.0
C2884 C 0.26258 0.65838 0.57524 0.0
C2885 C 0.28428 0.6705 0.57752 0.0
C2886 C 0.27089 0.5988 0.59508 0.0
C2887 C 0.24467 0.67098 0.56738 0.0
C2888 C 0.20056 0.59693 0.5637 0.0
C2889 C 0.19253 0.60066 0.5853 0.0
C2890 C 0.22169 0.60825 0.56199 0.0
C2891 C 0.23526 0.62333 0.58246 0.0
C2892 C 0.22725 0.62716 0.60433 0.0
C2893 C 0.20596 0.61586 0.60545 0.0
C2894 C 0.22953 0.60382 0.53835 0.0
C2895 C 0.24115 0.64327 0.62655 0.0
H2896 H 0.30991 0.6284 0.59789 0.0
H2897 H 0.28798 0.68867 0.57359 0.0
H2898 H 0.26328 0.59876 0.61149 0.0
H2899 H 0.25936 0.58627 0.58016 0.0
H2900 H 0.28601 0.59197 0.59865 0.0
H2901 H 0.25093 0.68815 0.56115 0.0
H2902 H 0.23239 0.65932 0.55249 0.0
H2903 H 0.23626 0.6748 0.58276 0.0
H2904 H 0.19037 0.58498 0.54814 0.0
H2905 H 0.19972 0.61923 0.62206 0.0
H2906 H 0.2365 0.62109 0.53283 0.0
H2907 H 0.21636 0.59346 0.52352 0.0
H2908 H 0.24251 0.59364 0.54082 0.0
H2909 H 0.25598 0.6365 0.63211 0.0
H2910 H 0.23242 0.64445 0.6421 0.0
H2911 H 0.24649 0.66159 0.62234 0.0
C2912 C 0.72023 0.94811 0.83621 0.0
C2913 C 0.7067 0.95433 0.81646 0.0
C2914 C 0.73042 0.92757 0.8347 0.0
C2915 C 0.72852 0.9116 0.81246 0.0
C2916 C 0.71496 0.91772 0.7923 0.0
C2917 C 0.70439 0.93814 0.79449 0.0
C2918 C 0.74347 0.92318 0.85759 0.0
C2919 C 0.71181 0.90269 0.76778 0.0
C2920 C 0.77439 0.87178 0.8099 0.0
C2921 C 0.7636 0.84734 0.80835 0.0
C2922 C 0.76354 0.89191 0.81051 0.0
C2923 C 0.74055 0.88918 0.81049 0.0
C2924 C 0.72962 0.8645 0.80924 0.0
C2925 C 0.7408 0.84464 0.80784 0.0
C2926 C 0.77735 0.91644 0.81109 0.0
C2927 C 0.70578 0.85828 0.81028 0.0
H2928 H 0.72302 0.95958 0.85357 0.0
H2929 H 0.69467 0.94175 0.77848 0.0
H2930 H 0.74189 0.90373 0.85814 0.0
H2931 H 0.76086 0.93132 0.85837 0.0
H2932 H 0.73838 0.93148 0.87398 0.0
H2933 H 0.70341 0.91069 0.75321 0.0
H2934 H 0.72777 0.90042 0.76342 0.0
H2935 H 0.702 0.8846 0.76806 0.0
H2936 H 0.79175 0.87543 0.81021 0.0
H2937 H 0.73135 0.82665 0.80689 0.0
H2938 H 0.78469 0.92425 0.83016 0.0
H2939 H 0.76781 0.92874 0.80327 0.0
H2940 H 0.79087 0.91534 0.80099 0.0
H2941 H 0.70372 0.84993 0.8267 0.0
H2942 H 0.69712 0.8448 0.79432 0.0
H2943 H 0.69801 0.87389 0.81094 0.0
C2944 C 0.75742 0.92205 0.58027 0.0
C2945 C 0.7717 0.93019 0.56487 0.0
C2946 C 0.73759 0.92982 0.58047 0.0
C2947 C 0.73176 0.94609 0.5649 0.0
C2948 C 0.74593 0.95387 0.54905 0.0
C2949 C 0.76544 0.9459 0.54922 0.0
C2950 C 0.72304 0.92096 0.59765 0.0
C2951 C 0.74065 0.97102 0.53198 0.0
C2952 C 0.67381 0.95499 0.54593 0.0
C2953 C 0.67431 0.97735 0.55954 0.0
C2954 C 0.69185 0.94401 0.54844 0.0
C2955 C 0.71116 0.95546 0.56501 0.0
C2956 C 0.71147 0.9775 0.57956 0.0
C2957 C 0.69319 0.9881 0.57667 0.0
C2958 C 0.69053 0.92055 0.53254 0.0
C2959 C 0.73156 0.99054 0.59744 0.0
H2960 H 0.76192 0.91004 0.59251 0.0
H2961 H 0.77599 0.95233 0.53698 0.0
H2962 H 0.72166 0.93629 0.61082 0.0
H2963 H 0.70644 0.91268 0.5875 0.0
H2964 H 0.72923 0.90763 0.60782 0.0
H2965 H 0.75317 0.97515 0.52051 0.0
H2966 H 0.72475 0.96333 0.51994 0.0
H2967 H 0.73925 0.98806 0.54249 0.0
H2968 H 0.65931 0.94609 0.53298 0.0
H2969 H 0.6941 1.00539 0.58722 0.0
H2970 H 0.69605 0.90749 0.54357 0.0
H2971 H 0.70149 0.92345 0.51917 0.0
H2972 H 0.67379 0.9126 0.52251 0.0
H2973 H 0.73758 0.97815 0.60903 0.0
H2974 H 0.72856 1.00598 0.60927 0.0
H2975 H 0.74464 0.99727 0.58748 0.0
C2976 C 0.38717 0.436 0.76054 0.0
C2977 C 0.40436 0.44434 0.78019 0.0
C2978 C 0.37212 0.41412 0.75923 0.0
C2979 C 0.37306 0.40103 0.77906 0.0
C2980 C 0.39054 0.40964 0.79902 0.0
C2981 C 0.4065 0.43034 0.79864 0.0
C2982 C 0.35526 0.40545 0.73648 0.0
C2983 C 0.39243 0.39733 0.82111 0.0
C2984 C 0.31842 0.3606 0.78346 0.0
C2985 C 0.32364 0.33821 0.78404 0.0
C2986 C 0.33406 0.38092 0.78155 0.0
C2987 C 0.35566 0.37896 0.77938 0.0
C2988 C 0.36045 0.35573 0.77822 0.0
C2989 C 0.34462 0.33593 0.78124 0.0
C2990 C 0.32667 0.40416 0.78196 0.0
C2991 C 0.38186 0.35091 0.77297 0.0
H2992 H 0.38586 0.44624 0.74571 0.0
H2993 H 0.42025 0.4362 0.81343 0.0
H2994 H 0.3485 0.38587 0.73392 0.0
H2995 H 0.34181 0.415 0.73732 0.0
H2996 H 0.36231 0.40971 0.72029 0.0
H2997 H 0.40301 0.4094 0.83707 0.0
H2998 H 0.37624 0.39091 0.82584 0.0
H2999 H 0.39982 0.38168 0.81742 0.0
H3000 H 0.30209 0.36244 0.78517 0.0
H3001 H 0.34849 0.31846 0.78061 0.0
H3002 H 0.31474 0.40322 0.76521 0.0
H3003 H 0.34006 0.41983 0.78323 0.0
H3004 H 0.31809 0.40674 0.79746 0.0
H3005 H 0.3788 0.33617 0.7574 0.0
H3006 H 0.3903 0.34452 0.78875 0.0
H3007 H 0.39276 0.36668 0.76863 0.0
C3008 C 0.22546 0.59118 0.31453 0.0
C3009 C 0.2041 0.58639 0.31969 0.0
C3010 C 0.23728 0.61498 0.31335 0.0
C3011 C 0.22774 0.63548 0.31639 0.0
C3012 C 0.20604 0.63063 0.32112 0.0
C3013 C 0.19482 0.60678 0.32272 0.0
C3014 C 0.2602 0.61815 0.30863 0.0
C3015 C 0.19421 0.65076 0.32387 0.0
C3016 C 0.26221 0.70266 0.33142 0.0
C3017 C 0.26217 0.71051 0.30858 0.0
C3018 C 0.25169 0.6788 0.33415 0.0
C3019 C 0.23988 0.66146 0.31376 0.0
C3020 C 0.2395 0.6695 0.29074 0.0
C3021 C 0.25068 0.69318 0.28846 0.0
C3022 C 0.25376 0.67192 0.35914 0.0
C3023 C 0.22685 0.65304 0.26818 0.0
H3024 H 0.23289 0.57611 0.3107 0.0
H3025 H 0.17828 0.60403 0.32602 0.0
H3026 H 0.26149 0.62596 0.29178 0.0
H3027 H 0.27136 0.63093 0.32368 0.0
H3028 H 0.2657 0.60098 0.30685 0.0
H3029 H 0.17747 0.64456 0.32724 0.0
H3030 H 0.20329 0.66483 0.33911 0.0
H3031 H 0.1933 0.65919 0.3072 0.0
H3032 H 0.27092 0.71513 0.34739 0.0
H3033 H 0.25002 0.69829 0.27058 0.0
H3034 H 0.2633 0.65778 0.35989 0.0
H3035 H 0.23754 0.6643 0.36311 0.0
H3036 H 0.26196 0.68734 0.37345 0.0
H3037 H 0.23373 0.63688 0.26532 0.0
H3038 H 0.22702 0.66185 0.25176 0.0
H3039 H 0.20974 0.6469 0.27034 0.0
C3040 C 0.51279 0.69849 0.49513 0.0
C3041 C 0.5113 0.69794 0.46992 0.0
C3042 C 0.51499 0.67811 0.50629 0.0
C3043 C 0.51645 0.65646 0.49224 0.0
C3044 C 0.51482 0.65575 0.46675 0.0
C3045 C 0.51203 0.67623 0.45595 0.0
C3046 C 0.51568 0.67974 0.53326 0.0
C3047 C 0.5164 0.63337 0.45086 0.0
C3048 C 0.54584 0.61354 0.52502 0.0
C3049 C 0.52878 0.59472 0.52717 0.0
C3050 C 0.54206 0.63325 0.51352 0.0
C3051 C 0.52053 0.63504 0.50433 0.0
C3052 C 0.50317 0.61633 0.50687 0.0
C3053 C 0.50754 0.5963 0.51759 0.0
C3054 C 0.56127 0.6521 0.51091 0.0
C3055 C 0.47985 0.61716 0.49799 0.0
H3056 H 0.51203 0.71493 0.50624 0.0
H3057 H 0.51093 0.67539 0.43653 0.0
H3058 H 0.50309 0.66511 0.53704 0.0
H3059 H 0.53167 0.67737 0.54222 0.0
H3060 H 0.51298 0.69718 0.54152 0.0
H3061 H 0.51521 0.6356 0.43148 0.0
H3062 H 0.53208 0.62842 0.45699 0.0
H3063 H 0.50324 0.61824 0.45248 0.0
H3064 H 0.56243 0.61263 0.53184 0.0
H3065 H 0.49425 0.58188 0.51856 0.0
H3066 H 0.56046 0.66974 0.52064 0.0
H3067 H 0.56083 0.65389 0.49151 0.0
H3068 H 0.57702 0.64783 0.51815 0.0
H3069 H 0.47726 0.63569 0.50115 0.0
H3070 H 0.46852 0.60558 0.507 0.0
H3071 H 0.47566 0.61066 0.4782 0.0
C3072 C 0.65872 0.30143 0.67732 0.0
C3073 C 0.64171 0.30392 0.69 0.0
C3074 C 0.6796 0.30062 0.68957 0.0
C3075 C 0.68362 0.30179 0.71516 0.0
C3076 C 0.66652 0.30444 0.728 0.0
C3077 C 0.646 0.30567 0.71537 0.0
C3078 C 0.69735 0.29838 0.67508 0.0
C3079 C 0.66979 0.30558 0.75518 0.0
C3080 C 0.73015 0.2772 0.74777 0.0
C3081 C 0.74524 0.29829 0.75885 0.0
C3082 C 0.71037 0.278 0.73299 0.0
C3083 C 0.70561 0.3004 0.72871 0.0
C3084 C 0.72139 0.32163 0.73886 0.0
C3085 C 0.74079 0.32033 0.75391 0.0
C3086 C 0.69413 0.25487 0.72281 0.0
C3087 C 0.7175 0.34589 0.73446 0.0
H3088 H 0.6557 0.30001 0.65775 0.0
H3089 H 0.63306 0.30738 0.72545 0.0
H3090 H 0.71164 0.31336 0.68196 0.0
H3091 H 0.70282 0.28151 0.67727 0.0
H3092 H 0.69194 0.29847 0.65547 0.0
H3093 H 0.65488 0.30734 0.76253 0.0
H3094 H 0.67474 0.28915 0.76022 0.0
H3095 H 0.68307 0.32106 0.76401 0.0
H3096 H 0.73337 0.26008 0.75147 0.0
H3097 H 0.75239 0.33673 0.76223 0.0
H3098 H 0.68922 0.25364 0.70293 0.0
H3099 H 0.67926 0.2545 0.73087 0.0
H3100 H 0.70065 0.23889 0.72653 0.0
H3101 H 0.7128 0.346 0.71476 0.0
H3102 H 0.73207 0.36047 0.74174 0.0
H3103 H 0.70386 0.3498 0.74322 0.0
C3104 C 0.02145 0.34051 0.98547 0.0
C3105 C 0.01978 0.33803 0.96013 0.0
C3106 C 0.02395 0.36324 0.99974 0.0
C3107 C 0.0248 0.38412 0.98854 0.0
C3108 C 0.02323 0.38169 0.96305 0.0
C3109 C 0.02078 0.35892 0.94931 0.0
C3110 C 0.02558 0.36491 0.02683 0.0
C3111 C 0.02411 0.40324 0.95014 0.0
C3112 C 1.01267 0.44259 0.01816 0.0
C3113 C 0.03356 0.45739 0.02543 0.0
C3114 C 1.00959 0.41847 1.00711 0.0
C3115 C 0.02779 0.40867 1.00318 0.0
C3116 C 0.04891 0.42325 0.01132 0.0
C3117 C 0.0515 0.44725 0.02222 0.0
C3118 C 0.98677 0.40374 0.99877 0.0
C3119 C 0.06886 0.4138 1.00768 0.0
H3120 H 0.02062 0.32469 0.99417 0.0
H3121 H 0.01952 0.35756 0.92983 0.0
H3122 H 0.04115 0.37698 0.03614 0.0
H3123 H 1.01231 0.37282 0.03267 0.0
H3124 H 0.02462 0.34715 0.03287 0.0
H3125 H 0.02245 0.39838 0.9302 0.0
H3126 H 1.01094 0.41242 0.95391 0.0
H3127 H 0.03976 0.41628 0.95701 0.0
H3128 H 0.99863 0.45004 0.02045 0.0
H3129 H 0.06775 0.45823 0.0278 0.0
H3130 H 0.98513 0.3863 1.00553 0.0
H3131 H 0.9832 0.39982 0.97867 0.0
H3132 H 0.97445 0.41308 1.00502 0.0
H3133 H 0.0683 0.39655 0.01466 0.0
H3134 H 0.08412 0.42658 0.01686 0.0
H3135 H 0.06928 0.41028 0.98802 0.0
C3136 C 0.01865 0.7976 0.20158 0.0
C3137 C 0.01407 0.79245 0.17611 0.0
C3138 C 1.00184 0.79687 0.21539 0.0
C3139 C 0.97976 0.79072 0.20362 0.0
C3140 C 0.97505 0.78564 0.17796 0.0
C3141 C 0.99212 0.7866 0.16462 0.0
C3142 C 1.00772 0.80254 0.24266 0.0
C3143 C 0.95188 0.77889 0.1645 0.0
C3144 C 0.93513 0.76603 0.23831 0.0
C3145 C 0.92612 0.78601 0.24401 0.0
C3146 C 0.95258 0.76737 0.22545 0.0
C3147 C 0.96154 0.78925 0.21802 0.0
C3148 C 0.95262 0.80951 0.22377 0.0
C3149 C 0.93511 0.80765 0.23657 0.0
C3150 C 0.96143 0.74526 0.21979 0.0
C3151 C 0.96148 0.8332 0.21622 0.0
H3152 H 0.03542 0.80213 0.2108 0.0
H3153 H 0.98815 0.78246 0.14503 0.0
H3154 H 1.00053 0.81755 0.24942 0.0
H3155 H 1.00084 0.7868 0.25077 0.0
H3156 H 0.02557 0.80747 0.24913 0.0
H3157 H 0.95086 0.77571 0.14453 0.0
H3158 H 0.94317 0.7624 0.17008 0.0
H3159 H 0.94325 0.79331 0.16917 0.0
H3160 H 0.92875 0.74929 0.24422 0.0
H3161 H 0.92827 0.82319 0.24046 0.0
H3162 H 0.97898 0.7489 0.22767 0.0
H3163 H 0.95988 0.74043 0.19989 0.0
H3164 H 0.95287 0.72965 0.22694 0.0
H3165 H 0.97915 0.83905 0.22345 0.0
H3166 H 0.95329 0.84748 0.22268 0.0
H3167 H 0.9594 0.83117 0.19617 0.0
C3168 C 0.58114 0.32393 0.18993 0.0
C3169 C 0.55931 0.31238 0.1814 0.0
C3170 C 0.59002 0.3455 0.18233 0.0
C3171 C 0.57679 0.3554 0.16566 0.0
C3172 C 0.55433 0.34492 0.1588 0.0
C3173 C 0.54587 0.32369 0.16693 0.0
C3174 C 0.61385 0.3566 0.19077 0.0
C3175 C 0.53952 0.35494 0.14118 0.0
C3176 C 0.58682 0.41433 0.1425 0.0
C3177 C 0.58988 0.40662 0.11896 0.0
C3178 C 0.58522 0.39845 0.15944 0.0
C3179 C 0.58639 0.37438 0.15244 0.0
C3180 C 0.59217 0.36745 0.1298 0.0
C3181 C 0.59397 0.38374 0.11336 0.0
C3182 C 0.57995 0.40678 0.18378 0.0
C3183 C 0.59393 0.34203 0.12173 0.0
H3184 H 0.59164 0.31546 0.20132 0.0
H3185 H 0.52888 0.31519 0.16066 0.0
H3186 H 0.62316 0.35022 0.17719 0.0
H3187 H 0.617 0.37643 0.19274 0.0
H3188 H 0.62007 0.3514 0.20835 0.0
H3189 H 0.52223 0.34554 0.13896 0.0
H3190 H 0.5408 0.37426 0.14737 0.0
H3191 H 0.54449 0.35317 0.12316 0.0
H3192 H 0.5838 0.43207 0.14706 0.0
H3193 H 0.59694 0.37797 0.0954 0.0
H3194 H 0.58794 0.39827 0.19816 0.0
H3195 H 0.56215 0.40161 0.18304 0.0
H3196 H 0.58505 0.42657 0.18882 0.0
H3197 H 0.60381 0.3355 0.13631 0.0
H3198 H 0.60131 0.34038 0.10517 0.0
H3199 H 0.57747 0.33014 0.11775 0.0
C3200 C 0.96156 0.30796 0.35909 0.0
C3201 C 0.97233 0.31724 0.38278 0.0
C3202 C 0.93925 0.30677 0.35237 0.0
C3203 C 0.92732 0.31403 0.37009 0.0
C3204 C 0.93822 0.32363 0.39403 0.0
C3205 C 0.96065 0.32515 0.40008 0.0
C3206 C 0.92829 0.29687 0.32652 0.0
C3207 C 0.92602 0.33109 0.41355 0.0
C3208 C 0.87041 0.32165 0.34694 0.0
C3209 C 0.85812 0.29854 0.34639 0.0
C3210 C 0.8929 0.32732 0.35549 0.0
C3211 C 0.90323 0.30953 0.36398 0.0
C3212 C 0.89062 0.28667 0.36504 0.0
C3213 C 0.86823 0.28137 0.35599 0.0
C3214 C 0.90568 0.35179 0.3538 0.0
C3215 C 0.9009 0.26742 0.37471 0.0
H3216 H 0.97043 0.30086 0.34604 0.0
H3217 H 0.96898 0.33181 0.41856 0.0
H3218 H 0.91656 0.27974 0.32593 0.0
H3219 H 0.91898 0.30954 0.31907 0.0
H3220 H 0.94011 0.29355 0.31463 0.0
H3221 H 0.93711 0.33988 0.43075 0.0
H3222 H 0.91588 0.34359 0.40747 0.0
H3223 H 0.9149 0.31508 0.41719 0.0
H3224 H 0.86273 0.33497 0.33938 0.0
H3225 H 0.85875 0.26352 0.35579 0.0
H3226 H 0.91821 0.35896 0.37026 0.0
H3227 H 0.89508 0.36479 0.35118 0.0
H3228 H 0.91408 0.35027 0.33807 0.0
H3229 H 0.91123 0.26134 0.36215 0.0
H3230 H 0.88858 0.25163 0.37679 0.0
H3231 H 0.91154 0.27463 0.39255 0.0
C3232 C 0.03426 0.68916 0.64022 0.0
C3233 C 0.04573 0.68782 0.66309 0.0
C3234 C 0.0318 0.67095 0.62049 0.0
C3235 C 0.0408 0.65075 0.62374 0.0
C3236 C 0.05126 0.64858 0.64709 0.0
C3237 C 0.05372 0.66724 0.66649 0.0
C3238 C 0.02037 0.67379 0.59593 0.0
C3239 C 0.06055 0.62695 0.65136 0.0
C3240 C 0.02235 0.59439 0.57699 0.0
C3241 C 0.03999 0.59562 0.56477 0.0
C3242 C 0.02213 0.61244 0.5959 0.0
C3243 C 0.03994 0.63231 0.60254 0.0
C3244 C 0.05734 0.63416 0.58939 0.0
C3245 C 0.05727 0.61556 0.57076 0.0
C3246 C 1.00349 0.60938 0.60969 0.0
C3247 C 0.07647 0.65525 0.59574 0.0
H3248 H 0.02797 0.70497 0.6374 0.0
H3249 H 0.06257 0.66606 0.6841 0.0
H3250 H 0.03196 0.67491 0.58309 0.0
H3251 H 1.00704 0.65792 0.58853 0.0
H3252 H 1.01348 0.6901 0.59664 0.0
H3253 H 0.06701 0.62731 0.67083 0.0
H3254 H 0.0479 0.61029 0.64477 0.0
H3255 H 0.07389 0.62615 0.64096 0.0
H3256 H 1.00926 0.57854 0.57265 0.0
H3257 H 0.07112 0.6161 0.56166 0.0
H3258 H 0.99795 0.62637 0.61312 0.0
H3259 H 1.009 0.60432 0.62755 0.0
H3260 H 0.98946 0.59517 0.59985 0.0
H3261 H 0.07077 0.67228 0.59606 0.0
H3262 H 0.08786 0.65484 0.5827 0.0
H3263 H 0.08548 0.65527 0.61414 0.0
C3264 C 0.5771 0.81729 0.83097 0.0
C3265 C 0.57421 0.80982 0.85322 0.0
C3266 C 0.5941 0.81205 0.81952 0.0
C3267 C 0.60855 0.79913 0.83064 0.0
C3268 C 0.60609 0.79217 0.8534 0.0
C3269 C 0.58899 0.79758 0.86438 0.0
C3270 C 0.59627 0.81976 0.79525 0.0
C3271 C 0.62126 0.77852 0.86596 0.0
C3272 C 0.6395 0.76209 0.79456 0.0
C3273 C 0.66048 0.77662 0.80001 0.0
C3274 C 0.62218 0.76967 0.80354 0.0
C3275 C 0.62601 0.79226 0.81842 0.0
C3276 C 0.64703 0.80731 0.82336 0.0
C3277 C 0.66401 0.79929 0.81409 0.0
C3278 C 0.59997 0.75314 0.79784 0.0
C3279 C 0.65175 0.83144 0.83927 0.0
H3280 H 0.56574 0.82666 0.82215 0.0
H3281 H 0.58704 0.79185 0.88164 0.0
H3282 H 0.61291 0.83035 0.7959 0.0
H3283 H 0.59372 0.80373 0.78123 0.0
H3284 H 0.5844 0.83068 0.78958 0.0
H3285 H 0.61754 0.77512 0.88398 0.0
H3286 H 0.62009 0.76105 0.85457 0.0
H3287 H 0.63832 0.78865 0.86844 0.0
H3288 H 0.63668 0.74464 0.7835 0.0
H3289 H 0.68028 0.81035 0.81868 0.0
H3290 H 0.58756 0.76276 0.7906 0.0
H3291 H 0.59555 0.74712 0.8147 0.0
H3292 H 0.5993 0.73707 0.78445 0.0
H3293 H 0.64056 0.84248 0.83212 0.0
H3294 H 0.66872 0.84142 0.84056 0.0
H3295 H 0.64892 0.82905 0.8578 0.0
C3296 C 0.45509 0.50603 0.69368 0.0
C3297 C 0.46899 0.50708 0.71583 0.0
C3298 C 0.46329 0.51037 0.67226 0.0
C3299 C 0.48606 0.51585 0.67264 0.0
C3300 C 0.50015 0.51658 0.69488 0.0
C3301 C 0.49152 0.5123 0.71603 0.0
C3302 C 0.44752 0.50944 0.64923 0.0
C3303 C 0.52447 0.52218 0.69643 0.0
C3304 C 0.50917 0.50873 0.61334 0.0
C3305 C 0.51486 0.53252 0.60912 0.0
C3306 C 0.49956 0.50301 0.63356 0.0
C3307 C 0.49522 0.52141 0.65009 0.0
C3308 C 0.50032 0.54537 0.6454 0.0
C3309 C 0.51009 0.55059 0.6252 0.0
C3310 C 0.4946 0.47725 0.6376 0.0
C3311 C 0.4959 0.56568 0.66209 0.0
H3312 H 0.43769 0.50212 0.69311 0.0
H3313 H 0.50253 0.51322 0.73287 0.0
H3314 H 0.45023 0.52719 0.6431 0.0
H3315 H 0.45033 0.49632 0.63461 0.0
H3316 H 0.43033 0.50439 0.6516 0.0
H3317 H 0.53328 0.52135 0.71472 0.0
H3318 H 0.52913 0.50936 0.68294 0.0
H3319 H 0.52989 0.54038 0.69198 0.0
H3320 H 0.51284 0.49457 0.60122 0.0
H3321 H 0.51436 0.56902 0.62222 0.0
H3322 H 0.47725 0.47163 0.63904 0.0
H3323 H 0.5044 0.47541 0.65496 0.0
H3324 H 0.49815 0.46489 0.62277 0.0
H3325 H 0.47859 0.56188 0.66417 0.0
H3326 H 0.49967 0.58309 0.65537 0.0
H3327 H 0.50584 0.56737 0.68036 0.0
C3328 C 0.82792 0.204 1.00283 0.0
C3329 C 0.82938 0.20782 0.028 0.0
C3330 C 0.81862 0.21883 0.98853 0.0
C3331 C 0.81018 0.23748 0.99975 0.0
C3332 C 0.81188 0.24164 0.02518 0.0
C3333 C 0.82167 0.22686 0.03907 0.0
C3334 C 0.81747 0.21429 0.96141 0.0
C3335 C 0.80272 0.26114 0.0376 0.0
C3336 C 0.80235 0.2845 0.96063 0.0
C3337 C 0.78099 0.27519 0.94842 0.0
C3338 C 0.81177 0.27319 0.97862 0.0
C3339 C 0.79934 0.25232 0.9846 0.0
C3340 C 0.77716 0.24412 0.97388 0.0
C3341 C 0.76825 0.25558 0.95562 0.0
C3342 C 0.83553 0.28228 0.98952 0.0
C3343 C 0.76332 0.22223 0.98035 0.0
H3344 H 0.83392 0.18931 0.99431 0.0
H3345 H 0.8225 0.22965 0.05854 0.0
H3346 H 0.80025 0.20915 0.95214 0.0
H3347 H 0.82505 0.23089 0.95508 0.0
H3348 H 0.82576 0.19982 0.95574 0.0
H3349 H 0.80623 0.26266 0.05766 0.0
H3350 H 0.80949 0.27868 0.03248 0.0
H3351 H 0.78485 0.25736 0.03155 0.0
H3352 H 0.81228 0.2995 0.95478 0.0
H3353 H 0.7517 0.24851 0.94614 0.0
H3354 H 0.84502 0.2698 0.9821 0.0
H3355 H 0.83822 0.28296 0.00947 0.0
H3356 H 0.84201 0.30041 0.98542 0.0
H3357 H 0.7684 0.20595 0.97274 0.0
H3358 H 0.74579 0.22037 0.97311 0.0
H3359 H 0.76555 0.22297 1.00031 0.0
C3360 C 0.1463 0.51246 0.21492 0.0
C3361 C 0.13721 0.51356 0.23632 0.0
C3362 C 0.13426 0.51341 0.19136 0.0
C3363 C 0.11235 0.51687 0.18819 0.0
C3364 C 0.10343 0.51873 0.21002 0.0
C3365 C 0.11547 0.51648 0.23302 0.0
C3366 C 0.14545 0.51052 0.16987 0.0
C3367 C 0.08097 0.52348 0.20971 0.0
C3368 C 0.08967 0.539 0.12694 0.0
C3369 C 0.07118 0.52089 0.116 0.0
C3370 C 0.10293 0.53808 0.14981 0.0
C3371 C 0.09872 0.51802 0.16262 0.0
C3372 C 0.08059 0.49924 0.15085 0.0
C3373 C 0.06706 0.50126 0.12875 0.0
C3374 C 0.12121 0.55934 0.16031 0.0
C3375 C 0.07488 0.47656 0.16149 0.0
H3376 H 0.16293 0.51034 0.21639 0.0
H3377 H 0.10779 0.51776 0.24885 0.0
H3378 H 0.13377 0.50339 0.1527 0.0
H3379 H 0.15518 0.52822 0.16815 0.0
H3380 H 0.15685 0.49834 0.17248 0.0
H3381 H 0.08036 0.53517 0.22664 0.0
H3382 H 0.07554 0.53209 0.19406 0.0
H3383 H 0.06932 0.50627 0.20896 0.0
H3384 H 0.09324 0.55471 0.11825 0.0
H3385 H 0.05289 0.48706 0.12133 0.0
H3386 H 0.13572 0.55722 0.15233 0.0
H3387 H 0.12559 0.56124 0.18032 0.0
H3388 H 0.11689 0.57618 0.15558 0.0
H3389 H 0.08896 0.47301 0.17349 0.0
H3390 H 0.06854 0.46089 0.14687 0.0
H3391 H 0.06177 0.47799 0.17208 0.0
C3392 C 0.81467 0.85077 0.4949 0.0
C3393 C 0.81831 0.8759 0.49733 0.0
C3394 C 0.81138 0.83637 0.47187 0.0
C3395 C 0.81168 0.84721 0.4506 0.0
C3396 C 0.81509 0.8725 0.45296 0.0
C3397 C 0.81834 0.88639 0.47606 0.0
C3398 C 0.80782 0.80953 0.47032 0.0
C3399 C 0.81553 0.88502 0.431 0.0
C3400 C 0.82446 0.81619 0.39203 0.0
C3401 C 0.80388 0.80888 0.37707 0.0
C3402 C 0.82711 0.82784 0.41614 0.0
C3403 C 0.80879 0.83244 0.42584 0.0
C3404 C 0.7879 0.82448 0.41107 0.0
C3405 C 0.78571 0.81288 0.38701 0.0
C3406 C 0.8497 0.83591 0.43102 0.0
C3407 C 0.76786 0.82888 0.42044 0.0
H3408 H 0.81464 0.84232 0.51101 0.0
H3409 H 0.82109 0.90571 0.47738 0.0
H3410 H 0.79227 0.80076 0.45807 0.0
H3411 H 0.82097 0.8031 0.46246 0.0
H3412 H 0.80748 0.80371 0.48832 0.0
H3413 H 0.81802 0.90477 0.43576 0.0
H3414 H 0.8288 0.88102 0.42162 0.0
H3415 H 0.80006 0.87829 0.41794 0.0
H3416 H 0.83867 0.81326 0.38476 0.0
H3417 H 0.76968 0.80732 0.37584 0.0
H3418 H 0.85026 0.82927 0.44868 0.0
H3419 H 0.8541 0.85578 0.43495 0.0
H3420 H 0.86209 0.82954 0.42161 0.0
H3421 H 0.76718 0.82227 0.43801 0.0
H3422 H 0.75268 0.82 0.40753 0.0
H3423 H 0.76853 0.84842 0.42374 0.0
C3424 C 0.48946 0.51488 0.86025 0.0
C3425 C 0.46665 0.51035 0.85693 0.0
C3426 C 0.50231 0.51774 0.88365 0.0
C3427 C 0.49221 0.51573 0.90432 0.0
C3428 C 0.46924 0.51094 0.90099 0.0
C3429 C 0.4569 0.50848 0.87762 0.0
C3430 C 0.52671 0.52308 0.88631 0.0
C3431 C 0.45757 0.50843 0.92222 0.0
C3432 C 0.52025 0.50006 0.9634 0.0
C3433 C 0.52537 0.5221 0.97906 0.0
C3434 C 0.51029 0.49795 0.93891 0.0
C3435 C 0.50529 0.51836 0.92951 0.0
C3436 C 0.51098 0.5408 0.94503 0.0
C3437 C 0.5209 0.54239 0.96947 0.0
C3438 C 0.50437 0.47359 0.92332 0.0
C3439 C 0.50618 0.56314 0.93598 0.0
H3440 H 0.49731 0.51652 0.84462 0.0
H3441 H 0.43938 0.50502 0.87567 0.0
H3442 H 0.53375 0.54042 0.89839 0.0
H3443 H 0.5333 0.50908 0.89493 0.0
H3444 H 0.53218 0.52399 0.86862 0.0
H3445 H 0.43962 0.50431 0.91662 0.0
H3446 H 0.46218 0.49392 0.93173 0.0
H3447 H 0.46249 0.52526 0.93545 0.0
H3448 H 0.52356 0.4842 0.9704 0.0
H3449 H 0.52486 0.55959 0.98118 0.0
H3450 H 0.5108 0.47448 0.9062 0.0
H3451 H 0.48643 0.46775 0.91837 0.0
H3452 H 0.51071 0.45982 0.93265 0.0
H3453 H 0.51523 0.56705 0.92111 0.0
H3454 H 0.51075 0.57898 0.95052 0.0
H3455 H 0.48863 0.5604 0.92845 0.0
C3456 C 0.85243 0.19615 0.17568 0.0
C3457 C 0.86459 0.20843 0.16063 0.0
C3458 C 0.84749 0.20865 0.19628 0.0
C3459 C 0.85528 0.2338 0.20196 0.0
C3460 C 0.86991 0.24564 0.18858 0.0
C3461 C 0.87428 0.23279 0.16788 0.0
C3462 C 0.83213 0.19536 0.2104 0.0
C3463 C 0.87916 0.27228 0.1946 0.0
C3464 C 0.81662 0.26895 0.22622 0.0
C3465 C 0.82487 0.27323 0.25103 0.0
C3466 C 0.82651 0.25617 0.21006 0.0
C3467 C 0.84536 0.24806 0.21903 0.0
C3468 C 0.85421 0.2532 0.24406 0.0
C3469 C 0.84371 0.26562 0.25984 0.0
C3470 C 0.81653 0.25093 0.18346 0.0
C3471 C 0.87472 0.24575 0.25423 0.0
H3472 H 0.84492 0.1773 0.17009 0.0
H3473 H 0.88392 0.24223 0.15634 0.0
H3474 H 0.83807 0.20093 0.23012 0.0
H3475 H 0.81597 0.19986 0.20614 0.0
H3476 H 0.83009 0.17563 0.20602 0.0
H3477 H 0.893 0.2779 0.18526 0.0
H3478 H 0.86633 0.282 0.18887 0.0
H3479 H 0.8847 0.27777 0.21443 0.0
H3480 H 0.80204 0.27493 0.21956 0.0
H3481 H 0.85023 0.26936 0.27911 0.0
H3482 H 0.81191 0.23128 0.17736 0.0
H3483 H 0.82855 0.25851 0.17261 0.0
H3484 H 0.80186 0.25849 0.17949 0.0
H3485 H 0.87481 0.22732 0.24588 0.0
H3486 H 0.87685 0.24659 0.27422 0.0
H3487 H 0.88892 0.25797 0.25001 0.0
C3488 C 0.15364 0.51295 0.40486 0.0
C3489 C 0.14848 0.52173 0.38269 0.0
C3490 C 0.1415 0.51439 0.4246 0.0
C3491 C 0.12362 0.52631 0.42415 0.0
C3492 C 0.11869 0.53581 0.40194 0.0
C3493 C 0.13045 0.53295 0.38195 0.0
C3494 C 0.14832 0.50281 0.44616 0.0
C3495 C 0.10131 0.55009 0.39888 0.0
C3496 C 0.07678 0.51823 0.46501 0.0
C3497 C 0.08586 0.53257 0.48801 0.0
C3498 C 0.08854 0.51589 0.44502 0.0
C3499 C 0.11054 0.52873 0.44636 0.0
C3500 C 0.11971 0.54355 0.46952 0.0
C3501 C 0.10778 0.54486 0.48951 0.0
C3502 C 0.07712 0.49901 0.42225 0.0
C3503 C 0.14243 0.55865 0.47377 0.0
H3504 H 0.16737 0.5044 0.40686 0.0
H3505 H 0.12589 0.54064 0.36588 0.0
H3506 H 0.16154 0.51575 0.45897 0.0
H3507 H 0.13472 0.49719 0.45581 0.0
H3508 H 0.15484 0.48686 0.44056 0.0
H3509 H 0.10759 0.56685 0.39195 0.0
H3510 H 0.0874 0.53964 0.385 0.0
H3511 H 0.09541 0.55493 0.41591 0.0
H3512 H 0.06019 0.50815 0.46261 0.0
H3513 H 0.11581 0.55612 0.50649 0.0
H3514 H 0.06233 0.48678 0.42519 0.0
H3515 H 0.08814 0.48815 0.41532 0.0
H3516 H 0.07203 0.50947 0.40806 0.0
H3517 H 0.15363 0.54945 0.48412 0.0
H3518 H 0.14336 0.5762 0.48497 0.0
H3519 H 0.14818 0.56197 0.45666 0.0
C3520 C 0.80202 0.84918 0.63528 0.0
C3521 C 0.82046 0.86742 0.63607 0.0
C3522 C 0.79868 0.83741 0.65547 0.0
C3523 C 0.81458 0.84304 0.67704 0.0
C3524 C 0.8334 0.86128 0.67783 0.0
C3525 C 0.83588 0.8735 0.65767 0.0
C3526 C 0.77796 0.81893 0.65371 0.0
C3527 C 0.85128 0.86749 0.69979 0.0
C3528 C 0.79887 0.82603 0.7373 0.0
C3529 C 0.80392 0.80335 0.7377 0.0
C3530 C 0.80214 0.83899 0.71785 0.0
C3531 C 0.81155 0.82969 0.69848 0.0
C3532 C 0.81739 0.80714 0.69932 0.0
C3533 C 0.81309 0.79412 0.71848 0.0
C3534 C 0.79478 0.86233 0.71766 0.0
C3535 C 0.82819 0.79666 0.67987 0.0
H3536 H 0.7899 0.84431 0.61883 0.0
H3537 H 0.85031 0.88731 0.65854 0.0
H3538 H 0.7817 0.80104 0.65475 0.0
H3539 H 0.76981 0.82328 0.66919 0.0
H3540 H 0.76645 0.81782 0.63656 0.0
H3541 H 0.86516 0.8815 0.69748 0.0
H3542 H 0.84492 0.87395 0.716 0.0
H3543 H 0.8573 0.85122 0.70342 0.0
H3544 H 0.79156 0.83332 0.75184 0.0
H3545 H 0.81713 0.7767 0.71854 0.0
H3546 H 0.7825 0.86104 0.70112 0.0
H3547 H 0.80866 0.87705 0.71702 0.0
H3548 H 0.78759 0.86713 0.73382 0.0
H3549 H 0.81672 0.79204 0.66233 0.0
H3550 H 0.83366 0.78025 0.6842 0.0
H3551 H 0.84245 0.81006 0.67741 0.0
C3552 C 0.67331 0.43613 0.50388 0.0
C3553 C 0.68222 0.41656 0.50927 0.0
C3554 C 0.66278 0.44752 0.52036 0.0
C3555 C 0.66088 0.43889 0.54253 0.0
C3556 C 0.66716 0.4173 0.54656 0.0
C3557 C 0.67777 0.40632 0.52983 0.0
C3558 C 0.65578 0.47024 0.51511 0.0
C3559 C 0.66461 0.40709 0.56958 0.0
C3560 C 0.66684 0.49063 0.59262 0.0
C3561 C 0.6451 0.49129 0.59306 0.0
C3562 C 0.67225 0.47234 0.57757 0.0
C3563 C 0.65546 0.45445 0.56258 0.0
C3564 C 0.63357 0.45379 0.56465 0.0
C3565 C 0.62864 0.47221 0.57998 0.0
C3566 C 0.69587 0.47345 0.57609 0.0
C3567 C 0.61521 0.43516 0.54893 0.0
H3568 H 0.67622 0.4439 0.48783 0.0
H3569 H 0.68415 0.39087 0.53397 0.0
H3570 H 0.63924 0.47006 0.51905 0.0
H3571 H 0.66703 0.48587 0.52701 0.0
H3572 H 0.65585 0.47284 0.49595 0.0
H3573 H 0.66618 0.38812 0.56786 0.0
H3574 H 0.67738 0.4177 0.58464 0.0
H3575 H 0.64863 0.40821 0.57457 0.0
H3576 H 0.67955 0.50529 0.60282 0.0
H3577 H 0.61175 0.47276 0.57997 0.0
H3578 H 0.69901 0.47828 0.55832 0.0
H3579 H 0.69985 0.45568 0.57734 0.0
H3580 H 0.70695 0.48689 0.59068 0.0
H3581 H 0.61148 0.4407 0.53092 0.0
H3582 H 0.60027 0.43323 0.55697 0.0
H3583 H 0.6196 0.41744 0.54608 0.0
C3584 C 0.2042 0.11293 0.52835 0.0
C3585 C 0.20578 0.13473 0.51925 0.0
C3586 C 0.18396 0.09909 0.53091 0.0
C3587 C 0.1645 0.10722 0.52467 0.0
C3588 C 0.16599 0.12908 0.51512 0.0
C3589 C 0.1865 0.14263 0.51282 0.0
C3590 C 0.18347 0.07575 0.54058 0.0
C3591 C 0.14582 0.13812 0.5072 0.0
C3592 C 0.11195 0.0583 0.51405 0.0
C3593 C 0.10442 0.06145 0.53604 0.0
C3594 C 0.13048 0.07381 0.50957 0.0
C3595 C 0.14275 0.09266 0.52792 0.0
C3596 C 0.13476 0.09645 0.55 0.0
C3597 C 0.11562 0.08101 0.5537 0.0
C3598 C 0.13738 0.06867 0.48552 0.0
C3599 C 0.14708 0.11606 0.57027 0.0
H3600 H 0.21896 0.10698 0.53421 0.0
H3601 H 0.18747 0.15955 0.50607 0.0
H3602 H 0.17579 0.07598 0.55696 0.0
H3603 H 0.17346 0.06077 0.52679 0.0
H3604 H 0.19995 0.07216 0.5453 0.0
H3605 H 0.14949 0.15522 0.49988 0.0
H3606 H 0.13447 0.1245 0.49301 0.0
H3607 H 0.13731 0.14091 0.52271 0.0
H3608 H 0.1036 0.0431 0.50036 0.0
H3609 H 0.11024 0.08335 0.57097 0.0
H3610 H 0.14683 0.05448 0.48657 0.0
H3611 H 0.14747 0.08469 0.48059 0.0
H3612 H 0.12302 0.0617 0.47085 0.0
H3613 H 0.16314 0.11227 0.57698 0.0
H3614 H 0.13824 0.11774 0.58568 0.0
H3615 H 0.15012 0.13349 0.56352 0.0
C3616 C 0.16817 0.9878 0.80898 0.0
C3617 C 0.16799 0.99835 0.83262 0.0
C3618 C 0.17692 0.96732 0.80485 0.0
C3619 C 0.18541 0.95715 0.82484 0.0
C3620 C 0.18311 0.96636 0.8485 0.0
C3621 C 0.17461 0.98695 0.8521 0.0
C3622 C 0.17896 0.95804 0.77934 0.0
C3623 C 0.19156 0.95592 0.87033 0.0
C3624 C 0.20646 0.8994 0.81832 0.0
C3625 C 0.22897 0.90852 0.8219 0.0
C3626 C 0.19186 0.91489 0.8183 0.0
C3627 C 0.19999 0.94002 0.82185 0.0
C3628 C 0.22265 0.94918 0.8245 0.0
C3629 C 0.2368 0.93336 0.82453 0.0
C3630 C 0.16786 0.90439 0.81546 0.0
C3631 C 0.23209 0.97581 0.8281 0.0
H3632 H 0.16328 0.99671 0.7939 0.0
H3633 H 0.17442 0.99506 0.87041 0.0
H3634 H 0.19599 0.96411 0.77687 0.0
H3635 H 0.17504 0.93816 0.77592 0.0
H3636 H 0.16817 0.96468 0.76565 0.0
H3637 H 0.18554 0.9626 0.88676 0.0
H3638 H 0.18671 0.93608 0.86683 0.0
H3639 H 0.20958 0.96091 0.87411 0.0
H3640 H 0.20031 0.88022 0.81633 0.0
H3641 H 0.25413 0.94049 0.82681 0.0
H3642 H 0.1584 0.9129 0.80226 0.0
H3643 H 0.16255 0.90802 0.83311 0.0
H3644 H 0.16389 0.8847 0.80939 0.0
H3645 H 0.22406 0.98402 0.81347 0.0
H3646 H 0.24987 0.97993 0.82828 0.0
H3647 H 0.22907 0.98445 0.84555 0.0
C3648 C 0.30064 0.95829 1.00235 0.0
C3649 C 0.2955 0.93554 0.98827 0.0
C3650 C 0.32027 0.97421 1.00252 0.0
C3651 C 0.33532 0.96671 0.98898 0.0
C3652 C 0.32976 0.94408 0.97389 0.0
C3653 C 0.30985 0.92865 0.97383 0.0
C3654 C 0.32549 0.99834 0.01849 0.0
C3655 C 0.34546 0.93543 0.95926 0.0
C3656 C 0.38715 1.00823 0.98195 0.0
C3657 C 0.40225 1.00266 0.99991 0.0
C3658 C 0.36504 0.99734 0.97864 0.0
C3659 C 0.35804 0.98055 0.99364 0.0
C3660 C 0.37309 0.97571 0.0125 0.0
C3661 C 0.39502 0.98689 0.01544 0.0
C3662 C 0.3493 1.00327 0.95876 0.0
C3663 C 0.36625 0.95775 0.02879 0.0
H3664 H 0.28972 0.96323 0.01408 0.0
H3665 H 0.30583 0.91086 0.96321 0.0
H3666 H 0.33843 0.99865 0.0341 0.0
H3667 H 0.33172 0.01269 1.00829 0.0
H3668 H 0.31109 1.00248 0.02559 0.0
H3669 H 0.3377 0.91873 0.94638 0.0
H3670 H 0.35222 0.94938 0.94889 0.0
H3671 H 0.35928 0.93186 0.97169 0.0
H3672 H 0.39276 0.02062 0.97009 0.0
H3673 H 0.40669 0.98225 0.02908 0.0
H3674 H 0.35747 0.01622 0.94821 0.0
H3675 H 0.33693 1.01106 0.96679 0.0
H3676 H 0.34062 0.98674 0.94617 0.0
H3677 H 0.35291 0.96247 0.03758 0.0
H3678 H 0.37986 0.95677 0.04317 0.0
H3679 H 0.36 0.93968 0.01783 0.0
C3680 C 0.88841 0.62882 0.77557 0.0
C3681 C 0.88846 0.61467 0.79466 0.0
C3682 C 0.87778 0.64925 0.77476 0.0
C3683 C 0.86639 0.65723 0.79344 0.0
C3684 C 0.86685 0.64331 0.81282 0.0
C3685 C 0.87724 0.62298 0.81303 0.0
C3686 C 0.87852 0.66231 0.75331 0.0
C3687 C 0.8561 0.64993 0.8339 0.0
C3688 C 0.85301 0.72349 0.80328 0.0
C3689 C 0.83032 0.72063 0.79437 0.0
C3690 C 0.86455 0.70391 0.80294 0.0
C3691 C 0.85408 0.67941 0.79301 0.0
C3692 C 0.83124 0.67644 0.78371 0.0
C3693 C 0.82003 0.6963 0.78461 0.0
C3694 C 0.88844 0.70975 0.81344 0.0
C3695 C 0.81828 0.65179 0.77251 0.0
H3696 H 0.89624 0.62361 0.76067 0.0
H3697 H 0.8764 0.61324 0.82821 0.0
H3698 H 0.86175 0.66234 0.7445 0.0
H3699 H 0.88709 0.68127 0.75951 0.0
H3700 H 0.8869 0.65413 0.73969 0.0
H3701 H 0.85847 0.63874 0.84834 0.0
H3702 H 0.86273 0.66904 0.84183 0.0
H3703 H 0.83842 0.64781 0.82752 0.0
H3704 H 0.86208 0.74142 0.81101 0.0
H3705 H 0.80279 0.69256 0.7774 0.0
H3706 H 0.89783 0.7084 0.7985 0.0
H3707 H 0.89238 0.69672 0.82543 0.0
H3708 H 0.89382 0.72811 0.82395 0.0
H3709 H 0.82621 0.64403 0.75819 0.0
H3710 H 0.80132 0.65193 0.76446 0.0
H3711 H 0.81788 0.63982 0.78647 0.0
C3712 C 0.83437 0.64468 0.04591 0.0
C3713 C 0.81979 0.63689 0.0238 0.0
C3714 C 0.85367 0.63597 0.05074 0.0
C3715 C 0.85874 0.61916 0.03304 0.0
C3716 C 0.84448 0.61203 0.01041 0.0
C3717 C 0.82535 0.62084 1.00614 0.0
C3718 C 0.86829 0.64414 0.07513 0.0
C3719 C 0.84906 0.5944 0.99081 0.0
C3720 C 0.91593 0.60604 0.03552 0.0
C3721 C 0.91363 0.58396 0.04423 0.0
C3722 C 0.89855 0.61803 0.03249 0.0
C3723 C 0.87819 0.60793 0.03835 0.0
C3724 C 0.87595 0.58599 0.04772 0.0
C3725 C 0.89354 0.57437 0.0505 0.0
C3726 C 0.90182 0.64125 0.02234 0.0
C3727 C 0.85474 0.57445 0.05438 0.0
H3728 H 0.83033 0.6569 0.0598 0.0
H3729 H 0.81446 0.61471 0.98888 0.0
H3730 H 0.86824 0.62874 0.08516 0.0
H3731 H 0.88527 0.65084 0.07283 0.0
H3732 H 0.86308 0.6585 0.08628 0.0
H3733 H 0.83711 0.5917 0.9737 0.0
H3734 H 0.86557 0.6007 0.9869 0.0
H3735 H 0.8486 0.57683 0.99709 0.0
H3736 H 0.93119 0.6137 0.03042 0.0
H3737 H 0.89151 0.55766 0.05774 0.0
H3738 H 0.89694 0.6553 0.03424 0.0
H3739 H 0.8913 0.63872 1.00429 0.0
H3740 H 0.91895 0.64776 0.02038 0.0
H3741 H 0.84952 0.58735 0.06728 0.0
H3742 H 0.85588 0.55813 0.0627 0.0
H3743 H 0.84188 0.56941 0.03794 0.0
C3744 C 0.20847 0.12195 0.82971 0.0
C3745 C 0.18973 0.12454 0.83904 0.0
C3746 C 0.2245 0.14197 0.82789 0.0
C3747 C 0.22159 0.16545 0.83488 0.0
C3748 C 0.20271 0.16822 0.84445 0.0
C3749 C 0.18696 0.14778 0.84625 0.0
C3750 C 0.24448 0.13796 0.81814 0.0
C3751 C 0.1992 0.19282 0.85275 0.0
C3752 C 0.27305 0.21544 0.84475 0.0
C3753 C 0.27152 0.22373 0.8224 0.0
C3754 C 0.2565 0.1975 0.84957 0.0
C3755 C 0.23805 0.18689 0.83138 0.0
C3756 C 0.23616 0.19579 0.80897 0.0
C3757 C 0.25282 0.2141 0.8048 0.0
C3758 C 0.25965 0.18958 0.87401 0.0
C3759 C 0.21677 0.18552 0.78908 0.0
H3760 H 0.21039 0.10413 0.82321 0.0
H3761 H 0.17241 0.14997 0.85319 0.0
H3762 H 0.24563 0.14637 0.8016 0.0
H3763 H 0.25922 0.14663 0.83178 0.0
H3764 H 0.24444 0.11863 0.81362 0.0
H3765 H 0.18341 0.19215 0.85896 0.0
H3766 H 0.2125 0.20222 0.86788 0.0
H3767 H 0.19982 0.20359 0.83779 0.0
H3768 H 0.28734 0.22291 0.85857 0.0
H3769 H 0.25148 0.22036 0.78742 0.0
H3770 H 0.27179 0.17818 0.87421 0.0
H3771 H 0.24444 0.17949 0.87835 0.0
H3772 H 0.26642 0.20531 0.88845 0.0
H3773 H 0.21642 0.1664 0.78281 0.0
H3774 H 0.21704 0.19526 0.77329 0.0
H3775 H 0.20153 0.18623 0.79609 0.0
C3776 C 0.36714 0.97513 0.28076 0.0
C3777 C 0.38975 0.98343 0.28944 0.0
C3778 C 0.35558 0.95108 0.28146 0.0
C3779 C 0.36645 0.93352 0.29042 0.0
C3780 C 0.38938 0.94167 0.29864 0.0
C3781 C 0.40046 0.96587 0.29797 0.0
C3782 C 0.33142 0.94444 0.27243 0.0
C3783 C 0.40246 0.9246 0.3082 0.0
C3784 C 0.33465 0.87671 0.31348 0.0
C3785 C 0.33079 0.85759 0.29396 0.0
C3786 C 0.34591 0.90067 0.31255 0.0
C3787 C 0.35407 0.90711 0.29147 0.0
C3788 C 0.35034 0.88785 0.27163 0.0
C3789 C 0.33892 0.8639 0.27303 0.0
C3790 C 0.34846 0.91938 0.33433 0.0
C3791 C 0.35859 0.89248 0.24866 0.0
H3792 H 0.35833 0.98746 0.27298 0.0
H3793 H 0.41785 0.97111 0.30432 0.0
H3794 H 0.32753 0.92968 0.25683 0.0
H3795 H 0.32299 0.93777 0.28688 0.0
H3796 H 0.32492 0.95979 0.26667 0.0
H3797 H 0.42008 0.93289 0.31324 0.0
H3798 H 0.39662 0.91848 0.3244 0.0
H3799 H 0.40015 0.90848 0.29433 0.0
H3800 H 0.32871 0.873 0.32991 0.0
H3801 H 0.33638 0.85004 0.25751 0.0
H3802 H 0.33701 0.93109 0.33006 0.0
H3803 H 0.3652 0.93057 0.33861 0.0
H3804 H 0.34478 0.91148 0.35061 0.0
H3805 H 0.35038 0.90552 0.24023 0.0
H3806 H 0.35575 0.87587 0.2353 0.0
H3807 H 0.37626 0.90058 0.25287 0.0
C3808 C 0.55179 0.36815 0.62437 0.0
C3809 C 0.57059 0.3587 0.62628 0.0
C3810 C 0.55123 0.39021 0.61603 0.0
C3811 C 0.5697 0.40315 0.60844 0.0
C3812 C 0.58898 0.39399 0.61092 0.0
C3813 C 0.58922 0.37203 0.6199 0.0
C3814 C 0.53052 0.39935 0.61473 0.0
C3815 C 0.60907 0.40637 0.60268 0.0
C3816 C 0.55608 0.44433 0.56211 0.0
C3817 C 0.56158 0.46717 0.5763 0.0
C3818 C 0.55956 0.42367 0.57204 0.0
C3819 C 0.56823 0.42551 0.59706 0.0
C3820 C 0.574 0.44862 0.6114 0.0
C3821 C 0.57069 0.46901 0.60089 0.0
C3822 C 0.55395 0.39978 0.55568 0.0
C3823 C 0.58311 0.45171 0.63808 0.0
H3824 H 0.53724 0.35793 0.62903 0.0
H3825 H 0.60367 0.36468 0.62066 0.0
H3826 H 0.53403 0.41824 0.62382 0.0
H3827 H 0.52331 0.39896 0.59551 0.0
H3828 H 0.51829 0.38848 0.62333 0.0
H3829 H 0.60786 0.39976 0.58313 0.0
H3830 H 0.61087 0.42609 0.60503 0.0
H3831 H 0.62395 0.40219 0.61259 0.0
H3832 H 0.54902 0.44258 0.54311 0.0
H3833 H 0.57443 0.48638 0.61223 0.0
H3834 H 0.54047 0.38766 0.5613 0.0
H3835 H 0.56815 0.39121 0.55734 0.0
H3836 H 0.54901 0.40147 0.53637 0.0
H3837 H 0.57117 0.44139 0.64741 0.0
H3838 H 0.58712 0.47079 0.64676 0.0
H3839 H 0.59804 0.44446 0.6408 0.0
C3840 C 0.43625 0.7706 0.41892 0.0
C3841 C 0.45094 0.76144 0.40614 0.0
C3842 C 0.41513 0.77144 0.40736 0.0
C3843 C 0.40848 0.76379 0.38194 0.0
C3844 C 0.42305 0.75372 0.36918 0.0
C3845 C 0.44365 0.75207 0.38151 0.0
C3846 C 0.39997 0.78036 0.4226 0.0
C3847 C 0.41689 0.74445 0.34237 0.0
C3848 C 0.35011 0.74617 0.34507 0.0
C3849 C 0.3463 0.76805 0.33888 0.0
C3850 C 0.36943 0.74477 0.3603 0.0
C3851 C 0.38629 0.76564 0.36875 0.0
C3852 C 0.38186 0.78803 0.3635 0.0
C3853 C 0.36202 0.78891 0.34888 0.0
C3854 C 0.37113 0.72065 0.36731 0.0
C3855 C 0.39768 0.81157 0.37281 0.0
H3856 H 0.44123 0.77703 0.43819 0.0
H3857 H 0.45413 0.74338 0.37181 0.0
H3858 H 0.40065 0.7996 0.42159 0.0
H3859 H 0.38292 0.7704 0.41603 0.0
H3860 H 0.40466 0.77865 0.44195 0.0
H3861 H 0.43089 0.7402 0.33453 0.0
H3862 H 0.40417 0.72776 0.33915 0.0
H3863 H 0.41021 0.75775 0.3326 0.0
H3864 H 0.33784 0.72992 0.33801 0.0
H3865 H 0.35922 0.80602 0.34458 0.0
H3866 H 0.38556 0.72131 0.38124 0.0
H3867 H 0.3715 0.70805 0.35093 0.0
H3868 H 0.35638 0.71305 0.37441 0.0
H3869 H 0.41301 0.80974 0.38361 0.0
H3870 H 0.39002 0.82327 0.38432 0.0
H3871 H 0.4013 0.82089 0.35736 0.0
C3872 C 0.0694 0.72591 0.10287 0.0
C3873 C 0.06361 0.73072 0.12569 0.0
C3874 C 0.06748 0.70215 0.0914 0.0
C3875 C 0.06053 0.68254 0.10343 0.0
C3876 C 0.05506 0.68739 0.12671 0.0
C3877 C 0.0566 0.71127 0.13743 0.0
C3878 C 0.07311 0.69804 0.06646 0.0
C3879 C 0.04797 0.66732 0.14056 0.0
C3880 C 0.03761 0.61884 0.06872 0.0
C3881 C 0.05554 0.60802 0.07192 0.0
C3882 C 0.03913 0.64296 0.07839 0.0
C3883 C 0.05907 0.657 0.0919 0.0
C3884 C 0.07736 0.64625 0.09503 0.0
C3885 C 0.07544 0.62204 0.08484 0.0
C3886 C 0.0193 0.65342 0.07392 0.0
C3887 C 0.09881 0.66009 0.10986 0.0
H3888 H 0.07595 0.74078 0.09421 0.0
H3889 H 0.05262 0.71479 0.15533 0.0
H3890 H 0.08667 0.68855 0.06688 0.0
H3891 H 0.05896 0.68643 0.05372 0.0
H3892 H 0.07789 0.71506 0.05932 0.0
H3893 H 0.03298 0.65498 0.13012 0.0
H3894 H 0.0607 0.65672 0.14303 0.0
H3895 H 0.04477 0.67401 0.15867 0.0
H3896 H 0.02218 0.60836 0.05859 0.0
H3897 H 0.08936 0.61387 0.0877 0.0
H3898 H 0.02237 0.66729 0.06218 0.0
H3899 H 0.01609 0.66217 0.0912 0.0
H3900 H 1.00455 0.63975 0.06487 0.0
H3901 H 0.10451 0.67663 0.10235 0.0
H3902 H 0.11156 0.64941 0.11038 0.0
H3903 H 0.09671 0.66571 0.12871 0.0
C3904 C 0.08139 0.25664 0.91531 0.0
C3905 C 0.0684 0.272 0.90667 0.0
C3906 C 0.10154 0.256 0.90776 0.0
C3907 C 0.109 0.27107 0.89121 0.0
C3908 C 0.09621 0.28701 0.88306 0.0
C3909 C 0.07632 0.28729 0.89083 0.0
C3910 C 0.11464 0.23879 0.91703 0.0
C3911 C 0.10328 0.30352 0.86555 0.0
C3912 C 0.16799 0.28707 0.88131 0.0
C3913 C 0.1672 0.27278 0.85899 0.0
C3914 C 0.14958 0.28581 0.89264 0.0
C3915 C 0.12965 0.26992 0.88151 0.0
C3916 C 0.12896 0.25485 0.85945 0.0
C3917 C 0.1476 0.25645 0.84853 0.0
C3918 C 0.15126 0.30217 0.91616 0.0
C3919 C 0.10817 0.23772 0.84671 0.0
H3920 H 0.07558 0.24469 0.92746 0.0
H3921 H 0.06675 0.29948 0.88408 0.0
H3922 H 0.11554 0.22518 0.90175 0.0
H3923 H 0.13152 0.24846 0.92495 0.0
H3924 H 0.10749 0.22943 0.93096 0.0
H3925 H 0.09183 0.31536 0.86143 0.0
H3926 H 0.11961 0.31493 0.87311 0.0
H3927 H 0.1045 0.29281 0.8483 0.0
H3928 H 0.18302 0.29948 0.88991 0.0
H3929 H 0.14649 0.24546 0.83122 0.0
H3930 H 0.14461 0.29183 0.92971 0.0
H3931 H 0.14143 0.31578 0.91309 0.0
H3932 H 0.16829 0.31161 0.92386 0.0
H3933 H 0.10107 0.22668 0.85951 0.0
H3934 H 0.11072 0.22559 0.83105 0.0
H3935 H 0.09611 0.24802 0.84005 0.0
C3936 C 0.51025 0.71479 0.89696 0.0
C3937 C 0.52775 0.73399 0.90691 0.0
C3938 C 0.50836 0.69295 0.90598 0.0
C3939 C 0.52443 0.69051 0.92517 0.0
C3940 C 0.54325 0.709 0.93331 0.0
C3941 C 0.54461 0.7306 0.92415 0.0
C3942 C 0.48827 0.67345 0.89654 0.0
C3943 C 0.561 0.70692 0.95339 0.0
C3944 C 0.51078 0.6602 0.97788 0.0
C3945 C 0.52029 0.64031 0.97493 0.0
C3946 C 0.51043 0.67561 0.96061 0.0
C3947 C 0.52001 0.67116 0.93995 0.0
C3948 C 0.52819 0.65018 0.93591 0.0
C3949 C 0.52828 0.63498 0.95352 0.0
C3950 C 0.50134 0.69772 0.96552 0.0
C3951 C 0.5382 0.6446 0.91392 0.0
H3952 H 0.49726 0.71736 0.88346 0.0
H3953 H 0.55837 0.74533 0.93149 0.0
H3954 H 0.49225 0.65548 0.8953 0.0
H3955 H 0.47666 0.6741 0.90927 0.0
H3956 H 0.48007 0.67568 0.87843 0.0
H3957 H 0.57572 0.72145 0.95534 0.0
H3958 H 0.55496 0.70792 0.97083 0.0
H3959 H 0.56568 0.68942 0.95001 0.0
H3960 H 0.50476 0.66464 0.99442 0.0
H3961 H 0.53528 0.61937 0.95088 0.0
H3962 H 0.49023 0.69982 0.94922 0.0
H3963 H 0.51483 0.71384 0.96992 0.0
H3964 H 0.49235 0.69714 0.98089 0.0
H3965 H 0.52911 0.64938 0.89755 0.0
H3966 H 0.53874 0.62534 0.91039 0.0
H3967 H 0.55509 0.65532 0.91698 0.0
C3968 C 0.13991 0.76634 0.70036 0.0
C3969 C 0.12845 0.75903 0.71846 0.0
C3970 C 0.16219 0.76681 0.70239 0.0
C3971 C 0.17349 0.76106 0.72365 0.0
C3972 C 0.16178 0.75289 0.74159 0.0
C3973 C 0.13926 0.75114 0.73827 0.0
C3974 C 0.17354 0.77399 0.68198 0.0
C3975 C 0.17299 0.74627 0.7645 0.0
C3976 C 0.22998 0.74951 0.73929 0.0
C3977 C 0.24156 0.77252 0.75017 0.0
C3978 C 0.20819 0.74576 0.72782 0.0
C3979 C 0.19764 0.76532 0.72832 0.0
C3980 C 0.21016 0.78888 0.73663 0.0
C3981 C 0.23201 0.79213 0.74702 0.0
C3982 C 0.19655 0.72066 0.71619 0.0
C3983 C 0.20094 0.81106 0.73572 0.0
H3984 H 0.13139 0.77147 0.6844 0.0
H3985 H 0.13009 0.74356 0.75117 0.0
H3986 H 0.17999 0.79364 0.68537 0.0
H3987 H 0.1873 0.76502 0.68047 0.0
H3988 H 0.1621 0.76955 0.66436 0.0
H3989 H 0.1618 0.74224 0.77743 0.0
H3990 H 0.17949 0.73012 0.76007 0.0
H3991 H 0.18688 0.76104 0.77356 0.0
H3992 H 0.23747 0.73427 0.74074 0.0
H3993 H 0.24119 0.81018 0.7542 0.0
H3994 H 0.18052 0.71994 0.70499 0.0
H3995 H 0.19431 0.70919 0.73043 0.0
H3996 H 0.20673 0.71279 0.70451 0.0
H3997 H 0.18302 0.80733 0.7323 0.0
H3998 H 0.20669 0.82028 0.721 0.0
H3999 H 0.20712 0.82383 0.75288 0.0
C4000 C 0.0519 0.37275 0.46266 0.0
C4001 C 0.04824 0.37856 0.43915 0.0
C4002 C 0.05441 0.3901 0.4832 0.0
C4003 C 0.05335 0.41387 0.48022 0.0
C4004 C 0.05072 0.42015 0.45665 0.0
C4005 C 0.04825 0.40245 0.43641 0.0
C4006 C 0.05724 0.38274 0.50804 0.0
C4007 C 0.0498 0.44543 0.45276 0.0
C4008 C 0.03433 0.45443 0.52669 0.0
C4009 C 0.05389 0.46991 0.53806 0.0
C4010 C 0.03402 0.43531 0.50859 0.0
C4011 C 0.05378 0.43195 0.50158 0.0
C4012 C 0.0737 0.44694 0.51391 0.0
C4013 C 0.0735 0.46578 0.53207 0.0
C4014 C 1.01245 0.41964 0.49598 0.0
C4015 C 0.09507 0.44411 0.50685 0.0
H4016 H 0.052 0.3544 0.4651 0.0
H4017 H 0.04554 0.4072 0.41839 0.0
H4018 H 0.07157 0.3948 0.52009 0.0
H4019 H 0.0428 0.38442 0.51634 0.0
H4020 H 0.05932 0.36398 0.5074 0.0
H4021 H 0.04698 0.44713 0.43323 0.0
H4022 H 0.03659 0.45124 0.46102 0.0
H4023 H 0.06527 0.45789 0.46179 0.0
H4024 H 0.0192 0.45788 0.53124 0.0
H4025 H 0.08858 0.47825 0.54052 0.0
H4026 H 1.01288 0.40045 0.49572 0.0
H4027 H 1.00917 0.42263 0.47686 0.0
H4028 H 0.9988 0.42343 0.50484 0.0
H4029 H 0.09638 0.42508 0.50525 0.0
H4030 H 0.10918 0.45513 0.52014 0.0
H4031 H 0.09599 0.4497 0.48886 0.0
C4032 C 0.48018 0.25419 0.22634 0.0
C4033 C 0.50118 0.25047 0.23334 0.0
C4034 C 0.46784 0.26057 0.24355 0.0
C4035 C 0.47655 0.26309 0.26852 0.0
C4036 C 0.49732 0.25839 0.27584 0.0
C4037 C 0.50948 0.25224 0.25815 0.0
C4038 C 0.44566 0.26527 0.23493 0.0
C4039 C 0.50682 0.2603 0.30231 0.0
C4040 C 0.44943 0.30427 0.30453 0.0
C4041 C 0.43174 0.28781 0.30894 0.0
C4042 C 0.46551 0.29637 0.29328 0.0
C4043 C 0.46386 0.27146 0.28659 0.0
C4044 C 0.44731 0.25483 0.29346 0.0
C4045 C 0.43132 0.26324 0.30438 0.0
C4046 C 0.48288 0.31469 0.28627 0.0
C4047 C 0.44509 0.22813 0.28715 0.0
H4048 H 0.47346 0.2527 0.20728 0.0
H4049 H 0.52562 0.24926 0.26379 0.0
H4050 H 0.43311 0.25331 0.24209 0.0
H4051 H 0.44524 0.28401 0.2419 0.0
H4052 H 0.44124 0.26239 0.21484 0.0
H4053 H 0.52245 0.25436 0.30498 0.0
H4054 H 0.50964 0.27914 0.31131 0.0
H4055 H 0.49521 0.24931 0.31149 0.0
H4056 H 0.44972 0.32328 0.30794 0.0
H4057 H 0.41771 0.25052 0.30796 0.0
H4058 H 0.47904 0.31498 0.26649 0.0
H4059 H 0.49896 0.30995 0.2901 0.0
H4060 H 0.48404 0.33299 0.29599 0.0
H4061 H 0.43586 0.22199 0.26842 0.0
H4062 H 0.4361 0.21826 0.29955 0.0
H4063 H 0.46118 0.22336 0.28792 0.0
C4064 C 0.6429 0.5607 0.42427 0.0
C4065 C 0.6323 0.56086 0.4005 0.0
C4066 C 0.63135 0.55528 0.44301 0.0
C4067 C 0.60835 0.55 0.43837 0.0
C4068 C 0.59742 0.55062 0.41464 0.0
C4069 C 0.60945 0.55591 0.39603 0.0
C4070 C 0.64388 0.55474 0.46778 0.0
C4071 C 0.57295 0.54539 0.40882 0.0
C4072 C 0.57946 0.51295 0.48098 0.0
C4073 C 0.57436 0.53056 0.49728 0.0
C4074 C 0.59026 0.51898 0.46175 0.0
C4075 C 0.59598 0.54327 0.4583 0.0
C4076 C 0.59083 0.56114 0.47474 0.0
C4077 C 0.5803 0.55462 0.49403 0.0
C4078 C 0.59566 0.49927 0.44513 0.0
C4079 C 0.59639 0.58722 0.4719 0.0
H4080 H 0.66049 0.56445 0.42832 0.0
H4081 H 0.60093 0.55592 0.37793 0.0
H4082 H 0.63939 0.5673 0.48165 0.0
H4083 H 0.63963 0.53654 0.47266 0.0
H4084 H 0.66174 0.55963 0.46865 0.0
H4085 H 0.56681 0.54762 0.38995 0.0
H4086 H 0.56627 0.52674 0.4113 0.0
H4087 H 0.56666 0.55745 0.42151 0.0
H4088 H 0.57493 0.49432 0.48323 0.0
H4089 H 0.5763 0.56841 0.50632 0.0
H4090 H 0.61349 0.50241 0.44596 0.0
H4091 H 0.58818 0.49937 0.42611 0.0
H4092 H 0.58991 0.48127 0.44994 0.0
H4093 H 0.61426 0.59341 0.47406 0.0
H4094 H 0.59038 0.59883 0.48535 0.0
H4095 H 0.58926 0.58956 0.45341 0.0
C4096 C 0.25899 0.85434 0.07385 0.0
C4097 C 0.26964 0.87572 0.06758 0.0
C4098 C 0.26779 0.84553 0.09424 0.0
C4099 C 0.28805 0.85808 0.1082 0.0
C4100 C 0.29867 0.87998 0.10224 0.0
C4101 C 0.28915 0.88874 0.0821 0.0
C4102 C 0.25566 0.82246 0.10045 0.0
C4103 C 0.3205 0.89355 0.11643 0.0
C4104 C 0.3012 0.84008 0.16998 0.0
C4105 C 0.31202 0.82167 0.16462 0.0
C4106 C 0.29411 0.85295 0.15201 0.0
C4107 C 0.29837 0.84751 0.12833 0.0
C4108 C 0.31059 0.83001 0.12331 0.0
C4109 C 0.31701 0.817 0.14148 0.0
C4110 C 0.28076 0.87111 0.15795 0.0
C4111 C 0.31591 0.82415 0.09841 0.0
H4112 H 0.24382 0.84438 0.06265 0.0
H4113 H 0.29747 0.90518 0.07705 0.0
H4114 H 0.2651 0.80834 0.09804 0.0
H4115 H 0.25371 0.82498 0.11972 0.0
H4116 H 0.23933 0.81598 0.08891 0.0
H4117 H 0.32595 0.91102 0.11038 0.0
H4118 H 0.31989 0.89683 0.13604 0.0
H4119 H 0.33281 0.88263 0.11424 0.0
H4120 H 0.29717 0.84343 0.18788 0.0
H4121 H 0.32545 0.80277 0.13748 0.0
H4122 H 0.26366 0.86405 0.14869 0.0
H4123 H 0.28675 0.88805 0.15125 0.0
H4124 H 0.281 0.87517 0.17774 0.0
H4125 H 0.30087 0.81482 0.08556 0.0
H4126 H 0.32785 0.81246 0.09835 0.0
H4127 H 0.32256 0.84083 0.0916 0.0
C4128 C 0.94686 0.56531 0.88766 0.0
C4129 C 0.94998 0.55483 0.86471 0.0
C4130 C 0.96007 0.56391 0.9103 0.0
C4131 C 0.97688 0.55065 0.91133 0.0
C4132 C 0.97994 0.53972 0.88825 0.0
C4133 C 0.967 0.54219 0.86574 0.0
C4134 C 0.95592 0.57689 0.93337 0.0
C4135 C 0.99669 0.52462 0.88728 0.0
C4136 C 0.02559 0.56239 0.96704 0.0
C4137 C 0.01937 0.54534 0.98222 0.0
C4138 C 1.01204 0.56466 0.94502 0.0
C4139 C 0.99138 0.54881 0.93612 0.0
C4140 C 0.98496 0.53137 0.95129 0.0
C4141 C 0.99857 0.5301 0.97386 0.0
C4142 C 0.02007 0.58433 0.93116 0.0
C4143 C 0.96374 0.51334 0.94326 0.0
H4144 H 0.93388 0.57492 0.88799 0.0
H4145 H 0.96972 0.53326 0.84881 0.0
H4146 H 0.94931 0.56371 0.94458 0.0
H4147 H 0.97137 0.58807 0.94416 0.0
H4148 H 0.94422 0.58857 0.92982 0.0
H4149 H 0.99636 0.51579 0.86858 0.0
H4150 H 1.01315 0.53591 0.89438 0.0
H4151 H 0.99388 0.51063 0.89903 0.0
H4152 H 0.04145 0.57432 0.97248 0.0
H4153 H 0.99323 0.51635 0.98446 0.0
H4154 H 1.00743 0.59479 0.92716 0.0
H4155 H 0.02335 0.57643 0.91356 0.0
H4156 H 0.03519 0.59677 0.94126 0.0
H4157 H 0.95005 0.52263 0.9427 0.0
H4158 H 0.96151 0.49975 0.95554 0.0
H4159 H 0.96295 0.50405 0.92463 0.0
C4160 C 0.27383 0.1855 0.61914 0.0
C4161 C 0.27729 0.19976 0.601 0.0
C4162 C 0.27654 0.19579 0.64374 0.0
C4163 C 0.28271 0.22106 0.6506 0.0
C4164 C 0.28636 0.23551 0.63237 0.0
C4165 C 0.2837 0.22475 0.60795 0.0
C4166 C 0.27267 0.17958 0.66242 0.0
C4167 C 0.29282 0.26247 0.63863 0.0
C4168 C 0.26977 0.24874 0.71067 0.0
C4169 C 0.28991 0.2532 0.7264 0.0
C4170 C 0.26726 0.23853 0.68608 0.0
C4171 C 0.28524 0.23235 0.67674 0.0
C4172 C 0.30562 0.23693 0.69248 0.0
C4173 C 0.30772 0.2473 0.71693 0.0
C4174 C 0.24526 0.23424 0.67006 0.0
C4175 C 0.32526 0.23062 0.68355 0.0
H4176 H 0.26886 0.16621 0.6141 0.0
H4177 H 0.28634 0.23602 0.5942 0.0
H4178 H 0.2874 0.18278 0.67663 0.0
H4179 H 0.25927 0.1837 0.67148 0.0
H4180 H 0.26843 0.16031 0.65436 0.0
H4181 H 0.29518 0.27124 0.62249 0.0
H4182 H 0.28013 0.26933 0.64702 0.0
H4183 H 0.30812 0.26782 0.65213 0.0
H4184 H 0.25585 0.25317 0.71759 0.0
H4185 H 0.32339 0.25052 0.72873 0.0
H4186 H 0.2394 0.21486 0.66295 0.0
H4187 H 0.24652 0.24374 0.65422 0.0
H4188 H 0.23298 0.24041 0.67983 0.0
H4189 H 0.32201 0.2111 0.67689 0.0
H4190 H 0.34001 0.23548 0.69791 0.0
H4191 H 0.32863 0.24 0.66806 0.0
C4192 C 0.63798 0.55715 0.24067 0.0
C4193 C 0.62447 0.55315 0.25793 0.0
C4194 C 0.62941 0.55372 0.21563 0.0
C4195 C 0.60667 0.54605 0.20734 0.0
C4196 C 0.59296 0.54173 0.22466 0.0
C4197 C 0.60198 0.54533 0.24963 0.0
C4198 C 0.64473 0.55858 0.19802 0.0
C4199 C 0.56867 0.53354 0.21683 0.0
C4200 C 0.58261 0.56005 0.14556 0.0
C4201 C 0.57957 0.53807 0.1302 0.0
C4202 C 0.5913 0.56282 0.17052 0.0
C4203 C 0.59725 0.54319 0.18069 0.0
C4204 C 0.5943 0.52096 0.16529 0.0
C4205 C 0.58553 0.51868 0.14039 0.0
C4206 C 0.59406 0.58685 0.18605 0.0
C4207 C 0.60038 0.4995 0.17514 0.0
H4208 H 0.65536 0.56318 0.24673 0.0
H4209 H 0.59133 0.54214 0.26268 0.0
H4210 H 0.64269 0.54239 0.18433 0.0
H4211 H 0.64083 0.57313 0.18812 0.0
H4212 H 0.66201 0.56389 0.20719 0.0
H4213 H 0.56024 0.53037 0.23234 0.0
H4214 H 0.56215 0.54722 0.20757 0.0
H4215 H 0.56476 0.51673 0.2036 0.0
H4216 H 0.5781 0.57522 0.13813 0.0
H4217 H 0.58325 0.50156 0.12892 0.0
H4218 H 0.61138 0.59374 0.19452 0.0
H4219 H 0.58465 0.58491 0.20095 0.0
H4220 H 0.58862 0.60034 0.17552 0.0
H4221 H 0.61791 0.50375 0.18323 0.0
H4222 H 0.59704 0.48346 0.16093 0.0
H4223 H 0.59121 0.49506 0.18978 0.0
C4224 C 0.25052 0.86569 0.92347 0.0
C4225 C 0.23128 0.86354 0.9328 0.0
C4226 C 0.25346 0.84776 0.90613 0.0
C4227 C 0.23676 0.82694 0.89812 0.0
C4228 C 0.21705 0.82476 0.90723 0.0
C4229 C 0.21462 0.8431 0.92484 0.0
C4230 C 0.27478 0.85084 0.89702 0.0
C4231 C 0.19888 0.80288 0.89885 0.0
C4232 C 0.24591 0.79544 0.83956 0.0
C4233 C 0.25863 0.77985 0.84803 0.0
C4234 C 0.23681 0.8094 0.85549 0.0
C4235 C 0.24054 0.80765 0.88044 0.0
C4236 C 0.25177 0.79038 0.88872 0.0
C4237 C 0.26069 0.77655 0.8723 0.0
C4238 C 0.22497 0.82761 0.846 0.0
C4239 C 0.2561 0.78805 0.91523 0.0
H4240 H 0.26383 0.88092 0.93069 0.0
H4241 H 0.20001 0.84129 0.9327 0.0
H4242 H 0.28334 0.83671 0.90223 0.0
H4243 H 0.27179 0.84884 0.87698 0.0
H4244 H 0.28567 0.86862 0.90435 0.0
H4245 H 0.18408 0.80468 0.90643 0.0
H4246 H 0.19461 0.79958 0.87877 0.0
H4247 H 0.20428 0.78689 0.90448 0.0
H4248 H 0.24399 0.79766 0.82063 0.0
H4249 H 0.2704 0.76435 0.87875 0.0
H4250 H 0.23507 0.84591 0.85251 0.0
H4251 H 0.20954 0.82676 0.85299 0.0
H4252 H 0.22134 0.82489 0.82588 0.0
H4253 H 0.26883 0.80359 0.92512 0.0
H4254 H 0.26175 0.77138 0.91813 0.0
H4255 H 0.24128 0.78817 0.92325 0.0
C4256 C 0.97026 0.56241 0.7185 0.0
C4257 C 0.95016 0.5471 0.71975 0.0
C4258 C 0.98139 0.56067 0.69793 0.0
C4259 C 0.97359 0.54215 0.67713 0.0
C4260 C 0.9534 0.52633 0.67851 0.0
C4261 C 0.9421 0.52927 0.69887 0.0
C4262 C 1.00175 0.5794 0.69893 0.0
C4263 C 0.94332 0.50554 0.65858 0.0
C4264 C 0.98994 0.54041 0.6106 0.0
C4265 C 1.01065 0.5343 0.61285 0.0
C4266 C 0.97832 0.54343 0.63066 0.0
C4267 C 0.98636 0.5393 0.65471 0.0
C4268 C 1.0071 0.53256 0.65683 0.0
C4269 C 0.0188 0.53084 0.63673 0.0
C4270 C 0.95727 0.55156 0.62553 0.0
C4271 C 0.0175 0.52673 0.6805 0.0
H4272 H 0.97741 0.57643 0.73379 0.0
H4273 H 0.92695 0.51678 0.69863 0.0
H4274 H 0.01556 0.57437 0.71003 0.0
H4275 H 1.00565 0.58143 0.68071 0.0
H4276 H 1.00017 0.59708 0.70793 0.0
H4277 H 0.93543 0.48984 0.66613 0.0
H4278 H 0.93045 0.51068 0.6461 0.0
H4279 H 0.95533 0.50001 0.64802 0.0
H4280 H 0.98283 0.54364 0.59298 0.0
H4281 H 0.03454 0.52619 0.63983 0.0
H4282 H 0.95293 0.5604 0.64212 0.0
H4283 H 0.94407 0.53579 0.61733 0.0
H4284 H 0.95814 0.56423 0.6122 0.0
H4285 H 0.03001 0.54258 0.69014 0.0
H4286 H 0.02592 0.5118 0.67721 0.0
H4287 H 1.00561 0.52167 0.69242 0.0
C4288 C 0.25882 0.21338 0.45754 0.0
C4289 C 0.26911 0.19416 0.46028 0.0
C4290 C 0.2618 0.22726 0.43868 0.0
C4291 C 0.27616 0.22262 0.42254 0.0
C4292 C 0.28702 0.2036 0.42576 0.0
C4293 C 0.28302 0.1894 0.44406 0.0
C4294 C 0.24914 0.24657 0.43564 0.0
C4295 C 0.30312 0.19831 0.40994 0.0
C4296 C 0.27286 0.24318 0.35959 0.0
C4297 C 0.2882 0.26506 0.36422 0.0
C4298 C 0.26825 0.22974 0.37837 0.0
C4299 C 0.27994 0.23758 0.40246 0.0
C4300 C 0.29573 0.25949 0.4071 0.0
C4301 C 0.29931 0.27308 0.3882 0.0
C4302 C 0.25073 0.20709 0.37237 0.0
C4303 C 0.30936 0.26834 0.43199 0.0
H4304 H 0.24781 0.21707 0.46966 0.0
H4305 H 0.29111 0.17467 0.44597 0.0
H4306 H 0.26042 0.26428 0.43796 0.0
H4307 H 0.23949 0.24329 0.41702 0.0
H4308 H 0.23795 0.24739 0.44886 0.0
H4309 H 0.31137 0.18412 0.41573 0.0
H4310 H 0.29473 0.19244 0.39086 0.0
H4311 H 0.31562 0.2148 0.41039 0.0
H4312 H 0.26419 0.23663 0.34127 0.0
H4313 H 0.3114 0.28975 0.39213 0.0
H4314 H 0.23909 0.20742 0.38511 0.0
H4315 H 0.25804 0.19135 0.37451 0.0
H4316 H 0.24162 0.20461 0.35354 0.0
H4317 H 0.2988 0.27136 0.44544 0.0
H4318 H 0.32138 0.28529 0.43264 0.0
H4319 H 0.31818 0.25454 0.43762 0.0
C4320 C 0.42025 0.65095 0.60521 0.0
C4321 C 0.41477 0.66651 0.58935 0.0
C4322 C 0.43233 0.63417 0.59849 0.0
C4323 C 0.43904 0.63358 0.5757 0.0
C4324 C 0.43742 0.65255 0.56234 0.0
C4325 C 0.42496 0.66882 0.56925 0.0
C4326 C 0.43465 0.61478 0.61375 0.0
C4327 C 0.44563 0.65329 0.53871 0.0
C4328 C 0.46334 0.58249 0.55186 0.0
C4329 C 0.44487 0.56683 0.5378 0.0
C4330 C 0.46193 0.60449 0.56432 0.0
C4331 C 0.44142 0.61052 0.56295 0.0
C4332 C 0.42259 0.59434 0.54912 0.0
C4333 C 0.4246 0.5726 0.5366 0.0
C4334 C 0.48245 0.62124 0.5783 0.0
C4335 C 0.40029 0.59989 0.54764 0.0
H4336 H 0.41236 0.64934 0.62084 0.0
H4337 H 0.42078 0.68111 0.55715 0.0
H4338 H 0.42156 0.59868 0.60623 0.0
H4339 H 0.45047 0.60956 0.61348 0.0
H4340 H 0.43325 0.62058 0.63283 0.0
H4341 H 0.44712 0.67132 0.5332 0.0
H4342 H 0.46168 0.64834 0.54013 0.0
H4343 H 0.43412 0.64012 0.52425 0.0
H4344 H 0.47892 0.57742 0.55319 0.0
H4345 H 0.41041 0.56011 0.52594 0.0
H4346 H 0.47949 0.63178 0.59478 0.0
H4347 H 0.48882 0.63401 0.56656 0.0
H4348 H 0.49524 0.61131 0.58372 0.0
H4349 H 0.39641 0.60274 0.5661 0.0
H4350 H 0.38738 0.58527 0.53635 0.0
H4351 H 0.39997 0.61664 0.5399 0.0
C4352 C 0.89589 0.95332 0.58367 0.0
C4353 C 0.88786 0.92908 0.57379 0.0
C4354 C 0.91736 0.96533 0.58292 0.0
C4355 C 0.93204 0.95261 0.5733 0.0
C4356 C 0.92448 0.92751 0.56527 0.0
C4357 C 0.90257 0.91629 0.56517 0.0
C4358 C 0.92424 0.99177 0.59261 0.0
C4359 C 0.93934 0.91217 0.55669 0.0
C4360 C 0.98174 0.98437 0.54858 0.0
C4361 C 0.99641 0.99532 0.56984 0.0
C4362 C 0.96121 0.96993 0.54925 0.0
C4363 C 0.95503 0.96562 0.57189 0.0
C4364 C 0.9709 0.97492 0.59329 0.0
C4365 C 0.99089 0.99017 0.59204 0.0
C4366 C 0.94662 0.9597 0.52522 0.0
C4367 C 0.96755 0.96864 0.61781 0.0
H4368 H 0.88527 0.96301 0.592 0.0
H4369 H 0.89697 0.8973 0.55836 0.0
H4370 H 0.93545 0.99466 0.61018 0.0
H4371 H 0.93291 1.00152 0.57991 0.0
H4372 H 0.91023 0.9997 0.59588 0.0
H4373 H 0.93459 0.89365 0.56067 0.0
H4374 H 0.93796 0.91097 0.53675 0.0
H4375 H 0.95658 0.91963 0.56523 0.0
H4376 H 0.98589 0.9879 0.53124 0.0
H4377 H 1.00234 0.99797 0.60862 0.0
H4378 H 0.94546 0.97412 0.51403 0.0
H4379 H 0.93014 0.95062 0.52686 0.0
H4380 H 0.95404 0.94656 0.5152 0.0
H4381 H 0.96787 0.98518 0.63034 0.0
H4382 H 0.98131 0.96111 0.62567 0.0
H4383 H 0.95224 0.95545 0.61729 0.0
C4384 C 0.92626 0.08139 0.31023 0.0
C4385 C 0.92928 0.06799 0.28907 0.0
C4386 C 0.91641 0.10105 0.30922 0.0
C4387 C 0.90941 0.1075 0.28643 0.0
C4388 C 0.91473 0.09575 0.26528 0.0
C4389 C 0.92461 0.076 0.26684 0.0
C4390 C 0.91126 0.11305 0.33228 0.0
C4391 C 0.90806 0.10244 0.24071 0.0
C4392 C 0.85601 0.12783 0.28245 0.0
C4393 C 0.86285 0.1529 0.28676 0.0
C4394 C 0.87098 0.11297 0.28153 0.0
C4395 C 0.89346 0.12332 0.28454 0.0
C4396 C 0.90046 0.14856 0.28781 0.0
C4397 C 0.88513 0.16304 0.28911 0.0
C4398 C 0.86273 0.08611 0.27807 0.0
C4399 C 0.92421 0.16029 0.29068 0.0
H4400 H 0.92983 0.07514 0.32744 0.0
H4401 H 0.92668 0.06551 0.25041 0.0
H4402 H 0.91505 0.13281 0.33335 0.0
H4403 H 0.89362 0.10732 0.3324 0.0
H4404 H 0.9204 0.10834 0.34869 0.0
H4405 H 0.91726 0.09551 0.22724 0.0
H4406 H 0.89051 0.09469 0.23411 0.0
H4407 H 0.91058 0.12218 0.24176 0.0
H4408 H 0.83885 0.11972 0.2799 0.0
H4409 H 0.89073 0.18235 0.29259 0.0
H4410 H 0.86949 0.07896 0.29424 0.0
H4411 H 0.86825 0.0774 0.26224 0.0
H4412 H 0.84472 0.08088 0.27525 0.0
H4413 H 0.93286 0.15839 0.30866 0.0
H4414 H 0.92668 0.17968 0.2893 0.0
H4415 H 0.93178 0.15138 0.27672 0.0
C4416 C 0.777 0.14456 0.07422 0.0
C4417 C 0.79674 0.13785 0.08059 0.0
C4418 C 0.75726 0.1286 0.07367 0.0
C4419 C 0.7574 0.10565 0.08023 0.0
C4420 C 0.77737 0.09859 0.08601 0.0
C4421 C 0.79687 0.11493 0.08633 0.0
C4422 C 0.7363 0.1367 0.06708 0.0
C4423 C 0.7782 0.07429 0.093 0.0
C4424 C 0.70833 0.08166 0.10724 0.0
C4425 C 0.69475 0.06639 0.08723 0.0
C4426 C 0.72932 0.09348 0.10557 0.0
C4427 C 0.73676 0.09019 0.08328 0.0
C4428 C 0.72355 0.07382 0.06348 0.0
C4429 C 0.70279 0.06193 0.06576 0.0
C4430 C 0.74302 0.11059 0.12725 0.0
C4431 C 0.73079 0.06983 0.03947 0.0
H4432 H 0.77706 0.16244 0.07001 0.0
H4433 H 0.81226 0.11008 0.09187 0.0
H4434 H 0.72488 0.12319 0.05288 0.0
H4435 H 0.72839 0.13844 0.08322 0.0
H4436 H 0.73894 0.15421 0.06041 0.0
H4437 H 0.79477 0.07062 0.09426 0.0
H4438 H 0.77309 0.07331 0.11084 0.0
H4439 H 0.76678 0.05997 0.07963 0.0
H4440 H 0.70218 0.08539 0.12384 0.0
H4441 H 0.69252 0.04976 0.0504 0.0
H4442 H 0.74474 0.12925 0.12343 0.0
H4443 H 0.75957 0.10698 0.13083 0.0
H4444 H 0.73578 0.1093 0.14386 0.0
H4445 H 0.71918 0.05541 0.02631 0.0
H4446 H 0.74685 0.065 0.04216 0.0
H4447 H 0.73248 0.08667 0.03159 0.0
C4448 C 0.21629 0.44731 0.33774 0.0
C4449 C 0.20507 0.4554 0.31753 0.0
C4450 C 0.22643 0.42672 0.33609 0.0
C4451 C 0.22703 0.41278 0.31339 0.0
C4452 C 0.2158 0.42079 0.29279 0.0
C4453 C 0.20513 0.44113 0.29501 0.0
C4454 C 0.2366 0.41975 0.35924 0.0
C4455 C 0.21534 0.40788 0.26784 0.0
C4456 C 0.27302 0.37315 0.31115 0.0
C4457 C 0.26226 0.34864 0.30945 0.0
C4458 C 0.26211 0.39325 0.3118 0.0
C4459 C 0.2391 0.3904 0.31146 0.0
C4460 C 0.22813 0.3657 0.30978 0.0
C4461 C 0.2394 0.34587 0.30867 0.0
C4462 C 0.27558 0.41798 0.31257 0.0
C4463 C 0.20412 0.35978 0.31 0.0
H4464 H 0.21716 0.45728 0.35553 0.0
H4465 H 0.19737 0.44632 0.27869 0.0
H4466 H 0.2306 0.40032 0.35932 0.0
H4467 H 0.25447 0.42298 0.36046 0.0
H4468 H 0.23303 0.43003 0.37555 0.0
H4469 H 0.20704 0.41608 0.25337 0.0
H4470 H 0.2322 0.40803 0.26494 0.0
H4471 H 0.20686 0.38886 0.26622 0.0
H4472 H 0.2904 0.37683 0.31161 0.0
H4473 H 0.22999 0.32786 0.30761 0.0
H4474 H 0.27677 0.4288 0.33055 0.0
H4475 H 0.26768 0.42718 0.29873 0.0
H4476 H 0.29227 0.41759 0.30937 0.0
H4477 H 0.20172 0.3591 0.32896 0.0
H4478 H 0.19636 0.34202 0.29909 0.0
H4479 H 0.19569 0.37331 0.30298 0.0
C4480 C 0.25703 0.42321 0.07947 0.0
C4481 C 0.27107 0.43053 0.06353 0.0
C4482 C 0.23744 0.43144 0.0798 0.0
C4483 C 0.23162 0.44741 0.06386 0.0
C4484 C 0.24545 0.45422 0.04736 0.0
C4485 C 0.26471 0.44576 0.04737 0.0
C4486 C 0.22318 0.4235 0.09759 0.0
C4487 C 0.2402 0.47106 0.02993 0.0
C4488 C 0.17425 0.45894 0.04689 0.0
C4489 C 0.17594 0.48163 0.06048 0.0
C4490 C 0.19171 0.447 0.0488 0.0
C4491 C 0.21163 0.45786 0.06461 0.0
C4492 C 0.21316 0.48028 0.07906 0.0
C4493 C 0.19543 0.49177 0.07689 0.0
C4494 C 0.18911 0.42316 0.03301 0.0
C4495 C 0.23391 0.49272 0.09618 0.0
H4496 H 0.2616 0.41157 0.0921 0.0
H4497 H 0.27506 0.45152 0.03469 0.0
H4498 H 0.22284 0.43917 0.11095 0.0
H4499 H 0.20624 0.41601 0.08803 0.0
H4500 H 0.22897 0.4098 0.10753 0.0
H4501 H 0.25228 0.47418 0.01777 0.0
H4502 H 0.22392 0.46374 0.01859 0.0
H4503 H 0.23972 0.48859 0.0402 0.0
H4504 H 0.15952 0.4508 0.03397 0.0
H4505 H 0.197 0.50895 0.08798 0.0
H4506 H 0.1948 0.41007 0.0439 0.0
H4507 H 0.19927 0.42535 0.0188 0.0
H4508 H 0.17199 0.41563 0.02402 0.0
H4509 H 0.23943 0.48033 0.10809 0.0
H4510 H 0.23201 0.50896 0.10772 0.0
H4511 H 0.2469 0.49811 0.08563 0.0
C4512 C 0.88231 0.93692 0.26738 0.0
C4513 C 0.90449 0.93872 0.27557 0.0
C4514 C 0.86677 0.91576 0.26726 0.0
C4515 C 0.87358 0.89503 0.27405 0.0
C4516 C 0.89629 0.89592 0.27929 0.0
C4517 C 0.91134 0.91781 0.2806 0.0
C4518 C 0.84305 0.91583 0.25986 0.0
C4519 C 0.90501 0.87402 0.28386 0.0
C4520 C 0.83741 0.84919 0.30292 0.0
C4521 C 0.82175 0.83677 0.28307 0.0
C4522 C 0.85472 0.8674 0.30026 0.0
C4523 C 0.85696 0.87326 0.27683 0.0
C4524 C 0.84219 0.85895 0.25642 0.0
C4525 C 0.8244 0.84154 0.25985 0.0
C4526 C 0.87052 0.87949 0.32301 0.0
C4527 C 0.84531 0.86075 0.2307 0.0
H4528 H 0.87704 0.95226 0.26122 0.0
H4529 H 0.92857 0.91851 0.28564 0.0
H4530 H 0.83675 0.90512 0.24166 0.0
H4531 H 0.83337 0.90784 0.27277 0.0
H4532 H 0.8404 0.93412 0.2586 0.0
H4533 H 0.91965 0.87371 0.27546 0.0
H4534 H 0.91014 0.87481 0.30364 0.0
H4535 H 0.89288 0.85708 0.27662 0.0
H4536 H 0.8359 0.84501 0.32088 0.0
H4537 H 0.81295 0.83114 0.24425 0.0
H4538 H 0.86165 0.88364 0.33792 0.0
H4539 H 0.88148 0.89606 0.3207 0.0
H4540 H 0.8806 0.86685 0.32893 0.0
H4541 H 0.83066 0.86496 0.22033 0.0
H4542 H 0.84682 0.84304 0.22174 0.0
H4543 H 0.85989 0.87424 0.22937 0.0
C4544 C 0.72472 0.08981 0.81284 0.0
C4545 C 0.70335 0.08475 0.81791 0.0
C4546 C 0.7364 0.11371 0.81182 0.0
C4547 C 0.7267 0.13407 0.81498 0.0
C4548 C 0.70494 0.12894 0.81952 0.0
C4549 C 0.69385 0.10498 0.82095 0.0
C4550 C 0.75936 0.11714 0.8072 0.0
C4551 C 0.6929 0.1489 0.82223 0.0
C4552 C 0.76099 0.20132 0.8308 0.0
C4553 C 0.76125 0.20934 0.80807 0.0
C4554 C 0.75043 0.17738 0.83325 0.0
C4555 C 0.73879 0.16018 0.81268 0.0
C4556 C 0.73864 0.16842 0.78977 0.0
C4557 C 0.74992 0.19214 0.78777 0.0
C4558 C 0.75218 0.17028 0.85814 0.0
C4559 C 0.72615 0.15214 0.76702 0.0
H4560 H 0.73232 0.07488 0.80901 0.0
H4561 H 0.67729 0.10202 0.82419 0.0
H4562 H 0.76066 0.12511 0.79044 0.0
H4563 H 0.77043 0.12988 0.82235 0.0
H4564 H 0.76498 0.10004 0.80529 0.0
H4565 H 0.67607 0.14246 0.82524 0.0
H4566 H 0.7017 0.16285 0.8377 0.0
H4567 H 0.69219 0.15755 0.80571 0.0
H4568 H 0.76953 0.2137 0.8469 0.0
H4569 H 0.7495 0.19739 0.76997 0.0
H4570 H 0.76049 0.15509 0.85856 0.0
H4571 H 0.73578 0.16401 0.86233 0.0
H4572 H 0.76136 0.18525 0.8725 0.0
H4573 H 0.73324 0.13616 0.76392 0.0
H4574 H 0.72624 0.16121 0.75077 0.0
H4575 H 0.70906 0.14567 0.76908 0.0
loop_
_geom_bond_atom_site_label_1
_geom_bond_atom_site_label_2
_geom_bond_distance
_geom_bond_site_symmetry_2
_ccdc_geom_bond_type
Mn0 O5 2.095 . S
Mn0 O15 2.162 . S
Mn0 O16 2.297 1_455 S
Mn0 O24 2.385 1_455 S
Mn0 O25 2.209 1_455 S
Mn0 O26 2.094 . S
Mn1 O6 2.088 1_655 S
Mn1 N8 2.264 . S
Mn1 N17 2.317 . S
Mn1 O25 2.228 . S
Mn1 O27 2.121 1_655 S
C2 O24 1.234 . S
C2 O25 1.283 . S
C3 O15 1.283 1_655 S
C3 O16 1.236 . S
C4 O26 1.240 . S
C4 O27 1.264 . S
O5 Mn0 2.095 . S
O5 C14 1.250 . S
O6 Mn1 2.088 1_455 S
O6 C14 1.258 . S
C7 N8 1.326 . S
C7 C11 1.460 . S
C7 H13 0.929 1_655 S
N8 Mn1 2.264 . S
N8 C7 1.326 . S
N8 C12 1.362 . S
C9 C10 1.258 . S
C9 C12 1.431 . S
C9 C29 1.449 . S
C10 C9 1.258 . S
C10 C11 1.477 . S
C10 H30 0.931 . S
C11 C7 1.460 . S
C11 C10 1.477 . S
C11 H31 0.930 . S
C12 N8 1.362 . S
C12 C9 1.431 . S
C12 C22 1.476 . S
H13 C7 0.929 1_455 S
C14 O5 1.250 . S
C14 O6 1.258 . S
O15 Mn0 2.162 . S
O15 C3 1.283 1_455 S
O16 Mn0 2.297 1_655 S
O16 C3 1.236 . S
N17 Mn1 2.317 . S
N17 C18 1.328 . S
N17 C22 1.318 . S
C18 N17 1.328 . S
C18 C19 1.457 . S
C18 H23 0.929 . S
C19 C18 1.457 . S
C19 C20 1.291 . S
C19 H32 0.931 . S
C20 C19 1.291 . S
C20 C21 1.373 . S
C20 H33 0.929 . S
C21 C20 1.373 . S
C21 C22 1.396 . S
C21 C28 1.403 . S
C22 C12 1.476 . S
C22 N17 1.318 . S
C22 C21 1.396 . S
H23 C18 0.929 . S
O24 Mn0 2.385 1_655 S
O24 C2 1.234 . S
O25 Mn0 2.209 1_655 S
O25 Mn1 2.228 . S
O25 C2 1.283 . S
O26 Mn0 2.094 . S
O26 C4 1.240 . S
O27 Mn1 2.121 1_455 S
O27 C4 1.264 . S
C28 C21 1.403 . S
C28 C29 1.399 . S
C28 H34 0.929 . S
C29 C9 1.449 . S
C29 C28 1.399 . S
C29 H35 0.930 . S
H30 C10 0.931 . S
H31 C11 0.930 . S
H32 C19 0.931 . S
H33 C20 0.929 . S
H34 C28 0.929 . S
H35 C29 0.930 . S
Mn36 O41 2.095 . S
Mn36 O51 2.162 . S
Mn36 O52 2.297 . S
Mn36 O60 2.385 . S
Mn36 O61 2.209 . S
Mn36 O62 2.094 . S
Mn37 O42 2.121 . S
Mn37 N44 2.257 . S
Mn37 N53 2.282 . S
Mn37 O61 2.215 . S
Mn37 O63 2.117 . S
C38 O60 1.234 . S
C38 O61 1.283 . S
C39 O51 1.281 . S
C39 O52 1.236 . S
C40 O62 1.240 . S
C40 O63 1.264 . S
O41 Mn36 2.095 . S
O41 C50 1.250 . S
O42 Mn37 2.121 . S
O42 C50 1.258 . S
C43 N44 1.326 . S
C43 C47 1.460 . S
C43 H49 0.929 . S
N44 Mn37 2.257 . S
N44 C43 1.326 . S
N44 C48 1.362 . S
C45 C46 1.258 . S
C45 C48 1.431 . S
C45 C65 1.449 . S
C46 C45 1.258 . S
C46 C47 1.477 . S
C46 H66 0.931 . S
C47 C43 1.460 . S
C47 C46 1.477 . S
C47 H67 0.930 . S
C48 N44 1.362 . S
C48 C45 1.431 . S
C48 C58 1.476 . S
H49 C43 0.929 . S
C50 O41 1.250 . S
C50 O42 1.258 . S
O51 Mn36 2.162 . S
O51 C39 1.281 . S
O52 Mn36 2.297 . S
O52 C39 1.236 . S
N53 Mn37 2.282 . S
N53 C54 1.328 . S
N53 C58 1.318 . S
C54 N53 1.328 . S
C54 C55 1.457 . S
C54 H59 0.929 . S
C55 C54 1.457 . S
C55 C56 1.291 . S
C55 H68 0.931 . S
C56 C55 1.291 . S
C56 C57 1.373 . S
C56 H69 0.929 . S
C57 C56 1.373 . S
C57 C58 1.396 . S
C57 C64 1.403 . S
C58 C48 1.476 . S
C58 N53 1.318 . S
C58 C57 1.396 . S
H59 C54 0.929 . S
O60 Mn36 2.385 . S
O60 C38 1.234 . S
O61 Mn36 2.209 . S
O61 Mn37 2.215 . S
O61 C38 1.283 . S
O62 Mn36 2.094 . S
O62 C40 1.240 . S
O63 Mn37 2.117 . S
O63 C40 1.264 . S
C64 C57 1.403 . S
C64 C65 1.399 . S
C64 H70 0.929 . S
C65 C45 1.449 . S
C65 C64 1.399 . S
C65 H71 0.930 . S
H66 C46 0.931 . S
H67 C47 0.930 . S
H68 C55 0.931 . S
H69 C56 0.929 . S
H70 C64 0.929 . S
H71 C65 0.930 . S
Mn72 O77 2.095 . S
Mn72 O87 2.162 . S
Mn72 O88 2.297 . S
Mn72 O96 2.385 . S
Mn72 O97 2.209 . S
Mn72 O98 2.094 . S
Mn73 O78 2.121 . S
Mn73 N80 2.257 . S
Mn73 N89 2.282 . S
Mn73 O97 2.215 . S
Mn73 O99 2.117 . S
C74 O96 1.234 . S
C74 O97 1.283 . S
C75 O87 1.281 . S
C75 O88 1.236 . S
C76 O98 1.240 . S
C76 O99 1.264 . S
O77 Mn72 2.095 . S
O77 C86 1.250 . S
O78 Mn73 2.121 . S
O78 C86 1.258 . S
C79 N80 1.326 . S
C79 C83 1.460 . S
C79 H85 0.929 . S
N80 Mn73 2.257 . S
N80 C79 1.326 . S
N80 C84 1.362 . S
C81 C82 1.258 . S
C81 C84 1.431 . S
C81 C101 1.449 . S
C82 C81 1.258 . S
C82 C83 1.477 . S
C82 H102 0.931 . S
C83 C79 1.460 . S
C83 C82 1.477 . S
C83 H103 0.930 . S
C84 N80 1.362 . S
C84 C81 1.431 . S
C84 C94 1.476 . S
H85 C79 0.929 . S
C86 O77 1.250 . S
C86 O78 1.258 . S
O87 Mn72 2.162 . S
O87 C75 1.281 . S
O88 Mn72 2.297 . S
O88 C75 1.236 . S
N89 Mn73 2.282 . S
N89 C90 1.328 . S
N89 C94 1.318 . S
C90 N89 1.328 . S
C90 C91 1.457 . S
C90 H95 0.929 . S
C91 C90 1.457 . S
C91 C92 1.291 . S
C91 H104 0.931 . S
C92 C91 1.291 . S
C92 C93 1.373 . S
C92 H105 0.929 . S
C93 C92 1.373 . S
C93 C94 1.396 . S
C93 C100 1.403 . S
C94 C84 1.476 . S
C94 N89 1.318 . S
C94 C93 1.396 . S
H95 C90 0.929 . S
O96 Mn72 2.385 . S
O96 C74 1.234 . S
O97 Mn72 2.209 . S
O97 Mn73 2.215 . S
O97 C74 1.283 . S
O98 Mn72 2.094 . S
O98 C76 1.240 . S
O99 Mn73 2.117 . S
O99 C76 1.264 . S
C100 C93 1.403 . S
C100 C101 1.399 . S
C100 H106 0.929 . S
C101 C81 1.449 . S
C101 C100 1.399 . S
C101 H107 0.930 . S
H102 C82 0.931 . S
H103 C83 0.930 . S
H104 C91 0.931 . S
H105 C92 0.929 . S
H106 C100 0.929 . S
H107 C101 0.930 . S
Mn108 O113 2.095 . S
Mn108 O123 2.162 . S
Mn108 O124 2.297 . S
Mn108 O132 2.385 . S
Mn108 O133 2.209 . S
Mn108 O134 2.094 . S
Mn109 O114 2.121 . S
Mn109 N116 2.257 . S
Mn109 N125 2.282 . S
Mn109 O133 2.215 . S
Mn109 O135 2.117 . S
C110 O132 1.234 . S
C110 O133 1.283 . S
C111 O123 1.281 . S
C111 O124 1.236 . S
C112 O134 1.240 . S
C112 O135 1.264 . S
O113 Mn108 2.095 . S
O113 C122 1.250 . S
O114 Mn109 2.121 . S
O114 C122 1.258 . S
C115 N116 1.326 . S
C115 C119 1.460 . S
C115 H121 0.929 . S
N116 Mn109 2.257 . S
N116 C115 1.326 . S
N116 C120 1.362 . S
C117 C118 1.258 . S
C117 C120 1.431 . S
C117 C137 1.449 . S
C118 C117 1.258 . S
C118 C119 1.477 . S
C118 H138 0.931 . S
C119 C115 1.460 . S
C119 C118 1.477 . S
C119 H139 0.930 . S
C120 N116 1.362 . S
C120 C117 1.431 . S
C120 C130 1.476 . S
H121 C115 0.929 . S
C122 O113 1.250 . S
C122 O114 1.258 . S
O123 Mn108 2.162 . S
O123 C111 1.281 . S
O124 Mn108 2.297 . S
O124 C111 1.236 . S
N125 Mn109 2.282 . S
N125 C126 1.328 . S
N125 C130 1.318 . S
C126 N125 1.328 . S
C126 C127 1.457 . S
C126 H131 0.929 . S
C127 C126 1.457 . S
C127 C128 1.291 . S
C127 H140 0.931 . S
C128 C127 1.291 . S
C128 C129 1.373 . S
C128 H141 0.929 . S
C129 C128 1.373 . S
C129 C130 1.396 . S
C129 C136 1.403 . S
C130 C120 1.476 . S
C130 N125 1.318 . S
C130 C129 1.396 . S
H131 C126 0.929 . S
O132 Mn108 2.385 . S
O132 C110 1.234 . S
O133 Mn108 2.209 . S
O133 Mn109 2.215 . S
O133 C110 1.283 . S
O134 Mn108 2.094 . S
O134 C112 1.240 . S
O135 Mn109 2.117 . S
O135 C112 1.264 . S
C136 C129 1.403 . S
C136 C137 1.399 . S
C136 H142 0.929 . S
C137 C117 1.449 . S
C137 C136 1.399 . S
C137 H143 0.930 . S
H138 C118 0.931 . S
H139 C119 0.930 . S
H140 C127 0.931 . S
H141 C128 0.929 . S
H142 C136 0.929 . S
H143 C137 0.930 . S
Mn144 O149 2.095 . S
Mn144 O159 2.162 . S
Mn144 O160 2.297 . S
Mn144 O168 2.385 . S
Mn144 O169 2.209 . S
Mn144 O170 2.094 . S
Mn145 O150 2.121 . S
Mn145 N152 2.257 . S
Mn145 N161 2.282 1_455 S
Mn145 O169 2.215 . S
Mn145 O171 2.117 . S
C146 O168 1.234 . S
C146 O169 1.283 . S
C147 O159 1.281 . S
C147 O160 1.236 . S
C148 O170 1.240 . S
C148 O171 1.264 . S
O149 Mn144 2.095 . S
O149 C158 1.250 . S
O150 Mn145 2.121 . S
O150 C158 1.258 . S
C151 N152 1.326 . S
C151 C155 1.460 . S
C151 H157 0.929 . S
N152 Mn145 2.257 . S
N152 C151 1.326 . S
N152 C156 1.362 . S
C153 C154 1.258 . S
C153 C156 1.431 . S
C153 C173 1.449 1_455 S
C154 C153 1.258 . S
C154 C155 1.477 . S
C154 H174 0.931 1_554 S
C155 C151 1.460 . S
C155 C154 1.477 . S
C155 H175 0.930 . S
C156 N152 1.362 . S
C156 C153 1.431 . S
C156 C166 1.476 1_455 S
H157 C151 0.929 . S
C158 O149 1.250 . S
C158 O150 1.258 . S
O159 Mn144 2.162 . S
O159 C147 1.281 . S
O160 Mn144 2.297 . S
O160 C147 1.236 . S
N161 Mn145 2.282 1_655 S
N161 C162 1.328 . S
N161 C166 1.318 . S
C162 N161 1.328 . S
C162 C163 1.457 . S
C162 H167 0.929 . S
C163 C162 1.457 . S
C163 C164 1.291 . S
C163 H176 0.931 . S
C164 C163 1.291 . S
C164 C165 1.373 . S
C164 H177 0.929 . S
C165 C164 1.373 . S
C165 C166 1.396 . S
C165 C172 1.403 . S
C166 C156 1.476 1_655 S
C166 N161 1.318 . S
C166 C165 1.396 . S
H167 C162 0.929 . S
O168 Mn144 2.385 . S
O168 C146 1.234 . S
O169 Mn144 2.209 . S
O169 Mn145 2.215 . S
O169 C146 1.283 . S
O170 Mn144 2.094 . S
O170 C148 1.240 . S
O171 Mn145 2.117 . S
O171 C148 1.264 . S
C172 C165 1.403 . S
C172 C173 1.399 . S
C172 H178 0.929 . S
C173 C153 1.449 1_655 S
C173 C172 1.399 . S
C173 H179 0.930 . S
H174 C154 0.931 1_556 S
H175 C155 0.930 . S
H176 C163 0.931 . S
H177 C164 0.929 . S
H178 C172 0.929 . S
H179 C173 0.930 . S
Mn180 O185 2.095 . S
Mn180 O195 2.162 . S
Mn180 O196 2.297 . S
Mn180 O204 2.385 . S
Mn180 O205 2.209 . S
Mn180 O206 2.094 . S
Mn181 O186 2.121 . S
Mn181 N188 2.257 . S
Mn181 N197 2.282 . S
Mn181 O205 2.215 . S
Mn181 O207 2.117 . S
C182 O204 1.234 . S
C182 O205 1.283 . S
C183 O195 1.281 . S
C183 O196 1.236 . S
C184 O206 1.240 . S
C184 O207 1.264 . S
O185 Mn180 2.095 . S
O185 C194 1.250 . S
O186 Mn181 2.121 . S
O186 C194 1.258 . S
C187 N188 1.326 . S
C187 C191 1.460 . S
C187 H193 0.929 . S
N188 Mn181 2.257 . S
N188 C187 1.326 . S
N188 C192 1.362 . S
C189 C190 1.258 . S
C189 C192 1.431 . S
C189 C209 1.449 . S
C190 C189 1.258 . S
C190 C191 1.477 . S
C190 H210 0.931 . S
C191 C187 1.460 . S
C191 C190 1.477 . S
C191 H211 0.930 . S
C192 N188 1.362 . S
C192 C189 1.431 . S
C192 C202 1.476 . S
H193 C187 0.929 . S
C194 O185 1.250 . S
C194 O186 1.258 . S
O195 Mn180 2.162 . S
O195 C183 1.281 . S
O196 Mn180 2.297 . S
O196 C183 1.236 . S
N197 Mn181 2.282 . S
N197 C198 1.328 . S
N197 C202 1.318 . S
C198 N197 1.328 . S
C198 C199 1.457 . S
C198 H203 0.929 . S
C199 C198 1.457 . S
C199 C200 1.291 . S
C199 H212 0.931 . S
C200 C199 1.291 . S
C200 C201 1.373 . S
C200 H213 0.929 . S
C201 C200 1.373 . S
C201 C202 1.396 . S
C201 C208 1.403 . S
C202 C192 1.476 . S
C202 N197 1.318 . S
C202 C201 1.396 . S
H203 C198 0.929 . S
O204 Mn180 2.385 . S
O204 C182 1.234 . S
O205 Mn180 2.209 . S
O205 Mn181 2.215 . S
O205 C182 1.283 . S
O206 Mn180 2.094 . S
O206 C184 1.240 . S
O207 Mn181 2.117 . S
O207 C184 1.264 . S
C208 C201 1.403 . S
C208 C209 1.399 . S
C208 H214 0.929 . S
C209 C189 1.449 . S
C209 C208 1.399 . S
C209 H215 0.930 . S
H210 C190 0.931 . S
H211 C191 0.930 . S
H212 C199 0.931 . S
H213 C200 0.929 . S
H214 C208 0.929 . S
H215 C209 0.930 . S
Mn216 O221 2.095 . S
Mn216 O231 2.162 . S
Mn216 O232 2.297 . S
Mn216 O240 2.385 . S
Mn216 O241 2.209 . S
Mn216 O242 2.094 . S
Mn217 O222 2.121 . S
Mn217 N224 2.257 . S
Mn217 N233 2.282 . S
Mn217 O241 2.215 . S
Mn217 O243 2.117 . S
C218 O240 1.234 . S
C218 O241 1.283 . S
C219 O231 1.281 . S
C219 O232 1.236 . S
C220 O242 1.240 . S
C220 O243 1.264 . S
O221 Mn216 2.095 . S
O221 C230 1.250 . S
O222 Mn217 2.121 . S
O222 C230 1.258 . S
C223 N224 1.326 . S
C223 C227 1.460 . S
C223 H229 0.929 . S
N224 Mn217 2.257 . S
N224 C223 1.326 . S
N224 C228 1.362 . S
C225 C226 1.258 . S
C225 C228 1.431 . S
C225 C245 1.449 . S
C226 C225 1.258 . S
C226 C227 1.477 . S
C226 H246 0.931 . S
C227 C223 1.460 . S
C227 C226 1.477 . S
C227 H247 0.930 . S
C228 N224 1.362 . S
C228 C225 1.431 . S
C228 C238 1.476 . S
H229 C223 0.929 . S
C230 O221 1.250 . S
C230 O222 1.258 . S
O231 Mn216 2.162 . S
O231 C219 1.281 . S
O232 Mn216 2.297 . S
O232 C219 1.236 . S
N233 Mn217 2.282 . S
N233 C234 1.328 . S
N233 C238 1.318 . S
C234 N233 1.328 . S
C234 C235 1.457 . S
C234 H239 0.929 . S
C235 C234 1.457 . S
C235 C236 1.291 . S
C235 H248 0.931 . S
C236 C235 1.291 . S
C236 C237 1.373 . S
C236 H249 0.929 . S
C237 C236 1.373 . S
C237 C238 1.396 . S
C237 C244 1.403 . S
C238 C228 1.476 . S
C238 N233 1.318 . S
C238 C237 1.396 . S
H239 C234 0.929 . S
O240 Mn216 2.385 . S
O240 C218 1.234 . S
O241 Mn216 2.209 . S
O241 Mn217 2.215 . S
O241 C218 1.283 . S
O242 Mn216 2.094 . S
O242 C220 1.240 . S
O243 Mn217 2.117 . S
O243 C220 1.264 . S
C244 C237 1.403 . S
C244 C245 1.399 . S
C244 H250 0.929 . S
C245 C225 1.449 . S
C245 C244 1.399 . S
C245 H251 0.930 . S
H246 C226 0.931 . S
H247 C227 0.930 . S
H248 C235 0.931 . S
H249 C236 0.929 . S
H250 C244 0.929 . S
H251 C245 0.930 . S
Mn252 O257 2.095 . S
Mn252 O267 2.162 . S
Mn252 O268 2.297 . S
Mn252 O276 2.385 1_455 S
Mn252 O277 2.209 1_455 S
Mn252 O278 2.094 . S
Mn253 O258 2.121 . S
Mn253 N260 2.257 1_455 S
Mn253 N269 2.282 1_455 S
Mn253 O277 2.215 1_455 S
Mn253 O279 2.117 . S
C254 O276 1.234 . S
C254 O277 1.283 . S
C255 O267 1.281 . S
C255 O268 1.236 . S
C256 O278 1.240 . S
C256 O279 1.264 . S
O257 Mn252 2.095 . S
O257 C266 1.250 . S
O258 Mn253 2.121 . S
O258 C266 1.258 . S
C259 N260 1.326 1_455 S
C259 C263 1.460 1_455 S
C259 H265 0.929 . S
N260 Mn253 2.257 1_655 S
N260 C259 1.326 1_655 S
N260 C264 1.362 . S
C261 C262 1.258 . S
C261 C264 1.431 . S
C261 C281 1.449 . S
C262 C261 1.258 . S
C262 C263 1.477 . S
C262 H282 0.931 . S
C263 C259 1.460 1_655 S
C263 C262 1.477 . S
C263 H283 0.930 1_655 S
C264 N260 1.362 . S
C264 C261 1.431 . S
C264 C274 1.476 . S
H265 C259 0.929 . S
C266 O257 1.250 . S
C266 O258 1.258 . S
O267 Mn252 2.162 . S
O267 C255 1.281 . S
O268 Mn252 2.297 . S
O268 C255 1.236 . S
N269 Mn253 2.282 1_655 S
N269 C270 1.328 . S
N269 C274 1.318 . S
C270 N269 1.328 . S
C270 C271 1.457 . S
C270 H275 0.929 . S
C271 C270 1.457 . S
C271 C272 1.291 . S
C271 H284 0.931 . S
C272 C271 1.291 . S
C272 C273 1.373 . S
C272 H285 0.929 . S
C273 C272 1.373 . S
C273 C274 1.396 . S
C273 C280 1.403 . S
C274 C264 1.476 . S
C274 N269 1.318 . S
C274 C273 1.396 . S
H275 C270 0.929 . S
O276 Mn252 2.385 1_655 S
O276 C254 1.234 . S
O277 Mn252 2.209 1_655 S
O277 Mn253 2.215 1_655 S
O277 C254 1.283 . S
O278 Mn252 2.094 . S
O278 C256 1.240 . S
O279 Mn253 2.117 . S
O279 C256 1.264 . S
C280 C273 1.403 . S
C280 C281 1.399 . S
C280 H286 0.929 . S
C281 C261 1.449 . S
C281 C280 1.399 . S
C281 H287 0.930 . S
H282 C262 0.931 . S
H283 C263 0.930 1_455 S
H284 C271 0.931 . S
H285 C272 0.929 . S
H286 C280 0.929 . S
H287 C281 0.930 . S
Mn288 O293 2.095 . S
Mn288 O303 2.162 . S
Mn288 O304 2.297 . S
Mn288 O312 2.385 1_545 S
Mn288 O313 2.209 . S
Mn288 O314 2.094 . S
Mn289 O294 2.121 . S
Mn289 N296 2.257 . S
Mn289 N305 2.282 1_545 S
Mn289 O313 2.215 . S
Mn289 O315 2.117 . S
C290 O312 1.234 . S
C290 O313 1.283 1_565 S
C291 O303 1.281 . S
C291 O304 1.236 . S
C292 O314 1.240 . S
C292 O315 1.264 . S
O293 Mn288 2.095 . S
O293 C302 1.250 . S
O294 Mn289 2.121 . S
O294 C302 1.258 . S
C295 N296 1.326 . S
C295 C299 1.460 . S
C295 H301 0.929 . S
N296 Mn289 2.257 . S
N296 C295 1.326 . S
N296 C300 1.362 1_545 S
C297 C298 1.258 . S
C297 C300 1.431 . S
C297 C317 1.449 . S
C298 C297 1.258 . S
C298 C299 1.477 1_565 S
C298 H318 0.931 . S
C299 C295 1.460 . S
C299 C298 1.477 1_545 S
C299 H319 0.930 . S
C300 N296 1.362 1_565 S
C300 C297 1.431 . S
C300 C310 1.476 . S
H301 C295 0.929 . S
C302 O293 1.250 . S
C302 O294 1.258 . S
O303 Mn288 2.162 . S
O303 C291 1.281 . S
O304 Mn288 2.297 . S
O304 C291 1.236 . S
N305 Mn289 2.282 1_565 S
N305 C306 1.328 . S
N305 C310 1.318 . S
C306 N305 1.328 . S
C306 C307 1.457 . S
C306 H311 0.929 . S
C307 C306 1.457 . S
C307 C308 1.291 . S
C307 H320 0.931 . S
C308 C307 1.291 . S
C308 C309 1.373 . S
C308 H321 0.929 . S
C309 C308 1.373 . S
C309 C310 1.396 . S
C309 C316 1.403 . S
C310 C300 1.476 . S
C310 N305 1.318 . S
C310 C309 1.396 . S
H311 C306 0.929 . S
O312 Mn288 2.385 1_565 S
O312 C290 1.234 . S
O313 Mn288 2.209 . S
O313 Mn289 2.215 . S
O313 C290 1.283 1_545 S
O314 Mn288 2.094 . S
O314 C292 1.240 . S
O315 Mn289 2.117 . S
O315 C292 1.264 . S
C316 C309 1.403 . S
C316 C317 1.399 . S
C316 H322 0.929 . S
C317 C297 1.449 . S
C317 C316 1.399 . S
C317 H323 0.930 . S
H318 C298 0.931 . S
H319 C299 0.930 . S
H320 C307 0.931 . S
H321 C308 0.929 . S
H322 C316 0.929 . S
H323 C317 0.930 . S
Mn324 O329 2.095 . S
Mn324 O339 2.162 . S
Mn324 O340 2.297 . S
Mn324 O348 2.385 . S
Mn324 O349 2.209 . S
Mn324 O350 2.094 . S
Mn325 O330 2.121 . S
Mn325 N332 2.257 . S
Mn325 N341 2.282 . S
Mn325 O349 2.215 . S
Mn325 O351 2.117 . S
C326 O348 1.234 . S
C326 O349 1.283 . S
C327 O339 1.281 . S
C327 O340 1.236 . S
C328 O350 1.240 . S
C328 O351 1.264 . S
O329 Mn324 2.095 . S
O329 C338 1.250 . S
O330 Mn325 2.121 . S
O330 C338 1.258 . S
C331 N332 1.326 . S
C331 C335 1.460 . S
C331 H337 0.929 . S
N332 Mn325 2.257 . S
N332 C331 1.326 . S
N332 C336 1.362 . S
C333 C334 1.258 . S
C333 C336 1.431 . S
C333 C353 1.449 . S
C334 C333 1.258 . S
C334 C335 1.477 . S
C334 H354 0.931 . S
C335 C331 1.460 . S
C335 C334 1.477 . S
C335 H355 0.930 . S
C336 N332 1.362 . S
C336 C333 1.431 . S
C336 C346 1.476 . S
H337 C331 0.929 . S
C338 O329 1.250 . S
C338 O330 1.258 . S
O339 Mn324 2.162 . S
O339 C327 1.281 . S
O340 Mn324 2.297 . S
O340 C327 1.236 . S
N341 Mn325 2.282 . S
N341 C342 1.328 . S
N341 C346 1.318 . S
C342 N341 1.328 . S
C342 C343 1.457 . S
C342 H347 0.929 . S
C343 C342 1.457 . S
C343 C344 1.291 . S
C343 H356 0.931 . S
C344 C343 1.291 . S
C344 C345 1.373 . S
C344 H357 0.929 . S
C345 C344 1.373 . S
C345 C346 1.396 . S
C345 C352 1.403 . S
C346 C336 1.476 . S
C346 N341 1.318 . S
C346 C345 1.396 . S
H347 C342 0.929 . S
O348 Mn324 2.385 . S
O348 C326 1.234 . S
O349 Mn324 2.209 . S
O349 Mn325 2.215 . S
O349 C326 1.283 . S
O350 Mn324 2.094 . S
O350 C328 1.240 . S
O351 Mn325 2.117 . S
O351 C328 1.264 . S
C352 C345 1.403 . S
C352 C353 1.399 . S
C352 H358 0.929 . S
C353 C333 1.449 . S
C353 C352 1.399 . S
C353 H359 0.930 . S
H354 C334 0.931 . S
H355 C335 0.930 . S
H356 C343 0.931 . S
H357 C344 0.929 . S
H358 C352 0.929 . S
H359 C353 0.930 . S
Mn360 O365 2.095 . S
Mn360 O375 2.162 . S
Mn360 O376 2.297 . S
Mn360 O384 2.385 . S
Mn360 O385 2.209 . S
Mn360 O386 2.094 . S
Mn361 O366 2.121 . S
Mn361 N368 2.257 . S
Mn361 N377 2.282 . S
Mn361 O385 2.215 . S
Mn361 O387 2.117 . S
C362 O384 1.234 . S
C362 O385 1.283 . S
C363 O375 1.281 . S
C363 O376 1.236 . S
C364 O386 1.240 . S
C364 O387 1.264 . S
O365 Mn360 2.095 . S
O365 C374 1.250 . S
O366 Mn361 2.121 . S
O366 C374 1.258 . S
C367 N368 1.326 . S
C367 C371 1.460 . S
C367 H373 0.929 . S
N368 Mn361 2.257 . S
N368 C367 1.326 . S
N368 C372 1.362 . S
C369 C370 1.258 . S
C369 C372 1.431 . S
C369 C389 1.449 . S
C370 C369 1.258 . S
C370 C371 1.477 . S
C370 H390 0.931 . S
C371 C367 1.460 . S
C371 C370 1.477 . S
C371 H391 0.930 . S
C372 N368 1.362 . S
C372 C369 1.431 . S
C372 C382 1.476 . S
H373 C367 0.929 . S
C374 O365 1.250 . S
C374 O366 1.258 . S
O375 Mn360 2.162 . S
O375 C363 1.281 . S
O376 Mn360 2.297 . S
O376 C363 1.236 . S
N377 Mn361 2.282 . S
N377 C378 1.328 . S
N377 C382 1.318 . S
C378 N377 1.328 . S
C378 C379 1.457 . S
C378 H383 0.929 . S
C379 C378 1.457 . S
C379 C380 1.291 . S
C379 H392 0.931 . S
C380 C379 1.291 . S
C380 C381 1.373 . S
C380 H393 0.929 . S
C381 C380 1.373 . S
C381 C382 1.396 . S
C381 C388 1.403 . S
C382 C372 1.476 . S
C382 N377 1.318 . S
C382 C381 1.396 . S
H383 C378 0.929 . S
O384 Mn360 2.385 . S
O384 C362 1.234 . S
O385 Mn360 2.209 . S
O385 Mn361 2.215 . S
O385 C362 1.283 . S
O386 Mn360 2.094 . S
O386 C364 1.240 . S
O387 Mn361 2.117 . S
O387 C364 1.264 . S
C388 C381 1.403 . S
C388 C389 1.399 . S
C388 H394 0.929 . S
C389 C369 1.449 . S
C389 C388 1.399 . S
C389 H395 0.930 . S
H390 C370 0.931 . S
H391 C371 0.930 . S
H392 C379 0.931 . S
H393 C380 0.929 . S
H394 C388 0.929 . S
H395 C389 0.930 . S
Mn396 O401 2.095 1_554 S
Mn396 O411 2.162 . S
Mn396 O412 2.297 . S
Mn396 O420 2.385 . S
Mn396 O421 2.222 . S
Mn396 O422 2.094 1_554 S
Mn397 O402 2.121 . S
Mn397 N404 2.257 . S
Mn397 N413 2.282 . S
Mn397 O421 2.173 1_556 S
Mn397 O423 2.117 . S
C398 O420 1.234 . S
C398 O421 1.290 . S
C399 O411 1.281 . S
C399 O412 1.236 . S
C400 O422 1.240 . S
C400 O423 1.264 . S
O401 Mn396 2.095 1_556 S
O401 C410 1.250 . S
O402 Mn397 2.121 . S
O402 C410 1.258 . S
C403 N404 1.326 . S
C403 C407 1.460 . S
C403 H409 0.929 . S
N404 Mn397 2.257 . S
N404 C403 1.326 . S
N404 C408 1.362 . S
C405 C406 1.258 . S
C405 C408 1.431 . S
C405 C425 1.449 . S
C406 C405 1.258 . S
C406 C407 1.477 . S
C406 H426 0.931 . S
C407 C403 1.460 . S
C407 C406 1.477 . S
C407 H427 0.930 1_556 S
C408 N404 1.362 . S
C408 C405 1.431 . S
C408 C418 1.476 . S
H409 C403 0.929 . S
C410 O401 1.250 . S
C410 O402 1.258 . S
O411 Mn396 2.162 . S
O411 C399 1.281 . S
O412 Mn396 2.297 . S
O412 C399 1.236 . S
N413 Mn397 2.282 . S
N413 C414 1.328 . S
N413 C418 1.318 . S
C414 N413 1.328 . S
C414 C415 1.457 . S
C414 H419 0.929 . S
C415 C414 1.457 . S
C415 C416 1.291 . S
C415 H428 0.931 . S
C416 C415 1.291 . S
C416 C417 1.373 . S
C416 H429 0.929 . S
C417 C416 1.373 . S
C417 C418 1.396 . S
C417 C424 1.403 . S
C418 C408 1.476 . S
C418 N413 1.318 . S
C418 C417 1.396 . S
H419 C414 0.929 . S
O420 Mn396 2.385 . S
O420 C398 1.234 . S
O421 Mn396 2.222 . S
O421 Mn397 2.173 1_554 S
O421 C398 1.290 . S
O422 Mn396 2.094 1_556 S
O422 C400 1.240 . S
O423 Mn397 2.117 . S
O423 C400 1.264 . S
C424 C417 1.403 . S
C424 C425 1.399 . S
C424 H430 0.929 . S
C425 C405 1.449 . S
C425 C424 1.399 . S
C425 H431 0.930 . S
H426 C406 0.931 . S
H427 C407 0.930 1_554 S
H428 C415 0.931 . S
H429 C416 0.929 . S
H430 C424 0.929 . S
H431 C425 0.930 . S
Mn432 O437 2.095 . S
Mn432 O447 2.162 . S
Mn432 O448 2.297 . S
Mn432 O456 2.385 . S
Mn432 O457 2.209 . S
Mn432 O458 2.094 . S
Mn433 O438 2.121 . S
Mn433 N440 2.257 . S
Mn433 N449 2.282 1_554 S
Mn433 O457 2.215 . S
Mn433 O459 2.117 1_554 S
C434 O456 1.234 . S
C434 O457 1.283 . S
C435 O447 1.281 . S
C435 O448 1.236 . S
C436 O458 1.240 1_556 S
C436 O459 1.264 . S
O437 Mn432 2.095 . S
O437 C446 1.250 . S
O438 Mn433 2.121 . S
O438 C446 1.258 . S
C439 N440 1.326 . S
C439 C443 1.460 . S
C439 H445 0.929 . S
N440 Mn433 2.257 . S
N440 C439 1.326 . S
N440 C444 1.362 . S
C441 C442 1.258 . S
C441 C444 1.431 . S
C441 C461 1.449 . S
C442 C441 1.258 . S
C442 C443 1.477 . S
C442 H462 0.931 . S
C443 C439 1.460 . S
C443 C442 1.477 . S
C443 H463 0.930 . S
C444 N440 1.362 . S
C444 C441 1.431 . S
C444 C454 1.476 . S
H445 C439 0.929 . S
C446 O437 1.250 . S
C446 O438 1.258 . S
O447 Mn432 2.162 . S
O447 C435 1.281 . S
O448 Mn432 2.297 . S
O448 C435 1.236 . S
N449 Mn433 2.282 1_556 S
N449 C450 1.328 . S
N449 C454 1.318 1_556 S
C450 N449 1.328 . S
C450 C451 1.457 . S
C450 H455 0.929 . S
C451 C450 1.457 . S
C451 C452 1.291 . S
C451 H464 0.931 . S
C452 C451 1.291 . S
C452 C453 1.373 . S
C452 H465 0.929 . S
C453 C452 1.373 . S
C453 C454 1.396 1_556 S
C453 C460 1.403 1_556 S
C454 C444 1.476 . S
C454 N449 1.318 1_554 S
C454 C453 1.396 1_554 S
H455 C450 0.929 . S
O456 Mn432 2.385 . S
O456 C434 1.234 . S
O457 Mn432 2.209 . S
O457 Mn433 2.215 . S
O457 C434 1.283 . S
O458 Mn432 2.094 . S
O458 C436 1.240 1_554 S
O459 Mn433 2.117 1_556 S
O459 C436 1.264 . S
C460 C453 1.403 1_554 S
C460 C461 1.399 . S
C460 H466 0.929 1_554 S
C461 C441 1.449 . S
C461 C460 1.399 . S
C461 H467 0.930 . S
H462 C442 0.931 . S
H463 C443 0.930 . S
H464 C451 0.931 . S
H465 C452 0.929 . S
H466 C460 0.929 1_556 S
H467 C461 0.930 . S
Mn468 O473 2.095 . S
Mn468 O483 2.162 . S
Mn468 O484 2.297 . S
Mn468 O492 2.385 . S
Mn468 O493 2.209 . S
Mn468 O494 2.094 . S
Mn469 O474 2.121 . S
Mn469 N476 2.257 . S
Mn469 N485 2.282 . S
Mn469 O493 2.215 . S
Mn469 O495 2.117 . S
C470 O492 1.234 . S
C470 O493 1.283 . S
C471 O483 1.281 . S
C471 O484 1.236 . S
C472 O494 1.240 . S
C472 O495 1.264 . S
O473 Mn468 2.095 . S
O473 C482 1.250 . S
O474 Mn469 2.121 . S
O474 C482 1.258 . S
C475 N476 1.326 . S
C475 C479 1.460 . S
C475 H481 0.929 . S
N476 Mn469 2.257 . S
N476 C475 1.326 . S
N476 C480 1.362 . S
C477 C478 1.258 . S
C477 C480 1.431 . S
C477 C497 1.449 . S
C478 C477 1.258 . S
C478 C479 1.477 . S
C478 H498 0.931 . S
C479 C475 1.460 . S
C479 C478 1.477 . S
C479 H499 0.930 . S
C480 N476 1.362 . S
C480 C477 1.431 . S
C480 C490 1.476 . S
H481 C475 0.929 . S
C482 O473 1.250 . S
C482 O474 1.258 . S
O483 Mn468 2.162 . S
O483 C471 1.281 . S
O484 Mn468 2.297 . S
O484 C471 1.236 . S
N485 Mn469 2.282 . S
N485 C486 1.328 . S
N485 C490 1.318 . S
C486 N485 1.328 . S
C486 C487 1.457 . S
C486 H491 0.929 . S
C487 C486 1.457 . S
C487 C488 1.291 . S
C487 H500 0.931 1_554 S
C488 C487 1.291 . S
C488 C489 1.374 . S
C488 H501 0.928 1_554 S
C489 C488 1.374 . S
C489 C490 1.396 . S
C489 C496 1.403 . S
C490 C480 1.476 . S
C490 N485 1.318 . S
C490 C489 1.396 . S
H491 C486 0.929 . S
O492 Mn468 2.385 . S
O492 C470 1.234 . S
O493 Mn468 2.209 . S
O493 Mn469 2.215 . S
O493 C470 1.283 . S
O494 Mn468 2.094 . S
O494 C472 1.240 . S
O495 Mn469 2.117 . S
O495 C472 1.264 . S
C496 C489 1.403 . S
C496 C497 1.399 . S
C496 H502 0.929 1_554 S
C497 C477 1.449 . S
C497 C496 1.399 . S
C497 H503 0.930 . S
H498 C478 0.931 . S
H499 C479 0.930 . S
H500 C487 0.931 1_556 S
H501 C488 0.928 1_556 S
H502 C496 0.929 1_556 S
H503 C497 0.930 . S
Mn504 O509 2.095 . S
Mn504 O519 2.162 . S
Mn504 O520 2.297 . S
Mn504 O528 2.385 . S
Mn504 O529 2.209 . S
Mn504 O530 2.094 . S
Mn505 O510 2.121 . S
Mn505 N512 2.257 . S
Mn505 N521 2.282 . S
Mn505 O529 2.215 . S
Mn505 O531 2.117 . S
C506 O528 1.234 . S
C506 O529 1.283 . S
C507 O519 1.281 . S
C507 O520 1.236 . S
C508 O530 1.240 . S
C508 O531 1.264 . S
O509 Mn504 2.095 . S
O509 C518 1.250 . S
O510 Mn505 2.121 . S
O510 C518 1.258 . S
C511 N512 1.326 . S
C511 C515 1.460 . S
C511 H517 0.929 . S
N512 Mn505 2.257 . S
N512 C511 1.326 . S
N512 C516 1.362 . S
C513 C514 1.258 . S
C513 C516 1.431 . S
C513 C533 1.449 . S
C514 C513 1.258 . S
C514 C515 1.477 . S
C514 H534 0.931 . S
C515 C511 1.460 . S
C515 C514 1.477 . S
C515 H535 0.930 . S
C516 N512 1.362 . S
C516 C513 1.431 . S
C516 C526 1.476 . S
H517 C511 0.929 . S
C518 O509 1.250 . S
C518 O510 1.258 . S
O519 Mn504 2.162 . S
O519 C507 1.281 . S
O520 Mn504 2.297 . S
O520 C507 1.236 . S
N521 Mn505 2.282 . S
N521 C522 1.328 . S
N521 C526 1.318 . S
C522 N521 1.328 . S
C522 C523 1.457 . S
C522 H527 0.929 . S
C523 C522 1.457 . S
C523 C524 1.291 . S
C523 H536 0.931 . S
C524 C523 1.291 . S
C524 C525 1.373 . S
C524 H537 0.929 . S
C525 C524 1.373 . S
C525 C526 1.396 . S
C525 C532 1.403 . S
C526 C516 1.476 . S
C526 N521 1.318 . S
C526 C525 1.396 . S
H527 C522 0.929 . S
O528 Mn504 2.385 . S
O528 C506 1.234 . S
O529 Mn504 2.209 . S
O529 Mn505 2.215 . S
O529 C506 1.283 . S
O530 Mn504 2.094 . S
O530 C508 1.240 . S
O531 Mn505 2.117 . S
O531 C508 1.264 . S
C532 C525 1.403 . S
C532 C533 1.399 . S
C532 H538 0.929 . S
C533 C513 1.449 . S
C533 C532 1.399 . S
C533 H539 0.930 . S
H534 C514 0.931 . S
H535 C515 0.930 . S
H536 C523 0.931 . S
H537 C524 0.929 . S
H538 C532 0.929 . S
H539 C533 0.930 . S
Mn540 O545 2.095 . S
Mn540 O555 2.162 . S
Mn540 O556 2.297 . S
Mn540 O564 2.385 . S
Mn540 O565 2.209 . S
Mn540 O566 2.094 . S
Mn541 O546 2.121 . S
Mn541 N548 2.257 . S
Mn541 N557 2.282 . S
Mn541 O565 2.215 . S
Mn541 O567 2.117 . S
C542 O564 1.234 . S
C542 O565 1.283 . S
C543 O555 1.281 . S
C543 O556 1.236 . S
C544 O566 1.240 . S
C544 O567 1.264 . S
O545 Mn540 2.095 . S
O545 C554 1.250 . S
O546 Mn541 2.121 . S
O546 C554 1.258 . S
C547 N548 1.326 . S
C547 C551 1.460 . S
C547 H553 0.929 . S
N548 Mn541 2.257 . S
N548 C547 1.326 . S
N548 C552 1.362 . S
C549 C550 1.258 . S
C549 C552 1.431 . S
C549 C569 1.449 . S
C550 C549 1.258 . S
C550 C551 1.477 . S
C550 H570 0.931 1_565 S
C551 C547 1.460 . S
C551 C550 1.477 . S
C551 H571 0.930 . S
C552 N548 1.362 . S
C552 C549 1.431 . S
C552 C562 1.476 . S
H553 C547 0.929 . S
C554 O545 1.250 . S
C554 O546 1.258 . S
O555 Mn540 2.162 . S
O555 C543 1.281 . S
O556 Mn540 2.297 . S
O556 C543 1.236 . S
N557 Mn541 2.282 . S
N557 C558 1.328 . S
N557 C562 1.318 . S
C558 N557 1.328 . S
C558 C559 1.457 . S
C558 H563 0.929 . S
C559 C558 1.457 . S
C559 C560 1.291 . S
C559 H572 0.931 . S
C560 C559 1.291 . S
C560 C561 1.373 . S
C560 H573 0.929 . S
C561 C560 1.373 . S
C561 C562 1.396 . S
C561 C568 1.403 . S
C562 C552 1.476 . S
C562 N557 1.318 . S
C562 C561 1.396 . S
H563 C558 0.929 . S
O564 Mn540 2.385 . S
O564 C542 1.234 . S
O565 Mn540 2.209 . S
O565 Mn541 2.215 . S
O565 C542 1.283 . S
O566 Mn540 2.094 . S
O566 C544 1.240 . S
O567 Mn541 2.117 . S
O567 C544 1.264 . S
C568 C561 1.403 . S
C568 C569 1.399 . S
C568 H574 0.929 . S
C569 C549 1.449 . S
C569 C568 1.399 . S
C569 H575 0.975 . S
H570 C550 0.931 1_545 S
H571 C551 0.930 . S
H572 C559 0.931 . S
H573 C560 0.929 . S
H574 C568 0.929 . S
H575 C569 0.975 . S
Mn576 O581 2.087 1_565 S
Mn576 O591 2.161 1_565 S
Mn576 O592 2.296 . S
Mn576 O600 2.393 . S
Mn576 O601 2.212 . S
Mn576 O602 2.095 1_565 S
Mn577 O582 2.121 1_565 S
Mn577 N584 2.257 . S
Mn577 N593 2.282 . S
Mn577 O601 2.215 . S
Mn577 O603 2.117 1_565 S
C578 O600 1.234 . S
C578 O601 1.283 . S
C579 O591 1.281 1_565 S
C579 O592 1.236 . S
C580 O602 1.240 . S
C580 O603 1.264 . S
O581 Mn576 2.087 1_545 S
O581 C590 1.250 . S
O582 Mn577 2.121 1_545 S
O582 C590 1.258 . S
C583 N584 1.326 . S
C583 C587 1.460 . S
C583 H589 0.929 1_565 S
N584 Mn577 2.257 . S
N584 C583 1.326 . S
N584 C588 1.362 . S
C585 C586 1.258 . S
C585 C588 1.431 . S
C585 C605 1.449 . S
C586 C585 1.258 . S
C586 C587 1.477 . S
C586 H606 0.931 . S
C587 C583 1.460 . S
C587 C586 1.477 . S
C587 H607 0.930 . S
C588 N584 1.362 . S
C588 C585 1.431 . S
C588 C598 1.476 . S
H589 C583 0.929 1_545 S
C590 O581 1.250 . S
C590 O582 1.258 . S
O591 Mn576 2.161 1_545 S
O591 C579 1.281 1_545 S
O592 Mn576 2.296 . S
O592 C579 1.236 . S
N593 Mn577 2.282 . S
N593 C594 1.328 . S
N593 C598 1.318 . S
C594 N593 1.328 . S
C594 C595 1.457 . S
C594 H599 0.929 . S
C595 C594 1.457 . S
C595 C596 1.291 . S
C595 H608 0.931 . S
C596 C595 1.291 . S
C596 C597 1.373 . S
C596 H609 0.929 . S
C597 C596 1.373 . S
C597 C598 1.396 . S
C597 C604 1.403 . S
C598 C588 1.476 . S
C598 N593 1.318 . S
C598 C597 1.396 . S
H599 C594 0.929 . S
O600 Mn576 2.393 . S
O600 C578 1.234 . S
O601 Mn576 2.212 . S
O601 Mn577 2.215 . S
O601 C578 1.283 . S
O602 Mn576 2.095 1_545 S
O602 C580 1.240 . S
O603 Mn577 2.117 1_545 S
O603 C580 1.264 . S
C604 C597 1.403 . S
C604 C605 1.399 . S
C604 H610 0.929 . S
C605 C585 1.449 . S
C605 C604 1.399 . S
C605 H611 0.930 . S
H606 C586 0.931 . S
H607 C587 0.930 . S
H608 C595 0.931 . S
H609 C596 0.929 . S
H610 C604 0.929 . S
H611 C605 0.930 . S
Mn612 O617 2.095 . S
Mn612 O627 2.162 . S
Mn612 O628 2.297 . S
Mn612 O636 2.385 . S
Mn612 O637 2.209 . S
Mn612 O638 2.094 . S
Mn613 O618 2.121 . S
Mn613 N620 2.257 . S
Mn613 N629 2.282 . S
Mn613 O637 2.215 . S
Mn613 O639 2.117 . S
C614 O636 1.234 . S
C614 O637 1.283 . S
C615 O627 1.281 . S
C615 O628 1.236 . S
C616 O638 1.240 . S
C616 O639 1.264 . S
O617 Mn612 2.095 . S
O617 C626 1.250 . S
O618 Mn613 2.121 . S
O618 C626 1.258 . S
C619 N620 1.326 . S
C619 C623 1.460 . S
C619 H625 0.929 . S
N620 Mn613 2.257 . S
N620 C619 1.326 . S
N620 C624 1.362 . S
C621 C622 1.258 . S
C621 C624 1.431 . S
C621 C641 1.449 . S
C622 C621 1.258 . S
C622 C623 1.477 . S
C622 H642 0.931 . S
C623 C619 1.460 . S
C623 C622 1.477 . S
C623 H643 0.930 . S
C624 N620 1.362 . S
C624 C621 1.431 . S
C624 C634 1.476 . S
H625 C619 0.929 . S
C626 O617 1.250 . S
C626 O618 1.258 . S
O627 Mn612 2.162 . S
O627 C615 1.281 . S
O628 Mn612 2.297 . S
O628 C615 1.236 . S
N629 Mn613 2.282 . S
N629 C630 1.328 . S
N629 C634 1.318 . S
C630 N629 1.328 . S
C630 C631 1.457 . S
C630 H635 0.929 . S
C631 C630 1.457 . S
C631 C632 1.291 . S
C631 H644 0.931 . S
C632 C631 1.291 . S
C632 C633 1.373 . S
C632 H645 0.929 . S
C633 C632 1.373 . S
C633 C634 1.396 . S
C633 C640 1.403 . S
C634 C624 1.476 . S
C634 N629 1.318 . S
C634 C633 1.396 . S
H635 C630 0.929 . S
O636 Mn612 2.385 . S
O636 C614 1.234 . S
O637 Mn612 2.209 . S
O637 Mn613 2.215 . S
O637 C614 1.283 . S
O638 Mn612 2.094 . S
O638 C616 1.240 . S
O639 Mn613 2.117 . S
O639 C616 1.264 . S
C640 C633 1.403 . S
C640 C641 1.399 . S
C640 H646 0.929 . S
C641 C621 1.449 . S
C641 C640 1.399 . S
C641 H647 0.930 . S
H642 C622 0.931 . S
H643 C623 0.930 . S
H644 C631 0.931 . S
H645 C632 0.929 . S
H646 C640 0.929 . S
H647 C641 0.930 . S
Mn648 O653 2.095 . S
Mn648 O663 2.162 . S
Mn648 O664 2.297 . S
Mn648 O672 2.385 . S
Mn648 O673 2.209 . S
Mn648 O674 2.094 . S
Mn649 O654 2.121 . S
Mn649 N656 2.257 . S
Mn649 N665 2.282 . S
Mn649 O673 2.215 . S
Mn649 O675 2.117 . S
C650 O672 1.234 . S
C650 O673 1.283 . S
C651 O663 1.281 . S
C651 O664 1.236 . S
C652 O674 1.240 . S
C652 O675 1.264 . S
O653 Mn648 2.095 . S
O653 C662 1.250 . S
O654 Mn649 2.121 . S
O654 C662 1.258 . S
C655 N656 1.326 . S
C655 C659 1.460 . S
C655 H661 0.929 . S
N656 Mn649 2.257 . S
N656 C655 1.326 . S
N656 C660 1.362 . S
C657 C658 1.258 . S
C657 C660 1.431 . S
C657 C677 1.449 . S
C658 C657 1.258 . S
C658 C659 1.477 . S
C658 H678 0.931 . S
C659 C655 1.460 . S
C659 C658 1.477 . S
C659 H679 0.930 . S
C660 N656 1.362 . S
C660 C657 1.431 . S
C660 C670 1.476 . S
H661 C655 0.929 . S
C662 O653 1.250 . S
C662 O654 1.258 . S
O663 Mn648 2.162 . S
O663 C651 1.281 . S
O664 Mn648 2.297 . S
O664 C651 1.236 . S
N665 Mn649 2.282 . S
N665 C666 1.328 . S
N665 C670 1.318 . S
C666 N665 1.328 . S
C666 C667 1.457 . S
C666 H671 0.929 . S
C667 C666 1.457 . S
C667 C668 1.291 . S
C667 H680 0.931 . S
C668 C667 1.291 . S
C668 C669 1.373 . S
C668 H681 0.929 . S
C669 C668 1.373 . S
C669 C670 1.396 . S
C669 C676 1.403 . S
C670 C660 1.476 . S
C670 N665 1.318 . S
C670 C669 1.396 . S
H671 C666 0.929 . S
O672 Mn648 2.385 . S
O672 C650 1.234 . S
O673 Mn648 2.209 . S
O673 Mn649 2.215 . S
O673 C650 1.283 . S
O674 Mn648 2.094 . S
O674 C652 1.240 . S
O675 Mn649 2.117 . S
O675 C652 1.264 . S
C676 C669 1.403 . S
C676 C677 1.399 . S
C676 H682 0.929 . S
C677 C657 1.449 . S
C677 C676 1.399 . S
C677 H683 0.930 . S
H678 C658 0.931 . S
H679 C659 0.930 . S
H680 C667 0.931 . S
H681 C668 0.929 . S
H682 C676 0.929 . S
H683 C677 0.930 . S
Mn684 O689 2.095 1_545 S
Mn684 O699 2.162 . S
Mn684 O700 2.297 . S
Mn684 O708 2.385 . S
Mn684 O709 2.209 . S
Mn684 O710 2.094 . S
Mn685 O690 2.121 1_545 S
Mn685 N692 2.257 . S
Mn685 N701 2.282 . S
Mn685 O709 2.215 . S
Mn685 O711 2.117 . S
C686 O708 1.234 . S
C686 O709 1.283 . S
C687 O699 1.281 . S
C687 O700 1.236 . S
C688 O710 1.240 . S
C688 O711 1.264 . S
O689 Mn684 2.095 1_565 S
O689 C698 1.250 . S
O690 Mn685 2.121 1_565 S
O690 C698 1.258 . S
C691 N692 1.326 . S
C691 C695 1.460 . S
C691 H697 0.929 . S
N692 Mn685 2.257 . S
N692 C691 1.326 . S
N692 C696 1.362 . S
C693 C694 1.258 . S
C693 C696 1.431 . S
C693 C713 1.449 . S
C694 C693 1.258 . S
C694 C695 1.477 . S
C694 H714 0.931 . S
C695 C691 1.460 . S
C695 C694 1.477 . S
C695 H715 0.930 . S
C696 N692 1.362 . S
C696 C693 1.431 . S
C696 C706 1.476 . S
H697 C691 0.929 . S
C698 O689 1.250 . S
C698 O690 1.258 . S
O699 Mn684 2.162 . S
O699 C687 1.281 . S
O700 Mn684 2.297 . S
O700 C687 1.236 . S
N701 Mn685 2.282 . S
N701 C702 1.328 . S
N701 C706 1.318 . S
C702 N701 1.328 . S
C702 C703 1.457 . S
C702 H707 0.929 . S
C703 C702 1.457 . S
C703 C704 1.291 . S
C703 H716 0.931 . S
C704 C703 1.291 . S
C704 C705 1.373 . S
C704 H717 0.929 . S
C705 C704 1.373 . S
C705 C706 1.396 . S
C705 C712 1.403 . S
C706 C696 1.476 . S
C706 N701 1.318 . S
C706 C705 1.396 . S
H707 C702 0.929 . S
O708 Mn684 2.385 . S
O708 C686 1.234 . S
O709 Mn684 2.209 . S
O709 Mn685 2.215 . S
O709 C686 1.283 . S
O710 Mn684 2.094 . S
O710 C688 1.240 . S
O711 Mn685 2.117 . S
O711 C688 1.264 . S
C712 C705 1.403 . S
C712 C713 1.399 . S
C712 H718 0.929 . S
C713 C693 1.449 . S
C713 C712 1.399 . S
C713 H719 0.930 . S
H714 C694 0.931 . S
H715 C695 0.930 . S
H716 C703 0.931 . S
H717 C704 0.929 . S
H718 C712 0.929 . S
H719 C713 0.930 . S
Mn720 O725 2.095 . S
Mn720 O735 2.162 . S
Mn720 O736 2.297 . S
Mn720 O744 2.385 . S
Mn720 O745 2.209 . S
Mn720 O746 2.094 . S
Mn721 O726 2.121 1_556 S
Mn721 N728 2.257 . S
Mn721 N737 2.282 . S
Mn721 O745 2.215 1_556 S
Mn721 O747 2.117 . S
C722 O744 1.234 . S
C722 O745 1.283 . S
C723 O735 1.281 . S
C723 O736 1.236 . S
C724 O746 1.240 1_556 S
C724 O747 1.264 . S
O725 Mn720 2.095 . S
O725 C734 1.250 . S
O726 Mn721 2.121 1_554 S
O726 C734 1.258 . S
C727 N728 1.326 1_554 S
C727 C731 1.460 . S
C727 H733 0.929 . S
N728 Mn721 2.257 . S
N728 C727 1.326 1_556 S
N728 C732 1.362 . S
C729 C730 1.258 . S
C729 C732 1.431 . S
C729 C749 1.449 . S
C730 C729 1.258 . S
C730 C731 1.477 1_556 S
C730 H750 0.931 . S
C731 C727 1.460 . S
C731 C730 1.477 1_554 S
C731 H751 0.930 . S
C732 N728 1.362 . S
C732 C729 1.431 . S
C732 C742 1.476 . S
H733 C727 0.929 . S
C734 O725 1.250 . S
C734 O726 1.258 . S
O735 Mn720 2.162 . S
O735 C723 1.281 . S
O736 Mn720 2.297 . S
O736 C723 1.236 . S
N737 Mn721 2.282 . S
N737 C738 1.328 . S
N737 C742 1.318 . S
C738 N737 1.328 . S
C738 C739 1.457 . S
C738 H743 0.929 . S
C739 C738 1.457 . S
C739 C740 1.291 . S
C739 H752 0.931 . S
C740 C739 1.291 . S
C740 C741 1.373 . S
C740 H753 0.929 . S
C741 C740 1.373 . S
C741 C742 1.396 . S
C741 C748 1.403 . S
C742 C732 1.476 . S
C742 N737 1.318 . S
C742 C741 1.396 . S
H743 C738 0.929 . S
O744 Mn720 2.385 . S
O744 C722 1.234 . S
O745 Mn720 2.209 . S
O745 Mn721 2.215 1_554 S
O745 C722 1.283 . S
O746 Mn720 2.094 . S
O746 C724 1.240 1_554 S
O747 Mn721 2.117 . S
O747 C724 1.264 . S
C748 C741 1.403 . S
C748 C749 1.399 . S
C748 H754 0.929 . S
C749 C729 1.449 . S
C749 C748 1.399 . S
C749 H755 0.930 . S
H750 C730 0.931 . S
H751 C731 0.930 . S
H752 C739 0.931 . S
H753 C740 0.929 . S
H754 C748 0.929 . S
H755 C749 0.930 . S
Mn756 O761 2.095 . S
Mn756 O771 2.162 . S
Mn756 O772 2.297 . S
Mn756 O780 2.385 . S
Mn756 O781 2.209 . S
Mn756 O782 2.094 . S
Mn757 O762 2.121 . S
Mn757 N764 2.257 . S
Mn757 N773 2.282 . S
Mn757 O781 2.215 . S
Mn757 O783 2.117 . S
C758 O780 1.234 . S
C758 O781 1.283 . S
C759 O771 1.281 . S
C759 O772 1.236 . S
C760 O782 1.240 . S
C760 O783 1.264 . S
O761 Mn756 2.095 . S
O761 C770 1.250 . S
O762 Mn757 2.121 . S
O762 C770 1.258 . S
C763 N764 1.326 . S
C763 C767 1.460 . S
C763 H769 0.929 . S
N764 Mn757 2.257 . S
N764 C763 1.326 . S
N764 C768 1.362 . S
C765 C766 1.258 . S
C765 C768 1.431 . S
C765 C785 1.449 . S
C766 C765 1.258 . S
C766 C767 1.477 . S
C766 H786 0.931 . S
C767 C763 1.460 . S
C767 C766 1.477 . S
C767 H787 0.930 . S
C768 N764 1.362 . S
C768 C765 1.431 . S
C768 C778 1.476 . S
H769 C763 0.929 . S
C770 O761 1.250 . S
C770 O762 1.258 . S
O771 Mn756 2.162 . S
O771 C759 1.281 . S
O772 Mn756 2.297 . S
O772 C759 1.236 . S
N773 Mn757 2.282 . S
N773 C774 1.328 . S
N773 C778 1.318 . S
C774 N773 1.328 . S
C774 C775 1.457 . S
C774 H779 0.929 . S
C775 C774 1.457 . S
C775 C776 1.291 . S
C775 H788 0.931 . S
C776 C775 1.291 . S
C776 C777 1.373 . S
C776 H789 0.929 . S
C777 C776 1.373 . S
C777 C778 1.396 . S
C777 C784 1.403 . S
C778 C768 1.476 . S
C778 N773 1.318 . S
C778 C777 1.396 . S
H779 C774 0.929 . S
O780 Mn756 2.385 . S
O780 C758 1.234 . S
O781 Mn756 2.209 . S
O781 Mn757 2.215 . S
O781 C758 1.283 . S
O782 Mn756 2.094 . S
O782 C760 1.240 . S
O783 Mn757 2.117 . S
O783 C760 1.264 . S
C784 C777 1.403 . S
C784 C785 1.399 . S
C784 H790 0.929 . S
C785 C765 1.449 . S
C785 C784 1.399 . S
C785 H791 0.930 . S
H786 C766 0.931 . S
H787 C767 0.930 . S
H788 C775 0.931 . S
H789 C776 0.929 . S
H790 C784 0.929 . S
H791 C785 0.930 . S
Mn792 O797 2.095 . S
Mn792 O807 2.162 . S
Mn792 O808 2.297 . S
Mn792 O816 2.385 . S
Mn792 O817 2.209 . S
Mn792 O818 2.094 . S
Mn793 O798 2.121 . S
Mn793 N800 2.257 . S
Mn793 N809 2.282 . S
Mn793 O817 2.215 . S
Mn793 O819 2.117 . S
C794 O816 1.234 . S
C794 O817 1.283 . S
C795 O807 1.281 . S
C795 O808 1.236 . S
C796 O818 1.240 . S
C796 O819 1.264 . S
O797 Mn792 2.095 . S
O797 C806 1.250 . S
O798 Mn793 2.121 . S
O798 C806 1.258 . S
C799 N800 1.326 . S
C799 C803 1.460 . S
C799 H805 0.929 . S
N800 Mn793 2.257 . S
N800 C799 1.326 . S
N800 C804 1.362 . S
C801 C802 1.258 . S
C801 C804 1.431 . S
C801 C821 1.449 . S
C802 C801 1.258 . S
C802 C803 1.477 . S
C802 H822 0.931 . S
C803 C799 1.460 . S
C803 C802 1.477 . S
C803 H823 0.930 . S
C804 N800 1.362 . S
C804 C801 1.431 . S
C804 C814 1.476 . S
H805 C799 0.929 . S
C806 O797 1.250 . S
C806 O798 1.258 . S
O807 Mn792 2.162 . S
O807 C795 1.281 . S
O808 Mn792 2.297 . S
O808 C795 1.236 . S
N809 Mn793 2.282 . S
N809 C810 1.328 . S
N809 C814 1.318 . S
C810 N809 1.328 . S
C810 C811 1.457 . S
C810 H815 0.929 . S
C811 C810 1.457 . S
C811 C812 1.291 . S
C811 H824 0.931 . S
C812 C811 1.291 . S
C812 C813 1.373 . S
C812 H825 0.929 . S
C813 C812 1.373 . S
C813 C814 1.396 . S
C813 C820 1.403 . S
C814 C804 1.476 . S
C814 N809 1.318 . S
C814 C813 1.396 . S
H815 C810 0.929 . S
O816 Mn792 2.385 . S
O816 C794 1.234 . S
O817 Mn792 2.209 . S
O817 Mn793 2.215 . S
O817 C794 1.283 . S
O818 Mn792 2.094 . S
O818 C796 1.240 . S
O819 Mn793 2.117 . S
O819 C796 1.264 . S
C820 C813 1.403 . S
C820 C821 1.399 . S
C820 H826 0.929 . S
C821 C801 1.449 . S
C821 C820 1.399 . S
C821 H827 0.930 . S
H822 C802 0.931 . S
H823 C803 0.930 . S
H824 C811 0.931 . S
H825 C812 0.929 . S
H826 C820 0.929 . S
H827 C821 0.930 . S
Mn828 O833 2.095 . S
Mn828 O843 2.162 . S
Mn828 O844 2.297 . S
Mn828 O852 2.385 . S
Mn828 O853 2.209 . S
Mn828 O854 2.094 . S
Mn829 O834 2.121 . S
Mn829 N836 2.257 . S
Mn829 N845 2.282 . S
Mn829 O853 2.215 . S
Mn829 O855 2.117 . S
C830 O852 1.234 . S
C830 O853 1.283 . S
C831 O843 1.281 . S
C831 O844 1.236 . S
C832 O854 1.240 . S
C832 O855 1.264 . S
O833 Mn828 2.095 . S
O833 C842 1.250 . S
O834 Mn829 2.121 . S
O834 C842 1.258 . S
C835 N836 1.326 . S
C835 C839 1.460 . S
C835 H841 0.929 . S
N836 Mn829 2.257 . S
N836 C835 1.326 . S
N836 C840 1.362 . S
C837 C838 1.258 . S
C837 C840 1.431 . S
C837 C857 1.449 . S
C838 C837 1.258 . S
C838 C839 1.477 . S
C838 H858 0.931 . S
C839 C835 1.460 . S
C839 C838 1.477 . S
C839 H859 0.930 . S
C840 N836 1.362 . S
C840 C837 1.431 . S
C840 C850 1.476 . S
H841 C835 0.929 . S
C842 O833 1.250 . S
C842 O834 1.258 . S
O843 Mn828 2.162 . S
O843 C831 1.281 . S
O844 Mn828 2.297 . S
O844 C831 1.236 . S
N845 Mn829 2.282 . S
N845 C846 1.328 . S
N845 C850 1.318 . S
C846 N845 1.328 . S
C846 C847 1.457 . S
C846 H851 0.929 . S
C847 C846 1.457 . S
C847 C848 1.291 . S
C847 H860 0.931 . S
C848 C847 1.291 . S
C848 C849 1.373 . S
C848 H861 0.929 . S
C849 C848 1.373 . S
C849 C850 1.396 . S
C849 C856 1.403 . S
C850 C840 1.476 . S
C850 N845 1.318 . S
C850 C849 1.396 . S
H851 C846 0.929 . S
O852 Mn828 2.385 . S
O852 C830 1.234 . S
O853 Mn828 2.209 . S
O853 Mn829 2.215 . S
O853 C830 1.283 . S
O854 Mn828 2.094 . S
O854 C832 1.240 . S
O855 Mn829 2.117 . S
O855 C832 1.264 . S
C856 C849 1.403 . S
C856 C857 1.399 . S
C856 H862 0.929 . S
C857 C837 1.449 . S
C857 C856 1.399 . S
C857 H863 0.930 . S
H858 C838 0.931 . S
H859 C839 0.930 . S
H860 C847 0.931 . S
H861 C848 0.929 . S
H862 C856 0.929 . S
H863 C857 0.930 . S
Tb864 C866 2.809 . S
Tb864 O884 2.484 . S
Tb864 O885 2.453 . S
Tb864 O886 2.658 1_655 S
Tb864 O887 2.409 1_654 S
Tb864 O888 2.378 1_655 S
Tb864 O892 2.325 1_655 S
Tb864 O895 2.341 1_645 S
Tb865 C875 2.809 1_545 S
Tb865 O886 2.325 . S
Tb865 O889 2.341 . S
Tb865 O890 2.484 1_545 S
Tb865 O891 2.440 . S
Tb865 O892 2.658 . S
Tb865 O893 2.409 . S
Tb865 O894 2.378 1_545 S
C866 Tb864 2.809 . S
C866 C867 1.514 . S
C866 O884 1.248 . S
C866 O885 1.286 . S
C867 C866 1.514 . S
C867 C868 1.359 . S
C867 C872 1.348 1_554 S
C868 C867 1.359 . S
C868 C869 1.380 . S
C868 H896 0.929 . S
C869 C868 1.380 . S
C869 C870 1.347 . S
C869 H897 0.931 . S
C870 C869 1.347 . S
C870 C871 1.369 1_554 S
C871 C870 1.369 1_556 S
C871 C872 1.408 . S
C871 H898 0.930 . S
C872 C867 1.348 1_556 S
C872 C871 1.408 . S
C872 H899 0.930 . S
C873 O886 1.281 1_556 S
C873 O887 1.254 . S
C874 O888 1.236 . S
C874 O889 1.266 . S
C875 Tb865 2.809 1_565 S
C875 C876 1.514 . S
C875 O890 1.248 . S
C875 O891 1.266 1_565 S
C876 C875 1.514 . S
C876 C877 1.359 . S
C876 C881 1.348 . S
C877 C876 1.359 . S
C877 C878 1.380 . S
C877 H900 0.929 . S
C878 C877 1.380 . S
C878 C879 1.347 . S
C878 H901 0.931 . S
C879 C878 1.347 . S
C879 C880 1.369 . S
C880 C879 1.369 . S
C880 C881 1.408 . S
C880 H902 0.930 . S
C881 C876 1.348 . S
C881 C880 1.408 . S
C881 H903 0.930 . S
C882 O892 1.281 . S
C882 O893 1.254 . S
C883 O894 1.236 . S
C883 O895 1.266 . S
O884 Tb864 2.484 . S
O884 C866 1.248 . S
O885 Tb864 2.453 . S
O885 C866 1.286 . S
O886 Tb864 2.658 1_455 S
O886 Tb865 2.325 . S
O886 C873 1.281 1_554 S
O887 Tb864 2.409 1_456 S
O887 C873 1.254 . S
O888 Tb864 2.378 1_455 S
O888 C874 1.236 . S
O889 Tb865 2.341 . S
O889 C874 1.266 . S
O890 Tb865 2.484 1_565 S
O890 C875 1.248 . S
O891 Tb865 2.440 . S
O891 C875 1.266 1_545 S
O892 Tb864 2.325 1_455 S
O892 Tb865 2.658 . S
O892 C882 1.281 . S
O893 Tb865 2.409 . S
O893 C882 1.254 . S
O894 Tb865 2.378 1_565 S
O894 C883 1.236 . S
O895 Tb864 2.341 1_465 S
O895 C883 1.266 . S
H896 C868 0.929 . S
H897 C869 0.931 . S
H898 C871 0.930 . S
H899 C872 0.930 . S
H900 C877 0.929 . S
H901 C878 0.931 . S
H902 C880 0.930 . S
H903 C881 0.930 . S
Tb904 C906 2.809 . S
Tb904 O924 2.484 . S
Tb904 O925 2.440 . S
Tb904 O926 2.658 . S
Tb904 O927 2.409 . S
Tb904 O928 2.378 . S
Tb904 O932 2.325 . S
Tb904 O935 2.341 . S
Tb905 C915 2.809 . S
Tb905 O926 2.325 . S
Tb905 O929 2.341 . S
Tb905 O930 2.484 . S
Tb905 O931 2.440 . S
Tb905 O932 2.658 . S
Tb905 O933 2.409 . S
Tb905 O934 2.378 . S
C906 Tb904 2.809 . S
C906 C907 1.514 . S
C906 O924 1.248 . S
C906 O925 1.266 . S
C907 C906 1.514 . S
C907 C908 1.359 . S
C907 C912 1.348 . S
C908 C907 1.359 . S
C908 C909 1.380 . S
C908 H936 0.929 . S
C909 C908 1.380 . S
C909 C910 1.347 . S
C909 H937 0.931 . S
C910 C909 1.347 . S
C910 C911 1.369 . S
C911 C910 1.369 . S
C911 C912 1.408 . S
C911 H938 0.930 . S
C912 C907 1.348 . S
C912 C911 1.408 . S
C912 H939 0.930 . S
C913 O926 1.281 . S
C913 O927 1.254 . S
C914 O928 1.236 . S
C914 O929 1.266 . S
C915 Tb905 2.809 . S
C915 C916 1.514 . S
C915 O930 1.248 . S
C915 O931 1.266 . S
C916 C915 1.514 . S
C916 C917 1.359 . S
C916 C921 1.348 . S
C917 C916 1.359 . S
C917 C918 1.380 . S
C917 H940 0.929 . S
C918 C917 1.380 . S
C918 C919 1.347 . S
C918 H941 0.931 . S
C919 C918 1.347 . S
C919 C920 1.369 . S
C920 C919 1.369 . S
C920 C921 1.408 . S
C920 H942 0.930 . S
C921 C916 1.348 . S
C921 C920 1.408 . S
C921 H943 0.930 . S
C922 O932 1.281 . S
C922 O933 1.254 . S
C923 O934 1.236 . S
C923 O935 1.266 . S
O924 Tb904 2.484 . S
O924 C906 1.248 . S
O925 Tb904 2.440 . S
O925 C906 1.266 . S
O926 Tb904 2.658 . S
O926 Tb905 2.325 . S
O926 C913 1.281 . S
O927 Tb904 2.409 . S
O927 C913 1.254 . S
O928 Tb904 2.378 . S
O928 C914 1.236 . S
O929 Tb905 2.341 . S
O929 C914 1.266 . S
O930 Tb905 2.484 . S
O930 C915 1.248 . S
O931 Tb905 2.440 . S
O931 C915 1.266 . S
O932 Tb904 2.325 . S
O932 Tb905 2.658 . S
O932 C922 1.281 . S
O933 Tb905 2.409 . S
O933 C922 1.254 . S
O934 Tb905 2.378 . S
O934 C923 1.236 . S
O935 Tb904 2.341 . S
O935 C923 1.266 . S
H936 C908 0.929 . S
H937 C909 0.931 . S
H938 C911 0.930 . S
H939 C912 0.930 . S
H940 C917 0.929 . S
H941 C918 0.931 . S
H942 C920 0.930 . S
H943 C921 0.930 . S
Tb944 C946 2.809 . S
Tb944 O964 2.484 . S
Tb944 O965 2.440 . S
Tb944 O966 2.658 . S
Tb944 O967 2.409 . S
Tb944 O968 2.378 1_545 S
Tb944 O972 2.325 . S
Tb944 O975 2.341 . S
Tb945 C955 2.809 . S
Tb945 O966 2.325 . S
Tb945 O969 2.341 1_545 S
Tb945 O970 2.484 . S
Tb945 O971 2.440 . S
Tb945 O972 2.658 . S
Tb945 O973 2.409 . S
Tb945 O974 2.378 . S
C946 Tb944 2.809 . S
C946 C947 1.514 1_545 S
C946 O964 1.248 . S
C946 O965 1.266 . S
C947 C946 1.514 1_565 S
C947 C948 1.359 . S
C947 C952 1.348 . S
C948 C947 1.359 . S
C948 C949 1.380 . S
C948 H976 0.929 . S
C949 C948 1.380 . S
C949 C950 1.347 . S
C949 H977 0.931 . S
C950 C949 1.347 . S
C950 C951 1.369 . S
C951 C950 1.369 . S
C951 C952 1.408 . S
C951 H978 0.930 . S
C952 C947 1.348 . S
C952 C951 1.408 . S
C952 H979 0.930 . S
C953 O966 1.281 . S
C953 O967 1.254 . S
C954 O968 1.236 . S
C954 O969 1.266 . S
C955 Tb945 2.809 . S
C955 C956 1.514 . S
C955 O970 1.248 . S
C955 O971 1.266 . S
C956 C955 1.514 . S
C956 C957 1.359 . S
C956 C961 1.348 . S
C957 C956 1.359 . S
C957 C958 1.380 . S
C957 H980 0.929 . S
C958 C957 1.380 . S
C958 C959 1.347 . S
C958 H981 0.931 . S
C959 C958 1.347 . S
C959 C960 1.369 . S
C960 C959 1.369 . S
C960 C961 1.408 . S
C960 H982 0.930 . S
C961 C956 1.348 . S
C961 C960 1.408 . S
C961 H983 0.930 . S
C962 O972 1.281 . S
C962 O973 1.254 . S
C963 O974 1.236 . S
C963 O975 1.266 . S
O964 Tb944 2.484 . S
O964 C946 1.248 . S
O965 Tb944 2.440 . S
O965 C946 1.266 . S
O966 Tb944 2.658 . S
O966 Tb945 2.325 . S
O966 C953 1.281 . S
O967 Tb944 2.409 . S
O967 C953 1.254 . S
O968 Tb944 2.378 1_565 S
O968 C954 1.236 . S
O969 Tb945 2.341 1_565 S
O969 C954 1.266 . S
O970 Tb945 2.484 . S
O970 C955 1.248 . S
O971 Tb945 2.440 . S
O971 C955 1.266 . S
O972 Tb944 2.325 . S
O972 Tb945 2.658 . S
O972 C962 1.281 . S
O973 Tb945 2.409 . S
O973 C962 1.254 . S
O974 Tb945 2.378 . S
O974 C963 1.236 . S
O975 Tb944 2.341 . S
O975 C963 1.266 . S
H976 C948 0.929 . S
H977 C949 0.931 . S
H978 C951 0.930 . S
H979 C952 0.930 . S
H980 C957 0.929 . S
H981 C958 0.931 . S
H982 C960 0.930 . S
H983 C961 0.930 . S
Tb984 C986 2.809 . S
Tb984 O1004 2.484 . S
Tb984 O1005 2.440 . S
Tb984 O1006 2.658 . S
Tb984 O1007 2.409 . S
Tb984 O1008 2.378 . S
Tb984 O1012 2.325 . S
Tb984 O1015 2.341 . S
Tb985 C995 2.809 . S
Tb985 O1006 2.325 . S
Tb985 O1009 2.341 . S
Tb985 O1010 2.484 . S
Tb985 O1011 2.440 . S
Tb985 O1012 2.658 . S
Tb985 O1013 2.409 . S
Tb985 O1014 2.378 . S
C986 Tb984 2.809 . S
C986 C987 1.514 . S
C986 O1004 1.248 . S
C986 O1005 1.266 . S
C987 C986 1.514 . S
C987 C988 1.359 . S
C987 C992 1.348 . S
C988 C987 1.359 . S
C988 C989 1.380 . S
C988 H1016 0.929 . S
C989 C988 1.380 . S
C989 C990 1.347 . S
C989 H1017 0.931 . S
C990 C989 1.347 . S
C990 C991 1.369 . S
C991 C990 1.369 . S
C991 C992 1.408 . S
C991 H1018 0.930 . S
C992 C987 1.348 . S
C992 C991 1.408 . S
C992 H1019 0.930 . S
C993 O1006 1.281 . S
C993 O1007 1.254 . S
C994 O1008 1.236 . S
C994 O1009 1.266 . S
C995 Tb985 2.809 . S
C995 C996 1.514 . S
C995 O1010 1.248 . S
C995 O1011 1.266 . S
C996 C995 1.514 . S
C996 C997 1.359 . S
C996 C1001 1.348 . S
C997 C996 1.359 . S
C997 C998 1.380 . S
C997 H1020 0.929 . S
C998 C997 1.380 . S
C998 C999 1.347 . S
C998 H1021 0.931 . S
C999 C998 1.347 . S
C999 C1000 1.369 . S
C1000 C999 1.369 . S
C1000 C1001 1.408 . S
C1000 H1022 0.930 . S
C1001 C996 1.348 . S
C1001 C1000 1.408 . S
C1001 H1023 0.930 . S
C1002 O1012 1.281 . S
C1002 O1013 1.254 . S
C1003 O1014 1.236 . S
C1003 O1015 1.266 . S
O1004 Tb984 2.484 . S
O1004 C986 1.248 . S
O1005 Tb984 2.440 . S
O1005 C986 1.266 . S
O1006 Tb984 2.658 . S
O1006 Tb985 2.325 . S
O1006 C993 1.281 . S
O1007 Tb984 2.409 . S
O1007 C993 1.254 . S
O1008 Tb984 2.378 . S
O1008 C994 1.236 . S
O1009 Tb985 2.341 . S
O1009 C994 1.266 . S
O1010 Tb985 2.484 . S
O1010 C995 1.248 . S
O1011 Tb985 2.440 . S
O1011 C995 1.266 . S
O1012 Tb984 2.325 . S
O1012 Tb985 2.658 . S
O1012 C1002 1.281 . S
O1013 Tb985 2.409 . S
O1013 C1002 1.254 . S
O1014 Tb985 2.378 . S
O1014 C1003 1.236 . S
O1015 Tb984 2.341 . S
O1015 C1003 1.266 . S
H1016 C988 0.929 . S
H1017 C989 0.931 . S
H1018 C991 0.930 . S
H1019 C992 0.930 . S
H1020 C997 0.929 . S
H1021 C998 0.931 . S
H1022 C1000 0.930 . S
H1023 C1001 0.930 . S
Tb1024 C1026 2.809 . S
Tb1024 O1044 2.484 . S
Tb1024 O1045 2.473 . S
Tb1024 O1046 2.658 . S
Tb1024 O1047 2.409 1_455 S
Tb1024 O1048 2.378 . S
Tb1024 O1052 2.325 . S
Tb1024 O1055 2.341 . S
Tb1025 C1035 2.809 . S
Tb1025 O1046 2.325 1_565 S
Tb1025 O1049 2.320 1_565 S
Tb1025 O1050 2.484 . S
Tb1025 O1051 2.440 . S
Tb1025 O1052 2.658 1_565 S
Tb1025 O1053 2.409 1_565 S
Tb1025 O1054 2.378 1_565 S
C1026 Tb1024 2.809 . S
C1026 C1027 1.514 . S
C1026 O1044 1.248 . S
C1026 O1045 1.301 . S
C1027 C1026 1.514 . S
C1027 C1028 1.359 . S
C1027 C1032 1.348 1_455 S
C1028 C1027 1.359 . S
C1028 C1029 1.380 . S
C1028 H1056 0.929 . S
C1029 C1028 1.380 . S
C1029 C1030 1.347 1_455 S
C1029 H1057 0.931 . S
C1030 C1029 1.347 1_655 S
C1030 C1031 1.368 . S
C1031 C1030 1.368 . S
C1031 C1032 1.408 . S
C1031 H1058 0.930 . S
C1032 C1027 1.348 1_655 S
C1032 C1031 1.408 . S
C1032 H1059 0.930 . S
C1033 O1046 1.281 1_655 S
C1033 O1047 1.254 . S
C1034 O1048 1.236 . S
C1034 O1049 1.307 . S
C1035 Tb1025 2.809 . S
C1035 C1036 1.514 . S
C1035 O1050 1.248 . S
C1035 O1051 1.266 . S
C1036 C1035 1.514 . S
C1036 C1037 1.359 . S
C1036 C1041 1.348 . S
C1037 C1036 1.359 . S
C1037 C1038 1.380 . S
C1037 H1060 0.929 . S
C1038 C1037 1.380 . S
C1038 C1039 1.347 . S
C1038 H1061 0.931 . S
C1039 C1038 1.347 . S
C1039 C1040 1.369 . S
C1040 C1039 1.369 . S
C1040 C1041 1.408 . S
C1040 H1062 0.930 . S
C1041 C1036 1.348 . S
C1041 C1040 1.408 . S
C1041 H1063 0.930 . S
C1042 O1052 1.281 . S
C1042 O1053 1.254 . S
C1043 O1054 1.236 . S
C1043 O1055 1.266 . S
O1044 Tb1024 2.484 . S
O1044 C1026 1.248 . S
O1045 Tb1024 2.473 . S
O1045 C1026 1.301 . S
O1046 Tb1024 2.658 . S
O1046 Tb1025 2.325 1_545 S
O1046 C1033 1.281 1_455 S
O1047 Tb1024 2.409 1_655 S
O1047 C1033 1.254 . S
O1048 Tb1024 2.378 . S
O1048 C1034 1.236 . S
O1049 Tb1025 2.320 1_545 S
O1049 C1034 1.307 . S
O1050 Tb1025 2.484 . S
O1050 C1035 1.248 . S
O1051 Tb1025 2.440 . S
O1051 C1035 1.266 . S
O1052 Tb1024 2.325 . S
O1052 Tb1025 2.658 1_545 S
O1052 C1042 1.281 . S
O1053 Tb1025 2.409 1_545 S
O1053 C1042 1.254 . S
O1054 Tb1025 2.378 1_545 S
O1054 C1043 1.236 . S
O1055 Tb1024 2.341 . S
O1055 C1043 1.266 . S
H1056 C1028 0.929 . S
H1057 C1029 0.931 . S
H1058 C1031 0.930 . S
H1059 C1032 0.930 . S
H1060 C1037 0.929 . S
H1061 C1038 0.931 . S
H1062 C1040 0.930 . S
H1063 C1041 0.930 . S
Tb1064 C1066 2.809 . S
Tb1064 O1084 2.484 . S
Tb1064 O1085 2.440 . S
Tb1064 O1086 2.658 . S
Tb1064 O1087 2.409 . S
Tb1064 O1088 2.378 . S
Tb1064 O1092 2.325 . S
Tb1064 O1095 2.341 . S
Tb1065 C1075 2.809 . S
Tb1065 O1086 2.325 . S
Tb1065 O1089 2.341 . S
Tb1065 O1090 2.484 . S
Tb1065 O1091 2.440 . S
Tb1065 O1092 2.658 . S
Tb1065 O1093 2.409 . S
Tb1065 O1094 2.378 . S
C1066 Tb1064 2.809 . S
C1066 C1067 1.514 . S
C1066 O1084 1.248 . S
C1066 O1085 1.266 . S
C1067 C1066 1.514 . S
C1067 C1068 1.359 . S
C1067 C1072 1.348 . S
C1068 C1067 1.359 . S
C1068 C1069 1.380 . S
C1068 H1096 0.929 . S
C1069 C1068 1.380 . S
C1069 C1070 1.347 . S
C1069 H1097 0.931 . S
C1070 C1069 1.347 . S
C1070 C1071 1.369 . S
C1071 C1070 1.369 . S
C1071 C1072 1.408 . S
C1071 H1098 0.930 . S
C1072 C1067 1.348 . S
C1072 C1071 1.408 . S
C1072 H1099 0.930 . S
C1073 O1086 1.281 . S
C1073 O1087 1.254 . S
C1074 O1088 1.236 . S
C1074 O1089 1.266 . S
C1075 Tb1065 2.809 . S
C1075 C1076 1.514 . S
C1075 O1090 1.248 . S
C1075 O1091 1.266 . S
C1076 C1075 1.514 . S
C1076 C1077 1.359 . S
C1076 C1081 1.348 . S
C1077 C1076 1.359 . S
C1077 C1078 1.380 . S
C1077 H1100 0.929 . S
C1078 C1077 1.380 . S
C1078 C1079 1.347 . S
C1078 H1101 0.931 . S
C1079 C1078 1.347 . S
C1079 C1080 1.369 . S
C1080 C1079 1.369 . S
C1080 C1081 1.408 . S
C1080 H1102 0.930 . S
C1081 C1076 1.348 . S
C1081 C1080 1.408 . S
C1081 H1103 0.930 . S
C1082 O1092 1.281 . S
C1082 O1093 1.254 . S
C1083 O1094 1.236 . S
C1083 O1095 1.266 . S
O1084 Tb1064 2.484 . S
O1084 C1066 1.248 . S
O1085 Tb1064 2.440 . S
O1085 C1066 1.266 . S
O1086 Tb1064 2.658 . S
O1086 Tb1065 2.325 . S
O1086 C1073 1.281 . S
O1087 Tb1064 2.409 . S
O1087 C1073 1.254 . S
O1088 Tb1064 2.378 . S
O1088 C1074 1.236 . S
O1089 Tb1065 2.341 . S
O1089 C1074 1.266 . S
O1090 Tb1065 2.484 . S
O1090 C1075 1.248 . S
O1091 Tb1065 2.440 . S
O1091 C1075 1.266 . S
O1092 Tb1064 2.325 . S
O1092 Tb1065 2.658 . S
O1092 C1082 1.281 . S
O1093 Tb1065 2.409 . S
O1093 C1082 1.254 . S
O1094 Tb1065 2.378 . S
O1094 C1083 1.236 . S
O1095 Tb1064 2.341 . S
O1095 C1083 1.266 . S
H1096 C1068 0.929 . S
H1097 C1069 0.931 . S
H1098 C1071 0.930 . S
H1099 C1072 0.930 . S
H1100 C1077 0.929 . S
H1101 C1078 0.931 . S
H1102 C1080 0.930 . S
H1103 C1081 0.930 . S
Tb1104 C1106 2.809 . S
Tb1104 O1124 2.484 1_545 S
Tb1104 O1125 2.440 . S
Tb1104 O1126 2.658 . S
Tb1104 O1127 2.409 . S
Tb1104 O1128 2.378 . S
Tb1104 O1132 2.356 . S
Tb1104 O1135 2.341 . S
Tb1105 C1115 2.809 . S
Tb1105 O1126 2.325 . S
Tb1105 O1129 2.341 . S
Tb1105 O1130 2.484 . S
Tb1105 O1131 2.440 . S
Tb1105 O1132 2.671 . S
Tb1105 O1133 2.409 1_545 S
Tb1105 O1134 2.378 . S
C1106 Tb1104 2.809 . S
C1106 C1107 1.514 1_545 S
C1106 O1124 1.248 1_545 S
C1106 O1125 1.266 . S
C1107 C1106 1.514 1_565 S
C1107 C1108 1.359 . S
C1107 C1112 1.348 1_565 S
C1108 C1107 1.359 . S
C1108 C1109 1.380 . S
C1108 H1136 0.929 . S
C1109 C1108 1.380 . S
C1109 C1110 1.347 . S
C1109 H1137 0.931 . S
C1110 C1109 1.347 . S
C1110 C1111 1.369 1_565 S
C1111 C1110 1.369 1_545 S
C1111 C1112 1.408 . S
C1111 H1138 0.930 . S
C1112 C1107 1.348 1_545 S
C1112 C1111 1.408 . S
C1112 H1139 0.930 . S
C1113 O1126 1.281 . S
C1113 O1127 1.254 . S
C1114 O1128 1.236 . S
C1114 O1129 1.266 . S
C1115 Tb1105 2.809 . S
C1115 C1116 1.514 . S
C1115 O1130 1.248 . S
C1115 O1131 1.266 . S
C1116 C1115 1.514 . S
C1116 C1117 1.359 . S
C1116 C1121 1.348 . S
C1117 C1116 1.359 . S
C1117 C1118 1.380 . S
C1117 H1140 0.929 . S
C1118 C1117 1.380 . S
C1118 C1119 1.347 . S
C1118 H1141 0.931 . S
C1119 C1118 1.347 . S
C1119 C1120 1.369 . S
C1120 C1119 1.369 . S
C1120 C1121 1.408 . S
C1120 H1142 0.930 . S
C1121 C1116 1.348 . S
C1121 C1120 1.408 . S
C1121 H1143 0.930 . S
C1122 O1132 1.249 1_565 S
C1122 O1133 1.254 . S
C1123 O1134 1.236 . S
C1123 O1135 1.266 . S
O1124 Tb1104 2.484 1_565 S
O1124 C1106 1.248 1_565 S
O1125 Tb1104 2.440 . S
O1125 C1106 1.266 . S
O1126 Tb1104 2.658 . S
O1126 Tb1105 2.325 . S
O1126 C1113 1.281 . S
O1127 Tb1104 2.409 . S
O1127 C1113 1.254 . S
O1128 Tb1104 2.378 . S
O1128 C1114 1.236 . S
O1129 Tb1105 2.341 . S
O1129 C1114 1.266 . S
O1130 Tb1105 2.484 . S
O1130 C1115 1.248 . S
O1131 Tb1105 2.440 . S
O1131 C1115 1.266 . S
O1132 Tb1104 2.356 . S
O1132 Tb1105 2.671 . S
O1132 C1122 1.249 1_545 S
O1133 Tb1105 2.409 1_565 S
O1133 C1122 1.254 . S
O1134 Tb1105 2.378 . S
O1134 C1123 1.236 . S
O1135 Tb1104 2.341 . S
O1135 C1123 1.266 . S
H1136 C1108 0.929 . S
H1137 C1109 0.931 . S
H1138 C1111 0.930 . S
H1139 C1112 0.930 . S
H1140 C1117 0.929 . S
H1141 C1118 0.931 . S
H1142 C1120 0.930 . S
H1143 C1121 0.930 . S
Tb1144 C1146 2.809 . S
Tb1144 O1164 2.484 . S
Tb1144 O1165 2.440 . S
Tb1144 O1166 2.658 . S
Tb1144 O1167 2.409 . S
Tb1144 O1168 2.378 . S
Tb1144 O1172 2.325 . S
Tb1144 O1175 2.341 . S
Tb1145 C1155 2.809 . S
Tb1145 O1166 2.325 . S
Tb1145 O1169 2.341 . S
Tb1145 O1170 2.484 . S
Tb1145 O1171 2.440 . S
Tb1145 O1172 2.658 . S
Tb1145 O1173 2.409 . S
Tb1145 O1174 2.378 . S
C1146 Tb1144 2.809 . S
C1146 C1147 1.514 . S
C1146 O1164 1.248 . S
C1146 O1165 1.266 . S
C1147 C1146 1.514 . S
C1147 C1148 1.359 . S
C1147 C1152 1.348 . S
C1148 C1147 1.359 . S
C1148 C1149 1.380 . S
C1148 H1176 0.929 . S
C1149 C1148 1.380 . S
C1149 C1150 1.347 . S
C1149 H1177 0.931 . S
C1150 C1149 1.347 . S
C1150 C1151 1.369 . S
C1151 C1150 1.369 . S
C1151 C1152 1.408 . S
C1151 H1178 0.930 . S
C1152 C1147 1.348 . S
C1152 C1151 1.408 . S
C1152 H1179 0.930 . S
C1153 O1166 1.281 . S
C1153 O1167 1.254 . S
C1154 O1168 1.236 . S
C1154 O1169 1.266 . S
C1155 Tb1145 2.809 . S
C1155 C1156 1.514 . S
C1155 O1170 1.248 . S
C1155 O1171 1.266 . S
C1156 C1155 1.514 . S
C1156 C1157 1.359 . S
C1156 C1161 1.348 . S
C1157 C1156 1.359 . S
C1157 C1158 1.380 . S
C1157 H1180 0.929 . S
C1158 C1157 1.380 . S
C1158 C1159 1.347 . S
C1158 H1181 0.931 . S
C1159 C1158 1.347 . S
C1159 C1160 1.369 . S
C1160 C1159 1.369 . S
C1160 C1161 1.408 . S
C1160 H1182 0.930 . S
C1161 C1156 1.348 . S
C1161 C1160 1.408 . S
C1161 H1183 0.930 . S
C1162 O1172 1.281 . S
C1162 O1173 1.254 . S
C1163 O1174 1.236 . S
C1163 O1175 1.266 . S
O1164 Tb1144 2.484 . S
O1164 C1146 1.248 . S
O1165 Tb1144 2.440 . S
O1165 C1146 1.266 . S
O1166 Tb1144 2.658 . S
O1166 Tb1145 2.325 . S
O1166 C1153 1.281 . S
O1167 Tb1144 2.409 . S
O1167 C1153 1.254 . S
O1168 Tb1144 2.378 . S
O1168 C1154 1.236 . S
O1169 Tb1145 2.341 . S
O1169 C1154 1.266 . S
O1170 Tb1145 2.484 . S
O1170 C1155 1.248 . S
O1171 Tb1145 2.440 . S
O1171 C1155 1.266 . S
O1172 Tb1144 2.325 . S
O1172 Tb1145 2.658 . S
O1172 C1162 1.281 . S
O1173 Tb1145 2.409 . S
O1173 C1162 1.254 . S
O1174 Tb1145 2.378 . S
O1174 C1163 1.236 . S
O1175 Tb1144 2.341 . S
O1175 C1163 1.266 . S
H1176 C1148 0.929 . S
H1177 C1149 0.931 . S
H1178 C1151 0.930 . S
H1179 C1152 0.930 . S
H1180 C1157 0.929 . S
H1181 C1158 0.931 . S
H1182 C1160 0.930 . S
H1183 C1161 0.930 . S
Tb1184 C1186 2.809 . S
Tb1184 O1204 2.484 . S
Tb1184 O1205 2.440 . S
Tb1184 O1206 2.658 . S
Tb1184 O1207 2.409 . S
Tb1184 O1208 2.378 . S
Tb1184 O1212 2.325 . S
Tb1184 O1215 2.341 . S
Tb1185 C1195 2.809 . S
Tb1185 O1206 2.325 . S
Tb1185 O1209 2.328 1_554 S
Tb1185 O1210 2.484 . S
Tb1185 O1211 2.440 . S
Tb1185 O1212 2.658 . S
Tb1185 O1213 2.409 . S
Tb1185 O1214 2.378 . S
C1186 Tb1184 2.809 . S
C1186 C1187 1.514 . S
C1186 O1204 1.248 . S
C1186 O1205 1.266 . S
C1187 C1186 1.514 . S
C1187 C1188 1.359 1_554 S
C1187 C1192 1.348 . S
C1188 C1187 1.359 1_556 S
C1188 C1189 1.380 . S
C1188 H1216 0.929 . S
C1189 C1188 1.380 . S
C1189 C1190 1.347 . S
C1189 H1217 0.931 . S
C1190 C1189 1.347 . S
C1190 C1191 1.369 . S
C1191 C1190 1.369 . S
C1191 C1192 1.408 1_556 S
C1191 H1218 0.930 . S
C1192 C1187 1.348 . S
C1192 C1191 1.408 1_554 S
C1192 H1219 0.930 . S
C1193 O1206 1.281 . S
C1193 O1207 1.254 . S
C1194 O1208 1.236 1_556 S
C1194 O1209 1.270 . S
C1195 Tb1185 2.809 . S
C1195 C1196 1.514 . S
C1195 O1210 1.248 . S
C1195 O1211 1.266 . S
C1196 C1195 1.514 . S
C1196 C1197 1.359 . S
C1196 C1201 1.348 . S
C1197 C1196 1.359 . S
C1197 C1198 1.380 . S
C1197 H1220 0.929 . S
C1198 C1197 1.380 . S
C1198 C1199 1.347 . S
C1198 H1221 0.931 . S
C1199 C1198 1.347 . S
C1199 C1200 1.369 . S
C1200 C1199 1.369 . S
C1200 C1201 1.408 . S
C1200 H1222 0.930 . S
C1201 C1196 1.348 . S
C1201 C1200 1.408 . S
C1201 H1223 0.930 . S
C1202 O1212 1.281 . S
C1202 O1213 1.254 . S
C1203 O1214 1.236 . S
C1203 O1215 1.266 . S
O1204 Tb1184 2.484 . S
O1204 C1186 1.248 . S
O1205 Tb1184 2.440 . S
O1205 C1186 1.266 . S
O1206 Tb1184 2.658 . S
O1206 Tb1185 2.325 . S
O1206 C1193 1.281 . S
O1207 Tb1184 2.409 . S
O1207 C1193 1.254 . S
O1208 Tb1184 2.378 . S
O1208 C1194 1.236 1_554 S
O1209 Tb1185 2.328 1_556 S
O1209 C1194 1.270 . S
O1210 Tb1185 2.484 . S
O1210 C1195 1.248 . S
O1211 Tb1185 2.440 . S
O1211 C1195 1.266 . S
O1212 Tb1184 2.325 . S
O1212 Tb1185 2.658 . S
O1212 C1202 1.281 . S
O1213 Tb1185 2.409 . S
O1213 C1202 1.254 . S
O1214 Tb1185 2.378 . S
O1214 C1203 1.236 . S
O1215 Tb1184 2.341 . S
O1215 C1203 1.266 . S
H1216 C1188 0.929 . S
H1217 C1189 0.931 . S
H1218 C1191 0.930 . S
H1219 C1192 0.930 . S
H1220 C1197 0.929 . S
H1221 C1198 0.931 . S
H1222 C1200 0.930 . S
H1223 C1201 0.930 . S
Tb1224 C1226 2.809 . S
Tb1224 O1244 2.484 . S
Tb1224 O1245 2.440 . S
Tb1224 O1246 2.658 . S
Tb1224 O1247 2.409 . S
Tb1224 O1248 2.378 . S
Tb1224 O1252 2.325 . S
Tb1224 O1255 2.341 . S
Tb1225 C1235 2.809 . S
Tb1225 O1246 2.325 . S
Tb1225 O1249 2.341 . S
Tb1225 O1250 2.484 . S
Tb1225 O1251 2.440 . S
Tb1225 O1252 2.658 . S
Tb1225 O1253 2.409 . S
Tb1225 O1254 2.378 . S
C1226 Tb1224 2.809 . S
C1226 C1227 1.514 . S
C1226 O1244 1.248 . S
C1226 O1245 1.266 . S
C1227 C1226 1.514 . S
C1227 C1228 1.359 . S
C1227 C1232 1.348 . S
C1228 C1227 1.359 . S
C1228 C1229 1.380 . S
C1228 H1256 0.929 . S
C1229 C1228 1.380 . S
C1229 C1230 1.347 . S
C1229 H1257 0.931 . S
C1230 C1229 1.347 . S
C1230 C1231 1.369 . S
C1231 C1230 1.369 . S
C1231 C1232 1.408 . S
C1231 H1258 0.930 . S
C1232 C1227 1.348 . S
C1232 C1231 1.408 . S
C1232 H1259 0.930 . S
C1233 O1246 1.281 . S
C1233 O1247 1.254 . S
C1234 O1248 1.236 . S
C1234 O1249 1.266 . S
C1235 Tb1225 2.809 . S
C1235 C1236 1.514 . S
C1235 O1250 1.248 . S
C1235 O1251 1.266 . S
C1236 C1235 1.514 . S
C1236 C1237 1.359 . S
C1236 C1241 1.348 . S
C1237 C1236 1.359 . S
C1237 C1238 1.380 . S
C1237 H1260 0.929 . S
C1238 C1237 1.380 . S
C1238 C1239 1.347 . S
C1238 H1261 0.931 . S
C1239 C1238 1.347 . S
C1239 C1240 1.369 . S
C1240 C1239 1.369 . S
C1240 C1241 1.408 . S
C1240 H1262 0.930 . S
C1241 C1236 1.348 . S
C1241 C1240 1.408 . S
C1241 H1263 0.930 . S
C1242 O1252 1.281 . S
C1242 O1253 1.254 . S
C1243 O1254 1.236 . S
C1243 O1255 1.266 . S
O1244 Tb1224 2.484 . S
O1244 C1226 1.248 . S
O1245 Tb1224 2.440 . S
O1245 C1226 1.266 . S
O1246 Tb1224 2.658 . S
O1246 Tb1225 2.325 . S
O1246 C1233 1.281 . S
O1247 Tb1224 2.409 . S
O1247 C1233 1.254 . S
O1248 Tb1224 2.378 . S
O1248 C1234 1.236 . S
O1249 Tb1225 2.341 . S
O1249 C1234 1.266 . S
O1250 Tb1225 2.484 . S
O1250 C1235 1.248 . S
O1251 Tb1225 2.440 . S
O1251 C1235 1.266 . S
O1252 Tb1224 2.325 . S
O1252 Tb1225 2.658 . S
O1252 C1242 1.281 . S
O1253 Tb1225 2.409 . S
O1253 C1242 1.254 . S
O1254 Tb1225 2.378 . S
O1254 C1243 1.236 . S
O1255 Tb1224 2.341 . S
O1255 C1243 1.266 . S
H1256 C1228 0.929 . S
H1257 C1229 0.931 . S
H1258 C1231 0.930 . S
H1259 C1232 0.930 . S
H1260 C1237 0.929 . S
H1261 C1238 0.931 . S
H1262 C1240 0.930 . S
H1263 C1241 0.930 . S
Tb1264 C1266 2.809 1_455 S
Tb1264 O1284 2.484 1_455 S
Tb1264 O1285 2.440 1_455 S
Tb1264 O1286 2.658 . S
Tb1264 O1287 2.409 . S
Tb1264 O1288 2.378 . S
Tb1264 O1292 2.325 . S
Tb1264 O1295 2.341 . S
Tb1265 C1275 2.809 . S
Tb1265 O1286 2.325 . S
Tb1265 O1289 2.341 . S
Tb1265 O1290 2.484 . S
Tb1265 O1291 2.440 . S
Tb1265 O1292 2.658 . S
Tb1265 O1293 2.409 . S
Tb1265 O1294 2.378 . S
C1266 Tb1264 2.809 1_655 S
C1266 C1267 1.514 . S
C1266 O1284 1.248 . S
C1266 O1285 1.266 . S
C1267 C1266 1.514 . S
C1267 C1268 1.359 . S
C1267 C1272 1.348 . S
C1268 C1267 1.359 . S
C1268 C1269 1.380 . S
C1268 H1296 0.929 . S
C1269 C1268 1.380 . S
C1269 C1270 1.347 . S
C1269 H1297 0.931 . S
C1270 C1269 1.347 . S
C1270 C1271 1.369 . S
C1271 C1270 1.369 . S
C1271 C1272 1.408 . S
C1271 H1298 0.930 . S
C1272 C1267 1.348 . S
C1272 C1271 1.408 . S
C1272 H1299 0.930 . S
C1273 O1286 1.281 . S
C1273 O1287 1.254 . S
C1274 O1288 1.236 . S
C1274 O1289 1.266 . S
C1275 Tb1265 2.809 . S
C1275 C1276 1.514 . S
C1275 O1290 1.248 . S
C1275 O1291 1.266 . S
C1276 C1275 1.514 . S
C1276 C1277 1.359 . S
C1276 C1281 1.348 . S
C1277 C1276 1.359 . S
C1277 C1278 1.380 . S
C1277 H1300 0.929 . S
C1278 C1277 1.380 . S
C1278 C1279 1.347 . S
C1278 H1301 0.931 . S
C1279 C1278 1.347 . S
C1279 C1280 1.369 . S
C1280 C1279 1.369 . S
C1280 C1281 1.408 . S
C1280 H1302 0.930 . S
C1281 C1276 1.348 . S
C1281 C1280 1.408 . S
C1281 H1303 0.930 . S
C1282 O1292 1.281 . S
C1282 O1293 1.254 . S
C1283 O1294 1.236 . S
C1283 O1295 1.266 . S
O1284 Tb1264 2.484 1_655 S
O1284 C1266 1.248 . S
O1285 Tb1264 2.440 1_655 S
O1285 C1266 1.266 . S
O1286 Tb1264 2.658 . S
O1286 Tb1265 2.325 . S
O1286 C1273 1.281 . S
O1287 Tb1264 2.409 . S
O1287 C1273 1.254 . S
O1288 Tb1264 2.378 . S
O1288 C1274 1.236 . S
O1289 Tb1265 2.341 . S
O1289 C1274 1.266 . S
O1290 Tb1265 2.484 . S
O1290 C1275 1.248 . S
O1291 Tb1265 2.440 . S
O1291 C1275 1.266 . S
O1292 Tb1264 2.325 . S
O1292 Tb1265 2.658 . S
O1292 C1282 1.281 . S
O1293 Tb1265 2.409 . S
O1293 C1282 1.254 . S
O1294 Tb1265 2.378 . S
O1294 C1283 1.236 . S
O1295 Tb1264 2.341 . S
O1295 C1283 1.266 . S
H1296 C1268 0.929 . S
H1297 C1269 0.931 . S
H1298 C1271 0.930 . S
H1299 C1272 0.930 . S
H1300 C1277 0.929 . S
H1301 C1278 0.931 . S
H1302 C1280 0.930 . S
H1303 C1281 0.930 . S
Tb1304 C1306 2.809 . S
Tb1304 O1324 2.484 . S
Tb1304 O1325 2.440 . S
Tb1304 O1326 2.658 . S
Tb1304 O1327 2.409 . S
Tb1304 O1328 2.378 . S
Tb1304 O1332 2.325 . S
Tb1304 O1335 2.341 . S
Tb1305 C1315 2.809 . S
Tb1305 O1326 2.325 . S
Tb1305 O1329 2.341 . S
Tb1305 O1330 2.484 . S
Tb1305 O1331 2.440 . S
Tb1305 O1332 2.658 . S
Tb1305 O1333 2.409 . S
Tb1305 O1334 2.378 . S
C1306 Tb1304 2.809 . S
C1306 C1307 1.514 . S
C1306 O1324 1.248 . S
C1306 O1325 1.266 . S
C1307 C1306 1.514 . S
C1307 C1308 1.359 . S
C1307 C1312 1.348 . S
C1308 C1307 1.359 . S
C1308 C1309 1.380 . S
C1308 H1336 0.929 . S
C1309 C1308 1.380 . S
C1309 C1310 1.347 . S
C1309 H1337 0.931 . S
C1310 C1309 1.347 . S
C1310 C1311 1.369 . S
C1311 C1310 1.369 . S
C1311 C1312 1.408 . S
C1311 H1338 0.930 . S
C1312 C1307 1.348 . S
C1312 C1311 1.408 . S
C1312 H1339 0.930 . S
C1313 O1326 1.281 . S
C1313 O1327 1.254 . S
C1314 O1328 1.236 . S
C1314 O1329 1.266 . S
C1315 Tb1305 2.809 . S
C1315 C1316 1.514 . S
C1315 O1330 1.248 . S
C1315 O1331 1.266 . S
C1316 C1315 1.514 . S
C1316 C1317 1.359 . S
C1316 C1321 1.348 . S
C1317 C1316 1.359 . S
C1317 C1318 1.380 . S
C1317 H1340 0.929 . S
C1318 C1317 1.380 . S
C1318 C1319 1.347 . S
C1318 H1341 0.931 . S
C1319 C1318 1.347 . S
C1319 C1320 1.369 . S
C1320 C1319 1.369 . S
C1320 C1321 1.408 . S
C1320 H1342 0.930 . S
C1321 C1316 1.348 . S
C1321 C1320 1.408 . S
C1321 H1343 0.930 . S
C1322 O1332 1.281 . S
C1322 O1333 1.254 . S
C1323 O1334 1.236 . S
C1323 O1335 1.266 . S
O1324 Tb1304 2.484 . S
O1324 C1306 1.248 . S
O1325 Tb1304 2.440 . S
O1325 C1306 1.266 . S
O1326 Tb1304 2.658 . S
O1326 Tb1305 2.325 . S
O1326 C1313 1.281 . S
O1327 Tb1304 2.409 . S
O1327 C1313 1.254 . S
O1328 Tb1304 2.378 . S
O1328 C1314 1.236 . S
O1329 Tb1305 2.341 . S
O1329 C1314 1.266 . S
O1330 Tb1305 2.484 . S
O1330 C1315 1.248 . S
O1331 Tb1305 2.440 . S
O1331 C1315 1.266 . S
O1332 Tb1304 2.325 . S
O1332 Tb1305 2.658 . S
O1332 C1322 1.281 . S
O1333 Tb1305 2.409 . S
O1333 C1322 1.254 . S
O1334 Tb1305 2.378 . S
O1334 C1323 1.236 . S
O1335 Tb1304 2.341 . S
O1335 C1323 1.266 . S
H1336 C1308 0.929 . S
H1337 C1309 0.931 . S
H1338 C1311 0.930 . S
H1339 C1312 0.930 . S
H1340 C1317 0.929 . S
H1341 C1318 0.931 . S
H1342 C1320 0.930 . S
H1343 C1321 0.930 . S
Tb1344 C1346 2.809 . S
Tb1344 O1364 2.484 . S
Tb1344 O1365 2.440 . S
Tb1344 O1366 2.658 . S
Tb1344 O1367 2.409 . S
Tb1344 O1368 2.378 . S
Tb1344 O1372 2.325 . S
Tb1344 O1375 2.341 . S
Tb1345 C1355 2.809 . S
Tb1345 O1366 2.325 . S
Tb1345 O1369 2.341 . S
Tb1345 O1370 2.484 . S
Tb1345 O1371 2.440 . S
Tb1345 O1372 2.658 . S
Tb1345 O1373 2.409 . S
Tb1345 O1374 2.378 . S
C1346 Tb1344 2.809 . S
C1346 C1347 1.514 . S
C1346 O1364 1.248 . S
C1346 O1365 1.266 . S
C1347 C1346 1.514 . S
C1347 C1348 1.359 . S
C1347 C1352 1.348 . S
C1348 C1347 1.359 . S
C1348 C1349 1.380 . S
C1348 H1376 0.929 . S
C1349 C1348 1.380 . S
C1349 C1350 1.347 . S
C1349 H1377 0.931 . S
C1350 C1349 1.347 . S
C1350 C1351 1.369 . S
C1351 C1350 1.369 . S
C1351 C1352 1.408 . S
C1351 H1378 0.930 . S
C1352 C1347 1.348 . S
C1352 C1351 1.408 . S
C1352 H1379 0.930 . S
C1353 O1366 1.281 . S
C1353 O1367 1.254 . S
C1354 O1368 1.236 . S
C1354 O1369 1.266 . S
C1355 Tb1345 2.809 . S
C1355 C1356 1.514 . S
C1355 O1370 1.248 . S
C1355 O1371 1.266 . S
C1356 C1355 1.514 . S
C1356 C1357 1.359 . S
C1356 C1361 1.348 . S
C1357 C1356 1.359 . S
C1357 C1358 1.380 . S
C1357 H1380 0.929 . S
C1358 C1357 1.380 . S
C1358 C1359 1.347 . S
C1358 H1381 0.931 . S
C1359 C1358 1.347 . S
C1359 C1360 1.369 . S
C1360 C1359 1.369 . S
C1360 C1361 1.408 . S
C1360 H1382 0.930 . S
C1361 C1356 1.348 . S
C1361 C1360 1.408 . S
C1361 H1383 0.930 . S
C1362 O1372 1.281 . S
C1362 O1373 1.254 . S
C1363 O1374 1.236 . S
C1363 O1375 1.266 . S
O1364 Tb1344 2.484 . S
O1364 C1346 1.248 . S
O1365 Tb1344 2.440 . S
O1365 C1346 1.266 . S
O1366 Tb1344 2.658 . S
O1366 Tb1345 2.325 . S
O1366 C1353 1.281 . S
O1367 Tb1344 2.409 . S
O1367 C1353 1.254 . S
O1368 Tb1344 2.378 . S
O1368 C1354 1.236 . S
O1369 Tb1345 2.341 . S
O1369 C1354 1.266 . S
O1370 Tb1345 2.484 . S
O1370 C1355 1.248 . S
O1371 Tb1345 2.440 . S
O1371 C1355 1.266 . S
O1372 Tb1344 2.325 . S
O1372 Tb1345 2.658 . S
O1372 C1362 1.281 . S
O1373 Tb1345 2.409 . S
O1373 C1362 1.254 . S
O1374 Tb1345 2.378 . S
O1374 C1363 1.236 . S
O1375 Tb1344 2.341 . S
O1375 C1363 1.266 . S
H1376 C1348 0.929 . S
H1377 C1349 0.931 . S
H1378 C1351 0.930 . S
H1379 C1352 0.930 . S
H1380 C1357 0.929 . S
H1381 C1358 0.931 . S
H1382 C1360 0.930 . S
H1383 C1361 0.930 . S
Tb1384 C1386 2.809 . S
Tb1384 O1404 2.484 . S
Tb1384 O1405 2.440 . S
Tb1384 O1406 2.658 . S
Tb1384 O1407 2.409 . S
Tb1384 O1408 2.378 . S
Tb1384 O1412 2.325 . S
Tb1384 O1415 2.341 . S
Tb1385 C1395 2.809 . S
Tb1385 O1406 2.325 . S
Tb1385 O1409 2.341 . S
Tb1385 O1410 2.484 . S
Tb1385 O1411 2.440 . S
Tb1385 O1412 2.658 . S
Tb1385 O1413 2.409 . S
Tb1385 O1414 2.378 . S
C1386 Tb1384 2.809 . S
C1386 C1387 1.514 . S
C1386 O1404 1.248 . S
C1386 O1405 1.266 . S
C1387 C1386 1.514 . S
C1387 C1388 1.359 . S
C1387 C1392 1.348 . S
C1388 C1387 1.359 . S
C1388 C1389 1.380 . S
C1388 H1416 0.929 . S
C1389 C1388 1.380 . S
C1389 C1390 1.347 . S
C1389 H1417 0.931 . S
C1390 C1389 1.347 . S
C1390 C1391 1.369 . S
C1391 C1390 1.369 . S
C1391 C1392 1.408 . S
C1391 H1418 0.930 . S
C1392 C1387 1.348 . S
C1392 C1391 1.408 . S
C1392 H1419 0.930 . S
C1393 O1406 1.281 . S
C1393 O1407 1.254 . S
C1394 O1408 1.236 . S
C1394 O1409 1.266 . S
C1395 Tb1385 2.809 . S
C1395 C1396 1.514 . S
C1395 O1410 1.248 . S
C1395 O1411 1.266 . S
C1396 C1395 1.514 . S
C1396 C1397 1.359 . S
C1396 C1401 1.348 . S
C1397 C1396 1.359 . S
C1397 C1398 1.380 . S
C1397 H1420 0.929 . S
C1398 C1397 1.380 . S
C1398 C1399 1.347 . S
C1398 H1421 0.931 . S
C1399 C1398 1.347 . S
C1399 C1400 1.369 . S
C1400 C1399 1.369 . S
C1400 C1401 1.408 . S
C1400 H1422 0.930 . S
C1401 C1396 1.348 . S
C1401 C1400 1.408 . S
C1401 H1423 0.930 . S
C1402 O1412 1.281 . S
C1402 O1413 1.254 . S
C1403 O1414 1.236 . S
C1403 O1415 1.266 . S
O1404 Tb1384 2.484 . S
O1404 C1386 1.248 . S
O1405 Tb1384 2.440 . S
O1405 C1386 1.266 . S
O1406 Tb1384 2.658 . S
O1406 Tb1385 2.325 . S
O1406 C1393 1.281 . S
O1407 Tb1384 2.409 . S
O1407 C1393 1.254 . S
O1408 Tb1384 2.378 . S
O1408 C1394 1.236 . S
O1409 Tb1385 2.341 . S
O1409 C1394 1.266 . S
O1410 Tb1385 2.484 . S
O1410 C1395 1.248 . S
O1411 Tb1385 2.440 . S
O1411 C1395 1.266 . S
O1412 Tb1384 2.325 . S
O1412 Tb1385 2.658 . S
O1412 C1402 1.281 . S
O1413 Tb1385 2.409 . S
O1413 C1402 1.254 . S
O1414 Tb1385 2.378 . S
O1414 C1403 1.236 . S
O1415 Tb1384 2.341 . S
O1415 C1403 1.266 . S
H1416 C1388 0.929 . S
H1417 C1389 0.931 . S
H1418 C1391 0.930 . S
H1419 C1392 0.930 . S
H1420 C1397 0.929 . S
H1421 C1398 0.931 . S
H1422 C1400 0.930 . S
H1423 C1401 0.930 . S
Tb1424 C1426 2.809 . S
Tb1424 O1444 2.484 . S
Tb1424 O1445 2.440 . S
Tb1424 O1446 2.658 . S
Tb1424 O1447 2.409 . S
Tb1424 O1448 2.378 . S
Tb1424 O1452 2.325 . S
Tb1424 O1455 2.341 . S
Tb1425 C1435 2.809 . S
Tb1425 O1446 2.325 . S
Tb1425 O1449 2.341 . S
Tb1425 O1450 2.484 . S
Tb1425 O1451 2.440 . S
Tb1425 O1452 2.658 . S
Tb1425 O1453 2.409 . S
Tb1425 O1454 2.378 . S
C1426 Tb1424 2.809 . S
C1426 C1427 1.514 . S
C1426 O1444 1.248 . S
C1426 O1445 1.266 . S
C1427 C1426 1.514 . S
C1427 C1428 1.359 . S
C1427 C1432 1.348 . S
C1428 C1427 1.359 . S
C1428 C1429 1.380 . S
C1428 H1456 0.929 . S
C1429 C1428 1.380 . S
C1429 C1430 1.347 . S
C1429 H1457 0.931 . S
C1430 C1429 1.347 . S
C1430 C1431 1.369 . S
C1431 C1430 1.369 . S
C1431 C1432 1.408 . S
C1431 H1458 0.930 . S
C1432 C1427 1.348 . S
C1432 C1431 1.408 . S
C1432 H1459 0.930 . S
C1433 O1446 1.281 . S
C1433 O1447 1.254 . S
C1434 O1448 1.236 . S
C1434 O1449 1.266 . S
C1435 Tb1425 2.809 . S
C1435 C1436 1.514 . S
C1435 O1450 1.248 . S
C1435 O1451 1.266 . S
C1436 C1435 1.514 . S
C1436 C1437 1.359 . S
C1436 C1441 1.348 . S
C1437 C1436 1.359 . S
C1437 C1438 1.380 . S
C1437 H1460 0.929 . S
C1438 C1437 1.380 . S
C1438 C1439 1.347 . S
C1438 H1461 0.931 . S
C1439 C1438 1.347 . S
C1439 C1440 1.369 . S
C1440 C1439 1.369 . S
C1440 C1441 1.408 . S
C1440 H1462 0.930 . S
C1441 C1436 1.348 . S
C1441 C1440 1.408 . S
C1441 H1463 0.930 . S
C1442 O1452 1.281 . S
C1442 O1453 1.254 . S
C1443 O1454 1.236 . S
C1443 O1455 1.266 . S
O1444 Tb1424 2.484 . S
O1444 C1426 1.248 . S
O1445 Tb1424 2.440 . S
O1445 C1426 1.266 . S
O1446 Tb1424 2.658 . S
O1446 Tb1425 2.325 . S
O1446 C1433 1.281 . S
O1447 Tb1424 2.409 . S
O1447 C1433 1.254 . S
O1448 Tb1424 2.378 . S
O1448 C1434 1.236 . S
O1449 Tb1425 2.341 . S
O1449 C1434 1.266 . S
O1450 Tb1425 2.484 . S
O1450 C1435 1.248 . S
O1451 Tb1425 2.440 . S
O1451 C1435 1.266 . S
O1452 Tb1424 2.325 . S
O1452 Tb1425 2.658 . S
O1452 C1442 1.281 . S
O1453 Tb1425 2.409 . S
O1453 C1442 1.254 . S
O1454 Tb1425 2.378 . S
O1454 C1443 1.236 . S
O1455 Tb1424 2.341 . S
O1455 C1443 1.266 . S
H1456 C1428 0.929 . S
H1457 C1429 0.931 . S
H1458 C1431 0.930 . S
H1459 C1432 0.930 . S
H1460 C1437 0.929 . S
H1461 C1438 0.931 . S
H1462 C1440 0.930 . S
H1463 C1441 0.930 . S
Tb1464 C1466 2.809 . S
Tb1464 O1484 2.484 . S
Tb1464 O1485 2.440 . S
Tb1464 O1486 2.658 . S
Tb1464 O1487 2.409 1_554 S
Tb1464 O1488 2.378 . S
Tb1464 O1492 2.325 . S
Tb1464 O1495 2.341 . S
Tb1465 C1475 2.809 1_455 S
Tb1465 O1486 2.325 . S
Tb1465 O1489 2.341 . S
Tb1465 O1490 2.484 1_455 S
Tb1465 O1491 2.440 1_455 S
Tb1465 O1492 2.658 . S
Tb1465 O1493 2.409 . S
Tb1465 O1494 2.378 . S
C1466 Tb1464 2.809 . S
C1466 C1467 1.514 . S
C1466 O1484 1.248 . S
C1466 O1485 1.266 . S
C1467 C1466 1.514 . S
C1467 C1468 1.359 . S
C1467 C1472 1.386 . S
C1468 C1467 1.359 . S
C1468 C1469 1.380 . S
C1468 H1496 0.929 . S
C1469 C1468 1.380 . S
C1469 C1470 1.347 . S
C1469 H1497 0.931 . S
C1470 C1469 1.347 . S
C1470 C1471 1.369 1_554 S
C1471 C1470 1.369 1_556 S
C1471 C1472 1.401 1_556 S
C1471 H1498 0.930 . S
C1472 C1467 1.386 . S
C1472 C1471 1.401 1_554 S
C1472 H1499 0.901 1_554 S
C1473 O1486 1.281 1_556 S
C1473 O1487 1.254 . S
C1474 O1488 1.236 . S
C1474 O1489 1.266 . S
C1475 Tb1465 2.809 1_655 S
C1475 C1476 1.514 . S
C1475 O1490 1.248 . S
C1475 O1491 1.266 . S
C1476 C1475 1.514 . S
C1476 C1477 1.359 . S
C1476 C1481 1.348 . S
C1477 C1476 1.359 . S
C1477 C1478 1.380 . S
C1477 H1500 0.929 . S
C1478 C1477 1.380 . S
C1478 C1479 1.347 . S
C1478 H1501 0.931 . S
C1479 C1478 1.347 . S
C1479 C1480 1.369 . S
C1480 C1479 1.369 . S
C1480 C1481 1.408 . S
C1480 H1502 0.930 . S
C1481 C1476 1.348 . S
C1481 C1480 1.408 . S
C1481 H1503 0.930 . S
C1482 O1492 1.281 . S
C1482 O1493 1.254 . S
C1483 O1494 1.236 . S
C1483 O1495 1.266 . S
O1484 Tb1464 2.484 . S
O1484 C1466 1.248 . S
O1485 Tb1464 2.440 . S
O1485 C1466 1.266 . S
O1486 Tb1464 2.658 . S
O1486 Tb1465 2.325 . S
O1486 C1473 1.281 1_554 S
O1487 Tb1464 2.409 1_556 S
O1487 C1473 1.254 . S
O1488 Tb1464 2.378 . S
O1488 C1474 1.236 . S
O1489 Tb1465 2.341 . S
O1489 C1474 1.266 . S
O1490 Tb1465 2.484 1_655 S
O1490 C1475 1.248 . S
O1491 Tb1465 2.440 1_655 S
O1491 C1475 1.266 . S
O1492 Tb1464 2.325 . S
O1492 Tb1465 2.658 . S
O1492 C1482 1.281 . S
O1493 Tb1465 2.409 . S
O1493 C1482 1.254 . S
O1494 Tb1465 2.378 . S
O1494 C1483 1.236 . S
O1495 Tb1464 2.341 . S
O1495 C1483 1.266 . S
H1496 C1468 0.929 . S
H1497 C1469 0.931 . S
H1498 C1471 0.930 . S
H1499 C1472 0.901 1_556 S
H1500 C1477 0.929 . S
H1501 C1478 0.931 . S
H1502 C1480 0.930 . S
H1503 C1481 0.930 . S
C1504 C1505 1.391 . S
C1504 C1506 1.394 1_556 S
C1504 H1520 0.931 . S
C1505 C1504 1.391 . S
C1505 C1509 1.376 1_455 S
C1506 C1504 1.394 1_554 S
C1506 C1507 1.369 . S
C1506 C1510 1.531 . S
C1507 C1506 1.369 . S
C1507 C1508 1.410 1_454 S
C1507 C1515 1.503 . S
C1508 C1507 1.410 1_656 S
C1508 C1509 1.392 . S
C1508 C1511 1.511 . S
C1509 C1505 1.376 1_655 S
C1509 C1508 1.392 . S
C1509 H1521 0.929 . S
C1510 C1506 1.531 . S
C1510 H1522 0.960 . S
C1510 H1523 0.962 . S
C1510 H1524 0.960 . S
C1511 C1508 1.511 . S
C1511 H1525 0.961 . S
C1511 H1526 0.961 . S
C1511 H1527 0.961 . S
C1512 C1513 1.370 . S
C1512 C1514 1.363 1_554 S
C1512 H1528 0.931 1_554 S
C1513 C1512 1.370 . S
C1513 C1517 1.408 . S
C1514 C1512 1.363 1_556 S
C1514 C1515 1.370 1_556 S
C1514 C1518 1.524 . S
C1515 C1507 1.503 . S
C1515 C1514 1.370 1_554 S
C1515 C1516 1.403 . S
C1516 C1515 1.403 . S
C1516 C1517 1.404 . S
C1516 C1519 1.539 . S
C1517 C1513 1.408 . S
C1517 C1516 1.404 . S
C1517 H1529 0.930 . S
C1518 C1514 1.524 . S
C1518 H1530 0.956 . S
C1518 H1531 0.961 . S
C1518 H1532 0.961 . S
C1519 C1516 1.539 . S
C1519 H1533 0.958 . S
C1519 H1534 0.961 1_455 S
C1519 H1535 0.960 1_455 S
H1520 C1504 0.931 . S
H1521 C1509 0.929 . S
H1522 C1510 0.960 . S
H1523 C1510 0.962 . S
H1524 C1510 0.960 . S
H1525 C1511 0.961 . S
H1526 C1511 0.961 . S
H1527 C1511 0.961 . S
H1528 C1512 0.931 1_556 S
H1529 C1517 0.930 . S
H1530 C1518 0.956 . S
H1531 C1518 0.961 . S
H1532 C1518 0.961 . S
H1533 C1519 0.958 . S
H1534 C1519 0.961 1_655 S
H1535 C1519 0.960 1_655 S
C1536 C1537 1.391 . S
C1536 C1538 1.394 . S
C1536 H1552 0.931 . S
C1537 C1536 1.391 . S
C1537 C1541 1.376 . S
C1538 C1536 1.394 . S
C1538 C1539 1.369 . S
C1538 C1542 1.531 . S
C1539 C1538 1.369 . S
C1539 C1540 1.410 . S
C1539 C1547 1.503 . S
C1540 C1539 1.410 . S
C1540 C1541 1.392 . S
C1540 C1543 1.511 . S
C1541 C1537 1.376 . S
C1541 C1540 1.392 . S
C1541 H1553 0.929 . S
C1542 C1538 1.531 . S
C1542 H1554 0.960 . S
C1542 H1555 0.962 . S
C1542 H1556 0.960 . S
C1543 C1540 1.511 . S
C1543 H1557 0.961 . S
C1543 H1558 0.961 . S
C1543 H1559 0.961 . S
C1544 C1545 1.370 . S
C1544 C1546 1.363 . S
C1544 H1560 0.931 . S
C1545 C1544 1.370 . S
C1545 C1549 1.408 . S
C1546 C1544 1.363 . S
C1546 C1547 1.370 . S
C1546 C1550 1.524 . S
C1547 C1539 1.503 . S
C1547 C1546 1.370 . S
C1547 C1548 1.403 . S
C1548 C1547 1.403 . S
C1548 C1549 1.404 . S
C1548 C1551 1.539 . S
C1549 C1545 1.408 . S
C1549 C1548 1.404 . S
C1549 H1561 0.930 . S
C1550 C1546 1.524 . S
C1550 H1562 0.956 . S
C1550 H1563 0.961 . S
C1550 H1564 0.961 . S
C1551 C1548 1.539 . S
C1551 H1565 0.958 . S
C1551 H1566 0.961 . S
C1551 H1567 0.960 . S
H1552 C1536 0.931 . S
H1553 C1541 0.929 . S
H1554 C1542 0.960 . S
H1555 C1542 0.962 . S
H1556 C1542 0.960 . S
H1557 C1543 0.961 . S
H1558 C1543 0.961 . S
H1559 C1543 0.961 . S
H1560 C1544 0.931 . S
H1561 C1549 0.930 . S
H1562 C1550 0.956 . S
H1563 C1550 0.961 . S
H1564 C1550 0.961 . S
H1565 C1551 0.958 . S
H1566 C1551 0.961 . S
H1567 C1551 0.960 . S
C1568 C1569 1.391 . S
C1568 C1570 1.394 . S
C1568 H1584 0.931 . S
C1569 C1568 1.391 . S
C1569 C1573 1.376 . S
C1570 C1568 1.394 . S
C1570 C1571 1.369 . S
C1570 C1574 1.531 . S
C1571 C1570 1.369 . S
C1571 C1572 1.410 . S
C1571 C1579 1.503 . S
C1572 C1571 1.410 . S
C1572 C1573 1.392 . S
C1572 C1575 1.511 . S
C1573 C1569 1.376 . S
C1573 C1572 1.392 . S
C1573 H1585 0.929 . S
C1574 C1570 1.531 . S
C1574 H1586 0.960 . S
C1574 H1587 0.962 . S
C1574 H1588 0.960 . S
C1575 C1572 1.511 . S
C1575 H1589 0.961 . S
C1575 H1590 0.961 . S
C1575 H1591 0.961 . S
C1576 C1577 1.370 . S
C1576 C1578 1.363 . S
C1576 H1592 0.931 . S
C1577 C1576 1.370 . S
C1577 C1581 1.408 . S
C1578 C1576 1.363 . S
C1578 C1579 1.370 . S
C1578 C1582 1.524 . S
C1579 C1571 1.503 . S
C1579 C1578 1.370 . S
C1579 C1580 1.403 . S
C1580 C1579 1.403 . S
C1580 C1581 1.404 . S
C1580 C1583 1.539 . S
C1581 C1577 1.408 . S
C1581 C1580 1.404 . S
C1581 H1593 0.930 . S
C1582 C1578 1.524 . S
C1582 H1594 0.956 . S
C1582 H1595 0.961 . S
C1582 H1596 0.961 . S
C1583 C1580 1.539 . S
C1583 H1597 0.958 . S
C1583 H1598 0.961 . S
C1583 H1599 0.960 . S
H1584 C1568 0.931 . S
H1585 C1573 0.929 . S
H1586 C1574 0.960 . S
H1587 C1574 0.962 . S
H1588 C1574 0.960 . S
H1589 C1575 0.961 . S
H1590 C1575 0.961 . S
H1591 C1575 0.961 . S
H1592 C1576 0.931 . S
H1593 C1581 0.930 . S
H1594 C1582 0.956 . S
H1595 C1582 0.961 . S
H1596 C1582 0.961 . S
H1597 C1583 0.958 . S
H1598 C1583 0.961 . S
H1599 C1583 0.960 . S
C1600 C1601 1.391 . S
C1600 C1602 1.394 . S
C1600 H1616 0.931 . S
C1601 C1600 1.391 . S
C1601 C1605 1.376 . S
C1602 C1600 1.394 . S
C1602 C1603 1.369 . S
C1602 C1606 1.531 . S
C1603 C1602 1.369 . S
C1603 C1604 1.410 . S
C1603 C1611 1.503 . S
C1604 C1603 1.410 . S
C1604 C1605 1.392 . S
C1604 C1607 1.511 . S
C1605 C1601 1.376 . S
C1605 C1604 1.392 . S
C1605 H1617 0.929 . S
C1606 C1602 1.531 . S
C1606 H1618 0.960 . S
C1606 H1619 0.962 . S
C1606 H1620 0.960 . S
C1607 C1604 1.511 . S
C1607 H1621 0.961 . S
C1607 H1622 0.961 . S
C1607 H1623 0.961 . S
C1608 C1609 1.370 . S
C1608 C1610 1.363 . S
C1608 H1624 0.931 . S
C1609 C1608 1.370 . S
C1609 C1613 1.408 . S
C1610 C1608 1.363 . S
C1610 C1611 1.370 . S
C1610 C1614 1.524 . S
C1611 C1603 1.503 . S
C1611 C1610 1.370 . S
C1611 C1612 1.403 . S
C1612 C1611 1.403 . S
C1612 C1613 1.404 . S
C1612 C1615 1.539 . S
C1613 C1609 1.408 . S
C1613 C1612 1.404 . S
C1613 H1625 0.930 . S
C1614 C1610 1.524 . S
C1614 H1626 0.956 . S
C1614 H1627 0.961 . S
C1614 H1628 0.961 . S
C1615 C1612 1.539 . S
C1615 H1629 0.958 . S
C1615 H1630 0.961 . S
C1615 H1631 0.960 . S
H1616 C1600 0.931 . S
H1617 C1605 0.929 . S
H1618 C1606 0.960 . S
H1619 C1606 0.962 . S
H1620 C1606 0.960 . S
H1621 C1607 0.961 . S
H1622 C1607 0.961 . S
H1623 C1607 0.961 . S
H1624 C1608 0.931 . S
H1625 C1613 0.930 . S
H1626 C1614 0.956 . S
H1627 C1614 0.961 . S
H1628 C1614 0.961 . S
H1629 C1615 0.958 . S
H1630 C1615 0.961 . S
H1631 C1615 0.960 . S
C1632 C1633 1.391 . S
C1632 C1634 1.394 . S
C1632 H1648 0.931 . S
C1633 C1632 1.391 . S
C1633 C1637 1.376 . S
C1634 C1632 1.394 . S
C1634 C1635 1.369 . S
C1634 C1638 1.531 . S
C1635 C1634 1.369 . S
C1635 C1636 1.410 . S
C1635 C1643 1.503 . S
C1636 C1635 1.410 . S
C1636 C1637 1.392 . S
C1636 C1639 1.511 . S
C1637 C1633 1.376 . S
C1637 C1636 1.392 . S
C1637 H1649 0.929 . S
C1638 C1634 1.531 . S
C1638 H1650 0.960 . S
C1638 H1651 0.962 . S
C1638 H1652 0.960 . S
C1639 C1636 1.511 . S
C1639 H1653 0.961 . S
C1639 H1654 0.961 . S
C1639 H1655 0.961 . S
C1640 C1641 1.370 . S
C1640 C1642 1.363 . S
C1640 H1656 0.931 . S
C1641 C1640 1.370 . S
C1641 C1645 1.408 . S
C1642 C1640 1.363 . S
C1642 C1643 1.370 . S
C1642 C1646 1.524 . S
C1643 C1635 1.503 . S
C1643 C1642 1.370 . S
C1643 C1644 1.403 . S
C1644 C1643 1.403 . S
C1644 C1645 1.404 . S
C1644 C1647 1.539 . S
C1645 C1641 1.408 . S
C1645 C1644 1.404 . S
C1645 H1657 0.930 . S
C1646 C1642 1.524 . S
C1646 H1658 0.956 . S
C1646 H1659 0.961 . S
C1646 H1660 0.961 . S
C1647 C1644 1.539 . S
C1647 H1661 0.958 . S
C1647 H1662 0.961 . S
C1647 H1663 0.960 . S
H1648 C1632 0.931 . S
H1649 C1637 0.929 . S
H1650 C1638 0.960 . S
H1651 C1638 0.962 . S
H1652 C1638 0.960 . S
H1653 C1639 0.961 . S
H1654 C1639 0.961 . S
H1655 C1639 0.961 . S
H1656 C1640 0.931 . S
H1657 C1645 0.930 . S
H1658 C1646 0.956 . S
H1659 C1646 0.961 . S
H1660 C1646 0.961 . S
H1661 C1647 0.958 . S
H1662 C1647 0.961 . S
H1663 C1647 0.960 . S
C1664 C1665 1.391 . S
C1664 C1666 1.394 . S
C1664 H1680 0.931 . S
C1665 C1664 1.391 . S
C1665 C1669 1.376 . S
C1666 C1664 1.394 . S
C1666 C1667 1.369 . S
C1666 C1670 1.531 . S
C1667 C1666 1.369 . S
C1667 C1668 1.410 . S
C1667 C1675 1.503 . S
C1668 C1667 1.410 . S
C1668 C1669 1.392 . S
C1668 C1671 1.511 . S
C1669 C1665 1.376 . S
C1669 C1668 1.392 . S
C1669 H1681 0.929 . S
C1670 C1666 1.531 . S
C1670 H1682 0.960 . S
C1670 H1683 0.962 . S
C1670 H1684 0.960 . S
C1671 C1668 1.511 . S
C1671 H1685 0.961 . S
C1671 H1686 0.961 . S
C1671 H1687 0.961 . S
C1672 C1673 1.370 . S
C1672 C1674 1.363 . S
C1672 H1688 0.931 . S
C1673 C1672 1.370 . S
C1673 C1677 1.408 . S
C1674 C1672 1.363 . S
C1674 C1675 1.370 . S
C1674 C1678 1.524 . S
C1675 C1667 1.503 . S
C1675 C1674 1.370 . S
C1675 C1676 1.403 . S
C1676 C1675 1.403 . S
C1676 C1677 1.404 . S
C1676 C1679 1.539 . S
C1677 C1673 1.408 . S
C1677 C1676 1.404 . S
C1677 H1689 0.930 . S
C1678 C1674 1.524 . S
C1678 H1690 0.956 . S
C1678 H1691 0.961 . S
C1678 H1692 0.961 . S
C1679 C1676 1.539 . S
C1679 H1693 0.958 . S
C1679 H1694 0.961 . S
C1679 H1695 0.960 . S
H1680 C1664 0.931 . S
H1681 C1669 0.929 . S
H1682 C1670 0.960 . S
H1683 C1670 0.962 . S
H1684 C1670 0.960 . S
H1685 C1671 0.961 . S
H1686 C1671 0.961 . S
H1687 C1671 0.961 . S
H1688 C1672 0.931 . S
H1689 C1677 0.930 . S
H1690 C1678 0.956 . S
H1691 C1678 0.961 . S
H1692 C1678 0.961 . S
H1693 C1679 0.958 . S
H1694 C1679 0.961 . S
H1695 C1679 0.960 . S
C1696 C1697 1.391 . S
C1696 C1698 1.394 . S
C1696 H1712 0.931 . S
C1697 C1696 1.391 . S
C1697 C1701 1.376 . S
C1698 C1696 1.394 . S
C1698 C1699 1.369 . S
C1698 C1702 1.531 . S
C1699 C1698 1.369 . S
C1699 C1700 1.410 . S
C1699 C1707 1.503 . S
C1700 C1699 1.410 . S
C1700 C1701 1.392 . S
C1700 C1703 1.511 . S
C1701 C1697 1.376 . S
C1701 C1700 1.392 . S
C1701 H1713 0.929 . S
C1702 C1698 1.531 . S
C1702 H1714 0.960 . S
C1702 H1715 0.962 . S
C1702 H1716 0.960 . S
C1703 C1700 1.511 . S
C1703 H1717 0.961 . S
C1703 H1718 0.961 . S
C1703 H1719 0.961 . S
C1704 C1705 1.370 . S
C1704 C1706 1.363 . S
C1704 H1720 0.931 . S
C1705 C1704 1.370 . S
C1705 C1709 1.408 . S
C1706 C1704 1.363 . S
C1706 C1707 1.370 . S
C1706 C1710 1.524 . S
C1707 C1699 1.503 . S
C1707 C1706 1.370 . S
C1707 C1708 1.403 . S
C1708 C1707 1.403 . S
C1708 C1709 1.404 . S
C1708 C1711 1.539 . S
C1709 C1705 1.408 . S
C1709 C1708 1.404 . S
C1709 H1721 0.930 . S
C1710 C1706 1.524 . S
C1710 H1722 0.956 . S
C1710 H1723 0.961 . S
C1710 H1724 0.961 . S
C1711 C1708 1.539 . S
C1711 H1725 0.958 . S
C1711 H1726 0.961 . S
C1711 H1727 0.960 . S
H1712 C1696 0.931 . S
H1713 C1701 0.929 . S
H1714 C1702 0.960 . S
H1715 C1702 0.962 . S
H1716 C1702 0.960 . S
H1717 C1703 0.961 . S
H1718 C1703 0.961 . S
H1719 C1703 0.961 . S
H1720 C1704 0.931 . S
H1721 C1709 0.930 . S
H1722 C1710 0.956 . S
H1723 C1710 0.961 . S
H1724 C1710 0.961 . S
H1725 C1711 0.958 . S
H1726 C1711 0.961 . S
H1727 C1711 0.960 . S
C1728 C1729 1.391 . S
C1728 C1730 1.394 . S
C1728 H1744 0.931 . S
C1729 C1728 1.391 . S
C1729 C1733 1.376 . S
C1730 C1728 1.394 . S
C1730 C1731 1.369 . S
C1730 C1734 1.531 . S
C1731 C1730 1.369 . S
C1731 C1732 1.410 . S
C1731 C1739 1.503 . S
C1732 C1731 1.410 . S
C1732 C1733 1.392 . S
C1732 C1735 1.511 . S
C1733 C1729 1.376 . S
C1733 C1732 1.392 . S
C1733 H1745 0.929 . S
C1734 C1730 1.531 . S
C1734 H1746 0.960 . S
C1734 H1747 0.962 . S
C1734 H1748 0.960 . S
C1735 C1732 1.511 . S
C1735 H1749 0.961 . S
C1735 H1750 0.961 . S
C1735 H1751 0.961 . S
C1736 C1737 1.370 . S
C1736 C1738 1.363 . S
C1736 H1752 0.931 . S
C1737 C1736 1.370 . S
C1737 C1741 1.408 . S
C1738 C1736 1.363 . S
C1738 C1739 1.370 . S
C1738 C1742 1.524 . S
C1739 C1731 1.503 . S
C1739 C1738 1.370 . S
C1739 C1740 1.403 . S
C1740 C1739 1.403 . S
C1740 C1741 1.404 . S
C1740 C1743 1.539 . S
C1741 C1737 1.408 . S
C1741 C1740 1.404 . S
C1741 H1753 0.930 . S
C1742 C1738 1.524 . S
C1742 H1754 0.956 . S
C1742 H1755 0.961 . S
C1742 H1756 0.961 . S
C1743 C1740 1.539 . S
C1743 H1757 0.958 . S
C1743 H1758 0.961 . S
C1743 H1759 0.960 . S
H1744 C1728 0.931 . S
H1745 C1733 0.929 . S
H1746 C1734 0.960 . S
H1747 C1734 0.962 . S
H1748 C1734 0.960 . S
H1749 C1735 0.961 . S
H1750 C1735 0.961 . S
H1751 C1735 0.961 . S
H1752 C1736 0.931 . S
H1753 C1741 0.930 . S
H1754 C1742 0.956 . S
H1755 C1742 0.961 . S
H1756 C1742 0.961 . S
H1757 C1743 0.958 . S
H1758 C1743 0.961 . S
H1759 C1743 0.960 . S
C1760 C1761 1.391 . S
C1760 C1762 1.394 . S
C1760 H1776 0.931 . S
C1761 C1760 1.391 . S
C1761 C1765 1.376 1_545 S
C1762 C1760 1.394 . S
C1762 C1763 1.369 . S
C1762 C1766 1.531 . S
C1763 C1762 1.369 . S
C1763 C1764 1.410 1_545 S
C1763 C1771 1.503 . S
C1764 C1763 1.410 1_565 S
C1764 C1765 1.392 . S
C1764 C1767 1.511 1_655 S
C1765 C1761 1.376 1_565 S
C1765 C1764 1.392 . S
C1765 H1777 0.929 . S
C1766 C1762 1.531 . S
C1766 H1778 0.960 . S
C1766 H1779 0.962 . S
C1766 H1780 0.960 . S
C1767 C1764 1.511 1_455 S
C1767 H1781 0.961 . S
C1767 H1782 0.961 . S
C1767 H1783 0.955 1_565 S
C1768 C1769 1.368 1_655 S
C1768 C1770 1.364 1_545 S
C1768 H1784 0.932 1_545 S
C1769 C1768 1.368 1_455 S
C1769 C1773 1.408 . S
C1770 C1768 1.364 1_565 S
C1770 C1771 1.370 1_565 S
C1770 C1774 1.524 . S
C1771 C1763 1.503 . S
C1771 C1770 1.370 1_545 S
C1771 C1772 1.403 1_655 S
C1772 C1771 1.403 1_455 S
C1772 C1773 1.404 . S
C1772 C1775 1.539 . S
C1773 C1769 1.408 . S
C1773 C1772 1.404 . S
C1773 H1785 0.930 . S
C1774 C1770 1.524 . S
C1774 H1786 0.956 . S
C1774 H1787 0.961 . S
C1774 H1788 0.961 . S
C1775 C1772 1.539 . S
C1775 H1789 0.958 . S
C1775 H1790 0.961 . S
C1775 H1791 0.960 . S
H1776 C1760 0.931 . S
H1777 C1765 0.929 . S
H1778 C1766 0.960 . S
H1779 C1766 0.962 . S
H1780 C1766 0.960 . S
H1781 C1767 0.961 . S
H1782 C1767 0.961 . S
H1783 C1767 0.955 1_545 S
H1784 C1768 0.932 1_565 S
H1785 C1773 0.930 . S
H1786 C1774 0.956 . S
H1787 C1774 0.961 . S
H1788 C1774 0.961 . S
H1789 C1775 0.958 . S
H1790 C1775 0.961 . S
H1791 C1775 0.960 . S
C1792 C1793 1.391 . S
C1792 C1794 1.394 . S
C1792 H1808 0.931 . S
C1793 C1792 1.391 . S
C1793 C1797 1.376 . S
C1794 C1792 1.394 . S
C1794 C1795 1.369 . S
C1794 C1798 1.531 . S
C1795 C1794 1.369 . S
C1795 C1796 1.410 . S
C1795 C1803 1.503 . S
C1796 C1795 1.410 . S
C1796 C1797 1.392 . S
C1796 C1799 1.511 . S
C1797 C1793 1.376 . S
C1797 C1796 1.392 . S
C1797 H1809 0.929 . S
C1798 C1794 1.531 . S
C1798 H1810 0.960 . S
C1798 H1811 0.962 . S
C1798 H1812 0.960 . S
C1799 C1796 1.511 . S
C1799 H1813 0.961 . S
C1799 H1814 0.961 . S
C1799 H1815 0.961 . S
C1800 C1801 1.370 . S
C1800 C1802 1.363 . S
C1800 H1816 0.931 . S
C1801 C1800 1.370 . S
C1801 C1805 1.408 . S
C1802 C1800 1.363 . S
C1802 C1803 1.370 . S
C1802 C1806 1.524 . S
C1803 C1795 1.503 . S
C1803 C1802 1.370 . S
C1803 C1804 1.403 . S
C1804 C1803 1.403 . S
C1804 C1805 1.404 . S
C1804 C1807 1.539 . S
C1805 C1801 1.408 . S
C1805 C1804 1.404 . S
C1805 H1817 0.930 . S
C1806 C1802 1.524 . S
C1806 H1818 0.956 . S
C1806 H1819 0.961 . S
C1806 H1820 0.961 . S
C1807 C1804 1.539 . S
C1807 H1821 0.958 . S
C1807 H1822 0.961 . S
C1807 H1823 0.960 . S
H1808 C1792 0.931 . S
H1809 C1797 0.929 . S
H1810 C1798 0.960 . S
H1811 C1798 0.962 . S
H1812 C1798 0.960 . S
H1813 C1799 0.961 . S
H1814 C1799 0.961 . S
H1815 C1799 0.961 . S
H1816 C1800 0.931 . S
H1817 C1805 0.930 . S
H1818 C1806 0.956 . S
H1819 C1806 0.961 . S
H1820 C1806 0.961 . S
H1821 C1807 0.958 . S
H1822 C1807 0.961 . S
H1823 C1807 0.960 . S
C1824 C1825 1.391 . S
C1824 C1826 1.394 . S
C1824 H1840 0.931 . S
C1825 C1824 1.391 . S
C1825 C1829 1.376 . S
C1826 C1824 1.394 . S
C1826 C1827 1.369 . S
C1826 C1830 1.531 . S
C1827 C1826 1.369 . S
C1827 C1828 1.410 . S
C1827 C1835 1.503 . S
C1828 C1827 1.410 . S
C1828 C1829 1.392 . S
C1828 C1831 1.511 . S
C1829 C1825 1.376 . S
C1829 C1828 1.392 . S
C1829 H1841 0.929 . S
C1830 C1826 1.531 . S
C1830 H1842 0.960 1_545 S
C1830 H1843 0.962 . S
C1830 H1844 0.960 1_545 S
C1831 C1828 1.511 . S
C1831 H1845 0.961 . S
C1831 H1846 0.961 . S
C1831 H1847 0.961 . S
C1832 C1833 1.370 . S
C1832 C1834 1.363 . S
C1832 H1848 0.931 . S
C1833 C1832 1.370 . S
C1833 C1837 1.408 1_545 S
C1834 C1832 1.363 . S
C1834 C1835 1.370 . S
C1834 C1838 1.524 . S
C1835 C1827 1.503 . S
C1835 C1834 1.370 . S
C1835 C1836 1.403 1_545 S
C1836 C1835 1.403 1_565 S
C1836 C1837 1.404 . S
C1836 C1839 1.539 . S
C1837 C1833 1.408 1_565 S
C1837 C1836 1.404 . S
C1837 H1849 0.930 . S
C1838 C1834 1.524 . S
C1838 H1850 0.956 . S
C1838 H1851 0.961 . S
C1838 H1852 0.961 . S
C1839 C1836 1.539 . S
C1839 H1853 0.958 . S
C1839 H1854 0.961 . S
C1839 H1855 0.960 . S
H1840 C1824 0.931 . S
H1841 C1829 0.929 . S
H1842 C1830 0.960 1_565 S
H1843 C1830 0.962 . S
H1844 C1830 0.960 1_565 S
H1845 C1831 0.961 . S
H1846 C1831 0.961 . S
H1847 C1831 0.961 . S
H1848 C1832 0.931 . S
H1849 C1837 0.930 . S
H1850 C1838 0.956 . S
H1851 C1838 0.961 . S
H1852 C1838 0.961 . S
H1853 C1839 0.958 . S
H1854 C1839 0.961 . S
H1855 C1839 0.960 . S
C1856 C1857 1.391 . S
C1856 C1858 1.394 . S
C1856 H1872 0.931 . S
C1857 C1856 1.391 . S
C1857 C1861 1.376 . S
C1858 C1856 1.394 . S
C1858 C1859 1.369 . S
C1858 C1862 1.531 . S
C1859 C1858 1.369 . S
C1859 C1860 1.410 . S
C1859 C1867 1.503 . S
C1860 C1859 1.410 . S
C1860 C1861 1.392 . S
C1860 C1863 1.511 . S
C1861 C1857 1.376 . S
C1861 C1860 1.392 . S
C1861 H1873 0.929 . S
C1862 C1858 1.531 . S
C1862 H1874 0.960 . S
C1862 H1875 0.962 . S
C1862 H1876 0.960 . S
C1863 C1860 1.511 . S
C1863 H1877 0.961 . S
C1863 H1878 0.961 . S
C1863 H1879 0.961 . S
C1864 C1865 1.370 . S
C1864 C1866 1.363 . S
C1864 H1880 0.931 . S
C1865 C1864 1.370 . S
C1865 C1869 1.408 . S
C1866 C1864 1.363 . S
C1866 C1867 1.370 . S
C1866 C1870 1.524 . S
C1867 C1859 1.503 . S
C1867 C1866 1.370 . S
C1867 C1868 1.403 . S
C1868 C1867 1.403 . S
C1868 C1869 1.404 . S
C1868 C1871 1.539 . S
C1869 C1865 1.408 . S
C1869 C1868 1.404 . S
C1869 H1881 0.930 . S
C1870 C1866 1.524 . S
C1870 H1882 0.956 . S
C1870 H1883 0.961 . S
C1870 H1884 0.961 . S
C1871 C1868 1.539 . S
C1871 H1885 0.958 . S
C1871 H1886 0.961 . S
C1871 H1887 0.960 . S
H1872 C1856 0.931 . S
H1873 C1861 0.929 . S
H1874 C1862 0.960 . S
H1875 C1862 0.962 . S
H1876 C1862 0.960 . S
H1877 C1863 0.961 . S
H1878 C1863 0.961 . S
H1879 C1863 0.961 . S
H1880 C1864 0.931 . S
H1881 C1869 0.930 . S
H1882 C1870 0.956 . S
H1883 C1870 0.961 . S
H1884 C1870 0.961 . S
H1885 C1871 0.958 . S
H1886 C1871 0.961 . S
H1887 C1871 0.960 . S
C1888 C1889 1.391 1_565 S
C1888 C1890 1.394 . S
C1888 H1904 0.931 . S
C1889 C1888 1.391 1_545 S
C1889 C1893 1.376 . S
C1890 C1888 1.394 . S
C1890 C1891 1.369 1_565 S
C1890 C1894 1.531 . S
C1891 C1890 1.369 1_545 S
C1891 C1892 1.410 . S
C1891 C1899 1.503 . S
C1892 C1891 1.410 . S
C1892 C1893 1.392 . S
C1892 C1895 1.511 1_655 S
C1893 C1889 1.376 . S
C1893 C1892 1.392 . S
C1893 H1905 0.929 . S
C1894 C1890 1.531 . S
C1894 H1906 0.960 . S
C1894 H1907 0.962 . S
C1894 H1908 0.960 . S
C1895 C1892 1.511 1_455 S
C1895 H1909 0.961 . S
C1895 H1910 0.961 . S
C1895 H1911 0.961 . S
C1896 C1897 1.370 1_655 S
C1896 C1898 1.363 . S
C1896 H1912 0.931 . S
C1897 C1896 1.370 1_455 S
C1897 C1901 1.408 . S
C1898 C1896 1.363 . S
C1898 C1899 1.370 . S
C1898 C1902 1.524 . S
C1899 C1891 1.503 . S
C1899 C1898 1.370 . S
C1899 C1900 1.403 1_655 S
C1900 C1899 1.403 1_455 S
C1900 C1901 1.404 . S
C1900 C1903 1.539 1_545 S
C1901 C1897 1.408 . S
C1901 C1900 1.404 . S
C1901 H1913 0.930 1_545 S
C1902 C1898 1.524 . S
C1902 H1914 0.956 . S
C1902 H1915 0.961 . S
C1902 H1916 0.961 . S
C1903 C1900 1.539 1_565 S
C1903 H1917 0.958 . S
C1903 H1918 0.961 . S
C1903 H1919 0.960 . S
H1904 C1888 0.931 . S
H1905 C1893 0.929 . S
H1906 C1894 0.960 . S
H1907 C1894 0.962 . S
H1908 C1894 0.960 . S
H1909 C1895 0.961 . S
H1910 C1895 0.961 . S
H1911 C1895 0.961 . S
H1912 C1896 0.931 . S
H1913 C1901 0.930 1_565 S
H1914 C1902 0.956 . S
H1915 C1902 0.961 . S
H1916 C1902 0.961 . S
H1917 C1903 0.958 . S
H1918 C1903 0.961 . S
H1919 C1903 0.960 . S
C1920 C1921 1.391 . S
C1920 C1922 1.394 . S
C1920 H1936 0.931 . S
C1921 C1920 1.391 . S
C1921 C1925 1.376 . S
C1922 C1920 1.394 . S
C1922 C1923 1.369 . S
C1922 C1926 1.531 . S
C1923 C1922 1.369 . S
C1923 C1924 1.410 . S
C1923 C1931 1.503 . S
C1924 C1923 1.410 . S
C1924 C1925 1.392 . S
C1924 C1927 1.511 . S
C1925 C1921 1.376 . S
C1925 C1924 1.392 . S
C1925 H1937 0.929 . S
C1926 C1922 1.531 . S
C1926 H1938 0.960 . S
C1926 H1939 0.962 . S
C1926 H1940 0.960 . S
C1927 C1924 1.511 . S
C1927 H1941 0.961 . S
C1927 H1942 0.961 . S
C1927 H1943 0.961 . S
C1928 C1929 1.370 . S
C1928 C1930 1.363 . S
C1928 H1944 0.931 . S
C1929 C1928 1.370 . S
C1929 C1933 1.408 . S
C1930 C1928 1.363 . S
C1930 C1931 1.370 . S
C1930 C1934 1.524 . S
C1931 C1923 1.503 . S
C1931 C1930 1.370 . S
C1931 C1932 1.403 . S
C1932 C1931 1.403 . S
C1932 C1933 1.404 . S
C1932 C1935 1.539 . S
C1933 C1929 1.408 . S
C1933 C1932 1.404 . S
C1933 H1945 0.930 . S
C1934 C1930 1.524 . S
C1934 H1946 0.956 . S
C1934 H1947 0.961 . S
C1934 H1948 0.961 . S
C1935 C1932 1.539 . S
C1935 H1949 0.958 . S
C1935 H1950 0.961 . S
C1935 H1951 0.960 . S
H1936 C1920 0.931 . S
H1937 C1925 0.929 . S
H1938 C1926 0.960 . S
H1939 C1926 0.962 . S
H1940 C1926 0.960 . S
H1941 C1927 0.961 . S
H1942 C1927 0.961 . S
H1943 C1927 0.961 . S
H1944 C1928 0.931 . S
H1945 C1933 0.930 . S
H1946 C1934 0.956 . S
H1947 C1934 0.961 . S
H1948 C1934 0.961 . S
H1949 C1935 0.958 . S
H1950 C1935 0.961 . S
H1951 C1935 0.960 . S
C1952 C1953 1.391 . S
C1952 C1954 1.394 . S
C1952 H1968 0.931 1_545 S
C1953 C1952 1.391 . S
C1953 C1957 1.376 . S
C1954 C1952 1.394 . S
C1954 C1955 1.369 . S
C1954 C1958 1.531 1_545 S
C1955 C1954 1.369 . S
C1955 C1956 1.410 . S
C1955 C1963 1.503 . S
C1956 C1955 1.410 . S
C1956 C1957 1.392 . S
C1956 C1959 1.511 . S
C1957 C1953 1.376 . S
C1957 C1956 1.392 . S
C1957 H1969 0.929 . S
C1958 C1954 1.531 1_565 S
C1958 H1970 0.960 . S
C1958 H1971 0.962 . S
C1958 H1972 0.960 . S
C1959 C1956 1.511 . S
C1959 H1973 0.961 . S
C1959 H1974 0.961 . S
C1959 H1975 0.961 . S
C1960 C1961 1.370 . S
C1960 C1962 1.363 . S
C1960 H1976 0.931 . S
C1961 C1960 1.370 . S
C1961 C1965 1.408 . S
C1962 C1960 1.363 . S
C1962 C1963 1.370 . S
C1962 C1966 1.524 . S
C1963 C1955 1.503 . S
C1963 C1962 1.370 . S
C1963 C1964 1.403 . S
C1964 C1963 1.403 . S
C1964 C1965 1.404 . S
C1964 C1967 1.539 . S
C1965 C1961 1.408 . S
C1965 C1964 1.404 . S
C1965 H1977 0.930 1_556 S
C1966 C1962 1.524 . S
C1966 H1978 0.956 . S
C1966 H1979 0.961 . S
C1966 H1980 0.961 . S
C1967 C1964 1.539 . S
C1967 H1981 0.958 1_545 S
C1967 H1982 0.961 . S
C1967 H1983 0.960 . S
H1968 C1952 0.931 1_565 S
H1969 C1957 0.929 . S
H1970 C1958 0.960 . S
H1971 C1958 0.962 . S
H1972 C1958 0.960 . S
H1973 C1959 0.961 . S
H1974 C1959 0.961 . S
H1975 C1959 0.961 . S
H1976 C1960 0.931 . S
H1977 C1965 0.930 1_554 S
H1978 C1966 0.956 . S
H1979 C1966 0.961 . S
H1980 C1966 0.961 . S
H1981 C1967 0.958 1_565 S
H1982 C1967 0.961 . S
H1983 C1967 0.960 . S
C1984 C1985 1.391 . S
C1984 C1986 1.394 . S
C1984 H2000 0.931 . S
C1985 C1984 1.391 . S
C1985 C1989 1.376 . S
C1986 C1984 1.394 . S
C1986 C1987 1.369 . S
C1986 C1990 1.531 . S
C1987 C1986 1.369 . S
C1987 C1988 1.410 . S
C1987 C1995 1.503 . S
C1988 C1987 1.410 . S
C1988 C1989 1.392 . S
C1988 C1991 1.511 . S
C1989 C1985 1.376 . S
C1989 C1988 1.392 . S
C1989 H2001 0.929 . S
C1990 C1986 1.531 . S
C1990 H2002 0.960 . S
C1990 H2003 0.962 . S
C1990 H2004 0.960 . S
C1991 C1988 1.511 . S
C1991 H2005 0.961 . S
C1991 H2006 0.961 . S
C1991 H2007 0.961 . S
C1992 C1993 1.370 . S
C1992 C1994 1.363 . S
C1992 H2008 0.931 . S
C1993 C1992 1.370 . S
C1993 C1997 1.408 . S
C1994 C1992 1.363 . S
C1994 C1995 1.370 . S
C1994 C1998 1.524 . S
C1995 C1987 1.503 . S
C1995 C1994 1.370 . S
C1995 C1996 1.403 . S
C1996 C1995 1.403 . S
C1996 C1997 1.404 . S
C1996 C1999 1.539 . S
C1997 C1993 1.408 . S
C1997 C1996 1.404 . S
C1997 H2009 0.930 . S
C1998 C1994 1.524 . S
C1998 H2010 0.956 . S
C1998 H2011 0.961 . S
C1998 H2012 0.961 . S
C1999 C1996 1.539 . S
C1999 H2013 0.958 . S
C1999 H2014 0.961 . S
C1999 H2015 0.960 . S
H2000 C1984 0.931 . S
H2001 C1989 0.929 . S
H2002 C1990 0.960 . S
H2003 C1990 0.962 . S
H2004 C1990 0.960 . S
H2005 C1991 0.961 . S
H2006 C1991 0.961 . S
H2007 C1991 0.961 . S
H2008 C1992 0.931 . S
H2009 C1997 0.930 . S
H2010 C1998 0.956 . S
H2011 C1998 0.961 . S
H2012 C1998 0.961 . S
H2013 C1999 0.958 . S
H2014 C1999 0.961 . S
H2015 C1999 0.960 . S
C2016 C2017 1.391 . S
C2016 C2018 1.394 . S
C2016 H2032 0.931 . S
C2017 C2016 1.391 . S
C2017 C2021 1.376 . S
C2018 C2016 1.394 . S
C2018 C2019 1.369 . S
C2018 C2022 1.531 . S
C2019 C2018 1.369 . S
C2019 C2020 1.410 . S
C2019 C2027 1.503 . S
C2020 C2019 1.410 . S
C2020 C2021 1.392 . S
C2020 C2023 1.511 . S
C2021 C2017 1.376 . S
C2021 C2020 1.392 . S
C2021 H2033 0.929 . S
C2022 C2018 1.531 . S
C2022 H2034 0.960 . S
C2022 H2035 0.962 . S
C2022 H2036 0.960 . S
C2023 C2020 1.511 . S
C2023 H2037 0.961 . S
C2023 H2038 0.961 . S
C2023 H2039 0.961 . S
C2024 C2025 1.370 . S
C2024 C2026 1.363 . S
C2024 H2040 0.931 . S
C2025 C2024 1.370 . S
C2025 C2029 1.408 . S
C2026 C2024 1.363 . S
C2026 C2027 1.370 . S
C2026 C2030 1.524 . S
C2027 C2019 1.503 . S
C2027 C2026 1.370 . S
C2027 C2028 1.403 . S
C2028 C2027 1.403 . S
C2028 C2029 1.404 . S
C2028 C2031 1.539 . S
C2029 C2025 1.408 . S
C2029 C2028 1.404 . S
C2029 H2041 0.930 . S
C2030 C2026 1.524 . S
C2030 H2042 0.956 1_554 S
C2030 H2043 0.961 1_554 S
C2030 H2044 0.961 1_554 S
C2031 C2028 1.539 . S
C2031 H2045 0.958 . S
C2031 H2046 0.961 . S
C2031 H2047 0.960 . S
H2032 C2016 0.931 . S
H2033 C2021 0.929 . S
H2034 C2022 0.960 . S
H2035 C2022 0.962 . S
H2036 C2022 0.960 . S
H2037 C2023 0.961 . S
H2038 C2023 0.961 . S
H2039 C2023 0.961 . S
H2040 C2024 0.931 . S
H2041 C2029 0.930 . S
H2042 C2030 0.956 1_556 S
H2043 C2030 0.961 1_556 S
H2044 C2030 0.961 1_556 S
H2045 C2031 0.958 . S
H2046 C2031 0.961 . S
H2047 C2031 0.960 . S
C2048 C2049 1.391 . S
C2048 C2050 1.394 . S
C2048 H2064 0.931 1_554 S
C2049 C2048 1.391 . S
C2049 C2053 1.376 . S
C2050 C2048 1.394 . S
C2050 C2051 1.369 . S
C2050 C2054 1.531 1_554 S
C2051 C2050 1.369 . S
C2051 C2052 1.410 . S
C2051 C2059 1.503 . S
C2052 C2051 1.410 . S
C2052 C2053 1.392 . S
C2052 C2055 1.511 . S
C2053 C2049 1.376 . S
C2053 C2052 1.392 . S
C2053 H2065 0.929 . S
C2054 C2050 1.531 1_556 S
C2054 H2066 0.960 . S
C2054 H2067 0.962 . S
C2054 H2068 0.960 . S
C2055 C2052 1.511 . S
C2055 H2069 0.961 . S
C2055 H2070 0.961 . S
C2055 H2071 0.961 . S
C2056 C2057 1.370 . S
C2056 C2058 1.363 . S
C2056 H2072 0.931 . S
C2057 C2056 1.370 . S
C2057 C2061 1.408 . S
C2058 C2056 1.363 . S
C2058 C2059 1.370 . S
C2058 C2062 1.524 . S
C2059 C2051 1.503 . S
C2059 C2058 1.370 . S
C2059 C2060 1.403 . S
C2060 C2059 1.403 . S
C2060 C2061 1.404 . S
C2060 C2063 1.539 . S
C2061 C2057 1.408 . S
C2061 C2060 1.404 . S
C2061 H2073 0.930 . S
C2062 C2058 1.524 . S
C2062 H2074 0.956 . S
C2062 H2075 0.961 . S
C2062 H2076 0.961 . S
C2063 C2060 1.539 . S
C2063 H2077 0.958 . S
C2063 H2078 0.961 . S
C2063 H2079 0.960 . S
H2064 C2048 0.931 1_556 S
H2065 C2053 0.929 . S
H2066 C2054 0.960 . S
H2067 C2054 0.962 . S
H2068 C2054 0.960 . S
H2069 C2055 0.961 . S
H2070 C2055 0.961 . S
H2071 C2055 0.961 . S
H2072 C2056 0.931 . S
H2073 C2061 0.930 . S
H2074 C2062 0.956 . S
H2075 C2062 0.961 . S
H2076 C2062 0.961 . S
H2077 C2063 0.958 . S
H2078 C2063 0.961 . S
H2079 C2063 0.960 . S
C2080 C2081 1.391 . S
C2080 C2082 1.394 . S
C2080 H2096 0.931 . S
C2081 C2080 1.391 . S
C2081 C2085 1.376 . S
C2082 C2080 1.394 . S
C2082 C2083 1.369 . S
C2082 C2086 1.531 . S
C2083 C2082 1.369 . S
C2083 C2084 1.410 . S
C2083 C2091 1.503 . S
C2084 C2083 1.410 . S
C2084 C2085 1.392 . S
C2084 C2087 1.511 . S
C2085 C2081 1.376 . S
C2085 C2084 1.392 . S
C2085 H2097 0.929 . S
C2086 C2082 1.531 . S
C2086 H2098 0.960 . S
C2086 H2099 0.962 . S
C2086 H2100 0.960 . S
C2087 C2084 1.511 . S
C2087 H2101 0.961 . S
C2087 H2102 0.961 . S
C2087 H2103 0.961 . S
C2088 C2089 1.370 . S
C2088 C2090 1.363 . S
C2088 H2104 0.931 . S
C2089 C2088 1.370 . S
C2089 C2093 1.408 . S
C2090 C2088 1.363 . S
C2090 C2091 1.370 . S
C2090 C2094 1.524 . S
C2091 C2083 1.503 . S
C2091 C2090 1.370 . S
C2091 C2092 1.403 . S
C2092 C2091 1.403 . S
C2092 C2093 1.404 . S
C2092 C2095 1.539 . S
C2093 C2089 1.408 . S
C2093 C2092 1.404 . S
C2093 H2105 0.930 . S
C2094 C2090 1.524 . S
C2094 H2106 0.956 . S
C2094 H2107 0.961 . S
C2094 H2108 0.961 . S
C2095 C2092 1.539 . S
C2095 H2109 0.958 . S
C2095 H2110 0.961 . S
C2095 H2111 0.960 . S
H2096 C2080 0.931 . S
H2097 C2085 0.929 . S
H2098 C2086 0.960 . S
H2099 C2086 0.962 . S
H2100 C2086 0.960 . S
H2101 C2087 0.961 . S
H2102 C2087 0.961 . S
H2103 C2087 0.961 . S
H2104 C2088 0.931 . S
H2105 C2093 0.930 . S
H2106 C2094 0.956 . S
H2107 C2094 0.961 . S
H2108 C2094 0.961 . S
H2109 C2095 0.958 . S
H2110 C2095 0.961 . S
H2111 C2095 0.960 . S
C2112 C2113 1.391 . S
C2112 C2114 1.394 . S
C2112 H2128 0.931 . S
C2113 C2112 1.391 . S
C2113 C2117 1.376 . S
C2114 C2112 1.394 . S
C2114 C2115 1.369 . S
C2114 C2118 1.531 . S
C2115 C2114 1.369 . S
C2115 C2116 1.410 . S
C2115 C2123 1.503 . S
C2116 C2115 1.410 . S
C2116 C2117 1.392 . S
C2116 C2119 1.511 . S
C2117 C2113 1.376 . S
C2117 C2116 1.392 . S
C2117 H2129 0.929 . S
C2118 C2114 1.531 . S
C2118 H2130 0.960 . S
C2118 H2131 0.962 . S
C2118 H2132 0.960 . S
C2119 C2116 1.511 . S
C2119 H2133 0.961 . S
C2119 H2134 0.961 . S
C2119 H2135 0.961 . S
C2120 C2121 1.370 . S
C2120 C2122 1.363 . S
C2120 H2136 0.931 . S
C2121 C2120 1.370 . S
C2121 C2125 1.408 . S
C2122 C2120 1.363 . S
C2122 C2123 1.370 . S
C2122 C2126 1.524 . S
C2123 C2115 1.503 . S
C2123 C2122 1.370 . S
C2123 C2124 1.403 . S
C2124 C2123 1.403 . S
C2124 C2125 1.404 . S
C2124 C2127 1.539 . S
C2125 C2121 1.408 . S
C2125 C2124 1.404 . S
C2125 H2137 0.930 . S
C2126 C2122 1.524 . S
C2126 H2138 0.956 . S
C2126 H2139 0.961 . S
C2126 H2140 0.961 . S
C2127 C2124 1.539 . S
C2127 H2141 0.958 . S
C2127 H2142 0.961 . S
C2127 H2143 0.960 . S
H2128 C2112 0.931 . S
H2129 C2117 0.929 . S
H2130 C2118 0.960 . S
H2131 C2118 0.962 . S
H2132 C2118 0.960 . S
H2133 C2119 0.961 . S
H2134 C2119 0.961 . S
H2135 C2119 0.961 . S
H2136 C2120 0.931 . S
H2137 C2125 0.930 . S
H2138 C2126 0.956 . S
H2139 C2126 0.961 . S
H2140 C2126 0.961 . S
H2141 C2127 0.958 . S
H2142 C2127 0.961 . S
H2143 C2127 0.960 . S
C2144 C2145 1.391 . S
C2144 C2146 1.394 . S
C2144 H2160 0.931 . S
C2145 C2144 1.391 . S
C2145 C2149 1.376 . S
C2146 C2144 1.394 . S
C2146 C2147 1.369 . S
C2146 C2150 1.531 . S
C2147 C2146 1.369 . S
C2147 C2148 1.410 . S
C2147 C2155 1.503 . S
C2148 C2147 1.410 . S
C2148 C2149 1.392 . S
C2148 C2151 1.511 . S
C2149 C2145 1.376 . S
C2149 C2148 1.392 . S
C2149 H2161 0.929 . S
C2150 C2146 1.531 . S
C2150 H2162 0.960 . S
C2150 H2163 0.962 . S
C2150 H2164 0.960 . S
C2151 C2148 1.511 . S
C2151 H2165 0.961 . S
C2151 H2166 0.961 . S
C2151 H2167 0.961 . S
C2152 C2153 1.370 . S
C2152 C2154 1.363 . S
C2152 H2168 0.931 . S
C2153 C2152 1.370 . S
C2153 C2157 1.408 . S
C2154 C2152 1.363 . S
C2154 C2155 1.370 . S
C2154 C2158 1.524 . S
C2155 C2147 1.503 . S
C2155 C2154 1.370 . S
C2155 C2156 1.403 . S
C2156 C2155 1.403 . S
C2156 C2157 1.404 . S
C2156 C2159 1.539 . S
C2157 C2153 1.408 . S
C2157 C2156 1.404 . S
C2157 H2169 0.930 . S
C2158 C2154 1.524 . S
C2158 H2170 0.956 . S
C2158 H2171 0.961 . S
C2158 H2172 0.961 . S
C2159 C2156 1.539 . S
C2159 H2173 0.958 . S
C2159 H2174 0.961 . S
C2159 H2175 0.960 . S
H2160 C2144 0.931 . S
H2161 C2149 0.929 . S
H2162 C2150 0.960 . S
H2163 C2150 0.962 . S
H2164 C2150 0.960 . S
H2165 C2151 0.961 . S
H2166 C2151 0.961 . S
H2167 C2151 0.961 . S
H2168 C2152 0.931 . S
H2169 C2157 0.930 . S
H2170 C2158 0.956 . S
H2171 C2158 0.961 . S
H2172 C2158 0.961 . S
H2173 C2159 0.958 . S
H2174 C2159 0.961 . S
H2175 C2159 0.960 . S
C2176 C2177 1.391 . S
C2176 C2178 1.394 . S
C2176 H2192 0.931 . S
C2177 C2176 1.391 . S
C2177 C2181 1.376 . S
C2178 C2176 1.394 . S
C2178 C2179 1.369 . S
C2178 C2182 1.531 . S
C2179 C2178 1.369 . S
C2179 C2180 1.410 . S
C2179 C2187 1.503 . S
C2180 C2179 1.410 . S
C2180 C2181 1.392 . S
C2180 C2183 1.511 . S
C2181 C2177 1.376 . S
C2181 C2180 1.392 . S
C2181 H2193 0.929 . S
C2182 C2178 1.531 . S
C2182 H2194 0.960 . S
C2182 H2195 0.962 . S
C2182 H2196 0.960 . S
C2183 C2180 1.511 . S
C2183 H2197 0.961 . S
C2183 H2198 0.961 . S
C2183 H2199 0.961 . S
C2184 C2185 1.370 . S
C2184 C2186 1.363 . S
C2184 H2200 0.931 . S
C2185 C2184 1.370 . S
C2185 C2189 1.408 . S
C2186 C2184 1.363 . S
C2186 C2187 1.370 . S
C2186 C2190 1.524 . S
C2187 C2179 1.503 . S
C2187 C2186 1.370 . S
C2187 C2188 1.403 . S
C2188 C2187 1.403 . S
C2188 C2189 1.404 . S
C2188 C2191 1.539 . S
C2189 C2185 1.408 . S
C2189 C2188 1.404 . S
C2189 H2201 0.930 . S
C2190 C2186 1.524 . S
C2190 H2202 0.956 . S
C2190 H2203 0.961 . S
C2190 H2204 0.961 . S
C2191 C2188 1.539 . S
C2191 H2205 0.958 . S
C2191 H2206 0.961 . S
C2191 H2207 0.960 . S
H2192 C2176 0.931 . S
H2193 C2181 0.929 . S
H2194 C2182 0.960 . S
H2195 C2182 0.962 . S
H2196 C2182 0.960 . S
H2197 C2183 0.961 . S
H2198 C2183 0.961 . S
H2199 C2183 0.961 . S
H2200 C2184 0.931 . S
H2201 C2189 0.930 . S
H2202 C2190 0.956 . S
H2203 C2190 0.961 . S
H2204 C2190 0.961 . S
H2205 C2191 0.958 . S
H2206 C2191 0.961 . S
H2207 C2191 0.960 . S
C2208 C2209 1.391 . S
C2208 C2210 1.394 . S
C2208 H2224 0.931 . S
C2209 C2208 1.391 . S
C2209 C2213 1.376 . S
C2210 C2208 1.394 . S
C2210 C2211 1.369 . S
C2210 C2214 1.531 . S
C2211 C2210 1.369 . S
C2211 C2212 1.410 . S
C2211 C2219 1.503 . S
C2212 C2211 1.410 . S
C2212 C2213 1.392 . S
C2212 C2215 1.511 . S
C2213 C2209 1.376 . S
C2213 C2212 1.392 . S
C2213 H2225 0.929 . S
C2214 C2210 1.531 . S
C2214 H2226 0.960 . S
C2214 H2227 0.962 . S
C2214 H2228 0.960 . S
C2215 C2212 1.511 . S
C2215 H2229 0.961 . S
C2215 H2230 0.961 . S
C2215 H2231 0.961 . S
C2216 C2217 1.370 . S
C2216 C2218 1.363 . S
C2216 H2232 0.931 . S
C2217 C2216 1.370 . S
C2217 C2221 1.408 . S
C2218 C2216 1.363 . S
C2218 C2219 1.370 . S
C2218 C2222 1.524 . S
C2219 C2211 1.503 . S
C2219 C2218 1.370 . S
C2219 C2220 1.403 . S
C2220 C2219 1.403 . S
C2220 C2221 1.404 . S
C2220 C2223 1.539 . S
C2221 C2217 1.408 . S
C2221 C2220 1.404 . S
C2221 H2233 0.930 . S
C2222 C2218 1.524 . S
C2222 H2234 0.956 . S
C2222 H2235 0.961 . S
C2222 H2236 0.961 . S
C2223 C2220 1.539 . S
C2223 H2237 0.958 . S
C2223 H2238 0.961 . S
C2223 H2239 0.960 . S
H2224 C2208 0.931 . S
H2225 C2213 0.929 . S
H2226 C2214 0.960 . S
H2227 C2214 0.962 . S
H2228 C2214 0.960 . S
H2229 C2215 0.961 . S
H2230 C2215 0.961 . S
H2231 C2215 0.961 . S
H2232 C2216 0.931 . S
H2233 C2221 0.930 . S
H2234 C2222 0.956 . S
H2235 C2222 0.961 . S
H2236 C2222 0.961 . S
H2237 C2223 0.958 . S
H2238 C2223 0.961 . S
H2239 C2223 0.960 . S
C2240 C2241 1.391 . S
C2240 C2242 1.394 . S
C2240 H2256 0.931 . S
C2241 C2240 1.391 . S
C2241 C2245 1.376 . S
C2242 C2240 1.394 . S
C2242 C2243 1.369 . S
C2242 C2246 1.531 . S
C2243 C2242 1.369 . S
C2243 C2244 1.410 . S
C2243 C2251 1.503 . S
C2244 C2243 1.410 . S
C2244 C2245 1.392 . S
C2244 C2247 1.511 . S
C2245 C2241 1.376 . S
C2245 C2244 1.392 . S
C2245 H2257 0.929 . S
C2246 C2242 1.531 . S
C2246 H2258 0.960 . S
C2246 H2259 0.962 . S
C2246 H2260 0.960 . S
C2247 C2244 1.511 . S
C2247 H2261 0.961 . S
C2247 H2262 0.961 . S
C2247 H2263 0.961 . S
C2248 C2249 1.370 . S
C2248 C2250 1.363 . S
C2248 H2264 0.931 . S
C2249 C2248 1.370 . S
C2249 C2253 1.408 . S
C2250 C2248 1.363 . S
C2250 C2251 1.370 . S
C2250 C2254 1.524 . S
C2251 C2243 1.503 . S
C2251 C2250 1.370 . S
C2251 C2252 1.403 . S
C2252 C2251 1.403 . S
C2252 C2253 1.404 . S
C2252 C2255 1.539 . S
C2253 C2249 1.408 . S
C2253 C2252 1.404 . S
C2253 H2265 0.930 . S
C2254 C2250 1.524 . S
C2254 H2266 0.956 . S
C2254 H2267 0.961 . S
C2254 H2268 0.961 . S
C2255 C2252 1.539 . S
C2255 H2269 0.958 . S
C2255 H2270 0.961 . S
C2255 H2271 0.960 . S
H2256 C2240 0.931 . S
H2257 C2245 0.929 . S
H2258 C2246 0.960 . S
H2259 C2246 0.962 . S
H2260 C2246 0.960 . S
H2261 C2247 0.961 . S
H2262 C2247 0.961 . S
H2263 C2247 0.961 . S
H2264 C2248 0.931 . S
H2265 C2253 0.930 . S
H2266 C2254 0.956 . S
H2267 C2254 0.961 . S
H2268 C2254 0.961 . S
H2269 C2255 0.958 . S
H2270 C2255 0.961 . S
H2271 C2255 0.960 . S
C2272 C2273 1.391 . S
C2272 C2274 1.394 . S
C2272 H2288 0.931 . S
C2273 C2272 1.391 . S
C2273 C2277 1.376 . S
C2274 C2272 1.394 . S
C2274 C2275 1.369 . S
C2274 C2278 1.531 . S
C2275 C2274 1.369 . S
C2275 C2276 1.410 . S
C2275 C2283 1.503 . S
C2276 C2275 1.410 . S
C2276 C2277 1.392 . S
C2276 C2279 1.511 . S
C2277 C2273 1.376 . S
C2277 C2276 1.392 . S
C2277 H2289 0.929 . S
C2278 C2274 1.531 . S
C2278 H2290 0.960 . S
C2278 H2291 0.962 . S
C2278 H2292 0.960 . S
C2279 C2276 1.511 . S
C2279 H2293 0.961 . S
C2279 H2294 0.961 . S
C2279 H2295 0.961 . S
C2280 C2281 1.370 . S
C2280 C2282 1.363 . S
C2280 H2296 0.931 . S
C2281 C2280 1.370 . S
C2281 C2285 1.408 . S
C2282 C2280 1.363 . S
C2282 C2283 1.370 . S
C2282 C2286 1.524 . S
C2283 C2275 1.503 . S
C2283 C2282 1.370 . S
C2283 C2284 1.403 . S
C2284 C2283 1.403 . S
C2284 C2285 1.404 . S
C2284 C2287 1.539 . S
C2285 C2281 1.408 . S
C2285 C2284 1.404 . S
C2285 H2297 0.930 . S
C2286 C2282 1.524 . S
C2286 H2298 0.956 . S
C2286 H2299 0.961 . S
C2286 H2300 0.961 . S
C2287 C2284 1.539 . S
C2287 H2301 0.958 . S
C2287 H2302 0.961 1_455 S
C2287 H2303 0.960 . S
H2288 C2272 0.931 . S
H2289 C2277 0.929 . S
H2290 C2278 0.960 . S
H2291 C2278 0.962 . S
H2292 C2278 0.960 . S
H2293 C2279 0.961 . S
H2294 C2279 0.961 . S
H2295 C2279 0.961 . S
H2296 C2280 0.931 . S
H2297 C2285 0.930 . S
H2298 C2286 0.956 . S
H2299 C2286 0.961 . S
H2300 C2286 0.961 . S
H2301 C2287 0.958 . S
H2302 C2287 0.961 1_655 S
H2303 C2287 0.960 . S
C2304 C2305 1.391 . S
C2304 C2306 1.394 . S
C2304 H2320 0.931 . S
C2305 C2304 1.391 . S
C2305 C2309 1.376 . S
C2306 C2304 1.394 . S
C2306 C2307 1.369 . S
C2306 C2310 1.531 . S
C2307 C2306 1.369 . S
C2307 C2308 1.410 . S
C2307 C2315 1.503 . S
C2308 C2307 1.410 . S
C2308 C2309 1.392 . S
C2308 C2311 1.511 . S
C2309 C2305 1.376 . S
C2309 C2308 1.392 . S
C2309 H2321 0.929 . S
C2310 C2306 1.531 . S
C2310 H2322 0.960 . S
C2310 H2323 0.962 . S
C2310 H2324 0.960 . S
C2311 C2308 1.511 . S
C2311 H2325 0.961 . S
C2311 H2326 0.961 . S
C2311 H2327 0.961 . S
C2312 C2313 1.370 . S
C2312 C2314 1.363 . S
C2312 H2328 0.931 . S
C2313 C2312 1.370 . S
C2313 C2317 1.408 . S
C2314 C2312 1.363 . S
C2314 C2315 1.370 . S
C2314 C2318 1.524 . S
C2315 C2307 1.503 . S
C2315 C2314 1.370 . S
C2315 C2316 1.403 . S
C2316 C2315 1.403 . S
C2316 C2317 1.404 . S
C2316 C2319 1.539 . S
C2317 C2313 1.408 . S
C2317 C2316 1.404 . S
C2317 H2329 0.930 . S
C2318 C2314 1.524 . S
C2318 H2330 0.956 . S
C2318 H2331 0.961 . S
C2318 H2332 0.961 . S
C2319 C2316 1.539 . S
C2319 H2333 0.958 . S
C2319 H2334 0.961 . S
C2319 H2335 0.960 . S
H2320 C2304 0.931 . S
H2321 C2309 0.929 . S
H2322 C2310 0.960 . S
H2323 C2310 0.962 . S
H2324 C2310 0.960 . S
H2325 C2311 0.961 . S
H2326 C2311 0.961 . S
H2327 C2311 0.961 . S
H2328 C2312 0.931 . S
H2329 C2317 0.930 . S
H2330 C2318 0.956 . S
H2331 C2318 0.961 . S
H2332 C2318 0.961 . S
H2333 C2319 0.958 . S
H2334 C2319 0.961 . S
H2335 C2319 0.960 . S
C2336 C2337 1.391 . S
C2336 C2338 1.394 . S
C2336 H2352 0.931 . S
C2337 C2336 1.391 . S
C2337 C2341 1.376 . S
C2338 C2336 1.394 . S
C2338 C2339 1.369 . S
C2338 C2342 1.531 . S
C2339 C2338 1.369 . S
C2339 C2340 1.410 . S
C2339 C2347 1.503 . S
C2340 C2339 1.410 . S
C2340 C2341 1.392 . S
C2340 C2343 1.511 . S
C2341 C2337 1.376 . S
C2341 C2340 1.392 . S
C2341 H2353 0.929 . S
C2342 C2338 1.531 . S
C2342 H2354 0.960 . S
C2342 H2355 0.962 . S
C2342 H2356 0.960 . S
C2343 C2340 1.511 . S
C2343 H2357 0.961 . S
C2343 H2358 0.961 . S
C2343 H2359 0.961 . S
C2344 C2345 1.370 . S
C2344 C2346 1.363 . S
C2344 H2360 0.931 . S
C2345 C2344 1.370 . S
C2345 C2349 1.408 . S
C2346 C2344 1.363 . S
C2346 C2347 1.370 . S
C2346 C2350 1.524 . S
C2347 C2339 1.503 . S
C2347 C2346 1.370 . S
C2347 C2348 1.403 . S
C2348 C2347 1.403 . S
C2348 C2349 1.404 . S
C2348 C2351 1.539 . S
C2349 C2345 1.408 . S
C2349 C2348 1.404 . S
C2349 H2361 0.930 . S
C2350 C2346 1.524 . S
C2350 H2362 0.956 . S
C2350 H2363 0.961 . S
C2350 H2364 0.961 . S
C2351 C2348 1.539 . S
C2351 H2365 0.958 . S
C2351 H2366 0.961 . S
C2351 H2367 0.960 . S
H2352 C2336 0.931 . S
H2353 C2341 0.929 . S
H2354 C2342 0.960 . S
H2355 C2342 0.962 . S
H2356 C2342 0.960 . S
H2357 C2343 0.961 . S
H2358 C2343 0.961 . S
H2359 C2343 0.961 . S
H2360 C2344 0.931 . S
H2361 C2349 0.930 . S
H2362 C2350 0.956 . S
H2363 C2350 0.961 . S
H2364 C2350 0.961 . S
H2365 C2351 0.958 . S
H2366 C2351 0.961 . S
H2367 C2351 0.960 . S
C2368 C2369 1.391 . S
C2368 C2370 1.394 . S
C2368 H2384 0.931 . S
C2369 C2368 1.391 . S
C2369 C2373 1.376 . S
C2370 C2368 1.394 . S
C2370 C2371 1.369 . S
C2370 C2374 1.531 . S
C2371 C2370 1.369 . S
C2371 C2372 1.410 . S
C2371 C2379 1.503 . S
C2372 C2371 1.410 . S
C2372 C2373 1.392 . S
C2372 C2375 1.511 . S
C2373 C2369 1.376 . S
C2373 C2372 1.392 . S
C2373 H2385 0.929 . S
C2374 C2370 1.531 . S
C2374 H2386 0.960 . S
C2374 H2387 0.962 . S
C2374 H2388 0.960 . S
C2375 C2372 1.511 . S
C2375 H2389 0.961 . S
C2375 H2390 0.961 . S
C2375 H2391 0.961 . S
C2376 C2377 1.370 . S
C2376 C2378 1.363 . S
C2376 H2392 0.931 . S
C2377 C2376 1.370 . S
C2377 C2381 1.408 . S
C2378 C2376 1.363 . S
C2378 C2379 1.370 . S
C2378 C2382 1.524 . S
C2379 C2371 1.503 . S
C2379 C2378 1.370 . S
C2379 C2380 1.403 . S
C2380 C2379 1.403 . S
C2380 C2381 1.404 . S
C2380 C2383 1.539 . S
C2381 C2377 1.408 . S
C2381 C2380 1.404 . S
C2381 H2393 0.930 . S
C2382 C2378 1.524 . S
C2382 H2394 0.956 . S
C2382 H2395 0.961 . S
C2382 H2396 0.961 . S
C2383 C2380 1.539 . S
C2383 H2397 0.958 . S
C2383 H2398 0.961 . S
C2383 H2399 0.960 . S
H2384 C2368 0.931 . S
H2385 C2373 0.929 . S
H2386 C2374 0.960 . S
H2387 C2374 0.962 . S
H2388 C2374 0.960 . S
H2389 C2375 0.961 . S
H2390 C2375 0.961 . S
H2391 C2375 0.961 . S
H2392 C2376 0.931 . S
H2393 C2381 0.930 . S
H2394 C2382 0.956 . S
H2395 C2382 0.961 . S
H2396 C2382 0.961 . S
H2397 C2383 0.958 . S
H2398 C2383 0.961 . S
H2399 C2383 0.960 . S
C2400 C2401 1.391 1_455 S
C2400 C2402 1.394 . S
C2400 H2416 0.931 . S
C2401 C2400 1.391 1_655 S
C2401 C2405 1.376 . S
C2402 C2400 1.394 . S
C2402 C2403 1.369 1_455 S
C2402 C2406 1.531 . S
C2403 C2402 1.369 1_655 S
C2403 C2404 1.410 . S
C2403 C2411 1.503 . S
C2404 C2403 1.410 . S
C2404 C2405 1.392 . S
C2404 C2407 1.511 . S
C2405 C2401 1.376 . S
C2405 C2404 1.392 . S
C2405 H2417 0.929 . S
C2406 C2402 1.531 . S
C2406 H2418 0.960 . S
C2406 H2419 0.962 . S
C2406 H2420 0.960 . S
C2407 C2404 1.511 . S
C2407 H2421 0.961 . S
C2407 H2422 0.961 . S
C2407 H2423 0.961 . S
C2408 C2409 1.370 1_455 S
C2408 C2410 1.363 . S
C2408 H2424 0.931 . S
C2409 C2408 1.370 1_655 S
C2409 C2413 1.408 . S
C2410 C2408 1.363 . S
C2410 C2411 1.370 1_455 S
C2410 C2414 1.524 . S
C2411 C2403 1.503 . S
C2411 C2410 1.370 1_655 S
C2411 C2412 1.403 . S
C2412 C2411 1.403 . S
C2412 C2413 1.404 . S
C2412 C2415 1.539 . S
C2413 C2409 1.408 . S
C2413 C2412 1.404 . S
C2413 H2425 0.930 . S
C2414 C2410 1.524 . S
C2414 H2426 0.956 . S
C2414 H2427 0.961 . S
C2414 H2428 0.961 . S
C2415 C2412 1.539 . S
C2415 H2429 0.958 . S
C2415 H2430 0.961 . S
C2415 H2431 0.960 . S
H2416 C2400 0.931 . S
H2417 C2405 0.929 . S
H2418 C2406 0.960 . S
H2419 C2406 0.962 . S
H2420 C2406 0.960 . S
H2421 C2407 0.961 . S
H2422 C2407 0.961 . S
H2423 C2407 0.961 . S
H2424 C2408 0.931 . S
H2425 C2413 0.930 . S
H2426 C2414 0.956 . S
H2427 C2414 0.961 . S
H2428 C2414 0.961 . S
H2429 C2415 0.958 . S
H2430 C2415 0.961 . S
H2431 C2415 0.960 . S
C2432 C2433 1.391 . S
C2432 C2434 1.394 . S
C2432 H2448 0.931 . S
C2433 C2432 1.391 . S
C2433 C2437 1.376 . S
C2434 C2432 1.394 . S
C2434 C2435 1.369 . S
C2434 C2438 1.531 . S
C2435 C2434 1.369 . S
C2435 C2436 1.410 . S
C2435 C2443 1.503 . S
C2436 C2435 1.410 . S
C2436 C2437 1.392 . S
C2436 C2439 1.511 . S
C2437 C2433 1.376 . S
C2437 C2436 1.392 . S
C2437 H2449 0.929 . S
C2438 C2434 1.531 . S
C2438 H2450 0.960 . S
C2438 H2451 0.962 . S
C2438 H2452 0.960 . S
C2439 C2436 1.511 . S
C2439 H2453 0.961 . S
C2439 H2454 0.961 . S
C2439 H2455 0.961 . S
C2440 C2441 1.370 . S
C2440 C2442 1.363 . S
C2440 H2456 0.931 . S
C2441 C2440 1.370 . S
C2441 C2445 1.408 . S
C2442 C2440 1.363 . S
C2442 C2443 1.370 . S
C2442 C2446 1.524 . S
C2443 C2435 1.503 . S
C2443 C2442 1.370 . S
C2443 C2444 1.403 . S
C2444 C2443 1.403 . S
C2444 C2445 1.404 . S
C2444 C2447 1.539 . S
C2445 C2441 1.408 . S
C2445 C2444 1.404 . S
C2445 H2457 0.930 . S
C2446 C2442 1.524 . S
C2446 H2458 0.956 . S
C2446 H2459 0.961 . S
C2446 H2460 0.961 . S
C2447 C2444 1.539 . S
C2447 H2461 0.958 . S
C2447 H2462 0.961 . S
C2447 H2463 0.960 . S
H2448 C2432 0.931 . S
H2449 C2437 0.929 . S
H2450 C2438 0.960 . S
H2451 C2438 0.962 . S
H2452 C2438 0.960 . S
H2453 C2439 0.961 . S
H2454 C2439 0.961 . S
H2455 C2439 0.961 . S
H2456 C2440 0.931 . S
H2457 C2445 0.930 . S
H2458 C2446 0.956 . S
H2459 C2446 0.961 . S
H2460 C2446 0.961 . S
H2461 C2447 0.958 . S
H2462 C2447 0.961 . S
H2463 C2447 0.960 . S
C2464 C2465 1.391 . S
C2464 C2466 1.394 . S
C2464 H2480 0.931 . S
C2465 C2464 1.391 . S
C2465 C2469 1.376 . S
C2466 C2464 1.394 . S
C2466 C2467 1.369 . S
C2466 C2470 1.531 . S
C2467 C2466 1.369 . S
C2467 C2468 1.410 . S
C2467 C2475 1.503 . S
C2468 C2467 1.410 . S
C2468 C2469 1.392 . S
C2468 C2471 1.511 . S
C2469 C2465 1.376 . S
C2469 C2468 1.392 . S
C2469 H2481 0.929 . S
C2470 C2466 1.531 . S
C2470 H2482 0.960 . S
C2470 H2483 0.962 . S
C2470 H2484 0.960 . S
C2471 C2468 1.511 . S
C2471 H2485 0.961 . S
C2471 H2486 0.961 . S
C2471 H2487 0.961 . S
C2472 C2473 1.370 1_556 S
C2472 C2474 1.363 . S
C2472 H2488 0.931 . S
C2473 C2472 1.370 1_554 S
C2473 C2477 1.408 . S
C2474 C2472 1.363 . S
C2474 C2475 1.370 . S
C2474 C2478 1.524 . S
C2475 C2467 1.503 . S
C2475 C2474 1.370 . S
C2475 C2476 1.403 1_556 S
C2476 C2475 1.403 1_554 S
C2476 C2477 1.404 . S
C2476 C2479 1.539 . S
C2477 C2473 1.408 . S
C2477 C2476 1.404 . S
C2477 H2489 0.930 . S
C2478 C2474 1.524 . S
C2478 H2490 0.956 . S
C2478 H2491 0.961 . S
C2478 H2492 0.961 . S
C2479 C2476 1.539 . S
C2479 H2493 0.958 . S
C2479 H2494 0.961 . S
C2479 H2495 0.960 . S
H2480 C2464 0.931 . S
H2481 C2469 0.929 . S
H2482 C2470 0.960 . S
H2483 C2470 0.962 . S
H2484 C2470 0.960 . S
H2485 C2471 0.961 . S
H2486 C2471 0.961 . S
H2487 C2471 0.961 . S
H2488 C2472 0.931 . S
H2489 C2477 0.930 . S
H2490 C2478 0.956 . S
H2491 C2478 0.961 . S
H2492 C2478 0.961 . S
H2493 C2479 0.958 . S
H2494 C2479 0.961 . S
H2495 C2479 0.960 . S
C2496 C2497 1.391 . S
C2496 C2498 1.415 . S
C2496 H2512 0.931 . S
C2497 C2496 1.391 . S
C2497 C2501 1.376 . S
C2498 C2496 1.415 . S
C2498 C2499 1.351 1_455 S
C2498 C2502 1.528 . S
C2499 C2498 1.351 1_655 S
C2499 C2500 1.410 . S
C2499 C2507 1.503 . S
C2500 C2499 1.410 . S
C2500 C2501 1.392 1_655 S
C2500 C2503 1.511 . S
C2501 C2497 1.376 . S
C2501 C2500 1.392 1_455 S
C2501 H2513 0.929 . S
C2502 C2498 1.528 . S
C2502 H2514 0.954 1_455 S
C2502 H2515 0.959 1_455 S
C2502 H2516 0.968 . S
C2503 C2500 1.511 . S
C2503 H2517 0.961 . S
C2503 H2518 0.961 . S
C2503 H2519 0.961 . S
C2504 C2505 1.370 . S
C2504 C2506 1.363 . S
C2504 H2520 0.931 . S
C2505 C2504 1.370 . S
C2505 C2509 1.408 . S
C2506 C2504 1.363 . S
C2506 C2507 1.370 . S
C2506 C2510 1.524 . S
C2507 C2499 1.503 . S
C2507 C2506 1.370 . S
C2507 C2508 1.403 . S
C2508 C2507 1.403 . S
C2508 C2509 1.404 . S
C2508 C2511 1.539 . S
C2509 C2505 1.408 . S
C2509 C2508 1.404 . S
C2509 H2521 0.930 . S
C2510 C2506 1.524 . S
C2510 H2522 0.956 . S
C2510 H2523 0.961 . S
C2510 H2524 0.961 . S
C2511 C2508 1.539 . S
C2511 H2525 0.958 . S
C2511 H2526 0.961 . S
C2511 H2527 0.960 . S
H2512 C2496 0.931 . S
H2513 C2501 0.929 . S
H2514 C2502 0.954 1_655 S
H2515 C2502 0.959 1_655 S
H2516 C2502 0.968 . S
H2517 C2503 0.961 . S
H2518 C2503 0.961 . S
H2519 C2503 0.961 . S
H2520 C2504 0.931 . S
H2521 C2509 0.930 . S
H2522 C2510 0.956 . S
H2523 C2510 0.961 . S
H2524 C2510 0.961 . S
H2525 C2511 0.958 . S
H2526 C2511 0.961 . S
H2527 C2511 0.960 . S
C2528 C2529 1.391 . S
C2528 C2530 1.394 . S
C2528 H2544 0.931 . S
C2529 C2528 1.391 . S
C2529 C2533 1.376 . S
C2530 C2528 1.394 . S
C2530 C2531 1.369 . S
C2530 C2534 1.531 . S
C2531 C2530 1.369 . S
C2531 C2532 1.410 . S
C2531 C2539 1.503 . S
C2532 C2531 1.410 . S
C2532 C2533 1.392 . S
C2532 C2535 1.518 . S
C2533 C2529 1.376 . S
C2533 C2532 1.392 . S
C2533 H2545 0.929 . S
C2534 C2530 1.531 . S
C2534 H2546 0.960 . S
C2534 H2547 0.962 . S
C2534 H2548 0.960 . S
C2535 C2532 1.518 . S
C2535 H2549 0.950 1_545 S
C2535 H2550 0.952 1_545 S
C2535 H2551 0.973 . S
C2536 C2537 1.373 . S
C2536 C2538 1.364 . S
C2536 H2552 0.927 1_545 S
C2537 C2536 1.373 . S
C2537 C2541 1.408 . S
C2538 C2536 1.364 . S
C2538 C2539 1.370 . S
C2538 C2542 1.524 1_545 S
C2539 C2531 1.503 . S
C2539 C2538 1.370 . S
C2539 C2540 1.403 . S
C2540 C2539 1.403 . S
C2540 C2541 1.404 . S
C2540 C2543 1.539 . S
C2541 C2537 1.408 . S
C2541 C2540 1.404 . S
C2541 H2553 0.930 . S
C2542 C2538 1.524 1_565 S
C2542 H2554 0.956 1_565 S
C2542 H2555 0.961 . S
C2542 H2556 0.961 . S
C2543 C2540 1.539 . S
C2543 H2557 0.958 . S
C2543 H2558 0.961 . S
C2543 H2559 0.960 . S
H2544 C2528 0.931 . S
H2545 C2533 0.929 . S
H2546 C2534 0.960 . S
H2547 C2534 0.962 . S
H2548 C2534 0.960 . S
H2549 C2535 0.950 1_565 S
H2550 C2535 0.952 1_565 S
H2551 C2535 0.973 . S
H2552 C2536 0.927 1_565 S
H2553 C2541 0.930 . S
H2554 C2542 0.956 1_545 S
H2555 C2542 0.961 . S
H2556 C2542 0.961 . S
H2557 C2543 0.958 . S
H2558 C2543 0.961 . S
H2559 C2543 0.960 . S
C2560 C2561 1.391 . S
C2560 C2562 1.394 . S
C2560 H2576 0.931 . S
C2561 C2560 1.391 . S
C2561 C2565 1.376 . S
C2562 C2560 1.394 . S
C2562 C2563 1.369 . S
C2562 C2566 1.531 . S
C2563 C2562 1.369 . S
C2563 C2564 1.410 . S
C2563 C2571 1.503 . S
C2564 C2563 1.410 . S
C2564 C2565 1.392 . S
C2564 C2567 1.511 . S
C2565 C2561 1.376 . S
C2565 C2564 1.392 . S
C2565 H2577 0.929 . S
C2566 C2562 1.531 . S
C2566 H2578 0.960 . S
C2566 H2579 0.962 . S
C2566 H2580 0.960 . S
C2567 C2564 1.511 . S
C2567 H2581 0.961 . S
C2567 H2582 0.961 . S
C2567 H2583 0.961 . S
C2568 C2569 1.370 . S
C2568 C2570 1.363 . S
C2568 H2584 0.931 . S
C2569 C2568 1.370 . S
C2569 C2573 1.408 . S
C2570 C2568 1.363 . S
C2570 C2571 1.370 . S
C2570 C2574 1.524 . S
C2571 C2563 1.503 . S
C2571 C2570 1.370 . S
C2571 C2572 1.403 . S
C2572 C2571 1.403 . S
C2572 C2573 1.404 . S
C2572 C2575 1.539 . S
C2573 C2569 1.408 . S
C2573 C2572 1.404 . S
C2573 H2585 0.930 . S
C2574 C2570 1.524 . S
C2574 H2586 0.956 . S
C2574 H2587 0.961 . S
C2574 H2588 0.961 . S
C2575 C2572 1.539 . S
C2575 H2589 0.958 . S
C2575 H2590 0.961 . S
C2575 H2591 0.960 . S
H2576 C2560 0.931 . S
H2577 C2565 0.929 . S
H2578 C2566 0.960 . S
H2579 C2566 0.962 . S
H2580 C2566 0.960 . S
H2581 C2567 0.961 . S
H2582 C2567 0.961 . S
H2583 C2567 0.961 . S
H2584 C2568 0.931 . S
H2585 C2573 0.930 . S
H2586 C2574 0.956 . S
H2587 C2574 0.961 . S
H2588 C2574 0.961 . S
H2589 C2575 0.958 . S
H2590 C2575 0.961 . S
H2591 C2575 0.960 . S
C2592 C2593 1.391 . S
C2592 C2594 1.394 . S
C2592 H2608 0.931 . S
C2593 C2592 1.391 . S
C2593 C2597 1.376 . S
C2594 C2592 1.394 . S
C2594 C2595 1.369 . S
C2594 C2598 1.531 . S
C2595 C2594 1.369 . S
C2595 C2596 1.410 . S
C2595 C2603 1.503 . S
C2596 C2595 1.410 . S
C2596 C2597 1.392 . S
C2596 C2599 1.511 . S
C2597 C2593 1.376 . S
C2597 C2596 1.392 . S
C2597 H2609 0.929 . S
C2598 C2594 1.531 . S
C2598 H2610 0.977 . S
C2598 H2611 0.962 . S
C2598 H2612 0.960 1_545 S
C2599 C2596 1.511 . S
C2599 H2613 0.961 . S
C2599 H2614 0.961 . S
C2599 H2615 0.961 . S
C2600 C2601 1.370 . S
C2600 C2602 1.363 . S
C2600 H2616 0.931 . S
C2601 C2600 1.370 . S
C2601 C2605 1.408 . S
C2602 C2600 1.363 . S
C2602 C2603 1.370 . S
C2602 C2606 1.524 . S
C2603 C2595 1.503 . S
C2603 C2602 1.370 . S
C2603 C2604 1.403 . S
C2604 C2603 1.403 . S
C2604 C2605 1.404 . S
C2604 C2607 1.539 1_545 S
C2605 C2601 1.408 . S
C2605 C2604 1.404 . S
C2605 H2617 0.930 1_545 S
C2606 C2602 1.524 . S
C2606 H2618 0.956 . S
C2606 H2619 0.961 . S
C2606 H2620 0.961 . S
C2607 C2604 1.539 1_565 S
C2607 H2621 0.958 . S
C2607 H2622 0.961 . S
C2607 H2623 0.960 . S
H2608 C2592 0.931 . S
H2609 C2597 0.929 . S
H2610 C2598 0.977 . S
H2611 C2598 0.962 . S
H2612 C2598 0.960 1_565 S
H2613 C2599 0.961 . S
H2614 C2599 0.961 . S
H2615 C2599 0.961 . S
H2616 C2600 0.931 . S
H2617 C2605 0.930 1_565 S
H2618 C2606 0.956 . S
H2619 C2606 0.961 . S
H2620 C2606 0.961 . S
H2621 C2607 0.958 . S
H2622 C2607 0.961 . S
H2623 C2607 0.960 . S
C2624 C2625 1.391 . S
C2624 C2626 1.394 . S
C2624 H2640 0.931 . S
C2625 C2624 1.391 . S
C2625 C2629 1.376 . S
C2626 C2624 1.394 . S
C2626 C2627 1.369 . S
C2626 C2630 1.531 . S
C2627 C2626 1.369 . S
C2627 C2628 1.410 . S
C2627 C2635 1.503 . S
C2628 C2627 1.410 . S
C2628 C2629 1.392 . S
C2628 C2631 1.511 . S
C2629 C2625 1.376 . S
C2629 C2628 1.392 . S
C2629 H2641 0.929 . S
C2630 C2626 1.531 . S
C2630 H2642 0.960 . S
C2630 H2643 0.962 . S
C2630 H2644 0.960 . S
C2631 C2628 1.511 . S
C2631 H2645 0.961 . S
C2631 H2646 0.961 . S
C2631 H2647 0.961 . S
C2632 C2633 1.370 . S
C2632 C2634 1.363 . S
C2632 H2648 0.931 . S
C2633 C2632 1.370 . S
C2633 C2637 1.408 . S
C2634 C2632 1.363 . S
C2634 C2635 1.370 . S
C2634 C2638 1.524 . S
C2635 C2627 1.503 . S
C2635 C2634 1.370 . S
C2635 C2636 1.403 . S
C2636 C2635 1.403 . S
C2636 C2637 1.404 . S
C2636 C2639 1.539 . S
C2637 C2633 1.408 . S
C2637 C2636 1.404 . S
C2637 H2649 0.930 . S
C2638 C2634 1.524 . S
C2638 H2650 0.956 . S
C2638 H2651 0.961 . S
C2638 H2652 0.961 . S
C2639 C2636 1.539 . S
C2639 H2653 0.958 . S
C2639 H2654 0.961 . S
C2639 H2655 0.960 . S
H2640 C2624 0.931 . S
H2641 C2629 0.929 . S
H2642 C2630 0.960 . S
H2643 C2630 0.962 . S
H2644 C2630 0.960 . S
H2645 C2631 0.961 . S
H2646 C2631 0.961 . S
H2647 C2631 0.961 . S
H2648 C2632 0.931 . S
H2649 C2637 0.930 . S
H2650 C2638 0.956 . S
H2651 C2638 0.961 . S
H2652 C2638 0.961 . S
H2653 C2639 0.958 . S
H2654 C2639 0.961 . S
H2655 C2639 0.960 . S
C2656 C2657 1.391 . S
C2656 C2658 1.394 . S
C2656 H2672 0.931 . S
C2657 C2656 1.391 . S
C2657 C2661 1.376 . S
C2658 C2656 1.394 . S
C2658 C2659 1.369 . S
C2658 C2662 1.531 . S
C2659 C2658 1.369 . S
C2659 C2660 1.410 . S
C2659 C2667 1.503 . S
C2660 C2659 1.410 . S
C2660 C2661 1.392 . S
C2660 C2663 1.511 . S
C2661 C2657 1.376 . S
C2661 C2660 1.392 . S
C2661 H2673 0.929 . S
C2662 C2658 1.531 . S
C2662 H2674 0.960 . S
C2662 H2675 0.962 . S
C2662 H2676 0.960 . S
C2663 C2660 1.511 . S
C2663 H2677 0.961 . S
C2663 H2678 0.961 . S
C2663 H2679 0.961 . S
C2664 C2665 1.370 . S
C2664 C2666 1.363 . S
C2664 H2680 0.931 . S
C2665 C2664 1.370 . S
C2665 C2669 1.429 . S
C2666 C2664 1.363 . S
C2666 C2667 1.370 . S
C2666 C2670 1.524 . S
C2667 C2659 1.503 . S
C2667 C2666 1.370 . S
C2667 C2668 1.420 . S
C2668 C2667 1.420 . S
C2668 C2669 1.404 . S
C2668 C2671 1.517 1_545 S
C2669 C2665 1.429 . S
C2669 C2668 1.404 . S
C2669 H2681 0.915 1_545 S
C2670 C2666 1.524 . S
C2670 H2682 0.956 . S
C2670 H2683 0.961 . S
C2670 H2684 0.961 . S
C2671 C2668 1.517 1_565 S
C2671 H2685 0.958 . S
C2671 H2686 0.961 . S
C2671 H2687 0.960 . S
H2672 C2656 0.931 . S
H2673 C2661 0.929 . S
H2674 C2662 0.960 . S
H2675 C2662 0.962 . S
H2676 C2662 0.960 . S
H2677 C2663 0.961 . S
H2678 C2663 0.961 . S
H2679 C2663 0.961 . S
H2680 C2664 0.931 . S
H2681 C2669 0.915 1_565 S
H2682 C2670 0.956 . S
H2683 C2670 0.961 . S
H2684 C2670 0.961 . S
H2685 C2671 0.958 . S
H2686 C2671 0.961 . S
H2687 C2671 0.960 . S
C2688 C2689 1.391 . S
C2688 C2690 1.394 . S
C2688 H2704 0.931 . S
C2689 C2688 1.391 . S
C2689 C2693 1.376 . S
C2690 C2688 1.394 . S
C2690 C2691 1.369 . S
C2690 C2694 1.531 . S
C2691 C2690 1.369 . S
C2691 C2692 1.410 . S
C2691 C2699 1.503 . S
C2692 C2691 1.410 . S
C2692 C2693 1.392 . S
C2692 C2695 1.511 . S
C2693 C2689 1.376 . S
C2693 C2692 1.392 . S
C2693 H2705 0.929 . S
C2694 C2690 1.531 . S
C2694 H2706 0.960 . S
C2694 H2707 0.962 . S
C2694 H2708 0.960 . S
C2695 C2692 1.511 . S
C2695 H2709 0.961 . S
C2695 H2710 0.961 . S
C2695 H2711 0.961 . S
C2696 C2697 1.370 . S
C2696 C2698 1.363 . S
C2696 H2712 0.931 . S
C2697 C2696 1.370 . S
C2697 C2701 1.408 . S
C2698 C2696 1.363 . S
C2698 C2699 1.370 . S
C2698 C2702 1.524 . S
C2699 C2691 1.503 . S
C2699 C2698 1.370 . S
C2699 C2700 1.403 . S
C2700 C2699 1.403 . S
C2700 C2701 1.404 . S
C2700 C2703 1.539 . S
C2701 C2697 1.408 . S
C2701 C2700 1.404 . S
C2701 H2713 0.930 . S
C2702 C2698 1.524 . S
C2702 H2714 0.956 . S
C2702 H2715 0.961 . S
C2702 H2716 0.961 . S
C2703 C2700 1.539 . S
C2703 H2717 0.958 . S
C2703 H2718 0.961 . S
C2703 H2719 0.960 . S
H2704 C2688 0.931 . S
H2705 C2693 0.929 . S
H2706 C2694 0.960 . S
H2707 C2694 0.962 . S
H2708 C2694 0.960 . S
H2709 C2695 0.961 . S
H2710 C2695 0.961 . S
H2711 C2695 0.961 . S
H2712 C2696 0.931 . S
H2713 C2701 0.930 . S
H2714 C2702 0.956 . S
H2715 C2702 0.961 . S
H2716 C2702 0.961 . S
H2717 C2703 0.958 . S
H2718 C2703 0.961 . S
H2719 C2703 0.960 . S
C2720 C2721 1.391 . S
C2720 C2722 1.394 . S
C2720 H2736 0.931 . S
C2721 C2720 1.391 . S
C2721 C2725 1.376 . S
C2722 C2720 1.394 . S
C2722 C2723 1.369 . S
C2722 C2726 1.531 . S
C2723 C2722 1.369 . S
C2723 C2724 1.410 . S
C2723 C2731 1.503 . S
C2724 C2723 1.410 . S
C2724 C2725 1.392 . S
C2724 C2727 1.508 1_545 S
C2725 C2721 1.376 . S
C2725 C2724 1.392 . S
C2725 H2737 0.929 . S
C2726 C2722 1.531 . S
C2726 H2738 0.960 . S
C2726 H2739 0.962 . S
C2726 H2740 0.960 . S
C2727 C2724 1.508 1_565 S
C2727 H2741 0.942 1_565 S
C2727 H2742 0.949 1_565 S
C2727 H2743 0.996 . S
C2728 C2729 1.370 . S
C2728 C2730 1.363 . S
C2728 H2744 0.931 . S
C2729 C2728 1.370 . S
C2729 C2733 1.408 1_545 S
C2730 C2728 1.363 . S
C2730 C2731 1.370 . S
C2730 C2734 1.524 . S
C2731 C2723 1.503 . S
C2731 C2730 1.370 . S
C2731 C2732 1.403 1_545 S
C2732 C2731 1.403 1_565 S
C2732 C2733 1.404 . S
C2732 C2735 1.539 . S
C2733 C2729 1.408 1_565 S
C2733 C2732 1.404 . S
C2733 H2745 0.930 . S
C2734 C2730 1.524 . S
C2734 H2746 0.956 . S
C2734 H2747 0.961 . S
C2734 H2748 0.961 . S
C2735 C2732 1.539 . S
C2735 H2749 0.958 . S
C2735 H2750 0.961 . S
C2735 H2751 0.960 . S
H2736 C2720 0.931 . S
H2737 C2725 0.929 . S
H2738 C2726 0.960 . S
H2739 C2726 0.962 . S
H2740 C2726 0.960 . S
H2741 C2727 0.942 1_545 S
H2742 C2727 0.949 1_545 S
H2743 C2727 0.996 . S
H2744 C2728 0.931 . S
H2745 C2733 0.930 . S
H2746 C2734 0.956 . S
H2747 C2734 0.961 . S
H2748 C2734 0.961 . S
H2749 C2735 0.958 . S
H2750 C2735 0.961 . S
H2751 C2735 0.960 . S
C2752 C2753 1.391 . S
C2752 C2754 1.394 . S
C2752 H2768 0.931 . S
C2753 C2752 1.391 . S
C2753 C2757 1.376 . S
C2754 C2752 1.394 . S
C2754 C2755 1.369 . S
C2754 C2758 1.531 . S
C2755 C2754 1.369 . S
C2755 C2756 1.410 . S
C2755 C2763 1.503 . S
C2756 C2755 1.410 . S
C2756 C2757 1.392 . S
C2756 C2759 1.511 . S
C2757 C2753 1.376 . S
C2757 C2756 1.392 . S
C2757 H2769 0.929 . S
C2758 C2754 1.531 . S
C2758 H2770 0.960 . S
C2758 H2771 0.962 . S
C2758 H2772 0.960 . S
C2759 C2756 1.511 . S
C2759 H2773 0.961 . S
C2759 H2774 0.961 . S
C2759 H2775 0.961 . S
C2760 C2761 1.370 . S
C2760 C2762 1.363 . S
C2760 H2776 0.931 . S
C2761 C2760 1.370 . S
C2761 C2765 1.408 . S
C2762 C2760 1.363 . S
C2762 C2763 1.370 . S
C2762 C2766 1.524 . S
C2763 C2755 1.503 . S
C2763 C2762 1.370 . S
C2763 C2764 1.403 . S
C2764 C2763 1.403 . S
C2764 C2765 1.404 . S
C2764 C2767 1.539 . S
C2765 C2761 1.408 . S
C2765 C2764 1.404 . S
C2765 H2777 0.930 . S
C2766 C2762 1.524 . S
C2766 H2778 0.956 . S
C2766 H2779 0.961 . S
C2766 H2780 0.961 . S
C2767 C2764 1.539 . S
C2767 H2781 0.958 . S
C2767 H2782 0.961 . S
C2767 H2783 0.960 . S
H2768 C2752 0.931 . S
H2769 C2757 0.929 . S
H2770 C2758 0.960 . S
H2771 C2758 0.962 . S
H2772 C2758 0.960 . S
H2773 C2759 0.961 . S
H2774 C2759 0.961 . S
H2775 C2759 0.961 . S
H2776 C2760 0.931 . S
H2777 C2765 0.930 . S
H2778 C2766 0.956 . S
H2779 C2766 0.961 . S
H2780 C2766 0.961 . S
H2781 C2767 0.958 . S
H2782 C2767 0.961 . S
H2783 C2767 0.960 . S
C2784 C2785 1.391 . S
C2784 C2786 1.394 . S
C2784 H2800 0.931 . S
C2785 C2784 1.391 . S
C2785 C2789 1.376 . S
C2786 C2784 1.394 . S
C2786 C2787 1.369 . S
C2786 C2790 1.531 . S
C2787 C2786 1.369 . S
C2787 C2788 1.410 . S
C2787 C2795 1.503 . S
C2788 C2787 1.410 . S
C2788 C2789 1.392 . S
C2788 C2791 1.511 . S
C2789 C2785 1.376 . S
C2789 C2788 1.392 . S
C2789 H2801 0.929 . S
C2790 C2786 1.531 . S
C2790 H2802 0.960 . S
C2790 H2803 0.962 . S
C2790 H2804 0.960 . S
C2791 C2788 1.511 . S
C2791 H2805 0.961 . S
C2791 H2806 0.961 . S
C2791 H2807 0.961 . S
C2792 C2793 1.370 . S
C2792 C2794 1.363 . S
C2792 H2808 0.931 . S
C2793 C2792 1.370 . S
C2793 C2797 1.408 . S
C2794 C2792 1.363 . S
C2794 C2795 1.370 . S
C2794 C2798 1.524 . S
C2795 C2787 1.503 . S
C2795 C2794 1.370 . S
C2795 C2796 1.403 . S
C2796 C2795 1.403 . S
C2796 C2797 1.404 . S
C2796 C2799 1.539 . S
C2797 C2793 1.408 . S
C2797 C2796 1.404 . S
C2797 H2809 0.930 1_554 S
C2798 C2794 1.524 . S
C2798 H2810 0.956 . S
C2798 H2811 0.961 . S
C2798 H2812 0.961 . S
C2799 C2796 1.539 . S
C2799 H2813 0.958 1_554 S
C2799 H2814 0.963 . S
C2799 H2815 0.960 . S
H2800 C2784 0.931 . S
H2801 C2789 0.929 . S
H2802 C2790 0.960 . S
H2803 C2790 0.962 . S
H2804 C2790 0.960 . S
H2805 C2791 0.961 . S
H2806 C2791 0.961 . S
H2807 C2791 0.961 . S
H2808 C2792 0.931 . S
H2809 C2797 0.930 1_556 S
H2810 C2798 0.956 . S
H2811 C2798 0.961 . S
H2812 C2798 0.961 . S
H2813 C2799 0.958 1_556 S
H2814 C2799 0.963 . S
H2815 C2799 0.960 . S
C2816 C2817 1.391 . S
C2816 C2818 1.394 . S
C2816 H2832 0.931 . S
C2817 C2816 1.391 . S
C2817 C2821 1.376 . S
C2818 C2816 1.394 . S
C2818 C2819 1.369 . S
C2818 C2822 1.531 . S
C2819 C2818 1.369 . S
C2819 C2820 1.410 . S
C2819 C2827 1.503 . S
C2820 C2819 1.410 . S
C2820 C2821 1.392 . S
C2820 C2823 1.511 . S
C2821 C2817 1.376 . S
C2821 C2820 1.392 . S
C2821 H2833 0.929 . S
C2822 C2818 1.531 . S
C2822 H2834 0.960 . S
C2822 H2835 0.962 . S
C2822 H2836 0.960 . S
C2823 C2820 1.511 . S
C2823 H2837 0.961 . S
C2823 H2838 0.961 . S
C2823 H2839 0.961 . S
C2824 C2825 1.370 . S
C2824 C2826 1.363 . S
C2824 H2840 0.931 . S
C2825 C2824 1.370 . S
C2825 C2829 1.408 . S
C2826 C2824 1.363 . S
C2826 C2827 1.370 . S
C2826 C2830 1.524 . S
C2827 C2819 1.503 . S
C2827 C2826 1.370 . S
C2827 C2828 1.403 . S
C2828 C2827 1.403 . S
C2828 C2829 1.404 . S
C2828 C2831 1.539 1_554 S
C2829 C2825 1.408 . S
C2829 C2828 1.404 . S
C2829 H2841 0.930 . S
C2830 C2826 1.524 . S
C2830 H2842 0.956 . S
C2830 H2843 0.961 . S
C2830 H2844 0.961 . S
C2831 C2828 1.539 1_556 S
C2831 H2845 0.958 . S
C2831 H2846 0.961 . S
C2831 H2847 0.966 . S
H2832 C2816 0.931 . S
H2833 C2821 0.929 . S
H2834 C2822 0.960 . S
H2835 C2822 0.962 . S
H2836 C2822 0.960 . S
H2837 C2823 0.961 . S
H2838 C2823 0.961 . S
H2839 C2823 0.961 . S
H2840 C2824 0.931 . S
H2841 C2829 0.930 . S
H2842 C2830 0.956 . S
H2843 C2830 0.961 . S
H2844 C2830 0.961 . S
H2845 C2831 0.958 . S
H2846 C2831 0.961 . S
H2847 C2831 0.966 . S
C2848 C2849 1.391 . S
C2848 C2850 1.394 . S
C2848 H2864 0.931 . S
C2849 C2848 1.391 . S
C2849 C2853 1.376 . S
C2850 C2848 1.394 . S
C2850 C2851 1.369 . S
C2850 C2854 1.531 . S
C2851 C2850 1.369 . S
C2851 C2852 1.410 . S
C2851 C2859 1.503 . S
C2852 C2851 1.410 . S
C2852 C2853 1.392 . S
C2852 C2855 1.511 . S
C2853 C2849 1.376 . S
C2853 C2852 1.392 . S
C2853 H2865 0.929 . S
C2854 C2850 1.531 . S
C2854 H2866 0.960 . S
C2854 H2867 0.962 . S
C2854 H2868 0.960 . S
C2855 C2852 1.511 . S
C2855 H2869 0.961 . S
C2855 H2870 0.961 . S
C2855 H2871 0.961 . S
C2856 C2857 1.370 . S
C2856 C2858 1.363 . S
C2856 H2872 0.931 . S
C2857 C2856 1.370 . S
C2857 C2861 1.408 . S
C2858 C2856 1.363 . S
C2858 C2859 1.370 . S
C2858 C2862 1.524 . S
C2859 C2851 1.503 . S
C2859 C2858 1.370 . S
C2859 C2860 1.403 . S
C2860 C2859 1.403 . S
C2860 C2861 1.404 . S
C2860 C2863 1.539 . S
C2861 C2857 1.408 . S
C2861 C2860 1.404 . S
C2861 H2873 0.930 . S
C2862 C2858 1.524 . S
C2862 H2874 0.956 . S
C2862 H2875 0.961 . S
C2862 H2876 0.961 . S
C2863 C2860 1.539 . S
C2863 H2877 0.958 . S
C2863 H2878 0.961 . S
C2863 H2879 0.960 . S
H2864 C2848 0.931 . S
H2865 C2853 0.929 . S
H2866 C2854 0.960 . S
H2867 C2854 0.962 . S
H2868 C2854 0.960 . S
H2869 C2855 0.961 . S
H2870 C2855 0.961 . S
H2871 C2855 0.961 . S
H2872 C2856 0.931 . S
H2873 C2861 0.930 . S
H2874 C2862 0.956 . S
H2875 C2862 0.961 . S
H2876 C2862 0.961 . S
H2877 C2863 0.958 . S
H2878 C2863 0.961 . S
H2879 C2863 0.960 . S
C2880 C2881 1.391 . S
C2880 C2882 1.394 . S
C2880 H2896 0.931 . S
C2881 C2880 1.391 . S
C2881 C2885 1.376 . S
C2882 C2880 1.394 . S
C2882 C2883 1.369 . S
C2882 C2886 1.531 . S
C2883 C2882 1.369 . S
C2883 C2884 1.410 . S
C2883 C2891 1.503 . S
C2884 C2883 1.410 . S
C2884 C2885 1.392 . S
C2884 C2887 1.511 . S
C2885 C2881 1.376 . S
C2885 C2884 1.392 . S
C2885 H2897 0.929 . S
C2886 C2882 1.531 . S
C2886 H2898 0.960 . S
C2886 H2899 0.962 . S
C2886 H2900 0.960 . S
C2887 C2884 1.511 . S
C2887 H2901 0.961 . S
C2887 H2902 0.961 . S
C2887 H2903 0.961 . S
C2888 C2889 1.370 . S
C2888 C2890 1.363 . S
C2888 H2904 0.931 . S
C2889 C2888 1.370 . S
C2889 C2893 1.408 . S
C2890 C2888 1.363 . S
C2890 C2891 1.370 . S
C2890 C2894 1.524 . S
C2891 C2883 1.503 . S
C2891 C2890 1.370 . S
C2891 C2892 1.403 . S
C2892 C2891 1.403 . S
C2892 C2893 1.404 . S
C2892 C2895 1.539 . S
C2893 C2889 1.408 . S
C2893 C2892 1.404 . S
C2893 H2905 0.930 . S
C2894 C2890 1.524 . S
C2894 H2906 0.956 . S
C2894 H2907 0.961 . S
C2894 H2908 0.961 . S
C2895 C2892 1.539 . S
C2895 H2909 0.958 . S
C2895 H2910 0.961 . S
C2895 H2911 0.960 . S
H2896 C2880 0.931 . S
H2897 C2885 0.929 . S
H2898 C2886 0.960 . S
H2899 C2886 0.962 . S
H2900 C2886 0.960 . S
H2901 C2887 0.961 . S
H2902 C2887 0.961 . S
H2903 C2887 0.961 . S
H2904 C2888 0.931 . S
H2905 C2893 0.930 . S
H2906 C2894 0.956 . S
H2907 C2894 0.961 . S
H2908 C2894 0.961 . S
H2909 C2895 0.958 . S
H2910 C2895 0.961 . S
H2911 C2895 0.960 . S
C2912 C2913 1.391 . S
C2912 C2914 1.394 . S
C2912 H2928 0.931 . S
C2913 C2912 1.391 . S
C2913 C2917 1.376 . S
C2914 C2912 1.394 . S
C2914 C2915 1.369 . S
C2914 C2918 1.531 . S
C2915 C2914 1.369 . S
C2915 C2916 1.410 . S
C2915 C2923 1.503 . S
C2916 C2915 1.410 . S
C2916 C2917 1.392 . S
C2916 C2919 1.511 . S
C2917 C2913 1.376 . S
C2917 C2916 1.392 . S
C2917 H2929 0.929 . S
C2918 C2914 1.531 . S
C2918 H2930 0.960 . S
C2918 H2931 0.962 . S
C2918 H2932 0.960 . S
C2919 C2916 1.511 . S
C2919 H2933 0.961 . S
C2919 H2934 0.961 . S
C2919 H2935 0.961 . S
C2920 C2921 1.370 . S
C2920 C2922 1.363 . S
C2920 H2936 0.931 . S
C2921 C2920 1.370 . S
C2921 C2925 1.408 . S
C2922 C2920 1.363 . S
C2922 C2923 1.370 . S
C2922 C2926 1.524 . S
C2923 C2915 1.503 . S
C2923 C2922 1.370 . S
C2923 C2924 1.403 . S
C2924 C2923 1.403 . S
C2924 C2925 1.404 . S
C2924 C2927 1.539 . S
C2925 C2921 1.408 . S
C2925 C2924 1.404 . S
C2925 H2937 0.930 . S
C2926 C2922 1.524 . S
C2926 H2938 0.956 . S
C2926 H2939 0.961 . S
C2926 H2940 0.961 . S
C2927 C2924 1.539 . S
C2927 H2941 0.958 . S
C2927 H2942 0.961 . S
C2927 H2943 0.960 . S
H2928 C2912 0.931 . S
H2929 C2917 0.929 . S
H2930 C2918 0.960 . S
H2931 C2918 0.962 . S
H2932 C2918 0.960 . S
H2933 C2919 0.961 . S
H2934 C2919 0.961 . S
H2935 C2919 0.961 . S
H2936 C2920 0.931 . S
H2937 C2925 0.930 . S
H2938 C2926 0.956 . S
H2939 C2926 0.961 . S
H2940 C2926 0.961 . S
H2941 C2927 0.958 . S
H2942 C2927 0.961 . S
H2943 C2927 0.960 . S
C2944 C2945 1.391 . S
C2944 C2946 1.394 . S
C2944 H2960 0.931 . S
C2945 C2944 1.391 . S
C2945 C2949 1.376 . S
C2946 C2944 1.394 . S
C2946 C2947 1.369 . S
C2946 C2950 1.531 . S
C2947 C2946 1.369 . S
C2947 C2948 1.410 . S
C2947 C2955 1.503 . S
C2948 C2947 1.410 . S
C2948 C2949 1.392 . S
C2948 C2951 1.511 . S
C2949 C2945 1.376 . S
C2949 C2948 1.392 . S
C2949 H2961 0.929 . S
C2950 C2946 1.531 . S
C2950 H2962 0.960 . S
C2950 H2963 0.962 . S
C2950 H2964 0.960 . S
C2951 C2948 1.511 . S
C2951 H2965 0.961 . S
C2951 H2966 0.961 . S
C2951 H2967 0.961 . S
C2952 C2953 1.370 . S
C2952 C2954 1.363 . S
C2952 H2968 0.931 . S
C2953 C2952 1.370 . S
C2953 C2957 1.408 . S
C2954 C2952 1.363 . S
C2954 C2955 1.370 . S
C2954 C2958 1.524 . S
C2955 C2947 1.503 . S
C2955 C2954 1.370 . S
C2955 C2956 1.403 . S
C2956 C2955 1.403 . S
C2956 C2957 1.404 . S
C2956 C2959 1.539 . S
C2957 C2953 1.408 . S
C2957 C2956 1.404 . S
C2957 H2969 0.930 . S
C2958 C2954 1.524 . S
C2958 H2970 0.956 . S
C2958 H2971 0.961 . S
C2958 H2972 0.961 . S
C2959 C2956 1.539 . S
C2959 H2973 0.958 . S
C2959 H2974 0.961 . S
C2959 H2975 0.960 . S
H2960 C2944 0.931 . S
H2961 C2949 0.929 . S
H2962 C2950 0.960 . S
H2963 C2950 0.962 . S
H2964 C2950 0.960 . S
H2965 C2951 0.961 . S
H2966 C2951 0.961 . S
H2967 C2951 0.961 . S
H2968 C2952 0.931 . S
H2969 C2957 0.930 . S
H2970 C2958 0.956 . S
H2971 C2958 0.961 . S
H2972 C2958 0.961 . S
H2973 C2959 0.958 . S
H2974 C2959 0.961 . S
H2975 C2959 0.960 . S
C2976 C2977 1.391 . S
C2976 C2978 1.394 . S
C2976 H2992 0.931 . S
C2977 C2976 1.391 . S
C2977 C2981 1.376 . S
C2978 C2976 1.394 . S
C2978 C2979 1.369 . S
C2978 C2982 1.531 . S
C2979 C2978 1.369 . S
C2979 C2980 1.410 . S
C2979 C2987 1.503 . S
C2980 C2979 1.410 . S
C2980 C2981 1.392 . S
C2980 C2983 1.511 . S
C2981 C2977 1.376 . S
C2981 C2980 1.392 . S
C2981 H2993 0.929 . S
C2982 C2978 1.531 . S
C2982 H2994 0.960 . S
C2982 H2995 0.962 . S
C2982 H2996 0.960 . S
C2983 C2980 1.511 . S
C2983 H2997 0.961 . S
C2983 H2998 0.961 . S
C2983 H2999 0.961 . S
C2984 C2985 1.370 . S
C2984 C2986 1.363 . S
C2984 H3000 0.931 . S
C2985 C2984 1.370 . S
C2985 C2989 1.408 . S
C2986 C2984 1.363 . S
C2986 C2987 1.370 . S
C2986 C2990 1.524 . S
C2987 C2979 1.503 . S
C2987 C2986 1.370 . S
C2987 C2988 1.403 . S
C2988 C2987 1.403 . S
C2988 C2989 1.404 . S
C2988 C2991 1.539 . S
C2989 C2985 1.408 . S
C2989 C2988 1.404 . S
C2989 H3001 0.930 . S
C2990 C2986 1.524 . S
C2990 H3002 0.956 . S
C2990 H3003 0.961 . S
C2990 H3004 0.961 . S
C2991 C2988 1.539 . S
C2991 H3005 0.958 . S
C2991 H3006 0.961 . S
C2991 H3007 0.960 . S
H2992 C2976 0.931 . S
H2993 C2981 0.929 . S
H2994 C2982 0.960 . S
H2995 C2982 0.962 . S
H2996 C2982 0.960 . S
H2997 C2983 0.961 . S
H2998 C2983 0.961 . S
H2999 C2983 0.961 . S
H3000 C2984 0.931 . S
H3001 C2989 0.930 . S
H3002 C2990 0.956 . S
H3003 C2990 0.961 . S
H3004 C2990 0.961 . S
H3005 C2991 0.958 . S
H3006 C2991 0.961 . S
H3007 C2991 0.960 . S
C3008 C3009 1.391 . S
C3008 C3010 1.394 . S
C3008 H3024 0.931 . S
C3009 C3008 1.391 . S
C3009 C3013 1.376 . S
C3010 C3008 1.394 . S
C3010 C3011 1.369 . S
C3010 C3014 1.531 . S
C3011 C3010 1.369 . S
C3011 C3012 1.410 . S
C3011 C3019 1.503 . S
C3012 C3011 1.410 . S
C3012 C3013 1.392 . S
C3012 C3015 1.511 . S
C3013 C3009 1.376 . S
C3013 C3012 1.392 . S
C3013 H3025 0.929 . S
C3014 C3010 1.531 . S
C3014 H3026 0.960 . S
C3014 H3027 0.962 . S
C3014 H3028 0.960 . S
C3015 C3012 1.511 . S
C3015 H3029 0.961 . S
C3015 H3030 0.961 . S
C3015 H3031 0.961 . S
C3016 C3017 1.370 . S
C3016 C3018 1.363 . S
C3016 H3032 0.931 . S
C3017 C3016 1.370 . S
C3017 C3021 1.408 . S
C3018 C3016 1.363 . S
C3018 C3019 1.370 . S
C3018 C3022 1.524 . S
C3019 C3011 1.503 . S
C3019 C3018 1.370 . S
C3019 C3020 1.403 . S
C3020 C3019 1.403 . S
C3020 C3021 1.404 . S
C3020 C3023 1.539 . S
C3021 C3017 1.408 . S
C3021 C3020 1.404 . S
C3021 H3033 0.930 . S
C3022 C3018 1.524 . S
C3022 H3034 0.956 . S
C3022 H3035 0.961 . S
C3022 H3036 0.961 . S
C3023 C3020 1.539 . S
C3023 H3037 0.958 . S
C3023 H3038 0.961 . S
C3023 H3039 0.960 . S
H3024 C3008 0.931 . S
H3025 C3013 0.929 . S
H3026 C3014 0.960 . S
H3027 C3014 0.962 . S
H3028 C3014 0.960 . S
H3029 C3015 0.961 . S
H3030 C3015 0.961 . S
H3031 C3015 0.961 . S
H3032 C3016 0.931 . S
H3033 C3021 0.930 . S
H3034 C3022 0.956 . S
H3035 C3022 0.961 . S
H3036 C3022 0.961 . S
H3037 C3023 0.958 . S
H3038 C3023 0.961 . S
H3039 C3023 0.960 . S
C3040 C3041 1.391 . S
C3040 C3042 1.394 . S
C3040 H3056 0.931 . S
C3041 C3040 1.391 . S
C3041 C3045 1.376 . S
C3042 C3040 1.394 . S
C3042 C3043 1.369 . S
C3042 C3046 1.531 . S
C3043 C3042 1.369 . S
C3043 C3044 1.410 . S
C3043 C3051 1.503 . S
C3044 C3043 1.410 . S
C3044 C3045 1.392 . S
C3044 C3047 1.511 . S
C3045 C3041 1.376 . S
C3045 C3044 1.392 . S
C3045 H3057 0.929 . S
C3046 C3042 1.531 . S
C3046 H3058 0.960 . S
C3046 H3059 0.962 . S
C3046 H3060 0.960 . S
C3047 C3044 1.511 . S
C3047 H3061 0.961 . S
C3047 H3062 0.961 . S
C3047 H3063 0.961 . S
C3048 C3049 1.370 . S
C3048 C3050 1.363 . S
C3048 H3064 0.931 . S
C3049 C3048 1.370 . S
C3049 C3053 1.408 . S
C3050 C3048 1.363 . S
C3050 C3051 1.370 . S
C3050 C3054 1.524 . S
C3051 C3043 1.503 . S
C3051 C3050 1.370 . S
C3051 C3052 1.403 . S
C3052 C3051 1.403 . S
C3052 C3053 1.404 . S
C3052 C3055 1.539 . S
C3053 C3049 1.408 . S
C3053 C3052 1.404 . S
C3053 H3065 0.930 . S
C3054 C3050 1.524 . S
C3054 H3066 0.956 . S
C3054 H3067 0.961 . S
C3054 H3068 0.961 . S
C3055 C3052 1.539 . S
C3055 H3069 0.958 . S
C3055 H3070 0.961 . S
C3055 H3071 0.960 . S
H3056 C3040 0.931 . S
H3057 C3045 0.929 . S
H3058 C3046 0.960 . S
H3059 C3046 0.962 . S
H3060 C3046 0.960 . S
H3061 C3047 0.961 . S
H3062 C3047 0.961 . S
H3063 C3047 0.961 . S
H3064 C3048 0.931 . S
H3065 C3053 0.930 . S
H3066 C3054 0.956 . S
H3067 C3054 0.961 . S
H3068 C3054 0.961 . S
H3069 C3055 0.958 . S
H3070 C3055 0.961 . S
H3071 C3055 0.960 . S
C3072 C3073 1.391 . S
C3072 C3074 1.394 . S
C3072 H3088 0.931 . S
C3073 C3072 1.391 . S
C3073 C3077 1.376 . S
C3074 C3072 1.394 . S
C3074 C3075 1.369 . S
C3074 C3078 1.531 . S
C3075 C3074 1.369 . S
C3075 C3076 1.410 . S
C3075 C3083 1.503 . S
C3076 C3075 1.410 . S
C3076 C3077 1.392 . S
C3076 C3079 1.511 . S
C3077 C3073 1.376 . S
C3077 C3076 1.392 . S
C3077 H3089 0.929 . S
C3078 C3074 1.531 . S
C3078 H3090 0.960 . S
C3078 H3091 0.962 . S
C3078 H3092 0.960 . S
C3079 C3076 1.511 . S
C3079 H3093 0.961 . S
C3079 H3094 0.961 . S
C3079 H3095 0.961 . S
C3080 C3081 1.370 . S
C3080 C3082 1.363 . S
C3080 H3096 0.931 . S
C3081 C3080 1.370 . S
C3081 C3085 1.408 . S
C3082 C3080 1.363 . S
C3082 C3083 1.370 . S
C3082 C3086 1.524 . S
C3083 C3075 1.503 . S
C3083 C3082 1.370 . S
C3083 C3084 1.403 . S
C3084 C3083 1.403 . S
C3084 C3085 1.404 . S
C3084 C3087 1.539 . S
C3085 C3081 1.408 . S
C3085 C3084 1.404 . S
C3085 H3097 0.930 . S
C3086 C3082 1.524 . S
C3086 H3098 0.956 . S
C3086 H3099 0.961 . S
C3086 H3100 0.961 . S
C3087 C3084 1.539 . S
C3087 H3101 0.958 . S
C3087 H3102 0.961 . S
C3087 H3103 0.960 . S
H3088 C3072 0.931 . S
H3089 C3077 0.929 . S
H3090 C3078 0.960 . S
H3091 C3078 0.962 . S
H3092 C3078 0.960 . S
H3093 C3079 0.961 . S
H3094 C3079 0.961 . S
H3095 C3079 0.961 . S
H3096 C3080 0.931 . S
H3097 C3085 0.930 . S
H3098 C3086 0.956 . S
H3099 C3086 0.961 . S
H3100 C3086 0.961 . S
H3101 C3087 0.958 . S
H3102 C3087 0.961 . S
H3103 C3087 0.960 . S
C3104 C3105 1.391 . S
C3104 C3106 1.394 1_556 S
C3104 H3120 0.931 1_556 S
C3105 C3104 1.391 . S
C3105 C3109 1.376 . S
C3106 C3104 1.394 1_554 S
C3106 C3107 1.360 1_554 S
C3106 C3110 1.531 . S
C3107 C3106 1.360 1_556 S
C3107 C3108 1.422 . S
C3107 C3115 1.501 1_556 S
C3108 C3107 1.422 . S
C3108 C3109 1.392 . S
C3108 C3111 1.511 . S
C3109 C3105 1.376 . S
C3109 C3108 1.392 . S
C3109 H3121 0.929 . S
C3110 C3106 1.531 . S
C3110 H3122 0.960 . S
C3110 H3123 0.962 1_455 S
C3110 H3124 0.960 . S
C3111 C3108 1.511 . S
C3111 H3125 0.961 . S
C3111 H3126 0.961 . S
C3111 H3127 0.961 . S
C3112 C3113 1.370 . S
C3112 C3114 1.363 1_554 S
C3112 H3128 0.931 1_554 S
C3113 C3112 1.370 . S
C3113 C3117 1.408 . S
C3114 C3112 1.363 1_556 S
C3114 C3115 1.370 1_556 S
C3114 C3118 1.524 1_455 S
C3115 C3107 1.501 1_554 S
C3115 C3114 1.370 1_554 S
C3115 C3116 1.403 . S
C3116 C3115 1.403 . S
C3116 C3117 1.404 . S
C3116 C3119 1.539 . S
C3117 C3113 1.408 . S
C3117 C3116 1.404 . S
C3117 H3129 0.930 . S
C3118 C3114 1.524 1_655 S
C3118 H3130 0.956 . S
C3118 H3131 0.961 1_655 S
C3118 H3132 0.961 . S
C3119 C3116 1.539 . S
C3119 H3133 0.958 . S
C3119 H3134 0.961 . S
C3119 H3135 0.960 . S
H3120 C3104 0.931 1_554 S
H3121 C3109 0.929 . S
H3122 C3110 0.960 . S
H3123 C3110 0.962 1_655 S
H3124 C3110 0.960 . S
H3125 C3111 0.961 . S
H3126 C3111 0.961 . S
H3127 C3111 0.961 . S
H3128 C3112 0.931 1_556 S
H3129 C3117 0.930 . S
H3130 C3118 0.956 . S
H3131 C3118 0.961 1_455 S
H3132 C3118 0.961 . S
H3133 C3119 0.958 . S
H3134 C3119 0.961 . S
H3135 C3119 0.960 . S
C3136 C3137 1.391 . S
C3136 C3138 1.394 . S
C3136 H3152 0.931 1_655 S
C3137 C3136 1.391 . S
C3137 C3141 1.376 . S
C3138 C3136 1.394 . S
C3138 C3139 1.369 . S
C3138 C3142 1.531 . S
C3139 C3138 1.369 . S
C3139 C3140 1.410 . S
C3139 C3147 1.503 . S
C3140 C3139 1.410 . S
C3140 C3141 1.392 . S
C3140 C3143 1.511 . S
C3141 C3137 1.376 . S
C3141 C3140 1.392 . S
C3141 H3153 0.929 . S
C3142 C3138 1.531 . S
C3142 H3154 0.960 . S
C3142 H3155 0.962 . S
C3142 H3156 0.960 . S
C3143 C3140 1.511 . S
C3143 H3157 0.961 . S
C3143 H3158 0.961 . S
C3143 H3159 0.961 . S
C3144 C3145 1.370 . S
C3144 C3146 1.363 . S
C3144 H3160 0.931 . S
C3145 C3144 1.370 . S
C3145 C3149 1.408 . S
C3146 C3144 1.363 . S
C3146 C3147 1.370 . S
C3146 C3150 1.524 . S
C3147 C3139 1.503 . S
C3147 C3146 1.370 . S
C3147 C3148 1.403 . S
C3148 C3147 1.403 . S
C3148 C3149 1.404 . S
C3148 C3151 1.539 . S
C3149 C3145 1.408 . S
C3149 C3148 1.404 . S
C3149 H3161 0.930 . S
C3150 C3146 1.524 . S
C3150 H3162 0.956 . S
C3150 H3163 0.961 . S
C3150 H3164 0.961 . S
C3151 C3148 1.539 . S
C3151 H3165 0.958 . S
C3151 H3166 0.961 . S
C3151 H3167 0.960 . S
H3152 C3136 0.931 1_455 S
H3153 C3141 0.929 . S
H3154 C3142 0.960 . S
H3155 C3142 0.962 . S
H3156 C3142 0.960 . S
H3157 C3143 0.961 . S
H3158 C3143 0.961 . S
H3159 C3143 0.961 . S
H3160 C3144 0.931 . S
H3161 C3149 0.930 . S
H3162 C3150 0.956 . S
H3163 C3150 0.961 . S
H3164 C3150 0.961 . S
H3165 C3151 0.958 . S
H3166 C3151 0.961 . S
H3167 C3151 0.960 . S
C3168 C3169 1.391 . S
C3168 C3170 1.394 . S
C3168 H3184 0.931 . S
C3169 C3168 1.391 . S
C3169 C3173 1.376 . S
C3170 C3168 1.394 . S
C3170 C3171 1.369 . S
C3170 C3174 1.531 . S
C3171 C3170 1.369 . S
C3171 C3172 1.410 . S
C3171 C3179 1.503 . S
C3172 C3171 1.410 . S
C3172 C3173 1.392 . S
C3172 C3175 1.511 . S
C3173 C3169 1.376 . S
C3173 C3172 1.392 . S
C3173 H3185 0.929 . S
C3174 C3170 1.531 . S
C3174 H3186 0.960 . S
C3174 H3187 0.962 . S
C3174 H3188 0.960 . S
C3175 C3172 1.511 . S
C3175 H3189 0.961 . S
C3175 H3190 0.961 . S
C3175 H3191 0.961 . S
C3176 C3177 1.370 . S
C3176 C3178 1.363 . S
C3176 H3192 0.931 . S
C3177 C3176 1.370 . S
C3177 C3181 1.408 . S
C3178 C3176 1.363 . S
C3178 C3179 1.370 . S
C3178 C3182 1.524 . S
C3179 C3171 1.503 . S
C3179 C3178 1.370 . S
C3179 C3180 1.403 . S
C3180 C3179 1.403 . S
C3180 C3181 1.404 . S
C3180 C3183 1.539 . S
C3181 C3177 1.408 . S
C3181 C3180 1.404 . S
C3181 H3193 0.930 . S
C3182 C3178 1.524 . S
C3182 H3194 0.956 . S
C3182 H3195 0.961 . S
C3182 H3196 0.961 . S
C3183 C3180 1.539 . S
C3183 H3197 0.958 . S
C3183 H3198 0.961 . S
C3183 H3199 0.960 . S
H3184 C3168 0.931 . S
H3185 C3173 0.929 . S
H3186 C3174 0.960 . S
H3187 C3174 0.962 . S
H3188 C3174 0.960 . S
H3189 C3175 0.961 . S
H3190 C3175 0.961 . S
H3191 C3175 0.961 . S
H3192 C3176 0.931 . S
H3193 C3181 0.930 . S
H3194 C3182 0.956 . S
H3195 C3182 0.961 . S
H3196 C3182 0.961 . S
H3197 C3183 0.958 . S
H3198 C3183 0.961 . S
H3199 C3183 0.960 . S
C3200 C3201 1.391 . S
C3200 C3202 1.394 . S
C3200 H3216 0.931 . S
C3201 C3200 1.391 . S
C3201 C3205 1.376 . S
C3202 C3200 1.394 . S
C3202 C3203 1.369 . S
C3202 C3206 1.531 . S
C3203 C3202 1.369 . S
C3203 C3204 1.410 . S
C3203 C3211 1.503 . S
C3204 C3203 1.410 . S
C3204 C3205 1.392 . S
C3204 C3207 1.511 . S
C3205 C3201 1.376 . S
C3205 C3204 1.392 . S
C3205 H3217 0.929 . S
C3206 C3202 1.531 . S
C3206 H3218 0.960 . S
C3206 H3219 0.962 . S
C3206 H3220 0.960 . S
C3207 C3204 1.511 . S
C3207 H3221 0.961 . S
C3207 H3222 0.961 . S
C3207 H3223 0.961 . S
C3208 C3209 1.370 . S
C3208 C3210 1.363 . S
C3208 H3224 0.931 . S
C3209 C3208 1.370 . S
C3209 C3213 1.408 . S
C3210 C3208 1.363 . S
C3210 C3211 1.370 . S
C3210 C3214 1.524 . S
C3211 C3203 1.503 . S
C3211 C3210 1.370 . S
C3211 C3212 1.403 . S
C3212 C3211 1.403 . S
C3212 C3213 1.404 . S
C3212 C3215 1.539 . S
C3213 C3209 1.408 . S
C3213 C3212 1.404 . S
C3213 H3225 0.930 . S
C3214 C3210 1.524 . S
C3214 H3226 0.956 . S
C3214 H3227 0.961 . S
C3214 H3228 0.961 . S
C3215 C3212 1.539 . S
C3215 H3229 0.958 . S
C3215 H3230 0.961 . S
C3215 H3231 0.960 . S
H3216 C3200 0.931 . S
H3217 C3205 0.929 . S
H3218 C3206 0.960 . S
H3219 C3206 0.962 . S
H3220 C3206 0.960 . S
H3221 C3207 0.961 . S
H3222 C3207 0.961 . S
H3223 C3207 0.961 . S
H3224 C3208 0.931 . S
H3225 C3213 0.930 . S
H3226 C3214 0.956 . S
H3227 C3214 0.961 . S
H3228 C3214 0.961 . S
H3229 C3215 0.958 . S
H3230 C3215 0.961 . S
H3231 C3215 0.960 . S
C3232 C3233 1.391 . S
C3232 C3234 1.394 . S
C3232 H3248 0.931 . S
C3233 C3232 1.391 . S
C3233 C3237 1.376 . S
C3234 C3232 1.394 . S
C3234 C3235 1.369 . S
C3234 C3238 1.531 . S
C3235 C3234 1.369 . S
C3235 C3236 1.410 . S
C3235 C3243 1.503 . S
C3236 C3235 1.410 . S
C3236 C3237 1.392 . S
C3236 C3239 1.511 . S
C3237 C3233 1.376 . S
C3237 C3236 1.392 . S
C3237 H3249 0.929 . S
C3238 C3234 1.531 . S
C3238 H3250 0.960 . S
C3238 H3251 0.962 . S
C3238 H3252 0.963 . S
C3239 C3236 1.511 . S
C3239 H3253 0.961 . S
C3239 H3254 0.961 . S
C3239 H3255 0.961 . S
C3240 C3241 1.370 . S
C3240 C3242 1.363 . S
C3240 H3256 0.931 . S
C3241 C3240 1.370 . S
C3241 C3245 1.408 . S
C3242 C3240 1.363 . S
C3242 C3243 1.370 . S
C3242 C3246 1.524 . S
C3243 C3235 1.503 . S
C3243 C3242 1.370 . S
C3243 C3244 1.403 . S
C3244 C3243 1.403 . S
C3244 C3245 1.404 . S
C3244 C3247 1.539 . S
C3245 C3241 1.408 . S
C3245 C3244 1.404 . S
C3245 H3257 0.930 . S
C3246 C3242 1.524 . S
C3246 H3258 0.956 . S
C3246 H3259 0.961 . S
C3246 H3260 0.961 . S
C3247 C3244 1.539 . S
C3247 H3261 0.958 . S
C3247 H3262 0.961 . S
C3247 H3263 0.960 . S
H3248 C3232 0.931 . S
H3249 C3237 0.929 . S
H3250 C3238 0.960 . S
H3251 C3238 0.962 . S
H3252 C3238 0.963 . S
H3253 C3239 0.961 . S
H3254 C3239 0.961 . S
H3255 C3239 0.961 . S
H3256 C3240 0.931 . S
H3257 C3245 0.930 . S
H3258 C3246 0.956 . S
H3259 C3246 0.961 . S
H3260 C3246 0.961 . S
H3261 C3247 0.958 . S
H3262 C3247 0.961 . S
H3263 C3247 0.960 . S
C3264 C3265 1.391 . S
C3264 C3266 1.394 . S
C3264 H3280 0.931 . S
C3265 C3264 1.391 . S
C3265 C3269 1.376 . S
C3266 C3264 1.394 . S
C3266 C3267 1.369 . S
C3266 C3270 1.531 . S
C3267 C3266 1.369 . S
C3267 C3268 1.410 . S
C3267 C3275 1.503 . S
C3268 C3267 1.410 . S
C3268 C3269 1.392 . S
C3268 C3271 1.511 . S
C3269 C3265 1.376 . S
C3269 C3268 1.392 . S
C3269 H3281 0.929 . S
C3270 C3266 1.531 . S
C3270 H3282 0.960 . S
C3270 H3283 0.962 . S
C3270 H3284 0.960 . S
C3271 C3268 1.511 . S
C3271 H3285 0.961 . S
C3271 H3286 0.961 . S
C3271 H3287 0.961 . S
C3272 C3273 1.370 . S
C3272 C3274 1.363 . S
C3272 H3288 0.931 . S
C3273 C3272 1.370 . S
C3273 C3277 1.408 . S
C3274 C3272 1.363 . S
C3274 C3275 1.370 . S
C3274 C3278 1.524 . S
C3275 C3267 1.503 . S
C3275 C3274 1.370 . S
C3275 C3276 1.403 . S
C3276 C3275 1.403 . S
C3276 C3277 1.404 . S
C3276 C3279 1.539 . S
C3277 C3273 1.408 . S
C3277 C3276 1.404 . S
C3277 H3289 0.930 . S
C3278 C3274 1.524 . S
C3278 H3290 0.956 . S
C3278 H3291 0.961 . S
C3278 H3292 0.961 . S
C3279 C3276 1.539 . S
C3279 H3293 0.958 . S
C3279 H3294 0.961 . S
C3279 H3295 0.960 . S
H3280 C3264 0.931 . S
H3281 C3269 0.929 . S
H3282 C3270 0.960 . S
H3283 C3270 0.962 . S
H3284 C3270 0.960 . S
H3285 C3271 0.961 . S
H3286 C3271 0.961 . S
H3287 C3271 0.961 . S
H3288 C3272 0.931 . S
H3289 C3277 0.930 . S
H3290 C3278 0.956 . S
H3291 C3278 0.961 . S
H3292 C3278 0.961 . S
H3293 C3279 0.958 . S
H3294 C3279 0.961 . S
H3295 C3279 0.960 . S
C3296 C3297 1.391 . S
C3296 C3298 1.394 . S
C3296 H3312 0.931 . S
C3297 C3296 1.391 . S
C3297 C3301 1.376 . S
C3298 C3296 1.394 . S
C3298 C3299 1.369 . S
C3298 C3302 1.531 . S
C3299 C3298 1.369 . S
C3299 C3300 1.410 . S
C3299 C3307 1.503 . S
C3300 C3299 1.410 . S
C3300 C3301 1.392 . S
C3300 C3303 1.511 . S
C3301 C3297 1.376 . S
C3301 C3300 1.392 . S
C3301 H3313 0.929 . S
C3302 C3298 1.531 . S
C3302 H3314 0.960 . S
C3302 H3315 0.962 . S
C3302 H3316 0.960 . S
C3303 C3300 1.511 . S
C3303 H3317 0.961 . S
C3303 H3318 0.961 . S
C3303 H3319 0.961 . S
C3304 C3305 1.370 . S
C3304 C3306 1.363 . S
C3304 H3320 0.931 . S
C3305 C3304 1.370 . S
C3305 C3309 1.408 . S
C3306 C3304 1.363 . S
C3306 C3307 1.370 . S
C3306 C3310 1.524 . S
C3307 C3299 1.503 . S
C3307 C3306 1.370 . S
C3307 C3308 1.403 . S
C3308 C3307 1.403 . S
C3308 C3309 1.404 . S
C3308 C3311 1.539 . S
C3309 C3305 1.408 . S
C3309 C3308 1.404 . S
C3309 H3321 0.930 . S
C3310 C3306 1.524 . S
C3310 H3322 0.956 . S
C3310 H3323 0.961 . S
C3310 H3324 0.961 . S
C3311 C3308 1.539 . S
C3311 H3325 0.958 . S
C3311 H3326 0.961 . S
C3311 H3327 0.960 . S
H3312 C3296 0.931 . S
H3313 C3301 0.929 . S
H3314 C3302 0.960 . S
H3315 C3302 0.962 . S
H3316 C3302 0.960 . S
H3317 C3303 0.961 . S
H3318 C3303 0.961 . S
H3319 C3303 0.961 . S
H3320 C3304 0.931 . S
H3321 C3309 0.930 . S
H3322 C3310 0.956 . S
H3323 C3310 0.961 . S
H3324 C3310 0.961 . S
H3325 C3311 0.958 . S
H3326 C3311 0.961 . S
H3327 C3311 0.960 . S
C3328 C3329 1.391 . S
C3328 C3330 1.394 1_554 S
C3328 H3344 0.931 . S
C3329 C3328 1.391 . S
C3329 C3333 1.376 . S
C3330 C3328 1.394 1_556 S
C3330 C3331 1.369 . S
C3330 C3334 1.531 . S
C3331 C3330 1.369 . S
C3331 C3332 1.410 1_556 S
C3331 C3339 1.503 . S
C3332 C3331 1.410 1_554 S
C3332 C3333 1.392 . S
C3332 C3335 1.511 . S
C3333 C3329 1.376 . S
C3333 C3332 1.392 . S
C3333 H3345 0.929 . S
C3334 C3330 1.531 . S
C3334 H3346 0.960 . S
C3334 H3347 0.962 . S
C3334 H3348 0.960 . S
C3335 C3332 1.511 . S
C3335 H3349 0.961 . S
C3335 H3350 0.961 . S
C3335 H3351 0.961 . S
C3336 C3337 1.370 . S
C3336 C3338 1.363 . S
C3336 H3352 0.931 . S
C3337 C3336 1.370 . S
C3337 C3341 1.408 . S
C3338 C3336 1.363 . S
C3338 C3339 1.370 . S
C3338 C3342 1.524 . S
C3339 C3331 1.503 . S
C3339 C3338 1.370 . S
C3339 C3340 1.403 . S
C3340 C3339 1.403 . S
C3340 C3341 1.404 . S
C3340 C3343 1.539 . S
C3341 C3337 1.408 . S
C3341 C3340 1.404 . S
C3341 H3353 0.930 . S
C3342 C3338 1.524 . S
C3342 H3354 0.956 . S
C3342 H3355 0.961 . S
C3342 H3356 0.961 . S
C3343 C3340 1.539 . S
C3343 H3357 0.958 . S
C3343 H3358 0.961 . S
C3343 H3359 0.960 . S
H3344 C3328 0.931 . S
H3345 C3333 0.929 . S
H3346 C3334 0.960 . S
H3347 C3334 0.962 . S
H3348 C3334 0.960 . S
H3349 C3335 0.961 . S
H3350 C3335 0.961 . S
H3351 C3335 0.961 . S
H3352 C3336 0.931 . S
H3353 C3341 0.930 . S
H3354 C3342 0.956 . S
H3355 C3342 0.961 . S
H3356 C3342 0.961 . S
H3357 C3343 0.958 . S
H3358 C3343 0.961 . S
H3359 C3343 0.960 . S
C3360 C3361 1.391 . S
C3360 C3362 1.394 . S
C3360 H3376 0.931 . S
C3361 C3360 1.391 . S
C3361 C3365 1.376 . S
C3362 C3360 1.394 . S
C3362 C3363 1.369 . S
C3362 C3366 1.531 . S
C3363 C3362 1.369 . S
C3363 C3364 1.410 . S
C3363 C3371 1.503 . S
C3364 C3363 1.410 . S
C3364 C3365 1.392 . S
C3364 C3367 1.511 . S
C3365 C3361 1.376 . S
C3365 C3364 1.392 . S
C3365 H3377 0.929 . S
C3366 C3362 1.531 . S
C3366 H3378 0.960 . S
C3366 H3379 0.962 . S
C3366 H3380 0.960 . S
C3367 C3364 1.511 . S
C3367 H3381 0.961 . S
C3367 H3382 0.961 . S
C3367 H3383 0.961 . S
C3368 C3369 1.370 . S
C3368 C3370 1.363 . S
C3368 H3384 0.931 . S
C3369 C3368 1.370 . S
C3369 C3373 1.408 . S
C3370 C3368 1.363 . S
C3370 C3371 1.370 . S
C3370 C3374 1.524 . S
C3371 C3363 1.503 . S
C3371 C3370 1.370 . S
C3371 C3372 1.403 . S
C3372 C3371 1.403 . S
C3372 C3373 1.404 . S
C3372 C3375 1.539 . S
C3373 C3369 1.408 . S
C3373 C3372 1.404 . S
C3373 H3385 0.930 . S
C3374 C3370 1.524 . S
C3374 H3386 0.956 . S
C3374 H3387 0.961 . S
C3374 H3388 0.961 . S
C3375 C3372 1.539 . S
C3375 H3389 0.958 . S
C3375 H3390 0.961 . S
C3375 H3391 0.960 . S
H3376 C3360 0.931 . S
H3377 C3365 0.929 . S
H3378 C3366 0.960 . S
H3379 C3366 0.962 . S
H3380 C3366 0.960 . S
H3381 C3367 0.961 . S
H3382 C3367 0.961 . S
H3383 C3367 0.961 . S
H3384 C3368 0.931 . S
H3385 C3373 0.930 . S
H3386 C3374 0.956 . S
H3387 C3374 0.961 . S
H3388 C3374 0.961 . S
H3389 C3375 0.958 . S
H3390 C3375 0.961 . S
H3391 C3375 0.960 . S
C3392 C3393 1.391 . S
C3392 C3394 1.394 . S
C3392 H3408 0.931 . S
C3393 C3392 1.391 . S
C3393 C3397 1.376 . S
C3394 C3392 1.394 . S
C3394 C3395 1.369 . S
C3394 C3398 1.531 . S
C3395 C3394 1.369 . S
C3395 C3396 1.410 . S
C3395 C3403 1.503 . S
C3396 C3395 1.410 . S
C3396 C3397 1.392 . S
C3396 C3399 1.511 . S
C3397 C3393 1.376 . S
C3397 C3396 1.392 . S
C3397 H3409 0.929 . S
C3398 C3394 1.531 . S
C3398 H3410 0.960 . S
C3398 H3411 0.962 . S
C3398 H3412 0.960 . S
C3399 C3396 1.511 . S
C3399 H3413 0.961 . S
C3399 H3414 0.961 . S
C3399 H3415 0.961 . S
C3400 C3401 1.370 . S
C3400 C3402 1.363 . S
C3400 H3416 0.931 . S
C3401 C3400 1.370 . S
C3401 C3405 1.408 . S
C3402 C3400 1.363 . S
C3402 C3403 1.370 . S
C3402 C3406 1.524 . S
C3403 C3395 1.503 . S
C3403 C3402 1.370 . S
C3403 C3404 1.403 . S
C3404 C3403 1.403 . S
C3404 C3405 1.404 . S
C3404 C3407 1.539 . S
C3405 C3401 1.408 . S
C3405 C3404 1.404 . S
C3405 H3417 0.930 . S
C3406 C3402 1.524 . S
C3406 H3418 0.956 . S
C3406 H3419 0.961 . S
C3406 H3420 0.961 . S
C3407 C3404 1.539 . S
C3407 H3421 0.958 . S
C3407 H3422 0.961 . S
C3407 H3423 0.960 . S
H3408 C3392 0.931 . S
H3409 C3397 0.929 . S
H3410 C3398 0.960 . S
H3411 C3398 0.962 . S
H3412 C3398 0.960 . S
H3413 C3399 0.961 . S
H3414 C3399 0.961 . S
H3415 C3399 0.961 . S
H3416 C3400 0.931 . S
H3417 C3405 0.930 . S
H3418 C3406 0.956 . S
H3419 C3406 0.961 . S
H3420 C3406 0.961 . S
H3421 C3407 0.958 . S
H3422 C3407 0.961 . S
H3423 C3407 0.960 . S
C3424 C3425 1.391 . S
C3424 C3426 1.394 . S
C3424 H3440 0.931 . S
C3425 C3424 1.391 . S
C3425 C3429 1.376 . S
C3426 C3424 1.394 . S
C3426 C3427 1.369 . S
C3426 C3430 1.531 . S
C3427 C3426 1.369 . S
C3427 C3428 1.410 . S
C3427 C3435 1.503 . S
C3428 C3427 1.410 . S
C3428 C3429 1.392 . S
C3428 C3431 1.511 . S
C3429 C3425 1.376 . S
C3429 C3428 1.392 . S
C3429 H3441 0.929 . S
C3430 C3426 1.531 . S
C3430 H3442 0.960 . S
C3430 H3443 0.962 . S
C3430 H3444 0.960 . S
C3431 C3428 1.511 . S
C3431 H3445 0.961 . S
C3431 H3446 0.961 . S
C3431 H3447 0.961 . S
C3432 C3433 1.370 . S
C3432 C3434 1.363 . S
C3432 H3448 0.931 . S
C3433 C3432 1.370 . S
C3433 C3437 1.408 . S
C3434 C3432 1.363 . S
C3434 C3435 1.370 . S
C3434 C3438 1.524 . S
C3435 C3427 1.503 . S
C3435 C3434 1.370 . S
C3435 C3436 1.403 . S
C3436 C3435 1.403 . S
C3436 C3437 1.404 . S
C3436 C3439 1.539 . S
C3437 C3433 1.408 . S
C3437 C3436 1.404 . S
C3437 H3449 0.930 . S
C3438 C3434 1.524 . S
C3438 H3450 0.956 . S
C3438 H3451 0.961 . S
C3438 H3452 0.961 . S
C3439 C3436 1.539 . S
C3439 H3453 0.958 . S
C3439 H3454 0.961 . S
C3439 H3455 0.960 . S
H3440 C3424 0.931 . S
H3441 C3429 0.929 . S
H3442 C3430 0.960 . S
H3443 C3430 0.962 . S
H3444 C3430 0.960 . S
H3445 C3431 0.961 . S
H3446 C3431 0.961 . S
H3447 C3431 0.961 . S
H3448 C3432 0.931 . S
H3449 C3437 0.930 . S
H3450 C3438 0.956 . S
H3451 C3438 0.961 . S
H3452 C3438 0.961 . S
H3453 C3439 0.958 . S
H3454 C3439 0.961 . S
H3455 C3439 0.960 . S
C3456 C3457 1.391 . S
C3456 C3458 1.394 . S
C3456 H3472 0.931 . S
C3457 C3456 1.391 . S
C3457 C3461 1.376 . S
C3458 C3456 1.394 . S
C3458 C3459 1.369 . S
C3458 C3462 1.531 . S
C3459 C3458 1.369 . S
C3459 C3460 1.410 . S
C3459 C3467 1.503 . S
C3460 C3459 1.410 . S
C3460 C3461 1.392 . S
C3460 C3463 1.511 . S
C3461 C3457 1.376 . S
C3461 C3460 1.392 . S
C3461 H3473 0.929 . S
C3462 C3458 1.531 . S
C3462 H3474 0.960 . S
C3462 H3475 0.962 . S
C3462 H3476 0.960 . S
C3463 C3460 1.511 . S
C3463 H3477 0.961 . S
C3463 H3478 0.961 . S
C3463 H3479 0.961 . S
C3464 C3465 1.370 . S
C3464 C3466 1.363 . S
C3464 H3480 0.931 . S
C3465 C3464 1.370 . S
C3465 C3469 1.408 . S
C3466 C3464 1.363 . S
C3466 C3467 1.370 . S
C3466 C3470 1.524 . S
C3467 C3459 1.503 . S
C3467 C3466 1.370 . S
C3467 C3468 1.403 . S
C3468 C3467 1.403 . S
C3468 C3469 1.404 . S
C3468 C3471 1.539 . S
C3469 C3465 1.408 . S
C3469 C3468 1.404 . S
C3469 H3481 0.930 . S
C3470 C3466 1.524 . S
C3470 H3482 0.956 . S
C3470 H3483 0.961 . S
C3470 H3484 0.961 . S
C3471 C3468 1.539 . S
C3471 H3485 0.958 . S
C3471 H3486 0.961 . S
C3471 H3487 0.960 . S
H3472 C3456 0.931 . S
H3473 C3461 0.929 . S
H3474 C3462 0.960 . S
H3475 C3462 0.962 . S
H3476 C3462 0.960 . S
H3477 C3463 0.961 . S
H3478 C3463 0.961 . S
H3479 C3463 0.961 . S
H3480 C3464 0.931 . S
H3481 C3469 0.930 . S
H3482 C3470 0.956 . S
H3483 C3470 0.961 . S
H3484 C3470 0.961 . S
H3485 C3471 0.958 . S
H3486 C3471 0.961 . S
H3487 C3471 0.960 . S
C3488 C3489 1.391 . S
C3488 C3490 1.394 . S
C3488 H3504 0.931 . S
C3489 C3488 1.391 . S
C3489 C3493 1.376 . S
C3490 C3488 1.394 . S
C3490 C3491 1.369 . S
C3490 C3494 1.531 . S
C3491 C3490 1.369 . S
C3491 C3492 1.410 . S
C3491 C3499 1.503 . S
C3492 C3491 1.410 . S
C3492 C3493 1.392 . S
C3492 C3495 1.511 . S
C3493 C3489 1.376 . S
C3493 C3492 1.392 . S
C3493 H3505 0.929 . S
C3494 C3490 1.531 . S
C3494 H3506 0.960 . S
C3494 H3507 0.962 . S
C3494 H3508 0.960 . S
C3495 C3492 1.511 . S
C3495 H3509 0.961 . S
C3495 H3510 0.961 . S
C3495 H3511 0.961 . S
C3496 C3497 1.370 . S
C3496 C3498 1.363 . S
C3496 H3512 0.931 . S
C3497 C3496 1.370 . S
C3497 C3501 1.408 . S
C3498 C3496 1.363 . S
C3498 C3499 1.370 . S
C3498 C3502 1.524 . S
C3499 C3491 1.503 . S
C3499 C3498 1.370 . S
C3499 C3500 1.403 . S
C3500 C3499 1.403 . S
C3500 C3501 1.404 . S
C3500 C3503 1.539 . S
C3501 C3497 1.408 . S
C3501 C3500 1.404 . S
C3501 H3513 0.930 . S
C3502 C3498 1.524 . S
C3502 H3514 0.956 . S
C3502 H3515 0.961 . S
C3502 H3516 0.961 . S
C3503 C3500 1.539 . S
C3503 H3517 0.958 . S
C3503 H3518 0.961 . S
C3503 H3519 0.960 . S
H3504 C3488 0.931 . S
H3505 C3493 0.929 . S
H3506 C3494 0.960 . S
H3507 C3494 0.962 . S
H3508 C3494 0.960 . S
H3509 C3495 0.961 . S
H3510 C3495 0.961 . S
H3511 C3495 0.961 . S
H3512 C3496 0.931 . S
H3513 C3501 0.930 . S
H3514 C3502 0.956 . S
H3515 C3502 0.961 . S
H3516 C3502 0.961 . S
H3517 C3503 0.958 . S
H3518 C3503 0.961 . S
H3519 C3503 0.960 . S
C3520 C3521 1.391 . S
C3520 C3522 1.394 . S
C3520 H3536 0.931 . S
C3521 C3520 1.391 . S
C3521 C3525 1.376 . S
C3522 C3520 1.394 . S
C3522 C3523 1.369 . S
C3522 C3526 1.531 . S
C3523 C3522 1.369 . S
C3523 C3524 1.410 . S
C3523 C3531 1.503 . S
C3524 C3523 1.410 . S
C3524 C3525 1.392 . S
C3524 C3527 1.511 . S
C3525 C3521 1.376 . S
C3525 C3524 1.392 . S
C3525 H3537 0.929 . S
C3526 C3522 1.531 . S
C3526 H3538 0.960 . S
C3526 H3539 0.962 . S
C3526 H3540 0.960 . S
C3527 C3524 1.511 . S
C3527 H3541 0.961 . S
C3527 H3542 0.961 . S
C3527 H3543 0.961 . S
C3528 C3529 1.370 . S
C3528 C3530 1.363 . S
C3528 H3544 0.931 . S
C3529 C3528 1.370 . S
C3529 C3533 1.408 . S
C3530 C3528 1.363 . S
C3530 C3531 1.370 . S
C3530 C3534 1.524 . S
C3531 C3523 1.503 . S
C3531 C3530 1.370 . S
C3531 C3532 1.403 . S
C3532 C3531 1.403 . S
C3532 C3533 1.404 . S
C3532 C3535 1.539 . S
C3533 C3529 1.408 . S
C3533 C3532 1.404 . S
C3533 H3545 0.930 . S
C3534 C3530 1.524 . S
C3534 H3546 0.956 . S
C3534 H3547 0.961 . S
C3534 H3548 0.961 . S
C3535 C3532 1.539 . S
C3535 H3549 0.958 . S
C3535 H3550 0.961 . S
C3535 H3551 0.960 . S
H3536 C3520 0.931 . S
H3537 C3525 0.929 . S
H3538 C3526 0.960 . S
H3539 C3526 0.962 . S
H3540 C3526 0.960 . S
H3541 C3527 0.961 . S
H3542 C3527 0.961 . S
H3543 C3527 0.961 . S
H3544 C3528 0.931 . S
H3545 C3533 0.930 . S
H3546 C3534 0.956 . S
H3547 C3534 0.961 . S
H3548 C3534 0.961 . S
H3549 C3535 0.958 . S
H3550 C3535 0.961 . S
H3551 C3535 0.960 . S
C3552 C3553 1.391 . S
C3552 C3554 1.394 . S
C3552 H3568 0.931 . S
C3553 C3552 1.391 . S
C3553 C3557 1.376 . S
C3554 C3552 1.394 . S
C3554 C3555 1.369 . S
C3554 C3558 1.531 . S
C3555 C3554 1.369 . S
C3555 C3556 1.410 . S
C3555 C3563 1.503 . S
C3556 C3555 1.410 . S
C3556 C3557 1.392 . S
C3556 C3559 1.511 . S
C3557 C3553 1.376 . S
C3557 C3556 1.392 . S
C3557 H3569 0.929 . S
C3558 C3554 1.531 . S
C3558 H3570 0.960 . S
C3558 H3571 0.962 . S
C3558 H3572 0.960 . S
C3559 C3556 1.511 . S
C3559 H3573 0.961 . S
C3559 H3574 0.961 . S
C3559 H3575 0.961 . S
C3560 C3561 1.370 . S
C3560 C3562 1.363 . S
C3560 H3576 0.931 . S
C3561 C3560 1.370 . S
C3561 C3565 1.408 . S
C3562 C3560 1.363 . S
C3562 C3563 1.370 . S
C3562 C3566 1.524 . S
C3563 C3555 1.503 . S
C3563 C3562 1.370 . S
C3563 C3564 1.403 . S
C3564 C3563 1.403 . S
C3564 C3565 1.404 . S
C3564 C3567 1.539 . S
C3565 C3561 1.408 . S
C3565 C3564 1.404 . S
C3565 H3577 0.930 . S
C3566 C3562 1.524 . S
C3566 H3578 0.956 . S
C3566 H3579 0.961 . S
C3566 H3580 0.961 . S
C3567 C3564 1.539 . S
C3567 H3581 0.958 . S
C3567 H3582 0.961 . S
C3567 H3583 0.960 . S
H3568 C3552 0.931 . S
H3569 C3557 0.929 . S
H3570 C3558 0.960 . S
H3571 C3558 0.962 . S
H3572 C3558 0.960 . S
H3573 C3559 0.961 . S
H3574 C3559 0.961 . S
H3575 C3559 0.961 . S
H3576 C3560 0.931 . S
H3577 C3565 0.930 . S
H3578 C3566 0.956 . S
H3579 C3566 0.961 . S
H3580 C3566 0.961 . S
H3581 C3567 0.958 . S
H3582 C3567 0.961 . S
H3583 C3567 0.960 . S
C3584 C3585 1.391 . S
C3584 C3586 1.394 . S
C3584 H3600 0.931 . S
C3585 C3584 1.391 . S
C3585 C3589 1.376 . S
C3586 C3584 1.394 . S
C3586 C3587 1.369 . S
C3586 C3590 1.531 . S
C3587 C3586 1.369 . S
C3587 C3588 1.410 . S
C3587 C3595 1.503 . S
C3588 C3587 1.410 . S
C3588 C3589 1.392 . S
C3588 C3591 1.511 . S
C3589 C3585 1.376 . S
C3589 C3588 1.392 . S
C3589 H3601 0.929 . S
C3590 C3586 1.531 . S
C3590 H3602 0.960 . S
C3590 H3603 0.962 . S
C3590 H3604 0.960 . S
C3591 C3588 1.511 . S
C3591 H3605 0.961 . S
C3591 H3606 0.961 . S
C3591 H3607 0.961 . S
C3592 C3593 1.370 . S
C3592 C3594 1.363 . S
C3592 H3608 0.931 . S
C3593 C3592 1.370 . S
C3593 C3597 1.408 . S
C3594 C3592 1.363 . S
C3594 C3595 1.370 . S
C3594 C3598 1.524 . S
C3595 C3587 1.503 . S
C3595 C3594 1.370 . S
C3595 C3596 1.403 . S
C3596 C3595 1.403 . S
C3596 C3597 1.404 . S
C3596 C3599 1.539 . S
C3597 C3593 1.408 . S
C3597 C3596 1.404 . S
C3597 H3609 0.930 . S
C3598 C3594 1.524 . S
C3598 H3610 0.956 . S
C3598 H3611 0.961 . S
C3598 H3612 0.961 . S
C3599 C3596 1.539 . S
C3599 H3613 0.958 . S
C3599 H3614 0.961 . S
C3599 H3615 0.960 . S
H3600 C3584 0.931 . S
H3601 C3589 0.929 . S
H3602 C3590 0.960 . S
H3603 C3590 0.962 . S
H3604 C3590 0.960 . S
H3605 C3591 0.961 . S
H3606 C3591 0.961 . S
H3607 C3591 0.961 . S
H3608 C3592 0.931 . S
H3609 C3597 0.930 . S
H3610 C3598 0.956 . S
H3611 C3598 0.961 . S
H3612 C3598 0.961 . S
H3613 C3599 0.958 . S
H3614 C3599 0.961 . S
H3615 C3599 0.960 . S
C3616 C3617 1.391 . S
C3616 C3618 1.394 . S
C3616 H3632 0.931 . S
C3617 C3616 1.391 . S
C3617 C3621 1.376 . S
C3618 C3616 1.394 . S
C3618 C3619 1.369 . S
C3618 C3622 1.531 . S
C3619 C3618 1.369 . S
C3619 C3620 1.410 . S
C3619 C3627 1.503 . S
C3620 C3619 1.410 . S
C3620 C3621 1.392 . S
C3620 C3623 1.511 . S
C3621 C3617 1.376 . S
C3621 C3620 1.392 . S
C3621 H3633 0.929 1_565 S
C3622 C3618 1.531 . S
C3622 H3634 0.960 . S
C3622 H3635 0.962 . S
C3622 H3636 0.960 . S
C3623 C3620 1.511 . S
C3623 H3637 0.961 . S
C3623 H3638 0.961 . S
C3623 H3639 0.961 . S
C3624 C3625 1.370 . S
C3624 C3626 1.363 . S
C3624 H3640 0.931 . S
C3625 C3624 1.370 . S
C3625 C3629 1.408 . S
C3626 C3624 1.363 . S
C3626 C3627 1.370 . S
C3626 C3630 1.524 . S
C3627 C3619 1.503 . S
C3627 C3626 1.370 . S
C3627 C3628 1.403 . S
C3628 C3627 1.403 . S
C3628 C3629 1.404 . S
C3628 C3631 1.539 . S
C3629 C3625 1.408 . S
C3629 C3628 1.404 . S
C3629 H3641 0.930 . S
C3630 C3626 1.524 . S
C3630 H3642 0.956 . S
C3630 H3643 0.961 . S
C3630 H3644 0.961 . S
C3631 C3628 1.539 . S
C3631 H3645 0.958 . S
C3631 H3646 0.961 . S
C3631 H3647 0.960 . S
H3632 C3616 0.931 . S
H3633 C3621 0.929 1_545 S
H3634 C3622 0.960 . S
H3635 C3622 0.962 . S
H3636 C3622 0.960 . S
H3637 C3623 0.961 . S
H3638 C3623 0.961 . S
H3639 C3623 0.961 . S
H3640 C3624 0.931 . S
H3641 C3629 0.930 . S
H3642 C3630 0.956 . S
H3643 C3630 0.961 . S
H3644 C3630 0.961 . S
H3645 C3631 0.958 . S
H3646 C3631 0.961 . S
H3647 C3631 0.960 . S
C3648 C3649 1.391 . S
C3648 C3650 1.394 . S
C3648 H3664 0.931 . S
C3649 C3648 1.391 . S
C3649 C3653 1.376 1_554 S
C3650 C3648 1.394 . S
C3650 C3651 1.369 . S
C3650 C3654 1.531 . S
C3651 C3650 1.369 . S
C3651 C3652 1.410 1_554 S
C3651 C3659 1.503 . S
C3652 C3651 1.410 1_556 S
C3652 C3653 1.392 . S
C3652 C3655 1.511 . S
C3653 C3649 1.376 1_556 S
C3653 C3652 1.392 . S
C3653 H3665 0.929 . S
C3654 C3650 1.531 . S
C3654 H3666 0.960 . S
C3654 H3667 0.962 . S
C3654 H3668 0.960 . S
C3655 C3652 1.511 . S
C3655 H3669 0.961 . S
C3655 H3670 0.961 . S
C3655 H3671 0.961 . S
C3656 C3657 1.370 . S
C3656 C3658 1.363 . S
C3656 H3672 0.931 . S
C3657 C3656 1.370 . S
C3657 C3661 1.408 . S
C3658 C3656 1.363 . S
C3658 C3659 1.370 . S
C3658 C3662 1.524 . S
C3659 C3651 1.503 . S
C3659 C3658 1.370 . S
C3659 C3660 1.403 . S
C3660 C3659 1.403 . S
C3660 C3661 1.404 . S
C3660 C3663 1.539 . S
C3661 C3657 1.408 . S
C3661 C3660 1.404 . S
C3661 H3673 0.930 . S
C3662 C3658 1.524 . S
C3662 H3674 0.956 . S
C3662 H3675 0.961 1_554 S
C3662 H3676 0.961 . S
C3663 C3660 1.539 . S
C3663 H3677 0.958 . S
C3663 H3678 0.961 . S
C3663 H3679 0.960 . S
H3664 C3648 0.931 . S
H3665 C3653 0.929 . S
H3666 C3654 0.960 . S
H3667 C3654 0.962 . S
H3668 C3654 0.960 . S
H3669 C3655 0.961 . S
H3670 C3655 0.961 . S
H3671 C3655 0.961 . S
H3672 C3656 0.931 . S
H3673 C3661 0.930 . S
H3674 C3662 0.956 . S
H3675 C3662 0.961 1_556 S
H3676 C3662 0.961 . S
H3677 C3663 0.958 . S
H3678 C3663 0.961 . S
H3679 C3663 0.960 . S
C3680 C3681 1.391 . S
C3680 C3682 1.394 . S
C3680 H3696 0.931 . S
C3681 C3680 1.391 . S
C3681 C3685 1.376 . S
C3682 C3680 1.394 . S
C3682 C3683 1.369 . S
C3682 C3686 1.531 . S
C3683 C3682 1.369 . S
C3683 C3684 1.410 . S
C3683 C3691 1.503 . S
C3684 C3683 1.410 . S
C3684 C3685 1.392 . S
C3684 C3687 1.511 . S
C3685 C3681 1.376 . S
C3685 C3684 1.392 . S
C3685 H3697 0.929 . S
C3686 C3682 1.531 . S
C3686 H3698 0.960 . S
C3686 H3699 0.962 . S
C3686 H3700 0.960 . S
C3687 C3684 1.511 . S
C3687 H3701 0.961 . S
C3687 H3702 0.961 . S
C3687 H3703 0.961 . S
C3688 C3689 1.370 . S
C3688 C3690 1.363 . S
C3688 H3704 0.931 . S
C3689 C3688 1.370 . S
C3689 C3693 1.408 . S
C3690 C3688 1.363 . S
C3690 C3691 1.370 . S
C3690 C3694 1.524 . S
C3691 C3683 1.503 . S
C3691 C3690 1.370 . S
C3691 C3692 1.403 . S
C3692 C3691 1.403 . S
C3692 C3693 1.404 . S
C3692 C3695 1.539 . S
C3693 C3689 1.408 . S
C3693 C3692 1.404 . S
C3693 H3705 0.930 . S
C3694 C3690 1.524 . S
C3694 H3706 0.956 . S
C3694 H3707 0.961 . S
C3694 H3708 0.961 . S
C3695 C3692 1.539 . S
C3695 H3709 0.958 . S
C3695 H3710 0.961 . S
C3695 H3711 0.960 . S
H3696 C3680 0.931 . S
H3697 C3685 0.929 . S
H3698 C3686 0.960 . S
H3699 C3686 0.962 . S
H3700 C3686 0.960 . S
H3701 C3687 0.961 . S
H3702 C3687 0.961 . S
H3703 C3687 0.961 . S
H3704 C3688 0.931 . S
H3705 C3693 0.930 . S
H3706 C3694 0.956 . S
H3707 C3694 0.961 . S
H3708 C3694 0.961 . S
H3709 C3695 0.958 . S
H3710 C3695 0.961 . S
H3711 C3695 0.960 . S
C3712 C3713 1.391 . S
C3712 C3714 1.394 . S
C3712 H3728 0.931 . S
C3713 C3712 1.391 . S
C3713 C3717 1.376 . S
C3714 C3712 1.394 . S
C3714 C3715 1.369 . S
C3714 C3718 1.531 . S
C3715 C3714 1.369 . S
C3715 C3716 1.410 . S
C3715 C3723 1.503 . S
C3716 C3715 1.410 . S
C3716 C3717 1.392 . S
C3716 C3719 1.511 . S
C3717 C3713 1.376 . S
C3717 C3716 1.392 . S
C3717 H3729 0.929 . S
C3718 C3714 1.531 . S
C3718 H3730 0.960 . S
C3718 H3731 0.962 . S
C3718 H3732 0.960 . S
C3719 C3716 1.511 . S
C3719 H3733 0.961 . S
C3719 H3734 0.961 . S
C3719 H3735 0.961 . S
C3720 C3721 1.370 . S
C3720 C3722 1.363 . S
C3720 H3736 0.931 . S
C3721 C3720 1.370 . S
C3721 C3725 1.408 . S
C3722 C3720 1.363 . S
C3722 C3723 1.370 . S
C3722 C3726 1.524 . S
C3723 C3715 1.503 . S
C3723 C3722 1.370 . S
C3723 C3724 1.403 . S
C3724 C3723 1.403 . S
C3724 C3725 1.404 . S
C3724 C3727 1.539 . S
C3725 C3721 1.408 . S
C3725 C3724 1.404 . S
C3725 H3737 0.930 . S
C3726 C3722 1.524 . S
C3726 H3738 0.956 . S
C3726 H3739 0.961 . S
C3726 H3740 0.961 . S
C3727 C3724 1.539 . S
C3727 H3741 0.958 . S
C3727 H3742 0.961 . S
C3727 H3743 0.960 . S
H3728 C3712 0.931 . S
H3729 C3717 0.929 . S
H3730 C3718 0.960 . S
H3731 C3718 0.962 . S
H3732 C3718 0.960 . S
H3733 C3719 0.961 . S
H3734 C3719 0.961 . S
H3735 C3719 0.961 . S
H3736 C3720 0.931 . S
H3737 C3725 0.930 . S
H3738 C3726 0.956 . S
H3739 C3726 0.961 . S
H3740 C3726 0.961 . S
H3741 C3727 0.958 . S
H3742 C3727 0.961 . S
H3743 C3727 0.960 . S
C3744 C3745 1.391 . S
C3744 C3746 1.394 . S
C3744 H3760 0.931 . S
C3745 C3744 1.391 . S
C3745 C3749 1.376 . S
C3746 C3744 1.394 . S
C3746 C3747 1.369 . S
C3746 C3750 1.531 . S
C3747 C3746 1.369 . S
C3747 C3748 1.410 . S
C3747 C3755 1.503 . S
C3748 C3747 1.410 . S
C3748 C3749 1.392 . S
C3748 C3751 1.511 . S
C3749 C3745 1.376 . S
C3749 C3748 1.392 . S
C3749 H3761 0.929 . S
C3750 C3746 1.531 . S
C3750 H3762 0.960 . S
C3750 H3763 0.962 . S
C3750 H3764 0.960 . S
C3751 C3748 1.511 . S
C3751 H3765 0.961 . S
C3751 H3766 0.961 . S
C3751 H3767 0.961 . S
C3752 C3753 1.370 . S
C3752 C3754 1.363 . S
C3752 H3768 0.931 . S
C3753 C3752 1.370 . S
C3753 C3757 1.408 . S
C3754 C3752 1.363 . S
C3754 C3755 1.370 . S
C3754 C3758 1.524 . S
C3755 C3747 1.503 . S
C3755 C3754 1.370 . S
C3755 C3756 1.403 . S
C3756 C3755 1.403 . S
C3756 C3757 1.404 . S
C3756 C3759 1.539 . S
C3757 C3753 1.408 . S
C3757 C3756 1.404 . S
C3757 H3769 0.930 . S
C3758 C3754 1.524 . S
C3758 H3770 0.956 . S
C3758 H3771 0.961 . S
C3758 H3772 0.961 . S
C3759 C3756 1.539 . S
C3759 H3773 0.958 . S
C3759 H3774 0.961 . S
C3759 H3775 0.960 . S
H3760 C3744 0.931 . S
H3761 C3749 0.929 . S
H3762 C3750 0.960 . S
H3763 C3750 0.962 . S
H3764 C3750 0.960 . S
H3765 C3751 0.961 . S
H3766 C3751 0.961 . S
H3767 C3751 0.961 . S
H3768 C3752 0.931 . S
H3769 C3757 0.930 . S
H3770 C3758 0.956 . S
H3771 C3758 0.961 . S
H3772 C3758 0.961 . S
H3773 C3759 0.958 . S
H3774 C3759 0.961 . S
H3775 C3759 0.960 . S
C3776 C3777 1.391 . S
C3776 C3778 1.394 . S
C3776 H3792 0.931 . S
C3777 C3776 1.391 . S
C3777 C3781 1.376 . S
C3778 C3776 1.394 . S
C3778 C3779 1.369 . S
C3778 C3782 1.531 . S
C3779 C3778 1.369 . S
C3779 C3780 1.410 . S
C3779 C3787 1.503 . S
C3780 C3779 1.410 . S
C3780 C3781 1.392 . S
C3780 C3783 1.511 . S
C3781 C3777 1.376 . S
C3781 C3780 1.392 . S
C3781 H3793 0.929 . S
C3782 C3778 1.531 . S
C3782 H3794 0.960 . S
C3782 H3795 0.962 . S
C3782 H3796 0.960 . S
C3783 C3780 1.511 . S
C3783 H3797 0.961 . S
C3783 H3798 0.961 . S
C3783 H3799 0.961 . S
C3784 C3785 1.370 . S
C3784 C3786 1.363 . S
C3784 H3800 0.931 . S
C3785 C3784 1.370 . S
C3785 C3789 1.408 . S
C3786 C3784 1.363 . S
C3786 C3787 1.370 . S
C3786 C3790 1.524 . S
C3787 C3779 1.503 . S
C3787 C3786 1.370 . S
C3787 C3788 1.403 . S
C3788 C3787 1.403 . S
C3788 C3789 1.404 . S
C3788 C3791 1.539 . S
C3789 C3785 1.408 . S
C3789 C3788 1.404 . S
C3789 H3801 0.930 . S
C3790 C3786 1.524 . S
C3790 H3802 0.956 . S
C3790 H3803 0.961 . S
C3790 H3804 0.961 . S
C3791 C3788 1.539 . S
C3791 H3805 0.958 . S
C3791 H3806 0.961 . S
C3791 H3807 0.960 . S
H3792 C3776 0.931 . S
H3793 C3781 0.929 . S
H3794 C3782 0.960 . S
H3795 C3782 0.962 . S
H3796 C3782 0.960 . S
H3797 C3783 0.961 . S
H3798 C3783 0.961 . S
H3799 C3783 0.961 . S
H3800 C3784 0.931 . S
H3801 C3789 0.930 . S
H3802 C3790 0.956 . S
H3803 C3790 0.961 . S
H3804 C3790 0.961 . S
H3805 C3791 0.958 . S
H3806 C3791 0.961 . S
H3807 C3791 0.960 . S
C3808 C3809 1.391 . S
C3808 C3810 1.394 . S
C3808 H3824 0.931 . S
C3809 C3808 1.391 . S
C3809 C3813 1.376 . S
C3810 C3808 1.394 . S
C3810 C3811 1.369 . S
C3810 C3814 1.531 . S
C3811 C3810 1.369 . S
C3811 C3812 1.410 . S
C3811 C3819 1.503 . S
C3812 C3811 1.410 . S
C3812 C3813 1.392 . S
C3812 C3815 1.511 . S
C3813 C3809 1.376 . S
C3813 C3812 1.392 . S
C3813 H3825 0.929 . S
C3814 C3810 1.531 . S
C3814 H3826 0.960 . S
C3814 H3827 0.962 . S
C3814 H3828 0.960 . S
C3815 C3812 1.511 . S
C3815 H3829 0.961 . S
C3815 H3830 0.961 . S
C3815 H3831 0.961 . S
C3816 C3817 1.370 . S
C3816 C3818 1.363 . S
C3816 H3832 0.931 . S
C3817 C3816 1.370 . S
C3817 C3821 1.408 . S
C3818 C3816 1.363 . S
C3818 C3819 1.370 . S
C3818 C3822 1.524 . S
C3819 C3811 1.503 . S
C3819 C3818 1.370 . S
C3819 C3820 1.403 . S
C3820 C3819 1.403 . S
C3820 C3821 1.404 . S
C3820 C3823 1.539 . S
C3821 C3817 1.408 . S
C3821 C3820 1.404 . S
C3821 H3833 0.930 . S
C3822 C3818 1.524 . S
C3822 H3834 0.956 . S
C3822 H3835 0.961 . S
C3822 H3836 0.961 . S
C3823 C3820 1.539 . S
C3823 H3837 0.958 . S
C3823 H3838 0.961 . S
C3823 H3839 0.960 . S
H3824 C3808 0.931 . S
H3825 C3813 0.929 . S
H3826 C3814 0.960 . S
H3827 C3814 0.962 . S
H3828 C3814 0.960 . S
H3829 C3815 0.961 . S
H3830 C3815 0.961 . S
H3831 C3815 0.961 . S
H3832 C3816 0.931 . S
H3833 C3821 0.930 . S
H3834 C3822 0.956 . S
H3835 C3822 0.961 . S
H3836 C3822 0.961 . S
H3837 C3823 0.958 . S
H3838 C3823 0.961 . S
H3839 C3823 0.960 . S
C3840 C3841 1.391 . S
C3840 C3842 1.394 . S
C3840 H3856 0.931 . S
C3841 C3840 1.391 . S
C3841 C3845 1.376 . S
C3842 C3840 1.394 . S
C3842 C3843 1.369 . S
C3842 C3846 1.531 . S
C3843 C3842 1.369 . S
C3843 C3844 1.410 . S
C3843 C3851 1.503 . S
C3844 C3843 1.410 . S
C3844 C3845 1.392 . S
C3844 C3847 1.511 . S
C3845 C3841 1.376 . S
C3845 C3844 1.392 . S
C3845 H3857 0.929 . S
C3846 C3842 1.531 . S
C3846 H3858 0.960 . S
C3846 H3859 0.962 . S
C3846 H3860 0.960 . S
C3847 C3844 1.511 . S
C3847 H3861 0.961 . S
C3847 H3862 0.961 . S
C3847 H3863 0.961 . S
C3848 C3849 1.370 . S
C3848 C3850 1.363 . S
C3848 H3864 0.931 . S
C3849 C3848 1.370 . S
C3849 C3853 1.408 . S
C3850 C3848 1.363 . S
C3850 C3851 1.370 . S
C3850 C3854 1.524 . S
C3851 C3843 1.503 . S
C3851 C3850 1.370 . S
C3851 C3852 1.403 . S
C3852 C3851 1.403 . S
C3852 C3853 1.404 . S
C3852 C3855 1.539 . S
C3853 C3849 1.408 . S
C3853 C3852 1.404 . S
C3853 H3865 0.930 . S
C3854 C3850 1.524 . S
C3854 H3866 0.956 . S
C3854 H3867 0.961 . S
C3854 H3868 0.961 . S
C3855 C3852 1.539 . S
C3855 H3869 0.958 . S
C3855 H3870 0.961 . S
C3855 H3871 0.960 . S
H3856 C3840 0.931 . S
H3857 C3845 0.929 . S
H3858 C3846 0.960 . S
H3859 C3846 0.962 . S
H3860 C3846 0.960 . S
H3861 C3847 0.961 . S
H3862 C3847 0.961 . S
H3863 C3847 0.961 . S
H3864 C3848 0.931 . S
H3865 C3853 0.930 . S
H3866 C3854 0.956 . S
H3867 C3854 0.961 . S
H3868 C3854 0.961 . S
H3869 C3855 0.958 . S
H3870 C3855 0.961 . S
H3871 C3855 0.960 . S
C3872 C3873 1.391 . S
C3872 C3874 1.394 . S
C3872 H3888 0.931 . S
C3873 C3872 1.391 . S
C3873 C3877 1.376 . S
C3874 C3872 1.394 . S
C3874 C3875 1.369 . S
C3874 C3878 1.531 . S
C3875 C3874 1.369 . S
C3875 C3876 1.410 . S
C3875 C3883 1.503 . S
C3876 C3875 1.410 . S
C3876 C3877 1.392 . S
C3876 C3879 1.511 . S
C3877 C3873 1.376 . S
C3877 C3876 1.392 . S
C3877 H3889 0.929 . S
C3878 C3874 1.531 . S
C3878 H3890 0.960 . S
C3878 H3891 0.962 . S
C3878 H3892 0.960 . S
C3879 C3876 1.511 . S
C3879 H3893 0.961 1_455 S
C3879 H3894 0.961 . S
C3879 H3895 0.961 1_455 S
C3880 C3881 1.370 . S
C3880 C3882 1.363 . S
C3880 H3896 0.931 . S
C3881 C3880 1.370 . S
C3881 C3885 1.408 . S
C3882 C3880 1.363 . S
C3882 C3883 1.370 . S
C3882 C3886 1.524 . S
C3883 C3875 1.503 . S
C3883 C3882 1.370 . S
C3883 C3884 1.403 . S
C3884 C3883 1.403 . S
C3884 C3885 1.404 . S
C3884 C3887 1.539 . S
C3885 C3881 1.408 . S
C3885 C3884 1.404 . S
C3885 H3897 0.930 . S
C3886 C3882 1.524 . S
C3886 H3898 0.956 . S
C3886 H3899 0.961 . S
C3886 H3900 0.961 . S
C3887 C3884 1.539 . S
C3887 H3901 0.958 . S
C3887 H3902 0.961 . S
C3887 H3903 0.960 . S
H3888 C3872 0.931 . S
H3889 C3877 0.929 . S
H3890 C3878 0.960 . S
H3891 C3878 0.962 . S
H3892 C3878 0.960 . S
H3893 C3879 0.961 1_655 S
H3894 C3879 0.961 . S
H3895 C3879 0.961 1_655 S
H3896 C3880 0.931 . S
H3897 C3885 0.930 . S
H3898 C3886 0.956 . S
H3899 C3886 0.961 . S
H3900 C3886 0.961 . S
H3901 C3887 0.958 . S
H3902 C3887 0.961 . S
H3903 C3887 0.960 . S
C3904 C3905 1.391 . S
C3904 C3906 1.394 . S
C3904 H3920 0.931 . S
C3905 C3904 1.391 . S
C3905 C3909 1.376 . S
C3906 C3904 1.394 . S
C3906 C3907 1.369 . S
C3906 C3910 1.531 . S
C3907 C3906 1.369 . S
C3907 C3908 1.410 . S
C3907 C3915 1.503 . S
C3908 C3907 1.410 . S
C3908 C3909 1.392 . S
C3908 C3911 1.511 . S
C3909 C3905 1.376 . S
C3909 C3908 1.392 . S
C3909 H3921 0.929 . S
C3910 C3906 1.531 . S
C3910 H3922 0.960 . S
C3910 H3923 0.962 . S
C3910 H3924 0.960 . S
C3911 C3908 1.511 . S
C3911 H3925 0.961 . S
C3911 H3926 0.961 . S
C3911 H3927 0.961 . S
C3912 C3913 1.370 . S
C3912 C3914 1.363 . S
C3912 H3928 0.931 . S
C3913 C3912 1.370 . S
C3913 C3917 1.408 . S
C3914 C3912 1.363 . S
C3914 C3915 1.370 . S
C3914 C3918 1.524 . S
C3915 C3907 1.503 . S
C3915 C3914 1.370 . S
C3915 C3916 1.403 . S
C3916 C3915 1.403 . S
C3916 C3917 1.404 . S
C3916 C3919 1.539 . S
C3917 C3913 1.408 . S
C3917 C3916 1.404 . S
C3917 H3929 0.930 . S
C3918 C3914 1.524 . S
C3918 H3930 0.956 . S
C3918 H3931 0.961 . S
C3918 H3932 0.961 . S
C3919 C3916 1.539 . S
C3919 H3933 0.958 . S
C3919 H3934 0.961 . S
C3919 H3935 0.960 . S
H3920 C3904 0.931 . S
H3921 C3909 0.929 . S
H3922 C3910 0.960 . S
H3923 C3910 0.962 . S
H3924 C3910 0.960 . S
H3925 C3911 0.961 . S
H3926 C3911 0.961 . S
H3927 C3911 0.961 . S
H3928 C3912 0.931 . S
H3929 C3917 0.930 . S
H3930 C3918 0.956 . S
H3931 C3918 0.961 . S
H3932 C3918 0.961 . S
H3933 C3919 0.958 . S
H3934 C3919 0.961 . S
H3935 C3919 0.960 . S
C3936 C3937 1.391 . S
C3936 C3938 1.394 . S
C3936 H3952 0.931 . S
C3937 C3936 1.391 . S
C3937 C3941 1.376 . S
C3938 C3936 1.394 . S
C3938 C3939 1.369 . S
C3938 C3942 1.531 . S
C3939 C3938 1.369 . S
C3939 C3940 1.410 . S
C3939 C3947 1.503 . S
C3940 C3939 1.410 . S
C3940 C3941 1.392 . S
C3940 C3943 1.511 . S
C3941 C3937 1.376 . S
C3941 C3940 1.392 . S
C3941 H3953 0.929 . S
C3942 C3938 1.531 . S
C3942 H3954 0.960 . S
C3942 H3955 0.962 . S
C3942 H3956 0.960 . S
C3943 C3940 1.511 . S
C3943 H3957 0.961 . S
C3943 H3958 0.961 . S
C3943 H3959 0.961 . S
C3944 C3945 1.370 . S
C3944 C3946 1.363 . S
C3944 H3960 0.931 . S
C3945 C3944 1.370 . S
C3945 C3949 1.408 . S
C3946 C3944 1.363 . S
C3946 C3947 1.370 . S
C3946 C3950 1.524 . S
C3947 C3939 1.503 . S
C3947 C3946 1.370 . S
C3947 C3948 1.403 . S
C3948 C3947 1.403 . S
C3948 C3949 1.404 . S
C3948 C3951 1.539 . S
C3949 C3945 1.408 . S
C3949 C3948 1.404 . S
C3949 H3961 0.930 . S
C3950 C3946 1.524 . S
C3950 H3962 0.956 . S
C3950 H3963 0.961 . S
C3950 H3964 0.961 . S
C3951 C3948 1.539 . S
C3951 H3965 0.958 . S
C3951 H3966 0.961 . S
C3951 H3967 0.960 . S
H3952 C3936 0.931 . S
H3953 C3941 0.929 . S
H3954 C3942 0.960 . S
H3955 C3942 0.962 . S
H3956 C3942 0.960 . S
H3957 C3943 0.961 . S
H3958 C3943 0.961 . S
H3959 C3943 0.961 . S
H3960 C3944 0.931 . S
H3961 C3949 0.930 . S
H3962 C3950 0.956 . S
H3963 C3950 0.961 . S
H3964 C3950 0.961 . S
H3965 C3951 0.958 . S
H3966 C3951 0.961 . S
H3967 C3951 0.960 . S
C3968 C3969 1.391 . S
C3968 C3970 1.394 . S
C3968 H3984 0.931 . S
C3969 C3968 1.391 . S
C3969 C3973 1.376 . S
C3970 C3968 1.394 . S
C3970 C3971 1.369 . S
C3970 C3974 1.531 . S
C3971 C3970 1.369 . S
C3971 C3972 1.410 . S
C3971 C3979 1.503 . S
C3972 C3971 1.410 . S
C3972 C3973 1.392 . S
C3972 C3975 1.511 . S
C3973 C3969 1.376 . S
C3973 C3972 1.392 . S
C3973 H3985 0.929 . S
C3974 C3970 1.531 . S
C3974 H3986 0.960 . S
C3974 H3987 0.962 . S
C3974 H3988 0.960 . S
C3975 C3972 1.511 . S
C3975 H3989 0.961 . S
C3975 H3990 0.961 . S
C3975 H3991 0.961 . S
C3976 C3977 1.370 . S
C3976 C3978 1.363 . S
C3976 H3992 0.931 . S
C3977 C3976 1.370 . S
C3977 C3981 1.408 . S
C3978 C3976 1.363 . S
C3978 C3979 1.370 . S
C3978 C3982 1.524 . S
C3979 C3971 1.503 . S
C3979 C3978 1.370 . S
C3979 C3980 1.403 . S
C3980 C3979 1.403 . S
C3980 C3981 1.404 . S
C3980 C3983 1.539 . S
C3981 C3977 1.408 . S
C3981 C3980 1.404 . S
C3981 H3993 0.930 . S
C3982 C3978 1.524 . S
C3982 H3994 0.956 . S
C3982 H3995 0.961 . S
C3982 H3996 0.961 . S
C3983 C3980 1.539 . S
C3983 H3997 0.958 . S
C3983 H3998 0.961 . S
C3983 H3999 0.960 . S
H3984 C3968 0.931 . S
H3985 C3973 0.929 . S
H3986 C3974 0.960 . S
H3987 C3974 0.962 . S
H3988 C3974 0.960 . S
H3989 C3975 0.961 . S
H3990 C3975 0.961 . S
H3991 C3975 0.961 . S
H3992 C3976 0.931 . S
H3993 C3981 0.930 . S
H3994 C3982 0.956 . S
H3995 C3982 0.961 . S
H3996 C3982 0.961 . S
H3997 C3983 0.958 . S
H3998 C3983 0.961 . S
H3999 C3983 0.960 . S
C4000 C4001 1.391 . S
C4000 C4002 1.394 . S
C4000 H4016 0.931 . S
C4001 C4000 1.391 . S
C4001 C4005 1.376 . S
C4002 C4000 1.394 . S
C4002 C4003 1.369 . S
C4002 C4006 1.531 . S
C4003 C4002 1.369 . S
C4003 C4004 1.410 . S
C4003 C4011 1.503 . S
C4004 C4003 1.410 . S
C4004 C4005 1.392 . S
C4004 C4007 1.511 . S
C4005 C4001 1.376 . S
C4005 C4004 1.392 . S
C4005 H4017 0.929 . S
C4006 C4002 1.531 . S
C4006 H4018 0.960 . S
C4006 H4019 0.962 . S
C4006 H4020 0.960 . S
C4007 C4004 1.511 . S
C4007 H4021 0.961 . S
C4007 H4022 0.961 . S
C4007 H4023 0.961 . S
C4008 C4009 1.370 . S
C4008 C4010 1.363 . S
C4008 H4024 0.959 . S
C4009 C4008 1.370 . S
C4009 C4013 1.408 . S
C4010 C4008 1.363 . S
C4010 C4011 1.370 . S
C4010 C4014 1.524 1_455 S
C4011 C4003 1.503 . S
C4011 C4010 1.370 . S
C4011 C4012 1.403 . S
C4012 C4011 1.403 . S
C4012 C4013 1.404 . S
C4012 C4015 1.539 . S
C4013 C4009 1.408 . S
C4013 C4012 1.404 . S
C4013 H4025 0.930 . S
C4014 C4010 1.524 1_655 S
C4014 H4026 0.956 . S
C4014 H4027 0.961 . S
C4014 H4028 0.961 . S
C4015 C4012 1.539 . S
C4015 H4029 0.958 . S
C4015 H4030 0.961 . S
C4015 H4031 0.960 . S
H4016 C4000 0.931 . S
H4017 C4005 0.929 . S
H4018 C4006 0.960 . S
H4019 C4006 0.962 . S
H4020 C4006 0.960 . S
H4021 C4007 0.961 . S
H4022 C4007 0.961 . S
H4023 C4007 0.961 . S
H4024 C4008 0.959 . S
H4025 C4013 0.930 . S
H4026 C4014 0.956 . S
H4027 C4014 0.961 . S
H4028 C4014 0.961 . S
H4029 C4015 0.958 . S
H4030 C4015 0.961 . S
H4031 C4015 0.960 . S
C4032 C4033 1.391 . S
C4032 C4034 1.394 . S
C4032 H4048 0.931 . S
C4033 C4032 1.391 . S
C4033 C4037 1.376 . S
C4034 C4032 1.394 . S
C4034 C4035 1.369 . S
C4034 C4038 1.531 . S
C4035 C4034 1.369 . S
C4035 C4036 1.410 . S
C4035 C4043 1.503 . S
C4036 C4035 1.410 . S
C4036 C4037 1.392 . S
C4036 C4039 1.511 . S
C4037 C4033 1.376 . S
C4037 C4036 1.392 . S
C4037 H4049 0.929 . S
C4038 C4034 1.531 . S
C4038 H4050 0.960 . S
C4038 H4051 0.962 . S
C4038 H4052 0.960 . S
C4039 C4036 1.511 . S
C4039 H4053 0.961 . S
C4039 H4054 0.961 . S
C4039 H4055 0.961 . S
C4040 C4041 1.370 . S
C4040 C4042 1.363 . S
C4040 H4056 0.931 . S
C4041 C4040 1.370 . S
C4041 C4045 1.408 . S
C4042 C4040 1.363 . S
C4042 C4043 1.370 . S
C4042 C4046 1.524 . S
C4043 C4035 1.503 . S
C4043 C4042 1.370 . S
C4043 C4044 1.403 . S
C4044 C4043 1.403 . S
C4044 C4045 1.404 . S
C4044 C4047 1.539 . S
C4045 C4041 1.408 . S
C4045 C4044 1.404 . S
C4045 H4057 0.930 . S
C4046 C4042 1.524 . S
C4046 H4058 0.956 . S
C4046 H4059 0.961 . S
C4046 H4060 0.961 . S
C4047 C4044 1.539 . S
C4047 H4061 0.958 . S
C4047 H4062 0.961 . S
C4047 H4063 0.960 . S
H4048 C4032 0.931 . S
H4049 C4037 0.929 . S
H4050 C4038 0.960 . S
H4051 C4038 0.962 . S
H4052 C4038 0.960 . S
H4053 C4039 0.961 . S
H4054 C4039 0.961 . S
H4055 C4039 0.961 . S
H4056 C4040 0.931 . S
H4057 C4045 0.930 . S
H4058 C4046 0.956 . S
H4059 C4046 0.961 . S
H4060 C4046 0.961 . S
H4061 C4047 0.958 . S
H4062 C4047 0.961 . S
H4063 C4047 0.960 . S
C4064 C4065 1.391 . S
C4064 C4066 1.394 . S
C4064 H4080 0.931 . S
C4065 C4064 1.391 . S
C4065 C4069 1.376 . S
C4066 C4064 1.394 . S
C4066 C4067 1.369 . S
C4066 C4070 1.531 . S
C4067 C4066 1.369 . S
C4067 C4068 1.410 . S
C4067 C4075 1.503 . S
C4068 C4067 1.410 . S
C4068 C4069 1.392 . S
C4068 C4071 1.511 . S
C4069 C4065 1.376 . S
C4069 C4068 1.392 . S
C4069 H4081 0.929 . S
C4070 C4066 1.531 . S
C4070 H4082 0.960 . S
C4070 H4083 0.962 . S
C4070 H4084 0.960 . S
C4071 C4068 1.511 . S
C4071 H4085 0.961 . S
C4071 H4086 0.961 . S
C4071 H4087 0.961 . S
C4072 C4073 1.370 . S
C4072 C4074 1.363 . S
C4072 H4088 0.931 . S
C4073 C4072 1.370 . S
C4073 C4077 1.408 . S
C4074 C4072 1.363 . S
C4074 C4075 1.370 . S
C4074 C4078 1.524 . S
C4075 C4067 1.503 . S
C4075 C4074 1.370 . S
C4075 C4076 1.403 . S
C4076 C4075 1.403 . S
C4076 C4077 1.404 . S
C4076 C4079 1.539 . S
C4077 C4073 1.408 . S
C4077 C4076 1.404 . S
C4077 H4089 0.930 . S
C4078 C4074 1.524 . S
C4078 H4090 0.956 . S
C4078 H4091 0.961 . S
C4078 H4092 0.961 . S
C4079 C4076 1.539 . S
C4079 H4093 0.958 . S
C4079 H4094 0.961 . S
C4079 H4095 0.960 . S
H4080 C4064 0.931 . S
H4081 C4069 0.929 . S
H4082 C4070 0.960 . S
H4083 C4070 0.962 . S
H4084 C4070 0.960 . S
H4085 C4071 0.961 . S
H4086 C4071 0.961 . S
H4087 C4071 0.961 . S
H4088 C4072 0.931 . S
H4089 C4077 0.930 . S
H4090 C4078 0.956 . S
H4091 C4078 0.961 . S
H4092 C4078 0.961 . S
H4093 C4079 0.958 . S
H4094 C4079 0.961 . S
H4095 C4079 0.960 . S
C4096 C4097 1.391 . S
C4096 C4098 1.394 . S
C4096 H4112 0.931 . S
C4097 C4096 1.391 . S
C4097 C4101 1.376 . S
C4098 C4096 1.394 . S
C4098 C4099 1.369 . S
C4098 C4102 1.531 . S
C4099 C4098 1.369 . S
C4099 C4100 1.410 . S
C4099 C4107 1.503 . S
C4100 C4099 1.410 . S
C4100 C4101 1.392 . S
C4100 C4103 1.511 . S
C4101 C4097 1.376 . S
C4101 C4100 1.392 . S
C4101 H4113 0.929 . S
C4102 C4098 1.531 . S
C4102 H4114 0.960 . S
C4102 H4115 0.962 . S
C4102 H4116 0.960 . S
C4103 C4100 1.511 . S
C4103 H4117 0.961 . S
C4103 H4118 0.961 . S
C4103 H4119 0.961 . S
C4104 C4105 1.370 . S
C4104 C4106 1.363 . S
C4104 H4120 0.931 . S
C4105 C4104 1.370 . S
C4105 C4109 1.408 . S
C4106 C4104 1.363 . S
C4106 C4107 1.370 . S
C4106 C4110 1.524 . S
C4107 C4099 1.503 . S
C4107 C4106 1.370 . S
C4107 C4108 1.403 . S
C4108 C4107 1.403 . S
C4108 C4109 1.404 . S
C4108 C4111 1.539 . S
C4109 C4105 1.408 . S
C4109 C4108 1.404 . S
C4109 H4121 0.930 . S
C4110 C4106 1.524 . S
C4110 H4122 0.956 . S
C4110 H4123 0.961 . S
C4110 H4124 0.961 . S
C4111 C4108 1.539 . S
C4111 H4125 0.958 . S
C4111 H4126 0.961 . S
C4111 H4127 0.960 . S
H4112 C4096 0.931 . S
H4113 C4101 0.929 . S
H4114 C4102 0.960 . S
H4115 C4102 0.962 . S
H4116 C4102 0.960 . S
H4117 C4103 0.961 . S
H4118 C4103 0.961 . S
H4119 C4103 0.961 . S
H4120 C4104 0.931 . S
H4121 C4109 0.930 . S
H4122 C4110 0.956 . S
H4123 C4110 0.961 . S
H4124 C4110 0.961 . S
H4125 C4111 0.958 . S
H4126 C4111 0.961 . S
H4127 C4111 0.960 . S
C4128 C4129 1.391 . S
C4128 C4130 1.394 . S
C4128 H4144 0.931 . S
C4129 C4128 1.391 . S
C4129 C4133 1.376 . S
C4130 C4128 1.394 . S
C4130 C4131 1.369 . S
C4130 C4134 1.531 . S
C4131 C4130 1.369 . S
C4131 C4132 1.410 . S
C4131 C4139 1.503 . S
C4132 C4131 1.410 . S
C4132 C4133 1.392 . S
C4132 C4135 1.511 . S
C4133 C4129 1.376 . S
C4133 C4132 1.392 . S
C4133 H4145 0.929 . S
C4134 C4130 1.531 . S
C4134 H4146 0.960 . S
C4134 H4147 0.962 . S
C4134 H4148 0.960 . S
C4135 C4132 1.511 . S
C4135 H4149 0.961 . S
C4135 H4150 0.961 . S
C4135 H4151 0.961 . S
C4136 C4137 1.370 . S
C4136 C4138 1.363 1_455 S
C4136 H4152 0.931 . S
C4137 C4136 1.370 . S
C4137 C4141 1.408 1_455 S
C4138 C4136 1.363 1_655 S
C4138 C4139 1.370 . S
C4138 C4142 1.524 1_655 S
C4139 C4131 1.503 . S
C4139 C4138 1.370 . S
C4139 C4140 1.403 . S
C4140 C4139 1.403 . S
C4140 C4141 1.404 . S
C4140 C4143 1.539 . S
C4141 C4137 1.408 1_655 S
C4141 C4140 1.404 . S
C4141 H4153 0.930 . S
C4142 C4138 1.524 1_455 S
C4142 H4154 0.956 . S
C4142 H4155 0.961 1_455 S
C4142 H4156 0.961 . S
C4143 C4140 1.539 . S
C4143 H4157 0.958 . S
C4143 H4158 0.961 . S
C4143 H4159 0.960 . S
H4144 C4128 0.931 . S
H4145 C4133 0.929 . S
H4146 C4134 0.960 . S
H4147 C4134 0.962 . S
H4148 C4134 0.960 . S
H4149 C4135 0.961 . S
H4150 C4135 0.961 . S
H4151 C4135 0.961 . S
H4152 C4136 0.931 . S
H4153 C4141 0.930 . S
H4154 C4142 0.956 . S
H4155 C4142 0.961 1_655 S
H4156 C4142 0.961 . S
H4157 C4143 0.958 . S
H4158 C4143 0.961 . S
H4159 C4143 0.960 . S
C4160 C4161 1.391 . S
C4160 C4162 1.394 . S
C4160 H4176 0.931 . S
C4161 C4160 1.391 . S
C4161 C4165 1.376 . S
C4162 C4160 1.394 . S
C4162 C4163 1.369 . S
C4162 C4166 1.531 . S
C4163 C4162 1.369 . S
C4163 C4164 1.410 . S
C4163 C4171 1.503 . S
C4164 C4163 1.410 . S
C4164 C4165 1.392 . S
C4164 C4167 1.511 . S
C4165 C4161 1.376 . S
C4165 C4164 1.392 . S
C4165 H4177 0.929 . S
C4166 C4162 1.531 . S
C4166 H4178 0.960 . S
C4166 H4179 0.962 . S
C4166 H4180 0.960 . S
C4167 C4164 1.511 . S
C4167 H4181 0.961 . S
C4167 H4182 0.961 . S
C4167 H4183 0.961 . S
C4168 C4169 1.370 . S
C4168 C4170 1.363 . S
C4168 H4184 0.931 . S
C4169 C4168 1.370 . S
C4169 C4173 1.408 . S
C4170 C4168 1.363 . S
C4170 C4171 1.370 . S
C4170 C4174 1.524 . S
C4171 C4163 1.503 . S
C4171 C4170 1.370 . S
C4171 C4172 1.403 . S
C4172 C4171 1.403 . S
C4172 C4173 1.404 . S
C4172 C4175 1.539 . S
C4173 C4169 1.408 . S
C4173 C4172 1.404 . S
C4173 H4185 0.930 . S
C4174 C4170 1.524 . S
C4174 H4186 0.956 . S
C4174 H4187 0.961 . S
C4174 H4188 0.961 . S
C4175 C4172 1.539 . S
C4175 H4189 0.958 . S
C4175 H4190 0.961 . S
C4175 H4191 0.960 . S
H4176 C4160 0.931 . S
H4177 C4165 0.929 . S
H4178 C4166 0.960 . S
H4179 C4166 0.962 . S
H4180 C4166 0.960 . S
H4181 C4167 0.961 . S
H4182 C4167 0.961 . S
H4183 C4167 0.961 . S
H4184 C4168 0.931 . S
H4185 C4173 0.930 . S
H4186 C4174 0.956 . S
H4187 C4174 0.961 . S
H4188 C4174 0.961 . S
H4189 C4175 0.958 . S
H4190 C4175 0.961 . S
H4191 C4175 0.960 . S
C4192 C4193 1.391 . S
C4192 C4194 1.394 . S
C4192 H4208 0.931 . S
C4193 C4192 1.391 . S
C4193 C4197 1.376 . S
C4194 C4192 1.394 . S
C4194 C4195 1.369 . S
C4194 C4198 1.531 . S
C4195 C4194 1.369 . S
C4195 C4196 1.410 . S
C4195 C4203 1.503 . S
C4196 C4195 1.410 . S
C4196 C4197 1.392 . S
C4196 C4199 1.511 . S
C4197 C4193 1.376 . S
C4197 C4196 1.392 . S
C4197 H4209 0.929 . S
C4198 C4194 1.531 . S
C4198 H4210 0.960 . S
C4198 H4211 0.962 . S
C4198 H4212 0.960 . S
C4199 C4196 1.511 . S
C4199 H4213 0.961 . S
C4199 H4214 0.961 . S
C4199 H4215 0.961 . S
C4200 C4201 1.370 . S
C4200 C4202 1.363 . S
C4200 H4216 0.931 . S
C4201 C4200 1.370 . S
C4201 C4205 1.408 . S
C4202 C4200 1.363 . S
C4202 C4203 1.370 . S
C4202 C4206 1.524 . S
C4203 C4195 1.503 . S
C4203 C4202 1.370 . S
C4203 C4204 1.403 . S
C4204 C4203 1.403 . S
C4204 C4205 1.404 . S
C4204 C4207 1.539 . S
C4205 C4201 1.408 . S
C4205 C4204 1.404 . S
C4205 H4217 0.930 . S
C4206 C4202 1.524 . S
C4206 H4218 0.956 . S
C4206 H4219 0.961 . S
C4206 H4220 0.961 . S
C4207 C4204 1.539 . S
C4207 H4221 0.958 . S
C4207 H4222 0.961 . S
C4207 H4223 0.960 . S
H4208 C4192 0.931 . S
H4209 C4197 0.929 . S
H4210 C4198 0.960 . S
H4211 C4198 0.962 . S
H4212 C4198 0.960 . S
H4213 C4199 0.961 . S
H4214 C4199 0.961 . S
H4215 C4199 0.961 . S
H4216 C4200 0.931 . S
H4217 C4205 0.930 . S
H4218 C4206 0.956 . S
H4219 C4206 0.961 . S
H4220 C4206 0.961 . S
H4221 C4207 0.958 . S
H4222 C4207 0.961 . S
H4223 C4207 0.960 . S
C4224 C4225 1.391 . S
C4224 C4226 1.394 . S
C4224 H4240 0.931 . S
C4225 C4224 1.391 . S
C4225 C4229 1.376 . S
C4226 C4224 1.394 . S
C4226 C4227 1.369 . S
C4226 C4230 1.531 . S
C4227 C4226 1.369 . S
C4227 C4228 1.410 . S
C4227 C4235 1.503 . S
C4228 C4227 1.410 . S
C4228 C4229 1.392 . S
C4228 C4231 1.511 . S
C4229 C4225 1.376 . S
C4229 C4228 1.392 . S
C4229 H4241 0.929 . S
C4230 C4226 1.531 . S
C4230 H4242 0.960 . S
C4230 H4243 0.962 . S
C4230 H4244 0.960 . S
C4231 C4228 1.511 . S
C4231 H4245 0.961 . S
C4231 H4246 0.961 . S
C4231 H4247 0.961 . S
C4232 C4233 1.370 . S
C4232 C4234 1.363 . S
C4232 H4248 0.931 . S
C4233 C4232 1.370 . S
C4233 C4237 1.408 . S
C4234 C4232 1.363 . S
C4234 C4235 1.370 . S
C4234 C4238 1.524 . S
C4235 C4227 1.503 . S
C4235 C4234 1.370 . S
C4235 C4236 1.403 . S
C4236 C4235 1.403 . S
C4236 C4237 1.404 . S
C4236 C4239 1.539 . S
C4237 C4233 1.408 . S
C4237 C4236 1.404 . S
C4237 H4249 0.930 . S
C4238 C4234 1.524 . S
C4238 H4250 0.956 . S
C4238 H4251 0.961 . S
C4238 H4252 0.961 . S
C4239 C4236 1.539 . S
C4239 H4253 0.958 . S
C4239 H4254 0.961 . S
C4239 H4255 0.960 . S
H4240 C4224 0.931 . S
H4241 C4229 0.929 . S
H4242 C4230 0.960 . S
H4243 C4230 0.962 . S
H4244 C4230 0.960 . S
H4245 C4231 0.961 . S
H4246 C4231 0.961 . S
H4247 C4231 0.961 . S
H4248 C4232 0.931 . S
H4249 C4237 0.930 . S
H4250 C4238 0.956 . S
H4251 C4238 0.961 . S
H4252 C4238 0.961 . S
H4253 C4239 0.958 . S
H4254 C4239 0.961 . S
H4255 C4239 0.960 . S
C4256 C4257 1.391 . S
C4256 C4258 1.394 . S
C4256 H4272 0.931 . S
C4257 C4256 1.391 . S
C4257 C4261 1.376 . S
C4258 C4256 1.394 . S
C4258 C4259 1.369 . S
C4258 C4262 1.531 . S
C4259 C4258 1.369 . S
C4259 C4260 1.410 . S
C4259 C4267 1.503 . S
C4260 C4259 1.410 . S
C4260 C4261 1.392 . S
C4260 C4263 1.511 . S
C4261 C4257 1.376 . S
C4261 C4260 1.392 . S
C4261 H4273 0.929 . S
C4262 C4258 1.531 . S
C4262 H4274 0.960 . S
C4262 H4275 0.962 . S
C4262 H4276 0.960 . S
C4263 C4260 1.511 . S
C4263 H4277 0.961 . S
C4263 H4278 0.961 . S
C4263 H4279 0.961 . S
C4264 C4265 1.370 . S
C4264 C4266 1.363 . S
C4264 H4280 0.931 . S
C4265 C4264 1.370 . S
C4265 C4269 1.408 1_655 S
C4266 C4264 1.363 . S
C4266 C4267 1.370 . S
C4266 C4270 1.524 . S
C4267 C4259 1.503 . S
C4267 C4266 1.370 . S
C4267 C4268 1.403 . S
C4268 C4267 1.403 . S
C4268 C4269 1.404 1_655 S
C4268 C4271 1.539 1_655 S
C4269 C4265 1.408 1_455 S
C4269 C4268 1.404 1_455 S
C4269 H4281 0.930 . S
C4270 C4266 1.524 . S
C4270 H4282 0.956 . S
C4270 H4283 0.961 . S
C4270 H4284 0.961 . S
C4271 C4268 1.539 1_455 S
C4271 H4285 0.958 . S
C4271 H4286 0.961 . S
C4271 H4287 0.932 1_455 S
H4272 C4256 0.931 . S
H4273 C4261 0.929 . S
H4274 C4262 0.960 . S
H4275 C4262 0.962 . S
H4276 C4262 0.960 . S
H4277 C4263 0.961 . S
H4278 C4263 0.961 . S
H4279 C4263 0.961 . S
H4280 C4264 0.931 . S
H4281 C4269 0.930 . S
H4282 C4270 0.956 . S
H4283 C4270 0.961 . S
H4284 C4270 0.961 . S
H4285 C4271 0.958 . S
H4286 C4271 0.961 . S
H4287 C4271 0.932 1_655 S
C4288 C4289 1.391 . S
C4288 C4290 1.394 . S
C4288 H4304 0.931 . S
C4289 C4288 1.391 . S
C4289 C4293 1.376 . S
C4290 C4288 1.394 . S
C4290 C4291 1.369 . S
C4290 C4294 1.531 . S
C4291 C4290 1.369 . S
C4291 C4292 1.410 . S
C4291 C4299 1.503 . S
C4292 C4291 1.410 . S
C4292 C4293 1.392 . S
C4292 C4295 1.511 . S
C4293 C4289 1.376 . S
C4293 C4292 1.392 . S
C4293 H4305 0.929 . S
C4294 C4290 1.531 . S
C4294 H4306 0.960 . S
C4294 H4307 0.962 . S
C4294 H4308 0.960 . S
C4295 C4292 1.511 . S
C4295 H4309 0.961 . S
C4295 H4310 0.961 . S
C4295 H4311 0.961 . S
C4296 C4297 1.370 . S
C4296 C4298 1.363 . S
C4296 H4312 0.931 . S
C4297 C4296 1.370 . S
C4297 C4301 1.408 . S
C4298 C4296 1.363 . S
C4298 C4299 1.370 . S
C4298 C4302 1.524 . S
C4299 C4291 1.503 . S
C4299 C4298 1.370 . S
C4299 C4300 1.403 . S
C4300 C4299 1.403 . S
C4300 C4301 1.404 . S
C4300 C4303 1.539 . S
C4301 C4297 1.408 . S
C4301 C4300 1.404 . S
C4301 H4313 0.930 . S
C4302 C4298 1.524 . S
C4302 H4314 0.956 . S
C4302 H4315 0.961 . S
C4302 H4316 0.961 . S
C4303 C4300 1.539 . S
C4303 H4317 0.958 . S
C4303 H4318 0.961 . S
C4303 H4319 0.960 . S
H4304 C4288 0.931 . S
H4305 C4293 0.929 . S
H4306 C4294 0.960 . S
H4307 C4294 0.962 . S
H4308 C4294 0.960 . S
H4309 C4295 0.961 . S
H4310 C4295 0.961 . S
H4311 C4295 0.961 . S
H4312 C4296 0.931 . S
H4313 C4301 0.930 . S
H4314 C4302 0.956 . S
H4315 C4302 0.961 . S
H4316 C4302 0.961 . S
H4317 C4303 0.958 . S
H4318 C4303 0.961 . S
H4319 C4303 0.960 . S
C4320 C4321 1.391 . S
C4320 C4322 1.394 . S
C4320 H4336 0.931 . S
C4321 C4320 1.391 . S
C4321 C4325 1.376 . S
C4322 C4320 1.394 . S
C4322 C4323 1.369 . S
C4322 C4326 1.531 . S
C4323 C4322 1.369 . S
C4323 C4324 1.410 . S
C4323 C4331 1.503 . S
C4324 C4323 1.410 . S
C4324 C4325 1.392 . S
C4324 C4327 1.511 . S
C4325 C4321 1.376 . S
C4325 C4324 1.392 . S
C4325 H4337 0.929 . S
C4326 C4322 1.531 . S
C4326 H4338 0.960 . S
C4326 H4339 0.962 . S
C4326 H4340 0.960 . S
C4327 C4324 1.511 . S
C4327 H4341 0.961 . S
C4327 H4342 0.961 . S
C4327 H4343 0.961 . S
C4328 C4329 1.370 . S
C4328 C4330 1.363 . S
C4328 H4344 0.931 . S
C4329 C4328 1.370 . S
C4329 C4333 1.408 . S
C4330 C4328 1.363 . S
C4330 C4331 1.370 . S
C4330 C4334 1.524 . S
C4331 C4323 1.503 . S
C4331 C4330 1.370 . S
C4331 C4332 1.403 . S
C4332 C4331 1.403 . S
C4332 C4333 1.404 . S
C4332 C4335 1.539 . S
C4333 C4329 1.408 . S
C4333 C4332 1.404 . S
C4333 H4345 0.930 . S
C4334 C4330 1.524 . S
C4334 H4346 0.956 . S
C4334 H4347 0.961 . S
C4334 H4348 0.961 . S
C4335 C4332 1.539 . S
C4335 H4349 0.958 . S
C4335 H4350 0.961 . S
C4335 H4351 0.960 . S
H4336 C4320 0.931 . S
H4337 C4325 0.929 . S
H4338 C4326 0.960 . S
H4339 C4326 0.962 . S
H4340 C4326 0.960 . S
H4341 C4327 0.961 . S
H4342 C4327 0.961 . S
H4343 C4327 0.961 . S
H4344 C4328 0.931 . S
H4345 C4333 0.930 . S
H4346 C4334 0.956 . S
H4347 C4334 0.961 . S
H4348 C4334 0.961 . S
H4349 C4335 0.958 . S
H4350 C4335 0.961 . S
H4351 C4335 0.960 . S
C4352 C4353 1.391 . S
C4352 C4354 1.394 . S
C4352 H4368 0.931 . S
C4353 C4352 1.391 . S
C4353 C4357 1.376 . S
C4354 C4352 1.394 . S
C4354 C4355 1.369 . S
C4354 C4358 1.531 . S
C4355 C4354 1.369 . S
C4355 C4356 1.410 . S
C4355 C4363 1.503 . S
C4356 C4355 1.410 . S
C4356 C4357 1.392 . S
C4356 C4359 1.511 . S
C4357 C4353 1.376 . S
C4357 C4356 1.392 . S
C4357 H4369 0.929 . S
C4358 C4354 1.531 . S
C4358 H4370 0.960 . S
C4358 H4371 0.962 . S
C4358 H4372 0.960 . S
C4359 C4356 1.511 . S
C4359 H4373 0.961 . S
C4359 H4374 0.961 . S
C4359 H4375 0.961 . S
C4360 C4361 1.370 . S
C4360 C4362 1.363 . S
C4360 H4376 0.931 . S
C4361 C4360 1.370 . S
C4361 C4365 1.408 . S
C4362 C4360 1.363 . S
C4362 C4363 1.370 . S
C4362 C4366 1.524 . S
C4363 C4355 1.503 . S
C4363 C4362 1.370 . S
C4363 C4364 1.403 . S
C4364 C4363 1.403 . S
C4364 C4365 1.404 . S
C4364 C4367 1.539 . S
C4365 C4361 1.408 . S
C4365 C4364 1.404 . S
C4365 H4377 0.930 1_565 S
C4366 C4362 1.524 . S
C4366 H4378 0.956 . S
C4366 H4379 0.961 . S
C4366 H4380 0.961 . S
C4367 C4364 1.539 . S
C4367 H4381 0.927 1_565 S
C4367 H4382 0.961 . S
C4367 H4383 0.960 . S
H4368 C4352 0.931 . S
H4369 C4357 0.929 . S
H4370 C4358 0.960 . S
H4371 C4358 0.962 . S
H4372 C4358 0.960 . S
H4373 C4359 0.961 . S
H4374 C4359 0.961 . S
H4375 C4359 0.961 . S
H4376 C4360 0.931 . S
H4377 C4365 0.930 1_545 S
H4378 C4366 0.956 . S
H4379 C4366 0.961 . S
H4380 C4366 0.961 . S
H4381 C4367 0.927 1_545 S
H4382 C4367 0.961 . S
H4383 C4367 0.960 . S
C4384 C4385 1.391 . S
C4384 C4386 1.394 . S
C4384 H4400 0.931 . S
C4385 C4384 1.391 . S
C4385 C4389 1.376 . S
C4386 C4384 1.394 . S
C4386 C4387 1.369 . S
C4386 C4390 1.531 . S
C4387 C4386 1.369 . S
C4387 C4388 1.410 . S
C4387 C4395 1.503 . S
C4388 C4387 1.410 . S
C4388 C4389 1.392 . S
C4388 C4391 1.511 . S
C4389 C4385 1.376 . S
C4389 C4388 1.392 . S
C4389 H4401 0.929 . S
C4390 C4386 1.531 . S
C4390 H4402 0.960 . S
C4390 H4403 0.962 . S
C4390 H4404 0.960 . S
C4391 C4388 1.511 . S
C4391 H4405 0.961 . S
C4391 H4406 0.961 . S
C4391 H4407 0.961 . S
C4392 C4393 1.370 . S
C4392 C4394 1.363 . S
C4392 H4408 0.931 . S
C4393 C4392 1.370 . S
C4393 C4397 1.408 . S
C4394 C4392 1.363 . S
C4394 C4395 1.370 . S
C4394 C4398 1.524 . S
C4395 C4387 1.503 . S
C4395 C4394 1.370 . S
C4395 C4396 1.403 . S
C4396 C4395 1.403 . S
C4396 C4397 1.404 . S
C4396 C4399 1.539 . S
C4397 C4393 1.408 . S
C4397 C4396 1.404 . S
C4397 H4409 0.930 . S
C4398 C4394 1.524 . S
C4398 H4410 0.956 . S
C4398 H4411 0.961 . S
C4398 H4412 0.961 . S
C4399 C4396 1.539 . S
C4399 H4413 0.958 . S
C4399 H4414 0.961 . S
C4399 H4415 0.960 . S
H4400 C4384 0.931 . S
H4401 C4389 0.929 . S
H4402 C4390 0.960 . S
H4403 C4390 0.962 . S
H4404 C4390 0.960 . S
H4405 C4391 0.961 . S
H4406 C4391 0.961 . S
H4407 C4391 0.961 . S
H4408 C4392 0.931 . S
H4409 C4397 0.930 . S
H4410 C4398 0.956 . S
H4411 C4398 0.961 . S
H4412 C4398 0.961 . S
H4413 C4399 0.958 . S
H4414 C4399 0.961 . S
H4415 C4399 0.960 . S
C4416 C4417 1.391 . S
C4416 C4418 1.394 . S
C4416 H4432 0.931 . S
C4417 C4416 1.391 . S
C4417 C4421 1.376 . S
C4418 C4416 1.394 . S
C4418 C4419 1.369 . S
C4418 C4422 1.531 . S
C4419 C4418 1.369 . S
C4419 C4420 1.410 . S
C4419 C4427 1.503 . S
C4420 C4419 1.410 . S
C4420 C4421 1.392 . S
C4420 C4423 1.511 . S
C4421 C4417 1.376 . S
C4421 C4420 1.392 . S
C4421 H4433 0.929 . S
C4422 C4418 1.531 . S
C4422 H4434 0.960 . S
C4422 H4435 0.962 . S
C4422 H4436 0.960 . S
C4423 C4420 1.511 . S
C4423 H4437 0.961 . S
C4423 H4438 0.961 . S
C4423 H4439 0.961 . S
C4424 C4425 1.370 . S
C4424 C4426 1.363 . S
C4424 H4440 0.931 . S
C4425 C4424 1.370 . S
C4425 C4429 1.408 . S
C4426 C4424 1.363 . S
C4426 C4427 1.370 . S
C4426 C4430 1.524 . S
C4427 C4419 1.503 . S
C4427 C4426 1.370 . S
C4427 C4428 1.403 . S
C4428 C4427 1.403 . S
C4428 C4429 1.404 . S
C4428 C4431 1.539 . S
C4429 C4425 1.408 . S
C4429 C4428 1.404 . S
C4429 H4441 0.930 . S
C4430 C4426 1.524 . S
C4430 H4442 0.956 . S
C4430 H4443 0.961 . S
C4430 H4444 0.961 . S
C4431 C4428 1.539 . S
C4431 H4445 0.958 . S
C4431 H4446 0.961 . S
C4431 H4447 0.960 . S
H4432 C4416 0.931 . S
H4433 C4421 0.929 . S
H4434 C4422 0.960 . S
H4435 C4422 0.962 . S
H4436 C4422 0.960 . S
H4437 C4423 0.961 . S
H4438 C4423 0.961 . S
H4439 C4423 0.961 . S
H4440 C4424 0.931 . S
H4441 C4429 0.930 . S
H4442 C4430 0.956 . S
H4443 C4430 0.961 . S
H4444 C4430 0.961 . S
H4445 C4431 0.958 . S
H4446 C4431 0.961 . S
H4447 C4431 0.960 . S
C4448 C4449 1.391 . S
C4448 C4450 1.394 . S
C4448 H4464 0.931 . S
C4449 C4448 1.391 . S
C4449 C4453 1.376 . S
C4450 C4448 1.394 . S
C4450 C4451 1.369 . S
C4450 C4454 1.531 . S
C4451 C4450 1.369 . S
C4451 C4452 1.410 . S
C4451 C4459 1.503 . S
C4452 C4451 1.410 . S
C4452 C4453 1.392 . S
C4452 C4455 1.511 . S
C4453 C4449 1.376 . S
C4453 C4452 1.392 . S
C4453 H4465 0.929 . S
C4454 C4450 1.531 . S
C4454 H4466 0.960 . S
C4454 H4467 0.962 . S
C4454 H4468 0.960 . S
C4455 C4452 1.511 . S
C4455 H4469 0.961 . S
C4455 H4470 0.961 . S
C4455 H4471 0.961 . S
C4456 C4457 1.370 . S
C4456 C4458 1.363 . S
C4456 H4472 0.931 . S
C4457 C4456 1.370 . S
C4457 C4461 1.408 . S
C4458 C4456 1.363 . S
C4458 C4459 1.370 . S
C4458 C4462 1.524 . S
C4459 C4451 1.503 . S
C4459 C4458 1.370 . S
C4459 C4460 1.403 . S
C4460 C4459 1.403 . S
C4460 C4461 1.404 . S
C4460 C4463 1.539 . S
C4461 C4457 1.408 . S
C4461 C4460 1.404 . S
C4461 H4473 0.930 . S
C4462 C4458 1.524 . S
C4462 H4474 0.956 . S
C4462 H4475 0.961 . S
C4462 H4476 0.961 . S
C4463 C4460 1.539 . S
C4463 H4477 0.958 . S
C4463 H4478 0.961 . S
C4463 H4479 0.960 . S
H4464 C4448 0.931 . S
H4465 C4453 0.929 . S
H4466 C4454 0.960 . S
H4467 C4454 0.962 . S
H4468 C4454 0.960 . S
H4469 C4455 0.961 . S
H4470 C4455 0.961 . S
H4471 C4455 0.961 . S
H4472 C4456 0.931 . S
H4473 C4461 0.930 . S
H4474 C4462 0.956 . S
H4475 C4462 0.961 . S
H4476 C4462 0.961 . S
H4477 C4463 0.958 . S
H4478 C4463 0.961 . S
H4479 C4463 0.960 . S
C4480 C4481 1.391 . S
C4480 C4482 1.394 . S
C4480 H4496 0.931 . S
C4481 C4480 1.391 . S
C4481 C4485 1.376 . S
C4482 C4480 1.394 . S
C4482 C4483 1.369 . S
C4482 C4486 1.531 . S
C4483 C4482 1.369 . S
C4483 C4484 1.410 . S
C4483 C4491 1.503 . S
C4484 C4483 1.410 . S
C4484 C4485 1.392 . S
C4484 C4487 1.511 1_554 S
C4485 C4481 1.376 . S
C4485 C4484 1.392 . S
C4485 H4497 0.929 . S
C4486 C4482 1.531 . S
C4486 H4498 0.960 . S
C4486 H4499 0.962 . S
C4486 H4500 0.960 . S
C4487 C4484 1.511 1_556 S
C4487 H4501 0.961 . S
C4487 H4502 0.961 . S
C4487 H4503 0.961 . S
C4488 C4489 1.370 . S
C4488 C4490 1.363 . S
C4488 H4504 0.931 . S
C4489 C4488 1.370 . S
C4489 C4493 1.408 . S
C4490 C4488 1.363 . S
C4490 C4491 1.370 . S
C4490 C4494 1.524 . S
C4491 C4483 1.503 . S
C4491 C4490 1.370 . S
C4491 C4492 1.403 . S
C4492 C4491 1.403 . S
C4492 C4493 1.404 . S
C4492 C4495 1.539 . S
C4493 C4489 1.408 . S
C4493 C4492 1.404 . S
C4493 H4505 0.930 . S
C4494 C4490 1.524 . S
C4494 H4506 0.956 . S
C4494 H4507 0.961 . S
C4494 H4508 0.961 . S
C4495 C4492 1.539 . S
C4495 H4509 0.958 . S
C4495 H4510 0.961 . S
C4495 H4511 0.960 . S
H4496 C4480 0.931 . S
H4497 C4485 0.929 . S
H4498 C4486 0.960 . S
H4499 C4486 0.962 . S
H4500 C4486 0.960 . S
H4501 C4487 0.961 . S
H4502 C4487 0.961 . S
H4503 C4487 0.961 . S
H4504 C4488 0.931 . S
H4505 C4493 0.930 . S
H4506 C4494 0.956 . S
H4507 C4494 0.961 . S
H4508 C4494 0.961 . S
H4509 C4495 0.958 . S
H4510 C4495 0.961 . S
H4511 C4495 0.960 . S
C4512 C4513 1.391 . S
C4512 C4514 1.394 . S
C4512 H4528 0.931 . S
C4513 C4512 1.391 . S
C4513 C4517 1.376 . S
C4514 C4512 1.394 . S
C4514 C4515 1.369 . S
C4514 C4518 1.531 . S
C4515 C4514 1.369 . S
C4515 C4516 1.410 . S
C4515 C4523 1.503 . S
C4516 C4515 1.410 . S
C4516 C4517 1.392 . S
C4516 C4519 1.511 . S
C4517 C4513 1.376 . S
C4517 C4516 1.392 . S
C4517 H4529 0.929 . S
C4518 C4514 1.531 . S
C4518 H4530 0.960 . S
C4518 H4531 0.962 . S
C4518 H4532 0.960 . S
C4519 C4516 1.511 . S
C4519 H4533 0.961 . S
C4519 H4534 0.961 . S
C4519 H4535 0.961 . S
C4520 C4521 1.370 . S
C4520 C4522 1.363 . S
C4520 H4536 0.931 . S
C4521 C4520 1.370 . S
C4521 C4525 1.408 . S
C4522 C4520 1.363 . S
C4522 C4523 1.370 . S
C4522 C4526 1.524 . S
C4523 C4515 1.503 . S
C4523 C4522 1.370 . S
C4523 C4524 1.403 . S
C4524 C4523 1.403 . S
C4524 C4525 1.404 . S
C4524 C4527 1.539 . S
C4525 C4521 1.408 . S
C4525 C4524 1.404 . S
C4525 H4537 0.930 . S
C4526 C4522 1.524 . S
C4526 H4538 0.956 . S
C4526 H4539 0.961 . S
C4526 H4540 0.961 . S
C4527 C4524 1.539 . S
C4527 H4541 0.958 . S
C4527 H4542 0.961 . S
C4527 H4543 0.960 . S
H4528 C4512 0.931 . S
H4529 C4517 0.929 . S
H4530 C4518 0.960 . S
H4531 C4518 0.962 . S
H4532 C4518 0.960 . S
H4533 C4519 0.961 . S
H4534 C4519 0.961 . S
H4535 C4519 0.961 . S
H4536 C4520 0.931 . S
H4537 C4525 0.930 . S
H4538 C4526 0.956 . S
H4539 C4526 0.961 . S
H4540 C4526 0.961 . S
H4541 C4527 0.958 . S
H4542 C4527 0.961 . S
H4543 C4527 0.960 . S
C4544 C4545 1.391 . S
C4544 C4546 1.394 . S
C4544 H4560 0.931 . S
C4545 C4544 1.391 . S
C4545 C4549 1.376 . S
C4546 C4544 1.394 . S
C4546 C4547 1.369 . S
C4546 C4550 1.531 . S
C4547 C4546 1.369 . S
C4547 C4548 1.410 . S
C4547 C4555 1.503 . S
C4548 C4547 1.410 . S
C4548 C4549 1.392 . S
C4548 C4551 1.511 . S
C4549 C4545 1.376 . S
C4549 C4548 1.392 . S
C4549 H4561 0.929 . S
C4550 C4546 1.531 . S
C4550 H4562 0.960 . S
C4550 H4563 0.962 . S
C4550 H4564 0.960 . S
C4551 C4548 1.511 . S
C4551 H4565 0.961 . S
C4551 H4566 0.961 . S
C4551 H4567 0.961 . S
C4552 C4553 1.370 . S
C4552 C4554 1.363 . S
C4552 H4568 0.931 . S
C4553 C4552 1.370 . S
C4553 C4557 1.408 . S
C4554 C4552 1.363 . S
C4554 C4555 1.370 . S
C4554 C4558 1.524 . S
C4555 C4547 1.503 . S
C4555 C4554 1.370 . S
C4555 C4556 1.403 . S
C4556 C4555 1.403 . S
C4556 C4557 1.404 . S
C4556 C4559 1.539 . S
C4557 C4553 1.408 . S
C4557 C4556 1.404 . S
C4557 H4569 0.930 . S
C4558 C4554 1.524 . S
C4558 H4570 0.956 . S
C4558 H4571 0.961 . S
C4558 H4572 0.961 . S
C4559 C4556 1.539 . S
C4559 H4573 0.958 . S
C4559 H4574 0.961 . S
C4559 H4575 0.960 . S
H4560 C4544 0.931 . S
H4561 C4549 0.929 . S
H4562 C4550 0.960 . S
H4563 C4550 0.962 . S
H4564 C4550 0.960 . S
H4565 C4551 0.961 . S
H4566 C4551 0.961 . S
H4567 C4551 0.961 . S
H4568 C4552 0.931 . S
H4569 C4557 0.930 . S
H4570 C4558 0.956 . S
H4571 C4558 0.961 . S
H4572 C4558 0.961 . S
H4573 C4559 0.958 . S
H4574 C4559 0.961 . S
H4575 C4559 0.960 . S
C1505 C255 2.237 . S
C1513 C874 2.185 . S
C1537 C147 2.033 . S
C1545 C922 2.023 . S
C1569 C184 1.282 . S
C1577 C954 1.276 . S
C1609 C999 1.566 . S
C1601 C220 1.566 . S
C1633 C40 0.859 . S
C1641 C1039 0.875 . S
C1673 C1074 1.034 . S
C1665 C74 1.000 . S
C1705 C1113 1.202 . S
C1697 C110 1.203 . S
C1729 C14 1.183 . S
C1737 C1150 1.203 . S
C1769 C882 2.064 . S
C1761 C579 2.048 1_545 S
C1793 C616 0.425 . S
C1801 C919 0.519 . S
C1833 C962 2.418 . S
C1825 C687 2.441 . S
C1865 C994 1.175 . S
C1857 C436 1.187 . S
C1889 C580 1.296 . S
C1897 C1034 1.291 . S
C1929 C1082 0.452 . S
C1921 C615 0.460 . S
C1961 C1123 2.024 1_556 S
C1953 C688 2.126 . S
C1993 C1153 1.992 . S
C1985 C435 1.996 . S
C2025 C879 1.303 . S
C2017 C410 1.318 1_554 S
C2049 C722 2.232 . S
C2057 C1202 2.204 . S
C2089 C1239 1.236 . S
C2081 C842 1.221 . S
C2121 C1270 0.641 . S
C2113 C794 0.632 . S
C2145 C302 2.721 . S
C2153 C1163 2.765 . S
C2177 C338 1.417 . S
C2185 C959 1.420 . S
C2209 C830 1.814 . S
C2217 C1322 1.822 . S
C2249 C1354 1.883 . S
C2241 C758 1.876 . S
C2281 C883 2.184 . S
C2273 C158 2.125 . S
C2313 C1353 2.010 . S
C2305 C254 2.019 . S
C2337 C218 1.248 . S
C2345 C963 1.259 . S
C2369 C194 1.474 . S
C2377 C1310 1.539 . S
C2409 C1030 0.865 . S
C2401 C3 0.863 . S
C2433 C111 0.860 . S
C2441 C1243 0.849 . S
C2473 C1122 1.185 . S
C2465 C76 1.190 . S
C2505 C1399 1.247 . S
C2497 C50 1.130 . S
C2537 C873 2.032 . S
C2529 C364 2.046 . S
C2569 C1350 0.543 . S
C2561 C795 0.371 . S
C2593 C292 2.363 . S
C2601 C953 2.368 . S
C2625 C723 1.095 . S
C2633 C1323 1.089 . S
C2657 C363 1.250 . S
C2665 C1043 1.243 . S
C2697 C1233 0.368 . S
C2689 C796 0.553 . S
C2721 C291 2.068 . S
C2729 C1114 2.012 . S
C2753 C724 2.015 . S
C2761 C1402 2.000 . S
C2785 C482 1.219 . S
C2793 C870 1.377 . S
C2817 C434 2.174 . S
C2825 C1193 2.172 . S
C2849 C662 1.197 . S
C2857 C1070 1.210 . S
C2881 C614 0.625 . S
C2889 C1279 0.611 . S
C2921 C1394 2.766 . S
C2913 C698 2.770 . S
C2945 C554 1.384 . S
C2953 C950 1.404 . S
C2985 C993 1.776 . S
C2977 C650 1.776 . S
C3017 C923 1.835 . S
C3009 C506 1.829 . S
C3041 C183 2.242 . S
C3049 C1434 2.170 . S
C3081 C1362 2.019 . S
C3073 C219 2.024 . S
C3105 C256 1.281 . S
C3113 C1474 1.273 . S
C3137 C148 1.580 1_655 S
C3145 C1319 1.546 . S
C3169 C122 0.935 . S
C3177 C1199 0.919 . S
C3209 C1234 0.929 . S
C3201 C2 0.924 . S
C3241 C1273 1.105 . S
C3233 C39 1.064 . S
C3273 C1390 1.253 . S
C3265 C86 1.232 . S
C3305 C1442 2.079 . S
C3297 C651 2.066 . S
C3329 C472 0.376 . S
C3337 C1359 0.527 . S
C3369 C1482 2.405 . S
C3361 C507 2.427 . S
C3401 C1314 1.174 . S
C3393 C544 1.180 . S
C3433 C1194 1.280 . S
C3425 C652 1.278 . S
C3457 C471 0.443 . S
C3465 C1242 0.378 . S
C3497 C1283 2.031 . S
C3489 C508 2.101 . S
C3521 C543 2.022 . S
C3529 C1393 2.013 . S
C3561 C1439 1.324 . S
C3553 C806 1.384 . S
C3585 C326 2.193 . S
C3593 C1042 2.193 . S
C3625 C1079 1.231 . S
C3617 C374 1.227 1_565 S
C3657 C1110 0.661 . S
C3649 C398 0.699 . S
C3689 C1403 2.780 . S
C3681 C770 2.741 . S
C3713 C734 1.408 . S
C3721 C1479 1.413 . S
C3753 C1002 1.810 . S
C3745 C362 1.800 . S
C3785 C914 1.902 . S
C3777 C290 1.896 . S
C3809 C230 2.144 . S
C3817 C1443 2.170 . S
C3849 C913 2.022 . S
C3841 C182 2.018 . S
C3873 C146 1.223 . S
C3881 C1483 1.248 . S
C3905 C266 1.497 . S
C3913 C990 1.533 . S
C3937 C75 0.914 . S
C3945 C1190 0.904 . S
C3977 C1083 0.988 . S
C3969 C38 0.985 . S
C4001 C4 1.125 . S
C4009 C1282 1.103 . S
C4033 C112 1.180 . S
C4041 C1159 1.164 . S
C4073 C1433 2.040 . S
C4065 C832 2.039 . S
C4097 C399 0.313 . S
C4105 C910 0.552 . S
C4137 C1473 2.371 . S
C4129 C760 2.366 . S
C4161 C327 1.086 . S
C4169 C1003 1.069 . S
C4193 C831 1.275 . S
C4201 C1203 1.268 . S
C4233 C1073 0.373 . S
C4225 C400 0.422 . S
C4257 C759 2.061 . S
C4265 C1274 1.999 1_655 S
C4297 C1162 2.000 . S
C4289 C328 2.019 . S
C4329 C1430 1.365 . S
C4321 C626 1.292 . S
C4361 C1033 2.166 1_565 S
C4353 C542 2.194 . S
C4385 C590 1.178 . S
C4393 C1230 1.183 . S
C4425 C1119 0.609 . S
C4417 C470 0.567 . S
C4449 C518 2.754 . S
C4457 C1154 2.753 . S
C4481 C446 1.332 . S
C4489 C1470 1.405 . S
C4521 C1313 1.789 . S
C4513 C578 1.797 . S
C4553 C1363 1.816 . S
C4545 C686 1.814 . S
