# Generated by pormake.
# Topology zzz, (3,6)-cn, num edge types: 1
# Building blocks:
#     Node 0, Type 0, BuildingBlock: WUSLED_clean_sbu_0, # of connection points: 3
#     Node 1, Type 0, BuildingBlock: WUSLED_clean_sbu_0, # of connection points: 3
#     Node 2, Type 0, BuildingBlock: WUSLED_clean_sbu_0, # of connection points: 3
#     Node 3, Type 0, BuildingBlock: WUSLED_clean_sbu_0, # of connection points: 3
#     Node 4, Type 0, BuildingBlock: WUSLED_clean_sbu_0, # of connection points: 3
#     Node 5, Type 0, BuildingBlock: WUSLED_clean_sbu_0, # of connection points: 3
#     Node 6, Type 0, BuildingBlock: WUSLED_clean_sbu_0, # of connection points: 3
#     Node 7, Type 0, BuildingBlock: WUSLED_clean_sbu_0, # of connection points: 3
#     Node 8, Type 1, BuildingBlock: BETFEN_clean_sbu_0, # of connection points: 6
#     Node 9, Type 1, BuildingBlock: BETFEN_clean_sbu_0, # of connection points: 6
#     Node 10, Type 1, BuildingBlock: BETFEN_clean_sbu_0, # of connection points: 6
#     Node 11, Type 1, BuildingBlock: BETFEN_clean_sbu_0, # of connection points: 6
#     Edge 12, Type (0, 1), BuildingBlock: ZUJKAS_clean_linker_0, # of connection points: 2
#     Edge 13, Type (0, 1), BuildingBlock: ZUJKAS_clean_linker_0, # of connection points: 2
#     Edge 14, Type (0, 1), BuildingBlock: ZUJKAS_clean_linker_0, # of connection points: 2
#     Edge 15, Type (0, 1), BuildingBlock: ZUJKAS_clean_linker_0, # of connection points: 2
#     Edge 16, Type (0, 1), BuildingBlock: ZUJKAS_clean_linker_0, # of connection points: 2
#     Edge 17, Type (0, 1), BuildingBlock: ZUJKAS_clean_linker_0, # of connection points: 2
#     Edge 18, Type (0, 1), BuildingBlock: ZUJKAS_clean_linker_0, # of connection points: 2
#     Edge 19, Type (0, 1), BuildingBlock: ZUJKAS_clean_linker_0, # of connection points: 2
#     Edge 20, Type (0, 1), BuildingBlock: ZUJKAS_clean_linker_0, # of connection points: 2
#     Edge 21, Type (0, 1), BuildingBlock: ZUJKAS_clean_linker_0, # of connection points: 2
#     Edge 22, Type (0, 1), BuildingBlock: ZUJKAS_clean_linker_0, # of connection points: 2
#     Edge 23, Type (0, 1), BuildingBlock: ZUJKAS_clean_linker_0, # of connection points: 2
#     Edge 24, Type (0, 1), BuildingBlock: ZUJKAS_clean_linker_0, # of connection points: 2
#     Edge 25, Type (0, 1), BuildingBlock: ZUJKAS_clean_linker_0, # of connection points: 2
#     Edge 26, Type (0, 1), BuildingBlock: ZUJKAS_clean_linker_0, # of connection points: 2
#     Edge 27, Type (0, 1), BuildingBlock: ZUJKAS_clean_linker_0, # of connection points: 2
#     Edge 28, Type (0, 1), BuildingBlock: ZUJKAS_clean_linker_0, # of connection points: 2
#     Edge 29, Type (0, 1), BuildingBlock: ZUJKAS_clean_linker_0, # of connection points: 2
#     Edge 30, Type (0, 1), BuildingBlock: ZUJKAS_clean_linker_0, # of connection points: 2
#     Edge 31, Type (0, 1), BuildingBlock: ZUJKAS_clean_linker_0, # of connection points: 2
#     Edge 32, Type (0, 1), BuildingBlock: ZUJKAS_clean_linker_0, # of connection points: 2
#     Edge 33, Type (0, 1), BuildingBlock: ZUJKAS_clean_linker_0, # of connection points: 2
#     Edge 34, Type (0, 1), BuildingBlock: ZUJKAS_clean_linker_0, # of connection points: 2
#     Edge 35, Type (0, 1), BuildingBlock: ZUJKAS_clean_linker_0, # of connection points: 2
# Relax obj value: 0.393
# Max RMSD: 0.266
# Mean RMSD: 0.245
data_MOF--net-zzz--node1-WUSLED_clean_sbu_0--node2-BETFEN_clean_sbu_0--edge1-ZUJKAS_clean_linker_0
_symmetry_space_group_name_H-M    P1
_symmetry_Int_Tables_number       1
_symmetry_cell_setting            triclinic
loop_
_symmetry_equiv_pos_as_xyz
'x, y, z'
_cell_length_a     79.2208
_cell_length_b     79.310087
_cell_length_c     24.001737
_cell_angle_alpha  90.059577
_cell_angle_beta   89.937638
_cell_angle_gamma 90.088353
loop_
_atom_site_label
_atom_site_type_symbol
_atom_site_fract_x
_atom_site_fract_y
_atom_site_fract_z
_atom_type_partial_charge
C0 C 0.76198 0.51403 0.43516 0.0
C1 C 0.77636 0.51233 0.40141 0.0
C2 C 0.79502 0.51545 0.48264 0.0
C3 C 0.79265 0.51304 0.42481 0.0
C4 C 0.78051 0.51689 0.51634 0.0
C5 C 0.76425 0.51624 0.49285 0.0
U6 U 0.72803 0.51318 0.3157 0.0
O7 O 0.7037 0.49946 0.31213 0.0
O8 O 0.70392 0.52702 0.31272 0.0
C9 C 0.69481 0.51332 0.30594 0.0
C10 C 0.74454 0.51365 0.41171 0.0
C11 C 0.68233 0.51352 0.25921 0.0
C12 C 0.65335 0.50917 0.22708 0.0
C13 C 0.66553 0.5088 0.26962 0.0
C14 C 0.67442 0.51926 0.16232 0.0
C15 C 0.65755 0.51447 0.17285 0.0
C16 C 0.6867 0.51867 0.20487 0.0
C17 C 0.7581 0.51398 0.1823 0.0
C18 C 0.76742 0.51824 0.08736 0.0
C19 C 0.78779 0.51181 0.15973 0.0
C20 C 0.77476 0.51108 0.19918 0.0
C21 C 0.78415 0.51537 0.10347 0.0
C22 C 0.75453 0.51754 0.12649 0.0
C23 C 0.74375 0.51345 0.22025 0.0
O24 O 0.73941 0.52729 0.38571 0.0
O25 O 0.73975 0.49972 0.3864 0.0
O26 O 0.74042 0.49942 0.24728 0.0
O27 O 0.73967 0.52732 0.24699 0.0
H28 H 0.77501 0.5105 0.35691 0.0
H29 H 0.80342 0.51157 0.39748 0.0
H30 H 0.7817 0.51888 0.56081 0.0
H31 H 0.75337 0.51758 0.51992 0.0
H32 H 0.6405 0.50553 0.23688 0.0
H33 H 0.66177 0.50487 0.31104 0.0
H34 H 0.67815 0.52326 0.12095 0.0
H35 H 0.69957 0.52231 0.19539 0.0
H36 H 0.76429 0.5211 0.04447 0.0
H37 H 0.80062 0.50931 0.17289 0.0
H38 H 0.77765 0.50822 0.24225 0.0
H39 H 0.74167 0.51979 0.11306 0.0
C40 C 0.01115 0.7641 0.43831 0.0
C41 C 0.01169 0.77859 0.40473 0.0
C42 C 0.0092 0.79687 0.48694 0.0
C43 C 0.01063 0.79477 0.42876 0.0
C44 C 0.00898 0.78234 0.52052 0.0
C45 C 0.00982 0.76617 0.49643 0.0
U46 U 0.01229 0.73042 0.31781 0.0
O47 O 0.02591 0.70614 0.31382 0.0
O48 O 0.99832 0.70635 0.31387 0.0
C49 C 0.01202 0.69725 0.30731 0.0
C50 C 0.01161 0.74675 0.41424 0.0
C51 C 0.0118 0.6848 0.26051 0.0
C52 C 0.01056 0.65538 0.23021 0.0
C53 C 0.01115 0.66753 0.27283 0.0
C54 C 0.01145 0.67751 0.1612 0.0
C55 C 0.01063 0.6601 0.1736 0.0
C56 C 0.01196 0.68971 0.20411 0.0
C57 C 0.01226 0.76017 0.18367 0.0
C58 C 0.01081 0.76869 0.08707 0.0
C59 C 0.01131 0.78979 0.16042 0.0
C60 C 0.01218 0.77706 0.20063 0.0
C61 C 0.01056 0.78563 0.10338 0.0
C62 C 0.01162 0.75607 0.127 0.0
C63 C 0.01246 0.74615 0.22265 0.0
O64 O 0.99802 0.74165 0.38769 0.0
O65 O 0.02562 0.74205 0.38918 0.0
O66 O 0.02641 0.74274 0.24999 0.0
O67 O 0.99845 0.74231 0.24911 0.0
H68 H 0.0128 0.7774 0.35992 0.0
H69 H 0.011 0.80571 0.40181 0.0
H70 H 1.0078 0.78348 0.56534 0.0
H71 H 0.00931 0.75522 0.52334 0.0
H72 H 0.01024 0.6422 0.24181 0.0
H73 H 0.01106 0.66337 0.3158 0.0
H74 H 0.0114 0.68174 0.11831 0.0
H75 H 0.01239 0.70297 0.19325 0.0
H76 H 0.01019 0.7652 0.04345 0.0
H77 H 0.01143 0.80286 0.17371 0.0
H78 H 0.01273 0.78035 0.24441 0.0
H79 H 0.01163 0.74302 0.11358 0.0
C80 C 0.75594 1.00683 0.44372 0.0
C81 C 0.74192 0.01345 0.41532 0.0
C82 C 0.7232 1.00632 0.49334 0.0
C83 C 0.72579 0.01331 0.44002 0.0
C84 C 0.73722 0.99958 0.52151 0.0
C85 C 0.75339 0.99996 0.49715 0.0
U86 U 0.78842 1.00743 0.32087 0.0
O87 O 0.81252 0.02133 0.31252 0.0
O88 O 0.81255 0.99376 0.31256 0.0
C89 C 0.8215 1.00756 0.30543 0.0
C90 C 0.7733 1.00719 0.41936 0.0
C91 C 0.83398 1.00755 0.25858 0.0
C92 C 0.86342 0.01002 0.22837 0.0
C93 C 0.85113 0.01023 0.27068 0.0
C94 C 0.84174 1.00426 0.16019 0.0
C95 C 0.85893 1.00695 0.17265 0.0
C96 C 0.82937 1.00463 0.20266 0.0
C97 C 0.75779 1.00676 0.18702 0.0
C98 C 0.75145 1.00754 0.08846 0.0
C99 C 0.72893 1.00381 0.15608 0.0
C100 C 0.74066 1.00457 0.19943 0.0
C101 C 0.7343 1.00528 0.10036 0.0
C102 C 0.76312 1.00822 0.13163 0.0
C103 C 0.77068 1.00713 0.23006 0.0
O104 O 0.77834 0.99347 0.39347 0.0
O105 O 0.77791 0.02105 0.39334 0.0
O106 O 0.77478 0.02128 0.25519 0.0
O107 O 0.77498 0.9932 0.25596 0.0
H108 H 0.74344 0.01878 0.37407 0.0
H109 H 0.71524 0.01847 0.41706 0.0
H110 H 0.73571 0.99424 0.56273 0.0
H111 H 0.76397 0.99489 0.52024 0.0
H112 H 0.87652 0.01209 0.23932 0.0
H113 H 0.85508 0.01245 0.31327 0.0
H114 H 0.83789 1.00197 0.11755 0.0
H115 H 0.81625 1.00257 0.1919 0.0
H116 H 0.75581 0.00871 0.04584 0.0
H117 H 0.71565 1.00239 0.166 0.0
H118 H 0.73641 1.00349 0.24221 0.0
H119 H 0.77638 0.00984 0.12177 0.0
C120 C 0.50328 0.75856 0.44551 0.0
C121 C 0.49769 0.74472 0.41385 0.0
C122 C 0.50476 0.72508 0.48951 0.0
C123 C 0.49837 0.72825 0.43558 0.0
C124 C 0.51014 0.73906 0.52127 0.0
C125 C 0.50942 0.75553 0.49952 0.0
U126 U 0.5042 0.79053 0.3238 0.0
O127 O 0.49005 0.81417 0.31034 0.0
O128 O 0.51763 0.81481 0.31449 0.0
C129 C 0.50375 0.82341 0.30511 0.0
C130 C 0.50295 0.77614 0.42309 0.0
C131 C 0.50413 0.83589 0.25852 0.0
C132 C 0.50441 0.86546 0.22968 0.0
C133 C 0.50398 0.85314 0.27162 0.0
C134 C 0.50504 0.84358 0.15966 0.0
C135 C 0.50503 0.86098 0.17285 0.0
C136 C 0.50463 0.83119 0.20196 0.0
C137 C 0.50677 0.75924 0.19096 0.0
C138 C 0.4995 0.75297 0.09527 0.0
C139 C 0.51298 0.73172 0.1528 0.0
C140 C 0.51347 0.74302 0.19725 0.0
C141 C 0.50583 0.73662 0.10194 0.0
C142 C 0.49998 0.76427 0.13977 0.0
C143 C 0.50585 0.77048 0.23874 0.0
O144 O 0.517 0.78156 0.40003 0.0
O145 O 0.48947 0.78057 0.39474 0.0
O146 O 0.49134 0.77593 0.2582 0.0
O147 O 0.51949 0.7758 0.26451 0.0
H148 H 0.49283 0.74661 0.37216 0.0
H149 H 0.49377 0.71798 0.40997 0.0
H150 H 0.51529 0.73729 0.56261 0.0
H151 H 0.51383 0.76594 0.5249 0.0
H152 H 0.50403 0.87858 0.24204 0.0
H153 H 0.50349 0.85715 0.31476 0.0
H154 H 0.50564 0.83951 0.11663 0.0
H155 H 0.50476 0.81797 0.19051 0.0
H156 H 0.4939 0.75683 0.05614 0.0
H157 H 0.51762 0.719 0.15861 0.0
H158 H 0.51852 0.73894 0.23696 0.0
H159 H 0.49479 0.7768 0.13463 0.0
C160 C 0.25528 0.50036 0.88268 0.0
C161 C 0.24091 0.49576 0.91343 0.0
C162 C 0.22273 0.49977 0.8315 0.0
C163 C 0.22488 0.49545 0.88818 0.0
C164 C 0.2372 0.50444 0.80096 0.0
C165 C 0.25323 0.50467 0.8262 0.0
U166 U 0.28884 0.49879 1.00394 0.0
O167 O 0.31401 0.48675 1.0046 0.0
O168 O 0.31199 0.51417 0.01032 0.0
C169 C 0.32201 0.50103 0.01355 0.0
C170 C 0.27251 0.50061 0.90774 0.0
C171 C 0.33468 0.50125 0.05965 0.0
C172 C 0.36428 0.50231 0.08856 0.0
C173 C 0.35197 0.50153 0.04648 0.0
C174 C 0.34233 0.5023 0.15854 0.0
C175 C 0.35964 0.50273 0.14507 0.0
C176 C 0.32995 0.50162 0.11627 0.0
C177 C 0.25879 0.49494 0.13694 0.0
C178 C 0.2488 0.49964 0.23104 0.0
C179 C 0.22889 0.4934 0.15703 0.0
C180 C 0.24222 0.49205 0.1189 0.0
C181 C 0.23211 0.49765 0.21308 0.0
C182 C 0.262 0.49832 0.19318 0.0
C183 C 0.27319 0.49583 0.09918 0.0
O184 O 0.27655 0.51385 0.93792 0.0
O185 O 0.27811 0.48644 0.92933 0.0
O186 O 0.2771 0.48271 0.06824 0.0
O187 O 0.27663 0.51048 0.07632 0.0
H188 H 0.24208 0.49243 0.957 0.0
H189 H 0.21408 0.49205 0.91346 0.0
H190 H 0.2362 0.50768 0.75728 0.0
H191 H 0.26411 0.50819 0.80137 0.0
H192 H 0.37749 0.50259 0.07692 0.0
H193 H 0.35598 0.50127 1.00333 0.0
H194 H 0.33838 0.50265 0.20175 0.0
H195 H 0.31672 0.50149 0.12777 0.0
H196 H 0.25161 0.5031 0.27372 0.0
H197 H 0.21606 0.49164 0.14255 0.0
H198 H 0.23958 0.48933 0.07553 0.0
H199 H 0.27478 0.5006 0.20751 0.0
C200 C 0.01413 0.25719 0.88261 0.0
C201 C 0.01539 0.24278 0.9162 0.0
C202 C 0.01498 0.22437 0.8337 0.0
C203 C 0.0158 0.22661 0.89209 0.0
C204 C 0.01359 0.23891 0.8003 0.0
C205 C 0.0132 0.25507 0.82449 0.0
U206 U 0.01488 0.29118 1.0023 0.0
O207 O 0.02705 0.31628 1.00237 0.0
O208 O 0.99955 0.31431 0.00664 0.0
C209 C 0.01274 0.3243 0.01041 0.0
C210 C 0.01369 0.2745 0.90665 0.0
C211 C 0.01241 0.33693 0.05646 0.0
C212 C 0.01323 0.36643 0.08569 0.0
C213 C 0.01393 0.35412 0.04369 0.0
C214 C 0.00954 0.34462 0.15485 0.0
C215 C 0.01104 0.36197 0.14213 0.0
C216 C 0.01022 0.33227 0.11257 0.0
C217 C 0.01791 0.26146 0.1356 0.0
C218 C 0.01364 0.25138 0.22974 0.0
C219 C 0.01853 0.2315 0.15451 0.0
C220 C 0.02 0.24487 0.11672 0.0
C221 C 0.01495 0.2347 0.2111 0.0
C222 C 0.01509 0.26463 0.19221 0.0
C223 C 0.01727 0.27596 0.09839 0.0
O224 O 1.00024 0.2786 0.93583 0.0
O225 O 0.02774 0.28023 0.92894 0.0
O226 O 0.03058 0.27981 0.06817 0.0
O227 O 1.00275 0.2793 0.07445 0.0
H228 H 0.01602 0.24403 0.96109 0.0
H229 H 0.01654 0.21581 0.91949 0.0
H230 H 0.01307 0.23785 0.75535 0.0
H231 H 0.01222 0.26599 0.79758 0.0
H232 H 0.01413 0.37954 0.07351 0.0
H233 H 0.01554 0.35807 1.00082 0.0
H234 H 1.00806 0.34052 0.19758 0.0
H235 H 0.00901 0.31909 0.12372 0.0
H236 H 0.0107 0.25418 0.27286 0.0
H237 H 0.01978 0.21868 0.13946 0.0
H238 H 0.02226 0.24228 0.07303 0.0
H239 H 0.0134 0.27742 0.20718 0.0
C240 C 0.2626 0.02173 0.88219 0.0
C241 C 0.27673 0.02789 0.91116 0.0
C242 C 0.29513 0.0221 0.83095 0.0
C243 C 0.29276 0.02813 0.88576 0.0
C244 C 0.28095 0.01591 0.80215 0.0
C245 C 0.2649 0.01584 0.82734 0.0
U246 U 0.22854 0.02247 1.00273 0.0
O247 O 0.20365 0.03509 1.00301 0.0
O248 O 0.20503 1.00759 0.00655 0.0
C249 C 0.1953 0.02093 0.01052 0.0
C250 C 0.24531 0.02158 0.90709 0.0
C251 C 0.18249 0.02077 0.05625 0.0
C252 C 0.15299 0.02337 0.08529 0.0
C253 C 0.16549 0.02402 0.04372 0.0
C254 C 0.17423 0.01631 0.15351 0.0
C255 C 0.15709 0.01942 0.14093 0.0
C256 C 0.18676 0.01701 0.11177 0.0
C257 C 0.25865 0.02533 0.13504 0.0
C258 C 0.26879 0.02611 0.23009 0.0
C259 C 0.28855 0.02239 0.15377 0.0
C260 C 0.2752 0.02324 0.11556 0.0
C261 C 0.28532 0.02342 0.21141 0.0
C262 C 0.25559 0.02709 0.19217 0.0
C263 C 0.24389 0.02448 0.09883 0.0
O264 O 0.24083 1.00803 0.93499 0.0
O265 O 0.23994 0.03557 0.93064 0.0
O266 O 0.23975 0.03787 0.0697 0.0
O267 O 0.24061 0.01007 0.07401 0.0
H268 H 0.27537 0.03252 0.95338 0.0
H269 H 0.30341 0.03286 0.90938 0.0
H270 H 0.28221 0.01136 0.75978 0.0
H271 H 0.2542 0.0112 0.80373 0.0
H272 H 0.14002 0.02564 0.07341 0.0
H273 H 0.16182 0.02689 1.00133 0.0
H274 H 0.17802 0.01348 0.1958 0.0
H275 H 0.19978 0.01452 0.12283 0.0
H276 H 0.26601 0.02709 0.2742 0.0
H277 H 0.30124 0.02021 0.13853 0.0
H278 H 0.27771 0.0218 0.07143 0.0
H279 H 0.24284 0.02869 0.2077 0.0
C280 C 0.5061 0.26439 0.88157 0.0
C281 C 0.50056 0.27861 0.91129 0.0
C282 C 0.50493 0.29673 0.82942 0.0
C283 C 0.49993 0.29455 0.88549 0.0
C284 C 0.51058 0.28245 0.79999 0.0
C285 C 0.51107 0.2665 0.82567 0.0
U286 U 0.50613 0.23043 1.0022 0.0
O287 O 0.49326 0.20569 1.00295 0.0
O288 O 0.52081 0.20681 1.00536 0.0
C289 C 0.50734 0.19721 0.0099 0.0
C290 C 0.50642 0.24715 0.9066 0.0
C291 C 0.50747 0.18453 0.05587 0.0
C292 C 0.50702 0.15498 0.08515 0.0
C293 C 0.50669 0.16726 0.04291 0.0
C294 C 0.50885 0.17696 0.15472 0.0
C295 C 0.50814 0.15967 0.14151 0.0
C296 C 0.50852 0.18928 0.11235 0.0
C297 C 0.50388 0.26103 0.13289 0.0
C298 C 0.50015 0.27221 0.22595 0.0
C299 C 0.50949 0.29056 0.15115 0.0
C300 C 0.50877 0.277 0.11375 0.0
C301 C 0.50551 0.28814 0.20782 0.0
C302 C 0.49932 0.25881 0.18873 0.0
C303 C 0.50467 0.2459 0.09829 0.0
O304 O 0.52017 0.24271 0.93346 0.0
O305 O 0.49256 0.2418 0.93118 0.0
O306 O 0.49112 0.24151 0.07028 0.0
O307 O 0.51896 0.24261 0.0726 0.0
H308 H 0.49668 0.2774 0.95438 0.0
H309 H 0.49571 0.30526 0.90977 0.0
H310 H 0.51437 0.28352 0.75677 0.0
H311 H 0.51526 0.25574 0.80155 0.0
H312 H 0.50644 0.14178 0.07375 0.0
H313 H 0.50587 0.16323 0.99986 0.0
H314 H 0.50969 0.18093 0.19782 0.0
H315 H 0.50912 0.2025 0.12366 0.0
H316 H 0.49683 0.27006 0.26917 0.0
H317 H 0.51377 0.30274 0.13632 0.0
H318 H 0.51242 0.27886 0.07067 0.0
H319 H 0.49558 0.2465 0.20404 0.0
Pr320 Pr 0.02195 1.00711 0.70595 0.0
Pr321 Pr 0.99403 0.01461 0.60804 0.0
C322 C 0.03525 0.99386 0.7977 0.0
C323 C 0.03414 0.97615 0.81486 0.0
C324 C 0.04877 0.9673 0.82974 0.0
C325 C 0.0479 0.95006 0.84139 0.0
C326 C 0.03236 0.94158 0.8384 0.0
C327 C 0.01789 0.95031 0.82145 0.0
C328 C 0.01877 0.96743 0.80954 0.0
C329 C 0.03837 0.01112 0.60254 0.0
C330 C 1.00408 0.97465 0.63193 0.0
C331 C 0.98163 0.02886 0.51638 0.0
C332 C 0.98212 0.04695 0.50232 0.0
C333 C 0.96707 0.05562 0.49155 0.0
C334 C 0.9672 0.07309 0.48404 0.0
C335 C 0.98241 0.08219 0.48733 0.0
C336 C 0.99745 0.07353 0.49877 0.0
C337 C 0.9973 0.05611 0.50642 0.0
C338 C 0.97773 0.01044 0.71186 0.0
C339 C 0.01163 0.04694 0.68343 0.0
O340 O 0.02113 1.00248 0.79877 0.0
O341 O 0.0442 0.99641 0.75273 0.0
O342 O 0.02268 0.01215 0.61223 0.0
O343 O 0.04624 0.00849 0.64912 0.0
O344 O 0.99612 0.98507 0.5974 0.0
O345 O 0.01298 0.98015 0.67521 0.0
O346 O 0.99613 0.02089 0.51643 0.0
O347 O 0.97203 0.02499 0.55887 0.0
O348 O 0.99338 0.00954 0.70156 0.0
O349 O 0.9697 0.0134 0.66573 0.0
O350 O 0.0197 0.03645 0.71721 0.0
O351 O 1.00263 0.04156 0.64024 0.0
H352 H 0.06083 0.9737 0.83206 0.0
H353 H 0.05921 0.94347 0.85422 0.0
H354 H 1.00584 0.9439 0.81789 0.0
H355 H 1.00743 0.97378 0.79579 0.0
H356 H 0.95516 0.0489 0.48987 0.0
H357 H 0.9554 0.07951 0.4759 0.0
H358 H 0.00939 0.08018 0.501 0.0
H359 H 0.00907 0.0499 0.51637 0.0
Pr360 Pr 0.51288 0.02546 0.70656 0.0
Pr361 Pr 0.50488 0.99739 0.61121 0.0
C362 C 0.52658 0.03869 0.79801 0.0
C363 C 0.54415 0.0365 0.81567 0.0
C364 C 0.55336 0.05014 0.83699 0.0
C365 C 0.57053 0.0483 0.84902 0.0
C366 C 0.57862 0.0328 0.83957 0.0
C367 C 0.56947 0.01938 0.81623 0.0
C368 C 0.5524 0.0212 0.80449 0.0
C369 C 0.50937 0.04138 0.60241 0.0
C370 C 0.54502 1.00646 0.63419 0.0
C371 C 0.49071 0.9849 0.51932 0.0
C372 C 0.4728 0.9858 0.50301 0.0
C373 C 0.46337 0.97093 0.49615 0.0
C374 C 0.44608 0.97171 0.48468 0.0
C375 C 0.43809 0.9874 0.47943 0.0
C376 C 0.44739 1.00224 0.48789 0.0
C377 C 0.46456 1.00147 0.49991 0.0
C378 C 0.50772 0.98083 0.71428 0.0
C379 C 0.4728 0.01617 0.68452 0.0
O380 O 0.51706 0.02516 0.7997 0.0
O381 O 0.5248 0.04737 0.75218 0.0
O382 O 0.50812 0.02582 0.61322 0.0
O383 O 0.51175 0.04964 0.64844 0.0
O384 O 0.53445 0.998 0.60159 0.0
O385 O 0.53976 0.01633 0.67536 0.0
O386 O 0.49921 0.99911 0.51914 0.0
O387 O 0.49383 0.97553 0.56286 0.0
O388 O 0.50939 0.99662 0.70612 0.0
O389 O 0.50537 0.97323 0.66696 0.0
O390 O 0.48343 0.02471 0.71662 0.0
O391 O 0.47798 1.00629 0.64325 0.0
H392 H 0.54731 0.0622 0.84406 0.0
H393 H 0.57735 0.05884 0.8669 0.0
H394 H 0.57552 1.00743 0.8073 0.0
H395 H 0.54571 0.01065 0.78616 0.0
H396 H 0.46936 0.95872 0.49993 0.0
H397 H 0.43906 0.96013 0.47841 0.0
H398 H 0.44136 0.01446 0.48485 0.0
H399 H 0.4713 0.01317 0.50696 0.0
Pr400 Pr 0.4946 0.514 0.70834 0.0
Pr401 Pr 0.52266 0.5076 0.6079 0.0
C402 C 0.48235 0.5271 0.8021 0.0
C403 C 0.48363 0.54482 0.82038 0.0
C404 C 0.4691 0.55491 0.82139 0.0
C405 C 0.47035 0.57222 0.83075 0.0
C406 C 0.48617 0.57978 0.83974 0.0
C407 C 0.50072 0.56967 0.8391 0.0
C408 C 0.49948 0.55238 0.82928 0.0
C409 C 0.4785 0.51024 0.60426 0.0
C410 C 0.51169 0.54704 0.63441 0.0
C411 C 0.53514 0.49383 0.51557 0.0
C412 C 0.53536 0.47573 0.50118 0.0
C413 C 0.55078 0.46703 0.49786 0.0
C414 C 0.55101 0.44962 0.48855 0.0
C415 C 0.53581 0.44078 0.48215 0.0
C416 C 0.52042 0.44932 0.48665 0.0
C417 C 0.52016 0.46663 0.49643 0.0
C418 C 0.53872 0.51174 0.71188 0.0
C419 C 0.50578 0.47449 0.68232 0.0
O420 O 0.4964 0.51834 0.80126 0.0
O421 O 0.47289 0.52461 0.75816 0.0
O422 O 0.49413 0.50982 0.61481 0.0
O423 O 0.47023 0.51197 0.65074 0.0
O424 O 0.51917 0.5369 0.59781 0.0
O425 O 0.50349 0.54125 0.67892 0.0
O426 O 0.52032 0.50118 0.51656 0.0
O427 O 0.54484 0.49821 0.55729 0.0
O428 O 0.5231 0.51204 0.70128 0.0
O429 O 0.54701 0.50979 0.66554 0.0
O430 O 0.49733 0.48457 0.71671 0.0
O431 O 0.5148 0.48033 0.6397 0.0
H432 H 0.45679 0.54946 0.81333 0.0
H433 H 0.45895 0.57974 0.83015 0.0
H434 H 0.51307 0.57509 0.84658 0.0
H435 H 0.511 0.54506 0.82762 0.0
H436 H 0.56263 0.47369 0.50269 0.0
H437 H 0.56299 0.44314 0.4849 0.0
H438 H 0.50858 0.4426 0.48188 0.0
H439 H 0.50803 0.4728 0.50038 0.0
Pr440 Pr 1.00499 0.49777 0.70761 0.0
Pr441 Pr 0.01307 0.52449 0.60816 0.0
C442 C 0.9909 0.48533 0.7995 0.0
C443 C 0.97304 0.48706 0.81548 0.0
C444 C 0.96272 0.47268 0.81936 0.0
C445 C 0.94534 0.47436 0.82776 0.0
C446 C 0.93818 0.49043 0.83279 0.0
C447 C 0.94838 0.50478 0.82814 0.0
C448 C 0.96563 0.50313 0.8191 0.0
C449 C 1.00801 0.48026 0.60586 0.0
C450 C 0.97288 0.51581 0.63294 0.0
C451 C 0.0272 0.53652 0.51549 0.0
C452 C 0.04528 0.53636 0.5012 0.0
C453 C 0.05353 0.55145 0.48737 0.0
C454 C 0.07098 0.55166 0.47889 0.0
C455 C 0.08042 0.53682 0.48491 0.0
C456 C 0.07224 0.52179 0.49972 0.0
C457 C 0.05482 0.52154 0.50778 0.0
C458 C 0.00967 0.54207 0.71 0.0
C459 C 0.04518 0.5066 0.68346 0.0
O460 O 1.0001 0.4991 0.80037 0.0
O461 O 0.9935 0.47606 0.75531 0.0
O462 O 0.00961 0.496 0.61349 0.0
O463 O 1.00545 0.47299 0.65351 0.0
O464 O 0.98356 0.52286 0.59713 0.0
O465 O 0.97817 0.50739 0.67745 0.0
O466 O 0.01954 0.52187 0.51683 0.0
O467 O 0.02317 0.5463 0.55731 0.0
O468 O 1.00827 0.5263 0.7023 0.0
O469 O 0.01236 0.54933 0.66235 0.0
O470 O 0.03451 0.49891 0.71779 0.0
O471 O 0.03994 0.51565 0.64028 0.0
H472 H 0.96807 0.46018 0.8151 0.0
H473 H 0.93757 0.46316 0.8316 0.0
H474 H 0.94296 0.51728 0.83175 0.0
H475 H 0.97305 0.51448 0.81423 0.0
H476 H 0.04649 0.5631 0.48377 0.0
H477 H 0.07713 0.5634 0.46779 0.0
H478 H 0.07928 0.51015 0.50401 0.0
H479 H 0.04889 0.50978 0.51982 0.0
H480 H 0.12875 0.03942 0.15374 0.0
H481 H 0.10696 0.03796 0.22604 0.0
H482 H 0.13245 0.9957 0.30066 0.0
H483 H 0.15428 0.99706 0.22863 0.0
H484 H 0.08427 0.01319 0.26019 0.0
H485 H 0.12876 0.02766 0.43162 0.0
H486 H 0.13437 0.03031 0.35929 0.0
H487 H 0.13492 0.00974 0.3908 0.0
C488 C 0.12973 0.02971 0.18525 0.0
C489 C 0.14354 0.01847 0.1852 0.0
C490 C 0.1172 0.02892 0.22682 0.0
C491 C 0.1181 0.01693 0.26983 0.0
C492 C 0.1316 1.0054 0.26906 0.0
H493 H 0.06559 0.99266 0.57508 0.0
H494 H 0.08309 0.99413 0.49177 0.0
C495 C 0.14416 1.00621 0.22766 0.0
C496 C 0.10522 0.01668 0.31606 0.0
H497 H 0.10133 0.01891 0.45791 0.0
C498 C 0.08799 0.01451 0.30345 0.0
C499 C 0.10991 0.01855 0.3727 0.0
C500 C 0.12796 0.02186 0.38955 0.0
C501 C 0.07553 0.01347 0.34573 0.0
C502 C 0.0803 0.015 0.40255 0.0
C503 C 0.0975 0.01758 0.41476 0.0
C504 C 0.06809 0.01317 0.45053 0.0
C505 C 0.05748 0.01014 0.32905 0.0
C506 C 0.05333 0.02306 0.45565 0.0
C507 C 0.04292 0.0219 0.50345 0.0
C508 C 0.0473 0.01114 0.54767 0.0
C509 C 0.06184 1.00112 0.54191 0.0
C510 C 0.07195 1.002 0.49412 0.0
H511 H 0.05662 1.00479 0.28635 0.0
H512 H 0.05127 1.00131 0.35852 0.0
H513 H 0.05039 0.02219 0.32946 0.0
H514 H 0.05014 0.03214 0.42374 0.0
H515 H 0.03199 0.02998 0.50696 0.0
H516 H 0.53575 0.14403 0.18629 0.0
H517 H 0.53645 0.12209 0.25875 0.0
H518 H 0.48215 0.12375 0.26997 0.0
H519 H 0.4815 0.14548 0.19705 0.0
H520 H 0.52625 0.12276 0.36665 0.0
H521 H 0.48951 0.07351 0.25709 0.0
H522 H 0.498 0.09173 0.22173 0.0
H523 H 0.47863 0.09331 0.26068 0.0
C524 C 0.52398 0.13965 0.20424 0.0
C525 C 0.50857 0.14649 0.1861 0.0
C526 C 0.52437 0.12708 0.24567 0.0
C527 C 0.50934 0.12092 0.26972 0.0
C528 C 0.49394 0.12787 0.25156 0.0
H529 H 0.48233 0.05463 0.54715 0.0
H530 H 0.48291 0.07329 0.46528 0.0
C531 C 0.49356 0.14043 0.21017 0.0
C532 C 0.50982 0.10779 0.31517 0.0
H533 H 0.49402 0.06924 0.35421 0.0
C534 C 0.51931 0.11101 0.36358 0.0
C535 C 0.50084 0.09231 0.31169 0.0
C536 C 0.49131 0.08739 0.2598 0.0
C537 C 0.51961 0.0996 0.4088 0.0
C538 C 0.51037 0.08427 0.40576 0.0
C539 C 0.50106 0.08095 0.35708 0.0
C540 C 0.50993 0.07176 0.453 0.0
C541 C 0.52943 0.10435 0.46032 0.0
C542 C 0.5248 0.06413 0.47283 0.0
C543 C 0.52442 0.05331 0.51931 0.0
C544 C 0.50914 0.04965 0.54672 0.0
C545 C 0.49422 0.05685 0.52601 0.0
C546 C 0.49458 0.06764 0.47942 0.0
H547 H 0.53247 0.11803 0.46139 0.0
H548 H 0.52227 0.10106 0.4986 0.0
H549 H 0.54151 0.09728 0.46087 0.0
H550 H 0.5368 0.06678 0.453 0.0
H551 H 0.53618 0.04827 0.5351 0.0
H552 H 0.37683 0.53062 0.18121 0.0
H553 H 0.39891 0.53232 0.25313 0.0
H554 H 0.39467 0.47876 0.28026 0.0
H555 H 0.37258 0.47712 0.20848 0.0
H556 H 0.39745 0.52448 0.36523 0.0
H557 H 0.44565 0.48444 0.26339 0.0
H558 H 0.42784 0.49302 0.22616 0.0
H559 H 0.42534 0.47448 0.26847 0.0
C560 C 0.38064 0.51923 0.20261 0.0
C561 C 0.37291 0.50375 0.18942 0.0
C562 C 0.39329 0.52019 0.24371 0.0
C563 C 0.39876 0.50564 0.27208 0.0
C564 C 0.39102 0.49015 0.25863 0.0
H565 H 0.46293 0.48296 0.55783 0.0
H566 H 0.44443 0.48243 0.47556 0.0
C567 C 0.37826 0.48923 0.21789 0.0
C568 C 0.41198 0.50678 0.31715 0.0
H569 H 0.45024 0.49099 0.3591 0.0
C570 C 0.40905 0.51725 0.36352 0.0
C571 C 0.42726 0.49745 0.31537 0.0
C572 C 0.43185 0.48684 0.26546 0.0
C573 C 0.42054 0.51821 0.40848 0.0
C574 C 0.43563 0.5086 0.40725 0.0
C575 C 0.4387 0.49831 0.36054 0.0
C576 C 0.44808 0.50871 0.4547 0.0
C577 C 0.41616 0.52911 0.45793 0.0
C578 C 0.45682 0.5235 0.46994 0.0
C579 C 0.46767 0.52371 0.51646 0.0
C580 C 0.4701 0.50912 0.5488 0.0
C581 C 0.46166 0.49427 0.53292 0.0
C582 C 0.45096 0.49401 0.48608 0.0
H583 H 0.4027 0.53303 0.45755 0.0
H584 H 0.41874 0.52233 0.49747 0.0
H585 H 0.42409 0.54065 0.45722 0.0
H586 H 0.45501 0.53501 0.44643 0.0
H587 H 0.47364 0.53546 0.5285 0.0
H588 H 0.99229 0.36241 0.2398 0.0
H589 H 0.99168 0.38409 0.31245 0.0
H590 H 0.02741 0.41387 0.21952 0.0
H591 H 0.02842 0.39221 0.14735 0.0
H592 H 0.01838 0.39573 0.37723 0.0
H593 H 0.99162 0.44915 0.25717 0.0
H594 H 0.99028 0.42758 0.23332 0.0
H595 H 0.00965 0.43918 0.22594 0.0
C596 C 1.00012 0.3735 0.23468 0.0
C597 C 0.01039 0.37537 0.18698 0.0
C598 C 0.99964 0.38601 0.27629 0.0
C599 C 0.00926 0.40087 0.27139 0.0
C600 C 0.0195 0.40282 0.22396 0.0
H601 H 0.02344 0.48742 0.50363 0.0
H602 H 0.02435 0.46889 0.42073 0.0
C603 C 0.02005 0.39029 0.18247 0.0
C604 C 0.00939 0.41376 0.31745 0.0
H605 H 1.00113 0.45519 0.34858 0.0
C606 C 0.01455 0.40871 0.37083 0.0
C607 C 1.00466 0.43084 0.30939 0.0
C608 C 0.9986 0.43706 0.25352 0.0
C609 C 0.0152 0.4201 0.41592 0.0
C610 C 0.01001 0.43709 0.40847 0.0
C611 C 1.0051 0.44225 0.35478 0.0
C612 C 1.00875 0.44922 0.45666 0.0
C613 C 0.02181 0.41376 0.47101 0.0
C614 C 0.99923 0.44482 0.50382 0.0
C615 C 0.9989 0.45521 0.55092 0.0
C616 C 1.00768 0.47065 0.55222 0.0
C617 C 0.0165 0.47566 0.50403 0.0
C618 C 0.01705 0.46501 0.45668 0.0
H619 H 0.03048 0.4029 0.46518 0.0
H620 H 0.02864 0.42381 0.49407 0.0
H621 H 0.01106 0.40936 0.49691 0.0
H622 H 0.99217 0.43312 0.50464 0.0
H623 H 0.99175 0.45103 0.58688 0.0
H624 H 0.87269 0.97954 0.11968 0.0
H625 H 0.89518 0.9791 0.04888 0.0
H626 H 0.89739 0.03342 0.0534 0.0
H627 H 0.87544 0.03373 0.12566 0.0
H628 H 0.89679 0.99038 0.94655 0.0
H629 H 0.94653 0.02418 0.06311 0.0
H630 H 0.92759 0.01652 0.09637 0.0
H631 H 0.92749 0.03629 0.05941 0.0
C632 C 0.87804 0.99136 0.10554 0.0
C633 C 0.87224 1.00668 0.12812 0.0
C634 C 0.89095 0.99113 0.06504 0.0
C635 C 0.89841 1.00621 0.04584 0.0
C636 C 0.8924 0.02153 0.06818 0.0
H637 H 0.95821 0.03473 0.75802 0.0
H638 H 0.94027 0.03289 0.84125 0.0
C639 C 0.87965 0.02174 0.10914 0.0
C640 C 0.91181 1.00596 1.00087 0.0
H641 H 0.95073 0.02172 0.96453 0.0
C642 C 0.90865 0.99708 0.95105 0.0
C643 C 0.9275 0.01456 0.00599 0.0
C644 C 0.93258 0.02327 0.05933 0.0
C645 C 0.92027 0.99708 0.90625 0.0
C646 C 0.93561 1.00617 0.91076 0.0
C647 C 0.93898 0.01479 0.96073 0.0
C648 C 0.9478 1.00755 0.86284 0.0
C649 C 0.91588 0.98777 0.85343 0.0
C650 C 0.95847 0.99409 0.84759 0.0
C651 C 0.96913 0.9953 0.80051 0.0
C652 C 0.96915 0.00991 0.7673 0.0
C653 C 0.95867 0.0234 0.78318 0.0
C654 C 0.94832 0.02233 0.83067 0.0
H655 H 0.90297 0.9823 0.85475 0.0
H656 H 0.91681 0.99642 0.81719 0.0
H657 H 0.92507 0.97741 0.84671 0.0
H658 H 0.95829 0.98251 0.87147 0.0
H659 H 0.97672 0.98454 0.7886 0.0
H660 H 0.48984 0.86131 0.06881 0.0
H661 H 0.49071 0.88351 0.99787 0.0
H662 H 0.52189 0.91394 0.10533 0.0
H663 H 0.52162 0.89164 0.17534 0.0
H664 H 0.47989 0.91607 0.99911 0.0
H665 H 0.54907 0.91624 0.9642 0.0
H666 H 0.53857 0.89983 1.0031 0.0
H667 H 0.54316 0.9198 0.03541 0.0
C668 C 0.49712 0.87258 0.07717 0.0
C669 C 0.50571 0.87446 0.12829 0.0
C670 C 0.4975 0.88541 0.03653 0.0
C671 C 0.5066 0.90046 0.04533 0.0
C672 C 0.51506 0.90241 0.09644 0.0
H673 H 0.5195 0.98981 0.82067 0.0
H674 H 0.5191 0.97199 0.90543 0.0
C675 C 0.51469 0.88963 0.13705 0.0
C676 C 0.50697 0.91413 1.00159 0.0
H677 H 0.53344 0.93762 0.91877 0.0
C678 C 0.49164 0.92074 0.98175 0.0
C679 C 0.52225 0.92052 0.97869 0.0
C680 C 0.5392 0.91365 0.99599 0.0
C681 C 0.49115 0.93329 0.93999 0.0
C682 C 0.50639 0.93941 0.91633 0.0
C683 C 0.52174 0.93312 0.93698 0.0
C684 C 0.50649 0.95083 0.86623 0.0
C685 C 0.47424 0.93991 0.92136 0.0
C686 C 0.49973 0.94497 0.81585 0.0
C687 C 0.50009 0.95498 0.76789 0.0
C688 C 0.50716 0.97131 0.76827 0.0
C689 C 0.51384 0.97739 0.81883 0.0
C690 C 0.51367 0.96716 0.86723 0.0
H691 H 0.46433 0.93776 0.95339 0.0
H692 H 0.47492 0.95361 0.91209 0.0
H693 H 0.47035 0.93325 0.88277 0.0
H694 H 0.49436 0.93242 0.81328 0.0
H695 H 0.49479 0.94978 0.72998 0.0
H696 H 0.64939 0.54049 0.10177 0.0
H697 H 0.62729 0.54117 0.03017 0.0
H698 H 0.61443 0.48958 0.06814 0.0
H699 H 0.63579 0.48927 0.14163 0.0
H700 H 0.62279 0.5261 0.93799 0.0
H701 H 0.56822 0.50679 0.06617 0.0
H702 H 0.58829 0.51209 0.09682 0.0
H703 H 0.58456 0.49126 0.06904 0.0
C704 C 0.64176 0.52933 0.09501 0.0
C705 C 0.64435 0.51485 0.12781 0.0
C706 C 0.62905 0.52971 0.05395 0.0
C707 C 0.61867 0.51556 0.04385 0.0
C708 C 0.62159 0.50096 0.07589 0.0
H709 H 0.54898 0.48596 0.77841 0.0
H710 H 0.56765 0.48754 0.8601 0.0
C711 C 0.63402 0.50071 0.11774 0.0
C712 C 0.60547 0.51581 0.99828 0.0
H713 H 0.56445 0.5052 0.96732 0.0
C714 C 0.61 0.52171 0.94494 0.0
C715 C 0.58858 0.51014 0.00634 0.0
C716 C 0.58208 0.5049 0.06284 0.0
C717 C 0.59851 0.52165 0.89989 0.0
C718 C 0.58184 0.51556 0.9077 0.0
C719 C 0.5772 0.50979 0.96093 0.0
C720 C 0.56924 0.51477 0.86082 0.0
C721 C 0.60447 0.52768 0.84362 0.0
C722 C 0.56337 0.52953 0.83456 0.0
C723 C 0.55248 0.52862 0.78825 0.0
C724 C 0.54708 0.51295 0.76734 0.0
C725 C 0.55257 0.49823 0.79445 0.0
C726 C 0.56336 0.49913 0.84093 0.0
H727 H 0.61842 0.52902 0.84177 0.0
H728 H 0.60037 0.51883 0.81039 0.0
H729 H 0.5988 0.54018 0.83472 0.0
H730 H 0.5675 0.54178 0.84917 0.0
H731 H 0.54877 0.54015 0.76748 0.0
H732 H 0.99181 0.63081 0.17113 0.0
H733 H 0.99123 0.60877 0.09958 0.0
H734 H 0.02676 0.6371 1.00097 0.0
H735 H 0.02759 0.65912 0.07272 0.0
H736 H 0.98221 0.61022 0.98586 0.0
H737 H 0.04872 0.59007 0.0091 0.0
H738 H 0.03793 0.60254 0.06103 0.0
H739 H 0.04632 0.6124 0.99952 0.0
C740 C 0.99964 0.63235 0.13449 0.0
C741 C 0.00985 0.64684 0.12836 0.0
C742 C 0.99921 0.61971 0.09328 0.0
C743 C 0.00913 0.62102 0.04487 0.0
C744 C 0.01917 0.63555 0.03818 0.0
H745 H 0.02252 0.57315 0.72831 0.0
H746 H 0.0217 0.59034 0.81259 0.0
C747 C 0.0195 0.64828 0.07917 0.0
C748 C 0.00882 0.60738 1.0011 0.0
H749 H 0.03426 0.58021 0.92825 0.0
C750 C 0.99356 0.60352 0.9738 0.0
C751 C 0.02353 0.59837 0.98544 0.0
C752 C 0.04004 0.60088 0.0156 0.0
C753 C 0.99284 0.59162 0.92988 0.0
C754 C 1.00771 0.58319 0.91268 0.0
C755 C 0.02284 0.58665 0.94111 0.0
C756 C 1.00818 0.57202 0.86204 0.0
C757 C 0.97632 0.5886 0.90041 0.0
C758 C 1.00105 0.5557 0.86142 0.0
C759 C 1.00177 0.54558 0.81288 0.0
C760 C 0.00934 0.5517 0.7638 0.0
C761 C 0.01648 0.56798 0.76505 0.0
C762 C 0.01604 0.5779 0.81341 0.0
H763 H 0.96609 0.59688 0.91634 0.0
H764 H 0.97787 0.59082 0.85501 0.0
H765 H 0.97243 0.57526 0.90602 0.0
H766 H 0.99498 0.55078 0.89844 0.0
H767 H 0.99617 0.53315 0.81347 0.0
H768 H 0.02672 0.23028 0.31728 0.0
H769 H 0.01966 0.2072 0.38155 0.0
H770 H 0.98691 0.18544 0.25732 0.0
H771 H 0.99387 0.20833 0.19306 0.0
H772 H 0.98294 0.19219 0.41421 0.0
H773 H 0.02794 0.1514 0.29731 0.0
H774 H 0.02982 0.17411 0.29892 0.0
H775 H 0.01397 0.16429 0.25647 0.0
C776 C 0.01796 0.22058 0.30395 0.0
C777 C 0.01109 0.22081 0.24989 0.0
C778 C 0.01385 0.20757 0.34073 0.0
C779 C 1.0028 0.19476 0.32382 0.0
C780 C 0.9955 0.19529 0.27073 0.0
H781 H 0.96676 0.09833 0.4022 0.0
H782 H 0.97073 0.12754 0.37286 0.0
C783 C 0.99966 0.20818 0.23392 0.0
C784 C 1.00025 0.17974 0.35848 0.0
H785 H 0.00962 0.13788 0.36111 0.0
C786 C 0.98893 0.18033 0.40343 0.0
C787 C 1.00819 0.16444 0.34398 0.0
C788 C 0.02076 0.16342 0.29679 0.0
C789 C 0.98477 0.1656 0.43288 0.0
C790 C 0.99219 0.15021 0.41661 0.0
C791 C 1.00397 0.1498 0.37311 0.0
C792 C 0.98725 0.13401 0.44127 0.0
C793 C 0.97211 0.1663 0.47973 0.0
C794 C 0.99509 0.12823 0.48987 0.0
C795 C 0.99293 0.1115 0.50661 0.0
C796 C 0.98286 0.10044 0.47491 0.0
C797 C 0.97437 0.10661 0.42786 0.0
C798 C 0.97662 0.12326 0.41103 0.0
H799 H 0.96703 0.17921 0.48614 0.0
H800 H 0.96147 0.15757 0.47084 0.0
H801 H 0.97817 0.162 0.51892 0.0
H802 H 1.00349 0.1364 0.51318 0.0
H803 H 0.99958 0.10706 0.54312 0.0
H804 H 0.28427 1.00209 0.29968 0.0
H805 H 0.30709 0.99544 0.36456 0.0
H806 H 0.33958 0.03089 0.28015 0.0
H807 H 0.3167 0.03771 0.21519 0.0
H808 H 0.33795 0.98205 0.3273 0.0
H809 H 0.34726 0.041 0.4475 0.0
H810 H 0.3281 0.03657 0.40932 0.0
H811 H 0.34649 0.04438 0.37357 0.0
C812 C 0.29619 0.0087 0.29567 0.0
C813 C 0.29882 0.02037 0.25244 0.0
C814 C 0.30916 1.00489 0.33268 0.0
C815 C 0.32487 0.01282 0.32738 0.0
C816 C 0.3274 0.02486 0.28532 0.0
H817 H 0.42664 1.00448 0.39049 0.0
H818 H 0.39738 0.00833 0.36128 0.0
C819 C 0.31445 0.02859 0.24794 0.0
C820 C 0.33922 1.00716 0.36143 0.0
H821 H 0.37067 0.02164 0.44548 0.0
C822 C 0.34491 0.99054 0.35431 0.0
C823 C 0.34814 0.01831 0.39661 0.0
C824 C 0.3421 0.03602 0.40771 0.0
C825 C 0.36005 0.98514 0.37845 0.0
C826 C 0.36948 0.99663 0.41069 0.0
C827 C 0.36328 0.01291 0.42063 0.0
C828 C 0.38692 0.99298 0.4273 0.0
C829 C 0.36648 0.96762 0.36637 0.0
C830 C 0.39056 0.98283 0.47357 0.0
C831 C 0.40733 0.98055 0.49023 0.0
C832 C 0.42044 0.98857 0.46094 0.0
C833 C 0.41668 0.99837 0.414 0.0
C834 C 0.40005 1.00053 0.39727 0.0
H835 H 0.3575 0.96017 0.34067 0.0
H836 H 0.37873 0.96843 0.344 0.0
H837 H 0.36872 0.96083 0.40607 0.0
H838 H 0.38046 0.977 0.49719 0.0
H839 H 0.41002 0.97299 0.5267 0.0
H840 H 0.52102 0.28625 0.30875 0.0
H841 H 0.52587 0.30913 0.37529 0.0
H842 H 0.50043 0.34377 0.26533 0.0
H843 H 0.49524 0.32085 0.19907 0.0
H844 H 0.54444 0.33771 0.35182 0.0
H845 H 0.47968 0.35474 0.41695 0.0
H846 H 0.4845 0.33498 0.38294 0.0
H847 H 0.48173 0.35391 0.34257 0.0
C848 C 0.51618 0.29869 0.2993 0.0
C849 C 0.50776 0.30185 0.24881 0.0
C850 C 0.519 0.31171 0.33724 0.0
C851 C 0.5133 0.32802 0.32548 0.0
C852 C 0.50463 0.33115 0.27557 0.0
H853 H 0.52698 0.42911 0.38172 0.0
H854 H 0.52353 0.39969 0.35324 0.0
C855 C 0.50186 0.31815 0.23749 0.0
C856 C 0.5178 0.34217 0.36245 0.0
H857 H 0.50096 0.37645 0.42732 0.0
C858 C 0.53498 0.34598 0.36966 0.0
C859 C 0.50538 0.3528 0.38589 0.0
C860 C 0.4868 0.3488 0.38219 0.0
C861 C 0.54003 0.36093 0.39601 0.0
C862 C 0.52756 0.37211 0.41567 0.0
C863 C 0.51045 0.36776 0.41191 0.0
C864 C 0.53171 0.38945 0.43221 0.0
C865 C 0.55853 0.36529 0.39937 0.0
C866 C 0.53779 0.39323 0.48567 0.0
C867 C 0.53988 0.41007 0.50185 0.0
C868 C 0.53575 0.42308 0.46465 0.0
C869 C 0.5302 0.41918 0.4108 0.0
C870 C 0.52823 0.40248 0.39463 0.0
H871 H 0.56668 0.35506 0.38278 0.0
H872 H 0.56103 0.37699 0.37536 0.0
H873 H 0.56206 0.36777 0.44337 0.0
H874 H 0.54039 0.38323 0.51514 0.0
H875 H 0.54406 0.41296 0.54377 0.0
H876 H 0.22774 0.48716 0.32091 0.0
H877 H 0.20477 0.49517 0.38474 0.0
H878 H 0.18303 0.52626 0.25627 0.0
H879 H 0.20574 0.51831 0.19253 0.0
H880 H 0.19038 0.53256 0.4116 0.0
H881 H 0.14841 0.48645 0.30442 0.0
H882 H 0.17111 0.48422 0.3059 0.0
H883 H 0.16151 0.49935 0.26039 0.0
C884 C 0.21803 0.49571 0.30652 0.0
C885 C 0.21821 0.50184 0.25151 0.0
C886 C 0.20509 0.50037 0.34302 0.0
C887 C 0.19235 0.51126 0.32482 0.0
C888 C 0.19282 0.51779 0.27066 0.0
H889 H 0.0951 0.54732 0.3893 0.0
H890 H 0.12419 0.54222 0.35946 0.0
C891 C 0.2056 0.51306 0.23417 0.0
C892 C 0.17746 0.51457 0.35952 0.0
H893 H 0.13527 0.50659 0.36293 0.0
C894 C 0.17834 0.52673 0.40193 0.0
C895 C 0.16192 0.50683 0.34646 0.0
C896 C 0.16059 0.49338 0.30209 0.0
C897 C 0.16366 0.53199 0.42982 0.0
C898 C 0.14801 0.52482 0.41457 0.0
C899 C 0.14735 0.51212 0.37401 0.0
C900 C 0.13186 0.53081 0.43726 0.0
C901 C 0.16475 0.54561 0.47352 0.0
C902 C 0.12681 0.52639 0.49127 0.0
C903 C 0.11018 0.52924 0.5082 0.0
C904 C 0.09854 0.53653 0.47134 0.0
C905 C 0.10393 0.54184 0.41856 0.0
C906 C 0.12048 0.53892 0.40153 0.0
H907 H 0.17755 0.55131 0.47578 0.0
H908 H 0.15542 0.5557 0.46472 0.0
H909 H 0.1616 0.54017 0.51484 0.0
H910 H 0.13543 0.51997 0.51907 0.0
H911 H 0.10617 0.52523 0.54916 0.0
H912 H 0.98977 0.81282 0.1001 0.0
H913 H 0.99185 0.83693 0.03683 0.0
H914 H 0.03226 0.81234 0.94784 0.0
H915 H 0.03017 0.78815 0.01069 0.0
H916 H 0.02532 0.85215 0.04026 0.0
H917 H 1.00395 0.83755 0.82427 0.0
H918 H 0.99537 0.82689 0.88458 0.0
H919 H 0.01619 0.82188 0.86046 0.0
C920 C 0.99885 0.81247 0.06634 0.0
C921 C 0.01005 0.79891 0.06074 0.0
C922 C 0.99988 0.82607 0.02994 0.0
C923 C 0.01215 0.82626 0.98782 0.0
C924 C 0.02252 0.81221 0.97957 0.0
H925 H 0.05108 0.91415 0.80663 0.0
H926 H 0.04789 0.88502 0.84087 0.0
C927 C 0.02142 0.79853 0.01576 0.0
C928 C 0.01658 0.84235 0.96165 0.0
H929 H 0.0168 0.86411 0.83938 0.0
C930 C 0.02348 0.85478 0.99631 0.0
C931 C 0.01445 0.84543 0.90424 0.0
C932 C 1.00702 0.83231 0.86596 0.0
C933 C 0.02797 0.87053 0.97531 0.0
C934 C 0.02524 0.87392 0.91834 0.0
C935 C 0.01888 0.86131 0.88306 0.0
C936 C 0.02723 0.89105 0.89645 0.0
C937 C 0.03536 0.88349 0.01448 0.0
C938 C 0.01653 0.90374 0.91623 0.0
C939 C 0.01831 0.92013 0.89701 0.0
C940 C 0.03076 0.92407 0.85753 0.0
C941 C 0.04146 0.91133 0.83737 0.0
C942 C 0.03961 0.8948 0.85654 0.0
H943 H 0.04107 0.87748 0.05178 0.0
H944 H 0.04513 0.89122 0.99328 0.0
H945 H 0.02518 0.89202 0.029 0.0
H946 H 1.00683 0.90095 0.94674 0.0
H947 H 0.01005 0.92981 0.91351 0.0
H948 H 0.70969 0.98218 0.08077 0.0
H949 H 0.68564 0.98546 0.01779 0.0
H950 H 0.70671 0.03214 0.95674 0.0
H951 H 0.73091 0.02875 0.01894 0.0
H952 H 0.66685 0.01499 0.04016 0.0
H953 H 0.68484 0.01072 0.81634 0.0
H954 H 0.69697 1.00081 0.87099 0.0
H955 H 0.69845 0.02314 0.86017 0.0
C956 C 0.70936 0.99287 0.05271 0.0
C957 C 0.72185 1.00539 0.05509 0.0
C958 C 0.69577 0.99466 0.01659 0.0
C959 C 0.6945 0.00902 0.98282 0.0
C960 C 0.70766 0.02084 0.98184 0.0
H961 H 0.60601 0.05349 0.82385 0.0
H962 H 0.6349 0.04884 0.85793 0.0
C963 C 0.72137 0.01896 0.01761 0.0
C964 C 0.67809 0.01335 0.95851 0.0
H965 H 0.65732 0.0208 0.83681 0.0
C966 C 0.66473 0.01618 0.99566 0.0
C967 C 0.67561 0.01525 0.90067 0.0
C968 C 0.68967 0.01223 0.85951 0.0
C969 C 0.64876 0.02067 0.97646 0.0
C970 C 0.64609 0.02207 0.9185 0.0
C971 C 0.65954 0.01967 0.88124 0.0
C972 C 0.6291 0.0248 0.89606 0.0
C973 C 0.63491 0.02387 0.01843 0.0
C974 C 0.61659 0.01268 0.90571 0.0
C975 C 0.60025 0.01533 0.8869 0.0
C976 C 0.59618 0.03008 0.85755 0.0
C977 C 0.60883 0.0421 0.84688 0.0
C978 C 0.62527 0.03943 0.8659 0.0
H979 H 0.64012 0.02715 0.06003 0.0
H980 H 0.62648 0.03421 1.00458 0.0
H981 H 0.62721 0.01225 0.02321 0.0
H982 H 0.61944 1.00123 0.92839 0.0
H983 H 0.5907 1.00595 0.89627 0.0
H984 H 0.53014 0.72323 0.03604 0.0
H985 H 0.52693 0.69932 0.97177 0.0
H986 H 0.47367 0.6972 0.00997 0.0
H987 H 0.47681 0.7215 0.07202 0.0
H988 H 0.51747 0.66901 0.00672 0.0
H989 H 0.47244 0.69006 0.84482 0.0
H990 H 0.4832 0.70468 0.89036 0.0
H991 H 0.46463 0.69365 0.91393 0.0
C992 C 0.51772 0.71789 0.02906 0.0
C993 C 0.50366 0.72409 0.0579 0.0
C994 C 0.51588 0.70432 0.99265 0.0
C995 C 0.50001 0.69671 0.98544 0.0
C996 C 0.4859 0.70324 0.01345 0.0
H997 H 0.46551 0.59845 0.90635 0.0
H998 H 0.46909 0.62788 0.93401 0.0
C999 C 0.4877 0.71698 0.04908 0.0
C1000 C 0.49861 0.68066 0.9548 0.0
H1001 H 0.47572 0.66 0.85556 0.0
C1002 C 0.5086 0.66713 0.97286 0.0
C1003 C 0.48687 0.67825 0.91115 0.0
C1004 C 0.4763 0.69249 0.88859 0.0
C1005 C 0.50679 0.65109 0.94955 0.0
C1006 C 0.49475 0.6486 0.90708 0.0
C1007 C 0.48497 0.66211 0.88814 0.0
C1008 C 0.49157 0.63172 0.8845 0.0
C1009 C 0.51726 0.6367 0.97178 0.0
C1010 C 0.50289 0.62446 0.84667 0.0
C1011 C 0.50085 0.60769 0.83047 0.0
C1012 C 0.48747 0.598 0.85215 0.0
C1013 C 0.47581 0.60562 0.88844 0.0
C1014 C 0.47784 0.62238 0.90442 0.0
H1015 H 0.52523 0.64055 0.00767 0.0
H1016 H 0.5089 0.62619 0.98508 0.0
H1017 H 0.52561 0.63184 0.93827 0.0
H1018 H 0.51353 0.63163 0.83098 0.0
H1019 H 0.50989 0.60222 0.80185 0.0
H1020 H 0.78361 0.50043 1.00129 0.0
H1021 H 0.80701 0.49807 0.93517 0.0
H1022 H 0.83824 0.52825 0.04343 0.0
H1023 H 0.81485 0.5308 0.10982 0.0
H1024 H 0.83614 0.52708 0.89092 0.0
H1025 H 0.85251 0.47341 0.03096 0.0
H1026 H 0.83097 0.48017 0.02104 0.0
H1027 H 0.84514 0.49276 0.06181 0.0
C1028 C 0.79532 0.50694 0.01029 0.0
C1029 C 0.7976 0.51555 0.06102 0.0
C1030 C 0.80857 0.50568 0.97234 0.0
C1031 C 0.82417 0.51304 0.98473 0.0
C1032 C 0.82615 0.52261 0.03339 0.0
H1033 H 0.92686 0.50335 0.92872 0.0
H1034 H 0.89758 0.50778 0.95696 0.0
C1035 C 0.81294 0.52382 0.0715 0.0
C1036 C 0.83919 0.5079 0.95349 0.0
H1037 H 0.87241 0.48094 0.96258 0.0
C1038 C 0.84401 0.51685 0.90576 0.0
C1039 C 0.84918 0.49449 0.97334 0.0
C1040 C 0.84425 0.48454 0.02446 0.0
C1041 C 0.85928 0.51315 0.8787 0.0
C1042 C 0.8696 0.50017 0.90009 0.0
C1043 C 0.86431 0.49079 0.9463 0.0
C1044 C 0.88699 0.49768 0.88078 0.0
C1045 C 0.86476 0.52361 0.82941 0.0
C1046 C 0.89054 0.49037 0.82885 0.0
C1047 C 0.90731 0.48768 0.81289 0.0
C1048 C 0.92047 0.49244 0.84878 0.0
C1049 C 0.91681 0.4997 0.90057 0.0
C1050 C 0.90018 0.50223 0.91657 0.0
H1051 H 0.85603 0.53427 0.82131 0.0
H1052 H 0.87765 0.5287 0.83638 0.0
H1053 H 0.86524 0.51551 0.79169 0.0
H1054 H 0.88041 0.48666 0.80115 0.0
H1055 H 0.91003 0.48213 0.77262 0.0
H1056 H 0.03393 0.19724 0.86716 0.0
H1057 H 0.03335 0.16839 0.83205 0.0
H1058 H 0.99733 0.18276 0.7065 0.0
H1059 H 0.99766 0.2118 0.74193 0.0
H1060 H 1.00464 0.1482 0.83138 0.0
H1061 H 0.03046 0.15339 0.6165 0.0
H1062 H 0.03357 0.16972 0.66809 0.0
H1063 H 0.0135 0.16745 0.6342 0.0
C1064 C 0.02582 0.19436 0.83215 0.0
C1065 C 0.01562 0.20697 0.80834 0.0
C1066 C 0.02562 0.1778 0.8117 0.0
C1067 C 0.01534 0.17324 0.76642 0.0
C1068 C 1.00558 0.18588 0.74094 0.0
H1069 H 0.99588 0.07234 0.62531 0.0
H1070 H 0.99626 0.10264 0.64391 0.0
C1071 C 1.00576 0.20255 0.76149 0.0
C1072 C 0.01387 0.155 0.75015 0.0
H1073 H 0.02129 0.12644 0.64559 0.0
C1074 C 1.00834 0.14348 0.79072 0.0
C1075 C 0.01834 0.14875 0.69675 0.0
C1076 C 0.02441 0.1604 0.6513 0.0
C1077 C 1.00735 0.12604 0.77999 0.0
C1078 C 0.01252 0.11964 0.72754 0.0
C1079 C 0.01757 0.1312 0.68615 0.0
C1080 C 0.01278 0.10105 0.71529 0.0
C1081 C 1.00038 0.11469 0.82489 0.0
C1082 C 0.02206 0.08982 0.74879 0.0
C1083 C 0.0218 0.07235 0.73853 0.0
C1084 C 0.01236 0.0656 0.69405 0.0
C1085 C 1.00334 0.07693 0.65991 0.0
C1086 C 1.00358 0.09437 0.67034 0.0
H1087 H 0.99231 0.12178 0.85465 0.0
H1088 H 0.99281 0.10424 0.8068 0.0
H1089 H 0.011 0.10917 0.84878 0.0
H1090 H 0.02956 0.09457 0.78309 0.0
H1091 H 0.02896 0.06415 0.76565 0.0
H1092 H 0.31817 0.04791 0.82923 0.0
H1093 H 0.34707 0.04766 0.79311 0.0
H1094 H 0.34026 0.99642 0.73727 0.0
H1095 H 0.31119 0.99674 0.77258 0.0
H1096 H 0.3714 0.02817 0.83129 0.0
H1097 H 0.36561 0.0146 0.60552 0.0
H1098 H 0.34776 0.02099 0.64736 0.0
H1099 H 0.35508 0.99953 0.64907 0.0
C1100 C 0.32276 0.03663 0.8088 0.0
C1101 C 0.31233 0.02231 0.80439 0.0
C1102 C 0.3393 0.03652 0.78776 0.0
C1103 C 0.346 0.02208 0.76179 0.0
C1104 C 0.33543 1.0079 0.75574 0.0
H1105 H 0.44819 0.99334 0.65682 0.0
H1106 H 0.41788 0.99482 0.67556 0.0
C1107 C 0.31878 1.00805 0.7764 0.0
C1108 C 0.36448 0.02132 0.74768 0.0
H1109 H 0.39316 0.01284 0.64439 0.0
C1110 C 0.37611 0.02497 0.79017 0.0
C1111 C 0.3708 0.0168 0.69438 0.0
C1112 C 0.35918 0.01289 0.64631 0.0
C1113 C 0.39367 0.02407 0.78161 0.0
C1114 C 0.4001 0.01994 0.72805 0.0
C1115 C 0.38845 0.01615 0.6854 0.0
C1116 C 0.41876 0.01927 0.71577 0.0
C1117 C 0.40501 0.02698 0.83119 0.0
C1118 C 0.42965 0.03257 0.73102 0.0
C1119 C 0.44715 0.03152 0.72179 0.0
C1120 C 0.45421 0.0174 0.69501 0.0
C1121 C 0.44325 1.0044 0.67772 0.0
C1122 C 0.42582 1.00526 0.68829 0.0
H1123 H 0.39839 0.02413 0.87093 0.0
H1124 H 0.41656 0.01909 0.82903 0.0
H1125 H 0.40876 0.04046 0.83255 0.0
H1126 H 0.42464 0.04388 0.75005 0.0
H1127 H 0.45511 0.04191 0.7348 0.0
H1128 H 0.52858 0.31208 0.76109 0.0
H1129 H 0.52852 0.34119 0.72584 0.0
H1130 H 0.4795 0.34908 0.79908 0.0
H1131 H 0.4796 0.32023 0.83502 0.0
H1132 H 0.50623 0.36197 0.65841 0.0
H1133 H 0.509 0.38445 0.87699 0.0
H1134 H 0.51331 0.36288 0.85782 0.0
H1135 H 0.49189 0.37019 0.86306 0.0
C1136 C 0.51771 0.31996 0.76926 0.0
C1137 C 0.50428 0.31386 0.80236 0.0
C1138 C 0.51768 0.33664 0.74893 0.0
C1139 C 0.50419 0.34761 0.76092 0.0
C1140 C 0.49029 0.34113 0.7905 0.0
H1141 H 0.48398 0.45571 0.74742 0.0
H1142 H 0.48361 0.42512 0.76124 0.0
C1143 C 0.49038 0.32458 0.81125 0.0
C1144 C 0.50507 0.36609 0.74694 0.0
H1145 H 0.50452 0.40511 0.80801 0.0
C1146 C 0.50591 0.37142 0.69107 0.0
C1147 C 0.50479 0.37854 0.7893 0.0
C1148 C 0.50486 0.37379 0.85019 0.0
C1149 C 0.50582 0.38875 0.67661 0.0
C1150 C 0.50524 0.40124 0.71926 0.0
C1151 C 0.50474 0.39577 0.775 0.0
C1152 C 0.50508 0.41998 0.70787 0.0
C1153 C 0.50581 0.3934 0.61564 0.0
C1154 C 0.51729 0.42765 0.67353 0.0
C1155 C 0.51733 0.4452 0.66485 0.0
C1156 C 0.50543 0.45574 0.69133 0.0
C1157 C 0.49337 0.44811 0.72633 0.0
C1158 C 0.49316 0.43052 0.73425 0.0
H1159 H 0.50094 0.38293 0.58935 0.0
H1160 H 0.49806 0.4048 0.60778 0.0
H1161 H 0.51895 0.39602 0.60215 0.0
H1162 H 0.52706 0.42016 0.6541 0.0
H1163 H 0.52695 0.45052 0.63801 0.0
H1164 H 0.2088 0.52213 0.75556 0.0
H1165 H 0.17967 0.52279 0.72031 0.0
H1166 H 0.16838 0.47741 0.81141 0.0
H1167 H 0.19735 0.47653 0.84629 0.0
H1168 H 0.1571 0.49532 0.66312 0.0
H1169 H 0.13588 0.51568 0.87348 0.0
H1170 H 0.15733 0.5185 0.8496 0.0
H1171 H 0.15009 0.49803 0.87066 0.0
C1172 C 0.20021 0.51213 0.76752 0.0
C1173 C 0.20546 0.49947 0.80506 0.0
C1174 C 0.18351 0.51254 0.74724 0.0
C1175 C 0.17167 0.50029 0.76387 0.0
C1176 C 0.17715 0.48716 0.79864 0.0
H1177 H 0.06253 0.48537 0.75465 0.0
H1178 H 0.09313 0.48363 0.76953 0.0
C1179 C 0.19375 0.48675 0.81895 0.0
C1180 C 0.15332 0.50182 0.74921 0.0
H1181 H 0.11463 0.50914 0.80818 0.0
C1182 C 0.14781 0.49855 0.69457 0.0
C1183 C 0.14113 0.50581 0.79031 0.0
C1184 C 0.1463 0.50984 0.84931 0.0
C1185 C 0.13045 0.49875 0.68053 0.0
C1186 C 0.11822 0.50267 0.72195 0.0
C1187 C 0.12385 0.50611 0.7763 0.0
C1188 C 0.09955 0.50319 0.71039 0.0
C1189 C 0.12524 0.49362 0.62252 0.0
C1190 C 0.09272 0.51498 0.67298 0.0
C1191 C 0.07521 0.5159 0.664 0.0
C1192 C 0.06389 0.50531 0.69309 0.0
C1193 C 0.07073 0.49371 0.73131 0.0
C1194 C 0.0883 0.49267 0.73978 0.0
H1195 H 0.13625 0.49095 0.59522 0.0
H1196 H 0.11717 0.48218 0.62474 0.0
H1197 H 0.1177 0.50369 0.60284 0.0
H1198 H 0.10091 0.52374 0.6514 0.0
H1199 H 0.07053 0.52518 0.63478 0.0
H1200 H 0.98598 0.82117 0.46229 0.0
H1201 H 0.98442 0.85019 0.49747 0.0
H1202 H 0.02719 0.84078 0.6038 0.0
H1203 H 0.02868 0.81163 0.5688 0.0
H1204 H 0.98067 0.86505 0.60291 0.0
H1205 H 0.04312 0.88115 0.51187 0.0
H1206 H 0.03236 0.86168 0.49589 0.0
H1207 H 0.04331 0.86407 0.56097 0.0
C1208 C 0.99505 0.82529 0.49321 0.0
C1209 C 1.00764 0.81416 0.5119 0.0
C1210 C 0.9941 0.84189 0.51359 0.0
C1211 C 1.0059 0.84796 0.55249 0.0
C1212 C 0.01811 0.83663 0.573 0.0
H1213 H 0.02439 0.95048 0.67823 0.0
H1214 H 0.02426 0.92006 0.66261 0.0
C1215 C 0.01891 0.81991 0.55317 0.0
C1216 C 1.00581 0.86628 0.56905 0.0
H1217 H 0.02909 0.9027 0.56123 0.0
C1218 C 0.99127 0.87326 0.59375 0.0
C1219 C 0.01963 0.87714 0.55759 0.0
C1220 C 0.03545 0.87073 0.52972 0.0
C1221 C 0.9902 0.89062 0.60702 0.0
C1222 C 1.00387 0.90151 0.59423 0.0
C1223 C 0.01852 0.89448 0.57068 0.0
C1224 C 1.00332 0.92021 0.60497 0.0
C1225 C 0.97456 0.89713 0.63562 0.0
C1226 C 0.99165 0.93073 0.57755 0.0
C1227 C 0.9918 0.94835 0.5859 0.0
C1228 C 1.00354 0.9559 0.62234 0.0
C1229 C 0.01508 0.94527 0.65001 0.0
C1230 C 0.01506 0.92776 0.64109 0.0
H1231 H 0.96704 0.88676 0.65446 0.0
H1232 H 0.97791 0.90632 0.66877 0.0
H1233 H 0.96651 0.90368 0.60469 0.0
H1234 H 0.98259 0.92534 0.54883 0.0
H1235 H 0.98271 0.95603 0.56387 0.0
H1236 H 0.70537 0.97915 0.53402 0.0
H1237 H 0.67583 0.97848 0.56582 0.0
H1238 H 0.67287 0.03242 0.54605 0.0
H1239 H 0.70199 0.03294 0.51161 0.0
H1240 H 0.65632 0.99198 0.64773 0.0
H1241 H 0.63528 0.01846 0.44604 0.0
H1242 H 0.65663 0.01148 0.45731 0.0
H1243 H 0.64996 0.03195 0.48129 0.0
C1244 C 0.69839 0.99086 0.53662 0.0
C1245 C 0.7059 1.00605 0.5189 0.0
C1246 C 0.68148 0.99048 0.55498 0.0
C1247 C 0.67173 1.00533 0.55666 0.0
C1248 C 0.67973 0.02066 0.54305 0.0
H1249 H 0.56835 0.03147 0.64701 0.0
H1250 H 0.59891 0.03033 0.63106 0.0
C1251 C 0.69646 0.02099 0.52358 0.0
C1252 C 0.65308 1.00475 0.56925 0.0
H1253 H 0.61454 0.0165 0.51714 0.0
C1254 C 0.64722 0.99726 0.61892 0.0
C1255 C 0.64096 0.01147 0.53175 0.0
C1256 C 0.64598 0.01863 0.47589 0.0
C1257 C 0.6298 0.99674 0.63237 0.0
C1258 C 0.61785 1.0038 0.5953 0.0
C1259 C 0.62367 0.01113 0.54569 0.0
C1260 C 0.59927 1.00404 0.60739 0.0
C1261 C 0.6242 0.98893 0.68656 0.0
C1262 C 0.58912 0.98969 0.59868 0.0
C1263 C 0.57148 0.99042 0.6065 0.0
C1264 C 0.56366 1.00543 0.62426 0.0
C1265 C 0.57393 0.01967 0.63364 0.0
C1266 C 0.59144 0.01904 0.62464 0.0
H1267 H 0.63503 0.98526 0.71323 0.0
H1268 H 0.6161 0.99791 0.70996 0.0
H1269 H 0.61648 0.97754 0.67775 0.0
H1270 H 0.59481 0.97798 0.58509 0.0
H1271 H 0.564 0.97918 0.5994 0.0
H1272 H 0.50008 0.71326 0.59754 0.0
H1273 H 0.50275 0.68424 0.63196 0.0
H1274 H 0.51483 0.66734 0.46602 0.0
H1275 H 0.51283 0.69616 0.43185 0.0
H1276 H 0.48562 0.65528 0.60629 0.0
H1277 H 0.55268 0.64605 0.55287 0.0
H1278 H 0.54295 0.6666 0.55421 0.0
H1279 H 0.54091 0.65327 0.49376 0.0
C1280 C 0.50353 0.70343 0.56837 0.0
C1281 C 0.50622 0.70728 0.51156 0.0
C1282 C 0.50495 0.68674 0.58819 0.0
C1283 C 0.50929 0.67345 0.55195 0.0
C1284 C 0.51184 0.67727 0.49536 0.0
H1285 H 0.51943 0.56478 0.53874 0.0
H1286 H 0.51888 0.59538 0.52444 0.0
C1287 C 0.51042 0.69386 0.47558 0.0
C1288 C 0.51072 0.65551 0.5721 0.0
H1289 H 0.53645 0.62084 0.56689 0.0
C1290 C 0.49681 0.6478 0.5982 0.0
C1291 C 0.52538 0.64566 0.5627 0.0
C1292 C 0.54139 0.65336 0.53996 0.0
C1293 C 0.49675 0.63043 0.61173 0.0
C1294 C 0.51111 0.62034 0.59933 0.0
C1295 C 0.52528 0.62829 0.57548 0.0
C1296 C 0.51162 0.60154 0.60904 0.0
C1297 C 0.48099 0.62298 0.63716 0.0
C1298 C 0.50806 0.59451 0.66161 0.0
C1299 C 0.50816 0.57695 0.66969 0.0
C1300 C 0.5122 0.56581 0.62577 0.0
C1301 C 0.51628 0.57286 0.57363 0.0
C1302 C 0.51596 0.59044 0.5654 0.0
H1303 H 0.46979 0.6311 0.62999 0.0
H1304 H 0.47832 0.61026 0.61998 0.0
H1305 H 0.48274 0.62184 0.68287 0.0
H1306 H 0.50525 0.60261 0.6967 0.0
H1307 H 0.50514 0.5721 0.71068 0.0
H1308 H 0.8228 0.53157 0.43938 0.0
H1309 H 0.85161 0.53235 0.47532 0.0
H1310 H 0.83597 0.50381 0.61915 0.0
H1311 H 0.8071 0.50252 0.58237 0.0
H1312 H 0.86614 0.54479 0.56828 0.0
H1313 H 0.87475 0.4753 0.56704 0.0
H1314 H 0.85658 0.4852 0.53597 0.0
H1315 H 0.85785 0.48274 0.61034 0.0
C1316 C 0.82546 0.52525 0.47834 0.0
C1317 C 0.81253 0.51666 0.50707 0.0
C1318 C 0.842 0.52584 0.49924 0.0
C1319 C 0.84628 0.51779 0.54944 0.0
C1320 C 0.83327 0.50976 0.57956 0.0
H1321 H 0.9473 0.50172 0.69509 0.0
H1322 H 0.91688 0.50304 0.67956 0.0
C1323 C 0.81664 0.50918 0.55867 0.0
C1324 C 0.86438 0.5177 0.56887 0.0
H1325 H 0.8978 0.49166 0.5972 0.0
C1326 C 0.87302 0.53314 0.57462 0.0
C1327 C 0.87351 0.50258 0.57815 0.0
C1328 C 0.86528 0.4855 0.57219 0.0
C1329 C 0.89035 0.53387 0.58839 0.0
C1330 C 0.89965 0.51873 0.59522 0.0
C1331 C 0.89088 0.50331 0.59138 0.0
C1332 C 0.91843 0.51854 0.60557 0.0
C1333 C 0.89843 0.55093 0.59644 0.0
C1334 C 0.92979 0.52668 0.56915 0.0
C1335 C 0.94736 0.526 0.57804 0.0
C1336 C 0.95414 0.51703 0.62347 0.0
C1337 C 0.94272 0.50885 0.65974 0.0
C1338 C 0.9252 0.50955 0.65083 0.0
H1339 H 0.88892 0.56061 0.60807 0.0
H1340 H 0.90829 0.55056 0.62924 0.0
H1341 H 0.90439 0.55495 0.55677 0.0
H1342 H 0.92509 0.53337 0.53307 0.0
H1343 H 0.95563 0.53238 0.54894 0.0
loop_
_geom_bond_atom_site_label_1
_geom_bond_atom_site_label_2
_geom_bond_distance
_geom_bond_site_symmetry_2
_ccdc_geom_bond_type
C0 C1 1.264 . S
C0 C5 1.479 . S
C0 C10 1.465 . S
C1 C0 1.264 . S
C1 C3 1.339 . S
C1 H28 0.931 . S
C2 C3 1.395 . S
C2 C4 1.320 . S
C3 C1 1.339 . S
C3 C2 1.395 . S
C3 H29 0.929 . S
C4 C2 1.320 . S
C4 C5 1.405 . S
C4 H30 0.930 . S
C5 C0 1.479 . S
C5 C4 1.405 . S
C5 H31 0.931 . S
U6 O7 2.454 . S
U6 O8 2.458 . S
U6 C9 2.984 . S
U6 C10 2.847 . S
U6 C23 2.882 . S
U6 O24 2.441 . S
U6 O25 2.420 . S
U6 O26 2.455 . S
U6 O27 2.449 . S
O7 U6 2.454 . S
O7 C9 1.353 . S
O8 U6 2.458 . S
O8 C9 1.286 . S
C9 U6 2.984 . S
C9 O7 1.353 . S
C9 O8 1.286 . S
C9 C11 1.363 . S
C10 C0 1.465 . S
C10 U6 2.847 . S
C10 O24 1.249 . S
C10 O25 1.202 . S
C11 C9 1.363 . S
C11 C13 1.408 . S
C11 C16 1.342 . S
C12 C13 1.310 . S
C12 C15 1.461 . S
C12 H32 0.932 . S
C13 C11 1.408 . S
C13 C12 1.310 . S
C13 H33 0.930 . S
C14 C15 1.474 . S
C14 C16 1.285 . S
C14 H34 0.929 . S
C15 C12 1.461 . S
C15 C14 1.474 . S
C16 C11 1.342 . S
C16 C14 1.285 . S
C16 H35 0.930 . S
C17 C20 1.424 . S
C17 C22 1.245 . S
C17 C23 1.428 . S
C18 C21 1.260 . S
C18 C22 1.477 . S
C18 H36 0.932 . S
C19 C20 1.384 . S
C19 C21 1.479 . S
C19 H37 0.929 . S
C20 C17 1.424 . S
C20 C19 1.384 . S
C20 H38 0.928 . S
C21 C18 1.260 . S
C21 C19 1.479 . S
C22 C17 1.245 . S
C22 C18 1.477 . S
C22 H39 0.932 . S
C23 U6 2.882 . S
C23 C17 1.428 . S
C23 O26 1.301 . S
C23 O27 1.282 . S
O24 U6 2.441 . S
O24 C10 1.249 . S
O25 U6 2.420 . S
O25 C10 1.202 . S
O26 U6 2.455 . S
O26 C23 1.301 . S
O27 U6 2.449 . S
O27 C23 1.282 . S
H28 C1 0.931 . S
H29 C3 0.929 . S
H30 C4 0.930 . S
H31 C5 0.931 . S
H32 C12 0.932 . S
H33 C13 0.930 . S
H34 C14 0.929 . S
H35 C16 0.930 . S
H36 C18 0.932 . S
H37 C19 0.929 . S
H38 C20 0.928 . S
H39 C22 0.932 . S
C40 C41 1.264 . S
C40 C45 1.479 . S
C40 C50 1.465 . S
C41 C40 1.264 . S
C41 C43 1.339 . S
C41 H68 0.931 . S
C42 C43 1.395 . S
C42 C44 1.320 . S
C43 C41 1.339 . S
C43 C42 1.395 . S
C43 H69 0.929 . S
C44 C42 1.320 . S
C44 C45 1.405 . S
C44 H70 0.921 1_455 S
C45 C40 1.479 . S
C45 C44 1.405 . S
C45 H71 0.931 . S
U46 O47 2.454 . S
U46 O48 2.458 . S
U46 C49 2.984 . S
U46 C50 2.847 . S
U46 C63 2.882 . S
U46 O64 2.441 . S
U46 O65 2.420 . S
U46 O66 2.455 . S
U46 O67 2.449 . S
O47 U46 2.454 . S
O47 C49 1.353 . S
O48 U46 2.458 . S
O48 C49 1.286 . S
C49 U46 2.984 . S
C49 O47 1.353 . S
C49 O48 1.286 . S
C49 C51 1.363 . S
C50 C40 1.465 . S
C50 U46 2.847 . S
C50 O64 1.249 . S
C50 O65 1.202 . S
C51 C49 1.363 . S
C51 C53 1.408 . S
C51 C56 1.353 . S
C52 C53 1.310 . S
C52 C55 1.461 . S
C52 H72 0.936 . S
C53 C51 1.408 . S
C53 C52 1.310 . S
C53 H73 0.930 . S
C54 C55 1.474 1_655 S
C54 C56 1.282 1_655 S
C54 H74 0.930 . S
C55 C52 1.461 . S
C55 C54 1.474 1_455 S
C56 C51 1.353 . S
C56 C54 1.282 1_455 S
C56 H75 0.929 . S
C57 C60 1.424 . S
C57 C62 1.245 . S
C57 C63 1.428 . S
C58 C61 1.260 . S
C58 C62 1.477 . S
C58 H76 0.932 . S
C59 C60 1.384 . S
C59 C61 1.479 . S
C59 H77 0.929 . S
C60 C57 1.424 . S
C60 C59 1.384 . S
C60 H78 0.928 . S
C61 C58 1.260 . S
C61 C59 1.479 . S
C62 C57 1.245 . S
C62 C58 1.477 . S
C62 H79 0.932 . S
C63 U46 2.882 . S
C63 C57 1.428 . S
C63 O66 1.301 . S
C63 O67 1.282 . S
O64 U46 2.441 . S
O64 C50 1.249 . S
O65 U46 2.420 . S
O65 C50 1.202 . S
O66 U46 2.455 . S
O66 C63 1.301 . S
O67 U46 2.449 . S
O67 C63 1.282 . S
H68 C41 0.931 . S
H69 C43 0.929 . S
H70 C44 0.921 1_655 S
H71 C45 0.931 . S
H72 C52 0.936 . S
H73 C53 0.930 . S
H74 C54 0.930 . S
H75 C56 0.929 . S
H76 C58 0.932 . S
H77 C59 0.929 . S
H78 C60 0.928 . S
H79 C62 0.932 . S
C80 C81 1.264 . S
C80 C85 1.479 . S
C80 C90 1.465 . S
C81 C80 1.264 . S
C81 C83 1.339 . S
C81 H108 0.931 . S
C82 C83 1.395 1_565 S
C82 C84 1.320 . S
C83 C81 1.339 . S
C83 C82 1.395 1_545 S
C83 H109 0.929 . S
C84 C82 1.320 . S
C84 C85 1.405 1_565 S
C84 H110 0.930 . S
C85 C80 1.479 . S
C85 C84 1.405 1_545 S
C85 H111 0.931 . S
U86 O87 2.462 . S
U86 O88 2.458 . S
U86 C89 2.990 . S
U86 C90 2.847 . S
U86 C103 2.882 . S
U86 O104 2.441 . S
U86 O105 2.420 . S
U86 O106 2.455 . S
U86 O107 2.449 . S
O87 U86 2.462 . S
O87 C89 1.353 . S
O88 U86 2.458 . S
O88 C89 1.288 . S
C89 U86 2.990 . S
C89 O87 1.353 . S
C89 O88 1.288 . S
C89 C91 1.359 1_545 S
C90 C80 1.465 . S
C90 U86 2.847 . S
C90 O104 1.249 . S
C90 O105 1.202 . S
C91 C89 1.359 1_565 S
C91 C93 1.408 . S
C91 C96 1.342 . S
C92 C93 1.310 . S
C92 C95 1.461 . S
C92 H112 0.932 . S
C93 C91 1.408 . S
C93 C92 1.310 . S
C93 H113 0.934 . S
C94 C95 1.474 . S
C94 C96 1.285 . S
C94 H114 0.929 . S
C95 C92 1.461 . S
C95 C94 1.474 . S
C96 C91 1.342 . S
C96 C94 1.285 . S
C96 H115 0.930 . S
C97 C100 1.424 . S
C97 C102 1.245 . S
C97 C103 1.428 . S
C98 C101 1.249 1_545 S
C98 C102 1.486 . S
C98 H116 0.941 . S
C99 C100 1.386 . S
C99 C101 1.476 1_545 S
C99 H117 0.928 . S
C100 C97 1.424 . S
C100 C99 1.386 . S
C100 H118 0.933 . S
C101 C98 1.249 1_565 S
C101 C99 1.476 1_565 S
C102 C97 1.245 . S
C102 C98 1.486 . S
C102 H119 0.932 . S
C103 U86 2.882 . S
C103 C97 1.428 . S
C103 O106 1.301 . S
C103 O107 1.282 . S
O104 U86 2.441 . S
O104 C90 1.249 . S
O105 U86 2.420 . S
O105 C90 1.202 . S
O106 U86 2.455 . S
O106 C103 1.301 . S
O107 U86 2.449 . S
O107 C103 1.282 . S
H108 C81 0.931 . S
H109 C83 0.929 . S
H110 C84 0.930 . S
H111 C85 0.931 . S
H112 C92 0.932 . S
H113 C93 0.934 . S
H114 C94 0.929 . S
H115 C96 0.930 . S
H116 C98 0.941 . S
H117 C99 0.928 . S
H118 C100 0.933 . S
H119 C102 0.932 . S
C120 C121 1.264 . S
C120 C125 1.479 . S
C120 C130 1.465 . S
C121 C120 1.264 . S
C121 C123 1.339 . S
C121 H148 0.931 . S
C122 C123 1.395 . S
C122 C124 1.320 . S
C123 C121 1.339 . S
C123 C122 1.395 . S
C123 H149 0.929 . S
C124 C122 1.320 . S
C124 C125 1.405 . S
C124 H150 0.930 . S
C125 C120 1.479 . S
C125 C124 1.405 . S
C125 H151 0.931 . S
U126 O127 2.454 . S
U126 O128 2.458 . S
U126 C129 2.984 . S
U126 C130 2.847 . S
U126 C143 2.882 . S
U126 O144 2.441 . S
U126 O145 2.420 . S
U126 O146 2.455 . S
U126 O147 2.449 . S
O127 U126 2.454 . S
O127 C129 1.353 . S
O128 U126 2.458 . S
O128 C129 1.286 . S
C129 U126 2.984 . S
C129 O127 1.353 . S
C129 O128 1.286 . S
C129 C131 1.363 . S
C130 C120 1.465 . S
C130 U126 2.847 . S
C130 O144 1.249 . S
C130 O145 1.202 . S
C131 C129 1.363 . S
C131 C133 1.408 . S
C131 C136 1.342 . S
C132 C133 1.310 . S
C132 C135 1.461 . S
C132 H152 0.932 . S
C133 C131 1.408 . S
C133 C132 1.310 . S
C133 H153 0.930 . S
C134 C135 1.474 . S
C134 C136 1.285 . S
C134 H154 0.929 . S
C135 C132 1.461 . S
C135 C134 1.474 . S
C136 C131 1.342 . S
C136 C134 1.285 . S
C136 H155 0.930 . S
C137 C140 1.424 . S
C137 C142 1.245 . S
C137 C143 1.428 . S
C138 C141 1.260 . S
C138 C142 1.477 . S
C138 H156 0.932 . S
C139 C140 1.384 . S
C139 C141 1.479 . S
C139 H157 0.929 . S
C140 C137 1.424 . S
C140 C139 1.384 . S
C140 H158 0.928 . S
C141 C138 1.260 . S
C141 C139 1.479 . S
C142 C137 1.245 . S
C142 C138 1.477 . S
C142 H159 0.932 . S
C143 U126 2.882 . S
C143 C137 1.428 . S
C143 O146 1.301 . S
C143 O147 1.282 . S
O144 U126 2.441 . S
O144 C130 1.249 . S
O145 U126 2.420 . S
O145 C130 1.202 . S
O146 U126 2.455 . S
O146 C143 1.301 . S
O147 U126 2.449 . S
O147 C143 1.282 . S
H148 C121 0.931 . S
H149 C123 0.929 . S
H150 C124 0.930 . S
H151 C125 0.931 . S
H152 C132 0.932 . S
H153 C133 0.930 . S
H154 C134 0.929 . S
H155 C136 0.930 . S
H156 C138 0.932 . S
H157 C139 0.929 . S
H158 C140 0.928 . S
H159 C142 0.932 . S
C160 C161 1.264 . S
C160 C165 1.479 . S
C160 C170 1.465 . S
C161 C160 1.264 . S
C161 C163 1.339 . S
C161 H188 0.931 . S
C162 C163 1.395 . S
C162 C164 1.320 . S
C163 C161 1.339 . S
C163 C162 1.395 . S
C163 H189 0.929 . S
C164 C162 1.320 . S
C164 C165 1.405 . S
C164 H190 0.930 . S
C165 C160 1.479 . S
C165 C164 1.405 . S
C165 H191 0.931 . S
U166 O167 2.454 . S
U166 O168 2.458 . S
U166 C169 2.984 . S
U166 C170 2.847 1_554 S
U166 C183 2.882 . S
U166 O184 2.441 1_554 S
U166 O185 2.420 1_554 S
U166 O186 2.455 . S
U166 O187 2.449 . S
O167 U166 2.454 . S
O167 C169 1.353 . S
O168 U166 2.458 . S
O168 C169 1.286 . S
C169 U166 2.984 . S
C169 O167 1.353 . S
C169 O168 1.286 . S
C169 C171 1.363 . S
C170 C160 1.465 . S
C170 U166 2.847 1_556 S
C170 O184 1.249 . S
C170 O185 1.202 . S
C171 C169 1.363 . S
C171 C173 1.408 . S
C171 C176 1.342 . S
C172 C173 1.310 . S
C172 C175 1.461 . S
C172 H192 0.932 . S
C173 C171 1.408 . S
C173 C172 1.310 . S
C173 H193 0.930 1_554 S
C174 C175 1.474 . S
C174 C176 1.285 . S
C174 H194 0.929 . S
C175 C172 1.461 . S
C175 C174 1.474 . S
C176 C171 1.342 . S
C176 C174 1.285 . S
C176 H195 0.930 . S
C177 C180 1.424 . S
C177 C182 1.245 . S
C177 C183 1.428 . S
C178 C181 1.260 . S
C178 C182 1.477 . S
C178 H196 0.932 . S
C179 C180 1.384 . S
C179 C181 1.479 . S
C179 H197 0.929 . S
C180 C177 1.424 . S
C180 C179 1.384 . S
C180 H198 0.928 . S
C181 C178 1.260 . S
C181 C179 1.479 . S
C182 C177 1.245 . S
C182 C178 1.477 . S
C182 H199 0.932 . S
C183 U166 2.882 . S
C183 C177 1.428 . S
C183 O186 1.301 . S
C183 O187 1.282 . S
O184 U166 2.441 1_556 S
O184 C170 1.249 . S
O185 U166 2.420 1_556 S
O185 C170 1.202 . S
O186 U166 2.455 . S
O186 C183 1.301 . S
O187 U166 2.449 . S
O187 C183 1.282 . S
H188 C161 0.931 . S
H189 C163 0.929 . S
H190 C164 0.930 . S
H191 C165 0.931 . S
H192 C172 0.932 . S
H193 C173 0.930 1_556 S
H194 C174 0.929 . S
H195 C176 0.930 . S
H196 C178 0.932 . S
H197 C179 0.929 . S
H198 C180 0.928 . S
H199 C182 0.932 . S
C200 C201 1.264 . S
C200 C205 1.479 . S
C200 C210 1.465 . S
C201 C200 1.264 . S
C201 C203 1.339 . S
C201 H228 0.931 . S
C202 C203 1.395 . S
C202 C204 1.320 . S
C203 C201 1.339 . S
C203 C202 1.395 . S
C203 H229 0.929 . S
C204 C202 1.320 . S
C204 C205 1.405 . S
C204 H230 0.924 1_455 S
C205 C200 1.479 . S
C205 C204 1.405 . S
C205 H231 0.931 . S
U206 O207 2.454 . S
U206 O208 2.458 . S
U206 C209 2.984 . S
U206 C210 2.847 1_554 S
U206 C223 2.882 . S
U206 O224 2.441 1_554 S
U206 O225 2.420 1_554 S
U206 O226 2.455 . S
U206 O227 2.449 . S
O207 U206 2.454 . S
O207 C209 1.353 . S
O208 U206 2.458 . S
O208 C209 1.286 . S
C209 U206 2.984 . S
C209 O207 1.353 . S
C209 O208 1.286 . S
C209 C211 1.363 . S
C210 C200 1.465 . S
C210 U206 2.847 1_556 S
C210 O224 1.249 . S
C210 O225 1.202 . S
C211 C209 1.363 . S
C211 C213 1.408 . S
C211 C216 1.342 . S
C212 C213 1.310 . S
C212 C215 1.462 . S
C212 H232 0.932 . S
C213 C211 1.408 . S
C213 C212 1.310 . S
C213 H233 0.930 1_554 S
C214 C215 1.474 1_655 S
C214 C216 1.286 1_655 S
C214 H234 0.929 . S
C215 C212 1.462 . S
C215 C214 1.474 1_455 S
C216 C211 1.342 . S
C216 C214 1.286 1_455 S
C216 H235 0.933 . S
C217 C220 1.424 . S
C217 C222 1.245 . S
C217 C223 1.428 . S
C218 C221 1.260 . S
C218 C222 1.477 . S
C218 H236 0.932 . S
C219 C220 1.384 . S
C219 C221 1.479 . S
C219 H237 0.929 . S
C220 C217 1.424 . S
C220 C219 1.384 . S
C220 H238 0.928 . S
C221 C218 1.260 . S
C221 C219 1.479 . S
C222 C217 1.245 . S
C222 C218 1.477 . S
C222 H239 0.932 . S
C223 U206 2.882 . S
C223 C217 1.428 . S
C223 O226 1.301 . S
C223 O227 1.282 . S
O224 U206 2.441 1_556 S
O224 C210 1.249 . S
O225 U206 2.420 1_556 S
O225 C210 1.202 . S
O226 U206 2.455 . S
O226 C223 1.301 . S
O227 U206 2.449 . S
O227 C223 1.282 . S
H228 C201 0.931 . S
H229 C203 0.929 . S
H230 C204 0.924 1_655 S
H231 C205 0.931 . S
H232 C212 0.932 . S
H233 C213 0.930 1_556 S
H234 C214 0.929 . S
H235 C216 0.933 . S
H236 C218 0.932 . S
H237 C219 0.929 . S
H238 C220 0.928 . S
H239 C222 0.932 . S
C240 C241 1.264 . S
C240 C245 1.479 . S
C240 C250 1.465 . S
C241 C240 1.264 . S
C241 C243 1.339 . S
C241 H268 0.931 . S
C242 C243 1.395 . S
C242 C244 1.320 . S
C243 C241 1.339 . S
C243 C242 1.395 . S
C243 H269 0.929 . S
C244 C242 1.320 . S
C244 C245 1.405 . S
C244 H270 0.930 . S
C245 C240 1.479 . S
C245 C244 1.405 . S
C245 H271 0.931 . S
U246 O247 2.454 . S
U246 O248 2.458 . S
U246 C249 2.984 . S
U246 C250 2.847 1_554 S
U246 C263 2.882 . S
U246 O264 2.441 1_554 S
U246 O265 2.420 1_554 S
U246 O266 2.455 . S
U246 O267 2.449 . S
O247 U246 2.454 . S
O247 C249 1.353 . S
O248 U246 2.458 . S
O248 C249 1.286 . S
C249 U246 2.984 . S
C249 O247 1.353 . S
C249 O248 1.286 . S
C249 C251 1.363 . S
C250 C240 1.465 . S
C250 U246 2.847 1_556 S
C250 O264 1.249 . S
C250 O265 1.202 . S
C251 C249 1.363 . S
C251 C253 1.408 . S
C251 C256 1.342 . S
C252 C253 1.310 . S
C252 C255 1.461 . S
C252 H272 0.932 . S
C253 C251 1.408 . S
C253 C252 1.310 . S
C253 H273 0.930 1_554 S
C254 C255 1.474 . S
C254 C256 1.285 . S
C254 H274 0.929 . S
C255 C252 1.461 . S
C255 C254 1.474 . S
C256 C251 1.342 . S
C256 C254 1.285 . S
C256 H275 0.930 . S
C257 C260 1.424 . S
C257 C262 1.245 . S
C257 C263 1.428 . S
C258 C261 1.260 . S
C258 C262 1.477 . S
C258 H276 0.932 . S
C259 C260 1.384 . S
C259 C261 1.479 . S
C259 H277 0.929 . S
C260 C257 1.424 . S
C260 C259 1.384 . S
C260 H278 0.928 . S
C261 C258 1.260 . S
C261 C259 1.479 . S
C262 C257 1.245 . S
C262 C258 1.477 . S
C262 H279 0.932 . S
C263 U246 2.882 . S
C263 C257 1.428 . S
C263 O266 1.301 . S
C263 O267 1.282 . S
O264 U246 2.441 1_556 S
O264 C250 1.249 . S
O265 U246 2.420 1_556 S
O265 C250 1.202 . S
O266 U246 2.455 . S
O266 C263 1.301 . S
O267 U246 2.449 . S
O267 C263 1.282 . S
H268 C241 0.931 . S
H269 C243 0.929 . S
H270 C244 0.930 . S
H271 C245 0.931 . S
H272 C252 0.932 . S
H273 C253 0.930 1_556 S
H274 C254 0.929 . S
H275 C256 0.930 . S
H276 C258 0.932 . S
H277 C259 0.929 . S
H278 C260 0.928 . S
H279 C262 0.932 . S
C280 C281 1.264 . S
C280 C285 1.479 . S
C280 C290 1.465 . S
C281 C280 1.264 . S
C281 C283 1.339 . S
C281 H308 0.931 . S
C282 C283 1.395 . S
C282 C284 1.320 . S
C283 C281 1.339 . S
C283 C282 1.395 . S
C283 H309 0.929 . S
C284 C282 1.320 . S
C284 C285 1.405 . S
C284 H310 0.930 . S
C285 C280 1.479 . S
C285 C284 1.405 . S
C285 H311 0.931 . S
U286 O287 2.454 . S
U286 O288 2.458 . S
U286 C289 2.984 . S
U286 C290 2.847 1_554 S
U286 C303 2.882 . S
U286 O304 2.441 1_554 S
U286 O305 2.420 1_554 S
U286 O306 2.455 . S
U286 O307 2.449 . S
O287 U286 2.454 . S
O287 C289 1.353 . S
O288 U286 2.458 . S
O288 C289 1.286 . S
C289 U286 2.984 . S
C289 O287 1.353 . S
C289 O288 1.286 . S
C289 C291 1.363 . S
C290 C280 1.465 . S
C290 U286 2.847 1_556 S
C290 O304 1.249 . S
C290 O305 1.202 . S
C291 C289 1.363 . S
C291 C293 1.408 . S
C291 C296 1.342 . S
C292 C293 1.310 . S
C292 C295 1.461 . S
C292 H312 0.932 . S
C293 C291 1.408 . S
C293 C292 1.310 . S
C293 H313 0.930 1_554 S
C294 C295 1.474 . S
C294 C296 1.285 . S
C294 H314 0.929 . S
C295 C292 1.461 . S
C295 C294 1.474 . S
C296 C291 1.342 . S
C296 C294 1.285 . S
C296 H315 0.930 . S
C297 C300 1.424 . S
C297 C302 1.245 . S
C297 C303 1.428 . S
C298 C301 1.260 . S
C298 C302 1.477 . S
C298 H316 0.932 . S
C299 C300 1.384 . S
C299 C301 1.479 . S
C299 H317 0.929 . S
C300 C297 1.424 . S
C300 C299 1.384 . S
C300 H318 0.928 . S
C301 C298 1.260 . S
C301 C299 1.479 . S
C302 C297 1.245 . S
C302 C298 1.477 . S
C302 H319 0.932 . S
C303 U286 2.882 . S
C303 C297 1.428 . S
C303 O306 1.301 . S
C303 O307 1.282 . S
O304 U286 2.441 1_556 S
O304 C290 1.249 . S
O305 U286 2.420 1_556 S
O305 C290 1.202 . S
O306 U286 2.455 . S
O306 C303 1.301 . S
O307 U286 2.449 . S
O307 C303 1.282 . S
H308 C281 0.931 . S
H309 C283 0.929 . S
H310 C284 0.930 . S
H311 C285 0.931 . S
H312 C292 0.932 . S
H313 C293 0.930 1_556 S
H314 C294 0.929 . S
H315 C296 0.930 . S
H316 C298 0.932 . S
H317 C299 0.929 . S
H318 C300 0.928 . S
H319 C302 0.932 . S
Pr320 C322 2.880 . S
Pr320 O340 2.562 . S
Pr320 O341 2.490 . S
Pr320 O342 2.695 1_565 S
Pr320 O343 2.512 . S
Pr320 O345 2.437 . S
Pr320 O348 2.436 1_455 S
Pr320 O350 2.438 1_565 S
Pr321 C331 2.880 . S
Pr321 O342 2.436 1_655 S
Pr321 O344 2.438 1_545 S
Pr321 O346 2.562 . S
Pr321 O347 2.490 . S
Pr321 O348 2.695 1_545 S
Pr321 O349 2.512 . S
Pr321 O351 2.437 . S
C322 Pr320 2.880 . S
C322 C323 1.491 . S
C322 O340 1.254 . S
C322 O341 1.225 . S
C323 C322 1.491 . S
C323 C324 1.392 . S
C323 C328 1.356 . S
C324 C323 1.392 . S
C324 C325 1.368 . S
C324 H352 0.929 . S
C325 C324 1.368 . S
C325 C326 1.386 . S
C325 H353 0.929 . S
C326 C325 1.386 . S
C326 C327 1.373 . S
C327 C326 1.373 . S
C327 C328 1.409 . S
C327 H354 0.931 1_455 S
C328 C323 1.356 . S
C328 C327 1.409 . S
C328 H355 0.930 1_455 S
C329 O342 1.270 . S
C329 O343 1.248 1_545 S
C330 O344 1.267 . S
C330 O345 1.278 1_655 S
C331 Pr321 2.880 . S
C331 C332 1.491 . S
C331 O346 1.254 . S
C331 O347 1.225 . S
C332 C331 1.491 . S
C332 C333 1.392 . S
C332 C337 1.356 . S
C333 C332 1.392 . S
C333 C334 1.368 . S
C333 H356 0.929 . S
C334 C333 1.368 . S
C334 C335 1.386 . S
C334 H357 0.929 . S
C335 C334 1.386 . S
C335 C336 1.373 . S
C336 C335 1.373 . S
C336 C337 1.409 . S
C336 H358 0.931 1_655 S
C337 C332 1.356 . S
C337 C336 1.409 . S
C337 H359 0.930 1_655 S
C338 O348 1.270 1_545 S
C338 O349 1.248 . S
C339 O350 1.267 . S
C339 O351 1.278 1_455 S
O340 Pr320 2.562 . S
O340 C322 1.254 . S
O341 Pr320 2.490 . S
O341 C322 1.225 . S
O342 Pr320 2.695 1_545 S
O342 Pr321 2.436 1_455 S
O342 C329 1.270 . S
O343 Pr320 2.512 . S
O343 C329 1.248 1_565 S
O344 Pr321 2.438 1_565 S
O344 C330 1.267 . S
O345 Pr320 2.437 . S
O345 C330 1.278 1_455 S
O346 Pr321 2.562 . S
O346 C331 1.254 . S
O347 Pr321 2.490 . S
O347 C331 1.225 . S
O348 Pr320 2.436 1_655 S
O348 Pr321 2.695 1_565 S
O348 C338 1.270 1_565 S
O349 Pr321 2.512 . S
O349 C338 1.248 . S
O350 Pr320 2.438 1_545 S
O350 C339 1.267 . S
O351 Pr321 2.437 . S
O351 C339 1.278 1_655 S
H352 C324 0.929 . S
H353 C325 0.929 . S
H354 C327 0.931 1_655 S
H355 C328 0.930 1_655 S
H356 C333 0.929 . S
H357 C334 0.929 . S
H358 C336 0.931 1_455 S
H359 C337 0.930 1_455 S
Pr360 C362 2.880 . S
Pr360 O380 2.562 . S
Pr360 O381 2.490 . S
Pr360 O382 2.695 . S
Pr360 O383 2.512 . S
Pr360 O385 2.437 . S
Pr360 O388 2.436 1_545 S
Pr360 O390 2.438 . S
Pr361 C371 2.880 . S
Pr361 O382 2.436 1_565 S
Pr361 O384 2.438 . S
Pr361 O386 2.562 1_565 S
Pr361 O387 2.490 . S
Pr361 O388 2.695 . S
Pr361 O389 2.512 . S
Pr361 O391 2.437 . S
C362 Pr360 2.880 . S
C362 C363 1.491 . S
C362 O380 1.254 . S
C362 O381 1.225 . S
C363 C362 1.491 . S
C363 C364 1.392 . S
C363 C368 1.356 . S
C364 C363 1.392 . S
C364 C365 1.368 . S
C364 H392 0.929 . S
C365 C364 1.368 . S
C365 C366 1.386 . S
C365 H393 0.929 . S
C366 C365 1.386 . S
C366 C367 1.373 . S
C367 C366 1.373 . S
C367 C368 1.409 . S
C367 H394 0.931 1_545 S
C368 C363 1.356 . S
C368 C367 1.409 . S
C368 H395 0.930 1_545 S
C369 O382 1.270 . S
C369 O383 1.248 . S
C370 O384 1.267 . S
C370 O385 1.278 1_565 S
C371 Pr361 2.880 . S
C371 C372 1.491 . S
C371 O386 1.254 1_565 S
C371 O387 1.225 . S
C372 C371 1.491 . S
C372 C373 1.392 . S
C372 C377 1.351 1_565 S
C373 C372 1.392 . S
C373 C374 1.368 . S
C373 H396 0.929 . S
C374 C373 1.368 . S
C374 C375 1.386 . S
C374 H397 0.929 . S
C375 C374 1.386 . S
C375 C376 1.373 . S
C376 C375 1.373 . S
C376 C377 1.408 1_565 S
C376 H398 0.931 1_565 S
C377 C372 1.351 1_545 S
C377 C376 1.408 1_545 S
C377 H399 0.935 . S
C378 O388 1.270 . S
C378 O389 1.248 . S
C379 O390 1.267 . S
C379 O391 1.278 1_545 S
O380 Pr360 2.562 . S
O380 C362 1.254 . S
O381 Pr360 2.490 . S
O381 C362 1.225 . S
O382 Pr360 2.695 . S
O382 Pr361 2.436 1_545 S
O382 C369 1.270 . S
O383 Pr360 2.512 . S
O383 C369 1.248 . S
O384 Pr361 2.438 . S
O384 C370 1.267 . S
O385 Pr360 2.437 . S
O385 C370 1.278 1_545 S
O386 Pr361 2.562 1_545 S
O386 C371 1.254 1_545 S
O387 Pr361 2.490 . S
O387 C371 1.225 . S
O388 Pr360 2.436 1_565 S
O388 Pr361 2.695 . S
O388 C378 1.270 . S
O389 Pr361 2.512 . S
O389 C378 1.248 . S
O390 Pr360 2.438 . S
O390 C379 1.267 . S
O391 Pr361 2.437 . S
O391 C379 1.278 1_565 S
H392 C364 0.929 . S
H393 C365 0.929 . S
H394 C367 0.931 1_565 S
H395 C368 0.930 1_565 S
H396 C373 0.929 . S
H397 C374 0.929 . S
H398 C376 0.931 1_545 S
H399 C377 0.935 . S
Pr400 C402 2.880 . S
Pr400 O420 2.562 . S
Pr400 O421 2.490 . S
Pr400 O422 2.695 . S
Pr400 O423 2.512 . S
Pr400 O425 2.437 . S
Pr400 O428 2.436 . S
Pr400 O430 2.438 . S
Pr401 C411 2.880 . S
Pr401 O422 2.436 . S
Pr401 O424 2.438 . S
Pr401 O426 2.562 . S
Pr401 O427 2.490 . S
Pr401 O428 2.695 . S
Pr401 O429 2.512 . S
Pr401 O431 2.437 . S
C402 Pr400 2.880 . S
C402 C403 1.491 . S
C402 O420 1.254 . S
C402 O421 1.225 . S
C403 C402 1.491 . S
C403 C404 1.392 . S
C403 C408 1.356 . S
C404 C403 1.392 . S
C404 C405 1.368 . S
C404 H432 0.929 . S
C405 C404 1.368 . S
C405 C406 1.386 . S
C405 H433 0.929 . S
C406 C405 1.386 . S
C406 C407 1.373 . S
C407 C406 1.373 . S
C407 C408 1.409 . S
C407 H434 0.931 . S
C408 C403 1.356 . S
C408 C407 1.409 . S
C408 H435 0.930 . S
C409 O422 1.270 . S
C409 O423 1.248 . S
C410 O424 1.267 . S
C410 O425 1.278 . S
C411 Pr401 2.880 . S
C411 C412 1.491 . S
C411 O426 1.254 . S
C411 O427 1.225 . S
C412 C411 1.491 . S
C412 C413 1.392 . S
C412 C417 1.356 . S
C413 C412 1.392 . S
C413 C414 1.368 . S
C413 H436 0.929 . S
C414 C413 1.368 . S
C414 C415 1.386 . S
C414 H437 0.929 . S
C415 C414 1.386 . S
C415 C416 1.373 . S
C416 C415 1.373 . S
C416 C417 1.409 . S
C416 H438 0.931 . S
C417 C412 1.356 . S
C417 C416 1.409 . S
C417 H439 0.930 . S
C418 O428 1.270 . S
C418 O429 1.248 . S
C419 O430 1.267 . S
C419 O431 1.278 . S
O420 Pr400 2.562 . S
O420 C402 1.254 . S
O421 Pr400 2.490 . S
O421 C402 1.225 . S
O422 Pr400 2.695 . S
O422 Pr401 2.436 . S
O422 C409 1.270 . S
O423 Pr400 2.512 . S
O423 C409 1.248 . S
O424 Pr401 2.438 . S
O424 C410 1.267 . S
O425 Pr400 2.437 . S
O425 C410 1.278 . S
O426 Pr401 2.562 . S
O426 C411 1.254 . S
O427 Pr401 2.490 . S
O427 C411 1.225 . S
O428 Pr400 2.436 . S
O428 Pr401 2.695 . S
O428 C418 1.270 . S
O429 Pr401 2.512 . S
O429 C418 1.248 . S
O430 Pr400 2.438 . S
O430 C419 1.267 . S
O431 Pr401 2.437 . S
O431 C419 1.278 . S
H432 C404 0.929 . S
H433 C405 0.929 . S
H434 C407 0.931 . S
H435 C408 0.930 . S
H436 C413 0.929 . S
H437 C414 0.929 . S
H438 C416 0.931 . S
H439 C417 0.930 . S
Pr440 C442 2.880 . S
Pr440 O460 2.562 . S
Pr440 O461 2.490 . S
Pr440 O462 2.695 1_655 S
Pr440 O463 2.512 . S
Pr440 O465 2.437 . S
Pr440 O468 2.436 . S
Pr440 O470 2.438 1_655 S
Pr441 C451 2.880 . S
Pr441 O462 2.436 . S
Pr441 O464 2.438 1_455 S
Pr441 O466 2.562 . S
Pr441 O467 2.490 . S
Pr441 O468 2.695 1_455 S
Pr441 O469 2.512 . S
Pr441 O471 2.437 . S
C442 Pr440 2.880 . S
C442 C443 1.491 . S
C442 O460 1.254 . S
C442 O461 1.225 . S
C443 C442 1.491 . S
C443 C444 1.392 . S
C443 C448 1.356 . S
C444 C443 1.392 . S
C444 C445 1.368 . S
C444 H472 0.929 . S
C445 C444 1.368 . S
C445 C446 1.386 . S
C445 H473 0.929 . S
C446 C445 1.386 . S
C446 C447 1.373 . S
C447 C446 1.373 . S
C447 C448 1.409 . S
C447 H474 0.931 . S
C448 C443 1.356 . S
C448 C447 1.409 . S
C448 H475 0.930 . S
C449 O462 1.270 1_655 S
C449 O463 1.248 . S
C450 O464 1.267 . S
C450 O465 1.278 . S
C451 Pr441 2.880 . S
C451 C452 1.491 . S
C451 O466 1.254 . S
C451 O467 1.225 . S
C452 C451 1.491 . S
C452 C453 1.392 . S
C452 C457 1.356 . S
C453 C452 1.392 . S
C453 C454 1.368 . S
C453 H476 0.929 . S
C454 C453 1.368 . S
C454 C455 1.386 . S
C454 H477 0.929 . S
C455 C454 1.386 . S
C455 C456 1.373 . S
C456 C455 1.373 . S
C456 C457 1.409 . S
C456 H478 0.931 . S
C457 C452 1.356 . S
C457 C456 1.409 . S
C457 H479 0.930 . S
C458 O468 1.270 1_455 S
C458 O469 1.248 . S
C459 O470 1.267 . S
C459 O471 1.278 . S
O460 Pr440 2.562 . S
O460 C442 1.254 . S
O461 Pr440 2.490 . S
O461 C442 1.225 . S
O462 Pr440 2.695 1_455 S
O462 Pr441 2.436 . S
O462 C449 1.270 1_455 S
O463 Pr440 2.512 . S
O463 C449 1.248 . S
O464 Pr441 2.438 1_655 S
O464 C450 1.267 . S
O465 Pr440 2.437 . S
O465 C450 1.278 . S
O466 Pr441 2.562 . S
O466 C451 1.254 . S
O467 Pr441 2.490 . S
O467 C451 1.225 . S
O468 Pr440 2.436 . S
O468 Pr441 2.695 1_655 S
O468 C458 1.270 1_655 S
O469 Pr441 2.512 . S
O469 C458 1.248 . S
O470 Pr440 2.438 1_455 S
O470 C459 1.267 . S
O471 Pr441 2.437 . S
O471 C459 1.278 . S
H472 C444 0.929 . S
H473 C445 0.929 . S
H474 C447 0.931 . S
H475 C448 0.930 . S
H476 C453 0.929 . S
H477 C454 0.929 . S
H478 C456 0.931 . S
H479 C457 0.930 . S
H480 C488 0.929 . S
H481 C490 0.930 . S
H482 C492 0.930 . S
H483 C495 0.929 . S
H484 C498 0.930 . S
H485 C500 0.960 . S
H486 C500 0.960 . S
H487 C500 0.960 . S
C488 H480 0.929 . S
C488 C489 1.377 . S
C488 C490 1.384 . S
C489 C488 1.377 . S
C489 C495 1.390 1_545 S
C490 H481 0.930 . S
C490 C488 1.384 . S
C490 C491 1.372 . S
C491 C490 1.372 . S
C491 C492 1.400 1_545 S
C491 C496 1.490 . S
C492 H482 0.930 . S
C492 C491 1.400 1_565 S
C492 C495 1.386 . S
H493 C509 0.930 . S
H494 C510 0.931 . S
C495 H483 0.929 . S
C495 C489 1.390 1_565 S
C495 C492 1.386 . S
C496 C491 1.490 . S
C496 C498 1.395 . S
C496 C499 1.403 . S
H497 C503 0.930 . S
C498 H484 0.930 . S
C498 C496 1.395 . S
C498 C501 1.403 . S
C499 C496 1.403 . S
C499 C500 1.524 . S
C499 C503 1.400 . S
C500 H485 0.960 . S
C500 H486 0.960 . S
C500 H487 0.960 . S
C500 C499 1.524 . S
C501 C498 1.403 . S
C501 C502 1.392 . S
C501 C505 1.495 . S
C502 C501 1.392 . S
C502 C503 1.385 . S
C502 C504 1.478 . S
C503 H497 0.930 . S
C503 C499 1.400 . S
C503 C502 1.385 . S
C504 C502 1.478 . S
C504 C506 1.381 . S
C504 C510 1.383 1_545 S
C505 C501 1.495 . S
C505 H511 0.959 . S
C505 H512 0.961 1_545 S
C505 H513 0.960 . S
C506 C504 1.381 . S
C506 C507 1.394 . S
C506 H514 0.930 . S
C507 C506 1.394 . S
C507 C508 1.383 . S
C507 H515 0.929 . S
C508 C507 1.383 . S
C508 C509 1.377 1_545 S
C509 H493 0.930 . S
C509 C508 1.377 1_565 S
C509 C510 1.379 . S
C510 H494 0.931 . S
C510 C504 1.383 1_565 S
C510 C509 1.379 . S
H511 C505 0.959 . S
H512 C505 0.961 1_565 S
H513 C505 0.960 . S
H514 C506 0.930 . S
H515 C507 0.929 . S
H516 C524 0.929 . S
H517 C526 0.930 . S
H518 C528 0.930 . S
H519 C531 0.929 . S
H520 C534 0.930 . S
H521 C536 0.960 . S
H522 C536 0.960 . S
H523 C536 0.960 . S
C524 H516 0.929 . S
C524 C525 1.377 . S
C524 C526 1.384 . S
C525 C524 1.377 . S
C525 C531 1.390 . S
C526 H517 0.930 . S
C526 C524 1.384 . S
C526 C527 1.372 . S
C527 C526 1.372 . S
C527 C528 1.400 . S
C527 C532 1.490 . S
C528 H518 0.930 . S
C528 C527 1.400 . S
C528 C531 1.386 . S
H529 C545 0.930 . S
H530 C546 0.931 . S
C531 H519 0.929 . S
C531 C525 1.390 . S
C531 C528 1.386 . S
C532 C527 1.490 . S
C532 C534 1.395 . S
C532 C535 1.403 . S
H533 C539 0.930 . S
C534 H520 0.930 . S
C534 C532 1.395 . S
C534 C537 1.403 . S
C535 C532 1.403 . S
C535 C536 1.524 . S
C535 C539 1.400 . S
C536 H521 0.960 . S
C536 H522 0.960 . S
C536 H523 0.960 . S
C536 C535 1.524 . S
C537 C534 1.403 . S
C537 C538 1.392 . S
C537 C541 1.495 . S
C538 C537 1.392 . S
C538 C539 1.385 . S
C538 C540 1.478 . S
C539 H533 0.930 . S
C539 C535 1.400 . S
C539 C538 1.385 . S
C540 C538 1.478 . S
C540 C542 1.381 . S
C540 C546 1.383 . S
C541 C537 1.495 . S
C541 H547 0.959 . S
C541 H548 0.961 . S
C541 H549 0.960 . S
C542 C540 1.381 . S
C542 C543 1.394 . S
C542 H550 0.930 . S
C543 C542 1.394 . S
C543 C544 1.383 . S
C543 H551 0.929 . S
C544 C543 1.383 . S
C544 C545 1.377 . S
C545 H529 0.930 . S
C545 C544 1.377 . S
C545 C546 1.379 . S
C546 H530 0.931 . S
C546 C540 1.383 . S
C546 C545 1.379 . S
H547 C541 0.959 . S
H548 C541 0.961 . S
H549 C541 0.960 . S
H550 C542 0.930 . S
H551 C543 0.929 . S
H552 C560 0.929 . S
H553 C562 0.930 . S
H554 C564 0.930 . S
H555 C567 0.929 . S
H556 C570 0.930 . S
H557 C572 0.960 . S
H558 C572 0.960 . S
H559 C572 0.960 . S
C560 H552 0.929 . S
C560 C561 1.377 . S
C560 C562 1.384 . S
C561 C560 1.377 . S
C561 C567 1.390 . S
C562 H553 0.930 . S
C562 C560 1.384 . S
C562 C563 1.372 . S
C563 C562 1.372 . S
C563 C564 1.400 . S
C563 C568 1.490 . S
C564 H554 0.930 . S
C564 C563 1.400 . S
C564 C567 1.386 . S
H565 C581 0.930 . S
H566 C582 0.931 . S
C567 H555 0.929 . S
C567 C561 1.390 . S
C567 C564 1.386 . S
C568 C563 1.490 . S
C568 C570 1.395 . S
C568 C571 1.403 . S
H569 C575 0.930 . S
C570 H556 0.930 . S
C570 C568 1.395 . S
C570 C573 1.403 . S
C571 C568 1.403 . S
C571 C572 1.524 . S
C571 C575 1.400 . S
C572 H557 0.960 . S
C572 H558 0.960 . S
C572 H559 0.960 . S
C572 C571 1.524 . S
C573 C570 1.403 . S
C573 C574 1.392 . S
C573 C577 1.495 . S
C574 C573 1.392 . S
C574 C575 1.385 . S
C574 C576 1.478 . S
C575 H569 0.930 . S
C575 C571 1.400 . S
C575 C574 1.385 . S
C576 C574 1.478 . S
C576 C578 1.381 . S
C576 C582 1.383 . S
C577 C573 1.495 . S
C577 H583 0.959 . S
C577 H584 0.961 . S
C577 H585 0.960 . S
C578 C576 1.381 . S
C578 C579 1.394 . S
C578 H586 0.930 . S
C579 C578 1.394 . S
C579 C580 1.383 . S
C579 H587 0.929 . S
C580 C579 1.383 . S
C580 C581 1.377 . S
C581 H565 0.930 . S
C581 C580 1.377 . S
C581 C582 1.379 . S
C582 H566 0.931 . S
C582 C576 1.383 . S
C582 C581 1.379 . S
H583 C577 0.959 . S
H584 C577 0.961 . S
H585 C577 0.960 . S
H586 C578 0.930 . S
H587 C579 0.929 . S
H588 C596 0.929 . S
H589 C598 0.930 . S
H590 C600 0.930 . S
H591 C603 0.929 . S
H592 C606 0.930 . S
H593 C608 0.960 . S
H594 C608 0.960 . S
H595 C608 0.960 . S
C596 H588 0.929 . S
C596 C597 1.377 . S
C596 C598 1.384 . S
C597 C596 1.377 . S
C597 C603 1.390 1_655 S
C598 H589 0.930 . S
C598 C596 1.384 . S
C598 C599 1.386 . S
C599 C598 1.386 . S
C599 C600 1.386 1_655 S
C599 C604 1.490 . S
C600 H590 0.930 . S
C600 C599 1.386 1_455 S
C600 C603 1.386 . S
H601 C617 0.930 . S
H602 C618 0.931 . S
C603 H591 0.929 . S
C603 C597 1.390 1_455 S
C603 C600 1.386 . S
C604 C599 1.490 . S
C604 C606 1.394 1_655 S
C604 C607 1.404 . S
H605 C611 0.930 . S
C606 H592 0.930 . S
C606 C604 1.394 1_455 S
C606 C609 1.403 . S
C607 C604 1.404 . S
C607 C608 1.524 . S
C607 C611 1.400 . S
C608 H593 0.960 . S
C608 H594 0.960 . S
C608 H595 0.960 . S
C608 C607 1.524 . S
C609 C606 1.403 . S
C609 C610 1.392 . S
C609 C613 1.495 . S
C610 C609 1.392 . S
C610 C611 1.385 1_455 S
C610 C612 1.478 . S
C611 H605 0.930 . S
C611 C607 1.400 . S
C611 C610 1.385 1_655 S
C612 C610 1.478 . S
C612 C614 1.381 1_455 S
C612 C618 1.383 . S
C613 C609 1.495 . S
C613 H619 0.959 . S
C613 H620 0.961 . S
C613 H621 0.960 . S
C614 C612 1.381 1_655 S
C614 C615 1.394 . S
C614 H622 0.930 . S
C615 C614 1.394 . S
C615 C616 1.383 1_655 S
C615 H623 0.929 . S
C616 C615 1.383 1_455 S
C616 C617 1.377 . S
C617 H601 0.930 . S
C617 C616 1.377 . S
C617 C618 1.379 . S
C618 H602 0.931 . S
C618 C612 1.383 . S
C618 C617 1.379 . S
H619 C613 0.959 . S
H620 C613 0.961 . S
H621 C613 0.960 . S
H622 C614 0.930 . S
H623 C615 0.929 . S
H624 C632 0.929 . S
H625 C634 0.930 . S
H626 C636 0.930 . S
H627 C639 0.929 . S
H628 C642 0.930 . S
H629 C644 0.960 . S
H630 C644 0.960 . S
H631 C644 0.960 . S
C632 H624 0.929 . S
C632 C633 1.377 . S
C632 C634 1.384 . S
C633 C632 1.377 . S
C633 C639 1.390 1_565 S
C634 H625 0.930 . S
C634 C632 1.384 . S
C634 C635 1.372 . S
C635 C634 1.372 . S
C635 C636 1.400 1_565 S
C635 C640 1.490 . S
C636 H626 0.930 . S
C636 C635 1.400 1_545 S
C636 C639 1.386 . S
H637 C653 0.930 . S
H638 C654 0.931 . S
C639 H627 0.929 . S
C639 C633 1.390 1_545 S
C639 C636 1.386 . S
C640 C635 1.490 . S
C640 C642 1.395 1_554 S
C640 C643 1.403 1_564 S
H641 C647 0.930 . S
C642 H628 0.930 . S
C642 C640 1.395 1_556 S
C642 C645 1.403 . S
C643 C640 1.403 1_546 S
C643 C644 1.524 1_556 S
C643 C647 1.400 . S
C644 H629 0.960 . S
C644 H630 0.960 . S
C644 H631 0.960 . S
C644 C643 1.524 1_554 S
C645 C642 1.403 . S
C645 C646 1.392 . S
C645 C649 1.495 . S
C646 C645 1.392 . S
C646 C647 1.385 1_565 S
C646 C648 1.478 . S
C647 H641 0.930 . S
C647 C643 1.400 . S
C647 C646 1.385 1_545 S
C648 C646 1.478 . S
C648 C650 1.381 . S
C648 C654 1.383 1_565 S
C649 C645 1.495 . S
C649 H655 0.959 . S
C649 H656 0.961 . S
C649 H657 0.960 . S
C650 C648 1.381 . S
C650 C651 1.394 . S
C650 H658 0.930 . S
C651 C650 1.394 . S
C651 C652 1.387 . S
C651 H659 0.929 . S
C652 C651 1.387 . S
C652 C653 1.373 1_565 S
C653 H637 0.930 . S
C653 C652 1.373 1_545 S
C653 C654 1.379 . S
C654 H638 0.931 . S
C654 C648 1.383 1_545 S
C654 C653 1.379 . S
H655 C649 0.959 . S
H656 C649 0.961 . S
H657 C649 0.960 . S
H658 C650 0.930 . S
H659 C651 0.929 . S
H660 C668 0.929 . S
H661 C670 0.930 . S
H662 C672 0.930 . S
H663 C675 0.929 . S
H664 C678 0.919 1_554 S
H665 C680 0.960 . S
H666 C680 0.960 . S
H667 C680 0.960 1_554 S
C668 H660 0.929 . S
C668 C669 1.377 . S
C668 C670 1.384 . S
C669 C668 1.377 . S
C669 C675 1.390 . S
C670 H661 0.930 . S
C670 C668 1.384 . S
C670 C671 1.372 . S
C671 C670 1.372 . S
C671 C672 1.400 . S
C671 C676 1.506 . S
C672 H662 0.930 . S
C672 C671 1.400 . S
C672 C675 1.386 . S
H673 C689 0.930 . S
H674 C690 0.931 . S
C675 H663 0.929 . S
C675 C669 1.390 . S
C675 C672 1.386 . S
C676 C671 1.506 . S
C676 C678 1.388 1_554 S
C676 C679 1.393 1_554 S
H677 C683 0.930 . S
C678 H664 0.919 1_556 S
C678 C676 1.388 1_556 S
C678 C681 1.403 . S
C679 C676 1.393 1_556 S
C679 C680 1.524 . S
C679 C683 1.400 . S
C680 H665 0.960 . S
C680 H666 0.960 . S
C680 H667 0.960 1_556 S
C680 C679 1.524 . S
C681 C678 1.403 . S
C681 C682 1.392 . S
C681 C685 1.495 . S
C682 C681 1.392 . S
C682 C683 1.385 . S
C682 C684 1.478 . S
C683 H677 0.930 . S
C683 C679 1.400 . S
C683 C682 1.385 . S
C684 C682 1.478 . S
C684 C686 1.381 . S
C684 C690 1.383 . S
C685 C681 1.495 . S
C685 H691 0.959 . S
C685 H692 0.961 . S
C685 H693 0.960 . S
C686 C684 1.381 . S
C686 C687 1.394 . S
C686 H694 0.930 . S
C687 C686 1.394 . S
C687 C688 1.383 . S
C687 H695 0.929 . S
C688 C687 1.383 . S
C688 C689 1.377 . S
C689 H673 0.930 . S
C689 C688 1.377 . S
C689 C690 1.379 . S
C690 H674 0.931 . S
C690 C684 1.383 . S
C690 C689 1.379 . S
H691 C685 0.959 . S
H692 C685 0.961 . S
H693 C685 0.960 . S
H694 C686 0.930 . S
H695 C687 0.929 . S
H696 C704 0.929 . S
H697 C706 0.930 . S
H698 C708 0.930 . S
H699 C711 0.929 . S
H700 C714 0.930 . S
H701 C716 0.960 . S
H702 C716 0.960 . S
H703 C716 0.960 . S
C704 H696 0.929 . S
C704 C705 1.377 . S
C704 C706 1.384 . S
C705 C704 1.377 . S
C705 C711 1.390 . S
C706 H697 0.930 . S
C706 C704 1.384 . S
C706 C707 1.372 . S
C707 C706 1.372 . S
C707 C708 1.400 . S
C707 C712 1.506 . S
C708 H698 0.930 . S
C708 C707 1.400 . S
C708 C711 1.386 . S
H709 C725 0.930 . S
H710 C726 0.931 . S
C711 H699 0.929 . S
C711 C705 1.390 . S
C711 C708 1.386 . S
C712 C707 1.506 . S
C712 C714 1.379 1_554 S
C712 C715 1.403 . S
H713 C719 0.930 . S
C714 H700 0.930 . S
C714 C712 1.379 1_556 S
C714 C717 1.403 . S
C715 C712 1.403 . S
C715 C716 1.533 . S
C715 C719 1.390 1_554 S
C716 H701 0.960 . S
C716 H702 0.960 . S
C716 H703 0.960 . S
C716 C715 1.533 . S
C717 C714 1.403 . S
C717 C718 1.392 . S
C717 C721 1.495 . S
C718 C717 1.392 . S
C718 C719 1.385 . S
C718 C720 1.478 . S
C719 H713 0.930 . S
C719 C715 1.390 1_556 S
C719 C718 1.385 . S
C720 C718 1.478 . S
C720 C722 1.381 . S
C720 C726 1.383 . S
C721 C717 1.495 . S
C721 H727 0.959 . S
C721 H728 0.961 . S
C721 H729 0.960 . S
C722 C720 1.381 . S
C722 C723 1.394 . S
C722 H730 0.930 . S
C723 C722 1.394 . S
C723 C724 1.383 . S
C723 H731 0.929 . S
C724 C723 1.383 . S
C724 C725 1.377 . S
C725 H709 0.930 . S
C725 C724 1.377 . S
C725 C726 1.379 . S
C726 H710 0.931 . S
C726 C720 1.383 . S
C726 C725 1.379 . S
H727 C721 0.959 . S
H728 C721 0.961 . S
H729 C721 0.960 . S
H730 C722 0.930 . S
H731 C723 0.929 . S
H732 C740 0.929 . S
H733 C742 0.930 . S
H734 C744 0.930 . S
H735 C747 0.929 . S
H736 C750 0.930 . S
H737 C752 0.960 1_556 S
H738 C752 0.960 . S
H739 C752 0.960 . S
C740 H732 0.929 . S
C740 C741 1.378 . S
C740 C742 1.384 . S
C741 C740 1.378 . S
C741 C747 1.389 1_655 S
C742 H733 0.930 . S
C742 C740 1.384 . S
C742 C743 1.402 . S
C743 C742 1.402 . S
C743 C744 1.370 1_655 S
C743 C748 1.493 . S
C744 H734 0.930 . S
C744 C743 1.370 1_455 S
C744 C747 1.386 . S
H745 C761 0.930 . S
H746 C762 0.931 . S
C747 H735 0.929 . S
C747 C741 1.389 1_455 S
C747 C744 1.386 . S
C748 C743 1.493 . S
C748 C750 1.395 1_554 S
C748 C751 1.403 1_654 S
H749 C755 0.930 . S
C750 H736 0.930 . S
C750 C748 1.395 1_556 S
C750 C753 1.403 . S
C751 C748 1.403 1_456 S
C751 C752 1.524 1_556 S
C751 C755 1.400 . S
C752 H737 0.960 1_554 S
C752 H738 0.960 . S
C752 H739 0.960 . S
C752 C751 1.524 1_554 S
C753 C750 1.403 . S
C753 C754 1.392 . S
C753 C757 1.495 . S
C754 C753 1.392 . S
C754 C755 1.385 1_655 S
C754 C756 1.478 . S
C755 H749 0.930 . S
C755 C751 1.400 . S
C755 C754 1.385 1_455 S
C756 C754 1.478 . S
C756 C758 1.381 . S
C756 C762 1.383 1_655 S
C757 C753 1.495 . S
C757 H763 0.959 . S
C757 H764 0.961 . S
C757 H765 0.960 . S
C758 C756 1.381 . S
C758 C759 1.394 . S
C758 H766 0.930 . S
C759 C758 1.394 . S
C759 C760 1.383 . S
C759 H767 0.929 . S
C760 C759 1.383 . S
C760 C761 1.377 1_655 S
C761 H745 0.930 . S
C761 C760 1.377 1_455 S
C761 C762 1.379 . S
C762 H746 0.931 . S
C762 C756 1.383 1_455 S
C762 C761 1.379 . S
H763 C757 0.959 . S
H764 C757 0.961 . S
H765 C757 0.960 . S
H766 C758 0.930 . S
H767 C759 0.929 . S
H768 C776 0.929 . S
H769 C778 0.930 . S
H770 C780 0.930 . S
H771 C783 0.929 . S
H772 C786 0.930 . S
H773 C788 0.960 . S
H774 C788 0.960 . S
H775 C788 0.960 . S
C776 H768 0.929 . S
C776 C777 1.377 . S
C776 C778 1.384 . S
C777 C776 1.377 . S
C777 C783 1.390 1_455 S
C778 H769 0.930 . S
C778 C776 1.384 . S
C778 C779 1.372 1_455 S
C779 C778 1.372 1_655 S
C779 C780 1.400 . S
C779 C784 1.490 . S
C780 H770 0.930 . S
C780 C779 1.400 . S
C780 C783 1.386 . S
H781 C797 0.930 . S
H782 C798 0.931 . S
C783 H771 0.929 . S
C783 C777 1.390 1_655 S
C783 C780 1.386 . S
C784 C779 1.490 . S
C784 C786 1.395 . S
C784 C787 1.434 . S
H785 C791 0.930 . S
C786 H772 0.930 . S
C786 C784 1.395 . S
C786 C789 1.403 . S
C787 C784 1.434 . S
C787 C788 1.477 1_655 S
C787 C791 1.420 . S
C788 H773 0.960 . S
C788 H774 0.960 . S
C788 H775 0.960 . S
C788 C787 1.477 1_455 S
C789 C786 1.403 . S
C789 C790 1.392 . S
C789 C793 1.495 . S
C790 C789 1.392 . S
C790 C791 1.385 . S
C790 C792 1.478 . S
C791 H785 0.930 . S
C791 C787 1.420 . S
C791 C790 1.385 . S
C792 C790 1.478 . S
C792 C794 1.381 . S
C792 C798 1.383 . S
C793 C789 1.495 . S
C793 H799 0.959 . S
C793 H800 0.961 . S
C793 H801 0.960 . S
C794 C792 1.381 . S
C794 C795 1.394 . S
C794 H802 0.930 . S
C795 C794 1.394 . S
C795 C796 1.383 . S
C795 H803 0.929 . S
C796 C795 1.383 . S
C796 C797 1.377 . S
C797 H781 0.930 . S
C797 C796 1.377 . S
C797 C798 1.379 . S
C798 H782 0.931 . S
C798 C792 1.383 . S
C798 C797 1.379 . S
H799 C793 0.959 . S
H800 C793 0.961 . S
H801 C793 0.960 . S
H802 C794 0.930 . S
H803 C795 0.929 . S
H804 C812 0.949 . S
H805 C814 0.930 . S
H806 C816 0.930 . S
H807 C819 0.929 . S
H808 C822 0.930 . S
H809 C824 0.960 . S
H810 C824 0.960 . S
H811 C824 0.960 . S
C812 H804 0.949 . S
C812 C813 1.349 1_565 S
C812 C814 1.395 . S
C813 C812 1.349 1_545 S
C813 C819 1.390 . S
C814 H805 0.930 . S
C814 C812 1.395 . S
C814 C815 1.372 1_565 S
C815 C814 1.372 1_545 S
C815 C816 1.400 . S
C815 C820 1.490 1_545 S
C816 H806 0.930 . S
C816 C815 1.400 . S
C816 C819 1.386 . S
H817 C833 0.930 . S
H818 C834 0.931 . S
C819 H807 0.929 . S
C819 C813 1.390 . S
C819 C816 1.386 . S
C820 C815 1.490 1_565 S
C820 C822 1.395 . S
C820 C823 1.403 1_565 S
H821 C827 0.930 . S
C822 H808 0.930 . S
C822 C820 1.395 . S
C822 C825 1.403 . S
C823 C820 1.403 1_545 S
C823 C824 1.524 . S
C823 C827 1.400 . S
C824 H809 0.960 . S
C824 H810 0.960 . S
C824 H811 0.960 . S
C824 C823 1.524 . S
C825 C822 1.403 . S
C825 C826 1.392 . S
C825 C829 1.495 . S
C826 C825 1.392 . S
C826 C827 1.385 1_565 S
C826 C828 1.478 . S
C827 H821 0.930 . S
C827 C823 1.400 . S
C827 C826 1.385 1_545 S
C828 C826 1.478 . S
C828 C830 1.381 . S
C828 C834 1.383 . S
C829 C825 1.495 . S
C829 H835 0.959 . S
C829 H836 0.961 . S
C829 H837 0.960 . S
C830 C828 1.381 . S
C830 C831 1.394 . S
C830 H838 0.930 . S
C831 C830 1.394 . S
C831 C832 1.383 . S
C831 H839 0.929 . S
C832 C831 1.383 . S
C832 C833 1.377 . S
C833 H817 0.930 . S
C833 C832 1.377 . S
C833 C834 1.379 . S
C834 H818 0.931 . S
C834 C828 1.383 . S
C834 C833 1.379 . S
H835 C829 0.959 . S
H836 C829 0.961 . S
H837 C829 0.960 . S
H838 C830 0.930 . S
H839 C831 0.929 . S
H840 C848 0.929 . S
H841 C850 0.930 . S
H842 C852 0.930 . S
H843 C855 0.929 . S
H844 C858 0.930 . S
H845 C860 0.960 . S
H846 C860 0.960 . S
H847 C860 0.960 . S
C848 H840 0.929 . S
C848 C849 1.377 . S
C848 C850 1.384 . S
C849 C848 1.377 . S
C849 C855 1.390 . S
C850 H841 0.930 . S
C850 C848 1.384 . S
C850 C851 1.372 . S
C851 C850 1.372 . S
C851 C852 1.400 . S
C851 C856 1.490 . S
C852 H842 0.930 . S
C852 C851 1.400 . S
C852 C855 1.386 . S
H853 C869 0.930 . S
H854 C870 0.931 . S
C855 H843 0.929 . S
C855 C849 1.390 . S
C855 C852 1.386 . S
C856 C851 1.490 . S
C856 C858 1.395 . S
C856 C859 1.403 . S
H857 C863 0.930 . S
C858 H844 0.930 . S
C858 C856 1.395 . S
C858 C861 1.403 . S
C859 C856 1.403 . S
C859 C860 1.524 . S
C859 C863 1.400 . S
C860 H845 0.960 . S
C860 H846 0.960 . S
C860 H847 0.960 . S
C860 C859 1.524 . S
C861 C858 1.403 . S
C861 C862 1.392 . S
C861 C865 1.495 . S
C862 C861 1.392 . S
C862 C863 1.385 . S
C862 C864 1.478 . S
C863 H857 0.930 . S
C863 C859 1.400 . S
C863 C862 1.385 . S
C864 C862 1.478 . S
C864 C866 1.381 . S
C864 C870 1.383 . S
C865 C861 1.495 . S
C865 H871 0.959 . S
C865 H872 0.961 . S
C865 H873 0.960 . S
C866 C864 1.381 . S
C866 C867 1.394 . S
C866 H874 0.930 . S
C867 C866 1.394 . S
C867 C868 1.383 . S
C867 H875 0.929 . S
C868 C867 1.383 . S
C868 C869 1.377 . S
C869 H853 0.930 . S
C869 C868 1.377 . S
C869 C870 1.379 . S
C870 H854 0.931 . S
C870 C864 1.383 . S
C870 C869 1.379 . S
H871 C865 0.959 . S
H872 C865 0.961 . S
H873 C865 0.960 . S
H874 C866 0.930 . S
H875 C867 0.929 . S
H876 C884 0.929 . S
H877 C886 0.930 . S
H878 C888 0.930 . S
H879 C891 0.929 . S
H880 C894 0.930 . S
H881 C896 0.960 . S
H882 C896 0.960 . S
H883 C896 0.960 . S
C884 H876 0.929 . S
C884 C885 1.377 . S
C884 C886 1.384 . S
C885 C884 1.377 . S
C885 C891 1.390 . S
C886 H877 0.930 . S
C886 C884 1.384 . S
C886 C887 1.372 . S
C887 C886 1.372 . S
C887 C888 1.400 . S
C887 C892 1.490 . S
C888 H878 0.930 . S
C888 C887 1.400 . S
C888 C891 1.386 . S
H889 C905 0.930 . S
H890 C906 0.931 . S
C891 H879 0.929 . S
C891 C885 1.390 . S
C891 C888 1.386 . S
C892 C887 1.490 . S
C892 C894 1.395 . S
C892 C895 1.403 . S
H893 C899 0.930 . S
C894 H880 0.930 . S
C894 C892 1.395 . S
C894 C897 1.403 . S
C895 C892 1.403 . S
C895 C896 1.524 . S
C895 C899 1.400 . S
C896 H881 0.960 . S
C896 H882 0.960 . S
C896 H883 0.960 . S
C896 C895 1.524 . S
C897 C894 1.403 . S
C897 C898 1.392 . S
C897 C901 1.495 . S
C898 C897 1.392 . S
C898 C899 1.385 . S
C898 C900 1.478 . S
C899 H893 0.930 . S
C899 C895 1.400 . S
C899 C898 1.385 . S
C900 C898 1.478 . S
C900 C902 1.381 . S
C900 C906 1.383 . S
C901 C897 1.495 . S
C901 H907 0.959 . S
C901 H908 0.961 . S
C901 H909 0.960 . S
C902 C900 1.381 . S
C902 C903 1.394 . S
C902 H910 0.930 . S
C903 C902 1.394 . S
C903 C904 1.383 . S
C903 H911 0.929 . S
C904 C903 1.383 . S
C904 C905 1.377 . S
C905 H889 0.930 . S
C905 C904 1.377 . S
C905 C906 1.379 . S
C906 H890 0.931 . S
C906 C900 1.383 . S
C906 C905 1.379 . S
H907 C901 0.959 . S
H908 C901 0.961 . S
H909 C901 0.960 . S
H910 C902 0.930 . S
H911 C903 0.929 . S
H912 C920 0.929 . S
H913 C922 0.930 . S
H914 C924 0.930 . S
H915 C927 0.929 1_556 S
H916 C930 0.930 . S
H917 C932 0.960 . S
H918 C932 0.960 . S
H919 C932 0.960 1_455 S
C920 H912 0.929 . S
C920 C921 1.377 . S
C920 C922 1.384 . S
C921 C920 1.377 . S
C921 C927 1.390 1_655 S
C922 H913 0.930 . S
C922 C920 1.384 . S
C922 C923 1.372 1_654 S
C923 C922 1.372 1_456 S
C923 C924 1.400 . S
C923 C928 1.490 . S
C924 H914 0.930 . S
C924 C923 1.400 . S
C924 C927 1.386 1_556 S
H925 C941 0.930 . S
H926 C942 0.931 . S
C927 H915 0.929 1_554 S
C927 C921 1.390 1_455 S
C927 C924 1.386 1_554 S
C928 C923 1.490 . S
C928 C930 1.395 1_556 S
C928 C931 1.403 . S
H929 C935 0.930 . S
C930 H916 0.930 . S
C930 C928 1.395 1_554 S
C930 C933 1.403 1_554 S
C931 C928 1.403 . S
C931 C932 1.524 1_455 S
C931 C935 1.400 . S
C932 H917 0.960 . S
C932 H918 0.960 . S
C932 H919 0.960 1_655 S
C932 C931 1.524 1_655 S
C933 C930 1.403 1_556 S
C933 C934 1.392 . S
C933 C937 1.495 1_556 S
C934 C933 1.392 . S
C934 C935 1.385 . S
C934 C936 1.478 . S
C935 H929 0.930 . S
C935 C931 1.400 . S
C935 C934 1.385 . S
C936 C934 1.478 . S
C936 C938 1.381 . S
C936 C942 1.383 . S
C937 C933 1.495 1_554 S
C937 H943 0.959 . S
C937 H944 0.961 . S
C937 H945 0.960 . S
C938 C936 1.381 . S
C938 C939 1.394 . S
C938 H946 0.930 . S
C939 C938 1.394 . S
C939 C940 1.383 . S
C939 H947 0.929 . S
C940 C939 1.383 . S
C940 C941 1.377 . S
C941 H925 0.930 . S
C941 C940 1.377 . S
C941 C942 1.379 . S
C942 H926 0.931 . S
C942 C936 1.383 . S
C942 C941 1.379 . S
H943 C937 0.959 . S
H944 C937 0.961 . S
H945 C937 0.960 . S
H946 C938 0.930 . S
H947 C939 0.929 . S
H948 C956 0.929 . S
H949 C958 0.930 . S
H950 C960 0.930 . S
H951 C963 0.929 . S
H952 C966 0.930 . S
H953 C968 0.960 . S
H954 C968 0.960 1_565 S
H955 C968 0.960 . S
C956 H948 0.929 . S
C956 C957 1.377 . S
C956 C958 1.384 . S
C957 C956 1.377 . S
C957 C963 1.390 1_565 S
C958 H949 0.930 . S
C958 C956 1.384 . S
C958 C959 1.319 1_564 S
C959 C958 1.319 1_546 S
C959 C960 1.440 . S
C959 C964 1.506 . S
C960 H950 0.930 . S
C960 C959 1.440 . S
C960 C963 1.386 1_556 S
H961 C977 0.930 . S
H962 C978 0.931 . S
C963 H951 0.929 . S
C963 C957 1.390 1_545 S
C963 C960 1.386 1_554 S
C964 C959 1.506 . S
C964 C966 1.395 1_556 S
C964 C967 1.403 . S
H965 C971 0.930 . S
C966 H952 0.930 . S
C966 C964 1.395 1_554 S
C966 C969 1.403 1_554 S
C967 C964 1.403 . S
C967 C968 1.524 . S
C967 C971 1.400 . S
C968 H953 0.960 . S
C968 H954 0.960 1_545 S
C968 H955 0.960 . S
C968 C967 1.524 . S
C969 C966 1.403 1_556 S
C969 C970 1.392 . S
C969 C973 1.495 1_556 S
C970 C969 1.392 . S
C970 C971 1.385 . S
C970 C972 1.478 . S
C971 H965 0.930 . S
C971 C967 1.400 . S
C971 C970 1.385 . S
C972 C970 1.478 . S
C972 C974 1.381 . S
C972 C978 1.383 . S
C973 C969 1.495 1_554 S
C973 H979 0.959 . S
C973 H980 0.961 . S
C973 H981 0.960 . S
C974 C972 1.381 . S
C974 C975 1.394 . S
C974 H982 0.930 1_545 S
C975 C974 1.394 . S
C975 C976 1.383 . S
C975 H983 0.929 . S
C976 C975 1.383 . S
C976 C977 1.377 . S
C977 H961 0.930 . S
C977 C976 1.377 . S
C977 C978 1.379 . S
C978 H962 0.931 . S
C978 C972 1.383 . S
C978 C977 1.379 . S
H979 C973 0.959 . S
H980 C973 0.961 . S
H981 C973 0.960 . S
H982 C974 0.930 1_565 S
H983 C975 0.929 . S
H984 C992 0.929 . S
H985 C994 0.930 . S
H986 C996 0.930 . S
H987 C999 0.929 . S
H988 C1002 0.930 1_554 S
H989 C1004 0.960 . S
H990 C1004 0.960 . S
H991 C1004 0.960 . S
C992 H984 0.929 . S
C992 C993 1.377 . S
C992 C994 1.384 1_554 S
C993 C992 1.377 . S
C993 C999 1.390 . S
C994 H985 0.930 . S
C994 C992 1.384 1_556 S
C994 C995 1.372 . S
C995 C994 1.372 . S
C995 C996 1.400 1_556 S
C995 C1000 1.490 . S
C996 H986 0.930 . S
C996 C995 1.400 1_554 S
C996 C999 1.386 . S
H997 C1013 0.930 . S
H998 C1014 0.931 . S
C999 H987 0.929 . S
C999 C993 1.390 . S
C999 C996 1.386 . S
C1000 C995 1.490 . S
C1000 C1002 1.395 . S
C1000 C1003 1.403 . S
H1001 C1007 0.930 . S
C1002 H988 0.930 1_556 S
C1002 C1000 1.395 . S
C1002 C1005 1.403 . S
C1003 C1000 1.403 . S
C1003 C1004 1.524 . S
C1003 C1007 1.400 . S
C1004 H989 0.960 . S
C1004 H990 0.960 . S
C1004 H991 0.960 . S
C1004 C1003 1.524 . S
C1005 C1002 1.403 . S
C1005 C1006 1.392 . S
C1005 C1009 1.495 . S
C1006 C1005 1.392 . S
C1006 C1007 1.385 . S
C1006 C1008 1.478 . S
C1007 H1001 0.930 . S
C1007 C1003 1.400 . S
C1007 C1006 1.385 . S
C1008 C1006 1.478 . S
C1008 C1010 1.381 . S
C1008 C1014 1.383 . S
C1009 C1005 1.495 . S
C1009 H1015 0.959 1_556 S
C1009 H1016 0.961 . S
C1009 H1017 0.960 . S
C1010 C1008 1.381 . S
C1010 C1011 1.394 . S
C1010 H1018 0.930 . S
C1011 C1010 1.394 . S
C1011 C1012 1.383 . S
C1011 H1019 0.929 . S
C1012 C1011 1.383 . S
C1012 C1013 1.377 . S
C1013 H997 0.930 . S
C1013 C1012 1.377 . S
C1013 C1014 1.379 . S
C1014 H998 0.931 . S
C1014 C1008 1.383 . S
C1014 C1013 1.379 . S
H1015 C1009 0.959 1_554 S
H1016 C1009 0.961 . S
H1017 C1009 0.960 . S
H1018 C1010 0.930 . S
H1019 C1011 0.929 . S
H1020 C1028 0.929 . S
H1021 C1030 0.930 . S
H1022 C1032 0.930 . S
H1023 C1035 0.929 . S
H1024 C1038 0.930 . S
H1025 C1040 0.960 . S
H1026 C1040 0.960 . S
H1027 C1040 0.960 . S
C1028 H1020 0.929 . S
C1028 C1029 1.377 1_556 S
C1028 C1030 1.384 . S
C1029 C1028 1.377 1_554 S
C1029 C1035 1.390 . S
C1030 H1021 0.930 . S
C1030 C1028 1.384 . S
C1030 C1031 1.372 . S
C1031 C1030 1.372 . S
C1031 C1032 1.400 1_556 S
C1031 C1036 1.490 . S
C1032 H1022 0.930 . S
C1032 C1031 1.400 1_554 S
C1032 C1035 1.386 . S
H1033 C1049 0.930 . S
H1034 C1050 0.931 . S
C1035 H1023 0.929 . S
C1035 C1029 1.390 . S
C1035 C1032 1.386 . S
C1036 C1031 1.490 . S
C1036 C1038 1.395 . S
C1036 C1039 1.403 . S
H1037 C1043 0.930 . S
C1038 H1024 0.930 . S
C1038 C1036 1.395 . S
C1038 C1041 1.403 . S
C1039 C1036 1.403 . S
C1039 C1040 1.524 1_556 S
C1039 C1043 1.400 . S
C1040 H1025 0.960 . S
C1040 H1026 0.960 . S
C1040 H1027 0.960 . S
C1040 C1039 1.524 1_554 S
C1041 C1038 1.403 . S
C1041 C1042 1.392 . S
C1041 C1045 1.495 . S
C1042 C1041 1.392 . S
C1042 C1043 1.385 . S
C1042 C1044 1.478 . S
C1043 H1037 0.930 . S
C1043 C1039 1.400 . S
C1043 C1042 1.385 . S
C1044 C1042 1.478 . S
C1044 C1046 1.381 . S
C1044 C1050 1.383 . S
C1045 C1041 1.495 . S
C1045 H1051 0.959 . S
C1045 H1052 0.961 . S
C1045 H1053 0.960 . S
C1046 C1044 1.381 . S
C1046 C1047 1.394 . S
C1046 H1054 0.930 . S
C1047 C1046 1.394 . S
C1047 C1048 1.383 . S
C1047 H1055 0.929 . S
C1048 C1047 1.383 . S
C1048 C1049 1.377 . S
C1049 H1033 0.930 . S
C1049 C1048 1.377 . S
C1049 C1050 1.379 . S
C1050 H1034 0.931 . S
C1050 C1044 1.383 . S
C1050 C1049 1.379 . S
H1051 C1045 0.959 . S
H1052 C1045 0.961 . S
H1053 C1045 0.960 . S
H1054 C1046 0.930 . S
H1055 C1047 0.929 . S
H1056 C1064 0.929 . S
H1057 C1066 0.930 . S
H1058 C1068 0.930 . S
H1059 C1071 0.929 . S
H1060 C1074 0.930 . S
H1061 C1076 0.960 . S
H1062 C1076 0.960 . S
H1063 C1076 0.960 . S
C1064 H1056 0.929 . S
C1064 C1065 1.377 . S
C1064 C1066 1.384 . S
C1065 C1064 1.377 . S
C1065 C1071 1.390 1_455 S
C1066 H1057 0.930 . S
C1066 C1064 1.384 . S
C1066 C1067 1.372 . S
C1067 C1066 1.372 . S
C1067 C1068 1.400 1_455 S
C1067 C1072 1.490 . S
C1068 H1058 0.930 . S
C1068 C1067 1.400 1_655 S
C1068 C1071 1.386 . S
H1069 C1085 0.930 . S
H1070 C1086 0.931 . S
C1071 H1059 0.929 . S
C1071 C1065 1.390 1_655 S
C1071 C1068 1.386 . S
C1072 C1067 1.490 . S
C1072 C1074 1.395 1_455 S
C1072 C1075 1.403 . S
H1073 C1079 0.930 . S
C1074 H1060 0.930 . S
C1074 C1072 1.395 1_655 S
C1074 C1077 1.403 . S
C1075 C1072 1.403 . S
C1075 C1076 1.524 . S
C1075 C1079 1.400 . S
C1076 H1061 0.960 . S
C1076 H1062 0.960 . S
C1076 H1063 0.960 . S
C1076 C1075 1.524 . S
C1077 C1074 1.403 . S
C1077 C1078 1.392 1_655 S
C1077 C1081 1.495 . S
C1078 C1077 1.392 1_455 S
C1078 C1079 1.385 . S
C1078 C1080 1.478 . S
C1079 H1073 0.930 . S
C1079 C1075 1.400 . S
C1079 C1078 1.385 . S
C1080 C1078 1.478 . S
C1080 C1082 1.381 . S
C1080 C1086 1.383 1_455 S
C1081 C1077 1.495 . S
C1081 H1087 0.959 . S
C1081 H1088 0.961 . S
C1081 H1089 0.960 . S
C1082 C1080 1.381 . S
C1082 C1083 1.394 . S
C1082 H1090 0.930 . S
C1083 C1082 1.394 . S
C1083 C1084 1.383 . S
C1083 H1091 0.929 . S
C1084 C1083 1.383 . S
C1084 C1085 1.377 1_455 S
C1085 H1069 0.930 . S
C1085 C1084 1.377 1_655 S
C1085 C1086 1.379 . S
C1086 H1070 0.931 . S
C1086 C1080 1.383 1_655 S
C1086 C1085 1.379 . S
H1087 C1081 0.959 . S
H1088 C1081 0.961 . S
H1089 C1081 0.960 . S
H1090 C1082 0.930 . S
H1091 C1083 0.929 . S
H1092 C1100 0.929 . S
H1093 C1102 0.930 . S
H1094 C1104 0.930 . S
H1095 C1107 0.929 . S
H1096 C1110 0.930 . S
H1097 C1112 0.960 . S
H1098 C1112 0.960 . S
H1099 C1112 0.960 1_565 S
C1100 H1092 0.929 . S
C1100 C1101 1.377 . S
C1100 C1102 1.384 . S
C1101 C1100 1.377 . S
C1101 C1107 1.390 1_545 S
C1102 H1093 0.930 . S
C1102 C1100 1.384 . S
C1102 C1103 1.372 . S
C1103 C1102 1.372 . S
C1103 C1104 1.400 1_545 S
C1103 C1108 1.490 . S
C1104 H1094 0.930 . S
C1104 C1103 1.400 1_565 S
C1104 C1107 1.386 . S
H1105 C1121 0.930 . S
H1106 C1122 0.931 . S
C1107 H1095 0.929 . S
C1107 C1101 1.390 1_565 S
C1107 C1104 1.386 . S
C1108 C1103 1.490 . S
C1108 C1110 1.395 . S
C1108 C1111 1.403 . S
H1109 C1115 0.930 . S
C1110 H1096 0.930 . S
C1110 C1108 1.395 . S
C1110 C1113 1.403 . S
C1111 C1108 1.403 . S
C1111 C1112 1.524 . S
C1111 C1115 1.400 . S
C1112 H1097 0.960 . S
C1112 H1098 0.960 . S
C1112 H1099 0.960 1_545 S
C1112 C1111 1.524 . S
C1113 C1110 1.403 . S
C1113 C1114 1.392 . S
C1113 C1117 1.495 . S
C1114 C1113 1.392 . S
C1114 C1115 1.385 . S
C1114 C1116 1.478 . S
C1115 H1109 0.930 . S
C1115 C1111 1.400 . S
C1115 C1114 1.385 . S
C1116 C1114 1.478 . S
C1116 C1118 1.381 . S
C1116 C1122 1.383 1_545 S
C1117 C1113 1.495 . S
C1117 H1123 0.959 . S
C1117 H1124 0.961 . S
C1117 H1125 0.960 . S
C1118 C1116 1.381 . S
C1118 C1119 1.394 . S
C1118 H1126 0.930 . S
C1119 C1118 1.394 . S
C1119 C1120 1.383 . S
C1119 H1127 0.929 . S
C1120 C1119 1.383 . S
C1120 C1121 1.377 1_545 S
C1121 H1105 0.930 . S
C1121 C1120 1.377 1_565 S
C1121 C1122 1.379 . S
C1122 H1106 0.931 . S
C1122 C1116 1.383 1_565 S
C1122 C1121 1.379 . S
H1123 C1117 0.959 . S
H1124 C1117 0.961 . S
H1125 C1117 0.960 . S
H1126 C1118 0.930 . S
H1127 C1119 0.929 . S
H1128 C1136 0.929 . S
H1129 C1138 0.930 . S
H1130 C1140 0.930 . S
H1131 C1143 0.929 . S
H1132 C1146 0.930 . S
H1133 C1148 0.960 . S
H1134 C1148 0.960 . S
H1135 C1148 0.960 . S
C1136 H1128 0.929 . S
C1136 C1137 1.377 . S
C1136 C1138 1.384 . S
C1137 C1136 1.377 . S
C1137 C1143 1.390 . S
C1138 H1129 0.930 . S
C1138 C1136 1.384 . S
C1138 C1139 1.372 . S
C1139 C1138 1.372 . S
C1139 C1140 1.400 . S
C1139 C1144 1.490 . S
C1140 H1130 0.930 . S
C1140 C1139 1.400 . S
C1140 C1143 1.386 . S
H1141 C1157 0.930 . S
H1142 C1158 0.931 . S
C1143 H1131 0.929 . S
C1143 C1137 1.390 . S
C1143 C1140 1.386 . S
C1144 C1139 1.490 . S
C1144 C1146 1.395 . S
C1144 C1147 1.403 . S
H1145 C1151 0.930 . S
C1146 H1132 0.930 . S
C1146 C1144 1.395 . S
C1146 C1149 1.403 . S
C1147 C1144 1.403 . S
C1147 C1148 1.524 . S
C1147 C1151 1.400 . S
C1148 H1133 0.960 . S
C1148 H1134 0.960 . S
C1148 H1135 0.960 . S
C1148 C1147 1.524 . S
C1149 C1146 1.403 . S
C1149 C1150 1.392 . S
C1149 C1153 1.495 . S
C1150 C1149 1.392 . S
C1150 C1151 1.385 . S
C1150 C1152 1.478 . S
C1151 H1145 0.930 . S
C1151 C1147 1.400 . S
C1151 C1150 1.385 . S
C1152 C1150 1.478 . S
C1152 C1154 1.381 . S
C1152 C1158 1.383 . S
C1153 C1149 1.495 . S
C1153 H1159 0.959 . S
C1153 H1160 0.961 . S
C1153 H1161 0.960 . S
C1154 C1152 1.381 . S
C1154 C1155 1.394 . S
C1154 H1162 0.930 . S
C1155 C1154 1.394 . S
C1155 C1156 1.383 . S
C1155 H1163 0.929 . S
C1156 C1155 1.383 . S
C1156 C1157 1.377 . S
C1157 H1141 0.930 . S
C1157 C1156 1.377 . S
C1157 C1158 1.379 . S
C1158 H1142 0.931 . S
C1158 C1152 1.383 . S
C1158 C1157 1.379 . S
H1159 C1153 0.959 . S
H1160 C1153 0.961 . S
H1161 C1153 0.960 . S
H1162 C1154 0.930 . S
H1163 C1155 0.929 . S
H1164 C1172 0.929 . S
H1165 C1174 0.930 . S
H1166 C1176 0.930 . S
H1167 C1179 0.929 . S
H1168 C1182 0.930 . S
H1169 C1184 0.960 . S
H1170 C1184 0.960 . S
H1171 C1184 0.960 . S
C1172 H1164 0.929 . S
C1172 C1173 1.377 . S
C1172 C1174 1.384 . S
C1173 C1172 1.377 . S
C1173 C1179 1.390 . S
C1174 H1165 0.930 . S
C1174 C1172 1.384 . S
C1174 C1175 1.372 . S
C1175 C1174 1.372 . S
C1175 C1176 1.400 . S
C1175 C1180 1.490 . S
C1176 H1166 0.930 . S
C1176 C1175 1.400 . S
C1176 C1179 1.386 . S
H1177 C1193 0.930 . S
H1178 C1194 0.931 . S
C1179 H1167 0.929 . S
C1179 C1173 1.390 . S
C1179 C1176 1.386 . S
C1180 C1175 1.490 . S
C1180 C1182 1.395 . S
C1180 C1183 1.403 . S
H1181 C1187 0.930 . S
C1182 H1168 0.930 . S
C1182 C1180 1.395 . S
C1182 C1185 1.403 . S
C1183 C1180 1.403 . S
C1183 C1184 1.524 . S
C1183 C1187 1.400 . S
C1184 H1169 0.960 . S
C1184 H1170 0.960 . S
C1184 H1171 0.960 . S
C1184 C1183 1.524 . S
C1185 C1182 1.403 . S
C1185 C1186 1.392 . S
C1185 C1189 1.495 . S
C1186 C1185 1.392 . S
C1186 C1187 1.385 . S
C1186 C1188 1.478 . S
C1187 H1181 0.930 . S
C1187 C1183 1.400 . S
C1187 C1186 1.385 . S
C1188 C1186 1.478 . S
C1188 C1190 1.381 . S
C1188 C1194 1.383 . S
C1189 C1185 1.495 . S
C1189 H1195 0.959 . S
C1189 H1196 0.961 . S
C1189 H1197 0.960 . S
C1190 C1188 1.381 . S
C1190 C1191 1.394 . S
C1190 H1198 0.930 . S
C1191 C1190 1.394 . S
C1191 C1192 1.383 . S
C1191 H1199 0.929 . S
C1192 C1191 1.383 . S
C1192 C1193 1.377 . S
C1193 H1177 0.930 . S
C1193 C1192 1.377 . S
C1193 C1194 1.379 . S
C1194 H1178 0.931 . S
C1194 C1188 1.383 . S
C1194 C1193 1.379 . S
H1195 C1189 0.959 . S
H1196 C1189 0.961 . S
H1197 C1189 0.960 . S
H1198 C1190 0.930 . S
H1199 C1191 0.929 . S
H1200 C1208 0.929 . S
H1201 C1210 0.930 . S
H1202 C1212 0.930 . S
H1203 C1215 0.929 . S
H1204 C1218 0.930 . S
H1205 C1220 0.960 . S
H1206 C1220 0.960 . S
H1207 C1220 0.960 . S
C1208 H1200 0.929 . S
C1208 C1209 1.377 . S
C1208 C1210 1.384 . S
C1209 C1208 1.377 . S
C1209 C1215 1.390 1_655 S
C1210 H1201 0.930 . S
C1210 C1208 1.384 . S
C1210 C1211 1.372 . S
C1211 C1210 1.372 . S
C1211 C1212 1.400 1_655 S
C1211 C1216 1.490 . S
C1212 H1202 0.930 . S
C1212 C1211 1.400 1_455 S
C1212 C1215 1.386 . S
H1213 C1229 0.930 . S
H1214 C1230 0.931 . S
C1215 H1203 0.929 . S
C1215 C1209 1.390 1_455 S
C1215 C1212 1.386 . S
C1216 C1211 1.490 . S
C1216 C1218 1.395 . S
C1216 C1219 1.403 1_655 S
H1217 C1223 0.930 . S
C1218 H1204 0.930 . S
C1218 C1216 1.395 . S
C1218 C1221 1.403 . S
C1219 C1216 1.403 1_455 S
C1219 C1220 1.524 . S
C1219 C1223 1.400 . S
C1220 H1205 0.960 . S
C1220 H1206 0.960 . S
C1220 H1207 0.960 . S
C1220 C1219 1.524 . S
C1221 C1218 1.403 . S
C1221 C1222 1.392 . S
C1221 C1225 1.495 . S
C1222 C1221 1.392 . S
C1222 C1223 1.385 1_655 S
C1222 C1224 1.478 . S
C1223 H1217 0.930 . S
C1223 C1219 1.400 . S
C1223 C1222 1.385 1_455 S
C1224 C1222 1.478 . S
C1224 C1226 1.381 . S
C1224 C1230 1.383 1_655 S
C1225 C1221 1.495 . S
C1225 H1231 0.959 . S
C1225 H1232 0.961 . S
C1225 H1233 0.960 . S
C1226 C1224 1.381 . S
C1226 C1227 1.394 . S
C1226 H1234 0.930 . S
C1227 C1226 1.394 . S
C1227 C1228 1.383 . S
C1227 H1235 0.929 . S
C1228 C1227 1.383 . S
C1228 C1229 1.377 1_655 S
C1229 H1213 0.930 . S
C1229 C1228 1.377 1_455 S
C1229 C1230 1.379 . S
C1230 H1214 0.931 . S
C1230 C1224 1.383 1_455 S
C1230 C1229 1.379 . S
H1231 C1225 0.959 . S
H1232 C1225 0.961 . S
H1233 C1225 0.960 . S
H1234 C1226 0.930 . S
H1235 C1227 0.929 . S
H1236 C1244 0.929 . S
H1237 C1246 0.930 . S
H1238 C1248 0.930 . S
H1239 C1251 0.929 . S
H1240 C1254 0.930 . S
H1241 C1256 0.960 . S
H1242 C1256 0.960 1_565 S
H1243 C1256 0.960 . S
C1244 H1236 0.929 . S
C1244 C1245 1.377 . S
C1244 C1246 1.384 . S
C1245 C1244 1.377 . S
C1245 C1251 1.390 1_565 S
C1246 H1237 0.930 . S
C1246 C1244 1.384 . S
C1246 C1247 1.372 . S
C1247 C1246 1.372 . S
C1247 C1248 1.400 1_565 S
C1247 C1252 1.490 . S
C1248 H1238 0.930 . S
C1248 C1247 1.400 1_545 S
C1248 C1251 1.386 . S
H1249 C1265 0.930 . S
H1250 C1266 0.931 . S
C1251 H1239 0.929 . S
C1251 C1245 1.390 1_545 S
C1251 C1248 1.386 . S
C1252 C1247 1.490 . S
C1252 C1254 1.395 . S
C1252 C1255 1.414 . S
H1253 C1259 0.930 1_545 S
C1254 H1240 0.930 . S
C1254 C1252 1.395 . S
C1254 C1257 1.403 . S
C1255 C1252 1.414 . S
C1255 C1256 1.513 1_565 S
C1255 C1259 1.401 . S
C1256 H1241 0.960 . S
C1256 H1242 0.960 1_545 S
C1256 H1243 0.960 . S
C1256 C1255 1.513 1_545 S
C1257 C1254 1.403 . S
C1257 C1258 1.392 . S
C1257 C1261 1.495 . S
C1258 C1257 1.392 . S
C1258 C1259 1.385 . S
C1258 C1260 1.478 . S
C1259 H1253 0.930 1_565 S
C1259 C1255 1.401 . S
C1259 C1258 1.385 . S
C1260 C1258 1.478 . S
C1260 C1262 1.381 . S
C1260 C1266 1.383 1_565 S
C1261 C1257 1.495 . S
C1261 H1267 0.959 . S
C1261 H1268 0.961 . S
C1261 H1269 0.960 . S
C1262 C1260 1.381 . S
C1262 C1263 1.394 . S
C1262 H1270 0.930 . S
C1263 C1262 1.394 . S
C1263 C1264 1.383 . S
C1263 H1271 0.929 . S
C1264 C1263 1.383 . S
C1264 C1265 1.377 1_565 S
C1265 H1249 0.930 . S
C1265 C1264 1.377 1_545 S
C1265 C1266 1.379 . S
C1266 H1250 0.931 . S
C1266 C1260 1.383 1_545 S
C1266 C1265 1.379 . S
H1267 C1261 0.959 . S
H1268 C1261 0.961 . S
H1269 C1261 0.960 . S
H1270 C1262 0.930 . S
H1271 C1263 0.929 . S
H1272 C1280 0.929 . S
H1273 C1282 0.930 . S
H1274 C1284 0.930 . S
H1275 C1287 0.929 . S
H1276 C1290 0.930 . S
H1277 C1292 0.960 . S
H1278 C1292 0.960 . S
H1279 C1292 0.960 . S
C1280 H1272 0.929 . S
C1280 C1281 1.377 . S
C1280 C1282 1.384 . S
C1281 C1280 1.377 . S
C1281 C1287 1.390 . S
C1282 H1273 0.930 . S
C1282 C1280 1.384 . S
C1282 C1283 1.372 . S
C1283 C1282 1.372 . S
C1283 C1284 1.400 . S
C1283 C1288 1.490 . S
C1284 H1274 0.930 . S
C1284 C1283 1.400 . S
C1284 C1287 1.386 . S
H1285 C1301 0.930 . S
H1286 C1302 0.931 . S
C1287 H1275 0.929 . S
C1287 C1281 1.390 . S
C1287 C1284 1.386 . S
C1288 C1283 1.490 . S
C1288 C1290 1.395 . S
C1288 C1291 1.403 . S
H1289 C1295 0.930 . S
C1290 H1276 0.930 . S
C1290 C1288 1.395 . S
C1290 C1293 1.403 . S
C1291 C1288 1.403 . S
C1291 C1292 1.524 . S
C1291 C1295 1.400 . S
C1292 H1277 0.960 . S
C1292 H1278 0.960 . S
C1292 H1279 0.960 . S
C1292 C1291 1.524 . S
C1293 C1290 1.403 . S
C1293 C1294 1.392 . S
C1293 C1297 1.495 . S
C1294 C1293 1.392 . S
C1294 C1295 1.385 . S
C1294 C1296 1.478 . S
C1295 H1289 0.930 . S
C1295 C1291 1.400 . S
C1295 C1294 1.385 . S
C1296 C1294 1.478 . S
C1296 C1298 1.381 . S
C1296 C1302 1.383 . S
C1297 C1293 1.495 . S
C1297 H1303 0.959 . S
C1297 H1304 0.961 . S
C1297 H1305 0.960 . S
C1298 C1296 1.381 . S
C1298 C1299 1.394 . S
C1298 H1306 0.930 . S
C1299 C1298 1.394 . S
C1299 C1300 1.383 . S
C1299 H1307 0.929 . S
C1300 C1299 1.383 . S
C1300 C1301 1.377 . S
C1301 H1285 0.930 . S
C1301 C1300 1.377 . S
C1301 C1302 1.379 . S
C1302 H1286 0.931 . S
C1302 C1296 1.383 . S
C1302 C1301 1.379 . S
H1303 C1297 0.959 . S
H1304 C1297 0.961 . S
H1305 C1297 0.960 . S
H1306 C1298 0.930 . S
H1307 C1299 0.929 . S
H1308 C1316 0.929 . S
H1309 C1318 0.930 . S
H1310 C1320 0.930 . S
H1311 C1323 0.929 . S
H1312 C1326 0.930 . S
H1313 C1328 0.960 . S
H1314 C1328 0.960 . S
H1315 C1328 0.960 . S
C1316 H1308 0.929 . S
C1316 C1317 1.377 . S
C1316 C1318 1.384 . S
C1317 C1316 1.377 . S
C1317 C1323 1.390 . S
C1318 H1309 0.930 . S
C1318 C1316 1.384 . S
C1318 C1319 1.372 . S
C1319 C1318 1.372 . S
C1319 C1320 1.400 . S
C1319 C1324 1.490 . S
C1320 H1310 0.930 . S
C1320 C1319 1.400 . S
C1320 C1323 1.386 . S
H1321 C1337 0.930 . S
H1322 C1338 0.931 . S
C1323 H1311 0.929 . S
C1323 C1317 1.390 . S
C1323 C1320 1.386 . S
C1324 C1319 1.490 . S
C1324 C1326 1.395 . S
C1324 C1327 1.403 . S
H1325 C1331 0.930 . S
C1326 H1312 0.930 . S
C1326 C1324 1.395 . S
C1326 C1329 1.403 . S
C1327 C1324 1.403 . S
C1327 C1328 1.524 . S
C1327 C1331 1.400 . S
C1328 H1313 0.960 . S
C1328 H1314 0.960 . S
C1328 H1315 0.960 . S
C1328 C1327 1.524 . S
C1329 C1326 1.403 . S
C1329 C1330 1.392 . S
C1329 C1333 1.495 . S
C1330 C1329 1.392 . S
C1330 C1331 1.385 . S
C1330 C1332 1.478 . S
C1331 H1325 0.930 . S
C1331 C1327 1.400 . S
C1331 C1330 1.385 . S
C1332 C1330 1.478 . S
C1332 C1334 1.381 . S
C1332 C1338 1.383 . S
C1333 C1329 1.495 . S
C1333 H1339 0.959 . S
C1333 H1340 0.961 . S
C1333 H1341 0.960 . S
C1334 C1332 1.381 . S
C1334 C1335 1.394 . S
C1334 H1342 0.930 . S
C1335 C1334 1.394 . S
C1335 C1336 1.383 . S
C1335 H1343 0.929 . S
C1336 C1335 1.383 . S
C1336 C1337 1.377 . S
C1337 H1321 0.930 . S
C1337 C1336 1.377 . S
C1337 C1338 1.379 . S
C1338 H1322 0.931 . S
C1338 C1332 1.383 . S
C1338 C1337 1.379 . S
H1339 C1333 0.959 . S
H1340 C1333 0.961 . S
H1341 C1333 0.960 . S
H1342 C1334 0.930 . S
H1343 C1335 0.929 . S
C489 C255 1.957 . S
C508 C329 2.072 . S
C544 C369 2.073 . S
C525 C295 1.964 . S
C580 C409 2.074 . S
C561 C175 1.964 . S
C616 C449 2.077 1_455 S
C597 C215 1.956 1_655 S
C652 C338 2.081 1_565 S
C633 C95 1.969 . S
C669 C135 1.954 . S
C688 C378 2.069 . S
C705 C15 1.964 . S
C724 C418 2.081 . S
C741 C55 1.961 1_655 S
C760 C458 2.083 1_655 S
C796 C335 0.334 . S
C777 C221 0.280 . S
C832 C375 0.363 . S
C813 C261 0.296 . S
C868 C415 0.355 . S
C849 C301 0.295 . S
C885 C181 0.280 . S
C904 C455 0.343 . S
C921 C61 0.428 1_655 S
C940 C326 0.298 . S
C976 C366 0.296 . S
C957 C101 0.445 . S
C1012 C406 0.204 . S
C993 C141 0.424 . S
C1029 C21 0.417 . S
C1048 C446 0.203 . S
C1065 C202 2.797 . S
C1084 C339 3.061 . S
C1101 C242 2.798 . S
C1120 C379 3.062 . S
C1156 C419 3.059 . S
C1137 C282 2.792 . S
C1192 C459 3.067 . S
C1173 C162 2.797 . S
C1209 C42 2.806 1_655 S
C1228 C330 3.072 . S
C1264 C370 3.060 . S
C1245 C82 2.797 . S
C1300 C410 3.050 . S
C1281 C122 2.811 . S
C1317 C2 2.804 . S
C1336 C450 3.084 . S
