# Generated by pormake.
# Topology iac, (4,6)-cn, num edge types: 1
# Building blocks:
#     Node 0, Type 0, BuildingBlock: GALJAG_clean_sbu_0, # of connection points: 4
#     Node 1, Type 0, BuildingBlock: GALJAG_clean_sbu_0, # of connection points: 4
#     Node 2, Type 0, BuildingBlock: GALJAG_clean_sbu_0, # of connection points: 4
#     Node 3, Type 0, BuildingBlock: GALJAG_clean_sbu_0, # of connection points: 4
#     Node 4, Type 0, BuildingBlock: GALJAG_clean_sbu_0, # of connection points: 4
#     Node 5, Type 0, BuildingBlock: GALJAG_clean_sbu_0, # of connection points: 4
#     Node 6, Type 0, BuildingBlock: GALJAG_clean_sbu_0, # of connection points: 4
#     Node 7, Type 0, BuildingBlock: GALJAG_clean_sbu_0, # of connection points: 4
#     Node 8, Type 0, BuildingBlock: GALJAG_clean_sbu_0, # of connection points: 4
#     Node 9, Type 0, BuildingBlock: GALJAG_clean_sbu_0, # of connection points: 4
#     Node 10, Type 0, BuildingBlock: GALJAG_clean_sbu_0, # of connection points: 4
#     Node 11, Type 0, BuildingBlock: GALJAG_clean_sbu_0, # of connection points: 4
#     Node 12, Type 0, BuildingBlock: GALJAG_clean_sbu_0, # of connection points: 4
#     Node 13, Type 0, BuildingBlock: GALJAG_clean_sbu_0, # of connection points: 4
#     Node 14, Type 0, BuildingBlock: GALJAG_clean_sbu_0, # of connection points: 4
#     Node 15, Type 0, BuildingBlock: GALJAG_clean_sbu_0, # of connection points: 4
#     Node 16, Type 0, BuildingBlock: GALJAG_clean_sbu_0, # of connection points: 4
#     Node 17, Type 0, BuildingBlock: GALJAG_clean_sbu_0, # of connection points: 4
#     Node 18, Type 0, BuildingBlock: GALJAG_clean_sbu_0, # of connection points: 4
#     Node 19, Type 0, BuildingBlock: GALJAG_clean_sbu_0, # of connection points: 4
#     Node 20, Type 0, BuildingBlock: GALJAG_clean_sbu_0, # of connection points: 4
#     Node 21, Type 0, BuildingBlock: GALJAG_clean_sbu_0, # of connection points: 4
#     Node 22, Type 0, BuildingBlock: GALJAG_clean_sbu_0, # of connection points: 4
#     Node 23, Type 0, BuildingBlock: GALJAG_clean_sbu_0, # of connection points: 4
#     Node 24, Type 1, BuildingBlock: JUFBIX_clean_sbu_0, # of connection points: 6
#     Node 25, Type 1, BuildingBlock: JUFBIX_clean_sbu_0, # of connection points: 6
#     Node 26, Type 1, BuildingBlock: JUFBIX_clean_sbu_0, # of connection points: 6
#     Node 27, Type 1, BuildingBlock: JUFBIX_clean_sbu_0, # of connection points: 6
#     Node 28, Type 1, BuildingBlock: JUFBIX_clean_sbu_0, # of connection points: 6
#     Node 29, Type 1, BuildingBlock: JUFBIX_clean_sbu_0, # of connection points: 6
#     Node 30, Type 1, BuildingBlock: JUFBIX_clean_sbu_0, # of connection points: 6
#     Node 31, Type 1, BuildingBlock: JUFBIX_clean_sbu_0, # of connection points: 6
#     Node 32, Type 1, BuildingBlock: JUFBIX_clean_sbu_0, # of connection points: 6
#     Node 33, Type 1, BuildingBlock: JUFBIX_clean_sbu_0, # of connection points: 6
#     Node 34, Type 1, BuildingBlock: JUFBIX_clean_sbu_0, # of connection points: 6
#     Node 35, Type 1, BuildingBlock: JUFBIX_clean_sbu_0, # of connection points: 6
#     Node 36, Type 1, BuildingBlock: JUFBIX_clean_sbu_0, # of connection points: 6
#     Node 37, Type 1, BuildingBlock: JUFBIX_clean_sbu_0, # of connection points: 6
#     Node 38, Type 1, BuildingBlock: JUFBIX_clean_sbu_0, # of connection points: 6
#     Node 39, Type 1, BuildingBlock: JUFBIX_clean_sbu_0, # of connection points: 6
#     Edge 40, Type (0, 1), BuildingBlock: ZUJKAS_clean_linker_0, # of connection points: 2
#     Edge 41, Type (0, 1), BuildingBlock: ZUJKAS_clean_linker_0, # of connection points: 2
#     Edge 42, Type (0, 1), BuildingBlock: ZUJKAS_clean_linker_0, # of connection points: 2
#     Edge 43, Type (0, 1), BuildingBlock: ZUJKAS_clean_linker_0, # of connection points: 2
#     Edge 44, Type (0, 1), BuildingBlock: ZUJKAS_clean_linker_0, # of connection points: 2
#     Edge 45, Type (0, 1), BuildingBlock: ZUJKAS_clean_linker_0, # of connection points: 2
#     Edge 46, Type (0, 1), BuildingBlock: ZUJKAS_clean_linker_0, # of connection points: 2
#     Edge 47, Type (0, 1), BuildingBlock: ZUJKAS_clean_linker_0, # of connection points: 2
#     Edge 48, Type (0, 1), BuildingBlock: ZUJKAS_clean_linker_0, # of connection points: 2
#     Edge 49, Type (0, 1), BuildingBlock: ZUJKAS_clean_linker_0, # of connection points: 2
#     Edge 50, Type (0, 1), BuildingBlock: ZUJKAS_clean_linker_0, # of connection points: 2
#     Edge 51, Type (0, 1), BuildingBlock: ZUJKAS_clean_linker_0, # of connection points: 2
#     Edge 52, Type (0, 1), BuildingBlock: ZUJKAS_clean_linker_0, # of connection points: 2
#     Edge 53, Type (0, 1), BuildingBlock: ZUJKAS_clean_linker_0, # of connection points: 2
#     Edge 54, Type (0, 1), BuildingBlock: ZUJKAS_clean_linker_0, # of connection points: 2
#     Edge 55, Type (0, 1), BuildingBlock: ZUJKAS_clean_linker_0, # of connection points: 2
#     Edge 56, Type (0, 1), BuildingBlock: ZUJKAS_clean_linker_0, # of connection points: 2
#     Edge 57, Type (0, 1), BuildingBlock: ZUJKAS_clean_linker_0, # of connection points: 2
#     Edge 58, Type (0, 1), BuildingBlock: ZUJKAS_clean_linker_0, # of connection points: 2
#     Edge 59, Type (0, 1), BuildingBlock: ZUJKAS_clean_linker_0, # of connection points: 2
#     Edge 60, Type (0, 1), BuildingBlock: ZUJKAS_clean_linker_0, # of connection points: 2
#     Edge 61, Type (0, 1), BuildingBlock: ZUJKAS_clean_linker_0, # of connection points: 2
#     Edge 62, Type (0, 1), BuildingBlock: ZUJKAS_clean_linker_0, # of connection points: 2
#     Edge 63, Type (0, 1), BuildingBlock: ZUJKAS_clean_linker_0, # of connection points: 2
#     Edge 64, Type (0, 1), BuildingBlock: ZUJKAS_clean_linker_0, # of connection points: 2
#     Edge 65, Type (0, 1), BuildingBlock: ZUJKAS_clean_linker_0, # of connection points: 2
#     Edge 66, Type (0, 1), BuildingBlock: ZUJKAS_clean_linker_0, # of connection points: 2
#     Edge 67, Type (0, 1), BuildingBlock: ZUJKAS_clean_linker_0, # of connection points: 2
#     Edge 68, Type (0, 1), BuildingBlock: ZUJKAS_clean_linker_0, # of connection points: 2
#     Edge 69, Type (0, 1), BuildingBlock: ZUJKAS_clean_linker_0, # of connection points: 2
#     Edge 70, Type (0, 1), BuildingBlock: ZUJKAS_clean_linker_0, # of connection points: 2
#     Edge 71, Type (0, 1), BuildingBlock: ZUJKAS_clean_linker_0, # of connection points: 2
#     Edge 72, Type (0, 1), BuildingBlock: ZUJKAS_clean_linker_0, # of connection points: 2
#     Edge 73, Type (0, 1), BuildingBlock: ZUJKAS_clean_linker_0, # of connection points: 2
#     Edge 74, Type (0, 1), BuildingBlock: ZUJKAS_clean_linker_0, # of connection points: 2
#     Edge 75, Type (0, 1), BuildingBlock: ZUJKAS_clean_linker_0, # of connection points: 2
#     Edge 76, Type (0, 1), BuildingBlock: ZUJKAS_clean_linker_0, # of connection points: 2
#     Edge 77, Type (0, 1), BuildingBlock: ZUJKAS_clean_linker_0, # of connection points: 2
#     Edge 78, Type (0, 1), BuildingBlock: ZUJKAS_clean_linker_0, # of connection points: 2
#     Edge 79, Type (0, 1), BuildingBlock: ZUJKAS_clean_linker_0, # of connection points: 2
#     Edge 80, Type (0, 1), BuildingBlock: ZUJKAS_clean_linker_0, # of connection points: 2
#     Edge 81, Type (0, 1), BuildingBlock: ZUJKAS_clean_linker_0, # of connection points: 2
#     Edge 82, Type (0, 1), BuildingBlock: ZUJKAS_clean_linker_0, # of connection points: 2
#     Edge 83, Type (0, 1), BuildingBlock: ZUJKAS_clean_linker_0, # of connection points: 2
#     Edge 84, Type (0, 1), BuildingBlock: ZUJKAS_clean_linker_0, # of connection points: 2
#     Edge 85, Type (0, 1), BuildingBlock: ZUJKAS_clean_linker_0, # of connection points: 2
#     Edge 86, Type (0, 1), BuildingBlock: ZUJKAS_clean_linker_0, # of connection points: 2
#     Edge 87, Type (0, 1), BuildingBlock: ZUJKAS_clean_linker_0, # of connection points: 2
#     Edge 88, Type (0, 1), BuildingBlock: ZUJKAS_clean_linker_0, # of connection points: 2
#     Edge 89, Type (0, 1), BuildingBlock: ZUJKAS_clean_linker_0, # of connection points: 2
#     Edge 90, Type (0, 1), BuildingBlock: ZUJKAS_clean_linker_0, # of connection points: 2
#     Edge 91, Type (0, 1), BuildingBlock: ZUJKAS_clean_linker_0, # of connection points: 2
#     Edge 92, Type (0, 1), BuildingBlock: ZUJKAS_clean_linker_0, # of connection points: 2
#     Edge 93, Type (0, 1), BuildingBlock: ZUJKAS_clean_linker_0, # of connection points: 2
#     Edge 94, Type (0, 1), BuildingBlock: ZUJKAS_clean_linker_0, # of connection points: 2
#     Edge 95, Type (0, 1), BuildingBlock: ZUJKAS_clean_linker_0, # of connection points: 2
#     Edge 96, Type (0, 1), BuildingBlock: ZUJKAS_clean_linker_0, # of connection points: 2
#     Edge 97, Type (0, 1), BuildingBlock: ZUJKAS_clean_linker_0, # of connection points: 2
#     Edge 98, Type (0, 1), BuildingBlock: ZUJKAS_clean_linker_0, # of connection points: 2
#     Edge 99, Type (0, 1), BuildingBlock: ZUJKAS_clean_linker_0, # of connection points: 2
#     Edge 100, Type (0, 1), BuildingBlock: ZUJKAS_clean_linker_0, # of connection points: 2
#     Edge 101, Type (0, 1), BuildingBlock: ZUJKAS_clean_linker_0, # of connection points: 2
#     Edge 102, Type (0, 1), BuildingBlock: ZUJKAS_clean_linker_0, # of connection points: 2
#     Edge 103, Type (0, 1), BuildingBlock: ZUJKAS_clean_linker_0, # of connection points: 2
#     Edge 104, Type (0, 1), BuildingBlock: ZUJKAS_clean_linker_0, # of connection points: 2
#     Edge 105, Type (0, 1), BuildingBlock: ZUJKAS_clean_linker_0, # of connection points: 2
#     Edge 106, Type (0, 1), BuildingBlock: ZUJKAS_clean_linker_0, # of connection points: 2
#     Edge 107, Type (0, 1), BuildingBlock: ZUJKAS_clean_linker_0, # of connection points: 2
#     Edge 108, Type (0, 1), BuildingBlock: ZUJKAS_clean_linker_0, # of connection points: 2
#     Edge 109, Type (0, 1), BuildingBlock: ZUJKAS_clean_linker_0, # of connection points: 2
#     Edge 110, Type (0, 1), BuildingBlock: ZUJKAS_clean_linker_0, # of connection points: 2
#     Edge 111, Type (0, 1), BuildingBlock: ZUJKAS_clean_linker_0, # of connection points: 2
#     Edge 112, Type (0, 1), BuildingBlock: ZUJKAS_clean_linker_0, # of connection points: 2
#     Edge 113, Type (0, 1), BuildingBlock: ZUJKAS_clean_linker_0, # of connection points: 2
#     Edge 114, Type (0, 1), BuildingBlock: ZUJKAS_clean_linker_0, # of connection points: 2
#     Edge 115, Type (0, 1), BuildingBlock: ZUJKAS_clean_linker_0, # of connection points: 2
#     Edge 116, Type (0, 1), BuildingBlock: ZUJKAS_clean_linker_0, # of connection points: 2
#     Edge 117, Type (0, 1), BuildingBlock: ZUJKAS_clean_linker_0, # of connection points: 2
#     Edge 118, Type (0, 1), BuildingBlock: ZUJKAS_clean_linker_0, # of connection points: 2
#     Edge 119, Type (0, 1), BuildingBlock: ZUJKAS_clean_linker_0, # of connection points: 2
#     Edge 120, Type (0, 1), BuildingBlock: ZUJKAS_clean_linker_0, # of connection points: 2
#     Edge 121, Type (0, 1), BuildingBlock: ZUJKAS_clean_linker_0, # of connection points: 2
#     Edge 122, Type (0, 1), BuildingBlock: ZUJKAS_clean_linker_0, # of connection points: 2
#     Edge 123, Type (0, 1), BuildingBlock: ZUJKAS_clean_linker_0, # of connection points: 2
#     Edge 124, Type (0, 1), BuildingBlock: ZUJKAS_clean_linker_0, # of connection points: 2
#     Edge 125, Type (0, 1), BuildingBlock: ZUJKAS_clean_linker_0, # of connection points: 2
#     Edge 126, Type (0, 1), BuildingBlock: ZUJKAS_clean_linker_0, # of connection points: 2
#     Edge 127, Type (0, 1), BuildingBlock: ZUJKAS_clean_linker_0, # of connection points: 2
#     Edge 128, Type (0, 1), BuildingBlock: ZUJKAS_clean_linker_0, # of connection points: 2
#     Edge 129, Type (0, 1), BuildingBlock: ZUJKAS_clean_linker_0, # of connection points: 2
#     Edge 130, Type (0, 1), BuildingBlock: ZUJKAS_clean_linker_0, # of connection points: 2
#     Edge 131, Type (0, 1), BuildingBlock: ZUJKAS_clean_linker_0, # of connection points: 2
#     Edge 132, Type (0, 1), BuildingBlock: ZUJKAS_clean_linker_0, # of connection points: 2
#     Edge 133, Type (0, 1), BuildingBlock: ZUJKAS_clean_linker_0, # of connection points: 2
#     Edge 134, Type (0, 1), BuildingBlock: ZUJKAS_clean_linker_0, # of connection points: 2
#     Edge 135, Type (0, 1), BuildingBlock: ZUJKAS_clean_linker_0, # of connection points: 2
# Relax obj value: 0.247
# Max RMSD: 0.231
# Mean RMSD: 0.154
data_MOF--net-iac--node1-GALJAG_clean_sbu_0--node2-JUFBIX_clean_sbu_0--edge1-ZUJKAS_clean_linker_0
_symmetry_space_group_name_H-M    P1
_symmetry_Int_Tables_number       1
_symmetry_cell_setting            triclinic
loop_
_symmetry_equiv_pos_as_xyz
'x, y, z'
_cell_length_a     70.185315
_cell_length_b     71.360734
_cell_length_c     70.752703
_cell_angle_alpha  89.48343
_cell_angle_beta   88.587895
_cell_angle_gamma 89.138079
loop_
_atom_site_label
_atom_site_type_symbol
_atom_site_fract_x
_atom_site_fract_y
_atom_site_fract_z
_atom_type_partial_charge
In0 In 0.02385 0.27116 0.14155 0.0
O1 O 0.02731 0.25136 0.11577 0.0
O2 O 0.01962 0.23917 0.14214 0.0
C3 C 0.0251 0.30453 0.12185 0.0
C4 C 0.98954 0.27318 0.1607 0.0
C5 C 0.05707 0.27118 0.161 0.0
O6 O 0.01887 0.28966 0.11488 0.0
O7 O 0.03096 0.30249 0.13844 0.0
O8 O 0.04134 0.27714 0.16777 0.0
O9 O 0.05616 0.26511 0.14432 0.0
C10 C 0.02316 0.23656 0.1248 0.0
O11 O 0.00487 0.26844 0.16847 0.0
O12 O 0.99145 0.27689 0.14331 0.0
In13 In 0.03406 0.76369 0.40412 0.0
O14 O 0.05262 0.77571 0.38029 0.0
O15 O 0.06547 0.77051 0.40671 0.0
C16 C 0.0039 0.75677 0.38273 0.0
C17 C 0.04262 0.72965 0.41851 0.0
C18 C 0.02085 0.79252 0.42512 0.0
O19 O 0.0207 0.75725 0.37599 0.0
O20 O 0.00238 0.75954 0.40029 0.0
O21 O 0.0229 0.7762 0.43183 0.0
O22 O 0.02554 0.79429 0.40787 0.0
C23 C 0.06749 0.77622 0.38989 0.0
O24 O 0.04129 0.74414 0.42855 0.0
O25 O 0.03966 0.73234 0.4012 0.0
In26 In 0.52281 0.77305 0.64098 0.0
O27 O 0.53236 0.7916 0.6153 0.0
O28 O 0.51607 0.80447 0.6372 0.0
C29 C 0.51955 0.73922 0.6231 0.0
C30 C 0.55552 0.77348 0.66161 0.0
C31 C 0.4881 0.77362 0.65916 0.0
O32 O 0.52219 0.75444 0.61419 0.0
O33 O 0.51858 0.74109 0.6408 0.0
O34 O 0.50325 0.76857 0.66719 0.0
O35 O 0.49041 0.77816 0.64197 0.0
C36 C 0.52457 0.80649 0.62145 0.0
O37 O 0.54014 0.7813 0.66699 0.0
O38 O 0.55449 0.76546 0.64589 0.0
In39 In 0.52864 0.26821 0.91518 0.0
O40 O 0.54666 0.26883 0.88803 0.0
O41 O 0.5597 0.27707 0.91336 0.0
C42 C 0.49882 0.2754 0.89299 0.0
C43 C 0.53531 0.23313 0.92806 0.0
C44 C 0.51766 0.29109 0.94355 0.0
O45 O 0.5123 0.28673 0.89466 0.0
O46 O 0.50051 0.26035 0.90235 0.0
O47 O 0.50903 0.27619 0.94002 0.0
O48 O 0.53196 0.2943 0.93292 0.0
C49 C 0.56146 0.27446 0.8958 0.0
O50 O 0.53833 0.24749 0.93771 0.0
O51 O 0.52881 0.23644 0.9119 0.0
In52 In 0.15523 0.99936 0.28832 0.0
O53 O 0.18227 0.98826 0.27382 0.0
O54 O 0.17728 0.9805 0.30255 0.0
C55 C 0.16943 0.0333 0.29502 0.0
C56 C 0.13615 0.99569 0.25612 0.0
C57 C 0.12661 0.9915 0.31298 0.0
O58 O 0.16498 0.02209 0.30825 0.0
O59 O 0.16684 0.02727 0.27862 0.0
O60 O 0.12903 0.00755 0.30581 0.0
O61 O 0.13876 0.97926 0.30779 0.0
C62 C 0.18815 0.97949 0.28812 0.0
O63 O 0.14312 0.98172 0.26473 0.0
O64 O 0.13882 0.01126 0.26378 0.0
In65 In 0.25842 0.88971 0.53062 0.0
O66 O 0.23745 0.91395 0.52696 0.0
O67 O 0.22631 0.88646 0.52897 0.0
C68 C 0.29093 0.90851 0.52459 0.0
C69 C 0.25704 0.88109 0.56769 0.0
C70 C 0.26261 0.86508 0.50231 0.0
O71 O 0.27473 0.91592 0.52217 0.0
O72 O 0.2907 0.89177 0.53046 0.0
O73 O 0.26389 0.86029 0.51944 0.0
O74 O 0.25891 0.88223 0.49951 0.0
C75 C 0.2229 0.90378 0.52737 0.0
O76 O 0.25659 0.86887 0.55496 0.0
O77 O 0.25871 0.8977 0.56174 0.0
In78 In 0.38842 0.03686 0.75089 0.0
O79 O 0.3685 0.06203 0.74838 0.0
O80 O 0.39839 0.06686 0.74872 0.0
C81 C 0.36419 0.00914 0.75951 0.0
C82 C 0.39914 0.03055 0.7149 0.0
C83 C 0.41003 0.03479 0.78151 0.0
O84 O 0.35914 0.02616 0.76052 0.0
O85 O 0.38118 0.00631 0.75398 0.0
O86 O 0.41593 0.02918 0.7655 0.0
O87 O 0.39331 0.04155 0.78198 0.0
C88 C 0.38181 0.07375 0.74754 0.0
O89 O 0.41051 0.02877 0.72836 0.0
O90 O 0.38231 0.03519 0.71966 0.0
In91 In 0.26354 0.14953 0.02396 0.0
O92 O 0.28275 0.12358 0.02843 0.0
O93 O 0.29521 0.14724 0.01502 0.0
C94 C 0.23069 0.12933 0.02526 0.0
C95 C 0.26514 0.16731 0.05821 0.0
C96 C 0.26273 0.16813 0.98991 0.0
O97 O 0.24691 0.12214 0.02176 0.0
O98 O 0.23096 0.14674 0.02828 0.0
O99 O 0.26888 0.17547 0.00472 0.0
O100 O 0.25683 0.15166 0.99234 0.0
C101 C 0.29754 0.13068 0.02103 0.0
O102 O 0.25696 0.17452 0.04414 0.0
O103 O 0.27234 0.15135 0.055 0.0
In104 In 0.7552 0.38874 0.03582 0.0
O105 O 0.7512 0.36988 0.06164 0.0
O106 O 0.75676 0.39867 0.06619 0.0
C107 C 0.76253 0.36328 0.00871 0.0
C108 C 0.71925 0.40053 0.03031 0.0
C109 C 0.78592 0.41014 0.03001 0.0
O110 O 0.76579 0.35994 0.02589 0.0
O111 O 0.75526 0.3792 0.00541 0.0
O112 O 0.76915 0.41645 0.02834 0.0
O113 O 0.78715 0.39312 0.0349 0.0
C114 C 0.75331 0.38283 0.07339 0.0
O115 O 0.73344 0.41089 0.0274 0.0
O116 O 0.72321 0.38408 0.03574 0.0
In117 In 0.89199 0.53764 0.25857 0.0
O118 O 0.91365 0.54713 0.23643 0.0
O119 O 0.89198 0.52874 0.2278 0.0
C120 C 0.91856 0.53722 0.2852 0.0
C121 C 0.86979 0.56818 0.25459 0.0
C122 C 0.87312 0.5072 0.27051 0.0
O123 O 0.92069 0.52854 0.26983 0.0
O124 O 0.9031 0.54639 0.28701 0.0
O125 O 0.86842 0.5235 0.27576 0.0
O126 O 0.8872 0.50631 0.2591 0.0
C127 C 0.90632 0.53833 0.22313 0.0
O128 O 0.86424 0.55198 0.25067 0.0
O129 O 0.88636 0.56888 0.26108 0.0
In130 In 0.76338 0.65002 0.52445 0.0
O131 O 0.78213 0.62337 0.52416 0.0
O132 O 0.79612 0.64948 0.52477 0.0
C133 C 0.72993 0.63086 0.52359 0.0
C134 C 0.76427 0.66728 0.55892 0.0
C135 C 0.7636 0.66793 0.49001 0.0
O136 O 0.74607 0.62289 0.5241 0.0
O137 O 0.73056 0.64852 0.52361 0.0
O138 O 0.75686 0.67541 0.50488 0.0
O139 O 0.77009 0.65155 0.49249 0.0
C140 C 0.79778 0.63184 0.52441 0.0
O141 O 0.76735 0.67582 0.54348 0.0
O142 O 0.76048 0.6502 0.557 0.0
In143 In 0.64432 0.50098 0.7915 0.0
O144 O 0.66798 0.48724 0.80858 0.0
O145 O 0.66857 0.48344 0.77882 0.0
C146 C 0.65976 0.53489 0.79534 0.0
C147 C 0.62581 0.49893 0.75882 0.0
C148 C 0.61563 0.49191 0.81574 0.0
O149 O 0.6598 0.52634 0.77982 0.0
O150 O 0.652 0.52627 0.80907 0.0
O151 O 0.618 0.50827 0.80936 0.0
O152 O 0.62785 0.48001 0.80999 0.0
C153 C 0.67645 0.48019 0.79436 0.0
O154 O 0.63284 0.48462 0.76679 0.0
O155 O 0.62804 0.51411 0.7674 0.0
In156 In 0.01587 0.77401 0.8975 0.0
O157 O 0.03523 0.76838 0.87124 0.0
O158 O 0.04855 0.77677 0.89619 0.0
C159 C 0.9823 0.77577 0.87864 0.0
C160 C 0.01595 0.73999 0.91614 0.0
C161 C 0.01511 0.80856 0.91429 0.0
O162 O 0.99846 0.77648 0.87045 0.0
O163 O 0.98297 0.77437 0.89644 0.0
O164 O 0.01292 0.79347 0.92352 0.0
O165 O 0.01737 0.80624 0.89671 0.0
C166 C 0.05062 0.77214 0.87911 0.0
O167 O 0.02046 0.75507 0.92395 0.0
O168 O 0.01123 0.7421 0.89918 0.0
In169 In 0.00907 0.2757 0.6271 0.0
O170 O 0.0013 0.29904 0.60642 0.0
O171 O 0.00939 0.30682 0.63395 0.0
C172 C 0.01783 0.25358 0.59743 0.0
C173 C 0.03932 0.26689 0.64816 0.0
C174 C 0.97596 0.27005 0.64615 0.0
O175 O 0.02708 0.26807 0.60102 0.0
O176 O 0.00396 0.25041 0.60863 0.0
O177 O 0.99159 0.27195 0.65427 0.0
O178 O 0.97706 0.27063 0.62834 0.0
C179 C 0.00389 0.3121 0.61792 0.0
O180 O 0.02528 0.25618 0.64683 0.0
O181 O 0.03803 0.28208 0.63896 0.0
In182 In 0.51665 0.27612 0.39749 0.0
O183 O 0.537 0.28131 0.37199 0.0
O184 O 0.54906 0.27045 0.397 0.0
C185 C 0.48339 0.27529 0.37807 0.0
C186 C 0.5155 0.24191 0.41539 0.0
C187 C 0.51733 0.31048 0.41475 0.0
O188 O 0.49963 0.27316 0.3703 0.0
O189 O 0.48381 0.27772 0.39571 0.0
O190 O 0.51834 0.29521 0.42386 0.0
O191 O 0.51584 0.3084 0.39719 0.0
C192 C 0.55186 0.27572 0.38011 0.0
O193 O 0.51324 0.2572 0.42413 0.0
O194 O 0.51805 0.24391 0.39777 0.0
In195 In 0.50637 0.77691 0.12925 0.0
O196 O 0.51528 0.76505 0.10057 0.0
O197 O 0.52078 0.74852 0.12505 0.0
C198 C 0.4953 0.81083 0.11635 0.0
C199 C 0.47418 0.76048 0.14198 0.0
C200 C 0.5342 0.78703 0.15236 0.0
O201 O 0.50259 0.79848 0.10565 0.0
O202 O 0.49367 0.80607 0.13349 0.0
O203 O 0.5173 0.78444 0.15808 0.0
O204 O 0.53711 0.78464 0.13487 0.0
C205 C 0.52199 0.74998 0.10728 0.0
O206 O 0.48907 0.76099 0.15152 0.0
O207 O 0.47565 0.76785 0.12576 0.0
In208 In 0.88773 0.05268 0.74635 0.0
O209 O 0.91511 0.06466 0.73357 0.0
O210 O 0.89539 0.05279 0.71495 0.0
C211 C 0.90482 0.05142 0.77998 0.0
C212 C 0.86171 0.08038 0.74238 0.0
C213 C 0.87319 0.018 0.74658 0.0
O214 O 0.91212 0.04415 0.76528 0.0
O215 O 0.88885 0.05936 0.77775 0.0
O216 O 0.86522 0.03154 0.75512 0.0
O217 O 0.88854 0.02194 0.7379 0.0
C218 C 0.91119 0.06068 0.7168 0.0
O219 O 0.85901 0.06396 0.73672 0.0
O220 O 0.87756 0.08282 0.74997 0.0
In221 In 0.78552 0.16855 0.51118 0.0
O222 O 0.80692 0.14736 0.52268 0.0
O223 O 0.8175 0.17004 0.50597 0.0
C224 C 0.7552 0.14709 0.51939 0.0
C225 C 0.78052 0.1967 0.53602 0.0
C226 C 0.78568 0.17348 0.47344 0.0
O227 O 0.772 0.14056 0.5188 0.0
O228 O 0.75372 0.16437 0.51573 0.0
O229 O 0.78977 0.18634 0.48469 0.0
O230 O 0.78099 0.15823 0.48125 0.0
C231 C 0.8212 0.15518 0.51503 0.0
O232 O 0.77388 0.19737 0.51963 0.0
O233 O 0.78997 0.18201 0.53973 0.0
In234 In 0.65118 0.01512 0.28084 0.0
O235 O 0.67677 0.99521 0.28074 0.0
O236 O 0.65032 0.98542 0.29211 0.0
C237 C 0.66678 0.04529 0.26414 0.0
C238 C 0.62641 0.00503 0.25466 0.0
C239 C 0.64298 0.02739 0.31589 0.0
O240 O 0.6766 0.03105 0.26864 0.0
O241 O 0.64927 0.04436 0.26836 0.0
O242 O 0.63045 0.02581 0.30355 0.0
O243 O 0.65972 0.02333 0.31034 0.0
C244 C 0.6677 0.98198 0.28857 0.0
O245 O 0.62119 0.00911 0.27134 0.0
O246 O 0.64414 0.00565 0.25138 0.0
In247 In 0.76843 0.8982 0.02096 0.0
O248 O 0.74897 0.92431 0.02341 0.0
O249 O 0.73562 0.89809 0.02093 0.0
C250 C 0.80208 0.91708 0.02038 0.0
C251 C 0.7686 0.8798 0.05512 0.0
C252 C 0.76808 0.88184 0.98605 0.0
O253 O 0.78599 0.92511 0.01965 0.0
O254 O 0.80133 0.89942 0.02135 0.0
O255 O 0.76758 0.87252 0.0013 0.0
O256 O 0.76898 0.8993 0.98837 0.0
C257 C 0.73352 0.91559 0.02259 0.0
O258 O 0.7703 0.87141 0.03952 0.0
O259 O 0.76704 0.89736 0.05351 0.0
In260 In 0.28274 0.66103 0.01065 0.0
O261 O 0.27772 0.69051 0.02236 0.0
O262 O 0.27018 0.66726 0.03979 0.0
C263 C 0.2865 0.66937 0.97367 0.0
C264 C 0.31824 0.65062 0.02038 0.0
C265 C 0.25379 0.63709 0.00932 0.0
O266 O 0.28231 0.68158 0.98594 0.0
O267 O 0.28846 0.65292 0.98003 0.0
O268 O 0.27062 0.63183 0.0127 0.0
O269 O 0.25162 0.65445 0.00624 0.0
C270 C 0.2707 0.68481 0.03791 0.0
O271 O 0.30386 0.64077 0.02404 0.0
O272 O 0.31465 0.66608 0.01243 0.0
In273 In 0.15552 0.50648 0.78464 0.0
O274 O 0.17584 0.48139 0.78537 0.0
O275 O 0.14708 0.47673 0.77818 0.0
C276 C 0.17999 0.5347 0.77967 0.0
C277 C 0.13188 0.51579 0.75687 0.0
C278 C 0.14426 0.50546 0.82102 0.0
O279 O 0.18306 0.51873 0.77261 0.0
O280 O 0.16488 0.5362 0.7896 0.0
O281 O 0.13276 0.5078 0.80774 0.0
O282 O 0.16159 0.50427 0.81597 0.0
C283 C 0.16329 0.46973 0.78125 0.0
O284 O 0.12677 0.51651 0.77408 0.0
O285 O 0.14884 0.51034 0.75374 0.0
In286 In 0.26827 0.39807 0.52063 0.0
O287 O 0.26401 0.37134 0.53909 0.0
O288 O 0.27502 0.39516 0.55225 0.0
C289 C 0.26802 0.38214 0.48552 0.0
C290 C 0.2338 0.41638 0.5231 0.0
C291 C 0.30159 0.41737 0.51981 0.0
O292 O 0.27152 0.37287 0.50037 0.0
O293 O 0.26483 0.39934 0.48836 0.0
O294 O 0.28588 0.42435 0.52552 0.0
O295 O 0.30061 0.40057 0.51448 0.0
C296 C 0.26982 0.37841 0.55414 0.0
O297 O 0.24932 0.42469 0.52013 0.0
O298 O 0.23559 0.39885 0.52483 0.0
In299 In 0.3827 0.55475 0.24552 0.0
O300 O 0.40968 0.5679 0.23315 0.0
O301 O 0.39039 0.55597 0.21412 0.0
C302 C 0.39937 0.55428 0.27941 0.0
C303 C 0.3549 0.58078 0.24185 0.0
C304 C 0.37083 0.51909 0.24501 0.0
O305 O 0.4071 0.54719 0.26483 0.0
O306 O 0.3832 0.56171 0.27691 0.0
O307 O 0.36211 0.53176 0.25419 0.0
O308 O 0.38552 0.52441 0.23599 0.0
C309 C 0.40595 0.5642 0.21626 0.0
O310 O 0.35286 0.56399 0.23698 0.0
O311 O 0.37097 0.58441 0.24842 0.0
Co312 Co 0.0148 0.02927 0.00681 0.0
C313 C 0.01148 0.0532 0.03826 0.0
Co314 Co 0.01944 0.01517 0.03401 0.0
C315 C 0.00076 0.03709 0.96973 0.0
C316 C 0.0192 0.05852 0.9792 0.0
N317 N 0.01144 0.04202 0.98439 0.0
N318 N 0.00154 0.04985 0.95556 0.0
C319 C 0.01317 0.06336 0.96145 0.0
H320 H 0.99272 0.02427 0.96941 0.0
H321 H 0.02855 0.06656 0.98784 0.0
C322 C 0.02285 0.99127 0.00252 0.0
N323 N 0.02269 0.00221 0.05633 0.0
C324 C 0.03353 0.00657 0.07106 0.0
C325 C 0.01492 0.98558 0.061 0.0
N326 N 0.03286 0.99328 0.08476 0.0
C327 C 0.02112 0.98006 0.07847 0.0
C328 C 0.98163 0.01409 0.02221 0.0
O329 O 0.01946 0.00627 0.99326 0.0
O330 O 0.02397 0.99224 0.0204 0.0
O331 O 0.99287 0.00964 0.03537 0.0
O332 O 0.98812 0.02347 0.00817 0.0
O333 O 0.01491 0.03821 0.04756 0.0
H334 H 0.00555 0.97782 0.05212 0.0
H335 H 0.0417 0.01928 0.07168 0.0
O336 O 0.01019 0.05219 0.02039 0.0
O337 O 0.04139 0.03495 0.00553 0.0
O338 O 0.0461 0.02083 0.03262 0.0
C339 C 0.05261 0.03037 0.01869 0.0
H340 H 0.01678 0.07598 0.95366 0.0
H341 H 0.01763 0.9671 0.08571 0.0
Co342 Co 0.28187 0.77749 0.28163 0.0
C343 C 0.26529 0.74642 0.2658 0.0
Co344 Co 0.26519 0.78385 0.25626 0.0
C345 C 0.29039 0.77682 0.32101 0.0
C346 C 0.3111 0.76086 0.30511 0.0
N347 N 0.29521 0.77162 0.30325 0.0
N348 N 0.30244 0.76971 0.33376 0.0
C349 C 0.31568 0.75978 0.32396 0.0
H350 H 0.27824 0.78569 0.32469 0.0
H351 H 0.3187 0.75395 0.29359 0.0
C352 C 0.28203 0.81481 0.27181 0.0
N353 N 0.25193 0.78951 0.23468 0.0
C354 C 0.25499 0.78148 0.21773 0.0
C355 C 0.23762 0.80205 0.23199 0.0
N356 N 0.24335 0.78853 0.20453 0.0
C357 C 0.23218 0.80135 0.21339 0.0
C358 C 0.24364 0.78634 0.28903 0.0
O359 O 0.28777 0.80321 0.28424 0.0
O360 O 0.27205 0.80914 0.25832 0.0
O361 O 0.24297 0.78844 0.27124 0.0
O362 O 0.25923 0.78128 0.29634 0.0
O363 O 0.25857 0.75834 0.25421 0.0
H364 H 0.23158 0.81112 0.24282 0.0
H365 H 0.2654 0.7704 0.21513 0.0
O366 O 0.27585 0.75196 0.27892 0.0
O367 O 0.30427 0.77367 0.26655 0.0
O368 O 0.28746 0.77919 0.24142 0.0
C369 C 0.30323 0.77474 0.24869 0.0
H370 H 0.32741 0.75198 0.33004 0.0
H371 H 0.22114 0.80973 0.20684 0.0
Co372 Co 0.51397 0.01918 0.50699 0.0
C373 C 0.52312 0.05697 0.50264 0.0
Co374 Co 0.5362 0.02797 0.52628 0.0
C375 C 0.47836 0.00386 0.4977 0.0
C376 C 0.49306 0.01342 0.47268 0.0
N377 N 0.49467 0.01183 0.4916 0.0
N378 N 0.46651 0.00059 0.48349 0.0
C379 C 0.47571 0.00637 0.46761 0.0
H380 H 0.47522 0.00042 0.51237 0.0
H381 H 0.50369 0.01951 0.46324 0.0
C382 C 0.52692 0.99018 0.53067 0.0
N383 N 0.55545 0.03522 0.54178 0.0
C384 C 0.57186 0.04324 0.53606 0.0
C385 C 0.55689 0.03305 0.56067 0.0
N386 N 0.58361 0.04601 0.55049 0.0
C387 C 0.57422 0.03979 0.5661 0.0
C388 C 0.50033 0.03229 0.54175 0.0
O389 O 0.51537 0.99426 0.5176 0.0
O390 O 0.53773 0.00294 0.53657 0.0
O391 O 0.51783 0.03448 0.5451 0.0
O392 O 0.49567 0.02598 0.52586 0.0
O393 O 0.53457 0.05301 0.51585 0.0
H394 H 0.5462 0.02667 0.56982 0.0
H395 H 0.57517 0.047 0.5215 0.0
O396 O 0.51258 0.04408 0.49655 0.0
O397 O 0.5324 0.01252 0.48821 0.0
O398 O 0.55448 0.02148 0.50734 0.0
C399 C 0.54987 0.01512 0.49145 0.0
H400 H 0.47012 0.00594 0.4535 0.0
H401 H 0.57971 0.03966 0.58026 0.0
Co402 Co 0.28029 0.27923 0.77457 0.0
C403 C 0.26937 0.28524 0.73733 0.0
Co404 Co 0.25794 0.26003 0.76597 0.0
C405 C 0.31547 0.28992 0.79028 0.0
C406 C 0.3001 0.31386 0.77996 0.0
N407 N 0.29917 0.29508 0.78192 0.0
N408 N 0.32665 0.30467 0.79358 0.0
C409 C 0.317 0.31983 0.78721 0.0
H410 H 0.31898 0.27557 0.79403 0.0
H411 H 0.28926 0.32261 0.77356 0.0
C412 C 0.2688 0.25416 0.80326 0.0
N413 N 0.23907 0.24423 0.75853 0.0
C414 C 0.22349 0.2494 0.74896 0.0
C415 C 0.23743 0.2256 0.76133 0.0
N416 N 0.2121 0.23482 0.7456 0.0
C417 C 0.22078 0.21977 0.75342 0.0
C418 C 0.29422 0.24631 0.75883 0.0
O419 O 0.28004 0.26752 0.79918 0.0
O420 O 0.25769 0.2485 0.79063 0.0
O421 O 0.27666 0.24265 0.7576 0.0
O422 O 0.29904 0.26176 0.7659 0.0
O423 O 0.25834 0.27168 0.74128 0.0
H424 H 0.24763 0.21687 0.76868 0.0
H425 H 0.22041 0.26376 0.74487 0.0
O426 O 0.28038 0.29092 0.75003 0.0
O427 O 0.26153 0.29651 0.7831 0.0
O428 O 0.23919 0.27755 0.77437 0.0
C429 C 0.24398 0.29296 0.78154 0.0
H430 H 0.32194 0.33412 0.78745 0.0
H431 H 0.21561 0.20556 0.75331 0.0
Co432 Co 0.00932 0.01211 0.51638 0.0
C433 C 0.01293 0.03299 0.54881 0.0
Co434 Co 0.02885 0.03586 0.51288 0.0
C435 C 0.99758 0.97408 0.51612 0.0
C436 C 0.97442 0.9921 0.52477 0.0
N437 N 0.99306 0.99215 0.51955 0.0
N438 N 0.98261 0.96276 0.51893 0.0
C439 C 0.96787 0.97397 0.5242 0.0
H440 H 0.01145 0.96935 0.51092 0.0
H441 H 0.96605 0.00445 0.52843 0.0
C442 C 0.0253 0.01474 0.4805 0.0
N443 N 0.0451 0.05576 0.50958 0.0
C444 C 0.04275 0.07291 0.51711 0.0
C445 C 0.06124 0.05678 0.49886 0.0
N446 N 0.0567 0.08463 0.51155 0.0
C447 C 0.06836 0.07464 0.49995 0.0
C448 C 0.0469 0.00329 0.52423 0.0
O449 O 0.01398 0.00518 0.49085 0.0
O450 O 0.03309 0.02902 0.48737 0.0
O451 O 0.04952 0.02039 0.51995 0.0
O452 O 0.03019 0.99676 0.5238 0.0
O453 O 0.0244 0.04246 0.53854 0.0
H454 H 0.06733 0.04535 0.49067 0.0
H455 H 0.03072 0.07688 0.52617 0.0
O456 O 0.00477 0.01897 0.54182 0.0
O457 O 0.9887 0.02774 0.509 0.0
O458 O 0.00813 0.05138 0.50589 0.0
C459 C 0.9914 0.04495 0.50525 0.0
H460 H 0.95348 0.9694 0.52726 0.0
H461 H 0.08112 0.07982 0.49292 0.0
Co462 Co 0.27286 0.78619 0.77892 0.0
C463 C 0.2364 0.77156 0.78572 0.0
Co464 Co 0.2664 0.76197 0.76131 0.0
C465 C 0.27981 0.82444 0.78811 0.0
C466 C 0.2774 0.80745 0.81307 0.0
N467 N 0.2773 0.80663 0.794 0.0
N468 N 0.28129 0.83631 0.80264 0.0
C469 C 0.28004 0.82573 0.81843 0.0
H470 H 0.28054 0.82873 0.7734 0.0
H471 H 0.27525 0.79561 0.8225 0.0
C472 C 0.30292 0.7765 0.75457 0.0
N473 N 0.26199 0.74163 0.74631 0.0
C474 C 0.25635 0.72455 0.75215 0.0
C475 C 0.26549 0.73995 0.72757 0.0
N476 N 0.25644 0.71213 0.73789 0.0
C477 C 0.26204 0.72181 0.72233 0.0
C478 C 0.25622 0.7957 0.74499 0.0
O479 O 0.29768 0.78848 0.76697 0.0
O480 O 0.29139 0.76374 0.75024 0.0
O481 O 0.25676 0.77813 0.7424 0.0
O482 O 0.26235 0.80218 0.76027 0.0
O483 O 0.24132 0.76027 0.77258 0.0
H484 H 0.27085 0.75102 0.71845 0.0
H485 H 0.25254 0.72127 0.7667 0.0
O486 O 0.24819 0.78383 0.79073 0.0
O487 O 0.28324 0.77003 0.79736 0.0
O488 O 0.27611 0.7458 0.78032 0.0
C489 C 0.28301 0.75241 0.79521 0.0
H490 H 0.28048 0.83093 0.83274 0.0
H491 H 0.26421 0.71604 0.70833 0.0
Co492 Co 0.51259 0.01486 0.00904 0.0
C493 C 0.54783 0.00617 0.02478 0.0
Co494 Co 0.51635 0.02728 0.03695 0.0
C495 C 0.50255 0.01203 0.97023 0.0
C496 C 0.51544 0.98669 0.98053 0.0
N497 N 0.51002 0.00413 0.98577 0.0
N498 N 0.50308 0.00025 0.95542 0.0
C499 C 0.51117 0.98425 0.96186 0.0
H500 H 0.49658 0.0261 0.96995 0.0
H501 H 0.5221 0.97644 0.98969 0.0
C502 C 0.48117 0.03604 0.02123 0.0
N503 N 0.51903 0.03774 0.06036 0.0
C504 C 0.52359 0.02848 0.07631 0.0
C505 C 0.51682 0.05582 0.06551 0.0
N506 N 0.5243 0.03998 0.09123 0.0
C507 C 0.52022 0.05726 0.08454 0.0
C508 C 0.52844 0.05005 0.00742 0.0
O509 O 0.4875 0.0258 0.00777 0.0
O510 O 0.4916 0.03853 0.0354 0.0
O511 O 0.52715 0.04871 0.02531 0.0
O512 O 0.52284 0.03663 0.9974 0.0
O513 O 0.54127 0.01593 0.03849 0.0
H514 H 0.51302 0.06719 0.05605 0.0
H515 H 0.52673 0.01358 0.0769 0.0
O516 O 0.53757 0.00413 0.01042 0.0
O517 O 0.50232 0.99316 0.02065 0.0
O518 O 0.50544 0.0058 0.04843 0.0
C519 C 0.50031 0.99216 0.03849 0.0
H520 H 0.51399 0.97174 0.95367 0.0
H521 H 0.51964 0.06995 0.09283 0.0
Co522 Co 0.26648 0.26253 0.27867 0.0
C523 C 0.30461 0.27376 0.28014 0.0
Co524 Co 0.27225 0.28894 0.2637 0.0
C525 C 0.25096 0.22655 0.28904 0.0
C526 C 0.26975 0.23711 0.30967 0.0
N527 N 0.2623 0.24108 0.29267 0.0
N528 N 0.25099 0.21369 0.30316 0.0
C529 C 0.26285 0.22029 0.31614 0.0
H530 H 0.24255 0.22567 0.27647 0.0
H531 H 0.27947 0.24599 0.31697 0.0
C532 C 0.23416 0.27755 0.26213 0.0
N533 N 0.27658 0.31053 0.24997 0.0
C534 C 0.28784 0.3249 0.25433 0.0
C535 C 0.26927 0.31519 0.23308 0.0
N536 N 0.28785 0.33838 0.24085 0.0
C537 C 0.27613 0.33235 0.22746 0.0
C538 C 0.27552 0.25677 0.24085 0.0
O539 O 0.24007 0.26396 0.27229 0.0
O540 O 0.24579 0.29037 0.2574 0.0
O541 O 0.27724 0.27449 0.24125 0.0
O542 O 0.27134 0.24814 0.2562 0.0
O543 O 0.29875 0.28744 0.27008 0.0
H544 H 0.25968 0.30658 0.2253 0.0
H545 H 0.29573 0.32552 0.26727 0.0
O546 O 0.29287 0.26108 0.28487 0.0
O547 O 0.26153 0.27695 0.30104 0.0
O548 O 0.26725 0.30336 0.28624 0.0
C549 C 0.26308 0.29466 0.30153 0.0
H550 H 0.26643 0.21341 0.3293 0.0
H551 H 0.27301 0.33966 0.2144 0.0
Co552 Co 0.50549 0.50886 0.02113 0.0
C553 C 0.51115 0.53052 0.05279 0.0
Co554 Co 0.52524 0.5322 0.01614 0.0
C555 C 0.49047 0.47208 0.01834 0.0
C556 C 0.47335 0.48893 0.03719 0.0
N557 N 0.48895 0.4894 0.02566 0.0
N558 N 0.47651 0.46079 0.02481 0.0
C559 C 0.46572 0.47124 0.0368 0.0
H560 H 0.50193 0.46769 0.00877 0.0
H561 H 0.46798 0.50063 0.04547 0.0
C562 C 0.51969 0.51069 0.98445 0.0
N563 N 0.54176 0.5517 0.01168 0.0
C564 C 0.53799 0.56986 0.01538 0.0
C565 C 0.5599 0.5513 0.00486 0.0
N566 N 0.55297 0.58084 0.0112 0.0
C567 C 0.56693 0.56927 0.00474 0.0
C568 C 0.54314 0.49933 0.02712 0.0
O569 O 0.50835 0.50175 0.99536 0.0
O570 O 0.52849 0.52463 0.99081 0.0
O571 O 0.54579 0.51645 0.02297 0.0
O572 O 0.52633 0.49297 0.02726 0.0
O573 O 0.52189 0.53982 0.04161 0.0
H574 H 0.5676 0.53875 0.00055 0.0
H575 H 0.52469 0.5749 0.02169 0.0
O576 O 0.50288 0.51613 0.04672 0.0
O577 O 0.48471 0.52479 0.01502 0.0
O578 O 0.50446 0.54775 0.00936 0.0
C579 C 0.48755 0.54173 0.01023 0.0
H580 H 0.45321 0.46648 0.04458 0.0
H581 H 0.58113 0.57348 0.00038 0.0
Co582 Co 0.77594 0.28681 0.28223 0.0
C583 C 0.7385 0.27447 0.28787 0.0
Co584 Co 0.76774 0.26483 0.26255 0.0
C585 C 0.78648 0.32285 0.29568 0.0
C586 C 0.78318 0.30328 0.31854 0.0
N587 N 0.78233 0.30483 0.29952 0.0
N588 N 0.78976 0.33256 0.31143 0.0
C589 C 0.78795 0.32036 0.32591 0.0
H590 H 0.7872 0.32882 0.28156 0.0
H591 H 0.78025 0.29066 0.3266 0.0
C592 C 0.80519 0.27722 0.2569 0.0
N593 N 0.76145 0.247 0.24529 0.0
C594 C 0.75332 0.23038 0.24897 0.0
C595 C 0.76448 0.24741 0.22639 0.0
N596 N 0.7512 0.2203 0.23316 0.0
C597 C 0.7581 0.231 0.21886 0.0
C598 C 0.7602 0.30096 0.24975 0.0
O599 O 0.80097 0.28793 0.27073 0.0
O600 O 0.79265 0.26607 0.25117 0.0
O601 O 0.75907 0.28371 0.24588 0.0
O602 O 0.76723 0.30567 0.26531 0.0
O603 O 0.74279 0.26367 0.27414 0.0
H604 H 0.77109 0.25882 0.21862 0.0
H605 H 0.74894 0.22584 0.26304 0.0
O606 O 0.75097 0.28571 0.2936 0.0
O607 O 0.78451 0.26778 0.29885 0.0
O608 O 0.77638 0.24585 0.27931 0.0
C609 C 0.78333 0.25053 0.29493 0.0
H610 H 0.78952 0.32368 0.34068 0.0
H611 H 0.75885 0.22709 0.20411 0.0
Co612 Co 0.0131 0.51682 0.51212 0.0
C613 C 0.0491 0.50933 0.52706 0.0
Co614 Co 0.01815 0.53118 0.5388 0.0
C615 C 0.00318 0.51189 0.47372 0.0
C616 C 0.01389 0.48634 0.48576 0.0
N617 N 0.00959 0.50435 0.4899 0.0
N618 N 0.00339 0.4994 0.45954 0.0
C619 C 0.01012 0.48326 0.46704 0.0
H620 H 0.99904 0.52649 0.47225 0.0
H621 H 0.01971 0.47623 0.49562 0.0
C622 C 0.98216 0.53867 0.52385 0.0
N623 N 0.02153 0.54396 0.56087 0.0
C624 C 0.02713 0.53698 0.57759 0.0
C625 C 0.01864 0.56247 0.5638 0.0
N626 N 0.02792 0.55038 0.59082 0.0
C627 C 0.02271 0.56649 0.58222 0.0
C628 C 0.02907 0.55165 0.50709 0.0
O629 O 0.98796 0.52761 0.51086 0.0
O630 O 0.99319 0.54204 0.53735 0.0
O631 O 0.02826 0.5516 0.525 0.0
O632 O 0.02305 0.53758 0.49831 0.0
O633 O 0.04324 0.52022 0.54019 0.0
H634 H 0.01388 0.57239 0.5532 0.0
H635 H 0.03094 0.52239 0.57992 0.0
O636 O 0.03814 0.50613 0.51345 0.0
O637 O 0.00327 0.49616 0.52595 0.0
O638 O 0.00808 0.51058 0.55257 0.0
C639 C 0.00246 0.49627 0.5439 0.0
H640 H 0.01221 0.4702 0.45956 0.0
H641 H 0.02184 0.58012 0.5888 0.0
Co642 Co 0.77925 0.7777 0.2738 0.0
C643 C 0.76396 0.78827 0.23906 0.0
Co644 Co 0.75022 0.76756 0.27007 0.0
C645 C 0.81878 0.77641 0.28276 0.0
C646 C 0.81008 0.8036 0.27293 0.0
N647 N 0.8036 0.7862 0.27653 0.0
N648 N 0.83448 0.78701 0.28331 0.0
C649 C 0.82908 0.80417 0.27718 0.0
H650 H 0.81818 0.76188 0.28728 0.0
H651 H 0.80149 0.81515 0.26768 0.0
C652 C 0.76555 0.75703 0.30479 0.0
N653 N 0.72585 0.75914 0.26733 0.0
C654 C 0.71078 0.76917 0.26124 0.0
C655 C 0.71915 0.74182 0.27091 0.0
N656 N 0.6949 0.75883 0.2608 0.0
C657 C 0.70008 0.74157 0.26681 0.0
C658 C 0.77789 0.7429 0.25711 0.0
O659 O 0.77988 0.76606 0.29844 0.0
O660 O 0.75098 0.75591 0.29455 0.0
O661 O 0.76002 0.74547 0.25891 0.0
O662 O 0.78904 0.75539 0.2628 0.0
O663 O 0.74956 0.77935 0.24545 0.0
H664 H 0.7276 0.73015 0.27608 0.0
H665 H 0.71158 0.7837 0.2568 0.0
O666 O 0.77856 0.78923 0.24928 0.0
O667 O 0.76937 0.79997 0.28478 0.0
O668 O 0.74045 0.78966 0.28129 0.0
C669 C 0.75149 0.80228 0.28684 0.0
H670 H 0.83821 0.81623 0.27585 0.0
H671 H 0.69077 0.72966 0.2682 0.0
Co672 Co 0.7765 0.27913 0.78391 0.0
C673 C 0.76518 0.24729 0.76528 0.0
Co674 Co 0.76078 0.28504 0.75792 0.0
C675 C 0.78681 0.28228 0.82249 0.0
C676 C 0.80279 0.26036 0.80871 0.0
N677 N 0.78935 0.2737 0.80574 0.0
N678 N 0.79809 0.27487 0.83587 0.0
C679 C 0.80815 0.261 0.8273 0.0
H680 H 0.77654 0.29352 0.82489 0.0
H681 H 0.80824 0.25074 0.79808 0.0
C682 C 0.77223 0.31687 0.77655 0.0
N683 N 0.74802 0.2904 0.73601 0.0
C684 C 0.75045 0.28137 0.71949 0.0
C685 C 0.73531 0.30429 0.73248 0.0
N686 N 0.73986 0.28904 0.70573 0.0
C687 C 0.73034 0.30356 0.71376 0.0
C688 C 0.73741 0.28279 0.78967 0.0
O689 O 0.77925 0.30513 0.78812 0.0
O690 O 0.76364 0.31096 0.76224 0.0
O691 O 0.73744 0.28549 0.7719 0.0
O692 O 0.75309 0.27964 0.79779 0.0
O693 O 0.75808 0.25901 0.75373 0.0
H694 H 0.73024 0.31446 0.74275 0.0
H695 H 0.76034 0.26973 0.71744 0.0
O696 O 0.77368 0.25325 0.77962 0.0
O697 O 0.79979 0.27863 0.76993 0.0
O698 O 0.78421 0.28451 0.74403 0.0
C699 C 0.79986 0.28125 0.75215 0.0
H700 H 0.81871 0.25208 0.83393 0.0
H701 H 0.72056 0.31294 0.70662 0.0
Co702 Co 0.76495 0.76211 0.77953 0.0
C703 C 0.80305 0.77335 0.78136 0.0
Co704 Co 0.77083 0.7885 0.76455 0.0
C705 C 0.74995 0.72572 0.78864 0.0
C706 C 0.76708 0.73646 0.81058 0.0
N707 N 0.76055 0.7405 0.79322 0.0
N708 N 0.74952 0.71262 0.80252 0.0
C709 C 0.76029 0.71933 0.81635 0.0
H710 H 0.74239 0.72479 0.77554 0.0
H711 H 0.7761 0.74546 0.81858 0.0
C712 C 0.73275 0.77726 0.7627 0.0
N713 N 0.77525 0.81018 0.75101 0.0
C714 C 0.78582 0.82489 0.75592 0.0
C715 C 0.76831 0.81479 0.73396 0.0
N716 N 0.78569 0.83855 0.74262 0.0
C717 C 0.77467 0.83227 0.72878 0.0
C718 C 0.77436 0.75647 0.74171 0.0
O719 O 0.73856 0.76359 0.77281 0.0
O720 O 0.74446 0.79003 0.75809 0.0
O721 O 0.77595 0.7742 0.74207 0.0
O722 O 0.77016 0.74785 0.75704 0.0
O723 O 0.79725 0.78694 0.77114 0.0
H724 H 0.75919 0.806 0.72583 0.0
H725 H 0.79317 0.82567 0.76915 0.0
O726 O 0.7913 0.76065 0.78611 0.0
O727 O 0.75969 0.77642 0.80194 0.0
O728 O 0.7657 0.80275 0.7871 0.0
C729 C 0.76134 0.79412 0.80238 0.0
H730 H 0.76322 0.7123 0.8296 0.0
H731 H 0.77158 0.83968 0.71577 0.0
Co732 Co 0.51271 0.53256 0.50444 0.0
C733 C 0.50917 0.55651 0.5359 0.0
Co734 Co 0.51758 0.5186 0.53168 0.0
C735 C 0.49793 0.54041 0.46768 0.0
C736 C 0.51675 0.56174 0.47666 0.0
N737 N 0.50911 0.54523 0.482 0.0
N738 N 0.49824 0.55328 0.45358 0.0
C739 C 0.51012 0.5667 0.45916 0.0
H740 H 0.48977 0.52767 0.46761 0.0
H741 H 0.5263 0.56977 0.48507 0.0
C742 C 0.52125 0.49466 0.50026 0.0
N743 N 0.52099 0.50572 0.55402 0.0
C744 C 0.5316 0.51028 0.56886 0.0
C745 C 0.51344 0.48897 0.55862 0.0
N746 N 0.53104 0.49696 0.58252 0.0
C747 C 0.5196 0.48354 0.57613 0.0
C748 C 0.47975 0.5171 0.51996 0.0
O749 O 0.51777 0.50961 0.49092 0.0
O750 O 0.52222 0.4957 0.51814 0.0
O751 O 0.491 0.51295 0.53321 0.0
O752 O 0.48618 0.52632 0.50579 0.0
O753 O 0.51306 0.5416 0.54514 0.0
H754 H 0.50414 0.48115 0.54974 0.0
H755 H 0.53988 0.52293 0.56942 0.0
O756 O 0.50763 0.55547 0.51805 0.0
O757 O 0.53922 0.53865 0.50318 0.0
O758 O 0.54417 0.52439 0.53016 0.0
C759 C 0.55054 0.53407 0.51626 0.0
H760 H 0.5134 0.57943 0.45139 0.0
H761 H 0.51583 0.47078 0.58361 0.0
Co762 Co 0.00946 0.51815 0.00941 0.0
C763 C 0.02222 0.55463 0.00256 0.0
Co764 Co 0.0335 0.52568 0.02702 0.0
C765 C 0.97187 0.50625 0.0019 0.0
C766 C 0.98697 0.51316 0.9762 0.0
N767 N 0.98884 0.51218 0.99513 0.0
N768 N 0.95943 0.50359 0.98805 0.0
C769 C 0.96885 0.50773 0.97178 0.0
H770 H 0.96872 0.50376 0.01676 0.0
H771 H 0.99798 0.5177 0.9663 0.0
C772 C 0.02075 0.4892 0.03387 0.0
N773 N 0.05417 0.53159 0.04124 0.0
C774 C 0.07127 0.5369 0.03427 0.0
C775 C 0.05611 0.53093 0.06017 0.0
N776 N 0.08389 0.53941 0.04798 0.0
C777 C 0.07444 0.53589 0.06438 0.0
C778 C 0.99911 0.5345 0.04376 0.0
O779 O 0.00912 0.49355 0.02094 0.0
O780 O 0.03261 0.5014 0.03893 0.0
O781 O 0.01696 0.53535 0.04579 0.0
O782 O 0.99273 0.52735 0.02887 0.0
O783 O 0.03425 0.55006 0.01505 0.0
H784 H 0.04503 0.52685 0.07021 0.0
H785 H 0.07444 0.53898 0.01935 0.0
O786 O 0.00994 0.54265 0.99794 0.0
O787 O 0.02624 0.50902 0.9902 0.0
O788 O 0.05009 0.51585 0.00809 0.0
C789 C 0.04404 0.50925 0.99285 0.0
H790 H 0.96294 0.50723 0.9578 0.0
H791 H 0.08047 0.53647 0.0783 0.0
H792 H 0.01791 0.20256 0.1423 0.0
H793 H 0.01595 0.17164 0.12783 0.0
H794 H 0.02324 0.19687 0.07257 0.0
H795 H 0.02581 0.22777 0.08705 0.0
H796 H 0.99136 0.15719 0.10446 0.0
H797 H 0.06221 0.15573 0.06835 0.0
H798 H 0.05552 0.17335 0.08548 0.0
H799 H 0.04801 0.1756 0.0614 0.0
C800 C 0.01926 0.20153 0.12706 0.0
C801 C 0.02218 0.2177 0.11587 0.0
C802 C 0.01809 0.18379 0.11877 0.0
C803 C 0.01978 0.18168 0.09905 0.0
C804 C 0.02243 0.19788 0.08782 0.0
H805 H 0.00923 0.088 0.02164 0.0
H806 H 0.01062 0.11866 0.03672 0.0
C807 C 0.02377 0.21563 0.09613 0.0
C808 C 0.01826 0.16264 0.09031 0.0
H809 H 0.04075 0.13183 0.05995 0.0
C810 C 0.00226 0.15165 0.09483 0.0
C811 C 0.03244 0.15518 0.07772 0.0
C812 C 0.0506 0.16549 0.07309 0.0
C813 C 0.99988 0.13377 0.08691 0.0
C814 C 0.01391 0.12648 0.07415 0.0
C815 C 0.02992 0.1374 0.06964 0.0
C816 C 0.01222 0.10763 0.06521 0.0
C817 C 0.98214 0.12295 0.09194 0.0
C818 C 0.01262 0.09107 0.07614 0.0
C819 C 0.01189 0.07341 0.06752 0.0
C820 C 0.01068 0.07188 0.04775 0.0
C821 C 0.01001 0.08854 0.0369 0.0
C822 C 0.01089 0.10614 0.0455 0.0
H823 H 0.97092 0.132 0.09866 0.0
H824 H 0.97627 0.11644 0.07918 0.0
H825 H 0.98578 0.11155 0.10206 0.0
H826 H 0.01392 0.09177 0.09134 0.0
H827 H 0.01261 0.06094 0.07634 0.0
H828 H 0.0755 0.78674 0.3535 0.0
H829 H 0.1069 0.79294 0.33925 0.0
H830 H 0.13259 0.7851 0.39356 0.0
H831 H 0.10125 0.7786 0.40791 0.0
H832 H 0.13605 0.81934 0.34757 0.0
H833 H 0.15844 0.74504 0.35935 0.0
H834 H 0.1339 0.75277 0.36156 0.0
H835 H 0.15023 0.75752 0.38001 0.0
C836 C 0.08781 0.78653 0.36245 0.0
C837 C 0.08602 0.78195 0.38175 0.0
C838 C 0.1057 0.79013 0.3543 0.0
C839 C 0.122 0.7892 0.36534 0.0
C840 C 0.12015 0.78559 0.3848 0.0
H841 H 0.24078 0.78386 0.32751 0.0
H842 H 0.21201 0.78728 0.34736 0.0
C843 C 0.10227 0.78193 0.39296 0.0
C844 C 0.141 0.79068 0.35614 0.0
H845 H 0.18074 0.76484 0.3445 0.0
C846 C 0.14592 0.8075 0.34698 0.0
C847 C 0.15374 0.77515 0.35544 0.0
C848 C 0.14884 0.75653 0.36447 0.0
C849 C 0.16331 0.80916 0.33695 0.0
C850 C 0.17583 0.79349 0.33588 0.0
C851 C 0.17109 0.77684 0.34543 0.0
C852 C 0.19347 0.79355 0.32408 0.0
C853 C 0.16813 0.82764 0.32762 0.0
C854 C 0.19251 0.79598 0.30443 0.0
C855 C 0.20891 0.79403 0.29303 0.0
C856 C 0.22649 0.78943 0.3011 0.0
C857 C 0.22744 0.78735 0.32084 0.0
C858 C 0.21105 0.78935 0.33222 0.0
H859 H 0.16007 0.83945 0.33431 0.0
H860 H 0.18362 0.83044 0.32829 0.0
H861 H 0.16426 0.82719 0.31252 0.0
H862 H 0.17898 0.79879 0.29785 0.0
H863 H 0.20772 0.79569 0.27787 0.0
H864 H 0.5038 0.83822 0.62945 0.0
H865 H 0.50454 0.8685 0.61307 0.0
H866 H 0.54808 0.84722 0.57453 0.0
H867 H 0.5468 0.81657 0.59048 0.0
H868 H 0.53063 0.89349 0.60891 0.0
H869 H 0.5131 0.87004 0.53716 0.0
H870 H 0.51127 0.85478 0.55754 0.0
H871 H 0.53402 0.85851 0.54588 0.0
C872 C 0.51345 0.83991 0.61738 0.0
C873 C 0.52516 0.82488 0.61122 0.0
C874 C 0.51389 0.85731 0.60801 0.0
C875 C 0.52613 0.86027 0.59226 0.0
C876 C 0.53807 0.84531 0.58624 0.0
H877 H 0.554 0.97457 0.55363 0.0
H878 H 0.55448 0.94325 0.568 0.0
C879 C 0.53745 0.82777 0.59548 0.0
C880 C 0.52668 0.87915 0.58267 0.0
H881 H 0.52343 0.90148 0.53977 0.0
C882 C 0.529 0.89518 0.59378 0.0
C883 C 0.52426 0.88161 0.56295 0.0
C884 C 0.52032 0.86535 0.55021 0.0
C885 C 0.52904 0.91338 0.58584 0.0
C886 C 0.52739 0.91579 0.56602 0.0
C887 C 0.52495 0.89978 0.55491 0.0
C888 C 0.5276 0.93476 0.55661 0.0
C889 C 0.53022 0.92985 0.59899 0.0
C890 C 0.51282 0.94038 0.54462 0.0
C891 C 0.51274 0.9582 0.53601 0.0
C892 C 0.52741 0.97096 0.53924 0.0
C893 C 0.54235 0.96523 0.55098 0.0
C894 C 0.54256 0.94731 0.55937 0.0
H895 H 0.52535 0.92611 0.61358 0.0
H896 H 0.54526 0.9343 0.59966 0.0
H897 H 0.52146 0.94191 0.594 0.0
H898 H 0.50113 0.93106 0.54211 0.0
H899 H 0.50099 0.96209 0.52707 0.0
H900 H 0.4675 0.2539 0.8887 0.0
H901 H 0.43922 0.26148 0.87042 0.0
H902 H 0.46383 0.31416 0.85326 0.0
H903 H 0.49226 0.30665 0.87144 0.0
H904 H 0.4149 0.2939 0.87542 0.0
H905 H 0.44765 0.2895 0.80311 0.0
H906 H 0.45872 0.27915 0.82357 0.0
H907 H 0.45956 0.30401 0.81965 0.0
C908 C 0.46695 0.26704 0.88093 0.0
C909 C 0.48208 0.27967 0.88144 0.0
C910 C 0.4508 0.27135 0.87055 0.0
C911 C 0.44957 0.28829 0.86041 0.0
C912 C 0.46467 0.30091 0.8608 0.0
H913 H 0.34259 0.33171 0.81443 0.0
H914 H 0.37328 0.32973 0.83025 0.0
C915 C 0.48084 0.29662 0.87123 0.0
C916 C 0.43219 0.29288 0.84989 0.0
H917 H 0.41522 0.29867 0.80541 0.0
C918 C 0.41494 0.29507 0.86013 0.0
C919 C 0.4324 0.29427 0.82995 0.0
C920 C 0.45052 0.29149 0.81833 0.0
C921 C 0.39776 0.2984 0.8509 0.0
C922 C 0.39795 0.29976 0.83095 0.0
C923 C 0.41523 0.29778 0.82072 0.0
C924 C 0.38013 0.30175 0.82043 0.0
C925 C 0.37945 0.2998 0.86247 0.0
C926 C 0.37419 0.28689 0.8093 0.0
C927 C 0.3568 0.28801 0.80024 0.0
C928 C 0.34506 0.30406 0.80208 0.0
C929 C 0.35135 0.31921 0.81274 0.0
C930 C 0.36878 0.31805 0.82187 0.0
H931 H 0.38137 0.29518 0.87735 0.0
H932 H 0.37431 0.31458 0.86256 0.0
H933 H 0.36824 0.29117 0.85618 0.0
H934 H 0.38285 0.27425 0.80796 0.0
H935 H 0.35252 0.27628 0.79183 0.0
H936 H 0.01225 0.82782 0.41287 0.0
H937 H 0.00252 0.85476 0.43208 0.0
H938 H 0.00424 0.82029 0.48242 0.0
H939 H 0.01363 0.7931 0.46321 0.0
H940 H 0.9726 0.84553 0.48157 0.0
H941 H 0.04114 0.88066 0.46528 0.0
H942 H 0.0285 0.87422 0.44462 0.0
H943 H 0.03739 0.85627 0.46025 0.0
C944 C 0.01045 0.82594 0.42801 0.0
C945 C 0.01391 0.80845 0.4366 0.0
C946 C 0.00492 0.84133 0.43895 0.0
C947 C 0.00301 0.83953 0.45866 0.0
C948 C 0.00574 0.82193 0.46722 0.0
H949 H 0.0095 0.93758 0.52845 0.0
H950 H 0.01267 0.90541 0.51705 0.0
C951 C 0.01116 0.80646 0.45625 0.0
C952 C 0.99912 0.85625 0.47035 0.0
H953 H 0.01698 0.89899 0.48054 0.0
C954 C 0.98232 0.8572 0.4815 0.0
C955 C 0.01203 0.87125 0.47045 0.0
C956 C 0.03087 0.87053 0.45966 0.0
C957 C 0.97783 0.8731 0.4924 0.0
C958 C 0.99036 0.88845 0.4918 0.0
C959 C 0.00734 0.88724 0.48095 0.0
C960 C 0.98624 0.90619 0.50187 0.0
C961 C 0.95986 0.87325 0.50453 0.0
C962 C 0.96999 0.91705 0.4977 0.0
C963 C 0.96806 0.93535 0.50449 0.0
C964 C 0.98254 0.94307 0.51515 0.0
C965 C 0.99824 0.93187 0.52014 0.0
C966 C 1.00003 0.91354 0.51366 0.0
H967 H 0.95516 0.85879 0.50799 0.0
H968 H 0.96187 0.8809 0.51791 0.0
H969 H 0.94828 0.88038 0.49669 0.0
H970 H 0.9594 0.91185 0.48828 0.0
H971 H 0.95596 0.94388 0.50032 0.0
H972 H 0.45553 0.79125 0.64752 0.0
H973 H 0.42464 0.79341 0.66422 0.0
H974 H 0.44672 0.75939 0.70965 0.0
H975 H 0.47789 0.75797 0.69337 0.0
H976 H 0.39959 0.76897 0.67369 0.0
H977 H 0.42319 0.80028 0.74014 0.0
H978 H 0.43874 0.79819 0.71958 0.0
H979 H 0.43543 0.77854 0.73545 0.0
C980 C 0.45383 0.78433 0.66113 0.0
C981 C 0.46922 0.77454 0.66917 0.0
C982 C 0.43613 0.78556 0.6707 0.0
C983 C 0.43329 0.77691 0.68848 0.0
C984 C 0.44858 0.76676 0.69631 0.0
H985 H 0.32114 0.74868 0.73468 0.0
H986 H 0.35247 0.74929 0.71905 0.0
C987 C 0.46639 0.76578 0.68688 0.0
C988 C 0.41418 0.77796 0.69838 0.0
H989 H 0.3918 0.78764 0.7408 0.0
C990 C 0.39793 0.77319 0.68834 0.0
C991 C 0.41176 0.78383 0.71741 0.0
C992 C 0.42819 0.7907 0.7287 0.0
C993 C 0.37957 0.77373 0.69679 0.0
C994 C 0.37729 0.77849 0.71614 0.0
C995 C 0.39346 0.7837 0.72608 0.0
C996 C 0.35833 0.77801 0.72632 0.0
C997 C 0.36277 0.76957 0.68465 0.0
C998 C 0.35135 0.79363 0.73652 0.0
C999 C 0.33349 0.79316 0.74592 0.0
C1000 C 0.32215 0.77709 0.74523 0.0
C1001 C 0.32932 0.76139 0.73529 0.0
C1002 C 0.34725 0.76178 0.72618 0.0
H1003 H 0.36602 0.7726 0.66949 0.0
H1004 H 0.35939 0.75447 0.68594 0.0
H1005 H 0.34996 0.77791 0.68905 0.0
H1006 H 0.35962 0.8063 0.73703 0.0
H1007 H 0.32843 0.80547 0.75347 0.0
H1008 H 0.54814 0.22298 0.96273 0.0
H1009 H 0.55202 0.19122 0.97548 0.0
H1010 H 0.53375 0.16841 0.92278 0.0
H1011 H 0.52996 0.20015 0.90985 0.0
H1012 H 0.52164 0.16577 0.97865 0.0
H1013 H 0.58195 0.1369 0.93509 0.0
H1014 H 0.57716 0.16176 0.93717 0.0
H1015 H 0.56312 0.14779 0.92194 0.0
C1016 C 0.54517 0.2112 0.95378 0.0
C1017 C 0.5387 0.214 0.93532 0.0
C1018 C 0.54743 0.19309 0.96107 0.0
C1019 C 0.54341 0.17753 0.94997 0.0
C1020 C 0.53729 0.18026 0.93141 0.0
H1021 H 0.52689 0.05996 0.97009 0.0
H1022 H 0.53278 0.09093 0.95625 0.0
C1023 C 0.53499 0.19838 0.92411 0.0
C1024 C 0.54389 0.15856 0.95841 0.0
H1025 H 0.56461 0.11516 0.95431 0.0
C1026 C 0.53116 0.15474 0.97348 0.0
C1027 C 0.55624 0.14425 0.95146 0.0
C1028 C 0.57052 0.14785 0.93562 0.0
C1029 C 0.5301 0.1368 0.98155 0.0
C1030 C 0.54243 0.12245 0.97463 0.0
C1031 C 0.55527 0.12627 0.95962 0.0
C1032 C 0.54156 0.10322 0.98243 0.0
C1033 C 0.51532 0.13324 0.997 0.0
C1034 C 0.54528 0.09978 0.00153 0.0
C1035 C 0.54179 0.08219 0.00952 0.0
C1036 C 0.53474 0.06771 0.99844 0.0
C1037 C 0.53225 0.07086 0.97901 0.0
C1038 C 0.53563 0.08852 0.97107 0.0
H1039 H 0.50412 0.1444 0.9975 0.0
H1040 H 0.50836 0.11954 0.99502 0.0
H1041 H 0.52235 0.13288 0.01088 0.0
H1042 H 0.55022 0.1109 0.01042 0.0
H1043 H 0.54404 0.08012 0.0245 0.0
H1044 H 0.09166 0.25469 0.15187 0.0
H1045 H 0.12098 0.25503 0.17001 0.0
H1046 H 0.09269 0.28952 0.2122 0.0
H1047 H 0.06325 0.28861 0.19451 0.0
H1048 H 0.14367 0.28198 0.17959 0.0
H1049 H 0.11504 0.25042 0.24582 0.0
H1050 H 0.1018 0.2509 0.2243 0.0
H1051 H 0.10192 0.27114 0.23934 0.0
C1052 C 0.09166 0.26223 0.16509 0.0
C1053 C 0.07504 0.27149 0.1718 0.0
C1054 C 0.10847 0.26245 0.17546 0.0
C1055 C 0.10909 0.27197 0.19278 0.0
C1056 C 0.09256 0.28155 0.19926 0.0
H1057 H 0.21555 0.30613 0.24369 0.0
H1058 H 0.18516 0.30494 0.22759 0.0
C1059 C 0.07571 0.28115 0.18902 0.0
C1060 C 0.12712 0.27237 0.20371 0.0
H1061 H 0.14542 0.26484 0.24761 0.0
C1062 C 0.14402 0.27813 0.19445 0.0
C1063 C 0.12785 0.26705 0.22306 0.0
C1064 C 0.11073 0.25934 0.23365 0.0
C1065 C 0.16139 0.27904 0.20396 0.0
C1066 C 0.1619 0.27464 0.22354 0.0
C1067 C 0.14509 0.26853 0.23272 0.0
C1068 C 0.17978 0.27587 0.23461 0.0
C1069 C 0.17912 0.28424 0.19271 0.0
C1070 C 0.18653 0.2603 0.24495 0.0
C1071 C 0.20375 0.26109 0.25458 0.0
C1072 C 0.21471 0.27746 0.25407 0.0
C1073 C 0.20758 0.29325 0.24431 0.0
C1074 C 0.19026 0.29252 0.23488 0.0
H1075 H 0.17758 0.28142 0.17741 0.0
H1076 H 0.18164 0.29946 0.19425 0.0
H1077 H 0.19182 0.27639 0.19775 0.0
H1078 H 0.17872 0.24732 0.24515 0.0
H1079 H 0.2088 0.24863 0.26187 0.0
H1080 H 0.12688 0.9638 0.23745 0.0
H1081 H 0.10902 0.96175 0.20817 0.0
H1082 H 0.10421 0.02206 0.20577 0.0
H1083 H 0.12169 0.02422 0.23502 0.0
H1084 H 0.06997 0.00401 0.20037 0.0
H1085 H 0.12843 0.9749 0.1544 0.0
H1086 H 0.12351 0.96192 0.17581 0.0
H1087 H 0.13268 0.98522 0.17708 0.0
C1088 C 0.12204 0.9766 0.23061 0.0
C1089 C 0.12567 0.99417 0.23845 0.0
C1090 C 0.11195 0.97541 0.21389 0.0
C1091 C 0.10552 0.99178 0.20476 0.0
C1092 C 0.10911 0.00929 0.21261 0.0
H1093 H 0.06611 0.01043 0.0919 0.0
H1094 H 0.08326 0.00966 0.12153 0.0
C1095 C 0.11911 0.01049 0.2293 0.0
C1096 C 0.09465 0.99083 0.18722 0.0
H1097 H 0.09809 0.9783 0.14085 0.0
C1098 C 0.07606 0.99834 0.18735 0.0
C1099 C 0.1028 0.98361 0.17029 0.0
C1100 C 0.123 0.97609 0.16924 0.0
C1101 C 0.06537 0.99891 0.1709 0.0
C1102 C 0.07341 0.99146 0.15402 0.0
C1103 C 0.09198 0.98389 0.15389 0.0
C1104 C 0.06295 0.99186 0.13619 0.0
C1105 C 0.04578 0.00794 0.1716 0.0
C1106 C 0.04594 0.982 0.13467 0.0
C1107 C 0.03601 0.98258 0.11784 0.0
C1108 C 0.04299 0.99291 0.1022 0.0
C1109 C 0.06016 0.00262 0.10376 0.0
C1110 C 0.07007 0.00206 0.12061 0.0
H1111 H 0.04363 0.0169 0.18427 0.0
H1112 H 0.04337 0.01664 0.15877 0.0
H1113 H 0.03487 0.99685 0.17221 0.0
H1114 H 0.04038 0.97384 0.14649 0.0
H1115 H 0.02277 0.97507 0.11717 0.0
H1116 H 0.26604 0.87333 0.46483 0.0
H1117 H 0.27259 0.85161 0.43895 0.0
H1118 H 0.27305 0.80524 0.47851 0.0
H1119 H 0.26702 0.82705 0.50465 0.0
H1120 H 0.30264 0.80307 0.45306 0.0
H1121 H 0.23544 0.81647 0.41581 0.0
H1122 H 0.24781 0.83783 0.41974 0.0
H1123 H 0.23899 0.82429 0.43963 0.0
C1124 C 0.2674 0.8585 0.46801 0.0
C1125 C 0.26588 0.85183 0.4867 0.0
C1126 C 0.27105 0.8461 0.45321 0.0
C1127 C 0.27291 0.82679 0.45679 0.0
C1128 C 0.27153 0.82009 0.47547 0.0
H1129 H 0.27282 0.75924 0.35554 0.0
H1130 H 0.26639 0.7684 0.3884 0.0
C1131 C 0.26804 0.83253 0.49034 0.0
C1132 C 0.27674 0.8138 0.44096 0.0
H1133 H 0.26112 0.80269 0.39738 0.0
C1134 C 0.29343 0.80271 0.44098 0.0
C1135 C 0.26449 0.81302 0.42545 0.0
C1136 C 0.24558 0.82339 0.42523 0.0
C1137 C 0.29872 0.79161 0.42538 0.0
C1138 C 0.28724 0.79206 0.40922 0.0
C1139 C 0.27007 0.80244 0.40967 0.0
C1140 C 0.29304 0.78293 0.39122 0.0
C1141 C 0.31655 0.77961 0.42638 0.0
C1142 C 0.31046 0.78741 0.38213 0.0
C1143 C 0.31428 0.78173 0.36354 0.0
C1144 C 0.30054 0.77195 0.35375 0.0
C1145 C 0.28357 0.76672 0.36305 0.0
C1146 C 0.27992 0.77198 0.38171 0.0
H1147 H 0.31945 0.7754 0.44121 0.0
H1148 H 0.3155 0.76678 0.41773 0.0
H1149 H 0.3289 0.78781 0.42104 0.0
H1150 H 0.32058 0.79629 0.38891 0.0
H1151 H 0.32729 0.78611 0.35636 0.0
H1152 H 0.3789 0.03957 0.68366 0.0
H1153 H 0.39053 0.03966 0.65072 0.0
H1154 H 0.44498 0.01793 0.66844 0.0
H1155 H 0.43354 0.01787 0.70137 0.0
H1156 H 0.42446 0.06061 0.63861 0.0
H1157 H 0.42959 0.9846 0.6228 0.0
H1158 H 0.41429 0.99397 0.64147 0.0
H1159 H 0.43944 0.99111 0.64498 0.0
C1160 C 0.39324 0.03453 0.68049 0.0
C1161 C 0.40537 0.02874 0.69501 0.0
C1162 C 0.39983 0.03462 0.66172 0.0
C1163 C 0.41849 0.02865 0.65727 0.0
C1164 C 0.43042 0.02233 0.67167 0.0
H1165 H 0.50493 0.04794 0.57635 0.0
H1166 H 0.48157 0.04916 0.60251 0.0
C1167 C 0.42391 0.02238 0.69043 0.0
C1168 C 0.4262 0.03045 0.63784 0.0
H1169 H 0.4473 0.00515 0.60231 0.0
C1170 C 0.42915 0.04851 0.63047 0.0
C1171 C 0.4321 0.01461 0.62732 0.0
C1172 C 0.42857 0.99495 0.63443 0.0
C1173 C 0.43895 0.05115 0.61319 0.0
C1174 C 0.44592 0.03532 0.60325 0.0
C1175 C 0.44197 0.01725 0.61009 0.0
C1176 C 0.45886 0.03709 0.58668 0.0
C1177 C 0.44226 0.0708 0.60594 0.0
C1178 C 0.45366 0.03005 0.56917 0.0
C1179 C 0.46693 0.02937 0.55419 0.0
C1180 C 0.48567 0.03546 0.55666 0.0
C1181 C 0.4906 0.04314 0.57404 0.0
C1182 C 0.47727 0.04395 0.58895 0.0
H1183 H 0.43194 0.08098 0.6124 0.0
H1184 H 0.45684 0.07511 0.60958 0.0
H1185 H 0.44113 0.0715 0.59032 0.0
H1186 H 0.43952 0.02458 0.56728 0.0
H1187 H 0.46272 0.02334 0.54096 0.0
H1188 H 0.27846 0.20197 0.97996 0.0
H1189 H 0.27934 0.21708 0.94862 0.0
H1190 H 0.24848 0.171 0.9259 0.0
H1191 H 0.24757 0.15583 0.95709 0.0
H1192 H 0.29512 0.20205 0.91366 0.0
H1193 H 0.21772 0.21791 0.90876 0.0
H1194 H 0.22888 0.21247 0.93092 0.0
H1195 H 0.22362 0.19404 0.91481 0.0
C1196 C 0.27175 0.19511 0.96831 0.0
C1197 C 0.26287 0.17771 0.97109 0.0
C1198 C 0.27231 0.20375 0.95038 0.0
C1199 C 0.26378 0.19532 0.93489 0.0
C1200 C 0.25489 0.17796 0.93765 0.0
H1201 H 0.24895 0.22339 0.81582 0.0
H1202 H 0.24844 0.20926 0.84749 0.0
C1203 C 0.25445 0.16926 0.95551 0.0
C1204 C 0.26456 0.20437 0.91575 0.0
H1205 H 0.23663 0.22277 0.88101 0.0
C1206 C 0.28235 0.20669 0.90656 0.0
C1207 C 0.2479 0.21032 0.90639 0.0
C1208 C 0.22843 0.20874 0.91573 0.0
C1209 C 0.2839 0.21438 0.88816 0.0
C1210 C 0.26723 0.22043 0.87879 0.0
C1211 C 0.24944 0.21817 0.88807 0.0
C1212 C 0.26785 0.22902 0.85936 0.0
C1213 C 0.30339 0.21533 0.87873 0.0
C1214 C 0.27877 0.24501 0.85534 0.0
C1215 C 0.27921 0.25304 0.83715 0.0
C1216 C 0.26852 0.24546 0.82255 0.0
C1217 C 0.2574 0.2296 0.82666 0.0
C1218 C 0.25707 0.22151 0.84482 0.0
H1219 H 0.31355 0.20519 0.88516 0.0
H1220 H 0.30273 0.21243 0.86337 0.0
H1221 H 0.30914 0.22959 0.88051 0.0
H1222 H 0.28681 0.25145 0.86634 0.0
H1223 H 0.2878 0.26533 0.8346 0.0
H1224 H 0.12017 0.95912 0.33299 0.0
H1225 H 0.09674 0.9545 0.35886 0.0
H1226 H 0.07564 0.01103 0.35075 0.0
H1227 H 0.09865 0.01561 0.3249 0.0
H1228 H 0.09709 0.97454 0.39078 0.0
H1229 H 0.02639 0.98345 0.35938 0.0
H1230 H 0.04764 0.97844 0.34525 0.0
H1231 H 0.04167 0.00217 0.35195 0.0
C1232 C 0.11023 0.97039 0.3365 0.0
C1233 C 0.11129 0.98776 0.32705 0.0
C1234 C 0.09684 0.96771 0.3512 0.0
C1235 C 0.08423 0.9823 0.35651 0.0
C1236 C 0.08484 0.99939 0.34657 0.0
H1237 H 0.0494 0.03198 0.45542 0.0
H1238 H 0.0614 0.02004 0.42516 0.0
C1239 C 0.09818 0.00207 0.33193 0.0
C1240 C 0.0725 0.98099 0.3741 0.0
H1241 H 0.02866 0.99316 0.39248 0.0
C1242 C 0.08199 0.97802 0.39112 0.0
C1243 C 0.05275 0.98535 0.37457 0.0
C1244 C 0.04151 0.98732 0.35676 0.0
C1245 C 0.07267 0.98103 0.40856 0.0
C1246 C 0.05349 0.98729 0.40892 0.0
C1247 C 0.04348 0.98862 0.39206 0.0
C1248 C 0.04465 0.99486 0.42637 0.0
C1249 C 0.08369 0.97862 0.42648 0.0
C1250 C 0.03085 0.98482 0.43669 0.0
C1251 C 0.02392 0.99159 0.45409 0.0
C1252 C 0.03071 0.00853 0.46124 0.0
C1253 C 0.04393 0.01887 0.45037 0.0
C1254 C 0.05084 0.01208 0.4331 0.0
H1255 H 0.09656 0.96957 0.42427 0.0
H1256 H 0.08838 0.99255 0.43126 0.0
H1257 H 0.07461 0.97242 0.43792 0.0
H1258 H 0.02591 0.97151 0.43159 0.0
H1259 H 0.01373 0.98332 0.46215 0.0
H1260 H 0.25621 0.90499 0.59768 0.0
H1261 H 0.25118 0.89682 0.63119 0.0
H1262 H 0.24753 0.83846 0.61656 0.0
H1263 H 0.2524 0.84645 0.58318 0.0
H1264 H 0.21748 0.85326 0.6423 0.0
H1265 H 0.29149 0.86857 0.66408 0.0
H1266 H 0.2786 0.8863 0.65115 0.0
H1267 H 0.2858 0.86496 0.63965 0.0
C1268 C 0.25442 0.89042 0.60166 0.0
C1269 C 0.25479 0.87633 0.58789 0.0
C1270 C 0.25154 0.8858 0.62075 0.0
C1271 C 0.24905 0.86706 0.62623 0.0
C1272 C 0.24937 0.85301 0.61251 0.0
H1273 H 0.2434 0.78637 0.71033 0.0
H1274 H 0.23772 0.80739 0.6837 0.0
C1275 C 0.25226 0.85759 0.59349 0.0
C1276 C 0.24643 0.86172 0.64627 0.0
H1277 H 0.27141 0.85378 0.68628 0.0
C1278 C 0.22913 0.85366 0.65209 0.0
C1279 C 0.2616 0.86251 0.65897 0.0
C1280 C 0.28049 0.87096 0.65325 0.0
C1281 C 0.22694 0.8454 0.67003 0.0
C1282 C 0.24261 0.84491 0.68219 0.0
C1283 C 0.25945 0.85415 0.67687 0.0
C1284 C 0.24291 0.83278 0.69919 0.0
C1285 C 0.2081 0.83677 0.67555 0.0
C1286 C 0.24771 0.84009 0.71675 0.0
C1287 C 0.25114 0.82806 0.732 0.0
C1288 C 0.25 0.80853 0.72983 0.0
C1289 C 0.24437 0.80133 0.71246 0.0
C1290 C 0.24094 0.81336 0.69726 0.0
H1291 H 0.19615 0.84401 0.66834 0.0
H1292 H 0.20823 0.82188 0.67113 0.0
H1293 H 0.20541 0.8373 0.69107 0.0
H1294 H 0.24946 0.85503 0.71845 0.0
H1295 H 0.25543 0.83403 0.74523 0.0
H1296 H 0.40149 0.04855 0.81647 0.0
H1297 H 0.41955 0.04392 0.84527 0.0
H1298 H 0.46201 0.01167 0.81403 0.0
H1299 H 0.44422 0.01661 0.78505 0.0
H1300 H 0.42754 0.01023 0.86184 0.0
H1301 H 0.49438 0.04756 0.8435 0.0
H1302 H 0.47293 0.05056 0.83016 0.0
H1303 H 0.48808 0.03031 0.82651 0.0
C1304 C 0.41479 0.04067 0.8157 0.0
C1305 C 0.42149 0.03294 0.79856 0.0
C1306 C 0.42507 0.03804 0.83213 0.0
C1307 C 0.44219 0.02765 0.83169 0.0
C1308 C 0.44903 0.02008 0.81456 0.0
H1309 H 0.4912 0.97465 0.93034 0.0
H1310 H 0.47749 0.98105 0.89954 0.0
C1311 C 0.43881 0.02282 0.79806 0.0
C1312 C 0.45215 0.0237 0.84944 0.0
H1313 H 0.49445 0.02872 0.87144 0.0
C1314 C 0.44215 0.01432 0.86399 0.0
C1315 C 0.47114 0.02921 0.85217 0.0
C1316 C 0.48223 0.04013 0.83733 0.0
C1317 C 0.45066 0.01018 0.88123 0.0
C1318 C 0.46984 0.01519 0.88376 0.0
C1319 C 0.47982 0.02472 0.86929 0.0
C1320 C 0.47953 0.01118 0.90163 0.0
C1321 C 0.43893 0.00085 0.89671 0.0
C1322 C 0.48588 0.02599 0.91258 0.0
C1323 C 0.49398 0.02238 0.93006 0.0
C1324 C 0.49585 0.00388 0.93688 0.0
C1325 C 0.49004 0.98904 0.92552 0.0
C1326 C 0.48202 0.99267 0.908 0.0
H1327 H 0.4234 0.00228 0.89423 0.0
H1328 H 0.4426 0.98567 0.89718 0.0
H1329 H 0.44194 0.00689 0.91072 0.0
H1330 H 0.48421 0.04037 0.90778 0.0
H1331 H 0.4987 0.0341 0.93824 0.0
H1332 H 0.28457 0.15507 0.08908 0.0
H1333 H 0.28669 0.17001 0.11995 0.0
H1334 H 0.25083 0.21558 0.10084 0.0
H1335 H 0.24863 0.20064 0.06983 0.0
H1336 H 0.30055 0.20581 0.12891 0.0
H1337 H 0.22449 0.19867 0.15092 0.0
H1338 H 0.2352 0.18554 0.1316 0.0
H1339 H 0.22854 0.20973 0.12828 0.0
C1340 C 0.27708 0.16826 0.09142 0.0
C1341 C 0.26636 0.17661 0.07695 0.0
C1342 C 0.27834 0.17681 0.10911 0.0
C1343 C 0.26875 0.19384 0.11289 0.0
C1344 C 0.25812 0.2023 0.09843 0.0
H1345 H 0.28647 0.27071 0.20607 0.0
H1346 H 0.28551 0.25519 0.17542 0.0
C1347 C 0.25694 0.19379 0.08065 0.0
C1348 C 0.27016 0.20277 0.13186 0.0
H1349 H 0.24387 0.21626 0.17096 0.0
C1350 C 0.28815 0.2081 0.13809 0.0
C1351 C 0.25404 0.20556 0.14401 0.0
C1352 C 0.23448 0.19946 0.13851 0.0
C1353 C 0.29039 0.21637 0.15591 0.0
C1354 C 0.27422 0.21954 0.16789 0.0
C1355 C 0.25627 0.21395 0.16179 0.0
C1356 C 0.2756 0.22872 0.18673 0.0
C1357 C 0.31013 0.2214 0.16191 0.0
C1358 C 0.27027 0.21911 0.20343 0.0
C1359 C 0.2709 0.22794 0.22107 0.0
C1360 C 0.27665 0.2467 0.22242 0.0
C1361 C 0.28211 0.25623 0.20566 0.0
C1362 C 0.28161 0.24734 0.18807 0.0
H1363 H 0.32136 0.21404 0.15333 0.0
H1364 H 0.31209 0.23671 0.16001 0.0
H1365 H 0.31215 0.2179 0.17706 0.0
H1366 H 0.2655 0.20476 0.20281 0.0
H1367 H 0.26641 0.2202 0.23361 0.0
H1368 H 0.1938 0.14214 0.0295 0.0
H1369 H 0.16452 0.12392 0.02878 0.0
H1370 H 0.19789 0.07327 0.02074 0.0
H1371 H 0.22718 0.09147 0.021 0.0
H1372 H 0.16863 0.07445 0.99716 0.0
H1373 H 0.14135 0.09081 0.0693 0.0
H1374 H 0.14567 0.11145 0.05528 0.0
H1375 H 0.1653 0.09624 0.06141 0.0
C1376 C 0.19491 0.1271 0.02769 0.0
C1377 C 0.21286 0.11827 0.0254 0.0
C1378 C 0.17813 0.11666 0.02741 0.0
C1379 C 0.1789 0.0971 0.02505 0.0
C1380 C 0.19684 0.08829 0.02268 0.0
H1381 H 0.08019 0.02476 0.04521 0.0
H1382 H 0.11144 0.03955 0.0464 0.0
C1383 C 0.21361 0.09873 0.02287 0.0
C1384 C 0.16107 0.08591 0.02443 0.0
H1385 H 0.11963 0.0762 0.04884 0.0
C1386 C 0.15798 0.07477 0.00853 0.0
C1387 C 0.14722 0.08599 0.03936 0.0
C1388 C 0.1501 0.0966 0.05739 0.0
C1389 C 0.14135 0.06415 0.00694 0.0
C1390 C 0.1271 0.06493 0.02147 0.0
C1391 C 0.1304 0.07569 0.03758 0.0
C1392 C 0.10857 0.05499 0.02013 0.0
C1393 C 0.13938 0.05197 0.98979 0.0
C1394 C 0.09646 0.05862 0.00495 0.0
C1395 C 0.07866 0.05005 0.00415 0.0
C1396 C 0.07238 0.03777 0.01862 0.0
C1397 C 0.08459 0.034 0.03373 0.0
C1398 C 0.10245 0.04254 0.03448 0.0
H1399 H 0.1535 0.04831 0.9833 0.0
H1400 H 0.13183 0.03881 0.99343 0.0
H1401 H 0.13107 0.05973 0.97903 0.0
H1402 H 0.10054 0.06849 0.99393 0.0
H1403 H 0.06959 0.05351 0.99241 0.0
H1404 H 0.68641 0.38158 0.038 0.0
H1405 H 0.65369 0.39399 0.03676 0.0
H1406 H 0.67508 0.44747 0.01772 0.0
H1407 H 0.70768 0.43518 0.01873 0.0
H1408 H 0.63908 0.42468 0.05731 0.0
H1409 H 0.63317 0.4368 0.98026 0.0
H1410 H 0.65135 0.42175 0.99018 0.0
H1411 H 0.65428 0.44676 0.98953 0.0
C1412 C 0.68408 0.39591 0.03331 0.0
C1413 C 0.69954 0.40743 0.02841 0.0
C1414 C 0.66544 0.40295 0.03264 0.0
C1415 C 0.66203 0.42152 0.02689 0.0
C1416 C 0.67743 0.43296 0.0218 0.0
H1417 H 0.58064 0.50854 0.02669 0.0
H1418 H 0.60807 0.48719 0.02787 0.0
C1419 C 0.69603 0.42596 0.02249 0.0
C1420 C 0.64254 0.42952 0.02732 0.0
H1421 H 0.61117 0.45415 0.00034 0.0
C1422 C 0.63274 0.4308 0.04481 0.0
C1423 C 0.63436 0.43736 0.01095 0.0
C1424 C 0.64375 0.43544 0.99163 0.0
C1425 C 0.61544 0.4408 0.04653 0.0
C1426 C 0.60791 0.44957 0.03035 0.0
C1427 C 0.61719 0.44748 0.01272 0.0
C1428 C 0.59122 0.46224 0.03157 0.0
C1429 C 0.60579 0.4428 0.0657 0.0
C1430 C 0.57278 0.45516 0.03359 0.0
C1431 C 0.55702 0.46732 0.0329 0.0
C1432 C 0.55959 0.48668 0.03014 0.0
C1433 C 0.57818 0.49371 0.02881 0.0
C1434 C 0.59386 0.48156 0.02945 0.0
H1435 H 0.61411 0.43599 0.07709 0.0
H1436 H 0.60368 0.45787 0.06907 0.0
H1437 H 0.5915 0.43636 0.06551 0.0
H1438 H 0.57058 0.44022 0.03511 0.0
H1439 H 0.54286 0.4615 0.03393 0.0
H1440 H 0.88389 0.47084 0.26539 0.0
H1441 H 0.8667 0.4429 0.27568 0.0
H1442 H 0.82215 0.47768 0.3006 0.0
H1443 H 0.83958 0.50579 0.29077 0.0
H1444 H 0.83183 0.4475 0.32334 0.0
H1445 H 0.81931 0.42484 0.25009 0.0
H1446 H 0.84411 0.42817 0.25435 0.0
H1447 H 0.8278 0.44787 0.25547 0.0
C1448 C 0.87044 0.47253 0.27307 0.0
C1449 C 0.86294 0.49043 0.27712 0.0
C1450 C 0.86062 0.45659 0.27888 0.0
C1451 C 0.84299 0.45829 0.28854 0.0
C1452 C 0.83569 0.47613 0.29305 0.0
H1453 H 0.77189 0.36034 0.29296 0.0
H1454 H 0.7819 0.39297 0.29032 0.0
C1455 C 0.84562 0.49213 0.28739 0.0
C1456 C 0.83211 0.44136 0.29357 0.0
H1457 H 0.8141 0.40201 0.27444 0.0
C1458 C 0.82773 0.43761 0.31268 0.0
C1459 C 0.82645 0.42875 0.27957 0.0
C1460 C 0.82947 0.43269 0.25872 0.0
C1461 C 0.81843 0.4211 0.31823 0.0
C1462 C 0.81387 0.40792 0.30429 0.0
C1463 C 0.8177 0.41206 0.28515 0.0
C1464 C 0.80573 0.38941 0.30898 0.0
C1465 C 0.81354 0.41802 0.33889 0.0
C1466 C 0.81543 0.37676 0.32081 0.0
C1467 C 0.80945 0.35822 0.32258 0.0
C1468 C 0.79406 0.35206 0.31216 0.0
C1469 C 0.7839 0.36488 0.30098 0.0
C1470 C 0.78959 0.38345 0.29952 0.0
H1471 H 0.81189 0.43155 0.34645 0.0
H1472 H 0.80017 0.41002 0.34084 0.0
H1473 H 0.82528 0.40997 0.34555 0.0
H1474 H 0.82821 0.38089 0.32785 0.0
H1475 H 0.81753 0.34842 0.33111 0.0
H1476 H 0.80476 0.59401 0.52361 0.0
H1477 H 0.83571 0.57768 0.52296 0.0
H1478 H 0.86421 0.63075 0.52391 0.0
H1479 H 0.83329 0.64719 0.52435 0.0
H1480 H 0.88012 0.60612 0.49728 0.0
H1481 H 0.87164 0.57111 0.56728 0.0
H1482 H 0.85267 0.56686 0.55137 0.0
H1483 H 0.85629 0.59018 0.55985 0.0
C1484 C 0.81761 0.60221 0.52374 0.0
C1485 C 0.81655 0.62191 0.52414 0.0
C1486 C 0.83531 0.59284 0.52346 0.0
C1487 C 0.85232 0.60296 0.52366 0.0
C1488 C 0.8513 0.62263 0.52383 0.0
H1489 H 0.9658 0.56253 0.54978 0.0
H1490 H 0.93445 0.57781 0.54896 0.0
C1491 C 0.8336 0.63201 0.52412 0.0
C1492 C 0.8712 0.59308 0.52351 0.0
H1493 H 0.89865 0.56214 0.54855 0.0
C1494 C 0.88418 0.5965 0.50848 0.0
C1495 C 0.87658 0.58067 0.53823 0.0
C1496 C 0.86366 0.57707 0.5552 0.0
C1497 C 0.9023 0.58776 0.5077 0.0
C1498 C 0.90752 0.57504 0.52223 0.0
C1499 C 0.89459 0.57174 0.53732 0.0
C1500 C 0.9266 0.56558 0.52245 0.0
C1501 C 0.91586 0.59257 0.49157 0.0
C1502 C 0.93264 0.55342 0.5079 0.0
C1503 C 0.95064 0.54462 0.5083 0.0
C1504 C 0.96294 0.54774 0.52334 0.0
C1505 C 0.95675 0.5598 0.53796 0.0
C1506 C 0.93879 0.56855 0.53754 0.0
H1507 H 0.91155 0.60574 0.48424 0.0
H1508 H 0.9306 0.59411 0.49665 0.0
H1509 H 0.91598 0.5811 0.48109 0.0
H1510 H 0.92337 0.55062 0.49627 0.0
H1511 H 0.9549 0.53538 0.49684 0.0
H1512 H 0.18021 0.0589 0.26843 0.0
H1513 H 0.19209 0.09036 0.27352 0.0
H1514 H 0.1868 0.08202 0.33387 0.0
H1515 H 0.17505 0.05027 0.3289 0.0
H1516 H 0.17327 0.12008 0.29344 0.0
H1517 H 0.24247 0.09901 0.32486 0.0
H1518 H 0.22822 0.08283 0.31201 0.0
H1519 H 0.22132 0.08931 0.33568 0.0
C1520 C 0.18164 0.06371 0.2828 0.0
C1521 C 0.1768 0.05215 0.29829 0.0
C1522 C 0.18837 0.08168 0.28566 0.0
C1523 C 0.19042 0.08837 0.30404 0.0
C1524 C 0.18552 0.07694 0.31958 0.0
H1525 H 0.23937 0.19525 0.33494 0.0
H1526 H 0.22284 0.16537 0.33674 0.0
C1527 C 0.17879 0.05888 0.31673 0.0
C1528 C 0.19765 0.10742 0.30668 0.0
H1529 H 0.23637 0.1313 0.32099 0.0
C1530 C 0.18699 0.12259 0.2996 0.0
C1531 C 0.2155 0.11054 0.3148 0.0
C1532 C 0.22767 0.0946 0.32218 0.0
C1533 C 0.19394 0.14087 0.30005 0.0
C1534 C 0.2121 0.14389 0.30752 0.0
C1535 C 0.22245 0.12883 0.31524 0.0
C1536 C 0.22114 0.16238 0.30645 0.0
C1537 C 0.18189 0.15675 0.2924 0.0
C1538 C 0.22572 0.17043 0.2888 0.0
C1539 C 0.23528 0.1874 0.28771 0.0
C1540 C 0.24054 0.19653 0.30426 0.0
C1541 C 0.23577 0.18844 0.32193 0.0
C1542 C 0.22622 0.17146 0.32301 0.0
H1543 H 0.16658 0.15303 0.29219 0.0
H1544 H 0.18338 0.16961 0.30093 0.0
H1545 H 0.18665 0.15997 0.27766 0.0
H1546 H 0.22226 0.16337 0.27586 0.0
H1547 H 0.23901 0.1931 0.2739 0.0
H1548 H 0.29531 0.94563 0.51635 0.0
H1549 H 0.32493 0.96163 0.50779 0.0
H1550 H 0.3562 0.9094 0.51318 0.0
H1551 H 0.32676 0.89348 0.52235 0.0
H1552 H 0.37391 0.93707 0.52993 0.0
H1553 H 0.35398 0.96014 0.45799 0.0
H1554 H 0.33742 0.96819 0.47596 0.0
H1555 H 0.34019 0.94347 0.47166 0.0
C1556 C 0.30852 0.93759 0.51571 0.0
C1557 C 0.30877 0.91833 0.51997 0.0
C1558 C 0.32539 0.9467 0.51065 0.0
C1559 C 0.34269 0.93661 0.50943 0.0
C1560 C 0.34297 0.91741 0.51391 0.0
H1561 H 0.44986 0.97658 0.45981 0.0
H1562 H 0.41924 0.96088 0.46535 0.0
C1563 C 0.32617 0.90835 0.51918 0.0
C1564 C 0.36066 0.94615 0.50421 0.0
H1565 H 0.38213 0.97342 0.47024 0.0
C1566 C 0.37574 0.94492 0.51682 0.0
C1567 C 0.36312 0.95613 0.48696 0.0
C1568 C 0.34789 0.95692 0.47227 0.0
C1569 C 0.3931 0.9537 0.51286 0.0
C1570 C 0.39523 0.96446 0.49606 0.0
C1571 C 0.38033 0.96536 0.48322 0.0
C1572 C 0.41281 0.97498 0.49177 0.0
C1573 C 0.40908 0.95112 0.5266 0.0
C1574 C 0.41889 0.98853 0.50441 0.0
C1575 C 0.43631 0.99727 0.50137 0.0
C1576 C 0.4478 0.99288 0.48545 0.0
C1577 C 0.44121 0.98015 0.47218 0.0
C1578 C 0.42381 0.97119 0.47536 0.0
H1579 H 0.4072 0.93829 0.53542 0.0
H1580 H 0.42314 0.95019 0.5191 0.0
H1581 H 0.40918 0.96329 0.53624 0.0
H1582 H 0.41033 0.99207 0.51686 0.0
H1583 H 0.44092 0.00737 0.51157 0.0
H1584 H 0.83329 0.57004 0.24226 0.0
H1585 H 0.81447 0.59841 0.23535 0.0
H1586 H 0.86145 0.63257 0.25154 0.0
H1587 H 0.88032 0.60441 0.25845 0.0
H1588 H 0.80552 0.62734 0.26198 0.0
H1589 H 0.84583 0.65417 0.19936 0.0
H1590 H 0.84736 0.63003 0.20723 0.0
H1591 H 0.86072 0.64775 0.21874 0.0
C1592 C 0.8396 0.58362 0.24429 0.0
C1593 C 0.85823 0.58509 0.2509 0.0
C1594 C 0.82888 0.59974 0.24026 0.0
C1595 C 0.83678 0.61746 0.24257 0.0
C1596 C 0.85533 0.61895 0.24926 0.0
H1597 H 0.81496 0.73099 0.25623 0.0
H1598 H 0.82699 0.69967 0.24852 0.0
C1599 C 0.86599 0.60288 0.25338 0.0
C1600 C 0.82529 0.63457 0.23947 0.0
H1601 H 0.82617 0.67663 0.21631 0.0
C1602 C 0.80968 0.638 0.25172 0.0
C1603 C 0.83085 0.64828 0.226 0.0
C1604 C 0.847 0.64483 0.21195 0.0
C1605 C 0.80034 0.65547 0.25188 0.0
C1606 C 0.8066 0.6696 0.23912 0.0
C1607 C 0.82146 0.66573 0.22606 0.0
C1608 C 0.79953 0.68907 0.24082 0.0
C1609 C 0.78476 0.65906 0.26657 0.0
C1610 C 0.78025 0.69357 0.23836 0.0
C1611 C 0.77327 0.71141 0.24294 0.0
C1612 C 0.78557 0.725 0.24985 0.0
C1613 C 0.80512 0.72078 0.25105 0.0
C1614 C 0.81203 0.70292 0.2466 0.0
H1615 H 0.78395 0.64768 0.27738 0.0
H1616 H 0.78706 0.67252 0.27387 0.0
H1617 H 0.77081 0.66002 0.25956 0.0
H1618 H 0.77049 0.6831 0.23357 0.0
H1619 H 0.75817 0.71435 0.24166 0.0
H1620 H 0.69591 0.47085 0.82619 0.0
H1621 H 0.72292 0.44885 0.82858 0.0
H1622 H 0.72259 0.44075 0.76822 0.0
H1623 H 0.69601 0.46287 0.76571 0.0
H1624 H 0.72041 0.41292 0.81979 0.0
H1625 H 0.77893 0.44262 0.77648 0.0
H1626 H 0.75887 0.45669 0.78483 0.0
H1627 H 0.75738 0.44331 0.76343 0.0
C1628 C 0.70189 0.46464 0.81341 0.0
C1629 C 0.69381 0.46844 0.79577 0.0
C1630 C 0.71735 0.45217 0.81478 0.0
C1631 C 0.72501 0.44343 0.79854 0.0
C1632 C 0.71733 0.44775 0.78087 0.0
H1633 H 0.76048 0.34538 0.75363 0.0
H1634 H 0.75492 0.37798 0.76234 0.0
C1635 C 0.70195 0.46022 0.77948 0.0
C1636 C 0.73881 0.42765 0.80013 0.0
H1637 H 0.77749 0.40814 0.77727 0.0
C1638 C 0.73328 0.41205 0.81102 0.0
C1639 C 0.75566 0.4266 0.78877 0.0
C1640 C 0.76313 0.44332 0.7779 0.0
C1641 C 0.74296 0.39482 0.80931 0.0
C1642 C 0.75872 0.39332 0.79654 0.0
C1643 C 0.76531 0.40934 0.78696 0.0
C1644 C 0.76604 0.37478 0.79046 0.0
C1645 C 0.73519 0.37798 0.81985 0.0
C1646 C 0.77487 0.36241 0.80316 0.0
C1647 C 0.77799 0.34366 0.79824 0.0
C1648 C 0.77231 0.33712 0.78057 0.0
C1649 C 0.76483 0.34994 0.76741 0.0
C1650 C 0.76175 0.36861 0.77233 0.0
H1651 H 0.72165 0.38123 0.8277 0.0
H1652 H 0.73259 0.36641 0.80987 0.0
H1653 H 0.74578 0.37288 0.83016 0.0
H1654 H 0.77844 0.36702 0.81716 0.0
H1655 H 0.78391 0.33412 0.80864 0.0
H1656 H 0.01423 0.81706 0.95214 0.0
H1657 H 0.0159 0.84811 0.96665 0.0
H1658 H 0.019 0.87379 0.91132 0.0
H1659 H 0.01734 0.84287 0.89675 0.0
H1660 H 0.04521 0.8754 0.96208 0.0
H1661 H 0.9756 0.90358 0.93823 0.0
H1662 H 0.98148 0.87886 0.93801 0.0
H1663 H 0.99085 0.89409 0.91981 0.0
C1664 C 0.01515 0.82932 0.94305 0.0
C1665 C 0.01556 0.82742 0.92325 0.0
C1666 C 0.01615 0.84709 0.95138 0.0
C1667 C 0.01734 0.8634 0.94012 0.0
C1668 C 0.01775 0.86152 0.92035 0.0
H1669 H 0.02118 0.98366 0.96448 0.0
H1670 H 0.0209 0.9529 0.9493 0.0
C1671 C 0.01688 0.84377 0.91203 0.0
C1672 C 0.01864 0.88231 0.94901 0.0
H1673 H 0.99588 0.92493 0.95296 0.0
C1674 C 0.03438 0.8862 0.96015 0.0
C1675 C 0.00462 0.89653 0.94641 0.0
C1676 C 0.98708 0.89309 0.93511 0.0
C1677 C 0.03664 0.9039 0.96847 0.0
C1678 C 0.0225 0.9181 0.96606 0.0
C1679 C 0.00678 0.91419 0.95485 0.0
C1680 C 0.02352 0.93692 0.97528 0.0
C1681 C 0.05446 0.90734 0.97934 0.0
C1682 C 0.02503 0.9384 0.995 0.0
C1683 C 0.02538 0.95598 0.00369 0.0
C1684 C 0.02398 0.97266 0.99296 0.0
C1685 C 0.02244 0.97119 0.97321 0.0
C1686 C 0.0222 0.95355 0.96451 0.0
H1687 H 0.06627 0.8977 0.97485 0.0
H1688 H 0.05931 0.92199 0.97747 0.0
H1689 H 0.05147 0.90478 0.99461 0.0
H1690 H 0.02553 0.92591 0.00378 0.0
H1691 H 0.02631 0.95648 0.01894 0.0
H1692 H 0.94018 0.26979 0.63192 0.0
H1693 H 0.90986 0.27066 0.64984 0.0
H1694 H 0.94026 0.26787 0.70206 0.0
H1695 H 0.97058 0.2673 0.6843 0.0
H1696 H 0.89396 0.24589 0.67701 0.0
H1697 H 0.90765 0.31583 0.70725 0.0
H1698 H 0.92154 0.30635 0.68767 0.0
H1699 H 0.9261 0.29869 0.71144 0.0
C1700 C 0.94037 0.26922 0.64722 0.0
C1701 C 0.9577 0.26866 0.65675 0.0
C1702 C 0.92308 0.26972 0.65741 0.0
C1703 C 0.9229 0.2697 0.67723 0.0
C1704 C 0.94016 0.26831 0.68676 0.0
H1705 H 0.83585 0.27626 0.76529 0.0
H1706 H 0.8655 0.27301 0.74663 0.0
C1707 C 0.95744 0.26788 0.6766 0.0
C1708 C 0.90469 0.27161 0.68799 0.0
H1709 H 0.88059 0.29978 0.71942 0.0
C1710 C 0.89096 0.25769 0.68623 0.0
C1711 C 0.90087 0.28711 0.69991 0.0
C1712 C 0.91473 0.30295 0.70159 0.0
C1713 C 0.8736 0.25865 0.69645 0.0
C1714 C 0.86991 0.27403 0.70851 0.0
C1715 C 0.88358 0.28799 0.71019 0.0
C1716 C 0.85194 0.2759 0.71962 0.0
C1717 C 0.8595 0.24306 0.6946 0.0
C1718 C 0.83463 0.27887 0.71052 0.0
C1719 C 0.81768 0.28083 0.72111 0.0
C1720 C 0.81783 0.27986 0.74097 0.0
C1721 C 0.83527 0.27706 0.75002 0.0
C1722 C 0.8522 0.27518 0.73941 0.0
H1723 H 0.86611 0.23044 0.68792 0.0
H1724 H 0.85339 0.23904 0.70866 0.0
H1725 H 0.84762 0.24797 0.68567 0.0
H1726 H 0.83424 0.27976 0.69524 0.0
H1727 H 0.80448 0.28297 0.71373 0.0
H1728 H 0.52157 0.20759 0.3992 0.0
H1729 H 0.52242 0.17677 0.41468 0.0
H1730 H 0.51109 0.20273 0.46865 0.0
H1731 H 0.51006 0.23365 0.45319 0.0
H1732 H 0.54626 0.16314 0.44241 0.0
H1733 H 0.47095 0.1618 0.46807 0.0
H1734 H 0.47939 0.17852 0.45061 0.0
H1735 H 0.48385 0.18198 0.47523 0.0
C1736 C 0.51914 0.20677 0.41436 0.0
C1737 C 0.51564 0.22315 0.42491 0.0
C1738 C 0.51968 0.1891 0.42321 0.0
C1739 C 0.51659 0.18728 0.44284 0.0
C1740 C 0.51316 0.20364 0.45345 0.0
H1741 H 0.54517 0.08732 0.5106 0.0
H1742 H 0.54377 0.11881 0.49653 0.0
C1743 C 0.51267 0.22135 0.44459 0.0
C1744 C 0.51739 0.16833 0.45213 0.0
H1745 H 0.49111 0.13701 0.47842 0.0
C1746 C 0.5342 0.15746 0.4503 0.0
C1747 C 0.5016 0.16072 0.46227 0.0
C1748 C 0.48285 0.17124 0.46407 0.0
C1749 C 0.53571 0.13939 0.45841 0.0
C1750 C 0.52007 0.13193 0.46889 0.0
C1751 C 0.50319 0.14272 0.47056 0.0
C1752 C 0.52078 0.11281 0.47778 0.0
C1753 C 0.55394 0.12824 0.45531 0.0
C1754 C 0.50806 0.09893 0.47233 0.0
C1755 C 0.50881 0.08089 0.48039 0.0
C1756 C 0.52219 0.07628 0.49427 0.0
C1757 C 0.53473 0.09029 0.49992 0.0
C1758 C 0.53401 0.10832 0.49179 0.0
H1759 H 0.56265 0.1339 0.4433 0.0
H1760 H 0.56256 0.12887 0.46823 0.0
H1761 H 0.55091 0.1133 0.45253 0.0
H1762 H 0.49767 0.102 0.46162 0.0
H1763 H 0.49888 0.07054 0.47568 0.0
H1764 H 0.53062 0.79714 0.18931 0.0
H1765 H 0.55618 0.79994 0.21197 0.0
H1766 H 0.5978 0.78766 0.1677 0.0
H1767 H 0.57241 0.78552 0.14492 0.0
H1768 H 0.57846 0.77224 0.22212 0.0
H1769 H 0.62416 0.82869 0.19417 0.0
H1770 H 0.60032 0.82529 0.18595 0.0
H1771 H 0.62013 0.81202 0.17598 0.0
C1772 C 0.54527 0.79548 0.18436 0.0
C1773 C 0.54959 0.79106 0.16541 0.0
C1774 C 0.55984 0.7971 0.19729 0.0
C1775 C 0.57891 0.79425 0.19149 0.0
C1776 C 0.58325 0.79046 0.17241 0.0
H1777 H 0.66934 0.73772 0.24309 0.0
H1778 H 0.63946 0.74847 0.22951 0.0
C1779 C 0.56871 0.78906 0.15943 0.0
C1780 C 0.59405 0.79276 0.20564 0.0
H1781 H 0.64004 0.80471 0.21321 0.0
C1782 C 0.59178 0.77967 0.22043 0.0
C1783 C 0.61127 0.80271 0.20372 0.0
C1784 C 0.61401 0.81811 0.1892 0.0
C1785 C 0.60676 0.77526 0.23247 0.0
C1786 C 0.6246 0.78379 0.22926 0.0
C1787 C 0.62644 0.7979 0.21542 0.0
C1788 C 0.64191 0.77713 0.23889 0.0
C1789 C 0.60342 0.7612 0.24822 0.0
C1790 C 0.65338 0.78974 0.24837 0.0
C1791 C 0.67059 0.78364 0.25596 0.0
C1792 C 0.6766 0.76484 0.25416 0.0
C1793 C 0.66491 0.75219 0.24497 0.0
C1794 C 0.6478 0.75832 0.23727 0.0
H1795 H 0.58824 0.76135 0.25306 0.0
H1796 H 0.60688 0.74692 0.24294 0.0
H1797 H 0.61246 0.76401 0.2605 0.0
H1798 H 0.64912 0.80434 0.24968 0.0
H1799 H 0.67925 0.79364 0.26314 0.0
H1800 H 0.05045 0.25424 0.57563 0.0
H1801 H 0.062 0.23013 0.55352 0.0
H1802 H 0.0103 0.19923 0.56344 0.0
H1803 H 0.9987 0.22318 0.58549 0.0
H1804 H 0.06775 0.19292 0.56525 0.0
H1805 H 0.01817 0.1966 0.50573 0.0
H1806 H 0.0212 0.21587 0.52175 0.0
H1807 H 0.00587 0.19675 0.52827 0.0
C1808 C 0.04138 0.2425 0.57277 0.0
C1809 C 0.02371 0.2405 0.58231 0.0
C1810 C 0.048 0.22878 0.56015 0.0
C1811 C 0.03689 0.21307 0.55669 0.0
C1812 C 0.01891 0.21147 0.56562 0.0
H1813 H 0.04759 0.09945 0.54541 0.0
H1814 H 0.04729 0.13262 0.5537 0.0
C1815 C 0.01236 0.22507 0.57832 0.0
C1816 C 0.04487 0.1971 0.54581 0.0
H1817 H 0.03353 0.1664 0.51135 0.0
C1818 C 0.06061 0.18737 0.55313 0.0
C1819 C 0.03568 0.19002 0.52988 0.0
C1820 C 0.01941 0.20047 0.52082 0.0
C1821 C 0.06633 0.16989 0.54595 0.0
C1822 C 0.05597 0.16201 0.53121 0.0
C1823 C 0.04133 0.17246 0.52278 0.0
C1824 C 0.05812 0.14203 0.52639 0.0
C1825 C 0.08275 0.15951 0.55484 0.0
C1826 C 0.06431 0.13643 0.50827 0.0
C1827 C 0.06456 0.11743 0.50354 0.0
C1828 C 0.05823 0.10393 0.51676 0.0
C1829 C 0.05238 0.10962 0.53495 0.0
C1830 C 0.05236 0.1285 0.53973 0.0
H1831 H 0.09248 0.16927 0.56185 0.0
H1832 H 0.07711 0.14963 0.56573 0.0
H1833 H 0.09103 0.15128 0.54412 0.0
H1834 H 0.06861 0.14676 0.49776 0.0
H1835 H 0.06897 0.11335 0.48938 0.0
H1836 H 0.56314 0.29363 0.34745 0.0
H1837 H 0.59466 0.29288 0.33188 0.0
H1838 H 0.61507 0.25517 0.37516 0.0
H1839 H 0.58382 0.25668 0.39126 0.0
H1840 H 0.64081 0.27957 0.36805 0.0
H1841 H 0.6179 0.25392 0.29889 0.0
H1842 H 0.60603 0.27552 0.30492 0.0
H1843 H 0.60198 0.25487 0.31924 0.0
C1844 C 0.57435 0.28515 0.35361 0.0
C1845 C 0.57095 0.27516 0.37055 0.0
C1846 C 0.59236 0.28457 0.34459 0.0
C1847 C 0.60727 0.27358 0.352 0.0
C1848 C 0.60388 0.26369 0.36902 0.0
H1849 H 0.7118 0.24683 0.28647 0.0
H1850 H 0.68048 0.24604 0.30256 0.0
C1851 C 0.58597 0.26454 0.37823 0.0
C1852 C 0.62654 0.27284 0.34243 0.0
H1853 H 0.64949 0.2659 0.29978 0.0
C1854 C 0.64267 0.27644 0.35314 0.0
C1855 C 0.6292 0.26839 0.32303 0.0
C1856 C 0.61287 0.26275 0.31092 0.0
C1857 C 0.66119 0.27607 0.34502 0.0
C1858 C 0.66373 0.27273 0.32539 0.0
C1859 C 0.64765 0.26875 0.31475 0.0
C1860 C 0.68289 0.27321 0.31563 0.0
C1861 C 0.67782 0.27878 0.35779 0.0
C1862 C 0.69471 0.28882 0.31728 0.0
C1863 C 0.71275 0.28913 0.30838 0.0
C1864 C 0.71926 0.27406 0.29716 0.0
C1865 C 0.70723 0.25867 0.29502 0.0
C1866 C 0.6893 0.25822 0.30422 0.0
H1867 H 0.67416 0.27474 0.37263 0.0
H1868 H 0.69048 0.27042 0.35304 0.0
H1869 H 0.68164 0.29381 0.35774 0.0
H1870 H 0.68995 0.30088 0.32538 0.0
H1871 H 0.72153 0.30133 0.31012 0.0
H1872 H 0.48287 0.84051 0.13747 0.0
H1873 H 0.47644 0.87254 0.12641 0.0
H1874 H 0.48903 0.85563 0.06902 0.0
H1875 H 0.49552 0.8236 0.07994 0.0
H1876 H 0.50531 0.89324 0.10644 0.0
H1877 H 0.43929 0.88795 0.06538 0.0
H1878 H 0.44594 0.87091 0.0832 0.0
H1879 H 0.45711 0.87028 0.06008 0.0
C1880 C 0.48398 0.84357 0.12246 0.0
C1881 C 0.4898 0.82964 0.10954 0.0
C1882 C 0.48025 0.86181 0.11619 0.0
C1883 C 0.48203 0.86631 0.09691 0.0
C1884 C 0.48723 0.8523 0.08392 0.0
H1885 H 0.49548 0.95817 0.02218 0.0
H1886 H 0.48802 0.92863 0.03818 0.0
C1887 C 0.49108 0.83407 0.09018 0.0
C1888 C 0.48077 0.886 0.09057 0.0
H1889 H 0.45797 0.91536 0.05999 0.0
C1890 C 0.49478 0.89825 0.09654 0.0
C1891 C 0.46704 0.89228 0.07762 0.0
C1892 C 0.45137 0.87973 0.07128 0.0
C1893 C 0.4961 0.91643 0.08909 0.0
C1894 C 0.48267 0.92262 0.07571 0.0
C1895 C 0.46819 0.91056 0.07029 0.0
C1896 C 0.48456 0.94089 0.06595 0.0
C1897 C 0.51254 0.92841 0.0948 0.0
C1898 C 0.48443 0.95763 0.0762 0.0
C1899 C 0.48897 0.97449 0.06715 0.0
C1900 C 0.49336 0.97488 0.04766 0.0
C1901 C 0.49223 0.95829 0.03723 0.0
C1902 C 0.48793 0.94141 0.04634 0.0
H1903 H 0.52385 0.92004 0.10183 0.0
H1904 H 0.51901 0.93566 0.08232 0.0
H1905 H 0.50726 0.93921 0.1049 0.0
H1906 H 0.48143 0.95755 0.09129 0.0
H1907 H 0.4895 0.98712 0.0755 0.0
H1908 H 0.97775 0.77752 0.84033 0.0
H1909 H 0.94797 0.77769 0.82298 0.0
H1910 H 0.9159 0.77468 0.87564 0.0
H1911 H 0.94565 0.77468 0.8931 0.0
H1912 H 0.91971 0.75116 0.82228 0.0
H1913 H 0.8899 0.81864 0.84878 0.0
H1914 H 0.91452 0.81177 0.8517 0.0
H1915 H 0.89626 0.80236 0.86715 0.0
C1916 C 0.96436 0.777 0.84825 0.0
C1917 C 0.96412 0.77618 0.86814 0.0
C1918 C 0.94732 0.77706 0.83828 0.0
C1919 C 0.92959 0.77646 0.84794 0.0
C1920 C 0.92932 0.77555 0.86782 0.0
H1921 H 0.81976 0.74609 0.8032 0.0
H1922 H 0.85068 0.74681 0.81834 0.0
C1923 C 0.94637 0.77545 0.8778 0.0
C1924 C 0.91149 0.77629 0.83718 0.0
H1925 H 0.86913 0.79978 0.83125 0.0
C1926 C 0.90869 0.76184 0.82422 0.0
C1927 C 0.89714 0.79034 0.83944 0.0
C1928 C 0.89962 0.80677 0.85238 0.0
C1929 C 0.89186 0.76082 0.81381 0.0
C1930 C 0.87724 0.77451 0.81655 0.0
C1931 C 0.88022 0.78919 0.82921 0.0
C1932 C 0.8587 0.77375 0.8066 0.0
C1933 C 0.89002 0.74521 0.79977 0.0
C1934 C 0.85266 0.78872 0.79503 0.0
C1935 C 0.83491 0.78835 0.78631 0.0
C1936 C 0.82266 0.77306 0.78909 0.0
C1937 C 0.82883 0.75802 0.80056 0.0
C1938 C 0.84659 0.75838 0.80921 0.0
H1939 H 0.90415 0.73917 0.79552 0.0
H1940 H 0.88144 0.73383 0.80633 0.0
H1941 H 0.88271 0.75021 0.78689 0.0
H1942 H 0.86167 0.80078 0.79284 0.0
H1943 H 0.8306 0.80026 0.77773 0.0
H1944 H 0.89126 0.06468 0.81385 0.0
H1945 H 0.90742 0.06391 0.84413 0.0
H1946 H 0.95607 0.0363 0.81762 0.0
H1947 H 0.93989 0.03671 0.7874 0.0
H1948 H 0.94498 0.02004 0.85183 0.0
H1949 H 0.95184 0.09716 0.85811 0.0
H1950 H 0.9279 0.08948 0.85485 0.0
H1951 H 0.94558 0.08606 0.83634 0.0
C1952 C 0.9054 0.05846 0.81449 0.0
C1953 C 0.91438 0.05084 0.79828 0.0
C1954 C 0.91464 0.05812 0.83175 0.0
C1955 C 0.93304 0.05031 0.83299 0.0
C1956 C 0.9419 0.04245 0.81689 0.0
H1957 H 0.01319 0.06507 0.92217 0.0
H1958 H 0.99641 0.06455 0.8923 0.0
C1959 C 0.93266 0.04273 0.79966 0.0
C1960 C 0.94305 0.05018 0.85111 0.0
H1961 H 0.96064 0.07878 0.88467 0.0
C1962 C 0.94844 0.03286 0.85903 0.0
C1963 C 0.94773 0.06697 0.86027 0.0
C1964 C 0.94314 0.08599 0.8519 0.0
C1965 C 0.95827 0.03186 0.87602 0.0
C1966 C 0.96248 0.04863 0.88545 0.0
C1967 C 0.95723 0.06595 0.87745 0.0
C1968 C 0.97265 0.04858 0.90348 0.0
C1969 C 0.96441 0.0129 0.88352 0.0
C1970 C 0.96473 0.03989 0.91965 0.0
C1971 C 0.97429 0.04017 0.93671 0.0
C1972 C 0.99182 0.04931 0.93792 0.0
C1973 C 0.99962 0.05809 0.92171 0.0
C1974 C 0.99011 0.05774 0.90465 0.0
H1975 H 0.96451 0.00207 0.87233 0.0
H1976 H 0.97885 0.01346 0.88954 0.0
H1977 H 0.95427 0.00846 0.89492 0.0
H1978 H 0.95105 0.03313 0.91913 0.0
H1979 H 0.96777 0.03357 0.94903 0.0
H1980 H 0.7949 0.19899 0.57125 0.0
H1981 H 0.78528 0.22093 0.59616 0.0
H1982 H 0.74687 0.24892 0.55814 0.0
H1983 H 0.75642 0.22696 0.53303 0.0
H1984 H 0.78481 0.26252 0.59644 0.0
H1985 H 0.71347 0.22954 0.60459 0.0
H1986 H 0.73326 0.21784 0.59267 0.0
H1987 H 0.72128 0.23709 0.58135 0.0
C1988 C 0.78459 0.20995 0.56811 0.0
C1989 C 0.7763 0.2112 0.55027 0.0
C1990 C 0.77915 0.22248 0.58232 0.0
C1991 C 0.76527 0.23637 0.57897 0.0
C1992 C 0.7575 0.23816 0.56097 0.0
H1993 H 0.73633 0.3113 0.67473 0.0
H1994 H 0.73991 0.30145 0.64158 0.0
C1995 C 0.76301 0.22567 0.54668 0.0
C1996 C 0.75824 0.24804 0.59483 0.0
H1997 H 0.72166 0.25154 0.62733 0.0
C1998 C 0.77085 0.26049 0.603 0.0
C1999 C 0.74005 0.24517 0.60331 0.0
C2000 C 0.72618 0.23164 0.59517 0.0
C2001 C 0.76606 0.26955 0.62002 0.0
C2002 C 0.74821 0.26602 0.62892 0.0
C2003 C 0.73525 0.25426 0.62029 0.0
C2004 C 0.74403 0.2721 0.64846 0.0
C2005 C 0.78052 0.28187 0.629 0.0
C2006 C 0.74468 0.25875 0.66308 0.0
C2007 C 0.7427 0.2643 0.68185 0.0
C2008 C 0.7399 0.28329 0.68633 0.0
C2009 C 0.73838 0.29657 0.67162 0.0
C2010 C 0.74052 0.29101 0.65276 0.0
H2011 H 0.79427 0.28208 0.62088 0.0
H2012 H 0.77481 0.29643 0.6299 0.0
H2013 H 0.78326 0.27692 0.64363 0.0
H2014 H 0.74734 0.24409 0.65997 0.0
H2015 H 0.74364 0.25376 0.69291 0.0
H2016 H 0.60861 0.03871 0.33071 0.0
H2017 H 0.59896 0.03891 0.36413 0.0
H2018 H 0.6563 0.02382 0.3795 0.0
H2019 H 0.66614 0.02371 0.34606 0.0
H2020 H 0.62628 0.99858 0.392 0.0
H2021 H 0.61048 0.07278 0.41029 0.0
H2022 H 0.60098 0.06547 0.38822 0.0
H2023 H 0.62635 0.06612 0.39089 0.0
C2024 C 0.61927 0.03594 0.34123 0.0
C2025 C 0.63807 0.03108 0.33584 0.0
C2026 C 0.61377 0.03613 0.36029 0.0
C2027 C 0.62698 0.03146 0.37418 0.0
C2028 C 0.64599 0.02757 0.36892 0.0
H2029 H 0.5869 0.02607 0.49195 0.0
H2030 H 0.60911 0.02835 0.46492 0.0
C2031 C 0.65156 0.02754 0.34985 0.0
C2032 C 0.62022 0.02822 0.39377 0.0
H2033 H 0.59639 0.04935 0.43048 0.0
C2034 C 0.62008 0.0097 0.40062 0.0
C2035 C 0.61224 0.0428 0.40488 0.0
C2036 C 0.61263 0.06296 0.39831 0.0
C2037 C 0.61111 0.00524 0.41795 0.0
C2038 C 0.60216 0.01968 0.42852 0.0
C2039 C 0.60326 0.03833 0.4222 0.0
C2040 C 0.59014 0.01563 0.44533 0.0
C2041 C 0.61071 0.98511 0.42458 0.0
C2042 C 0.57234 0.00736 0.44318 0.0
C2043 C 0.55952 0.00617 0.45851 0.0
C2044 C 0.5644 0.01322 0.47619 0.0
C2045 C 0.58272 0.0205 0.47851 0.0
C2046 C 0.59543 0.02185 0.46312 0.0
H2047 H 0.62162 0.97635 0.41702 0.0
H2048 H 0.61311 0.98414 0.44002 0.0
H2049 H 0.59647 0.97926 0.42191 0.0
H2050 H 0.56801 0.00267 0.42943 0.0
H2051 H 0.54553 0.0005 0.4563 0.0
H2052 H 0.76943 0.84191 0.06219 0.0
H2053 H 0.76771 0.82582 0.09296 0.0
H2054 H 0.76538 0.87921 0.12103 0.0
H2055 H 0.76667 0.89532 0.09037 0.0
H2056 H 0.79105 0.82589 0.12271 0.0
H2057 H 0.72026 0.85365 0.14578 0.0
H2058 H 0.72927 0.85611 0.1218 0.0
H2059 H 0.73676 0.87185 0.13982 0.0
C2060 C 0.76849 0.85022 0.07492 0.0
C2061 C 0.76807 0.86992 0.07378 0.0
C2062 C 0.76752 0.841 0.09253 0.0
C2063 C 0.76603 0.85124 0.10942 0.0
C2064 C 0.76599 0.87092 0.10828 0.0
H2065 H 0.79171 0.80989 0.22241 0.0
H2066 H 0.79193 0.82457 0.19109 0.0
C2067 C 0.76689 0.88014 0.0907 0.0
C2068 C 0.76497 0.84137 0.12817 0.0
H2069 H 0.73854 0.83812 0.16937 0.0
C2070 C 0.77951 0.82851 0.13286 0.0
C2071 C 0.74976 0.84447 0.1414 0.0
C2072 C 0.73302 0.85712 0.1369 0.0
C2073 C 0.77952 0.81909 0.15045 0.0
C2074 C 0.76478 0.82286 0.16402 0.0
C2075 C 0.74998 0.83535 0.15915 0.0
C2076 C 0.76447 0.81404 0.18331 0.0
C2077 C 0.7952 0.80494 0.15418 0.0
C2078 C 0.74868 0.80369 0.18981 0.0
C2079 C 0.74842 0.79539 0.2079 0.0
C2080 C 0.76393 0.7973 0.21995 0.0
C2081 C 0.77958 0.80793 0.2135 0.0
C2082 C 0.77979 0.81626 0.19548 0.0
H2083 H 0.80176 0.79957 0.1408 0.0
H2084 H 0.80656 0.81174 0.1622 0.0
H2085 H 0.7898 0.79288 0.16264 0.0
H2086 H 0.73661 0.80185 0.1808 0.0
H2087 H 0.7361 0.78737 0.21238 0.0
H2088 H 0.94786 0.07282 0.7179 0.0
H2089 H 0.9708 0.07521 0.69131 0.0
H2090 H 0.92754 0.05796 0.65313 0.0
H2091 H 0.90461 0.05558 0.67951 0.0
H2092 H 0.98152 0.04475 0.66869 0.0
H2093 H 0.95201 0.10248 0.62517 0.0
H2094 H 0.94555 0.09929 0.64987 0.0
H2095 H 0.93418 0.08584 0.63206 0.0
C2096 C 0.94318 0.06986 0.70378 0.0
C2097 C 0.92449 0.06396 0.70073 0.0
C2098 C 0.95627 0.07126 0.68864 0.0
C2099 C 0.95075 0.06703 0.67027 0.0
C2100 C 0.93194 0.06168 0.66716 0.0
H2101 H 0.99346 0.01312 0.57576 0.0
H2102 H 0.98284 0.02372 0.60699 0.0
C2103 C 0.91891 0.06018 0.68226 0.0
C2104 C 0.96496 0.06609 0.65456 0.0
H2105 H 0.97169 0.07942 0.60854 0.0
C2106 C 0.9797 0.05266 0.65568 0.0
C2107 C 0.96273 0.07662 0.63773 0.0
C2108 C 0.94787 0.09201 0.63618 0.0
C2109 C 0.99126 0.04837 0.63983 0.0
C2110 C 0.98779 0.05764 0.6225 0.0
C2111 C 0.97416 0.07219 0.62182 0.0
C2112 C 0.99623 0.05079 0.6045 0.0
C2113 C 0.00652 0.03339 0.64154 0.0
C2114 C 0.00719 0.06258 0.59275 0.0
C2115 C 0.01331 0.05654 0.57484 0.0
C2116 C 0.00825 0.03875 0.56836 0.0
C2117 C 0.99759 0.02688 0.58036 0.0
C2118 C 0.99164 0.03286 0.59826 0.0
H2119 H 0.01147 0.0321 0.6563 0.0
H2120 H 0.00061 0.01969 0.63752 0.0
H2121 H 0.01896 0.03638 0.63203 0.0
H2122 H 0.01067 0.07654 0.5973 0.0
H2123 H 0.02143 0.06602 0.56585 0.0
H2124 H 0.77561 0.14868 0.44632 0.0
H2125 H 0.77892 0.15271 0.41189 0.0
H2126 H 0.80267 0.20741 0.41976 0.0
H2127 H 0.79941 0.20355 0.45398 0.0
H2128 H 0.76205 0.18248 0.39046 0.0
H2129 H 0.8406 0.18149 0.3822 0.0
H2130 H 0.82828 0.17177 0.40271 0.0
H2131 H 0.83228 0.19659 0.40092 0.0
C2132 C 0.7816 0.16153 0.44066 0.0
C2133 C 0.78725 0.17583 0.45277 0.0
C2134 C 0.78354 0.16375 0.42106 0.0
C2135 C 0.79141 0.18016 0.41339 0.0
C2136 C 0.79699 0.19444 0.42547 0.0
H2137 H 0.80057 0.25616 0.32834 0.0
H2138 H 0.8044 0.23372 0.35411 0.0
C2139 C 0.79494 0.1923 0.44499 0.0
C2140 C 0.79252 0.18333 0.39277 0.0
H2141 H 0.82325 0.19836 0.35801 0.0
C2142 C 0.77543 0.18542 0.3831 0.0
C2143 C 0.81004 0.18697 0.3833 0.0
C2144 C 0.82886 0.1839 0.39277 0.0
C2145 C 0.77525 0.19293 0.36472 0.0
C2146 C 0.7927 0.1981 0.35583 0.0
C2147 C 0.80991 0.19443 0.36492 0.0
C2148 C 0.79305 0.21035 0.33892 0.0
C2149 C 0.75632 0.19678 0.35565 0.0
C2150 C 0.78602 0.20443 0.32161 0.0
C2151 C 0.7837 0.21732 0.30679 0.0
C2152 C 0.78843 0.23623 0.30917 0.0
C2153 C 0.79662 0.24174 0.32612 0.0
C2154 C 0.79891 0.22891 0.34084 0.0
H2155 H 0.74406 0.19385 0.3654 0.0
H2156 H 0.75532 0.21163 0.35091 0.0
H2157 H 0.75509 0.18781 0.34302 0.0
H2158 H 0.78167 0.19007 0.31981 0.0
H2159 H 0.77746 0.21264 0.29383 0.0
H2160 H 0.63405 0.00364 0.21692 0.0
H2161 H 0.61104 0.00456 0.19169 0.0
H2162 H 0.56493 0.0002 0.23291 0.0
H2163 H 0.58797 4e-05 0.2584 0.0
H2164 H 0.58325 0.98264 0.17934 0.0
H2165 H 0.55253 0.04949 0.2074 0.0
H2166 H 0.57388 0.0389 0.21661 0.0
H2167 H 0.55092 0.02968 0.22314 0.0
C2168 C 0.61903 0.0026 0.22062 0.0
C2169 C 0.61274 0.00209 0.23959 0.0
C2170 C 0.60589 0.00309 0.20618 0.0
C2171 C 0.58627 0.0029 0.21047 0.0
C2172 C 0.57999 0.00088 0.22936 0.0
H2173 H 0.5149 0.00821 0.10988 0.0
H2174 H 0.52644 0.99779 0.1407 0.0
C2175 C 0.59315 0.00066 0.24386 0.0
C2176 C 0.5727 0.0064 0.19515 0.0
H2177 H 0.54116 0.0391 0.17857 0.0
C2178 C 0.57383 0.99483 0.17922 0.0
C2179 C 0.5606 0.02246 0.19505 0.0
C2180 C 0.55945 0.03596 0.21137 0.0
C2181 C 0.56394 0.99938 0.16279 0.0
C2182 C 0.5521 0.01561 0.16259 0.0
C2183 C 0.55021 0.02664 0.17885 0.0
C2184 C 0.54322 0.02252 0.14508 0.0
C2185 C 0.56726 0.98743 0.14548 0.0
C2186 C 0.54799 0.04029 0.13787 0.0
C2187 C 0.54111 0.04638 0.1205 0.0
C2188 C 0.52954 0.03471 0.11002 0.0
C2189 C 0.52411 0.01728 0.11761 0.0
C2190 C 0.53073 0.0113 0.13513 0.0
H2191 H 0.58001 0.97812 0.14678 0.0
H2192 H 0.55472 0.97842 0.14355 0.0
H2193 H 0.56917 0.99628 0.1326 0.0
H2194 H 0.55757 0.04919 0.14537 0.0
H2195 H 0.54554 0.05983 0.11487 0.0
H2196 H 0.7703 0.89919 0.95138 0.0
H2197 H 0.76816 0.88496 0.92011 0.0
H2198 H 0.76191 0.83053 0.94626 0.0
H2199 H 0.76394 0.8447 0.97758 0.0
H2200 H 0.79123 0.85693 0.90298 0.0
H2201 H 0.71639 0.83361 0.91097 0.0
H2202 H 0.72658 0.85038 0.92662 0.0
H2203 H 0.73167 0.82577 0.92953 0.0
C2204 C 0.76845 0.88419 0.95049 0.0
C2205 C 0.76722 0.87311 0.96703 0.0
C2206 C 0.76724 0.87606 0.93258 0.0
C2207 C 0.76457 0.85669 0.93076 0.0
C2208 C 0.76358 0.84555 0.94725 0.0
H2209 H 0.75455 0.77914 0.83764 0.0
H2210 H 0.75517 0.7949 0.86813 0.0
C2211 C 0.76487 0.85366 0.96517 0.0
C2212 C 0.76314 0.84813 0.91164 0.0
H2213 H 0.73376 0.82295 0.88386 0.0
C2214 C 0.77862 0.8496 0.89876 0.0
C2215 C 0.7467 0.83851 0.90608 0.0
C2216 C 0.7293 0.83707 0.91893 0.0
C2217 C 0.77832 0.84134 0.88074 0.0
C2218 C 0.76188 0.83169 0.87517 0.0
C2219 C 0.74636 0.83034 0.88803 0.0
C2220 C 0.76073 0.82242 0.85633 0.0
C2221 C 0.7959 0.84253 0.86809 0.0
C2222 C 0.76314 0.83263 0.83936 0.0
C2223 C 0.76283 0.82361 0.8218 0.0
C2224 C 0.7599 0.80416 0.82079 0.0
C2225 C 0.75683 0.79411 0.8378 0.0
C2226 C 0.75721 0.80313 0.85531 0.0
H2227 H 0.80876 0.84579 0.87622 0.0
H2228 H 0.79854 0.8292 0.86042 0.0
H2229 H 0.79385 0.85389 0.85749 0.0
H2230 H 0.7654 0.8476 0.83966 0.0
H2231 H 0.76519 0.83183 0.80904 0.0
H2232 H 0.83862 0.90303 0.02235 0.0
H2233 H 0.86837 0.92063 0.02272 0.0
H2234 H 0.83643 0.97248 0.01815 0.0
H2235 H 0.80669 0.95502 0.01805 0.0
H2236 H 0.88436 0.94495 0.99634 0.0
H2237 H 0.86914 0.98208 0.06368 0.0
H2238 H 0.85545 0.96234 0.05631 0.0
H2239 H 0.85095 0.98527 0.04649 0.0
C2240 C 0.83793 0.91819 0.02148 0.0
C2241 C 0.82024 0.92761 0.02029 0.0
C2242 C 0.85497 0.92824 0.02166 0.0
C2243 C 0.85469 0.94794 0.02077 0.0
C2244 C 0.83705 0.95734 0.01928 0.0
H2245 H 0.9547 0.01725 0.99467 0.0
H2246 H 0.9236 0.00208 0.99406 0.0
C2247 C 0.82003 0.94731 0.01911 0.0
C2248 C 0.87284 0.95861 0.02119 0.0
H2249 H 0.89629 0.99191 0.04578 0.0
C2250 C 0.88696 0.95522 0.00716 0.0
C2251 C 0.87639 0.97188 0.03541 0.0
C2252 C 0.86228 0.97553 0.05144 0.0
C2253 C 0.90437 0.9648 0.00685 0.0
C2254 C 0.90772 0.97842 0.0208 0.0
C2255 C 0.89367 0.98168 0.03494 0.0
C2256 C 0.92605 0.98875 0.02151 0.0
C2257 C 0.91924 0.95989 0.99187 0.0
C2258 C 0.93751 0.987 0.03744 0.0
C2259 C 0.9552 0.99578 0.03791 0.0
C2260 C 0.96187 0.00666 0.02248 0.0
C2261 C 0.95006 0.00899 0.0068 0.0
C2262 C 0.93233 0.00016 0.00635 0.0
H2263 H 0.91643 0.94618 0.98525 0.0
H2264 H 0.91911 0.97079 0.98059 0.0
H2265 H 0.93371 0.95936 0.99788 0.0
H2266 H 0.93298 0.97838 0.04937 0.0
H2267 H 0.96387 0.99364 0.05023 0.0
H2268 H 0.32905 0.61712 0.03562 0.0
H2269 H 0.36073 0.60245 0.03341 0.0
H2270 H 0.38315 0.65257 0.00732 0.0
H2271 H 0.35145 0.66744 0.00943 0.0
H2272 H 0.38059 0.60387 0.9912 0.0
H2273 H 0.42095 0.62956 0.05254 0.0
H2274 H 0.39549 0.62628 0.05448 0.0
H2275 H 0.40478 0.64493 0.04007 0.0
C2276 C 0.34081 0.6252 0.02984 0.0
C2277 C 0.3378 0.64335 0.02256 0.0
C2278 C 0.35884 0.6168 0.02858 0.0
C2279 C 0.37409 0.62649 0.02017 0.0
C2280 C 0.37146 0.645 0.01393 0.0
H2281 H 0.4888 0.57944 0.00343 0.0
H2282 H 0.46184 0.60155 0.00306 0.0
C2283 C 0.35339 0.65343 0.01517 0.0
C2284 C 0.39205 0.61637 0.01598 0.0
H2285 H 0.43584 0.6064 0.03346 0.0
C2286 C 0.39279 0.60452 0.00028 0.0
C2287 C 0.40784 0.61754 0.02779 0.0
C2288 C 0.40742 0.63024 0.04471 0.0
C2289 C 0.40887 0.59324 0.9964 0.0
C2290 C 0.42435 0.59366 0.00877 0.0
C2291 C 0.42389 0.60612 0.02404 0.0
C2292 C 0.44047 0.58026 0.00702 0.0
C2293 C 0.40908 0.58085 0.97923 0.0
C2294 C 0.43726 0.561 0.00917 0.0
C2295 C 0.45257 0.54833 0.00938 0.0
C2296 C 0.47135 0.55477 0.00755 0.0
C2297 C 0.47448 0.57404 0.00481 0.0
C2298 C 0.45914 0.5867 0.00464 0.0
H2299 H 0.39917 0.58625 0.96838 0.0
H2300 H 0.42363 0.57965 0.97277 0.0
H2301 H 0.4044 0.56661 0.9835 0.0
H2302 H 0.42294 0.55581 0.01138 0.0
H2303 H 0.4497 0.53359 0.0116 0.0
H2304 H 0.17665 0.56969 0.79431 0.0
H2305 H 0.19365 0.59767 0.78383 0.0
H2306 H 0.22703 0.56464 0.74403 0.0
H2307 H 0.21018 0.5364 0.7546 0.0
H2308 H 0.24803 0.59223 0.76401 0.0
H2309 H 0.18289 0.62154 0.73148 0.0
H2310 H 0.17925 0.61473 0.75578 0.0
H2311 H 0.18522 0.59721 0.73841 0.0
C2312 C 0.18777 0.56832 0.78349 0.0
C2313 C 0.19199 0.55094 0.77512 0.0
C2314 C 0.19738 0.58431 0.77747 0.0
C2315 C 0.21124 0.5832 0.7629 0.0
C2316 C 0.21623 0.56572 0.75519 0.0
H2317 H 0.24383 0.68967 0.71029 0.0
H2318 H 0.23579 0.6565 0.71335 0.0
C2319 C 0.20663 0.54966 0.76126 0.0
C2320 C 0.2199 0.60049 0.75537 0.0
H2321 H 0.20816 0.64298 0.73629 0.0
C2322 C 0.23943 0.60326 0.7577 0.0
C2323 C 0.20868 0.6146 0.74672 0.0
C2324 C 0.18789 0.61184 0.74275 0.0
C2325 C 0.24782 0.62036 0.75264 0.0
C2326 C 0.23624 0.63502 0.7454 0.0
C2327 C 0.21697 0.63178 0.74201 0.0
C2328 C 0.24326 0.6543 0.74279 0.0
C2329 C 0.2689 0.62264 0.75534 0.0
C2330 C 0.2501 0.66398 0.75832 0.0
C2331 C 0.25478 0.68282 0.75658 0.0
C2332 C 0.25246 0.69245 0.73934 0.0
C2333 C 0.24591 0.68262 0.7237 0.0
C2334 C 0.24128 0.66371 0.72544 0.0
H2335 H 0.27659 0.60894 0.75448 0.0
H2336 H 0.2752 0.63234 0.74462 0.0
H2337 H 0.27122 0.62845 0.76958 0.0
H2338 H 0.2513 0.65712 0.77196 0.0
H2339 H 0.2601 0.68985 0.76882 0.0
H2340 H 0.19836 0.40113 0.52731 0.0
H2341 H 0.16746 0.41757 0.52854 0.0
H2342 H 0.19589 0.47057 0.5233 0.0
H2343 H 0.2268 0.4542 0.52167 0.0
H2344 H 0.15249 0.44339 0.55329 0.0
H2345 H 0.15779 0.47463 0.48134 0.0
H2346 H 0.1739 0.45642 0.48926 0.0
H2347 H 0.1773 0.48035 0.49604 0.0
C2348 C 0.19803 0.41629 0.52637 0.0
C2349 C 0.21505 0.42634 0.52425 0.0
C2350 C 0.18034 0.42568 0.52711 0.0
C2351 C 0.17926 0.44532 0.5257 0.0
C2352 C 0.19628 0.45541 0.52397 0.0
H2353 H 0.07689 0.51324 0.55348 0.0
H2354 H 0.10851 0.49815 0.55374 0.0
C2355 C 0.21396 0.44602 0.52315 0.0
C2356 C 0.16035 0.4552 0.52615 0.0
H2357 H 0.13178 0.48487 0.50082 0.0
C2358 C 0.14796 0.45246 0.54181 0.0
C2359 C 0.15429 0.46687 0.51108 0.0
C2360 C 0.16642 0.46964 0.49339 0.0
C2361 C 0.12981 0.46114 0.54288 0.0
C2362 C 0.12396 0.47317 0.52801 0.0
C2363 C 0.1363 0.47582 0.51231 0.0
C2364 C 0.10479 0.48253 0.52804 0.0
C2365 C 0.11687 0.45692 0.55968 0.0
C2366 C 0.09228 0.47918 0.51329 0.0
C2367 C 0.07429 0.48789 0.51303 0.0
C2368 C 0.06834 0.50026 0.52747 0.0
C2369 C 0.08094 0.50374 0.54218 0.0
C2370 C 0.099 0.49501 0.54241 0.0
H2371 H 0.12143 0.44397 0.56725 0.0
H2372 H 0.11726 0.46872 0.56976 0.0
H2373 H 0.10191 0.45528 0.55528 0.0
H2374 H 0.09639 0.46967 0.50201 0.0
H2375 H 0.06501 0.48486 0.50146 0.0
H2376 H 0.88918 0.98609 0.73184 0.0
H2377 H 0.87528 0.95484 0.73154 0.0
H2378 H 0.82487 0.97619 0.76063 0.0
H2379 H 0.83883 0.00735 0.76138 0.0
H2380 H 0.83766 0.94288 0.77554 0.0
H2381 H 0.83277 0.93861 0.69749 0.0
H2382 H 0.85632 0.94307 0.70554 0.0
H2383 H 0.83762 0.9602 0.70941 0.0
C2384 C 0.87513 0.9841 0.73816 0.0
C2385 C 0.86502 0.99913 0.74654 0.0
C2386 C 0.86719 0.96629 0.73789 0.0
C2387 C 0.84894 0.96332 0.74578 0.0
C2388 C 0.83895 0.97825 0.7544 0.0
H2389 H 0.77391 0.87125 0.72695 0.0
H2390 H 0.7898 0.90144 0.7282 0.0
C2391 C 0.84692 0.99602 0.75479 0.0
C2392 C 0.84021 0.94464 0.74518 0.0
H2393 H 0.82526 0.91116 0.71505 0.0
C2394 C 0.83493 0.93591 0.76233 0.0
C2395 C 0.83648 0.93577 0.7279 0.0
C2396 C 0.84091 0.94494 0.70902 0.0
C2397 C 0.82603 0.91846 0.76268 0.0
C2398 C 0.82274 0.90937 0.74541 0.0
C2399 C 0.82798 0.91812 0.72826 0.0
C2400 C 0.8133 0.89104 0.74475 0.0
C2401 C 0.8198 0.91016 0.78149 0.0
C2402 C 0.82138 0.87519 0.75347 0.0
C2403 C 0.81229 0.85795 0.75283 0.0
C2404 C 0.79511 0.85626 0.74324 0.0
C2405 C 0.78722 0.87211 0.73428 0.0
C2406 C 0.79624 0.88935 0.73504 0.0
H2407 H 0.81883 0.92094 0.79273 0.0
H2408 H 0.80573 0.90337 0.78052 0.0
H2409 H 0.83038 0.89935 0.78585 0.0
H2410 H 0.83479 0.87612 0.76064 0.0
H2411 H 0.81885 0.84589 0.75957 0.0
H2412 H 0.7543 0.10909 0.52412 0.0
H2413 H 0.72618 0.08979 0.53026 0.0
H2414 H 0.69054 0.13957 0.53125 0.0
H2415 H 0.71844 0.15887 0.52472 0.0
H2416 H 0.69953 0.08985 0.55989 0.0
H2417 H 0.66565 0.10733 0.49189 0.0
H2418 H 0.69017 0.11261 0.4964 0.0
H2419 H 0.67127 0.12768 0.50526 0.0
C2420 C 0.74045 0.11589 0.52564 0.0
C2421 C 0.73849 0.13544 0.52376 0.0
C2422 C 0.72444 0.10487 0.52918 0.0
C2423 C 0.70629 0.11326 0.53087 0.0
C2424 C 0.70439 0.13282 0.52955 0.0
H2425 H 0.60063 0.06801 0.57578 0.0
H2426 H 0.63176 0.08291 0.57181 0.0
C2427 C 0.72034 0.14381 0.5259 0.0
C2428 C 0.68924 0.1016 0.53385 0.0
H2429 H 0.64621 0.09204 0.51515 0.0
C2430 C 0.6879 0.09019 0.55007 0.0
C2431 C 0.67428 0.10186 0.52082 0.0
C2432 C 0.67545 0.11287 0.50252 0.0
C2433 C 0.67169 0.07937 0.55388 0.0
C2434 C 0.65634 0.08036 0.54131 0.0
C2435 C 0.65792 0.09144 0.52487 0.0
C2436 C 0.63842 0.07009 0.54475 0.0
C2437 C 0.67127 0.06684 0.57117 0.0
C2438 C 0.63181 0.05812 0.53083 0.0
C2439 C 0.61399 0.04991 0.53295 0.0
C2440 C 0.60248 0.05346 0.54908 0.0
C2441 C 0.60934 0.06495 0.56332 0.0
C2442 C 0.62713 0.07336 0.56109 0.0
H2443 H 0.68589 0.06343 0.57597 0.0
H2444 H 0.66353 0.07417 0.58286 0.0
H2445 H 0.66384 0.05355 0.56839 0.0
H2446 H 0.6403 0.0554 0.51812 0.0
H2447 H 0.60914 0.04086 0.5219 0.0
H2448 H 0.13883 0.44223 0.77168 0.0
H2449 H 0.14388 0.40827 0.77495 0.0
H2450 H 0.20029 0.41757 0.79548 0.0
H2451 H 0.19543 0.4514 0.79223 0.0
H2452 H 0.17488 0.38631 0.75767 0.0
H2453 H 0.17394 0.38269 0.83588 0.0
H2454 H 0.16342 0.40199 0.82287 0.0
H2455 H 0.18872 0.40099 0.82637 0.0
C2456 C 0.15233 0.43699 0.77681 0.0
C2457 C 0.16676 0.44938 0.78174 0.0
C2458 C 0.15512 0.41767 0.77875 0.0
C2459 C 0.17225 0.41058 0.78585 0.0
C2460 C 0.1868 0.4229 0.79037 0.0
H2461 H 0.24969 0.32686 0.79751 0.0
H2462 H 0.22671 0.35258 0.80076 0.0
C2463 C 0.18409 0.44217 0.78833 0.0
C2464 C 0.17561 0.39027 0.78773 0.0
H2465 H 0.19063 0.35752 0.81956 0.0
C2466 C 0.17781 0.37975 0.7712 0.0
C2467 C 0.17918 0.38189 0.80547 0.0
C2468 C 0.17601 0.39243 0.82369 0.0
C2469 C 0.1854 0.36149 0.77177 0.0
C2470 C 0.19052 0.35365 0.78941 0.0
C2471 C 0.18671 0.36364 0.80609 0.0
C2472 C 0.203 0.33692 0.7904 0.0
C2473 C 0.18942 0.3514 0.7534 0.0
C2474 C 0.19702 0.31943 0.78417 0.0
C2475 C 0.2102 0.30467 0.78217 0.0
C2476 C 0.22944 0.30729 0.78645 0.0
C2477 C 0.23501 0.32446 0.79394 0.0
C2478 C 0.22188 0.33915 0.79589 0.0
H2479 H 0.18651 0.36039 0.74086 0.0
H2480 H 0.20454 0.34658 0.75254 0.0
H2481 H 0.18031 0.33886 0.75275 0.0
H2482 H 0.18241 0.31744 0.78014 0.0
H2483 H 0.20547 0.29152 0.77651 0.0
H2484 H 0.3569 0.61766 0.25042 0.0
H2485 H 0.33144 0.64123 0.24928 0.0
H2486 H 0.29281 0.59992 0.22903 0.0
H2487 H 0.31836 0.57602 0.23022 0.0
H2488 H 0.30881 0.65168 0.21619 0.0
H2489 H 0.26626 0.62392 0.27761 0.0
H2490 H 0.29108 0.61754 0.27417 0.0
H2491 H 0.27367 0.60848 0.25871 0.0
C2492 C 0.34303 0.61356 0.24567 0.0
C2493 C 0.33959 0.59502 0.24046 0.0
C2494 C 0.32851 0.62703 0.24499 0.0
C2495 C 0.31029 0.62223 0.23916 0.0
C2496 C 0.30678 0.60379 0.2337 0.0
H2497 H 0.24765 0.72931 0.23655 0.0
H2498 H 0.2509 0.69626 0.2278 0.0
C2499 C 0.32137 0.59024 0.23434 0.0
C2500 C 0.29521 0.63684 0.23924 0.0
H2501 H 0.25989 0.65487 0.2679 0.0
C2502 C 0.29767 0.65226 0.22709 0.0
C2503 C 0.28075 0.63732 0.25347 0.0
C2504 C 0.27766 0.621 0.26683 0.0
C2505 C 0.28729 0.66895 0.22994 0.0
C2506 C 0.27386 0.67 0.24519 0.0
C2507 C 0.27014 0.65394 0.25621 0.0
C2508 C 0.26705 0.68836 0.25236 0.0
C2509 C 0.29219 0.68582 0.21781 0.0
C2510 C 0.27382 0.69447 0.26971 0.0
C2511 C 0.27185 0.7132 0.27482 0.0
C2512 C 0.26313 0.72617 0.26261 0.0
C2513 C 0.25467 0.71967 0.24613 0.0
C2514 C 0.25655 0.70082 0.24107 0.0
H2515 H 0.30447 0.68304 0.20798 0.0
H2516 H 0.27974 0.68988 0.20924 0.0
H2517 H 0.29569 0.6979 0.22681 0.0
H2518 H 0.28191 0.68505 0.27867 0.0
H2519 H 0.27831 0.7177 0.28774 0.0
H2520 H 0.52643 0.73028 0.58575 0.0
H2521 H 0.5238 0.69948 0.57079 0.0
H2522 H 0.50589 0.67537 0.62425 0.0
H2523 H 0.50871 0.70597 0.63932 0.0
H2524 H 0.54331 0.66297 0.58376 0.0
H2525 H 0.4641 0.66107 0.58395 0.0
H2526 H 0.477 0.68276 0.5849 0.0
H2527 H 0.47503 0.66804 0.60551 0.0
C2528 C 0.5219 0.71843 0.59432 0.0
C2529 C 0.51776 0.72065 0.61375 0.0
C2530 C 0.52043 0.70081 0.58575 0.0
C2531 C 0.51451 0.68509 0.59635 0.0
C2532 C 0.51033 0.68729 0.61573 0.0
H2533 H 0.51937 0.56508 0.57206 0.0
H2534 H 0.5205 0.59612 0.58658 0.0
C2535 C 0.512 0.70482 0.62433 0.0
C2536 C 0.51293 0.66632 0.58729 0.0
H2537 H 0.48069 0.63361 0.57413 0.0
C2538 C 0.52963 0.65657 0.58164 0.0
C2539 C 0.49507 0.65795 0.58443 0.0
C2540 C 0.4767 0.66795 0.58987 0.0
C2541 C 0.52893 0.63861 0.5735 0.0
C2542 C 0.51108 0.63013 0.57088 0.0
C2543 C 0.49437 0.64002 0.57624 0.0
C2544 C 0.50957 0.61111 0.56237 0.0
C2545 C 0.54729 0.62883 0.56759 0.0
C2546 C 0.50269 0.60908 0.54403 0.0
C2547 C 0.50212 0.59134 0.53562 0.0
C2548 C 0.50815 0.57513 0.54546 0.0
C2549 C 0.5145 0.57717 0.56406 0.0
C2550 C 0.51527 0.59495 0.57237 0.0
H2551 H 0.55966 0.63834 0.56784 0.0
H2552 H 0.55003 0.6169 0.57739 0.0
H2553 H 0.54618 0.62307 0.55314 0.0
H2554 H 0.49816 0.6213 0.53603 0.0
H2555 H 0.49718 0.59036 0.52128 0.0
H2556 H 0.56768 0.27227 0.85772 0.0
H2557 H 0.59807 0.27548 0.84031 0.0
H2558 H 0.62639 0.28595 0.89248 0.0
H2559 H 0.59605 0.28284 0.91005 0.0
H2560 H 0.62523 0.30816 0.84165 0.0
H2561 H 0.6544 0.23931 0.8661 0.0
H2562 H 0.62915 0.24465 0.86643 0.0
H2563 H 0.6441 0.25465 0.88377 0.0
C2564 C 0.58037 0.27534 0.86548 0.0
C2565 C 0.57956 0.27722 0.88523 0.0
C2566 C 0.59765 0.27719 0.85552 0.0
C2567 C 0.61437 0.28079 0.86519 0.0
C2568 C 0.61359 0.28302 0.88486 0.0
H2569 H 0.73296 0.28207 0.82809 0.0
H2570 H 0.7031 0.28293 0.84658 0.0
C2571 C 0.59628 0.28128 0.89483 0.0
C2572 C 0.63272 0.2818 0.8547 0.0
H2573 H 0.67442 0.25778 0.84661 0.0
C2574 C 0.63605 0.2972 0.8427 0.0
C2575 C 0.64668 0.26747 0.85626 0.0
C2576 C 0.64348 0.25048 0.86873 0.0
C2577 C 0.65319 0.29873 0.83224 0.0
C2578 C 0.66707 0.2842 0.83352 0.0
C2579 C 0.66374 0.26888 0.84567 0.0
C2580 C 0.68506 0.28445 0.82223 0.0
C2581 C 0.65642 0.316 0.82019 0.0
C2582 C 0.68477 0.28486 0.80241 0.0
C2583 C 0.7018 0.28449 0.79179 0.0
C2584 C 0.71939 0.28341 0.80084 0.0
C2585 C 0.71963 0.28286 0.8207 0.0
C2586 C 0.7026 0.28338 0.83129 0.0
H2587 H 0.64722 0.32793 0.825 0.0
H2588 H 0.67154 0.32035 0.8204 0.0
H2589 H 0.65282 0.31292 0.80537 0.0
H2590 H 0.67137 0.28521 0.79514 0.0
H2591 H 0.70116 0.2848 0.77651 0.0
H2592 H 0.04077 0.33734 0.13318 0.0
H2593 H 0.03972 0.36804 0.1174 0.0
H2594 H 0.00801 0.34456 0.07214 0.0
H2595 H 0.00907 0.31373 0.08785 0.0
H2596 H 0.05315 0.37824 0.07969 0.0
H2597 H 0.9752 0.39064 0.08968 0.0
H2598 H 0.98814 0.37332 0.10325 0.0
H2599 H 0.98226 0.36866 0.07921 0.0
C2600 C 0.03359 0.33867 0.11984 0.0
C2601 C 0.02497 0.32303 0.11182 0.0
C2602 C 0.03301 0.35626 0.11082 0.0
C2603 C 0.02358 0.35874 0.09367 0.0
C2604 C 0.01513 0.34311 0.0855 0.0
H2605 H 0.00044 0.45834 0.02369 0.0
H2606 H 0.00147 0.42678 0.0376 0.0
C2607 C 0.01584 0.32545 0.09444 0.0
C2608 C 0.02278 0.37765 0.08436 0.0
H2609 H 0.99225 0.4133 0.07194 0.0
C2610 C 0.03984 0.38591 0.07801 0.0
C2611 C 0.00541 0.38767 0.08203 0.0
C2612 C 0.98668 0.37976 0.089 0.0
C2613 C 0.04 0.40374 0.06924 0.0
C2614 C 0.02266 0.41398 0.06723 0.0
C2615 C 0.00557 0.4056 0.07346 0.0
C2616 C 0.02195 0.43337 0.05884 0.0
C2617 C 0.05878 0.41118 0.0618 0.0
C2618 C 0.0328 0.44787 0.06627 0.0
C2619 C 0.03236 0.46592 0.05822 0.0
C2620 C 0.0208 0.47008 0.0427 0.0
C2621 C 0.00955 0.45569 0.03558 0.0
C2622 C 0.01012 0.43758 0.04356 0.0
H2623 H 0.06926 0.39966 0.05897 0.0
H2624 H 0.05694 0.41941 0.04856 0.0
H2625 H 0.06487 0.42045 0.07254 0.0
H2626 H 0.04161 0.44527 0.07839 0.0
H2627 H 0.04106 0.47664 0.06424 0.0
H2628 H 0.00354 0.74694 0.34553 0.0
H2629 H 0.97587 0.74657 0.32508 0.0
H2630 H 0.93924 0.76202 0.37247 0.0
H2631 H 0.96665 0.76179 0.39305 0.0
H2632 H 0.9229 0.73633 0.35018 0.0
H2633 H 0.95204 0.79518 0.30678 0.0
H2634 H 0.96678 0.77442 0.30738 0.0
H2635 H 0.96254 0.78766 0.32861 0.0
C2636 C 0.98953 0.75003 0.35159 0.0
C2637 C 0.98722 0.7546 0.3708 0.0
C2638 C 0.97379 0.74991 0.3399 0.0
C2639 C 0.95561 0.75468 0.34719 0.0
C2640 C 0.95318 0.75837 0.36655 0.0
H2641 H 0.85906 0.80858 0.30173 0.0
H2642 H 0.88931 0.79861 0.3152 0.0
C2643 C 0.96885 0.75827 0.37828 0.0
C2644 C 0.93916 0.75696 0.33468 0.0
H2645 H 0.92182 0.78437 0.29909 0.0
C2646 C 0.92268 0.74668 0.33886 0.0
C2647 C 0.93895 0.77062 0.32006 0.0
C2648 C 0.95594 0.78274 0.31549 0.0
C2649 C 0.90571 0.75019 0.3293 0.0
C2650 C 0.90545 0.764 0.31484 0.0
C2651 C 0.92215 0.77374 0.31015 0.0
C2652 C 0.88761 0.76992 0.30571 0.0
C2653 C 0.888 0.73981 0.33549 0.0
C2654 C 0.87683 0.75719 0.29562 0.0
C2655 C 0.85945 0.76285 0.28805 0.0
C2656 C 0.85278 0.7814 0.2902 0.0
C2657 C 0.86394 0.79426 0.29973 0.0
C2658 C 0.88118 0.78856 0.30746 0.0
H2659 H 0.88967 0.73278 0.34944 0.0
H2660 H 0.87548 0.74948 0.33642 0.0
H2661 H 0.885 0.72888 0.32496 0.0
H2662 H 0.88178 0.74287 0.29371 0.0
H2663 H 0.85125 0.75275 0.28048 0.0
H2664 H 0.53549 0.32222 0.95553 0.0
H2665 H 0.52262 0.3462 0.97685 0.0
H2666 H 0.47136 0.31431 0.98547 0.0
H2667 H 0.48419 0.29015 0.96405 0.0
H2668 H 0.46501 0.35126 0.97366 0.0
H2669 H 0.51323 0.34904 0.03424 0.0
H2670 H 0.52619 0.34903 0.01206 0.0
H2671 H 0.51108 0.32963 0.01822 0.0
C2672 C 0.52164 0.32013 0.96224 0.0
C2673 C 0.51081 0.30438 0.9581 0.0
C2674 C 0.51436 0.33376 0.97454 0.0
C2675 C 0.49617 0.33186 0.98294 0.0
C2676 C 0.48552 0.31589 0.97927 0.0
H2677 H 0.46467 0.43281 0.04816 0.0
H2678 H 0.46432 0.3992 0.04069 0.0
C2679 C 0.49286 0.30214 0.96704 0.0
C2680 C 0.4876 0.34774 0.99354 0.0
H2681 H 0.49791 0.37915 0.02768 0.0
C2682 C 0.47184 0.3571 0.98582 0.0
C2683 C 0.49633 0.35517 0.00956 0.0
C2684 C 0.51253 0.34507 0.01913 0.0
C2685 C 0.46576 0.37464 0.9926 0.0
C2686 C 0.47581 0.38295 0.00733 0.0
C2687 C 0.49036 0.37279 0.01623 0.0
C2688 C 0.4736 0.40309 0.01155 0.0
C2689 C 0.44931 0.38458 0.9833 0.0
C2690 C 0.47888 0.41624 0.99762 0.0
C2691 C 0.47924 0.43523 0.00187 0.0
C2692 C 0.4743 0.44143 0.02013 0.0
C2693 C 0.46837 0.42834 0.03394 0.0
C2694 C 0.46822 0.40922 0.02972 0.0
H2695 H 0.43951 0.37444 0.97695 0.0
H2696 H 0.44111 0.39341 0.99358 0.0
H2697 H 0.4549 0.39378 0.97179 0.0
H2698 H 0.48341 0.41174 0.98361 0.0
H2699 H 0.48371 0.44508 0.99097 0.0
H2700 H 0.98213 0.2659 0.19822 0.0
H2701 H 0.9513 0.26728 0.21519 0.0
H2702 H 0.92385 0.28396 0.16371 0.0
H2703 H 0.95469 0.28285 0.14671 0.0
H2704 H 0.91154 0.3051 0.19452 0.0
H2705 H 0.90879 0.22918 0.21182 0.0
H2706 H 0.92988 0.24046 0.21957 0.0
H2707 H 0.92559 0.23869 0.1947 0.0
C2708 C 0.96953 0.26984 0.1905 0.0
C2709 C 0.97087 0.27416 0.17107 0.0
C2710 C 0.95188 0.27053 0.20021 0.0
C2711 C 0.93516 0.27544 0.19069 0.0
C2712 C 0.93651 0.28005 0.17136 0.0
H2713 H 0.81811 0.25624 0.22693 0.0
H2714 H 0.84952 0.2566 0.21132 0.0
C2715 C 0.95416 0.27937 0.16164 0.0
C2716 C 0.91627 0.27587 0.20086 0.0
H2717 H 0.8847 0.24853 0.22578 0.0
C2718 C 0.90567 0.29273 0.20136 0.0
C2719 C 0.90847 0.25968 0.20962 0.0
C2720 C 0.91865 0.24092 0.2088 0.0
C2721 C 0.88763 0.29389 0.21048 0.0
C2722 C 0.88003 0.2778 0.21959 0.0
C2723 C 0.89057 0.26091 0.21897 0.0
C2724 C 0.86086 0.27795 0.22921 0.0
C2725 C 0.87665 0.31222 0.20985 0.0
C2726 C 0.8567 0.28975 0.24464 0.0
C2727 C 0.83865 0.28961 0.25363 0.0
C2728 C 0.8244 0.27758 0.24746 0.0
C2729 C 0.82868 0.26571 0.23209 0.0
C2730 C 0.84668 0.26587 0.22313 0.0
H2731 H 0.88221 0.32167 0.1985 0.0
H2732 H 0.86129 0.30984 0.20753 0.0
H2733 H 0.87796 0.31946 0.22355 0.0
H2734 H 0.86749 0.29894 0.24986 0.0
H2735 H 0.8359 0.29887 0.26547 0.0
H2736 H 0.05076 0.72085 0.45497 0.0
H2737 H 0.05397 0.68952 0.46892 0.0
H2738 H 0.04559 0.66491 0.41434 0.0
H2739 H 0.0427 0.6962 0.40021 0.0
H2740 H 0.02476 0.66424 0.46853 0.0
H2741 H 0.09019 0.63378 0.43458 0.0
H2742 H 0.08496 0.65865 0.43447 0.0
H2743 H 0.0734 0.6435 0.41829 0.0
C2744 C 0.04993 0.70876 0.44589 0.0
C2745 C 0.04638 0.71091 0.42654 0.0
C2746 C 0.05181 0.69091 0.45386 0.0
C2747 C 0.05022 0.67495 0.44261 0.0
C2748 C 0.04727 0.67706 0.42317 0.0
H2749 H 0.02814 0.55864 0.46901 0.0
H2750 H 0.03538 0.58829 0.45279 0.0
C2751 C 0.04547 0.69493 0.41516 0.0
C2752 C 0.04943 0.65623 0.45161 0.0
H2753 H 0.07018 0.61264 0.45195 0.0
C2754 C 0.0348 0.65301 0.46503 0.0
C2755 C 0.06244 0.64161 0.44681 0.0
C2756 C 0.07875 0.64454 0.43287 0.0
C2757 C 0.03266 0.63546 0.4737 0.0
C2758 C 0.04567 0.62085 0.46898 0.0
C2759 C 0.06029 0.62397 0.4555 0.0
C2760 C 0.0441 0.60229 0.47808 0.0
C2761 C 0.01627 0.63256 0.4876 0.0
C2762 C 0.04723 0.60034 0.49747 0.0
C2763 C 0.04304 0.58355 0.50677 0.0
C2764 C 0.03574 0.56843 0.49676 0.0
C2765 C 0.03368 0.57008 0.47709 0.0
C2766 C 0.03784 0.58695 0.46781 0.0
H2767 H 0.00532 0.64392 0.48665 0.0
H2768 H 0.00935 0.61892 0.48518 0.0
H2769 H 0.02175 0.63239 0.50218 0.0
H2770 H 0.05224 0.61204 0.50554 0.0
H2771 H 0.04496 0.58266 0.5219 0.0
H2772 H 0.58914 0.75451 0.65452 0.0
H2773 H 0.61822 0.75468 0.67295 0.0
H2774 H 0.59149 0.79363 0.71199 0.0
H2775 H 0.56219 0.79303 0.69392 0.0
H2776 H 0.64209 0.78162 0.68052 0.0
H2777 H 0.61176 0.75567 0.7486 0.0
H2778 H 0.59872 0.75515 0.72696 0.0
H2779 H 0.59974 0.77643 0.74037 0.0
C2780 C 0.5894 0.76302 0.66711 0.0
C2781 C 0.57326 0.77366 0.67279 0.0
C2782 C 0.60608 0.76313 0.67765 0.0
C2783 C 0.60708 0.77389 0.69416 0.0
C2784 C 0.59103 0.78476 0.69968 0.0
H2785 H 0.71494 0.80582 0.74353 0.0
H2786 H 0.68439 0.80518 0.7277 0.0
C2787 C 0.57429 0.78453 0.68923 0.0
C2788 C 0.62509 0.77419 0.70513 0.0
H2789 H 0.64311 0.76802 0.74935 0.0
C2790 C 0.64227 0.77857 0.69557 0.0
C2791 C 0.62556 0.76993 0.72474 0.0
C2792 C 0.608 0.76384 0.73574 0.0
C2793 C 0.6597 0.77909 0.705 0.0
C2794 C 0.66003 0.77566 0.72477 0.0
C2795 C 0.64292 0.77094 0.73429 0.0
C2796 C 0.67803 0.77655 0.73569 0.0
C2797 C 0.67767 0.78287 0.69353 0.0
C2798 C 0.68433 0.76105 0.7464 0.0
C2799 C 0.70172 0.7615 0.7558 0.0
C2800 C 0.71324 0.77748 0.75473 0.0
C2801 C 0.70654 0.79322 0.74459 0.0
C2802 C 0.68911 0.79281 0.73534 0.0
H2803 H 0.67592 0.77958 0.67835 0.0
H2804 H 0.68111 0.79796 0.69447 0.0
H2805 H 0.68992 0.77453 0.69887 0.0
H2806 H 0.67604 0.74837 0.74706 0.0
H2807 H 0.7064 0.74909 0.76342 0.0
H2808 H 0.6182 0.46794 0.73809 0.0
H2809 H 0.60246 0.46706 0.70755 0.0
H2810 H 0.5957 0.52722 0.70824 0.0
H2811 H 0.61143 0.52826 0.73864 0.0
H2812 H 0.56473 0.48179 0.69909 0.0
H2813 H 0.62258 0.51546 0.65649 0.0
H2814 H 0.62644 0.50511 0.67951 0.0
H2815 H 0.61514 0.52778 0.67753 0.0
C2816 C 0.61337 0.48096 0.7317 0.0
C2817 C 0.61608 0.49817 0.74066 0.0
C2818 C 0.60441 0.48043 0.71431 0.0
C2819 C 0.59821 0.4971 0.70563 0.0
C2820 C 0.6007 0.51426 0.71464 0.0
H2821 H 0.54117 0.52711 0.60274 0.0
H2822 H 0.55748 0.52676 0.63292 0.0
C2823 C 0.60959 0.5148 0.73202 0.0
C2824 C 0.58877 0.4966 0.68727 0.0
H2825 H 0.59321 0.51114 0.64136 0.0
C2826 C 0.57096 0.48807 0.68641 0.0
C2827 C 0.59701 0.50491 0.67088 0.0
C2828 C 0.61642 0.51371 0.67101 0.0
C2829 C 0.56089 0.48801 0.66955 0.0
C2830 C 0.5691 0.49637 0.65315 0.0
C2831 C 0.58698 0.50479 0.65401 0.0
C2832 C 0.55936 0.49652 0.63491 0.0
C2833 C 0.54136 0.47944 0.66957 0.0
C2834 C 0.55534 0.47963 0.62598 0.0
C2835 C 0.54607 0.47979 0.60878 0.0
C2836 C 0.54081 0.49686 0.60014 0.0
C2837 C 0.54517 0.51376 0.60898 0.0
C2838 C 0.5544 0.51359 0.62623 0.0
H2839 H 0.53517 0.47806 0.68411 0.0
H2840 H 0.53142 0.48797 0.66091 0.0
H2841 H 0.54247 0.46522 0.66339 0.0
H2842 H 0.5595 0.46633 0.63225 0.0
H2843 H 0.54326 0.46656 0.60212 0.0
H2844 H 0.77808 0.32795 0.01181 0.0
H2845 H 0.78889 0.30743 0.98579 0.0
H2846 H 0.77025 0.34894 0.94535 0.0
H2847 H 0.75935 0.36935 0.97102 0.0
H2848 H 0.76429 0.29602 0.95115 0.0
H2849 H 0.82999 0.33608 0.93484 0.0
H2850 H 0.81838 0.33601 0.95795 0.0
H2851 H 0.8088 0.35005 0.93915 0.0
C2852 C 0.77618 0.3326 0.99735 0.0
C2853 C 0.76794 0.35024 0.9934 0.0
C2854 C 0.78237 0.3209 0.98258 0.0
C2855 C 0.78052 0.32686 0.96378 0.0
C2856 C 0.77193 0.34426 0.95983 0.0
H2857 H 0.79121 0.3096 0.8494 0.0
H2858 H 0.78981 0.31896 0.88245 0.0
C2859 C 0.76567 0.35584 0.9745 0.0
C2860 C 0.78751 0.3152 0.94793 0.0
H2861 H 0.81875 0.3165 0.91034 0.0
C2862 C 0.77649 0.30007 0.94242 0.0
C2863 C 0.80344 0.32064 0.93674 0.0
C2864 C 0.81597 0.33649 0.9425 0.0
C2865 C 0.78014 0.29115 0.92508 0.0
C2866 C 0.79532 0.29746 0.91326 0.0
C2867 C 0.80713 0.31173 0.91946 0.0
C2868 C 0.79739 0.29151 0.89339 0.0
C2869 C 0.76692 0.27602 0.91888 0.0
C2870 C 0.80243 0.27302 0.88863 0.0
C2871 C 0.80311 0.26758 0.86967 0.0
C2872 C 0.79873 0.28057 0.85528 0.0
C2873 C 0.79428 0.29919 0.86017 0.0
C2874 C 0.79364 0.3046 0.87902 0.0
H2875 H 0.75455 0.27427 0.92882 0.0
H2876 H 0.76152 0.27931 0.90459 0.0
H2877 H 0.77486 0.26248 0.91806 0.0
H2878 H 0.80558 0.26279 0.89956 0.0
H2879 H 0.80653 0.25313 0.86631 0.0
H2880 H 0.93765 0.55696 0.21046 0.0
H2881 H 0.95007 0.55912 0.17794 0.0
H2882 H 0.90411 0.52503 0.15914 0.0
H2883 H 0.89151 0.52278 0.19171 0.0
H2884 H 0.95999 0.52549 0.15574 0.0
H2885 H 0.90588 0.57234 0.12247 0.0
H2886 H 0.90958 0.57193 0.14767 0.0
H2887 H 0.89738 0.55309 0.13684 0.0
C2888 C 0.93014 0.55 0.1994 0.0
C2889 C 0.91368 0.53964 0.20356 0.0
C2890 C 0.93719 0.55131 0.18087 0.0
C2891 C 0.92781 0.54244 0.16626 0.0
C2892 C 0.9113 0.53221 0.17029 0.0
H2893 H 0.96177 0.52509 0.04914 0.0
H2894 H 0.94266 0.52885 0.07834 0.0
C2895 C 0.90425 0.53082 0.18886 0.0
C2896 C 0.93628 0.54271 0.14706 0.0
H2897 H 0.93064 0.56033 0.10253 0.0
C2898 C 0.95361 0.5331 0.14409 0.0
C2899 C 0.9277 0.55253 0.132 0.0
C2900 C 0.90915 0.56318 0.13479 0.0
C2901 C 0.96274 0.53309 0.12633 0.0
C2902 C 0.95448 0.54334 0.11134 0.0
C2903 C 0.93693 0.55267 0.11418 0.0
C2904 C 0.96415 0.54438 0.09269 0.0
C2905 C 0.98107 0.52194 0.12371 0.0
C2906 C 0.98207 0.55269 0.09095 0.0
C2907 C 0.99306 0.5504 0.07447 0.0
C2908 C 0.98614 0.53998 0.05943 0.0
C2909 C 0.96747 0.53312 0.06057 0.0
C2910 C 0.95654 0.53526 0.07719 0.0
H2911 H 0.98289 0.51129 0.1351 0.0
H2912 H 0.98155 0.51472 0.10987 0.0
H2913 H 0.99331 0.53159 0.12407 0.0
H2914 H 0.98797 0.56004 0.10274 0.0
H2915 H 0.0073 0.55607 0.07385 0.0
H2916 H 0.78091 0.6557 0.45726 0.0
H2917 H 0.78193 0.67128 0.42633 0.0
H2918 H 0.74771 0.71695 0.44886 0.0
H2919 H 0.74715 0.70165 0.48003 0.0
H2920 H 0.75479 0.68032 0.40258 0.0
H2921 H 0.78986 0.7457 0.42339 0.0
H2922 H 0.78824 0.72556 0.4389 0.0
H2923 H 0.76827 0.7415 0.43676 0.0
C2924 C 0.77369 0.66912 0.45568 0.0
C2925 C 0.76404 0.67747 0.47119 0.0
C2926 C 0.77426 0.67803 0.43793 0.0
C2927 C 0.76519 0.69551 0.43519 0.0
C2928 C 0.75529 0.70375 0.45062 0.0
H2929 H 0.73579 0.74066 0.32414 0.0
H2930 H 0.73582 0.72597 0.35547 0.0
C2931 C 0.75485 0.69491 0.46844 0.0
C2932 C 0.76568 0.70473 0.41607 0.0
H2933 H 0.77693 0.7454 0.39259 0.0
C2934 C 0.7597 0.69454 0.40043 0.0
C2935 C 0.77238 0.7232 0.41305 0.0
C2936 C 0.78024 0.73457 0.42888 0.0
C2937 C 0.75996 0.70229 0.38205 0.0
C2938 C 0.76589 0.72103 0.37915 0.0
C2939 C 0.77216 0.73114 0.39474 0.0
C2940 C 0.7658 0.73035 0.36009 0.0
C2941 C 0.7543 0.6901 0.36585 0.0
C2942 C 0.78246 0.73839 0.35235 0.0
C2943 C 0.78242 0.74709 0.33446 0.0
C2944 C 0.76569 0.74796 0.32388 0.0
C2945 C 0.74899 0.7401 0.33176 0.0
C2946 C 0.74901 0.73155 0.34968 0.0
H2947 H 0.75595 0.67497 0.36938 0.0
H2948 H 0.73908 0.69282 0.36278 0.0
H2949 H 0.76295 0.69315 0.35287 0.0
H2950 H 0.79559 0.73779 0.36007 0.0
H2951 H 0.79554 0.75302 0.32888 0.0
H2952 H 0.6089 0.45832 0.83345 0.0
H2953 H 0.58551 0.45217 0.85899 0.0
H2954 H 0.565 0.50935 0.85499 0.0
H2955 H 0.58795 0.51545 0.82942 0.0
H2956 H 0.58627 0.4695 0.89214 0.0
H2957 H 0.51548 0.48235 0.86237 0.0
H2958 H 0.53644 0.47805 0.8476 0.0
H2959 H 0.53089 0.50131 0.85607 0.0
C2960 C 0.59909 0.46943 0.83777 0.0
C2961 C 0.6003 0.4874 0.82957 0.0
C2962 C 0.58571 0.46588 0.85228 0.0
C2963 C 0.57327 0.48019 0.85866 0.0
C2964 C 0.57403 0.49792 0.84994 0.0
H2965 H 0.54173 0.52793 0.95762 0.0
H2966 H 0.5518 0.5158 0.92682 0.0
C2967 C 0.58735 0.50146 0.83548 0.0
C2968 C 0.56167 0.47783 0.87624 0.0
H2969 H 0.51859 0.49055 0.89598 0.0
C2970 C 0.57129 0.47344 0.89291 0.0
C2971 C 0.54207 0.48279 0.87728 0.0
C2972 C 0.53062 0.48618 0.8598 0.0
C2973 C 0.56234 0.47578 0.91064 0.0
C2974 C 0.54344 0.48277 0.91165 0.0
C2975 C 0.5332 0.4854 0.89507 0.0
C2976 C 0.53552 0.49039 0.92948 0.0
C2977 C 0.57358 0.47216 0.92824 0.0
C2978 C 0.52266 0.48022 0.94085 0.0
C2979 C 0.51684 0.48712 0.95857 0.0
C2980 C 0.52385 0.50425 0.96501 0.0
C2981 C 0.53613 0.51466 0.95313 0.0
C2982 C 0.5419 0.50778 0.93554 0.0
H2983 H 0.5863 0.46307 0.92534 0.0
H2984 H 0.5785 0.48571 0.9338 0.0
H2985 H 0.56453 0.46544 0.93939 0.0
H2986 H 0.51764 0.46675 0.93629 0.0
H2987 H 0.50737 0.47878 0.96743 0.0
H2988 H 0.74163 0.35122 0.09168 0.0
H2989 H 0.73835 0.34608 0.12576 0.0
H2990 H 0.75716 0.40234 0.13566 0.0
H2991 H 0.76045 0.40766 0.10142 0.0
H2992 H 0.77666 0.3733 0.15591 0.0
H2993 H 0.69841 0.36756 0.16428 0.0
H2994 H 0.70798 0.35388 0.145 0.0
H2995 H 0.70976 0.37901 0.14416 0.0
C2996 C 0.74496 0.36254 0.10109 0.0
C2997 C 0.75131 0.37982 0.09394 0.0
C2998 C 0.7429 0.35966 0.12053 0.0
C2999 C 0.74715 0.37398 0.13313 0.0
C3000 C 0.75357 0.39124 0.12608 0.0
H3001 H 0.76385 0.33912 0.25169 0.0
H3002 H 0.75819 0.36201 0.22629 0.0
C3003 C 0.7555 0.3942 0.10658 0.0
C3004 C 0.74639 0.37005 0.15362 0.0
H3005 H 0.71721 0.35157 0.18792 0.0
C3006 C 0.76362 0.36906 0.16319 0.0
C3007 C 0.7293 0.36472 0.16299 0.0
C3008 C 0.71028 0.36652 0.15363 0.0
C3009 C 0.76451 0.36105 0.18131 0.0
C3010 C 0.74761 0.35422 0.19007 0.0
C3011 C 0.73013 0.35676 0.18112 0.0
C3012 C 0.74834 0.34149 0.20658 0.0
C3013 C 0.78371 0.35846 0.19023 0.0
C3014 C 0.74388 0.3226 0.2041 0.0
C3015 C 0.74699 0.30959 0.21849 0.0
C3016 C 0.75463 0.31523 0.23566 0.0
C3017 C 0.75809 0.33435 0.23854 0.0
C3018 C 0.75493 0.34742 0.22407 0.0
H3019 H 0.79563 0.36261 0.18053 0.0
H3020 H 0.78426 0.36718 0.2031 0.0
H3021 H 0.78595 0.34361 0.19453 0.0
H3022 H 0.73877 0.31777 0.19069 0.0
H3023 H 0.74403 0.29499 0.21587 0.0
H3024 H 0.95177 0.5169 0.28505 0.0
H3025 H 0.97249 0.51092 0.31188 0.0
H3026 H 0.93692 0.54722 0.34662 0.0
H3027 H 0.91626 0.55342 0.31988 0.0
H3028 H 0.97775 0.55085 0.35118 0.0
H3029 H 0.95252 0.4772 0.35612 0.0
H3030 H 0.96241 0.48485 0.33372 0.0
H3031 H 0.94035 0.49493 0.34243 0.0
C3032 C 0.94854 0.52381 0.29834 0.0
C3033 C 0.93231 0.53546 0.30049 0.0
C3034 C 0.96033 0.52034 0.31362 0.0
C3035 C 0.956 0.52843 0.33121 0.0
C3036 C 0.94041 0.54083 0.33311 0.0
H3037 H 0.97785 0.5252 0.44735 0.0
H3038 H 0.96973 0.53215 0.41473 0.0
C3039 C 0.92862 0.54432 0.31787 0.0
C3040 C 0.96678 0.52306 0.34807 0.0
H3041 H 0.9726 0.48732 0.37983 0.0
C3042 C 0.97687 0.5369 0.35735 0.0
C3043 C 0.96561 0.50481 0.35595 0.0
C3044 C 0.95456 0.48956 0.34668 0.0
C3045 C 0.98535 0.53313 0.37472 0.0
C3046 C 0.98332 0.51518 0.38307 0.0
C3047 C 0.97406 0.50107 0.37334 0.0
C3048 C 0.98901 0.51128 0.40266 0.0
C3049 C 0.9961 0.54848 0.38414 0.0
C3050 C 0.0021 0.49683 0.40667 0.0
C3051 C 0.00674 0.49278 0.42537 0.0
C3052 C 0.99827 0.50306 0.4403 0.0
C3053 C 0.98494 0.51731 0.43616 0.0
C3054 C 0.98032 0.52134 0.41753 0.0
H3055 H 0.00151 0.55891 0.37364 0.0
H3056 H 0.98636 0.55595 0.39421 0.0
H3057 H 0.00832 0.54269 0.39212 0.0
H3058 H 0.00876 0.48879 0.39533 0.0
H3059 H 0.01717 0.48183 0.4281 0.0
H3060 H 0.77276 0.70381 0.56666 0.0
H3061 H 0.77533 0.71843 0.59769 0.0
H3062 H 0.76136 0.66594 0.62491 0.0
H3063 H 0.75852 0.65131 0.59392 0.0
H3064 H 0.74173 0.69575 0.64095 0.0
H3065 H 0.81858 0.71216 0.63449 0.0
H3066 H 0.8047 0.72153 0.61555 0.0
H3067 H 0.80716 0.69656 0.61851 0.0
C3068 C 0.77025 0.69536 0.57925 0.0
C3069 C 0.7655 0.67635 0.57776 0.0
C3070 C 0.77187 0.70372 0.59702 0.0
C3071 C 0.7689 0.69324 0.61375 0.0
C3072 C 0.76385 0.67433 0.61227 0.0
H3073 H 0.7688 0.71902 0.73509 0.0
H3074 H 0.76798 0.70324 0.7045 0.0
C3075 C 0.76224 0.66597 0.59451 0.0
C3076 C 0.77068 0.70204 0.63275 0.0
H3077 H 0.80154 0.72512 0.66083 0.0
C3078 C 0.75485 0.70207 0.64533 0.0
C3079 C 0.78778 0.71033 0.63855 0.0
C3080 C 0.80559 0.71003 0.62616 0.0
C3081 C 0.75551 0.71048 0.66325 0.0
C3082 C 0.77259 0.71883 0.66902 0.0
C3083 C 0.78844 0.71874 0.65648 0.0
C3084 C 0.77416 0.72809 0.68781 0.0
C3085 C 0.73768 0.71084 0.67561 0.0
C3086 C 0.77867 0.74717 0.6888 0.0
C3087 C 0.77932 0.7562 0.7063 0.0
C3088 C 0.7756 0.74635 0.72331 0.0
C3089 C 0.77172 0.72708 0.72233 0.0
C3090 C 0.77107 0.71806 0.7048 0.0
H3091 H 0.72472 0.7083 0.66736 0.0
H3092 H 0.73873 0.69965 0.68654 0.0
H3093 H 0.73592 0.72449 0.6829 0.0
H3094 H 0.78123 0.75523 0.67597 0.0
H3095 H 0.78233 0.77104 0.70644 0.0
H3096 H 0.72537 0.59282 0.52384 0.0
H3097 H 0.69563 0.57543 0.52248 0.0
H3098 H 0.66373 0.62748 0.52022 0.0
H3099 H 0.69345 0.64497 0.52186 0.0
H3100 H 0.6475 0.6022 0.54513 0.0
H3101 H 0.66323 0.56791 0.47637 0.0
H3102 H 0.68122 0.56384 0.49359 0.0
H3103 H 0.67696 0.5872 0.48476 0.0
C3104 C 0.71203 0.60058 0.52301 0.0
C3105 C 0.71182 0.62031 0.52287 0.0
C3106 C 0.69502 0.5906 0.52211 0.0
C3107 C 0.67739 0.60009 0.52091 0.0
C3108 C 0.67713 0.6198 0.52103 0.0
H3109 H 0.56807 0.55575 0.48901 0.0
H3110 H 0.59894 0.57107 0.49044 0.0
C3111 C 0.69414 0.6298 0.52195 0.0
C3112 C 0.65922 0.58953 0.51984 0.0
H3113 H 0.63588 0.55743 0.49359 0.0
C3114 C 0.64497 0.59242 0.53385 0.0
C3115 C 0.65575 0.57691 0.505 0.0
C3116 C 0.67 0.57387 0.48896 0.0
C3117 C 0.62752 0.58294 0.53356 0.0
C3118 C 0.62427 0.56992 0.51901 0.0
C3119 C 0.63842 0.5672 0.50487 0.0
C3120 C 0.60598 0.55958 0.51783 0.0
C3121 C 0.61252 0.5873 0.54859 0.0
C3122 C 0.59981 0.54754 0.53251 0.0
C3123 C 0.58212 0.53869 0.53173 0.0
C3124 C 0.57024 0.54162 0.51619 0.0
C3125 C 0.5768 0.55314 0.5012 0.0
C3126 C 0.59448 0.56195 0.502 0.0
H3127 H 0.61526 0.60075 0.55575 0.0
H3128 H 0.5981 0.58807 0.54248 0.0
H3129 H 0.61257 0.576 0.55947 0.0
H3130 H 0.60858 0.54514 0.5447 0.0
H3131 H 0.57757 0.52992 0.54352 0.0
H3132 H 0.18947 0.88476 0.52975 0.0
H3133 H 0.15713 0.89817 0.53181 0.0
H3134 H 0.18008 0.95379 0.52699 0.0
H3135 H 0.21239 0.94056 0.52508 0.0
H3136 H 0.15319 0.94762 0.5581 0.0
H3137 H 0.12678 0.92407 0.48868 0.0
H3138 H 0.13757 0.90661 0.50367 0.0
H3139 H 0.15188 0.92496 0.4936 0.0
C3140 C 0.18759 0.89984 0.52894 0.0
C3141 C 0.2034 0.91164 0.52722 0.0
C3142 C 0.16914 0.90744 0.53009 0.0
C3143 C 0.16632 0.92692 0.52945 0.0
C3144 C 0.18206 0.9387 0.5275 0.0
H3145 H 0.08379 0.01341 0.52843 0.0
H3146 H 0.11139 0.99276 0.53251 0.0
C3147 C 0.20047 0.93113 0.52635 0.0
C3148 C 0.14703 0.93524 0.53132 0.0
H3149 H 0.10581 0.94227 0.5076 0.0
C3150 C 0.14273 0.94633 0.54717 0.0
C3151 C 0.13344 0.93329 0.5171 0.0
C3152 C 0.13757 0.92169 0.49971 0.0
C3153 C 0.12532 0.95608 0.54889 0.0
C3154 C 0.11212 0.95491 0.53422 0.0
C3155 C 0.11604 0.94311 0.5188 0.0
C3156 C 0.0951 0.96725 0.53359 0.0
C3157 C 0.12134 0.96778 0.56623 0.0
C3158 C 0.07683 0.95967 0.53272 0.0
C3159 C 0.06098 0.97145 0.53033 0.0
C3160 C 0.06326 0.99095 0.52855 0.0
C3161 C 0.08156 0.99847 0.5298 0.0
C3162 C 0.09734 0.9867 0.53226 0.0
H3163 H 0.1297 0.96265 0.57842 0.0
H3164 H 0.1255 0.98246 0.5632 0.0
H3165 H 0.10595 0.96774 0.5703 0.0
H3166 H 0.0749 0.94465 0.53356 0.0
H3167 H 0.04705 0.96524 0.52934 0.0
H3168 H 0.32614 0.01076 0.76933 0.0
H3169 H 0.30554 0.98423 0.77771 0.0
H3170 H 0.35345 0.94621 0.7702 0.0
H3171 H 0.37384 0.97234 0.76149 0.0
H3172 H 0.32128 0.93534 0.75175 0.0
H3173 H 0.30497 0.95294 0.82702 0.0
H3174 H 0.29979 0.97068 0.80958 0.0
H3175 H 0.32407 0.96384 0.81359 0.0
C3176 C 0.33221 0.99672 0.76952 0.0
C3177 C 0.35155 0.99356 0.76473 0.0
C3178 C 0.32049 0.98164 0.77441 0.0
C3179 C 0.32806 0.96333 0.77473 0.0
C3180 C 0.34736 0.96025 0.77002 0.0
H3181 H 0.30475 0.85749 0.82276 0.0
H3182 H 0.31226 0.89049 0.81657 0.0
C3183 C 0.35898 0.9752 0.76505 0.0
C3184 C 0.31609 0.94702 0.77935 0.0
H3185 H 0.29327 0.92444 0.81589 0.0
C3186 C 0.31491 0.93302 0.76569 0.0
C3187 C 0.30795 0.94412 0.79759 0.0
C3188 C 0.30929 0.95859 0.8129 0.0
C3189 C 0.30668 0.91573 0.77001 0.0
C3190 C 0.29881 0.91263 0.78837 0.0
C3191 C 0.29923 0.92696 0.80182 0.0
C3192 C 0.29186 0.89398 0.79427 0.0
C3193 C 0.30761 0.90059 0.7552 0.0
C3194 C 0.27739 0.88534 0.78435 0.0
C3195 C 0.27346 0.86648 0.78759 0.0
C3196 C 0.28356 0.85617 0.80117 0.0
C3197 C 0.29686 0.86523 0.81222 0.0
C3198 C 0.30109 0.88402 0.80871 0.0
H3199 H 0.31799 0.90388 0.74357 0.0
H3200 H 0.31171 0.88686 0.76152 0.0
H3201 H 0.29339 0.89921 0.7489 0.0
H3202 H 0.26975 0.89294 0.77351 0.0
H3203 H 0.26287 0.85978 0.77919 0.0
H3204 H 0.33007 0.14138 0.00202 0.0
H3205 H 0.36085 0.12479 0.0003 0.0
H3206 H 0.33819 0.08094 0.03627 0.0
H3207 H 0.30723 0.09716 0.03751 0.0
H3208 H 0.38524 0.11613 0.02684 0.0
H3209 H 0.36207 0.05005 0.9949 0.0
H3210 H 0.34686 0.07062 0.99621 0.0
H3211 H 0.34903 0.05523 0.01638 0.0
C3212 C 0.3316 0.12812 0.00943 0.0
C3213 C 0.31616 0.12053 0.0198 0.0
C3214 C 0.34923 0.11864 0.00845 0.0
C3215 C 0.35185 0.10139 0.01786 0.0
C3216 C 0.33647 0.09391 0.02842 0.0
H3217 H 0.4616 0.05429 0.04962 0.0
H3218 H 0.43049 0.06994 0.04831 0.0
C3219 C 0.31878 0.10329 0.02924 0.0
C3220 C 0.37085 0.09165 0.01727 0.0
H3221 H 0.39311 0.04961 0.0081 0.0
C3222 C 0.38694 0.10162 0.02261 0.0
C3223 C 0.37325 0.07279 0.01145 0.0
C3224 C 0.35692 0.06161 0.00422 0.0
C3225 C 0.40519 0.09319 0.02273 0.0
C3226 C 0.40742 0.07405 0.01788 0.0
C3227 C 0.39142 0.0642 0.01208 0.0
C3228 C 0.4262 0.064 0.01877 0.0
C3229 C 0.42193 0.10506 0.02772 0.0
C3230 C 0.43394 0.0547 0.00284 0.0
C3231 C 0.45167 0.04542 0.00364 0.0
C3232 C 0.46205 0.04526 0.02041 0.0
C3233 C 0.45411 0.05429 0.03642 0.0
C3234 C 0.43634 0.06339 0.03565 0.0
H3235 H 0.41894 0.12019 0.02513 0.0
H3236 H 0.42483 0.10322 0.04298 0.0
H3237 H 0.43495 0.10094 0.01945 0.0
H3238 H 0.42636 0.05483 0.98968 0.0
H3239 H 0.45734 0.0386 0.99106 0.0
H3240 H 0.66314 0.55544 0.82743 0.0
H3241 H 0.6769 0.58668 0.83004 0.0
H3242 H 0.68871 0.58763 0.76993 0.0
H3243 H 0.675 0.55653 0.76717 0.0
H3244 H 0.71516 0.59711 0.81827 0.0
H3245 H 0.65916 0.6375 0.7807 0.0
H3246 H 0.65526 0.61432 0.79038 0.0
H3247 H 0.66825 0.61722 0.76837 0.0
C3248 C 0.66862 0.56236 0.81478 0.0
C3249 C 0.66799 0.55362 0.7971 0.0
C3250 C 0.67644 0.58015 0.8163 0.0
C3251 C 0.68352 0.58947 0.80013 0.0
C3252 C 0.68299 0.58074 0.7825 0.0
H3253 H 0.74112 0.69167 0.77223 0.0
H3254 H 0.72457 0.66174 0.77259 0.0
C3255 C 0.67526 0.56296 0.78098 0.0
C3256 C 0.69216 0.60806 0.80168 0.0
H3257 H 0.68791 0.65342 0.78662 0.0
C3258 C 0.70915 0.6095 0.81154 0.0
C3259 C 0.68422 0.62407 0.7928 0.0
C3260 C 0.66563 0.62332 0.78259 0.0
C3261 C 0.71882 0.6265 0.81222 0.0
C3262 C 0.71101 0.64248 0.80312 0.0
C3263 C 0.69384 0.64109 0.79354 0.0
C3264 C 0.72068 0.6607 0.80302 0.0
C3265 C 0.73761 0.62707 0.82212 0.0
C3266 C 0.72365 0.67008 0.81998 0.0
C3267 C 0.73309 0.68714 0.81981 0.0
C3268 C 0.73954 0.69518 0.80265 0.0
C3269 C 0.73618 0.6859 0.78564 0.0
C3270 C 0.72681 0.66879 0.78584 0.0
H3271 H 0.74378 0.61281 0.82431 0.0
H3272 H 0.74809 0.6356 0.81392 0.0
H3273 H 0.73538 0.6336 0.83619 0.0
H3274 H 0.71862 0.66424 0.83334 0.0
H3275 H 0.73514 0.69415 0.83309 0.0
H3276 H 0.82297 0.39841 0.02845 0.0
H3277 H 0.851 0.41719 0.02092 0.0
H3278 H 0.81518 0.46649 0.01518 0.0
H3279 H 0.78695 0.44765 0.02226 0.0
H3280 H 0.84163 0.46322 0.98628 0.0
H3281 H 0.87607 0.45398 0.0554 0.0
H3282 H 0.87066 0.43204 0.04474 0.0
H3283 H 0.85159 0.44785 0.05175 0.0
C3284 C 0.82108 0.41327 0.0257 0.0
C3285 C 0.80283 0.42162 0.02605 0.0
C3286 C 0.83709 0.42399 0.02148 0.0
C3287 C 0.83516 0.44327 0.01784 0.0
C3288 C 0.81694 0.45163 0.01806 0.0
H3289 H 0.93495 0.51348 0.01618 0.0
H3290 H 0.9031 0.5011 0.02234 0.0
C3291 C 0.80088 0.44088 0.02215 0.0
C3292 C 0.85218 0.45456 0.01339 0.0
H3293 H 0.89568 0.4657 0.03001 0.0
C3294 C 0.8534 0.46396 0.99589 0.0
C3295 C 0.86732 0.45573 0.0261 0.0
C3296 C 0.86629 0.44702 0.04562 0.0
C3297 C 0.8697 0.47402 0.99051 0.0
C3298 C 0.88528 0.47427 0.00279 0.0
C3299 C 0.88378 0.46534 0.02051 0.0
C3300 C 0.90346 0.48342 0.99762 0.0
C3301 C 0.86999 0.48437 0.97182 0.0
C3302 C 0.9141 0.47781 0.98151 0.0
C3303 C 0.93223 0.48504 0.97788 0.0
C3304 C 0.9401 0.49764 0.99053 0.0
C3305 C 0.92924 0.50359 0.00636 0.0
C3306 C 0.91106 0.49659 0.00984 0.0
H3307 H 0.85532 0.48775 0.96714 0.0
H3308 H 0.87805 0.49759 0.97263 0.0
H3309 H 0.87697 0.47537 0.96089 0.0
H3310 H 0.90871 0.46732 0.97215 0.0
H3311 H 0.94045 0.48014 0.96571 0.0
H3312 H 0.34836 0.09109 0.73899 0.0
H3313 H 0.34232 0.12472 0.73544 0.0
H3314 H 0.40114 0.13571 0.74704 0.0
H3315 H 0.40738 0.10193 0.7505 0.0
H3316 H 0.37264 0.15563 0.76973 0.0
H3317 H 0.35988 0.16226 0.69308 0.0
H3318 H 0.34773 0.14284 0.70398 0.0
H3319 H 0.37337 0.14302 0.7032 0.0
C3320 C 0.36004 0.10065 0.74064 0.0
C3321 C 0.37831 0.09397 0.74506 0.0
C3322 C 0.35663 0.1198 0.73842 0.0
C3323 C 0.3714 0.13256 0.74064 0.0
C3324 C 0.38968 0.12598 0.74502 0.0
H3325 H 0.33305 0.24918 0.76018 0.0
H3326 H 0.35683 0.22461 0.75291 0.0
C3327 C 0.39317 0.10675 0.74706 0.0
C3328 C 0.36695 0.15277 0.74017 0.0
H3329 H 0.34459 0.18566 0.71313 0.0
C3330 C 0.36703 0.16251 0.75727 0.0
C3331 C 0.35982 0.16157 0.72381 0.0
C3332 C 0.36035 0.15194 0.70492 0.0
C3333 C 0.35827 0.18021 0.75892 0.0
C3334 C 0.34963 0.18835 0.74289 0.0
C3335 C 0.35117 0.17931 0.72539 0.0
C3336 C 0.33609 0.20424 0.74481 0.0
C3337 C 0.35683 0.18926 0.77812 0.0
C3338 C 0.31671 0.20107 0.74193 0.0
C3339 C 0.30318 0.21499 0.74592 0.0
C3340 C 0.30878 0.23236 0.75291 0.0
C3341 C 0.3283 0.23585 0.75496 0.0
C3342 C 0.34189 0.22186 0.75087 0.0
H3343 H 0.36232 0.17995 0.78949 0.0
H3344 H 0.36524 0.2023 0.77793 0.0
H3345 H 0.34178 0.19309 0.78169 0.0
H3346 H 0.31198 0.18751 0.73728 0.0
H3347 H 0.28827 0.21191 0.74408 0.0
H3348 H 0.21494 0.9777 0.25968 0.0
H3349 H 0.2415 0.95524 0.25669 0.0
H3350 H 0.22745 0.93272 0.31197 0.0
H3351 H 0.20103 0.95534 0.31522 0.0
H3352 H 0.26906 0.93406 0.30127 0.0
H3353 H 0.22255 0.90065 0.24884 0.0
H3354 H 0.22826 0.92483 0.24467 0.0
H3355 H 0.21372 0.91844 0.26487 0.0
C3356 C 0.21775 0.96822 0.27136 0.0
C3357 C 0.20573 0.96797 0.28754 0.0
C3358 C 0.23297 0.95549 0.26966 0.0
C3359 C 0.23624 0.94227 0.28403 0.0
C3360 C 0.22514 0.9429 0.30077 0.0
H3361 H 0.28104 0.83483 0.3043 0.0
H3362 H 0.27605 0.86869 0.30654 0.0
C3363 C 0.20998 0.95571 0.30254 0.0
C3364 C 0.24895 0.92599 0.28045 0.0
H3365 H 0.25071 0.88501 0.25626 0.0
C3366 C 0.2653 0.9234 0.29125 0.0
C3367 C 0.24389 0.91219 0.26737 0.0
C3368 C 0.2261 0.91399 0.25583 0.0
C3369 C 0.27661 0.90705 0.28951 0.0
C3370 C 0.27109 0.89291 0.27696 0.0
C3371 C 0.25509 0.89592 0.26574 0.0
C3372 C 0.28001 0.87398 0.27649 0.0
C3373 C 0.29418 0.90504 0.30123 0.0
C3374 C 0.28451 0.86572 0.25897 0.0
C3375 C 0.2867 0.84634 0.25762 0.0
C3376 C 0.28491 0.835 0.27384 0.0
C3377 C 0.28261 0.84337 0.29163 0.0
C3378 C 0.27992 0.86276 0.29293 0.0
H3379 H 0.30035 0.91894 0.30412 0.0
H3380 H 0.29025 0.89851 0.31505 0.0
H3381 H 0.30524 0.89611 0.29413 0.0
H3382 H 0.28466 0.8741 0.24612 0.0
H3383 H 0.28859 0.84012 0.24377 0.0
H3384 H 0.51467 0.34485 0.39747 0.0
H3385 H 0.51628 0.37585 0.41183 0.0
H3386 H 0.52293 0.35004 0.46664 0.0
H3387 H 0.52152 0.31891 0.45229 0.0
H3388 H 0.49315 0.39249 0.4393 0.0
H3389 H 0.56724 0.38635 0.46439 0.0
H3390 H 0.55766 0.37023 0.4477 0.0
H3391 H 0.55194 0.36786 0.47251 0.0
C3392 C 0.51653 0.34573 0.41259 0.0
C3393 C 0.51805 0.32933 0.4237 0.0
C3394 C 0.51743 0.36352 0.4208 0.0
C3395 C 0.52003 0.36541 0.44032 0.0
C3396 C 0.52133 0.34904 0.4515 0.0
H3397 H 0.52716 0.46018 0.51668 0.0
H3398 H 0.52693 0.42942 0.50179 0.0
C3399 C 0.5204 0.33122 0.44329 0.0
C3400 C 0.52098 0.38449 0.44891 0.0
H3401 H 0.54934 0.41309 0.47436 0.0
C3402 C 0.50548 0.39701 0.44688 0.0
C3403 C 0.53704 0.3905 0.45886 0.0
C3404 C 0.55451 0.37813 0.46089 0.0
C3405 C 0.50542 0.41508 0.45481 0.0
C3406 C 0.5215 0.4211 0.46475 0.0
C3407 C 0.53701 0.40859 0.46675 0.0
C3408 C 0.52232 0.44012 0.47354 0.0
C3409 C 0.48785 0.42733 0.45293 0.0
C3410 C 0.52026 0.4566 0.46265 0.0
C3411 C 0.52036 0.47432 0.47117 0.0
C3412 C 0.5227 0.47602 0.49079 0.0
C3413 C 0.52533 0.45951 0.50155 0.0
C3414 C 0.52519 0.44183 0.49303 0.0
H3415 H 0.47512 0.419 0.44961 0.0
H3416 H 0.48477 0.43527 0.4661 0.0
H3417 H 0.4902 0.43755 0.44122 0.0
H3418 H 0.51849 0.45578 0.44752 0.0
H3419 H 0.51834 0.48668 0.4624 0.0
H3420 H 0.44009 0.75848 0.12443 0.0
H3421 H 0.40872 0.75475 0.13981 0.0
H3422 H 0.43546 0.74563 0.19343 0.0
H3423 H 0.46682 0.74891 0.17813 0.0
H3424 H 0.40209 0.72412 0.1886 0.0
H3425 H 0.3914 0.79993 0.17199 0.0
H3426 H 0.39603 0.7851 0.15198 0.0
H3427 H 0.41422 0.78824 0.16906 0.0
C3428 C 0.43928 0.75521 0.1394 0.0
C3429 C 0.45582 0.75432 0.15018 0.0
C3430 C 0.42139 0.75313 0.14816 0.0
C3431 C 0.41985 0.75037 0.16779 0.0
C3432 C 0.4364 0.74787 0.17827 0.0
H3433 H 0.33891 0.76369 0.25933 0.0
H3434 H 0.36622 0.7557 0.23863 0.0
C3435 C 0.45429 0.7498 0.16952 0.0
C3436 C 0.40128 0.75243 0.17781 0.0
H3437 H 0.36706 0.78506 0.18941 0.0
C3438 C 0.3943 0.73737 0.18867 0.0
C3439 C 0.39131 0.76982 0.17796 0.0
C3440 C 0.39864 0.78677 0.16727 0.0
C3441 C 0.37757 0.73928 0.1998 0.0
C3442 C 0.36785 0.75677 0.20019 0.0
C3443 C 0.37459 0.77167 0.18899 0.0
C3444 C 0.35108 0.76032 0.21267 0.0
C3445 C 0.37043 0.72265 0.21105 0.0
C3446 C 0.33373 0.76595 0.20487 0.0
C3447 C 0.31821 0.77072 0.21661 0.0
C3448 C 0.31983 0.77004 0.23638 0.0
C3449 C 0.33725 0.76436 0.24416 0.0
C3450 C 0.35278 0.7596 0.23237 0.0
H3451 H 0.37639 0.70925 0.2054 0.0
H3452 H 0.3749 0.72391 0.22591 0.0
H3453 H 0.35463 0.72209 0.21104 0.0
H3454 H 0.33225 0.76677 0.18967 0.0
H3455 H 0.30497 0.77497 0.21017 0.0
H3456 H 0.00284 0.70667 0.90317 0.0
H3457 H 0.004 0.67587 0.91859 0.0
H3458 H 0.03224 0.69983 0.96592 0.0
H3459 H 0.03051 0.73082 0.95079 0.0
H3460 H 0.03279 0.65402 0.92822 0.0
H3461 H 0.99185 0.67134 0.99382 0.0
H3462 H 0.99306 0.68715 0.97382 0.0
H3463 H 0.01226 0.68587 0.99023 0.0
C3464 C 0.00915 0.70544 0.91695 0.0
C3465 C 0.01645 0.7213 0.92579 0.0
C3466 C 0.00985 0.68775 0.92577 0.0
C3467 C 0.01791 0.68539 0.94366 0.0
C3468 C 0.02543 0.70121 0.95241 0.0
H3469 H 0.04253 0.58546 0.01281 0.0
H3470 H 0.0419 0.61695 0.99857 0.0
C3471 C 0.02456 0.71897 0.94367 0.0
C3472 C 0.01893 0.66629 0.95274 0.0
H3473 H 0.00756 0.64156 0.99314 0.0
C3474 C 0.02717 0.65135 0.94239 0.0
C3475 C 0.01162 0.66259 0.97127 0.0
C3476 C 0.00153 0.67754 0.98286 0.0
C3477 C 0.02846 0.63307 0.95003 0.0
C3478 C 0.02127 0.62945 0.96854 0.0
C3479 C 0.01316 0.64433 0.97898 0.0
C3480 C 0.02173 0.61022 0.97714 0.0
C3481 C 0.03772 0.61773 0.93832 0.0
C3482 C 0.0105 0.59591 0.96996 0.0
C3483 C 0.0107 0.57792 0.97816 0.0
C3484 C 0.02225 0.57373 0.9937 0.0
C3485 C 0.03353 0.5881 0.00083 0.0
C3486 C 0.03316 0.60616 0.99273 0.0
H3487 H 0.04589 0.62343 0.92596 0.0
H3488 H 0.04746 0.60904 0.94702 0.0
H3489 H 0.02653 0.60845 0.933 0.0
H3490 H 0.0014 0.59872 0.95809 0.0
H3491 H 0.0018 0.56728 0.97229 0.0
H3492 H 0.07172 0.28696 0.65155 0.0
H3493 H 0.09981 0.27856 0.66971 0.0
H3494 H 0.07284 0.22755 0.68858 0.0
H3495 H 0.04475 0.23571 0.67016 0.0
H3496 H 0.10199 0.27205 0.70853 0.0
H3497 H 0.12463 0.20904 0.66745 0.0
H3498 H 0.10747 0.22594 0.6588 0.0
H3499 H 0.1005 0.20908 0.67656 0.0
C3500 C 0.07178 0.27393 0.65953 0.0
C3501 C 0.0561 0.26194 0.65939 0.0
C3502 C 0.08782 0.26916 0.66989 0.0
C3503 C 0.08847 0.25233 0.68026 0.0
C3504 C 0.07274 0.24043 0.68036 0.0
H3505 H 0.18225 0.21124 0.75029 0.0
H3506 H 0.15119 0.21402 0.73527 0.0
C3507 C 0.05669 0.24516 0.66993 0.0
C3508 C 0.10558 0.24754 0.69117 0.0
H3509 H 0.1431 0.21666 0.69366 0.0
C3510 C 0.11092 0.25988 0.70536 0.0
C3511 C 0.11711 0.2316 0.68703 0.0
C3512 C 0.11229 0.21819 0.67154 0.0
C3513 C 0.12774 0.25691 0.71528 0.0
C3514 C 0.13954 0.24131 0.71074 0.0
C3515 C 0.13392 0.22859 0.69704 0.0
C3516 C 0.15846 0.23887 0.71911 0.0
C3517 C 0.13291 0.27061 0.73038 0.0
C3518 C 0.17284 0.25164 0.71453 0.0
C3519 C 0.19055 0.25002 0.7229 0.0
C3520 C 0.19421 0.2356 0.73606 0.0
C3521 C 0.17992 0.22244 0.74017 0.0
C3522 C 0.16216 0.22405 0.73169 0.0
H3523 H 0.12038 0.27912 0.73527 0.0
H3524 H 0.13902 0.26316 0.74274 0.0
H3525 H 0.14384 0.28031 0.72457 0.0
H3526 H 0.17029 0.26296 0.70456 0.0
H3527 H 0.20136 0.2601 0.71905 0.0
H3528 H 0.52269 0.74837 0.06874 0.0
H3529 H 0.53226 0.72153 0.04915 0.0
H3530 H 0.54854 0.69072 0.09906 0.0
H3531 H 0.53879 0.71734 0.11877 0.0
H3532 H 0.56739 0.6988 0.04533 0.0
H3533 H 0.50512 0.66036 0.0753 0.0
H3534 H 0.50767 0.68533 0.07784 0.0
H3535 H 0.52091 0.66938 0.0925 0.0
C3536 C 0.52853 0.73596 0.0755 0.0
C3537 C 0.52974 0.73479 0.09528 0.0
C3538 C 0.53406 0.72071 0.0643 0.0
C3539 C 0.54086 0.70415 0.07274 0.0
C3540 C 0.54311 0.70335 0.09237 0.0
H3541 H 0.58244 0.59945 0.02566 0.0
H3542 H 0.58115 0.6315 0.03795 0.0
C3543 C 0.53752 0.71854 0.10358 0.0
C3544 C 0.54384 0.68714 0.06132 0.0
H3545 H 0.52635 0.6434 0.0553 0.0
C3546 C 0.55844 0.68666 0.04741 0.0
C3547 C 0.5319 0.67152 0.06396 0.0
C3548 C 0.5154 0.67164 0.07808 0.0
C3549 C 0.56162 0.67068 0.03622 0.0
C3550 C 0.54997 0.6549 0.03924 0.0
C3551 C 0.53527 0.65555 0.05303 0.0
C3552 C 0.55253 0.63735 0.0285 0.0
C3553 C 0.57718 0.67089 0.02115 0.0
C3554 C 0.53706 0.63022 0.01883 0.0
C3555 C 0.5377 0.61194 0.01212 0.0
C3556 C 0.55386 0.60053 0.01485 0.0
C3557 C 0.56991 0.60809 0.02327 0.0
C3558 C 0.56919 0.62638 0.03021 0.0
H3559 H 0.58146 0.6854 0.01738 0.0
H3560 H 0.5899 0.66328 0.02647 0.0
H3561 H 0.57258 0.66375 0.00819 0.0
H3562 H 0.52408 0.63847 0.01738 0.0
H3563 H 0.52525 0.6064 0.00549 0.0
H3564 H 0.08487 0.78391 0.8919 0.0
H3565 H 0.11588 0.78318 0.87529 0.0
H3566 H 0.09036 0.75724 0.82745 0.0
H3567 H 0.0592 0.75851 0.84377 0.0
H3568 H 0.13775 0.75495 0.86278 0.0
H3569 H 0.11801 0.79906 0.80124 0.0
H3570 H 0.1027 0.79678 0.82194 0.0
H3571 H 0.10329 0.77888 0.80416 0.0
C3572 C 0.08584 0.77814 0.8778 0.0
C3573 C 0.06952 0.77139 0.86911 0.0
C3574 C 0.10361 0.7777 0.86831 0.0
C3575 C 0.10552 0.77049 0.84992 0.0
C3576 C 0.08927 0.76339 0.84138 0.0
H3577 H 0.20555 0.75103 0.77534 0.0
H3578 H 0.17385 0.75009 0.7908 0.0
C3579 C 0.07145 0.76399 0.85079 0.0
C3580 C 0.12457 0.77006 0.83994 0.0
H3581 H 0.14837 0.78386 0.79945 0.0
C3582 C 0.14004 0.76134 0.84896 0.0
C3583 C 0.12769 0.7784 0.82187 0.0
C3584 C 0.1121 0.78897 0.81181 0.0
C3585 C 0.15836 0.76063 0.84041 0.0
C3586 C 0.1614 0.76887 0.82236 0.0
C3587 C 0.14598 0.77744 0.81324 0.0
C3588 C 0.18065 0.76929 0.81304 0.0
C3589 C 0.17437 0.75095 0.85067 0.0
C3590 C 0.19495 0.7805 0.82031 0.0
C3591 C 0.213 0.7812 0.81144 0.0
C3592 C 0.2172 0.7706 0.79513 0.0
C3593 C 0.20284 0.75932 0.7879 0.0
C3594 C 0.1847 0.75878 0.7967 0.0
H3595 H 0.16904 0.74225 0.86273 0.0
H3596 H 0.18287 0.74188 0.84085 0.0
H3597 H 0.18402 0.76165 0.85625 0.0
H3598 H 0.19209 0.78886 0.8328 0.0
H3599 H 0.22367 0.79004 0.81742 0.0
H3600 H 0.00801 0.34246 0.64053 0.0
H3601 H 0.00288 0.3755 0.63212 0.0
H3602 H 0.98746 0.35953 0.57592 0.0
H3603 H 0.99231 0.32653 0.58427 0.0
H3604 H 0.02216 0.39478 0.60384 0.0
H3605 H 0.94463 0.39618 0.59099 0.0
H3606 H 0.95623 0.37728 0.60365 0.0
H3607 H 0.95715 0.37799 0.57821 0.0
C3608 C 0.00338 0.34601 0.62643 0.0
C3609 C 0.00055 0.33196 0.61303 0.0
C3610 C 0.0004 0.36485 0.62169 0.0
C3611 C 0.99445 0.36989 0.60353 0.0
C3612 C 0.99158 0.35588 0.59016 0.0
H3613 H 0.99099 0.46305 0.52953 0.0
H3614 H 0.98672 0.43351 0.54666 0.0
C3615 C 0.99453 0.33706 0.59489 0.0
C3616 C 0.99271 0.38984 0.59801 0.0
H3617 H 0.96259 0.42191 0.57804 0.0
C3618 C 0.00906 0.40085 0.59852 0.0
C3619 C 0.97558 0.39764 0.59109 0.0
C3620 C 0.95735 0.38671 0.59111 0.0
C3621 C 0.00903 0.41921 0.59134 0.0
C3622 C 0.99209 0.42678 0.58377 0.0
C3623 C 0.97553 0.41601 0.58388 0.0
C3624 C 0.99187 0.4452 0.57414 0.0
C3625 C 0.02739 0.43 0.59101 0.0
C3626 C 0.99548 0.46164 0.58408 0.0
C3627 C 0.998 0.47855 0.57433 0.0
C3628 C 0.99688 0.47924 0.55451 0.0
C3629 C 0.99206 0.46296 0.54478 0.0
C3630 C 0.98957 0.44608 0.55453 0.0
H3631 H 0.0399 0.42091 0.59426 0.0
H3632 H 0.0299 0.4367 0.57696 0.0
H3633 H 0.02639 0.44125 0.60173 0.0
H3634 H 0.99702 0.46123 0.59927 0.0
H3635 H 0.00157 0.49089 0.58224 0.0
H3636 H 0.47943 0.27178 0.33987 0.0
H3637 H 0.44995 0.27208 0.32204 0.0
H3638 H 0.41712 0.27833 0.37398 0.0
H3639 H 0.44659 0.27842 0.39184 0.0
H3640 H 0.41991 0.24887 0.32304 0.0
H3641 H 0.39489 0.3203 0.34232 0.0
H3642 H 0.41871 0.31189 0.34695 0.0
H3643 H 0.39914 0.30559 0.36253 0.0
C3644 C 0.46593 0.2733 0.34751 0.0
C3645 C 0.4654 0.27519 0.3673 0.0
C3646 C 0.44906 0.27345 0.33728 0.0
C3647 C 0.43122 0.27556 0.34656 0.0
C3648 C 0.43065 0.27716 0.36637 0.0
H3649 H 0.32055 0.24713 0.30319 0.0
H3650 H 0.3515 0.24761 0.31813 0.0
C3651 C 0.44754 0.27707 0.37661 0.0
C3652 C 0.41327 0.27565 0.33554 0.0
H3653 H 0.37258 0.30108 0.32702 0.0
C3654 C 0.40962 0.26034 0.32386 0.0
C3655 C 0.3999 0.29074 0.33627 0.0
C3656 C 0.40341 0.30815 0.34753 0.0
C3657 C 0.39287 0.25949 0.31334 0.0
C3658 C 0.37911 0.27418 0.31473 0.0
C3659 C 0.38298 0.28971 0.32603 0.0
C3660 C 0.36048 0.27358 0.3049 0.0
C3661 C 0.39024 0.24293 0.3006 0.0
C3662 C 0.35488 0.28818 0.29263 0.0
C3663 C 0.33702 0.28801 0.2841 0.0
C3664 C 0.32428 0.27328 0.28771 0.0
C3665 C 0.33001 0.25862 0.29987 0.0
C3666 C 0.34782 0.25882 0.3084 0.0
H3667 H 0.40412 0.23618 0.29661 0.0
H3668 H 0.38148 0.23231 0.30819 0.0
H3669 H 0.38286 0.24713 0.28749 0.0
H3670 H 0.36431 0.2998 0.28975 0.0
H3671 H 0.33306 0.29962 0.27496 0.0
H3672 H 0.43456 0.54028 0.28749 0.0
H3673 H 0.4499 0.53968 0.31813 0.0
H3674 H 0.4003 0.56646 0.34373 0.0
H3675 H 0.38493 0.5674 0.31302 0.0
H3676 H 0.43419 0.5826 0.35364 0.0
H3677 H 0.43763 0.50542 0.36321 0.0
H3678 H 0.44795 0.5133 0.34113 0.0
H3679 H 0.42284 0.51672 0.34583 0.0
C3680 C 0.42689 0.54598 0.29966 0.0
C3681 C 0.40853 0.55383 0.29791 0.0
C3682 C 0.43562 0.54551 0.31716 0.0
C3683 C 0.42608 0.55272 0.33322 0.0
C3684 C 0.40781 0.56071 0.3315 0.0
H3685 H 0.46423 0.53682 0.44841 0.0
H3686 H 0.44591 0.53698 0.41946 0.0
C3687 C 0.39908 0.56123 0.31397 0.0
C3688 C 0.43548 0.55251 0.35167 0.0
H3689 H 0.45619 0.52345 0.38401 0.0
C3690 C 0.43888 0.56968 0.36038 0.0
C3691 C 0.44133 0.53559 0.36049 0.0
C3692 C 0.4371 0.5167 0.3523 0.0
C3693 C 0.4485 0.57042 0.37748 0.0
C3694 C 0.45514 0.55356 0.38584 0.0
C3695 C 0.45125 0.53636 0.37742 0.0
C3696 C 0.46627 0.55346 0.40329 0.0
C3697 C 0.45133 0.58923 0.3865 0.0
C3698 C 0.48391 0.56242 0.40363 0.0
C3699 C 0.49442 0.56231 0.42012 0.0
C3700 C 0.48755 0.55309 0.43649 0.0
C3701 C 0.47001 0.54387 0.43598 0.0
C3702 C 0.45948 0.54403 0.4195 0.0
H3703 H 0.44102 0.59992 0.38126 0.0
H3704 H 0.44977 0.58823 0.40213 0.0
H3705 H 0.46591 0.59415 0.38294 0.0
H3706 H 0.48961 0.56937 0.3911 0.0
H3707 H 0.50803 0.56925 0.41997 0.0
H3708 H 0.24712 0.6762 0.06755 0.0
H3709 H 0.2366 0.69662 0.09339 0.0
H3710 H 0.26829 0.7422 0.06814 0.0
H3711 H 0.27821 0.72197 0.0418 0.0
H3712 H 0.25932 0.71088 0.11771 0.0
H3713 H 0.22002 0.76932 0.08371 0.0
H3714 H 0.22589 0.74778 0.07154 0.0
H3715 H 0.2433 0.76595 0.07316 0.0
C3716 C 0.2516 0.69066 0.06738 0.0
C3717 C 0.26356 0.69752 0.0528 0.0
C3718 C 0.24553 0.70233 0.08209 0.0
C3719 C 0.25145 0.72101 0.08259 0.0
C3720 C 0.2631 0.728 0.0678 0.0
H3721 H 0.2739 0.78102 0.18225 0.0
H3722 H 0.27393 0.76619 0.15125 0.0
C3723 C 0.26893 0.71639 0.05288 0.0
C3724 C 0.2474 0.73233 0.09968 0.0
H3725 H 0.2313 0.77509 0.11511 0.0
C3726 C 0.25292 0.7248 0.11713 0.0
C3727 C 0.23888 0.75043 0.09896 0.0
C3728 C 0.2315 0.75876 0.08085 0.0
C3729 C 0.25081 0.7351 0.13377 0.0
C3730 C 0.24349 0.75363 0.13286 0.0
C3731 C 0.2372 0.76096 0.11562 0.0
C3732 C 0.24319 0.76563 0.14971 0.0
C3733 C 0.25667 0.72609 0.15218 0.0
C3734 C 0.22588 0.77112 0.15851 0.0
C3735 C 0.22587 0.77978 0.17618 0.0
C3736 C 0.24315 0.78283 0.18517 0.0
C3737 C 0.26042 0.77848 0.17568 0.0
C3738 C 0.26044 0.77006 0.15803 0.0
H3739 H 0.2569 0.71055 0.15131 0.0
H3740 H 0.27124 0.73063 0.15555 0.0
H3741 H 0.24687 0.73034 0.16399 0.0
H3742 H 0.21244 0.76783 0.1522 0.0
H3743 H 0.21242 0.78303 0.18332 0.0
H3744 H 0.16609 0.50251 0.85239 0.0
H3745 H 0.15485 0.49739 0.88515 0.0
H3746 H 0.09674 0.49765 0.86667 0.0
H3747 H 0.10774 0.50284 0.83409 0.0
H3748 H 0.12746 0.52187 0.90531 0.0
H3749 H 0.1027 0.44883 0.89953 0.0
H3750 H 0.12001 0.45897 0.88324 0.0
H3751 H 0.09502 0.46395 0.88066 0.0
C3752 C 0.15093 0.50146 0.85536 0.0
C3753 C 0.13775 0.50309 0.84077 0.0
C3754 C 0.14458 0.49846 0.874 0.0
C3755 C 0.12505 0.49677 0.87813 0.0
C3756 C 0.11191 0.49852 0.86361 0.0
H3757 H 0.03641 0.49996 0.95656 0.0
H3758 H 0.05953 0.49379 0.93096 0.0
C3759 C 0.1182 0.50167 0.84507 0.0
C3760 C 0.11797 0.4945 0.89772 0.0
H3761 H 0.08879 0.46706 0.92498 0.0
C3762 C 0.11941 0.50972 0.90991 0.0
C3763 C 0.10757 0.47857 0.90349 0.0
C3764 C 0.10635 0.46156 0.89111 0.0
C3765 C 0.10928 0.51014 0.92721 0.0
C3766 C 0.09784 0.49468 0.93246 0.0
C3767 C 0.09754 0.47889 0.92083 0.0
C3768 C 0.0842 0.49575 0.94858 0.0
C3769 C 0.10977 0.52767 0.93899 0.0
C3770 C 0.09047 0.49827 0.96702 0.0
C3771 C 0.0773 0.50202 0.98163 0.0
C3772 C 0.05769 0.50306 0.978 0.0
C3773 C 0.05142 0.49934 0.95975 0.0
C3774 C 0.0646 0.49575 0.94514 0.0
H3775 H 0.11675 0.53945 0.93129 0.0
H3776 H 0.09512 0.5322 0.94333 0.0
H3777 H 0.11787 0.52473 0.95198 0.0
H3778 H 0.10554 0.49795 0.96997 0.0
H3779 H 0.08253 0.50461 0.99564 0.0
H3780 H 0.25532 0.34377 0.56299 0.0
H3781 H 0.25472 0.3278 0.59387 0.0
H3782 H 0.28483 0.37378 0.61784 0.0
H3783 H 0.28497 0.38998 0.58724 0.0
H3784 H 0.2823 0.31498 0.61642 0.0
H3785 H 0.24113 0.36986 0.65505 0.0
H3786 H 0.24377 0.36999 0.62963 0.0
H3787 H 0.26243 0.37879 0.644 0.0
C3788 C 0.26177 0.35049 0.57486 0.0
C3789 C 0.27006 0.36824 0.57265 0.0
C3790 C 0.26143 0.34134 0.59254 0.0
C3791 C 0.26935 0.34971 0.60842 0.0
C3792 C 0.27809 0.36721 0.60606 0.0
H3793 H 0.28849 0.31665 0.72541 0.0
H3794 H 0.28832 0.33166 0.69413 0.0
C3795 C 0.2783 0.37642 0.58846 0.0
C3796 C 0.26876 0.34005 0.62734 0.0
H3797 H 0.25571 0.34606 0.6739 0.0
C3798 C 0.27634 0.32175 0.62894 0.0
C3799 C 0.26095 0.34876 0.64379 0.0
C3800 C 0.25143 0.36785 0.64304 0.0
C3801 C 0.27675 0.31221 0.64647 0.0
C3802 C 0.26926 0.32107 0.66292 0.0
C3803 C 0.26157 0.33928 0.66134 0.0
C3804 C 0.26935 0.31174 0.68192 0.0
C3805 C 0.28562 0.29284 0.64735 0.0
C3806 C 0.25857 0.29561 0.68563 0.0
C3807 C 0.25854 0.28704 0.70358 0.0
C3808 C 0.26935 0.29435 0.71824 0.0
C3809 C 0.28007 0.31055 0.71448 0.0
C3810 C 0.27997 0.31919 0.69658 0.0
H3811 H 0.2943 0.28958 0.63442 0.0
H3812 H 0.2948 0.29135 0.65986 0.0
H3813 H 0.27416 0.28233 0.64875 0.0
H3814 H 0.25001 0.28975 0.67468 0.0
H3815 H 0.25004 0.27465 0.70594 0.0
H3816 H 0.44205 0.57775 0.21793 0.0
H3817 H 0.46566 0.57994 0.19192 0.0
H3818 H 0.42401 0.56047 0.15308 0.0
H3819 H 0.4004 0.55838 0.17887 0.0
H3820 H 0.47793 0.54925 0.17142 0.0
H3821 H 0.44868 0.60335 0.12344 0.0
H3822 H 0.44103 0.60127 0.14794 0.0
H3823 H 0.43096 0.58658 0.1303 0.0
C3824 C 0.43784 0.57432 0.20376 0.0
C3825 C 0.41943 0.56783 0.20039 0.0
C3826 C 0.45132 0.5756 0.18895 0.0
C3827 C 0.44649 0.57061 0.17056 0.0
C3828 C 0.4279 0.56481 0.16709 0.0
H3829 H 0.49307 0.51155 0.08135 0.0
H3830 H 0.48206 0.5239 0.11177 0.0
C3831 C 0.41446 0.56346 0.18186 0.0
C3832 C 0.46127 0.56913 0.15539 0.0
H3833 H 0.46917 0.57951 0.10878 0.0
C3834 C 0.47633 0.55624 0.15786 0.0
C3835 C 0.45936 0.57846 0.13783 0.0
C3836 C 0.44424 0.59334 0.13478 0.0
C3837 C 0.48851 0.55122 0.14269 0.0
C3838 C 0.48536 0.55916 0.12466 0.0
C3839 C 0.4714 0.57327 0.1226 0.0
C3840 C 0.49443 0.55125 0.10739 0.0
C3841 C 0.50411 0.53686 0.1459 0.0
C3842 C 0.50506 0.56256 0.09486 0.0
C3843 C 0.51141 0.55552 0.07739 0.0
C3844 C 0.50691 0.53717 0.07214 0.0
C3845 C 0.49678 0.52573 0.085 0.0
C3846 C 0.49059 0.53272 0.10245 0.0
H3847 H 0.50875 0.53694 0.1608 0.0
H3848 H 0.49865 0.5227 0.14294 0.0
H3849 H 0.51666 0.53942 0.13641 0.0
H3850 H 0.50798 0.57697 0.09838 0.0
H3851 H 0.5191 0.56469 0.06771 0.0
H3852 H 0.29078 0.64514 0.94419 0.0
H3853 H 0.29573 0.65316 0.91063 0.0
H3854 H 0.29409 0.71192 0.92438 0.0
H3855 H 0.28894 0.7041 0.95781 0.0
H3856 H 0.26921 0.67907 0.8894 0.0
H3857 H 0.3443 0.70223 0.89053 0.0
H3858 H 0.33423 0.68622 0.9079 0.0
H3859 H 0.32922 0.71092 0.90952 0.0
C3860 C 0.29154 0.65976 0.94003 0.0
C3861 C 0.28944 0.67403 0.95354 0.0
C3862 C 0.29441 0.66428 0.92093 0.0
C3863 C 0.29555 0.68308 0.91522 0.0
C3864 C 0.29355 0.69732 0.92867 0.0
H3865 H 0.29467 0.76231 0.83007 0.0
H3866 H 0.30058 0.74165 0.85692 0.0
C3867 C 0.29047 0.69284 0.94769 0.0
C3868 C 0.29755 0.68816 0.89508 0.0
H3869 H 0.3259 0.71277 0.86432 0.0
C3870 C 0.28173 0.68604 0.88365 0.0
C3871 C 0.31396 0.69717 0.88783 0.0
C3872 C 0.33149 0.69917 0.8995 0.0
C3873 C 0.28128 0.69413 0.86554 0.0
C3874 C 0.29732 0.70414 0.85866 0.0
C3875 C 0.31365 0.70508 0.86965 0.0
C3876 C 0.29632 0.71603 0.84152 0.0
C3877 C 0.26312 0.69312 0.8546 0.0
C3878 C 0.29259 0.70841 0.82381 0.0
C3879 C 0.28895 0.72024 0.80842 0.0
C3880 C 0.28924 0.73981 0.81055 0.0
C3881 C 0.29422 0.74731 0.828 0.0
C3882 C 0.29767 0.73551 0.84336 0.0
H3883 H 0.25106 0.68762 0.86336 0.0
H3884 H 0.259 0.70718 0.84907 0.0
H3885 H 0.26542 0.68366 0.84237 0.0
H3886 H 0.29189 0.69338 0.82204 0.0
H3887 H 0.28535 0.71406 0.79507 0.0
H3888 H 0.14155 0.52201 0.72003 0.0
H3889 H 0.12021 0.529 0.6941 0.0
H3890 H 0.07179 0.52669 0.73283 0.0
H3891 H 0.09321 0.5203 0.75902 0.0
H3892 H 0.09287 0.50693 0.68148 0.0
H3893 H 0.06132 0.57511 0.70449 0.0
H3894 H 0.08203 0.56478 0.71533 0.0
H3895 H 0.05862 0.5564 0.72143 0.0
C3896 C 0.12637 0.52317 0.72304 0.0
C3897 C 0.11899 0.52064 0.74148 0.0
C3898 C 0.11421 0.52716 0.70825 0.0
C3899 C 0.09446 0.52855 0.7116 0.0
C3900 C 0.08702 0.52609 0.73003 0.0
H3901 H 0.02104 0.52099 0.61403 0.0
H3902 H 0.03439 0.51554 0.64531 0.0
C3903 C 0.09924 0.52233 0.74492 0.0
C3904 C 0.08178 0.53158 0.69549 0.0
H3905 H 0.04889 0.56176 0.67695 0.0
C3906 C 0.0832 0.51889 0.68049 0.0
C3907 C 0.06929 0.54725 0.69429 0.0
C3908 C 0.06779 0.56177 0.70965 0.0
C3909 C 0.07286 0.52167 0.66404 0.0
C3910 C 0.06022 0.53724 0.66287 0.0
C3911 C 0.05846 0.54974 0.67803 0.0
C3912 C 0.0499 0.54154 0.6454 0.0
C3913 C 0.07626 0.50836 0.64777 0.0
C3914 C 0.05336 0.5584 0.63566 0.0
C3915 C 0.0455 0.56165 0.61801 0.0
C3916 C 0.03422 0.548 0.6098 0.0
C3917 C 0.03001 0.53153 0.61997 0.0
C3918 C 0.03762 0.52842 0.63776 0.0
H3919 H 0.08973 0.50014 0.64924 0.0
H3920 H 0.06438 0.49831 0.64739 0.0
H3921 H 0.07691 0.51605 0.63406 0.0
H3922 H 0.06277 0.56872 0.64136 0.0
H3923 H 0.04896 0.57442 0.61038 0.0
H3924 H 0.27017 0.34487 0.47622 0.0
H3925 H 0.26863 0.33099 0.44466 0.0
H3926 H 0.26297 0.38614 0.41993 0.0
H3927 H 0.26439 0.40009 0.45139 0.0
H3928 H 0.23794 0.33603 0.41736 0.0
H3929 H 0.30795 0.36071 0.38934 0.0
H3930 H 0.30221 0.35956 0.41435 0.0
H3931 H 0.29258 0.37818 0.40011 0.0
C3932 C 0.26867 0.35405 0.46406 0.0
C3933 C 0.26746 0.37361 0.46637 0.0
C3934 C 0.26776 0.34609 0.44602 0.0
C3935 C 0.26588 0.35751 0.42985 0.0
C3936 C 0.26468 0.37703 0.43212 0.0
H3937 H 0.26504 0.33257 0.30841 0.0
H3938 H 0.26449 0.34823 0.33918 0.0
C3939 C 0.26543 0.38499 0.45016 0.0
C3940 C 0.26476 0.34899 0.41069 0.0
H3941 H 0.28839 0.34523 0.36797 0.0
C3942 C 0.24899 0.338 0.40657 0.0
C3943 C 0.27906 0.35171 0.39651 0.0
C3944 C 0.29651 0.36306 0.40023 0.0
C3945 C 0.24703 0.32982 0.38867 0.0
C3946 C 0.26154 0.33218 0.37456 0.0
C3947 C 0.27724 0.34335 0.37867 0.0
C3948 C 0.26101 0.32277 0.35571 0.0
C3949 C 0.22915 0.31909 0.38497 0.0
C3950 C 0.25933 0.30321 0.35457 0.0
C3951 C 0.25943 0.29427 0.33701 0.0
C3952 C 0.26151 0.30459 0.32003 0.0
C3953 C 0.26326 0.32418 0.32114 0.0
C3954 C 0.26302 0.33315 0.33877 0.0
H3955 H 0.21712 0.32379 0.39436 0.0
H3956 H 0.22481 0.32073 0.37005 0.0
H3957 H 0.23179 0.30399 0.38789 0.0
H3958 H 0.25834 0.29474 0.36731 0.0
H3959 H 0.25832 0.27915 0.3368 0.0
H3960 H 0.33627 0.40732 0.50392 0.0
H3961 H 0.36584 0.42516 0.50352 0.0
H3962 H 0.33746 0.46926 0.53517 0.0
H3963 H 0.30774 0.45178 0.53502 0.0
H3964 H 0.35909 0.48395 0.50794 0.0
H3965 H 0.40225 0.4306 0.5456 0.0
H3966 H 0.39244 0.42172 0.52437 0.0
H3967 H 0.37678 0.42881 0.54364 0.0
C3968 C 0.33635 0.4208 0.51083 0.0
C3969 C 0.31965 0.42806 0.51959 0.0
C3970 C 0.35333 0.43095 0.51072 0.0
C3971 C 0.3541 0.44845 0.51967 0.0
C3972 C 0.33735 0.45579 0.52823 0.0
H3973 H 0.4601 0.50152 0.54992 0.0
H3974 H 0.42915 0.48626 0.5498 0.0
C3975 C 0.32033 0.44574 0.52817 0.0
C3976 C 0.37222 0.45926 0.51993 0.0
H3977 H 0.41908 0.45623 0.53195 0.0
C3978 C 0.37219 0.47789 0.51327 0.0
C3979 C 0.38933 0.45155 0.52715 0.0
C3980 C 0.39021 0.43215 0.53578 0.0
C3981 C 0.38869 0.48889 0.51342 0.0
C3982 C 0.40598 0.48093 0.51994 0.0
C3983 C 0.40596 0.46236 0.52678 0.0
C3984 C 0.42421 0.49158 0.52013 0.0
C3985 C 0.38724 0.50908 0.50703 0.0
C3986 C 0.43184 0.49992 0.50357 0.0
C3987 C 0.44945 0.50898 0.50369 0.0
C3988 C 0.46005 0.50959 0.5203 0.0
C3989 C 0.45232 0.5014 0.53689 0.0
C3990 C 0.43462 0.49257 0.53681 0.0
H3991 H 0.37235 0.51452 0.50826 0.0
H3992 H 0.39648 0.51817 0.51542 0.0
H3993 H 0.39182 0.51014 0.49194 0.0
H3994 H 0.42445 0.49897 0.49036 0.0
H3995 H 0.45509 0.51487 0.49058 0.0
H3996 H 0.85296 0.1673 0.49598 0.0
H3997 H 0.88385 0.15102 0.49299 0.0
H3998 H 0.86364 0.10753 0.5308 0.0
H3999 H 0.8327 0.12368 0.53387 0.0
H4000 H 0.90272 0.12204 0.53679 0.0
H4001 H 0.88849 0.0998 0.46323 0.0
H4002 H 0.88517 0.12426 0.4686 0.0
H4003 H 0.86969 0.10731 0.47946 0.0
C4004 C 0.85519 0.1544 0.50385 0.0
C4005 C 0.84043 0.14666 0.51507 0.0
C4006 C 0.87277 0.14511 0.50206 0.0
C4007 C 0.87582 0.12803 0.5115 0.0
C4008 C 0.86143 0.1207 0.52337 0.0
H4009 H 0.95397 0.03581 0.5021 0.0
H4010 H 0.92655 0.05738 0.50188 0.0
C4011 C 0.84382 0.12992 0.52511 0.0
C4012 C 0.8937 0.1173 0.50841 0.0
H4013 H 0.91781 0.09023 0.47599 0.0
C4014 C 0.90615 0.1152 0.52348 0.0
C4015 C 0.89789 0.10834 0.49103 0.0
C4016 C 0.88461 0.10987 0.47463 0.0
C4017 C 0.92276 0.10417 0.52165 0.0
C4018 C 0.92692 0.09514 0.50431 0.0
C4019 C 0.91454 0.09735 0.48919 0.0
C4020 C 0.94352 0.08242 0.5021 0.0
C4021 C 0.93549 0.10175 0.53842 0.0
C4022 C 0.96203 0.08951 0.50165 0.0
C4023 C 0.97771 0.07726 0.50169 0.0
C4024 C 0.97505 0.05776 0.50225 0.0
C4025 C 0.95647 0.05075 0.50173 0.0
C4026 C 0.94081 0.06302 0.5016 0.0
H4027 H 0.92883 0.10752 0.55158 0.0
H4028 H 0.93897 0.08669 0.54076 0.0
H4029 H 0.94908 0.10914 0.53555 0.0
H4030 H 0.9643 0.10449 0.50187 0.0
H4031 H 0.99186 0.08309 0.50205 0.0
H4032 H 0.64775 0.0746 0.24822 0.0
H4033 H 0.66125 0.10362 0.23559 0.0
H4034 H 0.71781 0.08293 0.24759 0.0
H4035 H 0.70442 0.05363 0.25973 0.0
H4036 H 0.67998 0.12716 0.25691 0.0
H4037 H 0.72649 0.10664 0.19609 0.0
H4038 H 0.70861 0.0913 0.20617 0.0
H4039 H 0.73154 0.09301 0.21684 0.0
C4040 C 0.66309 0.07613 0.24785 0.0
C4041 C 0.67507 0.06199 0.25506 0.0
C4042 C 0.67077 0.09265 0.24057 0.0
C4043 C 0.69053 0.09532 0.24044 0.0
C4044 C 0.70256 0.08096 0.24709 0.0
H4045 H 0.75224 0.19321 0.25998 0.0
H4046 H 0.73674 0.16287 0.25925 0.0
C4047 C 0.69489 0.06432 0.25421 0.0
C4048 C 0.69828 0.11398 0.23585 0.0
H4049 H 0.7332 0.13642 0.21046 0.0
C4050 C 0.69137 0.12923 0.24649 0.0
C4051 C 0.71303 0.11668 0.22215 0.0
C4052 C 0.7202 0.10105 0.20953 0.0
C4053 C 0.69946 0.14693 0.2445 0.0
C4054 C 0.71505 0.14931 0.23177 0.0
C4055 C 0.72137 0.13438 0.22038 0.0
C4056 C 0.72567 0.16692 0.23122 0.0
C4057 C 0.69156 0.16286 0.25636 0.0
C4058 C 0.72499 0.17887 0.21543 0.0
C4059 C 0.73377 0.19631 0.21585 0.0
C4060 C 0.74332 0.20191 0.23205 0.0
C4061 C 0.74459 0.18948 0.2475 0.0
C4062 C 0.73586 0.17213 0.24707 0.0
H4063 H 0.67682 0.16008 0.26162 0.0
H4064 H 0.70067 0.16465 0.26879 0.0
H4065 H 0.69152 0.17621 0.24817 0.0
H4066 H 0.71718 0.17497 0.20309 0.0
H4067 H 0.73253 0.20563 0.20378 0.0
H4068 H 0.69835 0.89967 0.02098 0.0
H4069 H 0.66712 0.91553 0.02198 0.0
H4070 H 0.69451 0.96881 0.02757 0.0
H4071 H 0.72576 0.95308 0.02634 0.0
H4072 H 0.64994 0.93793 0.04981 0.0
H4073 H 0.65982 0.97801 0.98279 0.0
H4074 H 0.67533 0.95874 0.98931 0.0
H4075 H 0.6782 0.98144 0.99957 0.0
C4076 C 0.69772 0.91477 0.02237 0.0
C4077 C 0.71456 0.92512 0.02345 0.0
C4078 C 0.67986 0.92382 0.02299 0.0
C4079 C 0.67843 0.94341 0.02458 0.0
C4080 C 0.69522 0.95374 0.02595 0.0
H4081 H 0.57391 0.00741 0.05313 0.0
H4082 H 0.60558 0.99245 0.0537 0.0
C4083 C 0.71309 0.9447 0.02534 0.0
C4084 C 0.6594 0.95298 0.02489 0.0
H4085 H 0.63219 0.9853 0.00136 0.0
C4086 C 0.64605 0.94829 0.03922 0.0
C4087 C 0.65423 0.96635 0.01095 0.0
C4088 C 0.66755 0.97135 0.99467 0.0
C4089 C 0.62778 0.9567 0.04008 0.0
C4090 C 0.62276 0.97038 0.02638 0.0
C4091 C 0.63607 0.97496 0.01198 0.0
C4092 C 0.60355 0.97958 0.02624 0.0
C4093 C 0.61384 0.95053 0.05539 0.0
C4094 C 0.59199 0.97771 0.01048 0.0
C4095 C 0.57396 0.98633 0.01006 0.0
C4096 C 0.56706 0.99714 0.02538 0.0
C4097 C 0.57872 0.99913 0.04113 0.0
C4098 C 0.5968 0.99048 0.04152 0.0
H4099 H 0.61813 0.93688 0.06179 0.0
H4100 H 0.61325 0.96115 0.06676 0.0
H4101 H 0.59929 0.94924 0.04975 0.0
H4102 H 0.59688 0.96944 0.99849 0.0
H4103 H 0.56542 0.98448 0.99769 0.0
H4104 H 0.33817 0.5053 0.26088 0.0
H4105 H 0.32712 0.47302 0.26026 0.0
H4106 H 0.37781 0.45651 0.22851 0.0
H4107 H 0.38877 0.48893 0.2287 0.0
H4108 H 0.34564 0.44283 0.21354 0.0
H4109 H 0.34605 0.42829 0.29051 0.0
H4110 H 0.33243 0.44898 0.28489 0.0
H4111 H 0.35771 0.44831 0.27991 0.0
C4112 C 0.34701 0.49477 0.25385 0.0
C4113 C 0.36435 0.49957 0.24488 0.0
C4114 C 0.34075 0.47632 0.25363 0.0
C4115 C 0.35184 0.46234 0.24467 0.0
C4116 C 0.36913 0.46711 0.23562 0.0
H4117 H 0.32185 0.34442 0.25677 0.0
H4118 H 0.33928 0.37387 0.25688 0.0
C4119 C 0.37536 0.4856 0.23574 0.0
C4120 C 0.3449 0.44293 0.244 0.0
H4121 H 0.32817 0.40724 0.27182 0.0
C4122 C 0.34202 0.43494 0.22627 0.0
C4123 C 0.34052 0.43256 0.26063 0.0
C4124 C 0.34453 0.43989 0.28006 0.0
C4125 C 0.33412 0.41712 0.22472 0.0
C4126 C 0.32858 0.40729 0.24136 0.0
C4127 C 0.3322 0.41494 0.25909 0.0
C4128 C 0.31841 0.38934 0.24072 0.0
C4129 C 0.33179 0.40902 0.2053 0.0
C4130 C 0.30084 0.38839 0.23177 0.0
C4131 C 0.2909 0.37161 0.23167 0.0
C4132 C 0.29824 0.35558 0.24075 0.0
C4133 C 0.31577 0.35661 0.24983 0.0
C4134 C 0.32577 0.37337 0.24982 0.0
H4135 H 0.34194 0.4153 0.19483 0.0
H4136 H 0.33401 0.39358 0.20543 0.0
H4137 H 0.31714 0.41213 0.2005 0.0
H4138 H 0.29465 0.4007 0.22513 0.0
H4139 H 0.27727 0.37131 0.22485 0.0
H4140 H 0.25525 0.59917 0.01421 0.0
H4141 H 0.2283 0.57808 0.01874 0.0
H4142 H 0.18923 0.62482 0.01217 0.0
H4143 H 0.21603 0.64587 0.0072 0.0
H4144 H 0.20164 0.57956 0.04703 0.0
H4145 H 0.16679 0.58628 0.978 0.0
H4146 H 0.19075 0.59412 0.98163 0.0
H4147 H 0.17059 0.60871 0.98836 0.0
C4148 C 0.2409 0.60487 0.01342 0.0
C4149 C 0.23769 0.62413 0.01032 0.0
C4150 C 0.22556 0.59283 0.01604 0.0
C4151 C 0.20681 0.59986 0.01555 0.0
C4152 C 0.20359 0.61904 0.01215 0.0
H4153 H 0.10374 0.56293 0.06941 0.0
H4154 H 0.13558 0.57503 0.06204 0.0
C4155 C 0.21891 0.63106 0.00942 0.0
C4156 C 0.19058 0.58749 0.0199 0.0
H4157 H 0.14735 0.57473 0.00389 0.0
C4158 C 0.18987 0.57825 0.0375 0.0
C4159 C 0.17544 0.58556 0.00731 0.0
C4160 C 0.17601 0.59404 0.98769 0.0
C4161 C 0.17396 0.5678 0.04322 0.0
C4162 C 0.15823 0.567 0.03117 0.0
C4163 C 0.15934 0.57554 0.01322 0.0
C4164 C 0.14013 0.55808 0.03702 0.0
C4165 C 0.17416 0.55779 0.06208 0.0
C4166 C 0.13213 0.54463 0.02539 0.0
C4167 C 0.11389 0.53803 0.02941 0.0
C4168 C 0.10339 0.54468 0.04518 0.0
C4169 C 0.11169 0.55749 0.05731 0.0
C4170 C 0.12988 0.56431 0.05314 0.0
H4171 H 0.18896 0.55451 0.06641 0.0
H4172 H 0.16749 0.567 0.07302 0.0
H4173 H 0.16607 0.54454 0.06175 0.0
H4174 H 0.13979 0.53965 0.0129 0.0
H4175 H 0.10782 0.52796 0.02 0.0
H4176 H 0.70476 0.97112 0.28239 0.0
H4177 H 0.71891 0.94012 0.28856 0.0
H4178 H 0.66503 0.92108 0.31151 0.0
H4179 H 0.65073 0.95193 0.30537 0.0
H4180 H 0.71864 0.91632 0.32511 0.0
H4181 H 0.68036 0.88749 0.26394 0.0
H4182 H 0.68426 0.91227 0.26658 0.0
H4183 H 0.66647 0.9008 0.28096 0.0
C4184 C 0.69599 0.96036 0.28888 0.0
C4185 C 0.67661 0.9638 0.29319 0.0
C4186 C 0.7041 0.94277 0.2925 0.0
C4187 C 0.69293 0.92846 0.3004 0.0
C4188 C 0.67379 0.93203 0.30534 0.0
H4189 H 0.71502 0.80913 0.2991 0.0
H4190 H 0.70065 0.8395 0.30704 0.0
C4191 C 0.66567 0.9496 0.30176 0.0
C4192 C 0.70082 0.90934 0.30193 0.0
H4193 H 0.69965 0.86667 0.28098 0.0
C4194 C 0.71447 0.90536 0.31559 0.0
C4195 C 0.69521 0.89524 0.28947 0.0
C4196 C 0.68086 0.89907 0.2743 0.0
C4197 C 0.72277 0.88741 0.31707 0.0
C4198 C 0.71747 0.87341 0.30429 0.0
C4199 C 0.70357 0.87742 0.29086 0.0
C4200 C 0.72691 0.85481 0.3035 0.0
C4201 C 0.73702 0.88362 0.3323 0.0
C4202 C 0.74653 0.85334 0.29939 0.0
C4203 C 0.75481 0.83598 0.29501 0.0
C4204 C 0.7435 0.81994 0.29433 0.0
C4205 C 0.72405 0.8213 0.29937 0.0
C4206 C 0.71584 0.83861 0.30397 0.0
H4207 H 0.73479 0.89331 0.34439 0.0
H4208 H 0.73614 0.86896 0.33763 0.0
H4209 H 0.75161 0.88584 0.3264 0.0
H4210 H 0.75523 0.86573 0.29849 0.0
H4211 H 0.76983 0.83532 0.29111 0.0
H4212 H 0.86487 0.11661 0.75318 0.0
H4213 H 0.84071 0.14148 0.75155 0.0
H4214 H 0.80191 0.10337 0.7261 0.0
H4215 H 0.82607 0.07821 0.72783 0.0
H4216 H 0.82151 0.15547 0.71848 0.0
H4217 H 0.77239 0.12502 0.77337 0.0
H4218 H 0.79698 0.11744 0.77096 0.0
H4219 H 0.78011 0.1106 0.75379 0.0
C4220 C 0.85123 0.11351 0.7472 0.0
C4221 C 0.8473 0.09548 0.74071 0.0
C4222 C 0.83747 0.12772 0.74623 0.0
C4223 C 0.81954 0.12417 0.73883 0.0
C4224 C 0.81562 0.10628 0.73204 0.0
H4225 H 0.75402 0.23004 0.73298 0.0
H4226 H 0.76138 0.19767 0.72373 0.0
C4227 C 0.82943 0.09199 0.73298 0.0
C4228 C 0.80509 0.13939 0.73869 0.0
H4229 H 0.7663 0.15598 0.76363 0.0
C4230 C 0.80913 0.15551 0.72797 0.0
C4231 C 0.78903 0.13921 0.75113 0.0
C4232 C 0.78428 0.12222 0.76308 0.0
C4233 C 0.79835 0.17203 0.73039 0.0
C4234 C 0.78293 0.17222 0.74367 0.0
C4235 C 0.77805 0.15567 0.75338 0.0
C4236 C 0.77434 0.1901 0.75021 0.0
C4237 C 0.80455 0.18952 0.71989 0.0
C4238 C 0.77814 0.19609 0.76854 0.0
C4239 C 0.77388 0.21443 0.7739 0.0
C4240 C 0.76575 0.22711 0.76099 0.0
C4241 C 0.76043 0.22062 0.74318 0.0
C4242 C 0.76468 0.20218 0.73784 0.0
H4243 H 0.81825 0.18742 0.71194 0.0
H4244 H 0.79351 0.19371 0.70966 0.0
H4245 H 0.8062 0.20126 0.72989 0.0
H4246 H 0.78554 0.18693 0.77831 0.0
H4247 H 0.77797 0.21893 0.78779 0.0
loop_
_geom_bond_atom_site_label_1
_geom_bond_atom_site_label_2
_geom_bond_distance
_geom_bond_site_symmetry_2
_ccdc_geom_bond_type
In0 O1 2.294 . S
In0 O2 2.326 . S
In0 O6 2.266 . S
In0 O7 2.326 . S
In0 O8 2.266 . S
In0 O9 2.326 . S
In0 O11 2.294 1_455 S
In0 O12 2.326 1_455 S
O1 In0 2.294 . S
O1 C10 1.240 . S
O2 In0 2.326 . S
O2 C10 1.252 . S
C3 O6 1.252 . S
C3 O7 1.260 . S
C4 O11 1.240 . S
C4 O12 1.252 . S
C5 O8 1.252 . S
C5 O9 1.260 . S
O6 In0 2.266 . S
O6 C3 1.252 . S
O7 In0 2.326 . S
O7 C3 1.260 . S
O8 In0 2.266 . S
O8 C5 1.252 . S
O9 In0 2.326 . S
O9 C5 1.260 . S
C10 O1 1.240 . S
C10 O2 1.252 . S
O11 In0 2.294 1_655 S
O11 C4 1.240 . S
O12 In0 2.326 1_655 S
O12 C4 1.252 . S
In13 O14 2.294 . S
In13 O15 2.326 . S
In13 O19 2.266 . S
In13 O20 2.326 . S
In13 O21 2.266 . S
In13 O22 2.326 . S
In13 O24 2.294 . S
In13 O25 2.326 . S
O14 In13 2.294 . S
O14 C23 1.240 . S
O15 In13 2.326 . S
O15 C23 1.252 . S
C16 O19 1.252 . S
C16 O20 1.260 . S
C17 O24 1.240 . S
C17 O25 1.252 . S
C18 O21 1.252 . S
C18 O22 1.260 . S
O19 In13 2.266 . S
O19 C16 1.252 . S
O20 In13 2.326 . S
O20 C16 1.260 . S
O21 In13 2.266 . S
O21 C18 1.252 . S
O22 In13 2.326 . S
O22 C18 1.260 . S
C23 O14 1.240 . S
C23 O15 1.252 . S
O24 In13 2.294 . S
O24 C17 1.240 . S
O25 In13 2.326 . S
O25 C17 1.252 . S
In26 O27 2.294 . S
In26 O28 2.326 . S
In26 O32 2.266 . S
In26 O33 2.326 . S
In26 O34 2.266 . S
In26 O35 2.326 . S
In26 O37 2.294 . S
In26 O38 2.326 . S
O27 In26 2.294 . S
O27 C36 1.240 . S
O28 In26 2.326 . S
O28 C36 1.252 . S
C29 O32 1.252 . S
C29 O33 1.260 . S
C30 O37 1.240 . S
C30 O38 1.252 . S
C31 O34 1.252 . S
C31 O35 1.260 . S
O32 In26 2.266 . S
O32 C29 1.252 . S
O33 In26 2.326 . S
O33 C29 1.260 . S
O34 In26 2.266 . S
O34 C31 1.252 . S
O35 In26 2.326 . S
O35 C31 1.260 . S
C36 O27 1.240 . S
C36 O28 1.252 . S
O37 In26 2.294 . S
O37 C30 1.240 . S
O38 In26 2.326 . S
O38 C30 1.252 . S
In39 O40 2.294 . S
In39 O41 2.326 . S
In39 O45 2.266 . S
In39 O46 2.326 . S
In39 O47 2.266 . S
In39 O48 2.326 . S
In39 O50 2.294 . S
In39 O51 2.326 . S
O40 In39 2.294 . S
O40 C49 1.240 . S
O41 In39 2.326 . S
O41 C49 1.252 . S
C42 O45 1.252 . S
C42 O46 1.260 . S
C43 O50 1.240 . S
C43 O51 1.252 . S
C44 O47 1.252 . S
C44 O48 1.260 . S
O45 In39 2.266 . S
O45 C42 1.252 . S
O46 In39 2.326 . S
O46 C42 1.260 . S
O47 In39 2.266 . S
O47 C44 1.252 . S
O48 In39 2.326 . S
O48 C44 1.260 . S
C49 O40 1.240 . S
C49 O41 1.252 . S
O50 In39 2.294 . S
O50 C43 1.240 . S
O51 In39 2.326 . S
O51 C43 1.252 . S
In52 O53 2.294 1_545 S
In52 O54 2.326 1_545 S
In52 O58 2.266 . S
In52 O59 2.326 . S
In52 O60 2.266 . S
In52 O61 2.326 . S
In52 O63 2.294 . S
In52 O64 2.326 . S
O53 In52 2.294 1_565 S
O53 C62 1.240 . S
O54 In52 2.326 1_565 S
O54 C62 1.252 . S
C55 O58 1.252 . S
C55 O59 1.260 . S
C56 O63 1.240 . S
C56 O64 1.252 . S
C57 O60 1.252 . S
C57 O61 1.260 . S
O58 In52 2.266 . S
O58 C55 1.252 . S
O59 In52 2.326 . S
O59 C55 1.260 . S
O60 In52 2.266 . S
O60 C57 1.252 . S
O61 In52 2.326 . S
O61 C57 1.260 . S
C62 O53 1.240 . S
C62 O54 1.252 . S
O63 In52 2.294 . S
O63 C56 1.240 . S
O64 In52 2.326 . S
O64 C56 1.252 . S
In65 O66 2.294 . S
In65 O67 2.326 . S
In65 O71 2.266 . S
In65 O72 2.326 . S
In65 O73 2.266 . S
In65 O74 2.326 . S
In65 O76 2.294 . S
In65 O77 2.326 . S
O66 In65 2.294 . S
O66 C75 1.240 . S
O67 In65 2.326 . S
O67 C75 1.252 . S
C68 O71 1.252 . S
C68 O72 1.260 . S
C69 O76 1.240 . S
C69 O77 1.252 . S
C70 O73 1.252 . S
C70 O74 1.260 . S
O71 In65 2.266 . S
O71 C68 1.252 . S
O72 In65 2.326 . S
O72 C68 1.260 . S
O73 In65 2.266 . S
O73 C70 1.252 . S
O74 In65 2.326 . S
O74 C70 1.260 . S
C75 O66 1.240 . S
C75 O67 1.252 . S
O76 In65 2.294 . S
O76 C69 1.240 . S
O77 In65 2.326 . S
O77 C69 1.252 . S
In78 O79 2.294 . S
In78 O80 2.326 . S
In78 O84 2.266 . S
In78 O85 2.326 . S
In78 O86 2.266 . S
In78 O87 2.326 . S
In78 O89 2.294 . S
In78 O90 2.326 . S
O79 In78 2.294 . S
O79 C88 1.240 . S
O80 In78 2.326 . S
O80 C88 1.252 . S
C81 O84 1.252 . S
C81 O85 1.260 . S
C82 O89 1.240 . S
C82 O90 1.252 . S
C83 O86 1.252 . S
C83 O87 1.260 . S
O84 In78 2.266 . S
O84 C81 1.252 . S
O85 In78 2.326 . S
O85 C81 1.260 . S
O86 In78 2.266 . S
O86 C83 1.252 . S
O87 In78 2.326 . S
O87 C83 1.260 . S
C88 O79 1.240 . S
C88 O80 1.252 . S
O89 In78 2.294 . S
O89 C82 1.240 . S
O90 In78 2.326 . S
O90 C82 1.252 . S
In91 O92 2.294 . S
In91 O93 2.326 . S
In91 O97 2.266 . S
In91 O98 2.326 . S
In91 O99 2.266 . S
In91 O100 2.326 1_554 S
In91 O102 2.294 . S
In91 O103 2.326 . S
O92 In91 2.294 . S
O92 C101 1.240 . S
O93 In91 2.326 . S
O93 C101 1.252 . S
C94 O97 1.252 . S
C94 O98 1.260 . S
C95 O102 1.240 . S
C95 O103 1.252 . S
C96 O99 1.252 1_556 S
C96 O100 1.260 . S
O97 In91 2.266 . S
O97 C94 1.252 . S
O98 In91 2.326 . S
O98 C94 1.260 . S
O99 In91 2.266 . S
O99 C96 1.252 1_554 S
O100 In91 2.326 1_556 S
O100 C96 1.260 . S
C101 O92 1.240 . S
C101 O93 1.252 . S
O102 In91 2.294 . S
O102 C95 1.240 . S
O103 In91 2.326 . S
O103 C95 1.252 . S
In104 O105 2.294 . S
In104 O106 2.326 . S
In104 O110 2.266 . S
In104 O111 2.326 . S
In104 O112 2.266 . S
In104 O113 2.326 . S
In104 O115 2.294 . S
In104 O116 2.326 . S
O105 In104 2.294 . S
O105 C114 1.240 . S
O106 In104 2.326 . S
O106 C114 1.252 . S
C107 O110 1.252 . S
C107 O111 1.260 . S
C108 O115 1.240 . S
C108 O116 1.252 . S
C109 O112 1.252 . S
C109 O113 1.260 . S
O110 In104 2.266 . S
O110 C107 1.252 . S
O111 In104 2.326 . S
O111 C107 1.260 . S
O112 In104 2.266 . S
O112 C109 1.252 . S
O113 In104 2.326 . S
O113 C109 1.260 . S
C114 O105 1.240 . S
C114 O106 1.252 . S
O115 In104 2.294 . S
O115 C108 1.240 . S
O116 In104 2.326 . S
O116 C108 1.252 . S
In117 O118 2.294 . S
In117 O119 2.326 . S
In117 O123 2.266 . S
In117 O124 2.326 . S
In117 O125 2.266 . S
In117 O126 2.326 . S
In117 O128 2.294 . S
In117 O129 2.326 . S
O118 In117 2.294 . S
O118 C127 1.240 . S
O119 In117 2.326 . S
O119 C127 1.252 . S
C120 O123 1.252 . S
C120 O124 1.260 . S
C121 O128 1.240 . S
C121 O129 1.252 . S
C122 O125 1.252 . S
C122 O126 1.260 . S
O123 In117 2.266 . S
O123 C120 1.252 . S
O124 In117 2.326 . S
O124 C120 1.260 . S
O125 In117 2.266 . S
O125 C122 1.252 . S
O126 In117 2.326 . S
O126 C122 1.260 . S
C127 O118 1.240 . S
C127 O119 1.252 . S
O128 In117 2.294 . S
O128 C121 1.240 . S
O129 In117 2.326 . S
O129 C121 1.252 . S
In130 O131 2.294 . S
In130 O132 2.326 . S
In130 O136 2.266 . S
In130 O137 2.326 . S
In130 O138 2.266 . S
In130 O139 2.326 . S
In130 O141 2.294 . S
In130 O142 2.326 . S
O131 In130 2.294 . S
O131 C140 1.240 . S
O132 In130 2.326 . S
O132 C140 1.252 . S
C133 O136 1.252 . S
C133 O137 1.260 . S
C134 O141 1.240 . S
C134 O142 1.252 . S
C135 O138 1.252 . S
C135 O139 1.260 . S
O136 In130 2.266 . S
O136 C133 1.252 . S
O137 In130 2.326 . S
O137 C133 1.260 . S
O138 In130 2.266 . S
O138 C135 1.252 . S
O139 In130 2.326 . S
O139 C135 1.260 . S
C140 O131 1.240 . S
C140 O132 1.252 . S
O141 In130 2.294 . S
O141 C134 1.240 . S
O142 In130 2.326 . S
O142 C134 1.252 . S
In143 O144 2.294 . S
In143 O145 2.326 . S
In143 O149 2.266 . S
In143 O150 2.326 . S
In143 O151 2.266 . S
In143 O152 2.326 . S
In143 O154 2.294 . S
In143 O155 2.326 . S
O144 In143 2.294 . S
O144 C153 1.240 . S
O145 In143 2.326 . S
O145 C153 1.252 . S
C146 O149 1.252 . S
C146 O150 1.260 . S
C147 O154 1.240 . S
C147 O155 1.252 . S
C148 O151 1.252 . S
C148 O152 1.260 . S
O149 In143 2.266 . S
O149 C146 1.252 . S
O150 In143 2.326 . S
O150 C146 1.260 . S
O151 In143 2.266 . S
O151 C148 1.252 . S
O152 In143 2.326 . S
O152 C148 1.260 . S
C153 O144 1.240 . S
C153 O145 1.252 . S
O154 In143 2.294 . S
O154 C147 1.240 . S
O155 In143 2.326 . S
O155 C147 1.252 . S
In156 O157 2.294 . S
In156 O158 2.326 . S
In156 O162 2.266 1_455 S
In156 O163 2.326 1_455 S
In156 O164 2.266 . S
In156 O165 2.326 . S
In156 O167 2.294 . S
In156 O168 2.326 . S
O157 In156 2.294 . S
O157 C166 1.240 . S
O158 In156 2.326 . S
O158 C166 1.252 . S
C159 O162 1.252 . S
C159 O163 1.260 . S
C160 O167 1.240 . S
C160 O168 1.252 . S
C161 O164 1.252 . S
C161 O165 1.260 . S
O162 In156 2.266 1_655 S
O162 C159 1.252 . S
O163 In156 2.326 1_655 S
O163 C159 1.260 . S
O164 In156 2.266 . S
O164 C161 1.252 . S
O165 In156 2.326 . S
O165 C161 1.260 . S
C166 O157 1.240 . S
C166 O158 1.252 . S
O167 In156 2.294 . S
O167 C160 1.240 . S
O168 In156 2.326 . S
O168 C160 1.252 . S
In169 O170 2.294 . S
In169 O171 2.327 . S
In169 O175 2.266 1_455 S
In169 O176 2.325 1_455 S
In169 O177 2.264 1_455 S
In169 O178 2.322 1_455 S
In169 O180 2.296 . S
In169 O181 2.329 . S
O170 In169 2.294 . S
O170 C179 1.240 . S
O171 In169 2.327 . S
O171 C179 1.252 . S
C172 O175 1.252 . S
C172 O176 1.260 . S
C173 O180 1.240 . S
C173 O181 1.252 . S
C174 O177 1.252 . S
C174 O178 1.260 . S
O175 In169 2.266 1_655 S
O175 C172 1.252 . S
O176 In169 2.325 1_655 S
O176 C172 1.260 . S
O177 In169 2.264 1_655 S
O177 C174 1.252 . S
O178 In169 2.322 1_655 S
O178 C174 1.260 . S
C179 O170 1.240 . S
C179 O171 1.252 . S
O180 In169 2.296 . S
O180 C173 1.240 . S
O181 In169 2.329 . S
O181 C173 1.252 . S
In182 O183 2.294 . S
In182 O184 2.326 . S
In182 O188 2.266 . S
In182 O189 2.326 . S
In182 O190 2.266 . S
In182 O191 2.326 . S
In182 O193 2.294 . S
In182 O194 2.326 . S
O183 In182 2.294 . S
O183 C192 1.240 . S
O184 In182 2.326 . S
O184 C192 1.252 . S
C185 O188 1.252 . S
C185 O189 1.260 . S
C186 O193 1.240 . S
C186 O194 1.252 . S
C187 O190 1.252 . S
C187 O191 1.260 . S
O188 In182 2.266 . S
O188 C185 1.252 . S
O189 In182 2.326 . S
O189 C185 1.260 . S
O190 In182 2.266 . S
O190 C187 1.252 . S
O191 In182 2.326 . S
O191 C187 1.260 . S
C192 O183 1.240 . S
C192 O184 1.252 . S
O193 In182 2.294 . S
O193 C186 1.240 . S
O194 In182 2.326 . S
O194 C186 1.252 . S
In195 O196 2.294 . S
In195 O197 2.326 . S
In195 O201 2.266 . S
In195 O202 2.326 . S
In195 O203 2.266 . S
In195 O204 2.326 . S
In195 O206 2.294 . S
In195 O207 2.326 . S
O196 In195 2.294 . S
O196 C205 1.240 . S
O197 In195 2.326 . S
O197 C205 1.252 . S
C198 O201 1.252 . S
C198 O202 1.260 . S
C199 O206 1.240 . S
C199 O207 1.252 . S
C200 O203 1.252 . S
C200 O204 1.260 . S
O201 In195 2.266 . S
O201 C198 1.252 . S
O202 In195 2.326 . S
O202 C198 1.260 . S
O203 In195 2.266 . S
O203 C200 1.252 . S
O204 In195 2.326 . S
O204 C200 1.260 . S
C205 O196 1.240 . S
C205 O197 1.252 . S
O206 In195 2.294 . S
O206 C199 1.240 . S
O207 In195 2.326 . S
O207 C199 1.252 . S
In208 O209 2.294 . S
In208 O210 2.326 . S
In208 O214 2.266 . S
In208 O215 2.326 . S
In208 O216 2.266 . S
In208 O217 2.326 . S
In208 O219 2.294 . S
In208 O220 2.326 . S
O209 In208 2.294 . S
O209 C218 1.240 . S
O210 In208 2.326 . S
O210 C218 1.252 . S
C211 O214 1.252 . S
C211 O215 1.260 . S
C212 O219 1.240 . S
C212 O220 1.252 . S
C213 O216 1.252 . S
C213 O217 1.260 . S
O214 In208 2.266 . S
O214 C211 1.252 . S
O215 In208 2.326 . S
O215 C211 1.260 . S
O216 In208 2.266 . S
O216 C213 1.252 . S
O217 In208 2.326 . S
O217 C213 1.260 . S
C218 O209 1.240 . S
C218 O210 1.252 . S
O219 In208 2.294 . S
O219 C212 1.240 . S
O220 In208 2.326 . S
O220 C212 1.252 . S
In221 O222 2.294 . S
In221 O223 2.326 . S
In221 O227 2.266 . S
In221 O228 2.326 . S
In221 O229 2.266 . S
In221 O230 2.326 . S
In221 O232 2.294 . S
In221 O233 2.326 . S
O222 In221 2.294 . S
O222 C231 1.240 . S
O223 In221 2.326 . S
O223 C231 1.252 . S
C224 O227 1.252 . S
C224 O228 1.260 . S
C225 O232 1.240 . S
C225 O233 1.252 . S
C226 O229 1.252 . S
C226 O230 1.260 . S
O227 In221 2.266 . S
O227 C224 1.252 . S
O228 In221 2.326 . S
O228 C224 1.260 . S
O229 In221 2.266 . S
O229 C226 1.252 . S
O230 In221 2.326 . S
O230 C226 1.260 . S
C231 O222 1.240 . S
C231 O223 1.252 . S
O232 In221 2.294 . S
O232 C225 1.240 . S
O233 In221 2.326 . S
O233 C225 1.252 . S
In234 O235 2.294 1_545 S
In234 O236 2.326 1_545 S
In234 O240 2.266 . S
In234 O241 2.326 . S
In234 O242 2.266 . S
In234 O243 2.326 . S
In234 O245 2.294 . S
In234 O246 2.326 . S
O235 In234 2.294 1_565 S
O235 C244 1.240 . S
O236 In234 2.326 1_565 S
O236 C244 1.252 . S
C237 O240 1.252 . S
C237 O241 1.260 . S
C238 O245 1.240 . S
C238 O246 1.252 . S
C239 O242 1.252 . S
C239 O243 1.260 . S
O240 In234 2.266 . S
O240 C237 1.252 . S
O241 In234 2.326 . S
O241 C237 1.260 . S
O242 In234 2.266 . S
O242 C239 1.252 . S
O243 In234 2.326 . S
O243 C239 1.260 . S
C244 O235 1.240 . S
C244 O236 1.252 . S
O245 In234 2.294 . S
O245 C238 1.240 . S
O246 In234 2.326 . S
O246 C238 1.252 . S
In247 O248 2.294 . S
In247 O249 2.326 . S
In247 O253 2.266 . S
In247 O254 2.326 . S
In247 O255 2.266 1_554 S
In247 O256 2.326 1_554 S
In247 O258 2.294 . S
In247 O259 2.326 . S
O248 In247 2.294 . S
O248 C257 1.240 . S
O249 In247 2.326 . S
O249 C257 1.252 . S
C250 O253 1.252 . S
C250 O254 1.260 . S
C251 O258 1.240 . S
C251 O259 1.252 . S
C252 O255 1.252 . S
C252 O256 1.260 . S
O253 In247 2.266 . S
O253 C250 1.252 . S
O254 In247 2.326 . S
O254 C250 1.260 . S
O255 In247 2.266 1_556 S
O255 C252 1.252 . S
O256 In247 2.326 1_556 S
O256 C252 1.260 . S
C257 O248 1.240 . S
C257 O249 1.252 . S
O258 In247 2.294 . S
O258 C251 1.240 . S
O259 In247 2.326 . S
O259 C251 1.252 . S
In260 O261 2.296 . S
In260 O262 2.329 . S
In260 O266 2.264 1_554 S
In260 O267 2.322 1_554 S
In260 O268 2.266 1_554 S
In260 O269 2.325 1_554 S
In260 O271 2.294 . S
In260 O272 2.327 . S
O261 In260 2.296 . S
O261 C270 1.240 . S
O262 In260 2.329 . S
O262 C270 1.252 . S
C263 O266 1.252 . S
C263 O267 1.260 . S
C264 O271 1.240 . S
C264 O272 1.252 . S
C265 O268 1.252 . S
C265 O269 1.260 . S
O266 In260 2.264 1_556 S
O266 C263 1.252 . S
O267 In260 2.322 1_556 S
O267 C263 1.260 . S
O268 In260 2.266 1_556 S
O268 C265 1.252 . S
O269 In260 2.325 1_556 S
O269 C265 1.260 . S
C270 O261 1.240 . S
C270 O262 1.252 . S
O271 In260 2.294 . S
O271 C264 1.240 . S
O272 In260 2.327 . S
O272 C264 1.252 . S
In273 O274 2.294 . S
In273 O275 2.326 . S
In273 O279 2.266 . S
In273 O280 2.326 . S
In273 O281 2.266 . S
In273 O282 2.326 . S
In273 O284 2.294 . S
In273 O285 2.326 . S
O274 In273 2.294 . S
O274 C283 1.240 . S
O275 In273 2.326 . S
O275 C283 1.252 . S
C276 O279 1.252 . S
C276 O280 1.260 . S
C277 O284 1.240 . S
C277 O285 1.252 . S
C278 O281 1.252 . S
C278 O282 1.260 . S
O279 In273 2.266 . S
O279 C276 1.252 . S
O280 In273 2.326 . S
O280 C276 1.260 . S
O281 In273 2.266 . S
O281 C278 1.252 . S
O282 In273 2.326 . S
O282 C278 1.260 . S
C283 O274 1.240 . S
C283 O275 1.252 . S
O284 In273 2.294 . S
O284 C277 1.240 . S
O285 In273 2.326 . S
O285 C277 1.252 . S
In286 O287 2.294 . S
In286 O288 2.326 . S
In286 O292 2.266 . S
In286 O293 2.326 . S
In286 O294 2.266 . S
In286 O295 2.326 . S
In286 O297 2.294 . S
In286 O298 2.326 . S
O287 In286 2.294 . S
O287 C296 1.240 . S
O288 In286 2.326 . S
O288 C296 1.252 . S
C289 O292 1.252 . S
C289 O293 1.260 . S
C290 O297 1.240 . S
C290 O298 1.252 . S
C291 O294 1.252 . S
C291 O295 1.260 . S
O292 In286 2.266 . S
O292 C289 1.252 . S
O293 In286 2.326 . S
O293 C289 1.260 . S
O294 In286 2.266 . S
O294 C291 1.252 . S
O295 In286 2.326 . S
O295 C291 1.260 . S
C296 O287 1.240 . S
C296 O288 1.252 . S
O297 In286 2.294 . S
O297 C290 1.240 . S
O298 In286 2.326 . S
O298 C290 1.252 . S
In299 O300 2.294 . S
In299 O301 2.326 . S
In299 O305 2.266 . S
In299 O306 2.326 . S
In299 O307 2.266 . S
In299 O308 2.326 . S
In299 O310 2.294 . S
In299 O311 2.326 . S
O300 In299 2.294 . S
O300 C309 1.240 . S
O301 In299 2.326 . S
O301 C309 1.252 . S
C302 O305 1.252 . S
C302 O306 1.260 . S
C303 O310 1.240 . S
C303 O311 1.252 . S
C304 O307 1.252 . S
C304 O308 1.260 . S
O305 In299 2.266 . S
O305 C302 1.252 . S
O306 In299 2.326 . S
O306 C302 1.260 . S
O307 In299 2.266 . S
O307 C304 1.252 . S
O308 In299 2.326 . S
O308 C304 1.260 . S
C309 O300 1.240 . S
C309 O301 1.252 . S
O310 In299 2.294 . S
O310 C303 1.240 . S
O311 In299 2.326 . S
O311 C303 1.252 . S
Co312 N317 2.061 . S
Co312 O329 2.021 1_545 S
Co312 O332 2.062 1_456 S
Co312 O336 2.117 1_556 S
Co312 O337 2.020 . S
C313 O333 1.259 . S
C313 O336 1.258 . S
Co314 N323 2.057 . S
Co314 O330 2.117 1_545 S
Co314 O331 2.020 1_455 S
Co314 O333 2.021 . S
Co314 O338 2.062 . S
C315 N317 1.314 1_655 S
C315 N318 1.347 . S
C315 H320 0.931 . S
C316 N317 1.372 1_655 S
C316 C319 1.350 . S
C316 H321 0.930 . S
N317 Co312 2.061 . S
N317 C315 1.314 1_455 S
N317 C316 1.372 1_455 S
N318 C315 1.347 . S
N318 C319 1.373 . S
C319 C316 1.350 . S
C319 N318 1.373 . S
C319 H340 0.931 . S
H320 C315 0.931 . S
H321 C316 0.930 . S
C322 O329 1.259 1_554 S
C322 O330 1.258 . S
N323 Co314 2.057 . S
N323 C324 1.316 . S
N323 C325 1.375 1_545 S
C324 N323 1.316 . S
C324 N326 1.347 1_545 S
C324 H335 0.931 . S
C325 N323 1.375 1_565 S
C325 C327 1.350 . S
C325 H334 0.930 . S
N326 C324 1.347 1_565 S
N326 C327 1.373 . S
C327 C325 1.350 . S
C327 N326 1.373 . S
C327 H341 0.931 . S
C328 O331 1.256 . S
C328 O332 1.255 . S
O329 Co312 2.021 1_565 S
O329 C322 1.259 1_556 S
O330 Co314 2.117 1_565 S
O330 C322 1.258 . S
O331 Co314 2.020 1_655 S
O331 C328 1.256 . S
O332 Co312 2.062 1_654 S
O332 C328 1.255 . S
O333 C313 1.259 . S
O333 Co314 2.021 . S
H334 C325 0.930 . S
H335 C324 0.931 . S
O336 Co312 2.117 1_554 S
O336 C313 1.258 . S
O337 Co312 2.020 . S
O337 C339 1.256 1_556 S
O338 Co314 2.062 . S
O338 C339 1.255 . S
C339 O337 1.256 1_554 S
C339 O338 1.255 . S
H340 C319 0.931 . S
H341 C327 0.931 . S
Co342 N347 2.057 . S
Co342 O359 2.021 . S
Co342 O362 2.062 . S
Co342 O366 2.117 . S
Co342 O367 2.020 . S
C343 O363 1.259 . S
C343 O366 1.258 . S
Co344 N353 2.057 . S
Co344 O360 2.117 . S
Co344 O361 2.020 . S
Co344 O363 2.021 . S
Co344 O368 2.062 . S
C345 N347 1.316 . S
C345 N348 1.347 . S
C345 H350 0.931 . S
C346 N347 1.375 . S
C346 C349 1.350 . S
C346 H351 0.930 . S
N347 Co342 2.057 . S
N347 C345 1.316 . S
N347 C346 1.375 . S
N348 C345 1.347 . S
N348 C349 1.373 . S
C349 C346 1.350 . S
C349 N348 1.373 . S
C349 H370 0.931 . S
H350 C345 0.931 . S
H351 C346 0.930 . S
C352 O359 1.259 . S
C352 O360 1.258 . S
N353 Co344 2.057 . S
N353 C354 1.316 . S
N353 C355 1.375 . S
C354 N353 1.316 . S
C354 N356 1.347 . S
C354 H365 0.931 . S
C355 N353 1.375 . S
C355 C357 1.350 . S
C355 H364 0.930 . S
N356 C354 1.347 . S
N356 C357 1.373 . S
C357 C355 1.350 . S
C357 N356 1.373 . S
C357 H371 0.931 . S
C358 O361 1.256 . S
C358 O362 1.255 . S
O359 Co342 2.021 . S
O359 C352 1.259 . S
O360 Co344 2.117 . S
O360 C352 1.258 . S
O361 Co344 2.020 . S
O361 C358 1.256 . S
O362 Co342 2.062 . S
O362 C358 1.255 . S
O363 C343 1.259 . S
O363 Co344 2.021 . S
H364 C355 0.930 . S
H365 C354 0.931 . S
O366 Co342 2.117 . S
O366 C343 1.258 . S
O367 Co342 2.020 . S
O367 C369 1.256 . S
O368 Co344 2.062 . S
O368 C369 1.255 . S
C369 O367 1.256 . S
C369 O368 1.255 . S
H370 C349 0.931 . S
H371 C357 0.931 . S
Co372 N377 2.057 . S
Co372 O389 2.021 1_545 S
Co372 O392 2.062 . S
Co372 O396 2.117 . S
Co372 O397 2.020 . S
C373 O393 1.259 . S
C373 O396 1.258 . S
Co374 N383 2.057 . S
Co374 O390 2.117 . S
Co374 O391 2.020 . S
Co374 O393 2.021 . S
Co374 O398 2.062 . S
C375 N377 1.316 . S
C375 N378 1.347 . S
C375 H380 0.931 1_545 S
C376 N377 1.375 . S
C376 C379 1.350 . S
C376 H381 0.930 . S
N377 Co372 2.057 . S
N377 C375 1.316 . S
N377 C376 1.375 . S
N378 C375 1.347 . S
N378 C379 1.373 . S
C379 C376 1.350 . S
C379 N378 1.373 . S
C379 H400 0.931 . S
H380 C375 0.931 1_565 S
H381 C376 0.930 . S
C382 O389 1.259 . S
C382 O390 1.258 1_565 S
N383 Co374 2.057 . S
N383 C384 1.316 . S
N383 C385 1.375 . S
C384 N383 1.316 . S
C384 N386 1.347 . S
C384 H395 0.931 . S
C385 N383 1.375 . S
C385 C387 1.350 . S
C385 H394 0.930 . S
N386 C384 1.347 . S
N386 C387 1.373 . S
C387 C385 1.350 . S
C387 N386 1.373 . S
C387 H401 0.931 . S
C388 O391 1.256 . S
C388 O392 1.255 . S
O389 Co372 2.021 1_565 S
O389 C382 1.259 . S
O390 Co374 2.117 . S
O390 C382 1.258 1_545 S
O391 Co374 2.020 . S
O391 C388 1.256 . S
O392 Co372 2.062 . S
O392 C388 1.255 . S
O393 C373 1.259 . S
O393 Co374 2.021 . S
H394 C385 0.930 . S
H395 C384 0.931 . S
O396 Co372 2.117 . S
O396 C373 1.258 . S
O397 Co372 2.020 . S
O397 C399 1.256 . S
O398 Co374 2.062 . S
O398 C399 1.255 . S
C399 O397 1.256 . S
C399 O398 1.255 . S
H400 C379 0.931 . S
H401 C387 0.931 . S
Co402 N407 2.057 . S
Co402 O419 2.021 . S
Co402 O422 2.062 . S
Co402 O426 2.117 . S
Co402 O427 2.020 . S
C403 O423 1.259 . S
C403 O426 1.258 . S
Co404 N413 2.057 . S
Co404 O420 2.117 . S
Co404 O421 2.020 . S
Co404 O423 2.021 . S
Co404 O428 2.062 . S
C405 N407 1.316 . S
C405 N408 1.347 . S
C405 H410 0.931 . S
C406 N407 1.375 . S
C406 C409 1.350 . S
C406 H411 0.930 . S
N407 Co402 2.057 . S
N407 C405 1.316 . S
N407 C406 1.375 . S
N408 C405 1.347 . S
N408 C409 1.373 . S
C409 C406 1.350 . S
C409 N408 1.373 . S
C409 H430 0.931 . S
H410 C405 0.931 . S
H411 C406 0.930 . S
C412 O419 1.259 . S
C412 O420 1.258 . S
N413 Co404 2.057 . S
N413 C414 1.316 . S
N413 C415 1.375 . S
C414 N413 1.316 . S
C414 N416 1.347 . S
C414 H425 0.931 . S
C415 N413 1.375 . S
C415 C417 1.350 . S
C415 H424 0.930 . S
N416 C414 1.347 . S
N416 C417 1.373 . S
C417 C415 1.350 . S
C417 N416 1.373 . S
C417 H431 0.931 . S
C418 O421 1.256 . S
C418 O422 1.255 . S
O419 Co402 2.021 . S
O419 C412 1.259 . S
O420 Co404 2.117 . S
O420 C412 1.258 . S
O421 Co404 2.020 . S
O421 C418 1.256 . S
O422 Co402 2.062 . S
O422 C418 1.255 . S
O423 C403 1.259 . S
O423 Co404 2.021 . S
H424 C415 0.930 . S
H425 C414 0.931 . S
O426 Co402 2.117 . S
O426 C403 1.258 . S
O427 Co402 2.020 . S
O427 C429 1.256 . S
O428 Co404 2.062 . S
O428 C429 1.255 . S
C429 O427 1.256 . S
C429 O428 1.255 . S
H430 C409 0.931 . S
H431 C417 0.931 . S
Co432 N437 2.057 1_445 S
Co432 O449 2.021 . S
Co432 O452 2.062 . S
Co432 O456 2.117 1_455 S
Co432 O457 2.020 1_455 S
C433 O453 1.259 1_655 S
C433 O456 1.258 . S
Co434 N443 2.057 . S
Co434 O450 2.117 . S
Co434 O451 2.020 . S
Co434 O453 2.021 . S
Co434 O458 2.062 1_455 S
C435 N437 1.316 1_455 S
C435 N438 1.347 1_455 S
C435 H440 0.931 . S
C436 N437 1.375 . S
C436 C439 1.350 . S
C436 H441 0.930 . S
N437 Co432 2.057 1_665 S
N437 C435 1.316 1_655 S
N437 C436 1.375 . S
N438 C435 1.347 1_655 S
N438 C439 1.373 . S
C439 C436 1.350 . S
C439 N438 1.373 . S
C439 H460 0.931 . S
H440 C435 0.931 . S
H441 C436 0.930 . S
C442 O449 1.259 . S
C442 O450 1.258 . S
N443 Co434 2.057 . S
N443 C444 1.316 . S
N443 C445 1.375 . S
C444 N443 1.316 . S
C444 N446 1.347 . S
C444 H455 0.931 . S
C445 N443 1.375 . S
C445 C447 1.350 . S
C445 H454 0.930 . S
N446 C444 1.347 . S
N446 C447 1.373 . S
C447 C445 1.350 . S
C447 N446 1.373 . S
C447 H461 0.931 . S
C448 O451 1.256 . S
C448 O452 1.255 . S
O449 Co432 2.021 . S
O449 C442 1.259 . S
O450 Co434 2.117 . S
O450 C442 1.258 . S
O451 Co434 2.020 . S
O451 C448 1.256 . S
O452 Co432 2.062 . S
O452 C448 1.255 . S
O453 C433 1.259 1_455 S
O453 Co434 2.021 . S
H454 C445 0.930 . S
H455 C444 0.931 . S
O456 Co432 2.117 1_655 S
O456 C433 1.258 . S
O457 Co432 2.020 1_655 S
O457 C459 1.256 . S
O458 Co434 2.062 1_655 S
O458 C459 1.255 . S
C459 O457 1.256 . S
C459 O458 1.255 . S
H460 C439 0.931 . S
H461 C447 0.931 . S
Co462 N467 2.057 . S
Co462 O479 2.021 . S
Co462 O482 2.062 . S
Co462 O486 2.117 . S
Co462 O487 2.020 . S
C463 O483 1.259 . S
C463 O486 1.258 . S
Co464 N473 2.057 . S
Co464 O480 2.117 . S
Co464 O481 2.020 . S
Co464 O483 2.021 . S
Co464 O488 2.062 . S
C465 N467 1.316 . S
C465 N468 1.347 . S
C465 H470 0.931 . S
C466 N467 1.375 . S
C466 C469 1.350 . S
C466 H471 0.930 . S
N467 Co462 2.057 . S
N467 C465 1.316 . S
N467 C466 1.375 . S
N468 C465 1.347 . S
N468 C469 1.373 . S
C469 C466 1.350 . S
C469 N468 1.373 . S
C469 H490 0.931 . S
H470 C465 0.931 . S
H471 C466 0.930 . S
C472 O479 1.259 . S
C472 O480 1.258 . S
N473 Co464 2.057 . S
N473 C474 1.316 . S
N473 C475 1.375 . S
C474 N473 1.316 . S
C474 N476 1.347 . S
C474 H485 0.931 . S
C475 N473 1.375 . S
C475 C477 1.350 . S
C475 H484 0.930 . S
N476 C474 1.347 . S
N476 C477 1.373 . S
C477 C475 1.350 . S
C477 N476 1.373 . S
C477 H491 0.931 . S
C478 O481 1.256 . S
C478 O482 1.255 . S
O479 Co462 2.021 . S
O479 C472 1.259 . S
O480 Co464 2.117 . S
O480 C472 1.258 . S
O481 Co464 2.020 . S
O481 C478 1.256 . S
O482 Co462 2.062 . S
O482 C478 1.255 . S
O483 C463 1.259 . S
O483 Co464 2.021 . S
H484 C475 0.930 . S
H485 C474 0.931 . S
O486 Co462 2.117 . S
O486 C463 1.258 . S
O487 Co462 2.020 . S
O487 C489 1.256 . S
O488 Co464 2.062 . S
O488 C489 1.255 . S
C489 O487 1.256 . S
C489 O488 1.255 . S
H490 C469 0.931 . S
H491 C477 0.931 . S
Co492 N497 2.057 1_554 S
Co492 O509 2.021 . S
Co492 O512 2.062 1_554 S
Co492 O516 2.117 . S
Co492 O517 2.020 1_545 S
C493 O513 1.259 . S
C493 O516 1.258 . S
Co494 N503 2.057 . S
Co494 O510 2.117 . S
Co494 O511 2.020 . S
Co494 O513 2.021 . S
Co494 O518 2.062 1_545 S
C495 N497 1.316 . S
C495 N498 1.347 . S
C495 H500 0.931 . S
C496 N497 1.375 1_565 S
C496 C499 1.350 . S
C496 H501 0.930 . S
N497 Co492 2.057 1_556 S
N497 C495 1.316 . S
N497 C496 1.375 1_545 S
N498 C495 1.347 . S
N498 C499 1.373 1_545 S
C499 C496 1.350 . S
C499 N498 1.373 1_565 S
C499 H520 0.931 . S
H500 C495 0.931 . S
H501 C496 0.930 . S
C502 O509 1.259 . S
C502 O510 1.258 . S
N503 Co494 2.057 . S
N503 C504 1.316 . S
N503 C505 1.375 . S
C504 N503 1.316 . S
C504 N506 1.347 . S
C504 H515 0.931 . S
C505 N503 1.375 . S
C505 C507 1.350 . S
C505 H514 0.930 . S
N506 C504 1.347 . S
N506 C507 1.373 . S
C507 C505 1.350 . S
C507 N506 1.373 . S
C507 H521 0.931 . S
C508 O511 1.256 . S
C508 O512 1.255 1_554 S
O509 Co492 2.021 . S
O509 C502 1.259 . S
O510 Co494 2.117 . S
O510 C502 1.258 . S
O511 Co494 2.020 . S
O511 C508 1.256 . S
O512 Co492 2.062 1_556 S
O512 C508 1.255 1_556 S
O513 C493 1.259 . S
O513 Co494 2.021 . S
H514 C505 0.930 . S
H515 C504 0.931 . S
O516 Co492 2.117 . S
O516 C493 1.258 . S
O517 Co492 2.020 1_565 S
O517 C519 1.256 . S
O518 Co494 2.062 1_565 S
O518 C519 1.255 . S
C519 O517 1.256 . S
C519 O518 1.255 . S
H520 C499 0.931 . S
H521 C507 0.931 . S
Co522 N527 2.057 . S
Co522 O539 2.021 . S
Co522 O542 2.062 . S
Co522 O546 2.117 . S
Co522 O547 2.020 . S
C523 O543 1.259 . S
C523 O546 1.258 . S
Co524 N533 2.057 . S
Co524 O540 2.117 . S
Co524 O541 2.020 . S
Co524 O543 2.021 . S
Co524 O548 2.062 . S
C525 N527 1.316 . S
C525 N528 1.347 . S
C525 H530 0.931 . S
C526 N527 1.375 . S
C526 C529 1.350 . S
C526 H531 0.930 . S
N527 Co522 2.057 . S
N527 C525 1.316 . S
N527 C526 1.375 . S
N528 C525 1.347 . S
N528 C529 1.373 . S
C529 C526 1.350 . S
C529 N528 1.373 . S
C529 H550 0.931 . S
H530 C525 0.931 . S
H531 C526 0.930 . S
C532 O539 1.259 . S
C532 O540 1.258 . S
N533 Co524 2.057 . S
N533 C534 1.316 . S
N533 C535 1.375 . S
C534 N533 1.316 . S
C534 N536 1.347 . S
C534 H545 0.931 . S
C535 N533 1.375 . S
C535 C537 1.350 . S
C535 H544 0.930 . S
N536 C534 1.347 . S
N536 C537 1.373 . S
C537 C535 1.350 . S
C537 N536 1.373 . S
C537 H551 0.931 . S
C538 O541 1.256 . S
C538 O542 1.255 . S
O539 Co522 2.021 . S
O539 C532 1.259 . S
O540 Co524 2.117 . S
O540 C532 1.258 . S
O541 Co524 2.020 . S
O541 C538 1.256 . S
O542 Co522 2.062 . S
O542 C538 1.255 . S
O543 C523 1.259 . S
O543 Co524 2.021 . S
H544 C535 0.930 . S
H545 C534 0.931 . S
O546 Co522 2.117 . S
O546 C523 1.258 . S
O547 Co522 2.020 . S
O547 C549 1.256 . S
O548 Co524 2.062 . S
O548 C549 1.255 . S
C549 O547 1.256 . S
C549 O548 1.255 . S
H550 C529 0.931 . S
H551 C537 0.931 . S
Co552 N557 2.057 . S
Co552 O569 2.021 1_554 S
Co552 O572 2.062 . S
Co552 O576 2.117 . S
Co552 O577 2.020 . S
C553 O573 1.259 . S
C553 O576 1.258 . S
Co554 N563 2.057 . S
Co554 O570 2.117 . S
Co554 O571 2.020 . S
Co554 O573 2.021 . S
Co554 O578 2.062 . S
C555 N557 1.283 1_556 S
C555 N558 1.339 1_556 S
C555 H560 0.968 . S
C556 N557 1.375 . S
C556 C559 1.350 . S
C556 H561 0.930 . S
N557 Co552 2.057 . S
N557 C555 1.283 1_554 S
N557 C556 1.375 . S
N558 C555 1.339 1_554 S
N558 C559 1.373 . S
C559 C556 1.350 . S
C559 N558 1.373 . S
C559 H580 0.931 . S
H560 C555 0.968 . S
H561 C556 0.930 . S
C562 O569 1.259 . S
C562 O570 1.258 1_556 S
N563 Co554 2.057 . S
N563 C564 1.316 . S
N563 C565 1.375 . S
C564 N563 1.316 . S
C564 N566 1.347 . S
C564 H575 0.931 . S
C565 N563 1.375 . S
C565 C567 1.350 . S
C565 H574 0.930 . S
N566 C564 1.347 . S
N566 C567 1.373 . S
C567 C565 1.350 . S
C567 N566 1.373 . S
C567 H581 0.931 . S
C568 O571 1.256 . S
C568 O572 1.255 . S
O569 Co552 2.021 1_556 S
O569 C562 1.259 . S
O570 Co554 2.117 . S
O570 C562 1.258 1_554 S
O571 Co554 2.020 . S
O571 C568 1.256 . S
O572 Co552 2.062 . S
O572 C568 1.255 . S
O573 C553 1.259 . S
O573 Co554 2.021 . S
H574 C565 0.930 . S
H575 C564 0.931 . S
O576 Co552 2.117 . S
O576 C553 1.258 . S
O577 Co552 2.020 . S
O577 C579 1.256 . S
O578 Co554 2.062 . S
O578 C579 1.255 . S
C579 O577 1.256 . S
C579 O578 1.255 . S
H580 C559 0.931 . S
H581 C567 0.931 . S
Co582 N587 2.057 . S
Co582 O599 2.021 . S
Co582 O602 2.062 . S
Co582 O606 2.117 . S
Co582 O607 2.020 . S
C583 O603 1.259 . S
C583 O606 1.258 . S
Co584 N593 2.057 . S
Co584 O600 2.117 . S
Co584 O601 2.020 . S
Co584 O603 2.021 . S
Co584 O608 2.062 . S
C585 N587 1.316 . S
C585 N588 1.347 . S
C585 H590 0.931 . S
C586 N587 1.375 . S
C586 C589 1.350 . S
C586 H591 0.930 . S
N587 Co582 2.057 . S
N587 C585 1.316 . S
N587 C586 1.375 . S
N588 C585 1.347 . S
N588 C589 1.373 . S
C589 C586 1.350 . S
C589 N588 1.373 . S
C589 H610 0.931 . S
H590 C585 0.931 . S
H591 C586 0.930 . S
C592 O599 1.259 . S
C592 O600 1.258 . S
N593 Co584 2.057 . S
N593 C594 1.316 . S
N593 C595 1.375 . S
C594 N593 1.316 . S
C594 N596 1.347 . S
C594 H605 0.931 . S
C595 N593 1.375 . S
C595 C597 1.350 . S
C595 H604 0.930 . S
N596 C594 1.347 . S
N596 C597 1.373 . S
C597 C595 1.350 . S
C597 N596 1.373 . S
C597 H611 0.931 . S
C598 O601 1.256 . S
C598 O602 1.255 . S
O599 Co582 2.021 . S
O599 C592 1.259 . S
O600 Co584 2.117 . S
O600 C592 1.258 . S
O601 Co584 2.020 . S
O601 C598 1.256 . S
O602 Co582 2.062 . S
O602 C598 1.255 . S
O603 C583 1.259 . S
O603 Co584 2.021 . S
H604 C595 0.930 . S
H605 C594 0.931 . S
O606 Co582 2.117 . S
O606 C583 1.258 . S
O607 Co582 2.020 . S
O607 C609 1.256 . S
O608 Co584 2.062 . S
O608 C609 1.255 . S
C609 O607 1.256 . S
C609 O608 1.255 . S
H610 C589 0.931 . S
H611 C597 0.931 . S
Co612 N617 2.057 . S
Co612 O629 2.021 1_455 S
Co612 O632 2.062 . S
Co612 O636 2.117 . S
Co612 O637 2.020 . S
C613 O633 1.259 . S
C613 O636 1.258 . S
Co614 N623 2.057 . S
Co614 O630 2.117 . S
Co614 O631 2.020 . S
Co614 O633 2.021 . S
Co614 O638 2.062 . S
C615 N617 1.316 1_655 S
C615 N618 1.346 . S
C615 H620 0.931 . S
C616 N617 1.375 . S
C616 C619 1.350 . S
C616 H621 0.930 . S
N617 Co612 2.057 . S
N617 C615 1.316 1_455 S
N617 C616 1.375 . S
N618 C615 1.346 . S
N618 C619 1.379 1_655 S
C619 C616 1.350 . S
C619 N618 1.379 1_455 S
C619 H640 0.931 . S
H620 C615 0.931 . S
H621 C616 0.930 . S
C622 O629 1.259 . S
C622 O630 1.258 1_655 S
N623 Co614 2.057 . S
N623 C624 1.316 . S
N623 C625 1.375 . S
C624 N623 1.316 . S
C624 N626 1.347 . S
C624 H635 0.931 . S
C625 N623 1.375 . S
C625 C627 1.350 . S
C625 H634 0.930 . S
N626 C624 1.347 . S
N626 C627 1.373 . S
C627 C625 1.350 . S
C627 N626 1.373 . S
C627 H641 0.931 . S
C628 O631 1.256 . S
C628 O632 1.255 . S
O629 Co612 2.021 1_655 S
O629 C622 1.259 . S
O630 Co614 2.117 . S
O630 C622 1.258 1_455 S
O631 Co614 2.020 . S
O631 C628 1.256 . S
O632 Co612 2.062 . S
O632 C628 1.255 . S
O633 C613 1.259 . S
O633 Co614 2.021 . S
H634 C625 0.930 . S
H635 C624 0.931 . S
O636 Co612 2.117 . S
O636 C613 1.258 . S
O637 Co612 2.020 . S
O637 C639 1.256 . S
O638 Co614 2.062 . S
O638 C639 1.255 . S
C639 O637 1.256 . S
C639 O638 1.255 . S
H640 C619 0.931 . S
H641 C627 0.931 . S
Co642 N647 2.057 . S
Co642 O659 2.021 . S
Co642 O662 2.062 . S
Co642 O666 2.117 . S
Co642 O667 2.020 . S
C643 O663 1.259 . S
C643 O666 1.258 . S
Co644 N653 2.057 . S
Co644 O660 2.117 . S
Co644 O661 2.020 . S
Co644 O663 2.021 . S
Co644 O668 2.062 . S
C645 N647 1.316 . S
C645 N648 1.347 . S
C645 H650 0.931 . S
C646 N647 1.375 . S
C646 C649 1.350 . S
C646 H651 0.930 . S
N647 Co642 2.057 . S
N647 C645 1.316 . S
N647 C646 1.375 . S
N648 C645 1.347 . S
N648 C649 1.373 . S
C649 C646 1.350 . S
C649 N648 1.373 . S
C649 H670 0.931 . S
H650 C645 0.931 . S
H651 C646 0.930 . S
C652 O659 1.259 . S
C652 O660 1.258 . S
N653 Co644 2.057 . S
N653 C654 1.316 . S
N653 C655 1.375 . S
C654 N653 1.316 . S
C654 N656 1.347 . S
C654 H665 0.931 . S
C655 N653 1.375 . S
C655 C657 1.350 . S
C655 H664 0.930 . S
N656 C654 1.347 . S
N656 C657 1.373 . S
C657 C655 1.350 . S
C657 N656 1.373 . S
C657 H671 0.931 . S
C658 O661 1.256 . S
C658 O662 1.255 . S
O659 Co642 2.021 . S
O659 C652 1.259 . S
O660 Co644 2.117 . S
O660 C652 1.258 . S
O661 Co644 2.020 . S
O661 C658 1.256 . S
O662 Co642 2.062 . S
O662 C658 1.255 . S
O663 C643 1.259 . S
O663 Co644 2.021 . S
H664 C655 0.930 . S
H665 C654 0.931 . S
O666 Co642 2.117 . S
O666 C643 1.258 . S
O667 Co642 2.020 . S
O667 C669 1.256 . S
O668 Co644 2.062 . S
O668 C669 1.255 . S
C669 O667 1.256 . S
C669 O668 1.255 . S
H670 C649 0.931 . S
H671 C657 0.931 . S
Co672 N677 2.057 . S
Co672 O689 2.021 . S
Co672 O692 2.062 . S
Co672 O696 2.117 . S
Co672 O697 2.020 . S
C673 O693 1.259 . S
C673 O696 1.258 . S
Co674 N683 2.057 . S
Co674 O690 2.117 . S
Co674 O691 2.020 . S
Co674 O693 2.021 . S
Co674 O698 2.062 . S
C675 N677 1.316 . S
C675 N678 1.347 . S
C675 H680 0.931 . S
C676 N677 1.375 . S
C676 C679 1.350 . S
C676 H681 0.930 . S
N677 Co672 2.057 . S
N677 C675 1.316 . S
N677 C676 1.375 . S
N678 C675 1.347 . S
N678 C679 1.373 . S
C679 C676 1.350 . S
C679 N678 1.373 . S
C679 H700 0.931 . S
H680 C675 0.931 . S
H681 C676 0.930 . S
C682 O689 1.259 . S
C682 O690 1.258 . S
N683 Co674 2.057 . S
N683 C684 1.316 . S
N683 C685 1.375 . S
C684 N683 1.316 . S
C684 N686 1.347 . S
C684 H695 0.931 . S
C685 N683 1.375 . S
C685 C687 1.350 . S
C685 H694 0.930 . S
N686 C684 1.347 . S
N686 C687 1.373 . S
C687 C685 1.350 . S
C687 N686 1.373 . S
C687 H701 0.931 . S
C688 O691 1.256 . S
C688 O692 1.255 . S
O689 Co672 2.021 . S
O689 C682 1.259 . S
O690 Co674 2.117 . S
O690 C682 1.258 . S
O691 Co674 2.020 . S
O691 C688 1.256 . S
O692 Co672 2.062 . S
O692 C688 1.255 . S
O693 C673 1.259 . S
O693 Co674 2.021 . S
H694 C685 0.930 . S
H695 C684 0.931 . S
O696 Co672 2.117 . S
O696 C673 1.258 . S
O697 Co672 2.020 . S
O697 C699 1.256 . S
O698 Co674 2.062 . S
O698 C699 1.255 . S
C699 O697 1.256 . S
C699 O698 1.255 . S
H700 C679 0.931 . S
H701 C687 0.931 . S
Co702 N707 2.057 . S
Co702 O719 2.021 . S
Co702 O722 2.062 . S
Co702 O726 2.117 . S
Co702 O727 2.020 . S
C703 O723 1.259 . S
C703 O726 1.258 . S
Co704 N713 2.057 . S
Co704 O720 2.117 . S
Co704 O721 2.020 . S
Co704 O723 2.021 . S
Co704 O728 2.062 . S
C705 N707 1.316 . S
C705 N708 1.347 . S
C705 H710 0.931 . S
C706 N707 1.375 . S
C706 C709 1.350 . S
C706 H711 0.930 . S
N707 Co702 2.057 . S
N707 C705 1.316 . S
N707 C706 1.375 . S
N708 C705 1.347 . S
N708 C709 1.373 . S
C709 C706 1.350 . S
C709 N708 1.373 . S
C709 H730 0.931 . S
H710 C705 0.931 . S
H711 C706 0.930 . S
C712 O719 1.259 . S
C712 O720 1.258 . S
N713 Co704 2.057 . S
N713 C714 1.316 . S
N713 C715 1.375 . S
C714 N713 1.316 . S
C714 N716 1.347 . S
C714 H725 0.931 . S
C715 N713 1.375 . S
C715 C717 1.350 . S
C715 H724 0.930 . S
N716 C714 1.347 . S
N716 C717 1.373 . S
C717 C715 1.350 . S
C717 N716 1.373 . S
C717 H731 0.931 . S
C718 O721 1.256 . S
C718 O722 1.255 . S
O719 Co702 2.021 . S
O719 C712 1.259 . S
O720 Co704 2.117 . S
O720 C712 1.258 . S
O721 Co704 2.020 . S
O721 C718 1.256 . S
O722 Co702 2.062 . S
O722 C718 1.255 . S
O723 C703 1.259 . S
O723 Co704 2.021 . S
H724 C715 0.930 . S
H725 C714 0.931 . S
O726 Co702 2.117 . S
O726 C703 1.258 . S
O727 Co702 2.020 . S
O727 C729 1.256 . S
O728 Co704 2.062 . S
O728 C729 1.255 . S
C729 O727 1.256 . S
C729 O728 1.255 . S
H730 C709 0.931 . S
H731 C717 0.931 . S
Co732 N737 2.057 . S
Co732 O749 2.021 . S
Co732 O752 2.062 . S
Co732 O756 2.117 . S
Co732 O757 2.020 . S
C733 O753 1.259 . S
C733 O756 1.258 . S
Co734 N743 2.057 . S
Co734 O750 2.117 . S
Co734 O751 2.020 . S
Co734 O753 2.021 . S
Co734 O758 2.062 . S
C735 N737 1.316 . S
C735 N738 1.347 . S
C735 H740 0.931 . S
C736 N737 1.375 . S
C736 C739 1.350 . S
C736 H741 0.930 . S
N737 Co732 2.057 . S
N737 C735 1.316 . S
N737 C736 1.375 . S
N738 C735 1.347 . S
N738 C739 1.373 . S
C739 C736 1.350 . S
C739 N738 1.373 . S
C739 H760 0.931 . S
H740 C735 0.931 . S
H741 C736 0.930 . S
C742 O749 1.259 . S
C742 O750 1.258 . S
N743 Co734 2.057 . S
N743 C744 1.316 . S
N743 C745 1.375 . S
C744 N743 1.316 . S
C744 N746 1.347 . S
C744 H755 0.931 . S
C745 N743 1.375 . S
C745 C747 1.350 . S
C745 H754 0.930 . S
N746 C744 1.347 . S
N746 C747 1.373 . S
C747 C745 1.350 . S
C747 N746 1.373 . S
C747 H761 0.931 . S
C748 O751 1.256 . S
C748 O752 1.255 . S
O749 Co732 2.021 . S
O749 C742 1.259 . S
O750 Co734 2.117 . S
O750 C742 1.258 . S
O751 Co734 2.020 . S
O751 C748 1.256 . S
O752 Co732 2.062 . S
O752 C748 1.255 . S
O753 C733 1.259 . S
O753 Co734 2.021 . S
H754 C745 0.930 . S
H755 C744 0.931 . S
O756 Co732 2.117 . S
O756 C733 1.258 . S
O757 Co732 2.020 . S
O757 C759 1.256 . S
O758 Co734 2.062 . S
O758 C759 1.255 . S
C759 O757 1.256 . S
C759 O758 1.255 . S
H760 C739 0.931 . S
H761 C747 0.931 . S
Co762 N767 2.057 1_455 S
Co762 O779 2.021 . S
Co762 O782 2.062 1_455 S
Co762 O786 2.117 . S
Co762 O787 2.020 1_554 S
C763 O783 1.259 . S
C763 O786 1.258 . S
Co764 N773 2.057 . S
Co764 O780 2.117 . S
Co764 O781 2.020 . S
Co764 O783 2.021 . S
Co764 O788 2.062 1_554 S
C765 N767 1.316 . S
C765 N768 1.356 . S
C765 H770 0.931 . S
C766 N767 1.375 1_556 S
C766 C769 1.350 . S
C766 H771 0.930 . S
N767 Co762 2.057 1_655 S
N767 C765 1.316 . S
N767 C766 1.375 1_554 S
N768 C765 1.356 . S
N768 C769 1.360 1_554 S
C769 C766 1.350 . S
C769 N768 1.360 1_556 S
C769 H790 0.931 . S
H770 C765 0.931 . S
H771 C766 0.930 . S
C772 O779 1.259 . S
C772 O780 1.258 . S
N773 Co764 2.057 . S
N773 C774 1.316 . S
N773 C775 1.375 . S
C774 N773 1.316 . S
C774 N776 1.347 . S
C774 H785 0.931 . S
C775 N773 1.375 . S
C775 C777 1.350 . S
C775 H784 0.930 . S
N776 C774 1.347 . S
N776 C777 1.373 . S
C777 C775 1.350 . S
C777 N776 1.373 . S
C777 H791 0.931 . S
C778 O781 1.256 . S
C778 O782 1.255 1_455 S
O779 Co762 2.021 . S
O779 C772 1.259 . S
O780 Co764 2.117 . S
O780 C772 1.258 . S
O781 Co764 2.020 . S
O781 C778 1.256 . S
O782 Co762 2.062 1_655 S
O782 C778 1.255 1_655 S
O783 C763 1.259 . S
O783 Co764 2.021 . S
H784 C775 0.930 . S
H785 C774 0.931 . S
O786 Co762 2.117 . S
O786 C763 1.258 . S
O787 Co762 2.020 1_556 S
O787 C789 1.256 . S
O788 Co764 2.062 1_556 S
O788 C789 1.255 . S
C789 O787 1.256 . S
C789 O788 1.255 . S
H790 C769 0.931 . S
H791 C777 0.931 . S
H792 C800 0.929 . S
H793 C802 0.930 . S
H794 C804 0.930 . S
H795 C807 0.929 . S
H796 C810 0.930 . S
H797 C812 0.960 . S
H798 C812 0.960 . S
H799 C812 0.960 . S
C800 H792 0.929 . S
C800 C801 1.377 . S
C800 C802 1.384 . S
C801 C800 1.377 . S
C801 C807 1.390 . S
C802 H793 0.930 . S
C802 C800 1.384 . S
C802 C803 1.372 . S
C803 C802 1.372 . S
C803 C804 1.400 . S
C803 C808 1.490 . S
C804 H794 0.930 . S
C804 C803 1.400 . S
C804 C807 1.386 . S
H805 C821 0.930 . S
H806 C822 0.931 . S
C807 H795 0.929 . S
C807 C801 1.390 . S
C807 C804 1.386 . S
C808 C803 1.490 . S
C808 C810 1.395 1_455 S
C808 C811 1.403 . S
H809 C815 0.930 . S
C810 H796 0.930 . S
C810 C808 1.395 1_655 S
C810 C813 1.403 . S
C811 C808 1.403 . S
C811 C812 1.524 . S
C811 C815 1.400 . S
C812 H797 0.960 . S
C812 H798 0.960 . S
C812 H799 0.960 . S
C812 C811 1.524 . S
C813 C810 1.403 . S
C813 C814 1.392 1_655 S
C813 C817 1.495 . S
C814 C813 1.392 1_455 S
C814 C815 1.385 . S
C814 C816 1.478 . S
C815 H809 0.930 . S
C815 C811 1.400 . S
C815 C814 1.385 . S
C816 C814 1.478 . S
C816 C818 1.381 . S
C816 C822 1.383 . S
C817 C813 1.495 . S
C817 H823 0.959 . S
C817 H824 0.961 . S
C817 H825 0.960 . S
C818 C816 1.381 . S
C818 C819 1.394 . S
C818 H826 0.930 . S
C819 C818 1.394 . S
C819 C820 1.383 . S
C819 H827 0.929 . S
C820 C819 1.383 . S
C820 C821 1.377 . S
C821 H805 0.930 . S
C821 C820 1.377 . S
C821 C822 1.379 . S
C822 H806 0.931 . S
C822 C816 1.383 . S
C822 C821 1.379 . S
H823 C817 0.959 . S
H824 C817 0.961 . S
H825 C817 0.960 . S
H826 C818 0.930 . S
H827 C819 0.929 . S
H828 C836 0.929 . S
H829 C838 0.930 . S
H830 C840 0.930 . S
H831 C843 0.929 . S
H832 C846 0.930 . S
H833 C848 0.960 . S
H834 C848 0.960 . S
H835 C848 0.960 . S
C836 H828 0.929 . S
C836 C837 1.377 . S
C836 C838 1.384 . S
C837 C836 1.377 . S
C837 C843 1.390 . S
C838 H829 0.930 . S
C838 C836 1.384 . S
C838 C839 1.372 . S
C839 C838 1.372 . S
C839 C840 1.400 . S
C839 C844 1.490 . S
C840 H830 0.930 . S
C840 C839 1.400 . S
C840 C843 1.386 . S
H841 C857 0.930 . S
H842 C858 0.931 . S
C843 H831 0.929 . S
C843 C837 1.390 . S
C843 C840 1.386 . S
C844 C839 1.490 . S
C844 C846 1.395 . S
C844 C847 1.403 . S
H845 C851 0.930 . S
C846 H832 0.930 . S
C846 C844 1.395 . S
C846 C849 1.403 . S
C847 C844 1.403 . S
C847 C848 1.524 . S
C847 C851 1.400 . S
C848 H833 0.960 . S
C848 H834 0.960 . S
C848 H835 0.960 . S
C848 C847 1.524 . S
C849 C846 1.403 . S
C849 C850 1.392 . S
C849 C853 1.495 . S
C850 C849 1.392 . S
C850 C851 1.385 . S
C850 C852 1.478 . S
C851 H845 0.930 . S
C851 C847 1.400 . S
C851 C850 1.385 . S
C852 C850 1.478 . S
C852 C854 1.381 . S
C852 C858 1.383 . S
C853 C849 1.495 . S
C853 H859 0.959 . S
C853 H860 0.961 . S
C853 H861 0.960 . S
C854 C852 1.381 . S
C854 C855 1.394 . S
C854 H862 0.930 . S
C855 C854 1.394 . S
C855 C856 1.383 . S
C855 H863 0.929 . S
C856 C855 1.383 . S
C856 C857 1.377 . S
C857 H841 0.930 . S
C857 C856 1.377 . S
C857 C858 1.379 . S
C858 H842 0.931 . S
C858 C852 1.383 . S
C858 C857 1.379 . S
H859 C853 0.959 . S
H860 C853 0.961 . S
H861 C853 0.960 . S
H862 C854 0.930 . S
H863 C855 0.929 . S
H864 C872 0.929 . S
H865 C874 0.930 . S
H866 C876 0.930 . S
H867 C879 0.929 . S
H868 C882 0.930 . S
H869 C884 0.960 . S
H870 C884 0.960 . S
H871 C884 0.960 . S
C872 H864 0.929 . S
C872 C873 1.377 . S
C872 C874 1.384 . S
C873 C872 1.377 . S
C873 C879 1.390 . S
C874 H865 0.930 . S
C874 C872 1.384 . S
C874 C875 1.372 . S
C875 C874 1.372 . S
C875 C876 1.400 . S
C875 C880 1.490 . S
C876 H866 0.930 . S
C876 C875 1.400 . S
C876 C879 1.386 . S
H877 C893 0.930 . S
H878 C894 0.931 . S
C879 H867 0.929 . S
C879 C873 1.390 . S
C879 C876 1.386 . S
C880 C875 1.490 . S
C880 C882 1.395 . S
C880 C883 1.403 . S
H881 C887 0.930 . S
C882 H868 0.930 . S
C882 C880 1.395 . S
C882 C885 1.403 . S
C883 C880 1.403 . S
C883 C884 1.524 . S
C883 C887 1.400 . S
C884 H869 0.960 . S
C884 H870 0.960 . S
C884 H871 0.960 . S
C884 C883 1.524 . S
C885 C882 1.403 . S
C885 C886 1.392 . S
C885 C889 1.495 . S
C886 C885 1.392 . S
C886 C887 1.385 . S
C886 C888 1.478 . S
C887 H881 0.930 . S
C887 C883 1.400 . S
C887 C886 1.385 . S
C888 C886 1.478 . S
C888 C890 1.381 . S
C888 C894 1.383 . S
C889 C885 1.495 . S
C889 H895 0.959 . S
C889 H896 0.961 . S
C889 H897 0.960 . S
C890 C888 1.381 . S
C890 C891 1.394 . S
C890 H898 0.930 . S
C891 C890 1.394 . S
C891 C892 1.383 . S
C891 H899 0.929 . S
C892 C891 1.383 . S
C892 C893 1.377 . S
C893 H877 0.930 . S
C893 C892 1.377 . S
C893 C894 1.379 . S
C894 H878 0.931 . S
C894 C888 1.383 . S
C894 C893 1.379 . S
H895 C889 0.959 . S
H896 C889 0.961 . S
H897 C889 0.960 . S
H898 C890 0.930 . S
H899 C891 0.929 . S
H900 C908 0.929 . S
H901 C910 0.930 . S
H902 C912 0.930 . S
H903 C915 0.929 . S
H904 C918 0.930 . S
H905 C920 0.960 . S
H906 C920 0.960 . S
H907 C920 0.960 . S
C908 H900 0.929 . S
C908 C909 1.377 . S
C908 C910 1.384 . S
C909 C908 1.377 . S
C909 C915 1.390 . S
C910 H901 0.930 . S
C910 C908 1.384 . S
C910 C911 1.372 . S
C911 C910 1.372 . S
C911 C912 1.400 . S
C911 C916 1.490 . S
C912 H902 0.930 . S
C912 C911 1.400 . S
C912 C915 1.386 . S
H913 C929 0.930 . S
H914 C930 0.931 . S
C915 H903 0.929 . S
C915 C909 1.390 . S
C915 C912 1.386 . S
C916 C911 1.490 . S
C916 C918 1.395 . S
C916 C919 1.403 . S
H917 C923 0.930 . S
C918 H904 0.930 . S
C918 C916 1.395 . S
C918 C921 1.403 . S
C919 C916 1.403 . S
C919 C920 1.524 . S
C919 C923 1.400 . S
C920 H905 0.960 . S
C920 H906 0.960 . S
C920 H907 0.960 . S
C920 C919 1.524 . S
C921 C918 1.403 . S
C921 C922 1.392 . S
C921 C925 1.495 . S
C922 C921 1.392 . S
C922 C923 1.385 . S
C922 C924 1.478 . S
C923 H917 0.930 . S
C923 C919 1.400 . S
C923 C922 1.385 . S
C924 C922 1.478 . S
C924 C926 1.381 . S
C924 C930 1.383 . S
C925 C921 1.495 . S
C925 H931 0.959 . S
C925 H932 0.961 . S
C925 H933 0.960 . S
C926 C924 1.381 . S
C926 C927 1.394 . S
C926 H934 0.930 . S
C927 C926 1.394 . S
C927 C928 1.383 . S
C927 H935 0.929 . S
C928 C927 1.383 . S
C928 C929 1.377 . S
C929 H913 0.930 . S
C929 C928 1.377 . S
C929 C930 1.379 . S
C930 H914 0.931 . S
C930 C924 1.383 . S
C930 C929 1.379 . S
H931 C925 0.959 . S
H932 C925 0.961 . S
H933 C925 0.960 . S
H934 C926 0.930 . S
H935 C927 0.929 . S
H936 C944 0.929 . S
H937 C946 0.930 1_655 S
H938 C948 0.930 . S
H939 C951 0.929 . S
H940 C954 0.930 1_655 S
H941 C956 0.960 . S
H942 C956 0.960 . S
H943 C956 0.960 . S
C944 H936 0.929 . S
C944 C945 1.377 . S
C944 C946 1.384 . S
C945 C944 1.377 . S
C945 C951 1.390 . S
C946 H937 0.930 1_455 S
C946 C944 1.384 . S
C946 C947 1.372 . S
C947 C946 1.372 . S
C947 C948 1.400 . S
C947 C952 1.490 . S
C948 H938 0.930 . S
C948 C947 1.400 . S
C948 C951 1.386 . S
H949 C965 0.930 . S
H950 C966 0.931 . S
C951 H939 0.929 . S
C951 C945 1.390 . S
C951 C948 1.386 . S
C952 C947 1.490 . S
C952 C954 1.395 . S
C952 C955 1.403 . S
H953 C959 0.930 . S
C954 H940 0.930 1_455 S
C954 C952 1.395 . S
C954 C957 1.403 1_455 S
C955 C952 1.403 . S
C955 C956 1.524 . S
C955 C959 1.400 . S
C956 H941 0.960 . S
C956 H942 0.960 . S
C956 H943 0.960 . S
C956 C955 1.524 . S
C957 C954 1.403 1_655 S
C957 C958 1.392 1_655 S
C957 C961 1.495 . S
C958 C957 1.392 1_455 S
C958 C959 1.385 . S
C958 C960 1.478 . S
C959 H953 0.930 . S
C959 C955 1.400 . S
C959 C958 1.385 . S
C960 C958 1.478 . S
C960 C962 1.381 1_455 S
C960 C966 1.383 . S
C961 C957 1.495 . S
C961 H967 0.959 . S
C961 H968 0.961 . S
C961 H969 0.960 . S
C962 C960 1.381 1_655 S
C962 C963 1.394 . S
C962 H970 0.930 . S
C963 C962 1.394 . S
C963 C964 1.396 . S
C963 H971 0.929 . S
C964 C963 1.396 . S
C964 C965 1.362 1_655 S
C965 H949 0.930 . S
C965 C964 1.362 1_455 S
C965 C966 1.379 . S
C966 H950 0.931 . S
C966 C960 1.383 . S
C966 C965 1.379 . S
H967 C961 0.959 . S
H968 C961 0.961 . S
H969 C961 0.960 . S
H970 C962 0.930 . S
H971 C963 0.929 . S
H972 C980 0.929 . S
H973 C982 0.930 . S
H974 C984 0.930 . S
H975 C987 0.929 . S
H976 C990 0.930 . S
H977 C992 0.960 . S
H978 C992 0.960 . S
H979 C992 0.960 . S
C980 H972 0.929 . S
C980 C981 1.377 . S
C980 C982 1.384 . S
C981 C980 1.377 . S
C981 C987 1.390 . S
C982 H973 0.930 . S
C982 C980 1.384 . S
C982 C983 1.372 . S
C983 C982 1.372 . S
C983 C984 1.400 . S
C983 C988 1.490 . S
C984 H974 0.930 . S
C984 C983 1.400 . S
C984 C987 1.386 . S
H985 C1001 0.930 . S
H986 C1002 0.931 . S
C987 H975 0.929 . S
C987 C981 1.390 . S
C987 C984 1.386 . S
C988 C983 1.490 . S
C988 C990 1.395 . S
C988 C991 1.403 . S
H989 C995 0.930 . S
C990 H976 0.930 . S
C990 C988 1.395 . S
C990 C993 1.403 . S
C991 C988 1.403 . S
C991 C992 1.524 . S
C991 C995 1.400 . S
C992 H977 0.960 . S
C992 H978 0.960 . S
C992 H979 0.960 . S
C992 C991 1.524 . S
C993 C990 1.403 . S
C993 C994 1.392 . S
C993 C997 1.495 . S
C994 C993 1.392 . S
C994 C995 1.385 . S
C994 C996 1.478 . S
C995 H989 0.930 . S
C995 C991 1.400 . S
C995 C994 1.385 . S
C996 C994 1.478 . S
C996 C998 1.381 . S
C996 C1002 1.383 . S
C997 C993 1.495 . S
C997 H1003 0.959 . S
C997 H1004 0.961 . S
C997 H1005 0.960 . S
C998 C996 1.381 . S
C998 C999 1.394 . S
C998 H1006 0.930 . S
C999 C998 1.394 . S
C999 C1000 1.383 . S
C999 H1007 0.929 . S
C1000 C999 1.383 . S
C1000 C1001 1.377 . S
C1001 H985 0.930 . S
C1001 C1000 1.377 . S
C1001 C1002 1.379 . S
C1002 H986 0.931 . S
C1002 C996 1.383 . S
C1002 C1001 1.379 . S
H1003 C997 0.959 . S
H1004 C997 0.961 . S
H1005 C997 0.960 . S
H1006 C998 0.930 . S
H1007 C999 0.929 . S
H1008 C1016 0.929 . S
H1009 C1018 0.930 . S
H1010 C1020 0.930 . S
H1011 C1023 0.929 . S
H1012 C1026 0.930 . S
H1013 C1028 0.960 . S
H1014 C1028 0.960 . S
H1015 C1028 0.960 . S
C1016 H1008 0.929 . S
C1016 C1017 1.377 . S
C1016 C1018 1.384 . S
C1017 C1016 1.377 . S
C1017 C1023 1.390 . S
C1018 H1009 0.930 . S
C1018 C1016 1.384 . S
C1018 C1019 1.372 . S
C1019 C1018 1.372 . S
C1019 C1020 1.400 . S
C1019 C1024 1.490 . S
C1020 H1010 0.930 . S
C1020 C1019 1.400 . S
C1020 C1023 1.386 . S
H1021 C1037 0.930 . S
H1022 C1038 0.931 . S
C1023 H1011 0.929 . S
C1023 C1017 1.390 . S
C1023 C1020 1.386 . S
C1024 C1019 1.490 . S
C1024 C1026 1.395 . S
C1024 C1027 1.403 . S
H1025 C1031 0.930 . S
C1026 H1012 0.930 . S
C1026 C1024 1.395 . S
C1026 C1029 1.403 . S
C1027 C1024 1.403 . S
C1027 C1028 1.524 . S
C1027 C1031 1.400 . S
C1028 H1013 0.960 . S
C1028 H1014 0.960 . S
C1028 H1015 0.960 . S
C1028 C1027 1.524 . S
C1029 C1026 1.403 . S
C1029 C1030 1.392 . S
C1029 C1033 1.495 . S
C1030 C1029 1.392 . S
C1030 C1031 1.385 . S
C1030 C1032 1.478 . S
C1031 H1025 0.930 . S
C1031 C1027 1.400 . S
C1031 C1030 1.385 . S
C1032 C1030 1.478 . S
C1032 C1034 1.344 1_556 S
C1032 C1038 1.383 . S
C1033 C1029 1.495 . S
C1033 H1039 0.959 . S
C1033 H1040 0.961 . S
C1033 H1041 0.960 1_556 S
C1034 C1032 1.344 1_554 S
C1034 C1035 1.413 . S
C1034 H1042 0.950 . S
C1035 C1034 1.413 . S
C1035 C1036 1.412 . S
C1035 H1043 0.929 . S
C1036 C1035 1.412 . S
C1036 C1037 1.323 1_554 S
C1037 H1021 0.930 . S
C1037 C1036 1.323 1_556 S
C1037 C1038 1.379 . S
C1038 H1022 0.931 . S
C1038 C1032 1.383 . S
C1038 C1037 1.379 . S
H1039 C1033 0.959 . S
H1040 C1033 0.961 . S
H1041 C1033 0.960 1_554 S
H1042 C1034 0.950 . S
H1043 C1035 0.929 . S
H1044 C1052 0.929 . S
H1045 C1054 0.930 . S
H1046 C1056 0.930 . S
H1047 C1059 0.929 . S
H1048 C1062 0.930 . S
H1049 C1064 0.960 . S
H1050 C1064 0.960 . S
H1051 C1064 0.960 . S
C1052 H1044 0.929 . S
C1052 C1053 1.377 . S
C1052 C1054 1.384 . S
C1053 C1052 1.377 . S
C1053 C1059 1.390 . S
C1054 H1045 0.930 . S
C1054 C1052 1.384 . S
C1054 C1055 1.372 . S
C1055 C1054 1.372 . S
C1055 C1056 1.400 . S
C1055 C1060 1.490 . S
C1056 H1046 0.930 . S
C1056 C1055 1.400 . S
C1056 C1059 1.386 . S
H1057 C1073 0.930 . S
H1058 C1074 0.931 . S
C1059 H1047 0.929 . S
C1059 C1053 1.390 . S
C1059 C1056 1.386 . S
C1060 C1055 1.490 . S
C1060 C1062 1.395 . S
C1060 C1063 1.403 . S
H1061 C1067 0.930 . S
C1062 H1048 0.930 . S
C1062 C1060 1.395 . S
C1062 C1065 1.403 . S
C1063 C1060 1.403 . S
C1063 C1064 1.524 . S
C1063 C1067 1.400 . S
C1064 H1049 0.960 . S
C1064 H1050 0.960 . S
C1064 H1051 0.960 . S
C1064 C1063 1.524 . S
C1065 C1062 1.403 . S
C1065 C1066 1.392 . S
C1065 C1069 1.495 . S
C1066 C1065 1.392 . S
C1066 C1067 1.385 . S
C1066 C1068 1.478 . S
C1067 H1061 0.930 . S
C1067 C1063 1.400 . S
C1067 C1066 1.385 . S
C1068 C1066 1.478 . S
C1068 C1070 1.381 . S
C1068 C1074 1.383 . S
C1069 C1065 1.495 . S
C1069 H1075 0.959 . S
C1069 H1076 0.961 . S
C1069 H1077 0.960 . S
C1070 C1068 1.381 . S
C1070 C1071 1.394 . S
C1070 H1078 0.930 . S
C1071 C1070 1.394 . S
C1071 C1072 1.383 . S
C1071 H1079 0.929 . S
C1072 C1071 1.383 . S
C1072 C1073 1.377 . S
C1073 H1057 0.930 . S
C1073 C1072 1.377 . S
C1073 C1074 1.379 . S
C1074 H1058 0.931 . S
C1074 C1068 1.383 . S
C1074 C1073 1.379 . S
H1075 C1069 0.959 . S
H1076 C1069 0.961 . S
H1077 C1069 0.960 . S
H1078 C1070 0.930 . S
H1079 C1071 0.929 . S
H1080 C1088 0.929 . S
H1081 C1090 0.930 . S
H1082 C1092 0.930 . S
H1083 C1095 0.929 . S
H1084 C1098 0.930 . S
H1085 C1100 0.960 . S
H1086 C1100 0.960 . S
H1087 C1100 0.960 . S
C1088 H1080 0.929 . S
C1088 C1089 1.377 1_565 S
C1088 C1090 1.384 . S
C1089 C1088 1.377 1_545 S
C1089 C1095 1.390 . S
C1090 H1081 0.930 . S
C1090 C1088 1.384 . S
C1090 C1091 1.372 1_565 S
C1091 C1090 1.372 1_545 S
C1091 C1092 1.400 . S
C1091 C1096 1.490 . S
C1092 H1082 0.930 . S
C1092 C1091 1.400 . S
C1092 C1095 1.386 . S
H1093 C1109 0.930 . S
H1094 C1110 0.931 . S
C1095 H1083 0.929 . S
C1095 C1089 1.390 . S
C1095 C1092 1.386 . S
C1096 C1091 1.490 . S
C1096 C1098 1.395 . S
C1096 C1099 1.403 1_545 S
H1097 C1103 0.930 . S
C1098 H1084 0.930 . S
C1098 C1096 1.395 . S
C1098 C1101 1.403 . S
C1099 C1096 1.403 1_565 S
C1099 C1100 1.524 . S
C1099 C1103 1.400 . S
C1100 H1085 0.960 . S
C1100 H1086 0.960 . S
C1100 H1087 0.960 . S
C1100 C1099 1.524 . S
C1101 C1098 1.403 . S
C1101 C1102 1.392 . S
C1101 C1105 1.495 . S
C1102 C1101 1.392 . S
C1102 C1103 1.385 1_545 S
C1102 C1104 1.478 . S
C1103 H1097 0.930 . S
C1103 C1099 1.400 . S
C1103 C1102 1.385 1_565 S
C1104 C1102 1.478 . S
C1104 C1106 1.381 1_545 S
C1104 C1110 1.383 . S
C1105 C1101 1.495 . S
C1105 H1111 0.959 . S
C1105 H1112 0.961 . S
C1105 H1113 0.960 . S
C1106 C1104 1.381 1_565 S
C1106 C1107 1.394 . S
C1106 H1114 0.930 . S
C1107 C1106 1.394 . S
C1107 C1108 1.365 1_565 S
C1107 H1115 0.929 . S
C1108 C1107 1.365 1_545 S
C1108 C1109 1.397 . S
C1109 H1093 0.930 . S
C1109 C1108 1.397 . S
C1109 C1110 1.379 . S
C1110 H1094 0.931 . S
C1110 C1104 1.383 . S
C1110 C1109 1.379 . S
H1111 C1105 0.959 . S
H1112 C1105 0.961 . S
H1113 C1105 0.960 . S
H1114 C1106 0.930 . S
H1115 C1107 0.929 . S
H1116 C1124 0.929 . S
H1117 C1126 0.930 . S
H1118 C1128 0.930 . S
H1119 C1131 0.929 . S
H1120 C1134 0.930 . S
H1121 C1136 0.960 . S
H1122 C1136 0.960 . S
H1123 C1136 0.960 . S
C1124 H1116 0.929 . S
C1124 C1125 1.377 . S
C1124 C1126 1.384 . S
C1125 C1124 1.377 . S
C1125 C1131 1.390 . S
C1126 H1117 0.930 . S
C1126 C1124 1.384 . S
C1126 C1127 1.372 . S
C1127 C1126 1.372 . S
C1127 C1128 1.400 . S
C1127 C1132 1.490 . S
C1128 H1118 0.930 . S
C1128 C1127 1.400 . S
C1128 C1131 1.386 . S
H1129 C1145 0.930 . S
H1130 C1146 0.931 . S
C1131 H1119 0.929 . S
C1131 C1125 1.390 . S
C1131 C1128 1.386 . S
C1132 C1127 1.490 . S
C1132 C1134 1.395 . S
C1132 C1135 1.403 . S
H1133 C1139 0.930 . S
C1134 H1120 0.930 . S
C1134 C1132 1.395 . S
C1134 C1137 1.403 . S
C1135 C1132 1.403 . S
C1135 C1136 1.524 . S
C1135 C1139 1.400 . S
C1136 H1121 0.960 . S
C1136 H1122 0.960 . S
C1136 H1123 0.960 . S
C1136 C1135 1.524 . S
C1137 C1134 1.403 . S
C1137 C1138 1.392 . S
C1137 C1141 1.495 . S
C1138 C1137 1.392 . S
C1138 C1139 1.385 . S
C1138 C1140 1.478 . S
C1139 H1133 0.930 . S
C1139 C1135 1.400 . S
C1139 C1138 1.385 . S
C1140 C1138 1.478 . S
C1140 C1142 1.381 . S
C1140 C1146 1.383 . S
C1141 C1137 1.495 . S
C1141 H1147 0.959 . S
C1141 H1148 0.961 . S
C1141 H1149 0.960 . S
C1142 C1140 1.381 . S
C1142 C1143 1.394 . S
C1142 H1150 0.930 . S
C1143 C1142 1.394 . S
C1143 C1144 1.383 . S
C1143 H1151 0.929 . S
C1144 C1143 1.383 . S
C1144 C1145 1.377 . S
C1145 H1129 0.930 . S
C1145 C1144 1.377 . S
C1145 C1146 1.379 . S
C1146 H1130 0.931 . S
C1146 C1140 1.383 . S
C1146 C1145 1.379 . S
H1147 C1141 0.959 . S
H1148 C1141 0.961 . S
H1149 C1141 0.960 . S
H1150 C1142 0.930 . S
H1151 C1143 0.929 . S
H1152 C1160 0.929 . S
H1153 C1162 0.930 . S
H1154 C1164 0.930 . S
H1155 C1167 0.929 . S
H1156 C1170 0.930 . S
H1157 C1172 0.960 . S
H1158 C1172 0.960 . S
H1159 C1172 0.960 . S
C1160 H1152 0.929 . S
C1160 C1161 1.377 . S
C1160 C1162 1.384 . S
C1161 C1160 1.377 . S
C1161 C1167 1.390 . S
C1162 H1153 0.930 . S
C1162 C1160 1.384 . S
C1162 C1163 1.372 . S
C1163 C1162 1.372 . S
C1163 C1164 1.400 . S
C1163 C1168 1.490 . S
C1164 H1154 0.930 . S
C1164 C1163 1.400 . S
C1164 C1167 1.386 . S
H1165 C1181 0.930 . S
H1166 C1182 0.931 . S
C1167 H1155 0.929 . S
C1167 C1161 1.390 . S
C1167 C1164 1.386 . S
C1168 C1163 1.490 . S
C1168 C1170 1.395 . S
C1168 C1171 1.403 . S
H1169 C1175 0.930 . S
C1170 H1156 0.930 . S
C1170 C1168 1.395 . S
C1170 C1173 1.403 . S
C1171 C1168 1.403 . S
C1171 C1172 1.524 . S
C1171 C1175 1.400 . S
C1172 H1157 0.960 . S
C1172 H1158 0.960 . S
C1172 H1159 0.960 . S
C1172 C1171 1.524 . S
C1173 C1170 1.403 . S
C1173 C1174 1.392 . S
C1173 C1177 1.495 . S
C1174 C1173 1.392 . S
C1174 C1175 1.385 . S
C1174 C1176 1.478 . S
C1175 H1169 0.930 . S
C1175 C1171 1.400 . S
C1175 C1174 1.385 . S
C1176 C1174 1.478 . S
C1176 C1178 1.381 . S
C1176 C1182 1.383 . S
C1177 C1173 1.495 . S
C1177 H1183 0.959 . S
C1177 H1184 0.961 . S
C1177 H1185 0.960 . S
C1178 C1176 1.381 . S
C1178 C1179 1.394 . S
C1178 H1186 0.930 . S
C1179 C1178 1.394 . S
C1179 C1180 1.383 . S
C1179 H1187 0.929 . S
C1180 C1179 1.383 . S
C1180 C1181 1.377 . S
C1181 H1165 0.930 . S
C1181 C1180 1.377 . S
C1181 C1182 1.379 . S
C1182 H1166 0.931 . S
C1182 C1176 1.383 . S
C1182 C1181 1.379 . S
H1183 C1177 0.959 . S
H1184 C1177 0.961 . S
H1185 C1177 0.960 . S
H1186 C1178 0.930 . S
H1187 C1179 0.929 . S
H1188 C1196 0.929 . S
H1189 C1198 0.930 . S
H1190 C1200 0.930 . S
H1191 C1203 0.929 . S
H1192 C1206 0.930 . S
H1193 C1208 0.960 . S
H1194 C1208 0.960 . S
H1195 C1208 0.960 . S
C1196 H1188 0.929 . S
C1196 C1197 1.377 . S
C1196 C1198 1.384 . S
C1197 C1196 1.377 . S
C1197 C1203 1.390 . S
C1198 H1189 0.930 . S
C1198 C1196 1.384 . S
C1198 C1199 1.372 . S
C1199 C1198 1.372 . S
C1199 C1200 1.400 . S
C1199 C1204 1.490 . S
C1200 H1190 0.930 . S
C1200 C1199 1.400 . S
C1200 C1203 1.386 . S
H1201 C1217 0.930 . S
H1202 C1218 0.931 . S
C1203 H1191 0.929 . S
C1203 C1197 1.390 . S
C1203 C1200 1.386 . S
C1204 C1199 1.490 . S
C1204 C1206 1.395 . S
C1204 C1207 1.403 . S
H1205 C1211 0.930 . S
C1206 H1192 0.930 . S
C1206 C1204 1.395 . S
C1206 C1209 1.403 . S
C1207 C1204 1.403 . S
C1207 C1208 1.524 . S
C1207 C1211 1.400 . S
C1208 H1193 0.960 . S
C1208 H1194 0.960 . S
C1208 H1195 0.960 . S
C1208 C1207 1.524 . S
C1209 C1206 1.403 . S
C1209 C1210 1.392 . S
C1209 C1213 1.495 . S
C1210 C1209 1.392 . S
C1210 C1211 1.385 . S
C1210 C1212 1.478 . S
C1211 H1205 0.930 . S
C1211 C1207 1.400 . S
C1211 C1210 1.385 . S
C1212 C1210 1.478 . S
C1212 C1214 1.381 . S
C1212 C1218 1.383 . S
C1213 C1209 1.495 . S
C1213 H1219 0.959 . S
C1213 H1220 0.961 . S
C1213 H1221 0.960 . S
C1214 C1212 1.381 . S
C1214 C1215 1.394 . S
C1214 H1222 0.930 . S
C1215 C1214 1.394 . S
C1215 C1216 1.383 . S
C1215 H1223 0.929 . S
C1216 C1215 1.383 . S
C1216 C1217 1.377 . S
C1217 H1201 0.930 . S
C1217 C1216 1.377 . S
C1217 C1218 1.379 . S
C1218 H1202 0.931 . S
C1218 C1212 1.383 . S
C1218 C1217 1.379 . S
H1219 C1213 0.959 . S
H1220 C1213 0.961 . S
H1221 C1213 0.960 . S
H1222 C1214 0.930 . S
H1223 C1215 0.929 . S
H1224 C1232 0.922 1_565 S
H1225 C1234 0.930 1_565 S
H1226 C1236 0.930 . S
H1227 C1239 0.929 . S
H1228 C1242 0.930 . S
H1229 C1244 0.960 . S
H1230 C1244 0.960 . S
H1231 C1244 0.960 . S
C1232 H1224 0.922 1_545 S
C1232 C1233 1.383 . S
C1232 C1234 1.385 . S
C1233 C1232 1.383 . S
C1233 C1239 1.390 . S
C1234 H1225 0.930 1_545 S
C1234 C1232 1.385 . S
C1234 C1235 1.372 . S
C1235 C1234 1.372 . S
C1235 C1236 1.400 . S
C1235 C1240 1.490 . S
C1236 H1226 0.930 . S
C1236 C1235 1.400 . S
C1236 C1239 1.386 . S
H1237 C1253 0.930 . S
H1238 C1254 0.931 . S
C1239 H1227 0.929 . S
C1239 C1233 1.390 . S
C1239 C1236 1.386 . S
C1240 C1235 1.490 . S
C1240 C1242 1.395 . S
C1240 C1243 1.403 . S
H1241 C1247 0.930 . S
C1242 H1228 0.930 . S
C1242 C1240 1.395 . S
C1242 C1245 1.403 . S
C1243 C1240 1.403 . S
C1243 C1244 1.524 . S
C1243 C1247 1.400 . S
C1244 H1229 0.960 . S
C1244 H1230 0.960 . S
C1244 H1231 0.960 . S
C1244 C1243 1.524 . S
C1245 C1242 1.403 . S
C1245 C1246 1.392 . S
C1245 C1249 1.495 . S
C1246 C1245 1.392 . S
C1246 C1247 1.385 . S
C1246 C1248 1.478 . S
C1247 H1241 0.930 . S
C1247 C1243 1.400 . S
C1247 C1246 1.385 . S
C1248 C1246 1.478 . S
C1248 C1250 1.381 . S
C1248 C1254 1.383 . S
C1249 C1245 1.495 . S
C1249 H1255 0.959 . S
C1249 H1256 0.961 . S
C1249 H1257 0.960 . S
C1250 C1248 1.381 . S
C1250 C1251 1.394 . S
C1250 H1258 0.930 . S
C1251 C1250 1.394 . S
C1251 C1252 1.383 . S
C1251 H1259 0.929 . S
C1252 C1251 1.383 . S
C1252 C1253 1.377 . S
C1253 H1237 0.930 . S
C1253 C1252 1.377 . S
C1253 C1254 1.379 . S
C1254 H1238 0.931 . S
C1254 C1248 1.383 . S
C1254 C1253 1.379 . S
H1255 C1249 0.959 . S
H1256 C1249 0.961 . S
H1257 C1249 0.960 . S
H1258 C1250 0.930 . S
H1259 C1251 0.929 . S
H1260 C1268 0.929 . S
H1261 C1270 0.930 . S
H1262 C1272 0.930 . S
H1263 C1275 0.929 . S
H1264 C1278 0.930 . S
H1265 C1280 0.960 . S
H1266 C1280 0.960 . S
H1267 C1280 0.960 . S
C1268 H1260 0.929 . S
C1268 C1269 1.377 . S
C1268 C1270 1.384 . S
C1269 C1268 1.377 . S
C1269 C1275 1.390 . S
C1270 H1261 0.930 . S
C1270 C1268 1.384 . S
C1270 C1271 1.372 . S
C1271 C1270 1.372 . S
C1271 C1272 1.400 . S
C1271 C1276 1.490 . S
C1272 H1262 0.930 . S
C1272 C1271 1.400 . S
C1272 C1275 1.386 . S
H1273 C1289 0.930 . S
H1274 C1290 0.931 . S
C1275 H1263 0.929 . S
C1275 C1269 1.390 . S
C1275 C1272 1.386 . S
C1276 C1271 1.490 . S
C1276 C1278 1.395 . S
C1276 C1279 1.403 . S
H1277 C1283 0.930 . S
C1278 H1264 0.930 . S
C1278 C1276 1.395 . S
C1278 C1281 1.403 . S
C1279 C1276 1.403 . S
C1279 C1280 1.524 . S
C1279 C1283 1.400 . S
C1280 H1265 0.960 . S
C1280 H1266 0.960 . S
C1280 H1267 0.960 . S
C1280 C1279 1.524 . S
C1281 C1278 1.403 . S
C1281 C1282 1.392 . S
C1281 C1285 1.495 . S
C1282 C1281 1.392 . S
C1282 C1283 1.385 . S
C1282 C1284 1.478 . S
C1283 H1277 0.930 . S
C1283 C1279 1.400 . S
C1283 C1282 1.385 . S
C1284 C1282 1.478 . S
C1284 C1286 1.381 . S
C1284 C1290 1.383 . S
C1285 C1281 1.495 . S
C1285 H1291 0.959 . S
C1285 H1292 0.961 . S
C1285 H1293 0.960 . S
C1286 C1284 1.381 . S
C1286 C1287 1.394 . S
C1286 H1294 0.930 . S
C1287 C1286 1.394 . S
C1287 C1288 1.383 . S
C1287 H1295 0.929 . S
C1288 C1287 1.383 . S
C1288 C1289 1.377 . S
C1289 H1273 0.930 . S
C1289 C1288 1.377 . S
C1289 C1290 1.379 . S
C1290 H1274 0.931 . S
C1290 C1284 1.383 . S
C1290 C1289 1.379 . S
H1291 C1285 0.959 . S
H1292 C1285 0.961 . S
H1293 C1285 0.960 . S
H1294 C1286 0.930 . S
H1295 C1287 0.929 . S
H1296 C1304 0.929 . S
H1297 C1306 0.930 . S
H1298 C1308 0.930 . S
H1299 C1311 0.929 . S
H1300 C1314 0.930 . S
H1301 C1316 0.960 . S
H1302 C1316 0.960 . S
H1303 C1316 0.960 . S
C1304 H1296 0.929 . S
C1304 C1305 1.377 . S
C1304 C1306 1.384 . S
C1305 C1304 1.377 . S
C1305 C1311 1.390 . S
C1306 H1297 0.930 . S
C1306 C1304 1.384 . S
C1306 C1307 1.372 . S
C1307 C1306 1.372 . S
C1307 C1308 1.400 . S
C1307 C1312 1.490 . S
C1308 H1298 0.930 . S
C1308 C1307 1.400 . S
C1308 C1311 1.386 . S
H1309 C1325 0.930 . S
H1310 C1326 0.931 . S
C1311 H1299 0.929 . S
C1311 C1305 1.390 . S
C1311 C1308 1.386 . S
C1312 C1307 1.490 . S
C1312 C1314 1.395 . S
C1312 C1315 1.403 . S
H1313 C1319 0.930 . S
C1314 H1300 0.930 . S
C1314 C1312 1.395 . S
C1314 C1317 1.403 . S
C1315 C1312 1.403 . S
C1315 C1316 1.524 . S
C1315 C1319 1.400 . S
C1316 H1301 0.960 . S
C1316 H1302 0.960 . S
C1316 H1303 0.960 . S
C1316 C1315 1.524 . S
C1317 C1314 1.403 . S
C1317 C1318 1.392 . S
C1317 C1321 1.495 . S
C1318 C1317 1.392 . S
C1318 C1319 1.385 . S
C1318 C1320 1.478 . S
C1319 H1313 0.930 . S
C1319 C1315 1.400 . S
C1319 C1318 1.385 . S
C1320 C1318 1.478 . S
C1320 C1322 1.381 . S
C1320 C1326 1.383 1_545 S
C1321 C1317 1.495 . S
C1321 H1327 0.959 . S
C1321 H1328 0.961 . S
C1321 H1329 0.960 . S
C1322 C1320 1.381 . S
C1322 C1323 1.394 . S
C1322 H1330 0.930 . S
C1323 C1322 1.394 . S
C1323 C1324 1.383 . S
C1323 H1331 0.929 . S
C1324 C1323 1.383 . S
C1324 C1325 1.377 1_545 S
C1325 H1309 0.930 . S
C1325 C1324 1.377 1_565 S
C1325 C1326 1.379 . S
C1326 H1310 0.931 . S
C1326 C1320 1.383 1_565 S
C1326 C1325 1.379 . S
H1327 C1321 0.959 . S
H1328 C1321 0.961 . S
H1329 C1321 0.960 . S
H1330 C1322 0.930 . S
H1331 C1323 0.929 . S
H1332 C1340 0.929 . S
H1333 C1342 0.930 . S
H1334 C1344 0.930 . S
H1335 C1347 0.929 . S
H1336 C1350 0.930 . S
H1337 C1352 0.960 . S
H1338 C1352 0.960 . S
H1339 C1352 0.960 . S
C1340 H1332 0.929 . S
C1340 C1341 1.377 . S
C1340 C1342 1.384 . S
C1341 C1340 1.377 . S
C1341 C1347 1.390 . S
C1342 H1333 0.930 . S
C1342 C1340 1.384 . S
C1342 C1343 1.372 . S
C1343 C1342 1.372 . S
C1343 C1344 1.400 . S
C1343 C1348 1.490 . S
C1344 H1334 0.930 . S
C1344 C1343 1.400 . S
C1344 C1347 1.386 . S
H1345 C1361 0.930 . S
H1346 C1362 0.931 . S
C1347 H1335 0.929 . S
C1347 C1341 1.390 . S
C1347 C1344 1.386 . S
C1348 C1343 1.490 . S
C1348 C1350 1.395 . S
C1348 C1351 1.403 . S
H1349 C1355 0.930 . S
C1350 H1336 0.930 . S
C1350 C1348 1.395 . S
C1350 C1353 1.403 . S
C1351 C1348 1.403 . S
C1351 C1352 1.524 . S
C1351 C1355 1.400 . S
C1352 H1337 0.960 . S
C1352 H1338 0.960 . S
C1352 H1339 0.960 . S
C1352 C1351 1.524 . S
C1353 C1350 1.403 . S
C1353 C1354 1.392 . S
C1353 C1357 1.495 . S
C1354 C1353 1.392 . S
C1354 C1355 1.385 . S
C1354 C1356 1.478 . S
C1355 H1349 0.930 . S
C1355 C1351 1.400 . S
C1355 C1354 1.385 . S
C1356 C1354 1.478 . S
C1356 C1358 1.381 . S
C1356 C1362 1.383 . S
C1357 C1353 1.495 . S
C1357 H1363 0.959 . S
C1357 H1364 0.961 . S
C1357 H1365 0.960 . S
C1358 C1356 1.381 . S
C1358 C1359 1.394 . S
C1358 H1366 0.930 . S
C1359 C1358 1.394 . S
C1359 C1360 1.383 . S
C1359 H1367 0.929 . S
C1360 C1359 1.383 . S
C1360 C1361 1.377 . S
C1361 H1345 0.930 . S
C1361 C1360 1.377 . S
C1361 C1362 1.379 . S
C1362 H1346 0.931 . S
C1362 C1356 1.383 . S
C1362 C1361 1.379 . S
H1363 C1357 0.959 . S
H1364 C1357 0.961 . S
H1365 C1357 0.960 . S
H1366 C1358 0.930 . S
H1367 C1359 0.929 . S
H1368 C1376 0.907 1_556 S
H1369 C1378 0.930 1_556 S
H1370 C1380 0.930 . S
H1371 C1383 0.929 . S
H1372 C1386 0.930 . S
H1373 C1388 0.960 . S
H1374 C1388 0.960 . S
H1375 C1388 0.960 . S
C1376 H1368 0.907 1_554 S
C1376 C1377 1.377 . S
C1376 C1378 1.384 . S
C1377 C1376 1.377 . S
C1377 C1383 1.390 . S
C1378 H1369 0.930 1_554 S
C1378 C1376 1.384 . S
C1378 C1379 1.372 . S
C1379 C1378 1.372 . S
C1379 C1380 1.400 . S
C1379 C1384 1.490 . S
C1380 H1370 0.930 . S
C1380 C1379 1.400 . S
C1380 C1383 1.386 . S
H1381 C1397 0.930 . S
H1382 C1398 0.931 . S
C1383 H1371 0.929 . S
C1383 C1377 1.390 . S
C1383 C1380 1.386 . S
C1384 C1379 1.490 . S
C1384 C1386 1.395 1_554 S
C1384 C1387 1.403 . S
H1385 C1391 0.930 . S
C1386 H1372 0.930 . S
C1386 C1384 1.395 1_556 S
C1386 C1389 1.403 . S
C1387 C1384 1.403 . S
C1387 C1388 1.524 . S
C1387 C1391 1.400 . S
C1388 H1373 0.960 . S
C1388 H1374 0.960 . S
C1388 H1375 0.960 . S
C1388 C1387 1.524 . S
C1389 C1386 1.403 . S
C1389 C1390 1.392 1_556 S
C1389 C1393 1.495 . S
C1390 C1389 1.392 1_554 S
C1390 C1391 1.385 . S
C1390 C1392 1.478 . S
C1391 H1385 0.930 . S
C1391 C1387 1.400 . S
C1391 C1390 1.385 . S
C1392 C1390 1.478 . S
C1392 C1394 1.381 1_554 S
C1392 C1398 1.383 . S
C1393 C1389 1.495 . S
C1393 H1399 0.959 . S
C1393 H1400 0.961 . S
C1393 H1401 0.960 . S
C1394 C1392 1.381 1_556 S
C1394 C1395 1.394 . S
C1394 H1402 0.930 . S
C1395 C1394 1.394 . S
C1395 C1396 1.383 1_556 S
C1395 H1403 0.929 . S
C1396 C1395 1.383 1_554 S
C1396 C1397 1.377 . S
C1397 H1381 0.930 . S
C1397 C1396 1.377 . S
C1397 C1398 1.379 . S
C1398 H1382 0.931 . S
C1398 C1392 1.383 . S
C1398 C1397 1.379 . S
H1399 C1393 0.959 . S
H1400 C1393 0.961 . S
H1401 C1393 0.960 . S
H1402 C1394 0.930 . S
H1403 C1395 0.929 . S
H1404 C1412 0.929 . S
H1405 C1414 0.930 . S
H1406 C1416 0.930 . S
H1407 C1419 0.929 . S
H1408 C1422 0.930 . S
H1409 C1424 0.960 . S
H1410 C1424 0.960 . S
H1411 C1424 0.960 . S
C1412 H1404 0.929 . S
C1412 C1413 1.377 . S
C1412 C1414 1.384 . S
C1413 C1412 1.377 . S
C1413 C1419 1.390 . S
C1414 H1405 0.930 . S
C1414 C1412 1.384 . S
C1414 C1415 1.372 . S
C1415 C1414 1.372 . S
C1415 C1416 1.400 . S
C1415 C1420 1.490 . S
C1416 H1406 0.930 . S
C1416 C1415 1.400 . S
C1416 C1419 1.386 . S
H1417 C1433 0.930 . S
H1418 C1434 0.931 . S
C1419 H1407 0.929 . S
C1419 C1413 1.390 . S
C1419 C1416 1.386 . S
C1420 C1415 1.490 . S
C1420 C1422 1.395 . S
C1420 C1423 1.403 . S
H1421 C1427 0.930 . S
C1422 H1408 0.930 . S
C1422 C1420 1.395 . S
C1422 C1425 1.403 . S
C1423 C1420 1.403 . S
C1423 C1424 1.524 . S
C1423 C1427 1.400 . S
C1424 H1409 0.960 . S
C1424 H1410 0.960 . S
C1424 H1411 0.960 . S
C1424 C1423 1.524 . S
C1425 C1422 1.403 . S
C1425 C1426 1.392 . S
C1425 C1429 1.495 . S
C1426 C1425 1.392 . S
C1426 C1427 1.385 . S
C1426 C1428 1.478 . S
C1427 H1421 0.930 . S
C1427 C1423 1.400 . S
C1427 C1426 1.385 . S
C1428 C1426 1.478 . S
C1428 C1430 1.381 . S
C1428 C1434 1.383 . S
C1429 C1425 1.495 . S
C1429 H1435 0.959 . S
C1429 H1436 0.961 . S
C1429 H1437 0.960 . S
C1430 C1428 1.381 . S
C1430 C1431 1.394 . S
C1430 H1438 0.930 . S
C1431 C1430 1.394 . S
C1431 C1432 1.383 . S
C1431 H1439 0.929 . S
C1432 C1431 1.383 . S
C1432 C1433 1.377 . S
C1433 H1417 0.930 . S
C1433 C1432 1.377 . S
C1433 C1434 1.379 . S
C1434 H1418 0.931 . S
C1434 C1428 1.383 . S
C1434 C1433 1.379 . S
H1435 C1429 0.959 . S
H1436 C1429 0.961 . S
H1437 C1429 0.960 . S
H1438 C1430 0.930 . S
H1439 C1431 0.929 . S
H1440 C1448 0.929 . S
H1441 C1450 0.930 . S
H1442 C1452 0.930 . S
H1443 C1455 0.929 . S
H1444 C1458 0.930 . S
H1445 C1460 0.960 . S
H1446 C1460 0.960 . S
H1447 C1460 0.960 . S
C1448 H1440 0.929 . S
C1448 C1449 1.377 . S
C1448 C1450 1.384 . S
C1449 C1448 1.377 . S
C1449 C1455 1.390 . S
C1450 H1441 0.930 . S
C1450 C1448 1.384 . S
C1450 C1451 1.372 . S
C1451 C1450 1.372 . S
C1451 C1452 1.400 . S
C1451 C1456 1.490 . S
C1452 H1442 0.930 . S
C1452 C1451 1.400 . S
C1452 C1455 1.386 . S
H1453 C1469 0.930 . S
H1454 C1470 0.931 . S
C1455 H1443 0.929 . S
C1455 C1449 1.390 . S
C1455 C1452 1.386 . S
C1456 C1451 1.490 . S
C1456 C1458 1.395 . S
C1456 C1459 1.403 . S
H1457 C1463 0.930 . S
C1458 H1444 0.930 . S
C1458 C1456 1.395 . S
C1458 C1461 1.403 . S
C1459 C1456 1.403 . S
C1459 C1460 1.524 . S
C1459 C1463 1.400 . S
C1460 H1445 0.960 . S
C1460 H1446 0.960 . S
C1460 H1447 0.960 . S
C1460 C1459 1.524 . S
C1461 C1458 1.403 . S
C1461 C1462 1.392 . S
C1461 C1465 1.495 . S
C1462 C1461 1.392 . S
C1462 C1463 1.385 . S
C1462 C1464 1.478 . S
C1463 H1457 0.930 . S
C1463 C1459 1.400 . S
C1463 C1462 1.385 . S
C1464 C1462 1.478 . S
C1464 C1466 1.381 . S
C1464 C1470 1.383 . S
C1465 C1461 1.495 . S
C1465 H1471 0.959 . S
C1465 H1472 0.961 . S
C1465 H1473 0.960 . S
C1466 C1464 1.381 . S
C1466 C1467 1.394 . S
C1466 H1474 0.930 . S
C1467 C1466 1.394 . S
C1467 C1468 1.383 . S
C1467 H1475 0.929 . S
C1468 C1467 1.383 . S
C1468 C1469 1.377 . S
C1469 H1453 0.930 . S
C1469 C1468 1.377 . S
C1469 C1470 1.379 . S
C1470 H1454 0.931 . S
C1470 C1464 1.383 . S
C1470 C1469 1.379 . S
H1471 C1465 0.959 . S
H1472 C1465 0.961 . S
H1473 C1465 0.960 . S
H1474 C1466 0.930 . S
H1475 C1467 0.929 . S
H1476 C1484 0.929 . S
H1477 C1486 0.930 . S
H1478 C1488 0.930 . S
H1479 C1491 0.929 . S
H1480 C1494 0.930 . S
H1481 C1496 0.960 . S
H1482 C1496 0.960 . S
H1483 C1496 0.960 . S
C1484 H1476 0.929 . S
C1484 C1485 1.377 . S
C1484 C1486 1.384 . S
C1485 C1484 1.377 . S
C1485 C1491 1.390 . S
C1486 H1477 0.930 . S
C1486 C1484 1.384 . S
C1486 C1487 1.372 . S
C1487 C1486 1.372 . S
C1487 C1488 1.400 . S
C1487 C1492 1.490 . S
C1488 H1478 0.930 . S
C1488 C1487 1.400 . S
C1488 C1491 1.386 . S
H1489 C1505 0.930 . S
H1490 C1506 0.931 . S
C1491 H1479 0.929 . S
C1491 C1485 1.390 . S
C1491 C1488 1.386 . S
C1492 C1487 1.490 . S
C1492 C1494 1.395 . S
C1492 C1495 1.403 . S
H1493 C1499 0.930 . S
C1494 H1480 0.930 . S
C1494 C1492 1.395 . S
C1494 C1497 1.403 . S
C1495 C1492 1.403 . S
C1495 C1496 1.524 . S
C1495 C1499 1.400 . S
C1496 H1481 0.960 . S
C1496 H1482 0.960 . S
C1496 H1483 0.960 . S
C1496 C1495 1.524 . S
C1497 C1494 1.403 . S
C1497 C1498 1.392 . S
C1497 C1501 1.495 . S
C1498 C1497 1.392 . S
C1498 C1499 1.385 . S
C1498 C1500 1.478 . S
C1499 H1493 0.930 . S
C1499 C1495 1.400 . S
C1499 C1498 1.385 . S
C1500 C1498 1.478 . S
C1500 C1502 1.381 . S
C1500 C1506 1.383 . S
C1501 C1497 1.495 . S
C1501 H1507 0.959 . S
C1501 H1508 0.961 . S
C1501 H1509 0.960 . S
C1502 C1500 1.381 . S
C1502 C1503 1.394 . S
C1502 H1510 0.930 . S
C1503 C1502 1.394 . S
C1503 C1504 1.383 . S
C1503 H1511 0.929 . S
C1504 C1503 1.383 . S
C1504 C1505 1.377 . S
C1505 H1489 0.930 . S
C1505 C1504 1.377 . S
C1505 C1506 1.379 . S
C1506 H1490 0.931 . S
C1506 C1500 1.383 . S
C1506 C1505 1.379 . S
H1507 C1501 0.959 . S
H1508 C1501 0.961 . S
H1509 C1501 0.960 . S
H1510 C1502 0.930 . S
H1511 C1503 0.929 . S
H1512 C1520 0.929 . S
H1513 C1522 0.930 . S
H1514 C1524 0.930 . S
H1515 C1527 0.929 . S
H1516 C1530 0.930 . S
H1517 C1532 0.960 . S
H1518 C1532 0.960 . S
H1519 C1532 0.960 . S
C1520 H1512 0.929 . S
C1520 C1521 1.377 . S
C1520 C1522 1.384 . S
C1521 C1520 1.377 . S
C1521 C1527 1.390 . S
C1522 H1513 0.930 . S
C1522 C1520 1.384 . S
C1522 C1523 1.372 . S
C1523 C1522 1.372 . S
C1523 C1524 1.400 . S
C1523 C1528 1.490 . S
C1524 H1514 0.930 . S
C1524 C1523 1.400 . S
C1524 C1527 1.386 . S
H1525 C1541 0.930 . S
H1526 C1542 0.931 . S
C1527 H1515 0.929 . S
C1527 C1521 1.390 . S
C1527 C1524 1.386 . S
C1528 C1523 1.490 . S
C1528 C1530 1.395 . S
C1528 C1531 1.403 . S
H1529 C1535 0.930 . S
C1530 H1516 0.930 . S
C1530 C1528 1.395 . S
C1530 C1533 1.403 . S
C1531 C1528 1.403 . S
C1531 C1532 1.524 . S
C1531 C1535 1.400 . S
C1532 H1517 0.960 . S
C1532 H1518 0.960 . S
C1532 H1519 0.960 . S
C1532 C1531 1.524 . S
C1533 C1530 1.403 . S
C1533 C1534 1.392 . S
C1533 C1537 1.495 . S
C1534 C1533 1.392 . S
C1534 C1535 1.385 . S
C1534 C1536 1.478 . S
C1535 H1529 0.930 . S
C1535 C1531 1.400 . S
C1535 C1534 1.385 . S
C1536 C1534 1.478 . S
C1536 C1538 1.381 . S
C1536 C1542 1.383 . S
C1537 C1533 1.495 . S
C1537 H1543 0.959 . S
C1537 H1544 0.961 . S
C1537 H1545 0.960 . S
C1538 C1536 1.381 . S
C1538 C1539 1.394 . S
C1538 H1546 0.930 . S
C1539 C1538 1.394 . S
C1539 C1540 1.383 . S
C1539 H1547 0.929 . S
C1540 C1539 1.383 . S
C1540 C1541 1.377 . S
C1541 H1525 0.930 . S
C1541 C1540 1.377 . S
C1541 C1542 1.379 . S
C1542 H1526 0.931 . S
C1542 C1536 1.383 . S
C1542 C1541 1.379 . S
H1543 C1537 0.959 . S
H1544 C1537 0.961 . S
H1545 C1537 0.960 . S
H1546 C1538 0.930 . S
H1547 C1539 0.929 . S
H1548 C1556 0.929 . S
H1549 C1558 0.930 . S
H1550 C1560 0.930 . S
H1551 C1563 0.929 . S
H1552 C1566 0.930 . S
H1553 C1568 0.960 . S
H1554 C1568 0.960 . S
H1555 C1568 0.960 . S
C1556 H1548 0.929 . S
C1556 C1557 1.377 . S
C1556 C1558 1.384 . S
C1557 C1556 1.377 . S
C1557 C1563 1.390 . S
C1558 H1549 0.930 . S
C1558 C1556 1.384 . S
C1558 C1559 1.372 . S
C1559 C1558 1.372 . S
C1559 C1560 1.400 . S
C1559 C1564 1.490 . S
C1560 H1550 0.930 . S
C1560 C1559 1.400 . S
C1560 C1563 1.386 . S
H1561 C1577 0.930 . S
H1562 C1578 0.931 . S
C1563 H1551 0.929 . S
C1563 C1557 1.390 . S
C1563 C1560 1.386 . S
C1564 C1559 1.490 . S
C1564 C1566 1.395 . S
C1564 C1567 1.403 . S
H1565 C1571 0.930 . S
C1566 H1552 0.930 . S
C1566 C1564 1.395 . S
C1566 C1569 1.403 . S
C1567 C1564 1.403 . S
C1567 C1568 1.524 . S
C1567 C1571 1.400 . S
C1568 H1553 0.960 . S
C1568 H1554 0.960 . S
C1568 H1555 0.960 . S
C1568 C1567 1.524 . S
C1569 C1566 1.403 . S
C1569 C1570 1.392 . S
C1569 C1573 1.495 . S
C1570 C1569 1.392 . S
C1570 C1571 1.385 . S
C1570 C1572 1.478 . S
C1571 H1565 0.930 . S
C1571 C1567 1.400 . S
C1571 C1570 1.385 . S
C1572 C1570 1.478 . S
C1572 C1574 1.381 . S
C1572 C1578 1.383 . S
C1573 C1569 1.495 . S
C1573 H1579 0.959 . S
C1573 H1580 0.961 . S
C1573 H1581 0.960 . S
C1574 C1572 1.381 . S
C1574 C1575 1.394 . S
C1574 H1582 0.930 . S
C1575 C1574 1.394 . S
C1575 C1576 1.383 . S
C1575 H1583 0.929 1_565 S
C1576 C1575 1.383 . S
C1576 C1577 1.377 . S
C1577 H1561 0.930 . S
C1577 C1576 1.377 . S
C1577 C1578 1.379 . S
C1578 H1562 0.931 . S
C1578 C1572 1.383 . S
C1578 C1577 1.379 . S
H1579 C1573 0.959 . S
H1580 C1573 0.961 . S
H1581 C1573 0.960 . S
H1582 C1574 0.930 . S
H1583 C1575 0.929 1_545 S
H1584 C1592 0.929 . S
H1585 C1594 0.930 . S
H1586 C1596 0.930 . S
H1587 C1599 0.929 . S
H1588 C1602 0.930 . S
H1589 C1604 0.960 . S
H1590 C1604 0.960 . S
H1591 C1604 0.960 . S
C1592 H1584 0.929 . S
C1592 C1593 1.377 . S
C1592 C1594 1.384 . S
C1593 C1592 1.377 . S
C1593 C1599 1.390 . S
C1594 H1585 0.930 . S
C1594 C1592 1.384 . S
C1594 C1595 1.372 . S
C1595 C1594 1.372 . S
C1595 C1596 1.400 . S
C1595 C1600 1.490 . S
C1596 H1586 0.930 . S
C1596 C1595 1.400 . S
C1596 C1599 1.386 . S
H1597 C1613 0.930 . S
H1598 C1614 0.931 . S
C1599 H1587 0.929 . S
C1599 C1593 1.390 . S
C1599 C1596 1.386 . S
C1600 C1595 1.490 . S
C1600 C1602 1.395 . S
C1600 C1603 1.403 . S
H1601 C1607 0.930 . S
C1602 H1588 0.930 . S
C1602 C1600 1.395 . S
C1602 C1605 1.403 . S
C1603 C1600 1.403 . S
C1603 C1604 1.524 . S
C1603 C1607 1.400 . S
C1604 H1589 0.960 . S
C1604 H1590 0.960 . S
C1604 H1591 0.960 . S
C1604 C1603 1.524 . S
C1605 C1602 1.403 . S
C1605 C1606 1.392 . S
C1605 C1609 1.495 . S
C1606 C1605 1.392 . S
C1606 C1607 1.385 . S
C1606 C1608 1.478 . S
C1607 H1601 0.930 . S
C1607 C1603 1.400 . S
C1607 C1606 1.385 . S
C1608 C1606 1.478 . S
C1608 C1610 1.381 . S
C1608 C1614 1.383 . S
C1609 C1605 1.495 . S
C1609 H1615 0.959 . S
C1609 H1616 0.961 . S
C1609 H1617 0.960 . S
C1610 C1608 1.381 . S
C1610 C1611 1.394 . S
C1610 H1618 0.930 . S
C1611 C1610 1.394 . S
C1611 C1612 1.383 . S
C1611 H1619 0.929 . S
C1612 C1611 1.383 . S
C1612 C1613 1.377 . S
C1613 H1597 0.930 . S
C1613 C1612 1.377 . S
C1613 C1614 1.379 . S
C1614 H1598 0.931 . S
C1614 C1608 1.383 . S
C1614 C1613 1.379 . S
H1615 C1609 0.959 . S
H1616 C1609 0.961 . S
H1617 C1609 0.960 . S
H1618 C1610 0.930 . S
H1619 C1611 0.929 . S
H1620 C1628 0.929 . S
H1621 C1630 0.930 . S
H1622 C1632 0.930 . S
H1623 C1635 0.929 . S
H1624 C1638 0.930 . S
H1625 C1640 0.960 . S
H1626 C1640 0.960 . S
H1627 C1640 0.960 . S
C1628 H1620 0.929 . S
C1628 C1629 1.377 . S
C1628 C1630 1.384 . S
C1629 C1628 1.377 . S
C1629 C1635 1.390 . S
C1630 H1621 0.930 . S
C1630 C1628 1.384 . S
C1630 C1631 1.372 . S
C1631 C1630 1.372 . S
C1631 C1632 1.400 . S
C1631 C1636 1.490 . S
C1632 H1622 0.930 . S
C1632 C1631 1.400 . S
C1632 C1635 1.386 . S
H1633 C1649 0.930 . S
H1634 C1650 0.931 . S
C1635 H1623 0.929 . S
C1635 C1629 1.390 . S
C1635 C1632 1.386 . S
C1636 C1631 1.490 . S
C1636 C1638 1.395 . S
C1636 C1639 1.403 . S
H1637 C1643 0.930 . S
C1638 H1624 0.930 . S
C1638 C1636 1.395 . S
C1638 C1641 1.403 . S
C1639 C1636 1.403 . S
C1639 C1640 1.524 . S
C1639 C1643 1.400 . S
C1640 H1625 0.960 . S
C1640 H1626 0.960 . S
C1640 H1627 0.960 . S
C1640 C1639 1.524 . S
C1641 C1638 1.403 . S
C1641 C1642 1.392 . S
C1641 C1645 1.495 . S
C1642 C1641 1.392 . S
C1642 C1643 1.385 . S
C1642 C1644 1.478 . S
C1643 H1637 0.930 . S
C1643 C1639 1.400 . S
C1643 C1642 1.385 . S
C1644 C1642 1.478 . S
C1644 C1646 1.381 . S
C1644 C1650 1.383 . S
C1645 C1641 1.495 . S
C1645 H1651 0.959 . S
C1645 H1652 0.961 . S
C1645 H1653 0.960 . S
C1646 C1644 1.381 . S
C1646 C1647 1.394 . S
C1646 H1654 0.930 . S
C1647 C1646 1.394 . S
C1647 C1648 1.383 . S
C1647 H1655 0.929 . S
C1648 C1647 1.383 . S
C1648 C1649 1.377 . S
C1649 H1633 0.930 . S
C1649 C1648 1.377 . S
C1649 C1650 1.379 . S
C1650 H1634 0.931 . S
C1650 C1644 1.383 . S
C1650 C1649 1.379 . S
H1651 C1645 0.959 . S
H1652 C1645 0.961 . S
H1653 C1645 0.960 . S
H1654 C1646 0.930 . S
H1655 C1647 0.929 . S
H1656 C1664 0.929 . S
H1657 C1666 0.930 . S
H1658 C1668 0.930 . S
H1659 C1671 0.929 . S
H1660 C1674 0.930 . S
H1661 C1676 0.960 . S
H1662 C1676 0.960 . S
H1663 C1676 0.960 . S
C1664 H1656 0.929 . S
C1664 C1665 1.377 1_655 S
C1664 C1666 1.384 . S
C1665 C1664 1.377 1_455 S
C1665 C1671 1.390 . S
C1666 H1657 0.930 . S
C1666 C1664 1.384 . S
C1666 C1667 1.372 1_655 S
C1667 C1666 1.372 1_455 S
C1667 C1668 1.400 . S
C1667 C1672 1.490 . S
C1668 H1658 0.930 . S
C1668 C1667 1.400 . S
C1668 C1671 1.386 . S
H1669 C1685 0.930 . S
H1670 C1686 0.931 . S
C1671 H1659 0.929 . S
C1671 C1665 1.390 . S
C1671 C1668 1.386 . S
C1672 C1667 1.490 . S
C1672 C1674 1.395 . S
C1672 C1675 1.403 . S
H1673 C1679 0.930 . S
C1674 H1660 0.930 . S
C1674 C1672 1.395 . S
C1674 C1677 1.403 . S
C1675 C1672 1.403 . S
C1675 C1676 1.524 . S
C1675 C1679 1.400 . S
C1676 H1661 0.960 . S
C1676 H1662 0.960 . S
C1676 H1663 0.960 . S
C1676 C1675 1.524 . S
C1677 C1674 1.403 . S
C1677 C1678 1.392 . S
C1677 C1681 1.495 1_556 S
C1678 C1677 1.392 . S
C1678 C1679 1.385 . S
C1678 C1680 1.478 . S
C1679 H1673 0.930 . S
C1679 C1675 1.400 . S
C1679 C1678 1.385 . S
C1680 C1678 1.478 . S
C1680 C1682 1.381 . S
C1680 C1686 1.383 . S
C1681 C1677 1.495 1_554 S
C1681 H1687 0.959 . S
C1681 H1688 0.961 . S
C1681 H1689 0.960 . S
C1682 C1680 1.381 . S
C1682 C1683 1.394 . S
C1682 H1690 0.930 1_455 S
C1683 C1682 1.394 . S
C1683 C1684 1.383 . S
C1683 H1691 0.929 1_456 S
C1684 C1683 1.383 . S
C1684 C1685 1.377 . S
C1685 H1669 0.930 . S
C1685 C1684 1.377 . S
C1685 C1686 1.379 . S
C1686 H1670 0.931 . S
C1686 C1680 1.383 . S
C1686 C1685 1.379 . S
H1687 C1681 0.959 . S
H1688 C1681 0.961 . S
H1689 C1681 0.960 . S
H1690 C1682 0.930 1_655 S
H1691 C1683 0.929 1_654 S
H1692 C1700 0.929 . S
H1693 C1702 0.930 . S
H1694 C1704 0.930 . S
H1695 C1707 0.929 . S
H1696 C1710 0.930 . S
H1697 C1712 0.960 . S
H1698 C1712 0.960 . S
H1699 C1712 0.960 . S
C1700 H1692 0.929 . S
C1700 C1701 1.377 . S
C1700 C1702 1.384 . S
C1701 C1700 1.377 . S
C1701 C1707 1.390 . S
C1702 H1693 0.930 . S
C1702 C1700 1.384 . S
C1702 C1703 1.372 . S
C1703 C1702 1.372 . S
C1703 C1704 1.400 . S
C1703 C1708 1.490 . S
C1704 H1694 0.930 . S
C1704 C1703 1.400 . S
C1704 C1707 1.386 . S
H1705 C1721 0.930 . S
H1706 C1722 0.931 . S
C1707 H1695 0.929 . S
C1707 C1701 1.390 . S
C1707 C1704 1.386 . S
C1708 C1703 1.490 . S
C1708 C1710 1.395 . S
C1708 C1711 1.403 . S
H1709 C1715 0.930 . S
C1710 H1696 0.930 . S
C1710 C1708 1.395 . S
C1710 C1713 1.403 . S
C1711 C1708 1.403 . S
C1711 C1712 1.524 . S
C1711 C1715 1.400 . S
C1712 H1697 0.960 . S
C1712 H1698 0.960 . S
C1712 H1699 0.960 . S
C1712 C1711 1.524 . S
C1713 C1710 1.403 . S
C1713 C1714 1.392 . S
C1713 C1717 1.495 . S
C1714 C1713 1.392 . S
C1714 C1715 1.385 . S
C1714 C1716 1.478 . S
C1715 H1709 0.930 . S
C1715 C1711 1.400 . S
C1715 C1714 1.385 . S
C1716 C1714 1.478 . S
C1716 C1718 1.381 . S
C1716 C1722 1.383 . S
C1717 C1713 1.495 . S
C1717 H1723 0.959 . S
C1717 H1724 0.961 . S
C1717 H1725 0.960 . S
C1718 C1716 1.381 . S
C1718 C1719 1.394 . S
C1718 H1726 0.930 . S
C1719 C1718 1.394 . S
C1719 C1720 1.383 . S
C1719 H1727 0.929 . S
C1720 C1719 1.383 . S
C1720 C1721 1.377 . S
C1721 H1705 0.930 . S
C1721 C1720 1.377 . S
C1721 C1722 1.379 . S
C1722 H1706 0.931 . S
C1722 C1716 1.383 . S
C1722 C1721 1.379 . S
H1723 C1717 0.959 . S
H1724 C1717 0.961 . S
H1725 C1717 0.960 . S
H1726 C1718 0.930 . S
H1727 C1719 0.929 . S
H1728 C1736 0.929 . S
H1729 C1738 0.930 . S
H1730 C1740 0.930 . S
H1731 C1743 0.929 . S
H1732 C1746 0.930 . S
H1733 C1748 0.960 . S
H1734 C1748 0.960 . S
H1735 C1748 0.960 . S
C1736 H1728 0.929 . S
C1736 C1737 1.377 . S
C1736 C1738 1.384 . S
C1737 C1736 1.377 . S
C1737 C1743 1.390 . S
C1738 H1729 0.930 . S
C1738 C1736 1.384 . S
C1738 C1739 1.372 . S
C1739 C1738 1.372 . S
C1739 C1740 1.400 . S
C1739 C1744 1.490 . S
C1740 H1730 0.930 . S
C1740 C1739 1.400 . S
C1740 C1743 1.386 . S
H1741 C1757 0.930 . S
H1742 C1758 0.931 . S
C1743 H1731 0.929 . S
C1743 C1737 1.390 . S
C1743 C1740 1.386 . S
C1744 C1739 1.490 . S
C1744 C1746 1.395 . S
C1744 C1747 1.403 . S
H1745 C1751 0.930 . S
C1746 H1732 0.930 . S
C1746 C1744 1.395 . S
C1746 C1749 1.403 . S
C1747 C1744 1.403 . S
C1747 C1748 1.524 . S
C1747 C1751 1.400 . S
C1748 H1733 0.960 . S
C1748 H1734 0.960 . S
C1748 H1735 0.960 . S
C1748 C1747 1.524 . S
C1749 C1746 1.403 . S
C1749 C1750 1.392 . S
C1749 C1753 1.495 . S
C1750 C1749 1.392 . S
C1750 C1751 1.385 . S
C1750 C1752 1.478 . S
C1751 H1745 0.930 . S
C1751 C1747 1.400 . S
C1751 C1750 1.385 . S
C1752 C1750 1.478 . S
C1752 C1754 1.381 . S
C1752 C1758 1.383 . S
C1753 C1749 1.495 . S
C1753 H1759 0.959 . S
C1753 H1760 0.961 . S
C1753 H1761 0.960 . S
C1754 C1752 1.381 . S
C1754 C1755 1.394 . S
C1754 H1762 0.930 . S
C1755 C1754 1.394 . S
C1755 C1756 1.383 . S
C1755 H1763 0.929 . S
C1756 C1755 1.383 . S
C1756 C1757 1.377 . S
C1757 H1741 0.930 . S
C1757 C1756 1.377 . S
C1757 C1758 1.379 . S
C1758 H1742 0.931 . S
C1758 C1752 1.383 . S
C1758 C1757 1.379 . S
H1759 C1753 0.959 . S
H1760 C1753 0.961 . S
H1761 C1753 0.960 . S
H1762 C1754 0.930 . S
H1763 C1755 0.929 . S
H1764 C1772 0.929 . S
H1765 C1774 0.930 . S
H1766 C1776 0.930 . S
H1767 C1779 0.929 . S
H1768 C1782 0.930 . S
H1769 C1784 0.960 . S
H1770 C1784 0.960 . S
H1771 C1784 0.960 . S
C1772 H1764 0.929 . S
C1772 C1773 1.377 . S
C1772 C1774 1.384 . S
C1773 C1772 1.377 . S
C1773 C1779 1.390 . S
C1774 H1765 0.930 . S
C1774 C1772 1.384 . S
C1774 C1775 1.372 . S
C1775 C1774 1.372 . S
C1775 C1776 1.400 . S
C1775 C1780 1.490 . S
C1776 H1766 0.930 . S
C1776 C1775 1.400 . S
C1776 C1779 1.386 . S
H1777 C1793 0.930 . S
H1778 C1794 0.931 . S
C1779 H1767 0.929 . S
C1779 C1773 1.390 . S
C1779 C1776 1.386 . S
C1780 C1775 1.490 . S
C1780 C1782 1.395 . S
C1780 C1783 1.403 . S
H1781 C1787 0.930 . S
C1782 H1768 0.930 . S
C1782 C1780 1.395 . S
C1782 C1785 1.403 . S
C1783 C1780 1.403 . S
C1783 C1784 1.524 . S
C1783 C1787 1.400 . S
C1784 H1769 0.960 . S
C1784 H1770 0.960 . S
C1784 H1771 0.960 . S
C1784 C1783 1.524 . S
C1785 C1782 1.403 . S
C1785 C1786 1.392 . S
C1785 C1789 1.495 . S
C1786 C1785 1.392 . S
C1786 C1787 1.385 . S
C1786 C1788 1.478 . S
C1787 H1781 0.930 . S
C1787 C1783 1.400 . S
C1787 C1786 1.385 . S
C1788 C1786 1.478 . S
C1788 C1790 1.381 . S
C1788 C1794 1.383 . S
C1789 C1785 1.495 . S
C1789 H1795 0.959 . S
C1789 H1796 0.961 . S
C1789 H1797 0.960 . S
C1790 C1788 1.381 . S
C1790 C1791 1.394 . S
C1790 H1798 0.930 . S
C1791 C1790 1.394 . S
C1791 C1792 1.383 . S
C1791 H1799 0.929 . S
C1792 C1791 1.383 . S
C1792 C1793 1.377 . S
C1793 H1777 0.930 . S
C1793 C1792 1.377 . S
C1793 C1794 1.379 . S
C1794 H1778 0.931 . S
C1794 C1788 1.383 . S
C1794 C1793 1.379 . S
H1795 C1789 0.959 . S
H1796 C1789 0.961 . S
H1797 C1789 0.960 . S
H1798 C1790 0.930 . S
H1799 C1791 0.929 . S
H1800 C1808 0.929 . S
H1801 C1810 0.930 . S
H1802 C1812 0.930 . S
H1803 C1815 0.929 . S
H1804 C1818 0.930 . S
H1805 C1820 0.960 . S
H1806 C1820 0.960 . S
H1807 C1820 0.960 . S
C1808 H1800 0.929 . S
C1808 C1809 1.377 1_455 S
C1808 C1810 1.384 . S
C1809 C1808 1.377 1_655 S
C1809 C1815 1.390 . S
C1810 H1801 0.930 . S
C1810 C1808 1.384 . S
C1810 C1811 1.372 . S
C1811 C1810 1.372 . S
C1811 C1812 1.400 1_455 S
C1811 C1816 1.490 . S
C1812 H1802 0.930 . S
C1812 C1811 1.400 1_655 S
C1812 C1815 1.386 . S
H1813 C1829 0.930 . S
H1814 C1830 0.931 . S
C1815 H1803 0.929 . S
C1815 C1809 1.390 . S
C1815 C1812 1.386 . S
C1816 C1811 1.490 . S
C1816 C1818 1.395 . S
C1816 C1819 1.403 1_455 S
H1817 C1823 0.942 . S
C1818 H1804 0.930 . S
C1818 C1816 1.395 . S
C1818 C1821 1.403 . S
C1819 C1816 1.403 1_655 S
C1819 C1820 1.524 . S
C1819 C1823 1.404 . S
C1820 H1805 0.960 . S
C1820 H1806 0.960 . S
C1820 H1807 0.960 . S
C1820 C1819 1.524 . S
C1821 C1818 1.403 . S
C1821 C1822 1.392 . S
C1821 C1825 1.495 . S
C1822 C1821 1.392 . S
C1822 C1823 1.371 1_455 S
C1822 C1824 1.478 . S
C1823 H1817 0.942 . S
C1823 C1819 1.404 . S
C1823 C1822 1.371 1_655 S
C1824 C1822 1.478 . S
C1824 C1826 1.381 . S
C1824 C1830 1.383 . S
C1825 C1821 1.495 . S
C1825 H1831 0.959 . S
C1825 H1832 0.961 . S
C1825 H1833 0.960 . S
C1826 C1824 1.381 . S
C1826 C1827 1.394 . S
C1826 H1834 0.930 . S
C1827 C1826 1.394 . S
C1827 C1828 1.383 . S
C1827 H1835 0.929 . S
C1828 C1827 1.383 . S
C1828 C1829 1.377 . S
C1829 H1813 0.930 . S
C1829 C1828 1.377 . S
C1829 C1830 1.379 . S
C1830 H1814 0.931 . S
C1830 C1824 1.383 . S
C1830 C1829 1.379 . S
H1831 C1825 0.959 . S
H1832 C1825 0.961 . S
H1833 C1825 0.960 . S
H1834 C1826 0.930 . S
H1835 C1827 0.929 . S
H1836 C1844 0.929 . S
H1837 C1846 0.930 . S
H1838 C1848 0.930 . S
H1839 C1851 0.929 . S
H1840 C1854 0.930 . S
H1841 C1856 0.960 . S
H1842 C1856 0.960 . S
H1843 C1856 0.960 . S
C1844 H1836 0.929 . S
C1844 C1845 1.377 . S
C1844 C1846 1.384 . S
C1845 C1844 1.377 . S
C1845 C1851 1.390 . S
C1846 H1837 0.930 . S
C1846 C1844 1.384 . S
C1846 C1847 1.372 . S
C1847 C1846 1.372 . S
C1847 C1848 1.400 . S
C1847 C1852 1.490 . S
C1848 H1838 0.930 . S
C1848 C1847 1.400 . S
C1848 C1851 1.386 . S
H1849 C1865 0.930 . S
H1850 C1866 0.931 . S
C1851 H1839 0.929 . S
C1851 C1845 1.390 . S
C1851 C1848 1.386 . S
C1852 C1847 1.490 . S
C1852 C1854 1.395 . S
C1852 C1855 1.403 . S
H1853 C1859 0.930 . S
C1854 H1840 0.930 . S
C1854 C1852 1.395 . S
C1854 C1857 1.403 . S
C1855 C1852 1.403 . S
C1855 C1856 1.524 . S
C1855 C1859 1.400 . S
C1856 H1841 0.960 . S
C1856 H1842 0.960 . S
C1856 H1843 0.960 . S
C1856 C1855 1.524 . S
C1857 C1854 1.403 . S
C1857 C1858 1.392 . S
C1857 C1861 1.495 . S
C1858 C1857 1.392 . S
C1858 C1859 1.385 . S
C1858 C1860 1.478 . S
C1859 H1853 0.930 . S
C1859 C1855 1.400 . S
C1859 C1858 1.385 . S
C1860 C1858 1.478 . S
C1860 C1862 1.381 . S
C1860 C1866 1.383 . S
C1861 C1857 1.495 . S
C1861 H1867 0.959 . S
C1861 H1868 0.961 . S
C1861 H1869 0.960 . S
C1862 C1860 1.381 . S
C1862 C1863 1.394 . S
C1862 H1870 0.930 . S
C1863 C1862 1.394 . S
C1863 C1864 1.383 . S
C1863 H1871 0.929 . S
C1864 C1863 1.383 . S
C1864 C1865 1.377 . S
C1865 H1849 0.930 . S
C1865 C1864 1.377 . S
C1865 C1866 1.379 . S
C1866 H1850 0.931 . S
C1866 C1860 1.383 . S
C1866 C1865 1.379 . S
H1867 C1861 0.959 . S
H1868 C1861 0.961 . S
H1869 C1861 0.960 . S
H1870 C1862 0.930 . S
H1871 C1863 0.929 . S
H1872 C1880 0.929 . S
H1873 C1882 0.930 . S
H1874 C1884 0.930 . S
H1875 C1887 0.929 . S
H1876 C1890 0.930 . S
H1877 C1892 0.960 . S
H1878 C1892 0.960 . S
H1879 C1892 0.960 . S
C1880 H1872 0.929 . S
C1880 C1881 1.377 . S
C1880 C1882 1.384 . S
C1881 C1880 1.377 . S
C1881 C1887 1.390 . S
C1882 H1873 0.930 . S
C1882 C1880 1.384 . S
C1882 C1883 1.372 . S
C1883 C1882 1.372 . S
C1883 C1884 1.400 . S
C1883 C1888 1.490 . S
C1884 H1874 0.930 . S
C1884 C1883 1.400 . S
C1884 C1887 1.386 . S
H1885 C1901 0.930 . S
H1886 C1902 0.931 . S
C1887 H1875 0.929 . S
C1887 C1881 1.390 . S
C1887 C1884 1.386 . S
C1888 C1883 1.490 . S
C1888 C1890 1.395 . S
C1888 C1891 1.403 . S
H1889 C1895 0.930 . S
C1890 H1876 0.930 . S
C1890 C1888 1.395 . S
C1890 C1893 1.403 . S
C1891 C1888 1.403 . S
C1891 C1892 1.524 . S
C1891 C1895 1.400 . S
C1892 H1877 0.960 . S
C1892 H1878 0.960 . S
C1892 H1879 0.960 . S
C1892 C1891 1.524 . S
C1893 C1890 1.403 . S
C1893 C1894 1.392 . S
C1893 C1897 1.495 . S
C1894 C1893 1.392 . S
C1894 C1895 1.385 . S
C1894 C1896 1.478 . S
C1895 H1889 0.930 . S
C1895 C1891 1.400 . S
C1895 C1894 1.385 . S
C1896 C1894 1.478 . S
C1896 C1898 1.381 . S
C1896 C1902 1.383 . S
C1897 C1893 1.495 . S
C1897 H1903 0.959 . S
C1897 H1904 0.961 . S
C1897 H1905 0.960 . S
C1898 C1896 1.381 . S
C1898 C1899 1.394 . S
C1898 H1906 0.930 . S
C1899 C1898 1.394 . S
C1899 C1900 1.383 . S
C1899 H1907 0.929 . S
C1900 C1899 1.383 . S
C1900 C1901 1.377 . S
C1901 H1885 0.930 . S
C1901 C1900 1.377 . S
C1901 C1902 1.379 . S
C1902 H1886 0.931 . S
C1902 C1896 1.383 . S
C1902 C1901 1.379 . S
H1903 C1897 0.959 . S
H1904 C1897 0.961 . S
H1905 C1897 0.960 . S
H1906 C1898 0.930 . S
H1907 C1899 0.929 . S
H1908 C1916 0.929 . S
H1909 C1918 0.930 . S
H1910 C1920 0.930 . S
H1911 C1923 0.929 . S
H1912 C1926 0.930 . S
H1913 C1928 0.960 . S
H1914 C1928 0.960 . S
H1915 C1928 0.960 . S
C1916 H1908 0.929 . S
C1916 C1917 1.377 . S
C1916 C1918 1.384 . S
C1917 C1916 1.377 . S
C1917 C1923 1.390 . S
C1918 H1909 0.930 . S
C1918 C1916 1.384 . S
C1918 C1919 1.372 . S
C1919 C1918 1.372 . S
C1919 C1920 1.400 . S
C1919 C1924 1.490 . S
C1920 H1910 0.930 . S
C1920 C1919 1.400 . S
C1920 C1923 1.386 . S
H1921 C1937 0.930 . S
H1922 C1938 0.931 . S
C1923 H1911 0.929 . S
C1923 C1917 1.390 . S
C1923 C1920 1.386 . S
C1924 C1919 1.490 . S
C1924 C1926 1.395 . S
C1924 C1927 1.403 . S
H1925 C1931 0.930 . S
C1926 H1912 0.930 . S
C1926 C1924 1.395 . S
C1926 C1929 1.403 . S
C1927 C1924 1.403 . S
C1927 C1928 1.524 . S
C1927 C1931 1.400 . S
C1928 H1913 0.960 . S
C1928 H1914 0.960 . S
C1928 H1915 0.960 . S
C1928 C1927 1.524 . S
C1929 C1926 1.403 . S
C1929 C1930 1.392 . S
C1929 C1933 1.495 . S
C1930 C1929 1.392 . S
C1930 C1931 1.385 . S
C1930 C1932 1.478 . S
C1931 H1925 0.930 . S
C1931 C1927 1.400 . S
C1931 C1930 1.385 . S
C1932 C1930 1.478 . S
C1932 C1934 1.381 . S
C1932 C1938 1.383 . S
C1933 C1929 1.495 . S
C1933 H1939 0.959 . S
C1933 H1940 0.961 . S
C1933 H1941 0.960 . S
C1934 C1932 1.381 . S
C1934 C1935 1.394 . S
C1934 H1942 0.930 . S
C1935 C1934 1.394 . S
C1935 C1936 1.383 . S
C1935 H1943 0.929 . S
C1936 C1935 1.383 . S
C1936 C1937 1.377 . S
C1937 H1921 0.930 . S
C1937 C1936 1.377 . S
C1937 C1938 1.379 . S
C1938 H1922 0.931 . S
C1938 C1932 1.383 . S
C1938 C1937 1.379 . S
H1939 C1933 0.959 . S
H1940 C1933 0.961 . S
H1941 C1933 0.960 . S
H1942 C1934 0.930 . S
H1943 C1935 0.929 . S
H1944 C1952 0.929 . S
H1945 C1954 0.930 . S
H1946 C1956 0.930 . S
H1947 C1959 0.929 . S
H1948 C1962 0.930 . S
H1949 C1964 0.960 . S
H1950 C1964 0.960 . S
H1951 C1964 0.960 . S
C1952 H1944 0.929 . S
C1952 C1953 1.377 . S
C1952 C1954 1.384 . S
C1953 C1952 1.377 . S
C1953 C1959 1.390 . S
C1954 H1945 0.930 . S
C1954 C1952 1.384 . S
C1954 C1955 1.372 . S
C1955 C1954 1.372 . S
C1955 C1956 1.400 . S
C1955 C1960 1.490 . S
C1956 H1946 0.930 . S
C1956 C1955 1.400 . S
C1956 C1959 1.386 . S
H1957 C1973 0.900 1_455 S
H1958 C1974 0.931 . S
C1959 H1947 0.929 . S
C1959 C1953 1.390 . S
C1959 C1956 1.386 . S
C1960 C1955 1.490 . S
C1960 C1962 1.395 . S
C1960 C1963 1.403 . S
H1961 C1967 0.930 . S
C1962 H1948 0.930 . S
C1962 C1960 1.395 . S
C1962 C1965 1.403 . S
C1963 C1960 1.403 . S
C1963 C1964 1.524 . S
C1963 C1967 1.400 . S
C1964 H1949 0.960 . S
C1964 H1950 0.960 . S
C1964 H1951 0.960 . S
C1964 C1963 1.524 . S
C1965 C1962 1.403 . S
C1965 C1966 1.392 . S
C1965 C1969 1.535 . S
C1966 C1965 1.392 . S
C1966 C1967 1.385 . S
C1966 C1968 1.478 . S
C1967 H1961 0.930 . S
C1967 C1963 1.400 . S
C1967 C1966 1.385 . S
C1968 C1966 1.478 . S
C1968 C1970 1.381 . S
C1968 C1974 1.383 . S
C1969 C1965 1.535 . S
C1969 H1975 0.928 1_545 S
C1969 H1976 0.966 . S
C1969 H1977 0.949 1_545 S
C1970 C1968 1.381 . S
C1970 C1971 1.394 . S
C1970 H1978 0.930 . S
C1971 C1970 1.394 . S
C1971 C1972 1.383 . S
C1971 H1979 0.929 . S
C1972 C1971 1.383 . S
C1972 C1973 1.377 . S
C1973 H1957 0.900 1_655 S
C1973 C1972 1.377 . S
C1973 C1974 1.379 . S
C1974 H1958 0.931 . S
C1974 C1968 1.383 . S
C1974 C1973 1.379 . S
H1975 C1969 0.928 1_565 S
H1976 C1969 0.966 . S
H1977 C1969 0.949 1_565 S
H1978 C1970 0.930 . S
H1979 C1971 0.929 . S
H1980 C1988 0.929 . S
H1981 C1990 0.930 . S
H1982 C1992 0.930 . S
H1983 C1995 0.929 . S
H1984 C1998 0.930 . S
H1985 C2000 0.960 . S
H1986 C2000 0.960 . S
H1987 C2000 0.960 . S
C1988 H1980 0.929 . S
C1988 C1989 1.377 . S
C1988 C1990 1.384 . S
C1989 C1988 1.377 . S
C1989 C1995 1.390 . S
C1990 H1981 0.930 . S
C1990 C1988 1.384 . S
C1990 C1991 1.372 . S
C1991 C1990 1.372 . S
C1991 C1992 1.400 . S
C1991 C1996 1.490 . S
C1992 H1982 0.930 . S
C1992 C1991 1.400 . S
C1992 C1995 1.386 . S
H1993 C2009 0.930 . S
H1994 C2010 0.931 . S
C1995 H1983 0.929 . S
C1995 C1989 1.390 . S
C1995 C1992 1.386 . S
C1996 C1991 1.490 . S
C1996 C1998 1.395 . S
C1996 C1999 1.403 . S
H1997 C2003 0.930 . S
C1998 H1984 0.930 . S
C1998 C1996 1.395 . S
C1998 C2001 1.403 . S
C1999 C1996 1.403 . S
C1999 C2000 1.524 . S
C1999 C2003 1.400 . S
C2000 H1985 0.960 . S
C2000 H1986 0.960 . S
C2000 H1987 0.960 . S
C2000 C1999 1.524 . S
C2001 C1998 1.403 . S
C2001 C2002 1.392 . S
C2001 C2005 1.495 . S
C2002 C2001 1.392 . S
C2002 C2003 1.385 . S
C2002 C2004 1.478 . S
C2003 H1997 0.930 . S
C2003 C1999 1.400 . S
C2003 C2002 1.385 . S
C2004 C2002 1.478 . S
C2004 C2006 1.381 . S
C2004 C2010 1.383 . S
C2005 C2001 1.495 . S
C2005 H2011 0.959 . S
C2005 H2012 0.961 . S
C2005 H2013 0.960 . S
C2006 C2004 1.381 . S
C2006 C2007 1.394 . S
C2006 H2014 0.930 . S
C2007 C2006 1.394 . S
C2007 C2008 1.383 . S
C2007 H2015 0.929 . S
C2008 C2007 1.383 . S
C2008 C2009 1.377 . S
C2009 H1993 0.930 . S
C2009 C2008 1.377 . S
C2009 C2010 1.379 . S
C2010 H1994 0.931 . S
C2010 C2004 1.383 . S
C2010 C2009 1.379 . S
H2011 C2005 0.959 . S
H2012 C2005 0.961 . S
H2013 C2005 0.960 . S
H2014 C2006 0.930 . S
H2015 C2007 0.929 . S
H2016 C2024 0.929 . S
H2017 C2026 0.930 . S
H2018 C2028 0.930 . S
H2019 C2031 0.929 . S
H2020 C2034 0.930 . S
H2021 C2036 0.960 . S
H2022 C2036 0.960 . S
H2023 C2036 0.960 . S
C2024 H2016 0.929 . S
C2024 C2025 1.377 1_565 S
C2024 C2026 1.384 . S
C2025 C2024 1.377 1_545 S
C2025 C2031 1.390 . S
C2026 H2017 0.930 . S
C2026 C2024 1.384 . S
C2026 C2027 1.372 1_565 S
C2027 C2026 1.372 1_545 S
C2027 C2028 1.400 . S
C2027 C2032 1.490 . S
C2028 H2018 0.930 . S
C2028 C2027 1.400 . S
C2028 C2031 1.386 . S
H2029 C2045 0.930 . S
H2030 C2046 0.931 . S
C2031 H2019 0.929 . S
C2031 C2025 1.390 . S
C2031 C2028 1.386 . S
C2032 C2027 1.490 . S
C2032 C2034 1.395 1_545 S
C2032 C2035 1.403 . S
H2033 C2039 0.930 . S
C2034 H2020 0.930 . S
C2034 C2032 1.395 1_565 S
C2034 C2037 1.403 . S
C2035 C2032 1.403 . S
C2035 C2036 1.524 . S
C2035 C2039 1.400 . S
C2036 H2021 0.960 . S
C2036 H2022 0.960 . S
C2036 H2023 0.960 . S
C2036 C2035 1.524 . S
C2037 C2034 1.403 . S
C2037 C2038 1.392 1_565 S
C2037 C2041 1.495 . S
C2038 C2037 1.392 1_545 S
C2038 C2039 1.385 . S
C2038 C2040 1.478 . S
C2039 H2033 0.930 . S
C2039 C2035 1.400 . S
C2039 C2038 1.385 . S
C2040 C2038 1.478 . S
C2040 C2042 1.353 1_545 S
C2040 C2046 1.383 . S
C2041 C2037 1.495 . S
C2041 H2047 0.959 . S
C2041 H2048 0.961 . S
C2041 H2049 0.960 . S
C2042 C2040 1.353 1_565 S
C2042 C2043 1.391 1_565 S
C2042 H2050 0.963 . S
C2043 C2042 1.391 1_545 S
C2043 C2044 1.383 . S
C2043 H2051 0.929 1_545 S
C2044 C2043 1.383 . S
C2044 C2045 1.377 . S
C2045 H2029 0.930 . S
C2045 C2044 1.377 . S
C2045 C2046 1.379 . S
C2046 H2030 0.931 . S
C2046 C2040 1.383 . S
C2046 C2045 1.379 . S
H2047 C2041 0.959 . S
H2048 C2041 0.961 . S
H2049 C2041 0.960 . S
H2050 C2042 0.963 . S
H2051 C2043 0.929 1_565 S
H2052 C2060 0.929 . S
H2053 C2062 0.930 . S
H2054 C2064 0.930 . S
H2055 C2067 0.929 . S
H2056 C2070 0.930 . S
H2057 C2072 0.960 . S
H2058 C2072 0.960 . S
H2059 C2072 0.960 . S
C2060 H2052 0.929 . S
C2060 C2061 1.377 . S
C2060 C2062 1.384 . S
C2061 C2060 1.377 . S
C2061 C2067 1.390 . S
C2062 H2053 0.930 . S
C2062 C2060 1.384 . S
C2062 C2063 1.372 . S
C2063 C2062 1.372 . S
C2063 C2064 1.400 . S
C2063 C2068 1.490 . S
C2064 H2054 0.930 . S
C2064 C2063 1.400 . S
C2064 C2067 1.386 . S
H2065 C2081 0.930 . S
H2066 C2082 0.931 . S
C2067 H2055 0.929 . S
C2067 C2061 1.390 . S
C2067 C2064 1.386 . S
C2068 C2063 1.490 . S
C2068 C2070 1.395 . S
C2068 C2071 1.403 . S
H2069 C2075 0.930 . S
C2070 H2056 0.930 . S
C2070 C2068 1.395 . S
C2070 C2073 1.403 . S
C2071 C2068 1.403 . S
C2071 C2072 1.524 . S
C2071 C2075 1.400 . S
C2072 H2057 0.960 . S
C2072 H2058 0.960 . S
C2072 H2059 0.960 . S
C2072 C2071 1.524 . S
C2073 C2070 1.403 . S
C2073 C2074 1.392 . S
C2073 C2077 1.495 . S
C2074 C2073 1.392 . S
C2074 C2075 1.385 . S
C2074 C2076 1.478 . S
C2075 H2069 0.930 . S
C2075 C2071 1.400 . S
C2075 C2074 1.385 . S
C2076 C2074 1.478 . S
C2076 C2078 1.381 . S
C2076 C2082 1.383 . S
C2077 C2073 1.495 . S
C2077 H2083 0.959 . S
C2077 H2084 0.961 . S
C2077 H2085 0.960 . S
C2078 C2076 1.381 . S
C2078 C2079 1.394 . S
C2078 H2086 0.930 . S
C2079 C2078 1.394 . S
C2079 C2080 1.383 . S
C2079 H2087 0.929 . S
C2080 C2079 1.383 . S
C2080 C2081 1.377 . S
C2081 H2065 0.930 . S
C2081 C2080 1.377 . S
C2081 C2082 1.379 . S
C2082 H2066 0.931 . S
C2082 C2076 1.383 . S
C2082 C2081 1.379 . S
H2083 C2077 0.959 . S
H2084 C2077 0.961 . S
H2085 C2077 0.960 . S
H2086 C2078 0.930 . S
H2087 C2079 0.929 . S
H2088 C2096 0.929 . S
H2089 C2098 0.930 . S
H2090 C2100 0.930 . S
H2091 C2103 0.929 . S
H2092 C2106 0.930 . S
H2093 C2108 0.960 . S
H2094 C2108 0.960 . S
H2095 C2108 0.960 . S
C2096 H2088 0.929 . S
C2096 C2097 1.377 . S
C2096 C2098 1.384 . S
C2097 C2096 1.377 . S
C2097 C2103 1.390 . S
C2098 H2089 0.930 . S
C2098 C2096 1.384 . S
C2098 C2099 1.372 . S
C2099 C2098 1.372 . S
C2099 C2100 1.400 . S
C2099 C2104 1.490 . S
C2100 H2090 0.930 . S
C2100 C2099 1.400 . S
C2100 C2103 1.386 . S
H2101 C2117 0.930 . S
H2102 C2118 0.931 . S
C2103 H2091 0.929 . S
C2103 C2097 1.390 . S
C2103 C2100 1.386 . S
C2104 C2099 1.490 . S
C2104 C2106 1.395 . S
C2104 C2107 1.403 . S
H2105 C2111 0.930 . S
C2106 H2092 0.930 . S
C2106 C2104 1.395 . S
C2106 C2109 1.403 . S
C2107 C2104 1.403 . S
C2107 C2108 1.524 . S
C2107 C2111 1.400 . S
C2108 H2093 0.960 . S
C2108 H2094 0.960 . S
C2108 H2095 0.960 . S
C2108 C2107 1.524 . S
C2109 C2106 1.403 . S
C2109 C2110 1.392 . S
C2109 C2113 1.495 1_545 S
C2110 C2109 1.392 . S
C2110 C2111 1.385 . S
C2110 C2112 1.478 . S
C2111 H2105 0.930 . S
C2111 C2107 1.400 . S
C2111 C2110 1.385 . S
C2112 C2110 1.478 . S
C2112 C2114 1.381 . S
C2112 C2118 1.383 . S
C2113 C2109 1.495 1_565 S
C2113 H2119 0.959 . S
C2113 H2120 0.961 . S
C2113 H2121 0.960 . S
C2114 C2112 1.381 . S
C2114 C2115 1.377 1_655 S
C2114 H2122 0.930 . S
C2115 C2114 1.377 1_455 S
C2115 C2116 1.366 1_455 S
C2115 H2123 0.964 . S
C2116 C2115 1.366 1_655 S
C2116 C2117 1.377 . S
C2117 H2101 0.930 . S
C2117 C2116 1.377 . S
C2117 C2118 1.379 . S
C2118 H2102 0.931 . S
C2118 C2112 1.383 . S
C2118 C2117 1.379 . S
H2119 C2113 0.959 . S
H2120 C2113 0.961 . S
H2121 C2113 0.960 . S
H2122 C2114 0.930 . S
H2123 C2115 0.964 . S
H2124 C2132 0.929 . S
H2125 C2134 0.930 . S
H2126 C2136 0.930 . S
H2127 C2139 0.929 . S
H2128 C2142 0.930 . S
H2129 C2144 0.960 . S
H2130 C2144 0.960 . S
H2131 C2144 0.960 . S
C2132 H2124 0.929 . S
C2132 C2133 1.377 . S
C2132 C2134 1.384 . S
C2133 C2132 1.377 . S
C2133 C2139 1.390 . S
C2134 H2125 0.930 . S
C2134 C2132 1.384 . S
C2134 C2135 1.372 . S
C2135 C2134 1.372 . S
C2135 C2136 1.400 . S
C2135 C2140 1.490 . S
C2136 H2126 0.930 . S
C2136 C2135 1.400 . S
C2136 C2139 1.386 . S
H2137 C2153 0.930 . S
H2138 C2154 0.931 . S
C2139 H2127 0.929 . S
C2139 C2133 1.390 . S
C2139 C2136 1.386 . S
C2140 C2135 1.490 . S
C2140 C2142 1.395 . S
C2140 C2143 1.403 . S
H2141 C2147 0.930 . S
C2142 H2128 0.930 . S
C2142 C2140 1.395 . S
C2142 C2145 1.403 . S
C2143 C2140 1.403 . S
C2143 C2144 1.524 . S
C2143 C2147 1.400 . S
C2144 H2129 0.960 . S
C2144 H2130 0.960 . S
C2144 H2131 0.960 . S
C2144 C2143 1.524 . S
C2145 C2142 1.403 . S
C2145 C2146 1.392 . S
C2145 C2149 1.495 . S
C2146 C2145 1.392 . S
C2146 C2147 1.385 . S
C2146 C2148 1.478 . S
C2147 H2141 0.930 . S
C2147 C2143 1.400 . S
C2147 C2146 1.385 . S
C2148 C2146 1.478 . S
C2148 C2150 1.381 . S
C2148 C2154 1.383 . S
C2149 C2145 1.495 . S
C2149 H2155 0.959 . S
C2149 H2156 0.961 . S
C2149 H2157 0.960 . S
C2150 C2148 1.381 . S
C2150 C2151 1.394 . S
C2150 H2158 0.930 . S
C2151 C2150 1.394 . S
C2151 C2152 1.383 . S
C2151 H2159 0.929 . S
C2152 C2151 1.383 . S
C2152 C2153 1.377 . S
C2153 H2137 0.930 . S
C2153 C2152 1.377 . S
C2153 C2154 1.379 . S
C2154 H2138 0.931 . S
C2154 C2148 1.383 . S
C2154 C2153 1.379 . S
H2155 C2149 0.959 . S
H2156 C2149 0.961 . S
H2157 C2149 0.960 . S
H2158 C2150 0.930 . S
H2159 C2151 0.929 . S
H2160 C2168 0.929 . S
H2161 C2170 0.930 . S
H2162 C2172 0.930 . S
H2163 C2175 0.929 . S
H2164 C2178 0.930 . S
H2165 C2180 0.960 . S
H2166 C2180 0.960 . S
H2167 C2180 0.960 . S
C2168 H2160 0.929 . S
C2168 C2169 1.377 . S
C2168 C2170 1.384 . S
C2169 C2168 1.377 . S
C2169 C2175 1.390 1_545 S
C2170 H2161 0.930 . S
C2170 C2168 1.384 . S
C2170 C2171 1.372 . S
C2171 C2170 1.372 . S
C2171 C2172 1.400 1_545 S
C2171 C2176 1.490 . S
C2172 H2162 0.930 . S
C2172 C2171 1.400 1_565 S
C2172 C2175 1.386 . S
H2173 C2189 0.930 . S
H2174 C2190 0.931 . S
C2175 H2163 0.929 . S
C2175 C2169 1.390 1_565 S
C2175 C2172 1.386 . S
C2176 C2171 1.490 . S
C2176 C2178 1.395 . S
C2176 C2179 1.403 . S
H2177 C2183 0.930 . S
C2178 H2164 0.930 . S
C2178 C2176 1.395 . S
C2178 C2181 1.403 . S
C2179 C2176 1.403 . S
C2179 C2180 1.524 . S
C2179 C2183 1.400 . S
C2180 H2165 0.960 . S
C2180 H2166 0.960 . S
C2180 H2167 0.960 . S
C2180 C2179 1.524 . S
C2181 C2178 1.403 . S
C2181 C2182 1.392 . S
C2181 C2185 1.495 . S
C2182 C2181 1.392 . S
C2182 C2183 1.385 . S
C2182 C2184 1.478 . S
C2183 H2177 0.930 . S
C2183 C2179 1.400 . S
C2183 C2182 1.385 . S
C2184 C2182 1.478 . S
C2184 C2186 1.381 . S
C2184 C2190 1.383 . S
C2185 C2181 1.495 . S
C2185 H2191 0.959 1_545 S
C2185 H2192 0.961 1_545 S
C2185 H2193 0.960 . S
C2186 C2184 1.381 . S
C2186 C2187 1.394 . S
C2186 H2194 0.930 . S
C2187 C2186 1.394 . S
C2187 C2188 1.383 . S
C2187 H2195 0.929 . S
C2188 C2187 1.383 . S
C2188 C2189 1.377 . S
C2189 H2173 0.930 . S
C2189 C2188 1.377 . S
C2189 C2190 1.379 . S
C2190 H2174 0.931 . S
C2190 C2184 1.383 . S
C2190 C2189 1.379 . S
H2191 C2185 0.959 1_565 S
H2192 C2185 0.961 1_565 S
H2193 C2185 0.960 . S
H2194 C2186 0.930 . S
H2195 C2187 0.929 . S
H2196 C2204 0.929 . S
H2197 C2206 0.930 . S
H2198 C2208 0.930 . S
H2199 C2211 0.929 . S
H2200 C2214 0.930 . S
H2201 C2216 0.960 . S
H2202 C2216 0.960 . S
H2203 C2216 0.960 . S
C2204 H2196 0.929 . S
C2204 C2205 1.377 . S
C2204 C2206 1.384 . S
C2205 C2204 1.377 . S
C2205 C2211 1.390 . S
C2206 H2197 0.930 . S
C2206 C2204 1.384 . S
C2206 C2207 1.372 . S
C2207 C2206 1.372 . S
C2207 C2208 1.400 . S
C2207 C2212 1.490 . S
C2208 H2198 0.930 . S
C2208 C2207 1.400 . S
C2208 C2211 1.386 . S
H2209 C2225 0.930 . S
H2210 C2226 0.931 . S
C2211 H2199 0.929 . S
C2211 C2205 1.390 . S
C2211 C2208 1.386 . S
C2212 C2207 1.490 . S
C2212 C2214 1.395 . S
C2212 C2215 1.403 . S
H2213 C2219 0.930 . S
C2214 H2200 0.930 . S
C2214 C2212 1.395 . S
C2214 C2217 1.403 . S
C2215 C2212 1.403 . S
C2215 C2216 1.524 . S
C2215 C2219 1.400 . S
C2216 H2201 0.960 . S
C2216 H2202 0.960 . S
C2216 H2203 0.960 . S
C2216 C2215 1.524 . S
C2217 C2214 1.403 . S
C2217 C2218 1.392 . S
C2217 C2221 1.495 . S
C2218 C2217 1.392 . S
C2218 C2219 1.385 . S
C2218 C2220 1.478 . S
C2219 H2213 0.930 . S
C2219 C2215 1.400 . S
C2219 C2218 1.385 . S
C2220 C2218 1.478 . S
C2220 C2222 1.381 . S
C2220 C2226 1.383 . S
C2221 C2217 1.495 . S
C2221 H2227 0.959 . S
C2221 H2228 0.961 . S
C2221 H2229 0.960 . S
C2222 C2220 1.381 . S
C2222 C2223 1.394 . S
C2222 H2230 0.930 . S
C2223 C2222 1.394 . S
C2223 C2224 1.383 . S
C2223 H2231 0.929 . S
C2224 C2223 1.383 . S
C2224 C2225 1.377 . S
C2225 H2209 0.930 . S
C2225 C2224 1.377 . S
C2225 C2226 1.379 . S
C2226 H2210 0.931 . S
C2226 C2220 1.383 . S
C2226 C2225 1.379 . S
H2227 C2221 0.959 . S
H2228 C2221 0.961 . S
H2229 C2221 0.960 . S
H2230 C2222 0.930 . S
H2231 C2223 0.929 . S
H2232 C2240 0.929 . S
H2233 C2242 0.930 . S
H2234 C2244 0.930 1_556 S
H2235 C2247 0.929 1_556 S
H2236 C2250 0.930 . S
H2237 C2252 0.960 . S
H2238 C2252 0.960 . S
H2239 C2252 0.960 . S
C2240 H2232 0.929 . S
C2240 C2241 1.377 . S
C2240 C2242 1.384 . S
C2241 C2240 1.377 . S
C2241 C2247 1.390 . S
C2242 H2233 0.930 . S
C2242 C2240 1.384 . S
C2242 C2243 1.372 . S
C2243 C2242 1.372 . S
C2243 C2244 1.400 . S
C2243 C2248 1.490 . S
C2244 H2234 0.930 1_554 S
C2244 C2243 1.400 . S
C2244 C2247 1.386 . S
H2245 C2261 0.970 . S
H2246 C2262 0.931 1_556 S
C2247 H2235 0.929 1_554 S
C2247 C2241 1.390 . S
C2247 C2244 1.386 . S
C2248 C2243 1.490 . S
C2248 C2250 1.395 . S
C2248 C2251 1.403 . S
H2249 C2255 0.930 . S
C2250 H2236 0.930 . S
C2250 C2248 1.395 . S
C2250 C2253 1.403 . S
C2251 C2248 1.403 . S
C2251 C2252 1.524 . S
C2251 C2255 1.400 . S
C2252 H2237 0.960 . S
C2252 H2238 0.960 . S
C2252 H2239 0.960 . S
C2252 C2251 1.524 . S
C2253 C2250 1.403 . S
C2253 C2254 1.392 . S
C2253 C2257 1.495 . S
C2254 C2253 1.392 . S
C2254 C2255 1.385 . S
C2254 C2256 1.478 . S
C2255 H2249 0.930 . S
C2255 C2251 1.400 . S
C2255 C2254 1.385 . S
C2256 C2254 1.478 . S
C2256 C2258 1.381 . S
C2256 C2262 1.383 . S
C2257 C2253 1.495 . S
C2257 H2263 0.959 . S
C2257 H2264 0.961 1_554 S
C2257 H2265 0.960 . S
C2258 C2256 1.381 . S
C2258 C2259 1.394 . S
C2258 H2266 0.930 . S
C2259 C2258 1.394 . S
C2259 C2260 1.422 . S
C2259 H2267 0.929 . S
C2260 C2259 1.422 . S
C2260 C2261 1.368 1_565 S
C2261 H2245 0.970 . S
C2261 C2260 1.368 1_545 S
C2261 C2262 1.379 1_545 S
C2262 H2246 0.931 1_554 S
C2262 C2256 1.383 . S
C2262 C2261 1.379 1_565 S
H2263 C2257 0.959 . S
H2264 C2257 0.961 1_556 S
H2265 C2257 0.960 . S
H2266 C2258 0.930 . S
H2267 C2259 0.929 . S
H2268 C2276 0.929 . S
H2269 C2278 0.930 . S
H2270 C2280 0.930 . S
H2271 C2283 0.929 . S
H2272 C2286 0.930 . S
H2273 C2288 0.960 . S
H2274 C2288 0.960 . S
H2275 C2288 0.960 . S
C2276 H2268 0.929 . S
C2276 C2277 1.377 . S
C2276 C2278 1.384 . S
C2277 C2276 1.377 . S
C2277 C2283 1.390 1_554 S
C2278 H2269 0.930 . S
C2278 C2276 1.384 . S
C2278 C2279 1.372 . S
C2279 C2278 1.372 . S
C2279 C2280 1.400 1_554 S
C2279 C2284 1.490 . S
C2280 H2270 0.930 . S
C2280 C2279 1.400 1_556 S
C2280 C2283 1.386 . S
H2281 C2297 0.921 1_556 S
H2282 C2298 0.931 . S
C2283 H2271 0.929 . S
C2283 C2277 1.390 1_556 S
C2283 C2280 1.386 . S
C2284 C2279 1.490 . S
C2284 C2286 1.395 1_554 S
C2284 C2287 1.403 . S
H2285 C2291 0.930 . S
C2286 H2272 0.930 . S
C2286 C2284 1.395 1_556 S
C2286 C2289 1.403 . S
C2287 C2284 1.403 . S
C2287 C2288 1.524 . S
C2287 C2291 1.400 . S
C2288 H2273 0.960 . S
C2288 H2274 0.960 . S
C2288 H2275 0.960 . S
C2288 C2287 1.524 . S
C2289 C2286 1.403 . S
C2289 C2290 1.392 1_556 S
C2289 C2293 1.495 . S
C2290 C2289 1.392 1_554 S
C2290 C2291 1.385 . S
C2290 C2292 1.478 . S
C2291 H2285 0.930 . S
C2291 C2287 1.400 . S
C2291 C2290 1.385 . S
C2292 C2290 1.478 . S
C2292 C2294 1.381 . S
C2292 C2298 1.383 1_554 S
C2293 C2289 1.495 . S
C2293 H2299 0.959 . S
C2293 H2300 0.961 . S
C2293 H2301 0.960 . S
C2294 C2292 1.381 . S
C2294 C2295 1.394 . S
C2294 H2302 0.930 . S
C2295 C2294 1.394 . S
C2295 C2296 1.383 . S
C2295 H2303 0.929 . S
C2296 C2295 1.383 . S
C2296 C2297 1.387 . S
C2297 H2281 0.921 1_554 S
C2297 C2296 1.387 . S
C2297 C2298 1.378 1_554 S
C2298 H2282 0.931 . S
C2298 C2292 1.383 1_556 S
C2298 C2297 1.378 1_556 S
H2299 C2293 0.959 . S
H2300 C2293 0.961 . S
H2301 C2293 0.960 . S
H2302 C2294 0.930 . S
H2303 C2295 0.929 . S
H2304 C2312 0.929 . S
H2305 C2314 0.930 . S
H2306 C2316 0.930 . S
H2307 C2319 0.929 . S
H2308 C2322 0.930 . S
H2309 C2324 0.960 . S
H2310 C2324 0.960 . S
H2311 C2324 0.960 . S
C2312 H2304 0.929 . S
C2312 C2313 1.377 . S
C2312 C2314 1.384 . S
C2313 C2312 1.377 . S
C2313 C2319 1.390 . S
C2314 H2305 0.930 . S
C2314 C2312 1.384 . S
C2314 C2315 1.372 . S
C2315 C2314 1.372 . S
C2315 C2316 1.400 . S
C2315 C2320 1.490 . S
C2316 H2306 0.930 . S
C2316 C2315 1.400 . S
C2316 C2319 1.386 . S
H2317 C2333 0.930 . S
H2318 C2334 0.931 . S
C2319 H2307 0.929 . S
C2319 C2313 1.390 . S
C2319 C2316 1.386 . S
C2320 C2315 1.490 . S
C2320 C2322 1.395 . S
C2320 C2323 1.403 . S
H2321 C2327 0.930 . S
C2322 H2308 0.930 . S
C2322 C2320 1.395 . S
C2322 C2325 1.403 . S
C2323 C2320 1.403 . S
C2323 C2324 1.524 . S
C2323 C2327 1.400 . S
C2324 H2309 0.960 . S
C2324 H2310 0.960 . S
C2324 H2311 0.960 . S
C2324 C2323 1.524 . S
C2325 C2322 1.403 . S
C2325 C2326 1.392 . S
C2325 C2329 1.495 . S
C2326 C2325 1.392 . S
C2326 C2327 1.385 . S
C2326 C2328 1.478 . S
C2327 H2321 0.930 . S
C2327 C2323 1.400 . S
C2327 C2326 1.385 . S
C2328 C2326 1.478 . S
C2328 C2330 1.381 . S
C2328 C2334 1.383 . S
C2329 C2325 1.495 . S
C2329 H2335 0.959 . S
C2329 H2336 0.961 . S
C2329 H2337 0.960 . S
C2330 C2328 1.381 . S
C2330 C2331 1.394 . S
C2330 H2338 0.930 . S
C2331 C2330 1.394 . S
C2331 C2332 1.383 . S
C2331 H2339 0.929 . S
C2332 C2331 1.383 . S
C2332 C2333 1.377 . S
C2333 H2317 0.930 . S
C2333 C2332 1.377 . S
C2333 C2334 1.379 . S
C2334 H2318 0.931 . S
C2334 C2328 1.383 . S
C2334 C2333 1.379 . S
H2335 C2329 0.959 . S
H2336 C2329 0.961 . S
H2337 C2329 0.960 . S
H2338 C2330 0.930 . S
H2339 C2331 0.929 . S
H2340 C2348 0.929 . S
H2341 C2350 0.930 . S
H2342 C2352 0.930 . S
H2343 C2355 0.929 . S
H2344 C2358 0.930 . S
H2345 C2360 0.960 . S
H2346 C2360 0.960 . S
H2347 C2360 0.960 . S
C2348 H2340 0.929 . S
C2348 C2349 1.377 . S
C2348 C2350 1.384 . S
C2349 C2348 1.377 . S
C2349 C2355 1.390 . S
C2350 H2341 0.930 . S
C2350 C2348 1.384 . S
C2350 C2351 1.372 . S
C2351 C2350 1.372 . S
C2351 C2352 1.400 . S
C2351 C2356 1.490 . S
C2352 H2342 0.930 . S
C2352 C2351 1.400 . S
C2352 C2355 1.386 . S
H2353 C2369 0.930 . S
H2354 C2370 0.931 . S
C2355 H2343 0.929 . S
C2355 C2349 1.390 . S
C2355 C2352 1.386 . S
C2356 C2351 1.490 . S
C2356 C2358 1.395 . S
C2356 C2359 1.403 . S
H2357 C2363 0.930 . S
C2358 H2344 0.930 . S
C2358 C2356 1.395 . S
C2358 C2361 1.403 . S
C2359 C2356 1.403 . S
C2359 C2360 1.524 . S
C2359 C2363 1.400 . S
C2360 H2345 0.960 . S
C2360 H2346 0.960 . S
C2360 H2347 0.960 . S
C2360 C2359 1.524 . S
C2361 C2358 1.403 . S
C2361 C2362 1.392 . S
C2361 C2365 1.495 . S
C2362 C2361 1.392 . S
C2362 C2363 1.385 . S
C2362 C2364 1.478 . S
C2363 H2357 0.930 . S
C2363 C2359 1.400 . S
C2363 C2362 1.385 . S
C2364 C2362 1.478 . S
C2364 C2366 1.381 . S
C2364 C2370 1.383 . S
C2365 C2361 1.495 . S
C2365 H2371 0.959 . S
C2365 H2372 0.961 . S
C2365 H2373 0.960 . S
C2366 C2364 1.381 . S
C2366 C2367 1.394 . S
C2366 H2374 0.930 . S
C2367 C2366 1.394 . S
C2367 C2368 1.383 . S
C2367 H2375 0.929 . S
C2368 C2367 1.383 . S
C2368 C2369 1.377 . S
C2369 H2353 0.930 . S
C2369 C2368 1.377 . S
C2369 C2370 1.379 . S
C2370 H2354 0.931 . S
C2370 C2364 1.383 . S
C2370 C2369 1.379 . S
H2371 C2365 0.959 . S
H2372 C2365 0.961 . S
H2373 C2365 0.960 . S
H2374 C2366 0.930 . S
H2375 C2367 0.929 . S
H2376 C2384 0.929 . S
H2377 C2386 0.930 . S
H2378 C2388 0.930 . S
H2379 C2391 0.929 1_545 S
H2380 C2394 0.930 . S
H2381 C2396 0.960 . S
H2382 C2396 0.960 . S
H2383 C2396 0.960 . S
C2384 H2376 0.929 . S
C2384 C2385 1.361 1_565 S
C2384 C2386 1.384 . S
C2385 C2384 1.361 1_545 S
C2385 C2391 1.388 1_545 S
C2386 H2377 0.930 . S
C2386 C2384 1.384 . S
C2386 C2387 1.372 . S
C2387 C2386 1.372 . S
C2387 C2388 1.400 . S
C2387 C2392 1.490 . S
C2388 H2378 0.930 . S
C2388 C2387 1.400 . S
C2388 C2391 1.386 . S
H2389 C2405 0.930 . S
H2390 C2406 0.931 . S
C2391 H2379 0.929 1_565 S
C2391 C2385 1.388 1_565 S
C2391 C2388 1.386 . S
C2392 C2387 1.490 . S
C2392 C2394 1.395 . S
C2392 C2395 1.403 . S
H2393 C2399 0.930 . S
C2394 H2380 0.930 . S
C2394 C2392 1.395 . S
C2394 C2397 1.403 . S
C2395 C2392 1.403 . S
C2395 C2396 1.524 . S
C2395 C2399 1.400 . S
C2396 H2381 0.960 . S
C2396 H2382 0.960 . S
C2396 H2383 0.960 . S
C2396 C2395 1.524 . S
C2397 C2394 1.403 . S
C2397 C2398 1.392 . S
C2397 C2401 1.495 . S
C2398 C2397 1.392 . S
C2398 C2399 1.385 . S
C2398 C2400 1.478 . S
C2399 H2393 0.930 . S
C2399 C2395 1.400 . S
C2399 C2398 1.385 . S
C2400 C2398 1.478 . S
C2400 C2402 1.381 . S
C2400 C2406 1.383 . S
C2401 C2397 1.495 . S
C2401 H2407 0.959 . S
C2401 H2408 0.961 . S
C2401 H2409 0.960 . S
C2402 C2400 1.381 . S
C2402 C2403 1.394 . S
C2402 H2410 0.930 . S
C2403 C2402 1.394 . S
C2403 C2404 1.383 . S
C2403 H2411 0.929 . S
C2404 C2403 1.383 . S
C2404 C2405 1.377 . S
C2405 H2389 0.930 . S
C2405 C2404 1.377 . S
C2405 C2406 1.379 . S
C2406 H2390 0.931 . S
C2406 C2400 1.383 . S
C2406 C2405 1.379 . S
H2407 C2401 0.959 . S
H2408 C2401 0.961 . S
H2409 C2401 0.960 . S
H2410 C2402 0.930 . S
H2411 C2403 0.929 . S
H2412 C2420 0.929 . S
H2413 C2422 0.930 . S
H2414 C2424 0.930 . S
H2415 C2427 0.929 . S
H2416 C2430 0.930 . S
H2417 C2432 0.960 . S
H2418 C2432 0.960 . S
H2419 C2432 0.960 . S
C2420 H2412 0.929 . S
C2420 C2421 1.377 . S
C2420 C2422 1.384 . S
C2421 C2420 1.377 . S
C2421 C2427 1.390 . S
C2422 H2413 0.930 . S
C2422 C2420 1.384 . S
C2422 C2423 1.372 . S
C2423 C2422 1.372 . S
C2423 C2424 1.400 . S
C2423 C2428 1.490 . S
C2424 H2414 0.930 . S
C2424 C2423 1.400 . S
C2424 C2427 1.386 . S
H2425 C2441 0.930 . S
H2426 C2442 0.931 . S
C2427 H2415 0.929 . S
C2427 C2421 1.390 . S
C2427 C2424 1.386 . S
C2428 C2423 1.490 . S
C2428 C2430 1.395 . S
C2428 C2431 1.403 . S
H2429 C2435 0.930 . S
C2430 H2416 0.930 . S
C2430 C2428 1.395 . S
C2430 C2433 1.403 . S
C2431 C2428 1.403 . S
C2431 C2432 1.524 . S
C2431 C2435 1.400 . S
C2432 H2417 0.960 . S
C2432 H2418 0.960 . S
C2432 H2419 0.960 . S
C2432 C2431 1.524 . S
C2433 C2430 1.403 . S
C2433 C2434 1.392 . S
C2433 C2437 1.495 . S
C2434 C2433 1.392 . S
C2434 C2435 1.385 . S
C2434 C2436 1.478 . S
C2435 H2429 0.930 . S
C2435 C2431 1.400 . S
C2435 C2434 1.385 . S
C2436 C2434 1.478 . S
C2436 C2438 1.381 . S
C2436 C2442 1.383 . S
C2437 C2433 1.495 . S
C2437 H2443 0.959 . S
C2437 H2444 0.961 . S
C2437 H2445 0.960 . S
C2438 C2436 1.381 . S
C2438 C2439 1.394 . S
C2438 H2446 0.930 . S
C2439 C2438 1.394 . S
C2439 C2440 1.383 . S
C2439 H2447 0.929 . S
C2440 C2439 1.383 . S
C2440 C2441 1.377 . S
C2441 H2425 0.930 . S
C2441 C2440 1.377 . S
C2441 C2442 1.379 . S
C2442 H2426 0.931 . S
C2442 C2436 1.383 . S
C2442 C2441 1.379 . S
H2443 C2437 0.959 . S
H2444 C2437 0.961 . S
H2445 C2437 0.960 . S
H2446 C2438 0.930 . S
H2447 C2439 0.929 . S
H2448 C2456 0.929 . S
H2449 C2458 0.930 . S
H2450 C2460 0.930 . S
H2451 C2463 0.929 . S
H2452 C2466 0.930 . S
H2453 C2468 0.960 . S
H2454 C2468 0.960 . S
H2455 C2468 0.960 . S
C2456 H2448 0.929 . S
C2456 C2457 1.377 . S
C2456 C2458 1.384 . S
C2457 C2456 1.377 . S
C2457 C2463 1.390 . S
C2458 H2449 0.930 . S
C2458 C2456 1.384 . S
C2458 C2459 1.372 . S
C2459 C2458 1.372 . S
C2459 C2460 1.400 . S
C2459 C2464 1.490 . S
C2460 H2450 0.930 . S
C2460 C2459 1.400 . S
C2460 C2463 1.386 . S
H2461 C2477 0.930 . S
H2462 C2478 0.931 . S
C2463 H2451 0.929 . S
C2463 C2457 1.390 . S
C2463 C2460 1.386 . S
C2464 C2459 1.490 . S
C2464 C2466 1.395 . S
C2464 C2467 1.403 . S
H2465 C2471 0.930 . S
C2466 H2452 0.930 . S
C2466 C2464 1.395 . S
C2466 C2469 1.403 . S
C2467 C2464 1.403 . S
C2467 C2468 1.524 . S
C2467 C2471 1.400 . S
C2468 H2453 0.960 . S
C2468 H2454 0.960 . S
C2468 H2455 0.960 . S
C2468 C2467 1.524 . S
C2469 C2466 1.403 . S
C2469 C2470 1.392 . S
C2469 C2473 1.495 . S
C2470 C2469 1.392 . S
C2470 C2471 1.385 . S
C2470 C2472 1.478 . S
C2471 H2465 0.930 . S
C2471 C2467 1.400 . S
C2471 C2470 1.385 . S
C2472 C2470 1.478 . S
C2472 C2474 1.381 . S
C2472 C2478 1.383 . S
C2473 C2469 1.495 . S
C2473 H2479 0.959 . S
C2473 H2480 0.961 . S
C2473 H2481 0.960 . S
C2474 C2472 1.381 . S
C2474 C2475 1.394 . S
C2474 H2482 0.930 . S
C2475 C2474 1.394 . S
C2475 C2476 1.383 . S
C2475 H2483 0.929 . S
C2476 C2475 1.383 . S
C2476 C2477 1.377 . S
C2477 H2461 0.930 . S
C2477 C2476 1.377 . S
C2477 C2478 1.379 . S
C2478 H2462 0.931 . S
C2478 C2472 1.383 . S
C2478 C2477 1.379 . S
H2479 C2473 0.959 . S
H2480 C2473 0.961 . S
H2481 C2473 0.960 . S
H2482 C2474 0.930 . S
H2483 C2475 0.929 . S
H2484 C2492 0.929 . S
H2485 C2494 0.930 . S
H2486 C2496 0.930 . S
H2487 C2499 0.929 . S
H2488 C2502 0.930 . S
H2489 C2504 0.960 . S
H2490 C2504 0.960 . S
H2491 C2504 0.960 . S
C2492 H2484 0.929 . S
C2492 C2493 1.377 . S
C2492 C2494 1.384 . S
C2493 C2492 1.377 . S
C2493 C2499 1.390 . S
C2494 H2485 0.930 . S
C2494 C2492 1.384 . S
C2494 C2495 1.372 . S
C2495 C2494 1.372 . S
C2495 C2496 1.400 . S
C2495 C2500 1.490 . S
C2496 H2486 0.930 . S
C2496 C2495 1.400 . S
C2496 C2499 1.386 . S
H2497 C2513 0.930 . S
H2498 C2514 0.931 . S
C2499 H2487 0.929 . S
C2499 C2493 1.390 . S
C2499 C2496 1.386 . S
C2500 C2495 1.490 . S
C2500 C2502 1.395 . S
C2500 C2503 1.403 . S
H2501 C2507 0.930 . S
C2502 H2488 0.930 . S
C2502 C2500 1.395 . S
C2502 C2505 1.403 . S
C2503 C2500 1.403 . S
C2503 C2504 1.524 . S
C2503 C2507 1.400 . S
C2504 H2489 0.960 . S
C2504 H2490 0.960 . S
C2504 H2491 0.960 . S
C2504 C2503 1.524 . S
C2505 C2502 1.403 . S
C2505 C2506 1.392 . S
C2505 C2509 1.495 . S
C2506 C2505 1.392 . S
C2506 C2507 1.385 . S
C2506 C2508 1.478 . S
C2507 H2501 0.930 . S
C2507 C2503 1.400 . S
C2507 C2506 1.385 . S
C2508 C2506 1.478 . S
C2508 C2510 1.381 . S
C2508 C2514 1.383 . S
C2509 C2505 1.495 . S
C2509 H2515 0.959 . S
C2509 H2516 0.961 . S
C2509 H2517 0.960 . S
C2510 C2508 1.381 . S
C2510 C2511 1.394 . S
C2510 H2518 0.930 . S
C2511 C2510 1.394 . S
C2511 C2512 1.383 . S
C2511 H2519 0.929 . S
C2512 C2511 1.383 . S
C2512 C2513 1.377 . S
C2513 H2497 0.930 . S
C2513 C2512 1.377 . S
C2513 C2514 1.379 . S
C2514 H2498 0.931 . S
C2514 C2508 1.383 . S
C2514 C2513 1.379 . S
H2515 C2509 0.959 . S
H2516 C2509 0.961 . S
H2517 C2509 0.960 . S
H2518 C2510 0.930 . S
H2519 C2511 0.929 . S
H2520 C2528 0.929 . S
H2521 C2530 0.930 . S
H2522 C2532 0.930 . S
H2523 C2535 0.929 . S
H2524 C2538 0.930 . S
H2525 C2540 0.960 . S
H2526 C2540 0.960 . S
H2527 C2540 0.960 . S
C2528 H2520 0.929 . S
C2528 C2529 1.377 . S
C2528 C2530 1.384 . S
C2529 C2528 1.377 . S
C2529 C2535 1.390 . S
C2530 H2521 0.930 . S
C2530 C2528 1.384 . S
C2530 C2531 1.372 . S
C2531 C2530 1.372 . S
C2531 C2532 1.400 . S
C2531 C2536 1.490 . S
C2532 H2522 0.930 . S
C2532 C2531 1.400 . S
C2532 C2535 1.386 . S
H2533 C2549 0.930 . S
H2534 C2550 0.931 . S
C2535 H2523 0.929 . S
C2535 C2529 1.390 . S
C2535 C2532 1.386 . S
C2536 C2531 1.490 . S
C2536 C2538 1.395 . S
C2536 C2539 1.403 . S
H2537 C2543 0.930 . S
C2538 H2524 0.930 . S
C2538 C2536 1.395 . S
C2538 C2541 1.403 . S
C2539 C2536 1.403 . S
C2539 C2540 1.524 . S
C2539 C2543 1.400 . S
C2540 H2525 0.960 . S
C2540 H2526 0.960 . S
C2540 H2527 0.960 . S
C2540 C2539 1.524 . S
C2541 C2538 1.403 . S
C2541 C2542 1.392 . S
C2541 C2545 1.495 . S
C2542 C2541 1.392 . S
C2542 C2543 1.385 . S
C2542 C2544 1.478 . S
C2543 H2537 0.930 . S
C2543 C2539 1.400 . S
C2543 C2542 1.385 . S
C2544 C2542 1.478 . S
C2544 C2546 1.381 . S
C2544 C2550 1.383 . S
C2545 C2541 1.495 . S
C2545 H2551 0.959 . S
C2545 H2552 0.961 . S
C2545 H2553 0.960 . S
C2546 C2544 1.381 . S
C2546 C2547 1.394 . S
C2546 H2554 0.930 . S
C2547 C2546 1.394 . S
C2547 C2548 1.383 . S
C2547 H2555 0.929 . S
C2548 C2547 1.383 . S
C2548 C2549 1.377 . S
C2549 H2533 0.930 . S
C2549 C2548 1.377 . S
C2549 C2550 1.379 . S
C2550 H2534 0.931 . S
C2550 C2544 1.383 . S
C2550 C2549 1.379 . S
H2551 C2545 0.959 . S
H2552 C2545 0.961 . S
H2553 C2545 0.960 . S
H2554 C2546 0.930 . S
H2555 C2547 0.929 . S
H2556 C2564 0.929 . S
H2557 C2566 0.930 . S
H2558 C2568 0.930 . S
H2559 C2571 0.929 . S
H2560 C2574 0.930 . S
H2561 C2576 0.960 . S
H2562 C2576 0.960 . S
H2563 C2576 0.960 . S
C2564 H2556 0.929 . S
C2564 C2565 1.377 . S
C2564 C2566 1.384 . S
C2565 C2564 1.377 . S
C2565 C2571 1.390 . S
C2566 H2557 0.930 . S
C2566 C2564 1.384 . S
C2566 C2567 1.372 . S
C2567 C2566 1.372 . S
C2567 C2568 1.400 . S
C2567 C2572 1.490 . S
C2568 H2558 0.930 . S
C2568 C2567 1.400 . S
C2568 C2571 1.386 . S
H2569 C2585 0.930 . S
H2570 C2586 0.931 . S
C2571 H2559 0.929 . S
C2571 C2565 1.390 . S
C2571 C2568 1.386 . S
C2572 C2567 1.490 . S
C2572 C2574 1.395 . S
C2572 C2575 1.403 . S
H2573 C2579 0.930 . S
C2574 H2560 0.930 . S
C2574 C2572 1.395 . S
C2574 C2577 1.403 . S
C2575 C2572 1.403 . S
C2575 C2576 1.524 . S
C2575 C2579 1.400 . S
C2576 H2561 0.960 . S
C2576 H2562 0.960 . S
C2576 H2563 0.960 . S
C2576 C2575 1.524 . S
C2577 C2574 1.403 . S
C2577 C2578 1.392 . S
C2577 C2581 1.495 . S
C2578 C2577 1.392 . S
C2578 C2579 1.385 . S
C2578 C2580 1.478 . S
C2579 H2573 0.930 . S
C2579 C2575 1.400 . S
C2579 C2578 1.385 . S
C2580 C2578 1.478 . S
C2580 C2582 1.381 . S
C2580 C2586 1.383 . S
C2581 C2577 1.495 . S
C2581 H2587 0.959 . S
C2581 H2588 0.961 . S
C2581 H2589 0.960 . S
C2582 C2580 1.381 . S
C2582 C2583 1.394 . S
C2582 H2590 0.930 . S
C2583 C2582 1.394 . S
C2583 C2584 1.383 . S
C2583 H2591 0.929 . S
C2584 C2583 1.383 . S
C2584 C2585 1.377 . S
C2585 H2569 0.930 . S
C2585 C2584 1.377 . S
C2585 C2586 1.379 . S
C2586 H2570 0.931 . S
C2586 C2580 1.383 . S
C2586 C2585 1.379 . S
H2587 C2581 0.959 . S
H2588 C2581 0.961 . S
H2589 C2581 0.960 . S
H2590 C2582 0.930 . S
H2591 C2583 0.929 . S
H2592 C2600 0.929 . S
H2593 C2602 0.930 . S
H2594 C2604 0.930 . S
H2595 C2607 0.929 . S
H2596 C2610 0.930 . S
H2597 C2612 0.960 . S
H2598 C2612 0.960 . S
H2599 C2612 0.960 . S
C2600 H2592 0.929 . S
C2600 C2601 1.377 . S
C2600 C2602 1.384 . S
C2601 C2600 1.377 . S
C2601 C2607 1.390 . S
C2602 H2593 0.930 . S
C2602 C2600 1.384 . S
C2602 C2603 1.372 . S
C2603 C2602 1.372 . S
C2603 C2604 1.400 . S
C2603 C2608 1.490 . S
C2604 H2594 0.930 . S
C2604 C2603 1.400 . S
C2604 C2607 1.386 . S
H2605 C2621 0.930 . S
H2606 C2622 0.931 . S
C2607 H2595 0.929 . S
C2607 C2601 1.390 . S
C2607 C2604 1.386 . S
C2608 C2603 1.490 . S
C2608 C2610 1.395 . S
C2608 C2611 1.403 . S
H2609 C2615 0.930 . S
C2610 H2596 0.930 . S
C2610 C2608 1.395 . S
C2610 C2613 1.403 . S
C2611 C2608 1.403 . S
C2611 C2612 1.524 1_455 S
C2611 C2615 1.400 . S
C2612 H2597 0.960 . S
C2612 H2598 0.960 . S
C2612 H2599 0.960 . S
C2612 C2611 1.524 1_655 S
C2613 C2610 1.403 . S
C2613 C2614 1.392 . S
C2613 C2617 1.495 . S
C2614 C2613 1.392 . S
C2614 C2615 1.385 . S
C2614 C2616 1.478 . S
C2615 H2609 0.930 . S
C2615 C2611 1.400 . S
C2615 C2614 1.385 . S
C2616 C2614 1.478 . S
C2616 C2618 1.381 . S
C2616 C2622 1.383 . S
C2617 C2613 1.495 . S
C2617 H2623 0.959 . S
C2617 H2624 0.961 . S
C2617 H2625 0.960 . S
C2618 C2616 1.381 . S
C2618 C2619 1.394 . S
C2618 H2626 0.930 . S
C2619 C2618 1.394 . S
C2619 C2620 1.383 . S
C2619 H2627 0.929 . S
C2620 C2619 1.383 . S
C2620 C2621 1.377 . S
C2621 H2605 0.930 . S
C2621 C2620 1.377 . S
C2621 C2622 1.379 . S
C2622 H2606 0.931 . S
C2622 C2616 1.383 . S
C2622 C2621 1.379 . S
H2623 C2617 0.959 . S
H2624 C2617 0.961 . S
H2625 C2617 0.960 . S
H2626 C2618 0.930 . S
H2627 C2619 0.929 . S
H2628 C2636 0.929 . S
H2629 C2638 0.930 . S
H2630 C2640 0.930 . S
H2631 C2643 0.929 . S
H2632 C2646 0.930 . S
H2633 C2648 0.960 . S
H2634 C2648 0.960 . S
H2635 C2648 0.960 . S
C2636 H2628 0.929 . S
C2636 C2637 1.377 . S
C2636 C2638 1.384 . S
C2637 C2636 1.377 . S
C2637 C2643 1.390 . S
C2638 H2629 0.930 . S
C2638 C2636 1.384 . S
C2638 C2639 1.372 . S
C2639 C2638 1.372 . S
C2639 C2640 1.400 . S
C2639 C2644 1.490 . S
C2640 H2630 0.930 . S
C2640 C2639 1.400 . S
C2640 C2643 1.386 . S
H2641 C2657 0.930 . S
H2642 C2658 0.931 . S
C2643 H2631 0.929 . S
C2643 C2637 1.390 . S
C2643 C2640 1.386 . S
C2644 C2639 1.490 . S
C2644 C2646 1.395 . S
C2644 C2647 1.403 . S
H2645 C2651 0.930 . S
C2646 H2632 0.930 . S
C2646 C2644 1.395 . S
C2646 C2649 1.403 . S
C2647 C2644 1.403 . S
C2647 C2648 1.524 . S
C2647 C2651 1.400 . S
C2648 H2633 0.960 . S
C2648 H2634 0.960 . S
C2648 H2635 0.960 . S
C2648 C2647 1.524 . S
C2649 C2646 1.403 . S
C2649 C2650 1.392 . S
C2649 C2653 1.495 . S
C2650 C2649 1.392 . S
C2650 C2651 1.385 . S
C2650 C2652 1.478 . S
C2651 H2645 0.930 . S
C2651 C2647 1.400 . S
C2651 C2650 1.385 . S
C2652 C2650 1.478 . S
C2652 C2654 1.381 . S
C2652 C2658 1.383 . S
C2653 C2649 1.495 . S
C2653 H2659 0.959 . S
C2653 H2660 0.961 . S
C2653 H2661 0.960 . S
C2654 C2652 1.381 . S
C2654 C2655 1.394 . S
C2654 H2662 0.930 . S
C2655 C2654 1.394 . S
C2655 C2656 1.383 . S
C2655 H2663 0.929 . S
C2656 C2655 1.383 . S
C2656 C2657 1.377 . S
C2657 H2641 0.930 . S
C2657 C2656 1.377 . S
C2657 C2658 1.379 . S
C2658 H2642 0.931 . S
C2658 C2652 1.383 . S
C2658 C2657 1.379 . S
H2659 C2653 0.959 . S
H2660 C2653 0.961 . S
H2661 C2653 0.960 . S
H2662 C2654 0.930 . S
H2663 C2655 0.929 . S
H2664 C2672 0.929 . S
H2665 C2674 0.930 . S
H2666 C2676 0.930 . S
H2667 C2679 0.929 . S
H2668 C2682 0.930 . S
H2669 C2684 0.960 . S
H2670 C2684 0.960 . S
H2671 C2684 0.960 . S
C2672 H2664 0.929 . S
C2672 C2673 1.377 . S
C2672 C2674 1.384 . S
C2673 C2672 1.377 . S
C2673 C2679 1.390 . S
C2674 H2665 0.930 . S
C2674 C2672 1.384 . S
C2674 C2675 1.372 . S
C2675 C2674 1.372 . S
C2675 C2676 1.400 . S
C2675 C2680 1.490 . S
C2676 H2666 0.930 . S
C2676 C2675 1.400 . S
C2676 C2679 1.386 . S
H2677 C2693 0.930 . S
H2678 C2694 0.931 . S
C2679 H2667 0.929 . S
C2679 C2673 1.390 . S
C2679 C2676 1.386 . S
C2680 C2675 1.490 . S
C2680 C2682 1.395 . S
C2680 C2683 1.403 . S
H2681 C2687 0.930 . S
C2682 H2668 0.930 . S
C2682 C2680 1.395 . S
C2682 C2685 1.403 . S
C2683 C2680 1.403 . S
C2683 C2684 1.524 . S
C2683 C2687 1.400 . S
C2684 H2669 0.960 . S
C2684 H2670 0.960 . S
C2684 H2671 0.960 . S
C2684 C2683 1.524 . S
C2685 C2682 1.403 . S
C2685 C2686 1.392 . S
C2685 C2689 1.495 . S
C2686 C2685 1.392 . S
C2686 C2687 1.385 . S
C2686 C2688 1.478 . S
C2687 H2681 0.930 . S
C2687 C2683 1.400 . S
C2687 C2686 1.385 . S
C2688 C2686 1.478 . S
C2688 C2690 1.381 . S
C2688 C2694 1.383 . S
C2689 C2685 1.495 . S
C2689 H2695 0.959 . S
C2689 H2696 0.961 . S
C2689 H2697 0.960 . S
C2690 C2688 1.381 . S
C2690 C2691 1.394 . S
C2690 H2698 0.930 . S
C2691 C2690 1.394 . S
C2691 C2692 1.383 . S
C2691 H2699 0.929 . S
C2692 C2691 1.383 . S
C2692 C2693 1.377 1_556 S
C2693 H2677 0.930 . S
C2693 C2692 1.377 1_554 S
C2693 C2694 1.379 1_554 S
C2694 H2678 0.931 . S
C2694 C2688 1.383 . S
C2694 C2693 1.379 1_556 S
H2695 C2689 0.959 . S
H2696 C2689 0.961 . S
H2697 C2689 0.960 . S
H2698 C2690 0.930 . S
H2699 C2691 0.929 . S
H2700 C2708 0.929 . S
H2701 C2710 0.930 . S
H2702 C2712 0.930 . S
H2703 C2715 0.929 . S
H2704 C2718 0.930 . S
H2705 C2720 0.960 . S
H2706 C2720 0.960 . S
H2707 C2720 0.960 . S
C2708 H2700 0.929 . S
C2708 C2709 1.377 . S
C2708 C2710 1.384 . S
C2709 C2708 1.377 . S
C2709 C2715 1.390 . S
C2710 H2701 0.930 . S
C2710 C2708 1.384 . S
C2710 C2711 1.372 . S
C2711 C2710 1.372 . S
C2711 C2712 1.400 . S
C2711 C2716 1.490 . S
C2712 H2702 0.930 . S
C2712 C2711 1.400 . S
C2712 C2715 1.386 . S
H2713 C2729 0.930 . S
H2714 C2730 0.931 . S
C2715 H2703 0.929 . S
C2715 C2709 1.390 . S
C2715 C2712 1.386 . S
C2716 C2711 1.490 . S
C2716 C2718 1.395 . S
C2716 C2719 1.403 . S
H2717 C2723 0.930 . S
C2718 H2704 0.930 . S
C2718 C2716 1.395 . S
C2718 C2721 1.403 . S
C2719 C2716 1.403 . S
C2719 C2720 1.524 . S
C2719 C2723 1.400 . S
C2720 H2705 0.960 . S
C2720 H2706 0.960 . S
C2720 H2707 0.960 . S
C2720 C2719 1.524 . S
C2721 C2718 1.403 . S
C2721 C2722 1.392 . S
C2721 C2725 1.495 . S
C2722 C2721 1.392 . S
C2722 C2723 1.385 . S
C2722 C2724 1.478 . S
C2723 H2717 0.930 . S
C2723 C2719 1.400 . S
C2723 C2722 1.385 . S
C2724 C2722 1.478 . S
C2724 C2726 1.381 . S
C2724 C2730 1.383 . S
C2725 C2721 1.495 . S
C2725 H2731 0.959 . S
C2725 H2732 0.961 . S
C2725 H2733 0.960 . S
C2726 C2724 1.381 . S
C2726 C2727 1.394 . S
C2726 H2734 0.930 . S
C2727 C2726 1.394 . S
C2727 C2728 1.383 . S
C2727 H2735 0.929 . S
C2728 C2727 1.383 . S
C2728 C2729 1.377 . S
C2729 H2713 0.930 . S
C2729 C2728 1.377 . S
C2729 C2730 1.379 . S
C2730 H2714 0.931 . S
C2730 C2724 1.383 . S
C2730 C2729 1.379 . S
H2731 C2725 0.959 . S
H2732 C2725 0.961 . S
H2733 C2725 0.960 . S
H2734 C2726 0.930 . S
H2735 C2727 0.929 . S
H2736 C2744 0.929 . S
H2737 C2746 0.930 . S
H2738 C2748 0.930 . S
H2739 C2751 0.929 . S
H2740 C2754 0.930 . S
H2741 C2756 0.960 . S
H2742 C2756 0.960 . S
H2743 C2756 0.960 . S
C2744 H2736 0.929 . S
C2744 C2745 1.377 . S
C2744 C2746 1.384 . S
C2745 C2744 1.377 . S
C2745 C2751 1.390 . S
C2746 H2737 0.930 . S
C2746 C2744 1.384 . S
C2746 C2747 1.372 . S
C2747 C2746 1.372 . S
C2747 C2748 1.400 . S
C2747 C2752 1.490 . S
C2748 H2738 0.930 . S
C2748 C2747 1.400 . S
C2748 C2751 1.386 . S
H2749 C2765 0.930 . S
H2750 C2766 0.931 . S
C2751 H2739 0.929 . S
C2751 C2745 1.390 . S
C2751 C2748 1.386 . S
C2752 C2747 1.490 . S
C2752 C2754 1.395 . S
C2752 C2755 1.403 . S
H2753 C2759 0.930 . S
C2754 H2740 0.930 . S
C2754 C2752 1.395 . S
C2754 C2757 1.403 . S
C2755 C2752 1.403 . S
C2755 C2756 1.524 . S
C2755 C2759 1.400 . S
C2756 H2741 0.960 . S
C2756 H2742 0.960 . S
C2756 H2743 0.960 . S
C2756 C2755 1.524 . S
C2757 C2754 1.403 . S
C2757 C2758 1.392 . S
C2757 C2761 1.495 . S
C2758 C2757 1.392 . S
C2758 C2759 1.385 . S
C2758 C2760 1.478 . S
C2759 H2753 0.930 . S
C2759 C2755 1.400 . S
C2759 C2758 1.385 . S
C2760 C2758 1.478 . S
C2760 C2762 1.381 . S
C2760 C2766 1.383 . S
C2761 C2757 1.495 . S
C2761 H2767 0.959 1_455 S
C2761 H2768 0.961 1_455 S
C2761 H2769 0.960 . S
C2762 C2760 1.381 . S
C2762 C2763 1.394 . S
C2762 H2770 0.930 . S
C2763 C2762 1.394 . S
C2763 C2764 1.383 . S
C2763 H2771 0.929 . S
C2764 C2763 1.383 . S
C2764 C2765 1.377 . S
C2765 H2749 0.930 . S
C2765 C2764 1.377 . S
C2765 C2766 1.379 . S
C2766 H2750 0.931 . S
C2766 C2760 1.383 . S
C2766 C2765 1.379 . S
H2767 C2761 0.959 1_655 S
H2768 C2761 0.961 1_655 S
H2769 C2761 0.960 . S
H2770 C2762 0.930 . S
H2771 C2763 0.929 . S
H2772 C2780 0.929 . S
H2773 C2782 0.930 . S
H2774 C2784 0.930 . S
H2775 C2787 0.929 . S
H2776 C2790 0.930 . S
H2777 C2792 0.960 . S
H2778 C2792 0.960 . S
H2779 C2792 0.960 . S
C2780 H2772 0.929 . S
C2780 C2781 1.377 . S
C2780 C2782 1.384 . S
C2781 C2780 1.377 . S
C2781 C2787 1.390 . S
C2782 H2773 0.930 . S
C2782 C2780 1.384 . S
C2782 C2783 1.372 . S
C2783 C2782 1.372 . S
C2783 C2784 1.400 . S
C2783 C2788 1.490 . S
C2784 H2774 0.930 . S
C2784 C2783 1.400 . S
C2784 C2787 1.386 . S
H2785 C2801 0.930 . S
H2786 C2802 0.931 . S
C2787 H2775 0.929 . S
C2787 C2781 1.390 . S
C2787 C2784 1.386 . S
C2788 C2783 1.490 . S
C2788 C2790 1.395 . S
C2788 C2791 1.403 . S
H2789 C2795 0.930 . S
C2790 H2776 0.930 . S
C2790 C2788 1.395 . S
C2790 C2793 1.403 . S
C2791 C2788 1.403 . S
C2791 C2792 1.524 . S
C2791 C2795 1.400 . S
C2792 H2777 0.960 . S
C2792 H2778 0.960 . S
C2792 H2779 0.960 . S
C2792 C2791 1.524 . S
C2793 C2790 1.403 . S
C2793 C2794 1.392 . S
C2793 C2797 1.495 . S
C2794 C2793 1.392 . S
C2794 C2795 1.385 . S
C2794 C2796 1.478 . S
C2795 H2789 0.930 . S
C2795 C2791 1.400 . S
C2795 C2794 1.385 . S
C2796 C2794 1.478 . S
C2796 C2798 1.381 . S
C2796 C2802 1.383 . S
C2797 C2793 1.495 . S
C2797 H2803 0.959 . S
C2797 H2804 0.961 . S
C2797 H2805 0.960 . S
C2798 C2796 1.381 . S
C2798 C2799 1.394 . S
C2798 H2806 0.930 . S
C2799 C2798 1.394 . S
C2799 C2800 1.383 . S
C2799 H2807 0.929 . S
C2800 C2799 1.383 . S
C2800 C2801 1.377 . S
C2801 H2785 0.930 . S
C2801 C2800 1.377 . S
C2801 C2802 1.379 . S
C2802 H2786 0.931 . S
C2802 C2796 1.383 . S
C2802 C2801 1.379 . S
H2803 C2797 0.959 . S
H2804 C2797 0.961 . S
H2805 C2797 0.960 . S
H2806 C2798 0.930 . S
H2807 C2799 0.929 . S
H2808 C2816 0.929 . S
H2809 C2818 0.930 . S
H2810 C2820 0.930 . S
H2811 C2823 0.929 . S
H2812 C2826 0.930 . S
H2813 C2828 0.960 . S
H2814 C2828 0.960 . S
H2815 C2828 0.960 . S
C2816 H2808 0.929 . S
C2816 C2817 1.377 . S
C2816 C2818 1.384 . S
C2817 C2816 1.377 . S
C2817 C2823 1.390 . S
C2818 H2809 0.930 . S
C2818 C2816 1.384 . S
C2818 C2819 1.372 . S
C2819 C2818 1.372 . S
C2819 C2820 1.400 . S
C2819 C2824 1.490 . S
C2820 H2810 0.930 . S
C2820 C2819 1.400 . S
C2820 C2823 1.386 . S
H2821 C2837 0.930 . S
H2822 C2838 0.931 . S
C2823 H2811 0.929 . S
C2823 C2817 1.390 . S
C2823 C2820 1.386 . S
C2824 C2819 1.490 . S
C2824 C2826 1.395 . S
C2824 C2827 1.403 . S
H2825 C2831 0.930 . S
C2826 H2812 0.930 . S
C2826 C2824 1.395 . S
C2826 C2829 1.403 . S
C2827 C2824 1.403 . S
C2827 C2828 1.524 . S
C2827 C2831 1.400 . S
C2828 H2813 0.960 . S
C2828 H2814 0.960 . S
C2828 H2815 0.960 . S
C2828 C2827 1.524 . S
C2829 C2826 1.403 . S
C2829 C2830 1.392 . S
C2829 C2833 1.495 . S
C2830 C2829 1.392 . S
C2830 C2831 1.385 . S
C2830 C2832 1.478 . S
C2831 H2825 0.930 . S
C2831 C2827 1.400 . S
C2831 C2830 1.385 . S
C2832 C2830 1.478 . S
C2832 C2834 1.381 . S
C2832 C2838 1.383 . S
C2833 C2829 1.495 . S
C2833 H2839 0.959 . S
C2833 H2840 0.961 . S
C2833 H2841 0.960 . S
C2834 C2832 1.381 . S
C2834 C2835 1.394 . S
C2834 H2842 0.930 . S
C2835 C2834 1.394 . S
C2835 C2836 1.383 . S
C2835 H2843 0.929 . S
C2836 C2835 1.383 . S
C2836 C2837 1.377 . S
C2837 H2821 0.930 . S
C2837 C2836 1.377 . S
C2837 C2838 1.379 . S
C2838 H2822 0.931 . S
C2838 C2832 1.383 . S
C2838 C2837 1.379 . S
H2839 C2833 0.959 . S
H2840 C2833 0.961 . S
H2841 C2833 0.960 . S
H2842 C2834 0.930 . S
H2843 C2835 0.929 . S
H2844 C2852 0.929 1_554 S
H2845 C2854 0.930 . S
H2846 C2856 0.930 . S
H2847 C2859 0.929 . S
H2848 C2862 0.930 . S
H2849 C2864 0.960 . S
H2850 C2864 0.960 . S
H2851 C2864 0.960 . S
C2852 H2844 0.929 1_556 S
C2852 C2853 1.377 . S
C2852 C2854 1.384 . S
C2853 C2852 1.377 . S
C2853 C2859 1.390 . S
C2854 H2845 0.930 . S
C2854 C2852 1.384 . S
C2854 C2855 1.372 . S
C2855 C2854 1.372 . S
C2855 C2856 1.400 . S
C2855 C2860 1.490 . S
C2856 H2846 0.930 . S
C2856 C2855 1.400 . S
C2856 C2859 1.386 . S
H2857 C2873 0.930 . S
H2858 C2874 0.931 . S
C2859 H2847 0.929 . S
C2859 C2853 1.390 . S
C2859 C2856 1.386 . S
C2860 C2855 1.490 . S
C2860 C2862 1.395 . S
C2860 C2863 1.403 . S
H2861 C2867 0.930 . S
C2862 H2848 0.930 . S
C2862 C2860 1.395 . S
C2862 C2865 1.403 . S
C2863 C2860 1.403 . S
C2863 C2864 1.524 . S
C2863 C2867 1.400 . S
C2864 H2849 0.960 . S
C2864 H2850 0.960 . S
C2864 H2851 0.960 . S
C2864 C2863 1.524 . S
C2865 C2862 1.403 . S
C2865 C2866 1.392 . S
C2865 C2869 1.495 . S
C2866 C2865 1.392 . S
C2866 C2867 1.385 . S
C2866 C2868 1.478 . S
C2867 H2861 0.930 . S
C2867 C2863 1.400 . S
C2867 C2866 1.385 . S
C2868 C2866 1.478 . S
C2868 C2870 1.381 . S
C2868 C2874 1.383 . S
C2869 C2865 1.495 . S
C2869 H2875 0.959 . S
C2869 H2876 0.961 . S
C2869 H2877 0.960 . S
C2870 C2868 1.381 . S
C2870 C2871 1.394 . S
C2870 H2878 0.930 . S
C2871 C2870 1.394 . S
C2871 C2872 1.383 . S
C2871 H2879 0.929 . S
C2872 C2871 1.383 . S
C2872 C2873 1.377 . S
C2873 H2857 0.930 . S
C2873 C2872 1.377 . S
C2873 C2874 1.379 . S
C2874 H2858 0.931 . S
C2874 C2868 1.383 . S
C2874 C2873 1.379 . S
H2875 C2869 0.959 . S
H2876 C2869 0.961 . S
H2877 C2869 0.960 . S
H2878 C2870 0.930 . S
H2879 C2871 0.929 . S
H2880 C2888 0.929 . S
H2881 C2890 0.930 . S
H2882 C2892 0.930 . S
H2883 C2895 0.929 . S
H2884 C2898 0.930 . S
H2885 C2900 0.960 . S
H2886 C2900 0.960 . S
H2887 C2900 0.960 . S
C2888 H2880 0.929 . S
C2888 C2889 1.377 . S
C2888 C2890 1.384 . S
C2889 C2888 1.377 . S
C2889 C2895 1.390 . S
C2890 H2881 0.930 . S
C2890 C2888 1.384 . S
C2890 C2891 1.372 . S
C2891 C2890 1.372 . S
C2891 C2892 1.400 . S
C2891 C2896 1.490 . S
C2892 H2882 0.930 . S
C2892 C2891 1.400 . S
C2892 C2895 1.386 . S
H2893 C2909 0.930 . S
H2894 C2910 0.931 . S
C2895 H2883 0.929 . S
C2895 C2889 1.390 . S
C2895 C2892 1.386 . S
C2896 C2891 1.490 . S
C2896 C2898 1.395 . S
C2896 C2899 1.403 . S
H2897 C2903 0.930 . S
C2898 H2884 0.930 . S
C2898 C2896 1.395 . S
C2898 C2901 1.403 . S
C2899 C2896 1.403 . S
C2899 C2900 1.524 . S
C2899 C2903 1.400 . S
C2900 H2885 0.960 . S
C2900 H2886 0.960 . S
C2900 H2887 0.960 . S
C2900 C2899 1.524 . S
C2901 C2898 1.403 . S
C2901 C2902 1.392 . S
C2901 C2905 1.495 . S
C2902 C2901 1.392 . S
C2902 C2903 1.385 . S
C2902 C2904 1.478 . S
C2903 H2897 0.930 . S
C2903 C2899 1.400 . S
C2903 C2902 1.385 . S
C2904 C2902 1.478 . S
C2904 C2906 1.427 . S
C2904 C2910 1.383 . S
C2905 C2901 1.495 . S
C2905 H2911 0.959 . S
C2905 H2912 0.961 . S
C2905 H2913 0.930 1_655 S
C2906 C2904 1.427 . S
C2906 C2907 1.373 1_655 S
C2906 H2914 0.907 1_655 S
C2907 C2906 1.373 1_455 S
C2907 C2908 1.376 1_455 S
C2907 H2915 0.929 . S
C2908 C2907 1.376 1_655 S
C2908 C2909 1.392 . S
C2909 H2893 0.930 . S
C2909 C2908 1.392 . S
C2909 C2910 1.379 . S
C2910 H2894 0.931 . S
C2910 C2904 1.383 . S
C2910 C2909 1.379 . S
H2911 C2905 0.959 . S
H2912 C2905 0.961 . S
H2913 C2905 0.930 1_455 S
H2914 C2906 0.907 1_455 S
H2915 C2907 0.929 . S
H2916 C2924 0.929 . S
H2917 C2926 0.930 . S
H2918 C2928 0.930 . S
H2919 C2931 0.929 . S
H2920 C2934 0.930 . S
H2921 C2936 0.960 . S
H2922 C2936 0.960 . S
H2923 C2936 0.960 . S
C2924 H2916 0.929 . S
C2924 C2925 1.377 . S
C2924 C2926 1.384 . S
C2925 C2924 1.377 . S
C2925 C2931 1.390 . S
C2926 H2917 0.930 . S
C2926 C2924 1.384 . S
C2926 C2927 1.372 . S
C2927 C2926 1.372 . S
C2927 C2928 1.400 . S
C2927 C2932 1.490 . S
C2928 H2918 0.930 . S
C2928 C2927 1.400 . S
C2928 C2931 1.386 . S
H2929 C2945 0.930 . S
H2930 C2946 0.931 . S
C2931 H2919 0.929 . S
C2931 C2925 1.390 . S
C2931 C2928 1.386 . S
C2932 C2927 1.490 . S
C2932 C2934 1.395 . S
C2932 C2935 1.403 . S
H2933 C2939 0.930 . S
C2934 H2920 0.930 . S
C2934 C2932 1.395 . S
C2934 C2937 1.403 . S
C2935 C2932 1.403 . S
C2935 C2936 1.524 . S
C2935 C2939 1.400 . S
C2936 H2921 0.960 . S
C2936 H2922 0.960 . S
C2936 H2923 0.960 . S
C2936 C2935 1.524 . S
C2937 C2934 1.403 . S
C2937 C2938 1.392 . S
C2937 C2941 1.495 . S
C2938 C2937 1.392 . S
C2938 C2939 1.385 . S
C2938 C2940 1.478 . S
C2939 H2933 0.930 . S
C2939 C2935 1.400 . S
C2939 C2938 1.385 . S
C2940 C2938 1.478 . S
C2940 C2942 1.381 . S
C2940 C2946 1.383 . S
C2941 C2937 1.495 . S
C2941 H2947 0.959 . S
C2941 H2948 0.961 . S
C2941 H2949 0.960 . S
C2942 C2940 1.381 . S
C2942 C2943 1.394 . S
C2942 H2950 0.930 . S
C2943 C2942 1.394 . S
C2943 C2944 1.383 . S
C2943 H2951 0.929 . S
C2944 C2943 1.383 . S
C2944 C2945 1.377 . S
C2945 H2929 0.930 . S
C2945 C2944 1.377 . S
C2945 C2946 1.379 . S
C2946 H2930 0.931 . S
C2946 C2940 1.383 . S
C2946 C2945 1.379 . S
H2947 C2941 0.959 . S
H2948 C2941 0.961 . S
H2949 C2941 0.960 . S
H2950 C2942 0.930 . S
H2951 C2943 0.929 . S
H2952 C2960 0.929 . S
H2953 C2962 0.930 . S
H2954 C2964 0.930 . S
H2955 C2967 0.929 . S
H2956 C2970 0.930 . S
H2957 C2972 0.960 . S
H2958 C2972 0.960 . S
H2959 C2972 0.960 . S
C2960 H2952 0.929 . S
C2960 C2961 1.377 . S
C2960 C2962 1.384 . S
C2961 C2960 1.377 . S
C2961 C2967 1.390 . S
C2962 H2953 0.930 . S
C2962 C2960 1.384 . S
C2962 C2963 1.372 . S
C2963 C2962 1.372 . S
C2963 C2964 1.400 . S
C2963 C2968 1.490 . S
C2964 H2954 0.930 . S
C2964 C2963 1.400 . S
C2964 C2967 1.386 . S
H2965 C2981 0.930 . S
H2966 C2982 0.931 . S
C2967 H2955 0.929 . S
C2967 C2961 1.390 . S
C2967 C2964 1.386 . S
C2968 C2963 1.490 . S
C2968 C2970 1.395 . S
C2968 C2971 1.403 . S
H2969 C2975 0.930 . S
C2970 H2956 0.930 . S
C2970 C2968 1.395 . S
C2970 C2973 1.403 . S
C2971 C2968 1.403 . S
C2971 C2972 1.524 . S
C2971 C2975 1.400 . S
C2972 H2957 0.960 . S
C2972 H2958 0.960 . S
C2972 H2959 0.960 . S
C2972 C2971 1.524 . S
C2973 C2970 1.403 . S
C2973 C2974 1.392 . S
C2973 C2977 1.495 . S
C2974 C2973 1.392 . S
C2974 C2975 1.385 . S
C2974 C2976 1.478 . S
C2975 H2969 0.930 . S
C2975 C2971 1.400 . S
C2975 C2974 1.385 . S
C2976 C2974 1.478 . S
C2976 C2978 1.381 . S
C2976 C2982 1.383 . S
C2977 C2973 1.495 . S
C2977 H2983 0.959 . S
C2977 H2984 0.961 . S
C2977 H2985 0.960 . S
C2978 C2976 1.381 . S
C2978 C2979 1.394 . S
C2978 H2986 0.930 . S
C2979 C2978 1.394 . S
C2979 C2980 1.383 . S
C2979 H2987 0.929 . S
C2980 C2979 1.383 . S
C2980 C2981 1.377 . S
C2981 H2965 0.930 . S
C2981 C2980 1.377 . S
C2981 C2982 1.379 . S
C2982 H2966 0.931 . S
C2982 C2976 1.383 . S
C2982 C2981 1.379 . S
H2983 C2977 0.959 . S
H2984 C2977 0.961 . S
H2985 C2977 0.960 . S
H2986 C2978 0.930 . S
H2987 C2979 0.929 . S
H2988 C2996 0.929 . S
H2989 C2998 0.930 . S
H2990 C3000 0.930 . S
H2991 C3003 0.929 . S
H2992 C3006 0.930 . S
H2993 C3008 0.960 . S
H2994 C3008 0.960 . S
H2995 C3008 0.960 . S
C2996 H2988 0.929 . S
C2996 C2997 1.377 . S
C2996 C2998 1.384 . S
C2997 C2996 1.377 . S
C2997 C3003 1.390 . S
C2998 H2989 0.930 . S
C2998 C2996 1.384 . S
C2998 C2999 1.372 . S
C2999 C2998 1.372 . S
C2999 C3000 1.400 . S
C2999 C3004 1.490 . S
C3000 H2990 0.930 . S
C3000 C2999 1.400 . S
C3000 C3003 1.386 . S
H3001 C3017 0.930 . S
H3002 C3018 0.931 . S
C3003 H2991 0.929 . S
C3003 C2997 1.390 . S
C3003 C3000 1.386 . S
C3004 C2999 1.490 . S
C3004 C3006 1.395 . S
C3004 C3007 1.403 . S
H3005 C3011 0.930 . S
C3006 H2992 0.930 . S
C3006 C3004 1.395 . S
C3006 C3009 1.403 . S
C3007 C3004 1.403 . S
C3007 C3008 1.524 . S
C3007 C3011 1.400 . S
C3008 H2993 0.960 . S
C3008 H2994 0.960 . S
C3008 H2995 0.960 . S
C3008 C3007 1.524 . S
C3009 C3006 1.403 . S
C3009 C3010 1.392 . S
C3009 C3013 1.495 . S
C3010 C3009 1.392 . S
C3010 C3011 1.385 . S
C3010 C3012 1.478 . S
C3011 H3005 0.930 . S
C3011 C3007 1.400 . S
C3011 C3010 1.385 . S
C3012 C3010 1.478 . S
C3012 C3014 1.381 . S
C3012 C3018 1.383 . S
C3013 C3009 1.495 . S
C3013 H3019 0.959 . S
C3013 H3020 0.961 . S
C3013 H3021 0.960 . S
C3014 C3012 1.381 . S
C3014 C3015 1.394 . S
C3014 H3022 0.930 . S
C3015 C3014 1.394 . S
C3015 C3016 1.383 . S
C3015 H3023 0.929 . S
C3016 C3015 1.383 . S
C3016 C3017 1.377 . S
C3017 H3001 0.930 . S
C3017 C3016 1.377 . S
C3017 C3018 1.379 . S
C3018 H3002 0.931 . S
C3018 C3012 1.383 . S
C3018 C3017 1.379 . S
H3019 C3013 0.959 . S
H3020 C3013 0.961 . S
H3021 C3013 0.960 . S
H3022 C3014 0.930 . S
H3023 C3015 0.929 . S
H3024 C3032 0.929 . S
H3025 C3034 0.930 . S
H3026 C3036 0.930 . S
H3027 C3039 0.929 . S
H3028 C3042 0.930 . S
H3029 C3044 0.960 . S
H3030 C3044 0.960 . S
H3031 C3044 0.960 . S
C3032 H3024 0.929 . S
C3032 C3033 1.377 . S
C3032 C3034 1.384 . S
C3033 C3032 1.377 . S
C3033 C3039 1.390 . S
C3034 H3025 0.930 . S
C3034 C3032 1.384 . S
C3034 C3035 1.372 . S
C3035 C3034 1.372 . S
C3035 C3036 1.400 . S
C3035 C3040 1.490 . S
C3036 H3026 0.930 . S
C3036 C3035 1.400 . S
C3036 C3039 1.386 . S
H3037 C3053 0.930 . S
H3038 C3054 0.931 . S
C3039 H3027 0.929 . S
C3039 C3033 1.390 . S
C3039 C3036 1.386 . S
C3040 C3035 1.490 . S
C3040 C3042 1.395 . S
C3040 C3043 1.403 . S
H3041 C3047 0.930 . S
C3042 H3028 0.930 . S
C3042 C3040 1.395 . S
C3042 C3045 1.403 . S
C3043 C3040 1.403 . S
C3043 C3044 1.524 . S
C3043 C3047 1.400 . S
C3044 H3029 0.960 . S
C3044 H3030 0.960 . S
C3044 H3031 0.960 . S
C3044 C3043 1.524 . S
C3045 C3042 1.403 . S
C3045 C3046 1.392 . S
C3045 C3049 1.495 . S
C3046 C3045 1.392 . S
C3046 C3047 1.385 . S
C3046 C3048 1.478 . S
C3047 H3041 0.930 . S
C3047 C3043 1.400 . S
C3047 C3046 1.385 . S
C3048 C3046 1.478 . S
C3048 C3050 1.381 . S
C3048 C3054 1.383 . S
C3049 C3045 1.495 . S
C3049 H3055 0.959 . S
C3049 H3056 0.961 . S
C3049 H3057 0.960 . S
C3050 C3048 1.381 . S
C3050 C3051 1.394 1_655 S
C3050 H3058 0.910 1_655 S
C3051 C3050 1.394 1_455 S
C3051 C3052 1.383 1_455 S
C3051 H3059 0.929 . S
C3052 C3051 1.383 1_655 S
C3052 C3053 1.377 . S
C3053 H3037 0.930 . S
C3053 C3052 1.377 . S
C3053 C3054 1.379 . S
C3054 H3038 0.931 . S
C3054 C3048 1.383 . S
C3054 C3053 1.379 . S
H3055 C3049 0.959 . S
H3056 C3049 0.961 . S
H3057 C3049 0.960 . S
H3058 C3050 0.910 1_455 S
H3059 C3051 0.929 . S
H3060 C3068 0.929 . S
H3061 C3070 0.930 . S
H3062 C3072 0.930 . S
H3063 C3075 0.929 . S
H3064 C3078 0.930 . S
H3065 C3080 0.960 . S
H3066 C3080 0.960 . S
H3067 C3080 0.960 . S
C3068 H3060 0.929 . S
C3068 C3069 1.377 . S
C3068 C3070 1.384 . S
C3069 C3068 1.377 . S
C3069 C3075 1.390 . S
C3070 H3061 0.930 . S
C3070 C3068 1.384 . S
C3070 C3071 1.372 . S
C3071 C3070 1.372 . S
C3071 C3072 1.400 . S
C3071 C3076 1.490 . S
C3072 H3062 0.930 . S
C3072 C3071 1.400 . S
C3072 C3075 1.386 . S
H3073 C3089 0.930 . S
H3074 C3090 0.931 . S
C3075 H3063 0.929 . S
C3075 C3069 1.390 . S
C3075 C3072 1.386 . S
C3076 C3071 1.490 . S
C3076 C3078 1.395 . S
C3076 C3079 1.403 . S
H3077 C3083 0.930 . S
C3078 H3064 0.930 . S
C3078 C3076 1.395 . S
C3078 C3081 1.403 . S
C3079 C3076 1.403 . S
C3079 C3080 1.524 . S
C3079 C3083 1.400 . S
C3080 H3065 0.960 . S
C3080 H3066 0.960 . S
C3080 H3067 0.960 . S
C3080 C3079 1.524 . S
C3081 C3078 1.403 . S
C3081 C3082 1.392 . S
C3081 C3085 1.495 . S
C3082 C3081 1.392 . S
C3082 C3083 1.385 . S
C3082 C3084 1.478 . S
C3083 H3077 0.930 . S
C3083 C3079 1.400 . S
C3083 C3082 1.385 . S
C3084 C3082 1.478 . S
C3084 C3086 1.381 . S
C3084 C3090 1.383 . S
C3085 C3081 1.495 . S
C3085 H3091 0.959 . S
C3085 H3092 0.961 . S
C3085 H3093 0.960 . S
C3086 C3084 1.381 . S
C3086 C3087 1.394 . S
C3086 H3094 0.930 . S
C3087 C3086 1.394 . S
C3087 C3088 1.383 . S
C3087 H3095 0.929 . S
C3088 C3087 1.383 . S
C3088 C3089 1.377 . S
C3089 H3073 0.930 . S
C3089 C3088 1.377 . S
C3089 C3090 1.379 . S
C3090 H3074 0.931 . S
C3090 C3084 1.383 . S
C3090 C3089 1.379 . S
H3091 C3085 0.959 . S
H3092 C3085 0.961 . S
H3093 C3085 0.960 . S
H3094 C3086 0.930 . S
H3095 C3087 0.929 . S
H3096 C3104 0.929 . S
H3097 C3106 0.930 . S
H3098 C3108 0.930 . S
H3099 C3111 0.929 . S
H3100 C3114 0.930 . S
H3101 C3116 0.960 . S
H3102 C3116 0.960 . S
H3103 C3116 0.960 . S
C3104 H3096 0.929 . S
C3104 C3105 1.377 . S
C3104 C3106 1.384 . S
C3105 C3104 1.377 . S
C3105 C3111 1.390 . S
C3106 H3097 0.930 . S
C3106 C3104 1.384 . S
C3106 C3107 1.372 . S
C3107 C3106 1.372 . S
C3107 C3108 1.400 . S
C3107 C3112 1.490 . S
C3108 H3098 0.930 . S
C3108 C3107 1.400 . S
C3108 C3111 1.386 . S
H3109 C3125 0.930 . S
H3110 C3126 0.931 . S
C3111 H3099 0.929 . S
C3111 C3105 1.390 . S
C3111 C3108 1.386 . S
C3112 C3107 1.490 . S
C3112 C3114 1.395 . S
C3112 C3115 1.403 . S
H3113 C3119 0.930 . S
C3114 H3100 0.930 . S
C3114 C3112 1.395 . S
C3114 C3117 1.403 . S
C3115 C3112 1.403 . S
C3115 C3116 1.524 . S
C3115 C3119 1.400 . S
C3116 H3101 0.960 . S
C3116 H3102 0.960 . S
C3116 H3103 0.960 . S
C3116 C3115 1.524 . S
C3117 C3114 1.403 . S
C3117 C3118 1.392 . S
C3117 C3121 1.495 . S
C3118 C3117 1.392 . S
C3118 C3119 1.385 . S
C3118 C3120 1.478 . S
C3119 H3113 0.930 . S
C3119 C3115 1.400 . S
C3119 C3118 1.385 . S
C3120 C3118 1.478 . S
C3120 C3122 1.381 . S
C3120 C3126 1.383 . S
C3121 C3117 1.495 . S
C3121 H3127 0.959 . S
C3121 H3128 0.961 . S
C3121 H3129 0.960 . S
C3122 C3120 1.381 . S
C3122 C3123 1.394 . S
C3122 H3130 0.930 . S
C3123 C3122 1.394 . S
C3123 C3124 1.383 . S
C3123 H3131 0.929 . S
C3124 C3123 1.383 . S
C3124 C3125 1.377 . S
C3125 H3109 0.930 . S
C3125 C3124 1.377 . S
C3125 C3126 1.379 . S
C3126 H3110 0.931 . S
C3126 C3120 1.383 . S
C3126 C3125 1.379 . S
H3127 C3121 0.959 . S
H3128 C3121 0.961 . S
H3129 C3121 0.960 . S
H3130 C3122 0.930 . S
H3131 C3123 0.929 . S
H3132 C3140 0.929 . S
H3133 C3142 0.930 . S
H3134 C3144 0.930 . S
H3135 C3147 0.929 . S
H3136 C3150 0.930 . S
H3137 C3152 0.960 . S
H3138 C3152 0.960 . S
H3139 C3152 0.960 . S
C3140 H3132 0.929 . S
C3140 C3141 1.377 . S
C3140 C3142 1.384 . S
C3141 C3140 1.377 . S
C3141 C3147 1.390 . S
C3142 H3133 0.930 . S
C3142 C3140 1.384 . S
C3142 C3143 1.372 . S
C3143 C3142 1.372 . S
C3143 C3144 1.400 . S
C3143 C3148 1.490 . S
C3144 H3134 0.930 . S
C3144 C3143 1.400 . S
C3144 C3147 1.386 . S
H3145 C3161 0.930 . S
H3146 C3162 0.927 1_545 S
C3147 H3135 0.929 . S
C3147 C3141 1.390 . S
C3147 C3144 1.386 . S
C3148 C3143 1.490 . S
C3148 C3150 1.395 . S
C3148 C3151 1.403 . S
H3149 C3155 0.930 . S
C3150 H3136 0.930 . S
C3150 C3148 1.395 . S
C3150 C3153 1.403 . S
C3151 C3148 1.403 . S
C3151 C3152 1.524 . S
C3151 C3155 1.400 . S
C3152 H3137 0.960 . S
C3152 H3138 0.960 . S
C3152 H3139 0.960 . S
C3152 C3151 1.524 . S
C3153 C3150 1.403 . S
C3153 C3154 1.392 . S
C3153 C3157 1.495 . S
C3154 C3153 1.392 . S
C3154 C3155 1.385 . S
C3154 C3156 1.478 . S
C3155 H3149 0.930 . S
C3155 C3151 1.400 . S
C3155 C3154 1.385 . S
C3156 C3154 1.478 . S
C3156 C3158 1.381 . S
C3156 C3162 1.397 . S
C3157 C3153 1.495 . S
C3157 H3163 0.959 . S
C3157 H3164 0.961 1_565 S
C3157 H3165 0.960 . S
C3158 C3156 1.381 . S
C3158 C3159 1.394 . S
C3158 H3166 0.930 . S
C3159 C3158 1.394 . S
C3159 C3160 1.383 1_565 S
C3159 H3167 0.929 . S
C3160 C3159 1.383 1_545 S
C3160 C3161 1.377 . S
C3161 H3145 0.930 . S
C3161 C3160 1.377 . S
C3161 C3162 1.369 1_545 S
C3162 H3146 0.927 1_565 S
C3162 C3156 1.397 . S
C3162 C3161 1.369 1_565 S
H3163 C3157 0.959 . S
H3164 C3157 0.961 1_545 S
H3165 C3157 0.960 . S
H3166 C3158 0.930 . S
H3167 C3159 0.929 . S
H3168 C3176 0.925 . S
H3169 C3178 0.930 . S
H3170 C3180 0.930 . S
H3171 C3183 0.929 . S
H3172 C3186 0.930 . S
H3173 C3188 0.960 . S
H3174 C3188 0.960 . S
H3175 C3188 0.960 . S
C3176 H3168 0.925 . S
C3176 C3177 1.377 . S
C3176 C3178 1.384 . S
C3177 C3176 1.377 . S
C3177 C3183 1.390 . S
C3178 H3169 0.930 . S
C3178 C3176 1.384 . S
C3178 C3179 1.372 . S
C3179 C3178 1.372 . S
C3179 C3180 1.400 . S
C3179 C3184 1.490 . S
C3180 H3170 0.930 . S
C3180 C3179 1.400 . S
C3180 C3183 1.386 . S
H3181 C3197 0.930 . S
H3182 C3198 0.931 . S
C3183 H3171 0.929 . S
C3183 C3177 1.390 . S
C3183 C3180 1.386 . S
C3184 C3179 1.490 . S
C3184 C3186 1.395 . S
C3184 C3187 1.403 . S
H3185 C3191 0.930 . S
C3186 H3172 0.930 . S
C3186 C3184 1.395 . S
C3186 C3189 1.403 . S
C3187 C3184 1.403 . S
C3187 C3188 1.524 . S
C3187 C3191 1.400 . S
C3188 H3173 0.960 . S
C3188 H3174 0.960 . S
C3188 H3175 0.960 . S
C3188 C3187 1.524 . S
C3189 C3186 1.403 . S
C3189 C3190 1.392 . S
C3189 C3193 1.495 . S
C3190 C3189 1.392 . S
C3190 C3191 1.385 . S
C3190 C3192 1.478 . S
C3191 H3185 0.930 . S
C3191 C3187 1.400 . S
C3191 C3190 1.385 . S
C3192 C3190 1.478 . S
C3192 C3194 1.381 . S
C3192 C3198 1.383 . S
C3193 C3189 1.495 . S
C3193 H3199 0.959 . S
C3193 H3200 0.961 . S
C3193 H3201 0.960 . S
C3194 C3192 1.381 . S
C3194 C3195 1.394 . S
C3194 H3202 0.930 . S
C3195 C3194 1.394 . S
C3195 C3196 1.383 . S
C3195 H3203 0.929 . S
C3196 C3195 1.383 . S
C3196 C3197 1.377 . S
C3197 H3181 0.930 . S
C3197 C3196 1.377 . S
C3197 C3198 1.379 . S
C3198 H3182 0.931 . S
C3198 C3192 1.383 . S
C3198 C3197 1.379 . S
H3199 C3193 0.959 . S
H3200 C3193 0.961 . S
H3201 C3193 0.960 . S
H3202 C3194 0.930 . S
H3203 C3195 0.929 . S
H3204 C3212 0.929 . S
H3205 C3214 0.930 . S
H3206 C3216 0.930 . S
H3207 C3219 0.929 . S
H3208 C3222 0.930 . S
H3209 C3224 0.960 . S
H3210 C3224 0.960 . S
H3211 C3224 0.960 . S
C3212 H3204 0.929 . S
C3212 C3213 1.377 . S
C3212 C3214 1.384 . S
C3213 C3212 1.377 . S
C3213 C3219 1.390 . S
C3214 H3205 0.930 . S
C3214 C3212 1.384 . S
C3214 C3215 1.372 . S
C3215 C3214 1.372 . S
C3215 C3216 1.400 . S
C3215 C3220 1.490 . S
C3216 H3206 0.930 . S
C3216 C3215 1.400 . S
C3216 C3219 1.386 . S
H3217 C3233 0.930 . S
H3218 C3234 0.931 . S
C3219 H3207 0.929 . S
C3219 C3213 1.390 . S
C3219 C3216 1.386 . S
C3220 C3215 1.490 . S
C3220 C3222 1.395 . S
C3220 C3223 1.403 . S
H3221 C3227 0.930 . S
C3222 H3208 0.930 . S
C3222 C3220 1.395 . S
C3222 C3225 1.403 . S
C3223 C3220 1.403 . S
C3223 C3224 1.524 . S
C3223 C3227 1.400 . S
C3224 H3209 0.960 . S
C3224 H3210 0.960 . S
C3224 H3211 0.960 . S
C3224 C3223 1.524 . S
C3225 C3222 1.403 . S
C3225 C3226 1.392 . S
C3225 C3229 1.495 . S
C3226 C3225 1.392 . S
C3226 C3227 1.385 . S
C3226 C3228 1.478 . S
C3227 H3221 0.930 . S
C3227 C3223 1.400 . S
C3227 C3226 1.385 . S
C3228 C3226 1.478 . S
C3228 C3230 1.381 . S
C3228 C3234 1.383 . S
C3229 C3225 1.495 . S
C3229 H3235 0.959 . S
C3229 H3236 0.961 . S
C3229 H3237 0.960 . S
C3230 C3228 1.381 . S
C3230 C3231 1.394 . S
C3230 H3238 0.930 . S
C3231 C3230 1.394 . S
C3231 C3232 1.383 . S
C3231 H3239 0.929 . S
C3232 C3231 1.383 . S
C3232 C3233 1.377 . S
C3233 H3217 0.930 . S
C3233 C3232 1.377 . S
C3233 C3234 1.379 . S
C3234 H3218 0.931 . S
C3234 C3228 1.383 . S
C3234 C3233 1.379 . S
H3235 C3229 0.959 . S
H3236 C3229 0.961 . S
H3237 C3229 0.960 . S
H3238 C3230 0.930 . S
H3239 C3231 0.929 . S
H3240 C3248 0.929 . S
H3241 C3250 0.930 . S
H3242 C3252 0.930 . S
H3243 C3255 0.929 . S
H3244 C3258 0.930 . S
H3245 C3260 0.960 . S
H3246 C3260 0.960 . S
H3247 C3260 0.960 . S
C3248 H3240 0.929 . S
C3248 C3249 1.377 . S
C3248 C3250 1.384 . S
C3249 C3248 1.377 . S
C3249 C3255 1.390 . S
C3250 H3241 0.930 . S
C3250 C3248 1.384 . S
C3250 C3251 1.372 . S
C3251 C3250 1.372 . S
C3251 C3252 1.400 . S
C3251 C3256 1.490 . S
C3252 H3242 0.930 . S
C3252 C3251 1.400 . S
C3252 C3255 1.386 . S
H3253 C3269 0.930 . S
H3254 C3270 0.931 . S
C3255 H3243 0.929 . S
C3255 C3249 1.390 . S
C3255 C3252 1.386 . S
C3256 C3251 1.490 . S
C3256 C3258 1.395 . S
C3256 C3259 1.403 . S
H3257 C3263 0.930 . S
C3258 H3244 0.930 . S
C3258 C3256 1.395 . S
C3258 C3261 1.403 . S
C3259 C3256 1.403 . S
C3259 C3260 1.524 . S
C3259 C3263 1.400 . S
C3260 H3245 0.960 . S
C3260 H3246 0.960 . S
C3260 H3247 0.960 . S
C3260 C3259 1.524 . S
C3261 C3258 1.403 . S
C3261 C3262 1.392 . S
C3261 C3265 1.495 . S
C3262 C3261 1.392 . S
C3262 C3263 1.385 . S
C3262 C3264 1.478 . S
C3263 H3257 0.930 . S
C3263 C3259 1.400 . S
C3263 C3262 1.385 . S
C3264 C3262 1.478 . S
C3264 C3266 1.381 . S
C3264 C3270 1.383 . S
C3265 C3261 1.495 . S
C3265 H3271 0.959 . S
C3265 H3272 0.961 . S
C3265 H3273 0.960 . S
C3266 C3264 1.381 . S
C3266 C3267 1.394 . S
C3266 H3274 0.930 . S
C3267 C3266 1.394 . S
C3267 C3268 1.383 . S
C3267 H3275 0.929 . S
C3268 C3267 1.383 . S
C3268 C3269 1.377 . S
C3269 H3253 0.930 . S
C3269 C3268 1.377 . S
C3269 C3270 1.379 . S
C3270 H3254 0.931 . S
C3270 C3264 1.383 . S
C3270 C3269 1.379 . S
H3271 C3265 0.959 . S
H3272 C3265 0.961 . S
H3273 C3265 0.960 . S
H3274 C3266 0.930 . S
H3275 C3267 0.929 . S
H3276 C3284 0.929 . S
H3277 C3286 0.930 . S
H3278 C3288 0.930 . S
H3279 C3291 0.929 . S
H3280 C3294 0.930 1_556 S
H3281 C3296 0.960 . S
H3282 C3296 0.960 . S
H3283 C3296 0.960 . S
C3284 H3276 0.929 . S
C3284 C3285 1.377 . S
C3284 C3286 1.384 . S
C3285 C3284 1.377 . S
C3285 C3291 1.390 . S
C3286 H3277 0.930 . S
C3286 C3284 1.384 . S
C3286 C3287 1.372 . S
C3287 C3286 1.372 . S
C3287 C3288 1.400 . S
C3287 C3292 1.490 . S
C3288 H3278 0.930 . S
C3288 C3287 1.400 . S
C3288 C3291 1.386 . S
H3289 C3305 0.930 . S
H3290 C3306 0.931 . S
C3291 H3279 0.929 . S
C3291 C3285 1.390 . S
C3291 C3288 1.386 . S
C3292 C3287 1.490 . S
C3292 C3294 1.395 . S
C3292 C3295 1.403 . S
H3293 C3299 0.930 . S
C3294 H3280 0.930 1_554 S
C3294 C3292 1.395 . S
C3294 C3297 1.395 1_554 S
C3295 C3292 1.403 . S
C3295 C3296 1.524 . S
C3295 C3299 1.400 . S
C3296 H3281 0.960 . S
C3296 H3282 0.960 . S
C3296 H3283 0.960 . S
C3296 C3295 1.524 . S
C3297 C3294 1.395 1_556 S
C3297 C3298 1.367 1_556 S
C3297 C3301 1.529 . S
C3298 C3297 1.367 1_554 S
C3298 C3299 1.385 . S
C3298 C3300 1.478 . S
C3299 H3293 0.930 . S
C3299 C3295 1.400 . S
C3299 C3298 1.385 . S
C3300 C3298 1.478 . S
C3300 C3302 1.381 1_554 S
C3300 C3306 1.383 . S
C3301 C3297 1.529 . S
C3301 H3307 0.959 . S
C3301 H3308 0.961 . S
C3301 H3309 0.960 . S
C3302 C3300 1.381 1_556 S
C3302 C3303 1.394 . S
C3302 H3310 0.930 . S
C3303 C3302 1.394 . S
C3303 C3304 1.383 1_556 S
C3303 H3311 0.929 . S
C3304 C3303 1.383 1_554 S
C3304 C3305 1.377 . S
C3305 H3289 0.930 . S
C3305 C3304 1.377 . S
C3305 C3306 1.379 . S
C3306 H3290 0.931 . S
C3306 C3300 1.383 . S
C3306 C3305 1.379 . S
H3307 C3301 0.959 . S
H3308 C3301 0.961 . S
H3309 C3301 0.960 . S
H3310 C3302 0.930 . S
H3311 C3303 0.929 . S
H3312 C3320 0.929 . S
H3313 C3322 0.930 . S
H3314 C3324 0.930 . S
H3315 C3327 0.929 . S
H3316 C3330 0.930 . S
H3317 C3332 0.960 . S
H3318 C3332 0.960 . S
H3319 C3332 0.960 . S
C3320 H3312 0.929 . S
C3320 C3321 1.377 . S
C3320 C3322 1.384 . S
C3321 C3320 1.377 . S
C3321 C3327 1.390 . S
C3322 H3313 0.930 . S
C3322 C3320 1.384 . S
C3322 C3323 1.372 . S
C3323 C3322 1.372 . S
C3323 C3324 1.400 . S
C3323 C3328 1.490 . S
C3324 H3314 0.930 . S
C3324 C3323 1.400 . S
C3324 C3327 1.386 . S
H3325 C3341 0.930 . S
H3326 C3342 0.931 . S
C3327 H3315 0.929 . S
C3327 C3321 1.390 . S
C3327 C3324 1.386 . S
C3328 C3323 1.490 . S
C3328 C3330 1.395 . S
C3328 C3331 1.403 . S
H3329 C3335 0.930 . S
C3330 H3316 0.930 . S
C3330 C3328 1.395 . S
C3330 C3333 1.403 . S
C3331 C3328 1.403 . S
C3331 C3332 1.524 . S
C3331 C3335 1.400 . S
C3332 H3317 0.960 . S
C3332 H3318 0.960 . S
C3332 H3319 0.960 . S
C3332 C3331 1.524 . S
C3333 C3330 1.403 . S
C3333 C3334 1.392 . S
C3333 C3337 1.495 . S
C3334 C3333 1.392 . S
C3334 C3335 1.385 . S
C3334 C3336 1.478 . S
C3335 H3329 0.930 . S
C3335 C3331 1.400 . S
C3335 C3334 1.385 . S
C3336 C3334 1.478 . S
C3336 C3338 1.381 . S
C3336 C3342 1.383 . S
C3337 C3333 1.495 . S
C3337 H3343 0.959 . S
C3337 H3344 0.961 . S
C3337 H3345 0.960 . S
C3338 C3336 1.381 . S
C3338 C3339 1.394 . S
C3338 H3346 0.930 . S
C3339 C3338 1.394 . S
C3339 C3340 1.383 . S
C3339 H3347 0.929 . S
C3340 C3339 1.383 . S
C3340 C3341 1.377 . S
C3341 H3325 0.930 . S
C3341 C3340 1.377 . S
C3341 C3342 1.379 . S
C3342 H3326 0.931 . S
C3342 C3336 1.383 . S
C3342 C3341 1.379 . S
H3343 C3337 0.959 . S
H3344 C3337 0.961 . S
H3345 C3337 0.960 . S
H3346 C3338 0.930 . S
H3347 C3339 0.929 . S
H3348 C3356 0.929 . S
H3349 C3358 0.930 . S
H3350 C3360 0.930 . S
H3351 C3363 0.929 . S
H3352 C3366 0.930 . S
H3353 C3368 0.960 . S
H3354 C3368 0.960 . S
H3355 C3368 0.960 . S
C3356 H3348 0.929 . S
C3356 C3357 1.377 . S
C3356 C3358 1.384 . S
C3357 C3356 1.377 . S
C3357 C3363 1.390 . S
C3358 H3349 0.930 . S
C3358 C3356 1.384 . S
C3358 C3359 1.372 . S
C3359 C3358 1.372 . S
C3359 C3360 1.400 . S
C3359 C3364 1.490 . S
C3360 H3350 0.930 . S
C3360 C3359 1.400 . S
C3360 C3363 1.386 . S
H3361 C3377 0.930 . S
H3362 C3378 0.931 . S
C3363 H3351 0.929 . S
C3363 C3357 1.390 . S
C3363 C3360 1.386 . S
C3364 C3359 1.490 . S
C3364 C3366 1.395 . S
C3364 C3367 1.403 . S
H3365 C3371 0.930 . S
C3366 H3352 0.930 . S
C3366 C3364 1.395 . S
C3366 C3369 1.403 . S
C3367 C3364 1.403 . S
C3367 C3368 1.524 . S
C3367 C3371 1.400 . S
C3368 H3353 0.960 . S
C3368 H3354 0.960 . S
C3368 H3355 0.960 . S
C3368 C3367 1.524 . S
C3369 C3366 1.403 . S
C3369 C3370 1.392 . S
C3369 C3373 1.495 . S
C3370 C3369 1.392 . S
C3370 C3371 1.385 . S
C3370 C3372 1.478 . S
C3371 H3365 0.930 . S
C3371 C3367 1.400 . S
C3371 C3370 1.385 . S
C3372 C3370 1.478 . S
C3372 C3374 1.381 . S
C3372 C3378 1.383 . S
C3373 C3369 1.495 . S
C3373 H3379 0.959 . S
C3373 H3380 0.961 . S
C3373 H3381 0.960 . S
C3374 C3372 1.381 . S
C3374 C3375 1.394 . S
C3374 H3382 0.930 . S
C3375 C3374 1.394 . S
C3375 C3376 1.383 . S
C3375 H3383 0.929 . S
C3376 C3375 1.383 . S
C3376 C3377 1.377 . S
C3377 H3361 0.930 . S
C3377 C3376 1.377 . S
C3377 C3378 1.379 . S
C3378 H3362 0.931 . S
C3378 C3372 1.383 . S
C3378 C3377 1.379 . S
H3379 C3373 0.959 . S
H3380 C3373 0.961 . S
H3381 C3373 0.960 . S
H3382 C3374 0.930 . S
H3383 C3375 0.929 . S
H3384 C3392 0.929 . S
H3385 C3394 0.930 . S
H3386 C3396 0.930 . S
H3387 C3399 0.929 . S
H3388 C3402 0.930 . S
H3389 C3404 0.960 . S
H3390 C3404 0.960 . S
H3391 C3404 0.960 . S
C3392 H3384 0.929 . S
C3392 C3393 1.377 . S
C3392 C3394 1.384 . S
C3393 C3392 1.377 . S
C3393 C3399 1.390 . S
C3394 H3385 0.930 . S
C3394 C3392 1.384 . S
C3394 C3395 1.372 . S
C3395 C3394 1.372 . S
C3395 C3396 1.400 . S
C3395 C3400 1.490 . S
C3396 H3386 0.930 . S
C3396 C3395 1.400 . S
C3396 C3399 1.386 . S
H3397 C3413 0.930 . S
H3398 C3414 0.931 . S
C3399 H3387 0.929 . S
C3399 C3393 1.390 . S
C3399 C3396 1.386 . S
C3400 C3395 1.490 . S
C3400 C3402 1.395 . S
C3400 C3403 1.403 . S
H3401 C3407 0.930 . S
C3402 H3388 0.930 . S
C3402 C3400 1.395 . S
C3402 C3405 1.403 . S
C3403 C3400 1.403 . S
C3403 C3404 1.524 . S
C3403 C3407 1.400 . S
C3404 H3389 0.960 . S
C3404 H3390 0.960 . S
C3404 H3391 0.960 . S
C3404 C3403 1.524 . S
C3405 C3402 1.403 . S
C3405 C3406 1.392 . S
C3405 C3409 1.495 . S
C3406 C3405 1.392 . S
C3406 C3407 1.385 . S
C3406 C3408 1.478 . S
C3407 H3401 0.930 . S
C3407 C3403 1.400 . S
C3407 C3406 1.385 . S
C3408 C3406 1.478 . S
C3408 C3410 1.381 . S
C3408 C3414 1.383 . S
C3409 C3405 1.495 . S
C3409 H3415 0.959 . S
C3409 H3416 0.961 . S
C3409 H3417 0.960 . S
C3410 C3408 1.381 . S
C3410 C3411 1.394 . S
C3410 H3418 0.930 . S
C3411 C3410 1.394 . S
C3411 C3412 1.383 . S
C3411 H3419 0.929 . S
C3412 C3411 1.383 . S
C3412 C3413 1.377 . S
C3413 H3397 0.930 . S
C3413 C3412 1.377 . S
C3413 C3414 1.379 . S
C3414 H3398 0.931 . S
C3414 C3408 1.383 . S
C3414 C3413 1.379 . S
H3415 C3409 0.959 . S
H3416 C3409 0.961 . S
H3417 C3409 0.960 . S
H3418 C3410 0.930 . S
H3419 C3411 0.929 . S
H3420 C3428 0.929 . S
H3421 C3430 0.930 . S
H3422 C3432 0.930 . S
H3423 C3435 0.929 . S
H3424 C3438 0.930 . S
H3425 C3440 0.960 . S
H3426 C3440 0.960 . S
H3427 C3440 0.960 . S
C3428 H3420 0.929 . S
C3428 C3429 1.377 . S
C3428 C3430 1.384 . S
C3429 C3428 1.377 . S
C3429 C3435 1.390 . S
C3430 H3421 0.930 . S
C3430 C3428 1.384 . S
C3430 C3431 1.372 . S
C3431 C3430 1.372 . S
C3431 C3432 1.400 . S
C3431 C3436 1.490 . S
C3432 H3422 0.930 . S
C3432 C3431 1.400 . S
C3432 C3435 1.386 . S
H3433 C3449 0.930 . S
H3434 C3450 0.931 . S
C3435 H3423 0.929 . S
C3435 C3429 1.390 . S
C3435 C3432 1.386 . S
C3436 C3431 1.490 . S
C3436 C3438 1.395 . S
C3436 C3439 1.403 . S
H3437 C3443 0.930 . S
C3438 H3424 0.930 . S
C3438 C3436 1.395 . S
C3438 C3441 1.403 . S
C3439 C3436 1.403 . S
C3439 C3440 1.524 . S
C3439 C3443 1.400 . S
C3440 H3425 0.960 . S
C3440 H3426 0.960 . S
C3440 H3427 0.960 . S
C3440 C3439 1.524 . S
C3441 C3438 1.403 . S
C3441 C3442 1.392 . S
C3441 C3445 1.495 . S
C3442 C3441 1.392 . S
C3442 C3443 1.385 . S
C3442 C3444 1.478 . S
C3443 H3437 0.930 . S
C3443 C3439 1.400 . S
C3443 C3442 1.385 . S
C3444 C3442 1.478 . S
C3444 C3446 1.381 . S
C3444 C3450 1.383 . S
C3445 C3441 1.495 . S
C3445 H3451 0.959 . S
C3445 H3452 0.961 . S
C3445 H3453 0.960 . S
C3446 C3444 1.381 . S
C3446 C3447 1.394 . S
C3446 H3454 0.930 . S
C3447 C3446 1.394 . S
C3447 C3448 1.383 . S
C3447 H3455 0.929 . S
C3448 C3447 1.383 . S
C3448 C3449 1.377 . S
C3449 H3433 0.930 . S
C3449 C3448 1.377 . S
C3449 C3450 1.379 . S
C3450 H3434 0.931 . S
C3450 C3444 1.383 . S
C3450 C3449 1.379 . S
H3451 C3445 0.959 . S
H3452 C3445 0.961 . S
H3453 C3445 0.960 . S
H3454 C3446 0.930 . S
H3455 C3447 0.929 . S
H3456 C3464 0.929 1_655 S
H3457 C3466 0.930 1_655 S
H3458 C3468 0.930 . S
H3459 C3471 0.929 . S
H3460 C3474 0.930 . S
H3461 C3476 0.960 . S
H3462 C3476 0.960 . S
H3463 C3476 0.960 . S
C3464 H3456 0.929 1_455 S
C3464 C3465 1.377 . S
C3464 C3466 1.384 . S
C3465 C3464 1.377 . S
C3465 C3471 1.390 . S
C3466 H3457 0.930 1_455 S
C3466 C3464 1.384 . S
C3466 C3467 1.372 . S
C3467 C3466 1.372 . S
C3467 C3468 1.400 . S
C3467 C3472 1.490 . S
C3468 H3458 0.930 . S
C3468 C3467 1.400 . S
C3468 C3471 1.386 . S
H3469 C3485 0.930 . S
H3470 C3486 0.931 . S
C3471 H3459 0.929 . S
C3471 C3465 1.390 . S
C3471 C3468 1.386 . S
C3472 C3467 1.490 . S
C3472 C3474 1.395 . S
C3472 C3475 1.403 . S
H3473 C3479 0.930 . S
C3474 H3460 0.930 . S
C3474 C3472 1.395 . S
C3474 C3477 1.403 . S
C3475 C3472 1.403 . S
C3475 C3476 1.524 . S
C3475 C3479 1.400 . S
C3476 H3461 0.960 . S
C3476 H3462 0.960 . S
C3476 H3463 0.960 . S
C3476 C3475 1.524 . S
C3477 C3474 1.403 . S
C3477 C3478 1.392 . S
C3477 C3481 1.495 . S
C3478 C3477 1.392 . S
C3478 C3479 1.385 . S
C3478 C3480 1.478 . S
C3479 H3473 0.930 . S
C3479 C3475 1.400 . S
C3479 C3478 1.385 . S
C3480 C3478 1.478 . S
C3480 C3482 1.381 1_455 S
C3480 C3486 1.383 . S
C3481 C3477 1.495 . S
C3481 H3487 0.959 . S
C3481 H3488 0.961 . S
C3481 H3489 0.960 . S
C3482 C3480 1.381 1_655 S
C3482 C3483 1.394 . S
C3482 H3490 0.930 . S
C3483 C3482 1.394 . S
C3483 C3484 1.383 1_655 S
C3483 H3491 0.929 . S
C3484 C3483 1.383 1_455 S
C3484 C3485 1.377 . S
C3485 H3469 0.930 . S
C3485 C3484 1.377 . S
C3485 C3486 1.379 . S
C3486 H3470 0.931 . S
C3486 C3480 1.383 . S
C3486 C3485 1.379 . S
H3487 C3481 0.959 . S
H3488 C3481 0.961 . S
H3489 C3481 0.960 . S
H3490 C3482 0.930 . S
H3491 C3483 0.929 . S
H3492 C3500 0.929 . S
H3493 C3502 0.930 . S
H3494 C3504 0.930 . S
H3495 C3507 0.929 . S
H3496 C3510 0.930 . S
H3497 C3512 0.960 . S
H3498 C3512 0.960 . S
H3499 C3512 0.960 . S
C3500 H3492 0.929 . S
C3500 C3501 1.377 . S
C3500 C3502 1.384 . S
C3501 C3500 1.377 . S
C3501 C3507 1.390 . S
C3502 H3493 0.930 . S
C3502 C3500 1.384 . S
C3502 C3503 1.372 . S
C3503 C3502 1.372 . S
C3503 C3504 1.400 . S
C3503 C3508 1.490 . S
C3504 H3494 0.930 . S
C3504 C3503 1.400 . S
C3504 C3507 1.386 . S
H3505 C3521 0.930 . S
H3506 C3522 0.931 . S
C3507 H3495 0.929 . S
C3507 C3501 1.390 . S
C3507 C3504 1.386 . S
C3508 C3503 1.490 . S
C3508 C3510 1.395 . S
C3508 C3511 1.403 . S
H3509 C3515 0.930 . S
C3510 H3496 0.930 . S
C3510 C3508 1.395 . S
C3510 C3513 1.403 . S
C3511 C3508 1.403 . S
C3511 C3512 1.524 . S
C3511 C3515 1.400 . S
C3512 H3497 0.960 . S
C3512 H3498 0.960 . S
C3512 H3499 0.960 . S
C3512 C3511 1.524 . S
C3513 C3510 1.403 . S
C3513 C3514 1.392 . S
C3513 C3517 1.495 . S
C3514 C3513 1.392 . S
C3514 C3515 1.385 . S
C3514 C3516 1.478 . S
C3515 H3509 0.930 . S
C3515 C3511 1.400 . S
C3515 C3514 1.385 . S
C3516 C3514 1.478 . S
C3516 C3518 1.381 . S
C3516 C3522 1.383 . S
C3517 C3513 1.495 . S
C3517 H3523 0.959 . S
C3517 H3524 0.961 . S
C3517 H3525 0.960 . S
C3518 C3516 1.381 . S
C3518 C3519 1.394 . S
C3518 H3526 0.930 . S
C3519 C3518 1.394 . S
C3519 C3520 1.383 . S
C3519 H3527 0.929 . S
C3520 C3519 1.383 . S
C3520 C3521 1.377 . S
C3521 H3505 0.930 . S
C3521 C3520 1.377 . S
C3521 C3522 1.379 . S
C3522 H3506 0.931 . S
C3522 C3516 1.383 . S
C3522 C3521 1.379 . S
H3523 C3517 0.959 . S
H3524 C3517 0.961 . S
H3525 C3517 0.960 . S
H3526 C3518 0.930 . S
H3527 C3519 0.929 . S
H3528 C3536 0.929 . S
H3529 C3538 0.930 . S
H3530 C3540 0.930 . S
H3531 C3543 0.929 . S
H3532 C3546 0.930 . S
H3533 C3548 0.960 . S
H3534 C3548 0.960 . S
H3535 C3548 0.960 . S
C3536 H3528 0.929 . S
C3536 C3537 1.377 . S
C3536 C3538 1.384 . S
C3537 C3536 1.377 . S
C3537 C3543 1.390 . S
C3538 H3529 0.930 . S
C3538 C3536 1.384 . S
C3538 C3539 1.372 . S
C3539 C3538 1.372 . S
C3539 C3540 1.400 . S
C3539 C3544 1.490 . S
C3540 H3530 0.930 . S
C3540 C3539 1.400 . S
C3540 C3543 1.386 . S
H3541 C3557 0.930 . S
H3542 C3558 0.931 . S
C3543 H3531 0.929 . S
C3543 C3537 1.390 . S
C3543 C3540 1.386 . S
C3544 C3539 1.490 . S
C3544 C3546 1.395 . S
C3544 C3547 1.403 . S
H3545 C3551 0.930 . S
C3546 H3532 0.930 . S
C3546 C3544 1.395 . S
C3546 C3549 1.403 . S
C3547 C3544 1.403 . S
C3547 C3548 1.524 . S
C3547 C3551 1.400 . S
C3548 H3533 0.960 . S
C3548 H3534 0.960 . S
C3548 H3535 0.960 . S
C3548 C3547 1.524 . S
C3549 C3546 1.403 . S
C3549 C3550 1.392 . S
C3549 C3553 1.495 . S
C3550 C3549 1.392 . S
C3550 C3551 1.385 . S
C3550 C3552 1.478 . S
C3551 H3545 0.930 . S
C3551 C3547 1.400 . S
C3551 C3550 1.385 . S
C3552 C3550 1.478 . S
C3552 C3554 1.381 . S
C3552 C3558 1.383 . S
C3553 C3549 1.495 . S
C3553 H3559 0.959 . S
C3553 H3560 0.961 . S
C3553 H3561 0.960 . S
C3554 C3552 1.381 . S
C3554 C3555 1.394 . S
C3554 H3562 0.930 . S
C3555 C3554 1.394 . S
C3555 C3556 1.383 . S
C3555 H3563 0.929 . S
C3556 C3555 1.383 . S
C3556 C3557 1.377 . S
C3557 H3541 0.930 . S
C3557 C3556 1.377 . S
C3557 C3558 1.379 . S
C3558 H3542 0.931 . S
C3558 C3552 1.383 . S
C3558 C3557 1.379 . S
H3559 C3553 0.959 . S
H3560 C3553 0.961 . S
H3561 C3553 0.960 . S
H3562 C3554 0.930 . S
H3563 C3555 0.929 . S
H3564 C3572 0.929 . S
H3565 C3574 0.930 . S
H3566 C3576 0.930 . S
H3567 C3579 0.929 . S
H3568 C3582 0.930 . S
H3569 C3584 0.960 . S
H3570 C3584 0.960 . S
H3571 C3584 0.960 . S
C3572 H3564 0.929 . S
C3572 C3573 1.377 . S
C3572 C3574 1.384 . S
C3573 C3572 1.377 . S
C3573 C3579 1.390 . S
C3574 H3565 0.930 . S
C3574 C3572 1.384 . S
C3574 C3575 1.372 . S
C3575 C3574 1.372 . S
C3575 C3576 1.400 . S
C3575 C3580 1.490 . S
C3576 H3566 0.930 . S
C3576 C3575 1.400 . S
C3576 C3579 1.386 . S
H3577 C3593 0.930 . S
H3578 C3594 0.931 . S
C3579 H3567 0.929 . S
C3579 C3573 1.390 . S
C3579 C3576 1.386 . S
C3580 C3575 1.490 . S
C3580 C3582 1.395 . S
C3580 C3583 1.403 . S
H3581 C3587 0.930 . S
C3582 H3568 0.930 . S
C3582 C3580 1.395 . S
C3582 C3585 1.403 . S
C3583 C3580 1.403 . S
C3583 C3584 1.524 . S
C3583 C3587 1.400 . S
C3584 H3569 0.960 . S
C3584 H3570 0.960 . S
C3584 H3571 0.960 . S
C3584 C3583 1.524 . S
C3585 C3582 1.403 . S
C3585 C3586 1.392 . S
C3585 C3589 1.495 . S
C3586 C3585 1.392 . S
C3586 C3587 1.385 . S
C3586 C3588 1.478 . S
C3587 H3581 0.930 . S
C3587 C3583 1.400 . S
C3587 C3586 1.385 . S
C3588 C3586 1.478 . S
C3588 C3590 1.381 . S
C3588 C3594 1.383 . S
C3589 C3585 1.495 . S
C3589 H3595 0.959 . S
C3589 H3596 0.961 . S
C3589 H3597 0.960 . S
C3590 C3588 1.381 . S
C3590 C3591 1.394 . S
C3590 H3598 0.930 . S
C3591 C3590 1.394 . S
C3591 C3592 1.383 . S
C3591 H3599 0.929 . S
C3592 C3591 1.383 . S
C3592 C3593 1.377 . S
C3593 H3577 0.930 . S
C3593 C3592 1.377 . S
C3593 C3594 1.379 . S
C3594 H3578 0.931 . S
C3594 C3588 1.383 . S
C3594 C3593 1.379 . S
H3595 C3589 0.959 . S
H3596 C3589 0.961 . S
H3597 C3589 0.960 . S
H3598 C3590 0.930 . S
H3599 C3591 0.929 . S
H3600 C3608 0.929 . S
H3601 C3610 0.930 . S
H3602 C3612 0.930 . S
H3603 C3615 0.929 . S
H3604 C3618 0.930 . S
H3605 C3620 0.960 . S
H3606 C3620 0.960 . S
H3607 C3620 0.960 . S
C3608 H3600 0.929 . S
C3608 C3609 1.377 . S
C3608 C3610 1.384 . S
C3609 C3608 1.377 . S
C3609 C3615 1.390 1_455 S
C3610 H3601 0.930 . S
C3610 C3608 1.384 . S
C3610 C3611 1.372 . S
C3611 C3610 1.372 . S
C3611 C3612 1.400 1_455 S
C3611 C3616 1.490 . S
C3612 H3602 0.930 . S
C3612 C3611 1.400 1_655 S
C3612 C3615 1.386 . S
H3613 C3629 0.912 1_655 S
H3614 C3630 0.932 . S
C3615 H3603 0.929 . S
C3615 C3609 1.390 1_655 S
C3615 C3612 1.386 . S
C3616 C3611 1.490 . S
C3616 C3618 1.395 . S
C3616 C3619 1.403 1_455 S
H3617 C3623 0.930 . S
C3618 H3604 0.930 . S
C3618 C3616 1.395 . S
C3618 C3621 1.403 . S
C3619 C3616 1.403 1_655 S
C3619 C3620 1.524 . S
C3619 C3623 1.400 . S
C3620 H3605 0.960 . S
C3620 H3606 0.960 . S
C3620 H3607 0.960 . S
C3620 C3619 1.524 . S
C3621 C3618 1.403 . S
C3621 C3622 1.392 . S
C3621 C3625 1.495 . S
C3622 C3621 1.392 . S
C3622 C3623 1.385 1_455 S
C3622 C3624 1.478 . S
C3623 H3617 0.930 . S
C3623 C3619 1.400 . S
C3623 C3622 1.385 1_655 S
C3624 C3622 1.478 . S
C3624 C3626 1.381 . S
C3624 C3630 1.383 . S
C3625 C3621 1.495 . S
C3625 H3631 0.959 . S
C3625 H3632 0.961 . S
C3625 H3633 0.960 . S
C3626 C3624 1.381 . S
C3626 C3627 1.394 . S
C3626 H3634 0.930 . S
C3627 C3626 1.394 . S
C3627 C3628 1.383 . S
C3627 H3635 0.929 . S
C3628 C3627 1.383 . S
C3628 C3629 1.377 . S
C3629 H3613 0.912 1_455 S
C3629 C3628 1.377 . S
C3629 C3630 1.379 . S
C3630 H3614 0.932 . S
C3630 C3624 1.383 . S
C3630 C3629 1.379 . S
H3631 C3625 0.959 . S
H3632 C3625 0.961 . S
H3633 C3625 0.960 . S
H3634 C3626 0.930 . S
H3635 C3627 0.929 . S
H3636 C3644 0.929 . S
H3637 C3646 0.930 . S
H3638 C3648 0.930 . S
H3639 C3651 0.929 . S
H3640 C3654 0.930 . S
H3641 C3656 0.960 . S
H3642 C3656 0.960 . S
H3643 C3656 0.960 . S
C3644 H3636 0.929 . S
C3644 C3645 1.377 . S
C3644 C3646 1.384 . S
C3645 C3644 1.377 . S
C3645 C3651 1.390 . S
C3646 H3637 0.930 . S
C3646 C3644 1.384 . S
C3646 C3647 1.372 . S
C3647 C3646 1.372 . S
C3647 C3648 1.400 . S
C3647 C3652 1.490 . S
C3648 H3638 0.930 . S
C3648 C3647 1.400 . S
C3648 C3651 1.386 . S
H3649 C3665 0.930 . S
H3650 C3666 0.931 . S
C3651 H3639 0.929 . S
C3651 C3645 1.390 . S
C3651 C3648 1.386 . S
C3652 C3647 1.490 . S
C3652 C3654 1.395 . S
C3652 C3655 1.403 . S
H3653 C3659 0.930 . S
C3654 H3640 0.930 . S
C3654 C3652 1.395 . S
C3654 C3657 1.403 . S
C3655 C3652 1.403 . S
C3655 C3656 1.524 . S
C3655 C3659 1.400 . S
C3656 H3641 0.960 . S
C3656 H3642 0.960 . S
C3656 H3643 0.960 . S
C3656 C3655 1.524 . S
C3657 C3654 1.403 . S
C3657 C3658 1.392 . S
C3657 C3661 1.495 . S
C3658 C3657 1.392 . S
C3658 C3659 1.385 . S
C3658 C3660 1.478 . S
C3659 H3653 0.930 . S
C3659 C3655 1.400 . S
C3659 C3658 1.385 . S
C3660 C3658 1.478 . S
C3660 C3662 1.381 . S
C3660 C3666 1.383 . S
C3661 C3657 1.495 . S
C3661 H3667 0.959 . S
C3661 H3668 0.961 . S
C3661 H3669 0.960 . S
C3662 C3660 1.381 . S
C3662 C3663 1.394 . S
C3662 H3670 0.930 . S
C3663 C3662 1.394 . S
C3663 C3664 1.383 . S
C3663 H3671 0.929 . S
C3664 C3663 1.383 . S
C3664 C3665 1.377 . S
C3665 H3649 0.930 . S
C3665 C3664 1.377 . S
C3665 C3666 1.379 . S
C3666 H3650 0.931 . S
C3666 C3660 1.383 . S
C3666 C3665 1.379 . S
H3667 C3661 0.959 . S
H3668 C3661 0.961 . S
H3669 C3661 0.960 . S
H3670 C3662 0.930 . S
H3671 C3663 0.929 . S
H3672 C3680 0.929 . S
H3673 C3682 0.930 . S
H3674 C3684 0.930 . S
H3675 C3687 0.929 . S
H3676 C3690 0.930 . S
H3677 C3692 0.960 . S
H3678 C3692 0.960 . S
H3679 C3692 0.960 . S
C3680 H3672 0.929 . S
C3680 C3681 1.377 . S
C3680 C3682 1.384 . S
C3681 C3680 1.377 . S
C3681 C3687 1.390 . S
C3682 H3673 0.930 . S
C3682 C3680 1.384 . S
C3682 C3683 1.372 . S
C3683 C3682 1.372 . S
C3683 C3684 1.400 . S
C3683 C3688 1.490 . S
C3684 H3674 0.930 . S
C3684 C3683 1.400 . S
C3684 C3687 1.386 . S
H3685 C3701 0.930 . S
H3686 C3702 0.931 . S
C3687 H3675 0.929 . S
C3687 C3681 1.390 . S
C3687 C3684 1.386 . S
C3688 C3683 1.490 . S
C3688 C3690 1.395 . S
C3688 C3691 1.403 . S
H3689 C3695 0.930 . S
C3690 H3676 0.930 . S
C3690 C3688 1.395 . S
C3690 C3693 1.403 . S
C3691 C3688 1.403 . S
C3691 C3692 1.524 . S
C3691 C3695 1.400 . S
C3692 H3677 0.960 . S
C3692 H3678 0.960 . S
C3692 H3679 0.960 . S
C3692 C3691 1.524 . S
C3693 C3690 1.403 . S
C3693 C3694 1.392 . S
C3693 C3697 1.495 . S
C3694 C3693 1.392 . S
C3694 C3695 1.385 . S
C3694 C3696 1.478 . S
C3695 H3689 0.930 . S
C3695 C3691 1.400 . S
C3695 C3694 1.385 . S
C3696 C3694 1.478 . S
C3696 C3698 1.381 . S
C3696 C3702 1.383 . S
C3697 C3693 1.495 . S
C3697 H3703 0.959 . S
C3697 H3704 0.961 . S
C3697 H3705 0.960 . S
C3698 C3696 1.381 . S
C3698 C3699 1.394 . S
C3698 H3706 0.930 . S
C3699 C3698 1.394 . S
C3699 C3700 1.383 . S
C3699 H3707 0.929 . S
C3700 C3699 1.383 . S
C3700 C3701 1.377 . S
C3701 H3685 0.930 . S
C3701 C3700 1.377 . S
C3701 C3702 1.379 . S
C3702 H3686 0.931 . S
C3702 C3696 1.383 . S
C3702 C3701 1.379 . S
H3703 C3697 0.959 . S
H3704 C3697 0.961 . S
H3705 C3697 0.960 . S
H3706 C3698 0.930 . S
H3707 C3699 0.929 . S
H3708 C3716 0.929 . S
H3709 C3718 0.930 . S
H3710 C3720 0.930 . S
H3711 C3723 0.929 . S
H3712 C3726 0.930 . S
H3713 C3728 0.960 . S
H3714 C3728 0.960 . S
H3715 C3728 0.960 . S
C3716 H3708 0.929 . S
C3716 C3717 1.377 . S
C3716 C3718 1.384 . S
C3717 C3716 1.377 . S
C3717 C3723 1.390 . S
C3718 H3709 0.930 . S
C3718 C3716 1.384 . S
C3718 C3719 1.372 . S
C3719 C3718 1.372 . S
C3719 C3720 1.400 . S
C3719 C3724 1.490 . S
C3720 H3710 0.930 . S
C3720 C3719 1.400 . S
C3720 C3723 1.386 . S
H3721 C3737 0.930 . S
H3722 C3738 0.931 . S
C3723 H3711 0.929 . S
C3723 C3717 1.390 . S
C3723 C3720 1.386 . S
C3724 C3719 1.490 . S
C3724 C3726 1.395 . S
C3724 C3727 1.403 . S
H3725 C3731 0.930 . S
C3726 H3712 0.930 . S
C3726 C3724 1.395 . S
C3726 C3729 1.403 . S
C3727 C3724 1.403 . S
C3727 C3728 1.524 . S
C3727 C3731 1.400 . S
C3728 H3713 0.960 . S
C3728 H3714 0.960 . S
C3728 H3715 0.960 . S
C3728 C3727 1.524 . S
C3729 C3726 1.403 . S
C3729 C3730 1.392 . S
C3729 C3733 1.495 . S
C3730 C3729 1.392 . S
C3730 C3731 1.385 . S
C3730 C3732 1.478 . S
C3731 H3725 0.930 . S
C3731 C3727 1.400 . S
C3731 C3730 1.385 . S
C3732 C3730 1.478 . S
C3732 C3734 1.381 . S
C3732 C3738 1.383 . S
C3733 C3729 1.495 . S
C3733 H3739 0.959 . S
C3733 H3740 0.961 . S
C3733 H3741 0.960 . S
C3734 C3732 1.381 . S
C3734 C3735 1.394 . S
C3734 H3742 0.930 . S
C3735 C3734 1.394 . S
C3735 C3736 1.383 . S
C3735 H3743 0.929 . S
C3736 C3735 1.383 . S
C3736 C3737 1.377 . S
C3737 H3721 0.930 . S
C3737 C3736 1.377 . S
C3737 C3738 1.379 . S
C3738 H3722 0.931 . S
C3738 C3732 1.383 . S
C3738 C3737 1.379 . S
H3739 C3733 0.959 . S
H3740 C3733 0.961 . S
H3741 C3733 0.960 . S
H3742 C3734 0.930 . S
H3743 C3735 0.929 . S
H3744 C3752 0.929 . S
H3745 C3754 0.930 . S
H3746 C3756 0.930 . S
H3747 C3759 0.929 . S
H3748 C3762 0.930 . S
H3749 C3764 0.960 . S
H3750 C3764 0.960 . S
H3751 C3764 0.960 . S
C3752 H3744 0.929 . S
C3752 C3753 1.377 . S
C3752 C3754 1.384 . S
C3753 C3752 1.377 . S
C3753 C3759 1.390 . S
C3754 H3745 0.930 . S
C3754 C3752 1.384 . S
C3754 C3755 1.372 . S
C3755 C3754 1.372 . S
C3755 C3756 1.400 . S
C3755 C3760 1.490 . S
C3756 H3746 0.930 . S
C3756 C3755 1.400 . S
C3756 C3759 1.386 . S
H3757 C3773 0.930 . S
H3758 C3774 0.931 . S
C3759 H3747 0.929 . S
C3759 C3753 1.390 . S
C3759 C3756 1.386 . S
C3760 C3755 1.490 . S
C3760 C3762 1.395 . S
C3760 C3763 1.403 . S
H3761 C3767 0.930 . S
C3762 H3748 0.930 . S
C3762 C3760 1.395 . S
C3762 C3765 1.403 . S
C3763 C3760 1.403 . S
C3763 C3764 1.524 . S
C3763 C3767 1.400 . S
C3764 H3749 0.960 . S
C3764 H3750 0.960 . S
C3764 H3751 0.960 . S
C3764 C3763 1.524 . S
C3765 C3762 1.403 . S
C3765 C3766 1.392 . S
C3765 C3769 1.495 . S
C3766 C3765 1.392 . S
C3766 C3767 1.385 . S
C3766 C3768 1.478 . S
C3767 H3761 0.930 . S
C3767 C3763 1.400 . S
C3767 C3766 1.385 . S
C3768 C3766 1.478 . S
C3768 C3770 1.381 . S
C3768 C3774 1.383 . S
C3769 C3765 1.495 . S
C3769 H3775 0.959 . S
C3769 H3776 0.961 . S
C3769 H3777 0.960 . S
C3770 C3768 1.381 . S
C3770 C3771 1.394 . S
C3770 H3778 0.930 . S
C3771 C3770 1.394 . S
C3771 C3772 1.383 . S
C3771 H3779 0.929 . S
C3772 C3771 1.383 . S
C3772 C3773 1.377 . S
C3773 H3757 0.930 . S
C3773 C3772 1.377 . S
C3773 C3774 1.379 . S
C3774 H3758 0.931 . S
C3774 C3768 1.383 . S
C3774 C3773 1.379 . S
H3775 C3769 0.959 . S
H3776 C3769 0.961 . S
H3777 C3769 0.960 . S
H3778 C3770 0.930 . S
H3779 C3771 0.929 . S
H3780 C3788 0.929 . S
H3781 C3790 0.930 . S
H3782 C3792 0.930 . S
H3783 C3795 0.929 . S
H3784 C3798 0.930 . S
H3785 C3800 0.960 . S
H3786 C3800 0.960 . S
H3787 C3800 0.960 . S
C3788 H3780 0.929 . S
C3788 C3789 1.377 . S
C3788 C3790 1.384 . S
C3789 C3788 1.377 . S
C3789 C3795 1.390 . S
C3790 H3781 0.930 . S
C3790 C3788 1.384 . S
C3790 C3791 1.372 . S
C3791 C3790 1.372 . S
C3791 C3792 1.400 . S
C3791 C3796 1.490 . S
C3792 H3782 0.930 . S
C3792 C3791 1.400 . S
C3792 C3795 1.386 . S
H3793 C3809 0.930 . S
H3794 C3810 0.931 . S
C3795 H3783 0.929 . S
C3795 C3789 1.390 . S
C3795 C3792 1.386 . S
C3796 C3791 1.490 . S
C3796 C3798 1.395 . S
C3796 C3799 1.403 . S
H3797 C3803 0.930 . S
C3798 H3784 0.930 . S
C3798 C3796 1.395 . S
C3798 C3801 1.403 . S
C3799 C3796 1.403 . S
C3799 C3800 1.524 . S
C3799 C3803 1.400 . S
C3800 H3785 0.960 . S
C3800 H3786 0.960 . S
C3800 H3787 0.960 . S
C3800 C3799 1.524 . S
C3801 C3798 1.403 . S
C3801 C3802 1.392 . S
C3801 C3805 1.495 . S
C3802 C3801 1.392 . S
C3802 C3803 1.385 . S
C3802 C3804 1.478 . S
C3803 H3797 0.930 . S
C3803 C3799 1.400 . S
C3803 C3802 1.385 . S
C3804 C3802 1.478 . S
C3804 C3806 1.381 . S
C3804 C3810 1.383 . S
C3805 C3801 1.495 . S
C3805 H3811 0.959 . S
C3805 H3812 0.961 . S
C3805 H3813 0.960 . S
C3806 C3804 1.381 . S
C3806 C3807 1.394 . S
C3806 H3814 0.930 . S
C3807 C3806 1.394 . S
C3807 C3808 1.383 . S
C3807 H3815 0.929 . S
C3808 C3807 1.383 . S
C3808 C3809 1.377 . S
C3809 H3793 0.930 . S
C3809 C3808 1.377 . S
C3809 C3810 1.379 . S
C3810 H3794 0.931 . S
C3810 C3804 1.383 . S
C3810 C3809 1.379 . S
H3811 C3805 0.959 . S
H3812 C3805 0.961 . S
H3813 C3805 0.960 . S
H3814 C3806 0.930 . S
H3815 C3807 0.929 . S
H3816 C3824 0.929 . S
H3817 C3826 0.930 . S
H3818 C3828 0.930 . S
H3819 C3831 0.929 . S
H3820 C3834 0.930 . S
H3821 C3836 0.960 . S
H3822 C3836 0.960 . S
H3823 C3836 0.960 . S
C3824 H3816 0.929 . S
C3824 C3825 1.377 . S
C3824 C3826 1.384 . S
C3825 C3824 1.377 . S
C3825 C3831 1.390 . S
C3826 H3817 0.930 . S
C3826 C3824 1.384 . S
C3826 C3827 1.372 . S
C3827 C3826 1.372 . S
C3827 C3828 1.400 . S
C3827 C3832 1.490 . S
C3828 H3818 0.930 . S
C3828 C3827 1.400 . S
C3828 C3831 1.386 . S
H3829 C3845 0.930 . S
H3830 C3846 0.931 . S
C3831 H3819 0.929 . S
C3831 C3825 1.390 . S
C3831 C3828 1.386 . S
C3832 C3827 1.490 . S
C3832 C3834 1.395 . S
C3832 C3835 1.403 . S
H3833 C3839 0.930 . S
C3834 H3820 0.930 . S
C3834 C3832 1.395 . S
C3834 C3837 1.403 . S
C3835 C3832 1.403 . S
C3835 C3836 1.524 . S
C3835 C3839 1.400 . S
C3836 H3821 0.960 . S
C3836 H3822 0.960 . S
C3836 H3823 0.960 . S
C3836 C3835 1.524 . S
C3837 C3834 1.403 . S
C3837 C3838 1.392 . S
C3837 C3841 1.495 . S
C3838 C3837 1.392 . S
C3838 C3839 1.385 . S
C3838 C3840 1.478 . S
C3839 H3833 0.930 . S
C3839 C3835 1.400 . S
C3839 C3838 1.385 . S
C3840 C3838 1.478 . S
C3840 C3842 1.381 . S
C3840 C3846 1.383 . S
C3841 C3837 1.495 . S
C3841 H3847 0.959 . S
C3841 H3848 0.961 . S
C3841 H3849 0.960 . S
C3842 C3840 1.381 . S
C3842 C3843 1.394 . S
C3842 H3850 0.930 . S
C3843 C3842 1.394 . S
C3843 C3844 1.383 . S
C3843 H3851 0.929 . S
C3844 C3843 1.383 . S
C3844 C3845 1.377 . S
C3845 H3829 0.930 . S
C3845 C3844 1.377 . S
C3845 C3846 1.379 . S
C3846 H3830 0.931 . S
C3846 C3840 1.383 . S
C3846 C3845 1.379 . S
H3847 C3841 0.959 . S
H3848 C3841 0.961 . S
H3849 C3841 0.960 . S
H3850 C3842 0.930 . S
H3851 C3843 0.929 . S
H3852 C3860 0.929 . S
H3853 C3862 0.930 . S
H3854 C3864 0.930 . S
H3855 C3867 0.929 . S
H3856 C3870 0.930 . S
H3857 C3872 0.960 . S
H3858 C3872 0.960 . S
H3859 C3872 0.960 . S
C3860 H3852 0.929 . S
C3860 C3861 1.377 . S
C3860 C3862 1.384 . S
C3861 C3860 1.377 . S
C3861 C3867 1.390 . S
C3862 H3853 0.930 . S
C3862 C3860 1.384 . S
C3862 C3863 1.372 . S
C3863 C3862 1.372 . S
C3863 C3864 1.400 . S
C3863 C3868 1.490 . S
C3864 H3854 0.930 . S
C3864 C3863 1.400 . S
C3864 C3867 1.386 . S
H3865 C3881 0.930 . S
H3866 C3882 0.931 . S
C3867 H3855 0.929 . S
C3867 C3861 1.390 . S
C3867 C3864 1.386 . S
C3868 C3863 1.490 . S
C3868 C3870 1.395 . S
C3868 C3871 1.403 . S
H3869 C3875 0.930 . S
C3870 H3856 0.930 . S
C3870 C3868 1.395 . S
C3870 C3873 1.403 . S
C3871 C3868 1.403 . S
C3871 C3872 1.524 . S
C3871 C3875 1.400 . S
C3872 H3857 0.960 . S
C3872 H3858 0.960 . S
C3872 H3859 0.960 . S
C3872 C3871 1.524 . S
C3873 C3870 1.403 . S
C3873 C3874 1.392 . S
C3873 C3877 1.495 . S
C3874 C3873 1.392 . S
C3874 C3875 1.385 . S
C3874 C3876 1.478 . S
C3875 H3869 0.930 . S
C3875 C3871 1.400 . S
C3875 C3874 1.385 . S
C3876 C3874 1.478 . S
C3876 C3878 1.381 . S
C3876 C3882 1.383 . S
C3877 C3873 1.495 . S
C3877 H3883 0.959 . S
C3877 H3884 0.961 . S
C3877 H3885 0.960 . S
C3878 C3876 1.381 . S
C3878 C3879 1.394 . S
C3878 H3886 0.930 . S
C3879 C3878 1.394 . S
C3879 C3880 1.383 . S
C3879 H3887 0.929 . S
C3880 C3879 1.383 . S
C3880 C3881 1.377 . S
C3881 H3865 0.930 . S
C3881 C3880 1.377 . S
C3881 C3882 1.379 . S
C3882 H3866 0.931 . S
C3882 C3876 1.383 . S
C3882 C3881 1.379 . S
H3883 C3877 0.959 . S
H3884 C3877 0.961 . S
H3885 C3877 0.960 . S
H3886 C3878 0.930 . S
H3887 C3879 0.929 . S
H3888 C3896 0.929 . S
H3889 C3898 0.930 . S
H3890 C3900 0.930 . S
H3891 C3903 0.929 . S
H3892 C3906 0.930 . S
H3893 C3908 0.960 . S
H3894 C3908 0.960 . S
H3895 C3908 0.960 . S
C3896 H3888 0.929 . S
C3896 C3897 1.377 . S
C3896 C3898 1.384 . S
C3897 C3896 1.377 . S
C3897 C3903 1.390 . S
C3898 H3889 0.930 . S
C3898 C3896 1.384 . S
C3898 C3899 1.372 . S
C3899 C3898 1.372 . S
C3899 C3900 1.400 . S
C3899 C3904 1.490 . S
C3900 H3890 0.930 . S
C3900 C3899 1.400 . S
C3900 C3903 1.386 . S
H3901 C3917 0.930 . S
H3902 C3918 0.931 . S
C3903 H3891 0.929 . S
C3903 C3897 1.390 . S
C3903 C3900 1.386 . S
C3904 C3899 1.490 . S
C3904 C3906 1.395 . S
C3904 C3907 1.403 . S
H3905 C3911 0.930 . S
C3906 H3892 0.930 . S
C3906 C3904 1.395 . S
C3906 C3909 1.403 . S
C3907 C3904 1.403 . S
C3907 C3908 1.524 . S
C3907 C3911 1.400 . S
C3908 H3893 0.960 . S
C3908 H3894 0.960 . S
C3908 H3895 0.960 . S
C3908 C3907 1.524 . S
C3909 C3906 1.403 . S
C3909 C3910 1.392 . S
C3909 C3913 1.495 . S
C3910 C3909 1.392 . S
C3910 C3911 1.385 . S
C3910 C3912 1.478 . S
C3911 H3905 0.930 . S
C3911 C3907 1.400 . S
C3911 C3910 1.385 . S
C3912 C3910 1.478 . S
C3912 C3914 1.381 . S
C3912 C3918 1.383 . S
C3913 C3909 1.495 . S
C3913 H3919 0.959 . S
C3913 H3920 0.961 . S
C3913 H3921 0.960 . S
C3914 C3912 1.381 . S
C3914 C3915 1.394 . S
C3914 H3922 0.930 . S
C3915 C3914 1.394 . S
C3915 C3916 1.383 . S
C3915 H3923 0.929 . S
C3916 C3915 1.383 . S
C3916 C3917 1.377 . S
C3917 H3901 0.930 . S
C3917 C3916 1.377 . S
C3917 C3918 1.379 . S
C3918 H3902 0.931 . S
C3918 C3912 1.383 . S
C3918 C3917 1.379 . S
H3919 C3913 0.959 . S
H3920 C3913 0.961 . S
H3921 C3913 0.960 . S
H3922 C3914 0.930 . S
H3923 C3915 0.929 . S
H3924 C3932 0.929 . S
H3925 C3934 0.930 . S
H3926 C3936 0.930 . S
H3927 C3939 0.929 . S
H3928 C3942 0.930 . S
H3929 C3944 0.960 . S
H3930 C3944 0.960 . S
H3931 C3944 0.960 . S
C3932 H3924 0.929 . S
C3932 C3933 1.377 . S
C3932 C3934 1.384 . S
C3933 C3932 1.377 . S
C3933 C3939 1.390 . S
C3934 H3925 0.930 . S
C3934 C3932 1.384 . S
C3934 C3935 1.372 . S
C3935 C3934 1.372 . S
C3935 C3936 1.400 . S
C3935 C3940 1.490 . S
C3936 H3926 0.930 . S
C3936 C3935 1.400 . S
C3936 C3939 1.386 . S
H3937 C3953 0.930 . S
H3938 C3954 0.931 . S
C3939 H3927 0.929 . S
C3939 C3933 1.390 . S
C3939 C3936 1.386 . S
C3940 C3935 1.490 . S
C3940 C3942 1.395 . S
C3940 C3943 1.403 . S
H3941 C3947 0.930 . S
C3942 H3928 0.930 . S
C3942 C3940 1.395 . S
C3942 C3945 1.403 . S
C3943 C3940 1.403 . S
C3943 C3944 1.524 . S
C3943 C3947 1.400 . S
C3944 H3929 0.960 . S
C3944 H3930 0.960 . S
C3944 H3931 0.960 . S
C3944 C3943 1.524 . S
C3945 C3942 1.403 . S
C3945 C3946 1.392 . S
C3945 C3949 1.495 . S
C3946 C3945 1.392 . S
C3946 C3947 1.385 . S
C3946 C3948 1.478 . S
C3947 H3941 0.930 . S
C3947 C3943 1.400 . S
C3947 C3946 1.385 . S
C3948 C3946 1.478 . S
C3948 C3950 1.381 . S
C3948 C3954 1.383 . S
C3949 C3945 1.495 . S
C3949 H3955 0.959 . S
C3949 H3956 0.961 . S
C3949 H3957 0.960 . S
C3950 C3948 1.381 . S
C3950 C3951 1.394 . S
C3950 H3958 0.930 . S
C3951 C3950 1.394 . S
C3951 C3952 1.383 . S
C3951 H3959 0.929 . S
C3952 C3951 1.383 . S
C3952 C3953 1.377 . S
C3953 H3937 0.930 . S
C3953 C3952 1.377 . S
C3953 C3954 1.379 . S
C3954 H3938 0.931 . S
C3954 C3948 1.383 . S
C3954 C3953 1.379 . S
H3955 C3949 0.959 . S
H3956 C3949 0.961 . S
H3957 C3949 0.960 . S
H3958 C3950 0.930 . S
H3959 C3951 0.929 . S
H3960 C3968 0.929 . S
H3961 C3970 0.930 . S
H3962 C3972 0.930 . S
H3963 C3975 0.929 . S
H3964 C3978 0.930 . S
H3965 C3980 0.960 . S
H3966 C3980 0.960 . S
H3967 C3980 0.960 . S
C3968 H3960 0.929 . S
C3968 C3969 1.377 . S
C3968 C3970 1.384 . S
C3969 C3968 1.377 . S
C3969 C3975 1.390 . S
C3970 H3961 0.930 . S
C3970 C3968 1.384 . S
C3970 C3971 1.372 . S
C3971 C3970 1.372 . S
C3971 C3972 1.400 . S
C3971 C3976 1.490 . S
C3972 H3962 0.930 . S
C3972 C3971 1.400 . S
C3972 C3975 1.386 . S
H3973 C3989 0.930 . S
H3974 C3990 0.931 . S
C3975 H3963 0.929 . S
C3975 C3969 1.390 . S
C3975 C3972 1.386 . S
C3976 C3971 1.490 . S
C3976 C3978 1.395 . S
C3976 C3979 1.403 . S
H3977 C3983 0.930 . S
C3978 H3964 0.930 . S
C3978 C3976 1.395 . S
C3978 C3981 1.403 . S
C3979 C3976 1.403 . S
C3979 C3980 1.524 . S
C3979 C3983 1.400 . S
C3980 H3965 0.960 . S
C3980 H3966 0.960 . S
C3980 H3967 0.960 . S
C3980 C3979 1.524 . S
C3981 C3978 1.403 . S
C3981 C3982 1.392 . S
C3981 C3985 1.495 . S
C3982 C3981 1.392 . S
C3982 C3983 1.385 . S
C3982 C3984 1.478 . S
C3983 H3977 0.930 . S
C3983 C3979 1.400 . S
C3983 C3982 1.385 . S
C3984 C3982 1.478 . S
C3984 C3986 1.381 . S
C3984 C3990 1.383 . S
C3985 C3981 1.495 . S
C3985 H3991 0.959 . S
C3985 H3992 0.961 . S
C3985 H3993 0.960 . S
C3986 C3984 1.381 . S
C3986 C3987 1.394 . S
C3986 H3994 0.930 . S
C3987 C3986 1.394 . S
C3987 C3988 1.383 . S
C3987 H3995 0.929 . S
C3988 C3987 1.383 . S
C3988 C3989 1.377 . S
C3989 H3973 0.930 . S
C3989 C3988 1.377 . S
C3989 C3990 1.379 . S
C3990 H3974 0.931 . S
C3990 C3984 1.383 . S
C3990 C3989 1.379 . S
H3991 C3985 0.959 . S
H3992 C3985 0.961 . S
H3993 C3985 0.960 . S
H3994 C3986 0.930 . S
H3995 C3987 0.929 . S
H3996 C4004 0.929 . S
H3997 C4006 0.930 . S
H3998 C4008 0.930 . S
H3999 C4011 0.929 . S
H4000 C4014 0.930 . S
H4001 C4016 0.960 . S
H4002 C4016 0.960 . S
H4003 C4016 0.960 . S
C4004 H3996 0.929 . S
C4004 C4005 1.377 . S
C4004 C4006 1.384 . S
C4005 C4004 1.377 . S
C4005 C4011 1.390 . S
C4006 H3997 0.930 . S
C4006 C4004 1.384 . S
C4006 C4007 1.372 . S
C4007 C4006 1.372 . S
C4007 C4008 1.400 . S
C4007 C4012 1.490 . S
C4008 H3998 0.930 . S
C4008 C4007 1.400 . S
C4008 C4011 1.386 . S
H4009 C4025 0.930 . S
H4010 C4026 0.931 . S
C4011 H3999 0.929 . S
C4011 C4005 1.390 . S
C4011 C4008 1.386 . S
C4012 C4007 1.490 . S
C4012 C4014 1.395 . S
C4012 C4015 1.403 . S
H4013 C4019 0.930 . S
C4014 H4000 0.930 . S
C4014 C4012 1.395 . S
C4014 C4017 1.403 . S
C4015 C4012 1.403 . S
C4015 C4016 1.524 . S
C4015 C4019 1.400 . S
C4016 H4001 0.960 . S
C4016 H4002 0.960 . S
C4016 H4003 0.960 . S
C4016 C4015 1.524 . S
C4017 C4014 1.403 . S
C4017 C4018 1.392 . S
C4017 C4021 1.495 . S
C4018 C4017 1.392 . S
C4018 C4019 1.385 . S
C4018 C4020 1.478 . S
C4019 H4013 0.930 . S
C4019 C4015 1.400 . S
C4019 C4018 1.385 . S
C4020 C4018 1.478 . S
C4020 C4022 1.381 . S
C4020 C4026 1.383 . S
C4021 C4017 1.495 . S
C4021 H4027 0.959 . S
C4021 H4028 0.961 . S
C4021 H4029 0.960 . S
C4022 C4020 1.381 . S
C4022 C4023 1.394 . S
C4022 H4030 0.930 . S
C4023 C4022 1.394 . S
C4023 C4024 1.383 . S
C4023 H4031 0.929 . S
C4024 C4023 1.383 . S
C4024 C4025 1.377 . S
C4025 H4009 0.930 . S
C4025 C4024 1.377 . S
C4025 C4026 1.379 . S
C4026 H4010 0.931 . S
C4026 C4020 1.383 . S
C4026 C4025 1.379 . S
H4027 C4021 0.959 . S
H4028 C4021 0.961 . S
H4029 C4021 0.960 . S
H4030 C4022 0.930 . S
H4031 C4023 0.929 . S
H4032 C4040 0.929 . S
H4033 C4042 0.930 . S
H4034 C4044 0.930 . S
H4035 C4047 0.929 . S
H4036 C4050 0.930 . S
H4037 C4052 0.960 . S
H4038 C4052 0.960 . S
H4039 C4052 0.960 . S
C4040 H4032 0.929 . S
C4040 C4041 1.377 . S
C4040 C4042 1.384 . S
C4041 C4040 1.377 . S
C4041 C4047 1.390 . S
C4042 H4033 0.930 . S
C4042 C4040 1.384 . S
C4042 C4043 1.372 . S
C4043 C4042 1.372 . S
C4043 C4044 1.400 . S
C4043 C4048 1.490 . S
C4044 H4034 0.930 . S
C4044 C4043 1.400 . S
C4044 C4047 1.386 . S
H4045 C4061 0.930 . S
H4046 C4062 0.931 . S
C4047 H4035 0.929 . S
C4047 C4041 1.390 . S
C4047 C4044 1.386 . S
C4048 C4043 1.490 . S
C4048 C4050 1.395 . S
C4048 C4051 1.403 . S
H4049 C4055 0.930 . S
C4050 H4036 0.930 . S
C4050 C4048 1.395 . S
C4050 C4053 1.403 . S
C4051 C4048 1.403 . S
C4051 C4052 1.524 . S
C4051 C4055 1.400 . S
C4052 H4037 0.960 . S
C4052 H4038 0.960 . S
C4052 H4039 0.960 . S
C4052 C4051 1.524 . S
C4053 C4050 1.403 . S
C4053 C4054 1.392 . S
C4053 C4057 1.495 . S
C4054 C4053 1.392 . S
C4054 C4055 1.385 . S
C4054 C4056 1.478 . S
C4055 H4049 0.930 . S
C4055 C4051 1.400 . S
C4055 C4054 1.385 . S
C4056 C4054 1.478 . S
C4056 C4058 1.381 . S
C4056 C4062 1.383 . S
C4057 C4053 1.495 . S
C4057 H4063 0.959 . S
C4057 H4064 0.961 . S
C4057 H4065 0.960 . S
C4058 C4056 1.381 . S
C4058 C4059 1.394 . S
C4058 H4066 0.930 . S
C4059 C4058 1.394 . S
C4059 C4060 1.383 . S
C4059 H4067 0.929 . S
C4060 C4059 1.383 . S
C4060 C4061 1.377 . S
C4061 H4045 0.930 . S
C4061 C4060 1.377 . S
C4061 C4062 1.379 . S
C4062 H4046 0.931 . S
C4062 C4056 1.383 . S
C4062 C4061 1.379 . S
H4063 C4057 0.959 . S
H4064 C4057 0.961 . S
H4065 C4057 0.960 . S
H4066 C4058 0.930 . S
H4067 C4059 0.929 . S
H4068 C4076 0.929 1_556 S
H4069 C4078 0.930 1_556 S
H4070 C4080 0.930 . S
H4071 C4083 0.929 . S
H4072 C4086 0.930 . S
H4073 C4088 0.960 . S
H4074 C4088 0.960 . S
H4075 C4088 0.960 . S
C4076 H4068 0.929 1_554 S
C4076 C4077 1.377 . S
C4076 C4078 1.384 . S
C4077 C4076 1.377 . S
C4077 C4083 1.390 . S
C4078 H4069 0.930 1_554 S
C4078 C4076 1.384 . S
C4078 C4079 1.372 . S
C4079 C4078 1.372 . S
C4079 C4080 1.400 . S
C4079 C4084 1.490 . S
C4080 H4070 0.930 . S
C4080 C4079 1.400 . S
C4080 C4083 1.386 . S
H4081 C4097 0.956 . S
H4082 C4098 0.931 . S
C4083 H4071 0.929 . S
C4083 C4077 1.390 . S
C4083 C4080 1.386 . S
C4084 C4079 1.490 . S
C4084 C4086 1.395 . S
C4084 C4087 1.403 . S
H4085 C4091 0.930 . S
C4086 H4072 0.930 . S
C4086 C4084 1.395 . S
C4086 C4089 1.403 . S
C4087 C4084 1.403 . S
C4087 C4088 1.524 . S
C4087 C4091 1.400 . S
C4088 H4073 0.960 . S
C4088 H4074 0.960 . S
C4088 H4075 0.960 . S
C4088 C4087 1.524 . S
C4089 C4086 1.403 . S
C4089 C4090 1.392 . S
C4089 C4093 1.495 . S
C4090 C4089 1.392 . S
C4090 C4091 1.385 . S
C4090 C4092 1.478 . S
C4091 H4085 0.930 . S
C4091 C4087 1.400 . S
C4091 C4090 1.385 . S
C4092 C4090 1.478 . S
C4092 C4094 1.381 1_554 S
C4092 C4098 1.383 . S
C4093 C4089 1.495 . S
C4093 H4099 0.959 . S
C4093 H4100 0.961 . S
C4093 H4101 0.960 1_554 S
C4094 C4092 1.381 1_556 S
C4094 C4095 1.394 . S
C4094 H4102 0.930 . S
C4095 C4094 1.394 . S
C4095 C4096 1.383 1_556 S
C4095 H4103 0.929 . S
C4096 C4095 1.383 1_554 S
C4096 C4097 1.377 . S
C4097 H4081 0.956 . S
C4097 C4096 1.377 . S
C4097 C4098 1.379 . S
C4098 H4082 0.931 . S
C4098 C4092 1.383 . S
C4098 C4097 1.379 . S
H4099 C4093 0.959 . S
H4100 C4093 0.961 . S
H4101 C4093 0.960 1_556 S
H4102 C4094 0.930 . S
H4103 C4095 0.929 . S
H4104 C4112 0.929 . S
H4105 C4114 0.930 . S
H4106 C4116 0.930 . S
H4107 C4119 0.929 . S
H4108 C4122 0.930 . S
H4109 C4124 0.960 . S
H4110 C4124 0.960 . S
H4111 C4124 0.960 . S
C4112 H4104 0.929 . S
C4112 C4113 1.377 . S
C4112 C4114 1.384 . S
C4113 C4112 1.377 . S
C4113 C4119 1.390 . S
C4114 H4105 0.930 . S
C4114 C4112 1.384 . S
C4114 C4115 1.372 . S
C4115 C4114 1.372 . S
C4115 C4116 1.400 . S
C4115 C4120 1.490 . S
C4116 H4106 0.930 . S
C4116 C4115 1.400 . S
C4116 C4119 1.386 . S
H4117 C4133 0.930 . S
H4118 C4134 0.931 . S
C4119 H4107 0.929 . S
C4119 C4113 1.390 . S
C4119 C4116 1.386 . S
C4120 C4115 1.490 . S
C4120 C4122 1.395 . S
C4120 C4123 1.403 . S
H4121 C4127 0.930 . S
C4122 H4108 0.930 . S
C4122 C4120 1.395 . S
C4122 C4125 1.403 . S
C4123 C4120 1.403 . S
C4123 C4124 1.524 . S
C4123 C4127 1.400 . S
C4124 H4109 0.960 . S
C4124 H4110 0.960 . S
C4124 H4111 0.960 . S
C4124 C4123 1.524 . S
C4125 C4122 1.403 . S
C4125 C4126 1.392 . S
C4125 C4129 1.495 . S
C4126 C4125 1.392 . S
C4126 C4127 1.385 . S
C4126 C4128 1.478 . S
C4127 H4121 0.930 . S
C4127 C4123 1.400 . S
C4127 C4126 1.385 . S
C4128 C4126 1.478 . S
C4128 C4130 1.381 . S
C4128 C4134 1.383 . S
C4129 C4125 1.495 . S
C4129 H4135 0.959 . S
C4129 H4136 0.961 . S
C4129 H4137 0.960 . S
C4130 C4128 1.381 . S
C4130 C4131 1.394 . S
C4130 H4138 0.930 . S
C4131 C4130 1.394 . S
C4131 C4132 1.383 . S
C4131 H4139 0.929 . S
C4132 C4131 1.383 . S
C4132 C4133 1.377 . S
C4133 H4117 0.930 . S
C4133 C4132 1.377 . S
C4133 C4134 1.379 . S
C4134 H4118 0.931 . S
C4134 C4128 1.383 . S
C4134 C4133 1.379 . S
H4135 C4129 0.959 . S
H4136 C4129 0.961 . S
H4137 C4129 0.960 . S
H4138 C4130 0.930 . S
H4139 C4131 0.929 . S
H4140 C4148 0.929 . S
H4141 C4150 0.930 . S
H4142 C4152 0.930 . S
H4143 C4155 0.929 . S
H4144 C4158 0.930 . S
H4145 C4160 0.960 . S
H4146 C4160 0.960 . S
H4147 C4160 0.960 1_554 S
C4148 H4140 0.929 . S
C4148 C4149 1.377 . S
C4148 C4150 1.384 . S
C4149 C4148 1.377 . S
C4149 C4155 1.390 1_556 S
C4150 H4141 0.930 . S
C4150 C4148 1.384 . S
C4150 C4151 1.372 1_556 S
C4151 C4150 1.372 1_554 S
C4151 C4152 1.400 . S
C4151 C4156 1.490 . S
C4152 H4142 0.930 . S
C4152 C4151 1.400 . S
C4152 C4155 1.386 . S
H4153 C4169 0.930 . S
H4154 C4170 0.931 . S
C4155 H4143 0.929 . S
C4155 C4149 1.390 1_554 S
C4155 C4152 1.386 . S
C4156 C4151 1.490 . S
C4156 C4158 1.395 . S
C4156 C4159 1.403 . S
H4157 C4163 0.930 . S
C4158 H4144 0.930 . S
C4158 C4156 1.395 . S
C4158 C4161 1.403 . S
C4159 C4156 1.403 . S
C4159 C4160 1.524 1_554 S
C4159 C4163 1.400 . S
C4160 H4145 0.960 . S
C4160 H4146 0.960 . S
C4160 H4147 0.960 1_556 S
C4160 C4159 1.524 1_556 S
C4161 C4158 1.403 . S
C4161 C4162 1.392 . S
C4161 C4165 1.495 . S
C4162 C4161 1.392 . S
C4162 C4163 1.385 . S
C4162 C4164 1.478 . S
C4163 H4157 0.930 . S
C4163 C4159 1.400 . S
C4163 C4162 1.385 . S
C4164 C4162 1.478 . S
C4164 C4166 1.381 . S
C4164 C4170 1.383 . S
C4165 C4161 1.495 . S
C4165 H4171 0.959 . S
C4165 H4172 0.961 . S
C4165 H4173 0.960 . S
C4166 C4164 1.381 . S
C4166 C4167 1.394 . S
C4166 H4174 0.930 1_554 S
C4167 C4166 1.394 . S
C4167 C4168 1.383 . S
C4167 H4175 0.929 . S
C4168 C4167 1.383 . S
C4168 C4169 1.377 . S
C4169 H4153 0.930 . S
C4169 C4168 1.377 . S
C4169 C4170 1.379 . S
C4170 H4154 0.931 . S
C4170 C4164 1.383 . S
C4170 C4169 1.379 . S
H4171 C4165 0.959 . S
H4172 C4165 0.961 . S
H4173 C4165 0.960 . S
H4174 C4166 0.930 1_556 S
H4175 C4167 0.929 . S
H4176 C4184 0.929 . S
H4177 C4186 0.930 . S
H4178 C4188 0.930 . S
H4179 C4191 0.929 . S
H4180 C4194 0.930 . S
H4181 C4196 0.960 . S
H4182 C4196 0.960 . S
H4183 C4196 0.960 . S
C4184 H4176 0.929 . S
C4184 C4185 1.377 . S
C4184 C4186 1.384 . S
C4185 C4184 1.377 . S
C4185 C4191 1.390 . S
C4186 H4177 0.930 . S
C4186 C4184 1.384 . S
C4186 C4187 1.372 . S
C4187 C4186 1.372 . S
C4187 C4188 1.400 . S
C4187 C4192 1.490 . S
C4188 H4178 0.930 . S
C4188 C4187 1.400 . S
C4188 C4191 1.386 . S
H4189 C4205 0.930 . S
H4190 C4206 0.931 . S
C4191 H4179 0.929 . S
C4191 C4185 1.390 . S
C4191 C4188 1.386 . S
C4192 C4187 1.490 . S
C4192 C4194 1.395 . S
C4192 C4195 1.403 . S
H4193 C4199 0.930 . S
C4194 H4180 0.930 . S
C4194 C4192 1.395 . S
C4194 C4197 1.403 . S
C4195 C4192 1.403 . S
C4195 C4196 1.524 . S
C4195 C4199 1.400 . S
C4196 H4181 0.960 . S
C4196 H4182 0.960 . S
C4196 H4183 0.960 . S
C4196 C4195 1.524 . S
C4197 C4194 1.403 . S
C4197 C4198 1.392 . S
C4197 C4201 1.495 . S
C4198 C4197 1.392 . S
C4198 C4199 1.385 . S
C4198 C4200 1.478 . S
C4199 H4193 0.930 . S
C4199 C4195 1.400 . S
C4199 C4198 1.385 . S
C4200 C4198 1.478 . S
C4200 C4202 1.381 . S
C4200 C4206 1.383 . S
C4201 C4197 1.495 . S
C4201 H4207 0.959 . S
C4201 H4208 0.961 . S
C4201 H4209 0.960 . S
C4202 C4200 1.381 . S
C4202 C4203 1.394 . S
C4202 H4210 0.930 . S
C4203 C4202 1.394 . S
C4203 C4204 1.383 . S
C4203 H4211 0.929 . S
C4204 C4203 1.383 . S
C4204 C4205 1.377 . S
C4205 H4189 0.930 . S
C4205 C4204 1.377 . S
C4205 C4206 1.379 . S
C4206 H4190 0.931 . S
C4206 C4200 1.383 . S
C4206 C4205 1.379 . S
H4207 C4201 0.959 . S
H4208 C4201 0.961 . S
H4209 C4201 0.960 . S
H4210 C4202 0.930 . S
H4211 C4203 0.929 . S
H4212 C4220 0.929 . S
H4213 C4222 0.930 . S
H4214 C4224 0.930 . S
H4215 C4227 0.929 . S
H4216 C4230 0.930 . S
H4217 C4232 0.960 . S
H4218 C4232 0.960 . S
H4219 C4232 0.960 . S
C4220 H4212 0.929 . S
C4220 C4221 1.377 . S
C4220 C4222 1.384 . S
C4221 C4220 1.377 . S
C4221 C4227 1.390 . S
C4222 H4213 0.930 . S
C4222 C4220 1.384 . S
C4222 C4223 1.372 . S
C4223 C4222 1.372 . S
C4223 C4224 1.400 . S
C4223 C4228 1.490 . S
C4224 H4214 0.930 . S
C4224 C4223 1.400 . S
C4224 C4227 1.386 . S
H4225 C4241 0.930 . S
H4226 C4242 0.931 . S
C4227 H4215 0.929 . S
C4227 C4221 1.390 . S
C4227 C4224 1.386 . S
C4228 C4223 1.490 . S
C4228 C4230 1.395 . S
C4228 C4231 1.403 . S
H4229 C4235 0.930 . S
C4230 H4216 0.930 . S
C4230 C4228 1.395 . S
C4230 C4233 1.403 . S
C4231 C4228 1.403 . S
C4231 C4232 1.524 . S
C4231 C4235 1.400 . S
C4232 H4217 0.960 . S
C4232 H4218 0.960 . S
C4232 H4219 0.960 . S
C4232 C4231 1.524 . S
C4233 C4230 1.403 . S
C4233 C4234 1.392 . S
C4233 C4237 1.495 . S
C4234 C4233 1.392 . S
C4234 C4235 1.385 . S
C4234 C4236 1.478 . S
C4235 H4229 0.930 . S
C4235 C4231 1.400 . S
C4235 C4234 1.385 . S
C4236 C4234 1.478 . S
C4236 C4238 1.381 . S
C4236 C4242 1.383 . S
C4237 C4233 1.495 . S
C4237 H4243 0.959 . S
C4237 H4244 0.961 . S
C4237 H4245 0.960 . S
C4238 C4236 1.381 . S
C4238 C4239 1.394 . S
C4238 H4246 0.930 . S
C4239 C4238 1.394 . S
C4239 C4240 1.383 . S
C4239 H4247 0.929 . S
C4240 C4239 1.383 . S
C4240 C4241 1.377 . S
C4241 H4225 0.930 . S
C4241 C4240 1.377 . S
C4241 C4242 1.379 . S
C4242 H4226 0.931 . S
C4242 C4236 1.383 . S
C4242 C4241 1.379 . S
H4243 C4237 0.959 . S
H4244 C4237 0.961 . S
H4245 C4237 0.960 . S
H4246 C4238 0.930 . S
H4247 C4239 0.929 . S
C820 C313 1.899 . S
C801 C10 1.927 . S
C837 C23 1.137 . S
C856 C358 1.121 . S
C873 C36 1.854 . S
C892 C382 1.832 . S
C928 N408 1.090 . S
C909 C42 1.086 . S
C945 C18 1.146 . S
C964 N438 1.144 . S
C1000 C472 1.750 . S
C981 C31 1.774 . S
C1036 C508 1.302 . S
C1017 C43 1.290 . S
C1053 C5 1.894 . S
C1072 C532 1.865 . S
C1089 C56 1.022 . S
C1108 N326 1.021 1_545 S
C1125 C70 1.156 . S
C1144 N348 1.153 . S
C1180 C388 1.150 . S
C1161 C82 1.163 . S
C1216 C412 1.928 . S
C1197 C96 1.972 . S
C1233 C57 1.392 . S
C1252 C442 1.367 . S
C1288 C478 1.240 . S
C1269 C69 1.234 . S
C1324 N498 1.149 . S
C1305 C83 1.145 . S
C1360 C538 1.853 . S
C1341 C95 1.861 . S
C1396 C339 1.774 . S
C1377 C94 1.785 . S
C1432 C568 1.126 . S
C1413 C108 1.131 . S
C1449 C122 1.159 . S
C1468 N588 1.152 . S
C1504 C622 1.712 . S
C1485 C140 1.746 . S
C1521 C55 0.979 . S
C1540 N528 0.988 . S
C1576 N378 1.114 1_565 S
C1557 C68 1.109 . S
C1593 C121 1.231 . S
C1612 C658 1.218 . S
C1648 C682 1.181 . S
C1629 C153 1.226 . S
C1665 C161 1.526 . S
C1684 C322 1.513 1_556 S
C1720 C699 0.740 . S
C1701 C174 0.756 . S
C1737 C186 1.433 . S
C1756 C373 1.392 . S
C1773 C200 0.804 . S
C1792 N656 0.791 . S
C1828 N446 0.833 . S
C1809 C172 0.832 . S
C1864 C583 1.346 . S
C1845 C192 1.357 . S
C1900 C519 0.880 . S
C1881 C198 0.890 . S
C1936 C703 1.496 . S
C1917 C159 1.510 . S
C1972 N318 0.782 . S
C1953 C211 0.765 . S
C1989 C225 0.834 . S
C2008 N686 0.841 . S
C2044 C399 0.768 . S
C2025 C239 0.758 . S
C2061 C251 1.572 . S
C2080 C643 1.553 . S
C2097 C218 0.965 . S
C2116 C433 0.986 . S
C2133 C226 0.824 . S
C2152 C609 0.799 . S
C2188 N506 0.845 . S
C2169 C238 0.831 . S
C2205 C252 1.461 . S
C2224 C729 1.436 . S
C2241 C250 1.396 . S
C2260 C328 1.347 1_565 S
C2277 C264 0.736 . S
C2296 C579 0.758 . S
C2313 C276 0.859 . S
C2332 N476 0.855 . S
C2349 C290 1.342 . S
C2368 C613 1.326 . S
C2404 N716 0.730 . S
C2385 C213 0.730 . S
C2440 N386 0.816 . S
C2421 C224 0.828 . S
C2476 C429 0.797 . S
C2457 C283 0.822 . S
C2512 C343 0.782 . S
C2493 C303 0.780 . S
C2529 C29 1.933 . S
C2548 C733 1.886 . S
C2584 C688 1.141 . S
C2565 C49 1.139 . S
C2620 C772 1.845 . S
C2601 C3 1.861 . S
C2637 C16 1.083 1_655 S
C2656 N648 1.088 . S
C2673 C44 1.147 . S
C2692 N558 1.146 1_556 S
C2728 C592 1.730 . S
C2709 C4 1.767 . S
C2764 C628 1.277 . S
C2745 C17 1.290 . S
C2800 C712 1.852 . S
C2781 C30 1.885 . S
C2836 N746 1.016 . S
C2817 C147 1.025 . S
C2853 C107 1.157 1_556 S
C2872 N678 1.157 . S
C2889 C127 1.168 . S
C2908 C778 1.151 1_655 S
C2944 C652 1.950 . S
C2925 C135 1.976 . S
C2980 C562 1.355 . S
C2961 C148 1.387 . S
C2997 C114 1.227 . S
C3016 C598 1.211 . S
C3052 N618 1.138 . S
C3033 C120 1.140 . S
C3069 C134 1.858 . S
C3088 C718 1.830 . S
C3124 C759 1.750 . S
C3105 C133 1.784 . S
C3160 C448 1.147 . S
C3141 C75 1.139 . S
C3196 N468 1.161 . S
C3177 C81 1.158 1_565 S
C3213 C101 1.750 . S
C3232 C502 1.727 . S
C3268 N708 0.963 . S
C3249 C146 0.980 . S
C3285 C109 1.112 . S
C3304 N768 1.110 . S
C3340 C418 1.207 . S
C3321 C88 1.226 . S
C3376 C352 1.196 . S
C3357 C62 1.224 . S
C3393 C187 1.523 . S
C3412 C742 1.481 . S
C3448 C369 0.725 . S
C3429 C199 0.743 . S
C3484 C763 1.409 1_556 S
C3465 C160 1.433 . S
C3501 C173 0.785 . S
C3520 N416 0.790 . S
C3537 C205 0.826 . S
C3556 N566 0.817 . S
C3573 C166 1.357 . S
C3592 C463 1.332 . S
C3609 C179 0.882 . S
C3628 C639 0.860 . S
C3645 C185 1.509 . S
C3664 C523 1.501 . S
C3700 N738 0.747 . S
C3681 C302 0.765 . S
C3717 C270 0.836 . S
C3736 N356 0.841 . S
C3772 C789 0.752 . S
C3753 C278 0.761 . S
C3789 C296 1.576 . S
C3808 C403 1.558 . S
C3825 C309 0.973 . S
C3844 C553 0.976 . S
C3880 C489 0.802 . S
C3861 C263 0.833 . S
C3897 C277 0.835 . S
C3916 N626 0.850 . S
C3952 C549 1.462 . S
C3933 C289 1.463 . S
C3988 C748 1.385 . S
C3969 C291 1.398 . S
C4024 C459 0.730 . S
C4005 C231 0.738 . S
C4041 C237 0.854 . S
C4060 N596 0.868 . S
C4096 C493 1.320 1_565 S
C4077 C257 1.339 . S
C4132 N536 0.706 . S
C4113 C304 0.712 . S
C4149 C265 0.827 . S
C4168 N776 0.814 . S
C4204 C669 0.831 . S
C4185 C244 0.819 . S
C4240 C673 0.793 . S
C4221 C212 0.777 . S
