# Generated by pormake.
# Topology wbl, (4,4)-cn, num edge types: 1
# Building blocks:
#     Node 0, Type 0, BuildingBlock: MUDLON_clean_sbu_0, # of connection points: 4
#     Node 1, Type 0, BuildingBlock: MUDLON_clean_sbu_0, # of connection points: 4
#     Node 2, Type 0, BuildingBlock: MUDLON_clean_sbu_0, # of connection points: 4
#     Node 3, Type 0, BuildingBlock: MUDLON_clean_sbu_0, # of connection points: 4
#     Node 4, Type 0, BuildingBlock: MUDLON_clean_sbu_0, # of connection points: 4
#     Node 5, Type 0, BuildingBlock: MUDLON_clean_sbu_0, # of connection points: 4
#     Node 6, Type 0, BuildingBlock: MUDLON_clean_sbu_0, # of connection points: 4
#     Node 7, Type 0, BuildingBlock: MUDLON_clean_sbu_0, # of connection points: 4
#     Node 8, Type 1, BuildingBlock: QUQFOY_clean_sbu_3, # of connection points: 4
#     Node 9, Type 1, BuildingBlock: QUQFOY_clean_sbu_3, # of connection points: 4
#     Node 10, Type 1, BuildingBlock: QUQFOY_clean_sbu_3, # of connection points: 4
#     Node 11, Type 1, BuildingBlock: QUQFOY_clean_sbu_3, # of connection points: 4
#     Node 12, Type 1, BuildingBlock: QUQFOY_clean_sbu_3, # of connection points: 4
#     Node 13, Type 1, BuildingBlock: QUQFOY_clean_sbu_3, # of connection points: 4
#     Node 14, Type 1, BuildingBlock: QUQFOY_clean_sbu_3, # of connection points: 4
#     Node 15, Type 1, BuildingBlock: QUQFOY_clean_sbu_3, # of connection points: 4
#     Edge 16, Type (0, 1), BuildingBlock: CIFDUS_clean_linker_0, # of connection points: 2
#     Edge 17, Type (0, 1), BuildingBlock: CIFDUS_clean_linker_0, # of connection points: 2
#     Edge 18, Type (0, 1), BuildingBlock: CIFDUS_clean_linker_0, # of connection points: 2
#     Edge 19, Type (0, 1), BuildingBlock: CIFDUS_clean_linker_0, # of connection points: 2
#     Edge 20, Type (0, 1), BuildingBlock: CIFDUS_clean_linker_0, # of connection points: 2
#     Edge 21, Type (0, 1), BuildingBlock: CIFDUS_clean_linker_0, # of connection points: 2
#     Edge 22, Type (0, 1), BuildingBlock: CIFDUS_clean_linker_0, # of connection points: 2
#     Edge 23, Type (0, 1), BuildingBlock: CIFDUS_clean_linker_0, # of connection points: 2
#     Edge 24, Type (0, 1), BuildingBlock: CIFDUS_clean_linker_0, # of connection points: 2
#     Edge 25, Type (0, 1), BuildingBlock: CIFDUS_clean_linker_0, # of connection points: 2
#     Edge 26, Type (0, 1), BuildingBlock: CIFDUS_clean_linker_0, # of connection points: 2
#     Edge 27, Type (0, 1), BuildingBlock: CIFDUS_clean_linker_0, # of connection points: 2
#     Edge 28, Type (0, 1), BuildingBlock: CIFDUS_clean_linker_0, # of connection points: 2
#     Edge 29, Type (0, 1), BuildingBlock: CIFDUS_clean_linker_0, # of connection points: 2
#     Edge 30, Type (0, 1), BuildingBlock: CIFDUS_clean_linker_0, # of connection points: 2
#     Edge 31, Type (0, 1), BuildingBlock: CIFDUS_clean_linker_0, # of connection points: 2
#     Edge 32, Type (0, 1), BuildingBlock: CIFDUS_clean_linker_0, # of connection points: 2
#     Edge 33, Type (0, 1), BuildingBlock: CIFDUS_clean_linker_0, # of connection points: 2
#     Edge 34, Type (0, 1), BuildingBlock: CIFDUS_clean_linker_0, # of connection points: 2
#     Edge 35, Type (0, 1), BuildingBlock: CIFDUS_clean_linker_0, # of connection points: 2
#     Edge 36, Type (0, 1), BuildingBlock: CIFDUS_clean_linker_0, # of connection points: 2
#     Edge 37, Type (0, 1), BuildingBlock: CIFDUS_clean_linker_0, # of connection points: 2
#     Edge 38, Type (0, 1), BuildingBlock: CIFDUS_clean_linker_0, # of connection points: 2
#     Edge 39, Type (0, 1), BuildingBlock: CIFDUS_clean_linker_0, # of connection points: 2
#     Edge 40, Type (0, 1), BuildingBlock: CIFDUS_clean_linker_0, # of connection points: 2
#     Edge 41, Type (0, 1), BuildingBlock: CIFDUS_clean_linker_0, # of connection points: 2
#     Edge 42, Type (0, 1), BuildingBlock: CIFDUS_clean_linker_0, # of connection points: 2
#     Edge 43, Type (0, 1), BuildingBlock: CIFDUS_clean_linker_0, # of connection points: 2
#     Edge 44, Type (0, 1), BuildingBlock: CIFDUS_clean_linker_0, # of connection points: 2
#     Edge 45, Type (0, 1), BuildingBlock: CIFDUS_clean_linker_0, # of connection points: 2
#     Edge 46, Type (0, 1), BuildingBlock: CIFDUS_clean_linker_0, # of connection points: 2
#     Edge 47, Type (0, 1), BuildingBlock: CIFDUS_clean_linker_0, # of connection points: 2
# Relax obj value: 0.236
# Max RMSD: 0.222
# Mean RMSD: 0.174
data_MOF--net-wbl--node1-MUDLON_clean_sbu_0--node2-QUQFOY_clean_sbu_3--edge1-CIFDUS_clean_linker_0
_symmetry_space_group_name_H-M    P1
_symmetry_Int_Tables_number       1
_symmetry_cell_setting            triclinic
loop_
_symmetry_equiv_pos_as_xyz
'x, y, z'
_cell_length_a     31.104036
_cell_length_b     31.366272
_cell_length_c     68.231494
_cell_angle_alpha  90.780459
_cell_angle_beta   90.176545
_cell_angle_gamma 89.978224
loop_
_atom_site_label
_atom_site_type_symbol
_atom_site_fract_x
_atom_site_fract_y
_atom_site_fract_z
_atom_type_partial_charge
Mg0 Mg 0.02624 0.02782 0.34097 0.0
C1 C 0.05038 0.94648 0.35976 0.0
O2 O 0.08771 0.95478 0.35171 0.0
C3 C 0.97132 0.08088 0.31486 0.0
O4 O 0.9904 0.11075 0.3254 0.0
C5 C 0.10394 0.04837 0.31533 0.0
O6 O 0.07465 0.06417 0.30358 0.0
O7 O 0.09265 0.03367 0.3318 0.0
O8 O 0.01724 0.96506 0.35309 0.0
O9 O 0.00888 0.06309 0.36736 0.0
C10 C 0.97146 0.05137 0.37249 0.0
O11 O 0.94881 0.02814 0.36005 0.0
O12 O 0.98081 0.04209 0.31788 0.0
Mg13 Mg 0.10686 0.49623 0.58451 0.0
C14 C 0.19467 0.52376 0.59842 0.0
O15 O 0.18609 0.55645 0.58727 0.0
C16 C 0.10041 0.40884 0.56298 0.0
O17 O 0.14082 0.40407 0.56819 0.0
C18 C 0.12908 0.55508 0.55289 0.0
O19 O 0.15156 0.52076 0.54854 0.0
O20 O 0.10418 0.55436 0.56766 0.0
O21 O 0.17145 0.49048 0.59677 0.0
O22 O 0.07327 0.49439 0.61243 0.0
C23 C 0.08461 0.4596 0.62036 0.0
O24 O 0.10708 0.43217 0.60987 0.0
O25 O 0.08107 0.44334 0.56731 0.0
Mg26 Mg 0.6116 0.58335 0.84145 0.0
C27 C 0.53324 0.58373 0.86663 0.0
O28 O 0.5172 0.60415 0.85162 0.0
C29 C 0.67296 0.54153 0.81409 0.0
O30 O 0.67044 0.58036 0.80717 0.0
C31 C 0.55879 0.65055 0.81827 0.0
O32 O 0.56535 0.67638 0.83331 0.0
O33 O 0.57579 0.6137 0.81818 0.0
O34 O 0.5682 0.56328 0.86434 0.0
O35 O 0.65119 0.6222 0.86089 0.0
C36 C 0.67749 0.5985 0.86999 0.0
O37 O 0.68782 0.56171 0.86188 0.0
O38 O 0.64976 0.53194 0.82869 0.0
Mg39 Mg 0.56961 0.12823 0.06921 0.0
C40 C 0.64998 0.15635 0.0895 0.0
O41 O 0.63948 0.19214 0.08099 0.0
C42 C 0.54667 0.03545 0.06562 0.0
O43 O 0.5487 0.04058 0.08473 0.0
C44 C 0.60522 0.19341 0.04101 0.0
O45 O 0.63468 0.16361 0.03909 0.0
O46 O 0.57213 0.18563 0.0513 0.0
O47 O 0.63017 0.12235 0.08463 0.0
O48 O 0.53271 0.14078 0.09577 0.0
C49 C 0.49996 0.12246 0.10292 0.0
O50 O 0.47825 0.09488 0.09214 0.0
O51 O 0.55406 0.06724 0.05472 0.0
Mg52 Mg 0.12446 0.56104 0.9308 0.0
C53 C 0.11605 0.60484 0.89147 0.0
O54 O 0.07477 0.59862 0.89423 0.0
C55 C 0.05812 0.56239 0.96137 0.0
O56 O 0.08366 0.53128 0.96679 0.0
C57 C 0.18318 0.59725 0.96065 0.0
O58 O 0.15462 0.62772 0.95844 0.0
O59 O 0.17854 0.56272 0.95089 0.0
O60 O 0.14244 0.59669 0.90517 0.0
O61 O 0.11218 0.49971 0.91692 0.0
C62 C 0.07449 0.48414 0.91592 0.0
O63 O 0.04402 0.50067 0.92691 0.0
O64 O 0.06742 0.58302 0.94604 0.0
Mg65 Mg 0.61163 0.64479 0.19843 0.0
C66 C 0.56517 0.61251 0.16392 0.0
O67 O 0.59467 0.58318 0.16668 0.0
C68 C 0.58731 0.55969 0.21649 0.0
O69 O 0.54957 0.56942 0.20907 0.0
C70 C 0.56863 0.71784 0.21958 0.0
O71 O 0.53517 0.69411 0.215 0.0
O72 O 0.60597 0.70429 0.21515 0.0
O73 O 0.55986 0.64091 0.17716 0.0
O74 O 0.66434 0.64657 0.17768 0.0
C75 C 0.689 0.61451 0.17559 0.0
O76 O 0.68857 0.58478 0.18896 0.0
O77 O 0.61783 0.58647 0.21526 0.0
Mg78 Mg 0.50496 0.11042 0.42001 0.0
C79 C 0.55321 0.13055 0.38454 0.0
O80 O 0.55604 0.16557 0.39524 0.0
C81 C 0.45232 0.0598 0.44738 0.0
O82 O 0.4683 0.08977 0.45891 0.0
C83 C 0.57337 0.15542 0.44508 0.0
O84 O 0.55864 0.18941 0.43625 0.0
O85 O 0.55643 0.11928 0.44132 0.0
O86 O 0.53407 0.09852 0.39164 0.0
O87 O 0.46746 0.16896 0.41774 0.0
C88 C 0.44985 0.18195 0.40202 0.0
O89 O 0.43181 0.21981 0.4019 0.0
O90 O 0.46302 0.05922 0.42942 0.0
Mg91 Mg 0.01572 0.98896 0.68661 0.0
C92 C 0.08117 0.9685 0.65559 0.0
O93 O 0.07977 0.93148 0.66432 0.0
C94 C 0.0473 0.06501 0.70977 0.0
O95 O 0.08346 0.0524 0.70165 0.0
C96 C 0.07095 0.9288 0.70891 0.0
O97 O 0.09551 0.96279 0.70816 0.0
O98 O 0.03344 0.93047 0.70147 0.0
O99 O 0.06053 -0.00019 0.66291 0.0
O100 O 0.95811 0.9844 0.66891 0.0
C101 C 0.93999 0.01956 0.66492 0.0
O102 O 0.94988 0.05343 0.67555 0.0
O103 O 0.01317 0.04396 0.70629 0.0
C104 C 0.54648 0.66605 0.05136 0.0
O105 O 0.58086 0.672 0.04178 0.0
Cd106 Cd 0.58332 0.70407 0.01006 0.0
O107 O 0.51012 0.67657 0.04427 0.0
Cd108 Cd 0.48562 0.70644 0.01252 0.0
C109 C 0.5383 0.8013 0.01861 0.0
O110 O 0.5327 0.6627 -0.00869 0.0
O111 O 0.49415 0.70983 0.9767 0.0
O112 O 0.42436 0.65791 0.0137 0.0
C113 C 0.51824 0.67732 0.9754 0.0
O114 O 0.5719 0.78135 0.01315 0.0
C115 C 0.39614 0.6862 0.01047 0.0
O116 O 0.50304 0.7814 0.02091 0.0
O117 O 0.40927 0.72444 0.00943 0.0
C118 C 0.47029 0.07529 0.2163 0.0
O119 O 0.50678 0.08019 0.22438 0.0
Cd120 Cd 0.51975 0.05557 0.257 0.0
O121 O 0.43912 0.05979 0.22597 0.0
Cd122 Cd 0.42796 0.0368 0.26063 0.0
C123 C 0.49203 0.95097 0.25318 0.0
O124 O 0.46953 0.09182 0.27876 0.0
O125 O 0.44963 0.03709 0.29519 0.0
O126 O 0.35731 0.07163 0.25839 0.0
C127 C 0.46345 0.07507 0.29535 0.0
O128 O 0.52321 0.97694 0.25523 0.0
C129 C 0.33728 0.04212 0.26705 0.0
O130 O 0.45357 0.96468 0.25372 0.0
O131 O 0.35898 0.00956 0.27178 0.0
C132 C 0.12074 0.91988 0.46988 0.0
O133 O 0.10942 0.95338 0.47911 0.0
Cd134 Cd 0.14683 0.97127 0.50936 0.0
O135 O 0.14562 0.89321 0.47795 0.0
Cd136 Cd 0.17692 0.88095 0.51047 0.0
C137 C 0.25245 0.9502 0.49784 0.0
O138 O 0.13673 0.9226 0.53556 0.0
O139 O 0.2016 0.90187 0.5426 0.0
O140 O 0.12801 0.82242 0.51424 0.0
C141 C 0.16637 0.91816 0.54831 0.0
O142 O 0.22336 0.97704 0.50246 0.0
C143 C 0.15625 0.79361 0.51619 0.0
O144 O 0.24483 0.91024 0.49773 0.0
O145 O 0.19543 0.80485 0.51451 0.0
C146 C 0.22357 0.58629 0.78576 0.0
O147 O 0.24085 0.55293 0.77856 0.0
Cd148 Cd 0.27081 0.54694 0.74622 0.0
O149 O 0.22177 0.62042 0.77588 0.0
Cd150 Cd 0.24878 0.64312 0.7433 0.0
C151 C 0.35237 0.617 0.75351 0.0
O152 O 0.22461 0.58185 0.72336 0.0
O153 O 0.26779 0.62533 0.70917 0.0
O154 O 0.18674 0.69088 0.74012 0.0
C155 C 0.24314 0.59324 0.70776 0.0
O156 O 0.34177 0.57895 0.74895 0.0
C157 C 0.20893 0.72438 0.73774 0.0
O158 O 0.32414 0.64639 0.75436 0.0
O159 O 0.24952 0.72004 0.7381 0.0
C160 C 0.9188 0.08792 0.48585 0.0
O161 O 0.90439 0.05463 0.49391 0.0
Cd162 Cd 0.86592 0.05555 0.52448 0.0
O163 O 0.9145 0.12426 0.49411 0.0
Cd164 Cd 0.88292 0.15416 0.52456 0.0
C165 C 0.78409 0.12092 0.50967 0.0
O166 O 0.90112 0.0992 0.54864 0.0
O167 O 0.85494 0.14723 0.55758 0.0
O168 O 0.94911 0.19466 0.52755 0.0
C169 C 0.87815 0.11562 0.56214 0.0
O170 O 0.79657 0.08449 0.51542 0.0
C171 C 0.9316 0.23108 0.52908 0.0
O172 O 0.80973 0.15271 0.51002 0.0
O173 O 0.89075 0.23221 0.52802 0.0
C174 C 0.03259 0.41968 0.73299 0.0
O175 O 0.06683 0.40972 0.74204 0.0
Cd176 Cd 0.07012 0.37841 0.77363 0.0
O177 O -0.00409 0.41456 0.74094 0.0
Cd178 Cd 0.96739 0.38823 0.77287 0.0
C179 C 0.00834 0.29025 0.76218 0.0
O180 O 0.02316 0.42038 0.7934 0.0
O181 O 0.98012 0.37772 0.80818 0.0
O182 O 0.91716 0.44666 0.76866 0.0
C183 C 0.01096 0.40404 0.80931 0.0
O184 O 0.0446 0.3064 0.76679 0.0
C185 C 0.88419 0.42698 0.77466 0.0
O186 O 0.97439 0.31309 0.76232 0.0
O187 O 0.88935 0.38823 0.77936 0.0
C188 C 0.70363 0.57577 0.98569 0.0
O189 O 0.70892 0.61142 -0.00561 0.0
Cd190 Cd 0.7417 0.61464 0.0264 0.0
O191 O 0.71151 0.54111 -0.0054 0.0
Cd192 Cd 0.73513 0.51217 0.02651 0.0
C193 C 0.83216 0.55586 0.01565 0.0
O194 O 0.70529 0.56709 0.04842 0.0
O195 O 0.75223 0.52454 0.06099 0.0
O196 O 0.67981 0.45531 0.02628 0.0
C197 C 0.72587 0.55497 0.06347 0.0
O198 O 0.81551 0.59239 0.01887 0.0
C199 C 0.70671 0.42479 0.02664 0.0
O200 O 0.80992 0.52198 0.01711 0.0
O201 O 0.74622 0.43503 0.02703 0.0
C202 C 0.63367 0.17394 0.27587 0.0
O203 O 0.63649 0.13952 0.26595 0.0
Cd204 Cd 0.67707 0.13398 0.2363 0.0
O205 O 0.65015 0.20834 0.26954 0.0
Cd206 Cd 0.68975 0.23587 0.24081 0.0
C207 C 0.77277 0.17302 0.25491 0.0
O208 O 0.65576 0.19128 0.21586 0.0
O209 O 0.71343 0.22365 0.20686 0.0
O210 O 0.64248 0.2984 0.24038 0.0
C211 C 0.68188 0.1999 0.20227 0.0
O212 O 0.75078 0.1419 0.24808 0.0
C213 C 0.67247 0.32587 0.24034 0.0
O214 O 0.75771 0.21084 0.2549 0.0
O215 O 0.7107 0.31156 0.24099 0.0
H216 H 0.14285 0.08672 0.28441 0.0
H217 H 0.16633 -0.001 0.3315 0.0
H218 H 0.23954 0.9877 0.31997 0.0
H219 H 0.29702 0.0025 0.29665 0.0
H220 H 0.27607 0.09332 0.25072 0.0
H221 H 0.20164 0.10335 0.26153 0.0
C222 C 0.16404 0.06522 0.29216 0.0
C223 C 0.14905 0.04372 0.30878 0.0
C224 C 0.20644 0.05917 0.28558 0.0
C225 C 0.17702 0.01615 0.31873 0.0
C226 C 0.21889 0.00947 0.3121 0.0
C227 C 0.27603 0.02419 0.28889 0.0
C228 C 0.29176 0.04677 0.27278 0.0
C229 C 0.23387 0.03066 0.29552 0.0
C230 C 0.26453 0.07543 0.26311 0.0
C231 C 0.22206 0.08123 0.26931 0.0
H232 H 0.07847 0.62554 0.55109 0.0
H233 H 0.20116 0.57546 0.53252 0.0
H234 H 0.22036 0.64445 0.51893 0.0
H235 H 0.20393 0.72052 0.514 0.0
H236 H 0.07963 0.76917 0.5312 0.0
H237 H 0.05948 0.69946 0.54347 0.0
C238 C 0.10924 0.62969 0.54392 0.0
C239 C 0.13842 0.59559 0.54295 0.0
C240 C 0.11993 0.66932 0.53593 0.0
C241 C 0.17802 0.60122 0.53343 0.0
C242 C 0.18916 0.64074 0.52572 0.0
C243 C 0.17235 0.71569 0.52029 0.0
C244 C 0.14352 0.75005 0.52181 0.0
C245 C 0.16063 0.67523 0.52715 0.0
C246 C 0.10249 0.74325 0.52983 0.0
C247 C 0.09092 0.7034 0.53693 0.0
H248 H 0.5407 0.6055 0.78517 0.0
H249 H 0.49823 0.71428 0.81935 0.0
H250 H 0.43207 0.71747 0.79995 0.0
H251 H 0.38174 0.68212 0.77686 0.0
H252 H 0.42347 0.57039 0.74453 0.0
H253 H 0.49447 0.57579 0.75953 0.0
C254 C 0.51735 0.63043 0.78819 0.0
C255 C 0.52407 0.65909 0.80394 0.0
C256 C 0.4789 0.63117 0.77745 0.0
C257 C 0.49379 0.6916 0.80741 0.0
C258 C 0.45576 0.69325 0.7964 0.0
C259 C 0.40669 0.65955 0.77278 0.0
C260 C 0.39714 0.62553 0.75981 0.0
C261 C 0.44723 0.6621 0.78192 0.0
C262 C 0.4298 0.59651 0.75468 0.0
C263 C 0.47043 0.59955 0.76326 0.0
H264 H 0.58162 -0.00362 0.03346 0.0
H265 H 0.48943 0.97869 0.07966 0.0
H266 H 0.47558 0.90589 0.06805 0.0
H267 H 0.49301 0.8456 0.04609 0.0
H268 H 0.59085 0.86039 0.00209 0.0
H269 H 0.59913 0.93563 0.01136 0.0
C270 C 0.55812 0.97666 0.04076 0.0
C271 C 0.53634 0.99286 0.05729 0.0
C272 C 0.55158 0.93414 0.03446 0.0
C273 C 0.50656 0.96683 0.0669 0.0
C274 C 0.49866 0.92521 0.06028 0.0
C275 C 0.51575 0.86547 0.03838 0.0
C276 C 0.54111 0.84752 0.02336 0.0
C277 C 0.52145 0.90827 0.04427 0.0
C278 C 0.57099 0.87346 0.01373 0.0
C279 C 0.57574 0.91649 0.01902 0.0
H280 H 0.20707 0.67131 0.9786 0.0
H281 H 0.24711 0.5407 0.96965 0.0
H282 H 0.31481 0.55578 0.98665 0.0
H283 H 0.3652 0.60761 0.00118 0.0
H284 H 0.32667 0.7391 0.00823 0.0
H285 H 0.25548 0.72194 -0.0049 0.0
C286 C 0.23035 0.64596 0.98055 0.0
C287 C 0.22216 0.60502 0.97269 0.0
C288 C 0.26952 0.65506 -0.01004 0.0
C289 C 0.25271 0.57257 0.97541 0.0
C290 C 0.29144 0.58118 0.98513 0.0
C291 C 0.34096 0.63236 0.00019 0.0
C292 C 0.35123 0.67461 0.00562 0.0
C293 C 0.30057 0.62253 -0.00794 0.0
C294 C 0.31959 0.70637 0.00411 0.0
C295 C 0.27895 0.69661 -0.00348 0.0
H296 H 0.49325 0.75538 0.23012 0.0
H297 H 0.62993 0.77839 0.22786 0.0
H298 H 0.61863 0.85191 0.23907 0.0
H299 H 0.56944 0.91092 0.2477 0.0
H300 H 0.43272 0.88728 0.2494 0.0
H301 H 0.4447 0.81289 0.24031 0.0
C302 C 0.52068 0.77631 0.2322 0.0
C303 C 0.56236 0.76132 0.22802 0.0
C304 C 0.51394 0.81863 0.23848 0.0
C305 C 0.59746 0.789 0.23091 0.0
C306 C 0.59102 0.83114 0.23729 0.0
C307 C 0.54228 0.88945 0.24625 0.0
C308 C 0.5002 0.90497 0.24914 0.0
C309 C 0.54932 0.84651 0.24084 0.0
C310 C 0.46545 0.87648 0.2472 0.0
C311 C 0.47224 0.83382 0.24197 0.0
H312 H 0.41632 0.06081 0.48344 0.0
H313 H 0.41397 0.99218 0.42821 0.0
H314 H 0.35497 0.94775 0.43997 0.0
H315 H 0.29945 0.93297 0.46504 0.0
H316 H 0.29943 0.00638 0.51889 0.0
H317 H 0.36428 0.04388 0.50876 0.0
C318 C 0.4033 0.03585 0.474 0.0
C319 C 0.4194 0.03007 0.45492 0.0
C320 C 0.36885 0.01121 0.48067 0.0
C321 C 0.40204 -0.0025 0.44293 0.0
C322 C 0.36826 0.97208 0.44965 0.0
C323 C 0.31438 0.95651 0.47465 0.0
C324 C 0.29513 0.96685 0.49271 0.0
C325 C 0.3508 0.97921 0.46836 0.0
C326 C 0.31398 -0.00205 0.50495 0.0
C327 C 0.35088 0.01949 0.49914 0.0
H328 H 0.15329 0.91305 0.71973 0.0
H329 H 0.02914 0.85273 0.71375 0.0
H330 H 0.06056 0.7844 0.72306 0.0
H331 H 0.12409 0.74118 0.73136 0.0
H332 H 0.24837 0.80176 0.73608 0.0
H333 H 0.21599 0.87062 0.72882 0.0
C334 C 0.13293 0.88509 0.72062 0.0
C335 C 0.08891 0.88805 0.71601 0.0
C336 C 0.1513 0.84586 0.72565 0.0
C337 C 0.06313 0.85137 0.71718 0.0
C338 C 0.0811 0.81225 0.72247 0.0
C339 C 0.14403 0.7695 0.73092 0.0
C340 C 0.18862 0.76628 0.73421 0.0
C341 C 0.12527 0.80902 0.72649 0.0
C342 C 0.21402 0.80328 0.73354 0.0
C343 C 0.19553 0.8427 0.72939 0.0
H344 H 0.73148 0.55617 0.7856 0.0
H345 H 0.68903 0.45961 0.82564 0.0
H346 H 0.7485 0.41346 0.81542 0.0
H347 H 0.81622 0.40325 0.79717 0.0
H348 H 0.85987 0.50196 0.75854 0.0
H349 H 0.79608 0.5443 0.76602 0.0
C350 C 0.73488 0.52486 0.79198 0.0
C351 C 0.70598 0.51156 0.80648 0.0
C352 C 0.76955 0.49889 0.78633 0.0
C353 C 0.7109 0.47077 0.81451 0.0
C354 C 0.74497 0.44437 0.8087 0.0
C355 C 0.81137 0.43372 0.79016 0.0
C356 C 0.84282 0.44953 0.77739 0.0
C357 C 0.77502 0.45847 0.79491 0.0
C358 C 0.83627 0.48919 0.76852 0.0
C359 C 0.79982 0.51347 0.77281 0.0
H360 H 0.68254 0.22523 0.02999 0.0
H361 H 0.55092 0.26235 0.04044 0.0
H362 H 0.57012 0.33722 0.03589 0.0
H363 H 0.62554 0.39267 0.03123 0.0
H364 H 0.75756 0.35464 0.02247 0.0
H365 H 0.73693 0.27983 0.02412 0.0
C366 C 0.65782 0.24954 0.03097 0.0
C367 C 0.61529 0.23803 0.03553 0.0
C368 C 0.66931 0.29258 0.02888 0.0
C369 C 0.58389 0.27021 0.03693 0.0
C370 C 0.5949 0.3131 0.03442 0.0
C371 C 0.64972 0.36799 0.02955 0.0
C372 C 0.6931 0.37939 0.02683 0.0
C373 C 0.63771 0.32477 0.03078 0.0
C374 C 0.724 0.34692 0.02471 0.0
C375 C 0.71223 0.30403 0.02561 0.0
H376 H 0.94034 0.15992 0.30675 0.0
H377 H 0.92497 0.02681 0.29129 0.0
H378 H 0.86439 0.04432 0.2701 0.0
H379 H 0.81288 0.09642 0.25781 0.0
H380 H 0.82665 0.22943 0.27379 0.0
H381 H 0.89116 0.21289 0.29275 0.0
C382 C 0.92398 0.13475 0.29863 0.0
C383 C 0.93698 0.09206 0.30076 0.0
C384 C 0.88884 0.14497 0.2866 0.0
C385 C 0.91552 0.0599 0.29003 0.0
C386 C 0.88083 0.06987 0.27791 0.0
C387 C 0.83013 0.12196 0.26527 0.0
C388 C 0.81462 0.16409 0.26448 0.0
C389 C 0.86676 0.11217 0.27636 0.0
C390 C 0.83769 0.1967 0.27417 0.0
C391 C 0.87454 0.18725 0.28508 0.0
H392 H 0.01549 0.4072 0.55323 0.0
H393 H 0.13 0.3293 0.55296 0.0
H394 H 0.0881 0.26819 0.54123 0.0
H395 H 0.01837 0.23581 0.5331 0.0
H396 H 0.90358 0.31319 0.53418 0.0
H397 H 0.94635 0.3757 0.54346 0.0
C398 C 0.03145 0.37698 0.55046 0.0
C399 C 0.07588 0.37286 0.55411 0.0
C400 C 0.00707 0.34183 0.54395 0.0
C401 C 0.0959 0.33342 0.55035 0.0
C402 C 0.07192 0.2984 0.54368 0.0
C403 C 0.00269 0.26641 0.5352 0.0
C404 C 0.95776 0.26974 0.53305 0.0
C405 C 0.02739 0.30208 0.54075 0.0
C406 C 0.93805 0.30969 0.53578 0.0
C407 C 0.96249 0.34543 0.54113 0.0
H408 H 0.6027 0.09563 0.47013 0.0
H409 H 0.62949 0.22216 0.44938 0.0
H410 H 0.69577 0.22435 0.46875 0.0
H411 H 0.74888 0.18793 0.48973 0.0
H412 H 0.72064 0.06131 0.51026 0.0
H413 H 0.65224 0.0619 0.493 0.0
C414 C 0.62287 0.12382 0.46992 0.0
C415 C 0.61138 0.15844 0.45815 0.0
C416 C 0.66088 0.12486 0.48104 0.0
C417 C 0.63763 0.19496 0.45827 0.0
C418 C 0.67563 0.19621 0.46931 0.0
C419 C 0.72751 0.16072 0.49064 0.0
C420 C 0.74032 0.12447 0.50112 0.0
C421 C 0.68799 0.16102 0.4805 0.0
C422 C 0.71202 0.08954 0.50216 0.0
C423 C 0.67278 0.08974 0.49226 0.0
H424 H 0.97689 0.11066 0.72147 0.0
H425 H 0.11548 0.10822 0.72517 0.0
H426 H 0.11502 0.17579 0.74321 0.0
H427 H 0.0761 0.23743 0.75604 0.0
H428 H 0.93775 0.24268 0.75124 0.0
H429 H 0.93731 0.17185 0.73574 0.0
C430 C 0.00694 0.12474 0.7264 0.0
C431 C 0.04619 0.1045 0.72188 0.0
C432 C 0.00652 0.16411 0.73652 0.0
C433 C 0.08485 0.12323 0.72831 0.0
C434 C 0.08463 0.16188 0.73866 0.0
C435 C 0.04569 0.22305 0.75182 0.0
C436 C 0.00702 0.24556 0.75476 0.0
C437 C 0.04575 0.18289 0.74256 0.0
C438 C 0.96803 0.2262 0.74914 0.0
C439 C 0.96776 0.18573 0.74021 0.0
H440 H 0.01783 0.5087 0.98597 0.0
H441 H 0.00622 0.63268 0.95983 0.0
H442 H 0.93656 0.64309 0.97579 0.0
H443 H 0.87736 0.6152 -0.00425 0.0
H444 H 0.88713 0.48896 0.01972 0.0
H445 H 0.95936 0.48127 0.00614 0.0
C446 C 0.00028 0.5382 0.98391 0.0
C447 C 0.01716 0.56992 0.97177 0.0
C448 C 0.95991 0.54347 -0.00729 0.0
C449 C -0.00619 0.60774 0.96907 0.0
C450 C 0.95403 0.6137 0.97819 0.0
C451 C 0.89557 0.58625 -0.00179 0.0
C452 C 0.87706 0.55275 0.00878 0.0
C453 C 0.93654 0.58156 -0.01014 0.0
C454 C 0.9007 0.51515 0.0116 0.0
C455 C 0.94195 0.51073 0.00383 0.0
H456 H 0.66459 0.52433 0.22613 0.0
H457 H 0.52887 0.49634 0.22264 0.0
H458 H 0.54306 0.42218 0.2309 0.0
H459 H 0.59428 0.36415 0.23692 0.0
H460 H 0.73015 0.39159 0.23955 0.0
H461 H 0.71554 0.467 0.23393 0.0
C462 C 0.63802 0.50217 0.22742 0.0
C463 C 0.5957 0.51598 0.22368 0.0
C464 C 0.64645 0.45931 0.23189 0.0
C465 C 0.56176 0.48667 0.22536 0.0
C466 C 0.56985 0.44416 0.23005 0.0
C467 C 0.62071 0.38666 0.23644 0.0
C468 C 0.66329 0.37211 0.23855 0.0
C469 C 0.61212 0.42994 0.23299 0.0
C470 C 0.69708 0.40181 0.23791 0.0
C471 C 0.68876 0.44498 0.23467 0.0
H472 H 0.1109 0.89956 0.37835 0.0
H473 H 0.98959 0.96317 0.38776 0.0
H474 H -0.00039 0.95928 0.42313 0.0
H475 H 0.04771 0.94614 0.45134 0.0
H476 H 0.16707 0.879 0.44182 0.0
H477 H 0.15285 0.87564 0.40667 0.0
C478 C 0.08614 0.91154 0.38815 0.0
C479 C 0.05011 0.9325 0.3804 0.0
C480 C 0.09208 0.90914 0.40851 0.0
C481 C 0.01795 0.94731 0.39329 0.0
C482 C 0.02378 0.94538 0.41357 0.0
C483 C 0.07025 0.93035 0.44156 0.0
C484 C 0.10868 0.91351 0.44909 0.0
C485 C 0.06156 0.92787 0.42133 0.0
C486 C 0.13732 0.89239 0.43635 0.0
C487 C 0.12928 0.89051 0.41623 0.0
H488 H 0.18125 0.48761 0.63381 0.0
H489 H 0.2595 0.58063 0.60462 0.0
H490 H 0.28475 0.60822 0.63631 0.0
H491 H 0.2768 0.61216 0.67213 0.0
H492 H 0.19463 0.52197 0.7011 0.0
H493 H 0.17866 0.48718 0.66973 0.0
C494 C 0.20483 0.51303 0.63436 0.0
C495 C 0.2185 0.53205 0.61688 0.0
C496 C 0.21769 0.52996 0.65262 0.0
C497 C 0.24858 0.56543 0.61788 0.0
C498 C 0.26269 0.58148 0.63599 0.0
C499 C 0.25574 0.58461 0.6716 0.0
C500 C 0.23651 0.57006 0.68892 0.0
C501 C 0.24614 0.56509 0.65345 0.0
C502 C 0.20953 0.53414 0.68799 0.0
C503 C 0.2004 0.51413 0.67004 0.0
H504 H 0.5756 0.57001 0.90109 0.0
H505 H 0.46169 0.62868 0.87711 0.0
H506 H 0.4474 0.66344 0.90862 0.0
H507 H 0.47 0.68138 0.94228 0.0
H508 H 0.58311 0.62196 0.96644 0.0
H509 H 0.59491 0.5834 0.93554 0.0
C510 C 0.5471 0.58963 0.90283 0.0
C511 C 0.51985 0.59681 0.88667 0.0
C512 C 0.53943 0.61018 0.92092 0.0
C513 C 0.48325 0.6226 0.88926 0.0
C514 C 0.47522 0.64282 0.90724 0.0
C515 C 0.49739 0.66021 0.94072 0.0
C516 C 0.52597 0.65501 0.95651 0.0
C517 C 0.50371 0.63774 0.92301 0.0
C518 C 0.56083 0.62677 0.95444 0.0
C519 C 0.56759 0.60469 0.93679 0.0
H520 H 0.43917 0.08193 0.12492 0.0
H521 H 0.54676 0.16862 0.12962 0.0
H522 H 0.5452 0.16368 0.16512 0.0
H523 H 0.51851 0.12922 0.19469 0.0
H524 H 0.41015 0.04374 0.19061 0.0
H525 H 0.40683 0.05386 0.15514 0.0
C526 C 0.4618 0.10031 0.13371 0.0
C527 C 0.49331 0.12519 0.12447 0.0
C528 C 0.46106 0.09712 0.15429 0.0
C529 C 0.52222 0.14899 0.13619 0.0
C530 C 0.52158 0.14603 0.15657 0.0
C531 C 0.49388 0.11311 0.18607 0.0
C532 C 0.46499 0.08534 0.19525 0.0
C533 C 0.49201 0.11925 0.16573 0.0
C534 C 0.43287 0.06522 0.18391 0.0
C535 C 0.43104 0.07088 0.1636 0.0
H536 H 0.18341 0.56396 0.87546 0.0
H537 H 0.08397 0.65493 0.86229 0.0
H538 H 0.10937 0.65865 0.82828 0.0
H539 H 0.15927 0.63421 0.80214 0.0
H540 H 0.25349 0.53761 0.81532 0.0
H541 H 0.23061 0.53764 0.84945 0.0
C542 C 0.16772 0.5851 0.8652 0.0
C543 C 0.13254 0.6099 0.87138 0.0
C544 C 0.18131 0.58562 0.84564 0.0
C545 C 0.1115 0.63603 0.85784 0.0
C546 C 0.12592 0.63798 0.83843 0.0
C547 C 0.17473 0.61326 0.81253 0.0
C548 C 0.20808 0.58602 0.80623 0.0
C549 C 0.16066 0.61266 0.83212 0.0
C550 C 0.22757 0.55867 0.81977 0.0
C551 C 0.21466 0.5588 0.83932 0.0
H552 H 0.5943 0.57691 0.13017 0.0
H553 H 0.4998 0.66558 0.15262 0.0
H554 H 0.48227 0.68709 0.11917 0.0
H555 H 0.49982 0.68626 0.08382 0.0
H556 H 0.5991 0.60191 0.06238 0.0
H557 H 0.60803 0.57237 0.09509 0.0
C558 C 0.56914 0.60025 0.1278 0.0
C559 C 0.54842 0.61967 0.1439 0.0
C560 C 0.56048 0.61358 0.10866 0.0
C561 C 0.51626 0.6502 0.14048 0.0
C562 C 0.50641 0.66267 0.12136 0.0
C563 C 0.52308 0.66115 0.08636 0.0
C564 C 0.54908 0.64648 0.07085 0.0
C565 C 0.52928 0.64554 0.10539 0.0
C566 C 0.5792 0.61404 0.07421 0.0
C567 C 0.58427 0.59715 0.09287 0.0
H568 H 0.46996 0.20855 0.36562 0.0
H569 H 0.43138 0.09773 0.39773 0.0
H570 H 0.43426 0.0542 0.36769 0.0
H571 H 0.44695 0.04804 0.33227 0.0
H572 H 0.48653 0.15876 0.30007 0.0
H573 H 0.48465 0.20187 0.33017 0.0
C574 C 0.46203 0.17489 0.36595 0.0
C575 C 0.45101 0.15606 0.38382 0.0
C576 C 0.46409 0.15012 0.34864 0.0
C577 C 0.44076 0.11254 0.38417 0.0
C578 C 0.44227 0.08777 0.367 0.0
C579 C 0.45543 0.08155 0.33183 0.0
C580 C 0.4666 0.10016 0.31389 0.0
C581 C 0.45403 0.1062 0.34916 0.0
C582 C 0.47761 0.14362 0.31364 0.0
C583 C 0.47631 0.16838 0.33084 0.0
H584 H 0.14572 0.92155 0.64 0.0
H585 H 0.05363 0.01942 0.62601 0.0
H586 H 0.07256 0.01346 0.59133 0.0
H587 H 0.11103 0.97574 0.56461 0.0
H588 H 0.20559 0.88045 0.57907 0.0
H589 H 0.19005 0.89007 0.61387 0.0
C590 C 0.13038 0.94206 0.62937 0.0
C591 C 0.09827 0.97068 0.63549 0.0
C592 C 0.1415 0.93855 0.60951 0.0
C593 C 0.07874 -0.00266 0.62166 0.0
C594 C 0.08925 -0.00633 0.6018 0.0
C595 C 0.12836 0.95738 0.57543 0.0
C596 C 0.15896 0.92708 0.56932 0.0
C597 C 0.11984 0.96363 0.59549 0.0
C598 C 0.18178 0.90392 0.58344 0.0
C599 C 0.17289 0.90932 0.60334 0.0
H600 H 0.68658 0.53533 0.89576 0.0
H601 H 0.67695 0.67221 0.89252 0.0
H602 H 0.68161 0.67759 0.92848 0.0
H603 H 0.69023 0.64255 0.96071 0.0
H604 H 0.69521 0.50491 0.96266 0.0
H605 H 0.68963 0.5008 0.9272 0.0
C606 C 0.68607 0.56653 0.90281 0.0
C607 C 0.68263 0.60345 0.89146 0.0
C608 C 0.6874 0.56915 0.92327 0.0
C609 C 0.6804 0.6434 0.90096 0.0
C610 C 0.68283 0.6464 0.92148 0.0
C611 C 0.68966 0.61167 0.95339 0.0
C612 C 0.69366 0.57411 0.96442 0.0
C613 C 0.68648 0.60939 0.9328 0.0
C614 C 0.69244 0.53437 0.95465 0.0
C615 C 0.68951 0.53193 0.93431 0.0
H616 H 0.62642 0.11529 0.12214 0.0
H617 H 0.71719 0.20686 0.10033 0.0
H618 H 0.73853 0.22566 0.13393 0.0
H619 H 0.72426 0.2226 0.1693 0.0
H620 H 0.6278 0.13604 0.19066 0.0
H621 H 0.61566 0.10874 0.15745 0.0
C622 C 0.65194 0.13829 0.12474 0.0
C623 C 0.67073 0.15932 0.10886 0.0
C624 C 0.66217 0.15056 0.14402 0.0
C625 C 0.70275 0.19 0.1124 0.0
C626 C 0.71457 0.20103 0.13158 0.0
C627 C 0.70094 0.19744 0.16669 0.0
C628 C 0.67674 0.18161 0.18236 0.0
C629 C 0.69333 0.18265 0.14749 0.0
C630 C 0.64657 0.14905 0.1788 0.0
C631 C 0.63969 0.13332 0.15983 0.0
H632 H 0.00248 0.10397 0.40183 0.0
H633 H 0.90788 0.00634 0.38952 0.0
H634 H 0.88628 0.00664 0.42364 0.0
H635 H 0.89323 0.03449 0.457 0.0
H636 H 0.98213 0.13659 0.46963 0.0
H637 H 0.00722 0.1345 0.43555 0.0
C638 C 0.97697 0.08305 0.40664 0.0
C639 C 0.95687 0.05528 0.39307 0.0
C640 C 0.96391 0.08385 0.4264 0.0
C641 C 0.92375 0.02838 0.39953 0.0
C642 C 0.91147 0.02824 0.41912 0.0
C643 C 0.91847 0.05593 0.45233 0.0
C644 C 0.9363 0.08518 0.46579 0.0
C645 C 0.93135 0.0557 0.43267 0.0
C646 C 0.96818 0.11357 0.45949 0.0
C647 C 0.98239 0.11247 0.44002 0.0
H648 H 0.01949 0.48433 0.64538 0.0
H649 H 0.14114 0.41816 0.64292 0.0
H650 H 0.13691 0.40294 0.6776 0.0
H651 H 0.09828 0.40553 0.70829 0.0
H652 H 0.97359 0.46525 0.71153 0.0
H653 H 0.97926 0.48586 0.67702 0.0
C654 C 0.045 0.46682 0.65256 0.0
C655 C 0.08053 0.45239 0.6416 0.0
C656 C 0.04181 0.45687 0.67262 0.0
C657 C 0.11326 0.42933 0.65097 0.0
C658 C 0.11098 0.42063 0.67084 0.0
C659 C 0.07243 0.42343 0.70155 0.0
C660 C 0.03575 0.4341 0.71248 0.0
C661 C 0.07534 0.43389 0.68174 0.0
C662 C 0.00224 0.45666 0.7034 0.0
C663 C 0.00548 0.46843 0.68368 0.0
H664 H 0.57791 0.19892 0.36376 0.0
H665 H 0.55715 0.06319 0.35857 0.0
H666 H 0.57725 0.06511 0.32394 0.0
H667 H 0.60289 0.10523 0.29553 0.0
H668 H 0.62254 0.24124 0.3011 0.0
H669 H 0.59984 0.23928 0.33521 0.0
C670 C 0.57814 0.16962 0.35514 0.0
C671 C 0.56679 0.13084 0.36382 0.0
C672 C 0.58917 0.17106 0.33529 0.0
C673 C 0.56637 0.09336 0.3523 0.0
C674 C 0.57766 0.09448 0.33249 0.0
C675 C 0.6019 0.13453 0.30414 0.0
C676 C 0.61485 0.17327 0.29577 0.0
C677 C 0.58935 0.13315 0.32386 0.0
C678 C 0.61303 0.21093 0.30715 0.0
C679 C 0.60025 0.20985 0.3267 0.0
H680 H 0.89208 0.08655 0.65294 0.0
H681 H 0.94515 0.96665 0.63279 0.0
H682 H 0.92849 0.98492 0.59896 0.0
H683 H 0.90683 0.03875 0.57484 0.0
H684 H 0.853 0.15816 0.59515 0.0
H685 H 0.86202 0.13631 0.6291 0.0
C686 C 0.89914 0.06401 0.64118 0.0
C687 C 0.92022 0.02555 0.64539 0.0
C688 C 0.89004 0.07496 0.62172 0.0
C689 C 0.92883 -0.00351 0.63001 0.0
C690 C 0.91973 0.0071 0.6106 0.0
C691 C 0.89677 0.05978 0.58672 0.0
C692 C 0.87996 0.10027 0.58251 0.0
C693 C 0.90172 0.04688 0.60625 0.0
C694 C 0.86632 0.12693 0.598 0.0
C695 C 0.87147 0.11449 0.61743 0.0
H696 H 0.11479 0.47969 0.88089 0.0
H697 H 0.00579 0.43047 0.91231 0.0
H698 H 0.97828 0.39741 0.88206 0.0
H699 H 0.98137 0.38939 0.84611 0.0
H700 H 0.08756 0.44436 0.81468 0.0
H701 H 0.11998 0.4684 0.8455 0.0
C702 C 0.08557 0.4608 0.88125 0.0
C703 C 0.06243 0.45729 0.89883 0.0
C704 C 0.06908 0.4436 0.86371 0.0
C705 C 0.02419 0.43346 0.89895 0.0
C706 C 0.00836 0.41483 0.88165 0.0
C707 C 0.01188 0.40615 0.84606 0.0
C708 C 0.0319 0.41532 0.82815 0.0
C709 C 0.02986 0.42078 0.86384 0.0
C710 C 0.07132 0.43723 0.82827 0.0
C711 C 0.08994 0.45089 0.84589 0.0
H712 H 0.67007 0.65197 0.14082 0.0
H713 H 0.74885 0.55397 0.16651 0.0
H714 H 0.76935 0.52853 0.13387 0.0
H715 H 0.75929 0.52967 0.09822 0.0
H716 H 0.67903 0.62634 0.07249 0.0
H717 H 0.66481 0.65681 0.105 0.0
C718 C 0.69254 0.62568 0.13932 0.0
C719 C 0.70788 0.60486 0.15612 0.0
C720 C 0.70335 0.61053 0.1205 0.0
C721 C 0.73655 0.57053 0.15384 0.0
C722 C 0.7481 0.5558 0.13517 0.0
C723 C 0.73896 0.55763 0.09969 0.0
C724 C 0.71968 0.57529 0.08298 0.0
C725 C 0.73072 0.57478 0.11842 0.0
C726 C 0.69377 0.61175 0.08514 0.0
C727 C 0.68577 0.6293 0.10373 0.0
loop_
_geom_bond_atom_site_label_1
_geom_bond_atom_site_label_2
_geom_bond_distance
_geom_bond_site_symmetry_2
_ccdc_geom_bond_type
Mg0 O7 2.141 . S
Mg0 O8 2.048 1_545 S
Mg0 O9 2.048 1_455 S
Mg0 O12 2.141 1_455 S
C1 O2 1.313 . S
C1 O8 1.195 . S
O2 C1 1.313 . S
C3 O4 1.245 . S
C3 O12 1.289 . S
O4 C3 1.245 . S
C5 O6 1.245 . S
C5 O7 1.289 1_565 S
O6 C5 1.245 . S
O7 Mg0 2.141 . S
O7 C5 1.289 1_545 S
O8 Mg0 2.048 1_565 S
O8 C1 1.195 . S
O9 Mg0 2.048 1_655 S
O9 C10 1.195 . S
C10 O9 1.195 . S
C10 O11 1.313 1_545 S
O11 C10 1.313 1_565 S
O12 Mg0 2.141 1_655 S
O12 C3 1.289 . S
Mg13 O20 2.141 . S
Mg13 O21 2.048 . S
Mg13 O22 2.048 . S
Mg13 O25 2.141 . S
C14 O15 1.313 . S
C14 O21 1.195 . S
O15 C14 1.313 . S
C16 O17 1.245 . S
C16 O25 1.289 . S
O17 C16 1.245 . S
C18 O19 1.245 . S
C18 O20 1.289 . S
O19 C18 1.245 . S
O20 Mg13 2.141 . S
O20 C18 1.289 . S
O21 Mg13 2.048 . S
O21 C14 1.195 . S
O22 Mg13 2.048 . S
O22 C23 1.195 . S
C23 O22 1.195 . S
C23 O24 1.313 . S
O24 C23 1.313 . S
O25 Mg13 2.141 . S
O25 C16 1.289 . S
Mg26 O33 2.141 . S
Mg26 O34 2.048 . S
Mg26 O35 2.048 . S
Mg26 O38 2.141 . S
C27 O28 1.313 . S
C27 O34 1.195 . S
O28 C27 1.313 . S
C29 O30 1.245 . S
C29 O38 1.289 . S
O30 C29 1.245 . S
C31 O32 1.245 . S
C31 O33 1.289 . S
O32 C31 1.245 . S
O33 Mg26 2.141 . S
O33 C31 1.289 . S
O34 Mg26 2.048 . S
O34 C27 1.195 . S
O35 Mg26 2.048 . S
O35 C36 1.195 . S
C36 O35 1.195 . S
C36 O37 1.313 . S
O37 C36 1.313 . S
O38 Mg26 2.141 . S
O38 C29 1.289 . S
Mg39 O46 2.141 . S
Mg39 O47 2.048 . S
Mg39 O48 2.048 . S
Mg39 O51 2.141 . S
C40 O41 1.313 . S
C40 O47 1.195 . S
O41 C40 1.313 . S
C42 O43 1.245 . S
C42 O51 1.289 . S
O43 C42 1.245 . S
C44 O45 1.245 . S
C44 O46 1.289 . S
O45 C44 1.245 . S
O46 Mg39 2.141 . S
O46 C44 1.289 . S
O47 Mg39 2.048 . S
O47 C40 1.195 . S
O48 Mg39 2.048 . S
O48 C49 1.195 . S
C49 O48 1.195 . S
C49 O50 1.313 . S
O50 C49 1.313 . S
O51 Mg39 2.141 . S
O51 C42 1.289 . S
Mg52 O59 2.141 . S
Mg52 O60 2.048 . S
Mg52 O61 2.048 . S
Mg52 O64 2.141 . S
C53 O54 1.313 . S
C53 O60 1.195 . S
O54 C53 1.313 . S
C55 O56 1.245 . S
C55 O64 1.289 . S
O56 C55 1.245 . S
C57 O58 1.245 . S
C57 O59 1.289 . S
O58 C57 1.245 . S
O59 Mg52 2.141 . S
O59 C57 1.289 . S
O60 Mg52 2.048 . S
O60 C53 1.195 . S
O61 Mg52 2.048 . S
O61 C62 1.195 . S
C62 O61 1.195 . S
C62 O63 1.313 . S
O63 C62 1.313 . S
O64 Mg52 2.141 . S
O64 C55 1.289 . S
Mg65 O72 2.141 . S
Mg65 O73 2.048 . S
Mg65 O74 2.048 . S
Mg65 O77 2.141 . S
C66 O67 1.313 . S
C66 O73 1.195 . S
O67 C66 1.313 . S
C68 O69 1.245 . S
C68 O77 1.289 . S
O69 C68 1.245 . S
C70 O71 1.245 . S
C70 O72 1.289 . S
O71 C70 1.245 . S
O72 Mg65 2.141 . S
O72 C70 1.289 . S
O73 Mg65 2.048 . S
O73 C66 1.195 . S
O74 Mg65 2.048 . S
O74 C75 1.195 . S
C75 O74 1.195 . S
C75 O76 1.313 . S
O76 C75 1.313 . S
O77 Mg65 2.141 . S
O77 C68 1.289 . S
Mg78 O85 2.141 . S
Mg78 O86 2.048 . S
Mg78 O87 2.048 . S
Mg78 O90 2.141 . S
C79 O80 1.313 . S
C79 O86 1.195 . S
O80 C79 1.313 . S
C81 O82 1.245 . S
C81 O90 1.289 . S
O82 C81 1.245 . S
C83 O84 1.245 . S
C83 O85 1.289 . S
O84 C83 1.245 . S
O85 Mg78 2.141 . S
O85 C83 1.289 . S
O86 Mg78 2.048 . S
O86 C79 1.195 . S
O87 Mg78 2.048 . S
O87 C88 1.195 . S
C88 O87 1.195 . S
C88 O89 1.313 . S
O89 C88 1.313 . S
O90 Mg78 2.141 . S
O90 C81 1.289 . S
Mg91 O98 2.149 . S
Mg91 O99 2.053 . S
Mg91 O100 2.039 1_465 S
Mg91 O103 2.136 1_465 S
C92 O93 1.313 . S
C92 O99 1.195 . S
O93 C92 1.313 . S
C94 O95 1.245 1_655 S
C94 O103 1.289 . S
O95 C94 1.245 1_455 S
C96 O97 1.245 . S
C96 O98 1.289 . S
O97 C96 1.245 . S
O98 Mg91 2.149 . S
O98 C96 1.289 . S
O99 Mg91 2.053 . S
O99 C92 1.195 . S
O100 Mg91 2.039 1_645 S
O100 C101 1.195 . S
C101 O100 1.195 . S
C101 O102 1.313 1_655 S
O102 C101 1.313 1_455 S
O103 Mg91 2.136 1_645 S
O103 C94 1.289 . S
C104 O105 1.306 . S
C104 O107 1.160 . S
O105 C104 1.306 . S
O105 Cd106 2.228 . S
Cd106 O105 2.228 . S
Cd106 O110 2.273 1_554 S
Cd106 O114 2.277 . S
O107 C104 1.160 . S
O107 Cd108 2.203 . S
Cd108 O107 2.203 . S
Cd108 O110 2.411 1_554 S
Cd108 O111 2.333 1_554 S
Cd108 O112 2.352 . S
Cd108 O116 2.277 . S
Cd108 O117 2.356 . S
C109 O114 1.209 . S
C109 O116 1.226 . S
O110 Cd106 2.273 1_556 S
O110 Cd108 2.411 1_556 S
O110 C113 1.320 . S
O111 Cd108 2.333 1_556 S
O111 C113 1.214 . S
O112 Cd108 2.352 . S
O112 C115 1.258 . S
C113 O110 1.320 . S
C113 O111 1.214 . S
O114 Cd106 2.277 . S
O114 C109 1.209 . S
C115 O112 1.258 . S
C115 O117 1.282 . S
O116 Cd108 2.277 . S
O116 C109 1.226 . S
O117 Cd108 2.356 . S
O117 C115 1.282 . S
C118 O119 1.306 . S
C118 O121 1.160 . S
O119 C118 1.306 . S
O119 Cd120 2.228 . S
Cd120 O119 2.228 . S
Cd120 O124 2.273 . S
Cd120 O128 2.277 . S
O121 C118 1.160 . S
O121 Cd122 2.203 . S
Cd122 O121 2.203 . S
Cd122 O124 2.411 . S
Cd122 O125 2.333 . S
Cd122 O126 2.352 . S
Cd122 O130 2.277 . S
Cd122 O131 2.356 . S
C123 O128 1.209 . S
C123 O130 1.226 . S
O124 Cd120 2.273 . S
O124 Cd122 2.411 . S
O124 C127 1.320 . S
O125 Cd122 2.333 . S
O125 C127 1.214 . S
O126 Cd122 2.352 . S
O126 C129 1.258 . S
C127 O124 1.320 . S
C127 O125 1.214 . S
O128 Cd120 2.277 . S
O128 C123 1.209 . S
C129 O126 1.258 . S
C129 O131 1.282 . S
O130 Cd122 2.277 . S
O130 C123 1.226 . S
O131 Cd122 2.356 . S
O131 C129 1.282 . S
C132 O133 1.306 . S
C132 O135 1.160 . S
O133 C132 1.306 . S
O133 Cd134 2.228 . S
Cd134 O133 2.228 . S
Cd134 O138 2.273 . S
Cd134 O142 2.277 . S
O135 C132 1.160 . S
O135 Cd136 2.203 . S
Cd136 O135 2.203 . S
Cd136 O138 2.411 . S
Cd136 O139 2.333 . S
Cd136 O140 2.352 . S
Cd136 O144 2.277 . S
Cd136 O145 2.356 . S
C137 O142 1.209 . S
C137 O144 1.226 . S
O138 Cd134 2.273 . S
O138 Cd136 2.411 . S
O138 C141 1.320 . S
O139 Cd136 2.333 . S
O139 C141 1.214 . S
O140 Cd136 2.352 . S
O140 C143 1.258 . S
C141 O138 1.320 . S
C141 O139 1.214 . S
O142 Cd134 2.277 . S
O142 C137 1.209 . S
C143 O140 1.258 . S
C143 O145 1.282 . S
O144 Cd136 2.277 . S
O144 C137 1.226 . S
O145 Cd136 2.356 . S
O145 C143 1.282 . S
C146 O147 1.306 . S
C146 O149 1.160 . S
O147 C146 1.306 . S
O147 Cd148 2.228 . S
Cd148 O147 2.228 . S
Cd148 O152 2.273 . S
Cd148 O156 2.277 . S
O149 C146 1.160 . S
O149 Cd150 2.203 . S
Cd150 O149 2.203 . S
Cd150 O152 2.411 . S
Cd150 O153 2.333 . S
Cd150 O154 2.352 . S
Cd150 O158 2.277 . S
Cd150 O159 2.356 . S
C151 O156 1.209 . S
C151 O158 1.226 . S
O152 Cd148 2.273 . S
O152 Cd150 2.411 . S
O152 C155 1.320 . S
O153 Cd150 2.333 . S
O153 C155 1.214 . S
O154 Cd150 2.352 . S
O154 C157 1.258 . S
C155 O152 1.320 . S
C155 O153 1.214 . S
O156 Cd148 2.277 . S
O156 C151 1.209 . S
C157 O154 1.258 . S
C157 O159 1.282 . S
O158 Cd150 2.277 . S
O158 C151 1.226 . S
O159 Cd150 2.356 . S
O159 C157 1.282 . S
C160 O161 1.306 . S
C160 O163 1.160 . S
O161 C160 1.306 . S
O161 Cd162 2.228 . S
Cd162 O161 2.228 . S
Cd162 O166 2.273 . S
Cd162 O170 2.277 . S
O163 C160 1.160 . S
O163 Cd164 2.203 . S
Cd164 O163 2.203 . S
Cd164 O166 2.411 . S
Cd164 O167 2.333 . S
Cd164 O168 2.352 . S
Cd164 O172 2.277 . S
Cd164 O173 2.356 . S
C165 O170 1.209 . S
C165 O172 1.226 . S
O166 Cd162 2.273 . S
O166 Cd164 2.411 . S
O166 C169 1.320 . S
O167 Cd164 2.333 . S
O167 C169 1.214 . S
O168 Cd164 2.352 . S
O168 C171 1.258 . S
C169 O166 1.320 . S
C169 O167 1.214 . S
O170 Cd162 2.277 . S
O170 C165 1.209 . S
C171 O168 1.258 . S
C171 O173 1.282 . S
O172 Cd164 2.277 . S
O172 C165 1.226 . S
O173 Cd164 2.356 . S
O173 C171 1.282 . S
C174 O175 1.306 1_655 S
C174 O177 1.160 . S
O175 C174 1.306 1_455 S
O175 Cd176 2.228 . S
Cd176 O175 2.228 . S
Cd176 O180 2.273 . S
Cd176 O184 2.277 1_455 S
O177 C174 1.160 . S
O177 Cd178 2.203 . S
Cd178 O177 2.203 . S
Cd178 O180 2.411 1_655 S
Cd178 O181 2.333 . S
Cd178 O182 2.352 . S
Cd178 O186 2.277 . S
Cd178 O187 2.356 . S
C179 O184 1.209 . S
C179 O186 1.226 . S
O180 Cd176 2.273 . S
O180 Cd178 2.411 1_455 S
O180 C183 1.320 1_455 S
O181 Cd178 2.333 . S
O181 C183 1.214 . S
O182 Cd178 2.352 . S
O182 C185 1.258 . S
C183 O180 1.320 1_655 S
C183 O181 1.214 . S
O184 Cd176 2.277 1_655 S
O184 C179 1.209 . S
C185 O182 1.258 . S
C185 O187 1.282 . S
O186 Cd178 2.277 . S
O186 C179 1.226 . S
O187 Cd178 2.356 . S
O187 C185 1.282 . S
C188 O189 1.306 1_556 S
C188 O191 1.171 . S
O189 C188 1.306 1_554 S
O189 Cd190 2.228 . S
Cd190 O189 2.228 . S
Cd190 O194 2.273 . S
Cd190 O198 2.277 . S
O191 C188 1.171 . S
O191 Cd192 2.173 1_556 S
Cd192 O191 2.173 1_554 S
Cd192 O194 2.411 . S
Cd192 O195 2.333 . S
Cd192 O196 2.352 . S
Cd192 O200 2.277 . S
Cd192 O201 2.356 . S
C193 O198 1.209 . S
C193 O200 1.226 . S
O194 Cd190 2.273 . S
O194 Cd192 2.411 . S
O194 C197 1.320 . S
O195 Cd192 2.333 . S
O195 C197 1.214 . S
O196 Cd192 2.352 . S
O196 C199 1.258 . S
C197 O194 1.320 . S
C197 O195 1.214 . S
O198 Cd190 2.277 . S
O198 C193 1.209 . S
C199 O196 1.258 . S
C199 O201 1.282 . S
O200 Cd192 2.277 . S
O200 C193 1.226 . S
O201 Cd192 2.356 . S
O201 C199 1.282 . S
C202 O203 1.306 . S
C202 O205 1.160 . S
O203 C202 1.306 . S
O203 Cd204 2.228 . S
Cd204 O203 2.228 . S
Cd204 O208 2.273 . S
Cd204 O212 2.277 . S
O205 C202 1.160 . S
O205 Cd206 2.203 . S
Cd206 O205 2.203 . S
Cd206 O208 2.411 . S
Cd206 O209 2.333 . S
Cd206 O210 2.352 . S
Cd206 O214 2.277 . S
Cd206 O215 2.356 . S
C207 O212 1.209 . S
C207 O214 1.226 . S
O208 Cd204 2.273 . S
O208 Cd206 2.411 . S
O208 C211 1.320 . S
O209 Cd206 2.333 . S
O209 C211 1.214 . S
O210 Cd206 2.352 . S
O210 C213 1.258 . S
C211 O208 1.320 . S
C211 O209 1.214 . S
O212 Cd204 2.277 . S
O212 C207 1.209 . S
C213 O210 1.258 . S
C213 O215 1.282 . S
O214 Cd206 2.277 . S
O214 C207 1.226 . S
O215 Cd206 2.356 . S
O215 C213 1.282 . S
H216 C222 0.930 . S
H217 C225 0.930 . S
H218 C226 0.930 . S
H219 C227 0.930 . S
H220 C230 0.930 . S
H221 C231 0.930 . S
C222 H216 0.930 . S
C222 C223 1.355 . S
C222 C224 1.415 . S
C223 C222 1.355 . S
C223 C225 1.419 . S
C224 C222 1.415 . S
C224 C229 1.425 . S
C224 C231 1.409 . S
C225 H217 0.930 . S
C225 C223 1.419 . S
C225 C226 1.362 . S
C226 H218 0.930 . S
C226 C225 1.362 . S
C226 C229 1.409 . S
C227 H219 0.930 . S
C227 C228 1.355 . S
C227 C229 1.415 . S
C228 C227 1.355 . S
C228 C230 1.419 . S
C229 C224 1.425 . S
C229 C226 1.409 . S
C229 C227 1.415 . S
C230 H220 0.930 . S
C230 C228 1.419 . S
C230 C231 1.362 . S
C231 H221 0.930 . S
C231 C224 1.409 . S
C231 C230 1.362 . S
H232 C238 0.930 . S
H233 C241 0.930 . S
H234 C242 0.930 . S
H235 C243 0.930 . S
H236 C246 0.930 . S
H237 C247 0.930 . S
C238 H232 0.930 . S
C238 C239 1.355 . S
C238 C240 1.415 . S
C239 C238 1.355 . S
C239 C241 1.419 . S
C240 C238 1.415 . S
C240 C245 1.425 . S
C240 C247 1.409 . S
C241 H233 0.930 . S
C241 C239 1.419 . S
C241 C242 1.362 . S
C242 H234 0.930 . S
C242 C241 1.362 . S
C242 C245 1.409 . S
C243 H235 0.930 . S
C243 C244 1.355 . S
C243 C245 1.415 . S
C244 C243 1.355 . S
C244 C246 1.419 . S
C245 C240 1.425 . S
C245 C242 1.409 . S
C245 C243 1.415 . S
C246 H236 0.930 . S
C246 C244 1.419 . S
C246 C247 1.362 . S
C247 H237 0.930 . S
C247 C240 1.409 . S
C247 C246 1.362 . S
H248 C254 0.930 . S
H249 C257 0.930 . S
H250 C258 0.930 . S
H251 C259 0.930 . S
H252 C262 0.930 . S
H253 C263 0.930 . S
C254 H248 0.930 . S
C254 C255 1.355 . S
C254 C256 1.415 . S
C255 C254 1.355 . S
C255 C257 1.419 . S
C256 C254 1.415 . S
C256 C261 1.425 . S
C256 C263 1.409 . S
C257 H249 0.930 . S
C257 C255 1.419 . S
C257 C258 1.362 . S
C258 H250 0.930 . S
C258 C257 1.362 . S
C258 C261 1.409 . S
C259 H251 0.930 . S
C259 C260 1.355 . S
C259 C261 1.415 . S
C260 C259 1.355 . S
C260 C262 1.419 . S
C261 C256 1.425 . S
C261 C258 1.409 . S
C261 C259 1.415 . S
C262 H252 0.930 . S
C262 C260 1.419 . S
C262 C263 1.362 . S
C263 H253 0.930 . S
C263 C256 1.409 . S
C263 C262 1.362 . S
H264 C270 0.930 . S
H265 C273 0.930 . S
H266 C274 0.930 . S
H267 C275 0.930 . S
H268 C278 0.930 . S
H269 C279 0.930 1_545 S
C270 H264 0.930 . S
C270 C271 1.355 . S
C270 C272 1.415 . S
C271 C270 1.355 . S
C271 C273 1.419 . S
C272 C270 1.415 . S
C272 C277 1.425 1_545 S
C272 C279 1.409 1_545 S
C273 H265 0.930 . S
C273 C271 1.419 . S
C273 C274 1.362 1_545 S
C274 H266 0.930 . S
C274 C273 1.362 1_565 S
C274 C277 1.409 . S
C275 H267 0.930 . S
C275 C276 1.355 . S
C275 C277 1.415 . S
C276 C275 1.355 . S
C276 C278 1.419 . S
C277 C272 1.425 1_565 S
C277 C274 1.409 . S
C277 C275 1.415 . S
C278 H268 0.930 . S
C278 C276 1.419 . S
C278 C279 1.362 . S
C279 H269 0.930 1_565 S
C279 C272 1.409 1_565 S
C279 C278 1.362 . S
H280 C286 0.930 . S
H281 C289 0.930 . S
H282 C290 0.930 . S
H283 C291 0.930 . S
H284 C294 0.955 . S
H285 C295 0.930 . S
C286 H280 0.930 . S
C286 C287 1.355 . S
C286 C288 1.415 . S
C287 C286 1.355 . S
C287 C289 1.419 . S
C288 C286 1.415 . S
C288 C293 1.425 . S
C288 C295 1.409 . S
C289 H281 0.930 . S
C289 C287 1.419 . S
C289 C290 1.362 . S
C290 H282 0.930 . S
C290 C289 1.362 . S
C290 C293 1.409 . S
C291 H283 0.930 . S
C291 C292 1.355 . S
C291 C293 1.415 . S
C292 C291 1.355 . S
C292 C294 1.413 1_556 S
C293 C288 1.425 . S
C293 C290 1.409 . S
C293 C291 1.415 . S
C294 H284 0.955 . S
C294 C292 1.413 1_554 S
C294 C295 1.346 1_554 S
C295 H285 0.930 . S
C295 C288 1.409 . S
C295 C294 1.346 1_556 S
H296 C302 0.930 . S
H297 C305 0.930 . S
H298 C306 0.930 . S
H299 C307 0.930 . S
H300 C310 0.930 . S
H301 C311 0.930 . S
C302 H296 0.930 . S
C302 C303 1.355 . S
C302 C304 1.415 . S
C303 C302 1.355 . S
C303 C305 1.419 . S
C304 C302 1.415 . S
C304 C309 1.425 . S
C304 C311 1.409 . S
C305 H297 0.930 . S
C305 C303 1.419 . S
C305 C306 1.362 . S
C306 H298 0.930 . S
C306 C305 1.362 . S
C306 C309 1.409 . S
C307 H299 0.930 . S
C307 C308 1.355 . S
C307 C309 1.415 . S
C308 C307 1.355 . S
C308 C310 1.419 . S
C309 C304 1.425 . S
C309 C306 1.409 . S
C309 C307 1.415 . S
C310 H300 0.930 . S
C310 C308 1.419 . S
C310 C311 1.362 . S
C311 H301 0.930 . S
C311 C304 1.409 . S
C311 C310 1.362 . S
H312 C318 0.930 . S
H313 C321 0.930 . S
H314 C322 0.930 1_565 S
H315 C323 0.930 . S
H316 C326 0.930 . S
H317 C327 0.930 . S
C318 H312 0.930 . S
C318 C319 1.355 . S
C318 C320 1.415 . S
C319 C318 1.355 . S
C319 C321 1.419 . S
C320 C318 1.415 . S
C320 C325 1.425 1_545 S
C320 C327 1.409 1_545 S
C321 H313 0.930 . S
C321 C319 1.419 . S
C321 C322 1.362 . S
C322 H314 0.930 1_545 S
C322 C321 1.362 . S
C322 C325 1.409 1_545 S
C323 H315 0.930 . S
C323 C324 1.355 . S
C323 C325 1.415 . S
C324 C323 1.355 . S
C324 C326 1.419 . S
C325 C320 1.425 1_565 S
C325 C322 1.409 1_565 S
C325 C323 1.415 . S
C326 H316 0.930 . S
C326 C324 1.419 . S
C326 C327 1.362 . S
C327 H317 0.930 . S
C327 C320 1.409 1_565 S
C327 C326 1.362 . S
H328 C334 0.930 . S
H329 C337 0.930 . S
H330 C338 0.930 . S
H331 C339 0.930 . S
H332 C342 0.930 . S
H333 C343 0.930 . S
C334 H328 0.930 . S
C334 C335 1.355 . S
C334 C336 1.415 . S
C335 C334 1.355 . S
C335 C337 1.419 . S
C336 C334 1.415 . S
C336 C341 1.425 . S
C336 C343 1.409 . S
C337 H329 0.930 . S
C337 C335 1.419 . S
C337 C338 1.362 . S
C338 H330 0.930 . S
C338 C337 1.362 . S
C338 C341 1.409 . S
C339 H331 0.930 . S
C339 C340 1.355 . S
C339 C341 1.415 . S
C340 C339 1.355 . S
C340 C342 1.419 . S
C341 C336 1.425 . S
C341 C338 1.409 . S
C341 C339 1.415 . S
C342 H332 0.930 . S
C342 C340 1.419 . S
C342 C343 1.362 . S
C343 H333 0.930 . S
C343 C336 1.409 . S
C343 C342 1.362 . S
H344 C350 0.930 . S
H345 C353 0.930 . S
H346 C354 0.930 . S
H347 C355 0.930 . S
H348 C358 0.930 . S
H349 C359 0.930 . S
C350 H344 0.930 . S
C350 C351 1.355 . S
C350 C352 1.415 . S
C351 C350 1.355 . S
C351 C353 1.419 . S
C352 C350 1.415 . S
C352 C357 1.425 . S
C352 C359 1.409 . S
C353 H345 0.930 . S
C353 C351 1.419 . S
C353 C354 1.362 . S
C354 H346 0.930 . S
C354 C353 1.362 . S
C354 C357 1.409 . S
C355 H347 0.930 . S
C355 C356 1.355 . S
C355 C357 1.415 . S
C356 C355 1.355 . S
C356 C358 1.419 . S
C357 C352 1.425 . S
C357 C354 1.409 . S
C357 C355 1.415 . S
C358 H348 0.930 . S
C358 C356 1.419 . S
C358 C359 1.362 . S
C359 H349 0.930 . S
C359 C352 1.409 . S
C359 C358 1.362 . S
H360 C366 0.930 . S
H361 C369 0.930 . S
H362 C370 0.930 . S
H363 C371 0.930 . S
H364 C374 0.930 . S
H365 C375 0.930 . S
C366 H360 0.930 . S
C366 C367 1.355 . S
C366 C368 1.415 . S
C367 C366 1.355 . S
C367 C369 1.419 . S
C368 C366 1.415 . S
C368 C373 1.425 . S
C368 C375 1.409 . S
C369 H361 0.930 . S
C369 C367 1.419 . S
C369 C370 1.362 . S
C370 H362 0.930 . S
C370 C369 1.362 . S
C370 C373 1.409 . S
C371 H363 0.930 . S
C371 C372 1.355 . S
C371 C373 1.415 . S
C372 C371 1.355 . S
C372 C374 1.419 . S
C373 C368 1.425 . S
C373 C370 1.409 . S
C373 C371 1.415 . S
C374 H364 0.930 . S
C374 C372 1.419 . S
C374 C375 1.362 . S
C375 H365 0.930 . S
C375 C368 1.409 . S
C375 C374 1.362 . S
H376 C382 0.930 . S
H377 C385 0.930 . S
H378 C386 0.930 . S
H379 C387 0.930 . S
H380 C390 0.930 . S
H381 C391 0.930 . S
C382 H376 0.930 . S
C382 C383 1.355 . S
C382 C384 1.415 . S
C383 C382 1.355 . S
C383 C385 1.419 . S
C384 C382 1.415 . S
C384 C389 1.425 . S
C384 C391 1.409 . S
C385 H377 0.930 . S
C385 C383 1.419 . S
C385 C386 1.362 . S
C386 H378 0.930 . S
C386 C385 1.362 . S
C386 C389 1.409 . S
C387 H379 0.930 . S
C387 C388 1.355 . S
C387 C389 1.415 . S
C388 C387 1.355 . S
C388 C390 1.419 . S
C389 C384 1.425 . S
C389 C386 1.409 . S
C389 C387 1.415 . S
C390 H380 0.930 . S
C390 C388 1.419 . S
C390 C391 1.362 . S
C391 H381 0.930 . S
C391 C384 1.409 . S
C391 C390 1.362 . S
H392 C398 0.930 . S
H393 C401 0.930 . S
H394 C402 0.930 . S
H395 C403 0.930 . S
H396 C406 0.930 . S
H397 C407 0.930 . S
C398 H392 0.930 . S
C398 C399 1.355 . S
C398 C400 1.415 . S
C399 C398 1.355 . S
C399 C401 1.419 . S
C400 C398 1.415 . S
C400 C405 1.425 . S
C400 C407 1.409 1_455 S
C401 H393 0.930 . S
C401 C399 1.419 . S
C401 C402 1.362 . S
C402 H394 0.930 . S
C402 C401 1.362 . S
C402 C405 1.409 . S
C403 H395 0.930 . S
C403 C404 1.355 . S
C403 C405 1.415 1_655 S
C404 C403 1.355 . S
C404 C406 1.419 . S
C405 C400 1.425 . S
C405 C402 1.409 . S
C405 C403 1.415 1_455 S
C406 H396 0.930 . S
C406 C404 1.419 . S
C406 C407 1.362 . S
C407 H397 0.930 . S
C407 C400 1.409 1_655 S
C407 C406 1.362 . S
H408 C414 0.930 . S
H409 C417 0.930 . S
H410 C418 0.930 . S
H411 C419 0.930 . S
H412 C422 0.930 . S
H413 C423 0.930 . S
C414 H408 0.930 . S
C414 C415 1.355 . S
C414 C416 1.415 . S
C415 C414 1.355 . S
C415 C417 1.419 . S
C416 C414 1.415 . S
C416 C421 1.425 . S
C416 C423 1.409 . S
C417 H409 0.930 . S
C417 C415 1.419 . S
C417 C418 1.362 . S
C418 H410 0.930 . S
C418 C417 1.362 . S
C418 C421 1.409 . S
C419 H411 0.930 . S
C419 C420 1.355 . S
C419 C421 1.415 . S
C420 C419 1.355 . S
C420 C422 1.419 . S
C421 C416 1.425 . S
C421 C418 1.409 . S
C421 C419 1.415 . S
C422 H412 0.930 . S
C422 C420 1.419 . S
C422 C423 1.362 . S
C423 H413 0.930 . S
C423 C416 1.409 . S
C423 C422 1.362 . S
H424 C430 0.930 . S
H425 C433 0.930 . S
H426 C434 0.930 . S
H427 C435 0.930 1_455 S
H428 C438 0.930 . S
H429 C439 0.930 . S
C430 H424 0.930 . S
C430 C431 1.355 . S
C430 C432 1.415 . S
C431 C430 1.355 . S
C431 C433 1.419 1_655 S
C432 C430 1.415 . S
C432 C437 1.425 . S
C432 C439 1.409 . S
C433 H425 0.930 . S
C433 C431 1.419 1_455 S
C433 C434 1.362 . S
C434 H426 0.930 . S
C434 C433 1.362 . S
C434 C437 1.409 1_455 S
C435 H427 0.930 1_655 S
C435 C436 1.355 . S
C435 C437 1.415 . S
C436 C435 1.355 . S
C436 C438 1.419 . S
C437 C432 1.425 . S
C437 C434 1.409 1_655 S
C437 C435 1.415 . S
C438 H428 0.930 . S
C438 C436 1.419 . S
C438 C439 1.362 . S
C439 H429 0.930 . S
C439 C432 1.409 . S
C439 C438 1.362 . S
H440 C446 0.930 1_554 S
H441 C449 0.930 . S
H442 C450 0.930 . S
H443 C451 0.930 . S
H444 C454 0.930 . S
H445 C455 0.930 . S
C446 H440 0.930 1_556 S
C446 C447 1.355 . S
C446 C448 1.398 1_556 S
C447 C446 1.355 . S
C447 C449 1.419 . S
C448 C446 1.398 1_554 S
C448 C453 1.394 1_454 S
C448 C455 1.457 . S
C449 H441 0.930 . S
C449 C447 1.419 . S
C449 C450 1.362 1_455 S
C450 H442 0.930 . S
C450 C449 1.362 1_655 S
C450 C453 1.409 . S
C451 H443 0.930 . S
C451 C452 1.355 1_556 S
C451 C453 1.415 . S
C452 C451 1.355 1_554 S
C452 C454 1.419 . S
C453 C448 1.394 1_656 S
C453 C450 1.409 . S
C453 C451 1.415 . S
C454 H444 0.930 . S
C454 C452 1.419 . S
C454 C455 1.362 1_655 S
C455 H445 0.930 . S
C455 C448 1.457 . S
C455 C454 1.362 1_455 S
H456 C462 0.930 . S
H457 C465 0.930 . S
H458 C466 0.930 . S
H459 C467 0.930 . S
H460 C470 0.930 . S
H461 C471 0.930 . S
C462 H456 0.930 . S
C462 C463 1.355 . S
C462 C464 1.415 . S
C463 C462 1.355 . S
C463 C465 1.419 . S
C464 C462 1.415 . S
C464 C469 1.425 . S
C464 C471 1.409 . S
C465 H457 0.930 . S
C465 C463 1.419 . S
C465 C466 1.362 . S
C466 H458 0.930 . S
C466 C465 1.362 . S
C466 C469 1.409 . S
C467 H459 0.930 . S
C467 C468 1.355 . S
C467 C469 1.415 . S
C468 C467 1.355 . S
C468 C470 1.419 . S
C469 C464 1.425 . S
C469 C466 1.409 . S
C469 C467 1.415 . S
C470 H460 0.930 . S
C470 C468 1.419 . S
C470 C471 1.362 . S
C471 H461 0.930 . S
C471 C464 1.409 . S
C471 C470 1.362 . S
H472 C478 0.930 . S
H473 C481 0.930 . S
H474 C482 0.930 . S
H475 C483 0.930 . S
H476 C486 0.930 . S
H477 C487 0.930 . S
C478 H472 0.930 . S
C478 C479 1.355 . S
C478 C480 1.415 . S
C479 C478 1.355 . S
C479 C481 1.419 . S
C480 C478 1.415 . S
C480 C485 1.425 . S
C480 C487 1.409 . S
C481 H473 0.930 . S
C481 C479 1.419 . S
C481 C482 1.362 . S
C482 H474 0.930 . S
C482 C481 1.362 . S
C482 C485 1.409 . S
C483 H475 0.930 . S
C483 C484 1.355 . S
C483 C485 1.415 . S
C484 C483 1.355 . S
C484 C486 1.419 . S
C485 C480 1.425 . S
C485 C482 1.409 . S
C485 C483 1.415 . S
C486 H476 0.930 . S
C486 C484 1.419 . S
C486 C487 1.362 . S
C487 H477 0.930 . S
C487 C480 1.409 . S
C487 C486 1.362 . S
H488 C494 0.930 . S
H489 C497 0.930 . S
H490 C498 0.930 . S
H491 C499 0.930 . S
H492 C502 0.930 . S
H493 C503 0.930 . S
C494 H488 0.930 . S
C494 C495 1.355 . S
C494 C496 1.415 . S
C495 C494 1.355 . S
C495 C497 1.419 . S
C496 C494 1.415 . S
C496 C501 1.425 . S
C496 C503 1.409 . S
C497 H489 0.930 . S
C497 C495 1.419 . S
C497 C498 1.362 . S
C498 H490 0.930 . S
C498 C497 1.362 . S
C498 C501 1.409 . S
C499 H491 0.930 . S
C499 C500 1.355 . S
C499 C501 1.415 . S
C500 C499 1.355 . S
C500 C502 1.419 . S
C501 C496 1.425 . S
C501 C498 1.409 . S
C501 C499 1.415 . S
C502 H492 0.930 . S
C502 C500 1.419 . S
C502 C503 1.362 . S
C503 H493 0.930 . S
C503 C496 1.409 . S
C503 C502 1.362 . S
H504 C510 0.930 . S
H505 C513 0.930 . S
H506 C514 0.930 . S
H507 C515 0.930 . S
H508 C518 0.930 . S
H509 C519 0.930 . S
C510 H504 0.930 . S
C510 C511 1.355 . S
C510 C512 1.415 . S
C511 C510 1.355 . S
C511 C513 1.419 . S
C512 C510 1.415 . S
C512 C517 1.425 . S
C512 C519 1.409 . S
C513 H505 0.930 . S
C513 C511 1.419 . S
C513 C514 1.362 . S
C514 H506 0.930 . S
C514 C513 1.362 . S
C514 C517 1.409 . S
C515 H507 0.930 . S
C515 C516 1.355 . S
C515 C517 1.415 . S
C516 C515 1.355 . S
C516 C518 1.419 . S
C517 C512 1.425 . S
C517 C514 1.409 . S
C517 C515 1.415 . S
C518 H508 0.930 . S
C518 C516 1.419 . S
C518 C519 1.362 . S
C519 H509 0.930 . S
C519 C512 1.409 . S
C519 C518 1.362 . S
H520 C526 0.930 . S
H521 C529 0.930 . S
H522 C530 0.930 . S
H523 C531 0.930 1_565 S
H524 C534 0.930 . S
H525 C535 0.930 . S
C526 H520 0.930 . S
C526 C527 1.355 . S
C526 C528 1.415 . S
C527 C526 1.355 . S
C527 C529 1.419 . S
C528 C526 1.415 . S
C528 C533 1.425 . S
C528 C535 1.409 . S
C529 H521 0.930 . S
C529 C527 1.419 . S
C529 C530 1.362 . S
C530 H522 0.930 . S
C530 C529 1.362 . S
C530 C533 1.409 . S
C531 H523 0.930 1_545 S
C531 C532 1.355 1_545 S
C531 C533 1.415 . S
C532 C531 1.355 1_565 S
C532 C534 1.419 1_565 S
C533 C528 1.425 . S
C533 C530 1.409 . S
C533 C531 1.415 . S
C534 H524 0.930 . S
C534 C532 1.419 1_545 S
C534 C535 1.362 . S
C535 H525 0.930 . S
C535 C528 1.409 . S
C535 C534 1.362 . S
H536 C542 0.930 . S
H537 C545 0.930 . S
H538 C546 0.930 . S
H539 C547 0.930 . S
H540 C550 0.930 . S
H541 C551 0.930 . S
C542 H536 0.930 . S
C542 C543 1.355 . S
C542 C544 1.415 . S
C543 C542 1.355 . S
C543 C545 1.419 . S
C544 C542 1.415 . S
C544 C549 1.425 . S
C544 C551 1.409 . S
C545 H537 0.930 . S
C545 C543 1.419 . S
C545 C546 1.362 . S
C546 H538 0.930 . S
C546 C545 1.362 . S
C546 C549 1.409 . S
C547 H539 0.930 . S
C547 C548 1.355 . S
C547 C549 1.415 . S
C548 C547 1.355 . S
C548 C550 1.419 . S
C549 C544 1.425 . S
C549 C546 1.409 . S
C549 C547 1.415 . S
C550 H540 0.930 . S
C550 C548 1.419 . S
C550 C551 1.362 . S
C551 H541 0.930 . S
C551 C544 1.409 . S
C551 C550 1.362 . S
H552 C558 0.930 . S
H553 C561 0.930 . S
H554 C562 0.930 . S
H555 C563 0.930 . S
H556 C566 0.930 . S
H557 C567 0.930 . S
C558 H552 0.930 . S
C558 C559 1.355 . S
C558 C560 1.415 . S
C559 C558 1.355 . S
C559 C561 1.419 . S
C560 C558 1.415 . S
C560 C565 1.425 . S
C560 C567 1.409 . S
C561 H553 0.930 . S
C561 C559 1.419 . S
C561 C562 1.362 . S
C562 H554 0.930 . S
C562 C561 1.362 . S
C562 C565 1.409 . S
C563 H555 0.930 . S
C563 C564 1.355 . S
C563 C565 1.415 . S
C564 C563 1.355 . S
C564 C566 1.419 . S
C565 C560 1.425 . S
C565 C562 1.409 . S
C565 C563 1.415 . S
C566 H556 0.930 . S
C566 C564 1.419 . S
C566 C567 1.362 . S
C567 H557 0.930 . S
C567 C560 1.409 . S
C567 C566 1.362 . S
H568 C574 0.930 . S
H569 C577 0.930 . S
H570 C578 0.930 1_565 S
H571 C579 0.930 . S
H572 C582 0.930 . S
H573 C583 0.930 . S
C574 H568 0.930 . S
C574 C575 1.355 . S
C574 C576 1.415 . S
C575 C574 1.355 . S
C575 C577 1.419 . S
C576 C574 1.415 . S
C576 C581 1.425 . S
C576 C583 1.409 . S
C577 H569 0.930 . S
C577 C575 1.419 . S
C577 C578 1.362 . S
C578 H570 0.930 1_545 S
C578 C577 1.362 . S
C578 C581 1.409 . S
C579 H571 0.930 . S
C579 C580 1.355 . S
C579 C581 1.415 1_565 S
C580 C579 1.355 . S
C580 C582 1.419 1_565 S
C581 C576 1.425 . S
C581 C578 1.409 . S
C581 C579 1.415 1_545 S
C582 H572 0.930 . S
C582 C580 1.419 1_545 S
C582 C583 1.362 . S
C583 H573 0.930 . S
C583 C576 1.409 . S
C583 C582 1.362 . S
H584 C590 0.930 . S
H585 C593 0.930 . S
H586 C594 0.930 . S
H587 C595 0.930 . S
H588 C598 0.930 . S
H589 C599 0.930 . S
C590 H584 0.930 . S
C590 C591 1.355 . S
C590 C592 1.415 . S
C591 C590 1.355 . S
C591 C593 1.419 . S
C592 C590 1.415 . S
C592 C597 1.425 . S
C592 C599 1.409 . S
C593 H585 0.930 . S
C593 C591 1.419 . S
C593 C594 1.362 . S
C594 H586 0.930 . S
C594 C593 1.362 . S
C594 C597 1.409 . S
C595 H587 0.930 . S
C595 C596 1.355 . S
C595 C597 1.415 . S
C596 C595 1.355 . S
C596 C598 1.419 . S
C597 C592 1.425 . S
C597 C594 1.409 . S
C597 C595 1.415 . S
C598 H588 0.930 . S
C598 C596 1.419 . S
C598 C599 1.362 . S
C599 H589 0.930 . S
C599 C592 1.409 . S
C599 C598 1.362 . S
H600 C606 0.930 . S
H601 C609 0.930 . S
H602 C610 0.930 . S
H603 C611 0.930 . S
H604 C614 0.930 . S
H605 C615 0.930 . S
C606 H600 0.930 . S
C606 C607 1.355 . S
C606 C608 1.415 . S
C607 C606 1.355 . S
C607 C609 1.419 . S
C608 C606 1.415 . S
C608 C613 1.425 . S
C608 C615 1.409 . S
C609 H601 0.930 . S
C609 C607 1.419 . S
C609 C610 1.362 . S
C610 H602 0.930 . S
C610 C609 1.362 . S
C610 C613 1.409 . S
C611 H603 0.930 . S
C611 C612 1.355 . S
C611 C613 1.415 . S
C612 C611 1.355 . S
C612 C614 1.419 . S
C613 C608 1.425 . S
C613 C610 1.409 . S
C613 C611 1.415 . S
C614 H604 0.930 . S
C614 C612 1.419 . S
C614 C615 1.362 . S
C615 H605 0.930 . S
C615 C608 1.409 . S
C615 C614 1.362 . S
H616 C622 0.930 . S
H617 C625 0.930 . S
H618 C626 0.930 . S
H619 C627 0.930 . S
H620 C630 0.930 . S
H621 C631 0.930 . S
C622 H616 0.930 . S
C622 C623 1.355 . S
C622 C624 1.415 . S
C623 C622 1.355 . S
C623 C625 1.419 . S
C624 C622 1.415 . S
C624 C629 1.425 . S
C624 C631 1.409 . S
C625 H617 0.930 . S
C625 C623 1.419 . S
C625 C626 1.362 . S
C626 H618 0.930 . S
C626 C625 1.362 . S
C626 C629 1.409 . S
C627 H619 0.930 . S
C627 C628 1.355 . S
C627 C629 1.415 . S
C628 C627 1.355 . S
C628 C630 1.419 . S
C629 C624 1.425 . S
C629 C626 1.409 . S
C629 C627 1.415 . S
C630 H620 0.930 . S
C630 C628 1.419 . S
C630 C631 1.362 . S
C631 H621 0.930 . S
C631 C624 1.409 . S
C631 C630 1.362 . S
H632 C638 0.930 . S
H633 C641 0.930 . S
H634 C642 0.930 . S
H635 C643 0.930 . S
H636 C646 0.930 . S
H637 C647 0.930 . S
C638 H632 0.930 . S
C638 C639 1.355 . S
C638 C640 1.415 . S
C639 C638 1.355 . S
C639 C641 1.419 . S
C640 C638 1.415 . S
C640 C645 1.425 . S
C640 C647 1.409 . S
C641 H633 0.930 . S
C641 C639 1.419 . S
C641 C642 1.362 . S
C642 H634 0.930 . S
C642 C641 1.362 . S
C642 C645 1.409 . S
C643 H635 0.930 . S
C643 C644 1.355 . S
C643 C645 1.415 . S
C644 C643 1.355 . S
C644 C646 1.419 . S
C645 C640 1.425 . S
C645 C642 1.409 . S
C645 C643 1.415 . S
C646 H636 0.930 . S
C646 C644 1.419 . S
C646 C647 1.362 . S
C647 H637 0.930 . S
C647 C640 1.409 . S
C647 C646 1.362 . S
H648 C654 0.930 . S
H649 C657 0.930 . S
H650 C658 0.930 . S
H651 C659 0.930 . S
H652 C662 0.930 . S
H653 C663 0.928 1_655 S
C654 H648 0.930 . S
C654 C655 1.355 . S
C654 C656 1.415 . S
C655 C654 1.355 . S
C655 C657 1.419 . S
C656 C654 1.415 . S
C656 C661 1.425 . S
C656 C663 1.409 . S
C657 H649 0.930 . S
C657 C655 1.419 . S
C657 C658 1.362 . S
C658 H650 0.930 . S
C658 C657 1.362 . S
C658 C661 1.409 . S
C659 H651 0.930 . S
C659 C660 1.355 1_455 S
C659 C661 1.415 . S
C660 C659 1.355 1_655 S
C660 C662 1.419 . S
C661 C656 1.425 . S
C661 C658 1.409 . S
C661 C659 1.415 . S
C662 H652 0.930 . S
C662 C660 1.419 . S
C662 C663 1.362 1_655 S
C663 H653 0.928 1_455 S
C663 C656 1.409 . S
C663 C662 1.362 1_455 S
H664 C670 0.930 . S
H665 C673 0.930 . S
H666 C674 0.930 . S
H667 C675 0.930 . S
H668 C678 0.930 . S
H669 C679 0.930 . S
C670 H664 0.930 . S
C670 C671 1.355 . S
C670 C672 1.415 . S
C671 C670 1.355 . S
C671 C673 1.419 . S
C672 C670 1.415 . S
C672 C677 1.425 . S
C672 C679 1.409 . S
C673 H665 0.930 . S
C673 C671 1.419 . S
C673 C674 1.362 . S
C674 H666 0.930 . S
C674 C673 1.362 . S
C674 C677 1.409 . S
C675 H667 0.930 . S
C675 C676 1.355 . S
C675 C677 1.415 . S
C676 C675 1.355 . S
C676 C678 1.419 . S
C677 C672 1.425 . S
C677 C674 1.409 . S
C677 C675 1.415 . S
C678 H668 0.930 . S
C678 C676 1.419 . S
C678 C679 1.362 . S
C679 H669 0.930 . S
C679 C672 1.409 . S
C679 C678 1.362 . S
H680 C686 0.930 . S
H681 C689 0.930 . S
H682 C690 0.930 . S
H683 C691 0.930 . S
H684 C694 0.930 . S
H685 C695 0.930 . S
C686 H680 0.930 . S
C686 C687 1.355 . S
C686 C688 1.415 . S
C687 C686 1.355 . S
C687 C689 1.419 . S
C688 C686 1.415 . S
C688 C693 1.425 . S
C688 C695 1.409 . S
C689 H681 0.930 . S
C689 C687 1.419 . S
C689 C690 1.362 . S
C690 H682 0.930 . S
C690 C689 1.362 . S
C690 C693 1.409 . S
C691 H683 0.930 . S
C691 C692 1.355 . S
C691 C693 1.415 . S
C692 C691 1.355 . S
C692 C694 1.419 . S
C693 C688 1.425 . S
C693 C690 1.409 . S
C693 C691 1.415 . S
C694 H684 0.930 . S
C694 C692 1.419 . S
C694 C695 1.362 . S
C695 H685 0.930 . S
C695 C688 1.409 . S
C695 C694 1.362 . S
H696 C702 0.930 . S
H697 C705 0.930 . S
H698 C706 0.930 1_655 S
H699 C707 0.928 1_655 S
H700 C710 0.930 . S
H701 C711 0.930 . S
C702 H696 0.930 . S
C702 C703 1.355 . S
C702 C704 1.415 . S
C703 C702 1.355 . S
C703 C705 1.419 . S
C704 C702 1.415 . S
C704 C709 1.425 . S
C704 C711 1.409 . S
C705 H697 0.930 . S
C705 C703 1.419 . S
C705 C706 1.362 . S
C706 H698 0.930 1_455 S
C706 C705 1.362 . S
C706 C709 1.409 . S
C707 H699 0.928 1_455 S
C707 C708 1.355 . S
C707 C709 1.416 . S
C708 C707 1.355 . S
C708 C710 1.419 . S
C709 C704 1.425 . S
C709 C706 1.409 . S
C709 C707 1.416 . S
C710 H700 0.930 . S
C710 C708 1.419 . S
C710 C711 1.362 . S
C711 H701 0.930 . S
C711 C704 1.409 . S
C711 C710 1.362 . S
H712 C718 0.930 . S
H713 C721 0.930 . S
H714 C722 0.930 . S
H715 C723 0.930 . S
H716 C726 0.930 . S
H717 C727 0.930 . S
C718 H712 0.930 . S
C718 C719 1.355 . S
C718 C720 1.415 . S
C719 C718 1.355 . S
C719 C721 1.419 . S
C720 C718 1.415 . S
C720 C725 1.425 . S
C720 C727 1.409 . S
C721 H713 0.930 . S
C721 C719 1.419 . S
C721 C722 1.362 . S
C722 H714 0.930 . S
C722 C721 1.362 . S
C722 C725 1.409 . S
C723 H715 0.930 . S
C723 C724 1.355 . S
C723 C725 1.415 . S
C724 C723 1.355 . S
C724 C726 1.419 . S
C725 C720 1.425 . S
C725 C722 1.409 . S
C725 C723 1.415 . S
C726 H716 0.930 . S
C726 C724 1.419 . S
C726 C727 1.362 . S
C727 H717 0.930 . S
C727 C720 1.409 . S
C727 C726 1.362 . S
C228 C129 1.317 . S
C223 C5 1.286 . S
C244 C143 1.318 . S
C239 C18 1.356 . S
C260 C151 1.322 . S
C255 C31 1.340 . S
C271 C42 1.220 . S
C276 C109 1.269 . S
C287 C57 1.431 . S
C292 C115 1.478 1_556 S
C303 C70 1.491 . S
C308 C123 1.518 . S
C324 C137 1.519 . S
C319 C81 1.501 . S
C340 C157 1.470 . S
C335 C96 1.472 . S
C351 C29 1.442 . S
C356 C185 1.461 . S
C372 C199 1.493 . S
C367 C44 1.428 . S
C383 C3 1.498 . S
C388 C207 1.479 . S
C404 C171 1.494 . S
C399 C16 1.473 . S
C415 C83 1.309 . S
C420 C165 1.269 . S
C431 C94 1.214 . S
C436 C179 1.329 . S
C452 C193 1.354 . S
C447 C55 1.270 . S
C463 C68 1.313 . S
C468 C213 1.342 . S
C484 C132 1.362 . S
C479 C1 1.387 . S
C500 C155 1.369 . S
C495 C14 1.420 . S
C511 C27 1.407 . S
C516 C113 1.375 . S
C527 C49 1.399 . S
C532 C118 1.304 . S
C543 C53 1.621 . S
C548 C146 1.632 . S
C564 C104 1.674 . S
C559 C66 1.658 . S
C580 C127 1.706 . S
C575 C88 1.731 . S
C596 C141 1.703 . S
C591 C92 1.639 . S
C612 C188 1.661 . S
C607 C36 1.725 . S
C628 C211 1.657 . S
C623 C40 1.596 . S
C639 C10 1.723 . S
C644 C160 1.690 . S
C660 C174 1.695 . S
C655 C23 1.726 . S
C676 C202 1.392 . S
C671 C79 1.397 . S
C687 C101 1.399 . S
C692 C169 1.341 . S
C708 C183 1.403 1_455 S
C703 C62 1.385 . S
C724 C197 1.398 . S
C719 C75 1.447 . S
