# Generated by pormake.
# Topology gar, (4,6)-cn, num edge types: 1
# Building blocks:
#     Node 0, Type 0, BuildingBlock: TATPOV_clean_sbu_0, # of connection points: 4
#     Node 1, Type 0, BuildingBlock: TATPOV_clean_sbu_0, # of connection points: 4
#     Node 2, Type 0, BuildingBlock: TATPOV_clean_sbu_0, # of connection points: 4
#     Node 3, Type 0, BuildingBlock: TATPOV_clean_sbu_0, # of connection points: 4
#     Node 4, Type 0, BuildingBlock: TATPOV_clean_sbu_0, # of connection points: 4
#     Node 5, Type 0, BuildingBlock: TATPOV_clean_sbu_0, # of connection points: 4
#     Node 6, Type 0, BuildingBlock: TATPOV_clean_sbu_0, # of connection points: 4
#     Node 7, Type 0, BuildingBlock: TATPOV_clean_sbu_0, # of connection points: 4
#     Node 8, Type 0, BuildingBlock: TATPOV_clean_sbu_0, # of connection points: 4
#     Node 9, Type 0, BuildingBlock: TATPOV_clean_sbu_0, # of connection points: 4
#     Node 10, Type 0, BuildingBlock: TATPOV_clean_sbu_0, # of connection points: 4
#     Node 11, Type 0, BuildingBlock: TATPOV_clean_sbu_0, # of connection points: 4
#     Node 12, Type 0, BuildingBlock: TATPOV_clean_sbu_0, # of connection points: 4
#     Node 13, Type 0, BuildingBlock: TATPOV_clean_sbu_0, # of connection points: 4
#     Node 14, Type 0, BuildingBlock: TATPOV_clean_sbu_0, # of connection points: 4
#     Node 15, Type 0, BuildingBlock: TATPOV_clean_sbu_0, # of connection points: 4
#     Node 16, Type 0, BuildingBlock: TATPOV_clean_sbu_0, # of connection points: 4
#     Node 17, Type 0, BuildingBlock: TATPOV_clean_sbu_0, # of connection points: 4
#     Node 18, Type 0, BuildingBlock: TATPOV_clean_sbu_0, # of connection points: 4
#     Node 19, Type 0, BuildingBlock: TATPOV_clean_sbu_0, # of connection points: 4
#     Node 20, Type 0, BuildingBlock: TATPOV_clean_sbu_0, # of connection points: 4
#     Node 21, Type 0, BuildingBlock: TATPOV_clean_sbu_0, # of connection points: 4
#     Node 22, Type 0, BuildingBlock: TATPOV_clean_sbu_0, # of connection points: 4
#     Node 23, Type 0, BuildingBlock: TATPOV_clean_sbu_0, # of connection points: 4
#     Node 24, Type 1, BuildingBlock: CUKXOW_clean_sbu_0, # of connection points: 6
#     Node 25, Type 1, BuildingBlock: CUKXOW_clean_sbu_0, # of connection points: 6
#     Node 26, Type 1, BuildingBlock: CUKXOW_clean_sbu_0, # of connection points: 6
#     Node 27, Type 1, BuildingBlock: CUKXOW_clean_sbu_0, # of connection points: 6
#     Node 28, Type 1, BuildingBlock: CUKXOW_clean_sbu_0, # of connection points: 6
#     Node 29, Type 1, BuildingBlock: CUKXOW_clean_sbu_0, # of connection points: 6
#     Node 30, Type 1, BuildingBlock: CUKXOW_clean_sbu_0, # of connection points: 6
#     Node 31, Type 1, BuildingBlock: CUKXOW_clean_sbu_0, # of connection points: 6
#     Node 32, Type 1, BuildingBlock: CUKXOW_clean_sbu_0, # of connection points: 6
#     Node 33, Type 1, BuildingBlock: CUKXOW_clean_sbu_0, # of connection points: 6
#     Node 34, Type 1, BuildingBlock: CUKXOW_clean_sbu_0, # of connection points: 6
#     Node 35, Type 1, BuildingBlock: CUKXOW_clean_sbu_0, # of connection points: 6
#     Node 36, Type 1, BuildingBlock: CUKXOW_clean_sbu_0, # of connection points: 6
#     Node 37, Type 1, BuildingBlock: CUKXOW_clean_sbu_0, # of connection points: 6
#     Node 38, Type 1, BuildingBlock: CUKXOW_clean_sbu_0, # of connection points: 6
#     Node 39, Type 1, BuildingBlock: CUKXOW_clean_sbu_0, # of connection points: 6
#     Edge 40, Type (0, 1), None
#     Edge 41, Type (0, 1), None
#     Edge 42, Type (0, 1), None
#     Edge 43, Type (0, 1), None
#     Edge 44, Type (0, 1), None
#     Edge 45, Type (0, 1), None
#     Edge 46, Type (0, 1), None
#     Edge 47, Type (0, 1), None
#     Edge 48, Type (0, 1), None
#     Edge 49, Type (0, 1), None
#     Edge 50, Type (0, 1), None
#     Edge 51, Type (0, 1), None
#     Edge 52, Type (0, 1), None
#     Edge 53, Type (0, 1), None
#     Edge 54, Type (0, 1), None
#     Edge 55, Type (0, 1), None
#     Edge 56, Type (0, 1), None
#     Edge 57, Type (0, 1), None
#     Edge 58, Type (0, 1), None
#     Edge 59, Type (0, 1), None
#     Edge 60, Type (0, 1), None
#     Edge 61, Type (0, 1), None
#     Edge 62, Type (0, 1), None
#     Edge 63, Type (0, 1), None
#     Edge 64, Type (0, 1), None
#     Edge 65, Type (0, 1), None
#     Edge 66, Type (0, 1), None
#     Edge 67, Type (0, 1), None
#     Edge 68, Type (0, 1), None
#     Edge 69, Type (0, 1), None
#     Edge 70, Type (0, 1), None
#     Edge 71, Type (0, 1), None
#     Edge 72, Type (0, 1), None
#     Edge 73, Type (0, 1), None
#     Edge 74, Type (0, 1), None
#     Edge 75, Type (0, 1), None
#     Edge 76, Type (0, 1), None
#     Edge 77, Type (0, 1), None
#     Edge 78, Type (0, 1), None
#     Edge 79, Type (0, 1), None
#     Edge 80, Type (0, 1), None
#     Edge 81, Type (0, 1), None
#     Edge 82, Type (0, 1), None
#     Edge 83, Type (0, 1), None
#     Edge 84, Type (0, 1), None
#     Edge 85, Type (0, 1), None
#     Edge 86, Type (0, 1), None
#     Edge 87, Type (0, 1), None
#     Edge 88, Type (0, 1), None
#     Edge 89, Type (0, 1), None
#     Edge 90, Type (0, 1), None
#     Edge 91, Type (0, 1), None
#     Edge 92, Type (0, 1), None
#     Edge 93, Type (0, 1), None
#     Edge 94, Type (0, 1), None
#     Edge 95, Type (0, 1), None
#     Edge 96, Type (0, 1), None
#     Edge 97, Type (0, 1), None
#     Edge 98, Type (0, 1), None
#     Edge 99, Type (0, 1), None
#     Edge 100, Type (0, 1), None
#     Edge 101, Type (0, 1), None
#     Edge 102, Type (0, 1), None
#     Edge 103, Type (0, 1), None
#     Edge 104, Type (0, 1), None
#     Edge 105, Type (0, 1), None
#     Edge 106, Type (0, 1), None
#     Edge 107, Type (0, 1), None
#     Edge 108, Type (0, 1), None
#     Edge 109, Type (0, 1), None
#     Edge 110, Type (0, 1), None
#     Edge 111, Type (0, 1), None
#     Edge 112, Type (0, 1), None
#     Edge 113, Type (0, 1), None
#     Edge 114, Type (0, 1), None
#     Edge 115, Type (0, 1), None
#     Edge 116, Type (0, 1), None
#     Edge 117, Type (0, 1), None
#     Edge 118, Type (0, 1), None
#     Edge 119, Type (0, 1), None
#     Edge 120, Type (0, 1), None
#     Edge 121, Type (0, 1), None
#     Edge 122, Type (0, 1), None
#     Edge 123, Type (0, 1), None
#     Edge 124, Type (0, 1), None
#     Edge 125, Type (0, 1), None
#     Edge 126, Type (0, 1), None
#     Edge 127, Type (0, 1), None
#     Edge 128, Type (0, 1), None
#     Edge 129, Type (0, 1), None
#     Edge 130, Type (0, 1), None
#     Edge 131, Type (0, 1), None
#     Edge 132, Type (0, 1), None
#     Edge 133, Type (0, 1), None
#     Edge 134, Type (0, 1), None
#     Edge 135, Type (0, 1), None
# Relax obj value: 0.155
# Max RMSD: 0.292
# Mean RMSD: 0.154
data_MOF--net-gar--node1-TATPOV_clean_sbu_0--node2-CUKXOW_clean_sbu_0--edge1-none
_symmetry_space_group_name_H-M    P1
_symmetry_Int_Tables_number       1
_symmetry_cell_setting            triclinic
loop_
_symmetry_equiv_pos_as_xyz
'x, y, z'
_cell_length_a     25.318988
_cell_length_b     24.297396
_cell_length_c     25.022019
_cell_angle_alpha  95.406902
_cell_angle_beta   94.050792
_cell_angle_gamma 98.301872
loop_
_atom_site_label
_atom_site_type_symbol
_atom_site_fract_x
_atom_site_fract_y
_atom_site_fract_z
_atom_type_partial_charge
Zn0 Zn 0.97916 0.26588 0.54595 0.0
Zn1 Zn 0.05895 0.27884 0.48386 0.0
O2 O 0.0791 0.35581 0.52703 0.0
O3 O 1.00968 0.34685 0.57536 0.0
O4 O 0.10829 0.27954 0.42634 0.0
O5 O 1.00267 0.19843 0.57594 0.0
O6 O 0.06741 0.20711 0.52163 0.0
C7 C 0.05086 0.37667 0.56133 0.0
C8 C 0.94391 0.26598 0.4362 0.0
O9 O 0.99357 0.27954 0.43404 0.0
O10 O 0.92537 0.25298 0.47973 0.0
C11 C 0.09569 0.25535 0.37877 0.0
O12 O 0.05058 0.22096 0.36666 0.0
C13 C 0.04305 0.18131 0.55705 0.0
Zn14 Zn 0.97959 0.7293 0.62712 0.0
Zn15 Zn 0.01693 0.80716 0.58517 0.0
O16 O 0.967 0.83373 0.64283 0.0
O17 O 0.95002 0.76156 0.68898 0.0
O18 O 0.03412 0.87455 0.54306 0.0
O19 O 0.05405 0.72064 0.65127 0.0
O20 O 0.08256 0.80615 0.6322 0.0
C21 C 0.95073 0.81279 0.6848 0.0
C22 C 0.97237 0.68583 0.53176 0.0
O23 O 1.00813 0.72936 0.53571 0.0
O24 O 0.93555 0.68543 0.56319 0.0
C25 C 1.00979 0.88064 0.49848 0.0
O26 O 0.97521 0.83892 0.47399 0.0
C27 C 0.08958 0.76333 0.65547 0.0
Zn28 Zn 0.47916 0.76587 0.04596 0.0
Zn29 Zn 0.55894 0.77884 0.98387 0.0
O30 O 0.57911 0.8558 0.02705 0.0
O31 O 0.50969 0.84683 0.07539 0.0
O32 O 0.60828 0.77954 0.92635 0.0
O33 O 0.50266 0.69839 0.07591 0.0
O34 O 0.5674 0.70709 0.0216 0.0
C35 C 0.55086 0.87666 0.06136 0.0
C36 C 0.44391 0.766 0.93621 0.0
O37 O 0.49357 0.77956 0.93405 0.0
O38 O 0.42537 0.753 0.97974 0.0
C39 C 0.59568 0.75535 0.87878 0.0
O40 O 0.55058 0.72095 0.86668 0.0
C41 C 0.54304 0.68128 0.05701 0.0
Zn42 Zn 0.47959 0.22929 0.12712 0.0
Zn43 Zn 0.51694 0.30714 0.08516 0.0
O44 O 0.467 0.33373 0.1428 0.0
O45 O 0.45002 0.26157 0.18897 0.0
O46 O 0.53415 0.3745 0.04305 0.0
O47 O 0.55404 0.22062 0.15128 0.0
O48 O 0.58256 0.30613 0.1322 0.0
C49 C 0.45073 0.3128 0.18478 0.0
C50 C 0.47237 0.18581 0.03176 0.0
O51 O 0.50813 0.22933 0.03571 0.0
O52 O 0.43554 0.18541 0.06319 0.0
C53 C 0.50982 0.38058 -0.00154 0.0
O54 O 0.47523 0.33885 0.97399 0.0
C55 C 0.58957 0.26331 0.15548 0.0
Zn56 Zn 0.09041 0.79816 0.13642 0.0
Zn57 Zn 0.01491 0.76718 0.18186 0.0
O58 O 0.99276 0.8239 0.1296 0.0
O59 O 0.05523 0.82431 0.0733 0.0
O60 O 0.94998 0.76152 0.2284 0.0
O61 O 0.10528 0.72152 0.11953 0.0
O62 O 0.02184 0.69253 0.13599 0.0
C63 C 1.01021 0.83569 0.08477 0.0
C64 C 0.12676 0.8253 0.23793 0.0
O65 O 0.0847 0.78886 0.23775 0.0
O66 O 0.13391 0.85 0.19624 0.0
C67 C 0.89954 0.74817 0.21569 0.0
O68 O 0.88176 0.72824 0.16609 0.0
C69 C 0.06526 0.68336 0.11578 0.0
Zn70 Zn 0.4644 0.78653 0.42332 0.0
Zn71 Zn 0.5366 0.81593 0.37411 0.0
O72 O 0.53453 0.89012 0.42411 0.0
O73 O 0.45149 0.86353 0.44311 0.0
O74 O 0.59697 0.81945 0.3224 0.0
O75 O 0.50247 0.75918 0.484 0.0
O76 O 0.55984 0.75656 0.42262 0.0
C77 C 0.49281 0.90018 0.44724 0.0
C78 C 0.42372 0.75967 0.3225 0.0
O79 O 0.46494 0.79675 0.32146 0.0
O80 O 0.4187 0.73494 0.36445 0.0
C81 C 0.64776 0.82911 0.33303 0.0
O82 O 0.66801 0.84654 0.38247 0.0
C83 C 0.54538 0.74534 0.46872 0.0
Zn84 Zn 0.59042 0.29816 0.63644 0.0
Zn85 Zn 0.51492 0.26718 0.68188 0.0
O86 O 0.49278 0.32391 0.62963 0.0
O87 O 0.55524 0.32431 0.57331 0.0
O88 O 0.44999 0.26154 0.72842 0.0
O89 O 0.60529 0.22151 0.61955 0.0
O90 O 0.52185 0.19254 0.63601 0.0
C91 C 0.51022 0.3357 0.5848 0.0
C92 C 0.62677 0.3253 0.73795 0.0
O93 O 0.58471 0.28887 0.73777 0.0
O94 O 0.63392 0.35 0.69625 0.0
C95 C 0.39956 0.24816 0.71571 0.0
O96 O 0.38178 0.22816 0.66612 0.0
C97 C 0.56526 0.18336 0.6158 0.0
Zn98 Zn 0.96439 0.28652 0.92332 0.0
Zn99 Zn 0.03659 0.31591 0.8741 0.0
O100 O 0.03454 0.39011 0.92409 0.0
O101 O 0.9515 0.36353 0.94309 0.0
O102 O 0.09696 0.3194 0.82239 0.0
O103 O 1.00244 0.25917 0.98401 0.0
O104 O 0.05983 0.25655 0.92264 0.0
C105 C 0.99282 0.40018 0.94722 0.0
C106 C 0.92371 0.25966 0.8225 0.0
O107 O 0.96493 0.29673 0.82145 0.0
O108 O 0.91869 0.23493 0.86445 0.0
C109 C 0.14776 0.3292 0.83298 0.0
O110 O 0.16804 0.34684 0.88236 0.0
C111 C 0.04535 0.24533 0.96874 0.0
Zn112 Zn 0.5064 0.05232 0.28638 0.0
Zn113 Zn 0.4354 0.11134 0.28276 0.0
O114 O 0.47753 0.1141 0.36153 0.0
O115 O 0.55539 0.08683 0.34958 0.0
O116 O 0.38136 0.17125 0.28456 0.0
O117 O 0.52903 0.04715 0.21334 0.0
O118 O 0.47329 0.10866 0.20657 0.0
C119 C 0.52301 0.10373 0.3812 0.0
C120 C 0.40067 0.99394 0.29378 0.0
O121 O 0.3852 0.03841 0.28028 0.0
O122 O 0.44994 0.99065 0.30116 0.0
C123 C 0.33258 0.15828 0.29561 0.0
O124 O 0.31634 0.10754 0.30757 0.0
C125 C 0.50635 0.07889 0.18543 0.0
Zn126 Zn 0.18537 0.20674 0.46062 0.0
Zn127 Zn 0.26872 0.17017 0.47701 0.0
O128 O 0.29624 0.21616 0.41867 0.0
O129 O 0.23702 0.26962 0.43917 0.0
O130 O 0.33115 0.13908 0.50141 0.0
O131 O 0.17457 0.2185 0.53791 0.0
O132 O 0.26219 0.22342 0.53999 0.0
C133 C 0.28106 0.26372 0.42032 0.0
C134 C 0.16079 0.09732 0.44308 0.0
O135 O 0.20615 0.10483 0.46996 0.0
O136 O 0.14862 0.13592 0.41617 0.0
C137 C 0.33058 0.09732 0.52795 0.0
O138 O 0.2853 0.06849 0.53859 0.0
C139 C 0.22064 0.23445 0.5614 0.0
Zn140 Zn 0.10475 0.03392 0.77492 0.0
Zn141 Zn 0.18848 0.00791 0.81672 0.0
O142 O 0.12674 0.99305 0.86978 0.0
O143 O 0.06434 0.03868 0.8378 0.0
O144 O 0.24771 0.96038 0.83358 0.0
O145 O 0.09328 0.95983 0.72742 0.0
O146 O 0.17686 0.99568 0.73323 0.0
C147 C 0.0821 0.01173 0.87386 0.0
C148 C 0.20147 0.12095 0.79404 0.0
O149 O 0.21925 0.0906 0.82795 0.0
O150 O 0.15899 0.10289 0.76355 0.0
C151 C 0.24565 0.91603 0.80143 0.0
O152 O 0.20539 0.90257 0.76455 0.0
C153 C 0.13582 0.97002 0.70472 0.0
Zn154 Zn 0.25201 0.80058 0.02639 0.0
Zn155 Zn 0.20941 0.88236 0.04539 0.0
O156 O 0.20537 0.84743 0.96084 0.0
O157 O 0.20829 0.75845 0.96149 0.0
O158 O 0.15021 0.9376 0.05023 0.0
O159 O 0.25804 0.76492 0.093 0.0
O160 O 0.21947 0.8376 0.11869 0.0
C161 C 0.20334 0.79896 0.93452 0.0
C162 C 0.31953 0.91208 0.02945 0.0
O163 O 0.28046 0.93277 0.04819 0.0
O164 O 0.31545 0.85996 0.01538 0.0
C165 C 0.16229 0.99033 0.06487 0.0
O166 O 0.21231 0.01049 0.08125 0.0
C167 C 0.24114 0.79448 0.1302 0.0
Zn168 Zn 0.37149 0.35215 0.08682 0.0
Zn169 Zn 0.29405 0.4028 0.07698 0.0
O170 O 0.29134 0.35381 0.00903 0.0
O171 O 0.37431 0.33641 0.00846 0.0
O172 O 0.23189 0.43975 0.06248 0.0
O173 O 0.32216 0.29336 0.11703 0.0
O174 O 0.27039 0.35578 0.13599 0.0
C175 C 0.32801 0.33389 0.98543 0.0
C176 C 0.40705 0.46446 0.10712 0.0
O177 O 0.36059 0.46386 0.08398 0.0
O178 O 0.41768 0.42107 0.12692 0.0
C179 C 0.23103 0.48287 0.03808 0.0
O180 O 0.27523 0.51031 0.02333 0.0
C181 C 0.28143 0.3067 0.13827 0.0
Zn182 Zn 0.78576 0.26357 0.05 0.0
Zn183 Zn 0.83816 0.1901 0.02247 0.0
O184 O 0.82245 0.23974 0.95359 0.0
O185 O 0.76989 0.29863 0.98335 0.0
O186 O 0.90087 0.13904 0.01092 0.0
O187 O 0.83663 0.3077 0.11008 0.0
O188 O 0.84592 0.22042 0.10908 0.0
C189 C 0.7928 0.27791 0.94489 0.0
C190 C 0.73023 0.14723 0.04455 0.0
O191 O 0.7689 0.13484 0.01829 0.0
O192 O 0.73094 0.19682 0.06609 0.0
C193 C 0.89146 0.0876 0.99056 0.0
O194 O 0.8421 0.06659 0.97233 0.0
C195 C 0.84681 0.26819 0.13642 0.0
Zn196 Zn 0.04635 0.53331 0.29438 0.0
Zn197 Zn 0.11769 0.47151 0.29111 0.0
O198 O 0.07894 0.46874 0.36666 0.0
O199 O 0.01327 0.51939 0.3604 0.0
O200 O 0.17406 0.41585 0.28481 0.0
O201 O 1.008 0.51152 0.22209 0.0
O202 O 0.0785 0.46955 0.21189 0.0
C203 C 0.04037 0.49045 0.38742 0.0
C204 C 0.15323 0.5927 0.30262 0.0
O205 O 0.16649 0.54443 0.29757 0.0
O206 O 0.10468 0.59934 0.30294 0.0
C207 C 0.22335 0.43105 0.30244 0.0
O208 O 0.23775 0.4801 0.33028 0.0
C209 C 0.03689 0.48711 0.19145 0.0
Zn210 Zn 0.87151 0.85213 0.58685 0.0
Zn211 Zn 0.79407 0.90283 0.57703 0.0
O212 O 0.7914 0.85387 0.50905 0.0
O213 O 0.87432 0.83628 0.50851 0.0
O214 O 0.7319 0.93976 0.56251 0.0
O215 O 0.82218 0.79337 0.61708 0.0
O216 O 0.77039 0.85578 0.63601 0.0
C217 C 0.82803 0.83385 0.48547 0.0
C218 C 0.90707 0.96447 0.60717 0.0
O219 O 0.8606 0.96389 0.58406 0.0
O220 O 0.91771 0.92106 0.6269 0.0
C221 C 0.73103 0.98288 0.53811 0.0
O222 O 0.77523 0.01033 0.52335 0.0
C223 C 0.78144 0.8067 0.6383 0.0
Zn224 Zn 0.94875 0.00589 0.25786 0.0
Zn225 Zn 0.88311 0.06872 0.24526 0.0
O226 O 0.91691 0.10232 0.31943 0.0
O227 O 0.95501 0.02912 0.33509 0.0
O228 O 0.8265 0.11785 0.2327 0.0
O229 O 1.00246 0.03745 0.21234 0.0
O230 O 0.93371 0.07495 0.18211 0.0
C231 C 0.93981 0.07438 0.35163 0.0
C232 C 0.85213 0.94163 0.24284 0.0
O233 O 0.83967 0.99045 0.25173 0.0
O234 O 0.89947 0.93552 0.23387 0.0
C235 C 0.80587 0.13829 0.27362 0.0
O236 O 0.81968 0.12541 0.32183 0.0
C237 C 0.98121 0.06373 0.17772 0.0
Zn238 Zn 0.28576 0.76359 0.55 0.0
Zn239 Zn 0.33817 0.69011 0.52248 0.0
O240 O 0.32246 0.73975 0.4536 0.0
O241 O 0.2699 0.79864 0.48336 0.0
O242 O 0.40088 0.63905 0.51093 0.0
O243 O 0.33663 0.80772 0.61009 0.0
O244 O 0.34593 0.72044 0.60909 0.0
C245 C 0.2928 0.77792 0.44489 0.0
C246 C 0.23023 0.64724 0.54455 0.0
O247 O 0.26891 0.63485 0.51829 0.0
O248 O 0.23094 0.69684 0.56609 0.0
C249 C 0.39148 0.58761 0.49058 0.0
O250 O 0.34211 0.5666 0.47236 0.0
C251 C 0.34681 0.7682 0.63643 0.0
Zn252 Zn 0.44848 0.50577 0.75759 0.0
Zn253 Zn 0.38316 0.56879 0.74526 0.0
O254 O 0.41716 0.60247 0.81932 0.0
O255 O 0.45428 0.52865 0.83492 0.0
O256 O 0.32653 0.61788 0.73271 0.0
O257 O 0.50245 0.53759 0.71242 0.0
O258 O 0.43367 0.57493 0.68204 0.0
C259 C 0.43951 0.57412 0.85151 0.0
C260 C 0.35201 0.44169 0.74263 0.0
O261 O 0.33973 0.49054 0.75196 0.0
O262 O 0.39919 0.43552 0.7331 0.0
C263 C 0.30594 0.63836 0.77365 0.0
O264 O 0.31986 0.62555 0.82186 0.0
C265 C 0.4812 0.56381 0.67773 0.0
Zn266 Zn 0.54634 0.0333 0.7944 0.0
Zn267 Zn 0.61769 0.97151 0.79113 0.0
O268 O 0.57894 0.96873 0.86668 0.0
O269 O 0.51326 0.01937 0.86041 0.0
O270 O 0.67406 0.91585 0.78482 0.0
O271 O 0.50798 0.01151 0.72211 0.0
O272 O 0.57849 0.96955 0.7119 0.0
C273 C 0.54036 0.99043 0.88743 0.0
C274 C 0.65322 0.0927 0.80263 0.0
O275 O 0.66648 0.04442 0.79758 0.0
O276 O 0.60466 0.09933 0.80295 0.0
C277 C 0.72334 0.93105 0.80245 0.0
O278 O 0.73775 0.98009 0.83029 0.0
C279 C 0.53688 0.9871 0.69147 0.0
Zn280 Zn 0.68538 0.70672 0.96064 0.0
Zn281 Zn 0.76873 0.67017 0.97704 0.0
O282 O 0.79624 0.71615 0.91869 0.0
O283 O 0.73702 0.76961 0.9392 0.0
O284 O 0.83115 0.63908 0.00143 0.0
O285 O 0.67457 0.71848 0.03793 0.0
O286 O 0.7622 0.72342 0.04001 0.0
C287 C 0.78106 0.76371 0.92034 0.0
C288 C 0.66081 0.59731 0.94308 0.0
O289 O 0.70616 0.60482 0.96997 0.0
O290 O 0.64864 0.63592 0.91617 0.0
C291 C 0.83058 0.5973 0.02795 0.0
O292 O 0.78531 0.56846 0.03857 0.0
C293 C 0.72064 0.73444 0.06142 0.0
Zn294 Zn 1.0064 0.55232 0.78637 0.0
Zn295 Zn 0.9354 0.61134 0.78275 0.0
O296 O 0.97754 0.6141 0.86152 0.0
O297 O 0.05539 0.58684 0.84957 0.0
O298 O 0.88135 0.67125 0.78456 0.0
O299 O 0.02903 0.54715 0.71332 0.0
O300 O 0.97329 0.60867 0.70656 0.0
C301 C 0.02301 0.60374 0.88119 0.0
C302 C 0.90067 0.49394 0.79377 0.0
O303 O 0.88521 0.5384 0.78027 0.0
O304 O 0.94994 0.49065 0.80116 0.0
C305 C 0.83257 0.65828 0.79562 0.0
O306 O 0.81633 0.60753 0.80757 0.0
C307 C 1.00635 0.57889 0.68541 0.0
Zn308 Zn 0.75203 0.30058 0.5264 0.0
Zn309 Zn 0.70942 0.38236 0.54539 0.0
O310 O 0.70537 0.34742 0.46083 0.0
O311 O 0.7083 0.25845 0.46149 0.0
O312 O 0.65023 0.4376 0.55023 0.0
O313 O 0.75806 0.26494 0.59301 0.0
O314 O 0.71947 0.3376 0.61869 0.0
C315 C 0.70334 0.29894 0.43452 0.0
C316 C 0.81954 0.41208 0.52944 0.0
O317 O 0.78047 0.43276 0.54818 0.0
O318 O 0.81547 0.35996 0.51537 0.0
C319 C 0.66231 0.49034 0.56486 0.0
O320 O 0.71234 0.51049 0.58123 0.0
C321 C 0.74114 0.29449 0.6302 0.0
Zn322 Zn 0.60471 0.53388 0.2749 0.0
Zn323 Zn 0.68844 0.50786 0.3167 0.0
O324 O 0.62671 0.49301 0.36978 0.0
O325 O 0.56431 0.53864 0.3378 0.0
O326 O 0.74768 0.46034 0.33358 0.0
O327 O 0.59323 0.45979 0.2274 0.0
O328 O 0.67682 0.49563 0.23321 0.0
C329 C 0.58208 0.5117 0.37386 0.0
C330 C 0.70143 0.62089 0.29401 0.0
O331 O 0.7192 0.59054 0.32792 0.0
O332 O 0.65895 0.60284 0.26351 0.0
C333 C 0.74565 0.41601 0.30141 0.0
O334 O 0.70542 0.40256 0.2645 0.0
C335 C 0.63578 0.46998 0.2047 0.0
Tb336 Tb 0.05795 0.1023 0.02826 0.0
C337 C 0.05879 0.01676 0.92539 0.0
Tb338 Tb 0.99863 0.9763 0.02124 0.0
O339 O 0.13822 0.08566 0.05965 0.0
O340 O 0.07481 0.02301 0.04264 0.0
O341 O 0.05292 0.06815 0.94422 0.0
C342 C 0.98709 0.87469 0.05311 0.0
O343 O 0.04387 0.9722 0.9505 0.0
C344 C 0.93124 0.04729 0.99471 0.0
C345 C 1.00253 0.06043 0.12539 0.0
O346 O 1.00679 0.8884 0.00872 0.0
O347 O 0.96931 0.91726 0.07651 0.0
O348 O 0.91791 0.993 0.99171 0.0
O349 O 0.98101 0.05608 0.00781 0.0
O350 O 1.00889 0.00962 0.10548 0.0
O351 O 0.01405 0.10531 0.09982 0.0
C352 C 0.0684 0.20444 -0.00219 0.0
O353 O 0.0509 0.19032 0.04301 0.0
O354 O 0.08427 0.16184 0.97233 0.0
C355 C 0.12411 0.03147 0.05744 0.0
Tb356 Tb 0.29825 0.8493 0.30127 0.0
C357 C 0.37413 0.76039 0.28771 0.0
Tb358 Tb 0.24886 0.73413 0.2794 0.0
O359 O 0.27835 0.85124 0.3859 0.0
O360 O 0.29717 0.77898 0.34734 0.0
O361 O 0.36559 0.80974 0.27397 0.0
C362 C 0.19285 0.64112 0.30148 0.0
O363 O 0.3326 0.72232 0.29428 0.0
C364 C 0.24377 0.7739 0.18449 0.0
C365 C 0.17479 0.82464 0.27522 0.0
O366 O 0.23205 0.64327 0.27046 0.0
O367 O 0.18578 0.69074 0.32018 0.0
O368 O 0.23197 0.72156 0.1917 0.0
O369 O 0.2638 0.8006 0.22906 0.0
O370 O 0.18025 0.77723 0.29513 0.0
O371 O 0.21822 0.86024 0.26945 0.0
C372 C 0.36299 0.94451 0.29858 0.0
O373 O 0.37749 0.8962 0.3011 0.0
O374 O 0.31144 0.94056 0.29914 0.0
C375 C 0.28393 0.79972 0.39127 0.0
Tb376 Tb 0.58663 0.03809 0.53246 0.0
C377 C 0.52993 0.99468 0.63345 0.0
Tb378 Tb 0.47456 0.04367 0.53644 0.0
O379 O 0.61045 0.12681 0.55527 0.0
O380 O 0.54267 0.0849 0.58507 0.0
O381 O 0.57086 0.99197 0.60347 0.0
C382 C 0.38117 0.07886 0.53974 0.0
O383 O 0.48959 0.02025 0.61757 0.0
C384 C 0.49219 0.95001 0.48483 0.0
C385 C 0.5303 0.09164 0.43804 0.0
O386 O 0.38805 0.0274 0.54216 0.0
O387 O 0.42639 0.11007 0.53617 0.0
O388 O 0.45211 0.95482 0.51332 0.0
O389 O 0.51865 0.99748 0.48256 0.0
O390 O 0.48956 0.09299 0.46819 0.0
O391 O 0.57058 0.06491 0.45224 0.0
C392 C 0.68002 0.00209 0.52963 0.0
O393 O 0.67311 0.05328 0.52544 0.0
O394 O 0.63473 0.97133 0.5342 0.0
C395 C 0.56937 0.13205 0.5822 0.0
Tb396 Tb 0.29781 0.29377 0.82571 0.0
C397 C 0.31633 0.39246 0.7537 0.0
Tb398 Tb 0.24493 0.27758 0.71997 0.0
O399 O 0.37762 0.29645 0.79904 0.0
O400 O 0.31209 0.24533 0.75404 0.0
O401 O 0.31835 0.37854 0.80361 0.0
C402 C 0.22737 0.25889 0.61571 0.0
O403 O 0.29184 0.3581 0.71281 0.0
C404 C 0.18279 0.31188 0.79153 0.0
C405 C 0.22949 0.17648 0.7875 0.0
O406 O 0.27404 0.27219 0.64153 0.0
O407 O 0.18973 0.2577 0.64805 0.0
O408 O 0.16526 0.2806 0.74733 0.0
O409 O 0.23263 0.32769 0.79119 0.0
O410 O 0.22766 0.19216 0.7385 0.0
O411 O 0.25292 0.21031 0.82961 0.0
C412 C 0.31684 0.31328 0.93003 0.0
O413 O 0.35221 0.30099 0.89798 0.0
O414 O 0.27108 0.31341 0.90395 0.0
C415 C 0.36186 0.26407 0.755 0.0
Tb416 Tb 0.99347 0.042 0.4868 0.0
C417 C 0.95223 0.0023 0.59077 0.0
Tb418 Tb 0.07676 0.02355 0.57013 0.0
O419 O 0.96564 0.95307 0.46274 0.0
O420 O 0.04392 0.97992 0.49539 0.0
O421 O 0.94239 0.03443 0.55253 0.0
C422 C 0.12925 0.97989 0.64859 0.0
O423 O 1.00115 0.99056 0.60222 0.0
C424 C 0.05621 0.12713 0.57052 0.0
C425 C 0.11672 0.06164 0.46408 0.0
O426 O 0.14155 0.02966 0.63406 0.0
O427 O 0.08843 0.95469 0.61743 0.0
O428 O 0.10349 0.11505 0.58244 0.0
O429 O 0.0236 0.08277 0.56277 0.0
O430 O 0.12773 0.03132 0.50376 0.0
O431 O 0.06807 0.0741 0.45378 0.0
C432 C 0.94363 0.08815 0.40892 0.0
O433 O 0.9226 0.04836 0.4355 0.0
O434 O 0.99103 0.10607 0.43204 0.0
C435 C 1.00902 0.93719 0.48221 0.0
Tb436 Tb 0.33192 0.79018 0.81977 0.0
C437 C 0.22582 0.79479 0.88132 0.0
Tb438 Tb 0.22267 0.76616 0.75462 0.0
O439 O 0.3222 0.87817 0.84397 0.0
O440 O 0.2839 0.83417 0.7735 0.0
O441 O 0.27774 0.79148 0.88374 0.0
C442 C 0.13629 0.76483 0.69143 0.0
O443 O 0.19529 0.78896 0.83488 0.0
C444 C 0.27017 0.67964 0.76825 0.0
C445 C 0.32648 0.77044 0.69106 0.0
O446 O 0.14345 0.72631 0.72259 0.0
O447 O 0.17562 0.80581 0.69852 0.0
O448 O 0.23879 0.68255 0.72592 0.0
O449 O 0.27016 0.72174 0.8014 0.0
O450 O 0.27562 0.7778 0.69086 0.0
O451 O 0.35698 0.76928 0.73694 0.0
C452 C 0.40783 0.7696 0.88937 0.0
O453 O 0.35989 0.74213 0.88165 0.0
O454 O 0.41472 0.80747 0.8557 0.0
C455 C 0.28599 0.87828 0.80447 0.0
Tb456 Tb 0.47004 0.00142 0.02802 0.0
C457 C 0.55346 0.93777 0.07116 0.0
Tb458 Tb 0.5784 0.06226 0.04608 0.0
O459 O 0.49254 0.95109 0.95782 0.0
O460 O 0.52762 0.03255 0.97495 0.0
O461 O 0.50846 0.95435 0.08399 0.0
C462 C 0.68184 0.10683 0.04641 0.0
O463 O 0.58852 0.97306 0.04919 0.0
C464 C 0.5185 0.07851 0.12849 0.0
C465 C 0.48741 0.13058 0.01527 0.0
O466 O 0.65443 0.10423 0.08803 0.0
O467 O 0.65109 0.08366 0.00431 0.0
O468 O 0.55603 0.11486 0.11442 0.0
O469 O 0.52003 0.03337 0.0993 0.0
O470 O 0.53914 0.1276 0.01288 0.0
O471 O 0.45245 0.0861 0.02222 0.0
C472 C 0.37107 0.94631 0.02609 0.0
O473 O 0.38503 0.99887 0.0432 0.0
O474 O 0.41199 0.92586 0.00953 0.0
C475 C 0.52937 0.98842 0.94441 0.0
Tb476 Tb 0.22138 0.27037 0.28789 0.0
C477 C 0.30024 0.30555 0.38571 0.0
Tb478 Tb 0.33857 0.32798 0.27941 0.0
O479 O 0.2409 0.18401 0.29567 0.0
O480 O 0.29858 0.24852 0.28849 0.0
O481 O 0.26031 0.32198 0.3592 0.0
C482 C 0.42509 0.34362 0.2253 0.0
O483 O 0.34483 0.30449 0.36151 0.0
C484 C 0.26569 0.39638 0.29039 0.0
C485 C 0.26376 0.2748 0.1812 0.0
O486 O 0.42334 0.32653 0.27303 0.0
O487 O 0.37937 0.35827 0.21195 0.0
O488 O 0.31595 0.40931 0.30861 0.0
O489 O 0.25917 0.34814 0.26511 0.0
O490 O 0.30434 0.26564 0.21298 0.0
O491 O 0.21849 0.28134 0.20277 0.0
C492 C 0.13421 0.26504 0.33938 0.0
O493 O 0.13814 0.23306 0.29534 0.0
O494 O 0.1768 0.30133 0.35087 0.0
C495 C 0.29221 0.19729 0.29356 0.0
Tb496 Tb 0.49348 0.54192 0.98672 0.0
C497 C 0.45221 0.50226 0.09071 0.0
Tb498 Tb 0.57674 0.52351 0.07009 0.0
O499 O 0.46568 0.45298 0.96268 0.0
O500 O 0.54394 0.47986 0.99535 0.0
O501 O 0.44239 0.53438 0.05245 0.0
C502 C 0.62921 0.47985 0.14857 0.0
O503 O 0.50113 0.49053 0.10217 0.0
C504 C 0.5562 0.62708 0.07045 0.0
C505 C 0.61673 0.56162 0.96406 0.0
O506 O 0.64152 0.52961 0.13403 0.0
O507 O 0.58839 0.45466 0.11741 0.0
O508 O 0.60346 0.61501 0.08241 0.0
O509 O 0.52358 0.58272 0.06269 0.0
O510 O 0.62773 0.53129 0.00373 0.0
O511 O 0.56808 0.57408 0.95374 0.0
C512 C 0.44351 0.58791 0.90881 0.0
O513 O 0.42255 0.54817 0.93548 0.0
O514 O 0.49095 0.60586 0.93182 0.0
C515 C 0.50905 0.43712 0.98216 0.0
Tb516 Tb 0.83191 0.29014 0.31976 0.0
C517 C 0.72582 0.29477 0.38131 0.0
Tb518 Tb 0.72267 0.26615 0.25462 0.0
O519 O 0.82219 0.37813 0.34397 0.0
O520 O 0.7839 0.33415 0.27349 0.0
O521 O 0.77774 0.29144 0.38373 0.0
C522 C 0.63628 0.26482 0.19144 0.0
O523 O 0.6953 0.28896 0.33488 0.0
C524 C 0.77015 0.17962 0.26821 0.0
C525 C 0.82648 0.27043 0.19105 0.0
O526 O 0.64344 0.22631 0.2226 0.0
O527 O 0.67561 0.3058 0.19851 0.0
O528 O 0.73877 0.18255 0.22588 0.0
O529 O 0.77015 0.2217 0.30138 0.0
O530 O 0.77563 0.27781 0.19086 0.0
O531 O 0.85697 0.26925 0.23693 0.0
C532 C 0.90783 0.26957 0.38935 0.0
O533 O 0.8599 0.24209 0.38163 0.0
O534 O 0.91471 0.30745 0.35569 0.0
C535 C 0.78599 0.37826 0.30447 0.0
Tb536 Tb 0.97004 0.50143 0.528 0.0
C537 C 0.05346 0.43779 0.57114 0.0
Tb538 Tb 0.0784 0.56227 0.54607 0.0
O539 O 0.99254 0.45111 0.45781 0.0
O540 O 0.02762 0.53257 0.47494 0.0
O541 O 1.00846 0.45437 0.58397 0.0
C542 C 0.18184 0.60684 0.5464 0.0
O543 O 0.08852 0.47308 0.54917 0.0
C544 C 0.0185 0.57853 0.62847 0.0
C545 C 0.98741 0.6306 0.51527 0.0
O546 O 0.15444 0.60423 0.58802 0.0
O547 O 0.15109 0.58369 0.5043 0.0
O548 O 0.05603 0.61487 0.61441 0.0
O549 O 0.02003 0.53338 0.59928 0.0
O550 O 0.03914 0.62763 0.51288 0.0
O551 O 0.95245 0.58612 0.52221 0.0
C552 C 0.87107 0.44632 0.52608 0.0
O553 O 0.88503 0.49887 0.54319 0.0
O554 O 0.91199 0.42587 0.50952 0.0
C555 C 0.02938 0.48843 0.44439 0.0
Tb556 Tb 0.79781 0.79365 0.32577 0.0
C557 C 0.8164 0.89241 0.25384 0.0
Tb558 Tb 0.74493 0.77758 0.21998 0.0
O559 O 0.87763 0.79634 0.29909 0.0
O560 O 0.81208 0.74529 0.25405 0.0
O561 O 0.81849 0.8784 0.30372 0.0
C562 C 0.72736 0.75891 0.11572 0.0
O563 O 0.79182 0.85814 0.21292 0.0
C564 C 0.68279 0.81182 0.29157 0.0
C565 C 0.72945 0.67643 0.2875 0.0
O566 O 0.77404 0.77224 0.14154 0.0
O567 O 0.68973 0.75768 0.14807 0.0
O568 O 0.66525 0.78063 0.24733 0.0
O569 O 0.73264 0.8276 0.29126 0.0
O570 O 0.72764 0.69214 0.2385 0.0
O571 O 0.75288 0.71022 0.32963 0.0
C572 C 0.81683 0.81321 0.43008 0.0
O573 O 0.85214 0.80066 0.39807 0.0
O574 O 0.77113 0.81355 0.40398 0.0
C575 C 0.86185 0.76402 0.25502 0.0
Tb576 Tb 0.79826 0.3493 0.80127 0.0
C577 C 0.87413 0.26038 0.78771 0.0
Tb578 Tb 0.74886 0.23412 0.7794 0.0
O579 O 0.77836 0.35124 0.88591 0.0
O580 O 0.79716 0.27897 0.84734 0.0
O581 O 0.86558 0.30973 0.77396 0.0
C582 C 0.69283 0.14111 0.80148 0.0
O583 O 0.83259 0.22231 0.79428 0.0
C584 C 0.74375 0.27391 0.6845 0.0
C585 C 0.6748 0.32464 0.77524 0.0
O586 O 0.73204 0.14327 0.77046 0.0
O587 O 0.68577 0.19074 0.82018 0.0
O588 O 0.73196 0.22156 0.6917 0.0
O589 O 0.76382 0.30059 0.72906 0.0
O590 O 0.68025 0.27724 0.79515 0.0
O591 O 0.71823 0.36025 0.76947 0.0
C592 C 0.86299 0.4445 0.79859 0.0
O593 O 0.8775 0.3962 0.80112 0.0
O594 O 0.81145 0.44056 0.79913 0.0
C595 C 0.78393 0.29971 0.89127 0.0
Tb596 Tb 0.72137 0.77037 0.78791 0.0
C597 C 0.80023 0.80554 0.88573 0.0
Tb598 Tb 0.83857 0.82797 0.77943 0.0
O599 O 0.7409 0.684 0.79568 0.0
O600 O 0.79857 0.74852 0.78851 0.0
O601 O 0.7603 0.82197 0.85922 0.0
C602 C 0.92509 0.84361 0.72533 0.0
O603 O 0.84483 0.80448 0.86153 0.0
C604 C 0.76569 0.89638 0.79041 0.0
C605 C 0.76375 0.7748 0.68122 0.0
O606 O 0.92333 0.82651 0.77305 0.0
O607 O 0.87937 0.85827 0.71197 0.0
O608 O 0.81595 0.9093 0.80863 0.0
O609 O 0.75917 0.84814 0.76513 0.0
O610 O 0.80433 0.76564 0.71301 0.0
O611 O 0.71848 0.78134 0.70279 0.0
C612 C 0.63421 0.76504 0.83939 0.0
O613 O 0.63813 0.73306 0.79535 0.0
O614 O 0.67679 0.80133 0.85088 0.0
C615 C 0.7922 0.69728 0.79357 0.0
Tb616 Tb 0.55797 0.60231 0.52826 0.0
C617 C 0.55878 0.51675 0.42541 0.0
Tb618 Tb 0.49865 0.47632 0.52129 0.0
O619 O 0.63826 0.58567 0.55963 0.0
O620 O 0.57483 0.52303 0.54265 0.0
O621 O 0.55293 0.56815 0.44423 0.0
C622 C 0.4871 0.37471 0.55316 0.0
O623 O 0.54387 0.4722 0.45053 0.0
C624 C 0.43126 0.54731 0.49475 0.0
C625 C 0.50258 0.56048 0.62542 0.0
O626 O 0.5068 0.38842 0.50875 0.0
O627 O 0.46934 0.41729 0.57656 0.0
O628 O 0.41793 0.49302 0.49177 0.0
O629 O 0.48103 0.5561 0.50784 0.0
O630 O 0.50892 0.50966 0.60553 0.0
O631 O 0.51409 0.60534 0.59983 0.0
C632 C 0.56843 0.70444 0.49778 0.0
O633 O 0.55097 0.69034 0.543 0.0
O634 O 0.58428 0.66183 0.4723 0.0
C635 C 0.62414 0.53149 0.55744 0.0
Tb636 Tb 0.08664 0.53809 0.03244 0.0
C637 C 0.02994 0.49469 0.13344 0.0
Tb638 Tb 0.97457 0.54366 0.03643 0.0
O639 O 0.11045 0.62681 0.05525 0.0
O640 O 0.04268 0.5849 0.08505 0.0
O641 O 0.07087 0.49198 0.10345 0.0
C642 C 0.88118 0.57885 0.03973 0.0
O643 O 0.9896 0.52025 0.11756 0.0
C644 C 0.9922 0.45 0.98481 0.0
C645 C 0.03031 0.59164 0.93802 0.0
O646 O 0.88806 0.52739 0.04214 0.0
O647 O 0.92639 0.61007 0.03616 0.0
O648 O 0.95212 0.45482 0.01331 0.0
O649 O 0.01866 0.49748 0.98254 0.0
O650 O 0.98956 0.59299 0.96817 0.0
O651 O 0.07058 0.56492 0.95223 0.0
C652 C 0.18002 0.50209 0.02961 0.0
O653 O 0.17311 0.55327 0.02542 0.0
O654 O 0.13473 0.47133 0.03416 0.0
C655 C 0.06937 0.63205 0.08218 0.0
loop_
_geom_bond_atom_site_label_1
_geom_bond_atom_site_label_2
_geom_bond_distance
_geom_bond_site_symmetry_2
_ccdc_geom_bond_type
Zn0 O3 2.031 . S
Zn0 O5 2.049 . S
Zn0 O10 2.067 . S
Zn1 O2 1.962 . S
Zn1 O4 1.986 . S
Zn1 O6 1.996 . S
Zn1 O9 1.943 1_455 S
O2 Zn1 1.962 . S
O2 C7 1.254 . S
O3 Zn0 2.031 . S
O3 C7 1.269 1_655 S
O4 Zn1 1.986 . S
O4 C11 1.262 . S
O5 Zn0 2.049 . S
O5 C13 1.246 1_655 S
O6 Zn1 1.996 . S
O6 C13 1.263 . S
C7 O2 1.254 . S
C7 O3 1.269 1_455 S
C8 O9 1.249 . S
C8 O10 1.270 . S
O9 Zn1 1.943 1_655 S
O9 C8 1.249 . S
O10 Zn0 2.067 . S
O10 C8 1.270 . S
C11 O4 1.262 . S
C11 O12 1.232 . S
O12 C11 1.232 . S
C13 O5 1.246 1_455 S
C13 O6 1.263 . S
Zn14 O17 2.031 1_455 S
Zn14 O19 2.049 . S
Zn14 O24 2.067 . S
Zn15 O16 1.961 . S
Zn15 O18 1.986 1_655 S
Zn15 O20 1.997 1_655 S
Zn15 O23 1.943 . S
O16 Zn15 1.961 . S
O16 C21 1.254 . S
O17 Zn14 2.031 1_655 S
O17 C21 1.269 . S
O18 Zn15 1.986 1_455 S
O18 C25 1.262 . S
O19 Zn14 2.049 . S
O19 C27 1.260 . S
O20 Zn15 1.997 1_455 S
O20 C27 1.257 . S
C21 O16 1.254 . S
C21 O17 1.269 . S
C22 O23 1.249 . S
C22 O24 1.270 1_655 S
O23 Zn15 1.943 . S
O23 C22 1.249 . S
O24 Zn14 2.067 . S
O24 C22 1.270 1_455 S
C25 O18 1.262 . S
C25 O26 1.232 1_455 S
O26 C25 1.232 1_655 S
C27 O19 1.260 . S
C27 O20 1.257 . S
Zn28 O31 2.031 1_554 S
Zn28 O33 2.049 . S
Zn28 O38 2.067 1_554 S
Zn29 O30 1.962 . S
Zn29 O32 1.986 . S
Zn29 O34 1.996 . S
Zn29 O37 1.943 . S
O30 Zn29 1.962 . S
O30 C35 1.254 . S
O31 Zn28 2.031 1_556 S
O31 C35 1.269 . S
O32 Zn29 1.986 . S
O32 C39 1.262 . S
O33 Zn28 2.049 . S
O33 C41 1.260 . S
O34 Zn29 1.996 . S
O34 C41 1.257 1_556 S
C35 O30 1.254 . S
C35 O31 1.269 . S
C36 O37 1.249 . S
C36 O38 1.270 . S
O37 Zn29 1.943 . S
O37 C36 1.249 . S
O38 Zn28 2.067 1_556 S
O38 C36 1.270 . S
C39 O32 1.262 . S
C39 O40 1.232 . S
O40 C39 1.232 . S
C41 O33 1.260 . S
C41 O34 1.257 1_554 S
Zn42 O45 2.031 . S
Zn42 O47 2.049 . S
Zn42 O52 2.067 . S
Zn43 O44 1.962 . S
Zn43 O46 1.986 . S
Zn43 O48 1.996 . S
Zn43 O51 1.943 . S
O44 Zn43 1.962 . S
O44 C49 1.254 . S
O45 Zn42 2.031 . S
O45 C49 1.269 . S
O46 Zn43 1.986 . S
O46 C53 1.262 . S
O47 Zn42 2.049 . S
O47 C55 1.260 . S
O48 Zn43 1.996 . S
O48 C55 1.257 . S
C49 O44 1.254 . S
C49 O45 1.269 . S
C50 O51 1.249 . S
C50 O52 1.270 . S
O51 Zn43 1.943 . S
O51 C50 1.249 . S
O52 Zn42 2.067 . S
O52 C50 1.270 . S
C53 O46 1.262 . S
C53 O54 1.232 . S
O54 C53 1.232 . S
C55 O47 1.260 . S
C55 O48 1.257 . S
Zn56 O59 2.031 . S
Zn56 O61 2.049 . S
Zn56 O66 2.067 . S
Zn57 O58 1.962 . S
Zn57 O60 1.986 . S
Zn57 O62 2.002 . S
Zn57 O65 1.943 1_655 S
O58 Zn57 1.962 . S
O58 C63 1.254 1_655 S
O59 Zn56 2.031 . S
O59 C63 1.269 . S
O60 Zn57 1.986 . S
O60 C67 1.262 . S
O61 Zn56 2.049 . S
O61 C69 1.260 . S
O62 Zn57 2.002 . S
O62 C69 1.247 1_655 S
C63 O58 1.254 1_455 S
C63 O59 1.269 . S
C64 O65 1.249 . S
C64 O66 1.270 . S
O65 Zn57 1.943 1_455 S
O65 C64 1.249 . S
O66 Zn56 2.067 . S
O66 C64 1.270 . S
C67 O60 1.262 . S
C67 O68 1.232 . S
O68 C67 1.232 . S
C69 O61 1.260 . S
C69 O62 1.247 1_455 S
Zn70 O73 2.031 . S
Zn70 O75 2.049 . S
Zn70 O80 2.067 . S
Zn71 O72 1.962 . S
Zn71 O74 1.986 . S
Zn71 O76 1.996 . S
Zn71 O79 1.943 . S
O72 Zn71 1.962 . S
O72 C77 1.254 . S
O73 Zn70 2.031 . S
O73 C77 1.269 . S
O74 Zn71 1.986 . S
O74 C81 1.262 . S
O75 Zn70 2.049 . S
O75 C83 1.260 . S
O76 Zn71 1.996 . S
O76 C83 1.257 . S
C77 O72 1.254 . S
C77 O73 1.269 . S
C78 O79 1.249 . S
C78 O80 1.270 . S
O79 Zn71 1.943 . S
O79 C78 1.249 . S
O80 Zn70 2.067 . S
O80 C78 1.270 . S
C81 O74 1.262 . S
C81 O82 1.232 . S
O82 C81 1.232 . S
C83 O75 1.260 . S
C83 O76 1.257 . S
Zn84 O87 2.031 . S
Zn84 O89 2.049 . S
Zn84 O94 2.067 . S
Zn85 O86 1.962 . S
Zn85 O88 1.986 . S
Zn85 O90 1.996 . S
Zn85 O93 1.943 . S
O86 Zn85 1.962 . S
O86 C91 1.254 . S
O87 Zn84 2.031 . S
O87 C91 1.269 . S
O88 Zn85 1.986 . S
O88 C95 1.262 . S
O89 Zn84 2.049 . S
O89 C97 1.260 . S
O90 Zn85 1.996 . S
O90 C97 1.257 . S
C91 O86 1.254 . S
C91 O87 1.269 . S
C92 O93 1.249 . S
C92 O94 1.270 . S
O93 Zn85 1.943 . S
O93 C92 1.249 . S
O94 Zn84 2.067 . S
O94 C92 1.270 . S
C95 O88 1.262 . S
C95 O96 1.232 . S
O96 C95 1.232 . S
C97 O89 1.260 . S
C97 O90 1.257 . S
Zn98 O101 2.031 . S
Zn98 O103 2.049 . S
Zn98 O108 2.067 . S
Zn99 O100 1.962 . S
Zn99 O102 1.986 . S
Zn99 O104 1.996 . S
Zn99 O107 1.943 1_455 S
O100 Zn99 1.962 . S
O100 C105 1.254 . S
O101 Zn98 2.031 . S
O101 C105 1.269 1_655 S
O102 Zn99 1.986 . S
O102 C109 1.262 . S
O103 Zn98 2.049 . S
O103 C111 1.260 . S
O104 Zn99 1.996 . S
O104 C111 1.257 1_455 S
C105 O100 1.254 . S
C105 O101 1.269 1_455 S
C106 O107 1.249 . S
C106 O108 1.270 . S
O107 Zn99 1.943 1_655 S
O107 C106 1.249 . S
O108 Zn98 2.067 . S
O108 C106 1.270 . S
C109 O102 1.262 . S
C109 O110 1.232 . S
O110 C109 1.232 . S
C111 O103 1.260 . S
C111 O104 1.257 1_655 S
Zn112 O115 2.031 1_565 S
Zn112 O117 2.049 1_565 S
Zn112 O122 2.067 . S
Zn113 O114 1.962 . S
Zn113 O116 1.986 . S
Zn113 O118 1.996 . S
Zn113 O121 1.943 . S
O114 Zn113 1.962 . S
O114 C119 1.254 . S
O115 Zn112 2.031 1_545 S
O115 C119 1.269 . S
O116 Zn113 1.986 . S
O116 C123 1.262 . S
O117 Zn112 2.049 1_545 S
O117 C125 1.260 . S
O118 Zn113 1.996 . S
O118 C125 1.257 . S
C119 O114 1.254 . S
C119 O115 1.269 . S
C120 O121 1.249 1_565 S
C120 O122 1.270 . S
O121 Zn113 1.943 . S
O121 C120 1.249 1_545 S
O122 Zn112 2.067 . S
O122 C120 1.270 . S
C123 O116 1.262 . S
C123 O124 1.232 . S
O124 C123 1.232 . S
C125 O117 1.260 . S
C125 O118 1.257 . S
Zn126 O129 2.031 . S
Zn126 O131 2.049 . S
Zn126 O136 2.067 . S
Zn127 O128 1.962 . S
Zn127 O130 1.986 . S
Zn127 O132 1.996 . S
Zn127 O135 1.943 . S
O128 Zn127 1.962 . S
O128 C133 1.254 . S
O129 Zn126 2.031 . S
O129 C133 1.269 . S
O130 Zn127 1.986 . S
O130 C137 1.262 . S
O131 Zn126 2.049 . S
O131 C139 1.260 . S
O132 Zn127 1.996 . S
O132 C139 1.257 . S
C133 O128 1.254 . S
C133 O129 1.269 . S
C134 O135 1.249 . S
C134 O136 1.270 . S
O135 Zn127 1.943 . S
O135 C134 1.249 . S
O136 Zn126 2.067 . S
O136 C134 1.270 . S
C137 O130 1.262 . S
C137 O138 1.232 . S
O138 C137 1.232 . S
C139 O131 1.260 . S
C139 O132 1.257 . S
Zn140 O143 2.031 . S
Zn140 O145 2.049 . S
Zn140 O150 2.067 . S
Zn141 O142 1.962 . S
Zn141 O144 1.986 . S
Zn141 O146 1.996 . S
Zn141 O149 1.943 1_565 S
O142 Zn141 1.962 . S
O142 C147 1.254 1_565 S
O143 Zn140 2.031 . S
O143 C147 1.269 . S
O144 Zn141 1.986 . S
O144 C151 1.262 . S
O145 Zn140 2.049 . S
O145 C153 1.260 . S
O146 Zn141 1.996 . S
O146 C153 1.257 1_565 S
C147 O142 1.254 1_545 S
C147 O143 1.269 . S
C148 O149 1.249 . S
C148 O150 1.270 . S
O149 Zn141 1.943 1_545 S
O149 C148 1.249 . S
O150 Zn140 2.067 . S
O150 C148 1.270 . S
C151 O144 1.262 . S
C151 O152 1.232 . S
O152 C151 1.232 . S
C153 O145 1.260 . S
C153 O146 1.257 1_545 S
Zn154 O157 2.031 1_554 S
Zn154 O159 2.049 . S
Zn154 O164 2.067 . S
Zn155 O156 1.962 1_554 S
Zn155 O158 1.986 . S
Zn155 O160 1.996 . S
Zn155 O163 1.943 . S
O156 Zn155 1.962 1_556 S
O156 C161 1.254 . S
O157 Zn154 2.031 1_556 S
O157 C161 1.269 . S
O158 Zn155 1.986 . S
O158 C165 1.262 . S
O159 Zn154 2.049 . S
O159 C167 1.260 . S
O160 Zn155 1.996 . S
O160 C167 1.257 . S
C161 O156 1.254 . S
C161 O157 1.269 . S
C162 O163 1.249 . S
C162 O164 1.270 . S
O163 Zn155 1.943 . S
O163 C162 1.249 . S
O164 Zn154 2.067 . S
O164 C162 1.270 . S
C165 O158 1.262 . S
C165 O166 1.232 . S
O166 C165 1.232 . S
C167 O159 1.260 . S
C167 O160 1.257 . S
Zn168 O171 2.031 . S
Zn168 O173 2.049 . S
Zn168 O178 2.067 . S
Zn169 O170 1.962 1_554 S
Zn169 O172 1.986 . S
Zn169 O174 1.996 . S
Zn169 O177 1.943 . S
O170 Zn169 1.962 1_556 S
O170 C175 1.254 . S
O171 Zn168 2.031 . S
O171 C175 1.269 1_554 S
O172 Zn169 1.986 . S
O172 C179 1.262 . S
O173 Zn168 2.049 . S
O173 C181 1.260 . S
O174 Zn169 1.996 . S
O174 C181 1.257 . S
C175 O170 1.254 . S
C175 O171 1.269 1_556 S
C176 O177 1.249 . S
C176 O178 1.270 . S
O177 Zn169 1.943 . S
O177 C176 1.249 . S
O178 Zn168 2.067 . S
O178 C176 1.270 . S
C179 O172 1.262 . S
C179 O180 1.232 . S
O180 C179 1.232 . S
C181 O173 1.260 . S
C181 O174 1.257 . S
Zn182 O185 2.031 1_554 S
Zn182 O187 2.049 . S
Zn182 O192 2.067 . S
Zn183 O184 1.962 1_554 S
Zn183 O186 1.986 . S
Zn183 O188 1.996 . S
Zn183 O191 1.943 . S
O184 Zn183 1.962 1_556 S
O184 C189 1.254 . S
O185 Zn182 2.031 1_556 S
O185 C189 1.269 . S
O186 Zn183 1.986 . S
O186 C193 1.262 . S
O187 Zn182 2.049 . S
O187 C195 1.260 . S
O188 Zn183 1.996 . S
O188 C195 1.257 . S
C189 O184 1.254 . S
C189 O185 1.269 . S
C190 O191 1.249 . S
C190 O192 1.270 . S
O191 Zn183 1.943 . S
O191 C190 1.249 . S
O192 Zn182 2.067 . S
O192 C190 1.270 . S
C193 O186 1.262 . S
C193 O194 1.232 1_554 S
O194 C193 1.232 1_556 S
C195 O187 1.260 . S
C195 O188 1.257 . S
Zn196 O199 2.031 . S
Zn196 O201 2.049 . S
Zn196 O206 2.067 . S
Zn197 O198 1.962 . S
Zn197 O200 1.986 . S
Zn197 O202 1.996 . S
Zn197 O205 1.943 . S
O198 Zn197 1.962 . S
O198 C203 1.254 . S
O199 Zn196 2.031 . S
O199 C203 1.269 . S
O200 Zn197 1.986 . S
O200 C207 1.262 . S
O201 Zn196 2.049 . S
O201 C209 1.260 . S
O202 Zn197 1.996 . S
O202 C209 1.257 . S
C203 O198 1.254 . S
C203 O199 1.269 . S
C204 O205 1.249 . S
C204 O206 1.270 . S
O205 Zn197 1.943 . S
O205 C204 1.249 . S
O206 Zn196 2.067 . S
O206 C204 1.270 . S
C207 O200 1.262 . S
C207 O208 1.232 . S
O208 C207 1.232 . S
C209 O201 1.260 . S
C209 O202 1.257 . S
Zn210 O213 2.031 . S
Zn210 O215 2.049 . S
Zn210 O220 2.067 . S
Zn211 O212 1.962 . S
Zn211 O214 1.986 . S
Zn211 O216 1.996 . S
Zn211 O219 1.943 . S
O212 Zn211 1.962 . S
O212 C217 1.254 . S
O213 Zn210 2.031 . S
O213 C217 1.269 . S
O214 Zn211 1.986 . S
O214 C221 1.262 . S
O215 Zn210 2.049 . S
O215 C223 1.260 . S
O216 Zn211 1.996 . S
O216 C223 1.257 . S
C217 O212 1.254 . S
C217 O213 1.269 . S
C218 O219 1.249 . S
C218 O220 1.270 . S
O219 Zn211 1.943 . S
O219 C218 1.249 . S
O220 Zn210 2.067 . S
O220 C218 1.270 . S
C221 O214 1.262 . S
C221 O222 1.232 . S
O222 C221 1.232 . S
C223 O215 1.260 . S
C223 O216 1.257 . S
Zn224 O227 2.031 1_565 S
Zn224 O229 2.049 1_565 S
Zn224 O234 2.067 . S
Zn225 O226 1.962 . S
Zn225 O228 1.986 . S
Zn225 O230 1.996 . S
Zn225 O233 1.943 . S
O226 Zn225 1.962 . S
O226 C231 1.254 . S
O227 Zn224 2.031 1_545 S
O227 C231 1.269 . S
O228 Zn225 1.986 . S
O228 C235 1.262 . S
O229 Zn224 2.049 1_545 S
O229 C237 1.260 . S
O230 Zn225 1.996 . S
O230 C237 1.257 . S
C231 O226 1.254 . S
C231 O227 1.269 . S
C232 O233 1.249 1_565 S
C232 O234 1.270 . S
O233 Zn225 1.943 . S
O233 C232 1.249 1_545 S
O234 Zn224 2.067 . S
O234 C232 1.270 . S
C235 O228 1.262 . S
C235 O236 1.232 . S
O236 C235 1.232 . S
C237 O229 1.260 . S
C237 O230 1.257 . S
Zn238 O241 2.031 . S
Zn238 O243 2.049 . S
Zn238 O248 2.067 . S
Zn239 O240 1.962 . S
Zn239 O242 1.986 . S
Zn239 O244 1.996 . S
Zn239 O247 1.943 . S
O240 Zn239 1.962 . S
O240 C245 1.254 . S
O241 Zn238 2.031 . S
O241 C245 1.269 . S
O242 Zn239 1.986 . S
O242 C249 1.262 . S
O243 Zn238 2.049 . S
O243 C251 1.260 . S
O244 Zn239 1.996 . S
O244 C251 1.257 . S
C245 O240 1.254 . S
C245 O241 1.269 . S
C246 O247 1.249 . S
C246 O248 1.270 . S
O247 Zn239 1.943 . S
O247 C246 1.249 . S
O248 Zn238 2.067 . S
O248 C246 1.270 . S
C249 O242 1.262 . S
C249 O250 1.232 . S
O250 C249 1.232 . S
C251 O243 1.260 . S
C251 O244 1.257 . S
Zn252 O255 2.031 . S
Zn252 O257 2.049 . S
Zn252 O262 2.067 . S
Zn253 O254 1.962 . S
Zn253 O256 1.986 . S
Zn253 O258 1.996 . S
Zn253 O261 1.943 . S
O254 Zn253 1.962 . S
O254 C259 1.254 . S
O255 Zn252 2.031 . S
O255 C259 1.269 . S
O256 Zn253 1.986 . S
O256 C263 1.262 . S
O257 Zn252 2.049 . S
O257 C265 1.260 . S
O258 Zn253 1.996 . S
O258 C265 1.257 . S
C259 O254 1.254 . S
C259 O255 1.269 . S
C260 O261 1.249 . S
C260 O262 1.270 . S
O261 Zn253 1.943 . S
O261 C260 1.249 . S
O262 Zn252 2.067 . S
O262 C260 1.270 . S
C263 O256 1.262 . S
C263 O264 1.232 . S
O264 C263 1.232 . S
C265 O257 1.260 . S
C265 O258 1.257 . S
Zn266 O269 2.031 . S
Zn266 O271 2.049 . S
Zn266 O276 2.067 . S
Zn267 O268 1.962 . S
Zn267 O270 1.986 . S
Zn267 O272 1.996 . S
Zn267 O275 1.943 1_565 S
O268 Zn267 1.962 . S
O268 C273 1.254 1_565 S
O269 Zn266 2.031 . S
O269 C273 1.269 . S
O270 Zn267 1.986 . S
O270 C277 1.262 . S
O271 Zn266 2.049 . S
O271 C279 1.260 . S
O272 Zn267 1.996 . S
O272 C279 1.257 1_565 S
C273 O268 1.254 1_545 S
C273 O269 1.269 . S
C274 O275 1.249 . S
C274 O276 1.270 . S
O275 Zn267 1.943 1_545 S
O275 C274 1.249 . S
O276 Zn266 2.067 . S
O276 C274 1.270 . S
C277 O270 1.262 . S
C277 O278 1.232 . S
O278 C277 1.232 . S
C279 O271 1.260 . S
C279 O272 1.257 1_545 S
Zn280 O283 2.031 1_554 S
Zn280 O285 2.049 . S
Zn280 O290 2.067 . S
Zn281 O282 1.962 . S
Zn281 O284 1.986 1_556 S
Zn281 O286 1.996 1_556 S
Zn281 O289 1.943 . S
O282 Zn281 1.962 . S
O282 C287 1.254 . S
O283 Zn280 2.031 1_556 S
O283 C287 1.269 . S
O284 Zn281 1.986 1_554 S
O284 C291 1.262 1_554 S
O285 Zn280 2.049 . S
O285 C293 1.260 . S
O286 Zn281 1.996 1_554 S
O286 C293 1.257 . S
C287 O282 1.254 . S
C287 O283 1.269 . S
C288 O289 1.249 . S
C288 O290 1.270 1_556 S
O289 Zn281 1.943 . S
O289 C288 1.249 . S
O290 Zn280 2.067 . S
O290 C288 1.270 1_554 S
C291 O284 1.262 1_556 S
C291 O292 1.232 . S
O292 C291 1.232 . S
C293 O285 1.260 . S
C293 O286 1.257 . S
Zn294 O297 2.031 . S
Zn294 O299 2.049 . S
Zn294 O304 2.067 . S
Zn295 O296 1.962 . S
Zn295 O298 1.986 . S
Zn295 O300 1.996 . S
Zn295 O303 1.943 . S
O296 Zn295 1.962 . S
O296 C301 1.254 . S
O297 Zn294 2.031 . S
O297 C301 1.269 . S
O298 Zn295 1.986 . S
O298 C305 1.262 . S
O299 Zn294 2.049 . S
O299 C307 1.260 . S
O300 Zn295 1.996 . S
O300 C307 1.257 . S
C301 O296 1.254 . S
C301 O297 1.269 . S
C302 O303 1.249 . S
C302 O304 1.270 . S
O303 Zn295 1.943 . S
O303 C302 1.249 . S
O304 Zn294 2.067 . S
O304 C302 1.270 . S
C305 O298 1.262 . S
C305 O306 1.232 . S
O306 C305 1.232 . S
C307 O299 1.260 . S
C307 O300 1.257 . S
Zn308 O311 2.031 . S
Zn308 O313 2.049 . S
Zn308 O318 2.067 . S
Zn309 O310 1.962 . S
Zn309 O312 1.986 . S
Zn309 O314 1.996 . S
Zn309 O317 1.943 . S
O310 Zn309 1.962 . S
O310 C315 1.254 . S
O311 Zn308 2.031 . S
O311 C315 1.269 . S
O312 Zn309 1.986 . S
O312 C319 1.262 . S
O313 Zn308 2.049 . S
O313 C321 1.260 . S
O314 Zn309 1.996 . S
O314 C321 1.257 . S
C315 O310 1.254 . S
C315 O311 1.269 . S
C316 O317 1.249 . S
C316 O318 1.270 . S
O317 Zn309 1.943 . S
O317 C316 1.249 . S
O318 Zn308 2.067 . S
O318 C316 1.270 . S
C319 O312 1.262 . S
C319 O320 1.232 . S
O320 C319 1.232 . S
C321 O313 1.260 . S
C321 O314 1.257 . S
Zn322 O325 2.031 . S
Zn322 O327 2.049 . S
Zn322 O332 2.067 . S
Zn323 O324 1.962 . S
Zn323 O326 1.986 . S
Zn323 O328 1.996 . S
Zn323 O331 1.943 . S
O324 Zn323 1.962 . S
O324 C329 1.254 . S
O325 Zn322 2.031 . S
O325 C329 1.269 . S
O326 Zn323 1.986 . S
O326 C333 1.262 . S
O327 Zn322 2.049 . S
O327 C335 1.260 . S
O328 Zn323 1.996 . S
O328 C335 1.257 . S
C329 O324 1.254 . S
C329 O325 1.269 . S
C330 O331 1.249 . S
C330 O332 1.270 . S
O331 Zn323 1.943 . S
O331 C330 1.249 . S
O332 Zn322 2.067 . S
O332 C330 1.270 . S
C333 O326 1.262 . S
C333 O334 1.232 . S
O334 C333 1.232 . S
C335 O327 1.260 . S
C335 O328 1.257 . S
Tb336 O339 2.453 . S
Tb336 O340 2.596 . S
Tb336 O341 2.374 1_554 S
Tb336 O349 2.343 1_455 S
Tb336 O351 2.353 . S
Tb336 O353 2.427 . S
Tb336 O354 2.513 1_554 S
C337 O341 1.251 . S
C337 O343 1.263 1_545 S
Tb338 O340 2.343 1_665 S
Tb338 O343 2.353 1_654 S
Tb338 O346 2.414 1_655 S
Tb338 O347 2.513 . S
Tb338 O348 2.453 1_564 S
Tb338 O349 2.596 1_565 S
Tb338 O350 2.374 1_565 S
O339 Tb336 2.453 . S
O339 C355 1.245 . S
O340 Tb336 2.596 . S
O340 Tb338 2.343 1_445 S
O340 C355 1.259 . S
O341 Tb336 2.374 1_556 S
O341 C337 1.251 . S
C342 O346 1.275 . S
C342 O347 1.246 1_455 S
O343 C337 1.263 1_565 S
O343 Tb338 2.353 1_456 S
C344 O348 1.245 1_554 S
C344 O349 1.259 . S
C345 O350 1.250 . S
C345 O351 1.263 1_655 S
O346 Tb338 2.414 1_455 S
O346 C342 1.275 . S
O347 Tb338 2.513 . S
O347 C342 1.246 1_655 S
O348 Tb338 2.453 1_546 S
O348 C344 1.245 1_556 S
O349 Tb336 2.343 1_655 S
O349 Tb338 2.596 1_545 S
O349 C344 1.259 . S
O350 Tb338 2.374 1_545 S
O350 C345 1.250 . S
O351 Tb336 2.353 . S
O351 C345 1.263 1_455 S
C352 O353 1.275 . S
C352 O354 1.246 1_554 S
O353 Tb336 2.427 . S
O353 C352 1.275 . S
O354 Tb336 2.513 1_556 S
O354 C352 1.246 1_556 S
C355 O339 1.245 . S
C355 O340 1.259 . S
Tb356 O359 2.453 . S
Tb356 O360 2.596 . S
Tb356 O361 2.374 . S
Tb356 O369 2.343 . S
Tb356 O371 2.353 . S
Tb356 O373 2.427 . S
Tb356 O374 2.513 . S
C357 O361 1.251 . S
C357 O363 1.263 . S
Tb358 O360 2.343 . S
Tb358 O363 2.353 . S
Tb358 O366 2.427 . S
Tb358 O367 2.513 . S
Tb358 O368 2.453 . S
Tb358 O369 2.596 . S
Tb358 O370 2.374 . S
O359 Tb356 2.453 . S
O359 C375 1.245 . S
O360 Tb356 2.596 . S
O360 Tb358 2.343 . S
O360 C375 1.259 . S
O361 Tb356 2.374 . S
O361 C357 1.251 . S
C362 O366 1.275 . S
C362 O367 1.246 . S
O363 C357 1.263 . S
O363 Tb358 2.353 . S
C364 O368 1.245 . S
C364 O369 1.259 . S
C365 O370 1.250 . S
C365 O371 1.263 . S
O366 Tb358 2.427 . S
O366 C362 1.275 . S
O367 Tb358 2.513 . S
O367 C362 1.246 . S
O368 Tb358 2.453 . S
O368 C364 1.245 . S
O369 Tb356 2.343 . S
O369 Tb358 2.596 . S
O369 C364 1.259 . S
O370 Tb358 2.374 . S
O370 C365 1.250 . S
O371 Tb356 2.353 . S
O371 C365 1.263 . S
C372 O373 1.275 . S
C372 O374 1.246 . S
O373 Tb356 2.427 . S
O373 C372 1.275 . S
O374 Tb356 2.513 . S
O374 C372 1.246 . S
C375 O359 1.245 . S
C375 O360 1.259 . S
Tb376 O379 2.453 . S
Tb376 O380 2.596 . S
Tb376 O381 2.374 . S
Tb376 O389 2.343 1_545 S
Tb376 O391 2.353 . S
Tb376 O393 2.427 . S
Tb376 O394 2.513 1_545 S
C377 O381 1.251 . S
C377 O383 1.263 1_545 S
Tb378 O380 2.343 . S
Tb378 O383 2.353 1_545 S
Tb378 O386 2.427 . S
Tb378 O387 2.513 . S
Tb378 O388 2.453 1_545 S
Tb378 O389 2.596 1_545 S
Tb378 O390 2.374 . S
O379 Tb376 2.453 . S
O379 C395 1.245 . S
O380 Tb376 2.596 . S
O380 Tb378 2.343 . S
O380 C395 1.259 . S
O381 Tb376 2.374 . S
O381 C377 1.251 . S
C382 O386 1.275 . S
C382 O387 1.246 . S
O383 C377 1.263 1_565 S
O383 Tb378 2.353 1_565 S
C384 O388 1.245 . S
C384 O389 1.259 . S
C385 O390 1.250 . S
C385 O391 1.263 . S
O386 Tb378 2.427 . S
O386 C382 1.275 . S
O387 Tb378 2.513 . S
O387 C382 1.246 . S
O388 Tb378 2.453 1_565 S
O388 C384 1.245 . S
O389 Tb376 2.343 1_565 S
O389 Tb378 2.596 1_565 S
O389 C384 1.259 . S
O390 Tb378 2.374 . S
O390 C385 1.250 . S
O391 Tb376 2.353 . S
O391 C385 1.263 . S
C392 O393 1.275 1_565 S
C392 O394 1.246 . S
O393 Tb376 2.427 . S
O393 C392 1.275 1_545 S
O394 Tb376 2.513 1_565 S
O394 C392 1.246 . S
C395 O379 1.245 . S
C395 O380 1.259 . S
Tb396 O399 2.453 . S
Tb396 O400 2.596 . S
Tb396 O401 2.374 . S
Tb396 O409 2.343 . S
Tb396 O411 2.353 . S
Tb396 O413 2.427 . S
Tb396 O414 2.513 . S
C397 O401 1.251 . S
C397 O403 1.263 . S
Tb398 O400 2.343 . S
Tb398 O403 2.353 . S
Tb398 O406 2.427 . S
Tb398 O407 2.513 . S
Tb398 O408 2.453 . S
Tb398 O409 2.596 . S
Tb398 O410 2.374 . S
O399 Tb396 2.453 . S
O399 C415 1.245 . S
O400 Tb396 2.596 . S
O400 Tb398 2.343 . S
O400 C415 1.259 . S
O401 Tb396 2.374 . S
O401 C397 1.251 . S
C402 O406 1.275 . S
C402 O407 1.246 . S
O403 C397 1.263 . S
O403 Tb398 2.353 . S
C404 O408 1.245 . S
C404 O409 1.259 . S
C405 O410 1.250 . S
C405 O411 1.263 . S
O406 Tb398 2.427 . S
O406 C402 1.275 . S
O407 Tb398 2.513 . S
O407 C402 1.246 . S
O408 Tb398 2.453 . S
O408 C404 1.245 . S
O409 Tb396 2.343 . S
O409 Tb398 2.596 . S
O409 C404 1.259 . S
O410 Tb398 2.374 . S
O410 C405 1.250 . S
O411 Tb396 2.353 . S
O411 C405 1.263 . S
C412 O413 1.275 . S
C412 O414 1.246 . S
O413 Tb396 2.427 . S
O413 C412 1.275 . S
O414 Tb396 2.513 . S
O414 C412 1.246 . S
C415 O399 1.245 . S
C415 O400 1.259 . S
Tb416 O419 2.453 1_655 S
Tb416 O420 2.596 1_655 S
Tb416 O421 2.374 . S
Tb416 O429 2.343 1_665 S
Tb416 O431 2.353 1_665 S
Tb416 O433 2.427 1_665 S
Tb416 O434 2.513 1_565 S
C417 O421 1.251 . S
C417 O423 1.263 1_565 S
Tb418 O420 2.343 1_545 S
Tb418 O423 2.353 1_455 S
Tb418 O426 2.427 . S
Tb418 O427 2.513 . S
Tb418 O428 2.453 . S
Tb418 O429 2.596 . S
Tb418 O430 2.374 . S
O419 Tb416 2.453 1_455 S
O419 C435 1.245 . S
O420 Tb416 2.596 1_455 S
O420 Tb418 2.343 1_565 S
O420 C435 1.259 . S
O421 Tb416 2.374 . S
O421 C417 1.251 . S
C422 O426 1.275 . S
C422 O427 1.246 . S
O423 C417 1.263 1_545 S
O423 Tb418 2.353 1_655 S
C424 O428 1.245 . S
C424 O429 1.259 . S
C425 O430 1.250 . S
C425 O431 1.263 . S
O426 Tb418 2.427 . S
O426 C422 1.275 . S
O427 Tb418 2.513 . S
O427 C422 1.246 . S
O428 Tb418 2.453 . S
O428 C424 1.245 . S
O429 Tb416 2.343 1_445 S
O429 Tb418 2.596 . S
O429 C424 1.259 . S
O430 Tb418 2.374 . S
O430 C425 1.250 . S
O431 Tb416 2.353 1_445 S
O431 C425 1.263 . S
C432 O433 1.275 1_655 S
C432 O434 1.246 . S
O433 Tb416 2.427 1_445 S
O433 C432 1.275 1_455 S
O434 Tb416 2.513 1_545 S
O434 C432 1.246 . S
C435 O419 1.245 . S
C435 O420 1.259 . S
Tb436 O439 2.453 . S
Tb436 O440 2.596 . S
Tb436 O441 2.374 . S
Tb436 O449 2.343 . S
Tb436 O451 2.353 . S
Tb436 O453 2.427 . S
Tb436 O454 2.513 . S
C437 O441 1.251 . S
C437 O443 1.263 . S
Tb438 O440 2.343 . S
Tb438 O443 2.353 . S
Tb438 O446 2.427 . S
Tb438 O447 2.513 . S
Tb438 O448 2.453 . S
Tb438 O449 2.596 . S
Tb438 O450 2.374 . S
O439 Tb436 2.453 . S
O439 C455 1.245 . S
O440 Tb436 2.596 . S
O440 Tb438 2.343 . S
O440 C455 1.259 . S
O441 Tb436 2.374 . S
O441 C437 1.251 . S
C442 O446 1.275 . S
C442 O447 1.246 . S
O443 C437 1.263 . S
O443 Tb438 2.353 . S
C444 O448 1.245 . S
C444 O449 1.259 . S
C445 O450 1.250 . S
C445 O451 1.263 . S
O446 Tb438 2.427 . S
O446 C442 1.275 . S
O447 Tb438 2.513 . S
O447 C442 1.246 . S
O448 Tb438 2.453 . S
O448 C444 1.245 . S
O449 Tb436 2.343 . S
O449 Tb438 2.596 . S
O449 C444 1.259 . S
O450 Tb438 2.374 . S
O450 C445 1.250 . S
O451 Tb436 2.353 . S
O451 C445 1.263 . S
C452 O453 1.275 . S
C452 O454 1.246 . S
O453 Tb436 2.427 . S
O453 C452 1.275 . S
O454 Tb436 2.513 . S
O454 C452 1.246 . S
C455 O439 1.245 . S
C455 O440 1.259 . S
Tb456 O459 2.453 . S
Tb456 O460 2.596 . S
Tb456 O461 2.374 1_545 S
Tb456 O469 2.343 1_556 S
Tb456 O471 2.353 1_556 S
Tb456 O473 2.427 1_556 S
Tb456 O474 2.513 1_546 S
C457 O461 1.251 1_554 S
C457 O463 1.263 . S
Tb458 O460 2.343 1_554 S
Tb458 O463 2.353 1_545 S
Tb458 O466 2.427 . S
Tb458 O467 2.513 . S
Tb458 O468 2.453 . S
Tb458 O469 2.596 . S
Tb458 O470 2.374 . S
O459 Tb456 2.453 . S
O459 C475 1.245 . S
O460 Tb456 2.596 . S
O460 Tb458 2.343 1_556 S
O460 C475 1.259 . S
O461 Tb456 2.374 1_565 S
O461 C457 1.251 1_556 S
C462 O466 1.275 . S
C462 O467 1.246 . S
O463 C457 1.263 . S
O463 Tb458 2.353 1_565 S
C464 O468 1.245 . S
C464 O469 1.259 . S
C465 O470 1.250 . S
C465 O471 1.263 . S
O466 Tb458 2.427 . S
O466 C462 1.275 . S
O467 Tb458 2.513 . S
O467 C462 1.246 . S
O468 Tb458 2.453 . S
O468 C464 1.245 . S
O469 Tb456 2.343 1_554 S
O469 Tb458 2.596 . S
O469 C464 1.259 . S
O470 Tb458 2.374 . S
O470 C465 1.250 . S
O471 Tb456 2.353 1_554 S
O471 C465 1.263 . S
C472 O473 1.275 1_565 S
C472 O474 1.246 . S
O473 Tb456 2.427 1_554 S
O473 C472 1.275 1_545 S
O474 Tb456 2.513 1_564 S
O474 C472 1.246 . S
C475 O459 1.245 . S
C475 O460 1.259 . S
Tb476 O479 2.453 . S
Tb476 O480 2.596 . S
Tb476 O481 2.374 . S
Tb476 O489 2.343 . S
Tb476 O491 2.353 . S
Tb476 O493 2.427 . S
Tb476 O494 2.513 . S
C477 O481 1.251 . S
C477 O483 1.263 . S
Tb478 O480 2.343 . S
Tb478 O483 2.353 . S
Tb478 O486 2.427 . S
Tb478 O487 2.513 . S
Tb478 O488 2.453 . S
Tb478 O489 2.596 . S
Tb478 O490 2.374 . S
O479 Tb476 2.453 . S
O479 C495 1.245 . S
O480 Tb476 2.596 . S
O480 Tb478 2.343 . S
O480 C495 1.259 . S
O481 Tb476 2.374 . S
O481 C477 1.251 . S
C482 O486 1.275 . S
C482 O487 1.246 . S
O483 C477 1.263 . S
O483 Tb478 2.353 . S
C484 O488 1.245 . S
C484 O489 1.259 . S
C485 O490 1.250 . S
C485 O491 1.263 . S
O486 Tb478 2.427 . S
O486 C482 1.275 . S
O487 Tb478 2.513 . S
O487 C482 1.246 . S
O488 Tb478 2.453 . S
O488 C484 1.245 . S
O489 Tb476 2.343 . S
O489 Tb478 2.596 . S
O489 C484 1.259 . S
O490 Tb478 2.374 . S
O490 C485 1.250 . S
O491 Tb476 2.353 . S
O491 C485 1.263 . S
C492 O493 1.275 . S
C492 O494 1.246 . S
O493 Tb476 2.427 . S
O493 C492 1.275 . S
O494 Tb476 2.513 . S
O494 C492 1.246 . S
C495 O479 1.245 . S
C495 O480 1.259 . S
Tb496 O499 2.453 1_556 S
Tb496 O500 2.596 1_556 S
Tb496 O501 2.374 1_556 S
Tb496 O509 2.337 1_556 S
Tb496 O511 2.353 . S
Tb496 O513 2.427 . S
Tb496 O514 2.513 . S
C497 O501 1.251 . S
C497 O503 1.263 . S
Tb498 O500 2.343 . S
Tb498 O503 2.353 . S
Tb498 O506 2.427 . S
Tb498 O507 2.513 . S
Tb498 O508 2.453 . S
Tb498 O509 2.612 . S
Tb498 O510 2.374 . S
O499 Tb496 2.453 1_554 S
O499 C515 1.245 . S
O500 Tb496 2.596 1_554 S
O500 Tb498 2.343 . S
O500 C515 1.259 . S
O501 Tb496 2.374 1_554 S
O501 C497 1.251 . S
C502 O506 1.275 . S
C502 O507 1.246 . S
O503 C497 1.263 . S
O503 Tb498 2.353 . S
C504 O508 1.245 . S
C504 O509 1.261 . S
C505 O510 1.250 . S
C505 O511 1.263 1_554 S
O506 Tb498 2.427 . S
O506 C502 1.275 . S
O507 Tb498 2.513 . S
O507 C502 1.246 . S
O508 Tb498 2.453 . S
O508 C504 1.245 . S
O509 Tb496 2.337 1_554 S
O509 Tb498 2.612 . S
O509 C504 1.261 . S
O510 Tb498 2.374 . S
O510 C505 1.250 . S
O511 Tb496 2.353 . S
O511 C505 1.263 1_556 S
C512 O513 1.275 . S
C512 O514 1.246 . S
O513 Tb496 2.427 . S
O513 C512 1.275 . S
O514 Tb496 2.513 . S
O514 C512 1.246 . S
C515 O499 1.245 . S
C515 O500 1.259 . S
Tb516 O519 2.453 . S
Tb516 O520 2.596 . S
Tb516 O521 2.374 . S
Tb516 O529 2.343 . S
Tb516 O531 2.353 . S
Tb516 O533 2.427 . S
Tb516 O534 2.513 . S
C517 O521 1.251 . S
C517 O523 1.263 . S
Tb518 O520 2.343 . S
Tb518 O523 2.353 . S
Tb518 O526 2.427 . S
Tb518 O527 2.513 . S
Tb518 O528 2.453 . S
Tb518 O529 2.596 . S
Tb518 O530 2.374 . S
O519 Tb516 2.453 . S
O519 C535 1.245 . S
O520 Tb516 2.596 . S
O520 Tb518 2.343 . S
O520 C535 1.259 . S
O521 Tb516 2.374 . S
O521 C517 1.251 . S
C522 O526 1.275 . S
C522 O527 1.246 . S
O523 C517 1.263 . S
O523 Tb518 2.353 . S
C524 O528 1.245 . S
C524 O529 1.259 . S
C525 O530 1.250 . S
C525 O531 1.263 . S
O526 Tb518 2.427 . S
O526 C522 1.275 . S
O527 Tb518 2.513 . S
O527 C522 1.246 . S
O528 Tb518 2.453 . S
O528 C524 1.245 . S
O529 Tb516 2.343 . S
O529 Tb518 2.596 . S
O529 C524 1.259 . S
O530 Tb518 2.374 . S
O530 C525 1.250 . S
O531 Tb516 2.353 . S
O531 C525 1.263 . S
C532 O533 1.275 . S
C532 O534 1.246 . S
O533 Tb516 2.427 . S
O533 C532 1.275 . S
O534 Tb516 2.513 . S
O534 C532 1.246 . S
C535 O519 1.245 . S
C535 O520 1.259 . S
Tb536 O539 2.453 . S
Tb536 O540 2.596 1_655 S
Tb536 O541 2.374 . S
Tb536 O549 2.343 . S
Tb536 O551 2.353 . S
Tb536 O553 2.427 . S
Tb536 O554 2.513 . S
C537 O541 1.251 1_455 S
C537 O543 1.263 . S
Tb538 O540 2.343 . S
Tb538 O543 2.353 . S
Tb538 O546 2.427 . S
Tb538 O547 2.513 . S
Tb538 O548 2.453 . S
Tb538 O549 2.596 1_455 S
Tb538 O550 2.374 . S
O539 Tb536 2.453 . S
O539 C555 1.245 1_655 S
O540 Tb536 2.596 1_455 S
O540 Tb538 2.343 . S
O540 C555 1.259 . S
O541 Tb536 2.374 . S
O541 C537 1.251 1_655 S
C542 O546 1.275 . S
C542 O547 1.246 . S
O543 C537 1.263 . S
O543 Tb538 2.353 . S
C544 O548 1.245 1_655 S
C544 O549 1.259 . S
C545 O550 1.250 1_655 S
C545 O551 1.263 . S
O546 Tb538 2.427 . S
O546 C542 1.275 . S
O547 Tb538 2.513 . S
O547 C542 1.246 . S
O548 Tb538 2.453 . S
O548 C544 1.245 1_455 S
O549 Tb536 2.343 . S
O549 Tb538 2.596 1_655 S
O549 C544 1.259 . S
O550 Tb538 2.374 . S
O550 C545 1.250 1_455 S
O551 Tb536 2.353 . S
O551 C545 1.263 . S
C552 O553 1.275 . S
C552 O554 1.246 . S
O553 Tb536 2.427 . S
O553 C552 1.275 . S
O554 Tb536 2.513 . S
O554 C552 1.246 . S
C555 O539 1.245 1_455 S
C555 O540 1.259 . S
Tb556 O559 2.453 . S
Tb556 O560 2.596 . S
Tb556 O561 2.374 . S
Tb556 O569 2.343 . S
Tb556 O571 2.353 . S
Tb556 O573 2.427 . S
Tb556 O574 2.513 . S
C557 O561 1.251 . S
C557 O563 1.263 . S
Tb558 O560 2.343 . S
Tb558 O563 2.353 . S
Tb558 O566 2.427 . S
Tb558 O567 2.513 . S
Tb558 O568 2.453 . S
Tb558 O569 2.596 . S
Tb558 O570 2.374 . S
O559 Tb556 2.453 . S
O559 C575 1.245 . S
O560 Tb556 2.596 . S
O560 Tb558 2.343 . S
O560 C575 1.259 . S
O561 Tb556 2.374 . S
O561 C557 1.251 . S
C562 O566 1.275 . S
C562 O567 1.246 . S
O563 C557 1.263 . S
O563 Tb558 2.353 . S
C564 O568 1.245 . S
C564 O569 1.259 . S
C565 O570 1.250 . S
C565 O571 1.263 . S
O566 Tb558 2.427 . S
O566 C562 1.275 . S
O567 Tb558 2.513 . S
O567 C562 1.246 . S
O568 Tb558 2.453 . S
O568 C564 1.245 . S
O569 Tb556 2.343 . S
O569 Tb558 2.596 . S
O569 C564 1.259 . S
O570 Tb558 2.374 . S
O570 C565 1.250 . S
O571 Tb556 2.353 . S
O571 C565 1.263 . S
C572 O573 1.275 . S
C572 O574 1.246 . S
O573 Tb556 2.427 . S
O573 C572 1.275 . S
O574 Tb556 2.513 . S
O574 C572 1.246 . S
C575 O559 1.245 . S
C575 O560 1.259 . S
Tb576 O579 2.453 . S
Tb576 O580 2.596 . S
Tb576 O581 2.374 . S
Tb576 O589 2.343 . S
Tb576 O591 2.353 . S
Tb576 O593 2.427 . S
Tb576 O594 2.513 . S
C577 O581 1.251 . S
C577 O583 1.263 . S
Tb578 O580 2.343 . S
Tb578 O583 2.353 . S
Tb578 O586 2.427 . S
Tb578 O587 2.513 . S
Tb578 O588 2.453 . S
Tb578 O589 2.596 . S
Tb578 O590 2.374 . S
O579 Tb576 2.453 . S
O579 C595 1.245 . S
O580 Tb576 2.596 . S
O580 Tb578 2.343 . S
O580 C595 1.259 . S
O581 Tb576 2.374 . S
O581 C577 1.251 . S
C582 O586 1.275 . S
C582 O587 1.246 . S
O583 C577 1.263 . S
O583 Tb578 2.353 . S
C584 O588 1.245 . S
C584 O589 1.259 . S
C585 O590 1.250 . S
C585 O591 1.263 . S
O586 Tb578 2.427 . S
O586 C582 1.275 . S
O587 Tb578 2.513 . S
O587 C582 1.246 . S
O588 Tb578 2.453 . S
O588 C584 1.245 . S
O589 Tb576 2.343 . S
O589 Tb578 2.596 . S
O589 C584 1.259 . S
O590 Tb578 2.374 . S
O590 C585 1.250 . S
O591 Tb576 2.353 . S
O591 C585 1.263 . S
C592 O593 1.275 . S
C592 O594 1.246 . S
O593 Tb576 2.427 . S
O593 C592 1.275 . S
O594 Tb576 2.513 . S
O594 C592 1.246 . S
C595 O579 1.245 . S
C595 O580 1.259 . S
Tb596 O599 2.453 . S
Tb596 O600 2.596 . S
Tb596 O601 2.374 . S
Tb596 O609 2.343 . S
Tb596 O611 2.353 . S
Tb596 O613 2.427 . S
Tb596 O614 2.513 . S
C597 O601 1.251 . S
C597 O603 1.263 . S
Tb598 O600 2.343 . S
Tb598 O603 2.353 . S
Tb598 O606 2.427 . S
Tb598 O607 2.513 . S
Tb598 O608 2.453 . S
Tb598 O609 2.596 . S
Tb598 O610 2.374 . S
O599 Tb596 2.453 . S
O599 C615 1.245 . S
O600 Tb596 2.596 . S
O600 Tb598 2.343 . S
O600 C615 1.259 . S
O601 Tb596 2.374 . S
O601 C597 1.251 . S
C602 O606 1.275 . S
C602 O607 1.246 . S
O603 C597 1.263 . S
O603 Tb598 2.353 . S
C604 O608 1.245 . S
C604 O609 1.259 . S
C605 O610 1.250 . S
C605 O611 1.263 . S
O606 Tb598 2.427 . S
O606 C602 1.275 . S
O607 Tb598 2.513 . S
O607 C602 1.246 . S
O608 Tb598 2.453 . S
O608 C604 1.245 . S
O609 Tb596 2.343 . S
O609 Tb598 2.596 . S
O609 C604 1.259 . S
O610 Tb598 2.374 . S
O610 C605 1.250 . S
O611 Tb596 2.353 . S
O611 C605 1.263 . S
C612 O613 1.275 . S
C612 O614 1.246 . S
O613 Tb596 2.427 . S
O613 C612 1.275 . S
O614 Tb596 2.513 . S
O614 C612 1.246 . S
C615 O599 1.245 . S
C615 O600 1.259 . S
Tb616 O619 2.453 . S
Tb616 O620 2.596 . S
Tb616 O621 2.374 . S
Tb616 O629 2.343 . S
Tb616 O631 2.353 . S
Tb616 O633 2.427 . S
Tb616 O634 2.513 . S
C617 O621 1.251 . S
C617 O623 1.263 . S
Tb618 O620 2.343 . S
Tb618 O623 2.353 . S
Tb618 O626 2.427 . S
Tb618 O627 2.513 . S
Tb618 O628 2.453 . S
Tb618 O629 2.596 . S
Tb618 O630 2.374 . S
O619 Tb616 2.453 . S
O619 C635 1.245 . S
O620 Tb616 2.596 . S
O620 Tb618 2.343 . S
O620 C635 1.259 . S
O621 Tb616 2.374 . S
O621 C617 1.251 . S
C622 O626 1.275 . S
C622 O627 1.246 . S
O623 C617 1.263 . S
O623 Tb618 2.353 . S
C624 O628 1.245 . S
C624 O629 1.259 . S
C625 O630 1.250 . S
C625 O631 1.263 . S
O626 Tb618 2.427 . S
O626 C622 1.275 . S
O627 Tb618 2.513 . S
O627 C622 1.246 . S
O628 Tb618 2.453 . S
O628 C624 1.245 . S
O629 Tb616 2.343 . S
O629 Tb618 2.596 . S
O629 C624 1.259 . S
O630 Tb618 2.374 . S
O630 C625 1.250 . S
O631 Tb616 2.353 . S
O631 C625 1.263 . S
C632 O633 1.275 . S
C632 O634 1.246 . S
O633 Tb616 2.427 . S
O633 C632 1.275 . S
O634 Tb616 2.513 . S
O634 C632 1.246 . S
C635 O619 1.245 . S
C635 O620 1.259 . S
Tb636 O639 2.453 . S
Tb636 O640 2.596 1_455 S
Tb636 O641 2.374 . S
Tb636 O649 2.343 . S
Tb636 O651 2.353 1_554 S
Tb636 O653 2.427 1_554 S
Tb636 O654 2.513 . S
C637 O641 1.251 . S
C637 O643 1.263 1_455 S
Tb638 O640 2.343 . S
Tb638 O643 2.353 . S
Tb638 O646 2.427 . S
Tb638 O647 2.513 . S
Tb638 O648 2.453 1_554 S
Tb638 O649 2.596 1_655 S
Tb638 O650 2.374 1_554 S
O639 Tb636 2.453 . S
O639 C655 1.245 . S
O640 Tb636 2.596 1_655 S
O640 Tb638 2.343 . S
O640 C655 1.259 1_655 S
O641 Tb636 2.374 . S
O641 C637 1.251 . S
C642 O646 1.275 . S
C642 O647 1.246 . S
O643 C637 1.263 1_655 S
O643 Tb638 2.353 . S
C644 O648 1.245 . S
C644 O649 1.259 1_656 S
C645 O650 1.250 . S
C645 O651 1.263 1_655 S
O646 Tb638 2.427 . S
O646 C642 1.275 . S
O647 Tb638 2.513 . S
O647 C642 1.246 . S
O648 Tb638 2.453 1_556 S
O648 C644 1.245 . S
O649 Tb636 2.343 . S
O649 Tb638 2.596 1_455 S
O649 C644 1.259 1_454 S
O650 Tb638 2.374 1_556 S
O650 C645 1.250 . S
O651 Tb636 2.353 1_556 S
O651 C645 1.263 1_455 S
C652 O653 1.275 1_554 S
C652 O654 1.246 . S
O653 Tb636 2.427 1_556 S
O653 C652 1.275 1_556 S
O654 Tb636 2.513 . S
O654 C652 1.246 . S
C655 O639 1.245 . S
C655 O640 1.259 1_455 S
C111 C352 1.546 1_656 S
C64 C365 1.654 . S
C77 C384 1.448 . S
C415 C95 1.873 . S
C25 C435 1.491 . S
C452 C36 1.376 . S
C465 C50 1.493 . S
C11 C492 1.821 . S
C345 C237 1.248 . S
C245 C375 1.803 . S
C377 C279 1.604 . S
C412 C175 0.604 . S
C231 C432 0.955 . S
C445 C251 1.670 . S
C475 C273 1.660 . S
C485 C181 1.398 . S
C355 C165 1.991 1_545 S
C288 C505 1.720 1_556 S
C535 C333 1.986 . S
C552 C316 1.409 . S
C123 C495 2.295 . S
C137 C382 1.771 . S
C330 C565 1.918 . S
C592 C302 1.678 . S
C342 C63 1.604 . S
C577 C106 1.577 . S
C97 C395 1.222 . S
C81 C564 2.016 . S
C424 C13 1.595 . S
C55 C522 0.573 . S
C457 C35 1.411 1_554 S
C602 C21 1.655 . S
C337 C147 1.473 . S
C584 C321 1.560 . S
C119 C385 1.843 . S
C293 C562 0.795 . S
C153 C422 0.939 . S
C517 C315 1.921 . S
C125 C464 1.381 . S
C287 C597 1.404 . S
C193 C344 1.929 . S
C176 C497 1.825 . S
C263 C444 1.870 . S
C246 C542 1.235 . S
C604 C277 2.274 . S
C221 C392 1.566 . S
C397 C260 2.071 . S
C362 C204 1.448 . S
C83 C632 1.546 . S
C585 C92 1.654 . S
C105 C644 1.449 1_455 S
C67 C575 1.873 . S
C53 C515 1.491 . S
C532 C8 1.376 . S
C545 C22 1.493 . S
C612 C39 1.820 . S
C625 C265 1.248 . S
C189 C595 1.804 . S
C637 C209 1.605 . S
C572 C217 0.604 . S
C512 C259 0.955 . S
C195 C525 1.670 . S
C555 C203 1.662 . S
C223 C605 1.398 . S
C635 C319 1.990 . S
C134 C425 1.721 . S
C455 C151 1.986 . S
C472 C162 1.409 . S
C615 C305 2.294 . S
C291 C642 1.769 1_556 S
C405 C148 1.918 . S
C372 C120 1.678 . S
C91 C622 1.604 . S
C357 C78 1.577 . S
C69 C655 1.222 . S
C109 C404 2.016 . S
C41 C504 1.590 . S
C442 C27 0.573 . S
C7 C537 1.411 . S
C49 C482 1.654 . S
C617 C329 1.473 . S
C167 C364 1.560 . S
C645 C301 1.843 . S
C139 C402 0.797 . S
C335 C502 0.939 . S
C437 C161 1.921 . S
C307 C544 1.381 . S
C477 C133 1.402 . S
C624 C249 1.929 . S
C417 C218 1.825 . S
C235 C524 1.869 . S
C462 C190 1.235 . S
C207 C484 2.272 . S
C179 C652 1.566 . S
C557 C232 2.071 . S
C582 C274 1.447 . S
