# Generated by pormake.
# Topology apo, (3,6)-cn, num edge types: 1
# Building blocks:
#     Node 0, Type 0, BuildingBlock: OLANEW_clean_sbu_2, # of connection points: 3
#     Node 1, Type 0, BuildingBlock: OLANEW_clean_sbu_2, # of connection points: 3
#     Node 2, Type 0, BuildingBlock: OLANEW_clean_sbu_2, # of connection points: 3
#     Node 3, Type 0, BuildingBlock: OLANEW_clean_sbu_2, # of connection points: 3
#     Node 4, Type 0, BuildingBlock: OLANEW_clean_sbu_2, # of connection points: 3
#     Node 5, Type 0, BuildingBlock: OLANEW_clean_sbu_2, # of connection points: 3
#     Node 6, Type 0, BuildingBlock: OLANEW_clean_sbu_2, # of connection points: 3
#     Node 7, Type 0, BuildingBlock: OLANEW_clean_sbu_2, # of connection points: 3
#     Node 8, Type 1, BuildingBlock: KUMBOL_clean_sbu_1, # of connection points: 6
#     Node 9, Type 1, BuildingBlock: KUMBOL_clean_sbu_1, # of connection points: 6
#     Node 10, Type 1, BuildingBlock: KUMBOL_clean_sbu_1, # of connection points: 6
#     Node 11, Type 1, BuildingBlock: KUMBOL_clean_sbu_1, # of connection points: 6
#     Edge 12, Type (0, 1), None
#     Edge 13, Type (0, 1), None
#     Edge 14, Type (0, 1), None
#     Edge 15, Type (0, 1), None
#     Edge 16, Type (0, 1), None
#     Edge 17, Type (0, 1), None
#     Edge 18, Type (0, 1), None
#     Edge 19, Type (0, 1), None
#     Edge 20, Type (0, 1), None
#     Edge 21, Type (0, 1), None
#     Edge 22, Type (0, 1), None
#     Edge 23, Type (0, 1), None
#     Edge 24, Type (0, 1), None
#     Edge 25, Type (0, 1), None
#     Edge 26, Type (0, 1), None
#     Edge 27, Type (0, 1), None
#     Edge 28, Type (0, 1), None
#     Edge 29, Type (0, 1), None
#     Edge 30, Type (0, 1), None
#     Edge 31, Type (0, 1), None
#     Edge 32, Type (0, 1), None
#     Edge 33, Type (0, 1), None
#     Edge 34, Type (0, 1), None
#     Edge 35, Type (0, 1), None
# Relax obj value: 0.035
# Max RMSD: 0.284
# Mean RMSD: 0.169
data_MOF--net-apo--node1-OLANEW_clean_sbu_2--node2-KUMBOL_clean_sbu_1--edge1-none
_symmetry_space_group_name_H-M    P1
_symmetry_Int_Tables_number       1
_symmetry_cell_setting            triclinic
loop_
_symmetry_equiv_pos_as_xyz
'x, y, z'
_cell_length_a     14.425178
_cell_length_b     20.482065
_cell_length_c     31.235793
_cell_angle_alpha  87.882295
_cell_angle_beta   89.976067
_cell_angle_gamma 90.024608
loop_
_atom_site_label
_atom_site_type_symbol
_atom_site_fract_x
_atom_site_fract_y
_atom_site_fract_z
_atom_type_partial_charge
O0 O 0.44237 0.43141 0.3053 0.0
Cd1 Cd 0.36665 0.33656 0.34218 0.0
O2 O 0.43065 0.50802 0.35371 0.0
Cd3 Cd 0.37108 0.45884 0.41153 0.0
O4 O 0.33244 0.481 0.47805 0.0
C5 C 0.33321 0.44486 0.51218 0.0
O6 O 0.3572 0.38319 0.51024 0.0
C7 C 0.45549 0.48975 0.31689 0.0
C8 C 0.26234 0.25243 0.29093 0.0
O9 O 0.22291 0.29721 0.31197 0.0
O10 O 0.35083 0.248 0.29302 0.0
O11 O 0.29423 0.17099 0.98796 0.0
Cd12 Cd 0.33951 0.28074 0.96012 0.0
O13 O 0.2463 0.11691 0.93281 0.0
Cd14 Cd 0.19187 0.04407 0.8881 0.0
O15 O 0.15077 0.98964 0.83085 0.0
C16 C 0.06629 0.986 0.81943 0.0
O17 O 0.003 0.01546 0.8417 0.0
C18 C 0.26047 0.11904 0.97314 0.0
C19 C 0.39445 0.31316 0.87642 0.0
O20 O 0.309 0.31636 0.88746 0.0
O21 O 0.45282 0.29008 0.90391 0.0
O22 O 0.82332 0.12281 0.72244 0.0
Cd23 Cd 0.80128 0.23192 0.68951 0.0
O24 O 0.85748 0.09078 0.65855 0.0
Cd25 Cd 0.8936 0.02917 0.60561 0.0
O26 O 0.87041 0.02051 0.53696 0.0
C27 C 0.91434 0.05681 0.50997 0.0
O28 O 0.97946 0.09571 0.5237 0.0
C29 C 0.8493 0.07762 0.69844 0.0
C30 C 0.65967 0.30373 0.72638 0.0
O31 O 0.6491 0.28175 0.68885 0.0
O32 O 0.7352 0.29051 0.74607 0.0
O33 O 0.8058 0.35034 0.0699 0.0
Cd34 Cd 0.89125 0.37889 0.1351 0.0
O35 O 0.80098 0.4527 0.04624 0.0
Cd36 Cd 0.8456 0.48543 0.10814 0.0
O37 O 0.77439 0.51179 0.1661 0.0
C38 C 0.70207 0.54459 0.15707 0.0
O39 O 0.68356 0.55969 0.11674 0.0
C40 C 0.78416 0.39273 0.0407 0.0
C41 C 0.98294 0.27496 0.17658 0.0
O42 O 0.01789 0.30417 0.14338 0.0
O43 O 0.90434 0.29453 0.19023 0.0
O44 O 0.56731 0.61668 0.70989 0.0
Cd45 Cd 0.60922 0.7106 0.66149 0.0
O46 O 0.55046 0.54783 0.65802 0.0
Cd47 Cd 0.59507 0.61984 0.60947 0.0
O48 O 0.6505 0.6673 0.55157 0.0
C49 C 0.64896 0.632 0.51903 0.0
O50 O 0.61424 0.57275 0.52316 0.0
C51 C 0.54742 0.55981 0.69756 0.0
C52 C 0.73309 0.79977 0.69617 0.0
O53 O 0.64541 0.80548 0.70151 0.0
O54 O 0.76267 0.75199 0.67461 0.0
O55 O 0.90387 0.9581 0.19078 0.0
Cd56 Cd 0.77397 0.90378 0.15318 0.0
O57 O 0.889 0.04582 0.14829 0.0
Cd58 Cd 0.76197 0.01502 0.11797 0.0
O59 O 0.68922 0.00544 0.05798 0.0
C60 C 0.74535 0.00854 0.02669 0.0
O61 O 0.83423 0.01544 0.03467 0.0
C62 C 0.93244 0.01432 0.1777 0.0
C63 C 0.68353 0.79391 0.19022 0.0
O64 O 0.76678 0.79072 0.17615 0.0
O65 O 0.64282 0.8495 0.1884 0.0
O66 O 0.36594 0.97871 0.28726 0.0
Cd67 Cd 0.46028 0.91798 0.34082 0.0
O68 O 0.29185 0.99892 0.34588 0.0
Cd69 Cd 0.19211 0.03025 0.3936 0.0
O70 O 0.19226 0.99199 0.45973 0.0
C71 C 0.12717 0.96055 0.47864 0.0
O72 O 0.04733 0.95342 0.45918 0.0
C73 C 0.29758 0.00528 0.30534 0.0
C74 C 0.50438 0.7947 0.31294 0.0
O75 O 0.42299 0.80739 0.32666 0.0
O76 O 0.56562 0.83982 0.31289 0.0
O77 O 0.22271 0.57395 0.8032 0.0
Cd78 Cd 0.08987 0.62098 0.84139 0.0
O79 O 0.28184 0.56243 0.867 0.0
Cd80 Cd 0.36198 0.52741 0.92196 0.0
O81 O 0.32812 0.52771 0.99 0.0
C82 C 0.32662 0.5819 0.00859 0.0
O83 O 0.35311 0.63527 0.98737 0.0
C84 C 0.28723 0.55187 0.82731 0.0
C85 C 0.01888 0.73911 0.80878 0.0
O86 O 0.00457 0.68534 0.79023 0.0
O87 O 0.06843 0.73807 0.84281 0.0
C88 C 0.83944 0.03277 0.26891 0.0
C89 C 0.85556 0.93001 0.30963 0.0
C90 C 0.89288 0.99003 0.29425 0.0
C91 C 0.76564 0.91224 0.29777 0.0
C92 C 0.7498 0.01393 0.256 0.0
C93 C 0.71337 0.95356 0.27051 0.0
N94 N 0.87539 0.09201 0.25637 0.0
C95 C 0.82443 0.13437 0.23107 0.0
C96 C 0.6997 0.05603 0.22847 0.0
C97 C 0.73766 0.11623 0.21574 0.0
Gd98 Gd 0.2072 0.11412 0.18252 0.0
Gd99 Gd 0.02504 0.11357 0.28319 0.0
N100 N 0.98102 0.00728 0.30411 0.0
C101 C 0.90963 0.88955 0.33669 0.0
C102 C 0.03436 0.96773 0.33011 0.0
C103 C 0.99969 0.90835 0.34673 0.0
H104 H 0.10283 0.98239 0.33907 0.0
H105 H 0.04215 0.87745 0.36762 0.0
H106 H 0.0989 0.17098 0.09425 0.0
H107 H 0.84903 0.18232 0.22222 0.0
H108 H 0.12566 0.25316 0.03541 0.0
H109 H 0.88284 0.84346 0.34961 0.0
H110 H 0.73649 0.86632 0.30934 0.0
H111 H 0.40724 0.10141 0.23674 0.0
H112 H 0.63161 0.04268 0.21703 0.0
H113 H 0.69991 0.14914 0.19428 0.0
H114 H 0.43016 0.33514 0.06288 0.0
H115 H 0.64452 0.93862 0.26105 0.0
H116 H 0.59378 0.24684 0.18528 0.0
H117 H 0.55726 0.15903 0.2394 0.0
N118 N 0.35394 0.163 0.18628 0.0
C119 C 0.3724 0.21076 0.15614 0.0
C120 C 0.42117 0.14159 0.21423 0.0
C121 C 0.52645 0.22338 0.18509 0.0
C122 C 0.50661 0.17348 0.21539 0.0
C123 C 0.46023 0.24101 0.15404 0.0
H124 H 0.54757 0.30947 0.11809 0.0
N125 N 0.22349 0.19349 0.12694 0.0
C126 C 0.30552 0.2261 0.12538 0.0
C127 C 0.25873 0.28235 0.05947 0.0
C128 C 0.32571 0.27097 0.09129 0.0
C129 C 0.16099 0.20065 0.09422 0.0
C130 C 0.17637 0.24651 0.06072 0.0
O131 O 0.03859 0.03291 0.23603 0.0
O132 O 0.05619 0.09212 0.17416 0.0
O133 O 0.18473 0.01991 0.15297 0.0
O134 O 0.30382 0.07814 0.13555 0.0
O135 O 0.16859 0.07826 0.30057 0.0
O136 O 0.23484 0.04098 0.23767 0.0
O137 O 0.25122 0.16297 0.24348 0.0
O138 O 0.11736 0.20265 0.2739 0.0
O139 O 0.04543 0.11709 0.35212 0.0
O140 O 0.92195 0.15877 0.32313 0.0
O141 O 0.09629 0.19136 0.17481 0.0
O142 O 0.004 0.20001 0.23649 0.0
C143 C 0.01511 0.04481 0.19606 0.0
C144 C 0.22829 0.04234 0.27988 0.0
C145 C 0.23105 0.02206 0.07931 0.0
C146 C 0.23615 0.06457 0.00431 0.0
C147 C 0.16042 0.96107 0.02247 0.0
C148 C 0.18202 0.96738 0.06581 0.0
C149 C 0.18672 0.00933 0.99194 0.0
C150 C 0.25901 0.06983 0.04816 0.0
C151 C 0.25225 0.02902 0.12569 0.0
C152 C 0.41323 0.30093 0.08901 0.0
C153 C 0.48017 0.2862 0.12041 0.0
H154 H 0.27124 0.31704 0.03308 0.0
C155 C 0.20722 0.20546 0.26672 0.0
C156 C 0.03063 0.21895 0.19734 0.0
C157 C 0.90599 0.10394 0.39104 0.0
C158 C 0.88565 0.06022 0.4644 0.0
C159 C 0.77243 0.03618 0.40954 0.0
C160 C 0.82221 0.07416 0.37956 0.0
C161 C 0.80393 0.02893 0.45165 0.0
C162 C 0.93701 0.09713 0.43365 0.0
C163 C 0.96286 0.14029 0.35873 0.0
H164 H 0.1221 0.91878 0.01253 0.0
H165 H 0.16006 0.92962 0.08882 0.0
H166 H 0.167 0.00357 0.95897 0.0
H167 H 0.29782 0.11184 0.05821 0.0
H168 H 0.70867 0.01275 0.40018 0.0
H169 H 0.795 0.07993 0.34743 0.0
H170 H 0.76302 0.99999 0.47441 0.0
H171 H 0.00102 0.12065 0.44274 0.0
C172 C 0.77661 0.47174 0.78275 0.0
C173 C 0.79123 0.58648 0.76249 0.0
C174 C 0.73914 0.53388 0.78029 0.0
C175 C 0.87797 0.57454 0.74389 0.0
C176 C 0.8673 0.46068 0.76778 0.0
C177 C 0.91611 0.51166 0.74661 0.0
N178 N 0.72873 0.42397 0.80427 0.0
C179 C 0.77233 0.36769 0.8177 0.0
C180 C 0.90828 0.39992 0.77693 0.0
C181 C 0.86225 0.35428 0.80362 0.0
Gd182 Gd 0.37212 0.39231 0.73889 0.0
Gd183 Gd 0.57525 0.44862 0.82293 0.0
N184 N 0.65596 0.54389 0.79936 0.0
C185 C 0.75654 0.64979 0.76564 0.0
C186 C 0.62606 0.60613 0.80608 0.0
C187 C 0.6739 0.65965 0.78768 0.0
H188 H 0.56188 0.61385 0.82313 0.0
H189 H 0.64652 0.70839 0.78967 0.0
H190 H 0.47274 0.27496 0.6816 0.0
H191 H 0.73606 0.33182 0.83762 0.0
H192 H 0.47845 0.15457 0.68161 0.0
H193 H 0.79464 0.69146 0.75256 0.0
H194 H 0.91783 0.61409 0.72903 0.0
H195 H 0.1816 0.43031 0.79337 0.0
H196 H 0.97702 0.38916 0.76522 0.0
H197 H 0.89509 0.30831 0.81265 0.0
H198 H 0.24368 0.08639 0.78221 0.0
H199 H 0.9852 0.50374 0.73417 0.0
H200 H 0.06059 0.25328 0.84526 0.0
H201 H 0.0628 0.37404 0.83858 0.0
N202 N 0.24953 0.34233 0.77761 0.0
C203 C 0.2478 0.27606 0.77975 0.0
C204 C 0.18136 0.3776 0.79652 0.0
C205 C 0.11342 0.2777 0.82588 0.0
C206 C 0.11417 0.34589 0.82203 0.0
C207 C 0.17987 0.24182 0.80406 0.0
H208 H 0.12875 0.14591 0.82414 0.0
N209 N 0.37575 0.27778 0.73276 0.0
C210 C 0.31353 0.24277 0.75689 0.0
C211 C 0.37418 0.14204 0.73058 0.0
C212 C 0.31165 0.17393 0.75682 0.0
C213 C 0.43114 0.24702 0.70435 0.0
C214 C 0.43292 0.17876 0.70355 0.0
O215 O 0.52446 0.51822 0.76981 0.0
O216 O 0.49475 0.451 0.71443 0.0
O217 O 0.31746 0.36916 0.6759 0.0
O218 O 0.26982 0.45453 0.70735 0.0
O219 O 0.43256 0.49401 0.8338 0.0
O220 O 0.3434 0.48754 0.77106 0.0
O221 O 0.36504 0.37251 0.81062 0.0
O222 O 0.51381 0.34754 0.82703 0.0
O223 O 0.53288 0.44086 0.88995 0.0
O224 O 0.67167 0.47043 0.87396 0.0
O225 O 0.52094 0.36814 0.72192 0.0
O226 O 0.59466 0.35436 0.78755 0.0
C227 C 0.52132 0.50739 0.72871 0.0
C228 C 0.35867 0.50868 0.80996 0.0
C229 C 0.28173 0.46356 0.63153 0.0
C230 C 0.3104 0.47373 0.55397 0.0
C231 C 0.27634 0.57012 0.59446 0.0
C232 C 0.26842 0.53162 0.63198 0.0
C233 C 0.297 0.54161 0.55578 0.0
C234 C 0.3026 0.43482 0.59218 0.0
C235 C 0.27067 0.42327 0.67188 0.0
C236 C 0.24567 0.1393 0.78177 0.0
C237 C 0.18003 0.17318 0.80548 0.0
H238 H 0.37478 0.08928 0.72972 0.0
C239 C 0.42515 0.34011 0.83444 0.0
C240 C 0.58849 0.34425 0.74619 0.0
C241 C 0.65432 0.40138 0.9347 0.0
C242 C 0.73813 0.3729 1.00083 0.0
C243 C 0.69274 0.28816 0.95256 0.0
C244 C 0.65383 0.33522 0.92456 0.0
C245 C 0.73434 0.30669 0.99058 0.0
C246 C 0.69727 0.42009 0.97266 0.0
C247 C 0.61593 0.45119 0.90437 0.0
H248 H 0.26615 0.62242 0.59533 0.0
H249 H 0.25149 0.55545 0.66137 0.0
H250 H 0.30278 0.57307 0.52726 0.0
H251 H 0.31216 0.38242 0.5913 0.0
H252 H 0.69146 0.2372 0.94454 0.0
H253 H 0.62426 0.32001 0.89476 0.0
H254 H 0.76471 0.26928 0.0116 0.0
H255 H 0.69911 0.47139 0.98004 0.0
C256 C 0.61331 0.88577 0.80636 0.0
C257 C 0.59187 0.78822 0.85155 0.0
C258 C 0.65084 0.83444 0.83081 0.0
C259 C 0.49546 0.79282 0.84571 0.0
C260 C 0.51647 0.89149 0.80118 0.0
C261 C 0.45788 0.84421 0.82046 0.0
N262 N 0.67147 0.93118 0.78853 0.0
C263 C 0.63785 0.98446 0.76611 0.0
C264 C 0.48144 0.94538 0.77751 0.0
C265 C 0.54254 0.99191 0.75979 0.0
Gd266 Gd 0.0153 0.8858 0.69921 0.0
Gd267 Gd 0.82875 0.91945 0.80492 0.0
N268 N 0.74453 0.83104 0.83556 0.0
C269 C 0.63152 0.73882 0.87768 0.0
C270 C 0.78319 0.78384 0.86194 0.0
C271 C 0.72757 0.73666 0.88286 0.0
H272 H 0.85655 0.78323 0.86841 0.0
H273 H 0.75875 0.69924 0.90355 0.0
H274 H 0.04049 0.04303 0.6688 0.0
H275 H 0.68456 0.02143 0.75333 0.0
H276 H 0.16715 0.1176 0.64578 0.0
H277 H 0.58869 0.70235 0.89411 0.0
H278 H 0.44933 0.75723 0.86093 0.0
H279 H 0.11549 0.74255 0.72837 0.0
H280 H 0.40745 0.95183 0.77308 0.0
H281 H 0.5165 0.03388 0.74161 0.0
H282 H 0.44221 0.98703 0.66216 0.0
H283 H 0.38334 0.8475 0.81657 0.0
H284 H 0.40912 0.76599 0.716 0.0
H285 H 0.27334 0.69705 0.73518 0.0
N286 N 0.16161 0.83802 0.70993 0.0
C287 C 0.23525 0.87656 0.69864 0.0
C288 C 0.17421 0.77405 0.72221 0.0
C289 C 0.34007 0.78678 0.71421 0.0
C290 C 0.2636 0.74777 0.72522 0.0
C291 C 0.32642 0.85172 0.70007 0.0
H292 H 0.47107 0.87363 0.68736 0.0
N293 N 0.1306 0.96379 0.68445 0.0
C294 C 0.2192 0.94083 0.68455 0.0
C295 C 0.27409 0.04559 0.65704 0.0
C296 C 0.29344 0.9814 0.67126 0.0
C297 C 0.11117 0.02607 0.67038 0.0
C298 C 0.18267 0.06813 0.65689 0.0
O299 O 0.76196 0.8826 0.7452 0.0
O300 O 0.88635 0.82691 0.71851 0.0
O301 O 0.98007 0.90785 0.63239 0.0
O302 O 0.04564 0.81619 0.65053 0.0
O303 O 0.94328 0.84256 0.81582 0.0
O304 O 0.974 0.80397 0.74762 0.0
O305 O 0.09588 0.94076 0.7497 0.0
O306 O 0.95924 0.92837 0.77209 0.0
O307 O 0.85685 0.92991 0.87258 0.0
O308 O 0.80007 0.01122 0.83481 0.0
O309 O 0.90849 0.96876 0.69233 0.0
O310 O 0.86006 0.00572 0.75967 0.0
C311 C 0.79821 0.84414 0.7168 0.0
C312 C 0.9825 0.80038 0.78995 0.0
C313 C 0.09647 0.86957 0.58623 0.0
C314 C 0.14711 0.92413 0.51932 0.0
C315 C 0.25868 0.86655 0.56511 0.0
C316 C 0.18813 0.84837 0.59353 0.0
C317 C 0.23871 0.90472 0.52848 0.0
C318 C 0.076 0.9064 0.54843 0.0
C319 C 0.02397 0.8568 0.61907 0.0
C320 C 0.3842 0.95657 0.67226 0.0
C321 C 0.40062 0.89197 0.68666 0.0
H322 H 0.32915 0.0781 0.64611 0.0
C323 C 0.04016 0.95196 0.78046 0.0
C324 C 0.87167 0.01279 0.71756 0.0
C325 C 0.7485 0.99623 0.90636 0.0
C326 C 0.71266 0.00473 0.98212 0.0
C327 C 0.58829 0.00211 0.92975 0.0
C328 C 0.65332 0.99739 0.89685 0.0
C329 C 0.61757 0.00555 0.97226 0.0
C330 C 0.77757 1.00023 0.94885 0.0
C331 C 0.81881 0.98753 0.87307 0.0
H332 H 0.32915 0.85083 0.57147 0.0
H333 H 0.20599 0.81825 0.62145 0.0
H334 H 0.29483 0.9175 0.50668 0.0
H335 H 0.00542 0.92204 0.54211 0.0
H336 H 0.515 0.00285 0.9223 0.0
H337 H 0.62919 0.99435 0.86421 0.0
H338 H 0.56597 0.00911 0.99727 0.0
H339 H 0.85119 0.99887 0.95591 0.0
C340 C 0.88377 0.5667 0.25007 0.0
C341 C 0.97841 0.66304 0.23762 0.0
C342 C 0.89505 0.63348 0.25146 0.0
C343 C 0.04775 0.62462 0.21966 0.0
C344 C 0.95496 0.52721 0.23427 0.0
C345 C 0.03555 0.55681 0.21751 0.0
N346 N 0.80443 0.54016 0.26589 0.0
C347 C 0.794 0.47401 0.27003 0.0
C348 C 0.94334 0.45926 0.23648 0.0
C349 C 0.86314 0.43252 0.2552 0.0
Gd350 Gd 0.45004 0.64229 0.21404 0.0
Gd351 Gd 0.68563 0.61338 0.28165 0.0
N352 N 0.82581 0.6691 0.2683 0.0
C353 C 0.98975 0.73017 0.24255 0.0
C354 C 0.83838 0.73381 0.27567 0.0
C355 C 0.91967 0.7656 0.26198 0.0
H356 H 0.78323 0.76132 0.28989 0.0
H357 H 0.92784 0.81749 0.2655 0.0
H358 H 0.49917 0.53443 0.13764 0.0
H359 H 0.73122 0.45335 0.28373 0.0
H360 H 0.45696 0.42349 0.12007 0.0
H361 H 0.05258 0.75489 0.23198 0.0
H362 H 0.11153 0.64701 0.20837 0.0
H363 H 0.29229 0.68933 0.28525 0.0
H364 H 0.99647 0.42713 0.22468 0.0
H365 H 0.85409 0.38007 0.2578 0.0
H366 H 0.22595 0.3611 0.22398 0.0
H367 H 0.08969 0.52734 0.20404 0.0
H368 H 0.12163 0.52408 0.31886 0.0
H369 H 0.16392 0.63983 0.32781 0.0
N370 N 0.32292 0.60192 0.25343 0.0
C371 C 0.29972 0.53867 0.24729 0.0
C372 C 0.27442 0.63867 0.28136 0.0
C373 C 0.17846 0.54535 0.30043 0.0
C374 C 0.20194 0.61079 0.30549 0.0
C375 C 0.22658 0.50869 0.27065 0.0
H376 H 0.14572 0.42021 0.28022 0.0
N377 N 0.41974 0.53419 0.19523 0.0
C378 C 0.3489 0.50409 0.21717 0.0
C379 C 0.36271 0.41004 0.17331 0.0
C380 C 0.3206 0.44035 0.20758 0.0
C381 C 0.45442 0.50707 0.15931 0.0
C382 C 0.42824 0.44427 0.14843 0.0
O383 O 0.69405 0.69316 0.22945 0.0
O384 O 0.54712 0.7298 0.20725 0.0
O385 O 0.43131 0.67673 0.14829 0.0
O386 O 0.316 0.68014 0.1915 0.0
O387 O 0.60592 0.70646 0.29676 0.0
O388 O 0.45846 0.71652 0.26448 0.0
O389 O 0.46299 0.59569 0.28087 0.0
O390 O 0.58585 0.52947 0.27637 0.0
O391 O 0.61865 0.60889 0.34375 0.0
O392 O 0.76707 0.59198 0.33878 0.0
O393 O 0.57863 0.61174 0.17947 0.0
O394 O 0.6481 0.54571 0.22994 0.0
C395 C 0.63847 0.73541 0.20953 0.0
C396 C 0.52256 0.73342 0.29213 0.0
C397 C 0.29207 0.63752 0.12213 0.0
C398 C 0.29211 0.58527 0.05298 0.0
C399 C 0.20185 0.53881 0.11223 0.0
C400 C 0.23213 0.58845 0.13823 0.0
C401 C 0.23262 0.53656 0.06999 0.0
C402 C 0.31973 0.6365 0.07894 0.0
C403 C 0.34198 0.68028 0.1516 0.0
C404 C 0.24821 0.41011 0.23096 0.0
C405 C 0.20216 0.44389 0.26281 0.0
H406 H 0.34129 0.36172 0.16458 0.0
C407 C 0.49951 0.53772 0.28711 0.0
C408 C 0.64137 0.56841 0.19052 0.0
C409 C 0.71056 0.64018 0.40123 0.0
C410 C 0.68527 0.65651 0.47719 0.0
C411 C 0.7606 0.74082 0.43259 0.0
C412 C 0.75204 0.70203 0.39692 0.0
C413 C 0.72733 0.71837 0.47257 0.0
C414 C 0.67752 0.61772 0.44122 0.0
C415 C 0.69643 0.59931 0.36428 0.0
H416 H 0.15691 0.50071 0.12532 0.0
H417 H 0.21291 0.58624 0.17152 0.0
H418 H 0.20995 0.49672 0.05066 0.0
H419 H 0.36792 0.67313 0.06646 0.0
H420 H 0.79262 0.78855 0.4292 0.0
H421 H 0.77706 0.72037 0.36611 0.0
H422 H 0.73443 0.74938 0.49972 0.0
H423 H 0.6447 0.5701 0.44402 0.0
loop_
_geom_bond_atom_site_label_1
_geom_bond_atom_site_label_2
_geom_bond_distance
_geom_bond_site_symmetry_2
_ccdc_geom_bond_type
O0 Cd1 2.300 . S
O0 C7 1.275 . S
Cd1 O0 2.300 . S
Cd1 O9 2.381 . S
Cd1 O10 2.378 . S
O2 Cd3 2.385 . S
O2 C7 1.255 . S
Cd3 O2 2.385 . S
Cd3 O4 2.317 . S
O4 Cd3 2.317 . S
O4 C5 1.232 . S
C5 O4 1.232 . S
C5 O6 1.218 . S
O6 C5 1.218 . S
C7 O0 1.275 . S
C7 O2 1.255 . S
C8 O9 1.258 . S
C8 O10 1.256 . S
O9 Cd1 2.381 . S
O9 C8 1.258 . S
O10 Cd1 2.378 . S
O10 C8 1.256 . S
O11 Cd12 2.300 . S
O11 C18 1.275 . S
Cd12 O11 2.300 . S
Cd12 O20 2.381 . S
Cd12 O21 2.378 . S
O13 Cd14 2.385 1_545 S
O13 C18 1.255 . S
Cd14 O13 2.385 1_565 S
Cd14 O15 2.317 1_565 S
O15 Cd14 2.317 1_545 S
O15 C16 1.232 1_545 S
C16 O15 1.232 1_565 S
C16 O17 1.218 . S
O17 C16 1.218 . S
C18 O11 1.275 . S
C18 O13 1.255 . S
C19 O20 1.258 . S
C19 O21 1.256 . S
O20 Cd12 2.381 . S
O20 C19 1.258 . S
O21 Cd12 2.378 . S
O21 C19 1.256 . S
O22 Cd23 2.300 . S
O22 C29 1.275 . S
Cd23 O22 2.300 . S
Cd23 O31 2.381 . S
Cd23 O32 2.378 . S
O24 Cd25 2.385 1_655 S
O24 C29 1.255 . S
Cd25 O24 2.385 1_455 S
Cd25 O26 2.317 1_455 S
O26 Cd25 2.317 1_655 S
O26 C27 1.232 . S
C27 O26 1.232 . S
C27 O28 1.218 . S
O28 C27 1.218 . S
C29 O22 1.275 . S
C29 O24 1.255 . S
C30 O31 1.258 . S
C30 O32 1.256 . S
O31 Cd23 2.381 . S
O31 C30 1.258 . S
O32 Cd23 2.378 . S
O32 C30 1.256 . S
O33 Cd34 2.300 . S
O33 C40 1.275 . S
Cd34 O33 2.300 . S
Cd34 O42 2.381 . S
Cd34 O43 2.378 . S
O35 Cd36 2.385 . S
O35 C40 1.255 . S
Cd36 O35 2.385 . S
Cd36 O37 2.317 . S
O37 Cd36 2.317 . S
O37 C38 1.232 . S
C38 O37 1.232 . S
C38 O39 1.218 . S
O39 C38 1.218 . S
C40 O33 1.275 . S
C40 O35 1.255 . S
C41 O42 1.258 . S
C41 O43 1.256 . S
O42 Cd34 2.381 . S
O42 C41 1.258 . S
O43 Cd34 2.378 . S
O43 C41 1.256 . S
O44 Cd45 2.300 . S
O44 C51 1.275 . S
Cd45 O44 2.300 . S
Cd45 O53 2.381 . S
Cd45 O54 2.378 . S
O46 Cd47 2.385 . S
O46 C51 1.255 . S
Cd47 O46 2.385 . S
Cd47 O48 2.317 . S
O48 Cd47 2.317 . S
O48 C49 1.232 . S
C49 O48 1.232 . S
C49 O50 1.218 . S
O50 C49 1.218 . S
C51 O44 1.275 . S
C51 O46 1.255 . S
C52 O53 1.258 . S
C52 O54 1.256 . S
O53 Cd45 2.381 . S
O53 C52 1.258 . S
O54 Cd45 2.378 . S
O54 C52 1.256 . S
O55 Cd56 2.300 . S
O55 C62 1.275 . S
Cd56 O55 2.300 . S
Cd56 O64 2.381 . S
Cd56 O65 2.378 . S
O57 Cd58 2.385 1_565 S
O57 C62 1.255 . S
Cd58 O57 2.385 1_545 S
Cd58 O59 2.317 1_545 S
O59 Cd58 2.317 1_565 S
O59 C60 1.232 . S
C60 O59 1.232 . S
C60 O61 1.218 1_565 S
O61 C60 1.218 1_545 S
C62 O55 1.275 . S
C62 O57 1.255 . S
C63 O64 1.258 . S
C63 O65 1.256 . S
O64 Cd56 2.381 . S
O64 C63 1.258 . S
O65 Cd56 2.378 . S
O65 C63 1.256 . S
O66 Cd67 2.300 . S
O66 C73 1.275 . S
Cd67 O66 2.300 . S
Cd67 O75 2.381 . S
Cd67 O76 2.378 . S
O68 Cd69 2.385 . S
O68 C73 1.255 . S
Cd69 O68 2.385 . S
Cd69 O70 2.317 . S
O70 Cd69 2.317 . S
O70 C71 1.232 . S
C71 O70 1.232 . S
C71 O72 1.218 . S
O72 C71 1.218 . S
C73 O66 1.275 . S
C73 O68 1.255 . S
C74 O75 1.258 . S
C74 O76 1.256 . S
O75 Cd67 2.381 . S
O75 C74 1.258 . S
O76 Cd67 2.378 . S
O76 C74 1.256 . S
O77 Cd78 2.300 . S
O77 C84 1.275 . S
Cd78 O77 2.300 . S
Cd78 O86 2.381 . S
Cd78 O87 2.378 . S
O79 Cd80 2.385 . S
O79 C84 1.255 . S
Cd80 O79 2.385 . S
Cd80 O81 2.317 . S
O81 Cd80 2.317 . S
O81 C82 1.232 . S
C82 O81 1.232 . S
C82 O83 1.218 . S
O83 C82 1.218 . S
C84 O77 1.275 . S
C84 O79 1.255 . S
C85 O86 1.258 . S
C85 O87 1.256 . S
O86 Cd78 2.381 . S
O86 C85 1.258 . S
O87 Cd78 2.378 . S
O87 C85 1.256 . S
C88 C90 1.422 1_545 S
C88 C92 1.415 . S
C88 N94 1.369 . S
C89 C90 1.421 . S
C89 C91 1.417 . S
C89 C101 1.422 . S
C90 C88 1.422 1_565 S
C90 C89 1.421 . S
C90 N100 1.359 . S
C91 C89 1.417 . S
C91 C93 1.329 . S
C91 H110 0.930 . S
C92 C88 1.415 . S
C92 C93 1.437 1_545 S
C92 C96 1.413 . S
C93 C91 1.329 . S
C93 C92 1.437 1_565 S
C93 H115 0.929 . S
N94 C88 1.369 . S
N94 C95 1.338 . S
N94 Gd99 2.622 . S
C95 N94 1.338 . S
C95 C97 1.378 . S
C95 H107 0.929 . S
C96 C92 1.413 . S
C96 C97 1.348 . S
C96 H112 0.931 . S
C97 C95 1.378 . S
C97 C96 1.348 . S
C97 H113 0.930 . S
Gd98 N118 2.622 . S
Gd98 N125 2.570 . S
Gd98 O132 2.353 . S
Gd98 O133 2.468 . S
Gd98 O134 2.427 . S
Gd98 O136 2.388 1_545 S
Gd98 O137 2.386 . S
Gd98 O141 2.307 . S
Gd98 C151 2.805 . S
Gd99 N94 2.622 . S
Gd99 N100 2.570 1_545 S
Gd99 O131 2.386 . S
Gd99 O135 2.307 1_655 S
Gd99 O138 2.353 1_655 S
Gd99 O139 2.468 . S
Gd99 O140 2.427 . S
Gd99 O142 2.388 . S
Gd99 C163 2.805 . S
N100 C90 1.359 . S
N100 Gd99 2.570 1_565 S
N100 C102 1.343 . S
C101 C89 1.422 . S
C101 C103 1.321 . S
C101 H109 0.931 . S
C102 N100 1.343 . S
C102 C103 1.390 . S
C102 H104 0.931 . S
C103 C101 1.321 . S
C103 C102 1.390 . S
C103 H105 0.930 . S
H104 C102 0.931 . S
H105 C103 0.930 . S
H106 C129 0.931 . S
H107 C95 0.929 . S
H108 C130 0.930 . S
H109 C101 0.931 . S
H110 C91 0.930 . S
H111 C120 0.929 1_565 S
H112 C96 0.931 . S
H113 C97 0.930 . S
H114 C152 0.930 . S
H115 C93 0.929 . S
H116 C121 0.931 . S
H117 C122 0.930 1_565 S
N118 Gd98 2.622 . S
N118 C119 1.369 . S
N118 C120 1.338 . S
C119 N118 1.369 . S
C119 C123 1.415 . S
C119 C126 1.422 . S
C120 H111 0.929 1_545 S
C120 N118 1.338 . S
C120 C122 1.378 . S
C121 H116 0.931 . S
C121 C122 1.348 . S
C121 C123 1.413 . S
C122 H117 0.930 1_545 S
C122 C120 1.378 . S
C122 C121 1.348 . S
C123 C119 1.415 . S
C123 C121 1.413 . S
C123 C153 1.437 . S
H124 C153 0.929 . S
N125 Gd98 2.570 . S
N125 C126 1.359 . S
N125 C129 1.343 . S
C126 C119 1.422 . S
C126 N125 1.359 . S
C126 C128 1.421 . S
C127 C128 1.422 . S
C127 C130 1.321 . S
C127 H154 0.931 . S
C128 C126 1.421 . S
C128 C127 1.422 . S
C128 C152 1.417 . S
C129 H106 0.931 . S
C129 N125 1.343 . S
C129 C130 1.390 . S
C130 H108 0.930 . S
C130 C127 1.321 . S
C130 C129 1.390 . S
O131 Gd99 2.386 . S
O131 C143 1.265 . S
O132 Gd98 2.353 . S
O132 C143 1.242 1_455 S
O133 Gd98 2.468 . S
O133 C151 1.263 . S
O134 Gd98 2.427 . S
O134 C151 1.252 . S
O135 Gd99 2.307 1_455 S
O135 C144 1.261 1_545 S
O136 Gd98 2.388 1_565 S
O136 C144 1.252 . S
O137 Gd98 2.386 . S
O137 C155 1.265 . S
O138 Gd99 2.353 1_455 S
O138 C155 1.242 . S
O139 Gd99 2.468 . S
O139 C163 1.263 . S
O140 Gd99 2.427 . S
O140 C163 1.252 . S
O141 Gd98 2.307 . S
O141 C156 1.261 1_455 S
O142 Gd99 2.388 . S
O142 C156 1.252 . S
C143 O131 1.265 . S
C143 O132 1.242 1_655 S
C144 O135 1.261 1_565 S
C144 O136 1.252 . S
C145 C148 1.394 1_545 S
C145 C150 1.370 . S
C145 C151 1.500 . S
C146 C149 1.383 . S
C146 C150 1.395 1_556 S
C147 C148 1.396 . S
C147 C149 1.365 1_564 S
C147 H164 0.929 . S
C148 C145 1.394 1_565 S
C148 C147 1.396 . S
C148 H165 0.930 . S
C149 C146 1.383 . S
C149 C147 1.365 1_546 S
C149 H166 0.931 . S
C150 C145 1.370 . S
C150 C146 1.395 1_554 S
C150 H167 0.930 . S
C151 Gd98 2.805 . S
C151 O133 1.263 . S
C151 O134 1.252 . S
C151 C145 1.500 . S
C152 H114 0.930 . S
C152 C128 1.417 . S
C152 C153 1.329 . S
C153 C123 1.437 . S
C153 H124 0.929 . S
C153 C152 1.329 . S
H154 C127 0.931 . S
C155 O137 1.265 . S
C155 O138 1.242 . S
C156 O141 1.261 1_655 S
C156 O142 1.252 . S
C157 C160 1.394 . S
C157 C162 1.370 . S
C157 C163 1.500 . S
C158 C161 1.383 . S
C158 C162 1.395 . S
C159 C160 1.396 . S
C159 C161 1.365 . S
C159 H168 0.929 . S
C160 C157 1.394 . S
C160 C159 1.396 . S
C160 H169 0.930 . S
C161 C158 1.383 . S
C161 C159 1.365 . S
C161 H170 0.931 . S
C162 C157 1.370 . S
C162 C158 1.395 . S
C162 H171 0.930 . S
C163 Gd99 2.805 . S
C163 O139 1.263 . S
C163 O140 1.252 . S
C163 C157 1.500 . S
H164 C147 0.929 . S
H165 C148 0.930 . S
H166 C149 0.931 . S
H167 C150 0.930 . S
H168 C159 0.929 . S
H169 C160 0.930 . S
H170 C161 0.931 . S
H171 C162 0.930 . S
C172 C174 1.422 . S
C172 C176 1.415 . S
C172 N178 1.369 . S
C173 C174 1.421 . S
C173 C175 1.417 . S
C173 C185 1.422 . S
C174 C172 1.422 . S
C174 C173 1.421 . S
C174 N184 1.359 . S
C175 C173 1.417 . S
C175 C177 1.329 1_655 S
C175 H194 0.930 1_655 S
C176 C172 1.415 . S
C176 C177 1.437 1_655 S
C176 C180 1.413 1_655 S
C177 C175 1.329 1_455 S
C177 C176 1.437 1_455 S
C177 H199 0.929 . S
N178 C172 1.369 . S
N178 C179 1.338 . S
N178 Gd183 2.622 . S
C179 N178 1.338 . S
C179 C181 1.378 . S
C179 H191 0.929 . S
C180 C176 1.413 1_455 S
C180 C181 1.348 1_455 S
C180 H196 0.931 . S
C181 C179 1.378 . S
C181 C180 1.348 1_655 S
C181 H197 0.930 . S
Gd182 N202 2.622 . S
Gd182 N209 2.570 . S
Gd182 O216 2.353 . S
Gd182 O217 2.468 . S
Gd182 O218 2.427 . S
Gd182 O220 2.388 . S
Gd182 O221 2.386 . S
Gd182 O225 2.307 . S
Gd182 C235 2.805 . S
Gd183 N178 2.622 . S
Gd183 N184 2.570 . S
Gd183 O215 2.386 . S
Gd183 O219 2.307 . S
Gd183 O222 2.353 . S
Gd183 O223 2.468 . S
Gd183 O224 2.427 . S
Gd183 O226 2.388 . S
Gd183 C247 2.805 . S
N184 C174 1.359 . S
N184 Gd183 2.570 . S
N184 C186 1.343 . S
C185 C173 1.422 . S
C185 C187 1.321 . S
C185 H193 0.931 . S
C186 N184 1.343 . S
C186 C187 1.390 . S
C186 H188 0.931 . S
C187 C185 1.321 . S
C187 C186 1.390 . S
C187 H189 0.930 . S
H188 C186 0.931 . S
H189 C187 0.930 . S
H190 C213 0.931 . S
H191 C179 0.929 . S
H192 C214 0.930 . S
H193 C185 0.931 . S
H194 C175 0.930 1_455 S
H195 C204 0.929 . S
H196 C180 0.931 . S
H197 C181 0.930 . S
H198 C236 0.930 . S
H199 C177 0.929 . S
H200 C205 0.931 1_655 S
H201 C206 0.930 . S
N202 Gd182 2.622 . S
N202 C203 1.369 . S
N202 C204 1.338 . S
C203 N202 1.369 . S
C203 C207 1.415 . S
C203 C210 1.422 . S
C204 H195 0.929 . S
C204 N202 1.338 . S
C204 C206 1.378 . S
C205 H200 0.931 1_455 S
C205 C206 1.348 . S
C205 C207 1.413 . S
C206 H201 0.930 . S
C206 C204 1.378 . S
C206 C205 1.348 . S
C207 C203 1.415 . S
C207 C205 1.413 . S
C207 C237 1.437 . S
H208 C237 0.929 1_655 S
N209 Gd182 2.570 . S
N209 C210 1.359 . S
N209 C213 1.343 . S
C210 C203 1.422 . S
C210 N209 1.359 . S
C210 C212 1.421 . S
C211 C212 1.422 . S
C211 C214 1.321 . S
C211 H238 0.931 . S
C212 C210 1.421 . S
C212 C211 1.422 . S
C212 C236 1.417 . S
C213 H190 0.931 . S
C213 N209 1.343 . S
C213 C214 1.390 . S
C214 H192 0.930 . S
C214 C211 1.321 . S
C214 C213 1.390 . S
O215 Gd183 2.386 . S
O215 C227 1.265 . S
O216 Gd182 2.353 . S
O216 C227 1.242 . S
O217 Gd182 2.468 . S
O217 C235 1.263 . S
O218 Gd182 2.427 . S
O218 C235 1.252 . S
O219 Gd183 2.307 . S
O219 C228 1.261 . S
O220 Gd182 2.388 . S
O220 C228 1.252 . S
O221 Gd182 2.386 . S
O221 C239 1.265 . S
O222 Gd183 2.353 . S
O222 C239 1.242 . S
O223 Gd183 2.468 . S
O223 C247 1.263 . S
O224 Gd183 2.427 . S
O224 C247 1.252 . S
O225 Gd182 2.307 . S
O225 C240 1.261 . S
O226 Gd183 2.388 . S
O226 C240 1.252 . S
C227 O215 1.265 . S
C227 O216 1.242 . S
C228 O219 1.261 . S
C228 O220 1.252 . S
C229 C232 1.394 . S
C229 C234 1.370 . S
C229 C235 1.500 . S
C230 C233 1.383 . S
C230 C234 1.395 . S
C231 C232 1.396 . S
C231 C233 1.365 . S
C231 H248 0.929 . S
C232 C229 1.394 . S
C232 C231 1.396 . S
C232 H249 0.930 . S
C233 C230 1.383 . S
C233 C231 1.365 . S
C233 H250 0.931 . S
C234 C229 1.370 . S
C234 C230 1.395 . S
C234 H251 0.930 . S
C235 Gd182 2.805 . S
C235 O217 1.263 . S
C235 O218 1.252 . S
C235 C229 1.500 . S
C236 H198 0.930 . S
C236 C212 1.417 . S
C236 C237 1.329 . S
C237 C207 1.437 . S
C237 H208 0.929 1_455 S
C237 C236 1.329 . S
H238 C211 0.931 . S
C239 O221 1.265 . S
C239 O222 1.242 . S
C240 O225 1.261 . S
C240 O226 1.252 . S
C241 C244 1.394 . S
C241 C246 1.370 . S
C241 C247 1.500 . S
C242 C245 1.383 . S
C242 C246 1.395 1_554 S
C243 C244 1.396 . S
C243 C245 1.365 1_556 S
C243 H252 0.929 . S
C244 C241 1.394 . S
C244 C243 1.396 . S
C244 H253 0.930 . S
C245 C242 1.383 . S
C245 C243 1.365 1_554 S
C245 H254 0.931 . S
C246 C241 1.370 . S
C246 C242 1.395 1_556 S
C246 H255 0.930 . S
C247 Gd183 2.805 . S
C247 O223 1.263 . S
C247 O224 1.252 . S
C247 C241 1.500 . S
H248 C231 0.929 . S
H249 C232 0.930 . S
H250 C233 0.931 . S
H251 C234 0.930 . S
H252 C243 0.929 . S
H253 C244 0.930 . S
H254 C245 0.931 . S
H255 C246 0.930 . S
C256 C258 1.422 . S
C256 C260 1.415 . S
C256 N262 1.369 . S
C257 C258 1.421 . S
C257 C259 1.417 . S
C257 C269 1.422 . S
C258 C256 1.422 . S
C258 C257 1.421 . S
C258 N268 1.359 . S
C259 C257 1.417 . S
C259 C261 1.329 . S
C259 H278 0.930 . S
C260 C256 1.415 . S
C260 C261 1.437 . S
C260 C264 1.413 . S
C261 C259 1.329 . S
C261 C260 1.437 . S
C261 H283 0.929 . S
N262 C256 1.369 . S
N262 C263 1.338 . S
N262 Gd267 2.622 . S
C263 N262 1.338 . S
C263 C265 1.378 . S
C263 H275 0.929 1_565 S
C264 C260 1.413 . S
C264 C265 1.348 . S
C264 H280 0.931 . S
C265 C263 1.378 . S
C265 C264 1.348 . S
C265 H281 0.930 1_565 S
Gd266 N286 2.622 . S
Gd266 N293 2.570 1_565 S
Gd266 O300 2.353 1_455 S
Gd266 O301 2.468 . S
Gd266 O302 2.427 . S
Gd266 O304 2.388 . S
Gd266 O305 2.386 . S
Gd266 O309 2.307 1_455 S
Gd266 C319 2.805 . S
Gd267 N262 2.622 . S
Gd267 N268 2.570 . S
Gd267 O299 2.386 . S
Gd267 O303 2.307 1_655 S
Gd267 O306 2.353 1_655 S
Gd267 O307 2.468 . S
Gd267 O308 2.427 . S
Gd267 O310 2.388 1_565 S
Gd267 C331 2.805 . S
N268 C258 1.359 . S
N268 Gd267 2.570 . S
N268 C270 1.343 . S
C269 C257 1.422 . S
C269 C271 1.321 . S
C269 H277 0.931 . S
C270 N268 1.343 . S
C270 C271 1.390 . S
C270 H272 0.931 . S
C271 C269 1.321 . S
C271 C270 1.390 . S
C271 H273 0.930 . S
H272 C270 0.931 . S
H273 C271 0.930 . S
H274 C297 0.931 . S
H275 C263 0.929 1_545 S
H276 C298 0.930 . S
H277 C269 0.931 . S
H278 C259 0.930 . S
H279 C288 0.929 . S
H280 C264 0.931 . S
H281 C265 0.930 1_545 S
H282 C320 0.930 . S
H283 C261 0.929 . S
H284 C289 0.931 . S
H285 C290 0.930 . S
N286 Gd266 2.622 . S
N286 C287 1.369 . S
N286 C288 1.338 . S
C287 N286 1.369 . S
C287 C291 1.415 . S
C287 C294 1.422 1_565 S
C288 H279 0.929 . S
C288 N286 1.338 . S
C288 C290 1.378 . S
C289 H284 0.931 . S
C289 C290 1.348 . S
C289 C291 1.413 . S
C290 H285 0.930 . S
C290 C288 1.378 . S
C290 C289 1.348 . S
C291 C287 1.415 . S
C291 C289 1.413 . S
C291 C321 1.437 1_565 S
H292 C321 0.929 . S
N293 Gd266 2.570 1_545 S
N293 C294 1.359 . S
N293 C297 1.343 . S
C294 C287 1.422 1_545 S
C294 N293 1.359 . S
C294 C296 1.421 . S
C295 C296 1.422 . S
C295 C298 1.321 . S
C295 H322 0.931 . S
C296 C294 1.421 . S
C296 C295 1.422 . S
C296 C320 1.417 . S
C297 H274 0.931 . S
C297 N293 1.343 . S
C297 C298 1.390 . S
C298 H276 0.930 . S
C298 C295 1.321 . S
C298 C297 1.390 . S
O299 Gd267 2.386 . S
O299 C311 1.265 . S
O300 Gd266 2.353 1_655 S
O300 C311 1.242 . S
O301 Gd266 2.468 . S
O301 C319 1.263 . S
O302 Gd266 2.427 . S
O302 C319 1.252 . S
O303 Gd267 2.307 1_455 S
O303 C312 1.261 . S
O304 Gd266 2.388 . S
O304 C312 1.252 . S
O305 Gd266 2.386 . S
O305 C323 1.265 1_565 S
O306 Gd267 2.353 1_455 S
O306 C323 1.242 1_565 S
O307 Gd267 2.468 . S
O307 C331 1.263 . S
O308 Gd267 2.427 . S
O308 C331 1.252 . S
O309 Gd266 2.307 1_655 S
O309 C324 1.261 1_565 S
O310 Gd267 2.388 1_545 S
O310 C324 1.252 . S
C311 O299 1.265 . S
C311 O300 1.242 . S
C312 O303 1.261 . S
C312 O304 1.252 . S
C313 C316 1.394 . S
C313 C318 1.370 . S
C313 C319 1.500 . S
C314 C317 1.383 . S
C314 C318 1.395 . S
C315 C316 1.396 . S
C315 C317 1.365 . S
C315 H332 0.929 . S
C316 C313 1.394 . S
C316 C315 1.396 . S
C316 H333 0.930 . S
C317 C314 1.383 . S
C317 C315 1.365 . S
C317 H334 0.931 . S
C318 C313 1.370 . S
C318 C314 1.395 . S
C318 H335 0.930 . S
C319 Gd266 2.805 . S
C319 O301 1.263 . S
C319 O302 1.252 . S
C319 C313 1.500 . S
C320 H282 0.930 . S
C320 C296 1.417 . S
C320 C321 1.329 . S
C321 C291 1.437 1_545 S
C321 H292 0.929 . S
C321 C320 1.329 . S
H322 C295 0.931 . S
C323 O305 1.265 1_545 S
C323 O306 1.242 1_545 S
C324 O309 1.261 1_545 S
C324 O310 1.252 . S
C325 C328 1.394 1_565 S
C325 C330 1.370 . S
C325 C331 1.500 . S
C326 C329 1.383 1_556 S
C326 C330 1.395 . S
C327 C328 1.396 . S
C327 C329 1.365 1_546 S
C327 H336 0.929 . S
C328 C325 1.394 1_545 S
C328 C327 1.396 . S
C328 H337 0.930 . S
C329 C326 1.383 1_554 S
C329 C327 1.365 1_564 S
C329 H338 0.931 . S
C330 C325 1.370 . S
C330 C326 1.395 . S
C330 H339 0.930 . S
C331 Gd267 2.805 . S
C331 O307 1.263 . S
C331 O308 1.252 . S
C331 C325 1.500 . S
H332 C315 0.929 . S
H333 C316 0.930 . S
H334 C317 0.931 . S
H335 C318 0.930 . S
H336 C327 0.929 . S
H337 C328 0.930 . S
H338 C329 0.931 . S
H339 C330 0.930 . S
C340 C342 1.422 . S
C340 C344 1.415 . S
C340 N346 1.369 . S
C341 C342 1.421 . S
C341 C343 1.417 . S
C341 C353 1.422 . S
C342 C340 1.422 . S
C342 C341 1.421 . S
C342 N352 1.359 . S
C343 C341 1.417 . S
C343 C345 1.329 . S
C343 H362 0.930 . S
C344 C340 1.415 . S
C344 C345 1.437 . S
C344 C348 1.413 . S
C345 C343 1.329 . S
C345 C344 1.437 . S
C345 H367 0.929 1_655 S
N346 C340 1.369 . S
N346 C347 1.338 . S
N346 Gd351 2.622 . S
C347 N346 1.338 . S
C347 C349 1.378 . S
C347 H359 0.929 . S
C348 C344 1.413 . S
C348 C349 1.348 . S
C348 H364 0.931 1_655 S
C349 C347 1.378 . S
C349 C348 1.348 . S
C349 H365 0.930 . S
Gd350 N370 2.622 . S
Gd350 N377 2.570 . S
Gd350 O384 2.353 . S
Gd350 O385 2.468 . S
Gd350 O386 2.427 . S
Gd350 O388 2.388 . S
Gd350 O389 2.386 . S
Gd350 O393 2.307 . S
Gd350 C403 2.805 . S
Gd351 N346 2.622 . S
Gd351 N352 2.570 . S
Gd351 O383 2.386 . S
Gd351 O387 2.307 . S
Gd351 O390 2.353 . S
Gd351 O391 2.468 . S
Gd351 O392 2.427 . S
Gd351 O394 2.388 . S
Gd351 C415 2.805 . S
N352 C342 1.359 . S
N352 Gd351 2.570 . S
N352 C354 1.343 . S
C353 C341 1.422 . S
C353 C355 1.321 . S
C353 H361 0.931 . S
C354 N352 1.343 . S
C354 C355 1.390 . S
C354 H356 0.931 . S
C355 C353 1.321 . S
C355 C354 1.390 . S
C355 H357 0.930 . S
H356 C354 0.931 . S
H357 C355 0.930 . S
H358 C381 0.931 . S
H359 C347 0.929 . S
H360 C382 0.930 . S
H361 C353 0.931 . S
H362 C343 0.930 . S
H363 C372 0.929 . S
H364 C348 0.931 1_455 S
H365 C349 0.930 . S
H366 C404 0.930 . S
H367 C345 0.929 1_455 S
H368 C373 0.931 1_655 S
H369 C374 0.930 . S
N370 Gd350 2.622 . S
N370 C371 1.369 . S
N370 C372 1.338 . S
C371 N370 1.369 . S
C371 C375 1.415 . S
C371 C378 1.422 . S
C372 H363 0.929 . S
C372 N370 1.338 . S
C372 C374 1.378 . S
C373 H368 0.931 1_455 S
C373 C374 1.348 . S
C373 C375 1.413 . S
C374 H369 0.930 . S
C374 C372 1.378 . S
C374 C373 1.348 . S
C375 C371 1.415 . S
C375 C373 1.413 . S
C375 C405 1.437 . S
H376 C405 0.929 1_655 S
N377 Gd350 2.570 . S
N377 C378 1.359 . S
N377 C381 1.343 . S
C378 C371 1.422 . S
C378 N377 1.359 . S
C378 C380 1.421 . S
C379 C380 1.422 . S
C379 C382 1.321 . S
C379 H406 0.931 . S
C380 C378 1.421 . S
C380 C379 1.422 . S
C380 C404 1.417 . S
C381 H358 0.931 . S
C381 N377 1.343 . S
C381 C382 1.390 . S
C382 H360 0.930 . S
C382 C379 1.321 . S
C382 C381 1.390 . S
O383 Gd351 2.386 . S
O383 C395 1.265 . S
O384 Gd350 2.353 . S
O384 C395 1.242 . S
O385 Gd350 2.468 . S
O385 C403 1.263 . S
O386 Gd350 2.427 . S
O386 C403 1.252 . S
O387 Gd351 2.307 . S
O387 C396 1.261 . S
O388 Gd350 2.388 . S
O388 C396 1.252 . S
O389 Gd350 2.386 . S
O389 C407 1.265 . S
O390 Gd351 2.353 . S
O390 C407 1.242 . S
O391 Gd351 2.468 . S
O391 C415 1.263 . S
O392 Gd351 2.427 . S
O392 C415 1.252 . S
O393 Gd350 2.307 . S
O393 C408 1.261 . S
O394 Gd351 2.388 . S
O394 C408 1.252 . S
C395 O383 1.265 . S
C395 O384 1.242 . S
C396 O387 1.261 . S
C396 O388 1.252 . S
C397 C400 1.394 . S
C397 C402 1.370 . S
C397 C403 1.500 . S
C398 C401 1.383 1_554 S
C398 C402 1.395 . S
C399 C400 1.396 . S
C399 C401 1.365 1_554 S
C399 H416 0.929 . S
C400 C397 1.394 . S
C400 C399 1.396 . S
C400 H417 0.930 . S
C401 C398 1.383 1_556 S
C401 C399 1.365 1_556 S
C401 H418 0.931 . S
C402 C397 1.370 . S
C402 C398 1.395 . S
C402 H419 0.930 . S
C403 Gd350 2.805 . S
C403 O385 1.263 . S
C403 O386 1.252 . S
C403 C397 1.500 . S
C404 H366 0.930 . S
C404 C380 1.417 . S
C404 C405 1.329 . S
C405 C375 1.437 . S
C405 H376 0.929 1_455 S
C405 C404 1.329 . S
H406 C379 0.931 . S
C407 O389 1.265 . S
C407 O390 1.242 . S
C408 O393 1.261 . S
C408 O394 1.252 . S
C409 C412 1.394 . S
C409 C414 1.370 . S
C409 C415 1.500 . S
C410 C413 1.383 . S
C410 C414 1.395 . S
C411 C412 1.396 . S
C411 C413 1.365 . S
C411 H420 0.929 . S
C412 C409 1.394 . S
C412 C411 1.396 . S
C412 H421 0.930 . S
C413 C410 1.383 . S
C413 C411 1.365 . S
C413 H422 0.931 . S
C414 C409 1.370 . S
C414 C410 1.395 . S
C414 H423 0.930 . S
C415 Gd351 2.805 . S
C415 O391 1.263 . S
C415 O392 1.252 . S
C415 C409 1.500 . S
H416 C399 0.929 . S
H417 C400 0.930 . S
H418 C401 0.931 . S
H419 C402 0.930 . S
H420 C411 0.929 . S
H421 C412 0.930 . S
H422 C413 0.931 . S
H423 C414 0.930 . S
C73 C144 1.820 . S
C228 C84 2.039 . S
C227 C51 1.797 . S
C62 C143 2.065 1_565 S
C324 C29 1.665 . S
C408 C38 2.283 . S
C7 C407 1.658 . S
C16 C323 2.141 1_565 S
C146 C18 1.864 . S
C230 C5 1.584 . S
C242 C40 1.456 . S
C158 C27 1.398 . S
C326 C60 0.958 1_556 S
C49 C410 1.023 . S
C398 C82 1.345 1_554 S
C71 C314 1.216 . S
C155 C8 1.643 . S
C239 C19 1.767 . S
C30 C240 1.607 . S
C156 C41 1.798 . S
C311 C52 1.580 . S
C63 C395 1.707 . S
C74 C396 1.370 . S
C85 C312 1.506 . S
