# Generated by pormake.
# Topology ocu, (6,8)-cn, num edge types: 1
# Building blocks:
#     Node 0, Type 0, BuildingBlock: KUMBOL_clean_sbu_0, # of connection points: 6
#     Node 1, Type 0, BuildingBlock: KUMBOL_clean_sbu_0, # of connection points: 6
#     Node 2, Type 0, BuildingBlock: KUMBOL_clean_sbu_0, # of connection points: 6
#     Node 3, Type 0, BuildingBlock: KUMBOL_clean_sbu_0, # of connection points: 6
#     Node 4, Type 0, BuildingBlock: KUMBOL_clean_sbu_0, # of connection points: 6
#     Node 5, Type 0, BuildingBlock: KUMBOL_clean_sbu_0, # of connection points: 6
#     Node 6, Type 0, BuildingBlock: KUMBOL_clean_sbu_0, # of connection points: 6
#     Node 7, Type 0, BuildingBlock: KUMBOL_clean_sbu_0, # of connection points: 6
#     Node 8, Type 1, BuildingBlock: VETTIZ_charged_sbu_0, # of connection points: 8
#     Node 9, Type 1, BuildingBlock: VETTIZ_charged_sbu_0, # of connection points: 8
#     Node 10, Type 1, BuildingBlock: VETTIZ_charged_sbu_0, # of connection points: 8
#     Node 11, Type 1, BuildingBlock: VETTIZ_charged_sbu_0, # of connection points: 8
#     Node 12, Type 1, BuildingBlock: VETTIZ_charged_sbu_0, # of connection points: 8
#     Node 13, Type 1, BuildingBlock: VETTIZ_charged_sbu_0, # of connection points: 8
#     Edge 14, Type (0, 1), BuildingBlock: XUDNAN_clean_linker_2, # of connection points: 2
#     Edge 15, Type (0, 1), BuildingBlock: XUDNAN_clean_linker_2, # of connection points: 2
#     Edge 16, Type (0, 1), BuildingBlock: XUDNAN_clean_linker_2, # of connection points: 2
#     Edge 17, Type (0, 1), BuildingBlock: XUDNAN_clean_linker_2, # of connection points: 2
#     Edge 18, Type (0, 1), BuildingBlock: XUDNAN_clean_linker_2, # of connection points: 2
#     Edge 19, Type (0, 1), BuildingBlock: XUDNAN_clean_linker_2, # of connection points: 2
#     Edge 20, Type (0, 1), BuildingBlock: XUDNAN_clean_linker_2, # of connection points: 2
#     Edge 21, Type (0, 1), BuildingBlock: XUDNAN_clean_linker_2, # of connection points: 2
#     Edge 22, Type (0, 1), BuildingBlock: XUDNAN_clean_linker_2, # of connection points: 2
#     Edge 23, Type (0, 1), BuildingBlock: XUDNAN_clean_linker_2, # of connection points: 2
#     Edge 24, Type (0, 1), BuildingBlock: XUDNAN_clean_linker_2, # of connection points: 2
#     Edge 25, Type (0, 1), BuildingBlock: XUDNAN_clean_linker_2, # of connection points: 2
#     Edge 26, Type (0, 1), BuildingBlock: XUDNAN_clean_linker_2, # of connection points: 2
#     Edge 27, Type (0, 1), BuildingBlock: XUDNAN_clean_linker_2, # of connection points: 2
#     Edge 28, Type (0, 1), BuildingBlock: XUDNAN_clean_linker_2, # of connection points: 2
#     Edge 29, Type (0, 1), BuildingBlock: XUDNAN_clean_linker_2, # of connection points: 2
#     Edge 30, Type (0, 1), BuildingBlock: XUDNAN_clean_linker_2, # of connection points: 2
#     Edge 31, Type (0, 1), BuildingBlock: XUDNAN_clean_linker_2, # of connection points: 2
#     Edge 32, Type (0, 1), BuildingBlock: XUDNAN_clean_linker_2, # of connection points: 2
#     Edge 33, Type (0, 1), BuildingBlock: XUDNAN_clean_linker_2, # of connection points: 2
#     Edge 34, Type (0, 1), BuildingBlock: XUDNAN_clean_linker_2, # of connection points: 2
#     Edge 35, Type (0, 1), BuildingBlock: XUDNAN_clean_linker_2, # of connection points: 2
#     Edge 36, Type (0, 1), BuildingBlock: XUDNAN_clean_linker_2, # of connection points: 2
#     Edge 37, Type (0, 1), BuildingBlock: XUDNAN_clean_linker_2, # of connection points: 2
#     Edge 38, Type (0, 1), BuildingBlock: XUDNAN_clean_linker_2, # of connection points: 2
#     Edge 39, Type (0, 1), BuildingBlock: XUDNAN_clean_linker_2, # of connection points: 2
#     Edge 40, Type (0, 1), BuildingBlock: XUDNAN_clean_linker_2, # of connection points: 2
#     Edge 41, Type (0, 1), BuildingBlock: XUDNAN_clean_linker_2, # of connection points: 2
#     Edge 42, Type (0, 1), BuildingBlock: XUDNAN_clean_linker_2, # of connection points: 2
#     Edge 43, Type (0, 1), BuildingBlock: XUDNAN_clean_linker_2, # of connection points: 2
#     Edge 44, Type (0, 1), BuildingBlock: XUDNAN_clean_linker_2, # of connection points: 2
#     Edge 45, Type (0, 1), BuildingBlock: XUDNAN_clean_linker_2, # of connection points: 2
#     Edge 46, Type (0, 1), BuildingBlock: XUDNAN_clean_linker_2, # of connection points: 2
#     Edge 47, Type (0, 1), BuildingBlock: XUDNAN_clean_linker_2, # of connection points: 2
#     Edge 48, Type (0, 1), BuildingBlock: XUDNAN_clean_linker_2, # of connection points: 2
#     Edge 49, Type (0, 1), BuildingBlock: XUDNAN_clean_linker_2, # of connection points: 2
#     Edge 50, Type (0, 1), BuildingBlock: XUDNAN_clean_linker_2, # of connection points: 2
#     Edge 51, Type (0, 1), BuildingBlock: XUDNAN_clean_linker_2, # of connection points: 2
#     Edge 52, Type (0, 1), BuildingBlock: XUDNAN_clean_linker_2, # of connection points: 2
#     Edge 53, Type (0, 1), BuildingBlock: XUDNAN_clean_linker_2, # of connection points: 2
#     Edge 54, Type (0, 1), BuildingBlock: XUDNAN_clean_linker_2, # of connection points: 2
#     Edge 55, Type (0, 1), BuildingBlock: XUDNAN_clean_linker_2, # of connection points: 2
#     Edge 56, Type (0, 1), BuildingBlock: XUDNAN_clean_linker_2, # of connection points: 2
#     Edge 57, Type (0, 1), BuildingBlock: XUDNAN_clean_linker_2, # of connection points: 2
#     Edge 58, Type (0, 1), BuildingBlock: XUDNAN_clean_linker_2, # of connection points: 2
#     Edge 59, Type (0, 1), BuildingBlock: XUDNAN_clean_linker_2, # of connection points: 2
#     Edge 60, Type (0, 1), BuildingBlock: XUDNAN_clean_linker_2, # of connection points: 2
#     Edge 61, Type (0, 1), BuildingBlock: XUDNAN_clean_linker_2, # of connection points: 2
# Relax obj value: 0.125
# Max RMSD: 0.255
# Mean RMSD: 0.161
data_MOF--net-ocu--node1-KUMBOL_clean_sbu_0--node2-VETTIZ_charged_sbu_0--edge1-XUDNAN_clean_linker_2
_symmetry_space_group_name_H-M    P1
_symmetry_Int_Tables_number       1
_symmetry_cell_setting            triclinic
loop_
_symmetry_equiv_pos_as_xyz
'x, y, z'
_cell_length_a     39.852891
_cell_length_b     37.977544
_cell_length_c     41.709538
_cell_angle_alpha  84.056665
_cell_angle_beta   94.549436
_cell_angle_gamma 103.55133
loop_
_atom_site_label
_atom_site_type_symbol
_atom_site_fract_x
_atom_site_fract_y
_atom_site_fract_z
_atom_type_partial_charge
Gd0 Gd 0.29402 0.31198 0.31015 0.0
Gd1 Gd 0.27204 0.24474 0.26188 0.0
C2 C 0.20572 0.27863 0.1758 0.0
C3 C 0.1491 0.24101 0.18675 0.0
C4 C 0.19734 0.24088 0.22683 0.0
C5 C 0.21911 0.26633 0.20634 0.0
C6 C 0.16231 0.22748 0.2164 0.0
C7 C 0.17066 0.26656 0.16661 0.0
C8 C 0.22831 0.30086 0.15416 0.0
C9 C 0.26357 0.3092 0.16233 0.0
N10 N 0.2537 0.27633 0.21455 0.0
C11 C 0.27585 0.29641 0.19247 0.0
H12 H 0.30321 0.30027 0.19653 0.0
C13 C 0.19125 0.19588 0.27104 0.0
N14 N 0.2109 0.22615 0.25478 0.0
C15 C 0.15653 0.18271 0.26205 0.0
C16 C 0.14184 0.19884 0.23486 0.0
H17 H 0.20251 0.17985 0.28987 0.0
H18 H 0.16025 0.27562 0.14324 0.0
H19 H 0.27476 0.24106 0.3679 0.0
H20 H 0.21895 0.31044 0.13053 0.0
H21 H 0.28145 0.32491 0.14514 0.0
H22 H 0.12245 0.23071 0.17851 0.0
H23 H 0.35638 0.38469 0.27984 0.0
H24 H 0.35459 0.25742 0.44191 0.0
H25 H 0.29736 0.22424 0.42156 0.0
H26 H 0.43811 0.35924 0.39977 0.0
H27 H 0.14155 0.15897 0.27532 0.0
H28 H 0.11516 0.18761 0.22728 0.0
H29 H 0.40674 0.3071 0.43339 0.0
H30 H 0.41317 0.41894 0.29765 0.0
N31 N 0.31856 0.28326 0.35587 0.0
C32 C 0.34491 0.26477 0.41773 0.0
C33 C 0.31261 0.24604 0.40638 0.0
C34 C 0.36414 0.29306 0.39798 0.0
C35 C 0.35023 0.30204 0.36668 0.0
C36 C 0.29989 0.25558 0.37538 0.0
N37 N 0.35311 0.34229 0.31857 0.0
C38 C 0.36804 0.3319 0.34751 0.0
C39 C 0.40116 0.39415 0.31156 0.0
C40 C 0.41664 0.38375 0.34091 0.0
C41 C 0.36918 0.37359 0.30097 0.0
C42 C 0.40003 0.35275 0.35947 0.0
H43 H 0.44093 0.40051 0.34953 0.0
O44 O 0.30668 0.36699 0.32379 0.0
O45 O 0.25864 0.30154 0.26368 0.0
O46 O 0.32533 0.27642 0.2482 0.0
O47 O 0.32039 0.3301 0.2653 0.0
O48 O 0.26201 0.35009 0.28087 0.0
O49 O 0.27219 0.32271 0.35276 0.0
O50 O 0.25481 0.18708 0.25476 0.0
O51 O 0.31094 0.25681 0.30655 0.0
O52 O 0.2412 0.28033 0.32307 0.0
O53 O 0.24614 0.22587 0.30869 0.0
O54 O 0.31032 0.21106 0.28538 0.0
O55 O 0.27811 0.22628 0.21656 0.0
C56 C 0.24627 0.33181 0.25731 0.0
C57 C 0.41388 0.34322 0.39023 0.0
C58 C 0.39601 0.31354 0.40939 0.0
C59 C 0.28979 0.35651 0.34972 0.0
C60 C 0.28743 0.38167 0.37208 0.0
C61 C 0.31627 0.40844 0.38137 0.0
C62 C 0.25437 0.38419 0.37709 0.0
C63 C 0.2494 0.41509 0.38865 0.0
C64 C 0.31132 0.43845 0.39553 0.0
C65 C 0.27774 0.44217 0.39874 0.0
C66 C 0.33684 0.31154 0.25038 0.0
C67 C 0.32583 0.22804 0.30981 0.0
C68 C 0.26293 0.19266 0.22479 0.0
C69 C 0.27609 0.16539 0.2114 0.0
C70 C 0.25391 0.13191 0.2054 0.0
C71 C 0.30946 0.1744 0.20083 0.0
C72 C 0.32055 0.15055 0.18355 0.0
C73 C 0.26533 0.10753 0.18845 0.0
C74 C 0.29866 0.11685 0.17735 0.0
C75 C 0.23056 0.24498 0.32441 0.0
H76 H 0.34215 0.40679 0.37653 0.0
H77 H 0.23218 0.36377 0.36898 0.0
H78 H 0.3333 0.45936 0.40278 0.0
H79 H 0.27385 0.46595 0.40889 0.0
H80 H 0.22767 0.12509 0.21314 0.0
H81 H 0.3268 0.20021 0.20563 0.0
H82 H 0.24827 0.08173 0.18359 0.0
H83 H 0.30735 0.09801 0.16395 0.0
Gd84 Gd 0.75689 0.31617 0.29756 0.0
Gd85 Gd 0.80749 0.25424 0.277 0.0
C86 C 0.91235 0.29559 0.23052 0.0
C87 C 0.90226 0.26535 0.18127 0.0
C88 C 0.85484 0.26057 0.21645 0.0
C89 C 0.87707 0.28232 0.23748 0.0
C90 C 0.86763 0.25133 0.18843 0.0
C91 C 0.92456 0.28735 0.20231 0.0
C92 C 0.93486 0.31604 0.25248 0.0
C93 C 0.92203 0.32456 0.27979 0.0
N94 N 0.86493 0.28904 0.26535 0.0
C95 C 0.88722 0.31118 0.28567 0.0
H96 H 0.87942 0.32026 0.30634 0.0
C97 C 0.80214 0.21829 0.20763 0.0
N98 N 0.82181 0.24566 0.22466 0.0
C99 C 0.81321 0.20925 0.17931 0.0
C100 C 0.84596 0.22627 0.16936 0.0
H101 H 0.77838 0.20187 0.2167 0.0
H102 H 0.95147 0.29729 0.19686 0.0
H103 H 0.69175 0.24474 0.26821 0.0
H104 H 0.96205 0.32616 0.24818 0.0
H105 H 0.93893 0.34168 0.29645 0.0
H106 H 0.91236 0.25832 0.16002 0.0
H107 H 0.7835 0.3628 0.36332 0.0
H108 H 0.59939 0.25173 0.30817 0.0
H109 H 0.62923 0.22888 0.26796 0.0
H110 H 0.63932 0.31869 0.39978 0.0
H111 H 0.79705 0.18796 0.16596 0.0
H112 H 0.85498 0.21833 0.14796 0.0
H113 H 0.60368 0.28248 0.35876 0.0
H114 H 0.7588 0.37753 0.41053 0.0
N115 N 0.69899 0.28218 0.30447 0.0
C116 C 0.62728 0.26012 0.30756 0.0
C117 C 0.64396 0.24742 0.28472 0.0
C118 C 0.64699 0.28082 0.33113 0.0
C119 C 0.68327 0.29161 0.32898 0.0
C120 C 0.67989 0.25798 0.28405 0.0
N121 N 0.73781 0.32455 0.34806 0.0
C122 C 0.70335 0.3124 0.35191 0.0
C123 C 0.74302 0.35855 0.39468 0.0
C124 C 0.70812 0.34491 0.39968 0.0
C125 C 0.75717 0.34908 0.36817 0.0
C126 C 0.68762 0.32238 0.37777 0.0
H127 H 0.69696 0.35317 0.41974 0.0
O128 O 0.7747 0.37423 0.30079 0.0
O129 O 0.79082 0.30433 0.26214 0.0
O130 O 0.83338 0.28165 0.32402 0.0
O131 O 0.79521 0.31314 0.34073 0.0
O132 O 0.80511 0.35466 0.27975 0.0
O133 O 0.72323 0.3517 0.28002 0.0
O134 O 0.79359 0.19561 0.27737 0.0
O135 O 0.77354 0.26568 0.31265 0.0
O136 O 0.7328 0.29489 0.24804 0.0
O137 O 0.76408 0.25305 0.23676 0.0
O138 O 0.7625 0.21362 0.29932 0.0
O139 O 0.8462 0.22363 0.29092 0.0
C140 C 0.81226 0.33406 0.26005 0.0
C141 C 0.65173 0.31109 0.38021 0.0
C142 C 0.63143 0.2907 0.35676 0.0
C143 C 0.7469 0.38109 0.2856 0.0
C144 C 0.75262 0.40968 0.2592 0.0
C145 C 0.76377 0.44624 0.26568 0.0
C146 C 0.74273 0.40077 0.22773 0.0
C147 C 0.73789 0.42782 0.20402 0.0
C148 C 0.76299 0.47371 0.24078 0.0
C149 C 0.74906 0.46456 0.21012 0.0
C150 C 0.82537 0.30389 0.344 0.0
C151 C 0.75337 0.23514 0.31695 0.0
C152 C 0.82418 0.19235 0.28855 0.0
C153 C 0.82452 0.16606 0.31608 0.0
C154 C 0.81978 0.12903 0.31192 0.0
C155 C 0.83282 0.17866 0.3465 0.0
C156 C 0.84051 0.15526 0.37211 0.0
C157 C 0.82464 0.10478 0.33844 0.0
C158 C 0.83564 0.11793 0.36847 0.0
C159 C 0.7378 0.26927 0.23003 0.0
H160 H 0.77163 0.45344 0.29006 0.0
H161 H 0.73317 0.37251 0.22285 0.0
H162 H 0.77059 0.50195 0.24586 0.0
H163 H 0.74419 0.4858 0.19218 0.0
H164 H 0.81342 0.11922 0.28821 0.0
H165 H 0.83747 0.2075 0.34953 0.0
H166 H 0.82195 0.07629 0.33533 0.0
H167 H 0.84293 0.09965 0.38808 0.0
Gd168 Gd 0.77895 0.7508 0.30686 0.0
Gd169 Gd 0.78947 0.83036 0.25954 0.0
C170 C 0.83632 0.83509 0.16271 0.0
C171 C 0.89248 0.8758 0.17037 0.0
C172 C 0.85432 0.85795 0.21513 0.0
C173 C 0.8304 0.8355 0.19572 0.0
C174 C 0.88548 0.87864 0.20231 0.0
C175 C 0.86774 0.85452 0.15049 0.0
C176 C 0.81013 0.81583 0.14262 0.0
C177 C 0.77959 0.79607 0.15578 0.0
N178 N 0.80047 0.81592 0.20826 0.0
C179 C 0.77566 0.79568 0.18882 0.0
H180 H 0.75272 0.77886 0.19822 0.0
C181 C 0.86574 0.89021 0.26161 0.0
N182 N 0.84575 0.86249 0.24515 0.0
C183 C 0.89751 0.90989 0.25069 0.0
C184 C 0.90778 0.90357 0.22113 0.0
H185 H 0.85623 0.89897 0.28223 0.0
H186 H 0.87287 0.85388 0.12545 0.0
H187 H 0.80211 0.81283 0.3634 0.0
H188 H 0.81351 0.8154 0.11716 0.0
H189 H 0.75948 0.7802 0.14073 0.0
H190 H 0.91626 0.89142 0.1603 0.0
H191 H 0.72106 0.67386 0.28615 0.0
H192 H 0.73436 0.78096 0.43956 0.0
H193 H 0.78806 0.81891 0.41784 0.0
H194 H 0.64827 0.6828 0.40118 0.0
H195 H 0.91326 0.93112 0.26438 0.0
H196 H 0.93185 0.91982 0.21212 0.0
H197 H 0.6817 0.73188 0.43232 0.0
H198 H 0.6682 0.63319 0.30609 0.0
N199 N 0.76091 0.76777 0.35485 0.0
C200 C 0.74143 0.77706 0.41584 0.0
C201 C 0.77187 0.7982 0.40385 0.0
C202 C 0.72056 0.75102 0.39716 0.0
C203 C 0.73122 0.74648 0.3665 0.0
C204 C 0.78064 0.79383 0.37301 0.0
N205 N 0.72453 0.71258 0.32074 0.0
C206 C 0.71233 0.71861 0.34882 0.0
C207 C 0.67996 0.65739 0.31809 0.0
C208 C 0.66583 0.66476 0.34534 0.0
C209 C 0.70986 0.68094 0.30671 0.0
C210 C 0.68247 0.69493 0.36162 0.0
H211 H 0.643 0.64604 0.35447 0.0
O212 O 0.77943 0.69432 0.31127 0.0
O213 O 0.80659 0.77464 0.25916 0.0
O214 O 0.73618 0.798 0.24588 0.0
O215 O 0.73548 0.74045 0.26929 0.0
O216 O 0.81004 0.72384 0.27547 0.0
O217 O 0.80345 0.72868 0.35047 0.0
O218 O 0.797 0.88861 0.24803 0.0
O219 O 0.76157 0.80631 0.30615 0.0
O220 O 0.83165 0.78328 0.32214 0.0
O221 O 0.82733 0.84082 0.30279 0.0
O222 O 0.76117 0.85878 0.29161 0.0
O223 O 0.75334 0.85063 0.22623 0.0
C224 C 0.82078 0.74748 0.25183 0.0
C225 C 0.67111 0.70068 0.39121 0.0
C226 C 0.69017 0.72856 0.40898 0.0
C227 C 0.79405 0.69619 0.34014 0.0
C228 C 0.80083 0.66384 0.35816 0.0
C229 C 0.77977 0.62936 0.3534 0.0
C230 C 0.83022 0.66742 0.37864 0.0
C231 C 0.83982 0.63669 0.39371 0.0
C232 C 0.78895 0.59837 0.36894 0.0
C233 C 0.81917 0.6019 0.38886 0.0
C234 C 0.72135 0.7633 0.25033 0.0
C235 C 0.74772 0.83371 0.31317 0.0
C236 C 0.77019 0.8844 0.22764 0.0
C237 C 0.77152 0.90797 0.19765 0.0
C238 C 0.79796 0.93942 0.19255 0.0
C239 C 0.74111 0.90351 0.17808 0.0
C240 C 0.73471 0.93201 0.15675 0.0
C241 C 0.79273 0.96696 0.16902 0.0
C242 C 0.76071 0.96384 0.15185 0.0
C243 C 0.84332 0.81868 0.32098 0.0
H244 H 0.75661 0.62643 0.3375 0.0
H245 H 0.84603 0.69428 0.38245 0.0
H246 H 0.77295 0.57168 0.36523 0.0
H247 H 0.8265 0.57762 0.4002 0.0
H248 H 0.82158 0.94364 0.20783 0.0
H249 H 0.72003 0.88004 0.18301 0.0
H250 H 0.81254 0.99176 0.16578 0.0
H251 H 0.75556 0.98678 0.13617 0.0
Gd252 Gd 0.25878 0.81825 0.2762 0.0
Gd253 Gd 0.31659 0.75968 0.29779 0.0
C254 C 0.27154 0.65455 0.35862 0.0
C255 C 0.31532 0.65504 0.40248 0.0
C256 C 0.31851 0.70782 0.36319 0.0
C257 C 0.28925 0.68958 0.34654 0.0
C258 C 0.33201 0.69044 0.39125 0.0
C259 C 0.28502 0.63724 0.38633 0.0
C260 C 0.24078 0.63783 0.34251 0.0
C261 C 0.22821 0.65606 0.31521 0.0
N262 N 0.27791 0.70609 0.31872 0.0
C263 C 0.24715 0.69015 0.3036 0.0
H264 H 0.23605 0.70404 0.28332 0.0
C265 C 0.36524 0.7589 0.366 0.0
N266 N 0.33454 0.74183 0.35138 0.0
C267 C 0.3794 0.74283 0.39385 0.0
C268 C 0.36265 0.70852 0.40663 0.0
H269 H 0.3802 0.78395 0.35501 0.0
H270 H 0.27211 0.61012 0.39555 0.0
H271 H 0.33975 0.87918 0.29105 0.0
H272 H 0.22628 0.61118 0.35125 0.0
H273 H 0.2039 0.64389 0.30302 0.0
H274 H 0.32557 0.64123 0.42373 0.0
H275 H 0.19644 0.79421 0.21864 0.0
H276 H 0.34385 0.97282 0.22583 0.0
H277 H 0.36833 0.94027 0.27271 0.0
H278 H 0.2462 0.93979 0.15257 0.0
H279 H 0.40395 0.75627 0.40478 0.0
H280 H 0.3741 0.69582 0.42785 0.0
H281 H 0.29878 0.97214 0.1811 0.0
H282 H 0.1702 0.82339 0.17113 0.0
N283 N 0.29508 0.8761 0.25807 0.0
C284 C 0.33017 0.94576 0.23445 0.0
C285 C 0.34385 0.92765 0.26106 0.0
C286 C 0.29986 0.92813 0.21837 0.0
C287 C 0.28303 0.89265 0.23043 0.0
C288 C 0.32639 0.89275 0.27221 0.0
N289 N 0.23947 0.83925 0.2244 0.0
C290 C 0.25438 0.87381 0.21333 0.0
C291 C 0.19457 0.83725 0.18203 0.0
C292 C 0.21031 0.87209 0.16969 0.0
C293 C 0.20972 0.82095 0.20916 0.0
C294 C 0.24056 0.89082 0.18523 0.0
H295 H 0.19846 0.8846 0.14862 0.0
O296 O 0.20377 0.79466 0.27784 0.0
O297 O 0.26396 0.7663 0.30546 0.0
O298 O 0.28851 0.73716 0.25324 0.0
O299 O 0.2484 0.77353 0.24155 0.0
O300 O 0.24726 0.80257 0.32923 0.0
O301 O 0.22363 0.85298 0.2797 0.0
O302 O 0.37069 0.76018 0.29993 0.0
O303 O 0.30313 0.801 0.25938 0.0
O304 O 0.29197 0.84416 0.31735 0.0
O305 O 0.327 0.80262 0.33227 0.0
O306 O 0.35435 0.80746 0.27133 0.0
O307 O 0.33291 0.71388 0.28262 0.0
C308 C 0.25328 0.77041 0.33259 0.0
C309 C 0.25659 0.92637 0.17398 0.0
C310 C 0.28635 0.94486 0.19035 0.0
C311 C 0.19699 0.82551 0.28299 0.0
C312 C 0.17597 0.82446 0.31049 0.0
C313 C 0.1424 0.80238 0.31073 0.0
C314 C 0.18883 0.84583 0.33625 0.0
C315 C 0.1678 0.84604 0.36136 0.0
C316 C 0.12171 0.80189 0.33631 0.0
C317 C 0.13422 0.82384 0.36144 0.0
C318 C 0.26204 0.74608 0.23604 0.0
C319 C 0.3324 0.82017 0.2519 0.0
C320 C 0.36565 0.72914 0.28774 0.0
C321 C 0.38898 0.7285 0.26297 0.0
C322 C 0.4247 0.74172 0.26889 0.0
C323 C 0.37618 0.71393 0.23395 0.0
C324 C 0.39902 0.71163 0.21129 0.0
C325 C 0.44752 0.74049 0.24567 0.0
C326 C 0.4348 0.72533 0.21695 0.0
C327 C 0.31678 0.83264 0.33542 0.0
H328 H 0.13211 0.78585 0.29097 0.0
H329 H 0.21446 0.86362 0.33611 0.0
H330 H 0.09564 0.78525 0.33622 0.0
H331 H 0.11732 0.82459 0.38035 0.0
H332 H 0.43491 0.75268 0.29156 0.0
H333 H 0.34872 0.70289 0.2294 0.0
H334 H 0.47507 0.75027 0.25031 0.0
H335 H 0.45303 0.72261 0.19993 0.0
Gd336 Gd 0.26096 0.81468 0.78045 0.0
Gd337 Gd 0.3089 0.75036 0.78435 0.0
C338 C 0.42511 0.78291 0.76445 0.0
C339 C 0.42886 0.74016 0.7263 0.0
C340 C 0.37294 0.74326 0.7441 0.0
C341 C 0.38884 0.76918 0.76457 0.0
C342 C 0.39271 0.72874 0.72442 0.0
C343 C 0.44507 0.76728 0.74628 0.0
C344 C 0.43985 0.81418 0.77995 0.0
C345 C 0.41824 0.83337 0.79132 0.0
N346 N 0.36835 0.78499 0.7803 0.0
C347 C 0.38254 0.81927 0.78977 0.0
H348 H 0.36688 0.83713 0.79487 0.0
C349 C 0.32131 0.70686 0.72298 0.0
N350 N 0.33791 0.73252 0.74316 0.0
C351 C 0.3397 0.69226 0.70262 0.0
C352 C 0.37559 0.70318 0.70338 0.0
H353 H 0.29415 0.69558 0.72402 0.0
H354 H 0.47284 0.77737 0.74611 0.0
H355 H 0.19833 0.73631 0.76894 0.0
H356 H 0.46745 0.82569 0.78026 0.0
H357 H 0.42889 0.85974 0.80018 0.0
H358 H 0.44442 0.72914 0.71154 0.0
H359 H 0.29246 0.87939 0.83531 0.0
H360 H 0.10831 0.7498 0.8102 0.0
H361 H 0.13646 0.71636 0.77678 0.0
H362 H 0.15055 0.84792 0.87609 0.0
H363 H 0.32627 0.67173 0.68705 0.0
H364 H 0.38983 0.69145 0.68788 0.0
H365 H 0.11365 0.79961 0.84611 0.0
H366 H 0.27017 0.90619 0.87703 0.0
N367 N 0.20635 0.78161 0.79724 0.0
C368 C 0.13578 0.75885 0.80686 0.0
C369 C 0.15157 0.73993 0.78798 0.0
C370 C 0.15585 0.78833 0.82225 0.0
C371 C 0.19171 0.79882 0.81751 0.0
C372 C 0.18694 0.75169 0.78337 0.0
N373 N 0.24673 0.83745 0.82796 0.0
C374 C 0.21261 0.82653 0.83413 0.0
C375 C 0.25386 0.88326 0.86578 0.0
C376 C 0.21918 0.87201 0.87235 0.0
C377 C 0.26695 0.86654 0.84291 0.0
C378 C 0.19792 0.84404 0.85598 0.0
H379 H 0.20879 0.88599 0.8892 0.0
O380 O 0.25594 0.86943 0.77889 0.0
O381 O 0.30093 0.79901 0.75104 0.0
O382 O 0.33339 0.78043 0.82701 0.0
O383 O 0.303 0.8261 0.81944 0.0
O384 O 0.30896 0.85218 0.75754 0.0
O385 O 0.22354 0.83382 0.74578 0.0
O386 O 0.27772 0.69476 0.79258 0.0
O387 O 0.25845 0.75773 0.80468 0.0
O388 O 0.23759 0.78506 0.73731 0.0
O389 O 0.27002 0.74164 0.74276 0.0
O390 O 0.29458 0.74191 0.83668 0.0
O391 O 0.33283 0.70447 0.79088 0.0
C392 C 0.32174 0.82987 0.74344 0.0
C393 C 0.16221 0.8343 0.85988 0.0
C394 C 0.14116 0.80703 0.8426 0.0
C395 C 0.23093 0.86575 0.75694 0.0
C396 C 0.23159 0.89814 0.73546 0.0
C397 C 0.22598 0.92833 0.74899 0.0
C398 C 0.23941 0.90036 0.70315 0.0
C399 C 0.2412 0.93314 0.68376 0.0
C400 C 0.2298 0.96142 0.73081 0.0
C401 C 0.23794 0.96417 0.69875 0.0
C402 C 0.32621 0.81039 0.83525 0.0
C403 C 0.26365 0.74728 0.83512 0.0
C404 C 0.30481 0.68122 0.79908 0.0
C405 C 0.30845 0.66324 0.83141 0.0
C406 C 0.29643 0.62582 0.83895 0.0
C407 C 0.32931 0.68424 0.85405 0.0
C408 C 0.34111 0.66859 0.88263 0.0
C409 C 0.30615 0.60993 0.8691 0.0
C410 C 0.32892 0.63116 0.89082 0.0
C411 C 0.2449 0.75562 0.72858 0.0
H412 H 0.21953 0.92646 0.77399 0.0
H413 H 0.24259 0.87634 0.6929 0.0
H414 H 0.22591 0.98491 0.74141 0.0
H415 H 0.23935 0.99048 0.68561 0.0
H416 H 0.28079 0.60897 0.82138 0.0
H417 H 0.34065 0.7127 0.84775 0.0
H418 H 0.29763 0.58091 0.87489 0.0
H419 H 0.33875 0.61808 0.9127 0.0
Gd420 Gd 0.31458 0.29289 0.75758 0.0
Gd421 Gd 0.25278 0.28438 0.8189 0.0
C422 C 0.25923 0.21183 0.91341 0.0
C423 C 0.20655 0.16491 0.90895 0.0
C424 C 0.22043 0.2135 0.86569 0.0
C425 C 0.25078 0.22851 0.88281 0.0
C426 C 0.19774 0.18183 0.87899 0.0
C427 C 0.23716 0.17994 0.92615 0.0
C428 C 0.28981 0.22746 0.93037 0.0
C429 C 0.31144 0.25866 0.91675 0.0
N430 N 0.27233 0.2589 0.86954 0.0
C431 C 0.30233 0.27401 0.88639 0.0
H432 H 0.32079 0.29671 0.8763 0.0
C433 C 0.17983 0.21942 0.82223 0.0
N434 N 0.2122 0.23061 0.83689 0.0
C435 C 0.15703 0.18777 0.83405 0.0
C436 C 0.16624 0.16856 0.86231 0.0
H437 H 0.17158 0.23468 0.80092 0.0
H438 H 0.24345 0.16678 0.94943 0.0
H439 H 0.24995 0.27693 0.7017 0.0
H440 H 0.29718 0.21538 0.95377 0.0
H441 H 0.33557 0.27058 0.92936 0.0
H442 H 0.18951 0.14053 0.91933 0.0
H443 H 0.39456 0.34019 0.77618 0.0
H444 H 0.26943 0.36105 0.62442 0.0
H445 H 0.23271 0.30445 0.64825 0.0
H446 H 0.3766 0.43788 0.65948 0.0
H447 H 0.13212 0.17855 0.8216 0.0
H448 H 0.14832 0.14426 0.87167 0.0
H449 H 0.32207 0.41206 0.62964 0.0
H450 H 0.4356 0.3958 0.75541 0.0
N451 N 0.29462 0.31906 0.70858 0.0
C452 C 0.27661 0.34971 0.64817 0.0
C453 C 0.25591 0.31749 0.66148 0.0
C454 C 0.30653 0.36668 0.66545 0.0
C455 C 0.31516 0.35026 0.6959 0.0
C456 C 0.26557 0.3022 0.69175 0.0
N457 N 0.35469 0.34619 0.74038 0.0
C458 C 0.34598 0.36452 0.71248 0.0
C459 C 0.41039 0.38745 0.74322 0.0
C460 C 0.40103 0.4078 0.71555 0.0
C461 C 0.38709 0.35607 0.75497 0.0
C462 C 0.36884 0.39594 0.69935 0.0
H463 H 0.41927 0.43188 0.70629 0.0
O464 O 0.35783 0.26728 0.75757 0.0
O465 O 0.29768 0.26295 0.80516 0.0
O466 O 0.30161 0.325 0.82994 0.0
O467 O 0.32544 0.34602 0.78067 0.0
O468 O 0.35003 0.28637 0.80082 0.0
O469 O 0.32019 0.26324 0.71712 0.0
O470 O 0.20304 0.29855 0.81931 0.0
O471 O 0.2618 0.29977 0.76595 0.0
O472 O 0.27462 0.24132 0.75176 0.0
O473 O 0.22929 0.243 0.78302 0.0
O474 O 0.24934 0.33757 0.79061 0.0
O475 O 0.24442 0.31924 0.85433 0.0
C476 C 0.32781 0.26509 0.81906 0.0
C477 C 0.35951 0.41355 0.66985 0.0
C478 C 0.32849 0.39882 0.65284 0.0
C479 C 0.34871 0.25512 0.72948 0.0
C480 C 0.37657 0.25826 0.70782 0.0
C481 C 0.39445 0.2921 0.69415 0.0
C482 C 0.38622 0.2265 0.70179 0.0
C483 C 0.41341 0.22837 0.68195 0.0
C484 C 0.42175 0.29404 0.67449 0.0
C485 C 0.43111 0.26229 0.66821 0.0
C486 C 0.32205 0.34965 0.8113 0.0
C487 C 0.25391 0.33051 0.76211 0.0
C488 C 0.21263 0.31862 0.8435 0.0
C489 C 0.18696 0.31757 0.86745 0.0
C490 C 0.16838 0.28441 0.88173 0.0
C491 C 0.18027 0.35044 0.8755 0.0
C492 C 0.15542 0.35001 0.89786 0.0
C493 C 0.14361 0.28395 0.90376 0.0
C494 C 0.13723 0.31648 0.91187 0.0
C495 C 0.24357 0.22787 0.76218 0.0
H496 H 0.38749 0.31686 0.69868 0.0
H497 H 0.3725 0.20031 0.71242 0.0
H498 H 0.43567 0.32019 0.66412 0.0
H499 H 0.45231 0.26417 0.65291 0.0
H500 H 0.17283 0.25892 0.87581 0.0
H501 H 0.19419 0.37619 0.86428 0.0
H502 H 0.12915 0.25824 0.91447 0.0
H503 H 0.11765 0.31548 0.92876 0.0
Gd504 Gd 0.75447 0.3238 0.77662 0.0
Gd505 Gd 0.80702 0.25916 0.79757 0.0
C506 C 0.76766 0.15635 0.86492 0.0
C507 C 0.81202 0.16222 0.90858 0.0
C508 C 0.81479 0.20985 0.8643 0.0
C509 C 0.78459 0.19046 0.85017 0.0
C510 C 0.82932 0.19549 0.89332 0.0
C511 C 0.7812 0.14271 0.89443 0.0
C512 C 0.73837 0.13621 0.84905 0.0
C513 C 0.72701 0.14975 0.81894 0.0
N514 N 0.77291 0.20379 0.82107 0.0
C515 C 0.74473 0.1834 0.80521 0.0
H516 H 0.73452 0.19287 0.78227 0.0
C517 C 0.86406 0.25817 0.85906 0.0
N518 N 0.8314 0.24135 0.84846 0.0
C519 C 0.87924 0.24539 0.88794 0.0
C520 C 0.86162 0.21411 0.90537 0.0
H521 H 0.8784 0.28173 0.84513 0.0
H522 H 0.76855 0.11663 0.90602 0.0
H523 H 0.83538 0.38273 0.79518 0.0
H524 H 0.72476 0.10993 0.8595 0.0
H525 H 0.70453 0.13429 0.8062 0.0
H526 H 0.82276 0.15084 0.93087 0.0
H527 H 0.69242 0.30423 0.71737 0.0
H528 H 0.83993 0.48082 0.73579 0.0
H529 H 0.86211 0.44629 0.78276 0.0
H530 H 0.74965 0.44947 0.65475 0.0
H531 H 0.90478 0.25933 0.89645 0.0
H532 H 0.87368 0.20387 0.92746 0.0
H533 H 0.79907 0.48116 0.68764 0.0
H534 H 0.67207 0.33303 0.66697 0.0
N535 N 0.79221 0.38137 0.76091 0.0
C536 C 0.82648 0.45306 0.7425 0.0
C537 C 0.83878 0.43385 0.76923 0.0
C538 C 0.79818 0.43557 0.72367 0.0
C539 C 0.78146 0.39924 0.73338 0.0
C540 C 0.82207 0.39772 0.7774 0.0
N541 N 0.73775 0.34661 0.72435 0.0
C542 C 0.75395 0.38117 0.71438 0.0
C543 C 0.69552 0.34666 0.67964 0.0
C544 C 0.71285 0.38132 0.66829 0.0
C545 C 0.70783 0.33006 0.70809 0.0
C546 C 0.742 0.3993 0.68591 0.0
H547 H 0.70285 0.39444 0.64651 0.0
O548 O 0.6985 0.30546 0.77798 0.0
O549 O 0.75532 0.26934 0.80072 0.0
O550 O 0.77219 0.23669 0.75322 0.0
O551 O 0.73978 0.28008 0.73954 0.0
O552 O 0.74172 0.30555 0.82818 0.0
O553 O 0.72375 0.3627 0.78002 0.0
O554 O 0.85906 0.2635 0.78427 0.0
O555 O 0.79572 0.30213 0.76067 0.0
O556 O 0.79004 0.34527 0.8207 0.0
O557 O 0.82046 0.30025 0.83809 0.0
O558 O 0.84483 0.31077 0.78128 0.0
O559 O 0.81912 0.21574 0.77334 0.0
C560 C 0.74391 0.27227 0.82745 0.0
C561 C 0.75856 0.43525 0.67644 0.0
C562 C 0.78652 0.45336 0.6953 0.0
C563 C 0.69467 0.33824 0.78029 0.0
C564 C 0.66907 0.34268 0.80172 0.0
C565 C 0.63395 0.32919 0.79333 0.0
C566 C 0.6788 0.36411 0.82778 0.0
C567 C 0.65341 0.37245 0.84485 0.0
C568 C 0.60864 0.33718 0.81075 0.0
C569 C 0.61829 0.35886 0.83641 0.0
C570 C 0.74755 0.24872 0.73474 0.0
C571 C 0.82553 0.32181 0.75797 0.0
C572 C 0.85124 0.23303 0.77105 0.0
C573 C 0.87813 0.2131 0.77062 0.0
C574 C 0.90396 0.21281 0.79547 0.0
C575 C 0.88026 0.19834 0.74192 0.0
C576 C 0.90825 0.18367 0.73726 0.0
C577 C 0.93182 0.19748 0.79123 0.0
C578 C 0.93408 0.18297 0.76217 0.0
C579 C 0.81338 0.33267 0.84101 0.0
H580 H 0.62615 0.31344 0.77266 0.0
H581 H 0.70585 0.37558 0.83394 0.0
H582 H 0.58156 0.32745 0.8038 0.0
H583 H 0.59843 0.36615 0.84895 0.0
H584 H 0.90299 0.22499 0.81763 0.0
H585 H 0.86028 0.19906 0.72273 0.0
H586 H 0.95196 0.19741 0.81022 0.0
H587 H 0.95613 0.17185 0.75894 0.0
Gd588 Gd 0.79187 0.8254 0.81481 0.0
Gd589 Gd 0.78125 0.75513 0.75938 0.0
C590 C 0.7141 0.76239 0.66609 0.0
C591 C 0.66923 0.70694 0.67252 0.0
C592 C 0.71466 0.72166 0.71481 0.0
C593 C 0.72915 0.75357 0.69679 0.0
C594 C 0.68478 0.69777 0.70266 0.0
C595 C 0.68394 0.73909 0.65424 0.0
C596 C 0.73011 0.79405 0.64791 0.0
C597 C 0.76059 0.81581 0.66019 0.0
N598 N 0.7586 0.77532 0.70867 0.0
C599 C 0.77469 0.80587 0.69057 0.0
H600 H 0.798 0.8235 0.69944 0.0
C601 C 0.71917 0.68023 0.76056 0.0
N602 N 0.73051 0.71325 0.74366 0.0
C603 C 0.68938 0.65593 0.74969 0.0
C604 C 0.67192 0.66488 0.72075 0.0
H605 H 0.73294 0.67311 0.78278 0.0
H606 H 0.67201 0.7455 0.63077 0.0
H607 H 0.77523 0.76992 0.88283 0.0
H608 H 0.71935 0.80174 0.62427 0.0
H609 H 0.77325 0.84034 0.64633 0.0
H610 H 0.6462 0.68901 0.66285 0.0
H611 H 0.83299 0.91061 0.7907 0.0
H612 H 0.86244 0.79066 0.94958 0.0
H613 H 0.80435 0.75439 0.93438 0.0
H614 H 0.93316 0.89983 0.90137 0.0
H615 H 0.68007 0.6302 0.76349 0.0
H616 H 0.64901 0.64585 0.71222 0.0
H617 H 0.91058 0.84485 0.93685 0.0
H618 H 0.88634 0.95563 0.80518 0.0
N619 N 0.81764 0.81098 0.86612 0.0
C620 C 0.85009 0.79669 0.92622 0.0
C621 C 0.81743 0.7761 0.91771 0.0
C622 C 0.86557 0.82605 0.90516 0.0
C623 C 0.84837 0.8327 0.87496 0.0
C624 C 0.80126 0.78427 0.88783 0.0
N625 N 0.8422 0.87024 0.82753 0.0
C626 C 0.8612 0.86327 0.8549 0.0
C627 C 0.87983 0.92957 0.81917 0.0
C628 C 0.90113 0.9215 0.84577 0.0
C629 C 0.84977 0.904 0.81097 0.0
C630 C 0.89138 0.8885 0.86461 0.0
H631 H 0.92412 0.94158 0.85241 0.0
O632 O 0.77026 0.87199 0.81545 0.0
O633 O 0.76671 0.80758 0.76654 0.0
O634 O 0.82646 0.80036 0.745 0.0
O635 O 0.83517 0.84444 0.78179 0.0
O636 O 0.76474 0.85771 0.77726 0.0
O637 O 0.7571 0.82694 0.85232 0.0
O638 O 0.80054 0.70629 0.76271 0.0
O639 O 0.81153 0.77596 0.80529 0.0
O640 O 0.75344 0.77365 0.8279 0.0
O641 O 0.73075 0.74547 0.78203 0.0
O642 O 0.79224 0.72093 0.80607 0.0
O643 O 0.81251 0.74634 0.72165 0.0
C644 C 0.75382 0.83536 0.75558 0.0
C645 C 0.90974 0.88095 0.89369 0.0
C646 C 0.89687 0.84971 0.91392 0.0
C647 C 0.7538 0.85946 0.84138 0.0
C648 C 0.755 0.88629 0.86421 0.0
C649 C 0.7863 0.90869 0.87495 0.0
C650 C 0.72368 0.89375 0.87052 0.0
C651 C 0.72326 0.92427 0.88624 0.0
C652 C 0.78592 0.93896 0.89128 0.0
C653 C 0.75444 0.94707 0.8966 0.0
C654 C 0.84273 0.8316 0.75584 0.0
C655 C 0.81162 0.74564 0.82271 0.0
C656 C 0.81541 0.7147 0.73544 0.0
C657 C 0.81318 0.68501 0.715 0.0
C658 C 0.78512 0.65463 0.71519 0.0
C659 C 0.84226 0.68509 0.69836 0.0
C660 C 0.84421 0.65459 0.68315 0.0
C661 C 0.78668 0.62439 0.69939 0.0
C662 C 0.81636 0.62408 0.68379 0.0
C663 C 0.73001 0.7495 0.81265 0.0
H664 H 0.8108 0.90357 0.86979 0.0
H665 H 0.69951 0.87678 0.86174 0.0
H666 H 0.81002 0.95653 0.89918 0.0
H667 H 0.75437 0.97086 0.90884 0.0
H668 H 0.7626 0.65372 0.72827 0.0
H669 H 0.86433 0.7081 0.69888 0.0
H670 H 0.76526 0.6008 0.69999 0.0
H671 H 0.81773 0.60007 0.67247 0.0
Fe672 Fe 0.05553 0.10819 0.55215 0.0
O673 O 0.04414 0.0548 0.55739 0.0
Fe674 Fe 0.08185 0.02899 0.54708 0.0
Fe675 Fe 1.0045 0.02366 0.53363 0.0
O676 O 0.0472 0.05558 0.55709 0.0
O677 O 0.04219 0.99758 0.52329 0.0
O678 O 0.03886 0.99682 0.52348 0.0
Fe679 Fe 0.03015 0.9438 0.53046 0.0
C680 C 0.9802 0.08129 0.56765 0.0
O681 O 1.02497 0.11048 0.51066 0.0
O682 O 1.01491 0.05611 0.49187 0.0
O683 O 0.07539 0.95151 0.5074 0.0
O684 O 0.11339 0.99647 0.53419 0.0
O685 O 0.09422 0.06292 0.50433 0.0
O686 O 0.09819 0.11431 0.52647 0.0
O687 O 0.96684 0.98722 0.50677 0.0
O688 O 0.99701 0.94748 0.49089 0.0
C689 C 0.10173 0.09769 0.50263 0.0
O690 O 0.05932 0.94161 0.57258 0.0
O691 O 0.06928 0.99693 0.589 0.0
O692 O 1.01065 0.1005 0.57545 0.0
O693 O 0.97325 0.05512 0.54876 0.0
C694 C 1.01391 0.08934 0.48847 0.0
C695 C 0.97068 0.96233 0.48884 0.0
C696 C 0.98131 0.95798 0.57789 0.0
O697 O 0.99347 0.99193 0.57532 0.0
O698 O 0.98744 0.93737 0.55795 0.0
C699 C 0.10605 0.97096 0.51456 0.0
O700 O 0.11914 0.06453 0.57491 0.0
O701 O 0.08877 0.10384 0.59116 0.0
C702 C 0.06413 0.96265 0.59511 0.0
C703 C 0.11552 0.08966 0.59265 0.0
Fe704 Fe 0.50438 0.0125 0.02425 0.0
O705 O 0.54147 0.05785 0.01441 0.0
Fe706 Fe 0.43099 0.04751 0.01665 0.0
Fe707 Fe 0.59094 0.06548 0.02748 0.0
O708 O 0.47927 0.05174 0.0215 0.0
O709 O 0.48082 0.05812 1.00761 0.0
O710 O 0.5427 0.06379 0.02536 0.0
Fe711 Fe 0.51791 0.10349 0.01469 0.0
C712 C 0.55334 0.01321 0.08157 0.0
O713 O 0.53726 0.97969 0.01581 0.0
O714 O 0.58435 0.02292 0.99917 0.0
O715 O 0.48231 0.13559 0.99413 0.0
O716 O 0.43519 0.09003 0.98122 0.0
O717 O 0.42678 1.00902 0.98368 0.0
O718 O 0.48228 1.00462 0.97813 0.0
O719 O 0.59651 0.10265 0.98742 0.0
O720 O 0.54253 0.11144 0.97068 0.0
C721 C 0.44961 0.99702 0.97032 0.0
O722 O 0.49821 0.09907 0.05884 0.0
O723 O 0.4399 0.0862 0.04948 0.0
O724 O 0.52327 0.01668 0.07121 0.0
O725 O 0.5811 0.02776 0.06686 0.0
C726 C 0.56345 0.99147 0.99802 0.0
C727 C 0.57527 0.11529 0.96694 0.0
C728 C 0.58472 0.13803 0.05435 0.0
O729 O 0.59515 0.10825 0.05594 0.0
O730 O 0.55939 0.1442 0.0342 0.0
C731 C 0.45222 0.12353 0.97896 0.0
O732 O 0.42785 1.00499 0.054 0.0
O733 O 0.46397 0.97062 0.04295 0.0
C734 C 0.46819 0.10234 0.06395 0.0
C735 C 0.43893 0.9755 0.05868 0.0
Fe736 Fe 1.02831 0.64162 0.04457 0.0
O737 O 1.01445 0.58623 0.04597 0.0
Fe738 Fe 0.06041 0.55874 0.06034 0.0
Fe739 Fe 0.9636 0.55804 0.05072 0.0
O740 O 1.02215 0.58747 0.04331 0.0
O741 O 1.01918 0.52525 0.07768 0.0
O742 O 1.00351 0.5287 0.07555 0.0
Fe743 Fe 1.011 0.47304 0.07407 0.0
C744 C 0.96309 0.62567 0.09494 0.0
O745 O 0.99221 0.64449 1.00517 0.0
O746 O 0.94581 0.59823 0.01489 0.0
O747 O 0.04658 0.47835 0.0394 0.0
O748 O 0.05518 0.53469 0.01759 0.0
O749 O 0.09964 0.60027 0.0362 0.0
O750 O 0.06994 0.64267 0.01368 0.0
O751 O 0.96287 0.52321 0.01284 0.0
O752 O 0.97083 0.4683 0.03598 0.0
C753 C 0.09657 0.62776 0.01502 0.0
O754 O 0.05456 0.4742 0.10961 0.0
O755 O 0.09448 0.52006 0.0858 0.0
O756 O 0.98793 0.64539 0.07768 0.0
O757 O 0.95493 0.59069 0.09075 0.0
C758 C 0.96026 0.62882 0.99869 0.0
C759 C 0.95835 0.48795 0.01282 0.0
C760 C 0.9546 0.4846 0.10498 0.0
O761 O 0.9601 0.51197 0.08386 0.0
O762 O 0.97531 0.46342 0.10782 0.0
C763 C 0.05719 0.50211 0.01672 0.0
O764 O 0.06711 0.58419 0.1014 0.0
O765 O 0.0632 0.64112 0.0837 0.0
C766 C 0.08724 0.48968 0.10643 0.0
C767 C 0.07321 0.61803 0.10452 0.0
Fe768 Fe 0.53713 0.54599 0.99911 0.0
O769 O 0.5644 0.56764 0.03697 0.0
Fe770 Fe 0.45475 0.51464 0.02607 0.0
Fe771 Fe 0.61371 0.57201 0.04339 0.0
O772 O 0.50499 0.51749 0.03165 0.0
O773 O 0.50418 0.51904 0.0347 0.0
O774 O 0.56366 0.56927 0.03947 0.0
Fe775 Fe 0.53047 0.54367 0.07203 0.0
C776 C 0.59511 0.5125 0.99712 0.0
O777 O 0.57324 0.58173 0.96989 0.0
O778 O 0.61282 0.61149 1.00728 0.0
O779 O 0.50475 0.58507 0.0661 0.0
O780 O 0.45208 0.55054 0.05771 0.0
O781 O 0.45851 0.55618 0.98924 0.0
O782 O 0.51301 0.58654 0.99615 0.0
O783 O 0.61091 0.60265 0.08005 0.0
O784 O 0.56282 0.57306 0.10746 0.0
C785 C 0.48274 0.58443 0.9846 0.0
O786 O 0.49325 0.51248 0.10142 0.0
O787 O 0.45295 0.47831 0.06685 0.0
O788 O 0.563 0.50529 1.00115 0.0
O789 O 0.61562 0.54028 1.00748 0.0
C790 C 0.59689 0.60953 0.9789 0.0
C791 C 0.59075 0.59864 0.10355 0.0
C792 C 0.58509 0.49973 0.08014 0.0
O793 O 0.61026 0.52707 0.07568 0.0
O794 O 0.5539 0.50169 0.0788 0.0
C795 C 0.47218 0.57879 0.06768 0.0
O796 O 0.45953 0.48215 0.99149 0.0
O797 O 0.5035 0.5197 0.96304 0.0
C798 C 0.46806 0.48507 0.09518 0.0
C799 C 0.47663 0.49254 0.96565 0.0
Fe800 Fe 0.05048 0.4572 0.55652 0.0
O801 O 0.04757 0.50297 0.57767 0.0
Fe802 Fe 0.07251 0.51968 0.47918 0.0
Fe803 Fe 0.05172 0.50841 0.62601 0.0
O804 O 0.07531 0.50547 0.52878 0.0
O805 O 0.0773 0.51458 0.52589 0.0
O806 O 0.04794 0.50758 0.5795 0.0
Fe807 Fe 0.06858 0.55246 0.55072 0.0
C808 C 0.9993 0.43687 0.61284 0.0
O809 O 0.09162 0.4521 0.59043 0.0
O810 O 0.08155 0.47134 0.63663 0.0
O811 O 0.09379 0.59541 0.51612 0.0
O812 O 0.11476 0.56263 0.48354 0.0
O813 O 0.10199 0.48393 0.47959 0.0
O814 O 0.09401 0.45814 0.53049 0.0
O815 O 0.09551 0.55057 0.62459 0.0
O816 O 0.11475 0.55649 0.57526 0.0
C817 C 0.11153 0.46659 0.50533 0.0
O818 O 1.02239 0.54777 0.52723 0.0
O819 O 0.04172 0.55676 0.47833 0.0
O820 O 1.01422 0.42841 0.58922 0.0
O821 O 1.00935 0.46635 0.62709 0.0
C822 C 0.09743 0.45433 0.62081 0.0
C823 C 0.11846 0.56402 0.60429 0.0
C824 C 0.03191 0.57843 0.60301 0.0
O825 O 1.02341 0.54627 0.6171 0.0
O826 O 0.05317 0.58738 0.58001 0.0
C827 C 0.11411 0.59327 0.49357 0.0
O828 O 0.02969 0.47829 0.47351 0.0
O829 O 1.00809 0.45144 0.52017 0.0
C830 C 1.02156 0.56158 0.49868 0.0
C831 C 1.00599 0.4563 0.48898 0.0
Fe832 Fe 0.55966 0.93317 0.52631 0.0
O833 O 0.57147 0.9879 0.52492 0.0
Fe834 Fe 0.55068 0.01658 0.47809 0.0
Fe835 Fe 0.55557 0.01286 0.56011 0.0
O836 O 0.57025 0.98836 0.51813 0.0
O837 O 0.53608 0.04064 0.51436 0.0
O838 O 0.53718 0.04058 0.51999 0.0
Fe839 Fe 0.54138 0.09388 0.51517 0.0
C840 C 0.50121 0.94221 0.57204 0.0
O841 O 0.59676 0.93758 0.56523 0.0
O842 O 0.58023 0.97748 0.59576 0.0
O843 O 0.57744 0.10529 0.48055 0.0
O844 O 0.59649 0.0549 0.47656 0.0
O845 O 0.57624 0.98034 0.44833 0.0
O846 O 0.59332 0.93817 0.48667 0.0
O847 O 0.60249 0.05396 0.56644 0.0
O848 O 0.5814 0.10282 0.55095 0.0
C849 C 0.59385 0.95344 0.45679 0.0
O850 O 0.50205 0.08956 0.47726 0.0
O851 O 0.52035 0.05499 0.44317 0.0
O852 O 0.52188 0.92367 0.56366 0.0
O853 O 0.50691 0.97584 0.56194 0.0
C854 C 0.59734 0.95195 0.59237 0.0
C855 C 0.60368 0.08821 0.56766 0.0
C856 C 0.51186 0.06405 0.5809 0.0
O857 O 0.53278 0.04231 0.58957 0.0
O858 O 0.50901 0.08065 0.55235 0.0
C859 C 0.60089 0.08932 0.47485 0.0
O860 O 0.50472 0.98031 0.48038 0.0
O861 O 0.51993 0.92738 0.49138 0.0
C862 C 0.50094 0.07923 0.44841 0.0
C863 C 0.49745 0.94602 0.48358 0.0
H864 H 0.21365 0.17203 0.34688 0.0
H865 H 0.19108 0.27654 0.35782 0.0
H866 H 0.15288 0.24805 0.40134 0.0
H867 H 0.12443 0.11744 0.3639 0.0
H868 H 0.14046 0.08019 0.38481 0.0
H869 H 0.16386 0.108 0.3524 0.0
H870 H 0.21884 0.12128 0.39072 0.0
H871 H 0.19555 0.09393 0.42327 0.0
H872 H 0.21722 0.14056 0.42814 0.0
H873 H 0.12035 0.21063 0.44468 0.0
H874 H 0.0952 0.16639 0.4878 0.0
H875 H 0.13731 0.08362 0.45106 0.0
C876 C 0.19991 0.18872 0.35777 0.0
C877 C 0.20508 0.22656 0.34848 0.0
C878 C 0.18743 0.24756 0.36419 0.0
C879 C 0.16556 0.23158 0.38893 0.0
C880 C 0.16121 0.19442 0.39757 0.0
C881 C 0.17759 0.17306 0.38246 0.0
C882 C 0.16915 0.13394 0.39763 0.0
C883 C 0.14824 0.10837 0.37323 0.0
C884 C 0.20216 0.12173 0.41073 0.0
C885 C 0.14695 0.13719 0.42475 0.0
C886 C 0.14235 0.17233 0.42352 0.0
C887 C 0.12362 0.18302 0.44583 0.0
C888 C 0.10957 0.15747 0.47045 0.0
C889 C 0.11452 0.12136 0.47329 0.0
C890 C 0.13295 0.11084 0.44959 0.0
H891 H 0.906 0.18853 0.36495 0.0
H892 H 0.82848 0.15359 0.43542 0.0
H893 H 0.87374 0.14757 0.47765 0.0
H894 H 0.93644 0.12337 0.37978 0.0
H895 H 0.98228 0.13979 0.37604 0.0
H896 H 0.953 0.16472 0.35501 0.0
H897 H 0.98149 0.22321 0.38229 0.0
H898 H 1.0133 0.1998 0.40129 0.0
H899 H 0.98966 0.22121 0.42555 0.0
H900 H 0.90599 0.10288 0.49051 0.0
H901 H 0.94624 0.06294 0.498 0.0
H902 H 1.01505 0.13481 0.43216 0.0
C903 C 0.89939 0.18263 0.38995 0.0
C904 C 0.86446 0.17091 0.39761 0.0
C905 C 0.85538 0.16237 0.4297 0.0
C906 C 0.88096 0.15879 0.45359 0.0
C907 C 0.91464 0.1631 0.44422 0.0
C908 C 0.9248 0.17732 0.41359 0.0
C909 C 0.95976 0.17036 0.40738 0.0
C910 C 0.95768 0.14829 0.37783 0.0
C911 C 0.98771 0.20579 0.40398 0.0
C912 C 0.96584 0.14751 0.43799 0.0
C913 C 0.93832 0.1418 0.45765 0.0
C914 C 0.93011 0.11051 0.47859 0.0
C915 C 0.95295 0.08775 0.48253 0.0
C916 C 0.98534 0.09871 0.46882 0.0
C917 C 0.99134 0.12774 0.4448 0.0
H918 H 0.88997 0.88636 0.32371 0.0
H919 H 0.85305 0.78443 0.38087 0.0
H920 H 0.874 0.81451 0.43039 0.0
H921 H 0.96954 0.91131 0.37736 0.0
H922 H 0.97061 0.95915 0.36987 0.0
H923 H 0.95278 0.9289 0.33916 0.0
H924 H 0.89632 0.95199 0.33688 0.0
H925 H 0.91343 0.98097 0.36871 0.0
H926 H 0.87315 0.94776 0.37302 0.0
H927 H 0.88965 0.85773 0.47365 0.0
H928 H 0.92228 0.9043 0.50861 0.0
H929 H 0.95673 0.97593 0.42405 0.0
C930 C 0.8861 0.87026 0.3464 0.0
C931 C 0.86742 0.83355 0.34817 0.0
C932 C 0.86612 0.81291 0.37864 0.0
C933 C 0.87748 0.82987 0.40708 0.0
C934 C 0.89231 0.86698 0.40454 0.0
C935 C 0.89889 0.88638 0.375 0.0
C936 C 0.91921 0.92496 0.37915 0.0
C937 C 0.95517 0.93145 0.36559 0.0
C938 C 0.89932 0.95307 0.36351 0.0
C939 C 0.92171 0.9245 0.41567 0.0
C940 C 0.90506 0.89101 0.4297 0.0
C941 C 0.90326 0.88387 0.46302 0.0
C942 C 0.92129 0.91067 0.48266 0.0
C943 C 0.94134 0.94371 0.46889 0.0
C944 C 0.9407 0.95124 0.43502 0.0
H945 H 0.14285 0.90503 0.35823 0.0
H946 H 0.21305 0.84902 0.415 0.0
H947 H 0.21793 0.89104 0.45791 0.0
H948 H 0.17251 0.99969 0.38858 0.0
H949 H 0.12789 1.00196 0.38924 0.0
H950 H 0.14095 0.97785 0.35914 0.0
H951 H 0.09435 0.92046 0.37717 0.0
H952 H 0.0818 0.94397 0.40755 0.0
H953 H 0.0953 0.90207 0.41876 0.0
H954 H 0.20261 0.92745 0.49937 0.0
H955 H 0.16677 0.95061 0.5347 0.0
H956 H 0.10469 0.97984 0.4509 0.0
C957 C 0.16051 0.90295 0.37912 0.0
C958 C 0.17769 0.87448 0.3837 0.0
C959 C 0.19996 0.87123 0.41134 0.0
C960 C 0.20298 0.89507 0.43558 0.0
C961 C 0.18362 0.92172 0.4314 0.0
C962 C 0.16296 0.9258 0.40352 0.0
C963 C 0.13805 0.94914 0.40745 0.0
C964 C 0.14533 0.98426 0.38475 0.0
C965 C 0.1002 0.92764 0.40248 0.0
C966 C 0.14696 0.95683 0.44213 0.0
C967 C 0.1738 0.94164 0.45561 0.0
C968 C 0.18233 0.94034 0.48885 0.0
C969 C 0.16192 0.9534 0.50875 0.0
C970 C 0.13332 0.96673 0.49505 0.0
C971 C 0.12695 0.97015 0.4615 0.0
H972 H 0.20992 0.87658 0.64371 0.0
H973 H 0.26285 0.98894 0.63413 0.0
H974 H 0.20726 1.00692 0.62259 0.0
H975 H 0.13625 0.90081 0.57202 0.0
H976 H 0.1063 0.8615 0.58899 0.0
H977 H 0.15081 0.86006 0.58587 0.0
H978 H 0.15159 0.83913 0.64727 0.0
H979 H 0.10865 0.84511 0.65091 0.0
H980 H 0.14423 0.86917 0.67547 0.0
H981 H 0.15068 1.00308 0.65513 0.0
H982 H 0.0876 0.99984 0.65039 0.0
H983 H 0.06953 0.89194 0.61954 0.0
C984 C 0.21024 0.90488 0.63669 0.0
C985 C 0.23768 0.93301 0.64773 0.0
C986 C 0.23956 0.9678 0.63124 0.0
C987 C 0.20816 0.97849 0.62516 0.0
C988 C 0.17823 0.95089 0.62687 0.0
C989 C 0.17901 0.91473 0.62664 0.0
C990 C 0.14245 0.89108 0.62474 0.0
C991 C 0.13344 0.87757 0.5909 0.0
C992 C 0.13645 0.85927 0.65122 0.0
C993 C 0.12236 0.91898 0.63 0.0
C994 C 0.14414 0.95261 0.63334 0.0
C995 C 0.13275 0.97996 0.64594 0.0
C996 C 0.09704 0.97659 0.64528 0.0
C997 C 0.07599 0.94908 0.62744 0.0
C998 C 0.08669 0.91602 0.62829 0.0
H999 H 0.19689 0.23547 0.71364 0.0
H1000 H 0.24663 0.15668 0.76822 0.0
H1001 H 0.22301 0.11227 0.72769 0.0
H1002 H 0.12023 0.17738 0.68222 0.0
H1003 H 0.12227 0.20267 0.64309 0.0
H1004 H 0.14059 0.22522 0.67837 0.0
H1005 H 0.19808 0.24672 0.6505 0.0
H1006 H 0.18124 0.22235 0.61577 0.0
H1007 H 0.21967 0.21407 0.63812 0.0
H1008 H 0.19657 0.07834 0.67773 0.0
H1009 H 0.16212 0.05599 0.62823 0.0
H1010 H 0.13323 0.159 0.60785 0.0
C1011 C 0.20184 0.20844 0.7175 0.0
C1012 C 0.22248 0.19875 0.74425 0.0
C1013 C 0.22982 0.16384 0.74813 0.0
C1014 C 0.21705 0.13883 0.72503 0.0
C1015 C 0.19805 0.14987 0.6979 0.0
C1016 C 0.19041 0.18386 0.69422 0.0
C1017 C 0.17143 0.19028 0.66226 0.0
C1018 C 0.13655 0.19937 0.66679 0.0
C1019 C 0.19398 0.22011 0.64034 0.0
C1020 C 0.16703 0.15366 0.64963 0.0
C1021 C 0.18349 0.13093 0.66975 0.0
C1022 C 0.18302 0.09578 0.66223 0.0
C1023 C 0.16333 0.08307 0.63447 0.0
C1024 C 0.14356 0.10491 0.61584 0.0
C1025 C 0.14717 0.14123 0.6225 0.0
H1026 H 0.9216 0.11876 0.72789 0.0
H1027 H 0.89854 0.21649 0.67691 0.0
H1028 H 0.89971 0.19144 0.62483 0.0
H1029 H 0.98297 0.11167 0.67826 0.0
H1030 H 0.97265 0.06266 0.68066 0.0
H1031 H 0.96289 0.08548 0.71308 0.0
H1032 H 0.89864 0.05036 0.70725 0.0
H1033 H 0.90839 0.02797 0.67423 0.0
H1034 H 0.87491 0.05315 0.66879 0.0
H1035 H 0.91356 0.1616 0.57963 0.0
H1036 H 0.9449 0.13221 0.54549 0.0
H1037 H 0.95685 0.05268 0.62492 0.0
C1038 C 0.9164 0.13457 0.70571 0.0
C1039 C 0.90981 0.16924 0.7062 0.0
C1040 C 0.90324 0.18952 0.67686 0.0
C1041 C 0.9035 0.1754 0.64725 0.0
C1042 C 0.90995 0.14089 0.64755 0.0
C1043 C 0.91642 0.12082 0.67604 0.0
C1044 C 0.9277 0.08703 0.66988 0.0
C1045 C 0.96368 0.08673 0.68641 0.0
C1046 C 0.90079 0.05259 0.68067 0.0
C1047 C 0.92868 0.09231 0.63356 0.0
C1048 C 0.91736 0.12301 0.62099 0.0
C1049 C 0.92122 0.13677 0.58883 0.0
C1050 C 0.93878 0.11988 0.56954 0.0
C1051 C 0.95184 0.08971 0.58265 0.0
C1052 C 0.94543 0.07476 0.61435 0.0
H1053 H 0.89972 0.82309 0.72662 0.0
H1054 H 0.83292 0.89689 0.73295 0.0
H1055 H 0.86089 0.93682 0.68764 0.0
H1056 H 0.97676 0.89988 0.7069 0.0
H1057 H 0.99355 0.87328 0.68146 0.0
H1058 H 0.96949 0.85132 0.71572 0.0
H1059 H 0.92738 0.80892 0.67812 0.0
H1060 H 0.95093 0.83097 0.64371 0.0
H1061 H 0.9052 0.82851 0.64395 0.0
H1062 H 0.89257 0.96626 0.64008 0.0
H1063 H 0.93064 0.98735 0.59481 0.0
H1064 H 0.97935 0.89645 0.61935 0.0
C1065 C 0.89178 0.84817 0.71885 0.0
C1066 C 0.86457 0.85741 0.7333 0.0
C1067 C 0.85427 0.89 0.72249 0.0
C1068 C 0.86981 0.91264 0.69666 0.0
C1069 C 0.89628 0.90273 0.68256 0.0
C1070 C 0.90795 0.87187 0.69368 0.0
C1071 C 0.93761 0.8684 0.67447 0.0
C1072 C 0.97135 0.87351 0.6959 0.0
C1073 C 0.92976 0.83204 0.65914 0.0
C1074 C 0.93871 0.90038 0.64925 0.0
C1075 C 0.91506 0.92015 0.65492 0.0
C1076 C 0.91139 0.95122 0.63548 0.0
C1077 C 0.93298 0.96289 0.60983 0.0
C1078 C 0.95749 0.94323 0.6036 0.0
C1079 C 0.96027 0.91143 0.62337 0.0
H1080 H 0.36836 0.11293 0.1995 0.0
H1081 H 0.35037 0.21061 0.14527 0.0
H1082 H 0.40757 0.22171 0.12256 0.0
H1083 H 0.46968 0.1367 0.20396 0.0
H1084 H 0.46792 0.09046 0.19609 0.0
H1085 H 0.43594 0.1002 0.22001 0.0
H1086 H 0.38718 0.06654 0.18133 0.0
H1087 H 0.41876 0.05689 0.1579 0.0
H1088 H 0.38751 0.08101 0.13877 0.0
H1089 H 0.44958 0.20932 0.09091 0.0
H1090 H 0.46824 0.17326 0.05284 0.0
H1091 H 0.46351 0.08381 0.12621 0.0
C1092 C 0.37744 0.13724 0.1837 0.0
C1093 C 0.35573 0.16057 0.17348 0.0
C1094 C 0.36728 0.19239 0.15301 0.0
C1095 C 0.39984 0.19909 0.1405 0.0
C1096 C 0.42004 0.17369 0.14892 0.0
C1097 C 0.40924 0.14338 0.17043 0.0
C1098 C 0.42888 0.11452 0.16827 0.0
C1099 C 0.45202 0.11027 0.19892 0.0
C1100 C 0.40414 0.0777 0.16109 0.0
C1101 C 0.45001 0.13146 0.14003 0.0
C1102 C 0.44577 0.16635 0.12993 0.0
C1103 C 0.45439 0.18291 0.09927 0.0
C1104 C 0.46456 0.16231 0.0777 0.0
C1105 C 0.46647 0.12629 0.08758 0.0
C1106 C 0.46223 0.11179 0.11932 0.0
H1107 H 0.87673 0.37426 0.2566 0.0
H1108 H 0.78385 0.33244 0.19845 0.0
H1109 H 0.80802 0.37305 0.15131 0.0
H1110 H 0.89588 0.45969 0.23174 0.0
H1111 H 0.94181 0.46645 0.22798 0.0
H1112 H 0.91997 0.43057 0.25566 0.0
H1113 H 0.94348 0.38539 0.22932 0.0
H1114 H 0.96449 0.41791 0.19892 0.0
H1115 H 0.93332 0.37807 0.18722 0.0
H1116 H 0.84211 0.42283 0.11215 0.0
H1117 H 0.88744 0.46726 0.08206 0.0
H1118 H 0.9556 0.47437 0.16827 0.0
C1119 C 0.8624 0.37203 0.23351 0.0
C1120 C 0.82917 0.34979 0.23064 0.0
C1121 C 0.80998 0.34882 0.20057 0.0
C1122 C 0.82333 0.37192 0.17386 0.0
C1123 C 0.85611 0.39455 0.17784 0.0
C1124 C 0.87597 0.3933 0.20653 0.0
C1125 C 0.91056 0.41955 0.20477 0.0
C1126 C 0.91738 0.44562 0.23163 0.0
C1127 C 0.9396 0.39894 0.20498 0.0
C1128 C 0.90559 0.43882 0.17216 0.0
C1129 C 0.8746 0.42354 0.15631 0.0
C1130 C 0.86633 0.43509 0.12443 0.0
C1131 C 0.89172 0.46089 0.10777 0.0
C1132 C 0.92422 0.47448 0.12353 0.0
C1133 C 0.9303 0.46512 0.15638 0.0
H1134 H 0.69958 0.97541 0.17838 0.0
H1135 H 0.68843 0.8856 0.1196 0.0
H1136 H 0.62564 0.88298 0.11072 0.0
H1137 H 0.60726 0.9472 0.21054 0.0
H1138 H 0.60551 0.99437 0.20835 0.0
H1139 H 0.646 0.98135 0.21873 0.0
H1140 H 0.67463 0.02586 0.17156 0.0
H1141 H 0.63488 0.03955 0.16236 0.0
H1142 H 0.65436 0.02248 0.13142 0.0
H1143 H 0.57077 0.90039 0.09711 0.0
H1144 H 0.53537 0.94196 0.07248 0.0
H1145 H 0.57972 0.01912 0.14172 0.0
C1146 C 0.68364 0.9552 0.16371 0.0
C1147 C 0.69839 0.93178 0.14843 0.0
C1148 C 0.67724 0.9046 0.13044 0.0
C1149 C 0.6416 0.90232 0.12613 0.0
C1150 C 0.6277 0.92659 0.14101 0.0
C1151 C 0.64823 0.95244 0.15964 0.0
C1152 C 0.62926 0.9801 0.16755 0.0
C1153 C 0.62157 0.97543 0.20344 0.0
C1154 C 0.64943 0.01923 0.15756 0.0
C1155 C 0.59642 0.96884 0.14696 0.0
C1156 C 0.59492 0.93646 0.13347 0.0
C1157 C 0.57092 0.92486 0.10838 0.0
C1158 C 0.55073 0.94859 0.09457 0.0
C1159 C 0.55556 0.98343 0.10565 0.0
C1160 C 0.57561 0.99205 0.1339 0.0
H1161 H 0.22725 0.76228 0.17951 0.0
H1162 H 0.25441 0.67279 0.24124 0.0
H1163 H 0.20671 0.62974 0.21523 0.0
H1164 H 0.14387 0.73978 0.17588 0.0
H1165 H 0.13275 0.7472 0.13329 0.0
H1166 H 0.17311 0.77194 0.15011 0.0
H1167 H 0.20987 0.75065 0.1126 0.0
H1168 H 0.17038 0.72829 0.09197 0.0
H1169 H 0.20224 0.70297 0.1069 0.0
H1170 H 0.14952 0.59928 0.19096 0.0
H1171 H 0.09624 0.57893 0.15709 0.0
H1172 H 0.11 0.68765 0.108 0.0
C1173 C 0.22378 0.7335 0.18672 0.0
C1174 C 0.24318 0.72083 0.21319 0.0
C1175 C 0.23897 0.68303 0.22154 0.0
C1176 C 0.21199 0.65836 0.20696 0.0
C1177 C 0.19122 0.67202 0.18284 0.0
C1178 C 0.19811 0.70832 0.17133 0.0
C1179 C 0.17228 0.71555 0.14446 0.0
C1180 C 0.15434 0.74533 0.15147 0.0
C1181 C 0.18972 0.7249 0.11206 0.0
C1182 C 0.14774 0.67873 0.14542 0.0
C1183 C 0.15935 0.65384 0.16736 0.0
C1184 C 0.14059 0.6182 0.17298 0.0
C1185 C 0.1102 0.60708 0.15396 0.0
C1186 C 0.0992 0.63169 0.12979 0.0
C1187 C 0.11758 0.66824 0.12638 0.0
H1188 H 0.35079 0.88225 0.83042 0.0
H1189 H 0.35136 0.78471 0.89424 0.0
H1190 H 0.38618 0.82276 0.93575 0.0
H1191 H 0.43507 0.93192 0.85107 0.0
H1192 H 0.4228 0.97495 0.8486 0.0
H1193 H 0.39937 0.93975 0.82415 0.0
H1194 H 0.34174 0.94212 0.84777 0.0
H1195 H 0.36472 0.97782 0.87184 0.0
H1196 H 0.33842 0.93701 0.89093 0.0
H1197 H 0.42066 0.8722 0.96913 0.0
H1198 H 0.44886 0.92869 0.99413 0.0
H1199 H 0.42049 0.99314 0.90886 0.0
C1200 C 0.35786 0.86887 0.85332 0.0
C1201 C 0.34826 0.83091 0.85967 0.0
C1202 C 0.35883 0.81398 0.88924 0.0
C1203 C 0.37834 0.83531 0.91277 0.0
C1204 C 0.38678 0.87305 0.90582 0.0
C1205 C 0.37659 0.88955 0.87686 0.0
C1206 C 0.38774 0.93042 0.87524 0.0
C1207 C 0.41274 0.94512 0.84817 0.0
C1208 C 0.35628 0.94785 0.87123 0.0
C1209 C 0.40594 0.93476 0.90809 0.0
C1210 C 0.40553 0.90134 0.92519 0.0
C1211 C 0.42112 0.89842 0.95602 0.0
C1212 C 0.43712 0.93052 0.96989 0.0
C1213 C 0.43672 0.96476 0.95309 0.0
C1214 C 0.42114 0.96707 0.92186 0.0
H1215 H 0.17406 0.38533 0.95276 0.0
H1216 H 0.11437 0.38867 0.86169 0.0
H1217 H 0.08886 0.43649 0.87939 0.0
H1218 H 0.11481 0.39058 1.0025 0.0
H1219 H 0.1414 0.42119 0.02958 0.0
H1220 H 0.16081 0.39392 1.00731 0.0
H1221 H 0.20264 0.45155 0.98313 0.0
H1222 H 0.18364 0.47913 1.00579 0.0
H1223 H 0.18555 0.48828 0.96263 0.0
H1224 H 0.06276 0.47622 0.91051 0.0
H1225 H 0.03869 0.50401 0.95211 0.0
H1226 H 0.11462 0.47417 0.02329 0.0
C1227 C 0.15666 0.39731 0.93618 0.0
C1228 C 0.14648 0.38386 0.90569 0.0
C1229 C 0.12295 0.39923 0.88484 0.0
C1230 C 0.10835 0.42637 0.89475 0.0
C1231 C 0.11801 0.43835 0.92541 0.0
C1232 C 0.14225 0.42484 0.94559 0.0
C1233 C 0.14604 0.44006 0.9783 0.0
C1234 C 0.14038 0.4096 1.00603 0.0
C1235 C 0.18157 0.4663 0.98272 0.0
C1236 C 0.1174 0.4607 0.97464 0.0
C1237 C 0.10261 0.46083 0.9435 0.0
C1238 C 0.07464 0.4769 0.93475 0.0
C1239 C 0.06111 0.49266 0.95846 0.0
C1240 C 0.07499 0.49143 0.99068 0.0
C1241 C 0.1038 0.47573 0.99866 0.0
H1242 H 0.73167 0.25982 0.89123 0.0
H1243 H 0.69267 0.22442 0.79726 0.0
H1244 H 0.64356 0.18061 0.822 0.0
H1245 H 0.70593 0.17494 0.94002 0.0
H1246 H 0.69267 0.19603 0.97217 0.0
H1247 H 0.72618 0.22144 0.94685 0.0
H1248 H 0.69116 0.2712 0.93353 0.0
H1249 H 0.6569 0.24542 0.95793 0.0
H1250 H 0.64761 0.25908 0.91612 0.0
H1251 H 0.59804 0.14057 0.85779 0.0
H1252 H 0.56126 0.10752 0.90193 0.0
H1253 H 0.62749 0.17394 0.9708 0.0
C1254 C 0.7132 0.2421 0.87613 0.0
C1255 C 0.71698 0.24364 0.84275 0.0
C1256 C 0.69128 0.22183 0.82325 0.0
C1257 C 0.66301 0.19734 0.837 0.0
C1258 C 0.66002 0.19626 0.87012 0.0
C1259 C 0.68432 0.21829 0.88937 0.0
C1260 C 0.6739 0.2139 0.92383 0.0
C1261 C 0.7013 0.20077 0.94708 0.0
C1262 C 0.66699 0.24951 0.93342 0.0
C1263 C 0.64075 0.18492 0.92128 0.0
C1264 C 0.63283 0.17526 0.89008 0.0
C1265 C 0.60377 0.14817 0.88228 0.0
C1266 C 0.58286 0.12978 0.90729 0.0
C1267 C 0.59148 0.13867 0.93943 0.0
C1268 C 0.62026 0.16704 0.94624 0.0
H1269 H 0.80999 0.67854 0.85991 0.0
H1270 H 0.87623 0.78612 0.84568 0.0
H1271 H 0.91771 0.76861 0.88846 0.0
H1272 H 0.82558 0.6584 0.94577 0.0
H1273 H 0.82835 0.61201 0.94344 0.0
H1274 H 0.80304 0.63334 0.91303 0.0
H1275 H 0.83779 0.61857 0.86859 0.0
H1276 H 0.86321 0.59715 0.89887 0.0
H1277 H 0.88424 0.63338 0.87083 0.0
H1278 H 0.95335 0.73829 0.93477 0.0
H1279 H 0.97997 0.70043 0.97542 0.0
H1280 H 0.89432 0.60828 0.95989 0.0
C1281 C 0.83299 0.69881 0.86604 0.0
C1282 C 0.83799 0.73515 0.8499 0.0
C1283 C 0.8698 0.75928 0.85829 0.0
C1284 C 0.89409 0.74908 0.88254 0.0
C1285 C 0.88782 0.71364 0.89831 0.0
C1286 C 0.85819 0.68858 0.88984 0.0
C1287 C 0.85896 0.6514 0.90887 0.0
C1288 C 0.82707 0.63799 0.92898 0.0
C1289 C 0.86115 0.62345 0.8854 0.0
C1290 C 0.89253 0.65969 0.93085 0.0
C1291 C 0.90888 0.69582 0.92375 0.0
C1292 C 0.94042 0.71009 0.94005 0.0
C1293 C 0.95562 0.68774 0.96359 0.0
C1294 C 0.94023 0.65028 0.97223 0.0
C1295 C 0.90758 0.63642 0.95501 0.0
H1296 H 0.17798 0.35421 0.2542 0.0
H1297 H 0.26437 0.36686 0.1949 0.0
H1298 H 0.23658 0.40372 0.15341 0.0
H1299 H 0.10648 0.35395 0.19034 0.0
H1300 H 0.08566 0.38289 0.20953 0.0
H1301 H 0.11108 0.35526 0.23359 0.0
H1302 H 0.14788 0.41222 0.258 0.0
H1303 H 0.12265 0.44004 0.23386 0.0
H1304 H 0.16892 0.45021 0.23163 0.0
H1305 H 0.19576 0.44727 0.11434 0.0
H1306 H 0.15369 0.48218 0.08904 0.0
H1307 H 0.09041 0.44522 0.17085 0.0
C1308 C 0.19083 0.3631 0.23191 0.0
C1309 C 0.22351 0.35165 0.22831 0.0
C1310 C 0.23861 0.36931 0.19889 0.0
C1311 C 0.22277 0.39219 0.17475 0.0
C1312 C 0.1906 0.40122 0.17863 0.0
C1313 C 0.17494 0.387 0.20716 0.0
C1314 C 0.14153 0.40296 0.20661 0.0
C1315 C 0.10925 0.37191 0.21025 0.0
C1316 C 0.14543 0.42779 0.23419 0.0
C1317 C 0.13926 0.4262 0.17303 0.0
C1318 C 0.16869 0.42568 0.15762 0.0
C1319 C 0.17307 0.44676 0.12716 0.0
C1320 C 0.14824 0.46753 0.11242 0.0
C1321 C 0.11654 0.46879 0.12617 0.0
C1322 C 0.11315 0.4466 0.15782 0.0
H1323 H 0.18771 0.73478 0.8482 0.0
H1324 H 0.28436 0.71355 0.89123 0.0
H1325 H 0.25426 0.68064 0.93776 0.0
H1326 H 0.15967 0.75217 0.92862 0.0
H1327 H 0.11443 0.73412 0.91851 0.0
H1328 H 0.14326 0.75477 0.88735 0.0
H1329 H 0.12436 0.6965 0.85727 0.0
H1330 H 0.09609 0.67559 0.88897 0.0
H1331 H 0.12871 0.65374 0.8783 0.0
H1332 H 0.21214 0.64634 0.98226 0.0
H1333 H 0.16513 0.62152 0.01938 0.0
H1334 H 0.09535 0.6703 0.95395 0.0
C1335 C 0.20322 0.72449 0.86717 0.0
C1336 C 0.23985 0.72833 0.86384 0.0
C1337 C 0.25688 0.7119 0.89098 0.0
C1338 C 0.23973 0.69273 0.9184 0.0
C1339 C 0.20438 0.6899 0.92067 0.0
C1340 C 0.18636 0.70614 0.89603 0.0
C1341 C 0.14873 0.70082 0.90605 0.0
C1342 C 0.14102 0.73767 0.91043 0.0
C1343 C 0.12293 0.68046 0.88115 0.0
C1344 C 0.14816 0.67804 0.939 0.0
C1345 C 0.18076 0.67204 0.94695 0.0
C1346 C 0.18675 0.6515 0.97601 0.0
C1347 C 0.15946 0.63724 0.99729 0.0
C1348 C 0.1256 0.6435 0.99074 0.0
C1349 C 0.12047 0.66463 0.96065 0.0
H1350 H 0.39479 0.25869 0.83367 0.0
H1351 H 0.28957 0.2011 0.84976 0.0
H1352 H 0.3108 0.16324 0.89559 0.0
H1353 H 0.41937 0.16418 0.8487 0.0
H1354 H 0.46335 0.1856 0.86023 0.0
H1355 H 0.43905 0.2082 0.8298 0.0
H1356 H 0.45216 0.26415 0.86289 0.0
H1357 H 0.47531 0.24147 0.8941 0.0
H1358 H 0.43946 0.25906 0.904 0.0
H1359 H 0.34462 0.14476 0.94722 0.0
H1360 H 0.38601 0.12263 0.98634 0.0
H1361 H 0.47048 0.17666 0.92635 0.0
C1362 C 0.37606 0.23819 0.84689 0.0
C1363 C 0.33992 0.23629 0.8414 0.0
C1364 C 0.31682 0.20643 0.8567 0.0
C1365 C 0.32886 0.18415 0.88206 0.0
C1366 C 0.36451 0.18955 0.88919 0.0
C1367 C 0.38776 0.21342 0.87005 0.0
C1368 C 0.42454 0.20912 0.87929 0.0
C1369 C 0.43735 0.1907 0.85296 0.0
C1370 C 0.44931 0.24565 0.88546 0.0
C1371 C 0.41894 0.18365 0.91007 0.0
C1372 C 0.38389 0.17268 0.91499 0.0
C1373 C 0.3719 0.15185 0.94286 0.0
C1374 C 0.39586 0.13995 0.96525 0.0
C1375 C 0.43173 0.1477 0.95972 0.0
C1376 C 0.44351 0.17058 0.93179 0.0
H1377 H 0.85192 0.32034 0.90257 0.0
H1378 H 0.82091 0.4066 0.83925 0.0
H1379 H 0.85822 0.45194 0.87119 0.0
H1380 H 0.84449 0.37075 0.97416 0.0
H1381 H 0.87785 0.35455 0.9989 0.0
H1382 H 0.85256 0.32703 0.96886 0.0
H1383 H 0.90843 0.32378 0.94324 0.0
H1384 H 0.9338 0.35127 0.97321 0.0
H1385 H 0.93884 0.36528 0.93089 0.0
H1386 H 0.9009 0.49078 0.90888 0.0
H1387 H 0.9356 0.51909 0.95489 0.0
H1388 H 0.93369 0.41189 1.00337 0.0
C1389 C 0.85316 0.34876 0.89516 0.0
C1390 C 0.83441 0.35889 0.86584 0.0
C1391 C 0.8361 0.39683 0.85926 0.0
C1392 C 0.85724 0.42343 0.87792 0.0
C1393 C 0.87572 0.41287 0.90559 0.0
C1394 C 0.87277 0.37638 0.91526 0.0
C1395 C 0.89145 0.37342 0.94915 0.0
C1396 C 0.86504 0.35533 0.97426 0.0
C1397 C 0.91983 0.35217 0.9491 0.0
C1398 C 0.90698 0.41367 0.95558 0.0
C1399 C 0.89736 0.4357 0.92979 0.0
C1400 C 0.908 0.47363 0.92942 0.0
C1401 C 0.92799 0.48971 0.95604 0.0
C1402 C 0.93785 0.46861 0.98379 0.0
C1403 C 0.92708 0.42956 0.983 0.0
H1404 H 0.67791 0.88747 0.92906 0.0
H1405 H 0.69458 0.97796 0.85568 0.0
H1406 H 0.63904 0.99157 0.86689 0.0
H1407 H 0.57734 0.86582 0.9212 0.0
H1408 H 0.57566 0.85561 0.96429 0.0
H1409 H 0.60959 0.84524 0.94331 0.0
H1410 H 0.65592 0.88318 0.98108 0.0
H1411 H 0.62241 0.89308 1.00231 0.0
H1412 H 0.65505 0.92984 0.9849 0.0
H1413 H 0.59002 1.00269 0.89268 0.0
H1414 H 0.56048 0.01906 0.93645 0.0
H1415 H 0.57738 0.92438 0.99674 0.0
C1416 C 0.66907 0.90945 0.91488 0.0
C1417 C 0.68987 0.93177 0.89166 0.0
C1418 C 0.67858 0.96078 0.87366 0.0
C1419 C 0.64689 0.96819 0.87951 0.0
C1420 C 0.62704 0.9462 0.90336 0.0
C1421 C 0.63788 0.91752 0.92092 0.0
C1422 C 0.61613 0.90301 0.94959 0.0
C1423 C 0.59332 0.86518 0.94427 0.0
C1424 C 0.63873 0.90231 0.98131 0.0
C1425 C 0.59438 0.93095 0.94801 0.0
C1426 C 0.59926 0.95388 0.91976 0.0
C1427 C 0.5854 0.98448 0.91443 0.0
C1428 C 0.56864 0.99355 0.93947 0.0
C1429 C 0.56679 0.97272 0.96977 0.0
C1430 C 0.57779 0.93993 0.97346 0.0
H1431 H 0.86974 0.69685 0.25434 0.0
H1432 H 0.82532 0.76404 0.18264 0.0
H1433 H 0.854 0.74383 0.14039 0.0
H1434 H 0.95509 0.70945 0.21194 0.0
H1435 H 0.95993 0.66374 0.22314 0.0
H1436 H 0.93749 0.6852 0.24854 0.0
H1437 H 0.88455 0.63195 0.24512 0.0
H1438 H 0.90683 0.61045 0.21964 0.0
H1439 H 0.86527 0.61936 0.20614 0.0
H1440 H 0.89016 0.7116 0.10076 0.0
H1441 H 0.92413 0.67745 0.07425 0.0
H1442 H 0.94828 0.6247 0.16731 0.0
C1443 C 0.86616 0.70836 0.22982 0.0
C1444 C 0.84422 0.73579 0.22418 0.0
C1445 C 0.84188 0.74659 0.19034 0.0
C1446 C 0.85838 0.73372 0.16522 0.0
C1447 C 0.87924 0.70778 0.17175 0.0
C1448 C 0.88343 0.6953 0.20385 0.0
C1449 C 0.90789 0.66751 0.20418 0.0
C1450 C 0.94212 0.68231 0.22312 0.0
C1451 C 0.89007 0.63008 0.21972 0.0
C1452 C 0.9153 0.66476 0.16769 0.0
C1453 C 0.89874 0.68913 0.1496 0.0
C1454 C 0.90257 0.69273 0.11569 0.0
C1455 C 0.92266 0.67242 0.10018 0.0
C1456 C 0.94034 0.64607 0.11648 0.0
C1457 C 0.93573 0.64308 0.15192 0.0
H1458 H 0.38864 0.87789 0.23736 0.0
H1459 H 0.29833 0.81028 0.19186 0.0
H1460 H 0.31681 0.83962 0.1382 0.0
H1461 H 0.38396 0.95994 0.18108 0.0
H1462 H 0.43022 0.97642 0.18234 0.0
H1463 H 0.40981 0.94966 0.21674 0.0
H1464 H 0.44924 0.90458 0.2148 0.0
H1465 H 0.46919 0.93088 0.18 0.0
H1466 H 0.44944 0.88325 0.17816 0.0
H1467 H 0.34868 0.87498 0.0875 0.0
H1468 H 0.38413 0.91809 0.04758 0.0
H1469 H 0.45088 0.96738 0.12559 0.0
C1470 C 0.37254 0.86942 0.21613 0.0
C1471 C 0.34185 0.84127 0.21935 0.0
C1472 C 0.32173 0.83158 0.1906 0.0
C1473 C 0.33225 0.84812 0.15977 0.0
C1474 C 0.36278 0.87539 0.15747 0.0
C1475 C 0.38207 0.88671 0.18512 0.0
C1476 C 0.41261 0.91823 0.17623 0.0
C1477 C 0.40894 0.95312 0.18993 0.0
C1478 C 0.44717 0.90864 0.18801 0.0
C1479 C 0.40858 0.9219 0.13934 0.0
C1480 C 0.37971 0.89679 0.1289 0.0
C1481 C 0.37106 0.89479 0.09576 0.0
C1482 C 0.39159 0.91933 0.07306 0.0
C1483 C 0.42075 0.94606 0.08305 0.0
C1484 C 0.42917 0.94704 0.11687 0.0
H1485 H 0.72435 0.20379 0.20075 0.0
H1486 H 0.69042 0.30459 0.19589 0.0
H1487 H 0.64782 0.2834 0.15124 0.0
H1488 H 0.71818 0.1942 0.11477 0.0
H1489 H 0.70297 0.14546 0.11948 0.0
H1490 H 0.73027 0.16862 0.15093 0.0
H1491 H 0.68446 0.13965 0.19215 0.0
H1492 H 0.65699 0.11647 0.16081 0.0
H1493 H 0.64081 0.14536 0.18444 0.0
H1494 H 0.60723 0.24914 0.1048 0.0
H1495 H 0.57561 0.20733 0.06459 0.0
H1496 H 0.63767 0.13012 0.09996 0.0
C1497 C 0.7088 0.22206 0.18994 0.0
C1498 C 0.71205 0.25672 0.20191 0.0
C1499 C 0.68924 0.27828 0.18745 0.0
C1500 C 0.66476 0.26632 0.16186 0.0
C1501 C 0.66264 0.23227 0.15053 0.0
C1502 C 0.68421 0.21046 0.16437 0.0
C1503 C 0.67679 0.17479 0.14835 0.0
C1504 C 0.70897 0.17054 0.13243 0.0
C1505 C 0.664 0.14215 0.1729 0.0
C1506 C 0.64806 0.17998 0.12305 0.0
C1507 C 0.63993 0.21314 0.12462 0.0
C1508 C 0.61376 0.22324 0.10354 0.0
C1509 C 0.59578 0.19922 0.08052 0.0
C1510 C 0.60376 0.16507 0.07824 0.0
C1511 C 0.6305 0.15586 0.10025 0.0
H1512 H 0.65991 0.70915 0.80707 0.0
H1513 H 0.75573 0.71637 0.86522 0.0
H1514 H 0.72403 0.70213 0.91456 0.0
H1515 H 0.59741 0.71828 0.86113 0.0
H1516 H 0.56655 0.67584 0.85636 0.0
H1517 H 0.59357 0.69719 0.82381 0.0
H1518 H 0.61662 0.63897 0.82227 0.0
H1519 H 0.58845 0.61718 0.85377 0.0
H1520 H 0.63416 0.61908 0.85906 0.0
H1521 H 0.68315 0.70794 0.95413 0.0
H1522 H 0.64455 0.67021 0.9922 0.0
H1523 H 0.5785 0.62054 0.91267 0.0
C1524 C 0.67396 0.70715 0.83024 0.0
C1525 C 0.71024 0.72033 0.83386 0.0
C1526 C 0.7279 0.71225 0.86333 0.0
C1527 C 0.71029 0.70442 0.89125 0.0
C1528 C 0.67467 0.69855 0.88802 0.0
C1529 C 0.65667 0.69341 0.85862 0.0
C1530 C 0.62019 0.67076 0.86383 0.0
C1531 C 0.59281 0.69179 0.85047 0.0
C1532 C 0.61452 0.63432 0.84886 0.0
C1533 C 0.62142 0.66566 0.90069 0.0
C1534 C 0.652 0.68608 0.91303 0.0
C1535 C 0.6597 0.68987 0.94545 0.0
C1536 C 0.63759 0.66789 0.96675 0.0
C1537 C 0.61016 0.64013 0.9554 0.0
C1538 C 0.60017 0.64054 0.92191 0.0
H1539 H 0.35391 0.68 0.94576 0.0
H1540 H 0.39902 0.70394 0.85309 0.0
H1541 H 0.45665 0.71594 0.87901 0.0
H1542 H 0.45197 0.73728 0.98741 0.0
H1543 H 0.4502 0.70446 0.02136 0.0
H1544 H 0.41354 0.72517 1.00979 0.0
H1545 H 0.36802 0.66791 1.00042 0.0
H1546 H 0.39843 0.64394 0.02032 0.0
H1547 H 0.37912 0.63188 0.98126 0.0
H1548 H 0.49276 0.67805 0.90373 0.0
H1549 H 0.50723 0.62144 0.92918 0.0
H1550 H 0.44388 0.62172 1.00821 0.0
C1551 C 0.37633 0.69028 0.93162 0.0
C1552 C 0.37269 0.68956 0.89814 0.0
C1553 C 0.40153 0.70353 0.87918 0.0
C1554 C 0.4346 0.71099 0.89378 0.0
C1555 C 0.4381 0.70392 0.92709 0.0
C1556 C 0.40972 0.69787 0.94632 0.0
C1557 C 0.41915 0.68303 0.97986 0.0
C1558 C 0.43438 0.71441 1.00089 0.0
C1559 C 0.38941 0.65497 0.99634 0.0
C1560 C 0.44799 0.66695 0.97187 0.0
C1561 C 0.46149 0.68265 0.94275 0.0
C1562 C 0.48354 0.667 0.92723 0.0
C1563 C 0.49083 0.63441 0.9412 0.0
C1564 C 0.47524 0.61769 0.96973 0.0
C1565 C 0.45509 0.6346 0.98593 0.0
H1566 H 0.33191 0.35536 0.87575 0.0
H1567 H 0.36481 0.41215 0.78387 0.0
H1568 H 0.41005 0.4559 0.81318 0.0
H1569 H 0.34785 0.42717 0.92504 0.0
H1570 H 0.3647 0.40164 0.95884 0.0
H1571 H 0.33323 0.37837 0.93031 0.0
H1572 H 0.37469 0.3378 0.92041 0.0
H1573 H 0.4065 0.36102 0.9488 0.0
H1574 H 0.4177 0.35871 0.90816 0.0
H1575 H 0.45262 0.49214 0.85424 0.0
H1576 H 0.48718 0.51757 0.90203 0.0
H1577 H 0.42925 0.42857 0.96376 0.0
C1578 C 0.34872 0.37636 0.86135 0.0
C1579 C 0.34572 0.37931 0.82738 0.0
C1580 C 0.36739 0.40876 0.80995 0.0
C1581 C 0.39302 0.43369 0.82639 0.0
C1582 C 0.39667 0.42812 0.85998 0.0
C1583 C 0.37506 0.39994 0.87707 0.0
C1584 C 0.38534 0.39734 0.91257 0.0
C1585 C 0.35605 0.40143 0.93286 0.0
C1586 C 0.39674 0.36161 0.92308 0.0
C1587 C 0.41556 0.42956 0.91322 0.0
C1588 C 0.42189 0.44714 0.88283 0.0
C1589 C 0.44813 0.47837 0.87808 0.0
C1590 C 0.46781 0.4924 0.90527 0.0
C1591 C 0.46099 0.47496 0.93655 0.0
C1592 C 0.43516 0.44262 0.94021 0.0
H1593 H 0.64521 0.3604 0.9089 0.0
H1594 H 0.67931 0.44434 0.8325 0.0
H1595 H 0.67392 0.49121 0.86725 0.0
H1596 H 0.5821 0.38772 0.93001 0.0
H1597 H 0.58576 0.38039 0.97344 0.0
H1598 H 0.60416 0.35406 0.94931 0.0
H1599 H 0.66502 0.37488 0.97717 0.0
H1600 H 0.64643 0.39937 1.00322 0.0
H1601 H 0.68293 0.42265 0.98042 0.0
H1602 H 0.64919 0.525 0.90197 0.0
H1603 H 0.61906 0.5478 0.94189 0.0
H1604 H 0.59892 0.4417 0.99563 0.0
C1605 C 0.65353 0.38886 0.90053 0.0
C1606 C 0.66275 0.39927 0.86854 0.0
C1607 C 0.67269 0.43635 0.85732 0.0
C1608 C 0.66961 0.46301 0.87682 0.0
C1609 C 0.65739 0.45175 0.90743 0.0
C1610 C 0.65092 0.41573 0.91991 0.0
C1611 C 0.63367 0.41041 0.95168 0.0
C1612 C 0.59939 0.38146 0.95101 0.0
C1613 C 0.65849 0.40129 0.97978 0.0
C1614 C 0.62784 0.44802 0.95304 0.0
C1615 C 0.6426 0.47162 0.92777 0.0
C1616 C 0.63877 0.50723 0.92256 0.0
C1617 C 0.62126 0.51972 0.94498 0.0
C1618 C 0.60749 0.49642 0.97176 0.0
C1619 C 0.60983 0.45993 0.97548 0.0
H1620 H 0.67349 0.42551 0.21497 0.0
H1621 H 0.7375 0.40476 0.14362 0.0
H1622 H 0.68646 0.39199 0.10524 0.0
H1623 H 0.58313 0.36689 0.18118 0.0
H1624 H 0.56309 0.40221 0.19059 0.0
H1625 H 0.59775 0.39051 0.21686 0.0
H1626 H 0.63165 0.45772 0.21177 0.0
H1627 H 0.59713 0.46929 0.18651 0.0
H1628 H 0.6402 0.48049 0.17211 0.0
H1629 H 0.64342 0.41119 0.07101 0.0
H1630 H 0.61708 0.46074 0.04733 0.0
H1631 H 0.57076 0.46291 0.13663 0.0
C1632 C 0.67602 0.41721 0.19136 0.0
C1633 C 0.70871 0.41718 0.1812 0.0
C1634 C 0.71232 0.40579 0.15098 0.0
C1635 C 0.68333 0.39775 0.12954 0.0
C1636 C 0.65136 0.40118 0.13907 0.0
C1637 C 0.64744 0.40994 0.16982 0.0
C1638 C 0.61441 0.42235 0.17186 0.0
C1639 C 0.58804 0.39372 0.19124 0.0
C1640 C 0.62133 0.45963 0.18631 0.0
C1641 C 0.60309 0.42485 0.13648 0.0
C1642 C 0.62371 0.4107 0.11804 0.0
C1643 C 0.62622 0.42084 0.085 0.0
C1644 C 0.61137 0.44912 0.07159 0.0
C1645 C 0.59237 0.46478 0.09071 0.0
C1646 C 0.58501 0.45008 0.1221 0.0
H1647 H 0.67615 0.69623 0.25649 0.0
H1648 H 0.69747 0.79634 0.19409 0.0
H1649 H 0.65841 0.76569 0.15156 0.0
H1650 H 0.68002 0.63841 0.20168 0.0
H1651 H 0.6453 0.60183 0.21581 0.0
H1652 H 0.6692 0.63325 0.24332 0.0
H1653 H 0.61241 0.64832 0.25778 0.0
H1654 H 0.58813 0.61671 0.2303 0.0
H1655 H 0.58411 0.66328 0.22609 0.0
H1656 H 0.62721 0.72179 0.11317 0.0
H1657 H 0.60219 0.66908 0.08233 0.0
H1658 H 0.60039 0.59675 0.16998 0.0
C1659 C 0.6725 0.712 0.23435 0.0
C1660 C 0.6911 0.74834 0.2286 0.0
C1661 C 0.68398 0.76828 0.19921 0.0
C1662 C 0.66177 0.75107 0.17483 0.0
C1663 C 0.64584 0.71436 0.18075 0.0
C1664 C 0.65028 0.69526 0.21008 0.0
C1665 C 0.63249 0.65534 0.20962 0.0
C1666 C 0.6583 0.6308 0.21809 0.0
C1667 C 0.6025 0.64532 0.2323 0.0
C1668 C 0.61919 0.65442 0.17467 0.0
C1669 C 0.62669 0.68898 0.15867 0.0
C1670 C 0.6202 0.69487 0.12559 0.0
C1671 C 0.60607 0.66475 0.10833 0.0
C1672 C 0.59878 0.62909 0.12404 0.0
C1673 C 0.60466 0.62385 0.15773 0.0
H1674 H 0.41176 0.72966 0.149 0.0
H1675 H 0.36195 0.64191 0.21602 0.0
H1676 H 0.37027 0.59722 0.1806 0.0
H1677 H 0.4005 0.6808 0.06423 0.0
H1678 H 0.43746 0.71932 0.06606 0.0
H1679 H 0.40005 0.71898 0.08605 0.0
H1680 H 0.46517 0.73415 0.12492 0.0
H1681 H 0.4868 0.7082 0.10339 0.0
H1682 H 0.47698 0.69395 0.14482 0.0
H1683 H 0.40309 0.5656 0.15243 0.0
H1684 H 0.44051 0.54368 0.1192 0.0
H1685 H 0.47098 0.65124 0.0689 0.0
C1686 C 0.40062 0.70104 0.15489 0.0
C1687 C 0.38688 0.68884 0.1849 0.0
C1688 C 0.37256 0.6515 0.19273 0.0
C1689 C 0.37763 0.62596 0.173 0.0
C1690 C 0.3965 0.63883 0.14584 0.0
C1691 C 0.40688 0.67542 0.13625 0.0
C1692 C 0.43208 0.68278 0.11004 0.0
C1693 C 0.41659 0.70115 0.07973 0.0
C1694 C 0.46731 0.70613 0.12153 0.0
C1695 C 0.43486 0.64435 0.10641 0.0
C1696 C 0.4147 0.61977 0.1281 0.0
C1697 C 0.41738 0.58393 0.13403 0.0
C1698 C 0.43915 0.57199 0.11549 0.0
C1699 C 0.45757 0.59568 0.09112 0.0
C1700 C 0.45645 0.63263 0.08703 0.0
H1701 H 0.32738 0.36502 0.20676 0.0
H1702 H 0.40503 0.30893 0.24988 0.0
H1703 H 0.44988 0.35344 0.21899 0.0
H1704 H 0.35597 0.37868 0.12934 0.0
H1705 H 0.34587 0.42263 0.12019 0.0
H1706 H 0.32162 0.38995 0.14898 0.0
H1707 H 0.33655 0.43615 0.19218 0.0
H1708 H 0.36086 0.46942 0.16366 0.0
H1709 H 0.38113 0.45717 0.20204 0.0
H1710 H 0.48497 0.40355 0.1822 0.0
H1711 H 0.50625 0.44886 0.13689 0.0
H1712 H 0.40315 0.46682 0.11548 0.0
C1713 C 0.35379 0.36179 0.20929 0.0
C1714 C 0.363 0.33321 0.22957 0.0
C1715 C 0.3977 0.33014 0.23335 0.0
C1716 C 0.42319 0.3556 0.21649 0.0
C1717 C 0.41304 0.38343 0.19628 0.0
C1718 C 0.37902 0.38628 0.19242 0.0
C1719 C 0.37373 0.41611 0.16712 0.0
C1720 C 0.34779 0.40091 0.13979 0.0
C1721 C 0.36242 0.44651 0.18217 0.0
C1722 C 0.40995 0.42867 0.15603 0.0
C1723 C 0.43257 0.41059 0.17396 0.0
C1724 C 0.46748 0.41768 0.16792 0.0
C1725 C 0.47927 0.44317 0.14224 0.0
C1726 C 0.45588 0.46008 0.12271 0.0
C1727 C 0.42109 0.45336 0.12993 0.0
H1728 H 0.88602 0.60875 0.70242 0.0
H1729 H 0.87536 0.69936 0.63343 0.0
H1730 H 0.93003 0.69733 0.60977 0.0
H1731 H 0.98206 0.63548 0.71384 0.0
H1732 H 0.98559 0.58875 0.71756 0.0
H1733 H 0.9479 0.60027 0.73088 0.0
H1734 H 0.90845 0.55487 0.6939 0.0
H1735 H 0.94587 0.543 0.68083 0.0
H1736 H 0.91584 0.55886 0.65146 0.0
H1737 H 0.98004 0.67789 0.58821 0.0
H1738 H 1.02096 0.64352 0.57202 0.0
H1739 H 1.00241 0.57172 0.65996 0.0
C1740 C 0.89549 0.62828 0.68249 0.0
C1741 C 0.87665 0.65379 0.66919 0.0
C1742 C 0.88964 0.6794 0.6435 0.0
C1743 C 0.92066 0.67862 0.63019 0.0
C1744 C 0.93863 0.65274 0.64357 0.0
C1745 C 0.9267 0.62841 0.66953 0.0
C1746 C 0.94942 0.60186 0.67836 0.0
C1747 C 0.96731 0.60693 0.71216 0.0
C1748 C 0.92867 0.56236 0.67596 0.0
C1749 C 0.97496 0.61386 0.65226 0.0
C1750 C 0.96866 0.64331 0.63244 0.0
C1751 C 0.98594 0.65543 0.60402 0.0
C1752 C 1.00918 0.6359 0.59499 0.0
C1753 C 1.01468 0.60484 0.61451 0.0
C1754 C 0.99875 0.59528 0.6443 0.0
H1755 H 0.38828 0.82207 0.72256 0.0
H1756 H 0.30525 0.87515 0.6913 0.0
H1757 H 0.33901 0.90717 0.64532 0.0
H1758 H 0.45808 0.89765 0.70314 0.0
H1759 H 0.48583 0.8717 0.68941 0.0
H1760 H 0.45462 0.85097 0.71866 0.0
H1761 H 0.42657 0.79962 0.68183 0.0
H1762 H 0.45943 0.8193 0.65375 0.0
H1763 H 0.41432 0.81154 0.64045 0.0
H1764 H 0.38691 0.93857 0.60208 0.0
H1765 H 0.43754 0.96057 0.5687 0.0
H1766 H 0.49043 0.88583 0.62553 0.0
C1767 C 0.37618 0.83919 0.70601 0.0
C1768 C 0.34223 0.844 0.71171 0.0
C1769 C 0.33006 0.86922 0.68845 0.0
C1770 C 0.3496 0.88811 0.66187 0.0
C1771 C 0.38271 0.88273 0.6575 0.0
C1772 C 0.3957 0.8584 0.67903 0.0
C1773 C 0.43237 0.8579 0.66942 0.0
C1774 C 0.45932 0.87028 0.6968 0.0
C1775 C 0.43327 0.81982 0.66086 0.0
C1776 C 0.43829 0.8855 0.63931 0.0
C1777 C 0.40927 0.89978 0.63297 0.0
C1778 C 0.40922 0.92682 0.60719 0.0
C1779 C 0.43865 0.93938 0.58796 0.0
C1780 C 0.46906 0.92522 0.59306 0.0
C1781 C 0.4681 0.89736 0.61961 0.0
H1782 H 0.26185 0.38798 0.71351 0.0
H1783 H 0.18686 0.29654 0.75568 0.0
H1784 H 0.13974 0.31912 0.72475 0.0
H1785 H 0.21383 0.45516 0.70825 0.0
H1786 H 0.22563 0.47576 0.66859 0.0
H1787 H 0.25436 0.45261 0.69331 0.0
H1788 H 0.25479 0.41425 0.64722 0.0
H1789 H 0.22381 0.43367 0.62215 0.0
H1790 H 0.21519 0.38521 0.63214 0.0
H1791 H 0.10034 0.35478 0.69495 0.0
H1792 H 0.07044 0.39508 0.65915 0.0
H1793 H 0.16914 0.46029 0.62883 0.0
C1794 C 0.23561 0.37205 0.71519 0.0
C1795 C 0.22811 0.34 0.73676 0.0
C1796 C 0.19331 0.32063 0.73902 0.0
C1797 C 0.16631 0.33344 0.72167 0.0
C1798 C 0.17433 0.36516 0.70102 0.0
C1799 C 0.20815 0.38362 0.69664 0.0
C1800 C 0.20902 0.41639 0.67176 0.0
C1801 C 0.22674 0.45209 0.68638 0.0
C1802 C 0.22675 0.41203 0.64153 0.0
C1803 C 0.17051 0.41401 0.66393 0.0
C1804 C 0.15117 0.38438 0.68151 0.0
C1805 C 0.11519 0.37729 0.6802 0.0
C1806 C 0.0984 0.40029 0.65972 0.0
C1807 C 0.11727 0.42992 0.64023 0.0
C1808 C 0.15397 0.43708 0.64258 0.0
H1809 H 0.72506 0.17189 0.72674 0.0
H1810 H 0.72579 0.27772 0.67623 0.0
H1811 H 0.6926 0.24828 0.63014 0.0
H1812 H 0.73213 0.12518 0.65505 0.0
H1813 H 0.7028 0.08315 0.66791 0.0
H1814 H 0.72734 0.11184 0.6975 0.0
H1815 H 0.67094 0.11406 0.72287 0.0
H1816 H 0.64623 0.08521 0.6935 0.0
H1817 H 0.63689 0.12864 0.69777 0.0
H1818 H 0.6598 0.20794 0.58777 0.0
H1819 H 0.62633 0.16108 0.55442 0.0
H1820 H 0.6415 0.07732 0.62961 0.0
C1821 C 0.71851 0.18896 0.70591 0.0
C1822 C 0.72851 0.22798 0.70602 0.0
C1823 C 0.71852 0.24835 0.67784 0.0
C1824 C 0.69967 0.23162 0.65105 0.0
C1825 C 0.69013 0.19365 0.65179 0.0
C1826 C 0.69892 0.17237 0.67856 0.0
C1827 C 0.684 0.13191 0.67285 0.0
C1828 C 0.71332 0.11181 0.67338 0.0
C1829 C 0.65797 0.11387 0.69827 0.0
C1830 C 0.66575 0.13382 0.63878 0.0
C1831 C 0.67013 0.17003 0.62732 0.0
C1832 C 0.65628 0.17962 0.59677 0.0
C1833 C 0.63709 0.15227 0.5777 0.0
C1834 C 0.63063 0.11447 0.58834 0.0
C1835 C 0.64591 0.1054 0.61973 0.0
H1836 H 0.84815 0.29791 0.4117 0.0
H1837 H 0.86289 0.3691 0.32323 0.0
H1838 H 0.90632 0.4138 0.35159 0.0
H1839 H 0.85823 0.37817 0.46162 0.0
H1840 H 0.87839 0.35755 0.49646 0.0
H1841 H 0.84785 0.32947 0.47 0.0
H1842 H 0.89338 0.29321 0.46193 0.0
H1843 H 0.92388 0.32105 0.48846 0.0
H1844 H 0.93513 0.31705 0.44816 0.0
H1845 H 0.9479 0.45165 0.38732 0.0
H1846 H 0.98845 0.48092 0.42831 0.0
H1847 H 0.95199 0.3897 0.49869 0.0
C1848 C 0.8612 0.32254 0.39823 0.0
C1849 C 0.85343 0.32836 0.36408 0.0
C1850 C 0.86958 0.36238 0.34843 0.0
C1851 C 0.89411 0.38849 0.36461 0.0
C1852 C 0.90198 0.38169 0.3975 0.0
C1853 C 0.88591 0.34992 0.41457 0.0
C1854 C 0.89876 0.35171 0.45049 0.0
C1855 C 0.86905 0.35434 0.47087 0.0
C1856 C 0.9137 0.31878 0.46299 0.0
C1857 C 0.92685 0.38755 0.44994 0.0
C1858 C 0.9267 0.4046 0.41903 0.0
C1859 C 0.94846 0.43832 0.41151 0.0
C1860 C 0.97182 0.45482 0.43545 0.0
C1861 C 0.97493 0.43799 0.46739 0.0
C1862 C 0.95106 0.40378 0.47483 0.0
H1863 H 0.67439 0.84297 0.31536 0.0
H1864 H 0.77085 0.86458 0.37227 0.0
H1865 H 0.74415 0.89321 0.41071 0.0
H1866 H 0.65446 0.93159 0.3272 0.0
H1867 H 0.60828 0.91521 0.32833 0.0
H1868 H 0.63301 0.89222 0.30669 0.0
H1869 H 0.60852 0.83213 0.33986 0.0
H1870 H 0.58356 0.85493 0.36144 0.0
H1871 H 0.61272 0.83 0.38334 0.0
H1872 H 0.7044 0.92432 0.44656 0.0
H1873 H 0.66257 0.95099 0.47037 0.0
H1874 H 0.58796 0.91737 0.39194 0.0
C1875 C 0.68988 0.85189 0.33676 0.0
C1876 C 0.72554 0.84542 0.34107 0.0
C1877 C 0.74342 0.86303 0.36853 0.0
C1878 C 0.72809 0.88119 0.39071 0.0
C1879 C 0.69344 0.88545 0.38632 0.0
C1880 C 0.67448 0.87131 0.35946 0.0
C1881 C 0.63829 0.8822 0.35933 0.0
C1882 C 0.63317 0.90673 0.32854 0.0
C1883 C 0.60901 0.84776 0.36106 0.0
C1884 C 0.63932 0.90378 0.39018 0.0
C1885 C 0.6719 0.90517 0.40517 0.0
C1886 C 0.67937 0.92302 0.43402 0.0
C1887 C 0.65457 0.93893 0.44778 0.0
C1888 C 0.62025 0.93935 0.43426 0.0
C1889 C 0.61335 0.92033 0.40409 0.0
H1890 H 0.26405 0.74098 0.39667 0.0
H1891 H 0.18814 0.73452 0.31585 0.0
H1892 H 0.14487 0.69357 0.34975 0.0
H1893 H 0.23409 0.64366 0.429 0.0
H1894 H 0.24269 0.65395 0.47044 0.0
H1895 H 0.26794 0.68218 0.43945 0.0
H1896 H 0.25142 0.7382 0.45857 0.0
H1897 H 0.22515 0.70966 0.48875 0.0
H1898 H 0.20641 0.7389 0.45941 0.0
H1899 H 0.10845 0.65514 0.39216 0.0
H1900 H 0.08319 0.61439 0.438 0.0
H1901 H 0.18077 0.64074 0.49372 0.0
C1902 C 0.23845 0.73039 0.38604 0.0
C1903 C 0.22977 0.74104 0.35311 0.0
C1904 C 0.19575 0.72685 0.34058 0.0
C1905 C 0.17082 0.70355 0.35983 0.0
C1906 C 0.17987 0.694 0.39205 0.0
C1907 C 0.21305 0.70618 0.40504 0.0
C1908 C 0.21555 0.69051 0.44042 0.0
C1909 C 0.24165 0.66613 0.44508 0.0
C1910 C 0.22521 0.72115 0.46313 0.0
C1911 C 0.1786 0.66805 0.44518 0.0
C1912 C 0.15858 0.67108 0.41685 0.0
C1913 C 0.12386 0.65295 0.41452 0.0
C1914 C 0.10936 0.63031 0.44117 0.0
C1915 C 0.12894 0.62558 0.47052 0.0
C1916 C 0.16438 0.64487 0.47236 0.0
H1917 H 0.35043 0.20798 0.38193 0.0
H1918 H 0.37592 0.20206 0.28423 0.0
H1919 H 0.41774 0.16572 0.30494 0.0
H1920 H 0.44407 0.21485 0.41766 0.0
H1921 H 0.43096 0.18873 0.45499 0.0
H1922 H 0.40311 0.21518 0.43293 0.0
H1923 H 0.35385 0.15804 0.43201 0.0
H1924 H 0.38163 0.1313 0.45373 0.0
H1925 H 0.36038 0.11823 0.41556 0.0
H1926 H 0.45981 0.1215 0.33896 0.0
H1927 H 0.4939 0.08721 0.37758 0.0
H1928 H 0.44899 0.12246 0.45621 0.0
C1929 C 0.36554 0.20103 0.36438 0.0
C1930 C 0.35815 0.21177 0.32962 0.0
C1931 C 0.37927 0.19726 0.3102 0.0
C1932 C 0.40391 0.17541 0.3222 0.0
C1933 C 0.41018 0.16575 0.35555 0.0
C1934 C 0.39176 0.17908 0.37655 0.0
C1935 C 0.4042 0.16511 0.4116 0.0
C1936 C 0.42159 0.19791 0.43045 0.0
C1937 C 0.37316 0.1418 0.4293 0.0
C1938 C 0.43132 0.14149 0.40722 0.0
C1939 C 0.4342 0.14217 0.37434 0.0
C1940 C 0.45708 0.12179 0.36452 0.0
C1941 C 0.47701 0.10142 0.38737 0.0
C1942 C 0.47616 0.09974 0.42191 0.0
C1943 C 0.45193 0.12126 0.43082 0.0
H1944 H 0.68886 0.80801 0.71551 0.0
H1945 H 0.77442 0.90148 0.72624 0.0
H1946 H 0.74259 0.93976 0.69184 0.0
H1947 H 0.67223 0.83894 0.62588 0.0
H1948 H 0.62596 0.82272 0.62575 0.0
H1949 H 0.65344 0.79983 0.65234 0.0
H1950 H 0.62226 0.80777 0.70139 0.0
H1951 H 0.59394 0.83032 0.67538 0.0
H1952 H 0.61829 0.85251 0.70887 0.0
H1953 H 0.69832 0.97255 0.66231 0.0
H1954 H 0.65298 0.99282 0.62593 0.0
H1955 H 0.59818 0.88041 0.62113 0.0
C1956 C 0.70169 0.8361 0.70956 0.0
C1957 C 0.73562 0.85068 0.72439 0.0
C1958 C 0.74951 0.88836 0.71572 0.0
C1959 C 0.73114 0.91102 0.69618 0.0
C1960 C 0.69815 0.89654 0.68308 0.0
C1961 C 0.68403 0.85954 0.68787 0.0
C1962 C 0.64895 0.85165 0.66779 0.0
C1963 C 0.65025 0.8268 0.64135 0.0
C1964 C 0.61909 0.83454 0.68968 0.0
C1965 C 0.64555 0.88982 0.65247 0.0
C1966 C 0.67405 0.9153 0.66256 0.0
C1967 C 0.67632 0.95252 0.65368 0.0
C1968 C 0.64999 0.96405 0.63304 0.0
C1969 C 0.62128 0.9389 0.62003 0.0
C1970 C 0.61938 0.90093 0.63035 0.0
H1971 H 0.68584 0.2027 0.32271 0.0
H1972 H 0.7834 0.23056 0.37781 0.0
H1973 H 0.756 0.19492 0.42616 0.0
H1974 H 0.63572 0.21577 0.39076 0.0
H1975 H 0.59857 0.17961 0.38277 0.0
H1976 H 0.62172 0.20518 0.34994 0.0
H1977 H 0.63571 0.15243 0.32647 0.0
H1978 H 0.60921 0.12276 0.3556 0.0
H1979 H 0.65318 0.11926 0.35245 0.0
H1980 H 0.717 0.14942 0.46663 0.0
H1981 H 0.66921 0.10785 0.49654 0.0
H1982 H 0.59767 0.11958 0.41476 0.0
C1983 C 0.70088 0.20381 0.34534 0.0
C1984 C 0.73613 0.22099 0.34697 0.0
C1985 C 0.75588 0.21862 0.37655 0.0
C1986 C 0.7406 0.19832 0.40398 0.0
C1987 C 0.70535 0.18196 0.40151 0.0
C1988 C 0.68556 0.186 0.37317 0.0
C1989 C 0.64825 0.16645 0.37641 0.0
C1990 C 0.62478 0.19346 0.37497 0.0
C1991 C 0.63591 0.13855 0.35126 0.0
C1992 C 0.65049 0.14838 0.40993 0.0
C1993 C 0.68338 0.15756 0.42448 0.0
C1994 C 0.69106 0.14282 0.45556 0.0
C1995 C 0.66403 0.11917 0.47223 0.0
C1996 C 0.63018 0.11112 0.45761 0.0
C1997 C 0.6235 0.12566 0.42622 0.0
H1998 H 0.84759 0.60139 0.45191 0.0
H1999 H 0.90255 0.68248 0.38204 0.0
H2000 H 0.95606 0.68699 0.41649 0.0
H2001 H 0.90304 0.62607 0.52858 0.0
H2002 H 0.90083 0.5785 0.54005 0.0
H2003 H 0.86472 0.5925 0.5179 0.0
H2004 H 0.8664 0.54939 0.47364 0.0
H2005 H 0.90171 0.53503 0.49591 0.0
H2006 H 0.90635 0.55366 0.45454 0.0
H2007 H 1.00418 0.66989 0.4469 0.0
H2008 H 0.04193 0.62836 0.46625 0.0
H2009 H 0.95808 0.55677 0.51668 0.0
C2010 C 0.87079 0.62076 0.44445 0.0
C2011 C 0.87122 0.64159 0.41479 0.0
C2012 C 0.90179 0.66662 0.40522 0.0
C2013 C 0.93217 0.66965 0.42479 0.0
C2014 C 0.93138 0.64728 0.45352 0.0
C2015 C 0.90137 0.62305 0.46314 0.0
C2016 C 0.90852 0.59462 0.48886 0.0
C2017 C 0.8934 0.59819 0.52076 0.0
C2018 C 0.89498 0.55598 0.47754 0.0
C2019 C 0.94735 0.60518 0.49103 0.0
C2020 C 0.96017 0.63635 0.47122 0.0
C2021 C 0.99457 0.64607 0.46304 0.0
C2022 C 1.01558 0.62201 0.47335 0.0
C2023 C 1.00182 0.58909 0.4915 0.0
C2024 C 0.96855 0.58202 0.50259 0.0
H2025 H 0.38493 0.84414 0.34593 0.0
H2026 H 0.29469 0.87337 0.37712 0.0
H2027 H 0.33128 0.90567 0.42125 0.0
H2028 H 0.41716 0.81999 0.42423 0.0
H2029 H 0.4621 0.83631 0.41582 0.0
H2030 H 0.43106 0.81986 0.38406 0.0
H2031 H 0.44751 0.87975 0.34819 0.0
H2032 H 0.48055 0.89654 0.37837 0.0
H2033 H 0.44864 0.9222 0.36447 0.0
H2034 H 0.37962 0.93487 0.46124 0.0
H2035 H 0.43423 0.95753 0.49344 0.0
H2036 H 0.48756 0.89832 0.43916 0.0
C2037 C 0.37262 0.85659 0.36248 0.0
C2038 C 0.33711 0.85553 0.35915 0.0
C2039 C 0.32208 0.87398 0.37976 0.0
C2040 C 0.34252 0.89197 0.40484 0.0
C2041 C 0.37734 0.89049 0.4086 0.0
C2042 C 0.39205 0.87308 0.3879 0.0
C2043 C 0.42938 0.87372 0.39719 0.0
C2044 C 0.4352 0.83515 0.40586 0.0
C2045 C 0.45289 0.89431 0.37048 0.0
C2046 C 0.43375 0.8944 0.42649 0.0
C2047 C 0.40379 0.90445 0.43262 0.0
C2048 C 0.40295 0.9265 0.45708 0.0
C2049 C 0.43381 0.93903 0.47523 0.0
C2050 C 0.46432 0.92854 0.46902 0.0
C2051 C 0.46409 0.90545 0.44496 0.0
H2052 H 0.2005 0.36696 0.42006 0.0
H2053 H 0.22076 0.46982 0.36197 0.0
H2054 H 0.17577 0.48853 0.38817 0.0
H2055 H 0.1016 0.37576 0.445 0.0
H2056 H 0.11158 0.35432 0.48401 0.0
H2057 H 0.12166 0.33752 0.44793 0.0
H2058 H 0.18446 0.34434 0.47217 0.0
H2059 H 0.17545 0.3641 0.50676 0.0
H2060 H 0.20933 0.38876 0.48149 0.0
H2061 H 0.1823 0.5104 0.44111 0.0
H2062 H 0.17219 0.52084 0.49661 0.0
H2063 H 0.14002 0.40633 0.5217 0.0
C2064 C 0.19308 0.39211 0.41143 0.0
C2065 C 0.21428 0.41811 0.39085 0.0
C2066 C 0.20503 0.4506 0.37891 0.0
C2067 C 0.17938 0.4611 0.3934 0.0
C2068 C 0.16491 0.43888 0.41975 0.0
C2069 C 0.16812 0.40307 0.42683 0.0
C2070 C 0.15677 0.38826 0.46053 0.0
C2071 C 0.12075 0.36247 0.45925 0.0
C2072 C 0.18313 0.37035 0.48138 0.0
C2073 C 0.1552 0.42312 0.47313 0.0
C2074 C 0.16137 0.45208 0.44965 0.0
C2075 C 0.17231 0.48774 0.45833 0.0
C2076 C 0.16859 0.49315 0.49035 0.0
C2077 C 0.14743 0.4641 0.50864 0.0
C2078 C 0.14989 0.42899 0.50441 0.0
H2079 H 0.40627 0.19911 0.62466 0.0
H2080 H 0.44283 0.18325 0.7244 0.0
H2081 H 0.46466 0.13046 0.71168 0.0
H2082 H 0.38061 0.10027 0.6097 0.0
H2083 H 0.39461 0.11015 0.56903 0.0
H2084 H 0.37785 0.14288 0.58741 0.0
H2085 H 0.43393 0.19172 0.57565 0.0
H2086 H 0.45078 0.15923 0.55734 0.0
H2087 H 0.47514 0.18261 0.59022 0.0
H2088 H 0.49204 0.08731 0.68514 0.0
H2089 H 0.51935 0.05674 0.64797 0.0
H2090 H 0.45807 0.09661 0.56768 0.0
C2091 C 0.41819 0.18388 0.64386 0.0
C2092 C 0.42319 0.19492 0.67535 0.0
C2093 C 0.43892 0.17483 0.70009 0.0
C2094 C 0.4512 0.14485 0.6931 0.0
C2095 C 0.44664 0.13497 0.66147 0.0
C2096 C 0.42984 0.15355 0.63742 0.0
C2097 C 0.43038 0.13958 0.60497 0.0
C2098 C 0.39367 0.12217 0.59204 0.0
C2099 C 0.44866 0.17008 0.58065 0.0
C2100 C 0.45141 0.11135 0.61419 0.0
C2101 C 0.46063 0.10882 0.6468 0.0
C2102 C 0.48417 0.08821 0.65969 0.0
C2103 C 0.49951 0.07082 0.63847 0.0
C2104 C 0.49104 0.07424 0.60489 0.0
C2105 C 0.46531 0.09326 0.5932 0.0
H2106 H 0.85008 0.38946 0.72833 0.0
H2107 H 0.83726 0.27544 0.71659 0.0
H2108 H 0.87643 0.29173 0.67141 0.0
H2109 H 0.85481 0.42154 0.63941 0.0
H2110 H 0.8851 0.46285 0.64925 0.0
H2111 H 0.85152 0.44149 0.67605 0.0
H2112 H 0.89762 0.44009 0.72301 0.0
H2113 H 0.93153 0.46043 0.69664 0.0
H2114 H 0.932 0.41746 0.71934 0.0
H2115 H 0.92659 0.32192 0.63537 0.0
H2116 H 0.9774 0.36244 0.60941 0.0
H2117 H 0.94992 0.45563 0.64333 0.0
C2118 C 0.85351 0.36784 0.71559 0.0
C2119 C 0.84039 0.33135 0.72616 0.0
C2120 C 0.84724 0.3038 0.70891 0.0
C2121 C 0.86924 0.31281 0.6831 0.0
C2122 C 0.88287 0.34952 0.6742 0.0
C2123 C 0.87416 0.37653 0.68939 0.0
C2124 C 0.89408 0.41388 0.67783 0.0
C2125 C 0.86993 0.43624 0.65952 0.0
C2126 C 0.91504 0.43407 0.70586 0.0
C2127 C 0.91717 0.40365 0.65531 0.0
C2128 C 0.91035 0.36658 0.653 0.0
C2129 C 0.93143 0.35108 0.6362 0.0
C2130 C 0.96022 0.37418 0.62163 0.0
C2131 C 0.96757 0.41207 0.62448 0.0
C2132 C 0.9451 0.42674 0.64077 0.0
H2133 H 0.23837 0.68481 0.72327 0.0
H2134 H 0.20015 0.77762 0.67995 0.0
H2135 H 0.16728 0.73924 0.63764 0.0
H2136 H 0.25318 0.65628 0.64384 0.0
H2137 H 0.24425 0.60901 0.65892 0.0
H2138 H 0.26443 0.64346 0.6854 0.0
H2139 H 0.21686 0.62042 0.72582 0.0
H2140 H 0.19661 0.58502 0.70065 0.0
H2141 H 0.17212 0.61574 0.71192 0.0
H2142 H 0.13879 0.68879 0.60121 0.0
H2143 H 0.11175 0.63056 0.57859 0.0
H2144 H 0.17441 0.57484 0.6459 0.0
C2145 C 0.22502 0.6981 0.70389 0.0
C2146 C 0.22359 0.73477 0.70363 0.0
C2147 C 0.20235 0.74974 0.67988 0.0
C2148 C 0.18404 0.72832 0.65571 0.0
C2149 C 0.18837 0.69279 0.6556 0.0
C2150 C 0.2086 0.6781 0.67915 0.0
C2151 C 0.20908 0.63938 0.67482 0.0
C2152 C 0.24486 0.63691 0.66515 0.0
C2153 C 0.19794 0.61368 0.70509 0.0
C2154 C 0.18295 0.63288 0.64696 0.0
C2155 C 0.17226 0.66428 0.63523 0.0
C2156 C 0.14729 0.6643 0.61002 0.0
C2157 C 0.13209 0.63115 0.59743 0.0
C2158 C 0.14122 0.59864 0.61095 0.0
C2159 C 0.16754 0.59961 0.63521 0.0
loop_
_geom_bond_atom_site_label_1
_geom_bond_atom_site_label_2
_geom_bond_distance
_geom_bond_site_symmetry_2
_ccdc_geom_bond_type
Gd0 N31 2.661 . S
Gd0 N37 2.601 . S
Gd0 O44 2.545 . S
Gd0 O45 2.606 . S
Gd0 O47 2.429 . S
Gd0 O48 2.545 . S
Gd0 O49 2.412 . S
Gd0 O51 2.362 . S
Gd0 O52 2.324 . S
Gd0 C59 2.828 . S
Gd1 N10 2.661 . S
Gd1 N14 2.601 . S
Gd1 O45 2.362 . S
Gd1 O46 2.324 . S
Gd1 O50 2.545 . S
Gd1 O51 2.606 . S
Gd1 O53 2.429 . S
Gd1 O54 2.545 . S
Gd1 O55 2.412 . S
Gd1 C68 2.828 . S
C2 C5 1.417 . S
C2 C7 1.431 . S
C2 C8 1.412 . S
C3 C6 1.437 . S
C3 C7 1.317 . S
C3 H22 0.929 . S
C4 C5 1.426 . S
C4 C6 1.413 . S
C4 N14 1.359 . S
C5 C2 1.417 . S
C5 C4 1.426 . S
C5 N10 1.350 . S
C6 C3 1.437 . S
C6 C4 1.413 . S
C6 C16 1.391 . S
C7 C2 1.431 . S
C7 C3 1.317 . S
C7 H18 0.930 . S
C8 C2 1.412 . S
C8 C9 1.355 . S
C8 H20 0.930 . S
C9 C8 1.355 . S
C9 C11 1.402 . S
C9 H21 0.930 . S
N10 Gd1 2.661 . S
N10 C5 1.350 . S
N10 C11 1.307 . S
C11 C9 1.402 . S
C11 N10 1.307 . S
C11 H12 0.930 . S
H12 C11 0.930 . S
C13 N14 1.334 . S
C13 C15 1.394 . S
C13 H17 0.930 . S
N14 Gd1 2.601 . S
N14 C4 1.359 . S
N14 C13 1.334 . S
C15 C13 1.394 . S
C15 C16 1.359 . S
C15 H27 0.930 . S
C16 C6 1.391 . S
C16 C15 1.359 . S
C16 H28 0.929 . S
H17 C13 0.930 . S
H18 C7 0.930 . S
H19 C36 0.930 . S
H20 C8 0.930 . S
H21 C9 0.930 . S
H22 C3 0.929 . S
H23 C41 0.930 . S
H24 C32 0.930 . S
H25 C33 0.930 . S
H26 C57 0.929 . S
H27 C15 0.930 . S
H28 C16 0.929 . S
H29 C58 0.930 . S
H30 C39 0.930 . S
N31 Gd0 2.661 . S
N31 C35 1.350 . S
N31 C36 1.307 . S
C32 H24 0.930 . S
C32 C33 1.355 . S
C32 C34 1.412 . S
C33 H25 0.930 . S
C33 C32 1.355 . S
C33 C36 1.402 . S
C34 C32 1.412 . S
C34 C35 1.417 . S
C34 C58 1.431 . S
C35 N31 1.350 . S
C35 C34 1.417 . S
C35 C38 1.426 . S
C36 H19 0.930 . S
C36 N31 1.307 . S
C36 C33 1.402 . S
N37 Gd0 2.601 . S
N37 C38 1.359 . S
N37 C41 1.334 . S
C38 C35 1.426 . S
C38 N37 1.359 . S
C38 C42 1.413 . S
C39 H30 0.930 . S
C39 C40 1.359 . S
C39 C41 1.394 . S
C40 C39 1.359 . S
C40 C42 1.391 . S
C40 H43 0.929 . S
C41 H23 0.930 . S
C41 N37 1.334 . S
C41 C39 1.394 . S
C42 C38 1.413 . S
C42 C40 1.391 . S
C42 C57 1.437 . S
H43 C40 0.929 . S
O44 Gd0 2.545 . S
O44 C59 1.258 . S
O45 Gd0 2.606 . S
O45 Gd1 2.362 . S
O45 C56 1.284 . S
O46 Gd1 2.324 . S
O46 C66 1.254 . S
O47 Gd0 2.429 . S
O47 C66 1.268 . S
O48 Gd0 2.545 . S
O48 C56 1.250 . S
O49 Gd0 2.412 . S
O49 C59 1.252 . S
O50 Gd1 2.545 . S
O50 C68 1.258 . S
O51 Gd0 2.362 . S
O51 Gd1 2.606 . S
O51 C67 1.284 . S
O52 Gd0 2.324 . S
O52 C75 1.254 . S
O53 Gd1 2.429 . S
O53 C75 1.268 . S
O54 Gd1 2.545 . S
O54 C67 1.250 . S
O55 Gd1 2.412 . S
O55 C68 1.252 . S
C56 O45 1.284 . S
C56 O48 1.250 . S
C57 H26 0.929 . S
C57 C42 1.437 . S
C57 C58 1.317 . S
C58 H29 0.930 . S
C58 C34 1.431 . S
C58 C57 1.317 . S
C59 Gd0 2.828 . S
C59 O44 1.258 . S
C59 O49 1.252 . S
C59 C60 1.497 . S
C60 C59 1.497 . S
C60 C61 1.395 . S
C60 C62 1.380 . S
C61 C60 1.395 . S
C61 C64 1.398 . S
C61 H76 0.930 . S
C62 C60 1.380 . S
C62 C63 1.391 . S
C62 H77 0.930 . S
C63 C62 1.391 . S
C63 C65 1.387 . S
C64 C61 1.398 . S
C64 C65 1.380 . S
C64 H78 0.930 . S
C65 C63 1.387 . S
C65 C64 1.380 . S
C65 H79 0.930 . S
C66 O46 1.254 . S
C66 O47 1.268 . S
C67 O51 1.284 . S
C67 O54 1.250 . S
C68 Gd1 2.828 . S
C68 O50 1.258 . S
C68 O55 1.252 . S
C68 C69 1.497 . S
C69 C68 1.497 . S
C69 C70 1.395 . S
C69 C71 1.380 . S
C70 C69 1.395 . S
C70 C73 1.398 . S
C70 H80 0.930 . S
C71 C69 1.380 . S
C71 C72 1.391 . S
C71 H81 0.930 . S
C72 C71 1.391 . S
C72 C74 1.387 . S
C73 C70 1.398 . S
C73 C74 1.380 . S
C73 H82 0.930 . S
C74 C72 1.387 . S
C74 C73 1.380 . S
C74 H83 0.930 . S
C75 O52 1.254 . S
C75 O53 1.268 . S
H76 C61 0.930 . S
H77 C62 0.930 . S
H78 C64 0.930 . S
H79 C65 0.930 . S
H80 C70 0.930 . S
H81 C71 0.930 . S
H82 C73 0.930 . S
H83 C74 0.930 . S
Gd84 N115 2.661 . S
Gd84 N121 2.601 . S
Gd84 O128 2.545 . S
Gd84 O129 2.606 . S
Gd84 O131 2.429 . S
Gd84 O132 2.545 . S
Gd84 O133 2.412 . S
Gd84 O135 2.362 . S
Gd84 O136 2.324 . S
Gd84 C143 2.828 . S
Gd85 N94 2.661 . S
Gd85 N98 2.601 . S
Gd85 O129 2.362 . S
Gd85 O130 2.324 . S
Gd85 O134 2.545 . S
Gd85 O135 2.606 . S
Gd85 O137 2.429 . S
Gd85 O138 2.545 . S
Gd85 O139 2.412 . S
Gd85 C152 2.828 . S
C86 C89 1.417 . S
C86 C91 1.431 . S
C86 C92 1.412 . S
C87 C90 1.437 . S
C87 C91 1.317 . S
C87 H106 0.929 . S
C88 C89 1.426 . S
C88 C90 1.413 . S
C88 N98 1.359 . S
C89 C86 1.417 . S
C89 C88 1.426 . S
C89 N94 1.350 . S
C90 C87 1.437 . S
C90 C88 1.413 . S
C90 C100 1.391 . S
C91 C86 1.431 . S
C91 C87 1.317 . S
C91 H102 0.930 . S
C92 C86 1.412 . S
C92 C93 1.355 . S
C92 H104 0.930 . S
C93 C92 1.355 . S
C93 C95 1.402 . S
C93 H105 0.930 . S
N94 Gd85 2.661 . S
N94 C89 1.350 . S
N94 C95 1.307 . S
C95 C93 1.402 . S
C95 N94 1.307 . S
C95 H96 0.930 . S
H96 C95 0.930 . S
C97 N98 1.334 . S
C97 C99 1.394 . S
C97 H101 0.930 . S
N98 Gd85 2.601 . S
N98 C88 1.359 . S
N98 C97 1.334 . S
C99 C97 1.394 . S
C99 C100 1.359 . S
C99 H111 0.930 . S
C100 C90 1.391 . S
C100 C99 1.359 . S
C100 H112 0.929 . S
H101 C97 0.930 . S
H102 C91 0.930 . S
H103 C120 0.930 . S
H104 C92 0.930 . S
H105 C93 0.930 . S
H106 C87 0.929 . S
H107 C125 0.930 . S
H108 C116 0.930 . S
H109 C117 0.930 . S
H110 C141 0.929 . S
H111 C99 0.930 . S
H112 C100 0.929 . S
H113 C142 0.930 . S
H114 C123 0.930 . S
N115 Gd84 2.661 . S
N115 C119 1.350 . S
N115 C120 1.307 . S
C116 H108 0.930 . S
C116 C117 1.355 . S
C116 C118 1.412 . S
C117 H109 0.930 . S
C117 C116 1.355 . S
C117 C120 1.402 . S
C118 C116 1.412 . S
C118 C119 1.417 . S
C118 C142 1.431 . S
C119 N115 1.350 . S
C119 C118 1.417 . S
C119 C122 1.426 . S
C120 H103 0.930 . S
C120 N115 1.307 . S
C120 C117 1.402 . S
N121 Gd84 2.601 . S
N121 C122 1.359 . S
N121 C125 1.334 . S
C122 C119 1.426 . S
C122 N121 1.359 . S
C122 C126 1.413 . S
C123 H114 0.930 . S
C123 C124 1.359 . S
C123 C125 1.394 . S
C124 C123 1.359 . S
C124 C126 1.391 . S
C124 H127 0.929 . S
C125 H107 0.930 . S
C125 N121 1.334 . S
C125 C123 1.394 . S
C126 C122 1.413 . S
C126 C124 1.391 . S
C126 C141 1.437 . S
H127 C124 0.929 . S
O128 Gd84 2.545 . S
O128 C143 1.258 . S
O129 Gd84 2.606 . S
O129 Gd85 2.362 . S
O129 C140 1.284 . S
O130 Gd85 2.324 . S
O130 C150 1.254 . S
O131 Gd84 2.429 . S
O131 C150 1.268 . S
O132 Gd84 2.545 . S
O132 C140 1.250 . S
O133 Gd84 2.412 . S
O133 C143 1.252 . S
O134 Gd85 2.545 . S
O134 C152 1.258 . S
O135 Gd84 2.362 . S
O135 Gd85 2.606 . S
O135 C151 1.284 . S
O136 Gd84 2.324 . S
O136 C159 1.254 . S
O137 Gd85 2.429 . S
O137 C159 1.268 . S
O138 Gd85 2.545 . S
O138 C151 1.250 . S
O139 Gd85 2.412 . S
O139 C152 1.252 . S
C140 O129 1.284 . S
C140 O132 1.250 . S
C141 H110 0.929 . S
C141 C126 1.437 . S
C141 C142 1.317 . S
C142 H113 0.930 . S
C142 C118 1.431 . S
C142 C141 1.317 . S
C143 Gd84 2.828 . S
C143 O128 1.258 . S
C143 O133 1.252 . S
C143 C144 1.497 . S
C144 C143 1.497 . S
C144 C145 1.395 . S
C144 C146 1.380 . S
C145 C144 1.395 . S
C145 C148 1.398 . S
C145 H160 0.930 . S
C146 C144 1.380 . S
C146 C147 1.391 . S
C146 H161 0.930 . S
C147 C146 1.391 . S
C147 C149 1.387 . S
C148 C145 1.398 . S
C148 C149 1.380 . S
C148 H162 0.930 . S
C149 C147 1.387 . S
C149 C148 1.380 . S
C149 H163 0.930 . S
C150 O130 1.254 . S
C150 O131 1.268 . S
C151 O135 1.284 . S
C151 O138 1.250 . S
C152 Gd85 2.828 . S
C152 O134 1.258 . S
C152 O139 1.252 . S
C152 C153 1.497 . S
C153 C152 1.497 . S
C153 C154 1.395 . S
C153 C155 1.380 . S
C154 C153 1.395 . S
C154 C157 1.398 . S
C154 H164 0.930 . S
C155 C153 1.380 . S
C155 C156 1.391 . S
C155 H165 0.930 . S
C156 C155 1.391 . S
C156 C158 1.387 . S
C157 C154 1.398 . S
C157 C158 1.380 . S
C157 H166 0.930 . S
C158 C156 1.387 . S
C158 C157 1.380 . S
C158 H167 0.930 . S
C159 O136 1.254 . S
C159 O137 1.268 . S
H160 C145 0.930 . S
H161 C146 0.930 . S
H162 C148 0.930 . S
H163 C149 0.930 . S
H164 C154 0.930 . S
H165 C155 0.930 . S
H166 C157 0.930 . S
H167 C158 0.930 . S
Gd168 N199 2.661 . S
Gd168 N205 2.601 . S
Gd168 O212 2.545 . S
Gd168 O213 2.606 . S
Gd168 O215 2.429 . S
Gd168 O216 2.545 . S
Gd168 O217 2.412 . S
Gd168 O219 2.362 . S
Gd168 O220 2.324 . S
Gd168 C227 2.828 . S
Gd169 N178 2.661 . S
Gd169 N182 2.601 . S
Gd169 O213 2.362 . S
Gd169 O214 2.324 . S
Gd169 O218 2.545 . S
Gd169 O219 2.606 . S
Gd169 O221 2.429 . S
Gd169 O222 2.545 . S
Gd169 O223 2.412 . S
Gd169 C236 2.828 . S
C170 C173 1.417 . S
C170 C175 1.431 . S
C170 C176 1.412 . S
C171 C174 1.437 . S
C171 C175 1.317 . S
C171 H190 0.929 . S
C172 C173 1.426 . S
C172 C174 1.413 . S
C172 N182 1.359 . S
C173 C170 1.417 . S
C173 C172 1.426 . S
C173 N178 1.350 . S
C174 C171 1.437 . S
C174 C172 1.413 . S
C174 C184 1.391 . S
C175 C170 1.431 . S
C175 C171 1.317 . S
C175 H186 0.930 . S
C176 C170 1.412 . S
C176 C177 1.355 . S
C176 H188 0.930 . S
C177 C176 1.355 . S
C177 C179 1.402 . S
C177 H189 0.930 . S
N178 Gd169 2.661 . S
N178 C173 1.350 . S
N178 C179 1.307 . S
C179 C177 1.402 . S
C179 N178 1.307 . S
C179 H180 0.930 . S
H180 C179 0.930 . S
C181 N182 1.334 . S
C181 C183 1.394 . S
C181 H185 0.930 . S
N182 Gd169 2.601 . S
N182 C172 1.359 . S
N182 C181 1.334 . S
C183 C181 1.394 . S
C183 C184 1.359 . S
C183 H195 0.930 . S
C184 C174 1.391 . S
C184 C183 1.359 . S
C184 H196 0.929 . S
H185 C181 0.930 . S
H186 C175 0.930 . S
H187 C204 0.930 . S
H188 C176 0.930 . S
H189 C177 0.930 . S
H190 C171 0.929 . S
H191 C209 0.930 . S
H192 C200 0.930 . S
H193 C201 0.930 . S
H194 C225 0.929 . S
H195 C183 0.930 . S
H196 C184 0.929 . S
H197 C226 0.930 . S
H198 C207 0.930 . S
N199 Gd168 2.661 . S
N199 C203 1.350 . S
N199 C204 1.307 . S
C200 H192 0.930 . S
C200 C201 1.355 . S
C200 C202 1.412 . S
C201 H193 0.930 . S
C201 C200 1.355 . S
C201 C204 1.402 . S
C202 C200 1.412 . S
C202 C203 1.417 . S
C202 C226 1.431 . S
C203 N199 1.350 . S
C203 C202 1.417 . S
C203 C206 1.426 . S
C204 H187 0.930 . S
C204 N199 1.307 . S
C204 C201 1.402 . S
N205 Gd168 2.601 . S
N205 C206 1.359 . S
N205 C209 1.334 . S
C206 C203 1.426 . S
C206 N205 1.359 . S
C206 C210 1.413 . S
C207 H198 0.930 . S
C207 C208 1.359 . S
C207 C209 1.394 . S
C208 C207 1.359 . S
C208 C210 1.391 . S
C208 H211 0.929 . S
C209 H191 0.930 . S
C209 N205 1.334 . S
C209 C207 1.394 . S
C210 C206 1.413 . S
C210 C208 1.391 . S
C210 C225 1.437 . S
H211 C208 0.929 . S
O212 Gd168 2.545 . S
O212 C227 1.258 . S
O213 Gd168 2.606 . S
O213 Gd169 2.362 . S
O213 C224 1.284 . S
O214 Gd169 2.324 . S
O214 C234 1.254 . S
O215 Gd168 2.429 . S
O215 C234 1.268 . S
O216 Gd168 2.545 . S
O216 C224 1.250 . S
O217 Gd168 2.412 . S
O217 C227 1.252 . S
O218 Gd169 2.545 . S
O218 C236 1.258 . S
O219 Gd168 2.362 . S
O219 Gd169 2.606 . S
O219 C235 1.284 . S
O220 Gd168 2.324 . S
O220 C243 1.254 . S
O221 Gd169 2.429 . S
O221 C243 1.268 . S
O222 Gd169 2.545 . S
O222 C235 1.250 . S
O223 Gd169 2.412 . S
O223 C236 1.252 . S
C224 O213 1.284 . S
C224 O216 1.250 . S
C225 H194 0.929 . S
C225 C210 1.437 . S
C225 C226 1.317 . S
C226 H197 0.930 . S
C226 C202 1.431 . S
C226 C225 1.317 . S
C227 Gd168 2.828 . S
C227 O212 1.258 . S
C227 O217 1.252 . S
C227 C228 1.497 . S
C228 C227 1.497 . S
C228 C229 1.395 . S
C228 C230 1.380 . S
C229 C228 1.395 . S
C229 C232 1.398 . S
C229 H244 0.930 . S
C230 C228 1.380 . S
C230 C231 1.391 . S
C230 H245 0.930 . S
C231 C230 1.391 . S
C231 C233 1.387 . S
C232 C229 1.398 . S
C232 C233 1.380 . S
C232 H246 0.930 . S
C233 C231 1.387 . S
C233 C232 1.380 . S
C233 H247 0.930 . S
C234 O214 1.254 . S
C234 O215 1.268 . S
C235 O219 1.284 . S
C235 O222 1.250 . S
C236 Gd169 2.828 . S
C236 O218 1.258 . S
C236 O223 1.252 . S
C236 C237 1.497 . S
C237 C236 1.497 . S
C237 C238 1.395 . S
C237 C239 1.380 . S
C238 C237 1.395 . S
C238 C241 1.398 . S
C238 H248 0.930 . S
C239 C237 1.380 . S
C239 C240 1.391 . S
C239 H249 0.930 . S
C240 C239 1.391 . S
C240 C242 1.387 . S
C241 C238 1.398 . S
C241 C242 1.380 . S
C241 H250 0.930 . S
C242 C240 1.387 . S
C242 C241 1.380 . S
C242 H251 0.930 . S
C243 O220 1.254 . S
C243 O221 1.268 . S
H244 C229 0.930 . S
H245 C230 0.930 . S
H246 C232 0.930 . S
H247 C233 0.930 . S
H248 C238 0.930 . S
H249 C239 0.930 . S
H250 C241 0.930 . S
H251 C242 0.930 . S
Gd252 N283 2.661 . S
Gd252 N289 2.601 . S
Gd252 O296 2.545 . S
Gd252 O297 2.606 . S
Gd252 O299 2.429 . S
Gd252 O300 2.545 . S
Gd252 O301 2.412 . S
Gd252 O303 2.362 . S
Gd252 O304 2.324 . S
Gd252 C311 2.828 . S
Gd253 N262 2.661 . S
Gd253 N266 2.601 . S
Gd253 O297 2.362 . S
Gd253 O298 2.324 . S
Gd253 O302 2.545 . S
Gd253 O303 2.606 . S
Gd253 O305 2.429 . S
Gd253 O306 2.545 . S
Gd253 O307 2.412 . S
Gd253 C320 2.828 . S
C254 C257 1.417 . S
C254 C259 1.431 . S
C254 C260 1.412 . S
C255 C258 1.437 . S
C255 C259 1.317 . S
C255 H274 0.929 . S
C256 C257 1.426 . S
C256 C258 1.413 . S
C256 N266 1.359 . S
C257 C254 1.417 . S
C257 C256 1.426 . S
C257 N262 1.350 . S
C258 C255 1.437 . S
C258 C256 1.413 . S
C258 C268 1.391 . S
C259 C254 1.431 . S
C259 C255 1.317 . S
C259 H270 0.930 . S
C260 C254 1.412 . S
C260 C261 1.355 . S
C260 H272 0.930 . S
C261 C260 1.355 . S
C261 C263 1.402 . S
C261 H273 0.930 . S
N262 Gd253 2.661 . S
N262 C257 1.350 . S
N262 C263 1.307 . S
C263 C261 1.402 . S
C263 N262 1.307 . S
C263 H264 0.930 . S
H264 C263 0.930 . S
C265 N266 1.334 . S
C265 C267 1.394 . S
C265 H269 0.930 . S
N266 Gd253 2.601 . S
N266 C256 1.359 . S
N266 C265 1.334 . S
C267 C265 1.394 . S
C267 C268 1.359 . S
C267 H279 0.930 . S
C268 C258 1.391 . S
C268 C267 1.359 . S
C268 H280 0.929 . S
H269 C265 0.930 . S
H270 C259 0.930 . S
H271 C288 0.930 . S
H272 C260 0.930 . S
H273 C261 0.930 . S
H274 C255 0.929 . S
H275 C293 0.930 . S
H276 C284 0.930 . S
H277 C285 0.930 . S
H278 C309 0.929 . S
H279 C267 0.930 . S
H280 C268 0.929 . S
H281 C310 0.930 . S
H282 C291 0.930 . S
N283 Gd252 2.661 . S
N283 C287 1.350 . S
N283 C288 1.307 . S
C284 H276 0.930 . S
C284 C285 1.355 . S
C284 C286 1.412 . S
C285 H277 0.930 . S
C285 C284 1.355 . S
C285 C288 1.402 . S
C286 C284 1.412 . S
C286 C287 1.417 . S
C286 C310 1.431 . S
C287 N283 1.350 . S
C287 C286 1.417 . S
C287 C290 1.426 . S
C288 H271 0.930 . S
C288 N283 1.307 . S
C288 C285 1.402 . S
N289 Gd252 2.601 . S
N289 C290 1.359 . S
N289 C293 1.334 . S
C290 C287 1.426 . S
C290 N289 1.359 . S
C290 C294 1.413 . S
C291 H282 0.930 . S
C291 C292 1.359 . S
C291 C293 1.394 . S
C292 C291 1.359 . S
C292 C294 1.391 . S
C292 H295 0.929 . S
C293 H275 0.930 . S
C293 N289 1.334 . S
C293 C291 1.394 . S
C294 C290 1.413 . S
C294 C292 1.391 . S
C294 C309 1.437 . S
H295 C292 0.929 . S
O296 Gd252 2.545 . S
O296 C311 1.258 . S
O297 Gd252 2.606 . S
O297 Gd253 2.362 . S
O297 C308 1.284 . S
O298 Gd253 2.324 . S
O298 C318 1.254 . S
O299 Gd252 2.429 . S
O299 C318 1.268 . S
O300 Gd252 2.545 . S
O300 C308 1.250 . S
O301 Gd252 2.412 . S
O301 C311 1.252 . S
O302 Gd253 2.545 . S
O302 C320 1.258 . S
O303 Gd252 2.362 . S
O303 Gd253 2.606 . S
O303 C319 1.284 . S
O304 Gd252 2.324 . S
O304 C327 1.254 . S
O305 Gd253 2.429 . S
O305 C327 1.268 . S
O306 Gd253 2.545 . S
O306 C319 1.250 . S
O307 Gd253 2.412 . S
O307 C320 1.252 . S
C308 O297 1.284 . S
C308 O300 1.250 . S
C309 H278 0.929 . S
C309 C294 1.437 . S
C309 C310 1.317 . S
C310 H281 0.930 . S
C310 C286 1.431 . S
C310 C309 1.317 . S
C311 Gd252 2.828 . S
C311 O296 1.258 . S
C311 O301 1.252 . S
C311 C312 1.497 . S
C312 C311 1.497 . S
C312 C313 1.395 . S
C312 C314 1.380 . S
C313 C312 1.395 . S
C313 C316 1.398 . S
C313 H328 0.930 . S
C314 C312 1.380 . S
C314 C315 1.391 . S
C314 H329 0.930 . S
C315 C314 1.391 . S
C315 C317 1.387 . S
C316 C313 1.398 . S
C316 C317 1.380 . S
C316 H330 0.930 . S
C317 C315 1.387 . S
C317 C316 1.380 . S
C317 H331 0.930 . S
C318 O298 1.254 . S
C318 O299 1.268 . S
C319 O303 1.284 . S
C319 O306 1.250 . S
C320 Gd253 2.828 . S
C320 O302 1.258 . S
C320 O307 1.252 . S
C320 C321 1.497 . S
C321 C320 1.497 . S
C321 C322 1.395 . S
C321 C323 1.380 . S
C322 C321 1.395 . S
C322 C325 1.398 . S
C322 H332 0.930 . S
C323 C321 1.380 . S
C323 C324 1.391 . S
C323 H333 0.930 . S
C324 C323 1.391 . S
C324 C326 1.387 . S
C325 C322 1.398 . S
C325 C326 1.380 . S
C325 H334 0.930 . S
C326 C324 1.387 . S
C326 C325 1.380 . S
C326 H335 0.930 . S
C327 O304 1.254 . S
C327 O305 1.268 . S
H328 C313 0.930 . S
H329 C314 0.930 . S
H330 C316 0.930 . S
H331 C317 0.930 . S
H332 C322 0.930 . S
H333 C323 0.930 . S
H334 C325 0.930 . S
H335 C326 0.930 . S
Gd336 N367 2.661 . S
Gd336 N373 2.601 . S
Gd336 O380 2.545 . S
Gd336 O381 2.606 . S
Gd336 O383 2.429 . S
Gd336 O384 2.545 . S
Gd336 O385 2.412 . S
Gd336 O387 2.362 . S
Gd336 O388 2.324 . S
Gd336 C395 2.828 . S
Gd337 N346 2.661 . S
Gd337 N350 2.601 . S
Gd337 O381 2.362 . S
Gd337 O382 2.324 . S
Gd337 O386 2.545 . S
Gd337 O387 2.606 . S
Gd337 O389 2.429 . S
Gd337 O390 2.545 . S
Gd337 O391 2.412 . S
Gd337 C404 2.828 . S
C338 C341 1.417 . S
C338 C343 1.431 . S
C338 C344 1.412 . S
C339 C342 1.437 . S
C339 C343 1.317 . S
C339 H358 0.929 . S
C340 C341 1.426 . S
C340 C342 1.413 . S
C340 N350 1.359 . S
C341 C338 1.417 . S
C341 C340 1.426 . S
C341 N346 1.350 . S
C342 C339 1.437 . S
C342 C340 1.413 . S
C342 C352 1.391 . S
C343 C338 1.431 . S
C343 C339 1.317 . S
C343 H354 0.930 . S
C344 C338 1.412 . S
C344 C345 1.355 . S
C344 H356 0.930 . S
C345 C344 1.355 . S
C345 C347 1.402 . S
C345 H357 0.930 . S
N346 Gd337 2.661 . S
N346 C341 1.350 . S
N346 C347 1.307 . S
C347 C345 1.402 . S
C347 N346 1.307 . S
C347 H348 0.930 . S
H348 C347 0.930 . S
C349 N350 1.334 . S
C349 C351 1.394 . S
C349 H353 0.930 . S
N350 Gd337 2.601 . S
N350 C340 1.359 . S
N350 C349 1.334 . S
C351 C349 1.394 . S
C351 C352 1.359 . S
C351 H363 0.930 . S
C352 C342 1.391 . S
C352 C351 1.359 . S
C352 H364 0.929 . S
H353 C349 0.930 . S
H354 C343 0.930 . S
H355 C372 0.930 . S
H356 C344 0.930 . S
H357 C345 0.930 . S
H358 C339 0.929 . S
H359 C377 0.930 . S
H360 C368 0.930 . S
H361 C369 0.930 . S
H362 C393 0.929 . S
H363 C351 0.930 . S
H364 C352 0.929 . S
H365 C394 0.930 . S
H366 C375 0.930 . S
N367 Gd336 2.661 . S
N367 C371 1.350 . S
N367 C372 1.307 . S
C368 H360 0.930 . S
C368 C369 1.355 . S
C368 C370 1.412 . S
C369 H361 0.930 . S
C369 C368 1.355 . S
C369 C372 1.402 . S
C370 C368 1.412 . S
C370 C371 1.417 . S
C370 C394 1.431 . S
C371 N367 1.350 . S
C371 C370 1.417 . S
C371 C374 1.426 . S
C372 H355 0.930 . S
C372 N367 1.307 . S
C372 C369 1.402 . S
N373 Gd336 2.601 . S
N373 C374 1.359 . S
N373 C377 1.334 . S
C374 C371 1.426 . S
C374 N373 1.359 . S
C374 C378 1.413 . S
C375 H366 0.930 . S
C375 C376 1.359 . S
C375 C377 1.394 . S
C376 C375 1.359 . S
C376 C378 1.391 . S
C376 H379 0.929 . S
C377 H359 0.930 . S
C377 N373 1.334 . S
C377 C375 1.394 . S
C378 C374 1.413 . S
C378 C376 1.391 . S
C378 C393 1.437 . S
H379 C376 0.929 . S
O380 Gd336 2.545 . S
O380 C395 1.258 . S
O381 Gd336 2.606 . S
O381 Gd337 2.362 . S
O381 C392 1.284 . S
O382 Gd337 2.324 . S
O382 C402 1.254 . S
O383 Gd336 2.429 . S
O383 C402 1.268 . S
O384 Gd336 2.545 . S
O384 C392 1.250 . S
O385 Gd336 2.412 . S
O385 C395 1.252 . S
O386 Gd337 2.545 . S
O386 C404 1.258 . S
O387 Gd336 2.362 . S
O387 Gd337 2.606 . S
O387 C403 1.284 . S
O388 Gd336 2.324 . S
O388 C411 1.254 . S
O389 Gd337 2.429 . S
O389 C411 1.268 . S
O390 Gd337 2.545 . S
O390 C403 1.250 . S
O391 Gd337 2.412 . S
O391 C404 1.252 . S
C392 O381 1.284 . S
C392 O384 1.250 . S
C393 H362 0.929 . S
C393 C378 1.437 . S
C393 C394 1.317 . S
C394 H365 0.930 . S
C394 C370 1.431 . S
C394 C393 1.317 . S
C395 Gd336 2.828 . S
C395 O380 1.258 . S
C395 O385 1.252 . S
C395 C396 1.497 . S
C396 C395 1.497 . S
C396 C397 1.395 . S
C396 C398 1.380 . S
C397 C396 1.395 . S
C397 C400 1.398 . S
C397 H412 0.930 . S
C398 C396 1.380 . S
C398 C399 1.391 . S
C398 H413 0.930 . S
C399 C398 1.391 . S
C399 C401 1.387 . S
C400 C397 1.398 . S
C400 C401 1.380 . S
C400 H414 0.930 . S
C401 C399 1.387 . S
C401 C400 1.380 . S
C401 H415 0.930 . S
C402 O382 1.254 . S
C402 O383 1.268 . S
C403 O387 1.284 . S
C403 O390 1.250 . S
C404 Gd337 2.828 . S
C404 O386 1.258 . S
C404 O391 1.252 . S
C404 C405 1.497 . S
C405 C404 1.497 . S
C405 C406 1.395 . S
C405 C407 1.380 . S
C406 C405 1.395 . S
C406 C409 1.398 . S
C406 H416 0.930 . S
C407 C405 1.380 . S
C407 C408 1.391 . S
C407 H417 0.930 . S
C408 C407 1.391 . S
C408 C410 1.387 . S
C409 C406 1.398 . S
C409 C410 1.380 . S
C409 H418 0.930 . S
C410 C408 1.387 . S
C410 C409 1.380 . S
C410 H419 0.930 . S
C411 O388 1.254 . S
C411 O389 1.268 . S
H412 C397 0.930 . S
H413 C398 0.930 . S
H414 C400 0.930 . S
H415 C401 0.930 . S
H416 C406 0.930 . S
H417 C407 0.930 . S
H418 C409 0.930 . S
H419 C410 0.930 . S
Gd420 N451 2.661 . S
Gd420 N457 2.601 . S
Gd420 O464 2.545 . S
Gd420 O465 2.606 . S
Gd420 O467 2.429 . S
Gd420 O468 2.545 . S
Gd420 O469 2.412 . S
Gd420 O471 2.362 . S
Gd420 O472 2.324 . S
Gd420 C479 2.828 . S
Gd421 N430 2.661 . S
Gd421 N434 2.601 . S
Gd421 O465 2.362 . S
Gd421 O466 2.324 . S
Gd421 O470 2.545 . S
Gd421 O471 2.606 . S
Gd421 O473 2.429 . S
Gd421 O474 2.545 . S
Gd421 O475 2.412 . S
Gd421 C488 2.828 . S
C422 C425 1.417 . S
C422 C427 1.431 . S
C422 C428 1.412 . S
C423 C426 1.437 . S
C423 C427 1.317 . S
C423 H442 0.929 . S
C424 C425 1.426 . S
C424 C426 1.413 . S
C424 N434 1.359 . S
C425 C422 1.417 . S
C425 C424 1.426 . S
C425 N430 1.350 . S
C426 C423 1.437 . S
C426 C424 1.413 . S
C426 C436 1.391 . S
C427 C422 1.431 . S
C427 C423 1.317 . S
C427 H438 0.930 . S
C428 C422 1.412 . S
C428 C429 1.355 . S
C428 H440 0.930 . S
C429 C428 1.355 . S
C429 C431 1.402 . S
C429 H441 0.930 . S
N430 Gd421 2.661 . S
N430 C425 1.350 . S
N430 C431 1.307 . S
C431 C429 1.402 . S
C431 N430 1.307 . S
C431 H432 0.930 . S
H432 C431 0.930 . S
C433 N434 1.334 . S
C433 C435 1.394 . S
C433 H437 0.930 . S
N434 Gd421 2.601 . S
N434 C424 1.359 . S
N434 C433 1.334 . S
C435 C433 1.394 . S
C435 C436 1.359 . S
C435 H447 0.930 . S
C436 C426 1.391 . S
C436 C435 1.359 . S
C436 H448 0.929 . S
H437 C433 0.930 . S
H438 C427 0.930 . S
H439 C456 0.930 . S
H440 C428 0.930 . S
H441 C429 0.930 . S
H442 C423 0.929 . S
H443 C461 0.930 . S
H444 C452 0.930 . S
H445 C453 0.930 . S
H446 C477 0.929 . S
H447 C435 0.930 . S
H448 C436 0.929 . S
H449 C478 0.930 . S
H450 C459 0.930 . S
N451 Gd420 2.661 . S
N451 C455 1.350 . S
N451 C456 1.307 . S
C452 H444 0.930 . S
C452 C453 1.355 . S
C452 C454 1.412 . S
C453 H445 0.930 . S
C453 C452 1.355 . S
C453 C456 1.402 . S
C454 C452 1.412 . S
C454 C455 1.417 . S
C454 C478 1.431 . S
C455 N451 1.350 . S
C455 C454 1.417 . S
C455 C458 1.426 . S
C456 H439 0.930 . S
C456 N451 1.307 . S
C456 C453 1.402 . S
N457 Gd420 2.601 . S
N457 C458 1.359 . S
N457 C461 1.334 . S
C458 C455 1.426 . S
C458 N457 1.359 . S
C458 C462 1.413 . S
C459 H450 0.930 . S
C459 C460 1.359 . S
C459 C461 1.394 . S
C460 C459 1.359 . S
C460 C462 1.391 . S
C460 H463 0.929 . S
C461 H443 0.930 . S
C461 N457 1.334 . S
C461 C459 1.394 . S
C462 C458 1.413 . S
C462 C460 1.391 . S
C462 C477 1.437 . S
H463 C460 0.929 . S
O464 Gd420 2.545 . S
O464 C479 1.258 . S
O465 Gd420 2.606 . S
O465 Gd421 2.362 . S
O465 C476 1.284 . S
O466 Gd421 2.324 . S
O466 C486 1.254 . S
O467 Gd420 2.429 . S
O467 C486 1.268 . S
O468 Gd420 2.545 . S
O468 C476 1.250 . S
O469 Gd420 2.412 . S
O469 C479 1.252 . S
O470 Gd421 2.545 . S
O470 C488 1.258 . S
O471 Gd420 2.362 . S
O471 Gd421 2.606 . S
O471 C487 1.284 . S
O472 Gd420 2.324 . S
O472 C495 1.254 . S
O473 Gd421 2.429 . S
O473 C495 1.268 . S
O474 Gd421 2.545 . S
O474 C487 1.250 . S
O475 Gd421 2.412 . S
O475 C488 1.252 . S
C476 O465 1.284 . S
C476 O468 1.250 . S
C477 H446 0.929 . S
C477 C462 1.437 . S
C477 C478 1.317 . S
C478 H449 0.930 . S
C478 C454 1.431 . S
C478 C477 1.317 . S
C479 Gd420 2.828 . S
C479 O464 1.258 . S
C479 O469 1.252 . S
C479 C480 1.497 . S
C480 C479 1.497 . S
C480 C481 1.395 . S
C480 C482 1.380 . S
C481 C480 1.395 . S
C481 C484 1.398 . S
C481 H496 0.930 . S
C482 C480 1.380 . S
C482 C483 1.391 . S
C482 H497 0.930 . S
C483 C482 1.391 . S
C483 C485 1.387 . S
C484 C481 1.398 . S
C484 C485 1.380 . S
C484 H498 0.930 . S
C485 C483 1.387 . S
C485 C484 1.380 . S
C485 H499 0.930 . S
C486 O466 1.254 . S
C486 O467 1.268 . S
C487 O471 1.284 . S
C487 O474 1.250 . S
C488 Gd421 2.828 . S
C488 O470 1.258 . S
C488 O475 1.252 . S
C488 C489 1.497 . S
C489 C488 1.497 . S
C489 C490 1.395 . S
C489 C491 1.380 . S
C490 C489 1.395 . S
C490 C493 1.398 . S
C490 H500 0.930 . S
C491 C489 1.380 . S
C491 C492 1.391 . S
C491 H501 0.930 . S
C492 C491 1.391 . S
C492 C494 1.387 . S
C493 C490 1.398 . S
C493 C494 1.380 . S
C493 H502 0.930 . S
C494 C492 1.387 . S
C494 C493 1.380 . S
C494 H503 0.930 . S
C495 O472 1.254 . S
C495 O473 1.268 . S
H496 C481 0.930 . S
H497 C482 0.930 . S
H498 C484 0.930 . S
H499 C485 0.930 . S
H500 C490 0.930 . S
H501 C491 0.930 . S
H502 C493 0.930 . S
H503 C494 0.930 . S
Gd504 N535 2.661 . S
Gd504 N541 2.601 . S
Gd504 O548 2.545 . S
Gd504 O549 2.606 . S
Gd504 O551 2.429 . S
Gd504 O552 2.545 . S
Gd504 O553 2.412 . S
Gd504 O555 2.362 . S
Gd504 O556 2.324 . S
Gd504 C563 2.828 . S
Gd505 N514 2.661 . S
Gd505 N518 2.601 . S
Gd505 O549 2.362 . S
Gd505 O550 2.324 . S
Gd505 O554 2.545 . S
Gd505 O555 2.606 . S
Gd505 O557 2.429 . S
Gd505 O558 2.545 . S
Gd505 O559 2.412 . S
Gd505 C572 2.828 . S
C506 C509 1.417 . S
C506 C511 1.431 . S
C506 C512 1.412 . S
C507 C510 1.437 . S
C507 C511 1.317 . S
C507 H526 0.929 . S
C508 C509 1.426 . S
C508 C510 1.413 . S
C508 N518 1.359 . S
C509 C506 1.417 . S
C509 C508 1.426 . S
C509 N514 1.350 . S
C510 C507 1.437 . S
C510 C508 1.413 . S
C510 C520 1.391 . S
C511 C506 1.431 . S
C511 C507 1.317 . S
C511 H522 0.930 . S
C512 C506 1.412 . S
C512 C513 1.355 . S
C512 H524 0.930 . S
C513 C512 1.355 . S
C513 C515 1.402 . S
C513 H525 0.930 . S
N514 Gd505 2.661 . S
N514 C509 1.350 . S
N514 C515 1.307 . S
C515 C513 1.402 . S
C515 N514 1.307 . S
C515 H516 0.930 . S
H516 C515 0.930 . S
C517 N518 1.334 . S
C517 C519 1.394 . S
C517 H521 0.930 . S
N518 Gd505 2.601 . S
N518 C508 1.359 . S
N518 C517 1.334 . S
C519 C517 1.394 . S
C519 C520 1.359 . S
C519 H531 0.930 . S
C520 C510 1.391 . S
C520 C519 1.359 . S
C520 H532 0.929 . S
H521 C517 0.930 . S
H522 C511 0.930 . S
H523 C540 0.930 . S
H524 C512 0.930 . S
H525 C513 0.930 . S
H526 C507 0.929 . S
H527 C545 0.930 . S
H528 C536 0.930 . S
H529 C537 0.930 . S
H530 C561 0.929 . S
H531 C519 0.930 . S
H532 C520 0.929 . S
H533 C562 0.930 . S
H534 C543 0.930 . S
N535 Gd504 2.661 . S
N535 C539 1.350 . S
N535 C540 1.307 . S
C536 H528 0.930 . S
C536 C537 1.355 . S
C536 C538 1.412 . S
C537 H529 0.930 . S
C537 C536 1.355 . S
C537 C540 1.402 . S
C538 C536 1.412 . S
C538 C539 1.417 . S
C538 C562 1.431 . S
C539 N535 1.350 . S
C539 C538 1.417 . S
C539 C542 1.426 . S
C540 H523 0.930 . S
C540 N535 1.307 . S
C540 C537 1.402 . S
N541 Gd504 2.601 . S
N541 C542 1.359 . S
N541 C545 1.334 . S
C542 C539 1.426 . S
C542 N541 1.359 . S
C542 C546 1.413 . S
C543 H534 0.930 . S
C543 C544 1.359 . S
C543 C545 1.394 . S
C544 C543 1.359 . S
C544 C546 1.391 . S
C544 H547 0.929 . S
C545 H527 0.930 . S
C545 N541 1.334 . S
C545 C543 1.394 . S
C546 C542 1.413 . S
C546 C544 1.391 . S
C546 C561 1.437 . S
H547 C544 0.929 . S
O548 Gd504 2.545 . S
O548 C563 1.258 . S
O549 Gd504 2.606 . S
O549 Gd505 2.362 . S
O549 C560 1.284 . S
O550 Gd505 2.324 . S
O550 C570 1.254 . S
O551 Gd504 2.429 . S
O551 C570 1.268 . S
O552 Gd504 2.545 . S
O552 C560 1.250 . S
O553 Gd504 2.412 . S
O553 C563 1.252 . S
O554 Gd505 2.545 . S
O554 C572 1.258 . S
O555 Gd504 2.362 . S
O555 Gd505 2.606 . S
O555 C571 1.284 . S
O556 Gd504 2.324 . S
O556 C579 1.254 . S
O557 Gd505 2.429 . S
O557 C579 1.268 . S
O558 Gd505 2.545 . S
O558 C571 1.250 . S
O559 Gd505 2.412 . S
O559 C572 1.252 . S
C560 O549 1.284 . S
C560 O552 1.250 . S
C561 H530 0.929 . S
C561 C546 1.437 . S
C561 C562 1.317 . S
C562 H533 0.930 . S
C562 C538 1.431 . S
C562 C561 1.317 . S
C563 Gd504 2.828 . S
C563 O548 1.258 . S
C563 O553 1.252 . S
C563 C564 1.497 . S
C564 C563 1.497 . S
C564 C565 1.395 . S
C564 C566 1.380 . S
C565 C564 1.395 . S
C565 C568 1.398 . S
C565 H580 0.930 . S
C566 C564 1.380 . S
C566 C567 1.391 . S
C566 H581 0.930 . S
C567 C566 1.391 . S
C567 C569 1.387 . S
C568 C565 1.398 . S
C568 C569 1.380 . S
C568 H582 0.930 . S
C569 C567 1.387 . S
C569 C568 1.380 . S
C569 H583 0.930 . S
C570 O550 1.254 . S
C570 O551 1.268 . S
C571 O555 1.284 . S
C571 O558 1.250 . S
C572 Gd505 2.828 . S
C572 O554 1.258 . S
C572 O559 1.252 . S
C572 C573 1.497 . S
C573 C572 1.497 . S
C573 C574 1.395 . S
C573 C575 1.380 . S
C574 C573 1.395 . S
C574 C577 1.398 . S
C574 H584 0.930 . S
C575 C573 1.380 . S
C575 C576 1.391 . S
C575 H585 0.930 . S
C576 C575 1.391 . S
C576 C578 1.387 . S
C577 C574 1.398 . S
C577 C578 1.380 . S
C577 H586 0.930 . S
C578 C576 1.387 . S
C578 C577 1.380 . S
C578 H587 0.930 . S
C579 O556 1.254 . S
C579 O557 1.268 . S
H580 C565 0.930 . S
H581 C566 0.930 . S
H582 C568 0.930 . S
H583 C569 0.930 . S
H584 C574 0.930 . S
H585 C575 0.930 . S
H586 C577 0.930 . S
H587 C578 0.930 . S
Gd588 N619 2.661 . S
Gd588 N625 2.601 . S
Gd588 O632 2.545 . S
Gd588 O633 2.606 . S
Gd588 O635 2.429 . S
Gd588 O636 2.545 . S
Gd588 O637 2.412 . S
Gd588 O639 2.362 . S
Gd588 O640 2.324 . S
Gd588 C647 2.828 . S
Gd589 N598 2.661 . S
Gd589 N602 2.601 . S
Gd589 O633 2.362 . S
Gd589 O634 2.324 . S
Gd589 O638 2.545 . S
Gd589 O639 2.606 . S
Gd589 O641 2.429 . S
Gd589 O642 2.545 . S
Gd589 O643 2.412 . S
Gd589 C656 2.828 . S
C590 C593 1.417 . S
C590 C595 1.431 . S
C590 C596 1.412 . S
C591 C594 1.437 . S
C591 C595 1.317 . S
C591 H610 0.929 . S
C592 C593 1.426 . S
C592 C594 1.413 . S
C592 N602 1.359 . S
C593 C590 1.417 . S
C593 C592 1.426 . S
C593 N598 1.350 . S
C594 C591 1.437 . S
C594 C592 1.413 . S
C594 C604 1.391 . S
C595 C590 1.431 . S
C595 C591 1.317 . S
C595 H606 0.930 . S
C596 C590 1.412 . S
C596 C597 1.355 . S
C596 H608 0.930 . S
C597 C596 1.355 . S
C597 C599 1.402 . S
C597 H609 0.930 . S
N598 Gd589 2.661 . S
N598 C593 1.350 . S
N598 C599 1.307 . S
C599 C597 1.402 . S
C599 N598 1.307 . S
C599 H600 0.930 . S
H600 C599 0.930 . S
C601 N602 1.334 . S
C601 C603 1.394 . S
C601 H605 0.930 . S
N602 Gd589 2.601 . S
N602 C592 1.359 . S
N602 C601 1.334 . S
C603 C601 1.394 . S
C603 C604 1.359 . S
C603 H615 0.930 . S
C604 C594 1.391 . S
C604 C603 1.359 . S
C604 H616 0.929 . S
H605 C601 0.930 . S
H606 C595 0.930 . S
H607 C624 0.930 . S
H608 C596 0.930 . S
H609 C597 0.930 . S
H610 C591 0.929 . S
H611 C629 0.930 . S
H612 C620 0.930 . S
H613 C621 0.930 . S
H614 C645 0.929 . S
H615 C603 0.930 . S
H616 C604 0.929 . S
H617 C646 0.930 . S
H618 C627 0.930 . S
N619 Gd588 2.661 . S
N619 C623 1.350 . S
N619 C624 1.307 . S
C620 H612 0.930 . S
C620 C621 1.355 . S
C620 C622 1.412 . S
C621 H613 0.930 . S
C621 C620 1.355 . S
C621 C624 1.402 . S
C622 C620 1.412 . S
C622 C623 1.417 . S
C622 C646 1.431 . S
C623 N619 1.350 . S
C623 C622 1.417 . S
C623 C626 1.426 . S
C624 H607 0.930 . S
C624 N619 1.307 . S
C624 C621 1.402 . S
N625 Gd588 2.601 . S
N625 C626 1.359 . S
N625 C629 1.334 . S
C626 C623 1.426 . S
C626 N625 1.359 . S
C626 C630 1.413 . S
C627 H618 0.930 . S
C627 C628 1.359 . S
C627 C629 1.394 . S
C628 C627 1.359 . S
C628 C630 1.391 . S
C628 H631 0.929 . S
C629 H611 0.930 . S
C629 N625 1.334 . S
C629 C627 1.394 . S
C630 C626 1.413 . S
C630 C628 1.391 . S
C630 C645 1.437 . S
H631 C628 0.929 . S
O632 Gd588 2.545 . S
O632 C647 1.258 . S
O633 Gd588 2.606 . S
O633 Gd589 2.362 . S
O633 C644 1.284 . S
O634 Gd589 2.324 . S
O634 C654 1.254 . S
O635 Gd588 2.429 . S
O635 C654 1.268 . S
O636 Gd588 2.545 . S
O636 C644 1.250 . S
O637 Gd588 2.412 . S
O637 C647 1.252 . S
O638 Gd589 2.545 . S
O638 C656 1.258 . S
O639 Gd588 2.362 . S
O639 Gd589 2.606 . S
O639 C655 1.284 . S
O640 Gd588 2.324 . S
O640 C663 1.254 . S
O641 Gd589 2.429 . S
O641 C663 1.268 . S
O642 Gd589 2.545 . S
O642 C655 1.250 . S
O643 Gd589 2.412 . S
O643 C656 1.252 . S
C644 O633 1.284 . S
C644 O636 1.250 . S
C645 H614 0.929 . S
C645 C630 1.437 . S
C645 C646 1.317 . S
C646 H617 0.930 . S
C646 C622 1.431 . S
C646 C645 1.317 . S
C647 Gd588 2.828 . S
C647 O632 1.258 . S
C647 O637 1.252 . S
C647 C648 1.497 . S
C648 C647 1.497 . S
C648 C649 1.395 . S
C648 C650 1.380 . S
C649 C648 1.395 . S
C649 C652 1.398 . S
C649 H664 0.930 . S
C650 C648 1.380 . S
C650 C651 1.391 . S
C650 H665 0.930 . S
C651 C650 1.391 . S
C651 C653 1.387 . S
C652 C649 1.398 . S
C652 C653 1.380 . S
C652 H666 0.930 . S
C653 C651 1.387 . S
C653 C652 1.380 . S
C653 H667 0.930 . S
C654 O634 1.254 . S
C654 O635 1.268 . S
C655 O639 1.284 . S
C655 O642 1.250 . S
C656 Gd589 2.828 . S
C656 O638 1.258 . S
C656 O643 1.252 . S
C656 C657 1.497 . S
C657 C656 1.497 . S
C657 C658 1.395 . S
C657 C659 1.380 . S
C658 C657 1.395 . S
C658 C661 1.398 . S
C658 H668 0.930 . S
C659 C657 1.380 . S
C659 C660 1.391 . S
C659 H669 0.930 . S
C660 C659 1.391 . S
C660 C662 1.387 . S
C661 C658 1.398 . S
C661 C662 1.380 . S
C661 H670 0.930 . S
C662 C660 1.387 . S
C662 C661 1.380 . S
C662 H671 0.930 . S
C663 O640 1.254 . S
C663 O641 1.268 . S
H664 C649 0.930 . S
H665 C650 0.930 . S
H666 C652 0.930 . S
H667 C653 0.930 . S
H668 C658 0.930 . S
H669 C659 0.930 . S
H670 C661 0.930 . S
H671 C662 0.930 . S
Fe672 O673 1.886 1_455 S
Fe672 O676 1.715 . S
Fe672 O681 2.077 1_455 S
Fe672 O686 1.935 . S
Fe672 O692 2.077 1_455 S
Fe672 O701 1.935 . S
O673 Fe672 1.886 1_655 S
O673 Fe675 1.715 . S
Fe674 O676 1.886 . S
Fe674 O677 1.715 1_545 S
Fe674 O684 1.935 . S
Fe674 O685 2.077 . S
Fe674 O691 1.935 1_545 S
Fe674 O700 2.077 . S
Fe675 O673 1.715 . S
Fe675 O678 1.886 1_545 S
Fe675 O682 1.935 . S
Fe675 O687 2.077 1_545 S
Fe675 O693 1.935 . S
Fe675 O697 2.077 1_545 S
O676 Fe672 1.715 . S
O676 Fe674 1.886 . S
O677 Fe674 1.715 1_565 S
O677 Fe679 1.886 . S
O678 Fe675 1.886 1_565 S
O678 Fe679 1.715 1_655 S
Fe679 O677 1.886 . S
Fe679 O678 1.715 1_455 S
Fe679 O683 2.077 . S
Fe679 O688 1.935 1_455 S
Fe679 O690 2.077 . S
Fe679 O698 1.935 1_455 S
C680 O692 1.381 . S
C680 O693 1.421 . S
O681 Fe672 2.077 1_655 S
O681 C694 1.381 . S
O682 Fe675 1.935 . S
O682 C694 1.421 . S
O683 Fe679 2.077 . S
O683 C699 1.381 . S
O684 Fe674 1.935 . S
O684 C699 1.421 1_545 S
O685 Fe674 2.077 . S
O685 C689 1.381 . S
O686 Fe672 1.935 . S
O686 C689 1.421 . S
O687 Fe675 2.077 1_565 S
O687 C695 1.381 . S
O688 Fe679 1.935 1_655 S
O688 C695 1.421 . S
C689 O685 1.381 . S
C689 O686 1.421 . S
O690 Fe679 2.077 . S
O690 C702 1.381 . S
O691 Fe674 1.935 1_565 S
O691 C702 1.421 . S
O692 Fe672 2.077 1_655 S
O692 C680 1.381 . S
O693 Fe675 1.935 . S
O693 C680 1.421 . S
C694 O681 1.381 . S
C694 O682 1.421 . S
C695 O687 1.381 . S
C695 O688 1.421 . S
C696 O697 1.381 . S
C696 O698 1.421 . S
O697 Fe675 2.077 1_565 S
O697 C696 1.381 . S
O698 Fe679 1.935 1_655 S
O698 C696 1.421 . S
C699 O683 1.381 . S
C699 O684 1.421 1_565 S
O700 Fe674 2.077 . S
O700 C703 1.381 . S
O701 Fe672 1.935 . S
O701 C703 1.421 . S
C702 O690 1.381 . S
C702 O691 1.421 . S
C703 O700 1.381 . S
C703 O701 1.421 . S
Fe704 O705 1.886 1_565 S
Fe704 O708 1.715 . S
Fe704 O713 2.077 1_554 S
Fe704 O718 1.935 1_554 S
Fe704 O724 2.077 . S
Fe704 O733 1.935 . S
O705 Fe704 1.886 1_545 S
O705 Fe707 1.715 . S
Fe706 O708 1.886 1_546 S
Fe706 O709 1.715 . S
Fe706 O716 1.947 . S
Fe706 O717 2.088 1_545 S
Fe706 O723 1.922 1_556 S
Fe706 O732 2.067 1_546 S
Fe707 O705 1.715 . S
Fe707 O710 1.884 . S
Fe707 O714 1.935 1_554 S
Fe707 O719 2.077 1_554 S
Fe707 O725 1.935 . S
Fe707 O729 2.077 . S
O708 Fe704 1.715 . S
O708 Fe706 1.886 1_564 S
O709 Fe706 1.715 . S
O709 Fe711 1.886 . S
O710 Fe707 1.884 . S
O710 Fe711 1.720 1_554 S
Fe711 O709 1.886 . S
Fe711 O710 1.720 1_556 S
Fe711 O715 2.096 . S
Fe711 O720 1.959 . S
Fe711 O722 2.056 1_556 S
Fe711 O730 1.912 1_556 S
C712 O724 1.381 . S
C712 O725 1.421 1_565 S
O713 Fe704 2.077 1_556 S
O713 C726 1.381 . S
O714 Fe707 1.935 1_556 S
O714 C726 1.421 1_545 S
O715 Fe711 2.096 . S
O715 C731 1.381 . S
O716 Fe706 1.947 . S
O716 C731 1.421 . S
O717 Fe706 2.088 1_565 S
O717 C721 1.381 . S
O718 Fe704 1.935 1_556 S
O718 C721 1.421 . S
O719 Fe707 2.077 1_556 S
O719 C727 1.381 . S
O720 Fe711 1.959 . S
O720 C727 1.421 . S
C721 O717 1.381 . S
C721 O718 1.421 . S
O722 Fe711 2.056 1_554 S
O722 C734 1.381 . S
O723 Fe706 1.922 1_554 S
O723 C734 1.421 . S
O724 Fe704 2.077 . S
O724 C712 1.381 . S
O725 Fe707 1.935 . S
O725 C712 1.421 1_545 S
C726 O713 1.381 . S
C726 O714 1.421 1_565 S
C727 O719 1.381 . S
C727 O720 1.421 . S
C728 O729 1.381 . S
C728 O730 1.421 . S
O729 Fe707 2.077 . S
O729 C728 1.381 . S
O730 Fe711 1.912 1_554 S
O730 C728 1.421 . S
C731 O715 1.381 . S
C731 O716 1.421 . S
O732 Fe706 2.067 1_564 S
O732 C735 1.381 . S
O733 Fe704 1.935 . S
O733 C735 1.421 . S
C734 O722 1.381 . S
C734 O723 1.421 . S
C735 O732 1.381 . S
C735 O733 1.421 . S
Fe736 O737 1.886 1_455 S
Fe736 O740 1.715 . S
Fe736 O745 2.077 1_455 S
Fe736 O750 1.935 . S
Fe736 O756 2.077 1_455 S
Fe736 O765 1.935 . S
O737 Fe736 1.886 1_655 S
O737 Fe739 1.715 . S
Fe738 O740 1.886 . S
Fe738 O741 1.715 . S
Fe738 O748 1.935 . S
Fe738 O749 2.077 . S
Fe738 O755 1.935 . S
Fe738 O764 2.077 . S
Fe739 O737 1.715 . S
Fe739 O742 1.886 . S
Fe739 O746 1.935 . S
Fe739 O751 2.077 . S
Fe739 O757 1.935 . S
Fe739 O761 2.077 . S
O740 Fe736 1.715 . S
O740 Fe738 1.886 . S
O741 Fe738 1.715 . S
O741 Fe743 1.886 1_455 S
O742 Fe739 1.886 . S
O742 Fe743 1.715 . S
Fe743 O741 1.886 1_655 S
Fe743 O742 1.715 . S
Fe743 O747 2.077 1_655 S
Fe743 O752 1.935 . S
Fe743 O754 2.077 1_655 S
Fe743 O762 1.935 . S
C744 O756 1.381 . S
C744 O757 1.421 . S
O745 Fe736 2.077 1_655 S
O745 C758 1.381 1_554 S
O746 Fe739 1.935 . S
O746 C758 1.421 1_554 S
O747 Fe743 2.077 1_455 S
O747 C763 1.381 . S
O748 Fe738 1.935 . S
O748 C763 1.421 . S
O749 Fe738 2.077 . S
O749 C753 1.371 1_554 S
O750 Fe736 1.935 . S
O750 C753 1.411 1_554 S
O751 Fe739 2.077 . S
O751 C759 1.377 1_554 S
O752 Fe743 1.935 . S
O752 C759 1.418 1_554 S
C753 O749 1.371 1_556 S
C753 O750 1.411 1_556 S
O754 Fe743 2.077 1_455 S
O754 C766 1.381 . S
O755 Fe738 1.935 . S
O755 C766 1.421 . S
O756 Fe736 2.077 1_655 S
O756 C744 1.381 . S
O757 Fe739 1.935 . S
O757 C744 1.421 . S
C758 O745 1.381 1_556 S
C758 O746 1.421 1_556 S
C759 O751 1.377 1_556 S
C759 O752 1.418 1_556 S
C760 O761 1.381 . S
C760 O762 1.421 . S
O761 Fe739 2.077 . S
O761 C760 1.381 . S
O762 Fe743 1.935 . S
O762 C760 1.421 . S
C763 O747 1.381 . S
C763 O748 1.421 . S
O764 Fe738 2.077 . S
O764 C767 1.381 . S
O765 Fe736 1.935 . S
O765 C767 1.421 . S
C766 O754 1.381 . S
C766 O755 1.421 . S
C767 O764 1.381 . S
C767 O765 1.421 . S
Fe768 O769 1.886 . S
Fe768 O772 1.715 . S
Fe768 O777 2.077 . S
Fe768 O782 1.935 . S
Fe768 O788 2.077 . S
Fe768 O797 1.935 . S
O769 Fe768 1.886 . S
O769 Fe771 1.715 1_556 S
Fe770 O772 1.886 1_554 S
Fe770 O773 1.715 . S
Fe770 O780 1.935 . S
Fe770 O781 2.077 1_554 S
Fe770 O787 1.935 . S
Fe770 O796 2.077 1_554 S
Fe771 O769 1.715 1_554 S
Fe771 O774 1.886 . S
Fe771 O778 1.928 1_554 S
Fe771 O783 2.077 . S
Fe771 O789 1.935 . S
Fe771 O793 2.077 . S
O772 Fe768 1.715 . S
O772 Fe770 1.886 1_556 S
O773 Fe770 1.715 . S
O773 Fe775 1.886 . S
O774 Fe771 1.886 . S
O774 Fe775 1.715 . S
Fe775 O773 1.886 . S
Fe775 O774 1.715 . S
Fe775 O779 2.077 . S
Fe775 O784 1.935 . S
Fe775 O786 2.077 . S
Fe775 O794 1.935 . S
C776 O788 1.381 . S
C776 O789 1.421 1_556 S
O777 Fe768 2.077 . S
O777 C790 1.381 . S
O778 Fe771 1.928 1_556 S
O778 C790 1.433 . S
O779 Fe775 2.077 . S
O779 C795 1.381 . S
O780 Fe770 1.935 . S
O780 C795 1.421 . S
O781 Fe770 2.077 1_556 S
O781 C785 1.381 . S
O782 Fe768 1.935 . S
O782 C785 1.421 . S
O783 Fe771 2.077 . S
O783 C791 1.381 . S
O784 Fe775 1.935 . S
O784 C791 1.421 . S
C785 O781 1.381 . S
C785 O782 1.421 . S
O786 Fe775 2.077 . S
O786 C798 1.381 . S
O787 Fe770 1.935 . S
O787 C798 1.421 . S
O788 Fe768 2.077 . S
O788 C776 1.381 . S
O789 Fe771 1.935 . S
O789 C776 1.421 1_554 S
C790 O777 1.381 . S
C790 O778 1.433 . S
C791 O783 1.381 . S
C791 O784 1.421 . S
C792 O793 1.381 . S
C792 O794 1.421 . S
O793 Fe771 2.077 . S
O793 C792 1.381 . S
O794 Fe775 1.935 . S
O794 C792 1.421 . S
C795 O779 1.381 . S
C795 O780 1.421 . S
O796 Fe770 2.077 1_556 S
O796 C799 1.381 . S
O797 Fe768 1.935 . S
O797 C799 1.421 . S
C798 O786 1.381 . S
C798 O787 1.421 . S
C799 O796 1.381 . S
C799 O797 1.421 . S
Fe800 O801 1.886 . S
Fe800 O804 1.715 . S
Fe800 O809 2.077 . S
Fe800 O814 1.935 . S
Fe800 O820 2.077 1_455 S
Fe800 O829 1.935 1_455 S
O801 Fe800 1.886 . S
O801 Fe803 1.715 . S
Fe802 O804 1.886 . S
Fe802 O805 1.715 . S
Fe802 O812 1.935 . S
Fe802 O813 2.077 . S
Fe802 O819 1.935 1_455 S
Fe802 O828 2.077 1_455 S
Fe803 O801 1.715 . S
Fe803 O806 1.886 . S
Fe803 O810 1.935 . S
Fe803 O815 2.077 . S
Fe803 O821 1.935 1_455 S
Fe803 O825 2.077 1_455 S
O804 Fe800 1.715 . S
O804 Fe802 1.886 . S
O805 Fe802 1.715 . S
O805 Fe807 1.886 . S
O806 Fe803 1.886 . S
O806 Fe807 1.715 . S
Fe807 O805 1.886 . S
Fe807 O806 1.715 . S
Fe807 O811 2.077 . S
Fe807 O816 1.935 . S
Fe807 O818 2.077 . S
Fe807 O826 1.946 . S
C808 O820 1.381 . S
C808 O821 1.421 . S
O809 Fe800 2.077 . S
O809 C822 1.381 . S
O810 Fe803 1.935 . S
O810 C822 1.421 . S
O811 Fe807 2.077 . S
O811 C827 1.381 . S
O812 Fe802 1.935 . S
O812 C827 1.421 . S
O813 Fe802 2.077 . S
O813 C817 1.381 . S
O814 Fe800 1.935 . S
O814 C817 1.421 . S
O815 Fe803 2.077 . S
O815 C823 1.381 . S
O816 Fe807 1.935 . S
O816 C823 1.421 . S
C817 O813 1.381 . S
C817 O814 1.421 . S
O818 Fe807 2.077 . S
O818 C830 1.381 1_455 S
O819 Fe802 1.935 1_655 S
O819 C830 1.421 . S
O820 Fe800 2.077 1_655 S
O820 C808 1.381 . S
O821 Fe803 1.935 1_655 S
O821 C808 1.421 . S
C822 O809 1.381 . S
C822 O810 1.421 . S
C823 O815 1.381 . S
C823 O816 1.421 . S
C824 O825 1.381 . S
C824 O826 1.418 1_655 S
O825 Fe803 2.077 1_655 S
O825 C824 1.381 . S
O826 Fe807 1.946 . S
O826 C824 1.418 1_455 S
C827 O811 1.381 . S
C827 O812 1.421 . S
O828 Fe802 2.077 1_655 S
O828 C831 1.381 . S
O829 Fe800 1.935 1_655 S
O829 C831 1.421 . S
C830 O818 1.381 1_655 S
C830 O819 1.421 . S
C831 O828 1.381 . S
C831 O829 1.421 . S
Fe832 O833 1.886 . S
Fe832 O836 1.715 . S
Fe832 O841 2.077 . S
Fe832 O846 1.935 . S
Fe832 O852 2.077 . S
Fe832 O861 1.935 . S
O833 Fe832 1.886 . S
O833 Fe835 1.715 1_565 S
Fe834 O836 1.886 1_545 S
Fe834 O837 1.715 . S
Fe834 O844 1.935 . S
Fe834 O845 2.077 1_545 S
Fe834 O851 1.935 . S
Fe834 O860 2.077 1_545 S
Fe835 O833 1.715 1_545 S
Fe835 O838 1.886 . S
Fe835 O842 1.935 1_545 S
Fe835 O847 2.077 . S
Fe835 O853 1.935 1_545 S
Fe835 O857 2.077 . S
O836 Fe832 1.715 . S
O836 Fe834 1.886 1_565 S
O837 Fe834 1.715 . S
O837 Fe839 1.886 . S
O838 Fe835 1.886 . S
O838 Fe839 1.715 . S
Fe839 O837 1.886 . S
Fe839 O838 1.715 . S
Fe839 O843 2.077 . S
Fe839 O848 1.935 . S
Fe839 O850 2.077 . S
Fe839 O858 1.935 . S
C840 O852 1.381 . S
C840 O853 1.421 . S
O841 Fe832 2.077 . S
O841 C854 1.381 . S
O842 Fe835 1.935 1_565 S
O842 C854 1.421 . S
O843 Fe839 2.077 . S
O843 C859 1.381 . S
O844 Fe834 1.935 . S
O844 C859 1.421 . S
O845 Fe834 2.077 1_565 S
O845 C849 1.381 . S
O846 Fe832 1.935 . S
O846 C849 1.421 . S
O847 Fe835 2.077 . S
O847 C855 1.381 . S
O848 Fe839 1.935 . S
O848 C855 1.421 . S
C849 O845 1.381 . S
C849 O846 1.421 . S
O850 Fe839 2.077 . S
O850 C862 1.381 . S
O851 Fe834 1.935 . S
O851 C862 1.421 . S
O852 Fe832 2.077 . S
O852 C840 1.381 . S
O853 Fe835 1.935 1_565 S
O853 C840 1.421 . S
C854 O841 1.381 . S
C854 O842 1.421 . S
C855 O847 1.381 . S
C855 O848 1.421 . S
C856 O857 1.381 . S
C856 O858 1.421 . S
O857 Fe835 2.077 . S
O857 C856 1.381 . S
O858 Fe839 1.935 . S
O858 C856 1.421 . S
C859 O843 1.381 . S
C859 O844 1.421 . S
O860 Fe834 2.077 1_565 S
O860 C863 1.381 . S
O861 Fe832 1.935 . S
O861 C863 1.421 . S
C862 O850 1.381 . S
C862 O851 1.421 . S
C863 O860 1.381 . S
C863 O861 1.421 . S
H864 C876 0.930 . S
H865 C878 0.930 . S
H866 C879 0.930 . S
H867 C883 0.959 . S
H868 C883 0.959 . S
H869 C883 0.961 . S
H870 C884 0.960 . S
H871 C884 0.961 . S
H872 C884 0.959 . S
H873 C887 0.929 . S
H874 C888 0.931 . S
H875 C890 0.930 . S
C876 H864 0.930 . S
C876 C877 1.399 . S
C876 C881 1.399 . S
C877 C876 1.399 . S
C877 C878 1.376 . S
C878 H865 0.930 . S
C878 C877 1.376 . S
C878 C879 1.388 . S
C879 H866 0.930 . S
C879 C878 1.388 . S
C879 C880 1.390 . S
C880 C879 1.390 . S
C880 C881 1.394 . S
C880 C886 1.465 . S
C881 C876 1.399 . S
C881 C880 1.394 . S
C881 C882 1.516 . S
C882 C881 1.516 . S
C882 C883 1.502 . S
C882 C884 1.561 . S
C882 C885 1.526 . S
C883 H867 0.959 . S
C883 H868 0.959 . S
C883 H869 0.961 . S
C883 C882 1.502 . S
C884 H870 0.960 . S
C884 H871 0.961 . S
C884 H872 0.959 . S
C884 C882 1.561 . S
C885 C882 1.526 . S
C885 C886 1.396 . S
C885 C890 1.390 . S
C886 C880 1.465 . S
C886 C885 1.396 . S
C886 C887 1.399 . S
C887 H873 0.929 . S
C887 C886 1.399 . S
C887 C888 1.385 . S
C888 H874 0.931 . S
C888 C887 1.385 . S
C888 C889 1.389 . S
C889 C888 1.389 . S
C889 C890 1.387 . S
C890 H875 0.930 . S
C890 C885 1.390 . S
C890 C889 1.387 . S
H891 C903 0.930 . S
H892 C905 0.930 . S
H893 C906 0.930 . S
H894 C910 0.959 . S
H895 C910 0.959 . S
H896 C910 0.961 . S
H897 C911 0.960 . S
H898 C911 0.961 . S
H899 C911 0.959 . S
H900 C914 0.929 . S
H901 C915 0.931 . S
H902 C917 0.930 . S
C903 H891 0.930 . S
C903 C904 1.399 . S
C903 C908 1.399 . S
C904 C903 1.399 . S
C904 C905 1.376 . S
C905 H892 0.930 . S
C905 C904 1.376 . S
C905 C906 1.388 . S
C906 H893 0.930 . S
C906 C905 1.388 . S
C906 C907 1.390 . S
C907 C906 1.390 . S
C907 C908 1.394 . S
C907 C913 1.465 . S
C908 C903 1.399 . S
C908 C907 1.394 . S
C908 C909 1.516 . S
C909 C908 1.516 . S
C909 C910 1.502 . S
C909 C911 1.561 . S
C909 C912 1.526 . S
C910 H894 0.959 . S
C910 H895 0.959 . S
C910 H896 0.961 . S
C910 C909 1.502 . S
C911 H897 0.960 . S
C911 H898 0.961 . S
C911 H899 0.959 . S
C911 C909 1.561 . S
C912 C909 1.526 . S
C912 C913 1.396 . S
C912 C917 1.390 . S
C913 C907 1.465 . S
C913 C912 1.396 . S
C913 C914 1.399 . S
C914 H900 0.929 . S
C914 C913 1.399 . S
C914 C915 1.385 . S
C915 H901 0.931 . S
C915 C914 1.385 . S
C915 C916 1.389 . S
C916 C915 1.389 . S
C916 C917 1.387 . S
C917 H902 0.930 . S
C917 C912 1.390 . S
C917 C916 1.387 . S
H918 C930 0.930 . S
H919 C932 0.930 . S
H920 C933 0.930 . S
H921 C937 0.959 . S
H922 C937 0.959 . S
H923 C937 0.961 . S
H924 C938 0.960 . S
H925 C938 0.961 . S
H926 C938 0.959 . S
H927 C941 0.929 . S
H928 C942 0.931 . S
H929 C944 0.930 . S
C930 H918 0.930 . S
C930 C931 1.399 . S
C930 C935 1.399 . S
C931 C930 1.399 . S
C931 C932 1.376 . S
C932 H919 0.930 . S
C932 C931 1.376 . S
C932 C933 1.388 . S
C933 H920 0.930 . S
C933 C932 1.388 . S
C933 C934 1.390 . S
C934 C933 1.390 . S
C934 C935 1.394 . S
C934 C940 1.465 . S
C935 C930 1.399 . S
C935 C934 1.394 . S
C935 C936 1.516 . S
C936 C935 1.516 . S
C936 C937 1.502 . S
C936 C938 1.561 . S
C936 C939 1.526 . S
C937 H921 0.959 . S
C937 H922 0.959 . S
C937 H923 0.961 . S
C937 C936 1.502 . S
C938 H924 0.960 . S
C938 H925 0.961 . S
C938 H926 0.959 . S
C938 C936 1.561 . S
C939 C936 1.526 . S
C939 C940 1.396 . S
C939 C944 1.390 . S
C940 C934 1.465 . S
C940 C939 1.396 . S
C940 C941 1.399 . S
C941 H927 0.929 . S
C941 C940 1.399 . S
C941 C942 1.385 . S
C942 H928 0.931 . S
C942 C941 1.385 . S
C942 C943 1.389 . S
C943 C942 1.389 . S
C943 C944 1.387 . S
C944 H929 0.930 . S
C944 C939 1.390 . S
C944 C943 1.387 . S
H945 C957 0.930 . S
H946 C959 0.930 . S
H947 C960 0.930 . S
H948 C964 0.959 . S
H949 C964 0.959 . S
H950 C964 0.961 . S
H951 C965 0.960 . S
H952 C965 0.961 . S
H953 C965 0.959 . S
H954 C968 0.929 . S
H955 C969 0.931 . S
H956 C971 0.930 . S
C957 H945 0.930 . S
C957 C958 1.399 . S
C957 C962 1.399 . S
C958 C957 1.399 . S
C958 C959 1.376 . S
C959 H946 0.930 . S
C959 C958 1.376 . S
C959 C960 1.388 . S
C960 H947 0.930 . S
C960 C959 1.388 . S
C960 C961 1.390 . S
C961 C960 1.390 . S
C961 C962 1.394 . S
C961 C967 1.465 . S
C962 C957 1.399 . S
C962 C961 1.394 . S
C962 C963 1.516 . S
C963 C962 1.516 . S
C963 C964 1.502 . S
C963 C965 1.561 . S
C963 C966 1.526 . S
C964 H948 0.959 . S
C964 H949 0.959 . S
C964 H950 0.961 . S
C964 C963 1.502 . S
C965 H951 0.960 . S
C965 H952 0.961 . S
C965 H953 0.959 . S
C965 C963 1.561 . S
C966 C963 1.526 . S
C966 C967 1.396 . S
C966 C971 1.390 . S
C967 C961 1.465 . S
C967 C966 1.396 . S
C967 C968 1.399 . S
C968 H954 0.929 . S
C968 C967 1.399 . S
C968 C969 1.385 . S
C969 H955 0.931 . S
C969 C968 1.385 . S
C969 C970 1.389 . S
C970 C969 1.389 . S
C970 C971 1.387 . S
C971 H956 0.930 . S
C971 C966 1.390 . S
C971 C970 1.387 . S
H972 C984 0.930 . S
H973 C986 0.930 . S
H974 C987 0.930 . S
H975 C991 0.959 . S
H976 C991 0.959 . S
H977 C991 0.961 . S
H978 C992 0.960 . S
H979 C992 0.961 . S
H980 C992 0.959 . S
H981 C995 0.929 . S
H982 C996 0.931 1_545 S
H983 C998 0.930 . S
C984 H972 0.930 . S
C984 C985 1.399 . S
C984 C989 1.399 . S
C985 C984 1.399 . S
C985 C986 1.376 . S
C986 H973 0.930 . S
C986 C985 1.376 . S
C986 C987 1.388 . S
C987 H974 0.930 . S
C987 C986 1.388 . S
C987 C988 1.390 . S
C988 C987 1.390 . S
C988 C989 1.394 . S
C988 C994 1.465 . S
C989 C984 1.399 . S
C989 C988 1.394 . S
C989 C990 1.516 . S
C990 C989 1.516 . S
C990 C991 1.502 . S
C990 C992 1.561 . S
C990 C993 1.526 . S
C991 H975 0.959 . S
C991 H976 0.959 . S
C991 H977 0.961 . S
C991 C990 1.502 . S
C992 H978 0.960 . S
C992 H979 0.961 . S
C992 H980 0.959 . S
C992 C990 1.561 . S
C993 C990 1.526 . S
C993 C994 1.396 . S
C993 C998 1.390 . S
C994 C988 1.465 . S
C994 C993 1.396 . S
C994 C995 1.399 . S
C995 H981 0.929 . S
C995 C994 1.399 . S
C995 C996 1.385 . S
C996 H982 0.931 1_565 S
C996 C995 1.385 . S
C996 C997 1.389 . S
C997 C996 1.389 . S
C997 C998 1.387 . S
C998 H983 0.930 . S
C998 C993 1.390 . S
C998 C997 1.387 . S
H999 C1011 0.930 . S
H1000 C1013 0.930 . S
H1001 C1014 0.930 . S
H1002 C1018 0.959 . S
H1003 C1018 0.959 . S
H1004 C1018 0.961 . S
H1005 C1019 0.960 . S
H1006 C1019 0.961 . S
H1007 C1019 0.959 . S
H1008 C1022 0.929 . S
H1009 C1023 0.931 . S
H1010 C1025 0.930 . S
C1011 H999 0.930 . S
C1011 C1012 1.399 . S
C1011 C1016 1.399 . S
C1012 C1011 1.399 . S
C1012 C1013 1.376 . S
C1013 H1000 0.930 . S
C1013 C1012 1.376 . S
C1013 C1014 1.388 . S
C1014 H1001 0.930 . S
C1014 C1013 1.388 . S
C1014 C1015 1.390 . S
C1015 C1014 1.390 . S
C1015 C1016 1.394 . S
C1015 C1021 1.465 . S
C1016 C1011 1.399 . S
C1016 C1015 1.394 . S
C1016 C1017 1.516 . S
C1017 C1016 1.516 . S
C1017 C1018 1.502 . S
C1017 C1019 1.561 . S
C1017 C1020 1.526 . S
C1018 H1002 0.959 . S
C1018 H1003 0.959 . S
C1018 H1004 0.961 . S
C1018 C1017 1.502 . S
C1019 H1005 0.960 . S
C1019 H1006 0.961 . S
C1019 H1007 0.959 . S
C1019 C1017 1.561 . S
C1020 C1017 1.526 . S
C1020 C1021 1.396 . S
C1020 C1025 1.390 . S
C1021 C1015 1.465 . S
C1021 C1020 1.396 . S
C1021 C1022 1.399 . S
C1022 H1008 0.929 . S
C1022 C1021 1.399 . S
C1022 C1023 1.385 . S
C1023 H1009 0.931 . S
C1023 C1022 1.385 . S
C1023 C1024 1.389 . S
C1024 C1023 1.389 . S
C1024 C1025 1.387 . S
C1025 H1010 0.930 . S
C1025 C1020 1.390 . S
C1025 C1024 1.387 . S
H1026 C1038 0.930 . S
H1027 C1040 0.930 . S
H1028 C1041 0.930 . S
H1029 C1045 0.959 . S
H1030 C1045 0.959 . S
H1031 C1045 0.961 . S
H1032 C1046 0.960 . S
H1033 C1046 0.961 . S
H1034 C1046 0.959 . S
H1035 C1049 0.929 . S
H1036 C1050 0.931 . S
H1037 C1052 0.930 . S
C1038 H1026 0.930 . S
C1038 C1039 1.399 . S
C1038 C1043 1.399 . S
C1039 C1038 1.399 . S
C1039 C1040 1.376 . S
C1040 H1027 0.930 . S
C1040 C1039 1.376 . S
C1040 C1041 1.388 . S
C1041 H1028 0.930 . S
C1041 C1040 1.388 . S
C1041 C1042 1.390 . S
C1042 C1041 1.390 . S
C1042 C1043 1.394 . S
C1042 C1048 1.465 . S
C1043 C1038 1.399 . S
C1043 C1042 1.394 . S
C1043 C1044 1.516 . S
C1044 C1043 1.516 . S
C1044 C1045 1.502 . S
C1044 C1046 1.561 . S
C1044 C1047 1.526 . S
C1045 H1029 0.959 . S
C1045 H1030 0.959 . S
C1045 H1031 0.961 . S
C1045 C1044 1.502 . S
C1046 H1032 0.960 . S
C1046 H1033 0.961 . S
C1046 H1034 0.959 . S
C1046 C1044 1.561 . S
C1047 C1044 1.526 . S
C1047 C1048 1.396 . S
C1047 C1052 1.390 . S
C1048 C1042 1.465 . S
C1048 C1047 1.396 . S
C1048 C1049 1.399 . S
C1049 H1035 0.929 . S
C1049 C1048 1.399 . S
C1049 C1050 1.385 . S
C1050 H1036 0.931 . S
C1050 C1049 1.385 . S
C1050 C1051 1.389 . S
C1051 C1050 1.389 . S
C1051 C1052 1.387 . S
C1052 H1037 0.930 . S
C1052 C1047 1.390 . S
C1052 C1051 1.387 . S
H1053 C1065 0.930 . S
H1054 C1067 0.930 . S
H1055 C1068 0.930 . S
H1056 C1072 0.959 . S
H1057 C1072 0.959 . S
H1058 C1072 0.961 . S
H1059 C1073 0.960 . S
H1060 C1073 0.961 . S
H1061 C1073 0.959 . S
H1062 C1076 0.929 . S
H1063 C1077 0.931 . S
H1064 C1079 0.930 . S
C1065 H1053 0.930 . S
C1065 C1066 1.399 . S
C1065 C1070 1.399 . S
C1066 C1065 1.399 . S
C1066 C1067 1.376 . S
C1067 H1054 0.930 . S
C1067 C1066 1.376 . S
C1067 C1068 1.388 . S
C1068 H1055 0.930 . S
C1068 C1067 1.388 . S
C1068 C1069 1.390 . S
C1069 C1068 1.390 . S
C1069 C1070 1.394 . S
C1069 C1075 1.465 . S
C1070 C1065 1.399 . S
C1070 C1069 1.394 . S
C1070 C1071 1.516 . S
C1071 C1070 1.516 . S
C1071 C1072 1.502 . S
C1071 C1073 1.561 . S
C1071 C1074 1.526 . S
C1072 H1056 0.959 . S
C1072 H1057 0.959 . S
C1072 H1058 0.961 . S
C1072 C1071 1.502 . S
C1073 H1059 0.960 . S
C1073 H1060 0.961 . S
C1073 H1061 0.959 . S
C1073 C1071 1.561 . S
C1074 C1071 1.526 . S
C1074 C1075 1.396 . S
C1074 C1079 1.390 . S
C1075 C1069 1.465 . S
C1075 C1074 1.396 . S
C1075 C1076 1.399 . S
C1076 H1062 0.929 . S
C1076 C1075 1.399 . S
C1076 C1077 1.385 . S
C1077 H1063 0.931 . S
C1077 C1076 1.385 . S
C1077 C1078 1.389 . S
C1078 C1077 1.389 . S
C1078 C1079 1.387 . S
C1079 H1064 0.930 . S
C1079 C1074 1.390 . S
C1079 C1078 1.387 . S
H1080 C1092 0.930 . S
H1081 C1094 0.930 . S
H1082 C1095 0.930 . S
H1083 C1099 0.959 . S
H1084 C1099 0.959 . S
H1085 C1099 0.961 . S
H1086 C1100 0.960 . S
H1087 C1100 0.961 . S
H1088 C1100 0.959 . S
H1089 C1103 0.929 . S
H1090 C1104 0.931 . S
H1091 C1106 0.930 . S
C1092 H1080 0.930 . S
C1092 C1093 1.399 . S
C1092 C1097 1.399 . S
C1093 C1092 1.399 . S
C1093 C1094 1.376 . S
C1094 H1081 0.930 . S
C1094 C1093 1.376 . S
C1094 C1095 1.388 . S
C1095 H1082 0.930 . S
C1095 C1094 1.388 . S
C1095 C1096 1.390 . S
C1096 C1095 1.390 . S
C1096 C1097 1.394 . S
C1096 C1102 1.465 . S
C1097 C1092 1.399 . S
C1097 C1096 1.394 . S
C1097 C1098 1.516 . S
C1098 C1097 1.516 . S
C1098 C1099 1.502 . S
C1098 C1100 1.561 . S
C1098 C1101 1.526 . S
C1099 H1083 0.959 . S
C1099 H1084 0.959 . S
C1099 H1085 0.961 . S
C1099 C1098 1.502 . S
C1100 H1086 0.960 . S
C1100 H1087 0.961 . S
C1100 H1088 0.959 . S
C1100 C1098 1.561 . S
C1101 C1098 1.526 . S
C1101 C1102 1.396 . S
C1101 C1106 1.390 . S
C1102 C1096 1.465 . S
C1102 C1101 1.396 . S
C1102 C1103 1.399 . S
C1103 H1089 0.929 . S
C1103 C1102 1.399 . S
C1103 C1104 1.385 . S
C1104 H1090 0.931 . S
C1104 C1103 1.385 . S
C1104 C1105 1.389 . S
C1105 C1104 1.389 . S
C1105 C1106 1.387 . S
C1106 H1091 0.930 . S
C1106 C1101 1.390 . S
C1106 C1105 1.387 . S
H1107 C1119 0.930 . S
H1108 C1121 0.930 . S
H1109 C1122 0.930 . S
H1110 C1126 0.959 . S
H1111 C1126 0.959 . S
H1112 C1126 0.961 . S
H1113 C1127 0.960 . S
H1114 C1127 0.961 . S
H1115 C1127 0.959 . S
H1116 C1130 0.929 . S
H1117 C1131 0.931 . S
H1118 C1133 0.930 . S
C1119 H1107 0.930 . S
C1119 C1120 1.399 . S
C1119 C1124 1.399 . S
C1120 C1119 1.399 . S
C1120 C1121 1.376 . S
C1121 H1108 0.930 . S
C1121 C1120 1.376 . S
C1121 C1122 1.388 . S
C1122 H1109 0.930 . S
C1122 C1121 1.388 . S
C1122 C1123 1.390 . S
C1123 C1122 1.390 . S
C1123 C1124 1.394 . S
C1123 C1129 1.465 . S
C1124 C1119 1.399 . S
C1124 C1123 1.394 . S
C1124 C1125 1.516 . S
C1125 C1124 1.516 . S
C1125 C1126 1.502 . S
C1125 C1127 1.561 . S
C1125 C1128 1.526 . S
C1126 H1110 0.959 . S
C1126 H1111 0.959 . S
C1126 H1112 0.961 . S
C1126 C1125 1.502 . S
C1127 H1113 0.960 . S
C1127 H1114 0.961 . S
C1127 H1115 0.959 . S
C1127 C1125 1.561 . S
C1128 C1125 1.526 . S
C1128 C1129 1.396 . S
C1128 C1133 1.390 . S
C1129 C1123 1.465 . S
C1129 C1128 1.396 . S
C1129 C1130 1.399 . S
C1130 H1116 0.929 . S
C1130 C1129 1.399 . S
C1130 C1131 1.385 . S
C1131 H1117 0.931 . S
C1131 C1130 1.385 . S
C1131 C1132 1.389 . S
C1132 C1131 1.389 . S
C1132 C1133 1.387 . S
C1133 H1118 0.930 . S
C1133 C1128 1.390 . S
C1133 C1132 1.387 . S
H1134 C1146 0.930 . S
H1135 C1148 0.930 . S
H1136 C1149 0.930 . S
H1137 C1153 0.959 . S
H1138 C1153 0.959 . S
H1139 C1153 0.961 . S
H1140 C1154 0.960 . S
H1141 C1154 0.961 . S
H1142 C1154 0.959 . S
H1143 C1157 0.929 . S
H1144 C1158 0.931 . S
H1145 C1160 0.930 1_545 S
C1146 H1134 0.930 . S
C1146 C1147 1.399 . S
C1146 C1151 1.399 . S
C1147 C1146 1.399 . S
C1147 C1148 1.376 . S
C1148 H1135 0.930 . S
C1148 C1147 1.376 . S
C1148 C1149 1.388 . S
C1149 H1136 0.930 . S
C1149 C1148 1.388 . S
C1149 C1150 1.390 . S
C1150 C1149 1.390 . S
C1150 C1151 1.394 . S
C1150 C1156 1.465 . S
C1151 C1146 1.399 . S
C1151 C1150 1.394 . S
C1151 C1152 1.516 . S
C1152 C1151 1.516 . S
C1152 C1153 1.502 . S
C1152 C1154 1.561 1_565 S
C1152 C1155 1.526 . S
C1153 H1137 0.959 . S
C1153 H1138 0.959 . S
C1153 H1139 0.961 . S
C1153 C1152 1.502 . S
C1154 H1140 0.960 . S
C1154 H1141 0.961 . S
C1154 H1142 0.959 . S
C1154 C1152 1.561 1_545 S
C1155 C1152 1.526 . S
C1155 C1156 1.396 . S
C1155 C1160 1.390 . S
C1156 C1150 1.465 . S
C1156 C1155 1.396 . S
C1156 C1157 1.399 . S
C1157 H1143 0.929 . S
C1157 C1156 1.399 . S
C1157 C1158 1.385 . S
C1158 H1144 0.931 . S
C1158 C1157 1.385 . S
C1158 C1159 1.389 . S
C1159 C1158 1.389 . S
C1159 C1160 1.387 . S
C1160 H1145 0.930 1_565 S
C1160 C1155 1.390 . S
C1160 C1159 1.387 . S
H1161 C1173 0.930 . S
H1162 C1175 0.930 . S
H1163 C1176 0.930 . S
H1164 C1180 0.959 . S
H1165 C1180 0.959 . S
H1166 C1180 0.961 . S
H1167 C1181 0.960 . S
H1168 C1181 0.961 . S
H1169 C1181 0.959 . S
H1170 C1184 0.929 . S
H1171 C1185 0.931 . S
H1172 C1187 0.930 . S
C1173 H1161 0.930 . S
C1173 C1174 1.399 . S
C1173 C1178 1.399 . S
C1174 C1173 1.399 . S
C1174 C1175 1.376 . S
C1175 H1162 0.930 . S
C1175 C1174 1.376 . S
C1175 C1176 1.388 . S
C1176 H1163 0.930 . S
C1176 C1175 1.388 . S
C1176 C1177 1.390 . S
C1177 C1176 1.390 . S
C1177 C1178 1.394 . S
C1177 C1183 1.465 . S
C1178 C1173 1.399 . S
C1178 C1177 1.394 . S
C1178 C1179 1.516 . S
C1179 C1178 1.516 . S
C1179 C1180 1.502 . S
C1179 C1181 1.561 . S
C1179 C1182 1.526 . S
C1180 H1164 0.959 . S
C1180 H1165 0.959 . S
C1180 H1166 0.961 . S
C1180 C1179 1.502 . S
C1181 H1167 0.960 . S
C1181 H1168 0.961 . S
C1181 H1169 0.959 . S
C1181 C1179 1.561 . S
C1182 C1179 1.526 . S
C1182 C1183 1.396 . S
C1182 C1187 1.390 . S
C1183 C1177 1.465 . S
C1183 C1182 1.396 . S
C1183 C1184 1.399 . S
C1184 H1170 0.929 . S
C1184 C1183 1.399 . S
C1184 C1185 1.385 . S
C1185 H1171 0.931 . S
C1185 C1184 1.385 . S
C1185 C1186 1.389 . S
C1186 C1185 1.389 . S
C1186 C1187 1.387 . S
C1187 H1172 0.930 . S
C1187 C1182 1.390 . S
C1187 C1186 1.387 . S
H1188 C1200 0.930 . S
H1189 C1202 0.930 . S
H1190 C1203 0.930 . S
H1191 C1207 0.959 . S
H1192 C1207 0.959 . S
H1193 C1207 0.961 . S
H1194 C1208 0.960 . S
H1195 C1208 0.961 . S
H1196 C1208 0.959 . S
H1197 C1211 0.929 . S
H1198 C1212 0.931 . S
H1199 C1214 0.930 . S
C1200 H1188 0.930 . S
C1200 C1201 1.399 . S
C1200 C1205 1.399 . S
C1201 C1200 1.399 . S
C1201 C1202 1.376 . S
C1202 H1189 0.930 . S
C1202 C1201 1.376 . S
C1202 C1203 1.388 . S
C1203 H1190 0.930 . S
C1203 C1202 1.388 . S
C1203 C1204 1.390 . S
C1204 C1203 1.390 . S
C1204 C1205 1.394 . S
C1204 C1210 1.465 . S
C1205 C1200 1.399 . S
C1205 C1204 1.394 . S
C1205 C1206 1.516 . S
C1206 C1205 1.516 . S
C1206 C1207 1.502 . S
C1206 C1208 1.561 . S
C1206 C1209 1.526 . S
C1207 H1191 0.959 . S
C1207 H1192 0.959 . S
C1207 H1193 0.961 . S
C1207 C1206 1.502 . S
C1208 H1194 0.960 . S
C1208 H1195 0.961 . S
C1208 H1196 0.959 . S
C1208 C1206 1.561 . S
C1209 C1206 1.526 . S
C1209 C1210 1.396 . S
C1209 C1214 1.390 . S
C1210 C1204 1.465 . S
C1210 C1209 1.396 . S
C1210 C1211 1.399 . S
C1211 H1197 0.929 . S
C1211 C1210 1.399 . S
C1211 C1212 1.385 . S
C1212 H1198 0.931 . S
C1212 C1211 1.385 . S
C1212 C1213 1.389 . S
C1213 C1212 1.389 . S
C1213 C1214 1.387 . S
C1214 H1199 0.930 . S
C1214 C1209 1.390 . S
C1214 C1213 1.387 . S
H1215 C1227 0.930 . S
H1216 C1229 0.930 . S
H1217 C1230 0.930 . S
H1218 C1234 0.959 . S
H1219 C1234 0.959 1_554 S
H1220 C1234 0.961 . S
H1221 C1235 0.960 . S
H1222 C1235 0.961 . S
H1223 C1235 0.959 . S
H1224 C1238 0.929 . S
H1225 C1239 0.931 . S
H1226 C1241 0.930 1_554 S
C1227 H1215 0.930 . S
C1227 C1228 1.399 . S
C1227 C1232 1.399 . S
C1228 C1227 1.399 . S
C1228 C1229 1.376 . S
C1229 H1216 0.930 . S
C1229 C1228 1.376 . S
C1229 C1230 1.388 . S
C1230 H1217 0.930 . S
C1230 C1229 1.388 . S
C1230 C1231 1.390 . S
C1231 C1230 1.390 . S
C1231 C1232 1.394 . S
C1231 C1237 1.465 . S
C1232 C1227 1.399 . S
C1232 C1231 1.394 . S
C1232 C1233 1.516 . S
C1233 C1232 1.516 . S
C1233 C1234 1.502 . S
C1233 C1235 1.561 . S
C1233 C1236 1.526 . S
C1234 H1218 0.959 . S
C1234 H1219 0.959 1_556 S
C1234 H1220 0.961 . S
C1234 C1233 1.502 . S
C1235 H1221 0.960 . S
C1235 H1222 0.961 . S
C1235 H1223 0.959 . S
C1235 C1233 1.561 . S
C1236 C1233 1.526 . S
C1236 C1237 1.396 . S
C1236 C1241 1.390 . S
C1237 C1231 1.465 . S
C1237 C1236 1.396 . S
C1237 C1238 1.399 . S
C1238 H1224 0.929 . S
C1238 C1237 1.399 . S
C1238 C1239 1.385 . S
C1239 H1225 0.931 . S
C1239 C1238 1.385 . S
C1239 C1240 1.389 . S
C1240 C1239 1.389 . S
C1240 C1241 1.387 . S
C1241 H1226 0.930 1_556 S
C1241 C1236 1.390 . S
C1241 C1240 1.387 . S
H1242 C1254 0.930 . S
H1243 C1256 0.930 . S
H1244 C1257 0.930 . S
H1245 C1261 0.959 . S
H1246 C1261 0.959 . S
H1247 C1261 0.961 . S
H1248 C1262 0.960 . S
H1249 C1262 0.961 . S
H1250 C1262 0.959 . S
H1251 C1265 0.929 . S
H1252 C1266 0.931 . S
H1253 C1268 0.930 . S
C1254 H1242 0.930 . S
C1254 C1255 1.399 . S
C1254 C1259 1.399 . S
C1255 C1254 1.399 . S
C1255 C1256 1.376 . S
C1256 H1243 0.930 . S
C1256 C1255 1.376 . S
C1256 C1257 1.388 . S
C1257 H1244 0.930 . S
C1257 C1256 1.388 . S
C1257 C1258 1.390 . S
C1258 C1257 1.390 . S
C1258 C1259 1.394 . S
C1258 C1264 1.465 . S
C1259 C1254 1.399 . S
C1259 C1258 1.394 . S
C1259 C1260 1.516 . S
C1260 C1259 1.516 . S
C1260 C1261 1.502 . S
C1260 C1262 1.561 . S
C1260 C1263 1.526 . S
C1261 H1245 0.959 . S
C1261 H1246 0.959 . S
C1261 H1247 0.961 . S
C1261 C1260 1.502 . S
C1262 H1248 0.960 . S
C1262 H1249 0.961 . S
C1262 H1250 0.959 . S
C1262 C1260 1.561 . S
C1263 C1260 1.526 . S
C1263 C1264 1.396 . S
C1263 C1268 1.390 . S
C1264 C1258 1.465 . S
C1264 C1263 1.396 . S
C1264 C1265 1.399 . S
C1265 H1251 0.929 . S
C1265 C1264 1.399 . S
C1265 C1266 1.385 . S
C1266 H1252 0.931 . S
C1266 C1265 1.385 . S
C1266 C1267 1.389 . S
C1267 C1266 1.389 . S
C1267 C1268 1.387 . S
C1268 H1253 0.930 . S
C1268 C1263 1.390 . S
C1268 C1267 1.387 . S
H1269 C1281 0.930 . S
H1270 C1283 0.930 . S
H1271 C1284 0.930 . S
H1272 C1288 0.959 . S
H1273 C1288 0.959 . S
H1274 C1288 0.961 . S
H1275 C1289 0.960 . S
H1276 C1289 0.961 . S
H1277 C1289 0.959 . S
H1278 C1292 0.929 . S
H1279 C1293 0.931 . S
H1280 C1295 0.930 . S
C1281 H1269 0.930 . S
C1281 C1282 1.399 . S
C1281 C1286 1.399 . S
C1282 C1281 1.399 . S
C1282 C1283 1.376 . S
C1283 H1270 0.930 . S
C1283 C1282 1.376 . S
C1283 C1284 1.388 . S
C1284 H1271 0.930 . S
C1284 C1283 1.388 . S
C1284 C1285 1.390 . S
C1285 C1284 1.390 . S
C1285 C1286 1.394 . S
C1285 C1291 1.465 . S
C1286 C1281 1.399 . S
C1286 C1285 1.394 . S
C1286 C1287 1.516 . S
C1287 C1286 1.516 . S
C1287 C1288 1.502 . S
C1287 C1289 1.561 . S
C1287 C1290 1.526 . S
C1288 H1272 0.959 . S
C1288 H1273 0.959 . S
C1288 H1274 0.961 . S
C1288 C1287 1.502 . S
C1289 H1275 0.960 . S
C1289 H1276 0.961 . S
C1289 H1277 0.959 . S
C1289 C1287 1.561 . S
C1290 C1287 1.526 . S
C1290 C1291 1.396 . S
C1290 C1295 1.390 . S
C1291 C1285 1.465 . S
C1291 C1290 1.396 . S
C1291 C1292 1.399 . S
C1292 H1278 0.929 . S
C1292 C1291 1.399 . S
C1292 C1293 1.385 . S
C1293 H1279 0.931 . S
C1293 C1292 1.385 . S
C1293 C1294 1.389 . S
C1294 C1293 1.389 . S
C1294 C1295 1.387 . S
C1295 H1280 0.930 . S
C1295 C1290 1.390 . S
C1295 C1294 1.387 . S
H1296 C1308 0.930 . S
H1297 C1310 0.930 . S
H1298 C1311 0.930 . S
H1299 C1315 0.959 . S
H1300 C1315 0.959 . S
H1301 C1315 0.961 . S
H1302 C1316 0.960 . S
H1303 C1316 0.961 . S
H1304 C1316 0.959 . S
H1305 C1319 0.929 . S
H1306 C1320 0.931 . S
H1307 C1322 0.930 . S
C1308 H1296 0.930 . S
C1308 C1309 1.399 . S
C1308 C1313 1.399 . S
C1309 C1308 1.399 . S
C1309 C1310 1.376 . S
C1310 H1297 0.930 . S
C1310 C1309 1.376 . S
C1310 C1311 1.388 . S
C1311 H1298 0.930 . S
C1311 C1310 1.388 . S
C1311 C1312 1.390 . S
C1312 C1311 1.390 . S
C1312 C1313 1.394 . S
C1312 C1318 1.465 . S
C1313 C1308 1.399 . S
C1313 C1312 1.394 . S
C1313 C1314 1.516 . S
C1314 C1313 1.516 . S
C1314 C1315 1.502 . S
C1314 C1316 1.561 . S
C1314 C1317 1.526 . S
C1315 H1299 0.959 . S
C1315 H1300 0.959 . S
C1315 H1301 0.961 . S
C1315 C1314 1.502 . S
C1316 H1302 0.960 . S
C1316 H1303 0.961 . S
C1316 H1304 0.959 . S
C1316 C1314 1.561 . S
C1317 C1314 1.526 . S
C1317 C1318 1.396 . S
C1317 C1322 1.390 . S
C1318 C1312 1.465 . S
C1318 C1317 1.396 . S
C1318 C1319 1.399 . S
C1319 H1305 0.929 . S
C1319 C1318 1.399 . S
C1319 C1320 1.385 . S
C1320 H1306 0.931 . S
C1320 C1319 1.385 . S
C1320 C1321 1.389 . S
C1321 C1320 1.389 . S
C1321 C1322 1.387 . S
C1322 H1307 0.930 . S
C1322 C1317 1.390 . S
C1322 C1321 1.387 . S
H1323 C1335 0.930 . S
H1324 C1337 0.930 . S
H1325 C1338 0.930 . S
H1326 C1342 0.959 . S
H1327 C1342 0.959 . S
H1328 C1342 0.961 . S
H1329 C1343 0.960 . S
H1330 C1343 0.961 . S
H1331 C1343 0.959 . S
H1332 C1346 0.929 . S
H1333 C1347 0.931 . S
H1334 C1349 0.930 . S
C1335 H1323 0.930 . S
C1335 C1336 1.399 . S
C1335 C1340 1.399 . S
C1336 C1335 1.399 . S
C1336 C1337 1.376 . S
C1337 H1324 0.930 . S
C1337 C1336 1.376 . S
C1337 C1338 1.388 . S
C1338 H1325 0.930 . S
C1338 C1337 1.388 . S
C1338 C1339 1.390 . S
C1339 C1338 1.390 . S
C1339 C1340 1.394 . S
C1339 C1345 1.465 . S
C1340 C1335 1.399 . S
C1340 C1339 1.394 . S
C1340 C1341 1.516 . S
C1341 C1340 1.516 . S
C1341 C1342 1.502 . S
C1341 C1343 1.561 . S
C1341 C1344 1.526 . S
C1342 H1326 0.959 . S
C1342 H1327 0.959 . S
C1342 H1328 0.961 . S
C1342 C1341 1.502 . S
C1343 H1329 0.960 . S
C1343 H1330 0.961 . S
C1343 H1331 0.959 . S
C1343 C1341 1.561 . S
C1344 C1341 1.526 . S
C1344 C1345 1.396 . S
C1344 C1349 1.390 . S
C1345 C1339 1.465 . S
C1345 C1344 1.396 . S
C1345 C1346 1.399 . S
C1346 H1332 0.929 . S
C1346 C1345 1.399 . S
C1346 C1347 1.385 . S
C1347 H1333 0.931 . S
C1347 C1346 1.385 . S
C1347 C1348 1.389 . S
C1348 C1347 1.389 . S
C1348 C1349 1.387 . S
C1349 H1334 0.930 . S
C1349 C1344 1.390 . S
C1349 C1348 1.387 . S
H1350 C1362 0.930 . S
H1351 C1364 0.930 . S
H1352 C1365 0.930 . S
H1353 C1369 0.959 . S
H1354 C1369 0.959 . S
H1355 C1369 0.961 . S
H1356 C1370 0.960 . S
H1357 C1370 0.961 . S
H1358 C1370 0.959 . S
H1359 C1373 0.929 . S
H1360 C1374 0.931 . S
H1361 C1376 0.930 . S
C1362 H1350 0.930 . S
C1362 C1363 1.399 . S
C1362 C1367 1.399 . S
C1363 C1362 1.399 . S
C1363 C1364 1.376 . S
C1364 H1351 0.930 . S
C1364 C1363 1.376 . S
C1364 C1365 1.388 . S
C1365 H1352 0.930 . S
C1365 C1364 1.388 . S
C1365 C1366 1.390 . S
C1366 C1365 1.390 . S
C1366 C1367 1.394 . S
C1366 C1372 1.465 . S
C1367 C1362 1.399 . S
C1367 C1366 1.394 . S
C1367 C1368 1.516 . S
C1368 C1367 1.516 . S
C1368 C1369 1.502 . S
C1368 C1370 1.561 . S
C1368 C1371 1.526 . S
C1369 H1353 0.959 . S
C1369 H1354 0.959 . S
C1369 H1355 0.961 . S
C1369 C1368 1.502 . S
C1370 H1356 0.960 . S
C1370 H1357 0.961 . S
C1370 H1358 0.959 . S
C1370 C1368 1.561 . S
C1371 C1368 1.526 . S
C1371 C1372 1.396 . S
C1371 C1376 1.390 . S
C1372 C1366 1.465 . S
C1372 C1371 1.396 . S
C1372 C1373 1.399 . S
C1373 H1359 0.929 . S
C1373 C1372 1.399 . S
C1373 C1374 1.385 . S
C1374 H1360 0.931 . S
C1374 C1373 1.385 . S
C1374 C1375 1.389 . S
C1375 C1374 1.389 . S
C1375 C1376 1.387 . S
C1376 H1361 0.930 . S
C1376 C1371 1.390 . S
C1376 C1375 1.387 . S
H1377 C1389 0.930 . S
H1378 C1391 0.930 . S
H1379 C1392 0.930 . S
H1380 C1396 0.959 . S
H1381 C1396 0.959 . S
H1382 C1396 0.961 . S
H1383 C1397 0.960 . S
H1384 C1397 0.961 . S
H1385 C1397 0.959 . S
H1386 C1400 0.929 . S
H1387 C1401 0.931 . S
H1388 C1403 0.930 . S
C1389 H1377 0.930 . S
C1389 C1390 1.399 . S
C1389 C1394 1.399 . S
C1390 C1389 1.399 . S
C1390 C1391 1.376 . S
C1391 H1378 0.930 . S
C1391 C1390 1.376 . S
C1391 C1392 1.388 . S
C1392 H1379 0.930 . S
C1392 C1391 1.388 . S
C1392 C1393 1.390 . S
C1393 C1392 1.390 . S
C1393 C1394 1.394 . S
C1393 C1399 1.465 . S
C1394 C1389 1.399 . S
C1394 C1393 1.394 . S
C1394 C1395 1.516 . S
C1395 C1394 1.516 . S
C1395 C1396 1.502 . S
C1395 C1397 1.561 . S
C1395 C1398 1.526 . S
C1396 H1380 0.959 . S
C1396 H1381 0.959 . S
C1396 H1382 0.961 . S
C1396 C1395 1.502 . S
C1397 H1383 0.960 . S
C1397 H1384 0.961 . S
C1397 H1385 0.959 . S
C1397 C1395 1.561 . S
C1398 C1395 1.526 . S
C1398 C1399 1.396 . S
C1398 C1403 1.390 . S
C1399 C1393 1.465 . S
C1399 C1398 1.396 . S
C1399 C1400 1.399 . S
C1400 H1386 0.929 . S
C1400 C1399 1.399 . S
C1400 C1401 1.385 . S
C1401 H1387 0.931 . S
C1401 C1400 1.385 . S
C1401 C1402 1.389 . S
C1402 C1401 1.389 . S
C1402 C1403 1.387 . S
C1403 H1388 0.930 . S
C1403 C1398 1.390 . S
C1403 C1402 1.387 . S
H1404 C1416 0.930 . S
H1405 C1418 0.930 . S
H1406 C1419 0.930 . S
H1407 C1423 0.959 . S
H1408 C1423 0.959 . S
H1409 C1423 0.961 . S
H1410 C1424 0.960 . S
H1411 C1424 0.961 . S
H1412 C1424 0.959 . S
H1413 C1427 0.929 1_545 S
H1414 C1428 0.931 . S
H1415 C1430 0.930 . S
C1416 H1404 0.930 . S
C1416 C1417 1.399 . S
C1416 C1421 1.399 . S
C1417 C1416 1.399 . S
C1417 C1418 1.376 . S
C1418 H1405 0.930 . S
C1418 C1417 1.376 . S
C1418 C1419 1.388 . S
C1419 H1406 0.930 . S
C1419 C1418 1.388 . S
C1419 C1420 1.390 . S
C1420 C1419 1.390 . S
C1420 C1421 1.394 . S
C1420 C1426 1.465 . S
C1421 C1416 1.399 . S
C1421 C1420 1.394 . S
C1421 C1422 1.516 . S
C1422 C1421 1.516 . S
C1422 C1423 1.502 . S
C1422 C1424 1.561 . S
C1422 C1425 1.526 . S
C1423 H1407 0.959 . S
C1423 H1408 0.959 . S
C1423 H1409 0.961 . S
C1423 C1422 1.502 . S
C1424 H1410 0.960 . S
C1424 H1411 0.961 . S
C1424 H1412 0.959 . S
C1424 C1422 1.561 . S
C1425 C1422 1.526 . S
C1425 C1426 1.396 . S
C1425 C1430 1.390 . S
C1426 C1420 1.465 . S
C1426 C1425 1.396 . S
C1426 C1427 1.399 . S
C1427 H1413 0.929 1_565 S
C1427 C1426 1.399 . S
C1427 C1428 1.385 1_565 S
C1428 H1414 0.931 . S
C1428 C1427 1.385 1_545 S
C1428 C1429 1.389 1_545 S
C1429 C1428 1.389 1_565 S
C1429 C1430 1.387 . S
C1430 H1415 0.930 . S
C1430 C1425 1.390 . S
C1430 C1429 1.387 . S
H1431 C1443 0.930 . S
H1432 C1445 0.930 . S
H1433 C1446 0.930 . S
H1434 C1450 0.959 . S
H1435 C1450 0.959 . S
H1436 C1450 0.961 . S
H1437 C1451 0.960 . S
H1438 C1451 0.961 . S
H1439 C1451 0.959 . S
H1440 C1454 0.929 . S
H1441 C1455 0.931 . S
H1442 C1457 0.930 . S
C1443 H1431 0.930 . S
C1443 C1444 1.399 . S
C1443 C1448 1.399 . S
C1444 C1443 1.399 . S
C1444 C1445 1.376 . S
C1445 H1432 0.930 . S
C1445 C1444 1.376 . S
C1445 C1446 1.388 . S
C1446 H1433 0.930 . S
C1446 C1445 1.388 . S
C1446 C1447 1.390 . S
C1447 C1446 1.390 . S
C1447 C1448 1.394 . S
C1447 C1453 1.465 . S
C1448 C1443 1.399 . S
C1448 C1447 1.394 . S
C1448 C1449 1.516 . S
C1449 C1448 1.516 . S
C1449 C1450 1.502 . S
C1449 C1451 1.561 . S
C1449 C1452 1.526 . S
C1450 H1434 0.959 . S
C1450 H1435 0.959 . S
C1450 H1436 0.961 . S
C1450 C1449 1.502 . S
C1451 H1437 0.960 . S
C1451 H1438 0.961 . S
C1451 H1439 0.959 . S
C1451 C1449 1.561 . S
C1452 C1449 1.526 . S
C1452 C1453 1.396 . S
C1452 C1457 1.390 . S
C1453 C1447 1.465 . S
C1453 C1452 1.396 . S
C1453 C1454 1.399 . S
C1454 H1440 0.929 . S
C1454 C1453 1.399 . S
C1454 C1455 1.385 . S
C1455 H1441 0.931 . S
C1455 C1454 1.385 . S
C1455 C1456 1.389 . S
C1456 C1455 1.389 . S
C1456 C1457 1.387 . S
C1457 H1442 0.930 . S
C1457 C1452 1.390 . S
C1457 C1456 1.387 . S
H1458 C1470 0.930 . S
H1459 C1472 0.930 . S
H1460 C1473 0.930 . S
H1461 C1477 0.959 . S
H1462 C1477 0.959 . S
H1463 C1477 0.961 . S
H1464 C1478 0.960 . S
H1465 C1478 0.961 . S
H1466 C1478 0.959 . S
H1467 C1481 0.929 . S
H1468 C1482 0.931 . S
H1469 C1484 0.930 . S
C1470 H1458 0.930 . S
C1470 C1471 1.399 . S
C1470 C1475 1.399 . S
C1471 C1470 1.399 . S
C1471 C1472 1.376 . S
C1472 H1459 0.930 . S
C1472 C1471 1.376 . S
C1472 C1473 1.388 . S
C1473 H1460 0.930 . S
C1473 C1472 1.388 . S
C1473 C1474 1.390 . S
C1474 C1473 1.390 . S
C1474 C1475 1.394 . S
C1474 C1480 1.465 . S
C1475 C1470 1.399 . S
C1475 C1474 1.394 . S
C1475 C1476 1.516 . S
C1476 C1475 1.516 . S
C1476 C1477 1.502 . S
C1476 C1478 1.561 . S
C1476 C1479 1.526 . S
C1477 H1461 0.959 . S
C1477 H1462 0.959 . S
C1477 H1463 0.961 . S
C1477 C1476 1.502 . S
C1478 H1464 0.960 . S
C1478 H1465 0.961 . S
C1478 H1466 0.959 . S
C1478 C1476 1.561 . S
C1479 C1476 1.526 . S
C1479 C1480 1.396 . S
C1479 C1484 1.390 . S
C1480 C1474 1.465 . S
C1480 C1479 1.396 . S
C1480 C1481 1.399 . S
C1481 H1467 0.929 . S
C1481 C1480 1.399 . S
C1481 C1482 1.385 . S
C1482 H1468 0.931 . S
C1482 C1481 1.385 . S
C1482 C1483 1.389 . S
C1483 C1482 1.389 . S
C1483 C1484 1.387 . S
C1484 H1469 0.930 . S
C1484 C1479 1.390 . S
C1484 C1483 1.387 . S
H1485 C1497 0.930 . S
H1486 C1499 0.930 . S
H1487 C1500 0.930 . S
H1488 C1504 0.959 . S
H1489 C1504 0.959 . S
H1490 C1504 0.961 . S
H1491 C1505 0.960 . S
H1492 C1505 0.961 . S
H1493 C1505 0.959 . S
H1494 C1508 0.929 . S
H1495 C1509 0.931 . S
H1496 C1511 0.930 . S
C1497 H1485 0.930 . S
C1497 C1498 1.399 . S
C1497 C1502 1.399 . S
C1498 C1497 1.399 . S
C1498 C1499 1.376 . S
C1499 H1486 0.930 . S
C1499 C1498 1.376 . S
C1499 C1500 1.388 . S
C1500 H1487 0.930 . S
C1500 C1499 1.388 . S
C1500 C1501 1.390 . S
C1501 C1500 1.390 . S
C1501 C1502 1.394 . S
C1501 C1507 1.465 . S
C1502 C1497 1.399 . S
C1502 C1501 1.394 . S
C1502 C1503 1.516 . S
C1503 C1502 1.516 . S
C1503 C1504 1.502 . S
C1503 C1505 1.561 . S
C1503 C1506 1.526 . S
C1504 H1488 0.959 . S
C1504 H1489 0.959 . S
C1504 H1490 0.961 . S
C1504 C1503 1.502 . S
C1505 H1491 0.960 . S
C1505 H1492 0.961 . S
C1505 H1493 0.959 . S
C1505 C1503 1.561 . S
C1506 C1503 1.526 . S
C1506 C1507 1.396 . S
C1506 C1511 1.390 . S
C1507 C1501 1.465 . S
C1507 C1506 1.396 . S
C1507 C1508 1.399 . S
C1508 H1494 0.929 . S
C1508 C1507 1.399 . S
C1508 C1509 1.385 . S
C1509 H1495 0.931 . S
C1509 C1508 1.385 . S
C1509 C1510 1.389 . S
C1510 C1509 1.389 . S
C1510 C1511 1.387 . S
C1511 H1496 0.930 . S
C1511 C1506 1.390 . S
C1511 C1510 1.387 . S
H1512 C1524 0.930 . S
H1513 C1526 0.930 . S
H1514 C1527 0.930 . S
H1515 C1531 0.959 . S
H1516 C1531 0.959 . S
H1517 C1531 0.961 . S
H1518 C1532 0.960 . S
H1519 C1532 0.961 . S
H1520 C1532 0.959 . S
H1521 C1535 0.929 . S
H1522 C1536 0.931 . S
H1523 C1538 0.930 . S
C1524 H1512 0.930 . S
C1524 C1525 1.399 . S
C1524 C1529 1.399 . S
C1525 C1524 1.399 . S
C1525 C1526 1.376 . S
C1526 H1513 0.930 . S
C1526 C1525 1.376 . S
C1526 C1527 1.388 . S
C1527 H1514 0.930 . S
C1527 C1526 1.388 . S
C1527 C1528 1.390 . S
C1528 C1527 1.390 . S
C1528 C1529 1.394 . S
C1528 C1534 1.465 . S
C1529 C1524 1.399 . S
C1529 C1528 1.394 . S
C1529 C1530 1.516 . S
C1530 C1529 1.516 . S
C1530 C1531 1.502 . S
C1530 C1532 1.561 . S
C1530 C1533 1.526 . S
C1531 H1515 0.959 . S
C1531 H1516 0.959 . S
C1531 H1517 0.961 . S
C1531 C1530 1.502 . S
C1532 H1518 0.960 . S
C1532 H1519 0.961 . S
C1532 H1520 0.959 . S
C1532 C1530 1.561 . S
C1533 C1530 1.526 . S
C1533 C1534 1.396 . S
C1533 C1538 1.390 . S
C1534 C1528 1.465 . S
C1534 C1533 1.396 . S
C1534 C1535 1.399 . S
C1535 H1521 0.929 . S
C1535 C1534 1.399 . S
C1535 C1536 1.385 . S
C1536 H1522 0.931 . S
C1536 C1535 1.385 . S
C1536 C1537 1.389 . S
C1537 C1536 1.389 . S
C1537 C1538 1.387 . S
C1538 H1523 0.930 . S
C1538 C1533 1.390 . S
C1538 C1537 1.387 . S
H1539 C1551 0.930 . S
H1540 C1553 0.930 . S
H1541 C1554 0.930 . S
H1542 C1558 0.959 . S
H1543 C1558 0.959 1_554 S
H1544 C1558 0.961 . S
H1545 C1559 0.960 . S
H1546 C1559 0.961 1_554 S
H1547 C1559 0.959 . S
H1548 C1562 0.929 . S
H1549 C1563 0.931 . S
H1550 C1565 0.930 . S
C1551 H1539 0.930 . S
C1551 C1552 1.399 . S
C1551 C1556 1.399 . S
C1552 C1551 1.399 . S
C1552 C1553 1.376 . S
C1553 H1540 0.930 . S
C1553 C1552 1.376 . S
C1553 C1554 1.388 . S
C1554 H1541 0.930 . S
C1554 C1553 1.388 . S
C1554 C1555 1.390 . S
C1555 C1554 1.390 . S
C1555 C1556 1.394 . S
C1555 C1561 1.465 . S
C1556 C1551 1.399 . S
C1556 C1555 1.394 . S
C1556 C1557 1.516 . S
C1557 C1556 1.516 . S
C1557 C1558 1.502 . S
C1557 C1559 1.561 . S
C1557 C1560 1.526 . S
C1558 H1542 0.959 . S
C1558 H1543 0.959 1_556 S
C1558 H1544 0.961 . S
C1558 C1557 1.502 . S
C1559 H1545 0.960 . S
C1559 H1546 0.961 1_556 S
C1559 H1547 0.959 . S
C1559 C1557 1.561 . S
C1560 C1557 1.526 . S
C1560 C1561 1.396 . S
C1560 C1565 1.390 . S
C1561 C1555 1.465 . S
C1561 C1560 1.396 . S
C1561 C1562 1.399 . S
C1562 H1548 0.929 . S
C1562 C1561 1.399 . S
C1562 C1563 1.385 . S
C1563 H1549 0.931 . S
C1563 C1562 1.385 . S
C1563 C1564 1.389 . S
C1564 C1563 1.389 . S
C1564 C1565 1.387 . S
C1565 H1550 0.930 . S
C1565 C1560 1.390 . S
C1565 C1564 1.387 . S
H1566 C1578 0.930 . S
H1567 C1580 0.930 . S
H1568 C1581 0.930 . S
H1569 C1585 0.959 . S
H1570 C1585 0.959 . S
H1571 C1585 0.961 . S
H1572 C1586 0.960 . S
H1573 C1586 0.961 . S
H1574 C1586 0.959 . S
H1575 C1589 0.929 . S
H1576 C1590 0.931 . S
H1577 C1592 0.930 . S
C1578 H1566 0.930 . S
C1578 C1579 1.399 . S
C1578 C1583 1.399 . S
C1579 C1578 1.399 . S
C1579 C1580 1.376 . S
C1580 H1567 0.930 . S
C1580 C1579 1.376 . S
C1580 C1581 1.388 . S
C1581 H1568 0.930 . S
C1581 C1580 1.388 . S
C1581 C1582 1.390 . S
C1582 C1581 1.390 . S
C1582 C1583 1.394 . S
C1582 C1588 1.465 . S
C1583 C1578 1.399 . S
C1583 C1582 1.394 . S
C1583 C1584 1.516 . S
C1584 C1583 1.516 . S
C1584 C1585 1.502 . S
C1584 C1586 1.561 . S
C1584 C1587 1.526 . S
C1585 H1569 0.959 . S
C1585 H1570 0.959 . S
C1585 H1571 0.961 . S
C1585 C1584 1.502 . S
C1586 H1572 0.960 . S
C1586 H1573 0.961 . S
C1586 H1574 0.959 . S
C1586 C1584 1.561 . S
C1587 C1584 1.526 . S
C1587 C1588 1.396 . S
C1587 C1592 1.390 . S
C1588 C1582 1.465 . S
C1588 C1587 1.396 . S
C1588 C1589 1.399 . S
C1589 H1575 0.929 . S
C1589 C1588 1.399 . S
C1589 C1590 1.385 . S
C1590 H1576 0.931 . S
C1590 C1589 1.385 . S
C1590 C1591 1.389 . S
C1591 C1590 1.389 . S
C1591 C1592 1.387 . S
C1592 H1577 0.930 . S
C1592 C1587 1.390 . S
C1592 C1591 1.387 . S
H1593 C1605 0.930 . S
H1594 C1607 0.930 . S
H1595 C1608 0.930 . S
H1596 C1612 0.959 . S
H1597 C1612 0.959 . S
H1598 C1612 0.961 . S
H1599 C1613 0.960 . S
H1600 C1613 0.961 . S
H1601 C1613 0.959 . S
H1602 C1616 0.929 . S
H1603 C1617 0.931 . S
H1604 C1619 0.930 . S
C1605 H1593 0.930 . S
C1605 C1606 1.399 . S
C1605 C1610 1.399 . S
C1606 C1605 1.399 . S
C1606 C1607 1.376 . S
C1607 H1594 0.930 . S
C1607 C1606 1.376 . S
C1607 C1608 1.388 . S
C1608 H1595 0.930 . S
C1608 C1607 1.388 . S
C1608 C1609 1.390 . S
C1609 C1608 1.390 . S
C1609 C1610 1.394 . S
C1609 C1615 1.465 . S
C1610 C1605 1.399 . S
C1610 C1609 1.394 . S
C1610 C1611 1.516 . S
C1611 C1610 1.516 . S
C1611 C1612 1.502 . S
C1611 C1613 1.561 . S
C1611 C1614 1.526 . S
C1612 H1596 0.959 . S
C1612 H1597 0.959 . S
C1612 H1598 0.961 . S
C1612 C1611 1.502 . S
C1613 H1599 0.960 . S
C1613 H1600 0.961 . S
C1613 H1601 0.959 . S
C1613 C1611 1.561 . S
C1614 C1611 1.526 . S
C1614 C1615 1.396 . S
C1614 C1619 1.390 . S
C1615 C1609 1.465 . S
C1615 C1614 1.396 . S
C1615 C1616 1.399 . S
C1616 H1602 0.929 . S
C1616 C1615 1.399 . S
C1616 C1617 1.385 . S
C1617 H1603 0.931 . S
C1617 C1616 1.385 . S
C1617 C1618 1.389 . S
C1618 C1617 1.389 . S
C1618 C1619 1.387 . S
C1619 H1604 0.930 . S
C1619 C1614 1.390 . S
C1619 C1618 1.387 . S
H1620 C1632 0.930 . S
H1621 C1634 0.930 . S
H1622 C1635 0.930 . S
H1623 C1639 0.959 . S
H1624 C1639 0.959 . S
H1625 C1639 0.961 . S
H1626 C1640 0.960 . S
H1627 C1640 0.961 . S
H1628 C1640 0.959 . S
H1629 C1643 0.929 . S
H1630 C1644 0.931 . S
H1631 C1646 0.930 . S
C1632 H1620 0.930 . S
C1632 C1633 1.399 . S
C1632 C1637 1.399 . S
C1633 C1632 1.399 . S
C1633 C1634 1.376 . S
C1634 H1621 0.930 . S
C1634 C1633 1.376 . S
C1634 C1635 1.388 . S
C1635 H1622 0.930 . S
C1635 C1634 1.388 . S
C1635 C1636 1.390 . S
C1636 C1635 1.390 . S
C1636 C1637 1.394 . S
C1636 C1642 1.465 . S
C1637 C1632 1.399 . S
C1637 C1636 1.394 . S
C1637 C1638 1.516 . S
C1638 C1637 1.516 . S
C1638 C1639 1.502 . S
C1638 C1640 1.561 . S
C1638 C1641 1.526 . S
C1639 H1623 0.959 . S
C1639 H1624 0.959 . S
C1639 H1625 0.961 . S
C1639 C1638 1.502 . S
C1640 H1626 0.960 . S
C1640 H1627 0.961 . S
C1640 H1628 0.959 . S
C1640 C1638 1.561 . S
C1641 C1638 1.526 . S
C1641 C1642 1.396 . S
C1641 C1646 1.390 . S
C1642 C1636 1.465 . S
C1642 C1641 1.396 . S
C1642 C1643 1.399 . S
C1643 H1629 0.929 . S
C1643 C1642 1.399 . S
C1643 C1644 1.385 . S
C1644 H1630 0.931 . S
C1644 C1643 1.385 . S
C1644 C1645 1.389 . S
C1645 C1644 1.389 . S
C1645 C1646 1.387 . S
C1646 H1631 0.930 . S
C1646 C1641 1.390 . S
C1646 C1645 1.387 . S
H1647 C1659 0.930 . S
H1648 C1661 0.930 . S
H1649 C1662 0.930 . S
H1650 C1666 0.959 . S
H1651 C1666 0.959 . S
H1652 C1666 0.961 . S
H1653 C1667 0.960 . S
H1654 C1667 0.961 . S
H1655 C1667 0.959 . S
H1656 C1670 0.929 . S
H1657 C1671 0.931 . S
H1658 C1673 0.930 . S
C1659 H1647 0.930 . S
C1659 C1660 1.399 . S
C1659 C1664 1.399 . S
C1660 C1659 1.399 . S
C1660 C1661 1.376 . S
C1661 H1648 0.930 . S
C1661 C1660 1.376 . S
C1661 C1662 1.388 . S
C1662 H1649 0.930 . S
C1662 C1661 1.388 . S
C1662 C1663 1.390 . S
C1663 C1662 1.390 . S
C1663 C1664 1.394 . S
C1663 C1669 1.465 . S
C1664 C1659 1.399 . S
C1664 C1663 1.394 . S
C1664 C1665 1.516 . S
C1665 C1664 1.516 . S
C1665 C1666 1.502 . S
C1665 C1667 1.561 . S
C1665 C1668 1.526 . S
C1666 H1650 0.959 . S
C1666 H1651 0.959 . S
C1666 H1652 0.961 . S
C1666 C1665 1.502 . S
C1667 H1653 0.960 . S
C1667 H1654 0.961 . S
C1667 H1655 0.959 . S
C1667 C1665 1.561 . S
C1668 C1665 1.526 . S
C1668 C1669 1.396 . S
C1668 C1673 1.390 . S
C1669 C1663 1.465 . S
C1669 C1668 1.396 . S
C1669 C1670 1.399 . S
C1670 H1656 0.929 . S
C1670 C1669 1.399 . S
C1670 C1671 1.385 . S
C1671 H1657 0.931 . S
C1671 C1670 1.385 . S
C1671 C1672 1.389 . S
C1672 C1671 1.389 . S
C1672 C1673 1.387 . S
C1673 H1658 0.930 . S
C1673 C1668 1.390 . S
C1673 C1672 1.387 . S
H1674 C1686 0.930 . S
H1675 C1688 0.930 . S
H1676 C1689 0.930 . S
H1677 C1693 0.959 . S
H1678 C1693 0.959 . S
H1679 C1693 0.961 . S
H1680 C1694 0.960 . S
H1681 C1694 0.961 . S
H1682 C1694 0.959 . S
H1683 C1697 0.929 . S
H1684 C1698 0.931 . S
H1685 C1700 0.930 . S
C1686 H1674 0.930 . S
C1686 C1687 1.399 . S
C1686 C1691 1.399 . S
C1687 C1686 1.399 . S
C1687 C1688 1.376 . S
C1688 H1675 0.930 . S
C1688 C1687 1.376 . S
C1688 C1689 1.388 . S
C1689 H1676 0.930 . S
C1689 C1688 1.388 . S
C1689 C1690 1.390 . S
C1690 C1689 1.390 . S
C1690 C1691 1.394 . S
C1690 C1696 1.465 . S
C1691 C1686 1.399 . S
C1691 C1690 1.394 . S
C1691 C1692 1.516 . S
C1692 C1691 1.516 . S
C1692 C1693 1.502 . S
C1692 C1694 1.561 . S
C1692 C1695 1.526 . S
C1693 H1677 0.959 . S
C1693 H1678 0.959 . S
C1693 H1679 0.961 . S
C1693 C1692 1.502 . S
C1694 H1680 0.960 . S
C1694 H1681 0.961 . S
C1694 H1682 0.959 . S
C1694 C1692 1.561 . S
C1695 C1692 1.526 . S
C1695 C1696 1.396 . S
C1695 C1700 1.390 . S
C1696 C1690 1.465 . S
C1696 C1695 1.396 . S
C1696 C1697 1.399 . S
C1697 H1683 0.929 . S
C1697 C1696 1.399 . S
C1697 C1698 1.385 . S
C1698 H1684 0.931 . S
C1698 C1697 1.385 . S
C1698 C1699 1.389 . S
C1699 C1698 1.389 . S
C1699 C1700 1.387 . S
C1700 H1685 0.930 . S
C1700 C1695 1.390 . S
C1700 C1699 1.387 . S
H1701 C1713 0.930 . S
H1702 C1715 0.930 . S
H1703 C1716 0.930 . S
H1704 C1720 0.959 . S
H1705 C1720 0.959 . S
H1706 C1720 0.961 . S
H1707 C1721 0.960 . S
H1708 C1721 0.961 . S
H1709 C1721 0.959 . S
H1710 C1724 0.929 . S
H1711 C1725 0.931 . S
H1712 C1727 0.930 . S
C1713 H1701 0.930 . S
C1713 C1714 1.399 . S
C1713 C1718 1.399 . S
C1714 C1713 1.399 . S
C1714 C1715 1.376 . S
C1715 H1702 0.930 . S
C1715 C1714 1.376 . S
C1715 C1716 1.388 . S
C1716 H1703 0.930 . S
C1716 C1715 1.388 . S
C1716 C1717 1.390 . S
C1717 C1716 1.390 . S
C1717 C1718 1.394 . S
C1717 C1723 1.465 . S
C1718 C1713 1.399 . S
C1718 C1717 1.394 . S
C1718 C1719 1.516 . S
C1719 C1718 1.516 . S
C1719 C1720 1.502 . S
C1719 C1721 1.561 . S
C1719 C1722 1.526 . S
C1720 H1704 0.959 . S
C1720 H1705 0.959 . S
C1720 H1706 0.961 . S
C1720 C1719 1.502 . S
C1721 H1707 0.960 . S
C1721 H1708 0.961 . S
C1721 H1709 0.959 . S
C1721 C1719 1.561 . S
C1722 C1719 1.526 . S
C1722 C1723 1.396 . S
C1722 C1727 1.390 . S
C1723 C1717 1.465 . S
C1723 C1722 1.396 . S
C1723 C1724 1.399 . S
C1724 H1710 0.929 . S
C1724 C1723 1.399 . S
C1724 C1725 1.385 . S
C1725 H1711 0.931 . S
C1725 C1724 1.385 . S
C1725 C1726 1.389 . S
C1726 C1725 1.389 . S
C1726 C1727 1.387 . S
C1727 H1712 0.930 . S
C1727 C1722 1.390 . S
C1727 C1726 1.387 . S
H1728 C1740 0.930 . S
H1729 C1742 0.930 . S
H1730 C1743 0.930 . S
H1731 C1747 0.959 . S
H1732 C1747 0.959 . S
H1733 C1747 0.961 . S
H1734 C1748 0.960 . S
H1735 C1748 0.961 . S
H1736 C1748 0.959 . S
H1737 C1751 0.929 . S
H1738 C1752 0.931 . S
H1739 C1754 0.930 . S
C1740 H1728 0.930 . S
C1740 C1741 1.399 . S
C1740 C1745 1.399 . S
C1741 C1740 1.399 . S
C1741 C1742 1.376 . S
C1742 H1729 0.930 . S
C1742 C1741 1.376 . S
C1742 C1743 1.388 . S
C1743 H1730 0.930 . S
C1743 C1742 1.388 . S
C1743 C1744 1.390 . S
C1744 C1743 1.390 . S
C1744 C1745 1.394 . S
C1744 C1750 1.465 . S
C1745 C1740 1.399 . S
C1745 C1744 1.394 . S
C1745 C1746 1.516 . S
C1746 C1745 1.516 . S
C1746 C1747 1.502 . S
C1746 C1748 1.561 . S
C1746 C1749 1.526 . S
C1747 H1731 0.959 . S
C1747 H1732 0.959 . S
C1747 H1733 0.961 . S
C1747 C1746 1.502 . S
C1748 H1734 0.960 . S
C1748 H1735 0.961 . S
C1748 H1736 0.959 . S
C1748 C1746 1.561 . S
C1749 C1746 1.526 . S
C1749 C1750 1.396 . S
C1749 C1754 1.390 . S
C1750 C1744 1.465 . S
C1750 C1749 1.396 . S
C1750 C1751 1.399 . S
C1751 H1737 0.929 . S
C1751 C1750 1.399 . S
C1751 C1752 1.385 . S
C1752 H1738 0.931 . S
C1752 C1751 1.385 . S
C1752 C1753 1.389 . S
C1753 C1752 1.389 . S
C1753 C1754 1.387 . S
C1754 H1739 0.930 . S
C1754 C1749 1.390 . S
C1754 C1753 1.387 . S
H1755 C1767 0.930 . S
H1756 C1769 0.930 . S
H1757 C1770 0.930 . S
H1758 C1774 0.959 . S
H1759 C1774 0.959 . S
H1760 C1774 0.961 . S
H1761 C1775 0.960 . S
H1762 C1775 0.961 . S
H1763 C1775 0.959 . S
H1764 C1778 0.929 . S
H1765 C1779 0.931 . S
H1766 C1781 0.930 . S
C1767 H1755 0.930 . S
C1767 C1768 1.399 . S
C1767 C1772 1.399 . S
C1768 C1767 1.399 . S
C1768 C1769 1.376 . S
C1769 H1756 0.930 . S
C1769 C1768 1.376 . S
C1769 C1770 1.388 . S
C1770 H1757 0.930 . S
C1770 C1769 1.388 . S
C1770 C1771 1.390 . S
C1771 C1770 1.390 . S
C1771 C1772 1.394 . S
C1771 C1777 1.465 . S
C1772 C1767 1.399 . S
C1772 C1771 1.394 . S
C1772 C1773 1.516 . S
C1773 C1772 1.516 . S
C1773 C1774 1.502 . S
C1773 C1775 1.561 . S
C1773 C1776 1.526 . S
C1774 H1758 0.959 . S
C1774 H1759 0.959 . S
C1774 H1760 0.961 . S
C1774 C1773 1.502 . S
C1775 H1761 0.960 . S
C1775 H1762 0.961 . S
C1775 H1763 0.959 . S
C1775 C1773 1.561 . S
C1776 C1773 1.526 . S
C1776 C1777 1.396 . S
C1776 C1781 1.390 . S
C1777 C1771 1.465 . S
C1777 C1776 1.396 . S
C1777 C1778 1.399 . S
C1778 H1764 0.929 . S
C1778 C1777 1.399 . S
C1778 C1779 1.385 . S
C1779 H1765 0.931 . S
C1779 C1778 1.385 . S
C1779 C1780 1.389 . S
C1780 C1779 1.389 . S
C1780 C1781 1.387 . S
C1781 H1766 0.930 . S
C1781 C1776 1.390 . S
C1781 C1780 1.387 . S
H1782 C1794 0.930 . S
H1783 C1796 0.930 . S
H1784 C1797 0.930 . S
H1785 C1801 0.959 . S
H1786 C1801 0.959 . S
H1787 C1801 0.961 . S
H1788 C1802 0.960 . S
H1789 C1802 0.961 . S
H1790 C1802 0.959 . S
H1791 C1805 0.929 . S
H1792 C1806 0.931 . S
H1793 C1808 0.930 . S
C1794 H1782 0.930 . S
C1794 C1795 1.399 . S
C1794 C1799 1.399 . S
C1795 C1794 1.399 . S
C1795 C1796 1.376 . S
C1796 H1783 0.930 . S
C1796 C1795 1.376 . S
C1796 C1797 1.388 . S
C1797 H1784 0.930 . S
C1797 C1796 1.388 . S
C1797 C1798 1.390 . S
C1798 C1797 1.390 . S
C1798 C1799 1.394 . S
C1798 C1804 1.465 . S
C1799 C1794 1.399 . S
C1799 C1798 1.394 . S
C1799 C1800 1.516 . S
C1800 C1799 1.516 . S
C1800 C1801 1.502 . S
C1800 C1802 1.561 . S
C1800 C1803 1.526 . S
C1801 H1785 0.959 . S
C1801 H1786 0.959 . S
C1801 H1787 0.961 . S
C1801 C1800 1.502 . S
C1802 H1788 0.960 . S
C1802 H1789 0.961 . S
C1802 H1790 0.959 . S
C1802 C1800 1.561 . S
C1803 C1800 1.526 . S
C1803 C1804 1.396 . S
C1803 C1808 1.390 . S
C1804 C1798 1.465 . S
C1804 C1803 1.396 . S
C1804 C1805 1.399 . S
C1805 H1791 0.929 . S
C1805 C1804 1.399 . S
C1805 C1806 1.385 . S
C1806 H1792 0.931 . S
C1806 C1805 1.385 . S
C1806 C1807 1.389 . S
C1807 C1806 1.389 . S
C1807 C1808 1.387 . S
C1808 H1793 0.930 . S
C1808 C1803 1.390 . S
C1808 C1807 1.387 . S
H1809 C1821 0.930 . S
H1810 C1823 0.930 . S
H1811 C1824 0.930 . S
H1812 C1828 0.959 . S
H1813 C1828 0.959 . S
H1814 C1828 0.961 . S
H1815 C1829 0.960 . S
H1816 C1829 0.961 . S
H1817 C1829 0.959 . S
H1818 C1832 0.929 . S
H1819 C1833 0.931 . S
H1820 C1835 0.930 . S
C1821 H1809 0.930 . S
C1821 C1822 1.399 . S
C1821 C1826 1.399 . S
C1822 C1821 1.399 . S
C1822 C1823 1.376 . S
C1823 H1810 0.930 . S
C1823 C1822 1.376 . S
C1823 C1824 1.388 . S
C1824 H1811 0.930 . S
C1824 C1823 1.388 . S
C1824 C1825 1.390 . S
C1825 C1824 1.390 . S
C1825 C1826 1.394 . S
C1825 C1831 1.465 . S
C1826 C1821 1.399 . S
C1826 C1825 1.394 . S
C1826 C1827 1.516 . S
C1827 C1826 1.516 . S
C1827 C1828 1.502 . S
C1827 C1829 1.561 . S
C1827 C1830 1.526 . S
C1828 H1812 0.959 . S
C1828 H1813 0.959 . S
C1828 H1814 0.961 . S
C1828 C1827 1.502 . S
C1829 H1815 0.960 . S
C1829 H1816 0.961 . S
C1829 H1817 0.959 . S
C1829 C1827 1.561 . S
C1830 C1827 1.526 . S
C1830 C1831 1.396 . S
C1830 C1835 1.390 . S
C1831 C1825 1.465 . S
C1831 C1830 1.396 . S
C1831 C1832 1.399 . S
C1832 H1818 0.929 . S
C1832 C1831 1.399 . S
C1832 C1833 1.385 . S
C1833 H1819 0.931 . S
C1833 C1832 1.385 . S
C1833 C1834 1.389 . S
C1834 C1833 1.389 . S
C1834 C1835 1.387 . S
C1835 H1820 0.930 . S
C1835 C1830 1.390 . S
C1835 C1834 1.387 . S
H1836 C1848 0.930 . S
H1837 C1850 0.930 . S
H1838 C1851 0.930 . S
H1839 C1855 0.959 . S
H1840 C1855 0.959 . S
H1841 C1855 0.961 . S
H1842 C1856 0.960 . S
H1843 C1856 0.961 . S
H1844 C1856 0.959 . S
H1845 C1859 0.929 . S
H1846 C1860 0.931 . S
H1847 C1862 0.930 . S
C1848 H1836 0.930 . S
C1848 C1849 1.399 . S
C1848 C1853 1.399 . S
C1849 C1848 1.399 . S
C1849 C1850 1.376 . S
C1850 H1837 0.930 . S
C1850 C1849 1.376 . S
C1850 C1851 1.388 . S
C1851 H1838 0.930 . S
C1851 C1850 1.388 . S
C1851 C1852 1.390 . S
C1852 C1851 1.390 . S
C1852 C1853 1.394 . S
C1852 C1858 1.465 . S
C1853 C1848 1.399 . S
C1853 C1852 1.394 . S
C1853 C1854 1.516 . S
C1854 C1853 1.516 . S
C1854 C1855 1.502 . S
C1854 C1856 1.561 . S
C1854 C1857 1.526 . S
C1855 H1839 0.959 . S
C1855 H1840 0.959 . S
C1855 H1841 0.961 . S
C1855 C1854 1.502 . S
C1856 H1842 0.960 . S
C1856 H1843 0.961 . S
C1856 H1844 0.959 . S
C1856 C1854 1.561 . S
C1857 C1854 1.526 . S
C1857 C1858 1.396 . S
C1857 C1862 1.390 . S
C1858 C1852 1.465 . S
C1858 C1857 1.396 . S
C1858 C1859 1.399 . S
C1859 H1845 0.929 . S
C1859 C1858 1.399 . S
C1859 C1860 1.385 . S
C1860 H1846 0.931 . S
C1860 C1859 1.385 . S
C1860 C1861 1.389 . S
C1861 C1860 1.389 . S
C1861 C1862 1.387 . S
C1862 H1847 0.930 . S
C1862 C1857 1.390 . S
C1862 C1861 1.387 . S
H1863 C1875 0.930 . S
H1864 C1877 0.930 . S
H1865 C1878 0.930 . S
H1866 C1882 0.959 . S
H1867 C1882 0.959 . S
H1868 C1882 0.961 . S
H1869 C1883 0.960 . S
H1870 C1883 0.961 . S
H1871 C1883 0.959 . S
H1872 C1886 0.929 . S
H1873 C1887 0.931 . S
H1874 C1889 0.930 . S
C1875 H1863 0.930 . S
C1875 C1876 1.399 . S
C1875 C1880 1.399 . S
C1876 C1875 1.399 . S
C1876 C1877 1.376 . S
C1877 H1864 0.930 . S
C1877 C1876 1.376 . S
C1877 C1878 1.388 . S
C1878 H1865 0.930 . S
C1878 C1877 1.388 . S
C1878 C1879 1.390 . S
C1879 C1878 1.390 . S
C1879 C1880 1.394 . S
C1879 C1885 1.465 . S
C1880 C1875 1.399 . S
C1880 C1879 1.394 . S
C1880 C1881 1.516 . S
C1881 C1880 1.516 . S
C1881 C1882 1.502 . S
C1881 C1883 1.561 . S
C1881 C1884 1.526 . S
C1882 H1866 0.959 . S
C1882 H1867 0.959 . S
C1882 H1868 0.961 . S
C1882 C1881 1.502 . S
C1883 H1869 0.960 . S
C1883 H1870 0.961 . S
C1883 H1871 0.959 . S
C1883 C1881 1.561 . S
C1884 C1881 1.526 . S
C1884 C1885 1.396 . S
C1884 C1889 1.390 . S
C1885 C1879 1.465 . S
C1885 C1884 1.396 . S
C1885 C1886 1.399 . S
C1886 H1872 0.929 . S
C1886 C1885 1.399 . S
C1886 C1887 1.385 . S
C1887 H1873 0.931 . S
C1887 C1886 1.385 . S
C1887 C1888 1.389 . S
C1888 C1887 1.389 . S
C1888 C1889 1.387 . S
C1889 H1874 0.930 . S
C1889 C1884 1.390 . S
C1889 C1888 1.387 . S
H1890 C1902 0.930 . S
H1891 C1904 0.930 . S
H1892 C1905 0.930 . S
H1893 C1909 0.959 . S
H1894 C1909 0.959 . S
H1895 C1909 0.961 . S
H1896 C1910 0.960 . S
H1897 C1910 0.961 . S
H1898 C1910 0.959 . S
H1899 C1913 0.929 . S
H1900 C1914 0.931 . S
H1901 C1916 0.930 . S
C1902 H1890 0.930 . S
C1902 C1903 1.399 . S
C1902 C1907 1.399 . S
C1903 C1902 1.399 . S
C1903 C1904 1.376 . S
C1904 H1891 0.930 . S
C1904 C1903 1.376 . S
C1904 C1905 1.388 . S
C1905 H1892 0.930 . S
C1905 C1904 1.388 . S
C1905 C1906 1.390 . S
C1906 C1905 1.390 . S
C1906 C1907 1.394 . S
C1906 C1912 1.465 . S
C1907 C1902 1.399 . S
C1907 C1906 1.394 . S
C1907 C1908 1.516 . S
C1908 C1907 1.516 . S
C1908 C1909 1.502 . S
C1908 C1910 1.561 . S
C1908 C1911 1.526 . S
C1909 H1893 0.959 . S
C1909 H1894 0.959 . S
C1909 H1895 0.961 . S
C1909 C1908 1.502 . S
C1910 H1896 0.960 . S
C1910 H1897 0.961 . S
C1910 H1898 0.959 . S
C1910 C1908 1.561 . S
C1911 C1908 1.526 . S
C1911 C1912 1.396 . S
C1911 C1916 1.390 . S
C1912 C1906 1.465 . S
C1912 C1911 1.396 . S
C1912 C1913 1.399 . S
C1913 H1899 0.929 . S
C1913 C1912 1.399 . S
C1913 C1914 1.385 . S
C1914 H1900 0.931 . S
C1914 C1913 1.385 . S
C1914 C1915 1.389 . S
C1915 C1914 1.389 . S
C1915 C1916 1.387 . S
C1916 H1901 0.930 . S
C1916 C1911 1.390 . S
C1916 C1915 1.387 . S
H1917 C1929 0.930 . S
H1918 C1931 0.930 . S
H1919 C1932 0.930 . S
H1920 C1936 0.959 . S
H1921 C1936 0.959 . S
H1922 C1936 0.961 . S
H1923 C1937 0.960 . S
H1924 C1937 0.961 . S
H1925 C1937 0.959 . S
H1926 C1940 0.929 . S
H1927 C1941 0.931 . S
H1928 C1943 0.930 . S
C1929 H1917 0.930 . S
C1929 C1930 1.399 . S
C1929 C1934 1.399 . S
C1930 C1929 1.399 . S
C1930 C1931 1.376 . S
C1931 H1918 0.930 . S
C1931 C1930 1.376 . S
C1931 C1932 1.388 . S
C1932 H1919 0.930 . S
C1932 C1931 1.388 . S
C1932 C1933 1.390 . S
C1933 C1932 1.390 . S
C1933 C1934 1.394 . S
C1933 C1939 1.465 . S
C1934 C1929 1.399 . S
C1934 C1933 1.394 . S
C1934 C1935 1.516 . S
C1935 C1934 1.516 . S
C1935 C1936 1.502 . S
C1935 C1937 1.561 . S
C1935 C1938 1.526 . S
C1936 H1920 0.959 . S
C1936 H1921 0.959 . S
C1936 H1922 0.961 . S
C1936 C1935 1.502 . S
C1937 H1923 0.960 . S
C1937 H1924 0.961 . S
C1937 H1925 0.959 . S
C1937 C1935 1.561 . S
C1938 C1935 1.526 . S
C1938 C1939 1.396 . S
C1938 C1943 1.390 . S
C1939 C1933 1.465 . S
C1939 C1938 1.396 . S
C1939 C1940 1.399 . S
C1940 H1926 0.929 . S
C1940 C1939 1.399 . S
C1940 C1941 1.385 . S
C1941 H1927 0.931 . S
C1941 C1940 1.385 . S
C1941 C1942 1.389 . S
C1942 C1941 1.389 . S
C1942 C1943 1.387 . S
C1943 H1928 0.930 . S
C1943 C1938 1.390 . S
C1943 C1942 1.387 . S
H1944 C1956 0.930 . S
H1945 C1958 0.930 . S
H1946 C1959 0.930 . S
H1947 C1963 0.959 . S
H1948 C1963 0.959 . S
H1949 C1963 0.961 . S
H1950 C1964 0.960 . S
H1951 C1964 0.961 . S
H1952 C1964 0.959 . S
H1953 C1967 0.929 . S
H1954 C1968 0.931 . S
H1955 C1970 0.930 . S
C1956 H1944 0.930 . S
C1956 C1957 1.399 . S
C1956 C1961 1.399 . S
C1957 C1956 1.399 . S
C1957 C1958 1.376 . S
C1958 H1945 0.930 . S
C1958 C1957 1.376 . S
C1958 C1959 1.388 . S
C1959 H1946 0.930 . S
C1959 C1958 1.388 . S
C1959 C1960 1.390 . S
C1960 C1959 1.390 . S
C1960 C1961 1.394 . S
C1960 C1966 1.465 . S
C1961 C1956 1.399 . S
C1961 C1960 1.394 . S
C1961 C1962 1.516 . S
C1962 C1961 1.516 . S
C1962 C1963 1.502 . S
C1962 C1964 1.561 . S
C1962 C1965 1.526 . S
C1963 H1947 0.959 . S
C1963 H1948 0.959 . S
C1963 H1949 0.961 . S
C1963 C1962 1.502 . S
C1964 H1950 0.960 . S
C1964 H1951 0.961 . S
C1964 H1952 0.959 . S
C1964 C1962 1.561 . S
C1965 C1962 1.526 . S
C1965 C1966 1.396 . S
C1965 C1970 1.390 . S
C1966 C1960 1.465 . S
C1966 C1965 1.396 . S
C1966 C1967 1.399 . S
C1967 H1953 0.929 . S
C1967 C1966 1.399 . S
C1967 C1968 1.385 . S
C1968 H1954 0.931 . S
C1968 C1967 1.385 . S
C1968 C1969 1.389 . S
C1969 C1968 1.389 . S
C1969 C1970 1.387 . S
C1970 H1955 0.930 . S
C1970 C1965 1.390 . S
C1970 C1969 1.387 . S
H1971 C1983 0.930 . S
H1972 C1985 0.930 . S
H1973 C1986 0.930 . S
H1974 C1990 0.959 . S
H1975 C1990 0.959 . S
H1976 C1990 0.961 . S
H1977 C1991 0.960 . S
H1978 C1991 0.961 . S
H1979 C1991 0.959 . S
H1980 C1994 0.929 . S
H1981 C1995 0.931 . S
H1982 C1997 0.930 . S
C1983 H1971 0.930 . S
C1983 C1984 1.399 . S
C1983 C1988 1.399 . S
C1984 C1983 1.399 . S
C1984 C1985 1.376 . S
C1985 H1972 0.930 . S
C1985 C1984 1.376 . S
C1985 C1986 1.388 . S
C1986 H1973 0.930 . S
C1986 C1985 1.388 . S
C1986 C1987 1.390 . S
C1987 C1986 1.390 . S
C1987 C1988 1.394 . S
C1987 C1993 1.465 . S
C1988 C1983 1.399 . S
C1988 C1987 1.394 . S
C1988 C1989 1.516 . S
C1989 C1988 1.516 . S
C1989 C1990 1.502 . S
C1989 C1991 1.561 . S
C1989 C1992 1.526 . S
C1990 H1974 0.959 . S
C1990 H1975 0.959 . S
C1990 H1976 0.961 . S
C1990 C1989 1.502 . S
C1991 H1977 0.960 . S
C1991 H1978 0.961 . S
C1991 H1979 0.959 . S
C1991 C1989 1.561 . S
C1992 C1989 1.526 . S
C1992 C1993 1.396 . S
C1992 C1997 1.390 . S
C1993 C1987 1.465 . S
C1993 C1992 1.396 . S
C1993 C1994 1.399 . S
C1994 H1980 0.929 . S
C1994 C1993 1.399 . S
C1994 C1995 1.385 . S
C1995 H1981 0.931 . S
C1995 C1994 1.385 . S
C1995 C1996 1.389 . S
C1996 C1995 1.389 . S
C1996 C1997 1.387 . S
C1997 H1982 0.930 . S
C1997 C1992 1.390 . S
C1997 C1996 1.387 . S
H1998 C2010 0.930 . S
H1999 C2012 0.930 . S
H2000 C2013 0.930 . S
H2001 C2017 0.959 . S
H2002 C2017 0.959 . S
H2003 C2017 0.961 . S
H2004 C2018 0.960 . S
H2005 C2018 0.961 . S
H2006 C2018 0.959 . S
H2007 C2021 0.929 . S
H2008 C2022 0.931 1_455 S
H2009 C2024 0.930 . S
C2010 H1998 0.930 . S
C2010 C2011 1.399 . S
C2010 C2015 1.399 . S
C2011 C2010 1.399 . S
C2011 C2012 1.376 . S
C2012 H1999 0.930 . S
C2012 C2011 1.376 . S
C2012 C2013 1.388 . S
C2013 H2000 0.930 . S
C2013 C2012 1.388 . S
C2013 C2014 1.390 . S
C2014 C2013 1.390 . S
C2014 C2015 1.394 . S
C2014 C2020 1.465 . S
C2015 C2010 1.399 . S
C2015 C2014 1.394 . S
C2015 C2016 1.516 . S
C2016 C2015 1.516 . S
C2016 C2017 1.502 . S
C2016 C2018 1.561 . S
C2016 C2019 1.526 . S
C2017 H2001 0.959 . S
C2017 H2002 0.959 . S
C2017 H2003 0.961 . S
C2017 C2016 1.502 . S
C2018 H2004 0.960 . S
C2018 H2005 0.961 . S
C2018 H2006 0.959 . S
C2018 C2016 1.561 . S
C2019 C2016 1.526 . S
C2019 C2020 1.396 . S
C2019 C2024 1.390 . S
C2020 C2014 1.465 . S
C2020 C2019 1.396 . S
C2020 C2021 1.399 . S
C2021 H2007 0.929 . S
C2021 C2020 1.399 . S
C2021 C2022 1.385 . S
C2022 H2008 0.931 1_655 S
C2022 C2021 1.385 . S
C2022 C2023 1.389 . S
C2023 C2022 1.389 . S
C2023 C2024 1.387 . S
C2024 H2009 0.930 . S
C2024 C2019 1.390 . S
C2024 C2023 1.387 . S
H2025 C2037 0.930 . S
H2026 C2039 0.930 . S
H2027 C2040 0.930 . S
H2028 C2044 0.959 . S
H2029 C2044 0.959 . S
H2030 C2044 0.961 . S
H2031 C2045 0.960 . S
H2032 C2045 0.961 . S
H2033 C2045 0.959 . S
H2034 C2048 0.929 . S
H2035 C2049 0.931 . S
H2036 C2051 0.930 . S
C2037 H2025 0.930 . S
C2037 C2038 1.399 . S
C2037 C2042 1.399 . S
C2038 C2037 1.399 . S
C2038 C2039 1.376 . S
C2039 H2026 0.930 . S
C2039 C2038 1.376 . S
C2039 C2040 1.388 . S
C2040 H2027 0.930 . S
C2040 C2039 1.388 . S
C2040 C2041 1.390 . S
C2041 C2040 1.390 . S
C2041 C2042 1.394 . S
C2041 C2047 1.465 . S
C2042 C2037 1.399 . S
C2042 C2041 1.394 . S
C2042 C2043 1.516 . S
C2043 C2042 1.516 . S
C2043 C2044 1.502 . S
C2043 C2045 1.561 . S
C2043 C2046 1.526 . S
C2044 H2028 0.959 . S
C2044 H2029 0.959 . S
C2044 H2030 0.961 . S
C2044 C2043 1.502 . S
C2045 H2031 0.960 . S
C2045 H2032 0.961 . S
C2045 H2033 0.959 . S
C2045 C2043 1.561 . S
C2046 C2043 1.526 . S
C2046 C2047 1.396 . S
C2046 C2051 1.390 . S
C2047 C2041 1.465 . S
C2047 C2046 1.396 . S
C2047 C2048 1.399 . S
C2048 H2034 0.929 . S
C2048 C2047 1.399 . S
C2048 C2049 1.385 . S
C2049 H2035 0.931 . S
C2049 C2048 1.385 . S
C2049 C2050 1.389 . S
C2050 C2049 1.389 . S
C2050 C2051 1.387 . S
C2051 H2036 0.930 . S
C2051 C2046 1.390 . S
C2051 C2050 1.387 . S
H2052 C2064 0.930 . S
H2053 C2066 0.930 . S
H2054 C2067 0.930 . S
H2055 C2071 0.959 . S
H2056 C2071 0.959 . S
H2057 C2071 0.961 . S
H2058 C2072 0.960 . S
H2059 C2072 0.961 . S
H2060 C2072 0.959 . S
H2061 C2075 0.929 . S
H2062 C2076 0.931 . S
H2063 C2078 0.930 . S
C2064 H2052 0.930 . S
C2064 C2065 1.399 . S
C2064 C2069 1.399 . S
C2065 C2064 1.399 . S
C2065 C2066 1.376 . S
C2066 H2053 0.930 . S
C2066 C2065 1.376 . S
C2066 C2067 1.388 . S
C2067 H2054 0.930 . S
C2067 C2066 1.388 . S
C2067 C2068 1.390 . S
C2068 C2067 1.390 . S
C2068 C2069 1.394 . S
C2068 C2074 1.465 . S
C2069 C2064 1.399 . S
C2069 C2068 1.394 . S
C2069 C2070 1.516 . S
C2070 C2069 1.516 . S
C2070 C2071 1.502 . S
C2070 C2072 1.561 . S
C2070 C2073 1.526 . S
C2071 H2055 0.959 . S
C2071 H2056 0.959 . S
C2071 H2057 0.961 . S
C2071 C2070 1.502 . S
C2072 H2058 0.960 . S
C2072 H2059 0.961 . S
C2072 H2060 0.959 . S
C2072 C2070 1.561 . S
C2073 C2070 1.526 . S
C2073 C2074 1.396 . S
C2073 C2078 1.390 . S
C2074 C2068 1.465 . S
C2074 C2073 1.396 . S
C2074 C2075 1.399 . S
C2075 H2061 0.929 . S
C2075 C2074 1.399 . S
C2075 C2076 1.385 . S
C2076 H2062 0.931 . S
C2076 C2075 1.385 . S
C2076 C2077 1.389 . S
C2077 C2076 1.389 . S
C2077 C2078 1.387 . S
C2078 H2063 0.930 . S
C2078 C2073 1.390 . S
C2078 C2077 1.387 . S
H2079 C2091 0.930 . S
H2080 C2093 0.930 . S
H2081 C2094 0.930 . S
H2082 C2098 0.959 . S
H2083 C2098 0.959 . S
H2084 C2098 0.961 . S
H2085 C2099 0.960 . S
H2086 C2099 0.961 . S
H2087 C2099 0.959 . S
H2088 C2102 0.929 . S
H2089 C2103 0.931 . S
H2090 C2105 0.930 . S
C2091 H2079 0.930 . S
C2091 C2092 1.399 . S
C2091 C2096 1.399 . S
C2092 C2091 1.399 . S
C2092 C2093 1.376 . S
C2093 H2080 0.930 . S
C2093 C2092 1.376 . S
C2093 C2094 1.388 . S
C2094 H2081 0.930 . S
C2094 C2093 1.388 . S
C2094 C2095 1.390 . S
C2095 C2094 1.390 . S
C2095 C2096 1.394 . S
C2095 C2101 1.465 . S
C2096 C2091 1.399 . S
C2096 C2095 1.394 . S
C2096 C2097 1.516 . S
C2097 C2096 1.516 . S
C2097 C2098 1.502 . S
C2097 C2099 1.561 . S
C2097 C2100 1.526 . S
C2098 H2082 0.959 . S
C2098 H2083 0.959 . S
C2098 H2084 0.961 . S
C2098 C2097 1.502 . S
C2099 H2085 0.960 . S
C2099 H2086 0.961 . S
C2099 H2087 0.959 . S
C2099 C2097 1.561 . S
C2100 C2097 1.526 . S
C2100 C2101 1.396 . S
C2100 C2105 1.390 . S
C2101 C2095 1.465 . S
C2101 C2100 1.396 . S
C2101 C2102 1.399 . S
C2102 H2088 0.929 . S
C2102 C2101 1.399 . S
C2102 C2103 1.385 . S
C2103 H2089 0.931 . S
C2103 C2102 1.385 . S
C2103 C2104 1.389 . S
C2104 C2103 1.389 . S
C2104 C2105 1.387 . S
C2105 H2090 0.930 . S
C2105 C2100 1.390 . S
C2105 C2104 1.387 . S
H2106 C2118 0.930 . S
H2107 C2120 0.930 . S
H2108 C2121 0.930 . S
H2109 C2125 0.959 . S
H2110 C2125 0.959 . S
H2111 C2125 0.961 . S
H2112 C2126 0.960 . S
H2113 C2126 0.961 . S
H2114 C2126 0.959 . S
H2115 C2129 0.929 . S
H2116 C2130 0.931 . S
H2117 C2132 0.930 . S
C2118 H2106 0.930 . S
C2118 C2119 1.399 . S
C2118 C2123 1.399 . S
C2119 C2118 1.399 . S
C2119 C2120 1.376 . S
C2120 H2107 0.930 . S
C2120 C2119 1.376 . S
C2120 C2121 1.388 . S
C2121 H2108 0.930 . S
C2121 C2120 1.388 . S
C2121 C2122 1.390 . S
C2122 C2121 1.390 . S
C2122 C2123 1.394 . S
C2122 C2128 1.465 . S
C2123 C2118 1.399 . S
C2123 C2122 1.394 . S
C2123 C2124 1.516 . S
C2124 C2123 1.516 . S
C2124 C2125 1.502 . S
C2124 C2126 1.561 . S
C2124 C2127 1.526 . S
C2125 H2109 0.959 . S
C2125 H2110 0.959 . S
C2125 H2111 0.961 . S
C2125 C2124 1.502 . S
C2126 H2112 0.960 . S
C2126 H2113 0.961 . S
C2126 H2114 0.959 . S
C2126 C2124 1.561 . S
C2127 C2124 1.526 . S
C2127 C2128 1.396 . S
C2127 C2132 1.390 . S
C2128 C2122 1.465 . S
C2128 C2127 1.396 . S
C2128 C2129 1.399 . S
C2129 H2115 0.929 . S
C2129 C2128 1.399 . S
C2129 C2130 1.385 . S
C2130 H2116 0.931 . S
C2130 C2129 1.385 . S
C2130 C2131 1.389 . S
C2131 C2130 1.389 . S
C2131 C2132 1.387 . S
C2132 H2117 0.930 . S
C2132 C2127 1.390 . S
C2132 C2131 1.387 . S
H2133 C2145 0.930 . S
H2134 C2147 0.930 . S
H2135 C2148 0.930 . S
H2136 C2152 0.959 . S
H2137 C2152 0.959 . S
H2138 C2152 0.961 . S
H2139 C2153 0.960 . S
H2140 C2153 0.961 . S
H2141 C2153 0.959 . S
H2142 C2156 0.929 . S
H2143 C2157 0.931 . S
H2144 C2159 0.930 . S
C2145 H2133 0.930 . S
C2145 C2146 1.399 . S
C2145 C2150 1.399 . S
C2146 C2145 1.399 . S
C2146 C2147 1.376 . S
C2147 H2134 0.930 . S
C2147 C2146 1.376 . S
C2147 C2148 1.388 . S
C2148 H2135 0.930 . S
C2148 C2147 1.388 . S
C2148 C2149 1.390 . S
C2149 C2148 1.390 . S
C2149 C2150 1.394 . S
C2149 C2155 1.465 . S
C2150 C2145 1.399 . S
C2150 C2149 1.394 . S
C2150 C2151 1.516 . S
C2151 C2150 1.516 . S
C2151 C2152 1.502 . S
C2151 C2153 1.561 . S
C2151 C2154 1.526 . S
C2152 H2136 0.959 . S
C2152 H2137 0.959 . S
C2152 H2138 0.961 . S
C2152 C2151 1.502 . S
C2153 H2139 0.960 . S
C2153 H2140 0.961 . S
C2153 H2141 0.959 . S
C2153 C2151 1.561 . S
C2154 C2151 1.526 . S
C2154 C2155 1.396 . S
C2154 C2159 1.390 . S
C2155 C2149 1.465 . S
C2155 C2154 1.396 . S
C2155 C2156 1.399 . S
C2156 H2142 0.929 . S
C2156 C2155 1.399 . S
C2156 C2157 1.385 . S
C2157 H2143 0.931 . S
C2157 C2156 1.385 . S
C2157 C2158 1.389 . S
C2158 C2157 1.389 . S
C2158 C2159 1.387 . S
C2159 H2144 0.930 . S
C2159 C2154 1.390 . S
C2159 C2158 1.387 . S
C889 C689 1.496 . S
C877 C75 1.409 . S
C916 C694 0.482 . S
C904 C156 0.804 . S
C943 C695 1.521 . S
C931 C243 1.383 . S
C958 C315 0.859 . S
C970 C699 0.669 . S
C985 C399 0.769 . S
C997 C702 0.671 . S
C1024 C703 1.524 . S
C1012 C495 1.458 . S
C1039 C576 1.218 . S
C1051 C680 1.184 . S
C1066 C654 1.350 . S
C1078 C696 1.497 . S
C1105 C734 0.853 . S
C1093 C72 0.859 . S
C1120 C140 1.317 . S
C1132 C760 1.284 . S
C1159 C712 0.838 . S
C1147 C240 0.880 . S
C1186 C767 1.048 . S
C1174 C318 0.972 . S
C1201 C402 1.049 . S
C1213 C721 0.944 . S
C1240 C763 1.560 1_556 S
C1228 C492 1.456 . S
C1255 C560 1.253 . S
C1267 C727 1.389 . S
C1282 C655 2.653 . S
C1294 C758 2.736 . S
C1309 C56 2.881 . S
C1321 C766 2.942 . S
C1336 C403 1.677 . S
C1348 C753 1.754 . S
C1375 C731 2.136 . S
C1363 C476 2.113 . S
C1402 C759 1.849 . S
C1390 C579 1.738 . S
C1417 C651 1.057 . S
C1429 C726 1.152 . S
C1444 C224 2.959 . S
C1456 C744 3.041 . S
C1483 C735 1.710 . S
C1471 C319 1.671 . S
C1498 C159 1.819 . S
C1510 C728 1.870 . S
C1525 C663 1.324 . S
C1537 C790 1.405 . S
C1552 C408 0.789 . S
C1564 C785 0.362 . S
C1591 C799 1.362 . S
C1579 C486 1.403 . S
C1618 C776 1.168 . S
C1606 C567 1.101 . S
C1633 C147 0.770 . S
C1645 C792 0.577 . S
C1672 C791 1.483 . S
C1660 C234 1.408 . S
C1687 C324 0.620 . S
C1699 C795 0.674 . S
C1714 C66 1.440 . S
C1726 C798 1.458 . S
C1741 C660 1.121 . S
C1753 C824 1.185 . S
C1780 C840 1.741 . S
C1768 C392 1.712 . S
C1795 C487 2.055 . S
C1807 C822 2.204 . S
C1822 C570 1.785 . S
C1834 C855 1.757 . S
C1861 C831 1.816 . S
C1849 C150 1.781 . S
C1876 C235 3.006 . S
C1888 C849 3.101 . S
C1915 C827 1.608 . S
C1903 C308 1.610 . S
C1942 C862 3.029 . S
C1930 C67 2.906 . S
C1969 C854 2.748 . S
C1957 C644 2.640 . S
C1984 C151 1.279 . S
C1996 C859 1.374 . S
C2011 C231 0.939 . S
C2023 C830 0.866 . S
C2050 C863 1.068 . S
C2038 C327 1.008 . S
C2065 C63 0.791 . S
C2077 C817 0.920 . S
C2092 C483 1.443 . S
C2104 C856 1.519 . S
C2131 C808 1.351 . S
C2119 C571 1.224 . S
C2158 C823 0.900 . S
C2146 C411 0.954 . S
