# Generated by pormake.
# Topology ctn, (3,4)-cn, num edge types: 1
# Building blocks:
#     Node 0, Type 0, BuildingBlock: OLANEW_clean_sbu_2, # of connection points: 3
#     Node 1, Type 0, BuildingBlock: OLANEW_clean_sbu_2, # of connection points: 3
#     Node 2, Type 0, BuildingBlock: OLANEW_clean_sbu_2, # of connection points: 3
#     Node 3, Type 0, BuildingBlock: OLANEW_clean_sbu_2, # of connection points: 3
#     Node 4, Type 0, BuildingBlock: OLANEW_clean_sbu_2, # of connection points: 3
#     Node 5, Type 0, BuildingBlock: OLANEW_clean_sbu_2, # of connection points: 3
#     Node 6, Type 0, BuildingBlock: OLANEW_clean_sbu_2, # of connection points: 3
#     Node 7, Type 0, BuildingBlock: OLANEW_clean_sbu_2, # of connection points: 3
#     Node 8, Type 0, BuildingBlock: OLANEW_clean_sbu_2, # of connection points: 3
#     Node 9, Type 0, BuildingBlock: OLANEW_clean_sbu_2, # of connection points: 3
#     Node 10, Type 0, BuildingBlock: OLANEW_clean_sbu_2, # of connection points: 3
#     Node 11, Type 0, BuildingBlock: OLANEW_clean_sbu_2, # of connection points: 3
#     Node 12, Type 0, BuildingBlock: OLANEW_clean_sbu_2, # of connection points: 3
#     Node 13, Type 0, BuildingBlock: OLANEW_clean_sbu_2, # of connection points: 3
#     Node 14, Type 0, BuildingBlock: OLANEW_clean_sbu_2, # of connection points: 3
#     Node 15, Type 0, BuildingBlock: OLANEW_clean_sbu_2, # of connection points: 3
#     Node 16, Type 1, BuildingBlock: AZAVOO_clean_sbu_0, # of connection points: 4
#     Node 17, Type 1, BuildingBlock: AZAVOO_clean_sbu_0, # of connection points: 4
#     Node 18, Type 1, BuildingBlock: AZAVOO_clean_sbu_0, # of connection points: 4
#     Node 19, Type 1, BuildingBlock: AZAVOO_clean_sbu_0, # of connection points: 4
#     Node 20, Type 1, BuildingBlock: AZAVOO_clean_sbu_0, # of connection points: 4
#     Node 21, Type 1, BuildingBlock: AZAVOO_clean_sbu_0, # of connection points: 4
#     Node 22, Type 1, BuildingBlock: AZAVOO_clean_sbu_0, # of connection points: 4
#     Node 23, Type 1, BuildingBlock: AZAVOO_clean_sbu_0, # of connection points: 4
#     Node 24, Type 1, BuildingBlock: AZAVOO_clean_sbu_0, # of connection points: 4
#     Node 25, Type 1, BuildingBlock: AZAVOO_clean_sbu_0, # of connection points: 4
#     Node 26, Type 1, BuildingBlock: AZAVOO_clean_sbu_0, # of connection points: 4
#     Node 27, Type 1, BuildingBlock: AZAVOO_clean_sbu_0, # of connection points: 4
#     Edge 28, Type (0, 1), BuildingBlock: XUDNAN_clean_linker_2, # of connection points: 2
#     Edge 29, Type (0, 1), BuildingBlock: XUDNAN_clean_linker_2, # of connection points: 2
#     Edge 30, Type (0, 1), BuildingBlock: XUDNAN_clean_linker_2, # of connection points: 2
#     Edge 31, Type (0, 1), BuildingBlock: XUDNAN_clean_linker_2, # of connection points: 2
#     Edge 32, Type (0, 1), BuildingBlock: XUDNAN_clean_linker_2, # of connection points: 2
#     Edge 33, Type (0, 1), BuildingBlock: XUDNAN_clean_linker_2, # of connection points: 2
#     Edge 34, Type (0, 1), BuildingBlock: XUDNAN_clean_linker_2, # of connection points: 2
#     Edge 35, Type (0, 1), BuildingBlock: XUDNAN_clean_linker_2, # of connection points: 2
#     Edge 36, Type (0, 1), BuildingBlock: XUDNAN_clean_linker_2, # of connection points: 2
#     Edge 37, Type (0, 1), BuildingBlock: XUDNAN_clean_linker_2, # of connection points: 2
#     Edge 38, Type (0, 1), BuildingBlock: XUDNAN_clean_linker_2, # of connection points: 2
#     Edge 39, Type (0, 1), BuildingBlock: XUDNAN_clean_linker_2, # of connection points: 2
#     Edge 40, Type (0, 1), BuildingBlock: XUDNAN_clean_linker_2, # of connection points: 2
#     Edge 41, Type (0, 1), BuildingBlock: XUDNAN_clean_linker_2, # of connection points: 2
#     Edge 42, Type (0, 1), BuildingBlock: XUDNAN_clean_linker_2, # of connection points: 2
#     Edge 43, Type (0, 1), BuildingBlock: XUDNAN_clean_linker_2, # of connection points: 2
#     Edge 44, Type (0, 1), BuildingBlock: XUDNAN_clean_linker_2, # of connection points: 2
#     Edge 45, Type (0, 1), BuildingBlock: XUDNAN_clean_linker_2, # of connection points: 2
#     Edge 46, Type (0, 1), BuildingBlock: XUDNAN_clean_linker_2, # of connection points: 2
#     Edge 47, Type (0, 1), BuildingBlock: XUDNAN_clean_linker_2, # of connection points: 2
#     Edge 48, Type (0, 1), BuildingBlock: XUDNAN_clean_linker_2, # of connection points: 2
#     Edge 49, Type (0, 1), BuildingBlock: XUDNAN_clean_linker_2, # of connection points: 2
#     Edge 50, Type (0, 1), BuildingBlock: XUDNAN_clean_linker_2, # of connection points: 2
#     Edge 51, Type (0, 1), BuildingBlock: XUDNAN_clean_linker_2, # of connection points: 2
#     Edge 52, Type (0, 1), BuildingBlock: XUDNAN_clean_linker_2, # of connection points: 2
#     Edge 53, Type (0, 1), BuildingBlock: XUDNAN_clean_linker_2, # of connection points: 2
#     Edge 54, Type (0, 1), BuildingBlock: XUDNAN_clean_linker_2, # of connection points: 2
#     Edge 55, Type (0, 1), BuildingBlock: XUDNAN_clean_linker_2, # of connection points: 2
#     Edge 56, Type (0, 1), BuildingBlock: XUDNAN_clean_linker_2, # of connection points: 2
#     Edge 57, Type (0, 1), BuildingBlock: XUDNAN_clean_linker_2, # of connection points: 2
#     Edge 58, Type (0, 1), BuildingBlock: XUDNAN_clean_linker_2, # of connection points: 2
#     Edge 59, Type (0, 1), BuildingBlock: XUDNAN_clean_linker_2, # of connection points: 2
#     Edge 60, Type (0, 1), BuildingBlock: XUDNAN_clean_linker_2, # of connection points: 2
#     Edge 61, Type (0, 1), BuildingBlock: XUDNAN_clean_linker_2, # of connection points: 2
#     Edge 62, Type (0, 1), BuildingBlock: XUDNAN_clean_linker_2, # of connection points: 2
#     Edge 63, Type (0, 1), BuildingBlock: XUDNAN_clean_linker_2, # of connection points: 2
#     Edge 64, Type (0, 1), BuildingBlock: XUDNAN_clean_linker_2, # of connection points: 2
#     Edge 65, Type (0, 1), BuildingBlock: XUDNAN_clean_linker_2, # of connection points: 2
#     Edge 66, Type (0, 1), BuildingBlock: XUDNAN_clean_linker_2, # of connection points: 2
#     Edge 67, Type (0, 1), BuildingBlock: XUDNAN_clean_linker_2, # of connection points: 2
#     Edge 68, Type (0, 1), BuildingBlock: XUDNAN_clean_linker_2, # of connection points: 2
#     Edge 69, Type (0, 1), BuildingBlock: XUDNAN_clean_linker_2, # of connection points: 2
#     Edge 70, Type (0, 1), BuildingBlock: XUDNAN_clean_linker_2, # of connection points: 2
#     Edge 71, Type (0, 1), BuildingBlock: XUDNAN_clean_linker_2, # of connection points: 2
#     Edge 72, Type (0, 1), BuildingBlock: XUDNAN_clean_linker_2, # of connection points: 2
#     Edge 73, Type (0, 1), BuildingBlock: XUDNAN_clean_linker_2, # of connection points: 2
#     Edge 74, Type (0, 1), BuildingBlock: XUDNAN_clean_linker_2, # of connection points: 2
#     Edge 75, Type (0, 1), BuildingBlock: XUDNAN_clean_linker_2, # of connection points: 2
# Relax obj value: 0.046
# Max RMSD: 0.171
# Mean RMSD: 0.092
data_MOF--net-ctn--node1-OLANEW_clean_sbu_2--node2-AZAVOO_clean_sbu_0--edge1-XUDNAN_clean_linker_2
_symmetry_space_group_name_H-M    P1
_symmetry_Int_Tables_number       1
_symmetry_cell_setting            triclinic
loop_
_symmetry_equiv_pos_as_xyz
'x, y, z'
_cell_length_a     57.103648
_cell_length_b     59.27566
_cell_length_c     56.348467
_cell_angle_alpha  91.2192
_cell_angle_beta   97.33943
_cell_angle_gamma 98.581109
loop_
_atom_site_label
_atom_site_type_symbol
_atom_site_fract_x
_atom_site_fract_y
_atom_site_fract_z
_atom_type_partial_charge
O0 O 0.0454 0.06151 0.95674 0.0
Cd1 Cd 0.03628 0.02348 0.97285 0.0
O2 O 0.01984 0.07432 0.97777 0.0
Cd3 Cd 0.01057 0.04341 0.99696 0.0
O4 O 0.99845 0.02735 0.02854 0.0
C5 C 0.97911 0.03251 0.03442 0.0
O6 O 0.96714 0.04544 0.02035 0.0
C7 C 0.03471 0.07769 0.96277 0.0
C8 C 0.07051 0.99437 0.97212 0.0
O9 O 0.05435 0.99489 0.9542 0.0
O10 O 0.07095 0.00813 0.9901 0.0
O11 O 0.33692 0.73786 0.2646 0.0
Cd12 Cd 0.29597 0.72973 0.24378 0.0
O13 O 0.33019 0.70714 0.2855 0.0
Cd14 Cd 0.2938 0.69423 0.26906 0.0
O15 O 0.26124 0.6692 0.26532 0.0
C16 C 0.24133 0.67437 0.26959 0.0
O17 O 0.2399 0.69574 0.27502 0.0
C18 C 0.3441 0.72479 0.28069 0.0
C19 C 0.28296 0.7613 0.21032 0.0
O20 O 0.28034 0.764 0.23241 0.0
O21 O 0.29225 0.74401 0.20422 0.0
O22 O 0.98307 0.50378 0.10793 0.0
Cd23 Cd 0.96318 0.5066 0.06703 0.0
O24 O 0.96687 0.46824 0.11253 0.0
Cd25 Cd 0.95381 0.46085 0.07454 0.0
O26 O 0.95587 0.4402 0.04232 0.0
C27 C 0.95509 0.4188 0.04462 0.0
O28 O 0.9518 0.41032 0.06551 0.0
C29 C 0.97982 0.48667 0.12105 0.0
C30 C 0.92878 0.53605 0.0636 0.0
O31 O 0.92294 0.51454 0.06583 0.0
O32 O 0.95093 0.54376 0.06326 0.0
O33 O 0.7783 0.87468 0.25629 0.0
Cd34 Cd 0.75451 0.83842 0.26429 0.0
O35 O 0.74823 0.89424 0.25344 0.0
Cd36 Cd 0.72175 0.86652 0.26272 0.0
O37 O 0.69137 0.85143 0.28002 0.0
C38 C 0.68056 0.86537 0.29021 0.0
O39 O 0.68804 0.88737 0.28937 0.0
C40 C 0.77022 0.89336 0.2526 0.0
C41 C 0.7512 0.80615 0.22668 0.0
O42 O 0.73519 0.81905 0.22767 0.0
O43 O 0.76882 0.80844 0.24354 0.0
O44 O 0.09128 0.01541 0.55292 0.0
Cd45 Cd 0.05103 0.99379 0.55174 0.0
O46 O 0.07281 0.03345 0.52478 0.0
Cd47 Cd 0.0675 0.05617 0.49521 0.0
O48 O 0.05029 0.06699 0.46147 0.0
C49 C 0.0468 0.05262 0.44385 0.0
O50 O 0.05459 0.03295 0.44674 0.0
C51 C 0.09205 0.03117 0.53797 0.0
C52 C 0.04692 0.95133 0.57252 0.0
O53 O 0.05071 0.95326 0.55066 0.0
O54 O 0.04585 0.96956 0.58472 0.0
O55 O 0.31079 0.7807 0.84103 0.0
Cd56 Cd 0.33868 0.77529 0.81279 0.0
O57 O 0.28044 0.77524 0.81256 0.0
Cd58 Cd 0.24335 0.77002 0.79561 0.0
O59 O 0.21419 0.76203 0.76632 0.0
C60 C 0.19246 0.76368 0.76764 0.0
O61 O 0.18636 0.77053 0.78799 0.0
C62 C 0.28847 0.77943 0.83455 0.0
C63 C 0.34532 0.72979 0.80893 0.0
O64 O 0.35672 0.74314 0.82613 0.0
O65 O 0.3307 0.73793 0.79344 0.0
O66 O 0.95729 0.45942 0.47289 0.0
Cd67 Cd 0.93772 0.46477 0.50839 0.0
O68 O 0.97762 0.49216 0.48618 0.0
Cd69 Cd 0.00264 0.52403 0.49391 0.0
O70 O 0.01403 0.55386 0.51838 0.0
C71 C 0.01039 0.57384 0.51283 0.0
O72 O 0.001 0.57722 0.49091 0.0
C73 C 0.97406 0.47562 0.47071 0.0
C74 C 0.89229 0.43988 0.50819 0.0
O75 O 0.89502 0.46009 0.50024 0.0
O76 O 0.91107 0.4313 0.51568 0.0
O77 O 0.83174 0.78541 0.86054 0.0
Cd78 Cd 0.85093 0.81332 0.83482 0.0
O79 O 0.80189 0.80475 0.85587 0.0
Cd80 Cd 0.76866 0.81815 0.86016 0.0
O81 O 0.74294 0.84242 0.85576 0.0
C82 C 0.72206 0.83886 0.86187 0.0
O83 O 0.7149 0.81955 0.87166 0.0
C84 C 0.81116 0.78824 0.86528 0.0
C85 C 0.88195 0.79725 0.80629 0.0
O86 O 0.88953 0.80557 0.82755 0.0
O87 O 0.85962 0.79604 0.79878 0.0
O88 O 0.33712 0.26903 0.33112 0.0
Cd89 Cd 0.34614 0.29916 0.30299 0.0
O90 O 0.30358 0.28232 0.33115 0.0
Cd91 Cd 0.26806 0.29038 0.3361 0.0
O92 O 0.2394 0.31021 0.32413 0.0
C93 C 0.23088 0.3235 0.33763 0.0
O94 O 0.23845 0.32489 0.36071 0.0
C95 C 0.31712 0.26813 0.33903 0.0
C96 C 0.37779 0.29137 0.27086 0.0
O97 O 0.38544 0.30138 0.29138 0.0
O98 O 0.35528 0.28454 0.26582 0.0
O99 O 0.48107 0.99832 0.61728 0.0
Cd100 Cd 0.45077 0.99476 0.58161 0.0
O101 O 0.5019 0.97644 0.59905 0.0
Cd102 Cd 0.47692 0.96372 0.5673 0.0
O103 O 0.46811 0.9334 0.54303 0.0
C104 C 0.4846 0.92784 0.53195 0.0
O105 O 0.50526 0.94138 0.53417 0.0
C106 C 0.49975 0.98902 0.61698 0.0
C107 C 0.41919 0.02696 0.57817 0.0
O108 O 0.41413 0.00784 0.58799 0.0
O109 O 0.43953 0.03123 0.57051 0.0
O110 O 0.24311 0.36643 0.7297 0.0
Cd111 Cd 0.21321 0.33208 0.72843 0.0
O112 O 0.21675 0.38919 0.71919 0.0
Cd113 Cd 0.18568 0.3635 0.72142 0.0
O114 O 0.15389 0.35083 0.7377 0.0
C115 C 0.14338 0.36592 0.74638 0.0
O116 O 0.15159 0.38757 0.74405 0.0
C117 C 0.23835 0.38617 0.72446 0.0
C118 C 0.21601 0.3033 0.68937 0.0
O119 O 0.20266 0.31892 0.68753 0.0
O120 O 0.22792 0.30108 0.70984 0.0
O121 O 0.82225 0.25203 0.78405 0.0
Cd122 Cd 0.77985 0.25378 0.771 0.0
O123 O 0.81596 0.21456 0.77931 0.0
Cd124 Cd 0.77749 0.20929 0.76851 0.0
O125 O 0.74538 0.18481 0.77049 0.0
C126 C 0.72463 0.18964 0.77176 0.0
O127 O 0.72113 0.21103 0.77082 0.0
C128 C 0.83013 0.23304 0.78518 0.0
C129 C 0.76752 0.25834 0.72192 0.0
O130 O 0.77198 0.27594 0.73631 0.0
O131 O 0.76931 0.2388 0.73067 0.0
O132 O 0.54704 0.54444 0.47916 0.0
Cd133 Cd 0.53875 0.5076 0.49798 0.0
O134 O 0.52149 0.55842 0.49929 0.0
Cd135 Cd 0.51056 0.52864 0.51961 0.0
O136 O 0.48821 0.51576 0.54647 0.0
C137 C 0.49705 0.51318 0.56792 0.0
O138 O 0.52039 0.5164 0.57351 0.0
C139 C 0.53633 0.56093 0.48419 0.0
C140 C 0.57025 0.47649 0.49256 0.0
O141 O 0.55238 0.47768 0.47661 0.0
O142 O 0.57363 0.49043 0.51082 0.0
O143 O 0.59716 0.51709 0.0348 0.0
Cd144 Cd 0.55968 0.49143 0.02158 0.0
O145 O 0.57968 0.54723 0.02683 0.0
Cd146 Cd 0.54541 0.52828 0.01089 0.0
O147 O 0.51584 0.5204 0.98198 0.0
C148 C 0.51922 0.51007 0.96301 0.0
O149 O 0.53987 0.50303 0.96214 0.0
C150 C 0.59822 0.53869 0.03452 0.0
C151 C 0.56033 0.44546 0.03097 0.0
O152 O 0.56812 0.45418 0.01231 0.0
O153 O 0.55258 0.45859 0.04553 0.0
O154 O 0.78403 0.27101 0.3205 0.0
Cd155 Cd 0.80709 0.26992 0.28698 0.0
O156 O 0.75154 0.26358 0.2948 0.0
Cd157 Cd 0.71358 0.25469 0.28136 0.0
O158 O 0.68401 0.24179 0.25366 0.0
C159 C 0.66474 0.25022 0.24996 0.0
O160 O 0.66158 0.26718 0.264 0.0
C161 C 0.76135 0.26766 0.31632 0.0
C162 C 0.8154 0.22604 0.27549 0.0
O163 O 0.79644 0.23342 0.26619 0.0
O164 O 0.83033 0.23937 0.29039 0.0
O165 O 0.38656 0.00493 0.88236 0.0
Cd166 Cd 0.3516 0.01652 0.89738 0.0
O167 O 0.40357 0.01481 0.91874 0.0
Cd168 Cd 0.43241 0.02484 0.94812 0.0
O169 O 0.44751 0.04727 0.97934 0.0
C170 C 0.45655 0.06765 0.97582 0.0
O171 O 0.458 0.07379 0.95371 0.0
C172 C 0.40513 0.00737 0.89777 0.0
C173 C 0.33606 0.98872 0.93337 0.0
O174 O 0.32592 0.98553 0.91167 0.0
O175 O 0.35356 0.00507 0.93812 0.0
Mg176 Mg 0.20348 0.83993 0.02287 0.0
O177 O 0.23625 0.86694 0.0217 0.0
O178 O 0.26966 0.85233 0.0329 0.0
Mg179 Mg 0.25783 0.81458 0.03965 0.0
C180 C 0.25898 0.86889 0.02579 0.0
C181 C 0.17868 0.88301 0.01378 0.0
O182 O 0.19091 0.88857 0.03499 0.0
O183 O 0.211 0.82506 0.98734 0.0
O184 O 0.24371 0.80964 0.99949 0.0
O185 O 0.2036 0.84715 0.06228 0.0
O186 O 0.22298 0.82181 0.04748 0.0
C187 C 0.22764 0.81398 0.98297 0.0
C188 C 0.21789 0.83219 0.06596 0.0
O189 O 0.18007 0.86391 0.00373 0.0
Mg190 Mg 0.12573 0.49535 0.31886 0.0
O191 O 0.09986 0.49072 0.28353 0.0
O192 O 0.12159 0.49837 0.25353 0.0
Mg193 Mg 0.16103 0.50469 0.26915 0.0
C194 C 0.1015 0.49318 0.26129 0.0
C195 C 0.0921 0.4928 0.35697 0.0
O196 O 0.10614 0.51244 0.36193 0.0
O197 O 0.13733 0.46065 0.31271 0.0
O198 O 0.15861 0.46778 0.28226 0.0
O199 O 0.12363 0.53257 0.3195 0.0
O200 O 0.15077 0.51722 0.30274 0.0
C201 C 0.15008 0.45429 0.29752 0.0
C202 C 0.14138 0.53507 0.30713 0.0
O203 O 0.09553 0.48032 0.33949 0.0
Mg204 Mg 0.78956 0.6902 0.05678 0.0
O205 O 0.7549 0.66455 0.05457 0.0
O206 O 0.72379 0.68357 0.05158 0.0
Mg207 Mg 0.73839 0.72167 0.05196 0.0
C208 C 0.73244 0.66491 0.0528 0.0
C209 C 0.8317 0.6605 0.05561 0.0
O210 O 0.84511 0.67965 0.06406 0.0
O211 O 0.78246 0.69691 0.0165 0.0
O212 O 0.75206 0.71682 0.01605 0.0
O213 O 0.79111 0.69365 0.09686 0.0
O214 O 0.77245 0.71497 0.07143 0.0
C215 C 0.76716 0.70801 0.00538 0.0
C216 C 0.77758 0.70923 0.09314 0.0
O217 O 0.80929 0.66008 0.05036 0.0
Mg218 Mg 0.93089 0.06942 0.23346 0.0
O219 O 0.90332 0.03752 0.23625 0.0
O220 O 0.92172 0.00687 0.23512 0.0
Mg221 Mg 0.96096 0.01917 0.23144 0.0
C222 C 0.90299 0.01594 0.23654 0.0
C223 C 0.88406 0.09065 0.23452 0.0
O224 O 0.87659 0.07482 0.21743 0.0
O225 O 0.94721 0.06636 0.27195 0.0
O226 O 0.96663 0.03654 0.26922 0.0
O227 O 0.92302 0.06664 0.19378 0.0
O228 O 0.95072 0.05015 0.21472 0.0
C229 C 0.96075 0.05276 0.28139 0.0
C230 C 0.93909 0.05331 0.19423 0.0
O231 O 0.90536 0.09238 0.24501 0.0
Mg232 Mg 0.28133 0.18146 0.5381 0.0
O233 O 0.24685 0.15566 0.53308 0.0
O234 O 0.21596 0.1731 0.52005 0.0
Mg235 Mg 0.23076 0.21096 0.51733 0.0
C236 C 0.22458 0.15517 0.52642 0.0
C237 C 0.32407 0.1508 0.5418 0.0
O238 O 0.33788 0.16971 0.5377 0.0
O239 O 0.28194 0.18295 0.49731 0.0
O240 O 0.25247 0.20334 0.48746 0.0
O241 O 0.2753 0.19017 0.57569 0.0
O242 O 0.2619 0.20801 0.54405 0.0
C243 C 0.26957 0.1935 0.48191 0.0
C244 C 0.26315 0.20548 0.56677 0.0
O245 O 0.30184 0.15097 0.54208 0.0
Mg246 Mg 0.42141 0.54713 0.75536 0.0
O247 O 0.38972 0.51812 0.74927 0.0
O248 O 0.40417 0.48584 0.74253 0.0
Mg249 Mg 0.44483 0.49449 0.74388 0.0
C250 C 0.38671 0.49659 0.74475 0.0
C251 C 0.38693 0.58372 0.75967 0.0
O252 O 0.38536 0.58266 0.7362 0.0
O253 O 0.43213 0.53429 0.79198 0.0
O254 O 0.44829 0.5032 0.78463 0.0
O255 O 0.41683 0.55271 0.71644 0.0
O256 O 0.44022 0.5295 0.73385 0.0
C257 C 0.44245 0.51758 0.79918 0.0
C258 C 0.43057 0.53743 0.71447 0.0
O259 O 0.39917 0.57067 0.77178 0.0
Mg260 Mg 0.6906 0.30926 0.51839 0.0
O261 O 0.72692 0.33234 0.52091 0.0
O262 O 0.75572 0.31061 0.52753 0.0
Mg263 Mg 0.73787 0.27347 0.52809 0.0
C264 C 0.74898 0.33005 0.52431 0.0
C265 C 0.67116 0.35641 0.51687 0.0
O266 O 0.68255 0.35845 0.53877 0.0
O267 O 0.69547 0.29786 0.48044 0.0
O268 O 0.72412 0.27613 0.48833 0.0
O269 O 0.69208 0.31161 0.55857 0.0
O270 O 0.70602 0.28516 0.53877 0.0
C271 C 0.70963 0.28504 0.47351 0.0
C272 C 0.70337 0.2942 0.55899 0.0
O273 O 0.67159 0.33856 0.5041 0.0
Mg274 Mg 0.6087 0.01242 0.82833 0.0
O275 O 0.59674 0.00546 0.78765 0.0
O276 O 0.63053 0.01161 0.77091 0.0
Mg277 Mg 0.66266 0.02315 0.79916 0.0
C278 C 0.60786 0.00611 0.76928 0.0
C279 C 0.55346 0.0024 0.82963 0.0
O280 O 0.55387 0.01721 0.81261 0.0
O281 O 0.62408 0.97887 0.83112 0.0
O282 O 0.658 0.98751 0.81519 0.0
O283 O 0.6041 0.04882 0.82418 0.0
O284 O 0.6378 0.03563 0.82107 0.0
C285 C 0.64365 0.9736 0.82557 0.0
C286 C 0.62581 0.05244 0.81919 0.0
O287 O 0.57283 0.99573 0.8382 0.0
Mg288 Mg 0.03427 0.27769 0.90956 0.0
O289 O 0.99826 0.26247 0.88809 0.0
O290 O 0.97818 0.23943 0.91213 0.0
Mg291 Mg 0.00028 0.24179 0.94918 0.0
C292 C 0.98003 0.24845 0.89195 0.0
C293 C 0.0439 0.29401 0.85987 0.0
O294 O 0.04067 0.2717 0.8566 0.0
O295 O 0.01547 0.30236 0.92861 0.0
O296 O 0.99626 0.28005 0.95368 0.0
O297 O 0.05052 0.24781 0.89919 0.0
O298 O 0.03269 0.2495 0.93156 0.0
C299 C 0.00215 0.29963 0.94518 0.0
C300 C 0.04279 0.23773 0.91743 0.0
O301 O 0.04146 0.30253 0.88014 0.0
Mg302 Mg 0.54261 0.76055 0.42657 0.0
O303 O 0.50908 0.7512 0.39887 0.0
O304 O 0.48198 0.72859 0.41639 0.0
Mg305 Mg 0.4978 0.72391 0.45499 0.0
C306 C 0.48841 0.7393 0.3983 0.0
C307 C 0.56531 0.78146 0.38351 0.0
O308 O 0.56276 0.75953 0.37792 0.0
O309 O 0.52355 0.78558 0.44513 0.0
O310 O 0.49708 0.76231 0.46281 0.0
O311 O 0.55703 0.72945 0.41599 0.0
O312 O 0.53395 0.73046 0.44443 0.0
C313 C 0.50674 0.78235 0.45819 0.0
C314 C 0.54537 0.71872 0.43164 0.0
O315 O 0.55786 0.78789 0.40249 0.0
Mg316 Mg 0.9958 0.74297 0.63614 0.0
O317 O 0.03554 0.74396 0.65029 0.0
O318 O 0.05489 0.74127 0.61847 0.0
Mg319 Mg 0.02817 0.74019 0.58449 0.0
C320 C 0.05471 0.74289 0.64109 0.0
C321 C 0.96583 0.75373 0.67473 0.0
O322 O 0.94997 0.74725 0.6559 0.0
O323 O 0.00412 0.77978 0.62592 0.0
O324 O 0.02325 0.77729 0.59399 0.0
O325 O 0.99081 0.70524 0.63659 0.0
O326 O 0.00023 0.72487 0.60528 0.0
C327 C 0.01473 0.78904 0.60918 0.0
C328 C 0.99721 0.7055 0.61535 0.0
O329 O 0.98783 0.75415 0.67283 0.0
Mg330 Mg 0.48807 0.24781 0.09417 0.0
O331 O 0.52298 0.23992 0.11478 0.0
O332 O 0.54429 0.22617 0.08874 0.0
Mg333 Mg 0.52385 0.22708 0.05121 0.0
C334 C 0.54146 0.23184 0.11006 0.0
C335 C 0.45822 0.26051 0.13212 0.0
O336 O 0.44279 0.24733 0.11652 0.0
O337 O 0.5084 0.28073 0.08159 0.0
O338 O 0.52874 0.26632 0.05505 0.0
O339 O 0.47131 0.21154 0.09673 0.0
O340 O 0.49033 0.22424 0.06677 0.0
C341 C 0.52292 0.28335 0.06602 0.0
C342 C 0.47959 0.20726 0.07706 0.0
O343 O 0.47972 0.26527 0.12791 0.0
H344 H 0.29613 0.77049 0.88162 0.0
H345 H 0.246 0.79686 0.82899 0.0
H346 H 0.2221 0.80515 0.8609 0.0
H347 H 0.25255 0.74526 0.92021 0.0
H348 H 0.27307 0.7534 0.94711 0.0
H349 H 0.28427 0.74711 0.91962 0.0
H350 H 0.3109 0.78682 0.92325 0.0
H351 H 0.29975 0.79325 0.95064 0.0
H352 H 0.29729 0.81214 0.92609 0.0
H353 H 0.20617 0.8142 0.8998 0.0
H354 H 0.1997 0.82273 0.94146 0.0
H355 H 0.26075 0.79023 0.96771 0.0
C356 C 0.27988 0.77763 0.87671 0.0
C357 C 0.27266 0.78262 0.85277 0.0
C358 C 0.25146 0.79221 0.84709 0.0
C359 C 0.23788 0.79715 0.86515 0.0
C360 C 0.24573 0.79226 0.88869 0.0
C361 C 0.26618 0.78256 0.8944 0.0
C362 C 0.27181 0.78025 0.92109 0.0
C363 C 0.27032 0.755 0.92737 0.0
C364 C 0.29638 0.79394 0.93082 0.0
C365 C 0.25172 0.79076 0.92967 0.0
C366 C 0.23669 0.79744 0.91081 0.0
C367 C 0.21766 0.80874 0.91467 0.0
C368 C 0.21413 0.81352 0.9384 0.0
C369 C 0.22965 0.80711 0.95793 0.0
C370 C 0.2484 0.79526 0.95329 0.0
H371 H 0.01008 0.50823 0.45847 0.0
H372 H 0.97212 0.44014 0.43837 0.0
H373 H 0.99765 0.43711 0.40667 0.0
H374 H 0.01846 0.52559 0.39891 0.0
H375 H 0.04786 0.54132 0.40814 0.0
H376 H 0.02607 0.53832 0.42877 0.0
H377 H 0.05556 0.52107 0.45945 0.0
H378 H 0.07743 0.52398 0.43891 0.0
H379 H 0.06806 0.49649 0.45059 0.0
H380 H 0.02809 0.44123 0.37751 0.0
H381 H 0.06082 0.45244 0.35326 0.0
H382 H 0.07892 0.51748 0.39324 0.0
C383 C 0.00706 0.49265 0.44759 0.0
C384 C 0.98909 0.47441 0.45119 0.0
C385 C 0.98575 0.45441 0.43607 0.0
C386 C 1.00019 0.45249 0.41798 0.0
C387 C 0.0179 0.47071 0.41516 0.0
C388 C 0.02135 0.49042 0.42953 0.0
C389 C 0.04182 0.50744 0.42304 0.0
C390 C 0.03302 0.52947 0.41418 0.0
C391 C 0.0619 0.51253 0.44426 0.0
C392 C 0.04947 0.49414 0.40291 0.0
C393 C 0.03542 0.47303 0.39854 0.0
C394 C 0.0392 0.45774 0.38076 0.0
C395 C 0.05783 0.46425 0.36709 0.0
C396 C 0.07247 0.48581 0.37136 0.0
C397 C 0.06812 0.50086 0.38953 0.0
H398 H 0.83235 0.76422 0.90053 0.0
H399 H 0.76307 0.77806 0.8683 0.0
H400 H 0.74376 0.75435 0.89799 0.0
H401 H 0.81245 0.70479 0.91647 0.0
H402 H 0.8323 0.70777 0.9443 0.0
H403 H 0.84045 0.72387 0.91902 0.0
H404 H 0.84593 0.76151 0.94475 0.0
H405 H 0.83801 0.74554 0.97008 0.0
H406 H 0.82168 0.76808 0.95993 0.0
H407 H 0.73247 0.73217 0.93314 0.0
H408 H 0.73008 0.71503 0.97242 0.0
H409 H 0.80662 0.71482 0.98168 0.0
C410 C 0.81306 0.76196 0.89947 0.0
C411 C 0.79921 0.77321 0.88223 0.0
C412 C 0.77408 0.77005 0.88163 0.0
C413 C 0.76294 0.75634 0.89823 0.0
C414 C 0.77716 0.74575 0.91519 0.0
C415 C 0.80169 0.7484 0.91594 0.0
C416 C 0.81306 0.7367 0.93713 0.0
C417 C 0.82529 0.71712 0.92872 0.0
C418 C 0.8307 0.75399 0.95396 0.0
C419 C 0.79116 0.72764 0.94866 0.0
C420 C 0.77061 0.73275 0.93547 0.0
C421 C 0.74837 0.72776 0.94341 0.0
C422 C 0.7472 0.71801 0.96574 0.0
C423 C 0.76813 0.71336 0.97996 0.0
C424 C 0.79026 0.71761 0.97092 0.0
H425 H 0.03832 0.02607 0.40245 0.0
H426 H 0.02395 0.0895 0.43335 0.0
H427 H 0.99952 0.09615 0.3954 0.0
H428 H 0.04359 0.04614 0.34332 0.0
H429 H 0.02949 0.01936 0.3286 0.0
H430 H 0.04574 0.01976 0.35821 0.0
H431 H 0.00821 0.99767 0.37341 0.0
H432 H 0.99179 0.99733 0.34388 0.0
H433 H 0.98047 0.00906 0.36911 0.0
H434 H 0.97604 0.09539 0.3541 0.0
H435 H 0.95715 0.08836 0.31214 0.0
H436 H 0.9875 0.02557 0.30861 0.0
C437 C 0.03011 0.0414 0.40127 0.0
C438 C 0.03302 0.05725 0.42089 0.0
C439 C 0.022 0.07713 0.41854 0.0
C440 C 0.00803 0.08102 0.39709 0.0
C441 C 0.00535 0.06491 0.37817 0.0
C442 C 0.01622 0.04558 0.38003 0.0
C443 C 0.01076 0.03101 0.35704 0.0
C444 C 0.03377 0.02896 0.34615 0.0
C445 C 0.99699 0.00737 0.36111 0.0
C446 C 0.99513 0.04517 0.34192 0.0
C447 C 0.9921 0.0646 0.35443 0.0
C448 C 0.97833 0.08025 0.34411 0.0
C449 C 0.96762 0.07606 0.32028 0.0
C450 C 0.97085 0.05643 0.30699 0.0
C451 C 0.98467 0.04077 0.31817 0.0
H452 H 0.24159 0.26755 0.68765 0.0
H453 H 0.19544 0.30639 0.64329 0.0
H454 H 0.20056 0.28379 0.60761 0.0
H455 H 0.28294 0.2636 0.64686 0.0
H456 H 0.28743 0.23484 0.65361 0.0
H457 H 0.27894 0.25295 0.67604 0.0
H458 H 0.24227 0.22264 0.68061 0.0
H459 H 0.25069 0.20439 0.65819 0.0
H460 H 0.22127 0.21248 0.65458 0.0
H461 H 0.2133 0.25969 0.57654 0.0
H462 H 0.23163 0.23447 0.55187 0.0
H463 H 0.26832 0.20957 0.61602 0.0
C464 C 0.23234 0.27113 0.67047 0.0
C465 C 0.21809 0.28876 0.66828 0.0
C466 C 0.20639 0.29296 0.64545 0.0
C467 C 0.20917 0.2802 0.62506 0.0
C468 C 0.22353 0.26315 0.62781 0.0
C469 C 0.23479 0.25843 0.64992 0.0
C470 C 0.24985 0.23964 0.6477 0.0
C471 C 0.27636 0.24828 0.65657 0.0
C472 C 0.24045 0.21853 0.66106 0.0
C473 C 0.24568 0.23491 0.62082 0.0
C474 C 0.23039 0.24866 0.60977 0.0
C475 C 0.22493 0.24851 0.585 0.0
C476 C 0.23544 0.234 0.57109 0.0
C477 C 0.25108 0.2196 0.58192 0.0
C478 C 0.25607 0.22 0.60718 0.0
H479 H 0.5099 0.50841 0.61599 0.0
H480 H 0.44869 0.51278 0.56294 0.0
H481 H 0.42363 0.51488 0.59514 0.0
H482 H 0.47537 0.47471 0.65966 0.0
H483 H 0.4941 0.48984 0.68495 0.0
H484 H 0.50636 0.48507 0.65766 0.0
H485 H 0.52048 0.52856 0.65606 0.0
H486 H 0.5081 0.5335 0.68313 0.0
H487 H 0.49899 0.54794 0.65646 0.0
H488 H 0.40722 0.52351 0.63259 0.0
H489 H 0.39965 0.53452 0.67315 0.0
H490 H 0.47049 0.52237 0.70225 0.0
C491 C 0.49108 0.50914 0.6111 0.0
C492 C 0.4813 0.51046 0.58692 0.0
C493 C 0.45661 0.51167 0.58131 0.0
C494 C 0.44219 0.51286 0.59949 0.0
C495 C 0.45259 0.5124 0.62318 0.0
C496 C 0.47636 0.51012 0.62904 0.0
C497 C 0.48353 0.51171 0.65594 0.0
C498 C 0.49023 0.48898 0.66509 0.0
C499 C 0.50397 0.53161 0.66331 0.0
C500 C 0.4604 0.51633 0.66419 0.0
C501 C 0.44274 0.51652 0.645 0.0
C502 C 0.42067 0.5228 0.64783 0.0
C503 C 0.41658 0.52916 0.67086 0.0
C504 C 0.43439 0.52898 0.69073 0.0
C505 C 0.45638 0.52209 0.68739 0.0
H506 H 0.75076 0.29454 0.69921 0.0
H507 H 0.76682 0.22639 0.68619 0.0
H508 H 0.75292 0.22874 0.64316 0.0
H509 H 0.69677 0.28815 0.65821 0.0
H510 H 0.70133 0.31704 0.64842 0.0
H511 H 0.71376 0.31068 0.67808 0.0
H512 H 0.75592 0.32867 0.66961 0.0
H513 H 0.74361 0.33516 0.63993 0.0
H514 H 0.76771 0.31855 0.64387 0.0
H515 H 0.73708 0.23807 0.60194 0.0
H516 H 0.71909 0.25334 0.56482 0.0
H517 H 0.71172 0.31509 0.60422 0.0
C518 C 0.75158 0.28022 0.68725 0.0
C519 C 0.76001 0.26031 0.69602 0.0
C520 C 0.76046 0.2418 0.67987 0.0
C521 C 0.75264 0.24299 0.65539 0.0
C522 C 0.74425 0.26274 0.64736 0.0
C523 C 0.74356 0.28101 0.66275 0.0
C524 C 0.73284 0.29987 0.64951 0.0
C525 C 0.70981 0.30417 0.65913 0.0
C526 C 0.75112 0.32186 0.65081 0.0
C527 C 0.72756 0.28928 0.62429 0.0
C528 C 0.73448 0.26793 0.6235 0.0
C529 C 0.73161 0.25477 0.6023 0.0
C530 C 0.72142 0.26365 0.58129 0.0
C531 C 0.71404 0.28543 0.5816 0.0
C532 C 0.7171 0.29836 0.60345 0.0
H533 H 0.49762 0.00158 0.66428 0.0
H534 H 0.54569 0.98262 0.61608 0.0
H535 H 0.57777 0.98436 0.64989 0.0
H536 H 0.54227 0.04087 0.70334 0.0
H537 H 0.53001 0.03244 0.73031 0.0
H538 H 0.51077 0.03062 0.70217 0.0
H539 H 0.49658 0.98781 0.70825 0.0
H540 H 0.51596 0.98945 0.73629 0.0
H541 H 0.51835 0.9687 0.71322 0.0
H542 H 0.60448 0.98749 0.68812 0.0
H543 H 0.62517 0.99283 0.72934 0.0
H544 H 0.56033 0.00883 0.75414 0.0
C545 C 0.51499 0.99809 0.66085 0.0
C546 C 0.51913 0.992 0.63748 0.0
C547 C 0.54203 0.98725 0.63379 0.0
C548 C 0.56041 0.98819 0.65288 0.0
C549 C 0.55566 0.99379 0.67569 0.0
C550 C 0.53361 0.99874 0.67987 0.0
C551 C 0.53341 0.00384 0.70639 0.0
C552 C 0.52885 0.0284 0.71081 0.0
C553 C 0.51498 0.98641 0.71663 0.0
C554 C 0.55877 0.00097 0.71631 0.0
C555 C 0.5712 0.99522 0.69817 0.0
C556 C 0.59498 0.99199 0.70252 0.0
C557 C 0.60656 0.99507 0.72603 0.0
C558 C 0.59439 0.00119 0.74501 0.0
C559 C 0.57004 0.0039 0.74007 0.0
H560 H 0.86547 0.26831 0.80378 0.0
H561 H 0.85102 0.1947 0.79101 0.0
H562 H 0.88982 0.19125 0.81389 0.0
H563 H 0.9316 0.27388 0.80132 0.0
H564 H 0.93817 0.296 0.82471 0.0
H565 H 0.91053 0.29317 0.80468 0.0
H566 H 0.88692 0.29015 0.84109 0.0
H567 H 0.9144 0.29272 0.86118 0.0
H568 H 0.89151 0.26846 0.86241 0.0
H569 H 0.92629 0.19474 0.84349 0.0
H570 H 0.96104 0.2058 0.87466 0.0
H571 H 0.9542 0.27712 0.86636 0.0
C572 C 0.87075 0.25155 0.80523 0.0
C573 C 0.85508 0.23179 0.7956 0.0
C574 C 0.86261 0.21012 0.79818 0.0
C575 C 0.88468 0.20795 0.81116 0.0
C576 C 0.8993 0.22761 0.82113 0.0
C577 C 0.89294 0.24906 0.81796 0.0
C578 C 0.91149 0.26726 0.83175 0.0
C579 C 0.92367 0.28354 0.81459 0.0
C580 C 0.90041 0.28041 0.8502 0.0
C581 C 0.92866 0.25254 0.8439 0.0
C582 C 0.92125 0.22971 0.83748 0.0
C583 C 0.9327 0.21259 0.84817 0.0
C584 C 0.95227 0.21897 0.86589 0.0
C585 C 0.96035 0.24223 0.87241 0.0
C586 C 0.94863 0.25924 0.8611 0.0
H587 H 0.51599 0.91169 0.50532 0.0
H588 H 0.44697 0.89282 0.52992 0.0
H589 H 0.44424 0.85397 0.51198 0.0
H590 H 0.50184 0.87774 0.44846 0.0
H591 H 0.53147 0.87031 0.45016 0.0
H592 H 0.52707 0.89707 0.46336 0.0
H593 H 0.54841 0.88659 0.50411 0.0
H594 H 0.55272 0.85977 0.49112 0.0
H595 H 0.53755 0.86023 0.51724 0.0
H596 H 0.45076 0.81625 0.49461 0.0
H597 H 0.46487 0.78311 0.47693 0.0
H598 H 0.52917 0.82692 0.46276 0.0
C599 C 0.50011 0.89952 0.50663 0.0
C600 C 0.48168 0.90533 0.51904 0.0
C601 C 0.46127 0.88882 0.52043 0.0
C602 C 0.45957 0.86669 0.51033 0.0
C603 C 0.47831 0.8614 0.49869 0.0
C604 C 0.49806 0.87742 0.49654 0.0
C605 C 0.51608 0.8672 0.48382 0.0
C606 C 0.51929 0.87877 0.46004 0.0
C607 C 0.5401 0.86853 0.50005 0.0
C608 C 0.50362 0.84278 0.47959 0.0
C609 C 0.48185 0.83978 0.48828 0.0
C610 C 0.46764 0.81845 0.48748 0.0
C611 C 0.47587 0.79971 0.4775 0.0
C612 C 0.49808 0.80239 0.46834 0.0
C613 C 0.51199 0.82431 0.46932 0.0
H614 H 0.12252 0.32273 0.75534 0.0
H615 H 0.12047 0.39441 0.77088 0.0
H616 H 0.09103 0.38364 0.79868 0.0
H617 H 0.05839 0.30216 0.75956 0.0
H618 H 0.06503 0.27628 0.77333 0.0
H619 H 0.08364 0.28961 0.75243 0.0
H620 H 0.1209 0.29114 0.78431 0.0
H621 H 0.10244 0.27792 0.80528 0.0
H622 H 0.12118 0.30496 0.81318 0.0
H623 H 0.06602 0.36525 0.8286 0.0
H624 H 0.04626 0.34045 0.85728 0.0
H625 H 0.06364 0.28089 0.82119 0.0
C626 C 0.11551 0.33617 0.76419 0.0
C627 C 0.12381 0.35941 0.76092 0.0
C628 C 0.11435 0.37647 0.77303 0.0
C629 C 0.09757 0.37054 0.78884 0.0
C630 C 0.0902 0.34747 0.7921 0.0
C631 C 0.09866 0.33054 0.77991 0.0
C632 C 0.08913 0.30708 0.78779 0.0
C633 C 0.07309 0.29295 0.76704 0.0
C634 C 0.10963 0.29455 0.79827 0.0
C635 C 0.0747 0.3135 0.80692 0.0
C636 C 0.07536 0.33685 0.80902 0.0
C637 C 0.06497 0.3469 0.82682 0.0
C638 C 0.05386 0.3327 0.84306 0.0
C639 C 0.05323 0.30875 0.84132 0.0
C640 C 0.06342 0.2991 0.82271 0.0
H641 H 0.51918 0.60016 0.49457 0.0
H642 H 0.56301 0.57198 0.44746 0.0
H643 H 0.56905 0.60902 0.42787 0.0
H644 H 0.49026 0.6342 0.45137 0.0
H645 H 0.49043 0.65741 0.47262 0.0
H646 H 0.48936 0.62865 0.4826 0.0
H647 H 0.52719 0.64137 0.51322 0.0
H648 H 0.5283 0.67018 0.50344 0.0
H649 H 0.5539 0.65577 0.50294 0.0
H650 H 0.57017 0.64941 0.41356 0.0
H651 H 0.5678 0.69008 0.40678 0.0
H652 H 0.52358 0.69146 0.46384 0.0
C653 C 0.53004 0.60167 0.4801 0.0
C654 C 0.54058 0.58309 0.47251 0.0
C655 C 0.55476 0.58595 0.4536 0.0
C656 C 0.55823 0.6069 0.44233 0.0
C657 C 0.54744 0.6248 0.45023 0.0
C658 C 0.53373 0.62239 0.46877 0.0
C659 C 0.52447 0.6443 0.47428 0.0
C660 C 0.497 0.64092 0.46995 0.0
C661 C 0.53405 0.65344 0.49999 0.0
C662 C 0.53516 0.65953 0.45599 0.0
C663 C 0.54825 0.64796 0.44219 0.0
C664 C 0.55995 0.6586 0.42425 0.0
C665 C 0.55846 0.68171 0.42052 0.0
C666 C 0.54543 0.69397 0.43472 0.0
C667 C 0.53353 0.68258 0.45255 0.0
H668 H 0.87129 0.78037 0.75988 0.0
H669 H 0.93036 0.79827 0.8169 0.0
H670 H 0.95837 0.78829 0.7898 0.0
H671 H 0.89339 0.73228 0.73408 0.0
H672 H 0.88273 0.73853 0.7038 0.0
H673 H 0.86737 0.74619 0.72806 0.0
H674 H 0.87235 0.78819 0.71521 0.0
H675 H 0.88781 0.78068 0.69098 0.0
H676 H 0.9018 0.80304 0.71263 0.0
H677 H 0.98015 0.77772 0.75572 0.0
H678 H 0.99368 0.76666 0.71774 0.0
H679 H 0.92013 0.75577 0.68344 0.0
C680 C 0.89008 0.782 0.76678 0.0
C681 C 0.89861 0.79006 0.79055 0.0
C682 C 0.92338 0.79207 0.79878 0.0
C683 C 0.93944 0.78646 0.78352 0.0
C684 C 0.93044 0.77882 0.7601 0.0
C685 C 0.90632 0.77649 0.75182 0.0
C686 C 0.90124 0.7684 0.72576 0.0
C687 C 0.88524 0.74496 0.72276 0.0
C688 C 0.89015 0.78614 0.71024 0.0
C689 C 0.92629 0.76671 0.72059 0.0
C690 C 0.94291 0.77274 0.7406 0.0
C691 C 0.96726 0.77285 0.73997 0.0
C692 C 0.97478 0.76658 0.71831 0.0
C693 C 0.95798 0.76031 0.69761 0.0
C694 C 0.93345 0.7604 0.69892 0.0
H695 H 0.05047 0.90966 0.5521 0.0
H696 H 0.03335 0.94158 0.61647 0.0
H697 H 0.02343 0.90357 0.63286 0.0
H698 H 0.00413 0.86204 0.54769 0.0
H699 H 0.02191 0.84197 0.5376 0.0
H700 H 0.02854 0.8717 0.53119 0.0
H701 H 0.07209 0.87304 0.55155 0.0
H702 H 0.06565 0.84326 0.55787 0.0
H703 H 0.07746 0.86404 0.58186 0.0
H704 H 0.01342 0.86212 0.64138 0.0
H705 H 0.00644 0.82013 0.64262 0.0
H706 H 0.03092 0.81516 0.57306 0.0
C707 C 0.04484 0.90869 0.56974 0.0
C708 C 0.04267 0.92862 0.583 0.0
C709 C 0.03521 0.92657 0.606 0.0
C710 C 0.02948 0.90505 0.61545 0.0
C711 C 0.03146 0.88575 0.60176 0.0
C712 C 0.03918 0.88735 0.57951 0.0
C713 C 0.03965 0.86393 0.56842 0.0
C714 C 0.02253 0.85967 0.54483 0.0
C715 C 0.06523 0.86089 0.56472 0.0
C716 C 0.03074 0.84891 0.58781 0.0
C717 C 0.02605 0.86184 0.60685 0.0
C718 C 0.01717 0.85181 0.62665 0.0
C719 C 0.01317 0.82791 0.62713 0.0
C720 C 0.01816 0.81427 0.60797 0.0
C721 C 0.02702 0.82504 0.58806 0.0
H722 H 0.14426 0.76593 0.76335 0.0
H723 H 0.19999 0.74945 0.72319 0.0
H724 H 0.17057 0.74142 0.68695 0.0
H725 H 0.097 0.72264 0.73401 0.0
H726 H 0.07423 0.74067 0.73412 0.0
H727 H 0.09953 0.74457 0.75726 0.0
H728 H 0.10916 0.78707 0.74694 0.0
H729 H 0.08392 0.78328 0.72378 0.0
H730 H 0.11327 0.79418 0.71664 0.0
H731 H 0.13578 0.73644 0.65482 0.0
H732 H 0.09741 0.73428 0.62871 0.0
H733 H 0.06387 0.75353 0.68955 0.0
C734 C 0.15026 0.76051 0.74698 0.0
C735 C 0.17446 0.75833 0.74615 0.0
C736 C 0.18157 0.75125 0.72432 0.0
C737 C 0.16499 0.74663 0.70361 0.0
C738 C 0.14134 0.74908 0.705 0.0
C739 C 0.13391 0.75578 0.72609 0.0
C740 C 0.10746 0.75741 0.72253 0.0
C741 C 0.09375 0.7403 0.73789 0.0
C742 C 0.10321 0.78195 0.72778 0.0
C743 C 0.10129 0.75077 0.6961 0.0
C744 C 0.12111 0.74602 0.68638 0.0
C745 C 0.12008 0.74001 0.66222 0.0
C746 C 0.09819 0.73889 0.64753 0.0
C747 C 0.07757 0.74369 0.65704 0.0
C748 C 0.07922 0.7496 0.68173 0.0
H749 H 0.00534 0.61897 0.50744 0.0
H750 H 0.02236 0.57023 0.56102 0.0
H751 H 0.0232 0.59949 0.59294 0.0
H752 H 0.04249 0.66962 0.5402 0.0
H753 H 0.02116 0.68817 0.53045 0.0
H754 H 0.024 0.664 0.51166 0.0
H755 H 0.97874 0.64944 0.51035 0.0
H756 H 0.97579 0.67341 0.52927 0.0
H757 H 0.96635 0.64475 0.53802 0.0
H758 H 0.0175 0.63223 0.61903 0.0
H759 H 0.009 0.66766 0.63768 0.0
H760 H 0.99758 0.69605 0.56753 0.0
C761 C 0.00969 0.61457 0.52586 0.0
C762 C 0.01375 0.59226 0.53169 0.0
C763 C 0.01925 0.58719 0.55606 0.0
C764 C 0.01975 0.6037 0.57436 0.0
C765 C 0.01506 0.62531 0.56802 0.0
C766 C 0.0105 0.63093 0.54438 0.0
C767 C 0.00522 0.65521 0.54253 0.0
C768 C 0.02436 0.67013 0.5305 0.0
C769 C 0.98003 0.65571 0.52926 0.0
C770 C 0.0068 0.66207 0.56881 0.0
C771 C 0.01251 0.64455 0.58319 0.0
C772 C 0.01343 0.64622 0.60799 0.0
C773 C 0.00843 0.66635 0.6184 0.0
C774 C 0.00279 0.6846 0.60405 0.0
C775 C 0.00219 0.68247 0.57895 0.0
H776 H 0.81845 0.89805 0.24987 0.0
H777 H 0.75892 0.93629 0.24592 0.0
H778 H 0.78627 0.97168 0.2409 0.0
H779 H 0.86134 0.94026 0.28354 0.0
H780 H 0.8858 0.93479 0.26808 0.0
H781 H 0.86143 0.91224 0.27048 0.0
H782 H 0.85434 0.90599 0.2243 0.0
H783 H 0.87878 0.92844 0.22176 0.0
H784 H 0.84961 0.92976 0.20579 0.0
H785 H 0.82032 0.00319 0.23787 0.0
H786 H 0.85845 0.02833 0.23564 0.0
H787 H 0.89564 0.96944 0.24119 0.0
C788 C 0.8111 0.91382 0.24777 0.0
C789 C 0.7865 0.91435 0.2483 0.0
C790 C 0.77767 0.9354 0.24555 0.0
C791 C 0.79307 0.95562 0.24271 0.0
C792 C 0.81724 0.95453 0.24255 0.0
C793 C 0.8262 0.93416 0.24487 0.0
C794 C 0.85295 0.93771 0.24439 0.0
C795 C 0.86615 0.93085 0.26803 0.0
C796 C 0.85928 0.9247 0.22277 0.0
C797 C 0.85765 0.96328 0.24165 0.0
C798 C 0.83682 0.97266 0.24063 0.0
C799 C 0.83674 0.99602 0.23853 0.0
C800 C 0.85852 0.01018 0.23733 0.0
C801 C 0.8801 0.00091 0.23819 0.0
C802 C 0.8795 0.97711 0.24039 0.0
H803 H 0.85584 0.20719 0.28905 0.0
H804 H 0.78606 0.19312 0.24628 0.0
H805 H 0.79499 0.15562 0.23331 0.0
H806 H 0.88739 0.18341 0.24762 0.0
H807 H 0.90735 0.17176 0.26983 0.0
H808 H 0.89471 0.19662 0.27729 0.0
H809 H 0.87765 0.176 0.31291 0.0
H810 H 0.89028 0.15105 0.30556 0.0
H811 H 0.85877 0.14868 0.30762 0.0
H812 H 0.81249 0.1207 0.22307 0.0
H813 H 0.83741 0.09122 0.21597 0.0
H814 H 0.89573 0.12823 0.26542 0.0
C815 C 0.84229 0.19611 0.2772 0.0
C816 C 0.82021 0.20307 0.26873 0.0
C817 C 0.80308 0.18815 0.25304 0.0
C818 C 0.80796 0.16679 0.24562 0.0
C819 C 0.83002 0.16058 0.25409 0.0
C820 C 0.84688 0.17478 0.26958 0.0
C821 C 0.86964 0.16456 0.27513 0.0
C822 C 0.89102 0.18001 0.26697 0.0
C823 C 0.87435 0.15979 0.3019 0.0
C824 C 0.86311 0.14258 0.25998 0.0
C825 C 0.84012 0.14051 0.24814 0.0
C826 C 0.83045 0.12205 0.2324 0.0
C827 C 0.84476 0.1054 0.22847 0.0
C828 C 0.86851 0.10737 0.24016 0.0
C829 C 0.8776 0.12611 0.25634 0.0
H830 H 0.29189 0.96379 0.93384 0.0
H831 H 0.36203 0.97984 0.97544 0.0
H832 H 0.34907 0.95292 0.00591 0.0
H833 H 0.25834 0.95859 0.98559 0.0
H834 H 0.23652 0.93564 0.97123 0.0
H835 H 0.25104 0.95701 0.95346 0.0
H836 H 0.26501 0.92536 0.92867 0.0
H837 H 0.25049 0.90395 0.94629 0.0
H838 H 0.28184 0.90529 0.94393 0.0
H839 H 0.32966 0.92079 0.02922 0.0
H840 H 0.30443 0.88818 0.04481 0.0
H841 H 0.24621 0.89601 0.98968 0.0
C842 C 0.30444 0.96178 0.94948 0.0
C843 C 0.32797 0.97375 0.95228 0.0
C844 C 0.34388 0.97083 0.97303 0.0
C845 C 0.33669 0.9556 0.9904 0.0
C846 C 0.31339 0.94386 0.98698 0.0
C847 C 0.2974 0.94707 0.9672 0.0
C848 C 0.27352 0.93215 0.96748 0.0
C849 C 0.25369 0.94672 0.96957 0.0
C850 C 0.26737 0.91572 0.94528 0.0
C851 C 0.27877 0.91951 0.99011 0.0
C852 C 0.30186 0.92642 0.00112 0.0
C853 C 0.31138 0.91561 0.02108 0.0
C854 C 0.29698 0.89713 0.02979 0.0
C855 C 0.27327 0.88993 0.01875 0.0
C856 C 0.26403 0.90159 0.99894 0.0
H857 H 0.209 0.35411 0.36106 0.0
H858 H 0.2162 0.32832 0.29006 0.0
H859 H 0.19253 0.35665 0.27209 0.0
H860 H 0.14728 0.36732 0.34573 0.0
H861 H 0.15331 0.39275 0.36499 0.0
H862 H 0.16869 0.36888 0.37238 0.0
H863 H 0.20938 0.39531 0.3741 0.0
H864 H 0.19416 0.4192 0.36669 0.0
H865 H 0.21585 0.41173 0.34851 0.0
H866 H 0.17289 0.39078 0.26181 0.0
H867 H 0.15675 0.42724 0.26002 0.0
H868 H 0.16016 0.42994 0.33736 0.0
C869 C 0.20521 0.35411 0.34173 0.0
C870 C 0.2145 0.33893 0.327 0.0
C871 C 0.20926 0.33967 0.30177 0.0
C872 C 0.19579 0.35571 0.29136 0.0
C873 C 0.18734 0.37073 0.30637 0.0
C874 C 0.19158 0.3699 0.33102 0.0
C875 C 0.18154 0.38879 0.34306 0.0
C876 C 0.16151 0.37883 0.35739 0.0
C877 C 0.20142 0.4047 0.35902 0.0
C878 C 0.17172 0.40082 0.32135 0.0
C879 C 0.17518 0.39004 0.30036 0.0
C880 C 0.16959 0.39908 0.27808 0.0
C881 C 0.1605 0.41981 0.27724 0.0
C882 C 0.15684 0.43116 0.2985 0.0
C883 C 0.16213 0.42128 0.32078 0.0
H884 H 0.09846 0.07564 0.52433 0.0
H885 H 0.13717 0.02082 0.54808 0.0
H886 H 0.17539 0.04599 0.54576 0.0
H887 H 0.13855 0.09907 0.48215 0.0
H888 H 0.1354 0.12815 0.48933 0.0
H889 H 0.1112 0.10538 0.49172 0.0
H890 H 0.11094 0.11815 0.53596 0.0
H891 H 0.13518 0.14086 0.53374 0.0
H892 H 0.13806 0.12034 0.55668 0.0
H893 H 0.2093 0.07751 0.54197 0.0
H894 H 0.23652 0.11331 0.53829 0.0
H895 H 0.17546 0.14751 0.51668 0.0
C896 C 0.11491 0.06869 0.52836 0.0
C897 C 0.11483 0.04609 0.53584 0.0
C898 C 0.13684 0.03804 0.54214 0.0
C899 C 0.15861 0.05218 0.54079 0.0
C900 C 0.15805 0.07434 0.53321 0.0
C901 C 0.13677 0.08258 0.52715 0.0
C902 C 0.1411 0.10738 0.52061 0.0
C903 C 0.13096 0.11015 0.4944 0.0
C904 C 0.13071 0.12257 0.53778 0.0
C905 C 0.16816 0.11189 0.52418 0.0
C906 C 0.17758 0.09258 0.5313 0.0
C907 C 0.20213 0.09271 0.53629 0.0
C908 C 0.21745 0.11317 0.53414 0.0
C909 C 0.20821 0.13331 0.52716 0.0
C910 C 0.18318 0.13246 0.52192 0.0
H911 H 0.72806 0.14485 0.7798 0.0
H912 H 0.67751 0.19303 0.77438 0.0
H913 H 0.64603 0.16267 0.78438 0.0
H914 H 0.68646 0.09484 0.75516 0.0
H915 H 0.69993 0.07593 0.7755 0.0
H916 H 0.71785 0.10107 0.76636 0.0
H917 H 0.73097 0.11424 0.81086 0.0
H918 H 0.71305 0.0892 0.82013 0.0
H919 H 0.70853 0.11716 0.83003 0.0
H920 H 0.62063 0.12722 0.79679 0.0
H921 H 0.60342 0.08979 0.81053 0.0
H922 H 0.67127 0.0656 0.80852 0.0
C923 C 0.71031 0.14903 0.7804 0.0
C924 C 0.70522 0.17133 0.77621 0.0
C925 C 0.68181 0.17606 0.77745 0.0
C926 C 0.66382 0.15892 0.7831 0.0
C927 C 0.66958 0.1372 0.78744 0.0
C928 C 0.69226 0.13223 0.7861 0.0
C929 C 0.69421 0.10786 0.79251 0.0
C930 C 0.69995 0.09412 0.7711 0.0
C931 C 0.71279 0.10709 0.8147 0.0
C932 C 0.66913 0.09991 0.79795 0.0
C933 C 0.65512 0.11699 0.79478 0.0
C934 C 0.63142 0.1137 0.79919 0.0
C935 C 0.62182 0.09238 0.80703 0.0
C936 C 0.63595 0.07469 0.81048 0.0
C937 C 0.65989 0.07862 0.80582 0.0
H938 H 0.42581 0.07067 0.56174 0.0
H939 H 0.37277 0.01983 0.58708 0.0
H940 H 0.34282 0.04576 0.58002 0.0
H941 H 0.40625 0.11987 0.58808 0.0
H942 H 0.41205 0.1377 0.56333 0.0
H943 H 0.42942 0.11517 0.57044 0.0
H944 H 0.41777 0.09824 0.52704 0.0
H945 H 0.40026 0.12065 0.51983 0.0
H946 H 0.38664 0.09118 0.51506 0.0
H947 H 0.31824 0.07651 0.56905 0.0
H948 H 0.30119 0.11106 0.55731 0.0
H949 H 0.37024 0.14272 0.54003 0.0
C950 C 0.40792 0.06502 0.5659 0.0
C951 C 0.40166 0.04315 0.57495 0.0
C952 C 0.37805 0.03648 0.58019 0.0
C953 C 0.36087 0.05107 0.57617 0.0
C954 C 0.36756 0.07238 0.56704 0.0
C955 C 0.39056 0.07947 0.56216 0.0
C956 C 0.39308 0.10338 0.5527 0.0
C957 C 0.41127 0.12001 0.56965 0.0
C958 C 0.39983 0.10335 0.52714 0.0
C959 C 0.36787 0.10856 0.55292 0.0
C960 C 0.35345 0.09037 0.56114 0.0
C961 C 0.32939 0.0909 0.56269 0.0
C962 C 0.31985 0.11063 0.5559 0.0
C963 C 0.33434 0.1297 0.54777 0.0
C964 C 0.35868 0.1285 0.54621 0.0
H965 H 0.60516 0.46524 0.52648 0.0
H966 H 0.57014 0.44741 0.45411 0.0
H967 H 0.59406 0.41622 0.45156 0.0
H968 H 0.6643 0.45232 0.5171 0.0
H969 H 0.66952 0.44074 0.54629 0.0
H970 H 0.65108 0.46283 0.5417 0.0
H971 H 0.61653 0.437 0.55811 0.0
H972 H 0.63482 0.41483 0.56269 0.0
H973 H 0.60603 0.40887 0.54461 0.0
H974 H 0.61999 0.38552 0.45773 0.0
H975 H 0.6458 0.35744 0.47227 0.0
H976 H 0.66367 0.39508 0.54076 0.0
C977 C 0.60278 0.45502 0.50994 0.0
C978 C 0.58584 0.45886 0.49044 0.0
C979 C 0.58305 0.44486 0.46926 0.0
C980 C 0.59658 0.42711 0.46762 0.0
C981 C 0.61287 0.42358 0.4873 0.0
C982 C 0.61607 0.43717 0.50804 0.0
C983 C 0.63382 0.42904 0.52704 0.0
C984 C 0.656 0.44732 0.5334 0.0
C985 C 0.62209 0.42202 0.54943 0.0
C986 C 0.63981 0.40852 0.51388 0.0
C987 C 0.62768 0.40578 0.49092 0.0
C988 C 0.62973 0.3876 0.47562 0.0
C989 C 0.64442 0.37172 0.48406 0.0
C990 C 0.65682 0.37403 0.50765 0.0
C991 C 0.65458 0.39286 0.52259 0.0
H992 H 0.77392 0.25679 0.36224 0.0
H993 H 0.71744 0.28157 0.31594 0.0
H994 H 0.69597 0.28621 0.3508 0.0
H995 H 0.73555 0.22579 0.40228 0.0
H996 H 0.75745 0.23347 0.42827 0.0
H997 H 0.76694 0.23027 0.39926 0.0
H998 H 0.79076 0.27128 0.40435 0.0
H999 H 0.78127 0.27464 0.43328 0.0
H1000 H 0.77556 0.29486 0.41063 0.0
H1001 H 0.68296 0.29181 0.39202 0.0
H1002 H 0.67881 0.296 0.43508 0.0
H1003 H 0.74366 0.26652 0.45324 0.0
C1004 C 0.75683 0.26285 0.35937 0.0
C1005 C 0.74715 0.26851 0.33637 0.0
C1006 C 0.72487 0.27656 0.33331 0.0
C1007 C 0.71265 0.27942 0.35305 0.0
C1008 C 0.72289 0.27392 0.3756 0.0
C1009 C 0.74438 0.26556 0.37873 0.0
C1010 C 0.75219 0.26175 0.40478 0.0
C1011 C 0.75307 0.23631 0.40888 0.0
C1012 C 0.77637 0.27652 0.41378 0.0
C1013 C 0.73206 0.26979 0.41598 0.0
C1014 C 0.71526 0.27673 0.39897 0.0
C1015 C 0.69584 0.28609 0.40545 0.0
C1016 C 0.69365 0.28846 0.42994 0.0
C1017 C 0.71077 0.28142 0.44759 0.0
C1018 C 0.73001 0.27177 0.44029 0.0
H1019 H 0.42171 0.01458 0.85482 0.0
H1020 H 0.44026 0.98966 0.92549 0.0
H1021 H 0.47891 0.98208 0.91415 0.0
H1022 H 0.4503 0.97557 0.82104 0.0
H1023 H 0.4607 0.99715 0.80116 0.0
H1024 H 0.43366 0.99869 0.81407 0.0
H1025 H 0.45087 0.03951 0.83141 0.0
H1026 H 0.47784 0.03815 0.81841 0.0
H1027 H 0.47938 0.04431 0.85009 0.0
H1028 H 0.51577 0.97801 0.89533 0.0
H1029 H 0.55002 0.9818 0.87235 0.0
H1030 H 0.5082 0.01126 0.81456 0.0
C1031 C 0.43382 0.00727 0.86778 0.0
C1032 C 0.42809 0.00265 0.89101 0.0
C1033 C 0.44448 0.9935 0.90768 0.0
C1034 C 0.46633 0.98894 0.90131 0.0
C1035 C 0.47153 0.9938 0.87828 0.0
C1036 C 0.45586 0.003 0.86185 0.0
C1037 C 0.46655 0.00841 0.83899 0.0
C1038 C 0.45193 0.99409 0.81755 0.0
C1039 C 0.4688 0.03412 0.83447 0.0
C1040 C 0.4908 0.00108 0.84521 0.0
C1041 C 0.49314 0.99229 0.86777 0.0
C1042 C 0.51413 0.98482 0.87763 0.0
C1043 C 0.53347 0.98697 0.86438 0.0
C1044 C 0.53183 0.99687 0.84165 0.0
C1045 C 0.51001 0.00357 0.83183 0.0
H1046 H 0.27945 0.26528 0.36578 0.0
H1047 H 0.34096 0.23336 0.35445 0.0
H1048 H 0.33295 0.20748 0.38711 0.0
H1049 H 0.28802 0.26559 0.4277 0.0
H1050 H 0.25679 0.25951 0.43118 0.0
H1051 H 0.26578 0.27369 0.40518 0.0
H1052 H 0.23823 0.24231 0.37769 0.0
H1053 H 0.22913 0.22799 0.40367 0.0
H1054 H 0.24152 0.21277 0.38147 0.0
H1055 H 0.32075 0.18781 0.42403 0.0
H1056 H 0.30528 0.17637 0.46177 0.0
H1057 H 0.25105 0.22028 0.44763 0.0
C1058 C 0.29088 0.25252 0.36963 0.0
C1059 C 0.31072 0.25136 0.35728 0.0
C1060 C 0.32557 0.23463 0.36354 0.0
C1061 C 0.32114 0.21975 0.38204 0.0
C1062 C 0.30163 0.22159 0.39407 0.0
C1063 C 0.28664 0.23746 0.38799 0.0
C1064 C 0.26785 0.23701 0.4047 0.0
C1065 C 0.26975 0.26033 0.41797 0.0
C1066 C 0.24269 0.22957 0.39106 0.0
C1067 C 0.27506 0.21893 0.42155 0.0
C1068 C 0.29444 0.21006 0.41506 0.0
C1069 C 0.3053 0.19436 0.42906 0.0
C1070 C 0.29638 0.18793 0.45048 0.0
C1071 C 0.27682 0.19723 0.4577 0.0
C1072 C 0.26579 0.21251 0.4426 0.0
H1073 H 0.52225 0.49149 0.9187 0.0
H1074 H 0.47658 0.52652 0.95781 0.0
H1075 H 0.4498 0.52901 0.92031 0.0
H1076 H 0.51944 0.52423 0.86874 0.0
H1077 H 0.51887 0.50124 0.84711 0.0
H1078 H 0.53278 0.4994 0.87734 0.0
H1079 H 0.50547 0.461 0.88127 0.0
H1080 H 0.49156 0.46261 0.85091 0.0
H1081 H 0.47349 0.45944 0.87498 0.0
H1082 H 0.43114 0.53231 0.87824 0.0
H1083 H 0.42045 0.53418 0.83458 0.0
H1084 H 0.47743 0.49602 0.82271 0.0
C1085 C 0.50632 0.49921 0.9195 0.0
C1086 C 0.50152 0.5088 0.94122 0.0
C1087 C 0.48062 0.51898 0.94142 0.0
C1088 C 0.46527 0.52047 0.9202 0.0
C1089 C 0.47091 0.51145 0.89899 0.0
C1090 C 0.49076 0.50074 0.89851 0.0
C1091 C 0.49359 0.49377 0.87312 0.0
C1092 C 0.51759 0.50536 0.86618 0.0
C1093 C 0.49086 0.46765 0.86989 0.0
C1094 C 0.47273 0.50294 0.85935 0.0
C1095 C 0.4598 0.51296 0.87464 0.0
C1096 C 0.44084 0.52415 0.8661 0.0
C1097 C 0.43499 0.52523 0.84128 0.0
C1098 C 0.448 0.5151 0.82526 0.0
C1099 C 0.4669 0.50355 0.8345 0.0
H1100 H 0.78534 0.78085 0.21578 0.0
H1101 H 0.7135 0.79389 0.19153 0.0
H1102 H 0.71122 0.76737 0.1567 0.0
H1103 H 0.80419 0.77982 0.15882 0.0
H1104 H 0.82202 0.7574 0.16468 0.0
H1105 H 0.81722 0.77563 0.18896 0.0
H1106 H 0.80034 0.74016 0.21106 0.0
H1107 H 0.80505 0.72178 0.18678 0.0
H1108 H 0.7758 0.72009 0.19606 0.0
H1109 H 0.71755 0.74175 0.12328 0.0
H1110 H 0.73256 0.71949 0.09269 0.0
H1111 H 0.80047 0.72304 0.13793 0.0
C1112 C 0.76899 0.77786 0.20334 0.0
C1113 C 0.74954 0.78938 0.20644 0.0
C1114 C 0.72861 0.78525 0.18956 0.0
C1115 C 0.7271 0.77014 0.16977 0.0
C1116 C 0.74665 0.75924 0.16711 0.0
C1117 C 0.76722 0.76287 0.1834 0.0
C1118 C 0.78621 0.75011 0.17549 0.0
C1119 C 0.80873 0.76673 0.17176 0.0
C1120 C 0.7922 0.73196 0.19342 0.0
C1121 C 0.77329 0.73916 0.15193 0.0
C1122 C 0.75041 0.7445 0.14761 0.0
C1123 C 0.73539 0.73739 0.1265 0.0
C1124 C 0.74416 0.72494 0.10911 0.0
C1125 C 0.76772 0.71979 0.11285 0.0
C1126 C 0.78226 0.72652 0.13478 0.0
H1127 H 0.94247 0.04662 0.05464 0.0
H1128 H 0.00073 0.00731 0.06862 0.0
H1129 H 0.99291 0.00378 0.11057 0.0
H1130 H 0.95521 0.07927 0.10635 0.0
H1131 H 0.92476 0.08036 0.11108 0.0
H1132 H 0.93178 0.07612 0.08128 0.0
H1133 H 0.90112 0.03887 0.07546 0.0
H1134 H 0.89383 0.0431 0.10527 0.0
H1135 H 0.90327 0.01674 0.09673 0.0
H1136 H 0.98301 0.00974 0.15205 0.0
H1137 H 0.97133 0.02403 0.18953 0.0
H1138 H 0.91933 0.05924 0.14843 0.0
C1139 C 0.95313 0.03667 0.0663 0.0
C1140 C 0.97217 0.02719 0.05832 0.0
C1141 C 0.98598 0.01464 0.0743 0.0
C1142 C 0.98163 0.01249 0.09815 0.0
C1143 C 0.96327 0.02278 0.10566 0.0
C1144 C 0.94907 0.03442 0.09013 0.0
C1145 C 0.93215 0.04592 0.10314 0.0
C1146 C 0.93624 0.07195 0.1003 0.0
C1147 C 0.90604 0.03553 0.09464 0.0
C1148 C 0.9398 0.03983 0.12859 0.0
C1149 C 0.9575 0.02616 0.12964 0.0
C1150 C 0.96879 0.01999 0.15141 0.0
C1151 C 0.96204 0.02823 0.17264 0.0
C1152 C 0.94423 0.04257 0.17194 0.0
C1153 C 0.93273 0.04802 0.14957 0.0
H1154 H 0.28318 0.75799 0.16182 0.0
H1155 H 0.26305 0.79986 0.21769 0.0
H1156 H 0.2463 0.82434 0.18696 0.0
H1157 H 0.29895 0.80419 0.12188 0.0
H1158 H 0.28684 0.78673 0.0953 0.0
H1159 H 0.29892 0.77377 0.12185 0.0
H1160 H 0.25885 0.7465 0.12122 0.0
H1161 H 0.24667 0.75937 0.09473 0.0
H1162 H 0.2315 0.75831 0.12094 0.0
H1163 H 0.22927 0.84275 0.14954 0.0
H1164 H 0.21371 0.85331 0.10887 0.0
H1165 H 0.24494 0.79888 0.07825 0.0
C1166 C 0.27559 0.7725 0.16767 0.0
C1167 C 0.27452 0.77704 0.19218 0.0
C1168 C 0.26416 0.79608 0.19901 0.0
C1169 C 0.25461 0.8101 0.18169 0.0
C1170 C 0.25565 0.80492 0.15763 0.0
C1171 C 0.26598 0.78661 0.15066 0.0
C1172 C 0.26383 0.78393 0.12368 0.0
C1173 C 0.28861 0.78737 0.11518 0.0
C1174 C 0.24935 0.76065 0.11462 0.0
C1175 C 0.25031 0.80334 0.11651 0.0
C1176 C 0.24588 0.8154 0.13628 0.0
C1177 C 0.23286 0.83355 0.13394 0.0
C1178 C 0.22406 0.83941 0.11079 0.0
C1179 C 0.22829 0.82709 0.09034 0.0
C1180 C 0.24172 0.80894 0.09341 0.0
H1181 H 0.02343 0.51121 0.13746 0.0
H1182 H 0.96638 0.4626 0.15929 0.0
H1183 H 0.99034 0.46074 0.19886 0.0
H1184 H 0.06986 0.48331 0.16302 0.0
H1185 H 0.09061 0.509 0.17183 0.0
H1186 H 0.06784 0.50887 0.1466 0.0
H1187 H 0.05261 0.54295 0.16611 0.0
H1188 H 0.0755 0.54331 0.19135 0.0
H1189 H 0.04458 0.54083 0.19599 0.0
H1190 H 0.02145 0.46321 0.23561 0.0
H1191 H 0.05786 0.46805 0.26542 0.0
H1192 H 0.09532 0.5127 0.21789 0.0
C1193 C 0.01573 0.50063 0.1508 0.0
C1194 C 0.9929 0.48734 0.14551 0.0
C1195 C 0.98376 0.47309 0.16311 0.0
C1196 C 0.99722 0.47195 0.18561 0.0
C1197 C 0.0199 0.48494 0.19009 0.0
C1198 C 0.02912 0.49892 0.1731 0.0
C1199 C 0.05471 0.50957 0.18149 0.0
C1200 C 0.07175 0.50224 0.16474 0.0
C1201 C 0.05697 0.53572 0.18388 0.0
C1202 C 0.05855 0.49922 0.20573 0.0
C1203 C 0.03817 0.48537 0.21058 0.0
C1204 C 0.0375 0.47403 0.23199 0.0
C1205 C 0.05824 0.47687 0.2488 0.0
C1206 C 0.07945 0.49058 0.24388 0.0
C1207 C 0.07946 0.5019 0.22207 0.0
H1208 H 0.36148 0.70401 0.32048 0.0
H1209 H 0.3816 0.75727 0.27197 0.0
H1210 H 0.42192 0.76546 0.29542 0.0
H1211 H 0.39116 0.73367 0.37362 0.0
H1212 H 0.39974 0.70846 0.38743 0.0
H1213 H 0.37322 0.70618 0.36597 0.0
H1214 H 0.38942 0.67646 0.34057 0.0
H1215 H 0.41606 0.67872 0.36193 0.0
H1216 H 0.41837 0.68367 0.3308 0.0
H1217 H 0.46001 0.76804 0.32512 0.0
H1218 H 0.49135 0.76639 0.35938 0.0
H1219 H 0.44507 0.71184 0.38824 0.0
C1220 C 0.37436 0.71729 0.31458 0.0
C1221 C 0.3684 0.72992 0.29428 0.0
C1222 C 0.38577 0.74735 0.28744 0.0
C1223 C 0.40873 0.75206 0.3006 0.0
C1224 C 0.41395 0.73923 0.32055 0.0
C1225 C 0.39716 0.72229 0.32752 0.0
C1226 C 0.40668 0.71158 0.35017 0.0
C1227 C 0.39182 0.7152 0.37049 0.0
C1228 C 0.40769 0.6861 0.34558 0.0
C1229 C 0.43144 0.72527 0.35506 0.0
C1230 C 0.43547 0.74099 0.3377 0.0
C1231 C 0.45704 0.75575 0.33876 0.0
C1232 C 0.47476 0.75464 0.35827 0.0
C1233 C 0.4707 0.73901 0.37657 0.0
C1234 C 0.44881 0.724 0.37462 0.0
H1235 H 0.95448 0.37248 0.04429 0.0
H1236 H 0.96713 0.43139 0.00058 0.0
H1237 H 0.97844 0.40684 0.96928 0.0
H1238 H 0.00322 0.34694 0.03126 0.0
H1239 H 0.98787 0.31801 0.03061 0.0
H1240 H 0.97896 0.33981 0.04867 0.0
H1241 H 0.9356 0.33041 0.02703 0.0
H1242 H 0.94436 0.30847 0.00894 0.0
H1243 H 0.93023 0.33088 0.99482 0.0
H1244 H 0.99141 0.37636 0.94421 0.0
H1245 H 0.00373 0.34219 0.92668 0.0
H1246 H 0.98193 0.30312 0.98661 0.0
C1247 C 0.9593 0.38021 0.02801 0.0
C1248 C 0.95989 0.4039 0.0249 0.0
C1249 C 0.96646 0.4133 0.00335 0.0
C1250 C 0.97291 0.39948 0.98547 0.0
C1251 C 0.97254 0.37627 0.98931 0.0
C1252 C 0.96571 0.36668 0.00997 0.0
C1253 C 0.96765 0.34147 0.01014 0.0
C1254 C 0.98549 0.33627 0.03143 0.0
C1255 C 0.94299 0.32695 0.01023 0.0
C1256 C 0.97711 0.33845 0.98656 0.0
C1257 C 0.97973 0.3587 0.97477 0.0
C1258 C 0.98919 0.36036 0.95316 0.0
C1259 C 0.99621 0.34085 0.94339 0.0
C1260 C 0.99373 0.31989 0.95519 0.0
C1261 C 0.98383 0.31876 0.97697 0.0
H1262 H 0.65976 0.82104 0.29468 0.0
H1263 H 0.65627 0.89105 0.31646 0.0
H1264 H 0.62433 0.87735 0.34064 0.0
H1265 H 0.59554 0.80021 0.29102 0.0
H1266 H 0.60023 0.77287 0.30253 0.0
H1267 H 0.62174 0.78828 0.28567 0.0
H1268 H 0.65531 0.78638 0.32085 0.0
H1269 H 0.63393 0.77099 0.33779 0.0
H1270 H 0.65206 0.79709 0.35025 0.0
H1271 H 0.59491 0.8559 0.36487 0.0
H1272 H 0.56978 0.8282 0.38676 0.0
H1273 H 0.59184 0.7724 0.34834 0.0
C1274 C 0.65211 0.83352 0.30431 0.0
C1275 C 0.66054 0.85712 0.30366 0.0
C1276 C 0.6501 0.87288 0.31663 0.0
C1277 C 0.63191 0.86527 0.33041 0.0
C1278 C 0.6242 0.84188 0.33087 0.0
C1279 C 0.63386 0.82624 0.31805 0.0
C1280 C 0.62301 0.80201 0.32229 0.0
C1281 C 0.60932 0.79015 0.29899 0.0
C1282 C 0.64222 0.78832 0.33347 0.0
C1283 C 0.60614 0.80645 0.3399 0.0
C1284 C 0.60699 0.82956 0.34454 0.0
C1285 C 0.59387 0.83777 0.36117 0.0
C1286 C 0.57969 0.82191 0.37354 0.0
C1287 C 0.57874 0.79815 0.36916 0.0
C1288 C 0.59193 0.79044 0.35187 0.0
H1289 H 0.01939 0.11682 0.97688 0.0
H1290 H 0.06041 0.09039 0.92579 0.0
H1291 H 0.06712 0.12859 0.90873 0.0
H1292 H 0.99053 0.15378 0.93762 0.0
H1293 H 0.99204 0.17596 0.96039 0.0
H1294 H 0.99065 0.14664 0.96858 0.0
H1295 H 0.02955 0.15736 0.99825 0.0
H1296 H 0.03104 0.18673 0.99019 0.0
H1297 H 0.05601 0.1719 0.98759 0.0
H1298 H 0.06834 0.16955 0.89669 0.0
H1299 H 0.06527 0.21025 0.89137 0.0
H1300 H 0.02437 0.20985 0.95128 0.0
C1301 C 0.0298 0.11899 0.96209 0.0
C1302 C 0.03932 0.10055 0.95261 0.0
C1303 C 0.05296 0.10424 0.93336 0.0
C1304 C 0.05682 0.12586 0.92354 0.0
C1305 C 0.04706 0.14361 0.93329 0.0
C1306 C 0.03395 0.14041 0.95223 0.0
C1307 C 0.02551 0.16226 0.95958 0.0
C1308 C 0.99805 0.15948 0.95634 0.0
C1309 C 0.03617 0.17002 0.98543 0.0
C1310 C 0.03582 0.17829 0.94172 0.0
C1311 C 0.04812 0.1672 0.92666 0.0
C1312 C 0.05884 0.17841 0.90845 0.0
C1313 C 0.05695 0.20154 0.90557 0.0
C1314 C 0.04453 0.21329 0.92088 0.0
C1315 C 0.03394 0.20143 0.93924 0.0
H1316 H 0.36682 0.2704 0.22616 0.0
H1317 H 0.42612 0.30604 0.2754 0.0
H1318 H 0.45328 0.30263 0.24512 0.0
H1319 H 0.39974 0.23057 0.20095 0.0
H1320 H 0.38388 0.23105 0.17122 0.0
H1321 H 0.36935 0.23621 0.19692 0.0
H1322 H 0.36021 0.27479 0.18011 0.0
H1323 H 0.37484 0.26981 0.15443 0.0
H1324 H 0.38438 0.29559 0.17285 0.0
H1325 H 0.47386 0.29577 0.20888 0.0
H1326 H 0.48631 0.2847 0.17035 0.0
H1327 H 0.41333 0.25358 0.14533 0.0
C1328 C 0.38553 0.27742 0.23066 0.0
C1329 C 0.39433 0.28848 0.25317 0.0
C1330 C 0.41896 0.29744 0.25829 0.0
C1331 C 0.43452 0.29564 0.24119 0.0
C1332 C 0.42519 0.2848 0.21908 0.0
C1333 C 0.40128 0.27575 0.21385 0.0
C1334 C 0.39569 0.26488 0.18883 0.0
C1335 C 0.38664 0.23916 0.18953 0.0
C1336 C 0.37772 0.277 0.17313 0.0
C1337 C 0.42018 0.26925 0.18075 0.0
C1338 C 0.43698 0.28081 0.19839 0.0
C1339 C 0.46085 0.28669 0.19495 0.0
C1340 C 0.46774 0.28039 0.17299 0.0
C1341 C 0.45082 0.26828 0.1548 0.0
C1342 C 0.42674 0.26283 0.15882 0.0
H1343 H 0.53583 0.41962 0.06247 0.0
H1344 H 0.58288 0.41548 0.00831 0.0
H1345 H 0.58015 0.37397 0.01331 0.0
H1346 H 0.55757 0.37587 0.10088 0.0
H1347 H 0.5282 0.36468 0.10778 0.0
H1348 H 0.53528 0.39439 0.10138 0.0
H1349 H 0.49925 0.38984 0.06776 0.0
H1350 H 0.49209 0.36013 0.07401 0.0
H1351 H 0.49697 0.36827 0.04418 0.0
H1352 H 0.57101 0.33301 0.02262 0.0
H1353 H 0.5554 0.29475 0.03491 0.0
H1354 H 0.5134 0.32486 0.08265 0.0
C1355 C 0.54584 0.41003 0.05193 0.0
C1356 C 0.55969 0.42081 0.03508 0.0
C1357 C 0.5722 0.4076 0.02134 0.0
C1358 C 0.57081 0.38402 0.0241 0.0
C1359 C 0.55679 0.37388 0.04062 0.0
C1360 C 0.5445 0.3864 0.05431 0.0
C1361 C 0.52968 0.37104 0.06983 0.0
C1362 C 0.5382 0.37684 0.09656 0.0
C1363 C 0.50291 0.37241 0.06356 0.0
C1364 C 0.53533 0.34791 0.06247 0.0
C1365 C 0.55118 0.35003 0.04576 0.0
C1366 C 0.55869 0.33112 0.03578 0.0
C1367 C 0.54964 0.30942 0.04289 0.0
C1368 C 0.5331 0.30667 0.05978 0.0
C1369 C 0.52606 0.3263 0.06981 0.0
H1370 H 0.62159 0.26458 0.23608 0.0
H1371 H 0.66808 0.21787 0.21571 0.0
H1372 H 0.64035 0.2065 0.17879 0.0
H1373 H 0.56492 0.22849 0.21224 0.0
H1374 H 0.55095 0.25256 0.20222 0.0
H1375 H 0.57362 0.25587 0.22794 0.0
H1376 H 0.59796 0.28886 0.20788 0.0
H1377 H 0.57544 0.28559 0.1821 0.0
H1378 H 0.60607 0.28396 0.17853 0.0
H1379 H 0.60961 0.20265 0.14255 0.0
H1380 H 0.57676 0.20527 0.11018 0.0
H1381 H 0.54955 0.25356 0.15449 0.0
C1382 C 0.62579 0.25173 0.22403 0.0
C1383 C 0.64704 0.24214 0.22882 0.0
C1384 C 0.65191 0.22545 0.21249 0.0
C1385 C 0.63626 0.21886 0.19145 0.0
C1386 C 0.61569 0.22893 0.18708 0.0
C1387 C 0.61028 0.24484 0.20298 0.0
C1388 C 0.5874 0.25361 0.19357 0.0
C1389 C 0.56808 0.24724 0.20997 0.0
C1390 C 0.59201 0.27954 0.19033 0.0
C1391 C 0.58111 0.2405 0.16968 0.0
C1392 C 0.59764 0.22633 0.16631 0.0
C1393 C 0.59636 0.21345 0.14509 0.0
C1394 C 0.5777 0.21513 0.12678 0.0
C1395 C 0.5605 0.2295 0.12986 0.0
C1396 C 0.5622 0.24216 0.15172 0.0
H1397 H 0.47571 0.11266 0.97395 0.0
H1398 H 0.45041 0.06189 0.02297 0.0
H1399 H 0.45621 0.0918 0.05529 0.0
H1400 H 0.52078 0.14749 0.0182 0.0
H1401 H 0.51485 0.17383 0.00501 0.0
H1402 H 0.511 0.14801 0.98653 0.0
H1403 H 0.46732 0.15329 0.97185 0.0
H1404 H 0.47097 0.17899 0.99036 0.0
H1405 H 0.44715 0.15606 0.99351 0.0
H1406 H 0.46081 0.12799 0.08104 0.0
H1407 H 0.46568 0.16729 0.0986 0.0
H1408 H 0.48847 0.19397 0.03275 0.0
C1409 C 0.47181 0.10771 0.99159 0.0
C1410 C 0.46262 0.08491 0.99592 0.0
C1411 C 0.45756 0.07922 0.01923 0.0
C1412 C 0.46079 0.0961 0.03771 0.0
C1413 C 0.46931 0.11852 0.03265 0.0
C1414 C 0.475 0.12429 0.01022 0.0
C1415 C 0.48272 0.14976 0.00905 0.0
C1416 C 0.50889 0.15508 0.00443 0.0
C1417 C 0.46604 0.16012 0.99007 0.0
C1418 C 0.47986 0.15751 0.03413 0.0
C1419 C 0.47224 0.13926 0.04754 0.0
C1420 C 0.46712 0.14238 0.07082 0.0
C1421 C 0.46984 0.16475 0.08061 0.0
C1422 C 0.47764 0.18367 0.06712 0.0
C1423 C 0.48285 0.17987 0.04366 0.0
H1424 H 0.28684 0.38573 0.73089 0.0
H1425 H 0.23378 0.43131 0.7208 0.0
H1426 H 0.26593 0.46444 0.72484 0.0
H1427 H 0.32762 0.42051 0.77485 0.0
H1428 H 0.35401 0.4137 0.76362 0.0
H1429 H 0.32686 0.39342 0.75938 0.0
H1430 H 0.32809 0.39209 0.71355 0.0
H1431 H 0.35533 0.41227 0.71766 0.0
H1432 H 0.32991 0.41829 0.69774 0.0
H1433 H 0.30369 0.49269 0.73173 0.0
H1434 H 0.34464 0.51406 0.73856 0.0
H1435 H 0.37312 0.45007 0.74313 0.0
C1436 C 0.28196 0.40266 0.72939 0.0
C1437 C 0.25776 0.40589 0.72556 0.0
C1438 C 0.25217 0.42836 0.72367 0.0
C1439 C 0.27031 0.44731 0.726 0.0
C1440 C 0.29395 0.44353 0.73004 0.0
C1441 C 0.29984 0.42177 0.7315 0.0
C1442 C 0.32666 0.42243 0.7359 0.0
C1443 C 0.33422 0.41189 0.75986 0.0
C1444 C 0.33551 0.41057 0.71496 0.0
C1445 C 0.33489 0.44796 0.73687 0.0
C1446 C 0.31575 0.45982 0.73355 0.0
C1447 C 0.31885 0.48359 0.73421 0.0
C1448 C 0.34219 0.49558 0.73819 0.0
C1449 C 0.36213 0.48377 0.74131 0.0
C1450 C 0.3583 0.45962 0.74066 0.0
H1451 H 0.33757 0.70186 0.76846 0.0
H1452 H 0.36293 0.70402 0.84453 0.0
H1453 H 0.37191 0.6647 0.84075 0.0
H1454 H 0.31198 0.64057 0.76207 0.0
H1455 H 0.32207 0.63714 0.73337 0.0
H1456 H 0.31467 0.66424 0.74253 0.0
H1457 H 0.35673 0.68419 0.73578 0.0
H1458 H 0.36422 0.65721 0.72658 0.0
H1459 H 0.38282 0.67416 0.75078 0.0
H1460 H 0.38061 0.62645 0.82839 0.0
H1461 H 0.39136 0.59304 0.80795 0.0
H1462 H 0.36189 0.61626 0.73949 0.0
C1463 C 0.34454 0.69385 0.78439 0.0
C1464 C 0.34935 0.70584 0.80683 0.0
C1465 C 0.35905 0.69507 0.82718 0.0
C1466 C 0.36407 0.67271 0.82524 0.0
C1467 C 0.35941 0.66144 0.8028 0.0
C1468 C 0.34999 0.67167 0.78269 0.0
C1469 C 0.34885 0.65667 0.76032 0.0
C1470 C 0.32284 0.64921 0.74891 0.0
C1471 C 0.36407 0.66878 0.74232 0.0
C1472 C 0.35963 0.63668 0.77093 0.0
C1473 C 0.36517 0.63959 0.79551 0.0
C1474 C 0.37619 0.62388 0.80918 0.0
C1475 C 0.38223 0.60494 0.79737 0.0
C1476 C 0.3775 0.60201 0.77209 0.0
C1477 C 0.36561 0.61791 0.75883 0.0
H1478 H 0.88086 0.39567 0.521 0.0
H1479 H 0.84923 0.45515 0.49813 0.0
H1480 H 0.80911 0.43407 0.50139 0.0
H1481 H 0.83509 0.354 0.48913 0.0
H1482 H 0.83654 0.33355 0.5123 0.0
H1483 H 0.86266 0.35357 0.50856 0.0
H1484 H 0.86617 0.36744 0.55301 0.0
H1485 H 0.83994 0.34757 0.55683 0.0
H1486 H 0.84109 0.37755 0.56388 0.0
H1487 H 0.77241 0.40639 0.50729 0.0
H1488 H 0.74182 0.37361 0.51309 0.0
H1489 H 0.79775 0.3323 0.53167 0.0
C1490 C 0.86552 0.4043 0.51667 0.0
C1491 C 0.86818 0.42708 0.50935 0.0
C1492 C 0.84762 0.43769 0.50375 0.0
C1493 C 0.82477 0.42589 0.50563 0.0
C1494 C 0.8228 0.40349 0.51307 0.0
C1495 C 0.84261 0.39277 0.51836 0.0
C1496 C 0.83564 0.36844 0.52542 0.0
C1497 C 0.84291 0.35139 0.5078 0.0
C1498 C 0.84635 0.36506 0.55132 0.0
C1499 C 0.80878 0.36711 0.52319 0.0
C1500 C 0.80172 0.38753 0.51622 0.0
C1501 C 0.77773 0.39031 0.51277 0.0
C1502 C 0.76049 0.37158 0.51617 0.0
C1503 C 0.76732 0.35031 0.52283 0.0
C1504 C 0.79186 0.34827 0.52662 0.0
H1505 H 0.73109 0.88013 0.84092 0.0
H1506 H 0.67673 0.83732 0.87389 0.0
H1507 H 0.65024 0.86665 0.8675 0.0
H1508 H 0.72138 0.9335 0.86552 0.0
H1509 H 0.72652 0.94884 0.83892 0.0
H1510 H 0.74089 0.92428 0.84577 0.0
H1511 H 0.72277 0.90555 0.80419 0.0
H1512 H 0.70831 0.93005 0.79723 0.0
H1513 H 0.69089 0.90195 0.79553 0.0
H1514 H 0.62991 0.90132 0.85802 0.0
H1515 H 0.61762 0.93823 0.84635 0.0
H1516 H 0.68539 0.95781 0.81939 0.0
C1517 C 0.7136 0.87684 0.84678 0.0
C1518 C 0.70602 0.85637 0.85793 0.0
C1519 C 0.68297 0.85284 0.8653 0.0
C1520 C 0.66778 0.86941 0.86174 0.0
C1521 C 0.67585 0.8894 0.85071 0.0
C1522 C 0.69823 0.89314 0.84333 0.0
C1523 C 0.70277 0.91611 0.83212 0.0
C1524 C 0.72415 0.93159 0.84644 0.0
C1525 C 0.70639 0.91323 0.8057 0.0
C1526 C 0.67951 0.92479 0.83445 0.0
C1527 C 0.66417 0.90917 0.84518 0.0
C1528 C 0.64177 0.91364 0.84953 0.0
C1529 C 0.63494 0.93468 0.84283 0.0
C1530 C 0.65046 0.95101 0.83188 0.0
C1531 C 0.67298 0.94577 0.8276 0.0
H1532 H 0.60568 0.58539 0.03674 0.0
H1533 H 0.64285 0.52685 0.04707 0.0
H1534 H 0.68142 0.55284 0.05439 0.0
H1535 H 0.64702 0.61732 0.00484 0.0
H1536 H 0.64416 0.64457 0.01806 0.0
H1537 H 0.6195 0.62152 0.01558 0.0
H1538 H 0.61811 0.62507 0.06129 0.0
H1539 H 0.64267 0.64829 0.0639 0.0
H1540 H 0.64476 0.62365 0.08179 0.0
H1541 H 0.71615 0.58541 0.05772 0.0
H1542 H 0.7439 0.62171 0.05851 0.0
H1543 H 0.68341 0.65848 0.04603 0.0
C1544 C 0.62186 0.57796 0.04088 0.0
C1545 C 0.6212 0.55404 0.04136 0.0
C1546 C 0.64287 0.54511 0.04672 0.0
C1547 C 0.66487 0.55974 0.05085 0.0
C1548 C 0.66485 0.58322 0.04971 0.0
C1549 C 0.64387 0.59225 0.04506 0.0
C1550 C 0.64863 0.61799 0.04398 0.0
C1551 C 0.63928 0.62579 0.01914 0.0
C1552 C 0.63791 0.62942 0.06393 0.0
C1553 C 0.67563 0.62207 0.04838 0.0
C1554 C 0.6847 0.60185 0.05171 0.0
C1555 C 0.70922 0.60136 0.05535 0.0
C1556 C 0.72484 0.62208 0.05568 0.0
C1557 C 0.71589 0.64303 0.05239 0.0
C1558 C 0.69091 0.64286 0.04874 0.0
H1559 H 0.24031 0.62816 0.26426 0.0
H1560 H 0.1965 0.67921 0.27949 0.0
H1561 H 0.1642 0.64858 0.28688 0.0
H1562 H 0.19092 0.58431 0.23558 0.0
H1563 H 0.20469 0.56129 0.24881 0.0
H1564 H 0.22301 0.58708 0.24166 0.0
H1565 H 0.24361 0.59176 0.28559 0.0
H1566 H 0.22532 0.56612 0.29289 0.0
H1567 H 0.22558 0.59247 0.30955 0.0
H1568 H 0.13864 0.61268 0.29705 0.0
H1569 H 0.12158 0.57432 0.30856 0.0
H1570 H 0.18215 0.54688 0.28655 0.0
C1571 C 0.22373 0.63293 0.26861 0.0
C1572 C 0.22092 0.65611 0.27123 0.0
C1573 C 0.19905 0.66158 0.27729 0.0
C1574 C 0.18057 0.64429 0.28148 0.0
C1575 C 0.18419 0.62164 0.27936 0.0
C1576 C 0.20516 0.61592 0.27287 0.0
C1577 C 0.20532 0.59042 0.27355 0.0
C1578 C 0.20602 0.58018 0.2484 0.0
C1579 C 0.22619 0.58488 0.29147 0.0
C1580 C 0.18149 0.58274 0.28216 0.0
C1581 C 0.16944 0.60095 0.28516 0.0
C1582 C 0.14774 0.59824 0.29441 0.0
C1583 C 0.13823 0.5764 0.30097 0.0
C1584 C 0.15046 0.55758 0.2983 0.0
C1585 C 0.17219 0.56084 0.28846 0.0
H1586 H 0.93579 0.58303 0.06674 0.0
H1587 H 0.88025 0.52387 0.05484 0.0
H1588 H 0.84958 0.5493 0.05001 0.0
H1589 H 0.90379 0.61632 0.10152 0.0
H1590 H 0.91501 0.64308 0.08939 0.0
H1591 H 0.93263 0.62024 0.09109 0.0
H1592 H 0.93505 0.62216 0.04555 0.0
H1593 H 0.91735 0.64496 0.04369 0.0
H1594 H 0.90788 0.61944 0.02484 0.0
H1595 H 0.82492 0.58113 0.04616 0.0
H1596 H 0.80784 0.61698 0.04619 0.0
H1597 H 0.87928 0.65554 0.06191 0.0
C1598 C 0.91718 0.57542 0.06303 0.0
C1599 C 0.91044 0.55143 0.06107 0.0
C1600 C 0.88587 0.54217 0.05644 0.0
C1601 C 0.86831 0.55649 0.05358 0.0
C1602 C 0.87556 0.58004 0.05556 0.0
C1603 C 0.89939 0.58946 0.06037 0.0
C1604 C 0.90234 0.61532 0.06241 0.0
C1605 C 0.91413 0.62425 0.0876 0.0
C1606 C 0.91649 0.6261 0.04296 0.0
C1607 C 0.87644 0.61895 0.05805 0.0
C1608 C 0.86131 0.59838 0.05392 0.0
C1609 C 0.8366 0.59734 0.04941 0.0
C1610 C 0.82706 0.61783 0.0494 0.0
C1611 C 0.84218 0.63913 0.05408 0.0
C1612 C 0.86722 0.63958 0.05829 0.0
H1613 H 0.10508 0.98746 0.00865 0.0
H1614 H 0.07358 0.96281 0.93684 0.0
H1615 H 0.09934 0.93275 0.93883 0.0
H1616 H 0.16584 0.97651 0.00346 0.0
H1617 H 0.17071 0.9678 0.03392 0.0
H1618 H 0.15104 0.98837 0.0261 0.0
H1619 H 0.11697 0.96284 0.04357 0.0
H1620 H 0.13647 0.94217 0.05132 0.0
H1621 H 0.10831 0.93358 0.03268 0.0
H1622 H 0.12658 0.9037 0.94975 0.0
H1623 H 0.15386 0.87852 0.96846 0.0
H1624 H 0.16768 0.9224 0.03295 0.0
C1625 C 0.10383 0.97597 0.99318 0.0
C1626 C 0.08734 0.97755 0.97255 0.0
C1627 C 0.08612 0.962 0.95281 0.0
C1628 C 0.10069 0.94486 0.95377 0.0
C1629 C 0.11647 0.94355 0.97453 0.0
C1630 C 0.11824 0.95878 0.99383 0.0
C1631 C 0.13594 0.95314 0.01439 0.0
C1632 C 0.15714 0.97261 0.01977 0.0
C1633 C 0.12368 0.9476 0.0368 0.0
C1634 C 0.14354 0.93211 0.00381 0.0
C1635 C 0.1322 0.9269 0.98077 0.0
C1636 C 0.13573 0.90774 0.96771 0.0
C1637 C 0.15122 0.8935 0.97851 0.0
C1638 C 0.16297 0.89849 0.00215 0.0
C1639 C 0.15913 0.91818 0.0148 0.0
loop_
_geom_bond_atom_site_label_1
_geom_bond_atom_site_label_2
_geom_bond_distance
_geom_bond_site_symmetry_2
_ccdc_geom_bond_type
O0 Cd1 2.300 . S
O0 C7 1.275 . S
Cd1 O0 2.300 . S
Cd1 O9 2.381 . S
Cd1 O10 2.378 . S
O2 Cd3 2.385 . S
O2 C7 1.255 . S
Cd3 O2 2.385 . S
Cd3 O4 2.317 . S
O4 Cd3 2.317 . S
O4 C5 1.232 1_455 S
C5 O4 1.232 1_655 S
C5 O6 1.218 . S
O6 C5 1.218 . S
C7 O0 1.275 . S
C7 O2 1.255 . S
C8 O9 1.257 1_565 S
C8 O10 1.255 1_565 S
O9 Cd1 2.381 . S
O9 C8 1.257 1_545 S
O10 Cd1 2.378 . S
O10 C8 1.255 1_545 S
O11 Cd12 2.300 . S
O11 C18 1.275 . S
Cd12 O11 2.300 . S
Cd12 O20 2.381 . S
Cd12 O21 2.378 . S
O13 Cd14 2.385 . S
O13 C18 1.255 . S
Cd14 O13 2.385 . S
Cd14 O15 2.317 . S
O15 Cd14 2.317 . S
O15 C16 1.232 . S
C16 O15 1.232 . S
C16 O17 1.218 . S
O17 C16 1.218 . S
C18 O11 1.275 . S
C18 O13 1.255 . S
C19 O20 1.258 . S
C19 O21 1.256 . S
O20 Cd12 2.381 . S
O20 C19 1.258 . S
O21 Cd12 2.378 . S
O21 C19 1.256 . S
O22 Cd23 2.300 . S
O22 C29 1.275 . S
Cd23 O22 2.300 . S
Cd23 O31 2.381 . S
Cd23 O32 2.378 . S
O24 Cd25 2.385 . S
O24 C29 1.255 1_455 S
Cd25 O24 2.385 . S
Cd25 O26 2.317 1_455 S
O26 Cd25 2.317 1_655 S
O26 C27 1.232 . S
C27 O26 1.232 . S
C27 O28 1.218 1_655 S
O28 C27 1.218 1_455 S
C29 O22 1.275 . S
C29 O24 1.255 1_655 S
C30 O31 1.258 . S
C30 O32 1.256 . S
O31 Cd23 2.381 . S
O31 C30 1.258 . S
O32 Cd23 2.378 . S
O32 C30 1.256 . S
O33 Cd34 2.300 . S
O33 C40 1.275 . S
Cd34 O33 2.300 . S
Cd34 O42 2.381 . S
Cd34 O43 2.378 . S
O35 Cd36 2.385 . S
O35 C40 1.255 . S
Cd36 O35 2.385 . S
Cd36 O37 2.317 . S
O37 Cd36 2.317 . S
O37 C38 1.232 . S
C38 O37 1.232 . S
C38 O39 1.218 . S
O39 C38 1.218 . S
C40 O33 1.275 . S
C40 O35 1.255 . S
C41 O42 1.258 . S
C41 O43 1.256 . S
O42 Cd34 2.381 . S
O42 C41 1.258 . S
O43 Cd34 2.378 . S
O43 C41 1.256 . S
O44 Cd45 2.300 . S
O44 C51 1.275 1_565 S
Cd45 O44 2.300 . S
Cd45 O53 2.381 . S
Cd45 O54 2.378 . S
O46 Cd47 2.385 . S
O46 C51 1.255 . S
Cd47 O46 2.385 . S
Cd47 O48 2.293 1_545 S
O48 Cd47 2.293 1_565 S
O48 C49 1.213 1_565 S
C49 O48 1.213 1_545 S
C49 O50 1.218 . S
O50 C49 1.218 . S
C51 O44 1.275 1_545 S
C51 O46 1.255 . S
C52 O53 1.258 . S
C52 O54 1.256 . S
O53 Cd45 2.381 . S
O53 C52 1.258 . S
O54 Cd45 2.378 . S
O54 C52 1.256 . S
O55 Cd56 2.300 . S
O55 C62 1.275 . S
Cd56 O55 2.300 . S
Cd56 O64 2.381 . S
Cd56 O65 2.378 . S
O57 Cd58 2.385 . S
O57 C62 1.255 . S
Cd58 O57 2.385 . S
Cd58 O59 2.317 . S
O59 Cd58 2.317 . S
O59 C60 1.232 . S
C60 O59 1.232 . S
C60 O61 1.218 . S
O61 C60 1.218 . S
C62 O55 1.275 . S
C62 O57 1.255 . S
C63 O64 1.258 . S
C63 O65 1.256 . S
O64 Cd56 2.381 . S
O64 C63 1.258 . S
O65 Cd56 2.378 . S
O65 C63 1.256 . S
O66 Cd67 2.300 . S
O66 C73 1.275 . S
Cd67 O66 2.300 . S
Cd67 O75 2.381 . S
Cd67 O76 2.378 . S
O68 Cd69 2.385 . S
O68 C73 1.255 1_455 S
Cd69 O68 2.385 . S
Cd69 O70 2.317 1_455 S
O70 Cd69 2.317 1_655 S
O70 C71 1.224 1_655 S
C71 O70 1.224 1_455 S
C71 O72 1.236 . S
O72 C71 1.236 . S
C73 O66 1.275 . S
C73 O68 1.255 1_655 S
C74 O75 1.258 . S
C74 O76 1.256 . S
O75 Cd67 2.381 . S
O75 C74 1.258 . S
O76 Cd67 2.378 . S
O76 C74 1.256 . S
O77 Cd78 2.300 . S
O77 C84 1.275 . S
Cd78 O77 2.300 . S
Cd78 O86 2.381 . S
Cd78 O87 2.378 . S
O79 Cd80 2.385 . S
O79 C84 1.255 . S
Cd80 O79 2.385 . S
Cd80 O81 2.317 . S
O81 Cd80 2.317 . S
O81 C82 1.232 . S
C82 O81 1.232 . S
C82 O83 1.218 . S
O83 C82 1.218 . S
C84 O77 1.275 . S
C84 O79 1.255 . S
C85 O86 1.258 . S
C85 O87 1.256 . S
O86 Cd78 2.381 . S
O86 C85 1.258 . S
O87 Cd78 2.378 . S
O87 C85 1.256 . S
O88 Cd89 2.300 . S
O88 C95 1.275 . S
Cd89 O88 2.300 . S
Cd89 O97 2.381 . S
Cd89 O98 2.378 . S
O90 Cd91 2.385 . S
O90 C95 1.255 . S
Cd91 O90 2.385 . S
Cd91 O92 2.317 . S
O92 Cd91 2.317 . S
O92 C93 1.232 . S
C93 O92 1.232 . S
C93 O94 1.218 . S
O94 C93 1.218 . S
C95 O88 1.275 . S
C95 O90 1.255 . S
C96 O97 1.258 . S
C96 O98 1.256 . S
O97 Cd89 2.381 . S
O97 C96 1.258 . S
O98 Cd89 2.378 . S
O98 C96 1.256 . S
O99 Cd100 2.300 1_565 S
O99 C106 1.275 . S
Cd100 O99 2.300 1_545 S
Cd100 O108 2.381 . S
Cd100 O109 2.378 . S
O101 Cd102 2.385 . S
O101 C106 1.255 . S
Cd102 O101 2.385 . S
Cd102 O103 2.317 . S
O103 Cd102 2.317 . S
O103 C104 1.232 . S
C104 O103 1.232 . S
C104 O105 1.218 . S
O105 C104 1.218 . S
C106 O99 1.275 . S
C106 O101 1.255 . S
C107 O108 1.258 . S
C107 O109 1.256 . S
O108 Cd100 2.381 . S
O108 C107 1.258 . S
O109 Cd100 2.378 . S
O109 C107 1.256 . S
O110 Cd111 2.300 . S
O110 C117 1.275 . S
Cd111 O110 2.300 . S
Cd111 O119 2.381 . S
Cd111 O120 2.378 . S
O112 Cd113 2.385 . S
O112 C117 1.255 . S
Cd113 O112 2.385 . S
Cd113 O114 2.317 . S
O114 Cd113 2.317 . S
O114 C115 1.232 . S
C115 O114 1.232 . S
C115 O116 1.218 . S
O116 C115 1.218 . S
C117 O110 1.275 . S
C117 O112 1.255 . S
C118 O119 1.258 . S
C118 O120 1.256 . S
O119 Cd111 2.381 . S
O119 C118 1.258 . S
O120 Cd111 2.378 . S
O120 C118 1.256 . S
O121 Cd122 2.300 . S
O121 C128 1.275 . S
Cd122 O121 2.300 . S
Cd122 O130 2.381 . S
Cd122 O131 2.378 . S
O123 Cd124 2.385 . S
O123 C128 1.255 . S
Cd124 O123 2.385 . S
Cd124 O125 2.317 . S
O125 Cd124 2.317 . S
O125 C126 1.232 . S
C126 O125 1.232 . S
C126 O127 1.218 . S
O127 C126 1.218 . S
C128 O121 1.275 . S
C128 O123 1.255 . S
C129 O130 1.258 . S
C129 O131 1.256 . S
O130 Cd122 2.381 . S
O130 C129 1.258 . S
O131 Cd122 2.378 . S
O131 C129 1.256 . S
O132 Cd133 2.300 . S
O132 C139 1.275 . S
Cd133 O132 2.300 . S
Cd133 O141 2.381 . S
Cd133 O142 2.378 . S
O134 Cd135 2.385 . S
O134 C139 1.255 . S
Cd135 O134 2.385 . S
Cd135 O136 2.317 . S
O136 Cd135 2.317 . S
O136 C137 1.232 . S
C137 O136 1.232 . S
C137 O138 1.218 . S
O138 C137 1.218 . S
C139 O132 1.275 . S
C139 O134 1.255 . S
C140 O141 1.258 . S
C140 O142 1.256 . S
O141 Cd133 2.381 . S
O141 C140 1.258 . S
O142 Cd133 2.378 . S
O142 C140 1.256 . S
O143 Cd144 2.300 1_556 S
O143 C150 1.275 . S
Cd144 O143 2.300 1_554 S
Cd144 O152 2.381 . S
Cd144 O153 2.378 . S
O145 Cd146 2.385 . S
O145 C150 1.255 . S
Cd146 O145 2.385 . S
Cd146 O147 2.317 . S
O147 Cd146 2.317 . S
O147 C148 1.232 . S
C148 O147 1.232 . S
C148 O149 1.218 . S
O149 C148 1.218 . S
C150 O143 1.275 . S
C150 O145 1.255 . S
C151 O152 1.258 . S
C151 O153 1.256 . S
O152 Cd144 2.381 . S
O152 C151 1.258 . S
O153 Cd144 2.378 . S
O153 C151 1.256 . S
O154 Cd155 2.300 . S
O154 C161 1.275 . S
Cd155 O154 2.300 . S
Cd155 O163 2.381 . S
Cd155 O164 2.378 . S
O156 Cd157 2.385 . S
O156 C161 1.255 . S
Cd157 O156 2.385 . S
Cd157 O158 2.317 . S
O158 Cd157 2.317 . S
O158 C159 1.232 . S
C159 O158 1.232 . S
C159 O160 1.218 . S
O160 C159 1.218 . S
C161 O154 1.275 . S
C161 O156 1.255 . S
C162 O163 1.258 . S
C162 O164 1.256 . S
O163 Cd155 2.381 . S
O163 C162 1.258 . S
O164 Cd155 2.378 . S
O164 C162 1.256 . S
O165 Cd166 2.300 1_556 S
O165 C172 1.275 . S
Cd166 O165 2.300 1_554 S
Cd166 O174 2.381 1_544 S
Cd166 O175 2.378 1_545 S
O167 Cd168 2.381 . S
O167 C172 1.259 1_554 S
Cd168 O167 2.381 . S
Cd168 O169 2.317 . S
O169 Cd168 2.317 . S
O169 C170 1.232 . S
C170 O169 1.232 . S
C170 O171 1.218 . S
O171 C170 1.218 . S
C172 O165 1.275 . S
C172 O167 1.259 1_556 S
C173 O174 1.254 . S
C173 O175 1.260 1_556 S
O174 Cd166 2.381 1_566 S
O174 C173 1.254 . S
O175 Cd166 2.378 1_565 S
O175 C173 1.260 1_554 S
Mg176 O177 2.028 . S
Mg176 O183 1.986 1_554 S
Mg176 O185 2.114 . S
Mg176 O186 2.251 . S
Mg176 O189 2.010 . S
O177 Mg176 2.028 . S
O177 C180 1.250 . S
O178 Mg179 2.028 1_554 S
O178 C180 1.248 . S
Mg179 O178 2.028 1_556 S
Mg179 O184 2.059 . S
Mg179 O186 2.055 1_556 S
C180 O177 1.250 . S
C180 O178 1.248 . S
C181 O182 1.264 . S
C181 O189 1.249 . S
O182 C181 1.264 . S
O183 Mg176 1.986 1_556 S
O183 C187 1.246 . S
O184 Mg179 2.059 . S
O184 C187 1.259 . S
O185 Mg176 2.114 . S
O185 C188 1.252 . S
O186 Mg176 2.251 . S
O186 Mg179 2.055 1_554 S
O186 C188 1.273 . S
C187 O183 1.246 . S
C187 O184 1.259 . S
C188 O185 1.252 . S
C188 O186 1.273 . S
O189 Mg176 2.010 . S
O189 C181 1.249 . S
Mg190 O191 2.028 . S
Mg190 O197 1.986 . S
Mg190 O199 2.114 . S
Mg190 O200 2.251 . S
Mg190 O203 2.010 . S
O191 Mg190 2.028 . S
O191 C194 1.250 . S
O192 Mg193 2.028 . S
O192 C194 1.248 . S
Mg193 O192 2.028 . S
Mg193 O198 2.032 . S
Mg193 O200 2.079 . S
C194 O191 1.250 . S
C194 O192 1.248 . S
C195 O196 1.264 . S
C195 O203 1.249 . S
O196 C195 1.264 . S
O197 Mg190 1.986 . S
O197 C201 1.246 . S
O198 Mg193 2.032 . S
O198 C201 1.259 . S
O199 Mg190 2.114 . S
O199 C202 1.252 . S
O200 Mg190 2.251 . S
O200 Mg193 2.079 . S
O200 C202 1.273 . S
C201 O197 1.246 . S
C201 O198 1.259 . S
C202 O199 1.252 . S
C202 O200 1.273 . S
O203 Mg190 2.010 . S
O203 C195 1.249 . S
Mg204 O205 2.028 . S
Mg204 O211 1.986 1_554 S
Mg204 O213 2.114 . S
Mg204 O214 2.251 . S
Mg204 O217 2.010 . S
O205 Mg204 2.028 . S
O205 C208 1.250 . S
O206 Mg207 2.028 . S
O206 C208 1.248 1_556 S
Mg207 O206 2.028 . S
Mg207 O212 2.032 . S
Mg207 O214 2.079 1_556 S
C208 O205 1.250 . S
C208 O206 1.248 1_554 S
C209 O210 1.264 . S
C209 O217 1.249 . S
O210 C209 1.264 . S
O211 Mg204 1.986 1_556 S
O211 C215 1.246 . S
O212 Mg207 2.032 . S
O212 C215 1.259 . S
O213 Mg204 2.114 . S
O213 C216 1.252 . S
O214 Mg204 2.251 . S
O214 Mg207 2.079 1_554 S
O214 C216 1.273 . S
C215 O211 1.246 . S
C215 O212 1.259 . S
C216 O213 1.252 . S
C216 O214 1.273 . S
O217 Mg204 2.010 . S
O217 C209 1.249 . S
Mg218 O219 2.028 . S
Mg218 O225 1.986 . S
Mg218 O227 2.114 . S
Mg218 O228 2.251 . S
Mg218 O231 2.010 . S
O219 Mg218 2.028 . S
O219 C222 1.250 1_545 S
O220 Mg221 2.028 . S
O220 C222 1.248 . S
Mg221 O220 2.028 . S
Mg221 O226 2.032 1_565 S
Mg221 O228 2.079 1_565 S
C222 O219 1.250 1_565 S
C222 O220 1.248 . S
C223 O224 1.264 . S
C223 O231 1.249 . S
O224 C223 1.264 . S
O225 Mg218 1.986 . S
O225 C229 1.246 . S
O226 Mg221 2.032 1_545 S
O226 C229 1.259 . S
O227 Mg218 2.114 . S
O227 C230 1.252 . S
O228 Mg218 2.251 . S
O228 Mg221 2.079 1_545 S
O228 C230 1.273 . S
C229 O225 1.246 . S
C229 O226 1.259 . S
C230 O227 1.252 . S
C230 O228 1.273 . S
O231 Mg218 2.010 . S
O231 C223 1.249 . S
Mg232 O233 2.028 . S
Mg232 O239 1.986 . S
Mg232 O241 2.114 . S
Mg232 O242 2.251 . S
Mg232 O245 2.010 . S
O233 Mg232 2.028 . S
O233 C236 1.250 . S
O234 Mg235 2.028 . S
O234 C236 1.248 . S
Mg235 O234 2.028 . S
Mg235 O240 2.032 . S
Mg235 O242 2.079 . S
C236 O233 1.250 . S
C236 O234 1.248 . S
C237 O238 1.264 . S
C237 O245 1.249 . S
O238 C237 1.264 . S
O239 Mg232 1.986 . S
O239 C243 1.246 . S
O240 Mg235 2.032 . S
O240 C243 1.259 . S
O241 Mg232 2.114 . S
O241 C244 1.252 . S
O242 Mg232 2.251 . S
O242 Mg235 2.079 . S
O242 C244 1.273 . S
C243 O239 1.246 . S
C243 O240 1.259 . S
C244 O241 1.252 . S
C244 O242 1.273 . S
O245 Mg232 2.010 . S
O245 C237 1.249 . S
Mg246 O247 2.028 . S
Mg246 O253 1.986 . S
Mg246 O255 2.114 . S
Mg246 O256 2.251 . S
Mg246 O259 2.010 . S
O247 Mg246 2.028 . S
O247 C250 1.250 . S
O248 Mg249 2.028 . S
O248 C250 1.248 . S
Mg249 O248 2.028 . S
Mg249 O254 2.032 . S
Mg249 O256 2.079 . S
C250 O247 1.250 . S
C250 O248 1.248 . S
C251 O252 1.264 . S
C251 O259 1.249 . S
O252 C251 1.264 . S
O253 Mg246 1.986 . S
O253 C257 1.246 . S
O254 Mg249 2.032 . S
O254 C257 1.259 . S
O255 Mg246 2.114 . S
O255 C258 1.252 . S
O256 Mg246 2.251 . S
O256 Mg249 2.079 . S
O256 C258 1.273 . S
C257 O253 1.246 . S
C257 O254 1.259 . S
C258 O255 1.252 . S
C258 O256 1.273 . S
O259 Mg246 2.010 . S
O259 C251 1.249 . S
Mg260 O261 2.028 . S
Mg260 O267 1.986 . S
Mg260 O269 2.114 . S
Mg260 O270 2.251 . S
Mg260 O273 2.010 . S
O261 Mg260 2.028 . S
O261 C264 1.250 . S
O262 Mg263 2.028 . S
O262 C264 1.248 . S
Mg263 O262 2.028 . S
Mg263 O268 2.032 . S
Mg263 O270 2.079 . S
C264 O261 1.250 . S
C264 O262 1.248 . S
C265 O266 1.264 . S
C265 O273 1.249 . S
O266 C265 1.264 . S
O267 Mg260 1.986 . S
O267 C271 1.246 . S
O268 Mg263 2.032 . S
O268 C271 1.259 . S
O269 Mg260 2.114 . S
O269 C272 1.252 . S
O270 Mg260 2.251 . S
O270 Mg263 2.079 . S
O270 C272 1.273 . S
C271 O267 1.246 . S
C271 O268 1.259 . S
C272 O269 1.252 . S
C272 O270 1.273 . S
O273 Mg260 2.010 . S
O273 C265 1.249 . S
Mg274 O275 2.028 1_545 S
Mg274 O281 1.986 1_545 S
Mg274 O283 2.114 . S
Mg274 O284 2.251 . S
Mg274 O287 2.010 . S
O275 Mg274 2.028 1_565 S
O275 C278 1.250 . S
O276 Mg277 2.028 . S
O276 C278 1.248 . S
Mg277 O276 2.028 . S
Mg277 O282 2.032 . S
Mg277 O284 2.079 1_565 S
C278 O275 1.250 . S
C278 O276 1.248 . S
C279 O280 1.264 . S
C279 O287 1.249 . S
O280 C279 1.264 . S
O281 Mg274 1.986 1_565 S
O281 C285 1.246 . S
O282 Mg277 2.032 . S
O282 C285 1.259 . S
O283 Mg274 2.114 . S
O283 C286 1.252 . S
O284 Mg274 2.251 . S
O284 Mg277 2.079 1_545 S
O284 C286 1.273 . S
C285 O281 1.246 . S
C285 O282 1.259 . S
C286 O283 1.252 . S
C286 O284 1.273 . S
O287 Mg274 2.010 . S
O287 C279 1.249 . S
Mg288 O289 2.028 . S
Mg288 O295 1.986 . S
Mg288 O297 2.114 . S
Mg288 O298 2.251 . S
Mg288 O301 2.010 . S
O289 Mg288 2.028 . S
O289 C292 1.250 1_455 S
O290 Mg291 2.028 . S
O290 C292 1.248 . S
Mg291 O290 2.028 . S
Mg291 O296 2.032 . S
Mg291 O298 2.079 1_655 S
C292 O289 1.250 1_655 S
C292 O290 1.248 . S
C293 O294 1.264 . S
C293 O301 1.249 . S
O294 C293 1.264 . S
O295 Mg288 1.986 . S
O295 C299 1.246 . S
O296 Mg291 2.032 . S
O296 C299 1.259 1_655 S
O297 Mg288 2.114 . S
O297 C300 1.252 . S
O298 Mg288 2.251 . S
O298 Mg291 2.079 1_455 S
O298 C300 1.273 . S
C299 O295 1.246 . S
C299 O296 1.259 1_455 S
C300 O297 1.252 . S
C300 O298 1.273 . S
O301 Mg288 2.010 . S
O301 C293 1.249 . S
Mg302 O303 2.028 . S
Mg302 O309 1.986 . S
Mg302 O311 2.114 . S
Mg302 O312 2.251 . S
Mg302 O315 2.010 . S
O303 Mg302 2.028 . S
O303 C306 1.250 . S
O304 Mg305 2.028 . S
O304 C306 1.248 . S
Mg305 O304 2.028 . S
Mg305 O310 2.032 . S
Mg305 O312 2.079 . S
C306 O303 1.250 . S
C306 O304 1.248 . S
C307 O308 1.264 . S
C307 O315 1.249 . S
O308 C307 1.264 . S
O309 Mg302 1.986 . S
O309 C313 1.246 . S
O310 Mg305 2.032 . S
O310 C313 1.259 . S
O311 Mg302 2.114 . S
O311 C314 1.252 . S
O312 Mg302 2.251 . S
O312 Mg305 2.079 . S
O312 C314 1.273 . S
C313 O309 1.246 . S
C313 O310 1.259 . S
C314 O311 1.252 . S
C314 O312 1.273 . S
O315 Mg302 2.010 . S
O315 C307 1.249 . S
Mg316 O317 2.028 . S
Mg316 O323 1.986 . S
Mg316 O325 2.114 1_455 S
Mg316 O326 2.251 . S
Mg316 O329 2.010 1_455 S
O317 Mg316 2.028 . S
O317 C320 1.250 . S
O318 Mg319 2.028 . S
O318 C320 1.248 . S
Mg319 O318 2.028 . S
Mg319 O324 2.032 . S
Mg319 O326 2.079 . S
C320 O317 1.250 . S
C320 O318 1.248 . S
C321 O322 1.264 . S
C321 O329 1.249 . S
O322 C321 1.264 . S
O323 Mg316 1.986 . S
O323 C327 1.246 . S
O324 Mg319 2.032 . S
O324 C327 1.259 . S
O325 Mg316 2.114 1_655 S
O325 C328 1.252 1_655 S
O326 Mg316 2.251 . S
O326 Mg319 2.079 . S
O326 C328 1.273 . S
C327 O323 1.246 . S
C327 O324 1.259 . S
C328 O325 1.252 1_455 S
C328 O326 1.273 . S
O329 Mg316 2.010 1_655 S
O329 C321 1.249 . S
Mg330 O331 2.028 . S
Mg330 O337 1.986 . S
Mg330 O339 2.114 . S
Mg330 O340 2.251 . S
Mg330 O343 2.010 . S
O331 Mg330 2.028 . S
O331 C334 1.250 . S
O332 Mg333 2.028 . S
O332 C334 1.248 . S
Mg333 O332 2.028 . S
Mg333 O338 2.032 . S
Mg333 O340 2.079 . S
C334 O331 1.250 . S
C334 O332 1.248 . S
C335 O336 1.264 . S
C335 O343 1.249 . S
O336 C335 1.264 . S
O337 Mg330 1.986 . S
O337 C341 1.246 . S
O338 Mg333 2.032 . S
O338 C341 1.259 . S
O339 Mg330 2.114 . S
O339 C342 1.252 . S
O340 Mg330 2.251 . S
O340 Mg333 2.079 . S
O340 C342 1.273 . S
C341 O337 1.246 . S
C341 O338 1.259 . S
C342 O339 1.252 . S
C342 O340 1.273 . S
O343 Mg330 2.010 . S
O343 C335 1.249 . S
H344 C356 0.930 . S
H345 C358 0.930 . S
H346 C359 0.930 . S
H347 C363 0.959 . S
H348 C363 0.959 . S
H349 C363 0.961 . S
H350 C364 0.960 . S
H351 C364 0.961 . S
H352 C364 0.959 . S
H353 C367 0.929 . S
H354 C368 0.931 . S
H355 C370 0.930 . S
C356 H344 0.930 . S
C356 C357 1.399 . S
C356 C361 1.399 . S
C357 C356 1.399 . S
C357 C358 1.376 . S
C358 H345 0.930 . S
C358 C357 1.376 . S
C358 C359 1.388 . S
C359 H346 0.930 . S
C359 C358 1.388 . S
C359 C360 1.390 . S
C360 C359 1.390 . S
C360 C361 1.394 . S
C360 C366 1.465 . S
C361 C356 1.399 . S
C361 C360 1.394 . S
C361 C362 1.516 . S
C362 C361 1.516 . S
C362 C363 1.502 . S
C362 C364 1.561 . S
C362 C365 1.526 . S
C363 H347 0.959 . S
C363 H348 0.959 . S
C363 H349 0.961 . S
C363 C362 1.502 . S
C364 H350 0.960 . S
C364 H351 0.961 . S
C364 H352 0.959 . S
C364 C362 1.561 . S
C365 C362 1.526 . S
C365 C366 1.396 . S
C365 C370 1.390 . S
C366 C360 1.465 . S
C366 C365 1.396 . S
C366 C367 1.399 . S
C367 H353 0.929 . S
C367 C366 1.399 . S
C367 C368 1.385 . S
C368 H354 0.931 . S
C368 C367 1.385 . S
C368 C369 1.389 . S
C369 C368 1.389 . S
C369 C370 1.387 . S
C370 H355 0.930 . S
C370 C365 1.390 . S
C370 C369 1.387 . S
H371 C383 0.930 . S
H372 C385 0.930 1_655 S
H373 C386 0.930 . S
H374 C390 0.959 . S
H375 C390 0.959 . S
H376 C390 0.961 . S
H377 C391 0.960 . S
H378 C391 0.961 . S
H379 C391 0.959 . S
H380 C394 0.929 . S
H381 C395 0.931 . S
H382 C397 0.930 . S
C383 H371 0.930 . S
C383 C384 1.399 . S
C383 C388 1.399 . S
C384 C383 1.399 . S
C384 C385 1.376 . S
C385 H372 0.930 1_455 S
C385 C384 1.376 . S
C385 C386 1.388 . S
C386 H373 0.930 . S
C386 C385 1.388 . S
C386 C387 1.390 . S
C387 C386 1.390 . S
C387 C388 1.394 . S
C387 C393 1.465 . S
C388 C383 1.399 . S
C388 C387 1.394 . S
C388 C389 1.516 . S
C389 C388 1.516 . S
C389 C390 1.502 . S
C389 C391 1.561 . S
C389 C392 1.526 . S
C390 H374 0.959 . S
C390 H375 0.959 . S
C390 H376 0.961 . S
C390 C389 1.502 . S
C391 H377 0.960 . S
C391 H378 0.961 . S
C391 H379 0.959 . S
C391 C389 1.561 . S
C392 C389 1.526 . S
C392 C393 1.396 . S
C392 C397 1.390 . S
C393 C387 1.465 . S
C393 C392 1.396 . S
C393 C394 1.399 . S
C394 H380 0.929 . S
C394 C393 1.399 . S
C394 C395 1.385 . S
C395 H381 0.931 . S
C395 C394 1.385 . S
C395 C396 1.389 . S
C396 C395 1.389 . S
C396 C397 1.387 . S
C397 H382 0.930 . S
C397 C392 1.390 . S
C397 C396 1.387 . S
H398 C410 0.930 . S
H399 C412 0.930 . S
H400 C413 0.930 . S
H401 C417 0.959 . S
H402 C417 0.959 . S
H403 C417 0.961 . S
H404 C418 0.960 . S
H405 C418 0.961 . S
H406 C418 0.959 . S
H407 C421 0.929 . S
H408 C422 0.931 . S
H409 C424 0.930 . S
C410 H398 0.930 . S
C410 C411 1.399 . S
C410 C415 1.399 . S
C411 C410 1.399 . S
C411 C412 1.376 . S
C412 H399 0.930 . S
C412 C411 1.376 . S
C412 C413 1.388 . S
C413 H400 0.930 . S
C413 C412 1.388 . S
C413 C414 1.390 . S
C414 C413 1.390 . S
C414 C415 1.394 . S
C414 C420 1.465 . S
C415 C410 1.399 . S
C415 C414 1.394 . S
C415 C416 1.516 . S
C416 C415 1.516 . S
C416 C417 1.502 . S
C416 C418 1.561 . S
C416 C419 1.526 . S
C417 H401 0.959 . S
C417 H402 0.959 . S
C417 H403 0.961 . S
C417 C416 1.502 . S
C418 H404 0.960 . S
C418 H405 0.961 . S
C418 H406 0.959 . S
C418 C416 1.561 . S
C419 C416 1.526 . S
C419 C420 1.396 . S
C419 C424 1.390 . S
C420 C414 1.465 . S
C420 C419 1.396 . S
C420 C421 1.399 . S
C421 H407 0.929 . S
C421 C420 1.399 . S
C421 C422 1.385 . S
C422 H408 0.931 . S
C422 C421 1.385 . S
C422 C423 1.389 . S
C423 C422 1.389 . S
C423 C424 1.387 . S
C424 H409 0.930 . S
C424 C419 1.390 . S
C424 C423 1.387 . S
H425 C437 0.930 . S
H426 C439 0.930 . S
H427 C440 0.930 . S
H428 C444 0.960 1_655 S
H429 C444 0.959 . S
H430 C444 0.961 . S
H431 C445 0.960 1_455 S
H432 C445 0.961 1_545 S
H433 C445 0.959 . S
H434 C448 0.929 . S
H435 C449 0.931 . S
H436 C451 0.930 . S
C437 H425 0.930 . S
C437 C438 1.399 . S
C437 C442 1.399 1_455 S
C438 C437 1.399 . S
C438 C439 1.376 1_445 S
C439 H426 0.930 . S
C439 C438 1.376 1_665 S
C439 C440 1.388 . S
C440 H427 0.930 . S
C440 C439 1.388 . S
C440 C441 1.391 1_565 S
C441 C440 1.391 1_545 S
C441 C442 1.394 . S
C441 C447 1.465 . S
C442 C437 1.399 1_655 S
C442 C441 1.394 . S
C442 C443 1.516 . S
C443 C442 1.516 . S
C443 C444 1.502 1_655 S
C443 C445 1.561 1_545 S
C443 C446 1.526 . S
C444 H428 0.960 1_455 S
C444 H429 0.959 . S
C444 H430 0.961 . S
C444 C443 1.502 1_455 S
C445 H431 0.960 1_655 S
C445 H432 0.961 1_565 S
C445 H433 0.959 . S
C445 C443 1.561 1_565 S
C446 C443 1.526 . S
C446 C447 1.396 . S
C446 C451 1.390 . S
C447 C441 1.465 . S
C447 C446 1.396 . S
C447 C448 1.399 . S
C448 H434 0.929 . S
C448 C447 1.399 . S
C448 C449 1.385 . S
C449 H435 0.931 . S
C449 C448 1.385 . S
C449 C450 1.389 . S
C450 C449 1.389 . S
C450 C451 1.387 . S
C451 H436 0.930 . S
C451 C446 1.390 . S
C451 C450 1.387 . S
H452 C464 0.930 . S
H453 C466 0.930 . S
H454 C467 0.930 . S
H455 C471 0.959 . S
H456 C471 0.959 . S
H457 C471 0.961 . S
H458 C472 0.960 . S
H459 C472 0.961 . S
H460 C472 0.959 . S
H461 C475 0.929 . S
H462 C476 0.931 . S
H463 C478 0.930 . S
C464 H452 0.930 . S
C464 C465 1.399 . S
C464 C469 1.399 . S
C465 C464 1.399 . S
C465 C466 1.376 . S
C466 H453 0.930 . S
C466 C465 1.376 . S
C466 C467 1.388 . S
C467 H454 0.930 . S
C467 C466 1.388 . S
C467 C468 1.390 . S
C468 C467 1.390 . S
C468 C469 1.394 . S
C468 C474 1.465 . S
C469 C464 1.399 . S
C469 C468 1.394 . S
C469 C470 1.516 . S
C470 C469 1.516 . S
C470 C471 1.502 . S
C470 C472 1.561 . S
C470 C473 1.526 . S
C471 H455 0.959 . S
C471 H456 0.959 . S
C471 H457 0.961 . S
C471 C470 1.502 . S
C472 H458 0.960 . S
C472 H459 0.961 . S
C472 H460 0.959 . S
C472 C470 1.561 . S
C473 C470 1.526 . S
C473 C474 1.396 . S
C473 C478 1.390 . S
C474 C468 1.465 . S
C474 C473 1.396 . S
C474 C475 1.399 . S
C475 H461 0.929 . S
C475 C474 1.399 . S
C475 C476 1.385 . S
C476 H462 0.931 . S
C476 C475 1.385 . S
C476 C477 1.389 . S
C477 C476 1.389 . S
C477 C478 1.387 . S
C478 H463 0.930 . S
C478 C473 1.390 . S
C478 C477 1.387 . S
H479 C491 0.930 . S
H480 C493 0.930 . S
H481 C494 0.930 . S
H482 C498 0.959 . S
H483 C498 0.959 . S
H484 C498 0.961 . S
H485 C499 0.960 . S
H486 C499 0.961 . S
H487 C499 0.959 . S
H488 C502 0.929 . S
H489 C503 0.931 . S
H490 C505 0.930 . S
C491 H479 0.930 . S
C491 C492 1.399 . S
C491 C496 1.399 . S
C492 C491 1.399 . S
C492 C493 1.376 . S
C493 H480 0.930 . S
C493 C492 1.376 . S
C493 C494 1.388 . S
C494 H481 0.930 . S
C494 C493 1.388 . S
C494 C495 1.390 . S
C495 C494 1.390 . S
C495 C496 1.394 . S
C495 C501 1.465 . S
C496 C491 1.399 . S
C496 C495 1.394 . S
C496 C497 1.516 . S
C497 C496 1.516 . S
C497 C498 1.502 . S
C497 C499 1.561 . S
C497 C500 1.526 . S
C498 H482 0.959 . S
C498 H483 0.959 . S
C498 H484 0.961 . S
C498 C497 1.502 . S
C499 H485 0.960 . S
C499 H486 0.961 . S
C499 H487 0.959 . S
C499 C497 1.561 . S
C500 C497 1.526 . S
C500 C501 1.396 . S
C500 C505 1.390 . S
C501 C495 1.465 . S
C501 C500 1.396 . S
C501 C502 1.399 . S
C502 H488 0.929 . S
C502 C501 1.399 . S
C502 C503 1.385 . S
C503 H489 0.931 . S
C503 C502 1.385 . S
C503 C504 1.389 . S
C504 C503 1.389 . S
C504 C505 1.387 . S
C505 H490 0.930 . S
C505 C500 1.390 . S
C505 C504 1.387 . S
H506 C518 0.930 . S
H507 C520 0.930 . S
H508 C521 0.930 . S
H509 C525 0.959 . S
H510 C525 0.959 . S
H511 C525 0.961 . S
H512 C526 0.960 . S
H513 C526 0.961 . S
H514 C526 0.959 . S
H515 C529 0.929 . S
H516 C530 0.931 . S
H517 C532 0.930 . S
C518 H506 0.930 . S
C518 C519 1.399 . S
C518 C523 1.399 . S
C519 C518 1.399 . S
C519 C520 1.376 . S
C520 H507 0.930 . S
C520 C519 1.376 . S
C520 C521 1.388 . S
C521 H508 0.930 . S
C521 C520 1.388 . S
C521 C522 1.390 . S
C522 C521 1.390 . S
C522 C523 1.394 . S
C522 C528 1.465 . S
C523 C518 1.399 . S
C523 C522 1.394 . S
C523 C524 1.516 . S
C524 C523 1.516 . S
C524 C525 1.502 . S
C524 C526 1.561 . S
C524 C527 1.526 . S
C525 H509 0.959 . S
C525 H510 0.959 . S
C525 H511 0.961 . S
C525 C524 1.502 . S
C526 H512 0.960 . S
C526 H513 0.961 . S
C526 H514 0.959 . S
C526 C524 1.561 . S
C527 C524 1.526 . S
C527 C528 1.396 . S
C527 C532 1.390 . S
C528 C522 1.465 . S
C528 C527 1.396 . S
C528 C529 1.399 . S
C529 H515 0.929 . S
C529 C528 1.399 . S
C529 C530 1.385 . S
C530 H516 0.931 . S
C530 C529 1.385 . S
C530 C531 1.389 . S
C531 C530 1.389 . S
C531 C532 1.387 . S
C532 H517 0.930 . S
C532 C527 1.390 . S
C532 C531 1.387 . S
H533 C545 0.930 . S
H534 C547 0.930 . S
H535 C548 0.930 . S
H536 C552 0.959 . S
H537 C552 0.959 . S
H538 C552 0.961 . S
H539 C553 0.960 . S
H540 C553 0.961 . S
H541 C553 0.959 . S
H542 C556 0.929 . S
H543 C557 0.931 . S
H544 C559 0.930 1_545 S
C545 H533 0.930 . S
C545 C546 1.399 . S
C545 C550 1.399 . S
C546 C545 1.399 . S
C546 C547 1.376 . S
C547 H534 0.930 . S
C547 C546 1.376 . S
C547 C548 1.388 . S
C548 H535 0.930 . S
C548 C547 1.388 . S
C548 C549 1.390 . S
C549 C548 1.390 . S
C549 C550 1.394 . S
C549 C555 1.465 . S
C550 C545 1.399 . S
C550 C549 1.394 . S
C550 C551 1.516 . S
C551 C550 1.516 . S
C551 C552 1.502 1_565 S
C551 C553 1.561 . S
C551 C554 1.526 . S
C552 H536 0.959 . S
C552 H537 0.959 . S
C552 H538 0.961 . S
C552 C551 1.502 1_545 S
C553 H539 0.960 . S
C553 H540 0.961 . S
C553 H541 0.959 . S
C553 C551 1.561 . S
C554 C551 1.526 . S
C554 C555 1.396 . S
C554 C559 1.390 . S
C555 C549 1.465 . S
C555 C554 1.396 . S
C555 C556 1.399 . S
C556 H542 0.929 . S
C556 C555 1.399 . S
C556 C557 1.385 . S
C557 H543 0.931 . S
C557 C556 1.385 . S
C557 C558 1.389 . S
C558 C557 1.389 . S
C558 C559 1.387 . S
C559 H544 0.930 1_565 S
C559 C554 1.390 . S
C559 C558 1.387 . S
H560 C572 0.930 . S
H561 C574 0.930 . S
H562 C575 0.930 . S
H563 C579 0.959 . S
H564 C579 0.959 . S
H565 C579 0.961 . S
H566 C580 0.960 . S
H567 C580 0.961 . S
H568 C580 0.959 . S
H569 C583 0.929 . S
H570 C584 0.931 . S
H571 C586 0.930 . S
C572 H560 0.930 . S
C572 C573 1.399 . S
C572 C577 1.399 . S
C573 C572 1.399 . S
C573 C574 1.376 . S
C574 H561 0.930 . S
C574 C573 1.376 . S
C574 C575 1.388 . S
C575 H562 0.930 . S
C575 C574 1.388 . S
C575 C576 1.390 . S
C576 C575 1.390 . S
C576 C577 1.394 . S
C576 C582 1.465 . S
C577 C572 1.399 . S
C577 C576 1.394 . S
C577 C578 1.516 . S
C578 C577 1.516 . S
C578 C579 1.502 . S
C578 C580 1.561 . S
C578 C581 1.526 . S
C579 H563 0.959 . S
C579 H564 0.959 . S
C579 H565 0.961 . S
C579 C578 1.502 . S
C580 H566 0.960 . S
C580 H567 0.961 . S
C580 H568 0.959 . S
C580 C578 1.561 . S
C581 C578 1.526 . S
C581 C582 1.396 . S
C581 C586 1.390 . S
C582 C576 1.465 . S
C582 C581 1.396 . S
C582 C583 1.399 . S
C583 H569 0.929 . S
C583 C582 1.399 . S
C583 C584 1.385 . S
C584 H570 0.931 . S
C584 C583 1.385 . S
C584 C585 1.389 . S
C585 C584 1.389 . S
C585 C586 1.387 . S
C586 H571 0.930 . S
C586 C581 1.390 . S
C586 C585 1.387 . S
H587 C599 0.930 . S
H588 C601 0.930 . S
H589 C602 0.930 . S
H590 C606 0.959 . S
H591 C606 0.959 . S
H592 C606 0.961 . S
H593 C607 0.960 . S
H594 C607 0.961 . S
H595 C607 0.959 . S
H596 C610 0.929 . S
H597 C611 0.931 . S
H598 C613 0.930 . S
C599 H587 0.930 . S
C599 C600 1.399 . S
C599 C604 1.399 . S
C600 C599 1.399 . S
C600 C601 1.376 . S
C601 H588 0.930 . S
C601 C600 1.376 . S
C601 C602 1.388 . S
C602 H589 0.930 . S
C602 C601 1.388 . S
C602 C603 1.390 . S
C603 C602 1.390 . S
C603 C604 1.394 . S
C603 C609 1.465 . S
C604 C599 1.399 . S
C604 C603 1.394 . S
C604 C605 1.516 . S
C605 C604 1.516 . S
C605 C606 1.502 . S
C605 C607 1.561 . S
C605 C608 1.526 . S
C606 H590 0.959 . S
C606 H591 0.959 . S
C606 H592 0.961 . S
C606 C605 1.502 . S
C607 H593 0.960 . S
C607 H594 0.961 . S
C607 H595 0.959 . S
C607 C605 1.561 . S
C608 C605 1.526 . S
C608 C609 1.396 . S
C608 C613 1.390 . S
C609 C603 1.465 . S
C609 C608 1.396 . S
C609 C610 1.399 . S
C610 H596 0.929 . S
C610 C609 1.399 . S
C610 C611 1.385 . S
C611 H597 0.931 . S
C611 C610 1.385 . S
C611 C612 1.389 . S
C612 C611 1.389 . S
C612 C613 1.387 . S
C613 H598 0.930 . S
C613 C608 1.390 . S
C613 C612 1.387 . S
H614 C626 0.930 . S
H615 C628 0.930 . S
H616 C629 0.930 . S
H617 C633 0.959 . S
H618 C633 0.959 . S
H619 C633 0.961 . S
H620 C634 0.960 . S
H621 C634 0.961 . S
H622 C634 0.959 . S
H623 C637 0.929 . S
H624 C638 0.931 . S
H625 C640 0.930 . S
C626 H614 0.930 . S
C626 C627 1.399 . S
C626 C631 1.399 . S
C627 C626 1.399 . S
C627 C628 1.376 . S
C628 H615 0.930 . S
C628 C627 1.376 . S
C628 C629 1.388 . S
C629 H616 0.930 . S
C629 C628 1.388 . S
C629 C630 1.390 . S
C630 C629 1.390 . S
C630 C631 1.394 . S
C630 C636 1.465 . S
C631 C626 1.399 . S
C631 C630 1.394 . S
C631 C632 1.516 . S
C632 C631 1.516 . S
C632 C633 1.502 . S
C632 C634 1.561 . S
C632 C635 1.526 . S
C633 H617 0.959 . S
C633 H618 0.959 . S
C633 H619 0.961 . S
C633 C632 1.502 . S
C634 H620 0.960 . S
C634 H621 0.961 . S
C634 H622 0.959 . S
C634 C632 1.561 . S
C635 C632 1.526 . S
C635 C636 1.396 . S
C635 C640 1.390 . S
C636 C630 1.465 . S
C636 C635 1.396 . S
C636 C637 1.399 . S
C637 H623 0.929 . S
C637 C636 1.399 . S
C637 C638 1.385 . S
C638 H624 0.931 . S
C638 C637 1.385 . S
C638 C639 1.389 . S
C639 C638 1.389 . S
C639 C640 1.387 . S
C640 H625 0.930 . S
C640 C635 1.390 . S
C640 C639 1.387 . S
H641 C653 0.930 . S
H642 C655 0.930 . S
H643 C656 0.930 . S
H644 C660 0.959 . S
H645 C660 0.959 . S
H646 C660 0.961 . S
H647 C661 0.960 . S
H648 C661 0.961 . S
H649 C661 0.959 . S
H650 C664 0.929 . S
H651 C665 0.931 . S
H652 C667 0.930 . S
C653 H641 0.930 . S
C653 C654 1.399 . S
C653 C658 1.399 . S
C654 C653 1.399 . S
C654 C655 1.376 . S
C655 H642 0.930 . S
C655 C654 1.376 . S
C655 C656 1.388 . S
C656 H643 0.930 . S
C656 C655 1.388 . S
C656 C657 1.390 . S
C657 C656 1.390 . S
C657 C658 1.394 . S
C657 C663 1.465 . S
C658 C653 1.399 . S
C658 C657 1.394 . S
C658 C659 1.516 . S
C659 C658 1.516 . S
C659 C660 1.502 . S
C659 C661 1.561 . S
C659 C662 1.526 . S
C660 H644 0.959 . S
C660 H645 0.959 . S
C660 H646 0.961 . S
C660 C659 1.502 . S
C661 H647 0.960 . S
C661 H648 0.961 . S
C661 H649 0.959 . S
C661 C659 1.561 . S
C662 C659 1.526 . S
C662 C663 1.396 . S
C662 C667 1.390 . S
C663 C657 1.465 . S
C663 C662 1.396 . S
C663 C664 1.399 . S
C664 H650 0.929 . S
C664 C663 1.399 . S
C664 C665 1.385 . S
C665 H651 0.931 . S
C665 C664 1.385 . S
C665 C666 1.389 . S
C666 C665 1.389 . S
C666 C667 1.387 . S
C667 H652 0.930 . S
C667 C662 1.390 . S
C667 C666 1.387 . S
H668 C680 0.930 . S
H669 C682 0.930 . S
H670 C683 0.930 . S
H671 C687 0.959 . S
H672 C687 0.959 . S
H673 C687 0.961 . S
H674 C688 0.960 . S
H675 C688 0.961 . S
H676 C688 0.959 . S
H677 C691 0.929 . S
H678 C692 0.931 . S
H679 C694 0.930 . S
C680 H668 0.930 . S
C680 C681 1.399 . S
C680 C685 1.399 . S
C681 C680 1.399 . S
C681 C682 1.376 . S
C682 H669 0.930 . S
C682 C681 1.376 . S
C682 C683 1.388 . S
C683 H670 0.930 . S
C683 C682 1.388 . S
C683 C684 1.390 . S
C684 C683 1.390 . S
C684 C685 1.394 . S
C684 C690 1.465 . S
C685 C680 1.399 . S
C685 C684 1.394 . S
C685 C686 1.516 . S
C686 C685 1.516 . S
C686 C687 1.502 . S
C686 C688 1.561 . S
C686 C689 1.526 . S
C687 H671 0.959 . S
C687 H672 0.959 . S
C687 H673 0.961 . S
C687 C686 1.502 . S
C688 H674 0.960 . S
C688 H675 0.961 . S
C688 H676 0.959 . S
C688 C686 1.561 . S
C689 C686 1.526 . S
C689 C690 1.396 . S
C689 C694 1.390 . S
C690 C684 1.465 . S
C690 C689 1.396 . S
C690 C691 1.399 . S
C691 H677 0.929 . S
C691 C690 1.399 . S
C691 C692 1.385 . S
C692 H678 0.931 . S
C692 C691 1.385 . S
C692 C693 1.389 . S
C693 C692 1.389 . S
C693 C694 1.387 . S
C694 H679 0.930 . S
C694 C689 1.390 . S
C694 C693 1.387 . S
H695 C707 0.930 . S
H696 C709 0.930 . S
H697 C710 0.930 . S
H698 C714 0.959 . S
H699 C714 0.959 . S
H700 C714 0.961 . S
H701 C715 0.960 . S
H702 C715 0.961 . S
H703 C715 0.959 . S
H704 C718 0.929 . S
H705 C719 0.931 . S
H706 C721 0.930 . S
C707 H695 0.930 . S
C707 C708 1.399 . S
C707 C712 1.399 . S
C708 C707 1.399 . S
C708 C709 1.376 . S
C709 H696 0.930 . S
C709 C708 1.376 . S
C709 C710 1.388 . S
C710 H697 0.930 . S
C710 C709 1.388 . S
C710 C711 1.390 . S
C711 C710 1.390 . S
C711 C712 1.394 . S
C711 C717 1.465 . S
C712 C707 1.399 . S
C712 C711 1.394 . S
C712 C713 1.516 . S
C713 C712 1.516 . S
C713 C714 1.502 . S
C713 C715 1.561 . S
C713 C716 1.526 . S
C714 H698 0.959 . S
C714 H699 0.959 . S
C714 H700 0.961 . S
C714 C713 1.502 . S
C715 H701 0.960 . S
C715 H702 0.961 . S
C715 H703 0.959 . S
C715 C713 1.561 . S
C716 C713 1.526 . S
C716 C717 1.396 . S
C716 C721 1.390 . S
C717 C711 1.465 . S
C717 C716 1.396 . S
C717 C718 1.399 . S
C718 H704 0.929 . S
C718 C717 1.399 . S
C718 C719 1.385 . S
C719 H705 0.931 . S
C719 C718 1.385 . S
C719 C720 1.389 . S
C720 C719 1.389 . S
C720 C721 1.387 . S
C721 H706 0.930 . S
C721 C716 1.390 . S
C721 C720 1.387 . S
H722 C734 0.930 . S
H723 C736 0.930 . S
H724 C737 0.930 . S
H725 C741 0.959 . S
H726 C741 0.959 . S
H727 C741 0.961 . S
H728 C742 0.960 . S
H729 C742 0.961 . S
H730 C742 0.959 . S
H731 C745 0.929 . S
H732 C746 0.931 . S
H733 C748 0.930 . S
C734 H722 0.930 . S
C734 C735 1.399 . S
C734 C739 1.399 . S
C735 C734 1.399 . S
C735 C736 1.376 . S
C736 H723 0.930 . S
C736 C735 1.376 . S
C736 C737 1.388 . S
C737 H724 0.930 . S
C737 C736 1.388 . S
C737 C738 1.390 . S
C738 C737 1.390 . S
C738 C739 1.394 . S
C738 C744 1.465 . S
C739 C734 1.399 . S
C739 C738 1.394 . S
C739 C740 1.516 . S
C740 C739 1.516 . S
C740 C741 1.502 . S
C740 C742 1.561 . S
C740 C743 1.526 . S
C741 H725 0.959 . S
C741 H726 0.959 . S
C741 H727 0.961 . S
C741 C740 1.502 . S
C742 H728 0.960 . S
C742 H729 0.961 . S
C742 H730 0.959 . S
C742 C740 1.561 . S
C743 C740 1.526 . S
C743 C744 1.396 . S
C743 C748 1.390 . S
C744 C738 1.465 . S
C744 C743 1.396 . S
C744 C745 1.399 . S
C745 H731 0.929 . S
C745 C744 1.399 . S
C745 C746 1.385 . S
C746 H732 0.931 . S
C746 C745 1.385 . S
C746 C747 1.389 . S
C747 C746 1.389 . S
C747 C748 1.387 . S
C748 H733 0.930 . S
C748 C743 1.390 . S
C748 C747 1.387 . S
H749 C761 0.923 1_455 S
H750 C763 0.930 . S
H751 C764 0.930 . S
H752 C768 0.959 . S
H753 C768 0.959 . S
H754 C768 0.961 . S
H755 C769 0.960 . S
H756 C769 0.961 . S
H757 C769 0.959 . S
H758 C772 0.929 . S
H759 C773 0.931 . S
H760 C775 0.930 . S
C761 H749 0.923 1_655 S
C761 C762 1.399 . S
C761 C766 1.399 . S
C762 C761 1.399 . S
C762 C763 1.376 . S
C763 H750 0.930 . S
C763 C762 1.376 . S
C763 C764 1.388 . S
C764 H751 0.930 . S
C764 C763 1.388 . S
C764 C765 1.390 . S
C765 C764 1.390 . S
C765 C766 1.394 . S
C765 C771 1.465 . S
C766 C761 1.399 . S
C766 C765 1.394 . S
C766 C767 1.516 1_655 S
C767 C766 1.516 1_455 S
C767 C768 1.507 . S
C767 C769 1.556 1_455 S
C767 C770 1.526 . S
C768 H752 0.959 . S
C768 H753 0.959 . S
C768 H754 0.961 . S
C768 C767 1.507 . S
C769 H755 0.960 . S
C769 H756 0.961 . S
C769 H757 0.959 . S
C769 C767 1.556 1_655 S
C770 C767 1.526 . S
C770 C771 1.395 1_455 S
C770 C775 1.389 . S
C771 C765 1.465 . S
C771 C770 1.395 1_655 S
C771 C772 1.399 . S
C772 H758 0.929 . S
C772 C771 1.399 . S
C772 C773 1.385 . S
C773 H759 0.931 . S
C773 C772 1.385 . S
C773 C774 1.389 1_655 S
C774 C773 1.389 1_455 S
C774 C775 1.387 . S
C775 H760 0.930 . S
C775 C770 1.389 . S
C775 C774 1.387 . S
H776 C788 0.930 . S
H777 C790 0.930 . S
H778 C791 0.930 . S
H779 C795 0.959 . S
H780 C795 0.959 . S
H781 C795 0.961 . S
H782 C796 0.960 . S
H783 C796 0.961 . S
H784 C796 0.959 . S
H785 C799 0.929 . S
H786 C800 0.931 . S
H787 C802 0.930 . S
C788 H776 0.930 . S
C788 C789 1.399 . S
C788 C793 1.399 . S
C789 C788 1.399 . S
C789 C790 1.376 . S
C790 H777 0.930 . S
C790 C789 1.376 . S
C790 C791 1.388 . S
C791 H778 0.930 . S
C791 C790 1.388 . S
C791 C792 1.390 . S
C792 C791 1.390 . S
C792 C793 1.394 . S
C792 C798 1.465 . S
C793 C788 1.399 . S
C793 C792 1.394 . S
C793 C794 1.516 . S
C794 C793 1.516 . S
C794 C795 1.502 . S
C794 C796 1.561 . S
C794 C797 1.526 . S
C795 H779 0.959 . S
C795 H780 0.959 . S
C795 H781 0.961 . S
C795 C794 1.502 . S
C796 H782 0.960 . S
C796 H783 0.961 . S
C796 H784 0.959 . S
C796 C794 1.561 . S
C797 C794 1.526 . S
C797 C798 1.396 . S
C797 C802 1.390 . S
C798 C792 1.465 . S
C798 C797 1.396 . S
C798 C799 1.399 . S
C799 H785 0.929 . S
C799 C798 1.399 . S
C799 C800 1.385 . S
C800 H786 0.931 . S
C800 C799 1.385 . S
C800 C801 1.389 . S
C801 C800 1.389 . S
C801 C802 1.387 . S
C802 H787 0.930 . S
C802 C797 1.390 . S
C802 C801 1.387 . S
H803 C815 0.930 . S
H804 C817 0.930 . S
H805 C818 0.930 . S
H806 C822 0.959 . S
H807 C822 0.959 . S
H808 C822 0.961 . S
H809 C823 0.960 . S
H810 C823 0.961 . S
H811 C823 0.959 . S
H812 C826 0.929 . S
H813 C827 0.931 . S
H814 C829 0.930 . S
C815 H803 0.930 . S
C815 C816 1.399 . S
C815 C820 1.399 . S
C816 C815 1.399 . S
C816 C817 1.376 . S
C817 H804 0.930 . S
C817 C816 1.376 . S
C817 C818 1.388 . S
C818 H805 0.930 . S
C818 C817 1.388 . S
C818 C819 1.390 . S
C819 C818 1.390 . S
C819 C820 1.394 . S
C819 C825 1.465 . S
C820 C815 1.399 . S
C820 C819 1.394 . S
C820 C821 1.516 . S
C821 C820 1.516 . S
C821 C822 1.502 . S
C821 C823 1.561 . S
C821 C824 1.526 . S
C822 H806 0.959 . S
C822 H807 0.959 . S
C822 H808 0.961 . S
C822 C821 1.502 . S
C823 H809 0.960 . S
C823 H810 0.961 . S
C823 H811 0.959 . S
C823 C821 1.561 . S
C824 C821 1.526 . S
C824 C825 1.396 . S
C824 C829 1.390 . S
C825 C819 1.465 . S
C825 C824 1.396 . S
C825 C826 1.399 . S
C826 H812 0.929 . S
C826 C825 1.399 . S
C826 C827 1.385 . S
C827 H813 0.931 . S
C827 C826 1.385 . S
C827 C828 1.389 . S
C828 C827 1.389 . S
C828 C829 1.387 . S
C829 H814 0.930 . S
C829 C824 1.390 . S
C829 C828 1.387 . S
H830 C842 0.930 . S
H831 C844 0.930 . S
H832 C845 0.930 . S
H833 C849 0.959 . S
H834 C849 0.959 . S
H835 C849 0.961 . S
H836 C850 0.960 . S
H837 C850 0.961 . S
H838 C850 0.959 . S
H839 C853 0.929 . S
H840 C854 0.931 . S
H841 C856 0.930 . S
C842 H830 0.930 . S
C842 C843 1.399 1_556 S
C842 C847 1.399 . S
C843 C842 1.399 1_554 S
C843 C844 1.376 . S
C844 H831 0.930 . S
C844 C843 1.376 . S
C844 C845 1.388 . S
C845 H832 0.930 . S
C845 C844 1.388 . S
C845 C846 1.390 . S
C846 C845 1.390 . S
C846 C847 1.394 1_554 S
C846 C852 1.465 . S
C847 C842 1.399 . S
C847 C846 1.394 1_556 S
C847 C848 1.516 . S
C848 C847 1.516 . S
C848 C849 1.502 . S
C848 C850 1.561 . S
C848 C851 1.526 . S
C849 H833 0.959 . S
C849 H834 0.959 . S
C849 H835 0.961 . S
C849 C848 1.502 . S
C850 H836 0.960 . S
C850 H837 0.961 . S
C850 H838 0.959 . S
C850 C848 1.561 . S
C851 C848 1.526 . S
C851 C852 1.396 1_556 S
C851 C856 1.390 . S
C852 C846 1.465 . S
C852 C851 1.396 1_554 S
C852 C853 1.399 . S
C853 H839 0.929 . S
C853 C852 1.399 . S
C853 C854 1.385 . S
C854 H840 0.931 . S
C854 C853 1.385 . S
C854 C855 1.389 . S
C855 C854 1.389 . S
C855 C856 1.387 1_554 S
C856 H841 0.930 . S
C856 C851 1.390 . S
C856 C855 1.387 1_556 S
H857 C869 0.930 . S
H858 C871 0.930 . S
H859 C872 0.930 . S
H860 C876 0.959 . S
H861 C876 0.959 . S
H862 C876 0.961 . S
H863 C877 0.960 . S
H864 C877 0.961 . S
H865 C877 0.959 . S
H866 C880 0.929 . S
H867 C881 0.931 . S
H868 C883 0.930 . S
C869 H857 0.930 . S
C869 C870 1.399 . S
C869 C874 1.399 . S
C870 C869 1.399 . S
C870 C871 1.376 . S
C871 H858 0.930 . S
C871 C870 1.376 . S
C871 C872 1.388 . S
C872 H859 0.930 . S
C872 C871 1.388 . S
C872 C873 1.390 . S
C873 C872 1.390 . S
C873 C874 1.394 . S
C873 C879 1.465 . S
C874 C869 1.399 . S
C874 C873 1.394 . S
C874 C875 1.516 . S
C875 C874 1.516 . S
C875 C876 1.502 . S
C875 C877 1.561 . S
C875 C878 1.526 . S
C876 H860 0.959 . S
C876 H861 0.959 . S
C876 H862 0.961 . S
C876 C875 1.502 . S
C877 H863 0.960 . S
C877 H864 0.961 . S
C877 H865 0.959 . S
C877 C875 1.561 . S
C878 C875 1.526 . S
C878 C879 1.396 . S
C878 C883 1.390 . S
C879 C873 1.465 . S
C879 C878 1.396 . S
C879 C880 1.399 . S
C880 H866 0.929 . S
C880 C879 1.399 . S
C880 C881 1.385 . S
C881 H867 0.931 . S
C881 C880 1.385 . S
C881 C882 1.389 . S
C882 C881 1.389 . S
C882 C883 1.387 . S
C883 H868 0.930 . S
C883 C878 1.390 . S
C883 C882 1.387 . S
H884 C896 0.930 . S
H885 C898 0.930 . S
H886 C899 0.930 . S
H887 C903 0.959 . S
H888 C903 0.959 . S
H889 C903 0.961 . S
H890 C904 0.960 . S
H891 C904 0.961 . S
H892 C904 0.959 . S
H893 C907 0.929 . S
H894 C908 0.931 . S
H895 C910 0.930 . S
C896 H884 0.930 . S
C896 C897 1.399 . S
C896 C901 1.399 . S
C897 C896 1.399 . S
C897 C898 1.376 . S
C898 H885 0.930 . S
C898 C897 1.376 . S
C898 C899 1.388 . S
C899 H886 0.930 . S
C899 C898 1.388 . S
C899 C900 1.390 . S
C900 C899 1.390 . S
C900 C901 1.394 . S
C900 C906 1.465 . S
C901 C896 1.399 . S
C901 C900 1.394 . S
C901 C902 1.516 . S
C902 C901 1.516 . S
C902 C903 1.502 . S
C902 C904 1.561 . S
C902 C905 1.526 . S
C903 H887 0.959 . S
C903 H888 0.959 . S
C903 H889 0.961 . S
C903 C902 1.502 . S
C904 H890 0.960 . S
C904 H891 0.961 . S
C904 H892 0.959 . S
C904 C902 1.561 . S
C905 C902 1.526 . S
C905 C906 1.396 . S
C905 C910 1.390 . S
C906 C900 1.465 . S
C906 C905 1.396 . S
C906 C907 1.399 . S
C907 H893 0.929 . S
C907 C906 1.399 . S
C907 C908 1.385 . S
C908 H894 0.931 . S
C908 C907 1.385 . S
C908 C909 1.389 . S
C909 C908 1.389 . S
C909 C910 1.387 . S
C910 H895 0.930 . S
C910 C905 1.390 . S
C910 C909 1.387 . S
H911 C923 0.930 . S
H912 C925 0.930 . S
H913 C926 0.930 . S
H914 C930 0.959 . S
H915 C930 0.959 . S
H916 C930 0.961 . S
H917 C931 0.960 . S
H918 C931 0.961 . S
H919 C931 0.959 . S
H920 C934 0.929 . S
H921 C935 0.931 . S
H922 C937 0.930 . S
C923 H911 0.930 . S
C923 C924 1.399 . S
C923 C928 1.399 . S
C924 C923 1.399 . S
C924 C925 1.376 . S
C925 H912 0.930 . S
C925 C924 1.376 . S
C925 C926 1.388 . S
C926 H913 0.930 . S
C926 C925 1.388 . S
C926 C927 1.390 . S
C927 C926 1.390 . S
C927 C928 1.394 . S
C927 C933 1.465 . S
C928 C923 1.399 . S
C928 C927 1.394 . S
C928 C929 1.516 . S
C929 C928 1.516 . S
C929 C930 1.502 . S
C929 C931 1.561 . S
C929 C932 1.526 . S
C930 H914 0.959 . S
C930 H915 0.959 . S
C930 H916 0.961 . S
C930 C929 1.502 . S
C931 H917 0.960 . S
C931 H918 0.961 . S
C931 H919 0.959 . S
C931 C929 1.561 . S
C932 C929 1.526 . S
C932 C933 1.396 . S
C932 C937 1.390 . S
C933 C927 1.465 . S
C933 C932 1.396 . S
C933 C934 1.399 . S
C934 H920 0.929 . S
C934 C933 1.399 . S
C934 C935 1.385 . S
C935 H921 0.931 . S
C935 C934 1.385 . S
C935 C936 1.389 . S
C936 C935 1.389 . S
C936 C937 1.387 . S
C937 H922 0.930 . S
C937 C932 1.390 . S
C937 C936 1.387 . S
H938 C950 0.930 . S
H939 C952 0.930 . S
H940 C953 0.930 . S
H941 C957 0.959 . S
H942 C957 0.959 . S
H943 C957 0.961 . S
H944 C958 0.960 . S
H945 C958 0.961 . S
H946 C958 0.959 . S
H947 C961 0.929 . S
H948 C962 0.931 . S
H949 C964 0.930 . S
C950 H938 0.930 . S
C950 C951 1.399 . S
C950 C955 1.399 . S
C951 C950 1.399 . S
C951 C952 1.376 . S
C952 H939 0.930 . S
C952 C951 1.376 . S
C952 C953 1.388 . S
C953 H940 0.930 . S
C953 C952 1.388 . S
C953 C954 1.390 . S
C954 C953 1.390 . S
C954 C955 1.394 . S
C954 C960 1.465 . S
C955 C950 1.399 . S
C955 C954 1.394 . S
C955 C956 1.516 . S
C956 C955 1.516 . S
C956 C957 1.502 . S
C956 C958 1.561 . S
C956 C959 1.526 . S
C957 H941 0.959 . S
C957 H942 0.959 . S
C957 H943 0.961 . S
C957 C956 1.502 . S
C958 H944 0.960 . S
C958 H945 0.961 . S
C958 H946 0.959 . S
C958 C956 1.561 . S
C959 C956 1.526 . S
C959 C960 1.396 . S
C959 C964 1.390 . S
C960 C954 1.465 . S
C960 C959 1.396 . S
C960 C961 1.399 . S
C961 H947 0.929 . S
C961 C960 1.399 . S
C961 C962 1.385 . S
C962 H948 0.931 . S
C962 C961 1.385 . S
C962 C963 1.389 . S
C963 C962 1.389 . S
C963 C964 1.387 . S
C964 H949 0.930 . S
C964 C959 1.390 . S
C964 C963 1.387 . S
H965 C977 0.930 . S
H966 C979 0.930 . S
H967 C980 0.930 . S
H968 C984 0.959 . S
H969 C984 0.959 . S
H970 C984 0.961 . S
H971 C985 0.960 . S
H972 C985 0.961 . S
H973 C985 0.959 . S
H974 C988 0.929 . S
H975 C989 0.931 . S
H976 C991 0.930 . S
C977 H965 0.930 . S
C977 C978 1.399 . S
C977 C982 1.399 . S
C978 C977 1.399 . S
C978 C979 1.376 . S
C979 H966 0.930 . S
C979 C978 1.376 . S
C979 C980 1.388 . S
C980 H967 0.930 . S
C980 C979 1.388 . S
C980 C981 1.390 . S
C981 C980 1.390 . S
C981 C982 1.394 . S
C981 C987 1.465 . S
C982 C977 1.399 . S
C982 C981 1.394 . S
C982 C983 1.516 . S
C983 C982 1.516 . S
C983 C984 1.502 . S
C983 C985 1.561 . S
C983 C986 1.526 . S
C984 H968 0.959 . S
C984 H969 0.959 . S
C984 H970 0.961 . S
C984 C983 1.502 . S
C985 H971 0.960 . S
C985 H972 0.961 . S
C985 H973 0.959 . S
C985 C983 1.561 . S
C986 C983 1.526 . S
C986 C987 1.396 . S
C986 C991 1.390 . S
C987 C981 1.465 . S
C987 C986 1.396 . S
C987 C988 1.399 . S
C988 H974 0.929 . S
C988 C987 1.399 . S
C988 C989 1.385 . S
C989 H975 0.931 . S
C989 C988 1.385 . S
C989 C990 1.389 . S
C990 C989 1.389 . S
C990 C991 1.387 . S
C991 H976 0.930 . S
C991 C986 1.390 . S
C991 C990 1.387 . S
H992 C1004 0.930 . S
H993 C1006 0.930 . S
H994 C1007 0.930 . S
H995 C1011 0.959 . S
H996 C1011 0.959 . S
H997 C1011 0.961 . S
H998 C1012 0.960 . S
H999 C1012 0.961 . S
H1000 C1012 0.959 . S
H1001 C1015 0.929 . S
H1002 C1016 0.931 . S
H1003 C1018 0.930 . S
C1004 H992 0.930 . S
C1004 C1005 1.399 . S
C1004 C1009 1.399 . S
C1005 C1004 1.399 . S
C1005 C1006 1.376 . S
C1006 H993 0.930 . S
C1006 C1005 1.376 . S
C1006 C1007 1.388 . S
C1007 H994 0.930 . S
C1007 C1006 1.388 . S
C1007 C1008 1.390 . S
C1008 C1007 1.390 . S
C1008 C1009 1.394 . S
C1008 C1014 1.465 . S
C1009 C1004 1.399 . S
C1009 C1008 1.394 . S
C1009 C1010 1.516 . S
C1010 C1009 1.516 . S
C1010 C1011 1.502 . S
C1010 C1012 1.561 . S
C1010 C1013 1.526 . S
C1011 H995 0.959 . S
C1011 H996 0.959 . S
C1011 H997 0.961 . S
C1011 C1010 1.502 . S
C1012 H998 0.960 . S
C1012 H999 0.961 . S
C1012 H1000 0.959 . S
C1012 C1010 1.561 . S
C1013 C1010 1.526 . S
C1013 C1014 1.396 . S
C1013 C1018 1.390 . S
C1014 C1008 1.465 . S
C1014 C1013 1.396 . S
C1014 C1015 1.399 . S
C1015 H1001 0.929 . S
C1015 C1014 1.399 . S
C1015 C1016 1.385 . S
C1016 H1002 0.931 . S
C1016 C1015 1.385 . S
C1016 C1017 1.389 . S
C1017 C1016 1.389 . S
C1017 C1018 1.387 . S
C1018 H1003 0.930 . S
C1018 C1013 1.390 . S
C1018 C1017 1.387 . S
H1019 C1031 0.930 . S
H1020 C1033 0.930 . S
H1021 C1034 0.889 1_565 S
H1022 C1038 0.959 . S
H1023 C1038 0.959 . S
H1024 C1038 0.961 . S
H1025 C1039 0.960 . S
H1026 C1039 0.961 . S
H1027 C1039 0.959 . S
H1028 C1042 0.929 . S
H1029 C1043 0.931 . S
H1030 C1045 0.930 . S
C1031 H1019 0.930 . S
C1031 C1032 1.399 . S
C1031 C1036 1.399 . S
C1032 C1031 1.399 . S
C1032 C1033 1.376 . S
C1033 H1020 0.930 . S
C1033 C1032 1.376 . S
C1033 C1034 1.408 . S
C1034 H1021 0.889 1_545 S
C1034 C1033 1.408 . S
C1034 C1035 1.413 . S
C1035 C1034 1.413 . S
C1035 C1036 1.394 . S
C1035 C1041 1.465 . S
C1036 C1031 1.399 . S
C1036 C1035 1.394 . S
C1036 C1037 1.516 . S
C1037 C1036 1.516 . S
C1037 C1038 1.502 . S
C1037 C1039 1.561 . S
C1037 C1040 1.526 . S
C1038 H1022 0.959 . S
C1038 H1023 0.959 . S
C1038 H1024 0.961 . S
C1038 C1037 1.502 . S
C1039 H1025 0.960 . S
C1039 H1026 0.961 . S
C1039 H1027 0.959 . S
C1039 C1037 1.561 . S
C1040 C1037 1.526 . S
C1040 C1041 1.396 . S
C1040 C1045 1.390 . S
C1041 C1035 1.465 . S
C1041 C1040 1.396 . S
C1041 C1042 1.399 1_545 S
C1042 H1028 0.929 . S
C1042 C1041 1.399 1_565 S
C1042 C1043 1.385 . S
C1043 H1029 0.931 . S
C1043 C1042 1.385 . S
C1043 C1044 1.389 1_565 S
C1044 C1043 1.389 1_545 S
C1044 C1045 1.387 . S
C1045 H1030 0.930 . S
C1045 C1040 1.390 . S
C1045 C1044 1.387 . S
H1046 C1058 0.930 . S
H1047 C1060 0.930 . S
H1048 C1061 0.930 . S
H1049 C1065 0.959 . S
H1050 C1065 0.959 . S
H1051 C1065 0.961 . S
H1052 C1066 0.960 . S
H1053 C1066 0.961 . S
H1054 C1066 0.959 . S
H1055 C1069 0.929 . S
H1056 C1070 0.931 . S
H1057 C1072 0.930 . S
C1058 H1046 0.930 . S
C1058 C1059 1.399 . S
C1058 C1063 1.399 . S
C1059 C1058 1.399 . S
C1059 C1060 1.376 . S
C1060 H1047 0.930 . S
C1060 C1059 1.376 . S
C1060 C1061 1.388 . S
C1061 H1048 0.930 . S
C1061 C1060 1.388 . S
C1061 C1062 1.390 . S
C1062 C1061 1.390 . S
C1062 C1063 1.394 . S
C1062 C1068 1.465 . S
C1063 C1058 1.399 . S
C1063 C1062 1.394 . S
C1063 C1064 1.516 . S
C1064 C1063 1.516 . S
C1064 C1065 1.502 . S
C1064 C1066 1.561 . S
C1064 C1067 1.526 . S
C1065 H1049 0.959 . S
C1065 H1050 0.959 . S
C1065 H1051 0.961 . S
C1065 C1064 1.502 . S
C1066 H1052 0.960 . S
C1066 H1053 0.961 . S
C1066 H1054 0.959 . S
C1066 C1064 1.561 . S
C1067 C1064 1.526 . S
C1067 C1068 1.396 . S
C1067 C1072 1.390 . S
C1068 C1062 1.465 . S
C1068 C1067 1.396 . S
C1068 C1069 1.399 . S
C1069 H1055 0.929 . S
C1069 C1068 1.399 . S
C1069 C1070 1.385 . S
C1070 H1056 0.931 . S
C1070 C1069 1.385 . S
C1070 C1071 1.389 . S
C1071 C1070 1.389 . S
C1071 C1072 1.387 . S
C1072 H1057 0.930 . S
C1072 C1067 1.390 . S
C1072 C1071 1.387 . S
H1073 C1085 0.930 . S
H1074 C1087 0.930 . S
H1075 C1088 0.930 . S
H1076 C1092 0.959 . S
H1077 C1092 0.959 . S
H1078 C1092 0.961 . S
H1079 C1093 0.960 . S
H1080 C1093 0.961 . S
H1081 C1093 0.959 . S
H1082 C1096 0.929 . S
H1083 C1097 0.931 . S
H1084 C1099 0.930 . S
C1085 H1073 0.930 . S
C1085 C1086 1.399 . S
C1085 C1090 1.399 . S
C1086 C1085 1.399 . S
C1086 C1087 1.376 . S
C1087 H1074 0.930 . S
C1087 C1086 1.376 . S
C1087 C1088 1.388 . S
C1088 H1075 0.930 . S
C1088 C1087 1.388 . S
C1088 C1089 1.390 . S
C1089 C1088 1.390 . S
C1089 C1090 1.394 . S
C1089 C1095 1.465 . S
C1090 C1085 1.399 . S
C1090 C1089 1.394 . S
C1090 C1091 1.516 . S
C1091 C1090 1.516 . S
C1091 C1092 1.502 . S
C1091 C1093 1.561 . S
C1091 C1094 1.526 . S
C1092 H1076 0.959 . S
C1092 H1077 0.959 . S
C1092 H1078 0.961 . S
C1092 C1091 1.502 . S
C1093 H1079 0.960 . S
C1093 H1080 0.961 . S
C1093 H1081 0.959 . S
C1093 C1091 1.561 . S
C1094 C1091 1.526 . S
C1094 C1095 1.396 . S
C1094 C1099 1.390 . S
C1095 C1089 1.465 . S
C1095 C1094 1.396 . S
C1095 C1096 1.399 . S
C1096 H1082 0.929 . S
C1096 C1095 1.399 . S
C1096 C1097 1.385 . S
C1097 H1083 0.931 . S
C1097 C1096 1.385 . S
C1097 C1098 1.389 . S
C1098 C1097 1.389 . S
C1098 C1099 1.387 . S
C1099 H1084 0.930 . S
C1099 C1094 1.390 . S
C1099 C1098 1.387 . S
H1100 C1112 0.930 . S
H1101 C1114 0.930 . S
H1102 C1115 0.930 . S
H1103 C1119 0.959 . S
H1104 C1119 0.959 . S
H1105 C1119 0.961 . S
H1106 C1120 0.960 . S
H1107 C1120 0.961 . S
H1108 C1120 0.959 . S
H1109 C1123 0.929 . S
H1110 C1124 0.931 . S
H1111 C1126 0.930 . S
C1112 H1100 0.930 . S
C1112 C1113 1.399 . S
C1112 C1117 1.399 . S
C1113 C1112 1.399 . S
C1113 C1114 1.376 . S
C1114 H1101 0.930 . S
C1114 C1113 1.376 . S
C1114 C1115 1.388 . S
C1115 H1102 0.930 . S
C1115 C1114 1.388 . S
C1115 C1116 1.390 . S
C1116 C1115 1.390 . S
C1116 C1117 1.394 . S
C1116 C1122 1.465 . S
C1117 C1112 1.399 . S
C1117 C1116 1.394 . S
C1117 C1118 1.516 . S
C1118 C1117 1.516 . S
C1118 C1119 1.502 . S
C1118 C1120 1.561 . S
C1118 C1121 1.526 . S
C1119 H1103 0.959 . S
C1119 H1104 0.959 . S
C1119 H1105 0.961 . S
C1119 C1118 1.502 . S
C1120 H1106 0.960 . S
C1120 H1107 0.961 . S
C1120 H1108 0.959 . S
C1120 C1118 1.561 . S
C1121 C1118 1.526 . S
C1121 C1122 1.396 . S
C1121 C1126 1.390 . S
C1122 C1116 1.465 . S
C1122 C1121 1.396 . S
C1122 C1123 1.399 . S
C1123 H1109 0.929 . S
C1123 C1122 1.399 . S
C1123 C1124 1.385 . S
C1124 H1110 0.931 . S
C1124 C1123 1.385 . S
C1124 C1125 1.389 . S
C1125 C1124 1.389 . S
C1125 C1126 1.387 . S
C1126 H1111 0.930 . S
C1126 C1121 1.390 . S
C1126 C1125 1.387 . S
H1127 C1139 0.930 . S
H1128 C1141 0.930 . S
H1129 C1142 0.930 1_565 S
H1130 C1146 0.959 . S
H1131 C1146 0.959 . S
H1132 C1146 0.961 . S
H1133 C1147 0.960 . S
H1134 C1147 0.961 . S
H1135 C1147 0.959 . S
H1136 C1150 0.929 1_565 S
H1137 C1151 0.931 . S
H1138 C1153 0.930 . S
C1139 H1127 0.930 . S
C1139 C1140 1.399 . S
C1139 C1144 1.399 . S
C1140 C1139 1.399 . S
C1140 C1141 1.376 . S
C1141 H1128 0.930 . S
C1141 C1140 1.376 . S
C1141 C1142 1.388 . S
C1142 H1129 0.930 1_545 S
C1142 C1141 1.388 . S
C1142 C1143 1.390 . S
C1143 C1142 1.390 . S
C1143 C1144 1.394 . S
C1143 C1149 1.465 . S
C1144 C1139 1.399 . S
C1144 C1143 1.394 . S
C1144 C1145 1.516 . S
C1145 C1144 1.516 . S
C1145 C1146 1.502 . S
C1145 C1147 1.561 . S
C1145 C1148 1.526 . S
C1146 H1130 0.959 . S
C1146 H1131 0.959 . S
C1146 H1132 0.961 . S
C1146 C1145 1.502 . S
C1147 H1133 0.960 . S
C1147 H1134 0.961 . S
C1147 H1135 0.959 . S
C1147 C1145 1.561 . S
C1148 C1145 1.526 . S
C1148 C1149 1.396 . S
C1148 C1153 1.390 . S
C1149 C1143 1.465 . S
C1149 C1148 1.396 . S
C1149 C1150 1.399 . S
C1150 H1136 0.929 1_545 S
C1150 C1149 1.399 . S
C1150 C1151 1.385 . S
C1151 H1137 0.931 . S
C1151 C1150 1.385 . S
C1151 C1152 1.389 . S
C1152 C1151 1.389 . S
C1152 C1153 1.387 . S
C1153 H1138 0.930 . S
C1153 C1148 1.390 . S
C1153 C1152 1.387 . S
H1154 C1166 0.930 . S
H1155 C1168 0.930 . S
H1156 C1169 0.930 . S
H1157 C1173 0.959 . S
H1158 C1173 0.959 . S
H1159 C1173 0.961 . S
H1160 C1174 0.960 . S
H1161 C1174 0.961 . S
H1162 C1174 0.959 . S
H1163 C1177 0.929 . S
H1164 C1178 0.931 . S
H1165 C1180 0.930 . S
C1166 H1154 0.930 . S
C1166 C1167 1.399 . S
C1166 C1171 1.399 . S
C1167 C1166 1.399 . S
C1167 C1168 1.376 . S
C1168 H1155 0.930 . S
C1168 C1167 1.376 . S
C1168 C1169 1.388 . S
C1169 H1156 0.930 . S
C1169 C1168 1.388 . S
C1169 C1170 1.390 . S
C1170 C1169 1.390 . S
C1170 C1171 1.394 . S
C1170 C1176 1.465 . S
C1171 C1166 1.399 . S
C1171 C1170 1.394 . S
C1171 C1172 1.516 . S
C1172 C1171 1.516 . S
C1172 C1173 1.502 . S
C1172 C1174 1.561 . S
C1172 C1175 1.526 . S
C1173 H1157 0.959 . S
C1173 H1158 0.959 . S
C1173 H1159 0.961 . S
C1173 C1172 1.502 . S
C1174 H1160 0.960 . S
C1174 H1161 0.961 . S
C1174 H1162 0.959 . S
C1174 C1172 1.561 . S
C1175 C1172 1.526 . S
C1175 C1176 1.396 . S
C1175 C1180 1.390 . S
C1176 C1170 1.465 . S
C1176 C1175 1.396 . S
C1176 C1177 1.399 . S
C1177 H1163 0.929 . S
C1177 C1176 1.399 . S
C1177 C1178 1.385 . S
C1178 H1164 0.931 . S
C1178 C1177 1.385 . S
C1178 C1179 1.389 . S
C1179 C1178 1.389 . S
C1179 C1180 1.387 . S
C1180 H1165 0.930 . S
C1180 C1175 1.390 . S
C1180 C1179 1.387 . S
H1181 C1193 0.930 . S
H1182 C1195 0.930 . S
H1183 C1196 0.930 . S
H1184 C1200 0.959 . S
H1185 C1200 0.959 . S
H1186 C1200 0.961 . S
H1187 C1201 0.960 . S
H1188 C1201 0.961 . S
H1189 C1201 0.959 . S
H1190 C1204 0.929 . S
H1191 C1205 0.931 . S
H1192 C1207 0.930 . S
C1193 H1181 0.930 . S
C1193 C1194 1.399 . S
C1193 C1198 1.399 . S
C1194 C1193 1.399 . S
C1194 C1195 1.376 . S
C1195 H1182 0.930 . S
C1195 C1194 1.376 . S
C1195 C1196 1.388 . S
C1196 H1183 0.930 . S
C1196 C1195 1.388 . S
C1196 C1197 1.390 . S
C1197 C1196 1.390 . S
C1197 C1198 1.394 . S
C1197 C1203 1.465 . S
C1198 C1193 1.399 . S
C1198 C1197 1.394 . S
C1198 C1199 1.516 . S
C1199 C1198 1.516 . S
C1199 C1200 1.502 . S
C1199 C1201 1.561 . S
C1199 C1202 1.526 . S
C1200 H1184 0.959 . S
C1200 H1185 0.959 . S
C1200 H1186 0.961 . S
C1200 C1199 1.502 . S
C1201 H1187 0.960 . S
C1201 H1188 0.961 . S
C1201 H1189 0.959 . S
C1201 C1199 1.561 . S
C1202 C1199 1.526 . S
C1202 C1203 1.396 . S
C1202 C1207 1.390 . S
C1203 C1197 1.465 . S
C1203 C1202 1.396 . S
C1203 C1204 1.399 . S
C1204 H1190 0.929 . S
C1204 C1203 1.399 . S
C1204 C1205 1.385 . S
C1205 H1191 0.931 . S
C1205 C1204 1.385 . S
C1205 C1206 1.389 . S
C1206 C1205 1.389 . S
C1206 C1207 1.387 . S
C1207 H1192 0.930 . S
C1207 C1202 1.390 . S
C1207 C1206 1.387 . S
H1208 C1220 0.930 . S
H1209 C1222 0.930 . S
H1210 C1223 0.930 . S
H1211 C1227 0.959 . S
H1212 C1227 0.959 . S
H1213 C1227 0.961 . S
H1214 C1228 0.960 . S
H1215 C1228 0.961 . S
H1216 C1228 0.959 . S
H1217 C1231 0.929 . S
H1218 C1232 0.931 . S
H1219 C1234 0.930 . S
C1220 H1208 0.930 . S
C1220 C1221 1.399 . S
C1220 C1225 1.399 . S
C1221 C1220 1.399 . S
C1221 C1222 1.376 . S
C1222 H1209 0.930 . S
C1222 C1221 1.376 . S
C1222 C1223 1.388 . S
C1223 H1210 0.930 . S
C1223 C1222 1.388 . S
C1223 C1224 1.390 . S
C1224 C1223 1.390 . S
C1224 C1225 1.394 . S
C1224 C1230 1.465 . S
C1225 C1220 1.399 . S
C1225 C1224 1.394 . S
C1225 C1226 1.516 . S
C1226 C1225 1.516 . S
C1226 C1227 1.502 . S
C1226 C1228 1.561 . S
C1226 C1229 1.526 . S
C1227 H1211 0.959 . S
C1227 H1212 0.959 . S
C1227 H1213 0.961 . S
C1227 C1226 1.502 . S
C1228 H1214 0.960 . S
C1228 H1215 0.961 . S
C1228 H1216 0.959 . S
C1228 C1226 1.561 . S
C1229 C1226 1.526 . S
C1229 C1230 1.396 . S
C1229 C1234 1.390 . S
C1230 C1224 1.465 . S
C1230 C1229 1.396 . S
C1230 C1231 1.399 . S
C1231 H1217 0.929 . S
C1231 C1230 1.399 . S
C1231 C1232 1.385 . S
C1232 H1218 0.931 . S
C1232 C1231 1.385 . S
C1232 C1233 1.389 . S
C1233 C1232 1.389 . S
C1233 C1234 1.387 . S
C1234 H1219 0.930 . S
C1234 C1229 1.390 . S
C1234 C1233 1.387 . S
H1235 C1247 0.930 . S
H1236 C1249 0.931 1_455 S
H1237 C1250 0.930 1_556 S
H1238 C1254 0.959 1_455 S
H1239 C1254 0.959 . S
H1240 C1254 0.961 . S
H1241 C1255 0.960 . S
H1242 C1255 0.961 . S
H1243 C1255 0.959 . S
H1244 C1258 0.929 . S
H1245 C1259 0.931 . S
H1246 C1261 0.936 . S
C1247 H1235 0.930 . S
C1247 C1248 1.399 . S
C1247 C1252 1.399 . S
C1248 C1247 1.399 . S
C1248 C1249 1.376 . S
C1249 H1236 0.931 1_655 S
C1249 C1248 1.376 . S
C1249 C1250 1.388 1_655 S
C1250 H1237 0.930 1_554 S
C1250 C1249 1.388 1_455 S
C1250 C1251 1.389 1_455 S
C1251 C1250 1.389 1_655 S
C1251 C1252 1.408 . S
C1251 C1257 1.454 1_654 S
C1252 C1247 1.399 . S
C1252 C1251 1.408 . S
C1252 C1253 1.516 . S
C1253 C1252 1.516 . S
C1253 C1254 1.502 . S
C1253 C1255 1.561 . S
C1253 C1256 1.567 . S
C1254 H1238 0.959 1_655 S
C1254 H1239 0.959 . S
C1254 H1240 0.961 . S
C1254 C1253 1.502 . S
C1255 H1241 0.960 . S
C1255 H1242 0.961 . S
C1255 H1243 0.959 . S
C1255 C1253 1.561 . S
C1256 C1253 1.567 . S
C1256 C1257 1.375 1_654 S
C1256 C1261 1.379 1_554 S
C1257 C1251 1.454 1_456 S
C1257 C1256 1.375 1_456 S
C1257 C1258 1.399 . S
C1258 H1244 0.929 . S
C1258 C1257 1.399 . S
C1258 C1259 1.385 . S
C1259 H1245 0.931 . S
C1259 C1258 1.385 . S
C1259 C1260 1.389 . S
C1260 C1259 1.389 . S
C1260 C1261 1.373 1_455 S
C1261 H1246 0.936 . S
C1261 C1256 1.379 1_556 S
C1261 C1260 1.373 1_655 S
H1262 C1274 0.930 . S
H1263 C1276 0.930 . S
H1264 C1277 0.930 . S
H1265 C1281 0.959 . S
H1266 C1281 0.959 . S
H1267 C1281 0.961 . S
H1268 C1282 0.960 . S
H1269 C1282 0.961 . S
H1270 C1282 0.959 . S
H1271 C1285 0.929 . S
H1272 C1286 0.931 . S
H1273 C1288 0.930 . S
C1274 H1262 0.930 . S
C1274 C1275 1.399 . S
C1274 C1279 1.399 . S
C1275 C1274 1.399 . S
C1275 C1276 1.376 . S
C1276 H1263 0.930 . S
C1276 C1275 1.376 . S
C1276 C1277 1.388 . S
C1277 H1264 0.930 . S
C1277 C1276 1.388 . S
C1277 C1278 1.390 . S
C1278 C1277 1.390 . S
C1278 C1279 1.394 . S
C1278 C1284 1.465 . S
C1279 C1274 1.399 . S
C1279 C1278 1.394 . S
C1279 C1280 1.516 . S
C1280 C1279 1.516 . S
C1280 C1281 1.502 . S
C1280 C1282 1.561 . S
C1280 C1283 1.526 . S
C1281 H1265 0.959 . S
C1281 H1266 0.959 . S
C1281 H1267 0.961 . S
C1281 C1280 1.502 . S
C1282 H1268 0.960 . S
C1282 H1269 0.961 . S
C1282 H1270 0.959 . S
C1282 C1280 1.561 . S
C1283 C1280 1.526 . S
C1283 C1284 1.396 . S
C1283 C1288 1.390 . S
C1284 C1278 1.465 . S
C1284 C1283 1.396 . S
C1284 C1285 1.399 . S
C1285 H1271 0.929 . S
C1285 C1284 1.399 . S
C1285 C1286 1.385 . S
C1286 H1272 0.931 . S
C1286 C1285 1.385 . S
C1286 C1287 1.389 . S
C1287 C1286 1.389 . S
C1287 C1288 1.387 . S
C1288 H1273 0.930 . S
C1288 C1283 1.390 . S
C1288 C1287 1.387 . S
H1289 C1301 0.930 . S
H1290 C1303 0.930 . S
H1291 C1304 0.930 . S
H1292 C1308 0.959 . S
H1293 C1308 0.959 . S
H1294 C1308 0.961 . S
H1295 C1309 0.960 . S
H1296 C1309 0.961 . S
H1297 C1309 0.959 . S
H1298 C1312 0.929 . S
H1299 C1313 0.931 . S
H1300 C1315 0.930 . S
C1301 H1289 0.930 . S
C1301 C1302 1.399 . S
C1301 C1306 1.390 1_554 S
C1302 C1301 1.399 . S
C1302 C1303 1.376 1_554 S
C1303 H1290 0.930 . S
C1303 C1302 1.376 1_556 S
C1303 C1304 1.388 . S
C1304 H1291 0.930 . S
C1304 C1303 1.388 . S
C1304 C1305 1.390 . S
C1305 C1304 1.390 . S
C1305 C1306 1.410 . S
C1305 C1311 1.465 . S
C1306 C1301 1.390 1_556 S
C1306 C1305 1.410 . S
C1306 C1307 1.512 1_556 S
C1307 C1306 1.512 1_554 S
C1307 C1308 1.502 1_455 S
C1307 C1309 1.561 . S
C1307 C1310 1.526 1_554 S
C1308 H1292 0.959 . S
C1308 H1293 0.959 . S
C1308 H1294 0.961 . S
C1308 C1307 1.502 1_655 S
C1309 H1295 0.960 . S
C1309 H1296 0.961 . S
C1309 H1297 0.959 . S
C1309 C1307 1.561 . S
C1310 C1307 1.526 1_556 S
C1310 C1311 1.396 . S
C1310 C1315 1.390 . S
C1311 C1305 1.465 . S
C1311 C1310 1.396 . S
C1311 C1312 1.399 . S
C1312 H1298 0.929 . S
C1312 C1311 1.399 . S
C1312 C1313 1.385 . S
C1313 H1299 0.931 . S
C1313 C1312 1.385 . S
C1313 C1314 1.389 . S
C1314 C1313 1.389 . S
C1314 C1315 1.387 . S
C1315 H1300 0.930 . S
C1315 C1310 1.390 . S
C1315 C1314 1.387 . S
H1316 C1328 0.930 . S
H1317 C1330 0.930 . S
H1318 C1331 0.930 . S
H1319 C1335 0.959 . S
H1320 C1335 0.959 . S
H1321 C1335 0.961 . S
H1322 C1336 0.960 . S
H1323 C1336 0.961 . S
H1324 C1336 0.959 . S
H1325 C1339 0.929 . S
H1326 C1340 0.931 . S
H1327 C1342 0.930 . S
C1328 H1316 0.930 . S
C1328 C1329 1.399 . S
C1328 C1333 1.399 . S
C1329 C1328 1.399 . S
C1329 C1330 1.376 . S
C1330 H1317 0.930 . S
C1330 C1329 1.376 . S
C1330 C1331 1.388 . S
C1331 H1318 0.930 . S
C1331 C1330 1.388 . S
C1331 C1332 1.390 . S
C1332 C1331 1.390 . S
C1332 C1333 1.394 . S
C1332 C1338 1.465 . S
C1333 C1328 1.399 . S
C1333 C1332 1.394 . S
C1333 C1334 1.516 . S
C1334 C1333 1.516 . S
C1334 C1335 1.502 . S
C1334 C1336 1.561 . S
C1334 C1337 1.526 . S
C1335 H1319 0.959 . S
C1335 H1320 0.959 . S
C1335 H1321 0.961 . S
C1335 C1334 1.502 . S
C1336 H1322 0.960 . S
C1336 H1323 0.961 . S
C1336 H1324 0.959 . S
C1336 C1334 1.561 . S
C1337 C1334 1.526 . S
C1337 C1338 1.396 . S
C1337 C1342 1.390 . S
C1338 C1332 1.465 . S
C1338 C1337 1.396 . S
C1338 C1339 1.399 . S
C1339 H1325 0.929 . S
C1339 C1338 1.399 . S
C1339 C1340 1.385 . S
C1340 H1326 0.931 . S
C1340 C1339 1.385 . S
C1340 C1341 1.389 . S
C1341 C1340 1.389 . S
C1341 C1342 1.387 . S
C1342 H1327 0.930 . S
C1342 C1337 1.390 . S
C1342 C1341 1.387 . S
H1343 C1355 0.930 . S
H1344 C1357 0.930 . S
H1345 C1358 0.930 . S
H1346 C1362 0.959 . S
H1347 C1362 0.959 . S
H1348 C1362 0.961 . S
H1349 C1363 0.960 . S
H1350 C1363 0.961 . S
H1351 C1363 0.959 . S
H1352 C1366 0.929 . S
H1353 C1367 0.931 . S
H1354 C1369 0.930 . S
C1355 H1343 0.930 . S
C1355 C1356 1.399 . S
C1355 C1360 1.399 . S
C1356 C1355 1.399 . S
C1356 C1357 1.376 . S
C1357 H1344 0.930 . S
C1357 C1356 1.376 . S
C1357 C1358 1.388 . S
C1358 H1345 0.930 . S
C1358 C1357 1.388 . S
C1358 C1359 1.390 . S
C1359 C1358 1.390 . S
C1359 C1360 1.394 . S
C1359 C1365 1.465 . S
C1360 C1355 1.399 . S
C1360 C1359 1.394 . S
C1360 C1361 1.516 . S
C1361 C1360 1.516 . S
C1361 C1362 1.502 . S
C1361 C1363 1.561 . S
C1361 C1364 1.526 . S
C1362 H1346 0.959 . S
C1362 H1347 0.959 . S
C1362 H1348 0.961 . S
C1362 C1361 1.502 . S
C1363 H1349 0.960 . S
C1363 H1350 0.961 . S
C1363 H1351 0.959 . S
C1363 C1361 1.561 . S
C1364 C1361 1.526 . S
C1364 C1365 1.396 . S
C1364 C1369 1.390 . S
C1365 C1359 1.465 . S
C1365 C1364 1.396 . S
C1365 C1366 1.399 . S
C1366 H1352 0.929 . S
C1366 C1365 1.399 . S
C1366 C1367 1.385 . S
C1367 H1353 0.931 . S
C1367 C1366 1.385 . S
C1367 C1368 1.389 . S
C1368 C1367 1.389 . S
C1368 C1369 1.387 . S
C1369 H1354 0.930 . S
C1369 C1364 1.390 . S
C1369 C1368 1.387 . S
H1370 C1382 0.930 . S
H1371 C1384 0.930 . S
H1372 C1385 0.930 . S
H1373 C1389 0.959 . S
H1374 C1389 0.959 . S
H1375 C1389 0.961 . S
H1376 C1390 0.960 . S
H1377 C1390 0.961 . S
H1378 C1390 0.959 . S
H1379 C1393 0.929 . S
H1380 C1394 0.931 . S
H1381 C1396 0.930 . S
C1382 H1370 0.930 . S
C1382 C1383 1.399 . S
C1382 C1387 1.399 . S
C1383 C1382 1.399 . S
C1383 C1384 1.376 . S
C1384 H1371 0.930 . S
C1384 C1383 1.376 . S
C1384 C1385 1.388 . S
C1385 H1372 0.930 . S
C1385 C1384 1.388 . S
C1385 C1386 1.390 . S
C1386 C1385 1.390 . S
C1386 C1387 1.394 . S
C1386 C1392 1.465 . S
C1387 C1382 1.399 . S
C1387 C1386 1.394 . S
C1387 C1388 1.516 . S
C1388 C1387 1.516 . S
C1388 C1389 1.502 . S
C1388 C1390 1.561 . S
C1388 C1391 1.526 . S
C1389 H1373 0.959 . S
C1389 H1374 0.959 . S
C1389 H1375 0.961 . S
C1389 C1388 1.502 . S
C1390 H1376 0.960 . S
C1390 H1377 0.961 . S
C1390 H1378 0.959 . S
C1390 C1388 1.561 . S
C1391 C1388 1.526 . S
C1391 C1392 1.396 . S
C1391 C1396 1.390 . S
C1392 C1386 1.465 . S
C1392 C1391 1.396 . S
C1392 C1393 1.399 . S
C1393 H1379 0.929 . S
C1393 C1392 1.399 . S
C1393 C1394 1.385 . S
C1394 H1380 0.931 . S
C1394 C1393 1.385 . S
C1394 C1395 1.389 . S
C1395 C1394 1.389 . S
C1395 C1396 1.387 . S
C1396 H1381 0.930 . S
C1396 C1391 1.390 . S
C1396 C1395 1.387 . S
H1397 C1409 0.930 . S
H1398 C1411 0.930 . S
H1399 C1412 0.930 . S
H1400 C1416 0.959 . S
H1401 C1416 0.959 . S
H1402 C1416 0.961 . S
H1403 C1417 0.960 . S
H1404 C1417 0.961 . S
H1405 C1417 0.959 . S
H1406 C1420 0.929 . S
H1407 C1421 0.931 . S
H1408 C1423 0.930 . S
C1409 H1397 0.930 . S
C1409 C1410 1.399 . S
C1409 C1414 1.399 . S
C1410 C1409 1.399 . S
C1410 C1411 1.376 . S
C1411 H1398 0.930 . S
C1411 C1410 1.376 . S
C1411 C1412 1.388 . S
C1412 H1399 0.930 . S
C1412 C1411 1.388 . S
C1412 C1413 1.390 . S
C1413 C1412 1.390 . S
C1413 C1414 1.394 . S
C1413 C1419 1.465 . S
C1414 C1409 1.399 . S
C1414 C1413 1.394 . S
C1414 C1415 1.516 . S
C1415 C1414 1.516 . S
C1415 C1416 1.502 . S
C1415 C1417 1.561 . S
C1415 C1418 1.526 . S
C1416 H1400 0.959 . S
C1416 H1401 0.959 . S
C1416 H1402 0.961 . S
C1416 C1415 1.502 . S
C1417 H1403 0.960 . S
C1417 H1404 0.961 . S
C1417 H1405 0.959 . S
C1417 C1415 1.561 . S
C1418 C1415 1.526 . S
C1418 C1419 1.396 . S
C1418 C1423 1.390 . S
C1419 C1413 1.465 . S
C1419 C1418 1.396 . S
C1419 C1420 1.399 . S
C1420 H1406 0.929 . S
C1420 C1419 1.399 . S
C1420 C1421 1.385 . S
C1421 H1407 0.931 . S
C1421 C1420 1.385 . S
C1421 C1422 1.389 . S
C1422 C1421 1.389 . S
C1422 C1423 1.387 . S
C1423 H1408 0.930 . S
C1423 C1418 1.390 . S
C1423 C1422 1.387 . S
H1424 C1436 0.930 . S
H1425 C1438 0.930 . S
H1426 C1439 0.930 . S
H1427 C1443 0.959 . S
H1428 C1443 0.959 . S
H1429 C1443 0.961 . S
H1430 C1444 0.960 . S
H1431 C1444 0.961 . S
H1432 C1444 0.959 . S
H1433 C1447 0.929 . S
H1434 C1448 0.931 . S
H1435 C1450 0.930 . S
C1436 H1424 0.930 . S
C1436 C1437 1.399 . S
C1436 C1441 1.399 . S
C1437 C1436 1.399 . S
C1437 C1438 1.376 . S
C1438 H1425 0.930 . S
C1438 C1437 1.376 . S
C1438 C1439 1.388 . S
C1439 H1426 0.930 . S
C1439 C1438 1.388 . S
C1439 C1440 1.390 . S
C1440 C1439 1.390 . S
C1440 C1441 1.394 . S
C1440 C1446 1.465 . S
C1441 C1436 1.399 . S
C1441 C1440 1.394 . S
C1441 C1442 1.516 . S
C1442 C1441 1.516 . S
C1442 C1443 1.502 . S
C1442 C1444 1.561 . S
C1442 C1445 1.526 . S
C1443 H1427 0.959 . S
C1443 H1428 0.959 . S
C1443 H1429 0.961 . S
C1443 C1442 1.502 . S
C1444 H1430 0.960 . S
C1444 H1431 0.961 . S
C1444 H1432 0.959 . S
C1444 C1442 1.561 . S
C1445 C1442 1.526 . S
C1445 C1446 1.396 . S
C1445 C1450 1.390 . S
C1446 C1440 1.465 . S
C1446 C1445 1.396 . S
C1446 C1447 1.399 . S
C1447 H1433 0.929 . S
C1447 C1446 1.399 . S
C1447 C1448 1.385 . S
C1448 H1434 0.931 . S
C1448 C1447 1.385 . S
C1448 C1449 1.389 . S
C1449 C1448 1.389 . S
C1449 C1450 1.387 . S
C1450 H1435 0.930 . S
C1450 C1445 1.390 . S
C1450 C1449 1.387 . S
H1451 C1463 0.930 . S
H1452 C1465 0.930 . S
H1453 C1466 0.930 . S
H1454 C1470 0.959 . S
H1455 C1470 0.959 . S
H1456 C1470 0.961 . S
H1457 C1471 0.960 . S
H1458 C1471 0.961 . S
H1459 C1471 0.959 . S
H1460 C1474 0.929 . S
H1461 C1475 0.931 . S
H1462 C1477 0.930 . S
C1463 H1451 0.930 . S
C1463 C1464 1.399 . S
C1463 C1468 1.399 . S
C1464 C1463 1.399 . S
C1464 C1465 1.376 . S
C1465 H1452 0.930 . S
C1465 C1464 1.376 . S
C1465 C1466 1.388 . S
C1466 H1453 0.930 . S
C1466 C1465 1.388 . S
C1466 C1467 1.390 . S
C1467 C1466 1.390 . S
C1467 C1468 1.394 . S
C1467 C1473 1.465 . S
C1468 C1463 1.399 . S
C1468 C1467 1.394 . S
C1468 C1469 1.516 . S
C1469 C1468 1.516 . S
C1469 C1470 1.502 . S
C1469 C1471 1.561 . S
C1469 C1472 1.526 . S
C1470 H1454 0.959 . S
C1470 H1455 0.959 . S
C1470 H1456 0.961 . S
C1470 C1469 1.502 . S
C1471 H1457 0.960 . S
C1471 H1458 0.961 . S
C1471 H1459 0.959 . S
C1471 C1469 1.561 . S
C1472 C1469 1.526 . S
C1472 C1473 1.396 . S
C1472 C1477 1.390 . S
C1473 C1467 1.465 . S
C1473 C1472 1.396 . S
C1473 C1474 1.399 . S
C1474 H1460 0.929 . S
C1474 C1473 1.399 . S
C1474 C1475 1.385 . S
C1475 H1461 0.931 . S
C1475 C1474 1.385 . S
C1475 C1476 1.389 . S
C1476 C1475 1.389 . S
C1476 C1477 1.387 . S
C1477 H1462 0.930 . S
C1477 C1472 1.390 . S
C1477 C1476 1.387 . S
H1478 C1490 0.930 . S
H1479 C1492 0.930 . S
H1480 C1493 0.930 . S
H1481 C1497 0.959 . S
H1482 C1497 0.959 . S
H1483 C1497 0.961 . S
H1484 C1498 0.960 . S
H1485 C1498 0.961 . S
H1486 C1498 0.959 . S
H1487 C1501 0.929 . S
H1488 C1502 0.931 . S
H1489 C1504 0.930 . S
C1490 H1478 0.930 . S
C1490 C1491 1.399 . S
C1490 C1495 1.399 . S
C1491 C1490 1.399 . S
C1491 C1492 1.376 . S
C1492 H1479 0.930 . S
C1492 C1491 1.376 . S
C1492 C1493 1.388 . S
C1493 H1480 0.930 . S
C1493 C1492 1.388 . S
C1493 C1494 1.390 . S
C1494 C1493 1.390 . S
C1494 C1495 1.394 . S
C1494 C1500 1.465 . S
C1495 C1490 1.399 . S
C1495 C1494 1.394 . S
C1495 C1496 1.516 . S
C1496 C1495 1.516 . S
C1496 C1497 1.502 . S
C1496 C1498 1.561 . S
C1496 C1499 1.526 . S
C1497 H1481 0.959 . S
C1497 H1482 0.959 . S
C1497 H1483 0.961 . S
C1497 C1496 1.502 . S
C1498 H1484 0.960 . S
C1498 H1485 0.961 . S
C1498 H1486 0.959 . S
C1498 C1496 1.561 . S
C1499 C1496 1.526 . S
C1499 C1500 1.396 . S
C1499 C1504 1.390 . S
C1500 C1494 1.465 . S
C1500 C1499 1.396 . S
C1500 C1501 1.399 . S
C1501 H1487 0.929 . S
C1501 C1500 1.399 . S
C1501 C1502 1.385 . S
C1502 H1488 0.931 . S
C1502 C1501 1.385 . S
C1502 C1503 1.389 . S
C1503 C1502 1.389 . S
C1503 C1504 1.387 . S
C1504 H1489 0.930 . S
C1504 C1499 1.390 . S
C1504 C1503 1.387 . S
H1505 C1517 0.930 . S
H1506 C1519 0.930 . S
H1507 C1520 0.930 . S
H1508 C1524 0.959 . S
H1509 C1524 0.959 . S
H1510 C1524 0.961 . S
H1511 C1525 0.960 . S
H1512 C1525 0.961 . S
H1513 C1525 0.959 . S
H1514 C1528 0.929 . S
H1515 C1529 0.931 . S
H1516 C1531 0.930 . S
C1517 H1505 0.930 . S
C1517 C1518 1.399 . S
C1517 C1522 1.399 . S
C1518 C1517 1.399 . S
C1518 C1519 1.376 . S
C1519 H1506 0.930 . S
C1519 C1518 1.376 . S
C1519 C1520 1.388 . S
C1520 H1507 0.930 . S
C1520 C1519 1.388 . S
C1520 C1521 1.390 . S
C1521 C1520 1.390 . S
C1521 C1522 1.394 . S
C1521 C1527 1.465 . S
C1522 C1517 1.399 . S
C1522 C1521 1.394 . S
C1522 C1523 1.516 . S
C1523 C1522 1.516 . S
C1523 C1524 1.502 . S
C1523 C1525 1.561 . S
C1523 C1526 1.526 . S
C1524 H1508 0.959 . S
C1524 H1509 0.959 . S
C1524 H1510 0.961 . S
C1524 C1523 1.502 . S
C1525 H1511 0.960 . S
C1525 H1512 0.961 . S
C1525 H1513 0.959 . S
C1525 C1523 1.561 . S
C1526 C1523 1.526 . S
C1526 C1527 1.396 . S
C1526 C1531 1.390 . S
C1527 C1521 1.465 . S
C1527 C1526 1.396 . S
C1527 C1528 1.399 . S
C1528 H1514 0.929 . S
C1528 C1527 1.399 . S
C1528 C1529 1.385 . S
C1529 H1515 0.931 . S
C1529 C1528 1.385 . S
C1529 C1530 1.389 . S
C1530 C1529 1.389 . S
C1530 C1531 1.387 . S
C1531 H1516 0.930 . S
C1531 C1526 1.390 . S
C1531 C1530 1.387 . S
H1532 C1544 0.887 1_554 S
H1533 C1546 0.930 . S
H1534 C1547 0.930 . S
H1535 C1551 0.959 . S
H1536 C1551 0.959 . S
H1537 C1551 0.961 . S
H1538 C1552 0.960 . S
H1539 C1552 0.961 . S
H1540 C1552 0.959 . S
H1541 C1555 0.929 . S
H1542 C1556 0.931 . S
H1543 C1558 0.930 . S
C1544 H1532 0.887 1_556 S
C1544 C1545 1.435 . S
C1544 C1549 1.407 . S
C1545 C1544 1.435 . S
C1545 C1546 1.376 . S
C1546 H1533 0.930 . S
C1546 C1545 1.376 . S
C1546 C1547 1.388 . S
C1547 H1534 0.930 . S
C1547 C1546 1.388 . S
C1547 C1548 1.390 . S
C1548 C1547 1.390 . S
C1548 C1549 1.394 . S
C1548 C1554 1.465 . S
C1549 C1544 1.407 . S
C1549 C1548 1.394 . S
C1549 C1550 1.516 1_556 S
C1550 C1549 1.516 1_554 S
C1550 C1551 1.502 . S
C1550 C1552 1.561 . S
C1550 C1553 1.526 . S
C1551 H1535 0.959 . S
C1551 H1536 0.959 . S
C1551 H1537 0.961 . S
C1551 C1550 1.502 . S
C1552 H1538 0.960 . S
C1552 H1539 0.961 . S
C1552 H1540 0.959 . S
C1552 C1550 1.561 . S
C1553 C1550 1.526 . S
C1553 C1554 1.396 1_554 S
C1553 C1558 1.390 . S
C1554 C1548 1.465 . S
C1554 C1553 1.396 1_556 S
C1554 C1555 1.399 . S
C1555 H1541 0.929 . S
C1555 C1554 1.399 . S
C1555 C1556 1.385 . S
C1556 H1542 0.931 . S
C1556 C1555 1.385 . S
C1556 C1557 1.389 . S
C1557 C1556 1.389 . S
C1557 C1558 1.387 1_556 S
C1558 H1543 0.930 . S
C1558 C1553 1.390 . S
C1558 C1557 1.387 1_554 S
H1559 C1571 0.930 . S
H1560 C1573 0.930 . S
H1561 C1574 0.930 . S
H1562 C1578 0.959 . S
H1563 C1578 0.959 . S
H1564 C1578 0.961 . S
H1565 C1579 0.960 . S
H1566 C1579 0.961 . S
H1567 C1579 0.959 . S
H1568 C1582 0.929 . S
H1569 C1583 0.931 . S
H1570 C1585 0.930 . S
C1571 H1559 0.930 . S
C1571 C1572 1.399 . S
C1571 C1576 1.399 . S
C1572 C1571 1.399 . S
C1572 C1573 1.376 . S
C1573 H1560 0.930 . S
C1573 C1572 1.376 . S
C1573 C1574 1.388 . S
C1574 H1561 0.930 . S
C1574 C1573 1.388 . S
C1574 C1575 1.390 . S
C1575 C1574 1.390 . S
C1575 C1576 1.394 . S
C1575 C1581 1.465 . S
C1576 C1571 1.399 . S
C1576 C1575 1.394 . S
C1576 C1577 1.516 . S
C1577 C1576 1.516 . S
C1577 C1578 1.502 . S
C1577 C1579 1.561 . S
C1577 C1580 1.526 . S
C1578 H1562 0.959 . S
C1578 H1563 0.959 . S
C1578 H1564 0.961 . S
C1578 C1577 1.502 . S
C1579 H1565 0.960 . S
C1579 H1566 0.961 . S
C1579 H1567 0.959 . S
C1579 C1577 1.561 . S
C1580 C1577 1.526 . S
C1580 C1581 1.396 . S
C1580 C1585 1.390 . S
C1581 C1575 1.465 . S
C1581 C1580 1.396 . S
C1581 C1582 1.399 . S
C1582 H1568 0.929 . S
C1582 C1581 1.399 . S
C1582 C1583 1.385 . S
C1583 H1569 0.931 . S
C1583 C1582 1.385 . S
C1583 C1584 1.389 . S
C1584 C1583 1.389 . S
C1584 C1585 1.387 . S
C1585 H1570 0.930 . S
C1585 C1580 1.390 . S
C1585 C1584 1.387 . S
H1586 C1598 0.930 . S
H1587 C1600 0.930 . S
H1588 C1601 0.930 . S
H1589 C1605 0.959 . S
H1590 C1605 0.959 . S
H1591 C1605 0.961 . S
H1592 C1606 0.960 . S
H1593 C1606 0.968 . S
H1594 C1606 0.959 . S
H1595 C1609 0.929 . S
H1596 C1610 0.931 . S
H1597 C1612 0.930 . S
C1598 H1586 0.930 . S
C1598 C1599 1.399 . S
C1598 C1603 1.399 . S
C1599 C1598 1.399 . S
C1599 C1600 1.376 . S
C1600 H1587 0.930 . S
C1600 C1599 1.376 . S
C1600 C1601 1.388 . S
C1601 H1588 0.930 . S
C1601 C1600 1.388 . S
C1601 C1602 1.390 . S
C1602 C1601 1.390 . S
C1602 C1603 1.394 . S
C1602 C1608 1.465 . S
C1603 C1598 1.399 . S
C1603 C1602 1.394 . S
C1603 C1604 1.516 . S
C1604 C1603 1.516 . S
C1604 C1605 1.502 . S
C1604 C1606 1.561 . S
C1604 C1607 1.526 . S
C1605 H1589 0.959 . S
C1605 H1590 0.959 . S
C1605 H1591 0.961 . S
C1605 C1604 1.502 . S
C1606 H1592 0.960 . S
C1606 H1593 0.968 . S
C1606 H1594 0.959 . S
C1606 C1604 1.561 . S
C1607 C1604 1.526 . S
C1607 C1608 1.396 . S
C1607 C1612 1.390 . S
C1608 C1602 1.465 . S
C1608 C1607 1.396 . S
C1608 C1609 1.399 . S
C1609 H1595 0.929 . S
C1609 C1608 1.399 . S
C1609 C1610 1.385 . S
C1610 H1596 0.931 . S
C1610 C1609 1.385 . S
C1610 C1611 1.389 . S
C1611 C1610 1.389 . S
C1611 C1612 1.387 . S
C1612 H1597 0.930 . S
C1612 C1607 1.390 . S
C1612 C1611 1.387 . S
H1613 C1625 0.930 . S
H1614 C1627 0.930 . S
H1615 C1628 0.930 . S
H1616 C1632 0.959 . S
H1617 C1632 0.959 . S
H1618 C1632 0.961 . S
H1619 C1633 0.960 . S
H1620 C1633 0.961 . S
H1621 C1633 0.959 . S
H1622 C1636 0.929 . S
H1623 C1637 0.931 . S
H1624 C1639 0.930 . S
C1625 H1613 0.930 . S
C1625 C1626 1.399 . S
C1625 C1630 1.399 . S
C1626 C1625 1.399 . S
C1626 C1627 1.376 1_554 S
C1627 H1614 0.930 . S
C1627 C1626 1.376 1_556 S
C1627 C1628 1.388 . S
C1628 H1615 0.930 . S
C1628 C1627 1.388 . S
C1628 C1629 1.390 . S
C1629 C1628 1.390 . S
C1629 C1630 1.394 1_556 S
C1629 C1635 1.465 . S
C1630 C1625 1.399 . S
C1630 C1629 1.394 1_554 S
C1630 C1631 1.516 . S
C1631 C1630 1.516 . S
C1631 C1632 1.502 . S
C1631 C1633 1.561 . S
C1631 C1634 1.526 . S
C1632 H1616 0.959 . S
C1632 H1617 0.959 . S
C1632 H1618 0.961 . S
C1632 C1631 1.502 . S
C1633 H1619 0.960 . S
C1633 H1620 0.961 . S
C1633 H1621 0.959 . S
C1633 C1631 1.561 . S
C1634 C1631 1.526 . S
C1634 C1635 1.396 1_554 S
C1634 C1639 1.390 . S
C1635 C1629 1.465 . S
C1635 C1634 1.396 1_556 S
C1635 C1636 1.399 . S
C1636 H1622 0.929 . S
C1636 C1635 1.399 . S
C1636 C1637 1.385 . S
C1637 H1623 0.931 . S
C1637 C1636 1.385 . S
C1637 C1638 1.389 1_556 S
C1638 C1637 1.389 1_554 S
C1638 C1639 1.387 . S
C1639 H1624 0.930 . S
C1639 C1634 1.390 . S
C1639 C1638 1.387 . S
C369 C187 1.177 . S
C357 C62 1.115 . S
C396 C195 1.435 . S
C384 C73 1.573 1_455 S
C411 C84 1.463 . S
C423 C215 1.421 . S
C450 C229 1.254 . S
C438 C49 1.108 . S
C477 C244 1.387 . S
C465 C118 1.379 . S
C504 C258 1.628 . S
C492 C137 1.294 . S
C519 C129 1.584 . S
C531 C272 1.620 . S
C558 C278 1.789 . S
C546 C106 1.839 . S
C573 C128 1.846 . S
C585 C292 1.826 . S
C612 C313 1.628 . S
C600 C104 1.544 . S
C627 C115 1.504 . S
C639 C293 1.496 . S
C666 C314 1.796 . S
C654 C139 1.693 . S
C681 C85 1.540 . S
C693 C321 1.323 . S
C708 C52 1.199 . S
C720 C327 1.232 . S
C735 C60 0.958 . S
C747 C320 0.928 . S
C762 C71 1.377 1_655 S
C774 C328 1.528 . S
C789 C40 1.733 . S
C801 C222 1.753 . S
C816 C162 1.104 . S
C828 C223 1.036 . S
C855 C180 1.130 . S
C843 C173 1.168 1_554 S
C882 C201 1.635 . S
C870 C93 1.568 . S
C897 C51 1.351 . S
C909 C236 1.417 . S
C936 C286 1.523 . S
C924 C126 1.284 . S
C963 C237 1.510 . S
C951 C107 1.678 . S
C990 C265 1.389 . S
C978 C140 1.629 . S
C1017 C271 1.187 . S
C1005 C161 1.124 . S
C1032 C172 1.537 . S
C1044 C279 1.361 . S
C1059 C95 1.405 . S
C1071 C243 1.461 . S
C1098 C257 1.275 . S
C1086 C148 1.030 . S
C1113 C41 1.375 . S
C1125 C216 1.387 . S
C1152 C230 1.626 . S
C1140 C5 1.441 . S
C1179 C188 1.617 . S
C1167 C19 1.598 . S
C1206 C194 1.818 . S
C1194 C29 1.842 1_455 S
C1221 C18 1.806 . S
C1233 C306 1.847 . S
C1248 C27 1.452 . S
C1260 C299 1.669 . S
C1275 C38 1.512 . S
C1287 C307 1.504 . S
C1302 C7 1.699 . S
C1314 C300 1.795 . S
C1341 C335 1.319 . S
C1329 C96 1.541 . S
C1368 C341 1.185 . S
C1356 C151 1.230 . S
C1395 C334 0.929 . S
C1383 C159 0.956 . S
C1410 C170 1.397 . S
C1422 C342 1.532 . S
C1437 C117 1.732 . S
C1449 C250 1.749 . S
C1476 C251 0.919 . S
C1464 C63 1.139 . S
C1503 C264 1.184 . S
C1491 C74 1.177 . S
C1530 C285 1.691 . S
C1518 C82 1.515 . S
C1545 C150 1.421 . S
C1557 C208 1.426 1_556 S
C1584 C202 1.524 . S
C1572 C16 1.298 . S
C1599 C30 1.684 . S
C1611 C209 1.501 . S
C1638 C181 1.400 . S
C1626 C8 1.628 . S
