# Generated by pormake.
# Topology rtl, (3,6)-cn, num edge types: 1
# Building blocks:
#     Node 0, Type 0, BuildingBlock: OLANEW_clean_sbu_2, # of connection points: 3
#     Node 1, Type 0, BuildingBlock: OLANEW_clean_sbu_2, # of connection points: 3
#     Node 2, Type 0, BuildingBlock: OLANEW_clean_sbu_2, # of connection points: 3
#     Node 3, Type 0, BuildingBlock: OLANEW_clean_sbu_2, # of connection points: 3
#     Node 4, Type 1, BuildingBlock: LEVNOQ01_clean_sbu_1, # of connection points: 6
#     Node 5, Type 1, BuildingBlock: LEVNOQ01_clean_sbu_1, # of connection points: 6
#     Edge 6, Type (0, 1), BuildingBlock: FUNLAD_clean_linker_1, # of connection points: 2
#     Edge 7, Type (0, 1), BuildingBlock: FUNLAD_clean_linker_1, # of connection points: 2
#     Edge 8, Type (0, 1), BuildingBlock: FUNLAD_clean_linker_1, # of connection points: 2
#     Edge 9, Type (0, 1), BuildingBlock: FUNLAD_clean_linker_1, # of connection points: 2
#     Edge 10, Type (0, 1), BuildingBlock: FUNLAD_clean_linker_1, # of connection points: 2
#     Edge 11, Type (0, 1), BuildingBlock: FUNLAD_clean_linker_1, # of connection points: 2
#     Edge 12, Type (0, 1), BuildingBlock: FUNLAD_clean_linker_1, # of connection points: 2
#     Edge 13, Type (0, 1), BuildingBlock: FUNLAD_clean_linker_1, # of connection points: 2
#     Edge 14, Type (0, 1), BuildingBlock: FUNLAD_clean_linker_1, # of connection points: 2
#     Edge 15, Type (0, 1), BuildingBlock: FUNLAD_clean_linker_1, # of connection points: 2
#     Edge 16, Type (0, 1), BuildingBlock: FUNLAD_clean_linker_1, # of connection points: 2
#     Edge 17, Type (0, 1), BuildingBlock: FUNLAD_clean_linker_1, # of connection points: 2
# Relax obj value: 0.015
# Max RMSD: 0.121
# Mean RMSD: 0.076
data_MOF--net-rtl--node1-OLANEW_clean_sbu_2--node2-LEVNOQ01_clean_sbu_1--edge1-FUNLAD_clean_linker_1
_symmetry_space_group_name_H-M    P1
_symmetry_Int_Tables_number       1
_symmetry_cell_setting            triclinic
loop_
_symmetry_equiv_pos_as_xyz
'x, y, z'
_cell_length_a     38.787078
_cell_length_b     39.099273
_cell_length_c     24.904084
_cell_angle_alpha  87.279794
_cell_angle_beta   100.02134
_cell_angle_gamma 89.962662
loop_
_atom_site_label
_atom_site_type_symbol
_atom_site_fract_x
_atom_site_fract_y
_atom_site_fract_z
_atom_type_partial_charge
O0 O 0.19348 0.82792 0.02481 0.0
Cd1 Cd 0.21884 0.80601 0.11752 0.0
O2 O 0.22701 0.87349 0.03268 0.0
Cd3 Cd 0.23971 0.86606 0.12122 0.0
O4 O 0.21765 0.87548 0.19414 0.0
C5 C 0.18504 0.86972 0.18952 0.0
O6 O 0.16838 0.8572 0.14433 0.0
C7 C 0.20472 0.85509 0.00381 0.0
C8 C 0.27456 0.76087 0.11696 0.0
O9 O 0.24346 0.74978 0.11694 0.0
O10 O 0.27946 0.79325 0.11751 0.0
O11 O 0.69588 0.72896 0.72797 0.0
Cd12 Cd 0.71021 0.77421 0.66473 0.0
O13 O 0.68194 0.70633 0.64886 0.0
Cd14 Cd 0.65897 0.66912 0.59095 0.0
O15 O 0.64415 0.6418 0.51623 0.0
C16 C 0.62022 0.65369 0.47857 0.0
O17 O 0.60369 0.68204 0.4856 0.0
C18 C 0.68254 0.70436 0.70006 0.0
C19 C 0.77208 0.81056 0.68698 0.0
O20 O 0.74366 0.82228 0.699 0.0
O21 O 0.77167 0.78082 0.66724 0.0
O22 O 0.80298 0.19825 0.09062 0.0
Cd23 Cd 0.77836 0.21062 0.99374 0.0
O24 O 0.85667 0.21175 0.08081 0.0
Cd25 Cd 0.8414 0.2182 0.99232 0.0
O26 O 0.83572 0.19856 0.91057 0.0
C27 C 0.86193 0.1811 0.90314 0.0
O28 O 0.88903 0.17774 0.94291 0.0
C29 C 0.83507 0.20192 0.11121 0.0
C30 C 0.71967 0.25337 0.97801 0.0
O31 O 0.71679 0.22087 0.98434 0.0
O32 O 0.75032 0.26588 0.9792 0.0
O33 O 0.3235 0.32799 0.53579 0.0
Cd34 Cd 0.2902 0.31952 0.44395 0.0
O35 O 0.29697 0.37657 0.54535 0.0
Cd36 Cd 0.2694 0.37835 0.46099 0.0
O37 O 0.26772 0.39045 0.374 0.0
C38 C 0.29505 0.40533 0.36358 0.0
O39 O 0.32028 0.41177 0.4043 0.0
C40 C 0.31906 0.3531 0.56457 0.0
C41 C 0.24769 0.26196 0.4424 0.0
O42 O 0.27958 0.25953 0.43575 0.0
O43 O 0.23562 0.29164 0.44948 0.0
O44 O 0.02743 0.07323 0.67818 0.0
Mg45 Mg 0.07232 0.05528 0.65064 0.0
O46 O 0.98786 0.04801 0.61727 0.0
Mg47 Mg 0.01813 0.02204 0.5557 0.0
O48 O 0.06312 0.06054 0.56795 0.0
O49 O 0.10525 0.08896 0.61919 0.0
O50 O 0.04957 0.99655 0.4963 0.0
O51 O 0.99089 0.06271 0.48784 0.0
Mg52 Mg 0.96889 0.98829 0.45942 0.0
O53 O 0.9733 0.9826 0.54255 0.0
O54 O 0.01411 0.96991 0.43245 0.0
O55 O 0.9499 0.03704 0.43076 0.0
O56 O 0.93423 0.95445 0.48467 0.0
C57 C 0.07193 0.97929 0.66175 0.0
C58 C 0.9959 0.0662 0.65898 0.0
C59 C 0.08815 0.08266 0.57153 0.0
C60 C 0.04471 0.97819 0.45472 0.0
C61 C 0.96539 0.064 0.44757 0.0
C62 C 0.94811 0.96059 0.53422 0.0
O63 O 0.08967 0.0055 0.6764 0.0
O64 O 0.04526 0.98152 0.62347 0.0
O65 O 0.55189 0.51167 0.13001 0.0
Mg66 Mg 0.52795 0.46765 0.09617 0.0
O67 O 0.51334 0.54271 0.07217 0.0
Mg68 Mg 0.48589 0.50985 0.00068 0.0
O69 O 0.52672 0.46501 0.01408 0.0
O70 O 0.55927 0.4303 0.0775 0.0
O71 O 0.45625 0.4773 0.92886 0.0
O72 O 0.52357 0.53582 0.9472 0.0
Mg73 Mg 0.44408 0.55578 0.9033 0.0
O74 O 0.44724 0.55547 0.9861 0.0
O75 O 0.41835 0.51158 0.87433 0.0
O76 O 0.49263 0.56794 0.88009 0.0
O77 O 0.415 0.59345 0.92928 0.0
C78 C 0.45152 0.46343 0.09747 0.0
C79 C 0.53756 0.54029 0.11398 0.0
C80 C 0.54935 0.4401 0.02694 0.0
C81 C 0.4307 0.48201 0.88905 0.0
C82 C 0.52181 0.55614 0.90512 0.0
C83 C 0.42548 0.58114 0.97844 0.0
O84 O 0.4812 0.45201 0.12048 0.0
O85 O 0.44827 0.4843 0.05571 0.0
H86 H 0.24005 0.20619 0.44778 0.0
C87 C 0.22669 0.23079 0.44597 0.0
H88 H 0.17895 0.25592 0.45033 0.0
H89 H 0.1022 0.10947 0.4154 0.0
H90 H 0.08671 0.13407 0.32293 0.0
H91 H 0.11147 0.18919 0.29642 0.0
H92 H 0.15219 0.21995 0.36222 0.0
C93 C 0.19299 0.23172 0.4522 0.0
C94 C 0.17557 0.20002 0.4688 0.0
C95 C 0.15131 0.18275 0.43035 0.0
C96 C 0.13645 0.15129 0.44599 0.0
C97 C 0.11344 0.13389 0.40613 0.0
C98 C 0.10452 0.14763 0.35284 0.0
C99 C 0.11851 0.17865 0.33788 0.0
C100 C 0.14181 0.19604 0.37596 0.0
H101 H 0.07755 0.12089 0.50322 0.0
C102 C 0.09675 0.10227 0.52389 0.0
H103 H 0.14901 0.08592 0.54058 0.0
H104 H 0.21819 0.22885 0.554 0.0
H105 H 0.23229 0.20565 0.64706 0.0
H106 H 0.20661 0.15134 0.67471 0.0
H107 H 0.16682 0.12009 0.60977 0.0
C108 C 0.13053 0.10477 0.5185 0.0
C109 C 0.14536 0.13765 0.50046 0.0
C110 C 0.16891 0.15561 0.53937 0.0
C111 C 0.18384 0.18686 0.52353 0.0
C112 C 0.20662 0.20463 0.56345 0.0
C113 C 0.2148 0.19173 0.61721 0.0
C114 C 0.20035 0.16119 0.63276 0.0
C115 C 0.17757 0.14336 0.59468 0.0
H116 H 0.32752 0.74858 0.10213 0.0
C117 C 0.30361 0.73746 0.11216 0.0
H118 H 0.27597 0.69201 0.12341 0.0
H119 H 0.34579 0.61702 0.94999 0.0
H120 H 0.28628 0.62543 0.90204 0.0
H121 H 0.24381 0.65911 0.94131 0.0
H122 H 0.26058 0.68441 0.02878 0.0
C123 C 0.30013 0.70327 0.11469 0.0
C124 C 0.32537 0.68071 0.09413 0.0
C125 C 0.31486 0.66559 0.04331 0.0
C126 C 0.33944 0.64664 0.0203 0.0
C127 C 0.32836 0.63213 0.96909 0.0
C128 C 0.29421 0.63664 0.94115 0.0
C129 C 0.27031 0.65554 0.9633 0.0
C130 C 0.28032 0.66989 0.0137 0.0
H131 H 0.40826 0.58057 0.05906 0.0
C132 C 0.41224 0.59662 0.02388 0.0
H133 H 0.4051 0.64479 0.98198 0.0
H134 H 0.35269 0.7026 0.19519 0.0
H135 H 0.41254 0.69419 0.24308 0.0
H136 H 0.45555 0.66237 0.20194 0.0
H137 H 0.43892 0.63849 0.11273 0.0
C138 C 0.40086 0.62931 0.01767 0.0
C139 C 0.37452 0.64296 0.04791 0.0
C140 C 0.38463 0.65656 0.09991 0.0
C141 C 0.35994 0.67537 0.12324 0.0
C142 C 0.3706 0.68863 0.17532 0.0
C143 C 0.4048 0.68387 0.20325 0.0
C144 C 0.42902 0.66591 0.18009 0.0
C145 C 0.4192 0.65239 0.12894 0.0
H146 H 0.79804 0.86042 0.68893 0.0
C147 C 0.80258 0.83305 0.68774 0.0
H148 H 0.83769 0.79421 0.67622 0.0
H149 H 0.90316 0.88239 0.5022 0.0
H150 H 0.88234 0.83207 0.45378 0.0
H151 H 0.84964 0.7875 0.49659 0.0
H152 H 0.8381 0.79266 0.58804 0.0
C153 C 0.83338 0.82157 0.67761 0.0
C154 C 0.85796 0.84563 0.65568 0.0
C155 C 0.86448 0.84197 0.6019 0.0
C156 C 0.88228 0.86818 0.57649 0.0
C157 C 0.88882 0.86376 0.52293 0.0
C158 C 0.8772 0.83489 0.4947 0.0
C159 C 0.85888 0.80978 0.51885 0.0
C160 C 0.85249 0.81312 0.57169 0.0
H161 H 0.95498 0.93372 0.61597 0.0
C162 C 0.93624 0.9408 0.5794 0.0
H163 H 0.88556 0.9358 0.53449 0.0
H164 H 0.85799 0.85612 0.76327 0.0
H165 H 0.87836 0.90695 0.81158 0.0
H166 H 0.90398 0.95492 0.76441 0.0
H167 H 0.91038 0.95227 0.66978 0.0
C168 C 0.90358 0.92819 0.57172 0.0
C169 C 0.89256 0.89846 0.60405 0.0
C170 C 0.88821 0.90108 0.65902 0.0
C171 C 0.87176 0.87412 0.68534 0.0
C172 C 0.869 0.87655 0.74091 0.0
C173 C 0.88076 0.90541 0.7691 0.0
C174 C 0.89531 0.9324 0.74265 0.0
C175 C 0.89897 0.93047 0.68823 0.0
H176 H 0.66399 0.26358 0.97904 0.0
C177 C 0.68843 0.27553 0.973 0.0
H178 H 0.71354 0.32226 0.95837 0.0
H179 H 0.56581 0.39916 0.8832 0.0
H180 H 0.5857 0.39718 0.79614 0.0
H181 H 0.63931 0.36519 0.78825 0.0
H182 H 0.67335 0.33483 0.86739 0.0
C183 C 0.68968 0.30975 0.96573 0.0
C184 C 0.65901 0.33145 0.97105 0.0
C185 C 0.63977 0.34949 0.92472 0.0
C186 C 0.60908 0.36836 0.92944 0.0
C187 C 0.58972 0.38515 0.88213 0.0
C188 C 0.60074 0.38405 0.83188 0.0
C189 C 0.63091 0.36599 0.82742 0.0
C190 C 0.65022 0.34872 0.87311 0.0
H191 H 0.58428 0.43774 0.96682 0.0
C192 C 0.56548 0.42315 0.98596 0.0
H193 H 0.54727 0.37506 0.00787 0.0
H194 H 0.69339 0.30465 0.06973 0.0
H195 H 0.67462 0.30757 0.15706 0.0
H196 H 0.62058 0.33864 0.16517 0.0
H197 H 0.58536 0.36707 0.08643 0.0
C198 C 0.56605 0.38876 0.98733 0.0
C199 C 0.59805 0.36944 0.98071 0.0
C200 C 0.618 0.35212 0.02746 0.0
C201 C 0.64875 0.33359 0.02272 0.0
C202 C 0.66907 0.318 0.07049 0.0
C203 C 0.6588 0.31974 0.12112 0.0
C204 C 0.62844 0.33726 0.12569 0.0
C205 C 0.60833 0.35343 0.07976 0.0
H206 H 0.13699 0.87382 0.22424 0.0
C207 C 0.16484 0.87937 0.23148 0.0
H208 H 0.20601 0.90369 0.28222 0.0
H209 H 0.09575 0.00561 0.35336 0.0
H210 H 0.13081 0.0442 0.30675 0.0
H211 H 0.17767 0.02205 0.26208 0.0
H212 H 0.1896 0.96111 0.26362 0.0
C213 C 0.17857 0.89658 0.27549 0.0
C214 C 0.15527 0.91007 0.31145 0.0
C215 C 0.14948 0.94588 0.31182 0.0
C216 C 0.12277 0.95869 0.33831 0.0
C217 C 0.11624 0.99445 0.33531 0.0
C218 C 0.13607 0.01693 0.30833 0.0
C219 C 0.16242 0.00446 0.28312 0.0
C220 C 0.16901 0.96939 0.28439 0.0
H221 H 0.10133 0.97355 0.45265 0.0
C222 C 0.07534 0.96657 0.43238 0.0
H223 H 0.04605 0.94004 0.36804 0.0
H224 H 0.16445 0.84075 0.3275 0.0
H225 H 0.13079 0.80205 0.37695 0.0
H226 H 0.08391 0.82405 0.42177 0.0
H227 H 0.07057 0.88487 0.41775 0.0
C228 C 0.07182 0.94807 0.38765 0.0
C229 C 0.10247 0.93562 0.36536 0.0
C230 C 0.10981 0.9 0.36786 0.0
C231 C 0.13646 0.88725 0.34135 0.0
C232 C 0.14378 0.85164 0.34558 0.0
C233 C 0.12485 0.8292 0.37419 0.0
C234 C 0.09849 0.84159 0.39948 0.0
C235 C 0.09101 0.87655 0.39665 0.0
H236 H 0.65015 0.65797 0.69764 0.0
C237 C 0.66492 0.6758 0.72483 0.0
H238 H 0.67695 0.69192 0.8055 0.0
H239 H 0.53111 0.6461 0.86172 0.0
H240 H 0.52671 0.7079 0.86139 0.0
H241 H 0.57257 0.74446 0.83237 0.0
H242 H 0.62315 0.71945 0.80387 0.0
C243 C 0.66325 0.67351 0.7783 0.0
C244 C 0.63711 0.6509 0.79912 0.0
C245 C 0.60774 0.66603 0.81592 0.0
C246 C 0.581 0.64499 0.83167 0.0
C247 C 0.55196 0.66081 0.84839 0.0
C248 C 0.54913 0.6963 0.84861 0.0
C249 C 0.57496 0.71687 0.83237 0.0
C250 C 0.60394 0.7021 0.81617 0.0
H251 H 0.57908 0.56445 0.91575 0.0
C252 C 0.55437 0.56867 0.88801 0.0
H253 H 0.52852 0.59262 0.81431 0.0
H254 H 0.6919 0.61375 0.77569 0.0
H255 H 0.69588 0.55177 0.77454 0.0
H256 H 0.64816 0.51532 0.79776 0.0
H257 H 0.59637 0.54055 0.82294 0.0
C258 C 0.55337 0.58783 0.84144 0.0
C259 C 0.5835 0.60886 0.8303 0.0
C260 C 0.6133 0.59365 0.81496 0.0
C261 C 0.64036 0.61473 0.79996 0.0
C262 C 0.67022 0.59894 0.78601 0.0
C263 C 0.67288 0.56342 0.78544 0.0
C264 C 0.64604 0.54289 0.79864 0.0
C265 C 0.6165 0.55769 0.81318 0.0
H266 H 0.82869 0.17868 0.1913 0.0
C267 C 0.84757 0.19038 0.16867 0.0
H268 H 0.90125 0.19983 0.16831 0.0
H269 H 0.92659 0.15899 0.42919 0.0
H270 H 0.92089 0.22045 0.43574 0.0
H271 H 0.90338 0.25809 0.35308 0.0
H272 H 0.89114 0.23444 0.26319 0.0
C273 C 0.88179 0.1891 0.19066 0.0
C274 C 0.89443 0.16706 0.24056 0.0
C275 C 0.90216 0.18128 0.29251 0.0
C276 C 0.9128 0.15959 0.34016 0.0
C277 C 0.9191 0.17434 0.39169 0.0
C278 C 0.9158 0.20956 0.396 0.0
C279 C 0.9059 0.23076 0.34944 0.0
C280 C 0.89899 0.21691 0.29817 0.0
H281 H 0.97543 0.11567 0.41306 0.0
C282 C 0.95549 0.09647 0.41575 0.0
H283 H 0.90411 0.08022 0.38768 0.0
H284 H 0.88457 0.13195 0.14642 0.0
H285 H 0.89173 0.0709 0.13933 0.0
H286 H 0.91078 0.03331 0.22152 0.0
H287 H 0.92275 0.05654 0.31114 0.0
C288 C 0.92359 0.09984 0.38432 0.0
C289 C 0.91613 0.12379 0.33539 0.0
C290 C 0.90963 0.10978 0.28304 0.0
C291 C 0.8988 0.13142 0.23565 0.0
C292 C 0.89254 0.1167 0.18392 0.0
C293 C 0.89668 0.08166 0.17918 0.0
C294 C 0.90738 0.06051 0.22542 0.0
C295 C 0.91396 0.07424 0.27675 0.0
H296 H 0.36115 0.3362 0.63262 0.0
C297 C 0.34172 0.35614 0.61837 0.0
H298 H 0.32283 0.40499 0.6321 0.0
H299 H 0.40646 0.37672 0.88211 0.0
H300 H 0.3637 0.3321 0.89081 0.0
H301 H 0.32275 0.31409 0.81 0.0
H302 H 0.32424 0.34039 0.72006 0.0
C303 C 0.34106 0.3842 0.64731 0.0
C304 C 0.36857 0.39086 0.69518 0.0
C305 C 0.36749 0.3749 0.74718 0.0
C306 C 0.39078 0.38558 0.79396 0.0
C307 C 0.38897 0.36971 0.84558 0.0
C308 C 0.36469 0.34408 0.85102 0.0
C309 C 0.34166 0.3339 0.80548 0.0
C310 C 0.34283 0.34914 0.75408 0.0
H311 H 0.38637 0.45629 0.84197 0.0
C312 C 0.41423 0.45351 0.85803 0.0
H313 H 0.46094 0.42869 0.8485 0.0
H314 H 0.38017 0.42386 0.6006 0.0
H315 H 0.42356 0.46756 0.59219 0.0
H316 H 0.46387 0.48598 0.67335 0.0
H317 H 0.46105 0.46076 0.76341 0.0
C318 C 0.43257 0.42977 0.83761 0.0
C319 C 0.41488 0.4122 0.78862 0.0
C320 C 0.4177 0.4263 0.73609 0.0
C321 C 0.39437 0.41579 0.68938 0.0
C322 C 0.39706 0.43109 0.63755 0.0
C323 C 0.42191 0.45614 0.63211 0.0
C324 C 0.44461 0.46649 0.67779 0.0
C325 C 0.44265 0.45186 0.72926 0.0
H326 H 0.62848 0.61415 0.42203 0.0
C327 C 0.61202 0.63585 0.42722 0.0
H328 H 0.56873 0.66701 0.39173 0.0
H329 H 0.57924 0.63044 0.14968 0.0
H330 H 0.58673 0.69206 0.14683 0.0
H331 H 0.59046 0.72429 0.2304 0.0
H332 H 0.58681 0.69515 0.3173 0.0
C333 C 0.58503 0.64502 0.38753 0.0
C334 C 0.57793 0.62633 0.336 0.0
C335 C 0.57959 0.6439 0.28533 0.0
C336 C 0.5771 0.62536 0.23696 0.0
C337 C 0.58017 0.64334 0.18735 0.0
C338 C 0.58468 0.67869 0.1852 0.0
C339 C 0.58682 0.69684 0.23227 0.0
C340 C 0.5846 0.67977 0.28192 0.0
H341 H 0.52541 0.58991 0.14563 0.0
C342 C 0.545 0.56964 0.14921 0.0
H343 H 0.59147 0.54812 0.19443 0.0
H344 H 0.56496 0.58619 0.42359 0.0
H345 H 0.55531 0.525 0.42594 0.0
H346 H 0.55326 0.49243 0.34304 0.0
H347 H 0.56042 0.52092 0.2574 0.0
C348 C 0.57232 0.56881 0.19066 0.0
C349 C 0.57259 0.58939 0.23943 0.0
C350 C 0.56889 0.57214 0.28954 0.0
C351 C 0.57095 0.59071 0.33763 0.0
C352 C 0.56534 0.57311 0.38641 0.0
C353 C 0.55932 0.53801 0.38821 0.0
C354 C 0.55811 0.5197 0.34155 0.0
C355 C 0.56252 0.53643 0.29263 0.0
H356 H 0.83748 0.16389 0.82167 0.0
C357 C 0.86143 0.1636 0.85174 0.0
H358 H 0.91348 0.14586 0.87349 0.0
H359 H 0.92559 0.02088 0.74273 0.0
H360 H 0.9219 0.99376 0.8319 0.0
H361 H 0.9013 0.0263 0.9026 0.0
H362 H 0.88576 0.08659 0.88618 0.0
C363 C 0.88994 0.14691 0.84252 0.0
C364 C 0.89052 0.12603 0.79427 0.0
C365 C 0.89733 0.09041 0.80319 0.0
C366 C 0.90827 0.07139 0.76184 0.0
C367 C 0.91703 0.03633 0.77296 0.0
C368 C 0.91473 0.02045 0.82354 0.0
C369 C 0.9033 0.03885 0.86358 0.0
C370 C 0.89464 0.07342 0.85375 0.0
H371 H 0.97811 0.09808 0.71862 0.0
C372 C 0.96899 0.08039 0.68679 0.0
H373 H 0.92452 0.05413 0.64711 0.0
H374 H 0.8755 0.19322 0.7608 0.0
H375 H 0.87675 0.21914 0.6708 0.0
H376 H 0.89296 0.18506 0.59791 0.0
H377 H 0.90845 0.12464 0.61515 0.0
C378 C 0.93492 0.07239 0.67718 0.0
C379 C 0.91188 0.08798 0.71146 0.0
C380 C 0.9008 0.12246 0.70008 0.0
C381 C 0.89062 0.14181 0.7418 0.0
C382 C 0.88253 0.177 0.73043 0.0
C383 C 0.88328 0.19225 0.6789 0.0
C384 C 0.89247 0.17308 0.63786 0.0
C385 C 0.90135 0.13859 0.64822 0.0
H386 H 0.27792 0.40827 0.27369 0.0
C387 C 0.29891 0.41439 0.30668 0.0
H388 H 0.34876 0.43629 0.32839 0.0
H389 H 0.37166 0.40229 0.08403 0.0
H390 H 0.36281 0.34227 0.10845 0.0
H391 H 0.34146 0.32562 0.19362 0.0
H392 H 0.32817 0.36858 0.25415 0.0
C393 C 0.32824 0.42918 0.29536 0.0
C394 C 0.33398 0.43835 0.23894 0.0
C395 C 0.34155 0.41262 0.20427 0.0
C396 C 0.35518 0.42203 0.15627 0.0
C397 C 0.36225 0.39615 0.12178 0.0
C398 C 0.35713 0.36176 0.13518 0.0
C399 C 0.34502 0.35241 0.18307 0.0
C400 C 0.33737 0.37741 0.21744 0.0
H401 H 0.42728 0.43528 0.15856 0.0
C402 C 0.42147 0.45289 0.1229 0.0
H403 H 0.3824 0.48412 0.07443 0.0
H404 H 0.31574 0.49388 0.29068 0.0
H405 H 0.32371 0.55371 0.26471 0.0
H406 H 0.34934 0.56976 0.18313 0.0
H407 H 0.36696 0.52616 0.12686 0.0
C408 C 0.38874 0.46531 0.10824 0.0
C409 C 0.36281 0.45678 0.14455 0.0
C410 C 0.35165 0.48261 0.17578 0.0
C411 C 0.33723 0.47335 0.22311 0.0
C412 C 0.32724 0.49959 0.25469 0.0
C413 C 0.33156 0.53397 0.24014 0.0
C414 C 0.34597 0.54301 0.19419 0.0
C415 C 0.35605 0.51773 0.16232 0.0
H416 H 0.20038 0.8915 0.93299 0.0
C417 C 0.18959 0.868 0.94811 0.0
H418 H 0.14882 0.83178 0.9329 0.0
H419 H 0.08839 0.97786 0.80193 0.0
H420 H 0.08402 0.9954 0.89268 0.0
H421 H 0.10468 0.95734 0.9738 0.0
H422 H 0.13011 0.90166 0.96463 0.0
C423 C 0.16047 0.85507 0.91894 0.0
C424 C 0.14175 0.87465 0.86969 0.0
C425 C 0.1257 0.90654 0.87568 0.0
C426 C 0.11327 0.92818 0.82894 0.0
C427 C 0.09839 0.96041 0.83615 0.0
C428 C 0.09556 0.97074 0.88798 0.0
C429 C 0.10722 0.94933 0.93363 0.0
C430 C 0.12201 0.91754 0.92781 0.0
H431 H 0.06098 0.92675 0.69217 0.0
C432 C 0.08059 0.94669 0.69393 0.0
H433 H 0.12996 0.96382 0.73215 0.0
H434 H 0.16526 0.81273 0.84397 0.0
H435 H 0.16624 0.79366 0.75261 0.0
H436 H 0.14429 0.83118 0.67131 0.0
H437 H 0.12111 0.88803 0.68074 0.0
C438 C 0.11071 0.94352 0.73003 0.0
C439 C 0.11618 0.9176 0.77625 0.0
C440 C 0.12903 0.88441 0.7699 0.0
C441 C 0.14178 0.86281 0.81682 0.0
C442 C 0.15529 0.83007 0.80959 0.0
C443 C 0.15598 0.81887 0.75747 0.0
C444 C 0.14361 0.84001 0.71166 0.0
C445 C 0.13041 0.87252 0.71757 0.0
loop_
_geom_bond_atom_site_label_1
_geom_bond_atom_site_label_2
_geom_bond_distance
_geom_bond_site_symmetry_2
_ccdc_geom_bond_type
O0 Cd1 2.300 1_556 S
O0 C7 1.275 1_556 S
Cd1 O0 2.300 1_554 S
Cd1 O9 2.381 . S
Cd1 O10 2.378 . S
O2 Cd3 2.385 . S
O2 C7 1.255 . S
Cd3 O2 2.385 . S
Cd3 O4 2.317 . S
O4 Cd3 2.317 . S
O4 C5 1.232 . S
C5 O4 1.232 . S
C5 O6 1.218 . S
O6 C5 1.218 . S
C7 O0 1.275 1_554 S
C7 O2 1.255 . S
C8 O9 1.258 . S
C8 O10 1.256 . S
O9 Cd1 2.381 . S
O9 C8 1.258 . S
O10 Cd1 2.378 . S
O10 C8 1.256 . S
O11 Cd12 2.300 . S
O11 C18 1.275 . S
Cd12 O11 2.300 . S
Cd12 O20 2.381 . S
Cd12 O21 2.378 . S
O13 Cd14 2.385 . S
O13 C18 1.255 . S
Cd14 O13 2.385 . S
Cd14 O15 2.317 . S
O15 Cd14 2.317 . S
O15 C16 1.232 . S
C16 O15 1.232 . S
C16 O17 1.218 . S
O17 C16 1.218 . S
C18 O11 1.275 . S
C18 O13 1.255 . S
C19 O20 1.258 . S
C19 O21 1.256 . S
O20 Cd12 2.381 . S
O20 C19 1.258 . S
O21 Cd12 2.378 . S
O21 C19 1.256 . S
O22 Cd23 2.300 . S
O22 C29 1.275 . S
Cd23 O22 2.300 . S
Cd23 O31 2.381 . S
Cd23 O32 2.378 1_554 S
O24 Cd25 2.385 1_554 S
O24 C29 1.255 . S
Cd25 O24 2.385 1_556 S
Cd25 O26 2.317 . S
O26 Cd25 2.317 . S
O26 C27 1.232 . S
C27 O26 1.232 . S
C27 O28 1.218 . S
O28 C27 1.218 . S
C29 O22 1.275 . S
C29 O24 1.255 . S
C30 O31 1.258 . S
C30 O32 1.256 1_554 S
O31 Cd23 2.381 . S
O31 C30 1.258 . S
O32 Cd23 2.378 1_556 S
O32 C30 1.256 1_556 S
O33 Cd34 2.300 . S
O33 C40 1.275 . S
Cd34 O33 2.300 . S
Cd34 O42 2.381 . S
Cd34 O43 2.378 . S
O35 Cd36 2.385 . S
O35 C40 1.255 . S
Cd36 O35 2.385 . S
Cd36 O37 2.317 . S
O37 Cd36 2.317 . S
O37 C38 1.232 . S
C38 O37 1.232 . S
C38 O39 1.218 . S
O39 C38 1.218 . S
C40 O33 1.275 . S
C40 O35 1.255 . S
C41 O42 1.258 . S
C41 O43 1.256 . S
O42 Cd34 2.381 . S
O42 C41 1.258 . S
O43 Cd34 2.378 . S
O43 C41 1.256 . S
O44 Mg45 1.990 . S
O44 C58 1.253 1_455 S
Mg45 O44 1.990 . S
Mg45 O48 2.180 . S
Mg45 O49 2.117 . S
Mg45 O63 2.030 . S
O46 Mg47 2.072 1_655 S
O46 C58 1.260 . S
Mg47 O46 2.072 1_455 S
Mg47 O48 2.099 . S
Mg47 O50 2.079 1_545 S
Mg47 O51 2.072 1_455 S
Mg47 O53 2.099 1_445 S
Mg47 O64 2.079 1_545 S
O48 Mg45 2.180 . S
O48 Mg47 2.099 . S
O48 C59 1.279 . S
O49 Mg45 2.117 . S
O49 C59 1.250 . S
O50 Mg47 2.079 1_565 S
O50 C60 1.264 . S
O51 Mg47 2.072 1_655 S
O51 C61 1.260 . S
Mg52 O53 2.180 . S
Mg52 O54 2.030 1_655 S
Mg52 O55 1.990 1_565 S
Mg52 O56 2.117 . S
O53 Mg47 2.099 1_665 S
O53 Mg52 2.180 . S
O53 C62 1.279 . S
O54 Mg52 2.030 1_455 S
O54 C60 1.248 . S
O55 Mg52 1.990 1_545 S
O55 C61 1.253 . S
O56 Mg52 2.117 . S
O56 C62 1.250 . S
C57 O63 1.248 1_565 S
C57 O64 1.264 . S
C58 O44 1.253 1_655 S
C58 O46 1.260 . S
C59 O48 1.279 . S
C59 O49 1.250 . S
C60 O50 1.264 . S
C60 O54 1.248 . S
C61 O51 1.260 . S
C61 O55 1.253 . S
C62 O53 1.279 . S
C62 O56 1.250 . S
O63 Mg45 2.030 . S
O63 C57 1.248 1_545 S
O64 Mg47 2.079 1_565 S
O64 C57 1.264 . S
O65 Mg66 1.990 . S
O65 C79 1.253 . S
Mg66 O65 1.990 . S
Mg66 O69 2.180 . S
Mg66 O70 2.117 . S
Mg66 O84 2.030 . S
O67 Mg68 2.072 . S
O67 C79 1.260 . S
Mg68 O67 2.072 . S
Mg68 O69 2.099 . S
Mg68 O71 2.079 1_554 S
Mg68 O72 2.072 1_554 S
Mg68 O74 2.099 1_554 S
Mg68 O85 2.079 . S
O69 Mg66 2.180 . S
O69 Mg68 2.099 . S
O69 C80 1.279 . S
O70 Mg66 2.117 . S
O70 C80 1.250 . S
O71 Mg68 2.079 1_556 S
O71 C81 1.264 . S
O72 Mg68 2.072 1_556 S
O72 C82 1.260 . S
Mg73 O74 2.180 . S
Mg73 O75 2.030 . S
Mg73 O76 1.990 . S
Mg73 O77 2.117 . S
O74 Mg68 2.099 1_556 S
O74 Mg73 2.180 . S
O74 C83 1.279 . S
O75 Mg73 2.030 . S
O75 C81 1.248 . S
O76 Mg73 1.990 . S
O76 C82 1.253 . S
O77 Mg73 2.117 . S
O77 C83 1.250 . S
C78 O84 1.248 . S
C78 O85 1.264 . S
C79 O65 1.253 . S
C79 O67 1.260 . S
C80 O69 1.279 . S
C80 O70 1.250 . S
C81 O71 1.264 . S
C81 O75 1.248 . S
C82 O72 1.260 . S
C82 O76 1.253 . S
C83 O74 1.279 . S
C83 O77 1.250 . S
O84 Mg66 2.030 . S
O84 C78 1.248 . S
O85 Mg68 2.079 . S
O85 C78 1.264 . S
H86 C87 0.951 . S
C87 H86 0.951 . S
C87 C93 1.265 . S
H88 C93 0.950 . S
H89 C97 0.949 . S
H90 C98 0.950 . S
H91 C99 0.951 . S
H92 C100 0.951 . S
C93 C87 1.265 . S
C93 H88 0.950 . S
C93 C94 1.478 . S
C94 C93 1.478 . S
C94 C95 1.397 . S
C94 C111 1.394 . S
C95 C94 1.397 . S
C95 C96 1.438 . S
C95 C100 1.429 . S
C96 C95 1.438 . S
C96 C97 1.428 . S
C96 C109 1.394 . S
C97 H89 0.949 . S
C97 C96 1.428 . S
C97 C98 1.345 . S
C98 H90 0.950 . S
C98 C97 1.345 . S
C98 C99 1.424 . S
C99 H91 0.951 . S
C99 C98 1.424 . S
C99 C100 1.347 . S
C100 H92 0.951 . S
C100 C95 1.429 . S
C100 C99 1.347 . S
H101 C102 0.951 . S
C102 H101 0.951 . S
C102 C108 1.265 . S
H103 C108 0.950 . S
H104 C112 0.949 . S
H105 C113 0.950 . S
H106 C114 0.951 . S
H107 C115 0.951 . S
C108 C102 1.265 . S
C108 H103 0.950 . S
C108 C109 1.478 . S
C109 C96 1.394 . S
C109 C108 1.478 . S
C109 C110 1.397 . S
C110 C109 1.397 . S
C110 C111 1.438 . S
C110 C115 1.429 . S
C111 C94 1.394 . S
C111 C110 1.438 . S
C111 C112 1.428 . S
C112 H104 0.949 . S
C112 C111 1.428 . S
C112 C113 1.345 . S
C113 H105 0.950 . S
C113 C112 1.345 . S
C113 C114 1.424 . S
C114 H106 0.951 . S
C114 C113 1.424 . S
C114 C115 1.347 . S
C115 H107 0.951 . S
C115 C110 1.429 . S
C115 C114 1.347 . S
H116 C117 0.951 . S
C117 H116 0.951 . S
C117 C123 1.265 . S
H118 C123 0.950 . S
H119 C127 0.949 . S
H120 C128 0.950 . S
H121 C129 0.951 . S
H122 C130 0.951 . S
C123 C117 1.265 . S
C123 H118 0.950 . S
C123 C124 1.478 . S
C124 C123 1.478 . S
C124 C125 1.397 . S
C124 C141 1.394 . S
C125 C124 1.397 . S
C125 C126 1.438 1_554 S
C125 C130 1.429 1_554 S
C126 C125 1.438 1_556 S
C126 C127 1.428 . S
C126 C139 1.394 1_556 S
C127 H119 0.949 . S
C127 C126 1.428 . S
C127 C128 1.345 . S
C128 H120 0.950 . S
C128 C127 1.345 . S
C128 C129 1.424 . S
C129 H121 0.951 . S
C129 C128 1.424 . S
C129 C130 1.347 . S
C130 H122 0.951 . S
C130 C125 1.429 1_556 S
C130 C129 1.347 . S
H131 C132 0.951 . S
C132 H131 0.951 . S
C132 C138 1.265 . S
H133 C138 0.950 . S
H134 C142 0.949 . S
H135 C143 0.950 . S
H136 C144 0.951 . S
H137 C145 0.951 . S
C138 C132 1.265 . S
C138 H133 0.950 . S
C138 C139 1.478 . S
C139 C126 1.394 1_554 S
C139 C138 1.478 . S
C139 C140 1.397 . S
C140 C139 1.397 . S
C140 C141 1.438 . S
C140 C145 1.429 . S
C141 C124 1.394 . S
C141 C140 1.438 . S
C141 C142 1.428 . S
C142 H134 0.949 . S
C142 C141 1.428 . S
C142 C143 1.345 . S
C143 H135 0.950 . S
C143 C142 1.345 . S
C143 C144 1.424 . S
C144 H136 0.951 . S
C144 C143 1.424 . S
C144 C145 1.347 . S
C145 H137 0.951 . S
C145 C140 1.429 . S
C145 C144 1.347 . S
H146 C147 0.951 . S
C147 H146 0.951 . S
C147 C153 1.265 . S
H148 C153 0.950 . S
H149 C157 0.949 . S
H150 C158 0.950 . S
H151 C159 0.951 . S
H152 C160 0.951 . S
C153 C147 1.265 . S
C153 H148 0.950 . S
C153 C154 1.478 . S
C154 C153 1.478 . S
C154 C155 1.397 . S
C154 C171 1.394 . S
C155 C154 1.397 . S
C155 C156 1.438 . S
C155 C160 1.429 . S
C156 C155 1.438 . S
C156 C157 1.428 . S
C156 C169 1.394 . S
C157 H149 0.949 . S
C157 C156 1.428 . S
C157 C158 1.345 . S
C158 H150 0.950 . S
C158 C157 1.345 . S
C158 C159 1.424 . S
C159 H151 0.951 . S
C159 C158 1.424 . S
C159 C160 1.347 . S
C160 H152 0.951 . S
C160 C155 1.429 . S
C160 C159 1.347 . S
H161 C162 0.951 . S
C162 H161 0.951 . S
C162 C168 1.265 . S
H163 C168 0.950 . S
H164 C172 0.949 . S
H165 C173 0.950 . S
H166 C174 0.951 . S
H167 C175 0.951 . S
C168 C162 1.265 . S
C168 H163 0.950 . S
C168 C169 1.478 . S
C169 C156 1.394 . S
C169 C168 1.478 . S
C169 C170 1.397 . S
C170 C169 1.397 . S
C170 C171 1.438 . S
C170 C175 1.429 . S
C171 C154 1.394 . S
C171 C170 1.438 . S
C171 C172 1.428 . S
C172 H164 0.949 . S
C172 C171 1.428 . S
C172 C173 1.345 . S
C173 H165 0.950 . S
C173 C172 1.345 . S
C173 C174 1.424 . S
C174 H166 0.951 . S
C174 C173 1.424 . S
C174 C175 1.347 . S
C175 H167 0.951 . S
C175 C170 1.429 . S
C175 C174 1.347 . S
H176 C177 0.951 . S
C177 H176 0.951 . S
C177 C183 1.265 . S
H178 C183 0.950 . S
H179 C187 0.949 . S
H180 C188 0.950 . S
H181 C189 0.951 . S
H182 C190 0.951 . S
C183 C177 1.265 . S
C183 H178 0.950 . S
C183 C184 1.478 . S
C184 C183 1.478 . S
C184 C185 1.397 1_554 S
C184 C201 1.394 . S
C185 C184 1.397 1_556 S
C185 C186 1.438 . S
C185 C190 1.429 . S
C186 C185 1.438 . S
C186 C187 1.428 . S
C186 C199 1.394 1_556 S
C187 H179 0.949 . S
C187 C186 1.428 . S
C187 C188 1.345 . S
C188 H180 0.950 . S
C188 C187 1.345 . S
C188 C189 1.424 . S
C189 H181 0.951 . S
C189 C188 1.424 . S
C189 C190 1.347 . S
C190 H182 0.951 . S
C190 C185 1.429 . S
C190 C189 1.347 . S
H191 C192 0.951 . S
C192 H191 0.951 . S
C192 C198 1.265 . S
H193 C198 0.950 . S
H194 C202 0.949 . S
H195 C203 0.950 . S
H196 C204 0.951 . S
H197 C205 0.951 . S
C198 C192 1.265 . S
C198 H193 0.950 . S
C198 C199 1.478 . S
C199 C186 1.394 1_554 S
C199 C198 1.478 . S
C199 C200 1.397 . S
C200 C199 1.397 . S
C200 C201 1.438 . S
C200 C205 1.429 . S
C201 C184 1.394 . S
C201 C200 1.438 . S
C201 C202 1.428 . S
C202 H194 0.949 . S
C202 C201 1.428 . S
C202 C203 1.345 . S
C203 H195 0.950 . S
C203 C202 1.345 . S
C203 C204 1.424 . S
C204 H196 0.951 . S
C204 C203 1.424 . S
C204 C205 1.347 . S
C205 H197 0.951 . S
C205 C200 1.429 . S
C205 C204 1.347 . S
H206 C207 0.951 . S
C207 H206 0.951 . S
C207 C213 1.265 . S
H208 C213 0.950 . S
H209 C217 0.949 . S
H210 C218 0.950 . S
H211 C219 0.951 . S
H212 C220 0.951 . S
C213 C207 1.265 . S
C213 H208 0.950 . S
C213 C214 1.478 . S
C214 C213 1.478 . S
C214 C215 1.397 . S
C214 C231 1.394 . S
C215 C214 1.397 . S
C215 C216 1.438 . S
C215 C220 1.429 . S
C216 C215 1.438 . S
C216 C217 1.428 1_565 S
C216 C229 1.394 . S
C217 H209 0.949 . S
C217 C216 1.428 1_545 S
C217 C218 1.345 . S
C218 H210 0.950 . S
C218 C217 1.345 . S
C218 C219 1.424 . S
C219 H211 0.951 . S
C219 C218 1.424 . S
C219 C220 1.347 1_545 S
C220 H212 0.951 . S
C220 C215 1.429 . S
C220 C219 1.347 1_565 S
H221 C222 0.951 . S
C222 H221 0.951 . S
C222 C228 1.265 . S
H223 C228 0.950 . S
H224 C232 0.949 . S
H225 C233 0.950 . S
H226 C234 0.951 . S
H227 C235 0.951 . S
C228 C222 1.265 . S
C228 H223 0.950 . S
C228 C229 1.478 . S
C229 C216 1.394 . S
C229 C228 1.478 . S
C229 C230 1.397 . S
C230 C229 1.397 . S
C230 C231 1.438 . S
C230 C235 1.429 . S
C231 C214 1.394 . S
C231 C230 1.438 . S
C231 C232 1.428 . S
C232 H224 0.949 . S
C232 C231 1.428 . S
C232 C233 1.345 . S
C233 H225 0.950 . S
C233 C232 1.345 . S
C233 C234 1.424 . S
C234 H226 0.951 . S
C234 C233 1.424 . S
C234 C235 1.347 . S
C235 H227 0.951 . S
C235 C230 1.429 . S
C235 C234 1.347 . S
H236 C237 0.951 . S
C237 H236 0.951 . S
C237 C243 1.265 . S
H238 C243 0.950 . S
H239 C247 0.949 . S
H240 C248 0.950 . S
H241 C249 0.951 . S
H242 C250 0.951 . S
C243 C237 1.265 . S
C243 H238 0.950 . S
C243 C244 1.478 . S
C244 C243 1.478 . S
C244 C245 1.397 . S
C244 C261 1.394 . S
C245 C244 1.397 . S
C245 C246 1.438 . S
C245 C250 1.429 . S
C246 C245 1.438 . S
C246 C247 1.428 . S
C246 C259 1.394 . S
C247 H239 0.949 . S
C247 C246 1.428 . S
C247 C248 1.345 . S
C248 H240 0.950 . S
C248 C247 1.345 . S
C248 C249 1.424 . S
C249 H241 0.951 . S
C249 C248 1.424 . S
C249 C250 1.347 . S
C250 H242 0.951 . S
C250 C245 1.429 . S
C250 C249 1.347 . S
H251 C252 0.951 . S
C252 H251 0.951 . S
C252 C258 1.265 . S
H253 C258 0.950 . S
H254 C262 0.949 . S
H255 C263 0.950 . S
H256 C264 0.951 . S
H257 C265 0.951 . S
C258 C252 1.265 . S
C258 H253 0.950 . S
C258 C259 1.478 . S
C259 C246 1.394 . S
C259 C258 1.478 . S
C259 C260 1.397 . S
C260 C259 1.397 . S
C260 C261 1.438 . S
C260 C265 1.429 . S
C261 C244 1.394 . S
C261 C260 1.438 . S
C261 C262 1.428 . S
C262 H254 0.949 . S
C262 C261 1.428 . S
C262 C263 1.345 . S
C263 H255 0.950 . S
C263 C262 1.345 . S
C263 C264 1.424 . S
C264 H256 0.951 . S
C264 C263 1.424 . S
C264 C265 1.347 . S
C265 H257 0.951 . S
C265 C260 1.429 . S
C265 C264 1.347 . S
H266 C267 0.951 . S
C267 H266 0.951 . S
C267 C273 1.265 . S
H268 C273 0.950 . S
H269 C277 0.949 . S
H270 C278 0.950 . S
H271 C279 0.951 . S
H272 C280 0.951 . S
C273 C267 1.265 . S
C273 H268 0.950 . S
C273 C274 1.478 . S
C274 C273 1.478 . S
C274 C275 1.397 . S
C274 C291 1.394 . S
C275 C274 1.397 . S
C275 C276 1.438 . S
C275 C280 1.429 . S
C276 C275 1.438 . S
C276 C277 1.428 . S
C276 C289 1.394 . S
C277 H269 0.949 . S
C277 C276 1.428 . S
C277 C278 1.345 . S
C278 H270 0.950 . S
C278 C277 1.345 . S
C278 C279 1.424 . S
C279 H271 0.951 . S
C279 C278 1.424 . S
C279 C280 1.347 . S
C280 H272 0.951 . S
C280 C275 1.429 . S
C280 C279 1.347 . S
H281 C282 0.951 . S
C282 H281 0.951 . S
C282 C288 1.265 . S
H283 C288 0.950 . S
H284 C292 0.949 . S
H285 C293 0.950 . S
H286 C294 0.951 . S
H287 C295 0.951 . S
C288 C282 1.265 . S
C288 H283 0.950 . S
C288 C289 1.478 . S
C289 C276 1.394 . S
C289 C288 1.478 . S
C289 C290 1.397 . S
C290 C289 1.397 . S
C290 C291 1.438 . S
C290 C295 1.429 . S
C291 C274 1.394 . S
C291 C290 1.438 . S
C291 C292 1.428 . S
C292 H284 0.949 . S
C292 C291 1.428 . S
C292 C293 1.345 . S
C293 H285 0.950 . S
C293 C292 1.345 . S
C293 C294 1.424 . S
C294 H286 0.951 . S
C294 C293 1.424 . S
C294 C295 1.347 . S
C295 H287 0.951 . S
C295 C290 1.429 . S
C295 C294 1.347 . S
H296 C297 0.951 . S
C297 H296 0.951 . S
C297 C303 1.265 . S
H298 C303 0.950 . S
H299 C307 0.949 . S
H300 C308 0.950 . S
H301 C309 0.951 . S
H302 C310 0.951 . S
C303 C297 1.265 . S
C303 H298 0.950 . S
C303 C304 1.478 . S
C304 C303 1.478 . S
C304 C305 1.397 . S
C304 C321 1.394 . S
C305 C304 1.397 . S
C305 C306 1.438 . S
C305 C310 1.429 . S
C306 C305 1.438 . S
C306 C307 1.428 . S
C306 C319 1.394 . S
C307 H299 0.949 . S
C307 C306 1.428 . S
C307 C308 1.345 . S
C308 H300 0.950 . S
C308 C307 1.345 . S
C308 C309 1.424 . S
C309 H301 0.951 . S
C309 C308 1.424 . S
C309 C310 1.347 . S
C310 H302 0.951 . S
C310 C305 1.429 . S
C310 C309 1.347 . S
H311 C312 0.951 . S
C312 H311 0.951 . S
C312 C318 1.265 . S
H313 C318 0.950 . S
H314 C322 0.949 . S
H315 C323 0.950 . S
H316 C324 0.951 . S
H317 C325 0.951 . S
C318 C312 1.265 . S
C318 H313 0.950 . S
C318 C319 1.478 . S
C319 C306 1.394 . S
C319 C318 1.478 . S
C319 C320 1.397 . S
C320 C319 1.397 . S
C320 C321 1.438 . S
C320 C325 1.429 . S
C321 C304 1.394 . S
C321 C320 1.438 . S
C321 C322 1.428 . S
C322 H314 0.949 . S
C322 C321 1.428 . S
C322 C323 1.345 . S
C323 H315 0.950 . S
C323 C322 1.345 . S
C323 C324 1.424 . S
C324 H316 0.951 . S
C324 C323 1.424 . S
C324 C325 1.347 . S
C325 H317 0.951 . S
C325 C320 1.429 . S
C325 C324 1.347 . S
H326 C327 0.951 . S
C327 H326 0.951 . S
C327 C333 1.265 . S
H328 C333 0.950 . S
H329 C337 0.949 . S
H330 C338 0.950 . S
H331 C339 0.951 . S
H332 C340 0.951 . S
C333 C327 1.265 . S
C333 H328 0.950 . S
C333 C334 1.478 . S
C334 C333 1.478 . S
C334 C335 1.397 . S
C334 C351 1.394 . S
C335 C334 1.397 . S
C335 C336 1.438 . S
C335 C340 1.429 . S
C336 C335 1.438 . S
C336 C337 1.428 . S
C336 C349 1.394 . S
C337 H329 0.949 . S
C337 C336 1.428 . S
C337 C338 1.345 . S
C338 H330 0.950 . S
C338 C337 1.345 . S
C338 C339 1.424 . S
C339 H331 0.951 . S
C339 C338 1.424 . S
C339 C340 1.347 . S
C340 H332 0.951 . S
C340 C335 1.429 . S
C340 C339 1.347 . S
H341 C342 0.951 . S
C342 H341 0.951 . S
C342 C348 1.265 . S
H343 C348 0.950 . S
H344 C352 0.949 . S
H345 C353 0.950 . S
H346 C354 0.951 . S
H347 C355 0.951 . S
C348 C342 1.265 . S
C348 H343 0.950 . S
C348 C349 1.478 . S
C349 C336 1.394 . S
C349 C348 1.478 . S
C349 C350 1.397 . S
C350 C349 1.397 . S
C350 C351 1.438 . S
C350 C355 1.429 . S
C351 C334 1.394 . S
C351 C350 1.438 . S
C351 C352 1.428 . S
C352 H344 0.949 . S
C352 C351 1.428 . S
C352 C353 1.345 . S
C353 H345 0.950 . S
C353 C352 1.345 . S
C353 C354 1.424 . S
C354 H346 0.951 . S
C354 C353 1.424 . S
C354 C355 1.347 . S
C355 H347 0.951 . S
C355 C350 1.429 . S
C355 C354 1.347 . S
H356 C357 0.951 . S
C357 H356 0.951 . S
C357 C363 1.265 . S
H358 C363 0.950 . S
H359 C367 0.949 . S
H360 C368 0.950 . S
H361 C369 0.951 . S
H362 C370 0.951 . S
C363 C357 1.265 . S
C363 H358 0.950 . S
C363 C364 1.478 . S
C364 C363 1.478 . S
C364 C365 1.397 . S
C364 C381 1.394 . S
C365 C364 1.397 . S
C365 C366 1.438 . S
C365 C370 1.429 . S
C366 C365 1.438 . S
C366 C367 1.428 . S
C366 C379 1.394 . S
C367 H359 0.949 . S
C367 C366 1.428 . S
C367 C368 1.345 . S
C368 H360 0.950 . S
C368 C367 1.345 . S
C368 C369 1.424 . S
C369 H361 0.951 . S
C369 C368 1.424 . S
C369 C370 1.347 . S
C370 H362 0.951 . S
C370 C365 1.429 . S
C370 C369 1.347 . S
H371 C372 0.951 . S
C372 H371 0.951 . S
C372 C378 1.265 . S
H373 C378 0.950 . S
H374 C382 0.949 . S
H375 C383 0.950 . S
H376 C384 0.951 . S
H377 C385 0.951 . S
C378 C372 1.265 . S
C378 H373 0.950 . S
C378 C379 1.478 . S
C379 C366 1.394 . S
C379 C378 1.478 . S
C379 C380 1.397 . S
C380 C379 1.397 . S
C380 C381 1.438 . S
C380 C385 1.429 . S
C381 C364 1.394 . S
C381 C380 1.438 . S
C381 C382 1.428 . S
C382 H374 0.949 . S
C382 C381 1.428 . S
C382 C383 1.345 . S
C383 H375 0.950 . S
C383 C382 1.345 . S
C383 C384 1.424 . S
C384 H376 0.951 . S
C384 C383 1.424 . S
C384 C385 1.347 . S
C385 H377 0.951 . S
C385 C380 1.429 . S
C385 C384 1.347 . S
H386 C387 0.951 . S
C387 H386 0.951 . S
C387 C393 1.265 . S
H388 C393 0.950 . S
H389 C397 0.949 . S
H390 C398 0.950 . S
H391 C399 0.951 . S
H392 C400 0.951 . S
C393 C387 1.265 . S
C393 H388 0.950 . S
C393 C394 1.478 . S
C394 C393 1.478 . S
C394 C395 1.397 . S
C394 C411 1.394 . S
C395 C394 1.397 . S
C395 C396 1.438 . S
C395 C400 1.429 . S
C396 C395 1.438 . S
C396 C397 1.428 . S
C396 C409 1.394 . S
C397 H389 0.949 . S
C397 C396 1.428 . S
C397 C398 1.345 . S
C398 H390 0.950 . S
C398 C397 1.345 . S
C398 C399 1.424 . S
C399 H391 0.951 . S
C399 C398 1.424 . S
C399 C400 1.347 . S
C400 H392 0.951 . S
C400 C395 1.429 . S
C400 C399 1.347 . S
H401 C402 0.951 . S
C402 H401 0.951 . S
C402 C408 1.265 . S
H403 C408 0.950 . S
H404 C412 0.949 . S
H405 C413 0.950 . S
H406 C414 0.951 . S
H407 C415 0.951 . S
C408 C402 1.265 . S
C408 H403 0.950 . S
C408 C409 1.478 . S
C409 C396 1.394 . S
C409 C408 1.478 . S
C409 C410 1.397 . S
C410 C409 1.397 . S
C410 C411 1.438 . S
C410 C415 1.429 . S
C411 C394 1.394 . S
C411 C410 1.438 . S
C411 C412 1.428 . S
C412 H404 0.949 . S
C412 C411 1.428 . S
C412 C413 1.345 . S
C413 H405 0.950 . S
C413 C412 1.345 . S
C413 C414 1.424 . S
C414 H406 0.951 . S
C414 C413 1.424 . S
C414 C415 1.347 . S
C415 H407 0.951 . S
C415 C410 1.429 . S
C415 C414 1.347 . S
H416 C417 0.951 . S
C417 H416 0.951 . S
C417 C423 1.265 . S
H418 C423 0.950 . S
H419 C427 0.949 1_545 S
H420 C428 0.950 . S
H421 C429 0.951 . S
H422 C430 0.951 . S
C423 C417 1.265 . S
C423 H418 0.950 . S
C423 C424 1.478 . S
C424 C423 1.478 . S
C424 C425 1.397 . S
C424 C441 1.394 . S
C425 C424 1.397 . S
C425 C426 1.438 . S
C425 C430 1.429 . S
C426 C425 1.438 . S
C426 C427 1.428 . S
C426 C439 1.394 . S
C427 H419 0.949 1_565 S
C427 C426 1.428 . S
C427 C428 1.345 1_565 S
C428 H420 0.950 . S
C428 C427 1.345 1_545 S
C428 C429 1.424 . S
C429 H421 0.951 . S
C429 C428 1.424 . S
C429 C430 1.347 1_545 S
C430 H422 0.951 . S
C430 C425 1.429 . S
C430 C429 1.347 1_565 S
H431 C432 0.951 . S
C432 H431 0.951 . S
C432 C438 1.265 . S
H433 C438 0.950 . S
H434 C442 0.949 . S
H435 C443 0.950 . S
H436 C444 0.951 . S
H437 C445 0.951 . S
C438 C432 1.265 . S
C438 H433 0.950 . S
C438 C439 1.478 . S
C439 C426 1.394 . S
C439 C438 1.478 . S
C439 C440 1.397 . S
C440 C439 1.397 . S
C440 C441 1.438 . S
C440 C445 1.429 . S
C441 C424 1.394 . S
C441 C440 1.438 . S
C441 C442 1.428 . S
C442 H434 0.949 . S
C442 C441 1.428 . S
C442 C443 1.345 . S
C443 H435 0.950 . S
C443 C442 1.345 . S
C443 C444 1.424 . S
C444 H436 0.951 . S
C444 C443 1.424 . S
C444 C445 1.347 . S
C445 H437 0.951 . S
C445 C440 1.429 . S
C445 C444 1.347 . S
C102 C59 1.221 . S
C87 C41 1.441 . S
C117 C8 1.420 . S
C132 C83 1.287 1_554 S
C147 C19 1.642 . S
C162 C62 1.395 . S
C177 C30 1.586 . S
C192 C80 1.358 . S
C222 C60 1.538 . S
C207 C5 1.414 . S
C252 C82 1.625 . S
C237 C18 1.670 . S
C267 C29 1.571 . S
C282 C61 1.582 . S
C297 C40 1.590 . S
C312 C81 1.530 . S
C342 C79 1.422 . S
C327 C16 1.228 . S
C372 C58 1.370 . S
C357 C27 1.369 . S
C402 C78 1.278 . S
C387 C38 1.166 . S
C417 C7 1.327 1_556 S
C432 C57 1.340 . S
