# Generated by pormake.
# Topology pth, (4,4)-cn, num edge types: 1
# Building blocks:
#     Node 0, Type 0, BuildingBlock: AZAVOO_clean_sbu_0, # of connection points: 4
#     Node 1, Type 0, BuildingBlock: AZAVOO_clean_sbu_0, # of connection points: 4
#     Node 2, Type 0, BuildingBlock: AZAVOO_clean_sbu_0, # of connection points: 4
#     Node 3, Type 1, BuildingBlock: KOZSID_clean_sbu_0, # of connection points: 4
#     Node 4, Type 1, BuildingBlock: KOZSID_clean_sbu_0, # of connection points: 4
#     Node 5, Type 1, BuildingBlock: KOZSID_clean_sbu_0, # of connection points: 4
#     Edge 6, Type (0, 1), BuildingBlock: XUDNAN_clean_linker_2, # of connection points: 2
#     Edge 7, Type (0, 1), BuildingBlock: XUDNAN_clean_linker_2, # of connection points: 2
#     Edge 8, Type (0, 1), BuildingBlock: XUDNAN_clean_linker_2, # of connection points: 2
#     Edge 9, Type (0, 1), BuildingBlock: XUDNAN_clean_linker_2, # of connection points: 2
#     Edge 10, Type (0, 1), BuildingBlock: XUDNAN_clean_linker_2, # of connection points: 2
#     Edge 11, Type (0, 1), BuildingBlock: XUDNAN_clean_linker_2, # of connection points: 2
#     Edge 12, Type (0, 1), BuildingBlock: XUDNAN_clean_linker_2, # of connection points: 2
#     Edge 13, Type (0, 1), BuildingBlock: XUDNAN_clean_linker_2, # of connection points: 2
#     Edge 14, Type (0, 1), BuildingBlock: XUDNAN_clean_linker_2, # of connection points: 2
#     Edge 15, Type (0, 1), BuildingBlock: XUDNAN_clean_linker_2, # of connection points: 2
#     Edge 16, Type (0, 1), BuildingBlock: XUDNAN_clean_linker_2, # of connection points: 2
#     Edge 17, Type (0, 1), BuildingBlock: XUDNAN_clean_linker_2, # of connection points: 2
# Relax obj value: 0.066
# Max RMSD: 0.216
# Mean RMSD: 0.106
data_MOF--net-pth--node1-AZAVOO_clean_sbu_0--node2-KOZSID_clean_sbu_0--edge1-XUDNAN_clean_linker_2
_symmetry_space_group_name_H-M    P1
_symmetry_Int_Tables_number       1
_symmetry_cell_setting            triclinic
loop_
_symmetry_equiv_pos_as_xyz
'x, y, z'
_cell_length_a     26.356514
_cell_length_b     26.918718
_cell_length_c     59.305703
_cell_angle_alpha  88.228683
_cell_angle_beta   89.978418
_cell_angle_gamma 122.14831
loop_
_atom_site_label
_atom_site_type_symbol
_atom_site_fract_x
_atom_site_fract_y
_atom_site_fract_z
_atom_type_partial_charge
Mg0 Mg 0.1098 0.08851 0.04872 0.0
O1 O 0.04428 0.02208 0.02389 0.0
O2 O 0.02608 0.06788 0.99609 0.0
Mg3 Mg 0.08686 0.16676 0.00224 0.0
C4 C 0.01771 0.02113 0.00582 0.0
C5 C 0.0701 0.01133 0.09471 0.0
O6 O 0.07364 0.05802 0.10272 0.0
O7 O 0.04139 0.10785 0.06299 0.0
O8 O 0.03432 0.15982 0.0343 0.0
O9 O 0.18551 0.09721 0.02813 0.0
O10 O 0.14945 0.15451 0.02327 0.0
C11 C 0.02131 0.1382 0.05448 0.0
C12 C 0.18673 0.14025 0.0172 0.0
O13 O 0.08204 0.01135 0.07392 0.0
Mg14 Mg 0.03664 0.09728 0.35407 0.0
O15 O 0.11342 0.11806 0.37907 0.0
O16 O 0.12954 0.18801 0.40281 0.0
Mg17 Mg 0.09105 0.23455 0.38311 0.0
C18 C 0.13839 0.14823 0.39645 0.0
C19 C 0.03376 0.98011 0.35044 0.0
O20 O 0.01591 0.97576 0.3715 0.0
O21 O 0.09721 0.16788 0.32663 0.0
O22 O 0.13982 0.22041 0.3554 0.0
O23 O 0.96605 0.05585 0.38231 0.0
O24 O 0.01253 0.14943 0.37203 0.0
C25 C 0.12628 0.21855 0.33488 0.0
C26 C 0.97227 0.10652 0.38442 0.0
O27 O 0.04674 0.02571 0.33859 0.0
Mg28 Mg 0.0448 1.00102 0.69644 0.0
O29 O 0.11866 0.0774 0.71592 0.0
O30 O 0.07476 0.10018 0.74236 0.0
Mg31 Mg 0.97282 0.03377 0.74155 0.0
C32 C 0.12169 0.10896 0.73212 0.0
C33 C 0.16066 0.02379 0.67045 0.0
O34 O 0.17447 0.01464 0.69079 0.0
O35 O 0.01814 0.0608 0.6796 0.0
O36 O 0.9636 0.06837 0.70666 0.0
O37 O 0.04513 0.93397 0.7201 0.0
O38 O 0.98969 0.97189 0.72505 0.0
C39 C 0.98331 0.07705 0.68631 0.0
C40 C 0.00695 0.938 0.73239 0.0
O41 O 0.11122 0.02062 0.66759 0.0
C42 C 0.06956 0.65926 0.17035 0.0
C43 C 0.1198 0.70047 0.15775 0.0
C44 C 0.16254 0.68674 0.16112 0.0
C45 C 0.13621 0.63835 0.17563 0.0
N46 N 0.07968 0.62091 0.18151 0.0
Co47 Co 0.02588 0.55485 0.20265 0.0
N48 N 0.09448 0.55518 0.21646 0.0
C49 C 0.14991 0.58026 0.20722 0.0
C50 C 0.18785 0.57173 0.22019 0.0
C51 C 0.15403 0.53855 0.23859 0.0
C52 C 0.09695 0.5286 0.23582 0.0
N53 N 0.9715 0.48807 0.22352 0.0
C54 C 0.9841 0.46669 0.24222 0.0
C55 C 0.93236 0.418 0.25144 0.0
C56 C 0.88624 0.40794 0.23767 0.0
C57 C 0.9121 0.45101 0.22091 0.0
N58 N 0.95793 0.5553 0.18869 0.0
C59 C 0.90013 0.51114 0.18946 0.0
C60 C 0.86348 0.5259 0.17868 0.0
C61 C 0.90082 0.5829 0.17074 0.0
C62 C 0.95815 0.5996 0.17719 0.0
N63 N 0.01899 0.49863 0.18071 0.0
C64 C 0.99984 0.41204 0.15055 0.0
C65 C 0.99952 0.46198 0.14312 0.0
C66 C 0.00903 0.5046 0.15845 0.0
C67 C 0.01125 0.40742 0.17333 0.0
C68 C 0.0212 0.45109 0.18796 0.0
N69 N 0.0319 0.61021 0.22473 0.0
C70 C 0.98363 0.63622 0.25224 0.0
C71 C 0.03826 0.68715 0.25692 0.0
C72 C 0.08973 0.69952 0.24491 0.0
C73 C 0.0857 0.66007 0.22903 0.0
C74 C 0.9813 0.59879 0.23599 0.0
H75 H 0.12605 0.66967 0.22032 0.0
H76 H 0.93835 0.56035 0.23263 0.0
H77 H 0.00757 0.54203 0.15238 0.0
H78 H 0.02935 0.44539 0.20532 0.0
C79 C 0.16641 0.61682 0.18778 0.0
C80 C 0.01246 0.65628 0.17125 0.0
C81 C 0.04483 0.48726 0.25016 0.0
C82 C 0.88136 0.46266 0.20433 0.0
H83 H 0.12558 0.73711 0.14749 0.0
H84 H 0.20843 0.71135 0.15487 0.0
H85 H 0.23468 0.58822 0.21684 0.0
H86 H 0.16929 0.52202 0.2521 0.0
H87 H 0.92853 0.39171 0.26628 0.0
H88 H 0.83933 0.37399 0.23989 0.0
H89 H 0.81511 0.49965 0.17776 0.0
H90 H 0.88754 0.60924 0.16141 0.0
H91 H 0.99208 0.46833 0.1256 0.0
H92 H 0.01116 0.36956 0.18011 0.0
H93 H 0.94279 0.62548 0.26105 0.0
H94 H 0.13283 0.7385 0.24817 0.0
C95 C 0.46659 0.0312 0.55564 0.0
C96 C 0.42253 0.97599 0.56411 0.0
C97 C 0.4352 0.93695 0.55557 0.0
C98 C 0.486 0.97039 0.5424 0.0
N99 N 0.5061 0.02799 0.54218 0.0
Co100 Co 0.57714 0.0917 0.52518 0.0
N101 N 0.57883 0.03493 0.50496 0.0
C102 C 0.54851 0.97616 0.50841 0.0
C103 C 0.55693 0.9479 0.49134 0.0
C104 C 0.59589 0.99157 0.47639 0.0
C105 C 0.60988 0.0444 0.48539 0.0
N106 N 0.64919 0.15579 0.5086 0.0
C107 C 0.67655 0.15488 0.48937 0.0
C108 C 0.72944 0.20882 0.48514 0.0
C109 C 0.73549 0.24414 0.50234 0.0
C110 C 0.68649 0.21017 0.5162 0.0
N111 N 0.57464 0.14803 0.5453 0.0
C112 C 0.61983 0.20315 0.54895 0.0
C113 C 0.60423 0.23147 0.56368 0.0
C114 C 0.54551 0.19146 0.56969 0.0
C115 C 0.52875 0.14099 0.5582 0.0
N116 N 0.63019 0.084 0.5462 0.0
C117 C 0.71851 0.09403 0.5755 0.0
C118 C 0.66709 0.09107 0.58388 0.0
C119 C 0.62317 0.08529 0.56899 0.0
C120 C 0.72222 0.08748 0.55233 0.0
C121 C 0.67813 0.08296 0.53805 0.0
N122 N 0.52466 0.10045 0.50425 0.0
C123 C 0.50003 0.16381 0.48427 0.0
C124 C 0.44825 0.11535 0.47578 0.0
C125 C 0.43542 0.05903 0.48197 0.0
C126 C 0.47435 0.05255 0.49611 0.0
C127 C 0.5374 0.15547 0.49837 0.0
H128 H 0.46358 0.0088 0.50054 0.0
H129 H 0.57641 0.19379 0.50472 0.0
H130 H 0.58477 0.08439 0.57585 0.0
H131 H 0.68443 0.08087 0.52029 0.0
C132 C 0.50794 0.94877 0.52654 0.0
C133 C 0.47069 0.0859 0.56101 0.0
C134 C 0.65853 0.10216 0.47652 0.0
C135 C 0.67162 0.22934 0.53534 0.0
H136 H 0.38477 0.96497 0.57503 0.0
H137 H 0.40853 0.88958 0.55766 0.0
H138 H 0.53654 0.9011 0.48976 0.0
H139 H 0.61339 0.98524 0.46098 0.0
H140 H 0.76179 0.22106 0.47155 0.0
H141 H 0.77144 0.2892 0.50449 0.0
H142 H 0.6314 0.27651 0.56874 0.0
H143 H 0.51824 0.19846 0.58122 0.0
H144 H 0.66166 0.09546 0.60166 0.0
H145 H 0.75962 0.08701 0.54504 0.0
H146 H 0.5114 0.20817 0.4803 0.0
H147 H 0.39616 0.02031 0.47568 0.0
C148 C 0.72298 0.58036 0.84419 0.0
C149 C 0.76794 0.57117 0.83775 0.0
C150 C 0.75047 0.51571 0.84544 0.0
C151 C 0.69645 0.49442 0.85635 0.0
N152 N 0.67873 0.53298 0.85597 0.0
Co153 Co 0.60633 0.52253 0.87127 0.0
N154 N 0.59666 0.45655 0.89087 0.0
C155 C 0.62482 0.42748 0.88799 0.0
C156 C 0.61153 0.38572 0.90468 0.0
C157 C 0.57134 0.38747 0.91868 0.0
C158 C 0.56154 0.42974 0.90949 0.0
N159 N 0.53387 0.51246 0.88653 0.0
C160 C 0.50157 0.47827 0.90478 0.0
C161 C 0.45144 0.4817 0.90851 0.0
C162 C 0.45177 0.51813 0.89185 0.0
C163 C 0.50175 0.53495 0.87886 0.0
N164 N 0.61615 0.588 0.85146 0.0
C165 C 0.57394 0.60035 0.84698 0.0
C166 C 0.59413 0.64845 0.83259 0.0
C167 C 0.6528 0.66755 0.82778 0.0
C168 C 0.66507 0.63002 0.83967 0.0
N169 N 0.55515 0.46657 0.84866 0.0
C170 C 0.47564 0.39203 0.81625 0.0
C171 C 0.46273 0.37851 0.83934 0.0
C172 C 0.50288 0.41606 0.85515 0.0
C173 C 0.53058 0.44256 0.80973 0.0
C174 C 0.5697 0.47909 0.82617 0.0
N175 N 0.65769 0.57911 0.89367 0.0
C176 C 0.69653 0.67246 0.91081 0.0
C177 C 0.74177 0.66807 0.92143 0.0
C178 C 0.7412 0.61605 0.91865 0.0
C179 C 0.70004 0.57315 0.90443 0.0
C180 C 0.65441 0.62717 0.8975 0.0
H181 H 0.70367 0.5358 0.90179 0.0
H182 H 0.62047 0.63219 0.88966 0.0
H183 H 0.4907 0.40444 0.87264 0.0
H184 H 0.61109 0.51826 0.82065 0.0
C185 C 0.66896 0.44554 0.8712 0.0
C186 C 0.72245 0.63358 0.83859 0.0
C187 C 0.51108 0.43492 0.9165 0.0
C188 C 0.52115 0.57363 0.85999 0.0
H189 H 0.80966 0.60147 0.8289 0.0
H190 H 0.77614 0.49506 0.84452 0.0
H191 H 0.6295 0.35787 0.90663 0.0
H192 H 0.54951 0.35893 0.93341 0.0
H193 H 0.41655 0.45834 0.92127 0.0
H194 H 0.41899 0.53024 0.88934 0.0
H195 H 0.57012 0.66898 0.82714 0.0
H196 H 0.68312 0.70494 0.8169 0.0
H197 H 0.42163 0.33917 0.84524 0.0
H198 H 0.54258 0.45481 0.79207 0.0
H199 H 0.69413 0.71115 0.91203 0.0
H200 H 0.77275 0.60815 0.92707 0.0
H201 H 0.05154 0.17349 0.09745 0.0
H202 H 0.93278 0.15834 0.04394 0.0
H203 H 0.90603 0.21952 0.0649 0.0
H204 H 0.96548 0.18368 0.14613 0.0
H205 H 0.03392 0.2379 0.15915 0.0
H206 H 0.0326 0.18218 0.1426 0.0
H207 H 0.12068 0.2634 0.11792 0.0
H208 H 0.12155 0.31931 0.13402 0.0
H209 H 0.11296 0.31934 0.10387 0.0
H210 H 0.90331 0.29345 0.08905 0.0
H211 H 0.9223 0.37148 0.11488 0.0
H212 H 0.0502 0.34472 0.15063 0.0
C213 C 0.01759 0.18057 0.09073 0.0
C214 C 0.99296 0.15999 0.06938 0.0
C215 C 0.95109 0.17273 0.06051 0.0
C216 C 0.93585 0.20761 0.07227 0.0
C217 C 0.96333 0.22984 0.09276 0.0
C218 C 0.003 0.21643 0.10202 0.0
C219 C 0.03237 0.25189 0.12266 0.0
C220 C 0.01503 0.2115 0.14389 0.0
C221 C 0.10092 0.29077 0.1194 0.0
C222 C 0.00437 0.28849 0.1232 0.0
C223 C 0.96396 0.27452 0.10607 0.0
C224 C 0.93446 0.30434 0.10267 0.0
C225 C 0.94619 0.34923 0.11728 0.0
C226 C 0.9878 0.36462 0.13492 0.0
C227 C 0.01714 0.33354 0.13773 0.0
H228 H 0.9071 0.05005 0.42393 0.0
H229 H 0.93465 0.17821 0.37128 0.0
H230 H 0.85429 0.18671 0.38795 0.0
H231 H 0.74708 0.97865 0.43042 0.0
H232 H 0.74607 0.97154 0.46076 0.0
H233 H 0.80457 0.97296 0.44445 0.0
H234 H 0.88519 0.06055 0.46692 0.0
H235 H 0.82693 0.05884 0.48348 0.0
H236 H 0.88214 0.12568 0.46859 0.0
H237 H 0.76708 0.17743 0.40861 0.0
H238 H 0.68886 0.16279 0.43602 0.0
H239 H 0.72497 0.0507 0.47797 0.0
C240 C 0.89619 0.07995 0.41604 0.0
C241 C 0.92698 0.11329 0.39627 0.0
C242 C 0.91194 0.15247 0.38651 0.0
C243 C 0.866 0.15733 0.39574 0.0
C244 C 0.83609 0.12367 0.41506 0.0
C245 C 0.85136 0.08681 0.42548 0.0
C246 C 0.81427 0.05864 0.44697 0.0
C247 C 0.77572 0.99146 0.44555 0.0
C248 C 0.85454 0.07705 0.46772 0.0
C249 C 0.77566 0.085 0.44674 0.0
C250 C 0.78823 0.12147 0.42792 0.0
C251 C 0.75717 0.14942 0.42355 0.0
C252 C 0.71278 0.14076 0.43909 0.0
C253 C 0.70086 0.10555 0.45894 0.0
C254 C 0.73274 0.0773 0.46275 0.0
H255 H 0.95199 0.81991 0.73761 0.0
H256 H 0.99761 0.97591 0.7733 0.0
H257 H 0.93767 0.91404 0.8065 0.0
H258 H 0.80277 0.74237 0.75445 0.0
H259 H 0.7941 0.67129 0.75657 0.0
H260 H 0.84965 0.72731 0.73756 0.0
H261 H 0.9324 0.71764 0.75684 0.0
H262 H 0.87691 0.66118 0.77587 0.0
H263 H 0.94155 0.72523 0.78691 0.0
H264 H 0.8654 0.83477 0.83436 0.0
H265 H 0.78304 0.74463 0.85387 0.0
H266 H 0.77716 0.64157 0.79813 0.0
C267 C 0.95112 0.84085 0.75278 0.0
C268 C 0.98047 0.90242 0.75331 0.0
C269 C 0.97614 0.92868 0.7729 0.0
C270 C 0.9423 0.89391 0.79177 0.0
C271 C 0.91233 0.83301 0.79055 0.0
C272 C 0.91618 0.80669 0.77149 0.0
C273 C 0.87359 0.74068 0.77325 0.0
C274 C 0.8273 0.71919 0.75434 0.0
C275 C 0.9082 0.70935 0.77322 0.0
C276 C 0.84452 0.73403 0.79607 0.0
C277 C 0.86827 0.7876 0.80601 0.0
C278 C 0.84705 0.79253 0.82686 0.0
C279 C 0.80038 0.74136 0.83778 0.0
C280 C 0.77519 0.68633 0.82772 0.0
C281 C 0.79723 0.68288 0.80653 0.0
H282 H 0.06027 0.90818 0.08358 0.0
H283 H 0.04303 0.99745 0.14004 0.0
H284 H 0.0187 0.91269 0.16536 0.0
H285 H 0.9397 0.76004 0.10117 0.0
H286 H 0.97951 0.72683 0.09163 0.0
H287 H 0.99214 0.79306 0.07771 0.0
H288 H 0.10603 0.84451 0.08489 0.0
H289 H 0.09373 0.77846 0.09875 0.0
H290 H 0.13135 0.84652 0.11328 0.0
H291 H 0.00219 0.82031 0.18503 0.0
H292 H 0.99668 0.72847 0.19725 0.0
H293 H 0.0224 0.69906 0.12797 0.0
C294 C 0.05085 0.9098 0.10122 0.0
C295 C 0.05351 0.95959 0.10979 0.0
C296 C 0.04121 0.95987 0.13304 0.0
C297 C 0.02719 0.91183 0.14756 0.0
C298 C 0.0253 0.86363 0.13858 0.0
C299 C 0.0367 0.86223 0.11593 0.0
C300 C 0.03416 0.80624 0.11066 0.0
C301 C 0.98334 0.76937 0.09432 0.0
C302 C 0.09493 0.81977 0.10135 0.0
C303 C 0.02057 0.77678 0.13394 0.0
C304 C 0.01528 0.81038 0.14983 0.0
C305 C 0.00564 0.79341 0.17269 0.0
C306 C 0.00242 0.74132 0.17949 0.0
C307 C 0.00907 0.70727 0.16349 0.0
C308 C 0.01693 0.72453 0.14042 0.0
H309 H 0.14122 0.07435 0.42938 0.0
H310 H 0.2527 0.22335 0.38388 0.0
H311 H 0.34315 0.22777 0.39798 0.0
H312 H 0.24246 0.12658 0.47599 0.0
H313 H 0.22715 0.05521 0.48497 0.0
H314 H 0.17054 0.06174 0.47071 0.0
H315 H 0.16272 0.99013 0.44072 0.0
H316 H 0.21951 0.98357 0.45487 0.0
H317 H 0.2292 0.0061 0.42544 0.0
H318 H 0.42102 0.21774 0.41694 0.0
H319 H 0.48377 0.19648 0.441 0.0
H320 H 0.32412 0.05516 0.47558 0.0
C321 C 0.1848 0.10757 0.42243 0.0
C322 C 0.19053 0.14859 0.40556 0.0
C323 C 0.24789 0.19174 0.39683 0.0
C324 C 0.29934 0.19444 0.40468 0.0
C325 C 0.29266 0.15368 0.42134 0.0
C326 C 0.23705 0.11116 0.43024 0.0
C327 C 0.24333 0.07414 0.44859 0.0
C328 C 0.21946 0.07978 0.47141 0.0
C329 C 0.21181 0.00966 0.442 0.0
C330 C 0.31101 0.1029 0.44865 0.0
C331 C 0.33829 0.14839 0.43265 0.0
C332 C 0.40026 0.18231 0.42958 0.0
C333 C 0.43556 0.17007 0.44344 0.0
C334 C 0.40907 0.12448 0.46033 0.0
C335 C 0.34575 0.08997 0.46271 0.0
H336 H 0.14799 0.17608 0.76947 0.0
H337 H 0.23155 0.14613 0.71275 0.0
H338 H 0.33136 0.21873 0.72703 0.0
H339 H 0.25769 0.33338 0.77287 0.0
H340 H 0.25428 0.33104 0.80327 0.0
H341 H 0.18953 0.27961 0.78772 0.0
H342 H 0.18538 0.1932 0.81007 0.0
H343 H 0.25025 0.2443 0.8256 0.0
H344 H 0.25058 0.18762 0.81032 0.0
H345 H 0.42263 0.29156 0.74864 0.0
H346 H 0.49722 0.35771 0.77598 0.0
H347 H 0.3535 0.33989 0.81823 0.0
C348 C 0.18716 0.18524 0.75984 0.0
C349 C 0.18167 0.15537 0.73991 0.0
C350 C 0.23437 0.1684 0.72803 0.0
C351 C 0.29137 0.20968 0.736 0.0
C352 C 0.29509 0.2377 0.75586 0.0
C353 C 0.24436 0.22613 0.76758 0.0
C354 C 0.26051 0.2604 0.78895 0.0
C355 C 0.23924 0.30368 0.78814 0.0
C356 C 0.23518 0.21889 0.80997 0.0
C357 C 0.32819 0.29239 0.78759 0.0
C358 C 0.3474 0.27912 0.76832 0.0
C359 C 0.40809 0.30259 0.76371 0.0
C360 C 0.45016 0.34031 0.77929 0.0
C361 C 0.43134 0.35394 0.7993 0.0
C362 C 0.36944 0.32985 0.80326 0.0
H363 H 0.86984 0.05468 0.6856 0.0
H364 H 0.03813 0.14347 0.64778 0.0
H365 H 0.99018 0.16622 0.61667 0.0
H366 H 0.78187 0.98354 0.64001 0.0
H367 H 0.71848 0.9874 0.6486 0.0
H368 H 0.76797 0.98745 0.66947 0.0
H369 H 0.78663 0.08504 0.68457 0.0
H370 H 0.73667 0.08505 0.66383 0.0
H371 H 0.81225 0.14751 0.6654 0.0
H372 H 0.92219 0.17267 0.58877 0.0
H373 H 0.83913 0.15852 0.56517 0.0
H374 H 0.71282 0.05647 0.61994 0.0
C375 C 0.8971 0.08074 0.67111 0.0
C376 C 0.95801 0.09855 0.66924 0.0
C377 C 0.99164 0.13027 0.64962 0.0
C378 C 0.96479 0.14338 0.63192 0.0
C379 C 0.90414 0.12375 0.63404 0.0
C380 C 0.87064 0.09293 0.65311 0.0
C381 C 0.80488 0.0708 0.65013 0.0
C382 C 0.76605 0.00331 0.65217 0.0
C383 C 0.78389 0.09879 0.66698 0.0
C384 C 0.80637 0.09298 0.62622 0.0
C385 C 0.86418 0.12434 0.61742 0.0
C386 C 0.87673 0.14809 0.59548 0.0
C387 C 0.82894 0.1391 0.5821 0.0
C388 C 0.76889 0.10549 0.59046 0.0
C389 C 0.75794 0.08283 0.61299 0.0
H390 H 0.90308 0.96856 0.98932 0.0
H391 H 0.05444 0.9476 0.99652 0.0
H392 H 1.00074 0.85581 0.97567 0.0
H393 H 0.78996 0.81183 0.9982 0.0
H394 H 0.73838 0.81292 0.97855 0.0
H395 H 0.78921 0.87793 0.99351 0.0
H396 H 0.82963 0.93677 0.95548 0.0
H397 H 0.77919 0.87185 0.94041 0.0
H398 H 0.85856 0.9112 0.93425 0.0
H399 H 0.93508 0.77218 0.95132 0.0
H400 H 0.85673 0.6936 0.92937 0.0
H401 H 0.73987 0.75853 0.94283 0.0
C402 C 0.92457 0.94436 0.98649 0.0
C403 C 0.98293 0.96502 0.99433 0.0
C404 C 0.00966 0.93217 0.99065 0.0
C405 C 0.97965 0.88023 0.97876 0.0
C406 C 0.92229 0.86096 0.97115 0.0
C407 C 0.89435 0.89117 0.97524 0.0
C408 C 0.8313 0.85893 0.96605 0.0
C409 C 0.78444 0.83923 0.98522 0.0
C410 C 0.82429 0.89697 0.94797 0.0
C411 C 0.82886 0.80672 0.95577 0.0
C412 C 0.88216 0.8094 0.95868 0.0
C413 C 0.89239 0.76856 0.94948 0.0
C414 C 0.84673 0.72325 0.93718 0.0
C415 C 0.7902 0.71753 0.93459 0.0
C416 C 0.78179 0.7605 0.94416 0.0
H417 H 0.07204 0.97512 0.30764 0.0
H418 H 0.99996 0.87415 0.37073 0.0
H419 H 0.99887 0.79079 0.35418 0.0
H420 H 0.98677 0.85744 0.27123 0.0
H421 H 0.04611 0.88096 0.25054 0.0
H422 H 0.04427 0.93418 0.26759 0.0
H423 H 0.15175 0.97075 0.28103 0.0
H424 H 0.15391 0.91757 0.264 0.0
H425 H 0.16781 0.91907 0.2938 0.0
H426 H 0.99862 0.71602 0.3303 0.0
H427 H 0.00227 0.65533 0.30066 0.0
H428 H 0.07784 0.80453 0.25324 0.0
C429 C 0.05653 0.93567 0.31804 0.0
C430 C 0.03604 0.93131 0.34053 0.0
C431 C 0.01595 0.87876 0.35351 0.0
C432 C 0.01519 0.83108 0.34426 0.0
C433 C 0.03514 0.83662 0.32204 0.0
C434 C 0.05581 0.88762 0.3091 0.0
C435 C 0.07341 0.88134 0.28546 0.0
C436 C 0.03536 0.88892 0.26766 0.0
C437 C 0.14073 0.92477 0.28081 0.0
C438 C 0.05838 0.81852 0.28705 0.0
C439 C 0.03639 0.79365 0.30834 0.0
C440 C 0.01645 0.7352 0.31366 0.0
C441 C 0.01857 0.70108 0.29675 0.0
C442 C 0.04086 0.72553 0.27484 0.0
C443 C 0.06167 0.78521 0.27001 0.0
H444 H 0.26628 0.02634 0.67001 0.0
H445 H 0.14889 0.05272 0.62687 0.0
H446 H 0.21749 0.07528 0.59443 0.0
H447 H 0.40646 0.14154 0.64432 0.0
H448 H 0.44179 0.09991 0.64706 0.0
H449 H 0.38433 0.08746 0.66705 0.0
H450 H 0.32363 0.97688 0.65824 0.0
H451 H 0.38095 0.989 0.63826 0.0
H452 H 0.30442 0.95545 0.62946 0.0
H453 H 0.29794 0.09277 0.56636 0.0
H454 H 0.3836 0.10183 0.54488 0.0
H455 H 0.44786 0.06418 0.60624 0.0
C456 C 0.25507 0.03712 0.65378 0.0
C457 C 0.20216 0.0378 0.65102 0.0
C458 C 0.1891 0.05186 0.62943 0.0
C459 C 0.22786 0.06487 0.61089 0.0
C460 C 0.27953 0.06367 0.61419 0.0
C461 C 0.29316 0.05008 0.63509 0.0
C462 C 0.35074 0.05036 0.63402 0.0
C463 C 0.39866 0.09764 0.649 0.0
C464 C 0.33922 0.98929 0.64037 0.0
C465 C 0.36722 0.06596 0.60924 0.0
C466 C 0.32571 0.07367 0.59808 0.0
C467 C 0.33084 0.08709 0.57495 0.0
C468 C 0.3794 0.09222 0.5629 0.0
C469 C 0.4217 0.08381 0.57407 0.0
C470 C 0.41588 0.07106 0.5975 0.0
H471 H 0.26081 0.25849 0.01366 0.0
H472 H 0.21375 0.0984 0.98068 0.0
H473 H 0.28917 0.15719 0.95032 0.0
H474 H 0.29256 0.35259 0.96418 0.0
H475 H 0.35635 0.41559 0.97616 0.0
H476 H 0.29597 0.36137 0.99427 0.0
H477 H 0.37114 0.34733 0.01741 0.0
H478 H 0.43175 0.40164 0.99943 0.0
H479 H 0.4193 0.32922 0.00311 0.0
H480 H 0.3659 0.23419 0.92287 0.0
H481 H 0.44867 0.322 0.90284 0.0
H482 H 0.4554 0.43098 0.95652 0.0
C483 C 0.26619 0.23604 0.99989 0.0
C484 C 0.23123 0.17425 0.99912 0.0
C485 C 0.24013 0.14584 0.98132 0.0
C486 C 0.28257 0.17885 0.96406 0.0
C487 C 0.3165 0.23992 0.96529 0.0
C488 C 0.30962 0.26817 0.98299 0.0
C489 C 0.35472 0.33382 0.98123 0.0
C490 C 0.32298 0.36783 0.97881 0.0
C491 C 0.39672 0.35418 0.0015 0.0
C492 C 0.38783 0.33829 0.95966 0.0
C493 C 0.36424 0.28374 0.95052 0.0
C494 C 0.38539 0.27692 0.93008 0.0
C495 C 0.43245 0.32698 0.91887 0.0
C496 C 0.45912 0.38297 0.92841 0.0
C497 C 0.43621 0.3886 0.94902 0.0
H498 H 0.07338 0.22074 0.29483 0.0
H499 H 0.16451 0.32474 0.35281 0.0
H500 H 0.1478 0.40171 0.33865 0.0
H501 H 0.13304 0.34353 0.25459 0.0
H502 H 0.06491 0.31241 0.23882 0.0
H503 H 0.08338 0.26494 0.25372 0.0
H504 H 0.98089 0.21405 0.27502 0.0
H505 H 0.96254 0.26201 0.2604 0.0
H506 H 0.96107 0.2577 0.29081 0.0
H507 H 0.12081 0.46756 0.31855 0.0
H508 H 0.09233 0.52103 0.29181 0.0
H509 H 0.02094 0.3761 0.2467 0.0
C510 C 0.08998 0.25974 0.30452 0.0
C511 C 0.11967 0.26621 0.3251 0.0
C512 C 0.14111 0.31832 0.33712 0.0
C513 C 0.13175 0.36236 0.32925 0.0
C514 C 0.10126 0.35408 0.30921 0.0
C515 C 0.08131 0.30447 0.29684 0.0
C516 C 0.05132 0.3074 0.27547 0.0
C517 C 0.0852 0.30707 0.25441 0.0
C518 C 0.98502 0.25731 0.27544 0.0
C519 C 0.05769 0.36637 0.27781 0.0
C520 C 0.08618 0.39238 0.29749 0.0
C521 C 0.09816 0.44753 0.30314 0.0
C522 C 0.08161 0.47739 0.28802 0.0
C523 C 0.05354 0.45193 0.26761 0.0
C524 C 0.04109 0.39564 0.26253 0.0
loop_
_geom_bond_atom_site_label_1
_geom_bond_atom_site_label_2
_geom_bond_distance
_geom_bond_site_symmetry_2
_ccdc_geom_bond_type
Mg0 O1 2.028 . S
Mg0 O7 1.986 . S
Mg0 O9 2.114 . S
Mg0 O10 2.251 . S
Mg0 O13 2.010 . S
O1 Mg0 2.028 . S
O1 C4 1.250 . S
O2 Mg3 2.028 . S
O2 C4 1.248 . S
Mg3 O2 2.028 . S
Mg3 O8 2.032 . S
Mg3 O10 2.079 . S
C4 O1 1.250 . S
C4 O2 1.248 . S
C5 O6 1.264 1_565 S
C5 O13 1.249 1_565 S
O6 C5 1.264 1_545 S
O7 Mg0 1.986 . S
O7 C11 1.246 . S
O8 Mg3 2.032 . S
O8 C11 1.259 . S
O9 Mg0 2.114 . S
O9 C12 1.252 . S
O10 Mg0 2.251 . S
O10 Mg3 2.079 . S
O10 C12 1.273 . S
C11 O7 1.246 . S
C11 O8 1.259 . S
C12 O9 1.252 . S
C12 O10 1.273 . S
O13 Mg0 2.010 . S
O13 C5 1.249 1_545 S
Mg14 O15 2.028 1_655 S
Mg14 O21 1.986 1_655 S
Mg14 O23 2.114 . S
Mg14 O24 2.251 . S
Mg14 O27 2.010 1_545 S
O15 Mg14 2.028 1_455 S
O15 C18 1.250 . S
O16 Mg17 2.028 . S
O16 C18 1.248 . S
Mg17 O16 2.028 . S
Mg17 O22 2.032 . S
Mg17 O24 2.079 1_455 S
C18 O15 1.250 . S
C18 O16 1.248 . S
C19 O20 1.264 . S
C19 O27 1.249 . S
O20 C19 1.264 . S
O21 Mg14 1.986 1_455 S
O21 C25 1.246 . S
O22 Mg17 2.032 . S
O22 C25 1.259 . S
O23 Mg14 2.114 . S
O23 C26 1.252 . S
O24 Mg14 2.251 . S
O24 Mg17 2.079 1_655 S
O24 C26 1.273 . S
C25 O21 1.246 . S
C25 O22 1.259 . S
C26 O23 1.252 . S
C26 O24 1.273 . S
O27 Mg14 2.010 1_565 S
O27 C19 1.249 . S
Mg28 O29 2.028 . S
Mg28 O35 1.986 . S
Mg28 O37 2.114 1_545 S
Mg28 O38 2.251 1_445 S
Mg28 O41 2.010 . S
O29 Mg28 2.028 . S
O29 C32 1.250 . S
O30 Mg31 2.028 1_455 S
O30 C32 1.248 . S
Mg31 O30 2.028 1_655 S
Mg31 O36 2.032 . S
Mg31 O38 2.079 1_545 S
C32 O29 1.250 . S
C32 O30 1.248 . S
C33 O34 1.264 . S
C33 O41 1.249 1_565 S
O34 C33 1.264 . S
O35 Mg28 1.986 . S
O35 C39 1.246 1_455 S
O36 Mg31 2.032 . S
O36 C39 1.259 . S
O37 Mg28 2.114 1_565 S
O37 C40 1.261 . S
O38 Mg28 2.251 1_665 S
O38 Mg31 2.079 1_565 S
O38 C40 1.266 1_655 S
C39 O35 1.246 1_655 S
C39 O36 1.259 . S
C40 O37 1.261 . S
C40 O38 1.266 1_455 S
O41 Mg28 2.010 . S
O41 C33 1.249 1_545 S
C42 C43 1.443 . S
C42 N46 1.376 . S
C42 C80 1.389 . S
C43 C42 1.443 . S
C43 C44 1.340 . S
C43 H83 0.951 . S
C44 C43 1.340 . S
C44 C45 1.439 . S
C44 H84 0.950 . S
C45 C44 1.439 . S
C45 N46 1.374 . S
C45 C79 1.395 . S
N46 C42 1.376 . S
N46 C45 1.374 . S
N46 Co47 2.008 . S
Co47 N46 2.008 . S
Co47 N48 1.995 . S
Co47 N53 2.008 1_455 S
Co47 N58 1.995 1_455 S
Co47 N63 2.282 . S
Co47 N69 2.282 . S
N48 Co47 1.995 . S
N48 C49 1.376 . S
N48 C52 1.383 . S
C49 N48 1.376 . S
C49 C50 1.446 . S
C49 C79 1.391 . S
C50 C49 1.446 . S
C50 C51 1.339 . S
C50 H85 0.949 . S
C51 C50 1.339 . S
C51 C52 1.439 . S
C51 H86 0.950 . S
C52 N48 1.383 . S
C52 C51 1.439 . S
C52 C81 1.392 . S
N53 Co47 2.008 1_655 S
N53 C54 1.376 . S
N53 C57 1.374 . S
C54 N53 1.376 . S
C54 C55 1.443 . S
C54 C81 1.389 1_655 S
C55 C54 1.443 . S
C55 C56 1.340 . S
C55 H87 0.951 . S
C56 C55 1.340 . S
C56 C57 1.439 . S
C56 H88 0.950 . S
C57 N53 1.374 . S
C57 C56 1.439 . S
C57 C82 1.395 . S
N58 Co47 1.995 1_655 S
N58 C59 1.376 . S
N58 C62 1.383 . S
C59 N58 1.376 . S
C59 C60 1.446 . S
C59 C82 1.391 . S
C60 C59 1.446 . S
C60 C61 1.339 . S
C60 H89 0.949 . S
C61 C60 1.339 . S
C61 C62 1.439 . S
C61 H90 0.950 . S
C62 N58 1.383 . S
C62 C61 1.439 . S
C62 C80 1.392 1_655 S
N63 Co47 2.282 . S
N63 C66 1.332 . S
N63 C68 1.332 . S
C64 C65 1.386 . S
C64 C67 1.388 . S
C65 C64 1.386 . S
C65 C66 1.382 . S
C65 H91 0.950 1_455 S
C66 N63 1.332 . S
C66 C65 1.382 . S
C66 H77 0.952 1_455 S
C67 C64 1.388 . S
C67 C68 1.382 . S
C67 H92 0.950 . S
C68 N63 1.332 . S
C68 C67 1.382 . S
C68 H78 0.948 . S
N69 Co47 2.282 . S
N69 C73 1.332 . S
N69 C74 1.332 1_455 S
C70 C71 1.388 1_655 S
C70 C74 1.382 . S
C70 H93 0.950 . S
C71 C70 1.388 1_455 S
C71 C72 1.386 . S
C72 C71 1.386 . S
C72 C73 1.382 . S
C72 H94 0.950 . S
C73 N69 1.332 . S
C73 C72 1.382 . S
C73 H75 0.952 . S
C74 N69 1.332 1_655 S
C74 C70 1.382 . S
C74 H76 0.948 . S
H75 C73 0.952 . S
H76 C74 0.948 . S
H77 C66 0.952 1_655 S
H78 C68 0.948 . S
C79 C45 1.395 . S
C79 C49 1.391 . S
C80 C42 1.389 . S
C80 C62 1.392 1_455 S
C81 C52 1.392 . S
C81 C54 1.389 1_455 S
C82 C57 1.395 . S
C82 C59 1.391 . S
H83 C43 0.951 . S
H84 C44 0.950 . S
H85 C50 0.949 . S
H86 C51 0.950 . S
H87 C55 0.951 . S
H88 C56 0.950 . S
H89 C60 0.949 . S
H90 C61 0.950 . S
H91 C65 0.950 1_655 S
H92 C67 0.950 . S
H93 C70 0.950 . S
H94 C72 0.950 . S
C95 C96 1.443 1_545 S
C95 N99 1.376 . S
C95 C133 1.389 . S
C96 C95 1.443 1_565 S
C96 C97 1.340 . S
C96 H136 0.951 . S
C97 C96 1.340 . S
C97 C98 1.439 . S
C97 H137 0.950 . S
C98 C97 1.439 . S
C98 N99 1.374 1_565 S
C98 C132 1.395 . S
N99 C95 1.376 . S
N99 C98 1.374 1_545 S
N99 Co100 2.008 . S
Co100 N99 2.008 . S
Co100 N101 1.995 . S
Co100 N106 2.008 . S
Co100 N111 1.995 . S
Co100 N116 2.282 . S
Co100 N122 2.282 . S
N101 Co100 1.995 . S
N101 C102 1.376 1_545 S
N101 C105 1.383 . S
C102 N101 1.376 1_565 S
C102 C103 1.446 . S
C102 C132 1.391 . S
C103 C102 1.446 . S
C103 C104 1.339 1_565 S
C103 H138 0.949 . S
C104 C103 1.339 1_545 S
C104 C105 1.439 . S
C104 H139 0.950 1_545 S
C105 N101 1.383 . S
C105 C104 1.439 . S
C105 C134 1.392 . S
N106 Co100 2.008 . S
N106 C107 1.376 . S
N106 C110 1.374 . S
C107 N106 1.376 . S
C107 C108 1.443 . S
C107 C134 1.389 . S
C108 C107 1.443 . S
C108 C109 1.340 . S
C108 H140 0.951 . S
C109 C108 1.340 . S
C109 C110 1.439 . S
C109 H141 0.950 . S
C110 N106 1.374 . S
C110 C109 1.439 . S
C110 C135 1.395 . S
N111 Co100 1.995 . S
N111 C112 1.376 . S
N111 C115 1.383 . S
C112 N111 1.376 . S
C112 C113 1.446 . S
C112 C135 1.391 . S
C113 C112 1.446 . S
C113 C114 1.339 . S
C113 H142 0.949 . S
C114 C113 1.339 . S
C114 C115 1.439 . S
C114 H143 0.950 . S
C115 N111 1.383 . S
C115 C114 1.439 . S
C115 C133 1.392 . S
N116 Co100 2.282 . S
N116 C119 1.332 . S
N116 C121 1.332 . S
C117 C118 1.386 . S
C117 C120 1.388 . S
C118 C117 1.386 . S
C118 C119 1.382 . S
C118 H144 0.950 . S
C119 N116 1.332 . S
C119 C118 1.382 . S
C119 H130 0.952 . S
C120 C117 1.388 . S
C120 C121 1.382 . S
C120 H145 0.950 . S
C121 N116 1.332 . S
C121 C120 1.382 . S
C121 H131 0.948 . S
N122 Co100 2.282 . S
N122 C126 1.332 . S
N122 C127 1.332 . S
C123 C124 1.388 . S
C123 C127 1.382 . S
C123 H146 0.950 . S
C124 C123 1.388 . S
C124 C125 1.386 . S
C125 C124 1.386 . S
C125 C126 1.382 . S
C125 H147 0.950 . S
C126 N122 1.332 . S
C126 C125 1.382 . S
C126 H128 0.952 . S
C127 N122 1.332 . S
C127 C123 1.382 . S
C127 H129 0.948 . S
H128 C126 0.952 . S
H129 C127 0.948 . S
H130 C119 0.952 . S
H131 C121 0.948 . S
C132 C98 1.395 . S
C132 C102 1.391 . S
C133 C95 1.389 . S
C133 C115 1.392 . S
C134 C105 1.392 . S
C134 C107 1.389 . S
C135 C110 1.395 . S
C135 C112 1.391 . S
H136 C96 0.951 . S
H137 C97 0.950 . S
H138 C103 0.949 . S
H139 C104 0.950 1_565 S
H140 C108 0.951 . S
H141 C109 0.950 . S
H142 C113 0.949 . S
H143 C114 0.950 . S
H144 C118 0.950 . S
H145 C120 0.950 . S
H146 C123 0.950 . S
H147 C125 0.950 . S
C148 C149 1.443 . S
C148 N152 1.376 . S
C148 C186 1.389 . S
C149 C148 1.443 . S
C149 C150 1.340 . S
C149 H189 0.951 . S
C150 C149 1.340 . S
C150 C151 1.439 . S
C150 H190 0.950 . S
C151 C150 1.439 . S
C151 N152 1.374 . S
C151 C185 1.395 . S
N152 C148 1.376 . S
N152 C151 1.374 . S
N152 Co153 2.008 . S
Co153 N152 2.008 . S
Co153 N154 1.995 . S
Co153 N159 2.008 . S
Co153 N164 1.995 . S
Co153 N169 2.282 . S
Co153 N175 2.282 . S
N154 Co153 1.995 . S
N154 C155 1.376 . S
N154 C158 1.383 . S
C155 N154 1.376 . S
C155 C156 1.446 . S
C155 C185 1.391 . S
C156 C155 1.446 . S
C156 C157 1.339 . S
C156 H191 0.949 . S
C157 C156 1.339 . S
C157 C158 1.439 . S
C157 H192 0.950 . S
C158 N154 1.383 . S
C158 C157 1.439 . S
C158 C187 1.392 . S
N159 Co153 2.008 . S
N159 C160 1.376 . S
N159 C163 1.374 . S
C160 N159 1.376 . S
C160 C161 1.443 . S
C160 C187 1.389 . S
C161 C160 1.443 . S
C161 C162 1.340 . S
C161 H193 0.951 . S
C162 C161 1.340 . S
C162 C163 1.439 . S
C162 H194 0.950 . S
C163 N159 1.374 . S
C163 C162 1.439 . S
C163 C188 1.395 . S
N164 Co153 1.995 . S
N164 C165 1.376 . S
N164 C168 1.383 . S
C165 N164 1.376 . S
C165 C166 1.446 . S
C165 C188 1.391 . S
C166 C165 1.446 . S
C166 C167 1.339 . S
C166 H195 0.949 . S
C167 C166 1.339 . S
C167 C168 1.439 . S
C167 H196 0.950 . S
C168 N164 1.383 . S
C168 C167 1.439 . S
C168 C186 1.392 . S
N169 Co153 2.282 . S
N169 C172 1.332 . S
N169 C174 1.332 . S
C170 C171 1.386 . S
C170 C173 1.388 . S
C171 C170 1.386 . S
C171 C172 1.382 . S
C171 H197 0.950 . S
C172 N169 1.332 . S
C172 C171 1.382 . S
C172 H183 0.952 . S
C173 C170 1.388 . S
C173 C174 1.382 . S
C173 H198 0.950 . S
C174 N169 1.332 . S
C174 C173 1.382 . S
C174 H184 0.948 . S
N175 Co153 2.282 . S
N175 C179 1.332 . S
N175 C180 1.332 . S
C176 C177 1.388 . S
C176 C180 1.382 . S
C176 H199 0.950 . S
C177 C176 1.388 . S
C177 C178 1.386 . S
C178 C177 1.386 . S
C178 C179 1.382 . S
C178 H200 0.950 . S
C179 N175 1.332 . S
C179 C178 1.382 . S
C179 H181 0.952 . S
C180 N175 1.332 . S
C180 C176 1.382 . S
C180 H182 0.948 . S
H181 C179 0.952 . S
H182 C180 0.948 . S
H183 C172 0.952 . S
H184 C174 0.948 . S
C185 C151 1.395 . S
C185 C155 1.391 . S
C186 C148 1.389 . S
C186 C168 1.392 . S
C187 C158 1.392 . S
C187 C160 1.389 . S
C188 C163 1.395 . S
C188 C165 1.391 . S
H189 C149 0.951 . S
H190 C150 0.950 . S
H191 C156 0.949 . S
H192 C157 0.950 . S
H193 C161 0.951 . S
H194 C162 0.950 . S
H195 C166 0.949 . S
H196 C167 0.950 . S
H197 C171 0.950 . S
H198 C173 0.950 . S
H199 C176 0.950 . S
H200 C178 0.950 . S
H201 C213 0.930 . S
H202 C215 0.930 . S
H203 C216 0.930 . S
H204 C220 0.959 . S
H205 C220 0.959 . S
H206 C220 0.961 . S
H207 C221 0.960 . S
H208 C221 0.961 . S
H209 C221 0.959 . S
H210 C224 0.929 . S
H211 C225 0.931 . S
H212 C227 0.930 . S
C213 H201 0.930 . S
C213 C214 1.399 . S
C213 C218 1.399 . S
C214 C213 1.399 . S
C214 C215 1.376 . S
C215 H202 0.930 . S
C215 C214 1.376 . S
C215 C216 1.388 . S
C216 H203 0.930 . S
C216 C215 1.388 . S
C216 C217 1.390 . S
C217 C216 1.390 . S
C217 C218 1.394 . S
C217 C223 1.465 . S
C218 C213 1.399 . S
C218 C217 1.394 . S
C218 C219 1.516 . S
C219 C218 1.516 . S
C219 C220 1.502 1_455 S
C219 C221 1.561 . S
C219 C222 1.526 . S
C220 H204 0.959 . S
C220 H205 0.959 . S
C220 H206 0.961 . S
C220 C219 1.502 1_655 S
C221 H207 0.960 . S
C221 H208 0.961 . S
C221 H209 0.959 . S
C221 C219 1.561 . S
C222 C219 1.526 . S
C222 C223 1.396 . S
C222 C227 1.390 . S
C223 C217 1.465 . S
C223 C222 1.396 . S
C223 C224 1.399 . S
C224 H210 0.929 . S
C224 C223 1.399 . S
C224 C225 1.385 . S
C225 H211 0.931 . S
C225 C224 1.385 . S
C225 C226 1.389 . S
C226 C225 1.389 . S
C226 C227 1.387 . S
C227 H212 0.930 . S
C227 C222 1.390 . S
C227 C226 1.387 . S
H228 C240 0.930 1_565 S
H229 C242 0.930 . S
H230 C243 0.930 . S
H231 C247 0.959 . S
H232 C247 0.959 . S
H233 C247 0.961 . S
H234 C248 0.960 . S
H235 C248 0.961 . S
H236 C248 0.959 1_545 S
H237 C251 0.929 . S
H238 C252 0.931 . S
H239 C254 0.930 . S
C240 H228 0.930 1_545 S
C240 C241 1.399 . S
C240 C245 1.399 . S
C241 C240 1.399 . S
C241 C242 1.376 . S
C242 H229 0.930 . S
C242 C241 1.376 . S
C242 C243 1.388 . S
C243 H230 0.930 . S
C243 C242 1.388 . S
C243 C244 1.390 . S
C244 C243 1.390 . S
C244 C245 1.394 . S
C244 C250 1.465 . S
C245 C240 1.399 . S
C245 C244 1.394 . S
C245 C246 1.516 . S
C246 C245 1.516 . S
C246 C247 1.502 1_545 S
C246 C248 1.561 1_545 S
C246 C249 1.526 . S
C247 H231 0.959 . S
C247 H232 0.959 . S
C247 H233 0.961 . S
C247 C246 1.502 1_565 S
C248 H234 0.960 . S
C248 H235 0.961 . S
C248 H236 0.959 1_565 S
C248 C246 1.561 1_565 S
C249 C246 1.526 . S
C249 C250 1.396 . S
C249 C254 1.390 . S
C250 C244 1.465 . S
C250 C249 1.396 . S
C250 C251 1.399 . S
C251 H237 0.929 . S
C251 C250 1.399 . S
C251 C252 1.385 . S
C252 H238 0.931 . S
C252 C251 1.385 . S
C252 C253 1.389 . S
C253 C252 1.389 . S
C253 C254 1.387 . S
C254 H239 0.930 . S
C254 C249 1.390 . S
C254 C253 1.387 . S
H255 C267 0.930 . S
H256 C269 0.930 . S
H257 C270 0.930 . S
H258 C274 0.959 . S
H259 C274 0.959 . S
H260 C274 0.961 . S
H261 C275 0.960 . S
H262 C275 0.961 . S
H263 C275 0.959 . S
H264 C278 0.929 . S
H265 C279 0.931 . S
H266 C281 0.930 . S
C267 H255 0.930 . S
C267 C268 1.399 . S
C267 C272 1.399 . S
C268 C267 1.399 . S
C268 C269 1.376 . S
C269 H256 0.930 . S
C269 C268 1.376 . S
C269 C270 1.388 . S
C270 H257 0.930 . S
C270 C269 1.388 . S
C270 C271 1.390 . S
C271 C270 1.390 . S
C271 C272 1.394 . S
C271 C277 1.465 . S
C272 C267 1.399 . S
C272 C271 1.394 . S
C272 C273 1.516 . S
C273 C272 1.516 . S
C273 C274 1.502 . S
C273 C275 1.561 . S
C273 C276 1.526 . S
C274 H258 0.959 . S
C274 H259 0.959 . S
C274 H260 0.961 . S
C274 C273 1.502 . S
C275 H261 0.960 . S
C275 H262 0.961 . S
C275 H263 0.959 . S
C275 C273 1.561 . S
C276 C273 1.526 . S
C276 C277 1.396 . S
C276 C281 1.390 . S
C277 C271 1.465 . S
C277 C276 1.396 . S
C277 C278 1.399 . S
C278 H264 0.929 . S
C278 C277 1.399 . S
C278 C279 1.385 . S
C279 H265 0.931 . S
C279 C278 1.385 . S
C279 C280 1.389 . S
C280 C279 1.389 . S
C280 C281 1.387 . S
C281 H266 0.930 . S
C281 C276 1.390 . S
C281 C280 1.387 . S
H282 C294 0.930 . S
H283 C296 0.930 . S
H284 C297 0.930 . S
H285 C301 0.959 . S
H286 C301 0.959 . S
H287 C301 0.961 . S
H288 C302 0.960 . S
H289 C302 0.961 . S
H290 C302 0.959 . S
H291 C305 0.929 . S
H292 C306 0.931 . S
H293 C308 0.930 . S
C294 H282 0.930 . S
C294 C295 1.399 . S
C294 C299 1.399 . S
C295 C294 1.399 . S
C295 C296 1.376 . S
C296 H283 0.930 . S
C296 C295 1.376 . S
C296 C297 1.388 . S
C297 H284 0.930 . S
C297 C296 1.388 . S
C297 C298 1.390 . S
C298 C297 1.390 . S
C298 C299 1.394 . S
C298 C304 1.465 . S
C299 C294 1.399 . S
C299 C298 1.394 . S
C299 C300 1.516 . S
C300 C299 1.516 . S
C300 C301 1.502 1_455 S
C300 C302 1.561 . S
C300 C303 1.526 . S
C301 H285 0.959 . S
C301 H286 0.959 . S
C301 H287 0.961 . S
C301 C300 1.502 1_655 S
C302 H288 0.960 . S
C302 H289 0.961 . S
C302 H290 0.959 . S
C302 C300 1.561 . S
C303 C300 1.526 . S
C303 C304 1.396 . S
C303 C308 1.390 . S
C304 C298 1.465 . S
C304 C303 1.396 . S
C304 C305 1.399 . S
C305 H291 0.929 . S
C305 C304 1.399 . S
C305 C306 1.385 . S
C306 H292 0.931 . S
C306 C305 1.385 . S
C306 C307 1.389 . S
C307 C306 1.389 . S
C307 C308 1.387 . S
C308 H293 0.930 . S
C308 C303 1.390 . S
C308 C307 1.387 . S
H309 C321 0.930 . S
H310 C323 0.930 . S
H311 C324 0.930 . S
H312 C328 0.959 . S
H313 C328 0.959 1_565 S
H314 C328 0.961 1_565 S
H315 C329 0.960 . S
H316 C329 0.961 . S
H317 C329 0.959 1_545 S
H318 C332 0.929 . S
H319 C333 0.931 . S
H320 C335 0.930 . S
C321 H309 0.930 . S
C321 C322 1.399 . S
C321 C326 1.399 . S
C322 C321 1.399 . S
C322 C323 1.376 . S
C323 H310 0.930 . S
C323 C322 1.376 . S
C323 C324 1.388 . S
C324 H311 0.930 . S
C324 C323 1.388 . S
C324 C325 1.390 . S
C325 C324 1.390 . S
C325 C326 1.394 . S
C325 C331 1.465 . S
C326 C321 1.399 . S
C326 C325 1.394 . S
C326 C327 1.516 . S
C327 C326 1.516 . S
C327 C328 1.502 . S
C327 C329 1.561 1_545 S
C327 C330 1.526 . S
C328 H312 0.959 . S
C328 H313 0.959 1_545 S
C328 H314 0.961 1_545 S
C328 C327 1.502 . S
C329 H315 0.960 . S
C329 H316 0.961 . S
C329 H317 0.959 1_565 S
C329 C327 1.561 1_565 S
C330 C327 1.526 . S
C330 C331 1.396 . S
C330 C335 1.390 . S
C331 C325 1.465 . S
C331 C330 1.396 . S
C331 C332 1.399 . S
C332 H318 0.929 . S
C332 C331 1.399 . S
C332 C333 1.385 . S
C333 H319 0.931 . S
C333 C332 1.385 . S
C333 C334 1.389 . S
C334 C333 1.389 . S
C334 C335 1.387 . S
C335 H320 0.930 . S
C335 C330 1.390 . S
C335 C334 1.387 . S
H336 C348 0.930 . S
H337 C350 0.930 . S
H338 C351 0.930 . S
H339 C355 0.959 . S
H340 C355 0.959 . S
H341 C355 0.961 . S
H342 C356 0.960 . S
H343 C356 0.961 . S
H344 C356 0.959 . S
H345 C359 0.929 . S
H346 C360 0.931 . S
H347 C362 0.930 . S
C348 H336 0.930 . S
C348 C349 1.399 . S
C348 C353 1.399 . S
C349 C348 1.399 . S
C349 C350 1.376 . S
C350 H337 0.930 . S
C350 C349 1.376 . S
C350 C351 1.388 . S
C351 H338 0.930 . S
C351 C350 1.388 . S
C351 C352 1.390 . S
C352 C351 1.390 . S
C352 C353 1.394 . S
C352 C358 1.465 . S
C353 C348 1.399 . S
C353 C352 1.394 . S
C353 C354 1.516 . S
C354 C353 1.516 . S
C354 C355 1.502 . S
C354 C356 1.561 . S
C354 C357 1.526 . S
C355 H339 0.959 . S
C355 H340 0.959 . S
C355 H341 0.961 . S
C355 C354 1.502 . S
C356 H342 0.960 . S
C356 H343 0.961 . S
C356 H344 0.959 . S
C356 C354 1.561 . S
C357 C354 1.526 . S
C357 C358 1.396 . S
C357 C362 1.390 . S
C358 C352 1.465 . S
C358 C357 1.396 . S
C358 C359 1.399 . S
C359 H345 0.929 . S
C359 C358 1.399 . S
C359 C360 1.385 . S
C360 H346 0.931 . S
C360 C359 1.385 . S
C360 C361 1.389 . S
C361 C360 1.389 . S
C361 C362 1.387 . S
C362 H347 0.930 . S
C362 C357 1.390 . S
C362 C361 1.387 . S
H363 C375 0.930 . S
H364 C377 0.930 1_565 S
H365 C378 0.930 1_565 S
H366 C382 0.959 . S
H367 C382 0.959 . S
H368 C382 0.961 . S
H369 C383 0.960 . S
H370 C383 0.961 . S
H371 C383 0.959 . S
H372 C386 0.929 1_565 S
H373 C387 0.931 . S
H374 C389 0.930 . S
C375 H363 0.930 . S
C375 C376 1.399 . S
C375 C380 1.399 . S
C376 C375 1.399 . S
C376 C377 1.376 . S
C377 H364 0.930 1_545 S
C377 C376 1.376 . S
C377 C378 1.388 . S
C378 H365 0.930 1_545 S
C378 C377 1.388 . S
C378 C379 1.390 . S
C379 C378 1.390 . S
C379 C380 1.394 . S
C379 C385 1.465 . S
C380 C375 1.399 . S
C380 C379 1.394 . S
C380 C381 1.516 . S
C381 C380 1.516 . S
C381 C382 1.502 . S
C381 C383 1.561 . S
C381 C384 1.526 . S
C382 H366 0.959 . S
C382 H367 0.959 . S
C382 H368 0.961 . S
C382 C381 1.502 . S
C383 H369 0.960 . S
C383 H370 0.961 . S
C383 H371 0.959 . S
C383 C381 1.561 . S
C384 C381 1.526 . S
C384 C385 1.396 . S
C384 C389 1.390 . S
C385 C379 1.465 . S
C385 C384 1.396 . S
C385 C386 1.399 . S
C386 H372 0.929 1_545 S
C386 C385 1.399 . S
C386 C387 1.385 . S
C387 H373 0.931 . S
C387 C386 1.385 . S
C387 C388 1.389 . S
C388 C387 1.389 . S
C388 C389 1.387 . S
C389 H374 0.930 . S
C389 C384 1.390 . S
C389 C388 1.387 . S
H390 C402 0.930 . S
H391 C404 0.930 . S
H392 C405 0.930 1_455 S
H393 C409 0.959 . S
H394 C409 0.954 1_556 S
H395 C409 0.961 . S
H396 C410 0.960 . S
H397 C410 0.961 . S
H398 C410 0.959 . S
H399 C413 0.929 . S
H400 C414 0.931 . S
H401 C416 0.930 . S
C402 H390 0.930 . S
C402 C403 1.399 1_554 S
C402 C407 1.399 1_554 S
C403 C402 1.399 1_556 S
C403 C404 1.383 1_655 S
C404 H391 0.930 . S
C404 C403 1.383 1_455 S
C404 C405 1.388 1_455 S
C405 H392 0.930 1_655 S
C405 C404 1.388 1_655 S
C405 C406 1.390 . S
C406 C405 1.390 . S
C406 C407 1.394 . S
C406 C412 1.465 . S
C407 C402 1.399 1_556 S
C407 C406 1.394 . S
C407 C408 1.516 . S
C408 C407 1.516 . S
C408 C409 1.502 1_556 S
C408 C410 1.561 . S
C408 C411 1.526 . S
C409 H393 0.959 . S
C409 H394 0.954 1_554 S
C409 H395 0.961 . S
C409 C408 1.502 1_554 S
C410 H396 0.960 . S
C410 H397 0.961 . S
C410 H398 0.959 . S
C410 C408 1.561 . S
C411 C408 1.526 . S
C411 C412 1.396 . S
C411 C416 1.390 . S
C412 C406 1.465 . S
C412 C411 1.396 . S
C412 C413 1.399 . S
C413 H399 0.929 . S
C413 C412 1.399 . S
C413 C414 1.385 . S
C414 H400 0.931 . S
C414 C413 1.385 . S
C414 C415 1.389 . S
C415 C414 1.389 . S
C415 C416 1.387 . S
C416 H401 0.930 . S
C416 C411 1.390 . S
C416 C415 1.387 . S
H417 C429 0.930 . S
H418 C431 0.930 . S
H419 C432 0.930 . S
H420 C436 0.959 1_655 S
H421 C436 0.959 . S
H422 C436 0.961 . S
H423 C437 0.960 . S
H424 C437 0.961 . S
H425 C437 0.959 . S
H426 C440 0.929 . S
H427 C441 0.931 1_655 S
H428 C443 0.930 . S
C429 H417 0.930 . S
C429 C430 1.399 1_455 S
C429 C434 1.399 . S
C430 C429 1.399 1_655 S
C430 C431 1.376 . S
C431 H418 0.930 . S
C431 C430 1.376 . S
C431 C432 1.388 . S
C432 H419 0.930 . S
C432 C431 1.388 . S
C432 C433 1.390 1_655 S
C433 C432 1.390 1_455 S
C433 C434 1.394 . S
C433 C439 1.465 . S
C434 C429 1.399 . S
C434 C433 1.394 . S
C434 C435 1.516 . S
C435 C434 1.516 . S
C435 C436 1.502 . S
C435 C437 1.561 . S
C435 C438 1.526 . S
C436 H420 0.959 1_455 S
C436 H421 0.959 . S
C436 H422 0.961 . S
C436 C435 1.502 . S
C437 H423 0.960 . S
C437 H424 0.961 . S
C437 H425 0.959 . S
C437 C435 1.561 . S
C438 C435 1.526 . S
C438 C439 1.396 . S
C438 C443 1.390 . S
C439 C433 1.465 . S
C439 C438 1.396 . S
C439 C440 1.399 1_455 S
C440 H426 0.929 . S
C440 C439 1.399 1_655 S
C440 C441 1.385 1_655 S
C441 H427 0.931 1_455 S
C441 C440 1.385 1_455 S
C441 C442 1.389 . S
C442 C441 1.389 . S
C442 C443 1.387 . S
C443 H428 0.930 . S
C443 C438 1.390 . S
C443 C442 1.387 . S
H444 C456 0.930 . S
H445 C458 0.930 . S
H446 C459 0.930 . S
H447 C463 0.959 . S
H448 C463 0.959 . S
H449 C463 0.961 . S
H450 C464 0.960 . S
H451 C464 0.961 . S
H452 C464 0.959 . S
H453 C467 0.929 . S
H454 C468 0.931 . S
H455 C470 0.930 . S
C456 H444 0.930 . S
C456 C457 1.399 1_565 S
C456 C461 1.399 1_565 S
C457 C456 1.399 1_545 S
C457 C458 1.376 . S
C458 H445 0.930 . S
C458 C457 1.376 . S
C458 C459 1.388 . S
C459 H446 0.930 . S
C459 C458 1.388 . S
C459 C460 1.390 . S
C460 C459 1.390 . S
C460 C461 1.394 . S
C460 C466 1.465 . S
C461 C456 1.399 1_545 S
C461 C460 1.394 . S
C461 C462 1.516 1_545 S
C462 C461 1.516 1_565 S
C462 C463 1.502 . S
C462 C464 1.561 . S
C462 C465 1.526 1_565 S
C463 H447 0.959 . S
C463 H448 0.959 . S
C463 H449 0.961 . S
C463 C462 1.502 . S
C464 H450 0.960 . S
C464 H451 0.961 . S
C464 H452 0.959 . S
C464 C462 1.561 . S
C465 C462 1.526 1_545 S
C465 C466 1.396 . S
C465 C470 1.390 . S
C466 C460 1.465 . S
C466 C465 1.396 . S
C466 C467 1.399 . S
C467 H453 0.929 . S
C467 C466 1.399 . S
C467 C468 1.385 . S
C468 H454 0.931 . S
C468 C467 1.385 . S
C468 C469 1.389 . S
C469 C468 1.389 . S
C469 C470 1.387 . S
C470 H455 0.930 . S
C470 C465 1.390 . S
C470 C469 1.387 . S
H471 C483 0.930 1_554 S
H472 C485 0.930 . S
H473 C486 0.930 . S
H474 C490 0.959 . S
H475 C490 0.959 . S
H476 C490 0.961 1_554 S
H477 C491 0.935 1_554 S
H478 C491 0.961 . S
H479 C491 0.959 . S
H480 C494 0.929 . S
H481 C495 0.931 . S
H482 C497 0.930 . S
C483 H471 0.930 1_556 S
C483 C484 1.399 . S
C483 C488 1.399 . S
C484 C483 1.399 . S
C484 C485 1.376 . S
C485 H472 0.930 . S
C485 C484 1.376 . S
C485 C486 1.388 . S
C486 H473 0.930 . S
C486 C485 1.388 . S
C486 C487 1.390 . S
C487 C486 1.390 . S
C487 C488 1.394 . S
C487 C493 1.465 . S
C488 C483 1.399 . S
C488 C487 1.394 . S
C488 C489 1.516 . S
C489 C488 1.516 . S
C489 C490 1.502 . S
C489 C491 1.561 . S
C489 C492 1.526 . S
C490 H474 0.959 . S
C490 H475 0.959 . S
C490 H476 0.961 1_556 S
C490 C489 1.502 . S
C491 H477 0.935 1_556 S
C491 H478 0.961 . S
C491 H479 0.959 . S
C491 C489 1.561 . S
C492 C489 1.526 . S
C492 C493 1.396 . S
C492 C497 1.390 . S
C493 C487 1.465 . S
C493 C492 1.396 . S
C493 C494 1.399 . S
C494 H480 0.929 . S
C494 C493 1.399 . S
C494 C495 1.385 . S
C495 H481 0.931 . S
C495 C494 1.385 . S
C495 C496 1.389 . S
C496 C495 1.389 . S
C496 C497 1.387 . S
C497 H482 0.930 . S
C497 C492 1.390 . S
C497 C496 1.387 . S
H498 C510 0.930 . S
H499 C512 0.930 . S
H500 C513 0.930 . S
H501 C517 0.959 . S
H502 C517 0.959 . S
H503 C517 0.961 . S
H504 C518 0.960 . S
H505 C518 0.961 . S
H506 C518 0.959 . S
H507 C521 0.929 . S
H508 C522 0.931 . S
H509 C524 0.930 . S
C510 H498 0.930 . S
C510 C511 1.399 . S
C510 C515 1.399 . S
C511 C510 1.399 . S
C511 C512 1.376 . S
C512 H499 0.930 . S
C512 C511 1.376 . S
C512 C513 1.388 . S
C513 H500 0.930 . S
C513 C512 1.388 . S
C513 C514 1.390 . S
C514 C513 1.390 . S
C514 C515 1.394 . S
C514 C520 1.465 . S
C515 C510 1.399 . S
C515 C514 1.394 . S
C515 C516 1.516 . S
C516 C515 1.516 . S
C516 C517 1.502 . S
C516 C518 1.561 1_455 S
C516 C519 1.526 . S
C517 H501 0.959 . S
C517 H502 0.959 . S
C517 H503 0.961 . S
C517 C516 1.502 . S
C518 H504 0.960 . S
C518 H505 0.961 . S
C518 H506 0.959 . S
C518 C516 1.561 1_655 S
C519 C516 1.526 . S
C519 C520 1.396 . S
C519 C524 1.390 . S
C520 C514 1.465 . S
C520 C519 1.396 . S
C520 C521 1.399 . S
C521 H507 0.929 . S
C521 C520 1.399 . S
C521 C522 1.385 . S
C522 H508 0.931 . S
C522 C521 1.385 . S
C522 C523 1.389 . S
C523 C522 1.389 . S
C523 C524 1.387 . S
C524 H509 0.930 . S
C524 C519 1.390 . S
C524 C523 1.387 . S
C226 C64 1.391 . S
C214 C11 1.351 . S
C241 C26 1.518 . S
C253 C134 1.567 . S
C268 C40 1.395 1_655 S
C280 C186 1.437 . S
C295 C5 1.198 . S
C307 C80 1.397 . S
C334 C124 1.531 . S
C322 C18 1.520 . S
C349 C32 1.373 . S
C361 C170 1.417 . S
C388 C117 1.293 . S
C376 C39 1.293 . S
C403 C4 1.381 1_666 S
C415 C177 1.426 . S
C442 C71 1.387 . S
C430 C19 1.281 . S
C469 C133 1.351 . S
C457 C33 1.213 1_545 S
C496 C187 1.447 . S
C484 C12 1.438 1_556 S
C511 C25 1.350 . S
C523 C81 1.401 . S
