# Generated by pormake.
# Topology rtl, (3,6)-cn, num edge types: 1
# Building blocks:
#     Node 0, Type 0, BuildingBlock: OLANEW_clean_sbu_2, # of connection points: 3
#     Node 1, Type 0, BuildingBlock: OLANEW_clean_sbu_2, # of connection points: 3
#     Node 2, Type 0, BuildingBlock: OLANEW_clean_sbu_2, # of connection points: 3
#     Node 3, Type 0, BuildingBlock: OLANEW_clean_sbu_2, # of connection points: 3
#     Node 4, Type 1, BuildingBlock: LEVNOQ01_clean_sbu_1, # of connection points: 6
#     Node 5, Type 1, BuildingBlock: LEVNOQ01_clean_sbu_1, # of connection points: 6
#     Edge 6, Type (0, 1), BuildingBlock: MIFKUJ_clean_linker_0, # of connection points: 2
#     Edge 7, Type (0, 1), BuildingBlock: MIFKUJ_clean_linker_0, # of connection points: 2
#     Edge 8, Type (0, 1), BuildingBlock: MIFKUJ_clean_linker_0, # of connection points: 2
#     Edge 9, Type (0, 1), BuildingBlock: MIFKUJ_clean_linker_0, # of connection points: 2
#     Edge 10, Type (0, 1), BuildingBlock: MIFKUJ_clean_linker_0, # of connection points: 2
#     Edge 11, Type (0, 1), BuildingBlock: MIFKUJ_clean_linker_0, # of connection points: 2
#     Edge 12, Type (0, 1), BuildingBlock: MIFKUJ_clean_linker_0, # of connection points: 2
#     Edge 13, Type (0, 1), BuildingBlock: MIFKUJ_clean_linker_0, # of connection points: 2
#     Edge 14, Type (0, 1), BuildingBlock: MIFKUJ_clean_linker_0, # of connection points: 2
#     Edge 15, Type (0, 1), BuildingBlock: MIFKUJ_clean_linker_0, # of connection points: 2
#     Edge 16, Type (0, 1), BuildingBlock: MIFKUJ_clean_linker_0, # of connection points: 2
#     Edge 17, Type (0, 1), BuildingBlock: MIFKUJ_clean_linker_0, # of connection points: 2
# Relax obj value: 0.015
# Max RMSD: 0.123
# Mean RMSD: 0.078
data_MOF--net-rtl--node1-OLANEW_clean_sbu_2--node2-LEVNOQ01_clean_sbu_1--edge1-MIFKUJ_clean_linker_0
_symmetry_space_group_name_H-M    P1
_symmetry_Int_Tables_number       1
_symmetry_cell_setting            triclinic
loop_
_symmetry_equiv_pos_as_xyz
'x, y, z'
_cell_length_a     47.935433
_cell_length_b     48.50938
_cell_length_c     31.224971
_cell_angle_alpha  87.428175
_cell_angle_beta   100.06452
_cell_angle_gamma 90.246254
loop_
_atom_site_label
_atom_site_type_symbol
_atom_site_fract_x
_atom_site_fract_y
_atom_site_fract_z
_atom_type_partial_charge
O0 O 0.20318 0.83595 0.02828 0.0
Cd1 Cd 0.2325 0.81905 0.09562 0.0
O2 O 0.20585 0.87883 0.04894 0.0
Cd3 Cd 0.22823 0.86785 0.11387 0.0
O4 O 0.208 0.8721 0.16997 0.0
C5 C 0.18145 0.87599 0.15953 0.0
O6 O 0.16958 0.87661 0.11829 0.0
C7 C 0.19699 0.8613 0.0208 0.0
C8 C 0.26768 0.77751 0.07818 0.0
O9 O 0.24263 0.77222 0.08527 0.0
O10 O 0.27623 0.80258 0.07982 0.0
O11 O 0.68275 0.69593 0.62713 0.0
Cd12 Cd 0.70177 0.7162 0.56503 0.0
O13 O 0.6875 0.65371 0.60618 0.0
Cd14 Cd 0.7075 0.66589 0.55141 0.0
O15 O 0.68427 0.66063 0.48649 0.0
C16 C 0.66038 0.64909 0.48619 0.0
O17 O 0.65272 0.64174 0.52346 0.0
C18 C 0.67874 0.67012 0.63149 0.0
C19 C 0.74592 0.75395 0.57921 0.0
O20 O 0.72094 0.76046 0.58458 0.0
O21 O 0.75045 0.7293 0.5689 0.0
O22 O 0.80636 0.18792 0.05781 0.0
Cd23 Cd 0.78789 0.21617 0.99249 0.0
O24 O 0.85025 0.19761 0.05052 0.0
Cd25 Cd 0.83944 0.21953 0.98809 0.0
O26 O 0.84986 0.20017 0.93183 0.0
C27 C 0.84685 0.17412 0.93193 0.0
O28 O 0.83629 0.16147 0.96358 0.0
C29 C 0.83287 0.18534 0.07114 0.0
C30 C 0.74796 0.25536 0.0042 0.0
O31 O 0.74061 0.23072 -0.00585 0.0
O32 O 0.77438 0.26136 0.00959 0.0
O33 O 0.29397 0.34037 0.53311 0.0
Cd34 Cd 0.26271 0.3242 0.46878 0.0
O35 O 0.27654 0.38263 0.52444 0.0
Cd36 Cd 0.25788 0.37536 0.45742 0.0
O37 O 0.27826 0.37748 0.40032 0.0
C38 C 0.30484 0.38151 0.40924 0.0
O39 O 0.31678 0.3834 0.45023 0.0
C40 C 0.29262 0.36453 0.54671 0.0
C41 C 0.2265 0.28212 0.48856 0.0
O42 O 0.25183 0.27697 0.48318 0.0
O43 O 0.21822 0.30734 0.48504 0.0
O44 O 0.00117 0.03766 0.64528 0.0
Mg45 Mg 0.03269 0.03301 0.60819 0.0
O46 O 0.96939 0.02842 0.58812 0.0
Mg47 Mg -0.00278 0.00843 0.54393 0.0
O48 O 0.02806 0.0452 0.54385 0.0
O49 O 0.0489 0.07044 0.59957 0.0
O50 O 0.0245 0.98706 0.49672 0.0
O51 O 0.97267 0.03774 0.489 0.0
Mg52 Mg 0.96617 0.97752 0.47382 0.0
O53 O 0.96514 0.97351 0.54011 0.0
O54 O -0.00051 0.95139 0.46913 0.0
O55 O 0.96812 0.01208 0.43243 0.0
O56 O 0.9264 0.97732 0.49062 0.0
C57 C 0.04676 0.98025 0.62726 0.0
C58 C 0.9757 0.03646 0.62676 0.0
C59 C 0.04238 0.06652 0.5585 0.0
C60 C 0.02251 0.96484 0.47539 0.0
C61 C 0.96778 0.03539 0.44811 0.0
C62 C 0.93803 0.97095 0.52999 0.0
O63 O 0.06183 0.00162 0.62775 0.0
O64 O 0.02212 0.98019 0.60348 0.0
O65 O 0.54004 0.51089 0.10886 0.0
Mg66 Mg 0.52239 0.47805 0.07481 0.0
O67 O 0.51285 0.53826 0.06088 0.0
Mg68 Mg 0.49044 0.5107 0.00496 0.0
O69 O 0.52567 0.47601 0.01173 0.0
O70 O 0.55141 0.45087 0.06781 0.0
O71 O 0.46665 0.48399 0.94831 0.0
O72 O 0.51826 0.53154 0.95841 0.0
Mg73 Mg 0.45269 0.54566 0.92845 0.0
O74 O 0.4581 0.5461 -0.00591 0.0
O75 O 0.43317 0.50963 0.9069 0.0
O76 O 0.49003 0.55588 0.90624 0.0
O77 O 0.42918 0.57504 0.94905 0.0
C78 C 0.46471 0.47132 0.08343 0.0
C79 C 0.53066 0.53457 0.09606 0.0
C80 C 0.5449 0.45741 0.02676 0.0
C81 C 0.44527 0.48665 0.91749 0.0
C82 C 0.51434 0.54716 0.92389 0.0
C83 C 0.43982 0.56611 0.98802 0.0
O84 O 0.48833 0.45954 0.09513 0.0
O85 O 0.46145 0.49035 0.05317 0.0
H86 H 0.16896 0.28444 0.48297 0.0
H87 H 0.13681 0.24594 0.49016 0.0
H88 H 0.20808 0.19011 0.52036 0.0
H89 H 0.24033 0.22842 0.51221 0.0
H90 H 0.16861 0.16955 0.46054 0.0
H91 H 0.17083 0.20886 0.59836 0.0
H92 H 0.16729 0.24469 0.65074 0.0
H93 H 0.07973 0.25785 0.59491 0.0
H94 H 0.08284 0.22247 0.54167 0.0
H95 H 0.09258 0.05795 0.53766 0.0
H96 H 0.12351 0.09412 0.51758 0.0
H97 H 0.05301 0.15139 0.4942 0.0
H98 H 0.02255 0.11525 0.51856 0.0
H99 H 0.09333 0.16991 0.55104 0.0
H100 H 0.09249 0.12935 0.41153 0.0
H101 H 0.09583 0.08864 0.36812 0.0
H102 H 0.18111 0.074 0.43433 0.0
H103 H 0.1782 0.1145 0.4785 0.0
C104 C 0.17782 0.26402 0.49161 0.0
C105 C 0.20717 0.25942 0.49677 0.0
C106 C 0.15942 0.24205 0.49585 0.0
C107 C 0.17008 0.21518 0.50596 0.0
C108 C 0.19942 0.21066 0.51231 0.0
C109 C 0.2178 0.23258 0.50772 0.0
C110 C 0.15047 0.19165 0.50765 0.0
C111 C 0.15223 0.16956 0.4805 0.0
C112 C 0.12904 0.19172 0.5336 0.0
C113 C 0.12722 0.21325 0.56549 0.0
C114 C 0.15091 0.21961 0.59687 0.0
C115 C 0.14895 0.23981 0.62681 0.0
C116 C 0.12334 0.25363 0.62603 0.0
C117 C 0.09959 0.2472 0.5954 0.0
C118 C 0.10144 0.22707 0.56532 0.0
C119 C 0.08354 0.07798 0.52634 0.0
C120 C 0.05559 0.08418 0.52944 0.0
C121 C 0.10116 0.09867 0.5147 0.0
C122 C 0.0906 0.12552 0.50423 0.0
C123 C 0.06158 0.13081 0.50242 0.0
C124 C 0.04413 0.11023 0.51568 0.0
C125 C 0.11056 0.14862 0.50234 0.0
C126 C 0.10928 0.17029 0.53026 0.0
C127 C 0.13248 0.148 0.47742 0.0
C128 C 0.13514 0.12506 0.44828 0.0
C129 C 0.11203 0.11757 0.41665 0.0
C130 C 0.11381 0.09446 0.39202 0.0
C131 C 0.13867 0.07875 0.39846 0.0
C132 C 0.16189 0.08625 0.4293 0.0
C133 C 0.16023 0.10936 0.45403 0.0
H134 H 0.13994 0.06076 0.37957 0.0
H135 H 0.12188 0.26925 0.64922 0.0
H136 H 0.32424 0.78034 0.07525 0.0
H137 H 0.35556 0.74247 0.06514 0.0
H138 H 0.28459 0.68659 0.04997 0.0
H139 H 0.25319 0.72423 0.06084 0.0
H140 H 0.32815 0.66577 0.10732 0.0
H141 H 0.31428 0.70717 0.96364 0.0
H142 H 0.31266 0.74498 0.90781 0.0
H143 H 0.40179 0.75866 0.9475 0.0
H144 H 0.40389 0.7212 0.0041 0.0
H145 H 0.39285 0.55541 0.02028 0.0
H146 H 0.36513 0.59177 0.04395 0.0
H147 H 0.4376 0.64588 0.05541 0.0
H148 H 0.46497 0.60952 0.02952 0.0
H149 H 0.39366 0.66765 0.00057 0.0
H150 H 0.40629 0.62517 0.14556 0.0
H151 H 0.40724 0.58391 0.1949 0.0
H152 H 0.31903 0.56994 0.14682 0.0
H153 H 0.31764 0.61098 0.09681 0.0
C154 C 0.31526 0.76004 0.0694 0.0
C155 C 0.28632 0.75517 0.06921 0.0
C156 C 0.33315 0.73847 0.06343 0.0
C157 C 0.32233 0.71179 0.05667 0.0
C158 C 0.29333 0.70703 0.05535 0.0
C159 C 0.27545 0.72855 0.06157 0.0
C160 C 0.3416 0.68857 0.05358 0.0
C161 C 0.34232 0.66609 0.08374 0.0
C162 C 0.36028 0.68921 0.02312 0.0
C163 C 0.35917 0.71155 0.98859 0.0
C164 C 0.33351 0.71838 0.96077 0.0
C165 C 0.33251 0.73973 0.92891 0.0
C166 C 0.35708 0.75429 0.92423 0.0
C167 C 0.38275 0.74741 0.95124 0.0
C168 C 0.38386 0.72609 0.9832 0.0
C169 C 0.40331 0.57447 0.03056 0.0
C170 C 0.4309 0.5798 0.02367 0.0
C171 C 0.3874 0.5954 0.04364 0.0
C172 C 0.39927 0.62162 0.05121 0.0
C173 C 0.42805 0.62581 0.0495 0.0
C174 C 0.44385 0.60491 0.03572 0.0
C175 C 0.38068 0.64527 0.05503 0.0
C176 C 0.37982 0.66763 0.02461 0.0
C177 C 0.36171 0.64446 0.08494 0.0
C178 C 0.36187 0.62117 0.11749 0.0
C179 C 0.38706 0.61338 0.14569 0.0
C180 C 0.3877 0.58998 0.17366 0.0
C181 C 0.36321 0.57431 0.17398 0.0
C182 C 0.33797 0.58215 0.14659 0.0
C183 C 0.33721 0.60554 0.11854 0.0
H184 H 0.3638 0.5561 0.19546 0.0
H185 H 0.35626 0.77084 0.89961 0.0
H186 H 0.77506 0.76831 0.51526 0.0
H187 H 0.80929 0.80573 0.51422 0.0
H188 H 0.80136 0.82399 0.64569 0.0
H189 H 0.76523 0.78784 0.64518 0.0
H190 H 0.80433 0.87012 0.60037 0.0
H191 H 0.86076 0.78388 0.61592 0.0
H192 H 0.87306 0.73844 0.59163 0.0
H193 H 0.88349 0.7754 0.46788 0.0
H194 H 0.8712 0.821 0.49142 0.0
H195 H 0.92054 0.96397 0.61019 0.0
H196 H 0.89222 0.92465 0.6318 0.0
H197 H 0.89726 0.88718 0.51014 0.0
H198 H 0.92721 0.92405 0.49157 0.0
H199 H 0.8978 0.84959 0.56174 0.0
H200 H 0.83945 0.93253 0.53405 0.0
H201 H 0.82596 0.97983 0.54848 0.0
H202 H 0.81525 0.95305 0.67752 0.0
H203 H 0.82907 0.90568 0.66407 0.0
C204 C 0.78085 0.78024 0.54397 0.0
C205 C 0.76804 0.77507 0.58057 0.0
C206 C 0.80046 0.80155 0.54348 0.0
C207 C 0.8086 0.81722 0.58038 0.0
C208 C 0.79558 0.8121 0.61694 0.0
C209 C 0.77517 0.79137 0.61682 0.0
C210 C 0.83078 0.83876 0.581 0.0
C211 C 0.8249 0.86562 0.59232 0.0
C212 C 0.85735 0.83318 0.56931 0.0
C213 C 0.86495 0.80577 0.55542 0.0
C214 C 0.86562 0.78226 0.58353 0.0
C215 C 0.87261 0.75651 0.56988 0.0
C216 C 0.87902 0.75403 0.52823 0.0
C217 C 0.87854 0.77734 0.50014 0.0
C218 C 0.87165 0.80314 0.51366 0.0
C219 C 0.91602 0.9468 0.58907 0.0
C220 C 0.92516 0.94707 0.54879 0.0
C221 C 0.89962 0.9246 0.60098 0.0
C222 C 0.89175 0.90325 0.57198 0.0
C223 C 0.90276 0.90316 0.53326 0.0
C224 C 0.91969 0.92446 0.52234 0.0
C225 C 0.87113 0.88139 0.57943 0.0
C226 C 0.8773 0.85428 0.56993 0.0
C227 C 0.84441 0.8872 0.59055 0.0
C228 C 0.83559 0.91561 0.59823 0.0
C229 C 0.83433 0.93676 0.56556 0.0
C230 C 0.82664 0.96358 0.57357 0.0
C231 C 0.81984 0.96946 0.61394 0.0
C232 C 0.8206 0.94849 0.64631 0.0
C233 C 0.82835 0.92166 0.63852 0.0
H234 H 0.81391 0.99023 0.62009 0.0
H235 H 0.88438 0.73407 0.51774 0.0
H236 H 0.75627 0.31043 0.01693 0.0
H237 H 0.72009 0.34597 0.01547 0.0
H238 H 0.65482 0.28398 -0.00311 0.0
H239 H 0.69084 0.24831 -0.00219 0.0
H240 H 0.64237 0.32706 0.93921 0.0
H241 H 0.67176 0.31381 0.09282 0.0
H242 H 0.70493 0.31006 0.1627 0.0
H243 H 0.73093 0.39394 0.1445 0.0
H244 H 0.69827 0.39808 0.07411 0.0
H245 H 0.53077 0.40943 0.98996 0.0
H246 H 0.56598 0.37543 0.97926 0.0
H247 H 0.63073 0.43811 -0.00467 0.0
H248 H 0.5954 0.47197 0.00714 0.0
H249 H 0.64281 0.39466 0.05394 0.0
H250 H 0.61332 0.40698 0.89876 0.0
H251 H 0.57522 0.41204 0.83471 0.0
H252 H 0.54621 0.33013 0.86067 0.0
H253 H 0.58395 0.32472 0.9253 0.0
C254 C 0.73425 0.30429 0.013 0.0
C255 C 0.7264 0.27656 0.00728 0.0
C256 C 0.71361 0.32463 0.01228 0.0
C257 C 0.68479 0.31757 0.00615 0.0
C258 C 0.67694 0.28984 0.00146 0.0
C259 C 0.69756 0.2695 0.00212 0.0
C260 C 0.66285 0.33932 0.00268 0.0
C261 C 0.64236 0.34168 0.96449 0.0
C262 C 0.66302 0.3586 0.03545 0.0
C263 C 0.68281 0.35613 0.0778 0.0
C264 C 0.68477 0.33137 0.10344 0.0
C265 C 0.70344 0.3292 0.14322 0.0
C266 C 0.72011 0.35171 0.15795 0.0
C267 C 0.71806 0.37649 0.133 0.0
C268 C 0.69947 0.37876 0.09315 0.0
C269 C 0.55216 0.41623 0.98843 0.0
C270 C 0.56049 0.44319 -0.00149 0.0
C271 C 0.57236 0.39676 0.98296 0.0
C272 C 0.60099 0.40426 0.98689 0.0
C273 C 0.60875 0.43196 0.9924 0.0
C274 C 0.58852 0.45138 -0.00185 0.0
C275 C 0.623 0.3827 0.99016 0.0
C276 C 0.64322 0.38022 0.0285 0.0
C277 C 0.62251 0.36326 0.95777 0.0
C278 C 0.60148 0.36543 0.91681 0.0
C279 C 0.59891 0.38998 0.89065 0.0
C280 C 0.57731 0.39296 0.85436 0.0
C281 C 0.5583 0.37142 0.84364 0.0
C282 C 0.561 0.34677 0.86898 0.0
C283 C 0.58255 0.3437 0.90538 0.0
H284 H 0.54147 0.37383 0.81568 0.0
H285 H 0.73455 0.34998 0.18875 0.0
H286 H 0.1527 0.84456 0.21142 0.0
H287 H 0.1255 0.86113 0.26517 0.0
H288 H 0.14629 0.94516 0.23162 0.0
H289 H 0.17363 0.92849 0.17852 0.0
H290 H 0.15549 0.93602 0.31697 0.0
H291 H 0.08078 0.9186 0.19876 0.0
H292 H 0.05147 0.8919 0.14238 0.0
H293 H 0.02908 0.83569 0.24091 0.0
H294 H 0.05874 0.86169 0.29791 0.0
H295 H 0.05744 -0.00142 0.43607 0.0
H296 H 0.08615 0.98518 0.38247 0.0
H297 H 0.06574 0.89967 0.40572 0.0
H298 H 0.03643 0.91307 0.45787 0.0
H299 H 0.05555 0.91202 0.32239 0.0
H300 H 0.13258 0.92971 0.44044 0.0
H301 H 0.1623 0.95726 0.49523 0.0
H302 H 0.1801 0.01436 0.39447 0.0
H303 H 0.15005 0.98746 0.33911 0.0
C304 C 0.15135 0.86651 0.21583 0.0
C305 C 0.16527 0.88538 0.19165 0.0
C306 C 0.13571 0.87598 0.24611 0.0
C307 C 0.13375 0.90442 0.2522 0.0
C308 C 0.14757 0.92317 0.22751 0.0
C309 C 0.16314 0.9137 0.19734 0.0
C310 C 0.1185 0.9147 0.28572 0.0
C311 C 0.13349 0.9311 0.31787 0.0
C312 C 0.08994 0.90787 0.28711 0.0
C313 C 0.07233 0.89196 0.25269 0.0
C314 C 0.06991 0.90036 0.20845 0.0
C315 C 0.05317 0.88537 0.17635 0.0
C316 C 0.03849 0.86207 0.18805 0.0
C317 C 0.04051 0.85371 0.23188 0.0
C318 C 0.0573 0.86857 0.2641 0.0
C319 C 0.05981 0.97688 0.43059 0.0
C320 C 0.04487 0.9568 0.45126 0.0
C321 C 0.0761 0.96924 0.39981 0.0
C322 C 0.07808 0.94137 0.38993 0.0
C323 C 0.06437 0.9213 0.41245 0.0
C324 C 0.04782 0.92893 0.44255 0.0
C325 C 0.09273 0.93292 0.35433 0.0
C326 C 0.07755 0.91697 0.32154 0.0
C327 C 0.12106 0.94031 0.35216 0.0
C328 C 0.13868 0.95676 0.38566 0.0
C329 C 0.14252 0.94833 0.42999 0.0
C330 C 0.1595 0.9638 0.46115 0.0
C331 C 0.173 0.98759 0.44835 0.0
C332 C 0.16957 -0.00403 0.40435 0.0
C333 C 0.15254 0.98063 0.37309 0.0
H334 H 0.18618 -0.0005 0.47252 0.0
H335 H 0.0255 0.85053 0.16316 0.0
H336 H 0.67561 0.68725 0.71286 0.0
H337 H 0.64618 0.66718 0.76334 0.0
H338 H 0.61055 0.60983 0.66706 0.0
H339 H 0.64026 0.62926 0.61715 0.0
H340 H 0.57024 0.63158 0.71392 0.0
H341 H 0.6611 0.58723 0.73703 0.0
H342 H 0.71323 0.584 0.75148 0.0
H343 H 0.7158 0.62231 0.87345 0.0
H344 H 0.66365 0.62625 0.85929 0.0
H345 H 0.52041 0.52868 0.84676 0.0
H346 H 0.54894 0.55024 0.79679 0.0
H347 H 0.58673 0.60396 0.89735 0.0
H348 H 0.55817 0.58212 0.94761 0.0
H349 H 0.6245 0.58531 0.84769 0.0
H350 H 0.53144 0.62625 0.82494 0.0
H351 H 0.47921 0.627 0.80936 0.0
H352 H 0.4799 0.5921 0.68563 0.0
H353 H 0.53217 0.59077 0.70069 0.0
C354 C 0.66142 0.67043 0.70261 0.0
C355 C 0.66069 0.65925 0.66181 0.0
C356 C 0.64456 0.65913 0.7312 0.0
C357 C 0.62642 0.63694 0.71885 0.0
C358 C 0.62448 0.62688 0.67712 0.0
C359 C 0.64172 0.63774 0.64899 0.0
C360 C 0.61171 0.62235 0.75085 0.0
C361 C 0.58201 0.62132 0.74308 0.0
C362 C 0.62719 0.60908 0.78878 0.0
C363 C 0.65854 0.6074 0.79682 0.0
C364 C 0.67281 0.59533 0.76663 0.0
C365 C 0.70235 0.59329 0.77483 0.0
C366 C 0.71783 0.60302 0.81329 0.0
C367 C 0.70379 0.61485 0.84361 0.0
C368 C 0.67425 0.61701 0.8355 0.0
C369 C 0.5356 0.54444 0.85849 0.0
C370 C 0.53748 0.5538 0.90072 0.0
C371 C 0.5515 0.55695 0.82988 0.0
C372 C 0.56921 0.57914 0.84317 0.0
C373 C 0.57287 0.587 0.88656 0.0
C374 C 0.55692 0.57439 0.91531 0.0
C375 C 0.58304 0.59483 0.8113 0.0
C376 C 0.61264 0.59584 0.81884 0.0
C377 C 0.56734 0.60779 0.77305 0.0
C378 C 0.53581 0.60819 0.76415 0.0
C379 C 0.52049 0.61847 0.79459 0.0
C380 C 0.49086 0.61906 0.7858 0.0
C381 C 0.47625 0.60956 0.74656 0.0
C382 C 0.49125 0.59943 0.71603 0.0
C383 C 0.52089 0.59878 0.72467 0.0
H384 H 0.45332 0.6101 0.73978 0.0
H385 H 0.7407 0.60133 0.81966 0.0
H386 H 0.88408 0.15995 0.08788 0.0
H387 H 0.90419 0.1315 0.15199 0.0
H388 H 0.82689 0.13983 0.20342 0.0
H389 H 0.80647 0.16852 0.13885 0.0
H390 H 0.87327 0.15524 0.25956 0.0
H391 H 0.84635 0.07735 0.17282 0.0
H392 H 0.84271 0.04841 0.10915 0.0
H393 H 0.93334 0.04175 0.12812 0.0
H394 H 0.93759 0.07093 0.19161 0.0
H395 H 0.91965 0.06476 0.44448 0.0
H396 H 0.895 0.0904 0.37962 0.0
H397 H 0.96807 0.08173 0.31762 0.0
H398 H 0.99224 0.05522 0.38196 0.0
H399 H 0.92112 0.06428 0.26689 0.0
H400 H 0.94871 0.14406 0.34905 0.0
H401 H 0.95352 0.17152 0.41447 0.0
H402 H 0.863 0.17472 0.40298 0.0
H403 H 0.85765 0.14682 0.33789 0.0
C404 C 0.87128 0.15562 0.11273 0.0
C405 C 0.84393 0.16686 0.10891 0.0
C406 C 0.88266 0.13903 0.14903 0.0
C407 C 0.86695 0.13346 0.18225 0.0
C408 C 0.83925 0.14385 0.1779 0.0
C409 C 0.82768 0.16027 0.14122 0.0
C410 C 0.88092 0.1199 0.22366 0.0
C411 C 0.88324 0.13508 0.26135 0.0
C412 C 0.89475 0.09405 0.2254 0.0
C413 C 0.89228 0.07662 0.18686 0.0
C414 C 0.86553 0.06996 0.16321 0.0
C415 C 0.86335 0.05344 0.12719 0.0
C416 C 0.88777 0.04331 0.11453 0.0
C417 C 0.91443 0.04963 0.13794 0.0
C418 C 0.91673 0.06613 0.174 0.0
C419 C 0.93079 0.06945 0.41769 0.0
C420 C 0.9578 0.0585 0.41797 0.0
C421 C 0.91666 0.0838 0.38053 0.0
C422 C 0.92968 0.08777 0.34374 0.0
C423 C 0.95759 0.07864 0.34552 0.0
C424 C 0.97152 0.06395 0.38237 0.0
C425 C 0.91355 0.09977 0.30253 0.0
C426 C 0.91095 0.08434 0.26499 0.0
C427 C 0.89966 0.1255 0.30065 0.0
C428 C 0.90279 0.14315 0.33881 0.0
C429 C 0.92983 0.15051 0.36058 0.0
C430 C 0.93265 0.16614 0.39762 0.0
C431 C 0.90858 0.17479 0.41294 0.0
C432 C 0.88163 0.16796 0.3911 0.0
C433 C 0.87868 0.15227 0.35411 0.0
H434 H 0.91081 0.18684 0.44168 0.0
H435 H 0.88604 0.03053 0.08665 0.0
H436 H 0.34851 0.3752 0.55429 0.0
H437 H 0.38 0.39284 0.61783 0.0
H438 H 0.3109 0.38932 0.68999 0.0
H439 H 0.27935 0.37244 0.62605 0.0
H440 H 0.33647 0.43881 0.69318 0.0
H441 H 0.36643 0.34289 0.7102 0.0
H442 H 0.38667 0.29967 0.69009 0.0
H443 H 0.46372 0.34183 0.67605 0.0
H444 H 0.44378 0.38541 0.6955 0.0
H445 H 0.39504 0.46076 0.90709 0.0
H446 H 0.37326 0.43776 0.8415 0.0
H447 H 0.452 0.44386 0.79252 0.0
H448 H 0.47403 0.46614 0.85907 0.0
H449 H 0.42634 0.39675 0.77103 0.0
H450 H 0.39873 0.49158 0.75748 0.0
H451 H 0.37943 0.53574 0.77592 0.0
H452 H 0.29923 0.49723 0.78125 0.0
H453 H 0.31808 0.45281 0.76319 0.0
C454 C 0.34034 0.37788 0.58408 0.0
C455 C 0.31178 0.37249 0.58589 0.0
C456 C 0.35827 0.38783 0.62024 0.0
C457 C 0.34781 0.39219 0.65866 0.0
C458 C 0.31934 0.38611 0.66058 0.0
C459 C 0.30138 0.37646 0.62431 0.0
C460 C 0.3657 0.40493 0.696 0.0
C461 C 0.35595 0.42943 0.71058 0.0
C462 C 0.39189 0.39346 0.71709 0.0
C463 C 0.40343 0.36751 0.70368 0.0
C464 C 0.38752 0.34304 0.7022 0.0
C465 C 0.39899 0.31845 0.6911 0.0
C466 C 0.42642 0.31802 0.68164 0.0
C467 C 0.44244 0.3422 0.68325 0.0
C468 C 0.43106 0.36685 0.6943 0.0
C469 C 0.40797 0.45594 0.88319 0.0
C470 C 0.43627 0.46445 0.8883 0.0
C471 C 0.39542 0.44343 0.84535 0.0
C472 C 0.41081 0.43989 0.81165 0.0
C473 C 0.43973 0.44658 0.81806 0.0
C474 C 0.45241 0.45883 0.85629 0.0
C475 C 0.39632 0.42983 0.76951 0.0
C476 C 0.40692 0.40618 0.75355 0.0
C477 C 0.371 0.44224 0.74679 0.0
C478 C 0.35993 0.46876 0.75933 0.0
C479 C 0.37708 0.49244 0.76305 0.0
C480 C 0.36618 0.51756 0.77328 0.0
C481 C 0.33814 0.51927 0.77982 0.0
C482 C 0.32095 0.49588 0.77619 0.0
C483 C 0.33172 0.47074 0.7659 0.0
H484 H 0.32973 0.53874 0.78764 0.0
H485 H 0.4353 0.29894 0.67321 0.0
H486 H 0.66876 0.66297 0.40372 0.0
H487 H 0.64019 0.64921 0.33548 0.0
H488 H 0.58187 0.60742 0.40687 0.0
H489 H 0.6104 0.62094 0.47535 0.0
H490 H 0.60104 0.57445 0.35111 0.0
H491 H 0.56006 0.66509 0.34305 0.0
H492 H 0.55728 0.71591 0.34128 0.0
H493 H 0.60182 0.72103 0.23325 0.0
H494 H 0.6051 0.67028 0.23462 0.0
H495 H 0.50511 0.53777 0.16465 0.0
H496 H 0.52392 0.56082 0.23163 0.0
H497 H 0.58797 0.5997 0.16831 0.0
H498 H 0.56936 0.57604 0.1012 0.0
H499 H 0.5637 0.63421 0.22083 0.0
H500 H 0.60433 0.54388 0.22783 0.0
H501 H 0.60755 0.49316 0.22874 0.0
H502 H 0.56527 0.48675 0.33912 0.0
H503 H 0.56123 0.53743 0.33838 0.0
C504 C 0.64967 0.65114 0.40488 0.0
C505 C 0.64197 0.64282 0.44486 0.0
C506 C 0.63325 0.6435 0.36586 0.0
C507 C 0.60885 0.62749 0.36622 0.0
C508 C 0.60061 0.61987 0.40602 0.0
C509 C 0.61697 0.62757 0.44505 0.0
C510 C 0.5938 0.61627 0.32545 0.0
C511 C 0.59227 0.58748 0.32284 0.0
C512 C 0.58344 0.63337 0.28829 0.0
C513 C 0.58309 0.66389 0.28927 0.0
C514 C 0.56964 0.67707 0.31935 0.0
C515 C 0.56784 0.70586 0.31827 0.0
C516 C 0.57942 0.72169 0.28724 0.0
C517 C 0.5929 0.70876 0.25731 0.0
C518 C 0.59472 0.67999 0.25822 0.0
C519 C 0.52253 0.55211 0.16469 0.0
C520 C 0.53567 0.55568 0.12805 0.0
C521 C 0.5335 0.56481 0.20301 0.0
C522 C 0.55764 0.58133 0.20494 0.0
C523 C 0.56943 0.58673 0.16726 0.0
C524 C 0.55863 0.57367 0.12893 0.0
C525 C 0.57089 0.59251 0.24658 0.0
C526 C 0.57219 0.6212 0.24927 0.0
C527 C 0.58115 0.57524 0.28375 0.0
C528 C 0.58204 0.54459 0.28255 0.0
C529 C 0.5952 0.5317 0.25179 0.0
C530 C 0.59731 0.50292 0.25242 0.0
C531 C 0.58653 0.48674 0.28387 0.0
C532 C 0.57353 0.4993 0.31468 0.0
C533 C 0.57129 0.52806 0.31411 0.0
H534 H 0.58834 0.46449 0.28445 0.0
H535 H 0.57788 0.74397 0.28632 0.0
H536 H 0.88853 0.18759 0.8861 0.0
H537 H 0.90514 0.16083 0.83115 0.0
H538 H 0.84313 0.09796 0.84623 0.0
H539 H 0.82761 0.12401 0.9034 0.0
H540 H 0.89132 0.07492 0.8376 0.0
H541 H 0.83349 0.14989 0.75416 0.0
H542 H 0.82089 0.1989 0.73629 0.0
H543 H 0.90611 0.21614 0.71812 0.0
H544 H 0.91913 0.16729 0.73576 0.0
H545 H 0.92756 0.01321 0.64883 0.0
H546 H 0.89773 0.0335 0.69635 0.0
H547 H 0.94864 0.10744 0.70138 0.0
H548 H 0.9775 0.0876 0.65394 0.0
H549 H 0.89711 0.12125 0.69461 0.0
H550 H 0.95903 0.05382 0.78184 0.0
H551 H 0.97881 0.00751 0.80439 0.0
H552 H 0.89662 0.97872 0.82226 0.0
H553 H 0.87627 0.02482 0.79928 0.0
C554 C 0.87836 0.16813 0.87752 0.0
C555 C 0.85646 0.15807 0.89832 0.0
C556 C 0.88775 0.1529 0.84596 0.0
C557 C 0.87471 0.12782 0.83343 0.0
C558 C 0.85327 0.11741 0.85499 0.0
C559 C 0.84436 0.13233 0.88746 0.0
C560 C 0.88353 0.11256 0.7979 0.0
C561 C 0.8921 0.08486 0.806 0.0
C562 C 0.88524 0.1257 0.75706 0.0
C563 C 0.87724 0.155 0.74632 0.0
C564 C 0.8495 0.16418 0.74641 0.0
C565 C 0.8423 0.19191 0.73627 0.0
C566 C 0.86269 0.21062 0.72609 0.0
C567 C 0.89031 0.20164 0.72591 0.0
C568 C 0.89758 0.17393 0.7358 0.0
C569 C 0.93166 0.03403 0.65943 0.0
C570 C 0.95459 0.04903 0.64818 0.0
C571 C 0.91496 0.04545 0.68683 0.0
C572 C 0.92123 0.07184 0.70287 0.0
C573 C 0.94335 0.08709 0.6895 0.0
C574 C 0.95986 0.07578 0.66247 0.0
C575 C 0.90587 0.08394 0.73472 0.0
C576 C 0.8958 0.11104 0.72585 0.0
C577 C 0.90393 0.07054 0.77533 0.0
C578 C 0.91604 0.04266 0.78819 0.0
C579 C 0.94511 0.03754 0.79009 0.0
C580 C 0.95644 0.01135 0.80307 0.0
C581 C 0.93896 0.99016 0.81459 0.0
C582 C 0.91012 -0.00487 0.8132 0.0
C583 C 0.89867 0.02128 0.80018 0.0
H584 H 0.94778 0.96992 0.82474 0.0
H585 H 0.85707 0.23207 0.71833 0.0
H586 H 0.36173 0.39116 0.41845 0.0
H587 H 0.38873 0.40431 0.36129 0.0
H588 H 0.31348 0.39654 0.26421 0.0
H589 H 0.28642 0.3828 0.32111 0.0
H590 H 0.36011 0.3785 0.23526 0.0
H591 H 0.33436 0.45938 0.3085 0.0
H592 H 0.33416 0.48759 0.37227 0.0
H593 H 0.42511 0.48889 0.39644 0.0
H594 H 0.42586 0.46041 0.33311 0.0
H595 H 0.40747 0.4589 0.06439 0.0
H596 H 0.37789 0.44331 0.11817 0.0
H597 H 0.44802 0.45683 0.2223 0.0
H598 H 0.47664 0.47303 0.16964 0.0
H599 H 0.40308 0.47166 0.24699 0.0
H600 H 0.43218 0.39178 0.18035 0.0
H601 H 0.43663 0.36195 0.11994 0.0
H602 H 0.34605 0.3561 0.08766 0.0
H603 H 0.34105 0.38615 0.14762 0.0
C604 C 0.35097 0.39192 0.38489 0.0
C605 C 0.32178 0.38642 0.37435 0.0
C606 C 0.36644 0.39949 0.35227 0.0
C607 C 0.35294 0.40204 0.30859 0.0
C608 C 0.32425 0.39492 0.29775 0.0
C609 C 0.30878 0.3872 0.33034 0.0
C610 C 0.36798 0.41404 0.27453 0.0
C611 C 0.36927 0.39898 0.23753 0.0
C612 C 0.38064 0.44045 0.27815 0.0
C613 C 0.38014 0.45757 0.31627 0.0
C614 C 0.35431 0.46553 0.32758 0.0
C615 C 0.3541 0.48159 0.36363 0.0
C616 C 0.37961 0.48998 0.38844 0.0
C617 C 0.40538 0.48236 0.37723 0.0
C618 C 0.4057 0.46627 0.34125 0.0
C619 C 0.41607 0.45912 0.09883 0.0
C620 C 0.44427 0.46683 0.11303 0.0
C621 C 0.39941 0.44993 0.12946 0.0
C622 C 0.41097 0.44836 0.17429 0.0
C623 C 0.4386 0.45771 0.18809 0.0
C624 C 0.45497 0.4669 0.15788 0.0
C625 C 0.3952 0.43621 0.20742 0.0
C626 C 0.39384 0.45121 0.24445 0.0
C627 C 0.38324 0.40947 0.20432 0.0
C628 C 0.38622 0.39148 0.16816 0.0
C629 C 0.4132 0.38431 0.16015 0.0
C630 C 0.41583 0.36733 0.12604 0.0
C631 C 0.39164 0.35721 0.09989 0.0
C632 C 0.36477 0.364 0.10788 0.0
C633 C 0.36203 0.38098 0.14195 0.0
H634 H 0.39371 0.34406 0.07351 0.0
H635 H 0.37939 0.50243 0.41629 0.0
H636 H 0.1482 0.88958 0.01617 0.0
H637 H 0.11597 0.90616 0.95013 0.0
H638 H 0.17043 0.87026 0.87109 0.0
H639 H 0.20217 0.8528 0.93717 0.0
H640 H 0.15757 0.92902 0.85597 0.0
H641 H 0.11143 0.84067 0.87093 0.0
H642 H 0.08644 0.8045 0.90727 0.0
H643 H 0.02107 0.8624 0.91934 0.0
H644 H 0.04586 0.89903 0.88343 0.0
H645 H 0.09267 0.9466 0.64223 0.0
H646 H 0.11299 0.92398 0.71235 0.0
H647 H 0.0407 0.94944 0.7663 0.0
H648 H 0.01976 0.97093 0.69538 0.0
H649 H 0.05889 0.90017 0.80058 0.0
H650 H 0.10174 0.9878 0.78425 0.0
H651 H 0.1257 0.02577 0.75 0.0
H652 H 0.19622 0.9725 0.74483 0.0
H653 H 0.17263 0.93418 0.7788 0.0
C654 C 0.15303 0.8851 0.98457 0.0
C655 C 0.17756 0.87022 0.98123 0.0
C656 C 0.1346 0.89435 0.9471 0.0
C657 C 0.14088 0.88928 0.906 0.0
C658 C 0.16525 0.87412 0.9027 0.0
C659 C 0.18331 0.86426 0.94019 0.0
C660 C 0.12355 0.90189 0.86645 0.0
C661 C 0.13611 0.92252 0.84347 0.0
C662 C 0.09507 0.89438 0.85188 0.0
C663 C 0.08071 0.87268 0.875 0.0
C664 C 0.09195 0.8458 0.88189 0.0
C665 C 0.07774 0.82518 0.90223 0.0
C666 C 0.05223 0.83117 0.91572 0.0
C667 C 0.04087 0.85781 0.90894 0.0
C668 C 0.05498 0.8785 0.88857 0.0
C669 C 0.08067 0.9463 0.66861 0.0
C670 C 0.05455 0.95994 0.66347 0.0
C671 C 0.09244 0.93386 0.7088 0.0
C672 C 0.07872 0.93576 0.74482 0.0
C673 C 0.05169 0.94784 0.73898 0.0
C674 C 0.03963 0.95981 0.69843 0.0
C675 C 0.09345 0.92634 0.7887 0.0
C676 C 0.0803 0.90679 0.81304 0.0
C677 C 0.12131 0.93519 0.80515 0.0
C678 C 0.13528 0.95804 0.78374 0.0
C679 C 0.12224 0.98412 0.77545 0.0
C680 C 0.13581 0.00573 0.75622 0.0
C681 C 0.16244 0.00153 0.74517 0.0
C682 C 0.17559 0.97572 0.75339 0.0
C683 C 0.16216 0.95407 0.77271 0.0
H684 H 0.17291 0.01829 0.73032 0.0
H685 H 0.04122 0.81515 0.93132 0.0
loop_
_geom_bond_atom_site_label_1
_geom_bond_atom_site_label_2
_geom_bond_distance
_geom_bond_site_symmetry_2
_ccdc_geom_bond_type
O0 Cd1 2.300 . S
O0 C7 1.275 . S
Cd1 O0 2.300 . S
Cd1 O9 2.381 . S
Cd1 O10 2.378 . S
O2 Cd3 2.385 . S
O2 C7 1.255 . S
Cd3 O2 2.385 . S
Cd3 O4 2.317 . S
O4 Cd3 2.317 . S
O4 C5 1.232 . S
C5 O4 1.232 . S
C5 O6 1.218 . S
O6 C5 1.218 . S
C7 O0 1.275 . S
C7 O2 1.255 . S
C8 O9 1.258 . S
C8 O10 1.256 . S
O9 Cd1 2.381 . S
O9 C8 1.258 . S
O10 Cd1 2.378 . S
O10 C8 1.256 . S
O11 Cd12 2.300 . S
O11 C18 1.275 . S
Cd12 O11 2.300 . S
Cd12 O20 2.381 . S
Cd12 O21 2.378 . S
O13 Cd14 2.385 . S
O13 C18 1.255 . S
Cd14 O13 2.385 . S
Cd14 O15 2.317 . S
O15 Cd14 2.317 . S
O15 C16 1.232 . S
C16 O15 1.232 . S
C16 O17 1.218 . S
O17 C16 1.218 . S
C18 O11 1.275 . S
C18 O13 1.255 . S
C19 O20 1.258 . S
C19 O21 1.256 . S
O20 Cd12 2.381 . S
O20 C19 1.258 . S
O21 Cd12 2.378 . S
O21 C19 1.256 . S
O22 Cd23 2.300 . S
O22 C29 1.275 . S
Cd23 O22 2.300 . S
Cd23 O31 2.381 . S
Cd23 O32 2.378 1_554 S
O24 Cd25 2.385 1_554 S
O24 C29 1.255 . S
Cd25 O24 2.385 1_556 S
Cd25 O26 2.317 . S
O26 Cd25 2.317 . S
O26 C27 1.232 . S
C27 O26 1.232 . S
C27 O28 1.218 . S
O28 C27 1.218 . S
C29 O22 1.275 . S
C29 O24 1.255 . S
C30 O31 1.258 . S
C30 O32 1.256 1_554 S
O31 Cd23 2.381 . S
O31 C30 1.258 . S
O32 Cd23 2.378 1_556 S
O32 C30 1.256 1_556 S
O33 Cd34 2.300 . S
O33 C40 1.275 . S
Cd34 O33 2.300 . S
Cd34 O42 2.381 . S
Cd34 O43 2.378 . S
O35 Cd36 2.385 . S
O35 C40 1.255 . S
Cd36 O35 2.385 . S
Cd36 O37 2.317 . S
O37 Cd36 2.317 . S
O37 C38 1.232 . S
C38 O37 1.232 . S
C38 O39 1.218 . S
O39 C38 1.218 . S
C40 O33 1.275 . S
C40 O35 1.255 . S
C41 O42 1.258 . S
C41 O43 1.256 . S
O42 Cd34 2.381 . S
O42 C41 1.258 . S
O43 Cd34 2.378 . S
O43 C41 1.256 . S
O44 Mg45 2.022 . S
O44 C58 1.230 1_455 S
Mg45 O44 2.022 . S
Mg45 O48 2.180 . S
Mg45 O49 2.117 . S
Mg45 O63 2.030 . S
O46 Mg47 2.072 1_655 S
O46 C58 1.260 . S
Mg47 O46 2.072 1_455 S
Mg47 O48 2.099 . S
Mg47 O50 2.079 1_545 S
Mg47 O51 2.072 1_455 S
Mg47 O53 2.099 1_445 S
Mg47 O64 2.079 1_545 S
O48 Mg45 2.180 . S
O48 Mg47 2.099 . S
O48 C59 1.279 . S
O49 Mg45 2.117 . S
O49 C59 1.250 . S
O50 Mg47 2.079 1_565 S
O50 C60 1.264 . S
O51 Mg47 2.072 1_655 S
O51 C61 1.260 . S
Mg52 O53 2.180 . S
Mg52 O54 2.030 1_655 S
Mg52 O55 1.990 1_565 S
Mg52 O56 2.117 . S
O53 Mg47 2.099 1_665 S
O53 Mg52 2.180 . S
O53 C62 1.279 . S
O54 Mg52 2.030 1_455 S
O54 C60 1.248 . S
O55 Mg52 1.990 1_545 S
O55 C61 1.253 . S
O56 Mg52 2.117 . S
O56 C62 1.250 . S
C57 O63 1.248 1_565 S
C57 O64 1.264 . S
C58 O44 1.230 1_655 S
C58 O46 1.260 . S
C59 O48 1.279 . S
C59 O49 1.250 . S
C60 O50 1.264 . S
C60 O54 1.248 . S
C61 O51 1.260 . S
C61 O55 1.253 . S
C62 O53 1.279 . S
C62 O56 1.250 . S
O63 Mg45 2.030 . S
O63 C57 1.248 1_545 S
O64 Mg47 2.079 1_565 S
O64 C57 1.264 . S
O65 Mg66 1.990 . S
O65 C79 1.253 . S
Mg66 O65 1.990 . S
Mg66 O69 2.180 . S
Mg66 O70 2.117 . S
Mg66 O84 2.030 . S
O67 Mg68 2.072 . S
O67 C79 1.260 . S
Mg68 O67 2.072 . S
Mg68 O69 2.099 . S
Mg68 O71 2.079 1_554 S
Mg68 O72 2.072 1_554 S
Mg68 O74 2.099 1_554 S
Mg68 O85 2.079 . S
O69 Mg66 2.180 . S
O69 Mg68 2.099 . S
O69 C80 1.279 . S
O70 Mg66 2.117 . S
O70 C80 1.250 . S
O71 Mg68 2.079 1_556 S
O71 C81 1.264 . S
O72 Mg68 2.072 1_556 S
O72 C82 1.260 . S
Mg73 O74 2.180 . S
Mg73 O75 2.030 . S
Mg73 O76 1.990 . S
Mg73 O77 2.117 . S
O74 Mg68 2.099 1_556 S
O74 Mg73 2.180 . S
O74 C83 1.279 1_556 S
O75 Mg73 2.030 . S
O75 C81 1.248 . S
O76 Mg73 1.990 . S
O76 C82 1.253 . S
O77 Mg73 2.117 . S
O77 C83 1.250 1_556 S
C78 O84 1.248 . S
C78 O85 1.264 . S
C79 O65 1.253 . S
C79 O67 1.260 . S
C80 O69 1.279 . S
C80 O70 1.250 . S
C81 O71 1.264 . S
C81 O75 1.248 . S
C82 O72 1.260 . S
C82 O76 1.253 . S
C83 O74 1.279 1_554 S
C83 O77 1.250 1_554 S
O84 Mg66 2.030 . S
O84 C78 1.248 . S
O85 Mg68 2.079 . S
O85 C78 1.264 . S
H86 C104 0.951 . S
H87 C106 0.951 . S
H88 C108 0.950 . S
H89 C109 0.950 . S
H90 C111 0.950 . S
H91 C114 0.950 . S
H92 C115 0.950 . S
H93 C117 0.950 . S
H94 C118 0.950 . S
H95 C119 0.951 . S
H96 C121 0.951 . S
H97 C123 0.950 . S
H98 C124 0.950 . S
H99 C126 0.950 . S
H100 C129 0.950 . S
H101 C130 0.950 . S
H102 C132 0.950 . S
H103 C133 0.950 . S
C104 H86 0.951 . S
C104 C105 1.366 . S
C104 C106 1.388 . S
C105 C104 1.366 . S
C105 C109 1.385 . S
C106 H87 0.951 . S
C106 C104 1.388 . S
C106 C107 1.366 . S
C107 C106 1.366 . S
C107 C108 1.414 . S
C107 C110 1.499 . S
C108 H88 0.950 . S
C108 C107 1.414 . S
C108 C109 1.374 . S
C109 H89 0.950 . S
C109 C105 1.385 . S
C109 C108 1.374 . S
C110 C107 1.499 . S
C110 C111 1.373 . S
C110 C112 1.389 . S
C111 H90 0.950 . S
C111 C110 1.373 . S
C111 C127 1.377 . S
C112 C110 1.389 . S
C112 C113 1.524 . S
C112 C126 1.377 . S
C113 C112 1.524 . S
C113 C114 1.397 . S
C113 C118 1.363 . S
C114 H91 0.950 . S
C114 C113 1.397 . S
C114 C115 1.334 . S
C115 H92 0.950 . S
C115 C114 1.334 . S
C115 C116 1.287 . S
C116 C115 1.287 . S
C116 C117 1.524 . S
C116 H135 0.913 . S
C117 H93 0.950 . S
C117 C116 1.524 . S
C117 C118 1.415 . S
C118 H94 0.950 . S
C118 C113 1.363 . S
C118 C117 1.415 . S
C119 H95 0.951 . S
C119 C120 1.366 . S
C119 C121 1.388 . S
C120 C119 1.366 . S
C120 C124 1.385 . S
C121 H96 0.951 . S
C121 C119 1.388 . S
C121 C122 1.366 . S
C122 C121 1.366 . S
C122 C123 1.414 . S
C122 C125 1.499 . S
C123 H97 0.950 . S
C123 C122 1.414 . S
C123 C124 1.374 . S
C124 H98 0.950 . S
C124 C120 1.385 . S
C124 C123 1.374 . S
C125 C122 1.499 . S
C125 C126 1.373 . S
C125 C127 1.389 . S
C126 H99 0.950 . S
C126 C112 1.377 . S
C126 C125 1.373 . S
C127 C111 1.377 . S
C127 C125 1.389 . S
C127 C128 1.524 . S
C128 C127 1.524 . S
C128 C129 1.397 . S
C128 C133 1.363 . S
C129 H100 0.950 . S
C129 C128 1.397 . S
C129 C130 1.334 . S
C130 H101 0.950 . S
C130 C129 1.334 . S
C130 C131 1.287 . S
C131 C130 1.287 . S
C131 C132 1.524 . S
C131 H134 0.999 . S
C132 H102 0.950 . S
C132 C131 1.524 . S
C132 C133 1.415 . S
C133 H103 0.950 . S
C133 C128 1.363 . S
C133 C132 1.415 . S
H134 C131 0.999 . S
H135 C116 0.913 . S
H136 C154 0.951 . S
H137 C156 0.951 . S
H138 C158 0.950 . S
H139 C159 0.950 . S
H140 C161 0.950 . S
H141 C164 0.950 . S
H142 C165 0.950 . S
H143 C167 0.950 . S
H144 C168 0.950 1_554 S
H145 C169 0.951 . S
H146 C171 0.951 . S
H147 C173 0.950 . S
H148 C174 0.950 . S
H149 C176 0.950 . S
H150 C179 0.950 . S
H151 C180 0.950 . S
H152 C182 0.950 . S
H153 C183 0.950 . S
C154 H136 0.951 . S
C154 C155 1.366 . S
C154 C156 1.388 . S
C155 C154 1.366 . S
C155 C159 1.385 . S
C156 H137 0.951 . S
C156 C154 1.388 . S
C156 C157 1.366 . S
C157 C156 1.366 . S
C157 C158 1.414 . S
C157 C160 1.499 . S
C158 H138 0.950 . S
C158 C157 1.414 . S
C158 C159 1.374 . S
C159 H139 0.950 . S
C159 C155 1.385 . S
C159 C158 1.374 . S
C160 C157 1.499 . S
C160 C161 1.373 . S
C160 C162 1.389 . S
C161 H140 0.950 . S
C161 C160 1.373 . S
C161 C177 1.377 . S
C162 C160 1.389 . S
C162 C163 1.524 1_554 S
C162 C176 1.377 . S
C163 C162 1.524 1_556 S
C163 C164 1.397 . S
C163 C168 1.363 . S
C164 H141 0.950 . S
C164 C163 1.397 . S
C164 C165 1.334 . S
C165 H142 0.950 . S
C165 C164 1.334 . S
C165 C166 1.287 . S
C166 C165 1.287 . S
C166 C167 1.524 . S
C166 H185 0.913 . S
C167 H143 0.950 . S
C167 C166 1.524 . S
C167 C168 1.415 . S
C168 H144 0.950 1_556 S
C168 C163 1.363 . S
C168 C167 1.415 . S
C169 H145 0.951 . S
C169 C170 1.366 . S
C169 C171 1.388 . S
C170 C169 1.366 . S
C170 C174 1.385 . S
C171 H146 0.951 . S
C171 C169 1.388 . S
C171 C172 1.366 . S
C172 C171 1.366 . S
C172 C173 1.414 . S
C172 C175 1.499 . S
C173 H147 0.950 . S
C173 C172 1.414 . S
C173 C174 1.374 . S
C174 H148 0.950 . S
C174 C170 1.385 . S
C174 C173 1.374 . S
C175 C172 1.499 . S
C175 C176 1.373 . S
C175 C177 1.389 . S
C176 H149 0.950 . S
C176 C162 1.377 . S
C176 C175 1.373 . S
C177 C161 1.377 . S
C177 C175 1.389 . S
C177 C178 1.524 . S
C178 C177 1.524 . S
C178 C179 1.397 . S
C178 C183 1.363 . S
C179 H150 0.950 . S
C179 C178 1.397 . S
C179 C180 1.334 . S
C180 H151 0.950 . S
C180 C179 1.334 . S
C180 C181 1.287 . S
C181 C180 1.287 . S
C181 C182 1.524 . S
C181 H184 0.999 . S
C182 H152 0.950 . S
C182 C181 1.524 . S
C182 C183 1.415 . S
C183 H153 0.950 . S
C183 C178 1.363 . S
C183 C182 1.415 . S
H184 C181 0.999 . S
H185 C166 0.913 . S
H186 C204 0.951 . S
H187 C206 0.951 . S
H188 C208 0.950 . S
H189 C209 0.950 . S
H190 C211 0.950 . S
H191 C214 0.950 . S
H192 C215 0.950 . S
H193 C217 0.950 . S
H194 C218 0.950 . S
H195 C219 0.951 . S
H196 C221 0.951 . S
H197 C223 0.950 . S
H198 C224 0.950 . S
H199 C226 0.950 . S
H200 C229 0.950 . S
H201 C230 0.950 . S
H202 C232 0.950 . S
H203 C233 0.950 . S
C204 H186 0.951 . S
C204 C205 1.366 . S
C204 C206 1.388 . S
C205 C204 1.366 . S
C205 C209 1.385 . S
C206 H187 0.951 . S
C206 C204 1.388 . S
C206 C207 1.366 . S
C207 C206 1.366 . S
C207 C208 1.414 . S
C207 C210 1.499 . S
C208 H188 0.950 . S
C208 C207 1.414 . S
C208 C209 1.374 . S
C209 H189 0.950 . S
C209 C205 1.385 . S
C209 C208 1.374 . S
C210 C207 1.499 . S
C210 C211 1.373 . S
C210 C212 1.389 . S
C211 H190 0.950 . S
C211 C210 1.373 . S
C211 C227 1.377 . S
C212 C210 1.389 . S
C212 C213 1.524 . S
C212 C226 1.377 . S
C213 C212 1.524 . S
C213 C214 1.397 . S
C213 C218 1.363 . S
C214 H191 0.950 . S
C214 C213 1.397 . S
C214 C215 1.334 . S
C215 H192 0.950 . S
C215 C214 1.334 . S
C215 C216 1.287 . S
C216 C215 1.287 . S
C216 C217 1.524 . S
C216 H235 0.913 . S
C217 H193 0.950 . S
C217 C216 1.524 . S
C217 C218 1.415 . S
C218 H194 0.950 . S
C218 C213 1.363 . S
C218 C217 1.415 . S
C219 H195 0.951 . S
C219 C220 1.366 . S
C219 C221 1.388 . S
C220 C219 1.366 . S
C220 C224 1.385 . S
C221 H196 0.951 . S
C221 C219 1.388 . S
C221 C222 1.366 . S
C222 C221 1.366 . S
C222 C223 1.414 . S
C222 C225 1.499 . S
C223 H197 0.950 . S
C223 C222 1.414 . S
C223 C224 1.374 . S
C224 H198 0.950 . S
C224 C220 1.385 . S
C224 C223 1.374 . S
C225 C222 1.499 . S
C225 C226 1.373 . S
C225 C227 1.389 . S
C226 H199 0.950 . S
C226 C212 1.377 . S
C226 C225 1.373 . S
C227 C211 1.377 . S
C227 C225 1.389 . S
C227 C228 1.524 . S
C228 C227 1.524 . S
C228 C229 1.397 . S
C228 C233 1.363 . S
C229 H200 0.950 . S
C229 C228 1.397 . S
C229 C230 1.334 . S
C230 H201 0.950 . S
C230 C229 1.334 . S
C230 C231 1.287 . S
C231 C230 1.287 . S
C231 C232 1.524 . S
C231 H234 0.999 . S
C232 H202 0.950 . S
C232 C231 1.524 . S
C232 C233 1.415 . S
C233 H203 0.950 . S
C233 C228 1.363 . S
C233 C232 1.415 . S
H234 C231 0.999 . S
H235 C216 0.913 . S
H236 C254 0.951 . S
H237 C256 0.951 . S
H238 C258 0.950 1_556 S
H239 C259 0.946 1_556 S
H240 C261 0.950 . S
H241 C264 0.950 . S
H242 C265 0.950 . S
H243 C267 0.950 . S
H244 C268 0.950 . S
H245 C269 0.951 1_556 S
H246 C271 0.951 1_556 S
H247 C273 0.950 . S
H248 C274 0.950 . S
H249 C276 0.950 . S
H250 C279 0.950 . S
H251 C280 0.950 . S
H252 C282 0.950 . S
H253 C283 0.950 . S
C254 H236 0.951 . S
C254 C255 1.366 . S
C254 C256 1.388 . S
C255 C254 1.366 . S
C255 C259 1.385 . S
C256 H237 0.951 . S
C256 C254 1.388 . S
C256 C257 1.366 . S
C257 C256 1.366 . S
C257 C258 1.414 . S
C257 C260 1.499 . S
C258 H238 0.950 1_554 S
C258 C257 1.414 . S
C258 C259 1.374 . S
C259 H239 0.946 1_554 S
C259 C255 1.385 . S
C259 C258 1.374 . S
C260 C257 1.499 . S
C260 C261 1.373 1_554 S
C260 C262 1.389 . S
C261 H240 0.950 . S
C261 C260 1.373 1_556 S
C261 C277 1.377 . S
C262 C260 1.389 . S
C262 C263 1.524 . S
C262 C276 1.377 . S
C263 C262 1.524 . S
C263 C264 1.397 . S
C263 C268 1.363 . S
C264 H241 0.950 . S
C264 C263 1.397 . S
C264 C265 1.334 . S
C265 H242 0.950 . S
C265 C264 1.334 . S
C265 C266 1.287 . S
C266 C265 1.287 . S
C266 C267 1.524 . S
C266 H285 0.913 . S
C267 H243 0.950 . S
C267 C266 1.524 . S
C267 C268 1.415 . S
C268 H244 0.950 . S
C268 C263 1.363 . S
C268 C267 1.415 . S
C269 H245 0.951 1_554 S
C269 C270 1.366 . S
C269 C271 1.388 . S
C270 C269 1.366 . S
C270 C274 1.385 . S
C271 H246 0.951 1_554 S
C271 C269 1.388 . S
C271 C272 1.366 . S
C272 C271 1.366 . S
C272 C273 1.414 . S
C272 C275 1.499 . S
C273 H247 0.950 . S
C273 C272 1.414 . S
C273 C274 1.374 . S
C274 H248 0.950 . S
C274 C270 1.385 . S
C274 C273 1.374 . S
C275 C272 1.499 . S
C275 C276 1.373 . S
C275 C277 1.389 1_554 S
C276 H249 0.950 . S
C276 C262 1.377 . S
C276 C275 1.373 . S
C277 C261 1.377 . S
C277 C275 1.389 1_556 S
C277 C278 1.524 . S
C278 C277 1.524 . S
C278 C279 1.397 . S
C278 C283 1.363 . S
C279 H250 0.950 . S
C279 C278 1.397 . S
C279 C280 1.334 . S
C280 H251 0.950 . S
C280 C279 1.334 . S
C280 C281 1.287 . S
C281 C280 1.287 . S
C281 C282 1.524 . S
C281 H284 0.999 . S
C282 H252 0.950 . S
C282 C281 1.524 . S
C282 C283 1.415 . S
C283 H253 0.950 . S
C283 C278 1.363 . S
C283 C282 1.415 . S
H284 C281 0.999 . S
H285 C266 0.913 . S
H286 C304 0.951 . S
H287 C306 0.951 . S
H288 C308 0.950 . S
H289 C309 0.950 . S
H290 C311 0.950 . S
H291 C314 0.950 . S
H292 C315 0.950 . S
H293 C317 0.950 . S
H294 C318 0.950 . S
H295 C319 0.951 1_545 S
H296 C321 0.951 . S
H297 C323 0.950 . S
H298 C324 0.950 . S
H299 C326 0.950 . S
H300 C329 0.950 . S
H301 C330 0.950 . S
H302 C332 0.943 1_545 S
H303 C333 0.950 . S
C304 H286 0.951 . S
C304 C305 1.366 . S
C304 C306 1.388 . S
C305 C304 1.366 . S
C305 C309 1.385 . S
C306 H287 0.951 . S
C306 C304 1.388 . S
C306 C307 1.366 . S
C307 C306 1.366 . S
C307 C308 1.414 . S
C307 C310 1.499 . S
C308 H288 0.950 . S
C308 C307 1.414 . S
C308 C309 1.374 . S
C309 H289 0.950 . S
C309 C305 1.385 . S
C309 C308 1.374 . S
C310 C307 1.499 . S
C310 C311 1.373 . S
C310 C312 1.389 . S
C311 H290 0.950 . S
C311 C310 1.373 . S
C311 C327 1.377 . S
C312 C310 1.389 . S
C312 C313 1.524 . S
C312 C326 1.377 . S
C313 C312 1.524 . S
C313 C314 1.397 . S
C313 C318 1.363 . S
C314 H291 0.950 . S
C314 C313 1.397 . S
C314 C315 1.334 . S
C315 H292 0.950 . S
C315 C314 1.334 . S
C315 C316 1.287 . S
C316 C315 1.287 . S
C316 C317 1.524 . S
C316 H335 0.913 . S
C317 H293 0.950 . S
C317 C316 1.524 . S
C317 C318 1.415 . S
C318 H294 0.950 . S
C318 C313 1.363 . S
C318 C317 1.415 . S
C319 H295 0.951 1_565 S
C319 C320 1.366 . S
C319 C321 1.388 . S
C320 C319 1.366 . S
C320 C324 1.385 . S
C321 H296 0.951 . S
C321 C319 1.388 . S
C321 C322 1.366 . S
C322 C321 1.366 . S
C322 C323 1.414 . S
C322 C325 1.499 . S
C323 H297 0.950 . S
C323 C322 1.414 . S
C323 C324 1.374 . S
C324 H298 0.950 . S
C324 C320 1.385 . S
C324 C323 1.374 . S
C325 C322 1.499 . S
C325 C326 1.373 . S
C325 C327 1.389 . S
C326 H299 0.950 . S
C326 C312 1.377 . S
C326 C325 1.373 . S
C327 C311 1.377 . S
C327 C325 1.389 . S
C327 C328 1.524 . S
C328 C327 1.524 . S
C328 C329 1.397 . S
C328 C333 1.363 . S
C329 H300 0.950 . S
C329 C328 1.397 . S
C329 C330 1.334 . S
C330 H301 0.950 . S
C330 C329 1.334 . S
C330 C331 1.287 . S
C331 C330 1.287 . S
C331 C332 1.527 . S
C331 H334 0.999 . S
C332 H302 0.943 1_565 S
C332 C331 1.527 . S
C332 C333 1.419 . S
C333 H303 0.950 . S
C333 C328 1.363 . S
C333 C332 1.419 . S
H334 C331 0.999 . S
H335 C316 0.913 . S
H336 C354 0.951 . S
H337 C356 0.951 . S
H338 C358 0.950 . S
H339 C359 0.950 . S
H340 C361 0.950 . S
H341 C364 0.950 . S
H342 C365 0.950 . S
H343 C367 0.950 . S
H344 C368 0.950 . S
H345 C369 0.951 . S
H346 C371 0.951 . S
H347 C373 0.950 . S
H348 C374 0.950 . S
H349 C376 0.950 . S
H350 C379 0.950 . S
H351 C380 0.950 . S
H352 C382 0.950 . S
H353 C383 0.950 . S
C354 H336 0.951 . S
C354 C355 1.366 . S
C354 C356 1.388 . S
C355 C354 1.366 . S
C355 C359 1.385 . S
C356 H337 0.951 . S
C356 C354 1.388 . S
C356 C357 1.366 . S
C357 C356 1.366 . S
C357 C358 1.414 . S
C357 C360 1.499 . S
C358 H338 0.950 . S
C358 C357 1.414 . S
C358 C359 1.374 . S
C359 H339 0.950 . S
C359 C355 1.385 . S
C359 C358 1.374 . S
C360 C357 1.499 . S
C360 C361 1.373 . S
C360 C362 1.389 . S
C361 H340 0.950 . S
C361 C360 1.373 . S
C361 C377 1.377 . S
C362 C360 1.389 . S
C362 C363 1.524 . S
C362 C376 1.377 . S
C363 C362 1.524 . S
C363 C364 1.397 . S
C363 C368 1.363 . S
C364 H341 0.950 . S
C364 C363 1.397 . S
C364 C365 1.334 . S
C365 H342 0.950 . S
C365 C364 1.334 . S
C365 C366 1.287 . S
C366 C365 1.287 . S
C366 C367 1.524 . S
C366 H385 0.913 . S
C367 H343 0.950 . S
C367 C366 1.524 . S
C367 C368 1.415 . S
C368 H344 0.950 . S
C368 C363 1.363 . S
C368 C367 1.415 . S
C369 H345 0.951 . S
C369 C370 1.366 . S
C369 C371 1.388 . S
C370 C369 1.366 . S
C370 C374 1.385 . S
C371 H346 0.951 . S
C371 C369 1.388 . S
C371 C372 1.366 . S
C372 C371 1.366 . S
C372 C373 1.414 . S
C372 C375 1.499 . S
C373 H347 0.950 . S
C373 C372 1.414 . S
C373 C374 1.374 . S
C374 H348 0.950 . S
C374 C370 1.385 . S
C374 C373 1.374 . S
C375 C372 1.499 . S
C375 C376 1.373 . S
C375 C377 1.389 . S
C376 H349 0.950 . S
C376 C362 1.377 . S
C376 C375 1.373 . S
C377 C361 1.377 . S
C377 C375 1.389 . S
C377 C378 1.524 . S
C378 C377 1.524 . S
C378 C379 1.397 . S
C378 C383 1.363 . S
C379 H350 0.950 . S
C379 C378 1.397 . S
C379 C380 1.334 . S
C380 H351 0.950 . S
C380 C379 1.334 . S
C380 C381 1.287 . S
C381 C380 1.287 . S
C381 C382 1.524 . S
C381 H384 0.999 . S
C382 H352 0.950 . S
C382 C381 1.524 . S
C382 C383 1.415 . S
C383 H353 0.950 . S
C383 C378 1.363 . S
C383 C382 1.415 . S
H384 C381 0.999 . S
H385 C366 0.913 . S
H386 C404 0.951 . S
H387 C406 0.951 . S
H388 C408 0.950 . S
H389 C409 0.950 . S
H390 C411 0.950 . S
H391 C414 0.950 . S
H392 C415 0.950 . S
H393 C417 0.950 . S
H394 C418 0.950 . S
H395 C419 0.951 . S
H396 C421 0.951 . S
H397 C423 0.950 . S
H398 C424 0.950 . S
H399 C426 0.950 . S
H400 C429 0.950 . S
H401 C430 0.950 . S
H402 C432 0.950 . S
H403 C433 0.950 . S
C404 H386 0.951 . S
C404 C405 1.366 . S
C404 C406 1.388 . S
C405 C404 1.366 . S
C405 C409 1.385 . S
C406 H387 0.951 . S
C406 C404 1.388 . S
C406 C407 1.366 . S
C407 C406 1.366 . S
C407 C408 1.414 . S
C407 C410 1.499 . S
C408 H388 0.950 . S
C408 C407 1.414 . S
C408 C409 1.374 . S
C409 H389 0.950 . S
C409 C405 1.385 . S
C409 C408 1.374 . S
C410 C407 1.499 . S
C410 C411 1.373 . S
C410 C412 1.389 . S
C411 H390 0.950 . S
C411 C410 1.373 . S
C411 C427 1.377 . S
C412 C410 1.389 . S
C412 C413 1.524 . S
C412 C426 1.377 . S
C413 C412 1.524 . S
C413 C414 1.397 . S
C413 C418 1.363 . S
C414 H391 0.950 . S
C414 C413 1.397 . S
C414 C415 1.334 . S
C415 H392 0.950 . S
C415 C414 1.334 . S
C415 C416 1.287 . S
C416 C415 1.287 . S
C416 C417 1.524 . S
C416 H435 0.913 . S
C417 H393 0.950 . S
C417 C416 1.524 . S
C417 C418 1.415 . S
C418 H394 0.950 . S
C418 C413 1.363 . S
C418 C417 1.415 . S
C419 H395 0.951 . S
C419 C420 1.366 . S
C419 C421 1.388 . S
C420 C419 1.366 . S
C420 C424 1.385 . S
C421 H396 0.951 . S
C421 C419 1.388 . S
C421 C422 1.366 . S
C422 C421 1.366 . S
C422 C423 1.414 . S
C422 C425 1.499 . S
C423 H397 0.950 . S
C423 C422 1.414 . S
C423 C424 1.374 . S
C424 H398 0.950 . S
C424 C420 1.385 . S
C424 C423 1.374 . S
C425 C422 1.499 . S
C425 C426 1.373 . S
C425 C427 1.389 . S
C426 H399 0.950 . S
C426 C412 1.377 . S
C426 C425 1.373 . S
C427 C411 1.377 . S
C427 C425 1.389 . S
C427 C428 1.524 . S
C428 C427 1.524 . S
C428 C429 1.397 . S
C428 C433 1.363 . S
C429 H400 0.950 . S
C429 C428 1.397 . S
C429 C430 1.334 . S
C430 H401 0.950 . S
C430 C429 1.334 . S
C430 C431 1.287 . S
C431 C430 1.287 . S
C431 C432 1.524 . S
C431 H434 0.999 . S
C432 H402 0.950 . S
C432 C431 1.524 . S
C432 C433 1.415 . S
C433 H403 0.950 . S
C433 C428 1.363 . S
C433 C432 1.415 . S
H434 C431 0.999 . S
H435 C416 0.913 . S
H436 C454 0.951 . S
H437 C456 0.951 . S
H438 C458 0.950 . S
H439 C459 0.950 . S
H440 C461 0.950 . S
H441 C464 0.950 . S
H442 C465 0.950 . S
H443 C467 0.950 . S
H444 C468 0.950 . S
H445 C469 0.951 . S
H446 C471 0.951 . S
H447 C473 0.950 . S
H448 C474 0.950 . S
H449 C476 0.950 . S
H450 C479 0.950 . S
H451 C480 0.950 . S
H452 C482 0.950 . S
H453 C483 0.950 . S
C454 H436 0.951 . S
C454 C455 1.366 . S
C454 C456 1.388 . S
C455 C454 1.366 . S
C455 C459 1.385 . S
C456 H437 0.951 . S
C456 C454 1.388 . S
C456 C457 1.366 . S
C457 C456 1.366 . S
C457 C458 1.414 . S
C457 C460 1.499 . S
C458 H438 0.950 . S
C458 C457 1.414 . S
C458 C459 1.374 . S
C459 H439 0.950 . S
C459 C455 1.385 . S
C459 C458 1.374 . S
C460 C457 1.499 . S
C460 C461 1.373 . S
C460 C462 1.389 . S
C461 H440 0.950 . S
C461 C460 1.373 . S
C461 C477 1.377 . S
C462 C460 1.389 . S
C462 C463 1.524 . S
C462 C476 1.377 . S
C463 C462 1.524 . S
C463 C464 1.397 . S
C463 C468 1.363 . S
C464 H441 0.950 . S
C464 C463 1.397 . S
C464 C465 1.334 . S
C465 H442 0.950 . S
C465 C464 1.334 . S
C465 C466 1.287 . S
C466 C465 1.287 . S
C466 C467 1.524 . S
C466 H485 0.913 . S
C467 H443 0.950 . S
C467 C466 1.524 . S
C467 C468 1.415 . S
C468 H444 0.950 . S
C468 C463 1.363 . S
C468 C467 1.415 . S
C469 H445 0.951 . S
C469 C470 1.366 . S
C469 C471 1.388 . S
C470 C469 1.366 . S
C470 C474 1.385 . S
C471 H446 0.951 . S
C471 C469 1.388 . S
C471 C472 1.366 . S
C472 C471 1.366 . S
C472 C473 1.414 . S
C472 C475 1.499 . S
C473 H447 0.950 . S
C473 C472 1.414 . S
C473 C474 1.374 . S
C474 H448 0.950 . S
C474 C470 1.385 . S
C474 C473 1.374 . S
C475 C472 1.499 . S
C475 C476 1.373 . S
C475 C477 1.389 . S
C476 H449 0.950 . S
C476 C462 1.377 . S
C476 C475 1.373 . S
C477 C461 1.377 . S
C477 C475 1.389 . S
C477 C478 1.524 . S
C478 C477 1.524 . S
C478 C479 1.397 . S
C478 C483 1.363 . S
C479 H450 0.950 . S
C479 C478 1.397 . S
C479 C480 1.334 . S
C480 H451 0.950 . S
C480 C479 1.334 . S
C480 C481 1.287 . S
C481 C480 1.287 . S
C481 C482 1.524 . S
C481 H484 0.999 . S
C482 H452 0.950 . S
C482 C481 1.524 . S
C482 C483 1.415 . S
C483 H453 0.950 . S
C483 C478 1.363 . S
C483 C482 1.415 . S
H484 C481 0.999 . S
H485 C466 0.913 . S
H486 C504 0.951 . S
H487 C506 0.951 . S
H488 C508 0.950 . S
H489 C509 0.950 . S
H490 C511 0.950 . S
H491 C514 0.950 . S
H492 C515 0.950 . S
H493 C517 0.950 . S
H494 C518 0.950 . S
H495 C519 0.951 . S
H496 C521 0.951 . S
H497 C523 0.950 . S
H498 C524 0.950 . S
H499 C526 0.950 . S
H500 C529 0.950 . S
H501 C530 0.950 . S
H502 C532 0.950 . S
H503 C533 0.950 . S
C504 H486 0.951 . S
C504 C505 1.366 . S
C504 C506 1.388 . S
C505 C504 1.366 . S
C505 C509 1.385 . S
C506 H487 0.951 . S
C506 C504 1.388 . S
C506 C507 1.366 . S
C507 C506 1.366 . S
C507 C508 1.414 . S
C507 C510 1.499 . S
C508 H488 0.950 . S
C508 C507 1.414 . S
C508 C509 1.374 . S
C509 H489 0.950 . S
C509 C505 1.385 . S
C509 C508 1.374 . S
C510 C507 1.499 . S
C510 C511 1.373 . S
C510 C512 1.389 . S
C511 H490 0.950 . S
C511 C510 1.373 . S
C511 C527 1.377 . S
C512 C510 1.389 . S
C512 C513 1.524 . S
C512 C526 1.377 . S
C513 C512 1.524 . S
C513 C514 1.397 . S
C513 C518 1.363 . S
C514 H491 0.950 . S
C514 C513 1.397 . S
C514 C515 1.334 . S
C515 H492 0.950 . S
C515 C514 1.334 . S
C515 C516 1.287 . S
C516 C515 1.287 . S
C516 C517 1.524 . S
C516 H535 0.913 . S
C517 H493 0.950 . S
C517 C516 1.524 . S
C517 C518 1.415 . S
C518 H494 0.950 . S
C518 C513 1.363 . S
C518 C517 1.415 . S
C519 H495 0.951 . S
C519 C520 1.366 . S
C519 C521 1.388 . S
C520 C519 1.366 . S
C520 C524 1.385 . S
C521 H496 0.951 . S
C521 C519 1.388 . S
C521 C522 1.366 . S
C522 C521 1.366 . S
C522 C523 1.414 . S
C522 C525 1.499 . S
C523 H497 0.950 . S
C523 C522 1.414 . S
C523 C524 1.374 . S
C524 H498 0.950 . S
C524 C520 1.385 . S
C524 C523 1.374 . S
C525 C522 1.499 . S
C525 C526 1.373 . S
C525 C527 1.389 . S
C526 H499 0.950 . S
C526 C512 1.377 . S
C526 C525 1.373 . S
C527 C511 1.377 . S
C527 C525 1.389 . S
C527 C528 1.524 . S
C528 C527 1.524 . S
C528 C529 1.397 . S
C528 C533 1.363 . S
C529 H500 0.950 . S
C529 C528 1.397 . S
C529 C530 1.334 . S
C530 H501 0.950 . S
C530 C529 1.334 . S
C530 C531 1.287 . S
C531 C530 1.287 . S
C531 C532 1.524 . S
C531 H534 0.999 . S
C532 H502 0.950 . S
C532 C531 1.524 . S
C532 C533 1.415 . S
C533 H503 0.950 . S
C533 C528 1.363 . S
C533 C532 1.415 . S
H534 C531 0.999 . S
H535 C516 0.913 . S
H536 C554 0.951 . S
H537 C556 0.951 . S
H538 C558 0.950 . S
H539 C559 0.950 . S
H540 C561 0.950 . S
H541 C564 0.950 . S
H542 C565 0.950 . S
H543 C567 0.950 . S
H544 C568 0.950 . S
H545 C569 0.951 . S
H546 C571 0.951 . S
H547 C573 0.950 . S
H548 C574 0.950 . S
H549 C576 0.950 . S
H550 C579 0.950 . S
H551 C580 0.950 . S
H552 C582 0.943 1_565 S
H553 C583 0.950 . S
C554 H536 0.951 . S
C554 C555 1.366 . S
C554 C556 1.388 . S
C555 C554 1.366 . S
C555 C559 1.385 . S
C556 H537 0.951 . S
C556 C554 1.388 . S
C556 C557 1.366 . S
C557 C556 1.366 . S
C557 C558 1.414 . S
C557 C560 1.499 . S
C558 H538 0.950 . S
C558 C557 1.414 . S
C558 C559 1.374 . S
C559 H539 0.950 . S
C559 C555 1.385 . S
C559 C558 1.374 . S
C560 C557 1.499 . S
C560 C561 1.373 . S
C560 C562 1.389 . S
C561 H540 0.950 . S
C561 C560 1.373 . S
C561 C577 1.377 . S
C562 C560 1.389 . S
C562 C563 1.524 . S
C562 C576 1.377 . S
C563 C562 1.524 . S
C563 C564 1.397 . S
C563 C568 1.363 . S
C564 H541 0.950 . S
C564 C563 1.397 . S
C564 C565 1.334 . S
C565 H542 0.950 . S
C565 C564 1.334 . S
C565 C566 1.287 . S
C566 C565 1.287 . S
C566 C567 1.524 . S
C566 H585 0.913 . S
C567 H543 0.950 . S
C567 C566 1.524 . S
C567 C568 1.415 . S
C568 H544 0.950 . S
C568 C563 1.363 . S
C568 C567 1.415 . S
C569 H545 0.951 . S
C569 C570 1.366 . S
C569 C571 1.388 . S
C570 C569 1.366 . S
C570 C574 1.385 . S
C571 H546 0.951 . S
C571 C569 1.388 . S
C571 C572 1.366 . S
C572 C571 1.366 . S
C572 C573 1.414 . S
C572 C575 1.499 . S
C573 H547 0.950 . S
C573 C572 1.414 . S
C573 C574 1.374 . S
C574 H548 0.950 . S
C574 C570 1.385 . S
C574 C573 1.374 . S
C575 C572 1.499 . S
C575 C576 1.373 . S
C575 C577 1.389 . S
C576 H549 0.950 . S
C576 C562 1.377 . S
C576 C575 1.373 . S
C577 C561 1.377 . S
C577 C575 1.389 . S
C577 C578 1.524 . S
C578 C577 1.524 . S
C578 C579 1.397 . S
C578 C583 1.363 . S
C579 H550 0.950 . S
C579 C578 1.397 . S
C579 C580 1.334 . S
C580 H551 0.950 . S
C580 C579 1.334 . S
C580 C581 1.287 1_545 S
C581 C580 1.287 1_565 S
C581 C582 1.523 1_565 S
C581 H584 0.999 . S
C582 H552 0.943 1_545 S
C582 C581 1.523 1_545 S
C582 C583 1.423 . S
C583 H553 0.950 . S
C583 C578 1.363 . S
C583 C582 1.423 . S
H584 C581 0.999 . S
H585 C566 0.913 . S
H586 C604 0.951 . S
H587 C606 0.951 . S
H588 C608 0.950 . S
H589 C609 0.950 . S
H590 C611 0.950 . S
H591 C614 0.950 . S
H592 C615 0.950 . S
H593 C617 0.950 . S
H594 C618 0.950 . S
H595 C619 0.951 . S
H596 C621 0.951 . S
H597 C623 0.950 . S
H598 C624 0.950 . S
H599 C626 0.950 . S
H600 C629 0.950 . S
H601 C630 0.950 . S
H602 C632 0.950 . S
H603 C633 0.950 . S
C604 H586 0.951 . S
C604 C605 1.366 . S
C604 C606 1.388 . S
C605 C604 1.366 . S
C605 C609 1.385 . S
C606 H587 0.951 . S
C606 C604 1.388 . S
C606 C607 1.366 . S
C607 C606 1.366 . S
C607 C608 1.414 . S
C607 C610 1.499 . S
C608 H588 0.950 . S
C608 C607 1.414 . S
C608 C609 1.374 . S
C609 H589 0.950 . S
C609 C605 1.385 . S
C609 C608 1.374 . S
C610 C607 1.499 . S
C610 C611 1.373 . S
C610 C612 1.389 . S
C611 H590 0.950 . S
C611 C610 1.373 . S
C611 C627 1.377 . S
C612 C610 1.389 . S
C612 C613 1.524 . S
C612 C626 1.377 . S
C613 C612 1.524 . S
C613 C614 1.397 . S
C613 C618 1.363 . S
C614 H591 0.950 . S
C614 C613 1.397 . S
C614 C615 1.334 . S
C615 H592 0.950 . S
C615 C614 1.334 . S
C615 C616 1.287 . S
C616 C615 1.287 . S
C616 C617 1.524 . S
C616 H635 0.913 . S
C617 H593 0.950 . S
C617 C616 1.524 . S
C617 C618 1.415 . S
C618 H594 0.950 . S
C618 C613 1.363 . S
C618 C617 1.415 . S
C619 H595 0.951 . S
C619 C620 1.366 . S
C619 C621 1.388 . S
C620 C619 1.366 . S
C620 C624 1.385 . S
C621 H596 0.951 . S
C621 C619 1.388 . S
C621 C622 1.366 . S
C622 C621 1.366 . S
C622 C623 1.414 . S
C622 C625 1.499 . S
C623 H597 0.950 . S
C623 C622 1.414 . S
C623 C624 1.374 . S
C624 H598 0.950 . S
C624 C620 1.385 . S
C624 C623 1.374 . S
C625 C622 1.499 . S
C625 C626 1.373 . S
C625 C627 1.389 . S
C626 H599 0.950 . S
C626 C612 1.377 . S
C626 C625 1.373 . S
C627 C611 1.377 . S
C627 C625 1.389 . S
C627 C628 1.524 . S
C628 C627 1.524 . S
C628 C629 1.397 . S
C628 C633 1.363 . S
C629 H600 0.950 . S
C629 C628 1.397 . S
C629 C630 1.334 . S
C630 H601 0.950 . S
C630 C629 1.334 . S
C630 C631 1.287 . S
C631 C630 1.287 . S
C631 C632 1.524 . S
C631 H634 0.999 . S
C632 H602 0.950 . S
C632 C631 1.524 . S
C632 C633 1.415 . S
C633 H603 0.950 . S
C633 C628 1.363 . S
C633 C632 1.415 . S
H634 C631 0.999 . S
H635 C616 0.913 . S
H636 C654 0.951 1_554 S
H637 C656 0.951 . S
H638 C658 0.950 . S
H639 C659 0.950 . S
H640 C661 0.950 . S
H641 C664 0.950 . S
H642 C665 0.950 . S
H643 C667 0.950 . S
H644 C668 0.950 . S
H645 C669 0.951 . S
H646 C671 0.951 . S
H647 C673 0.950 . S
H648 C674 0.950 . S
H649 C676 0.950 . S
H650 C679 0.950 . S
H651 C680 0.950 . S
H652 C682 0.950 . S
H653 C683 0.950 . S
C654 H636 0.951 1_556 S
C654 C655 1.366 . S
C654 C656 1.388 . S
C655 C654 1.366 . S
C655 C659 1.385 . S
C656 H637 0.951 . S
C656 C654 1.388 . S
C656 C657 1.366 . S
C657 C656 1.366 . S
C657 C658 1.414 . S
C657 C660 1.499 . S
C658 H638 0.950 . S
C658 C657 1.414 . S
C658 C659 1.374 . S
C659 H639 0.950 . S
C659 C655 1.385 . S
C659 C658 1.374 . S
C660 C657 1.499 . S
C660 C661 1.373 . S
C660 C662 1.389 . S
C661 H640 0.950 . S
C661 C660 1.373 . S
C661 C677 1.377 . S
C662 C660 1.389 . S
C662 C663 1.524 . S
C662 C676 1.377 . S
C663 C662 1.524 . S
C663 C664 1.397 . S
C663 C668 1.363 . S
C664 H641 0.950 . S
C664 C663 1.397 . S
C664 C665 1.334 . S
C665 H642 0.950 . S
C665 C664 1.334 . S
C665 C666 1.287 . S
C666 C665 1.287 . S
C666 C667 1.524 . S
C666 H685 0.913 . S
C667 H643 0.950 . S
C667 C666 1.524 . S
C667 C668 1.415 . S
C668 H644 0.950 . S
C668 C663 1.363 . S
C668 C667 1.415 . S
C669 H645 0.951 . S
C669 C670 1.366 . S
C669 C671 1.388 . S
C670 C669 1.366 . S
C670 C674 1.385 . S
C671 H646 0.951 . S
C671 C669 1.388 . S
C671 C672 1.366 . S
C672 C671 1.366 . S
C672 C673 1.414 . S
C672 C675 1.499 . S
C673 H647 0.950 . S
C673 C672 1.414 . S
C673 C674 1.374 . S
C674 H648 0.950 . S
C674 C670 1.385 . S
C674 C673 1.374 . S
C675 C672 1.499 . S
C675 C676 1.373 . S
C675 C677 1.389 . S
C676 H649 0.950 . S
C676 C662 1.377 . S
C676 C675 1.373 . S
C677 C661 1.377 . S
C677 C675 1.389 . S
C677 C678 1.524 . S
C678 C677 1.524 . S
C678 C679 1.397 . S
C678 C683 1.363 . S
C679 H650 0.950 . S
C679 C678 1.397 . S
C679 C680 1.334 1_565 S
C680 H651 0.950 . S
C680 C679 1.334 1_545 S
C680 C681 1.287 . S
C681 C680 1.287 . S
C681 C682 1.524 1_545 S
C681 H684 0.999 . S
C682 H652 0.950 . S
C682 C681 1.524 1_565 S
C682 C683 1.415 . S
C683 H653 0.950 . S
C683 C678 1.363 . S
C683 C682 1.415 . S
H684 C681 0.999 . S
H685 C666 0.913 . S
C120 C59 1.240 . S
C105 C41 1.424 . S
C155 C8 1.431 . S
C170 C83 1.272 . S
C205 C19 1.647 . S
C220 C62 1.437 . S
C255 C30 1.593 . S
C270 C80 1.372 . S
C320 C60 1.517 . S
C305 C5 1.382 . S
C370 C82 1.639 . S
C355 C18 1.671 . S
C405 C29 1.586 . S
C420 C61 1.575 . S
C455 C40 1.576 . S
C470 C81 1.558 . S
C520 C79 1.397 . S
C505 C16 1.271 . S
C570 C58 1.421 . S
C555 C27 1.289 . S
C620 C78 1.321 . S
C605 C38 1.209 . S
C655 C7 1.368 1_556 S
C670 C57 1.351 . S
