# Generated by pormake.
# Topology gar, (4,6)-cn, num edge types: 1
# Building blocks:
#     Node 0, Type 0, BuildingBlock: QUQFOY_clean_sbu_1, # of connection points: 4
#     Node 1, Type 0, BuildingBlock: QUQFOY_clean_sbu_1, # of connection points: 4
#     Node 2, Type 0, BuildingBlock: QUQFOY_clean_sbu_1, # of connection points: 4
#     Node 3, Type 0, BuildingBlock: QUQFOY_clean_sbu_1, # of connection points: 4
#     Node 4, Type 0, BuildingBlock: QUQFOY_clean_sbu_1, # of connection points: 4
#     Node 5, Type 0, BuildingBlock: QUQFOY_clean_sbu_1, # of connection points: 4
#     Node 6, Type 0, BuildingBlock: QUQFOY_clean_sbu_1, # of connection points: 4
#     Node 7, Type 0, BuildingBlock: QUQFOY_clean_sbu_1, # of connection points: 4
#     Node 8, Type 0, BuildingBlock: QUQFOY_clean_sbu_1, # of connection points: 4
#     Node 9, Type 0, BuildingBlock: QUQFOY_clean_sbu_1, # of connection points: 4
#     Node 10, Type 0, BuildingBlock: QUQFOY_clean_sbu_1, # of connection points: 4
#     Node 11, Type 0, BuildingBlock: QUQFOY_clean_sbu_1, # of connection points: 4
#     Node 12, Type 0, BuildingBlock: QUQFOY_clean_sbu_1, # of connection points: 4
#     Node 13, Type 0, BuildingBlock: QUQFOY_clean_sbu_1, # of connection points: 4
#     Node 14, Type 0, BuildingBlock: QUQFOY_clean_sbu_1, # of connection points: 4
#     Node 15, Type 0, BuildingBlock: QUQFOY_clean_sbu_1, # of connection points: 4
#     Node 16, Type 0, BuildingBlock: QUQFOY_clean_sbu_1, # of connection points: 4
#     Node 17, Type 0, BuildingBlock: QUQFOY_clean_sbu_1, # of connection points: 4
#     Node 18, Type 0, BuildingBlock: QUQFOY_clean_sbu_1, # of connection points: 4
#     Node 19, Type 0, BuildingBlock: QUQFOY_clean_sbu_1, # of connection points: 4
#     Node 20, Type 0, BuildingBlock: QUQFOY_clean_sbu_1, # of connection points: 4
#     Node 21, Type 0, BuildingBlock: QUQFOY_clean_sbu_1, # of connection points: 4
#     Node 22, Type 0, BuildingBlock: QUQFOY_clean_sbu_1, # of connection points: 4
#     Node 23, Type 0, BuildingBlock: QUQFOY_clean_sbu_1, # of connection points: 4
#     Node 24, Type 1, BuildingBlock: CUKXOW_clean_sbu_0, # of connection points: 6
#     Node 25, Type 1, BuildingBlock: CUKXOW_clean_sbu_0, # of connection points: 6
#     Node 26, Type 1, BuildingBlock: CUKXOW_clean_sbu_0, # of connection points: 6
#     Node 27, Type 1, BuildingBlock: CUKXOW_clean_sbu_0, # of connection points: 6
#     Node 28, Type 1, BuildingBlock: CUKXOW_clean_sbu_0, # of connection points: 6
#     Node 29, Type 1, BuildingBlock: CUKXOW_clean_sbu_0, # of connection points: 6
#     Node 30, Type 1, BuildingBlock: CUKXOW_clean_sbu_0, # of connection points: 6
#     Node 31, Type 1, BuildingBlock: CUKXOW_clean_sbu_0, # of connection points: 6
#     Node 32, Type 1, BuildingBlock: CUKXOW_clean_sbu_0, # of connection points: 6
#     Node 33, Type 1, BuildingBlock: CUKXOW_clean_sbu_0, # of connection points: 6
#     Node 34, Type 1, BuildingBlock: CUKXOW_clean_sbu_0, # of connection points: 6
#     Node 35, Type 1, BuildingBlock: CUKXOW_clean_sbu_0, # of connection points: 6
#     Node 36, Type 1, BuildingBlock: CUKXOW_clean_sbu_0, # of connection points: 6
#     Node 37, Type 1, BuildingBlock: CUKXOW_clean_sbu_0, # of connection points: 6
#     Node 38, Type 1, BuildingBlock: CUKXOW_clean_sbu_0, # of connection points: 6
#     Node 39, Type 1, BuildingBlock: CUKXOW_clean_sbu_0, # of connection points: 6
#     Edge 40, Type (0, 1), BuildingBlock: XIVTED_clean_linker_0, # of connection points: 2
#     Edge 41, Type (0, 1), BuildingBlock: XIVTED_clean_linker_0, # of connection points: 2
#     Edge 42, Type (0, 1), BuildingBlock: XIVTED_clean_linker_0, # of connection points: 2
#     Edge 43, Type (0, 1), BuildingBlock: XIVTED_clean_linker_0, # of connection points: 2
#     Edge 44, Type (0, 1), BuildingBlock: XIVTED_clean_linker_0, # of connection points: 2
#     Edge 45, Type (0, 1), BuildingBlock: XIVTED_clean_linker_0, # of connection points: 2
#     Edge 46, Type (0, 1), BuildingBlock: XIVTED_clean_linker_0, # of connection points: 2
#     Edge 47, Type (0, 1), BuildingBlock: XIVTED_clean_linker_0, # of connection points: 2
#     Edge 48, Type (0, 1), BuildingBlock: XIVTED_clean_linker_0, # of connection points: 2
#     Edge 49, Type (0, 1), BuildingBlock: XIVTED_clean_linker_0, # of connection points: 2
#     Edge 50, Type (0, 1), BuildingBlock: XIVTED_clean_linker_0, # of connection points: 2
#     Edge 51, Type (0, 1), BuildingBlock: XIVTED_clean_linker_0, # of connection points: 2
#     Edge 52, Type (0, 1), BuildingBlock: XIVTED_clean_linker_0, # of connection points: 2
#     Edge 53, Type (0, 1), BuildingBlock: XIVTED_clean_linker_0, # of connection points: 2
#     Edge 54, Type (0, 1), BuildingBlock: XIVTED_clean_linker_0, # of connection points: 2
#     Edge 55, Type (0, 1), BuildingBlock: XIVTED_clean_linker_0, # of connection points: 2
#     Edge 56, Type (0, 1), BuildingBlock: XIVTED_clean_linker_0, # of connection points: 2
#     Edge 57, Type (0, 1), BuildingBlock: XIVTED_clean_linker_0, # of connection points: 2
#     Edge 58, Type (0, 1), BuildingBlock: XIVTED_clean_linker_0, # of connection points: 2
#     Edge 59, Type (0, 1), BuildingBlock: XIVTED_clean_linker_0, # of connection points: 2
#     Edge 60, Type (0, 1), BuildingBlock: XIVTED_clean_linker_0, # of connection points: 2
#     Edge 61, Type (0, 1), BuildingBlock: XIVTED_clean_linker_0, # of connection points: 2
#     Edge 62, Type (0, 1), BuildingBlock: XIVTED_clean_linker_0, # of connection points: 2
#     Edge 63, Type (0, 1), BuildingBlock: XIVTED_clean_linker_0, # of connection points: 2
#     Edge 64, Type (0, 1), BuildingBlock: XIVTED_clean_linker_0, # of connection points: 2
#     Edge 65, Type (0, 1), BuildingBlock: XIVTED_clean_linker_0, # of connection points: 2
#     Edge 66, Type (0, 1), BuildingBlock: XIVTED_clean_linker_0, # of connection points: 2
#     Edge 67, Type (0, 1), BuildingBlock: XIVTED_clean_linker_0, # of connection points: 2
#     Edge 68, Type (0, 1), BuildingBlock: XIVTED_clean_linker_0, # of connection points: 2
#     Edge 69, Type (0, 1), BuildingBlock: XIVTED_clean_linker_0, # of connection points: 2
#     Edge 70, Type (0, 1), BuildingBlock: XIVTED_clean_linker_0, # of connection points: 2
#     Edge 71, Type (0, 1), BuildingBlock: XIVTED_clean_linker_0, # of connection points: 2
#     Edge 72, Type (0, 1), BuildingBlock: XIVTED_clean_linker_0, # of connection points: 2
#     Edge 73, Type (0, 1), BuildingBlock: XIVTED_clean_linker_0, # of connection points: 2
#     Edge 74, Type (0, 1), BuildingBlock: XIVTED_clean_linker_0, # of connection points: 2
#     Edge 75, Type (0, 1), BuildingBlock: XIVTED_clean_linker_0, # of connection points: 2
#     Edge 76, Type (0, 1), BuildingBlock: XIVTED_clean_linker_0, # of connection points: 2
#     Edge 77, Type (0, 1), BuildingBlock: XIVTED_clean_linker_0, # of connection points: 2
#     Edge 78, Type (0, 1), BuildingBlock: XIVTED_clean_linker_0, # of connection points: 2
#     Edge 79, Type (0, 1), BuildingBlock: XIVTED_clean_linker_0, # of connection points: 2
#     Edge 80, Type (0, 1), BuildingBlock: XIVTED_clean_linker_0, # of connection points: 2
#     Edge 81, Type (0, 1), BuildingBlock: XIVTED_clean_linker_0, # of connection points: 2
#     Edge 82, Type (0, 1), BuildingBlock: XIVTED_clean_linker_0, # of connection points: 2
#     Edge 83, Type (0, 1), BuildingBlock: XIVTED_clean_linker_0, # of connection points: 2
#     Edge 84, Type (0, 1), BuildingBlock: XIVTED_clean_linker_0, # of connection points: 2
#     Edge 85, Type (0, 1), BuildingBlock: XIVTED_clean_linker_0, # of connection points: 2
#     Edge 86, Type (0, 1), BuildingBlock: XIVTED_clean_linker_0, # of connection points: 2
#     Edge 87, Type (0, 1), BuildingBlock: XIVTED_clean_linker_0, # of connection points: 2
#     Edge 88, Type (0, 1), BuildingBlock: XIVTED_clean_linker_0, # of connection points: 2
#     Edge 89, Type (0, 1), BuildingBlock: XIVTED_clean_linker_0, # of connection points: 2
#     Edge 90, Type (0, 1), BuildingBlock: XIVTED_clean_linker_0, # of connection points: 2
#     Edge 91, Type (0, 1), BuildingBlock: XIVTED_clean_linker_0, # of connection points: 2
#     Edge 92, Type (0, 1), BuildingBlock: XIVTED_clean_linker_0, # of connection points: 2
#     Edge 93, Type (0, 1), BuildingBlock: XIVTED_clean_linker_0, # of connection points: 2
#     Edge 94, Type (0, 1), BuildingBlock: XIVTED_clean_linker_0, # of connection points: 2
#     Edge 95, Type (0, 1), BuildingBlock: XIVTED_clean_linker_0, # of connection points: 2
#     Edge 96, Type (0, 1), BuildingBlock: XIVTED_clean_linker_0, # of connection points: 2
#     Edge 97, Type (0, 1), BuildingBlock: XIVTED_clean_linker_0, # of connection points: 2
#     Edge 98, Type (0, 1), BuildingBlock: XIVTED_clean_linker_0, # of connection points: 2
#     Edge 99, Type (0, 1), BuildingBlock: XIVTED_clean_linker_0, # of connection points: 2
#     Edge 100, Type (0, 1), BuildingBlock: XIVTED_clean_linker_0, # of connection points: 2
#     Edge 101, Type (0, 1), BuildingBlock: XIVTED_clean_linker_0, # of connection points: 2
#     Edge 102, Type (0, 1), BuildingBlock: XIVTED_clean_linker_0, # of connection points: 2
#     Edge 103, Type (0, 1), BuildingBlock: XIVTED_clean_linker_0, # of connection points: 2
#     Edge 104, Type (0, 1), BuildingBlock: XIVTED_clean_linker_0, # of connection points: 2
#     Edge 105, Type (0, 1), BuildingBlock: XIVTED_clean_linker_0, # of connection points: 2
#     Edge 106, Type (0, 1), BuildingBlock: XIVTED_clean_linker_0, # of connection points: 2
#     Edge 107, Type (0, 1), BuildingBlock: XIVTED_clean_linker_0, # of connection points: 2
#     Edge 108, Type (0, 1), BuildingBlock: XIVTED_clean_linker_0, # of connection points: 2
#     Edge 109, Type (0, 1), BuildingBlock: XIVTED_clean_linker_0, # of connection points: 2
#     Edge 110, Type (0, 1), BuildingBlock: XIVTED_clean_linker_0, # of connection points: 2
#     Edge 111, Type (0, 1), BuildingBlock: XIVTED_clean_linker_0, # of connection points: 2
#     Edge 112, Type (0, 1), BuildingBlock: XIVTED_clean_linker_0, # of connection points: 2
#     Edge 113, Type (0, 1), BuildingBlock: XIVTED_clean_linker_0, # of connection points: 2
#     Edge 114, Type (0, 1), BuildingBlock: XIVTED_clean_linker_0, # of connection points: 2
#     Edge 115, Type (0, 1), BuildingBlock: XIVTED_clean_linker_0, # of connection points: 2
#     Edge 116, Type (0, 1), BuildingBlock: XIVTED_clean_linker_0, # of connection points: 2
#     Edge 117, Type (0, 1), BuildingBlock: XIVTED_clean_linker_0, # of connection points: 2
#     Edge 118, Type (0, 1), BuildingBlock: XIVTED_clean_linker_0, # of connection points: 2
#     Edge 119, Type (0, 1), BuildingBlock: XIVTED_clean_linker_0, # of connection points: 2
#     Edge 120, Type (0, 1), BuildingBlock: XIVTED_clean_linker_0, # of connection points: 2
#     Edge 121, Type (0, 1), BuildingBlock: XIVTED_clean_linker_0, # of connection points: 2
#     Edge 122, Type (0, 1), BuildingBlock: XIVTED_clean_linker_0, # of connection points: 2
#     Edge 123, Type (0, 1), BuildingBlock: XIVTED_clean_linker_0, # of connection points: 2
#     Edge 124, Type (0, 1), BuildingBlock: XIVTED_clean_linker_0, # of connection points: 2
#     Edge 125, Type (0, 1), BuildingBlock: XIVTED_clean_linker_0, # of connection points: 2
#     Edge 126, Type (0, 1), BuildingBlock: XIVTED_clean_linker_0, # of connection points: 2
#     Edge 127, Type (0, 1), BuildingBlock: XIVTED_clean_linker_0, # of connection points: 2
#     Edge 128, Type (0, 1), BuildingBlock: XIVTED_clean_linker_0, # of connection points: 2
#     Edge 129, Type (0, 1), BuildingBlock: XIVTED_clean_linker_0, # of connection points: 2
#     Edge 130, Type (0, 1), BuildingBlock: XIVTED_clean_linker_0, # of connection points: 2
#     Edge 131, Type (0, 1), BuildingBlock: XIVTED_clean_linker_0, # of connection points: 2
#     Edge 132, Type (0, 1), BuildingBlock: XIVTED_clean_linker_0, # of connection points: 2
#     Edge 133, Type (0, 1), BuildingBlock: XIVTED_clean_linker_0, # of connection points: 2
#     Edge 134, Type (0, 1), BuildingBlock: XIVTED_clean_linker_0, # of connection points: 2
#     Edge 135, Type (0, 1), BuildingBlock: XIVTED_clean_linker_0, # of connection points: 2
# Relax obj value: 0.116
# Max RMSD: 0.227
# Mean RMSD: 0.160
data_MOF--net-gar--node1-QUQFOY_clean_sbu_1--node2-CUKXOW_clean_sbu_0--edge1-XIVTED_clean_linker_0
_symmetry_space_group_name_H-M    P1
_symmetry_Int_Tables_number       1
_symmetry_cell_setting            triclinic
loop_
_symmetry_equiv_pos_as_xyz
'x, y, z'
_cell_length_a     56.604864
_cell_length_b     55.081262
_cell_length_c     55.26004
_cell_angle_alpha  94.383336
_cell_angle_beta   95.979416
_cell_angle_gamma 102.19995
loop_
_atom_site_label
_atom_site_type_symbol
_atom_site_fract_x
_atom_site_fract_y
_atom_site_fract_z
_atom_type_partial_charge
O0 O 0.03518 0.22886 0.43666 0.0
Cd1 Cd 0.03294 0.25223 0.4102 0.0
Cd2 Cd 0.02095 0.283 0.4484 0.0
O3 O 0.02504 0.25235 0.46637 0.0
O4 O 0.04739 0.23824 0.38275 0.0
O5 O 0.06163 0.27643 0.40134 0.0
C6 C 0.0627 0.2594 0.3843 0.0
C7 C 0.03196 0.32131 0.47243 0.0
C8 C 0.03077 0.23237 0.45852 0.0
C9 C 0.98545 0.26663 0.40201 0.0
O10 O 0.99143 0.28048 0.42212 0.0
O11 O 0.9991 0.25293 0.39458 0.0
O12 O 0.01287 0.30482 0.47513 0.0
O13 O 0.04533 0.31592 0.45614 0.0
O14 O 0.9855 0.74851 0.58238 0.0
Cd15 Cd 0.9938 0.77383 0.61308 0.0
Cd16 Cd 0.02288 0.799 0.58331 0.0
O17 O 0.01197 0.76714 0.5594 0.0
O18 O 0.97032 0.75794 0.63443 0.0
O19 O 0.97096 0.79548 0.62254 0.0
C20 C 0.96155 0.77767 0.63488 0.0
C21 C 0.01763 0.83673 0.57088 0.0
C22 C 0.99539 0.74869 0.56277 0.0
C23 C 0.04723 0.78979 0.63104 0.0
O24 O 0.04975 0.80027 0.61153 0.0
O25 O 0.02649 0.77763 0.6348 0.0
O26 O 0.03533 0.82718 0.56467 0.0
O27 O 1.00242 0.82443 0.58388 0.0
O28 O 0.58363 0.78298 0.94283 0.0
Cd29 Cd 0.55959 0.78455 0.96754 0.0
Cd30 Cd 0.52589 0.78816 0.92833 0.0
O31 O 0.55604 0.78371 0.91178 0.0
O32 O 0.56487 0.76413 0.99448 0.0
O33 O 0.53189 0.75547 0.96685 0.0
C34 C 0.54392 0.74992 0.9861 0.0
C35 C 0.49024 0.77658 0.90082 0.0
C36 C 0.57745 0.78231 0.92002 0.0
C37 C 0.53923 0.82849 0.97237 0.0
O38 O 0.5259 0.8188 0.9526 0.0
O39 O 0.55572 0.8184 0.98153 0.0
O40 O 0.50653 0.79638 0.89939 0.0
O41 O 0.49398 0.76299 0.91824 0.0
O42 O 0.48226 0.25313 0.08346 0.0
Cd43 Cd 0.49128 0.27533 0.1161 0.0
Cd44 Cd 0.52056 0.30474 0.09017 0.0
O45 O 0.51179 0.27375 0.065 0.0
O46 O 0.4672 0.26038 0.13723 0.0
O47 O 0.47173 0.29932 0.1278 0.0
C48 C 0.46138 0.28172 0.13989 0.0
C49 C 0.51889 0.34283 0.07606 0.0
C50 C 0.49433 0.25507 0.06531 0.0
C51 C 0.54348 0.29079 0.13639 0.0
O52 O 0.54568 0.30551 0.11982 0.0
O53 O 0.52348 0.27542 0.13697 0.0
O54 O 0.53664 0.33223 0.07254 0.0
O55 O 0.50168 0.33156 0.08754 0.0
O56 O 0.98744 0.7168 0.16465 0.0
Cd57 Cd 0.98994 0.74694 0.19049 0.0
Cd58 Cd 0.00938 0.77383 0.1544 0.0
O59 O 1.00149 0.73873 0.13536 0.0
O60 O 0.96459 0.73727 0.21286 0.0
O61 O 0.96526 0.76863 0.18998 0.0
C62 C 0.955 0.75524 0.20583 0.0
C63 C 0.00484 0.80682 0.13114 0.0
C64 C 0.99329 0.71782 0.14307 0.0
C65 C 0.04165 0.77453 0.20253 0.0
O66 O 0.03891 0.78205 0.18144 0.0
O67 O 0.02402 0.76013 0.21037 0.0
O68 O 0.02235 0.79549 0.12938 0.0
O69 O 0.98944 0.79931 0.14612 0.0
O70 O 0.57837 0.79577 0.37481 0.0
Cd71 Cd 0.55171 0.79571 0.39776 0.0
Cd72 Cd 0.52717 0.80848 0.35526 0.0
O73 O 0.55793 0.80215 0.34046 0.0
O74 O 0.56103 0.7776 0.42595 0.0
O75 O 0.52753 0.76362 0.40002 0.0
C76 C 0.54153 0.76059 0.41906 0.0
C77 C 0.48807 0.79446 0.33362 0.0
C78 C 0.57716 0.79807 0.352 0.0
C79 C 0.53732 0.84515 0.40115 0.0
O80 O 0.52988 0.84051 0.37842 0.0
O81 O 0.54623 0.82939 0.41268 0.0
O82 O 0.50365 0.81271 0.32718 0.0
O83 O 0.49513 0.78307 0.3517 0.0
O84 O 0.48474 0.21208 0.66108 0.0
Cd85 Cd 0.48642 0.24268 0.68609 0.0
Cd86 Cd 0.50504 0.26946 0.64855 0.0
O87 O 0.49624 0.23378 0.63066 0.0
O88 O 0.46375 0.23265 0.71103 0.0
O89 O 0.45912 0.26115 0.68595 0.0
C90 C 0.45157 0.24857 0.70355 0.0
C91 C 0.49827 0.30181 0.62517 0.0
C92 C 0.48945 0.21292 0.63909 0.0
C93 C 0.53845 0.27154 0.6959 0.0
O94 O 0.53569 0.27803 0.67435 0.0
O95 O 0.52076 0.25803 0.7045 0.0
O96 O 0.51496 0.28985 0.62133 0.0
O97 O 0.48514 0.29543 0.64237 0.0
O98 O 0.02524 0.24457 0.87755 0.0
Cd99 Cd 0.02748 0.27054 0.85247 0.0
Cd100 Cd 0.0163 0.29971 0.89276 0.0
O101 O 0.02363 0.26956 0.91025 0.0
O102 O 0.04539 0.25817 0.82648 0.0
O103 O 0.06053 0.29287 0.85092 0.0
C104 C 0.06329 0.27696 0.83358 0.0
C105 C 0.02628 0.33898 0.91543 0.0
C106 C 0.02507 0.24834 0.90051 0.0
C107 C 0.97974 0.28596 0.84619 0.0
O108 O 0.98485 0.29509 0.86844 0.0
O109 O 0.9948 0.27609 0.83555 0.0
O110 O 0.00955 0.32121 0.92079 0.0
O111 O 0.03813 0.33442 0.89751 0.0
O112 O 0.41218 0.08731 0.20762 0.0
Cd113 Cd 0.38967 0.08877 0.23503 0.0
Cd114 Cd 0.43097 0.07233 0.26048 0.0
O115 O 0.44581 0.08188 0.2288 0.0
O116 O 0.36172 0.10211 0.22019 0.0
O117 O 0.38729 0.12224 0.25174 0.0
C118 C 0.36821 0.12114 0.23634 0.0
C119 C 0.45425 0.07835 0.29935 0.0
C120 C 0.43429 0.08529 0.2087 0.0
C121 C 0.38109 0.03725 0.25203 0.0
O122 O 0.40403 0.04027 0.25673 0.0
O123 O 0.37164 0.05505 0.24545 0.0
O124 O 0.45761 0.06278 0.28214 0.0
O125 O 0.43871 0.09187 0.29408 0.0
O126 O 0.27796 0.15019 0.54254 0.0
Cd127 Cd 0.27165 0.12883 0.50926 0.0
Cd128 Cd 0.27167 0.17159 0.49278 0.0
O129 O 0.28912 0.18557 0.52665 0.0
O130 O 0.28199 0.09764 0.51596 0.0
O131 O 0.30105 0.12562 0.49357 0.0
C132 C 0.30005 0.10522 0.50395 0.0
C133 C 0.28721 0.18967 0.45975 0.0
C134 C 0.28715 0.17349 0.5452 0.0
C135 C 0.22417 0.13515 0.48817 0.0
O136 O 0.23447 0.15817 0.48999 0.0
O137 O 0.2367 0.11893 0.49188 0.0
O138 O 0.27644 0.20143 0.47464 0.0
O139 O 0.28924 0.16731 0.46357 0.0
O140 O 0.15764 0.99454 0.75331 0.0
Cd141 Cd 0.17998 0.99951 0.78618 0.0
Cd142 Cd 0.13704 0.00878 0.8027 0.0
O143 O 0.12261 0.9925 0.76807 0.0
O144 O 0.20871 0.98609 0.77833 0.0
O145 O 0.1832 0.96905 0.80318 0.0
C146 C 0.20207 0.96859 0.792 0.0
C147 C 0.11081 0.00226 0.83311 0.0
C148 C 0.13452 0.99061 0.75004 0.0
C149 C 0.18139 0.05175 0.80463 0.0
O150 O 0.15854 0.04451 0.8048 0.0
O151 O 0.19437 0.03605 0.80045 0.0
O152 O 0.10733 0.01578 0.8157 0.0
O153 O 0.12933 0.99201 0.83336 0.0
O154 O 0.21552 0.88759 0.07958 0.0
Cd155 Cd 0.21412 0.91442 0.05509 0.0
Cd156 Cd 0.23082 0.87416 0.02399 0.0
O157 O 0.22657 0.85791 0.05679 0.0
O158 O 0.19573 0.93858 0.06942 0.0
O159 O 0.18362 0.91694 0.03338 0.0
C160 C 0.18027 0.93339 0.04988 0.0
C161 C 0.22785 0.84857 0.98673 0.0
C162 C 0.22113 0.86635 0.07716 0.0
C163 C 0.26212 0.92822 0.03497 0.0
O164 O 0.25779 0.90607 0.02457 0.0
O165 O 0.24742 0.93531 0.04842 0.0
O166 O 0.24511 0.84994 0.00421 0.0
O167 O 0.21117 0.86059 0.99079 0.0
O168 O 0.24651 0.43863 0.09752 0.0
Cd169 Cd 0.25889 0.46076 0.07135 0.0
Cd170 Cd 0.25749 0.41752 0.04416 0.0
O171 O 0.24006 0.4039 0.07279 0.0
O172 O 0.24419 0.49026 0.06949 0.0
O173 O 0.23728 0.4586 0.04031 0.0
C174 C 0.23336 0.47989 0.0483 0.0
C175 C 0.24561 0.39445 0.00615 0.0
C176 C 0.23878 0.41516 0.09337 0.0
C177 C 0.30634 0.45408 0.05984 0.0
O178 O 0.29444 0.43302 0.04948 0.0
O179 O 0.29552 0.46927 0.07 0.0
O180 O 0.25642 0.38579 0.02406 0.0
O181 O 0.24066 0.41614 0.0099 0.0
O182 O 0.81216 0.1798 0.05753 0.0
Cd183 Cd 0.8091 0.1515 0.0293 0.0
Cd184 Cd 0.7875 0.18853 1.00265 0.0
O185 O 0.79493 0.20665 0.03809 0.0
O186 O 0.82829 0.12733 0.04241 0.0
O187 O 0.83696 0.14682 0.01004 0.0
C188 C 0.84169 0.13106 0.02498 0.0
C189 C 0.7878 0.21182 0.96821 0.0
C190 C 0.80452 0.20001 0.05775 0.0
C191 C 0.75657 0.13624 0.0062 0.0
O192 O 0.75942 0.15734 0.99775 0.0
O193 O 0.77392 0.1303 0.01931 0.0
O194 O 0.77152 0.21119 0.98288 0.0
O195 O 0.80493 0.20026 0.97364 0.0
O196 O 0.11094 0.47988 0.23376 0.0
Cd197 Cd 0.13807 0.4826 0.2628 0.0
Cd198 Cd 0.10286 0.5062 0.28616 0.0
O199 O 0.08458 0.49816 0.2508 0.0
O200 O 0.16128 0.46423 0.24873 0.0
O201 O 0.14389 0.45328 0.28124 0.0
C202 C 0.15875 0.44964 0.26583 0.0
C203 C 0.08121 0.50461 0.32046 0.0
C204 C 0.09127 0.48775 0.23207 0.0
C205 C 0.15438 0.53647 0.28412 0.0
O206 O 0.13343 0.53483 0.29101 0.0
O207 O 0.15978 0.51789 0.27266 0.0
O208 O 0.0809 0.52157 0.30572 0.0
O209 O 0.09284 0.48751 0.31512 0.0
O210 O 0.73423 0.91918 0.6073 0.0
Cd211 Cd 0.74986 0.94575 0.58607 0.0
Cd212 Cd 0.75373 0.90634 0.55383 0.0
O213 O 0.73564 0.88845 0.57987 0.0
O214 O 0.73387 0.9744 0.58455 0.0
O215 O 0.73184 0.94587 0.55323 0.0
C216 C 0.72611 0.966 0.56199 0.0
C217 C 0.74761 0.88287 0.51597 0.0
C218 C 0.72961 0.89602 0.60011 0.0
C219 C 0.79931 0.94613 0.57569 0.0
O220 O 0.78891 0.92684 0.56139 0.0
O221 O 0.78707 0.95719 0.58899 0.0
O222 O 0.75993 0.87702 0.53463 0.0
O223 O 0.73808 0.90206 0.51883 0.0
O224 O 0.87877 0.06488 0.1988 0.0
Cd225 Cd 0.85488 0.05987 0.22461 0.0
Cd226 Cd 0.89489 0.05597 0.25451 0.0
O227 O 0.9119 0.06736 0.22453 0.0
O228 O 0.82803 0.07665 0.21503 0.0
O229 O 0.85383 0.08862 0.24893 0.0
C230 C 0.83537 0.09182 0.23465 0.0
C231 C 0.91671 0.06923 0.29329 0.0
C232 C 0.9018 0.06848 0.20312 0.0
C233 C 0.85227 0.01055 0.24287 0.0
O234 O 0.87387 0.02002 0.25283 0.0
O235 O 0.84029 0.02358 0.23067 0.0
O236 O 0.92319 0.0538 0.27805 0.0
O237 O 0.89804 0.07808 0.28627 0.0
O238 O 0.31134 0.67504 0.55723 0.0
Cd239 Cd 0.30948 0.65118 0.52555 0.0
Cd240 Cd 0.2948 0.69454 0.50629 0.0
O241 O 0.3065 0.71016 0.54232 0.0
O242 O 0.32452 0.62322 0.53673 0.0
O243 O 0.33912 0.6466 0.50885 0.0
C244 C 0.34049 0.62828 0.5218 0.0
C245 C 0.29853 0.71788 0.47201 0.0
C246 C 0.31006 0.69789 0.56052 0.0
C247 C 0.25737 0.64497 0.50425 0.0
O248 O 0.26243 0.66831 0.5023 0.0
O249 O 0.27401 0.6338 0.51127 0.0
O250 O 0.28531 0.72243 0.48866 0.0
O251 O 0.31097 0.70103 0.47541 0.0
O252 O 0.36678 0.55722 0.68917 0.0
Cd253 Cd 0.34385 0.55346 0.71576 0.0
Cd254 Cd 0.38348 0.54964 0.74579 0.0
O255 O 0.39973 0.55925 0.71495 0.0
O256 O 0.318 0.57183 0.70789 0.0
O257 O 0.34557 0.58241 0.74068 0.0
C258 C 0.3269 0.58665 0.72747 0.0
C259 C 0.40815 0.56349 0.78288 0.0
C260 C 0.38973 0.5603 0.69351 0.0
C261 C 0.33958 0.50533 0.73636 0.0
O262 O 0.36117 0.51462 0.74645 0.0
O263 O 0.32838 0.51792 0.7228 0.0
O264 O 0.41249 0.54661 0.76767 0.0
O265 O 0.38977 0.57318 0.77691 0.0
O266 O 0.61043 0.9782 0.73318 0.0
Cd267 Cd 0.63721 0.98191 0.76279 0.0
Cd268 Cd 0.60071 0.00525 0.78507 0.0
O269 O 0.583 0.99532 0.74958 0.0
O270 O 0.66152 0.96473 0.74904 0.0
O271 O 0.64409 0.95282 0.78122 0.0
C272 C 0.65927 0.94989 0.76595 0.0
C273 C 0.57834 0.00263 0.81893 0.0
C274 C 0.5903 0.98518 0.73109 0.0
C275 C 0.65152 0.03672 0.78292 0.0
O276 O 0.63027 0.03511 0.78915 0.0
O277 O 0.6576 0.01786 0.77271 0.0
O278 O 0.57613 0.01823 0.8031 0.0
O279 O 0.59268 0.9877 0.81524 0.0
O280 O 0.77624 0.65449 0.03719 0.0
Cd281 Cd 0.77532 0.637 1.00276 0.0
Cd282 Cd 0.77925 0.68189 0.99143 0.0
O283 O 0.79299 0.69158 0.02739 0.0
O284 O 0.78428 0.60484 0.00829 0.0
O285 O 0.80728 0.63543 0.9917 0.0
C286 C 0.80445 0.61381 0.99998 0.0
C287 C 0.80053 0.70066 0.96167 0.0
C288 C 0.78665 0.67719 0.04352 0.0
C289 C 0.731 0.64643 0.97847 0.0
O290 O 0.74172 0.66921 0.98411 0.0
O291 O 0.74288 0.62945 0.98063 0.0
O292 O 0.78865 0.71273 0.97512 0.0
O293 O 0.80042 0.67772 0.96523 0.0
O294 O 0.91016 0.58487 0.70604 0.0
Cd295 Cd 0.88407 0.58505 0.7297 0.0
Cd296 Cd 0.92237 0.56768 0.76161 0.0
O297 O 0.9383 0.57159 0.72921 0.0
O298 O 0.86045 0.60407 0.71519 0.0
O299 O 0.88129 0.61498 0.75189 0.0
C300 C 0.86506 0.61878 0.73521 0.0
C301 C 0.94723 0.57025 0.79925 0.0
C302 C 0.93049 0.57834 0.70885 0.0
C303 C 0.86952 0.5361 0.74982 0.0
O304 O 0.8908 0.54067 0.76149 0.0
O305 O 0.8633 0.55085 0.73507 0.0
O306 O 0.94475 0.55194 0.78262 0.0
O307 O 0.93692 0.5883 0.79405 0.0
O308 O 0.71735 0.38975 0.57868 0.0
Cd309 Cd 0.71506 0.41501 0.5528 0.0
Cd310 Cd 0.72864 0.37257 0.52247 0.0
O311 O 0.72326 0.35725 0.55552 0.0
O312 O 0.69939 0.44184 0.56652 0.0
O313 O 0.68286 0.41653 0.53345 0.0
C314 C 0.68192 0.43512 0.5488 0.0
C315 C 0.72443 0.34636 0.48543 0.0
C316 C 0.72039 0.36743 0.57624 0.0
C317 C 0.7628 0.42514 0.53178 0.0
O318 O 0.75772 0.40244 0.52285 0.0
O319 O 0.74818 0.43404 0.54398 0.0
O320 O 0.74112 0.34654 0.50316 0.0
O321 O 0.70884 0.35985 0.48918 0.0
O322 O 0.65686 0.49919 0.2477 0.0
Cd323 Cd 0.67929 0.50318 0.28017 0.0
Cd324 Cd 0.63833 0.51603 0.29851 0.0
O325 O 0.62333 0.50422 0.26264 0.0
O326 O 0.7067 0.48778 0.27191 0.0
O327 O 0.6811 0.47253 0.29743 0.0
C328 C 0.6995 0.47078 0.28593 0.0
C329 C 0.6124 0.50731 0.32884 0.0
C330 C 0.63438 0.49951 0.24454 0.0
C331 C 0.68529 0.55589 0.30224 0.0
O332 O 0.6628 0.55031 0.30491 0.0
O333 O 0.69577 0.53933 0.29395 0.0
O334 O 0.60978 0.52333 0.31358 0.0
O335 O 0.62977 0.49569 0.32682 0.0
Tb336 Tb 0.01722 0.05778 0.0153 0.0
C337 C 0.01949 0.01381 0.97638 0.0
Tb338 Tb 0.0028 0.00357 0.02844 0.0
O339 O 0.05495 0.05396 0.01386 0.0
O340 O 0.03324 0.03375 0.03683 0.0
O341 O 0.01729 0.03726 0.98016 0.0
C342 C 0.00313 0.95841 0.04269 0.0
O343 O 0.0162 0.99775 0.99313 0.0
C344 C 0.96621 0.02469 0.01608 0.0
C345 C 0.99926 0.04703 0.06681 0.0
O346 O 0.02123 0.97764 0.04663 0.0
O347 O 0.98478 0.96442 0.03034 0.0
O348 O 0.96509 0.00681 0.03024 0.0
O349 O 0.98641 0.02784 0.00756 0.0
O350 O 0.00311 0.0241 0.06358 0.0
O351 O 1.00216 0.06304 0.0499 0.0
C352 C 0.01669 0.10214 0.99903 0.0
O353 O 0.03185 0.09842 0.01704 0.0
O354 O 1.00192 0.08114 0.99084 0.0
C355 C 0.05349 0.03657 0.0286 0.0
Tb356 Tb 0.2729 0.81673 0.27344 0.0
C357 C 0.31212 0.78371 0.27697 0.0
Tb358 Tb 0.25562 0.75907 0.26947 0.0
O359 O 0.28807 0.8193 0.31202 0.0
O360 O 0.26044 0.78923 0.29693 0.0
O361 O 0.30718 0.80519 0.2711 0.0
C362 C 0.24321 0.71136 0.27818 0.0
O363 O 0.29488 0.76398 0.27974 0.0
C364 C 0.25226 0.77895 0.22763 0.0
C365 C 0.2163 0.79178 0.26647 0.0
O366 O 0.2562 0.71959 0.26125 0.0
O367 O 0.23731 0.72996 0.2901 0.0
O368 O 0.23979 0.7571 0.23103 0.0
O369 O 0.26796 0.7866 0.24608 0.0
O370 O 0.22132 0.77032 0.27239 0.0
O371 O 0.23349 0.81155 0.26344 0.0
C372 C 0.28787 0.86383 0.26361 0.0
O373 O 0.27275 0.85671 0.27922 0.0
O374 O 0.2941 0.84449 0.25355 0.0
C375 C 0.27605 0.79725 0.31537 0.0
Tb376 Tb 0.54496 0.03687 0.51423 0.0
C377 C 0.52751 0.01701 0.56279 0.0
Tb378 Tb 0.49145 0.03113 0.52046 0.0
O379 O 0.5541 0.06784 0.54345 0.0
O380 O 0.52134 0.06114 0.52035 0.0
O381 O 0.54407 0.01775 0.54733 0.0
C382 C 0.44939 0.03944 0.5327 0.0
O383 O 0.50627 0.02322 0.55686 0.0
C384 C 0.50241 0.99354 0.49571 0.0
C385 C 0.50884 0.05 0.47148 0.0
O386 O 0.47039 0.05482 0.53767 0.0
O387 O 0.45217 0.01887 0.52142 0.0
O388 O 0.48147 0.99964 0.49199 0.0
O389 O 0.51494 0.00677 0.51408 0.0
O390 O 0.49228 0.04954 0.48688 0.0
O391 O 0.53006 0.0439 0.47762 0.0
C392 C 0.58812 0.03165 0.50204 0.0
O393 O 0.58382 0.05161 0.51311 0.0
O394 O 0.56798 0.01482 0.49749 0.0
C395 C 0.53345 0.07429 0.53894 0.0
Tb396 Tb 0.26935 0.28743 0.80448 0.0
C397 C 0.27344 0.32861 0.76648 0.0
Tb398 Tb 0.26165 0.27153 0.74764 0.0
O399 O 0.30339 0.27368 0.80791 0.0
O400 O 0.29071 0.28611 0.77556 0.0
O401 O 0.26918 0.32277 0.78882 0.0
C402 C 0.27519 0.25478 0.70641 0.0
O403 O 0.27389 0.31174 0.74808 0.0
C404 C 0.22027 0.27522 0.76406 0.0
C405 C 0.25122 0.23052 0.78544 0.0
O406 O 0.26218 0.27158 0.7082 0.0
O407 O 0.28018 0.24729 0.72766 0.0
O408 O 0.22185 0.2685 0.74121 0.0
O409 O 0.24139 0.27906 0.7753 0.0
O410 O 0.2554 0.23558 0.76292 0.0
O411 O 0.2537 0.24782 0.80418 0.0
C412 C 0.26441 0.30707 0.84854 0.0
O413 O 0.24983 0.28751 0.83651 0.0
O414 O 0.28213 0.31522 0.83603 0.0
C415 C 0.30652 0.27566 0.78505 0.0
Tb416 Tb 1.00024 0.04708 0.5078 0.0
C417 C 0.96729 0.02747 0.54763 0.0
Tb418 Tb 0.0254 0.04175 0.55922 0.0
O419 O 0.98921 0.00643 0.50083 0.0
O420 O 0.02114 0.02333 0.52362 0.0
O421 O 0.96821 0.03727 0.52637 0.0
C422 C 0.04557 0.02376 0.5977 0.0
O423 O 0.98697 0.02643 0.56271 0.0
C424 C 0.01724 0.08611 0.55355 0.0
C425 C 0.0568 0.06466 0.52019 0.0
O426 O 0.0264 0.01184 0.58322 0.0
O427 O 0.05292 0.04574 0.59078 0.0
O428 O 0.03337 0.08208 0.57034 0.0
O429 O 0.00493 0.06545 0.54355 0.0
O430 O 0.05599 0.04994 0.53813 0.0
O431 O 0.03699 0.06922 0.50818 0.0
C432 C 0.98586 0.05997 0.46398 0.0
O433 O 1.00188 0.04672 0.46852 0.0
O434 O 0.9776 0.06591 0.48417 0.0
C435 C 0.00708 0.00277 0.51574 0.0
Tb436 Tb 0.29087 0.77755 0.78222 0.0
C437 C 0.25209 0.7844 0.8177 0.0
Tb438 Tb 0.23774 0.7744 0.75965 0.0
O439 O 0.29645 0.81746 0.79451 0.0
O440 O 0.27089 0.80111 0.76481 0.0
O441 O 0.27338 0.77835 0.81557 0.0
C442 C 0.19611 0.78465 0.74124 0.0
O443 O 0.23642 0.78582 0.79842 0.0
C444 C 0.24961 0.73125 0.76241 0.0
C445 C 0.27661 0.76578 0.72448 0.0
O446 O 0.19802 0.76835 0.75673 0.0
O447 O 0.21757 0.79519 0.7363 0.0
O448 O 0.23175 0.73482 0.74737 0.0
O449 O 0.25753 0.75071 0.77705 0.0
O450 O 0.25501 0.77126 0.72622 0.0
O451 O 0.29251 0.76538 0.74384 0.0
C452 C 0.33359 0.76831 0.7989 0.0
O453 O 0.33058 0.78512 0.78434 0.0
O454 O 0.31257 0.75673 0.80404 0.0
C455 C 0.27853 0.82066 0.77933 0.0
Tb456 Tb 0.47786 0.03069 0.01034 0.0
C457 C 0.51304 0.99528 0.02073 0.0
Tb458 Tb 0.53328 0.05301 0.01671 0.0
O459 O 0.47958 0.00827 0.97626 0.0
O460 O 0.50524 0.04135 0.9872 0.0
O461 O 0.49097 0.9991 0.02281 0.0
C462 C 0.58078 0.06451 0.01186 0.0
O463 O 0.53127 0.01293 0.01572 0.0
C464 C 0.51139 0.06195 0.05496 0.0
C465 C 0.49763 0.08822 0.00537 0.0
O466 O 0.5715 0.05488 0.0304 0.0
O467 O 0.56334 0.06786 0.99617 0.0
O468 O 0.532 0.07548 0.05075 0.0
O469 O 0.50604 0.04252 0.03998 0.0
O470 O 0.51996 0.08463 0.00405 0.0
O471 O 0.47933 0.07051 0.01017 0.0
C472 C 0.43048 0.01726 0.01533 0.0
O473 O 0.43927 0.02391 0.99546 0.0
O474 O 0.44835 0.0182 0.03234 0.0
C475 C 0.50009 0.02206 0.97214 0.0
Tb476 Tb 0.24013 0.27898 0.26846 0.0
C477 C 0.28019 0.2712 0.30945 0.0
Tb478 Tb 0.29434 0.29777 0.26251 0.0
O479 O 0.24278 0.23999 0.26383 0.0
O480 O 0.26598 0.26712 0.24763 0.0
O481 O 0.25677 0.27042 0.30298 0.0
C482 C 0.34018 0.30141 0.25322 0.0
O483 O 0.2979 0.28105 0.29682 0.0
C484 C 0.27255 0.33226 0.27903 0.0
C485 C 0.2544 0.30327 0.221 0.0
O486 O 0.32679 0.28231 0.26122 0.0
O487 O 0.32792 0.31867 0.25109 0.0
O488 O 0.29212 0.3369 0.26833 0.0
O489 O 0.26855 0.30956 0.28293 0.0
O490 O 0.27659 0.29906 0.22589 0.0
O491 O 0.23749 0.29837 0.23587 0.0
C492 C 0.19574 0.27928 0.27981 0.0
O493 O 0.20078 0.26283 0.26414 0.0
O494 O 0.21554 0.29516 0.28881 0.0
C495 C 0.26188 0.24457 0.25227 0.0
Tb496 Tb 0.50804 0.54443 0.99046 0.0
C497 C 0.47615 0.52443 0.03077 0.0
Tb498 Tb 0.5337 0.54073 0.04391 0.0
O499 O 0.49853 0.50365 0.98409 0.0
O500 O 0.52895 0.5218 0.00827 0.0
O501 O 0.47685 0.53565 0.01032 0.0
C502 C 0.55543 0.52331 0.08184 0.0
O503 O 0.49579 0.52211 0.04513 0.0
C504 C 0.51936 0.58301 0.04025 0.0
C505 C 0.56466 0.56562 0.00431 0.0
O506 O 0.53373 0.51343 0.07081 0.0
O507 O 0.56479 0.54289 0.07153 0.0
O508 O 0.53028 0.57766 0.06041 0.0
O509 O 0.51692 0.56453 0.02492 0.0
O510 O 0.56479 0.55361 0.02432 0.0
O511 O 0.54458 0.56666 0.9901 0.0
C512 C 0.49136 0.55764 0.94784 0.0
O513 O 0.50864 0.54558 0.95121 0.0
O514 O 0.48324 0.56214 0.96851 0.0
C515 C 0.51573 0.5008 1.00036 0.0
Tb516 Tb 0.78954 0.28008 0.28151 0.0
C517 C 0.75013 0.28396 0.31662 0.0
Tb518 Tb 0.73695 0.27497 0.25844 0.0
O519 O 0.79265 0.31922 0.29498 0.0
O520 O 0.76904 0.30306 0.26368 0.0
O521 O 0.77164 0.27842 0.31461 0.0
C522 C 0.69435 0.28371 0.24129 0.0
O523 O 0.73477 0.28564 0.2972 0.0
C524 C 0.75071 0.23274 0.26111 0.0
C525 C 0.77656 0.26922 0.22358 0.0
O526 O 0.69713 0.26583 0.25459 0.0
O527 O 0.71544 0.29647 0.23761 0.0
O528 O 0.73351 0.23599 0.24503 0.0
O529 O 0.7572 0.2519 0.27636 0.0
O530 O 0.75489 0.27454 0.22521 0.0
O531 O 0.79208 0.26857 0.24319 0.0
C532 C 0.83357 0.27458 0.29819 0.0
O533 O 0.81345 0.25831 0.29863 0.0
O534 O 0.82896 0.29387 0.28818 0.0
C535 C 0.77536 0.32218 0.27894 0.0
Tb536 Tb 0.98294 0.52228 0.51488 0.0
C537 C 0.02279 0.49178 0.52673 0.0
Tb538 Tb 0.03638 0.54992 0.52039 0.0
O539 O 0.98803 0.50016 0.48201 0.0
O540 O 0.0085 0.53661 0.49086 0.0
O541 O 0.99958 0.49265 0.52747 0.0
C542 C 0.08296 0.56694 0.51385 0.0
O543 O 0.03973 0.51141 0.52306 0.0
C544 C 0.01492 0.55459 0.55997 0.0
C545 C 0.99675 0.57931 0.50705 0.0
O546 O 0.07055 0.54429 0.50762 0.0
O547 O 0.0692 0.57986 0.52381 0.0
O548 O 0.03482 0.56959 0.55615 0.0
O549 O 0.0108 0.53593 0.54425 0.0
O550 O 0.01849 0.57613 0.50249 0.0
O551 O 0.98089 0.5615 0.51531 0.0
C552 C 0.93549 0.50575 0.51782 0.0
O553 O 0.9449 0.51201 0.49817 0.0
O554 O 0.9528 0.5086 0.53583 0.0
C555 C 0.00577 0.51707 0.47644 0.0
Tb556 Tb 0.77334 0.79338 0.30668 0.0
C557 C 0.78129 0.83248 0.26739 0.0
Tb558 Tb 0.7629 0.77459 0.24999 0.0
O559 O 0.81279 0.80316 0.30441 0.0
O560 O 0.78974 0.77539 0.27997 0.0
O561 O 0.77751 0.82839 0.29022 0.0
C562 C 0.76922 0.7558 0.2063 0.0
O563 O 0.77848 0.81439 0.24922 0.0
C564 C 0.72432 0.78526 0.2682 0.0
C565 C 0.7547 0.73571 0.28956 0.0
O566 O 0.78378 0.77508 0.21891 0.0
O567 O 0.75095 0.74753 0.21806 0.0
O568 O 0.72404 0.7779 0.24519 0.0
O569 O 0.74557 0.7868 0.27789 0.0
O570 O 0.76013 0.73984 0.26715 0.0
O571 O 0.75597 0.75396 0.30723 0.0
C572 C 0.76547 0.80894 0.351 0.0
O573 O 0.77934 0.79343 0.34648 0.0
O574 O 0.7565 0.81574 0.33073 0.0
C575 C 0.81115 0.78828 0.2845 0.0
Tb576 Tb 0.76874 0.31583 0.77207 0.0
C577 C 0.80956 0.28544 0.77464 0.0
Tb578 Tb 0.75303 0.25893 0.76729 0.0
O579 O 0.78568 0.3158 0.80954 0.0
O580 O 0.7552 0.28817 0.79504 0.0
O581 O 0.80397 0.30679 0.76925 0.0
C582 C 0.74247 0.21107 0.77616 0.0
O583 O 0.79271 0.26504 0.77662 0.0
C584 C 0.7503 0.27907 0.72574 0.0
C585 C 0.71225 0.28965 0.76421 0.0
O586 O 0.75163 0.21928 0.75695 0.0
O587 O 0.73953 0.2298 0.79032 0.0
O588 O 0.7367 0.25786 0.72945 0.0
O589 O 0.76625 0.28654 0.7441 0.0
O590 O 0.71764 0.26808 0.76909 0.0
O591 O 0.72922 0.31006 0.76275 0.0
C592 C 0.77829 0.36451 0.76618 0.0
O593 O 0.77272 0.35503 0.78617 0.0
O594 O 0.77836 0.34662 0.7496 0.0
C595 C 0.77133 0.29508 0.81323 0.0
Tb596 Tb 0.74085 0.77756 0.78263 0.0
C597 C 0.7902 0.77656 0.81323 0.0
Tb598 Tb 0.78796 0.78993 0.7583 0.0
O599 O 0.74477 0.73887 0.7851 0.0
O600 O 0.75863 0.75902 0.75756 0.0
O601 O 0.76755 0.7791 0.81387 0.0
C602 C 0.82731 0.78839 0.73628 0.0
O603 O 0.80147 0.77855 0.79334 0.0
C604 C 0.7702 0.82873 0.77115 0.0
C605 C 0.73788 0.79015 0.72801 0.0
O606 O 0.82484 0.80701 0.75095 0.0
O607 O 0.80782 0.77078 0.73423 0.0
O608 O 0.78418 0.82794 0.75404 0.0
O609 O 0.76941 0.80925 0.78214 0.0
O610 O 0.76024 0.7864 0.72691 0.0
O611 O 0.72755 0.78994 0.74848 0.0
C612 C 0.70317 0.78055 0.80662 0.0
O613 O 0.70244 0.76456 0.78781 0.0
O614 O 0.7248 0.79466 0.8115 0.0
C615 C 0.7579 0.73894 0.76717 0.0
Tb616 Tb 0.51569 0.55584 0.5129 0.0
C617 C 0.52129 0.51387 0.47321 0.0
Tb618 Tb 0.50025 0.49966 0.52241 0.0
O619 O 0.55446 0.55428 0.51545 0.0
O620 O 0.53035 0.52976 0.53279 0.0
O621 O 0.51771 0.53681 0.4775 0.0
C622 C 0.49991 0.45559 0.53963 0.0
O623 O 0.51811 0.49695 0.48922 0.0
C624 C 0.46383 0.52067 0.50842 0.0
C625 C 0.49226 0.54173 0.56084 0.0
O626 O 0.4903 0.45847 0.51784 0.0
O627 O 0.51003 0.47729 0.5511 0.0
O628 O 0.46142 0.5004 0.51939 0.0
O629 O 0.48529 0.52567 0.50282 0.0
O630 O 0.49562 0.5187 0.5569 0.0
O631 O 0.49748 0.55905 0.54558 0.0
C632 C 0.51688 0.60169 0.49953 0.0
O633 O 0.52982 0.59655 0.51855 0.0
O634 O 0.50332 0.58113 0.4884 0.0
C635 C 0.55167 0.53434 0.52693 0.0
Tb636 Tb 0.04407 0.54127 0.01566 0.0
C637 C 0.02785 0.52126 0.06467 0.0
Tb638 Tb 0.99052 0.53336 0.02232 0.0
O639 O 0.05265 0.57287 0.044 0.0
O640 O 0.01933 0.56439 0.02143 0.0
O641 O 0.04446 0.52277 0.04917 0.0
C642 C 0.9487 0.54153 0.03534 0.0
O643 O 0.00606 0.52624 0.0587 0.0
C644 C 0.00303 0.49628 0.99839 0.0
C645 C 0.00628 0.55118 0.97245 0.0
O646 O 0.95147 0.52072 0.0245 0.0
O647 O 0.9696 0.55717 0.03943 0.0
O648 O 0.9815 0.50106 0.99469 0.0
O649 O 0.01522 0.51029 0.01645 0.0
O650 O 0.98916 0.54891 0.98732 0.0
O651 O 0.02866 0.54822 0.97925 0.0
C652 C 0.08659 0.53657 1.00159 0.0
O653 O 0.08288 0.55596 0.01423 0.0
O654 O 0.06632 0.51995 0.99678 0.0
C655 C 0.03143 0.57822 0.0397 0.0
H656 H 0.01461 0.19857 0.88524 0.0
H657 H 0.04505 0.1493 0.0137 0.0
H658 H 0.03585 0.25028 0.9505 0.0
H659 H 0.99095 0.10723 0.95647 0.0
H660 H 0.04791 0.18616 0.99045 0.0
H661 H 0.0128 0.16394 0.91049 0.0
C662 C 0.01908 0.20267 0.90488 0.0
C663 C 0.02529 0.22739 0.91577 0.0
C664 C 0.03534 0.16884 0.98319 0.0
C665 C 0.02333 0.18771 0.94479 0.0
C666 C 0.03371 0.1479 0.99639 0.0
C667 C 0.01777 0.12526 0.98694 0.0
C668 C 0.02133 0.16675 0.96026 0.0
C669 C 0.00349 0.12432 0.96443 0.0
C670 C 0.01789 0.18288 0.91928 0.0
C671 C 0.03083 0.2315 0.94137 0.0
N672 N 0.00579 0.14465 0.95177 0.0
N673 N 0.02982 0.21183 0.95506 0.0
H674 H 0.05855 0.75297 0.24218 0.0
H675 H 0.197 0.82674 0.2431 0.0
H676 H 0.08112 0.8102 0.19495 0.0
H677 H 0.17621 0.75918 0.27787 0.0
H678 H 0.15389 0.82564 0.23118 0.0
H679 H 0.10078 0.75992 0.26134 0.0
C680 C 0.07228 0.76726 0.23609 0.0
C681 C 0.06627 0.78085 0.21675 0.0
C682 C 0.15877 0.81119 0.24162 0.0
C683 C 0.11467 0.78882 0.23854 0.0
C684 C 0.1834 0.81186 0.24854 0.0
C685 C 0.19031 0.79294 0.26139 0.0
C686 C 0.14085 0.79153 0.2477 0.0
C687 C 0.1718 0.77407 0.2678 0.0
C688 C 0.09642 0.77112 0.24695 0.0
C689 C 0.0849 0.7991 0.20962 0.0
N690 N 0.14797 0.77379 0.26081 0.0
N691 N 0.10823 0.80244 0.2204 0.0
H692 H 0.5126 0.87919 0.38396 0.0
H693 H 0.53922 0.96998 0.50853 0.0
H694 H 0.55501 0.86448 0.44857 0.0
H695 H 0.48138 0.97007 0.45124 0.0
H696 H 0.54967 0.93488 0.48503 0.0
H697 H 0.50561 0.91629 0.40655 0.0
C698 C 0.52061 0.88383 0.40286 0.0
C699 C 0.53434 0.86856 0.41439 0.0
C700 C 0.53473 0.94263 0.47761 0.0
C701 C 0.52634 0.91117 0.44041 0.0
C702 C 0.52885 0.96269 0.49093 0.0
C703 C 0.50943 0.97285 0.48174 0.0
C704 C 0.5212 0.93288 0.45488 0.0
C705 C 0.49642 0.96266 0.45898 0.0
C706 C 0.51651 0.905 0.41578 0.0
C707 C 0.54421 0.87561 0.43896 0.0
N708 N 0.50257 0.94328 0.44631 0.0
N709 N 0.54001 0.8964 0.45116 0.0
H710 H 0.41924 0.2773 0.68956 0.0
H711 H 0.34089 0.25035 0.80163 0.0
H712 H 0.4341 0.22837 0.74378 0.0
H713 H 0.3201 0.28982 0.74134 0.0
H714 H 0.37593 0.2432 0.7816 0.0
H715 H 0.38367 0.28327 0.70905 0.0
C716 C 0.41505 0.2678 0.70555 0.0
C717 C 0.42975 0.2523 0.71501 0.0
C718 C 0.36365 0.25335 0.7727 0.0
C719 C 0.38899 0.25916 0.73756 0.0
C720 C 0.34368 0.25744 0.78416 0.0
C721 C 0.32752 0.2706 0.7731 0.0
C722 C 0.36764 0.26268 0.7501 0.0
C723 C 0.33201 0.27943 0.75045 0.0
C724 C 0.39469 0.27119 0.71667 0.0
C725 C 0.42332 0.24047 0.7358 0.0
N726 N 0.35163 0.27538 0.73977 0.0
N727 N 0.40353 0.24421 0.74639 0.0
H728 H 0.97706 0.85659 0.56782 0.0
H729 H 0.04694 0.99035 0.53904 0.0
H730 H 0.05321 0.87291 0.55775 0.0
H731 H 0.97094 0.96099 0.51297 0.0
H732 H 0.04931 0.94992 0.55376 0.0
H733 H 0.97418 0.89777 0.55514 0.0
C734 C 0.99314 0.86886 0.56303 0.0
C735 C 0.01536 0.86137 0.56365 0.0
C736 C 0.03215 0.95237 0.54477 0.0
C737 C 0.01228 0.90825 0.54963 0.0
C738 C 0.03079 0.97535 0.53644 0.0
C739 C 0.00878 0.97874 0.52465 0.0
C740 C 0.01124 0.93293 0.5416 0.0
C741 C 0.9883 0.9589 0.52179 0.0
C742 C 0.99147 0.89223 0.55575 0.0
C743 C 0.03568 0.87792 0.55729 0.0
N744 N 0.98997 0.93678 0.53033 0.0
N745 N 0.03369 0.90068 0.55066 0.0
H746 H 0.44782 0.74175 0.90261 0.0
H747 H 0.37859 0.79148 0.78952 0.0
H748 H 0.48185 0.79765 0.85886 0.0
H749 H 0.34214 0.73765 0.83377 0.0
H750 H 0.41765 0.78934 0.81154 0.0
H751 H 0.4099 0.73549 0.87464 0.0
C752 C 0.44739 0.75249 0.88701 0.0
C753 C 0.46787 0.77048 0.88322 0.0
C754 C 0.40116 0.7778 0.81634 0.0
C755 C 0.42481 0.76347 0.8513 0.0
C756 C 0.37889 0.77902 0.80374 0.0
C757 C 0.35723 0.76494 0.81008 0.0
C758 C 0.40173 0.76254 0.83557 0.0
C759 C 0.35853 0.74894 0.82851 0.0
C760 C 0.42578 0.74895 0.87109 0.0
C761 C 0.4664 0.78382 0.86269 0.0
N762 N 0.38044 0.74836 0.84084 0.0
N763 N 0.44522 0.78017 0.84764 0.0
H764 H 0.52406 0.24608 0.03121 0.0
H765 H 0.45497 0.10353 0.00825 0.0
H766 H 0.45527 0.21544 0.05632 0.0
H767 H 0.53045 0.13087 0.99874 0.0
H768 H 0.45009 0.14644 0.01336 0.0
H769 H 0.52131 0.20637 0.00692 0.0
C770 C 0.50809 0.23123 0.03115 0.0
C771 C 0.49016 0.23381 0.04629 0.0
C772 C 0.46761 0.14302 0.00974 0.0
C773 C 0.48701 0.18846 0.0187 0.0
C774 C 0.47045 0.11851 0.00683 0.0
C775 C 0.49335 0.1136 0.00373 0.0
C776 C 0.48783 0.16276 0.00964 0.0
C777 C 0.51258 0.13379 1.0016 0.0
C778 C 0.50659 0.20855 0.01735 0.0
C779 C 0.46977 0.21405 0.04533 0.0
N780 N 0.50949 0.15754 0.00502 0.0
N781 N 0.46894 0.19204 0.03209 0.0
H782 H 0.09643 0.30231 0.38095 0.0
H783 H 0.15541 0.24082 0.27316 0.0
H784 H 0.06902 0.22693 0.34696 0.0
H785 H 0.1836 0.31532 0.3088 0.0
H786 H 0.12013 0.23727 0.296 0.0
H787 H 0.12572 0.30907 0.35131 0.0
C788 C 0.09659 0.28719 0.36726 0.0
C789 C 0.08048 0.26395 0.36658 0.0
C790 C 0.13388 0.25452 0.29856 0.0
C791 C 0.11378 0.27155 0.33255 0.0
C792 C 0.15387 0.25657 0.28543 0.0
C793 C 0.17242 0.27824 0.28943 0.0
C794 C 0.13264 0.27429 0.31573 0.0
C795 C 0.16973 0.29816 0.30548 0.0
C796 C 0.11322 0.29108 0.35027 0.0
C797 C 0.08127 0.24509 0.34829 0.0
N798 N 0.15034 0.29561 0.31826 0.0
N799 N 0.09776 0.24926 0.33208 0.0
H800 H 0.95033 0.09056 0.20471 0.0
H801 H 0.9699 0.01433 0.09071 0.0
H802 H 0.88739 0.05166 0.15513 0.0
H803 H 1.00052 0.09315 0.09121 0.0
H804 H 0.94631 0.0237 0.12332 0.0
H805 H 0.97562 0.08909 0.17111 0.0
C806 C 0.9418 0.08207 0.18672 0.0
C807 C 0.91675 0.07113 0.18268 0.0
C808 C 0.95841 0.03887 0.11641 0.0
C809 C 0.94547 0.069 0.14481 0.0
C810 C 0.97208 0.0336 0.09801 0.0
C811 C 0.98738 0.05302 0.08837 0.0
C812 C 0.96045 0.06364 0.12572 0.0
C813 C 0.98899 0.07768 0.09824 0.0
C814 C 0.95618 0.08137 0.16767 0.0
C815 C 0.90658 0.06038 0.15904 0.0
N816 N 0.97579 0.08236 0.11668 0.0
N817 N 0.92109 0.05906 0.14113 0.0
H818 H 0.30904 0.7017 0.42687 0.0
H819 H 0.2852 0.82023 0.36166 0.0
H820 H 0.2854 0.76205 0.46462 0.0
H821 H 0.27465 0.74784 0.32154 0.0
H822 H 0.29181 0.8014 0.39992 0.0
H823 H 0.30336 0.72064 0.38838 0.0
C824 C 0.30301 0.7191 0.42714 0.0
C825 C 0.29775 0.73033 0.44905 0.0
C826 C 0.28785 0.78958 0.38276 0.0
C827 C 0.29127 0.75208 0.40511 0.0
C828 C 0.28407 0.8003 0.36094 0.0
C829 C 0.27876 0.78544 0.33845 0.0
C830 C 0.28704 0.76387 0.3821 0.0
C831 C 0.27786 0.75979 0.33852 0.0
C832 C 0.29956 0.72975 0.40514 0.0
C833 C 0.28968 0.75273 0.44821 0.0
N834 N 0.28214 0.74982 0.35999 0.0
N835 N 0.28682 0.76291 0.42669 0.0
H836 H 0.60073 0.96543 0.68741 0.0
H837 H 0.5048 0.02202 0.60421 0.0
H838 H 0.54981 0.00388 0.71768 0.0
H839 H 0.56358 0.99333 0.57755 0.0
H840 H 0.517 0.01072 0.64511 0.0
H841 H 0.58291 0.97013 0.64641 0.0
C842 C 0.58557 0.97458 0.6855 0.0
C843 C 0.57695 0.98443 0.7062 0.0
C844 C 0.52709 0.00676 0.63023 0.0
C845 C 0.55651 0.99017 0.65893 0.0
C846 C 0.52009 0.01314 0.60685 0.0
C847 C 0.53324 0.00878 0.58736 0.0
C848 C 0.54727 0.99575 0.63412 0.0
C849 C 0.55297 0.99729 0.59197 0.0
C850 C 0.57545 0.97737 0.66199 0.0
C851 C 0.55716 0.99603 0.70235 0.0
N852 N 0.55936 0.99126 0.61477 0.0
N853 N 0.54776 0.99877 0.67922 0.0
H854 H 0.23636 0.34422 0.99463 0.0
H855 H 0.28385 0.35505 0.86724 0.0
H856 H 0.24705 0.41399 0.96235 0.0
H857 H 0.23398 0.28808 0.88085 0.0
H858 H 0.27439 0.37664 0.90426 0.0
H859 H 0.23789 0.32241 0.95468 0.0
C860 C 0.23857 0.35484 0.97899 0.0
C861 C 0.24163 0.38087 0.98165 0.0
C862 C 0.26546 0.35725 0.89904 0.0
C863 C 0.24416 0.3563 0.93641 0.0
C864 C 0.27104 0.34489 0.87816 0.0
C865 C 0.25978 0.31979 0.87126 0.0
C866 C 0.24895 0.34418 0.9133 0.0
C867 C 0.24309 0.30746 0.88575 0.0
C868 C 0.23945 0.34243 0.95629 0.0
C869 C 0.2445 0.39386 0.96094 0.0
N870 N 0.23836 0.31972 0.90633 0.0
N871 N 0.24621 0.38148 0.93919 0.0
H872 H 0.90153 0.09012 0.33417 0.0
H873 H 0.00596 0.05223 0.42253 0.0
H874 H 0.9606 0.0602 0.30989 0.0
H875 H 0.94816 0.08211 0.44973 0.0
H876 H 0.99169 0.05983 0.3813 0.0
H877 H 0.92041 0.09244 0.37663 0.0
C878 C 0.91866 0.08446 0.33773 0.0
C879 C 0.92938 0.07468 0.31852 0.0
C880 C 0.98212 0.06491 0.39622 0.0
C881 C 0.95089 0.07708 0.36684 0.0
C882 C 0.99027 0.06053 0.41978 0.0
C883 C 0.97803 0.06632 0.43944 0.0
C884 C 0.96138 0.07496 0.39216 0.0
C885 C 0.95797 0.07725 0.43494 0.0
C886 C 0.92936 0.08567 0.36195 0.0
C887 C 0.95153 0.06757 0.32414 0.0
N888 N 0.95006 0.081 0.41167 0.0
N889 N 0.9614 0.06873 0.34774 0.0
H890 H 0.29295 0.67314 0.59814 0.0
H891 H 0.32015 0.7788 0.70589 0.0
H892 H 0.32251 0.74741 0.58005 0.0
H893 H 0.24704 0.73458 0.68764 0.0
H894 H 0.33007 0.7637 0.66574 0.0
H895 H 0.2852 0.69103 0.63773 0.0
C896 C 0.2983 0.69319 0.60265 0.0
C897 C 0.30852 0.70879 0.58569 0.0
C898 C 0.31185 0.75751 0.67058 0.0
C899 C 0.29986 0.72923 0.63121 0.0
C900 C 0.30619 0.76602 0.6934 0.0
C901 C 0.28266 0.75809 0.69995 0.0
C902 C 0.29414 0.74021 0.6547 0.0
C903 C 0.26529 0.74139 0.68317 0.0
C904 C 0.29364 0.70333 0.62516 0.0
C905 C 0.31466 0.7347 0.59255 0.0
N906 N 0.27147 0.73268 0.6615 0.0
N907 N 0.31043 0.74414 0.61489 0.0
H908 H 0.53555 0.0167 0.82392 0.0
H909 H 0.54861 0.02603 0.96855 0.0
H910 H 0.5926 0.99012 0.86451 0.0
H911 H 0.47821 0.00909 0.92542 0.0
H912 H 0.56752 0.0196 0.93109 0.0
H913 H 0.51626 0.02033 0.86136 0.0
C914 C 0.54394 0.01149 0.8407 0.0
C915 C 0.56564 0.00295 0.84108 0.0
C916 C 0.54795 0.01735 0.92988 0.0
C917 C 0.544 0.00773 0.88409 0.0
C918 C 0.53722 0.02134 0.95115 0.0
C919 C 0.51192 0.01852 0.94992 0.0
C920 C 0.53324 0.01103 0.90722 0.0
C921 C 0.49782 0.01157 0.92706 0.0
C922 C 0.53291 0.01355 0.86202 0.0
C923 C 0.57575 0.99654 0.86337 0.0
N924 N 0.50868 0.00837 0.90655 0.0
N925 N 0.56503 0.99938 0.88408 0.0
H926 H 0.20991 0.36824 0.09094 0.0
H927 H 0.28717 0.33665 0.20114 0.0
H928 H 0.25554 0.42732 0.14157 0.0
H929 H 0.21042 0.3026 0.19465 0.0
H930 H 0.27827 0.36529 0.1716 0.0
H931 H 0.21028 0.33962 0.12293 0.0
C932 C 0.21941 0.37533 0.10896 0.0
C933 C 0.23291 0.40007 0.11364 0.0
C934 C 0.26346 0.35138 0.17658 0.0
C935 C 0.23403 0.36751 0.14949 0.0
C936 C 0.26852 0.33481 0.19305 0.0
C937 C 0.24948 0.31719 0.20015 0.0
C938 C 0.23932 0.34989 0.16672 0.0
C939 C 0.22556 0.31595 0.1895 0.0
C940 C 0.21963 0.35903 0.12706 0.0
C941 C 0.24493 0.40839 0.13722 0.0
N942 N 0.2211 0.33205 0.17303 0.0
N943 N 0.24579 0.39192 0.15412 0.0
H944 H 0.15407 0.93941 0.00684 0.0
H945 H 0.06362 0.01207 0.06847 0.0
H946 H 0.16029 0.95785 0.08483 0.0
H947 H 0.08343 0.02397 0.9964 0.0
H948 H 0.09337 0.9855 0.0736 0.0
H949 H 0.12242 0.96366 1.00146 0.0
C950 C 0.14863 0.94834 0.02284 0.0
C951 C 0.15994 0.94663 0.04633 0.0
C952 C 0.09117 0.99392 0.05667 0.0
C953 C 0.12353 0.9742 0.04029 0.0
C954 C 0.07416 0.00897 0.0537 0.0
C955 C 0.07113 0.02026 0.03202 0.0
C956 C 0.10495 0.98975 0.03763 0.0
C957 C 0.08534 0.01576 0.01349 0.0
C958 C 0.13067 0.96228 0.01974 0.0
C959 C 0.15219 0.95874 0.06639 0.0
N960 N 0.10149 0.00074 0.01664 0.0
N961 N 0.13442 0.97187 0.06293 0.0
H962 H 0.69957 0.6704 0.99902 0.0
H963 H 0.57872 0.56728 0.9587 0.0
H964 H 0.70189 0.60507 0.95175 0.0
H965 H 0.60309 0.59424 0.03443 0.0
H966 H 0.61788 0.59005 0.94776 0.0
H967 H 0.65688 0.6522 0.0029 0.0
C968 C 0.69086 0.65266 0.98874 0.0
C969 C 0.70422 0.6391 0.97513 0.0
C970 C 0.61445 0.59101 0.96669 0.0
C971 C 0.65573 0.61846 0.97948 0.0
C972 C 0.5923 0.5781 0.97294 0.0
C973 C 0.58799 0.5788 0.9975 0.0
C974 C 0.63182 0.60535 0.98506 0.0
C975 C 0.60598 0.59305 0.01534 0.0
C976 C 0.66666 0.64224 0.9912 0.0
C977 C 0.69215 0.61601 0.96248 0.0
N978 N 0.62712 0.60599 0.00874 0.0
N979 N 0.6685 0.60629 0.96505 0.0
H980 H 0.68103 0.42474 0.30027 0.0
H981 H 0.79929 0.37078 0.28422 0.0
H982 H 0.74476 0.46797 0.27473 0.0
H983 H 0.72721 0.32387 0.27698 0.0
H984 H 0.78145 0.40773 0.28747 0.0
H985 H 0.69974 0.38839 0.29895 0.0
C986 C 0.69906 0.42666 0.29468 0.0
C987 C 0.71134 0.44936 0.28753 0.0
C988 C 0.76955 0.3893 0.28491 0.0
C989 C 0.7328 0.40801 0.28606 0.0
C990 C 0.77969 0.3683 0.28303 0.0
C991 C 0.7646 0.34431 0.27953 0.0
C992 C 0.74419 0.38619 0.28402 0.0
C993 C 0.73938 0.34198 0.27862 0.0
C994 C 0.70963 0.4059 0.29376 0.0
C995 C 0.73461 0.45077 0.28028 0.0
N996 N 0.72994 0.36266 0.28098 0.0
N997 N 0.74462 0.43041 0.27979 0.0
H998 H 0.79082 0.46438 0.56276 0.0
H999 H 0.89941 0.48884 0.48006 0.0
H1000 H 0.78952 0.42093 0.49408 0.0
H1001 H 0.9122 0.50173 0.55876 0.0
H1002 H 0.85616 0.4719 0.48268 0.0
H1003 H 0.83269 0.48649 0.55915 0.0
C1004 C 0.79919 0.45979 0.54676 0.0
C1005 C 0.78678 0.44075 0.52873 0.0
C1006 C 0.86844 0.47855 0.49935 0.0
C1007 C 0.8343 0.46595 0.52446 0.0
C1008 C 0.89305 0.48823 0.49787 0.0
C1009 C 0.90932 0.49644 0.51924 0.0
C1010 C 0.86 0.47753 0.52234 0.0
C1011 C 0.9002 0.49533 0.54188 0.0
C1012 C 0.82307 0.47225 0.54482 0.0
C1013 C 0.79852 0.43538 0.50847 0.0
N1014 N 0.87607 0.48608 0.54286 0.0
N1015 N 0.82159 0.44794 0.50685 0.0
H1016 H 0.38358 0.17164 0.25011 0.0
H1017 H 0.25571 0.19762 0.26604 0.0
H1018 H 0.31918 0.11417 0.22542 0.0
H1019 H 0.30281 0.24977 0.22814 0.0
H1020 H 0.28201 0.16803 0.26088 0.0
H1021 H 0.35781 0.20264 0.25189 0.0
C1022 C 0.36407 0.16557 0.24513 0.0
C1023 C 0.35345 0.14034 0.23758 0.0
C1024 C 0.28663 0.18605 0.25387 0.0
C1025 C 0.32413 0.17533 0.24014 0.0
C1026 C 0.27167 0.20294 0.25675 0.0
C1027 C 0.27739 0.22646 0.24799 0.0
C1028 C 0.30782 0.1929 0.24266 0.0
C1029 C 0.29824 0.23221 0.23594 0.0
C1030 C 0.34949 0.18322 0.24601 0.0
C1031 C 0.3281 0.13344 0.23123 0.0
N1032 N 0.31299 0.21568 0.23394 0.0
N1033 N 0.31426 0.15074 0.23302 0.0
H1034 H 0.29987 0.05728 0.5138 0.0
H1035 H 0.44297 0.08594 0.54483 0.0
H1036 H 0.34696 0.12508 0.4977 0.0
H1037 H 0.40334 0.01081 0.51976 0.0
H1038 H 0.40545 0.10066 0.53655 0.0
H1039 H 0.33578 0.03952 0.52264 0.0
C1040 C 0.31771 0.06825 0.51177 0.0
C1041 C 0.32054 0.09265 0.50501 0.0
C1042 C 0.40496 0.08092 0.53309 0.0
C1043 C 0.36132 0.07288 0.51585 0.0
C1044 C 0.42624 0.07247 0.53807 0.0
C1045 C 0.42615 0.04717 0.53279 0.0
C1046 C 0.38344 0.0639 0.52312 0.0
C1047 C 0.40404 0.03048 0.52399 0.0
C1048 C 0.33809 0.05815 0.51689 0.0
C1049 C 0.34398 0.10614 0.50271 0.0
N1050 N 0.38343 0.03917 0.51933 0.0
N1051 N 0.36355 0.09621 0.5085 0.0
H1052 H 0.67128 0.59591 0.32471 0.0
H1053 H 0.76552 0.69474 0.26628 0.0
H1054 H 0.72932 0.5765 0.28782 0.0
H1055 H 0.72722 0.71686 0.32483 0.0
H1056 H 0.75142 0.65117 0.27334 0.0
H1057 H 0.69067 0.64015 0.32506 0.0
C1058 C 0.68826 0.6009 0.31699 0.0
C1059 C 0.69857 0.58241 0.30604 0.0
C1060 C 0.74627 0.66553 0.28482 0.0
C1061 C 0.72058 0.63299 0.30605 0.0
C1062 C 0.7542 0.69043 0.28071 0.0
C1063 C 0.74743 0.70946 0.29492 0.0
C1064 C 0.73104 0.65948 0.30298 0.0
C1065 C 0.73289 0.70275 0.31349 0.0
C1066 C 0.69931 0.62616 0.31722 0.0
C1067 C 0.72065 0.59004 0.2964 0.0
N1068 N 0.7249 0.67826 0.31679 0.0
N1069 N 0.7307 0.61471 0.29631 0.0
H1070 H 0.86841 0.5106 0.79013 0.0
H1071 H 0.78378 0.38657 0.72403 0.0
H1072 H 0.83161 0.50859 0.71734 0.0
H1073 H 0.79209 0.40296 0.80242 0.0
H1074 H 0.80235 0.4304 0.72037 0.0
H1075 H 0.84208 0.4703 0.7946 0.0
C1076 C 0.85466 0.50172 0.77514 0.0
C1077 C 0.85224 0.51285 0.75328 0.0
C1078 C 0.79976 0.42446 0.73833 0.0
C1079 C 0.82232 0.46662 0.75817 0.0
C1080 C 0.78925 0.39951 0.74043 0.0
C1081 C 0.78656 0.39126 0.76357 0.0
C1082 C 0.80811 0.44103 0.75956 0.0
C1083 C 0.79389 0.40866 0.78426 0.0
C1084 C 0.83957 0.47881 0.77776 0.0
C1085 C 0.83403 0.50063 0.7345 0.0
N1086 N 0.80471 0.43268 0.7818 0.0
N1087 N 0.81998 0.47792 0.73722 0.0
H1088 H 0.96632 0.82966 0.12287 0.0
H1089 H 0.04223 0.94125 0.0608 0.0
H1090 H 0.03974 0.83243 0.10662 0.0
H1091 H 0.96373 0.92185 0.04868 0.0
H1092 H 0.04193 0.90328 0.08111 0.0
H1093 H 0.96503 0.86552 0.09922 0.0
C1094 C 0.98211 0.83777 0.11433 0.0
C1095 C 0.00317 0.82808 0.11674 0.0
C1096 C 0.02476 0.9072 0.07384 0.0
C1097 C 1.0019 0.86902 0.08999 0.0
C1098 C 0.02493 0.92884 0.06228 0.0
C1099 C 0.00297 0.93454 0.05304 0.0
C1100 C 1.00244 0.8914 0.07663 0.0
C1101 C 0.98104 0.91795 0.05547 0.0
C1102 C 0.98133 0.85811 0.10078 0.0
C1103 C 0.02311 0.83924 0.10523 0.0
N1104 N 0.98129 0.89719 0.06729 0.0
N1105 N 0.02204 0.85921 0.09256 0.0
H1106 H 0.95251 0.32042 0.85405 0.0
H1107 H 0.83098 0.24498 0.77585 0.0
H1108 H 0.95231 0.25316 0.80852 0.0
H1109 H 0.84747 0.32538 0.78897 0.0
H1110 H 0.87356 0.24539 0.79075 0.0
H1111 H 0.91199 0.32056 0.83382 0.0
C1112 C 0.94395 0.30571 0.83972 0.0
C1113 C 0.9558 0.28675 0.83294 0.0
C1114 C 0.86784 0.2629 0.79005 0.0
C1115 C 0.90922 0.28658 0.81001 0.0
C1116 C 0.84357 0.2627 0.78161 0.0
C1117 C 0.83563 0.28518 0.7811 0.0
C1118 C 0.88406 0.28568 0.79861 0.0
C1119 C 0.85275 0.3076 0.78886 0.0
C1120 C 0.92088 0.30586 0.82813 0.0
C1121 C 0.94385 0.26819 0.81419 0.0
N1122 N 0.87602 0.30724 0.7976 0.0
N1123 N 0.92104 0.26836 0.80358 0.0
H1124 H 0.48353 0.20436 0.58917 0.0
H1125 H 0.54712 0.08991 0.58735 0.0
H1126 H 0.49836 0.16932 0.65457 0.0
H1127 H 0.50015 0.10134 0.52469 0.0
H1128 H 0.53255 0.12138 0.61209 0.0
H1129 H 0.49172 0.16872 0.56468 0.0
C1130 C 0.48813 0.18898 0.59834 0.0
C1131 C 0.49024 0.18979 0.62395 0.0
C1132 C 0.52533 0.11688 0.59296 0.0
C1133 C 0.50032 0.14938 0.5961 0.0
C1134 C 0.53378 0.09911 0.57883 0.0
C1135 C 0.52483 0.09315 0.554 0.0
C1136 C 0.50827 0.12916 0.582 0.0
C1137 C 0.50745 0.10545 0.54382 0.0
C1138 C 0.49282 0.16869 0.58436 0.0
C1139 C 0.49636 0.16938 0.63488 0.0
N1140 N 0.4999 0.12309 0.55779 0.0
N1141 N 0.5016 0.15021 0.62093 0.0
H1142 H 0.58209 0.8021 0.30328 0.0
H1143 H 0.71892 0.78174 0.31634 0.0
H1144 H 0.62125 0.79011 0.37105 0.0
H1145 H 0.68089 0.79364 0.24816 0.0
H1146 H 0.68348 0.78574 0.33676 0.0
H1147 H 0.61792 0.79957 0.2827 0.0
C1148 C 0.59817 0.79891 0.31386 0.0
C1149 C 0.59856 0.7963 0.33899 0.0
C1150 C 0.68287 0.78771 0.31737 0.0
C1151 C 0.63973 0.79344 0.31549 0.0
C1152 C 0.70329 0.7858 0.3058 0.0
C1153 C 0.70309 0.78814 0.28072 0.0
C1154 C 0.66192 0.79174 0.3037 0.0
C1155 C 0.68184 0.79201 0.26762 0.0
C1156 C 0.61865 0.79749 0.30208 0.0
C1157 C 0.62 0.79223 0.35168 0.0
N1158 N 0.6621 0.79375 0.27926 0.0
N1159 N 0.63964 0.79094 0.33982 0.0
H1160 H 0.01807 0.18286 0.44387 0.0
H1161 H 0.05159 0.12953 0.56511 0.0
H1162 H 0.04061 0.23544 0.5084 0.0
H1163 H 0.9834 0.09736 0.5205 0.0
H1164 H 0.05465 0.1674 0.54367 0.0
H1165 H 0.01314 0.14865 0.46991 0.0
C1166 C 0.02227 0.18715 0.46351 0.0
C1167 C 0.02978 0.2119 0.47411 0.0
C1168 C 0.03897 0.15204 0.53881 0.0
C1169 C 0.0243 0.17307 0.50369 0.0
C1170 C 0.03718 0.13056 0.55095 0.0
C1171 C 0.01756 0.11015 0.54384 0.0
C1172 C 0.02126 0.15261 0.5193 0.0
C1173 C 0.99929 0.11234 0.52562 0.0
C1174 C 0.01922 0.16771 0.47828 0.0
C1175 C 0.03473 0.21653 0.49965 0.0
N1176 N 1.0018 0.13304 0.51353 0.0
N1177 N 0.03214 0.19716 0.51372 0.0
H1178 H 0.54674 0.25994 0.17265 0.0
H1179 H 0.68713 0.32179 0.21529 0.0
H1180 H 0.58768 0.32349 0.14251 0.0
H1181 H 0.64895 0.2547 0.2419 0.0
H1182 H 0.64902 0.32594 0.19277 0.0
H1183 H 0.58234 0.26064 0.20202 0.0
C1184 C 0.56316 0.2741 0.17227 0.0
C1185 C 0.56435 0.2915 0.15492 0.0
C1186 C 0.64888 0.31039 0.20366 0.0
C1187 C 0.605 0.29245 0.18846 0.0
C1188 C 0.6706 0.30805 0.21652 0.0
C1189 C 0.67106 0.28771 0.23012 0.0
C1190 C 0.62755 0.29214 0.20433 0.0
C1191 C 0.64924 0.27054 0.2314 0.0
C1192 C 0.58345 0.2745 0.18905 0.0
C1193 C 0.58602 0.30954 0.15537 0.0
N1194 N 0.62831 0.27299 0.2184 0.0
N1195 N 0.60552 0.30945 0.17179 0.0
H1196 H 0.57164 0.86321 0.00444 0.0
H1197 H 0.47829 0.95206 0.01782 0.0
H1198 H 0.4978 0.84623 0.9684 0.0
H1199 H 0.5562 0.98012 0.02439 0.0
H1200 H 0.48445 0.90963 0.01133 0.0
H1201 H 0.56508 0.90296 0.02261 0.0
C1202 C 0.55401 0.86775 1.00057 0.0
C1203 C 0.53531 0.85167 0.98466 0.0
C1204 C 0.50018 0.92511 0.01455 0.0
C1205 C 0.52767 0.89653 0.00559 0.0
C1206 C 0.49672 0.94931 0.01838 0.0
C1207 C 0.51676 0.96967 0.02122 0.0
C1208 C 0.52381 0.92128 0.01379 0.0
C1209 C 0.54023 0.96495 0.02187 0.0
C1210 C 0.55032 0.89034 0.0109 0.0
C1211 C 0.51279 0.85831 0.98027 0.0
N1212 N 0.54312 0.94119 0.01794 0.0
N1213 N 0.5096 0.8803 0.99066 0.0
H1214 H 0.93258 0.74003 0.65406 0.0
H1215 H 0.86457 0.82711 0.72994 0.0
H1216 H 0.94537 0.81953 0.64934 0.0
H1217 H 0.83693 0.74792 0.71162 0.0
H1218 H 0.89775 0.82519 0.70495 0.0
H1219 H 0.9006 0.74308 0.67961 0.0
C1220 C 0.92862 0.75816 0.65837 0.0
C1221 C 0.94159 0.77957 0.64953 0.0
C1222 C 0.8844 0.80828 0.70647 0.0
C1223 C 0.90509 0.7832 0.67897 0.0
C1224 C 0.86563 0.80934 0.72079 0.0
C1225 C 0.84812 0.78763 0.72272 0.0
C1226 C 0.88569 0.7853 0.69441 0.0
C1227 C 0.8501 0.76507 0.7105 0.0
C1228 C 0.91032 0.75987 0.67293 0.0
C1229 C 0.93567 0.80256 0.65569 0.0
N1230 N 0.8686 0.76447 0.69691 0.0
N1231 N 0.91787 0.80382 0.6702 0.0
H1232 H 0.07005 0.02073 0.83541 0.0
H1233 H 0.04567 0.97812 0.96756 0.0
H1234 H 0.11393 0.97775 0.87469 0.0
H1235 H 0.01415 0.03343 0.93288 0.0
H1236 H 0.06572 0.97147 0.93104 0.0
H1237 H 0.04455 0.01924 0.8683 0.0
C1238 C 0.07428 0.01083 0.85092 0.0
C1239 C 0.09436 0.99957 0.85238 0.0
C1240 C 0.05415 0.9848 0.93135 0.0
C1241 C 0.06508 0.99784 0.89034 0.0
C1242 C 0.04252 0.98844 0.95207 0.0
C1243 C 0.02827 0.0064 0.95325 0.0
C1244 C 0.05125 0.99907 0.91166 0.0
C1245 C 0.0251 0.01951 0.93282 0.0
C1246 C 0.05967 0.01 0.86974 0.0
C1247 C 0.09873 0.98683 0.87288 0.0
N1248 N 0.03656 0.01565 0.91296 0.0
N1249 N 0.08429 0.98645 0.89118 0.0
H1250 H 0.70871 0.31685 0.57973 0.0
H1251 H 0.77984 0.3207 0.71138 0.0
H1252 H 0.73899 0.38725 0.62295 0.0
H1253 H 0.7128 0.26638 0.68877 0.0
H1254 H 0.77133 0.343 0.67567 0.0
H1255 H 0.71594 0.29516 0.61621 0.0
C1256 C 0.71676 0.32774 0.59689 0.0
C1257 C 0.72303 0.35392 0.59834 0.0
C1258 C 0.75845 0.32627 0.67869 0.0
C1259 C 0.73209 0.32921 0.6398 0.0
C1260 C 0.76315 0.31374 0.6992 0.0
C1261 C 0.74659 0.2922 0.70359 0.0
C1262 C 0.73751 0.3166 0.66193 0.0
C1263 C 0.72595 0.2831 0.68628 0.0
C1264 C 0.72087 0.31536 0.61764 0.0
C1265 C 0.73358 0.36707 0.62106 0.0
N1266 N 0.72206 0.29522 0.66616 0.0
N1267 N 0.73806 0.35459 0.64079 0.0
H1268 H 0.49166 0.05653 0.31472 0.0
H1269 H 0.47265 0.07321 0.45554 0.0
H1270 H 0.44334 0.10017 0.34198 0.0
H1271 H 0.53195 0.04413 0.43063 0.0
H1272 H 0.46192 0.08341 0.41418 0.0
H1273 H 0.50716 0.05235 0.35685 0.0
C1274 C 0.48451 0.06552 0.32956 0.0
C1275 C 0.46609 0.07869 0.32474 0.0
C1276 C 0.4774 0.07498 0.41776 0.0
C1277 C 0.48355 0.07359 0.37317 0.0
C1278 C 0.48352 0.06904 0.44141 0.0
C1279 C 0.50322 0.05767 0.44665 0.0
C1280 C 0.49083 0.06925 0.39896 0.0
C1281 C 0.51665 0.0529 0.42751 0.0
C1282 C 0.49337 0.06308 0.35365 0.0
C1283 C 0.45756 0.0899 0.34477 0.0
N1284 N 0.51008 0.05849 0.4045 0.0
N1285 N 0.46615 0.08686 0.36806 0.0
H1286 H 0.81107 0.72362 0.06424 0.0
H1287 H 0.74393 0.71153 0.18288 0.0
H1288 H 0.76703 0.65437 0.08123 0.0
H1289 H 0.8047 0.77237 0.17776 0.0
H1290 H 0.75162 0.69089 0.1448 0.0
H1291 H 0.80935 0.74225 0.10542 0.0
C1292 C 0.8013 0.71225 0.07672 0.0
C1293 C 0.7889 0.68751 0.06923 0.0
C1294 C 0.76338 0.70869 0.15204 0.0
C1295 C 0.78666 0.70876 0.11608 0.0
C1296 C 0.75888 0.72054 0.17364 0.0
C1297 C 0.77362 0.74369 0.18321 0.0
C1298 C 0.78258 0.72025 0.13982 0.0
C1299 C 0.79286 0.75455 0.17076 0.0
C1300 C 0.80035 0.72289 0.1002 0.0
C1301 C 0.7767 0.67356 0.08618 0.0
N1302 N 0.79671 0.74278 0.14949 0.0
N1303 N 0.77561 0.68451 0.10873 0.0
H1304 H 0.15426 0.99893 0.70754 0.0
H1305 H 0.02753 0.9847 0.62344 0.0
H1306 H 0.08536 0.97571 0.73536 0.0
H1307 H 0.09246 0.04015 0.61756 0.0
H1308 H 0.04939 0.97041 0.6587 0.0
H1309 H 0.13235 0.00201 0.66781 0.0
C1310 C 0.13454 0.99393 0.70518 0.0
C1311 C 0.12161 0.98746 0.72493 0.0
C1312 C 0.05879 0.98553 0.64945 0.0
C1313 C 0.09654 0.99097 0.67954 0.0
C1314 C 0.0464 0.99366 0.62946 0.0
C1315 C 0.05822 0.01378 0.61794 0.0
C1316 C 0.08322 0.99727 0.65733 0.0
C1317 C 0.08266 0.02477 0.62621 0.0
C1318 C 0.12208 0.99585 0.68255 0.0
C1319 C 0.09603 0.98113 0.72072 0.0
N1320 N 0.09438 0.01634 0.64538 0.0
N1321 N 0.08428 0.98326 0.69849 0.0
H1322 H 0.75486 0.31614 0.47321 0.0
H1323 H 0.71115 0.30273 0.32905 0.0
H1324 H 0.69569 0.34652 0.44192 0.0
H1325 H 0.77437 0.27914 0.36115 0.0
H1326 H 0.70249 0.31508 0.37014 0.0
H1327 H 0.7592 0.2985 0.43251 0.0
C1328 C 0.74255 0.31889 0.45781 0.0
C1329 C 0.72491 0.33297 0.46109 0.0
C1330 C 0.71816 0.30705 0.36819 0.0
C1331 C 0.73 0.31288 0.41406 0.0
C1332 C 0.72311 0.2999 0.34469 0.0
C1333 C 0.74359 0.28987 0.3415 0.0
C1334 C 0.73374 0.30413 0.38876 0.0
C1335 C 0.75842 0.28683 0.36258 0.0
C1336 C 0.74512 0.30885 0.43449 0.0
C1337 C 0.70953 0.33582 0.44032 0.0
N1338 N 0.75324 0.29397 0.38521 0.0
N1339 N 0.71253 0.32602 0.4177 0.0
H1340 H 0.41306 0.08295 0.16132 0.0
H1341 H 0.5347 0.07697 0.10087 0.0
H1342 H 0.48221 0.08545 0.2037 0.0
H1343 H 0.46307 0.05717 0.06032 0.0
H1344 H 0.51645 0.08426 0.13836 0.0
H1345 H 0.43175 0.07783 0.12384 0.0
C1346 C 0.43224 0.0827 0.1628 0.0
C1347 C 0.44604 0.08462 0.18583 0.0
C1348 C 0.50466 0.07808 0.12132 0.0
C1349 C 0.46755 0.07862 0.14278 0.0
C1350 C 0.51507 0.07393 0.09993 0.0
C1351 C 0.50025 0.06568 0.07763 0.0
C1352 C 0.47924 0.07445 0.12032 0.0
C1353 C 0.47499 0.06239 0.07731 0.0
C1354 C 0.44285 0.07961 0.14134 0.0
C1355 C 0.4708 0.08401 0.18644 0.0
N1356 N 0.46526 0.06684 0.09831 0.0
N1357 N 0.48073 0.08107 0.16528 0.0
H1358 H 0.80991 0.67709 0.91969 0.0
H1359 H 0.83407 0.79384 0.84294 0.0
H1360 H 0.81571 0.75033 0.95681 0.0
H1361 H 0.76925 0.73485 0.83097 0.0
H1362 H 0.84741 0.77537 0.88025 0.0
H1363 H 0.81746 0.69631 0.88185 0.0
C1364 C 0.81369 0.69725 0.92012 0.0
C1365 C 0.81158 0.71215 0.94114 0.0
C1366 C 0.83066 0.76628 0.86886 0.0
C1367 C 0.82075 0.73402 0.89837 0.0
C1368 C 0.82307 0.77674 0.84781 0.0
C1369 C 0.80064 0.76566 0.83403 0.0
C1370 C 0.81607 0.74425 0.8751 0.0
C1371 C 0.78678 0.74372 0.84101 0.0
C1372 C 0.81807 0.70814 0.8986 0.0
C1373 C 0.81667 0.73819 0.94074 0.0
N1374 N 0.79477 0.73366 0.86098 0.0
N1375 N 0.82059 0.74836 0.91948 0.0
H1376 H 0.8732 0.13355 0.98983 0.0
H1377 H 0.95763 0.05636 0.98136 0.0
H1378 H 0.85518 0.09669 0.0537 0.0
H1379 H 0.93502 0.03122 0.04894 0.0
H1380 H 0.92921 0.08419 0.98146 0.0
H1381 H 0.90453 0.1097 0.98534 0.0
C1382 C 0.87584 0.12042 0.00293 0.0
C1383 C 0.8614 0.11717 0.02215 0.0
C1384 C 0.93045 0.07288 0.99646 0.0
C1385 C 0.89739 0.08924 0.01707 0.0
C1386 C 0.94694 0.05704 0.99643 0.0
C1387 C 0.94903 0.04175 0.01534 0.0
C1388 C 0.91581 0.07335 0.0156 0.0
C1389 C 0.93406 0.04268 0.03396 0.0
C1390 C 0.8938 0.1066 1.00033 0.0
C1391 C 0.86575 0.09989 0.03856 0.0
N1392 N 0.91822 0.05815 0.03361 0.0
N1393 N 0.88322 0.08667 0.03562 0.0
H1394 H 0.33195 0.43488 0.02709 0.0
H1395 H 0.46176 0.52051 0.07635 0.0
H1396 H 0.3404 0.49035 0.08884 0.0
H1397 H 0.43631 0.50161 0.99947 0.0
H1398 H 0.42083 0.50109 0.08582 0.0
H1399 H 0.37464 0.45035 0.02177 0.0
C1400 C 0.34288 0.45007 0.03976 0.0
C1401 C 0.33263 0.46155 0.0583 0.0
C1402 C 0.42439 0.50123 0.06694 0.0
C1403 C 0.3813 0.47904 0.05238 0.0
C1404 C 0.44758 0.51218 0.06155 0.0
C1405 C 0.45213 0.51281 0.03712 0.0
C1406 C 0.40613 0.49029 0.04775 0.0
C1407 C 0.43334 0.50179 0.01852 0.0
C1408 C 0.36713 0.45891 0.03661 0.0
C1409 C 0.34761 0.48119 0.07416 0.0
N1410 N 0.41114 0.4908 0.02423 0.0
N1411 N 0.37132 0.4894 0.07084 0.0
H1412 H 0.33936 0.62074 0.76841 0.0
H1413 H 0.24321 0.69957 0.72148 0.0
H1414 H 0.28971 0.60133 0.70158 0.0
H1415 H 0.28243 0.71467 0.79411 0.0
H1416 H 0.26233 0.66476 0.71367 0.0
H1417 H 0.32098 0.6564 0.77805 0.0
C1418 C 0.32461 0.62394 0.75581 0.0
C1419 C 0.31606 0.60803 0.73414 0.0
C1420 C 0.26689 0.67562 0.73135 0.0
C1421 C 0.29514 0.64867 0.74499 0.0
C1422 C 0.25593 0.69553 0.73584 0.0
C1423 C 0.26148 0.71017 0.75841 0.0
C1424 C 0.28357 0.67009 0.7496 0.0
C1425 C 0.27815 0.70415 0.77629 0.0
C1426 C 0.31414 0.64425 0.76134 0.0
C1427 C 0.29691 0.61303 0.71849 0.0
N1428 N 0.28869 0.68449 0.77152 0.0
N1429 N 0.28719 0.63289 0.7242 0.0
H1430 H 0.21759 0.66437 0.4926 0.0
H1431 H 0.11705 0.5408 0.50187 0.0
H1432 H 0.23767 0.59528 0.50836 0.0
H1433 H 0.10661 0.61554 0.51694 0.0
H1434 H 0.15971 0.55837 0.49633 0.0
H1435 H 0.17498 0.64425 0.4925 0.0
C1436 C 0.21308 0.64486 0.49576 0.0
C1437 C 0.23139 0.63161 0.50078 0.0
C1438 C 0.148 0.57083 0.50079 0.0
C1439 C 0.18233 0.60844 0.50073 0.0
C1440 C 0.12373 0.56087 0.50389 0.0
C1441 C 0.10843 0.5768 0.50996 0.0
C1442 C 0.1567 0.59686 0.50331 0.0
C1443 C 0.11787 0.60263 0.5124 0.0
C1444 C 0.18869 0.63343 0.49582 0.0
C1445 C 0.22422 0.60628 0.50458 0.0
N1446 N 0.14135 0.61184 0.50897 0.0
N1447 N 0.20021 0.59551 0.5046 0.0
H1448 H 0.66379 0.91846 0.80219 0.0
H1449 H 0.75954 0.857 0.73555 0.0
H1450 H 0.6889 0.93746 0.73352 0.0
H1451 H 0.74249 0.84015 0.80748 0.0
H1452 H 0.73172 0.88495 0.73451 0.0
H1453 H 0.69011 0.8881 0.80441 0.0
C1454 C 0.67471 0.9162 0.78755 0.0
C1455 C 0.67413 0.93063 0.76765 0.0
C1456 C 0.73389 0.87518 0.7506 0.0
C1457 C 0.70423 0.896 0.7701 0.0
C1458 C 0.7499 0.85918 0.75124 0.0
C1459 C 0.75315 0.84587 0.77153 0.0
C1460 C 0.72097 0.87835 0.77053 0.0
C1461 C 0.74002 0.84949 0.79122 0.0
C1462 C 0.68976 0.89892 0.78888 0.0
C1463 C 0.68872 0.92691 0.74927 0.0
N1464 N 0.72448 0.86543 0.79027 0.0
N1465 N 0.70306 0.91007 0.75096 0.0
H1466 H 0.69838 0.94805 0.51817 0.0
H1467 H 0.63179 0.06201 0.52049 0.0
H1468 H 0.71792 0.01266 0.57153 0.0
H1469 H 0.59949 0.989 0.48316 0.0
H1470 H 0.6702 0.04887 0.5292 0.0
H1471 H 0.66866 0.96751 0.49611 0.0
C1472 C 0.69667 0.96646 0.52505 0.0
C1473 C 0.71027 0.97859 0.54695 0.0
C1474 C 0.65485 0.03591 0.51865 0.0
C1475 C 0.67661 0.00093 0.52175 0.0
C1476 C 0.633 0.04344 0.51355 0.0
C1477 C 0.61244 0.02637 0.5015 0.0
C1478 C 0.65601 0.01118 0.51162 0.0
C1479 C 0.61493 0.00259 0.49279 0.0
C1480 C 0.67973 0.97753 0.51245 0.0
C1481 C 0.70748 0.00248 0.55495 0.0
N1482 N 0.63626 0.99552 0.49837 0.0
N1483 N 0.6908 0.01279 0.54245 0.0
H1484 H 0.30203 0.47263 0.70757 0.0
H1485 H 0.29018 0.36857 0.80092 0.0
H1486 H 0.34979 0.47995 0.77517 0.0
H1487 H 0.27172 0.3495 0.72299 0.0
H1488 H 0.30439 0.41223 0.7938 0.0
H1489 H 0.28342 0.42977 0.71503 0.0
C1490 C 0.30848 0.46528 0.72403 0.0
C1491 C 0.32757 0.47977 0.74072 0.0
C1492 C 0.29707 0.39847 0.7783 0.0
C1493 C 0.30618 0.43118 0.74947 0.0
C1494 C 0.28881 0.37359 0.78233 0.0
C1495 C 0.27988 0.35533 0.76249 0.0
C1496 C 0.29601 0.40525 0.75432 0.0
C1497 C 0.27866 0.36295 0.73879 0.0
C1498 C 0.29793 0.44087 0.7282 0.0
C1499 C 0.33527 0.46934 0.76172 0.0
N1500 N 0.28663 0.38738 0.73534 0.0
N1501 N 0.32447 0.44572 0.76556 0.0
H1502 H 0.15286 0.57732 0.3147 0.0
H1503 H 0.25163 0.66994 0.25285 0.0
H1504 H 0.1951 0.55178 0.26136 0.0
H1505 H 0.215 0.69292 0.31233 0.0
H1506 H 0.23366 0.6262 0.25756 0.0
H1507 H 0.17802 0.61929 0.31629 0.0
C1508 C 0.16762 0.58048 0.3035 0.0
C1509 C 0.17171 0.56103 0.28768 0.0
C1510 C 0.22977 0.64081 0.26975 0.0
C1511 C 0.20049 0.60927 0.28919 0.0
C1512 C 0.24 0.66573 0.26705 0.0
C1513 C 0.23457 0.68496 0.28209 0.0
C1514 C 0.21392 0.63521 0.28752 0.0
C1515 C 0.21949 0.6786 0.30024 0.0
C1516 C 0.18201 0.6045 0.30442 0.0
C1517 C 0.19124 0.56623 0.27376 0.0
N1518 N 0.20953 0.65429 0.30231 0.0
N1519 N 0.20471 0.58994 0.27459 0.0
H1520 H 0.50341 0.7198 0.408 0.0
H1521 H 0.54888 0.64575 0.51697 0.0
H1522 H 0.56685 0.75002 0.46043 0.0
H1523 H 0.48924 0.61362 0.46088 0.0
H1524 H 0.55351 0.68554 0.49883 0.0
H1525 H 0.49575 0.68208 0.42929 0.0
C1526 C 0.51566 0.71857 0.42405 0.0
C1527 C 0.53588 0.73807 0.43234 0.0
C1528 C 0.53931 0.66983 0.49057 0.0
C1529 C 0.52724 0.6949 0.45684 0.0
C1530 C 0.53663 0.64717 0.50098 0.0
C1531 C 0.51874 0.62641 0.49032 0.0
C1532 C 0.52394 0.67168 0.46939 0.0
C1533 C 0.50335 0.62918 0.46959 0.0
C1534 C 0.5113 0.69701 0.4362 0.0
C1535 C 0.5511 0.73543 0.45329 0.0
N1536 N 0.50637 0.65134 0.45975 0.0
N1537 N 0.54652 0.71424 0.46475 0.0
H1538 H 0.5545 0.25149 0.73682 0.0
H1539 H 0.69333 0.3248 0.74098 0.0
H1540 H 0.57877 0.30563 0.6871 0.0
H1541 H 0.67183 0.25594 0.77348 0.0
H1542 H 0.65045 0.32328 0.72745 0.0
H1543 H 0.59642 0.2584 0.7567 0.0
C1544 C 0.56854 0.2651 0.73029 0.0
C1545 C 0.56308 0.27786 0.71011 0.0
C1546 C 0.65512 0.30863 0.73773 0.0
C1547 C 0.61113 0.28581 0.73282 0.0
C1548 C 0.6796 0.30955 0.7456 0.0
C1549 C 0.68625 0.2904 0.75831 0.0
C1550 C 0.63708 0.28857 0.7428 0.0
C1551 C 0.6676 0.27103 0.7636 0.0
C1552 C 0.5925 0.26892 0.74158 0.0
C1553 C 0.58212 0.29522 0.70246 0.0
N1554 N 0.6439 0.27057 0.75577 0.0
N1555 N 0.60528 0.29861 0.71375 0.0
H1556 H 0.02715 0.35116 0.96418 0.0
H1557 H 0.98798 0.47587 0.95152 0.0
H1558 H 0.03231 0.38351 0.8958 0.0
H1559 H 0.03556 0.46966 0.01586 0.0
H1560 H 0.99926 0.43962 0.93082 0.0
H1561 H 0.02616 0.39215 0.98444 0.0
C1562 C 0.02853 0.36704 0.95357 0.0
C1563 C 0.02997 0.36413 0.92838 0.0
C1564 C 0.0074 0.44642 0.94937 0.0
C1565 C 0.0279 0.41052 0.95112 0.0
C1566 C 1.00086 0.46689 0.9612 0.0
C1567 C 0.01079 0.47553 0.98539 0.0
C1568 C 0.02332 0.43411 0.96214 0.0
C1569 C 0.02752 0.46345 0.99717 0.0
C1570 C 0.02798 0.39032 0.9651 0.0
C1571 C 0.03146 0.38515 0.91532 0.0
N1572 N 0.03292 0.44297 0.98558 0.0
N1573 N 0.02982 0.40742 0.92674 0.0
H1574 H 0.91931 0.72202 0.22314 0.0
H1575 H 0.85504 0.82063 0.28436 0.0
H1576 H 0.94058 0.79973 0.21146 0.0
H1577 H 0.81407 0.74739 0.25468 0.0
H1578 H 0.88958 0.81323 0.2634 0.0
H1579 H 0.88343 0.73052 0.24061 0.0
C1580 C 0.91643 0.74088 0.22427 0.0
C1581 C 0.93293 0.7602 0.21581 0.0
C1582 C 0.87296 0.79888 0.26142 0.0
C1583 C 0.8922 0.77011 0.23623 0.0
C1584 C 0.85334 0.80303 0.27342 0.0
C1585 C 0.83176 0.78456 0.27128 0.0
C1586 C 0.87117 0.77584 0.24777 0.0
C1587 C 0.83041 0.76211 0.2568 0.0
C1588 C 0.89592 0.74567 0.23413 0.0
C1589 C 0.92824 0.78428 0.21765 0.0
N1590 N 0.84996 0.75823 0.24587 0.0
N1591 N 0.90847 0.78864 0.22797 0.0
H1592 H 0.55743 0.37703 0.06523 0.0
H1593 H 0.47808 0.46068 0.99929 0.0
H1594 H 0.47959 0.36373 0.06603 0.0
H1595 H 0.55351 0.48916 0.02817 0.0
H1596 H 0.4784 0.4228 0.01977 0.0
H1597 H 0.55661 0.41639 0.048 0.0
C1598 C 0.54016 0.38245 0.06181 0.0
C1599 C 0.51851 0.36713 0.06692 0.0
C1600 C 0.49484 0.43738 0.02165 0.0
C1601 C 0.51745 0.41189 0.04701 0.0
C1602 C 0.49474 0.45882 0.00983 0.0
C1603 C 0.51588 0.47781 0.012 0.0
C1604 C 0.51636 0.43485 0.03528 0.0
C1605 C 0.5369 0.47479 0.02606 0.0
C1606 C 0.53974 0.40494 0.05209 0.0
C1607 C 0.49667 0.37508 0.06234 0.0
N1608 N 0.53669 0.45355 0.03706 0.0
N1609 N 0.49664 0.39687 0.05234 0.0
H1610 H 0.95845 0.2295 0.36884 0.0
H1611 H 0.87288 0.3127 0.31205 0.0
H1612 H 0.96153 0.30468 0.39969 0.0
H1613 H 0.84755 0.23321 0.3129 0.0
H1614 H 0.91059 0.31063 0.3372 0.0
H1615 H 0.92192 0.23111 0.34161 0.0
C1616 C 0.95139 0.24631 0.36988 0.0
C1617 C 0.96286 0.26698 0.38653 0.0
C1618 C 0.89679 0.29367 0.33171 0.0
C1619 C 0.9217 0.26904 0.35527 0.0
C1620 C 0.87547 0.29478 0.31726 0.0
C1621 C 0.85725 0.27308 0.31061 0.0
C1622 C 0.89995 0.27063 0.33904 0.0
C1623 C 0.86126 0.25033 0.31783 0.0
C1624 C 0.93062 0.24718 0.35441 0.0
C1625 C 0.95304 0.2883 0.38722 0.0
N1626 N 0.88231 0.24965 0.3317 0.0
N1627 N 0.93306 0.28889 0.3716 0.0
H1628 H 0.95597 0.70974 0.55963 0.0
H1629 H 0.02404 0.62019 0.48996 0.0
H1630 H 0.02131 0.73563 0.52656 0.0
H1631 H 0.95679 0.59514 0.52023 0.0
H1632 H 0.0185 0.66293 0.49502 0.0
H1633 H 0.951 0.66877 0.53725 0.0
C1634 C 0.96906 0.70692 0.54732 0.0
C1635 C 0.98941 0.72593 0.54539 0.0
C1636 C 0.00472 0.64804 0.50014 0.0
C1637 C 0.98404 0.67894 0.51999 0.0
C1638 C 0.00787 0.62359 0.49727 0.0
C1639 C 0.99114 0.60413 0.50523 0.0
C1640 C 0.98484 0.65305 0.51128 0.0
C1641 C 0.97037 0.60961 0.51421 0.0
C1642 C 0.9662 0.6835 0.53451 0.0
C1643 C 0.00554 0.72138 0.52884 0.0
N1644 N 0.96804 0.63363 0.51741 0.0
N1645 N 0.00279 0.69816 0.51715 0.0
H1646 H 0.56843 0.76775 0.87093 0.0
H1647 H 0.70679 0.80888 0.84945 0.0
H1648 H 0.62702 0.79299 0.92987 0.0
H1649 H 0.65576 0.75381 0.79908 0.0
H1650 H 0.67577 0.80846 0.87693 0.0
H1651 H 0.59855 0.76688 0.84227 0.0
C1652 C 0.58762 0.77306 0.87783 0.0
C1653 C 0.5953 0.78054 0.90278 0.0
C1654 C 0.67134 0.79646 0.85988 0.0
C1655 C 0.62958 0.77985 0.87017 0.0
C1656 C 0.68895 0.79679 0.84412 0.0
C1657 C 0.68374 0.78126 0.82208 0.0
C1658 C 0.64826 0.78073 0.8534 0.0
C1659 C 0.66039 0.76599 0.816 0.0
C1660 C 0.60472 0.77246 0.8615 0.0
C1661 C 0.62033 0.78707 0.9108 0.0
N1662 N 0.64336 0.76613 0.83163 0.0
N1663 N 0.6366 0.7868 0.89447 0.0
H1664 H 0.43783 0.58349 0.69532 0.0
H1665 H 0.45782 0.50851 0.57868 0.0
H1666 H 0.37601 0.54202 0.64578 0.0
H1667 H 0.49487 0.58624 0.58868 0.0
H1668 H 0.43231 0.5167 0.60994 0.0
H1669 H 0.46361 0.58221 0.6622 0.0
C1670 C 0.42966 0.57442 0.67742 0.0
C1671 C 0.4048 0.56274 0.67323 0.0
C1672 C 0.44612 0.53191 0.60534 0.0
C1673 C 0.4341 0.56077 0.63591 0.0
C1674 C 0.46088 0.52725 0.58776 0.0
C1675 C 0.47862 0.54673 0.58128 0.0
C1676 C 0.44952 0.55604 0.61703 0.0
C1677 C 0.48142 0.57075 0.59329 0.0
C1678 C 0.44431 0.57382 0.65863 0.0
C1679 C 0.39506 0.55129 0.64974 0.0
N1680 N 0.46715 0.57474 0.61094 0.0
N1681 N 0.40986 0.55011 0.63208 0.0
H1682 H 0.74741 0.22391 0.94532 0.0
H1683 H 0.81281 0.29788 0.84402 0.0
H1684 H 0.82328 0.22749 0.93861 0.0
H1685 H 0.73655 0.26201 0.83249 0.0
H1686 H 0.81743 0.27695 0.88135 0.0
H1687 H 0.74343 0.24287 0.9069 0.0
C1688 C 0.76331 0.22884 0.93586 0.0
C1689 C 0.78576 0.22416 0.94529 0.0
C1690 C 0.79973 0.27357 0.87059 0.0
C1691 C 0.78128 0.24606 0.90125 0.0
C1692 C 0.79704 0.28556 0.84937 0.0
C1693 C 0.77425 0.28165 0.8352 0.0
C1694 C 0.77934 0.25801 0.87804 0.0
C1695 C 0.75445 0.26542 0.84285 0.0
C1696 C 0.76094 0.2395 0.91382 0.0
C1697 C 0.80564 0.23076 0.93204 0.0
N1698 N 0.75738 0.25441 0.86391 0.0
N1699 N 0.803 0.24159 0.91081 0.0
H1700 H 0.10071 0.46769 0.18814 0.0
H1701 H 0.00503 0.52545 0.10607 0.0
H1702 H 0.0515 0.50784 0.21933 0.0
H1703 H 0.06476 0.49863 0.07927 0.0
H1704 H 0.0174 0.5139 0.14681 0.0
H1705 H 0.08283 0.47301 0.14738 0.0
C1706 C 0.08592 0.47736 0.18648 0.0
C1707 C 0.07781 0.48751 0.20736 0.0
C1708 C 0.02767 0.51044 0.13194 0.0
C1709 C 0.05729 0.49391 0.16037 0.0
C1710 C 0.02059 0.51696 0.10866 0.0
C1711 C 0.03394 0.51316 0.08918 0.0
C1712 C 0.0481 0.4998 0.13571 0.0
C1713 C 0.054 0.50214 0.0937 0.0
C1714 C 0.07577 0.48051 0.16311 0.0
C1715 C 0.05845 0.49976 0.20384 0.0
N1716 N 0.06043 0.49591 0.1164 0.0
N1717 N 0.04899 0.5028 0.18082 0.0
H1718 H 0.76491 0.84123 0.50569 0.0
H1719 H 0.73607 0.84038 0.3611 0.0
H1720 H 0.72708 0.8925 0.47151 0.0
H1721 H 0.78258 0.79691 0.3956 0.0
H1722 H 0.72813 0.85587 0.40135 0.0
H1723 H 0.76661 0.82077 0.46549 0.0
C1724 C 0.75675 0.84806 0.48972 0.0
C1725 C 0.74605 0.86879 0.49191 0.0
C1726 C 0.74001 0.8429 0.40015 0.0
C1727 C 0.7481 0.84548 0.44581 0.0
C1728 C 0.74459 0.83409 0.37722 0.0
C1729 C 0.7602 0.81758 0.37519 0.0
C1730 C 0.75113 0.8351 0.42116 0.0
C1731 C 0.77058 0.80978 0.3965 0.0
C1732 C 0.75779 0.83638 0.46676 0.0
C1733 C 0.73562 0.87667 0.47061 0.0
N1734 N 0.76593 0.81872 0.41869 0.0
N1735 N 0.73707 0.8651 0.44838 0.0
H1736 H 0.39704 0.58609 0.82505 0.0
H1737 H 0.50938 0.55184 0.90474 0.0
H1738 H 0.45308 0.555 0.79543 0.0
H1739 H 0.45189 0.57801 0.93681 0.0
H1740 H 0.4919 0.55931 0.86454 0.0
H1741 H 0.41979 0.58989 0.86603 0.0
C1742 C 0.41432 0.58051 0.82712 0.0
C1743 C 0.42306 0.5699 0.80693 0.0
C1744 C 0.48313 0.56361 0.88033 0.0
C1745 C 0.44897 0.57403 0.85348 0.0
C1746 C 0.49311 0.55932 0.90328 0.0
C1747 C 0.48185 0.56405 0.92396 0.0
C1748 C 0.46157 0.5725 0.87801 0.0
C1749 C 0.46096 0.57395 0.92117 0.0
C1750 C 0.42722 0.58255 0.85048 0.0
C1751 C 0.4455 0.56294 0.81056 0.0
N1752 N 0.45129 0.57762 0.89851 0.0
N1753 N 0.45754 0.56493 0.83337 0.0
H1754 H 0.78039 0.23747 0.06726 0.0
H1755 H 0.81384 0.24706 0.2129 0.0
H1756 H 0.82686 0.19478 0.10316 0.0
H1757 H 0.75427 0.27457 0.17805 0.0
H1758 H 0.82303 0.23298 0.17264 0.0
H1759 H 0.77524 0.25654 0.10731 0.0
C1760 C 0.78984 0.23236 0.08349 0.0
C1761 C 0.80405 0.21435 0.08169 0.0
C1762 C 0.80804 0.24223 0.17377 0.0
C1763 C 0.79804 0.23614 0.1278 0.0
C1764 C 0.80281 0.25042 0.19681 0.0
C1765 C 0.78321 0.2621 0.19901 0.0
C1766 C 0.79374 0.24586 0.15258 0.0
C1767 C 0.76952 0.26564 0.17735 0.0
C1768 C 0.78672 0.24316 0.1064 0.0
C1769 C 0.81568 0.20846 0.10353 0.0
N1770 N 0.77503 0.25758 0.1551 0.0
N1771 N 0.81236 0.21924 0.12559 0.0
H1772 H 0.06689 0.54442 0.34199 0.0
H1773 H 0.00671 0.47441 0.4485 0.0
H1774 H 0.07 0.46808 0.35149 0.0
H1775 H 0.03319 0.55426 0.45446 0.0
H1776 H 0.02567 0.47076 0.4108 0.0
H1777 H 0.04985 0.54741 0.38067 0.0
C1778 C 0.06383 0.52819 0.35212 0.0
C1779 C 0.06983 0.50591 0.34341 0.0
C1780 C 0.02742 0.48905 0.42042 0.0
C1781 C 0.05022 0.50928 0.3878 0.0
C1782 C 0.01657 0.49116 0.44187 0.0
C1783 C 0.0183 0.51469 0.45449 0.0
C1784 C 0.03968 0.51068 0.41129 0.0
C1785 C 0.0314 0.53578 0.44524 0.0
C1786 C 0.05426 0.53001 0.3743 0.0
C1787 C 0.06563 0.4856 0.3575 0.0
N1788 N 0.04136 0.53331 0.42404 0.0
N1789 N 0.05591 0.4877 0.37892 0.0
H1790 H 0.71859 0.84543 0.58977 0.0
H1791 H 0.70485 0.81967 0.72763 0.0
H1792 H 0.71784 0.90338 0.64683 0.0
H1793 H 0.7438 0.78109 0.67999 0.0
H1794 H 0.69314 0.84255 0.69375 0.0
H1795 H 0.7107 0.81447 0.61881 0.0
C1796 C 0.7163 0.85166 0.60828 0.0
C1797 C 0.71962 0.87717 0.61611 0.0
C1798 C 0.70366 0.82855 0.69063 0.0
C1799 C 0.71031 0.84168 0.64916 0.0
C1800 C 0.71028 0.81541 0.70985 0.0
C1801 C 0.72572 0.79884 0.70662 0.0
C1802 C 0.71204 0.82452 0.66802 0.0
C1803 C 0.73222 0.79403 0.68327 0.0
C1804 C 0.71175 0.83392 0.62477 0.0
C1805 C 0.71591 0.88398 0.64017 0.0
N1806 N 0.72551 0.80702 0.66485 0.0
N1807 N 0.71183 0.86631 0.65604 0.0
H1808 H 0.63616 0.41934 0.52289 0.0
H1809 H 0.6007 0.55169 0.53689 0.0
H1810 H 0.68217 0.48244 0.5681 0.0
H1811 H 0.54579 0.4833 0.52589 0.0
H1812 H 0.63214 0.52731 0.54285 0.0
H1813 H 0.60389 0.44301 0.51836 0.0
C1814 C 0.6395 0.43814 0.53184 0.0
C1815 C 0.66192 0.44887 0.54595 0.0
C1816 C 0.61317 0.51764 0.53934 0.0
C1817 C 0.62524 0.47618 0.54048 0.0
C1818 C 0.59524 0.53153 0.53591 0.0
C1819 C 0.57052 0.51953 0.53144 0.0
C1820 C 0.60644 0.49144 0.53755 0.0
C1821 C 0.5645 0.49334 0.53005 0.0
C1822 C 0.62105 0.45159 0.52931 0.0
C1823 C 0.66516 0.47334 0.55716 0.0
N1824 N 0.58231 0.48015 0.53286 0.0
N1825 N 0.64718 0.48621 0.55399 0.0
H1826 H 0.19474 0.0918 0.46557 0.0
H1827 H 0.09755 0.0872 0.55053 0.0
H1828 H 0.19353 0.16061 0.50786 0.0
H1829 H 0.06947 0.0687 0.47423 0.0
H1830 H 0.13706 0.10745 0.5386 0.0
H1831 H 0.15158 0.07614 0.47039 0.0
C1832 C 0.18522 0.10376 0.47537 0.0
C1833 C 0.19753 0.12749 0.48631 0.0
C1834 C 0.12214 0.09898 0.52457 0.0
C1835 C 0.14909 0.10949 0.49255 0.0
C1836 C 0.09983 0.08732 0.53131 0.0
C1837 C 0.08051 0.07635 0.51327 0.0
C1838 C 0.1252 0.09883 0.49972 0.0
C1839 C 0.0841 0.07709 0.48857 0.0
C1840 C 0.16077 0.09485 0.47809 0.0
C1841 C 0.18456 0.14228 0.49901 0.0
N1842 N 0.10628 0.08783 0.48243 0.0
N1843 N 0.16113 0.13276 0.50236 0.0
H1844 H 0.24842 0.96847 0.78235 0.0
H1845 H 0.23013 0.82164 0.77515 0.0
H1846 H 0.18459 0.92133 0.80387 0.0
H1847 H 0.30175 0.86953 0.78957 0.0
H1848 H 0.21224 0.85798 0.78013 0.0
H1849 H 0.26781 0.93267 0.78041 0.0
C1850 C 0.23857 0.95063 0.78687 0.0
C1851 C 0.21486 0.94784 0.7933 0.0
C1852 C 0.23188 0.86058 0.78209 0.0
C1853 C 0.23671 0.90682 0.79056 0.0
C1854 C 0.2421 0.83982 0.77879 0.0
C1855 C 0.26742 0.84259 0.78127 0.0
C1856 C 0.24714 0.88441 0.78762 0.0
C1857 C 0.2821 0.86666 0.78725 0.0
C1858 C 0.24966 0.93027 0.78578 0.0
C1859 C 0.20293 0.92432 0.79897 0.0
N1860 N 0.27176 0.88674 0.78996 0.0
N1861 N 0.21386 0.90462 0.79714 0.0
H1862 H 0.29002 0.96669 0.06707 0.0
H1863 H 0.39263 0.0027 0.9788 0.0
H1864 H 0.28676 0.92856 0.99524 0.0
H1865 H 0.40938 0.01095 0.05732 0.0
H1866 H 0.35006 0.98416 0.98308 0.0
H1867 H 0.33042 0.99175 0.06215 0.0
C1868 C 0.29763 0.96388 0.05016 0.0
C1869 C 0.28515 0.94544 0.03159 0.0
C1870 C 0.36304 0.99024 0.99936 0.0
C1871 C 0.33094 0.97406 0.02579 0.0
C1872 C 0.38725 0.00087 0.99693 0.0
C1873 C 0.40448 0.00813 0.01774 0.0
C1874 C 0.35596 0.98728 0.02277 0.0
C1875 C 0.39662 0.00537 0.04083 0.0
C1876 C 0.32067 0.97804 0.04743 0.0
C1877 C 0.29588 0.94243 0.01009 0.0
N1878 N 0.37289 0.99514 0.04276 0.0
N1879 N 0.31812 0.9566 0.00776 0.0
H1880 H 0.83845 0.63887 0.70098 0.0
H1881 H 0.77359 0.70751 0.79793 0.0
H1882 H 0.85904 0.64268 0.7788 0.0
H1883 H 0.77604 0.72821 0.72449 0.0
H1884 H 0.80117 0.67982 0.79036 0.0
H1885 H 0.81251 0.66845 0.70833 0.0
C1886 C 0.83764 0.64605 0.71961 0.0
C1887 C 0.85098 0.63829 0.73931 0.0
C1888 C 0.79585 0.69056 0.77595 0.0
C1889 C 0.82091 0.67175 0.74784 0.0
C1890 C 0.78007 0.70636 0.78026 0.0
C1891 C 0.77314 0.72078 0.76207 0.0
C1892 C 0.80426 0.6886 0.753 0.0
C1893 C 0.78155 0.71797 0.73924 0.0
C1894 C 0.82284 0.66293 0.72377 0.0
C1895 C 0.8492 0.64823 0.76306 0.0
N1896 N 0.79663 0.70216 0.73531 0.0
N1897 N 0.83424 0.66421 0.76667 0.0
H1898 H 0.85244 0.63373 0.99845 0.0
H1899 H 0.90266 0.5133 0.02088 0.0
H1900 H 0.80275 0.56529 0.00891 0.0
H1901 H 0.94229 0.58772 0.04868 0.0
H1902 H 0.86585 0.5297 0.01187 0.0
H1903 H 0.88658 0.61459 0.00989 0.0
C1904 C 0.84871 0.61453 1.00274 0.0
C1905 C 0.82478 0.60107 0.00283 0.0
C1906 C 0.88256 0.54225 0.02032 0.0
C1907 C 0.86367 0.57925 0.01615 0.0
C1908 C 0.90343 0.53293 0.0256 0.0
C1909 C 0.92546 0.54926 0.03535 0.0
C1910 C 0.88412 0.56804 0.0244 0.0
C1911 C 0.92566 0.57454 0.04104 0.0
C1912 C 0.86818 0.60375 0.00957 0.0
C1913 C 0.82099 0.5763 0.00873 0.0
N1914 N 0.90539 0.58325 0.03506 0.0
N1915 N 0.8403 0.56609 0.01516 0.0
H1916 H 0.2288 0.07655 0.81996 0.0
H1917 H 0.21941 0.19513 0.7543 0.0
H1918 H 0.15868 0.0883 0.79118 0.0
H1919 H 0.26157 0.20633 0.8255 0.0
H1920 H 0.2024 0.15188 0.76146 0.0
H1921 H 0.24661 0.12101 0.81713 0.0
C1922 C 0.21715 0.0885 0.81332 0.0
C1923 C 0.19222 0.07879 0.80589 0.0
C1924 C 0.21545 0.16384 0.77544 0.0
C1925 C 0.21252 0.12895 0.8019 0.0
C1926 C 0.22525 0.18837 0.77133 0.0
C1927 C 0.24187 0.20421 0.78937 0.0
C1928 C 0.22285 0.15489 0.79741 0.0
C1929 C 0.2487 0.19464 0.81122 0.0
C1930 C 0.22729 0.11374 0.81175 0.0
C1931 C 0.17793 0.09504 0.7973 0.0
N1932 N 0.23934 0.1704 0.81458 0.0
N1933 N 0.18836 0.11921 0.79513 0.0
H1934 H 0.33237 0.02503 0.25787 0.0
H1935 H 0.32428 0.87897 0.23648 0.0
H1936 H 0.39442 0.99264 0.24898 0.0
H1937 H 0.2767 0.90745 0.28192 0.0
H1938 H 0.34551 0.92164 0.23278 0.0
H1939 H 0.30744 0.98285 0.25966 0.0
C1940 C 0.34071 0.00909 0.25625 0.0
C1941 C 0.36551 0.01232 0.25335 0.0
C1942 C 0.33035 0.91859 0.24347 0.0
C1943 C 0.33717 0.96441 0.25491 0.0
C1944 C 0.31815 0.89426 0.2455 0.0
C1945 C 0.29886 0.88975 0.2597 0.0
C1946 C 0.32307 0.93863 0.25546 0.0
C1947 C 0.29161 0.91024 0.27092 0.0
C1948 C 0.32653 0.98515 0.25735 0.0
C1949 C 0.37543 0.99107 0.2514 0.0
N1950 N 0.30377 0.93394 0.26859 0.0
N1951 N 0.36121 0.96806 0.25203 0.0
H1952 H 0.51028 0.30911 0.57927 0.0
H1953 H 0.50382 0.45043 0.58802 0.0
H1954 H 0.47954 0.34215 0.63834 0.0
H1955 H 0.49107 0.40739 0.51753 0.0
H1956 H 0.50036 0.41184 0.60779 0.0
H1957 H 0.50821 0.34559 0.55693 0.0
C1958 C 0.50295 0.32398 0.58746 0.0
C1959 C 0.49512 0.32268 0.61072 0.0
C1960 C 0.4982 0.41082 0.588 0.0
C1961 C 0.49318 0.3645 0.5855 0.0
C1962 C 0.50035 0.4328 0.5767 0.0
C1963 C 0.49777 0.43202 0.55112 0.0
C1964 C 0.49408 0.38787 0.57366 0.0
C1965 C 0.49314 0.4087 0.53731 0.0
C1966 C 0.50169 0.34468 0.57466 0.0
C1967 C 0.4857 0.34239 0.62044 0.0
N1968 N 0.49174 0.38747 0.54878 0.0
N1969 N 0.48535 0.36269 0.60794 0.0
H1970 H 0.44924 0.75929 0.3445 0.0
H1971 H 0.35194 0.81531 0.26412 0.0
H1972 H 0.46823 0.81661 0.29643 0.0
H1973 H 0.33156 0.7493 0.30129 0.0
H1974 H 0.39471 0.81502 0.27514 0.0
H1975 H 0.40625 0.75396 0.32815 0.0
C1976 C 0.44444 0.77051 0.3303 0.0
C1977 C 0.46241 0.78853 0.32195 0.0
C1978 C 0.38093 0.80045 0.28074 0.0
C1979 C 0.41325 0.78275 0.30338 0.0
C1980 C 0.35644 0.80063 0.27448 0.0
C1981 C 0.33807 0.78234 0.28184 0.0
C1982 C 0.38726 0.78203 0.29477 0.0
C1983 C 0.3451 0.76373 0.29515 0.0
C1984 C 0.41989 0.7675 0.32101 0.0
C1985 C 0.45507 0.80257 0.30354 0.0
N1986 N 0.36913 0.76419 0.30139 0.0
N1987 N 0.43111 0.79954 0.29508 0.0
H1988 H 0.99816 0.67276 0.15807 0.0
H1989 H 0.99773 0.60487 0.0252 0.0
H1990 H 0.98933 0.7103 0.09309 0.0
H1991 H 0.04504 0.59414 0.08793 0.0
H1992 H 0.98444 0.63718 0.05033 0.0
H1993 H 0.00476 0.63682 0.1327 0.0
C1994 C 0.99708 0.67323 0.13843 0.0
C1995 C 0.99331 0.6946 0.12767 0.0
C1996 C 0.99763 0.62762 0.05854 0.0
C1997 C 1.0007 0.65358 0.09867 0.0
C1998 C 0.00517 0.60924 0.04429 0.0
C1999 C 0.02261 0.59707 0.05456 0.0
C2000 C 0.00722 0.63336 0.08329 0.0
C2001 C 0.03173 0.60332 0.07933 0.0
C2002 C 1.00105 0.65283 0.12404 0.0
C2003 C 0.99233 0.69426 0.10213 0.0
N2004 N 0.02383 0.62096 0.09292 0.0
N2005 N 0.99601 0.67407 0.08847 0.0
H2006 H 0.10801 0.30768 0.85042 0.0
H2007 H 0.17422 0.25578 0.74261 0.0
H2008 H 0.07173 0.25101 0.79244 0.0
H2009 H 0.21425 0.29832 0.80835 0.0
H2010 H 0.13615 0.2577 0.75895 0.0
H2011 H 0.14668 0.30839 0.83366 0.0
C2012 C 0.10811 0.29558 0.83406 0.0
C2013 C 0.08656 0.27924 0.82284 0.0
C2014 C 0.15322 0.26656 0.76992 0.0
C2015 C 0.1307 0.27995 0.80362 0.0
C2016 C 0.17498 0.2655 0.76057 0.0
C2017 C 0.19742 0.27661 0.77432 0.0
C2018 C 0.15378 0.27909 0.79316 0.0
C2019 C 0.19733 0.28908 0.79741 0.0
C2020 C 0.13021 0.29589 0.8246 0.0
C2021 C 0.08784 0.26386 0.80177 0.0
N2022 N 0.17582 0.29004 0.80613 0.0
N2023 N 0.10947 0.26462 0.79288 0.0
H2024 H 0.5596 0.73837 0.03115 0.0
H2025 H 0.52348 0.62349 0.0731 0.0
H2026 H 0.50733 0.70996 0.96742 0.0
H2027 H 0.50754 0.59881 0.99613 0.0
H2028 H 0.52352 0.66624 0.06374 0.0
H2029 H 0.54782 0.6987 0.04804 0.0
C2030 C 0.5453 0.72389 0.02092 0.0
C2031 C 0.53459 0.7273 0.99775 0.0
C2032 C 0.5199 0.65144 0.0489 0.0
C2033 C 0.5207 0.68195 0.01712 0.0
C2034 C 0.51966 0.62707 0.05425 0.0
C2035 C 0.51563 0.60776 0.03526 0.0
C2036 C 0.51634 0.65637 0.02437 0.0
C2037 C 0.51053 0.61318 0.0112 0.0
C2038 C 0.53834 0.70132 0.03073 0.0
C2039 C 0.5161 0.70802 0.98531 0.0
N2040 N 0.51126 0.63707 0.00638 0.0
N2041 N 0.51006 0.68592 0.99496 0.0
H2042 H 0.09313 0.81819 0.63137 0.0
H2043 H 0.14968 0.7607 0.74622 0.0
H2044 H 0.04998 0.76584 0.67259 0.0
H2045 H 0.19078 0.81745 0.70799 0.0
H2046 H 0.11228 0.76437 0.72153 0.0
H2047 H 0.1286 0.81996 0.661 0.0
C2048 C 0.09109 0.80709 0.64668 0.0
C2049 C 0.0686 0.79166 0.64938 0.0
C2050 C 0.12945 0.7762 0.71872 0.0
C2051 C 0.10919 0.7936 0.68342 0.0
C2052 C 0.15074 0.77414 0.73282 0.0
C2053 C 0.17323 0.78863 0.72887 0.0
C2054 C 0.13084 0.79279 0.70055 0.0
C2055 C 0.17375 0.8058 0.7114 0.0
C2056 C 0.11135 0.80818 0.66367 0.0
C2057 C 0.06701 0.77788 0.66973 0.0
N2058 N 0.15287 0.80725 0.69771 0.0
N2059 N 0.0871 0.77903 0.68589 0.0
H2060 H 0.06683 0.36296 0.46731 0.0
H2061 H 0.06701 0.48086 0.52052 0.0
H2062 H 0.00815 0.33625 0.50925 0.0
H2063 H 0.99393 0.44666 0.53317 0.0
H2064 H 0.07529 0.43949 0.51291 0.0
H2065 H 0.07008 0.40517 0.4863 0.0
C2066 C 0.05502 0.3659 0.48095 0.0
C2067 C 0.037 0.34613 0.48646 0.0
C2068 C 0.05743 0.44098 0.51726 0.0
C2069 C 0.04076 0.39435 0.50866 0.0
C2070 C 0.05275 0.46467 0.52195 0.0
C2071 C 0.02952 0.46728 0.52696 0.0
C2072 C 0.03867 0.41978 0.51743 0.0
C2073 C 0.01196 0.4456 0.52896 0.0
C2074 C 0.05698 0.39005 0.49199 0.0
C2075 C 0.02213 0.351 0.50422 0.0
N2076 N 0.01682 0.42278 0.52391 0.0
N2077 N 0.0241 0.37465 0.51438 0.0
H2078 H 0.44627 0.32483 0.15186 0.0
H2079 H 0.36358 0.26316 0.24971 0.0
H2080 H 0.4387 0.24849 0.1687 0.0
H2081 H 0.3665 0.33802 0.23026 0.0
H2082 H 0.39528 0.25945 0.22376 0.0
H2083 H 0.41999 0.3316 0.18309 0.0
C2084 C 0.43899 0.30948 0.16202 0.0
C2085 C 0.44453 0.28603 0.15756 0.0
C2086 C 0.38923 0.27683 0.22538 0.0
C2087 C 0.41485 0.29369 0.19344 0.0
C2088 C 0.37129 0.279 0.24035 0.0
C2089 C 0.36241 0.30086 0.24193 0.0
C2090 C 0.39818 0.29663 0.21184 0.0
C2091 C 0.37287 0.32081 0.2294 0.0
C2092 C 0.42413 0.31339 0.17992 0.0
C2093 C 0.4348 0.26685 0.1714 0.0
N2094 N 0.39006 0.31813 0.21462 0.0
N2095 N 0.42044 0.27111 0.18868 0.0
H2096 H 0.61562 0.47936 0.36799 0.0
H2097 H 0.51445 0.53435 0.43056 0.0
H2098 H 0.5727 0.52673 0.33443 0.0
H2099 H 0.54976 0.48046 0.46309 0.0
H2100 H 0.53407 0.52904 0.39401 0.0
H2101 H 0.59051 0.47686 0.40183 0.0
C2102 C 0.60081 0.48901 0.3676 0.0
C2103 C 0.59642 0.50347 0.34845 0.0
C2104 C 0.53742 0.51813 0.40897 0.0
C2105 C 0.56774 0.50075 0.38701 0.0
C2106 C 0.52618 0.52117 0.42989 0.0
C2107 C 0.53056 0.50791 0.44993 0.0
C2108 C 0.55355 0.50197 0.40809 0.0
C2109 C 0.54582 0.49096 0.44797 0.0
C2110 C 0.58649 0.48758 0.38691 0.0
C2111 C 0.57696 0.51555 0.34888 0.0
N2112 N 0.55705 0.4887 0.42751 0.0
N2113 N 0.56352 0.51404 0.36787 0.0
H2114 H 0.22568 0.81762 0.07887 0.0
H2115 H 0.25613 0.82921 0.22466 0.0
H2116 H 0.22267 0.88307 0.12559 0.0
H2117 H 0.23718 0.75844 0.18063 0.0
H2118 H 0.24778 0.8501 0.18816 0.0
H2119 H 0.23292 0.79621 0.11534 0.0
C2120 C 0.22636 0.82746 0.09675 0.0
C2121 C 0.22346 0.85224 0.09903 0.0
C2122 C 0.24561 0.83001 0.1864 0.0
C2123 C 0.23223 0.82788 0.14101 0.0
C2124 C 0.25081 0.81814 0.20723 0.0
C2125 C 0.24807 0.79216 0.20562 0.0
C2126 C 0.23772 0.81579 0.16364 0.0
C2127 C 0.23979 0.77857 0.18265 0.0
C2128 C 0.23052 0.81521 0.11759 0.0
C2129 C 0.22462 0.86397 0.12281 0.0
N2130 N 0.23511 0.79052 0.16256 0.0
N2131 N 0.22911 0.8518 0.14278 0.0
H2132 H 0.9524 0.52843 0.82027 0.0
H2133 H 0.03369 0.58099 0.94302 0.0
H2134 H 0.96862 0.60866 0.83519 0.0
H2135 H 0.96345 0.53213 0.94393 0.0
H2136 H 0.02111 0.58777 0.90027 0.0
H2137 H 0.96819 0.52528 0.86259 0.0
C2138 C 0.95968 0.54543 0.83231 0.0
C2139 C 0.95916 0.56888 0.82417 0.0
C2140 C 0.00855 0.57569 0.91002 0.0
C2141 C 0.97763 0.56525 0.87244 0.0
C2142 C 0.0157 0.57172 0.93423 0.0
C2143 C 0.9995 0.55609 0.94698 0.0
C2144 C 0.98547 0.5632 0.89842 0.0
C2145 C 0.97638 0.5445 0.93482 0.0
C2146 C 0.96855 0.54355 0.85643 0.0
C2147 C 0.96864 0.59024 0.84075 0.0
N2148 N 0.97019 0.54798 0.91111 0.0
N2149 N 0.97765 0.58795 0.86417 0.0
H2150 H 0.2975 0.22394 0.5569 0.0
H2151 H 0.29587 0.21495 0.69994 0.0
H2152 H 0.28976 0.15423 0.58942 0.0
H2153 H 0.27153 0.2724 0.66174 0.0
H2154 H 0.30535 0.19668 0.66129 0.0
H2155 H 0.30029 0.24596 0.59746 0.0
C2156 C 0.29681 0.21328 0.5726 0.0
C2157 C 0.29294 0.18714 0.56978 0.0
C2158 C 0.29815 0.21341 0.66148 0.0
C2159 C 0.29618 0.21228 0.61605 0.0
C2160 C 0.29274 0.22381 0.68342 0.0
C2161 C 0.28259 0.24492 0.68376 0.0
C2162 C 0.29365 0.22446 0.63995 0.0
C2163 C 0.27906 0.25589 0.66205 0.0
C2164 C 0.29831 0.22589 0.59568 0.0
C2165 C 0.29236 0.17436 0.59078 0.0
N2166 N 0.28451 0.24545 0.64089 0.0
N2167 N 0.29374 0.18706 0.61309 0.0
H2168 H 0.58524 0.4921 0.22996 0.0
H2169 H 0.60342 0.53508 0.09942 0.0
H2170 H 0.65459 0.50134 0.20175 0.0
H2171 H 0.53395 0.49299 0.11407 0.0
H2172 H 0.62239 0.52434 0.13777 0.0
H2173 H 0.56552 0.49332 0.18854 0.0
C2174 C 0.59628 0.49408 0.21504 0.0
C2175 C 0.62164 0.49684 0.21938 0.0
C2176 C 0.60304 0.51719 0.13248 0.0
C2177 C 0.59926 0.49861 0.17218 0.0
C2178 C 0.59223 0.52339 0.11068 0.0
C2179 C 0.56714 0.51496 0.10375 0.0
C2180 C 0.58855 0.50295 0.14773 0.0
C2181 C 0.55339 0.49982 0.11887 0.0
C2182 C 0.58499 0.4947 0.19143 0.0
C2183 C 0.63501 0.49923 0.19932 0.0
N2184 N 0.56422 0.49459 0.14043 0.0
N2185 N 0.62371 0.50046 0.17669 0.0
H2186 H 0.26 0.82049 0.97416 0.0
H2187 H 0.2133 0.8034 0.83044 0.0
H2188 H 0.19798 0.84695 0.94354 0.0
H2189 H 0.27731 0.78089 0.86211 0.0
H2190 H 0.20531 0.81648 0.8716 0.0
H2191 H 0.26423 0.80275 0.93346 0.0
C2192 C 0.24707 0.82238 0.95891 0.0
C2193 C 0.22862 0.83535 0.96237 0.0
C2194 C 0.22101 0.80853 0.86954 0.0
C2195 C 0.23357 0.81513 0.91533 0.0
C2196 C 0.22559 0.80098 0.846 0.0
C2197 C 0.24607 0.79099 0.84266 0.0
C2198 C 0.23699 0.8061 0.89 0.0
C2199 C 0.26133 0.7885 0.86365 0.0
C2200 C 0.24957 0.81227 0.93558 0.0
C2201 C 0.21246 0.83711 0.94179 0.0
N2202 N 0.25652 0.79604 0.8863 0.0
N2203 N 0.2154 0.82728 0.91916 0.0
H2204 H 0.97766 0.57265 0.70807 0.0
H2205 H 0.96613 0.54925 0.56217 0.0
H2206 H 0.91438 0.57938 0.66048 0.0
H2207 H 0.03541 0.5675 0.60729 0.0
H2208 H 0.94587 0.55534 0.59857 0.0
H2209 H 0.99847 0.56675 0.67198 0.0
C2210 C 0.96817 0.57304 0.69009 0.0
C2211 C 0.94421 0.5766 0.68741 0.0
C2212 C 0.96549 0.5578 0.60058 0.0
C2213 C 0.96781 0.5694 0.64597 0.0
C2214 C 0.97698 0.55386 0.57985 0.0
C2215 C 1.00234 0.55709 0.58188 0.0
C2216 C 0.9795 0.56494 0.62357 0.0
C2217 C 0.01574 0.56453 0.60506 0.0
C2218 C 0.98007 0.56966 0.6695 0.0
C2219 C 0.93287 0.57686 0.66355 0.0
N2220 N 0.00417 0.56801 0.62504 0.0
N2221 N 0.94467 0.57311 0.64383 0.0
H2222 H 0.30392 0.23896 0.45554 0.0
H2223 H 0.25769 0.22552 0.3191 0.0
H2224 H 0.28751 0.16635 0.41452 0.0
H2225 H 0.31686 0.2876 0.34729 0.0
H2226 H 0.26676 0.20406 0.35491 0.0
H2227 H 0.30863 0.25836 0.41738 0.0
C2228 C 0.30183 0.22714 0.43851 0.0
C2229 C 0.29507 0.20109 0.43797 0.0
C2230 C 0.27795 0.22224 0.35312 0.0
C2231 C 0.29982 0.22303 0.39458 0.0
C2232 C 0.2726 0.23458 0.33294 0.0
C2233 C 0.28636 0.25841 0.33067 0.0
C2234 C 0.29672 0.23416 0.37143 0.0
C2235 C 0.30578 0.26927 0.34869 0.0
C2236 C 0.30461 0.23819 0.41684 0.0
C2237 C 0.29267 0.18652 0.41558 0.0
N2238 N 0.31011 0.25725 0.36874 0.0
N2239 N 0.29441 0.19772 0.39459 0.0
H2240 H 0.34793 0.58997 0.54811 0.0
H2241 H 0.45895 0.55947 0.48039 0.0
H2242 H 0.37629 0.63209 0.49078 0.0
H2243 H 0.42846 0.5197 0.53806 0.0
H2244 H 0.43003 0.58699 0.48376 0.0
H2245 H 0.37818 0.5648 0.54457 0.0
C2246 C 0.36054 0.59398 0.53474 0.0
C2247 C 0.35942 0.61325 0.51971 0.0
C2248 C 0.4298 0.57232 0.49576 0.0
C2249 C 0.39447 0.58414 0.51545 0.0
C2250 C 0.4465 0.5568 0.494 0.0
C2251 C 0.44651 0.53758 0.50928 0.0
C2252 C 0.41291 0.56846 0.51286 0.0
C2253 C 0.42924 0.5343 0.52593 0.0
C2254 C 0.3779 0.57953 0.53271 0.0
C2255 C 0.37642 0.61746 0.50276 0.0
N2256 N 0.41329 0.54953 0.52729 0.0
N2257 N 0.3932 0.60302 0.50105 0.0
H2258 H 0.82699 0.93302 0.54182 0.0
H2259 H 0.9535 0.02129 0.59346 0.0
H2260 H 0.83094 0.98338 0.60679 0.0
H2261 H 0.92621 0.00832 0.51658 0.0
H2262 H 0.91277 0.001 0.60292 0.0
H2263 H 0.86855 0.95305 0.53705 0.0
C2264 C 0.83667 0.9481 0.55531 0.0
C2265 C 0.82537 0.9567 0.57465 0.0
C2266 C 0.91587 0.00283 0.58406 0.0
C2267 C 0.87305 0.97957 0.56919 0.0
C2268 C 0.93897 0.01425 0.57865 0.0
C2269 C 0.9431 0.0165 0.55422 0.0
C2270 C 0.89728 0.99309 0.56483 0.0
C2271 C 0.92376 0.00715 0.53566 0.0
C2272 C 0.86034 0.95958 0.55244 0.0
C2273 C 0.83895 0.97634 0.59152 0.0
N2274 N 0.90176 0.99561 0.54135 0.0
N2275 N 0.86224 0.98722 0.58841 0.0
H2276 H 0.84421 0.12617 0.27537 0.0
H2277 H 0.74818 0.20154 0.22034 0.0
H2278 H 0.79863 0.10476 0.20618 0.0
H2279 H 0.78157 0.21662 0.29526 0.0
H2280 H 0.76887 0.16746 0.21461 0.0
H2281 H 0.82383 0.16077 0.28289 0.0
C2282 C 0.82992 0.12869 0.26181 0.0
C2283 C 0.82313 0.11252 0.2401 0.0
C2284 C 0.77178 0.17816 0.23235 0.0
C2285 C 0.79992 0.15203 0.24852 0.0
C2286 C 0.75992 0.19763 0.23565 0.0
C2287 C 0.76338 0.21206 0.25826 0.0
C2288 C 0.78729 0.1729 0.25183 0.0
C2289 C 0.77888 0.20626 0.2774 0.0
C2290 C 0.8183 0.1484 0.26613 0.0
C2291 C 0.8045 0.11668 0.22318 0.0
N2292 N 0.79035 0.18709 0.27376 0.0
N2293 N 0.79366 0.136 0.22772 0.0
H2294 H 0.71882 0.13689 0.97143 0.0
H2295 H 0.61901 0.05745 0.04303 0.0
H2296 H 0.73746 0.09941 0.0341 0.0
H2297 H 0.60204 0.08648 0.97461 0.0
H2298 H 0.66251 0.07046 0.03907 0.0
H2299 H 0.67624 0.11594 0.97073 0.0
C2300 C 0.714 0.12393 0.98484 0.0
C2301 C 0.73174 0.12006 0.00297 0.0
C2302 C 0.64928 0.07381 0.02483 0.0
C2303 C 0.68277 0.09627 1.00257 0.0
C2304 C 0.62447 0.06646 0.02712 0.0
C2305 C 0.60699 0.07112 0.00922 0.0
C2306 C 0.6566 0.08605 0.00455 0.0
C2307 C 0.61497 0.0827 0.98891 0.0
C2308 C 0.68963 0.112 0.98447 0.0
C2309 C 0.72441 0.10295 0.01979 0.0
N2310 N 0.63919 0.08994 0.98722 0.0
N2311 N 0.70042 0.09196 0.0194 0.0
H2312 H 0.16167 0.41788 0.30195 0.0
H2313 H 0.26515 0.36178 0.24345 0.0
H2314 H 0.18916 0.43705 0.23433 0.0
H2315 H 0.23912 0.33913 0.31061 0.0
H2316 H 0.236 0.38838 0.2398 0.0
H2317 H 0.18808 0.38776 0.30535 0.0
C2318 C 0.1731 0.41567 0.28776 0.0
C2319 C 0.17324 0.43014 0.26787 0.0
C2320 C 0.23644 0.37757 0.25533 0.0
C2321 C 0.20352 0.39585 0.27171 0.0
C2322 C 0.25317 0.36237 0.25745 0.0
C2323 C 0.25433 0.34797 0.2772 0.0
C2324 C 0.22081 0.37883 0.27333 0.0
C2325 C 0.23842 0.34956 0.29482 0.0
C2326 C 0.1882 0.39851 0.28975 0.0
C2327 C 0.18845 0.42646 0.25005 0.0
N2328 N 0.22231 0.36479 0.29253 0.0
N2329 N 0.20294 0.40983 0.25245 0.0
H2330 H 0.20696 0.4625 0.00366 0.0
H2331 H 0.09666 0.49485 0.97927 0.0
H2332 H 0.22008 0.52363 0.06064 0.0
H2333 H 0.13096 0.56678 0.01779 0.0
H2334 H 0.13571 0.48286 0.98329 0.0
H2335 H 0.1743 0.47908 0.98335 0.0
C2336 C 0.203 0.47946 0.01186 0.0
C2337 C 0.2158 0.49136 0.03421 0.0
C2338 C 0.13509 0.50161 0.99011 0.0
C2339 C 0.178 0.51004 0.01149 0.0
C2340 C 0.11266 0.5084 0.9879 0.0
C2341 C 0.11065 0.53167 0.99853 0.0
C2342 C 0.15556 0.51825 0.00317 0.0
C2343 C 0.1318 0.54855 0.00955 0.0
C2344 C 0.18418 0.48882 1.00035 0.0
C2345 C 0.21033 0.51357 0.0437 0.0
N2346 N 0.15333 0.54131 0.01204 0.0
N2347 N 0.19163 0.52202 0.03243 0.0
H2348 H 0.86552 0.98293 0.27861 0.0
H2349 H 0.77941 0.85307 0.22343 0.0
H2350 H 0.8139 0.97837 0.21427 0.0
H2351 H 0.804 0.87168 0.30055 0.0
H2352 H 0.79586 0.8968 0.21672 0.0
H2353 H 0.84743 0.93965 0.28388 0.0
C2354 C 0.8504 0.97279 0.26553 0.0
C2355 C 0.84116 0.9843 0.246 0.0
C2356 C 0.79747 0.8912 0.23507 0.0
C2357 C 0.82051 0.9346 0.25183 0.0
C2358 C 0.7882 0.8663 0.23891 0.0
C2359 C 0.79027 0.85872 0.2626 0.0
C2360 C 0.80934 0.90835 0.25498 0.0
C2361 C 0.80181 0.87666 0.282 0.0
C2362 C 0.84002 0.94812 0.26862 0.0
C2363 C 0.82146 0.97023 0.22967 0.0
N2364 N 0.81107 0.90052 0.27773 0.0
N2365 N 0.81187 0.94599 0.23284 0.0
H2366 H 0.6494 0.07854 0.81195 0.0
H2367 H 0.7466 0.16955 0.74778 0.0
H2368 H 0.69238 0.05137 0.76031 0.0
H2369 H 0.71801 0.19265 0.81296 0.0
H2370 H 0.72773 0.12599 0.75227 0.0
H2371 H 0.67498 0.12035 0.81302 0.0
C2372 C 0.66437 0.08131 0.801 0.0
C2373 C 0.66864 0.06143 0.7859 0.0
C2374 C 0.72584 0.14057 0.76575 0.0
C2375 C 0.69786 0.10941 0.78679 0.0
C2376 C 0.73659 0.16539 0.76317 0.0
C2377 C 0.73368 0.18464 0.77993 0.0
C2378 C 0.71187 0.1351 0.78505 0.0
C2379 C 0.72057 0.17832 0.79957 0.0
C2380 C 0.67901 0.10521 0.80165 0.0
C2381 C 0.68841 0.06614 0.77222 0.0
N2382 N 0.70992 0.15413 0.80144 0.0
N2383 N 0.70209 0.08972 0.77274 0.0
loop_
_geom_bond_atom_site_label_1
_geom_bond_atom_site_label_2
_geom_bond_distance
_geom_bond_site_symmetry_2
_ccdc_geom_bond_type
O0 Cd1 2.223 . S
O0 C8 1.315 . S
Cd1 O0 2.223 . S
Cd1 O4 2.297 . S
Cd1 O5 2.439 . S
Cd1 O11 2.240 1_455 S
Cd2 O3 2.240 . S
Cd2 O10 2.223 1_455 S
Cd2 O12 2.290 1_455 S
Cd2 O13 2.439 . S
O3 Cd2 2.240 . S
O3 C8 1.279 . S
O4 Cd1 2.297 . S
O4 C6 1.247 . S
O5 Cd1 2.439 . S
O5 C6 1.208 . S
C6 O4 1.247 . S
C6 O5 1.208 . S
C7 O12 1.234 1_455 S
C7 O13 1.208 . S
C8 O0 1.315 . S
C8 O3 1.279 . S
C9 O10 1.315 . S
C9 O11 1.279 . S
O10 Cd2 2.223 1_655 S
O10 C9 1.315 . S
O11 Cd1 2.240 1_655 S
O11 C9 1.279 . S
O12 Cd2 2.290 1_655 S
O12 C7 1.234 1_655 S
O13 Cd2 2.439 . S
O13 C7 1.208 . S
O14 Cd15 2.227 . S
O14 C22 1.316 . S
Cd15 O14 2.227 . S
Cd15 O18 2.297 . S
Cd15 O19 2.439 . S
Cd15 O25 2.240 1_655 S
Cd16 O17 2.240 1_455 S
Cd16 O24 2.223 . S
Cd16 O26 2.297 . S
Cd16 O27 2.427 1_455 S
O17 Cd16 2.240 1_655 S
O17 C22 1.279 . S
O18 Cd15 2.297 . S
O18 C20 1.247 . S
O19 Cd15 2.439 . S
O19 C20 1.208 . S
C20 O18 1.247 . S
C20 O19 1.208 . S
C21 O26 1.247 . S
C21 O27 1.194 1_455 S
C22 O14 1.316 . S
C22 O17 1.279 . S
C23 O24 1.315 . S
C23 O25 1.279 . S
O24 Cd16 2.223 . S
O24 C23 1.315 . S
O25 Cd15 2.240 1_455 S
O25 C23 1.279 . S
O26 Cd16 2.297 . S
O26 C21 1.247 . S
O27 Cd16 2.427 1_655 S
O27 C21 1.194 1_655 S
O28 Cd29 2.223 . S
O28 C36 1.315 . S
Cd29 O28 2.223 . S
Cd29 O32 2.297 . S
Cd29 O33 2.439 . S
Cd29 O39 2.240 . S
Cd30 O31 2.240 . S
Cd30 O38 2.223 . S
Cd30 O40 2.297 . S
Cd30 O41 2.439 . S
O31 Cd30 2.240 . S
O31 C36 1.279 . S
O32 Cd29 2.297 . S
O32 C34 1.247 . S
O33 Cd29 2.439 . S
O33 C34 1.208 . S
C34 O32 1.247 . S
C34 O33 1.208 . S
C35 O40 1.247 . S
C35 O41 1.208 . S
C36 O28 1.315 . S
C36 O31 1.279 . S
C37 O38 1.315 . S
C37 O39 1.279 . S
O38 Cd30 2.223 . S
O38 C37 1.315 . S
O39 Cd29 2.240 . S
O39 C37 1.279 . S
O40 Cd30 2.297 . S
O40 C35 1.247 . S
O41 Cd30 2.439 . S
O41 C35 1.208 . S
O42 Cd43 2.223 . S
O42 C50 1.315 . S
Cd43 O42 2.223 . S
Cd43 O46 2.297 . S
Cd43 O47 2.439 . S
Cd43 O53 2.240 . S
Cd44 O45 2.240 . S
Cd44 O52 2.223 . S
Cd44 O54 2.297 . S
Cd44 O55 2.439 . S
O45 Cd44 2.240 . S
O45 C50 1.279 . S
O46 Cd43 2.297 . S
O46 C48 1.247 . S
O47 Cd43 2.439 . S
O47 C48 1.208 . S
C48 O46 1.247 . S
C48 O47 1.208 . S
C49 O54 1.247 . S
C49 O55 1.208 . S
C50 O42 1.315 . S
C50 O45 1.279 . S
C51 O52 1.315 . S
C51 O53 1.279 . S
O52 Cd44 2.223 . S
O52 C51 1.315 . S
O53 Cd43 2.240 . S
O53 C51 1.279 . S
O54 Cd44 2.297 . S
O54 C49 1.247 . S
O55 Cd44 2.439 . S
O55 C49 1.208 . S
O56 Cd57 2.223 . S
O56 C64 1.315 . S
Cd57 O56 2.223 . S
Cd57 O60 2.297 1_455 S
Cd57 O61 2.439 1_455 S
Cd57 O67 2.240 . S
Cd58 O59 2.240 1_455 S
Cd58 O66 2.223 . S
Cd58 O68 2.297 . S
Cd58 O69 2.439 . S
O59 Cd58 2.240 1_655 S
O59 C64 1.279 1_655 S
O60 Cd57 2.297 1_655 S
O60 C62 1.247 . S
O61 Cd57 2.439 1_655 S
O61 C62 1.208 . S
C62 O60 1.247 . S
C62 O61 1.208 . S
C63 O68 1.247 . S
C63 O69 1.208 . S
C64 O56 1.315 . S
C64 O59 1.279 1_455 S
C65 O66 1.315 . S
C65 O67 1.279 . S
O66 Cd58 2.223 . S
O66 C65 1.315 . S
O67 Cd57 2.240 . S
O67 C65 1.279 . S
O68 Cd58 2.297 . S
O68 C63 1.247 . S
O69 Cd58 2.439 . S
O69 C63 1.208 . S
O70 Cd71 2.223 . S
O70 C78 1.315 . S
Cd71 O70 2.223 . S
Cd71 O74 2.297 . S
Cd71 O75 2.439 . S
Cd71 O81 2.240 . S
Cd72 O73 2.240 . S
Cd72 O80 2.223 . S
Cd72 O82 2.297 . S
Cd72 O83 2.439 . S
O73 Cd72 2.240 . S
O73 C78 1.279 . S
O74 Cd71 2.297 . S
O74 C76 1.247 . S
O75 Cd71 2.439 . S
O75 C76 1.208 . S
C76 O74 1.247 . S
C76 O75 1.208 . S
C77 O82 1.247 . S
C77 O83 1.208 . S
C78 O70 1.315 . S
C78 O73 1.279 . S
C79 O80 1.315 . S
C79 O81 1.279 . S
O80 Cd72 2.223 . S
O80 C79 1.315 . S
O81 Cd71 2.240 . S
O81 C79 1.279 . S
O82 Cd72 2.297 . S
O82 C77 1.247 . S
O83 Cd72 2.439 . S
O83 C77 1.208 . S
O84 Cd85 2.223 . S
O84 C92 1.315 . S
Cd85 O84 2.223 . S
Cd85 O88 2.297 . S
Cd85 O89 2.439 . S
Cd85 O95 2.240 . S
Cd86 O87 2.240 . S
Cd86 O94 2.223 . S
Cd86 O96 2.297 . S
Cd86 O97 2.439 . S
O87 Cd86 2.240 . S
O87 C92 1.279 . S
O88 Cd85 2.297 . S
O88 C90 1.247 . S
O89 Cd85 2.439 . S
O89 C90 1.208 . S
C90 O88 1.247 . S
C90 O89 1.208 . S
C91 O96 1.247 . S
C91 O97 1.208 . S
C92 O84 1.315 . S
C92 O87 1.279 . S
C93 O94 1.315 . S
C93 O95 1.279 . S
O94 Cd86 2.223 . S
O94 C93 1.315 . S
O95 Cd85 2.240 . S
O95 C93 1.279 . S
O96 Cd86 2.297 . S
O96 C91 1.247 . S
O97 Cd86 2.439 . S
O97 C91 1.208 . S
O98 Cd99 2.223 . S
O98 C106 1.315 . S
Cd99 O98 2.223 . S
Cd99 O102 2.297 . S
Cd99 O103 2.439 . S
Cd99 O109 2.240 1_455 S
Cd100 O101 2.240 . S
Cd100 O108 2.223 1_455 S
Cd100 O110 2.297 1_455 S
Cd100 O111 2.439 . S
O101 Cd100 2.240 . S
O101 C106 1.279 . S
O102 Cd99 2.297 . S
O102 C104 1.247 . S
O103 Cd99 2.439 . S
O103 C104 1.208 . S
C104 O102 1.247 . S
C104 O103 1.208 . S
C105 O110 1.247 1_455 S
C105 O111 1.208 . S
C106 O98 1.315 . S
C106 O101 1.279 . S
C107 O108 1.315 . S
C107 O109 1.279 . S
O108 Cd100 2.223 1_655 S
O108 C107 1.315 . S
O109 Cd99 2.240 1_655 S
O109 C107 1.279 . S
O110 Cd100 2.297 1_655 S
O110 C105 1.247 1_655 S
O111 Cd100 2.439 . S
O111 C105 1.208 . S
O112 Cd113 2.223 . S
O112 C120 1.315 . S
Cd113 O112 2.223 . S
Cd113 O116 2.297 . S
Cd113 O117 2.439 . S
Cd113 O123 2.240 . S
Cd114 O115 2.240 . S
Cd114 O122 2.223 . S
Cd114 O124 2.297 . S
Cd114 O125 2.439 . S
O115 Cd114 2.240 . S
O115 C120 1.279 . S
O116 Cd113 2.297 . S
O116 C118 1.247 . S
O117 Cd113 2.439 . S
O117 C118 1.208 . S
C118 O116 1.247 . S
C118 O117 1.208 . S
C119 O124 1.247 . S
C119 O125 1.208 . S
C120 O112 1.315 . S
C120 O115 1.279 . S
C121 O122 1.315 . S
C121 O123 1.279 . S
O122 Cd114 2.223 . S
O122 C121 1.315 . S
O123 Cd113 2.240 . S
O123 C121 1.279 . S
O124 Cd114 2.297 . S
O124 C119 1.247 . S
O125 Cd114 2.439 . S
O125 C119 1.208 . S
O126 Cd127 2.223 . S
O126 C134 1.315 . S
Cd127 O126 2.223 . S
Cd127 O130 2.297 . S
Cd127 O131 2.439 . S
Cd127 O137 2.240 . S
Cd128 O129 2.240 . S
Cd128 O136 2.223 . S
Cd128 O138 2.297 . S
Cd128 O139 2.439 . S
O129 Cd128 2.240 . S
O129 C134 1.279 . S
O130 Cd127 2.297 . S
O130 C132 1.247 . S
O131 Cd127 2.439 . S
O131 C132 1.208 . S
C132 O130 1.247 . S
C132 O131 1.208 . S
C133 O138 1.247 . S
C133 O139 1.208 . S
C134 O126 1.315 . S
C134 O129 1.279 . S
C135 O136 1.315 . S
C135 O137 1.279 . S
O136 Cd128 2.223 . S
O136 C135 1.315 . S
O137 Cd127 2.240 . S
O137 C135 1.279 . S
O138 Cd128 2.297 . S
O138 C133 1.247 . S
O139 Cd128 2.439 . S
O139 C133 1.208 . S
O140 Cd141 2.223 1_545 S
O140 C148 1.315 1_545 S
Cd141 O140 2.223 1_565 S
Cd141 O144 2.297 . S
Cd141 O145 2.439 . S
Cd141 O151 2.240 1_565 S
Cd142 O143 2.240 1_545 S
Cd142 O150 2.223 . S
Cd142 O152 2.297 . S
Cd142 O153 2.439 1_545 S
O143 Cd142 2.240 1_565 S
O143 C148 1.279 . S
O144 Cd141 2.297 . S
O144 C146 1.247 . S
O145 Cd141 2.439 . S
O145 C146 1.208 . S
C146 O144 1.247 . S
C146 O145 1.208 . S
C147 O152 1.247 . S
C147 O153 1.208 1_545 S
C148 O140 1.315 1_565 S
C148 O143 1.279 . S
C149 O150 1.315 . S
C149 O151 1.279 . S
O150 Cd142 2.223 . S
O150 C149 1.315 . S
O151 Cd141 2.240 1_545 S
O151 C149 1.279 . S
O152 Cd142 2.297 . S
O152 C147 1.247 . S
O153 Cd142 2.439 1_565 S
O153 C147 1.208 1_565 S
O154 Cd155 2.223 . S
O154 C162 1.315 . S
Cd155 O154 2.223 . S
Cd155 O158 2.297 . S
Cd155 O159 2.439 . S
Cd155 O165 2.240 . S
Cd156 O157 2.240 . S
Cd156 O164 2.223 . S
Cd156 O166 2.297 1_554 S
Cd156 O167 2.439 1_554 S
O157 Cd156 2.240 . S
O157 C162 1.279 . S
O158 Cd155 2.297 . S
O158 C160 1.247 . S
O159 Cd155 2.439 . S
O159 C160 1.208 . S
C160 O158 1.247 . S
C160 O159 1.208 . S
C161 O166 1.247 . S
C161 O167 1.208 . S
C162 O154 1.315 . S
C162 O157 1.279 . S
C163 O164 1.315 . S
C163 O165 1.279 . S
O164 Cd156 2.223 . S
O164 C163 1.315 . S
O165 Cd155 2.240 . S
O165 C163 1.279 . S
O166 Cd156 2.297 1_556 S
O166 C161 1.247 . S
O167 Cd156 2.439 1_556 S
O167 C161 1.208 . S
O168 Cd169 2.223 . S
O168 C176 1.315 . S
Cd169 O168 2.223 . S
Cd169 O172 2.297 . S
Cd169 O173 2.439 . S
Cd169 O179 2.240 . S
Cd170 O171 2.240 . S
Cd170 O178 2.223 . S
Cd170 O180 2.297 1_554 S
Cd170 O181 2.439 1_554 S
O171 Cd170 2.240 . S
O171 C176 1.279 . S
O172 Cd169 2.297 . S
O172 C174 1.247 . S
O173 Cd169 2.439 . S
O173 C174 1.208 . S
C174 O172 1.247 . S
C174 O173 1.208 . S
C175 O180 1.247 . S
C175 O181 1.208 . S
C176 O168 1.315 . S
C176 O171 1.279 . S
C177 O178 1.315 . S
C177 O179 1.279 . S
O178 Cd170 2.223 . S
O178 C177 1.315 . S
O179 Cd169 2.240 . S
O179 C177 1.279 . S
O180 Cd170 2.297 1_556 S
O180 C175 1.247 . S
O181 Cd170 2.439 1_556 S
O181 C175 1.208 . S
O182 Cd183 2.223 . S
O182 C190 1.315 . S
Cd183 O182 2.223 . S
Cd183 O186 2.297 . S
Cd183 O187 2.439 1_554 S
Cd183 O193 2.240 1_554 S
Cd184 O185 2.240 1_556 S
Cd184 O192 2.223 1_556 S
Cd184 O194 2.297 . S
Cd184 O195 2.439 . S
O185 Cd184 2.240 1_554 S
O185 C190 1.279 . S
O186 Cd183 2.297 . S
O186 C188 1.247 . S
O187 Cd183 2.439 1_556 S
O187 C188 1.208 1_556 S
C188 O186 1.247 . S
C188 O187 1.208 1_554 S
C189 O194 1.247 . S
C189 O195 1.208 . S
C190 O182 1.315 . S
C190 O185 1.279 . S
C191 O192 1.315 1_556 S
C191 O193 1.279 . S
O192 Cd184 2.223 1_554 S
O192 C191 1.315 1_554 S
O193 Cd183 2.240 1_556 S
O193 C191 1.279 . S
O194 Cd184 2.297 . S
O194 C189 1.247 . S
O195 Cd184 2.439 . S
O195 C189 1.208 . S
O196 Cd197 2.223 . S
O196 C204 1.315 . S
Cd197 O196 2.223 . S
Cd197 O200 2.297 . S
Cd197 O201 2.439 . S
Cd197 O207 2.240 . S
Cd198 O199 2.240 . S
Cd198 O206 2.223 . S
Cd198 O208 2.297 . S
Cd198 O209 2.439 . S
O199 Cd198 2.240 . S
O199 C204 1.279 . S
O200 Cd197 2.297 . S
O200 C202 1.247 . S
O201 Cd197 2.439 . S
O201 C202 1.208 . S
C202 O200 1.247 . S
C202 O201 1.208 . S
C203 O208 1.247 . S
C203 O209 1.208 . S
C204 O196 1.315 . S
C204 O199 1.279 . S
C205 O206 1.315 . S
C205 O207 1.279 . S
O206 Cd198 2.223 . S
O206 C205 1.315 . S
O207 Cd197 2.240 . S
O207 C205 1.279 . S
O208 Cd198 2.297 . S
O208 C203 1.247 . S
O209 Cd198 2.439 . S
O209 C203 1.208 . S
O210 Cd211 2.223 . S
O210 C218 1.315 . S
Cd211 O210 2.223 . S
Cd211 O214 2.297 . S
Cd211 O215 2.439 . S
Cd211 O221 2.240 . S
Cd212 O213 2.240 . S
Cd212 O220 2.223 . S
Cd212 O222 2.297 . S
Cd212 O223 2.439 . S
O213 Cd212 2.240 . S
O213 C218 1.279 . S
O214 Cd211 2.297 . S
O214 C216 1.247 . S
O215 Cd211 2.439 . S
O215 C216 1.208 . S
C216 O214 1.247 . S
C216 O215 1.208 . S
C217 O222 1.247 . S
C217 O223 1.208 . S
C218 O210 1.315 . S
C218 O213 1.279 . S
C219 O220 1.315 . S
C219 O221 1.279 . S
O220 Cd212 2.223 . S
O220 C219 1.315 . S
O221 Cd211 2.240 . S
O221 C219 1.279 . S
O222 Cd212 2.297 . S
O222 C217 1.247 . S
O223 Cd212 2.439 . S
O223 C217 1.208 . S
O224 Cd225 2.223 . S
O224 C232 1.315 . S
Cd225 O224 2.223 . S
Cd225 O228 2.297 . S
Cd225 O229 2.439 . S
Cd225 O235 2.240 . S
Cd226 O227 2.240 . S
Cd226 O234 2.223 . S
Cd226 O236 2.297 . S
Cd226 O237 2.439 . S
O227 Cd226 2.240 . S
O227 C232 1.279 . S
O228 Cd225 2.297 . S
O228 C230 1.247 . S
O229 Cd225 2.439 . S
O229 C230 1.208 . S
C230 O228 1.247 . S
C230 O229 1.208 . S
C231 O236 1.247 . S
C231 O237 1.208 . S
C232 O224 1.315 . S
C232 O227 1.279 . S
C233 O234 1.315 . S
C233 O235 1.279 . S
O234 Cd226 2.223 . S
O234 C233 1.315 . S
O235 Cd225 2.240 . S
O235 C233 1.279 . S
O236 Cd226 2.297 . S
O236 C231 1.247 . S
O237 Cd226 2.439 . S
O237 C231 1.208 . S
O238 Cd239 2.223 . S
O238 C246 1.315 . S
Cd239 O238 2.223 . S
Cd239 O242 2.297 . S
Cd239 O243 2.439 . S
Cd239 O249 2.240 . S
Cd240 O241 2.240 . S
Cd240 O248 2.223 . S
Cd240 O250 2.297 . S
Cd240 O251 2.439 . S
O241 Cd240 2.240 . S
O241 C246 1.279 . S
O242 Cd239 2.297 . S
O242 C244 1.247 . S
O243 Cd239 2.439 . S
O243 C244 1.208 . S
C244 O242 1.247 . S
C244 O243 1.208 . S
C245 O250 1.247 . S
C245 O251 1.208 . S
C246 O238 1.315 . S
C246 O241 1.279 . S
C247 O248 1.315 . S
C247 O249 1.279 . S
O248 Cd240 2.223 . S
O248 C247 1.315 . S
O249 Cd239 2.240 . S
O249 C247 1.279 . S
O250 Cd240 2.297 . S
O250 C245 1.247 . S
O251 Cd240 2.439 . S
O251 C245 1.208 . S
O252 Cd253 2.223 . S
O252 C260 1.315 . S
Cd253 O252 2.223 . S
Cd253 O256 2.297 . S
Cd253 O257 2.439 . S
Cd253 O263 2.240 . S
Cd254 O255 2.240 . S
Cd254 O262 2.223 . S
Cd254 O264 2.297 . S
Cd254 O265 2.439 . S
O255 Cd254 2.240 . S
O255 C260 1.279 . S
O256 Cd253 2.297 . S
O256 C258 1.247 . S
O257 Cd253 2.439 . S
O257 C258 1.208 . S
C258 O256 1.247 . S
C258 O257 1.208 . S
C259 O264 1.247 . S
C259 O265 1.208 . S
C260 O252 1.315 . S
C260 O255 1.279 . S
C261 O262 1.315 . S
C261 O263 1.279 . S
O262 Cd254 2.223 . S
O262 C261 1.315 . S
O263 Cd253 2.240 . S
O263 C261 1.279 . S
O264 Cd254 2.297 . S
O264 C259 1.247 . S
O265 Cd254 2.439 . S
O265 C259 1.208 . S
O266 Cd267 2.223 . S
O266 C274 1.315 . S
Cd267 O266 2.223 . S
Cd267 O270 2.297 1_545 S
Cd267 O271 2.439 1_545 S
Cd267 O277 2.240 . S
Cd268 O269 2.240 . S
Cd268 O276 2.223 . S
Cd268 O278 2.297 . S
Cd268 O279 2.439 . S
O269 Cd268 2.240 . S
O269 C274 1.279 . S
O270 Cd267 2.297 1_565 S
O270 C272 1.247 . S
O271 Cd267 2.439 1_565 S
O271 C272 1.208 . S
C272 O270 1.247 . S
C272 O271 1.208 . S
C273 O278 1.247 . S
C273 O279 1.208 . S
C274 O266 1.315 . S
C274 O269 1.279 . S
C275 O276 1.315 . S
C275 O277 1.279 . S
O276 Cd268 2.223 . S
O276 C275 1.315 . S
O277 Cd267 2.240 . S
O277 C275 1.279 . S
O278 Cd268 2.297 . S
O278 C273 1.247 . S
O279 Cd268 2.439 . S
O279 C273 1.208 . S
O280 Cd281 2.223 . S
O280 C288 1.315 . S
Cd281 O280 2.223 . S
Cd281 O284 2.297 . S
Cd281 O285 2.439 . S
Cd281 O291 2.250 . S
Cd282 O283 2.240 . S
Cd282 O290 2.223 . S
Cd282 O292 2.297 1_554 S
Cd282 O293 2.439 1_554 S
O283 Cd282 2.240 . S
O283 C288 1.279 . S
O284 Cd281 2.297 . S
O284 C286 1.247 . S
O285 Cd281 2.439 . S
O285 C286 1.208 . S
C286 O284 1.247 . S
C286 O285 1.208 . S
C287 O292 1.247 . S
C287 O293 1.208 . S
C288 O280 1.315 . S
C288 O283 1.279 . S
C289 O290 1.315 . S
C289 O291 1.287 . S
O290 Cd282 2.223 . S
O290 C289 1.315 . S
O291 Cd281 2.250 . S
O291 C289 1.287 . S
O292 Cd282 2.297 1_556 S
O292 C287 1.247 . S
O293 Cd282 2.439 1_556 S
O293 C287 1.208 . S
O294 Cd295 2.223 . S
O294 C302 1.315 . S
Cd295 O294 2.223 . S
Cd295 O298 2.297 . S
Cd295 O299 2.439 . S
Cd295 O305 2.240 . S
Cd296 O297 2.240 . S
Cd296 O304 2.223 . S
Cd296 O306 2.297 . S
Cd296 O307 2.439 . S
O297 Cd296 2.240 . S
O297 C302 1.279 . S
O298 Cd295 2.297 . S
O298 C300 1.247 . S
O299 Cd295 2.439 . S
O299 C300 1.208 . S
C300 O298 1.247 . S
C300 O299 1.208 . S
C301 O306 1.247 . S
C301 O307 1.208 . S
C302 O294 1.315 . S
C302 O297 1.279 . S
C303 O304 1.315 . S
C303 O305 1.279 . S
O304 Cd296 2.223 . S
O304 C303 1.315 . S
O305 Cd295 2.240 . S
O305 C303 1.279 . S
O306 Cd296 2.297 . S
O306 C301 1.247 . S
O307 Cd296 2.439 . S
O307 C301 1.208 . S
O308 Cd309 2.223 . S
O308 C316 1.315 . S
Cd309 O308 2.223 . S
Cd309 O312 2.297 . S
Cd309 O313 2.439 . S
Cd309 O319 2.240 . S
Cd310 O311 2.240 . S
Cd310 O318 2.223 . S
Cd310 O320 2.297 . S
Cd310 O321 2.439 . S
O311 Cd310 2.240 . S
O311 C316 1.279 . S
O312 Cd309 2.297 . S
O312 C314 1.247 . S
O313 Cd309 2.439 . S
O313 C314 1.208 . S
C314 O312 1.247 . S
C314 O313 1.208 . S
C315 O320 1.247 . S
C315 O321 1.208 . S
C316 O308 1.315 . S
C316 O311 1.279 . S
C317 O318 1.315 . S
C317 O319 1.279 . S
O318 Cd310 2.223 . S
O318 C317 1.315 . S
O319 Cd309 2.240 . S
O319 C317 1.279 . S
O320 Cd310 2.297 . S
O320 C315 1.247 . S
O321 Cd310 2.439 . S
O321 C315 1.208 . S
O322 Cd323 2.223 . S
O322 C330 1.315 . S
Cd323 O322 2.223 . S
Cd323 O326 2.297 . S
Cd323 O327 2.439 . S
Cd323 O333 2.240 . S
Cd324 O325 2.240 . S
Cd324 O332 2.223 . S
Cd324 O334 2.297 . S
Cd324 O335 2.439 . S
O325 Cd324 2.240 . S
O325 C330 1.279 . S
O326 Cd323 2.297 . S
O326 C328 1.247 . S
O327 Cd323 2.439 . S
O327 C328 1.208 . S
C328 O326 1.247 . S
C328 O327 1.208 . S
C329 O334 1.247 . S
C329 O335 1.208 . S
C330 O322 1.315 . S
C330 O325 1.279 . S
C331 O332 1.315 . S
C331 O333 1.279 . S
O332 Cd324 2.223 . S
O332 C331 1.315 . S
O333 Cd323 2.240 . S
O333 C331 1.279 . S
O334 Cd324 2.297 . S
O334 C329 1.247 . S
O335 Cd324 2.439 . S
O335 C329 1.208 . S
Tb336 O339 2.453 . S
Tb336 O340 2.596 . S
Tb336 O341 2.374 1_554 S
Tb336 O349 2.343 1_455 S
Tb336 O351 2.353 . S
Tb336 O353 2.427 . S
Tb336 O354 2.513 1_554 S
C337 O341 1.251 . S
C337 O343 1.263 . S
Tb338 O340 2.343 1_655 S
Tb338 O343 2.353 1_654 S
Tb338 O346 2.427 1_645 S
Tb338 O347 2.513 1_645 S
Tb338 O348 2.453 . S
Tb338 O349 2.596 . S
Tb338 O350 2.374 . S
O339 Tb336 2.453 . S
O339 C355 1.245 . S
O340 Tb336 2.596 . S
O340 Tb338 2.343 1_455 S
O340 C355 1.259 . S
O341 Tb336 2.374 1_556 S
O341 C337 1.251 . S
C342 O346 1.275 . S
C342 O347 1.246 . S
O343 C337 1.263 . S
O343 Tb338 2.353 1_456 S
C344 O348 1.245 . S
C344 O349 1.259 . S
C345 O350 1.250 1_455 S
C345 O351 1.263 . S
O346 Tb338 2.427 1_465 S
O346 C342 1.275 . S
O347 Tb338 2.513 1_465 S
O347 C342 1.246 . S
O348 Tb338 2.453 . S
O348 C344 1.245 . S
O349 Tb336 2.343 1_655 S
O349 Tb338 2.596 . S
O349 C344 1.259 . S
O350 Tb338 2.374 . S
O350 C345 1.250 1_655 S
O351 Tb336 2.353 . S
O351 C345 1.263 . S
C352 O353 1.275 . S
C352 O354 1.246 1_554 S
O353 Tb336 2.427 . S
O353 C352 1.275 . S
O354 Tb336 2.513 1_556 S
O354 C352 1.246 1_556 S
C355 O339 1.245 . S
C355 O340 1.259 . S
Tb356 O359 2.453 . S
Tb356 O360 2.596 . S
Tb356 O361 2.374 . S
Tb356 O369 2.343 . S
Tb356 O371 2.353 . S
Tb356 O373 2.427 . S
Tb356 O374 2.513 . S
C357 O361 1.251 . S
C357 O363 1.263 . S
Tb358 O360 2.343 . S
Tb358 O363 2.353 . S
Tb358 O366 2.427 . S
Tb358 O367 2.513 . S
Tb358 O368 2.453 . S
Tb358 O369 2.596 . S
Tb358 O370 2.374 . S
O359 Tb356 2.453 . S
O359 C375 1.245 . S
O360 Tb356 2.596 . S
O360 Tb358 2.343 . S
O360 C375 1.259 . S
O361 Tb356 2.374 . S
O361 C357 1.251 . S
C362 O366 1.275 . S
C362 O367 1.246 . S
O363 C357 1.263 . S
O363 Tb358 2.353 . S
C364 O368 1.245 . S
C364 O369 1.259 . S
C365 O370 1.250 . S
C365 O371 1.263 . S
O366 Tb358 2.427 . S
O366 C362 1.275 . S
O367 Tb358 2.513 . S
O367 C362 1.246 . S
O368 Tb358 2.453 . S
O368 C364 1.245 . S
O369 Tb356 2.343 . S
O369 Tb358 2.596 . S
O369 C364 1.259 . S
O370 Tb358 2.374 . S
O370 C365 1.250 . S
O371 Tb356 2.353 . S
O371 C365 1.263 . S
C372 O373 1.275 . S
C372 O374 1.246 . S
O373 Tb356 2.427 . S
O373 C372 1.275 . S
O374 Tb356 2.513 . S
O374 C372 1.246 . S
C375 O359 1.245 . S
C375 O360 1.259 . S
Tb376 O379 2.453 . S
Tb376 O380 2.596 . S
Tb376 O381 2.374 . S
Tb376 O389 2.343 . S
Tb376 O391 2.353 . S
Tb376 O393 2.427 . S
Tb376 O394 2.513 . S
C377 O381 1.251 . S
C377 O383 1.263 . S
Tb378 O380 2.343 . S
Tb378 O383 2.353 . S
Tb378 O386 2.427 . S
Tb378 O387 2.513 . S
Tb378 O388 2.453 1_545 S
Tb378 O389 2.596 . S
Tb378 O390 2.374 . S
O379 Tb376 2.453 . S
O379 C395 1.245 . S
O380 Tb376 2.596 . S
O380 Tb378 2.343 . S
O380 C395 1.259 . S
O381 Tb376 2.374 . S
O381 C377 1.251 . S
C382 O386 1.275 . S
C382 O387 1.246 . S
O383 C377 1.263 . S
O383 Tb378 2.353 . S
C384 O388 1.245 . S
C384 O389 1.259 1_565 S
C385 O390 1.250 . S
C385 O391 1.263 . S
O386 Tb378 2.427 . S
O386 C382 1.275 . S
O387 Tb378 2.513 . S
O387 C382 1.246 . S
O388 Tb378 2.453 1_565 S
O388 C384 1.245 . S
O389 Tb376 2.343 . S
O389 Tb378 2.596 . S
O389 C384 1.259 1_545 S
O390 Tb378 2.374 . S
O390 C385 1.250 . S
O391 Tb376 2.353 . S
O391 C385 1.263 . S
C392 O393 1.275 . S
C392 O394 1.246 . S
O393 Tb376 2.427 . S
O393 C392 1.275 . S
O394 Tb376 2.513 . S
O394 C392 1.246 . S
C395 O379 1.245 . S
C395 O380 1.259 . S
Tb396 O399 2.453 . S
Tb396 O400 2.596 . S
Tb396 O401 2.374 . S
Tb396 O409 2.343 . S
Tb396 O411 2.353 . S
Tb396 O413 2.427 . S
Tb396 O414 2.513 . S
C397 O401 1.251 . S
C397 O403 1.263 . S
Tb398 O400 2.343 . S
Tb398 O403 2.353 . S
Tb398 O406 2.427 . S
Tb398 O407 2.513 . S
Tb398 O408 2.453 . S
Tb398 O409 2.596 . S
Tb398 O410 2.374 . S
O399 Tb396 2.453 . S
O399 C415 1.245 . S
O400 Tb396 2.596 . S
O400 Tb398 2.343 . S
O400 C415 1.259 . S
O401 Tb396 2.374 . S
O401 C397 1.251 . S
C402 O406 1.275 . S
C402 O407 1.246 . S
O403 C397 1.263 . S
O403 Tb398 2.353 . S
C404 O408 1.245 . S
C404 O409 1.259 . S
C405 O410 1.250 . S
C405 O411 1.263 . S
O406 Tb398 2.427 . S
O406 C402 1.275 . S
O407 Tb398 2.513 . S
O407 C402 1.246 . S
O408 Tb398 2.453 . S
O408 C404 1.245 . S
O409 Tb396 2.343 . S
O409 Tb398 2.596 . S
O409 C404 1.259 . S
O410 Tb398 2.374 . S
O410 C405 1.250 . S
O411 Tb396 2.353 . S
O411 C405 1.263 . S
C412 O413 1.275 . S
C412 O414 1.246 . S
O413 Tb396 2.427 . S
O413 C412 1.275 . S
O414 Tb396 2.513 . S
O414 C412 1.246 . S
C415 O399 1.245 . S
C415 O400 1.259 . S
Tb416 O419 2.453 1_545 S
Tb416 O420 2.596 . S
Tb416 O421 2.374 1_455 S
Tb416 O429 2.343 . S
Tb416 O431 2.353 . S
Tb416 O433 2.427 . S
Tb416 O434 2.513 1_455 S
C417 O421 1.251 . S
C417 O423 1.263 . S
Tb418 O420 2.343 . S
Tb418 O423 2.353 1_455 S
Tb418 O426 2.427 . S
Tb418 O427 2.513 . S
Tb418 O428 2.453 . S
Tb418 O429 2.596 . S
Tb418 O430 2.374 . S
O419 Tb416 2.453 1_565 S
O419 C435 1.245 . S
O420 Tb416 2.596 . S
O420 Tb418 2.343 . S
O420 C435 1.259 1_545 S
O421 Tb416 2.374 1_655 S
O421 C417 1.251 . S
C422 O426 1.275 . S
C422 O427 1.246 . S
O423 C417 1.263 . S
O423 Tb418 2.353 1_655 S
C424 O428 1.245 . S
C424 O429 1.259 . S
C425 O430 1.250 . S
C425 O431 1.263 . S
O426 Tb418 2.427 . S
O426 C422 1.275 . S
O427 Tb418 2.513 . S
O427 C422 1.246 . S
O428 Tb418 2.453 . S
O428 C424 1.245 . S
O429 Tb416 2.343 . S
O429 Tb418 2.596 . S
O429 C424 1.259 . S
O430 Tb418 2.374 . S
O430 C425 1.250 . S
O431 Tb416 2.353 . S
O431 C425 1.263 . S
C432 O433 1.275 1_655 S
C432 O434 1.246 . S
O433 Tb416 2.427 . S
O433 C432 1.275 1_455 S
O434 Tb416 2.513 1_655 S
O434 C432 1.246 . S
C435 O419 1.245 . S
C435 O420 1.259 1_565 S
Tb436 O439 2.453 . S
Tb436 O440 2.596 . S
Tb436 O441 2.374 . S
Tb436 O449 2.343 . S
Tb436 O451 2.353 . S
Tb436 O453 2.427 . S
Tb436 O454 2.513 . S
C437 O441 1.251 . S
C437 O443 1.263 . S
Tb438 O440 2.343 . S
Tb438 O443 2.353 . S
Tb438 O446 2.427 . S
Tb438 O447 2.513 . S
Tb438 O448 2.453 . S
Tb438 O449 2.596 . S
Tb438 O450 2.374 . S
O439 Tb436 2.453 . S
O439 C455 1.245 . S
O440 Tb436 2.596 . S
O440 Tb438 2.343 . S
O440 C455 1.259 . S
O441 Tb436 2.374 . S
O441 C437 1.251 . S
C442 O446 1.275 . S
C442 O447 1.246 . S
O443 C437 1.263 . S
O443 Tb438 2.353 . S
C444 O448 1.245 . S
C444 O449 1.259 . S
C445 O450 1.250 . S
C445 O451 1.263 . S
O446 Tb438 2.427 . S
O446 C442 1.275 . S
O447 Tb438 2.513 . S
O447 C442 1.246 . S
O448 Tb438 2.453 . S
O448 C444 1.245 . S
O449 Tb436 2.343 . S
O449 Tb438 2.596 . S
O449 C444 1.259 . S
O450 Tb438 2.374 . S
O450 C445 1.250 . S
O451 Tb436 2.353 . S
O451 C445 1.263 . S
C452 O453 1.275 . S
C452 O454 1.246 . S
O453 Tb436 2.427 . S
O453 C452 1.275 . S
O454 Tb436 2.513 . S
O454 C452 1.246 . S
C455 O439 1.245 . S
C455 O440 1.259 . S
Tb456 O459 2.453 1_554 S
Tb456 O460 2.596 . S
Tb456 O461 2.374 1_545 S
Tb456 O469 2.343 . S
Tb456 O471 2.353 . S
Tb456 O473 2.427 . S
Tb456 O474 2.513 1_545 S
C457 O461 1.251 . S
C457 O463 1.263 . S
Tb458 O460 2.343 . S
Tb458 O463 2.353 1_545 S
Tb458 O466 2.427 . S
Tb458 O467 2.513 . S
Tb458 O468 2.453 . S
Tb458 O469 2.596 . S
Tb458 O470 2.374 . S
O459 Tb456 2.453 1_556 S
O459 C475 1.245 . S
O460 Tb456 2.596 . S
O460 Tb458 2.343 . S
O460 C475 1.259 1_554 S
O461 Tb456 2.374 1_565 S
O461 C457 1.251 . S
C462 O466 1.275 . S
C462 O467 1.246 . S
O463 C457 1.263 . S
O463 Tb458 2.353 1_565 S
C464 O468 1.245 . S
C464 O469 1.259 . S
C465 O470 1.250 . S
C465 O471 1.263 . S
O466 Tb458 2.427 . S
O466 C462 1.275 . S
O467 Tb458 2.513 . S
O467 C462 1.246 . S
O468 Tb458 2.453 . S
O468 C464 1.245 . S
O469 Tb456 2.343 . S
O469 Tb458 2.596 . S
O469 C464 1.259 . S
O470 Tb458 2.374 . S
O470 C465 1.250 . S
O471 Tb456 2.353 . S
O471 C465 1.263 . S
C472 O473 1.275 . S
C472 O474 1.246 1_545 S
O473 Tb456 2.427 . S
O473 C472 1.275 . S
O474 Tb456 2.513 1_565 S
O474 C472 1.246 1_565 S
C475 O459 1.245 . S
C475 O460 1.259 1_556 S
Tb476 O479 2.453 . S
Tb476 O480 2.596 . S
Tb476 O481 2.374 . S
Tb476 O489 2.343 . S
Tb476 O491 2.353 . S
Tb476 O493 2.427 . S
Tb476 O494 2.513 . S
C477 O481 1.251 . S
C477 O483 1.263 . S
Tb478 O480 2.343 . S
Tb478 O483 2.353 . S
Tb478 O486 2.427 . S
Tb478 O487 2.513 . S
Tb478 O488 2.453 . S
Tb478 O489 2.596 . S
Tb478 O490 2.374 . S
O479 Tb476 2.453 . S
O479 C495 1.245 . S
O480 Tb476 2.596 . S
O480 Tb478 2.343 . S
O480 C495 1.259 . S
O481 Tb476 2.374 . S
O481 C477 1.251 . S
C482 O486 1.275 . S
C482 O487 1.246 . S
O483 C477 1.263 . S
O483 Tb478 2.353 . S
C484 O488 1.245 . S
C484 O489 1.259 . S
C485 O490 1.250 . S
C485 O491 1.263 . S
O486 Tb478 2.427 . S
O486 C482 1.275 . S
O487 Tb478 2.513 . S
O487 C482 1.246 . S
O488 Tb478 2.453 . S
O488 C484 1.245 . S
O489 Tb476 2.343 . S
O489 Tb478 2.596 . S
O489 C484 1.259 . S
O490 Tb478 2.374 . S
O490 C485 1.250 . S
O491 Tb476 2.353 . S
O491 C485 1.263 . S
C492 O493 1.275 . S
C492 O494 1.246 . S
O493 Tb476 2.427 . S
O493 C492 1.275 . S
O494 Tb476 2.513 . S
O494 C492 1.246 . S
C495 O479 1.245 . S
C495 O480 1.259 . S
Tb496 O499 2.453 1_556 S
Tb496 O500 2.596 1_556 S
Tb496 O501 2.374 1_556 S
Tb496 O509 2.343 1_556 S
Tb496 O511 2.353 1_556 S
Tb496 O513 2.427 . S
Tb496 O514 2.513 . S
C497 O501 1.251 . S
C497 O503 1.263 . S
Tb498 O500 2.343 . S
Tb498 O503 2.353 . S
Tb498 O506 2.427 . S
Tb498 O507 2.513 . S
Tb498 O508 2.453 . S
Tb498 O509 2.596 . S
Tb498 O510 2.374 . S
O499 Tb496 2.453 1_554 S
O499 C515 1.245 . S
O500 Tb496 2.596 1_554 S
O500 Tb498 2.343 . S
O500 C515 1.259 . S
O501 Tb496 2.374 1_554 S
O501 C497 1.251 . S
C502 O506 1.275 . S
C502 O507 1.246 . S
O503 C497 1.263 . S
O503 Tb498 2.353 . S
C504 O508 1.245 . S
C504 O509 1.259 . S
C505 O510 1.250 . S
C505 O511 1.263 . S
O506 Tb498 2.427 . S
O506 C502 1.275 . S
O507 Tb498 2.513 . S
O507 C502 1.246 . S
O508 Tb498 2.453 . S
O508 C504 1.245 . S
O509 Tb496 2.343 1_554 S
O509 Tb498 2.596 . S
O509 C504 1.259 . S
O510 Tb498 2.374 . S
O510 C505 1.250 . S
O511 Tb496 2.353 1_554 S
O511 C505 1.263 . S
C512 O513 1.275 . S
C512 O514 1.246 . S
O513 Tb496 2.427 . S
O513 C512 1.275 . S
O514 Tb496 2.513 . S
O514 C512 1.246 . S
C515 O499 1.245 . S
C515 O500 1.259 . S
Tb516 O519 2.453 . S
Tb516 O520 2.596 . S
Tb516 O521 2.374 . S
Tb516 O529 2.343 . S
Tb516 O531 2.353 . S
Tb516 O533 2.427 . S
Tb516 O534 2.513 . S
C517 O521 1.251 . S
C517 O523 1.263 . S
Tb518 O520 2.343 . S
Tb518 O523 2.353 . S
Tb518 O526 2.427 . S
Tb518 O527 2.513 . S
Tb518 O528 2.453 . S
Tb518 O529 2.596 . S
Tb518 O530 2.374 . S
O519 Tb516 2.453 . S
O519 C535 1.245 . S
O520 Tb516 2.596 . S
O520 Tb518 2.343 . S
O520 C535 1.259 . S
O521 Tb516 2.374 . S
O521 C517 1.251 . S
C522 O526 1.275 . S
C522 O527 1.246 . S
O523 C517 1.263 . S
O523 Tb518 2.353 . S
C524 O528 1.245 . S
C524 O529 1.259 . S
C525 O530 1.250 . S
C525 O531 1.263 . S
O526 Tb518 2.427 . S
O526 C522 1.275 . S
O527 Tb518 2.513 . S
O527 C522 1.246 . S
O528 Tb518 2.453 . S
O528 C524 1.245 . S
O529 Tb516 2.343 . S
O529 Tb518 2.596 . S
O529 C524 1.259 . S
O530 Tb518 2.374 . S
O530 C525 1.250 . S
O531 Tb516 2.353 . S
O531 C525 1.263 . S
C532 O533 1.275 . S
C532 O534 1.246 . S
O533 Tb516 2.427 . S
O533 C532 1.275 . S
O534 Tb516 2.513 . S
O534 C532 1.246 . S
C535 O519 1.245 . S
C535 O520 1.259 . S
Tb536 O539 2.481 . S
Tb536 O540 2.596 1_655 S
Tb536 O541 2.374 . S
Tb536 O549 2.343 . S
Tb536 O551 2.353 . S
Tb536 O553 2.427 . S
Tb536 O554 2.513 . S
C537 O541 1.251 1_455 S
C537 O543 1.263 . S
Tb538 O540 2.343 . S
Tb538 O543 2.353 . S
Tb538 O546 2.427 . S
Tb538 O547 2.513 . S
Tb538 O548 2.453 . S
Tb538 O549 2.596 1_455 S
Tb538 O550 2.374 . S
O539 Tb536 2.481 . S
O539 C555 1.201 1_655 S
O540 Tb536 2.596 1_455 S
O540 Tb538 2.343 . S
O540 C555 1.259 . S
O541 Tb536 2.374 . S
O541 C537 1.251 1_655 S
C542 O546 1.275 . S
C542 O547 1.246 . S
O543 C537 1.263 . S
O543 Tb538 2.353 . S
C544 O548 1.245 1_655 S
C544 O549 1.259 . S
C545 O550 1.250 . S
C545 O551 1.263 1_455 S
O546 Tb538 2.427 . S
O546 C542 1.275 . S
O547 Tb538 2.513 . S
O547 C542 1.246 . S
O548 Tb538 2.453 . S
O548 C544 1.245 1_455 S
O549 Tb536 2.343 . S
O549 Tb538 2.596 1_655 S
O549 C544 1.259 . S
O550 Tb538 2.374 . S
O550 C545 1.250 . S
O551 Tb536 2.353 . S
O551 C545 1.263 1_655 S
C552 O553 1.275 . S
C552 O554 1.246 . S
O553 Tb536 2.427 . S
O553 C552 1.275 . S
O554 Tb536 2.513 . S
O554 C552 1.246 . S
C555 O539 1.201 1_455 S
C555 O540 1.259 . S
Tb556 O559 2.453 . S
Tb556 O560 2.596 . S
Tb556 O561 2.374 . S
Tb556 O569 2.343 . S
Tb556 O571 2.353 . S
Tb556 O573 2.427 . S
Tb556 O574 2.513 . S
C557 O561 1.251 . S
C557 O563 1.263 . S
Tb558 O560 2.343 . S
Tb558 O563 2.353 . S
Tb558 O566 2.427 . S
Tb558 O567 2.513 . S
Tb558 O568 2.453 . S
Tb558 O569 2.596 . S
Tb558 O570 2.374 . S
O559 Tb556 2.453 . S
O559 C575 1.245 . S
O560 Tb556 2.596 . S
O560 Tb558 2.343 . S
O560 C575 1.259 . S
O561 Tb556 2.374 . S
O561 C557 1.251 . S
C562 O566 1.275 . S
C562 O567 1.246 . S
O563 C557 1.263 . S
O563 Tb558 2.353 . S
C564 O568 1.245 . S
C564 O569 1.259 . S
C565 O570 1.250 . S
C565 O571 1.263 . S
O566 Tb558 2.427 . S
O566 C562 1.275 . S
O567 Tb558 2.513 . S
O567 C562 1.246 . S
O568 Tb558 2.453 . S
O568 C564 1.245 . S
O569 Tb556 2.343 . S
O569 Tb558 2.596 . S
O569 C564 1.259 . S
O570 Tb558 2.374 . S
O570 C565 1.250 . S
O571 Tb556 2.353 . S
O571 C565 1.263 . S
C572 O573 1.275 . S
C572 O574 1.246 . S
O573 Tb556 2.427 . S
O573 C572 1.275 . S
O574 Tb556 2.513 . S
O574 C572 1.246 . S
C575 O559 1.245 . S
C575 O560 1.259 . S
Tb576 O579 2.453 . S
Tb576 O580 2.596 . S
Tb576 O581 2.374 . S
Tb576 O589 2.343 . S
Tb576 O591 2.353 . S
Tb576 O593 2.427 . S
Tb576 O594 2.513 . S
C577 O581 1.251 . S
C577 O583 1.263 . S
Tb578 O580 2.343 . S
Tb578 O583 2.353 . S
Tb578 O586 2.427 . S
Tb578 O587 2.513 . S
Tb578 O588 2.453 . S
Tb578 O589 2.596 . S
Tb578 O590 2.374 . S
O579 Tb576 2.453 . S
O579 C595 1.245 . S
O580 Tb576 2.596 . S
O580 Tb578 2.343 . S
O580 C595 1.259 . S
O581 Tb576 2.374 . S
O581 C577 1.251 . S
C582 O586 1.275 . S
C582 O587 1.246 . S
O583 C577 1.263 . S
O583 Tb578 2.353 . S
C584 O588 1.245 . S
C584 O589 1.259 . S
C585 O590 1.250 . S
C585 O591 1.263 . S
O586 Tb578 2.427 . S
O586 C582 1.275 . S
O587 Tb578 2.513 . S
O587 C582 1.246 . S
O588 Tb578 2.453 . S
O588 C584 1.245 . S
O589 Tb576 2.343 . S
O589 Tb578 2.596 . S
O589 C584 1.259 . S
O590 Tb578 2.374 . S
O590 C585 1.250 . S
O591 Tb576 2.353 . S
O591 C585 1.263 . S
C592 O593 1.275 . S
C592 O594 1.246 . S
O593 Tb576 2.427 . S
O593 C592 1.275 . S
O594 Tb576 2.513 . S
O594 C592 1.246 . S
C595 O579 1.245 . S
C595 O580 1.259 . S
Tb596 O599 2.453 . S
Tb596 O600 2.596 . S
Tb596 O601 2.374 . S
Tb596 O609 2.343 . S
Tb596 O611 2.353 . S
Tb596 O613 2.427 . S
Tb596 O614 2.513 . S
C597 O601 1.251 . S
C597 O603 1.263 . S
Tb598 O600 2.343 . S
Tb598 O603 2.353 . S
Tb598 O606 2.427 . S
Tb598 O607 2.513 . S
Tb598 O608 2.453 . S
Tb598 O609 2.596 . S
Tb598 O610 2.374 . S
O599 Tb596 2.453 . S
O599 C615 1.245 . S
O600 Tb596 2.596 . S
O600 Tb598 2.343 . S
O600 C615 1.259 . S
O601 Tb596 2.374 . S
O601 C597 1.251 . S
C602 O606 1.275 . S
C602 O607 1.246 . S
O603 C597 1.263 . S
O603 Tb598 2.353 . S
C604 O608 1.245 . S
C604 O609 1.259 . S
C605 O610 1.250 . S
C605 O611 1.263 . S
O606 Tb598 2.427 . S
O606 C602 1.275 . S
O607 Tb598 2.513 . S
O607 C602 1.246 . S
O608 Tb598 2.453 . S
O608 C604 1.245 . S
O609 Tb596 2.343 . S
O609 Tb598 2.596 . S
O609 C604 1.259 . S
O610 Tb598 2.374 . S
O610 C605 1.250 . S
O611 Tb596 2.353 . S
O611 C605 1.263 . S
C612 O613 1.275 . S
C612 O614 1.246 . S
O613 Tb596 2.427 . S
O613 C612 1.275 . S
O614 Tb596 2.513 . S
O614 C612 1.246 . S
C615 O599 1.245 . S
C615 O600 1.259 . S
Tb616 O619 2.453 . S
Tb616 O620 2.596 . S
Tb616 O621 2.374 . S
Tb616 O629 2.343 . S
Tb616 O631 2.353 . S
Tb616 O633 2.427 . S
Tb616 O634 2.513 . S
C617 O621 1.251 . S
C617 O623 1.263 . S
Tb618 O620 2.343 . S
Tb618 O623 2.353 . S
Tb618 O626 2.427 . S
Tb618 O627 2.513 . S
Tb618 O628 2.453 . S
Tb618 O629 2.596 . S
Tb618 O630 2.374 . S
O619 Tb616 2.453 . S
O619 C635 1.245 . S
O620 Tb616 2.596 . S
O620 Tb618 2.343 . S
O620 C635 1.259 . S
O621 Tb616 2.374 . S
O621 C617 1.251 . S
C622 O626 1.275 . S
C622 O627 1.246 . S
O623 C617 1.263 . S
O623 Tb618 2.353 . S
C624 O628 1.245 . S
C624 O629 1.259 . S
C625 O630 1.250 . S
C625 O631 1.263 . S
O626 Tb618 2.427 . S
O626 C622 1.275 . S
O627 Tb618 2.513 . S
O627 C622 1.246 . S
O628 Tb618 2.453 . S
O628 C624 1.245 . S
O629 Tb616 2.343 . S
O629 Tb618 2.596 . S
O629 C624 1.259 . S
O630 Tb618 2.374 . S
O630 C625 1.250 . S
O631 Tb616 2.353 . S
O631 C625 1.263 . S
C632 O633 1.275 . S
C632 O634 1.246 . S
O633 Tb616 2.427 . S
O633 C632 1.275 . S
O634 Tb616 2.513 . S
O634 C632 1.246 . S
C635 O619 1.245 . S
C635 O620 1.259 . S
Tb636 O639 2.453 . S
Tb636 O640 2.596 . S
Tb636 O641 2.374 . S
Tb636 O649 2.343 . S
Tb636 O651 2.353 1_554 S
Tb636 O653 2.427 . S
Tb636 O654 2.513 . S
C637 O641 1.251 . S
C637 O643 1.252 1_455 S
Tb638 O640 2.343 1_655 S
Tb638 O643 2.359 . S
Tb638 O646 2.427 . S
Tb638 O647 2.513 . S
Tb638 O648 2.453 . S
Tb638 O649 2.596 1_655 S
Tb638 O650 2.374 1_554 S
O639 Tb636 2.453 . S
O639 C655 1.245 . S
O640 Tb636 2.596 . S
O640 Tb638 2.343 1_455 S
O640 C655 1.259 . S
O641 Tb636 2.374 . S
O641 C637 1.251 . S
C642 O646 1.275 . S
C642 O647 1.246 . S
O643 C637 1.252 1_655 S
O643 Tb638 2.359 . S
C644 O648 1.245 1_455 S
C644 O649 1.259 . S
C645 O650 1.250 1_455 S
C645 O651 1.263 . S
O646 Tb638 2.427 . S
O646 C642 1.275 . S
O647 Tb638 2.513 . S
O647 C642 1.246 . S
O648 Tb638 2.453 . S
O648 C644 1.245 1_655 S
O649 Tb636 2.343 . S
O649 Tb638 2.596 1_455 S
O649 C644 1.259 . S
O650 Tb638 2.374 1_556 S
O650 C645 1.250 1_655 S
O651 Tb636 2.353 1_556 S
O651 C645 1.263 . S
C652 O653 1.275 . S
C652 O654 1.246 . S
O653 Tb636 2.427 . S
O653 C652 1.275 . S
O654 Tb636 2.513 . S
O654 C652 1.246 . S
C655 O639 1.245 . S
C655 O640 1.259 . S
H656 C662 0.930 . S
H657 C666 0.930 1_554 S
H658 C671 0.929 . S
H659 C669 0.929 . S
H660 C664 0.929 . S
H661 C670 0.929 . S
C662 H656 0.930 . S
C662 C663 1.367 1_655 S
C662 C670 1.378 . S
C663 C662 1.367 1_455 S
C663 C671 1.433 . S
C664 H660 0.929 . S
C664 C666 1.378 . S
C664 C668 1.350 . S
C665 C668 1.463 . S
C665 C670 1.350 1_455 S
C665 N673 1.427 . S
C666 H657 0.930 1_556 S
C666 C664 1.378 . S
C666 C667 1.367 . S
C667 C666 1.367 . S
C667 C669 1.433 1_455 S
C668 C664 1.350 . S
C668 C665 1.463 . S
C668 N672 1.427 1_455 S
C669 H659 0.929 . S
C669 C667 1.433 1_655 S
C669 N672 1.384 . S
C670 H661 0.929 . S
C670 C662 1.378 . S
C670 C665 1.350 1_655 S
C671 H658 0.929 . S
C671 C663 1.433 . S
C671 N673 1.384 . S
N672 C668 1.427 1_655 S
N672 C669 1.384 . S
N673 C665 1.427 . S
N673 C671 1.384 . S
H674 C680 0.930 . S
H675 C684 0.930 . S
H676 C689 0.929 . S
H677 C687 0.929 . S
H678 C682 0.929 . S
H679 C688 0.929 . S
C680 H674 0.930 . S
C680 C681 1.367 . S
C680 C688 1.378 . S
C681 C680 1.367 . S
C681 C689 1.433 . S
C682 H678 0.929 . S
C682 C684 1.378 . S
C682 C686 1.350 . S
C683 C686 1.463 . S
C683 C688 1.350 . S
C683 N691 1.427 . S
C684 H675 0.930 . S
C684 C682 1.378 . S
C684 C685 1.367 . S
C685 C684 1.367 . S
C685 C687 1.433 . S
C686 C682 1.350 . S
C686 C683 1.463 . S
C686 N690 1.427 . S
C687 H677 0.929 . S
C687 C685 1.433 . S
C687 N690 1.384 . S
C688 H679 0.929 . S
C688 C680 1.378 . S
C688 C683 1.350 . S
C689 H676 0.929 . S
C689 C681 1.433 . S
C689 N691 1.384 . S
N690 C686 1.427 . S
N690 C687 1.384 . S
N691 C683 1.427 . S
N691 C689 1.384 . S
H692 C698 0.930 . S
H693 C702 0.930 . S
H694 C707 0.929 . S
H695 C705 0.929 . S
H696 C700 0.929 . S
H697 C706 0.929 . S
C698 H692 0.930 . S
C698 C699 1.367 . S
C698 C706 1.378 . S
C699 C698 1.367 . S
C699 C707 1.433 . S
C700 H696 0.929 . S
C700 C702 1.378 . S
C700 C704 1.350 . S
C701 C704 1.463 . S
C701 C706 1.350 . S
C701 N709 1.427 . S
C702 H693 0.930 . S
C702 C700 1.378 . S
C702 C703 1.367 . S
C703 C702 1.367 . S
C703 C705 1.433 . S
C704 C700 1.350 . S
C704 C701 1.463 . S
C704 N708 1.427 . S
C705 H695 0.929 . S
C705 C703 1.433 . S
C705 N708 1.384 . S
C706 H697 0.929 . S
C706 C698 1.378 . S
C706 C701 1.350 . S
C707 H694 0.929 . S
C707 C699 1.433 . S
C707 N709 1.384 . S
N708 C704 1.427 . S
N708 C705 1.384 . S
N709 C701 1.427 . S
N709 C707 1.384 . S
H710 C716 0.930 . S
H711 C720 0.930 . S
H712 C725 0.929 . S
H713 C723 0.929 . S
H714 C718 0.929 . S
H715 C724 0.929 . S
C716 H710 0.930 . S
C716 C717 1.367 . S
C716 C724 1.378 . S
C717 C716 1.367 . S
C717 C725 1.433 . S
C718 H714 0.929 . S
C718 C720 1.378 . S
C718 C722 1.350 . S
C719 C722 1.463 . S
C719 C724 1.350 . S
C719 N727 1.427 . S
C720 H711 0.930 . S
C720 C718 1.378 . S
C720 C721 1.367 . S
C721 C720 1.367 . S
C721 C723 1.433 . S
C722 C718 1.350 . S
C722 C719 1.463 . S
C722 N726 1.427 . S
C723 H713 0.929 . S
C723 C721 1.433 . S
C723 N726 1.384 . S
C724 H715 0.929 . S
C724 C716 1.378 . S
C724 C719 1.350 . S
C725 H712 0.929 . S
C725 C717 1.433 . S
C725 N727 1.384 . S
N726 C722 1.427 . S
N726 C723 1.384 . S
N727 C719 1.427 . S
N727 C725 1.384 . S
H728 C734 0.930 . S
H729 C738 0.930 . S
H730 C743 0.929 . S
H731 C741 0.929 1_655 S
H732 C736 0.929 . S
H733 C742 0.958 . S
C734 H728 0.930 . S
C734 C735 1.367 1_655 S
C734 C742 1.374 . S
C735 C734 1.367 1_455 S
C735 C743 1.433 . S
C736 H732 0.929 . S
C736 C738 1.378 . S
C736 C740 1.350 . S
C737 C740 1.463 . S
C737 C742 1.326 1_455 S
C737 N745 1.427 . S
C738 H729 0.930 . S
C738 C736 1.378 . S
C738 C739 1.367 . S
C739 C738 1.367 . S
C739 C741 1.433 . S
C740 C736 1.350 . S
C740 C737 1.463 . S
C740 N744 1.449 . S
C741 H731 0.929 1_455 S
C741 C739 1.433 . S
C741 N744 1.380 . S
C742 H733 0.958 . S
C742 C734 1.374 . S
C742 C737 1.326 1_655 S
C743 H730 0.929 . S
C743 C735 1.433 . S
C743 N745 1.384 . S
N744 C740 1.449 . S
N744 C741 1.380 . S
N745 C737 1.427 . S
N745 C743 1.384 . S
H746 C752 0.930 . S
H747 C756 0.930 . S
H748 C761 0.929 . S
H749 C759 0.929 . S
H750 C754 0.929 . S
H751 C760 0.929 . S
C752 H746 0.930 . S
C752 C753 1.367 . S
C752 C760 1.378 . S
C753 C752 1.367 . S
C753 C761 1.433 . S
C754 H750 0.929 . S
C754 C756 1.378 . S
C754 C758 1.350 . S
C755 C758 1.463 . S
C755 C760 1.350 . S
C755 N763 1.427 . S
C756 H747 0.930 . S
C756 C754 1.378 . S
C756 C757 1.367 . S
C757 C756 1.367 . S
C757 C759 1.433 . S
C758 C754 1.350 . S
C758 C755 1.463 . S
C758 N762 1.427 . S
C759 H749 0.929 . S
C759 C757 1.433 . S
C759 N762 1.384 . S
C760 H751 0.929 . S
C760 C752 1.378 . S
C760 C755 1.350 . S
C761 H748 0.929 . S
C761 C753 1.433 . S
C761 N763 1.384 . S
N762 C758 1.427 . S
N762 C759 1.384 . S
N763 C755 1.427 . S
N763 C761 1.384 . S
H764 C770 0.930 . S
H765 C774 0.930 . S
H766 C779 0.929 . S
H767 C777 0.929 . S
H768 C772 0.929 . S
H769 C778 0.929 . S
C770 H764 0.930 . S
C770 C771 1.367 . S
C770 C778 1.378 . S
C771 C770 1.367 . S
C771 C779 1.433 . S
C772 H768 0.929 . S
C772 C774 1.378 . S
C772 C776 1.350 . S
C773 C776 1.463 . S
C773 C778 1.350 . S
C773 N781 1.427 . S
C774 H765 0.930 . S
C774 C772 1.378 . S
C774 C775 1.367 . S
C775 C774 1.367 . S
C775 C777 1.433 . S
C776 C772 1.350 . S
C776 C773 1.463 . S
C776 N780 1.427 . S
C777 H767 0.929 . S
C777 C775 1.433 . S
C777 N780 1.384 . S
C778 H769 0.929 . S
C778 C770 1.378 . S
C778 C773 1.350 . S
C779 H766 0.929 . S
C779 C771 1.433 . S
C779 N781 1.384 . S
N780 C776 1.427 . S
N780 C777 1.384 . S
N781 C773 1.427 . S
N781 C779 1.384 . S
H782 C788 0.930 . S
H783 C792 0.930 . S
H784 C797 0.929 . S
H785 C795 0.929 . S
H786 C790 0.929 . S
H787 C796 0.929 . S
C788 H782 0.930 . S
C788 C789 1.367 . S
C788 C796 1.378 . S
C789 C788 1.367 . S
C789 C797 1.433 . S
C790 H786 0.929 . S
C790 C792 1.378 . S
C790 C794 1.350 . S
C791 C794 1.463 . S
C791 C796 1.350 . S
C791 N799 1.427 . S
C792 H783 0.930 . S
C792 C790 1.378 . S
C792 C793 1.367 . S
C793 C792 1.367 . S
C793 C795 1.433 . S
C794 C790 1.350 . S
C794 C791 1.463 . S
C794 N798 1.427 . S
C795 H785 0.929 . S
C795 C793 1.433 . S
C795 N798 1.384 . S
C796 H787 0.929 . S
C796 C788 1.378 . S
C796 C791 1.350 . S
C797 H784 0.929 . S
C797 C789 1.433 . S
C797 N799 1.384 . S
N798 C794 1.427 . S
N798 C795 1.384 . S
N799 C791 1.427 . S
N799 C797 1.384 . S
H800 C806 0.930 . S
H801 C810 0.930 . S
H802 C815 0.929 . S
H803 C813 0.922 1_455 S
H804 C808 0.929 . S
H805 C814 0.929 . S
C806 H800 0.930 . S
C806 C807 1.367 . S
C806 C814 1.378 . S
C807 C806 1.367 . S
C807 C815 1.433 . S
C808 H804 0.929 . S
C808 C810 1.378 . S
C808 C812 1.350 . S
C809 C812 1.463 . S
C809 C814 1.350 . S
C809 N817 1.427 . S
C810 H801 0.930 . S
C810 C808 1.378 . S
C810 C811 1.367 . S
C811 C810 1.367 . S
C811 C813 1.436 . S
C812 C808 1.350 . S
C812 C809 1.463 . S
C812 N816 1.427 . S
C813 H803 0.922 1_655 S
C813 C811 1.436 . S
C813 N816 1.389 . S
C814 H805 0.929 . S
C814 C806 1.378 . S
C814 C809 1.350 . S
C815 H802 0.929 . S
C815 C807 1.433 . S
C815 N817 1.384 . S
N816 C812 1.427 . S
N816 C813 1.389 . S
N817 C809 1.427 . S
N817 C815 1.384 . S
H818 C824 0.930 . S
H819 C828 0.930 . S
H820 C833 0.929 . S
H821 C831 0.929 . S
H822 C826 0.929 . S
H823 C832 0.929 . S
C824 H818 0.930 . S
C824 C825 1.367 . S
C824 C832 1.378 . S
C825 C824 1.367 . S
C825 C833 1.433 . S
C826 H822 0.929 . S
C826 C828 1.378 . S
C826 C830 1.350 . S
C827 C830 1.463 . S
C827 C832 1.350 . S
C827 N835 1.427 . S
C828 H819 0.930 . S
C828 C826 1.378 . S
C828 C829 1.367 . S
C829 C828 1.367 . S
C829 C831 1.433 . S
C830 C826 1.350 . S
C830 C827 1.463 . S
C830 N834 1.427 . S
C831 H821 0.929 . S
C831 C829 1.433 . S
C831 N834 1.384 . S
C832 H823 0.929 . S
C832 C824 1.378 . S
C832 C827 1.350 . S
C833 H820 0.929 . S
C833 C825 1.433 . S
C833 N835 1.384 . S
N834 C830 1.427 . S
N834 C831 1.384 . S
N835 C827 1.427 . S
N835 C833 1.384 . S
H836 C842 0.930 . S
H837 C846 0.930 . S
H838 C851 0.929 1_565 S
H839 C849 0.929 . S
H840 C844 0.937 . S
H841 C850 0.929 . S
C842 H836 0.930 . S
C842 C843 1.367 . S
C842 C850 1.378 . S
C843 C842 1.367 . S
C843 C851 1.433 . S
C844 H840 0.937 . S
C844 C846 1.378 . S
C844 C848 1.350 . S
C845 C848 1.463 . S
C845 C850 1.350 . S
C845 N853 1.427 . S
C846 H837 0.930 . S
C846 C844 1.378 . S
C846 C847 1.367 . S
C847 C846 1.367 . S
C847 C849 1.433 . S
C848 C844 1.350 . S
C848 C845 1.463 . S
C848 N852 1.427 . S
C849 H839 0.929 . S
C849 C847 1.433 . S
C849 N852 1.384 . S
C850 H841 0.929 . S
C850 C842 1.378 . S
C850 C845 1.350 . S
C851 H838 0.929 1_545 S
C851 C843 1.433 . S
C851 N853 1.384 . S
N852 C848 1.427 . S
N852 C849 1.384 . S
N853 C845 1.427 . S
N853 C851 1.384 . S
H854 C860 0.930 . S
H855 C864 0.930 . S
H856 C869 0.929 . S
H857 C867 0.929 . S
H858 C862 0.929 . S
H859 C868 0.929 . S
C860 H854 0.930 . S
C860 C861 1.367 . S
C860 C868 1.378 . S
C861 C860 1.367 . S
C861 C869 1.433 . S
C862 H858 0.929 . S
C862 C864 1.378 . S
C862 C866 1.350 . S
C863 C866 1.463 . S
C863 C868 1.350 . S
C863 N871 1.427 . S
C864 H855 0.930 . S
C864 C862 1.378 . S
C864 C865 1.367 . S
C865 C864 1.367 . S
C865 C867 1.433 . S
C866 C862 1.350 . S
C866 C863 1.463 . S
C866 N870 1.427 . S
C867 H857 0.929 . S
C867 C865 1.433 . S
C867 N870 1.384 . S
C868 H859 0.929 . S
C868 C860 1.378 . S
C868 C863 1.350 . S
C869 H856 0.929 . S
C869 C861 1.433 . S
C869 N871 1.384 . S
N870 C866 1.427 . S
N870 C867 1.384 . S
N871 C863 1.427 . S
N871 C869 1.384 . S
H872 C878 0.930 . S
H873 C882 0.930 . S
H874 C887 0.929 . S
H875 C885 0.929 . S
H876 C880 0.929 . S
H877 C886 0.929 . S
C878 H872 0.930 . S
C878 C879 1.367 . S
C878 C886 1.378 . S
C879 C878 1.367 . S
C879 C887 1.433 . S
C880 H876 0.929 . S
C880 C882 1.378 . S
C880 C884 1.350 . S
C881 C884 1.463 . S
C881 C886 1.350 . S
C881 N889 1.427 . S
C882 H873 0.930 . S
C882 C880 1.378 . S
C882 C883 1.367 . S
C883 C882 1.367 . S
C883 C885 1.433 . S
C884 C880 1.350 . S
C884 C881 1.463 . S
C884 N888 1.427 . S
C885 H875 0.929 . S
C885 C883 1.433 . S
C885 N888 1.384 . S
C886 H877 0.929 . S
C886 C878 1.378 . S
C886 C881 1.350 . S
C887 H874 0.929 . S
C887 C879 1.433 . S
C887 N889 1.384 . S
N888 C884 1.427 . S
N888 C885 1.384 . S
N889 C881 1.427 . S
N889 C887 1.384 . S
H890 C896 0.930 . S
H891 C900 0.930 . S
H892 C905 0.929 . S
H893 C903 0.929 . S
H894 C898 0.929 . S
H895 C904 0.929 . S
C896 H890 0.930 . S
C896 C897 1.367 . S
C896 C904 1.378 . S
C897 C896 1.367 . S
C897 C905 1.433 . S
C898 H894 0.929 . S
C898 C900 1.378 . S
C898 C902 1.350 . S
C899 C902 1.463 . S
C899 C904 1.350 . S
C899 N907 1.427 . S
C900 H891 0.930 . S
C900 C898 1.378 . S
C900 C901 1.367 . S
C901 C900 1.367 . S
C901 C903 1.433 . S
C902 C898 1.350 . S
C902 C899 1.463 . S
C902 N906 1.427 . S
C903 H893 0.929 . S
C903 C901 1.433 . S
C903 N906 1.384 . S
C904 H895 0.929 . S
C904 C896 1.378 . S
C904 C899 1.350 . S
C905 H892 0.929 . S
C905 C897 1.433 . S
C905 N907 1.384 . S
N906 C902 1.427 . S
N906 C903 1.384 . S
N907 C899 1.427 . S
N907 C905 1.384 . S
H908 C914 0.930 . S
H909 C918 0.930 . S
H910 C923 0.929 . S
H911 C921 0.929 . S
H912 C916 0.929 . S
H913 C922 0.929 . S
C914 H908 0.930 . S
C914 C915 1.367 . S
C914 C922 1.378 . S
C915 C914 1.367 . S
C915 C923 1.433 . S
C916 H912 0.929 . S
C916 C918 1.378 . S
C916 C920 1.350 . S
C917 C920 1.463 . S
C917 C922 1.350 . S
C917 N925 1.427 . S
C918 H909 0.930 . S
C918 C916 1.378 . S
C918 C919 1.367 . S
C919 C918 1.367 . S
C919 C921 1.433 . S
C920 C916 1.350 . S
C920 C917 1.463 . S
C920 N924 1.427 . S
C921 H911 0.929 . S
C921 C919 1.433 . S
C921 N924 1.384 . S
C922 H913 0.929 . S
C922 C914 1.378 . S
C922 C917 1.350 . S
C923 H910 0.929 . S
C923 C915 1.433 . S
C923 N925 1.384 . S
N924 C920 1.427 . S
N924 C921 1.384 . S
N925 C917 1.427 . S
N925 C923 1.384 . S
H926 C932 0.930 . S
H927 C936 0.930 . S
H928 C941 0.929 . S
H929 C939 0.929 . S
H930 C934 0.929 . S
H931 C940 0.929 . S
C932 H926 0.930 . S
C932 C933 1.367 . S
C932 C940 1.378 . S
C933 C932 1.367 . S
C933 C941 1.433 . S
C934 H930 0.929 . S
C934 C936 1.378 . S
C934 C938 1.350 . S
C935 C938 1.463 . S
C935 C940 1.350 . S
C935 N943 1.427 . S
C936 H927 0.930 . S
C936 C934 1.378 . S
C936 C937 1.367 . S
C937 C936 1.367 . S
C937 C939 1.433 . S
C938 C934 1.350 . S
C938 C935 1.463 . S
C938 N942 1.427 . S
C939 H929 0.929 . S
C939 C937 1.433 . S
C939 N942 1.384 . S
C940 H931 0.929 . S
C940 C932 1.378 . S
C940 C935 1.350 . S
C941 H928 0.929 . S
C941 C933 1.433 . S
C941 N943 1.384 . S
N942 C938 1.427 . S
N942 C939 1.384 . S
N943 C935 1.427 . S
N943 C941 1.384 . S
H944 C950 0.930 . S
H945 C954 0.930 . S
H946 C959 0.929 . S
H947 C957 0.929 . S
H948 C952 0.929 . S
H949 C958 0.929 . S
C950 H944 0.930 . S
C950 C951 1.367 . S
C950 C958 1.378 . S
C951 C950 1.367 . S
C951 C959 1.433 . S
C952 H948 0.929 . S
C952 C954 1.378 . S
C952 C956 1.350 . S
C953 C956 1.463 . S
C953 C958 1.350 . S
C953 N961 1.427 . S
C954 H945 0.930 . S
C954 C952 1.378 . S
C954 C955 1.367 1_565 S
C955 C954 1.367 1_545 S
C955 C957 1.433 . S
C956 C952 1.350 . S
C956 C953 1.463 . S
C956 N960 1.427 1_565 S
C957 H947 0.929 . S
C957 C955 1.433 . S
C957 N960 1.384 . S
C958 H949 0.929 . S
C958 C950 1.378 . S
C958 C953 1.350 . S
C959 H946 0.929 . S
C959 C951 1.433 . S
C959 N961 1.384 . S
N960 C956 1.427 1_545 S
N960 C957 1.384 . S
N961 C953 1.427 . S
N961 C959 1.384 . S
H962 C968 0.930 . S
H963 C972 0.930 . S
H964 C977 0.929 . S
H965 C975 0.929 . S
H966 C970 0.929 . S
H967 C976 0.929 . S
C968 H962 0.930 . S
C968 C969 1.367 . S
C968 C976 1.378 . S
C969 C968 1.367 . S
C969 C977 1.433 1_554 S
C970 H966 0.929 . S
C970 C972 1.378 . S
C970 C974 1.350 1_556 S
C971 C974 1.463 . S
C971 C976 1.350 . S
C971 N979 1.427 1_554 S
C972 H963 0.930 . S
C972 C970 1.378 . S
C972 C973 1.367 1_556 S
C973 C972 1.367 1_554 S
C973 C975 1.433 . S
C974 C970 1.350 1_554 S
C974 C971 1.463 . S
C974 N978 1.427 . S
C975 H965 0.929 . S
C975 C973 1.433 . S
C975 N978 1.384 . S
C976 H967 0.929 . S
C976 C968 1.378 . S
C976 C971 1.350 . S
C977 H964 0.929 . S
C977 C969 1.433 1_556 S
C977 N979 1.384 . S
N978 C974 1.427 . S
N978 C975 1.384 . S
N979 C971 1.427 1_556 S
N979 C977 1.384 . S
H980 C986 0.930 . S
H981 C990 0.930 . S
H982 C995 0.929 . S
H983 C993 0.929 . S
H984 C988 0.929 . S
H985 C994 0.929 . S
C986 H980 0.930 . S
C986 C987 1.367 . S
C986 C994 1.378 . S
C987 C986 1.367 . S
C987 C995 1.433 . S
C988 H984 0.929 . S
C988 C990 1.378 . S
C988 C992 1.350 . S
C989 C992 1.463 . S
C989 C994 1.350 . S
C989 N997 1.427 . S
C990 H981 0.930 . S
C990 C988 1.378 . S
C990 C991 1.367 . S
C991 C990 1.367 . S
C991 C993 1.433 . S
C992 C988 1.350 . S
C992 C989 1.463 . S
C992 N996 1.427 . S
C993 H983 0.929 . S
C993 C991 1.433 . S
C993 N996 1.384 . S
C994 H985 0.929 . S
C994 C986 1.378 . S
C994 C989 1.350 . S
C995 H982 0.929 . S
C995 C987 1.433 . S
C995 N997 1.384 . S
N996 C992 1.427 . S
N996 C993 1.384 . S
N997 C989 1.427 . S
N997 C995 1.384 . S
H998 C1004 0.930 . S
H999 C1008 0.930 . S
H1000 C1013 0.929 . S
H1001 C1011 0.929 . S
H1002 C1006 0.929 . S
H1003 C1012 0.929 . S
C1004 H998 0.930 . S
C1004 C1005 1.367 . S
C1004 C1012 1.378 . S
C1005 C1004 1.367 . S
C1005 C1013 1.433 . S
C1006 H1002 0.929 . S
C1006 C1008 1.378 . S
C1006 C1010 1.350 . S
C1007 C1010 1.463 . S
C1007 C1012 1.350 . S
C1007 N1015 1.427 . S
C1008 H999 0.930 . S
C1008 C1006 1.378 . S
C1008 C1009 1.367 . S
C1009 C1008 1.367 . S
C1009 C1011 1.433 . S
C1010 C1006 1.350 . S
C1010 C1007 1.463 . S
C1010 N1014 1.427 . S
C1011 H1001 0.929 . S
C1011 C1009 1.433 . S
C1011 N1014 1.384 . S
C1012 H1003 0.929 . S
C1012 C1004 1.378 . S
C1012 C1007 1.350 . S
C1013 H1000 0.929 . S
C1013 C1005 1.433 . S
C1013 N1015 1.384 . S
N1014 C1010 1.427 . S
N1014 C1011 1.384 . S
N1015 C1007 1.427 . S
N1015 C1013 1.384 . S
H1016 C1022 0.930 . S
H1017 C1026 0.930 . S
H1018 C1031 0.929 . S
H1019 C1029 0.929 . S
H1020 C1024 0.929 . S
H1021 C1030 0.929 . S
C1022 H1016 0.930 . S
C1022 C1023 1.367 . S
C1022 C1030 1.378 . S
C1023 C1022 1.367 . S
C1023 C1031 1.433 . S
C1024 H1020 0.929 . S
C1024 C1026 1.378 . S
C1024 C1028 1.350 . S
C1025 C1028 1.463 . S
C1025 C1030 1.350 . S
C1025 N1033 1.427 . S
C1026 H1017 0.930 . S
C1026 C1024 1.378 . S
C1026 C1027 1.367 . S
C1027 C1026 1.367 . S
C1027 C1029 1.433 . S
C1028 C1024 1.350 . S
C1028 C1025 1.463 . S
C1028 N1032 1.427 . S
C1029 H1019 0.929 . S
C1029 C1027 1.433 . S
C1029 N1032 1.384 . S
C1030 H1021 0.929 . S
C1030 C1022 1.378 . S
C1030 C1025 1.350 . S
C1031 H1018 0.929 . S
C1031 C1023 1.433 . S
C1031 N1033 1.384 . S
N1032 C1028 1.427 . S
N1032 C1029 1.384 . S
N1033 C1025 1.427 . S
N1033 C1031 1.384 . S
H1034 C1040 0.930 . S
H1035 C1044 0.930 . S
H1036 C1049 0.929 . S
H1037 C1047 0.929 . S
H1038 C1042 0.929 . S
H1039 C1048 0.929 . S
C1040 H1034 0.930 . S
C1040 C1041 1.367 . S
C1040 C1048 1.378 . S
C1041 C1040 1.367 . S
C1041 C1049 1.433 . S
C1042 H1038 0.929 . S
C1042 C1044 1.378 . S
C1042 C1046 1.350 . S
C1043 C1046 1.463 . S
C1043 C1048 1.350 . S
C1043 N1051 1.427 . S
C1044 H1035 0.930 . S
C1044 C1042 1.378 . S
C1044 C1045 1.367 . S
C1045 C1044 1.367 . S
C1045 C1047 1.433 . S
C1046 C1042 1.350 . S
C1046 C1043 1.463 . S
C1046 N1050 1.427 . S
C1047 H1037 0.929 . S
C1047 C1045 1.433 . S
C1047 N1050 1.384 . S
C1048 H1039 0.929 . S
C1048 C1040 1.378 . S
C1048 C1043 1.350 . S
C1049 H1036 0.929 . S
C1049 C1041 1.433 . S
C1049 N1051 1.384 . S
N1050 C1046 1.427 . S
N1050 C1047 1.384 . S
N1051 C1043 1.427 . S
N1051 C1049 1.384 . S
H1052 C1058 0.930 . S
H1053 C1062 0.930 . S
H1054 C1067 0.929 . S
H1055 C1065 0.929 . S
H1056 C1060 0.929 . S
H1057 C1066 0.929 . S
C1058 H1052 0.930 . S
C1058 C1059 1.367 . S
C1058 C1066 1.378 . S
C1059 C1058 1.367 . S
C1059 C1067 1.433 . S
C1060 H1056 0.929 . S
C1060 C1062 1.378 . S
C1060 C1064 1.350 . S
C1061 C1064 1.463 . S
C1061 C1066 1.350 . S
C1061 N1069 1.427 . S
C1062 H1053 0.930 . S
C1062 C1060 1.378 . S
C1062 C1063 1.367 . S
C1063 C1062 1.367 . S
C1063 C1065 1.433 . S
C1064 C1060 1.350 . S
C1064 C1061 1.463 . S
C1064 N1068 1.427 . S
C1065 H1055 0.929 . S
C1065 C1063 1.433 . S
C1065 N1068 1.384 . S
C1066 H1057 0.929 . S
C1066 C1058 1.378 . S
C1066 C1061 1.350 . S
C1067 H1054 0.929 . S
C1067 C1059 1.433 . S
C1067 N1069 1.384 . S
N1068 C1064 1.427 . S
N1068 C1065 1.384 . S
N1069 C1061 1.427 . S
N1069 C1067 1.384 . S
H1070 C1076 0.930 . S
H1071 C1080 0.930 . S
H1072 C1085 0.929 . S
H1073 C1083 0.929 . S
H1074 C1078 0.929 . S
H1075 C1084 0.929 . S
C1076 H1070 0.930 . S
C1076 C1077 1.367 . S
C1076 C1084 1.378 . S
C1077 C1076 1.367 . S
C1077 C1085 1.433 . S
C1078 H1074 0.929 . S
C1078 C1080 1.378 . S
C1078 C1082 1.350 . S
C1079 C1082 1.463 . S
C1079 C1084 1.350 . S
C1079 N1087 1.427 . S
C1080 H1071 0.930 . S
C1080 C1078 1.378 . S
C1080 C1081 1.367 . S
C1081 C1080 1.367 . S
C1081 C1083 1.433 . S
C1082 C1078 1.350 . S
C1082 C1079 1.463 . S
C1082 N1086 1.427 . S
C1083 H1073 0.929 . S
C1083 C1081 1.433 . S
C1083 N1086 1.384 . S
C1084 H1075 0.929 . S
C1084 C1076 1.378 . S
C1084 C1079 1.350 . S
C1085 H1072 0.929 . S
C1085 C1077 1.433 . S
C1085 N1087 1.384 . S
N1086 C1082 1.427 . S
N1086 C1083 1.384 . S
N1087 C1079 1.427 . S
N1087 C1085 1.384 . S
H1088 C1094 0.930 . S
H1089 C1098 0.930 . S
H1090 C1103 0.929 . S
H1091 C1101 0.929 . S
H1092 C1096 0.929 . S
H1093 C1102 0.929 . S
C1094 H1088 0.930 . S
C1094 C1095 1.367 . S
C1094 C1102 1.378 . S
C1095 C1094 1.367 . S
C1095 C1103 1.433 . S
C1096 H1092 0.929 . S
C1096 C1098 1.378 . S
C1096 C1100 1.350 . S
C1097 C1100 1.463 . S
C1097 C1102 1.350 . S
C1097 N1105 1.427 . S
C1098 H1089 0.930 . S
C1098 C1096 1.378 . S
C1098 C1099 1.367 . S
C1099 C1098 1.367 . S
C1099 C1101 1.433 . S
C1100 C1096 1.350 . S
C1100 C1097 1.463 . S
C1100 N1104 1.427 . S
C1101 H1091 0.929 . S
C1101 C1099 1.433 . S
C1101 N1104 1.384 . S
C1102 H1093 0.929 . S
C1102 C1094 1.378 . S
C1102 C1097 1.350 . S
C1103 H1090 0.929 . S
C1103 C1095 1.433 . S
C1103 N1105 1.384 . S
N1104 C1100 1.427 . S
N1104 C1101 1.384 . S
N1105 C1097 1.427 . S
N1105 C1103 1.384 . S
H1106 C1112 0.930 . S
H1107 C1116 0.930 . S
H1108 C1121 0.929 . S
H1109 C1119 0.929 . S
H1110 C1114 0.929 . S
H1111 C1120 0.929 . S
C1112 H1106 0.930 . S
C1112 C1113 1.367 . S
C1112 C1120 1.378 . S
C1113 C1112 1.367 . S
C1113 C1121 1.433 . S
C1114 H1110 0.929 . S
C1114 C1116 1.378 . S
C1114 C1118 1.350 . S
C1115 C1118 1.463 . S
C1115 C1120 1.350 . S
C1115 N1123 1.427 . S
C1116 H1107 0.930 . S
C1116 C1114 1.378 . S
C1116 C1117 1.367 . S
C1117 C1116 1.367 . S
C1117 C1119 1.433 . S
C1118 C1114 1.350 . S
C1118 C1115 1.463 . S
C1118 N1122 1.427 . S
C1119 H1109 0.929 . S
C1119 C1117 1.433 . S
C1119 N1122 1.384 . S
C1120 H1111 0.929 . S
C1120 C1112 1.378 . S
C1120 C1115 1.350 . S
C1121 H1108 0.929 . S
C1121 C1113 1.433 . S
C1121 N1123 1.384 . S
N1122 C1118 1.427 . S
N1122 C1119 1.384 . S
N1123 C1115 1.427 . S
N1123 C1121 1.384 . S
H1124 C1130 0.930 . S
H1125 C1134 0.930 . S
H1126 C1139 0.929 . S
H1127 C1137 0.929 . S
H1128 C1132 0.929 . S
H1129 C1138 0.929 . S
C1130 H1124 0.930 . S
C1130 C1131 1.367 . S
C1130 C1138 1.378 . S
C1131 C1130 1.367 . S
C1131 C1139 1.433 . S
C1132 H1128 0.929 . S
C1132 C1134 1.378 . S
C1132 C1136 1.350 . S
C1133 C1136 1.463 . S
C1133 C1138 1.350 . S
C1133 N1141 1.427 . S
C1134 H1125 0.930 . S
C1134 C1132 1.378 . S
C1134 C1135 1.367 . S
C1135 C1134 1.367 . S
C1135 C1137 1.433 . S
C1136 C1132 1.350 . S
C1136 C1133 1.463 . S
C1136 N1140 1.427 . S
C1137 H1127 0.929 . S
C1137 C1135 1.433 . S
C1137 N1140 1.384 . S
C1138 H1129 0.929 . S
C1138 C1130 1.378 . S
C1138 C1133 1.350 . S
C1139 H1126 0.929 . S
C1139 C1131 1.433 . S
C1139 N1141 1.384 . S
N1140 C1136 1.427 . S
N1140 C1137 1.384 . S
N1141 C1133 1.427 . S
N1141 C1139 1.384 . S
H1142 C1148 0.930 . S
H1143 C1152 0.930 . S
H1144 C1157 0.929 . S
H1145 C1155 0.929 . S
H1146 C1150 0.929 . S
H1147 C1156 0.929 . S
C1148 H1142 0.930 . S
C1148 C1149 1.367 . S
C1148 C1156 1.378 . S
C1149 C1148 1.367 . S
C1149 C1157 1.433 . S
C1150 H1146 0.929 . S
C1150 C1152 1.378 . S
C1150 C1154 1.350 . S
C1151 C1154 1.463 . S
C1151 C1156 1.350 . S
C1151 N1159 1.427 . S
C1152 H1143 0.930 . S
C1152 C1150 1.378 . S
C1152 C1153 1.367 . S
C1153 C1152 1.367 . S
C1153 C1155 1.433 . S
C1154 C1150 1.350 . S
C1154 C1151 1.463 . S
C1154 N1158 1.427 . S
C1155 H1145 0.929 . S
C1155 C1153 1.433 . S
C1155 N1158 1.384 . S
C1156 H1147 0.929 . S
C1156 C1148 1.378 . S
C1156 C1151 1.350 . S
C1157 H1144 0.929 . S
C1157 C1149 1.433 . S
C1157 N1159 1.384 . S
N1158 C1154 1.427 . S
N1158 C1155 1.384 . S
N1159 C1151 1.427 . S
N1159 C1157 1.384 . S
H1160 C1166 0.920 1_655 S
H1161 C1170 0.930 . S
H1162 C1175 0.929 . S
H1163 C1173 0.929 1_655 S
H1164 C1168 0.929 . S
H1165 C1174 0.929 1_655 S
C1166 H1160 0.920 1_455 S
C1166 C1167 1.373 . S
C1166 C1174 1.384 . S
C1167 C1166 1.373 . S
C1167 C1175 1.433 . S
C1168 H1164 0.929 . S
C1168 C1170 1.378 . S
C1168 C1172 1.350 . S
C1169 C1172 1.463 . S
C1169 C1174 1.350 . S
C1169 N1177 1.427 . S
C1170 H1161 0.930 . S
C1170 C1168 1.378 . S
C1170 C1171 1.367 . S
C1171 C1170 1.367 . S
C1171 C1173 1.433 . S
C1172 C1168 1.350 . S
C1172 C1169 1.463 . S
C1172 N1176 1.427 . S
C1173 H1163 0.929 1_455 S
C1173 C1171 1.433 . S
C1173 N1176 1.384 . S
C1174 H1165 0.929 1_455 S
C1174 C1166 1.384 . S
C1174 C1169 1.350 . S
C1175 H1162 0.929 . S
C1175 C1167 1.433 . S
C1175 N1177 1.384 . S
N1176 C1172 1.427 . S
N1176 C1173 1.384 . S
N1177 C1169 1.427 . S
N1177 C1175 1.384 . S
H1178 C1184 0.930 . S
H1179 C1188 0.930 . S
H1180 C1193 0.929 . S
H1181 C1191 0.929 . S
H1182 C1186 0.929 . S
H1183 C1192 0.929 . S
C1184 H1178 0.930 . S
C1184 C1185 1.367 . S
C1184 C1192 1.378 . S
C1185 C1184 1.367 . S
C1185 C1193 1.433 . S
C1186 H1182 0.929 . S
C1186 C1188 1.378 . S
C1186 C1190 1.350 . S
C1187 C1190 1.463 . S
C1187 C1192 1.350 . S
C1187 N1195 1.427 . S
C1188 H1179 0.930 . S
C1188 C1186 1.378 . S
C1188 C1189 1.367 . S
C1189 C1188 1.367 . S
C1189 C1191 1.433 . S
C1190 C1186 1.350 . S
C1190 C1187 1.463 . S
C1190 N1194 1.427 . S
C1191 H1181 0.929 . S
C1191 C1189 1.433 . S
C1191 N1194 1.384 . S
C1192 H1183 0.929 . S
C1192 C1184 1.378 . S
C1192 C1187 1.350 . S
C1193 H1180 0.929 . S
C1193 C1185 1.433 . S
C1193 N1195 1.384 . S
N1194 C1190 1.427 . S
N1194 C1191 1.384 . S
N1195 C1187 1.427 . S
N1195 C1193 1.384 . S
H1196 C1202 0.930 . S
H1197 C1206 0.930 . S
H1198 C1211 0.929 . S
H1199 C1209 0.929 1_554 S
H1200 C1204 0.929 . S
H1201 C1210 0.929 . S
C1202 H1196 0.930 . S
C1202 C1203 1.367 . S
C1202 C1210 1.378 . S
C1203 C1202 1.367 . S
C1203 C1211 1.433 . S
C1204 H1200 0.929 . S
C1204 C1206 1.378 . S
C1204 C1208 1.350 . S
C1205 C1208 1.463 . S
C1205 C1210 1.350 . S
C1205 N1213 1.427 . S
C1206 H1197 0.930 . S
C1206 C1204 1.378 . S
C1206 C1207 1.367 . S
C1207 C1206 1.367 . S
C1207 C1209 1.433 . S
C1208 C1204 1.350 . S
C1208 C1205 1.463 . S
C1208 N1212 1.427 . S
C1209 H1199 0.929 1_556 S
C1209 C1207 1.433 . S
C1209 N1212 1.384 . S
C1210 H1201 0.929 . S
C1210 C1202 1.378 . S
C1210 C1205 1.350 . S
C1211 H1198 0.929 . S
C1211 C1203 1.433 . S
C1211 N1213 1.384 . S
N1212 C1208 1.427 . S
N1212 C1209 1.384 . S
N1213 C1205 1.427 . S
N1213 C1211 1.384 . S
H1214 C1220 0.930 . S
H1215 C1224 0.930 . S
H1216 C1229 0.929 . S
H1217 C1227 0.929 . S
H1218 C1222 0.929 . S
H1219 C1228 0.929 . S
C1220 H1214 0.930 . S
C1220 C1221 1.367 . S
C1220 C1228 1.378 . S
C1221 C1220 1.367 . S
C1221 C1229 1.433 . S
C1222 H1218 0.929 . S
C1222 C1224 1.378 . S
C1222 C1226 1.350 . S
C1223 C1226 1.463 . S
C1223 C1228 1.350 . S
C1223 N1231 1.427 . S
C1224 H1215 0.930 . S
C1224 C1222 1.378 . S
C1224 C1225 1.367 . S
C1225 C1224 1.367 . S
C1225 C1227 1.433 . S
C1226 C1222 1.350 . S
C1226 C1223 1.463 . S
C1226 N1230 1.427 . S
C1227 H1217 0.929 . S
C1227 C1225 1.433 . S
C1227 N1230 1.384 . S
C1228 H1219 0.929 . S
C1228 C1220 1.378 . S
C1228 C1223 1.350 . S
C1229 H1216 0.929 . S
C1229 C1221 1.433 . S
C1229 N1231 1.384 . S
N1230 C1226 1.427 . S
N1230 C1227 1.384 . S
N1231 C1223 1.427 . S
N1231 C1229 1.384 . S
H1232 C1238 0.930 . S
H1233 C1242 0.930 1_565 S
H1234 C1247 0.929 . S
H1235 C1245 0.929 . S
H1236 C1240 0.929 . S
H1237 C1246 0.929 . S
C1238 H1232 0.930 . S
C1238 C1239 1.367 . S
C1238 C1246 1.378 . S
C1239 C1238 1.367 . S
C1239 C1247 1.433 1_545 S
C1240 H1236 0.929 . S
C1240 C1242 1.378 1_565 S
C1240 C1244 1.350 1_565 S
C1241 C1244 1.463 . S
C1241 C1246 1.350 . S
C1241 N1249 1.427 1_545 S
C1242 H1233 0.930 1_545 S
C1242 C1240 1.378 1_545 S
C1242 C1243 1.367 . S
C1243 C1242 1.367 . S
C1243 C1245 1.433 . S
C1244 C1240 1.350 1_545 S
C1244 C1241 1.463 . S
C1244 N1248 1.427 . S
C1245 H1235 0.929 . S
C1245 C1243 1.433 . S
C1245 N1248 1.384 . S
C1246 H1237 0.929 . S
C1246 C1238 1.378 . S
C1246 C1241 1.350 . S
C1247 H1234 0.929 . S
C1247 C1239 1.433 1_565 S
C1247 N1249 1.384 . S
N1248 C1244 1.427 . S
N1248 C1245 1.384 . S
N1249 C1241 1.427 1_565 S
N1249 C1247 1.384 . S
H1250 C1256 0.930 . S
H1251 C1260 0.930 . S
H1252 C1265 0.929 . S
H1253 C1263 0.929 . S
H1254 C1258 0.929 . S
H1255 C1264 0.929 . S
C1256 H1250 0.930 . S
C1256 C1257 1.367 . S
C1256 C1264 1.378 . S
C1257 C1256 1.367 . S
C1257 C1265 1.433 . S
C1258 H1254 0.929 . S
C1258 C1260 1.378 . S
C1258 C1262 1.350 . S
C1259 C1262 1.463 . S
C1259 C1264 1.350 . S
C1259 N1267 1.427 . S
C1260 H1251 0.930 . S
C1260 C1258 1.378 . S
C1260 C1261 1.367 . S
C1261 C1260 1.367 . S
C1261 C1263 1.433 . S
C1262 C1258 1.350 . S
C1262 C1259 1.463 . S
C1262 N1266 1.427 . S
C1263 H1253 0.929 . S
C1263 C1261 1.433 . S
C1263 N1266 1.384 . S
C1264 H1255 0.929 . S
C1264 C1256 1.378 . S
C1264 C1259 1.350 . S
C1265 H1252 0.929 . S
C1265 C1257 1.433 . S
C1265 N1267 1.384 . S
N1266 C1262 1.427 . S
N1266 C1263 1.384 . S
N1267 C1259 1.427 . S
N1267 C1265 1.384 . S
H1268 C1274 0.930 . S
H1269 C1278 0.930 . S
H1270 C1283 0.929 . S
H1271 C1281 0.929 . S
H1272 C1276 0.929 . S
H1273 C1282 0.929 . S
C1274 H1268 0.930 . S
C1274 C1275 1.367 . S
C1274 C1282 1.378 . S
C1275 C1274 1.367 . S
C1275 C1283 1.433 . S
C1276 H1272 0.929 . S
C1276 C1278 1.378 . S
C1276 C1280 1.350 . S
C1277 C1280 1.463 . S
C1277 C1282 1.350 . S
C1277 N1285 1.427 . S
C1278 H1269 0.930 . S
C1278 C1276 1.378 . S
C1278 C1279 1.367 . S
C1279 C1278 1.367 . S
C1279 C1281 1.433 . S
C1280 C1276 1.350 . S
C1280 C1277 1.463 . S
C1280 N1284 1.427 . S
C1281 H1271 0.929 . S
C1281 C1279 1.433 . S
C1281 N1284 1.384 . S
C1282 H1273 0.929 . S
C1282 C1274 1.378 . S
C1282 C1277 1.350 . S
C1283 H1270 0.929 . S
C1283 C1275 1.433 . S
C1283 N1285 1.384 . S
N1284 C1280 1.427 . S
N1284 C1281 1.384 . S
N1285 C1277 1.427 . S
N1285 C1283 1.384 . S
H1286 C1292 0.930 . S
H1287 C1296 0.930 . S
H1288 C1301 0.929 . S
H1289 C1299 0.929 . S
H1290 C1294 0.929 . S
H1291 C1300 0.929 . S
C1292 H1286 0.930 . S
C1292 C1293 1.367 . S
C1292 C1300 1.378 . S
C1293 C1292 1.367 . S
C1293 C1301 1.433 . S
C1294 H1290 0.929 . S
C1294 C1296 1.378 . S
C1294 C1298 1.350 . S
C1295 C1298 1.463 . S
C1295 C1300 1.350 . S
C1295 N1303 1.427 . S
C1296 H1287 0.930 . S
C1296 C1294 1.378 . S
C1296 C1297 1.367 . S
C1297 C1296 1.367 . S
C1297 C1299 1.433 . S
C1298 C1294 1.350 . S
C1298 C1295 1.463 . S
C1298 N1302 1.427 . S
C1299 H1289 0.929 . S
C1299 C1297 1.433 . S
C1299 N1302 1.384 . S
C1300 H1291 0.929 . S
C1300 C1292 1.378 . S
C1300 C1295 1.350 . S
C1301 H1288 0.929 . S
C1301 C1293 1.433 . S
C1301 N1303 1.384 . S
N1302 C1298 1.427 . S
N1302 C1299 1.384 . S
N1303 C1295 1.427 . S
N1303 C1301 1.384 . S
H1304 C1310 0.930 . S
H1305 C1314 0.930 . S
H1306 C1319 0.929 . S
H1307 C1317 0.929 . S
H1308 C1312 0.929 1_565 S
H1309 C1318 0.929 . S
C1310 H1304 0.930 . S
C1310 C1311 1.367 . S
C1310 C1318 1.378 . S
C1311 C1310 1.367 . S
C1311 C1319 1.433 1_545 S
C1312 H1308 0.929 1_545 S
C1312 C1314 1.378 . S
C1312 C1316 1.350 . S
C1313 C1316 1.463 . S
C1313 C1318 1.350 . S
C1313 N1321 1.427 1_545 S
C1314 H1305 0.930 . S
C1314 C1312 1.378 . S
C1314 C1315 1.367 . S
C1315 C1314 1.367 . S
C1315 C1317 1.433 . S
C1316 C1312 1.350 . S
C1316 C1313 1.463 . S
C1316 N1320 1.427 . S
C1317 H1307 0.929 . S
C1317 C1315 1.433 . S
C1317 N1320 1.384 . S
C1318 H1309 0.929 . S
C1318 C1310 1.378 . S
C1318 C1313 1.350 . S
C1319 H1306 0.929 . S
C1319 C1311 1.433 1_565 S
C1319 N1321 1.384 . S
N1320 C1316 1.427 . S
N1320 C1317 1.384 . S
N1321 C1313 1.427 1_565 S
N1321 C1319 1.384 . S
H1322 C1328 0.930 . S
H1323 C1332 0.930 . S
H1324 C1337 0.929 . S
H1325 C1335 0.929 . S
H1326 C1330 0.929 . S
H1327 C1336 0.929 . S
C1328 H1322 0.930 . S
C1328 C1329 1.367 . S
C1328 C1336 1.378 . S
C1329 C1328 1.367 . S
C1329 C1337 1.433 . S
C1330 H1326 0.929 . S
C1330 C1332 1.378 . S
C1330 C1334 1.350 . S
C1331 C1334 1.463 . S
C1331 C1336 1.350 . S
C1331 N1339 1.427 . S
C1332 H1323 0.930 . S
C1332 C1330 1.378 . S
C1332 C1333 1.367 . S
C1333 C1332 1.367 . S
C1333 C1335 1.433 . S
C1334 C1330 1.350 . S
C1334 C1331 1.463 . S
C1334 N1338 1.427 . S
C1335 H1325 0.929 . S
C1335 C1333 1.433 . S
C1335 N1338 1.384 . S
C1336 H1327 0.929 . S
C1336 C1328 1.378 . S
C1336 C1331 1.350 . S
C1337 H1324 0.929 . S
C1337 C1329 1.433 . S
C1337 N1339 1.384 . S
N1338 C1334 1.427 . S
N1338 C1335 1.384 . S
N1339 C1331 1.427 . S
N1339 C1337 1.384 . S
H1340 C1346 0.930 . S
H1341 C1350 0.930 . S
H1342 C1355 0.929 . S
H1343 C1353 0.929 . S
H1344 C1348 0.929 . S
H1345 C1354 0.929 . S
C1346 H1340 0.930 . S
C1346 C1347 1.367 . S
C1346 C1354 1.378 . S
C1347 C1346 1.367 . S
C1347 C1355 1.433 . S
C1348 H1344 0.929 . S
C1348 C1350 1.378 . S
C1348 C1352 1.350 . S
C1349 C1352 1.463 . S
C1349 C1354 1.350 . S
C1349 N1357 1.427 . S
C1350 H1341 0.930 . S
C1350 C1348 1.378 . S
C1350 C1351 1.367 . S
C1351 C1350 1.367 . S
C1351 C1353 1.433 . S
C1352 C1348 1.350 . S
C1352 C1349 1.463 . S
C1352 N1356 1.427 . S
C1353 H1343 0.929 . S
C1353 C1351 1.433 . S
C1353 N1356 1.384 . S
C1354 H1345 0.929 . S
C1354 C1346 1.378 . S
C1354 C1349 1.350 . S
C1355 H1342 0.929 . S
C1355 C1347 1.433 . S
C1355 N1357 1.384 . S
N1356 C1352 1.427 . S
N1356 C1353 1.384 . S
N1357 C1349 1.427 . S
N1357 C1355 1.384 . S
H1358 C1364 0.930 . S
H1359 C1368 0.930 . S
H1360 C1373 0.929 . S
H1361 C1371 0.929 . S
H1362 C1366 0.929 . S
H1363 C1372 0.929 . S
C1364 H1358 0.930 . S
C1364 C1365 1.367 . S
C1364 C1372 1.378 . S
C1365 C1364 1.367 . S
C1365 C1373 1.433 . S
C1366 H1362 0.929 . S
C1366 C1368 1.378 . S
C1366 C1370 1.350 . S
C1367 C1370 1.463 . S
C1367 C1372 1.350 . S
C1367 N1375 1.427 . S
C1368 H1359 0.930 . S
C1368 C1366 1.378 . S
C1368 C1369 1.367 . S
C1369 C1368 1.367 . S
C1369 C1371 1.433 . S
C1370 C1366 1.350 . S
C1370 C1367 1.463 . S
C1370 N1374 1.427 . S
C1371 H1361 0.929 . S
C1371 C1369 1.433 . S
C1371 N1374 1.384 . S
C1372 H1363 0.929 . S
C1372 C1364 1.378 . S
C1372 C1367 1.350 . S
C1373 H1360 0.929 . S
C1373 C1365 1.433 . S
C1373 N1375 1.384 . S
N1374 C1370 1.427 . S
N1374 C1371 1.384 . S
N1375 C1367 1.427 . S
N1375 C1373 1.384 . S
H1376 C1382 0.930 . S
H1377 C1386 0.930 . S
H1378 C1391 0.929 . S
H1379 C1389 0.929 . S
H1380 C1384 0.929 . S
H1381 C1390 0.929 . S
C1382 H1376 0.930 . S
C1382 C1383 1.367 1_556 S
C1382 C1390 1.378 . S
C1383 C1382 1.367 1_554 S
C1383 C1391 1.433 . S
C1384 H1380 0.929 . S
C1384 C1386 1.378 . S
C1384 C1388 1.350 . S
C1385 C1388 1.463 . S
C1385 C1390 1.350 1_554 S
C1385 N1393 1.427 . S
C1386 H1377 0.930 . S
C1386 C1384 1.378 . S
C1386 C1387 1.367 . S
C1387 C1386 1.367 . S
C1387 C1389 1.433 1_554 S
C1388 C1384 1.350 . S
C1388 C1385 1.463 . S
C1388 N1392 1.427 1_554 S
C1389 H1379 0.929 . S
C1389 C1387 1.433 1_556 S
C1389 N1392 1.384 . S
C1390 H1381 0.929 . S
C1390 C1382 1.378 . S
C1390 C1385 1.350 1_556 S
C1391 H1378 0.929 . S
C1391 C1383 1.433 . S
C1391 N1393 1.384 . S
N1392 C1388 1.427 1_556 S
N1392 C1389 1.384 . S
N1393 C1385 1.427 . S
N1393 C1391 1.384 . S
H1394 C1400 0.930 . S
H1395 C1404 0.930 . S
H1396 C1409 0.929 . S
H1397 C1407 0.929 1_556 S
H1398 C1402 0.929 . S
H1399 C1408 0.925 . S
C1400 H1394 0.930 . S
C1400 C1401 1.367 . S
C1400 C1408 1.378 . S
C1401 C1400 1.367 . S
C1401 C1409 1.433 . S
C1402 H1398 0.929 . S
C1402 C1404 1.378 . S
C1402 C1406 1.350 . S
C1403 C1406 1.463 . S
C1403 C1408 1.350 . S
C1403 N1411 1.427 . S
C1404 H1395 0.930 . S
C1404 C1402 1.378 . S
C1404 C1405 1.367 . S
C1405 C1404 1.367 . S
C1405 C1407 1.433 . S
C1406 C1402 1.350 . S
C1406 C1403 1.463 . S
C1406 N1410 1.427 . S
C1407 H1397 0.929 1_554 S
C1407 C1405 1.433 . S
C1407 N1410 1.384 . S
C1408 H1399 0.925 . S
C1408 C1400 1.378 . S
C1408 C1403 1.350 . S
C1409 H1396 0.929 . S
C1409 C1401 1.433 . S
C1409 N1411 1.384 . S
N1410 C1406 1.427 . S
N1410 C1407 1.384 . S
N1411 C1403 1.427 . S
N1411 C1409 1.384 . S
H1412 C1418 0.930 . S
H1413 C1422 0.930 . S
H1414 C1427 0.929 . S
H1415 C1425 0.929 . S
H1416 C1420 0.929 . S
H1417 C1426 0.929 . S
C1418 H1412 0.930 . S
C1418 C1419 1.367 . S
C1418 C1426 1.378 . S
C1419 C1418 1.367 . S
C1419 C1427 1.433 . S
C1420 H1416 0.929 . S
C1420 C1422 1.378 . S
C1420 C1424 1.350 . S
C1421 C1424 1.463 . S
C1421 C1426 1.350 . S
C1421 N1429 1.427 . S
C1422 H1413 0.930 . S
C1422 C1420 1.378 . S
C1422 C1423 1.367 . S
C1423 C1422 1.367 . S
C1423 C1425 1.433 . S
C1424 C1420 1.350 . S
C1424 C1421 1.463 . S
C1424 N1428 1.427 . S
C1425 H1415 0.929 . S
C1425 C1423 1.433 . S
C1425 N1428 1.384 . S
C1426 H1417 0.929 . S
C1426 C1418 1.378 . S
C1426 C1421 1.350 . S
C1427 H1414 0.929 . S
C1427 C1419 1.433 . S
C1427 N1429 1.384 . S
N1428 C1424 1.427 . S
N1428 C1425 1.384 . S
N1429 C1421 1.427 . S
N1429 C1427 1.384 . S
H1430 C1436 0.930 . S
H1431 C1440 0.930 . S
H1432 C1445 0.929 . S
H1433 C1443 0.929 . S
H1434 C1438 0.929 . S
H1435 C1444 0.929 . S
C1436 H1430 0.930 . S
C1436 C1437 1.367 . S
C1436 C1444 1.378 . S
C1437 C1436 1.367 . S
C1437 C1445 1.433 . S
C1438 H1434 0.929 . S
C1438 C1440 1.378 . S
C1438 C1442 1.350 . S
C1439 C1442 1.463 . S
C1439 C1444 1.350 . S
C1439 N1447 1.427 . S
C1440 H1431 0.930 . S
C1440 C1438 1.378 . S
C1440 C1441 1.367 . S
C1441 C1440 1.367 . S
C1441 C1443 1.433 . S
C1442 C1438 1.350 . S
C1442 C1439 1.463 . S
C1442 N1446 1.427 . S
C1443 H1433 0.929 . S
C1443 C1441 1.433 . S
C1443 N1446 1.384 . S
C1444 H1435 0.929 . S
C1444 C1436 1.378 . S
C1444 C1439 1.350 . S
C1445 H1432 0.929 . S
C1445 C1437 1.433 . S
C1445 N1447 1.384 . S
N1446 C1442 1.427 . S
N1446 C1443 1.384 . S
N1447 C1439 1.427 . S
N1447 C1445 1.384 . S
H1448 C1454 0.930 . S
H1449 C1458 0.930 . S
H1450 C1463 0.929 . S
H1451 C1461 0.929 . S
H1452 C1456 0.929 . S
H1453 C1462 0.929 . S
C1454 H1448 0.930 . S
C1454 C1455 1.367 . S
C1454 C1462 1.378 . S
C1455 C1454 1.367 . S
C1455 C1463 1.433 . S
C1456 H1452 0.929 . S
C1456 C1458 1.378 . S
C1456 C1460 1.350 . S
C1457 C1460 1.463 . S
C1457 C1462 1.350 . S
C1457 N1465 1.427 . S
C1458 H1449 0.930 . S
C1458 C1456 1.378 . S
C1458 C1459 1.367 . S
C1459 C1458 1.367 . S
C1459 C1461 1.433 . S
C1460 C1456 1.350 . S
C1460 C1457 1.463 . S
C1460 N1464 1.427 . S
C1461 H1451 0.929 . S
C1461 C1459 1.433 . S
C1461 N1464 1.384 . S
C1462 H1453 0.929 . S
C1462 C1454 1.378 . S
C1462 C1457 1.350 . S
C1463 H1450 0.929 . S
C1463 C1455 1.433 . S
C1463 N1465 1.384 . S
N1464 C1460 1.427 . S
N1464 C1461 1.384 . S
N1465 C1457 1.427 . S
N1465 C1463 1.384 . S
H1466 C1472 0.930 . S
H1467 C1476 0.930 1_545 S
H1468 C1481 0.929 . S
H1469 C1479 0.929 . S
H1470 C1474 0.929 . S
H1471 C1480 0.929 . S
C1472 H1466 0.930 . S
C1472 C1473 1.367 . S
C1472 C1480 1.378 . S
C1473 C1472 1.367 . S
C1473 C1481 1.433 . S
C1474 H1470 0.929 . S
C1474 C1476 1.378 . S
C1474 C1478 1.350 . S
C1475 C1478 1.463 . S
C1475 C1480 1.350 . S
C1475 N1483 1.427 . S
C1476 H1467 0.930 1_565 S
C1476 C1474 1.378 . S
C1476 C1477 1.367 . S
C1477 C1476 1.367 . S
C1477 C1479 1.433 . S
C1478 C1474 1.350 . S
C1478 C1475 1.463 . S
C1478 N1482 1.427 . S
C1479 H1469 0.929 . S
C1479 C1477 1.433 . S
C1479 N1482 1.384 . S
C1480 H1471 0.929 . S
C1480 C1472 1.378 . S
C1480 C1475 1.350 . S
C1481 H1468 0.929 . S
C1481 C1473 1.433 . S
C1481 N1483 1.384 . S
N1482 C1478 1.427 . S
N1482 C1479 1.384 . S
N1483 C1475 1.427 . S
N1483 C1481 1.384 . S
H1484 C1490 0.930 . S
H1485 C1494 0.930 . S
H1486 C1499 0.929 . S
H1487 C1497 0.929 . S
H1488 C1492 0.929 . S
H1489 C1498 0.929 . S
C1490 H1484 0.930 . S
C1490 C1491 1.367 . S
C1490 C1498 1.378 . S
C1491 C1490 1.367 . S
C1491 C1499 1.433 . S
C1492 H1488 0.929 . S
C1492 C1494 1.378 . S
C1492 C1496 1.350 . S
C1493 C1496 1.463 . S
C1493 C1498 1.350 . S
C1493 N1501 1.427 . S
C1494 H1485 0.930 . S
C1494 C1492 1.378 . S
C1494 C1495 1.367 . S
C1495 C1494 1.367 . S
C1495 C1497 1.433 . S
C1496 C1492 1.350 . S
C1496 C1493 1.463 . S
C1496 N1500 1.427 . S
C1497 H1487 0.929 . S
C1497 C1495 1.433 . S
C1497 N1500 1.384 . S
C1498 H1489 0.929 . S
C1498 C1490 1.378 . S
C1498 C1493 1.350 . S
C1499 H1486 0.929 . S
C1499 C1491 1.433 . S
C1499 N1501 1.384 . S
N1500 C1496 1.427 . S
N1500 C1497 1.384 . S
N1501 C1493 1.427 . S
N1501 C1499 1.384 . S
H1502 C1508 0.930 . S
H1503 C1512 0.930 . S
H1504 C1517 0.929 . S
H1505 C1515 0.929 . S
H1506 C1510 0.929 . S
H1507 C1516 0.929 . S
C1508 H1502 0.930 . S
C1508 C1509 1.367 . S
C1508 C1516 1.378 . S
C1509 C1508 1.367 . S
C1509 C1517 1.433 . S
C1510 H1506 0.929 . S
C1510 C1512 1.378 . S
C1510 C1514 1.350 . S
C1511 C1514 1.463 . S
C1511 C1516 1.350 . S
C1511 N1519 1.427 . S
C1512 H1503 0.930 . S
C1512 C1510 1.378 . S
C1512 C1513 1.367 . S
C1513 C1512 1.367 . S
C1513 C1515 1.433 . S
C1514 C1510 1.350 . S
C1514 C1511 1.463 . S
C1514 N1518 1.427 . S
C1515 H1505 0.929 . S
C1515 C1513 1.433 . S
C1515 N1518 1.384 . S
C1516 H1507 0.929 . S
C1516 C1508 1.378 . S
C1516 C1511 1.350 . S
C1517 H1504 0.929 . S
C1517 C1509 1.433 . S
C1517 N1519 1.384 . S
N1518 C1514 1.427 . S
N1518 C1515 1.384 . S
N1519 C1511 1.427 . S
N1519 C1517 1.384 . S
H1520 C1526 0.930 . S
H1521 C1530 0.930 . S
H1522 C1535 0.929 . S
H1523 C1533 0.929 . S
H1524 C1528 0.929 . S
H1525 C1534 0.929 . S
C1526 H1520 0.930 . S
C1526 C1527 1.367 . S
C1526 C1534 1.378 . S
C1527 C1526 1.367 . S
C1527 C1535 1.433 . S
C1528 H1524 0.929 . S
C1528 C1530 1.378 . S
C1528 C1532 1.350 . S
C1529 C1532 1.463 . S
C1529 C1534 1.350 . S
C1529 N1537 1.427 . S
C1530 H1521 0.930 . S
C1530 C1528 1.378 . S
C1530 C1531 1.367 . S
C1531 C1530 1.367 . S
C1531 C1533 1.433 . S
C1532 C1528 1.350 . S
C1532 C1529 1.463 . S
C1532 N1536 1.427 . S
C1533 H1523 0.929 . S
C1533 C1531 1.433 . S
C1533 N1536 1.384 . S
C1534 H1525 0.929 . S
C1534 C1526 1.378 . S
C1534 C1529 1.350 . S
C1535 H1522 0.929 . S
C1535 C1527 1.433 . S
C1535 N1537 1.384 . S
N1536 C1532 1.427 . S
N1536 C1533 1.384 . S
N1537 C1529 1.427 . S
N1537 C1535 1.384 . S
H1538 C1544 0.930 . S
H1539 C1548 0.930 . S
H1540 C1553 0.929 . S
H1541 C1551 0.929 . S
H1542 C1546 0.929 . S
H1543 C1552 0.929 . S
C1544 H1538 0.930 . S
C1544 C1545 1.367 . S
C1544 C1552 1.378 . S
C1545 C1544 1.367 . S
C1545 C1553 1.433 . S
C1546 H1542 0.929 . S
C1546 C1548 1.378 . S
C1546 C1550 1.350 . S
C1547 C1550 1.463 . S
C1547 C1552 1.350 . S
C1547 N1555 1.427 . S
C1548 H1539 0.930 . S
C1548 C1546 1.378 . S
C1548 C1549 1.367 . S
C1549 C1548 1.367 . S
C1549 C1551 1.433 . S
C1550 C1546 1.350 . S
C1550 C1547 1.463 . S
C1550 N1554 1.427 . S
C1551 H1541 0.929 . S
C1551 C1549 1.433 . S
C1551 N1554 1.384 . S
C1552 H1543 0.929 . S
C1552 C1544 1.378 . S
C1552 C1547 1.350 . S
C1553 H1540 0.929 . S
C1553 C1545 1.433 . S
C1553 N1555 1.384 . S
N1554 C1550 1.427 . S
N1554 C1551 1.384 . S
N1555 C1547 1.427 . S
N1555 C1553 1.384 . S
H1556 C1562 0.930 . S
H1557 C1566 0.930 . S
H1558 C1571 0.914 1_655 S
H1559 C1569 0.929 . S
H1560 C1564 0.929 . S
H1561 C1570 0.929 . S
C1562 H1556 0.930 . S
C1562 C1563 1.367 . S
C1562 C1570 1.378 . S
C1563 C1562 1.367 . S
C1563 C1571 1.461 . S
C1564 H1560 0.929 . S
C1564 C1566 1.378 . S
C1564 C1568 1.350 1_655 S
C1565 C1568 1.463 . S
C1565 C1570 1.350 . S
C1565 N1573 1.423 1_455 S
C1566 H1557 0.930 . S
C1566 C1564 1.378 . S
C1566 C1567 1.367 1_656 S
C1567 C1566 1.367 1_454 S
C1567 C1569 1.433 . S
C1568 C1564 1.350 1_455 S
C1568 C1565 1.463 . S
C1568 N1572 1.427 . S
C1569 H1559 0.929 . S
C1569 C1567 1.433 . S
C1569 N1572 1.384 1_554 S
C1570 H1561 0.929 . S
C1570 C1562 1.378 . S
C1570 C1565 1.350 . S
C1571 H1558 0.914 1_455 S
C1571 C1563 1.461 . S
C1571 N1573 1.370 1_455 S
N1572 C1568 1.427 . S
N1572 C1569 1.384 1_556 S
N1573 C1565 1.423 1_655 S
N1573 C1571 1.370 1_655 S
H1574 C1580 0.930 . S
H1575 C1584 0.930 . S
H1576 C1589 0.929 . S
H1577 C1587 0.929 . S
H1578 C1582 0.929 . S
H1579 C1588 0.929 . S
C1580 H1574 0.930 . S
C1580 C1581 1.367 . S
C1580 C1588 1.378 . S
C1581 C1580 1.367 . S
C1581 C1589 1.433 . S
C1582 H1578 0.929 . S
C1582 C1584 1.378 . S
C1582 C1586 1.350 . S
C1583 C1586 1.463 . S
C1583 C1588 1.350 . S
C1583 N1591 1.427 . S
C1584 H1575 0.930 . S
C1584 C1582 1.378 . S
C1584 C1585 1.367 . S
C1585 C1584 1.367 . S
C1585 C1587 1.433 . S
C1586 C1582 1.350 . S
C1586 C1583 1.463 . S
C1586 N1590 1.427 . S
C1587 H1577 0.929 . S
C1587 C1585 1.433 . S
C1587 N1590 1.384 . S
C1588 H1579 0.929 . S
C1588 C1580 1.378 . S
C1588 C1583 1.350 . S
C1589 H1576 0.929 . S
C1589 C1581 1.433 . S
C1589 N1591 1.384 . S
N1590 C1586 1.427 . S
N1590 C1587 1.384 . S
N1591 C1583 1.427 . S
N1591 C1589 1.384 . S
H1592 C1598 0.930 . S
H1593 C1602 0.930 . S
H1594 C1607 0.929 . S
H1595 C1605 0.929 . S
H1596 C1600 0.929 . S
H1597 C1606 0.929 . S
C1598 H1592 0.930 . S
C1598 C1599 1.367 . S
C1598 C1606 1.378 . S
C1599 C1598 1.367 . S
C1599 C1607 1.433 . S
C1600 H1596 0.929 . S
C1600 C1602 1.378 . S
C1600 C1604 1.350 . S
C1601 C1604 1.463 . S
C1601 C1606 1.350 . S
C1601 N1609 1.427 . S
C1602 H1593 0.930 . S
C1602 C1600 1.378 . S
C1602 C1603 1.367 . S
C1603 C1602 1.367 . S
C1603 C1605 1.433 . S
C1604 C1600 1.350 . S
C1604 C1601 1.463 . S
C1604 N1608 1.427 . S
C1605 H1595 0.929 . S
C1605 C1603 1.433 . S
C1605 N1608 1.384 . S
C1606 H1597 0.929 . S
C1606 C1598 1.378 . S
C1606 C1601 1.350 . S
C1607 H1594 0.929 . S
C1607 C1599 1.433 . S
C1607 N1609 1.384 . S
N1608 C1604 1.427 . S
N1608 C1605 1.384 . S
N1609 C1601 1.427 . S
N1609 C1607 1.384 . S
H1610 C1616 0.930 . S
H1611 C1620 0.930 . S
H1612 C1625 0.929 . S
H1613 C1623 0.929 . S
H1614 C1618 0.929 . S
H1615 C1624 0.929 . S
C1616 H1610 0.930 . S
C1616 C1617 1.367 . S
C1616 C1624 1.378 . S
C1617 C1616 1.367 . S
C1617 C1625 1.433 . S
C1618 H1614 0.929 . S
C1618 C1620 1.378 . S
C1618 C1622 1.350 . S
C1619 C1622 1.463 . S
C1619 C1624 1.350 . S
C1619 N1627 1.427 . S
C1620 H1611 0.930 . S
C1620 C1618 1.378 . S
C1620 C1621 1.367 . S
C1621 C1620 1.367 . S
C1621 C1623 1.433 . S
C1622 C1618 1.350 . S
C1622 C1619 1.463 . S
C1622 N1626 1.427 . S
C1623 H1613 0.929 . S
C1623 C1621 1.433 . S
C1623 N1626 1.384 . S
C1624 H1615 0.929 . S
C1624 C1616 1.378 . S
C1624 C1619 1.350 . S
C1625 H1612 0.929 . S
C1625 C1617 1.433 . S
C1625 N1627 1.384 . S
N1626 C1622 1.427 . S
N1626 C1623 1.384 . S
N1627 C1619 1.427 . S
N1627 C1625 1.384 . S
H1628 C1634 0.930 . S
H1629 C1638 0.930 . S
H1630 C1643 0.929 . S
H1631 C1641 0.929 . S
H1632 C1636 0.929 . S
H1633 C1642 0.929 . S
C1634 H1628 0.930 . S
C1634 C1635 1.367 . S
C1634 C1642 1.378 . S
C1635 C1634 1.367 . S
C1635 C1643 1.433 1_655 S
C1636 H1632 0.929 . S
C1636 C1638 1.378 . S
C1636 C1640 1.350 1_455 S
C1637 C1640 1.463 . S
C1637 C1642 1.350 . S
C1637 N1645 1.427 1_655 S
C1638 H1629 0.930 . S
C1638 C1636 1.378 . S
C1638 C1639 1.367 . S
C1639 C1638 1.367 . S
C1639 C1641 1.433 1_455 S
C1640 C1636 1.350 1_655 S
C1640 C1637 1.463 . S
C1640 N1644 1.427 . S
C1641 H1631 0.929 . S
C1641 C1639 1.433 1_655 S
C1641 N1644 1.384 . S
C1642 H1633 0.929 . S
C1642 C1634 1.378 . S
C1642 C1637 1.350 . S
C1643 H1630 0.929 . S
C1643 C1635 1.433 1_455 S
C1643 N1645 1.384 . S
N1644 C1640 1.427 . S
N1644 C1641 1.384 . S
N1645 C1637 1.427 1_455 S
N1645 C1643 1.384 . S
H1646 C1652 0.930 . S
H1647 C1656 0.930 . S
H1648 C1661 0.929 . S
H1649 C1659 0.929 . S
H1650 C1654 0.929 . S
H1651 C1660 0.929 . S
C1652 H1646 0.930 . S
C1652 C1653 1.367 . S
C1652 C1660 1.378 . S
C1653 C1652 1.367 . S
C1653 C1661 1.433 . S
C1654 H1650 0.929 . S
C1654 C1656 1.378 . S
C1654 C1658 1.350 . S
C1655 C1658 1.463 . S
C1655 C1660 1.350 . S
C1655 N1663 1.427 . S
C1656 H1647 0.930 . S
C1656 C1654 1.378 . S
C1656 C1657 1.367 . S
C1657 C1656 1.367 . S
C1657 C1659 1.433 . S
C1658 C1654 1.350 . S
C1658 C1655 1.463 . S
C1658 N1662 1.427 . S
C1659 H1649 0.929 . S
C1659 C1657 1.433 . S
C1659 N1662 1.384 . S
C1660 H1651 0.929 . S
C1660 C1652 1.378 . S
C1660 C1655 1.350 . S
C1661 H1648 0.929 . S
C1661 C1653 1.433 . S
C1661 N1663 1.384 . S
N1662 C1658 1.427 . S
N1662 C1659 1.384 . S
N1663 C1655 1.427 . S
N1663 C1661 1.384 . S
H1664 C1670 0.930 . S
H1665 C1674 0.930 . S
H1666 C1679 0.929 . S
H1667 C1677 0.929 . S
H1668 C1672 0.929 . S
H1669 C1678 0.929 . S
C1670 H1664 0.930 . S
C1670 C1671 1.367 . S
C1670 C1678 1.378 . S
C1671 C1670 1.367 . S
C1671 C1679 1.433 . S
C1672 H1668 0.929 . S
C1672 C1674 1.378 . S
C1672 C1676 1.350 . S
C1673 C1676 1.463 . S
C1673 C1678 1.350 . S
C1673 N1681 1.427 . S
C1674 H1665 0.930 . S
C1674 C1672 1.378 . S
C1674 C1675 1.367 . S
C1675 C1674 1.367 . S
C1675 C1677 1.433 . S
C1676 C1672 1.350 . S
C1676 C1673 1.463 . S
C1676 N1680 1.427 . S
C1677 H1667 0.929 . S
C1677 C1675 1.433 . S
C1677 N1680 1.384 . S
C1678 H1669 0.929 . S
C1678 C1670 1.378 . S
C1678 C1673 1.350 . S
C1679 H1666 0.929 . S
C1679 C1671 1.433 . S
C1679 N1681 1.384 . S
N1680 C1676 1.427 . S
N1680 C1677 1.384 . S
N1681 C1673 1.427 . S
N1681 C1679 1.384 . S
H1682 C1688 0.930 . S
H1683 C1692 0.930 . S
H1684 C1697 0.929 . S
H1685 C1695 0.929 . S
H1686 C1690 0.929 . S
H1687 C1696 0.929 . S
C1688 H1682 0.930 . S
C1688 C1689 1.367 . S
C1688 C1696 1.378 . S
C1689 C1688 1.367 . S
C1689 C1697 1.433 . S
C1690 H1686 0.929 . S
C1690 C1692 1.378 . S
C1690 C1694 1.350 . S
C1691 C1694 1.463 . S
C1691 C1696 1.350 . S
C1691 N1699 1.427 . S
C1692 H1683 0.930 . S
C1692 C1690 1.378 . S
C1692 C1693 1.367 . S
C1693 C1692 1.367 . S
C1693 C1695 1.433 . S
C1694 C1690 1.350 . S
C1694 C1691 1.463 . S
C1694 N1698 1.427 . S
C1695 H1685 0.929 . S
C1695 C1693 1.433 . S
C1695 N1698 1.384 . S
C1696 H1687 0.929 . S
C1696 C1688 1.378 . S
C1696 C1691 1.350 . S
C1697 H1684 0.929 . S
C1697 C1689 1.433 . S
C1697 N1699 1.384 . S
N1698 C1694 1.427 . S
N1698 C1695 1.384 . S
N1699 C1691 1.427 . S
N1699 C1697 1.384 . S
H1700 C1706 0.930 . S
H1701 C1710 0.930 . S
H1702 C1715 0.929 . S
H1703 C1713 0.929 . S
H1704 C1708 0.929 . S
H1705 C1714 0.929 . S
C1706 H1700 0.930 . S
C1706 C1707 1.367 . S
C1706 C1714 1.378 . S
C1707 C1706 1.367 . S
C1707 C1715 1.433 . S
C1708 H1704 0.929 . S
C1708 C1710 1.378 . S
C1708 C1712 1.350 . S
C1709 C1712 1.463 . S
C1709 C1714 1.350 . S
C1709 N1717 1.427 . S
C1710 H1701 0.930 . S
C1710 C1708 1.378 . S
C1710 C1711 1.367 . S
C1711 C1710 1.367 . S
C1711 C1713 1.433 . S
C1712 C1708 1.350 . S
C1712 C1709 1.463 . S
C1712 N1716 1.427 . S
C1713 H1703 0.929 . S
C1713 C1711 1.433 . S
C1713 N1716 1.384 . S
C1714 H1705 0.929 . S
C1714 C1706 1.378 . S
C1714 C1709 1.350 . S
C1715 H1702 0.929 . S
C1715 C1707 1.433 . S
C1715 N1717 1.384 . S
N1716 C1712 1.427 . S
N1716 C1713 1.384 . S
N1717 C1709 1.427 . S
N1717 C1715 1.384 . S
H1718 C1724 0.930 . S
H1719 C1728 0.930 . S
H1720 C1733 0.929 . S
H1721 C1731 0.929 . S
H1722 C1726 0.929 . S
H1723 C1732 0.929 . S
C1724 H1718 0.930 . S
C1724 C1725 1.367 . S
C1724 C1732 1.378 . S
C1725 C1724 1.367 . S
C1725 C1733 1.433 . S
C1726 H1722 0.929 . S
C1726 C1728 1.378 . S
C1726 C1730 1.350 . S
C1727 C1730 1.463 . S
C1727 C1732 1.350 . S
C1727 N1735 1.427 . S
C1728 H1719 0.930 . S
C1728 C1726 1.378 . S
C1728 C1729 1.367 . S
C1729 C1728 1.367 . S
C1729 C1731 1.433 . S
C1730 C1726 1.350 . S
C1730 C1727 1.463 . S
C1730 N1734 1.427 . S
C1731 H1721 0.929 . S
C1731 C1729 1.433 . S
C1731 N1734 1.384 . S
C1732 H1723 0.929 . S
C1732 C1724 1.378 . S
C1732 C1727 1.350 . S
C1733 H1720 0.929 . S
C1733 C1725 1.433 . S
C1733 N1735 1.384 . S
N1734 C1730 1.427 . S
N1734 C1731 1.384 . S
N1735 C1727 1.427 . S
N1735 C1733 1.384 . S
H1736 C1742 0.930 . S
H1737 C1746 0.930 . S
H1738 C1751 0.929 . S
H1739 C1749 0.929 . S
H1740 C1744 0.929 . S
H1741 C1750 0.929 . S
C1742 H1736 0.930 . S
C1742 C1743 1.367 . S
C1742 C1750 1.378 . S
C1743 C1742 1.367 . S
C1743 C1751 1.433 . S
C1744 H1740 0.929 . S
C1744 C1746 1.378 . S
C1744 C1748 1.350 . S
C1745 C1748 1.463 . S
C1745 C1750 1.350 . S
C1745 N1753 1.427 . S
C1746 H1737 0.930 . S
C1746 C1744 1.378 . S
C1746 C1747 1.367 . S
C1747 C1746 1.367 . S
C1747 C1749 1.433 . S
C1748 C1744 1.350 . S
C1748 C1745 1.463 . S
C1748 N1752 1.427 . S
C1749 H1739 0.929 . S
C1749 C1747 1.433 . S
C1749 N1752 1.384 . S
C1750 H1741 0.929 . S
C1750 C1742 1.378 . S
C1750 C1745 1.350 . S
C1751 H1738 0.929 . S
C1751 C1743 1.433 . S
C1751 N1753 1.384 . S
N1752 C1748 1.427 . S
N1752 C1749 1.384 . S
N1753 C1745 1.427 . S
N1753 C1751 1.384 . S
H1754 C1760 0.930 . S
H1755 C1764 0.930 . S
H1756 C1769 0.929 . S
H1757 C1767 0.929 . S
H1758 C1762 0.929 . S
H1759 C1768 0.929 . S
C1760 H1754 0.930 . S
C1760 C1761 1.367 . S
C1760 C1768 1.378 . S
C1761 C1760 1.367 . S
C1761 C1769 1.433 . S
C1762 H1758 0.929 . S
C1762 C1764 1.378 . S
C1762 C1766 1.350 . S
C1763 C1766 1.463 . S
C1763 C1768 1.350 . S
C1763 N1771 1.427 . S
C1764 H1755 0.930 . S
C1764 C1762 1.378 . S
C1764 C1765 1.367 . S
C1765 C1764 1.367 . S
C1765 C1767 1.433 . S
C1766 C1762 1.350 . S
C1766 C1763 1.463 . S
C1766 N1770 1.427 . S
C1767 H1757 0.929 . S
C1767 C1765 1.433 . S
C1767 N1770 1.384 . S
C1768 H1759 0.929 . S
C1768 C1760 1.378 . S
C1768 C1763 1.350 . S
C1769 H1756 0.929 . S
C1769 C1761 1.433 . S
C1769 N1771 1.384 . S
N1770 C1766 1.427 . S
N1770 C1767 1.384 . S
N1771 C1763 1.427 . S
N1771 C1769 1.384 . S
H1772 C1778 0.930 . S
H1773 C1782 0.930 . S
H1774 C1787 0.929 . S
H1775 C1785 0.929 . S
H1776 C1780 0.929 . S
H1777 C1786 0.929 . S
C1778 H1772 0.930 . S
C1778 C1779 1.367 . S
C1778 C1786 1.378 . S
C1779 C1778 1.367 . S
C1779 C1787 1.433 . S
C1780 H1776 0.929 . S
C1780 C1782 1.378 . S
C1780 C1784 1.350 . S
C1781 C1784 1.463 . S
C1781 C1786 1.350 . S
C1781 N1789 1.427 . S
C1782 H1773 0.930 . S
C1782 C1780 1.378 . S
C1782 C1783 1.367 . S
C1783 C1782 1.367 . S
C1783 C1785 1.433 . S
C1784 C1780 1.350 . S
C1784 C1781 1.463 . S
C1784 N1788 1.427 . S
C1785 H1775 0.929 . S
C1785 C1783 1.433 . S
C1785 N1788 1.384 . S
C1786 H1777 0.929 . S
C1786 C1778 1.378 . S
C1786 C1781 1.350 . S
C1787 H1774 0.929 . S
C1787 C1779 1.433 . S
C1787 N1789 1.384 . S
N1788 C1784 1.427 . S
N1788 C1785 1.384 . S
N1789 C1781 1.427 . S
N1789 C1787 1.384 . S
H1790 C1796 0.930 . S
H1791 C1800 0.930 . S
H1792 C1805 0.929 . S
H1793 C1803 0.929 . S
H1794 C1798 0.929 . S
H1795 C1804 0.929 . S
C1796 H1790 0.930 . S
C1796 C1797 1.367 . S
C1796 C1804 1.378 . S
C1797 C1796 1.367 . S
C1797 C1805 1.433 . S
C1798 H1794 0.929 . S
C1798 C1800 1.378 . S
C1798 C1802 1.350 . S
C1799 C1802 1.463 . S
C1799 C1804 1.350 . S
C1799 N1807 1.427 . S
C1800 H1791 0.930 . S
C1800 C1798 1.378 . S
C1800 C1801 1.367 . S
C1801 C1800 1.367 . S
C1801 C1803 1.433 . S
C1802 C1798 1.350 . S
C1802 C1799 1.463 . S
C1802 N1806 1.427 . S
C1803 H1793 0.929 . S
C1803 C1801 1.433 . S
C1803 N1806 1.384 . S
C1804 H1795 0.929 . S
C1804 C1796 1.378 . S
C1804 C1799 1.350 . S
C1805 H1792 0.929 . S
C1805 C1797 1.433 . S
C1805 N1807 1.384 . S
N1806 C1802 1.427 . S
N1806 C1803 1.384 . S
N1807 C1799 1.427 . S
N1807 C1805 1.384 . S
H1808 C1814 0.930 . S
H1809 C1818 0.930 . S
H1810 C1823 0.929 . S
H1811 C1821 0.929 . S
H1812 C1816 0.929 . S
H1813 C1822 0.929 . S
C1814 H1808 0.930 . S
C1814 C1815 1.367 . S
C1814 C1822 1.378 . S
C1815 C1814 1.367 . S
C1815 C1823 1.433 . S
C1816 H1812 0.929 . S
C1816 C1818 1.378 . S
C1816 C1820 1.350 . S
C1817 C1820 1.463 . S
C1817 C1822 1.350 . S
C1817 N1825 1.427 . S
C1818 H1809 0.930 . S
C1818 C1816 1.378 . S
C1818 C1819 1.367 . S
C1819 C1818 1.367 . S
C1819 C1821 1.433 . S
C1820 C1816 1.350 . S
C1820 C1817 1.463 . S
C1820 N1824 1.427 . S
C1821 H1811 0.929 . S
C1821 C1819 1.433 . S
C1821 N1824 1.384 . S
C1822 H1813 0.929 . S
C1822 C1814 1.378 . S
C1822 C1817 1.350 . S
C1823 H1810 0.929 . S
C1823 C1815 1.433 . S
C1823 N1825 1.384 . S
N1824 C1820 1.427 . S
N1824 C1821 1.384 . S
N1825 C1817 1.427 . S
N1825 C1823 1.384 . S
H1826 C1832 0.930 . S
H1827 C1836 0.930 . S
H1828 C1841 0.929 . S
H1829 C1839 0.929 . S
H1830 C1834 0.929 . S
H1831 C1840 0.929 . S
C1832 H1826 0.930 . S
C1832 C1833 1.367 . S
C1832 C1840 1.378 . S
C1833 C1832 1.367 . S
C1833 C1841 1.433 . S
C1834 H1830 0.929 . S
C1834 C1836 1.378 . S
C1834 C1838 1.350 . S
C1835 C1838 1.463 . S
C1835 C1840 1.350 . S
C1835 N1843 1.427 . S
C1836 H1827 0.930 . S
C1836 C1834 1.378 . S
C1836 C1837 1.367 . S
C1837 C1836 1.367 . S
C1837 C1839 1.433 . S
C1838 C1834 1.350 . S
C1838 C1835 1.463 . S
C1838 N1842 1.427 . S
C1839 H1829 0.929 . S
C1839 C1837 1.433 . S
C1839 N1842 1.384 . S
C1840 H1831 0.929 . S
C1840 C1832 1.378 . S
C1840 C1835 1.350 . S
C1841 H1828 0.929 . S
C1841 C1833 1.433 . S
C1841 N1843 1.384 . S
N1842 C1838 1.427 . S
N1842 C1839 1.384 . S
N1843 C1835 1.427 . S
N1843 C1841 1.384 . S
H1844 C1850 0.930 . S
H1845 C1854 0.930 . S
H1846 C1859 0.929 . S
H1847 C1857 0.929 . S
H1848 C1852 0.929 . S
H1849 C1858 0.929 . S
C1850 H1844 0.930 . S
C1850 C1851 1.367 . S
C1850 C1858 1.378 . S
C1851 C1850 1.367 . S
C1851 C1859 1.433 . S
C1852 H1848 0.929 . S
C1852 C1854 1.378 . S
C1852 C1856 1.350 . S
C1853 C1856 1.463 . S
C1853 C1858 1.350 . S
C1853 N1861 1.427 . S
C1854 H1845 0.930 . S
C1854 C1852 1.378 . S
C1854 C1855 1.367 . S
C1855 C1854 1.367 . S
C1855 C1857 1.433 . S
C1856 C1852 1.350 . S
C1856 C1853 1.463 . S
C1856 N1860 1.427 . S
C1857 H1847 0.929 . S
C1857 C1855 1.433 . S
C1857 N1860 1.384 . S
C1858 H1849 0.929 . S
C1858 C1850 1.378 . S
C1858 C1853 1.350 . S
C1859 H1846 0.929 . S
C1859 C1851 1.433 . S
C1859 N1861 1.384 . S
N1860 C1856 1.427 . S
N1860 C1857 1.384 . S
N1861 C1853 1.427 . S
N1861 C1859 1.384 . S
H1862 C1868 0.930 . S
H1863 C1872 0.930 1_546 S
H1864 C1877 0.929 1_556 S
H1865 C1875 0.929 . S
H1866 C1870 0.929 1_556 S
H1867 C1876 0.929 . S
C1868 H1862 0.930 . S
C1868 C1869 1.367 . S
C1868 C1876 1.378 . S
C1869 C1868 1.367 . S
C1869 C1877 1.433 . S
C1870 H1866 0.929 1_554 S
C1870 C1872 1.378 . S
C1870 C1874 1.350 . S
C1871 C1874 1.463 . S
C1871 C1876 1.350 . S
C1871 N1879 1.427 . S
C1872 H1863 0.930 1_564 S
C1872 C1870 1.378 . S
C1872 C1873 1.360 . S
C1873 C1872 1.360 . S
C1873 C1875 1.453 . S
C1874 C1870 1.350 . S
C1874 C1871 1.463 . S
C1874 N1878 1.427 . S
C1875 H1865 0.929 . S
C1875 C1873 1.453 . S
C1875 N1878 1.384 . S
C1876 H1867 0.929 . S
C1876 C1868 1.378 . S
C1876 C1871 1.350 . S
C1877 H1864 0.929 1_554 S
C1877 C1869 1.433 . S
C1877 N1879 1.384 . S
N1878 C1874 1.427 . S
N1878 C1875 1.384 . S
N1879 C1871 1.427 . S
N1879 C1877 1.384 . S
H1880 C1886 0.930 . S
H1881 C1890 0.930 . S
H1882 C1895 0.929 . S
H1883 C1893 0.929 . S
H1884 C1888 0.929 . S
H1885 C1894 0.929 . S
C1886 H1880 0.930 . S
C1886 C1887 1.367 . S
C1886 C1894 1.378 . S
C1887 C1886 1.367 . S
C1887 C1895 1.433 . S
C1888 H1884 0.929 . S
C1888 C1890 1.378 . S
C1888 C1892 1.350 . S
C1889 C1892 1.463 . S
C1889 C1894 1.350 . S
C1889 N1897 1.427 . S
C1890 H1881 0.930 . S
C1890 C1888 1.378 . S
C1890 C1891 1.367 . S
C1891 C1890 1.367 . S
C1891 C1893 1.433 . S
C1892 C1888 1.350 . S
C1892 C1889 1.463 . S
C1892 N1896 1.427 . S
C1893 H1883 0.929 . S
C1893 C1891 1.433 . S
C1893 N1896 1.384 . S
C1894 H1885 0.929 . S
C1894 C1886 1.378 . S
C1894 C1889 1.350 . S
C1895 H1882 0.929 . S
C1895 C1887 1.433 . S
C1895 N1897 1.384 . S
N1896 C1892 1.427 . S
N1896 C1893 1.384 . S
N1897 C1889 1.427 . S
N1897 C1895 1.384 . S
H1898 C1904 0.930 1_556 S
H1899 C1908 0.930 . S
H1900 C1913 0.929 . S
H1901 C1911 0.929 . S
H1902 C1906 0.929 . S
H1903 C1912 0.929 . S
C1904 H1898 0.930 1_554 S
C1904 C1905 1.367 . S
C1904 C1912 1.378 . S
C1905 C1904 1.367 . S
C1905 C1913 1.433 . S
C1906 H1902 0.929 . S
C1906 C1908 1.378 . S
C1906 C1910 1.350 . S
C1907 C1910 1.463 . S
C1907 C1912 1.350 . S
C1907 N1915 1.427 . S
C1908 H1899 0.930 . S
C1908 C1906 1.378 . S
C1908 C1909 1.367 . S
C1909 C1908 1.367 . S
C1909 C1911 1.433 . S
C1910 C1906 1.350 . S
C1910 C1907 1.463 . S
C1910 N1914 1.427 . S
C1911 H1901 0.929 . S
C1911 C1909 1.433 . S
C1911 N1914 1.384 . S
C1912 H1903 0.929 . S
C1912 C1904 1.378 . S
C1912 C1907 1.350 . S
C1913 H1900 0.929 . S
C1913 C1905 1.433 . S
C1913 N1915 1.384 . S
N1914 C1910 1.427 . S
N1914 C1911 1.384 . S
N1915 C1907 1.427 . S
N1915 C1913 1.384 . S
H1916 C1922 0.930 . S
H1917 C1926 0.930 . S
H1918 C1931 0.929 . S
H1919 C1929 0.929 . S
H1920 C1924 0.929 . S
H1921 C1930 0.929 . S
C1922 H1916 0.930 . S
C1922 C1923 1.367 . S
C1922 C1930 1.378 . S
C1923 C1922 1.367 . S
C1923 C1931 1.433 . S
C1924 H1920 0.929 . S
C1924 C1926 1.378 . S
C1924 C1928 1.350 . S
C1925 C1928 1.463 . S
C1925 C1930 1.350 . S
C1925 N1933 1.427 . S
C1926 H1917 0.930 . S
C1926 C1924 1.378 . S
C1926 C1927 1.367 . S
C1927 C1926 1.367 . S
C1927 C1929 1.433 . S
C1928 C1924 1.350 . S
C1928 C1925 1.463 . S
C1928 N1932 1.427 . S
C1929 H1919 0.929 . S
C1929 C1927 1.433 . S
C1929 N1932 1.384 . S
C1930 H1921 0.929 . S
C1930 C1922 1.378 . S
C1930 C1925 1.350 . S
C1931 H1918 0.929 . S
C1931 C1923 1.433 . S
C1931 N1933 1.384 . S
N1932 C1928 1.427 . S
N1932 C1929 1.384 . S
N1933 C1925 1.427 . S
N1933 C1931 1.384 . S
H1934 C1940 0.930 1_545 S
H1935 C1944 0.930 . S
H1936 C1949 0.929 . S
H1937 C1947 0.929 . S
H1938 C1942 0.929 . S
H1939 C1948 0.929 . S
C1940 H1934 0.930 1_565 S
C1940 C1941 1.367 . S
C1940 C1948 1.378 . S
C1941 C1940 1.367 . S
C1941 C1949 1.433 . S
C1942 H1938 0.929 . S
C1942 C1944 1.378 . S
C1942 C1946 1.350 . S
C1943 C1946 1.463 . S
C1943 C1948 1.350 . S
C1943 N1951 1.427 . S
C1944 H1935 0.930 . S
C1944 C1942 1.378 . S
C1944 C1945 1.367 . S
C1945 C1944 1.367 . S
C1945 C1947 1.433 . S
C1946 C1942 1.350 . S
C1946 C1943 1.463 . S
C1946 N1950 1.427 . S
C1947 H1937 0.929 . S
C1947 C1945 1.433 . S
C1947 N1950 1.384 . S
C1948 H1939 0.929 . S
C1948 C1940 1.378 . S
C1948 C1943 1.350 . S
C1949 H1936 0.929 . S
C1949 C1941 1.433 . S
C1949 N1951 1.384 . S
N1950 C1946 1.427 . S
N1950 C1947 1.384 . S
N1951 C1943 1.427 . S
N1951 C1949 1.384 . S
H1952 C1958 0.930 . S
H1953 C1962 0.930 . S
H1954 C1967 0.929 . S
H1955 C1965 0.929 . S
H1956 C1960 0.929 . S
H1957 C1966 0.929 . S
C1958 H1952 0.930 . S
C1958 C1959 1.367 . S
C1958 C1966 1.378 . S
C1959 C1958 1.367 . S
C1959 C1967 1.433 . S
C1960 H1956 0.929 . S
C1960 C1962 1.378 . S
C1960 C1964 1.350 . S
C1961 C1964 1.463 . S
C1961 C1966 1.350 . S
C1961 N1969 1.427 . S
C1962 H1953 0.930 . S
C1962 C1960 1.378 . S
C1962 C1963 1.367 . S
C1963 C1962 1.367 . S
C1963 C1965 1.433 . S
C1964 C1960 1.350 . S
C1964 C1961 1.463 . S
C1964 N1968 1.427 . S
C1965 H1955 0.929 . S
C1965 C1963 1.433 . S
C1965 N1968 1.384 . S
C1966 H1957 0.929 . S
C1966 C1958 1.378 . S
C1966 C1961 1.350 . S
C1967 H1954 0.929 . S
C1967 C1959 1.433 . S
C1967 N1969 1.384 . S
N1968 C1964 1.427 . S
N1968 C1965 1.384 . S
N1969 C1961 1.427 . S
N1969 C1967 1.384 . S
H1970 C1976 0.930 . S
H1971 C1980 0.930 . S
H1972 C1985 0.929 . S
H1973 C1983 0.929 . S
H1974 C1978 0.929 . S
H1975 C1984 0.929 . S
C1976 H1970 0.930 . S
C1976 C1977 1.367 . S
C1976 C1984 1.378 . S
C1977 C1976 1.367 . S
C1977 C1985 1.433 . S
C1978 H1974 0.929 . S
C1978 C1980 1.378 . S
C1978 C1982 1.350 . S
C1979 C1982 1.463 . S
C1979 C1984 1.350 . S
C1979 N1987 1.427 . S
C1980 H1971 0.930 . S
C1980 C1978 1.378 . S
C1980 C1981 1.367 . S
C1981 C1980 1.367 . S
C1981 C1983 1.433 . S
C1982 C1978 1.350 . S
C1982 C1979 1.463 . S
C1982 N1986 1.427 . S
C1983 H1973 0.929 . S
C1983 C1981 1.433 . S
C1983 N1986 1.384 . S
C1984 H1975 0.929 . S
C1984 C1976 1.378 . S
C1984 C1979 1.350 . S
C1985 H1972 0.929 . S
C1985 C1977 1.433 . S
C1985 N1987 1.384 . S
N1986 C1982 1.427 . S
N1986 C1983 1.384 . S
N1987 C1979 1.427 . S
N1987 C1985 1.384 . S
H1988 C1994 0.930 . S
H1989 C1998 0.930 . S
H1990 C2003 0.929 . S
H1991 C2001 0.929 1_655 S
H1992 C1996 0.929 . S
H1993 C2002 0.929 . S
C1994 H1988 0.930 . S
C1994 C1995 1.367 1_655 S
C1994 C2002 1.378 . S
C1995 C1994 1.367 1_455 S
C1995 C2003 1.433 . S
C1996 H1992 0.929 . S
C1996 C1998 1.378 . S
C1996 C2000 1.350 . S
C1997 C2000 1.463 . S
C1997 C2002 1.350 1_455 S
C1997 N2005 1.427 . S
C1998 H1989 0.930 . S
C1998 C1996 1.378 . S
C1998 C1999 1.367 . S
C1999 C1998 1.367 . S
C1999 C2001 1.433 . S
C2000 C1996 1.350 . S
C2000 C1997 1.463 . S
C2000 N2004 1.428 1_455 S
C2001 H1991 0.929 1_455 S
C2001 C1999 1.433 . S
C2001 N2004 1.384 1_455 S
C2002 H1993 0.929 . S
C2002 C1994 1.378 . S
C2002 C1997 1.350 1_655 S
C2003 H1990 0.929 . S
C2003 C1995 1.433 . S
C2003 N2005 1.384 . S
N2004 C2000 1.428 1_655 S
N2004 C2001 1.384 1_655 S
N2005 C1997 1.427 . S
N2005 C2003 1.384 . S
H2006 C2012 0.930 . S
H2007 C2016 0.930 . S
H2008 C2021 0.929 . S
H2009 C2019 0.929 . S
H2010 C2014 0.929 . S
H2011 C2020 0.929 . S
C2012 H2006 0.930 . S
C2012 C2013 1.367 . S
C2012 C2020 1.378 . S
C2013 C2012 1.367 . S
C2013 C2021 1.433 . S
C2014 H2010 0.929 . S
C2014 C2016 1.378 . S
C2014 C2018 1.350 . S
C2015 C2018 1.463 . S
C2015 C2020 1.350 . S
C2015 N2023 1.427 . S
C2016 H2007 0.930 . S
C2016 C2014 1.378 . S
C2016 C2017 1.367 . S
C2017 C2016 1.367 . S
C2017 C2019 1.433 . S
C2018 C2014 1.350 . S
C2018 C2015 1.463 . S
C2018 N2022 1.427 . S
C2019 H2009 0.929 . S
C2019 C2017 1.433 . S
C2019 N2022 1.384 . S
C2020 H2011 0.929 . S
C2020 C2012 1.378 . S
C2020 C2015 1.350 . S
C2021 H2008 0.929 . S
C2021 C2013 1.433 . S
C2021 N2023 1.384 . S
N2022 C2018 1.427 . S
N2022 C2019 1.384 . S
N2023 C2015 1.427 . S
N2023 C2021 1.384 . S
H2024 C2030 0.930 . S
H2025 C2034 0.930 1_554 S
H2026 C2039 0.929 . S
H2027 C2037 0.929 . S
H2028 C2032 0.929 . S
H2029 C2038 0.929 . S
C2030 H2024 0.930 . S
C2030 C2031 1.367 . S
C2030 C2038 1.378 . S
C2031 C2030 1.367 . S
C2031 C2039 1.433 . S
C2032 H2028 0.929 . S
C2032 C2034 1.378 . S
C2032 C2036 1.350 . S
C2033 C2036 1.463 . S
C2033 C2038 1.350 . S
C2033 N2041 1.427 . S
C2034 H2025 0.930 1_556 S
C2034 C2032 1.378 . S
C2034 C2035 1.367 . S
C2035 C2034 1.367 . S
C2035 C2037 1.433 . S
C2036 C2032 1.350 . S
C2036 C2033 1.463 . S
C2036 N2040 1.427 . S
C2037 H2027 0.929 . S
C2037 C2035 1.433 . S
C2037 N2040 1.384 . S
C2038 H2029 0.929 . S
C2038 C2030 1.378 . S
C2038 C2033 1.350 . S
C2039 H2026 0.929 . S
C2039 C2031 1.433 . S
C2039 N2041 1.384 . S
N2040 C2036 1.427 . S
N2040 C2037 1.384 . S
N2041 C2033 1.427 . S
N2041 C2039 1.384 . S
H2042 C2048 0.930 . S
H2043 C2052 0.930 . S
H2044 C2057 0.929 . S
H2045 C2055 0.929 . S
H2046 C2050 0.929 . S
H2047 C2056 0.929 . S
C2048 H2042 0.930 . S
C2048 C2049 1.367 . S
C2048 C2056 1.378 . S
C2049 C2048 1.367 . S
C2049 C2057 1.433 . S
C2050 H2046 0.929 . S
C2050 C2052 1.378 . S
C2050 C2054 1.350 . S
C2051 C2054 1.463 . S
C2051 C2056 1.350 . S
C2051 N2059 1.427 . S
C2052 H2043 0.930 . S
C2052 C2050 1.378 . S
C2052 C2053 1.367 . S
C2053 C2052 1.367 . S
C2053 C2055 1.433 . S
C2054 C2050 1.350 . S
C2054 C2051 1.463 . S
C2054 N2058 1.427 . S
C2055 H2045 0.929 . S
C2055 C2053 1.433 . S
C2055 N2058 1.384 . S
C2056 H2047 0.929 . S
C2056 C2048 1.378 . S
C2056 C2051 1.350 . S
C2057 H2044 0.929 . S
C2057 C2049 1.433 . S
C2057 N2059 1.384 . S
N2058 C2054 1.427 . S
N2058 C2055 1.384 . S
N2059 C2051 1.427 . S
N2059 C2057 1.384 . S
H2060 C2066 0.930 . S
H2061 C2070 0.930 . S
H2062 C2075 0.929 . S
H2063 C2073 0.929 . S
H2064 C2068 0.929 . S
H2065 C2074 0.929 . S
C2066 H2060 0.930 . S
C2066 C2067 1.367 . S
C2066 C2074 1.378 . S
C2067 C2066 1.367 . S
C2067 C2075 1.433 . S
C2068 H2064 0.929 . S
C2068 C2070 1.378 . S
C2068 C2072 1.350 . S
C2069 C2072 1.463 . S
C2069 C2074 1.350 . S
C2069 N2077 1.427 . S
C2070 H2061 0.930 . S
C2070 C2068 1.378 . S
C2070 C2071 1.367 . S
C2071 C2070 1.367 . S
C2071 C2073 1.433 . S
C2072 C2068 1.350 . S
C2072 C2069 1.463 . S
C2072 N2076 1.427 . S
C2073 H2063 0.929 . S
C2073 C2071 1.433 . S
C2073 N2076 1.384 . S
C2074 H2065 0.929 . S
C2074 C2066 1.378 . S
C2074 C2069 1.350 . S
C2075 H2062 0.929 . S
C2075 C2067 1.433 . S
C2075 N2077 1.384 . S
N2076 C2072 1.427 . S
N2076 C2073 1.384 . S
N2077 C2069 1.427 . S
N2077 C2075 1.384 . S
H2078 C2084 0.930 . S
H2079 C2088 0.930 . S
H2080 C2093 0.929 . S
H2081 C2091 0.929 . S
H2082 C2086 0.929 . S
H2083 C2092 0.929 . S
C2084 H2078 0.930 . S
C2084 C2085 1.367 . S
C2084 C2092 1.378 . S
C2085 C2084 1.367 . S
C2085 C2093 1.433 . S
C2086 H2082 0.929 . S
C2086 C2088 1.378 . S
C2086 C2090 1.350 . S
C2087 C2090 1.463 . S
C2087 C2092 1.350 . S
C2087 N2095 1.427 . S
C2088 H2079 0.930 . S
C2088 C2086 1.378 . S
C2088 C2089 1.367 . S
C2089 C2088 1.367 . S
C2089 C2091 1.433 . S
C2090 C2086 1.350 . S
C2090 C2087 1.463 . S
C2090 N2094 1.427 . S
C2091 H2081 0.929 . S
C2091 C2089 1.433 . S
C2091 N2094 1.384 . S
C2092 H2083 0.929 . S
C2092 C2084 1.378 . S
C2092 C2087 1.350 . S
C2093 H2080 0.929 . S
C2093 C2085 1.433 . S
C2093 N2095 1.384 . S
N2094 C2090 1.427 . S
N2094 C2091 1.384 . S
N2095 C2087 1.427 . S
N2095 C2093 1.384 . S
H2096 C2102 0.930 . S
H2097 C2106 0.930 . S
H2098 C2111 0.929 . S
H2099 C2109 0.929 . S
H2100 C2104 0.929 . S
H2101 C2110 0.929 . S
C2102 H2096 0.930 . S
C2102 C2103 1.367 . S
C2102 C2110 1.378 . S
C2103 C2102 1.367 . S
C2103 C2111 1.433 . S
C2104 H2100 0.929 . S
C2104 C2106 1.378 . S
C2104 C2108 1.350 . S
C2105 C2108 1.463 . S
C2105 C2110 1.350 . S
C2105 N2113 1.427 . S
C2106 H2097 0.930 . S
C2106 C2104 1.378 . S
C2106 C2107 1.367 . S
C2107 C2106 1.367 . S
C2107 C2109 1.433 . S
C2108 C2104 1.350 . S
C2108 C2105 1.463 . S
C2108 N2112 1.427 . S
C2109 H2099 0.929 . S
C2109 C2107 1.433 . S
C2109 N2112 1.384 . S
C2110 H2101 0.929 . S
C2110 C2102 1.378 . S
C2110 C2105 1.350 . S
C2111 H2098 0.929 . S
C2111 C2103 1.433 . S
C2111 N2113 1.384 . S
N2112 C2108 1.427 . S
N2112 C2109 1.384 . S
N2113 C2105 1.427 . S
N2113 C2111 1.384 . S
H2114 C2120 0.930 . S
H2115 C2124 0.930 . S
H2116 C2129 0.929 . S
H2117 C2127 0.929 . S
H2118 C2122 0.929 . S
H2119 C2128 0.929 . S
C2120 H2114 0.930 . S
C2120 C2121 1.367 . S
C2120 C2128 1.378 . S
C2121 C2120 1.367 . S
C2121 C2129 1.433 . S
C2122 H2118 0.929 . S
C2122 C2124 1.378 . S
C2122 C2126 1.350 . S
C2123 C2126 1.463 . S
C2123 C2128 1.350 . S
C2123 N2131 1.427 . S
C2124 H2115 0.930 . S
C2124 C2122 1.378 . S
C2124 C2125 1.367 . S
C2125 C2124 1.367 . S
C2125 C2127 1.433 . S
C2126 C2122 1.350 . S
C2126 C2123 1.463 . S
C2126 N2130 1.427 . S
C2127 H2117 0.929 . S
C2127 C2125 1.433 . S
C2127 N2130 1.384 . S
C2128 H2119 0.929 . S
C2128 C2120 1.378 . S
C2128 C2123 1.350 . S
C2129 H2116 0.929 . S
C2129 C2121 1.433 . S
C2129 N2131 1.384 . S
N2130 C2126 1.427 . S
N2130 C2127 1.384 . S
N2131 C2123 1.427 . S
N2131 C2129 1.384 . S
H2132 C2138 0.930 . S
H2133 C2142 0.930 . S
H2134 C2147 0.929 . S
H2135 C2145 0.929 . S
H2136 C2140 0.929 . S
H2137 C2146 0.929 . S
C2138 H2132 0.930 . S
C2138 C2139 1.367 . S
C2138 C2146 1.378 . S
C2139 C2138 1.367 . S
C2139 C2147 1.433 . S
C2140 H2136 0.929 . S
C2140 C2142 1.378 1_655 S
C2140 C2144 1.350 . S
C2141 C2144 1.463 . S
C2141 C2146 1.350 . S
C2141 N2149 1.427 . S
C2142 H2133 0.930 . S
C2142 C2140 1.378 1_455 S
C2142 C2143 1.367 1_455 S
C2143 C2142 1.367 1_655 S
C2143 C2145 1.433 . S
C2144 C2140 1.350 . S
C2144 C2141 1.463 . S
C2144 N2148 1.427 . S
C2145 H2135 0.929 . S
C2145 C2143 1.433 . S
C2145 N2148 1.384 . S
C2146 H2137 0.929 . S
C2146 C2138 1.378 . S
C2146 C2141 1.350 . S
C2147 H2134 0.929 . S
C2147 C2139 1.433 . S
C2147 N2149 1.384 . S
N2148 C2144 1.427 . S
N2148 C2145 1.384 . S
N2149 C2141 1.427 . S
N2149 C2147 1.384 . S
H2150 C2156 0.930 . S
H2151 C2160 0.930 . S
H2152 C2165 0.929 . S
H2153 C2163 0.929 . S
H2154 C2158 0.929 . S
H2155 C2164 0.929 . S
C2156 H2150 0.930 . S
C2156 C2157 1.367 . S
C2156 C2164 1.378 . S
C2157 C2156 1.367 . S
C2157 C2165 1.433 . S
C2158 H2154 0.929 . S
C2158 C2160 1.378 . S
C2158 C2162 1.350 . S
C2159 C2162 1.463 . S
C2159 C2164 1.350 . S
C2159 N2167 1.427 . S
C2160 H2151 0.930 . S
C2160 C2158 1.378 . S
C2160 C2161 1.367 . S
C2161 C2160 1.367 . S
C2161 C2163 1.433 . S
C2162 C2158 1.350 . S
C2162 C2159 1.463 . S
C2162 N2166 1.427 . S
C2163 H2153 0.929 . S
C2163 C2161 1.433 . S
C2163 N2166 1.384 . S
C2164 H2155 0.929 . S
C2164 C2156 1.378 . S
C2164 C2159 1.350 . S
C2165 H2152 0.929 . S
C2165 C2157 1.433 . S
C2165 N2167 1.384 . S
N2166 C2162 1.427 . S
N2166 C2163 1.384 . S
N2167 C2159 1.427 . S
N2167 C2165 1.384 . S
H2168 C2174 0.930 . S
H2169 C2178 0.930 . S
H2170 C2183 0.929 . S
H2171 C2181 0.929 . S
H2172 C2176 0.929 . S
H2173 C2182 0.929 . S
C2174 H2168 0.930 . S
C2174 C2175 1.367 . S
C2174 C2182 1.378 . S
C2175 C2174 1.367 . S
C2175 C2183 1.433 . S
C2176 H2172 0.929 . S
C2176 C2178 1.378 . S
C2176 C2180 1.350 . S
C2177 C2180 1.463 . S
C2177 C2182 1.350 . S
C2177 N2185 1.427 . S
C2178 H2169 0.930 . S
C2178 C2176 1.378 . S
C2178 C2179 1.367 . S
C2179 C2178 1.367 . S
C2179 C2181 1.433 . S
C2180 C2176 1.350 . S
C2180 C2177 1.463 . S
C2180 N2184 1.427 . S
C2181 H2171 0.929 . S
C2181 C2179 1.433 . S
C2181 N2184 1.384 . S
C2182 H2173 0.929 . S
C2182 C2174 1.378 . S
C2182 C2177 1.350 . S
C2183 H2170 0.929 . S
C2183 C2175 1.433 . S
C2183 N2185 1.384 . S
N2184 C2180 1.427 . S
N2184 C2181 1.384 . S
N2185 C2177 1.427 . S
N2185 C2183 1.384 . S
H2186 C2192 0.930 . S
H2187 C2196 0.930 . S
H2188 C2201 0.929 . S
H2189 C2199 0.929 . S
H2190 C2194 0.929 . S
H2191 C2200 0.929 . S
C2192 H2186 0.930 . S
C2192 C2193 1.367 . S
C2192 C2200 1.378 . S
C2193 C2192 1.367 . S
C2193 C2201 1.433 . S
C2194 H2190 0.929 . S
C2194 C2196 1.378 . S
C2194 C2198 1.350 . S
C2195 C2198 1.463 . S
C2195 C2200 1.350 . S
C2195 N2203 1.427 . S
C2196 H2187 0.930 . S
C2196 C2194 1.378 . S
C2196 C2197 1.367 . S
C2197 C2196 1.367 . S
C2197 C2199 1.433 . S
C2198 C2194 1.350 . S
C2198 C2195 1.463 . S
C2198 N2202 1.427 . S
C2199 H2189 0.929 . S
C2199 C2197 1.433 . S
C2199 N2202 1.384 . S
C2200 H2191 0.929 . S
C2200 C2192 1.378 . S
C2200 C2195 1.350 . S
C2201 H2188 0.929 . S
C2201 C2193 1.433 . S
C2201 N2203 1.384 . S
N2202 C2198 1.427 . S
N2202 C2199 1.384 . S
N2203 C2195 1.427 . S
N2203 C2201 1.384 . S
H2204 C2210 0.930 . S
H2205 C2214 0.930 . S
H2206 C2219 0.929 . S
H2207 C2217 0.929 . S
H2208 C2212 0.929 . S
H2209 C2218 0.929 . S
C2210 H2204 0.930 . S
C2210 C2211 1.367 . S
C2210 C2218 1.378 . S
C2211 C2210 1.367 . S
C2211 C2219 1.433 . S
C2212 H2208 0.929 . S
C2212 C2214 1.378 . S
C2212 C2216 1.350 . S
C2213 C2216 1.463 . S
C2213 C2218 1.350 . S
C2213 N2221 1.427 . S
C2214 H2205 0.930 . S
C2214 C2212 1.378 . S
C2214 C2215 1.367 . S
C2215 C2214 1.367 . S
C2215 C2217 1.433 . S
C2216 C2212 1.350 . S
C2216 C2213 1.463 . S
C2216 N2220 1.427 . S
C2217 H2207 0.929 . S
C2217 C2215 1.433 . S
C2217 N2220 1.384 . S
C2218 H2209 0.929 . S
C2218 C2210 1.378 . S
C2218 C2213 1.350 . S
C2219 H2206 0.929 . S
C2219 C2211 1.433 . S
C2219 N2221 1.384 . S
N2220 C2216 1.427 . S
N2220 C2217 1.384 . S
N2221 C2213 1.427 . S
N2221 C2219 1.384 . S
H2222 C2228 0.930 . S
H2223 C2232 0.930 . S
H2224 C2237 0.929 . S
H2225 C2235 0.929 . S
H2226 C2230 0.929 . S
H2227 C2236 0.929 . S
C2228 H2222 0.930 . S
C2228 C2229 1.367 . S
C2228 C2236 1.378 . S
C2229 C2228 1.367 . S
C2229 C2237 1.433 . S
C2230 H2226 0.929 . S
C2230 C2232 1.378 . S
C2230 C2234 1.350 . S
C2231 C2234 1.463 . S
C2231 C2236 1.350 . S
C2231 N2239 1.427 . S
C2232 H2223 0.930 . S
C2232 C2230 1.378 . S
C2232 C2233 1.367 . S
C2233 C2232 1.367 . S
C2233 C2235 1.433 . S
C2234 C2230 1.350 . S
C2234 C2231 1.463 . S
C2234 N2238 1.427 . S
C2235 H2225 0.929 . S
C2235 C2233 1.433 . S
C2235 N2238 1.384 . S
C2236 H2227 0.929 . S
C2236 C2228 1.378 . S
C2236 C2231 1.350 . S
C2237 H2224 0.929 . S
C2237 C2229 1.433 . S
C2237 N2239 1.384 . S
N2238 C2234 1.427 . S
N2238 C2235 1.384 . S
N2239 C2231 1.427 . S
N2239 C2237 1.384 . S
H2240 C2246 0.930 . S
H2241 C2250 0.930 . S
H2242 C2255 0.929 . S
H2243 C2253 0.929 . S
H2244 C2248 0.929 . S
H2245 C2254 0.929 . S
C2246 H2240 0.930 . S
C2246 C2247 1.367 . S
C2246 C2254 1.378 . S
C2247 C2246 1.367 . S
C2247 C2255 1.433 . S
C2248 H2244 0.929 . S
C2248 C2250 1.378 . S
C2248 C2252 1.350 . S
C2249 C2252 1.463 . S
C2249 C2254 1.350 . S
C2249 N2257 1.427 . S
C2250 H2241 0.930 . S
C2250 C2248 1.378 . S
C2250 C2251 1.367 . S
C2251 C2250 1.367 . S
C2251 C2253 1.433 . S
C2252 C2248 1.350 . S
C2252 C2249 1.463 . S
C2252 N2256 1.427 . S
C2253 H2243 0.929 . S
C2253 C2251 1.433 . S
C2253 N2256 1.384 . S
C2254 H2245 0.929 . S
C2254 C2246 1.378 . S
C2254 C2249 1.350 . S
C2255 H2242 0.929 . S
C2255 C2247 1.433 . S
C2255 N2257 1.384 . S
N2256 C2252 1.427 . S
N2256 C2253 1.384 . S
N2257 C2249 1.427 . S
N2257 C2255 1.384 . S
H2258 C2264 0.930 . S
H2259 C2268 0.930 . S
H2260 C2273 0.929 . S
H2261 C2271 0.929 . S
H2262 C2266 0.929 . S
H2263 C2272 0.929 . S
C2264 H2258 0.930 . S
C2264 C2265 1.367 . S
C2264 C2272 1.378 . S
C2265 C2264 1.367 . S
C2265 C2273 1.433 . S
C2266 H2262 0.929 . S
C2266 C2268 1.378 1_565 S
C2266 C2270 1.350 . S
C2267 C2270 1.463 . S
C2267 C2272 1.350 . S
C2267 N2275 1.427 . S
C2268 H2259 0.930 . S
C2268 C2266 1.378 1_545 S
C2268 C2269 1.367 1_545 S
C2269 C2268 1.367 1_565 S
C2269 C2271 1.433 . S
C2270 C2266 1.350 . S
C2270 C2267 1.463 . S
C2270 N2274 1.427 . S
C2271 H2261 0.929 . S
C2271 C2269 1.433 . S
C2271 N2274 1.384 . S
C2272 H2263 0.929 . S
C2272 C2264 1.378 . S
C2272 C2267 1.350 . S
C2273 H2260 0.929 . S
C2273 C2265 1.433 . S
C2273 N2275 1.384 . S
N2274 C2270 1.427 . S
N2274 C2271 1.384 . S
N2275 C2267 1.427 . S
N2275 C2273 1.384 . S
H2276 C2282 0.930 . S
H2277 C2286 0.930 . S
H2278 C2291 0.929 . S
H2279 C2289 0.929 . S
H2280 C2284 0.929 . S
H2281 C2290 0.929 . S
C2282 H2276 0.930 . S
C2282 C2283 1.367 . S
C2282 C2290 1.378 . S
C2283 C2282 1.367 . S
C2283 C2291 1.433 . S
C2284 H2280 0.929 . S
C2284 C2286 1.378 . S
C2284 C2288 1.350 . S
C2285 C2288 1.463 . S
C2285 C2290 1.350 . S
C2285 N2293 1.427 . S
C2286 H2277 0.930 . S
C2286 C2284 1.378 . S
C2286 C2287 1.367 . S
C2287 C2286 1.367 . S
C2287 C2289 1.433 . S
C2288 C2284 1.350 . S
C2288 C2285 1.463 . S
C2288 N2292 1.427 . S
C2289 H2279 0.929 . S
C2289 C2287 1.433 . S
C2289 N2292 1.384 . S
C2290 H2281 0.929 . S
C2290 C2282 1.378 . S
C2290 C2285 1.350 . S
C2291 H2278 0.929 . S
C2291 C2283 1.433 . S
C2291 N2293 1.384 . S
N2292 C2288 1.427 . S
N2292 C2289 1.384 . S
N2293 C2285 1.427 . S
N2293 C2291 1.384 . S
H2294 C2300 0.930 . S
H2295 C2304 0.930 . S
H2296 C2309 0.929 . S
H2297 C2307 0.929 . S
H2298 C2302 0.929 . S
H2299 C2308 0.929 . S
C2300 H2294 0.930 . S
C2300 C2301 1.367 1_556 S
C2300 C2308 1.378 . S
C2301 C2300 1.367 1_554 S
C2301 C2309 1.433 . S
C2302 H2298 0.929 . S
C2302 C2304 1.378 . S
C2302 C2306 1.350 . S
C2303 C2306 1.463 . S
C2303 C2308 1.350 1_554 S
C2303 N2311 1.427 . S
C2304 H2295 0.930 . S
C2304 C2302 1.378 . S
C2304 C2305 1.367 . S
C2305 C2304 1.367 . S
C2305 C2307 1.433 1_554 S
C2306 C2302 1.350 . S
C2306 C2303 1.463 . S
C2306 N2310 1.427 1_554 S
C2307 H2297 0.929 . S
C2307 C2305 1.433 1_556 S
C2307 N2310 1.384 . S
C2308 H2299 0.929 . S
C2308 C2300 1.378 . S
C2308 C2303 1.350 1_556 S
C2309 H2296 0.929 . S
C2309 C2301 1.433 . S
C2309 N2311 1.384 . S
N2310 C2306 1.427 1_556 S
N2310 C2307 1.384 . S
N2311 C2303 1.427 . S
N2311 C2309 1.384 . S
H2312 C2318 0.930 . S
H2313 C2322 0.930 . S
H2314 C2327 0.929 . S
H2315 C2325 0.929 . S
H2316 C2320 0.929 . S
H2317 C2326 0.929 . S
C2318 H2312 0.930 . S
C2318 C2319 1.367 . S
C2318 C2326 1.378 . S
C2319 C2318 1.367 . S
C2319 C2327 1.433 . S
C2320 H2316 0.929 . S
C2320 C2322 1.378 . S
C2320 C2324 1.350 . S
C2321 C2324 1.463 . S
C2321 C2326 1.350 . S
C2321 N2329 1.427 . S
C2322 H2313 0.930 . S
C2322 C2320 1.378 . S
C2322 C2323 1.367 . S
C2323 C2322 1.367 . S
C2323 C2325 1.433 . S
C2324 C2320 1.350 . S
C2324 C2321 1.463 . S
C2324 N2328 1.427 . S
C2325 H2315 0.929 . S
C2325 C2323 1.433 . S
C2325 N2328 1.384 . S
C2326 H2317 0.929 . S
C2326 C2318 1.378 . S
C2326 C2321 1.350 . S
C2327 H2314 0.929 . S
C2327 C2319 1.433 . S
C2327 N2329 1.384 . S
N2328 C2324 1.427 . S
N2328 C2325 1.384 . S
N2329 C2321 1.427 . S
N2329 C2327 1.384 . S
H2330 C2336 0.930 . S
H2331 C2340 0.930 . S
H2332 C2345 0.929 . S
H2333 C2343 0.897 1_556 S
H2334 C2338 0.929 . S
H2335 C2344 0.929 1_556 S
C2336 H2330 0.930 . S
C2336 C2337 1.367 . S
C2336 C2344 1.378 . S
C2337 C2336 1.367 . S
C2337 C2345 1.433 . S
C2338 H2334 0.929 . S
C2338 C2340 1.378 . S
C2338 C2342 1.350 . S
C2339 C2342 1.463 . S
C2339 C2344 1.350 . S
C2339 N2347 1.427 . S
C2340 H2331 0.930 . S
C2340 C2338 1.378 . S
C2340 C2341 1.367 . S
C2341 C2340 1.367 . S
C2341 C2343 1.462 . S
C2342 C2338 1.350 . S
C2342 C2339 1.463 . S
C2342 N2346 1.427 . S
C2343 H2333 0.897 1_554 S
C2343 C2341 1.462 . S
C2343 N2346 1.389 . S
C2344 H2335 0.929 1_554 S
C2344 C2336 1.378 . S
C2344 C2339 1.350 . S
C2345 H2332 0.929 . S
C2345 C2337 1.433 . S
C2345 N2347 1.384 . S
N2346 C2342 1.427 . S
N2346 C2343 1.389 . S
N2347 C2339 1.427 . S
N2347 C2345 1.384 . S
H2348 C2354 0.930 . S
H2349 C2358 0.930 . S
H2350 C2363 0.929 . S
H2351 C2361 0.929 . S
H2352 C2356 0.929 . S
H2353 C2362 0.929 . S
C2354 H2348 0.930 . S
C2354 C2355 1.367 . S
C2354 C2362 1.378 . S
C2355 C2354 1.367 . S
C2355 C2363 1.433 . S
C2356 H2352 0.929 . S
C2356 C2358 1.378 . S
C2356 C2360 1.350 . S
C2357 C2360 1.463 . S
C2357 C2362 1.350 . S
C2357 N2365 1.427 . S
C2358 H2349 0.930 . S
C2358 C2356 1.378 . S
C2358 C2359 1.367 . S
C2359 C2358 1.367 . S
C2359 C2361 1.433 . S
C2360 C2356 1.350 . S
C2360 C2357 1.463 . S
C2360 N2364 1.427 . S
C2361 H2351 0.929 . S
C2361 C2359 1.433 . S
C2361 N2364 1.384 . S
C2362 H2353 0.929 . S
C2362 C2354 1.378 . S
C2362 C2357 1.350 . S
C2363 H2350 0.929 . S
C2363 C2355 1.433 . S
C2363 N2365 1.384 . S
N2364 C2360 1.427 . S
N2364 C2361 1.384 . S
N2365 C2357 1.427 . S
N2365 C2363 1.384 . S
H2366 C2372 0.930 . S
H2367 C2376 0.930 . S
H2368 C2381 0.929 . S
H2369 C2379 0.929 . S
H2370 C2374 0.929 . S
H2371 C2380 0.929 . S
C2372 H2366 0.930 . S
C2372 C2373 1.367 . S
C2372 C2380 1.378 . S
C2373 C2372 1.367 . S
C2373 C2381 1.433 . S
C2374 H2370 0.929 . S
C2374 C2376 1.378 . S
C2374 C2378 1.350 . S
C2375 C2378 1.463 . S
C2375 C2380 1.350 . S
C2375 N2383 1.427 . S
C2376 H2367 0.930 . S
C2376 C2374 1.378 . S
C2376 C2377 1.367 . S
C2377 C2376 1.367 . S
C2377 C2379 1.433 . S
C2378 C2374 1.350 . S
C2378 C2375 1.463 . S
C2378 N2382 1.427 . S
C2379 H2369 0.929 . S
C2379 C2377 1.433 . S
C2379 N2382 1.384 . S
C2380 H2371 0.929 . S
C2380 C2372 1.378 . S
C2380 C2375 1.350 . S
C2381 H2368 0.929 . S
C2381 C2373 1.433 . S
C2381 N2383 1.384 . S
N2382 C2378 1.427 . S
N2382 C2379 1.384 . S
N2383 C2375 1.427 . S
N2383 C2381 1.384 . S
C663 C106 1.591 . S
C667 C352 1.545 1_556 S
C681 C65 1.296 . S
C685 C365 1.290 . S
C699 C79 1.702 . S
C703 C384 1.723 . S
C721 C415 1.677 . S
C717 C90 1.704 . S
C735 C21 1.482 . S
C739 C435 1.502 . S
C757 C452 0.891 . S
C753 C35 0.892 . S
C775 C465 1.532 . S
C771 C50 1.539 . S
C789 C6 1.037 . S
C793 C492 1.044 . S
C811 C345 1.415 1_655 S
C807 C232 1.447 . S
C825 C245 1.454 . S
C829 C375 1.472 . S
C847 C377 1.705 . S
C843 C274 1.752 . S
C865 C412 0.861 . S
C861 C175 0.857 . S
C879 C231 0.969 . S
C883 C432 0.966 . S
C901 C445 1.741 . S
C897 C246 1.743 . S
C919 C475 1.171 . S
C915 C273 1.150 . S
C937 C485 1.334 . S
C933 C176 1.367 . S
C955 C355 1.654 . S
C951 C160 1.599 . S
C969 C289 1.799 . S
C973 C505 1.791 . S
C991 C535 1.636 . S
C987 C328 1.583 . S
C1009 C552 1.307 . S
C1005 C317 1.347 . S
C1023 C118 1.870 . S
C1027 C495 1.947 . S
C1041 C132 1.200 . S
C1045 C382 1.218 . S
C1059 C331 1.921 . S
C1063 C565 1.910 . S
C1081 C592 1.160 . S
C1077 C303 1.176 . S
C1099 C342 1.181 . S
C1095 C63 1.175 . S
C1117 C577 1.626 . S
C1113 C107 1.613 . S
C1131 C92 1.470 . S
C1135 C395 1.445 . S
C1149 C78 2.272 . S
C1153 C564 2.264 . S
C1171 C424 2.030 . S
C1167 C8 2.048 . S
C1185 C51 0.983 . S
C1189 C522 0.976 . S
C1207 C457 1.821 1_556 S
C1203 C37 1.797 . S
C1225 C602 0.964 . S
C1221 C20 0.966 . S
C1243 C337 1.236 . S
C1239 C147 1.198 . S
C1261 C584 1.631 . S
C1257 C316 1.660 . S
C1275 C119 1.663 . S
C1279 C385 1.653 . S
C1293 C288 0.971 . S
C1297 C562 0.960 . S
C1311 C148 1.253 1_545 S
C1315 C422 1.250 . S
C1333 C517 1.738 . S
C1329 C315 1.692 . S
C1347 C120 1.481 . S
C1351 C464 1.446 . S
C1365 C287 1.201 . S
C1369 C597 1.197 . S
C1383 C188 1.473 . S
C1387 C344 1.495 . S
C1401 C177 2.037 . S
C1405 C497 2.056 . S
C1419 C258 1.713 . S
C1423 C444 1.761 . S
C1437 C247 1.387 . S
C1441 C542 1.381 . S
C1459 C604 1.793 . S
C1455 C272 1.758 . S
C1473 C216 1.114 . S
C1477 C392 1.110 1_565 S
C1495 C397 2.117 . S
C1491 C261 2.101 . S
C1513 C362 1.172 . S
C1509 C205 1.188 . S
C1527 C76 1.218 . S
C1531 C632 1.232 . S
C1549 C585 1.349 . S
C1545 C93 1.357 . S
C1563 C105 1.307 . S
C1567 C644 1.357 . S
C1581 C62 1.725 . S
C1585 C575 1.706 . S
C1599 C49 1.467 . S
C1603 C515 1.468 . S
C1621 C532 1.217 . S
C1617 C9 1.238 . S
C1639 C545 1.477 . S
C1635 C22 1.484 . S
C1657 C612 1.346 . S
C1653 C36 1.378 . S
C1675 C625 1.350 . S
C1671 C260 1.382 . S
C1689 C189 1.303 . S
C1693 C595 1.314 . S
C1711 C637 1.635 . S
C1707 C204 1.691 . S
C1729 C572 0.728 . S
C1725 C217 0.711 . S
C1747 C512 1.133 . S
C1743 C259 1.120 . S
C1761 C190 1.818 . S
C1765 C525 1.812 . S
C1783 C555 1.328 . S
C1779 C203 1.295 . S
C1797 C218 1.455 . S
C1801 C605 1.425 . S
C1819 C635 1.593 . S
C1815 C314 1.540 . S
C1833 C135 1.853 . S
C1837 C425 1.841 . S
C1855 C455 1.592 . S
C1851 C146 1.507 . S
C1873 C472 1.349 1_565 S
C1869 C163 1.383 . S
C1891 C615 2.006 . S
C1887 C300 1.941 . S
C1905 C286 1.177 . S
C1909 C642 1.200 . S
C1927 C405 1.845 . S
C1923 C149 1.852 . S
C1945 C372 1.117 . S
C1941 C121 1.146 1_565 S
C1959 C91 1.118 . S
C1963 C622 1.134 . S
C1981 C357 1.272 . S
C1977 C77 1.267 . S
C1995 C64 1.432 . S
C1999 C655 1.408 . S
C2013 C104 1.897 . S
C2017 C404 1.901 . S
C2031 C34 1.666 . S
C2035 C504 1.689 1_556 S
C2053 C442 0.936 . S
C2049 C23 0.942 . S
C2067 C7 1.371 . S
C2071 C537 1.415 . S
C2085 C48 0.937 . S
C2089 C482 0.935 . S
C2107 C617 1.218 . S
C2103 C329 1.206 . S
C2121 C162 1.653 . S
C2125 C364 1.624 . S
C2143 C645 1.641 1_655 S
C2139 C301 1.649 . S
C2157 C134 0.993 . S
C2161 C402 0.977 . S
C2175 C330 1.263 . S
C2179 C502 1.245 . S
C2197 C437 1.719 . S
C2193 C161 1.673 . S
C2211 C302 1.475 . S
C2215 C544 1.445 . S
C2233 C477 1.186 . S
C2229 C133 1.184 . S
C2251 C624 1.749 . S
C2247 C244 1.728 . S
C2269 C417 2.036 1_565 S
C2265 C219 2.011 . S
C2283 C230 1.495 . S
C2287 C524 1.543 . S
C2305 C462 1.336 . S
C2301 C191 1.366 1_554 S
C2319 C202 2.002 . S
C2323 C484 2.037 . S
C2337 C174 1.288 . S
C2341 C652 1.300 . S
C2359 C557 2.111 . S
C2355 C233 2.080 1_565 S
C2377 C582 1.138 . S
C2373 C275 1.178 . S
