# Generated by pormake.
# Topology anh, (6,3)-cn, num edge types: 1
# Building blocks:
#     Node 0, Type 0, BuildingBlock: CUKXOW_clean_sbu_0, # of connection points: 6
#     Node 1, Type 0, BuildingBlock: CUKXOW_clean_sbu_0, # of connection points: 6
#     Node 2, Type 0, BuildingBlock: CUKXOW_clean_sbu_0, # of connection points: 6
#     Node 3, Type 1, BuildingBlock: OLANEW_clean_sbu_2, # of connection points: 3
#     Node 4, Type 1, BuildingBlock: OLANEW_clean_sbu_2, # of connection points: 3
#     Node 5, Type 1, BuildingBlock: OLANEW_clean_sbu_2, # of connection points: 3
#     Node 6, Type 1, BuildingBlock: OLANEW_clean_sbu_2, # of connection points: 3
#     Node 7, Type 1, BuildingBlock: OLANEW_clean_sbu_2, # of connection points: 3
#     Node 8, Type 1, BuildingBlock: OLANEW_clean_sbu_2, # of connection points: 3
#     Edge 9, Type (0, 1), BuildingBlock: TEMPAE_clean_linker_10, # of connection points: 2
#     Edge 10, Type (0, 1), BuildingBlock: TEMPAE_clean_linker_10, # of connection points: 2
#     Edge 11, Type (0, 1), BuildingBlock: TEMPAE_clean_linker_10, # of connection points: 2
#     Edge 12, Type (0, 1), BuildingBlock: TEMPAE_clean_linker_10, # of connection points: 2
#     Edge 13, Type (0, 1), BuildingBlock: TEMPAE_clean_linker_10, # of connection points: 2
#     Edge 14, Type (0, 1), BuildingBlock: TEMPAE_clean_linker_10, # of connection points: 2
#     Edge 15, Type (0, 1), BuildingBlock: TEMPAE_clean_linker_10, # of connection points: 2
#     Edge 16, Type (0, 1), BuildingBlock: TEMPAE_clean_linker_10, # of connection points: 2
#     Edge 17, Type (0, 1), BuildingBlock: TEMPAE_clean_linker_10, # of connection points: 2
#     Edge 18, Type (0, 1), BuildingBlock: TEMPAE_clean_linker_10, # of connection points: 2
#     Edge 19, Type (0, 1), BuildingBlock: TEMPAE_clean_linker_10, # of connection points: 2
#     Edge 20, Type (0, 1), BuildingBlock: TEMPAE_clean_linker_10, # of connection points: 2
#     Edge 21, Type (0, 1), BuildingBlock: TEMPAE_clean_linker_10, # of connection points: 2
#     Edge 22, Type (0, 1), BuildingBlock: TEMPAE_clean_linker_10, # of connection points: 2
#     Edge 23, Type (0, 1), BuildingBlock: TEMPAE_clean_linker_10, # of connection points: 2
#     Edge 24, Type (0, 1), BuildingBlock: TEMPAE_clean_linker_10, # of connection points: 2
#     Edge 25, Type (0, 1), BuildingBlock: TEMPAE_clean_linker_10, # of connection points: 2
#     Edge 26, Type (0, 1), BuildingBlock: TEMPAE_clean_linker_10, # of connection points: 2
# Relax obj value: 0.080
# Max RMSD: 0.150
# Mean RMSD: 0.110
data_MOF--net-anh--node1-CUKXOW_clean_sbu_0--node2-OLANEW_clean_sbu_2--edge1-TEMPAE_clean_linker_10
_symmetry_space_group_name_H-M    P1
_symmetry_Int_Tables_number       1
_symmetry_cell_setting            triclinic
loop_
_symmetry_equiv_pos_as_xyz
'x, y, z'
_cell_length_a     33.191641
_cell_length_b     31.803527
_cell_length_c     50.426781
_cell_angle_alpha  95.093005
_cell_angle_beta   90.230054
_cell_angle_gamma 116.14532
loop_
_atom_site_label
_atom_site_type_symbol
_atom_site_fract_x
_atom_site_fract_y
_atom_site_fract_z
_atom_type_partial_charge
Tb0 Tb 0.06425 0.5531 0.16545 0.0
C1 C 0.02329 0.51303 0.21884 0.0
Tb2 Tb 0.98926 0.4521 0.16199 0.0
O3 O 0.01508 0.58027 0.17554 0.0
O4 O 0.99617 0.51741 0.15134 0.0
O5 O 0.05695 0.54675 0.20781 0.0
C6 C 0.90727 0.38124 0.1632 0.0
O7 O 0.99268 0.47464 0.20475 0.0
C8 C 0.07094 0.45895 0.16439 0.0
C9 C 0.03519 0.49083 0.11034 0.0
O10 O 0.94136 0.37797 0.15237 0.0
O11 O 0.91953 0.42411 0.17353 0.0
O12 O 0.03631 0.42131 0.15419 0.0
O13 O 0.05744 0.48719 0.17538 0.0
O14 O 0.99598 0.4646 0.12023 0.0
O15 O 0.06947 0.52272 0.12572 0.0
C16 C 0.14112 0.63057 0.16273 0.0
O17 O 0.10524 0.61828 0.1476 0.0
O18 O 0.13346 0.59968 0.17955 0.0
C19 C 0.98162 0.54373 0.16345 0.0
Tb20 Tb 0.46411 0.99907 0.50125 0.0
C21 C 0.51397 0.03905 0.44995 0.0
Tb22 Tb 0.56312 0.07553 0.50752 0.0
O23 O 0.43813 0.05074 0.49532 0.0
O24 O 0.49922 0.07061 0.5157 0.0
O25 O 0.48256 1.00154 0.45979 0.0
C26 C 0.63682 0.15723 0.50864 0.0
O27 O 0.54575 0.07417 0.46539 0.0
C28 C 0.55027 0.98791 0.50532 0.0
C29 C 0.51534 0.03279 0.5588 0.0
O30 O 0.63478 0.11614 0.5012 0.0
O31 O 0.59751 0.15219 0.51562 0.0
O32 O 0.58469 0.02281 0.51799 0.0
O33 O 0.52795 0.00376 0.49282 0.0
O34 O 0.54921 0.06884 0.54942 0.0
O35 O 0.48069 1.0008 0.54358 0.0
C36 C 0.39204 0.91613 0.50152 0.0
O37 O 0.39486 0.94998 0.48785 0.0
O38 O 0.42954 0.92915 0.51508 0.0
C39 C 0.475 0.08609 0.50499 0.0
Tb40 Tb 0.51007 0.53065 0.82525 0.0
C41 C 0.55804 0.54288 0.88248 0.0
Tb42 Tb 0.60888 0.55168 0.82925 0.0
O43 O 0.49051 0.45678 0.81038 0.0
O44 O 0.54708 0.49444 0.8355 0.0
O45 O 0.52265 0.54055 0.86871 0.0
C46 C 0.68272 0.53882 0.82512 0.0
O47 O 0.59401 0.54291 0.87097 0.0
C48 C 0.59264 0.62548 0.83496 0.0
C49 C 0.5619 0.54296 0.77276 0.0
O50 O 0.68229 0.57922 0.83108 0.0
O51 O 0.64185 0.50617 0.82153 0.0
O52 O 0.62803 0.62465 0.84561 0.0
O53 O 0.57184 0.58838 0.81969 0.0
O54 O 0.59446 0.53865 0.78586 0.0
O55 O 0.52952 0.54909 0.78522 0.0
C56 C 0.43283 0.53688 0.82685 0.0
O57 O 0.44049 0.50688 0.81119 0.0
O58 O 0.46842 0.56301 0.84199 0.0
C59 C 0.526 0.45649 0.82106 0.0
O60 O 0.51038 0.04647 0.23592 0.0
Cd61 Cd 0.51657 0.04386 0.18759 0.0
O62 O 0.54233 0.99918 0.23831 0.0
Cd63 Cd 0.52776 0.97402 0.1961 0.0
O64 O 0.47005 0.91996 0.17255 0.0
C65 C 0.43309 0.92183 0.17667 0.0
O66 O 0.43372 0.95754 0.19224 0.0
C67 C 0.52741 0.02632 0.24985 0.0
C68 C 0.60004 0.11455 0.17691 0.0
O69 O 0.56449 0.12058 0.17479 0.0
O70 O 0.59594 0.07486 0.18339 0.0
O71 O 0.57037 0.54521 0.55925 0.0
Cd72 Cd 0.56261 0.52367 0.51124 0.0
O73 O 0.50296 0.54177 0.56418 0.0
Cd74 Cd 0.49942 0.56638 0.52546 0.0
O75 O 0.50166 0.63008 0.5103 0.0
C76 C 0.48069 0.64984 0.52323 0.0
O77 O 0.45739 0.62964 0.54337 0.0
C78 C 0.53878 0.54295 0.57409 0.0
C79 C 0.54538 0.42869 0.50484 0.0
O80 O 0.58536 0.46147 0.50961 0.0
O81 O 0.51349 0.44056 0.50207 0.0
O82 O 0.04773 0.52372 0.90139 0.0
Cd83 Cd 0.04941 0.53194 0.85366 0.0
O84 O 0.04209 0.45177 0.89642 0.0
Cd85 Cd 0.01768 0.4438 0.85534 0.0
O86 O 0.96554 0.4571 0.83717 0.0
C87 C 0.94108 0.46359 0.8548 0.0
O88 O 0.94924 0.45981 0.87978 0.0
C89 C 0.04803 0.48852 0.91149 0.0
C90 C 0.13145 0.53675 0.83831 0.0
O91 O 0.12713 0.57456 0.8441 0.0
O92 O 0.09666 0.49722 0.8385 0.0
O93 O 0.03234 0.5066 0.43138 0.0
Cd94 Cd 0.04594 0.51487 0.47959 0.0
O95 O 0.00244 0.55611 0.43288 0.0
Cd96 Cd 0.98591 0.54345 0.4741 0.0
O97 O 0.9317 0.48676 0.49211 0.0
C98 C 0.89991 0.46096 0.47524 0.0
O99 O 0.90301 0.47184 0.45054 0.0
C100 C 0.018 0.53131 0.41944 0.0
C101 C 0.1231 0.59922 0.49188 0.0
O102 O 0.12569 0.56104 0.48418 0.0
O103 O 0.08398 0.59729 0.49469 0.0
O104 O 0.52159 0.99904 0.77059 0.0
Cd105 Cd 0.54226 1.00168 0.8176 0.0
O106 O 0.59061 0.05069 0.76398 0.0
Cd107 Cd 0.59959 0.08798 0.80368 0.0
O108 O 0.60072 0.157 0.81414 0.0
C109 C 0.56788 0.16131 0.82475 0.0
O110 O 0.53385 0.12371 0.83193 0.0
C111 C 0.55226 0.01974 0.75476 0.0
C112 C 0.55267 0.92067 0.82546 0.0
O113 O 0.51575 0.92282 0.83045 0.0
O114 O 0.58475 0.95691 0.81722 0.0
O115 O 0.56364 0.50366 0.0927 0.0
Cd116 Cd 0.57659 0.49842 0.14 0.0
O117 O 0.50869 0.52571 0.09191 0.0
Cd118 Cd 0.47979 0.51755 0.13121 0.0
O119 O 0.41517 0.50829 0.14753 0.0
C120 C 0.39298 0.52398 0.1342 0.0
O121 O 0.41079 0.54527 0.11304 0.0
C122 C 0.53846 0.51687 0.08022 0.0
C123 C 0.66326 0.50504 0.14838 0.0
O124 O 0.62861 0.46494 0.14633 0.0
O125 O 0.65699 0.54175 0.1469 0.0
C126 C 0.12966 0.43759 0.14553 0.0
C127 C 0.11842 0.46772 0.1625 0.0
C128 C 0.17473 0.44662 0.14248 0.0
C129 C 0.20942 0.48698 0.15661 0.0
C130 C 0.19811 0.51706 0.17416 0.0
C131 C 0.15268 0.50669 0.17711 0.0
C132 C 0.18526 0.41351 0.12368 0.0
C133 C 0.23396 0.56069 0.18939 0.0
C134 C 0.32542 0.49018 0.1622 0.0
C135 C 0.34696 0.51651 0.1412 0.0
C136 C 0.28094 0.48101 0.16781 0.0
C137 C 0.25746 0.49862 0.15208 0.0
C138 C 0.27938 0.52609 0.13126 0.0
C139 C 0.32374 0.53465 0.12609 0.0
C140 C 0.25874 0.45166 0.19021 0.0
C141 C 0.25569 0.54575 0.11409 0.0
H142 H 0.10321 0.40727 0.13428 0.0
H143 H 0.14397 0.52916 0.19086 0.0
H144 H 0.2045 0.43243 0.10702 0.0
H145 H 0.20664 0.4009 0.13419 0.0
H146 H 0.15444 0.3825 0.11521 0.0
H147 H 0.21954 0.57965 0.2028 0.0
H148 H 0.25618 0.55123 0.20147 0.0
H149 H 0.25528 0.58507 0.17522 0.0
H150 H 0.34304 0.47606 0.17401 0.0
H151 H 0.34003 0.55521 0.10988 0.0
H152 H 0.22943 0.4188 0.1821 0.0
H153 H 0.24594 0.47105 0.20445 0.0
H154 H 0.28206 0.44214 0.20126 0.0
H155 H 0.22612 0.5165 0.10318 0.0
H156 H 0.27795 0.56787 0.09934 0.0
H157 H 0.24305 0.56731 0.12675 0.0
C158 C 0.67298 0.2449 0.51291 0.0
C159 C 0.6765 0.20273 0.50738 0.0
C160 C 0.70956 0.28841 0.50993 0.0
C161 C 0.75052 0.28958 0.50123 0.0
C162 C 0.75457 0.24707 0.49641 0.0
C163 C 0.71741 0.20408 0.49951 0.0
C164 C 0.70383 0.33292 0.51511 0.0
C165 C 0.79768 0.24688 0.48709 0.0
C166 C 0.82675 0.39065 0.46328 0.0
C167 C 0.86093 0.41835 0.48258 0.0
C168 C 0.79039 0.34908 0.46925 0.0
C169 C 0.78802 0.33475 0.4952 0.0
C170 C 0.82192 0.3629 0.51497 0.0
C171 C 0.85805 0.40443 0.50842 0.0
C172 C 0.75484 0.32008 0.44763 0.0
C173 C 0.82027 0.34879 0.54289 0.0
H174 H 0.64126 0.24383 0.51894 0.0
H175 H 0.72013 0.17143 0.49527 0.0
H176 H 0.73227 0.35995 0.52796 0.0
H177 H 0.7038 0.3476 0.49597 0.0
H178 H 0.67197 0.32661 0.5248 0.0
H179 H 0.79627 0.21121 0.48592 0.0
H180 H 0.80454 0.25972 0.46707 0.0
H181 H 0.82635 0.27114 0.50078 0.0
H182 H 0.82857 0.40115 0.44328 0.0
H183 H 0.88428 0.42568 0.52346 0.0
H184 H 0.72124 0.31487 0.45419 0.0
H185 H 0.7538 0.28472 0.44372 0.0
H186 H 0.76105 0.33677 0.42866 0.0
H187 H 0.78809 0.34407 0.55162 0.0
H188 H 0.84847 0.37526 0.55618 0.0
H189 H 0.82163 0.31449 0.54236 0.0
C190 C 0.60752 0.70646 0.85414 0.0
C191 C 0.58397 0.66731 0.83565 0.0
C192 C 0.60108 0.74729 0.85409 0.0
C193 C 0.57098 0.74922 0.83476 0.0
C194 C 0.54652 0.70934 0.81635 0.0
C195 C 0.553 0.66872 0.81719 0.0
C196 C 0.62706 0.78865 0.87443 0.0
C197 C 0.51454 0.71005 0.7952 0.0
C198 C 0.52845 0.84279 0.84385 0.0
C199 C 0.55783 0.87728 0.82848 0.0
C200 C 0.53277 0.80127 0.84648 0.0
C201 C 0.56666 0.79363 0.83295 0.0
C202 C 0.59625 0.82827 0.81732 0.0
C203 C 0.59178 0.86985 0.81551 0.0
C204 C 0.50112 0.7656 0.86374 0.0
C205 C 0.63223 0.82109 0.80214 0.0
H206 H 0.63121 0.70527 0.86857 0.0
H207 H 0.53466 0.63845 0.80288 0.0
H208 H 0.65065 0.81892 0.86424 0.0
H209 H 0.60377 0.79994 0.88512 0.0
H210 H 0.64662 0.78034 0.88927 0.0
H211 H 0.49725 0.67572 0.78283 0.0
H212 H 0.48876 0.71901 0.80455 0.0
H213 H 0.53322 0.73767 0.78194 0.0
H214 H 0.50227 0.84841 0.85403 0.0
H215 H 0.61439 0.89618 0.80345 0.0
H216 H 0.52057 0.75864 0.87926 0.0
H217 H 0.48117 0.73172 0.8515 0.0
H218 H 0.4776 0.77753 0.87366 0.0
H219 H 0.65544 0.81639 0.81614 0.0
H220 H 0.65216 0.85115 0.79061 0.0
H221 H 0.61667 0.78857 0.78814 0.0
C222 C 0.91828 0.55719 0.18234 0.0
C223 C 0.93416 0.5354 0.16252 0.0
C224 C 0.87324 0.54977 0.18145 0.0
C225 C 0.84387 0.52111 0.15974 0.0
C226 C 0.85983 0.49876 0.13977 0.0
C227 C 0.90461 0.50562 0.14164 0.0
C228 C 0.85721 0.57292 0.2036 0.0
C229 C 0.83009 0.46887 0.11597 0.0
C230 C 0.71681 0.4746 0.16353 0.0
C231 C 0.70927 0.50895 0.15167 0.0
C232 C 0.7605 0.47841 0.16675 0.0
C233 C 0.79729 0.51671 0.15711 0.0
C234 C 0.78964 0.55101 0.14473 0.0
C235 C 0.7459 0.54711 0.14256 0.0
C236 C 0.76736 0.44176 0.18069 0.0
C237 C 0.82762 0.59154 0.13339 0.0
H238 H 0.94101 0.57974 0.19868 0.0
H239 H 0.91688 0.48869 0.12631 0.0
H240 H 0.84848 0.59949 0.19573 0.0
H241 H 0.82631 0.54635 0.21167 0.0
H242 H 0.88301 0.59064 0.22017 0.0
H243 H 0.84755 0.4537 0.1023 0.0
H244 H 0.79959 0.43965 0.12259 0.0
H245 H 0.81878 0.49046 0.10467 0.0
H246 H 0.68861 0.44515 0.17072 0.0
H247 H 0.74021 0.5735 0.13313 0.0
H248 H 0.79186 0.45901 0.1979 0.0
H249 H 0.78164 0.42318 0.16697 0.0
H250 H 0.73555 0.41523 0.18797 0.0
H251 H 0.85287 0.61366 0.14949 0.0
H252 H 0.8158 0.61417 0.12345 0.0
H253 H 0.84488 0.5779 0.11868 0.0
C254 C 0.35217 0.83846 0.51947 0.0
C255 C 0.35296 0.86977 0.50138 0.0
C256 C 0.31529 0.79408 0.51959 0.0
C257 C 0.27887 0.78048 0.50078 0.0
C258 C 0.27978 0.81195 0.48232 0.0
C259 C 0.31672 0.85646 0.48301 0.0
C260 C 0.31542 0.76178 0.53977 0.0
C261 C 0.24198 0.7984 0.46163 0.0
C262 C 0.20299 0.65038 0.4828 0.0
C263 C 0.16396 0.64463 0.49589 0.0
C264 C 0.24083 0.69433 0.48444 0.0
C265 C 0.23997 0.73313 0.50008 0.0
C266 C 0.20126 0.72707 0.51417 0.0
C267 C 0.16345 0.683 0.5116 0.0
C268 C 0.28111 0.69962 0.46867 0.0
C269 C 0.19958 0.7673 0.53163 0.0
H270 H 0.3803 0.84879 0.53368 0.0
H271 H 0.3175 0.88062 0.46891 0.0
H272 H 0.28379 0.7491 0.55056 0.0
H273 H 0.31721 0.73042 0.52943 0.0
H274 H 0.34428 0.77936 0.55455 0.0
H275 H 0.24822 0.82662 0.44844 0.0
H276 H 0.23744 0.76596 0.44912 0.0
H277 H 0.21 0.7905 0.47153 0.0
H278 H 0.20339 0.62089 0.47045 0.0
H279 H 0.13342 0.67859 0.52188 0.0
H280 H 0.31177 0.71378 0.48204 0.0
H281 H 0.28681 0.72523 0.45384 0.0
H282 H 0.27684 0.66573 0.45797 0.0
H283 H 0.22876 0.78303 0.54623 0.0
H284 H 0.1682 0.756 0.54268 0.0
H285 H 0.20184 0.79534 0.51926 0.0
C286 C 0.51066 0.37449 0.80376 0.0
C287 C 0.53448 0.41467 0.82151 0.0
C288 C 0.51779 0.33418 0.80445 0.0
C289 C 0.54926 0.33405 0.82349 0.0
C290 C 0.57377 0.37482 0.84126 0.0
C291 C 0.56597 0.41458 0.84011 0.0
C292 C 0.49156 0.29169 0.78487 0.0
C293 C 0.60816 0.37642 0.86151 0.0
C294 C 0.53343 0.21414 0.84132 0.0
C295 C 0.56561 0.20703 0.82613 0.0
C296 C 0.52854 0.25582 0.84113 0.0
C297 C 0.55602 0.29097 0.82506 0.0
C298 C 0.58917 0.28441 0.81009 0.0
C299 C 0.59371 0.24265 0.81091 0.0
C300 C 0.49343 0.2619 0.8578 0.0
C301 C 0.61857 0.32046 0.79225 0.0
H302 H 0.48641 0.37457 0.78933 0.0
H303 H 0.58421 0.44549 0.85402 0.0
H304 H 0.51501 0.28217 0.77307 0.0
H305 H 0.47082 0.26107 0.79577 0.0
H306 H 0.46912 0.29781 0.77095 0.0
H307 H 0.62403 0.41066 0.87408 0.0
H308 H 0.59214 0.34785 0.87466 0.0
H309 H 0.63494 0.37043 0.8512 0.0
H310 H 0.51172 0.18691 0.85321 0.0
H311 H 0.61839 0.23733 0.7989 0.0
H312 H 0.46792 0.26456 0.84467 0.0
H313 H 0.50918 0.29513 0.87122 0.0
H314 H 0.47609 0.23221 0.87008 0.0
H315 H 0.59868 0.31769 0.77388 0.0
H316 H 0.64825 0.31495 0.78637 0.0
H317 H 0.63039 0.35675 0.80209 0.0
C318 C 0.5617 0.92372 0.52397 0.0
C319 C 0.53792 0.93747 0.50648 0.0
C320 C 0.55009 0.87592 0.52558 0.0
C321 C 0.51379 0.84105 0.50928 0.0
C322 C 0.4895 0.85482 0.49165 0.0
C323 C 0.50206 0.90294 0.49036 0.0
C324 C 0.57659 0.86274 0.54481 0.0
C325 C 0.45021 0.81881 0.47423 0.0
C326 C 0.51482 0.72163 0.49831 0.0
C327 C 0.48573 0.69696 0.5176 0.0
C328 C 0.52299 0.768 0.49471 0.0
C329 C 0.50162 0.79029 0.51078 0.0
C330 C 0.47081 0.76492 0.52949 0.0
C331 C 0.46327 0.71863 0.53268 0.0
C332 C 0.55569 0.79374 0.47433 0.0
C333 C 0.44705 0.78725 0.54687 0.0
H334 H 0.58933 0.95037 0.53653 0.0
H335 H 0.48371 0.91353 0.47674 0.0
H336 H 0.55386 0.84015 0.5592 0.0
H337 H 0.5919 0.84204 0.53382 0.0
H338 H 0.60372 0.89407 0.55614 0.0
H339 H 0.43513 0.83536 0.46144 0.0
H340 H 0.46115 0.79606 0.46129 0.0
H341 H 0.42382 0.79563 0.4868 0.0
H342 H 0.53217 0.70517 0.48648 0.0
H343 H 0.44049 0.69983 0.54751 0.0
H344 H 0.58554 0.82366 0.48456 0.0
H345 H 0.54 0.80858 0.4608 0.0
H346 H 0.56715 0.77052 0.46217 0.0
H347 H 0.47197 0.81653 0.56058 0.0
H348 H 0.42155 0.7617 0.55896 0.0
H349 H 0.43019 0.8025 0.53448 0.0
C350 C 0.71739 0.48379 0.82042 0.0
C351 C 0.72266 0.53009 0.82477 0.0
C352 C 0.75437 0.47394 0.82256 0.0
C353 C 0.79751 0.51134 0.82919 0.0
C354 C 0.80329 0.55839 0.83238 0.0
C355 C 0.76562 0.56723 0.83018 0.0
C356 C 0.74684 0.4233 0.81915 0.0
C357 C 0.84887 0.59914 0.83937 0.0
C358 C 0.87716 0.48069 0.86778 0.0
C359 C 0.90477 0.47619 0.84787 0.0
C360 C 0.84257 0.49274 0.86194 0.0
C361 C 0.83546 0.50065 0.83554 0.0
C362 C 0.86341 0.49664 0.81534 0.0
C363 C 0.89778 0.48432 0.82174 0.0
C364 C 0.81328 0.49647 0.88402 0.0
C365 C 0.85668 0.50491 0.78699 0.0
H366 H 0.6841 0.45501 0.8162 0.0
H367 H 0.76962 0.60305 0.83344 0.0
H368 H 0.77164 0.41922 0.8058 0.0
H369 H 0.75158 0.41243 0.83878 0.0
H370 H 0.71254 0.39907 0.81084 0.0
H371 H 0.84846 0.6337 0.83833 0.0
H372 H 0.86002 0.59768 0.85989 0.0
H373 H 0.87411 0.59679 0.82574 0.0
H374 H 0.88236 0.47454 0.88803 0.0
H375 H 0.91916 0.4811 0.8063 0.0
H376 H 0.77786 0.47045 0.87919 0.0
H377 H 0.81427 0.53194 0.88587 0.0
H378 H 0.82391 0.49017 0.9036 0.0
H379 H 0.8229 0.47883 0.77883 0.0
H380 H 0.88233 0.50208 0.77383 0.0
H381 H 0.85815 0.54035 0.78644 0.0
C382 C 0.19216 0.69907 0.1393 0.0
C383 C 0.18399 0.67271 0.1612 0.0
C384 C 0.23294 0.73953 0.13792 0.0
C385 C 0.26563 0.75426 0.15924 0.0
C386 C 0.25754 0.72732 0.18125 0.0
C387 C 0.21696 0.68657 0.18182 0.0
C388 C 0.24085 0.76675 0.11387 0.0
C389 C 0.29129 0.74213 0.20454 0.0
C390 C 0.38833 0.8398 0.15473 0.0
C391 C 0.38966 0.88112 0.16801 0.0
C392 C 0.34761 0.79872 0.15026 0.0
C393 C 0.30746 0.79901 0.15943 0.0
C394 C 0.30823 0.84137 0.17134 0.0
C395 C 0.34928 0.88194 0.17539 0.0
C396 C 0.34796 0.75438 0.13706 0.0
C397 C 0.26615 0.84315 0.18141 0.0
H398 H 0.16675 0.68797 0.12321 0.0
H399 H 0.21066 0.66603 0.19871 0.0
H400 H 0.24354 0.80233 0.11991 0.0
H401 H 0.27309 0.77161 0.10519 0.0
H402 H 0.2134 0.74886 0.09822 0.0
H403 H 0.28008 0.71688 0.21992 0.0
H404 H 0.32403 0.74522 0.19754 0.0
H405 H 0.29699 0.7773 0.21398 0.0
H406 H 0.41932 0.83894 0.14878 0.0
H407 H 0.34988 0.91379 0.18545 0.0
H408 H 0.32046 0.73717 0.12144 0.0
H409 H 0.34214 0.72907 0.15208 0.0
H410 H 0.38043 0.76144 0.1279 0.0
H411 H 0.23875 0.82789 0.16567 0.0
H412 H 0.27169 0.87963 0.18804 0.0
H413 H 0.25455 0.8217 0.1985 0.0
C414 C 0.51963 0.16488 0.48934 0.0
C415 C 0.48549 0.13611 0.50488 0.0
C416 C 0.52993 0.21259 0.4888 0.0
C417 C 0.50565 0.23199 0.50443 0.0
C418 C 0.47125 0.20293 0.52035 0.0
C419 C 0.46118 0.15506 0.5201 0.0
C420 C 0.56667 0.24218 0.47146 0.0
C421 C 0.44548 0.22253 0.53786 0.0
C422 C 0.56075 0.36502 0.52095 0.0
C423 C 0.53609 0.37863 0.50395 0.0
C424 C 0.5508 0.31738 0.52158 0.0
C425 C 0.51635 0.28268 0.50414 0.0
C426 C 0.49212 0.29644 0.48644 0.0
C427 C 0.5017 0.34422 0.48692 0.0
C428 C 0.57612 0.30413 0.54157 0.0
C429 C 0.45623 0.26073 0.4669 0.0
H430 H 0.53796 0.14998 0.47729 0.0
H431 H 0.43477 0.13256 0.53211 0.0
H432 H 0.55306 0.25784 0.45716 0.0
H433 H 0.59375 0.27169 0.48392 0.0
H434 H 0.58168 0.22147 0.4601 0.0
H435 H 0.42078 0.19564 0.54967 0.0
H436 H 0.46913 0.25239 0.55179 0.0
H437 H 0.42728 0.2364 0.52548 0.0
H438 H 0.5869 0.39157 0.53442 0.0
H439 H 0.48274 0.35477 0.47371 0.0
H440 H 0.58865 0.27985 0.53182 0.0
H441 H 0.553 0.28523 0.55693 0.0
H442 H 0.60501 0.3354 0.55167 0.0
H443 H 0.47045 0.2406 0.45431 0.0
H444 H 0.44181 0.27737 0.45372 0.0
H445 H 0.42867 0.2351 0.4778 0.0
C446 C 0.36072 0.52313 0.80458 0.0
C447 C 0.39045 0.54086 0.827 0.0
C448 C 0.31958 0.52554 0.80453 0.0
C449 C 0.30753 0.54478 0.82779 0.0
C450 C 0.33781 0.56327 0.8504 0.0
C451 C 0.37937 0.56173 0.84957 0.0
C452 C 0.28868 0.50668 0.7798 0.0
C453 C 0.3256 0.58295 0.87579 0.0
C454 C 0.21136 0.57871 0.82579 0.0
C455 C 0.17585 0.53824 0.8337 0.0
C456 C 0.25433 0.58098 0.82305 0.0
C457 C 0.26197 0.5424 0.82915 0.0
C458 C 0.22612 0.50143 0.83704 0.0
C459 C 0.18334 0.49963 0.83886 0.0
C460 C 0.29157 0.62466 0.81383 0.0
C461 C 0.23318 0.45997 0.84428 0.0
H462 H 0.36971 0.5075 0.78701 0.0
H463 H 0.40254 0.57539 0.86689 0.0
H464 H 0.258 0.47492 0.78382 0.0
H465 H 0.27783 0.53321 0.77417 0.0
H466 H 0.30492 0.49714 0.76262 0.0
H467 H 0.35346 0.59716 0.8913 0.0
H468 H 0.31648 0.61144 0.87169 0.0
H469 H 0.29575 0.5549 0.88386 0.0
H470 H 0.20552 0.60853 0.82172 0.0
H471 H 0.15604 0.46847 0.84528 0.0
H472 H 0.30698 0.61503 0.79629 0.0
H473 H 0.31842 0.64205 0.82982 0.0
H474 H 0.27946 0.65038 0.8084 0.0
H475 H 0.24584 0.44589 0.82707 0.0
H476 H 0.20182 0.43104 0.8504 0.0
H477 H 0.25896 0.47145 0.86088 0.0
C478 C 0.84915 0.30044 0.14741 0.0
C479 C 0.86171 0.3426 0.16376 0.0
C480 C 0.8058 0.26338 0.1479 0.0
C481 C 0.77488 0.26833 0.16568 0.0
C482 C 0.78745 0.31107 0.18212 0.0
C483 C 0.83061 0.34795 0.1807 0.0
C484 C 0.79318 0.21888 0.12951 0.0
C485 C 0.75576 0.31748 0.20167 0.0
C486 C 0.64977 0.18718 0.15606 0.0
C487 C 0.64478 0.15294 0.17314 0.0
C488 C 0.69217 0.22438 0.15289 0.0
C489 C 0.73002 0.22816 0.16786 0.0
C490 C 0.72499 0.1938 0.18529 0.0
C491 C 0.68253 0.15617 0.18738 0.0
C492 C 0.6965 0.25954 0.1335 0.0
C493 C 0.76426 0.19735 0.20219 0.0
H494 H 0.87312 0.29657 0.13409 0.0
H495 H 0.84034 0.38069 0.19329 0.0
H496 H 0.78658 0.18895 0.14137 0.0
H497 H 0.76178 0.21028 0.11768 0.0
H498 H 0.81998 0.22192 0.11559 0.0
H499 H 0.77085 0.35287 0.21308 0.0
H500 H 0.72447 0.31255 0.19101 0.0
H501 H 0.74615 0.29041 0.21595 0.0
H502 H 0.62059 0.18453 0.14493 0.0
H503 H 0.67861 0.12997 0.20082 0.0
H504 H 0.72209 0.26152 0.11892 0.0
H505 H 0.70815 0.29513 0.14428 0.0
H506 H 0.66422 0.2503 0.12243 0.0
H507 H 0.79099 0.19673 0.18927 0.0
H508 H 0.75448 0.16824 0.21515 0.0
H509 H 0.77893 0.23135 0.21498 0.0
C510 C 0.00191 0.46467 0.0639 0.0
C511 C 0.04008 0.48676 0.08128 0.0
C512 C 0.00581 0.46373 0.03622 0.0
C513 C 0.04895 0.48487 0.02571 0.0
C514 C 0.08772 0.5056 0.04312 0.0
C515 C 0.0828 0.50658 0.07075 0.0
C516 C 0.96365 0.44156 0.01826 0.0
C517 C 0.13428 0.52787 0.0326 0.0
C518 C 0.05449 0.45162 0.95215 0.0
C519 C 0.05243 0.48936 0.94076 0.0
C520 C 0.05501 0.45042 0.9799 0.0
C521 C 0.05306 0.48763 0.99656 0.0
C522 C 0.05242 0.5265 0.98524 0.0
C523 C 0.05229 0.52697 0.95748 0.0
C524 C 0.05628 0.4087 0.99134 0.0
C525 C 0.05022 0.5668 0.00238 0.0
H526 H 0.9688 0.44936 0.07191 0.0
H527 H 0.11247 0.52327 0.0841 0.0
H528 H 0.96092 0.46878 0.00707 0.0
H529 H 0.96519 0.41449 0.0034 0.0
H530 H 0.9328 0.42486 0.02956 0.0
H531 H 0.16097 0.53864 0.04865 0.0
H532 H 0.13864 0.50301 0.01735 0.0
H533 H 0.13894 0.55944 0.02277 0.0
H534 H 0.05489 0.42257 0.93939 0.0
H535 H 0.05078 0.55633 0.94887 0.0
H536 H 0.02419 0.38851 0.00082 0.0
H537 H 0.08357 0.42077 0.00707 0.0
H538 H 0.0615 0.38466 0.97589 0.0
H539 H 0.01839 0.55373 0.01298 0.0
H540 H 0.05196 0.59536 0.99055 0.0
H541 H 0.07822 0.58187 0.01776 0.0
C542 C 0.47976 0.00762 0.40383 0.0
C543 C 0.51559 0.04043 0.42069 0.0
C544 C 0.48157 0.00757 0.37603 0.0
C545 C 0.52031 0.04084 0.36483 0.0
C546 C 0.55628 0.07453 0.38173 0.0
C547 C 0.5534 0.07407 0.40946 0.0
C548 C 0.44234 0.97137 0.35863 0.0
C549 C 0.59825 0.11036 0.37051 0.0
C550 C 0.54376 0.00735 0.29454 0.0
C551 C 0.52786 0.03234 0.27936 0.0
C552 C 0.54197 0.0103 0.32238 0.0
C553 C 0.52394 0.03901 0.33542 0.0
C554 C 0.50865 0.06508 0.32033 0.0
C555 C 0.51076 0.06141 0.29246 0.0
C556 C 0.5587 0.98204 0.33782 0.0
C557 C 0.48934 0.09616 0.33358 0.0
H558 H 0.45026 0.98176 0.41233 0.0
H559 H 0.58127 0.09959 0.42231 0.0
H560 H 0.43026 0.98901 0.34475 0.0
H561 H 0.4532 0.94787 0.34631 0.0
H562 H 0.41385 0.94942 0.37046 0.0
H563 H 0.6224 0.1354 0.38636 0.0
H564 H 0.6152 0.09211 0.35881 0.0
H565 H 0.58943 0.13066 0.35673 0.0
H566 H 0.55704 0.98481 0.28464 0.0
H567 H 0.49844 0.08088 0.28091 0.0
H568 H 0.53072 0.95641 0.34848 0.0
H569 H 0.58494 0.00563 0.35309 0.0
H570 H 0.57292 0.96245 0.32475 0.0
H571 H 0.45885 0.07453 0.34405 0.0
H572 H 0.4802 0.11526 0.31909 0.0
H573 H 0.5139 0.12231 0.34882 0.0
C574 C 0.57438 0.51368 0.72753 0.0
C575 C 0.56313 0.5446 0.74373 0.0
C576 C 0.57165 0.51236 0.69964 0.0
C577 C 0.55886 0.54384 0.68794 0.0
C578 C 0.54923 0.57641 0.70438 0.0
C579 C 0.55073 0.57581 0.7321 0.0
C580 C 0.58092 0.47628 0.68272 0.0
C581 C 0.53688 0.61155 0.69271 0.0
C582 C 0.58639 0.5676 0.61618 0.0
C583 C 0.54407 0.54217 0.60304 0.0
C584 C 0.59177 0.56849 0.64387 0.0
C585 C 0.55417 0.54199 0.6585 0.0
C586 C 0.51159 0.51515 0.64515 0.0
C587 C 0.50689 0.51624 0.6176 0.0
C588 C 0.63736 0.59876 0.65753 0.0
C589 C 0.47098 0.48542 0.65998 0.0
H590 H 0.58356 0.4893 0.73665 0.0
H591 H 0.5424 0.6 0.74475 0.0
H592 H 0.55041 0.45245 0.67021 0.0
H593 H 0.608 0.49387 0.66901 0.0
H594 H 0.59096 0.45472 0.69493 0.0
H595 H 0.53373 0.63674 0.70832 0.0
H596 H 0.56264 0.63173 0.67886 0.0
H597 H 0.50443 0.59279 0.68101 0.0
H598 H 0.61509 0.58792 0.6049 0.0
H599 H 0.47424 0.49622 0.60735 0.0
H600 H 0.64867 0.57696 0.6686 0.0
H601 H 0.63512 0.62557 0.67231 0.0
H602 H 0.66319 0.61709 0.64323 0.0
H603 H 0.47851 0.46145 0.67159 0.0
H604 H 0.44112 0.46397 0.64637 0.0
H605 H 0.46241 0.50834 0.67439 0.0
C606 C 0.5351 0.06677 0.60616 0.0
C607 C 0.51665 0.0272 0.58741 0.0
C608 C 0.53772 0.06181 0.63339 0.0
C609 C 0.52291 0.01624 0.64187 0.0
C610 C 0.50435 0.97615 0.62294 0.0
C611 C 0.50082 0.98211 0.59592 0.0
C612 C 0.55665 0.10537 0.65306 0.0
C613 C 0.48949 0.92713 0.63109 0.0
C614 C 0.57675 0.01653 0.70833 0.0
C615 C 0.54259 0.01203 0.7257 0.0
C616 C 0.56986 0.01523 0.68075 0.0
C617 C 0.52832 0.01099 0.67049 0.0
C618 C 0.49323 0.00503 0.68789 0.0
C619 C 0.5006 0.00491 0.71532 0.0
C620 C 0.60759 0.02013 0.66274 0.0
C621 C 0.44888 1.00156 0.67779 0.0
H622 H 0.5471 0.10161 0.59954 0.0
H623 H 0.48707 0.95151 0.58131 0.0
H624 H 0.53273 0.10202 0.66897 0.0
H625 H 0.58833 0.10933 0.66279 0.0
H626 H 0.56374 0.13785 0.64342 0.0
H627 H 0.47531 0.89964 0.61393 0.0
H628 H 0.51851 0.92436 0.64035 0.0
H629 H 0.4638 0.91983 0.64627 0.0
H630 H 0.60916 0.02178 0.71638 0.0
H631 H 0.47432 0.00193 0.72881 0.0
H632 H 0.62093 0.05469 0.65451 0.0
H633 H 0.59504 0.99245 0.64564 0.0
H634 H 0.63568 0.01763 0.67342 0.0
H635 H 0.45435 0.03523 0.67011 0.0
H636 H 0.42412 0.99405 0.6936 0.0
H637 H 0.4343 0.97353 0.66098 0.0
C638 C 0.515 0.51366 0.92272 0.0
C639 C 0.55577 0.54111 0.91157 0.0
C640 C 0.51287 0.50934 0.9502 0.0
C641 C 0.55218 0.53435 0.96697 0.0
C642 C 0.59324 0.563 0.95583 0.0
C643 C 0.59469 0.56538 0.92815 0.0
C644 C 0.46875 0.4774 0.96122 0.0
C645 C 0.63552 0.59136 0.97314 0.0
C646 C 0.53367 0.55557 0.0402 0.0
C647 C 0.54358 0.52223 0.05143 0.0
C648 C 0.53747 0.5607 0.01285 0.0
C649 C 0.55016 0.53077 0.9962 0.0
C650 C 0.56011 0.49692 0.00742 0.0
C651 C 0.55736 0.49355 0.03501 0.0
C652 C 0.52784 0.59812 0.00179 0.0
C653 C 0.57264 0.46357 0.9902 0.0
H654 H 0.48501 0.4944 0.90983 0.0
H655 H 0.62618 0.58677 0.91949 0.0
H656 H 0.47296 0.45048 0.97194 0.0
H657 H 0.45786 0.49803 0.97584 0.0
H658 H 0.4417 0.45917 0.94537 0.0
H659 H 0.66428 0.61323 0.96145 0.0
H660 H 0.62958 0.61482 0.98861 0.0
H661 H 0.64489 0.56753 0.98364 0.0
H662 H 0.5234 0.57811 0.05291 0.0
H663 H 0.56473 0.46751 0.04362 0.0
H664 H 0.49841 0.58146 0.98742 0.0
H665 H 0.55688 0.62128 0.99077 0.0
H666 H 0.52083 0.62024 0.01764 0.0
H667 H 0.54523 0.44265 0.97495 0.0
H668 H 0.57894 0.43898 0.00198 0.0
H669 H 0.60323 0.48368 0.97941 0.0
C670 C 0.05672 0.55318 0.26398 0.0
C671 C 0.02112 0.51737 0.24823 0.0
C672 C 0.05593 0.5569 0.29187 0.0
C673 C 0.01854 0.52418 0.30432 0.0
C674 C 0.98209 0.48851 0.28857 0.0
C675 C 0.98387 0.48545 0.2607 0.0
C676 C 0.0955 0.59531 0.30803 0.0
C677 C 0.94153 0.45317 0.30118 0.0
C678 C 0.03631 0.50314 0.37535 0.0
C679 C 0.01863 0.53021 0.39001 0.0
C680 C 0.03642 0.50086 0.34746 0.0
C681 C 0.01837 0.52625 0.33387 0.0
C682 C 1.00056 0.55376 0.34849 0.0
C683 C 1.00093 0.55546 0.37642 0.0
C684 C 0.05584 0.47125 0.33254 0.0
C685 C 0.98103 0.58129 0.33463 0.0
H686 H 0.08569 0.57804 0.25458 0.0
H687 H 0.95606 0.45787 0.24871 0.0
H688 H 0.08405 0.6169 0.32155 0.0
H689 H 0.1114 0.57942 0.32069 0.0
H690 H 0.12134 0.61886 0.29527 0.0
H691 H 0.91524 0.42877 0.28611 0.0
H692 H 0.95178 0.43209 0.31359 0.0
H693 H 0.92669 0.47165 0.31456 0.0
H694 H 0.05007 0.48349 0.38566 0.0
H695 H 0.98714 0.57639 0.38756 0.0
H696 H 0.08385 0.49355 0.32056 0.0
H697 H 0.02987 0.44385 0.31844 0.0
H698 H 0.06862 0.45368 0.3461 0.0
H699 H 0.0069 0.60684 0.32278 0.0
H700 H 0.96833 0.60081 0.34889 0.0
H701 H 0.95296 0.55712 0.32053 0.0
loop_
_geom_bond_atom_site_label_1
_geom_bond_atom_site_label_2
_geom_bond_distance
_geom_bond_site_symmetry_2
_ccdc_geom_bond_type
Tb0 O3 2.453 1_455 S
Tb0 O4 2.596 1_455 S
Tb0 O5 2.374 . S
Tb0 O13 2.343 . S
Tb0 O15 2.353 . S
Tb0 O17 2.427 . S
Tb0 O18 2.513 . S
C1 O5 1.251 . S
C1 O7 1.263 . S
Tb2 O4 2.343 1_455 S
Tb2 O7 2.353 . S
Tb2 O10 2.427 1_455 S
Tb2 O11 2.513 1_455 S
Tb2 O12 2.453 . S
Tb2 O13 2.596 . S
Tb2 O14 2.374 . S
O3 Tb0 2.453 1_655 S
O3 C19 1.245 . S
O4 Tb0 2.596 1_655 S
O4 Tb2 2.343 1_655 S
O4 C19 1.259 . S
O5 Tb0 2.374 . S
O5 C1 1.251 . S
C6 O10 1.275 . S
C6 O11 1.246 . S
O7 C1 1.263 . S
O7 Tb2 2.353 . S
C8 O12 1.245 . S
C8 O13 1.259 . S
C9 O14 1.250 . S
C9 O15 1.263 . S
O10 Tb2 2.427 1_655 S
O10 C6 1.275 . S
O11 Tb2 2.513 1_655 S
O11 C6 1.246 . S
O12 Tb2 2.453 . S
O12 C8 1.245 . S
O13 Tb0 2.343 . S
O13 Tb2 2.596 . S
O13 C8 1.259 . S
O14 Tb2 2.374 . S
O14 C9 1.250 . S
O15 Tb0 2.353 . S
O15 C9 1.263 . S
C16 O17 1.275 . S
C16 O18 1.246 . S
O17 Tb0 2.427 . S
O17 C16 1.275 . S
O18 Tb0 2.513 . S
O18 C16 1.246 . S
C19 O3 1.245 . S
C19 O4 1.259 . S
Tb20 O23 2.453 . S
Tb20 O24 2.596 . S
Tb20 O25 2.374 . S
Tb20 O33 2.343 1_545 S
Tb20 O35 2.353 . S
Tb20 O37 2.427 1_545 S
Tb20 O38 2.513 1_545 S
C21 O25 1.251 . S
C21 O27 1.263 . S
Tb22 O24 2.343 . S
Tb22 O27 2.353 . S
Tb22 O30 2.427 . S
Tb22 O31 2.513 . S
Tb22 O32 2.453 1_545 S
Tb22 O33 2.596 1_545 S
Tb22 O34 2.374 . S
O23 Tb20 2.453 . S
O23 C39 1.245 . S
O24 Tb20 2.596 . S
O24 Tb22 2.343 . S
O24 C39 1.259 . S
O25 Tb20 2.374 . S
O25 C21 1.251 . S
C26 O30 1.275 . S
C26 O31 1.246 . S
O27 C21 1.263 . S
O27 Tb22 2.353 . S
C28 O32 1.245 . S
C28 O33 1.259 . S
C29 O34 1.250 . S
C29 O35 1.263 . S
O30 Tb22 2.427 . S
O30 C26 1.275 . S
O31 Tb22 2.513 . S
O31 C26 1.246 . S
O32 Tb22 2.453 1_565 S
O32 C28 1.245 . S
O33 Tb20 2.343 1_565 S
O33 Tb22 2.596 1_565 S
O33 C28 1.259 . S
O34 Tb22 2.374 . S
O34 C29 1.250 . S
O35 Tb20 2.353 . S
O35 C29 1.263 . S
C36 O37 1.275 . S
C36 O38 1.246 . S
O37 Tb20 2.427 1_565 S
O37 C36 1.275 . S
O38 Tb20 2.513 1_565 S
O38 C36 1.246 . S
C39 O23 1.245 . S
C39 O24 1.259 . S
Tb40 O43 2.453 . S
Tb40 O44 2.596 . S
Tb40 O45 2.374 . S
Tb40 O53 2.343 . S
Tb40 O55 2.353 . S
Tb40 O57 2.427 . S
Tb40 O58 2.513 . S
C41 O45 1.251 . S
C41 O47 1.263 . S
Tb42 O44 2.343 . S
Tb42 O47 2.353 . S
Tb42 O50 2.427 . S
Tb42 O51 2.513 . S
Tb42 O52 2.453 . S
Tb42 O53 2.596 . S
Tb42 O54 2.374 . S
O43 Tb40 2.453 . S
O43 C59 1.245 . S
O44 Tb40 2.596 . S
O44 Tb42 2.343 . S
O44 C59 1.259 . S
O45 Tb40 2.374 . S
O45 C41 1.251 . S
C46 O50 1.275 . S
C46 O51 1.246 . S
O47 C41 1.263 . S
O47 Tb42 2.353 . S
C48 O52 1.245 . S
C48 O53 1.259 . S
C49 O54 1.250 . S
C49 O55 1.263 . S
O50 Tb42 2.427 . S
O50 C46 1.275 . S
O51 Tb42 2.513 . S
O51 C46 1.246 . S
O52 Tb42 2.453 . S
O52 C48 1.245 . S
O53 Tb40 2.343 . S
O53 Tb42 2.596 . S
O53 C48 1.259 . S
O54 Tb42 2.374 . S
O54 C49 1.250 . S
O55 Tb40 2.353 . S
O55 C49 1.263 . S
C56 O57 1.275 . S
C56 O58 1.246 . S
O57 Tb40 2.427 . S
O57 C56 1.275 . S
O58 Tb40 2.513 . S
O58 C56 1.246 . S
C59 O43 1.245 . S
C59 O44 1.259 . S
O60 Cd61 2.300 . S
O60 C67 1.275 . S
Cd61 O60 2.300 . S
Cd61 O69 2.381 . S
Cd61 O70 2.378 . S
O62 Cd63 2.385 1_545 S
O62 C67 1.255 . S
Cd63 O62 2.385 1_565 S
Cd63 O64 2.317 . S
O64 Cd63 2.317 . S
O64 C65 1.232 . S
C65 O64 1.232 . S
C65 O66 1.218 . S
O66 C65 1.218 . S
C67 O60 1.275 . S
C67 O62 1.255 . S
C68 O69 1.258 . S
C68 O70 1.256 . S
O69 Cd61 2.381 . S
O69 C68 1.258 . S
O70 Cd61 2.378 . S
O70 C68 1.256 . S
O71 Cd72 2.300 . S
O71 C78 1.275 . S
Cd72 O71 2.300 . S
Cd72 O80 2.381 . S
Cd72 O81 2.378 . S
O73 Cd74 2.385 . S
O73 C78 1.255 . S
Cd74 O73 2.385 . S
Cd74 O75 2.317 . S
O75 Cd74 2.317 . S
O75 C76 1.232 . S
C76 O75 1.232 . S
C76 O77 1.218 . S
O77 C76 1.218 . S
C78 O71 1.275 . S
C78 O73 1.255 . S
C79 O80 1.258 . S
C79 O81 1.256 . S
O80 Cd72 2.381 . S
O80 C79 1.258 . S
O81 Cd72 2.378 . S
O81 C79 1.256 . S
O82 Cd83 2.300 . S
O82 C89 1.275 . S
Cd83 O82 2.300 . S
Cd83 O91 2.381 . S
Cd83 O92 2.378 . S
O84 Cd85 2.385 1_455 S
O84 C89 1.255 . S
Cd85 O84 2.385 1_655 S
Cd85 O86 2.317 . S
O86 Cd85 2.317 . S
O86 C87 1.232 . S
C87 O86 1.232 . S
C87 O88 1.218 . S
O88 C87 1.218 . S
C89 O82 1.275 . S
C89 O84 1.255 . S
C90 O91 1.258 . S
C90 O92 1.256 . S
O91 Cd83 2.381 . S
O91 C90 1.258 . S
O92 Cd83 2.378 . S
O92 C90 1.256 . S
O93 Cd94 2.300 . S
O93 C100 1.275 1_455 S
Cd94 O93 2.300 . S
Cd94 O102 2.381 . S
Cd94 O103 2.378 . S
O95 Cd96 2.385 . S
O95 C100 1.255 . S
Cd96 O95 2.385 . S
Cd96 O97 2.317 . S
O97 Cd96 2.317 . S
O97 C98 1.232 . S
C98 O97 1.232 . S
C98 O99 1.218 . S
O99 C98 1.218 . S
C100 O93 1.275 1_655 S
C100 O95 1.255 . S
C101 O102 1.258 . S
C101 O103 1.256 . S
O102 Cd94 2.381 . S
O102 C101 1.258 . S
O103 Cd94 2.378 . S
O103 C101 1.256 . S
O104 Cd105 2.300 . S
O104 C111 1.275 1_565 S
Cd105 O104 2.300 . S
Cd105 O113 2.381 . S
Cd105 O114 2.378 . S
O106 Cd107 2.385 . S
O106 C111 1.255 . S
Cd107 O106 2.385 . S
Cd107 O108 2.317 . S
O108 Cd107 2.317 . S
O108 C109 1.232 . S
C109 O108 1.232 . S
C109 O110 1.218 . S
O110 C109 1.218 . S
C111 O104 1.275 1_545 S
C111 O106 1.255 . S
C112 O113 1.258 . S
C112 O114 1.256 . S
O113 Cd105 2.381 . S
O113 C112 1.258 . S
O114 Cd105 2.378 . S
O114 C112 1.256 . S
O115 Cd116 2.300 . S
O115 C122 1.275 . S
Cd116 O115 2.300 . S
Cd116 O124 2.381 . S
Cd116 O125 2.378 . S
O117 Cd118 2.385 . S
O117 C122 1.255 . S
Cd118 O117 2.385 . S
Cd118 O119 2.317 . S
O119 Cd118 2.317 . S
O119 C120 1.232 . S
C120 O119 1.232 . S
C120 O121 1.218 . S
O121 C120 1.218 . S
C122 O115 1.275 . S
C122 O117 1.255 . S
C123 O124 1.258 . S
C123 O125 1.256 . S
O124 Cd116 2.381 . S
O124 C123 1.258 . S
O125 Cd116 2.378 . S
O125 C123 1.256 . S
C126 C127 1.391 . S
C126 C128 1.394 . S
C126 H142 0.931 . S
C127 C126 1.391 . S
C127 C131 1.376 . S
C128 C126 1.394 . S
C128 C129 1.369 . S
C128 C132 1.531 . S
C129 C128 1.369 . S
C129 C130 1.410 . S
C129 C137 1.503 . S
C130 C129 1.410 . S
C130 C131 1.392 . S
C130 C133 1.511 . S
C131 C127 1.376 . S
C131 C130 1.392 . S
C131 H143 0.929 . S
C132 C128 1.531 . S
C132 H144 0.960 . S
C132 H145 0.962 . S
C132 H146 0.960 . S
C133 C130 1.511 . S
C133 H147 0.961 . S
C133 H148 0.961 . S
C133 H149 0.961 . S
C134 C135 1.370 . S
C134 C136 1.363 . S
C134 H150 0.931 . S
C135 C134 1.370 . S
C135 C139 1.408 . S
C136 C134 1.363 . S
C136 C137 1.370 . S
C136 C140 1.524 . S
C137 C129 1.503 . S
C137 C136 1.370 . S
C137 C138 1.403 . S
C138 C137 1.403 . S
C138 C139 1.404 . S
C138 C141 1.539 . S
C139 C135 1.408 . S
C139 C138 1.404 . S
C139 H151 0.930 . S
C140 C136 1.524 . S
C140 H152 0.956 . S
C140 H153 0.961 . S
C140 H154 0.961 . S
C141 C138 1.539 . S
C141 H155 0.958 . S
C141 H156 0.961 . S
C141 H157 0.960 . S
H142 C126 0.931 . S
H143 C131 0.929 . S
H144 C132 0.960 . S
H145 C132 0.962 . S
H146 C132 0.960 . S
H147 C133 0.961 . S
H148 C133 0.961 . S
H149 C133 0.961 . S
H150 C134 0.931 . S
H151 C139 0.930 . S
H152 C140 0.956 . S
H153 C140 0.961 . S
H154 C140 0.961 . S
H155 C141 0.958 . S
H156 C141 0.961 . S
H157 C141 0.960 . S
C158 C159 1.391 . S
C158 C160 1.394 . S
C158 H174 0.931 . S
C159 C158 1.391 . S
C159 C163 1.376 . S
C160 C158 1.394 . S
C160 C161 1.369 . S
C160 C164 1.531 . S
C161 C160 1.369 . S
C161 C162 1.410 . S
C161 C169 1.503 . S
C162 C161 1.410 . S
C162 C163 1.392 . S
C162 C165 1.511 . S
C163 C159 1.376 . S
C163 C162 1.392 . S
C163 H175 0.929 . S
C164 C160 1.531 . S
C164 H176 0.960 . S
C164 H177 0.962 . S
C164 H178 0.960 . S
C165 C162 1.511 . S
C165 H179 0.961 . S
C165 H180 0.961 . S
C165 H181 0.961 . S
C166 C167 1.370 . S
C166 C168 1.363 . S
C166 H182 0.931 . S
C167 C166 1.370 . S
C167 C171 1.408 . S
C168 C166 1.363 . S
C168 C169 1.370 . S
C168 C172 1.524 . S
C169 C161 1.503 . S
C169 C168 1.370 . S
C169 C170 1.403 . S
C170 C169 1.403 . S
C170 C171 1.404 . S
C170 C173 1.539 . S
C171 C167 1.408 . S
C171 C170 1.404 . S
C171 H183 0.930 . S
C172 C168 1.524 . S
C172 H184 0.956 . S
C172 H185 0.961 . S
C172 H186 0.961 . S
C173 C170 1.539 . S
C173 H187 0.958 . S
C173 H188 0.961 . S
C173 H189 0.960 . S
H174 C158 0.931 . S
H175 C163 0.929 . S
H176 C164 0.960 . S
H177 C164 0.962 . S
H178 C164 0.960 . S
H179 C165 0.961 . S
H180 C165 0.961 . S
H181 C165 0.961 . S
H182 C166 0.931 . S
H183 C171 0.930 . S
H184 C172 0.956 . S
H185 C172 0.961 . S
H186 C172 0.961 . S
H187 C173 0.958 . S
H188 C173 0.961 . S
H189 C173 0.960 . S
C190 C191 1.391 . S
C190 C192 1.394 . S
C190 H206 0.931 . S
C191 C190 1.391 . S
C191 C195 1.376 . S
C192 C190 1.394 . S
C192 C193 1.369 . S
C192 C196 1.531 . S
C193 C192 1.369 . S
C193 C194 1.410 . S
C193 C201 1.503 . S
C194 C193 1.410 . S
C194 C195 1.392 . S
C194 C197 1.511 . S
C195 C191 1.376 . S
C195 C194 1.392 . S
C195 H207 0.929 . S
C196 C192 1.531 . S
C196 H208 0.960 . S
C196 H209 0.962 . S
C196 H210 0.960 . S
C197 C194 1.511 . S
C197 H211 0.961 . S
C197 H212 0.961 . S
C197 H213 0.961 . S
C198 C199 1.370 . S
C198 C200 1.363 . S
C198 H214 0.931 . S
C199 C198 1.370 . S
C199 C203 1.408 . S
C200 C198 1.363 . S
C200 C201 1.370 . S
C200 C204 1.524 . S
C201 C193 1.503 . S
C201 C200 1.370 . S
C201 C202 1.403 . S
C202 C201 1.403 . S
C202 C203 1.404 . S
C202 C205 1.539 . S
C203 C199 1.408 . S
C203 C202 1.404 . S
C203 H215 0.930 . S
C204 C200 1.524 . S
C204 H216 0.956 . S
C204 H217 0.961 . S
C204 H218 0.961 . S
C205 C202 1.539 . S
C205 H219 0.958 . S
C205 H220 0.961 . S
C205 H221 0.960 . S
H206 C190 0.931 . S
H207 C195 0.929 . S
H208 C196 0.960 . S
H209 C196 0.962 . S
H210 C196 0.960 . S
H211 C197 0.961 . S
H212 C197 0.961 . S
H213 C197 0.961 . S
H214 C198 0.931 . S
H215 C203 0.930 . S
H216 C204 0.956 . S
H217 C204 0.961 . S
H218 C204 0.961 . S
H219 C205 0.958 . S
H220 C205 0.961 . S
H221 C205 0.960 . S
C222 C223 1.391 . S
C222 C224 1.394 . S
C222 H238 0.931 . S
C223 C222 1.391 . S
C223 C227 1.376 . S
C224 C222 1.394 . S
C224 C225 1.369 . S
C224 C228 1.531 . S
C225 C224 1.369 . S
C225 C226 1.410 . S
C225 C233 1.503 . S
C226 C225 1.410 . S
C226 C227 1.392 . S
C226 C229 1.511 . S
C227 C223 1.376 . S
C227 C226 1.392 . S
C227 H239 0.929 . S
C228 C224 1.531 . S
C228 H240 0.960 . S
C228 H241 0.962 . S
C228 H242 0.960 . S
C229 C226 1.511 . S
C229 H243 0.961 . S
C229 H244 0.961 . S
C229 H245 0.961 . S
C230 C231 1.370 . S
C230 C232 1.363 . S
C230 H246 0.931 . S
C231 C230 1.370 . S
C231 C235 1.408 . S
C232 C230 1.363 . S
C232 C233 1.370 . S
C232 C236 1.524 . S
C233 C225 1.503 . S
C233 C232 1.370 . S
C233 C234 1.403 . S
C234 C233 1.403 . S
C234 C235 1.404 . S
C234 C237 1.539 . S
C235 C231 1.408 . S
C235 C234 1.404 . S
C235 H247 0.930 . S
C236 C232 1.524 . S
C236 H248 0.956 . S
C236 H249 0.961 . S
C236 H250 0.961 . S
C237 C234 1.539 . S
C237 H251 0.958 . S
C237 H252 0.961 . S
C237 H253 0.960 . S
H238 C222 0.931 . S
H239 C227 0.929 . S
H240 C228 0.960 . S
H241 C228 0.962 . S
H242 C228 0.960 . S
H243 C229 0.961 . S
H244 C229 0.961 . S
H245 C229 0.961 . S
H246 C230 0.931 . S
H247 C235 0.930 . S
H248 C236 0.956 . S
H249 C236 0.961 . S
H250 C236 0.961 . S
H251 C237 0.958 . S
H252 C237 0.961 . S
H253 C237 0.960 . S
C254 C255 1.391 . S
C254 C256 1.394 . S
C254 H270 0.931 . S
C255 C254 1.391 . S
C255 C259 1.376 . S
C256 C254 1.394 . S
C256 C257 1.369 . S
C256 C260 1.531 . S
C257 C256 1.369 . S
C257 C258 1.410 . S
C257 C265 1.503 . S
C258 C257 1.410 . S
C258 C259 1.392 . S
C258 C261 1.511 . S
C259 C255 1.376 . S
C259 C258 1.392 . S
C259 H271 0.929 . S
C260 C256 1.531 . S
C260 H272 0.960 . S
C260 H273 0.962 . S
C260 H274 0.960 . S
C261 C258 1.511 . S
C261 H275 0.961 . S
C261 H276 0.961 . S
C261 H277 0.961 . S
C262 C263 1.370 . S
C262 C264 1.363 . S
C262 H278 0.931 . S
C263 C262 1.370 . S
C263 C267 1.408 . S
C264 C262 1.363 . S
C264 C265 1.370 . S
C264 C268 1.524 . S
C265 C257 1.503 . S
C265 C264 1.370 . S
C265 C266 1.403 . S
C266 C265 1.403 . S
C266 C267 1.404 . S
C266 C269 1.539 . S
C267 C263 1.408 . S
C267 C266 1.404 . S
C267 H279 0.930 . S
C268 C264 1.524 . S
C268 H280 0.956 . S
C268 H281 0.961 . S
C268 H282 0.961 . S
C269 C266 1.539 . S
C269 H283 0.958 . S
C269 H284 0.961 . S
C269 H285 0.960 . S
H270 C254 0.931 . S
H271 C259 0.929 . S
H272 C260 0.960 . S
H273 C260 0.962 . S
H274 C260 0.960 . S
H275 C261 0.961 . S
H276 C261 0.961 . S
H277 C261 0.961 . S
H278 C262 0.931 . S
H279 C267 0.930 . S
H280 C268 0.956 . S
H281 C268 0.961 . S
H282 C268 0.961 . S
H283 C269 0.958 . S
H284 C269 0.961 . S
H285 C269 0.960 . S
C286 C287 1.391 . S
C286 C288 1.394 . S
C286 H302 0.931 . S
C287 C286 1.391 . S
C287 C291 1.376 . S
C288 C286 1.394 . S
C288 C289 1.369 . S
C288 C292 1.531 . S
C289 C288 1.369 . S
C289 C290 1.410 . S
C289 C297 1.503 . S
C290 C289 1.410 . S
C290 C291 1.392 . S
C290 C293 1.511 . S
C291 C287 1.376 . S
C291 C290 1.392 . S
C291 H303 0.929 . S
C292 C288 1.531 . S
C292 H304 0.960 . S
C292 H305 0.962 . S
C292 H306 0.960 . S
C293 C290 1.511 . S
C293 H307 0.961 . S
C293 H308 0.961 . S
C293 H309 0.961 . S
C294 C295 1.370 . S
C294 C296 1.363 . S
C294 H310 0.931 . S
C295 C294 1.370 . S
C295 C299 1.408 . S
C296 C294 1.363 . S
C296 C297 1.370 . S
C296 C300 1.524 . S
C297 C289 1.503 . S
C297 C296 1.370 . S
C297 C298 1.403 . S
C298 C297 1.403 . S
C298 C299 1.404 . S
C298 C301 1.539 . S
C299 C295 1.408 . S
C299 C298 1.404 . S
C299 H311 0.930 . S
C300 C296 1.524 . S
C300 H312 0.956 . S
C300 H313 0.961 . S
C300 H314 0.961 . S
C301 C298 1.539 . S
C301 H315 0.958 . S
C301 H316 0.961 . S
C301 H317 0.960 . S
H302 C286 0.931 . S
H303 C291 0.929 . S
H304 C292 0.960 . S
H305 C292 0.962 . S
H306 C292 0.960 . S
H307 C293 0.961 . S
H308 C293 0.961 . S
H309 C293 0.961 . S
H310 C294 0.931 . S
H311 C299 0.930 . S
H312 C300 0.956 . S
H313 C300 0.961 . S
H314 C300 0.961 . S
H315 C301 0.958 . S
H316 C301 0.961 . S
H317 C301 0.960 . S
C318 C319 1.391 . S
C318 C320 1.394 . S
C318 H334 0.931 . S
C319 C318 1.391 . S
C319 C323 1.376 . S
C320 C318 1.394 . S
C320 C321 1.369 . S
C320 C324 1.531 . S
C321 C320 1.369 . S
C321 C322 1.410 . S
C321 C329 1.503 . S
C322 C321 1.410 . S
C322 C323 1.392 . S
C322 C325 1.511 . S
C323 C319 1.376 . S
C323 C322 1.392 . S
C323 H335 0.929 . S
C324 C320 1.531 . S
C324 H336 0.960 . S
C324 H337 0.962 . S
C324 H338 0.960 . S
C325 C322 1.511 . S
C325 H339 0.961 . S
C325 H340 0.961 . S
C325 H341 0.961 . S
C326 C327 1.370 . S
C326 C328 1.363 . S
C326 H342 0.931 . S
C327 C326 1.370 . S
C327 C331 1.408 . S
C328 C326 1.363 . S
C328 C329 1.370 . S
C328 C332 1.524 . S
C329 C321 1.503 . S
C329 C328 1.370 . S
C329 C330 1.403 . S
C330 C329 1.403 . S
C330 C331 1.404 . S
C330 C333 1.539 . S
C331 C327 1.408 . S
C331 C330 1.404 . S
C331 H343 0.930 . S
C332 C328 1.524 . S
C332 H344 0.956 . S
C332 H345 0.961 . S
C332 H346 0.961 . S
C333 C330 1.539 . S
C333 H347 0.958 . S
C333 H348 0.961 . S
C333 H349 0.960 . S
H334 C318 0.931 . S
H335 C323 0.929 . S
H336 C324 0.960 . S
H337 C324 0.962 . S
H338 C324 0.960 . S
H339 C325 0.961 . S
H340 C325 0.961 . S
H341 C325 0.961 . S
H342 C326 0.931 . S
H343 C331 0.930 . S
H344 C332 0.956 . S
H345 C332 0.961 . S
H346 C332 0.961 . S
H347 C333 0.958 . S
H348 C333 0.961 . S
H349 C333 0.960 . S
C350 C351 1.391 . S
C350 C352 1.394 . S
C350 H366 0.931 . S
C351 C350 1.391 . S
C351 C355 1.376 . S
C352 C350 1.394 . S
C352 C353 1.369 . S
C352 C356 1.531 . S
C353 C352 1.369 . S
C353 C354 1.410 . S
C353 C361 1.503 . S
C354 C353 1.410 . S
C354 C355 1.392 . S
C354 C357 1.511 . S
C355 C351 1.376 . S
C355 C354 1.392 . S
C355 H367 0.929 . S
C356 C352 1.531 . S
C356 H368 0.960 . S
C356 H369 0.962 . S
C356 H370 0.960 . S
C357 C354 1.511 . S
C357 H371 0.961 . S
C357 H372 0.961 . S
C357 H373 0.961 . S
C358 C359 1.370 . S
C358 C360 1.363 . S
C358 H374 0.931 . S
C359 C358 1.370 . S
C359 C363 1.408 . S
C360 C358 1.363 . S
C360 C361 1.370 . S
C360 C364 1.524 . S
C361 C353 1.503 . S
C361 C360 1.370 . S
C361 C362 1.403 . S
C362 C361 1.403 . S
C362 C363 1.404 . S
C362 C365 1.539 . S
C363 C359 1.408 . S
C363 C362 1.404 . S
C363 H375 0.930 . S
C364 C360 1.524 . S
C364 H376 0.956 . S
C364 H377 0.961 . S
C364 H378 0.961 . S
C365 C362 1.539 . S
C365 H379 0.958 . S
C365 H380 0.961 . S
C365 H381 0.960 . S
H366 C350 0.931 . S
H367 C355 0.929 . S
H368 C356 0.960 . S
H369 C356 0.962 . S
H370 C356 0.960 . S
H371 C357 0.961 . S
H372 C357 0.961 . S
H373 C357 0.961 . S
H374 C358 0.931 . S
H375 C363 0.930 . S
H376 C364 0.956 . S
H377 C364 0.961 . S
H378 C364 0.961 . S
H379 C365 0.958 . S
H380 C365 0.961 . S
H381 C365 0.960 . S
C382 C383 1.391 . S
C382 C384 1.394 . S
C382 H398 0.931 . S
C383 C382 1.391 . S
C383 C387 1.376 . S
C384 C382 1.394 . S
C384 C385 1.369 . S
C384 C388 1.531 . S
C385 C384 1.369 . S
C385 C386 1.410 . S
C385 C393 1.503 . S
C386 C385 1.410 . S
C386 C387 1.392 . S
C386 C389 1.511 . S
C387 C383 1.376 . S
C387 C386 1.392 . S
C387 H399 0.929 . S
C388 C384 1.531 . S
C388 H400 0.960 . S
C388 H401 0.962 . S
C388 H402 0.960 . S
C389 C386 1.511 . S
C389 H403 0.961 . S
C389 H404 0.961 . S
C389 H405 0.961 . S
C390 C391 1.370 . S
C390 C392 1.363 . S
C390 H406 0.931 . S
C391 C390 1.370 . S
C391 C395 1.408 . S
C392 C390 1.363 . S
C392 C393 1.370 . S
C392 C396 1.524 . S
C393 C385 1.503 . S
C393 C392 1.370 . S
C393 C394 1.403 . S
C394 C393 1.403 . S
C394 C395 1.404 . S
C394 C397 1.539 . S
C395 C391 1.408 . S
C395 C394 1.404 . S
C395 H407 0.930 . S
C396 C392 1.524 . S
C396 H408 0.956 . S
C396 H409 0.961 . S
C396 H410 0.961 . S
C397 C394 1.539 . S
C397 H411 0.958 . S
C397 H412 0.961 . S
C397 H413 0.960 . S
H398 C382 0.931 . S
H399 C387 0.929 . S
H400 C388 0.960 . S
H401 C388 0.962 . S
H402 C388 0.960 . S
H403 C389 0.961 . S
H404 C389 0.961 . S
H405 C389 0.961 . S
H406 C390 0.931 . S
H407 C395 0.930 . S
H408 C396 0.956 . S
H409 C396 0.961 . S
H410 C396 0.961 . S
H411 C397 0.958 . S
H412 C397 0.961 . S
H413 C397 0.960 . S
C414 C415 1.391 . S
C414 C416 1.394 . S
C414 H430 0.931 . S
C415 C414 1.391 . S
C415 C419 1.376 . S
C416 C414 1.394 . S
C416 C417 1.369 . S
C416 C420 1.531 . S
C417 C416 1.369 . S
C417 C418 1.410 . S
C417 C425 1.503 . S
C418 C417 1.410 . S
C418 C419 1.392 . S
C418 C421 1.511 . S
C419 C415 1.376 . S
C419 C418 1.392 . S
C419 H431 0.929 . S
C420 C416 1.531 . S
C420 H432 0.960 . S
C420 H433 0.962 . S
C420 H434 0.960 . S
C421 C418 1.511 . S
C421 H435 0.961 . S
C421 H436 0.961 . S
C421 H437 0.961 . S
C422 C423 1.370 . S
C422 C424 1.363 . S
C422 H438 0.931 . S
C423 C422 1.370 . S
C423 C427 1.408 . S
C424 C422 1.363 . S
C424 C425 1.370 . S
C424 C428 1.524 . S
C425 C417 1.503 . S
C425 C424 1.370 . S
C425 C426 1.403 . S
C426 C425 1.403 . S
C426 C427 1.404 . S
C426 C429 1.539 . S
C427 C423 1.408 . S
C427 C426 1.404 . S
C427 H439 0.930 . S
C428 C424 1.524 . S
C428 H440 0.956 . S
C428 H441 0.961 . S
C428 H442 0.961 . S
C429 C426 1.539 . S
C429 H443 0.958 . S
C429 H444 0.961 . S
C429 H445 0.960 . S
H430 C414 0.931 . S
H431 C419 0.929 . S
H432 C420 0.960 . S
H433 C420 0.962 . S
H434 C420 0.960 . S
H435 C421 0.961 . S
H436 C421 0.961 . S
H437 C421 0.961 . S
H438 C422 0.931 . S
H439 C427 0.930 . S
H440 C428 0.956 . S
H441 C428 0.961 . S
H442 C428 0.961 . S
H443 C429 0.958 . S
H444 C429 0.961 . S
H445 C429 0.960 . S
C446 C447 1.391 . S
C446 C448 1.394 . S
C446 H462 0.931 . S
C447 C446 1.391 . S
C447 C451 1.376 . S
C448 C446 1.394 . S
C448 C449 1.369 . S
C448 C452 1.531 . S
C449 C448 1.369 . S
C449 C450 1.410 . S
C449 C457 1.503 . S
C450 C449 1.410 . S
C450 C451 1.392 . S
C450 C453 1.511 . S
C451 C447 1.376 . S
C451 C450 1.392 . S
C451 H463 0.929 . S
C452 C448 1.531 . S
C452 H464 0.960 . S
C452 H465 0.962 . S
C452 H466 0.960 . S
C453 C450 1.511 . S
C453 H467 0.961 . S
C453 H468 0.961 . S
C453 H469 0.961 . S
C454 C455 1.370 . S
C454 C456 1.363 . S
C454 H470 0.931 . S
C455 C454 1.370 . S
C455 C459 1.408 . S
C456 C454 1.363 . S
C456 C457 1.370 . S
C456 C460 1.524 . S
C457 C449 1.503 . S
C457 C456 1.370 . S
C457 C458 1.403 . S
C458 C457 1.403 . S
C458 C459 1.404 . S
C458 C461 1.539 . S
C459 C455 1.408 . S
C459 C458 1.404 . S
C459 H471 0.930 . S
C460 C456 1.524 . S
C460 H472 0.956 . S
C460 H473 0.961 . S
C460 H474 0.961 . S
C461 C458 1.539 . S
C461 H475 0.958 . S
C461 H476 0.961 . S
C461 H477 0.960 . S
H462 C446 0.931 . S
H463 C451 0.929 . S
H464 C452 0.960 . S
H465 C452 0.962 . S
H466 C452 0.960 . S
H467 C453 0.961 . S
H468 C453 0.961 . S
H469 C453 0.961 . S
H470 C454 0.931 . S
H471 C459 0.930 . S
H472 C460 0.956 . S
H473 C460 0.961 . S
H474 C460 0.961 . S
H475 C461 0.958 . S
H476 C461 0.961 . S
H477 C461 0.960 . S
C478 C479 1.391 . S
C478 C480 1.394 . S
C478 H494 0.931 . S
C479 C478 1.391 . S
C479 C483 1.376 . S
C480 C478 1.394 . S
C480 C481 1.369 . S
C480 C484 1.531 . S
C481 C480 1.369 . S
C481 C482 1.410 . S
C481 C489 1.503 . S
C482 C481 1.410 . S
C482 C483 1.392 . S
C482 C485 1.511 . S
C483 C479 1.376 . S
C483 C482 1.392 . S
C483 H495 0.929 . S
C484 C480 1.531 . S
C484 H496 0.960 . S
C484 H497 0.962 . S
C484 H498 0.960 . S
C485 C482 1.511 . S
C485 H499 0.961 . S
C485 H500 0.961 . S
C485 H501 0.961 . S
C486 C487 1.370 . S
C486 C488 1.363 . S
C486 H502 0.931 . S
C487 C486 1.370 . S
C487 C491 1.408 . S
C488 C486 1.363 . S
C488 C489 1.370 . S
C488 C492 1.524 . S
C489 C481 1.503 . S
C489 C488 1.370 . S
C489 C490 1.403 . S
C490 C489 1.403 . S
C490 C491 1.404 . S
C490 C493 1.539 . S
C491 C487 1.408 . S
C491 C490 1.404 . S
C491 H503 0.930 . S
C492 C488 1.524 . S
C492 H504 0.956 . S
C492 H505 0.961 . S
C492 H506 0.961 . S
C493 C490 1.539 . S
C493 H507 0.958 . S
C493 H508 0.961 . S
C493 H509 0.960 . S
H494 C478 0.931 . S
H495 C483 0.929 . S
H496 C484 0.960 . S
H497 C484 0.962 . S
H498 C484 0.960 . S
H499 C485 0.961 . S
H500 C485 0.961 . S
H501 C485 0.961 . S
H502 C486 0.931 . S
H503 C491 0.930 . S
H504 C492 0.956 . S
H505 C492 0.961 . S
H506 C492 0.961 . S
H507 C493 0.958 . S
H508 C493 0.961 . S
H509 C493 0.960 . S
C510 C511 1.391 . S
C510 C512 1.394 . S
C510 H526 0.931 . S
C511 C510 1.391 . S
C511 C515 1.376 . S
C512 C510 1.394 . S
C512 C513 1.369 . S
C512 C516 1.531 . S
C513 C512 1.369 . S
C513 C514 1.410 . S
C513 C521 1.476 1_554 S
C514 C513 1.410 . S
C514 C515 1.392 . S
C514 C517 1.511 . S
C515 C511 1.376 . S
C515 C514 1.392 . S
C515 H527 0.929 . S
C516 C512 1.531 . S
C516 H528 0.960 . S
C516 H529 0.962 1_455 S
C516 H530 0.960 . S
C517 C514 1.511 . S
C517 H531 0.961 . S
C517 H532 0.961 . S
C517 H533 0.961 . S
C518 C519 1.370 . S
C518 C520 1.363 . S
C518 H534 0.931 1_455 S
C519 C518 1.370 . S
C519 C523 1.408 . S
C520 C518 1.363 . S
C520 C521 1.385 . S
C520 C524 1.524 1_455 S
C521 C513 1.476 1_556 S
C521 C520 1.385 . S
C521 C522 1.416 . S
C522 C521 1.416 . S
C522 C523 1.404 . S
C522 C525 1.539 1_556 S
C523 C519 1.408 . S
C523 C522 1.404 . S
C523 H535 0.930 . S
C524 C520 1.524 1_655 S
C524 H536 0.956 1_556 S
C524 H537 0.961 1_656 S
C524 H538 0.961 . S
C525 C522 1.539 1_554 S
C525 H539 0.958 . S
C525 H540 0.961 1_554 S
C525 H541 0.960 . S
H526 C510 0.931 . S
H527 C515 0.929 . S
H528 C516 0.960 . S
H529 C516 0.962 1_655 S
H530 C516 0.960 . S
H531 C517 0.961 . S
H532 C517 0.961 . S
H533 C517 0.961 . S
H534 C518 0.931 1_655 S
H535 C523 0.930 . S
H536 C524 0.956 1_554 S
H537 C524 0.961 1_454 S
H538 C524 0.961 . S
H539 C525 0.958 . S
H540 C525 0.961 1_556 S
H541 C525 0.960 . S
C542 C543 1.391 . S
C542 C544 1.394 . S
C542 H558 0.931 . S
C543 C542 1.391 . S
C543 C547 1.376 . S
C544 C542 1.394 . S
C544 C545 1.369 . S
C544 C548 1.531 . S
C545 C544 1.369 . S
C545 C546 1.410 . S
C545 C553 1.503 . S
C546 C545 1.410 . S
C546 C547 1.392 . S
C546 C549 1.511 . S
C547 C543 1.376 . S
C547 C546 1.392 . S
C547 H559 0.929 . S
C548 C544 1.531 . S
C548 H560 0.960 . S
C548 H561 0.962 . S
C548 H562 0.960 . S
C549 C546 1.511 . S
C549 H563 0.961 1_545 S
C549 H564 0.961 1_545 S
C549 H565 0.961 . S
C550 C551 1.370 . S
C550 C552 1.363 . S
C550 H566 0.931 1_545 S
C551 C550 1.370 . S
C551 C555 1.408 . S
C552 C550 1.363 . S
C552 C553 1.370 . S
C552 C556 1.524 1_545 S
C553 C545 1.503 . S
C553 C552 1.370 . S
C553 C554 1.403 . S
C554 C553 1.403 . S
C554 C555 1.404 . S
C554 C557 1.539 . S
C555 C551 1.408 . S
C555 C554 1.404 . S
C555 H567 0.930 . S
C556 C552 1.524 1_565 S
C556 H568 0.956 . S
C556 H569 0.961 . S
C556 H570 0.961 . S
C557 C554 1.539 . S
C557 H571 0.958 . S
C557 H572 0.961 . S
C557 H573 0.960 . S
H558 C542 0.931 . S
H559 C547 0.929 . S
H560 C548 0.960 . S
H561 C548 0.962 . S
H562 C548 0.960 . S
H563 C549 0.961 1_565 S
H564 C549 0.961 1_565 S
H565 C549 0.961 . S
H566 C550 0.931 1_565 S
H567 C555 0.930 . S
H568 C556 0.956 . S
H569 C556 0.961 . S
H570 C556 0.961 . S
H571 C557 0.958 . S
H572 C557 0.961 . S
H573 C557 0.960 . S
C574 C575 1.391 . S
C574 C576 1.394 . S
C574 H590 0.931 . S
C575 C574 1.391 . S
C575 C579 1.376 . S
C576 C574 1.394 . S
C576 C577 1.369 . S
C576 C580 1.531 . S
C577 C576 1.369 . S
C577 C578 1.410 . S
C577 C585 1.503 . S
C578 C577 1.410 . S
C578 C579 1.392 . S
C578 C581 1.511 . S
C579 C575 1.376 . S
C579 C578 1.392 . S
C579 H591 0.929 . S
C580 C576 1.531 . S
C580 H592 0.960 . S
C580 H593 0.962 . S
C580 H594 0.960 . S
C581 C578 1.511 . S
C581 H595 0.961 . S
C581 H596 0.961 . S
C581 H597 0.961 . S
C582 C583 1.370 . S
C582 C584 1.363 . S
C582 H598 0.931 . S
C583 C582 1.370 . S
C583 C587 1.408 . S
C584 C582 1.363 . S
C584 C585 1.370 . S
C584 C588 1.524 . S
C585 C577 1.503 . S
C585 C584 1.370 . S
C585 C586 1.403 . S
C586 C585 1.403 . S
C586 C587 1.404 . S
C586 C589 1.539 . S
C587 C583 1.408 . S
C587 C586 1.404 . S
C587 H599 0.930 . S
C588 C584 1.524 . S
C588 H600 0.956 . S
C588 H601 0.961 . S
C588 H602 0.961 . S
C589 C586 1.539 . S
C589 H603 0.958 . S
C589 H604 0.961 . S
C589 H605 0.960 . S
H590 C574 0.931 . S
H591 C579 0.929 . S
H592 C580 0.960 . S
H593 C580 0.962 . S
H594 C580 0.960 . S
H595 C581 0.961 . S
H596 C581 0.961 . S
H597 C581 0.961 . S
H598 C582 0.931 . S
H599 C587 0.930 . S
H600 C588 0.956 . S
H601 C588 0.961 . S
H602 C588 0.961 . S
H603 C589 0.958 . S
H604 C589 0.961 . S
H605 C589 0.960 . S
C606 C607 1.391 . S
C606 C608 1.394 . S
C606 H622 0.931 . S
C607 C606 1.391 . S
C607 C611 1.376 1_545 S
C608 C606 1.394 . S
C608 C609 1.369 . S
C608 C612 1.531 . S
C609 C608 1.369 . S
C609 C610 1.410 1_545 S
C609 C617 1.503 . S
C610 C609 1.410 1_565 S
C610 C611 1.392 . S
C610 C613 1.511 . S
C611 C607 1.376 1_565 S
C611 C610 1.392 . S
C611 H623 0.929 . S
C612 C608 1.531 . S
C612 H624 0.960 . S
C612 H625 0.962 . S
C612 H626 0.960 . S
C613 C610 1.511 . S
C613 H627 0.961 . S
C613 H628 0.961 . S
C613 H629 0.961 . S
C614 C615 1.370 . S
C614 C616 1.363 . S
C614 H630 0.931 1_545 S
C615 C614 1.370 . S
C615 C619 1.408 . S
C616 C614 1.363 . S
C616 C617 1.370 . S
C616 C620 1.524 1_545 S
C617 C609 1.503 . S
C617 C616 1.370 . S
C617 C618 1.403 . S
C618 C617 1.403 . S
C618 C619 1.404 . S
C618 C621 1.539 . S
C619 C615 1.408 . S
C619 C618 1.404 . S
C619 H631 0.930 . S
C620 C616 1.524 1_565 S
C620 H632 0.956 1_565 S
C620 H633 0.961 . S
C620 H634 0.961 . S
C621 C618 1.539 . S
C621 H635 0.958 . S
C621 H636 0.961 . S
C621 H637 0.960 . S
H622 C606 0.931 . S
H623 C611 0.929 . S
H624 C612 0.960 . S
H625 C612 0.962 . S
H626 C612 0.960 . S
H627 C613 0.961 . S
H628 C613 0.961 . S
H629 C613 0.961 . S
H630 C614 0.931 1_565 S
H631 C619 0.930 . S
H632 C620 0.956 1_545 S
H633 C620 0.961 . S
H634 C620 0.961 . S
H635 C621 0.958 . S
H636 C621 0.961 . S
H637 C621 0.960 . S
C638 C639 1.391 . S
C638 C640 1.394 . S
C638 H654 0.931 . S
C639 C638 1.391 . S
C639 C643 1.376 . S
C640 C638 1.394 . S
C640 C641 1.369 . S
C640 C644 1.531 . S
C641 C640 1.369 . S
C641 C642 1.410 . S
C641 C649 1.543 . S
C642 C641 1.410 . S
C642 C643 1.392 . S
C642 C645 1.511 . S
C643 C639 1.376 . S
C643 C642 1.392 . S
C643 H655 0.929 . S
C644 C640 1.531 . S
C644 H656 0.960 . S
C644 H657 0.962 . S
C644 H658 0.960 . S
C645 C642 1.511 . S
C645 H659 0.961 . S
C645 H660 0.959 1_556 S
C645 H661 0.961 . S
C646 C647 1.370 . S
C646 C648 1.363 . S
C646 H662 0.931 . S
C647 C646 1.370 . S
C647 C651 1.408 . S
C648 C646 1.363 . S
C648 C649 1.355 1_554 S
C648 C652 1.524 1_554 S
C649 C641 1.543 . S
C649 C648 1.355 1_556 S
C649 C650 1.380 1_556 S
C650 C649 1.380 1_554 S
C650 C651 1.404 . S
C650 C653 1.539 . S
C651 C647 1.408 . S
C651 C650 1.404 . S
C651 H663 0.930 . S
C652 C648 1.524 1_556 S
C652 H664 0.956 . S
C652 H665 0.961 . S
C652 H666 0.961 1_556 S
C653 C650 1.539 . S
C653 H667 0.958 1_554 S
C653 H668 0.961 . S
C653 H669 0.960 1_554 S
H654 C638 0.931 . S
H655 C643 0.929 . S
H656 C644 0.960 . S
H657 C644 0.962 . S
H658 C644 0.960 . S
H659 C645 0.961 . S
H660 C645 0.959 1_554 S
H661 C645 0.961 . S
H662 C646 0.931 . S
H663 C651 0.930 . S
H664 C652 0.956 . S
H665 C652 0.961 . S
H666 C652 0.961 1_554 S
H667 C653 0.958 1_556 S
H668 C653 0.961 . S
H669 C653 0.960 1_556 S
C670 C671 1.391 . S
C670 C672 1.394 . S
C670 H686 0.931 . S
C671 C670 1.391 . S
C671 C675 1.376 1_455 S
C672 C670 1.394 . S
C672 C673 1.369 . S
C672 C676 1.531 . S
C673 C672 1.369 . S
C673 C674 1.410 1_455 S
C673 C681 1.503 . S
C674 C673 1.410 1_655 S
C674 C675 1.392 . S
C674 C677 1.511 . S
C675 C671 1.376 1_655 S
C675 C674 1.392 . S
C675 H687 0.929 . S
C676 C672 1.531 . S
C676 H688 0.960 . S
C676 H689 0.962 . S
C676 H690 0.960 . S
C677 C674 1.511 . S
C677 H691 0.961 . S
C677 H692 0.961 . S
C677 H693 0.961 . S
C678 C679 1.370 . S
C678 C680 1.363 . S
C678 H694 0.931 . S
C679 C678 1.370 . S
C679 C683 1.408 1_655 S
C680 C678 1.363 . S
C680 C681 1.370 1_655 S
C680 C684 1.524 . S
C681 C673 1.503 . S
C681 C680 1.370 1_455 S
C681 C682 1.403 . S
C682 C681 1.403 . S
C682 C683 1.404 . S
C682 C685 1.539 . S
C683 C679 1.408 1_455 S
C683 C682 1.404 . S
C683 H695 0.930 . S
C684 C680 1.524 . S
C684 H696 0.956 . S
C684 H697 0.961 . S
C684 H698 0.961 . S
C685 C682 1.539 . S
C685 H699 0.958 . S
C685 H700 0.961 . S
C685 H701 0.960 . S
H686 C670 0.931 . S
H687 C675 0.929 . S
H688 C676 0.960 . S
H689 C676 0.962 . S
H690 C676 0.960 . S
H691 C677 0.961 . S
H692 C677 0.961 . S
H693 C677 0.961 . S
H694 C678 0.931 . S
H695 C683 0.930 . S
H696 C684 0.956 . S
H697 C684 0.961 . S
H698 C684 0.961 . S
H699 C685 0.958 . S
H700 C685 0.961 . S
H701 C685 0.960 . S
C127 C8 2.121 . S
C135 C120 1.871 . S
C159 C26 1.487 . S
C167 C98 1.333 . S
C191 C48 1.410 . S
C199 C112 1.406 . S
C223 C19 1.645 . S
C231 C123 1.660 . S
C263 C101 1.346 . S
C255 C36 1.332 . S
C295 C109 1.506 . S
C287 C59 1.734 . S
C319 C28 1.688 . S
C327 C76 1.461 . S
C351 C46 1.303 . S
C359 C87 1.153 . S
C383 C16 1.595 . S
C391 C65 1.379 . S
C423 C79 1.519 . S
C415 C39 1.496 . S
C455 C90 0.869 . S
C447 C56 0.836 . S
C479 C6 1.250 . S
C487 C68 1.212 . S
C519 C89 1.413 . S
C511 C9 1.454 . S
C543 C21 1.503 . S
C551 C67 1.437 . S
C575 C49 1.521 . S
C583 C78 1.453 . S
C615 C111 1.439 . S
C607 C29 1.444 . S
C647 C122 1.500 . S
C639 C41 1.593 . S
C671 C1 1.531 . S
C679 C100 1.462 . S
