# Generated by pormake.
# Topology tsx, (6,3)-cn, num edge types: 1
# Building blocks:
#     Node 0, Type 0, BuildingBlock: LEVNOQ01_clean_sbu_1, # of connection points: 6
#     Node 1, Type 0, BuildingBlock: LEVNOQ01_clean_sbu_1, # of connection points: 6
#     Node 2, Type 1, BuildingBlock: OLANEW_clean_sbu_2, # of connection points: 3
#     Node 3, Type 1, BuildingBlock: OLANEW_clean_sbu_2, # of connection points: 3
#     Node 4, Type 1, BuildingBlock: OLANEW_clean_sbu_2, # of connection points: 3
#     Node 5, Type 1, BuildingBlock: OLANEW_clean_sbu_2, # of connection points: 3
#     Edge 6, Type (0, 1), BuildingBlock: KIFKEQ_clean_linker_1, # of connection points: 2
#     Edge 7, Type (0, 1), BuildingBlock: KIFKEQ_clean_linker_1, # of connection points: 2
#     Edge 8, Type (0, 1), BuildingBlock: KIFKEQ_clean_linker_1, # of connection points: 2
#     Edge 9, Type (0, 1), BuildingBlock: KIFKEQ_clean_linker_1, # of connection points: 2
#     Edge 10, Type (0, 1), BuildingBlock: KIFKEQ_clean_linker_1, # of connection points: 2
#     Edge 11, Type (0, 1), BuildingBlock: KIFKEQ_clean_linker_1, # of connection points: 2
#     Edge 12, Type (0, 1), BuildingBlock: KIFKEQ_clean_linker_1, # of connection points: 2
#     Edge 13, Type (0, 1), BuildingBlock: KIFKEQ_clean_linker_1, # of connection points: 2
#     Edge 14, Type (0, 1), BuildingBlock: KIFKEQ_clean_linker_1, # of connection points: 2
#     Edge 15, Type (0, 1), BuildingBlock: KIFKEQ_clean_linker_1, # of connection points: 2
#     Edge 16, Type (0, 1), BuildingBlock: KIFKEQ_clean_linker_1, # of connection points: 2
#     Edge 17, Type (0, 1), BuildingBlock: KIFKEQ_clean_linker_1, # of connection points: 2
# Relax obj value: 0.040
# Max RMSD: 0.095
# Mean RMSD: 0.049
data_MOF--net-tsx--node1-LEVNOQ01_clean_sbu_1--node2-OLANEW_clean_sbu_2--edge1-KIFKEQ_clean_linker_1
_symmetry_space_group_name_H-M    P1
_symmetry_Int_Tables_number       1
_symmetry_cell_setting            triclinic
loop_
_symmetry_equiv_pos_as_xyz
'x, y, z'
_cell_length_a     20.879183
_cell_length_b     25.33874
_cell_length_c     35.558857
_cell_angle_alpha  103.68552
_cell_angle_beta   90.76019
_cell_angle_gamma 90.578997
loop_
_atom_site_label
_atom_site_type_symbol
_atom_site_fract_x
_atom_site_fract_y
_atom_site_fract_z
_atom_type_partial_charge
O0 O 0.1248 0.01415 0.10123 0.0
Mg1 Mg 0.1664 0.01964 0.04914 0.0
O2 O 0.0325 -0.00783 0.07039 0.0
Mg3 Mg 0.04461 0.00288 0.00631 0.0
O4 O 0.12419 0.07262 0.02027 0.0
O5 O 0.21891 0.08723 0.05236 0.0
O6 O 0.06228 0.0195 0.94425 0.0
O7 O 0.96832 0.07097 0.01732 0.0
Mg8 Mg 0.96928 0.96403 0.94867 0.0
O9 O 0.96408 0.93218 0.99574 0.0
O10 O 0.03889 0.94153 0.90555 0.0
O11 O 0.92869 0.04265 0.9578 0.0
O12 O 0.90197 0.9051 0.94226 0.0
C13 C 0.17256 0.91732 0.99329 0.0
C14 C 0.0669 -0.00089 0.10127 0.0
C15 C 0.1748 0.10315 0.03198 0.0
C16 C 0.06401 -0.0119 0.91051 0.0
C17 C 0.93191 0.07788 0.98978 0.0
C18 C 0.91868 0.90098 0.97648 0.0
O19 O 0.20966 0.94973 0.01623 0.0
O20 O 0.11477 0.93052 0.98881 0.0
O21 O 0.64675 0.53003 0.6232 0.0
Mg22 Mg 0.70386 0.53769 0.57646 0.0
O23 O 0.56179 0.5129 0.58451 0.0
Mg24 Mg 0.59126 0.52202 0.52259 0.0
O25 O 0.66869 0.59057 0.54484 0.0
O26 O 0.75574 0.60687 0.58388 0.0
O27 O 0.62476 0.53512 0.46151 0.0
O28 O 0.5154 0.58853 0.52528 0.0
Mg29 Mg 0.5255 0.47904 0.45723 0.0
O30 O 0.51065 0.45454 0.50626 0.0
O31 O 0.61057 0.45246 0.42799 0.0
O32 O 0.49034 0.5599 0.46288 0.0
O33 O 0.45641 0.42026 0.4509 0.0
C34 C 0.71748 0.43598 0.52069 0.0
C35 C 0.58789 0.51766 0.61788 0.0
C36 C 0.71616 0.62238 0.56058 0.0
C37 C 0.63633 0.49843 0.43112 0.0
C38 C 0.4864 0.59513 0.49486 0.0
C39 C 0.46725 0.42154 0.48692 0.0
O40 O 0.75117 0.46799 0.54611 0.0
O41 O 0.66169 0.44976 0.51215 0.0
O42 O 0.98577 0.793 0.32533 0.0
Cd43 Cd 0.97254 0.76396 0.38588 0.0
O44 O 0.95978 0.86989 0.36379 0.0
Cd45 Cd 0.93369 0.95502 0.3813 0.0
O46 O 0.90619 0.03786 0.4072 0.0
C47 C 0.88169 0.06766 0.38686 0.0
O48 O 0.87372 0.04806 0.34941 0.0
C49 C 0.9751 0.84339 0.33017 0.0
C50 C 0.08714 0.74471 0.42138 0.0
O51 O 0.05342 0.70554 0.40084 0.0
O52 O 0.06728 0.79327 0.42482 0.0
O53 O 0.02265 0.24288 0.7175 0.0
Cd54 Cd 0.99784 0.30483 0.67692 0.0
O55 O 0.96701 0.17901 0.67801 0.0
Cd56 Cd 0.92712 0.09826 0.65163 0.0
O57 O 0.88517 0.02173 0.61824 0.0
C58 C 0.8263 0.00994 0.62085 0.0
O59 O 0.78988 0.04441 0.64439 0.0
C60 C 0.00269 0.19395 0.70806 0.0
C61 C 0.10794 0.31774 0.63677 0.0
O62 O 0.09638 0.34972 0.66962 0.0
O63 O 0.06657 0.28039 0.62254 0.0
O64 O 0.44904 0.27911 0.80572 0.0
Cd65 Cd 0.4391 0.2235 0.85309 0.0
O66 O 0.41166 0.34722 0.84922 0.0
Cd67 Cd 0.37859 0.4299 0.87057 0.0
O68 O 0.34907 0.51306 0.89337 0.0
C69 C 0.32073 0.53913 0.87176 0.0
O70 O 0.30944 0.51519 0.83524 0.0
C71 C 0.43326 0.32867 0.81548 0.0
C72 C 0.55404 0.2184 0.89315 0.0
O73 O 0.54268 0.1875 0.85955 0.0
O74 O 0.51092 0.25222 0.90818 0.0
O75 O 0.54187 0.60468 0.1703 0.0
Cd76 Cd 0.5045 0.61628 0.10772 0.0
O77 O 0.57292 0.521 0.14595 0.0
Cd78 Cd 0.50995 0.50866 0.09457 0.0
O79 O 0.43336 0.45889 0.05995 0.0
C80 C 0.37982 0.4553 0.07593 0.0
O81 O 0.37119 0.48479 0.11117 0.0
C82 C 0.57201 0.56284 0.17398 0.0
C83 C 0.6005 0.67413 0.08022 0.0
O84 O 0.5558 0.69875 0.10156 0.0
O85 O 0.59878 0.62207 0.07094 0.0
H86 H 0.28068 0.13153 -0.00047 0.0
H87 H 0.09672 0.19192 0.04223 0.0
H88 H 0.31651 0.22275 -0.00027 0.0
H89 H 0.13218 0.28471 0.04209 0.0
H90 H 0.27114 0.42575 0.10818 0.0
H91 H 0.20661 0.34397 0.08512 0.0
H92 H 0.31509 0.30554 0.97969 0.0
H93 H 0.38142 0.38671 0.00353 0.0
C94 C 0.24702 0.16444 0.00754 0.0
C95 C 0.18619 0.15495 0.02105 0.0
C96 C 0.26743 0.21694 0.00753 0.0
C97 C 0.22763 0.26152 0.02142 0.0
C98 C 0.1644 0.25138 0.03173 0.0
C99 C 0.14372 0.19832 0.03142 0.0
C100 C 0.28053 0.4005 0.07972 0.0
C101 C 0.33255 0.41212 0.05814 0.0
C102 C 0.24293 0.35367 0.06627 0.0
C103 C 0.25614 0.31746 0.03075 0.0
C104 C 0.30443 0.33184 0.00757 0.0
C105 C 0.34242 0.37849 0.02119 0.0
H106 H 0.2918 0.87571 -0.00238 0.0
H107 H 0.10609 0.83714 0.94204 0.0
H108 H 0.32886 0.78554 0.9661 0.0
H109 H 0.14315 0.74646 0.91097 0.0
H110 H 0.25369 0.60517 0.83501 0.0
H111 H 0.21936 0.69811 0.86224 0.0
H112 H 0.30632 0.69285 0.97219 0.0
H113 H 0.34132 0.60063 0.94503 0.0
C114 C 0.25889 0.84807 0.97861 0.0
C115 C 0.19584 0.86351 0.97255 0.0
C116 C 0.28008 0.7963 0.96071 0.0
C117 C 0.23877 0.75881 0.93631 0.0
C118 C 0.17622 0.77464 0.9294 0.0
C119 C 0.15492 0.82647 0.94739 0.0
C120 C 0.26562 0.62394 0.86495 0.0
C121 C 0.30025 0.59553 0.88785 0.0
C122 C 0.24569 0.67703 0.88057 0.0
C123 C 0.2603 0.70278 0.9193 0.0
C124 C 0.29513 0.67439 0.94208 0.0
C125 C 0.31484 0.62138 0.92656 0.0
H126 H 0.90039 0.90596 0.05319 0.0
H127 H 0.8544 0.80976 0.93866 0.0
H128 H 0.82949 0.84794 0.08104 0.0
H129 H 0.78341 0.75242 0.96608 0.0
H130 H 0.69539 0.63448 0.02935 0.0
H131 H 0.78083 0.68566 0.00712 0.0
H132 H 0.71001 0.83445 0.0795 0.0
H133 H 0.62478 0.7834 0.10191 0.0
C134 C 0.87626 0.87177 0.03415 0.0
C135 C 0.88293 0.86236 0.9939 0.0
C136 C 0.83517 0.83895 0.04994 0.0
C137 C 0.80066 0.79576 0.0257 0.0
C138 C 0.8097 0.78502 0.98555 0.0
C139 C 0.85011 0.8181 0.96984 0.0
C140 C 0.69817 0.67808 0.04063 0.0
C141 C 0.65296 0.70493 0.06715 0.0
C142 C 0.74708 0.70736 0.02788 0.0
C143 C 0.75216 0.76405 0.0416 0.0
C144 C 0.70782 0.79073 0.06877 0.0
C145 C 0.65861 0.76152 0.0813 0.0
H146 H 0.82364 0.09907 0.03179 0.0
H147 H 0.94368 0.15809 0.95253 0.0
H148 H 0.73355 0.15016 0.01436 0.0
H149 H 0.85443 0.20985 0.93548 0.0
H150 H 0.6648 0.17422 0.86204 0.0
H151 H 0.76281 0.16011 0.89568 0.0
H152 H 0.67957 0.23751 0.00514 0.0
H153 H 0.58063 0.25229 0.97107 0.0
C154 C 0.83169 0.12566 0.01247 0.0
C155 C 0.89036 0.12509 0.99361 0.0
C156 C 0.78006 0.15463 0.00225 0.0
C157 C 0.7867 0.18302 0.97293 0.0
C158 C 0.84773 0.18764 0.95772 0.0
C159 C 0.89902 0.15862 0.96782 0.0
C160 C 0.66752 0.18888 0.89322 0.0
C161 C 0.61492 0.21408 0.91391 0.0
C162 C 0.72398 0.18131 0.91252 0.0
C163 C 0.72913 0.19816 0.95307 0.0
C164 C 0.67697 0.22433 0.97387 0.0
C165 C 0.62053 0.23279 0.95438 0.0
H166 H 0.6257 0.69534 0.54884 0.0
H167 H 0.82942 0.67256 0.55769 0.0
H168 H 0.64489 0.79232 0.55228 0.0
H169 H 0.84862 0.76796 0.56156 0.0
H170 H 0.88078 0.93715 0.56117 0.0
H171 H 0.84606 0.84398 0.53288 0.0
H172 H 0.68017 0.86715 0.60608 0.0
H173 H 0.71376 0.96097 0.63335 0.0
C174 C 0.67449 0.71076 0.55039 0.0
C175 C 0.72607 0.67684 0.55346 0.0
C176 C 0.68551 0.76622 0.5527 0.0
C177 C 0.74828 0.78809 0.55755 0.0
C178 C 0.79974 0.75276 0.55744 0.0
C179 C 0.78873 0.69796 0.55553 0.0
C180 C 0.83633 0.92264 0.57076 0.0
C181 C 0.80073 0.95605 0.60009 0.0
C182 C 0.81639 0.86923 0.55453 0.0
C183 C 0.76087 0.84773 0.56765 0.0
C184 C 0.72291 0.88239 0.59506 0.0
C185 C 0.74252 0.93609 0.611 0.0
H186 H 0.65934 0.35897 0.46309 0.0
H187 H 0.8337 0.39291 0.53201 0.0
H188 H 0.7011 0.27104 0.42998 0.0
H189 H 0.87576 0.30535 0.49837 0.0
H190 H 0.89272 0.11964 0.46322 0.0
H191 H 0.85419 0.20929 0.49469 0.0
H192 H 0.7848 0.23111 0.38443 0.0
H193 H 0.82246 0.14079 0.35288 0.0
C194 C 0.70666 0.3478 0.47109 0.0
C195 C 0.74309 0.38286 0.50032 0.0
C196 C 0.73075 0.29757 0.4519 0.0
C197 C 0.79171 0.28129 0.46157 0.0
C198 C 0.82829 0.31649 0.49061 0.0
C199 C 0.80427 0.36675 0.50976 0.0
C200 C 0.86944 0.14356 0.44561 0.0
C201 C 0.86047 0.12301 0.40554 0.0
C202 C 0.84769 0.19509 0.46365 0.0
C203 C 0.81644 0.22724 0.44205 0.0
C204 C 0.80804 0.20698 0.40191 0.0
C205 C 0.82993 0.15539 0.38382 0.0
H206 H 0.48196 0.40497 0.55981 0.0
H207 H 0.35497 0.3698 0.45987 0.0
H208 H 0.40073 0.37052 0.59722 0.0
H209 H 0.27417 0.3361 0.49701 0.0
H210 H 0.20372 0.39334 0.65914 0.0
H211 H 0.29808 0.40695 0.62289 0.0
H212 H 0.24161 0.26881 0.53126 0.0
H213 H 0.1464 0.25584 0.5672 0.0
C214 C 0.43698 0.38947 0.54579 0.0
C215 C 0.42425 0.39129 0.50725 0.0
C216 C 0.39051 0.36984 0.56717 0.0
C217 C 0.33061 0.35145 0.55027 0.0
C218 C 0.31987 0.34965 0.51089 0.0
C219 C 0.36625 0.36921 0.48959 0.0
C220 C 0.21161 0.36566 0.63137 0.0
C221 C 0.16713 0.32398 0.6158 0.0
C222 C 0.26609 0.37311 0.61076 0.0
C223 C 0.27728 0.33903 0.57413 0.0
C224 C 0.23391 0.29616 0.55919 0.0
C225 C 0.17939 0.28873 0.57979 0.0
H226 H 0.47228 0.65939 0.44445 0.0
H227 H 0.3922 0.62465 0.54733 0.0
H228 H 0.37565 0.70875 0.43495 0.0
H229 H 0.29437 0.67261 0.53708 0.0
H230 H 0.11804 0.65303 0.44425 0.0
H231 H 0.2193 0.63261 0.47264 0.0
H232 H 0.2942 0.79053 0.46882 0.0
H233 H 0.19172 0.81191 0.44143 0.0
C234 C 0.43496 0.66428 0.46585 0.0
C235 C 0.43954 0.63858 0.49669 0.0
C236 C 0.37973 0.69238 0.46039 0.0
C237 C 0.32762 0.69398 0.48513 0.0
C238 C 0.3341 0.67187 0.51768 0.0
C239 C 0.39013 0.64491 0.52371 0.0
C240 C 0.15578 0.68368 0.44993 0.0
C241 C 0.14725 0.7339 0.44045 0.0
C242 C 0.2134 0.6722 0.46652 0.0
C243 C 0.26412 0.71024 0.47318 0.0
C244 C 0.25548 0.76081 0.46422 0.0
C245 C 0.19708 0.77288 0.44852 0.0
H246 H 0.95621 0.94355 0.11014 0.0
H247 H 0.12352 0.0216 0.17274 0.0
H248 H 0.92609 0.90925 0.16639 0.0
H249 H 0.09442 -0.013 0.22816 0.0
H250 H 0.01009 0.94854 0.33289 0.0
H251 H 0.01958 -0.00779 0.27926 0.0
H252 H 0.96769 0.84088 0.19907 0.0
H253 H 0.95465 0.79793 0.25331 0.0
C254 C 0.98602 0.95396 0.13595 0.0
C255 C 0.04249 0.98487 0.13669 0.0
C256 C 0.9691 0.934 0.16809 0.0
C257 C 0.00806 0.94506 0.20175 0.0
C258 C 0.06284 0.9781 0.20298 0.0
C259 C 0.07977 -0.00226 0.17096 0.0
C260 C 0.99842 0.92504 0.30404 0.0
C261 C 0.98011 0.87011 0.29749 0.0
C262 C 0.00502 0.94984 0.27312 0.0
C263 C 0.99433 0.92012 0.23478 0.0
C264 C 0.9753 0.86522 0.22824 0.0
C265 C 0.96854 0.84044 0.25927 0.0
H266 H 0.10651 0.09038 0.91072 0.0
H267 H 0.04756 0.93831 0.83368 0.0
H268 H 0.10077 0.13466 0.85719 0.0
H269 H 0.04281 0.98267 0.77986 0.0
H270 H 0.93758 0.10466 0.72003 0.0
H271 H 0.96717 0.04862 0.76446 0.0
H272 H 0.14141 0.14329 0.7954 0.0
H273 H 0.11168 0.19927 0.75106 0.0
C274 C 0.09412 0.066 0.88214 0.0
C275 C 0.07662 0.01098 0.87663 0.0
C276 C 0.09092 0.09142 0.85136 0.0
C277 C 0.07031 0.06235 0.81435 0.0
C278 C 0.05762 0.00636 0.8082 0.0
C279 C 0.06098 0.98087 0.839 0.0
C280 C 0.98301 0.11247 0.73541 0.0
C281 C 0.02241 0.15616 0.73186 0.0
C282 C 0.0 0.08043 0.76099 0.0
C283 C 0.05667 0.09156 0.78355 0.0
C284 C 0.0971 0.13406 0.77884 0.0
C285 C 0.08006 0.16607 0.7534 0.0
H286 H 0.46489 0.47662 0.61659 0.0
H287 H 0.62992 0.52535 0.69189 0.0
H288 H 0.41566 0.43694 0.6659 0.0
H289 H 0.5808 0.48662 0.74079 0.0
H290 H 0.46942 0.43579 0.83187 0.0
H291 H 0.49225 0.49131 0.78613 0.0
H292 H 0.44423 0.35518 0.69105 0.0
H293 H 0.41931 0.30015 0.73704 0.0
C294 C 0.49038 0.47934 0.64368 0.0
C295 C 0.5521 0.50286 0.64979 0.0
C296 C 0.46217 0.45668 0.6719 0.0
C297 C 0.49466 0.45811 0.70706 0.0
C298 C 0.55426 0.48507 0.71416 0.0
C299 C 0.58263 0.50707 0.68591 0.0
C300 C 0.46138 0.41831 0.80133 0.0
C301 C 0.44157 0.36387 0.78807 0.0
C302 C 0.47535 0.44991 0.77506 0.0
C303 C 0.47009 0.42766 0.73495 0.0
C304 C 0.44796 0.37376 0.72175 0.0
C305 C 0.4343 0.34209 0.74805 0.0
H306 H 0.6594 0.5999 0.41876 0.0
H307 H 0.66278 0.4291 0.36236 0.0
H308 H 0.66542 0.62236 0.35584 0.0
H309 H 0.66532 0.45105 0.29991 0.0
H310 H 0.54858 0.62867 0.24486 0.0
H311 H 0.58717 0.6186 0.3074 0.0
H312 H 0.70658 0.48579 0.25048 0.0
H313 H 0.66485 0.49419 0.18786 0.0
C314 C 0.66306 0.56718 0.39305 0.0
C315 C 0.65903 0.5127 0.39548 0.0
C316 C 0.66568 0.58001 0.35689 0.0
C317 C 0.66388 0.5386 0.32253 0.0
C318 C 0.66683 0.48427 0.32545 0.0
C319 C 0.66491 0.47154 0.36148 0.0
C320 C 0.58371 0.59778 0.24569 0.0
C321 C 0.6027 0.56153 0.21148 0.0
C322 C 0.60651 0.59229 0.28166 0.0
C323 C 0.64971 0.55093 0.28428 0.0
C324 C 0.67219 0.51724 0.24976 0.0
C325 C 0.64844 0.52211 0.2138 0.0
loop_
_geom_bond_atom_site_label_1
_geom_bond_atom_site_label_2
_geom_bond_distance
_geom_bond_site_symmetry_2
_ccdc_geom_bond_type
O0 Mg1 1.990 . S
O0 C14 1.253 . S
Mg1 O0 1.990 . S
Mg1 O4 2.180 . S
Mg1 O5 2.117 . S
Mg1 O19 2.030 1_545 S
O2 Mg3 2.072 . S
O2 C14 1.260 . S
Mg3 O2 2.072 . S
Mg3 O4 2.099 . S
Mg3 O6 2.079 1_554 S
Mg3 O7 2.072 1_455 S
Mg3 O9 2.099 1_444 S
Mg3 O20 2.079 1_544 S
O4 Mg1 2.180 . S
O4 Mg3 2.099 . S
O4 C15 1.279 . S
O5 Mg1 2.117 . S
O5 C15 1.250 . S
O6 Mg3 2.079 1_556 S
O6 C16 1.264 . S
O7 Mg3 2.072 1_655 S
O7 C17 1.260 . S
Mg8 O9 2.180 . S
Mg8 O10 2.030 1_565 S
Mg8 O11 1.990 1_565 S
Mg8 O12 2.117 . S
O9 Mg3 2.099 1_666 S
O9 Mg8 2.180 . S
O9 C18 1.279 1_556 S
O10 Mg8 2.030 1_545 S
O10 C16 1.248 1_655 S
O11 Mg8 1.990 1_545 S
O11 C17 1.253 1_556 S
O12 Mg8 2.117 . S
O12 C18 1.250 1_556 S
C13 O19 1.248 . S
C13 O20 1.264 1_554 S
C14 O0 1.253 . S
C14 O2 1.260 . S
C15 O4 1.279 . S
C15 O5 1.250 . S
C16 O6 1.264 . S
C16 O10 1.248 1_455 S
C17 O7 1.260 . S
C17 O11 1.253 1_554 S
C18 O9 1.279 1_554 S
C18 O12 1.250 1_554 S
O19 Mg1 2.030 1_565 S
O19 C13 1.248 . S
O20 Mg3 2.079 1_566 S
O20 C13 1.264 1_556 S
O21 Mg22 1.990 . S
O21 C35 1.253 . S
Mg22 O21 1.990 . S
Mg22 O25 2.180 . S
Mg22 O26 2.117 . S
Mg22 O40 2.030 . S
O23 Mg24 2.072 . S
O23 C35 1.260 . S
Mg24 O23 2.072 . S
Mg24 O25 2.099 . S
Mg24 O27 2.079 . S
Mg24 O28 2.072 . S
Mg24 O30 2.099 . S
Mg24 O41 2.079 . S
O25 Mg22 2.180 . S
O25 Mg24 2.099 . S
O25 C36 1.279 . S
O26 Mg22 2.117 . S
O26 C36 1.250 . S
O27 Mg24 2.079 . S
O27 C37 1.264 . S
O28 Mg24 2.072 . S
O28 C38 1.260 . S
Mg29 O30 2.180 . S
Mg29 O31 2.030 . S
Mg29 O32 1.990 . S
Mg29 O33 2.117 . S
O30 Mg24 2.099 . S
O30 Mg29 2.180 . S
O30 C39 1.279 . S
O31 Mg29 2.030 . S
O31 C37 1.248 . S
O32 Mg29 1.990 . S
O32 C38 1.253 . S
O33 Mg29 2.117 . S
O33 C39 1.250 . S
C34 O40 1.248 . S
C34 O41 1.264 . S
C35 O21 1.253 . S
C35 O23 1.260 . S
C36 O25 1.279 . S
C36 O26 1.250 . S
C37 O27 1.264 . S
C37 O31 1.248 . S
C38 O28 1.260 . S
C38 O32 1.253 . S
C39 O30 1.279 . S
C39 O33 1.250 . S
O40 Mg22 2.030 . S
O40 C34 1.248 . S
O41 Mg24 2.079 . S
O41 C34 1.264 . S
O42 Cd43 2.300 . S
O42 C49 1.275 1_565 S
Cd43 O42 2.300 . S
Cd43 O51 2.381 . S
Cd43 O52 2.378 . S
O44 Cd45 2.385 . S
O44 C49 1.255 . S
Cd45 O44 2.385 . S
Cd45 O46 2.317 1_455 S
O46 Cd45 2.317 1_655 S
O46 C47 1.232 . S
C47 O46 1.232 . S
C47 O48 1.218 . S
O48 C47 1.218 . S
C49 O42 1.275 1_545 S
C49 O44 1.255 . S
C50 O51 1.258 . S
C50 O52 1.256 . S
O51 Cd43 2.381 . S
O51 C50 1.258 . S
O52 Cd43 2.378 . S
O52 C50 1.256 . S
O53 Cd54 2.300 . S
O53 C60 1.275 . S
Cd54 O53 2.300 . S
Cd54 O62 2.381 . S
Cd54 O63 2.378 . S
O55 Cd56 2.385 . S
O55 C60 1.255 1_565 S
Cd56 O55 2.385 . S
Cd56 O57 2.317 1_455 S
O57 Cd56 2.317 1_655 S
O57 C58 1.232 . S
C58 O57 1.232 . S
C58 O59 1.218 . S
O59 C58 1.218 . S
C60 O53 1.275 . S
C60 O55 1.255 1_545 S
C61 O62 1.258 . S
C61 O63 1.256 . S
O62 Cd54 2.381 . S
O62 C61 1.258 . S
O63 Cd54 2.378 . S
O63 C61 1.256 . S
O64 Cd65 2.300 . S
O64 C71 1.275 . S
Cd65 O64 2.300 . S
Cd65 O73 2.381 . S
Cd65 O74 2.378 . S
O66 Cd67 2.385 . S
O66 C71 1.255 . S
Cd67 O66 2.385 . S
Cd67 O68 2.317 . S
O68 Cd67 2.317 . S
O68 C69 1.232 . S
C69 O68 1.232 . S
C69 O70 1.218 . S
O70 C69 1.218 . S
C71 O64 1.275 . S
C71 O66 1.255 . S
C72 O73 1.258 . S
C72 O74 1.256 . S
O73 Cd65 2.381 . S
O73 C72 1.258 . S
O74 Cd65 2.378 . S
O74 C72 1.256 . S
O75 Cd76 2.300 . S
O75 C82 1.275 . S
Cd76 O75 2.300 . S
Cd76 O84 2.381 . S
Cd76 O85 2.378 . S
O77 Cd78 2.385 . S
O77 C82 1.255 . S
Cd78 O77 2.385 . S
Cd78 O79 2.317 . S
O79 Cd78 2.317 . S
O79 C80 1.232 . S
C80 O79 1.232 . S
C80 O81 1.218 . S
O81 C80 1.218 . S
C82 O75 1.275 . S
C82 O77 1.255 . S
C83 O84 1.258 . S
C83 O85 1.256 . S
O84 Cd76 2.381 . S
O84 C83 1.258 . S
O85 Cd76 2.378 . S
O85 C83 1.256 . S
H86 C94 0.950 . S
H87 C99 0.950 . S
H88 C96 0.950 . S
H89 C98 0.950 . S
H90 C100 0.950 . S
H91 C102 0.950 . S
H92 C104 0.958 . S
H93 C105 0.950 1_556 S
C94 H86 0.950 . S
C94 C95 1.386 1_556 S
C94 C96 1.391 . S
C95 C94 1.386 1_554 S
C95 C99 1.393 . S
C96 H88 0.950 . S
C96 C94 1.391 . S
C96 C97 1.400 1_556 S
C97 C96 1.400 1_554 S
C97 C98 1.398 . S
C97 C103 1.491 . S
C98 H89 0.950 . S
C98 C97 1.398 . S
C98 C99 1.391 . S
C99 H87 0.950 . S
C99 C95 1.393 . S
C99 C98 1.391 . S
C100 H90 0.950 . S
C100 C101 1.386 . S
C100 C102 1.391 . S
C101 C100 1.386 . S
C101 C105 1.393 . S
C102 H91 0.950 . S
C102 C100 1.391 . S
C102 C103 1.400 . S
C103 C97 1.491 . S
C103 C102 1.400 . S
C103 C104 1.389 1_554 S
C104 H92 0.958 . S
C104 C103 1.389 1_556 S
C104 C105 1.392 1_556 S
C105 H93 0.950 1_554 S
C105 C101 1.393 . S
C105 C104 1.392 1_554 S
H106 C114 0.950 . S
H107 C119 0.950 . S
H108 C116 0.950 . S
H109 C118 0.950 . S
H110 C120 0.950 . S
H111 C122 0.950 . S
H112 C124 0.950 . S
H113 C125 0.950 . S
C114 H106 0.950 . S
C114 C115 1.386 . S
C114 C116 1.391 1_554 S
C115 C114 1.386 . S
C115 C119 1.393 . S
C116 H108 0.950 . S
C116 C114 1.391 1_556 S
C116 C117 1.400 . S
C117 C116 1.400 . S
C117 C118 1.398 . S
C117 C123 1.491 . S
C118 H109 0.950 . S
C118 C117 1.398 . S
C118 C119 1.391 1_556 S
C119 H107 0.950 . S
C119 C115 1.393 . S
C119 C118 1.391 1_554 S
C120 H110 0.950 . S
C120 C121 1.386 . S
C120 C122 1.391 . S
C121 C120 1.386 . S
C121 C125 1.393 . S
C122 H111 0.950 . S
C122 C120 1.391 . S
C122 C123 1.400 . S
C123 C117 1.491 . S
C123 C122 1.400 . S
C123 C124 1.398 . S
C124 H112 0.950 . S
C124 C123 1.398 . S
C124 C125 1.391 . S
C125 H113 0.950 . S
C125 C121 1.393 . S
C125 C124 1.391 . S
H126 C134 0.950 . S
H127 C139 0.950 1_556 S
H128 C136 0.950 . S
H129 C138 0.951 . S
H130 C140 0.950 . S
H131 C142 0.950 . S
H132 C144 0.950 . S
H133 C145 0.950 . S
C134 H126 0.950 . S
C134 C135 1.386 . S
C134 C136 1.391 . S
C135 C134 1.386 . S
C135 C139 1.393 . S
C136 H128 0.950 . S
C136 C134 1.391 . S
C136 C137 1.400 . S
C137 C136 1.400 . S
C137 C138 1.398 . S
C137 C143 1.491 . S
C138 H129 0.951 . S
C138 C137 1.398 . S
C138 C139 1.391 . S
C139 H127 0.950 1_554 S
C139 C135 1.393 . S
C139 C138 1.391 . S
C140 H130 0.950 . S
C140 C141 1.386 . S
C140 C142 1.391 . S
C141 C140 1.386 . S
C141 C145 1.393 . S
C142 H131 0.950 . S
C142 C140 1.391 . S
C142 C143 1.400 . S
C143 C137 1.491 . S
C143 C142 1.400 . S
C143 C144 1.398 . S
C144 H132 0.950 . S
C144 C143 1.398 . S
C144 C145 1.391 . S
C145 H133 0.950 . S
C145 C141 1.393 . S
C145 C144 1.391 . S
H146 C154 0.950 . S
H147 C159 0.950 . S
H148 C156 0.950 . S
H149 C158 0.950 . S
H150 C160 0.950 . S
H151 C162 0.950 . S
H152 C164 0.950 . S
H153 C165 0.950 . S
C154 H146 0.950 . S
C154 C155 1.386 . S
C154 C156 1.391 . S
C155 C154 1.386 . S
C155 C159 1.393 1_554 S
C156 H148 0.950 . S
C156 C154 1.391 . S
C156 C157 1.400 1_554 S
C157 C156 1.400 1_556 S
C157 C158 1.398 . S
C157 C163 1.491 . S
C158 H149 0.950 . S
C158 C157 1.398 . S
C158 C159 1.391 . S
C159 H147 0.950 . S
C159 C155 1.393 1_556 S
C159 C158 1.391 . S
C160 H150 0.950 . S
C160 C161 1.386 . S
C160 C162 1.391 . S
C161 C160 1.386 . S
C161 C165 1.393 1_556 S
C162 H151 0.950 . S
C162 C160 1.391 . S
C162 C163 1.400 . S
C163 C157 1.491 . S
C163 C162 1.400 . S
C163 C164 1.398 1_556 S
C164 H152 0.950 . S
C164 C163 1.398 1_554 S
C164 C165 1.391 . S
C165 H153 0.950 . S
C165 C161 1.393 1_554 S
C165 C164 1.391 . S
H166 C174 0.950 . S
H167 C179 0.950 . S
H168 C176 0.950 . S
H169 C178 0.950 . S
H170 C180 0.950 . S
H171 C182 0.950 . S
H172 C184 0.950 . S
H173 C185 0.950 . S
C174 H166 0.950 . S
C174 C175 1.386 . S
C174 C176 1.391 . S
C175 C174 1.386 . S
C175 C179 1.393 . S
C176 H168 0.950 . S
C176 C174 1.391 . S
C176 C177 1.400 . S
C177 C176 1.400 . S
C177 C178 1.398 . S
C177 C183 1.491 . S
C178 H169 0.950 . S
C178 C177 1.398 . S
C178 C179 1.391 . S
C179 H167 0.950 . S
C179 C175 1.393 . S
C179 C178 1.391 . S
C180 H170 0.950 . S
C180 C181 1.386 . S
C180 C182 1.391 . S
C181 C180 1.386 . S
C181 C185 1.393 . S
C182 H171 0.950 . S
C182 C180 1.391 . S
C182 C183 1.400 . S
C183 C177 1.491 . S
C183 C182 1.400 . S
C183 C184 1.398 . S
C184 H172 0.950 . S
C184 C183 1.398 . S
C184 C185 1.391 . S
C185 H173 0.950 . S
C185 C181 1.393 . S
C185 C184 1.391 . S
H186 C194 0.950 . S
H187 C199 0.950 . S
H188 C196 0.950 . S
H189 C198 0.950 . S
H190 C200 0.950 . S
H191 C202 0.950 . S
H192 C204 0.950 . S
H193 C205 0.950 . S
C194 H186 0.950 . S
C194 C195 1.386 . S
C194 C196 1.391 . S
C195 C194 1.386 . S
C195 C199 1.393 . S
C196 H188 0.950 . S
C196 C194 1.391 . S
C196 C197 1.400 . S
C197 C196 1.400 . S
C197 C198 1.398 . S
C197 C203 1.491 . S
C198 H189 0.950 . S
C198 C197 1.398 . S
C198 C199 1.391 . S
C199 H187 0.950 . S
C199 C195 1.393 . S
C199 C198 1.391 . S
C200 H190 0.950 . S
C200 C201 1.386 . S
C200 C202 1.391 . S
C201 C200 1.386 . S
C201 C205 1.393 . S
C202 H191 0.950 . S
C202 C200 1.391 . S
C202 C203 1.400 . S
C203 C197 1.491 . S
C203 C202 1.400 . S
C203 C204 1.398 . S
C204 H192 0.950 . S
C204 C203 1.398 . S
C204 C205 1.391 . S
C205 H193 0.950 . S
C205 C201 1.393 . S
C205 C204 1.391 . S
H206 C214 0.950 . S
H207 C219 0.950 . S
H208 C216 0.950 . S
H209 C218 0.950 . S
H210 C220 0.950 . S
H211 C222 0.950 . S
H212 C224 0.950 . S
H213 C225 0.950 . S
C214 H206 0.950 . S
C214 C215 1.386 . S
C214 C216 1.391 . S
C215 C214 1.386 . S
C215 C219 1.393 . S
C216 H208 0.950 . S
C216 C214 1.391 . S
C216 C217 1.400 . S
C217 C216 1.400 . S
C217 C218 1.398 . S
C217 C223 1.491 . S
C218 H209 0.950 . S
C218 C217 1.398 . S
C218 C219 1.391 . S
C219 H207 0.950 . S
C219 C215 1.393 . S
C219 C218 1.391 . S
C220 H210 0.950 . S
C220 C221 1.386 . S
C220 C222 1.391 . S
C221 C220 1.386 . S
C221 C225 1.393 . S
C222 H211 0.950 . S
C222 C220 1.391 . S
C222 C223 1.400 . S
C223 C217 1.491 . S
C223 C222 1.400 . S
C223 C224 1.398 . S
C224 H212 0.950 . S
C224 C223 1.398 . S
C224 C225 1.391 . S
C225 H213 0.950 . S
C225 C221 1.393 . S
C225 C224 1.391 . S
H226 C234 0.950 . S
H227 C239 0.950 . S
H228 C236 0.950 . S
H229 C238 0.950 . S
H230 C240 0.950 . S
H231 C242 0.950 . S
H232 C244 0.950 . S
H233 C245 0.950 . S
C234 H226 0.950 . S
C234 C235 1.386 . S
C234 C236 1.391 . S
C235 C234 1.386 . S
C235 C239 1.393 . S
C236 H228 0.950 . S
C236 C234 1.391 . S
C236 C237 1.400 . S
C237 C236 1.400 . S
C237 C238 1.398 . S
C237 C243 1.491 . S
C238 H229 0.950 . S
C238 C237 1.398 . S
C238 C239 1.391 . S
C239 H227 0.950 . S
C239 C235 1.393 . S
C239 C238 1.391 . S
C240 H230 0.950 . S
C240 C241 1.386 . S
C240 C242 1.391 . S
C241 C240 1.386 . S
C241 C245 1.393 . S
C242 H231 0.950 . S
C242 C240 1.391 . S
C242 C243 1.400 . S
C243 C237 1.491 . S
C243 C242 1.400 . S
C243 C244 1.398 . S
C244 H232 0.950 . S
C244 C243 1.398 . S
C244 C245 1.391 . S
C245 H233 0.950 . S
C245 C241 1.393 . S
C245 C244 1.391 . S
H246 C254 0.950 . S
H247 C259 0.950 . S
H248 C256 0.950 . S
H249 C258 0.950 . S
H250 C260 0.950 . S
H251 C262 0.950 . S
H252 C264 0.950 . S
H253 C265 0.950 . S
C254 H246 0.950 . S
C254 C255 1.386 1_655 S
C254 C256 1.391 . S
C255 C254 1.386 1_455 S
C255 C259 1.393 1_545 S
C256 H248 0.950 . S
C256 C254 1.391 . S
C256 C257 1.400 1_655 S
C257 C256 1.400 1_455 S
C257 C258 1.398 1_545 S
C257 C263 1.491 . S
C258 H249 0.950 . S
C258 C257 1.398 1_565 S
C258 C259 1.391 . S
C259 H247 0.950 . S
C259 C255 1.393 1_565 S
C259 C258 1.391 . S
C260 H250 0.950 . S
C260 C261 1.386 1_565 S
C260 C262 1.391 . S
C261 C260 1.386 1_545 S
C261 C265 1.393 1_455 S
C262 H251 0.950 . S
C262 C260 1.391 . S
C262 C263 1.400 1_565 S
C263 C257 1.491 . S
C263 C262 1.400 1_545 S
C263 C264 1.398 1_455 S
C264 H252 0.950 . S
C264 C263 1.398 1_655 S
C264 C265 1.391 . S
C265 H253 0.950 . S
C265 C261 1.393 1_655 S
C265 C264 1.391 . S
H266 C274 0.950 . S
H267 C279 0.950 . S
H268 C276 0.950 . S
H269 C278 0.950 . S
H270 C280 0.950 1_565 S
H271 C282 0.950 . S
H272 C284 0.950 . S
H273 C285 0.950 . S
C274 H266 0.950 . S
C274 C275 1.386 . S
C274 C276 1.391 . S
C275 C274 1.386 . S
C275 C279 1.393 1_445 S
C276 H268 0.950 . S
C276 C274 1.391 . S
C276 C277 1.400 . S
C277 C276 1.400 . S
C277 C278 1.398 1_445 S
C277 C283 1.491 . S
C278 H269 0.950 . S
C278 C277 1.398 1_665 S
C278 C279 1.391 . S
C279 H267 0.950 . S
C279 C275 1.393 1_665 S
C279 C278 1.391 . S
C280 H270 0.950 1_545 S
C280 C281 1.386 . S
C280 C282 1.391 1_545 S
C281 C280 1.386 . S
C281 C285 1.393 1_655 S
C282 H271 0.950 . S
C282 C280 1.391 1_565 S
C282 C283 1.400 1_665 S
C283 C277 1.491 . S
C283 C282 1.400 1_445 S
C283 C284 1.398 . S
C284 H272 0.950 . S
C284 C283 1.398 . S
C284 C285 1.391 . S
C285 H273 0.950 . S
C285 C281 1.393 1_455 S
C285 C284 1.391 . S
H286 C294 0.950 . S
H287 C299 0.950 . S
H288 C296 0.950 . S
H289 C298 0.950 . S
H290 C300 0.950 . S
H291 C302 0.950 . S
H292 C304 0.950 . S
H293 C305 0.950 . S
C294 H286 0.950 . S
C294 C295 1.386 . S
C294 C296 1.391 . S
C295 C294 1.386 . S
C295 C299 1.393 . S
C296 H288 0.950 . S
C296 C294 1.391 . S
C296 C297 1.400 . S
C297 C296 1.400 . S
C297 C298 1.398 . S
C297 C303 1.491 . S
C298 H289 0.950 . S
C298 C297 1.398 . S
C298 C299 1.391 . S
C299 H287 0.950 . S
C299 C295 1.393 . S
C299 C298 1.391 . S
C300 H290 0.950 . S
C300 C301 1.386 . S
C300 C302 1.391 . S
C301 C300 1.386 . S
C301 C305 1.393 . S
C302 H291 0.950 . S
C302 C300 1.391 . S
C302 C303 1.400 . S
C303 C297 1.491 . S
C303 C302 1.400 . S
C303 C304 1.398 . S
C304 H292 0.950 . S
C304 C303 1.398 . S
C304 C305 1.391 . S
C305 H293 0.950 . S
C305 C301 1.393 . S
C305 C304 1.391 . S
H306 C314 0.950 . S
H307 C319 0.950 . S
H308 C316 0.950 . S
H309 C318 0.950 . S
H310 C320 0.950 . S
H311 C322 0.950 . S
H312 C324 0.950 . S
H313 C325 0.950 . S
C314 H306 0.950 . S
C314 C315 1.386 . S
C314 C316 1.391 . S
C315 C314 1.386 . S
C315 C319 1.393 . S
C316 H308 0.950 . S
C316 C314 1.391 . S
C316 C317 1.400 . S
C317 C316 1.400 . S
C317 C318 1.398 . S
C317 C323 1.491 . S
C318 H309 0.950 . S
C318 C317 1.398 . S
C318 C319 1.391 . S
C319 H307 0.950 . S
C319 C315 1.393 . S
C319 C318 1.391 . S
C320 H310 0.950 . S
C320 C321 1.386 . S
C320 C322 1.391 . S
C321 C320 1.386 . S
C321 C325 1.393 . S
C322 H311 0.950 . S
C322 C320 1.391 . S
C322 C323 1.400 . S
C323 C317 1.491 . S
C323 C322 1.400 . S
C323 C324 1.398 . S
C324 H312 0.950 . S
C324 C323 1.398 . S
C324 C325 1.391 . S
C325 H313 0.950 . S
C325 C321 1.393 . S
C325 C324 1.391 . S
C101 C80 1.164 . S
C95 C15 1.287 . S
C115 C13 1.461 . S
C121 C69 1.247 . S
C135 C18 1.266 . S
C141 C83 1.425 . S
C155 C17 1.373 . S
C161 C72 1.401 . S
C175 C36 1.243 . S
C181 C58 1.219 . S
C195 C34 1.460 . S
C201 C47 1.285 . S
C221 C61 1.431 . S
C215 C39 1.275 . S
C241 C50 1.398 . S
C235 C38 1.352 . S
C255 C14 1.523 . S
C261 C49 1.517 . S
C275 C16 1.384 . S
C281 C60 1.382 1_655 S
C301 C71 1.518 . S
C295 C35 1.522 . S
C315 C37 1.386 . S
C321 C82 1.383 . S
