# Generated by pormake.
# Topology scu, (8,4)-cn, num edge types: 1
# Building blocks:
#     Node 0, Type 0, BuildingBlock: TAGTUT_clean_sbu_3, # of connection points: 8
#     Node 1, Type 1, BuildingBlock: KOZSID_clean_sbu_0, # of connection points: 4
#     Node 2, Type 1, BuildingBlock: KOZSID_clean_sbu_0, # of connection points: 4
#     Edge 3, Type (0, 1), BuildingBlock: EZIPEK_clean_linker_0, # of connection points: 2
#     Edge 4, Type (0, 1), BuildingBlock: EZIPEK_clean_linker_0, # of connection points: 2
#     Edge 5, Type (0, 1), BuildingBlock: EZIPEK_clean_linker_0, # of connection points: 2
#     Edge 6, Type (0, 1), BuildingBlock: EZIPEK_clean_linker_0, # of connection points: 2
#     Edge 7, Type (0, 1), BuildingBlock: EZIPEK_clean_linker_0, # of connection points: 2
#     Edge 8, Type (0, 1), BuildingBlock: EZIPEK_clean_linker_0, # of connection points: 2
#     Edge 9, Type (0, 1), BuildingBlock: EZIPEK_clean_linker_0, # of connection points: 2
#     Edge 10, Type (0, 1), BuildingBlock: EZIPEK_clean_linker_0, # of connection points: 2
# Relax obj value: 0.022
# Max RMSD: 0.097
# Mean RMSD: 0.066
data_MOF--net-scu--node1-TAGTUT_clean_sbu_3--node2-KOZSID_clean_sbu_0--edge1-EZIPEK_clean_linker_0
_symmetry_space_group_name_H-M    P1
_symmetry_Int_Tables_number       1
_symmetry_cell_setting            triclinic
loop_
_symmetry_equiv_pos_as_xyz
'x, y, z'
_cell_length_a     24.059796
_cell_length_b     19.781672
_cell_length_c     16.524739
_cell_angle_alpha  83.802477
_cell_angle_beta   86.608676
_cell_angle_gamma 89.933545
loop_
_atom_site_label
_atom_site_type_symbol
_atom_site_fract_x
_atom_site_fract_y
_atom_site_fract_z
_atom_type_partial_charge
C0 C 1.00015 0.86619 0.12891 0.0
C1 C 0.79347 0.97355 0.11144 0.0
C2 C 0.84845 0.02542 0.86515 0.0
Mg3 Mg 0.11533 0.91998 0.01718 0.0
Mg4 Mg 0.12465 0.08336 0.9558 0.0
O5 O 0.08468 0.0021 0.95439 0.0
Mg6 Mg 0.00609 -0.00023 0.00106 0.0
O7 O 0.92768 0.99459 0.04908 0.0
Mg8 Mg 0.9023 0.91033 0.00632 0.0
Mg9 Mg 0.88397 0.07225 0.02516 0.0
C10 C 0.01432 0.13698 0.87321 0.0
O11 O 0.02048 0.0853 0.08001 0.0
O12 O 0.19396 0.93836 0.9275 0.0
O13 O 0.93863 0.14149 0.0794 0.0
O14 O 0.16032 0.97907 0.10693 0.0
O15 O 0.19483 0.05099 0.8851 0.0
O16 O 0.15422 0.09134 0.07632 0.0
O17 O 0.98737 0.91267 0.92719 0.0
O18 O 0.07155 0.86458 0.92674 0.0
C19 C 0.02114 0.86611 0.90639 0.0
C20 C 0.21514 0.99123 0.8843 0.0
O21 O 0.98668 0.08335 0.90109 0.0
O22 O 0.81945 0.92167 0.08711 0.0
O23 O 0.06419 0.14892 0.89228 0.0
O24 O 0.85875 0.9662 0.89959 0.0
O25 O 0.81157 0.03456 0.09567 0.0
O26 O 0.86068 0.07799 0.89921 0.0
O27 O 0.03039 0.9158 0.0948 0.0
O28 O 0.94909 0.85954 0.11263 0.0
C29 C 0.17081 0.03963 0.12161 0.0
C30 C 0.9894 0.13459 0.09895 0.0
C31 C 0.08368 0.60532 0.3928 0.0
C32 C 0.1388 0.62464 0.37431 0.0
C33 C 0.17012 0.58139 0.42255 0.0
C34 C 0.13242 0.53832 0.46707 0.0
N35 N 0.07888 0.55084 0.44949 0.0
Co36 Co 0.01033 0.50137 0.49966 0.0
N37 N 0.05583 0.44392 0.57777 0.0
C38 C 0.11141 0.44755 0.58566 0.0
C39 C 0.13021 0.40254 0.64672 0.0
C40 C 0.08403 0.36748 0.67928 0.0
C41 C 0.03965 0.39303 0.63542 0.0
N42 N 0.94208 0.45051 0.54861 0.0
C43 C 0.93766 0.39563 0.60495 0.0
C44 C 0.88321 0.37204 0.618 0.0
C45 C 0.85188 0.41367 0.56789 0.0
C46 C 0.88895 0.45968 0.52705 0.0
N47 N 0.96472 0.56047 0.42351 0.0
C48 C 0.90874 0.55906 0.41841 0.0
C49 C 0.88886 0.61098 0.36666 0.0
C50 C 0.93465 0.64849 0.33795 0.0
C51 C 0.98019 0.61666 0.37343 0.0
N52 N 0.02014 0.43393 0.41974 0.0
C53 C 0.031 0.33385 0.31215 0.0
C54 C 0.98023 0.36568 0.3253 0.0
C55 C 0.9759 0.41572 0.37819 0.0
C56 C 0.07692 0.35371 0.35155 0.0
C57 C 0.0704 0.40309 0.40575 0.0
N58 N 1.00022 0.56908 0.57876 0.0
C59 C 0.94111 0.64523 0.64976 0.0
C60 C 0.98756 0.67336 0.67973 0.0
C61 C 0.04014 0.64822 0.66011 0.0
C62 C 0.04548 0.59606 0.61035 0.0
C63 C 0.94838 0.59322 0.59951 0.0
H64 H 0.08662 0.57849 0.59818 0.0
H65 H 0.91149 0.57354 0.57829 0.0
H66 H 0.93618 0.43851 0.38474 0.0
H67 H 0.10639 0.41501 0.43598 0.0
C68 C 0.14536 0.49094 0.53188 0.0
C69 C 0.03718 0.64216 0.35797 0.0
C70 C 0.98389 0.36396 0.64693 0.0
C71 C 0.87542 0.51112 0.467 0.0
H72 H 0.15451 0.66698 0.33225 0.0
H73 H 0.21479 0.58295 0.42708 0.0
H74 H 0.17262 0.39499 0.66417 0.0
H75 H 0.08334 0.32646 0.72832 0.0
H76 H 0.86785 0.32896 0.65918 0.0
H77 H 0.80753 0.41021 0.56112 0.0
H78 H 0.84597 0.62164 0.35361 0.0
H79 H 0.93422 0.69491 0.29689 0.0
H80 H 0.94398 0.35204 0.29451 0.0
H81 H 0.11713 0.33029 0.34175 0.0
H82 H 0.89962 0.6627 0.66583 0.0
H83 H 0.07692 0.66814 0.68434 0.0
C84 C 0.42886 0.92959 0.63603 0.0
C85 C 0.41343 0.8672 0.67801 0.0
C86 C 0.44619 0.81948 0.64505 0.0
C87 C 0.4795 0.8554 0.58519 0.0
N88 N 0.46988 0.92279 0.57812 0.0
Co89 Co 0.50951 0.99329 0.50094 0.0
N90 N 0.54162 0.92295 0.43355 0.0
C91 C 0.54079 0.85513 0.45452 0.0
C92 C 0.56773 0.81906 0.39792 0.0
C93 C 0.58811 0.86697 0.33792 0.0
C94 C 0.5724 0.92993 0.36151 0.0
N95 N 0.55044 0.06379 0.4244 0.0
C96 C 0.57922 0.05846 0.35221 0.0
C97 C 0.6008 0.12093 0.31843 0.0
C98 C 0.58702 0.16649 0.3729 0.0
C99 C 0.55745 0.12959 0.43624 0.0
N100 N 0.47653 0.06326 0.56735 0.0
C101 C 0.493 0.12851 0.56483 0.0
C102 C 0.46144 0.16462 0.61706 0.0
C103 C 0.42282 0.11918 0.65516 0.0
C104 C 0.43319 0.05781 0.62386 0.0
N105 N 0.57393 0.98579 0.56968 0.0
C106 C 0.66791 -0.00022 0.65897 0.0
C107 C 0.61439 0.00409 0.6959 0.0
C108 C 0.56794 0.99623 0.65039 0.0
C109 C 0.67346 0.9836 0.57878 0.0
C110 C 0.62608 0.97556 0.53607 0.0
N111 N 0.44461 0.00257 0.43336 0.0
C112 C 0.38008 0.07566 0.35944 0.0
C113 C 0.35052 0.01943 0.34046 0.0
C114 C 0.36858 0.95429 0.36918 0.0
C115 C 0.41577 0.94694 0.41554 0.0
C116 C 0.42671 0.0662 0.40573 0.0
H117 H 0.4289 0.89636 0.4368 0.0
H118 H 0.44809 0.11092 0.41902 0.0
H119 H 0.52733 0.0002 0.68026 0.0
H120 H 0.63212 0.9623 0.47538 0.0
C121 C 0.5132 0.8269 0.52669 0.0
C122 C 0.40448 0.99413 0.65404 0.0
C123 C 0.59606 0.99421 0.32165 0.0
C124 C 0.53155 0.15623 0.50377 0.0
H125 H 0.38158 0.85719 0.72689 0.0
H126 H 0.4443 0.76492 0.66058 0.0
H127 H 0.57288 0.76451 0.40067 0.0
H128 H 0.61407 0.85669 0.28498 0.0
H129 H 0.62656 0.13142 0.26253 0.0
H130 H 0.59746 0.22007 0.36709 0.0
H131 H 0.46477 0.21814 0.62445 0.0
H132 H 0.39108 0.12969 0.70124 0.0
H133 H 0.60858 0.01448 0.75886 0.0
H134 H 0.71429 0.97766 0.54912 0.0
H135 H 0.36754 0.12672 0.33772 0.0
H136 H 0.34686 0.90955 0.3549 0.0
C137 C 0.02388 0.25061 0.11736 0.0
C138 C 0.01149 0.183 0.15097 0.0
C139 C 0.03098 0.21144 0.28719 0.0
C140 C 0.0348 0.28088 0.25539 0.0
N141 N 0.03849 0.36802 0.14154 0.0
N142 N 1.00267 0.09718 0.26653 0.0
C143 C 0.03308 0.30076 0.1705 0.0
C144 C 0.01603 0.16247 0.23534 0.0
N145 N 0.02748 0.26626 0.03461 0.0
N146 N 0.04087 0.19268 0.36713 0.0
H147 H 0.99236 0.05946 0.23047 0.0
H148 H 0.99868 0.08074 0.32856 0.0
H149 H 0.0499 0.22756 0.40751 0.0
H150 H 0.04452 0.14245 0.39228 0.0
H151 H 0.04091 0.313 0.00509 0.0
H152 H 0.02091 0.23024 0.99463 0.0
H153 H 0.03088 0.38761 0.08226 0.0
H154 H 0.04901 0.40527 0.17821 0.0
C155 C 0.6894 0.96919 0.13097 0.0
C156 C 0.7422 0.96466 0.16496 0.0
C157 C 0.70082 0.99281 0.29515 0.0
C158 C 0.6468 0.99126 0.26449 0.0
N159 N 0.58883 0.97196 0.15498 0.0
N160 N 0.79644 0.95527 0.28303 0.0
C161 C 0.64084 0.97745 0.18274 0.0
C162 C 0.74707 0.97042 0.2485 0.0
N163 N 0.68607 0.96782 0.0489 0.0
N164 N 0.70905 0.01984 0.36608 0.0
H165 H 0.83121 0.93883 0.24985 0.0
H166 H 0.80094 0.95204 0.34568 0.0
H167 H 0.67794 0.04375 0.39833 0.0
H168 H 0.74834 0.02719 0.38708 0.0
H169 H 0.64992 0.97875 0.0185 0.0
H170 H 0.72063 0.9587 0.01044 0.0
H171 H 0.5814 0.95461 0.09929 0.0
H172 H 0.55262 0.98146 0.1898 0.0
C173 C 0.01944 0.74264 0.16122 0.0
C174 C 0.0245 0.81046 0.18143 0.0
C175 C 0.05231 0.76695 0.31717 0.0
C176 C 0.04762 0.70022 0.29487 0.0
N177 N 0.04778 0.62579 0.18929 0.0
N178 N 0.05654 0.88783 0.273 0.0
C179 C 0.03941 0.68889 0.21404 0.0
C180 C 0.04561 0.82297 0.25706 0.0
N181 N 0.99146 0.72825 0.09559 0.0
N182 N 0.05945 0.77644 0.3966 0.0
H183 H 0.04897 0.93059 0.23272 0.0
H184 H 0.07672 0.89897 0.32402 0.0
H185 H 0.06576 0.73611 0.44124 0.0
H186 H 0.05634 0.82355 0.41908 0.0
H187 H 0.9797 0.67896 0.08684 0.0
H188 H 0.97755 0.76494 0.05157 0.0
H189 H 0.04625 0.61628 0.12859 0.0
H190 H 0.06179 0.58498 0.22813 0.0
C191 C 0.20276 0.03398 0.26482 0.0
C192 C 0.21476 0.04762 0.17957 0.0
C193 C 0.31514 0.04152 0.20007 0.0
C194 C 0.30334 0.02946 0.28555 0.0
N195 N 0.23713 0.02667 0.40097 0.0
N196 N 0.28184 0.07865 0.06712 0.0
C197 C 0.24738 0.02946 0.31849 0.0
C198 C 0.27082 0.05627 0.14771 0.0
N199 N 0.14871 0.0244 0.29405 0.0
N200 N 0.36863 0.03592 0.16852 0.0
H201 H 0.25099 0.08795 0.02575 0.0
H202 H 0.32129 0.09339 0.04224 0.0
H203 H 0.40242 0.02596 0.20466 0.0
H204 H 0.37918 0.03561 0.10655 0.0
H205 H 0.13698 0.00686 0.35428 0.0
H206 H 0.11531 0.03155 0.25654 0.0
H207 H 0.19786 0.03276 0.42909 0.0
H208 H 0.26892 0.02326 0.44136 0.0
C209 C 0.01175 0.74653 0.87114 0.0
C210 C 0.00556 0.81763 0.84917 0.0
C211 C 0.98113 0.7943 0.71221 0.0
C212 C 0.98228 0.72382 0.73909 0.0
N213 N 0.98239 0.63389 0.84928 0.0
N214 N 0.99201 0.91057 0.74477 0.0
C215 C 0.99152 0.70062 0.82059 0.0
C216 C 0.99126 0.84212 0.76871 0.0
N217 N 0.04179 0.72194 0.93546 0.0
N218 N 0.97243 0.81465 0.63219 0.0
H219 H 0.00421 0.94669 0.78174 0.0
H220 H 0.98014 0.93275 0.68859 0.0
H221 H 0.96397 0.78031 0.59077 0.0
H222 H 0.97383 0.86473 0.60569 0.0
H223 H 0.05244 0.67081 0.94661 0.0
H224 H 0.06101 0.75211 0.97337 0.0
H225 H 0.98389 0.6159 0.91081 0.0
H226 H 0.96763 0.59843 0.81319 0.0
C227 C 0.31756 0.98129 0.85556 0.0
C228 C 0.26324 0.9837 0.82678 0.0
C229 C 0.30149 0.98843 0.6856 0.0
C230 C 0.35567 0.99317 0.71374 0.0
N231 N 0.41668 -0.00203 0.82373 0.0
N232 N 0.20187 0.99362 0.71584 0.0
C233 C 0.36415 0.99057 0.79839 0.0
C234 C 0.25473 0.98814 0.74214 0.0
N235 N 0.32435 0.9693 0.93746 0.0
N236 N 0.29488 0.9823 0.60509 0.0
H237 H 0.16634 0.98917 0.75549 0.0
H238 H 0.19309 0.00595 0.65509 0.0
H239 H 0.328 0.98517 0.56113 0.0
H240 H 0.25719 0.96957 0.5827 0.0
H241 H 0.36269 0.96084 0.96263 0.0
H242 H 0.29089 0.96252 0.98069 0.0
H243 H 0.4253 0.00404 0.88348 0.0
H244 H 0.45197 0.00243 0.7838 0.0
C245 C 0.95625 0.23788 0.83355 0.0
C246 C 0.99046 0.1845 0.81005 0.0
C247 C 0.99786 0.23886 0.67019 0.0
C248 C 0.97584 0.29878 0.69915 0.0
N249 N 0.93441 0.35722 0.8085 0.0
N250 N 0.04008 0.12892 0.70519 0.0
C251 C 0.9541 0.29866 0.7806 0.0
C252 C 0.0094 0.1828 0.72756 0.0
N253 N 0.92538 0.22983 0.90566 0.0
N254 N 0.00847 0.23658 0.58837 0.0
H255 H 0.04658 0.08559 0.74543 0.0
H256 H 0.06062 0.12804 0.64809 0.0
H257 H 1.00029 0.27753 0.54544 0.0
H258 H 0.02068 0.19271 0.56269 0.0
H259 H 0.89651 0.26532 0.92384 0.0
H260 H 0.92383 0.18339 0.94159 0.0
H261 H 0.92413 0.36143 0.86987 0.0
H262 H 0.93173 0.40292 0.77106 0.0
C263 C 0.80628 0.96844 0.75508 0.0
C264 C 0.81416 0.02946 0.7911 0.0
C265 C 0.73301 0.07745 0.72096 0.0
C266 C 0.71847 0.01096 0.70373 0.0
N267 N 0.73978 0.89122 0.71091 0.0
N268 N 0.79324 0.1492 0.78864 0.0
C269 C 0.75493 0.956 0.72198 0.0
C270 C 0.78013 0.08649 0.76783 0.0
N271 N 0.84891 0.92332 0.75007 0.0
N272 N 0.70318 0.132 0.68948 0.0
H273 H 0.83301 0.16158 0.80418 0.0
H274 H 0.76569 0.18987 0.78681 0.0
H275 H 0.66904 0.12712 0.65438 0.0
H276 H 0.71413 0.18238 0.6929 0.0
H277 H 0.84718 0.88054 0.71861 0.0
H278 H 0.8883 0.93415 0.76839 0.0
H279 H 0.76284 0.84869 0.73113 0.0
H280 H 0.70168 0.87926 0.6888 0.0
loop_
_geom_bond_atom_site_label_1
_geom_bond_atom_site_label_2
_geom_bond_distance
_geom_bond_site_symmetry_2
_ccdc_geom_bond_type
C0 O27 1.312 1_655 S
C0 O28 1.208 . S
C1 O22 1.331 . S
C1 O25 1.244 1_565 S
C2 O24 1.264 1_545 S
C2 O26 1.273 . S
Mg3 O5 1.936 1_565 S
Mg3 O12 2.081 . S
Mg3 O14 2.023 1_556 S
Mg3 O18 2.031 . S
Mg3 O27 2.291 1_556 S
Mg4 O5 1.963 . S
Mg4 O15 1.942 . S
Mg4 O16 1.955 1_556 S
Mg4 O23 1.986 . S
O5 Mg3 1.936 1_545 S
O5 Mg4 1.963 . S
O5 Mg6 1.913 1_556 S
Mg6 O5 1.913 1_554 S
Mg6 O7 1.918 1_455 S
Mg6 O11 2.020 . S
Mg6 O17 2.108 1_444 S
Mg6 O21 2.006 1_454 S
Mg6 O27 2.119 1_545 S
O7 Mg6 1.918 1_655 S
O7 Mg8 1.936 1_545 S
O7 Mg9 1.963 . S
Mg8 O7 1.936 1_565 S
Mg8 O17 2.291 1_554 S
Mg8 O22 2.081 . S
Mg8 O24 2.023 1_554 S
Mg8 O28 2.031 . S
Mg9 O7 1.963 . S
Mg9 O13 1.986 . S
Mg9 O25 1.942 . S
Mg9 O26 1.955 1_554 S
C10 O21 1.191 1_455 S
C10 O23 1.307 . S
O11 Mg6 2.020 . S
O11 C30 1.191 1_455 S
O12 Mg3 2.081 . S
O12 C20 1.331 . S
O13 Mg9 1.986 . S
O13 C30 1.307 . S
O14 Mg3 2.023 1_554 S
O14 C29 1.264 1_565 S
O15 Mg4 1.942 . S
O15 C20 1.244 1_545 S
O16 Mg4 1.955 1_554 S
O16 C29 1.273 . S
O17 Mg6 2.108 1_666 S
O17 Mg8 2.291 1_556 S
O17 C19 1.312 1_655 S
O18 Mg3 2.031 . S
O18 C19 1.208 . S
C19 O17 1.312 1_455 S
C19 O18 1.208 . S
C20 O12 1.331 . S
C20 O15 1.244 1_565 S
O21 Mg6 2.006 1_656 S
O21 C10 1.191 1_655 S
O22 C1 1.331 . S
O22 Mg8 2.081 . S
O23 Mg4 1.986 . S
O23 C10 1.307 . S
O24 C2 1.264 1_565 S
O24 Mg8 2.023 1_556 S
O25 C1 1.244 1_545 S
O25 Mg9 1.942 . S
O26 C2 1.273 . S
O26 Mg9 1.955 1_556 S
O27 C0 1.312 1_455 S
O27 Mg3 2.291 1_554 S
O27 Mg6 2.119 1_565 S
O28 C0 1.208 . S
O28 Mg8 2.031 . S
C29 O14 1.264 1_545 S
C29 O16 1.273 . S
C30 O11 1.191 1_655 S
C30 O13 1.307 . S
C31 C32 1.443 . S
C31 N35 1.376 . S
C31 C69 1.389 . S
C32 C31 1.443 . S
C32 C33 1.340 . S
C32 H72 0.951 . S
C33 C32 1.340 . S
C33 C34 1.439 . S
C33 H73 0.950 . S
C34 C33 1.439 . S
C34 N35 1.374 . S
C34 C68 1.395 . S
N35 C31 1.376 . S
N35 C34 1.374 . S
N35 Co36 2.008 . S
Co36 N35 2.008 . S
Co36 N37 1.995 . S
Co36 N42 2.008 1_455 S
Co36 N47 1.995 1_455 S
Co36 N52 2.282 . S
Co36 N58 2.283 . S
N37 Co36 1.995 . S
N37 C38 1.376 . S
N37 C41 1.383 . S
C38 N37 1.376 . S
C38 C39 1.446 . S
C38 C68 1.391 . S
C39 C38 1.446 . S
C39 C40 1.339 . S
C39 H74 0.949 . S
C40 C39 1.339 . S
C40 C41 1.439 . S
C40 H75 0.950 . S
C41 N37 1.383 . S
C41 C40 1.439 . S
C41 C70 1.392 . S
N42 Co36 2.008 1_655 S
N42 C43 1.376 . S
N42 C46 1.374 . S
C43 N42 1.376 . S
C43 C44 1.443 . S
C43 C70 1.389 1_655 S
C44 C43 1.443 . S
C44 C45 1.340 . S
C44 H76 0.951 . S
C45 C44 1.340 . S
C45 C46 1.439 . S
C45 H77 0.950 . S
C46 N42 1.374 . S
C46 C45 1.439 . S
C46 C71 1.395 . S
N47 Co36 1.995 1_655 S
N47 C48 1.376 . S
N47 C51 1.383 . S
C48 N47 1.376 . S
C48 C49 1.446 . S
C48 C71 1.391 . S
C49 C48 1.446 . S
C49 C50 1.339 . S
C49 H78 0.949 . S
C50 C49 1.339 . S
C50 C51 1.439 . S
C50 H79 0.950 . S
C51 N47 1.383 . S
C51 C50 1.439 . S
C51 C69 1.392 1_655 S
N52 Co36 2.282 . S
N52 C55 1.332 1_455 S
N52 C57 1.332 . S
C53 C54 1.386 1_455 S
C53 C56 1.388 . S
C54 C53 1.386 1_655 S
C54 C55 1.382 . S
C54 H80 0.950 . S
C55 N52 1.332 1_655 S
C55 C54 1.382 . S
C55 H66 0.952 . S
C56 C53 1.388 . S
C56 C57 1.382 . S
C56 H81 0.950 . S
C57 N52 1.332 . S
C57 C56 1.382 . S
C57 H67 0.948 . S
N58 Co36 2.283 . S
N58 C62 1.343 . S
N58 C63 1.322 1_455 S
C59 C60 1.388 1_655 S
C59 C63 1.382 . S
C59 H82 0.950 . S
C60 C59 1.388 1_455 S
C60 C61 1.386 . S
C61 C60 1.386 . S
C61 C62 1.382 . S
C61 H83 0.950 . S
C62 N58 1.343 . S
C62 C61 1.382 . S
C62 H64 0.952 . S
C63 N58 1.322 1_655 S
C63 C59 1.382 . S
C63 H65 0.948 . S
H64 C62 0.952 . S
H65 C63 0.948 . S
H66 C55 0.952 . S
H67 C57 0.948 . S
C68 C34 1.395 . S
C68 C38 1.391 . S
C69 C31 1.389 . S
C69 C51 1.392 1_455 S
C70 C41 1.392 . S
C70 C43 1.389 1_455 S
C71 C46 1.395 . S
C71 C48 1.391 . S
H72 C32 0.951 . S
H73 C33 0.950 . S
H74 C39 0.949 . S
H75 C40 0.950 . S
H76 C44 0.951 . S
H77 C45 0.950 . S
H78 C49 0.949 . S
H79 C50 0.950 . S
H80 C54 0.950 . S
H81 C56 0.950 . S
H82 C59 0.950 . S
H83 C61 0.950 . S
C84 C85 1.443 . S
C84 N88 1.376 . S
C84 C122 1.376 1_565 S
C85 C84 1.443 . S
C85 C86 1.340 . S
C85 H125 0.951 . S
C86 C85 1.340 . S
C86 C87 1.439 . S
C86 H126 0.950 . S
C87 C86 1.439 . S
C87 N88 1.374 . S
C87 C121 1.395 . S
N88 C84 1.376 . S
N88 C87 1.374 . S
N88 Co89 2.008 1_565 S
Co89 N88 2.008 1_545 S
Co89 N90 1.995 1_545 S
Co89 N95 2.008 . S
Co89 N100 1.995 . S
Co89 N105 2.282 1_545 S
Co89 N111 2.282 . S
N90 Co89 1.995 1_565 S
N90 C91 1.376 . S
N90 C94 1.383 . S
C91 N90 1.376 . S
C91 C92 1.446 . S
C91 C121 1.391 . S
C92 C91 1.446 . S
C92 C93 1.339 . S
C92 H127 0.949 . S
C93 C92 1.339 . S
C93 C94 1.439 . S
C93 H128 0.950 . S
C94 N90 1.383 . S
C94 C93 1.439 . S
C94 C123 1.392 1_565 S
N95 Co89 2.008 . S
N95 C96 1.376 . S
N95 C99 1.374 . S
C96 N95 1.376 . S
C96 C97 1.443 . S
C96 C123 1.389 . S
C97 C96 1.443 . S
C97 C98 1.340 . S
C97 H129 0.951 . S
C98 C97 1.340 . S
C98 C99 1.439 . S
C98 H130 0.950 . S
C99 N95 1.374 . S
C99 C98 1.439 . S
C99 C124 1.395 . S
N100 Co89 1.995 . S
N100 C101 1.376 . S
N100 C104 1.383 . S
C101 N100 1.376 . S
C101 C102 1.446 . S
C101 C124 1.391 . S
C102 C101 1.446 . S
C102 C103 1.339 . S
C102 H131 0.949 . S
C103 C102 1.339 . S
C103 C104 1.439 . S
C103 H132 0.950 . S
C104 N100 1.383 . S
C104 C103 1.439 . S
C104 C122 1.404 . S
N105 Co89 2.282 1_565 S
N105 C108 1.332 1_565 S
N105 C110 1.332 . S
C106 C107 1.399 . S
C106 C109 1.373 1_545 S
C107 C106 1.399 . S
C107 C108 1.382 . S
C107 H133 0.950 . S
C108 N105 1.332 1_545 S
C108 C107 1.382 . S
C108 H119 0.952 . S
C109 C106 1.373 1_565 S
C109 C110 1.382 . S
C109 H134 0.950 . S
C110 N105 1.332 . S
C110 C109 1.382 . S
C110 H120 0.948 . S
N111 Co89 2.282 . S
N111 C115 1.332 1_545 S
N111 C116 1.332 . S
C112 C113 1.388 . S
C112 C116 1.382 . S
C112 H135 0.950 . S
C113 C112 1.388 . S
C113 C114 1.386 1_545 S
C114 C113 1.386 1_565 S
C114 C115 1.382 . S
C114 H136 0.950 . S
C115 N111 1.332 1_565 S
C115 C114 1.382 . S
C115 H117 0.952 . S
C116 N111 1.332 . S
C116 C112 1.382 . S
C116 H118 0.948 . S
H117 C115 0.952 . S
H118 C116 0.948 . S
H119 C108 0.952 . S
H120 C110 0.948 . S
C121 C87 1.395 . S
C121 C91 1.391 . S
C122 C84 1.376 1_545 S
C122 C104 1.404 . S
C123 C94 1.392 1_545 S
C123 C96 1.389 . S
C124 C99 1.395 . S
C124 C101 1.391 . S
H125 C85 0.951 . S
H126 C86 0.950 . S
H127 C92 0.949 . S
H128 C93 0.950 . S
H129 C97 0.951 . S
H130 C98 0.950 . S
H131 C102 0.949 . S
H132 C103 0.950 . S
H133 C107 0.950 . S
H134 C109 0.950 . S
H135 C112 0.950 . S
H136 C114 0.950 . S
C137 C138 1.366 . S
C137 C143 1.379 . S
C137 N145 1.356 . S
C138 C137 1.366 . S
C138 C144 1.361 1_455 S
C139 C140 1.363 1_655 S
C139 C144 1.379 . S
C139 N146 1.356 . S
C140 C139 1.363 1_455 S
C140 C143 1.363 . S
N141 C143 1.356 . S
N141 H153 0.984 . S
N141 H154 0.985 . S
N142 C144 1.356 . S
N142 H147 0.984 . S
N142 H148 0.985 . S
C143 C137 1.379 . S
C143 C140 1.363 . S
C143 N141 1.356 . S
C144 C138 1.361 1_655 S
C144 C139 1.379 . S
C144 N142 1.356 . S
N145 C137 1.356 . S
N145 H151 0.984 . S
N145 H152 0.984 . S
N146 C139 1.356 . S
N146 H149 0.984 . S
N146 H150 0.985 . S
H147 N142 0.984 . S
H148 N142 0.985 . S
H149 N146 0.984 . S
H150 N146 0.985 . S
H151 N145 0.984 . S
H152 N145 0.984 . S
H153 N141 0.984 . S
H154 N141 0.985 . S
C155 C156 1.363 1_545 S
C155 C161 1.379 . S
C155 N163 1.356 . S
C156 C155 1.363 1_565 S
C156 C162 1.363 . S
C157 C158 1.363 . S
C157 C162 1.379 . S
C157 N164 1.356 . S
C158 C157 1.363 . S
C158 C161 1.363 1_565 S
N159 C161 1.356 . S
N159 H171 0.984 . S
N159 H172 0.985 . S
N160 C162 1.356 . S
N160 H165 0.984 . S
N160 H166 0.985 . S
C161 C155 1.379 . S
C161 C158 1.363 1_545 S
C161 N159 1.356 . S
C162 C156 1.363 . S
C162 C157 1.379 . S
C162 N160 1.356 . S
N163 C155 1.356 . S
N163 H169 0.984 . S
N163 H170 0.984 . S
N164 C157 1.356 . S
N164 H167 0.984 . S
N164 H168 0.985 . S
H165 N160 0.984 . S
H166 N160 0.985 . S
H167 N164 0.984 . S
H168 N164 0.985 . S
H169 N163 0.984 . S
H170 N163 0.984 . S
H171 N159 0.984 . S
H172 N159 0.985 . S
C173 C174 1.363 1_655 S
C173 C179 1.379 . S
C173 N181 1.356 . S
C174 C173 1.363 1_455 S
C174 C180 1.363 . S
C175 C176 1.363 . S
C175 C180 1.379 . S
C175 N182 1.356 . S
C176 C175 1.363 . S
C176 C179 1.363 1_455 S
N177 C179 1.356 . S
N177 H189 0.984 . S
N177 H190 0.985 . S
N178 C180 1.356 . S
N178 H183 0.984 . S
N178 H184 0.985 . S
C179 C173 1.379 . S
C179 C176 1.363 1_655 S
C179 N177 1.356 . S
C180 C174 1.363 . S
C180 C175 1.379 . S
C180 N178 1.356 . S
N181 C173 1.356 . S
N181 H187 0.984 . S
N181 H188 0.984 . S
N182 C175 1.356 . S
N182 H185 0.984 . S
N182 H186 0.985 . S
H183 N178 0.984 . S
H184 N178 0.985 . S
H185 N182 0.984 . S
H186 N182 0.985 . S
H187 N181 0.984 . S
H188 N181 0.984 . S
H189 N177 0.984 . S
H190 N177 0.985 . S
C191 C192 1.363 1_565 S
C191 C197 1.379 . S
C191 N199 1.356 . S
C192 C191 1.363 1_545 S
C192 C198 1.363 . S
C193 C194 1.363 . S
C193 C198 1.379 . S
C193 N200 1.356 . S
C194 C193 1.363 . S
C194 C197 1.363 1_545 S
N195 C197 1.356 . S
N195 H207 0.984 . S
N195 H208 0.985 . S
N196 C198 1.356 . S
N196 H201 0.984 . S
N196 H202 0.985 . S
C197 C191 1.379 . S
C197 C194 1.363 1_565 S
C197 N195 1.356 . S
C198 C192 1.363 . S
C198 C193 1.379 . S
C198 N196 1.356 . S
N199 C191 1.356 . S
N199 H205 0.984 . S
N199 H206 0.984 . S
N200 C193 1.356 . S
N200 H203 0.984 . S
N200 H204 0.985 . S
H201 N196 0.984 . S
H202 N196 0.985 . S
H203 N200 0.984 . S
H204 N200 0.985 . S
H205 N199 0.984 . S
H206 N199 0.984 . S
H207 N195 0.984 . S
H208 N195 0.985 . S
C209 C210 1.363 . S
C209 C215 1.379 . S
C209 N217 1.356 . S
C210 C209 1.363 . S
C210 C216 1.363 1_455 S
C211 C212 1.363 1_655 S
C211 C216 1.379 . S
C211 N218 1.356 . S
C212 C211 1.363 1_455 S
C212 C215 1.363 . S
N213 C215 1.356 . S
N213 H225 0.984 . S
N213 H226 0.985 . S
N214 C216 1.356 . S
N214 H219 0.984 . S
N214 H220 0.985 . S
C215 C209 1.379 . S
C215 C212 1.363 . S
C215 N213 1.356 . S
C216 C210 1.363 1_655 S
C216 C211 1.379 . S
C216 N214 1.356 . S
N217 C209 1.356 . S
N217 H223 0.984 . S
N217 H224 0.984 . S
N218 C211 1.356 . S
N218 H221 0.984 . S
N218 H222 0.985 . S
H219 N214 0.984 . S
H220 N214 0.985 . S
H221 N218 0.984 . S
H222 N218 0.985 . S
H223 N217 0.984 . S
H224 N217 0.984 . S
H225 N213 0.984 . S
H226 N213 0.985 . S
C227 C228 1.363 . S
C227 C233 1.379 . S
C227 N235 1.356 . S
C228 C227 1.363 . S
C228 C234 1.363 1_565 S
C229 C230 1.364 . S
C229 C234 1.379 . S
C229 N236 1.356 . S
C230 C229 1.364 . S
C230 C233 1.362 1_545 S
N231 C233 1.356 . S
N231 H243 0.984 . S
N231 H244 0.985 . S
N232 C234 1.356 . S
N232 H237 0.984 . S
N232 H238 0.985 . S
C233 C227 1.379 . S
C233 C230 1.362 1_565 S
C233 N231 1.356 . S
C234 C228 1.363 1_545 S
C234 C229 1.379 . S
C234 N232 1.356 . S
N235 C227 1.356 . S
N235 H241 0.984 . S
N235 H242 0.984 . S
N236 C229 1.356 . S
N236 H239 0.984 . S
N236 H240 0.985 . S
H237 N232 0.984 . S
H238 N232 0.985 . S
H239 N236 0.984 . S
H240 N236 0.985 . S
H241 N235 0.984 . S
H242 N235 0.984 . S
H243 N231 0.984 . S
H244 N231 0.985 . S
C245 C246 1.363 1_655 S
C245 C251 1.379 . S
C245 N253 1.356 . S
C246 C245 1.363 1_455 S
C246 C252 1.363 . S
C247 C248 1.363 . S
C247 C252 1.379 . S
C247 N254 1.356 . S
C248 C247 1.363 . S
C248 C251 1.363 1_455 S
N249 C251 1.356 . S
N249 H261 0.984 . S
N249 H262 0.985 . S
N250 C252 1.356 . S
N250 H255 0.984 . S
N250 H256 0.985 . S
C251 C245 1.379 . S
C251 C248 1.363 1_655 S
C251 N249 1.356 . S
C252 C246 1.363 . S
C252 C247 1.379 . S
C252 N250 1.356 . S
N253 C245 1.356 . S
N253 H259 0.984 . S
N253 H260 0.984 . S
N254 C247 1.356 . S
N254 H257 0.984 . S
N254 H258 0.985 . S
H255 N250 0.984 . S
H256 N250 0.985 . S
H257 N254 0.984 . S
H258 N254 0.985 . S
H259 N253 0.984 . S
H260 N253 0.984 . S
H261 N249 0.984 . S
H262 N249 0.985 . S
C263 C264 1.363 1_565 S
C263 C269 1.379 . S
C263 N271 1.356 . S
C264 C263 1.363 1_545 S
C264 C270 1.363 . S
C265 C266 1.363 . S
C265 C270 1.379 . S
C265 N272 1.356 . S
C266 C265 1.363 . S
C266 C269 1.363 1_545 S
N267 C269 1.356 . S
N267 H279 0.984 . S
N267 H280 0.985 . S
N268 C270 1.356 . S
N268 H273 0.984 . S
N268 H274 0.985 . S
C269 C263 1.379 . S
C269 C266 1.363 1_565 S
C269 N267 1.356 . S
C270 C264 1.363 . S
C270 C265 1.379 . S
C270 N268 1.356 . S
N271 C263 1.356 . S
N271 H277 0.984 . S
N271 H278 0.984 . S
N272 C265 1.356 . S
N272 H275 0.984 . S
N272 H276 0.985 . S
H273 N268 0.984 . S
H274 N268 0.985 . S
H275 N272 0.984 . S
H276 N272 0.985 . S
H277 N271 0.984 . S
H278 N271 0.984 . S
H279 N267 0.984 . S
H280 N267 0.985 . S
C138 C30 1.356 1_455 S
C140 C53 1.383 . S
C156 C1 1.575 . S
C158 C123 1.622 1_565 S
C174 C0 1.454 1_455 S
C176 C69 1.517 . S
C192 C29 1.480 . S
C194 C113 1.508 . S
C210 C19 1.351 . S
C212 C60 1.395 . S
C228 C20 1.565 . S
C230 C122 1.602 . S
C248 C70 1.509 . S
C246 C10 1.472 . S
C264 C2 1.491 . S
C266 C106 1.527 . S
