# Generated by pormake.
# Topology bcu-b, (8,8)-cn, num edge types: 1
# Building blocks:
#     Node 0, Type 0, BuildingBlock: TAGTUT_clean_sbu_1, # of connection points: 8
#     Node 1, Type 1, BuildingBlock: GIZVER_clean_sbu_0, # of connection points: 8
#     Edge 2, Type (0, 1), BuildingBlock: TEMPAE_clean_linker_10, # of connection points: 2
#     Edge 3, Type (0, 1), BuildingBlock: TEMPAE_clean_linker_10, # of connection points: 2
#     Edge 4, Type (0, 1), BuildingBlock: TEMPAE_clean_linker_10, # of connection points: 2
#     Edge 5, Type (0, 1), BuildingBlock: TEMPAE_clean_linker_10, # of connection points: 2
#     Edge 6, Type (0, 1), BuildingBlock: TEMPAE_clean_linker_10, # of connection points: 2
#     Edge 7, Type (0, 1), BuildingBlock: TEMPAE_clean_linker_10, # of connection points: 2
#     Edge 8, Type (0, 1), BuildingBlock: TEMPAE_clean_linker_10, # of connection points: 2
#     Edge 9, Type (0, 1), BuildingBlock: TEMPAE_clean_linker_10, # of connection points: 2
# Relax obj value: 0.105
# Max RMSD: 0.175
# Mean RMSD: 0.169
data_MOF--net-bcu-b--node1-TAGTUT_clean_sbu_1--node2-GIZVER_clean_sbu_0--edge1-TEMPAE_clean_linker_10
_symmetry_space_group_name_H-M    P1
_symmetry_Int_Tables_number       1
_symmetry_cell_setting            triclinic
loop_
_symmetry_equiv_pos_as_xyz
'x, y, z'
_cell_length_a     21.213737
_cell_length_b     22.631835
_cell_length_c     17.642858
_cell_angle_alpha  88.388804
_cell_angle_beta   94.151734
_cell_angle_gamma 108.67769
loop_
_atom_site_label
_atom_site_type_symbol
_atom_site_fract_x
_atom_site_fract_y
_atom_site_fract_z
_atom_type_partial_charge
C0 C 0.89527 0.16195 0.11041 0.0
C1 C 0.9212 0.14311 0.87604 0.0
C2 C 0.8706 0.90237 0.92773 0.0
Mg3 Mg 0.01117 0.14973 0.01952 0.0
O4 O 0.96942 0.06584 0.04734 0.0
Mg5 Mg 0.87343 0.03053 0.01035 0.0
Mg6 Mg 1.00515 0.0048 0.00105 0.0
O7 O 0.04095 0.94404 0.95454 0.0
Mg8 Mg 0.99782 0.85908 0.97487 0.0
Mg9 Mg 0.13624 0.97818 0.9947 0.0
C10 C 0.13893 0.10796 0.07088 0.0
C11 C 0.10747 0.0794 0.87491 0.0
O12 O 0.85821 0.10729 0.08775 0.0
O13 O 0.95534 0.1868 0.0913 0.0
O14 O 0.88132 0.09724 0.90978 0.0
O15 O 0.98065 0.1689 0.90376 0.0
O16 O 0.11285 0.15125 0.05429 0.0
O17 O 0.10565 0.04957 0.06478 0.0
C18 C 0.90443 0.92972 0.12853 0.0
O19 O 0.95923 0.93632 0.09757 0.0
O20 O 0.86662 0.96213 0.10769 0.0
O21 O 0.15375 0.90151 0.91957 0.0
O22 O 0.05459 0.82564 0.9005 0.0
O23 O 0.12462 0.9101 0.09478 0.0
C24 C 0.11681 0.84945 0.88968 0.0
O25 O 0.02655 0.83516 0.08899 0.0
O26 O 0.89648 0.85851 0.94055 0.0
C27 C 0.08355 0.86159 0.12277 0.0
O28 O 0.90415 0.96031 0.93766 0.0
O29 O 0.05199 0.07292 0.90445 0.0
O30 O 0.14508 0.04704 0.89715 0.0
Co31 Co 0.59552 0.40927 0.47223 0.0
Co32 Co 0.59397 0.43811 0.60837 0.0
Co33 Co 0.50578 0.50496 0.50022 0.0
O34 O 0.58871 0.48129 0.52049 0.0
H35 H 0.62857 0.51685 0.51731 0.0
O36 O 0.42306 0.52897 0.48048 0.0
Co37 Co 0.4197 0.60422 0.52414 0.0
Co38 Co 0.41758 0.56895 0.38955 0.0
H39 H 0.3829 0.49419 0.48626 0.0
O40 O 0.67559 0.44836 0.65716 0.0
O41 O 0.61977 0.37434 0.57106 0.0
O42 O 0.51328 0.4065 0.66016 0.0
O43 O 0.45264 0.4482 0.58002 0.0
O44 O 0.54419 0.57364 0.57531 0.0
O45 O 0.41148 0.66994 0.56707 0.0
O46 O 0.33326 0.57596 0.5496 0.0
O47 O 0.51033 0.64304 0.50859 0.0
O48 O 0.55909 0.56131 0.42052 0.0
O49 O 0.49792 0.59916 0.33671 0.0
O50 O 0.39245 0.63451 0.42269 0.0
O51 O 0.33646 0.5576 0.33951 0.0
C52 C 0.66618 0.38686 0.41796 0.0
C53 C 0.46426 0.38034 0.43607 0.0
C54 C 0.45814 0.414 0.63752 0.0
C55 C 0.67065 0.39823 0.61964 0.0
C56 C 0.35196 0.63262 0.57678 0.0
C57 C 0.54939 0.63033 0.55978 0.0
C58 C 0.55343 0.59347 0.36119 0.0
C59 C 0.34177 0.60911 0.37414 0.0
O60 O 0.60703 0.34734 0.42371 0.0
O61 O 0.68308 0.44095 0.45164 0.0
O62 O 0.46714 0.4369 0.42422 0.0
O63 O 0.50501 0.3672 0.4844 0.0
C64 C 0.20537 0.10655 0.19057 0.0
C65 C 0.20312 0.12743 0.11532 0.0
C66 C 0.25417 0.14119 0.24432 0.0
C67 C 0.30287 0.19645 0.22101 0.0
C68 C 0.3057 0.21283 0.14294 0.0
C69 C 0.2547 0.17878 0.09107 0.0
C70 C 0.24832 0.12273 0.32707 0.0
C71 C 0.35873 0.26969 0.11523 0.0
C72 C 0.36042 0.33545 0.35332 0.0
C73 C 0.42118 0.33114 0.38492 0.0
C74 C 0.32056 0.29064 0.30164 0.0
C75 C 0.34351 0.24193 0.27875 0.0
C76 C 0.40495 0.23747 0.3104 0.0
C77 C 0.44229 0.28132 0.36459 0.0
C78 C 0.2541 0.29576 0.27113 0.0
C79 C 0.43221 0.18771 0.28531 0.0
H80 H 0.16467 0.0673 0.20929 0.0
H81 H 0.25251 0.19486 0.03271 0.0
H82 H 0.29787 0.12776 0.35606 0.0
H83 H 0.2269 0.15412 0.356 0.0
H84 H 0.21544 0.07392 0.33432 0.0
H85 H 0.36204 0.26866 0.05273 0.0
H86 H 0.34673 0.31223 0.12911 0.0
H87 H 0.40821 0.27344 0.14378 0.0
H88 H 0.34384 0.37365 0.36953 0.0
H89 H 0.48914 0.27765 0.38901 0.0
H90 H 0.21393 0.25094 0.27939 0.0
H91 H 0.25502 0.30554 0.20919 0.0
H92 H 0.24136 0.33339 0.29921 0.0
H93 H 0.39632 0.1407 0.2948 0.0
H94 H 0.48077 0.19055 0.31583 0.0
H95 H 0.43912 0.1925 0.22342 0.0
C96 C 0.89161 0.26422 0.1556 0.0
C97 C 0.86809 0.19881 0.15926 0.0
C98 C 0.86574 0.30045 0.19984 0.0
C99 C 0.81626 0.27062 0.25039 0.0
C100 C 0.79402 0.20462 0.25636 0.0
C101 C 0.81952 0.16942 0.20986 0.0
C102 C 0.88931 0.37047 0.19002 0.0
C103 C 0.7424 0.17116 0.31092 0.0
C104 C 0.77281 0.36461 0.403 0.0
C105 C 0.71171 0.36846 0.37182 0.0
C106 C 0.80825 0.33333 0.36393 0.0
C107 C 0.78283 0.30778 0.29115 0.0
C108 C 0.72327 0.31554 0.25779 0.0
C109 C 0.68792 0.34477 0.29915 0.0
C110 C 0.87081 0.32482 0.402 0.0
C111 C 0.69527 0.29068 0.17959 0.0
H112 H 0.92899 0.28718 0.11628 0.0
H113 H 0.80188 0.11894 0.21358 0.0
H114 H 0.84735 0.38583 0.16569 0.0
H115 H 0.90585 0.39365 0.24585 0.0
H116 H 0.93102 0.3867 0.15191 0.0
H117 H 0.73487 0.12027 0.31372 0.0
H118 H 0.75755 0.1909 0.36879 0.0
H119 H 0.694 0.17803 0.29308 0.0
H120 H 0.7907 0.38252 0.45959 0.0
H121 H 0.64036 0.34769 0.27541 0.0
H122 H 0.91338 0.34497 0.36603 0.0
H123 H 0.86422 0.27433 0.40873 0.0
H124 H 0.8836 0.34701 0.45889 0.0
H125 H 0.73421 0.30671 0.13808 0.0
H126 H 0.65194 0.30568 0.15921 0.0
H127 H 0.67896 0.23896 0.18061 0.0
C128 C 0.83932 0.88402 0.23906 0.0
C129 C 0.87677 0.87676 0.17994 0.0
C130 C 0.79563 0.83203 0.27388 0.0
C131 C 0.78855 0.77141 0.24797 0.0
C132 C 0.83065 0.76371 0.19292 0.0
C133 C 0.87436 0.81668 0.1594 0.0
C134 C 0.75271 0.84236 0.33356 0.0
C135 C 0.82518 0.70004 0.16398 0.0
C136 C 0.67797 0.63956 0.36333 0.0
C137 C 0.61503 0.63119 0.32561 0.0
C138 C 0.73584 0.68269 0.33657 0.0
C139 C 0.73071 0.71805 0.27041 0.0
C140 C 0.66809 0.70677 0.22931 0.0
C141 C 0.61102 0.6637 0.25756 0.0
C142 C 0.8017 0.69294 0.38159 0.0
C143 C 0.66069 0.74268 0.15754 0.0
H144 H 0.841 0.93055 0.25464 0.0
H145 H 0.90172 0.81089 0.1122 0.0
H146 H 0.70061 0.83186 0.30917 0.0
H147 H 0.75209 0.81052 0.38266 0.0
H148 H 0.77034 0.89118 0.35441 0.0
H149 H 0.87035 0.7008 0.13524 0.0
H150 H 0.8175 0.66527 0.21086 0.0
H151 H 0.78147 0.68429 0.12232 0.0
H152 H 0.68183 0.61459 0.41588 0.0
H153 H 0.56286 0.6571 0.22753 0.0
H154 H 0.81585 0.73814 0.41178 0.0
H155 H 0.84176 0.69536 0.34338 0.0
H156 H 0.79933 0.65544 0.42437 0.0
H157 H 0.67072 0.79251 0.17143 0.0
H158 H 0.60993 0.72459 0.1288 0.0
H159 H 0.69758 0.7405 0.11711 0.0
C160 C 0.17573 0.85444 0.21466 0.0
C161 C 0.10899 0.82931 0.18642 0.0
C162 C 0.20787 0.81785 0.25695 0.0
C163 C 0.17195 0.75508 0.27339 0.0
C164 C 0.10251 0.73195 0.25374 0.0
C165 C 0.07181 0.76914 0.20958 0.0
C166 C 0.2817 0.84486 0.27823 0.0
C167 C 0.06167 0.66665 0.27522 0.0
C168 C 0.27374 0.64456 0.27286 0.0
C169 C 0.29481 0.64325 0.34976 0.0
C170 C 0.23221 0.67953 0.24771 0.0
C171 C 0.20916 0.71215 0.30122 0.0
C172 C 0.22743 0.70812 0.3795 0.0
C173 C 0.27129 0.67487 0.40237 0.0
C174 C 0.21554 0.6838 0.16343 0.0
C175 C 0.20282 0.74002 0.43951 0.0
H176 H 0.20468 0.9014 0.19879 0.0
H177 H 0.01984 0.74965 0.18956 0.0
H178 H 0.29186 0.83872 0.33997 0.0
H179 H 0.30914 0.81961 0.24763 0.0
H180 H 0.30174 0.8953 0.26412 0.0
H181 H 0.00728 0.65956 0.26781 0.0
H182 H 0.07306 0.63258 0.239 0.0
H183 H 0.07457 0.65647 0.33521 0.0
H184 H 0.29194 0.6202 0.23184 0.0
H185 H 0.28654 0.67314 0.46155 0.0
H186 H 0.23511 0.73308 0.14428 0.0
H187 H 0.1607 0.66813 0.15119 0.0
H188 H 0.2369 0.65515 0.12946 0.0
H189 H 0.24117 0.78544 0.45375 0.0
H190 H 0.19503 0.71161 0.49247 0.0
H191 H 0.15547 0.74861 0.42062 0.0
C192 C 0.11051 0.78214 0.77807 0.0
C193 C 0.14688 0.8145 0.8421 0.0
C194 C 0.13802 0.74809 0.73254 0.0
C195 C 0.20248 0.74466 0.75319 0.0
C196 C 0.23862 0.7759 0.8191 0.0
C197 C 0.21079 0.81137 0.86208 0.0
C198 C 0.09906 0.71753 0.66111 0.0
C199 C 0.307 0.77239 0.84379 0.0
C200 C 0.26201 0.62113 0.66641 0.0
C201 C 0.30669 0.65752 0.61573 0.0
C202 C 0.22658 0.64853 0.71115 0.0
C203 C 0.23471 0.71305 0.70267 0.0
C204 C 0.27695 0.74884 0.64824 0.0
C205 C 0.31344 0.72098 0.60681 0.0
C206 C 0.18317 0.60932 0.76998 0.0
C207 C 0.28507 0.81707 0.63503 0.0
H208 H 0.06106 0.78474 0.76256 0.0
H209 H 0.23847 0.83566 0.91225 0.0
H210 H 0.12637 0.73897 0.61072 0.0
H211 H 0.09406 0.66724 0.66104 0.0
H212 H 0.04845 0.72235 0.65483 0.0
H213 H 0.32568 0.79427 0.90011 0.0
H214 H 0.3059 0.72302 0.84671 0.0
H215 H 0.34294 0.79644 0.80141 0.0
H216 H 0.25748 0.57227 0.67393 0.0
H217 H 0.34772 0.74914 0.56715 0.0
H218 H 0.13236 0.61343 0.76307 0.0
H219 H 0.20431 0.62667 0.8276 0.0
H220 H 0.17918 0.5593 0.76662 0.0
H221 H 0.23553 0.82367 0.62469 0.0
H222 H 0.31519 0.83663 0.58586 0.0
H223 H 0.30992 0.84426 0.68634 0.0
C224 C 0.1738 0.12407 0.76486 0.0
C225 C 0.13574 0.13192 0.82305 0.0
C226 C 0.21738 0.1757 0.7293 0.0
C227 C 0.22387 0.23663 0.75362 0.0
C228 C 0.18138 0.24485 0.80791 0.0
C229 C 0.13762 0.1922 0.84203 0.0
C230 C 0.26065 0.16477 0.67043 0.0
C231 C 0.18638 0.30884 0.83533 0.0
C232 C 0.40099 0.34495 0.74227 0.0
C233 C 0.39667 0.37643 0.67349 0.0
C234 C 0.34413 0.30216 0.77133 0.0
C235 C 0.28141 0.28995 0.73021 0.0
C236 C 0.27597 0.32421 0.66312 0.0
C237 C 0.33364 0.36721 0.63565 0.0
C238 C 0.35189 0.26754 0.84408 0.0
C239 C 0.21003 0.31286 0.61794 0.0
H240 H 0.17249 0.0774 0.75044 0.0
H241 H 0.10959 0.19846 0.88838 0.0
H242 H 0.26111 0.19579 0.62053 0.0
H243 H 0.31275 0.17596 0.69508 0.0
H244 H 0.24348 0.11563 0.65073 0.0
H245 H 0.14121 0.30824 0.86394 0.0
H246 H 0.23019 0.32546 0.87672 0.0
H247 H 0.19367 0.34286 0.78766 0.0
H248 H 0.44925 0.35226 0.77238 0.0
H249 H 0.32961 0.39132 0.58246 0.0
H250 H 0.34247 0.21757 0.83144 0.0
H251 H 0.31477 0.26997 0.88407 0.0
H252 H 0.40257 0.28649 0.87278 0.0
H253 H 0.19613 0.26711 0.58905 0.0
H254 H 0.21211 0.34953 0.57409 0.0
H255 H 0.16993 0.31096 0.65588 0.0
C256 C 0.93257 0.22315 0.7709 0.0
C257 C 0.89266 0.17301 0.81245 0.0
C258 C 0.90342 0.25917 0.72237 0.0
C259 C 0.83327 0.24619 0.71818 0.0
C260 C 0.79286 0.19297 0.75575 0.0
C261 C 0.82297 0.15639 0.8008 0.0
C262 C 0.94804 0.31329 0.6796 0.0
C263 C 0.71799 0.17794 0.75481 0.0
C264 C 0.75724 0.37631 0.70885 0.0
C265 C 0.71874 0.36417 0.63962 0.0
C266 C 0.7978 0.34034 0.73317 0.0
C267 C 0.8021 0.29245 0.68577 0.0
C268 C 0.76746 0.28319 0.61316 0.0
C269 C 0.72465 0.31797 0.59183 0.0
C270 C 0.83228 0.35083 0.81198 0.0
C271 C 0.77374 0.23507 0.55926 0.0
H272 H 0.98642 0.23579 0.77849 0.0
H273 H 0.79137 0.11741 0.83185 0.0
H274 H 0.92385 0.31996 0.62352 0.0
H275 H 0.95836 0.35668 0.71271 0.0
H276 H 0.99654 0.3064 0.67075 0.0
H277 H 0.69358 0.1332 0.78413 0.0
H278 H 0.70613 0.21576 0.78348 0.0
H279 H 0.69584 0.17512 0.69567 0.0
H280 H 0.75303 0.41189 0.7462 0.0
H281 H 0.6953 0.3084 0.53814 0.0
H282 H 0.88646 0.35909 0.80927 0.0
H283 H 0.81223 0.30854 0.84744 0.0
H284 H 0.82542 0.39117 0.84075 0.0
H285 H 0.82698 0.2391 0.55571 0.0
H286 H 0.75178 0.24004 0.50128 0.0
H287 H 0.74787 0.18754 0.58061 0.0
C288 C 0.75316 0.83631 0.90438 0.0
C289 C 0.80768 0.88512 0.8809 0.0
C290 C 0.70294 0.80286 0.8512 0.0
C291 C 0.70973 0.81684 0.77281 0.0
C292 C 0.7618 0.86965 0.74981 0.0
C293 C 0.80959 0.90404 0.80467 0.0
C294 C 0.64628 0.74887 0.87836 0.0
C295 C 0.77225 0.88524 0.66691 0.0
C296 C 0.65072 0.67394 0.64678 0.0
C297 C 0.59265 0.68038 0.60987 0.0
C298 C 0.6903 0.71923 0.69809 0.0
C299 C 0.66962 0.77077 0.71532 0.0
C300 C 0.61105 0.77757 0.67808 0.0
C301 C 0.57424 0.73312 0.6242 0.0
C302 C 0.75398 0.71155 0.73431 0.0
C303 C 0.5861 0.8305 0.69698 0.0
H304 H 0.75228 0.82153 0.96344 0.0
H305 H 0.85268 0.94113 0.78663 0.0
H306 H 0.59862 0.74682 0.84637 0.0
H307 H 0.65606 0.7045 0.86842 0.0
H308 H 0.64054 0.75222 0.94006 0.0
H309 H 0.80751 0.93296 0.65901 0.0
H310 H 0.79308 0.85141 0.64235 0.0
H311 H 0.7245 0.88144 0.63425 0.0
H312 H 0.66542 0.63358 0.63513 0.0
H313 H 0.52977 0.73872 0.59534 0.0
H314 H 0.74959 0.70341 0.79627 0.0
H315 H 0.79643 0.75479 0.72675 0.0
H316 H 0.76574 0.67188 0.7099 0.0
H317 H 0.57641 0.82831 0.75815 0.0
H318 H 0.53949 0.82904 0.66288 0.0
H319 H 0.62453 0.87601 0.68703 0.0
loop_
_geom_bond_atom_site_label_1
_geom_bond_atom_site_label_2
_geom_bond_distance
_geom_bond_site_symmetry_2
_ccdc_geom_bond_type
C0 O12 1.241 . S
C0 O13 1.280 . S
C1 O14 1.277 . S
C1 O15 1.245 . S
C2 O26 1.247 . S
C2 O28 1.289 . S
Mg3 O4 1.926 . S
Mg3 O13 1.984 . S
Mg3 O15 1.988 1_554 S
Mg3 O16 2.061 1_655 S
O4 Mg3 1.926 . S
O4 Mg5 1.987 1_544 S
O4 Mg6 1.917 1_655 S
Mg5 O4 1.987 1_566 S
Mg5 O12 2.043 1_566 S
Mg5 O14 2.042 1_565 S
Mg5 O20 2.038 1_556 S
Mg5 O28 2.237 . S
Mg6 O4 1.917 1_455 S
Mg6 O7 1.917 1_544 S
Mg6 O17 2.107 . S
Mg6 O19 2.079 1_445 S
Mg6 O28 2.106 1_444 S
Mg6 O29 2.079 1_554 S
O7 Mg6 1.917 1_566 S
O7 Mg8 1.926 . S
O7 Mg9 1.985 1_566 S
Mg8 O7 1.926 . S
Mg8 O22 1.984 . S
Mg8 O25 1.988 1_556 S
Mg8 O26 2.061 1_455 S
Mg9 O7 1.985 1_544 S
Mg9 O17 2.240 . S
Mg9 O21 2.040 1_544 S
Mg9 O23 2.039 1_545 S
Mg9 O30 2.041 1_554 S
C10 O16 1.247 . S
C10 O17 1.289 . S
C11 O29 1.245 . S
C11 O30 1.274 . S
O12 C0 1.241 . S
O12 Mg5 2.043 1_544 S
O13 C0 1.280 . S
O13 Mg3 1.984 . S
O14 C1 1.277 . S
O14 Mg5 2.042 1_545 S
O15 C1 1.245 . S
O15 Mg3 1.988 1_556 S
O16 Mg3 2.061 1_455 S
O16 C10 1.247 . S
O17 Mg6 2.107 . S
O17 Mg9 2.240 . S
O17 C10 1.289 . S
C18 O19 1.245 . S
C18 O20 1.274 . S
O19 Mg6 2.079 1_665 S
O19 C18 1.245 . S
O20 Mg5 2.038 1_554 S
O20 C18 1.274 . S
O21 Mg9 2.040 1_566 S
O21 C24 1.241 . S
O22 Mg8 1.984 . S
O22 C24 1.280 . S
O23 Mg9 2.039 1_565 S
O23 C27 1.277 . S
C24 O21 1.241 . S
C24 O22 1.280 . S
O25 Mg8 1.988 1_554 S
O25 C27 1.245 . S
O26 C2 1.247 . S
O26 Mg8 2.061 1_655 S
C27 O23 1.277 . S
C27 O25 1.245 . S
O28 C2 1.289 . S
O28 Mg5 2.237 . S
O28 Mg6 2.106 1_666 S
O29 Mg6 2.079 1_556 S
O29 C11 1.245 . S
O30 Mg9 2.041 1_556 S
O30 C11 1.274 . S
Co31 O34 2.042 . S
Co31 O41 2.264 . S
Co31 O60 2.286 . S
Co31 O61 2.069 . S
Co31 O63 2.015 . S
Co32 O34 2.122 . S
Co32 O40 2.073 . S
Co32 O41 2.327 . S
Co32 O42 1.976 . S
Co33 O34 2.087 . S
Co33 O36 2.087 . S
Co33 O43 2.111 . S
Co33 O44 2.143 . S
Co33 O48 2.111 . S
Co33 O62 2.143 . S
O34 Co31 2.042 . S
O34 Co32 2.122 . S
O34 Co33 2.087 . S
O34 H35 0.980 . S
H35 O34 0.980 . S
O36 Co33 2.087 . S
O36 Co37 2.042 . S
O36 Co38 2.122 . S
O36 H39 0.980 . S
Co37 O36 2.042 . S
Co37 O45 2.286 . S
Co37 O46 2.069 . S
Co37 O47 2.015 . S
Co37 O50 2.264 . S
Co38 O36 2.122 . S
Co38 O49 1.976 . S
Co38 O50 2.327 . S
Co38 O51 2.073 . S
H39 O36 0.980 . S
O40 Co32 2.073 . S
O40 C55 1.245 . S
O41 Co31 2.264 . S
O41 Co32 2.327 . S
O41 C55 1.257 . S
O42 Co32 1.976 . S
O42 C54 1.251 . S
O43 Co33 2.111 . S
O43 C54 1.274 . S
O44 Co33 2.143 . S
O44 C57 1.246 . S
O45 Co37 2.286 . S
O45 C56 1.259 . S
O46 Co37 2.069 . S
O46 C56 1.289 . S
O47 Co37 2.015 . S
O47 C57 1.257 . S
O48 Co33 2.111 . S
O48 C58 1.274 . S
O49 Co38 1.976 . S
O49 C58 1.251 . S
O50 Co37 2.264 . S
O50 Co38 2.327 . S
O50 C59 1.257 . S
O51 Co38 2.073 . S
O51 C59 1.245 . S
C52 O60 1.259 . S
C52 O61 1.289 . S
C53 O62 1.246 . S
C53 O63 1.257 . S
C54 O42 1.251 . S
C54 O43 1.274 . S
C55 O40 1.245 . S
C55 O41 1.257 . S
C56 O45 1.259 . S
C56 O46 1.289 . S
C57 O44 1.246 . S
C57 O47 1.257 . S
C58 O48 1.274 . S
C58 O49 1.251 . S
C59 O50 1.257 . S
C59 O51 1.245 . S
O60 Co31 2.286 . S
O60 C52 1.259 . S
O61 Co31 2.069 . S
O61 C52 1.289 . S
O62 Co33 2.143 . S
O62 C53 1.246 . S
O63 Co31 2.015 . S
O63 C53 1.257 . S
C64 C65 1.391 . S
C64 C66 1.394 . S
C64 H80 0.931 . S
C65 C64 1.391 . S
C65 C69 1.376 . S
C66 C64 1.394 . S
C66 C67 1.369 . S
C66 C70 1.531 . S
C67 C66 1.369 . S
C67 C68 1.410 . S
C67 C75 1.503 . S
C68 C67 1.410 . S
C68 C69 1.392 . S
C68 C71 1.511 . S
C69 C65 1.376 . S
C69 C68 1.392 . S
C69 H81 0.929 . S
C70 C66 1.531 . S
C70 H82 0.960 . S
C70 H83 0.962 . S
C70 H84 0.960 . S
C71 C68 1.511 . S
C71 H85 0.961 . S
C71 H86 0.961 . S
C71 H87 0.961 . S
C72 C73 1.370 . S
C72 C74 1.363 . S
C72 H88 0.931 . S
C73 C72 1.370 . S
C73 C77 1.408 . S
C74 C72 1.363 . S
C74 C75 1.370 . S
C74 C78 1.524 . S
C75 C67 1.503 . S
C75 C74 1.370 . S
C75 C76 1.403 . S
C76 C75 1.403 . S
C76 C77 1.404 . S
C76 C79 1.539 . S
C77 C73 1.408 . S
C77 C76 1.404 . S
C77 H89 0.930 . S
C78 C74 1.524 . S
C78 H90 0.956 . S
C78 H91 0.961 . S
C78 H92 0.961 . S
C79 C76 1.539 . S
C79 H93 0.958 . S
C79 H94 0.961 . S
C79 H95 0.960 . S
H80 C64 0.931 . S
H81 C69 0.929 . S
H82 C70 0.960 . S
H83 C70 0.962 . S
H84 C70 0.960 . S
H85 C71 0.961 . S
H86 C71 0.961 . S
H87 C71 0.961 . S
H88 C72 0.931 . S
H89 C77 0.930 . S
H90 C78 0.956 . S
H91 C78 0.961 . S
H92 C78 0.961 . S
H93 C79 0.958 . S
H94 C79 0.961 . S
H95 C79 0.960 . S
C96 C97 1.391 . S
C96 C98 1.394 . S
C96 H112 0.931 . S
C97 C96 1.391 . S
C97 C101 1.376 . S
C98 C96 1.394 . S
C98 C99 1.369 . S
C98 C102 1.531 . S
C99 C98 1.369 . S
C99 C100 1.410 . S
C99 C107 1.503 . S
C100 C99 1.410 . S
C100 C101 1.392 . S
C100 C103 1.511 . S
C101 C97 1.376 . S
C101 C100 1.392 . S
C101 H113 0.929 . S
C102 C98 1.531 . S
C102 H114 0.960 . S
C102 H115 0.962 . S
C102 H116 0.960 . S
C103 C100 1.511 . S
C103 H117 0.961 . S
C103 H118 0.961 . S
C103 H119 0.961 . S
C104 C105 1.370 . S
C104 C106 1.363 . S
C104 H120 0.931 . S
C105 C104 1.370 . S
C105 C109 1.408 . S
C106 C104 1.363 . S
C106 C107 1.370 . S
C106 C110 1.524 . S
C107 C99 1.503 . S
C107 C106 1.370 . S
C107 C108 1.403 . S
C108 C107 1.403 . S
C108 C109 1.404 . S
C108 C111 1.539 . S
C109 C105 1.408 . S
C109 C108 1.404 . S
C109 H121 0.930 . S
C110 C106 1.524 . S
C110 H122 0.956 . S
C110 H123 0.961 . S
C110 H124 0.961 . S
C111 C108 1.539 . S
C111 H125 0.958 . S
C111 H126 0.961 . S
C111 H127 0.960 . S
H112 C96 0.931 . S
H113 C101 0.929 . S
H114 C102 0.960 . S
H115 C102 0.962 . S
H116 C102 0.960 . S
H117 C103 0.961 . S
H118 C103 0.961 . S
H119 C103 0.961 . S
H120 C104 0.931 . S
H121 C109 0.930 . S
H122 C110 0.956 . S
H123 C110 0.961 . S
H124 C110 0.961 . S
H125 C111 0.958 . S
H126 C111 0.961 . S
H127 C111 0.960 . S
C128 C129 1.391 . S
C128 C130 1.394 . S
C128 H144 0.931 . S
C129 C128 1.391 . S
C129 C133 1.376 . S
C130 C128 1.394 . S
C130 C131 1.369 . S
C130 C134 1.531 . S
C131 C130 1.369 . S
C131 C132 1.410 . S
C131 C139 1.503 . S
C132 C131 1.410 . S
C132 C133 1.392 . S
C132 C135 1.511 . S
C133 C129 1.376 . S
C133 C132 1.392 . S
C133 H145 0.929 . S
C134 C130 1.531 . S
C134 H146 0.960 . S
C134 H147 0.962 . S
C134 H148 0.960 . S
C135 C132 1.511 . S
C135 H149 0.961 . S
C135 H150 0.961 . S
C135 H151 0.961 . S
C136 C137 1.370 . S
C136 C138 1.363 . S
C136 H152 0.931 . S
C137 C136 1.370 . S
C137 C141 1.408 . S
C138 C136 1.363 . S
C138 C139 1.370 . S
C138 C142 1.524 . S
C139 C131 1.503 . S
C139 C138 1.370 . S
C139 C140 1.403 . S
C140 C139 1.403 . S
C140 C141 1.404 . S
C140 C143 1.539 . S
C141 C137 1.408 . S
C141 C140 1.404 . S
C141 H153 0.930 . S
C142 C138 1.524 . S
C142 H154 0.956 . S
C142 H155 0.961 . S
C142 H156 0.961 . S
C143 C140 1.539 . S
C143 H157 0.958 . S
C143 H158 0.961 . S
C143 H159 0.960 . S
H144 C128 0.931 . S
H145 C133 0.929 . S
H146 C134 0.960 . S
H147 C134 0.962 . S
H148 C134 0.960 . S
H149 C135 0.961 . S
H150 C135 0.961 . S
H151 C135 0.961 . S
H152 C136 0.931 . S
H153 C141 0.930 . S
H154 C142 0.956 . S
H155 C142 0.961 . S
H156 C142 0.961 . S
H157 C143 0.958 . S
H158 C143 0.961 . S
H159 C143 0.960 . S
C160 C161 1.391 . S
C160 C162 1.394 . S
C160 H176 0.931 . S
C161 C160 1.391 . S
C161 C165 1.376 . S
C162 C160 1.394 . S
C162 C163 1.369 . S
C162 C166 1.531 . S
C163 C162 1.369 . S
C163 C164 1.410 . S
C163 C171 1.503 . S
C164 C163 1.410 . S
C164 C165 1.392 . S
C164 C167 1.511 . S
C165 C161 1.376 . S
C165 C164 1.392 . S
C165 H177 0.929 . S
C166 C162 1.531 . S
C166 H178 0.960 . S
C166 H179 0.962 . S
C166 H180 0.960 . S
C167 C164 1.511 . S
C167 H181 0.961 . S
C167 H182 0.961 . S
C167 H183 0.961 . S
C168 C169 1.370 . S
C168 C170 1.363 . S
C168 H184 0.931 . S
C169 C168 1.370 . S
C169 C173 1.408 . S
C170 C168 1.363 . S
C170 C171 1.370 . S
C170 C174 1.524 . S
C171 C163 1.503 . S
C171 C170 1.370 . S
C171 C172 1.403 . S
C172 C171 1.403 . S
C172 C173 1.404 . S
C172 C175 1.539 . S
C173 C169 1.408 . S
C173 C172 1.404 . S
C173 H185 0.930 . S
C174 C170 1.524 . S
C174 H186 0.956 . S
C174 H187 0.961 . S
C174 H188 0.961 . S
C175 C172 1.539 . S
C175 H189 0.958 . S
C175 H190 0.961 . S
C175 H191 0.960 . S
H176 C160 0.931 . S
H177 C165 0.929 . S
H178 C166 0.960 . S
H179 C166 0.962 . S
H180 C166 0.960 . S
H181 C167 0.961 . S
H182 C167 0.961 . S
H183 C167 0.961 . S
H184 C168 0.931 . S
H185 C173 0.930 . S
H186 C174 0.956 . S
H187 C174 0.961 . S
H188 C174 0.961 . S
H189 C175 0.958 . S
H190 C175 0.961 . S
H191 C175 0.960 . S
C192 C193 1.391 . S
C192 C194 1.394 . S
C192 H208 0.931 . S
C193 C192 1.391 . S
C193 C197 1.376 . S
C194 C192 1.394 . S
C194 C195 1.369 . S
C194 C198 1.531 . S
C195 C194 1.369 . S
C195 C196 1.410 . S
C195 C203 1.503 . S
C196 C195 1.410 . S
C196 C197 1.392 . S
C196 C199 1.511 . S
C197 C193 1.376 . S
C197 C196 1.392 . S
C197 H209 0.929 . S
C198 C194 1.531 . S
C198 H210 0.960 . S
C198 H211 0.962 . S
C198 H212 0.960 . S
C199 C196 1.511 . S
C199 H213 0.961 . S
C199 H214 0.961 . S
C199 H215 0.961 . S
C200 C201 1.370 . S
C200 C202 1.363 . S
C200 H216 0.931 . S
C201 C200 1.370 . S
C201 C205 1.408 . S
C202 C200 1.363 . S
C202 C203 1.370 . S
C202 C206 1.524 . S
C203 C195 1.503 . S
C203 C202 1.370 . S
C203 C204 1.403 . S
C204 C203 1.403 . S
C204 C205 1.404 . S
C204 C207 1.539 . S
C205 C201 1.408 . S
C205 C204 1.404 . S
C205 H217 0.930 . S
C206 C202 1.524 . S
C206 H218 0.956 . S
C206 H219 0.961 . S
C206 H220 0.961 . S
C207 C204 1.539 . S
C207 H221 0.958 . S
C207 H222 0.961 . S
C207 H223 0.960 . S
H208 C192 0.931 . S
H209 C197 0.929 . S
H210 C198 0.960 . S
H211 C198 0.962 . S
H212 C198 0.960 . S
H213 C199 0.961 . S
H214 C199 0.961 . S
H215 C199 0.961 . S
H216 C200 0.931 . S
H217 C205 0.930 . S
H218 C206 0.956 . S
H219 C206 0.961 . S
H220 C206 0.961 . S
H221 C207 0.958 . S
H222 C207 0.961 . S
H223 C207 0.960 . S
C224 C225 1.391 . S
C224 C226 1.394 . S
C224 H240 0.931 . S
C225 C224 1.391 . S
C225 C229 1.376 . S
C226 C224 1.394 . S
C226 C227 1.369 . S
C226 C230 1.531 . S
C227 C226 1.369 . S
C227 C228 1.410 . S
C227 C235 1.503 . S
C228 C227 1.410 . S
C228 C229 1.392 . S
C228 C231 1.511 . S
C229 C225 1.376 . S
C229 C228 1.392 . S
C229 H241 0.929 . S
C230 C226 1.531 . S
C230 H242 0.960 . S
C230 H243 0.962 . S
C230 H244 0.960 . S
C231 C228 1.511 . S
C231 H245 0.961 . S
C231 H246 0.961 . S
C231 H247 0.961 . S
C232 C233 1.370 . S
C232 C234 1.363 . S
C232 H248 0.931 . S
C233 C232 1.370 . S
C233 C237 1.408 . S
C234 C232 1.363 . S
C234 C235 1.370 . S
C234 C238 1.524 . S
C235 C227 1.503 . S
C235 C234 1.370 . S
C235 C236 1.403 . S
C236 C235 1.403 . S
C236 C237 1.404 . S
C236 C239 1.539 . S
C237 C233 1.408 . S
C237 C236 1.404 . S
C237 H249 0.930 . S
C238 C234 1.524 . S
C238 H250 0.956 . S
C238 H251 0.961 . S
C238 H252 0.961 . S
C239 C236 1.539 . S
C239 H253 0.958 . S
C239 H254 0.961 . S
C239 H255 0.960 . S
H240 C224 0.931 . S
H241 C229 0.929 . S
H242 C230 0.960 . S
H243 C230 0.962 . S
H244 C230 0.960 . S
H245 C231 0.961 . S
H246 C231 0.961 . S
H247 C231 0.961 . S
H248 C232 0.931 . S
H249 C237 0.930 . S
H250 C238 0.956 . S
H251 C238 0.961 . S
H252 C238 0.961 . S
H253 C239 0.958 . S
H254 C239 0.961 . S
H255 C239 0.960 . S
C256 C257 1.391 . S
C256 C258 1.394 . S
C256 H272 0.931 . S
C257 C256 1.391 . S
C257 C261 1.376 . S
C258 C256 1.394 . S
C258 C259 1.369 . S
C258 C262 1.531 . S
C259 C258 1.369 . S
C259 C260 1.410 . S
C259 C267 1.503 . S
C260 C259 1.410 . S
C260 C261 1.392 . S
C260 C263 1.511 . S
C261 C257 1.376 . S
C261 C260 1.392 . S
C261 H273 0.929 . S
C262 C258 1.531 . S
C262 H274 0.960 . S
C262 H275 0.962 . S
C262 H276 0.960 . S
C263 C260 1.511 . S
C263 H277 0.961 . S
C263 H278 0.961 . S
C263 H279 0.961 . S
C264 C265 1.370 . S
C264 C266 1.363 . S
C264 H280 0.931 . S
C265 C264 1.370 . S
C265 C269 1.408 . S
C266 C264 1.363 . S
C266 C267 1.370 . S
C266 C270 1.524 . S
C267 C259 1.503 . S
C267 C266 1.370 . S
C267 C268 1.403 . S
C268 C267 1.403 . S
C268 C269 1.404 . S
C268 C271 1.539 . S
C269 C265 1.408 . S
C269 C268 1.404 . S
C269 H281 0.930 . S
C270 C266 1.524 . S
C270 H282 0.956 . S
C270 H283 0.961 . S
C270 H284 0.961 . S
C271 C268 1.539 . S
C271 H285 0.958 . S
C271 H286 0.961 . S
C271 H287 0.960 . S
H272 C256 0.931 . S
H273 C261 0.929 . S
H274 C262 0.960 . S
H275 C262 0.962 . S
H276 C262 0.960 . S
H277 C263 0.961 . S
H278 C263 0.961 . S
H279 C263 0.961 . S
H280 C264 0.931 . S
H281 C269 0.930 . S
H282 C270 0.956 . S
H283 C270 0.961 . S
H284 C270 0.961 . S
H285 C271 0.958 . S
H286 C271 0.961 . S
H287 C271 0.960 . S
C288 C289 1.391 . S
C288 C290 1.394 . S
C288 H304 0.931 . S
C289 C288 1.391 . S
C289 C293 1.376 . S
C290 C288 1.394 . S
C290 C291 1.369 . S
C290 C294 1.531 . S
C291 C290 1.369 . S
C291 C292 1.410 . S
C291 C299 1.503 . S
C292 C291 1.410 . S
C292 C293 1.392 . S
C292 C295 1.511 . S
C293 C289 1.376 . S
C293 C292 1.392 . S
C293 H305 0.929 . S
C294 C290 1.531 . S
C294 H306 0.960 . S
C294 H307 0.962 . S
C294 H308 0.960 . S
C295 C292 1.511 . S
C295 H309 0.961 . S
C295 H310 0.961 . S
C295 H311 0.961 . S
C296 C297 1.370 . S
C296 C298 1.363 . S
C296 H312 0.931 . S
C297 C296 1.370 . S
C297 C301 1.408 . S
C298 C296 1.363 . S
C298 C299 1.370 . S
C298 C302 1.524 . S
C299 C291 1.503 . S
C299 C298 1.370 . S
C299 C300 1.403 . S
C300 C299 1.403 . S
C300 C301 1.404 . S
C300 C303 1.539 . S
C301 C297 1.408 . S
C301 C300 1.404 . S
C301 H313 0.930 . S
C302 C298 1.524 . S
C302 H314 0.956 . S
C302 H315 0.961 . S
C302 H316 0.961 . S
C303 C300 1.539 . S
C303 H317 0.958 . S
C303 H318 0.961 . S
C303 H319 0.960 . S
H304 C288 0.931 . S
H305 C293 0.929 . S
H306 C294 0.960 . S
H307 C294 0.962 . S
H308 C294 0.960 . S
H309 C295 0.961 . S
H310 C295 0.961 . S
H311 C295 0.961 . S
H312 C296 0.931 . S
H313 C301 0.930 . S
H314 C302 0.956 . S
H315 C302 0.961 . S
H316 C302 0.961 . S
H317 C303 0.958 . S
H318 C303 0.961 . S
H319 C303 0.960 . S
C65 C10 1.180 . S
C73 C53 1.157 . S
C97 C0 1.606 . S
C105 C52 1.684 . S
C129 C18 1.479 . S
C137 C58 1.449 . S
C161 C27 1.618 . S
C169 C59 1.578 . S
C193 C24 1.661 . S
C201 C56 1.688 . S
C233 C54 1.463 . S
C225 C11 1.498 . S
C257 C1 1.601 . S
C265 C55 1.566 . S
C297 C57 1.186 . S
C289 C2 1.186 . S
