# Generated by pormake.
# Topology sit, (3,6)-cn, num edge types: 1
# Building blocks:
#     Node 0, Type 0, BuildingBlock: OLANEW_clean_sbu_2, # of connection points: 3
#     Node 1, Type 0, BuildingBlock: OLANEW_clean_sbu_2, # of connection points: 3
#     Node 2, Type 0, BuildingBlock: OLANEW_clean_sbu_2, # of connection points: 3
#     Node 3, Type 0, BuildingBlock: OLANEW_clean_sbu_2, # of connection points: 3
#     Node 4, Type 1, BuildingBlock: MIDCAF_clean_sbu_0, # of connection points: 6
#     Node 5, Type 1, BuildingBlock: MIDCAF_clean_sbu_0, # of connection points: 6
#     Edge 6, Type (0, 1), BuildingBlock: KIFKEQ_clean_linker_1, # of connection points: 2
#     Edge 7, Type (0, 1), BuildingBlock: KIFKEQ_clean_linker_1, # of connection points: 2
#     Edge 8, Type (0, 1), BuildingBlock: KIFKEQ_clean_linker_1, # of connection points: 2
#     Edge 9, Type (0, 1), BuildingBlock: KIFKEQ_clean_linker_1, # of connection points: 2
#     Edge 10, Type (0, 1), BuildingBlock: KIFKEQ_clean_linker_1, # of connection points: 2
#     Edge 11, Type (0, 1), BuildingBlock: KIFKEQ_clean_linker_1, # of connection points: 2
#     Edge 12, Type (0, 1), BuildingBlock: KIFKEQ_clean_linker_1, # of connection points: 2
#     Edge 13, Type (0, 1), BuildingBlock: KIFKEQ_clean_linker_1, # of connection points: 2
#     Edge 14, Type (0, 1), BuildingBlock: KIFKEQ_clean_linker_1, # of connection points: 2
#     Edge 15, Type (0, 1), BuildingBlock: KIFKEQ_clean_linker_1, # of connection points: 2
#     Edge 16, Type (0, 1), BuildingBlock: KIFKEQ_clean_linker_1, # of connection points: 2
#     Edge 17, Type (0, 1), BuildingBlock: KIFKEQ_clean_linker_1, # of connection points: 2
# Relax obj value: 0.079
# Max RMSD: 0.184
# Mean RMSD: 0.109
data_MOF--net-sit--node1-OLANEW_clean_sbu_2--node2-MIDCAF_clean_sbu_0--edge1-KIFKEQ_clean_linker_1
_symmetry_space_group_name_H-M    P1
_symmetry_Int_Tables_number       1
_symmetry_cell_setting            triclinic
loop_
_symmetry_equiv_pos_as_xyz
'x, y, z'
_cell_length_a     22.73092
_cell_length_b     35.872058
_cell_length_c     39.901336
_cell_angle_alpha  89.729636
_cell_angle_beta   83.338751
_cell_angle_gamma 84.077141
loop_
_atom_site_label
_atom_site_type_symbol
_atom_site_fract_x
_atom_site_fract_y
_atom_site_fract_z
_atom_type_partial_charge
O0 O 0.22189 0.307 0.06162 0.0
Cd1 Cd 0.14383 0.28096 0.0996 0.0
O2 O 0.1568 0.35619 0.06105 0.0
Cd3 Cd 0.11361 0.41014 0.04584 0.0
O4 O 0.04462 0.45127 0.03002 0.0
C5 C 0.05448 0.47569 0.00743 0.0
O6 O 0.10933 0.47786 0.99355 0.0
C7 C 0.2085 0.34009 0.05132 0.0
C8 C 0.15898 0.20578 0.11904 0.0
O9 O 0.13225 0.2154 0.09327 0.0
O10 O 0.18097 0.23137 0.1345 0.0
O11 O 0.08951 0.65228 0.07718 0.0
Cd12 Cd 0.00311 0.68816 0.10877 0.0
O13 O 0.09828 0.69694 0.03961 0.0
Cd14 Cd 0.00839 0.72305 0.05359 0.0
O15 O 0.92784 0.716 0.0309 0.0
C16 C 0.93752 0.70951 -0.00065 0.0
O17 O 0.99196 0.71012 0.98424 0.0
C18 C 0.11806 0.66576 0.05144 0.0
C19 C 0.0344 0.74922 0.14376 0.0
O20 O 0.03589 0.71635 0.15658 0.0
O21 O 0.01812 0.75344 0.11419 0.0
O22 O 0.68786 0.74837 0.48167 0.0
Cd23 Cd 0.62637 0.69587 0.48936 0.0
O24 O 0.62128 0.78748 0.5114 0.0
Cd25 Cd 0.58141 0.8441 0.526 0.0
O26 O 0.51358 0.89177 0.52509 0.0
C27 C 0.52241 0.92087 0.50768 0.0
O28 O 0.57566 0.92378 0.49175 0.0
C29 C 0.67082 0.78129 0.49299 0.0
C30 C 0.61757 0.66104 0.55221 0.0
O31 O 0.65755 0.64852 0.52848 0.0
O32 O 0.58333 0.69049 0.54642 0.0
O33 O 0.60905 0.16193 0.58561 0.0
Cd34 Cd 0.53209 0.20254 0.61989 0.0
O35 O 0.54394 0.1544 0.55029 0.0
Cd36 Cd 0.46958 0.19255 0.57326 0.0
O37 O 0.38601 0.19011 0.55248 0.0
C38 C 0.38066 0.15661 0.54414 0.0
O39 O 0.42079 0.12991 0.55191 0.0
C40 C 0.59549 0.14656 0.55933 0.0
C41 C 0.56848 0.26903 0.64207 0.0
O42 O 0.57798 0.23809 0.65772 0.0
O43 O 0.54245 0.26859 0.61527 0.0
Zn44 Zn 0.00053 0.07321 0.35263 0.0
Zn45 Zn 0.09762 0.93656 0.38017 0.0
Zn46 Zn 0.05073 1.00399 0.36443 0.0
C47 C 0.09652 0.93952 0.30939 0.0
C48 C 0.98022 0.94381 0.41005 0.0
O49 O 0.10344 0.04382 0.38508 0.0
O50 O 0.05457 0.09972 0.37872 0.0
C51 C 0.04438 0.03951 0.29002 0.0
O52 O 0.07259 0.9732 0.31603 0.0
O53 O 0.11225 0.91832 0.33284 0.0
O54 O 0.02725 0.92166 0.40945 0.0
O55 O 0.98068 0.97523 0.39426 0.0
O56 O 0.01693 0.06932 0.30301 0.0
O57 O 0.05989 0.01174 0.30883 0.0
O58 O 0.95868 0.01327 0.39098 0.0
O59 O 0.91942 0.06821 0.37411 0.0
C60 C 0.91454 0.03901 0.39151 0.0
O61 O 0.1301 0.00786 0.39208 0.0
O62 O 0.16589 0.94949 0.40173 0.0
C63 C 0.09767 0.07967 0.38916 0.0
C64 C 0.1688 0.98422 0.4041 0.0
Zn65 Zn 0.52557 0.59336 0.84897 0.0
Zn66 Zn 0.63837 0.45842 0.86356 0.0
Zn67 Zn 0.58023 0.52522 0.85684 0.0
C68 C 0.62441 0.46619 0.7955 0.0
C69 C 0.52559 0.4589 0.90157 0.0
O70 O 0.63522 0.56644 0.87447 0.0
O71 O 0.58362 0.62168 0.86947 0.0
C72 C 0.55185 0.56249 0.78489 0.0
O73 O 0.596 0.49756 0.80641 0.0
O74 O 0.64904 0.44395 0.81549 0.0
O75 O 0.57386 0.43825 0.89429 0.0
O76 O 0.5195 0.49251 0.8899 0.0
O77 O 0.52667 0.59192 0.79963 0.0
O78 O 0.57411 0.53503 0.80201 0.0
O79 O 0.49285 0.52986 0.88892 0.0
O80 O 0.45064 0.58587 0.87645 0.0
C81 C 0.44863 0.55564 0.89259 0.0
O82 O 0.66381 0.53065 0.88014 0.0
O83 O 0.7085 0.473 0.88257 0.0
C84 C 0.62921 0.6024 0.87786 0.0
C85 C 0.70753 0.50766 0.88792 0.0
H86 H 0.09748 0.14912 0.09996 0.0
H87 H 0.21801 0.17581 0.17033 0.0
H88 H 0.07869 0.09211 0.13139 0.0
H89 H 0.19896 0.11923 0.20173 0.0
H90 H 0.15755 0.02197 0.26007 0.0
H91 H 0.19878 0.05032 0.20767 0.0
H92 H 0.0207 0.09047 0.18733 0.0
H93 H 0.9803 0.06255 0.23945 0.0
C94 C 0.12126 0.14233 0.12156 0.0
C95 C 0.15834 0.1674 0.13305 0.0
C96 C 0.11041 0.10966 0.13958 0.0
C97 C 0.13677 0.10127 0.16929 0.0
C98 C 0.17823 0.12456 0.17883 0.0
C99 C 0.18875 0.1573 0.16097 0.0
C100 C 0.1273 0.03511 0.24339 0.0
C101 C 0.06587 0.04045 0.2538 0.0
C102 C 0.15087 0.05174 0.21361 0.0
C103 C 0.11313 0.07338 0.1937 0.0
C104 C 0.05118 0.07402 0.20193 0.0
C105 C 0.02784 0.05794 0.23183 0.0
H106 H 0.08239 0.74698 0.20317 0.0
H107 H 0.02246 0.82395 0.12759 0.0
H108 H 0.10586 0.79917 0.23591 0.0
H109 H 0.04656 0.87665 0.16061 0.0
H110 H 0.0172 0.95117 0.26279 0.0
H111 H 0.00842 0.90813 0.21649 0.0
H112 H 0.17595 0.84696 0.23369 0.0
H113 H 0.18369 0.88911 0.28023 0.0
C114 C 0.07465 0.77506 0.19339 0.0
C115 C 0.0505 0.78127 0.1628 0.0
C116 C 0.08862 0.80503 0.21203 0.0
C117 C 0.0787 0.84208 0.20066 0.0
C118 C 0.05471 0.84843 0.16998 0.0
C119 C 0.04109 0.81826 0.15109 0.0
C120 C 0.05309 0.92935 0.25576 0.0
C121 C 0.10056 0.92294 0.27537 0.0
C122 C 0.04803 0.90464 0.22934 0.0
C123 C 0.09069 0.87351 0.22216 0.0
C124 C 0.14155 0.87003 0.23928 0.0
C125 C 0.14625 0.89434 0.26574 0.0
H126 H 0.54476 0.68497 0.60858 0.0
H127 H 0.67183 0.59294 0.56997 0.0
H128 H 0.52817 0.65284 0.66187 0.0
H129 H 0.65386 0.55995 0.62346 0.0
H130 H 0.65273 0.54302 0.74183 0.0
H131 H 0.66947 0.56234 0.68277 0.0
H132 H 0.48229 0.60071 0.68572 0.0
H133 H 0.46673 0.58314 0.74482 0.0
C134 C 0.56896 0.65772 0.6114 0.0
C135 C 0.60951 0.64153 0.58498 0.0
C136 C 0.55898 0.63901 0.64192 0.0
C137 C 0.58882 0.60338 0.64683 0.0
C138 C 0.63013 0.58732 0.62055 0.0
C139 C 0.64038 0.60623 0.58992 0.0
C140 C 0.61506 0.55449 0.72936 0.0
C141 C 0.55864 0.56208 0.74777 0.0
C142 C 0.62457 0.56569 0.69559 0.0
C143 C 0.57753 0.58422 0.67982 0.0
C144 C 0.51992 0.58779 0.69742 0.0
C145 C 0.51075 0.57727 0.73112 0.0
H146 H 0.53033 0.34137 0.62595 0.0
H147 H 0.64349 0.27625 0.68925 0.0
H148 H 0.5507 0.39908 0.65328 0.0
H149 H 0.66348 0.3332 0.71631 0.0
H150 H 0.71777 0.43238 0.75499 0.0
H151 H 0.71139 0.391 0.7076 0.0
H152 H 0.52317 0.42636 0.71171 0.0
H153 H 0.53037 0.46896 0.75851 0.0
C154 C 0.56026 0.33943 0.64527 0.0
C155 C 0.58511 0.30428 0.65561 0.0
C156 C 0.57173 0.37242 0.66093 0.0
C157 C 0.60902 0.37078 0.68676 0.0
C158 C 0.63548 0.33563 0.69605 0.0
C159 C 0.62356 0.30285 0.68075 0.0
C160 C 0.67564 0.43249 0.74473 0.0
C161 C 0.62435 0.45324 0.76059 0.0
C162 C 0.67184 0.40861 0.71781 0.0
C163 C 0.61642 0.4045 0.70671 0.0
C164 C 0.56647 0.42879 0.71981 0.0
C165 C 0.57053 0.45323 0.74656 0.0
H166 H 0.30281 0.30662 0.01015 0.0
H167 H 0.21523 0.4156 0.04126 0.0
H168 H 0.37747 0.33652 0.97355 0.0
H169 H 0.28877 0.4454 0.00379 0.0
H170 H 0.40482 0.47788 0.90436 0.0
H171 H 0.32589 0.45091 0.94077 0.0
H172 H 0.45859 0.3761 0.98323 0.0
H173 H 0.53703 0.40392 0.94799 0.0
C174 C 0.29904 0.33693 0.00894 0.0
C175 C 0.25213 0.35865 0.02813 0.0
C176 C 0.34187 0.35405 0.98801 0.0
C177 C 0.33881 0.3933 0.98573 0.0
C178 C 0.29163 0.41508 0.00459 0.0
C179 C 0.24906 0.39793 0.02582 0.0
C180 C 0.41705 0.45656 0.92223 0.0
C181 C 0.47714 0.44369 0.92385 0.0
C182 C 0.37191 0.44079 0.94277 0.0
C183 C 0.38612 0.41127 0.96472 0.0
C184 C 0.44622 0.39847 0.96626 0.0
C185 C 0.49114 0.4145 0.94612 0.0
H186 H 0.94416 0.69647 0.9317 0.0
H187 H 0.82425 0.69611 0.02404 0.0
H188 H 0.86903 0.67337 0.90069 0.0
H189 H 0.74956 0.67213 0.9931 0.0
H190 H 0.60921 0.65992 0.92292 0.0
H191 H 0.68282 0.68915 0.95105 0.0
H192 H 0.82356 0.61594 0.89565 0.0
H193 H 0.74976 0.58814 0.86648 0.0
C194 C 0.90167 0.69158 0.94538 0.0
C195 C 0.89017 0.69807 0.98035 0.0
C196 C 0.85878 0.67808 0.92762 0.0
C197 C 0.80346 0.67071 0.94444 0.0
C198 C 0.79149 0.67795 0.97932 0.0
C199 C 0.83436 0.69156 0.99708 0.0
C200 C 0.656 0.65044 0.9166 0.0
C201 C 0.67405 0.62126 0.8932 0.0
C202 C 0.69806 0.66689 0.93289 0.0
C203 C 0.75899 0.6546 0.92589 0.0
C204 C 0.77702 0.62623 0.9015 0.0
C205 C 0.73487 0.6099 0.88517 0.0
H206 H 0.93683 0.48001 0.0322 0.0
H207 H 0.05679 0.51913 0.95068 0.0
H208 H 0.85226 0.50317 0.00315 0.0
H209 H 0.97169 0.54276 0.92172 0.0
H210 H 0.82336 0.49559 0.86406 0.0
H211 H 0.90811 0.50297 0.8946 0.0
H212 H 0.7893 0.55435 0.97788 0.0
H213 H 0.70396 0.54681 0.94677 0.0
C214 C 0.94513 0.49442 0.00847 0.0
C215 C 0.00362 0.49689 0.99336 0.0
C216 C 0.8965 0.50807 0.99195 0.0
C217 C 0.9053 0.52439 0.95992 0.0
C218 C 0.9636 0.52987 0.9462 0.0
C219 C 0.01232 0.51634 0.96281 0.0
C220 C 0.81569 0.50954 0.88845 0.0
C221 C 0.75759 0.52057 0.90322 0.0
C222 C 0.86418 0.51404 0.90589 0.0
C223 C 0.85542 0.52904 0.93878 0.0
C224 C 0.79731 0.54245 0.95266 0.0
C225 C 0.74863 0.5383 0.93492 0.0
H226 H 0.16813 0.59462 0.06472 0.0
H227 H 0.18525 0.68673 0.99511 0.0
H228 H 0.24571 0.55604 0.02834 0.0
H229 H 0.26126 0.64839 0.9593 0.0
H230 H 0.33376 0.56799 0.88182 0.0
H231 H 0.25092 0.58735 0.92461 0.0
H232 H 0.36392 0.56015 0.00291 0.0
H233 H 0.44718 0.54001 0.95968 0.0
C234 C 0.1888 0.60678 0.042 0.0
C235 C 0.17011 0.64369 0.03267 0.0
C236 C 0.23291 0.58466 0.02123 0.0
C237 C 0.25818 0.59906 0.99075 0.0
C238 C 0.24135 0.63636 0.98232 0.0
C239 C 0.19806 0.65842 0.00302 0.0
C240 C 0.34011 0.56454 0.90821 0.0
C241 C 0.39661 0.55295 0.91762 0.0
C242 C 0.29294 0.57581 0.93265 0.0
C243 C 0.30173 0.5761 0.96688 0.0
C244 C 0.35627 0.56026 0.97661 0.0
C245 C 0.4037 0.54865 0.95197 0.0
H246 H 0.72864 0.79237 0.43108 0.0
H247 H 0.69418 0.83962 0.53159 0.0
H248 H 0.79266 0.84153 0.41396 0.0
H249 H 0.75984 0.88843 0.51457 0.0
H250 H 0.96628 0.90723 0.46953 0.0
H251 H 0.8803 0.87551 0.49237 0.0
H252 H 0.78421 0.9191 0.41112 0.0
H253 H 0.86988 0.95195 0.38876 0.0
C254 C 0.73446 0.81349 0.44939 0.0
C255 C 0.7066 0.8123 0.48261 0.0
C256 C 0.77052 0.84177 0.43952 0.0
C257 C 0.78054 0.86885 0.46291 0.0
C258 C 0.75217 0.86801 0.49607 0.0
C259 C 0.71478 0.84019 0.50574 0.0
C260 C 0.92608 0.91096 0.45718 0.0
C261 C 0.92458 0.93178 0.42735 0.0
C262 C 0.87693 0.89298 0.47031 0.0
C263 C 0.82602 0.8948 0.45335 0.0
C264 C 0.82313 0.91739 0.42458 0.0
C265 C 0.87189 0.9362 0.4119 0.0
H266 H 0.36608 0.08858 0.51864 0.0
H267 H 0.29387 0.20499 0.51997 0.0
H268 H 0.29853 0.07435 0.47898 0.0
H269 H 0.22567 0.1904 0.4798 0.0
H270 H 0.2177 0.06512 0.38288 0.0
H271 H 0.28562 0.08648 0.42012 0.0
H272 H 0.13889 0.15506 0.47538 0.0
H273 H 0.07119 0.13343 0.43791 0.0
C274 C 0.33548 0.11114 0.51064 0.0
C275 C 0.33545 0.14797 0.52242 0.0
C276 C 0.297 0.10296 0.48765 0.0
C277 C 0.25721 0.13126 0.47597 0.0
C278 C 0.25581 0.16798 0.48842 0.0
C279 C 0.2948 0.17631 0.51139 0.0
C280 C 0.20028 0.08478 0.403 0.0
C281 C 0.13939 0.09696 0.40823 0.0
C282 C 0.23896 0.09707 0.42426 0.0
C283 C 0.21733 0.12193 0.45107 0.0
C284 C 0.15684 0.13594 0.45493 0.0
C285 C 0.11815 0.1236 0.43355 0.0
H286 H 0.5212 0.9796 0.46337 0.0
H287 H 0.40639 0.92102 0.53467 0.0
H288 H 0.43383 0.0122 0.44178 0.0
H289 H 0.31969 0.95272 0.51268 0.0
H290 H 0.16634 1.00678 0.46905 0.0
H291 H 0.25333 1.00667 0.5001 0.0
H292 H 0.36885 0.98522 0.40676 0.0
H293 H 0.28206 0.98549 0.37629 0.0
C294 C 0.47741 0.97428 0.47497 0.0
C295 C 0.47076 0.94695 0.50013 0.0
C296 C 0.42734 0.99291 0.46253 0.0
C297 C 0.36976 0.98454 0.475 0.0
C298 C 0.36322 0.96004 0.50249 0.0
C299 C 0.41314 0.9415 0.51493 0.0
C300 C 0.21051 1.00362 0.45523 0.0
C301 C 0.21807 0.99634 0.42045 0.0
C302 C 0.26023 1.00315 0.47293 0.0
C303 C 0.31812 0.99545 0.45601 0.0
C304 C 0.32517 0.99168 0.42064 0.0
C305 C 0.27553 0.99175 0.40309 0.0
H306 H 0.71527 0.13064 0.56357 0.0
H307 H 0.57359 0.10197 0.50811 0.0
H308 H 0.78741 0.092 0.52473 0.0
H309 H 0.64531 0.06299 0.4699 0.0
H310 H 0.80196 0.06566 0.38236 0.0
H311 H 0.72041 0.08205 0.42639 0.0
H312 H 0.82494 0.02875 0.50047 0.0
H313 H 0.90724 0.01253 0.45596 0.0
C314 C 0.69941 0.1156 0.54351 0.0
C315 C 0.63891 0.12002 0.53852 0.0
C316 C 0.74063 0.09316 0.52144 0.0
C317 C 0.72205 0.07464 0.49409 0.0
C318 C 0.66109 0.0773 0.49043 0.0
C319 C 0.62005 0.09976 0.51233 0.0
C320 C 0.8067 0.05629 0.40786 0.0
C321 C 0.86082 0.03802 0.41583 0.0
C322 C 0.75994 0.06561 0.43314 0.0
C323 C 0.76655 0.05716 0.46703 0.0
C324 C 0.81894 0.03604 0.47462 0.0
C325 C 0.86569 0.02633 0.44913 0.0
loop_
_geom_bond_atom_site_label_1
_geom_bond_atom_site_label_2
_geom_bond_distance
_geom_bond_site_symmetry_2
_ccdc_geom_bond_type
O0 Cd1 2.300 . S
O0 C7 1.275 . S
Cd1 O0 2.300 . S
Cd1 O9 2.381 . S
Cd1 O10 2.378 . S
O2 Cd3 2.385 . S
O2 C7 1.255 . S
Cd3 O2 2.385 . S
Cd3 O4 2.317 . S
O4 Cd3 2.317 . S
O4 C5 1.232 1_554 S
C5 O4 1.232 1_556 S
C5 O6 1.218 . S
O6 C5 1.218 . S
C7 O0 1.275 . S
C7 O2 1.255 . S
C8 O9 1.258 . S
C8 O10 1.256 . S
O9 Cd1 2.381 . S
O9 C8 1.258 . S
O10 Cd1 2.378 . S
O10 C8 1.256 . S
O11 Cd12 2.300 . S
O11 C18 1.275 . S
Cd12 O11 2.300 . S
Cd12 O20 2.381 . S
Cd12 O21 2.378 1_455 S
O13 Cd14 2.385 1_455 S
O13 C18 1.255 1_556 S
Cd14 O13 2.385 1_655 S
Cd14 O15 2.317 1_556 S
O15 Cd14 2.317 1_554 S
O15 C16 1.232 1_554 S
C16 O15 1.232 1_556 S
C16 O17 1.218 . S
O17 C16 1.218 . S
C18 O11 1.275 . S
C18 O13 1.255 1_554 S
C19 O20 1.258 . S
C19 O21 1.256 1_455 S
O20 Cd12 2.381 . S
O20 C19 1.258 . S
O21 Cd12 2.378 1_655 S
O21 C19 1.256 1_655 S
O22 Cd23 2.300 . S
O22 C29 1.275 . S
Cd23 O22 2.300 . S
Cd23 O31 2.381 . S
Cd23 O32 2.378 . S
O24 Cd25 2.385 . S
O24 C29 1.255 . S
Cd25 O24 2.385 . S
Cd25 O26 2.317 . S
O26 Cd25 2.317 . S
O26 C27 1.232 . S
C27 O26 1.232 . S
C27 O28 1.218 . S
O28 C27 1.218 . S
C29 O22 1.275 . S
C29 O24 1.255 . S
C30 O31 1.258 . S
C30 O32 1.256 . S
O31 Cd23 2.381 . S
O31 C30 1.258 . S
O32 Cd23 2.378 . S
O32 C30 1.256 . S
O33 Cd34 2.300 . S
O33 C40 1.275 . S
Cd34 O33 2.300 . S
Cd34 O42 2.381 . S
Cd34 O43 2.378 . S
O35 Cd36 2.385 . S
O35 C40 1.255 . S
Cd36 O35 2.385 . S
Cd36 O37 2.317 . S
O37 Cd36 2.317 . S
O37 C38 1.232 . S
C38 O37 1.232 . S
C38 O39 1.218 . S
O39 C38 1.218 . S
C40 O33 1.275 . S
C40 O35 1.255 . S
C41 O42 1.258 . S
C41 O43 1.256 . S
O42 Cd34 2.381 . S
O42 C41 1.258 . S
O43 Cd34 2.378 . S
O43 C41 1.256 . S
Zn44 O50 1.920 . S
Zn44 O56 1.898 . S
Zn44 O59 1.905 1_455 S
Zn45 O53 1.905 . S
Zn45 O54 1.898 . S
Zn45 O62 1.920 . S
Zn46 O49 2.080 . S
Zn46 O52 2.114 1_545 S
Zn46 O55 2.120 1_545 S
Zn46 O57 2.120 . S
Zn46 O58 2.114 1_455 S
Zn46 O61 2.080 1_545 S
C47 O52 1.166 . S
C47 O53 1.182 . S
C48 O54 1.167 . S
C48 O55 1.299 . S
O49 Zn46 2.080 . S
O49 C63 1.305 . S
O50 Zn44 1.920 . S
O50 C63 1.234 . S
C51 O56 1.167 . S
C51 O57 1.299 . S
O52 Zn46 2.114 1_565 S
O52 C47 1.166 . S
O53 Zn45 1.905 . S
O53 C47 1.182 . S
O54 Zn45 1.898 . S
O54 C48 1.167 . S
O55 Zn46 2.120 1_565 S
O55 C48 1.299 . S
O56 Zn44 1.898 . S
O56 C51 1.167 . S
O57 Zn46 2.120 . S
O57 C51 1.299 . S
O58 Zn46 2.114 1_655 S
O58 C60 1.166 . S
O59 Zn44 1.905 1_655 S
O59 C60 1.182 . S
C60 O58 1.166 . S
C60 O59 1.182 . S
O61 Zn46 2.080 1_565 S
O61 C64 1.305 . S
O62 Zn45 1.920 . S
O62 C64 1.234 . S
C63 O49 1.305 . S
C63 O50 1.234 . S
C64 O61 1.305 . S
C64 O62 1.234 . S
Zn65 O71 1.920 . S
Zn65 O77 1.898 . S
Zn65 O80 1.905 . S
Zn66 O74 1.905 . S
Zn66 O75 1.898 . S
Zn66 O83 1.920 . S
Zn67 O70 2.080 . S
Zn67 O73 2.114 . S
Zn67 O76 2.120 . S
Zn67 O78 2.120 . S
Zn67 O79 2.114 . S
Zn67 O82 2.080 . S
C68 O73 1.166 . S
C68 O74 1.182 . S
C69 O75 1.167 . S
C69 O76 1.299 . S
O70 Zn67 2.080 . S
O70 C84 1.305 . S
O71 Zn65 1.920 . S
O71 C84 1.234 . S
C72 O77 1.167 . S
C72 O78 1.299 . S
O73 Zn67 2.114 . S
O73 C68 1.166 . S
O74 Zn66 1.905 . S
O74 C68 1.182 . S
O75 Zn66 1.898 . S
O75 C69 1.167 . S
O76 Zn67 2.120 . S
O76 C69 1.299 . S
O77 Zn65 1.898 . S
O77 C72 1.167 . S
O78 Zn67 2.120 . S
O78 C72 1.299 . S
O79 Zn67 2.114 . S
O79 C81 1.166 . S
O80 Zn65 1.905 . S
O80 C81 1.182 . S
C81 O79 1.166 . S
C81 O80 1.182 . S
O82 Zn67 2.080 . S
O82 C85 1.305 . S
O83 Zn66 1.920 . S
O83 C85 1.234 . S
C84 O70 1.305 . S
C84 O71 1.234 . S
C85 O82 1.305 . S
C85 O83 1.234 . S
H86 C94 0.950 . S
H87 C99 0.950 . S
H88 C96 0.950 . S
H89 C98 0.950 . S
H90 C100 0.950 . S
H91 C102 0.950 . S
H92 C104 0.950 . S
H93 C105 0.950 . S
C94 H86 0.950 . S
C94 C95 1.386 . S
C94 C96 1.391 . S
C95 C94 1.386 . S
C95 C99 1.393 . S
C96 H88 0.950 . S
C96 C94 1.391 . S
C96 C97 1.400 . S
C97 C96 1.400 . S
C97 C98 1.398 . S
C97 C103 1.491 . S
C98 H89 0.950 . S
C98 C97 1.398 . S
C98 C99 1.391 . S
C99 H87 0.950 . S
C99 C95 1.393 . S
C99 C98 1.391 . S
C100 H90 0.950 . S
C100 C101 1.386 . S
C100 C102 1.391 . S
C101 C100 1.386 . S
C101 C105 1.393 . S
C102 H91 0.950 . S
C102 C100 1.391 . S
C102 C103 1.400 . S
C103 C97 1.491 . S
C103 C102 1.400 . S
C103 C104 1.398 . S
C104 H92 0.950 . S
C104 C103 1.398 . S
C104 C105 1.391 . S
C105 H93 0.950 . S
C105 C101 1.393 . S
C105 C104 1.391 . S
H106 C114 0.950 . S
H107 C119 0.950 . S
H108 C116 0.950 . S
H109 C118 0.950 . S
H110 C120 0.950 . S
H111 C122 0.950 . S
H112 C124 0.950 . S
H113 C125 0.950 . S
C114 H106 0.950 . S
C114 C115 1.386 . S
C114 C116 1.391 . S
C115 C114 1.386 . S
C115 C119 1.393 1_455 S
C116 H108 0.950 . S
C116 C114 1.391 . S
C116 C117 1.400 . S
C117 C116 1.400 . S
C117 C118 1.398 1_455 S
C117 C123 1.491 . S
C118 H109 0.950 . S
C118 C117 1.398 1_655 S
C118 C119 1.391 . S
C119 H107 0.950 . S
C119 C115 1.393 1_655 S
C119 C118 1.391 . S
C120 H110 0.950 . S
C120 C121 1.386 1_655 S
C120 C122 1.391 . S
C121 C120 1.386 1_455 S
C121 C125 1.393 . S
C122 H111 0.950 . S
C122 C120 1.391 . S
C122 C123 1.400 1_655 S
C123 C117 1.491 . S
C123 C122 1.400 1_455 S
C123 C124 1.398 . S
C124 H112 0.950 . S
C124 C123 1.398 . S
C124 C125 1.391 . S
C125 H113 0.950 . S
C125 C121 1.393 . S
C125 C124 1.391 . S
H126 C134 0.950 . S
H127 C139 0.950 . S
H128 C136 0.950 . S
H129 C138 0.950 . S
H130 C140 0.950 . S
H131 C142 0.950 . S
H132 C144 0.950 . S
H133 C145 0.950 . S
C134 H126 0.950 . S
C134 C135 1.386 . S
C134 C136 1.391 . S
C135 C134 1.386 . S
C135 C139 1.393 . S
C136 H128 0.950 . S
C136 C134 1.391 . S
C136 C137 1.400 . S
C137 C136 1.400 . S
C137 C138 1.398 . S
C137 C143 1.491 . S
C138 H129 0.950 . S
C138 C137 1.398 . S
C138 C139 1.391 . S
C139 H127 0.950 . S
C139 C135 1.393 . S
C139 C138 1.391 . S
C140 H130 0.950 . S
C140 C141 1.386 . S
C140 C142 1.391 . S
C141 C140 1.386 . S
C141 C145 1.393 . S
C142 H131 0.950 . S
C142 C140 1.391 . S
C142 C143 1.400 . S
C143 C137 1.491 . S
C143 C142 1.400 . S
C143 C144 1.398 . S
C144 H132 0.950 . S
C144 C143 1.398 . S
C144 C145 1.391 . S
C145 H133 0.950 . S
C145 C141 1.393 . S
C145 C144 1.391 . S
H146 C154 0.950 . S
H147 C159 0.950 . S
H148 C156 0.950 . S
H149 C158 0.950 . S
H150 C160 0.950 . S
H151 C162 0.950 . S
H152 C164 0.950 . S
H153 C165 0.950 . S
C154 H146 0.950 . S
C154 C155 1.386 . S
C154 C156 1.391 . S
C155 C154 1.386 . S
C155 C159 1.393 . S
C156 H148 0.950 . S
C156 C154 1.391 . S
C156 C157 1.400 . S
C157 C156 1.400 . S
C157 C158 1.398 . S
C157 C163 1.491 . S
C158 H149 0.950 . S
C158 C157 1.398 . S
C158 C159 1.391 . S
C159 H147 0.950 . S
C159 C155 1.393 . S
C159 C158 1.391 . S
C160 H150 0.950 . S
C160 C161 1.386 . S
C160 C162 1.391 . S
C161 C160 1.386 . S
C161 C165 1.393 . S
C162 H151 0.950 . S
C162 C160 1.391 . S
C162 C163 1.400 . S
C163 C157 1.491 . S
C163 C162 1.400 . S
C163 C164 1.398 . S
C164 H152 0.950 . S
C164 C163 1.398 . S
C164 C165 1.391 . S
C165 H153 0.950 . S
C165 C161 1.393 . S
C165 C164 1.391 . S
H166 C174 0.950 . S
H167 C179 0.950 . S
H168 C176 0.950 . S
H169 C178 0.950 1_554 S
H170 C180 0.950 . S
H171 C182 0.950 . S
H172 C184 0.950 . S
H173 C185 0.950 . S
C174 H166 0.950 . S
C174 C175 1.386 . S
C174 C176 1.391 . S
C175 C174 1.386 . S
C175 C179 1.393 1_556 S
C176 H168 0.950 . S
C176 C174 1.391 . S
C176 C177 1.400 . S
C177 C176 1.400 . S
C177 C178 1.398 . S
C177 C183 1.491 . S
C178 H169 0.950 1_556 S
C178 C177 1.398 . S
C178 C179 1.391 1_556 S
C179 H167 0.950 . S
C179 C175 1.393 1_554 S
C179 C178 1.391 1_554 S
C180 H170 0.950 . S
C180 C181 1.386 . S
C180 C182 1.391 . S
C181 C180 1.386 . S
C181 C185 1.393 . S
C182 H171 0.950 . S
C182 C180 1.391 . S
C182 C183 1.400 . S
C183 C177 1.491 . S
C183 C182 1.400 . S
C183 C184 1.398 . S
C184 H172 0.950 . S
C184 C183 1.398 . S
C184 C185 1.391 . S
C185 H173 0.950 . S
C185 C181 1.393 . S
C185 C184 1.391 . S
H186 C194 0.950 . S
H187 C199 0.950 . S
H188 C196 0.950 . S
H189 C198 0.950 . S
H190 C200 0.950 . S
H191 C202 0.950 1_554 S
H192 C204 0.950 . S
H193 C205 0.950 . S
C194 H186 0.950 . S
C194 C195 1.386 . S
C194 C196 1.391 . S
C195 C194 1.386 . S
C195 C199 1.393 1_556 S
C196 H188 0.950 . S
C196 C194 1.391 . S
C196 C197 1.400 . S
C197 C196 1.400 . S
C197 C198 1.398 1_556 S
C197 C203 1.491 . S
C198 H189 0.950 . S
C198 C197 1.398 1_554 S
C198 C199 1.391 . S
C199 H187 0.950 . S
C199 C195 1.393 1_554 S
C199 C198 1.391 . S
C200 H190 0.950 . S
C200 C201 1.386 . S
C200 C202 1.391 . S
C201 C200 1.386 . S
C201 C205 1.393 . S
C202 H191 0.950 1_556 S
C202 C200 1.391 . S
C202 C203 1.400 . S
C203 C197 1.491 . S
C203 C202 1.400 . S
C203 C204 1.398 . S
C204 H192 0.950 . S
C204 C203 1.398 . S
C204 C205 1.391 . S
C205 H193 0.950 . S
C205 C201 1.393 . S
C205 C204 1.391 . S
H206 C214 0.950 1_554 S
H207 C219 0.950 . S
H208 C216 0.950 . S
H209 C218 0.950 . S
H210 C220 0.950 . S
H211 C222 0.950 . S
H212 C224 0.950 . S
H213 C225 0.950 . S
C214 H206 0.950 1_556 S
C214 C215 1.386 . S
C214 C216 1.391 . S
C215 C214 1.386 . S
C215 C219 1.393 . S
C216 H208 0.950 . S
C216 C214 1.391 . S
C216 C217 1.400 . S
C217 C216 1.400 . S
C217 C218 1.398 . S
C217 C223 1.491 . S
C218 H209 0.950 . S
C218 C217 1.398 . S
C218 C219 1.391 . S
C219 H207 0.950 . S
C219 C215 1.393 . S
C219 C218 1.391 . S
C220 H210 0.950 . S
C220 C221 1.386 . S
C220 C222 1.391 . S
C221 C220 1.386 . S
C221 C225 1.393 . S
C222 H211 0.950 . S
C222 C220 1.391 . S
C222 C223 1.400 . S
C223 C217 1.491 . S
C223 C222 1.400 . S
C223 C224 1.398 . S
C224 H212 0.950 . S
C224 C223 1.398 . S
C224 C225 1.391 . S
C225 H213 0.950 . S
C225 C221 1.393 . S
C225 C224 1.391 . S
H226 C234 0.950 . S
H227 C239 0.950 . S
H228 C236 0.950 1_554 S
H229 C238 0.950 . S
H230 C240 0.950 . S
H231 C242 0.950 . S
H232 C244 0.950 . S
H233 C245 0.950 . S
C234 H226 0.950 . S
C234 C235 1.386 1_554 S
C234 C236 1.391 1_554 S
C235 C234 1.386 1_556 S
C235 C239 1.393 . S
C236 H228 0.950 1_556 S
C236 C234 1.391 1_556 S
C236 C237 1.400 . S
C237 C236 1.400 . S
C237 C238 1.398 . S
C237 C243 1.491 . S
C238 H229 0.950 . S
C238 C237 1.398 . S
C238 C239 1.391 . S
C239 H227 0.950 . S
C239 C235 1.393 . S
C239 C238 1.391 . S
C240 H230 0.950 . S
C240 C241 1.386 . S
C240 C242 1.391 . S
C241 C240 1.386 . S
C241 C245 1.393 . S
C242 H231 0.950 . S
C242 C240 1.391 . S
C242 C243 1.400 . S
C243 C237 1.491 . S
C243 C242 1.400 . S
C243 C244 1.398 . S
C244 H232 0.950 . S
C244 C243 1.398 . S
C244 C245 1.391 . S
C245 H233 0.950 . S
C245 C241 1.393 . S
C245 C244 1.391 . S
H246 C254 0.950 . S
H247 C259 0.950 . S
H248 C256 0.950 . S
H249 C258 0.950 . S
H250 C260 0.950 . S
H251 C262 0.950 . S
H252 C264 0.950 . S
H253 C265 0.950 . S
C254 H246 0.950 . S
C254 C255 1.386 . S
C254 C256 1.391 . S
C255 C254 1.386 . S
C255 C259 1.393 . S
C256 H248 0.950 . S
C256 C254 1.391 . S
C256 C257 1.400 . S
C257 C256 1.400 . S
C257 C258 1.398 . S
C257 C263 1.491 . S
C258 H249 0.950 . S
C258 C257 1.398 . S
C258 C259 1.391 . S
C259 H247 0.950 . S
C259 C255 1.393 . S
C259 C258 1.391 . S
C260 H250 0.950 . S
C260 C261 1.386 . S
C260 C262 1.391 . S
C261 C260 1.386 . S
C261 C265 1.393 . S
C262 H251 0.950 . S
C262 C260 1.391 . S
C262 C263 1.400 . S
C263 C257 1.491 . S
C263 C262 1.400 . S
C263 C264 1.398 . S
C264 H252 0.950 . S
C264 C263 1.398 . S
C264 C265 1.391 . S
C265 H253 0.950 . S
C265 C261 1.393 . S
C265 C264 1.391 . S
H266 C274 0.950 . S
H267 C279 0.950 . S
H268 C276 0.950 . S
H269 C278 0.950 . S
H270 C280 0.950 . S
H271 C282 0.950 . S
H272 C284 0.950 . S
H273 C285 0.950 . S
C274 H266 0.950 . S
C274 C275 1.386 . S
C274 C276 1.391 . S
C275 C274 1.386 . S
C275 C279 1.393 . S
C276 H268 0.950 . S
C276 C274 1.391 . S
C276 C277 1.400 . S
C277 C276 1.400 . S
C277 C278 1.398 . S
C277 C283 1.491 . S
C278 H269 0.950 . S
C278 C277 1.398 . S
C278 C279 1.391 . S
C279 H267 0.950 . S
C279 C275 1.393 . S
C279 C278 1.391 . S
C280 H270 0.950 . S
C280 C281 1.386 . S
C280 C282 1.391 . S
C281 C280 1.386 . S
C281 C285 1.393 . S
C282 H271 0.950 . S
C282 C280 1.391 . S
C282 C283 1.400 . S
C283 C277 1.491 . S
C283 C282 1.400 . S
C283 C284 1.398 . S
C284 H272 0.950 . S
C284 C283 1.398 . S
C284 C285 1.391 . S
C285 H273 0.950 . S
C285 C281 1.393 . S
C285 C284 1.391 . S
H286 C294 0.950 . S
H287 C299 0.950 . S
H288 C296 0.950 . S
H289 C298 0.950 . S
H290 C300 0.950 . S
H291 C302 0.950 . S
H292 C304 0.950 . S
H293 C305 0.950 . S
C294 H286 0.950 . S
C294 C295 1.386 . S
C294 C296 1.391 . S
C295 C294 1.386 . S
C295 C299 1.393 . S
C296 H288 0.950 . S
C296 C294 1.391 . S
C296 C297 1.400 . S
C297 C296 1.400 . S
C297 C298 1.398 . S
C297 C303 1.491 . S
C298 H289 0.950 . S
C298 C297 1.398 . S
C298 C299 1.391 . S
C299 H287 0.950 . S
C299 C295 1.393 . S
C299 C298 1.391 . S
C300 H290 0.950 . S
C300 C301 1.386 . S
C300 C302 1.391 . S
C301 C300 1.386 . S
C301 C305 1.393 . S
C302 H291 0.950 . S
C302 C300 1.391 . S
C302 C303 1.400 . S
C303 C297 1.491 . S
C303 C302 1.400 . S
C303 C304 1.398 . S
C304 H292 0.950 . S
C304 C303 1.398 . S
C304 C305 1.391 . S
C305 H293 0.950 . S
C305 C301 1.393 . S
C305 C304 1.391 . S
H306 C314 0.950 . S
H307 C319 0.950 . S
H308 C316 0.950 . S
H309 C318 0.950 . S
H310 C320 0.950 . S
H311 C322 0.950 . S
H312 C324 0.950 . S
H313 C325 0.950 . S
C314 H306 0.950 . S
C314 C315 1.386 . S
C314 C316 1.391 . S
C315 C314 1.386 . S
C315 C319 1.393 . S
C316 H308 0.950 . S
C316 C314 1.391 . S
C316 C317 1.400 . S
C317 C316 1.400 . S
C317 C318 1.398 . S
C317 C323 1.491 . S
C318 H309 0.950 . S
C318 C317 1.398 . S
C318 C319 1.391 . S
C319 H307 0.950 . S
C319 C315 1.393 . S
C319 C318 1.391 . S
C320 H310 0.950 . S
C320 C321 1.386 . S
C320 C322 1.391 . S
C321 C320 1.386 . S
C321 C325 1.393 . S
C322 H311 0.950 . S
C322 C320 1.391 . S
C322 C323 1.400 . S
C323 C317 1.491 . S
C323 C322 1.400 . S
C323 C324 1.398 . S
C324 H312 0.950 . S
C324 C323 1.398 . S
C324 C325 1.391 . S
C325 H313 0.950 . S
C325 C321 1.393 . S
C325 C324 1.391 . S
C101 C51 1.431 . S
C95 C8 1.538 . S
C121 C47 1.380 . S
C115 C19 1.512 . S
C141 C72 1.428 . S
C135 C30 1.538 . S
C155 C41 1.513 . S
C161 C68 1.417 . S
C175 C7 1.234 1_556 S
C181 C69 1.119 . S
C201 C84 1.073 . S
C195 C16 1.144 . S
C215 C5 1.438 1_655 S
C221 C85 1.556 . S
C241 C81 1.617 . S
C235 C18 1.766 1_556 S
C261 C48 1.104 1_655 S
C255 C29 1.225 . S
C275 C38 1.132 . S
C281 C63 1.119 . S
C301 C64 1.583 . S
C295 C27 1.449 . S
C321 C60 1.615 . S
C315 C40 1.766 . S
