# Generated by pormake.
# Topology dag, (6,3)-cn, num edge types: 1
# Building blocks:
#     Node 0, Type 0, BuildingBlock: OJICUG_clean_sbu_0, # of connection points: 6
#     Node 1, Type 0, BuildingBlock: OJICUG_clean_sbu_0, # of connection points: 6
#     Node 2, Type 0, BuildingBlock: OJICUG_clean_sbu_0, # of connection points: 6
#     Node 3, Type 0, BuildingBlock: OJICUG_clean_sbu_0, # of connection points: 6
#     Node 4, Type 1, BuildingBlock: WUSLED_clean_sbu_0, # of connection points: 3
#     Node 5, Type 1, BuildingBlock: WUSLED_clean_sbu_0, # of connection points: 3
#     Node 6, Type 1, BuildingBlock: WUSLED_clean_sbu_0, # of connection points: 3
#     Node 7, Type 1, BuildingBlock: WUSLED_clean_sbu_0, # of connection points: 3
#     Node 8, Type 1, BuildingBlock: WUSLED_clean_sbu_0, # of connection points: 3
#     Node 9, Type 1, BuildingBlock: WUSLED_clean_sbu_0, # of connection points: 3
#     Node 10, Type 1, BuildingBlock: WUSLED_clean_sbu_0, # of connection points: 3
#     Node 11, Type 1, BuildingBlock: WUSLED_clean_sbu_0, # of connection points: 3
#     Edge 12, Type (0, 1), BuildingBlock: OJICUG_clean_linker_0, # of connection points: 2
#     Edge 13, Type (0, 1), BuildingBlock: OJICUG_clean_linker_0, # of connection points: 2
#     Edge 14, Type (0, 1), BuildingBlock: OJICUG_clean_linker_0, # of connection points: 2
#     Edge 15, Type (0, 1), BuildingBlock: OJICUG_clean_linker_0, # of connection points: 2
#     Edge 16, Type (0, 1), BuildingBlock: OJICUG_clean_linker_0, # of connection points: 2
#     Edge 17, Type (0, 1), BuildingBlock: OJICUG_clean_linker_0, # of connection points: 2
#     Edge 18, Type (0, 1), BuildingBlock: OJICUG_clean_linker_0, # of connection points: 2
#     Edge 19, Type (0, 1), BuildingBlock: OJICUG_clean_linker_0, # of connection points: 2
#     Edge 20, Type (0, 1), BuildingBlock: OJICUG_clean_linker_0, # of connection points: 2
#     Edge 21, Type (0, 1), BuildingBlock: OJICUG_clean_linker_0, # of connection points: 2
#     Edge 22, Type (0, 1), BuildingBlock: OJICUG_clean_linker_0, # of connection points: 2
#     Edge 23, Type (0, 1), BuildingBlock: OJICUG_clean_linker_0, # of connection points: 2
#     Edge 24, Type (0, 1), BuildingBlock: OJICUG_clean_linker_0, # of connection points: 2
#     Edge 25, Type (0, 1), BuildingBlock: OJICUG_clean_linker_0, # of connection points: 2
#     Edge 26, Type (0, 1), BuildingBlock: OJICUG_clean_linker_0, # of connection points: 2
#     Edge 27, Type (0, 1), BuildingBlock: OJICUG_clean_linker_0, # of connection points: 2
#     Edge 28, Type (0, 1), BuildingBlock: OJICUG_clean_linker_0, # of connection points: 2
#     Edge 29, Type (0, 1), BuildingBlock: OJICUG_clean_linker_0, # of connection points: 2
#     Edge 30, Type (0, 1), BuildingBlock: OJICUG_clean_linker_0, # of connection points: 2
#     Edge 31, Type (0, 1), BuildingBlock: OJICUG_clean_linker_0, # of connection points: 2
#     Edge 32, Type (0, 1), BuildingBlock: OJICUG_clean_linker_0, # of connection points: 2
#     Edge 33, Type (0, 1), BuildingBlock: OJICUG_clean_linker_0, # of connection points: 2
#     Edge 34, Type (0, 1), BuildingBlock: OJICUG_clean_linker_0, # of connection points: 2
#     Edge 35, Type (0, 1), BuildingBlock: OJICUG_clean_linker_0, # of connection points: 2
# Relax obj value: 0.244
# Max RMSD: 0.198
# Mean RMSD: 0.163
data_MOF--net-dag--node1-OJICUG_clean_sbu_0--node2-WUSLED_clean_sbu_0--edge1-OJICUG_clean_linker_0
_symmetry_space_group_name_H-M    P1
_symmetry_Int_Tables_number       1
_symmetry_cell_setting            triclinic
loop_
_symmetry_equiv_pos_as_xyz
'x, y, z'
_cell_length_a     37.477726
_cell_length_b     39.342702
_cell_length_c     38.530281
_cell_angle_alpha  95.062114
_cell_angle_beta   90.466534
_cell_angle_gamma 89.980838
loop_
_atom_site_label
_atom_site_type_symbol
_atom_site_fract_x
_atom_site_fract_y
_atom_site_fract_z
_atom_type_partial_charge
Sc0 Sc 0.11672 0.863 0.05226 0.0
Sc1 Sc 0.13748 0.77565 0.04624 0.0
Sc2 Sc 0.19637 0.83716 0.08977 0.0
O3 O 0.15041 0.82517 0.06261 0.0
C4 C 0.19213 0.89641 0.03886 0.0
C5 C 0.11318 0.8147 0.9812 0.0
C6 C 0.22157 0.77671 0.03409 0.0
C7 C 0.06241 0.80582 0.07149 0.0
C8 C 0.14221 0.8897 0.12875 0.0
C9 C 0.16757 0.77123 0.12359 0.0
O10 O 0.15877 0.89326 0.03368 0.0
O11 O 0.12411 0.78747 0.99343 0.0
O12 O 0.22786 0.8027 0.05535 0.0
O13 O 0.07158 0.83673 0.07046 0.0
O14 O 0.17111 0.87276 0.12832 0.0
O15 O 0.1493 0.75889 0.0974 0.0
O16 O 0.12082 0.88827 0.10309 0.0
O17 O 0.08243 0.78075 0.06192 0.0
O18 O 0.18588 0.79842 0.12385 0.0
O19 O 0.10864 0.84238 1.00005 0.0
O20 O 0.21003 0.87836 0.0586 0.0
O21 O 0.19053 0.76447 0.0284 0.0
Sc22 Sc 0.70757 0.65898 0.47456 0.0
Sc23 Sc 0.64708 0.72165 0.51098 0.0
Sc24 Sc 0.62778 0.6341 0.51093 0.0
O25 O 0.66095 0.67173 0.49897 0.0
C26 C 0.65164 0.60733 0.43512 0.0
C27 C 0.68007 0.72225 0.43504 0.0
C28 C 0.57177 0.69036 0.48995 0.0
C29 C 0.73023 0.72273 0.52805 0.0
C30 C 0.70382 0.60055 0.5254 0.0
C31 C 0.62502 0.6848 0.57883 0.0
O32 O 0.68279 0.62021 0.43852 0.0
O33 O 0.66233 0.73642 0.46036 0.0
O34 O 0.5801 0.66099 0.49848 0.0
O35 O 0.73738 0.69614 0.50805 0.0
O36 O 0.67 0.60111 0.52607 0.0
O37 O 0.62961 0.71161 0.56297 0.0
O38 O 0.72225 0.62143 0.50973 0.0
O39 O 0.69895 0.73465 0.53243 0.0
O40 O 0.62582 0.65476 0.5638 0.0
O41 O 0.69706 0.69444 0.43646 0.0
O42 O 0.62775 0.61167 0.45828 0.0
O43 O 0.59361 0.71499 0.49057 0.0
Sc44 Sc 0.86308 0.22026 0.01701 0.0
Sc45 Sc 0.7999 0.16012 0.98019 0.0
Sc46 Sc 0.88166 0.13206 0.0118 0.0
O47 O 0.84821 0.17095 0.00317 0.0
C48 C 0.93732 0.18806 0.99082 0.0
C49 C 0.82791 0.22305 0.94092 0.0
C50 C 0.85101 0.1061 0.9378 0.0
C51 C 0.77987 0.22294 0.03522 0.0
C52 C 0.89024 0.18106 0.08193 0.0
C53 C 0.80528 0.10166 0.03079 0.0
O54 O 0.91678 0.21356 0.99703 0.0
O55 O 0.81008 0.1957 0.94234 0.0
O56 O 0.8767 0.10946 0.95941 0.0
O57 O 0.81184 0.23335 0.03958 0.0
O58 O 0.89068 0.15196 0.06468 0.0
O59 O 0.78652 0.12327 0.01617 0.0
O60 O 0.88102 0.20836 0.06857 0.0
O61 O 0.77152 0.19771 0.01382 0.0
O62 O 0.83919 0.10069 0.02951 0.0
O63 O 0.84693 0.23637 0.96624 0.0
O64 O 0.9282 0.15768 0.99498 0.0
O65 O 0.82095 0.1206 0.94302 0.0
Sc66 Sc 0.38611 0.36622 0.54664 0.0
Sc67 Sc 0.3036 0.34549 0.58124 0.0
Sc68 Sc 0.36111 0.28001 0.54569 0.0
O69 O 0.35013 0.3305 0.55767 0.0
C70 C 0.39156 0.31186 0.47952 0.0
C71 C 0.31285 0.40024 0.52582 0.0
C72 C 0.27723 0.28298 0.52949 0.0
C73 C 0.35806 0.39806 0.62058 0.0
C74 C 0.4373 0.30946 0.57173 0.0
C75 C 0.32772 0.28179 0.62172 0.0
O76 O 0.39827 0.34015 0.49687 0.0
O77 O 0.29433 0.38526 0.54739 0.0
O78 O 0.30734 0.26811 0.52816 0.0
O79 O 0.37996 0.39639 0.59555 0.0
O80 O 0.41677 0.28486 0.56125 0.0
O81 O 0.30884 0.30802 0.61785 0.0
O82 O 0.42882 0.3406 0.57079 0.0
O83 O 0.32946 0.38067 0.61962 0.0
O84 O 0.34865 0.2685 0.59833 0.0
O85 O 0.3461 0.39506 0.52141 0.0
O86 O 0.37504 0.28754 0.49218 0.0
O87 O 0.27188 0.31184 0.5461 0.0
C88 C 0.99087 0.18699 0.28393 0.0
C89 C 0.97465 0.15679 0.26941 0.0
C90 C 0.94953 0.18678 0.22214 0.0
C91 C 0.95392 0.15676 0.23914 0.0
C92 C 0.96452 0.21732 0.23766 0.0
C93 C 0.985 0.21738 0.26827 0.0
U94 U 0.06083 0.13653 0.32584 0.0
O95 O 0.11577 0.1481 0.34282 0.0
O96 O 0.07715 0.1308 0.38021 0.0
C97 C 0.10982 0.14138 0.37509 0.0
C98 C 0.01735 0.18585 0.31237 0.0
C99 C 0.12603 0.16498 0.40247 0.0
C100 C 0.14589 0.22167 0.42448 0.0
C101 C 0.12527 0.20048 0.40102 0.0
C102 C 0.16686 0.17215 0.45179 0.0
C103 C 0.16772 0.20765 0.44957 0.0
C104 C 0.14618 0.15112 0.42852 0.0
C105 C 0.07411 0.04676 0.27703 0.0
C106 C 0.12434 0.014 0.25226 0.0
C107 C 0.06623 0.98753 0.25525 0.0
C108 C 0.05255 0.01767 0.27171 0.0
C109 C 0.10164 0.98613 0.24342 0.0
C110 C 0.11065 0.0442 0.26899 0.0
C111 C 0.05655 0.08009 0.28452 0.0
O112 O 0.01043 0.16441 0.33583 0.0
O113 O 0.0506 0.18434 0.30182 0.0
O114 O 0.07467 0.10703 0.27704 0.0
O115 O 0.03826 0.08495 0.31352 0.0
H116 H 0.97906 0.13288 0.28076 0.0
H117 H 0.94219 0.13289 0.22849 0.0
H118 H 0.96203 0.24085 0.22525 0.0
H119 H 0.99758 0.24087 0.27885 0.0
H120 H 0.14538 0.24893 0.42241 0.0
H121 H 0.10979 0.21166 0.38106 0.0
H122 H 0.18355 0.16028 0.47035 0.0
H123 H 0.14723 0.12373 0.42988 0.0
H124 H 0.15173 0.0136 0.24348 0.0
H125 H 0.04831 0.96618 0.2492 0.0
H126 H 0.02438 0.01899 0.27781 0.0
H127 H 0.12801 0.06621 0.27315 0.0
C128 C 0.39681 0.54868 0.79264 0.0
C129 C 0.41467 0.54978 0.76091 0.0
C130 C 0.38888 0.49481 0.7396 0.0
C131 C 0.41071 0.52311 0.7346 0.0
C132 C 0.37238 0.49326 0.77212 0.0
C133 C 0.37624 0.52 0.79832 0.0
U134 U 0.43301 0.63566 0.82966 0.0
O135 O 0.40448 0.6816 0.84978 0.0
O136 O 0.441 0.65645 0.88435 0.0
C137 C 0.41793 0.68123 0.8813 0.0
C138 C 0.39751 0.57802 0.81915 0.0
C139 C 0.39229 0.68844 0.90949 0.0
C140 C 0.33374 0.68129 0.93423 0.0
C141 C 0.36056 0.66979 0.91099 0.0
C142 C 0.37086 0.72927 0.95538 0.0
C143 C 0.33818 0.71178 0.956 0.0
C144 C 0.39764 0.71763 0.93239 0.0
C145 C 0.50942 0.65792 0.76111 0.0
C146 C 0.54241 0.6995 0.73127 0.0
C147 C 0.54971 0.63904 0.71457 0.0
C148 C 0.52578 0.63152 0.74038 0.0
C149 C 0.55802 0.67317 0.7094 0.0
C150 C 0.51807 0.69191 0.75676 0.0
C151 C 0.4819 0.64994 0.7858 0.0
O152 O 0.42643 0.58142 0.83869 0.0
O153 O 0.38631 0.60699 0.80841 0.0
O154 O 0.48923 0.63326 0.81309 0.0
O155 O 0.44831 0.65832 0.78152 0.0
H156 H 0.43077 0.57173 0.7561 0.0
H157 H 0.42362 0.52539 0.70988 0.0
H158 H 0.35603 0.47159 0.77721 0.0
H159 H 0.36246 0.51862 0.82276 0.0
H160 H 0.30918 0.66682 0.93445 0.0
H161 H 0.35598 0.64722 0.89329 0.0
H162 H 0.37517 0.75302 0.97129 0.0
H163 H 0.42188 0.73249 0.93125 0.0
H164 H 0.54856 0.72598 0.72835 0.0
H165 H 0.56055 0.61807 0.69781 0.0
H166 H 0.51905 0.60514 0.74331 0.0
H167 H 0.50567 0.71258 0.77279 0.0
C168 C 0.72788 0.94002 0.14534 0.0
C169 C 0.7568 0.93671 0.12243 0.0
C170 C 0.74646 0.99384 0.10498 0.0
C171 C 0.76608 0.96326 0.10264 0.0
C172 C 0.7171 0.99699 0.12773 0.0
C173 C 0.70793 0.97025 0.14785 0.0
U174 U 0.76054 0.85808 0.17124 0.0
O175 O 0.77082 0.83728 0.2213 0.0
O176 O 0.73639 0.80902 0.18208 0.0
C177 C 0.75076 0.81023 0.21342 0.0
C178 C 0.72088 0.91229 0.16763 0.0
C179 C 0.72897 0.79866 0.2416 0.0
C180 C 0.69417 0.80963 0.29438 0.0
C181 C 0.70944 0.82122 0.26444 0.0
C182 C 0.71685 0.75287 0.2779 0.0
C183 C 0.69861 0.77545 0.30202 0.0
C184 C 0.73161 0.76435 0.24803 0.0
C185 C 0.84759 0.83277 0.12207 0.0
C186 C 0.90103 0.80476 0.14127 0.0
C187 C 0.89475 0.81727 0.08103 0.0
C188 C 0.86105 0.83105 0.08818 0.0
C189 C 0.91561 0.80522 0.10781 0.0
C190 C 0.86712 0.81834 0.14836 0.0
C191 C 0.81594 0.8539 0.13004 0.0
O192 O 0.71302 0.88272 0.15062 0.0
O193 O 0.74505 0.90976 0.19219 0.0
O194 O 0.81588 0.87131 0.16074 0.0
O195 O 0.78479 0.84056 0.12077 0.0
H196 H 0.77277 0.91372 0.12035 0.0
H197 H 0.78935 0.96003 0.08621 0.0
H198 H 0.70125 0.02008 0.13003 0.0
H199 H 0.68564 0.97332 0.16556 0.0
H200 H 0.67979 0.82763 0.31196 0.0
H201 H 0.70712 0.84789 0.25981 0.0
H202 H 0.72165 0.72661 0.28288 0.0
H203 H 0.74682 0.74664 0.2308 0.0
H204 H 0.91657 0.79547 0.1623 0.0
H205 H 0.9055 0.81842 0.05514 0.0
H206 H 0.8464 0.84224 0.06765 0.0
H207 H 0.85707 0.8193 0.17471 0.0
C208 C 0.77784 0.43615 0.63934 0.0
C209 C 0.75522 0.43095 0.61007 0.0
C210 C 0.76072 0.4908 0.59909 0.0
C211 C 0.74689 0.45793 0.59007 0.0
C212 C 0.78401 0.49571 0.62797 0.0
C213 C 0.79248 0.46862 0.64789 0.0
U214 U 0.7432 0.35509 0.6698 0.0
O215 O 0.7675 0.30753 0.68551 0.0
O216 O 0.73332 0.33883 0.72197 0.0
C217 C 0.75281 0.31112 0.71651 0.0
C218 C 0.78292 0.40878 0.66281 0.0
C219 C 0.77303 0.29977 0.74638 0.0
C220 C 0.80994 0.30998 0.79867 0.0
C221 C 0.79512 0.32145 0.76808 0.0
C222 C 0.78101 0.2553 0.78556 0.0
C223 C 0.80261 0.27682 0.80809 0.0
C224 C 0.76672 0.26657 0.75512 0.0
C225 C 0.65547 0.32701 0.62012 0.0
C226 C 0.6006 0.30238 0.63987 0.0
C227 C 0.60699 0.31293 0.57922 0.0
C228 C 0.64159 0.32495 0.58613 0.0
C229 C 0.58561 0.30293 0.60633 0.0
C230 C 0.63537 0.31427 0.64674 0.0
C231 C 0.68774 0.34769 0.62777 0.0
O232 O 0.75836 0.408 0.68686 0.0
O233 O 0.79036 0.37836 0.64756 0.0
O234 O 0.71877 0.33344 0.62026 0.0
O235 O 0.68781 0.36709 0.65731 0.0
H236 H 0.7431 0.40623 0.6033 0.0
H237 H 0.72847 0.45332 0.56835 0.0
H238 H 0.79534 0.52063 0.63543 0.0
H239 H 0.8097 0.47326 0.67053 0.0
H240 H 0.8267 0.3272 0.81509 0.0
H241 H 0.80021 0.3473 0.76182 0.0
H242 H 0.77375 0.23 0.79199 0.0
H243 H 0.7494 0.24958 0.73898 0.0
H244 H 0.58475 0.29451 0.66114 0.0
H245 H 0.59608 0.31401 0.55322 0.0
H246 H 0.65663 0.33484 0.56532 0.0
H247 H 0.64566 0.31549 0.67317 0.0
C248 C 0.49088 0.30987 0.27977 0.0
C249 C 0.48642 0.33925 0.30272 0.0
C250 C 0.45122 0.30727 0.34145 0.0
C251 C 0.46682 0.33798 0.33316 0.0
C252 C 0.45375 0.27829 0.31743 0.0
C253 C 0.47371 0.27954 0.28682 0.0
U254 U 0.56031 0.36058 0.24005 0.0
O255 O 0.61538 0.34981 0.22378 0.0
O256 O 0.57684 0.36817 0.18633 0.0
C257 C 0.6096 0.35773 0.19178 0.0
C258 C 0.51663 0.31075 0.25112 0.0
C259 C 0.62674 0.3356 0.16389 0.0
C260 C 0.64678 0.27987 0.13899 0.0
C261 C 0.62513 0.2998 0.16242 0.0
C262 C 0.6707 0.33128 0.11775 0.0
C263 C 0.67046 0.2956 0.11723 0.0
C264 C 0.64888 0.35107 0.14072 0.0
C265 C 0.57032 0.44886 0.29444 0.0
C266 C 0.6217 0.48599 0.30592 0.0
C267 C 0.56423 0.50212 0.33055 0.0
C268 C 0.54916 0.47256 0.31404 0.0
C269 C 0.60093 0.50888 0.32756 0.0
C270 C 0.60653 0.45607 0.28961 0.0
C271 C 0.55467 0.41527 0.28386 0.0
O272 O 0.50966 0.33315 0.22856 0.0
O273 O 0.5501 0.31158 0.26158 0.0
O274 O 0.57414 0.38866 0.28998 0.0
O275 O 0.5372 0.41157 0.25405 0.0
H276 H 0.49942 0.36292 0.29782 0.0
H277 H 0.46494 0.36084 0.35093 0.0
H278 H 0.442 0.25431 0.32321 0.0
H279 H 0.47692 0.25658 0.26945 0.0
H280 H 0.64639 0.25235 0.13912 0.0
H281 H 0.60835 0.2874 0.18028 0.0
H282 H 0.68874 0.34389 0.10118 0.0
H283 H 0.65061 0.37863 0.14156 0.0
H284 H 0.64987 0.49059 0.30249 0.0
H285 H 0.5473 0.51852 0.34737 0.0
H286 H 0.52122 0.46727 0.31827 0.0
H287 H 0.62332 0.438 0.27449 0.0
C288 C 0.15043 0.19485 0.91356 0.0
C289 C 0.14131 0.17189 0.93798 0.0
C290 C 0.08188 0.19696 0.94312 0.0
C291 C 0.10718 0.17306 0.95282 0.0
C292 C 0.0914 0.22023 0.91928 0.0
C293 C 0.12546 0.21929 0.90479 0.0
U294 U 0.24359 0.15691 0.88726 0.0
O295 O 0.26655 0.15088 0.83513 0.0
O296 O 0.29243 0.18526 0.87574 0.0
C297 C 0.29287 0.17215 0.84315 0.0
C298 C 0.18496 0.19339 0.89554 0.0
C299 C 0.30164 0.19456 0.81612 0.0
C300 C 0.28384 0.23486 0.77518 0.0
C301 C 0.27728 0.2186 0.80537 0.0
C302 C 0.33961 0.20398 0.76724 0.0
C303 C 0.31463 0.22695 0.7553 0.0
C304 C 0.33312 0.18795 0.7974 0.0
C305 C 0.24826 0.07246 0.93825 0.0
C306 C 0.26135 0.01355 0.94728 0.0
C307 C 0.21835 0.04532 0.98402 0.0
C308 C 0.22398 0.07415 0.9658 0.0
C309 C 0.23673 0.01468 0.97453 0.0
C310 C 0.26708 0.04221 0.92939 0.0
C311 C 0.25487 0.10088 0.91719 0.0
O312 O 0.21374 0.19917 0.91494 0.0
O313 O 0.18888 0.16844 0.87085 0.0
O314 O 0.26336 0.13115 0.93228 0.0
O315 O 0.23768 0.10142 0.88742 0.0
H316 H 0.16024 0.15277 0.94499 0.0
H317 H 0.10014 0.15471 0.97099 0.0
H318 H 0.07224 0.23878 0.91145 0.0
H319 H 0.13206 0.23724 0.88605 0.0
H320 H 0.264 0.25233 0.76653 0.0
H321 H 0.25262 0.22363 0.81938 0.0
H322 H 0.36381 0.19782 0.75284 0.0
H323 H 0.35203 0.16919 0.80528 0.0
H324 H 0.27602 0.99039 0.93966 0.0
H325 H 0.19895 0.04662 0.00478 0.0
H326 H 0.20919 0.09737 0.97281 0.0
H327 H 0.28604 0.04064 0.90821 0.0
C328 C 0.23033 0.55919 0.41159 0.0
C329 C 0.25811 0.56308 0.43634 0.0
C330 C 0.25017 0.50478 0.45017 0.0
C331 C 0.26792 0.53611 0.45549 0.0
C332 C 0.2218 0.50092 0.4261 0.0
C333 C 0.21189 0.52809 0.40683 0.0
U334 U 0.26513 0.63941 0.38352 0.0
O335 O 0.27351 0.65928 0.33285 0.0
O336 O 0.24195 0.68899 0.37288 0.0
C337 C 0.2542 0.68672 0.34086 0.0
C338 C 0.22372 0.58679 0.38898 0.0
C339 C 0.2302 0.69719 0.31346 0.0
C340 C 0.19059 0.68437 0.26369 0.0
C341 C 0.20875 0.67391 0.29293 0.0
C342 C 0.21428 0.74146 0.2764 0.0
C343 C 0.19382 0.71817 0.25465 0.0
C344 C 0.23205 0.73108 0.30548 0.0
C345 C 0.35519 0.65847 0.43465 0.0
C346 C 0.40653 0.69381 0.42427 0.0
C347 C 0.40554 0.6608 0.47448 0.0
C348 C 0.37168 0.64881 0.46489 0.0
C349 C 0.42371 0.68314 0.45417 0.0
C350 C 0.37242 0.68145 0.41449 0.0
C351 C 0.32187 0.64103 0.42384 0.0
O352 O 0.21756 0.61684 0.40562 0.0
O353 O 0.24711 0.588 0.36388 0.0
O354 O 0.32086 0.62523 0.39236 0.0
O355 O 0.29173 0.65601 0.43341 0.0
H356 H 0.27292 0.58674 0.44015 0.0
H357 H 0.29004 0.53937 0.47378 0.0
H358 H 0.20798 0.47672 0.42171 0.0
H359 H 0.19061 0.52457 0.38767 0.0
H360 H 0.17477 0.66589 0.24777 0.0
H361 H 0.20702 0.64753 0.2988 0.0
H362 H 0.21822 0.76746 0.27006 0.0
H363 H 0.24871 0.74931 0.32089 0.0
H364 H 0.41967 0.71115 0.40817 0.0
H365 H 0.41805 0.65119 0.49708 0.0
H366 H 0.35888 0.63076 0.48048 0.0
H367 H 0.36001 0.68905 0.39089 0.0
C368 C 0.88673 0.95961 0.76358 0.0
C369 C 0.91248 0.96603 0.79005 0.0
C370 C 0.87646 0.01268 0.81658 0.0
C371 C 0.90749 0.99255 0.81625 0.0
C372 C 0.85134 0.00679 0.78944 0.0
C373 C 0.85651 0.98051 0.76309 0.0
U374 U 0.93146 0.87584 0.73528 0.0
O375 O 0.90873 0.82513 0.72094 0.0
O376 O 0.94205 0.84944 0.68351 0.0
C377 C 0.92148 0.82344 0.68919 0.0
C378 C 0.88938 0.92925 0.7386 0.0
C379 C 0.89583 0.81201 0.66159 0.0
C380 C 0.84178 0.81993 0.62787 0.0
C381 C 0.86802 0.83307 0.65155 0.0
C382 C 0.87163 0.76508 0.62363 0.0
C383 C 0.84292 0.78551 0.61431 0.0
C384 C 0.89776 0.77822 0.64704 0.0
C385 C 0.00974 0.85253 0.79657 0.0
C386 C 0.02541 0.81015 0.83648 0.0
C387 C 0.06914 0.85178 0.82201 0.0
C388 C 0.04469 0.86523 0.79939 0.0
C389 C 0.05884 0.82576 0.84265 0.0
C390 C 1.00099 0.82345 0.81359 0.0
C391 C 0.98174 0.87421 0.78277 0.0
O392 O 0.91832 0.92688 0.71943 0.0
O393 O 0.88108 0.90056 0.7516 0.0
O394 O 0.94847 0.86545 0.78774 0.0
O395 O 0.98711 0.88621 0.75243 0.0
H396 H 0.93582 0.94987 0.79107 0.0
H397 H 0.9271 0.99637 0.83704 0.0
H398 H 0.82737 0.02215 0.78898 0.0
H399 H 0.83635 0.97582 0.74293 0.0
H400 H 0.81992 0.83625 0.62126 0.0
H401 H 0.86606 0.85925 0.66274 0.0
H402 H 0.8736 0.73867 0.61319 0.0
H403 H 0.91904 0.76162 0.65453 0.0
H404 H 0.0167 0.79004 0.85194 0.0
H405 H 0.09499 0.86393 0.82582 0.0
H406 H 0.05217 0.88754 0.78652 0.0
H407 H 0.97432 0.81282 0.81169 0.0
C408 C 0.0989 0.92898 0.16 0.0
C409 C 0.13228 0.91263 0.15975 0.0
H410 H 0.06358 0.96471 0.18623 0.0
C411 C 0.15544 0.91942 0.18848 0.0
H412 H 0.08026 0.92463 0.13843 0.0
C413 C 0.14551 0.94276 0.21644 0.0
C414 C 0.11214 0.95914 0.21619 0.0
H415 H 0.18133 0.90725 0.18906 0.0
H416 H 0.16389 0.94818 0.23806 0.0
C417 C 0.08905 0.95184 0.18771 0.0
C418 C 0.58863 0.71149 0.62776 0.0
C419 C 0.61458 0.68776 0.61565 0.0
H420 H 0.54966 0.72503 0.66672 0.0
C421 C 0.62561 0.66256 0.63703 0.0
H422 H 0.57946 0.73091 0.61152 0.0
C423 C 0.60901 0.65941 0.66881 0.0
C424 C 0.58056 0.68101 0.67956 0.0
H425 H 0.64582 0.64411 0.62828 0.0
H426 H 0.61734 0.63898 0.68414 0.0
C427 C 0.57156 0.70801 0.6594 0.0
C428 C 0.78708 0.04143 0.03336 0.0
C429 C 0.78705 0.07511 0.04847 0.0
H430 H 0.7727 0.98963 0.03852 0.0
C431 C 0.77119 0.08269 0.08106 0.0
H432 H 0.79893 0.03521 0.00803 0.0
C433 C 0.75687 0.0565 0.09908 0.0
C434 C 0.75785 0.02238 0.08453 0.0
H435 H 0.77107 0.10864 0.09311 0.0
H436 H 0.74636 0.06284 0.12493 0.0
C437 C 0.77226 0.01539 0.05099 0.0
C438 C 0.48682 0.31931 0.61451 0.0
C439 C 0.47357 0.30212 0.58368 0.0
H440 H 0.53269 0.33213 0.64627 0.0
C441 C 0.4966 0.28163 0.56226 0.0
H442 H 0.46945 0.33537 0.63126 0.0
C443 C 0.533 0.28021 0.57047 0.0
C444 C 0.54663 0.29867 0.60062 0.0
H445 H 0.48691 0.26853 0.53809 0.0
H446 H 0.55072 0.2658 0.55262 0.0
C447 C 0.52293 0.31726 0.62314 0.0
C448 C 0.60983 0.59086 0.38636 0.0
C449 C 0.64238 0.58574 0.40327 0.0
H450 H 0.57229 0.57191 0.34747 0.0
C451 C 0.66376 0.55783 0.39178 0.0
H452 H 0.59316 0.61256 0.39459 0.0
C453 C 0.65129 0.53373 0.36558 0.0
C454 C 0.61752 0.53758 0.35 0.0
H455 H 0.68893 0.55342 0.40467 0.0
H456 H 0.66718 0.51109 0.35925 0.0
C457 C 0.59782 0.56738 0.35958 0.0
C458 C 0.98245 0.18151 0.94389 0.0
C459 C 0.97359 0.19338 0.97811 0.0
H460 H 0.02399 0.17394 0.90598 0.0
C461 C 1.00042 0.20698 1.00092 0.0
H462 H 0.96215 0.17057 0.92608 0.0
C463 C 0.03589 0.20806 0.98974 0.0
C464 C 0.04471 0.19605 0.95548 0.0
H465 H 0.99411 0.21578 0.02761 0.0
H466 H 0.05641 0.21815 0.00776 0.0
C467 C 0.01767 0.18324 0.93253 0.0
C468 C 0.26794 0.44643 0.52081 0.0
C469 C 0.29501 0.42546 0.50561 0.0
H470 H 0.23261 0.48858 0.5149 0.0
C471 C 0.30552 0.42945 0.47131 0.0
H472 H 0.25965 0.44402 0.54736 0.0
C473 C 0.28955 0.45435 0.45268 0.0
C474 C 0.26326 0.47584 0.46825 0.0
H475 H 0.32616 0.41342 0.459 0.0
H476 H 0.29841 0.4575 0.42646 0.0
C477 C 0.25244 0.47174 0.50235 0.0
C478 C 0.10145 0.84754 0.93028 0.0
C479 C 0.10457 0.81556 0.9437 0.0
H480 H 0.08458 0.87556 0.88846 0.0
C481 C 0.09656 0.78599 0.92181 0.0
H482 H 0.10766 0.87094 0.94615 0.0
C483 C 0.08335 0.78874 0.88791 0.0
C484 C 0.0786 0.82104 0.87541 0.0
H485 H 0.09886 0.761 0.93137 0.0
H486 H 0.0758 0.76581 0.87191 0.0
C487 C 0.08861 0.85023 0.89679 0.0
C488 C 0.83001 0.06067 0.89296 0.0
C489 C 0.85651 0.08385 0.90549 0.0
H490 H 0.81597 0.01945 0.85522 0.0
C491 C 0.88915 0.08451 0.88788 0.0
H492 H 0.80488 0.05936 0.90647 0.0
C493 C 0.89542 0.06193 0.85847 0.0
C494 C 0.86921 0.03818 0.84633 0.0
H495 H 0.90985 0.10245 0.89694 0.0
H496 H 0.92079 0.06288 0.84531 0.0
C497 C 0.83637 0.03792 0.8637 0.0
C498 C 0.44106 0.31993 0.43906 0.0
C499 C 0.40681 0.307 0.4442 0.0
H500 H 0.48194 0.32931 0.40292 0.0
C501 C 0.38761 0.29177 0.41541 0.0
H502 H 0.45672 0.33123 0.46088 0.0
C503 C 0.40208 0.29098 0.38174 0.0
C504 C 0.43589 0.30529 0.37667 0.0
H505 H 0.36107 0.28173 0.41876 0.0
H506 H 0.38647 0.28026 0.35966 0.0
C507 C 0.45546 0.31894 0.40584 0.0
C508 C 0.21131 0.92361 0.98662 0.0
C509 C 0.20964 0.92432 0.02296 0.0
H510 H 0.22163 0.95186 0.94281 0.0
C511 C 0.21882 0.95423 0.04362 0.0
H512 H 0.20366 0.90086 0.97035 0.0
C513 C 0.22819 0.98367 0.02796 0.0
C514 C 0.229 0.98328 0.9915 0.0
H515 H 0.21691 0.95533 0.07174 0.0
H516 H 0.23422 0.00684 0.04426 0.0
C517 C 0.22137 0.95275 0.97099 0.0
C518 C 0.52367 0.69467 0.44567 0.0
C519 C 0.53442 0.69596 0.48067 0.0
H520 H 0.47984 0.68948 0.40961 0.0
C521 C 0.50871 0.69779 0.50688 0.0
H522 H 0.54334 0.69294 0.42514 0.0
C523 C 0.47252 0.69656 0.49822 0.0
C524 C 0.46139 0.69244 0.46309 0.0
H525 H 0.51666 0.69875 0.53406 0.0
H526 H 0.4533 0.69719 0.5191 0.0
C527 C 0.48734 0.69285 0.43689 0.0
C528 C 0.33982 0.43078 0.67654 0.0
C529 C 0.36635 0.42136 0.65201 0.0
H530 H 0.32584 0.46166 0.72285 0.0
C531 C 0.40093 0.4348 0.65754 0.0
H532 H 0.31292 0.42091 0.67311 0.0
C533 C 0.40854 0.45778 0.68644 0.0
C534 C 0.38171 0.46814 0.7104 0.0
H535 H 0.4222 0.42764 0.63948 0.0
H536 H 0.43547 0.46754 0.68988 0.0
C537 C 0.34734 0.454 0.70527 0.0
C538 C 0.015 0.8163 0.11535 0.0
C539 C 0.02642 0.7994 0.08386 0.0
H540 H 0.97076 0.83047 0.14807 0.0
C541 C 0.00198 0.78025 0.06246 0.0
H542 H 0.0336 0.83124 0.13212 0.0
C543 C 0.96586 0.78018 0.07127 0.0
C544 C 0.95403 0.79871 0.10191 0.0
H545 H 0.01038 0.76733 0.03788 0.0
H546 H 0.94696 0.76701 0.05341 0.0
C547 C 0.97915 0.81564 0.12452 0.0
C548 C 0.72594 0.57805 0.57993 0.0
C549 C 0.722 0.5741 0.5436 0.0
H550 H 0.74149 0.55486 0.62595 0.0
C551 C 0.73226 0.54335 0.52524 0.0
H552 H 0.71765 0.60148 0.59454 0.0
C553 C 0.74564 0.51653 0.54311 0.0
C554 C 0.74916 0.5201 0.57967 0.0
H555 H 0.72894 0.53975 0.49719 0.0
H556 H 0.75288 0.49286 0.52835 0.0
C557 C 0.73965 0.5514 0.5978 0.0
C558 C 0.89754 0.21141 0.14229 0.0
C559 C 0.90346 0.18279 0.11849 0.0
H560 H 0.90651 0.23486 0.19408 0.0
C561 C 0.92361 0.15549 0.12947 0.0
H562 H 0.88203 0.23281 0.1347 0.0
C563 C 0.938 0.15686 0.16299 0.0
C564 C 0.93232 0.18536 0.18695 0.0
H565 H 0.92922 0.13319 0.11182 0.0
H566 H 0.9545 0.13577 0.16968 0.0
C567 C 0.9117 0.21261 0.17625 0.0
C568 C 0.1619 0.77579 0.1876 0.0
C569 C 0.16654 0.755 0.1565 0.0
H570 H 0.16467 0.77995 0.24308 0.0
C571 C 0.17432 0.72029 0.15792 0.0
H572 H 0.15531 0.80258 0.18707 0.0
C573 C 0.18081 0.70739 0.19019 0.0
C574 C 0.17903 0.72901 0.22135 0.0
H575 H 0.17794 0.70383 0.13416 0.0
H576 H 0.1896 0.6812 0.19046 0.0
C577 C 0.16752 0.76284 0.21966 0.0
C578 C 0.77169 0.7716 0.54348 0.0
C579 C 0.75914 0.73901 0.54939 0.0
H580 H 0.80873 0.81184 0.55914 0.0
C581 C 0.77348 0.72225 0.57686 0.0
H582 H 0.76073 0.78492 0.52238 0.0
C583 C 0.80027 0.73769 0.59811 0.0
C584 C 0.81358 0.77006 0.59202 0.0
H585 H 0.76357 0.69738 0.58219 0.0
H586 H 0.8104 0.72435 0.61954 0.0
C587 C 0.79888 0.78699 0.56458 0.0
C588 C 0.76039 0.26324 0.08557 0.0
C589 C 0.75134 0.24076 0.05641 0.0
H590 H 0.74169 0.2978 0.12763 0.0
C591 C 0.71494 0.23556 0.04799 0.0
H592 H 0.78802 0.26757 0.09318 0.0
C593 C 0.68835 0.2528 0.06806 0.0
C594 C 0.69774 0.27558 0.09676 0.0
H595 H 0.707 0.21853 0.02564 0.0
H596 H 0.66058 0.2489 0.0608 0.0
C597 C 0.73391 0.28048 0.10542 0.0
C598 C 0.31456 0.28846 0.68524 0.0
C599 C 0.3259 0.26754 0.65587 0.0
H600 H 0.30296 0.29231 0.73968 0.0
C601 C 0.33502 0.23349 0.65972 0.0
H602 H 0.308 0.31506 0.6833 0.0
C603 C 0.33182 0.22039 0.69215 0.0
C604 C 0.31978 0.24123 0.72134 0.0
H605 H 0.34378 0.21679 0.63757 0.0
H606 H 0.33791 0.19372 0.69416 0.0
C607 C 0.31163 0.27549 0.71759 0.0
C608 C 0.67468 0.71632 0.37067 0.0
C609 C 0.67979 0.73749 0.40152 0.0
H610 H 0.67397 0.71212 0.31516 0.0
C611 C 0.68637 0.77235 0.39966 0.0
H612 H 0.66876 0.68944 0.37156 0.0
C613 C 0.69066 0.78529 0.3672 0.0
C614 C 0.6876 0.76365 0.33611 0.0
H615 H 0.69022 0.78913 0.42323 0.0
H616 H 0.69829 0.81176 0.36669 0.0
C617 C 0.67789 0.72935 0.33837 0.0
C618 C 0.8231 0.27375 0.90522 0.0
C619 C 0.82719 0.23848 0.90723 0.0
H620 H 0.81142 0.3137 0.87236 0.0
C621 C 0.82784 0.21688 0.87625 0.0
H622 H 0.82265 0.29096 0.92875 0.0
C623 C 0.82253 0.22981 0.84406 0.0
C624 C 0.81526 0.26468 0.84188 0.0
H625 H 0.83171 0.18964 0.87697 0.0
H626 H 0.82299 0.2121 0.82092 0.0
C627 C 0.81686 0.28672 0.87283 0.0
C628 C 0.23877 0.27392 0.47666 0.0
C629 C 0.24725 0.26588 0.51043 0.0
H630 H 0.20729 0.26162 0.43076 0.0
C631 C 0.22822 0.24014 0.52512 0.0
H632 H 0.25347 0.29358 0.46488 0.0
C633 C 0.20134 0.22215 0.50594 0.0
C634 C 0.19337 0.22931 0.47152 0.0
H635 H 0.23448 0.23366 0.55124 0.0
H636 H 0.18716 0.20233 0.51794 0.0
C637 C 0.21214 0.25576 0.45732 0.0
C638 C 0.24509 0.74109 0.98246 0.0
C639 C 0.25148 0.75974 0.01472 0.0
H640 H 0.2673 0.71208 0.93842 0.0
C641 C 0.28638 0.76152 0.02825 0.0
H642 H 0.21849 0.73948 0.9712 0.0
C643 C 0.31435 0.74501 0.00981 0.0
C644 C 0.30812 0.72686 0.97716 0.0
H645 H 0.292 0.77534 0.05327 0.0
H646 H 0.34089 0.74653 0.02117 0.0
C647 C 0.27308 0.72507 0.96379 0.0
loop_
_geom_bond_atom_site_label_1
_geom_bond_atom_site_label_2
_geom_bond_distance
_geom_bond_site_symmetry_2
_ccdc_geom_bond_type
Sc0 O3 2.025 . S
Sc0 O10 2.105 . S
Sc0 O13 2.105 . S
Sc0 O16 2.105 . S
Sc0 O19 2.105 1_554 S
Sc1 O3 2.025 . S
Sc1 O11 2.105 1_554 S
Sc1 O15 2.105 . S
Sc1 O17 2.105 . S
Sc1 O21 2.105 . S
Sc2 O3 2.025 . S
Sc2 O12 2.105 . S
Sc2 O14 2.105 . S
Sc2 O18 2.105 . S
Sc2 O20 2.105 . S
O3 Sc0 2.025 . S
O3 Sc1 2.025 . S
O3 Sc2 2.025 . S
C4 O10 1.268 . S
C4 O20 1.268 . S
C5 O11 1.268 . S
C5 O19 1.268 . S
C6 O12 1.268 . S
C6 O21 1.268 . S
C7 O13 1.268 . S
C7 O17 1.268 . S
C8 O14 1.268 . S
C8 O16 1.268 . S
C9 O15 1.268 . S
C9 O18 1.268 . S
O10 Sc0 2.105 . S
O10 C4 1.268 . S
O11 Sc1 2.105 1_556 S
O11 C5 1.268 . S
O12 Sc2 2.105 . S
O12 C6 1.268 . S
O13 Sc0 2.105 . S
O13 C7 1.268 . S
O14 Sc2 2.105 . S
O14 C8 1.268 . S
O15 Sc1 2.105 . S
O15 C9 1.268 . S
O16 Sc0 2.105 . S
O16 C8 1.268 . S
O17 Sc1 2.105 . S
O17 C7 1.268 . S
O18 Sc2 2.105 . S
O18 C9 1.268 . S
O19 Sc0 2.105 1_556 S
O19 C5 1.268 . S
O20 Sc2 2.105 . S
O20 C4 1.268 . S
O21 Sc1 2.105 . S
O21 C6 1.268 . S
Sc22 O25 2.025 . S
Sc22 O32 2.105 . S
Sc22 O35 2.105 . S
Sc22 O38 2.105 . S
Sc22 O41 2.105 . S
Sc23 O25 2.025 . S
Sc23 O33 2.105 . S
Sc23 O37 2.105 . S
Sc23 O39 2.105 . S
Sc23 O43 2.105 . S
Sc24 O25 2.025 . S
Sc24 O34 2.105 . S
Sc24 O36 2.105 . S
Sc24 O40 2.105 . S
Sc24 O42 2.105 . S
O25 Sc22 2.025 . S
O25 Sc23 2.025 . S
O25 Sc24 2.025 . S
C26 O32 1.268 . S
C26 O42 1.268 . S
C27 O33 1.268 . S
C27 O41 1.268 . S
C28 O34 1.268 . S
C28 O43 1.268 . S
C29 O35 1.268 . S
C29 O39 1.268 . S
C30 O36 1.268 . S
C30 O38 1.268 . S
C31 O37 1.268 . S
C31 O40 1.268 . S
O32 Sc22 2.105 . S
O32 C26 1.268 . S
O33 Sc23 2.105 . S
O33 C27 1.268 . S
O34 Sc24 2.105 . S
O34 C28 1.268 . S
O35 Sc22 2.105 . S
O35 C29 1.268 . S
O36 Sc24 2.105 . S
O36 C30 1.268 . S
O37 Sc23 2.105 . S
O37 C31 1.268 . S
O38 Sc22 2.105 . S
O38 C30 1.268 . S
O39 Sc23 2.105 . S
O39 C29 1.268 . S
O40 Sc24 2.105 . S
O40 C31 1.268 . S
O41 Sc22 2.105 . S
O41 C27 1.268 . S
O42 Sc24 2.105 . S
O42 C26 1.268 . S
O43 Sc23 2.105 . S
O43 C28 1.268 . S
Sc44 O47 2.025 . S
Sc44 O54 2.105 1_554 S
Sc44 O57 2.105 . S
Sc44 O60 2.105 . S
Sc44 O63 2.105 1_554 S
Sc45 O47 2.025 1_556 S
Sc45 O55 2.105 . S
Sc45 O59 2.105 1_556 S
Sc45 O61 2.105 1_556 S
Sc45 O65 2.105 . S
Sc46 O47 2.025 . S
Sc46 O56 2.105 1_554 S
Sc46 O58 2.105 . S
Sc46 O62 2.105 . S
Sc46 O64 2.105 1_554 S
O47 Sc44 2.025 . S
O47 Sc45 2.025 1_554 S
O47 Sc46 2.025 . S
C48 O54 1.268 . S
C48 O64 1.268 . S
C49 O55 1.268 . S
C49 O63 1.268 . S
C50 O56 1.268 . S
C50 O65 1.268 . S
C51 O57 1.268 . S
C51 O61 1.268 . S
C52 O58 1.268 . S
C52 O60 1.268 . S
C53 O59 1.268 . S
C53 O62 1.268 . S
O54 Sc44 2.105 1_556 S
O54 C48 1.268 . S
O55 Sc45 2.105 . S
O55 C49 1.268 . S
O56 Sc46 2.105 1_556 S
O56 C50 1.268 . S
O57 Sc44 2.105 . S
O57 C51 1.268 . S
O58 Sc46 2.105 . S
O58 C52 1.268 . S
O59 Sc45 2.105 1_554 S
O59 C53 1.268 . S
O60 Sc44 2.105 . S
O60 C52 1.268 . S
O61 Sc45 2.105 1_554 S
O61 C51 1.268 . S
O62 Sc46 2.105 . S
O62 C53 1.268 . S
O63 Sc44 2.105 1_556 S
O63 C49 1.268 . S
O64 Sc46 2.105 1_556 S
O64 C48 1.268 . S
O65 Sc45 2.105 . S
O65 C50 1.268 . S
Sc66 O69 2.025 . S
Sc66 O76 2.105 . S
Sc66 O79 2.105 . S
Sc66 O82 2.105 . S
Sc66 O85 2.105 . S
Sc67 O69 2.025 . S
Sc67 O77 2.105 . S
Sc67 O81 2.105 . S
Sc67 O83 2.105 . S
Sc67 O87 2.105 . S
Sc68 O69 2.025 . S
Sc68 O78 2.105 . S
Sc68 O80 2.105 . S
Sc68 O84 2.105 . S
Sc68 O86 2.105 . S
O69 Sc66 2.025 . S
O69 Sc67 2.025 . S
O69 Sc68 2.025 . S
C70 O76 1.268 . S
C70 O86 1.268 . S
C71 O77 1.268 . S
C71 O85 1.268 . S
C72 O78 1.268 . S
C72 O87 1.268 . S
C73 O79 1.268 . S
C73 O83 1.268 . S
C74 O80 1.268 . S
C74 O82 1.268 . S
C75 O81 1.268 . S
C75 O84 1.268 . S
O76 Sc66 2.105 . S
O76 C70 1.268 . S
O77 Sc67 2.105 . S
O77 C71 1.268 . S
O78 Sc68 2.105 . S
O78 C72 1.268 . S
O79 Sc66 2.105 . S
O79 C73 1.268 . S
O80 Sc68 2.105 . S
O80 C74 1.268 . S
O81 Sc67 2.105 . S
O81 C75 1.268 . S
O82 Sc66 2.105 . S
O82 C74 1.268 . S
O83 Sc67 2.105 . S
O83 C73 1.268 . S
O84 Sc68 2.105 . S
O84 C75 1.268 . S
O85 Sc66 2.105 . S
O85 C71 1.268 . S
O86 Sc68 2.105 . S
O86 C70 1.268 . S
O87 Sc67 2.105 . S
O87 C72 1.268 . S
C88 C89 1.264 . S
C88 C93 1.479 . S
C88 C98 1.465 1_655 S
C89 C88 1.264 . S
C89 C91 1.339 . S
C89 H116 0.931 . S
C90 C91 1.395 . S
C90 C92 1.320 . S
C91 C89 1.339 . S
C91 C90 1.395 . S
C91 H117 0.929 . S
C92 C90 1.320 . S
C92 C93 1.405 . S
C92 H118 0.930 . S
C93 C88 1.479 . S
C93 C92 1.405 . S
C93 H119 0.931 . S
U94 O95 2.454 . S
U94 O96 2.458 . S
U94 C97 2.984 . S
U94 C98 2.847 . S
U94 C111 2.882 . S
U94 O112 2.441 . S
U94 O113 2.420 . S
U94 O114 2.455 . S
U94 O115 2.449 . S
O95 U94 2.454 . S
O95 C97 1.353 . S
O96 U94 2.458 . S
O96 C97 1.286 . S
C97 U94 2.984 . S
C97 O95 1.353 . S
C97 O96 1.286 . S
C97 C99 1.363 . S
C98 C88 1.465 1_455 S
C98 U94 2.847 . S
C98 O112 1.249 . S
C98 O113 1.202 . S
C99 C97 1.363 . S
C99 C101 1.408 . S
C99 C104 1.342 . S
C100 C101 1.310 . S
C100 C103 1.461 . S
C100 H120 0.932 . S
C101 C99 1.408 . S
C101 C100 1.310 . S
C101 H121 0.930 . S
C102 C103 1.474 . S
C102 C104 1.285 . S
C102 H122 0.929 . S
C103 C100 1.461 . S
C103 C102 1.474 . S
C104 C99 1.342 . S
C104 C102 1.285 . S
C104 H123 0.930 . S
C105 C108 1.424 . S
C105 C110 1.245 . S
C105 C111 1.428 . S
C106 C109 1.260 . S
C106 C110 1.477 1_565 S
C106 H124 0.932 . S
C107 C108 1.384 1_565 S
C107 C109 1.479 . S
C107 H125 0.929 . S
C108 C105 1.424 . S
C108 C107 1.384 1_545 S
C108 H126 0.928 . S
C109 C106 1.260 . S
C109 C107 1.479 . S
C110 C105 1.245 . S
C110 C106 1.477 1_545 S
C110 H127 0.932 . S
C111 U94 2.882 . S
C111 C105 1.428 . S
C111 O114 1.301 . S
C111 O115 1.282 . S
O112 U94 2.441 . S
O112 C98 1.249 . S
O113 U94 2.420 . S
O113 C98 1.202 . S
O114 U94 2.455 . S
O114 C111 1.301 . S
O115 U94 2.449 . S
O115 C111 1.282 . S
H116 C89 0.931 . S
H117 C91 0.929 . S
H118 C92 0.930 . S
H119 C93 0.931 . S
H120 C100 0.932 . S
H121 C101 0.930 . S
H122 C102 0.929 . S
H123 C104 0.930 . S
H124 C106 0.932 . S
H125 C107 0.929 . S
H126 C108 0.928 . S
H127 C110 0.932 . S
C128 C129 1.264 . S
C128 C133 1.479 . S
C128 C138 1.465 . S
C129 C128 1.264 . S
C129 C131 1.339 . S
C129 H156 0.931 . S
C130 C131 1.395 . S
C130 C132 1.320 . S
C131 C129 1.339 . S
C131 C130 1.395 . S
C131 H157 0.929 . S
C132 C130 1.320 . S
C132 C133 1.405 . S
C132 H158 0.930 . S
C133 C128 1.479 . S
C133 C132 1.405 . S
C133 H159 0.931 . S
U134 O135 2.454 . S
U134 O136 2.458 . S
U134 C137 2.984 . S
U134 C138 2.847 . S
U134 C151 2.882 . S
U134 O152 2.441 . S
U134 O153 2.420 . S
U134 O154 2.455 . S
U134 O155 2.449 . S
O135 U134 2.454 . S
O135 C137 1.353 . S
O136 U134 2.458 . S
O136 C137 1.286 . S
C137 U134 2.984 . S
C137 O135 1.353 . S
C137 O136 1.286 . S
C137 C139 1.363 . S
C138 C128 1.465 . S
C138 U134 2.847 . S
C138 O152 1.249 . S
C138 O153 1.202 . S
C139 C137 1.363 . S
C139 C141 1.408 . S
C139 C144 1.342 . S
C140 C141 1.310 . S
C140 C143 1.461 . S
C140 H160 0.932 . S
C141 C139 1.408 . S
C141 C140 1.310 . S
C141 H161 0.930 . S
C142 C143 1.474 . S
C142 C144 1.285 . S
C142 H162 0.929 . S
C143 C140 1.461 . S
C143 C142 1.474 . S
C144 C139 1.342 . S
C144 C142 1.285 . S
C144 H163 0.930 . S
C145 C148 1.424 . S
C145 C150 1.245 . S
C145 C151 1.428 . S
C146 C149 1.260 . S
C146 C150 1.477 . S
C146 H164 0.932 . S
C147 C148 1.384 . S
C147 C149 1.479 . S
C147 H165 0.929 . S
C148 C145 1.424 . S
C148 C147 1.384 . S
C148 H166 0.928 . S
C149 C146 1.260 . S
C149 C147 1.479 . S
C150 C145 1.245 . S
C150 C146 1.477 . S
C150 H167 0.932 . S
C151 U134 2.882 . S
C151 C145 1.428 . S
C151 O154 1.301 . S
C151 O155 1.282 . S
O152 U134 2.441 . S
O152 C138 1.249 . S
O153 U134 2.420 . S
O153 C138 1.202 . S
O154 U134 2.455 . S
O154 C151 1.301 . S
O155 U134 2.449 . S
O155 C151 1.282 . S
H156 C129 0.931 . S
H157 C131 0.929 . S
H158 C132 0.930 . S
H159 C133 0.931 . S
H160 C140 0.932 . S
H161 C141 0.930 . S
H162 C142 0.929 . S
H163 C144 0.930 . S
H164 C146 0.932 . S
H165 C147 0.929 . S
H166 C148 0.928 . S
H167 C150 0.932 . S
C168 C169 1.264 . S
C168 C173 1.479 . S
C168 C178 1.465 . S
C169 C168 1.264 . S
C169 C171 1.339 . S
C169 H196 0.931 . S
C170 C171 1.395 . S
C170 C172 1.320 . S
C171 C169 1.339 . S
C171 C170 1.395 . S
C171 H197 0.929 . S
C172 C170 1.320 . S
C172 C173 1.405 . S
C172 H198 0.930 . S
C173 C168 1.479 . S
C173 C172 1.405 . S
C173 H199 0.931 . S
U174 O175 2.454 . S
U174 O176 2.458 . S
U174 C177 2.984 . S
U174 C178 2.847 . S
U174 C191 2.882 . S
U174 O192 2.441 . S
U174 O193 2.420 . S
U174 O194 2.455 . S
U174 O195 2.449 . S
O175 U174 2.454 . S
O175 C177 1.353 . S
O176 U174 2.458 . S
O176 C177 1.286 . S
C177 U174 2.984 . S
C177 O175 1.353 . S
C177 O176 1.286 . S
C177 C179 1.363 . S
C178 C168 1.465 . S
C178 U174 2.847 . S
C178 O192 1.249 . S
C178 O193 1.202 . S
C179 C177 1.363 . S
C179 C181 1.408 . S
C179 C184 1.342 . S
C180 C181 1.310 . S
C180 C183 1.461 . S
C180 H200 0.932 . S
C181 C179 1.408 . S
C181 C180 1.310 . S
C181 H201 0.930 . S
C182 C183 1.474 . S
C182 C184 1.285 . S
C182 H202 0.929 . S
C183 C180 1.461 . S
C183 C182 1.474 . S
C184 C179 1.342 . S
C184 C182 1.285 . S
C184 H203 0.930 . S
C185 C188 1.424 . S
C185 C190 1.245 . S
C185 C191 1.428 . S
C186 C189 1.260 . S
C186 C190 1.477 . S
C186 H204 0.932 . S
C187 C188 1.384 . S
C187 C189 1.479 . S
C187 H205 0.929 . S
C188 C185 1.424 . S
C188 C187 1.384 . S
C188 H206 0.928 . S
C189 C186 1.260 . S
C189 C187 1.479 . S
C190 C185 1.245 . S
C190 C186 1.477 . S
C190 H207 0.932 . S
C191 U174 2.882 . S
C191 C185 1.428 . S
C191 O194 1.301 . S
C191 O195 1.282 . S
O192 U174 2.441 . S
O192 C178 1.249 . S
O193 U174 2.420 . S
O193 C178 1.202 . S
O194 U174 2.455 . S
O194 C191 1.301 . S
O195 U174 2.449 . S
O195 C191 1.282 . S
H196 C169 0.931 . S
H197 C171 0.929 . S
H198 C172 0.930 . S
H199 C173 0.931 . S
H200 C180 0.932 . S
H201 C181 0.930 . S
H202 C182 0.929 . S
H203 C184 0.930 . S
H204 C186 0.932 . S
H205 C187 0.929 . S
H206 C188 0.928 . S
H207 C190 0.932 . S
C208 C209 1.264 . S
C208 C213 1.479 . S
C208 C218 1.465 . S
C209 C208 1.264 . S
C209 C211 1.339 . S
C209 H236 0.931 . S
C210 C211 1.395 . S
C210 C212 1.320 . S
C211 C209 1.339 . S
C211 C210 1.395 . S
C211 H237 0.929 . S
C212 C210 1.320 . S
C212 C213 1.405 . S
C212 H238 0.930 . S
C213 C208 1.479 . S
C213 C212 1.405 . S
C213 H239 0.931 . S
U214 O215 2.454 . S
U214 O216 2.458 . S
U214 C217 2.984 . S
U214 C218 2.847 . S
U214 C231 2.882 . S
U214 O232 2.441 . S
U214 O233 2.420 . S
U214 O234 2.455 . S
U214 O235 2.449 . S
O215 U214 2.454 . S
O215 C217 1.353 . S
O216 U214 2.458 . S
O216 C217 1.286 . S
C217 U214 2.984 . S
C217 O215 1.353 . S
C217 O216 1.286 . S
C217 C219 1.363 . S
C218 C208 1.465 . S
C218 U214 2.847 . S
C218 O232 1.249 . S
C218 O233 1.202 . S
C219 C217 1.363 . S
C219 C221 1.408 . S
C219 C224 1.342 . S
C220 C221 1.310 . S
C220 C223 1.461 . S
C220 H240 0.932 . S
C221 C219 1.408 . S
C221 C220 1.310 . S
C221 H241 0.930 . S
C222 C223 1.474 . S
C222 C224 1.285 . S
C222 H242 0.929 . S
C223 C220 1.461 . S
C223 C222 1.474 . S
C224 C219 1.342 . S
C224 C222 1.285 . S
C224 H243 0.930 . S
C225 C228 1.424 . S
C225 C230 1.245 . S
C225 C231 1.428 . S
C226 C229 1.260 . S
C226 C230 1.477 . S
C226 H244 0.932 . S
C227 C228 1.384 . S
C227 C229 1.479 . S
C227 H245 0.929 . S
C228 C225 1.424 . S
C228 C227 1.384 . S
C228 H246 0.928 . S
C229 C226 1.260 . S
C229 C227 1.479 . S
C230 C225 1.245 . S
C230 C226 1.477 . S
C230 H247 0.932 . S
C231 U214 2.882 . S
C231 C225 1.428 . S
C231 O234 1.301 . S
C231 O235 1.282 . S
O232 U214 2.441 . S
O232 C218 1.249 . S
O233 U214 2.420 . S
O233 C218 1.202 . S
O234 U214 2.455 . S
O234 C231 1.301 . S
O235 U214 2.449 . S
O235 C231 1.282 . S
H236 C209 0.931 . S
H237 C211 0.929 . S
H238 C212 0.930 . S
H239 C213 0.931 . S
H240 C220 0.932 . S
H241 C221 0.930 . S
H242 C222 0.929 . S
H243 C224 0.930 . S
H244 C226 0.932 . S
H245 C227 0.929 . S
H246 C228 0.928 . S
H247 C230 0.932 . S
C248 C249 1.264 . S
C248 C253 1.479 . S
C248 C258 1.465 . S
C249 C248 1.264 . S
C249 C251 1.339 . S
C249 H276 0.931 . S
C250 C251 1.395 . S
C250 C252 1.320 . S
C251 C249 1.339 . S
C251 C250 1.395 . S
C251 H277 0.929 . S
C252 C250 1.320 . S
C252 C253 1.405 . S
C252 H278 0.930 . S
C253 C248 1.479 . S
C253 C252 1.405 . S
C253 H279 0.931 . S
U254 O255 2.454 . S
U254 O256 2.458 . S
U254 C257 2.984 . S
U254 C258 2.847 . S
U254 C271 2.882 . S
U254 O272 2.441 . S
U254 O273 2.420 . S
U254 O274 2.455 . S
U254 O275 2.449 . S
O255 U254 2.454 . S
O255 C257 1.353 . S
O256 U254 2.458 . S
O256 C257 1.286 . S
C257 U254 2.984 . S
C257 O255 1.353 . S
C257 O256 1.286 . S
C257 C259 1.363 . S
C258 C248 1.465 . S
C258 U254 2.847 . S
C258 O272 1.249 . S
C258 O273 1.202 . S
C259 C257 1.363 . S
C259 C261 1.408 . S
C259 C264 1.342 . S
C260 C261 1.310 . S
C260 C263 1.461 . S
C260 H280 0.932 . S
C261 C259 1.408 . S
C261 C260 1.310 . S
C261 H281 0.930 . S
C262 C263 1.474 . S
C262 C264 1.285 . S
C262 H282 0.929 . S
C263 C260 1.461 . S
C263 C262 1.474 . S
C264 C259 1.342 . S
C264 C262 1.285 . S
C264 H283 0.930 . S
C265 C268 1.424 . S
C265 C270 1.245 . S
C265 C271 1.428 . S
C266 C269 1.260 . S
C266 C270 1.477 . S
C266 H284 0.932 . S
C267 C268 1.384 . S
C267 C269 1.479 . S
C267 H285 0.929 . S
C268 C265 1.424 . S
C268 C267 1.384 . S
C268 H286 0.928 . S
C269 C266 1.260 . S
C269 C267 1.479 . S
C270 C265 1.245 . S
C270 C266 1.477 . S
C270 H287 0.932 . S
C271 U254 2.882 . S
C271 C265 1.428 . S
C271 O274 1.301 . S
C271 O275 1.282 . S
O272 U254 2.441 . S
O272 C258 1.249 . S
O273 U254 2.420 . S
O273 C258 1.202 . S
O274 U254 2.455 . S
O274 C271 1.301 . S
O275 U254 2.449 . S
O275 C271 1.282 . S
H276 C249 0.931 . S
H277 C251 0.929 . S
H278 C252 0.930 . S
H279 C253 0.931 . S
H280 C260 0.932 . S
H281 C261 0.930 . S
H282 C262 0.929 . S
H283 C264 0.930 . S
H284 C266 0.932 . S
H285 C267 0.929 . S
H286 C268 0.928 . S
H287 C270 0.932 . S
C288 C289 1.264 . S
C288 C293 1.479 . S
C288 C298 1.465 . S
C289 C288 1.264 . S
C289 C291 1.339 . S
C289 H316 0.931 . S
C290 C291 1.395 . S
C290 C292 1.320 . S
C291 C289 1.339 . S
C291 C290 1.395 . S
C291 H317 0.929 . S
C292 C290 1.320 . S
C292 C293 1.405 . S
C292 H318 0.930 . S
C293 C288 1.479 . S
C293 C292 1.405 . S
C293 H319 0.931 . S
U294 O295 2.454 . S
U294 O296 2.458 . S
U294 C297 2.984 . S
U294 C298 2.847 . S
U294 C311 2.882 . S
U294 O312 2.441 . S
U294 O313 2.420 . S
U294 O314 2.455 . S
U294 O315 2.449 . S
O295 U294 2.454 . S
O295 C297 1.353 . S
O296 U294 2.458 . S
O296 C297 1.286 . S
C297 U294 2.984 . S
C297 O295 1.353 . S
C297 O296 1.286 . S
C297 C299 1.363 . S
C298 C288 1.465 . S
C298 U294 2.847 . S
C298 O312 1.249 . S
C298 O313 1.202 . S
C299 C297 1.363 . S
C299 C301 1.408 . S
C299 C304 1.342 . S
C300 C301 1.310 . S
C300 C303 1.461 . S
C300 H320 0.932 . S
C301 C299 1.408 . S
C301 C300 1.310 . S
C301 H321 0.930 . S
C302 C303 1.474 . S
C302 C304 1.285 . S
C302 H322 0.929 . S
C303 C300 1.461 . S
C303 C302 1.474 . S
C304 C299 1.342 . S
C304 C302 1.285 . S
C304 H323 0.930 . S
C305 C308 1.424 . S
C305 C310 1.245 . S
C305 C311 1.428 . S
C306 C309 1.260 . S
C306 C310 1.477 . S
C306 H324 0.932 . S
C307 C308 1.384 . S
C307 C309 1.479 . S
C307 H325 0.929 . S
C308 C305 1.424 . S
C308 C307 1.384 . S
C308 H326 0.928 . S
C309 C306 1.260 . S
C309 C307 1.479 . S
C310 C305 1.245 . S
C310 C306 1.477 . S
C310 H327 0.932 . S
C311 U294 2.882 . S
C311 C305 1.428 . S
C311 O314 1.301 . S
C311 O315 1.282 . S
O312 U294 2.441 . S
O312 C298 1.249 . S
O313 U294 2.420 . S
O313 C298 1.202 . S
O314 U294 2.455 . S
O314 C311 1.301 . S
O315 U294 2.449 . S
O315 C311 1.282 . S
H316 C289 0.931 . S
H317 C291 0.929 . S
H318 C292 0.930 . S
H319 C293 0.931 . S
H320 C300 0.932 . S
H321 C301 0.930 . S
H322 C302 0.929 . S
H323 C304 0.930 . S
H324 C306 0.932 . S
H325 C307 0.929 . S
H326 C308 0.928 . S
H327 C310 0.932 . S
C328 C329 1.264 . S
C328 C333 1.479 . S
C328 C338 1.465 . S
C329 C328 1.264 . S
C329 C331 1.339 . S
C329 H356 0.931 . S
C330 C331 1.395 . S
C330 C332 1.320 . S
C331 C329 1.339 . S
C331 C330 1.395 . S
C331 H357 0.929 . S
C332 C330 1.320 . S
C332 C333 1.405 . S
C332 H358 0.930 . S
C333 C328 1.479 . S
C333 C332 1.405 . S
C333 H359 0.931 . S
U334 O335 2.454 . S
U334 O336 2.458 . S
U334 C337 2.984 . S
U334 C338 2.847 . S
U334 C351 2.882 . S
U334 O352 2.441 . S
U334 O353 2.420 . S
U334 O354 2.455 . S
U334 O355 2.449 . S
O335 U334 2.454 . S
O335 C337 1.353 . S
O336 U334 2.458 . S
O336 C337 1.286 . S
C337 U334 2.984 . S
C337 O335 1.353 . S
C337 O336 1.286 . S
C337 C339 1.363 . S
C338 C328 1.465 . S
C338 U334 2.847 . S
C338 O352 1.249 . S
C338 O353 1.202 . S
C339 C337 1.363 . S
C339 C341 1.408 . S
C339 C344 1.342 . S
C340 C341 1.310 . S
C340 C343 1.461 . S
C340 H360 0.932 . S
C341 C339 1.408 . S
C341 C340 1.310 . S
C341 H361 0.930 . S
C342 C343 1.474 . S
C342 C344 1.285 . S
C342 H362 0.929 . S
C343 C340 1.461 . S
C343 C342 1.474 . S
C344 C339 1.342 . S
C344 C342 1.285 . S
C344 H363 0.930 . S
C345 C348 1.424 . S
C345 C350 1.245 . S
C345 C351 1.428 . S
C346 C349 1.260 . S
C346 C350 1.477 . S
C346 H364 0.932 . S
C347 C348 1.384 . S
C347 C349 1.479 . S
C347 H365 0.929 . S
C348 C345 1.424 . S
C348 C347 1.384 . S
C348 H366 0.928 . S
C349 C346 1.260 . S
C349 C347 1.479 . S
C350 C345 1.245 . S
C350 C346 1.477 . S
C350 H367 0.932 . S
C351 U334 2.882 . S
C351 C345 1.428 . S
C351 O354 1.301 . S
C351 O355 1.282 . S
O352 U334 2.441 . S
O352 C338 1.249 . S
O353 U334 2.420 . S
O353 C338 1.202 . S
O354 U334 2.455 . S
O354 C351 1.301 . S
O355 U334 2.449 . S
O355 C351 1.282 . S
H356 C329 0.931 . S
H357 C331 0.929 . S
H358 C332 0.930 . S
H359 C333 0.931 . S
H360 C340 0.932 . S
H361 C341 0.930 . S
H362 C342 0.929 . S
H363 C344 0.930 . S
H364 C346 0.932 . S
H365 C347 0.929 . S
H366 C348 0.928 . S
H367 C350 0.932 . S
C368 C369 1.264 . S
C368 C373 1.479 . S
C368 C378 1.465 . S
C369 C368 1.264 . S
C369 C371 1.339 1_565 S
C369 H396 0.931 . S
C370 C371 1.395 . S
C370 C372 1.320 . S
C371 C369 1.339 1_545 S
C371 C370 1.395 . S
C371 H397 0.929 . S
C372 C370 1.320 . S
C372 C373 1.405 1_545 S
C372 H398 0.930 . S
C373 C368 1.479 . S
C373 C372 1.405 1_565 S
C373 H399 0.931 . S
U374 O375 2.454 . S
U374 O376 2.458 . S
U374 C377 2.984 . S
U374 C378 2.847 . S
U374 C391 2.882 . S
U374 O392 2.441 . S
U374 O393 2.420 . S
U374 O394 2.455 . S
U374 O395 2.449 . S
O375 U374 2.454 . S
O375 C377 1.353 . S
O376 U374 2.458 . S
O376 C377 1.286 . S
C377 U374 2.984 . S
C377 O375 1.353 . S
C377 O376 1.286 . S
C377 C379 1.363 . S
C378 C368 1.465 . S
C378 U374 2.847 . S
C378 O392 1.249 . S
C378 O393 1.202 . S
C379 C377 1.363 . S
C379 C381 1.408 . S
C379 C384 1.342 . S
C380 C381 1.310 . S
C380 C383 1.461 . S
C380 H400 0.932 . S
C381 C379 1.408 . S
C381 C380 1.310 . S
C381 H401 0.930 . S
C382 C383 1.474 . S
C382 C384 1.285 . S
C382 H402 0.929 . S
C383 C380 1.461 . S
C383 C382 1.474 . S
C384 C379 1.342 . S
C384 C382 1.285 . S
C384 H403 0.930 . S
C385 C388 1.424 . S
C385 C390 1.245 . S
C385 C391 1.428 1_455 S
C386 C389 1.260 . S
C386 C390 1.477 . S
C386 H404 0.932 . S
C387 C388 1.384 . S
C387 C389 1.479 . S
C387 H405 0.929 . S
C388 C385 1.424 . S
C388 C387 1.384 . S
C388 H406 0.928 . S
C389 C386 1.260 . S
C389 C387 1.479 . S
C390 C385 1.245 . S
C390 C386 1.477 . S
C390 H407 0.932 . S
C391 U374 2.882 . S
C391 C385 1.428 1_655 S
C391 O394 1.301 . S
C391 O395 1.282 . S
O392 U374 2.441 . S
O392 C378 1.249 . S
O393 U374 2.420 . S
O393 C378 1.202 . S
O394 U374 2.455 . S
O394 C391 1.301 . S
O395 U374 2.449 . S
O395 C391 1.282 . S
H396 C369 0.931 . S
H397 C371 0.929 . S
H398 C372 0.930 . S
H399 C373 0.931 . S
H400 C380 0.932 . S
H401 C381 0.930 . S
H402 C382 0.929 . S
H403 C384 0.930 . S
H404 C386 0.932 . S
H405 C387 0.929 . S
H406 C388 0.928 . S
H407 C390 0.932 . S
C408 C409 1.387 . S
C408 H412 0.950 . S
C408 C417 1.390 . S
C409 C408 1.387 . S
C409 C411 1.387 . S
H410 C417 0.950 . S
C411 C409 1.387 . S
C411 C413 1.390 . S
C411 H415 0.950 . S
H412 C408 0.950 . S
C413 C411 1.390 . S
C413 C414 1.387 . S
C413 H416 0.950 . S
C414 C413 1.387 . S
C414 C417 1.387 . S
H415 C411 0.950 . S
H416 C413 0.950 . S
C417 C408 1.390 . S
C417 H410 0.950 . S
C417 C414 1.387 . S
C418 C419 1.387 . S
C418 H422 0.950 . S
C418 C427 1.390 . S
C419 C418 1.387 . S
C419 C421 1.387 . S
H420 C427 0.950 . S
C421 C419 1.387 . S
C421 C423 1.390 . S
C421 H425 0.950 . S
H422 C418 0.950 . S
C423 C421 1.390 . S
C423 C424 1.387 . S
C423 H426 0.950 . S
C424 C423 1.387 . S
C424 C427 1.387 . S
H425 C421 0.950 . S
H426 C423 0.950 . S
C427 C418 1.390 . S
C427 H420 0.950 . S
C427 C424 1.387 . S
C428 C429 1.387 . S
C428 H432 0.950 . S
C428 C437 1.390 . S
C429 C428 1.387 . S
C429 C431 1.387 . S
H430 C437 0.950 . S
C431 C429 1.387 . S
C431 C433 1.390 . S
C431 H435 0.950 . S
H432 C428 0.950 . S
C433 C431 1.390 . S
C433 C434 1.387 . S
C433 H436 0.950 . S
C434 C433 1.387 . S
C434 C437 1.387 . S
H435 C431 0.950 . S
H436 C433 0.950 . S
C437 C428 1.390 . S
C437 H430 0.950 . S
C437 C434 1.387 . S
C438 C439 1.387 . S
C438 H442 0.950 . S
C438 C447 1.390 . S
C439 C438 1.387 . S
C439 C441 1.387 . S
H440 C447 0.950 . S
C441 C439 1.387 . S
C441 C443 1.390 . S
C441 H445 0.950 . S
H442 C438 0.950 . S
C443 C441 1.390 . S
C443 C444 1.387 . S
C443 H446 0.950 . S
C444 C443 1.387 . S
C444 C447 1.387 . S
H445 C441 0.950 . S
H446 C443 0.950 . S
C447 C438 1.390 . S
C447 H440 0.950 . S
C447 C444 1.387 . S
C448 C449 1.387 . S
C448 H452 0.950 . S
C448 C457 1.390 . S
C449 C448 1.387 . S
C449 C451 1.387 . S
H450 C457 0.950 . S
C451 C449 1.387 . S
C451 C453 1.390 . S
C451 H455 0.950 . S
H452 C448 0.950 . S
C453 C451 1.390 . S
C453 C454 1.387 . S
C453 H456 0.950 . S
C454 C453 1.387 . S
C454 C457 1.387 . S
H455 C451 0.950 . S
H456 C453 0.950 . S
C457 C448 1.390 . S
C457 H450 0.950 . S
C457 C454 1.387 . S
C458 C459 1.387 . S
C458 H462 0.950 . S
C458 C467 1.390 1_655 S
C459 C458 1.387 . S
C459 C461 1.387 1_556 S
H460 C467 0.950 . S
C461 C459 1.387 1_554 S
C461 C463 1.387 1_654 S
C461 H465 0.950 . S
H462 C458 0.950 . S
C463 C461 1.387 1_456 S
C463 C464 1.414 . S
C463 H466 0.926 1_556 S
C464 C463 1.414 . S
C464 C467 1.387 . S
H465 C461 0.950 . S
H466 C463 0.926 1_554 S
C467 C458 1.390 1_455 S
C467 H460 0.950 . S
C467 C464 1.387 . S
C468 C469 1.387 . S
C468 H472 0.950 . S
C468 C477 1.390 . S
C469 C468 1.387 . S
C469 C471 1.387 . S
H470 C477 0.950 . S
C471 C469 1.387 . S
C471 C473 1.390 . S
C471 H475 0.950 . S
H472 C468 0.950 . S
C473 C471 1.390 . S
C473 C474 1.387 . S
C473 H476 0.950 . S
C474 C473 1.387 . S
C474 C477 1.387 . S
H475 C471 0.950 . S
H476 C473 0.950 . S
C477 C468 1.390 . S
C477 H470 0.950 . S
C477 C474 1.387 . S
C478 C479 1.387 . S
C478 H482 0.950 . S
C478 C487 1.390 . S
C479 C478 1.387 . S
C479 C481 1.387 . S
H480 C487 0.950 . S
C481 C479 1.387 . S
C481 C483 1.390 . S
C481 H485 0.950 . S
H482 C478 0.950 . S
C483 C481 1.390 . S
C483 C484 1.387 . S
C483 H486 0.950 . S
C484 C483 1.387 . S
C484 C487 1.387 . S
H485 C481 0.950 . S
H486 C483 0.950 . S
C487 C478 1.390 . S
C487 H480 0.950 . S
C487 C484 1.387 . S
C488 C489 1.387 . S
C488 H492 0.950 . S
C488 C497 1.390 . S
C489 C488 1.387 . S
C489 C491 1.387 . S
H490 C497 0.950 . S
C491 C489 1.387 . S
C491 C493 1.390 . S
C491 H495 0.950 . S
H492 C488 0.950 . S
C493 C491 1.390 . S
C493 C494 1.387 . S
C493 H496 0.950 . S
C494 C493 1.387 . S
C494 C497 1.387 . S
H495 C491 0.950 . S
H496 C493 0.950 . S
C497 C488 1.390 . S
C497 H490 0.950 . S
C497 C494 1.387 . S
C498 C499 1.387 . S
C498 H502 0.950 . S
C498 C507 1.390 . S
C499 C498 1.387 . S
C499 C501 1.387 . S
H500 C507 0.950 . S
C501 C499 1.387 . S
C501 C503 1.390 . S
C501 H505 0.950 . S
H502 C498 0.950 . S
C503 C501 1.390 . S
C503 C504 1.387 . S
C503 H506 0.950 . S
C504 C503 1.387 . S
C504 C507 1.387 . S
H505 C501 0.950 . S
H506 C503 0.950 . S
C507 C498 1.390 . S
C507 H500 0.950 . S
C507 C504 1.387 . S
C508 C509 1.387 . S
C508 H512 0.950 . S
C508 C517 1.390 . S
C509 C508 1.387 . S
C509 C511 1.387 1_556 S
H510 C517 0.950 . S
C511 C509 1.387 1_554 S
C511 C513 1.390 . S
C511 H515 0.950 . S
H512 C508 0.950 . S
C513 C511 1.390 . S
C513 C514 1.387 1_554 S
C513 H516 0.950 1_565 S
C514 C513 1.387 1_556 S
C514 C517 1.387 . S
H515 C511 0.950 . S
H516 C513 0.950 1_545 S
C517 C508 1.390 . S
C517 H510 0.950 . S
C517 C514 1.387 . S
C518 C519 1.387 . S
C518 H522 0.950 . S
C518 C527 1.390 . S
C519 C518 1.387 . S
C519 C521 1.387 . S
H520 C527 0.950 . S
C521 C519 1.387 . S
C521 C523 1.390 . S
C521 H525 0.950 . S
H522 C518 0.950 . S
C523 C521 1.390 . S
C523 C524 1.387 . S
C523 H526 0.950 . S
C524 C523 1.387 . S
C524 C527 1.387 . S
H525 C521 0.950 . S
H526 C523 0.950 . S
C527 C518 1.390 . S
C527 H520 0.950 . S
C527 C524 1.387 . S
C528 C529 1.387 . S
C528 H532 0.950 . S
C528 C537 1.390 . S
C529 C528 1.387 . S
C529 C531 1.387 . S
H530 C537 0.950 . S
C531 C529 1.387 . S
C531 C533 1.390 . S
C531 H535 0.950 . S
H532 C528 0.950 . S
C533 C531 1.390 . S
C533 C534 1.387 . S
C533 H536 0.950 . S
C534 C533 1.387 . S
C534 C537 1.387 . S
H535 C531 0.950 . S
H536 C533 0.950 . S
C537 C528 1.390 . S
C537 H530 0.950 . S
C537 C534 1.387 . S
C538 C539 1.387 . S
C538 H542 0.950 . S
C538 C547 1.390 1_455 S
C539 C538 1.387 . S
C539 C541 1.387 . S
H540 C547 0.950 . S
C541 C539 1.387 . S
C541 C543 1.390 1_455 S
C541 H545 0.950 . S
H542 C538 0.950 . S
C543 C541 1.390 1_655 S
C543 C544 1.387 . S
C543 H546 0.950 . S
C544 C543 1.387 . S
C544 C547 1.387 . S
H545 C541 0.950 . S
H546 C543 0.950 . S
C547 C538 1.390 1_655 S
C547 H540 0.950 . S
C547 C544 1.387 . S
C548 C549 1.387 . S
C548 H552 0.950 . S
C548 C557 1.390 . S
C549 C548 1.387 . S
C549 C551 1.387 . S
H550 C557 0.950 . S
C551 C549 1.387 . S
C551 C553 1.390 . S
C551 H555 0.950 . S
H552 C548 0.950 . S
C553 C551 1.390 . S
C553 C554 1.387 . S
C553 H556 0.950 . S
C554 C553 1.387 . S
C554 C557 1.387 . S
H555 C551 0.950 . S
H556 C553 0.950 . S
C557 C548 1.390 . S
C557 H550 0.950 . S
C557 C554 1.387 . S
C558 C559 1.387 . S
C558 H562 0.950 . S
C558 C567 1.390 . S
C559 C558 1.387 . S
C559 C561 1.387 . S
H560 C567 0.950 . S
C561 C559 1.387 . S
C561 C563 1.390 . S
C561 H565 0.950 . S
H562 C558 0.950 . S
C563 C561 1.390 . S
C563 C564 1.387 . S
C563 H566 0.950 . S
C564 C563 1.387 . S
C564 C567 1.387 . S
H565 C561 0.950 . S
H566 C563 0.950 . S
C567 C558 1.390 . S
C567 H560 0.950 . S
C567 C564 1.387 . S
C568 C569 1.387 . S
C568 H572 0.950 . S
C568 C577 1.390 . S
C569 C568 1.387 . S
C569 C571 1.387 . S
H570 C577 0.950 . S
C571 C569 1.387 . S
C571 C573 1.390 . S
C571 H575 0.950 . S
H572 C568 0.950 . S
C573 C571 1.390 . S
C573 C574 1.387 . S
C573 H576 0.950 . S
C574 C573 1.387 . S
C574 C577 1.387 . S
H575 C571 0.950 . S
H576 C573 0.950 . S
C577 C568 1.390 . S
C577 H570 0.950 . S
C577 C574 1.387 . S
C578 C579 1.387 . S
C578 H582 0.950 . S
C578 C587 1.390 . S
C579 C578 1.387 . S
C579 C581 1.387 . S
H580 C587 0.950 . S
C581 C579 1.387 . S
C581 C583 1.390 . S
C581 H585 0.950 . S
H582 C578 0.950 . S
C583 C581 1.390 . S
C583 C584 1.387 . S
C583 H586 0.950 . S
C584 C583 1.387 . S
C584 C587 1.387 . S
H585 C581 0.950 . S
H586 C583 0.950 . S
C587 C578 1.390 . S
C587 H580 0.950 . S
C587 C584 1.387 . S
C588 C589 1.387 . S
C588 H592 0.950 . S
C588 C597 1.390 . S
C589 C588 1.387 . S
C589 C591 1.387 . S
H590 C597 0.950 . S
C591 C589 1.387 . S
C591 C593 1.390 . S
C591 H595 0.950 . S
H592 C588 0.950 . S
C593 C591 1.390 . S
C593 C594 1.387 . S
C593 H596 0.950 . S
C594 C593 1.387 . S
C594 C597 1.387 . S
H595 C591 0.950 . S
H596 C593 0.950 . S
C597 C588 1.390 . S
C597 H590 0.950 . S
C597 C594 1.387 . S
C598 C599 1.387 . S
C598 H602 0.950 . S
C598 C607 1.390 . S
C599 C598 1.387 . S
C599 C601 1.387 . S
H600 C607 0.950 . S
C601 C599 1.387 . S
C601 C603 1.390 . S
C601 H605 0.950 . S
H602 C598 0.950 . S
C603 C601 1.390 . S
C603 C604 1.387 . S
C603 H606 0.950 . S
C604 C603 1.387 . S
C604 C607 1.387 . S
H605 C601 0.950 . S
H606 C603 0.950 . S
C607 C598 1.390 . S
C607 H600 0.950 . S
C607 C604 1.387 . S
C608 C609 1.387 . S
C608 H612 0.950 . S
C608 C617 1.390 . S
C609 C608 1.387 . S
C609 C611 1.387 . S
H610 C617 0.950 . S
C611 C609 1.387 . S
C611 C613 1.390 . S
C611 H615 0.950 . S
H612 C608 0.950 . S
C613 C611 1.390 . S
C613 C614 1.387 . S
C613 H616 0.950 . S
C614 C613 1.387 . S
C614 C617 1.387 . S
H615 C611 0.950 . S
H616 C613 0.950 . S
C617 C608 1.390 . S
C617 H610 0.950 . S
C617 C614 1.387 . S
C618 C619 1.387 . S
C618 H622 0.950 . S
C618 C627 1.390 . S
C619 C618 1.387 . S
C619 C621 1.387 . S
H620 C627 0.950 . S
C621 C619 1.387 . S
C621 C623 1.390 . S
C621 H625 0.950 . S
H622 C618 0.950 . S
C623 C621 1.390 . S
C623 C624 1.387 . S
C623 H626 0.950 . S
C624 C623 1.387 . S
C624 C627 1.387 . S
H625 C621 0.950 . S
H626 C623 0.950 . S
C627 C618 1.390 . S
C627 H620 0.950 . S
C627 C624 1.387 . S
C628 C629 1.387 . S
C628 H632 0.950 . S
C628 C637 1.390 . S
C629 C628 1.387 . S
C629 C631 1.387 . S
H630 C637 0.950 . S
C631 C629 1.387 . S
C631 C633 1.390 . S
C631 H635 0.950 . S
H632 C628 0.950 . S
C633 C631 1.390 . S
C633 C634 1.387 . S
C633 H636 0.950 . S
C634 C633 1.387 . S
C634 C637 1.387 . S
H635 C631 0.950 . S
H636 C633 0.950 . S
C637 C628 1.390 . S
C637 H630 0.950 . S
C637 C634 1.387 . S
C638 C639 1.387 . S
C638 H642 0.950 . S
C638 C647 1.390 . S
C639 C638 1.387 . S
C639 C641 1.387 1_556 S
H640 C647 0.950 . S
C641 C639 1.387 1_554 S
C641 C643 1.390 . S
C641 H645 0.950 . S
H642 C638 0.950 . S
C643 C641 1.390 . S
C643 C644 1.387 1_554 S
C643 H646 0.950 . S
C644 C643 1.387 1_556 S
C644 C647 1.387 . S
H645 C641 0.950 . S
H646 C643 0.950 . S
C647 C638 1.390 . S
C647 H640 0.950 . S
C647 C644 1.387 . S
C409 C8 1.941 . S
C414 C109 1.662 . S
C419 C31 2.008 . S
C424 C149 1.642 . S
C429 C53 2.175 . S
C434 C170 1.928 1_545 S
C444 C229 1.623 . S
C439 C74 1.624 . S
C454 C269 1.648 . S
C449 C26 1.917 . S
C459 C48 1.626 . S
C464 C290 1.532 . S
C469 C71 2.218 . S
C474 C330 1.968 . S
C479 C5 2.012 . S
C484 C389 1.649 . S
C489 C50 1.888 . S
C494 C370 1.656 . S
C504 C250 1.641 . S
C499 C70 1.937 . S
C514 C309 1.898 1_565 S
C509 C4 2.228 1_556 S
C519 C28 1.625 . S
C524 C349 1.503 . S
C534 C130 1.644 . S
C529 C73 1.865 . S
C539 C7 1.694 . S
C544 C189 1.556 . S
C554 C210 2.063 . S
C549 C30 2.194 . S
C564 C90 1.656 . S
C559 C52 1.954 . S
C574 C343 1.697 . S
C569 C9 1.840 . S
C584 C383 1.549 . S
C579 C29 1.588 . S
C589 C51 1.531 . S
C594 C263 1.499 . S
C604 C303 1.719 . S
C599 C75 1.878 . S
C614 C183 1.706 . S
C609 C27 1.850 . S
C619 C49 1.827 . S
C624 C223 1.696 . S
C634 C103 1.524 . S
C629 C72 1.557 . S
C644 C143 1.542 . S
C639 C6 1.580 1_556 S
