# Generated by pormake.
# Topology gar, (4,6)-cn, num edge types: 1
# Building blocks:
#     Node 0, Type 0, BuildingBlock: QUQFOY_clean_sbu_1, # of connection points: 4
#     Node 1, Type 0, BuildingBlock: QUQFOY_clean_sbu_1, # of connection points: 4
#     Node 2, Type 0, BuildingBlock: QUQFOY_clean_sbu_1, # of connection points: 4
#     Node 3, Type 0, BuildingBlock: QUQFOY_clean_sbu_1, # of connection points: 4
#     Node 4, Type 0, BuildingBlock: QUQFOY_clean_sbu_1, # of connection points: 4
#     Node 5, Type 0, BuildingBlock: QUQFOY_clean_sbu_1, # of connection points: 4
#     Node 6, Type 0, BuildingBlock: QUQFOY_clean_sbu_1, # of connection points: 4
#     Node 7, Type 0, BuildingBlock: QUQFOY_clean_sbu_1, # of connection points: 4
#     Node 8, Type 0, BuildingBlock: QUQFOY_clean_sbu_1, # of connection points: 4
#     Node 9, Type 0, BuildingBlock: QUQFOY_clean_sbu_1, # of connection points: 4
#     Node 10, Type 0, BuildingBlock: QUQFOY_clean_sbu_1, # of connection points: 4
#     Node 11, Type 0, BuildingBlock: QUQFOY_clean_sbu_1, # of connection points: 4
#     Node 12, Type 0, BuildingBlock: QUQFOY_clean_sbu_1, # of connection points: 4
#     Node 13, Type 0, BuildingBlock: QUQFOY_clean_sbu_1, # of connection points: 4
#     Node 14, Type 0, BuildingBlock: QUQFOY_clean_sbu_1, # of connection points: 4
#     Node 15, Type 0, BuildingBlock: QUQFOY_clean_sbu_1, # of connection points: 4
#     Node 16, Type 0, BuildingBlock: QUQFOY_clean_sbu_1, # of connection points: 4
#     Node 17, Type 0, BuildingBlock: QUQFOY_clean_sbu_1, # of connection points: 4
#     Node 18, Type 0, BuildingBlock: QUQFOY_clean_sbu_1, # of connection points: 4
#     Node 19, Type 0, BuildingBlock: QUQFOY_clean_sbu_1, # of connection points: 4
#     Node 20, Type 0, BuildingBlock: QUQFOY_clean_sbu_1, # of connection points: 4
#     Node 21, Type 0, BuildingBlock: QUQFOY_clean_sbu_1, # of connection points: 4
#     Node 22, Type 0, BuildingBlock: QUQFOY_clean_sbu_1, # of connection points: 4
#     Node 23, Type 0, BuildingBlock: QUQFOY_clean_sbu_1, # of connection points: 4
#     Node 24, Type 1, BuildingBlock: KUMBUR_clean_sbu_1, # of connection points: 6
#     Node 25, Type 1, BuildingBlock: KUMBUR_clean_sbu_1, # of connection points: 6
#     Node 26, Type 1, BuildingBlock: KUMBUR_clean_sbu_1, # of connection points: 6
#     Node 27, Type 1, BuildingBlock: KUMBUR_clean_sbu_1, # of connection points: 6
#     Node 28, Type 1, BuildingBlock: KUMBUR_clean_sbu_1, # of connection points: 6
#     Node 29, Type 1, BuildingBlock: KUMBUR_clean_sbu_1, # of connection points: 6
#     Node 30, Type 1, BuildingBlock: KUMBUR_clean_sbu_1, # of connection points: 6
#     Node 31, Type 1, BuildingBlock: KUMBUR_clean_sbu_1, # of connection points: 6
#     Node 32, Type 1, BuildingBlock: KUMBUR_clean_sbu_1, # of connection points: 6
#     Node 33, Type 1, BuildingBlock: KUMBUR_clean_sbu_1, # of connection points: 6
#     Node 34, Type 1, BuildingBlock: KUMBUR_clean_sbu_1, # of connection points: 6
#     Node 35, Type 1, BuildingBlock: KUMBUR_clean_sbu_1, # of connection points: 6
#     Node 36, Type 1, BuildingBlock: KUMBUR_clean_sbu_1, # of connection points: 6
#     Node 37, Type 1, BuildingBlock: KUMBUR_clean_sbu_1, # of connection points: 6
#     Node 38, Type 1, BuildingBlock: KUMBUR_clean_sbu_1, # of connection points: 6
#     Node 39, Type 1, BuildingBlock: KUMBUR_clean_sbu_1, # of connection points: 6
#     Edge 40, Type (0, 1), BuildingBlock: TEMPAE_clean_linker_10, # of connection points: 2
#     Edge 41, Type (0, 1), BuildingBlock: TEMPAE_clean_linker_10, # of connection points: 2
#     Edge 42, Type (0, 1), BuildingBlock: TEMPAE_clean_linker_10, # of connection points: 2
#     Edge 43, Type (0, 1), BuildingBlock: TEMPAE_clean_linker_10, # of connection points: 2
#     Edge 44, Type (0, 1), BuildingBlock: TEMPAE_clean_linker_10, # of connection points: 2
#     Edge 45, Type (0, 1), BuildingBlock: TEMPAE_clean_linker_10, # of connection points: 2
#     Edge 46, Type (0, 1), BuildingBlock: TEMPAE_clean_linker_10, # of connection points: 2
#     Edge 47, Type (0, 1), BuildingBlock: TEMPAE_clean_linker_10, # of connection points: 2
#     Edge 48, Type (0, 1), BuildingBlock: TEMPAE_clean_linker_10, # of connection points: 2
#     Edge 49, Type (0, 1), BuildingBlock: TEMPAE_clean_linker_10, # of connection points: 2
#     Edge 50, Type (0, 1), BuildingBlock: TEMPAE_clean_linker_10, # of connection points: 2
#     Edge 51, Type (0, 1), BuildingBlock: TEMPAE_clean_linker_10, # of connection points: 2
#     Edge 52, Type (0, 1), BuildingBlock: TEMPAE_clean_linker_10, # of connection points: 2
#     Edge 53, Type (0, 1), BuildingBlock: TEMPAE_clean_linker_10, # of connection points: 2
#     Edge 54, Type (0, 1), BuildingBlock: TEMPAE_clean_linker_10, # of connection points: 2
#     Edge 55, Type (0, 1), BuildingBlock: TEMPAE_clean_linker_10, # of connection points: 2
#     Edge 56, Type (0, 1), BuildingBlock: TEMPAE_clean_linker_10, # of connection points: 2
#     Edge 57, Type (0, 1), BuildingBlock: TEMPAE_clean_linker_10, # of connection points: 2
#     Edge 58, Type (0, 1), BuildingBlock: TEMPAE_clean_linker_10, # of connection points: 2
#     Edge 59, Type (0, 1), BuildingBlock: TEMPAE_clean_linker_10, # of connection points: 2
#     Edge 60, Type (0, 1), BuildingBlock: TEMPAE_clean_linker_10, # of connection points: 2
#     Edge 61, Type (0, 1), BuildingBlock: TEMPAE_clean_linker_10, # of connection points: 2
#     Edge 62, Type (0, 1), BuildingBlock: TEMPAE_clean_linker_10, # of connection points: 2
#     Edge 63, Type (0, 1), BuildingBlock: TEMPAE_clean_linker_10, # of connection points: 2
#     Edge 64, Type (0, 1), BuildingBlock: TEMPAE_clean_linker_10, # of connection points: 2
#     Edge 65, Type (0, 1), BuildingBlock: TEMPAE_clean_linker_10, # of connection points: 2
#     Edge 66, Type (0, 1), BuildingBlock: TEMPAE_clean_linker_10, # of connection points: 2
#     Edge 67, Type (0, 1), BuildingBlock: TEMPAE_clean_linker_10, # of connection points: 2
#     Edge 68, Type (0, 1), BuildingBlock: TEMPAE_clean_linker_10, # of connection points: 2
#     Edge 69, Type (0, 1), BuildingBlock: TEMPAE_clean_linker_10, # of connection points: 2
#     Edge 70, Type (0, 1), BuildingBlock: TEMPAE_clean_linker_10, # of connection points: 2
#     Edge 71, Type (0, 1), BuildingBlock: TEMPAE_clean_linker_10, # of connection points: 2
#     Edge 72, Type (0, 1), BuildingBlock: TEMPAE_clean_linker_10, # of connection points: 2
#     Edge 73, Type (0, 1), BuildingBlock: TEMPAE_clean_linker_10, # of connection points: 2
#     Edge 74, Type (0, 1), BuildingBlock: TEMPAE_clean_linker_10, # of connection points: 2
#     Edge 75, Type (0, 1), BuildingBlock: TEMPAE_clean_linker_10, # of connection points: 2
#     Edge 76, Type (0, 1), BuildingBlock: TEMPAE_clean_linker_10, # of connection points: 2
#     Edge 77, Type (0, 1), BuildingBlock: TEMPAE_clean_linker_10, # of connection points: 2
#     Edge 78, Type (0, 1), BuildingBlock: TEMPAE_clean_linker_10, # of connection points: 2
#     Edge 79, Type (0, 1), BuildingBlock: TEMPAE_clean_linker_10, # of connection points: 2
#     Edge 80, Type (0, 1), BuildingBlock: TEMPAE_clean_linker_10, # of connection points: 2
#     Edge 81, Type (0, 1), BuildingBlock: TEMPAE_clean_linker_10, # of connection points: 2
#     Edge 82, Type (0, 1), BuildingBlock: TEMPAE_clean_linker_10, # of connection points: 2
#     Edge 83, Type (0, 1), BuildingBlock: TEMPAE_clean_linker_10, # of connection points: 2
#     Edge 84, Type (0, 1), BuildingBlock: TEMPAE_clean_linker_10, # of connection points: 2
#     Edge 85, Type (0, 1), BuildingBlock: TEMPAE_clean_linker_10, # of connection points: 2
#     Edge 86, Type (0, 1), BuildingBlock: TEMPAE_clean_linker_10, # of connection points: 2
#     Edge 87, Type (0, 1), BuildingBlock: TEMPAE_clean_linker_10, # of connection points: 2
#     Edge 88, Type (0, 1), BuildingBlock: TEMPAE_clean_linker_10, # of connection points: 2
#     Edge 89, Type (0, 1), BuildingBlock: TEMPAE_clean_linker_10, # of connection points: 2
#     Edge 90, Type (0, 1), BuildingBlock: TEMPAE_clean_linker_10, # of connection points: 2
#     Edge 91, Type (0, 1), BuildingBlock: TEMPAE_clean_linker_10, # of connection points: 2
#     Edge 92, Type (0, 1), BuildingBlock: TEMPAE_clean_linker_10, # of connection points: 2
#     Edge 93, Type (0, 1), BuildingBlock: TEMPAE_clean_linker_10, # of connection points: 2
#     Edge 94, Type (0, 1), BuildingBlock: TEMPAE_clean_linker_10, # of connection points: 2
#     Edge 95, Type (0, 1), BuildingBlock: TEMPAE_clean_linker_10, # of connection points: 2
#     Edge 96, Type (0, 1), BuildingBlock: TEMPAE_clean_linker_10, # of connection points: 2
#     Edge 97, Type (0, 1), BuildingBlock: TEMPAE_clean_linker_10, # of connection points: 2
#     Edge 98, Type (0, 1), BuildingBlock: TEMPAE_clean_linker_10, # of connection points: 2
#     Edge 99, Type (0, 1), BuildingBlock: TEMPAE_clean_linker_10, # of connection points: 2
#     Edge 100, Type (0, 1), BuildingBlock: TEMPAE_clean_linker_10, # of connection points: 2
#     Edge 101, Type (0, 1), BuildingBlock: TEMPAE_clean_linker_10, # of connection points: 2
#     Edge 102, Type (0, 1), BuildingBlock: TEMPAE_clean_linker_10, # of connection points: 2
#     Edge 103, Type (0, 1), BuildingBlock: TEMPAE_clean_linker_10, # of connection points: 2
#     Edge 104, Type (0, 1), BuildingBlock: TEMPAE_clean_linker_10, # of connection points: 2
#     Edge 105, Type (0, 1), BuildingBlock: TEMPAE_clean_linker_10, # of connection points: 2
#     Edge 106, Type (0, 1), BuildingBlock: TEMPAE_clean_linker_10, # of connection points: 2
#     Edge 107, Type (0, 1), BuildingBlock: TEMPAE_clean_linker_10, # of connection points: 2
#     Edge 108, Type (0, 1), BuildingBlock: TEMPAE_clean_linker_10, # of connection points: 2
#     Edge 109, Type (0, 1), BuildingBlock: TEMPAE_clean_linker_10, # of connection points: 2
#     Edge 110, Type (0, 1), BuildingBlock: TEMPAE_clean_linker_10, # of connection points: 2
#     Edge 111, Type (0, 1), BuildingBlock: TEMPAE_clean_linker_10, # of connection points: 2
#     Edge 112, Type (0, 1), BuildingBlock: TEMPAE_clean_linker_10, # of connection points: 2
#     Edge 113, Type (0, 1), BuildingBlock: TEMPAE_clean_linker_10, # of connection points: 2
#     Edge 114, Type (0, 1), BuildingBlock: TEMPAE_clean_linker_10, # of connection points: 2
#     Edge 115, Type (0, 1), BuildingBlock: TEMPAE_clean_linker_10, # of connection points: 2
#     Edge 116, Type (0, 1), BuildingBlock: TEMPAE_clean_linker_10, # of connection points: 2
#     Edge 117, Type (0, 1), BuildingBlock: TEMPAE_clean_linker_10, # of connection points: 2
#     Edge 118, Type (0, 1), BuildingBlock: TEMPAE_clean_linker_10, # of connection points: 2
#     Edge 119, Type (0, 1), BuildingBlock: TEMPAE_clean_linker_10, # of connection points: 2
#     Edge 120, Type (0, 1), BuildingBlock: TEMPAE_clean_linker_10, # of connection points: 2
#     Edge 121, Type (0, 1), BuildingBlock: TEMPAE_clean_linker_10, # of connection points: 2
#     Edge 122, Type (0, 1), BuildingBlock: TEMPAE_clean_linker_10, # of connection points: 2
#     Edge 123, Type (0, 1), BuildingBlock: TEMPAE_clean_linker_10, # of connection points: 2
#     Edge 124, Type (0, 1), BuildingBlock: TEMPAE_clean_linker_10, # of connection points: 2
#     Edge 125, Type (0, 1), BuildingBlock: TEMPAE_clean_linker_10, # of connection points: 2
#     Edge 126, Type (0, 1), BuildingBlock: TEMPAE_clean_linker_10, # of connection points: 2
#     Edge 127, Type (0, 1), BuildingBlock: TEMPAE_clean_linker_10, # of connection points: 2
#     Edge 128, Type (0, 1), BuildingBlock: TEMPAE_clean_linker_10, # of connection points: 2
#     Edge 129, Type (0, 1), BuildingBlock: TEMPAE_clean_linker_10, # of connection points: 2
#     Edge 130, Type (0, 1), BuildingBlock: TEMPAE_clean_linker_10, # of connection points: 2
#     Edge 131, Type (0, 1), BuildingBlock: TEMPAE_clean_linker_10, # of connection points: 2
#     Edge 132, Type (0, 1), BuildingBlock: TEMPAE_clean_linker_10, # of connection points: 2
#     Edge 133, Type (0, 1), BuildingBlock: TEMPAE_clean_linker_10, # of connection points: 2
#     Edge 134, Type (0, 1), BuildingBlock: TEMPAE_clean_linker_10, # of connection points: 2
#     Edge 135, Type (0, 1), BuildingBlock: TEMPAE_clean_linker_10, # of connection points: 2
# Relax obj value: 0.092
# Max RMSD: 0.189
# Mean RMSD: 0.142
data_MOF--net-gar--node1-QUQFOY_clean_sbu_1--node2-KUMBUR_clean_sbu_1--edge1-TEMPAE_clean_linker_10
_symmetry_space_group_name_H-M    P1
_symmetry_Int_Tables_number       1
_symmetry_cell_setting            triclinic
loop_
_symmetry_equiv_pos_as_xyz
'x, y, z'
_cell_length_a     61.774143
_cell_length_b     61.766142
_cell_length_c     57.823074
_cell_angle_alpha  96.558734
_cell_angle_beta   96.434489
_cell_angle_gamma 103.47985
loop_
_atom_site_label
_atom_site_type_symbol
_atom_site_fract_x
_atom_site_fract_y
_atom_site_fract_z
_atom_type_partial_charge
O0 O 0.05468 0.28097 0.37995 0.0
Cd1 Cd 0.056 0.29902 0.3514 0.0
Cd2 Cd 0.03827 0.32814 0.39673 0.0
O3 O 0.04748 0.30152 0.41114 0.0
O4 O 0.07379 0.28255 0.32884 0.0
O5 O 0.0893 0.31593 0.34808 0.0
C6 C 0.09187 0.29869 0.33469 0.0
C7 C 0.04128 0.36299 0.42217 0.0
C8 C 0.05206 0.28371 0.40161 0.0
C9 C 1.00622 0.30856 0.34817 0.0
O10 O 1.0111 0.31804 0.36959 0.0
O11 O 0.02144 0.30189 0.33733 0.0
O12 O 0.02627 0.34488 0.42317 0.0
O13 O 0.05487 0.36148 0.40698 0.0
O14 O 0.01379 0.7203 0.70095 0.0
Cd15 Cd 0.01755 0.75048 0.72522 0.0
Cd16 Cd 0.03743 0.76781 0.68784 0.0
O17 O 0.02297 0.73619 0.66984 0.0
O18 O 0.99256 0.74674 0.7483 0.0
O19 O 0.99105 0.76722 0.7204 0.0
C20 C 0.98146 0.7588 0.7373 0.0
C21 C 0.03453 0.79908 0.66932 0.0
C22 C 0.01652 0.71859 0.67919 0.0
C23 C 0.07148 0.76754 0.72914 0.0
O24 O 0.0679 0.76994 0.70766 0.0
O25 O 0.0544 0.76237 0.74053 0.0
O26 O 0.04599 0.78541 0.66203 0.0
O27 O 0.02429 0.79493 0.6872 0.0
O28 O 0.5974 0.82045 0.87785 0.0
Cd29 Cd 0.57236 0.81797 0.89963 0.0
Cd30 Cd 0.54728 0.83161 0.85786 0.0
O31 O 0.5773 0.82181 0.84406 0.0
O32 O 0.58333 0.80154 0.9249 0.0
O33 O 0.55196 0.78719 0.90023 0.0
C34 C 0.56612 0.78488 0.91743 0.0
C35 C 0.50655 0.82056 0.84067 0.0
C36 C 0.59595 0.81991 0.85562 0.0
C37 C 0.55841 0.86242 0.90728 0.0
O38 O 0.55323 0.86048 0.88486 0.0
O39 O 0.56492 0.84674 0.91642 0.0
O40 O 0.52145 0.83467 0.83219 0.0
O41 O 0.51465 0.81121 0.8574 0.0
O42 O 0.51706 0.21283 0.19731 0.0
Cd43 Cd 0.52188 0.24197 0.22377 0.0
Cd44 Cd 0.54342 0.26093 0.18736 0.0
O45 O 0.53274 0.22892 0.16892 0.0
O46 O 0.49461 0.23559 0.24386 0.0
O47 O 0.49841 0.26267 0.22269 0.0
C48 C 0.48634 0.25133 0.23628 0.0
C49 C 0.5404 0.29205 0.16854 0.0
C50 C 0.52297 0.21135 0.17671 0.0
C51 C 0.57599 0.26085 0.23062 0.0
O52 O 0.57266 0.26566 0.20997 0.0
O53 O 0.55859 0.25246 0.24054 0.0
O54 O 0.55379 0.27979 0.16304 0.0
O55 O 0.52795 0.28625 0.18441 0.0
O56 O 0.05594 0.76236 0.12209 0.0
Cd57 Cd 0.06009 0.79217 0.14376 0.0
Cd58 Cd 0.08185 0.8134 0.10933 0.0
O59 O 0.07257 0.77651 0.09333 0.0
O60 O 0.03921 0.78205 0.16649 0.0
O61 O 0.0359 0.80929 0.14567 0.0
C62 C 0.02846 0.79657 0.16072 0.0
C63 C 0.07267 0.84889 0.09631 0.0
C64 C 0.06306 0.75909 0.10258 0.0
C65 C 0.10998 0.81201 0.15707 0.0
O66 O 0.11004 0.81826 0.13662 0.0
O67 O 0.09145 0.8027 0.16354 0.0
O68 O 0.0873 0.83954 0.08767 0.0
O69 O 0.06228 0.83785 0.11127 0.0
O70 O 0.54899 0.77663 0.45311 0.0
Cd71 Cd 0.53078 0.77539 0.48164 0.0
Cd72 Cd 0.50225 0.7936 0.43708 0.0
O73 O 0.52945 0.78564 0.4224 0.0
O74 O 0.54747 0.75754 0.50372 0.0
O75 O 0.51332 0.74262 0.4861 0.0
C76 C 0.53077 0.7399 0.49892 0.0
C77 C 0.46673 0.78855 0.41236 0.0
C78 C 0.54687 0.78026 0.43174 0.0
C79 C 0.52113 0.82524 0.48578 0.0
O80 O 0.51156 0.82089 0.46441 0.0
O81 O 0.52816 0.80987 0.49596 0.0
O82 O 0.48372 0.805 0.41168 0.0
O83 O 0.46963 0.77461 0.42673 0.0
O84 O 0.57053 0.26223 0.629 0.0
Cd85 Cd 0.57302 0.29249 0.64894 0.0
Cd86 Cd 0.59329 0.3118 0.61404 0.0
O87 O 0.5822 0.27534 0.59747 0.0
O88 O 0.55374 0.28396 0.67351 0.0
O89 O 0.54613 0.30611 0.648 0.0
C90 C 0.54071 0.29564 0.66539 0.0
C91 C 0.58377 0.34729 0.60241 0.0
C92 C 0.57508 0.25832 0.60831 0.0
C93 C 0.62261 0.31188 0.66139 0.0
O94 O 0.62249 0.31595 0.64008 0.0
O95 O 0.60405 0.30484 0.6689 0.0
O96 O 0.59729 0.33753 0.59212 0.0
O97 O 0.5747 0.33668 0.61837 0.0
O98 O 1.01246 0.23364 0.95732 0.0
Cd99 Cd 0.01464 0.25795 0.93462 0.0
Cd100 Cd 1.00069 0.28513 0.97669 0.0
O101 O 1.00936 0.25447 0.99029 0.0
O102 O 0.03073 0.248 0.90837 0.0
O103 O 0.04593 0.27783 0.93508 0.0
C104 C 0.04773 0.26459 0.91681 0.0
C105 C 1.01052 0.32556 0.99556 0.0
C106 C 1.01208 0.23575 0.97947 0.0
C107 C 0.9705 0.27291 0.92639 0.0
O108 O 0.97305 0.27987 0.94855 0.0
O109 O 0.98555 0.26483 0.91773 0.0
O110 O 0.99456 0.3103 1.00116 0.0
O111 O 0.0223 0.31792 0.98094 0.0
O112 O 0.39297 0.02307 0.286 0.0
Cd113 Cd 0.38145 0.02767 0.31779 0.0
Cd114 Cd 0.41851 0.02553 0.32983 0.0
O115 O 0.42601 0.04303 0.30297 0.0
O116 O 0.3856 0.05898 0.3323 0.0
O117 O 0.35441 0.03737 0.3102 0.0
C118 C 0.3655 0.05672 0.32155 0.0
C119 C 0.43775 0.03606 0.36613 0.0
C120 C 0.41238 0.0348 0.28437 0.0
C121 C 0.38278 0.98667 0.32969 0.0
O122 O 0.40141 0.99234 0.32207 0.0
O123 O 0.37269 1.00154 0.33545 0.0
O124 O 0.44632 0.02686 0.3494 0.0
O125 O 0.41819 0.04014 0.36182 0.0
O126 O 0.28655 0.19024 0.56822 0.0
Cd127 Cd 0.28544 0.16813 0.5385 0.0
Cd128 Cd 0.26819 0.20018 0.51841 0.0
O129 O 0.27807 0.21899 0.55311 0.0
O130 O 0.30385 0.14891 0.55192 0.0
O131 O 0.31251 0.16702 0.52205 0.0
C132 C 0.31737 0.15423 0.53695 0.0
C133 C 0.27609 0.21297 0.48166 0.0
C134 C 0.2835 0.20993 0.57108 0.0
C135 C 0.2372 0.15342 0.52001 0.0
O136 O 0.23936 0.17369 0.51613 0.0
O137 O 0.25437 0.14674 0.5272 0.0
O138 O 0.26051 0.21827 0.49255 0.0
O139 O 0.28816 0.20141 0.49205 0.0
O140 O 0.13656 0.0472 0.7621 0.0
Cd141 Cd 0.15775 0.04727 0.79235 0.0
Cd142 Cd 0.12556 0.06642 0.81095 0.0
O143 O 0.10792 0.0573 0.77595 0.0
O144 O 0.17771 0.02945 0.77921 0.0
O145 O 0.15801 0.01946 0.80765 0.0
C146 C 0.17184 0.01547 0.79355 0.0
C147 C 0.11154 0.05897 0.84721 0.0
C148 C 0.11737 0.05139 0.75844 0.0
C149 C 0.17323 0.0954 0.81096 0.0
O150 O 0.15273 0.09432 0.81318 0.0
O151 O 0.17965 0.07774 0.80517 0.0
O152 O 0.10705 0.07479 0.8362 0.0
O153 O 0.12306 0.04653 0.83728 0.0
O154 O 0.29903 0.93845 0.04412 0.0
Cd155 Cd 0.2979 0.95438 0.01489 0.0
Cd156 Cd 0.3001 0.91843 0.99906 0.0
O157 O 0.28124 0.90616 0.02331 0.0
O158 O 0.28676 0.98015 0.024 0.0
O159 O 0.26835 0.95129 0.99649 0.0
C160 C 0.26907 0.9702 0.00914 0.0
C161 C 0.29625 0.90069 0.96192 0.0
C162 C 0.28836 0.91809 0.04318 0.0
C163 C 0.34055 0.95499 0.00838 0.0
O164 O 0.3329 0.93476 0.01123 0.0
O165 O 0.32703 0.96678 0.00339 0.0
O166 O 0.30399 0.89244 0.97963 0.0
O167 O 0.28877 0.91849 0.96554 0.0
O168 O 0.30779 0.39053 0.09783 0.0
Cd169 Cd 0.30854 0.41285 0.07391 0.0
Cd170 Cd 0.32068 0.37563 0.04468 0.0
O171 O 0.31098 0.36045 0.07466 0.0
O172 O 0.29369 0.43629 0.08671 0.0
O173 O 0.27914 0.41198 0.05438 0.0
C174 C 0.27756 0.42843 0.06951 0.0
C175 C 0.31314 0.35586 0.00532 0.0
C176 C 0.30778 0.36983 0.09453 0.0
C177 C 0.3541 0.42281 0.05799 0.0
O178 O 0.34969 0.40213 0.04911 0.0
O179 O 0.33956 0.43063 0.06778 0.0
O180 O 0.32842 0.35283 0.02084 0.0
O181 O 0.30092 0.36895 0.0124 0.0
O182 O 0.76786 0.13376 0.10996 0.0
Cd183 Cd 0.77039 0.11431 0.08053 0.0
Cd184 Cd 0.77087 0.14927 0.06109 0.0
O185 O 0.78545 0.16301 0.09488 0.0
O186 O 0.78864 0.09337 0.08747 0.0
O187 O 0.79908 0.12341 0.06904 0.0
C188 C 0.80354 0.1064 0.0779 0.0
C189 C 0.78226 0.16533 0.02923 0.0
C190 C 0.77893 0.15406 0.11241 0.0
C191 C 0.72971 0.11192 0.05236 0.0
O192 O 0.73733 0.13309 0.05488 0.0
O193 O 0.74219 0.09944 0.05854 0.0
O194 O 0.7719 0.17502 0.04377 0.0
O195 O 0.78744 0.14698 0.03347 0.0
O196 O 0.19475 0.55792 0.23281 0.0
Cd197 Cd 0.21928 0.55797 0.25884 0.0
Cd198 Cd 0.18742 0.5587 0.28428 0.0
O199 O 0.16956 0.54142 0.25329 0.0
O200 O 0.23535 0.53581 0.24875 0.0
O201 O 0.21274 0.5328 0.27656 0.0
C202 C 0.22486 0.52412 0.26317 0.0
C203 C 0.16826 0.55664 0.31626 0.0
C204 C 0.17489 0.54717 0.23396 0.0
C205 C 0.22481 0.6002 0.28337 0.0
O206 O 0.2046 0.59133 0.28545 0.0
O207 O 0.23713 0.58824 0.27536 0.0
O208 O 0.16221 0.56568 0.29852 0.0
O209 O 0.18483 0.54729 0.31538 0.0
O210 O 0.80866 0.89005 0.60347 0.0
Cd211 Cd 0.81045 0.91142 0.57847 0.0
Cd212 Cd 0.82362 0.87498 0.55231 0.0
O213 O 0.81331 0.85981 0.5819 0.0
O214 O 0.79532 0.93494 0.58985 0.0
O215 O 0.78205 0.91032 0.55748 0.0
C216 C 0.77995 0.92703 0.57194 0.0
C217 C 0.81435 0.85668 0.5125 0.0
C218 C 0.8091 0.86947 0.6011 0.0
C219 C 0.85664 0.9216 0.56446 0.0
O220 O 0.85325 0.90063 0.55735 0.0
O221 O 0.84119 0.92941 0.57231 0.0
O222 O 0.82939 0.85212 0.52718 0.0
O223 O 0.80338 0.87059 0.52069 0.0
O224 O 0.94209 0.02463 0.23634 0.0
Cd225 Cd 0.91906 0.02002 0.25938 0.0
Cd226 Cd 0.95549 1.00734 0.28544 0.0
O227 O 0.97173 0.01764 0.2563 0.0
O228 O 0.89729 0.0366 0.24709 0.0
O229 O 0.91721 0.04582 0.28277 0.0
C230 C 0.90283 0.04982 0.26684 0.0
C231 C 0.97265 0.01629 0.32561 0.0
C232 C 0.96246 0.02355 0.2379 0.0
C233 C 0.90898 0.97324 0.2708 0.0
O234 O 0.92958 0.97783 0.27993 0.0
O235 O 0.90101 0.98802 0.2617 0.0
O236 O 0.97731 1.00108 0.31117 0.0
O237 O 0.95938 0.02769 0.31702 0.0
O238 O 0.27721 0.63822 0.6064 0.0
Cd239 Cd 0.27374 0.61365 0.57926 0.0
Cd240 Cd 0.27509 0.64706 0.55502 0.0
O241 O 0.29395 0.66329 0.58593 0.0
O242 O 0.29293 0.59376 0.58633 0.0
O243 O 0.29759 0.61778 0.55994 0.0
C244 C 0.30462 0.60332 0.57135 0.0
C245 C 0.27979 0.66662 0.52335 0.0
C246 C 0.28857 0.65789 0.60538 0.0
C247 C 0.23158 0.61301 0.55723 0.0
O248 O 0.24174 0.63287 0.55513 0.0
O249 O 0.24244 0.59925 0.56378 0.0
O250 O 0.27142 0.67375 0.54117 0.0
O251 O 0.2864 0.64831 0.52368 0.0
O252 O 0.4422 0.52564 0.74017 0.0
Cd253 Cd 0.41995 0.52369 0.76459 0.0
Cd254 Cd 0.45745 0.51135 0.79117 0.0
O255 O 0.47274 0.52239 0.76206 0.0
O256 O 0.39556 0.53734 0.75146 0.0
O257 O 0.41928 0.55284 0.78381 0.0
C258 C 0.40269 0.55375 0.76852 0.0
C259 C 0.47495 0.5213 0.83128 0.0
C260 C 0.46301 0.5259 0.74259 0.0
C261 C 0.41197 0.4768 0.77814 0.0
O262 O 0.43308 0.48079 0.78484 0.0
O263 O 0.40329 0.49219 0.77133 0.0
O264 O 0.48159 0.50786 0.81647 0.0
O265 O 0.45917 0.53011 0.82317 0.0
O266 O 0.69488 0.05939 0.72665 0.0
Cd267 Cd 0.71715 0.05921 0.75447 0.0
Cd268 Cd 0.68376 0.05774 0.77744 0.0
O269 O 0.66762 0.04286 0.74505 0.0
O270 O 0.73752 0.0408 0.74641 0.0
O271 O 0.7097 0.03179 0.7682 0.0
C272 C 0.72545 0.02653 0.75752 0.0
C273 C 0.66806 0.04706 0.80978 0.0
C274 C 0.67458 0.04919 0.72652 0.0
C275 C 0.71837 0.10055 0.78076 0.0
O276 O 0.69782 0.09139 0.781 0.0
O277 O 0.73157 0.08895 0.77422 0.0
O278 O 0.65809 0.0567 0.79483 0.0
O279 O 0.68691 0.04269 0.8061 0.0
O280 O 0.7884 0.6974 0.07693 0.0
Cd281 Cd 0.78605 0.67455 0.04725 0.0
Cd282 Cd 0.76543 0.7053 0.02573 0.0
O283 O 0.77322 0.7223 0.06088 0.0
O284 O 0.80099 0.65232 0.06008 0.0
O285 O 0.81418 0.67218 0.03307 0.0
C286 C 0.81601 0.65727 0.04657 0.0
C287 C 0.77427 0.72102 0.99074 0.0
C288 C 0.78195 0.71551 0.07899 0.0
C289 C 0.73677 0.65846 0.02652 0.0
O290 O 0.73745 0.67811 0.0214 0.0
O291 O 0.75451 0.65368 0.03546 0.0
O292 O 0.75908 0.7262 1.00237 0.0
O293 O 0.78529 0.70771 0.99948 0.0
O294 O 0.89015 0.53174 0.78898 0.0
Cd295 Cd 0.87604 0.53321 0.81925 0.0
Cd296 Cd 0.91135 0.52686 0.83619 0.0
O297 O 0.92429 0.53837 0.80838 0.0
O298 O 0.85175 0.54741 0.81312 0.0
O299 O 0.8827 0.56258 0.83921 0.0
C300 C 0.86369 0.56391 0.8284 0.0
C301 C 0.92961 0.5369 0.87287 0.0
C302 C 0.91127 0.53624 0.78933 0.0
C303 C 0.87173 0.48967 0.83079 0.0
O304 O 0.89276 0.49476 0.83109 0.0
O305 O 0.86071 0.50435 0.82929 0.0
O306 O 0.93648 0.52409 0.85767 0.0
O307 O 0.91318 0.5456 0.86663 0.0
O308 O 0.80119 0.43828 0.55055 0.0
Cd309 Cd 0.80115 0.45175 0.51923 0.0
Cd310 Cd 0.80507 0.41529 0.50951 0.0
O311 O 0.78357 0.40505 0.53207 0.0
O312 O 0.77187 0.45179 0.50207 0.0
O313 O 0.79405 0.48012 0.52776 0.0
C314 C 0.77517 0.47147 0.51428 0.0
C315 C 0.8028 0.39666 0.47336 0.0
C316 C 0.79004 0.41833 0.55117 0.0
C317 C 0.84397 0.4511 0.51496 0.0
O318 O 0.83699 0.43319 0.52342 0.0
O319 O 0.82991 0.46022 0.50514 0.0
O320 O 0.80966 0.38889 0.49187 0.0
O321 O 0.79564 0.41478 0.47566 0.0
O322 O 0.63987 0.54187 0.2685 0.0
Cd323 Cd 0.66129 0.54407 0.29881 0.0
Cd324 Cd 0.62968 0.56273 0.31808 0.0
O325 O 0.61228 0.55379 0.28266 0.0
O326 O 0.68251 0.52672 0.28799 0.0
O327 O 0.66129 0.51709 0.31542 0.0
C328 C 0.67611 0.51317 0.30257 0.0
C329 C 0.61588 0.55456 0.35424 0.0
C330 C 0.62096 0.54664 0.26505 0.0
C331 C 0.67644 0.59265 0.3171 0.0
O332 O 0.6565 0.59118 0.32171 0.0
O333 O 0.68233 0.57521 0.30929 0.0
O334 O 0.61099 0.57032 0.34339 0.0
O335 O 0.62745 0.54236 0.34401 0.0
Tb336 Tb 0.07221 0.06011 0.06269 0.0
C337 C 0.99676 0.98164 1.00181 0.0
N338 N 1.00878 1.00215 0.99824 0.0
C339 C 1.01259 0.98656 0.95938 0.0
C340 C 0.99297 0.96259 0.98455 0.0
C341 C 0.01573 1.005 0.97693 0.0
C342 C 1.00151 0.96519 0.96336 0.0
C343 C 0.97283 0.95955 0.02567 0.0
C344 C 0.98686 0.98009 0.02217 0.0
C345 C 0.96998 0.94029 0.00909 0.0
C346 C 0.98004 0.9418 0.98859 0.0
Tb347 Tb 1.01334 0.03033 0.029 0.0
N348 N 0.98966 0.99908 0.03767 0.0
C349 C 0.9613 0.95921 0.0452 0.0
C350 C 0.97686 0.99926 0.05548 0.0
C351 C 0.96299 0.97927 0.0599 0.0
H352 H 0.02291 0.02144 0.97286 0.0
H353 H 0.95338 0.97941 0.07444 0.0
H354 H 0.07081 0.06953 0.12076 0.0
H355 H 0.11677 0.11176 0.00493 0.0
H356 H 0.97723 0.01482 0.06635 0.0
H357 H 0.95034 0.94377 0.04849 0.0
H358 H 0.09536 0.07681 0.01605 0.0
H359 H 0.01835 0.98894 0.94263 0.0
H360 H 0.95944 0.9243 0.01159 0.0
H361 H 0.9771 0.92694 0.9756 0.0
H362 H 0.08377 0.10148 0.15277 0.0
H363 H 0.99886 0.95099 0.9496 0.0
H364 H 0.12884 0.14628 0.03417 0.0
N365 N 0.0826 0.08851 0.09411 0.0
C366 C 0.09489 0.10847 0.08954 0.0
C367 C 0.08674 0.10379 0.13502 0.0
C368 C 0.10302 0.12709 0.10748 0.0
C369 C 0.07909 0.08581 0.11671 0.0
C370 C 0.09856 0.1246 0.13035 0.0
N371 N 0.09275 0.09148 0.05033 0.0
C372 C 0.09925 0.09182 0.02853 0.0
C373 C 0.11329 0.13029 0.06169 0.0
C374 C 0.10019 0.11 0.067 0.0
C375 C 0.11881 0.13102 0.03893 0.0
C376 C 0.11194 0.11161 0.02236 0.0
H377 H 0.10462 0.13847 0.14461 0.0
H378 H 0.12208 0.16191 0.11572 0.0
H379 H 0.13091 0.16476 0.07558 0.0
O380 O 0.10434 0.05661 0.05734 0.0
O381 O 0.05718 0.08633 0.04863 0.0
O382 O 0.02244 0.0676 0.02734 0.0
O383 O 0.09205 0.05278 0.09127 0.0
O384 O 0.06935 0.04204 0.02649 0.0
O385 O 0.03705 0.0475 0.00804 0.0
O386 O 0.98788 0.04536 0.03862 0.0
O387 O 0.03487 1.0063 0.03551 0.0
O388 O 0.05913 0.02436 0.06888 0.0
O389 O 0.98571 0.02628 1.00322 0.0
O390 O 0.01755 0.03036 0.06724 0.0
O391 O 0.04422 0.06253 0.08257 0.0
C392 C 0.0382 0.08645 0.03561 0.0
C393 C 0.12977 0.04975 0.08879 0.0
C394 C 0.16044 0.03264 0.08306 0.0
C395 C 0.17106 0.04249 0.10592 0.0
C396 C 0.1401 0.05937 0.11163 0.0
C397 C 0.16079 0.0557 0.12017 0.0
C398 C 0.13968 0.03623 0.07478 0.0
C399 C 0.05754 0.04553 0.00747 0.0
C400 C 0.10859 0.05356 0.07918 0.0
C401 C 0.11577 0.14742 0.10218 0.0
C402 C 0.12083 0.14904 0.07933 0.0
C403 C 0.04874 1.0055 0.05452 0.0
C404 C 0.95492 0.0427 0.01013 0.0
C405 C 0.92632 0.06201 0.01843 0.0
C406 C 0.91539 0.05474 0.99521 0.0
C407 C 0.94399 0.03544 0.98694 0.0
C408 C 0.94598 0.05586 0.02583 0.0
C409 C 0.92424 0.04146 0.97956 0.0
C410 C 0.02711 0.0462 0.08488 0.0
C411 C 0.97657 0.03827 0.01742 0.0
H412 H 0.18738 0.0403 0.11261 0.0
H413 H 0.13234 0.06986 0.12264 0.0
H414 H 0.16899 0.06329 0.13772 0.0
H415 H 0.13103 0.02831 0.05742 0.0
H416 H 0.89987 0.05905 0.9893 0.0
H417 H 0.95085 0.02543 0.97444 0.0
H418 H 0.95453 0.06177 0.04366 0.0
H419 H 0.91583 0.0359 0.96169 0.0
Tb420 Tb 0.26854 0.7921 0.31316 0.0
C421 C 0.31849 0.75614 0.22344 0.0
N422 N 0.32658 0.77174 0.2429 0.0
C423 C 0.35949 0.75751 0.24887 0.0
C424 C 0.33003 0.73982 0.21664 0.0
C425 C 0.34728 0.77316 0.25506 0.0
C426 C 0.35067 0.74052 0.2298 0.0
C427 C 0.28899 0.74028 0.19049 0.0
C428 C 0.29844 0.75651 0.21041 0.0
C429 C 0.30008 0.72359 0.18395 0.0
C430 C 0.3206 0.7234 0.19696 0.0
Tb431 Tb 0.30396 0.79495 0.2528 0.0
N432 N 0.28774 0.77231 0.21799 0.0
C433 C 0.26858 0.74123 0.17794 0.0
C434 C 0.26852 0.77409 0.20501 0.0
C435 C 0.25848 0.75841 0.18505 0.0
H436 H 0.35474 0.78654 0.26933 0.0
H437 H 0.24295 0.7596 0.17517 0.0
H438 H 0.21697 0.79684 0.29855 0.0
H439 H 0.33629 0.84041 0.38114 0.0
H440 H 0.26081 0.78757 0.20978 0.0
H441 H 0.26067 0.729 0.1626 0.0
H442 H 0.31737 0.80821 0.3519 0.0
H443 H 0.37575 0.75861 0.25879 0.0
H444 H 0.293 0.71082 0.16883 0.0
H445 H 0.32907 0.71054 0.19162 0.0
H446 H 0.1944 0.82377 0.30836 0.0
H447 H 0.3601 0.72831 0.22515 0.0
H448 H 0.31714 0.87025 0.39191 0.0
N449 N 0.2456 0.8146 0.32315 0.0
C450 C 0.25453 0.83248 0.34017 0.0
C451 C 0.21131 0.82645 0.31743 0.0
C452 C 0.24239 0.84851 0.34609 0.0
C453 C 0.22419 0.81122 0.3119 0.0
C454 C 0.2205 0.84526 0.3345 0.0
N455 N 0.28745 0.81946 0.34411 0.0
C456 C 0.30856 0.82096 0.35544 0.0
C457 C 0.2866 0.85394 0.36808 0.0
C458 C 0.27628 0.83511 0.35093 0.0
C459 C 0.30857 0.85601 0.37872 0.0
C460 C 0.31946 0.83927 0.37259 0.0
H461 H 0.2106 0.85719 0.33853 0.0
H462 H 0.24366 0.88 0.36767 0.0
H463 H 0.28243 0.88477 0.38693 0.0
O464 O 0.2701 0.76953 0.33702 0.0
O465 O 0.27735 0.82497 0.30252 0.0
O466 O 0.30543 0.81537 0.28645 0.0
O467 O 0.23849 0.76879 0.31643 0.0
O468 O 0.30202 0.78397 0.31794 0.0
O469 O 0.32365 0.79332 0.28734 0.0
O470 O 0.30396 0.82075 0.2319 0.0
O471 O 0.28544 0.76021 0.25268 0.0
O472 O 0.27974 0.77891 0.28336 0.0
O473 O 0.33484 0.81459 0.24756 0.0
O474 O 0.27007 0.80285 0.25024 0.0
O475 O 0.24755 0.78722 0.27811 0.0
C476 C 0.2937 0.83006 0.29019 0.0
C477 C 0.2384 0.75887 0.35491 0.0
C478 C 0.23847 0.74389 0.39177 0.0
C479 C 0.2226 0.75557 0.39817 0.0
C480 C 0.22284 0.77093 0.36143 0.0
C481 C 0.21487 0.76912 0.38302 0.0
C482 C 0.24611 0.74543 0.37012 0.0
C483 C 0.32112 0.78697 0.30849 0.0
C484 C 0.2485 0.76097 0.33342 0.0
C485 C 0.25263 0.86738 0.36301 0.0
C486 C 0.27471 0.87011 0.37395 0.0
C487 C 0.27606 0.75937 0.27122 0.0
C488 C 0.33641 0.83049 0.21274 0.0
C489 C 0.33505 0.84267 0.17428 0.0
C490 C 0.35836 0.84493 0.17542 0.0
C491 C 0.35968 0.8328 0.21361 0.0
C492 C 0.32413 0.8351 0.19289 0.0
C493 C 0.37052 0.83979 0.19491 0.0
C494 C 0.2505 0.79656 0.25855 0.0
C495 C 0.32584 0.82618 0.23375 0.0
H496 H 0.21658 0.75454 0.415 0.0
H497 H 0.21705 0.78183 0.35008 0.0
H498 H 0.20291 0.77842 0.38812 0.0
H499 H 0.25841 0.73637 0.36525 0.0
H500 H 0.36734 0.85133 0.16159 0.0
H501 H 0.36964 0.82978 0.229 0.0
H502 H 0.3062 0.83343 0.1922 0.0
H503 H 0.38849 0.84185 0.19583 0.0
Tb504 Tb 0.51846 0.03776 0.56432 0.0
C505 C 0.59797 0.08716 0.51511 0.0
N506 N 0.58306 0.06662 0.50871 0.0
C507 C 0.57682 0.07475 0.46916 0.0
C508 C 0.60202 0.10259 0.49893 0.0
C509 C 0.57371 0.0598 0.48559 0.0
C510 C 0.5907 0.09636 0.47594 0.0
C511 C 0.62691 0.11277 0.54429 0.0
C512 C 0.61033 0.09237 0.5376 0.0
C513 C 0.63025 0.12845 0.52849 0.0
C514 C 0.61779 0.12341 0.50592 0.0
Tb515 Tb 0.57985 0.04499 0.53858 0.0
N516 N 0.60615 0.07728 0.55295 0.0
C517 C 0.63981 0.11665 0.5666 0.0
C518 C 0.61962 0.08023 0.574 0.0
C519 C 0.63635 0.10015 0.58138 0.0
H520 H 0.56421 0.04276 0.47921 0.0
H521 H 0.64671 0.10265 0.59832 0.0
H522 H 0.53531 0.03547 0.62219 0.0
H523 H 0.45485 0.98158 0.49912 0.0
H524 H 0.61768 0.06703 0.58485 0.0
H525 H 0.65276 0.1321 0.57236 0.0
H526 H 0.48284 0.0172 0.51524 0.0
H527 H 0.56888 0.06939 0.45109 0.0
H528 H 0.64271 0.14436 0.53341 0.0
H529 H 0.62094 0.1355 0.49375 0.0
H530 H 0.52849 1.00746 0.64867 0.0
H531 H 0.59332 0.10776 0.46302 0.0
H532 H 0.44676 0.95123 0.52376 0.0
N533 N 0.51479 0.01394 0.59203 0.0
C534 C 0.49889 0.99416 0.58463 0.0
C535 C 0.52037 1.00335 0.63058 0.0
C536 C 0.49399 0.97785 0.59976 0.0
C537 C 0.52464 0.0191 0.61509 0.0
C538 C 0.50523 0.98254 0.62283 0.0
N539 N 0.49204 1.00622 0.54747 0.0
C540 C 0.48023 1.00365 0.52555 0.0
C541 C 0.47074 0.96993 0.55367 0.0
C542 C 0.48704 0.99028 0.56185 0.0
C543 C 0.45938 0.96666 0.53069 0.0
C544 C 0.464 0.98369 0.51666 0.0
H545 H 0.50186 0.97047 0.63499 0.0
H546 H 0.47392 0.94481 0.60298 0.0
H547 H 0.4538 0.9378 0.56264 0.0
O548 O 0.48877 0.04794 0.55299 0.0
O549 O 0.52687 1.0055 0.54921 0.0
O550 O 0.56012 1.0092 0.53184 0.0
O551 O 0.50208 0.05018 0.59025 0.0
O552 O 0.53102 0.05014 0.53408 0.0
O553 O 0.55047 0.03195 0.51231 0.0
O554 O 0.60489 0.03113 0.55448 0.0
O555 O 0.5737 0.07722 0.55671 0.0
O556 O 0.53584 0.07333 0.56186 0.0
O557 O 0.60411 0.03779 0.51862 0.0
O558 O 0.56724 0.0336 0.56954 0.0
O559 O 0.54712 0.05179 0.59046 0.0
C560 C 0.5415 0.99684 0.53805 0.0
C561 C 0.46837 0.06281 0.58275 0.0
C562 C 0.43821 0.08139 0.57577 0.0
C563 C 0.43525 0.0819 0.59953 0.0
C564 C 0.46513 0.06341 0.60648 0.0
C565 C 0.44868 0.07295 0.61479 0.0
C566 C 0.45486 0.07192 0.56732 0.0
C567 C 0.53162 0.03709 0.5152 0.0
C568 C 0.48666 0.0537 0.57491 0.0
C569 C 0.47779 0.95753 0.59158 0.0
C570 C 0.46627 0.95355 0.56862 0.0
C571 C 0.55654 0.08592 0.56162 0.0
C572 C 0.61823 1.00732 0.52776 0.0
C573 C 0.64424 0.9834 0.52894 0.0
C574 C 0.63009 0.96815 0.51046 0.0
C575 C 0.60388 0.99172 0.50962 0.0
C576 C 0.63818 1.00288 0.53771 0.0
C577 C 0.60985 0.9722 0.50104 0.0
C578 C 0.56623 0.04741 0.5878 0.0
C579 C 0.61367 0.02909 0.53515 0.0
H580 H 0.42249 0.08927 0.60625 0.0
H581 H 0.4754 0.05659 0.61874 0.0
H582 H 0.44636 0.07343 0.6331 0.0
H583 H 0.45727 0.07172 0.54902 0.0
H584 H 0.63472 0.95311 0.50341 0.0
H585 H 0.58837 0.99488 0.50173 0.0
H586 H 0.64934 0.01491 0.55165 0.0
H587 H 0.59895 0.96037 0.48684 0.0
Tb588 Tb 0.32288 0.27153 0.78904 0.0
C589 C 0.24146 0.30471 0.74262 0.0
N590 N 0.25725 0.31518 0.76129 0.0
C591 C 0.26085 0.35031 0.7464 0.0
C592 C 0.23489 0.31665 0.72486 0.0
C593 C 0.26679 0.33774 0.76361 0.0
C594 C 0.24489 0.33972 0.7269 0.0
C595 C 0.21607 0.27017 0.72182 0.0
C596 C 0.23236 0.28174 0.74101 0.0
C597 C 0.20936 0.28202 0.70412 0.0
C598 C 0.21882 0.30518 0.70558 0.0
Tb599 Tb 0.26653 0.2927 0.78731 0.0
N600 N 0.24026 0.27062 0.75776 0.0
C601 C 0.20746 0.24697 0.72073 0.0
C602 C 0.23097 0.24825 0.75744 0.0
C603 C 0.21477 0.23602 0.73878 0.0
H604 H 0.27884 0.34618 0.7788 0.0
H605 H 0.20774 0.21819 0.73848 0.0
H606 H 0.31019 0.21767 0.79647 0.0
H607 H 0.38283 0.34435 0.83905 0.0
H608 H 0.23538 0.23977 0.77172 0.0
H609 H 0.19502 0.23743 0.70622 0.0
H610 H 0.35689 0.32273 0.80423 0.0
H611 H 0.26855 0.36816 0.74821 0.0
H612 H 0.19705 0.27338 0.68909 0.0
H613 H 0.21364 0.31405 0.69167 0.0
H614 H 0.31774 0.19528 0.82772 0.0
H615 H 0.24039 0.3495 0.71355 0.0
H616 H 0.39141 0.32541 0.87322 0.0
N617 N 0.33051 0.24858 0.81551 0.0
C618 C 0.34517 0.25876 0.83514 0.0
C619 C 0.32547 0.21316 0.8301 0.0
C620 C 0.35016 0.24663 0.85338 0.0
C621 C 0.32101 0.22597 0.81252 0.0
C622 C 0.33998 0.22356 0.8507 0.0
N623 N 0.3489 0.2927 0.81933 0.0
C624 C 0.35955 0.31466 0.81939 0.0
C625 C 0.36994 0.293 0.85717 0.0
C626 C 0.35481 0.28161 0.83707 0.0
C627 C 0.37969 0.31599 0.85809 0.0
C628 C 0.37475 0.32678 0.83892 0.0
H629 H 0.34331 0.21362 0.86433 0.0
H630 H 0.36892 0.24895 0.88796 0.0
H631 H 0.38631 0.28956 0.89125 0.0
O632 O 0.34947 0.28224 0.7697 0.0
O633 O 0.31079 0.27943 0.82327 0.0
O634 O 0.29334 0.30754 0.81678 0.0
O635 O 0.33836 0.24752 0.7746 0.0
O636 O 0.32278 0.30336 0.77484 0.0
O637 O 0.29797 0.31906 0.794 0.0
O638 O 0.24133 0.28084 0.8079 0.0
O639 O 0.27764 0.28488 0.75238 0.0
O640 O 0.29668 0.25807 0.75892 0.0
O641 O 0.24944 0.31535 0.8018 0.0
O642 O 0.2681 0.26191 0.80235 0.0
O643 O 0.29126 0.24563 0.78167 0.0
C644 C 0.3028 0.29643 0.8312 0.0
C645 C 0.3759 0.25992 0.7679 0.0
C646 C 0.40998 0.26214 0.7499 0.0
C647 C 0.41787 0.25023 0.76695 0.0
C648 C 0.38421 0.24843 0.7851 0.0
C649 C 0.40513 0.24363 0.78456 0.0
C650 C 0.38903 0.26713 0.75058 0.0
C651 C 0.31513 0.32078 0.78217 0.0
C652 C 0.35267 0.26211 0.76583 0.0
C653 C 0.36496 0.25794 0.87366 0.0
C654 C 0.37485 0.28108 0.87555 0.0
C655 C 0.28806 0.26973 0.7445 0.0
C656 C 0.21237 0.30016 0.80914 0.0
C657 C 0.17765 0.29601 0.82664 0.0
C658 C 0.16824 0.30496 0.80783 0.0
C659 C 0.20241 0.30864 0.79029 0.0
C660 C 0.19975 0.29343 0.82716 0.0
C661 C 0.18048 0.31101 0.7897 0.0
C662 C 0.27496 0.24421 0.79458 0.0
C663 C 0.23639 0.30022 0.81134 0.0
H664 H 0.43401 0.2462 0.76673 0.0
H665 H 0.37432 0.24265 0.79855 0.0
H666 H 0.41135 0.23448 0.79762 0.0
H667 H 0.38257 0.27579 0.73711 0.0
H668 H 0.15133 0.30724 0.80718 0.0
H669 H 0.21175 0.31396 0.7763 0.0
H670 H 0.20734 0.28702 0.84188 0.0
H671 H 0.17304 0.3179 0.77531 0.0
Tb672 Tb 0.0543 0.01311 0.54212 0.0
C673 C 0.02616 0.09546 0.59012 0.0
N674 N 0.01535 0.08002 0.57125 0.0
C675 C 0.98072 0.07633 0.58744 0.0
C676 C 0.01492 0.10115 0.60894 0.0
C677 C 0.99259 0.07139 0.56914 0.0
C678 C 0.992 0.09098 0.60762 0.0
C679 C 0.06028 0.12281 0.6089 0.0
C680 C 0.04839 0.10628 0.5901 0.0
C681 C 0.04944 0.12796 0.62814 0.0
C682 C 0.02679 0.11715 0.62815 0.0
Tb683 Tb 0.0372 0.07235 0.54326 0.0
N684 N 0.05849 0.10022 0.57161 0.0
C685 C 0.08272 0.13348 0.60781 0.0
C686 C 0.07994 0.11138 0.56977 0.0
C687 C 0.09251 0.1279 0.58802 0.0
H688 H 0.98323 0.061 0.55325 0.0
H689 H 0.10971 0.1363 0.5868 0.0
H690 H 0.10879 0.02454 0.53637 0.0
H691 H 0.98079 0.95716 0.4885 0.0
H692 H 0.08738 0.10736 0.55435 0.0
H693 H 0.09252 0.14618 0.62198 0.0
H694 H 1.00178 0.98179 0.52433 0.0
H695 H 0.96279 0.06908 0.58581 0.0
H696 H 0.05834 0.1404 0.64295 0.0
H697 H 0.01851 0.12156 0.64291 0.0
H698 H 0.13155 0.01694 0.50551 0.0
H699 H 0.98272 0.09488 0.6217 0.0
H700 H 1.00074 0.94819 0.45525 0.0
N701 N 0.07774 1.0057 0.51619 0.0
C702 C 0.06763 0.99141 0.49623 0.0
C703 C 0.11356 0.00979 0.50261 0.0
C704 C 0.08003 0.98649 0.47818 0.0
C705 C 0.10051 0.01428 0.51997 0.0
C706 C 0.10325 0.99603 0.48152 0.0
N707 N 0.03309 0.98795 0.51121 0.0
C708 C 1.0106 0.9786 0.50984 0.0
C709 C 0.0333 0.96798 0.47289 0.0
C710 C 0.04456 0.9822 0.49366 0.0
C711 C 1.01004 0.95916 0.47095 0.0
C712 C 0.9987 0.96429 0.48962 0.0
H713 H 0.11339 0.99271 0.46804 0.0
H714 H 0.07807 0.96855 0.44322 0.0
H715 H 0.03717 0.95242 0.43856 0.0
O716 O 0.04566 0.98128 0.55268 0.0
O717 O 0.04817 0.02645 0.50845 0.0
O718 O 0.02081 0.04473 0.51509 0.0
O719 O 0.07897 1.00326 0.56379 0.0
O720 O 0.02209 0.01343 0.55453 0.0
O721 O 1.00886 0.04197 0.53922 0.0
O722 O 0.04882 0.0956 0.52028 0.0
O723 O 0.05838 0.06744 0.57525 0.0
O724 O 0.04548 0.02984 0.57377 0.0
O725 O 0.01562 0.09073 0.52962 0.0
O726 O 0.067 0.06729 0.52813 0.0
O727 O 0.08165 0.04387 0.55032 0.0
C728 C 0.03105 0.03422 0.5006 0.0
C729 C 0.07366 0.96419 0.56712 0.0
C730 C 0.07264 0.93061 0.58571 0.0
C731 C 0.09041 0.92673 0.57397 0.0
C732 C 0.09119 0.96007 0.55528 0.0
C733 C 0.09949 0.9413 0.55872 0.0
C734 C 0.06423 0.94931 0.58203 0.0
C735 C 1.00596 0.02342 0.54909 0.0
C736 C 0.06512 0.98416 0.56534 0.0
C737 C 0.06885 0.9724 0.45738 0.0
C738 C 0.04556 0.9632 0.45473 0.0
C739 C 0.05655 0.04928 0.58554 0.0
C740 C 0.03193 0.12665 0.52083 0.0
C741 C 0.03494 0.16098 0.50285 0.0
C742 C 0.02826 0.17123 0.52283 0.0
C743 C 0.02586 0.13752 0.54091 0.0
C744 C 0.03685 0.1386 0.50187 0.0
C745 C 0.02394 0.15962 0.54179 0.0
C746 C 0.08415 0.06104 0.53846 0.0
C747 C 0.03031 0.10225 0.51845 0.0
H748 H 0.09713 0.91232 0.57643 0.0
H749 H 0.09852 0.97137 0.54365 0.0
H750 H 0.11309 0.93811 0.54967 0.0
H751 H 0.05072 0.95262 0.59127 0.0
H752 H 0.02641 0.18832 0.52375 0.0
H753 H 0.02186 0.1287 0.55563 0.0
H754 H 0.04135 0.13035 0.4862 0.0
H755 H 0.01875 0.16768 0.5571 0.0
Tb756 Tb 0.29389 0.81937 0.76129 0.0
C757 C 0.24162 0.7376 0.80824 0.0
N758 N 0.26241 0.75159 0.81605 0.0
C759 C 0.25438 0.75321 0.85576 0.0
C760 C 0.22612 0.73164 0.82396 0.0
C761 C 0.26932 0.75849 0.8396 0.0
C762 C 0.23261 0.73999 0.84789 0.0
C763 C 0.21479 0.71382 0.77591 0.0
C764 C 0.23595 0.72866 0.7844 0.0
C765 C 0.19917 0.70838 0.7915 0.0
C766 C 0.20481 0.71725 0.81542 0.0
Tb767 Tb 0.28428 0.75819 0.78712 0.0
N768 N 0.25111 0.73485 0.76949 0.0
C769 C 0.21008 0.70471 0.75204 0.0
C770 C 0.24733 0.72466 0.74674 0.0
C771 C 0.2266 0.70984 0.73749 0.0
H772 H 0.28639 0.76778 0.84623 0.0
H773 H 0.22353 0.70208 0.71928 0.0
H774 H 0.28647 0.80294 0.70133 0.0
H775 H 0.35695 0.88896 0.8109 0.0
H776 H 0.2605 0.72724 0.73601 0.0
H777 H 0.19402 0.6932 0.74484 0.0
H778 H 0.31927 0.86246 0.80091 0.0
H779 H 0.25979 0.75908 0.87434 0.0
H780 H 0.18275 0.69714 0.78527 0.0
H781 H 0.19264 0.71265 0.82724 0.0
H782 H 0.31105 0.80114 0.67129 0.0
H783 H 0.22116 0.73582 0.86052 0.0
H784 H 0.38594 0.88678 0.78499 0.0
N785 N 0.31338 0.8183 0.72945 0.0
C786 C 0.33527 0.83041 0.73425 0.0
C787 C 0.3182 0.809 0.68907 0.0
C788 C 0.34973 0.83107 0.71694 0.0
C789 C 0.30437 0.80951 0.70655 0.0
C790 C 0.34112 0.81931 0.69443 0.0
N791 N 0.32798 0.84407 0.77167 0.0
C792 C 0.33227 0.86078 0.79036 0.0
C793 C 0.36414 0.85917 0.76033 0.0
C794 C 0.34259 0.84426 0.75574 0.0
C795 C 0.36961 0.87489 0.7809 0.0
C796 C 0.35335 0.87611 0.79564 0.0
H797 H 0.35169 0.81933 0.68069 0.0
H798 H 0.38328 0.84499 0.7092 0.0
H799 H 0.39583 0.8697 0.74715 0.0
O800 O 0.28026 0.84523 0.77623 0.0
O801 O 0.32532 0.81224 0.78023 0.0
O802 O 0.32046 0.77697 0.79368 0.0
O803 O 0.29008 0.84482 0.74166 0.0
O804 O 0.28231 0.80968 0.79366 0.0
O805 O 0.29708 0.78653 0.81452 0.0
O806 O 0.29575 0.73166 0.77009 0.0
O807 O 0.25301 0.76989 0.77552 0.0
O808 O 0.25769 0.80028 0.75378 0.0
O809 O 0.29096 0.73339 0.80651 0.0
O810 O 0.29761 0.77139 0.75756 0.0
O811 O 0.27863 0.78995 0.73597 0.0
C812 C 0.33341 0.79644 0.78986 0.0
C813 C 0.26019 0.86099 0.74791 0.0
C814 C 0.23671 0.88736 0.7503 0.0
C815 C 0.22524 0.87777 0.72782 0.0
C816 C 0.2482 0.85106 0.72559 0.0
C817 C 0.23086 0.85953 0.7156 0.0
C818 C 0.25412 0.87894 0.76038 0.0
C819 C 0.29471 0.80666 0.81218 0.0
C820 C 0.28054 0.85463 0.75718 0.0
C821 C 0.37189 0.84453 0.72219 0.0
C822 C 0.37905 0.85864 0.74379 0.0
C823 C 0.24474 0.78391 0.76304 0.0
C824 C 0.32021 0.71787 0.79609 0.0
C825 C 0.34363 0.6911 0.7958 0.0
C826 C 0.35966 0.70616 0.81296 0.0
C827 C 0.33651 0.73269 0.81329 0.0
C828 C 0.32397 0.69711 0.78712 0.0
C829 C 0.35616 0.72689 0.82151 0.0
C830 C 0.28474 0.77159 0.73844 0.0
C831 C 0.29844 0.72303 0.78946 0.0
H832 H 0.21194 0.8844 0.71978 0.0
H833 H 0.2526 0.83718 0.7156 0.0
H834 H 0.22198 0.85215 0.69825 0.0
H835 H 0.26336 0.88679 0.77752 0.0
H836 H 0.37485 0.70174 0.81986 0.0
H837 H 0.33387 0.74862 0.82072 0.0
H838 H 0.31131 0.68535 0.77422 0.0
H839 H 0.36856 0.73837 0.83482 0.0
Tb840 Tb 0.54004 0.05359 0.01478 0.0
C841 C 0.57443 0.99953 0.1039 0.0
N842 N 0.55806 0.99215 0.08503 0.0
C843 C 0.56744 0.95645 0.0803 0.0
C844 C 0.58848 0.98587 0.11127 0.0
C845 C 0.55411 0.97071 0.07348 0.0
C846 C 0.58484 0.96412 0.09914 0.0
C847 C 0.59466 0.02968 0.13483 0.0
C848 C 0.57735 0.02102 0.11565 0.0
C849 C 0.60887 0.01625 0.14208 0.0
C850 C 0.60575 0.99437 0.13036 0.0
Tb851 Tb 0.53821 0.01735 0.07448 0.0
N852 N 0.56388 0.03383 0.10744 0.0
C853 C 0.59742 0.05169 0.14588 0.0
C854 C 0.56624 0.05519 0.11864 0.0
C855 C 0.58303 0.06443 0.13783 0.0
H856 H 0.54053 0.96437 0.05907 0.0
H857 H 0.58495 0.08147 0.1463 0.0
H858 H 0.53804 0.10663 0.02554 0.0
H859 H 0.49672 0.98994 0.94066 0.0
H860 H 0.55566 0.06552 0.11286 0.0
H861 H 0.61057 0.059 0.1606 0.0
H862 H 0.52898 1.00954 0.97005 0.0
H863 H 0.56431 0.93955 0.07098 0.0
H864 H 0.62235 0.02265 0.15666 0.0
H865 H 0.61684 0.98419 0.13614 0.0
H866 H 0.51064 0.12908 0.01714 0.0
H867 H 0.59525 0.95308 0.10426 0.0
H868 H 0.46431 1.00664 0.93334 0.0
N869 N 0.51838 0.07702 0.00382 0.0
C870 C 0.49986 0.06782 0.98781 0.0
C871 C 0.50726 0.11176 0.00889 0.0
C872 C 0.48365 0.07983 0.98235 0.0
C873 C 0.5227 0.09896 0.0138 0.0
C874 C 0.48742 0.10203 0.99339 0.0
N875 N 0.51436 0.03622 0.98188 0.0
C876 C 0.51473 0.01673 0.96822 0.0
C877 C 0.47904 0.0362 0.95914 0.0
C878 C 0.49765 0.04646 0.97649 0.0
C879 C 0.47834 0.01519 0.94675 0.0
C880 C 0.49656 1.00569 0.95091 0.0
H881 H 0.47541 0.11191 0.9897 0.0
H882 H 0.4516 0.07816 0.96171 0.0
H883 H 0.44752 0.0398 0.94134 0.0
O884 O 0.56426 0.05345 0.99244 0.0
O885 O 0.50741 0.04396 0.02583 0.0
O886 O 0.51674 0.0153 0.04144 0.0
O887 O 0.56531 0.08336 0.01617 0.0
O888 O 0.54578 0.01896 0.00853 0.0
O889 O 0.54125 0.99759 0.04025 0.0
O890 O 0.51458 0.02029 0.09731 0.0
O891 O 0.57279 0.03489 0.07316 0.0
O892 O 0.55247 0.04177 0.04423 0.0
O893 O 0.51592 0.98794 0.08009 0.0
O894 O 0.53025 0.05126 0.0783 0.0
O895 O 0.54211 0.07446 0.04958 0.0
C896 C 0.50261 0.02772 0.0384 0.0
C897 C 0.58001 0.08801 0.98036 0.0
C898 C 0.5963 0.09036 0.94409 0.0
C899 C 0.59673 0.11339 0.94623 0.0
C900 C 0.58048 0.11098 0.98236 0.0
C901 C 0.58864 0.12353 0.96517 0.0
C902 C 0.58751 0.07782 0.96104 0.0
C903 C 0.54512 1.00017 0.01823 0.0
C904 C 0.574 0.07467 0.99908 0.0
C905 C 0.46447 0.06937 0.96592 0.0
C906 C 0.46213 0.04753 0.95436 0.0
C907 C 0.5724 0.04503 0.05518 0.0
C908 C 0.50353 0.98896 0.11717 0.0
C909 C 0.48933 0.99105 0.15466 0.0
C910 C 0.49106 0.96892 0.15626 0.0
C911 C 0.50543 0.96699 0.11913 0.0
C912 C 0.4959 1.001 0.13515 0.0
C913 C 0.49933 0.95712 0.1387 0.0
C914 C 0.53471 0.07107 0.07014 0.0
C915 C 0.5069 0.99858 0.09544 0.0
H916 H 0.60376 0.12369 0.93364 0.0
H917 H 0.57495 0.11929 0.99729 0.0
H918 H 0.58918 0.14129 0.96681 0.0
H919 H 0.58685 0.06001 0.95946 0.0
H920 H 0.48553 0.96049 0.17076 0.0
H921 H 0.51109 0.95722 0.10535 0.0
H922 H 0.49462 0.01802 0.13366 0.0
H923 H 0.50046 0.94006 0.13998 0.0
Tb924 Tb 0.27559 0.25201 0.26414 0.0
C925 C 0.35147 0.32951 0.3232 0.0
N926 N 0.3314 0.31816 0.32843 0.0
C927 C 0.34814 0.31979 0.36835 0.0
C928 C 0.37078 0.33621 0.34035 0.0
C929 C 0.32949 0.3135 0.35076 0.0
C930 C 0.36892 0.3311 0.36311 0.0
C931 C 0.3728 0.34738 0.29477 0.0
C932 C 0.35244 0.33504 0.30072 0.0
C933 C 0.39219 0.35365 0.31162 0.0
C934 C 0.39117 0.34815 0.33438 0.0
Tb935 Tb 0.30172 0.31029 0.29869 0.0
N936 N 0.33322 0.329 0.28497 0.0
C937 C 0.37288 0.3537 0.27231 0.0
C938 C 0.33292 0.33701 0.26393 0.0
C939 C 0.35274 0.34879 0.25695 0.0
H940 H 0.31341 0.30602 0.35543 0.0
H941 H 0.35232 0.35469 0.24002 0.0
H942 H 0.26592 0.26003 0.20772 0.0
H943 H 0.22086 0.21142 0.32147 0.0
H944 H 0.31745 0.33557 0.25291 0.0
H945 H 0.38815 0.36319 0.26705 0.0
H946 H 0.2568 0.23021 0.31061 0.0
H947 H 0.34637 0.31626 0.38605 0.0
H948 H 0.40796 0.36316 0.30738 0.0
H949 H 0.40617 0.35346 0.34733 0.0
H950 H 0.23358 0.25216 0.17672 0.0
H951 H 0.38332 0.33614 0.37684 0.0
H952 H 0.1862 0.20346 0.29277 0.0
N953 N 0.24674 0.24814 0.23417 0.0
C954 C 0.22617 0.23709 0.23862 0.0
C955 C 0.23118 0.2482 0.19416 0.0
C956 C 0.20727 0.23139 0.22097 0.0
C957 C 0.24948 0.25335 0.21211 0.0
C958 C 0.20996 0.23723 0.1986 0.0
N959 N 0.24288 0.23636 0.27743 0.0
C960 C 0.2419 0.22866 0.29859 0.0
C961 C 0.20324 0.21911 0.26592 0.0
C962 C 0.2242 0.23097 0.26088 0.0
C963 C 0.20198 0.21262 0.28822 0.0
C964 C 0.22145 0.21723 0.30453 0.0
H965 H 0.19587 0.23298 0.18454 0.0
H966 H 0.1717 0.21508 0.21265 0.0
H967 H 0.16816 0.20442 0.25199 0.0
O968 O 0.28011 0.22049 0.27092 0.0
O969 O 0.25167 0.2738 0.27119 0.0
O970 O 0.26749 0.29477 0.30661 0.0
O971 O 0.27092 0.22658 0.23554 0.0
O972 O 0.29186 0.25277 0.30098 0.0
O973 O 0.28763 0.28559 0.3204 0.0
O974 O 0.2895 0.33792 0.28993 0.0
O975 O 0.32726 0.29024 0.29167 0.0
O976 O 0.31142 0.26436 0.25856 0.0
O977 O 0.30317 0.33604 0.32606 0.0
O978 O 0.28538 0.30781 0.26192 0.0
O979 O 0.29215 0.2762 0.243 0.0
C980 C 0.24942 0.28521 0.29119 0.0
C981 C 0.28229 0.19309 0.23891 0.0
C982 C 0.30054 0.16322 0.24502 0.0
C983 C 0.29021 0.15167 0.22267 0.0
C984 C 0.27222 0.18164 0.21648 0.0
C985 C 0.27627 0.16104 0.20838 0.0
C986 C 0.29676 0.18407 0.2529 0.0
C987 C 0.29043 0.26526 0.32068 0.0
C988 C 0.27403 0.21183 0.24884 0.0
C989 C 0.18638 0.21969 0.22602 0.0
C990 C 0.18436 0.21362 0.24843 0.0
C991 C 0.32939 0.27627 0.27327 0.0
C992 C 0.28905 0.36839 0.32036 0.0
C993 C 0.27344 0.39953 0.31258 0.0
C994 C 0.27739 0.40783 0.3367 0.0
C995 C 0.29299 0.37665 0.34454 0.0
C996 C 0.27913 0.37982 0.30442 0.0
C997 C 0.2871 0.39632 0.35264 0.0
C998 C 0.28886 0.29635 0.24265 0.0
C999 C 0.29361 0.34701 0.31198 0.0
H1000 H 0.29249 0.13523 0.21652 0.0
H1001 H 0.26048 0.18819 0.20565 0.0
H1002 H 0.26807 0.15202 0.19131 0.0
H1003 H 0.30446 0.19283 0.27027 0.0
H1004 H 0.273 0.4232 0.34309 0.0
H1005 H 0.30032 0.36779 0.35719 0.0
H1006 H 0.27593 0.37357 0.28573 0.0
H1007 H 0.29005 0.40264 0.37126 0.0
Tb1008 Tb 0.5571 0.50971 0.04542 0.0
C1009 C 0.5317 0.58666 0.10206 0.0
N1010 N 0.52063 0.57374 0.08158 0.0
C1011 C 0.48577 0.56908 0.09742 0.0
C1012 C 0.52034 0.59044 0.12138 0.0
C1013 C 0.49769 0.56627 0.07859 0.0
C1014 C 0.4972 0.58085 0.11906 0.0
C1015 C 0.56592 0.61246 0.1232 0.0
C1016 C 0.5542 0.5975 0.10311 0.0
C1017 C 0.55495 0.61545 0.14287 0.0
C1018 C 0.53223 0.60439 0.14199 0.0
Tb1019 Tb 0.54277 0.56998 0.0528 0.0
N1020 N 0.56454 0.59359 0.08409 0.0
C1021 C 0.5882 0.62415 0.12271 0.0
C1022 C 0.58569 0.60595 0.08286 0.0
C1023 C 0.59803 0.62108 0.10233 0.0
H1024 H 0.48825 0.55862 0.06162 0.0
H1025 H 0.61501 0.63046 0.10154 0.0
H1026 H 0.61106 0.5227 0.03625 0.0
H1027 H 0.48346 0.44965 0.99698 0.0
H1028 H 0.59293 0.60406 0.06684 0.0
H1029 H 0.59778 0.63584 0.13779 0.0
H1030 H 0.50469 0.47762 0.03037 0.0
H1031 H 0.46768 0.56261 0.09505 0.0
H1032 H 0.56374 0.62661 0.15865 0.0
H1033 H 0.52382 0.6073 0.1571 0.0
H1034 H 0.63229 0.51484 0.00434 0.0
H1035 H 0.48785 0.58331 0.13349 0.0
H1036 H 0.50234 0.43946 0.96328 0.0
N1037 N 0.5792 0.50407 0.01735 0.0
C1038 C 0.56857 0.48885 0.99821 0.0
C1039 C 0.61431 0.5077 1.00221 0.0
C1040 C 0.58034 0.48319 0.97982 0.0
C1041 C 0.602 0.51257 0.02011 0.0
C1042 C 0.6034 0.49317 0.98183 0.0
N1043 N 0.53495 0.48447 0.01528 0.0
C1044 C 0.51293 0.47405 0.01551 0.0
C1045 C 0.53442 0.46239 0.9779 0.0
C1046 C 0.54584 0.47857 0.99725 0.0
C1047 C 0.5117 0.45201 0.97781 0.0
C1048 C 0.50095 0.45781 0.99674 0.0
H1049 H 0.61304 0.48927 0.96808 0.0
H1050 H 0.57763 0.46301 0.94592 0.0
H1051 H 0.53745 0.44483 0.94422 0.0
O1052 O 0.55008 0.47611 0.0531 0.0
O1053 O 0.54817 0.5235 0.0126 0.0
O1054 O 0.5252 0.54757 0.02073 0.0
O1055 O 0.5832 0.49951 0.06391 0.0
O1056 O 0.5259 0.51092 0.0594 0.0
O1057 O 0.51334 0.54033 0.04537 0.0
O1058 O 0.5552 0.59444 0.03158 0.0
O1059 O 0.56466 0.5611 0.08165 0.0
O1060 O 0.54962 0.52353 0.07938 0.0
O1061 O 0.52705 0.59638 0.04952 0.0
O1062 O 0.57086 0.56492 0.03477 0.0
O1063 O 0.58523 0.53977 0.05415 0.0
C1064 C 0.5333 0.53475 0.00589 0.0
C1065 C 0.5796 0.46193 0.07351 0.0
C1066 C 0.57593 0.43006 0.09531 0.0
C1067 C 0.5981 0.42946 0.09251 0.0
C1068 C 0.60173 0.46109 0.07104 0.0
C1069 C 0.61084 0.44481 0.08036 0.0
C1070 C 0.56649 0.44614 0.08537 0.0
C1071 C 0.50971 0.52058 0.05309 0.0
C1072 C 0.57058 0.47934 0.06348 0.0
C1073 C 0.56887 0.46748 0.96027 0.0
C1074 C 0.546 0.45708 0.95933 0.0
C1075 C 0.56076 0.54278 0.09174 0.0
C1076 C 0.52945 0.6135 0.01504 0.0
C1077 C 0.5301 0.64198 0.98886 0.0
C1078 C 0.50804 0.63082 0.97867 0.0
C1079 C 0.50746 0.60249 0.00443 0.0
C1080 C 0.54077 0.6333 0.00719 0.0
C1081 C 0.49682 0.61123 0.98643 0.0
C1082 C 0.58787 0.55751 0.04323 0.0
C1083 C 0.54016 0.60552 0.03536 0.0
H1084 H 0.60556 0.41699 0.09971 0.0
H1085 H 0.61192 0.47294 0.06171 0.0
H1086 H 0.62787 0.44414 0.07824 0.0
H1087 H 0.5494 0.44673 0.08741 0.0
H1088 H 0.4994 0.63745 0.96482 0.0
H1089 H 0.4984 0.58736 0.01031 0.0
H1090 H 0.5577 0.64201 0.01539 0.0
H1091 H 0.47973 0.60288 0.97858 0.0
Tb1092 Tb 0.79849 0.31824 0.2691 0.0
C1093 C 0.75029 0.23005 0.31955 0.0
N1094 N 0.77137 0.24398 0.32544 0.0
C1095 C 0.7695 0.24136 0.36634 0.0
C1096 C 0.73758 0.22236 0.33715 0.0
C1097 C 0.78155 0.24847 0.34838 0.0
C1098 C 0.74729 0.22861 0.36074 0.0
C1099 C 0.71996 0.20788 0.28939 0.0
C1100 C 0.74161 0.22247 0.29577 0.0
C1101 C 0.70706 0.20102 0.30696 0.0
C1102 C 0.71586 0.20816 0.33072 0.0
Tb1103 Tb 0.78798 0.25346 0.29346 0.0
N1104 N 0.75435 0.22932 0.27893 0.0
C1105 C 0.7119 0.20048 0.26548 0.0
C1106 C 0.74669 0.22198 0.2556 0.0
C1107 C 0.72538 0.20745 0.24854 0.0
H1108 H 0.79909 0.25739 0.35295 0.0
H1109 H 0.71925 0.20186 0.23004 0.0
H1110 H 0.78743 0.31679 0.2095 0.0
H1111 H 0.86301 0.38105 0.32611 0.0
H1112 H 0.7567 0.2278 0.24245 0.0
H1113 H 0.69531 0.18933 0.25991 0.0
H1114 H 0.82466 0.35602 0.31373 0.0
H1115 H 0.77746 0.24544 0.38448 0.0
H1116 H 0.69035 0.18991 0.30236 0.0
H1117 H 0.70584 0.2023 0.34404 0.0
H1118 H 0.81017 0.32252 0.17724 0.0
H1119 H 0.73806 0.22299 0.37473 0.0
H1120 H 0.89124 0.38307 0.29863 0.0
N1121 N 0.81592 0.32548 0.23648 0.0
C1122 C 0.83819 0.33599 0.24175 0.0
C1123 C 0.81833 0.32604 0.1953 0.0
C1124 C 0.85172 0.34045 0.22392 0.0
C1125 C 0.80554 0.32269 0.21366 0.0
C1126 C 0.84165 0.33431 0.20044 0.0
N1127 N 0.83226 0.34288 0.28101 0.0
C1128 C 0.8373 0.35639 0.30222 0.0
C1129 C 0.86843 0.3595 0.27078 0.0
C1130 C 0.84658 0.34534 0.26487 0.0
C1131 C 0.87465 0.37184 0.29343 0.0
C1132 C 0.85877 0.37076 0.30901 0.0
H1133 H 0.85147 0.33732 0.18621 0.0
H1134 H 0.88514 0.35564 0.21665 0.0
H1135 H 0.89975 0.37245 0.25776 0.0
O1136 O 0.77549 0.33446 0.28325 0.0
O1137 O 0.82782 0.3094 0.28992 0.0
O1138 O 0.82164 0.27028 0.28429 0.0
O1139 O 0.79739 0.34991 0.26023 0.0
O1140 O 0.7995 0.31322 0.30569 0.0
O1141 O 0.79509 0.27979 0.32252 0.0
O1142 O 0.78899 0.22017 0.281 0.0
O1143 O 0.7568 0.26467 0.28186 0.0
O1144 O 0.76241 0.29746 0.26292 0.0
O1145 O 0.81528 0.24216 0.30701 0.0
O1146 O 0.79292 0.27431 0.26749 0.0
O1147 O 0.79204 0.29243 0.23892 0.0
C1148 C 0.8352 0.29078 0.29126 0.0
C1149 C 0.76231 0.35783 0.25891 0.0
C1150 C 0.73849 0.38375 0.25698 0.0
C1151 C 0.7299 0.37417 0.23357 0.0
C1152 C 0.75338 0.34793 0.23569 0.0
C1153 C 0.73719 0.35615 0.22306 0.0
C1154 C 0.75457 0.37539 0.26963 0.0
C1155 C 0.79849 0.30158 0.32342 0.0
C1156 C 0.78084 0.35131 0.27173 0.0
C1157 C 0.87436 0.35245 0.23006 0.0
C1158 C 0.88269 0.36205 0.25348 0.0
C1159 C 0.74932 0.27991 0.2706 0.0
C1160 C 0.81146 0.20359 0.30626 0.0
C1161 C 0.83035 0.17351 0.30851 0.0
C1162 C 0.82543 0.172 0.33145 0.0
C1163 C 0.80618 0.20172 0.32904 0.0
C1164 C 0.82327 0.18923 0.29592 0.0
C1165 C 0.81318 0.18596 0.34159 0.0
C1166 C 0.79229 0.27332 0.24496 0.0
C1167 C 0.80811 0.22238 0.29432 0.0
H1168 H 0.71752 0.38057 0.22351 0.0
H1169 H 0.75924 0.33423 0.22726 0.0
H1170 H 0.7305 0.34875 0.20505 0.0
H1171 H 0.76164 0.3831 0.28754 0.0
H1172 H 0.83094 0.15994 0.3414 0.0
H1173 H 0.7973 0.2128 0.33738 0.0
H1174 H 0.82784 0.19088 0.27852 0.0
H1175 H 0.80941 0.18479 0.3593 0.0
Tb1176 Tb 0.03883 0.5643 0.52226 0.0
C1177 C 0.07584 0.51257 0.61149 0.0
N1178 N 0.06046 0.50429 0.5919 0.0
C1179 C 0.07413 0.47097 0.58696 0.0
C1180 C 0.09166 0.50076 0.61901 0.0
C1181 C 0.05896 0.48343 0.58003 0.0
C1182 C 0.09075 0.47979 0.60635 0.0
C1183 C 0.09186 0.54262 0.64396 0.0
C1184 C 0.07577 0.53305 0.62396 0.0
C1185 C 0.108 0.53118 0.65123 0.0
C1186 C 0.10785 0.51026 0.63884 0.0
Tb1187 Tb 0.03773 0.52692 0.58116 0.0
N1188 N 0.06044 0.54402 0.61577 0.0
C1189 C 0.09136 0.56348 0.65589 0.0
C1190 C 0.05917 0.56382 0.62815 0.0
C1191 C 0.07477 0.57398 0.6481 0.0
H1192 H 0.04588 0.47614 0.56534 0.0
H1193 H 0.07393 0.58989 0.6575 0.0
H1194 H 0.02948 0.61284 0.54417 0.0
H1195 H 1.00394 0.51073 0.43931 0.0
H1196 H 0.04622 0.57201 0.62301 0.0
H1197 H 0.10351 0.57147 0.67126 0.0
H1198 H 0.03348 0.52807 0.47286 0.0
H1199 H 0.07298 0.45456 0.57733 0.0
H1200 H 0.12062 0.53834 0.66645 0.0
H1201 H 0.12032 0.50156 0.64473 0.0
H1202 H 0.9996 0.63286 0.53874 0.0
H1203 H 0.10258 0.47016 0.61156 0.0
H1204 H 0.96954 0.5247 0.43363 0.0
N1205 N 0.01393 0.58603 0.51649 0.0
C1206 C 0.99688 0.57809 0.4984 0.0
C1207 C 0.99851 0.61733 0.52738 0.0
C1208 C 0.97938 0.58891 0.4946 0.0
C1209 C 0.01536 0.6058 0.53054 0.0
C1210 C 0.98025 0.60869 0.50954 0.0
N1211 N 0.01487 0.54973 0.48786 0.0
C1212 C 0.01812 0.53359 0.47135 0.0
C1213 C 0.98022 0.55026 0.46432 0.0
C1214 C 0.99723 0.55904 0.48368 0.0
C1215 C 0.98227 0.53205 0.44871 0.0
C1216 C 1.00161 0.52406 0.45192 0.0
H1217 H 0.96716 0.61758 0.50721 0.0
H1218 H 0.94797 0.58758 0.47291 0.0
H1219 H 0.94873 0.55368 0.44629 0.0
O1220 O 0.064 0.56508 0.50109 0.0
O1221 O 1.00573 0.55291 0.53239 0.0
O1222 O 0.01749 0.5257 0.54789 0.0
O1223 O 0.05959 0.59587 0.51914 0.0
O1224 O 0.04276 0.52894 0.51396 0.0
O1225 O 0.04197 0.50847 0.54668 0.0
O1226 O 1.01117 0.52699 0.60068 0.0
O1227 O 0.07194 0.54653 0.58179 0.0
O1228 O 0.05348 0.55166 0.55051 0.0
O1229 O 0.01841 0.4959 0.58706 0.0
O1230 O 0.02815 0.55991 0.58412 0.0
O1231 O 0.04531 0.58354 0.55831 0.0
C1232 C 1.00197 0.53642 0.54473 0.0
C1233 C 0.07114 0.59585 0.48144 0.0
C1234 C 0.0862 0.59473 0.4447 0.0
C1235 C 0.07118 0.60662 0.43577 0.0
C1236 C 0.05589 0.60762 0.47256 0.0
C1237 C 0.05616 0.61321 0.44981 0.0
C1238 C 0.0864 0.58974 0.46754 0.0
C1239 C 0.04404 0.51063 0.5241 0.0
C1240 C 0.06982 0.58689 0.50362 0.0
C1241 C 0.96176 0.57969 0.47599 0.0
C1242 C 0.96216 0.56036 0.46088 0.0
C1243 C 0.07284 0.55597 0.56328 0.0
C1244 C 1.00565 0.4981 0.62377 0.0
C1245 C 0.99009 0.50044 0.66004 0.0
C1246 C 1.00298 0.48652 0.66888 0.0
C1247 C 0.01874 0.48418 0.63252 0.0
C1248 C 0.99126 0.50601 0.63756 0.0
C1249 C 0.01724 0.47832 0.65503 0.0
C1250 C 0.03501 0.57996 0.57711 0.0
C1251 C 1.00698 0.50535 0.60075 0.0
H1252 H 0.07089 0.61047 0.41794 0.0
H1253 H 0.04354 0.61198 0.48289 0.0
H1254 H 0.04438 0.62218 0.44287 0.0
H1255 H 0.09774 0.58007 0.47407 0.0
H1256 H 1.002 0.4821 0.68641 0.0
H1257 H 0.03013 0.47794 0.62214 0.0
H1258 H 0.98123 0.5169 0.63097 0.0
H1259 H 0.02725 0.46757 0.66178 0.0
Tb1260 Tb 0.81703 0.77418 0.29673 0.0
C1261 C 0.74091 0.81138 0.24741 0.0
N1262 N 0.75525 0.8208 0.26746 0.0
C1263 C 0.76348 0.85621 0.25288 0.0
C1264 C 0.73776 0.82379 0.22891 0.0
C1265 C 0.7659 0.84314 0.27079 0.0
C1266 C 0.74957 0.84642 0.23171 0.0
C1267 C 0.71358 0.77868 0.22567 0.0
C1268 C 0.72926 0.78916 0.24565 0.0
C1269 C 0.71073 0.7907 0.2068 0.0
C1270 C 0.72289 0.8132 0.20838 0.0
Tb1271 Tb 0.76096 0.79684 0.29362 0.0
N1272 N 0.73329 0.77791 0.26384 0.0
C1273 C 0.70101 0.75663 0.22556 0.0
C1274 C 0.71976 0.75732 0.26479 0.0
C1275 C 0.70372 0.74612 0.2455 0.0
H1276 H 0.77622 0.85097 0.28727 0.0
H1277 H 0.69332 0.72952 0.24611 0.0
H1278 H 0.80732 0.72131 0.30719 0.0
H1279 H 0.87154 0.85161 0.3453 0.0
H1280 H 0.72092 0.74982 0.28065 0.0
H1281 H 0.68866 0.74794 0.2106 0.0
H1282 H 0.84764 0.82776 0.31077 0.0
H1283 H 0.77232 0.87382 0.25544 0.0
H1284 H 0.69898 0.78288 0.1911 0.0
H1285 H 0.72039 0.82237 0.19382 0.0
H1286 H 0.81814 0.70096 0.33912 0.0
H1287 H 0.74776 0.85656 0.21786 0.0
H1288 H 0.88165 0.83472 0.38048 0.0
N1289 N 0.82608 0.75348 0.32487 0.0
C1290 C 0.84031 0.76517 0.34421 0.0
C1291 C 0.82442 0.71903 0.34083 0.0
C1292 C 0.84682 0.75425 0.36294 0.0
C1293 C 0.81822 0.73065 0.32284 0.0
C1294 C 0.8387 0.73089 0.36103 0.0
N1295 N 0.84121 0.79816 0.32689 0.0
C1296 C 0.8504 0.82039 0.32632 0.0
C1297 C 0.86256 0.80109 0.36526 0.0
C1298 C 0.84804 0.78828 0.34534 0.0
C1299 C 0.8705 0.82426 0.3655 0.0
C1300 C 0.86468 0.83388 0.34576 0.0
H1301 H 0.84338 0.72185 0.375 0.0
H1302 H 0.86627 0.7589 0.39753 0.0
H1303 H 0.87999 0.79992 0.39961 0.0
O1304 O 0.84553 0.78435 0.27886 0.0
O1305 O 0.80245 0.78005 0.32966 0.0
O1306 O 0.78838 0.80997 0.32275 0.0
O1307 O 0.83302 0.74982 0.28497 0.0
O1308 O 0.81614 0.80413 0.27953 0.0
O1309 O 0.79362 0.82126 0.3002 0.0
O1310 O 0.73715 0.7868 0.31639 0.0
O1311 O 0.77168 0.78616 0.2594 0.0
O1312 O 0.79173 0.75963 0.26586 0.0
O1313 O 0.74429 0.82028 0.30733 0.0
O1314 O 0.75874 0.76345 0.30477 0.0
O1315 O 0.78605 0.74737 0.29016 0.0
C1316 C 0.79524 0.79756 0.33744 0.0
C1317 C 0.86469 0.75578 0.26373 0.0
C1318 C 0.89768 0.76199 0.24345 0.0
C1319 C 0.89591 0.73872 0.24041 0.0
C1320 C 0.86338 0.73256 0.26044 0.0
C1321 C 0.87884 0.72414 0.2488 0.0
C1322 C 0.88184 0.77058 0.25492 0.0
C1323 C 0.80906 0.82203 0.28622 0.0
C1324 C 0.84762 0.76374 0.27591 0.0
C1325 C 0.86112 0.76697 0.38292 0.0
C1326 C 0.86891 0.79034 0.38411 0.0
C1327 C 0.78077 0.76985 0.25168 0.0
C1328 C 0.70761 0.80561 0.31627 0.0
C1329 C 0.67272 0.80152 0.33371 0.0
C1330 C 0.66309 0.80958 0.31436 0.0
C1331 C 0.6973 0.81309 0.29687 0.0
C1332 C 0.69508 0.79945 0.33461 0.0
C1333 C 0.67523 0.81513 0.29603 0.0
C1334 C 0.76726 0.74614 0.29926 0.0
C1335 C 0.73183 0.80605 0.31837 0.0
H1336 H 0.90782 0.73179 0.23145 0.0
H1337 H 0.85029 0.72075 0.26678 0.0
H1338 H 0.87762 0.70624 0.24634 0.0
H1339 H 0.88308 0.78851 0.25725 0.0
H1340 H 0.64605 0.81155 0.31345 0.0
H1341 H 0.70645 0.81787 0.28257 0.0
H1342 H 0.70286 0.79374 0.34973 0.0
H1343 H 0.66758 0.82132 0.28122 0.0
Tb1344 Tb 0.77886 0.28748 0.8189 0.0
C1345 C 0.82994 0.25225 0.73252 0.0
N1346 N 0.83729 0.26779 0.75224 0.0
C1347 C 0.87013 0.25373 0.75971 0.0
C1348 C 0.84189 0.23614 0.72632 0.0
C1349 C 0.85757 0.26922 0.76533 0.0
C1350 C 0.86213 0.23693 0.74033 0.0
C1351 C 0.80139 0.236 0.69865 0.0
C1352 C 0.81015 0.25234 0.71862 0.0
C1353 C 0.81305 0.21967 0.69265 0.0
C1354 C 0.83329 0.21979 0.70639 0.0
Tb1355 Tb 0.81482 0.2918 0.7596 0.0
N1356 N 0.79869 0.26764 0.72576 0.0
C1357 C 0.78101 0.23637 0.68558 0.0
C1358 C 0.77945 0.26885 0.71232 0.0
C1359 C 0.77014 0.25303 0.69231 0.0
H1360 H 0.86462 0.28258 0.77978 0.0
H1361 H 0.75461 0.25374 0.68206 0.0
H1362 H 0.72685 0.29129 0.8044 0.0
H1363 H 0.84509 0.33465 0.88866 0.0
H1364 H 0.77119 0.28196 0.7168 0.0
H1365 H 0.77365 0.22402 0.67018 0.0
H1366 H 0.82667 0.30286 0.85842 0.0
H1367 H 0.88608 0.25487 0.77026 0.0
H1368 H 0.80655 0.20687 0.67744 0.0
H1369 H 0.84215 0.20715 0.70148 0.0
H1370 H 0.70357 0.31733 0.81476 0.0
H1371 H 0.87187 0.2249 0.73611 0.0
H1372 H 0.82539 0.36394 0.89993 0.0
N1373 N 0.75529 0.3092 0.82922 0.0
C1374 C 0.76379 0.32678 0.84663 0.0
C1375 C 0.72052 0.32024 0.82384 0.0
C1376 C 0.75119 0.34227 0.85296 0.0
C1377 C 0.73382 0.30552 0.81799 0.0
C1378 C 0.72929 0.3388 0.8413 0.0
N1379 N 0.79693 0.31421 0.85057 0.0
C1380 C 0.81786 0.31557 0.86217 0.0
C1381 C 0.7953 0.34794 0.87533 0.0
C1382 C 0.78546 0.32952 0.85757 0.0
C1383 C 0.81718 0.35 0.88627 0.0
C1384 C 0.82837 0.33356 0.87987 0.0
H1385 H 0.71904 0.35031 0.84563 0.0
H1386 H 0.75164 0.373 0.87546 0.0
H1387 H 0.79034 0.378 0.89505 0.0
O1388 O 0.77896 0.26492 0.84294 0.0
O1389 O 0.78679 0.31985 0.80778 0.0
O1390 O 0.81753 0.31425 0.79253 0.0
O1391 O 0.74887 0.26273 0.81889 0.0
O1392 O 0.81239 0.27889 0.82315 0.0
O1393 O 0.8351 0.29412 0.79545 0.0
O1394 O 0.81299 0.31691 0.73822 0.0
O1395 O 0.79467 0.25763 0.75822 0.0
O1396 O 0.79216 0.27589 0.79031 0.0
O1397 O 0.84462 0.30773 0.74772 0.0
O1398 O 0.78097 0.29968 0.75663 0.0
O1399 O 0.7579 0.28393 0.78398 0.0
C1400 C 0.80378 0.32699 0.79672 0.0
C1401 C 0.74496 0.25181 0.85668 0.0
C1402 C 0.74307 0.23789 0.8942 0.0
C1403 C 0.72206 0.24294 0.89497 0.0
C1404 C 0.72403 0.25685 0.8575 0.0
C1405 C 0.71269 0.25245 0.87671 0.0
C1406 C 0.75436 0.2426 0.87506 0.0
C1407 C 0.8322 0.28487 0.81521 0.0
C1408 C 0.75763 0.25537 0.83699 0.0
C1409 C 0.76095 0.36078 0.87046 0.0
C1410 C 0.783 0.36364 0.88159 0.0
C1411 C 0.78661 0.25673 0.77734 0.0
C1412 C 0.84562 0.33645 0.72254 0.0
C1413 C 0.84431 0.35664 0.68909 0.0
C1414 C 0.86765 0.36586 0.69447 0.0
C1415 C 0.86891 0.34565 0.72779 0.0
C1416 C 0.83336 0.3421 0.70335 0.0
C1417 C 0.87984 0.36043 0.71383 0.0
C1418 C 0.76119 0.29316 0.76442 0.0
C1419 C 0.83422 0.31999 0.73616 0.0
H1420 H 0.71274 0.23923 0.90941 0.0
H1421 H 0.71647 0.26405 0.84343 0.0
H1422 H 0.6965 0.25624 0.87737 0.0
H1423 H 0.77076 0.23922 0.87445 0.0
H1424 H 0.87642 0.37737 0.68382 0.0
H1425 H 0.87861 0.3414 0.74262 0.0
H1426 H 0.81542 0.33456 0.699 0.0
H1427 H 0.89781 0.36758 0.71793 0.0
Tb1428 Tb 0.76725 0.75459 0.77187 0.0
C1429 C 0.84364 0.84001 0.833 0.0
N1430 N 0.82334 0.82787 0.83671 0.0
C1431 C 0.83623 0.83372 0.87825 0.0
C1432 C 0.86135 0.84892 0.85169 0.0
C1433 C 0.81925 0.82511 0.85909 0.0
C1434 C 0.85748 0.84544 0.87451 0.0
C1435 C 0.86692 0.8573 0.80575 0.0
C1436 C 0.84632 0.84431 0.81049 0.0
C1437 C 0.88494 0.86548 0.82409 0.0
C1438 C 0.88214 0.86138 0.84705 0.0
Tb1439 Tb 0.79686 0.81423 0.80403 0.0
N1440 N 0.82849 0.83615 0.79331 0.0
C1441 C 0.86863 0.86194 0.7828 0.0
C1442 C 0.82974 0.84174 0.77124 0.0
C1443 C 0.84983 0.85431 0.76551 0.0
H1444 H 0.80276 0.81628 0.86215 0.0
H1445 H 0.85075 0.85821 0.7478 0.0
H1446 H 0.76389 0.75758 0.71369 0.0
H1447 H 0.70628 0.7045 0.8165 0.0
H1448 H 0.81537 0.8365 0.75803 0.0
H1449 H 0.88418 0.87173 0.77838 0.0
H1450 H 0.74428 0.7224 0.80896 0.0
H1451 H 0.8329 0.83132 0.89588 0.0
H1452 H 0.90096 0.87534 0.82079 0.0
H1453 H 0.89603 0.86819 0.86115 0.0
H1454 H 0.73433 0.75481 0.68075 0.0
H1455 H 0.87061 0.8521 0.88938 0.0
H1456 H 0.6732 0.70472 0.78822 0.0
N1457 N 0.74146 0.75117 0.73888 0.0
C1458 C 0.71962 0.74269 0.74161 0.0
C1459 C 0.72991 0.75192 0.69793 0.0
C1460 C 0.70202 0.73938 0.72277 0.0
C1461 C 0.74677 0.75436 0.71697 0.0
C1462 C 0.70739 0.74484 0.70094 0.0
N1463 N 0.7328 0.73646 0.77951 0.0
C1464 C 0.72995 0.72447 0.79783 0.0
C1465 C 0.69314 0.7237 0.7653 0.0
C1466 C 0.71517 0.73493 0.76262 0.0
C1467 C 0.68984 0.71363 0.78555 0.0
C1468 C 0.70843 0.71355 0.80162 0.0
H1469 H 0.69438 0.74243 0.686 0.0
H1470 H 0.66611 0.72691 0.71164 0.0
H1471 H 0.65836 0.71316 0.74888 0.0
O1472 O 0.77798 0.72723 0.78299 0.0
O1473 O 0.74439 0.77722 0.77961 0.0
O1474 O 0.76327 0.79884 0.81376 0.0
O1475 O 0.75976 0.72486 0.74813 0.0
O1476 O 0.77015 0.75851 0.81066 0.0
O1477 O 0.80126 0.7874 0.82481 0.0
O1478 O 0.78636 0.84159 0.7926 0.0
O1479 O 0.82273 0.79994 0.78808 0.0
O1480 O 0.80516 0.76272 0.7723 0.0
O1481 O 0.78683 0.83552 0.829 0.0
O1482 O 0.7787 0.80869 0.76783 0.0
O1483 O 0.78509 0.7769 0.74974 0.0
C1484 C 0.74424 0.79033 0.79934 0.0
C1485 C 0.7877 0.70526 0.75207 0.0
C1486 C 0.81199 0.68013 0.75583 0.0
C1487 C 0.81928 0.68456 0.73433 0.0
C1488 C 0.79542 0.71036 0.73087 0.0
C1489 C 0.8111 0.69984 0.72198 0.0
C1490 C 0.79601 0.69025 0.76436 0.0
C1491 C 0.78641 0.76922 0.82767 0.0
C1492 C 0.77119 0.71531 0.76217 0.0
C1493 C 0.67984 0.72949 0.72589 0.0
C1494 C 0.67541 0.72166 0.74711 0.0
C1495 C 0.82366 0.77976 0.77813 0.0
C1496 C 0.78893 0.87246 0.82151 0.0
C1497 C 0.77897 0.9074 0.8174 0.0
C1498 C 0.79463 0.91805 0.83734 0.0
C1499 C 0.80477 0.88293 0.84129 0.0
C1500 C 0.7762 0.88465 0.80978 0.0
C1501 C 0.80754 0.90579 0.84919 0.0
C1502 C 0.78364 0.7976 0.74923 0.0
C1503 C 0.78285 0.84848 0.81374 0.0
H1504 H 0.83158 0.67663 0.72744 0.0
H1505 H 0.78939 0.72234 0.72124 0.0
H1506 H 0.817 0.70362 0.70562 0.0
H1507 H 0.78988 0.68634 0.78068 0.0
H1508 H 0.79702 0.93578 0.84357 0.0
H1509 H 0.81454 0.87347 0.8508 0.0
H1510 H 0.76347 0.87611 0.79499 0.0
H1511 H 0.81955 0.91397 0.86457 0.0
Tb1512 Tb 0.58164 0.55931 0.57205 0.0
C1513 C 0.50461 0.48084 0.51444 0.0
N1514 N 0.51568 0.50141 0.50997 0.0
C1515 C 0.51495 0.48578 0.46978 0.0
C1516 C 0.49898 0.46181 0.49691 0.0
C1517 C 0.51973 0.50422 0.4876 0.0
C1518 C 0.50485 0.46441 0.47454 0.0
C1519 C 0.48448 0.45867 0.54104 0.0
C1520 C 0.4974 0.47922 0.53619 0.0
C1521 C 0.47955 0.43951 0.52392 0.0
C1522 C 0.48684 0.44107 0.50193 0.0
Tb1523 Tb 0.52121 0.53019 0.54059 0.0
N1524 N 0.50271 0.49802 0.55248 0.0
C1525 C 0.47661 0.45814 0.56281 0.0
C1526 C 0.49343 0.49803 0.57276 0.0
C1527 C 0.4808 0.47803 0.57859 0.0
H1528 H 0.52544 0.52067 0.48291 0.0
H1529 H 0.47386 0.47807 0.59497 0.0
H1530 H 0.57232 0.57019 0.62811 0.0
H1531 H 0.61942 0.61315 0.51226 0.0
H1532 H 0.49504 0.5136 0.58402 0.0
H1533 H 0.46663 0.44268 0.56724 0.0
H1534 H 0.60005 0.57745 0.52333 0.0
H1535 H 0.51843 0.48819 0.45219 0.0
H1536 H 0.46978 0.42351 0.52735 0.0
H1537 H 0.48245 0.42626 0.48869 0.0
H1538 H 0.58021 0.60313 0.65835 0.0
H1539 H 0.50075 0.45023 0.46055 0.0
H1540 H 0.63019 0.64758 0.5416 0.0
N1541 N 0.58468 0.58858 0.60124 0.0
C1542 C 0.59664 0.60873 0.59661 0.0
C1543 C 0.5845 0.60505 0.64093 0.0
C1544 C 0.60256 0.62793 0.61398 0.0
C1545 C 0.57924 0.58643 0.62332 0.0
C1546 C 0.59611 0.62592 0.63622 0.0
N1547 N 0.59697 0.59144 0.55777 0.0
C1548 C 0.6031 0.59232 0.53587 0.0
C1549 C 0.61542 0.63085 0.56909 0.0
C1550 C 0.6032 0.61013 0.57437 0.0
C1551 C 0.62096 0.63194 0.54638 0.0
C1552 C 0.61475 0.6126 0.52971 0.0
H1553 H 0.60047 0.64025 0.65005 0.0
H1554 H 0.61986 0.66327 0.62199 0.0
H1555 H 0.631 0.66585 0.58273 0.0
O1556 O 0.6152 0.56102 0.56756 0.0
O1557 O 0.55912 0.58248 0.56408 0.0
O1558 O 0.53369 0.56464 0.53142 0.0
O1559 O 0.60506 0.56218 0.60193 0.0
O1560 O 0.57952 0.54226 0.5356 0.0
O1561 O 0.54503 0.54417 0.51758 0.0
O1562 O 0.49411 0.54167 0.55155 0.0
O1563 O 0.5388 0.50525 0.5547 0.0
O1564 O 0.5758 0.52216 0.57114 0.0
O1565 O 0.49192 0.52415 0.51647 0.0
O1566 O 0.52642 0.54762 0.57697 0.0
O1567 O 0.55905 0.54192 0.59443 0.0
C1568 C 0.54509 0.58343 0.54521 0.0
C1569 C 0.63444 0.54543 0.59653 0.0
C1570 C 0.65769 0.52042 0.5858 0.0
C1571 C 0.66261 0.51813 0.60963 0.0
C1572 C 0.63946 0.54314 0.62029 0.0
C1573 C 0.65324 0.52925 0.62673 0.0
C1574 C 0.64304 0.53351 0.57938 0.0
C1575 C 0.56572 0.54248 0.51649 0.0
C1576 C 0.6213 0.56116 0.58991 0.0
C1577 C 0.61507 0.64841 0.6088 0.0
C1578 C 0.62151 0.64985 0.58647 0.0
C1579 C 0.55886 0.50399 0.56469 0.0
C1580 C 0.47108 0.55104 0.52131 0.0
C1581 C 0.44284 0.57172 0.52457 0.0
C1582 C 0.44609 0.579 0.50287 0.0
C1583 C 0.47458 0.55828 0.49952 0.0
C1584 C 0.45534 0.55793 0.53379 0.0
C1585 C 0.46202 0.57225 0.49037 0.0
C1586 C 0.53815 0.54271 0.59507 0.0
C1587 C 0.48213 0.53499 0.53084 0.0
H1588 H 0.67426 0.50843 0.61515 0.0
H1589 H 0.63296 0.5523 0.63388 0.0
H1590 H 0.65721 0.52765 0.64507 0.0
H1591 H 0.6389 0.53494 0.56099 0.0
H1592 H 0.43595 0.58933 0.49543 0.0
H1593 H 0.48672 0.55298 0.48951 0.0
H1594 H 0.45215 0.55184 0.5503 0.0
H1595 H 0.46438 0.57753 0.47342 0.0
Tb1596 Tb 0.01496 0.54014 0.07642 0.0
C1597 C 0.09766 0.58268 0.02348 0.0
N1598 N 0.08264 0.56242 0.01675 0.0
C1599 C 0.0825 0.56764 0.97633 0.0
C1600 C 0.10512 0.59667 0.00691 0.0
C1601 C 0.07585 0.55428 0.99352 0.0
C1602 C 0.09691 0.5891 0.98308 0.0
C1603 C 0.12289 0.60908 0.05481 0.0
C1604 C 0.10643 0.58879 0.04701 0.0
C1605 C 0.12978 0.62358 0.03853 0.0
C1606 C 0.12088 0.6174 0.01462 0.0
Tb1607 Tb 0.07118 0.54307 0.04626 0.0
N1608 N 0.09893 0.57449 0.06221 0.0
C1609 C 0.13224 0.61386 0.07858 0.0
C1610 C 0.10935 0.57815 0.08487 0.0
C1611 C 0.12576 0.59807 0.09358 0.0
H1612 H 0.06555 0.53733 0.98828 0.0
H1613 H 0.13366 0.60103 0.11173 0.0
H1614 H 0.03091 0.54357 0.13464 0.0
H1615 H 0.95753 0.47538 0.01281 0.0
H1616 H 0.10572 0.56549 0.09603 0.0
H1617 H 0.14501 0.62924 0.08532 0.0
H1618 H 0.98548 0.51151 0.02585 0.0
H1619 H 0.07668 0.5613 0.9579 0.0
H1620 H 0.14228 0.63938 0.04417 0.0
H1621 H 0.12668 0.62852 1.00218 0.0
H1622 H 0.0229 0.51933 0.165 0.0
H1623 H 0.10215 0.59936 0.96974 0.0
H1624 H 0.94621 0.4498 0.04168 0.0
N1625 N 1.00968 0.51976 0.10678 0.0
C1626 C 0.99403 0.49969 0.10105 0.0
C1627 C 0.01484 0.51351 0.14703 0.0
C1628 C 0.98862 0.4855 0.11812 0.0
C1629 C 0.01965 0.52707 0.12956 0.0
C1630 C 0.99937 0.4926 0.14128 0.0
N1631 N 0.98977 0.50681 0.06163 0.0
C1632 C 0.98043 0.50079 0.03859 0.0
C1633 C 0.9678 0.47216 0.07119 0.0
C1634 C 0.98353 0.49314 0.07788 0.0
C1635 C 0.95831 0.46582 0.04752 0.0
C1636 C 0.96467 0.4802 0.03117 0.0
H1637 H 0.99568 0.48217 0.15489 0.0
H1638 H 0.96837 0.45361 0.12447 0.0
H1639 H 0.95028 0.44188 0.08339 0.0
O1640 O 0.98526 0.54945 0.06451 0.0
O1641 O 0.02449 0.50722 0.06543 0.0
O1642 O 0.04423 0.51191 0.03383 0.0
O1643 O 0.99904 0.55508 0.10145 0.0
O1644 O 0.01914 0.5535 0.04375 0.0
O1645 O 0.04045 0.53607 0.02139 0.0
O1646 O 0.09533 0.52828 0.06266 0.0
O1647 O 0.06391 0.577 0.05555 0.0
O1648 O 0.03726 0.57506 0.08152 0.0
O1649 O 0.08771 0.52469 0.0249 0.0
O1650 O 0.06297 0.53242 0.07914 0.0
O1651 O 0.04548 0.5539 0.10005 0.0
C1652 C 0.03252 0.49867 0.04688 0.0
C1653 C 0.96158 0.55799 0.09256 0.0
C1654 C 0.9312 0.57695 0.09188 0.0
C1655 C 0.924 0.56662 0.11109 0.0
C1656 C 0.95411 0.54756 0.11155 0.0
C1657 C 0.9353 0.55185 0.12069 0.0
C1658 C 0.94985 0.5723 0.08253 0.0
C1659 C 0.02271 0.54404 0.02372 0.0
C1660 C 0.98361 0.55792 0.08572 0.0
C1661 C 0.97271 0.46472 0.11158 0.0
C1662 C 0.96236 0.45806 0.08819 0.0
C1663 C 0.05257 0.58672 0.07018 0.0
C1664 C 0.12426 0.52387 0.04012 0.0
C1665 C 0.15745 0.50893 0.04122 0.0
C1666 C 0.16775 0.5263 0.02936 0.0
C1667 C 0.13498 0.54133 0.02863 0.0
C1668 C 0.13573 0.50791 0.04686 0.0
C1669 C 0.15663 0.5425 0.02331 0.0
C1670 C 0.06291 0.54606 0.09789 0.0
C1671 C 0.10036 0.52057 0.04255 0.0
H1672 H 0.90958 0.56988 0.11859 0.0
H1673 H 0.96323 0.53678 0.11978 0.0
H1674 H 0.92973 0.54408 0.13555 0.0
H1675 H 0.95602 0.58082 0.06827 0.0
H1676 H 0.18446 0.52732 0.02479 0.0
H1677 H 0.12639 0.55363 0.02307 0.0
H1678 H 0.12745 0.49422 0.05548 0.0
H1679 H 0.16466 0.55577 0.0141 0.0
C1680 C 0.99878 0.19468 0.98682 0.0
C1681 C 0.01517 0.21547 0.99177 0.0
C1682 C 1.00251 0.17438 0.99445 0.0
C1683 C 0.0236 0.17383 0.00698 0.0
C1684 C 0.04035 0.19475 0.01185 0.0
C1685 C 0.03599 0.21496 0.0044 0.0
C1686 C 0.98372 0.15322 0.98871 0.0
C1687 C 0.06342 0.19565 0.02421 0.0
C1688 C 0.02794 0.12463 0.04378 0.0
C1689 C 0.03494 0.10896 0.02845 0.0
C1690 C 0.02432 0.14536 0.03717 0.0
C1691 C 0.02807 0.15155 0.0146 0.0
C1692 C 0.03566 0.13592 0.99926 0.0
C1693 C 0.03873 0.1151 0.00617 0.0
C1694 C 0.01605 0.16062 0.05444 0.0
C1695 C 0.04049 0.14107 0.97522 0.0
H1696 H 0.98286 0.19417 0.97647 0.0
H1697 H 0.04935 0.2303 0.00767 0.0
H1698 H 0.98898 0.14026 0.9773 0.0
H1699 H 0.97998 0.14628 0.00511 0.0
H1700 H 0.96808 0.15618 0.97962 0.0
H1701 H 0.07448 0.213 0.02764 0.0
H1702 H 0.06212 0.18904 0.04118 0.0
H1703 H 0.07148 0.18473 0.01328 0.0
H1704 H 0.02494 0.12051 0.06105 0.0
H1705 H 0.04429 0.10357 0.994 0.0
H1706 H 0.99961 0.16288 0.04666 0.0
H1707 H 0.02798 0.17749 0.05819 0.0
H1708 H 0.01403 0.15389 0.0713 0.0
H1709 H 0.02447 0.13992 0.96382 0.0
H1710 H 0.04922 0.1292 0.96664 0.0
H1711 H 0.05101 0.15849 0.97641 0.0
C1712 C 0.15281 0.82082 0.16629 0.0
C1713 C 0.13146 0.81296 0.17289 0.0
C1714 C 0.17267 0.81932 0.18025 0.0
C1715 C 0.17132 0.80949 0.20129 0.0
C1716 C 0.14988 0.80194 0.20823 0.0
C1717 C 0.13042 0.80387 0.19416 0.0
C1718 C 0.1951 0.82776 0.17217 0.0
C1719 C 0.14739 0.79126 0.23033 0.0
C1720 C 0.21804 0.78309 0.22571 0.0
C1721 C 0.23012 0.79965 0.24423 0.0
C1722 C 0.19929 0.78627 0.21135 0.0
C1723 C 0.19208 0.80641 0.21577 0.0
C1724 C 0.20415 0.82304 0.23478 0.0
C1725 C 0.22302 0.8195 0.24866 0.0
C1726 C 0.18707 0.76797 0.1915 0.0
C1727 C 0.19717 0.84465 0.24044 0.0
H1728 H 0.15401 0.82775 0.14996 0.0
H1729 H 0.11419 0.7976 0.19965 0.0
H1730 H 0.20689 0.83959 0.18652 0.0
H1731 H 0.20261 0.81342 0.16777 0.0
H1732 H 0.19361 0.83642 0.15647 0.0
H1733 H 0.1296 0.78634 0.23347 0.0
H1734 H 0.15406 0.77603 0.22913 0.0
H1735 H 0.15737 0.80309 0.24579 0.0
H1736 H 0.22337 0.76764 0.22237 0.0
H1737 H 0.23231 0.83232 0.26301 0.0
H1738 H 0.18654 0.77488 0.17462 0.0
H1739 H 0.16942 0.76149 0.19442 0.0
H1740 H 0.19517 0.75369 0.18982 0.0
H1741 H 0.1983 0.85408 0.22522 0.0
H1742 H 0.20782 0.85559 0.25617 0.0
H1743 H 0.17939 0.84092 0.24364 0.0
C1744 C 0.54022 0.86684 0.48788 0.0
C1745 C 0.52575 0.84982 0.49722 0.0
C1746 C 0.54236 0.89024 0.49495 0.0
C1747 C 0.5294 0.89761 0.5117 0.0
C1748 C 0.51466 0.88049 0.52118 0.0
C1749 C 0.51302 0.85711 0.51392 0.0
C1750 C 0.55828 0.90719 0.48398 0.0
C1751 C 0.50006 0.88689 0.53865 0.0
C1752 C 0.55095 0.95951 0.5438 0.0
C1753 C 0.53714 0.97129 0.53212 0.0
C1754 C 0.54813 0.93584 0.53795 0.0
C1755 C 0.53146 0.92302 0.51923 0.0
C1756 C 0.51745 0.93492 0.50731 0.0
C1757 C 0.52025 0.95856 0.51401 0.0
C1758 C 0.56331 0.92454 0.55179 0.0
C1759 C 0.49991 0.92285 0.48679 0.0
H1760 H 0.54972 0.86177 0.47448 0.0
H1761 H 0.50112 0.84448 0.52076 0.0
H1762 H 0.54896 0.91799 0.47511 0.0
H1763 H 0.57121 0.91839 0.49785 0.0
H1764 H 0.56693 0.89907 0.47095 0.0
H1765 H 0.49018 0.87202 0.54527 0.0
H1766 H 0.5106 0.89876 0.5538 0.0
H1767 H 0.48821 0.89571 0.5303 0.0
H1768 H 0.56411 0.96892 0.55775 0.0
H1769 H 0.50956 0.96724 0.50454 0.0
H1770 H 0.57422 0.91808 0.54017 0.0
H1771 H 0.55311 0.90991 0.55846 0.0
H1772 H 0.57419 0.93618 0.56693 0.0
H1773 H 0.50837 0.91798 0.47179 0.0
H1774 H 0.4887 0.93349 0.48099 0.0
H1775 H 0.48948 0.90715 0.49136 0.0
C1776 C 0.51936 0.29432 0.69926 0.0
C1777 C 0.51983 0.29598 0.67538 0.0
C1778 C 0.49918 0.29161 0.70876 0.0
C1779 C 0.47884 0.28983 0.69383 0.0
C1780 C 0.47932 0.29237 0.66983 0.0
C1781 C 0.49996 0.29575 0.66093 0.0
C1782 C 0.49951 0.28949 0.73457 0.0
C1783 C 0.45799 0.29061 0.65344 0.0
C1784 C 0.43163 0.253 0.71798 0.0
C1785 C 0.42381 0.26905 0.73148 0.0
C1786 C 0.44812 0.25955 0.70366 0.0
C1787 C 0.45719 0.28275 0.70314 0.0
C1788 C 0.44784 0.29891 0.71508 0.0
C1789 C 0.43111 0.29182 0.7291 0.0
C1790 C 0.45718 0.24171 0.69071 0.0
C1791 C 0.45686 0.32376 0.71482 0.0
H1792 H 0.53478 0.29468 0.71047 0.0
H1793 H 0.50036 0.29697 0.64242 0.0
H1794 H 0.49045 0.30105 0.74302 0.0
H1795 H 0.49073 0.27209 0.73654 0.0
H1796 H 0.5169 0.29332 0.74414 0.0
H1797 H 0.46108 0.2917 0.63499 0.0
H1798 H 0.44564 0.27447 0.65386 0.0
H1799 H 0.45018 0.30435 0.65934 0.0
H1800 H 0.42557 0.23534 0.7195 0.0
H1801 H 0.42487 0.30421 0.73945 0.0
H1802 H 0.47431 0.24241 0.69945 0.0
H1803 H 0.45854 0.24478 0.67233 0.0
H1804 H 0.44641 0.22452 0.69041 0.0
H1805 H 0.47271 0.32991 0.72733 0.0
H1806 H 0.44478 0.3335 0.7202 0.0
H1807 H 0.46078 0.32718 0.69714 0.0
C1808 C 0.04031 0.82 0.63533 0.0
C1809 C 0.03424 0.81928 0.65791 0.0
C1810 C 0.04291 0.83974 0.62507 0.0
C1811 C 0.03969 0.85944 0.63784 0.0
C1812 C 0.03246 0.85857 0.66021 0.0
C1813 C 0.0296 0.83836 0.66991 0.0
C1814 C 0.05028 0.83981 0.60101 0.0
C1815 C 0.02839 0.87907 0.67415 0.0
C1816 C 0.07757 0.90988 0.61963 0.0
C1817 C 0.06316 0.91522 0.60195 0.0
C1818 C 0.06955 0.89311 0.63315 0.0
C1819 C 0.0466 0.88117 0.62861 0.0
C1820 C 0.03158 0.88785 0.61217 0.0
C1821 C 0.04005 0.90493 0.59902 0.0
C1822 C 0.08601 0.88706 0.65109 0.0
C1823 C 1.00693 0.87585 0.60717 0.0
H1824 H 0.0436 0.8052 0.62582 0.0
H1825 H 0.02473 0.8378 0.68731 0.0
H1826 H 0.03892 0.84659 0.58919 0.0
H1827 H 0.06747 0.85092 0.60249 0.0
H1828 H 0.05045 0.82272 0.59272 0.0
H1829 H 0.02555 0.87637 0.69235 0.0
H1830 H 0.04283 0.89385 0.67503 0.0
H1831 H 1.01335 0.88325 0.66524 0.0
H1832 H 0.09532 0.91833 0.62232 0.0
H1833 H 0.02882 0.9093 0.58555 0.0
H1834 H 0.08883 0.87046 0.64459 0.0
H1835 H 0.07913 0.8856 0.66792 0.0
H1836 H 0.1025 0.89969 0.65456 0.0
H1837 H 1.00482 0.85935 0.59618 0.0
H1838 H 0.99687 0.88568 0.59762 0.0
H1839 H 1.00011 0.87253 0.62372 0.0
C1840 C 0.47231 0.81868 0.80965 0.0
C1841 C 0.48111 0.81647 0.83264 0.0
C1842 C 0.44871 0.81538 0.80229 0.0
C1843 C 0.4329 0.81069 0.81838 0.0
C1844 C 0.44177 0.80888 0.84174 0.0
C1845 C 0.46532 0.81131 0.84835 0.0
C1846 C 0.44067 0.8168 0.77704 0.0
C1847 C 0.42631 0.80459 0.86003 0.0
C1848 C 0.37325 0.82216 0.80473 0.0
C1849 C 0.35892 0.80054 0.79709 0.0
C1850 C 0.39696 0.82573 0.81152 0.0
C1851 C 0.4073 0.80729 0.81079 0.0
C1852 C 0.39287 0.78546 0.80283 0.0
C1853 C 0.36928 0.78243 0.79622 0.0
C1854 C 0.41096 0.84939 0.81978 0.0
C1855 C 0.40237 0.76504 0.8011 0.0
H1856 H 0.48392 0.82266 0.79713 0.0
H1857 H 0.47149 0.80979 0.86623 0.0
H1858 H 0.42686 0.80181 0.76945 0.0
H1859 H 0.4338 0.8318 0.77619 0.0
H1860 H 0.45437 0.81801 0.76598 0.0
H1861 H 0.43571 0.80605 0.87791 0.0
H1862 H 0.41554 0.8167 0.86042 0.0
H1863 H 0.41498 0.78745 0.85544 0.0
H1864 H 0.36584 0.83638 0.80594 0.0
H1865 H 0.35891 0.76567 0.78979 0.0
H1866 H 0.42344 0.8541 0.80769 0.0
H1867 H 0.42048 0.8504 0.83749 0.0
H1868 H 0.40058 0.86185 0.82057 0.0
H1869 H 0.4168 0.76772 0.79102 0.0
H1870 H 0.38964 0.74957 0.79247 0.0
H1871 H 0.40871 0.76232 0.81898 0.0
C1872 C 0.50364 0.17627 0.14763 0.0
C1873 C 0.52261 0.1891 0.16308 0.0
C1874 C 0.50464 0.15685 0.1325 0.0
C1875 C 0.52507 0.14989 0.1328 0.0
C1876 C 0.54413 0.16272 0.1487 0.0
C1877 C 0.54272 0.18215 0.16333 0.0
C1878 C 0.48397 0.14408 0.11568 0.0
C1879 C 0.56628 0.1562 0.15 0.0
C1880 C 0.52312 0.08887 0.10731 0.0
C1881 C 0.53167 0.09126 0.08587 0.0
C1882 C 0.52119 0.10763 0.12274 0.0
C1883 C 0.52673 0.12954 0.11631 0.0
C1884 C 0.53464 0.13204 0.0944 0.0
C1885 C 0.53759 0.11314 0.07993 0.0
C1886 C 0.51369 0.10402 0.14627 0.0
C1887 C 0.54009 0.15476 0.08617 0.0
H1888 H 0.48819 0.1818 0.1469 0.0
H1889 H 0.55759 0.19224 0.17484 0.0
H1890 H 0.48779 0.14336 0.09735 0.0
H1891 H 0.47885 0.1265 0.11929 0.0
H1892 H 0.46959 0.15188 0.11701 0.0
H1893 H 0.57873 0.16634 0.16495 0.0
H1894 H 0.56373 0.13812 0.15184 0.0
H1895 H 0.57346 0.15869 0.13348 0.0
H1896 H 0.51832 0.07226 0.11242 0.0
H1897 H 0.5448 0.11572 0.06403 0.0
H1898 H 0.49805 0.10964 0.14774 0.0
H1899 H 0.52673 0.11434 0.1606 0.0
H1900 H 0.5106 0.08612 0.14905 0.0
H1901 H 0.52553 0.16239 0.08672 0.0
H1902 H 0.54435 0.15371 0.06798 0.0
H1903 H 0.5545 0.16626 0.0981 0.0
C1904 C 0.13497 0.31361 0.33619 0.0
C1905 C 0.11488 0.2969 0.3275 0.0
C1906 C 0.15653 0.31169 0.33053 0.0
C1907 C 0.15884 0.29255 0.31557 0.0
C1908 C 0.13864 0.27561 0.3068 0.0
C1909 C 0.11731 0.27793 0.31278 0.0
C1910 C 0.177 0.33036 0.34065 0.0
C1911 C 0.1396 0.25465 0.2912 0.0
C1912 C 0.21138 0.29525 0.28242 0.0
C1913 C 0.22603 0.28648 0.29704 0.0
C1914 C 0.19009 0.29766 0.28836 0.0
C1915 C 0.18212 0.29028 0.3091 0.0
C1916 C 0.19665 0.28073 0.32354 0.0
C1917 C 0.2183 0.27945 0.3177 0.0
C1918 C 0.17625 0.3087 0.27255 0.0
C1919 C 0.18946 0.27188 0.34545 0.0
H1920 H 0.13394 0.32831 0.34775 0.0
H1921 H 0.10239 0.26461 0.30593 0.0
H1922 H 0.18957 0.32357 0.35082 0.0
H1923 H 0.18503 0.33778 0.32617 0.0
H1924 H 0.17286 0.34391 0.35237 0.0
H1925 H 0.12272 0.24295 0.2856 0.0
H1926 H 0.14703 0.25921 0.27528 0.0
H1927 H 0.15068 0.24573 0.30066 0.0
H1928 H 0.21691 0.30094 0.26651 0.0
H1929 H 0.22912 0.27252 0.32925 0.0
H1930 H 0.17342 0.32393 0.28269 0.0
H1931 H 0.1595 0.29711 0.26607 0.0
H1932 H 0.1845 0.31369 0.2572 0.0
H1933 H 0.19009 0.28621 0.35916 0.0
H1934 H 0.2005 0.26163 0.35257 0.0
H1935 H 0.17187 0.26145 0.34183 0.0
C1936 C 0.96483 0.03879 0.19948 0.0
C1937 C 0.97467 0.02897 0.2174 0.0
C1938 C 0.97469 0.0427 0.17905 0.0
C1939 C 0.99508 0.03668 0.1761 0.0
C1940 C 1.00551 0.02736 0.19438 0.0
C1941 C 0.99524 0.02366 0.21478 0.0
C1942 C 0.96281 0.05263 0.16023 0.0
C1943 C 0.02741 0.02102 0.19224 0.0
C1944 C 1.00631 0.02338 0.11284 0.0
C1945 C 0.01955 0.044 0.10861 0.0
C1946 C 0.99822 0.02087 0.13449 0.0
C1947 C 1.00457 0.03899 0.15328 0.0
C1948 C 0.01877 0.05958 0.14959 0.0
C1949 C 0.02543 0.06205 0.12719 0.0
C1950 C 0.98237 0.99889 0.13702 0.0
C1951 C 0.02665 0.0792 0.16918 0.0
H1952 H 0.94905 0.04323 0.2012 0.0
H1953 H 1.00307 0.01614 0.22842 0.0
H1954 H 0.97433 0.06786 0.15603 0.0
H1955 H 0.95773 0.04032 0.14385 0.0
H1956 H 0.94758 0.05729 0.16557 0.0
H1957 H 0.03351 0.01413 0.20795 0.0
H1958 H 0.02535 1.00825 0.17649 0.0
H1959 H 0.04043 0.036 0.18982 0.0
H1960 H 1.00213 1.00901 0.09916 0.0
H1961 H 0.03509 0.07825 0.12426 0.0
H1962 H 0.9661 1.00193 0.14109 0.0
H1963 H 0.98941 0.99156 0.15187 0.0
H1964 H 0.97904 0.9864 0.1208 0.0
H1965 H 1.01248 0.08683 0.17232 0.0
H1966 H 0.04061 0.0924 0.16493 0.0
H1967 H 0.03239 0.0735 0.18579 0.0
C1968 C 0.27313 0.69859 0.50401 0.0
C1969 C 0.27974 0.67833 0.50262 0.0
C1970 C 0.26919 0.70841 0.48394 0.0
C1971 C 0.27216 0.69779 0.46196 0.0
C1972 C 0.28012 0.67804 0.46054 0.0
C1973 C 0.28389 0.66849 0.48104 0.0
C1974 C 0.26059 0.72946 0.48613 0.0
C1975 C 0.284 0.6667 0.43737 0.0
C1976 C 0.23345 0.71193 0.41448 0.0
C1977 C 0.24769 0.73049 0.40779 0.0
C1978 C 0.24181 0.69963 0.43063 0.0
C1979 C 0.26479 0.70654 0.44055 0.0
C1980 C 0.27953 0.72446 0.43267 0.0
C1981 C 0.27076 0.73621 0.41616 0.0
C1982 C 0.22575 0.68018 0.43818 0.0
C1983 C 0.30412 0.73216 0.44287 0.0
H1984 H 0.2701 0.70639 0.52071 0.0
H1985 H 0.28916 0.65289 0.47999 0.0
H1986 H 0.27122 0.74276 0.47805 0.0
H1987 H 0.24323 0.72575 0.47655 0.0
H1988 H 0.26032 0.7362 0.50472 0.0
H1989 H 0.28731 0.64994 0.43879 0.0
H1990 H 0.26928 0.66461 0.42367 0.0
H1991 H 0.29871 0.67743 0.43132 0.0
H1992 H 0.21573 0.70731 0.40736 0.0
H1993 H 0.28173 0.75046 0.41052 0.0
H1994 H 0.22283 0.68499 0.45645 0.0
H1995 H 0.23304 0.66537 0.43808 0.0
H1996 H 0.20926 0.67519 0.42661 0.0
H1997 H 0.30584 0.74091 0.4611 0.0
H1998 H 0.31389 0.74392 0.43242 0.0
H1999 H 0.31159 0.71755 0.4438 0.0
C2000 C 0.63769 0.05296 0.71005 0.0
C2001 C 0.65834 0.0486 0.70634 0.0
C2002 C 0.62268 0.05509 0.69122 0.0
C2003 C 0.62846 0.05212 0.66837 0.0
C2004 C 0.64935 0.04782 0.6645 0.0
C2005 C 0.66428 0.04629 0.68377 0.0
C2006 C 0.60049 0.0599 0.69571 0.0
C2007 C 0.65568 0.04448 0.64007 0.0
C2008 C 0.58278 0.0293 0.61779 0.0
C2009 C 0.58141 0.04899 0.60882 0.0
C2010 C 0.59746 0.0303 0.63807 0.0
C2011 C 0.61177 0.05135 0.64833 0.0
C2012 C 0.61027 0.07135 0.63931 0.0
C2013 C 0.59414 0.06999 0.62001 0.0
C2014 C 0.59789 1.00891 0.64826 0.0
C2015 C 0.62607 0.09384 0.64947 0.0
H2016 H 0.63354 0.05533 0.72775 0.0
H2017 H 0.6805 0.0432 0.68126 0.0
H2018 H 0.59681 0.07325 0.68574 0.0
H2019 H 0.58673 0.0445 0.6896 0.0
H2020 H 0.60025 0.06525 0.71467 0.0
H2021 H 0.67325 0.0429 0.64037 0.0
H2022 H 0.64423 0.02901 0.62971 0.0
H2023 H 0.65369 0.05879 0.63074 0.0
H2024 H 0.57213 0.01323 0.60909 0.0
H2025 H 0.59239 0.08507 0.6128 0.0
H2026 H 0.5958 0.01115 0.66713 0.0
H2027 H 0.61439 1.00494 0.64717 0.0
H2028 H 0.58442 0.99431 0.63894 0.0
H2029 H 0.62477 0.09794 0.66836 0.0
H2030 H 0.62258 0.10768 0.64011 0.0
H2031 H 0.64369 0.09306 0.6483 0.0
C2032 C 0.32952 0.34027 0.97105 0.0
C2033 C 0.31098 0.3459 0.97999 0.0
C2034 C 0.32852 0.33214 0.94702 0.0
C2035 C 0.30825 0.32879 0.93138 0.0
C2036 C 0.28932 0.33409 0.94037 0.0
C2037 C 0.291 0.34285 0.96441 0.0
C2038 C 0.3494 0.32765 0.93823 0.0
C2039 C 0.26716 0.33026 0.92464 0.0
C2040 C 0.3102 0.32756 0.86517 0.0
C2041 C 0.30553 0.30444 0.85696 0.0
C2042 C 0.31147 0.33567 0.88922 0.0
C2043 C 0.30714 0.32029 0.9056 0.0
C2044 C 0.30224 0.29686 0.89732 0.0
C2045 C 0.30195 0.28925 0.87323 0.0
C2046 C 0.31744 0.36075 0.89707 0.0
C2047 C 0.2968 0.27978 0.91383 0.0
H2048 H 0.34516 0.34285 0.98277 0.0
H2049 H 0.27657 0.3471 0.97106 0.0
H2050 H 0.34617 0.30977 0.93033 0.0
H2051 H 0.35396 0.33802 0.92421 0.0
H2052 H 0.36398 0.33148 0.95246 0.0
H2053 H 0.25436 0.33621 0.93391 0.0
H2054 H 0.26948 0.33901 0.90904 0.0
H2055 H 0.26061 0.31202 0.91808 0.0
H2056 H 0.31304 0.33942 0.85271 0.0
H2057 H 0.29806 0.27135 0.86697 0.0
H2058 H 0.33212 0.36557 0.91121 0.0
H2059 H 0.3032 0.3657 0.90448 0.0
H2060 H 0.32151 0.37047 0.88241 0.0
H2061 H 0.31157 0.28161 0.92737 0.0
H2062 H 0.29197 0.26223 0.9045 0.0
H2063 H 0.28278 0.28278 0.92317 0.0
C2064 C 0.98452 0.04009 0.36578 0.0
C2065 C 0.98111 0.01933 0.35138 0.0
C2066 C 0.99258 0.04278 0.3901 0.0
C2067 C 0.99665 0.0241 0.40054 0.0
C2068 C 0.99242 1.00294 0.38618 0.0
C2069 C 0.98515 1.00093 0.36184 0.0
C2070 C 0.99711 0.06572 0.40455 0.0
C2071 C 0.99518 0.98227 0.39665 0.0
C2072 C 0.03703 0.03187 0.45809 0.0
C2073 C 0.02237 0.03059 0.47499 0.0
C2074 C 0.02895 0.03038 0.43397 0.0
C2075 C 1.00551 0.02656 0.42635 0.0
C2076 C 0.9906 0.02448 0.4434 0.0
C2077 C 0.99925 0.027 0.46745 0.0
C2078 C 0.04557 0.03336 0.41666 0.0
C2079 C 0.96548 0.01975 0.43641 0.0
H2080 H 0.98132 0.05437 0.35794 0.0
H2081 H 0.98209 0.98469 0.35102 0.0
H2082 H 0.98713 0.06493 0.41935 0.0
H2083 H 0.01512 0.07133 0.41229 0.0
H2084 H 0.99297 0.07851 0.39396 0.0
H2085 H 0.9902 0.96683 0.38341 0.0
H2086 H 1.01295 0.98456 0.40447 0.0
H2087 H 0.9848 0.97974 0.41106 0.0
H2088 H 0.05494 0.03483 0.46383 0.0
H2089 H 0.98779 0.0259 0.48041 0.0
H2090 H 0.0434 0.04713 0.40655 0.0
H2091 H 0.04239 0.01778 0.40385 0.0
H2092 H 0.06327 0.03735 0.42543 0.0
H2093 H 0.96104 0.03529 0.43188 0.0
H2094 H 0.95614 0.0141 0.45088 0.0
H2095 H 0.95969 1.00666 0.4207 0.0
C2096 C 0.28465 0.66966 0.64664 0.0
C2097 C 0.29157 0.67545 0.62543 0.0
C2098 C 0.28338 0.68627 0.66449 0.0
C2099 C 0.2894 0.70899 0.66088 0.0
C2100 C 0.29707 0.71505 0.6399 0.0
C2101 C 0.2982 0.69811 0.62234 0.0
C2102 C 0.27516 0.67951 0.68692 0.0
C2103 C 0.30366 0.73935 0.6359 0.0
C2104 C 0.26822 0.75021 0.69945 0.0
C2105 C 0.2865 0.75749 0.71737 0.0
C2106 C 0.26888 0.73426 0.6806 0.0
C2107 C 0.28864 0.72656 0.67962 0.0
C2108 C 0.30762 0.73503 0.697 0.0
C2109 C 0.30623 0.75036 0.71591 0.0
C2110 C 0.24821 0.72491 0.66247 0.0
C2111 C 0.32904 0.72731 0.6961 0.0
H2112 H 0.27949 0.65213 0.649 0.0
H2113 H 0.30341 0.70261 0.60587 0.0
H2114 H 0.28822 0.68738 0.70225 0.0
H2115 H 0.26 0.68565 0.68966 0.0
H2116 H 0.27091 0.66098 0.6867 0.0
H2117 H 0.30884 0.74112 0.61829 0.0
H2118 H 0.28936 0.74718 0.6376 0.0
H2119 H 0.31777 0.74897 0.64953 0.0
H2120 H 0.25306 0.75597 0.70094 0.0
H2121 H 0.3205 0.75655 0.72973 0.0
H2122 H 0.24167 0.70669 0.66315 0.0
H2123 H 0.25251 0.72657 0.64454 0.0
H2124 H 0.2346 0.73349 0.66537 0.0
H2125 H 0.32578 0.7092 0.69798 0.0
H2126 H 0.34273 0.73688 0.71024 0.0
H2127 H 0.33496 0.7292 0.67885 0.0
C2128 C 0.63819 0.03191 0.83268 0.0
C2129 C 0.6598 0.04503 0.83215 0.0
C2130 C 0.62732 0.03496 0.85233 0.0
C2131 C 0.63806 0.05232 0.87102 0.0
C2132 C 0.66045 0.0647 0.87104 0.0
C2133 C 0.67124 0.06058 0.85163 0.0
C2134 C 0.60378 0.02089 0.85221 0.0
C2135 C 0.67215 0.08382 0.89037 0.0
C2136 C 0.6031 0.08541 0.90227 0.0
C2137 C 0.60567 0.07937 0.92482 0.0
C2138 C 0.61299 0.07611 0.88429 0.0
C2139 C 0.62507 0.05983 0.88885 0.0
C2140 C 0.62661 0.05261 0.91112 0.0
C2141 C 0.61735 0.06286 0.92904 0.0
C2142 C 0.61137 0.08451 0.86077 0.0
C2143 C 0.63869 0.03468 0.91625 0.0
H2144 H 0.62939 0.02015 0.81727 0.0
H2145 H 0.68778 0.07104 0.8507 0.0
H2146 H 0.60149 0.01607 0.86985 0.0
H2147 H 0.59147 0.0308 0.84767 0.0
H2148 H 0.59983 1.00538 0.83911 0.0
H2149 H 0.68993 0.09104 0.88823 0.0
H2150 H 0.66313 0.09741 0.89033 0.0
H2151 H 0.67183 0.07804 0.90781 0.0
H2152 H 0.59362 0.09768 0.89872 0.0
H2153 H 0.61979 0.05826 0.9465 0.0
H2154 H 0.60415 0.07024 0.84645 0.0
H2155 H 0.62845 0.09274 0.85732 0.0
H2156 H 0.60082 0.0968 0.85997 0.0
H2157 H 0.63365 0.02024 0.9018 0.0
H2158 H 0.6352 0.02842 0.93306 0.0
H2159 H 0.6571 0.04161 0.91742 0.0
C2160 C 0.32099 0.36244 0.13464 0.0
C2161 C 0.30449 0.35708 0.11474 0.0
C2162 C 0.31747 0.35249 0.15513 0.0
C2163 C 0.29666 0.33716 0.1561 0.0
C2164 C 0.27977 0.33198 0.13608 0.0
C2165 C 0.28394 0.34188 0.11561 0.0
C2166 C 0.33606 0.35848 0.17581 0.0
C2167 C 0.25713 0.31627 0.13645 0.0
C2168 C 0.2979 0.29638 0.20108 0.0
C2169 C 0.28943 0.30632 0.22004 0.0
C2170 C 0.29943 0.30573 0.18001 0.0
C2171 C 0.29302 0.32606 0.17777 0.0
C2172 C 0.28428 0.33618 0.19674 0.0
C2173 C 0.28239 0.32613 0.21746 0.0
C2174 C 0.30842 0.29402 0.16025 0.0
C2175 C 0.27761 0.35807 0.19549 0.0
H2176 H 0.33671 0.37458 0.13419 0.0
H2177 H 0.27088 0.33825 0.10053 0.0
H2178 H 0.32997 0.36553 0.19163 0.0
H2179 H 0.34114 0.34309 0.17991 0.0
H2180 H 0.35112 0.3709 0.17244 0.0
H2181 H 0.24583 0.3138 0.1195 0.0
H2182 H 0.25927 0.29965 0.14033 0.0
H2183 H 0.24887 0.3231 0.15069 0.0
H2184 H 0.30363 0.28126 0.20276 0.0
H2185 H 0.2759 0.33411 0.23191 0.0
H2186 H 0.32456 0.30489 0.15717 0.0
H2187 H 0.29649 0.29107 0.14371 0.0
H2188 H 0.31131 0.27761 0.16406 0.0
H2189 H 0.29296 0.37196 0.19681 0.0
H2190 H 0.26809 0.36205 0.20993 0.0
H2191 H 0.26723 0.35757 0.1784 0.0
C2192 C 0.22779 0.96373 0.00501 0.0
C2193 C 0.2491 0.97873 0.00981 0.0
C2194 C 0.20931 0.97003 0.01297 0.0
C2195 C 0.21263 0.99166 0.02585 0.0
C2196 C 0.2337 1.0075 0.02876 0.0
C2197 C 0.2517 1.00085 0.02039 0.0
C2198 C 0.18681 0.95308 0.00928 0.0
C2199 C 0.23786 0.03072 0.04271 0.0
C2200 C 0.16999 0.0216 0.04342 0.0
C2201 C 0.17109 0.01923 0.06738 0.0
C2202 C 0.18156 0.01041 0.02875 0.0
C2203 C 0.19509 0.99736 0.03858 0.0
C2204 C 0.19512 0.99369 0.0623 0.0
C2205 C 0.18279 1.0045 0.07639 0.0
C2206 C 0.18097 0.01421 0.00335 0.0
C2207 C 0.20965 0.97994 0.07335 0.0
H2208 H 0.22591 0.94656 0.99687 0.0
H2209 H 0.26825 0.01242 0.02386 0.0
H2210 H 0.18307 0.94744 0.02627 0.0
H2211 H 0.17322 0.96084 1.00287 0.0
H2212 H 0.18643 0.93806 0.99654 0.0
H2213 H 0.25498 0.04128 0.04218 0.0
H2214 H 0.22536 0.03957 0.03587 0.0
H2215 H 0.23593 0.02923 0.06136 0.0
H2216 H 0.16101 0.03305 0.03631 0.0
H2217 H 0.18298 1.0021 0.09468 0.0
H2218 H 0.1801 0.99836 0.99172 0.0
H2219 H 0.19665 0.02651 1.00132 0.0
H2220 H 0.16644 0.0209 0.99731 0.0
H2221 H 0.20621 0.96301 0.06288 0.0
H2222 H 0.20686 0.97795 0.09172 0.0
H2223 H 0.22766 0.98824 0.07349 0.0
C2224 C 0.69465 0.64857 0.02226 0.0
C2225 C 0.71481 0.64175 0.02489 0.0
C2226 C 0.67406 0.63387 0.02427 0.0
C2227 C 0.67351 0.61166 0.02867 0.0
C2228 C 0.69362 0.60432 0.03024 0.0
C2229 C 0.71403 0.61947 0.0285 0.0
C2230 C 0.65306 0.64248 0.02281 0.0
C2231 C 0.69362 0.58059 0.0343 0.0
C2232 C 0.62616 0.58132 0.059 0.0
C2233 C 0.61053 0.56943 0.03975 0.0
C2234 C 0.64664 0.59538 0.05564 0.0
C2235 C 0.65207 0.59642 0.03252 0.0
C2236 C 0.63674 0.58329 0.01313 0.0
C2237 C 0.61585 0.57043 0.01695 0.0
C2238 C 0.66203 0.60976 0.07673 0.0
C2239 C 0.6422 0.58315 0.98832 0.0
H2240 H 0.69505 0.66575 0.01964 0.0
H2241 H 0.72948 0.61397 0.03049 0.0
H2242 H 0.63964 0.63122 0.00949 0.0
H2243 H 0.64665 0.64251 0.04 0.0
H2244 H 0.65611 0.6598 0.01819 0.0
H2245 H 0.71042 0.57711 0.03381 0.0
H2246 H 0.68841 0.57769 0.05167 0.0
H2247 H 0.68123 0.56833 0.02077 0.0
H2248 H 0.62184 0.58053 0.07661 0.0
H2249 H 0.60365 0.56106 1.00211 0.0
H2250 H 0.66486 0.62779 0.07455 0.0
H2251 H 0.67866 0.60573 0.07815 0.0
H2252 H 0.65506 0.60739 0.09342 0.0
H2253 H 0.64226 0.59971 0.98264 0.0
H2254 H 0.62983 0.5699 0.97568 0.0
H2255 H 0.65923 0.58039 0.9875 0.0
C2256 C 0.70609 0.49427 0.31391 0.0
C2257 C 0.68441 0.4929 0.30283 0.0
C2258 C 0.71584 0.476 0.31045 0.0
C2259 C 0.70373 0.4564 0.29501 0.0
C2260 C 0.68141 0.4547 0.28462 0.0
C2261 C 0.67197 0.47305 0.28874 0.0
C2262 C 0.73957 0.47827 0.32201 0.0
C2263 C 0.66809 0.43412 0.26786 0.0
C2264 C 0.7336 0.42243 0.25734 0.0
C2265 C 0.73128 0.403 0.268 0.0
C2266 C 0.72577 0.44051 0.2668 0.0
C2267 C 0.71512 0.43885 0.28721 0.0
C2268 C 0.71361 0.41958 0.29862 0.0
C2269 C 0.72196 0.40186 0.28894 0.0
C2270 C 0.72803 0.46096 0.25435 0.0
C2271 C 0.70245 0.41735 0.32045 0.0
H2272 H 0.7157 0.50989 0.32452 0.0
H2273 H 0.65534 0.47236 0.27988 0.0
H2274 H 0.74112 0.46261 0.32899 0.0
H2275 H 0.75124 0.48112 0.30878 0.0
H2276 H 0.74502 0.49258 0.33661 0.0
H2277 H 0.65038 0.43473 0.26279 0.0
H2278 H 0.67605 0.43276 0.25165 0.0
H2279 H 0.66814 0.41866 0.2759 0.0
H2280 H 0.74135 0.42333 0.24142 0.0
H2281 H 0.72048 0.3868 0.29723 0.0
H2282 H 0.73606 0.47646 0.26693 0.0
H2283 H 0.7111 0.46239 0.2471 0.0
H2284 H 0.73815 0.46019 0.2397 0.0
H2285 H 0.71069 0.43177 0.33434 0.0
H2286 H 0.70312 0.40147 0.32747 0.0
H2287 H 0.68457 0.41776 0.31647 0.0
C2288 C 0.87836 0.4743 0.50428 0.0
C2289 C 0.86709 0.46374 0.52113 0.0
C2290 C 0.90038 0.48731 0.51046 0.0
C2291 C 0.91054 0.49032 0.53416 0.0
C2292 C 0.89885 0.48032 0.55138 0.0
C2293 C 0.87719 0.4667 0.54451 0.0
C2294 C 0.91297 0.49719 0.4916 0.0
C2295 C 0.90925 0.48394 0.5769 0.0
C2296 C 0.97304 0.50149 0.54275 0.0
C2297 C 0.97907 0.52501 0.54619 0.0
C2298 C 0.95058 0.48988 0.53938 0.0
C2299 C 0.93412 0.50229 0.54046 0.0
C2300 C 0.94022 0.52601 0.5458 0.0
C2301 C 0.96288 0.53725 0.5482 0.0
C2302 C 0.94447 0.46455 0.53297 0.0
C2303 C 0.92287 0.53951 0.54772 0.0
H2304 H 0.8701 0.47198 0.48629 0.0
H2305 H 0.86791 0.45886 0.55749 0.0
H2306 H 0.91904 0.51572 0.49626 0.0
H2307 H 0.92799 0.49041 0.49027 0.0
H2308 H 0.9024 0.49335 0.47407 0.0
H2309 H 0.89731 0.47588 0.58824 0.0
H2310 H 0.92425 0.47696 0.57866 0.0
H2311 H 0.91503 0.50222 0.5835 0.0
H2312 H 0.98575 0.49212 0.54104 0.0
H2313 H 0.96789 0.55551 0.551 0.0
H2314 H 0.93505 0.45978 0.51488 0.0
H2315 H 0.93334 0.45652 0.54499 0.0
H2316 H 0.95951 0.45755 0.53367 0.0
H2317 H 0.91435 0.53989 0.52989 0.0
H2318 H 0.93056 0.55713 0.55616 0.0
H2319 H 0.9098 0.53163 0.558 0.0
C2320 C 0.37086 0.098 0.32419 0.0
C2321 C 0.35661 0.07629 0.31875 0.0
C2322 C 0.36433 0.11614 0.31566 0.0
C2323 C 0.34327 0.11211 0.30146 0.0
C2324 C 0.32824 0.09052 0.29734 0.0
C2325 C 0.33501 0.0729 0.3064 0.0
C2326 C 0.38036 0.13921 0.32066 0.0
C2327 C 0.3057 0.0856 0.28188 0.0
C2328 C 0.31107 0.15312 0.28438 0.0
C2329 C 0.31427 0.15304 0.26073 0.0
C2330 C 0.32263 0.14179 0.29895 0.0
C2331 C 0.3371 0.12977 0.2893 0.0
C2332 C 0.34157 0.13092 0.26594 0.0
C2333 C 0.33005 0.14268 0.25188 0.0
C2334 C 0.31776 0.1409 0.32391 0.0
C2335 C 0.35694 0.11816 0.25514 0.0
H2336 H 0.38759 0.10059 0.33378 0.0
H2337 H 0.32392 0.05612 0.30236 0.0
H2338 H 0.38568 0.1445 0.30404 0.0
H2339 H 0.37182 0.15173 0.32819 0.0
H2340 H 0.39562 0.13968 0.33305 0.0
H2341 H 0.29586 0.06794 0.28105 0.0
H2342 H 0.29555 0.09697 0.28846 0.0
H2343 H 0.30827 0.08865 0.26371 0.0
H2344 H 0.29873 0.16108 0.2912 0.0
H2345 H 0.33278 0.14314 0.23373 0.0
H2346 H 0.33337 0.14219 0.33608 0.0
H2347 H 0.30602 0.12451 0.32483 0.0
H2348 H 0.30993 0.15455 0.33012 0.0
H2349 H 0.37329 0.12164 0.2667 0.0
H2350 H 0.36011 0.12256 0.2375 0.0
H2351 H 0.34923 0.09981 0.25324 0.0
C2352 C 0.34523 0.13781 0.51738 0.0
C2353 C 0.33815 0.14644 0.53787 0.0
C2354 C 0.36358 0.1279 0.51877 0.0
C2355 C 0.37524 0.12726 0.54111 0.0
C2356 C 0.36898 0.1374 0.56171 0.0
C2357 C 0.35027 0.14652 0.55983 0.0
C2358 C 0.36961 0.11695 0.49653 0.0
C2359 C 0.38132 0.13758 0.58587 0.0
C2360 C 0.40031 0.07987 0.55627 0.0
C2361 C 0.42321 0.09058 0.56032 0.0
C2362 C 0.38449 0.09108 0.54794 0.0
C2363 C 0.39191 0.11354 0.5436 0.0
C2364 C 0.41524 0.12369 0.54564 0.0
C2365 C 0.43075 0.11198 0.55403 0.0
C2366 C 0.3598 0.07969 0.54624 0.0
C2367 C 0.42371 0.14753 0.54099 0.0
H2368 H 0.33573 0.13772 0.50041 0.0
H2369 H 0.34489 0.1535 0.57564 0.0
H2370 H 0.38804 0.12194 0.49638 0.0
H2371 H 0.36472 0.09839 0.4958 0.0
H2372 H 0.36096 0.12138 0.48051 0.0
H2373 H 0.37569 0.14802 0.5998 0.0
H2374 H 0.37847 0.12015 0.5901 0.0
H2375 H 0.3997 0.14416 0.58629 0.0
H2376 H 0.39468 0.06332 0.56133 0.0
H2377 H 0.44858 0.12018 0.55738 0.0
H2378 H 0.35039 0.08194 0.52957 0.0
H2379 H 0.35276 0.08749 0.56095 0.0
H2380 H 0.35691 0.0614 0.54723 0.0
H2381 H 0.41615 0.14946 0.52326 0.0
H2382 H 0.44233 0.15252 0.54218 0.0
H2383 H 0.4185 0.1593 0.55393 0.0
C2384 C 0.70924 0.6174 0.30361 0.0
C2385 C 0.69193 0.61503 0.31767 0.0
C2386 C 0.72224 0.63871 0.30129 0.0
C2387 C 0.71805 0.65813 0.31356 0.0
C2388 C 0.70112 0.65584 0.32838 0.0
C2389 C 0.68817 0.6343 0.33016 0.0
C2390 C 0.73999 0.64044 0.28514 0.0
C2391 C 0.69598 0.67619 0.34149 0.0
C2392 C 0.76163 0.71422 0.32238 0.0
C2393 C 0.7547 0.72375 0.30293 0.0
C2394 C 0.75037 0.69248 0.3256 0.0
C2395 C 0.73068 0.68086 0.31002 0.0
C2396 C 0.7233 0.6908 0.29069 0.0
C2397 C 0.73614 0.71159 0.28673 0.0
C2398 C 0.75971 0.68182 0.3454 0.0
C2399 C 0.70199 0.67952 0.27402 0.0
H2400 H 0.71206 0.60261 0.2936 0.0
H2401 H 0.67479 0.63258 0.34097 0.0
H2402 H 0.73525 0.64879 0.27004 0.0
H2403 H 0.75636 0.65096 0.29458 0.0
H2404 H 0.74222 0.62371 0.27814 0.0
H2405 H 0.68303 0.67152 0.35314 0.0
H2406 H 0.71145 0.68709 0.35234 0.0
H2407 H 0.68987 0.6863 0.3287 0.0
H2408 H 0.77597 0.72368 0.33495 0.0
H2409 H 0.73164 0.71821 0.27087 0.0
H2410 H 0.76266 0.66546 0.33826 0.0
H2411 H 0.74738 0.67833 0.35787 0.0
H2412 H 0.7758 0.69267 0.35521 0.0
H2413 H 0.70517 0.66601 0.2615 0.0
H2414 H 0.69597 0.69162 0.26369 0.0
H2415 H 0.68837 0.67172 0.2837 0.0
C2416 C 0.86822 0.45103 0.83874 0.0
C2417 C 0.85992 0.46633 0.82663 0.0
C2418 C 0.85871 0.42808 0.83242 0.0
C2419 C 0.84131 0.42084 0.81308 0.0
C2420 C 0.8331 0.4363 0.80066 0.0
C2421 C 0.8423 0.45911 0.80795 0.0
C2422 C 0.86719 0.41168 0.84631 0.0
C2423 C 0.81483 0.42873 0.77963 0.0
C2424 C 0.83047 0.3603 0.7876 0.0
C2425 C 0.8117 0.35116 0.79798 0.0
C2426 C 0.83981 0.38342 0.79142 0.0
C2427 C 0.83059 0.39707 0.8068 0.0
C2428 C 0.81131 0.38804 0.81681 0.0
C2429 C 0.80164 0.36516 0.81163 0.0
C2430 C 0.85987 0.39308 0.77974 0.0
C2431 C 0.80166 0.40222 0.83403 0.0
H2432 H 0.88213 0.45705 0.85297 0.0
H2433 H 0.8365 0.47127 0.79835 0.0
H2434 H 0.85304 0.40083 0.85311 0.0
H2435 H 0.8744 0.40048 0.83473 0.0
H2436 H 0.88028 0.42033 0.86139 0.0
H2437 H 0.81179 0.44301 0.77078 0.0
H2438 H 0.81939 0.41649 0.76665 0.0
H2439 H 0.79887 0.42003 0.78525 0.0
H2440 H 0.8382 0.34944 0.77707 0.0
H2441 H 0.78689 0.35822 0.81942 0.0
H2442 H 0.87514 0.39877 0.79309 0.0
H2443 H 0.85741 0.40796 0.77169 0.0
H2444 H 0.86291 0.38056 0.7659 0.0
H2445 H 0.81397 0.40841 0.85031 0.0
H2446 H 0.78566 0.39266 0.83891 0.0
H2447 H 0.79854 0.41717 0.82661 0.0
C2448 C 0.07944 0.88303 0.07284 0.0
C2449 C 0.06852 0.87166 0.08991 0.0
C2450 C 0.07615 0.90422 0.06711 0.0
C2451 C 0.06158 0.91538 0.07859 0.0
C2452 C 0.05055 0.90404 0.0959 0.0
C2453 C 0.05402 0.88275 0.10117 0.0
C2454 C 0.08854 0.91484 0.0486 0.0
C2455 C 0.03486 0.91445 0.10901 0.0
C2456 C 0.06864 0.98079 0.07888 0.0
C2457 C 0.0519 0.98241 0.06075 0.0
C2458 C 0.0719 0.95963 0.08472 0.0
C2459 C 0.05803 0.93863 0.0726 0.0
C2460 C 0.04089 0.94019 0.0545 0.0
C2461 C 0.03824 0.96157 0.04879 0.0
C2462 C 0.09053 0.95983 0.104 0.0
C2463 C 0.02518 0.91904 0.04088 0.0
H2464 H 0.09078 0.87531 0.06377 0.0
H2465 H 0.04533 0.87482 0.11445 0.0
H2466 H 0.07641 0.91803 0.03452 0.0
H2467 H 0.09991 0.93137 0.05651 0.0
H2468 H 0.09867 0.90414 0.04053 0.0
H2469 H 0.02841 0.90458 0.12279 0.0
H2470 H 0.0436 0.93182 0.11741 0.0
H2471 H 0.02035 0.91563 0.09647 0.0
H2472 H 0.07957 0.99626 0.08855 0.0
H2473 H 0.02517 0.96185 0.03479 0.0
H2474 H 0.10265 0.95109 0.09682 0.0
H2475 H 0.08354 0.95052 0.1179 0.0
H2476 H 0.09977 0.97718 0.11213 0.0
H2477 H 0.03489 0.90925 0.03083 0.0
H2478 H 1.0119 0.92266 0.0284 0.0
H2479 H 0.01702 0.90828 0.05315 0.0
C2480 C 0.94931 0.2716 0.88553 0.0
C2481 C 0.94994 0.27453 0.91018 0.0
C2482 C 0.93045 0.2733 0.87003 0.0
C2483 C 0.91124 0.27787 0.87904 0.0
C2484 C 0.91169 0.2807 0.90387 0.0
C2485 C 0.93089 0.27914 0.91901 0.0
C2486 C 0.93113 0.27029 0.84387 0.0
C2487 C 0.89175 0.28535 0.91455 0.0
C2488 C 0.87079 0.30184 0.83898 0.0
C2489 C 0.85272 0.28298 0.83082 0.0
C2490 C 0.88951 0.30055 0.85496 0.0
C2491 C 0.89085 0.2797 0.8625 0.0
C2492 C 0.87272 0.26054 0.85389 0.0
C2493 C 0.85384 0.26251 0.83864 0.0
C2494 C 0.90777 0.32167 0.86406 0.0
C2495 C 0.87336 0.23777 0.86055 0.0
H2496 H 0.96376 0.26816 0.87821 0.0
H2497 H 0.93087 0.28138 0.93786 0.0
H2498 H 0.91662 0.25662 0.83483 0.0
H2499 H 0.92966 0.28592 0.83679 0.0
H2500 H 0.9469 0.26622 0.83944 0.0
H2501 H 0.89483 0.28793 0.93408 0.0
H2502 H 0.88759 0.30053 0.90856 0.0
H2503 H 0.87681 0.27105 0.90851 0.0
H2504 H 0.86996 0.31784 0.83342 0.0
H2505 H 0.83998 0.24785 0.83249 0.0
H2506 H 0.92401 0.31964 0.85886 0.0
H2507 H 0.90997 0.32467 0.88357 0.0
H2508 H 0.90398 0.33672 0.85732 0.0
H2509 H 0.8879 0.23255 0.85412 0.0
H2510 H 0.85776 0.22465 0.85306 0.0
H2511 H 0.87574 0.23863 0.87996 0.0
C2512 C 0.57499 0.22509 0.57566 0.0
C2513 C 0.57307 0.23343 0.59891 0.0
C2514 C 0.573 0.20159 0.5683 0.0
C2515 C 0.56926 0.18562 0.58442 0.0
C2516 C 0.56769 0.19408 0.60787 0.0
C2517 C 0.56945 0.21732 0.61461 0.0
C2518 C 0.57474 0.19376 0.5431 0.0
C2519 C 0.56424 0.17848 0.62618 0.0
C2520 C 0.5419 0.12159 0.56499 0.0
C2521 C 0.56023 0.11155 0.56685 0.0
C2522 C 0.54466 0.1453 0.56987 0.0
C2523 C 0.56639 0.16013 0.57709 0.0
C2524 C 0.585 0.15012 0.57908 0.0
C2525 C 0.58172 0.12629 0.574 0.0
C2526 C 0.52405 0.15446 0.5676 0.0
C2527 C 0.60854 0.16461 0.58694 0.0
H2528 H 0.57786 0.23684 0.56311 0.0
H2529 H 0.56814 0.2229 0.63274 0.0
H2530 H 0.58839 0.18489 0.54238 0.0
H2531 H 0.55884 0.18153 0.53479 0.0
H2532 H 0.57812 0.20791 0.53268 0.0
H2533 H 0.56333 0.18743 0.64369 0.0
H2534 H 0.54849 0.16506 0.62058 0.0
H2535 H 0.57827 0.1701 0.628 0.0
H2536 H 0.5251 0.11082 0.5596 0.0
H2537 H 0.59606 0.11916 0.5763 0.0
H2538 H 0.52609 0.16757 0.55583 0.0
H2539 H 0.52197 0.16257 0.58506 0.0
H2540 H 0.50849 0.14115 0.56054 0.0
H2541 H 0.61319 0.17617 0.57397 0.0
H2542 H 0.62115 0.15448 0.58884 0.0
H2543 H 0.60937 0.17516 0.60404 0.0
C2544 C 0.5868 0.77789 0.42934 0.0
C2545 C 0.56602 0.77973 0.41808 0.0
C2546 C 0.60567 0.77941 0.41742 0.0
C2547 C 0.60389 0.78282 0.39355 0.0
C2548 C 0.58277 0.78376 0.38179 0.0
C2549 C 0.56418 0.78231 0.39417 0.0
C2550 C 0.62775 0.77833 0.43077 0.0
C2551 C 0.57995 0.78694 0.35622 0.0
C2552 C 0.654 0.81371 0.36712 0.0
C2553 C 0.659 0.79617 0.3528 0.0
C2554 C 0.63695 0.80944 0.38143 0.0
C2555 C 0.62431 0.78707 0.38123 0.0
C2556 C 0.63021 0.76915 0.3678 0.0
C2557 C 0.64752 0.77393 0.35374 0.0
C2558 C 0.63158 0.82905 0.39571 0.0
C2559 C 0.61747 0.74505 0.36731 0.0
H2560 H 0.58859 0.77591 0.44778 0.0
H2561 H 0.54827 0.7836 0.38516 0.0
H2562 H 0.63601 0.76736 0.42018 0.0
H2563 H 0.63927 0.79543 0.43442 0.0
H2564 H 0.62559 0.77198 0.44779 0.0
H2565 H 0.56229 0.78642 0.34931 0.0
H2566 H 0.59087 0.80337 0.35398 0.0
H2567 H 0.58533 0.77364 0.34542 0.0
H2568 H 0.66276 0.83092 0.36624 0.0
H2569 H 0.65121 0.76038 0.34247 0.0
H2570 H 0.6312 0.82616 0.41426 0.0
H2571 H 0.61464 0.83063 0.38867 0.0
H2572 H 0.64399 0.8452 0.39536 0.0
H2573 H 0.61743 0.74091 0.38548 0.0
H2574 H 0.62477 0.733 0.35691 0.0
H2575 H 0.59967 0.74272 0.35955 0.0
C2576 C 0.0544 0.24391 0.40448 0.0
C2577 C 0.05288 0.26489 0.41556 0.0
C2578 C 0.05319 0.22536 0.41677 0.0
C2579 C 0.05043 0.22773 0.44082 0.0
C2580 C 0.04973 0.24903 0.45237 0.0
C2581 C 0.05088 0.26729 0.43963 0.0
C2582 C 0.05396 0.20301 0.4037 0.0
C2583 C 0.04715 0.25238 0.47811 0.0
C2584 C 0.02116 0.17854 0.46937 0.0
C2585 C 0.03925 0.1741 0.48323 0.0
C2586 C 0.02468 0.1951 0.45447 0.0
C2587 C 0.04684 0.20775 0.45367 0.0
C2588 C 0.06526 0.20235 0.46666 0.0
C2589 C 0.06123 0.18553 0.48129 0.0
C2590 C 1.00457 0.2 0.44068 0.0
C2591 C 0.08914 0.21521 0.46616 0.0
H2592 H 0.05592 0.24173 0.38592 0.0
H2593 H 0.04981 0.28337 0.44848 0.0
H2594 H 0.06542 0.19514 0.41407 0.0
H2595 H 0.03693 0.1914 0.40097 0.0
H2596 H 0.05954 0.2047 0.38624 0.0
H2597 H 0.04781 0.27015 0.48478 0.0
H2598 H 0.03084 0.24161 0.4809 0.0
H2599 H 0.06064 0.24717 0.48873 0.0
H2600 H 1.00415 0.16978 0.47107 0.0
H2601 H 0.07518 0.18221 0.49224 0.0
H2602 H 1.00686 0.20008 0.42193 0.0
H2603 H 1.00293 0.21696 0.44763 0.0
H2604 H 0.98866 0.18749 0.44168 0.0
H2605 H 0.09262 0.21509 0.44774 0.0
H2606 H 0.10162 0.20812 0.47614 0.0
H2607 H 0.09152 0.23304 0.47388 0.0
C2608 C 0.61759 0.27964 0.23163 0.0
C2609 C 0.60096 0.26464 0.2411 0.0
C2610 C 0.64108 0.28173 0.23733 0.0
C2611 C 0.64928 0.26858 0.25322 0.0
C2612 C 0.63276 0.25372 0.26341 0.0
C2613 C 0.60909 0.25193 0.25734 0.0
C2614 C 0.65723 0.29779 0.22564 0.0
C2615 C 0.64013 0.23934 0.28057 0.0
C2616 C 0.70973 0.26011 0.24858 0.0
C2617 C 0.72375 0.27678 0.26613 0.0
C2618 C 0.68582 0.25688 0.24466 0.0
C2619 C 0.67493 0.27047 0.25864 0.0
C2620 C 0.6891 0.28711 0.27664 0.0
C2621 C 0.71297 0.29009 0.28002 0.0
C2622 C 0.6722 0.23907 0.22507 0.0
C2623 C 0.67905 0.30212 0.29234 0.0
H2624 H 0.61216 0.2897 0.21904 0.0
H2625 H 0.59698 0.23998 0.26472 0.0
H2626 H 0.66984 0.30987 0.23911 0.0
H2627 H 0.66656 0.28828 0.21469 0.0
H2628 H 0.64856 0.30744 0.21426 0.0
H2629 H 0.62565 0.22816 0.28656 0.0
H2630 H 0.65034 0.22883 0.27237 0.0
H2631 H 0.651 0.25027 0.29614 0.0
H2632 H 0.71753 0.24974 0.23751 0.0
H2633 H 0.7233 0.30293 0.29377 0.0
H2634 H 0.66425 0.24714 0.2114 0.0
H2635 H 0.65846 0.22766 0.23186 0.0
H2636 H 0.68263 0.22887 0.21672 0.0
H2637 H 0.6721 0.31355 0.28186 0.0
H2638 H 0.69163 0.31249 0.30706 0.0
H2639 H 0.66494 0.29188 0.29974 0.0
C2640 C 0.56024 0.90433 0.91656 0.0
C2641 C 0.55622 0.88275 0.92333 0.0
C2642 C 0.55882 0.92344 0.93198 0.0
C2643 C 0.55241 0.9211 0.95463 0.0
C2644 C 0.54779 0.89922 0.9613 0.0
C2645 C 0.55014 0.88058 0.94589 0.0
C2646 C 0.56454 0.94629 0.92412 0.0
C2647 C 0.53995 0.8954 0.98464 0.0
C2648 C 0.56678 0.97239 0.00392 0.0
C2649 C 0.54688 0.97972 1.00247 0.0
C2650 C 0.56883 0.95357 0.98855 0.0
C2651 C 0.55046 0.94138 0.97128 0.0
C2652 C 0.53014 0.94854 0.97018 0.0
C2653 C 0.52863 0.9675 0.98567 0.0
C2654 C 0.59086 0.94688 0.99067 0.0
C2655 C 0.50988 0.9362 0.95257 0.0
H2656 H 0.56507 0.90639 0.89934 0.0
H2657 H 0.54672 0.86406 0.95139 0.0
H2658 H 0.54985 0.95375 0.92398 0.0
H2659 H 0.57847 0.95777 0.93675 0.0
H2660 H 0.56966 0.94554 0.90628 0.0
H2661 H 0.53697 0.87749 0.98735 0.0
H2662 H 0.55258 0.90581 0.99926 0.0
H2663 H 0.52409 0.90074 0.98568 0.0
H2664 H 0.58091 0.9816 0.01694 0.0
H2665 H 0.51303 0.97275 0.98468 0.0
H2666 H 0.59755 0.94717 0.97365 0.0
H2667 H 0.58822 0.92942 0.99476 0.0
H2668 H 0.60367 0.95819 0.0046 0.0
H2669 H 0.51366 0.93801 0.93448 0.0
H2670 H 0.49483 0.94265 0.9551 0.0
H2671 H 0.50582 0.91795 0.95392 0.0
C2672 C 0.94243 0.76737 0.72657 0.0
C2673 C 0.95837 0.76223 0.74332 0.0
C2674 C 0.92072 0.76972 0.73159 0.0
C2675 C 0.91415 0.76776 0.75434 0.0
C2676 C 0.93027 0.76284 0.77139 0.0
C2677 C 0.95157 0.75984 0.76569 0.0
C2678 C 0.90453 0.77404 0.71219 0.0
C2679 C 0.92494 0.76065 0.79594 0.0
C2680 C 0.86596 0.79482 0.77419 0.0
C2681 C 0.84673 0.77653 0.77185 0.0
C2682 C 0.88739 0.79228 0.76856 0.0
C2683 C 0.89071 0.77075 0.76029 0.0
C2684 C 0.87139 0.75217 0.75804 0.0
C2685 C 0.85006 0.75526 0.76353 0.0
C2686 C 0.9067 0.81293 0.77165 0.0
C2687 C 0.87291 0.7287 0.74941 0.0
H2688 H 0.94674 0.76909 0.7091 0.0
H2689 H 0.96316 0.75585 0.77908 0.0
H2690 H 0.88827 0.7612 0.71009 0.0
H2691 H 0.90107 0.7907 0.71688 0.0
H2692 H 0.91111 0.77369 0.69508 0.0
H2693 H 0.9392 0.75777 0.80766 0.0
H2694 H 0.92065 0.77614 0.80368 0.0
H2695 H 0.91001 0.74643 0.79532 0.0
H2696 H 0.86434 0.81147 0.78045 0.0
H2697 H 0.83591 0.7407 0.76146 0.0
H2698 H 0.9128 0.8152 0.75454 0.0
H2699 H 0.92093 0.81076 0.78393 0.0
H2700 H 0.90193 0.82844 0.77855 0.0
H2701 H 0.87042 0.72607 0.72989 0.0
H2702 H 0.85977 0.71587 0.75537 0.0
H2703 H 0.88958 0.72593 0.75558 0.0
C2704 C 0.11353 0.0732 0.89025 0.0
C2705 C 0.10474 0.05611 0.87102 0.0
C2706 C 0.10728 0.07103 0.91286 0.0
C2707 C 0.09119 0.05158 0.9164 0.0
C2708 C 0.0822 0.0343 0.89694 0.0
C2709 C 0.08935 0.0366 0.87469 0.0
C2710 C 0.11783 0.08966 0.93299 0.0
C2711 C 0.06451 0.01362 0.89948 0.0
C2712 C 0.08503 0.0383 0.97943 0.0
C2713 C 0.06679 0.0471 0.98449 0.0
C2714 C 0.09313 0.03957 0.95749 0.0
C2715 C 0.08288 0.04994 0.94002 0.0
C2716 C 0.06461 0.05902 0.94522 0.0
C2717 C 0.05692 0.05756 0.9672 0.0
C2718 C 0.11276 0.02983 0.95303 0.0
C2719 C 0.05307 0.07037 0.92752 0.0
H2720 H 0.12556 0.08826 0.88764 0.0
H2721 H 0.08239 0.02337 0.85994 0.0
H2722 H 0.1047 0.09713 0.93979 0.0
H2723 H 0.12576 0.08275 0.9477 0.0
H2724 H 0.13078 0.10322 0.92774 0.0
H2725 H 0.05971 1.00133 0.88304 0.0
H2726 H 0.07066 1.00522 0.91392 0.0
H2727 H 0.04924 0.01857 0.90423 0.0
H2728 H 0.09287 0.03027 0.99257 0.0
H2729 H 0.04298 0.06467 0.97084 0.0
H2730 H 0.12695 0.04328 0.94969 0.0
H2731 H 0.108 0.01698 0.93708 0.0
H2732 H 0.11865 0.02195 0.96808 0.0
H2733 H 0.0652 0.08538 0.9237 0.0
H2734 H 0.03855 0.07578 0.93382 0.0
H2735 H 0.04702 0.05877 0.91072 0.0
C2736 C 0.80446 0.42153 0.59346 0.0
C2737 C 0.79026 0.40902 0.57342 0.0
C2738 C 0.80974 0.41116 0.61281 0.0
C2739 C 0.80029 0.38788 0.61212 0.0
C2740 C 0.7845 0.37557 0.59279 0.0
C2741 C 0.77958 0.38637 0.5736 0.0
C2742 C 0.82691 0.42472 0.63311 0.0
C2743 C 0.77389 0.35078 0.59177 0.0
C2744 C 0.8396 0.36149 0.64694 0.0
C2745 C 0.83139 0.36203 0.66852 0.0
C2746 C 0.82866 0.3685 0.62779 0.0
C2747 C 0.80909 0.37619 0.63045 0.0
C2748 C 0.79984 0.37531 0.65168 0.0
C2749 C 0.81118 0.36824 0.67059 0.0
C2750 C 0.83879 0.36891 0.60519 0.0
C2751 C 0.77886 0.3832 0.65491 0.0
H2752 H 0.81277 0.43904 0.5934 0.0
H2753 H 0.76843 0.37671 0.55817 0.0
H2754 H 0.82055 0.42236 0.65007 0.0
H2755 H 0.84255 0.41875 0.63348 0.0
H2756 H 0.83126 0.44299 0.63177 0.0
H2757 H 0.76285 0.34342 0.57484 0.0
H2758 H 0.78708 0.34141 0.59418 0.0
H2759 H 0.76373 0.34818 0.60632 0.0
H2760 H 0.85488 0.35604 0.64522 0.0
H2761 H 0.80476 0.36852 0.6873 0.0
H2762 H 0.84537 0.3866 0.60245 0.0
H2763 H 0.82579 0.36058 0.58996 0.0
H2764 H 0.8528 0.36042 0.60535 0.0
H2765 H 0.78287 0.40183 0.6565 0.0
H2766 H 0.7719 0.3781 0.67092 0.0
H2767 H 0.76572 0.37643 0.63941 0.0
C2768 C 0.47303 0.04459 0.39317 0.0
C2769 C 0.44958 0.0399 0.38992 0.0
C2770 C 0.48482 0.04432 0.415 0.0
C2771 C 0.47265 0.03883 0.4337 0.0
C2772 C 0.44898 0.03476 0.43079 0.0
C2773 C 0.4376 0.03566 0.40876 0.0
C2774 C 0.51021 0.0491 0.41781 0.0
C2775 C 0.43575 0.02873 0.4506 0.0
C2776 C 0.50774 0.01752 0.47845 0.0
C2777 C 0.51606 0.03703 0.49466 0.0
C2778 C 0.49171 0.01724 0.45935 0.0
C2779 C 0.48513 0.0373 0.45615 0.0
C2780 C 0.49338 0.05693 0.47275 0.0
C2781 C 0.50868 0.05647 0.49206 0.0
C2782 C 0.48236 0.9958 0.44228 0.0
C2783 C 0.48718 0.07875 0.46942 0.0
H2784 H 0.4821 0.04785 0.37841 0.0
H2785 H 0.41937 0.03176 0.40594 0.0
H2786 H 0.51784 0.06248 0.43294 0.0
H2787 H 0.51561 0.03377 0.42152 0.0
H2788 H 0.51704 0.05446 0.40183 0.0
H2789 H 0.41732 0.02367 0.44465 0.0
H2790 H 0.4408 0.01477 0.45848 0.0
H2791 H 0.43945 0.04337 0.46473 0.0
H2792 H 0.51336 1.00248 0.48107 0.0
H2793 H 0.51538 0.07155 0.50481 0.0
H2794 H 0.48913 0.99765 0.42544 0.0
H2795 H 0.46377 0.99238 0.43841 0.0
H2796 H 0.48678 0.98106 0.44916 0.0
H2797 H 0.49456 0.0854 0.45424 0.0
H2798 H 0.49339 0.09175 0.4852 0.0
H2799 H 0.46868 0.07595 0.46541 0.0
C2800 C 0.76164 0.7285 0.11091 0.0
C2801 C 0.78199 0.72671 0.10324 0.0
C2802 C 0.76053 0.73522 0.13484 0.0
C2803 C 0.78041 0.74124 0.15152 0.0
C2804 C 0.80113 0.74 0.14366 0.0
C2805 C 0.80156 0.73224 0.11981 0.0
C2806 C 0.7379 0.735 0.14244 0.0
C2807 C 0.82284 0.74643 0.16055 0.0
C2808 C 0.77969 0.77779 0.20975 0.0
C2809 C 0.77879 0.76234 0.22584 0.0
C2810 C 0.78046 0.77122 0.18567 0.0
C2811 C 0.77947 0.74845 0.17716 0.0
C2812 C 0.77779 0.73265 0.19329 0.0
C2813 C 0.7778 0.73983 0.21735 0.0
C2814 C 0.78312 0.78883 0.16945 0.0
C2815 C 0.7757 0.70804 0.18513 0.0
H2816 H 0.74633 0.72345 0.09835 0.0
H2817 H 0.81723 0.73035 0.1141 0.0
H2818 H 0.73485 0.72394 0.15618 0.0
H2819 H 0.73764 0.75216 0.1503 0.0
H2820 H 0.72392 0.72897 0.12757 0.0
H2821 H 0.83776 0.74702 0.15133 0.0
H2822 H 0.82474 0.76314 0.17107 0.0
H2823 H 0.82258 0.73404 0.17304 0.0
H2824 H 0.78075 0.79525 0.21616 0.0
H2825 H 0.77694 0.72772 0.22961 0.0
H2826 H 0.76874 0.78443 0.15501 0.0
H2827 H 0.79861 0.78932 0.16125 0.0
H2828 H 0.78416 0.80587 0.17877 0.0
H2829 H 0.75941 0.70078 0.17355 0.0
H2830 H 0.77645 0.69826 0.20005 0.0
H2831 H 0.7892 0.70589 0.17463 0.0
C2832 C 0.08528 0.05202 0.72676 0.0
C2833 C 0.10758 0.05103 0.7333 0.0
C2834 C 0.07677 0.05221 0.70297 0.0
C2835 C 0.09088 0.05176 0.68519 0.0
C2836 C 0.11344 0.05096 0.69178 0.0
C2837 C 0.12138 0.05048 0.71549 0.0
C2838 C 0.05255 0.05276 0.69681 0.0
C2839 C 0.12934 0.05073 0.67376 0.0
C2840 C 0.0644 0.03038 0.62093 0.0
C2841 C 0.06574 0.05036 0.61102 0.0
C2842 C 0.07252 0.03063 0.6448 0.0
C2843 C 0.08202 0.0514 0.65963 0.0
C2844 C 0.08366 0.07166 0.64973 0.0
C2845 C 0.07578 0.07087 0.62561 0.0
C2846 C 0.07108 1.00853 0.65408 0.0
C2847 C 0.09373 0.09423 0.66465 0.0
H2848 H 0.07443 0.05249 0.74019 0.0
H2849 H 0.13874 0.05 0.7201 0.0
H2850 H 0.05161 0.06747 0.68774 0.0
H2851 H 0.04342 0.03743 0.68445 0.0
H2852 H 0.04386 0.05367 0.71257 0.0
H2853 H 0.14621 0.0495 0.68156 0.0
H2854 H 0.12229 0.03635 0.6595 0.0
H2855 H 0.13141 0.06633 0.66556 0.0
H2856 H 0.05706 0.01432 0.60996 0.0
H2857 H 0.07749 0.08636 0.61822 0.0
H2858 H 0.06119 1.00774 0.66898 0.0
H2859 H 0.08817 1.00722 0.66091 0.0
H2860 H 0.06317 0.99381 0.64039 0.0
H2861 H 0.08395 0.09629 0.67936 0.0
H2862 H 0.09394 0.10843 0.65441 0.0
H2863 H 0.1112 0.09519 0.67254 0.0
C2864 C 0.79404 0.39092 0.42966 0.0
C2865 C 0.80408 0.38523 0.45027 0.0
C2866 C 0.79477 0.37905 0.40779 0.0
C2867 C 0.80556 0.36123 0.40702 0.0
C2868 C 0.81679 0.35635 0.42762 0.0
C2869 C 0.81594 0.36848 0.44905 0.0
C2870 C 0.78349 0.38505 0.38571 0.0
C2871 C 0.82911 0.33785 0.4271 0.0
C2872 C 0.78433 0.3114 0.35992 0.0
C2873 C 0.80163 0.31479 0.34621 0.0
C2874 C 0.78519 0.3269 0.37968 0.0
C2875 C 0.80359 0.34611 0.38518 0.0
C2876 C 0.82128 0.34926 0.37146 0.0
C2877 C 0.82032 0.33306 0.35236 0.0
C2878 C 0.76646 0.32277 0.39459 0.0
C2879 C 0.84073 0.36997 0.37626 0.0
H2880 H 0.78528 0.40423 0.43063 0.0
H2881 H 0.82434 0.36454 0.46494 0.0
H2882 H 0.79445 0.38548 0.37172 0.0
H2883 H 0.76767 0.37201 0.37902 0.0
H2884 H 0.77936 0.4016 0.38891 0.0
H2885 H 0.8371 0.3364 0.44486 0.0
H2886 H 0.81726 0.32145 0.41961 0.0
H2887 H 0.8424 0.34108 0.41562 0.0
H2888 H 0.76988 0.29711 0.35471 0.0
H2889 H 0.83389 0.33488 0.34182 0.0
H2890 H 0.75812 0.33686 0.39507 0.0
H2891 H 0.77347 0.32209 0.41295 0.0
H2892 H 0.75356 0.30681 0.38788 0.0
H2893 H 0.83508 0.38409 0.36936 0.0
H2894 H 0.85519 0.36733 0.36743 0.0
H2895 H 0.84662 0.37516 0.39536 0.0
C2896 C 0.41133 0.01688 0.24371 0.0
C2897 C 0.42073 0.03489 0.2617 0.0
C2898 C 0.42246 0.01344 0.22442 0.0
C2899 C 0.44308 0.02876 0.22304 0.0
C2900 C 0.45139 0.04824 0.23991 0.0
C2901 C 0.44018 0.05096 0.25932 0.0
C2902 C 0.41332 0.99227 0.20687 0.0
C2903 C 0.4729 0.06528 0.23831 0.0
C2904 C 0.48392 1.00054 0.19628 0.0
C2905 C 0.47961 1.00327 0.17265 0.0
C2906 C 0.47271 1.00958 0.21311 0.0
C2907 C 0.45748 0.02237 0.20621 0.0
C2908 C 0.4544 0.0268 0.18283 0.0
C2909 C 0.46518 0.0168 0.16615 0.0
C2910 C 0.47618 1.00427 0.23794 0.0
C2911 C 0.43878 0.04097 0.17513 0.0
H2912 H 0.39629 1.00443 0.24562 0.0
H2913 H 0.44725 0.06505 0.2732 0.0
H2914 H 0.41254 0.99631 0.18865 0.0
H2915 H 0.42476 0.98091 0.20862 0.0
H2916 H 0.39626 0.98304 0.20949 0.0
H2917 H 0.47593 0.08048 0.25169 0.0
H2918 H 0.48739 0.05762 0.24093 0.0
H2919 H 0.47235 0.07047 0.22055 0.0
H2920 H 0.49558 0.99073 0.20153 0.0
H2921 H 0.46156 0.01891 0.14789 0.0
H2922 H 0.46015 0.99408 0.24212 0.0
H2923 H 0.48117 0.01999 0.25072 0.0
H2924 H 0.48926 0.99476 0.24052 0.0
H2925 H 0.42115 0.0307 0.1724 0.0
H2926 H 0.44241 0.04724 0.15836 0.0
H2927 H 0.44009 0.05559 0.18876 0.0
C2928 C 0.76892 0.74675 0.96062 0.0
C2929 C 0.7781 0.72932 0.96766 0.0
C2930 C 0.77142 0.7541 0.93856 0.0
C2931 C 0.78292 0.74348 0.92257 0.0
C2932 C 0.79226 0.72588 0.92958 0.0
C2933 C 0.79002 0.71926 0.95203 0.0
C2934 C 0.76156 0.77322 0.93232 0.0
C2935 C 0.80424 0.71364 0.91312 0.0
C2936 C 0.76695 0.74743 0.85735 0.0
C2937 C 0.78603 0.76233 0.85191 0.0
C2938 C 0.76615 0.74051 0.87973 0.0
C2939 C 0.78419 0.75 0.89819 0.0
C2940 C 0.80321 0.76577 0.89321 0.0
C2941 C 0.80422 0.77109 0.87009 0.0
C2942 C 0.74588 0.72291 0.88351 0.0
C2943 C 0.82233 0.77742 0.91243 0.0
H2944 H 0.75969 0.75473 0.97242 0.0
H2945 H 0.7971 0.70571 0.95706 0.0
H2946 H 0.77431 0.78612 0.92593 0.0
H2947 H 0.74727 0.76686 0.91788 0.0
H2948 H 0.75539 0.78138 0.94751 0.0
H2949 H 0.80851 0.69889 0.92008 0.0
H2950 H 0.79364 0.70782 0.8957 0.0
H2951 H 0.82003 0.72526 0.91029 0.0
H2952 H 0.7523 0.74127 0.84424 0.0
H2953 H 0.81926 0.78231 0.86636 0.0
H2954 H 0.73602 0.73058 0.89547 0.0
H2955 H 0.75128 0.70939 0.89194 0.0
H2956 H 0.73467 0.71516 0.86676 0.0
H2957 H 0.81578 0.78595 0.92707 0.0
H2958 H 0.83536 0.79011 0.90609 0.0
H2959 H 0.83037 0.7649 0.9197 0.0
C2960 C 0.84466 0.11725 0.08772 0.0
C2961 C 0.82512 0.10166 0.0764 0.0
C2962 C 0.86572 0.11373 0.08464 0.0
C2963 C 0.86678 0.09485 0.06896 0.0
C2964 C 0.84687 0.07874 0.05805 0.0
C2965 C 0.82613 0.08223 0.0623 0.0
C2966 C 0.88661 0.13067 0.09726 0.0
C2967 C 0.84735 0.05855 0.04081 0.0
C2968 C 0.9085 0.0931 0.02806 0.0
C2969 C 0.91664 0.07528 0.03515 0.0
C2970 C 0.89408 0.10204 0.04093 0.0
C2971 C 0.88817 0.09295 0.06138 0.0
C2972 C 0.89914 0.07747 0.07054 0.0
C2973 C 0.91324 0.06853 0.05708 0.0
C2974 C 0.88279 0.11877 0.0308 0.0
C2975 C 0.89381 0.06834 0.09295 0.0
H2976 H 0.84343 0.13224 0.09873 0.0
H2977 H 0.81069 0.07044 0.05361 0.0
H2978 H 0.90048 0.12254 0.10169 0.0
H2979 H 0.89241 0.14339 0.08577 0.0
H2980 H 0.88319 0.13964 0.1137 0.0
H2981 H 0.83024 0.04784 0.03389 0.0
H2982 H 0.85563 0.06419 0.02571 0.0
H2983 H 0.85725 0.04806 0.04938 0.0
H2984 H 0.91198 0.09878 0.01148 0.0
H2985 H 0.91999 0.05499 0.06276 0.0
H2986 H 0.88243 0.13256 0.04467 0.0
H2987 H 0.86512 0.11018 0.0233 0.0
H2988 H 0.8914 0.1262 0.01662 0.0
H2989 H 0.89222 0.08194 0.10647 0.0
H2990 H 0.90691 0.0603 0.10015 0.0
H2991 H 0.87748 0.05552 0.08936 0.0
C2992 C 0.39058 0.43158 0.04142 0.0
C2993 C 0.37659 0.43787 0.05709 0.0
C2994 C 0.41192 0.44555 0.04047 0.0
C2995 C 0.4197 0.46621 0.05584 0.0
C2996 C 0.40574 0.4726 0.07182 0.0
C2997 C 0.38431 0.4585 0.0721 0.0
C2998 C 0.42623 0.43803 0.02318 0.0
C2999 C 0.4136 0.49423 0.08885 0.0
C3000 C 0.48296 0.49124 0.06947 0.0
C3001 C 0.48639 0.50802 0.05481 0.0
C3002 C 0.46142 0.47765 0.07004 0.0
C3003 C 0.44267 0.48087 0.05565 0.0
C3004 C 0.44594 0.49798 0.04104 0.0
C3005 C 0.46775 0.51137 0.04081 0.0
C3006 C 0.45881 0.45964 0.08586 0.0
C3007 C 0.42642 0.50179 0.02527 0.0
H3008 H 0.3848 0.41573 0.02972 0.0
H3009 H 0.37374 0.46347 0.08441 0.0
H3010 H 0.43228 0.45157 0.01266 0.0
H3011 H 0.44128 0.43451 0.03286 0.0
H3012 H 0.41696 0.42261 0.01098 0.0
H3013 H 0.40087 0.49672 0.10036 0.0
H3014 H 0.42937 0.49425 0.10014 0.0
H3015 H 0.41744 0.50877 0.07905 0.0
H3016 H 0.49724 0.48849 0.08039 0.0
H3017 H 0.47027 0.52405 0.0292 0.0
H3018 H 0.4521 0.44283 0.07513 0.0
H3019 H 0.44655 0.46196 0.09796 0.0
H3020 H 0.47499 0.45977 0.09651 0.0
H3021 H 0.41848 0.48633 0.01259 0.0
H3022 H 0.43165 0.516 0.01526 0.0
H3023 H 0.41343 0.50534 0.03589 0.0
C3024 C 0.4055 0.59465 0.78019 0.0
C3025 C 0.39247 0.57322 0.77008 0.0
C3026 C 0.39617 0.61336 0.7815 0.0
C3027 C 0.37303 0.61042 0.7733 0.0
C3028 C 0.35984 0.58885 0.76282 0.0
C3029 C 0.36982 0.57056 0.761 0.0
C3030 C 0.41102 0.63625 0.79192 0.0
C3031 C 0.33509 0.58503 0.75411 0.0
C3032 C 0.3479 0.65387 0.80467 0.0
C3033 C 0.34736 0.66878 0.78827 0.0
C3034 C 0.35516 0.63422 0.79949 0.0
C3035 C 0.3624 0.62959 0.77747 0.0
C3036 C 0.36087 0.64414 0.76039 0.0
C3037 C 0.35322 0.66359 0.76599 0.0
C3038 C 0.35609 0.61899 0.81804 0.0
C3039 C 0.36877 0.64018 0.73687 0.0
H3040 H 0.42313 0.59685 0.78679 0.0
H3041 H 0.35972 0.55403 0.75303 0.0
H3042 H 0.40927 0.64869 0.77987 0.0
H3043 H 0.4057 0.64209 0.80874 0.0
H3044 H 0.42903 0.63609 0.79536 0.0
H3045 H 0.32721 0.56732 0.7461 0.0
H3046 H 0.32619 0.58941 0.76894 0.0
H3047 H 0.3326 0.5962 0.74086 0.0
H3048 H 0.34334 0.65802 0.82191 0.0
H3049 H 0.35298 0.67533 0.75344 0.0
H3050 H 0.37387 0.61967 0.82448 0.0
H3051 H 0.34771 0.60129 0.81043 0.0
H3052 H 0.34793 0.62385 0.83331 0.0
H3053 H 0.38738 0.64611 0.73917 0.0
H3054 H 0.36166 0.64953 0.72388 0.0
H3055 H 0.36421 0.62204 0.72961 0.0
C3056 C 0.19609 0.5876 0.56319 0.0
C3057 C 0.20715 0.60726 0.55538 0.0
C3058 C 0.1731 0.58309 0.56405 0.0
C3059 C 0.16108 0.59852 0.55652 0.0
C3060 C 0.17203 0.61833 0.54853 0.0
C3061 C 0.19512 0.62252 0.54805 0.0
C3062 C 0.16171 0.56179 0.57289 0.0
C3063 C 0.15938 0.63498 0.5406 0.0
C3064 C 0.1018 0.56656 0.53862 0.0
C3065 C 0.09289 0.57129 0.5591 0.0
C3066 C 0.1235 0.57786 0.53632 0.0
C3067 C 0.13674 0.59286 0.55576 0.0
C3068 C 0.12741 0.59847 0.57618 0.0
C3069 C 0.10524 0.58761 0.57751 0.0
C3070 C 0.13308 0.57181 0.51423 0.0
C3071 C 0.14141 0.61366 0.59762 0.0
H3072 H 0.20544 0.57596 0.56916 0.0
H3073 H 0.20376 0.63786 0.5422 0.0
H3074 H 0.1521 0.56579 0.58721 0.0
H3075 H 0.14957 0.55046 0.55845 0.0
H3076 H 0.1739 0.5525 0.57962 0.0
H3077 H 0.17063 0.6499 0.53539 0.0
H3078 H 0.14629 0.62671 0.52541 0.0
H3079 H 0.15062 0.64079 0.55492 0.0
H3080 H 0.09258 0.55272 0.5253 0.0
H3081 H 0.09814 0.59058 0.59357 0.0
H3082 H 0.14566 0.56203 0.51813 0.0
H3083 H 0.1418 0.58728 0.50775 0.0
H3084 H 0.11986 0.56154 0.50001 0.0
H3085 H 0.151 0.60384 0.60774 0.0
H3086 H 0.13073 0.62043 0.60935 0.0
H3087 H 0.15373 0.6279 0.59267 0.0
C3088 C 0.7116 0.98589 0.75755 0.0
C3089 C 0.72967 1.00461 0.75844 0.0
C3090 C 0.71553 0.96523 0.76155 0.0
C3091 C 0.73792 0.96402 0.76767 0.0
C3092 C 0.7562 0.98252 0.76678 0.0
C3093 C 0.75176 1.00267 0.76174 0.0
C3094 C 0.69572 0.94541 0.76091 0.0
C3095 C 0.7804 0.98176 0.77327 0.0
C3096 C 0.7552 0.93455 0.8164 0.0
C3097 C 0.76524 0.91958 0.80429 0.0
C3098 C 0.74393 0.94779 0.80421 0.0
C3099 C 0.74256 0.94555 0.77942 0.0
C3100 C 0.75036 0.92867 0.76691 0.0
C3101 C 0.76203 0.91603 0.77957 0.0
C3102 C 0.73528 0.96548 0.81801 0.0
C3103 C 0.74764 0.92508 0.74034 0.0
H3104 H 0.69446 0.98756 0.75434 0.0
H3105 H 0.76554 0.01733 0.76215 0.0
H3106 H 0.70018 0.92915 0.75673 0.0
H3107 H 0.68979 0.94589 0.77832 0.0
H3108 H 0.6815 0.94615 0.74768 0.0
H3109 H 0.7925 0.99756 0.77113 0.0
H3110 H 0.78331 0.97896 0.79187 0.0
H3111 H 0.7841 0.96758 0.76218 0.0
H3112 H 0.75686 0.93644 0.83544 0.0
H3113 H 0.76945 0.90407 0.77014 0.0
H3114 H 0.71731 0.96375 0.81148 0.0
H3115 H 0.74475 0.9825 0.81559 0.0
H3116 H 0.73697 0.96431 0.83714 0.0
H3117 H 0.7297 0.92265 0.73305 0.0
H3118 H 0.75349 0.91027 0.73329 0.0
H3119 H 0.75728 0.94018 0.73394 0.0
C3120 C 0.73989 0.92344 0.55617 0.0
C3121 C 0.7604 0.93674 0.56834 0.0
C3122 C 0.72115 0.93242 0.5526 0.0
C3123 C 0.72326 0.95543 0.56071 0.0
C3124 C 0.74383 0.96887 0.57335 0.0
C3125 C 0.76213 0.95925 0.5773 0.0
C3126 C 0.69918 0.91738 0.53982 0.0
C3127 C 0.74665 0.99349 0.58211 0.0
C3128 C 0.6825 0.97939 0.5242 0.0
C3129 C 0.66565 0.97915 0.53846 0.0
C3130 C 0.70203 0.97294 0.53191 0.0
C3131 C 0.70441 0.96567 0.55421 0.0
C3132 C 0.68783 0.96644 0.56914 0.0
C3133 C 0.66863 0.9734 0.56109 0.0
C3134 C 0.71962 0.97293 0.51576 0.0
C3135 C 0.68945 0.95845 0.59283 0.0
H3136 H 0.73844 0.90592 0.54961 0.0
H3137 H 0.77799 0.96953 0.58682 0.0
H3138 H 0.68531 0.9187 0.55012 0.0
H3139 H 0.69509 0.9229 0.52261 0.0
H3140 H 0.69975 0.89946 0.53663 0.0
H3141 H 0.76361 1.00151 0.59211 0.0
H3142 H 0.74393 1.00259 0.56699 0.0
H3143 H 0.73383 0.99554 0.59361 0.0
H3144 H 0.68011 0.98415 0.50678 0.0
H3145 H 0.65544 0.97331 0.57201 0.0
H3146 H 0.71995 0.95535 0.50957 0.0
H3147 H 0.73655 0.98167 0.52536 0.0
H3148 H 0.71631 0.98123 0.50014 0.0
H3149 H 0.68373 0.93981 0.59026 0.0
H3150 H 0.67863 0.96528 0.60435 0.0
H3151 H 0.707 0.96324 0.60199 0.0
C3152 C 0.40672 0.43521 0.77783 0.0
C3153 C 0.39739 0.45388 0.77814 0.0
C3154 C 0.39326 0.41343 0.77784 0.0
C3155 C 0.36987 0.41016 0.77849 0.0
C3156 C 0.36033 0.42894 0.77886 0.0
C3157 C 0.37414 0.45052 0.77848 0.0
C3158 C 0.40413 0.3939 0.77724 0.0
C3159 C 0.33554 0.42626 0.7799 0.0
C3160 C 0.33257 0.35063 0.75929 0.0
C3161 C 0.32872 0.34362 0.78095 0.0
C3162 C 0.34541 0.37247 0.75818 0.0
C3163 C 0.35549 0.38718 0.77928 0.0
C3164 C 0.35187 0.37989 0.80122 0.0
C3165 C 0.33797 0.35847 0.80175 0.0
C3166 C 0.34809 0.37984 0.73445 0.0
C3167 C 0.36304 0.39451 0.82414 0.0
H3168 H 0.4246 0.43758 0.77735 0.0
H3169 H 0.36677 0.46483 0.77884 0.0
H3170 H 0.40088 0.38507 0.79264 0.0
H3171 H 0.39664 0.38156 0.76123 0.0
H3172 H 0.42259 0.3993 0.77729 0.0
H3173 H 0.33053 0.44234 0.77925 0.0
H3174 H 0.32546 0.41367 0.76506 0.0
H3175 H 0.33123 0.41985 0.7964 0.0
H3176 H 0.32512 0.33919 0.74324 0.0
H3177 H 0.335 0.35294 0.81851 0.0
H3178 H 0.3661 0.38377 0.73213 0.0
H3179 H 0.34229 0.39545 0.73334 0.0
H3180 H 0.33842 0.36676 0.71977 0.0
H3181 H 0.38158 0.39848 0.82477 0.0
H3182 H 0.35861 0.38627 0.83968 0.0
H3183 H 0.35811 0.41071 0.82544 0.0
C3184 C 0.21918 0.63743 0.29773 0.0
C3185 C 0.23229 0.62468 0.28686 0.0
C3186 C 0.22366 0.66058 0.29764 0.0
C3187 C 0.24164 0.67094 0.28649 0.0
C3188 C 0.25546 0.65835 0.27623 0.0
C3189 C 0.25064 0.63523 0.27664 0.0
C3190 C 0.20875 0.6738 0.30867 0.0
C3191 C 0.27486 0.66916 0.26419 0.0
C3192 C 0.24622 0.72462 0.26136 0.0
C3193 C 0.26352 0.73876 0.27762 0.0
C3194 C 0.23729 0.7026 0.26503 0.0
C3195 C 0.24625 0.69503 0.28533 0.0
C3196 C 0.26258 0.7099 0.30259 0.0
C3197 C 0.27142 0.73162 0.29821 0.0
C3198 C 0.21993 0.68696 0.24623 0.0
C3199 C 0.27235 0.70227 0.32447 0.0
H3200 H 0.20495 0.62921 0.30565 0.0
H3201 H 0.2606 0.62532 0.26804 0.0
H3202 H 0.21906 0.68815 0.32163 0.0
H3203 H 0.19977 0.68096 0.29492 0.0
H3204 H 0.19609 0.66327 0.31764 0.0
H3205 H 0.28387 0.65684 0.25708 0.0
H3206 H 0.26865 0.6772 0.24947 0.0
H3207 H 0.28707 0.68256 0.27676 0.0
H3208 H 0.24058 0.73042 0.24526 0.0
H3209 H 0.2856 0.74235 0.31008 0.0
H3210 H 0.20632 0.67662 0.2542 0.0
H3211 H 0.22799 0.67526 0.23637 0.0
H3212 H 0.21237 0.69628 0.23353 0.0
H3213 H 0.25878 0.69259 0.333 0.0
H3214 H 0.28263 0.71667 0.33744 0.0
H3215 H 0.28321 0.69098 0.31959 0.0
C3216 C 0.54413 0.70342 0.49358 0.0
C3217 C 0.53241 0.71696 0.50594 0.0
C3218 C 0.54587 0.68196 0.49956 0.0
C3219 C 0.53588 0.6732 0.51873 0.0
C3220 C 0.52403 0.68686 0.53128 0.0
C3221 C 0.52238 0.70821 0.52478 0.0
C3222 C 0.55862 0.66863 0.48527 0.0
C3223 C 0.51306 0.67895 0.55185 0.0
C3224 C 0.52535 0.60825 0.52108 0.0
C3225 C 0.54236 0.60651 0.53882 0.0
C3226 C 0.52271 0.62944 0.51494 0.0
C3227 C 0.53802 0.6501 0.52572 0.0
C3228 C 0.55535 0.64847 0.54337 0.0
C3229 C 0.55674 0.6272 0.55014 0.0
C3230 C 0.50311 0.62976 0.49708 0.0
C3231 C 0.57296 0.66931 0.55488 0.0
H3232 H 0.55193 0.70961 0.47894 0.0
H3233 H 0.51332 0.7182 0.53468 0.0
H3234 H 0.57246 0.66499 0.49693 0.0
H3235 H 0.54731 0.65222 0.47695 0.0
H3236 H 0.56583 0.67762 0.47123 0.0
H3237 H 0.50278 0.69017 0.55858 0.0
H3238 H 0.50217 0.66163 0.54675 0.0
H3239 H 0.52618 0.67836 0.56637 0.0
H3240 H 0.51372 0.59293 0.5121 0.0
H3241 H 0.56929 0.62696 0.56447 0.0
H3242 H 0.50911 0.63852 0.48243 0.0
H3243 H 0.49212 0.63926 0.50543 0.0
H3244 H 0.49295 0.61261 0.48966 0.0
H3245 H 0.58299 0.67638 0.54149 0.0
H3246 H 0.58454 0.66584 0.56928 0.0
H3247 H 0.56495 0.6824 0.56213 0.0
C3248 C 0.6653 0.31787 0.6698 0.0
C3249 C 0.64401 0.31237 0.67717 0.0
C3250 C 0.68487 0.31583 0.68393 0.0
C3251 C 0.68329 0.30781 0.70595 0.0
C3252 C 0.66192 0.3026 0.71361 0.0
C3253 C 0.64278 0.30506 0.69935 0.0
C3254 C 0.70721 0.32178 0.675 0.0
C3255 C 0.65912 0.29391 0.73675 0.0
C3256 C 0.72774 0.27959 0.73255 0.0
C3257 C 0.74106 0.2967 0.74989 0.0
C3258 C 0.70927 0.28309 0.71794 0.0
C3259 C 0.70368 0.30421 0.72077 0.0
C3260 C 0.71705 0.32147 0.73851 0.0
C3261 C 0.73557 0.31756 0.7527 0.0
C3262 C 0.69566 0.26409 0.69949 0.0
C3263 C 0.7118 0.34415 0.74251 0.0
H3264 H 0.66665 0.32337 0.65277 0.0
H3265 H 0.62659 0.30058 0.70547 0.0
H3266 H 0.71979 0.33394 0.68844 0.0
H3267 H 0.71354 0.30646 0.67181 0.0
H3268 H 0.70604 0.32918 0.65841 0.0
H3269 H 0.64139 0.29035 0.74018 0.0
H3270 H 0.66492 0.27821 0.73691 0.0
H3271 H 0.66969 0.3064 0.7514 0.0
H3272 H 0.73192 0.26347 0.73023 0.0
H3273 H 0.74582 0.33085 0.76608 0.0
H3274 H 0.69536 0.26959 0.68188 0.0
H3275 H 0.678 0.25938 0.703 0.0
H3276 H 0.70247 0.24893 0.69901 0.0
H3277 H 0.71278 0.35206 0.72625 0.0
H3278 H 0.72352 0.3557 0.75716 0.0
H3279 H 0.69437 0.34213 0.74658 0.0
C3280 C 0.99722 0.35943 0.01403 0.0
C3281 C 0.01413 0.35089 0.00439 0.0
C3282 C 0.99962 0.38297 0.021 0.0
C3283 C 0.01975 0.39917 0.01911 0.0
C3284 C 0.03706 0.39062 0.00977 0.0
C3285 C 0.03397 0.36702 1.00235 0.0
C3286 C 0.98018 0.39057 0.02991 0.0
C3287 C 0.05922 0.40648 0.00798 0.0
C3288 C 0.02143 0.46271 0.01656 0.0
C3289 C 0.02819 0.47309 0.04013 0.0
C3290 C 0.01801 0.43903 0.00975 0.0
C3291 C 0.02255 0.4248 0.02649 0.0
C3292 C 0.02981 0.43536 0.0503 0.0
C3293 C 0.03191 0.45891 0.05683 0.0
C3294 C 1.00928 0.4292 0.98441 0.0
C3295 C 0.03594 0.42184 0.069 0.0
H3296 H 0.98164 0.34763 0.01564 0.0
H3297 H 0.04735 0.36117 0.99506 0.0
H3298 H 0.98535 0.39951 0.04815 0.0
H3299 H 0.97509 0.40265 0.01892 0.0
H3300 H 0.96537 0.3763 0.02972 0.0
H3301 H 0.07078 0.3977 0.99966 0.0
H3302 H 0.05649 0.4199 0.99764 0.0
H3303 H 0.0675 0.41485 0.02585 0.0
H3304 H 0.01839 0.47316 0.00332 0.0
H3305 H 0.03736 0.46643 0.07505 0.0
H3306 H 0.99421 0.41503 0.98339 0.0
H3307 H 0.0222 0.42236 0.97634 0.0
H3308 H 1.00473 0.44186 0.97387 0.0
H3309 H 0.02065 0.40969 0.07216 0.0
H3310 H 0.04388 0.43267 0.08591 0.0
H3311 H 0.04773 0.412 0.06306 0.0
C3312 C 1.00587 0.81636 0.18491 0.0
C3313 C 1.00754 0.79734 0.17025 0.0
C3314 C 0.9872 0.81563 0.19697 0.0
C3315 C 0.96982 0.79553 0.19387 0.0
C3316 C 0.97086 0.77686 0.1777 0.0
C3317 C 0.9899 0.7779 0.16639 0.0
C3318 C 0.98682 0.83578 0.21417 0.0
C3319 C 0.95252 0.75525 0.17345 0.0
C3320 C 0.93851 0.77531 0.24281 0.0
C3321 C 0.91668 0.77655 0.23474 0.0
C3322 C 0.95638 0.78305 0.23054 0.0
C3323 C 0.95233 0.79251 0.20979 0.0
C3324 C 0.93071 0.79579 0.20282 0.0
C3325 C 0.913 0.78766 0.2154 0.0
C3326 C 0.97905 0.77902 0.23857 0.0
C3327 C 0.92592 0.80621 0.18106 0.0
H3328 H 0.0197 0.83131 0.18796 0.0
H3329 H 0.99128 0.76325 0.15492 0.0
H3330 H 0.96982 0.839 0.21258 0.0
H3331 H 0.99096 0.8324 0.23236 0.0
H3332 H 0.99921 0.85117 0.21151 0.0
H3333 H 0.95482 0.7432 0.15867 0.0
H3334 H 0.95243 0.74706 0.18957 0.0
H3335 H 0.93581 0.75878 0.16947 0.0
H3336 H 0.94125 0.7667 0.25779 0.0
H3337 H 0.89604 0.78849 0.20913 0.0
H3338 H 0.99262 0.79444 0.23899 0.0
H3339 H 0.9823 0.76561 0.22592 0.0
H3340 H 0.98 0.77369 0.25629 0.0
H3341 H 0.939 0.82196 0.18111 0.0
H3342 H 0.90915 0.81003 0.17959 0.0
H3343 H 0.92644 0.7945 0.1652 0.0
C3344 C 0.55471 0.3184 0.14093 0.0
C3345 C 0.54041 0.31268 0.15768 0.0
C3346 C 0.5565 0.33861 0.13164 0.0
C3347 C 0.5436 0.35357 0.13916 0.0
C3348 C 0.52869 0.3477 0.15563 0.0
C3349 C 0.52723 0.32726 0.16468 0.0
C3350 C 0.57283 0.34429 0.11431 0.0
C3351 C 0.51445 0.36304 0.16383 0.0
C3352 C 0.57289 0.41254 0.13169 0.0
C3353 C 0.56335 0.41373 0.10888 0.0
C3354 C 0.56508 0.39384 0.14283 0.0
C3355 C 0.54729 0.3759 0.13081 0.0
C3356 C 0.53604 0.37814 0.10878 0.0
C3357 C 0.54426 0.39712 0.09799 0.0
C3358 C 0.57742 0.39235 0.16642 0.0
C3359 C 0.5167 0.35958 0.09568 0.0
H3360 H 0.56495 0.30726 0.13538 0.0
H3361 H 0.51609 0.32292 0.17756 0.0
H3362 H 0.56395 0.34764 0.09785 0.0
H3363 H 0.58602 0.35981 0.12177 0.0
H3364 H 0.58117 0.33057 0.10981 0.0
H3365 H 0.50588 0.35743 0.1788 0.0
H3366 H 0.52482 0.38053 0.16925 0.0
H3367 H 0.50145 0.36338 0.14909 0.0
H3368 H 0.58752 0.42558 0.14016 0.0
H3369 H 0.53684 0.39811 0.08036 0.0
H3370 H 0.5879 0.38012 0.16406 0.0
H3371 H 0.56538 0.38621 0.1785 0.0
H3372 H 0.58859 0.40885 0.17484 0.0
H3373 H 0.52323 0.3454 0.08827 0.0
H3374 H 0.50738 0.36536 0.08101 0.0
H3375 H 0.50483 0.35304 0.10777 0.0
C3376 C 0.97372 0.30473 0.31366 0.0
C3377 C 0.98134 0.30427 0.33748 0.0
C3378 C 0.95043 0.30264 0.30527 0.0
C3379 C 0.93375 0.29946 0.3207 0.0
C3380 C 0.94139 0.29847 0.34458 0.0
C3381 C 0.96462 0.30102 0.35252 0.0
C3382 C 0.94369 0.30442 0.27985 0.0
C3383 C 0.92492 0.29471 0.36203 0.0
C3384 C 0.87567 0.31403 0.30738 0.0
C3385 C 0.86051 0.29307 0.29848 0.0
C3386 C 0.89918 0.3164 0.31407 0.0
C3387 C 0.90852 0.29733 0.31227 0.0
C3388 C 0.89327 0.27605 0.30357 0.0
C3389 C 0.86986 0.27422 0.29679 0.0
C3390 C 0.91409 0.33952 0.3233 0.0
C3391 C 0.90165 0.25496 0.30165 0.0
H3392 H 0.98603 0.30745 0.30166 0.0
H3393 H 0.96975 0.30041 0.37094 0.0
H3394 H 0.9304 0.2893 0.27147 0.0
H3395 H 0.93649 0.3192 0.27872 0.0
H3396 H 0.95813 0.30622 0.26975 0.0
H3397 H 0.93331 0.29468 0.38005 0.0
H3398 H 0.91557 0.30802 0.36272 0.0
H3399 H 0.91237 0.27837 0.35631 0.0
H3400 H 0.86912 0.32875 0.30948 0.0
H3401 H 0.8588 0.25778 0.29019 0.0
H3402 H 0.92741 0.3438 0.312 0.0
H3403 H 0.92262 0.33976 0.3413 0.0
H3404 H 0.90458 0.35271 0.3239 0.0
H3405 H 0.91475 0.25636 0.28987 0.0
H3406 H 0.88796 0.23965 0.29474 0.0
H3407 H 0.90958 0.2529 0.31918 0.0
C3408 C 1.01031 0.6933 0.64038 0.0
C3409 C 0.01567 0.69642 0.66503 0.0
C3410 C 1.01285 0.67411 0.62622 0.0
C3411 C 0.02169 0.65775 0.63672 0.0
C3412 C 0.02706 0.66074 0.66161 0.0
C3413 C 0.0237 0.6798 0.67543 0.0
C3414 C 1.00635 0.67151 0.59989 0.0
C3415 C 0.03735 0.64432 0.67361 0.0
C3416 C 1.01207 0.59845 0.60258 0.0
C3417 C 0.03174 0.59993 0.59221 0.0
C3418 C 1.00854 0.61708 0.61684 0.0
C3419 C 0.02539 0.63766 0.62163 0.0
C3420 C 0.04553 0.63908 0.61152 0.0
C3421 C 0.04827 0.62039 0.59664 0.0
C3422 C 0.98656 0.61482 0.62653 0.0
C3423 C 0.06428 0.66034 0.61648 0.0
H3424 H 1.00438 0.70613 0.63208 0.0
H3425 H 0.02854 0.68231 0.69434 0.0
H3426 H 0.02137 0.67171 0.59099 0.0
H3427 H 0.99417 0.65503 0.59355 0.0
H3428 H 0.99872 0.68508 0.59449 0.0
H3429 H 0.03988 0.64849 0.69308 0.0
H3430 H 0.02653 0.62698 0.66854 0.0
H3431 H 0.05388 0.64437 0.66778 0.0
H3432 H 0.99915 0.58275 0.59912 0.0
H3433 H 0.06361 0.62163 0.58886 0.0
H3434 H 0.97817 0.62775 0.62078 0.0
H3435 H 0.9897 0.61779 0.64603 0.0
H3436 H 0.9749 0.59794 0.62071 0.0
H3437 H 0.05883 0.67387 0.60817 0.0
H3438 H 0.07979 0.65793 0.60964 0.0
H3439 H 0.06837 0.6662 0.63569 0.0
C3440 C 0.61609 0.80338 0.82271 0.0
C3441 C 0.61695 0.81692 0.84441 0.0
C3442 C 0.63594 0.79864 0.81453 0.0
C3443 C 0.65785 0.80783 0.82783 0.0
C3444 C 0.65874 0.82195 0.84938 0.0
C3445 C 0.63872 0.82596 0.85734 0.0
C3446 C 0.63336 0.78311 0.79179 0.0
C3447 C 0.68108 0.8329 0.86437 0.0
C3448 C 0.70902 0.78082 0.82028 0.0
C3449 C 0.72188 0.7944 0.80614 0.0
C3450 C 0.68838 0.78466 0.82697 0.0
C3451 C 0.67968 0.80271 0.81964 0.0
C3452 C 0.69267 0.8164 0.80527 0.0
C3453 C 0.71321 0.81211 0.79876 0.0
C3454 C 0.67588 0.76932 0.8422 0.0
C3455 C 0.68496 0.83592 0.79682 0.0
H3456 H 0.59975 0.7957 0.81245 0.0
H3457 H 0.64018 0.83636 0.87414 0.0
H3458 H 0.64429 0.79141 0.77974 0.0
H3459 H 0.6389 0.76781 0.79534 0.0
H3460 H 0.6157 0.77793 0.78281 0.0
H3461 H 0.6793 0.8435 0.88056 0.0
H3462 H 0.68956 0.81984 0.86952 0.0
H3463 H 0.69222 0.84358 0.85409 0.0
H3464 H 0.71517 0.76705 0.82625 0.0
H3465 H 0.72267 0.8229 0.78792 0.0
H3466 H 0.65832 0.76184 0.83357 0.0
H3467 H 0.67506 0.77916 0.85924 0.0
H3468 H 0.68398 0.75553 0.84576 0.0
H3469 H 0.66809 0.82977 0.7861 0.0
H3470 H 0.69673 0.84525 0.78607 0.0
H3471 H 0.68333 0.84776 0.81209 0.0
C3472 C 0.46442 0.53327 0.70066 0.0
C3473 C 0.47557 0.52983 0.72203 0.0
C3474 C 0.47541 0.53606 0.68071 0.0
C3475 C 0.49835 0.53564 0.68191 0.0
C3476 C 0.5099 0.53271 0.70355 0.0
C3477 C 0.4984 0.52973 0.72323 0.0
C3478 C 0.46225 0.53895 0.65813 0.0
C3479 C 0.53452 0.5329 0.70597 0.0
C3480 C 0.52182 0.52019 0.62533 0.0
C3481 C 0.52889 0.54114 0.61777 0.0
C3482 C 0.51121 0.5181 0.64563 0.0
C3483 C 0.50993 0.53768 0.66035 0.0
C3484 C 0.51882 0.55906 0.65372 0.0
C3485 C 0.52704 0.56044 0.63196 0.0
C3486 C 0.50043 0.4949 0.6507 0.0
C3487 C 0.51958 0.58056 0.66944 0.0
H3488 H 0.44684 0.53351 0.69935 0.0
H3489 H 0.50731 0.52724 0.73955 0.0
H3490 H 0.47007 0.55523 0.65258 0.0
H3491 H 0.46263 0.52544 0.64389 0.0
H3492 H 0.44444 0.53852 0.6599 0.0
H3493 H 0.5412 0.53072 0.72397 0.0
H3494 H 0.53723 0.51926 0.69327 0.0
H3495 H 0.54434 0.54907 0.70173 0.0
H3496 H 0.52355 0.50524 0.61467 0.0
H3497 H 0.53258 0.57674 0.62635 0.0
H3498 H 0.48213 0.49313 0.65076 0.0
H3499 H 0.50757 0.49241 0.66837 0.0
H3500 H 0.50268 0.48139 0.63744 0.0
H3501 H 0.50289 0.5844 0.66705 0.0
H3502 H 0.53221 0.59501 0.66518 0.0
H3503 H 0.52374 0.57893 0.68824 0.0
C3504 C 0.80019 0.19046 1.00256 0.0
C3505 C 0.78316 0.17241 0.00618 0.0
C3506 C 0.79787 0.20075 0.98234 0.0
C3507 C 0.7777 0.19319 0.96626 0.0
C3508 C 0.76116 0.17399 0.96927 0.0
C3509 C 0.76423 0.1637 0.98921 0.0
C3510 C 0.81619 0.22065 0.97913 0.0
C3511 C 0.73926 0.16563 0.95268 0.0
C3512 C 0.75177 0.23411 0.93655 0.0
C3513 C 0.7534 0.22754 0.91297 0.0
C3514 C 0.76075 0.22382 0.95432 0.0
C3515 C 0.77209 0.20695 0.94835 0.0
C3516 C 0.77507 0.20124 0.9248 0.0
C3517 C 0.76528 0.21126 0.9073 0.0
C3518 C 0.75704 0.23015 0.97933 0.0
C3519 C 0.78768 0.18384 0.91792 0.0
H3520 H 0.81469 0.19718 0.01601 0.0
H3521 H 0.75101 0.14987 0.99247 0.0
H3522 H 0.81848 0.22039 0.96034 0.0
H3523 H 0.81144 0.23643 0.98493 0.0
H3524 H 0.83248 0.22098 0.98967 0.0
H3525 H 0.72886 0.14963 0.95673 0.0
H3526 H 0.72936 0.17849 0.95391 0.0
H3527 H 0.7425 0.16293 0.93423 0.0
H3528 H 0.74319 0.24709 0.94109 0.0
H3529 H 0.76648 0.20586 0.88908 0.0
H3530 H 0.77325 0.23471 0.99129 0.0
H3531 H 0.74604 0.21549 0.98521 0.0
H3532 H 0.74906 0.2445 0.98117 0.0
H3533 H 0.80319 0.18611 0.9306 0.0
H3534 H 0.79235 0.18465 0.89998 0.0
H3535 H 0.77698 0.16677 0.91822 0.0
C3536 C 0.16348 0.54951 0.19221 0.0
C3537 C 0.15746 0.54404 0.21384 0.0
C3538 C 0.14704 0.54953 0.17369 0.0
C3539 C 0.12426 0.54384 0.17713 0.0
C3540 C 0.11797 0.53774 0.19864 0.0
C3541 C 0.13476 0.5378 0.21685 0.0
C3542 C 0.15403 0.55609 0.1507 0.0
C3543 C 0.0936 0.53161 0.20247 0.0
C3544 C 0.08423 0.56388 0.1363 0.0
C3545 C 0.07657 0.54481 0.11934 0.0
C3546 C 0.09978 0.56379 0.15562 0.0
C3547 C 0.10692 0.5439 0.15795 0.0
C3548 C 0.09823 0.52425 0.14143 0.0
C3549 C 0.08315 0.525 0.12206 0.0
C3550 C 0.10931 0.58513 0.17284 0.0
C3551 C 0.1055 0.50277 0.14372 0.0
H3552 H 0.18106 0.5543 0.18992 0.0
H3553 H 0.13011 0.53369 0.23365 0.0
H3554 H 0.14597 0.54236 0.13603 0.0
H3555 H 0.14826 0.57119 0.14682 0.0
H3556 H 0.17255 0.55983 0.15096 0.0
H3557 H 0.09163 0.52736 0.2204 0.0
H3558 H 0.0859 0.54583 0.19979 0.0
H3559 H 0.08403 0.517 0.18938 0.0
H3560 H 0.07898 0.57913 0.13373 0.0
H3561 H 0.07676 0.51022 0.10887 0.0
H3562 H 0.12759 0.59117 0.17225 0.0
H3563 H 0.10731 0.58182 0.19104 0.0
H3564 H 0.10109 0.59876 0.16894 0.0
H3565 H 0.1236 0.5055 0.14191 0.0
H3566 H 0.09577 0.48859 0.13017 0.0
H3567 H 0.10345 0.49788 0.16137 0.0
C3568 C 0.82788 0.83924 0.47708 0.0
C3569 C 0.81092 0.84728 0.48688 0.0
C3570 C 0.82565 0.83135 0.45283 0.0
C3571 C 0.80568 0.83083 0.43784 0.0
C3572 C 0.78837 0.83873 0.44764 0.0
C3573 C 0.7913 0.84708 0.4719 0.0
C3574 C 0.8449 0.82393 0.44315 0.0
C3575 C 0.7666 0.83809 0.43253 0.0
C3576 C 0.80646 0.82888 0.37142 0.0
C3577 C 0.79863 0.80578 0.36313 0.0
C3578 C 0.80914 0.83719 0.39559 0.0
C3579 C 0.80307 0.82217 0.41195 0.0
C3580 C 0.79494 0.7988 0.40354 0.0
C3581 C 0.79328 0.79086 0.37935 0.0
C3582 C 0.81859 0.86209 0.40359 0.0
C3583 C 0.78764 0.78219 0.42008 0.0
H3584 H 0.84327 0.83961 0.48833 0.0
H3585 H 0.77809 0.85325 0.4792 0.0
H3586 H 0.83931 0.80602 0.43503 0.0
H3587 H 0.85042 0.83389 0.4291 0.0
H3588 H 0.85956 0.82592 0.45692 0.0
H3589 H 0.75518 0.84572 0.44247 0.0
H3590 H 0.76997 0.84712 0.41729 0.0
H3591 H 0.75782 0.82037 0.42539 0.0
H3592 H 0.81083 0.84048 0.35897 0.0
H3593 H 0.78708 0.77301 0.37299 0.0
H3594 H 0.83367 0.86494 0.41701 0.0
H3595 H 0.80602 0.86927 0.41198 0.0
H3596 H 0.82334 0.87139 0.38883 0.0
H3597 H 0.8022 0.78206 0.43312 0.0
H3598 H 0.78044 0.76483 0.41067 0.0
H3599 H 0.77485 0.78734 0.43001 0.0
C3600 C 0.50603 0.52307 0.86432 0.0
C3601 C 0.48431 0.52531 0.8569 0.0
C3602 C 0.51465 0.52567 0.88844 0.0
C3603 C 0.501 0.52979 0.9058 0.0
C3604 C 0.47899 0.53192 0.89839 0.0
C3605 C 0.47109 0.53006 0.87415 0.0
C3606 C 0.53837 0.52378 0.89534 0.0
C3607 C 0.4635 0.53557 0.91608 0.0
C3608 C 0.51519 0.51268 0.96634 0.0
C3609 C 0.52541 0.5334 0.98029 0.0
C3610 C 0.50706 0.51127 0.94227 0.0
C3611 C 0.50947 0.53113 0.9316 0.0
C3612 C 0.51983 0.55219 0.94571 0.0
C3613 C 0.5274 0.55306 0.96987 0.0
C3614 C 0.49552 0.4885 0.92837 0.0
C3615 C 0.52324 0.57381 0.93526 0.0
H3616 H 0.5164 0.5194 0.8512 0.0
H3617 H 0.45419 0.53152 0.86867 0.0
H3618 H 0.54786 0.53852 0.90832 0.0
H3619 H 0.53803 0.50854 0.90389 0.0
H3620 H 0.54755 0.52272 0.87997 0.0
H3621 H 0.44654 0.53579 0.90754 0.0
H3622 H 0.46164 0.52204 0.92735 0.0
H3623 H 0.47083 0.55175 0.92781 0.0
H3624 H 0.51282 0.49761 0.97445 0.0
H3625 H 0.53519 0.56917 0.9806 0.0
H3626 H 0.50505 0.48462 0.91395 0.0
H3627 H 0.47843 0.48861 0.92015 0.0
H3628 H 0.49399 0.47482 0.93945 0.0
H3629 H 0.53404 0.5732 0.92122 0.0
H3630 H 0.53121 0.58881 0.94861 0.0
H3631 H 0.5069 0.57586 0.92699 0.0
C3632 C 0.76391 0.17049 0.14566 0.0
C3633 C 0.78252 0.16783 0.13507 0.0
C3634 C 0.76671 0.1861 0.16583 0.0
C3635 C 0.78866 0.19879 0.17546 0.0
C3636 C 0.80763 0.19493 0.16568 0.0
C3637 C 0.80427 0.17956 0.14518 0.0
C3638 C 0.74616 0.19005 0.17587 0.0
C3639 C 0.83125 0.20808 0.1759 0.0
C3640 C 0.78779 0.2561 0.20366 0.0
C3641 C 0.79235 0.2543 0.22754 0.0
C3642 C 0.78841 0.23864 0.18645 0.0
C3643 C 0.7914 0.21824 0.19347 0.0
C3644 C 0.7965 0.21653 0.21746 0.0
C3645 C 0.79889 0.23553 0.23401 0.0
C3646 C 0.78556 0.24196 0.16089 0.0
C3647 C 0.79806 0.19455 0.2257 0.0
H3648 H 0.74713 0.16131 0.1374 0.0
H3649 H 0.8185 0.17706 0.13674 0.0
H3650 H 0.74878 0.1912 0.19532 0.0
H3651 H 0.74317 0.20627 0.1716 0.0
H3652 H 0.73082 0.17652 0.16859 0.0
H3653 H 0.84416 0.20209 0.16683 0.0
H3654 H 0.83314 0.22616 0.17443 0.0
H3655 H 0.83461 0.20675 0.19486 0.0
H3656 H 0.78415 0.2713 0.19835 0.0
H3657 H 0.80589 0.2358 0.25179 0.0
H3658 H 0.76878 0.232 0.15199 0.0
H3659 H 0.7984 0.23597 0.15174 0.0
H3660 H 0.78712 0.25991 0.15884 0.0
H3661 H 0.78085 0.18335 0.22367 0.0
H3662 H 0.80545 0.19695 0.24446 0.0
H3663 H 0.80805 0.18574 0.21496 0.0
C3664 C 0.16364 0.54965 0.35743 0.0
C3665 C 0.15744 0.55888 0.33743 0.0
C3666 C 0.1542 0.5534 0.37803 0.0
C3667 C 0.13836 0.56665 0.37833 0.0
C3668 C 0.13214 0.576 0.35817 0.0
C3669 C 0.14164 0.57186 0.33795 0.0
C3670 C 0.16092 0.54295 0.39919 0.0
C3671 C 0.11551 0.59054 0.35793 0.0
C3672 C 0.09261 0.56524 0.41565 0.0
C3673 C 0.10078 0.58608 0.42988 0.0
C3674 C 0.1059 0.55729 0.40033 0.0
C3675 C 0.12759 0.57077 0.39929 0.0
C3676 C 0.13655 0.59092 0.41519 0.0
C3677 C 0.12291 0.59836 0.43045 0.0
C3678 C 0.09606 0.53554 0.38385 0.0
C3679 C 0.15974 0.60551 0.41469 0.0
H3680 H 0.17593 0.53967 0.35704 0.0
H3681 H 0.1369 0.57922 0.32261 0.0
H3682 H 0.16316 0.55482 0.4157 0.0
H3683 H 0.14736 0.52796 0.40043 0.0
H3684 H 0.17672 0.53751 0.39793 0.0
H3685 H 0.11307 0.59703 0.34094 0.0
H3686 H 0.09895 0.58074 0.36122 0.0
H3687 H 0.12138 0.60513 0.37216 0.0
H3688 H 0.07559 0.55557 0.41598 0.0
H3689 H 0.12919 0.61417 0.44217 0.0
H3690 H 0.10861 0.52534 0.38274 0.0
H3691 H 0.09144 0.53933 0.36591 0.0
H3692 H 0.08075 0.52535 0.38948 0.0
H3693 H 0.17218 0.59516 0.4141 0.0
H3694 H 0.16529 0.61887 0.43022 0.0
H3695 H 0.15968 0.61368 0.39856 0.0
C3696 C 0.82212 0.85913 0.63993 0.0
C3697 C 0.80478 0.85711 0.62138 0.0
C3698 C 0.8179 0.84983 0.66066 0.0
C3699 C 0.79574 0.83818 0.66302 0.0
C3700 C 0.77811 0.83629 0.6443 0.0
C3701 C 0.78283 0.84588 0.6238 0.0
C3702 C 0.83717 0.85273 0.68019 0.0
C3703 C 0.75422 0.82432 0.64602 0.0
C3704 C 0.79262 0.79652 0.70746 0.0
C3705 C 0.78543 0.80759 0.72669 0.0
C3706 C 0.79465 0.80568 0.68633 0.0
C3707 C 0.79123 0.82739 0.68471 0.0
C3708 C 0.78442 0.83895 0.70418 0.0
C3709 C 0.78095 0.82866 0.72454 0.0
C3710 C 0.8007 0.79211 0.66572 0.0
C3711 C 0.7819 0.86267 0.70411 0.0
H3712 H 0.839 0.86836 0.63835 0.0
H3713 H 0.76927 0.84492 0.60979 0.0
H3714 H 0.83297 0.86022 0.69696 0.0
H3715 H 0.84009 0.83608 0.68282 0.0
H3716 H 0.85304 0.8636 0.67641 0.0
H3717 H 0.74263 0.82328 0.62956 0.0
H3718 H 0.75349 0.80703 0.65001 0.0
H3719 H 0.74812 0.83332 0.66067 0.0
H3720 H 0.79688 0.78064 0.70889 0.0
H3721 H 0.77569 0.83763 0.73926 0.0
H3722 H 0.8179 0.80014 0.66251 0.0
H3723 H 0.78899 0.79168 0.64953 0.0
H3724 H 0.80007 0.77454 0.6687 0.0
H3725 H 0.79886 0.87435 0.70619 0.0
H3726 H 0.7731 0.86795 0.71868 0.0
H3727 H 0.77261 0.8645 0.68718 0.0
C3728 C 0.75848 0.4984 0.53593 0.0
C3729 C 0.75655 0.48197 0.5165 0.0
C3730 C 0.73948 0.50404 0.54292 0.0
C3731 C 0.71829 0.49366 0.52945 0.0
C3732 C 0.71647 0.4788 0.50848 0.0
C3733 C 0.73578 0.47288 0.5023 0.0
C3734 C 0.74195 0.5196 0.56581 0.0
C3735 C 0.69408 0.46839 0.49336 0.0
C3736 C 0.67421 0.4902 0.56892 0.0
C3737 C 0.66946 0.51113 0.56787 0.0
C3738 C 0.68881 0.48314 0.55474 0.0
C3739 C 0.69814 0.49717 0.53878 0.0
C3740 C 0.69147 0.51709 0.53578 0.0
C3741 C 0.67751 0.52413 0.55076 0.0
C3742 C 0.69606 0.46197 0.55871 0.0
C3743 C 0.70093 0.53212 0.51855 0.0
H3744 H 0.77457 0.5055 0.54692 0.0
H3745 H 0.73442 0.46033 0.48713 0.0
H3746 H 0.73461 0.53398 0.56289 0.0
H3747 H 0.73268 0.51042 0.57856 0.0
H3748 H 0.7598 0.52637 0.57393 0.0
H3749 H 0.69555 0.45669 0.47787 0.0
H3750 H 0.68204 0.45905 0.50381 0.0
H3751 H 0.68681 0.48185 0.48709 0.0
H3752 H 0.66748 0.47992 0.5817 0.0
H3753 H 0.67412 0.54049 0.54995 0.0
H3754 H 0.71354 0.46661 0.56813 0.0
H3755 H 0.69599 0.45159 0.54173 0.0
H3756 H 0.68507 0.4516 0.56939 0.0
H3757 H 0.71832 0.54178 0.52588 0.0
H3758 H 0.69073 0.54429 0.51493 0.0
H3759 H 0.70177 0.52198 0.50169 0.0
C3760 C 0.19536 0.14714 0.51756 0.0
C3761 C 0.21438 0.13833 0.51899 0.0
C3762 C 0.17408 0.13391 0.51984 0.0
C3763 C 0.17162 0.11118 0.52331 0.0
C3764 C 0.19054 0.10189 0.5238 0.0
C3765 C 0.2117 0.11559 0.5218 0.0
C3766 C 0.15442 0.14458 0.51954 0.0
C3767 C 0.1885 0.07759 0.52692 0.0
C3768 C 0.12312 0.08347 0.55389 0.0
C3769 C 0.1069 0.07254 0.5347 0.0
C3770 C 0.14419 0.09632 0.55043 0.0
C3771 C 0.14942 0.09736 0.52724 0.0
C3772 C 0.13327 0.08551 0.50785 0.0
C3773 C 0.112 0.07363 0.51182 0.0
C3774 C 0.16058 0.10927 0.57154 0.0
C3775 C 0.13834 0.0856 0.48293 0.0
H3776 H 0.19722 0.16469 0.51558 0.0
H3777 H 0.22625 0.10857 0.5229 0.0
H3778 H 0.14018 0.13454 0.50632 0.0
H3779 H 0.14847 0.14484 0.53696 0.0
H3780 H 0.15885 0.16209 0.51548 0.0
H3781 H 0.20454 0.0726 0.52578 0.0
H3782 H 0.18329 0.07469 0.54429 0.0
H3783 H 0.17527 0.06643 0.51331 0.0
H3784 H 0.11895 0.08274 0.57156 0.0
H3785 H 0.09936 0.06501 0.49703 0.0
H3786 H 0.16487 0.12747 0.56997 0.0
H3787 H 0.17644 0.10372 0.57228 0.0
H3788 H 0.15374 0.10707 0.58833 0.0
H3789 H 0.14022 0.10277 0.47816 0.0
H3790 H 0.12487 0.07375 0.47007 0.0
H3791 H 0.15449 0.08098 0.48134 0.0
C3792 C 0.19764 0.9935 0.8093 0.0
C3793 C 0.18002 0.99503 0.79264 0.0
C3794 C 0.208 0.97561 0.80623 0.0
C3795 C 0.20032 0.959 0.78613 0.0
C3796 C 0.18173 0.96 0.76992 0.0
C3797 C 0.17199 0.97823 0.77323 0.0
C3798 C 0.22798 0.97523 0.82365 0.0
C3799 C 0.17281 0.9424 0.74846 0.0
C3800 C 0.23801 0.92793 0.75665 0.0
C3801 C 0.23059 0.90652 0.76284 0.0
C3802 C 0.22937 0.94571 0.76552 0.0
C3803 C 0.21276 0.94169 0.78062 0.0
C3804 C 0.20623 0.9203 0.78794 0.0
C3805 C 0.21539 0.9029 0.779 0.0
C3806 C 0.23689 0.96834 0.75748 0.0
C3807 C 0.18854 0.91539 0.80392 0.0
H3808 H 0.20398 1.00684 0.82408 0.0
H3809 H 0.15845 0.9797 0.76031 0.0
H3810 H 0.22664 0.95811 0.82837 0.0
H3811 H 0.24355 0.97986 0.81553 0.0
H3812 H 0.2297 0.98723 0.83999 0.0
H3813 H 0.15698 0.94448 0.73886 0.0
H3814 H 0.18553 0.94351 0.73624 0.0
H3815 H 0.16963 0.92528 0.75357 0.0
H3816 H 0.24986 0.9305 0.74413 0.0
H3817 H 0.20983 0.88617 0.78364 0.0
H3818 H 0.24134 0.98196 0.77275 0.0
H3819 H 0.2229 0.9715 0.74562 0.0
H3820 H 0.25161 0.96935 0.74787 0.0
H3821 H 0.19323 0.92777 0.82025 0.0
H3822 H 0.18611 0.89817 0.80875 0.0
H3823 H 0.17226 0.9171 0.79507 0.0
C3824 C 0.37289 0.98791 0.01126 0.0
C3825 C 0.36453 0.96543 0.01414 0.0
C3826 C 0.39563 0.99837 0.01787 0.0
C3827 C 0.40998 0.98591 0.02746 0.0
C3828 C 0.40162 0.96342 0.03089 0.0
C3829 C 0.37885 0.95335 0.02406 0.0
C3830 C 0.40442 0.02245 0.01393 0.0
C3831 C 0.41681 0.94989 0.04114 0.0
C3832 C 0.46891 1.00367 0.01511 0.0
C3833 C 0.47933 0.01667 0.03646 0.0
C3834 C 0.44622 0.99301 0.01216 0.0
C3835 C 0.43413 0.99559 0.03122 0.0
C3836 C 0.44488 1.00821 0.05315 0.0
C3837 C 0.46769 0.01885 0.05549 0.0
C3838 C 0.43514 0.97955 0.98857 0.0
C3839 C 0.43224 0.01111 0.0737 0.0
H3840 H 0.36174 0.9973 0.00378 0.0
H3841 H 0.37228 0.93605 0.02659 0.0
H3842 H 0.4142 0.03276 0.03041 0.0
H3843 H 0.41599 0.02307 1.00052 0.0
H3844 H 0.39069 0.03023 0.00787 0.0
H3845 H 0.40728 0.93303 0.04401 0.0
H3846 H 0.42915 0.94761 0.02912 0.0
H3847 H 0.42651 0.95904 0.05818 0.0
H3848 H 0.47854 1.00207 1.00069 0.0
H3849 H 0.47632 0.02903 0.07193 0.0
H3850 H 0.42223 0.9874 0.98062 0.0
H3851 H 0.42645 0.96221 0.99081 0.0
H3852 H 0.4474 0.97852 0.97607 0.0
H3853 H 0.42135 0.02269 0.07024 0.0
H3854 H 0.44379 0.01822 0.09038 0.0
H3855 H 0.42114 0.99481 0.07602 0.0
C3856 C 0.87297 0.60282 0.82197 0.0
C3857 C 0.8578 0.58518 0.82907 0.0
C3858 C 0.86527 0.61977 0.81235 0.0
C3859 C 0.84216 0.61922 0.81095 0.0
C3860 C 0.82731 0.60278 0.82063 0.0
C3861 C 0.83532 0.58554 0.82927 0.0
C3862 C 0.88131 0.63672 0.8014 0.0
C3863 C 0.80265 0.60215 0.81981 0.0
C3864 C 0.82749 0.67127 0.79391 0.0
C3865 C 0.82047 0.66475 0.76968 0.0
C3866 C 0.83378 0.65619 0.80786 0.0
C3867 C 0.8333 0.63441 0.7971 0.0
C3868 C 0.826 0.62764 0.77268 0.0
C3869 C 0.81962 0.64303 0.75919 0.0
C3870 C 0.84122 0.66358 0.83395 0.0
C3871 C 0.82538 0.60438 0.76074 0.0
H3872 H 0.89024 0.60193 0.82131 0.0
H3873 H 0.82372 0.57147 0.83448 0.0
H3874 H 0.87638 0.63383 0.78202 0.0
H3875 H 0.88044 0.65406 0.80783 0.0
H3876 H 0.89899 0.63555 0.80525 0.0
H3877 H 0.79447 0.59075 0.83157 0.0
H3878 H 0.80034 0.61924 0.82493 0.0
H3879 H 0.79391 0.59605 0.80158 0.0
H3880 H 0.82798 0.68817 0.80191 0.0
H3881 H 0.81363 0.63802 0.74054 0.0
H3882 H 0.85936 0.66432 0.83826 0.0
H3883 H 0.83194 0.65116 0.84407 0.0
H3884 H 0.83854 0.68038 0.83989 0.0
H3885 H 0.84273 0.60208 0.76175 0.0
H3886 H 0.81781 0.60145 0.74194 0.0
H3887 H 0.81559 0.59135 0.76982 0.0
C3888 C 0.85638 0.65805 0.04393 0.0
C3889 C 0.83492 0.64643 0.04745 0.0
C3890 C 0.87498 0.64883 0.04823 0.0
C3891 C 0.87178 0.62742 0.05575 0.0
C3892 C 0.84986 0.61509 0.05782 0.0
C3893 C 0.83175 0.62487 0.0539 0.0
C3894 C 0.89813 0.66241 0.04588 0.0
C3895 C 0.84565 0.59202 0.0654 0.0
C3896 C 0.91263 0.59046 0.05757 0.0
C3897 C 0.91939 0.59277 0.08189 0.0
C3898 C 0.89854 0.60316 0.04833 0.0
C3899 C 0.89121 0.61851 0.06384 0.0
C3900 C 0.89973 0.62235 0.08813 0.0
C3901 C 0.91372 0.6094 0.09686 0.0
C3902 C 0.89002 0.59876 0.02231 0.0
C3903 C 0.89268 0.63891 0.10519 0.0
H3904 H 0.85882 0.67478 0.03902 0.0
H3905 H 0.8151 0.61578 0.05638 0.0
H3906 H 0.90841 0.66761 0.06352 0.0
H3907 H 0.90685 0.65207 0.03512 0.0
H3908 H 0.89753 0.67775 0.03776 0.0
H3909 H 0.82743 0.58394 0.06425 0.0
H3910 H 0.85333 0.58085 0.05432 0.0
H3911 H 0.85365 0.59339 0.08386 0.0
H3912 H 0.91726 0.57778 0.04593 0.0
H3913 H 0.91959 0.61169 0.11558 0.0
H3914 H 0.89001 0.61474 0.01529 0.0
H3915 H 0.87241 0.5884 0.01929 0.0
H3916 H 0.90029 0.58962 0.01224 0.0
H3917 H 0.89523 0.65551 0.09892 0.0
H3918 H 0.90219 0.64119 0.12315 0.0
H3919 H 0.87449 0.63288 0.10628 0.0
C3920 C 0.21107 0.12251 0.82178 0.0
C3921 C 0.18874 0.11745 0.81079 0.0
C3922 C 0.22618 0.14296 0.82001 0.0
C3923 C 0.21896 0.15812 0.8061 0.0
C3924 C 0.19654 0.15274 0.79453 0.0
C3925 C 0.1816 0.13265 0.79737 0.0
C3926 C 0.2498 0.14845 0.8331 0.0
C3927 C 0.18842 0.16799 0.77877 0.0
C3928 C 0.24872 0.2202 0.8166 0.0
C3929 C 0.26217 0.22184 0.79858 0.0
C3930 C 0.23499 0.19947 0.81955 0.0
C3931 C 0.23461 0.17989 0.80404 0.0
C3932 C 0.24841 0.18135 0.786 0.0
C3933 C 0.2621 0.20233 0.78354 0.0
C3934 C 0.2205 0.19861 0.83896 0.0
C3935 C 0.24824 0.16089 0.76891 0.0
H3936 H 0.21661 0.11057 0.83191 0.0
H3937 H 0.16448 0.12838 0.78831 0.0
H3938 H 0.26219 0.15114 0.82058 0.0
H3939 H 0.25299 0.16435 0.84545 0.0
H3940 H 0.25278 0.13493 0.84323 0.0
H3941 H 0.1705 0.16126 0.77092 0.0
H3942 H 0.19041 0.1849 0.78884 0.0
H3943 H 0.19878 0.1702 0.76431 0.0
H3944 H 0.24871 0.23523 0.82829 0.0
H3945 H 0.27223 0.20355 0.76938 0.0
H3946 H 0.2237 0.18593 0.85016 0.0
H3947 H 0.20248 0.19334 0.83126 0.0
H3948 H 0.22361 0.21514 0.85026 0.0
H3949 H 0.25339 0.14798 0.77858 0.0
H3950 H 0.2597 0.16495 0.75565 0.0
H3951 H 0.23095 0.1533 0.75957 0.0
C3952 C 0.36853 0.94817 0.33797 0.0
C3953 C 0.36925 0.96408 0.3227 0.0
C3954 C 0.35473 0.92652 0.33099 0.0
C3955 C 0.34172 0.92129 0.30838 0.0
C3956 C 0.34238 0.93752 0.29304 0.0
C3957 C 0.35623 0.95895 0.30051 0.0
C3958 C 0.35425 0.90924 0.34757 0.0
C3959 C 0.32871 0.93214 0.26879 0.0
C3960 C 0.32613 0.86007 0.28514 0.0
C3961 C 0.30419 0.85373 0.29041 0.0
C3962 C 0.33813 0.88244 0.28957 0.0
C3963 C 0.3281 0.89848 0.30039 0.0
C3964 C 0.30562 0.89245 0.30481 0.0
C3965 C 0.29369 0.87001 0.2993 0.0
C3966 C 0.36201 0.88859 0.28415 0.0
C3967 C 0.29474 0.9093 0.31679 0.0
H3968 H 0.37866 0.95268 0.35519 0.0
H3969 H 0.35695 0.97177 0.28904 0.0
H3970 H 0.3367 0.90198 0.35037 0.0
H3971 H 0.36073 0.89521 0.33972 0.0
H3972 H 0.36456 0.91648 0.36493 0.0
H3973 H 0.33131 0.94682 0.25906 0.0
H3974 H 0.3333 0.91809 0.25834 0.0
H3975 H 0.31055 0.92649 0.27018 0.0
H3976 H 0.33453 0.84749 0.27898 0.0
H3977 H 0.27667 0.86506 0.30338 0.0
H3978 H 0.3739 0.89288 0.30082 0.0
H3979 H 0.36481 0.90359 0.27495 0.0
H3980 H 0.3661 0.87459 0.27304 0.0
H3981 H 0.30303 0.91465 0.33528 0.0
H3982 H 0.27649 0.90222 0.3169 0.0
H3983 H 0.29695 0.92456 0.308 0.0
C3984 C 0.57043 0.38383 0.6123 0.0
C3985 C 0.57948 0.37008 0.59671 0.0
C3986 C 0.56726 0.40535 0.6077 0.0
C3987 C 0.57261 0.41391 0.58655 0.0
C3988 C 0.58136 0.39992 0.57057 0.0
C3989 C 0.58492 0.37875 0.57588 0.0
C3990 C 0.55824 0.41909 0.62578 0.0
C3991 C 0.587 0.40736 0.54756 0.0
C3992 C 0.54525 0.46069 0.56422 0.0
C3993 C 0.56239 0.48089 0.57025 0.0
C3994 C 0.5482 0.43932 0.5694 0.0
C3995 C 0.56905 0.43717 0.58111 0.0
C3996 C 0.58648 0.4575 0.58729 0.0
C3997 C 0.583 0.47868 0.58194 0.0
C3998 C 0.5288 0.41884 0.5621 0.0
C3999 C 0.60903 0.45703 0.59993 0.0
H4000 H 0.56614 0.37795 0.62854 0.0
H4001 H 0.59186 0.36879 0.5634 0.0
H4002 H 0.56968 0.43617 0.63063 0.0
H4003 H 0.54165 0.42117 0.61826 0.0
H4004 H 0.55624 0.41118 0.64199 0.0
H4005 H 0.59264 0.3945 0.53636 0.0
H4006 H 0.57208 0.41095 0.53767 0.0
H4007 H 0.60051 0.4232 0.55096 0.0
H4008 H 0.52928 0.46143 0.55524 0.0
H4009 H 0.59666 0.49367 0.58707 0.0
H4010 H 0.5242 0.41095 0.57774 0.0
H4011 H 0.53383 0.40618 0.55004 0.0
H4012 H 0.5137 0.42291 0.55315 0.0
H4013 H 0.607 0.45237 0.61768 0.0
H4014 H 0.6215 0.47355 0.6019 0.0
H4015 H 0.61581 0.44407 0.59034 0.0
C4016 C 0.43573 0.76925 0.37895 0.0
C4017 C 0.44448 0.78655 0.39797 0.0
C4018 C 0.41527 0.76817 0.36455 0.0
C4019 C 0.4029 0.78445 0.36953 0.0
C4020 C 0.41143 0.80152 0.38921 0.0
C4021 C 0.4322 0.80256 0.40287 0.0
C4022 C 0.40716 0.74994 0.34358 0.0
C4023 C 0.39863 0.81881 0.39578 0.0
C4024 C 0.36325 0.79776 0.32022 0.0
C4025 C 0.34195 0.78552 0.32371 0.0
C4026 C 0.38304 0.79721 0.33465 0.0
C4027 C 0.38176 0.78442 0.35356 0.0
C4028 C 0.36025 0.77219 0.35738 0.0
C4029 C 0.34071 0.7728 0.34241 0.0
C4030 C 0.4054 0.81057 0.32975 0.0
C4031 C 0.35781 0.75837 0.37726 0.0
H4032 H 0.4452 0.75691 0.37495 0.0
H4033 H 0.43883 0.81591 0.41758 0.0
H4034 H 0.38977 0.74032 0.34446 0.0
H4035 H 0.40664 0.75766 0.32717 0.0
H4036 H 0.41813 0.73806 0.34246 0.0
H4037 H 0.40691 0.83034 0.41216 0.0
H4038 H 0.39711 0.82896 0.38132 0.0
H4039 H 0.38131 0.81028 0.39827 0.0
H4040 H 0.36451 0.8083 0.30645 0.0
H4041 H 0.3244 0.76333 0.34541 0.0
H4042 H 0.41678 0.79931 0.327 0.0
H4043 H 0.41355 0.82349 0.34511 0.0
H4044 H 0.40367 0.81911 0.31399 0.0
H4045 H 0.36488 0.74361 0.37351 0.0
H4046 H 0.33996 0.75221 0.37975 0.0
H4047 H 0.3674 0.76838 0.39397 0.0
C4048 C 0.04336 0.71724 0.09809 0.0
C4049 C 0.06109 0.73426 0.09284 0.0
C4050 C 0.04248 0.69383 0.09355 0.0
C4051 C 0.06003 0.68626 0.0838 0.0
C4052 C 0.07794 0.70326 0.07818 0.0
C4053 C 0.0782 0.72672 0.08254 0.0
C4054 C 0.02277 0.67714 0.09983 0.0
C4055 C 0.09738 0.69667 0.06821 0.0
C4056 C 0.06582 0.62615 0.09481 0.0
C4057 C 0.05612 0.61237 0.07325 0.0
C4058 C 0.06795 0.64993 0.09816 0.0
C4059 C 0.05957 0.6608 0.07984 0.0
C4060 C 0.04965 0.64681 0.05807 0.0
C4061 C 0.04836 0.6232 0.055 0.0
C4062 C 0.07903 0.66344 0.12162 0.0
C4063 C 0.03955 0.65668 0.0381 0.0
H4064 H 0.03007 0.72232 0.10637 0.0
H4065 H 0.09241 0.73922 0.07891 0.0
H4066 H 0.01547 0.66357 0.08479 0.0
H4067 H 0.02854 0.66911 0.11477 0.0
H4068 H 1.00934 0.68516 0.10492 0.0
H4069 H 0.1104 0.7115 0.06538 0.0
H4070 H 0.10526 0.68705 0.0803 0.0
H4071 H 0.09122 0.68547 0.05118 0.0
H4072 H 0.07186 0.61828 0.10921 0.0
H4073 H 0.04049 0.61298 0.03835 0.0
H4074 H 0.06639 0.66986 0.13067 0.0
H4075 H 0.09222 0.67825 0.11908 0.0
H4076 H 0.08678 0.65331 0.13323 0.0
H4077 H 0.02538 0.66332 0.04353 0.0
H4078 H 0.0332 0.6441 0.02201 0.0
H4079 H 0.05221 0.67102 0.03378 0.0
C4080 C 0.08955 0.27063 0.91978 0.0
C4081 C 0.06869 0.26802 0.90599 0.0
C4082 C 0.1095 0.27316 0.90955 0.0
C4083 C 0.1087 0.27431 0.88513 0.0
C4084 C 0.08758 0.27173 0.87118 0.0
C4085 C 0.06781 0.26809 0.88169 0.0
C4086 C 0.13134 0.27487 0.92506 0.0
C4087 C 0.08592 0.27338 0.8452 0.0
C4088 C 0.15772 0.30742 0.85923 0.0
C4089 C 0.1641 0.29029 0.84571 0.0
C4090 C 0.14078 0.3024 0.87351 0.0
C4091 C 0.1298 0.27966 0.87414 0.0
C4092 C 0.1375 0.26228 0.86196 0.0
C4093 C 0.15459 0.26781 0.84782 0.0
C4094 C 0.1336 0.32149 0.88662 0.0
C4095 C 0.1269 0.23785 0.86294 0.0
H4096 H 0.0902 0.27021 0.93854 0.0
H4097 H 0.05167 0.26598 0.87101 0.0
H4098 H 0.14278 0.26692 0.91554 0.0
H4099 H 0.13997 0.29286 0.93086 0.0
H4100 H 0.12839 0.26681 0.94103 0.0
H4101 H 0.06836 0.27165 0.83696 0.0
H4102 H 0.0964 0.28985 0.84244 0.0
H4103 H 0.09252 0.26008 0.83599 0.0
H4104 H 0.16524 0.32481 0.85767 0.0
H4105 H 0.15957 0.25457 0.83736 0.0
H4106 H 0.13428 0.31976 0.90554 0.0
H4107 H 0.11592 0.32087 0.87973 0.0
H4108 H 0.14436 0.33821 0.88497 0.0
H4109 H 0.12675 0.23494 0.88152 0.0
H4110 H 0.13592 0.22644 0.85406 0.0
H4111 H 0.10916 0.23335 0.85432 0.0
C4112 C 0.54179 0.74881 0.92583 0.0
C4113 C 0.56308 0.76371 0.92802 0.0
C4114 C 0.53869 0.72896 0.93618 0.0
C4115 C 0.55741 0.72356 0.94859 0.0
C4116 C 0.57908 0.73817 0.95017 0.0
C4117 C 0.5816 0.75822 0.94019 0.0
C4118 C 0.51528 0.71389 0.9341 0.0
C4119 C 0.59961 0.73249 0.96216 0.0
C4120 C 0.54353 0.68391 0.99375 0.0
C4121 C 0.54127 0.66292 0.98036 0.0
C4122 C 0.54972 0.70391 0.98392 0.0
C4123 C 0.55406 0.70284 0.96028 0.0
C4124 C 0.55333 0.68169 0.94734 0.0
C4125 C 0.54662 0.66198 0.95744 0.0
C4126 C 0.5502 0.72604 0.99833 0.0
C4127 C 0.55832 0.67958 0.92234 0.0
H4128 H 0.52743 0.75289 0.9164 0.0
H4129 H 0.59819 0.76945 0.94162 0.0
H4130 H 0.51477 0.69687 0.92518 0.0
H4131 H 0.51065 0.71202 0.9519 0.0
H4132 H 0.50247 0.72053 0.92407 0.0
H4133 H 0.6154 0.74509 0.961 0.0
H4134 H 0.59816 0.73151 0.98097 0.0
H4135 H 0.60081 0.71571 0.95403 0.0
H4136 H 0.53921 0.68458 0.01144 0.0
H4137 H 0.5448 0.64569 0.9471 0.0
H4138 H 0.53674 0.73315 0.99026 0.0
H4139 H 0.56647 0.73836 0.99842 0.0
H4140 H 0.5477 0.72421 0.0168 0.0
H4141 H 0.54308 0.6797 0.91028 0.0
H4142 H 0.56303 0.66358 0.91725 0.0
H4143 H 0.57211 0.69383 0.91977 0.0
C4144 C 0.10621 0.75219 0.72829 0.0
C4145 C 0.09587 0.76822 0.73873 0.0
C4146 C 0.12986 0.75423 0.73255 0.0
C4147 C 0.1445 0.77309 0.74752 0.0
C4148 C 0.13419 0.78933 0.7583 0.0
C4149 C 0.11034 0.7868 0.75378 0.0
C4150 C 0.13928 0.73632 0.72033 0.0
C4151 C 0.14857 0.80993 0.77413 0.0
C4152 C 0.20473 0.76929 0.77324 0.0
C4153 C 0.21904 0.78084 0.75879 0.0
C4154 C 0.18094 0.76676 0.76989 0.0
C4155 C 0.17035 0.77592 0.75149 0.0
C4156 C 0.18471 0.7876 0.73681 0.0
C4157 C 0.20849 0.78996 0.74064 0.0
C4158 C 0.16707 0.75423 0.78628 0.0
C4159 C 0.17493 0.79749 0.71666 0.0
H4160 H 0.09568 0.7381 0.71602 0.0
H4161 H 0.10314 0.79991 0.76133 0.0
H4162 H 0.15142 0.74392 0.70896 0.0
H4163 H 0.14861 0.72888 0.73353 0.0
H4164 H 0.12595 0.72262 0.70931 0.0
H4165 H 0.13834 0.82039 0.78243 0.0
H4166 H 0.15939 0.80494 0.78817 0.0
H4167 H 0.15989 0.82036 0.76381 0.0
H4168 H 0.21217 0.76257 0.78773 0.0
H4169 H 0.21886 0.79893 0.72913 0.0
H4170 H 0.15549 0.73865 0.77628 0.0
H4171 H 0.15657 0.76467 0.79403 0.0
H4172 H 0.17764 0.74955 0.80078 0.0
H4173 H 0.16432 0.78371 0.70324 0.0
H4174 H 0.18816 0.80778 0.70814 0.0
H4175 H 0.16395 0.80815 0.72285 0.0
C4176 C 0.05808 0.40474 0.43539 0.0
C4177 C 0.04251 0.38474 0.4376 0.0
C4178 C 0.05895 0.42538 0.44932 0.0
C4179 C 0.04399 0.42627 0.46613 0.0
C4180 C 0.02835 0.40612 0.4686 0.0
C4181 C 0.02777 0.38572 0.45436 0.0
C4182 C 0.07576 0.44636 0.44586 0.0
C4183 C 1.01197 0.40616 0.48611 0.0
C4184 C 0.05867 0.47607 0.51634 0.0
C4185 C 0.04492 0.48976 0.50869 0.0
C4186 C 0.05848 0.45544 0.50285 0.0
C4187 C 0.04442 0.44829 0.48081 0.0
C4188 C 0.03051 0.46212 0.473 0.0
C4189 C 0.03073 0.48241 0.48712 0.0
C4190 C 0.07324 0.44122 0.51232 0.0
C4191 C 0.01538 0.45558 0.44963 0.0
H4192 H 0.06955 0.40433 0.42256 0.0
H4193 H 0.01562 0.37051 0.45633 0.0
H4194 H 0.06686 0.45921 0.44096 0.0
H4195 H 0.08712 0.45366 0.46257 0.0
H4196 H 0.08611 0.44304 0.43198 0.0
H4197 H 1.0015 0.38903 0.48671 0.0
H4198 H 0.02118 0.4133 0.50397 0.0
H4199 H 1.00067 0.41706 0.48144 0.0
H4200 H 0.06967 0.48153 0.53298 0.0
H4201 H 0.01914 0.4921 0.4816 0.0
H4202 H 0.08558 0.4392 0.50021 0.0
H4203 H 0.06288 0.42415 0.5133 0.0
H4204 H 0.08254 0.44867 0.53009 0.0
H4205 H 0.02586 0.45703 0.43523 0.0
H4206 H 1.00354 0.4665 0.44745 0.0
H4207 H 1.00553 0.43783 0.4476 0.0
C4208 C 0.44403 0.23776 0.24061 0.0
C4209 C 0.46356 0.25557 0.2422 0.0
C4210 C 0.42265 0.24136 0.24526 0.0
C4211 C 0.42004 0.26335 0.25277 0.0
C4212 C 0.43982 0.28135 0.25484 0.0
C4213 C 0.46079 0.27737 0.24916 0.0
C4214 C 0.40256 0.22141 0.24176 0.0
C4215 C 0.43888 0.30506 0.26333 0.0
C4216 C 0.35933 0.27429 0.24566 0.0
C4217 C 0.35296 0.274 0.26839 0.0
C4218 C 0.38085 0.27157 0.24061 0.0
C4219 C 0.39691 0.26746 0.2583 0.0
C4220 C 0.39044 0.26707 0.28129 0.0
C4221 C 0.36914 0.27074 0.28606 0.0
C4222 C 0.38636 0.27303 0.216 0.0
C4223 C 0.40587 0.26212 0.30096 0.0
H4224 H 0.4453 0.2208 0.23506 0.0
H4225 H 0.47531 0.2915 0.2507 0.0
H4226 H 0.39511 0.22018 0.2583 0.0
H4227 H 0.38944 0.2237 0.22817 0.0
H4228 H 0.40694 0.20534 0.2362 0.0
H4229 H 0.45539 0.31734 0.26442 0.0
H4230 H 0.42622 0.31011 0.25133 0.0
H4231 H 0.43344 0.30593 0.281 0.0
H4232 H 0.34745 0.27698 0.23167 0.0
H4233 H 0.36482 0.27029 0.30369 0.0
H4234 H 0.38844 0.25656 0.20805 0.0
H4235 H 0.40254 0.28562 0.21647 0.0
H4236 H 0.37308 0.27777 0.20452 0.0
H4237 H 0.40783 0.24476 0.29675 0.0
H4238 H 0.39938 0.26363 0.31807 0.0
H4239 H 0.42282 0.27374 0.30275 0.0
C4240 C 0.59887 0.53072 0.3838 0.0
C4241 C 0.60974 0.55175 0.37833 0.0
C4242 C 0.59233 0.52838 0.40632 0.0
C4243 C 0.59761 0.5473 0.42431 0.0
C4244 C 0.60948 0.56836 0.41907 0.0
C4245 C 0.61491 0.57041 0.39615 0.0
C4246 C 0.57909 0.50576 0.41063 0.0
C4247 C 0.61648 0.58882 0.43775 0.0
C4248 C 0.56198 0.55034 0.47436 0.0
C4249 C 0.57415 0.54334 0.49297 0.0
C4250 C 0.56904 0.55095 0.45201 0.0
C4251 C 0.58953 0.54554 0.44802 0.0
C4252 C 0.60236 0.53921 0.46694 0.0
C4253 C 0.5944 0.53788 0.48896 0.0
C4254 C 0.55445 0.55744 0.43258 0.0
C4255 C 0.6246 0.53388 0.46404 0.0
H4256 H 0.59479 0.51621 0.3702 0.0
H4257 H 0.62362 0.58666 0.39225 0.0
H4258 H 0.5878 0.50034 0.42593 0.0
H4259 H 0.56235 0.50711 0.41498 0.0
H4260 H 0.5766 0.49259 0.39512 0.0
H4261 H 0.62707 0.60353 0.43151 0.0
H4262 H 0.60139 0.59351 0.44332 0.0
H4263 H 0.62604 0.58495 0.45353 0.0
H4264 H 0.54675 0.55545 0.4772 0.0
H4265 H 0.60419 0.53274 0.50312 0.0
H4266 H 0.55082 0.54442 0.4168 0.0
H4267 H 0.56346 0.57349 0.42739 0.0
H4268 H 0.53823 0.55953 0.43789 0.0
H4269 H 0.62165 0.51758 0.45243 0.0
H4270 H 0.63411 0.53266 0.48114 0.0
H4271 H 0.63514 0.54695 0.45557 0.0
C4272 C 0.27509 0.88595 0.06455 0.0
C4273 C 0.28936 0.90713 0.06425 0.0
C4274 C 0.2788 0.87355 0.08274 0.0
C4275 C 0.29743 0.88252 0.10052 0.0
C4276 C 0.31141 0.90423 0.10071 0.0
C4277 C 0.30697 0.91644 0.08269 0.0
C4278 C 0.26329 0.85066 0.08257 0.0
C4279 C 0.3319 0.914 0.11905 0.0
C4280 C 0.30676 0.8624 0.15877 0.0
C4281 C 0.32253 0.84985 0.15455 0.0
C4282 C 0.29691 0.8717 0.14068 0.0
C4283 C 0.3035 0.86881 0.11817 0.0
C4284 C 0.31844 0.85519 0.11348 0.0
C4285 C 0.32755 0.84559 0.13172 0.0
C4286 C 0.28071 0.8859 0.14603 0.0
C4287 C 0.32611 0.85209 0.08967 0.0
H4288 H 0.26148 0.87881 0.05021 0.0
H4289 H 0.31824 0.93269 0.08227 0.0
H4290 H 0.273 0.83766 0.08286 0.0
H4291 H 0.25503 0.85068 0.09864 0.0
H4292 H 0.25008 0.84578 0.06691 0.0
H4293 H 0.34076 0.93132 0.11683 0.0
H4294 H 0.32703 0.91445 0.13695 0.0
H4295 H 0.3439 0.90317 0.11796 0.0
H4296 H 0.30292 0.86595 0.17644 0.0
H4297 H 0.33931 0.83544 0.12833 0.0
H4298 H 0.26596 0.88168 0.132 0.0
H4299 H 0.28914 0.90394 0.14657 0.0
H4300 H 0.27469 0.88364 0.1632 0.0
H4301 H 0.31144 0.84656 0.07557 0.0
H4302 H 0.33643 0.83958 0.0885 0.0
H4303 H 0.33634 0.86841 0.08624 0.0
C4304 C 0.94167 0.52027 0.90667 0.0
C4305 C 0.93916 0.53951 0.89722 0.0
C4306 C 0.95292 0.52214 0.92924 0.0
C4307 C 0.96237 0.54384 0.94194 0.0
C4308 C 0.95881 0.56327 0.93296 0.0
C4309 C 0.94679 0.56081 0.91052 0.0
C4310 C 0.95589 0.50106 0.93884 0.0
C4311 C 0.96924 0.58661 0.94616 0.0
C4312 C 0.98607 0.54765 0.005 0.0
C4313 C 1.00787 0.54551 1.00283 0.0
C4314 C 0.97083 0.54708 0.98524 0.0
C4315 C 0.97831 0.54617 0.96313 0.0
C4316 C 1.00074 0.54568 0.96091 0.0
C4317 C 0.01507 0.54459 0.98082 0.0
C4318 C 0.94658 0.54611 0.98792 0.0
C4319 C 1.00941 0.54551 0.93747 0.0
H4320 H 0.93522 0.5038 0.89617 0.0
H4321 H 0.94458 0.57551 0.90284 0.0
H4322 H 0.97346 0.49973 0.9385 0.0
H4323 H 0.95274 0.50171 0.95739 0.0
H4324 H 0.94446 0.48561 0.92836 0.0
H4325 H 0.96245 0.5996 0.93815 0.0
H4326 H 0.96641 0.58753 0.96481 0.0
H4327 H 0.98771 0.59063 0.94606 0.0
H4328 H 0.98041 0.5485 0.02198 0.0
H4329 H 0.03179 0.54311 0.97901 0.0
H4330 H 0.93586 0.52943 0.9795 0.0
H4331 H 0.94065 0.559 0.97889 0.0
H4332 H 0.944 0.54861 0.00666 0.0
H4333 H 1.00227 0.52881 0.92662 0.0
H4334 H 0.02805 0.54891 0.93954 0.0
H4335 H 1.00412 0.55829 0.92769 0.0
C4336 C 0.27782 0.20671 0.61289 0.0
C4337 C 0.28431 0.22064 0.59593 0.0
C4338 C 0.27857 0.21548 0.63664 0.0
C4339 C 0.28661 0.23894 0.64418 0.0
C4340 C 0.29353 0.25314 0.62724 0.0
C4341 C 0.29195 0.24391 0.60329 0.0
C4342 C 0.27047 0.19955 0.6536 0.0
C4343 C 0.30312 0.27808 0.63458 0.0
C4344 C 0.27018 0.26408 0.7017 0.0
C4345 C 0.28807 0.26338 0.7186 0.0
C4346 C 0.26942 0.25613 0.67761 0.0
C4347 C 0.28763 0.24839 0.66974 0.0
C4348 C 0.30626 0.2486 0.68662 0.0
C4349 C 0.30599 0.25555 0.71072 0.0
C4350 C 0.24868 0.25523 0.66067 0.0
C4351 C 0.32641 0.24109 0.6794 0.0
H4352 H 0.27175 0.18869 0.60749 0.0
H4353 H 0.29729 0.25481 0.5905 0.0
H4354 H 0.28429 0.2004 0.66794 0.0
H4355 H 0.25668 0.20458 0.66186 0.0
H4356 H 0.26427 0.18182 0.6449 0.0
H4357 H 0.30801 0.28688 0.61953 0.0
H4358 H 0.29065 0.28563 0.64269 0.0
H4359 H 0.31815 0.28102 0.64809 0.0
H4360 H 0.25635 0.2701 0.70734 0.0
H4361 H 0.32004 0.25501 0.72347 0.0
H4362 H 0.24104 0.23761 0.65226 0.0
H4363 H 0.25326 0.26528 0.64644 0.0
H4364 H 0.23586 0.26165 0.66945 0.0
H4365 H 0.3221 0.22248 0.67527 0.0
H4366 H 0.34109 0.24637 0.69357 0.0
H4367 H 0.33136 0.24801 0.66335 0.0
C4368 C 0.58991 0.55033 0.23371 0.0
C4369 C 0.6107 0.54541 0.23988 0.0
C4370 C 0.58137 0.55025 0.20987 0.0
C4371 C 0.59388 0.54528 0.19163 0.0
C4372 C 0.61488 0.54039 0.1978 0.0
C4373 C 0.62288 0.54041 0.22159 0.0
C4374 C 0.55896 0.5556 0.20416 0.0
C4375 C 0.62914 0.53539 0.17925 0.0
C4376 C 0.56393 0.52428 0.1284 0.0
C4377 C 0.56941 0.54354 0.11729 0.0
C4378 C 0.57175 0.52463 0.15239 0.0
C4379 C 0.58507 0.54487 0.16607 0.0
C4380 C 0.59086 0.56432 0.15492 0.0
C4381 C 0.58334 0.56327 0.13072 0.0
C4382 C 0.566 0.50317 0.16304 0.0
C4383 C 0.60497 0.58632 0.16857 0.0
H4384 H 0.58037 0.55438 0.24749 0.0
H4385 H 0.6391 0.5368 0.22582 0.0
H4386 H 0.56097 0.57025 0.1944 0.0
H4387 H 0.54714 0.54113 0.19255 0.0
H4388 H 0.55137 0.55945 0.22019 0.0
H4389 H 0.64469 0.5311 0.18678 0.0
H4390 H 0.61937 0.5212 0.16579 0.0
H4391 H 0.63404 0.55024 0.17009 0.0
H4392 H 0.55358 0.50873 0.11829 0.0
H4393 H 0.58863 0.57793 0.12228 0.0
H4394 H 0.55704 0.5057 0.17832 0.0
H4395 H 0.58168 0.49861 0.16963 0.0
H4396 H 0.55535 0.48886 0.15022 0.0
H4397 H 0.5956 0.5925 0.18212 0.0
H4398 H 0.60936 0.59947 0.1571 0.0
H4399 H 0.62075 0.58393 0.17789 0.0
C4400 C 0.28412 0.89408 0.91856 0.0
C4401 C 0.29748 0.89049 0.93825 0.0
C4402 C 0.28489 0.88312 0.89622 0.0
C4403 C 0.29907 0.86826 0.89405 0.0
C4404 C 0.31368 0.86588 0.91364 0.0
C4405 C 0.31272 0.87712 0.93555 0.0
C4406 C 0.27027 0.88702 0.87514 0.0
C4407 C 0.32984 0.85097 0.91165 0.0
C4408 C 0.27919 0.81789 0.84737 0.0
C4409 C 0.29632 0.82177 0.83348 0.0
C4410 C 0.28003 0.83296 0.86746 0.0
C4411 C 0.29718 0.85327 0.87205 0.0
C4412 C 0.31409 0.85745 0.85738 0.0
C4413 C 0.31418 0.84076 0.8391 0.0
C4414 C 0.2631 0.82671 0.88407 0.0
C4415 C 0.33208 0.87924 0.86045 0.0
H4416 H 0.27276 0.90492 0.92068 0.0
H4417 H 0.32377 0.87516 0.95069 0.0
H4418 H 0.27949 0.88812 0.85972 0.0
H4419 H 0.25518 0.87271 0.87033 0.0
H4420 H 0.26451 0.90265 0.8788 0.0
H4421 H 0.33873 0.84969 0.92904 0.0
H4422 H 0.32077 0.83377 0.90294 0.0
H4423 H 0.34268 0.85788 0.90067 0.0
H4424 H 0.26543 0.80294 0.84272 0.0
H4425 H 0.32809 0.84263 0.82909 0.0
H4426 H 0.25158 0.83802 0.88395 0.0
H4427 H 0.27183 0.82869 0.90233 0.0
H4428 H 0.25285 0.80907 0.87922 0.0
H4429 H 0.32965 0.8878 0.84484 0.0
H4430 H 0.34893 0.87567 0.86103 0.0
H4431 H 0.33193 0.89104 0.87634 0.0
C4432 C 0.93403 0.51879 0.76509 0.0
C4433 C 0.9204 0.53377 0.76752 0.0
C4434 C 0.94259 0.51501 0.74423 0.0
C4435 C 0.93791 0.5272 0.72581 0.0
C4436 C 0.92396 0.54229 0.72811 0.0
C4437 C 0.91491 0.54512 0.74904 0.0
C4438 C 0.95692 0.49826 0.74214 0.0
C4439 C 0.91905 0.55563 0.70875 0.0
C4440 C 0.98491 0.52887 0.69083 0.0
C4441 C 0.97564 0.5097 0.67432 0.0
C4442 C 0.97168 0.53673 0.70619 0.0
C4443 C 0.94898 0.52473 0.70493 0.0
C4444 C 0.93909 0.50665 0.6867 0.0
C4445 C 0.9527 0.49933 0.67141 0.0
C4446 C 0.98261 0.55623 0.72534 0.0
C4447 C 0.91498 0.49337 0.68497 0.0
H4448 H 0.93766 0.5097 0.77945 0.0
H4449 H 0.90407 0.55649 0.75122 0.0
H4450 H 0.95041 0.48577 0.72604 0.0
H4451 H 0.97442 0.50712 0.74065 0.0
H4452 H 0.95738 0.48904 0.75752 0.0
H4453 H 0.90775 0.56656 0.71337 0.0
H4454 H 0.935 0.56635 0.70503 0.0
H4455 H 0.91112 0.54409 0.6923 0.0
H4456 H 1.00267 0.53707 0.69233 0.0
H4457 H 0.94573 0.48478 0.65803 0.0
H4458 H 0.98644 0.54968 0.74201 0.0
H4459 H 0.97114 0.56733 0.72842 0.0
H4460 H 0.99859 0.56642 0.72101 0.0
H4461 H 0.91416 0.48042 0.6969 0.0
H4462 H 0.90832 0.48461 0.6668 0.0
H4463 H 0.90394 0.50425 0.69038 0.0
C4464 C 0.30051 0.22701 0.45123 0.0
C4465 C 0.27908 0.21897 0.45752 0.0
C4466 C 0.3032 0.2335 0.42876 0.0
C4467 C 0.28408 0.23096 0.41157 0.0
C4468 C 0.26247 0.22183 0.41757 0.0
C4469 C 0.26023 0.21649 0.44048 0.0
C4470 C 0.3265 0.24387 0.4237 0.0
C4471 C 0.24163 0.21765 0.39969 0.0
C4472 C 0.28392 0.2686 0.36325 0.0
C4473 C 0.28927 0.25596 0.34377 0.0
C4474 C 0.28334 0.26113 0.38536 0.0
C4475 C 0.28637 0.23948 0.38813 0.0
C4476 C 0.29073 0.22607 0.3683 0.0
C4477 C 0.29271 0.23466 0.34665 0.0
C4478 C 0.27948 0.2766 0.40584 0.0
C4479 C 0.29321 0.20254 0.36975 0.0
H4480 H 0.31519 0.22899 0.4642 0.0
H4481 H 0.2436 0.20994 0.44496 0.0
H4482 H 0.33019 0.23403 0.40801 0.0
H4483 H 0.32743 0.26118 0.41963 0.0
H4484 H 0.33968 0.24469 0.43874 0.0
H4485 H 0.22636 0.20841 0.40618 0.0
H4486 H 0.23885 0.23388 0.39523 0.0
H4487 H 0.24382 0.20781 0.38318 0.0
H4488 H 0.28012 0.28461 0.36137 0.0
H4489 H 0.29648 0.22446 0.33184 0.0
H4490 H 0.29235 0.27784 0.42129 0.0
H4491 H 0.26279 0.2697 0.41104 0.0
H4492 H 0.28014 0.29381 0.40159 0.0
H4493 H 0.31024 0.20336 0.37879 0.0
H4494 H 0.29108 0.19258 0.35201 0.0
H4495 H 0.28075 0.19354 0.38001 0.0
C4496 C 0.33676 0.58799 0.58436 0.0
C4497 C 0.32622 0.59878 0.56812 0.0
C4498 C 0.35774 0.58407 0.58168 0.0
C4499 C 0.36794 0.59095 0.5622 0.0
C4500 C 0.35765 0.60242 0.54613 0.0
C4501 C 0.33682 0.60626 0.54934 0.0
C4502 C 0.36868 0.57215 0.59925 0.0
C4503 C 0.36816 0.60982 0.52501 0.0
C4504 C 0.42758 0.59495 0.55294 0.0
C4505 C 0.4244 0.57583 0.53634 0.0
C4506 C 0.40945 0.59927 0.56342 0.0
C4507 C 0.38808 0.58406 0.55677 0.0
C4508 C 0.38534 0.56385 0.54132 0.0
C4509 C 0.40374 0.55994 0.53125 0.0
C4510 C 0.41279 0.62083 0.5801 0.0
C4511 C 0.36267 0.54732 0.53391 0.0
H4512 H 0.32868 0.58266 0.59918 0.0
H4513 H 0.3287 0.6148 0.53691 0.0
H4514 H 0.36981 0.55558 0.59049 0.0
H4515 H 0.3861 0.58205 0.60609 0.0
H4516 H 0.35919 0.56938 0.61432 0.0
H4517 H 0.35857 0.61982 0.51514 0.0
H4518 H 0.38566 0.6201 0.53058 0.0
H4519 H 0.36892 0.59482 0.51287 0.0
H4520 H 0.44399 0.60672 0.55713 0.0
H4521 H 0.40187 0.54488 0.51878 0.0
H4522 H 0.40304 0.61802 0.59494 0.0
H4523 H 0.40663 0.63333 0.57057 0.0
H4524 H 0.43081 0.62813 0.58727 0.0
H4525 H 0.35428 0.54346 0.54946 0.0
H4526 H 0.36402 0.53131 0.52398 0.0
H4527 H 0.35166 0.55489 0.52252 0.0
C4528 C 0.88072 0.96047 0.56479 0.0
C4529 C 0.87864 0.93719 0.56321 0.0
C4530 C 0.90124 0.97538 0.56297 0.0
C4531 C 0.92025 0.96688 0.55973 0.0
C4532 C 0.9184 0.94347 0.55856 0.0
C4533 C 0.8976 0.9289 0.56018 0.0
C4534 C 0.90256 1.00023 0.56424 0.0
C4535 C 0.93837 0.93378 0.55553 0.0
C4536 C 0.96689 1.00248 0.53244 0.0
C4537 C 0.9832 0.01142 0.5521 0.0
C4538 C 0.94644 0.98765 0.53463 0.0
C4539 C 0.94194 0.98249 0.55717 0.0
C4540 C 0.95817 0.99224 0.57719 0.0
C4541 C 0.97882 1.00629 0.57433 0.0
C4542 C 0.93 0.97691 0.51275 0.0
C4543 C 0.95386 0.98766 0.60157 0.0
H4544 H 0.86617 0.96706 0.56705 0.0
H4545 H 0.89621 0.91099 0.55917 0.0
H4546 H 0.91605 0.00993 0.57847 0.0
H4547 H 0.90699 1.006 0.54751 0.0
H4548 H 0.88646 1.00427 0.5675 0.0
H4549 H 0.93396 0.91514 0.55415 0.0
H4550 H 0.94544 0.93861 0.53951 0.0
H4551 H 0.95182 0.94079 0.57072 0.0
H4552 H 0.97066 1.00608 0.5152 0.0
H4553 H 0.99167 0.01315 0.58944 0.0
H4554 H 0.91367 0.9812 0.51402 0.0
H4555 H 0.9268 0.95832 0.51113 0.0
H4556 H 0.93625 0.98235 0.49653 0.0
H4557 H 0.93881 0.99332 0.60587 0.0
H4558 H 0.96835 0.99636 0.61523 0.0
H4559 H 0.95026 0.96932 0.60232 0.0
C4560 C 0.89527 0.08502 0.25507 0.0
C4561 C 0.89325 0.06925 0.27079 0.0
C4562 C 0.88641 0.10387 0.25873 0.0
C4563 C 0.87454 0.10633 0.27802 0.0
C4564 C 0.87203 0.09007 0.2936 0.0
C4565 C 0.88187 0.07191 0.29005 0.0
C4566 C 0.89026 0.12139 0.24242 0.0
C4567 C 0.85878 0.09175 0.31388 0.0
C4568 C 0.86536 0.16071 0.30685 0.0
C4569 C 0.84291 0.1586 0.29779 0.0
C4570 C 0.8766 0.14466 0.29902 0.0
C4571 C 0.86476 0.12588 0.2823 0.0
C4572 C 0.84248 0.12455 0.27202 0.0
C4573 C 0.83187 0.14119 0.27975 0.0
C4574 C 0.90064 0.14708 0.30968 0.0
C4575 C 0.82928 0.10473 0.25425 0.0
H4576 H 0.90427 0.08285 0.24026 0.0
H4577 H 0.88021 0.05948 0.30198 0.0
H4578 H 0.87418 0.1251 0.23571 0.0
H4579 H 0.90132 0.13732 0.25228 0.0
H4580 H 0.89827 0.11607 0.2272 0.0
H4581 H 0.85739 0.07705 0.32354 0.0
H4582 H 0.86694 0.10723 0.32643 0.0
H4583 H 0.84157 0.09297 0.30733 0.0
H4584 H 0.87385 0.17454 0.32056 0.0
H4585 H 0.81451 0.1399 0.27273 0.0
H4586 H 0.91092 0.1436 0.29581 0.0
H4587 H 0.90118 0.13464 0.322 0.0
H4588 H 0.90841 0.16417 0.31954 0.0
H4589 H 0.83896 0.10183 0.23967 0.0
H4590 H 0.81278 0.10711 0.24673 0.0
H4591 H 0.82625 0.08931 0.26281 0.0
C4592 C 0.69237 0.11055 0.03074 0.0
C4593 C 0.70565 0.10238 0.04715 0.0
C4594 C 0.66896 0.10276 0.02765 0.0
C4595 C 0.65911 0.08727 0.04196 0.0
C4596 C 0.67255 0.07906 0.05859 0.0
C4597 C 0.69579 0.08648 0.06067 0.0
C4598 C 0.65476 0.11132 0.00955 0.0
C4599 C 0.66247 0.06292 0.07463 0.0
C4600 C 0.60218 0.07954 0.05988 0.0
C4601 C 0.5922 0.05802 0.04794 0.0
C4602 C 0.62352 0.09071 0.05607 0.0
C4603 C 0.6347 0.07964 0.04022 0.0
C4604 C 0.62368 0.05861 0.02671 0.0
C4605 C 0.60239 0.04784 0.03096 0.0
C4606 C 0.635 0.11303 0.07097 0.0
C4607 C 0.63527 0.04641 0.00977 0.0
H4608 H 0.7003 0.123 0.0205 0.0
H4609 H 0.70625 0.08065 0.07371 0.0
H4610 H 0.64335 0.09698 0.99738 0.0
H4611 H 0.64398 0.12073 0.01839 0.0
H4612 H 0.66515 0.12254 0.9991 0.0
H4613 H 0.6755 0.05897 0.08718 0.0
H4614 H 0.65107 0.07018 0.08493 0.0
H4615 H 0.6523 0.04695 0.06403 0.0
H4616 H 0.59384 0.08703 0.07305 0.0
H4617 H 0.59424 0.03102 0.02198 0.0
H4618 H 0.64472 0.12471 0.06047 0.0
H4619 H 0.647 0.1103 0.08547 0.0
H4620 H 0.62274 0.12113 0.07886 0.0
H4621 H 0.64455 0.05814 0.99901 0.0
H4622 H 0.62315 0.03235 0.99785 0.0
H4623 H 0.64768 0.03934 0.01984 0.0
C4624 C 0.22199 0.49121 0.28415 0.0
C4625 C 0.22622 0.50103 0.26399 0.0
C4626 C 0.22555 0.47002 0.28613 0.0
C4627 C 0.2332 0.45856 0.2673 0.0
C4628 C 0.23484 0.46726 0.24588 0.0
C4629 C 0.23166 0.48874 0.24457 0.0
C4630 C 0.22345 0.46105 0.30925 0.0
C4631 C 0.24182 0.45477 0.22517 0.0
C4632 C 0.27732 0.43361 0.29419 0.0
C4633 C 0.26447 0.41229 0.29595 0.0
C4634 C 0.26774 0.4483 0.28252 0.0
C4635 C 0.2448 0.44115 0.27246 0.0
C4636 C 0.23251 0.41867 0.27186 0.0
C4637 C 0.24261 0.40431 0.28383 0.0
C4638 C 0.28146 0.47219 0.28344 0.0
C4639 C 0.20822 0.41042 0.26073 0.0
H4640 H 0.21723 0.50063 0.29892 0.0
H4641 H 0.23401 0.49612 0.22862 0.0
H4642 H 0.21377 0.4432 0.30621 0.0
H4643 H 0.24045 0.46181 0.31842 0.0
H4644 H 0.21504 0.47086 0.32106 0.0
H4645 H 0.23811 0.46166 0.20866 0.0
H4646 H 0.26017 0.45617 0.22849 0.0
H4647 H 0.23311 0.43662 0.22273 0.0
H4648 H 0.29443 0.43926 0.3033 0.0
H4649 H 0.23297 0.38749 0.28506 0.0
H4650 H 0.27486 0.48374 0.2953 0.0
H4651 H 0.28018 0.47748 0.26577 0.0
H4652 H 0.29952 0.47423 0.29006 0.0
H4653 H 0.19723 0.41296 0.27418 0.0
H4654 H 0.20405 0.39213 0.25401 0.0
H4655 H 0.20426 0.41965 0.24608 0.0
C4656 C 0.23606 0.42401 0.06463 0.0
C4657 C 0.25783 0.43802 0.06739 0.0
C4658 C 0.21715 0.43305 0.06301 0.0
C4659 C 0.22016 0.45648 0.06291 0.0
C4660 C 0.24222 0.47068 0.06591 0.0
C4661 C 0.26081 0.4613 0.06864 0.0
C4662 C 0.19403 0.41741 0.06087 0.0
C4663 C 0.24619 0.4957 0.0654 0.0
C4664 C 0.17731 0.47997 0.02876 0.0
C4665 C 0.16956 0.49178 0.04685 0.0
C4666 C 0.19271 0.46712 0.03378 0.0
C4667 C 0.20053 0.46612 0.0575 0.0
C4668 C 0.19131 0.47655 0.07582 0.0
C4669 C 0.1758 0.48927 0.07024 0.0
C4670 C 0.20177 0.45595 0.0137 0.0
C4671 C 0.1986 0.47509 0.10127 0.0
H4672 H 0.23383 0.40601 0.06411 0.0
H4673 H 0.27771 0.47208 0.07092 0.0
H4674 H 0.18256 0.42552 0.07015 0.0
H4675 H 0.18669 0.41283 0.04204 0.0
H4676 H 0.19475 0.40163 0.06809 0.0
H4677 H 0.26437 0.50436 0.06785 0.0
H4678 H 0.23819 0.49877 0.04832 0.0
H4679 H 0.23831 0.50341 0.07943 0.0
H4680 H 0.1721 0.48168 0.01065 0.0
H4681 H 0.16958 0.49831 0.08419 0.0
H4682 H 0.1995 0.43779 0.01484 0.0
H4683 H 0.22009 0.46352 0.01487 0.0
H4684 H 0.19335 0.45772 0.99625 0.0
H4685 H 0.19553 0.45718 0.10394 0.0
H4686 H 0.18956 0.48382 0.11338 0.0
H4687 H 0.21693 0.48267 0.10607 0.0
C4688 C 0.87161 0.94471 0.26045 0.0
C4689 C 0.89407 0.95064 0.27144 0.0
C4690 C 0.85725 0.92363 0.26161 0.0
C4691 C 0.86545 0.90814 0.27421 0.0
C4692 C 0.88811 0.91394 0.28519 0.0
C4693 C 0.90213 0.93503 0.28361 0.0
C4694 C 0.83321 0.91803 0.24963 0.0
C4695 C 0.89753 0.89792 0.29881 0.0
C4696 C 0.82384 0.86359 0.29817 0.0
C4697 C 0.82226 0.84426 0.28212 0.0
C4698 C 0.83767 0.88447 0.29567 0.0
C4699 C 0.85018 0.88615 0.27658 0.0
C4700 C 0.84844 0.86674 0.26015 0.0
C4701 C 0.83457 0.846 0.26318 0.0
C4702 C 0.8393 0.90463 0.31381 0.0
C4703 C 0.86137 0.86783 0.23948 0.0
H4704 H 0.86516 0.95658 0.25099 0.0
H4705 H 0.91939 0.93939 0.29221 0.0
H4706 H 0.82946 0.90203 0.23733 0.0
H4707 H 0.82157 0.91551 0.26292 0.0
H4708 H 0.82966 0.93146 0.23967 0.0
H4709 H 0.91534 0.90519 0.30682 0.0
H4710 H 0.88739 0.89335 0.31301 0.0
H4711 H 0.8965 0.88214 0.287 0.0
H4712 H 0.81473 0.86228 0.31313 0.0
H4713 H 0.83344 0.83109 0.25077 0.0
H4714 H 0.83445 0.91827 0.30515 0.0
H4715 H 0.85693 0.91126 0.32254 0.0
H4716 H 0.82836 0.90054 0.32751 0.0
H4717 H 0.856 0.87943 0.22804 0.0
H4718 H 0.85879 0.85108 0.22876 0.0
H4719 H 0.87962 0.87467 0.24569 0.0
C4720 C 0.7429 0.13488 0.77158 0.0
C4721 C 0.72567 0.12492 0.78361 0.0
C4722 C 0.74849 0.15798 0.77159 0.0
C4723 C 0.73683 0.17128 0.78441 0.0
C4724 C 0.71928 0.16139 0.79642 0.0
C4725 C 0.71377 0.13809 0.79578 0.0
C4726 C 0.76706 0.16813 0.75809 0.0
C4727 C 0.70657 0.17543 0.80995 0.0
C4728 C 0.77672 0.22698 0.80107 0.0
C4729 C 0.77078 0.23739 0.78211 0.0
C4730 C 0.76358 0.20622 0.80397 0.0
C4731 C 0.7448 0.19566 0.7868 0.0
C4732 C 0.73776 0.20705 0.76862 0.0
C4733 C 0.75115 0.22798 0.76635 0.0
C4734 C 0.77147 0.1945 0.82363 0.0
C4735 C 0.71784 0.1962 0.74998 0.0
H4736 H 0.7516 0.12454 0.76158 0.0
H4737 H 0.70016 0.13016 0.8047 0.0
H4738 H 0.76092 0.17846 0.74559 0.0
H4739 H 0.78134 0.17937 0.77045 0.0
H4740 H 0.77344 0.15512 0.74798 0.0
H4741 H 0.69262 0.16493 0.81738 0.0
H4742 H 0.71821 0.18706 0.82456 0.0
H4743 H 0.69954 0.18596 0.79831 0.0
H4744 H 0.79228 0.23445 0.81286 0.0
H4745 H 0.74699 0.2364 0.75162 0.0
H4746 H 0.78016 0.18194 0.81646 0.0
H4747 H 0.75705 0.1854 0.83147 0.0
H4748 H 0.7834 0.20654 0.83777 0.0
H4749 H 0.72343 0.18633 0.73557 0.0
H4750 H 0.71058 0.20909 0.74229 0.0
H4751 H 0.7045 0.18457 0.75708 0.0
loop_
_geom_bond_atom_site_label_1
_geom_bond_atom_site_label_2
_geom_bond_distance
_geom_bond_site_symmetry_2
_ccdc_geom_bond_type
O0 Cd1 2.223 . S
O0 C8 1.315 . S
Cd1 O0 2.223 . S
Cd1 O4 2.297 . S
Cd1 O5 2.439 . S
Cd1 O11 2.240 . S
Cd2 O3 2.240 . S
Cd2 O10 2.223 1_455 S
Cd2 O12 2.297 . S
Cd2 O13 2.439 . S
O3 Cd2 2.240 . S
O3 C8 1.279 . S
O4 Cd1 2.297 . S
O4 C6 1.247 . S
O5 Cd1 2.439 . S
O5 C6 1.208 . S
C6 O4 1.247 . S
C6 O5 1.208 . S
C7 O12 1.247 . S
C7 O13 1.208 . S
C8 O0 1.315 . S
C8 O3 1.279 . S
C9 O10 1.315 . S
C9 O11 1.279 1_655 S
O10 Cd2 2.223 1_655 S
O10 C9 1.315 . S
O11 Cd1 2.240 . S
O11 C9 1.279 1_455 S
O12 Cd2 2.297 . S
O12 C7 1.247 . S
O13 Cd2 2.439 . S
O13 C7 1.208 . S
O14 Cd15 2.223 . S
O14 C22 1.315 . S
Cd15 O14 2.223 . S
Cd15 O18 2.297 1_455 S
Cd15 O19 2.439 1_455 S
Cd15 O25 2.240 . S
Cd16 O17 2.240 . S
Cd16 O24 2.223 . S
Cd16 O26 2.297 . S
Cd16 O27 2.439 . S
O17 Cd16 2.240 . S
O17 C22 1.279 . S
O18 Cd15 2.297 1_655 S
O18 C20 1.247 . S
O19 Cd15 2.439 1_655 S
O19 C20 1.208 . S
C20 O18 1.247 . S
C20 O19 1.208 . S
C21 O26 1.247 . S
C21 O27 1.208 . S
C22 O14 1.315 . S
C22 O17 1.279 . S
C23 O24 1.315 . S
C23 O25 1.279 . S
O24 Cd16 2.223 . S
O24 C23 1.315 . S
O25 Cd15 2.240 . S
O25 C23 1.279 . S
O26 Cd16 2.297 . S
O26 C21 1.247 . S
O27 Cd16 2.439 . S
O27 C21 1.208 . S
O28 Cd29 2.223 . S
O28 C36 1.315 . S
Cd29 O28 2.223 . S
Cd29 O32 2.297 . S
Cd29 O33 2.439 . S
Cd29 O39 2.240 . S
Cd30 O31 2.240 . S
Cd30 O38 2.223 . S
Cd30 O40 2.297 . S
Cd30 O41 2.439 . S
O31 Cd30 2.240 . S
O31 C36 1.279 . S
O32 Cd29 2.297 . S
O32 C34 1.247 . S
O33 Cd29 2.439 . S
O33 C34 1.208 . S
C34 O32 1.247 . S
C34 O33 1.208 . S
C35 O40 1.247 . S
C35 O41 1.208 . S
C36 O28 1.315 . S
C36 O31 1.279 . S
C37 O38 1.315 . S
C37 O39 1.279 . S
O38 Cd30 2.223 . S
O38 C37 1.315 . S
O39 Cd29 2.240 . S
O39 C37 1.279 . S
O40 Cd30 2.297 . S
O40 C35 1.247 . S
O41 Cd30 2.439 . S
O41 C35 1.208 . S
O42 Cd43 2.223 . S
O42 C50 1.315 . S
Cd43 O42 2.223 . S
Cd43 O46 2.297 . S
Cd43 O47 2.439 . S
Cd43 O53 2.240 . S
Cd44 O45 2.240 . S
Cd44 O52 2.223 . S
Cd44 O54 2.297 . S
Cd44 O55 2.439 . S
O45 Cd44 2.240 . S
O45 C50 1.279 . S
O46 Cd43 2.297 . S
O46 C48 1.247 . S
O47 Cd43 2.439 . S
O47 C48 1.208 . S
C48 O46 1.247 . S
C48 O47 1.208 . S
C49 O54 1.247 . S
C49 O55 1.208 . S
C50 O42 1.315 . S
C50 O45 1.279 . S
C51 O52 1.315 . S
C51 O53 1.279 . S
O52 Cd44 2.223 . S
O52 C51 1.315 . S
O53 Cd43 2.240 . S
O53 C51 1.279 . S
O54 Cd44 2.297 . S
O54 C49 1.247 . S
O55 Cd44 2.439 . S
O55 C49 1.208 . S
O56 Cd57 2.223 . S
O56 C64 1.315 . S
Cd57 O56 2.223 . S
Cd57 O60 2.297 . S
Cd57 O61 2.439 . S
Cd57 O67 2.240 . S
Cd58 O59 2.240 . S
Cd58 O66 2.223 . S
Cd58 O68 2.297 . S
Cd58 O69 2.439 . S
O59 Cd58 2.240 . S
O59 C64 1.279 . S
O60 Cd57 2.297 . S
O60 C62 1.247 . S
O61 Cd57 2.439 . S
O61 C62 1.208 . S
C62 O60 1.247 . S
C62 O61 1.208 . S
C63 O68 1.247 . S
C63 O69 1.208 . S
C64 O56 1.315 . S
C64 O59 1.279 . S
C65 O66 1.315 . S
C65 O67 1.279 . S
O66 Cd58 2.223 . S
O66 C65 1.315 . S
O67 Cd57 2.240 . S
O67 C65 1.279 . S
O68 Cd58 2.297 . S
O68 C63 1.247 . S
O69 Cd58 2.439 . S
O69 C63 1.208 . S
O70 Cd71 2.223 . S
O70 C78 1.315 . S
Cd71 O70 2.223 . S
Cd71 O74 2.297 . S
Cd71 O75 2.439 . S
Cd71 O81 2.240 . S
Cd72 O73 2.240 . S
Cd72 O80 2.223 . S
Cd72 O82 2.297 . S
Cd72 O83 2.439 . S
O73 Cd72 2.240 . S
O73 C78 1.279 . S
O74 Cd71 2.297 . S
O74 C76 1.247 . S
O75 Cd71 2.439 . S
O75 C76 1.208 . S
C76 O74 1.247 . S
C76 O75 1.208 . S
C77 O82 1.247 . S
C77 O83 1.208 . S
C78 O70 1.315 . S
C78 O73 1.279 . S
C79 O80 1.315 . S
C79 O81 1.279 . S
O80 Cd72 2.223 . S
O80 C79 1.315 . S
O81 Cd71 2.240 . S
O81 C79 1.279 . S
O82 Cd72 2.297 . S
O82 C77 1.247 . S
O83 Cd72 2.439 . S
O83 C77 1.208 . S
O84 Cd85 2.223 . S
O84 C92 1.315 . S
Cd85 O84 2.223 . S
Cd85 O88 2.297 . S
Cd85 O89 2.439 . S
Cd85 O95 2.240 . S
Cd86 O87 2.240 . S
Cd86 O94 2.223 . S
Cd86 O96 2.297 . S
Cd86 O97 2.439 . S
O87 Cd86 2.240 . S
O87 C92 1.279 . S
O88 Cd85 2.297 . S
O88 C90 1.247 . S
O89 Cd85 2.439 . S
O89 C90 1.208 . S
C90 O88 1.247 . S
C90 O89 1.208 . S
C91 O96 1.247 . S
C91 O97 1.208 . S
C92 O84 1.315 . S
C92 O87 1.279 . S
C93 O94 1.315 . S
C93 O95 1.279 . S
O94 Cd86 2.223 . S
O94 C93 1.315 . S
O95 Cd85 2.240 . S
O95 C93 1.279 . S
O96 Cd86 2.297 . S
O96 C91 1.247 . S
O97 Cd86 2.439 . S
O97 C91 1.208 . S
O98 Cd99 2.223 1_655 S
O98 C106 1.315 . S
Cd99 O98 2.223 1_455 S
Cd99 O102 2.297 . S
Cd99 O103 2.439 . S
Cd99 O109 2.240 1_455 S
Cd100 O101 2.240 1_655 S
Cd100 O108 2.223 . S
Cd100 O110 2.297 . S
Cd100 O111 2.439 1_655 S
O101 Cd100 2.240 1_455 S
O101 C106 1.279 1_455 S
O102 Cd99 2.297 . S
O102 C104 1.247 . S
O103 Cd99 2.439 . S
O103 C104 1.208 . S
C104 O102 1.247 . S
C104 O103 1.208 . S
C105 O110 1.228 1_455 S
C105 O111 1.229 . S
C106 O98 1.315 . S
C106 O101 1.279 1_655 S
C107 O108 1.315 . S
C107 O109 1.279 . S
O108 Cd100 2.223 . S
O108 C107 1.315 . S
O109 Cd99 2.240 1_655 S
O109 C107 1.279 . S
O110 Cd100 2.297 . S
O110 C105 1.228 1_655 S
O111 Cd100 2.439 1_455 S
O111 C105 1.229 . S
O112 Cd113 2.223 . S
O112 C120 1.315 . S
Cd113 O112 2.223 . S
Cd113 O116 2.297 . S
Cd113 O117 2.439 . S
Cd113 O123 2.240 1_545 S
Cd114 O115 2.240 . S
Cd114 O122 2.223 1_545 S
Cd114 O124 2.297 1_545 S
Cd114 O125 2.439 . S
O115 Cd114 2.240 . S
O115 C120 1.279 . S
O116 Cd113 2.297 . S
O116 C118 1.247 . S
O117 Cd113 2.439 . S
O117 C118 1.208 . S
C118 O116 1.247 . S
C118 O117 1.208 . S
C119 O124 1.247 1_545 S
C119 O125 1.208 . S
C120 O112 1.315 . S
C120 O115 1.279 . S
C121 O122 1.315 . S
C121 O123 1.279 . S
O122 Cd114 2.223 1_565 S
O122 C121 1.315 . S
O123 Cd113 2.240 1_565 S
O123 C121 1.279 . S
O124 Cd114 2.297 1_565 S
O124 C119 1.247 1_565 S
O125 Cd114 2.439 . S
O125 C119 1.208 . S
O126 Cd127 2.223 . S
O126 C134 1.315 . S
Cd127 O126 2.223 . S
Cd127 O130 2.297 . S
Cd127 O131 2.439 . S
Cd127 O137 2.240 . S
Cd128 O129 2.240 . S
Cd128 O136 2.223 . S
Cd128 O138 2.297 . S
Cd128 O139 2.439 . S
O129 Cd128 2.240 . S
O129 C134 1.279 . S
O130 Cd127 2.297 . S
O130 C132 1.247 . S
O131 Cd127 2.439 . S
O131 C132 1.208 . S
C132 O130 1.247 . S
C132 O131 1.208 . S
C133 O138 1.247 . S
C133 O139 1.208 . S
C134 O126 1.315 . S
C134 O129 1.279 . S
C135 O136 1.315 . S
C135 O137 1.279 . S
O136 Cd128 2.223 . S
O136 C135 1.315 . S
O137 Cd127 2.240 . S
O137 C135 1.279 . S
O138 Cd128 2.297 . S
O138 C133 1.247 . S
O139 Cd128 2.439 . S
O139 C133 1.208 . S
O140 Cd141 2.223 . S
O140 C148 1.315 . S
Cd141 O140 2.223 . S
Cd141 O144 2.297 . S
Cd141 O145 2.439 . S
Cd141 O151 2.240 . S
Cd142 O143 2.240 . S
Cd142 O150 2.223 . S
Cd142 O152 2.297 . S
Cd142 O153 2.439 . S
O143 Cd142 2.240 . S
O143 C148 1.279 . S
O144 Cd141 2.297 . S
O144 C146 1.247 1_545 S
O145 Cd141 2.439 . S
O145 C146 1.208 1_545 S
C146 O144 1.247 1_565 S
C146 O145 1.208 1_565 S
C147 O152 1.247 . S
C147 O153 1.208 . S
C148 O140 1.315 . S
C148 O143 1.279 . S
C149 O150 1.315 . S
C149 O151 1.279 . S
O150 Cd142 2.223 . S
O150 C149 1.315 . S
O151 Cd141 2.240 . S
O151 C149 1.279 . S
O152 Cd142 2.297 . S
O152 C147 1.247 . S
O153 Cd142 2.439 . S
O153 C147 1.208 . S
O154 Cd155 2.223 . S
O154 C162 1.315 . S
Cd155 O154 2.223 . S
Cd155 O158 2.297 . S
Cd155 O159 2.439 1_554 S
Cd155 O165 2.240 1_554 S
Cd156 O157 2.240 1_556 S
Cd156 O164 2.223 1_556 S
Cd156 O166 2.297 . S
Cd156 O167 2.439 . S
O157 Cd156 2.240 1_554 S
O157 C162 1.279 . S
O158 Cd155 2.297 . S
O158 C160 1.247 . S
O159 Cd155 2.439 1_556 S
O159 C160 1.208 1_556 S
C160 O158 1.247 . S
C160 O159 1.208 1_554 S
C161 O166 1.247 . S
C161 O167 1.208 . S
C162 O154 1.315 . S
C162 O157 1.279 . S
C163 O164 1.315 . S
C163 O165 1.279 1_554 S
O164 Cd156 2.223 1_554 S
O164 C163 1.315 . S
O165 Cd155 2.240 1_556 S
O165 C163 1.279 1_556 S
O166 Cd156 2.297 . S
O166 C161 1.247 . S
O167 Cd156 2.439 . S
O167 C161 1.208 . S
O168 Cd169 2.223 . S
O168 C176 1.315 . S
Cd169 O168 2.223 . S
Cd169 O172 2.297 . S
Cd169 O173 2.439 . S
Cd169 O179 2.240 . S
Cd170 O171 2.240 . S
Cd170 O178 2.223 . S
Cd170 O180 2.297 . S
Cd170 O181 2.439 . S
O171 Cd170 2.240 . S
O171 C176 1.279 . S
O172 Cd169 2.297 . S
O172 C174 1.247 . S
O173 Cd169 2.439 . S
O173 C174 1.208 . S
C174 O172 1.247 . S
C174 O173 1.208 . S
C175 O180 1.247 1_556 S
C175 O181 1.208 1_556 S
C176 O168 1.315 . S
C176 O171 1.279 . S
C177 O178 1.315 . S
C177 O179 1.279 . S
O178 Cd170 2.223 . S
O178 C177 1.315 . S
O179 Cd169 2.240 . S
O179 C177 1.279 . S
O180 Cd170 2.297 . S
O180 C175 1.247 1_554 S
O181 Cd170 2.439 . S
O181 C175 1.208 1_554 S
O182 Cd183 2.223 . S
O182 C190 1.315 . S
Cd183 O182 2.223 . S
Cd183 O186 2.297 . S
Cd183 O187 2.439 . S
Cd183 O193 2.240 . S
Cd184 O185 2.240 . S
Cd184 O192 2.223 . S
Cd184 O194 2.297 . S
Cd184 O195 2.439 . S
O185 Cd184 2.240 . S
O185 C190 1.279 . S
O186 Cd183 2.297 . S
O186 C188 1.247 . S
O187 Cd183 2.439 . S
O187 C188 1.208 . S
C188 O186 1.247 . S
C188 O187 1.208 . S
C189 O194 1.247 . S
C189 O195 1.208 . S
C190 O182 1.315 . S
C190 O185 1.279 . S
C191 O192 1.315 . S
C191 O193 1.279 . S
O192 Cd184 2.223 . S
O192 C191 1.315 . S
O193 Cd183 2.240 . S
O193 C191 1.279 . S
O194 Cd184 2.297 . S
O194 C189 1.247 . S
O195 Cd184 2.439 . S
O195 C189 1.208 . S
O196 Cd197 2.223 . S
O196 C204 1.315 . S
Cd197 O196 2.223 . S
Cd197 O200 2.297 . S
Cd197 O201 2.439 . S
Cd197 O207 2.240 . S
Cd198 O199 2.240 . S
Cd198 O206 2.223 . S
Cd198 O208 2.297 . S
Cd198 O209 2.439 . S
O199 Cd198 2.240 . S
O199 C204 1.279 . S
O200 Cd197 2.297 . S
O200 C202 1.247 . S
O201 Cd197 2.439 . S
O201 C202 1.208 . S
C202 O200 1.247 . S
C202 O201 1.208 . S
C203 O208 1.247 . S
C203 O209 1.208 . S
C204 O196 1.315 . S
C204 O199 1.279 . S
C205 O206 1.315 . S
C205 O207 1.279 . S
O206 Cd198 2.223 . S
O206 C205 1.315 . S
O207 Cd197 2.240 . S
O207 C205 1.279 . S
O208 Cd198 2.297 . S
O208 C203 1.247 . S
O209 Cd198 2.439 . S
O209 C203 1.208 . S
O210 Cd211 2.223 . S
O210 C218 1.315 . S
Cd211 O210 2.223 . S
Cd211 O214 2.297 . S
Cd211 O215 2.439 . S
Cd211 O221 2.240 . S
Cd212 O213 2.240 . S
Cd212 O220 2.223 . S
Cd212 O222 2.297 . S
Cd212 O223 2.439 . S
O213 Cd212 2.240 . S
O213 C218 1.279 . S
O214 Cd211 2.297 . S
O214 C216 1.247 . S
O215 Cd211 2.439 . S
O215 C216 1.208 . S
C216 O214 1.247 . S
C216 O215 1.208 . S
C217 O222 1.247 . S
C217 O223 1.208 . S
C218 O210 1.315 . S
C218 O213 1.279 . S
C219 O220 1.315 . S
C219 O221 1.279 . S
O220 Cd212 2.223 . S
O220 C219 1.315 . S
O221 Cd211 2.240 . S
O221 C219 1.279 . S
O222 Cd212 2.297 . S
O222 C217 1.247 . S
O223 Cd212 2.439 . S
O223 C217 1.208 . S
O224 Cd225 2.223 . S
O224 C232 1.315 . S
Cd225 O224 2.223 . S
Cd225 O228 2.297 . S
Cd225 O229 2.439 . S
Cd225 O235 2.240 1_545 S
Cd226 O227 2.240 . S
Cd226 O234 2.223 1_545 S
Cd226 O236 2.297 1_545 S
Cd226 O237 2.439 . S
O227 Cd226 2.240 . S
O227 C232 1.279 . S
O228 Cd225 2.297 . S
O228 C230 1.247 . S
O229 Cd225 2.439 . S
O229 C230 1.208 . S
C230 O228 1.247 . S
C230 O229 1.208 . S
C231 O236 1.247 1_545 S
C231 O237 1.208 . S
C232 O224 1.315 . S
C232 O227 1.279 . S
C233 O234 1.315 . S
C233 O235 1.279 . S
O234 Cd226 2.223 1_565 S
O234 C233 1.315 . S
O235 Cd225 2.240 1_565 S
O235 C233 1.279 . S
O236 Cd226 2.297 1_565 S
O236 C231 1.247 1_565 S
O237 Cd226 2.439 . S
O237 C231 1.208 . S
O238 Cd239 2.223 . S
O238 C246 1.315 . S
Cd239 O238 2.223 . S
Cd239 O242 2.297 . S
Cd239 O243 2.439 . S
Cd239 O249 2.240 . S
Cd240 O241 2.240 . S
Cd240 O248 2.223 . S
Cd240 O250 2.297 . S
Cd240 O251 2.439 . S
O241 Cd240 2.240 . S
O241 C246 1.279 . S
O242 Cd239 2.297 . S
O242 C244 1.247 . S
O243 Cd239 2.439 . S
O243 C244 1.208 . S
C244 O242 1.247 . S
C244 O243 1.208 . S
C245 O250 1.247 . S
C245 O251 1.208 . S
C246 O238 1.315 . S
C246 O241 1.279 . S
C247 O248 1.315 . S
C247 O249 1.279 . S
O248 Cd240 2.223 . S
O248 C247 1.315 . S
O249 Cd239 2.240 . S
O249 C247 1.279 . S
O250 Cd240 2.297 . S
O250 C245 1.247 . S
O251 Cd240 2.439 . S
O251 C245 1.208 . S
O252 Cd253 2.223 . S
O252 C260 1.315 . S
Cd253 O252 2.223 . S
Cd253 O256 2.297 . S
Cd253 O257 2.439 . S
Cd253 O263 2.240 . S
Cd254 O255 2.240 . S
Cd254 O262 2.223 . S
Cd254 O264 2.297 . S
Cd254 O265 2.439 . S
O255 Cd254 2.240 . S
O255 C260 1.279 . S
O256 Cd253 2.297 . S
O256 C258 1.247 . S
O257 Cd253 2.439 . S
O257 C258 1.208 . S
C258 O256 1.247 . S
C258 O257 1.208 . S
C259 O264 1.247 . S
C259 O265 1.208 . S
C260 O252 1.315 . S
C260 O255 1.279 . S
C261 O262 1.315 . S
C261 O263 1.279 . S
O262 Cd254 2.223 . S
O262 C261 1.315 . S
O263 Cd253 2.240 . S
O263 C261 1.279 . S
O264 Cd254 2.297 . S
O264 C259 1.247 . S
O265 Cd254 2.439 . S
O265 C259 1.208 . S
O266 Cd267 2.223 . S
O266 C274 1.315 . S
Cd267 O266 2.223 . S
Cd267 O270 2.297 . S
Cd267 O271 2.439 . S
Cd267 O277 2.240 . S
Cd268 O269 2.240 . S
Cd268 O276 2.223 . S
Cd268 O278 2.297 . S
Cd268 O279 2.439 . S
O269 Cd268 2.240 . S
O269 C274 1.279 . S
O270 Cd267 2.297 . S
O270 C272 1.247 . S
O271 Cd267 2.439 . S
O271 C272 1.208 . S
C272 O270 1.247 . S
C272 O271 1.208 . S
C273 O278 1.247 . S
C273 O279 1.208 . S
C274 O266 1.315 . S
C274 O269 1.279 . S
C275 O276 1.315 . S
C275 O277 1.279 . S
O276 Cd268 2.223 . S
O276 C275 1.315 . S
O277 Cd267 2.240 . S
O277 C275 1.279 . S
O278 Cd268 2.297 . S
O278 C273 1.247 . S
O279 Cd268 2.439 . S
O279 C273 1.208 . S
O280 Cd281 2.223 . S
O280 C288 1.315 . S
Cd281 O280 2.223 . S
Cd281 O284 2.297 . S
Cd281 O285 2.439 . S
Cd281 O291 2.240 . S
Cd282 O283 2.240 . S
Cd282 O290 2.223 . S
Cd282 O292 2.297 1_554 S
Cd282 O293 2.439 1_554 S
O283 Cd282 2.240 . S
O283 C288 1.279 . S
O284 Cd281 2.297 . S
O284 C286 1.247 . S
O285 Cd281 2.439 . S
O285 C286 1.208 . S
C286 O284 1.247 . S
C286 O285 1.208 . S
C287 O292 1.247 . S
C287 O293 1.208 . S
C288 O280 1.315 . S
C288 O283 1.279 . S
C289 O290 1.315 . S
C289 O291 1.279 . S
O290 Cd282 2.223 . S
O290 C289 1.315 . S
O291 Cd281 2.240 . S
O291 C289 1.279 . S
O292 Cd282 2.297 1_556 S
O292 C287 1.247 . S
O293 Cd282 2.439 1_556 S
O293 C287 1.208 . S
O294 Cd295 2.223 . S
O294 C302 1.315 . S
Cd295 O294 2.223 . S
Cd295 O298 2.297 . S
Cd295 O299 2.439 . S
Cd295 O305 2.240 . S
Cd296 O297 2.240 . S
Cd296 O304 2.223 . S
Cd296 O306 2.297 . S
Cd296 O307 2.439 . S
O297 Cd296 2.240 . S
O297 C302 1.279 . S
O298 Cd295 2.297 . S
O298 C300 1.247 . S
O299 Cd295 2.439 . S
O299 C300 1.208 . S
C300 O298 1.247 . S
C300 O299 1.208 . S
C301 O306 1.247 . S
C301 O307 1.208 . S
C302 O294 1.315 . S
C302 O297 1.279 . S
C303 O304 1.315 . S
C303 O305 1.279 . S
O304 Cd296 2.223 . S
O304 C303 1.315 . S
O305 Cd295 2.240 . S
O305 C303 1.279 . S
O306 Cd296 2.297 . S
O306 C301 1.247 . S
O307 Cd296 2.439 . S
O307 C301 1.208 . S
O308 Cd309 2.223 . S
O308 C316 1.315 . S
Cd309 O308 2.223 . S
Cd309 O312 2.297 . S
Cd309 O313 2.439 . S
Cd309 O319 2.240 . S
Cd310 O311 2.240 . S
Cd310 O318 2.223 . S
Cd310 O320 2.297 . S
Cd310 O321 2.439 . S
O311 Cd310 2.240 . S
O311 C316 1.279 . S
O312 Cd309 2.297 . S
O312 C314 1.247 . S
O313 Cd309 2.439 . S
O313 C314 1.208 . S
C314 O312 1.247 . S
C314 O313 1.208 . S
C315 O320 1.247 . S
C315 O321 1.208 . S
C316 O308 1.315 . S
C316 O311 1.279 . S
C317 O318 1.315 . S
C317 O319 1.279 . S
O318 Cd310 2.223 . S
O318 C317 1.315 . S
O319 Cd309 2.240 . S
O319 C317 1.279 . S
O320 Cd310 2.297 . S
O320 C315 1.247 . S
O321 Cd310 2.439 . S
O321 C315 1.208 . S
O322 Cd323 2.223 . S
O322 C330 1.315 . S
Cd323 O322 2.223 . S
Cd323 O326 2.297 . S
Cd323 O327 2.439 . S
Cd323 O333 2.240 . S
Cd324 O325 2.240 . S
Cd324 O332 2.223 . S
Cd324 O334 2.297 . S
Cd324 O335 2.439 . S
O325 Cd324 2.240 . S
O325 C330 1.279 . S
O326 Cd323 2.297 . S
O326 C328 1.247 . S
O327 Cd323 2.439 . S
O327 C328 1.208 . S
C328 O326 1.247 . S
C328 O327 1.208 . S
C329 O334 1.247 . S
C329 O335 1.208 . S
C330 O322 1.315 . S
C330 O325 1.279 . S
C331 O332 1.315 . S
C331 O333 1.279 . S
O332 Cd324 2.223 . S
O332 C331 1.315 . S
O333 Cd323 2.240 . S
O333 C331 1.279 . S
O334 Cd324 2.297 . S
O334 C329 1.247 . S
O335 Cd324 2.439 . S
O335 C329 1.208 . S
Tb336 N365 2.617 . S
Tb336 N371 2.572 . S
Tb336 O380 2.465 . S
Tb336 O381 2.387 . S
Tb336 O383 2.428 . S
Tb336 O384 2.308 . S
Tb336 O388 2.349 . S
Tb336 O391 2.393 . S
Tb336 C400 2.802 . S
C337 N338 1.379 1_554 S
C337 C340 1.416 1_554 S
C337 C344 1.424 . S
N338 C337 1.379 1_556 S
N338 C341 1.334 . S
N338 Tb347 2.617 1_566 S
C339 C341 1.390 . S
C339 C342 1.339 . S
C339 H359 0.930 . S
C340 C337 1.416 1_556 S
C340 C342 1.416 . S
C340 C346 1.448 . S
C341 N338 1.334 . S
C341 C339 1.390 . S
C341 H352 0.930 1_565 S
C342 C339 1.339 . S
C342 C340 1.416 . S
C342 H363 0.930 . S
C343 C344 1.413 . S
C343 C345 1.427 . S
C343 C349 1.416 . S
C344 C337 1.424 . S
C344 C343 1.413 . S
C344 N348 1.361 . S
C345 C343 1.427 . S
C345 C346 1.328 1_554 S
C345 H360 0.929 . S
C346 C340 1.448 . S
C346 C345 1.328 1_556 S
C346 H361 0.930 . S
Tb347 N338 2.617 1_544 S
Tb347 N348 2.572 1_545 S
Tb347 O382 2.349 1_655 S
Tb347 O385 2.426 1_655 S
Tb347 O386 2.465 . S
Tb347 O387 2.387 1_645 S
Tb347 O389 2.428 . S
Tb347 O390 2.308 1_655 S
Tb347 C411 2.802 . S
N348 C344 1.361 . S
N348 Tb347 2.572 1_565 S
N348 C350 1.340 . S
C349 C343 1.416 . S
C349 C351 1.332 . S
C349 H357 0.931 . S
C350 N348 1.340 . S
C350 C351 1.407 . S
C350 H356 0.930 1_565 S
C351 C349 1.332 . S
C351 C350 1.407 . S
C351 H353 0.929 . S
H352 C341 0.930 1_545 S
H353 C351 0.929 . S
H354 C369 0.930 . S
H355 C376 0.929 . S
H356 C350 0.930 1_545 S
H357 C349 0.931 . S
H358 C372 0.930 . S
H359 C339 0.930 . S
H360 C345 0.929 . S
H361 C346 0.930 . S
H362 C367 0.930 . S
H363 C342 0.930 . S
H364 C375 0.931 . S
N365 Tb336 2.617 . S
N365 C366 1.379 . S
N365 C369 1.334 . S
C366 N365 1.379 . S
C366 C368 1.416 . S
C366 C374 1.424 . S
C367 H362 0.930 . S
C367 C369 1.390 . S
C367 C370 1.339 . S
C368 C366 1.416 . S
C368 C370 1.416 . S
C368 C401 1.448 . S
C369 H354 0.930 . S
C369 N365 1.334 . S
C369 C367 1.390 . S
C370 C367 1.339 . S
C370 C368 1.416 . S
C370 H377 0.930 . S
N371 Tb336 2.572 . S
N371 C372 1.340 . S
N371 C374 1.361 . S
C372 H358 0.930 . S
C372 N371 1.340 . S
C372 C376 1.407 . S
C373 C374 1.413 . S
C373 C375 1.416 . S
C373 C402 1.427 . S
C374 C366 1.424 . S
C374 N371 1.361 . S
C374 C373 1.413 . S
C375 H364 0.931 . S
C375 C373 1.416 . S
C375 C376 1.332 . S
C376 H355 0.929 . S
C376 C372 1.407 . S
C376 C375 1.332 . S
H377 C370 0.930 . S
H378 C401 0.930 . S
H379 C402 0.929 . S
O380 Tb336 2.465 . S
O380 C400 1.264 . S
O381 Tb336 2.387 . S
O381 C392 1.264 . S
O382 Tb347 2.349 1_455 S
O382 C392 1.243 . S
O383 Tb336 2.428 . S
O383 C400 1.256 . S
O384 Tb336 2.308 . S
O384 C399 1.266 . S
O385 Tb347 2.426 1_455 S
O385 C399 1.252 . S
O386 Tb347 2.465 . S
O386 C411 1.264 . S
O387 Tb347 2.387 1_465 S
O387 C403 1.264 . S
O388 Tb336 2.349 . S
O388 C403 1.243 1_545 S
O389 Tb347 2.428 . S
O389 C411 1.256 . S
O390 Tb347 2.308 1_455 S
O390 C410 1.266 . S
O391 Tb336 2.393 . S
O391 C410 1.248 . S
C392 O381 1.264 . S
C392 O382 1.243 . S
C393 C396 1.399 . S
C393 C398 1.383 . S
C393 C400 1.496 . S
C394 C395 1.399 . S
C394 C398 1.389 . S
C395 C394 1.399 . S
C395 C397 1.380 . S
C395 H412 0.929 . S
C396 C393 1.399 . S
C396 C397 1.392 . S
C396 H413 0.929 . S
C397 C395 1.380 . S
C397 C396 1.392 . S
C397 H414 0.929 . S
C398 C393 1.383 . S
C398 C394 1.389 . S
C398 H415 0.931 . S
C399 O384 1.266 . S
C399 O385 1.252 . S
C400 Tb336 2.802 . S
C400 O380 1.264 . S
C400 O383 1.256 . S
C400 C393 1.496 . S
C401 C368 1.448 . S
C401 H378 0.930 . S
C401 C402 1.328 . S
C402 C373 1.427 . S
C402 H379 0.929 . S
C402 C401 1.328 . S
C403 O387 1.264 . S
C403 O388 1.243 1_565 S
C404 C407 1.399 1_554 S
C404 C408 1.383 . S
C404 C411 1.496 . S
C405 C406 1.399 . S
C405 C408 1.389 . S
C406 C405 1.399 . S
C406 C409 1.380 1_554 S
C406 H416 0.929 . S
C407 C404 1.399 1_556 S
C407 C409 1.392 . S
C407 H417 0.929 . S
C408 C404 1.383 . S
C408 C405 1.389 . S
C408 H418 0.931 . S
C409 C406 1.380 1_556 S
C409 C407 1.392 . S
C409 H419 0.929 . S
C410 O390 1.266 . S
C410 O391 1.248 . S
C411 Tb347 2.802 . S
C411 O386 1.264 . S
C411 O389 1.256 . S
C411 C404 1.496 . S
H412 C395 0.929 . S
H413 C396 0.929 . S
H414 C397 0.929 . S
H415 C398 0.931 . S
H416 C406 0.929 . S
H417 C407 0.929 . S
H418 C408 0.931 . S
H419 C409 0.929 . S
Tb420 N449 2.617 . S
Tb420 N455 2.572 . S
Tb420 O464 2.465 . S
Tb420 O465 2.387 . S
Tb420 O467 2.428 . S
Tb420 O468 2.308 . S
Tb420 O472 2.349 . S
Tb420 O475 2.393 . S
Tb420 C484 2.802 . S
C421 N422 1.379 . S
C421 C424 1.416 . S
C421 C428 1.424 . S
N422 C421 1.379 . S
N422 C425 1.334 . S
N422 Tb431 2.617 . S
C423 C425 1.390 . S
C423 C426 1.339 . S
C423 H443 0.930 . S
C424 C421 1.416 . S
C424 C426 1.416 . S
C424 C430 1.448 . S
C425 N422 1.334 . S
C425 C423 1.390 . S
C425 H436 0.930 . S
C426 C423 1.339 . S
C426 C424 1.416 . S
C426 H447 0.930 . S
C427 C428 1.413 . S
C427 C429 1.427 . S
C427 C433 1.416 . S
C428 C421 1.424 . S
C428 C427 1.413 . S
C428 N432 1.361 . S
C429 C427 1.427 . S
C429 C430 1.328 . S
C429 H444 0.929 . S
C430 C424 1.448 . S
C430 C429 1.328 . S
C430 H445 0.930 . S
Tb431 N422 2.617 . S
Tb431 N432 2.572 . S
Tb431 O466 2.349 . S
Tb431 O469 2.393 . S
Tb431 O470 2.465 . S
Tb431 O471 2.387 . S
Tb431 O473 2.428 . S
Tb431 O474 2.308 . S
Tb431 C495 2.802 . S
N432 C428 1.361 . S
N432 Tb431 2.572 . S
N432 C434 1.340 . S
C433 C427 1.416 . S
C433 C435 1.332 . S
C433 H441 0.931 . S
C434 N432 1.340 . S
C434 C435 1.407 . S
C434 H440 0.930 . S
C435 C433 1.332 . S
C435 C434 1.407 . S
C435 H437 0.929 . S
H436 C425 0.930 . S
H437 C435 0.929 . S
H438 C453 0.930 . S
H439 C460 0.929 . S
H440 C434 0.930 . S
H441 C433 0.931 . S
H442 C456 0.930 . S
H443 C423 0.930 . S
H444 C429 0.929 . S
H445 C430 0.930 . S
H446 C451 0.930 . S
H447 C426 0.930 . S
H448 C459 0.931 . S
N449 Tb420 2.617 . S
N449 C450 1.379 . S
N449 C453 1.334 . S
C450 N449 1.379 . S
C450 C452 1.416 . S
C450 C458 1.424 . S
C451 H446 0.930 . S
C451 C453 1.390 . S
C451 C454 1.339 . S
C452 C450 1.416 . S
C452 C454 1.416 . S
C452 C485 1.448 . S
C453 H438 0.930 . S
C453 N449 1.334 . S
C453 C451 1.390 . S
C454 C451 1.339 . S
C454 C452 1.416 . S
C454 H461 0.930 . S
N455 Tb420 2.572 . S
N455 C456 1.340 . S
N455 C458 1.361 . S
C456 H442 0.930 . S
C456 N455 1.340 . S
C456 C460 1.407 . S
C457 C458 1.413 . S
C457 C459 1.416 . S
C457 C486 1.427 . S
C458 C450 1.424 . S
C458 N455 1.361 . S
C458 C457 1.413 . S
C459 H448 0.931 . S
C459 C457 1.416 . S
C459 C460 1.332 . S
C460 H439 0.929 . S
C460 C456 1.407 . S
C460 C459 1.332 . S
H461 C454 0.930 . S
H462 C485 0.930 . S
H463 C486 0.929 . S
O464 Tb420 2.465 . S
O464 C484 1.264 . S
O465 Tb420 2.387 . S
O465 C476 1.264 . S
O466 Tb431 2.349 . S
O466 C476 1.243 . S
O467 Tb420 2.428 . S
O467 C484 1.256 . S
O468 Tb420 2.308 . S
O468 C483 1.266 . S
O469 Tb431 2.393 . S
O469 C483 1.248 . S
O470 Tb431 2.465 . S
O470 C495 1.264 . S
O471 Tb431 2.387 . S
O471 C487 1.264 . S
O472 Tb420 2.349 . S
O472 C487 1.243 . S
O473 Tb431 2.428 . S
O473 C495 1.256 . S
O474 Tb431 2.308 . S
O474 C494 1.266 . S
O475 Tb420 2.393 . S
O475 C494 1.248 . S
C476 O465 1.264 . S
C476 O466 1.243 . S
C477 C480 1.399 . S
C477 C482 1.383 . S
C477 C484 1.496 . S
C478 C479 1.399 . S
C478 C482 1.389 . S
C479 C478 1.399 . S
C479 C481 1.380 . S
C479 H496 0.929 . S
C480 C477 1.399 . S
C480 C481 1.392 . S
C480 H497 0.929 . S
C481 C479 1.380 . S
C481 C480 1.392 . S
C481 H498 0.929 . S
C482 C477 1.383 . S
C482 C478 1.389 . S
C482 H499 0.931 . S
C483 O468 1.266 . S
C483 O469 1.248 . S
C484 Tb420 2.802 . S
C484 O464 1.264 . S
C484 O467 1.256 . S
C484 C477 1.496 . S
C485 C452 1.448 . S
C485 H462 0.930 . S
C485 C486 1.328 . S
C486 C457 1.427 . S
C486 H463 0.929 . S
C486 C485 1.328 . S
C487 O471 1.264 . S
C487 O472 1.243 . S
C488 C491 1.399 . S
C488 C492 1.383 . S
C488 C495 1.496 . S
C489 C490 1.399 . S
C489 C492 1.389 . S
C490 C489 1.399 . S
C490 C493 1.380 . S
C490 H500 0.929 . S
C491 C488 1.399 . S
C491 C493 1.392 . S
C491 H501 0.929 . S
C492 C488 1.383 . S
C492 C489 1.389 . S
C492 H502 0.931 . S
C493 C490 1.380 . S
C493 C491 1.392 . S
C493 H503 0.929 . S
C494 O474 1.266 . S
C494 O475 1.248 . S
C495 Tb431 2.802 . S
C495 O470 1.264 . S
C495 O473 1.256 . S
C495 C488 1.496 . S
H496 C479 0.929 . S
H497 C480 0.929 . S
H498 C481 0.929 . S
H499 C482 0.931 . S
H500 C490 0.929 . S
H501 C491 0.929 . S
H502 C492 0.931 . S
H503 C493 0.929 . S
Tb504 N533 2.608 1_545 S
Tb504 N539 2.572 1_545 S
Tb504 O548 2.465 . S
Tb504 O549 2.387 1_545 S
Tb504 O551 2.428 . S
Tb504 O552 2.308 . S
Tb504 O556 2.349 . S
Tb504 O559 2.393 . S
Tb504 C568 2.802 . S
C505 N506 1.379 . S
C505 C508 1.416 . S
C505 C512 1.424 . S
N506 C505 1.379 . S
N506 C509 1.334 . S
N506 Tb515 2.617 . S
C507 C509 1.390 . S
C507 C510 1.339 . S
C507 H527 0.930 . S
C508 C505 1.416 . S
C508 C510 1.416 . S
C508 C514 1.448 . S
C509 N506 1.334 . S
C509 C507 1.390 . S
C509 H520 0.930 . S
C510 C507 1.339 . S
C510 C508 1.416 . S
C510 H531 0.930 . S
C511 C512 1.413 . S
C511 C513 1.427 . S
C511 C517 1.416 . S
C512 C505 1.424 . S
C512 C511 1.413 . S
C512 N516 1.361 . S
C513 C511 1.427 . S
C513 C514 1.328 . S
C513 H528 0.929 . S
C514 C508 1.448 . S
C514 C513 1.328 . S
C514 H529 0.930 . S
Tb515 N506 2.617 . S
Tb515 N516 2.572 . S
Tb515 O550 2.349 1_545 S
Tb515 O553 2.393 . S
Tb515 O554 2.465 . S
Tb515 O555 2.387 . S
Tb515 O557 2.428 . S
Tb515 O558 2.308 . S
Tb515 C579 2.802 . S
N516 C512 1.361 . S
N516 Tb515 2.572 . S
N516 C518 1.340 . S
C517 C511 1.416 . S
C517 C519 1.332 . S
C517 H525 0.931 . S
C518 N516 1.340 . S
C518 C519 1.407 . S
C518 H524 0.930 . S
C519 C517 1.332 . S
C519 C518 1.407 . S
C519 H521 0.929 . S
H520 C509 0.930 . S
H521 C519 0.929 . S
H522 C537 0.930 . S
H523 C544 0.929 . S
H524 C518 0.930 . S
H525 C517 0.931 . S
H526 C540 0.930 . S
H527 C507 0.930 . S
H528 C513 0.929 . S
H529 C514 0.930 . S
H530 C535 0.930 . S
H531 C510 0.930 . S
H532 C543 0.931 . S
N533 Tb504 2.608 1_565 S
N533 C534 1.389 . S
N533 C537 1.335 1_565 S
C534 N533 1.389 . S
C534 C536 1.416 . S
C534 C542 1.424 . S
C535 H530 0.930 . S
C535 C537 1.390 1_565 S
C535 C538 1.339 . S
C536 C534 1.416 . S
C536 C538 1.416 . S
C536 C569 1.448 . S
C537 H522 0.930 . S
C537 N533 1.335 1_545 S
C537 C535 1.390 1_545 S
C538 C535 1.339 . S
C538 C536 1.416 . S
C538 H545 0.930 . S
N539 Tb504 2.572 1_565 S
N539 C540 1.340 . S
N539 C542 1.361 . S
C540 H526 0.930 . S
C540 N539 1.340 . S
C540 C544 1.407 . S
C541 C542 1.413 . S
C541 C543 1.416 . S
C541 C570 1.427 . S
C542 C534 1.424 . S
C542 N539 1.361 . S
C542 C541 1.413 . S
C543 H532 0.931 . S
C543 C541 1.416 . S
C543 C544 1.332 . S
C544 H523 0.929 . S
C544 C540 1.407 . S
C544 C543 1.332 . S
H545 C538 0.930 . S
H546 C569 0.930 . S
H547 C570 0.929 . S
O548 Tb504 2.465 . S
O548 C568 1.264 . S
O549 Tb504 2.387 1_565 S
O549 C560 1.264 . S
O550 Tb515 2.349 1_565 S
O550 C560 1.243 . S
O551 Tb504 2.428 . S
O551 C568 1.256 . S
O552 Tb504 2.308 . S
O552 C567 1.266 . S
O553 Tb515 2.393 . S
O553 C567 1.248 . S
O554 Tb515 2.465 . S
O554 C579 1.264 . S
O555 Tb515 2.387 . S
O555 C571 1.264 . S
O556 Tb504 2.349 . S
O556 C571 1.243 . S
O557 Tb515 2.428 . S
O557 C579 1.256 . S
O558 Tb515 2.308 . S
O558 C578 1.266 . S
O559 Tb504 2.393 . S
O559 C578 1.248 . S
C560 O549 1.264 . S
C560 O550 1.243 . S
C561 C564 1.399 . S
C561 C566 1.383 . S
C561 C568 1.496 . S
C562 C563 1.399 . S
C562 C566 1.389 . S
C563 C562 1.399 . S
C563 C565 1.380 . S
C563 H580 0.929 . S
C564 C561 1.399 . S
C564 C565 1.392 . S
C564 H581 0.929 . S
C565 C563 1.380 . S
C565 C564 1.392 . S
C565 H582 0.929 . S
C566 C561 1.383 . S
C566 C562 1.389 . S
C566 H583 0.931 . S
C567 O552 1.266 . S
C567 O553 1.248 . S
C568 Tb504 2.802 . S
C568 O548 1.264 . S
C568 O551 1.256 . S
C568 C561 1.496 . S
C569 C536 1.448 . S
C569 H546 0.930 . S
C569 C570 1.328 . S
C570 C541 1.427 . S
C570 H547 0.929 . S
C570 C569 1.328 . S
C571 O555 1.264 . S
C571 O556 1.243 . S
C572 C575 1.398 1_545 S
C572 C576 1.380 1_545 S
C572 C579 1.500 . S
C573 C574 1.399 . S
C573 C576 1.389 . S
C574 C573 1.399 . S
C574 C577 1.380 . S
C574 H584 0.929 . S
C575 C572 1.398 1_565 S
C575 C577 1.392 . S
C575 H585 0.929 . S
C576 C572 1.380 1_565 S
C576 C573 1.389 . S
C576 H586 0.931 . S
C577 C574 1.380 . S
C577 C575 1.392 . S
C577 H587 0.929 . S
C578 O558 1.266 . S
C578 O559 1.248 . S
C579 Tb515 2.802 . S
C579 O554 1.264 . S
C579 O557 1.256 . S
C579 C572 1.500 . S
H580 C563 0.929 . S
H581 C564 0.929 . S
H582 C565 0.929 . S
H583 C566 0.931 . S
H584 C574 0.929 . S
H585 C575 0.929 . S
H586 C576 0.931 . S
H587 C577 0.929 . S
Tb588 N617 2.617 . S
Tb588 N623 2.572 . S
Tb588 O632 2.465 . S
Tb588 O633 2.387 . S
Tb588 O635 2.428 . S
Tb588 O636 2.308 . S
Tb588 O640 2.349 . S
Tb588 O643 2.393 . S
Tb588 C652 2.802 . S
C589 N590 1.379 . S
C589 C592 1.416 . S
C589 C596 1.424 . S
N590 C589 1.379 . S
N590 C593 1.334 . S
N590 Tb599 2.617 . S
C591 C593 1.390 . S
C591 C594 1.339 . S
C591 H611 0.930 . S
C592 C589 1.416 . S
C592 C594 1.416 . S
C592 C598 1.448 . S
C593 N590 1.334 . S
C593 C591 1.390 . S
C593 H604 0.930 . S
C594 C591 1.339 . S
C594 C592 1.416 . S
C594 H615 0.930 . S
C595 C596 1.413 . S
C595 C597 1.427 . S
C595 C601 1.416 . S
C596 C589 1.424 . S
C596 C595 1.413 . S
C596 N600 1.361 . S
C597 C595 1.427 . S
C597 C598 1.328 . S
C597 H612 0.929 . S
C598 C592 1.448 . S
C598 C597 1.328 . S
C598 H613 0.930 . S
Tb599 N590 2.617 . S
Tb599 N600 2.572 . S
Tb599 O634 2.349 . S
Tb599 O637 2.393 . S
Tb599 O638 2.465 . S
Tb599 O639 2.387 . S
Tb599 O641 2.428 . S
Tb599 O642 2.308 . S
Tb599 C663 2.802 . S
N600 C596 1.361 . S
N600 Tb599 2.572 . S
N600 C602 1.340 . S
C601 C595 1.416 . S
C601 C603 1.332 . S
C601 H609 0.931 . S
C602 N600 1.340 . S
C602 C603 1.407 . S
C602 H608 0.930 . S
C603 C601 1.332 . S
C603 C602 1.407 . S
C603 H605 0.929 . S
H604 C593 0.930 . S
H605 C603 0.929 . S
H606 C621 0.930 . S
H607 C628 0.929 . S
H608 C602 0.930 . S
H609 C601 0.931 . S
H610 C624 0.930 . S
H611 C591 0.930 . S
H612 C597 0.929 . S
H613 C598 0.930 . S
H614 C619 0.930 . S
H615 C594 0.930 . S
H616 C627 0.931 . S
N617 Tb588 2.617 . S
N617 C618 1.379 . S
N617 C621 1.334 . S
C618 N617 1.379 . S
C618 C620 1.416 . S
C618 C626 1.424 . S
C619 H614 0.930 . S
C619 C621 1.390 . S
C619 C622 1.339 . S
C620 C618 1.416 . S
C620 C622 1.416 . S
C620 C653 1.448 . S
C621 H606 0.930 . S
C621 N617 1.334 . S
C621 C619 1.390 . S
C622 C619 1.339 . S
C622 C620 1.416 . S
C622 H629 0.930 . S
N623 Tb588 2.572 . S
N623 C624 1.340 . S
N623 C626 1.361 . S
C624 H610 0.930 . S
C624 N623 1.340 . S
C624 C628 1.407 . S
C625 C626 1.413 . S
C625 C627 1.416 . S
C625 C654 1.427 . S
C626 C618 1.424 . S
C626 N623 1.361 . S
C626 C625 1.413 . S
C627 H616 0.931 . S
C627 C625 1.416 . S
C627 C628 1.332 . S
C628 H607 0.929 . S
C628 C624 1.407 . S
C628 C627 1.332 . S
H629 C622 0.930 . S
H630 C653 0.930 . S
H631 C654 0.929 . S
O632 Tb588 2.465 . S
O632 C652 1.264 . S
O633 Tb588 2.387 . S
O633 C644 1.264 . S
O634 Tb599 2.349 . S
O634 C644 1.243 . S
O635 Tb588 2.428 . S
O635 C652 1.256 . S
O636 Tb588 2.308 . S
O636 C651 1.266 . S
O637 Tb599 2.393 . S
O637 C651 1.248 . S
O638 Tb599 2.465 . S
O638 C663 1.264 . S
O639 Tb599 2.387 . S
O639 C655 1.264 . S
O640 Tb588 2.349 . S
O640 C655 1.243 . S
O641 Tb599 2.428 . S
O641 C663 1.256 . S
O642 Tb599 2.308 . S
O642 C662 1.266 . S
O643 Tb588 2.393 . S
O643 C662 1.248 . S
C644 O633 1.264 . S
C644 O634 1.243 . S
C645 C648 1.399 . S
C645 C650 1.383 . S
C645 C652 1.496 . S
C646 C647 1.399 . S
C646 C650 1.389 . S
C647 C646 1.399 . S
C647 C649 1.380 . S
C647 H664 0.929 . S
C648 C645 1.399 . S
C648 C649 1.392 . S
C648 H665 0.929 . S
C649 C647 1.380 . S
C649 C648 1.392 . S
C649 H666 0.929 . S
C650 C645 1.383 . S
C650 C646 1.389 . S
C650 H667 0.931 . S
C651 O636 1.266 . S
C651 O637 1.248 . S
C652 Tb588 2.802 . S
C652 O632 1.264 . S
C652 O635 1.256 . S
C652 C645 1.496 . S
C653 C620 1.448 . S
C653 H630 0.930 . S
C653 C654 1.328 . S
C654 C625 1.427 . S
C654 H631 0.929 . S
C654 C653 1.328 . S
C655 O639 1.264 . S
C655 O640 1.243 . S
C656 C659 1.399 . S
C656 C660 1.383 . S
C656 C663 1.496 . S
C657 C658 1.399 . S
C657 C660 1.389 . S
C658 C657 1.399 . S
C658 C661 1.380 . S
C658 H668 0.929 . S
C659 C656 1.399 . S
C659 C661 1.392 . S
C659 H669 0.929 . S
C660 C656 1.383 . S
C660 C657 1.389 . S
C660 H670 0.931 . S
C661 C658 1.380 . S
C661 C659 1.392 . S
C661 H671 0.929 . S
C662 O642 1.266 . S
C662 O643 1.248 . S
C663 Tb599 2.802 . S
C663 O638 1.264 . S
C663 O641 1.256 . S
C663 C656 1.496 . S
H664 C647 0.929 . S
H665 C648 0.929 . S
H666 C649 0.929 . S
H667 C650 0.931 . S
H668 C658 0.929 . S
H669 C659 0.929 . S
H670 C660 0.931 . S
H671 C661 0.929 . S
Tb672 N701 2.617 1_545 S
Tb672 N707 2.572 1_545 S
Tb672 O716 2.465 1_545 S
Tb672 O717 2.387 . S
Tb672 O719 2.428 1_545 S
Tb672 O720 2.308 . S
Tb672 O724 2.349 . S
Tb672 O727 2.393 . S
Tb672 C736 2.802 1_545 S
C673 N674 1.379 . S
C673 C676 1.416 . S
C673 C680 1.424 . S
N674 C673 1.379 . S
N674 C677 1.334 1_455 S
N674 Tb683 2.617 . S
C675 C677 1.390 . S
C675 C678 1.339 . S
C675 H695 0.930 . S
C676 C673 1.416 . S
C676 C678 1.416 1_455 S
C676 C682 1.448 . S
C677 N674 1.334 1_655 S
C677 C675 1.390 . S
C677 H688 0.930 . S
C678 C675 1.339 . S
C678 C676 1.416 1_655 S
C678 H699 0.930 . S
C679 C680 1.413 . S
C679 C681 1.427 . S
C679 C685 1.416 . S
C680 C673 1.424 . S
C680 C679 1.413 . S
C680 N684 1.361 . S
C681 C679 1.427 . S
C681 C682 1.328 . S
C681 H696 0.929 . S
C682 C676 1.448 . S
C682 C681 1.328 . S
C682 H697 0.930 . S
Tb683 N674 2.617 . S
Tb683 N684 2.572 . S
Tb683 O718 2.349 . S
Tb683 O721 2.393 1_455 S
Tb683 O722 2.465 . S
Tb683 O723 2.387 . S
Tb683 O725 2.428 . S
Tb683 O726 2.308 . S
Tb683 C747 2.802 . S
N684 C680 1.361 . S
N684 Tb683 2.572 . S
N684 C686 1.340 . S
C685 C679 1.416 . S
C685 C687 1.332 . S
C685 H693 0.931 . S
C686 N684 1.340 . S
C686 C687 1.407 . S
C686 H692 0.930 . S
C687 C685 1.332 . S
C687 C686 1.407 . S
C687 H689 0.929 . S
H688 C677 0.930 . S
H689 C687 0.929 . S
H690 C705 0.930 1_545 S
H691 C712 0.929 . S
H692 C686 0.930 . S
H693 C685 0.931 . S
H694 C708 0.930 1_655 S
H695 C675 0.930 . S
H696 C681 0.929 . S
H697 C682 0.930 . S
H698 C703 0.924 1_545 S
H699 C678 0.930 . S
H700 C711 0.936 . S
N701 Tb672 2.617 1_565 S
N701 C702 1.379 . S
N701 C705 1.334 . S
C702 N701 1.379 . S
C702 C704 1.416 . S
C702 C710 1.424 . S
C703 H698 0.924 1_565 S
C703 C705 1.390 . S
C703 C706 1.339 . S
C704 C702 1.416 . S
C704 C706 1.416 . S
C704 C737 1.448 . S
C705 H690 0.930 1_565 S
C705 N701 1.334 . S
C705 C703 1.390 . S
C706 C703 1.339 . S
C706 C704 1.416 . S
C706 H713 0.930 . S
N707 Tb672 2.572 1_565 S
N707 C708 1.340 . S
N707 C710 1.361 . S
C708 H694 0.930 1_455 S
C708 N707 1.340 . S
C708 C712 1.407 1_455 S
C709 C710 1.413 . S
C709 C711 1.402 1_455 S
C709 C738 1.427 . S
C710 C702 1.424 . S
C710 N707 1.361 . S
C710 C709 1.413 . S
C711 H700 0.936 . S
C711 C709 1.402 1_655 S
C711 C712 1.342 . S
C712 H691 0.929 . S
C712 C708 1.407 1_655 S
C712 C711 1.342 . S
H713 C706 0.930 . S
H714 C737 0.930 . S
H715 C738 0.929 . S
O716 Tb672 2.465 1_565 S
O716 C736 1.264 . S
O717 Tb672 2.387 . S
O717 C728 1.264 . S
O718 Tb683 2.349 . S
O718 C728 1.243 . S
O719 Tb672 2.428 1_565 S
O719 C736 1.256 . S
O720 Tb672 2.308 . S
O720 C735 1.266 1_455 S
O721 Tb683 2.393 1_655 S
O721 C735 1.248 . S
O722 Tb683 2.465 . S
O722 C747 1.264 . S
O723 Tb683 2.387 . S
O723 C739 1.264 . S
O724 Tb672 2.349 . S
O724 C739 1.243 . S
O725 Tb683 2.428 . S
O725 C747 1.256 . S
O726 Tb683 2.308 . S
O726 C746 1.266 . S
O727 Tb672 2.393 . S
O727 C746 1.248 . S
C728 O717 1.264 . S
C728 O718 1.243 . S
C729 C732 1.399 . S
C729 C734 1.383 . S
C729 C736 1.496 . S
C730 C731 1.399 . S
C730 C734 1.389 . S
C731 C730 1.399 . S
C731 C733 1.380 . S
C731 H748 0.929 . S
C732 C729 1.399 . S
C732 C733 1.392 . S
C732 H749 0.929 . S
C733 C731 1.380 . S
C733 C732 1.392 . S
C733 H750 0.929 . S
C734 C729 1.383 . S
C734 C730 1.389 . S
C734 H751 0.931 . S
C735 O720 1.266 1_655 S
C735 O721 1.248 . S
C736 Tb672 2.802 1_565 S
C736 O716 1.264 . S
C736 O719 1.256 . S
C736 C729 1.496 . S
C737 C704 1.448 . S
C737 H714 0.930 . S
C737 C738 1.328 . S
C738 C709 1.427 . S
C738 H715 0.929 . S
C738 C737 1.328 . S
C739 O723 1.264 . S
C739 O724 1.243 . S
C740 C743 1.399 1_455 S
C740 C744 1.383 . S
C740 C747 1.496 . S
C741 C742 1.399 . S
C741 C744 1.389 . S
C742 C741 1.399 . S
C742 C745 1.380 1_455 S
C742 H752 0.929 . S
C743 C740 1.399 1_655 S
C743 C745 1.392 . S
C743 H753 0.929 . S
C744 C740 1.383 . S
C744 C741 1.389 . S
C744 H754 0.931 . S
C745 C742 1.380 1_655 S
C745 C743 1.392 . S
C745 H755 0.929 . S
C746 O726 1.266 . S
C746 O727 1.248 . S
C747 Tb683 2.802 . S
C747 O722 1.264 . S
C747 O725 1.256 . S
C747 C740 1.496 . S
H748 C731 0.929 . S
H749 C732 0.929 . S
H750 C733 0.929 . S
H751 C734 0.931 . S
H752 C742 0.929 . S
H753 C743 0.929 . S
H754 C744 0.931 . S
H755 C745 0.929 . S
Tb756 N785 2.617 . S
Tb756 N791 2.572 . S
Tb756 O800 2.465 . S
Tb756 O801 2.387 . S
Tb756 O803 2.428 . S
Tb756 O804 2.308 . S
Tb756 O808 2.349 . S
Tb756 O811 2.393 . S
Tb756 C820 2.802 . S
C757 N758 1.379 . S
C757 C760 1.416 . S
C757 C764 1.424 . S
N758 C757 1.379 . S
N758 C761 1.334 . S
N758 Tb767 2.617 . S
C759 C761 1.390 . S
C759 C762 1.339 . S
C759 H779 0.930 . S
C760 C757 1.416 . S
C760 C762 1.416 . S
C760 C766 1.448 . S
C761 N758 1.334 . S
C761 C759 1.390 . S
C761 H772 0.930 . S
C762 C759 1.339 . S
C762 C760 1.416 . S
C762 H783 0.930 . S
C763 C764 1.413 . S
C763 C765 1.427 . S
C763 C769 1.416 . S
C764 C757 1.424 . S
C764 C763 1.413 . S
C764 N768 1.361 . S
C765 C763 1.427 . S
C765 C766 1.328 . S
C765 H780 0.929 . S
C766 C760 1.448 . S
C766 C765 1.328 . S
C766 H781 0.930 . S
Tb767 N758 2.617 . S
Tb767 N768 2.572 . S
Tb767 O802 2.349 . S
Tb767 O805 2.393 . S
Tb767 O806 2.465 . S
Tb767 O807 2.387 . S
Tb767 O809 2.428 . S
Tb767 O810 2.308 . S
Tb767 C831 2.802 . S
N768 C764 1.361 . S
N768 Tb767 2.572 . S
N768 C770 1.340 . S
C769 C763 1.416 . S
C769 C771 1.332 . S
C769 H777 0.931 . S
C770 N768 1.340 . S
C770 C771 1.407 . S
C770 H776 0.930 . S
C771 C769 1.332 . S
C771 C770 1.407 . S
C771 H773 0.929 . S
H772 C761 0.930 . S
H773 C771 0.929 . S
H774 C789 0.930 . S
H775 C796 0.929 . S
H776 C770 0.930 . S
H777 C769 0.931 . S
H778 C792 0.930 . S
H779 C759 0.930 . S
H780 C765 0.929 . S
H781 C766 0.930 . S
H782 C787 0.930 . S
H783 C762 0.930 . S
H784 C795 0.931 . S
N785 Tb756 2.617 . S
N785 C786 1.379 . S
N785 C789 1.334 . S
C786 N785 1.379 . S
C786 C788 1.416 . S
C786 C794 1.424 . S
C787 H782 0.930 . S
C787 C789 1.390 . S
C787 C790 1.339 . S
C788 C786 1.416 . S
C788 C790 1.416 . S
C788 C821 1.448 . S
C789 H774 0.930 . S
C789 N785 1.334 . S
C789 C787 1.390 . S
C790 C787 1.339 . S
C790 C788 1.416 . S
C790 H797 0.930 . S
N791 Tb756 2.572 . S
N791 C792 1.340 . S
N791 C794 1.361 . S
C792 H778 0.930 . S
C792 N791 1.340 . S
C792 C796 1.407 . S
C793 C794 1.413 . S
C793 C795 1.416 . S
C793 C822 1.427 . S
C794 C786 1.424 . S
C794 N791 1.361 . S
C794 C793 1.413 . S
C795 H784 0.931 . S
C795 C793 1.416 . S
C795 C796 1.332 . S
C796 H775 0.929 . S
C796 C792 1.407 . S
C796 C795 1.332 . S
H797 C790 0.930 . S
H798 C821 0.930 . S
H799 C822 0.929 . S
O800 Tb756 2.465 . S
O800 C820 1.264 . S
O801 Tb756 2.387 . S
O801 C812 1.264 . S
O802 Tb767 2.349 . S
O802 C812 1.243 . S
O803 Tb756 2.428 . S
O803 C820 1.256 . S
O804 Tb756 2.308 . S
O804 C819 1.266 . S
O805 Tb767 2.393 . S
O805 C819 1.248 . S
O806 Tb767 2.465 . S
O806 C831 1.264 . S
O807 Tb767 2.387 . S
O807 C823 1.264 . S
O808 Tb756 2.349 . S
O808 C823 1.243 . S
O809 Tb767 2.428 . S
O809 C831 1.256 . S
O810 Tb767 2.308 . S
O810 C830 1.266 . S
O811 Tb756 2.393 . S
O811 C830 1.248 . S
C812 O801 1.264 . S
C812 O802 1.243 . S
C813 C816 1.399 . S
C813 C818 1.383 . S
C813 C820 1.496 . S
C814 C815 1.399 . S
C814 C818 1.389 . S
C815 C814 1.399 . S
C815 C817 1.380 . S
C815 H832 0.929 . S
C816 C813 1.399 . S
C816 C817 1.392 . S
C816 H833 0.929 . S
C817 C815 1.380 . S
C817 C816 1.392 . S
C817 H834 0.929 . S
C818 C813 1.383 . S
C818 C814 1.389 . S
C818 H835 0.931 . S
C819 O804 1.266 . S
C819 O805 1.248 . S
C820 Tb756 2.802 . S
C820 O800 1.264 . S
C820 O803 1.256 . S
C820 C813 1.496 . S
C821 C788 1.448 . S
C821 H798 0.930 . S
C821 C822 1.328 . S
C822 C793 1.427 . S
C822 H799 0.929 . S
C822 C821 1.328 . S
C823 O807 1.264 . S
C823 O808 1.243 . S
C824 C827 1.399 . S
C824 C828 1.383 . S
C824 C831 1.496 . S
C825 C826 1.399 . S
C825 C828 1.389 . S
C826 C825 1.399 . S
C826 C829 1.380 . S
C826 H836 0.929 . S
C827 C824 1.399 . S
C827 C829 1.392 . S
C827 H837 0.929 . S
C828 C824 1.383 . S
C828 C825 1.389 . S
C828 H838 0.931 . S
C829 C826 1.380 . S
C829 C827 1.392 . S
C829 H839 0.929 . S
C830 O810 1.266 . S
C830 O811 1.248 . S
C831 Tb767 2.802 . S
C831 O806 1.264 . S
C831 O809 1.256 . S
C831 C824 1.496 . S
H832 C815 0.929 . S
H833 C816 0.929 . S
H834 C817 0.929 . S
H835 C818 0.931 . S
H836 C826 0.929 . S
H837 C827 0.929 . S
H838 C828 0.931 . S
H839 C829 0.929 . S
Tb840 N869 2.617 1_554 S
Tb840 N875 2.572 1_554 S
Tb840 O884 2.465 1_554 S
Tb840 O885 2.387 . S
Tb840 O887 2.428 1_554 S
Tb840 O888 2.308 . S
Tb840 O892 2.349 . S
Tb840 O895 2.393 . S
Tb840 C904 2.802 1_554 S
C841 N842 1.379 1_545 S
C841 C844 1.416 1_545 S
C841 C848 1.424 . S
N842 C841 1.379 1_565 S
N842 C845 1.334 . S
N842 Tb851 2.617 1_565 S
C843 C845 1.390 . S
C843 C846 1.339 . S
C843 H863 0.930 . S
C844 C841 1.416 1_565 S
C844 C846 1.416 . S
C844 C850 1.448 1_565 S
C845 N842 1.334 . S
C845 C843 1.390 . S
C845 H856 0.930 . S
C846 C843 1.339 . S
C846 C844 1.416 . S
C846 H867 0.930 . S
C847 C848 1.413 . S
C847 C849 1.427 . S
C847 C853 1.416 . S
C848 C841 1.424 . S
C848 C847 1.413 . S
C848 N852 1.361 . S
C849 C847 1.427 . S
C849 C850 1.328 . S
C849 H864 0.929 . S
C850 C844 1.448 1_545 S
C850 C849 1.328 . S
C850 H865 0.930 1_545 S
Tb851 N842 2.617 1_545 S
Tb851 N852 2.572 . S
Tb851 O886 2.349 . S
Tb851 O889 2.393 1_545 S
Tb851 O890 2.465 . S
Tb851 O891 2.387 . S
Tb851 O893 2.428 1_545 S
Tb851 O894 2.308 . S
Tb851 C915 2.802 . S
N852 C848 1.361 . S
N852 Tb851 2.572 . S
N852 C854 1.340 . S
C853 C847 1.416 . S
C853 C855 1.332 . S
C853 H861 0.931 . S
C854 N852 1.340 . S
C854 C855 1.407 . S
C854 H860 0.930 . S
C855 C853 1.332 . S
C855 C854 1.407 . S
C855 H857 0.929 . S
H856 C845 0.930 . S
H857 C855 0.929 . S
H858 C873 0.930 . S
H859 C880 0.929 . S
H860 C854 0.930 . S
H861 C853 0.931 . S
H862 C876 0.928 . S
H863 C843 0.930 . S
H864 C849 0.929 . S
H865 C850 0.930 1_565 S
H866 C871 0.930 . S
H867 C846 0.930 . S
H868 C879 0.931 1_565 S
N869 Tb840 2.617 1_556 S
N869 C870 1.379 . S
N869 C873 1.334 1_556 S
C870 N869 1.379 . S
C870 C872 1.416 . S
C870 C878 1.424 . S
C871 H866 0.930 . S
C871 C873 1.390 . S
C871 C874 1.339 1_554 S
C872 C870 1.416 . S
C872 C874 1.416 . S
C872 C905 1.448 . S
C873 H858 0.930 . S
C873 N869 1.334 1_554 S
C873 C871 1.390 . S
C874 C871 1.339 1_556 S
C874 C872 1.416 . S
C874 H881 0.930 . S
N875 Tb840 2.572 1_556 S
N875 C876 1.340 . S
N875 C878 1.361 . S
C876 H862 0.928 . S
C876 N875 1.340 . S
C876 C880 1.407 1_545 S
C877 C878 1.413 . S
C877 C879 1.416 . S
C877 C906 1.427 . S
C878 C870 1.424 . S
C878 N875 1.361 . S
C878 C877 1.413 . S
C879 H868 0.931 1_545 S
C879 C877 1.416 . S
C879 C880 1.332 1_545 S
C880 H859 0.929 . S
C880 C876 1.407 1_565 S
C880 C879 1.332 1_565 S
H881 C874 0.930 . S
H882 C905 0.930 . S
H883 C906 0.929 . S
O884 Tb840 2.465 1_556 S
O884 C904 1.264 . S
O885 Tb840 2.387 . S
O885 C896 1.264 . S
O886 Tb851 2.349 . S
O886 C896 1.243 . S
O887 Tb840 2.428 1_556 S
O887 C904 1.256 . S
O888 Tb840 2.308 . S
O888 C903 1.266 1_545 S
O889 Tb851 2.393 1_565 S
O889 C903 1.248 . S
O890 Tb851 2.465 . S
O890 C915 1.264 . S
O891 Tb851 2.387 . S
O891 C907 1.264 . S
O892 Tb840 2.349 . S
O892 C907 1.243 . S
O893 Tb851 2.428 1_565 S
O893 C915 1.256 1_565 S
O894 Tb851 2.308 . S
O894 C914 1.266 . S
O895 Tb840 2.393 . S
O895 C914 1.248 . S
C896 O885 1.264 . S
C896 O886 1.243 . S
C897 C900 1.399 . S
C897 C902 1.383 . S
C897 C904 1.496 . S
C898 C899 1.399 . S
C898 C902 1.389 . S
C899 C898 1.399 . S
C899 C901 1.380 . S
C899 H916 0.929 . S
C900 C897 1.399 . S
C900 C901 1.392 . S
C900 H917 0.929 . S
C901 C899 1.380 . S
C901 C900 1.392 . S
C901 H918 0.929 . S
C902 C897 1.383 . S
C902 C898 1.389 . S
C902 H919 0.931 . S
C903 O888 1.266 1_565 S
C903 O889 1.248 . S
C904 Tb840 2.802 1_556 S
C904 O884 1.264 . S
C904 O887 1.256 . S
C904 C897 1.496 . S
C905 C872 1.448 . S
C905 H882 0.930 . S
C905 C906 1.328 . S
C906 C877 1.427 . S
C906 H883 0.929 . S
C906 C905 1.328 . S
C907 O891 1.264 . S
C907 O892 1.243 . S
C908 C911 1.399 . S
C908 C912 1.383 1_565 S
C908 C915 1.496 1_565 S
C909 C910 1.399 1_545 S
C909 C912 1.389 . S
C910 C909 1.399 1_565 S
C910 C913 1.380 . S
C910 H920 0.929 . S
C911 C908 1.399 . S
C911 C913 1.392 . S
C911 H921 0.929 . S
C912 C908 1.383 1_545 S
C912 C909 1.389 . S
C912 H922 0.931 . S
C913 C910 1.380 . S
C913 C911 1.392 . S
C913 H923 0.929 . S
C914 O894 1.266 . S
C914 O895 1.248 . S
C915 Tb851 2.802 . S
C915 O890 1.264 . S
C915 O893 1.256 1_545 S
C915 C908 1.496 1_545 S
H916 C899 0.929 . S
H917 C900 0.929 . S
H918 C901 0.929 . S
H919 C902 0.931 . S
H920 C910 0.929 . S
H921 C911 0.929 . S
H922 C912 0.931 . S
H923 C913 0.929 . S
Tb924 N953 2.617 . S
Tb924 N959 2.572 . S
Tb924 O968 2.465 . S
Tb924 O969 2.387 . S
Tb924 O971 2.428 . S
Tb924 O972 2.308 . S
Tb924 O976 2.349 . S
Tb924 O979 2.393 . S
Tb924 C988 2.802 . S
C925 N926 1.379 . S
C925 C928 1.416 . S
C925 C932 1.424 . S
N926 C925 1.379 . S
N926 C929 1.334 . S
N926 Tb935 2.617 . S
C927 C929 1.390 . S
C927 C930 1.339 . S
C927 H947 0.930 . S
C928 C925 1.416 . S
C928 C930 1.416 . S
C928 C934 1.448 . S
C929 N926 1.334 . S
C929 C927 1.390 . S
C929 H940 0.930 . S
C930 C927 1.339 . S
C930 C928 1.416 . S
C930 H951 0.930 . S
C931 C932 1.413 . S
C931 C933 1.427 . S
C931 C937 1.416 . S
C932 C925 1.424 . S
C932 C931 1.413 . S
C932 N936 1.361 . S
C933 C931 1.427 . S
C933 C934 1.328 . S
C933 H948 0.929 . S
C934 C928 1.448 . S
C934 C933 1.328 . S
C934 H949 0.930 . S
Tb935 N926 2.617 . S
Tb935 N936 2.572 . S
Tb935 O970 2.349 . S
Tb935 O973 2.393 . S
Tb935 O974 2.465 . S
Tb935 O975 2.387 . S
Tb935 O977 2.428 . S
Tb935 O978 2.308 . S
Tb935 C999 2.802 . S
N936 C932 1.361 . S
N936 Tb935 2.572 . S
N936 C938 1.340 . S
C937 C931 1.416 . S
C937 C939 1.332 . S
C937 H945 0.931 . S
C938 N936 1.340 . S
C938 C939 1.407 . S
C938 H944 0.930 . S
C939 C937 1.332 . S
C939 C938 1.407 . S
C939 H941 0.929 . S
H940 C929 0.930 . S
H941 C939 0.929 . S
H942 C957 0.930 . S
H943 C964 0.929 . S
H944 C938 0.930 . S
H945 C937 0.931 . S
H946 C960 0.930 . S
H947 C927 0.930 . S
H948 C933 0.929 . S
H949 C934 0.930 . S
H950 C955 0.930 . S
H951 C930 0.930 . S
H952 C963 0.931 . S
N953 Tb924 2.617 . S
N953 C954 1.379 . S
N953 C957 1.334 . S
C954 N953 1.379 . S
C954 C956 1.416 . S
C954 C962 1.424 . S
C955 H950 0.930 . S
C955 C957 1.390 . S
C955 C958 1.339 . S
C956 C954 1.416 . S
C956 C958 1.416 . S
C956 C989 1.448 . S
C957 H942 0.930 . S
C957 N953 1.334 . S
C957 C955 1.390 . S
C958 C955 1.339 . S
C958 C956 1.416 . S
C958 H965 0.930 . S
N959 Tb924 2.572 . S
N959 C960 1.340 . S
N959 C962 1.361 . S
C960 H946 0.930 . S
C960 N959 1.340 . S
C960 C964 1.407 . S
C961 C962 1.413 . S
C961 C963 1.416 . S
C961 C990 1.427 . S
C962 C954 1.424 . S
C962 N959 1.361 . S
C962 C961 1.413 . S
C963 H952 0.931 . S
C963 C961 1.416 . S
C963 C964 1.332 . S
C964 H943 0.929 . S
C964 C960 1.407 . S
C964 C963 1.332 . S
H965 C958 0.930 . S
H966 C989 0.930 . S
H967 C990 0.929 . S
O968 Tb924 2.465 . S
O968 C988 1.264 . S
O969 Tb924 2.387 . S
O969 C980 1.264 . S
O970 Tb935 2.349 . S
O970 C980 1.243 . S
O971 Tb924 2.428 . S
O971 C988 1.256 . S
O972 Tb924 2.308 . S
O972 C987 1.266 . S
O973 Tb935 2.393 . S
O973 C987 1.248 . S
O974 Tb935 2.465 . S
O974 C999 1.264 . S
O975 Tb935 2.387 . S
O975 C991 1.264 . S
O976 Tb924 2.349 . S
O976 C991 1.243 . S
O977 Tb935 2.428 . S
O977 C999 1.256 . S
O978 Tb935 2.308 . S
O978 C998 1.266 . S
O979 Tb924 2.393 . S
O979 C998 1.248 . S
C980 O969 1.264 . S
C980 O970 1.243 . S
C981 C984 1.399 . S
C981 C986 1.383 . S
C981 C988 1.496 . S
C982 C983 1.399 . S
C982 C986 1.389 . S
C983 C982 1.399 . S
C983 C985 1.380 . S
C983 H1000 0.929 . S
C984 C981 1.399 . S
C984 C985 1.392 . S
C984 H1001 0.929 . S
C985 C983 1.380 . S
C985 C984 1.392 . S
C985 H1002 0.929 . S
C986 C981 1.383 . S
C986 C982 1.389 . S
C986 H1003 0.931 . S
C987 O972 1.266 . S
C987 O973 1.248 . S
C988 Tb924 2.802 . S
C988 O968 1.264 . S
C988 O971 1.256 . S
C988 C981 1.496 . S
C989 C956 1.448 . S
C989 H966 0.930 . S
C989 C990 1.328 . S
C990 C961 1.427 . S
C990 H967 0.929 . S
C990 C989 1.328 . S
C991 O975 1.264 . S
C991 O976 1.243 . S
C992 C995 1.399 . S
C992 C996 1.383 . S
C992 C999 1.496 . S
C993 C994 1.399 . S
C993 C996 1.389 . S
C994 C993 1.399 . S
C994 C997 1.380 . S
C994 H1004 0.929 . S
C995 C992 1.399 . S
C995 C997 1.392 . S
C995 H1005 0.929 . S
C996 C992 1.383 . S
C996 C993 1.389 . S
C996 H1006 0.931 . S
C997 C994 1.380 . S
C997 C995 1.392 . S
C997 H1007 0.929 . S
C998 O978 1.266 . S
C998 O979 1.248 . S
C999 Tb935 2.802 . S
C999 O974 1.264 . S
C999 O977 1.256 . S
C999 C992 1.496 . S
H1000 C983 0.929 . S
H1001 C984 0.929 . S
H1002 C985 0.929 . S
H1003 C986 0.931 . S
H1004 C994 0.929 . S
H1005 C995 0.929 . S
H1006 C996 0.931 . S
H1007 C997 0.929 . S
Tb1008 N1037 2.617 . S
Tb1008 N1043 2.572 . S
Tb1008 O1052 2.465 . S
Tb1008 O1053 2.387 . S
Tb1008 O1055 2.428 . S
Tb1008 O1056 2.308 . S
Tb1008 O1060 2.349 . S
Tb1008 O1063 2.393 . S
Tb1008 C1072 2.802 . S
C1009 N1010 1.379 . S
C1009 C1012 1.416 . S
C1009 C1016 1.424 . S
N1010 C1009 1.379 . S
N1010 C1013 1.334 . S
N1010 Tb1019 2.617 . S
C1011 C1013 1.390 . S
C1011 C1014 1.339 . S
C1011 H1031 0.930 . S
C1012 C1009 1.416 . S
C1012 C1014 1.416 . S
C1012 C1018 1.448 . S
C1013 N1010 1.334 . S
C1013 C1011 1.390 . S
C1013 H1024 0.930 . S
C1014 C1011 1.339 . S
C1014 C1012 1.416 . S
C1014 H1035 0.930 . S
C1015 C1016 1.413 . S
C1015 C1017 1.427 . S
C1015 C1021 1.416 . S
C1016 C1009 1.424 . S
C1016 C1015 1.413 . S
C1016 N1020 1.361 . S
C1017 C1015 1.427 . S
C1017 C1018 1.328 . S
C1017 H1032 0.929 . S
C1018 C1012 1.448 . S
C1018 C1017 1.328 . S
C1018 H1033 0.930 . S
Tb1019 N1010 2.617 . S
Tb1019 N1020 2.572 . S
Tb1019 O1054 2.349 . S
Tb1019 O1057 2.393 . S
Tb1019 O1058 2.465 . S
Tb1019 O1059 2.387 . S
Tb1019 O1061 2.428 . S
Tb1019 O1062 2.308 . S
Tb1019 C1083 2.802 . S
N1020 C1016 1.361 . S
N1020 Tb1019 2.572 . S
N1020 C1022 1.340 . S
C1021 C1015 1.416 . S
C1021 C1023 1.332 . S
C1021 H1029 0.931 . S
C1022 N1020 1.340 . S
C1022 C1023 1.407 . S
C1022 H1028 0.930 . S
C1023 C1021 1.332 . S
C1023 C1022 1.407 . S
C1023 H1025 0.929 . S
H1024 C1013 0.930 . S
H1025 C1023 0.929 . S
H1026 C1041 0.930 . S
H1027 C1048 0.929 . S
H1028 C1022 0.930 . S
H1029 C1021 0.931 . S
H1030 C1044 0.930 . S
H1031 C1011 0.930 . S
H1032 C1017 0.929 . S
H1033 C1018 0.930 . S
H1034 C1039 0.930 . S
H1035 C1014 0.930 . S
H1036 C1047 0.931 . S
N1037 Tb1008 2.617 . S
N1037 C1038 1.379 1_554 S
N1037 C1041 1.334 . S
C1038 N1037 1.379 1_556 S
C1038 C1040 1.416 . S
C1038 C1046 1.424 . S
C1039 H1034 0.930 . S
C1039 C1041 1.390 1_556 S
C1039 C1042 1.339 . S
C1040 C1038 1.416 . S
C1040 C1042 1.416 . S
C1040 C1073 1.448 . S
C1041 H1026 0.930 . S
C1041 N1037 1.334 . S
C1041 C1039 1.390 1_554 S
C1042 C1039 1.339 . S
C1042 C1040 1.416 . S
C1042 H1049 0.930 . S
N1043 Tb1008 2.572 . S
N1043 C1044 1.340 . S
N1043 C1046 1.361 1_554 S
C1044 H1030 0.930 . S
C1044 N1043 1.340 . S
C1044 C1048 1.407 1_554 S
C1045 C1046 1.413 . S
C1045 C1047 1.416 . S
C1045 C1074 1.427 . S
C1046 C1038 1.424 . S
C1046 N1043 1.361 1_556 S
C1046 C1045 1.413 . S
C1047 H1036 0.931 . S
C1047 C1045 1.416 . S
C1047 C1048 1.332 . S
C1048 H1027 0.929 . S
C1048 C1044 1.407 1_556 S
C1048 C1047 1.332 . S
H1049 C1042 0.930 . S
H1050 C1073 0.930 . S
H1051 C1074 0.929 . S
O1052 Tb1008 2.465 . S
O1052 C1072 1.264 . S
O1053 Tb1008 2.387 . S
O1053 C1064 1.264 1_554 S
O1054 Tb1019 2.349 . S
O1054 C1064 1.243 1_554 S
O1055 Tb1008 2.428 . S
O1055 C1072 1.256 . S
O1056 Tb1008 2.308 . S
O1056 C1071 1.266 . S
O1057 Tb1019 2.393 . S
O1057 C1071 1.248 . S
O1058 Tb1019 2.465 . S
O1058 C1083 1.264 . S
O1059 Tb1019 2.387 . S
O1059 C1075 1.264 . S
O1060 Tb1008 2.349 . S
O1060 C1075 1.243 . S
O1061 Tb1019 2.428 . S
O1061 C1083 1.256 . S
O1062 Tb1019 2.308 . S
O1062 C1082 1.266 . S
O1063 Tb1008 2.393 . S
O1063 C1082 1.248 . S
C1064 O1053 1.264 1_556 S
C1064 O1054 1.243 1_556 S
C1065 C1068 1.399 . S
C1065 C1070 1.383 . S
C1065 C1072 1.496 . S
C1066 C1067 1.399 . S
C1066 C1070 1.389 . S
C1067 C1066 1.399 . S
C1067 C1069 1.380 . S
C1067 H1084 0.929 . S
C1068 C1065 1.399 . S
C1068 C1069 1.392 . S
C1068 H1085 0.929 . S
C1069 C1067 1.380 . S
C1069 C1068 1.392 . S
C1069 H1086 0.929 . S
C1070 C1065 1.383 . S
C1070 C1066 1.389 . S
C1070 H1087 0.931 . S
C1071 O1056 1.266 . S
C1071 O1057 1.248 . S
C1072 Tb1008 2.802 . S
C1072 O1052 1.264 . S
C1072 O1055 1.256 . S
C1072 C1065 1.496 . S
C1073 C1040 1.448 . S
C1073 H1050 0.930 . S
C1073 C1074 1.328 . S
C1074 C1045 1.427 . S
C1074 H1051 0.929 . S
C1074 C1073 1.328 . S
C1075 O1059 1.264 . S
C1075 O1060 1.243 . S
C1076 C1079 1.399 . S
C1076 C1080 1.383 . S
C1076 C1083 1.496 . S
C1077 C1078 1.399 . S
C1077 C1080 1.389 1_556 S
C1078 C1077 1.399 . S
C1078 C1081 1.380 1_556 S
C1078 H1088 0.929 . S
C1079 C1076 1.399 . S
C1079 C1081 1.392 . S
C1079 H1089 0.929 . S
C1080 C1076 1.383 . S
C1080 C1077 1.389 1_554 S
C1080 H1090 0.931 . S
C1081 C1078 1.380 1_554 S
C1081 C1079 1.392 . S
C1081 H1091 0.929 1_554 S
C1082 O1062 1.266 . S
C1082 O1063 1.248 . S
C1083 Tb1019 2.802 . S
C1083 O1058 1.264 . S
C1083 O1061 1.256 . S
C1083 C1076 1.496 . S
H1084 C1067 0.929 . S
H1085 C1068 0.929 . S
H1086 C1069 0.929 . S
H1087 C1070 0.931 . S
H1088 C1078 0.929 . S
H1089 C1079 0.929 . S
H1090 C1080 0.931 . S
H1091 C1081 0.929 1_556 S
Tb1092 N1121 2.617 . S
Tb1092 N1127 2.572 . S
Tb1092 O1136 2.465 . S
Tb1092 O1137 2.387 . S
Tb1092 O1139 2.428 . S
Tb1092 O1140 2.308 . S
Tb1092 O1144 2.349 . S
Tb1092 O1147 2.393 . S
Tb1092 C1156 2.802 . S
C1093 N1094 1.379 . S
C1093 C1096 1.416 . S
C1093 C1100 1.424 . S
N1094 C1093 1.379 . S
N1094 C1097 1.334 . S
N1094 Tb1103 2.617 . S
C1095 C1097 1.390 . S
C1095 C1098 1.339 . S
C1095 H1115 0.930 . S
C1096 C1093 1.416 . S
C1096 C1098 1.416 . S
C1096 C1102 1.448 . S
C1097 N1094 1.334 . S
C1097 C1095 1.390 . S
C1097 H1108 0.930 . S
C1098 C1095 1.339 . S
C1098 C1096 1.416 . S
C1098 H1119 0.930 . S
C1099 C1100 1.413 . S
C1099 C1101 1.427 . S
C1099 C1105 1.416 . S
C1100 C1093 1.424 . S
C1100 C1099 1.413 . S
C1100 N1104 1.361 . S
C1101 C1099 1.427 . S
C1101 C1102 1.328 . S
C1101 H1116 0.929 . S
C1102 C1096 1.448 . S
C1102 C1101 1.328 . S
C1102 H1117 0.930 . S
Tb1103 N1094 2.617 . S
Tb1103 N1104 2.572 . S
Tb1103 O1138 2.349 . S
Tb1103 O1141 2.393 . S
Tb1103 O1142 2.465 . S
Tb1103 O1143 2.387 . S
Tb1103 O1145 2.428 . S
Tb1103 O1146 2.308 . S
Tb1103 C1167 2.802 . S
N1104 C1100 1.361 . S
N1104 Tb1103 2.572 . S
N1104 C1106 1.340 . S
C1105 C1099 1.416 . S
C1105 C1107 1.332 . S
C1105 H1113 0.931 . S
C1106 N1104 1.340 . S
C1106 C1107 1.407 . S
C1106 H1112 0.930 . S
C1107 C1105 1.332 . S
C1107 C1106 1.407 . S
C1107 H1109 0.929 . S
H1108 C1097 0.930 . S
H1109 C1107 0.929 . S
H1110 C1125 0.930 . S
H1111 C1132 0.929 . S
H1112 C1106 0.930 . S
H1113 C1105 0.931 . S
H1114 C1128 0.930 . S
H1115 C1095 0.930 . S
H1116 C1101 0.929 . S
H1117 C1102 0.930 . S
H1118 C1123 0.930 . S
H1119 C1098 0.930 . S
H1120 C1131 0.931 . S
N1121 Tb1092 2.617 . S
N1121 C1122 1.379 . S
N1121 C1125 1.334 . S
C1122 N1121 1.379 . S
C1122 C1124 1.416 . S
C1122 C1130 1.424 . S
C1123 H1118 0.930 . S
C1123 C1125 1.390 . S
C1123 C1126 1.339 . S
C1124 C1122 1.416 . S
C1124 C1126 1.416 . S
C1124 C1157 1.448 . S
C1125 H1110 0.930 . S
C1125 N1121 1.334 . S
C1125 C1123 1.390 . S
C1126 C1123 1.339 . S
C1126 C1124 1.416 . S
C1126 H1133 0.930 . S
N1127 Tb1092 2.572 . S
N1127 C1128 1.340 . S
N1127 C1130 1.361 . S
C1128 H1114 0.930 . S
C1128 N1127 1.340 . S
C1128 C1132 1.407 . S
C1129 C1130 1.413 . S
C1129 C1131 1.416 . S
C1129 C1158 1.427 . S
C1130 C1122 1.424 . S
C1130 N1127 1.361 . S
C1130 C1129 1.413 . S
C1131 H1120 0.931 . S
C1131 C1129 1.416 . S
C1131 C1132 1.332 . S
C1132 H1111 0.929 . S
C1132 C1128 1.407 . S
C1132 C1131 1.332 . S
H1133 C1126 0.930 . S
H1134 C1157 0.930 . S
H1135 C1158 0.929 . S
O1136 Tb1092 2.465 . S
O1136 C1156 1.264 . S
O1137 Tb1092 2.387 . S
O1137 C1148 1.264 . S
O1138 Tb1103 2.349 . S
O1138 C1148 1.243 . S
O1139 Tb1092 2.428 . S
O1139 C1156 1.256 . S
O1140 Tb1092 2.308 . S
O1140 C1155 1.266 . S
O1141 Tb1103 2.393 . S
O1141 C1155 1.248 . S
O1142 Tb1103 2.465 . S
O1142 C1167 1.264 . S
O1143 Tb1103 2.387 . S
O1143 C1159 1.264 . S
O1144 Tb1092 2.349 . S
O1144 C1159 1.243 . S
O1145 Tb1103 2.428 . S
O1145 C1167 1.256 . S
O1146 Tb1103 2.308 . S
O1146 C1166 1.266 . S
O1147 Tb1092 2.393 . S
O1147 C1166 1.248 . S
C1148 O1137 1.264 . S
C1148 O1138 1.243 . S
C1149 C1152 1.399 . S
C1149 C1154 1.383 . S
C1149 C1156 1.496 . S
C1150 C1151 1.399 . S
C1150 C1154 1.389 . S
C1151 C1150 1.399 . S
C1151 C1153 1.380 . S
C1151 H1168 0.929 . S
C1152 C1149 1.399 . S
C1152 C1153 1.392 . S
C1152 H1169 0.929 . S
C1153 C1151 1.380 . S
C1153 C1152 1.392 . S
C1153 H1170 0.929 . S
C1154 C1149 1.383 . S
C1154 C1150 1.389 . S
C1154 H1171 0.931 . S
C1155 O1140 1.266 . S
C1155 O1141 1.248 . S
C1156 Tb1092 2.802 . S
C1156 O1136 1.264 . S
C1156 O1139 1.256 . S
C1156 C1149 1.496 . S
C1157 C1124 1.448 . S
C1157 H1134 0.930 . S
C1157 C1158 1.328 . S
C1158 C1129 1.427 . S
C1158 H1135 0.929 . S
C1158 C1157 1.328 . S
C1159 O1143 1.264 . S
C1159 O1144 1.243 . S
C1160 C1163 1.399 . S
C1160 C1164 1.383 . S
C1160 C1167 1.496 . S
C1161 C1162 1.399 . S
C1161 C1164 1.389 . S
C1162 C1161 1.399 . S
C1162 C1165 1.380 . S
C1162 H1172 0.929 . S
C1163 C1160 1.399 . S
C1163 C1165 1.392 . S
C1163 H1173 0.929 . S
C1164 C1160 1.383 . S
C1164 C1161 1.389 . S
C1164 H1174 0.931 . S
C1165 C1162 1.380 . S
C1165 C1163 1.392 . S
C1165 H1175 0.929 . S
C1166 O1146 1.266 . S
C1166 O1147 1.248 . S
C1167 Tb1103 2.802 . S
C1167 O1142 1.264 . S
C1167 O1145 1.256 . S
C1167 C1160 1.496 . S
H1168 C1151 0.929 . S
H1169 C1152 0.929 . S
H1170 C1153 0.929 . S
H1171 C1154 0.931 . S
H1172 C1162 0.929 . S
H1173 C1163 0.929 . S
H1174 C1164 0.931 . S
H1175 C1165 0.929 . S
Tb1176 N1205 2.617 1_455 S
Tb1176 N1211 2.572 1_455 S
Tb1176 O1220 2.465 . S
Tb1176 O1221 2.387 1_455 S
Tb1176 O1223 2.428 . S
Tb1176 O1224 2.308 . S
Tb1176 O1228 2.349 . S
Tb1176 O1231 2.393 . S
Tb1176 C1240 2.802 . S
C1177 N1178 1.379 . S
C1177 C1180 1.416 . S
C1177 C1184 1.424 . S
N1178 C1177 1.379 . S
N1178 C1181 1.334 . S
N1178 Tb1187 2.617 . S
C1179 C1181 1.390 . S
C1179 C1182 1.339 . S
C1179 H1199 0.930 . S
C1180 C1177 1.416 . S
C1180 C1182 1.416 . S
C1180 C1186 1.448 . S
C1181 N1178 1.334 . S
C1181 C1179 1.390 . S
C1181 H1192 0.930 . S
C1182 C1179 1.339 . S
C1182 C1180 1.416 . S
C1182 H1203 0.930 . S
C1183 C1184 1.413 . S
C1183 C1185 1.427 . S
C1183 C1189 1.416 . S
C1184 C1177 1.424 . S
C1184 C1183 1.413 . S
C1184 N1188 1.361 . S
C1185 C1183 1.427 . S
C1185 C1186 1.328 . S
C1185 H1200 0.929 . S
C1186 C1180 1.448 . S
C1186 C1185 1.328 . S
C1186 H1201 0.930 . S
Tb1187 N1178 2.617 . S
Tb1187 N1188 2.572 . S
Tb1187 O1222 2.349 1_455 S
Tb1187 O1225 2.393 . S
Tb1187 O1226 2.465 . S
Tb1187 O1227 2.387 . S
Tb1187 O1229 2.428 . S
Tb1187 O1230 2.308 . S
Tb1187 C1251 2.802 . S
N1188 C1184 1.361 . S
N1188 Tb1187 2.572 . S
N1188 C1190 1.340 . S
C1189 C1183 1.416 . S
C1189 C1191 1.332 . S
C1189 H1197 0.931 . S
C1190 N1188 1.340 . S
C1190 C1191 1.407 . S
C1190 H1196 0.930 . S
C1191 C1189 1.332 . S
C1191 C1190 1.407 . S
C1191 H1193 0.929 . S
H1192 C1181 0.930 . S
H1193 C1191 0.929 . S
H1194 C1209 0.930 1_455 S
H1195 C1216 0.929 . S
H1196 C1190 0.930 . S
H1197 C1189 0.931 . S
H1198 C1212 0.955 . S
H1199 C1179 0.930 . S
H1200 C1185 0.929 . S
H1201 C1186 0.930 . S
H1202 C1207 0.930 . S
H1203 C1182 0.930 . S
H1204 C1215 0.931 . S
N1205 Tb1176 2.617 1_655 S
N1205 C1206 1.379 . S
N1205 C1209 1.334 . S
C1206 N1205 1.379 . S
C1206 C1208 1.416 . S
C1206 C1214 1.424 . S
C1207 H1202 0.930 . S
C1207 C1209 1.390 . S
C1207 C1210 1.339 . S
C1208 C1206 1.416 . S
C1208 C1210 1.416 . S
C1208 C1241 1.448 . S
C1209 H1194 0.930 1_655 S
C1209 N1205 1.334 . S
C1209 C1207 1.390 . S
C1210 C1207 1.339 . S
C1210 C1208 1.416 . S
C1210 H1217 0.930 . S
N1211 Tb1176 2.572 1_655 S
N1211 C1212 1.340 . S
N1211 C1214 1.361 . S
C1212 H1198 0.955 . S
C1212 N1211 1.340 . S
C1212 C1216 1.407 . S
C1213 C1214 1.413 . S
C1213 C1215 1.416 . S
C1213 C1242 1.427 . S
C1214 C1206 1.424 . S
C1214 N1211 1.361 . S
C1214 C1213 1.413 . S
C1215 H1204 0.931 . S
C1215 C1213 1.416 . S
C1215 C1216 1.332 . S
C1216 H1195 0.929 . S
C1216 C1212 1.407 . S
C1216 C1215 1.332 . S
H1217 C1210 0.930 . S
H1218 C1241 0.930 . S
H1219 C1242 0.929 . S
O1220 Tb1176 2.465 . S
O1220 C1240 1.264 . S
O1221 Tb1176 2.387 1_655 S
O1221 C1232 1.264 . S
O1222 Tb1187 2.349 1_655 S
O1222 C1232 1.243 . S
O1223 Tb1176 2.428 . S
O1223 C1240 1.256 . S
O1224 Tb1176 2.308 . S
O1224 C1239 1.266 . S
O1225 Tb1187 2.393 . S
O1225 C1239 1.248 . S
O1226 Tb1187 2.465 . S
O1226 C1251 1.264 . S
O1227 Tb1187 2.387 . S
O1227 C1243 1.264 . S
O1228 Tb1176 2.349 . S
O1228 C1243 1.243 . S
O1229 Tb1187 2.428 . S
O1229 C1251 1.256 . S
O1230 Tb1187 2.308 . S
O1230 C1250 1.266 . S
O1231 Tb1176 2.393 . S
O1231 C1250 1.248 . S
C1232 O1221 1.264 . S
C1232 O1222 1.243 . S
C1233 C1236 1.399 . S
C1233 C1238 1.383 . S
C1233 C1240 1.496 . S
C1234 C1235 1.399 . S
C1234 C1238 1.389 . S
C1235 C1234 1.399 . S
C1235 C1237 1.380 . S
C1235 H1252 0.929 . S
C1236 C1233 1.399 . S
C1236 C1237 1.392 . S
C1236 H1253 0.929 . S
C1237 C1235 1.380 . S
C1237 C1236 1.392 . S
C1237 H1254 0.929 . S
C1238 C1233 1.383 . S
C1238 C1234 1.389 . S
C1238 H1255 0.931 . S
C1239 O1224 1.266 . S
C1239 O1225 1.248 . S
C1240 Tb1176 2.802 . S
C1240 O1220 1.264 . S
C1240 O1223 1.256 . S
C1240 C1233 1.496 . S
C1241 C1208 1.448 . S
C1241 H1218 0.930 . S
C1241 C1242 1.328 . S
C1242 C1213 1.427 . S
C1242 H1219 0.929 . S
C1242 C1241 1.328 . S
C1243 O1227 1.264 . S
C1243 O1228 1.243 . S
C1244 C1247 1.399 . S
C1244 C1248 1.383 . S
C1244 C1251 1.496 1_655 S
C1245 C1246 1.399 . S
C1245 C1248 1.389 . S
C1246 C1245 1.399 . S
C1246 C1249 1.380 . S
C1246 H1256 0.929 . S
C1247 C1244 1.399 . S
C1247 C1249 1.392 . S
C1247 H1257 0.929 . S
C1248 C1244 1.383 . S
C1248 C1245 1.389 . S
C1248 H1258 0.931 . S
C1249 C1246 1.380 . S
C1249 C1247 1.392 . S
C1249 H1259 0.929 . S
C1250 O1230 1.266 . S
C1250 O1231 1.248 . S
C1251 Tb1187 2.802 . S
C1251 O1226 1.264 . S
C1251 O1229 1.256 . S
C1251 C1244 1.496 1_455 S
H1252 C1235 0.929 . S
H1253 C1236 0.929 . S
H1254 C1237 0.929 . S
H1255 C1238 0.931 . S
H1256 C1246 0.929 . S
H1257 C1247 0.929 . S
H1258 C1248 0.931 . S
H1259 C1249 0.929 . S
Tb1260 N1289 2.617 . S
Tb1260 N1295 2.572 . S
Tb1260 O1304 2.465 . S
Tb1260 O1305 2.387 . S
Tb1260 O1307 2.428 . S
Tb1260 O1308 2.308 . S
Tb1260 O1312 2.349 . S
Tb1260 O1315 2.393 . S
Tb1260 C1324 2.802 . S
C1261 N1262 1.379 . S
C1261 C1264 1.416 . S
C1261 C1268 1.424 . S
N1262 C1261 1.379 . S
N1262 C1265 1.334 . S
N1262 Tb1271 2.617 . S
C1263 C1265 1.390 . S
C1263 C1266 1.339 . S
C1263 H1283 0.930 . S
C1264 C1261 1.416 . S
C1264 C1266 1.416 . S
C1264 C1270 1.448 . S
C1265 N1262 1.334 . S
C1265 C1263 1.390 . S
C1265 H1276 0.930 . S
C1266 C1263 1.339 . S
C1266 C1264 1.416 . S
C1266 H1287 0.930 . S
C1267 C1268 1.413 . S
C1267 C1269 1.427 . S
C1267 C1273 1.416 . S
C1268 C1261 1.424 . S
C1268 C1267 1.413 . S
C1268 N1272 1.361 . S
C1269 C1267 1.427 . S
C1269 C1270 1.328 . S
C1269 H1284 0.929 . S
C1270 C1264 1.448 . S
C1270 C1269 1.328 . S
C1270 H1285 0.930 . S
Tb1271 N1262 2.617 . S
Tb1271 N1272 2.572 . S
Tb1271 O1306 2.349 . S
Tb1271 O1309 2.393 . S
Tb1271 O1310 2.465 . S
Tb1271 O1311 2.387 . S
Tb1271 O1313 2.428 . S
Tb1271 O1314 2.308 . S
Tb1271 C1335 2.802 . S
N1272 C1268 1.361 . S
N1272 Tb1271 2.572 . S
N1272 C1274 1.340 . S
C1273 C1267 1.416 . S
C1273 C1275 1.332 . S
C1273 H1281 0.931 . S
C1274 N1272 1.340 . S
C1274 C1275 1.407 . S
C1274 H1280 0.930 . S
C1275 C1273 1.332 . S
C1275 C1274 1.407 . S
C1275 H1277 0.929 . S
H1276 C1265 0.930 . S
H1277 C1275 0.929 . S
H1278 C1293 0.930 . S
H1279 C1300 0.929 . S
H1280 C1274 0.930 . S
H1281 C1273 0.931 . S
H1282 C1296 0.930 . S
H1283 C1263 0.930 . S
H1284 C1269 0.929 . S
H1285 C1270 0.930 . S
H1286 C1291 0.930 . S
H1287 C1266 0.930 . S
H1288 C1299 0.931 . S
N1289 Tb1260 2.617 . S
N1289 C1290 1.379 . S
N1289 C1293 1.334 . S
C1290 N1289 1.379 . S
C1290 C1292 1.416 . S
C1290 C1298 1.424 . S
C1291 H1286 0.930 . S
C1291 C1293 1.390 . S
C1291 C1294 1.339 . S
C1292 C1290 1.416 . S
C1292 C1294 1.416 . S
C1292 C1325 1.448 . S
C1293 H1278 0.930 . S
C1293 N1289 1.334 . S
C1293 C1291 1.390 . S
C1294 C1291 1.339 . S
C1294 C1292 1.416 . S
C1294 H1301 0.930 . S
N1295 Tb1260 2.572 . S
N1295 C1296 1.340 . S
N1295 C1298 1.361 . S
C1296 H1282 0.930 . S
C1296 N1295 1.340 . S
C1296 C1300 1.407 . S
C1297 C1298 1.413 . S
C1297 C1299 1.416 . S
C1297 C1326 1.427 . S
C1298 C1290 1.424 . S
C1298 N1295 1.361 . S
C1298 C1297 1.413 . S
C1299 H1288 0.931 . S
C1299 C1297 1.416 . S
C1299 C1300 1.332 . S
C1300 H1279 0.929 . S
C1300 C1296 1.407 . S
C1300 C1299 1.332 . S
H1301 C1294 0.930 . S
H1302 C1325 0.930 . S
H1303 C1326 0.929 . S
O1304 Tb1260 2.465 . S
O1304 C1324 1.264 . S
O1305 Tb1260 2.387 . S
O1305 C1316 1.264 . S
O1306 Tb1271 2.349 . S
O1306 C1316 1.243 . S
O1307 Tb1260 2.428 . S
O1307 C1324 1.256 . S
O1308 Tb1260 2.308 . S
O1308 C1323 1.266 . S
O1309 Tb1271 2.393 . S
O1309 C1323 1.248 . S
O1310 Tb1271 2.465 . S
O1310 C1335 1.264 . S
O1311 Tb1271 2.387 . S
O1311 C1327 1.264 . S
O1312 Tb1260 2.349 . S
O1312 C1327 1.243 . S
O1313 Tb1271 2.428 . S
O1313 C1335 1.256 . S
O1314 Tb1271 2.308 . S
O1314 C1334 1.266 . S
O1315 Tb1260 2.393 . S
O1315 C1334 1.248 . S
C1316 O1305 1.264 . S
C1316 O1306 1.243 . S
C1317 C1320 1.399 . S
C1317 C1322 1.383 . S
C1317 C1324 1.496 . S
C1318 C1319 1.399 . S
C1318 C1322 1.389 . S
C1319 C1318 1.399 . S
C1319 C1321 1.380 . S
C1319 H1336 0.929 . S
C1320 C1317 1.399 . S
C1320 C1321 1.392 . S
C1320 H1337 0.929 . S
C1321 C1319 1.380 . S
C1321 C1320 1.392 . S
C1321 H1338 0.929 . S
C1322 C1317 1.383 . S
C1322 C1318 1.389 . S
C1322 H1339 0.931 . S
C1323 O1308 1.266 . S
C1323 O1309 1.248 . S
C1324 Tb1260 2.802 . S
C1324 O1304 1.264 . S
C1324 O1307 1.256 . S
C1324 C1317 1.496 . S
C1325 C1292 1.448 . S
C1325 H1302 0.930 . S
C1325 C1326 1.328 . S
C1326 C1297 1.427 . S
C1326 H1303 0.929 . S
C1326 C1325 1.328 . S
C1327 O1311 1.264 . S
C1327 O1312 1.243 . S
C1328 C1331 1.399 . S
C1328 C1332 1.383 . S
C1328 C1335 1.496 . S
C1329 C1330 1.399 . S
C1329 C1332 1.389 . S
C1330 C1329 1.399 . S
C1330 C1333 1.380 . S
C1330 H1340 0.929 . S
C1331 C1328 1.399 . S
C1331 C1333 1.392 . S
C1331 H1341 0.929 . S
C1332 C1328 1.383 . S
C1332 C1329 1.389 . S
C1332 H1342 0.931 . S
C1333 C1330 1.380 . S
C1333 C1331 1.392 . S
C1333 H1343 0.929 . S
C1334 O1314 1.266 . S
C1334 O1315 1.248 . S
C1335 Tb1271 2.802 . S
C1335 O1310 1.264 . S
C1335 O1313 1.256 . S
C1335 C1328 1.496 . S
H1336 C1319 0.929 . S
H1337 C1320 0.929 . S
H1338 C1321 0.929 . S
H1339 C1322 0.931 . S
H1340 C1330 0.929 . S
H1341 C1331 0.929 . S
H1342 C1332 0.931 . S
H1343 C1333 0.929 . S
Tb1344 N1373 2.617 . S
Tb1344 N1379 2.572 . S
Tb1344 O1388 2.465 . S
Tb1344 O1389 2.387 . S
Tb1344 O1391 2.428 . S
Tb1344 O1392 2.308 . S
Tb1344 O1396 2.349 . S
Tb1344 O1399 2.393 . S
Tb1344 C1408 2.802 . S
C1345 N1346 1.379 . S
C1345 C1348 1.416 . S
C1345 C1352 1.424 . S
N1346 C1345 1.379 . S
N1346 C1349 1.334 . S
N1346 Tb1355 2.617 . S
C1347 C1349 1.390 . S
C1347 C1350 1.339 . S
C1347 H1367 0.930 . S
C1348 C1345 1.416 . S
C1348 C1350 1.416 . S
C1348 C1354 1.448 . S
C1349 N1346 1.334 . S
C1349 C1347 1.390 . S
C1349 H1360 0.930 . S
C1350 C1347 1.339 . S
C1350 C1348 1.416 . S
C1350 H1371 0.930 . S
C1351 C1352 1.413 . S
C1351 C1353 1.427 . S
C1351 C1357 1.416 . S
C1352 C1345 1.424 . S
C1352 C1351 1.413 . S
C1352 N1356 1.361 . S
C1353 C1351 1.427 . S
C1353 C1354 1.328 . S
C1353 H1368 0.929 . S
C1354 C1348 1.448 . S
C1354 C1353 1.328 . S
C1354 H1369 0.930 . S
Tb1355 N1346 2.617 . S
Tb1355 N1356 2.572 . S
Tb1355 O1390 2.349 . S
Tb1355 O1393 2.393 . S
Tb1355 O1394 2.465 . S
Tb1355 O1395 2.387 . S
Tb1355 O1397 2.428 . S
Tb1355 O1398 2.308 . S
Tb1355 C1419 2.802 . S
N1356 C1352 1.361 . S
N1356 Tb1355 2.572 . S
N1356 C1358 1.340 . S
C1357 C1351 1.416 . S
C1357 C1359 1.332 . S
C1357 H1365 0.931 . S
C1358 N1356 1.340 . S
C1358 C1359 1.407 . S
C1358 H1364 0.930 . S
C1359 C1357 1.332 . S
C1359 C1358 1.407 . S
C1359 H1361 0.929 . S
H1360 C1349 0.930 . S
H1361 C1359 0.929 . S
H1362 C1377 0.930 . S
H1363 C1384 0.929 . S
H1364 C1358 0.930 . S
H1365 C1357 0.931 . S
H1366 C1380 0.930 . S
H1367 C1347 0.930 . S
H1368 C1353 0.929 . S
H1369 C1354 0.930 . S
H1370 C1375 0.930 . S
H1371 C1350 0.930 . S
H1372 C1383 0.931 . S
N1373 Tb1344 2.617 . S
N1373 C1374 1.379 . S
N1373 C1377 1.334 . S
C1374 N1373 1.379 . S
C1374 C1376 1.416 . S
C1374 C1382 1.424 . S
C1375 H1370 0.930 . S
C1375 C1377 1.390 . S
C1375 C1378 1.339 . S
C1376 C1374 1.416 . S
C1376 C1378 1.416 . S
C1376 C1409 1.448 . S
C1377 H1362 0.930 . S
C1377 N1373 1.334 . S
C1377 C1375 1.390 . S
C1378 C1375 1.339 . S
C1378 C1376 1.416 . S
C1378 H1385 0.930 . S
N1379 Tb1344 2.572 . S
N1379 C1380 1.340 . S
N1379 C1382 1.361 . S
C1380 H1366 0.930 . S
C1380 N1379 1.340 . S
C1380 C1384 1.407 . S
C1381 C1382 1.413 . S
C1381 C1383 1.416 . S
C1381 C1410 1.427 . S
C1382 C1374 1.424 . S
C1382 N1379 1.361 . S
C1382 C1381 1.413 . S
C1383 H1372 0.931 . S
C1383 C1381 1.416 . S
C1383 C1384 1.332 . S
C1384 H1363 0.929 . S
C1384 C1380 1.407 . S
C1384 C1383 1.332 . S
H1385 C1378 0.930 . S
H1386 C1409 0.930 . S
H1387 C1410 0.929 . S
O1388 Tb1344 2.465 . S
O1388 C1408 1.264 . S
O1389 Tb1344 2.387 . S
O1389 C1400 1.264 . S
O1390 Tb1355 2.349 . S
O1390 C1400 1.243 . S
O1391 Tb1344 2.428 . S
O1391 C1408 1.256 . S
O1392 Tb1344 2.308 . S
O1392 C1407 1.266 . S
O1393 Tb1355 2.393 . S
O1393 C1407 1.248 . S
O1394 Tb1355 2.465 . S
O1394 C1419 1.264 . S
O1395 Tb1355 2.387 . S
O1395 C1411 1.264 . S
O1396 Tb1344 2.349 . S
O1396 C1411 1.243 . S
O1397 Tb1355 2.428 . S
O1397 C1419 1.256 . S
O1398 Tb1355 2.308 . S
O1398 C1418 1.266 . S
O1399 Tb1344 2.393 . S
O1399 C1418 1.248 . S
C1400 O1389 1.264 . S
C1400 O1390 1.243 . S
C1401 C1404 1.399 . S
C1401 C1406 1.383 . S
C1401 C1408 1.496 . S
C1402 C1403 1.399 . S
C1402 C1406 1.389 . S
C1403 C1402 1.399 . S
C1403 C1405 1.380 . S
C1403 H1420 0.929 . S
C1404 C1401 1.399 . S
C1404 C1405 1.392 . S
C1404 H1421 0.929 . S
C1405 C1403 1.380 . S
C1405 C1404 1.392 . S
C1405 H1422 0.929 . S
C1406 C1401 1.383 . S
C1406 C1402 1.389 . S
C1406 H1423 0.931 . S
C1407 O1392 1.266 . S
C1407 O1393 1.248 . S
C1408 Tb1344 2.802 . S
C1408 O1388 1.264 . S
C1408 O1391 1.256 . S
C1408 C1401 1.496 . S
C1409 C1376 1.448 . S
C1409 H1386 0.930 . S
C1409 C1410 1.328 . S
C1410 C1381 1.427 . S
C1410 H1387 0.929 . S
C1410 C1409 1.328 . S
C1411 O1395 1.264 . S
C1411 O1396 1.243 . S
C1412 C1415 1.399 . S
C1412 C1416 1.383 . S
C1412 C1419 1.496 . S
C1413 C1414 1.399 . S
C1413 C1416 1.389 . S
C1414 C1413 1.399 . S
C1414 C1417 1.380 . S
C1414 H1424 0.929 . S
C1415 C1412 1.399 . S
C1415 C1417 1.392 . S
C1415 H1425 0.929 . S
C1416 C1412 1.383 . S
C1416 C1413 1.389 . S
C1416 H1426 0.931 . S
C1417 C1414 1.380 . S
C1417 C1415 1.392 . S
C1417 H1427 0.929 . S
C1418 O1398 1.266 . S
C1418 O1399 1.248 . S
C1419 Tb1355 2.802 . S
C1419 O1394 1.264 . S
C1419 O1397 1.256 . S
C1419 C1412 1.496 . S
H1420 C1403 0.929 . S
H1421 C1404 0.929 . S
H1422 C1405 0.929 . S
H1423 C1406 0.931 . S
H1424 C1414 0.929 . S
H1425 C1415 0.929 . S
H1426 C1416 0.931 . S
H1427 C1417 0.929 . S
Tb1428 N1457 2.617 . S
Tb1428 N1463 2.572 . S
Tb1428 O1472 2.465 . S
Tb1428 O1473 2.387 . S
Tb1428 O1475 2.428 . S
Tb1428 O1476 2.308 . S
Tb1428 O1480 2.349 . S
Tb1428 O1483 2.393 . S
Tb1428 C1492 2.802 . S
C1429 N1430 1.379 . S
C1429 C1432 1.416 . S
C1429 C1436 1.424 . S
N1430 C1429 1.379 . S
N1430 C1433 1.334 . S
N1430 Tb1439 2.617 . S
C1431 C1433 1.390 . S
C1431 C1434 1.339 . S
C1431 H1451 0.930 . S
C1432 C1429 1.416 . S
C1432 C1434 1.416 . S
C1432 C1438 1.448 . S
C1433 N1430 1.334 . S
C1433 C1431 1.390 . S
C1433 H1444 0.930 . S
C1434 C1431 1.339 . S
C1434 C1432 1.416 . S
C1434 H1455 0.930 . S
C1435 C1436 1.413 . S
C1435 C1437 1.427 . S
C1435 C1441 1.416 . S
C1436 C1429 1.424 . S
C1436 C1435 1.413 . S
C1436 N1440 1.361 . S
C1437 C1435 1.427 . S
C1437 C1438 1.328 . S
C1437 H1452 0.929 . S
C1438 C1432 1.448 . S
C1438 C1437 1.328 . S
C1438 H1453 0.930 . S
Tb1439 N1430 2.617 . S
Tb1439 N1440 2.572 . S
Tb1439 O1474 2.349 . S
Tb1439 O1477 2.393 . S
Tb1439 O1478 2.465 . S
Tb1439 O1479 2.387 . S
Tb1439 O1481 2.428 . S
Tb1439 O1482 2.308 . S
Tb1439 C1503 2.802 . S
N1440 C1436 1.361 . S
N1440 Tb1439 2.572 . S
N1440 C1442 1.340 . S
C1441 C1435 1.416 . S
C1441 C1443 1.332 . S
C1441 H1449 0.931 . S
C1442 N1440 1.340 . S
C1442 C1443 1.407 . S
C1442 H1448 0.930 . S
C1443 C1441 1.332 . S
C1443 C1442 1.407 . S
C1443 H1445 0.929 . S
H1444 C1433 0.930 . S
H1445 C1443 0.929 . S
H1446 C1461 0.930 . S
H1447 C1468 0.929 . S
H1448 C1442 0.930 . S
H1449 C1441 0.931 . S
H1450 C1464 0.930 . S
H1451 C1431 0.930 . S
H1452 C1437 0.929 . S
H1453 C1438 0.930 . S
H1454 C1459 0.930 . S
H1455 C1434 0.930 . S
H1456 C1467 0.931 . S
N1457 Tb1428 2.617 . S
N1457 C1458 1.379 . S
N1457 C1461 1.334 . S
C1458 N1457 1.379 . S
C1458 C1460 1.416 . S
C1458 C1466 1.424 . S
C1459 H1454 0.930 . S
C1459 C1461 1.390 . S
C1459 C1462 1.339 . S
C1460 C1458 1.416 . S
C1460 C1462 1.416 . S
C1460 C1493 1.448 . S
C1461 H1446 0.930 . S
C1461 N1457 1.334 . S
C1461 C1459 1.390 . S
C1462 C1459 1.339 . S
C1462 C1460 1.416 . S
C1462 H1469 0.930 . S
N1463 Tb1428 2.572 . S
N1463 C1464 1.340 . S
N1463 C1466 1.361 . S
C1464 H1450 0.930 . S
C1464 N1463 1.340 . S
C1464 C1468 1.407 . S
C1465 C1466 1.413 . S
C1465 C1467 1.416 . S
C1465 C1494 1.427 . S
C1466 C1458 1.424 . S
C1466 N1463 1.361 . S
C1466 C1465 1.413 . S
C1467 H1456 0.931 . S
C1467 C1465 1.416 . S
C1467 C1468 1.332 . S
C1468 H1447 0.929 . S
C1468 C1464 1.407 . S
C1468 C1467 1.332 . S
H1469 C1462 0.930 . S
H1470 C1493 0.930 . S
H1471 C1494 0.929 . S
O1472 Tb1428 2.465 . S
O1472 C1492 1.264 . S
O1473 Tb1428 2.387 . S
O1473 C1484 1.264 . S
O1474 Tb1439 2.349 . S
O1474 C1484 1.243 . S
O1475 Tb1428 2.428 . S
O1475 C1492 1.256 . S
O1476 Tb1428 2.308 . S
O1476 C1491 1.266 . S
O1477 Tb1439 2.393 . S
O1477 C1491 1.248 . S
O1478 Tb1439 2.465 . S
O1478 C1503 1.264 . S
O1479 Tb1439 2.387 . S
O1479 C1495 1.264 . S
O1480 Tb1428 2.349 . S
O1480 C1495 1.243 . S
O1481 Tb1439 2.428 . S
O1481 C1503 1.256 . S
O1482 Tb1439 2.308 . S
O1482 C1502 1.266 . S
O1483 Tb1428 2.393 . S
O1483 C1502 1.248 . S
C1484 O1473 1.264 . S
C1484 O1474 1.243 . S
C1485 C1488 1.399 . S
C1485 C1490 1.383 . S
C1485 C1492 1.496 . S
C1486 C1487 1.399 . S
C1486 C1490 1.389 . S
C1487 C1486 1.399 . S
C1487 C1489 1.380 . S
C1487 H1504 0.929 . S
C1488 C1485 1.399 . S
C1488 C1489 1.392 . S
C1488 H1505 0.929 . S
C1489 C1487 1.380 . S
C1489 C1488 1.392 . S
C1489 H1506 0.929 . S
C1490 C1485 1.383 . S
C1490 C1486 1.389 . S
C1490 H1507 0.931 . S
C1491 O1476 1.266 . S
C1491 O1477 1.248 . S
C1492 Tb1428 2.802 . S
C1492 O1472 1.264 . S
C1492 O1475 1.256 . S
C1492 C1485 1.496 . S
C1493 C1460 1.448 . S
C1493 H1470 0.930 . S
C1493 C1494 1.328 . S
C1494 C1465 1.427 . S
C1494 H1471 0.929 . S
C1494 C1493 1.328 . S
C1495 O1479 1.264 . S
C1495 O1480 1.243 . S
C1496 C1499 1.399 . S
C1496 C1500 1.383 . S
C1496 C1503 1.496 . S
C1497 C1498 1.399 . S
C1497 C1500 1.389 . S
C1498 C1497 1.399 . S
C1498 C1501 1.380 . S
C1498 H1508 0.929 . S
C1499 C1496 1.399 . S
C1499 C1501 1.392 . S
C1499 H1509 0.929 . S
C1500 C1496 1.383 . S
C1500 C1497 1.389 . S
C1500 H1510 0.931 . S
C1501 C1498 1.380 . S
C1501 C1499 1.392 . S
C1501 H1511 0.929 . S
C1502 O1482 1.266 . S
C1502 O1483 1.248 . S
C1503 Tb1439 2.802 . S
C1503 O1478 1.264 . S
C1503 O1481 1.256 . S
C1503 C1496 1.496 . S
H1504 C1487 0.929 . S
H1505 C1488 0.929 . S
H1506 C1489 0.929 . S
H1507 C1490 0.931 . S
H1508 C1498 0.929 . S
H1509 C1499 0.929 . S
H1510 C1500 0.931 . S
H1511 C1501 0.929 . S
Tb1512 N1541 2.617 . S
Tb1512 N1547 2.572 . S
Tb1512 O1556 2.465 . S
Tb1512 O1557 2.387 . S
Tb1512 O1559 2.428 . S
Tb1512 O1560 2.308 . S
Tb1512 O1564 2.349 . S
Tb1512 O1567 2.393 . S
Tb1512 C1576 2.802 . S
C1513 N1514 1.379 . S
C1513 C1516 1.416 . S
C1513 C1520 1.424 . S
N1514 C1513 1.379 . S
N1514 C1517 1.334 . S
N1514 Tb1523 2.617 . S
C1515 C1517 1.390 . S
C1515 C1518 1.339 . S
C1515 H1535 0.930 . S
C1516 C1513 1.416 . S
C1516 C1518 1.416 . S
C1516 C1522 1.448 . S
C1517 N1514 1.334 . S
C1517 C1515 1.390 . S
C1517 H1528 0.930 . S
C1518 C1515 1.339 . S
C1518 C1516 1.416 . S
C1518 H1539 0.930 . S
C1519 C1520 1.413 . S
C1519 C1521 1.427 . S
C1519 C1525 1.416 . S
C1520 C1513 1.424 . S
C1520 C1519 1.413 . S
C1520 N1524 1.361 . S
C1521 C1519 1.427 . S
C1521 C1522 1.328 . S
C1521 H1536 0.929 . S
C1522 C1516 1.448 . S
C1522 C1521 1.328 . S
C1522 H1537 0.930 . S
Tb1523 N1514 2.617 . S
Tb1523 N1524 2.572 . S
Tb1523 O1558 2.349 . S
Tb1523 O1561 2.393 . S
Tb1523 O1562 2.465 . S
Tb1523 O1563 2.387 . S
Tb1523 O1565 2.428 . S
Tb1523 O1566 2.308 . S
Tb1523 C1587 2.802 . S
N1524 C1520 1.361 . S
N1524 Tb1523 2.572 . S
N1524 C1526 1.340 . S
C1525 C1519 1.416 . S
C1525 C1527 1.332 . S
C1525 H1533 0.931 . S
C1526 N1524 1.340 . S
C1526 C1527 1.407 . S
C1526 H1532 0.930 . S
C1527 C1525 1.332 . S
C1527 C1526 1.407 . S
C1527 H1529 0.929 . S
H1528 C1517 0.930 . S
H1529 C1527 0.929 . S
H1530 C1545 0.930 . S
H1531 C1552 0.929 . S
H1532 C1526 0.930 . S
H1533 C1525 0.931 . S
H1534 C1548 0.930 . S
H1535 C1515 0.930 . S
H1536 C1521 0.929 . S
H1537 C1522 0.930 . S
H1538 C1543 0.930 . S
H1539 C1518 0.930 . S
H1540 C1551 0.931 . S
N1541 Tb1512 2.617 . S
N1541 C1542 1.379 . S
N1541 C1545 1.334 . S
C1542 N1541 1.379 . S
C1542 C1544 1.416 . S
C1542 C1550 1.424 . S
C1543 H1538 0.930 . S
C1543 C1545 1.390 . S
C1543 C1546 1.339 . S
C1544 C1542 1.416 . S
C1544 C1546 1.416 . S
C1544 C1577 1.448 . S
C1545 H1530 0.930 . S
C1545 N1541 1.334 . S
C1545 C1543 1.390 . S
C1546 C1543 1.339 . S
C1546 C1544 1.416 . S
C1546 H1553 0.930 . S
N1547 Tb1512 2.572 . S
N1547 C1548 1.340 . S
N1547 C1550 1.361 . S
C1548 H1534 0.930 . S
C1548 N1547 1.340 . S
C1548 C1552 1.407 . S
C1549 C1550 1.413 . S
C1549 C1551 1.416 . S
C1549 C1578 1.427 . S
C1550 C1542 1.424 . S
C1550 N1547 1.361 . S
C1550 C1549 1.413 . S
C1551 H1540 0.931 . S
C1551 C1549 1.416 . S
C1551 C1552 1.332 . S
C1552 H1531 0.929 . S
C1552 C1548 1.407 . S
C1552 C1551 1.332 . S
H1553 C1546 0.930 . S
H1554 C1577 0.930 . S
H1555 C1578 0.929 . S
O1556 Tb1512 2.465 . S
O1556 C1576 1.264 . S
O1557 Tb1512 2.387 . S
O1557 C1568 1.264 . S
O1558 Tb1523 2.349 . S
O1558 C1568 1.243 . S
O1559 Tb1512 2.428 . S
O1559 C1576 1.256 . S
O1560 Tb1512 2.308 . S
O1560 C1575 1.266 . S
O1561 Tb1523 2.393 . S
O1561 C1575 1.248 . S
O1562 Tb1523 2.465 . S
O1562 C1587 1.264 . S
O1563 Tb1523 2.387 . S
O1563 C1579 1.264 . S
O1564 Tb1512 2.349 . S
O1564 C1579 1.243 . S
O1565 Tb1523 2.428 . S
O1565 C1587 1.256 . S
O1566 Tb1523 2.308 . S
O1566 C1586 1.266 . S
O1567 Tb1512 2.393 . S
O1567 C1586 1.248 . S
C1568 O1557 1.264 . S
C1568 O1558 1.243 . S
C1569 C1572 1.399 . S
C1569 C1574 1.383 . S
C1569 C1576 1.496 . S
C1570 C1571 1.399 . S
C1570 C1574 1.389 . S
C1571 C1570 1.399 . S
C1571 C1573 1.380 . S
C1571 H1588 0.929 . S
C1572 C1569 1.399 . S
C1572 C1573 1.392 . S
C1572 H1589 0.929 . S
C1573 C1571 1.380 . S
C1573 C1572 1.392 . S
C1573 H1590 0.929 . S
C1574 C1569 1.383 . S
C1574 C1570 1.389 . S
C1574 H1591 0.931 . S
C1575 O1560 1.266 . S
C1575 O1561 1.248 . S
C1576 Tb1512 2.802 . S
C1576 O1556 1.264 . S
C1576 O1559 1.256 . S
C1576 C1569 1.496 . S
C1577 C1544 1.448 . S
C1577 H1554 0.930 . S
C1577 C1578 1.328 . S
C1578 C1549 1.427 . S
C1578 H1555 0.929 . S
C1578 C1577 1.328 . S
C1579 O1563 1.264 . S
C1579 O1564 1.243 . S
C1580 C1583 1.399 . S
C1580 C1584 1.383 . S
C1580 C1587 1.496 . S
C1581 C1582 1.399 . S
C1581 C1584 1.389 . S
C1582 C1581 1.399 . S
C1582 C1585 1.380 . S
C1582 H1592 0.929 . S
C1583 C1580 1.399 . S
C1583 C1585 1.392 . S
C1583 H1593 0.929 . S
C1584 C1580 1.383 . S
C1584 C1581 1.389 . S
C1584 H1594 0.931 . S
C1585 C1582 1.380 . S
C1585 C1583 1.392 . S
C1585 H1595 0.929 . S
C1586 O1566 1.266 . S
C1586 O1567 1.248 . S
C1587 Tb1523 2.802 . S
C1587 O1562 1.264 . S
C1587 O1565 1.256 . S
C1587 C1580 1.496 . S
H1588 C1571 0.929 . S
H1589 C1572 0.929 . S
H1590 C1573 0.929 . S
H1591 C1574 0.931 . S
H1592 C1582 0.929 . S
H1593 C1583 0.929 . S
H1594 C1584 0.931 . S
H1595 C1585 0.929 . S
Tb1596 N1625 2.614 1_455 S
Tb1596 N1631 2.564 1_455 S
Tb1596 O1640 2.454 1_455 S
Tb1596 O1641 2.394 . S
Tb1596 O1643 2.418 1_455 S
Tb1596 O1644 2.310 . S
Tb1596 O1648 2.352 . S
Tb1596 O1651 2.401 . S
Tb1596 C1660 2.791 1_455 S
C1597 N1598 1.379 . S
C1597 C1600 1.416 . S
C1597 C1604 1.424 . S
N1598 C1597 1.379 . S
N1598 C1601 1.334 1_554 S
N1598 Tb1607 2.617 . S
C1599 C1601 1.390 . S
C1599 C1602 1.339 . S
C1599 H1619 0.930 . S
C1600 C1597 1.416 . S
C1600 C1602 1.416 1_554 S
C1600 C1606 1.448 . S
C1601 N1598 1.334 1_556 S
C1601 C1599 1.390 . S
C1601 H1612 0.930 . S
C1602 C1599 1.339 . S
C1602 C1600 1.416 1_556 S
C1602 H1623 0.930 . S
C1603 C1604 1.413 . S
C1603 C1605 1.427 . S
C1603 C1609 1.416 . S
C1604 C1597 1.424 . S
C1604 C1603 1.413 . S
C1604 N1608 1.361 . S
C1605 C1603 1.427 . S
C1605 C1606 1.328 . S
C1605 H1620 0.929 . S
C1606 C1600 1.448 . S
C1606 C1605 1.328 . S
C1606 H1621 0.930 . S
Tb1607 N1598 2.617 . S
Tb1607 N1608 2.572 . S
Tb1607 O1642 2.349 . S
Tb1607 O1645 2.393 . S
Tb1607 O1646 2.465 . S
Tb1607 O1647 2.387 . S
Tb1607 O1649 2.428 . S
Tb1607 O1650 2.308 . S
Tb1607 C1671 2.802 . S
N1608 C1604 1.361 . S
N1608 Tb1607 2.572 . S
N1608 C1610 1.340 . S
C1609 C1603 1.416 . S
C1609 C1611 1.332 . S
C1609 H1617 0.931 . S
C1610 N1608 1.340 . S
C1610 C1611 1.407 . S
C1610 H1616 0.930 . S
C1611 C1609 1.332 . S
C1611 C1610 1.407 . S
C1611 H1613 0.929 . S
H1612 C1601 0.930 . S
H1613 C1611 0.929 . S
H1614 C1629 0.930 1_455 S
H1615 C1636 0.929 . S
H1616 C1610 0.930 . S
H1617 C1609 0.931 . S
H1618 C1632 0.930 . S
H1619 C1599 0.930 . S
H1620 C1605 0.929 . S
H1621 C1606 0.930 . S
H1622 C1627 0.942 . S
H1623 C1602 0.930 . S
H1624 C1635 0.931 . S
N1625 Tb1596 2.614 1_655 S
N1625 C1626 1.379 . S
N1625 C1629 1.334 . S
C1626 N1625 1.379 . S
C1626 C1628 1.416 . S
C1626 C1634 1.424 . S
C1627 H1622 0.942 . S
C1627 C1629 1.390 . S
C1627 C1630 1.339 . S
C1628 C1626 1.416 . S
C1628 C1630 1.416 . S
C1628 C1661 1.448 . S
C1629 H1614 0.930 1_655 S
C1629 N1625 1.334 . S
C1629 C1627 1.390 . S
C1630 C1627 1.339 . S
C1630 C1628 1.416 . S
C1630 H1637 0.930 . S
N1631 Tb1596 2.564 1_655 S
N1631 C1632 1.340 . S
N1631 C1634 1.361 . S
C1632 H1618 0.930 . S
C1632 N1631 1.340 . S
C1632 C1636 1.407 . S
C1633 C1634 1.413 . S
C1633 C1635 1.416 . S
C1633 C1662 1.427 . S
C1634 C1626 1.424 . S
C1634 N1631 1.361 . S
C1634 C1633 1.413 . S
C1635 H1624 0.931 . S
C1635 C1633 1.416 . S
C1635 C1636 1.332 . S
C1636 H1615 0.929 . S
C1636 C1632 1.407 . S
C1636 C1635 1.332 . S
H1637 C1630 0.930 . S
H1638 C1661 0.930 . S
H1639 C1662 0.929 . S
O1640 Tb1596 2.454 1_655 S
O1640 C1660 1.264 . S
O1641 Tb1596 2.394 . S
O1641 C1652 1.264 . S
O1642 Tb1607 2.349 . S
O1642 C1652 1.243 . S
O1643 Tb1596 2.418 1_655 S
O1643 C1660 1.256 . S
O1644 Tb1596 2.310 . S
O1644 C1659 1.266 . S
O1645 Tb1607 2.393 . S
O1645 C1659 1.248 . S
O1646 Tb1607 2.465 . S
O1646 C1671 1.264 . S
O1647 Tb1607 2.387 . S
O1647 C1663 1.264 . S
O1648 Tb1596 2.352 . S
O1648 C1663 1.243 . S
O1649 Tb1607 2.428 . S
O1649 C1671 1.256 . S
O1650 Tb1607 2.308 . S
O1650 C1670 1.266 . S
O1651 Tb1596 2.401 . S
O1651 C1670 1.248 . S
C1652 O1641 1.264 . S
C1652 O1642 1.243 . S
C1653 C1656 1.399 . S
C1653 C1658 1.383 . S
C1653 C1660 1.496 . S
C1654 C1655 1.399 . S
C1654 C1658 1.389 . S
C1655 C1654 1.399 . S
C1655 C1657 1.380 . S
C1655 H1672 0.929 . S
C1656 C1653 1.399 . S
C1656 C1657 1.392 . S
C1656 H1673 0.929 . S
C1657 C1655 1.380 . S
C1657 C1656 1.392 . S
C1657 H1674 0.929 . S
C1658 C1653 1.383 . S
C1658 C1654 1.389 . S
C1658 H1675 0.931 . S
C1659 O1644 1.266 . S
C1659 O1645 1.248 . S
C1660 Tb1596 2.791 1_655 S
C1660 O1640 1.264 . S
C1660 O1643 1.256 . S
C1660 C1653 1.496 . S
C1661 C1628 1.448 . S
C1661 H1638 0.930 . S
C1661 C1662 1.328 . S
C1662 C1633 1.427 . S
C1662 H1639 0.929 . S
C1662 C1661 1.328 . S
C1663 O1647 1.264 . S
C1663 O1648 1.243 . S
C1664 C1667 1.399 . S
C1664 C1668 1.383 . S
C1664 C1671 1.496 . S
C1665 C1666 1.399 . S
C1665 C1668 1.389 . S
C1666 C1665 1.399 . S
C1666 C1669 1.380 . S
C1666 H1676 0.929 . S
C1667 C1664 1.399 . S
C1667 C1669 1.392 . S
C1667 H1677 0.929 1_554 S
C1668 C1664 1.383 . S
C1668 C1665 1.389 . S
C1668 H1678 0.931 . S
C1669 C1666 1.380 . S
C1669 C1667 1.392 . S
C1669 H1679 0.929 1_554 S
C1670 O1650 1.266 . S
C1670 O1651 1.248 . S
C1671 Tb1607 2.802 . S
C1671 O1646 1.264 . S
C1671 O1649 1.256 . S
C1671 C1664 1.496 . S
H1672 C1655 0.929 . S
H1673 C1656 0.929 . S
H1674 C1657 0.929 . S
H1675 C1658 0.931 . S
H1676 C1666 0.929 . S
H1677 C1667 0.929 1_556 S
H1678 C1668 0.931 . S
H1679 C1669 0.929 1_556 S
C1680 C1681 1.391 . S
C1680 C1682 1.394 . S
C1680 H1696 0.931 . S
C1681 C1680 1.391 . S
C1681 C1685 1.376 1_655 S
C1682 C1680 1.394 . S
C1682 C1683 1.369 1_655 S
C1682 C1686 1.531 . S
C1683 C1682 1.369 1_455 S
C1683 C1684 1.410 . S
C1683 C1691 1.503 1_556 S
C1684 C1683 1.410 . S
C1684 C1685 1.392 . S
C1684 C1687 1.511 1_556 S
C1685 C1681 1.376 1_455 S
C1685 C1684 1.392 . S
C1685 H1697 0.929 . S
C1686 C1682 1.531 . S
C1686 H1698 0.960 . S
C1686 H1699 0.962 . S
C1686 H1700 0.960 . S
C1687 C1684 1.511 1_554 S
C1687 H1701 0.961 . S
C1687 H1702 0.961 . S
C1687 H1703 0.961 1_554 S
C1688 C1689 1.370 . S
C1688 C1690 1.363 . S
C1688 H1704 0.931 . S
C1689 C1688 1.370 . S
C1689 C1693 1.408 . S
C1690 C1688 1.363 . S
C1690 C1691 1.370 . S
C1690 C1694 1.524 . S
C1691 C1683 1.503 1_554 S
C1691 C1690 1.370 . S
C1691 C1692 1.403 1_554 S
C1692 C1691 1.403 1_556 S
C1692 C1693 1.404 1_556 S
C1692 C1695 1.539 . S
C1693 C1689 1.408 . S
C1693 C1692 1.404 1_554 S
C1693 H1705 0.930 1_554 S
C1694 C1690 1.524 . S
C1694 H1706 0.956 1_455 S
C1694 H1707 0.961 . S
C1694 H1708 0.961 . S
C1695 C1692 1.539 . S
C1695 H1709 0.958 . S
C1695 H1710 0.961 . S
C1695 H1711 0.960 . S
H1696 C1680 0.931 . S
H1697 C1685 0.929 . S
H1698 C1686 0.960 . S
H1699 C1686 0.962 . S
H1700 C1686 0.960 . S
H1701 C1687 0.961 . S
H1702 C1687 0.961 . S
H1703 C1687 0.961 1_556 S
H1704 C1688 0.931 . S
H1705 C1693 0.930 1_556 S
H1706 C1694 0.956 1_655 S
H1707 C1694 0.961 . S
H1708 C1694 0.961 . S
H1709 C1695 0.958 . S
H1710 C1695 0.961 . S
H1711 C1695 0.960 . S
C1712 C1713 1.391 . S
C1712 C1714 1.394 . S
C1712 H1728 0.931 . S
C1713 C1712 1.391 . S
C1713 C1717 1.376 . S
C1714 C1712 1.394 . S
C1714 C1715 1.369 . S
C1714 C1718 1.531 . S
C1715 C1714 1.369 . S
C1715 C1716 1.410 . S
C1715 C1723 1.503 . S
C1716 C1715 1.410 . S
C1716 C1717 1.392 . S
C1716 C1719 1.511 . S
C1717 C1713 1.376 . S
C1717 C1716 1.392 . S
C1717 H1729 0.929 . S
C1718 C1714 1.531 . S
C1718 H1730 0.960 . S
C1718 H1731 0.962 . S
C1718 H1732 0.960 . S
C1719 C1716 1.511 . S
C1719 H1733 0.961 . S
C1719 H1734 0.961 . S
C1719 H1735 0.961 . S
C1720 C1721 1.370 . S
C1720 C1722 1.363 . S
C1720 H1736 0.931 . S
C1721 C1720 1.370 . S
C1721 C1725 1.408 . S
C1722 C1720 1.363 . S
C1722 C1723 1.370 . S
C1722 C1726 1.524 . S
C1723 C1715 1.503 . S
C1723 C1722 1.370 . S
C1723 C1724 1.403 . S
C1724 C1723 1.403 . S
C1724 C1725 1.404 . S
C1724 C1727 1.539 . S
C1725 C1721 1.408 . S
C1725 C1724 1.404 . S
C1725 H1737 0.930 . S
C1726 C1722 1.524 . S
C1726 H1738 0.956 . S
C1726 H1739 0.961 . S
C1726 H1740 0.961 . S
C1727 C1724 1.539 . S
C1727 H1741 0.958 . S
C1727 H1742 0.961 . S
C1727 H1743 0.960 . S
H1728 C1712 0.931 . S
H1729 C1717 0.929 . S
H1730 C1718 0.960 . S
H1731 C1718 0.962 . S
H1732 C1718 0.960 . S
H1733 C1719 0.961 . S
H1734 C1719 0.961 . S
H1735 C1719 0.961 . S
H1736 C1720 0.931 . S
H1737 C1725 0.930 . S
H1738 C1726 0.956 . S
H1739 C1726 0.961 . S
H1740 C1726 0.961 . S
H1741 C1727 0.958 . S
H1742 C1727 0.961 . S
H1743 C1727 0.960 . S
C1744 C1745 1.391 . S
C1744 C1746 1.394 . S
C1744 H1760 0.931 . S
C1745 C1744 1.391 . S
C1745 C1749 1.376 . S
C1746 C1744 1.394 . S
C1746 C1747 1.369 . S
C1746 C1750 1.531 . S
C1747 C1746 1.369 . S
C1747 C1748 1.410 . S
C1747 C1755 1.503 . S
C1748 C1747 1.410 . S
C1748 C1749 1.392 . S
C1748 C1751 1.511 . S
C1749 C1745 1.376 . S
C1749 C1748 1.392 . S
C1749 H1761 0.929 . S
C1750 C1746 1.531 . S
C1750 H1762 0.960 . S
C1750 H1763 0.962 . S
C1750 H1764 0.960 . S
C1751 C1748 1.511 . S
C1751 H1765 0.961 . S
C1751 H1766 0.961 . S
C1751 H1767 0.961 . S
C1752 C1753 1.370 . S
C1752 C1754 1.363 . S
C1752 H1768 0.931 . S
C1753 C1752 1.370 . S
C1753 C1757 1.408 . S
C1754 C1752 1.363 . S
C1754 C1755 1.370 . S
C1754 C1758 1.524 . S
C1755 C1747 1.503 . S
C1755 C1754 1.370 . S
C1755 C1756 1.403 . S
C1756 C1755 1.403 . S
C1756 C1757 1.404 . S
C1756 C1759 1.539 . S
C1757 C1753 1.408 . S
C1757 C1756 1.404 . S
C1757 H1769 0.930 . S
C1758 C1754 1.524 . S
C1758 H1770 0.956 . S
C1758 H1771 0.961 . S
C1758 H1772 0.961 . S
C1759 C1756 1.539 . S
C1759 H1773 0.958 . S
C1759 H1774 0.961 . S
C1759 H1775 0.960 . S
H1760 C1744 0.931 . S
H1761 C1749 0.929 . S
H1762 C1750 0.960 . S
H1763 C1750 0.962 . S
H1764 C1750 0.960 . S
H1765 C1751 0.961 . S
H1766 C1751 0.961 . S
H1767 C1751 0.961 . S
H1768 C1752 0.931 . S
H1769 C1757 0.930 . S
H1770 C1758 0.956 . S
H1771 C1758 0.961 . S
H1772 C1758 0.961 . S
H1773 C1759 0.958 . S
H1774 C1759 0.961 . S
H1775 C1759 0.960 . S
C1776 C1777 1.391 . S
C1776 C1778 1.394 . S
C1776 H1792 0.931 . S
C1777 C1776 1.391 . S
C1777 C1781 1.376 . S
C1778 C1776 1.394 . S
C1778 C1779 1.369 . S
C1778 C1782 1.531 . S
C1779 C1778 1.369 . S
C1779 C1780 1.410 . S
C1779 C1787 1.503 . S
C1780 C1779 1.410 . S
C1780 C1781 1.392 . S
C1780 C1783 1.511 . S
C1781 C1777 1.376 . S
C1781 C1780 1.392 . S
C1781 H1793 0.929 . S
C1782 C1778 1.531 . S
C1782 H1794 0.960 . S
C1782 H1795 0.962 . S
C1782 H1796 0.960 . S
C1783 C1780 1.511 . S
C1783 H1797 0.961 . S
C1783 H1798 0.961 . S
C1783 H1799 0.961 . S
C1784 C1785 1.370 . S
C1784 C1786 1.363 . S
C1784 H1800 0.931 . S
C1785 C1784 1.370 . S
C1785 C1789 1.408 . S
C1786 C1784 1.363 . S
C1786 C1787 1.370 . S
C1786 C1790 1.524 . S
C1787 C1779 1.503 . S
C1787 C1786 1.370 . S
C1787 C1788 1.403 . S
C1788 C1787 1.403 . S
C1788 C1789 1.404 . S
C1788 C1791 1.539 . S
C1789 C1785 1.408 . S
C1789 C1788 1.404 . S
C1789 H1801 0.930 . S
C1790 C1786 1.524 . S
C1790 H1802 0.956 . S
C1790 H1803 0.961 . S
C1790 H1804 0.961 . S
C1791 C1788 1.539 . S
C1791 H1805 0.958 . S
C1791 H1806 0.961 . S
C1791 H1807 0.960 . S
H1792 C1776 0.931 . S
H1793 C1781 0.929 . S
H1794 C1782 0.960 . S
H1795 C1782 0.962 . S
H1796 C1782 0.960 . S
H1797 C1783 0.961 . S
H1798 C1783 0.961 . S
H1799 C1783 0.961 . S
H1800 C1784 0.931 . S
H1801 C1789 0.930 . S
H1802 C1790 0.956 . S
H1803 C1790 0.961 . S
H1804 C1790 0.961 . S
H1805 C1791 0.958 . S
H1806 C1791 0.961 . S
H1807 C1791 0.960 . S
C1808 C1809 1.391 . S
C1808 C1810 1.394 . S
C1808 H1824 0.931 . S
C1809 C1808 1.391 . S
C1809 C1813 1.376 . S
C1810 C1808 1.394 . S
C1810 C1811 1.369 . S
C1810 C1814 1.531 . S
C1811 C1810 1.369 . S
C1811 C1812 1.410 . S
C1811 C1819 1.503 . S
C1812 C1811 1.410 . S
C1812 C1813 1.392 . S
C1812 C1815 1.511 . S
C1813 C1809 1.376 . S
C1813 C1812 1.392 . S
C1813 H1825 0.929 . S
C1814 C1810 1.531 . S
C1814 H1826 0.960 . S
C1814 H1827 0.962 . S
C1814 H1828 0.960 . S
C1815 C1812 1.511 . S
C1815 H1829 0.961 . S
C1815 H1830 0.961 . S
C1815 H1831 0.961 . S
C1816 C1817 1.370 . S
C1816 C1818 1.363 . S
C1816 H1832 0.931 . S
C1817 C1816 1.370 . S
C1817 C1821 1.408 . S
C1818 C1816 1.363 . S
C1818 C1819 1.370 . S
C1818 C1822 1.524 . S
C1819 C1811 1.503 . S
C1819 C1818 1.370 . S
C1819 C1820 1.403 . S
C1820 C1819 1.403 . S
C1820 C1821 1.404 . S
C1820 C1823 1.539 1_455 S
C1821 C1817 1.408 . S
C1821 C1820 1.404 . S
C1821 H1833 0.930 1_455 S
C1822 C1818 1.524 . S
C1822 H1834 0.956 . S
C1822 H1835 0.961 . S
C1822 H1836 0.961 . S
C1823 C1820 1.539 1_655 S
C1823 H1837 0.958 . S
C1823 H1838 0.961 . S
C1823 H1839 0.960 . S
H1824 C1808 0.931 . S
H1825 C1813 0.929 . S
H1826 C1814 0.960 . S
H1827 C1814 0.962 . S
H1828 C1814 0.960 . S
H1829 C1815 0.961 . S
H1830 C1815 0.961 . S
H1831 C1815 0.961 . S
H1832 C1816 0.931 . S
H1833 C1821 0.930 1_655 S
H1834 C1822 0.956 . S
H1835 C1822 0.961 . S
H1836 C1822 0.961 . S
H1837 C1823 0.958 . S
H1838 C1823 0.961 . S
H1839 C1823 0.960 . S
C1840 C1841 1.391 . S
C1840 C1842 1.394 . S
C1840 H1856 0.931 . S
C1841 C1840 1.391 . S
C1841 C1845 1.376 . S
C1842 C1840 1.394 . S
C1842 C1843 1.369 . S
C1842 C1846 1.531 . S
C1843 C1842 1.369 . S
C1843 C1844 1.410 . S
C1843 C1851 1.503 . S
C1844 C1843 1.410 . S
C1844 C1845 1.392 . S
C1844 C1847 1.511 . S
C1845 C1841 1.376 . S
C1845 C1844 1.392 . S
C1845 H1857 0.929 . S
C1846 C1842 1.531 . S
C1846 H1858 0.960 . S
C1846 H1859 0.962 . S
C1846 H1860 0.960 . S
C1847 C1844 1.511 . S
C1847 H1861 0.961 . S
C1847 H1862 0.961 . S
C1847 H1863 0.961 . S
C1848 C1849 1.370 . S
C1848 C1850 1.363 . S
C1848 H1864 0.931 . S
C1849 C1848 1.370 . S
C1849 C1853 1.408 . S
C1850 C1848 1.363 . S
C1850 C1851 1.370 . S
C1850 C1854 1.524 . S
C1851 C1843 1.503 . S
C1851 C1850 1.370 . S
C1851 C1852 1.403 . S
C1852 C1851 1.403 . S
C1852 C1853 1.404 . S
C1852 C1855 1.539 . S
C1853 C1849 1.408 . S
C1853 C1852 1.404 . S
C1853 H1865 0.930 . S
C1854 C1850 1.524 . S
C1854 H1866 0.956 . S
C1854 H1867 0.961 . S
C1854 H1868 0.961 . S
C1855 C1852 1.539 . S
C1855 H1869 0.958 . S
C1855 H1870 0.961 . S
C1855 H1871 0.960 . S
H1856 C1840 0.931 . S
H1857 C1845 0.929 . S
H1858 C1846 0.960 . S
H1859 C1846 0.962 . S
H1860 C1846 0.960 . S
H1861 C1847 0.961 . S
H1862 C1847 0.961 . S
H1863 C1847 0.961 . S
H1864 C1848 0.931 . S
H1865 C1853 0.930 . S
H1866 C1854 0.956 . S
H1867 C1854 0.961 . S
H1868 C1854 0.961 . S
H1869 C1855 0.958 . S
H1870 C1855 0.961 . S
H1871 C1855 0.960 . S
C1872 C1873 1.391 . S
C1872 C1874 1.394 . S
C1872 H1888 0.931 . S
C1873 C1872 1.391 . S
C1873 C1877 1.376 . S
C1874 C1872 1.394 . S
C1874 C1875 1.369 . S
C1874 C1878 1.531 . S
C1875 C1874 1.369 . S
C1875 C1876 1.410 . S
C1875 C1883 1.503 . S
C1876 C1875 1.410 . S
C1876 C1877 1.392 . S
C1876 C1879 1.511 . S
C1877 C1873 1.376 . S
C1877 C1876 1.392 . S
C1877 H1889 0.929 . S
C1878 C1874 1.531 . S
C1878 H1890 0.960 . S
C1878 H1891 0.962 . S
C1878 H1892 0.960 . S
C1879 C1876 1.511 . S
C1879 H1893 0.961 . S
C1879 H1894 0.961 . S
C1879 H1895 0.961 . S
C1880 C1881 1.370 . S
C1880 C1882 1.363 . S
C1880 H1896 0.931 . S
C1881 C1880 1.370 . S
C1881 C1885 1.408 . S
C1882 C1880 1.363 . S
C1882 C1883 1.370 . S
C1882 C1886 1.524 . S
C1883 C1875 1.503 . S
C1883 C1882 1.370 . S
C1883 C1884 1.403 . S
C1884 C1883 1.403 . S
C1884 C1885 1.404 . S
C1884 C1887 1.539 . S
C1885 C1881 1.408 . S
C1885 C1884 1.404 . S
C1885 H1897 0.930 . S
C1886 C1882 1.524 . S
C1886 H1898 0.956 . S
C1886 H1899 0.961 . S
C1886 H1900 0.961 . S
C1887 C1884 1.539 . S
C1887 H1901 0.958 . S
C1887 H1902 0.961 . S
C1887 H1903 0.960 . S
H1888 C1872 0.931 . S
H1889 C1877 0.929 . S
H1890 C1878 0.960 . S
H1891 C1878 0.962 . S
H1892 C1878 0.960 . S
H1893 C1879 0.961 . S
H1894 C1879 0.961 . S
H1895 C1879 0.961 . S
H1896 C1880 0.931 . S
H1897 C1885 0.930 . S
H1898 C1886 0.956 . S
H1899 C1886 0.961 . S
H1900 C1886 0.961 . S
H1901 C1887 0.958 . S
H1902 C1887 0.961 . S
H1903 C1887 0.960 . S
C1904 C1905 1.391 . S
C1904 C1906 1.394 . S
C1904 H1920 0.931 . S
C1905 C1904 1.391 . S
C1905 C1909 1.376 . S
C1906 C1904 1.394 . S
C1906 C1907 1.369 . S
C1906 C1910 1.531 . S
C1907 C1906 1.369 . S
C1907 C1908 1.410 . S
C1907 C1915 1.503 . S
C1908 C1907 1.410 . S
C1908 C1909 1.392 . S
C1908 C1911 1.511 . S
C1909 C1905 1.376 . S
C1909 C1908 1.392 . S
C1909 H1921 0.929 . S
C1910 C1906 1.531 . S
C1910 H1922 0.960 . S
C1910 H1923 0.962 . S
C1910 H1924 0.960 . S
C1911 C1908 1.511 . S
C1911 H1925 0.961 . S
C1911 H1926 0.961 . S
C1911 H1927 0.961 . S
C1912 C1913 1.370 . S
C1912 C1914 1.363 . S
C1912 H1928 0.931 . S
C1913 C1912 1.370 . S
C1913 C1917 1.408 . S
C1914 C1912 1.363 . S
C1914 C1915 1.370 . S
C1914 C1918 1.524 . S
C1915 C1907 1.503 . S
C1915 C1914 1.370 . S
C1915 C1916 1.403 . S
C1916 C1915 1.403 . S
C1916 C1917 1.404 . S
C1916 C1919 1.539 . S
C1917 C1913 1.408 . S
C1917 C1916 1.404 . S
C1917 H1929 0.930 . S
C1918 C1914 1.524 . S
C1918 H1930 0.956 . S
C1918 H1931 0.961 . S
C1918 H1932 0.961 . S
C1919 C1916 1.539 . S
C1919 H1933 0.958 . S
C1919 H1934 0.961 . S
C1919 H1935 0.960 . S
H1920 C1904 0.931 . S
H1921 C1909 0.929 . S
H1922 C1910 0.960 . S
H1923 C1910 0.962 . S
H1924 C1910 0.960 . S
H1925 C1911 0.961 . S
H1926 C1911 0.961 . S
H1927 C1911 0.961 . S
H1928 C1912 0.931 . S
H1929 C1917 0.930 . S
H1930 C1918 0.956 . S
H1931 C1918 0.961 . S
H1932 C1918 0.961 . S
H1933 C1919 0.958 . S
H1934 C1919 0.961 . S
H1935 C1919 0.960 . S
C1936 C1937 1.391 . S
C1936 C1938 1.394 . S
C1936 H1952 0.931 . S
C1937 C1936 1.391 . S
C1937 C1941 1.376 . S
C1938 C1936 1.394 . S
C1938 C1939 1.369 . S
C1938 C1942 1.531 . S
C1939 C1938 1.369 . S
C1939 C1940 1.410 . S
C1939 C1947 1.503 . S
C1940 C1939 1.410 . S
C1940 C1941 1.392 . S
C1940 C1943 1.511 . S
C1941 C1937 1.376 . S
C1941 C1940 1.392 . S
C1941 H1953 0.929 1_545 S
C1942 C1938 1.531 . S
C1942 H1954 0.960 . S
C1942 H1955 0.962 . S
C1942 H1956 0.960 . S
C1943 C1940 1.511 . S
C1943 H1957 0.961 1_545 S
C1943 H1958 0.961 1_655 S
C1943 H1959 0.961 1_655 S
C1944 C1945 1.370 1_655 S
C1944 C1946 1.363 . S
C1944 H1960 0.931 . S
C1945 C1944 1.370 1_455 S
C1945 C1949 1.408 . S
C1946 C1944 1.363 . S
C1946 C1947 1.370 . S
C1946 C1950 1.524 1_545 S
C1947 C1939 1.503 . S
C1947 C1946 1.370 . S
C1947 C1948 1.378 1_655 S
C1948 C1947 1.378 1_455 S
C1948 C1949 1.429 . S
C1948 C1951 1.545 . S
C1949 C1945 1.408 . S
C1949 C1948 1.429 . S
C1949 H1961 0.930 . S
C1950 C1946 1.524 1_565 S
C1950 H1962 0.956 1_565 S
C1950 H1963 0.961 . S
C1950 H1964 0.961 . S
C1951 C1948 1.545 . S
C1951 H1965 0.958 . S
C1951 H1966 0.961 . S
C1951 H1967 0.960 . S
H1952 C1936 0.931 . S
H1953 C1941 0.929 1_565 S
H1954 C1942 0.960 . S
H1955 C1942 0.962 . S
H1956 C1942 0.960 . S
H1957 C1943 0.961 1_565 S
H1958 C1943 0.961 1_455 S
H1959 C1943 0.961 1_455 S
H1960 C1944 0.931 . S
H1961 C1949 0.930 . S
H1962 C1950 0.956 1_545 S
H1963 C1950 0.961 . S
H1964 C1950 0.961 . S
H1965 C1951 0.958 . S
H1966 C1951 0.961 . S
H1967 C1951 0.960 . S
C1968 C1969 1.391 . S
C1968 C1970 1.394 . S
C1968 H1984 0.931 . S
C1969 C1968 1.391 . S
C1969 C1973 1.376 . S
C1970 C1968 1.394 . S
C1970 C1971 1.369 . S
C1970 C1974 1.531 . S
C1971 C1970 1.369 . S
C1971 C1972 1.410 . S
C1971 C1979 1.503 . S
C1972 C1971 1.410 . S
C1972 C1973 1.392 . S
C1972 C1975 1.511 . S
C1973 C1969 1.376 . S
C1973 C1972 1.392 . S
C1973 H1985 0.929 . S
C1974 C1970 1.531 . S
C1974 H1986 0.960 . S
C1974 H1987 0.962 . S
C1974 H1988 0.960 . S
C1975 C1972 1.511 . S
C1975 H1989 0.961 . S
C1975 H1990 0.961 . S
C1975 H1991 0.961 . S
C1976 C1977 1.370 . S
C1976 C1978 1.363 . S
C1976 H1992 0.931 . S
C1977 C1976 1.370 . S
C1977 C1981 1.408 . S
C1978 C1976 1.363 . S
C1978 C1979 1.370 . S
C1978 C1982 1.524 . S
C1979 C1971 1.503 . S
C1979 C1978 1.370 . S
C1979 C1980 1.403 . S
C1980 C1979 1.403 . S
C1980 C1981 1.404 . S
C1980 C1983 1.539 . S
C1981 C1977 1.408 . S
C1981 C1980 1.404 . S
C1981 H1993 0.930 . S
C1982 C1978 1.524 . S
C1982 H1994 0.956 . S
C1982 H1995 0.961 . S
C1982 H1996 0.961 . S
C1983 C1980 1.539 . S
C1983 H1997 0.958 . S
C1983 H1998 0.961 . S
C1983 H1999 0.960 . S
H1984 C1968 0.931 . S
H1985 C1973 0.929 . S
H1986 C1974 0.960 . S
H1987 C1974 0.962 . S
H1988 C1974 0.960 . S
H1989 C1975 0.961 . S
H1990 C1975 0.961 . S
H1991 C1975 0.961 . S
H1992 C1976 0.931 . S
H1993 C1981 0.930 . S
H1994 C1982 0.956 . S
H1995 C1982 0.961 . S
H1996 C1982 0.961 . S
H1997 C1983 0.958 . S
H1998 C1983 0.961 . S
H1999 C1983 0.960 . S
C2000 C2001 1.391 . S
C2000 C2002 1.394 . S
C2000 H2016 0.931 . S
C2001 C2000 1.391 . S
C2001 C2005 1.376 . S
C2002 C2000 1.394 . S
C2002 C2003 1.369 . S
C2002 C2006 1.531 . S
C2003 C2002 1.369 . S
C2003 C2004 1.410 . S
C2003 C2011 1.503 . S
C2004 C2003 1.410 . S
C2004 C2005 1.392 . S
C2004 C2007 1.511 . S
C2005 C2001 1.376 . S
C2005 C2004 1.392 . S
C2005 H2017 0.929 . S
C2006 C2002 1.531 . S
C2006 H2018 0.960 . S
C2006 H2019 0.962 . S
C2006 H2020 0.960 . S
C2007 C2004 1.511 . S
C2007 H2021 0.961 . S
C2007 H2022 0.961 . S
C2007 H2023 0.961 . S
C2008 C2009 1.370 . S
C2008 C2010 1.363 . S
C2008 H2024 0.931 . S
C2009 C2008 1.370 . S
C2009 C2013 1.408 . S
C2010 C2008 1.363 . S
C2010 C2011 1.370 . S
C2010 C2014 1.524 . S
C2011 C2003 1.503 . S
C2011 C2010 1.370 . S
C2011 C2012 1.403 . S
C2012 C2011 1.403 . S
C2012 C2013 1.404 . S
C2012 C2015 1.539 . S
C2013 C2009 1.408 . S
C2013 C2012 1.404 . S
C2013 H2025 0.930 . S
C2014 C2010 1.524 . S
C2014 H2026 0.956 . S
C2014 H2027 0.961 . S
C2014 H2028 0.961 1_545 S
C2015 C2012 1.539 . S
C2015 H2029 0.958 . S
C2015 H2030 0.961 . S
C2015 H2031 0.960 . S
H2016 C2000 0.931 . S
H2017 C2005 0.929 . S
H2018 C2006 0.960 . S
H2019 C2006 0.962 . S
H2020 C2006 0.960 . S
H2021 C2007 0.961 . S
H2022 C2007 0.961 . S
H2023 C2007 0.961 . S
H2024 C2008 0.931 . S
H2025 C2013 0.930 . S
H2026 C2014 0.956 . S
H2027 C2014 0.961 . S
H2028 C2014 0.961 1_565 S
H2029 C2015 0.958 . S
H2030 C2015 0.961 . S
H2031 C2015 0.960 . S
C2032 C2033 1.391 . S
C2032 C2034 1.394 . S
C2032 H2048 0.931 . S
C2033 C2032 1.391 . S
C2033 C2037 1.376 . S
C2034 C2032 1.394 . S
C2034 C2035 1.369 . S
C2034 C2038 1.531 . S
C2035 C2034 1.369 . S
C2035 C2036 1.410 . S
C2035 C2043 1.503 . S
C2036 C2035 1.410 . S
C2036 C2037 1.392 . S
C2036 C2039 1.511 . S
C2037 C2033 1.376 . S
C2037 C2036 1.392 . S
C2037 H2049 0.929 . S
C2038 C2034 1.531 . S
C2038 H2050 0.960 . S
C2038 H2051 0.962 . S
C2038 H2052 0.960 . S
C2039 C2036 1.511 . S
C2039 H2053 0.961 . S
C2039 H2054 0.961 . S
C2039 H2055 0.961 . S
C2040 C2041 1.370 . S
C2040 C2042 1.363 . S
C2040 H2056 0.931 . S
C2041 C2040 1.370 . S
C2041 C2045 1.408 . S
C2042 C2040 1.363 . S
C2042 C2043 1.370 . S
C2042 C2046 1.524 . S
C2043 C2035 1.503 . S
C2043 C2042 1.370 . S
C2043 C2044 1.403 . S
C2044 C2043 1.403 . S
C2044 C2045 1.404 . S
C2044 C2047 1.539 . S
C2045 C2041 1.408 . S
C2045 C2044 1.404 . S
C2045 H2057 0.930 . S
C2046 C2042 1.524 . S
C2046 H2058 0.956 . S
C2046 H2059 0.961 . S
C2046 H2060 0.961 . S
C2047 C2044 1.539 . S
C2047 H2061 0.958 . S
C2047 H2062 0.961 . S
C2047 H2063 0.960 . S
H2048 C2032 0.931 . S
H2049 C2037 0.929 . S
H2050 C2038 0.960 . S
H2051 C2038 0.962 . S
H2052 C2038 0.960 . S
H2053 C2039 0.961 . S
H2054 C2039 0.961 . S
H2055 C2039 0.961 . S
H2056 C2040 0.931 . S
H2057 C2045 0.930 . S
H2058 C2046 0.956 . S
H2059 C2046 0.961 . S
H2060 C2046 0.961 . S
H2061 C2047 0.958 . S
H2062 C2047 0.961 . S
H2063 C2047 0.960 . S
C2064 C2065 1.391 . S
C2064 C2066 1.394 . S
C2064 H2080 0.931 . S
C2065 C2064 1.391 . S
C2065 C2069 1.376 1_545 S
C2066 C2064 1.394 . S
C2066 C2067 1.369 . S
C2066 C2070 1.531 . S
C2067 C2066 1.369 . S
C2067 C2068 1.410 1_545 S
C2067 C2075 1.503 . S
C2068 C2067 1.410 1_565 S
C2068 C2069 1.392 . S
C2068 C2071 1.511 . S
C2069 C2065 1.376 1_565 S
C2069 C2068 1.392 . S
C2069 H2081 0.929 . S
C2070 C2066 1.531 . S
C2070 H2082 0.960 . S
C2070 H2083 0.962 . S
C2070 H2084 0.960 . S
C2071 C2068 1.511 . S
C2071 H2085 0.961 . S
C2071 H2086 0.961 . S
C2071 H2087 0.961 . S
C2072 C2073 1.370 . S
C2072 C2074 1.363 . S
C2072 H2088 0.931 . S
C2073 C2072 1.370 . S
C2073 C2077 1.408 1_455 S
C2074 C2072 1.363 . S
C2074 C2075 1.370 1_455 S
C2074 C2078 1.524 . S
C2075 C2067 1.503 . S
C2075 C2074 1.370 1_655 S
C2075 C2076 1.403 . S
C2076 C2075 1.403 . S
C2076 C2077 1.404 . S
C2076 C2079 1.539 . S
C2077 C2073 1.408 1_655 S
C2077 C2076 1.404 . S
C2077 H2089 0.930 . S
C2078 C2074 1.524 . S
C2078 H2090 0.956 . S
C2078 H2091 0.961 . S
C2078 H2092 0.961 . S
C2079 C2076 1.539 . S
C2079 H2093 0.958 . S
C2079 H2094 0.961 . S
C2079 H2095 0.960 . S
H2080 C2064 0.931 . S
H2081 C2069 0.929 . S
H2082 C2070 0.960 . S
H2083 C2070 0.962 . S
H2084 C2070 0.960 . S
H2085 C2071 0.961 . S
H2086 C2071 0.961 . S
H2087 C2071 0.961 . S
H2088 C2072 0.931 . S
H2089 C2077 0.930 . S
H2090 C2078 0.956 . S
H2091 C2078 0.961 . S
H2092 C2078 0.961 . S
H2093 C2079 0.958 . S
H2094 C2079 0.961 . S
H2095 C2079 0.960 . S
C2096 C2097 1.391 . S
C2096 C2098 1.394 . S
C2096 H2112 0.931 . S
C2097 C2096 1.391 . S
C2097 C2101 1.376 . S
C2098 C2096 1.394 . S
C2098 C2099 1.369 . S
C2098 C2102 1.531 . S
C2099 C2098 1.369 . S
C2099 C2100 1.410 . S
C2099 C2107 1.503 . S
C2100 C2099 1.410 . S
C2100 C2101 1.392 . S
C2100 C2103 1.511 . S
C2101 C2097 1.376 . S
C2101 C2100 1.392 . S
C2101 H2113 0.929 . S
C2102 C2098 1.531 . S
C2102 H2114 0.960 . S
C2102 H2115 0.962 . S
C2102 H2116 0.960 . S
C2103 C2100 1.511 . S
C2103 H2117 0.961 . S
C2103 H2118 0.961 . S
C2103 H2119 0.961 . S
C2104 C2105 1.370 . S
C2104 C2106 1.363 . S
C2104 H2120 0.931 . S
C2105 C2104 1.370 . S
C2105 C2109 1.408 . S
C2106 C2104 1.363 . S
C2106 C2107 1.370 . S
C2106 C2110 1.524 . S
C2107 C2099 1.503 . S
C2107 C2106 1.370 . S
C2107 C2108 1.403 . S
C2108 C2107 1.403 . S
C2108 C2109 1.404 . S
C2108 C2111 1.539 . S
C2109 C2105 1.408 . S
C2109 C2108 1.404 . S
C2109 H2121 0.930 . S
C2110 C2106 1.524 . S
C2110 H2122 0.956 . S
C2110 H2123 0.961 . S
C2110 H2124 0.961 . S
C2111 C2108 1.539 . S
C2111 H2125 0.958 . S
C2111 H2126 0.961 . S
C2111 H2127 0.960 . S
H2112 C2096 0.931 . S
H2113 C2101 0.929 . S
H2114 C2102 0.960 . S
H2115 C2102 0.962 . S
H2116 C2102 0.960 . S
H2117 C2103 0.961 . S
H2118 C2103 0.961 . S
H2119 C2103 0.961 . S
H2120 C2104 0.931 . S
H2121 C2109 0.930 . S
H2122 C2110 0.956 . S
H2123 C2110 0.961 . S
H2124 C2110 0.961 . S
H2125 C2111 0.958 . S
H2126 C2111 0.961 . S
H2127 C2111 0.960 . S
C2128 C2129 1.391 . S
C2128 C2130 1.394 . S
C2128 H2144 0.931 . S
C2129 C2128 1.391 . S
C2129 C2133 1.376 . S
C2130 C2128 1.394 . S
C2130 C2131 1.369 . S
C2130 C2134 1.531 . S
C2131 C2130 1.369 . S
C2131 C2132 1.410 . S
C2131 C2139 1.503 . S
C2132 C2131 1.410 . S
C2132 C2133 1.392 . S
C2132 C2135 1.511 . S
C2133 C2129 1.376 . S
C2133 C2132 1.392 . S
C2133 H2145 0.929 . S
C2134 C2130 1.531 . S
C2134 H2146 0.960 . S
C2134 H2147 0.962 . S
C2134 H2148 0.960 . S
C2135 C2132 1.511 . S
C2135 H2149 0.961 . S
C2135 H2150 0.961 . S
C2135 H2151 0.961 . S
C2136 C2137 1.370 . S
C2136 C2138 1.363 . S
C2136 H2152 0.931 . S
C2137 C2136 1.370 . S
C2137 C2141 1.408 . S
C2138 C2136 1.363 . S
C2138 C2139 1.370 . S
C2138 C2142 1.524 . S
C2139 C2131 1.503 . S
C2139 C2138 1.370 . S
C2139 C2140 1.403 . S
C2140 C2139 1.403 . S
C2140 C2141 1.404 . S
C2140 C2143 1.539 . S
C2141 C2137 1.408 . S
C2141 C2140 1.404 . S
C2141 H2153 0.930 . S
C2142 C2138 1.524 . S
C2142 H2154 0.956 . S
C2142 H2155 0.961 . S
C2142 H2156 0.961 . S
C2143 C2140 1.539 . S
C2143 H2157 0.958 . S
C2143 H2158 0.961 . S
C2143 H2159 0.960 . S
H2144 C2128 0.931 . S
H2145 C2133 0.929 . S
H2146 C2134 0.960 . S
H2147 C2134 0.962 . S
H2148 C2134 0.960 . S
H2149 C2135 0.961 . S
H2150 C2135 0.961 . S
H2151 C2135 0.961 . S
H2152 C2136 0.931 . S
H2153 C2141 0.930 . S
H2154 C2142 0.956 . S
H2155 C2142 0.961 . S
H2156 C2142 0.961 . S
H2157 C2143 0.958 . S
H2158 C2143 0.961 . S
H2159 C2143 0.960 . S
C2160 C2161 1.391 . S
C2160 C2162 1.394 . S
C2160 H2176 0.931 . S
C2161 C2160 1.391 . S
C2161 C2165 1.376 . S
C2162 C2160 1.394 . S
C2162 C2163 1.369 . S
C2162 C2166 1.531 . S
C2163 C2162 1.369 . S
C2163 C2164 1.410 . S
C2163 C2171 1.503 . S
C2164 C2163 1.410 . S
C2164 C2165 1.392 . S
C2164 C2167 1.511 . S
C2165 C2161 1.376 . S
C2165 C2164 1.392 . S
C2165 H2177 0.929 . S
C2166 C2162 1.531 . S
C2166 H2178 0.960 . S
C2166 H2179 0.962 . S
C2166 H2180 0.960 . S
C2167 C2164 1.511 . S
C2167 H2181 0.961 . S
C2167 H2182 0.961 . S
C2167 H2183 0.961 . S
C2168 C2169 1.370 . S
C2168 C2170 1.363 . S
C2168 H2184 0.931 . S
C2169 C2168 1.370 . S
C2169 C2173 1.408 . S
C2170 C2168 1.363 . S
C2170 C2171 1.370 . S
C2170 C2174 1.524 . S
C2171 C2163 1.503 . S
C2171 C2170 1.370 . S
C2171 C2172 1.403 . S
C2172 C2171 1.403 . S
C2172 C2173 1.404 . S
C2172 C2175 1.539 . S
C2173 C2169 1.408 . S
C2173 C2172 1.404 . S
C2173 H2185 0.930 . S
C2174 C2170 1.524 . S
C2174 H2186 0.956 . S
C2174 H2187 0.961 . S
C2174 H2188 0.961 . S
C2175 C2172 1.539 . S
C2175 H2189 0.958 . S
C2175 H2190 0.961 . S
C2175 H2191 0.960 . S
H2176 C2160 0.931 . S
H2177 C2165 0.929 . S
H2178 C2166 0.960 . S
H2179 C2166 0.962 . S
H2180 C2166 0.960 . S
H2181 C2167 0.961 . S
H2182 C2167 0.961 . S
H2183 C2167 0.961 . S
H2184 C2168 0.931 . S
H2185 C2173 0.930 . S
H2186 C2174 0.956 . S
H2187 C2174 0.961 . S
H2188 C2174 0.961 . S
H2189 C2175 0.958 . S
H2190 C2175 0.961 . S
H2191 C2175 0.960 . S
C2192 C2193 1.391 . S
C2192 C2194 1.394 . S
C2192 H2208 0.931 . S
C2193 C2192 1.391 . S
C2193 C2197 1.376 . S
C2194 C2192 1.394 . S
C2194 C2195 1.369 . S
C2194 C2198 1.531 . S
C2195 C2194 1.369 . S
C2195 C2196 1.410 . S
C2195 C2203 1.503 . S
C2196 C2195 1.410 . S
C2196 C2197 1.392 . S
C2196 C2199 1.511 1_565 S
C2197 C2193 1.376 . S
C2197 C2196 1.392 . S
C2197 H2209 0.929 . S
C2198 C2194 1.531 . S
C2198 H2210 0.960 . S
C2198 H2211 0.962 . S
C2198 H2212 0.960 . S
C2199 C2196 1.511 1_545 S
C2199 H2213 0.961 . S
C2199 H2214 0.961 . S
C2199 H2215 0.961 . S
C2200 C2201 1.370 . S
C2200 C2202 1.363 1_545 S
C2200 H2216 0.931 . S
C2201 C2200 1.370 . S
C2201 C2205 1.400 1_545 S
C2202 C2200 1.363 1_565 S
C2202 C2203 1.370 . S
C2202 C2206 1.524 1_554 S
C2203 C2195 1.503 . S
C2203 C2202 1.370 . S
C2203 C2204 1.403 . S
C2204 C2203 1.403 . S
C2204 C2205 1.413 . S
C2204 C2207 1.539 . S
C2205 C2201 1.400 1_565 S
C2205 C2204 1.413 . S
C2205 H2217 0.931 1_565 S
C2206 C2202 1.524 1_556 S
C2206 H2218 0.956 . S
C2206 H2219 0.960 1_565 S
C2206 H2220 0.961 1_565 S
C2207 C2204 1.539 . S
C2207 H2221 0.958 . S
C2207 H2222 0.961 . S
C2207 H2223 0.960 . S
H2208 C2192 0.931 . S
H2209 C2197 0.929 . S
H2210 C2198 0.960 . S
H2211 C2198 0.962 . S
H2212 C2198 0.960 . S
H2213 C2199 0.961 . S
H2214 C2199 0.961 . S
H2215 C2199 0.961 . S
H2216 C2200 0.931 . S
H2217 C2205 0.931 1_545 S
H2218 C2206 0.956 . S
H2219 C2206 0.960 1_545 S
H2220 C2206 0.961 1_545 S
H2221 C2207 0.958 . S
H2222 C2207 0.961 . S
H2223 C2207 0.960 . S
C2224 C2225 1.391 . S
C2224 C2226 1.394 . S
C2224 H2240 0.931 . S
C2225 C2224 1.391 . S
C2225 C2229 1.376 . S
C2226 C2224 1.394 . S
C2226 C2227 1.369 . S
C2226 C2230 1.531 . S
C2227 C2226 1.369 . S
C2227 C2228 1.410 . S
C2227 C2235 1.503 . S
C2228 C2227 1.410 . S
C2228 C2229 1.392 . S
C2228 C2231 1.511 . S
C2229 C2225 1.376 . S
C2229 C2228 1.392 . S
C2229 H2241 0.929 . S
C2230 C2226 1.531 . S
C2230 H2242 0.960 . S
C2230 H2243 0.962 . S
C2230 H2244 0.960 . S
C2231 C2228 1.511 . S
C2231 H2245 0.961 . S
C2231 H2246 0.961 . S
C2231 H2247 0.961 . S
C2232 C2233 1.370 . S
C2232 C2234 1.363 . S
C2232 H2248 0.931 . S
C2233 C2232 1.370 . S
C2233 C2237 1.408 . S
C2234 C2232 1.363 . S
C2234 C2235 1.370 . S
C2234 C2238 1.524 . S
C2235 C2227 1.503 . S
C2235 C2234 1.370 . S
C2235 C2236 1.403 . S
C2236 C2235 1.403 . S
C2236 C2237 1.404 . S
C2236 C2239 1.539 1_554 S
C2237 C2233 1.408 . S
C2237 C2236 1.404 . S
C2237 H2249 0.899 1_554 S
C2238 C2234 1.524 . S
C2238 H2250 0.956 . S
C2238 H2251 0.961 . S
C2238 H2252 0.961 . S
C2239 C2236 1.539 1_556 S
C2239 H2253 0.958 . S
C2239 H2254 0.961 . S
C2239 H2255 0.960 . S
H2240 C2224 0.931 . S
H2241 C2229 0.929 . S
H2242 C2230 0.960 . S
H2243 C2230 0.962 . S
H2244 C2230 0.960 . S
H2245 C2231 0.961 . S
H2246 C2231 0.961 . S
H2247 C2231 0.961 . S
H2248 C2232 0.931 . S
H2249 C2237 0.899 1_556 S
H2250 C2238 0.956 . S
H2251 C2238 0.961 . S
H2252 C2238 0.961 . S
H2253 C2239 0.958 . S
H2254 C2239 0.961 . S
H2255 C2239 0.960 . S
C2256 C2257 1.391 . S
C2256 C2258 1.394 . S
C2256 H2272 0.931 . S
C2257 C2256 1.391 . S
C2257 C2261 1.376 . S
C2258 C2256 1.394 . S
C2258 C2259 1.369 . S
C2258 C2262 1.531 . S
C2259 C2258 1.369 . S
C2259 C2260 1.410 . S
C2259 C2267 1.503 . S
C2260 C2259 1.410 . S
C2260 C2261 1.392 . S
C2260 C2263 1.511 . S
C2261 C2257 1.376 . S
C2261 C2260 1.392 . S
C2261 H2273 0.929 . S
C2262 C2258 1.531 . S
C2262 H2274 0.960 . S
C2262 H2275 0.962 . S
C2262 H2276 0.960 . S
C2263 C2260 1.511 . S
C2263 H2277 0.961 . S
C2263 H2278 0.961 . S
C2263 H2279 0.961 . S
C2264 C2265 1.370 . S
C2264 C2266 1.363 . S
C2264 H2280 0.931 . S
C2265 C2264 1.370 . S
C2265 C2269 1.408 . S
C2266 C2264 1.363 . S
C2266 C2267 1.370 . S
C2266 C2270 1.524 . S
C2267 C2259 1.503 . S
C2267 C2266 1.370 . S
C2267 C2268 1.403 . S
C2268 C2267 1.403 . S
C2268 C2269 1.404 . S
C2268 C2271 1.539 . S
C2269 C2265 1.408 . S
C2269 C2268 1.404 . S
C2269 H2281 0.930 . S
C2270 C2266 1.524 . S
C2270 H2282 0.956 . S
C2270 H2283 0.961 . S
C2270 H2284 0.961 . S
C2271 C2268 1.539 . S
C2271 H2285 0.958 . S
C2271 H2286 0.961 . S
C2271 H2287 0.960 . S
H2272 C2256 0.931 . S
H2273 C2261 0.929 . S
H2274 C2262 0.960 . S
H2275 C2262 0.962 . S
H2276 C2262 0.960 . S
H2277 C2263 0.961 . S
H2278 C2263 0.961 . S
H2279 C2263 0.961 . S
H2280 C2264 0.931 . S
H2281 C2269 0.930 . S
H2282 C2270 0.956 . S
H2283 C2270 0.961 . S
H2284 C2270 0.961 . S
H2285 C2271 0.958 . S
H2286 C2271 0.961 . S
H2287 C2271 0.960 . S
C2288 C2289 1.391 . S
C2288 C2290 1.394 . S
C2288 H2304 0.931 . S
C2289 C2288 1.391 . S
C2289 C2293 1.376 . S
C2290 C2288 1.394 . S
C2290 C2291 1.369 . S
C2290 C2294 1.531 . S
C2291 C2290 1.369 . S
C2291 C2292 1.410 . S
C2291 C2299 1.503 . S
C2292 C2291 1.410 . S
C2292 C2293 1.392 . S
C2292 C2295 1.511 . S
C2293 C2289 1.376 . S
C2293 C2292 1.392 . S
C2293 H2305 0.929 . S
C2294 C2290 1.531 . S
C2294 H2306 0.960 . S
C2294 H2307 0.962 . S
C2294 H2308 0.960 . S
C2295 C2292 1.511 . S
C2295 H2309 0.961 . S
C2295 H2310 0.961 . S
C2295 H2311 0.961 . S
C2296 C2297 1.370 . S
C2296 C2298 1.363 . S
C2296 H2312 0.931 . S
C2297 C2296 1.370 . S
C2297 C2301 1.408 . S
C2298 C2296 1.363 . S
C2298 C2299 1.370 . S
C2298 C2302 1.524 . S
C2299 C2291 1.503 . S
C2299 C2298 1.370 . S
C2299 C2300 1.403 . S
C2300 C2299 1.403 . S
C2300 C2301 1.404 . S
C2300 C2303 1.539 . S
C2301 C2297 1.408 . S
C2301 C2300 1.404 . S
C2301 H2313 0.930 . S
C2302 C2298 1.524 . S
C2302 H2314 0.956 . S
C2302 H2315 0.961 . S
C2302 H2316 0.961 . S
C2303 C2300 1.539 . S
C2303 H2317 0.958 . S
C2303 H2318 0.961 . S
C2303 H2319 0.960 . S
H2304 C2288 0.931 . S
H2305 C2293 0.929 . S
H2306 C2294 0.960 . S
H2307 C2294 0.962 . S
H2308 C2294 0.960 . S
H2309 C2295 0.961 . S
H2310 C2295 0.961 . S
H2311 C2295 0.961 . S
H2312 C2296 0.931 . S
H2313 C2301 0.930 . S
H2314 C2302 0.956 . S
H2315 C2302 0.961 . S
H2316 C2302 0.961 . S
H2317 C2303 0.958 . S
H2318 C2303 0.961 . S
H2319 C2303 0.960 . S
C2320 C2321 1.391 . S
C2320 C2322 1.394 . S
C2320 H2336 0.931 . S
C2321 C2320 1.391 . S
C2321 C2325 1.376 . S
C2322 C2320 1.394 . S
C2322 C2323 1.369 . S
C2322 C2326 1.531 . S
C2323 C2322 1.369 . S
C2323 C2324 1.410 . S
C2323 C2331 1.503 . S
C2324 C2323 1.410 . S
C2324 C2325 1.392 . S
C2324 C2327 1.511 . S
C2325 C2321 1.376 . S
C2325 C2324 1.392 . S
C2325 H2337 0.929 . S
C2326 C2322 1.531 . S
C2326 H2338 0.960 . S
C2326 H2339 0.962 . S
C2326 H2340 0.960 . S
C2327 C2324 1.511 . S
C2327 H2341 0.961 . S
C2327 H2342 0.961 . S
C2327 H2343 0.961 . S
C2328 C2329 1.370 . S
C2328 C2330 1.363 . S
C2328 H2344 0.931 . S
C2329 C2328 1.370 . S
C2329 C2333 1.408 . S
C2330 C2328 1.363 . S
C2330 C2331 1.370 . S
C2330 C2334 1.524 . S
C2331 C2323 1.503 . S
C2331 C2330 1.370 . S
C2331 C2332 1.403 . S
C2332 C2331 1.403 . S
C2332 C2333 1.404 . S
C2332 C2335 1.539 . S
C2333 C2329 1.408 . S
C2333 C2332 1.404 . S
C2333 H2345 0.930 . S
C2334 C2330 1.524 . S
C2334 H2346 0.956 . S
C2334 H2347 0.961 . S
C2334 H2348 0.961 . S
C2335 C2332 1.539 . S
C2335 H2349 0.958 . S
C2335 H2350 0.961 . S
C2335 H2351 0.960 . S
H2336 C2320 0.931 . S
H2337 C2325 0.929 . S
H2338 C2326 0.960 . S
H2339 C2326 0.962 . S
H2340 C2326 0.960 . S
H2341 C2327 0.961 . S
H2342 C2327 0.961 . S
H2343 C2327 0.961 . S
H2344 C2328 0.931 . S
H2345 C2333 0.930 . S
H2346 C2334 0.956 . S
H2347 C2334 0.961 . S
H2348 C2334 0.961 . S
H2349 C2335 0.958 . S
H2350 C2335 0.961 . S
H2351 C2335 0.960 . S
C2352 C2353 1.391 . S
C2352 C2354 1.394 . S
C2352 H2368 0.931 . S
C2353 C2352 1.391 . S
C2353 C2357 1.376 . S
C2354 C2352 1.394 . S
C2354 C2355 1.369 . S
C2354 C2358 1.531 . S
C2355 C2354 1.369 . S
C2355 C2356 1.410 . S
C2355 C2363 1.503 . S
C2356 C2355 1.410 . S
C2356 C2357 1.392 . S
C2356 C2359 1.511 . S
C2357 C2353 1.376 . S
C2357 C2356 1.392 . S
C2357 H2369 0.929 . S
C2358 C2354 1.531 . S
C2358 H2370 0.960 . S
C2358 H2371 0.962 . S
C2358 H2372 0.960 . S
C2359 C2356 1.511 . S
C2359 H2373 0.961 . S
C2359 H2374 0.961 . S
C2359 H2375 0.961 . S
C2360 C2361 1.370 . S
C2360 C2362 1.363 . S
C2360 H2376 0.931 . S
C2361 C2360 1.370 . S
C2361 C2365 1.408 . S
C2362 C2360 1.363 . S
C2362 C2363 1.370 . S
C2362 C2366 1.524 . S
C2363 C2355 1.503 . S
C2363 C2362 1.370 . S
C2363 C2364 1.403 . S
C2364 C2363 1.403 . S
C2364 C2365 1.404 . S
C2364 C2367 1.539 . S
C2365 C2361 1.408 . S
C2365 C2364 1.404 . S
C2365 H2377 0.930 . S
C2366 C2362 1.524 . S
C2366 H2378 0.956 . S
C2366 H2379 0.961 . S
C2366 H2380 0.961 . S
C2367 C2364 1.539 . S
C2367 H2381 0.958 . S
C2367 H2382 0.961 . S
C2367 H2383 0.960 . S
H2368 C2352 0.931 . S
H2369 C2357 0.929 . S
H2370 C2358 0.960 . S
H2371 C2358 0.962 . S
H2372 C2358 0.960 . S
H2373 C2359 0.961 . S
H2374 C2359 0.961 . S
H2375 C2359 0.961 . S
H2376 C2360 0.931 . S
H2377 C2365 0.930 . S
H2378 C2366 0.956 . S
H2379 C2366 0.961 . S
H2380 C2366 0.961 . S
H2381 C2367 0.958 . S
H2382 C2367 0.961 . S
H2383 C2367 0.960 . S
C2384 C2385 1.391 . S
C2384 C2386 1.394 . S
C2384 H2400 0.931 . S
C2385 C2384 1.391 . S
C2385 C2389 1.376 . S
C2386 C2384 1.394 . S
C2386 C2387 1.369 . S
C2386 C2390 1.531 . S
C2387 C2386 1.369 . S
C2387 C2388 1.410 . S
C2387 C2395 1.503 . S
C2388 C2387 1.410 . S
C2388 C2389 1.392 . S
C2388 C2391 1.511 . S
C2389 C2385 1.376 . S
C2389 C2388 1.392 . S
C2389 H2401 0.929 . S
C2390 C2386 1.531 . S
C2390 H2402 0.960 . S
C2390 H2403 0.962 . S
C2390 H2404 0.960 . S
C2391 C2388 1.511 . S
C2391 H2405 0.961 . S
C2391 H2406 0.961 . S
C2391 H2407 0.961 . S
C2392 C2393 1.370 . S
C2392 C2394 1.363 . S
C2392 H2408 0.931 . S
C2393 C2392 1.370 . S
C2393 C2397 1.408 . S
C2394 C2392 1.363 . S
C2394 C2395 1.370 . S
C2394 C2398 1.524 . S
C2395 C2387 1.503 . S
C2395 C2394 1.370 . S
C2395 C2396 1.403 . S
C2396 C2395 1.403 . S
C2396 C2397 1.404 . S
C2396 C2399 1.539 . S
C2397 C2393 1.408 . S
C2397 C2396 1.404 . S
C2397 H2409 0.930 . S
C2398 C2394 1.524 . S
C2398 H2410 0.956 . S
C2398 H2411 0.961 . S
C2398 H2412 0.961 . S
C2399 C2396 1.539 . S
C2399 H2413 0.958 . S
C2399 H2414 0.961 . S
C2399 H2415 0.960 . S
H2400 C2384 0.931 . S
H2401 C2389 0.929 . S
H2402 C2390 0.960 . S
H2403 C2390 0.962 . S
H2404 C2390 0.960 . S
H2405 C2391 0.961 . S
H2406 C2391 0.961 . S
H2407 C2391 0.961 . S
H2408 C2392 0.931 . S
H2409 C2397 0.930 . S
H2410 C2398 0.956 . S
H2411 C2398 0.961 . S
H2412 C2398 0.961 . S
H2413 C2399 0.958 . S
H2414 C2399 0.961 . S
H2415 C2399 0.960 . S
C2416 C2417 1.391 . S
C2416 C2418 1.394 . S
C2416 H2432 0.931 . S
C2417 C2416 1.391 . S
C2417 C2421 1.376 . S
C2418 C2416 1.394 . S
C2418 C2419 1.369 . S
C2418 C2422 1.531 . S
C2419 C2418 1.369 . S
C2419 C2420 1.410 . S
C2419 C2427 1.503 . S
C2420 C2419 1.410 . S
C2420 C2421 1.392 . S
C2420 C2423 1.511 . S
C2421 C2417 1.376 . S
C2421 C2420 1.392 . S
C2421 H2433 0.929 . S
C2422 C2418 1.531 . S
C2422 H2434 0.960 . S
C2422 H2435 0.962 . S
C2422 H2436 0.960 . S
C2423 C2420 1.511 . S
C2423 H2437 0.961 . S
C2423 H2438 0.961 . S
C2423 H2439 0.961 . S
C2424 C2425 1.370 . S
C2424 C2426 1.363 . S
C2424 H2440 0.931 . S
C2425 C2424 1.370 . S
C2425 C2429 1.408 . S
C2426 C2424 1.363 . S
C2426 C2427 1.370 . S
C2426 C2430 1.524 . S
C2427 C2419 1.503 . S
C2427 C2426 1.370 . S
C2427 C2428 1.403 . S
C2428 C2427 1.403 . S
C2428 C2429 1.404 . S
C2428 C2431 1.539 . S
C2429 C2425 1.408 . S
C2429 C2428 1.404 . S
C2429 H2441 0.930 . S
C2430 C2426 1.524 . S
C2430 H2442 0.956 . S
C2430 H2443 0.961 . S
C2430 H2444 0.961 . S
C2431 C2428 1.539 . S
C2431 H2445 0.958 . S
C2431 H2446 0.961 . S
C2431 H2447 0.960 . S
H2432 C2416 0.931 . S
H2433 C2421 0.929 . S
H2434 C2422 0.960 . S
H2435 C2422 0.962 . S
H2436 C2422 0.960 . S
H2437 C2423 0.961 . S
H2438 C2423 0.961 . S
H2439 C2423 0.961 . S
H2440 C2424 0.931 . S
H2441 C2429 0.930 . S
H2442 C2430 0.956 . S
H2443 C2430 0.961 . S
H2444 C2430 0.961 . S
H2445 C2431 0.958 . S
H2446 C2431 0.961 . S
H2447 C2431 0.960 . S
C2448 C2449 1.391 . S
C2448 C2450 1.394 . S
C2448 H2464 0.931 . S
C2449 C2448 1.391 . S
C2449 C2453 1.376 . S
C2450 C2448 1.394 . S
C2450 C2451 1.369 . S
C2450 C2454 1.531 . S
C2451 C2450 1.369 . S
C2451 C2452 1.410 . S
C2451 C2459 1.503 . S
C2452 C2451 1.410 . S
C2452 C2453 1.392 . S
C2452 C2455 1.511 . S
C2453 C2449 1.376 . S
C2453 C2452 1.392 . S
C2453 H2465 0.929 . S
C2454 C2450 1.531 . S
C2454 H2466 0.960 . S
C2454 H2467 0.962 . S
C2454 H2468 0.960 . S
C2455 C2452 1.511 . S
C2455 H2469 0.961 . S
C2455 H2470 0.961 . S
C2455 H2471 0.961 . S
C2456 C2457 1.370 . S
C2456 C2458 1.363 . S
C2456 H2472 0.931 . S
C2457 C2456 1.370 . S
C2457 C2461 1.408 . S
C2458 C2456 1.363 . S
C2458 C2459 1.370 . S
C2458 C2462 1.524 . S
C2459 C2451 1.503 . S
C2459 C2458 1.370 . S
C2459 C2460 1.403 . S
C2460 C2459 1.403 . S
C2460 C2461 1.404 . S
C2460 C2463 1.539 . S
C2461 C2457 1.408 . S
C2461 C2460 1.404 . S
C2461 H2473 0.930 . S
C2462 C2458 1.524 . S
C2462 H2474 0.956 . S
C2462 H2475 0.961 . S
C2462 H2476 0.961 . S
C2463 C2460 1.539 . S
C2463 H2477 0.958 . S
C2463 H2478 0.961 1_455 S
C2463 H2479 0.960 . S
H2464 C2448 0.931 . S
H2465 C2453 0.929 . S
H2466 C2454 0.960 . S
H2467 C2454 0.962 . S
H2468 C2454 0.960 . S
H2469 C2455 0.961 . S
H2470 C2455 0.961 . S
H2471 C2455 0.961 . S
H2472 C2456 0.931 . S
H2473 C2461 0.930 . S
H2474 C2462 0.956 . S
H2475 C2462 0.961 . S
H2476 C2462 0.961 . S
H2477 C2463 0.958 . S
H2478 C2463 0.961 1_655 S
H2479 C2463 0.960 . S
C2480 C2481 1.391 . S
C2480 C2482 1.394 . S
C2480 H2496 0.931 . S
C2481 C2480 1.391 . S
C2481 C2485 1.376 . S
C2482 C2480 1.394 . S
C2482 C2483 1.369 . S
C2482 C2486 1.531 . S
C2483 C2482 1.369 . S
C2483 C2484 1.410 . S
C2483 C2491 1.503 . S
C2484 C2483 1.410 . S
C2484 C2485 1.392 . S
C2484 C2487 1.511 . S
C2485 C2481 1.376 . S
C2485 C2484 1.392 . S
C2485 H2497 0.929 . S
C2486 C2482 1.531 . S
C2486 H2498 0.960 . S
C2486 H2499 0.962 . S
C2486 H2500 0.960 . S
C2487 C2484 1.511 . S
C2487 H2501 0.961 . S
C2487 H2502 0.961 . S
C2487 H2503 0.961 . S
C2488 C2489 1.370 . S
C2488 C2490 1.363 . S
C2488 H2504 0.931 . S
C2489 C2488 1.370 . S
C2489 C2493 1.408 . S
C2490 C2488 1.363 . S
C2490 C2491 1.370 . S
C2490 C2494 1.524 . S
C2491 C2483 1.503 . S
C2491 C2490 1.370 . S
C2491 C2492 1.403 . S
C2492 C2491 1.403 . S
C2492 C2493 1.404 . S
C2492 C2495 1.539 . S
C2493 C2489 1.408 . S
C2493 C2492 1.404 . S
C2493 H2505 0.930 . S
C2494 C2490 1.524 . S
C2494 H2506 0.956 . S
C2494 H2507 0.961 . S
C2494 H2508 0.961 . S
C2495 C2492 1.539 . S
C2495 H2509 0.958 . S
C2495 H2510 0.961 . S
C2495 H2511 0.960 . S
H2496 C2480 0.931 . S
H2497 C2485 0.929 . S
H2498 C2486 0.960 . S
H2499 C2486 0.962 . S
H2500 C2486 0.960 . S
H2501 C2487 0.961 . S
H2502 C2487 0.961 . S
H2503 C2487 0.961 . S
H2504 C2488 0.931 . S
H2505 C2493 0.930 . S
H2506 C2494 0.956 . S
H2507 C2494 0.961 . S
H2508 C2494 0.961 . S
H2509 C2495 0.958 . S
H2510 C2495 0.961 . S
H2511 C2495 0.960 . S
C2512 C2513 1.391 . S
C2512 C2514 1.394 . S
C2512 H2528 0.931 . S
C2513 C2512 1.391 . S
C2513 C2517 1.376 . S
C2514 C2512 1.394 . S
C2514 C2515 1.369 . S
C2514 C2518 1.531 . S
C2515 C2514 1.369 . S
C2515 C2516 1.410 . S
C2515 C2523 1.503 . S
C2516 C2515 1.410 . S
C2516 C2517 1.392 . S
C2516 C2519 1.511 . S
C2517 C2513 1.376 . S
C2517 C2516 1.392 . S
C2517 H2529 0.929 . S
C2518 C2514 1.531 . S
C2518 H2530 0.960 . S
C2518 H2531 0.962 . S
C2518 H2532 0.960 . S
C2519 C2516 1.511 . S
C2519 H2533 0.961 . S
C2519 H2534 0.961 . S
C2519 H2535 0.961 . S
C2520 C2521 1.370 . S
C2520 C2522 1.363 . S
C2520 H2536 0.931 . S
C2521 C2520 1.370 . S
C2521 C2525 1.408 . S
C2522 C2520 1.363 . S
C2522 C2523 1.370 . S
C2522 C2526 1.524 . S
C2523 C2515 1.503 . S
C2523 C2522 1.370 . S
C2523 C2524 1.403 . S
C2524 C2523 1.403 . S
C2524 C2525 1.404 . S
C2524 C2527 1.539 . S
C2525 C2521 1.408 . S
C2525 C2524 1.404 . S
C2525 H2537 0.930 . S
C2526 C2522 1.524 . S
C2526 H2538 0.956 . S
C2526 H2539 0.961 . S
C2526 H2540 0.961 . S
C2527 C2524 1.539 . S
C2527 H2541 0.958 . S
C2527 H2542 0.961 . S
C2527 H2543 0.960 . S
H2528 C2512 0.931 . S
H2529 C2517 0.929 . S
H2530 C2518 0.960 . S
H2531 C2518 0.962 . S
H2532 C2518 0.960 . S
H2533 C2519 0.961 . S
H2534 C2519 0.961 . S
H2535 C2519 0.961 . S
H2536 C2520 0.931 . S
H2537 C2525 0.930 . S
H2538 C2526 0.956 . S
H2539 C2526 0.961 . S
H2540 C2526 0.961 . S
H2541 C2527 0.958 . S
H2542 C2527 0.961 . S
H2543 C2527 0.960 . S
C2544 C2545 1.391 . S
C2544 C2546 1.394 . S
C2544 H2560 0.931 . S
C2545 C2544 1.391 . S
C2545 C2549 1.376 . S
C2546 C2544 1.394 . S
C2546 C2547 1.369 . S
C2546 C2550 1.531 . S
C2547 C2546 1.369 . S
C2547 C2548 1.410 . S
C2547 C2555 1.503 . S
C2548 C2547 1.410 . S
C2548 C2549 1.392 . S
C2548 C2551 1.511 . S
C2549 C2545 1.376 . S
C2549 C2548 1.392 . S
C2549 H2561 0.929 . S
C2550 C2546 1.531 . S
C2550 H2562 0.960 . S
C2550 H2563 0.962 . S
C2550 H2564 0.960 . S
C2551 C2548 1.511 . S
C2551 H2565 0.961 . S
C2551 H2566 0.961 . S
C2551 H2567 0.961 . S
C2552 C2553 1.370 . S
C2552 C2554 1.363 . S
C2552 H2568 0.931 . S
C2553 C2552 1.370 . S
C2553 C2557 1.408 . S
C2554 C2552 1.363 . S
C2554 C2555 1.370 . S
C2554 C2558 1.524 . S
C2555 C2547 1.503 . S
C2555 C2554 1.370 . S
C2555 C2556 1.403 . S
C2556 C2555 1.403 . S
C2556 C2557 1.404 . S
C2556 C2559 1.539 . S
C2557 C2553 1.408 . S
C2557 C2556 1.404 . S
C2557 H2569 0.930 . S
C2558 C2554 1.524 . S
C2558 H2570 0.956 . S
C2558 H2571 0.961 . S
C2558 H2572 0.961 . S
C2559 C2556 1.539 . S
C2559 H2573 0.958 . S
C2559 H2574 0.961 . S
C2559 H2575 0.960 . S
H2560 C2544 0.931 . S
H2561 C2549 0.929 . S
H2562 C2550 0.960 . S
H2563 C2550 0.962 . S
H2564 C2550 0.960 . S
H2565 C2551 0.961 . S
H2566 C2551 0.961 . S
H2567 C2551 0.961 . S
H2568 C2552 0.931 . S
H2569 C2557 0.930 . S
H2570 C2558 0.956 . S
H2571 C2558 0.961 . S
H2572 C2558 0.961 . S
H2573 C2559 0.958 . S
H2574 C2559 0.961 . S
H2575 C2559 0.960 . S
C2576 C2577 1.391 . S
C2576 C2578 1.394 . S
C2576 H2592 0.931 . S
C2577 C2576 1.391 . S
C2577 C2581 1.376 . S
C2578 C2576 1.394 . S
C2578 C2579 1.369 . S
C2578 C2582 1.531 . S
C2579 C2578 1.369 . S
C2579 C2580 1.410 . S
C2579 C2587 1.503 . S
C2580 C2579 1.410 . S
C2580 C2581 1.392 . S
C2580 C2583 1.511 . S
C2581 C2577 1.376 . S
C2581 C2580 1.392 . S
C2581 H2593 0.929 . S
C2582 C2578 1.531 . S
C2582 H2594 0.960 . S
C2582 H2595 0.962 . S
C2582 H2596 0.960 . S
C2583 C2580 1.511 . S
C2583 H2597 0.961 . S
C2583 H2598 0.961 . S
C2583 H2599 0.961 . S
C2584 C2585 1.370 . S
C2584 C2586 1.363 . S
C2584 H2600 0.931 . S
C2585 C2584 1.370 . S
C2585 C2589 1.408 . S
C2586 C2584 1.363 . S
C2586 C2587 1.370 . S
C2586 C2590 1.524 1_455 S
C2587 C2579 1.503 . S
C2587 C2586 1.370 . S
C2587 C2588 1.403 . S
C2588 C2587 1.403 . S
C2588 C2589 1.404 . S
C2588 C2591 1.539 . S
C2589 C2585 1.408 . S
C2589 C2588 1.404 . S
C2589 H2601 0.930 . S
C2590 C2586 1.524 1_655 S
C2590 H2602 0.956 . S
C2590 H2603 0.961 . S
C2590 H2604 0.961 . S
C2591 C2588 1.539 . S
C2591 H2605 0.958 . S
C2591 H2606 0.961 . S
C2591 H2607 0.960 . S
H2592 C2576 0.931 . S
H2593 C2581 0.929 . S
H2594 C2582 0.960 . S
H2595 C2582 0.962 . S
H2596 C2582 0.960 . S
H2597 C2583 0.961 . S
H2598 C2583 0.961 . S
H2599 C2583 0.961 . S
H2600 C2584 0.931 . S
H2601 C2589 0.930 . S
H2602 C2590 0.956 . S
H2603 C2590 0.961 . S
H2604 C2590 0.961 . S
H2605 C2591 0.958 . S
H2606 C2591 0.961 . S
H2607 C2591 0.960 . S
C2608 C2609 1.391 . S
C2608 C2610 1.394 . S
C2608 H2624 0.931 . S
C2609 C2608 1.391 . S
C2609 C2613 1.376 . S
C2610 C2608 1.394 . S
C2610 C2611 1.369 . S
C2610 C2614 1.531 . S
C2611 C2610 1.369 . S
C2611 C2612 1.410 . S
C2611 C2619 1.503 . S
C2612 C2611 1.410 . S
C2612 C2613 1.392 . S
C2612 C2615 1.511 . S
C2613 C2609 1.376 . S
C2613 C2612 1.392 . S
C2613 H2625 0.929 . S
C2614 C2610 1.531 . S
C2614 H2626 0.960 . S
C2614 H2627 0.962 . S
C2614 H2628 0.960 . S
C2615 C2612 1.511 . S
C2615 H2629 0.961 . S
C2615 H2630 0.961 . S
C2615 H2631 0.961 . S
C2616 C2617 1.370 . S
C2616 C2618 1.363 . S
C2616 H2632 0.931 . S
C2617 C2616 1.370 . S
C2617 C2621 1.408 . S
C2618 C2616 1.363 . S
C2618 C2619 1.370 . S
C2618 C2622 1.524 . S
C2619 C2611 1.503 . S
C2619 C2618 1.370 . S
C2619 C2620 1.403 . S
C2620 C2619 1.403 . S
C2620 C2621 1.404 . S
C2620 C2623 1.539 . S
C2621 C2617 1.408 . S
C2621 C2620 1.404 . S
C2621 H2633 0.930 . S
C2622 C2618 1.524 . S
C2622 H2634 0.956 . S
C2622 H2635 0.961 . S
C2622 H2636 0.961 . S
C2623 C2620 1.539 . S
C2623 H2637 0.958 . S
C2623 H2638 0.961 . S
C2623 H2639 0.960 . S
H2624 C2608 0.931 . S
H2625 C2613 0.929 . S
H2626 C2614 0.960 . S
H2627 C2614 0.962 . S
H2628 C2614 0.960 . S
H2629 C2615 0.961 . S
H2630 C2615 0.961 . S
H2631 C2615 0.961 . S
H2632 C2616 0.931 . S
H2633 C2621 0.930 . S
H2634 C2622 0.956 . S
H2635 C2622 0.961 . S
H2636 C2622 0.961 . S
H2637 C2623 0.958 . S
H2638 C2623 0.961 . S
H2639 C2623 0.960 . S
C2640 C2641 1.391 . S
C2640 C2642 1.394 . S
C2640 H2656 0.931 . S
C2641 C2640 1.391 . S
C2641 C2645 1.376 . S
C2642 C2640 1.394 . S
C2642 C2643 1.369 . S
C2642 C2646 1.531 . S
C2643 C2642 1.369 . S
C2643 C2644 1.410 . S
C2643 C2651 1.503 . S
C2644 C2643 1.410 . S
C2644 C2645 1.392 . S
C2644 C2647 1.511 . S
C2645 C2641 1.376 . S
C2645 C2644 1.392 . S
C2645 H2657 0.929 . S
C2646 C2642 1.531 . S
C2646 H2658 0.960 . S
C2646 H2659 0.962 . S
C2646 H2660 0.960 . S
C2647 C2644 1.511 . S
C2647 H2661 0.961 . S
C2647 H2662 0.961 . S
C2647 H2663 0.961 . S
C2648 C2649 1.370 . S
C2648 C2650 1.363 . S
C2648 H2664 0.931 1_556 S
C2649 C2648 1.370 . S
C2649 C2653 1.408 . S
C2650 C2648 1.363 . S
C2650 C2651 1.370 . S
C2650 C2654 1.524 . S
C2651 C2643 1.503 . S
C2651 C2650 1.370 . S
C2651 C2652 1.403 . S
C2652 C2651 1.403 . S
C2652 C2653 1.404 . S
C2652 C2655 1.539 . S
C2653 C2649 1.408 . S
C2653 C2652 1.404 . S
C2653 H2665 0.930 . S
C2654 C2650 1.524 . S
C2654 H2666 0.956 . S
C2654 H2667 0.961 . S
C2654 H2668 0.961 . S
C2655 C2652 1.539 . S
C2655 H2669 0.958 . S
C2655 H2670 0.961 . S
C2655 H2671 0.960 . S
H2656 C2640 0.931 . S
H2657 C2645 0.929 . S
H2658 C2646 0.960 . S
H2659 C2646 0.962 . S
H2660 C2646 0.960 . S
H2661 C2647 0.961 . S
H2662 C2647 0.961 . S
H2663 C2647 0.961 . S
H2664 C2648 0.931 1_554 S
H2665 C2653 0.930 . S
H2666 C2654 0.956 . S
H2667 C2654 0.961 . S
H2668 C2654 0.961 . S
H2669 C2655 0.958 . S
H2670 C2655 0.961 . S
H2671 C2655 0.960 . S
C2672 C2673 1.391 . S
C2672 C2674 1.394 . S
C2672 H2688 0.931 . S
C2673 C2672 1.391 . S
C2673 C2677 1.376 . S
C2674 C2672 1.394 . S
C2674 C2675 1.369 . S
C2674 C2678 1.531 . S
C2675 C2674 1.369 . S
C2675 C2676 1.410 . S
C2675 C2683 1.503 . S
C2676 C2675 1.410 . S
C2676 C2677 1.392 . S
C2676 C2679 1.511 . S
C2677 C2673 1.376 . S
C2677 C2676 1.392 . S
C2677 H2689 0.929 . S
C2678 C2674 1.531 . S
C2678 H2690 0.960 . S
C2678 H2691 0.962 . S
C2678 H2692 0.960 . S
C2679 C2676 1.511 . S
C2679 H2693 0.961 . S
C2679 H2694 0.961 . S
C2679 H2695 0.961 . S
C2680 C2681 1.370 . S
C2680 C2682 1.363 . S
C2680 H2696 0.931 . S
C2681 C2680 1.370 . S
C2681 C2685 1.408 . S
C2682 C2680 1.363 . S
C2682 C2683 1.370 . S
C2682 C2686 1.524 . S
C2683 C2675 1.503 . S
C2683 C2682 1.370 . S
C2683 C2684 1.403 . S
C2684 C2683 1.403 . S
C2684 C2685 1.404 . S
C2684 C2687 1.539 . S
C2685 C2681 1.408 . S
C2685 C2684 1.404 . S
C2685 H2697 0.930 . S
C2686 C2682 1.524 . S
C2686 H2698 0.956 . S
C2686 H2699 0.961 . S
C2686 H2700 0.961 . S
C2687 C2684 1.539 . S
C2687 H2701 0.958 . S
C2687 H2702 0.961 . S
C2687 H2703 0.960 . S
H2688 C2672 0.931 . S
H2689 C2677 0.929 . S
H2690 C2678 0.960 . S
H2691 C2678 0.962 . S
H2692 C2678 0.960 . S
H2693 C2679 0.961 . S
H2694 C2679 0.961 . S
H2695 C2679 0.961 . S
H2696 C2680 0.931 . S
H2697 C2685 0.930 . S
H2698 C2686 0.956 . S
H2699 C2686 0.961 . S
H2700 C2686 0.961 . S
H2701 C2687 0.958 . S
H2702 C2687 0.961 . S
H2703 C2687 0.960 . S
C2704 C2705 1.391 . S
C2704 C2706 1.394 . S
C2704 H2720 0.931 . S
C2705 C2704 1.391 . S
C2705 C2709 1.376 . S
C2706 C2704 1.394 . S
C2706 C2707 1.369 . S
C2706 C2710 1.531 . S
C2707 C2706 1.369 . S
C2707 C2708 1.410 . S
C2707 C2715 1.503 . S
C2708 C2707 1.410 . S
C2708 C2709 1.392 . S
C2708 C2711 1.511 . S
C2709 C2705 1.376 . S
C2709 C2708 1.392 . S
C2709 H2721 0.929 . S
C2710 C2706 1.531 . S
C2710 H2722 0.960 . S
C2710 H2723 0.962 . S
C2710 H2724 0.960 . S
C2711 C2708 1.511 . S
C2711 H2725 0.951 1_545 S
C2711 H2726 0.961 . S
C2711 H2727 0.961 . S
C2712 C2713 1.370 . S
C2712 C2714 1.363 . S
C2712 H2728 0.931 . S
C2713 C2712 1.370 . S
C2713 C2717 1.408 . S
C2714 C2712 1.363 . S
C2714 C2715 1.370 . S
C2714 C2718 1.524 . S
C2715 C2707 1.503 . S
C2715 C2714 1.370 . S
C2715 C2716 1.403 . S
C2716 C2715 1.403 . S
C2716 C2717 1.404 . S
C2716 C2719 1.539 . S
C2717 C2713 1.408 . S
C2717 C2716 1.404 . S
C2717 H2729 0.930 . S
C2718 C2714 1.524 . S
C2718 H2730 0.956 . S
C2718 H2731 0.961 . S
C2718 H2732 0.961 . S
C2719 C2716 1.539 . S
C2719 H2733 0.958 . S
C2719 H2734 0.961 . S
C2719 H2735 0.960 . S
H2720 C2704 0.931 . S
H2721 C2709 0.929 . S
H2722 C2710 0.960 . S
H2723 C2710 0.962 . S
H2724 C2710 0.960 . S
H2725 C2711 0.951 1_565 S
H2726 C2711 0.961 . S
H2727 C2711 0.961 . S
H2728 C2712 0.931 . S
H2729 C2717 0.930 . S
H2730 C2718 0.956 . S
H2731 C2718 0.961 . S
H2732 C2718 0.961 . S
H2733 C2719 0.958 . S
H2734 C2719 0.961 . S
H2735 C2719 0.960 . S
C2736 C2737 1.391 . S
C2736 C2738 1.394 . S
C2736 H2752 0.931 . S
C2737 C2736 1.391 . S
C2737 C2741 1.376 . S
C2738 C2736 1.394 . S
C2738 C2739 1.369 . S
C2738 C2742 1.531 . S
C2739 C2738 1.369 . S
C2739 C2740 1.410 . S
C2739 C2747 1.503 . S
C2740 C2739 1.410 . S
C2740 C2741 1.392 . S
C2740 C2743 1.511 . S
C2741 C2737 1.376 . S
C2741 C2740 1.392 . S
C2741 H2753 0.929 . S
C2742 C2738 1.531 . S
C2742 H2754 0.960 . S
C2742 H2755 0.962 . S
C2742 H2756 0.960 . S
C2743 C2740 1.511 . S
C2743 H2757 0.961 . S
C2743 H2758 0.961 . S
C2743 H2759 0.961 . S
C2744 C2745 1.370 . S
C2744 C2746 1.363 . S
C2744 H2760 0.931 . S
C2745 C2744 1.370 . S
C2745 C2749 1.408 . S
C2746 C2744 1.363 . S
C2746 C2747 1.370 . S
C2746 C2750 1.524 . S
C2747 C2739 1.503 . S
C2747 C2746 1.370 . S
C2747 C2748 1.403 . S
C2748 C2747 1.403 . S
C2748 C2749 1.404 . S
C2748 C2751 1.539 . S
C2749 C2745 1.408 . S
C2749 C2748 1.404 . S
C2749 H2761 0.930 . S
C2750 C2746 1.524 . S
C2750 H2762 0.956 . S
C2750 H2763 0.961 . S
C2750 H2764 0.961 . S
C2751 C2748 1.539 . S
C2751 H2765 0.958 . S
C2751 H2766 0.961 . S
C2751 H2767 0.960 . S
H2752 C2736 0.931 . S
H2753 C2741 0.929 . S
H2754 C2742 0.960 . S
H2755 C2742 0.962 . S
H2756 C2742 0.960 . S
H2757 C2743 0.961 . S
H2758 C2743 0.961 . S
H2759 C2743 0.961 . S
H2760 C2744 0.931 . S
H2761 C2749 0.930 . S
H2762 C2750 0.956 . S
H2763 C2750 0.961 . S
H2764 C2750 0.961 . S
H2765 C2751 0.958 . S
H2766 C2751 0.961 . S
H2767 C2751 0.960 . S
C2768 C2769 1.391 . S
C2768 C2770 1.394 . S
C2768 H2784 0.931 . S
C2769 C2768 1.391 . S
C2769 C2773 1.376 . S
C2770 C2768 1.394 . S
C2770 C2771 1.369 . S
C2770 C2774 1.531 . S
C2771 C2770 1.369 . S
C2771 C2772 1.410 . S
C2771 C2779 1.503 . S
C2772 C2771 1.410 . S
C2772 C2773 1.392 . S
C2772 C2775 1.511 . S
C2773 C2769 1.376 . S
C2773 C2772 1.392 . S
C2773 H2785 0.929 . S
C2774 C2770 1.531 . S
C2774 H2786 0.960 . S
C2774 H2787 0.962 . S
C2774 H2788 0.960 . S
C2775 C2772 1.511 . S
C2775 H2789 0.961 . S
C2775 H2790 0.961 . S
C2775 H2791 0.961 . S
C2776 C2777 1.370 . S
C2776 C2778 1.363 . S
C2776 H2792 0.931 1_545 S
C2777 C2776 1.370 . S
C2777 C2781 1.408 . S
C2778 C2776 1.363 . S
C2778 C2779 1.370 . S
C2778 C2782 1.524 1_545 S
C2779 C2771 1.503 . S
C2779 C2778 1.370 . S
C2779 C2780 1.403 . S
C2780 C2779 1.403 . S
C2780 C2781 1.404 . S
C2780 C2783 1.539 . S
C2781 C2777 1.408 . S
C2781 C2780 1.404 . S
C2781 H2793 0.930 . S
C2782 C2778 1.524 1_565 S
C2782 H2794 0.956 . S
C2782 H2795 0.961 . S
C2782 H2796 0.961 . S
C2783 C2780 1.539 . S
C2783 H2797 0.958 . S
C2783 H2798 0.961 . S
C2783 H2799 0.960 . S
H2784 C2768 0.931 . S
H2785 C2773 0.929 . S
H2786 C2774 0.960 . S
H2787 C2774 0.962 . S
H2788 C2774 0.960 . S
H2789 C2775 0.961 . S
H2790 C2775 0.961 . S
H2791 C2775 0.961 . S
H2792 C2776 0.931 1_565 S
H2793 C2781 0.930 . S
H2794 C2782 0.956 . S
H2795 C2782 0.961 . S
H2796 C2782 0.961 . S
H2797 C2783 0.958 . S
H2798 C2783 0.961 . S
H2799 C2783 0.960 . S
C2800 C2801 1.391 . S
C2800 C2802 1.394 . S
C2800 H2816 0.931 . S
C2801 C2800 1.391 . S
C2801 C2805 1.376 . S
C2802 C2800 1.394 . S
C2802 C2803 1.369 . S
C2802 C2806 1.531 . S
C2803 C2802 1.369 . S
C2803 C2804 1.410 . S
C2803 C2811 1.503 . S
C2804 C2803 1.410 . S
C2804 C2805 1.392 . S
C2804 C2807 1.511 . S
C2805 C2801 1.376 . S
C2805 C2804 1.392 . S
C2805 H2817 0.929 . S
C2806 C2802 1.531 . S
C2806 H2818 0.960 . S
C2806 H2819 0.962 . S
C2806 H2820 0.960 . S
C2807 C2804 1.511 . S
C2807 H2821 0.961 . S
C2807 H2822 0.961 . S
C2807 H2823 0.961 . S
C2808 C2809 1.370 . S
C2808 C2810 1.363 . S
C2808 H2824 0.931 . S
C2809 C2808 1.370 . S
C2809 C2813 1.408 . S
C2810 C2808 1.363 . S
C2810 C2811 1.370 . S
C2810 C2814 1.524 . S
C2811 C2803 1.503 . S
C2811 C2810 1.370 . S
C2811 C2812 1.403 . S
C2812 C2811 1.403 . S
C2812 C2813 1.404 . S
C2812 C2815 1.539 . S
C2813 C2809 1.408 . S
C2813 C2812 1.404 . S
C2813 H2825 0.930 . S
C2814 C2810 1.524 . S
C2814 H2826 0.956 . S
C2814 H2827 0.961 . S
C2814 H2828 0.961 . S
C2815 C2812 1.539 . S
C2815 H2829 0.958 . S
C2815 H2830 0.961 . S
C2815 H2831 0.960 . S
H2816 C2800 0.931 . S
H2817 C2805 0.929 . S
H2818 C2806 0.960 . S
H2819 C2806 0.962 . S
H2820 C2806 0.960 . S
H2821 C2807 0.961 . S
H2822 C2807 0.961 . S
H2823 C2807 0.961 . S
H2824 C2808 0.931 . S
H2825 C2813 0.930 . S
H2826 C2814 0.956 . S
H2827 C2814 0.961 . S
H2828 C2814 0.961 . S
H2829 C2815 0.958 . S
H2830 C2815 0.961 . S
H2831 C2815 0.960 . S
C2832 C2833 1.391 . S
C2832 C2834 1.394 . S
C2832 H2848 0.931 . S
C2833 C2832 1.391 . S
C2833 C2837 1.376 . S
C2834 C2832 1.394 . S
C2834 C2835 1.369 . S
C2834 C2838 1.531 . S
C2835 C2834 1.369 . S
C2835 C2836 1.410 . S
C2835 C2843 1.503 . S
C2836 C2835 1.410 . S
C2836 C2837 1.392 . S
C2836 C2839 1.511 . S
C2837 C2833 1.376 . S
C2837 C2836 1.392 . S
C2837 H2849 0.929 . S
C2838 C2834 1.531 . S
C2838 H2850 0.960 . S
C2838 H2851 0.962 . S
C2838 H2852 0.960 . S
C2839 C2836 1.511 . S
C2839 H2853 0.961 . S
C2839 H2854 0.961 . S
C2839 H2855 0.961 . S
C2840 C2841 1.370 . S
C2840 C2842 1.363 . S
C2840 H2856 0.931 . S
C2841 C2840 1.370 . S
C2841 C2845 1.408 . S
C2842 C2840 1.363 . S
C2842 C2843 1.370 . S
C2842 C2846 1.560 . S
C2843 C2835 1.503 . S
C2843 C2842 1.370 . S
C2843 C2844 1.403 . S
C2844 C2843 1.403 . S
C2844 C2845 1.404 . S
C2844 C2847 1.539 . S
C2845 C2841 1.408 . S
C2845 C2844 1.404 . S
C2845 H2857 0.930 . S
C2846 C2842 1.560 . S
C2846 H2858 0.956 1_545 S
C2846 H2859 0.953 . S
C2846 H2860 0.935 1_545 S
C2847 C2844 1.539 . S
C2847 H2861 0.958 . S
C2847 H2862 0.961 . S
C2847 H2863 0.960 . S
H2848 C2832 0.931 . S
H2849 C2837 0.929 . S
H2850 C2838 0.960 . S
H2851 C2838 0.962 . S
H2852 C2838 0.960 . S
H2853 C2839 0.961 . S
H2854 C2839 0.961 . S
H2855 C2839 0.961 . S
H2856 C2840 0.931 . S
H2857 C2845 0.930 . S
H2858 C2846 0.956 1_565 S
H2859 C2846 0.953 . S
H2860 C2846 0.935 1_565 S
H2861 C2847 0.958 . S
H2862 C2847 0.961 . S
H2863 C2847 0.960 . S
C2864 C2865 1.391 . S
C2864 C2866 1.394 . S
C2864 H2880 0.931 . S
C2865 C2864 1.391 . S
C2865 C2869 1.376 . S
C2866 C2864 1.394 . S
C2866 C2867 1.369 . S
C2866 C2870 1.531 . S
C2867 C2866 1.369 . S
C2867 C2868 1.410 . S
C2867 C2875 1.503 . S
C2868 C2867 1.410 . S
C2868 C2869 1.392 . S
C2868 C2871 1.511 . S
C2869 C2865 1.376 . S
C2869 C2868 1.392 . S
C2869 H2881 0.929 . S
C2870 C2866 1.531 . S
C2870 H2882 0.960 . S
C2870 H2883 0.962 . S
C2870 H2884 0.960 . S
C2871 C2868 1.511 . S
C2871 H2885 0.961 . S
C2871 H2886 0.961 . S
C2871 H2887 0.961 . S
C2872 C2873 1.370 . S
C2872 C2874 1.363 . S
C2872 H2888 0.931 . S
C2873 C2872 1.370 . S
C2873 C2877 1.408 . S
C2874 C2872 1.363 . S
C2874 C2875 1.370 . S
C2874 C2878 1.524 . S
C2875 C2867 1.503 . S
C2875 C2874 1.370 . S
C2875 C2876 1.403 . S
C2876 C2875 1.403 . S
C2876 C2877 1.404 . S
C2876 C2879 1.539 . S
C2877 C2873 1.408 . S
C2877 C2876 1.404 . S
C2877 H2889 0.930 . S
C2878 C2874 1.524 . S
C2878 H2890 0.956 . S
C2878 H2891 0.961 . S
C2878 H2892 0.961 . S
C2879 C2876 1.539 . S
C2879 H2893 0.958 . S
C2879 H2894 0.961 . S
C2879 H2895 0.960 . S
H2880 C2864 0.931 . S
H2881 C2869 0.929 . S
H2882 C2870 0.960 . S
H2883 C2870 0.962 . S
H2884 C2870 0.960 . S
H2885 C2871 0.961 . S
H2886 C2871 0.961 . S
H2887 C2871 0.961 . S
H2888 C2872 0.931 . S
H2889 C2877 0.930 . S
H2890 C2878 0.956 . S
H2891 C2878 0.961 . S
H2892 C2878 0.961 . S
H2893 C2879 0.958 . S
H2894 C2879 0.961 . S
H2895 C2879 0.960 . S
C2896 C2897 1.391 1_565 S
C2896 C2898 1.394 . S
C2896 H2912 0.931 . S
C2897 C2896 1.391 1_545 S
C2897 C2901 1.376 . S
C2898 C2896 1.394 . S
C2898 C2899 1.369 1_565 S
C2898 C2902 1.531 . S
C2899 C2898 1.369 1_545 S
C2899 C2900 1.410 . S
C2899 C2907 1.503 . S
C2900 C2899 1.410 . S
C2900 C2901 1.392 . S
C2900 C2903 1.511 . S
C2901 C2897 1.376 . S
C2901 C2900 1.392 . S
C2901 H2913 0.929 . S
C2902 C2898 1.531 . S
C2902 H2914 0.960 . S
C2902 H2915 0.962 . S
C2902 H2916 0.960 . S
C2903 C2900 1.511 . S
C2903 H2917 0.961 . S
C2903 H2918 0.961 . S
C2903 H2919 0.961 . S
C2904 C2905 1.370 . S
C2904 C2906 1.362 . S
C2904 H2920 0.931 1_545 S
C2905 C2904 1.370 . S
C2905 C2909 1.408 . S
C2906 C2904 1.362 . S
C2906 C2907 1.405 . S
C2906 C2910 1.492 1_545 S
C2907 C2899 1.503 . S
C2907 C2906 1.405 . S
C2907 C2908 1.403 . S
C2908 C2907 1.403 . S
C2908 C2909 1.404 . S
C2908 C2911 1.539 . S
C2909 C2905 1.408 . S
C2909 C2908 1.404 . S
C2909 H2921 0.930 . S
C2910 C2906 1.492 1_565 S
C2910 H2922 0.956 . S
C2910 H2923 0.961 . S
C2910 H2924 0.961 . S
C2911 C2908 1.539 . S
C2911 H2925 0.958 . S
C2911 H2926 0.961 . S
C2911 H2927 0.960 . S
H2912 C2896 0.931 . S
H2913 C2901 0.929 . S
H2914 C2902 0.960 . S
H2915 C2902 0.962 . S
H2916 C2902 0.960 . S
H2917 C2903 0.961 . S
H2918 C2903 0.961 . S
H2919 C2903 0.961 . S
H2920 C2904 0.931 1_565 S
H2921 C2909 0.930 . S
H2922 C2910 0.956 . S
H2923 C2910 0.961 . S
H2924 C2910 0.961 . S
H2925 C2911 0.958 . S
H2926 C2911 0.961 . S
H2927 C2911 0.960 . S
C2928 C2929 1.391 . S
C2928 C2930 1.394 . S
C2928 H2944 0.931 . S
C2929 C2928 1.391 . S
C2929 C2933 1.376 . S
C2930 C2928 1.394 . S
C2930 C2931 1.369 . S
C2930 C2934 1.531 . S
C2931 C2930 1.369 . S
C2931 C2932 1.410 . S
C2931 C2939 1.503 . S
C2932 C2931 1.410 . S
C2932 C2933 1.392 . S
C2932 C2935 1.511 . S
C2933 C2929 1.376 . S
C2933 C2932 1.392 . S
C2933 H2945 0.929 . S
C2934 C2930 1.531 . S
C2934 H2946 0.960 . S
C2934 H2947 0.962 . S
C2934 H2948 0.960 . S
C2935 C2932 1.511 . S
C2935 H2949 0.961 . S
C2935 H2950 0.961 . S
C2935 H2951 0.961 . S
C2936 C2937 1.370 . S
C2936 C2938 1.363 . S
C2936 H2952 0.931 . S
C2937 C2936 1.370 . S
C2937 C2941 1.408 . S
C2938 C2936 1.363 . S
C2938 C2939 1.370 . S
C2938 C2942 1.524 . S
C2939 C2931 1.503 . S
C2939 C2938 1.370 . S
C2939 C2940 1.403 . S
C2940 C2939 1.403 . S
C2940 C2941 1.404 . S
C2940 C2943 1.539 . S
C2941 C2937 1.408 . S
C2941 C2940 1.404 . S
C2941 H2953 0.930 . S
C2942 C2938 1.524 . S
C2942 H2954 0.956 . S
C2942 H2955 0.961 . S
C2942 H2956 0.961 . S
C2943 C2940 1.539 . S
C2943 H2957 0.958 . S
C2943 H2958 0.961 . S
C2943 H2959 0.960 . S
H2944 C2928 0.931 . S
H2945 C2933 0.929 . S
H2946 C2934 0.960 . S
H2947 C2934 0.962 . S
H2948 C2934 0.960 . S
H2949 C2935 0.961 . S
H2950 C2935 0.961 . S
H2951 C2935 0.961 . S
H2952 C2936 0.931 . S
H2953 C2941 0.930 . S
H2954 C2942 0.956 . S
H2955 C2942 0.961 . S
H2956 C2942 0.961 . S
H2957 C2943 0.958 . S
H2958 C2943 0.961 . S
H2959 C2943 0.960 . S
C2960 C2961 1.391 . S
C2960 C2962 1.394 . S
C2960 H2976 0.931 . S
C2961 C2960 1.391 . S
C2961 C2965 1.376 . S
C2962 C2960 1.394 . S
C2962 C2963 1.369 . S
C2962 C2966 1.531 . S
C2963 C2962 1.369 . S
C2963 C2964 1.410 . S
C2963 C2971 1.503 . S
C2964 C2963 1.410 . S
C2964 C2965 1.392 . S
C2964 C2967 1.511 . S
C2965 C2961 1.376 . S
C2965 C2964 1.392 . S
C2965 H2977 0.929 . S
C2966 C2962 1.531 . S
C2966 H2978 0.960 . S
C2966 H2979 0.962 . S
C2966 H2980 0.960 . S
C2967 C2964 1.511 . S
C2967 H2981 0.961 . S
C2967 H2982 0.961 . S
C2967 H2983 0.961 . S
C2968 C2969 1.370 . S
C2968 C2970 1.363 . S
C2968 H2984 0.931 . S
C2969 C2968 1.370 . S
C2969 C2973 1.408 . S
C2970 C2968 1.363 . S
C2970 C2971 1.370 . S
C2970 C2974 1.524 . S
C2971 C2963 1.503 . S
C2971 C2970 1.370 . S
C2971 C2972 1.403 . S
C2972 C2971 1.403 . S
C2972 C2973 1.404 . S
C2972 C2975 1.539 . S
C2973 C2969 1.408 . S
C2973 C2972 1.404 . S
C2973 H2985 0.930 . S
C2974 C2970 1.524 . S
C2974 H2986 0.956 . S
C2974 H2987 0.961 . S
C2974 H2988 0.961 . S
C2975 C2972 1.539 . S
C2975 H2989 0.958 . S
C2975 H2990 0.961 . S
C2975 H2991 0.960 . S
H2976 C2960 0.931 . S
H2977 C2965 0.929 . S
H2978 C2966 0.960 . S
H2979 C2966 0.962 . S
H2980 C2966 0.960 . S
H2981 C2967 0.961 . S
H2982 C2967 0.961 . S
H2983 C2967 0.961 . S
H2984 C2968 0.931 . S
H2985 C2973 0.930 . S
H2986 C2974 0.956 . S
H2987 C2974 0.961 . S
H2988 C2974 0.961 . S
H2989 C2975 0.958 . S
H2990 C2975 0.961 . S
H2991 C2975 0.960 . S
C2992 C2993 1.391 . S
C2992 C2994 1.394 . S
C2992 H3008 0.931 . S
C2993 C2992 1.391 . S
C2993 C2997 1.376 . S
C2994 C2992 1.394 . S
C2994 C2995 1.369 . S
C2994 C2998 1.531 . S
C2995 C2994 1.369 . S
C2995 C2996 1.410 . S
C2995 C3003 1.503 . S
C2996 C2995 1.410 . S
C2996 C2997 1.392 . S
C2996 C2999 1.511 . S
C2997 C2993 1.376 . S
C2997 C2996 1.392 . S
C2997 H3009 0.929 . S
C2998 C2994 1.531 . S
C2998 H3010 0.960 . S
C2998 H3011 0.962 . S
C2998 H3012 0.960 . S
C2999 C2996 1.511 . S
C2999 H3013 0.961 . S
C2999 H3014 0.961 . S
C2999 H3015 0.961 . S
C3000 C3001 1.370 . S
C3000 C3002 1.363 . S
C3000 H3016 0.931 . S
C3001 C3000 1.370 . S
C3001 C3005 1.408 . S
C3002 C3000 1.363 . S
C3002 C3003 1.370 . S
C3002 C3006 1.524 . S
C3003 C2995 1.503 . S
C3003 C3002 1.370 . S
C3003 C3004 1.403 . S
C3004 C3003 1.403 . S
C3004 C3005 1.404 . S
C3004 C3007 1.539 . S
C3005 C3001 1.408 . S
C3005 C3004 1.404 . S
C3005 H3017 0.930 . S
C3006 C3002 1.524 . S
C3006 H3018 0.956 . S
C3006 H3019 0.961 . S
C3006 H3020 0.961 . S
C3007 C3004 1.539 . S
C3007 H3021 0.958 . S
C3007 H3022 0.961 . S
C3007 H3023 0.960 . S
H3008 C2992 0.931 . S
H3009 C2997 0.929 . S
H3010 C2998 0.960 . S
H3011 C2998 0.962 . S
H3012 C2998 0.960 . S
H3013 C2999 0.961 . S
H3014 C2999 0.961 . S
H3015 C2999 0.961 . S
H3016 C3000 0.931 . S
H3017 C3005 0.930 . S
H3018 C3006 0.956 . S
H3019 C3006 0.961 . S
H3020 C3006 0.961 . S
H3021 C3007 0.958 . S
H3022 C3007 0.961 . S
H3023 C3007 0.960 . S
C3024 C3025 1.391 . S
C3024 C3026 1.394 . S
C3024 H3040 0.931 . S
C3025 C3024 1.391 . S
C3025 C3029 1.376 . S
C3026 C3024 1.394 . S
C3026 C3027 1.369 . S
C3026 C3030 1.531 . S
C3027 C3026 1.369 . S
C3027 C3028 1.410 . S
C3027 C3035 1.503 . S
C3028 C3027 1.410 . S
C3028 C3029 1.392 . S
C3028 C3031 1.511 . S
C3029 C3025 1.376 . S
C3029 C3028 1.392 . S
C3029 H3041 0.929 . S
C3030 C3026 1.531 . S
C3030 H3042 0.960 . S
C3030 H3043 0.962 . S
C3030 H3044 0.960 . S
C3031 C3028 1.511 . S
C3031 H3045 0.961 . S
C3031 H3046 0.961 . S
C3031 H3047 0.961 . S
C3032 C3033 1.370 . S
C3032 C3034 1.363 . S
C3032 H3048 0.931 . S
C3033 C3032 1.370 . S
C3033 C3037 1.408 . S
C3034 C3032 1.363 . S
C3034 C3035 1.370 . S
C3034 C3038 1.524 . S
C3035 C3027 1.503 . S
C3035 C3034 1.370 . S
C3035 C3036 1.403 . S
C3036 C3035 1.403 . S
C3036 C3037 1.404 . S
C3036 C3039 1.539 . S
C3037 C3033 1.408 . S
C3037 C3036 1.404 . S
C3037 H3049 0.930 . S
C3038 C3034 1.524 . S
C3038 H3050 0.956 . S
C3038 H3051 0.961 . S
C3038 H3052 0.961 . S
C3039 C3036 1.539 . S
C3039 H3053 0.958 . S
C3039 H3054 0.961 . S
C3039 H3055 0.960 . S
H3040 C3024 0.931 . S
H3041 C3029 0.929 . S
H3042 C3030 0.960 . S
H3043 C3030 0.962 . S
H3044 C3030 0.960 . S
H3045 C3031 0.961 . S
H3046 C3031 0.961 . S
H3047 C3031 0.961 . S
H3048 C3032 0.931 . S
H3049 C3037 0.930 . S
H3050 C3038 0.956 . S
H3051 C3038 0.961 . S
H3052 C3038 0.961 . S
H3053 C3039 0.958 . S
H3054 C3039 0.961 . S
H3055 C3039 0.960 . S
C3056 C3057 1.391 . S
C3056 C3058 1.394 . S
C3056 H3072 0.931 . S
C3057 C3056 1.391 . S
C3057 C3061 1.376 . S
C3058 C3056 1.394 . S
C3058 C3059 1.369 . S
C3058 C3062 1.531 . S
C3059 C3058 1.369 . S
C3059 C3060 1.410 . S
C3059 C3067 1.503 . S
C3060 C3059 1.410 . S
C3060 C3061 1.392 . S
C3060 C3063 1.511 . S
C3061 C3057 1.376 . S
C3061 C3060 1.392 . S
C3061 H3073 0.929 . S
C3062 C3058 1.531 . S
C3062 H3074 0.960 . S
C3062 H3075 0.962 . S
C3062 H3076 0.960 . S
C3063 C3060 1.511 . S
C3063 H3077 0.961 . S
C3063 H3078 0.961 . S
C3063 H3079 0.961 . S
C3064 C3065 1.370 . S
C3064 C3066 1.363 . S
C3064 H3080 0.931 . S
C3065 C3064 1.370 . S
C3065 C3069 1.408 . S
C3066 C3064 1.363 . S
C3066 C3067 1.370 . S
C3066 C3070 1.524 . S
C3067 C3059 1.503 . S
C3067 C3066 1.370 . S
C3067 C3068 1.403 . S
C3068 C3067 1.403 . S
C3068 C3069 1.404 . S
C3068 C3071 1.539 . S
C3069 C3065 1.408 . S
C3069 C3068 1.404 . S
C3069 H3081 0.930 . S
C3070 C3066 1.524 . S
C3070 H3082 0.956 . S
C3070 H3083 0.961 . S
C3070 H3084 0.961 . S
C3071 C3068 1.539 . S
C3071 H3085 0.958 . S
C3071 H3086 0.961 . S
C3071 H3087 0.960 . S
H3072 C3056 0.931 . S
H3073 C3061 0.929 . S
H3074 C3062 0.960 . S
H3075 C3062 0.962 . S
H3076 C3062 0.960 . S
H3077 C3063 0.961 . S
H3078 C3063 0.961 . S
H3079 C3063 0.961 . S
H3080 C3064 0.931 . S
H3081 C3069 0.930 . S
H3082 C3070 0.956 . S
H3083 C3070 0.961 . S
H3084 C3070 0.961 . S
H3085 C3071 0.958 . S
H3086 C3071 0.961 . S
H3087 C3071 0.960 . S
C3088 C3089 1.391 . S
C3088 C3090 1.394 . S
C3088 H3104 0.931 . S
C3089 C3088 1.391 . S
C3089 C3093 1.376 . S
C3090 C3088 1.394 . S
C3090 C3091 1.369 . S
C3090 C3094 1.531 . S
C3091 C3090 1.369 . S
C3091 C3092 1.410 . S
C3091 C3099 1.503 . S
C3092 C3091 1.410 . S
C3092 C3093 1.392 . S
C3092 C3095 1.511 . S
C3093 C3089 1.376 . S
C3093 C3092 1.392 . S
C3093 H3105 0.929 1_565 S
C3094 C3090 1.531 . S
C3094 H3106 0.960 . S
C3094 H3107 0.962 . S
C3094 H3108 0.960 . S
C3095 C3092 1.511 . S
C3095 H3109 0.961 . S
C3095 H3110 0.961 . S
C3095 H3111 0.961 . S
C3096 C3097 1.370 . S
C3096 C3098 1.363 . S
C3096 H3112 0.931 . S
C3097 C3096 1.370 . S
C3097 C3101 1.408 . S
C3098 C3096 1.363 . S
C3098 C3099 1.370 . S
C3098 C3102 1.524 . S
C3099 C3091 1.503 . S
C3099 C3098 1.370 . S
C3099 C3100 1.403 . S
C3100 C3099 1.403 . S
C3100 C3101 1.404 . S
C3100 C3103 1.539 . S
C3101 C3097 1.408 . S
C3101 C3100 1.404 . S
C3101 H3113 0.930 . S
C3102 C3098 1.524 . S
C3102 H3114 0.956 . S
C3102 H3115 0.961 . S
C3102 H3116 0.961 . S
C3103 C3100 1.539 . S
C3103 H3117 0.958 . S
C3103 H3118 0.961 . S
C3103 H3119 0.960 . S
H3104 C3088 0.931 . S
H3105 C3093 0.929 1_545 S
H3106 C3094 0.960 . S
H3107 C3094 0.962 . S
H3108 C3094 0.960 . S
H3109 C3095 0.961 . S
H3110 C3095 0.961 . S
H3111 C3095 0.961 . S
H3112 C3096 0.931 . S
H3113 C3101 0.930 . S
H3114 C3102 0.956 . S
H3115 C3102 0.961 . S
H3116 C3102 0.961 . S
H3117 C3103 0.958 . S
H3118 C3103 0.961 . S
H3119 C3103 0.960 . S
C3120 C3121 1.391 . S
C3120 C3122 1.394 . S
C3120 H3136 0.931 . S
C3121 C3120 1.391 . S
C3121 C3125 1.376 . S
C3122 C3120 1.394 . S
C3122 C3123 1.369 . S
C3122 C3126 1.531 . S
C3123 C3122 1.369 . S
C3123 C3124 1.410 . S
C3123 C3131 1.503 . S
C3124 C3123 1.410 . S
C3124 C3125 1.392 . S
C3124 C3127 1.511 . S
C3125 C3121 1.376 . S
C3125 C3124 1.392 . S
C3125 H3137 0.929 . S
C3126 C3122 1.531 . S
C3126 H3138 0.960 . S
C3126 H3139 0.962 . S
C3126 H3140 0.960 . S
C3127 C3124 1.511 . S
C3127 H3141 0.961 . S
C3127 H3142 0.961 . S
C3127 H3143 0.961 . S
C3128 C3129 1.370 . S
C3128 C3130 1.363 . S
C3128 H3144 0.931 . S
C3129 C3128 1.370 . S
C3129 C3133 1.408 . S
C3130 C3128 1.363 . S
C3130 C3131 1.370 . S
C3130 C3134 1.524 . S
C3131 C3123 1.503 . S
C3131 C3130 1.370 . S
C3131 C3132 1.403 . S
C3132 C3131 1.403 . S
C3132 C3133 1.404 . S
C3132 C3135 1.539 . S
C3133 C3129 1.408 . S
C3133 C3132 1.404 . S
C3133 H3145 0.930 . S
C3134 C3130 1.524 . S
C3134 H3146 0.956 . S
C3134 H3147 0.961 . S
C3134 H3148 0.961 . S
C3135 C3132 1.539 . S
C3135 H3149 0.958 . S
C3135 H3150 0.961 . S
C3135 H3151 0.960 . S
H3136 C3120 0.931 . S
H3137 C3125 0.929 . S
H3138 C3126 0.960 . S
H3139 C3126 0.962 . S
H3140 C3126 0.960 . S
H3141 C3127 0.961 . S
H3142 C3127 0.961 . S
H3143 C3127 0.961 . S
H3144 C3128 0.931 . S
H3145 C3133 0.930 . S
H3146 C3134 0.956 . S
H3147 C3134 0.961 . S
H3148 C3134 0.961 . S
H3149 C3135 0.958 . S
H3150 C3135 0.961 . S
H3151 C3135 0.960 . S
C3152 C3153 1.391 . S
C3152 C3154 1.394 . S
C3152 H3168 0.931 . S
C3153 C3152 1.391 . S
C3153 C3157 1.376 . S
C3154 C3152 1.394 . S
C3154 C3155 1.369 . S
C3154 C3158 1.531 . S
C3155 C3154 1.369 . S
C3155 C3156 1.410 . S
C3155 C3163 1.503 . S
C3156 C3155 1.410 . S
C3156 C3157 1.392 . S
C3156 C3159 1.511 . S
C3157 C3153 1.376 . S
C3157 C3156 1.392 . S
C3157 H3169 0.929 . S
C3158 C3154 1.531 . S
C3158 H3170 0.960 . S
C3158 H3171 0.962 . S
C3158 H3172 0.960 . S
C3159 C3156 1.511 . S
C3159 H3173 0.961 . S
C3159 H3174 0.961 . S
C3159 H3175 0.961 . S
C3160 C3161 1.370 . S
C3160 C3162 1.363 . S
C3160 H3176 0.931 . S
C3161 C3160 1.370 . S
C3161 C3165 1.408 . S
C3162 C3160 1.363 . S
C3162 C3163 1.370 . S
C3162 C3166 1.524 . S
C3163 C3155 1.503 . S
C3163 C3162 1.370 . S
C3163 C3164 1.403 . S
C3164 C3163 1.403 . S
C3164 C3165 1.404 . S
C3164 C3167 1.539 . S
C3165 C3161 1.408 . S
C3165 C3164 1.404 . S
C3165 H3177 0.930 . S
C3166 C3162 1.524 . S
C3166 H3178 0.956 . S
C3166 H3179 0.961 . S
C3166 H3180 0.961 . S
C3167 C3164 1.539 . S
C3167 H3181 0.958 . S
C3167 H3182 0.961 . S
C3167 H3183 0.960 . S
H3168 C3152 0.931 . S
H3169 C3157 0.929 . S
H3170 C3158 0.960 . S
H3171 C3158 0.962 . S
H3172 C3158 0.960 . S
H3173 C3159 0.961 . S
H3174 C3159 0.961 . S
H3175 C3159 0.961 . S
H3176 C3160 0.931 . S
H3177 C3165 0.930 . S
H3178 C3166 0.956 . S
H3179 C3166 0.961 . S
H3180 C3166 0.961 . S
H3181 C3167 0.958 . S
H3182 C3167 0.961 . S
H3183 C3167 0.960 . S
C3184 C3185 1.391 . S
C3184 C3186 1.394 . S
C3184 H3200 0.931 . S
C3185 C3184 1.391 . S
C3185 C3189 1.376 . S
C3186 C3184 1.394 . S
C3186 C3187 1.369 . S
C3186 C3190 1.531 . S
C3187 C3186 1.369 . S
C3187 C3188 1.410 . S
C3187 C3195 1.503 . S
C3188 C3187 1.410 . S
C3188 C3189 1.392 . S
C3188 C3191 1.511 . S
C3189 C3185 1.376 . S
C3189 C3188 1.392 . S
C3189 H3201 0.929 . S
C3190 C3186 1.531 . S
C3190 H3202 0.960 . S
C3190 H3203 0.962 . S
C3190 H3204 0.960 . S
C3191 C3188 1.511 . S
C3191 H3205 0.961 . S
C3191 H3206 0.961 . S
C3191 H3207 0.961 . S
C3192 C3193 1.370 . S
C3192 C3194 1.363 . S
C3192 H3208 0.931 . S
C3193 C3192 1.370 . S
C3193 C3197 1.408 . S
C3194 C3192 1.363 . S
C3194 C3195 1.370 . S
C3194 C3198 1.524 . S
C3195 C3187 1.503 . S
C3195 C3194 1.370 . S
C3195 C3196 1.403 . S
C3196 C3195 1.403 . S
C3196 C3197 1.404 . S
C3196 C3199 1.539 . S
C3197 C3193 1.408 . S
C3197 C3196 1.404 . S
C3197 H3209 0.930 . S
C3198 C3194 1.524 . S
C3198 H3210 0.956 . S
C3198 H3211 0.961 . S
C3198 H3212 0.961 . S
C3199 C3196 1.539 . S
C3199 H3213 0.958 . S
C3199 H3214 0.961 . S
C3199 H3215 0.960 . S
H3200 C3184 0.931 . S
H3201 C3189 0.929 . S
H3202 C3190 0.960 . S
H3203 C3190 0.962 . S
H3204 C3190 0.960 . S
H3205 C3191 0.961 . S
H3206 C3191 0.961 . S
H3207 C3191 0.961 . S
H3208 C3192 0.931 . S
H3209 C3197 0.930 . S
H3210 C3198 0.956 . S
H3211 C3198 0.961 . S
H3212 C3198 0.961 . S
H3213 C3199 0.958 . S
H3214 C3199 0.961 . S
H3215 C3199 0.960 . S
C3216 C3217 1.391 . S
C3216 C3218 1.394 . S
C3216 H3232 0.931 . S
C3217 C3216 1.391 . S
C3217 C3221 1.376 . S
C3218 C3216 1.394 . S
C3218 C3219 1.369 . S
C3218 C3222 1.531 . S
C3219 C3218 1.369 . S
C3219 C3220 1.410 . S
C3219 C3227 1.503 . S
C3220 C3219 1.410 . S
C3220 C3221 1.392 . S
C3220 C3223 1.511 . S
C3221 C3217 1.376 . S
C3221 C3220 1.392 . S
C3221 H3233 0.929 . S
C3222 C3218 1.531 . S
C3222 H3234 0.960 . S
C3222 H3235 0.962 . S
C3222 H3236 0.960 . S
C3223 C3220 1.511 . S
C3223 H3237 0.961 . S
C3223 H3238 0.961 . S
C3223 H3239 0.961 . S
C3224 C3225 1.370 . S
C3224 C3226 1.363 . S
C3224 H3240 0.931 . S
C3225 C3224 1.370 . S
C3225 C3229 1.408 . S
C3226 C3224 1.363 . S
C3226 C3227 1.370 . S
C3226 C3230 1.524 . S
C3227 C3219 1.503 . S
C3227 C3226 1.370 . S
C3227 C3228 1.403 . S
C3228 C3227 1.403 . S
C3228 C3229 1.404 . S
C3228 C3231 1.539 . S
C3229 C3225 1.408 . S
C3229 C3228 1.404 . S
C3229 H3241 0.930 . S
C3230 C3226 1.524 . S
C3230 H3242 0.956 . S
C3230 H3243 0.961 . S
C3230 H3244 0.961 . S
C3231 C3228 1.539 . S
C3231 H3245 0.958 . S
C3231 H3246 0.961 . S
C3231 H3247 0.960 . S
H3232 C3216 0.931 . S
H3233 C3221 0.929 . S
H3234 C3222 0.960 . S
H3235 C3222 0.962 . S
H3236 C3222 0.960 . S
H3237 C3223 0.961 . S
H3238 C3223 0.961 . S
H3239 C3223 0.961 . S
H3240 C3224 0.931 . S
H3241 C3229 0.930 . S
H3242 C3230 0.956 . S
H3243 C3230 0.961 . S
H3244 C3230 0.961 . S
H3245 C3231 0.958 . S
H3246 C3231 0.961 . S
H3247 C3231 0.960 . S
C3248 C3249 1.391 . S
C3248 C3250 1.394 . S
C3248 H3264 0.931 . S
C3249 C3248 1.391 . S
C3249 C3253 1.376 . S
C3250 C3248 1.394 . S
C3250 C3251 1.369 . S
C3250 C3254 1.531 . S
C3251 C3250 1.369 . S
C3251 C3252 1.410 . S
C3251 C3259 1.503 . S
C3252 C3251 1.410 . S
C3252 C3253 1.392 . S
C3252 C3255 1.511 . S
C3253 C3249 1.376 . S
C3253 C3252 1.392 . S
C3253 H3265 0.929 . S
C3254 C3250 1.531 . S
C3254 H3266 0.960 . S
C3254 H3267 0.962 . S
C3254 H3268 0.960 . S
C3255 C3252 1.511 . S
C3255 H3269 0.961 . S
C3255 H3270 0.961 . S
C3255 H3271 0.961 . S
C3256 C3257 1.370 . S
C3256 C3258 1.363 . S
C3256 H3272 0.931 . S
C3257 C3256 1.370 . S
C3257 C3261 1.408 . S
C3258 C3256 1.363 . S
C3258 C3259 1.370 . S
C3258 C3262 1.524 . S
C3259 C3251 1.503 . S
C3259 C3258 1.370 . S
C3259 C3260 1.403 . S
C3260 C3259 1.403 . S
C3260 C3261 1.404 . S
C3260 C3263 1.539 . S
C3261 C3257 1.408 . S
C3261 C3260 1.404 . S
C3261 H3273 0.930 . S
C3262 C3258 1.524 . S
C3262 H3274 0.956 . S
C3262 H3275 0.961 . S
C3262 H3276 0.961 . S
C3263 C3260 1.539 . S
C3263 H3277 0.958 . S
C3263 H3278 0.961 . S
C3263 H3279 0.960 . S
H3264 C3248 0.931 . S
H3265 C3253 0.929 . S
H3266 C3254 0.960 . S
H3267 C3254 0.962 . S
H3268 C3254 0.960 . S
H3269 C3255 0.961 . S
H3270 C3255 0.961 . S
H3271 C3255 0.961 . S
H3272 C3256 0.931 . S
H3273 C3261 0.930 . S
H3274 C3262 0.956 . S
H3275 C3262 0.961 . S
H3276 C3262 0.961 . S
H3277 C3263 0.958 . S
H3278 C3263 0.961 . S
H3279 C3263 0.960 . S
C3280 C3281 1.391 1_654 S
C3280 C3282 1.394 . S
C3280 H3296 0.931 . S
C3281 C3280 1.391 1_456 S
C3281 C3285 1.376 . S
C3282 C3280 1.394 . S
C3282 C3283 1.369 1_655 S
C3282 C3286 1.531 . S
C3283 C3282 1.369 1_455 S
C3283 C3284 1.410 . S
C3283 C3291 1.503 . S
C3284 C3283 1.410 . S
C3284 C3285 1.392 1_554 S
C3284 C3287 1.511 . S
C3285 C3281 1.376 . S
C3285 C3284 1.392 1_556 S
C3285 H3297 0.929 . S
C3286 C3282 1.531 . S
C3286 H3298 0.960 . S
C3286 H3299 0.962 . S
C3286 H3300 0.960 . S
C3287 C3284 1.511 . S
C3287 H3301 0.961 1_554 S
C3287 H3302 0.961 . S
C3287 H3303 0.961 . S
C3288 C3289 1.370 . S
C3288 C3290 1.363 . S
C3288 H3304 0.931 . S
C3289 C3288 1.370 . S
C3289 C3293 1.408 . S
C3290 C3288 1.363 . S
C3290 C3291 1.370 . S
C3290 C3294 1.523 1_554 S
C3291 C3283 1.503 . S
C3291 C3290 1.370 . S
C3291 C3292 1.403 . S
C3292 C3291 1.403 . S
C3292 C3293 1.404 . S
C3292 C3295 1.539 . S
C3293 C3289 1.408 . S
C3293 C3292 1.404 . S
C3293 H3305 0.930 . S
C3294 C3290 1.523 1_556 S
C3294 H3306 0.959 1_455 S
C3294 H3307 0.957 . S
C3294 H3308 0.962 1_455 S
C3295 C3292 1.539 . S
C3295 H3309 0.958 . S
C3295 H3310 0.961 . S
C3295 H3311 0.960 . S
H3296 C3280 0.931 . S
H3297 C3285 0.929 . S
H3298 C3286 0.960 . S
H3299 C3286 0.962 . S
H3300 C3286 0.960 . S
H3301 C3287 0.961 1_556 S
H3302 C3287 0.961 . S
H3303 C3287 0.961 . S
H3304 C3288 0.931 . S
H3305 C3293 0.930 . S
H3306 C3294 0.959 1_655 S
H3307 C3294 0.957 . S
H3308 C3294 0.962 1_655 S
H3309 C3295 0.958 . S
H3310 C3295 0.961 . S
H3311 C3295 0.960 . S
C3312 C3313 1.391 . S
C3312 C3314 1.394 . S
C3312 H3328 0.931 1_655 S
C3313 C3312 1.391 . S
C3313 C3317 1.376 . S
C3314 C3312 1.394 . S
C3314 C3315 1.369 . S
C3314 C3318 1.531 . S
C3315 C3314 1.369 . S
C3315 C3316 1.410 . S
C3315 C3323 1.503 . S
C3316 C3315 1.410 . S
C3316 C3317 1.392 . S
C3316 C3319 1.511 . S
C3317 C3313 1.376 . S
C3317 C3316 1.392 . S
C3317 H3329 0.929 . S
C3318 C3314 1.531 . S
C3318 H3330 0.960 . S
C3318 H3331 0.962 . S
C3318 H3332 0.960 . S
C3319 C3316 1.511 . S
C3319 H3333 0.961 . S
C3319 H3334 0.961 . S
C3319 H3335 0.961 . S
C3320 C3321 1.370 . S
C3320 C3322 1.363 . S
C3320 H3336 0.931 . S
C3321 C3320 1.370 . S
C3321 C3325 1.408 . S
C3322 C3320 1.363 . S
C3322 C3323 1.370 . S
C3322 C3326 1.524 . S
C3323 C3315 1.503 . S
C3323 C3322 1.370 . S
C3323 C3324 1.403 . S
C3324 C3323 1.403 . S
C3324 C3325 1.404 . S
C3324 C3327 1.539 . S
C3325 C3321 1.408 . S
C3325 C3324 1.404 . S
C3325 H3337 0.930 . S
C3326 C3322 1.524 . S
C3326 H3338 0.956 . S
C3326 H3339 0.961 . S
C3326 H3340 0.961 . S
C3327 C3324 1.539 . S
C3327 H3341 0.958 . S
C3327 H3342 0.961 . S
C3327 H3343 0.960 . S
H3328 C3312 0.931 1_455 S
H3329 C3317 0.929 . S
H3330 C3318 0.960 . S
H3331 C3318 0.962 . S
H3332 C3318 0.960 . S
H3333 C3319 0.961 . S
H3334 C3319 0.961 . S
H3335 C3319 0.961 . S
H3336 C3320 0.931 . S
H3337 C3325 0.930 . S
H3338 C3326 0.956 . S
H3339 C3326 0.961 . S
H3340 C3326 0.961 . S
H3341 C3327 0.958 . S
H3342 C3327 0.961 . S
H3343 C3327 0.960 . S
C3344 C3345 1.391 . S
C3344 C3346 1.394 . S
C3344 H3360 0.931 . S
C3345 C3344 1.391 . S
C3345 C3349 1.376 . S
C3346 C3344 1.394 . S
C3346 C3347 1.369 . S
C3346 C3350 1.531 . S
C3347 C3346 1.369 . S
C3347 C3348 1.410 . S
C3347 C3355 1.503 . S
C3348 C3347 1.410 . S
C3348 C3349 1.392 . S
C3348 C3351 1.511 . S
C3349 C3345 1.376 . S
C3349 C3348 1.392 . S
C3349 H3361 0.929 . S
C3350 C3346 1.531 . S
C3350 H3362 0.960 . S
C3350 H3363 0.962 . S
C3350 H3364 0.960 . S
C3351 C3348 1.511 . S
C3351 H3365 0.961 . S
C3351 H3366 0.961 . S
C3351 H3367 0.961 . S
C3352 C3353 1.370 . S
C3352 C3354 1.363 . S
C3352 H3368 0.931 . S
C3353 C3352 1.370 . S
C3353 C3357 1.408 . S
C3354 C3352 1.363 . S
C3354 C3355 1.370 . S
C3354 C3358 1.524 . S
C3355 C3347 1.503 . S
C3355 C3354 1.370 . S
C3355 C3356 1.403 . S
C3356 C3355 1.403 . S
C3356 C3357 1.404 . S
C3356 C3359 1.539 . S
C3357 C3353 1.408 . S
C3357 C3356 1.404 . S
C3357 H3369 0.930 . S
C3358 C3354 1.524 . S
C3358 H3370 0.956 . S
C3358 H3371 0.961 . S
C3358 H3372 0.961 . S
C3359 C3356 1.539 . S
C3359 H3373 0.958 . S
C3359 H3374 0.961 . S
C3359 H3375 0.960 . S
H3360 C3344 0.931 . S
H3361 C3349 0.929 . S
H3362 C3350 0.960 . S
H3363 C3350 0.962 . S
H3364 C3350 0.960 . S
H3365 C3351 0.961 . S
H3366 C3351 0.961 . S
H3367 C3351 0.961 . S
H3368 C3352 0.931 . S
H3369 C3357 0.930 . S
H3370 C3358 0.956 . S
H3371 C3358 0.961 . S
H3372 C3358 0.961 . S
H3373 C3359 0.958 . S
H3374 C3359 0.961 . S
H3375 C3359 0.960 . S
C3376 C3377 1.391 . S
C3376 C3378 1.394 . S
C3376 H3392 0.931 . S
C3377 C3376 1.391 . S
C3377 C3381 1.376 . S
C3378 C3376 1.394 . S
C3378 C3379 1.369 . S
C3378 C3382 1.531 . S
C3379 C3378 1.369 . S
C3379 C3380 1.410 . S
C3379 C3387 1.503 . S
C3380 C3379 1.410 . S
C3380 C3381 1.392 . S
C3380 C3383 1.511 . S
C3381 C3377 1.376 . S
C3381 C3380 1.392 . S
C3381 H3393 0.929 . S
C3382 C3378 1.531 . S
C3382 H3394 0.960 . S
C3382 H3395 0.962 . S
C3382 H3396 0.960 . S
C3383 C3380 1.511 . S
C3383 H3397 0.961 . S
C3383 H3398 0.961 . S
C3383 H3399 0.961 . S
C3384 C3385 1.370 . S
C3384 C3386 1.363 . S
C3384 H3400 0.931 . S
C3385 C3384 1.370 . S
C3385 C3389 1.408 . S
C3386 C3384 1.363 . S
C3386 C3387 1.370 . S
C3386 C3390 1.524 . S
C3387 C3379 1.503 . S
C3387 C3386 1.370 . S
C3387 C3388 1.403 . S
C3388 C3387 1.403 . S
C3388 C3389 1.404 . S
C3388 C3391 1.539 . S
C3389 C3385 1.408 . S
C3389 C3388 1.404 . S
C3389 H3401 0.930 . S
C3390 C3386 1.524 . S
C3390 H3402 0.956 . S
C3390 H3403 0.961 . S
C3390 H3404 0.961 . S
C3391 C3388 1.539 . S
C3391 H3405 0.958 . S
C3391 H3406 0.961 . S
C3391 H3407 0.960 . S
H3392 C3376 0.931 . S
H3393 C3381 0.929 . S
H3394 C3382 0.960 . S
H3395 C3382 0.962 . S
H3396 C3382 0.960 . S
H3397 C3383 0.961 . S
H3398 C3383 0.961 . S
H3399 C3383 0.961 . S
H3400 C3384 0.931 . S
H3401 C3389 0.930 . S
H3402 C3390 0.956 . S
H3403 C3390 0.961 . S
H3404 C3390 0.961 . S
H3405 C3391 0.958 . S
H3406 C3391 0.961 . S
H3407 C3391 0.960 . S
C3408 C3409 1.391 . S
C3408 C3410 1.394 . S
C3408 H3424 0.952 . S
C3409 C3408 1.391 . S
C3409 C3413 1.376 . S
C3410 C3408 1.394 . S
C3410 C3411 1.369 . S
C3410 C3414 1.531 . S
C3411 C3410 1.369 . S
C3411 C3412 1.410 . S
C3411 C3419 1.503 . S
C3412 C3411 1.410 . S
C3412 C3413 1.392 . S
C3412 C3415 1.511 . S
C3413 C3409 1.376 . S
C3413 C3412 1.392 . S
C3413 H3425 0.929 . S
C3414 C3410 1.531 . S
C3414 H3426 0.960 . S
C3414 H3427 0.962 1_455 S
C3414 H3428 0.960 . S
C3415 C3412 1.511 . S
C3415 H3429 0.961 . S
C3415 H3430 0.961 . S
C3415 H3431 0.961 . S
C3416 C3417 1.346 1_655 S
C3416 C3418 1.365 . S
C3416 H3432 0.948 . S
C3417 C3416 1.346 1_455 S
C3417 C3421 1.408 . S
C3418 C3416 1.365 . S
C3418 C3419 1.358 1_655 S
C3418 C3422 1.543 . S
C3419 C3411 1.503 . S
C3419 C3418 1.358 1_455 S
C3419 C3420 1.403 . S
C3420 C3419 1.403 . S
C3420 C3421 1.404 . S
C3420 C3423 1.539 . S
C3421 C3417 1.408 . S
C3421 C3420 1.404 . S
C3421 H3433 0.930 . S
C3422 C3418 1.543 . S
C3422 H3434 0.956 . S
C3422 H3435 0.961 . S
C3422 H3436 0.961 . S
C3423 C3420 1.539 . S
C3423 H3437 0.958 . S
C3423 H3438 0.961 . S
C3423 H3439 0.960 . S
H3424 C3408 0.952 . S
H3425 C3413 0.929 . S
H3426 C3414 0.960 . S
H3427 C3414 0.962 1_655 S
H3428 C3414 0.960 . S
H3429 C3415 0.961 . S
H3430 C3415 0.961 . S
H3431 C3415 0.961 . S
H3432 C3416 0.948 . S
H3433 C3421 0.930 . S
H3434 C3422 0.956 . S
H3435 C3422 0.961 . S
H3436 C3422 0.961 . S
H3437 C3423 0.958 . S
H3438 C3423 0.961 . S
H3439 C3423 0.960 . S
C3440 C3441 1.391 . S
C3440 C3442 1.394 . S
C3440 H3456 0.931 . S
C3441 C3440 1.391 . S
C3441 C3445 1.376 . S
C3442 C3440 1.394 . S
C3442 C3443 1.369 . S
C3442 C3446 1.531 . S
C3443 C3442 1.369 . S
C3443 C3444 1.410 . S
C3443 C3451 1.503 . S
C3444 C3443 1.410 . S
C3444 C3445 1.392 . S
C3444 C3447 1.511 . S
C3445 C3441 1.376 . S
C3445 C3444 1.392 . S
C3445 H3457 0.929 . S
C3446 C3442 1.531 . S
C3446 H3458 0.960 . S
C3446 H3459 0.962 . S
C3446 H3460 0.960 . S
C3447 C3444 1.511 . S
C3447 H3461 0.961 . S
C3447 H3462 0.961 . S
C3447 H3463 0.961 . S
C3448 C3449 1.370 . S
C3448 C3450 1.363 . S
C3448 H3464 0.931 . S
C3449 C3448 1.370 . S
C3449 C3453 1.408 . S
C3450 C3448 1.363 . S
C3450 C3451 1.370 . S
C3450 C3454 1.524 . S
C3451 C3443 1.503 . S
C3451 C3450 1.370 . S
C3451 C3452 1.403 . S
C3452 C3451 1.403 . S
C3452 C3453 1.404 . S
C3452 C3455 1.539 . S
C3453 C3449 1.408 . S
C3453 C3452 1.404 . S
C3453 H3465 0.930 . S
C3454 C3450 1.524 . S
C3454 H3466 0.956 . S
C3454 H3467 0.961 . S
C3454 H3468 0.961 . S
C3455 C3452 1.539 . S
C3455 H3469 0.958 . S
C3455 H3470 0.961 . S
C3455 H3471 0.960 . S
H3456 C3440 0.931 . S
H3457 C3445 0.929 . S
H3458 C3446 0.960 . S
H3459 C3446 0.962 . S
H3460 C3446 0.960 . S
H3461 C3447 0.961 . S
H3462 C3447 0.961 . S
H3463 C3447 0.961 . S
H3464 C3448 0.931 . S
H3465 C3453 0.930 . S
H3466 C3454 0.956 . S
H3467 C3454 0.961 . S
H3468 C3454 0.961 . S
H3469 C3455 0.958 . S
H3470 C3455 0.961 . S
H3471 C3455 0.960 . S
C3472 C3473 1.391 . S
C3472 C3474 1.394 . S
C3472 H3488 0.931 . S
C3473 C3472 1.391 . S
C3473 C3477 1.376 . S
C3474 C3472 1.394 . S
C3474 C3475 1.369 . S
C3474 C3478 1.531 . S
C3475 C3474 1.369 . S
C3475 C3476 1.410 . S
C3475 C3483 1.503 . S
C3476 C3475 1.410 . S
C3476 C3477 1.392 . S
C3476 C3479 1.511 . S
C3477 C3473 1.376 . S
C3477 C3476 1.392 . S
C3477 H3489 0.929 . S
C3478 C3474 1.531 . S
C3478 H3490 0.960 . S
C3478 H3491 0.962 . S
C3478 H3492 0.960 . S
C3479 C3476 1.511 . S
C3479 H3493 0.961 . S
C3479 H3494 0.961 . S
C3479 H3495 0.961 . S
C3480 C3481 1.370 . S
C3480 C3482 1.363 . S
C3480 H3496 0.931 . S
C3481 C3480 1.370 . S
C3481 C3485 1.408 . S
C3482 C3480 1.363 . S
C3482 C3483 1.370 . S
C3482 C3486 1.524 . S
C3483 C3475 1.503 . S
C3483 C3482 1.370 . S
C3483 C3484 1.403 . S
C3484 C3483 1.403 . S
C3484 C3485 1.404 . S
C3484 C3487 1.539 . S
C3485 C3481 1.408 . S
C3485 C3484 1.404 . S
C3485 H3497 0.930 . S
C3486 C3482 1.524 . S
C3486 H3498 0.956 . S
C3486 H3499 0.961 . S
C3486 H3500 0.961 . S
C3487 C3484 1.539 . S
C3487 H3501 0.958 . S
C3487 H3502 0.961 . S
C3487 H3503 0.960 . S
H3488 C3472 0.931 . S
H3489 C3477 0.929 . S
H3490 C3478 0.960 . S
H3491 C3478 0.962 . S
H3492 C3478 0.960 . S
H3493 C3479 0.961 . S
H3494 C3479 0.961 . S
H3495 C3479 0.961 . S
H3496 C3480 0.931 . S
H3497 C3485 0.930 . S
H3498 C3486 0.956 . S
H3499 C3486 0.961 . S
H3500 C3486 0.961 . S
H3501 C3487 0.958 . S
H3502 C3487 0.961 . S
H3503 C3487 0.960 . S
C3504 C3505 1.389 . S
C3504 C3506 1.409 . S
C3504 H3520 0.918 1_556 S
C3505 C3504 1.389 . S
C3505 C3509 1.376 . S
C3506 C3504 1.409 . S
C3506 C3507 1.369 . S
C3506 C3510 1.531 . S
C3507 C3506 1.369 . S
C3507 C3508 1.410 . S
C3507 C3515 1.503 . S
C3508 C3507 1.410 . S
C3508 C3509 1.392 . S
C3508 C3511 1.511 . S
C3509 C3505 1.376 . S
C3509 C3508 1.392 . S
C3509 H3521 0.929 . S
C3510 C3506 1.531 . S
C3510 H3522 0.960 . S
C3510 H3523 0.962 . S
C3510 H3524 0.960 . S
C3511 C3508 1.511 . S
C3511 H3525 0.961 . S
C3511 H3526 0.961 . S
C3511 H3527 0.961 . S
C3512 C3513 1.370 . S
C3512 C3514 1.363 . S
C3512 H3528 0.931 . S
C3513 C3512 1.370 . S
C3513 C3517 1.408 . S
C3514 C3512 1.363 . S
C3514 C3515 1.370 . S
C3514 C3518 1.524 . S
C3515 C3507 1.503 . S
C3515 C3514 1.370 . S
C3515 C3516 1.403 . S
C3516 C3515 1.403 . S
C3516 C3517 1.404 . S
C3516 C3519 1.539 . S
C3517 C3513 1.408 . S
C3517 C3516 1.404 . S
C3517 H3529 0.930 . S
C3518 C3514 1.524 . S
C3518 H3530 0.956 . S
C3518 H3531 0.961 . S
C3518 H3532 0.961 . S
C3519 C3516 1.539 . S
C3519 H3533 0.958 . S
C3519 H3534 0.961 . S
C3519 H3535 0.960 . S
H3520 C3504 0.918 1_554 S
H3521 C3509 0.929 . S
H3522 C3510 0.960 . S
H3523 C3510 0.962 . S
H3524 C3510 0.960 . S
H3525 C3511 0.961 . S
H3526 C3511 0.961 . S
H3527 C3511 0.961 . S
H3528 C3512 0.931 . S
H3529 C3517 0.930 . S
H3530 C3518 0.956 . S
H3531 C3518 0.961 . S
H3532 C3518 0.961 . S
H3533 C3519 0.958 . S
H3534 C3519 0.961 . S
H3535 C3519 0.960 . S
C3536 C3537 1.391 . S
C3536 C3538 1.394 . S
C3536 H3552 0.931 . S
C3537 C3536 1.391 . S
C3537 C3541 1.376 . S
C3538 C3536 1.394 . S
C3538 C3539 1.369 . S
C3538 C3542 1.531 . S
C3539 C3538 1.369 . S
C3539 C3540 1.410 . S
C3539 C3547 1.503 . S
C3540 C3539 1.410 . S
C3540 C3541 1.392 . S
C3540 C3543 1.511 . S
C3541 C3537 1.376 . S
C3541 C3540 1.392 . S
C3541 H3553 0.929 . S
C3542 C3538 1.531 . S
C3542 H3554 0.960 . S
C3542 H3555 0.962 . S
C3542 H3556 0.960 . S
C3543 C3540 1.511 . S
C3543 H3557 0.961 . S
C3543 H3558 0.961 . S
C3543 H3559 0.961 . S
C3544 C3545 1.370 . S
C3544 C3546 1.363 . S
C3544 H3560 0.931 . S
C3545 C3544 1.370 . S
C3545 C3549 1.408 . S
C3546 C3544 1.363 . S
C3546 C3547 1.370 . S
C3546 C3550 1.524 . S
C3547 C3539 1.503 . S
C3547 C3546 1.370 . S
C3547 C3548 1.403 . S
C3548 C3547 1.403 . S
C3548 C3549 1.404 . S
C3548 C3551 1.539 . S
C3549 C3545 1.408 . S
C3549 C3548 1.404 . S
C3549 H3561 0.930 . S
C3550 C3546 1.524 . S
C3550 H3562 0.956 . S
C3550 H3563 0.961 . S
C3550 H3564 0.961 . S
C3551 C3548 1.539 . S
C3551 H3565 0.958 . S
C3551 H3566 0.961 . S
C3551 H3567 0.960 . S
H3552 C3536 0.931 . S
H3553 C3541 0.929 . S
H3554 C3542 0.960 . S
H3555 C3542 0.962 . S
H3556 C3542 0.960 . S
H3557 C3543 0.961 . S
H3558 C3543 0.961 . S
H3559 C3543 0.961 . S
H3560 C3544 0.931 . S
H3561 C3549 0.930 . S
H3562 C3550 0.956 . S
H3563 C3550 0.961 . S
H3564 C3550 0.961 . S
H3565 C3551 0.958 . S
H3566 C3551 0.961 . S
H3567 C3551 0.960 . S
C3568 C3569 1.391 . S
C3568 C3570 1.394 . S
C3568 H3584 0.931 . S
C3569 C3568 1.391 . S
C3569 C3573 1.376 . S
C3570 C3568 1.394 . S
C3570 C3571 1.369 . S
C3570 C3574 1.531 . S
C3571 C3570 1.369 . S
C3571 C3572 1.410 . S
C3571 C3579 1.503 . S
C3572 C3571 1.410 . S
C3572 C3573 1.392 . S
C3572 C3575 1.511 . S
C3573 C3569 1.376 . S
C3573 C3572 1.392 . S
C3573 H3585 0.929 . S
C3574 C3570 1.531 . S
C3574 H3586 0.960 . S
C3574 H3587 0.962 . S
C3574 H3588 0.960 . S
C3575 C3572 1.511 . S
C3575 H3589 0.961 . S
C3575 H3590 0.961 . S
C3575 H3591 0.961 . S
C3576 C3577 1.370 . S
C3576 C3578 1.363 . S
C3576 H3592 0.931 . S
C3577 C3576 1.370 . S
C3577 C3581 1.408 . S
C3578 C3576 1.363 . S
C3578 C3579 1.370 . S
C3578 C3582 1.524 . S
C3579 C3571 1.503 . S
C3579 C3578 1.370 . S
C3579 C3580 1.403 . S
C3580 C3579 1.403 . S
C3580 C3581 1.404 . S
C3580 C3583 1.539 . S
C3581 C3577 1.408 . S
C3581 C3580 1.404 . S
C3581 H3593 0.930 . S
C3582 C3578 1.524 . S
C3582 H3594 0.956 . S
C3582 H3595 0.961 . S
C3582 H3596 0.961 . S
C3583 C3580 1.539 . S
C3583 H3597 0.958 . S
C3583 H3598 0.961 . S
C3583 H3599 0.960 . S
H3584 C3568 0.931 . S
H3585 C3573 0.929 . S
H3586 C3574 0.960 . S
H3587 C3574 0.962 . S
H3588 C3574 0.960 . S
H3589 C3575 0.961 . S
H3590 C3575 0.961 . S
H3591 C3575 0.961 . S
H3592 C3576 0.931 . S
H3593 C3581 0.930 . S
H3594 C3582 0.956 . S
H3595 C3582 0.961 . S
H3596 C3582 0.961 . S
H3597 C3583 0.958 . S
H3598 C3583 0.961 . S
H3599 C3583 0.960 . S
C3600 C3601 1.391 . S
C3600 C3602 1.394 . S
C3600 H3616 0.931 . S
C3601 C3600 1.391 . S
C3601 C3605 1.376 . S
C3602 C3600 1.394 . S
C3602 C3603 1.369 . S
C3602 C3606 1.531 . S
C3603 C3602 1.369 . S
C3603 C3604 1.410 . S
C3603 C3611 1.503 . S
C3604 C3603 1.410 . S
C3604 C3605 1.392 . S
C3604 C3607 1.511 . S
C3605 C3601 1.376 . S
C3605 C3604 1.392 . S
C3605 H3617 0.929 . S
C3606 C3602 1.531 . S
C3606 H3618 0.960 . S
C3606 H3619 0.962 . S
C3606 H3620 0.960 . S
C3607 C3604 1.511 . S
C3607 H3621 0.961 . S
C3607 H3622 0.961 . S
C3607 H3623 0.961 . S
C3608 C3609 1.370 . S
C3608 C3610 1.363 . S
C3608 H3624 0.931 . S
C3609 C3608 1.370 . S
C3609 C3613 1.408 . S
C3610 C3608 1.363 . S
C3610 C3611 1.370 . S
C3610 C3614 1.524 . S
C3611 C3603 1.503 . S
C3611 C3610 1.370 . S
C3611 C3612 1.403 . S
C3612 C3611 1.403 . S
C3612 C3613 1.404 . S
C3612 C3615 1.539 . S
C3613 C3609 1.408 . S
C3613 C3612 1.404 . S
C3613 H3625 0.930 . S
C3614 C3610 1.524 . S
C3614 H3626 0.956 . S
C3614 H3627 0.961 . S
C3614 H3628 0.961 . S
C3615 C3612 1.539 . S
C3615 H3629 0.958 . S
C3615 H3630 0.961 . S
C3615 H3631 0.960 . S
H3616 C3600 0.931 . S
H3617 C3605 0.929 . S
H3618 C3606 0.960 . S
H3619 C3606 0.962 . S
H3620 C3606 0.960 . S
H3621 C3607 0.961 . S
H3622 C3607 0.961 . S
H3623 C3607 0.961 . S
H3624 C3608 0.931 . S
H3625 C3613 0.930 . S
H3626 C3614 0.956 . S
H3627 C3614 0.961 . S
H3628 C3614 0.961 . S
H3629 C3615 0.958 . S
H3630 C3615 0.961 . S
H3631 C3615 0.960 . S
C3632 C3633 1.391 . S
C3632 C3634 1.394 . S
C3632 H3648 0.931 . S
C3633 C3632 1.391 . S
C3633 C3637 1.376 . S
C3634 C3632 1.394 . S
C3634 C3635 1.369 . S
C3634 C3638 1.531 . S
C3635 C3634 1.369 . S
C3635 C3636 1.410 . S
C3635 C3643 1.503 . S
C3636 C3635 1.410 . S
C3636 C3637 1.392 . S
C3636 C3639 1.511 . S
C3637 C3633 1.376 . S
C3637 C3636 1.392 . S
C3637 H3649 0.929 . S
C3638 C3634 1.531 . S
C3638 H3650 0.960 . S
C3638 H3651 0.962 . S
C3638 H3652 0.960 . S
C3639 C3636 1.511 . S
C3639 H3653 0.961 . S
C3639 H3654 0.961 . S
C3639 H3655 0.961 . S
C3640 C3641 1.370 . S
C3640 C3642 1.363 . S
C3640 H3656 0.931 . S
C3641 C3640 1.370 . S
C3641 C3645 1.408 . S
C3642 C3640 1.363 . S
C3642 C3643 1.370 . S
C3642 C3646 1.524 . S
C3643 C3635 1.503 . S
C3643 C3642 1.370 . S
C3643 C3644 1.403 . S
C3644 C3643 1.403 . S
C3644 C3645 1.404 . S
C3644 C3647 1.539 . S
C3645 C3641 1.408 . S
C3645 C3644 1.404 . S
C3645 H3657 0.930 . S
C3646 C3642 1.524 . S
C3646 H3658 0.956 . S
C3646 H3659 0.961 . S
C3646 H3660 0.961 . S
C3647 C3644 1.539 . S
C3647 H3661 0.958 . S
C3647 H3662 0.961 . S
C3647 H3663 0.960 . S
H3648 C3632 0.931 . S
H3649 C3637 0.929 . S
H3650 C3638 0.960 . S
H3651 C3638 0.962 . S
H3652 C3638 0.960 . S
H3653 C3639 0.961 . S
H3654 C3639 0.961 . S
H3655 C3639 0.961 . S
H3656 C3640 0.931 . S
H3657 C3645 0.930 . S
H3658 C3646 0.956 . S
H3659 C3646 0.961 . S
H3660 C3646 0.961 . S
H3661 C3647 0.958 . S
H3662 C3647 0.961 . S
H3663 C3647 0.960 . S
C3664 C3665 1.391 . S
C3664 C3666 1.394 . S
C3664 H3680 0.931 . S
C3665 C3664 1.391 . S
C3665 C3669 1.376 . S
C3666 C3664 1.394 . S
C3666 C3667 1.369 . S
C3666 C3670 1.531 . S
C3667 C3666 1.369 . S
C3667 C3668 1.410 . S
C3667 C3675 1.503 . S
C3668 C3667 1.410 . S
C3668 C3669 1.392 . S
C3668 C3671 1.511 . S
C3669 C3665 1.376 . S
C3669 C3668 1.392 . S
C3669 H3681 0.929 . S
C3670 C3666 1.531 . S
C3670 H3682 0.960 . S
C3670 H3683 0.962 . S
C3670 H3684 0.960 . S
C3671 C3668 1.511 . S
C3671 H3685 0.961 . S
C3671 H3686 0.961 . S
C3671 H3687 0.961 . S
C3672 C3673 1.370 . S
C3672 C3674 1.363 . S
C3672 H3688 0.931 . S
C3673 C3672 1.370 . S
C3673 C3677 1.408 . S
C3674 C3672 1.363 . S
C3674 C3675 1.370 . S
C3674 C3678 1.524 . S
C3675 C3667 1.503 . S
C3675 C3674 1.370 . S
C3675 C3676 1.403 . S
C3676 C3675 1.403 . S
C3676 C3677 1.404 . S
C3676 C3679 1.539 . S
C3677 C3673 1.408 . S
C3677 C3676 1.404 . S
C3677 H3689 0.930 . S
C3678 C3674 1.524 . S
C3678 H3690 0.956 . S
C3678 H3691 0.961 . S
C3678 H3692 0.961 . S
C3679 C3676 1.539 . S
C3679 H3693 0.958 . S
C3679 H3694 0.961 . S
C3679 H3695 0.960 . S
H3680 C3664 0.931 . S
H3681 C3669 0.929 . S
H3682 C3670 0.960 . S
H3683 C3670 0.962 . S
H3684 C3670 0.960 . S
H3685 C3671 0.961 . S
H3686 C3671 0.961 . S
H3687 C3671 0.961 . S
H3688 C3672 0.931 . S
H3689 C3677 0.930 . S
H3690 C3678 0.956 . S
H3691 C3678 0.961 . S
H3692 C3678 0.961 . S
H3693 C3679 0.958 . S
H3694 C3679 0.961 . S
H3695 C3679 0.960 . S
C3696 C3697 1.391 . S
C3696 C3698 1.394 . S
C3696 H3712 0.931 . S
C3697 C3696 1.391 . S
C3697 C3701 1.376 . S
C3698 C3696 1.394 . S
C3698 C3699 1.369 . S
C3698 C3702 1.531 . S
C3699 C3698 1.369 . S
C3699 C3700 1.410 . S
C3699 C3707 1.503 . S
C3700 C3699 1.410 . S
C3700 C3701 1.392 . S
C3700 C3703 1.511 . S
C3701 C3697 1.376 . S
C3701 C3700 1.392 . S
C3701 H3713 0.929 . S
C3702 C3698 1.531 . S
C3702 H3714 0.960 . S
C3702 H3715 0.962 . S
C3702 H3716 0.960 . S
C3703 C3700 1.511 . S
C3703 H3717 0.961 . S
C3703 H3718 0.961 . S
C3703 H3719 0.961 . S
C3704 C3705 1.370 . S
C3704 C3706 1.363 . S
C3704 H3720 0.931 . S
C3705 C3704 1.370 . S
C3705 C3709 1.408 . S
C3706 C3704 1.363 . S
C3706 C3707 1.370 . S
C3706 C3710 1.524 . S
C3707 C3699 1.503 . S
C3707 C3706 1.370 . S
C3707 C3708 1.403 . S
C3708 C3707 1.403 . S
C3708 C3709 1.404 . S
C3708 C3711 1.539 . S
C3709 C3705 1.408 . S
C3709 C3708 1.404 . S
C3709 H3721 0.930 . S
C3710 C3706 1.524 . S
C3710 H3722 0.956 . S
C3710 H3723 0.961 . S
C3710 H3724 0.961 . S
C3711 C3708 1.539 . S
C3711 H3725 0.958 . S
C3711 H3726 0.961 . S
C3711 H3727 0.960 . S
H3712 C3696 0.931 . S
H3713 C3701 0.929 . S
H3714 C3702 0.960 . S
H3715 C3702 0.962 . S
H3716 C3702 0.960 . S
H3717 C3703 0.961 . S
H3718 C3703 0.961 . S
H3719 C3703 0.961 . S
H3720 C3704 0.931 . S
H3721 C3709 0.930 . S
H3722 C3710 0.956 . S
H3723 C3710 0.961 . S
H3724 C3710 0.961 . S
H3725 C3711 0.958 . S
H3726 C3711 0.961 . S
H3727 C3711 0.960 . S
C3728 C3729 1.391 . S
C3728 C3730 1.394 . S
C3728 H3744 0.931 . S
C3729 C3728 1.391 . S
C3729 C3733 1.376 . S
C3730 C3728 1.394 . S
C3730 C3731 1.369 . S
C3730 C3734 1.531 . S
C3731 C3730 1.369 . S
C3731 C3732 1.410 . S
C3731 C3739 1.503 . S
C3732 C3731 1.410 . S
C3732 C3733 1.392 . S
C3732 C3735 1.511 . S
C3733 C3729 1.376 . S
C3733 C3732 1.392 . S
C3733 H3745 0.929 . S
C3734 C3730 1.531 . S
C3734 H3746 0.960 . S
C3734 H3747 0.962 . S
C3734 H3748 0.960 . S
C3735 C3732 1.511 . S
C3735 H3749 0.961 . S
C3735 H3750 0.961 . S
C3735 H3751 0.961 . S
C3736 C3737 1.370 . S
C3736 C3738 1.363 . S
C3736 H3752 0.931 . S
C3737 C3736 1.370 . S
C3737 C3741 1.408 . S
C3738 C3736 1.363 . S
C3738 C3739 1.370 . S
C3738 C3742 1.524 . S
C3739 C3731 1.503 . S
C3739 C3738 1.370 . S
C3739 C3740 1.403 . S
C3740 C3739 1.403 . S
C3740 C3741 1.404 . S
C3740 C3743 1.539 . S
C3741 C3737 1.408 . S
C3741 C3740 1.404 . S
C3741 H3753 0.930 . S
C3742 C3738 1.524 . S
C3742 H3754 0.956 . S
C3742 H3755 0.961 . S
C3742 H3756 0.961 . S
C3743 C3740 1.539 . S
C3743 H3757 0.958 . S
C3743 H3758 0.961 . S
C3743 H3759 0.960 . S
H3744 C3728 0.931 . S
H3745 C3733 0.929 . S
H3746 C3734 0.960 . S
H3747 C3734 0.962 . S
H3748 C3734 0.960 . S
H3749 C3735 0.961 . S
H3750 C3735 0.961 . S
H3751 C3735 0.961 . S
H3752 C3736 0.931 . S
H3753 C3741 0.930 . S
H3754 C3742 0.956 . S
H3755 C3742 0.961 . S
H3756 C3742 0.961 . S
H3757 C3743 0.958 . S
H3758 C3743 0.961 . S
H3759 C3743 0.960 . S
C3760 C3761 1.391 . S
C3760 C3762 1.394 . S
C3760 H3776 0.931 . S
C3761 C3760 1.391 . S
C3761 C3765 1.376 . S
C3762 C3760 1.394 . S
C3762 C3763 1.369 . S
C3762 C3766 1.531 . S
C3763 C3762 1.369 . S
C3763 C3764 1.410 . S
C3763 C3771 1.503 . S
C3764 C3763 1.410 . S
C3764 C3765 1.392 . S
C3764 C3767 1.511 . S
C3765 C3761 1.376 . S
C3765 C3764 1.392 . S
C3765 H3777 0.929 . S
C3766 C3762 1.531 . S
C3766 H3778 0.960 . S
C3766 H3779 0.962 . S
C3766 H3780 0.960 . S
C3767 C3764 1.511 . S
C3767 H3781 0.961 . S
C3767 H3782 0.961 . S
C3767 H3783 0.961 . S
C3768 C3769 1.370 . S
C3768 C3770 1.363 . S
C3768 H3784 0.931 . S
C3769 C3768 1.370 . S
C3769 C3773 1.408 . S
C3770 C3768 1.363 . S
C3770 C3771 1.370 . S
C3770 C3774 1.524 . S
C3771 C3763 1.503 . S
C3771 C3770 1.370 . S
C3771 C3772 1.403 . S
C3772 C3771 1.403 . S
C3772 C3773 1.404 . S
C3772 C3775 1.539 . S
C3773 C3769 1.408 . S
C3773 C3772 1.404 . S
C3773 H3785 0.930 . S
C3774 C3770 1.524 . S
C3774 H3786 0.956 . S
C3774 H3787 0.961 . S
C3774 H3788 0.961 . S
C3775 C3772 1.539 . S
C3775 H3789 0.958 . S
C3775 H3790 0.961 . S
C3775 H3791 0.960 . S
H3776 C3760 0.931 . S
H3777 C3765 0.929 . S
H3778 C3766 0.960 . S
H3779 C3766 0.962 . S
H3780 C3766 0.960 . S
H3781 C3767 0.961 . S
H3782 C3767 0.961 . S
H3783 C3767 0.961 . S
H3784 C3768 0.931 . S
H3785 C3773 0.930 . S
H3786 C3774 0.956 . S
H3787 C3774 0.961 . S
H3788 C3774 0.961 . S
H3789 C3775 0.958 . S
H3790 C3775 0.961 . S
H3791 C3775 0.960 . S
C3792 C3793 1.391 . S
C3792 C3794 1.394 . S
C3792 H3808 0.931 . S
C3793 C3792 1.391 . S
C3793 C3797 1.376 . S
C3794 C3792 1.394 . S
C3794 C3795 1.369 . S
C3794 C3798 1.531 . S
C3795 C3794 1.369 . S
C3795 C3796 1.410 . S
C3795 C3803 1.503 . S
C3796 C3795 1.410 . S
C3796 C3797 1.392 . S
C3796 C3799 1.511 . S
C3797 C3793 1.376 . S
C3797 C3796 1.392 . S
C3797 H3809 0.929 . S
C3798 C3794 1.531 . S
C3798 H3810 0.960 . S
C3798 H3811 0.962 . S
C3798 H3812 0.960 . S
C3799 C3796 1.511 . S
C3799 H3813 0.961 . S
C3799 H3814 0.961 . S
C3799 H3815 0.961 . S
C3800 C3801 1.370 . S
C3800 C3802 1.363 . S
C3800 H3816 0.931 . S
C3801 C3800 1.370 . S
C3801 C3805 1.408 . S
C3802 C3800 1.363 . S
C3802 C3803 1.370 . S
C3802 C3806 1.524 . S
C3803 C3795 1.503 . S
C3803 C3802 1.370 . S
C3803 C3804 1.403 . S
C3804 C3803 1.403 . S
C3804 C3805 1.404 . S
C3804 C3807 1.539 . S
C3805 C3801 1.408 . S
C3805 C3804 1.404 . S
C3805 H3817 0.930 . S
C3806 C3802 1.524 . S
C3806 H3818 0.956 . S
C3806 H3819 0.961 . S
C3806 H3820 0.961 . S
C3807 C3804 1.539 . S
C3807 H3821 0.958 . S
C3807 H3822 0.961 . S
C3807 H3823 0.960 . S
H3808 C3792 0.931 . S
H3809 C3797 0.929 . S
H3810 C3798 0.960 . S
H3811 C3798 0.962 . S
H3812 C3798 0.960 . S
H3813 C3799 0.961 . S
H3814 C3799 0.961 . S
H3815 C3799 0.961 . S
H3816 C3800 0.931 . S
H3817 C3805 0.930 . S
H3818 C3806 0.956 . S
H3819 C3806 0.961 . S
H3820 C3806 0.961 . S
H3821 C3807 0.958 . S
H3822 C3807 0.961 . S
H3823 C3807 0.960 . S
C3824 C3825 1.391 . S
C3824 C3826 1.394 . S
C3824 H3840 0.931 . S
C3825 C3824 1.391 . S
C3825 C3829 1.376 . S
C3826 C3824 1.394 . S
C3826 C3827 1.369 . S
C3826 C3830 1.531 1_565 S
C3827 C3826 1.369 . S
C3827 C3828 1.410 . S
C3827 C3835 1.503 . S
C3828 C3827 1.410 . S
C3828 C3829 1.392 . S
C3828 C3831 1.511 . S
C3829 C3825 1.376 . S
C3829 C3828 1.392 . S
C3829 H3841 0.929 . S
C3830 C3826 1.531 1_545 S
C3830 H3842 0.960 . S
C3830 H3843 0.962 1_554 S
C3830 H3844 0.960 . S
C3831 C3828 1.511 . S
C3831 H3845 0.961 . S
C3831 H3846 0.961 . S
C3831 H3847 0.961 . S
C3832 C3833 1.370 1_565 S
C3832 C3834 1.363 . S
C3832 H3848 0.931 . S
C3833 C3832 1.370 1_545 S
C3833 C3837 1.408 . S
C3834 C3832 1.363 . S
C3834 C3835 1.370 . S
C3834 C3838 1.524 1_554 S
C3835 C3827 1.503 . S
C3835 C3834 1.370 . S
C3835 C3836 1.422 . S
C3836 C3835 1.422 . S
C3836 C3837 1.393 1_565 S
C3836 C3839 1.534 1_565 S
C3837 C3833 1.408 . S
C3837 C3836 1.393 1_545 S
C3837 H3849 0.930 . S
C3838 C3834 1.524 1_556 S
C3838 H3850 0.956 . S
C3838 H3851 0.961 . S
C3838 H3852 0.961 . S
C3839 C3836 1.534 1_545 S
C3839 H3853 0.981 . S
C3839 H3854 0.958 . S
C3839 H3855 0.943 1_545 S
H3840 C3824 0.931 . S
H3841 C3829 0.929 . S
H3842 C3830 0.960 . S
H3843 C3830 0.962 1_556 S
H3844 C3830 0.960 . S
H3845 C3831 0.961 . S
H3846 C3831 0.961 . S
H3847 C3831 0.961 . S
H3848 C3832 0.931 . S
H3849 C3837 0.930 . S
H3850 C3838 0.956 . S
H3851 C3838 0.961 . S
H3852 C3838 0.961 . S
H3853 C3839 0.981 . S
H3854 C3839 0.958 . S
H3855 C3839 0.943 1_565 S
C3856 C3857 1.391 . S
C3856 C3858 1.394 . S
C3856 H3872 0.931 . S
C3857 C3856 1.391 . S
C3857 C3861 1.376 . S
C3858 C3856 1.394 . S
C3858 C3859 1.369 . S
C3858 C3862 1.531 . S
C3859 C3858 1.369 . S
C3859 C3860 1.410 . S
C3859 C3867 1.503 . S
C3860 C3859 1.410 . S
C3860 C3861 1.392 . S
C3860 C3863 1.511 . S
C3861 C3857 1.376 . S
C3861 C3860 1.392 . S
C3861 H3873 0.929 . S
C3862 C3858 1.531 . S
C3862 H3874 0.960 . S
C3862 H3875 0.962 . S
C3862 H3876 0.960 . S
C3863 C3860 1.511 . S
C3863 H3877 0.961 . S
C3863 H3878 0.961 . S
C3863 H3879 0.961 . S
C3864 C3865 1.370 . S
C3864 C3866 1.363 . S
C3864 H3880 0.931 . S
C3865 C3864 1.370 . S
C3865 C3869 1.408 . S
C3866 C3864 1.363 . S
C3866 C3867 1.370 . S
C3866 C3870 1.524 . S
C3867 C3859 1.503 . S
C3867 C3866 1.370 . S
C3867 C3868 1.403 . S
C3868 C3867 1.403 . S
C3868 C3869 1.404 . S
C3868 C3871 1.539 . S
C3869 C3865 1.408 . S
C3869 C3868 1.404 . S
C3869 H3881 0.930 . S
C3870 C3866 1.524 . S
C3870 H3882 0.956 . S
C3870 H3883 0.961 . S
C3870 H3884 0.961 . S
C3871 C3868 1.539 . S
C3871 H3885 0.958 . S
C3871 H3886 0.961 . S
C3871 H3887 0.960 . S
H3872 C3856 0.931 . S
H3873 C3861 0.929 . S
H3874 C3862 0.960 . S
H3875 C3862 0.962 . S
H3876 C3862 0.960 . S
H3877 C3863 0.961 . S
H3878 C3863 0.961 . S
H3879 C3863 0.961 . S
H3880 C3864 0.931 . S
H3881 C3869 0.930 . S
H3882 C3870 0.956 . S
H3883 C3870 0.961 . S
H3884 C3870 0.961 . S
H3885 C3871 0.958 . S
H3886 C3871 0.961 . S
H3887 C3871 0.960 . S
C3888 C3889 1.391 . S
C3888 C3890 1.394 . S
C3888 H3904 0.931 . S
C3889 C3888 1.391 . S
C3889 C3893 1.376 . S
C3890 C3888 1.394 . S
C3890 C3891 1.369 . S
C3890 C3894 1.531 . S
C3891 C3890 1.369 . S
C3891 C3892 1.410 . S
C3891 C3899 1.503 . S
C3892 C3891 1.410 . S
C3892 C3893 1.392 . S
C3892 C3895 1.511 . S
C3893 C3889 1.376 . S
C3893 C3892 1.392 . S
C3893 H3905 0.929 . S
C3894 C3890 1.531 . S
C3894 H3906 0.960 . S
C3894 H3907 0.962 . S
C3894 H3908 0.960 . S
C3895 C3892 1.511 . S
C3895 H3909 0.961 . S
C3895 H3910 0.961 . S
C3895 H3911 0.961 . S
C3896 C3897 1.370 . S
C3896 C3898 1.363 . S
C3896 H3912 0.931 . S
C3897 C3896 1.370 . S
C3897 C3901 1.408 . S
C3898 C3896 1.363 . S
C3898 C3899 1.370 . S
C3898 C3902 1.524 . S
C3899 C3891 1.503 . S
C3899 C3898 1.370 . S
C3899 C3900 1.403 . S
C3900 C3899 1.403 . S
C3900 C3901 1.404 . S
C3900 C3903 1.539 . S
C3901 C3897 1.408 . S
C3901 C3900 1.404 . S
C3901 H3913 0.930 . S
C3902 C3898 1.524 . S
C3902 H3914 0.956 . S
C3902 H3915 0.961 . S
C3902 H3916 0.961 . S
C3903 C3900 1.539 . S
C3903 H3917 0.958 . S
C3903 H3918 0.961 . S
C3903 H3919 0.960 . S
H3904 C3888 0.931 . S
H3905 C3893 0.929 . S
H3906 C3894 0.960 . S
H3907 C3894 0.962 . S
H3908 C3894 0.960 . S
H3909 C3895 0.961 . S
H3910 C3895 0.961 . S
H3911 C3895 0.961 . S
H3912 C3896 0.931 . S
H3913 C3901 0.930 . S
H3914 C3902 0.956 . S
H3915 C3902 0.961 . S
H3916 C3902 0.961 . S
H3917 C3903 0.958 . S
H3918 C3903 0.961 . S
H3919 C3903 0.960 . S
C3920 C3921 1.391 . S
C3920 C3922 1.394 . S
C3920 H3936 0.931 . S
C3921 C3920 1.391 . S
C3921 C3925 1.376 . S
C3922 C3920 1.394 . S
C3922 C3923 1.369 . S
C3922 C3926 1.531 . S
C3923 C3922 1.369 . S
C3923 C3924 1.410 . S
C3923 C3931 1.503 . S
C3924 C3923 1.410 . S
C3924 C3925 1.392 . S
C3924 C3927 1.511 . S
C3925 C3921 1.376 . S
C3925 C3924 1.392 . S
C3925 H3937 0.929 . S
C3926 C3922 1.531 . S
C3926 H3938 0.960 . S
C3926 H3939 0.962 . S
C3926 H3940 0.960 . S
C3927 C3924 1.511 . S
C3927 H3941 0.961 . S
C3927 H3942 0.961 . S
C3927 H3943 0.961 . S
C3928 C3929 1.370 . S
C3928 C3930 1.363 . S
C3928 H3944 0.931 . S
C3929 C3928 1.370 . S
C3929 C3933 1.408 . S
C3930 C3928 1.363 . S
C3930 C3931 1.370 . S
C3930 C3934 1.524 . S
C3931 C3923 1.503 . S
C3931 C3930 1.370 . S
C3931 C3932 1.403 . S
C3932 C3931 1.403 . S
C3932 C3933 1.404 . S
C3932 C3935 1.539 . S
C3933 C3929 1.408 . S
C3933 C3932 1.404 . S
C3933 H3945 0.930 . S
C3934 C3930 1.524 . S
C3934 H3946 0.956 . S
C3934 H3947 0.961 . S
C3934 H3948 0.961 . S
C3935 C3932 1.539 . S
C3935 H3949 0.958 . S
C3935 H3950 0.961 . S
C3935 H3951 0.960 . S
H3936 C3920 0.931 . S
H3937 C3925 0.929 . S
H3938 C3926 0.960 . S
H3939 C3926 0.962 . S
H3940 C3926 0.960 . S
H3941 C3927 0.961 . S
H3942 C3927 0.961 . S
H3943 C3927 0.961 . S
H3944 C3928 0.931 . S
H3945 C3933 0.930 . S
H3946 C3934 0.956 . S
H3947 C3934 0.961 . S
H3948 C3934 0.961 . S
H3949 C3935 0.958 . S
H3950 C3935 0.961 . S
H3951 C3935 0.960 . S
C3952 C3953 1.391 . S
C3952 C3954 1.394 . S
C3952 H3968 0.931 . S
C3953 C3952 1.391 . S
C3953 C3957 1.376 . S
C3954 C3952 1.394 . S
C3954 C3955 1.369 . S
C3954 C3958 1.531 . S
C3955 C3954 1.369 . S
C3955 C3956 1.410 . S
C3955 C3963 1.503 . S
C3956 C3955 1.410 . S
C3956 C3957 1.392 . S
C3956 C3959 1.511 . S
C3957 C3953 1.376 . S
C3957 C3956 1.392 . S
C3957 H3969 0.929 . S
C3958 C3954 1.531 . S
C3958 H3970 0.960 . S
C3958 H3971 0.962 . S
C3958 H3972 0.960 . S
C3959 C3956 1.511 . S
C3959 H3973 0.961 . S
C3959 H3974 0.961 . S
C3959 H3975 0.961 . S
C3960 C3961 1.370 . S
C3960 C3962 1.363 . S
C3960 H3976 0.931 . S
C3961 C3960 1.370 . S
C3961 C3965 1.408 . S
C3962 C3960 1.363 . S
C3962 C3963 1.370 . S
C3962 C3966 1.524 . S
C3963 C3955 1.503 . S
C3963 C3962 1.370 . S
C3963 C3964 1.403 . S
C3964 C3963 1.403 . S
C3964 C3965 1.404 . S
C3964 C3967 1.539 . S
C3965 C3961 1.408 . S
C3965 C3964 1.404 . S
C3965 H3977 0.930 . S
C3966 C3962 1.524 . S
C3966 H3978 0.956 . S
C3966 H3979 0.961 . S
C3966 H3980 0.961 . S
C3967 C3964 1.539 . S
C3967 H3981 0.958 . S
C3967 H3982 0.961 . S
C3967 H3983 0.960 . S
H3968 C3952 0.931 . S
H3969 C3957 0.929 . S
H3970 C3958 0.960 . S
H3971 C3958 0.962 . S
H3972 C3958 0.960 . S
H3973 C3959 0.961 . S
H3974 C3959 0.961 . S
H3975 C3959 0.961 . S
H3976 C3960 0.931 . S
H3977 C3965 0.930 . S
H3978 C3966 0.956 . S
H3979 C3966 0.961 . S
H3980 C3966 0.961 . S
H3981 C3967 0.958 . S
H3982 C3967 0.961 . S
H3983 C3967 0.960 . S
C3984 C3985 1.391 . S
C3984 C3986 1.394 . S
C3984 H4000 0.931 . S
C3985 C3984 1.391 . S
C3985 C3989 1.376 . S
C3986 C3984 1.394 . S
C3986 C3987 1.369 . S
C3986 C3990 1.531 . S
C3987 C3986 1.369 . S
C3987 C3988 1.410 . S
C3987 C3995 1.503 . S
C3988 C3987 1.410 . S
C3988 C3989 1.392 . S
C3988 C3991 1.511 . S
C3989 C3985 1.376 . S
C3989 C3988 1.392 . S
C3989 H4001 0.929 . S
C3990 C3986 1.531 . S
C3990 H4002 0.960 . S
C3990 H4003 0.962 . S
C3990 H4004 0.960 . S
C3991 C3988 1.511 . S
C3991 H4005 0.961 . S
C3991 H4006 0.961 . S
C3991 H4007 0.961 . S
C3992 C3993 1.370 . S
C3992 C3994 1.363 . S
C3992 H4008 0.931 . S
C3993 C3992 1.370 . S
C3993 C3997 1.408 . S
C3994 C3992 1.363 . S
C3994 C3995 1.370 . S
C3994 C3998 1.524 . S
C3995 C3987 1.503 . S
C3995 C3994 1.370 . S
C3995 C3996 1.403 . S
C3996 C3995 1.403 . S
C3996 C3997 1.404 . S
C3996 C3999 1.539 . S
C3997 C3993 1.408 . S
C3997 C3996 1.404 . S
C3997 H4009 0.930 . S
C3998 C3994 1.524 . S
C3998 H4010 0.956 . S
C3998 H4011 0.961 . S
C3998 H4012 0.961 . S
C3999 C3996 1.539 . S
C3999 H4013 0.958 . S
C3999 H4014 0.961 . S
C3999 H4015 0.960 . S
H4000 C3984 0.931 . S
H4001 C3989 0.929 . S
H4002 C3990 0.960 . S
H4003 C3990 0.962 . S
H4004 C3990 0.960 . S
H4005 C3991 0.961 . S
H4006 C3991 0.961 . S
H4007 C3991 0.961 . S
H4008 C3992 0.931 . S
H4009 C3997 0.930 . S
H4010 C3998 0.956 . S
H4011 C3998 0.961 . S
H4012 C3998 0.961 . S
H4013 C3999 0.958 . S
H4014 C3999 0.961 . S
H4015 C3999 0.960 . S
C4016 C4017 1.391 . S
C4016 C4018 1.394 . S
C4016 H4032 0.931 . S
C4017 C4016 1.391 . S
C4017 C4021 1.376 . S
C4018 C4016 1.394 . S
C4018 C4019 1.369 . S
C4018 C4022 1.531 . S
C4019 C4018 1.369 . S
C4019 C4020 1.410 . S
C4019 C4027 1.503 . S
C4020 C4019 1.410 . S
C4020 C4021 1.392 . S
C4020 C4023 1.511 . S
C4021 C4017 1.376 . S
C4021 C4020 1.392 . S
C4021 H4033 0.929 . S
C4022 C4018 1.531 . S
C4022 H4034 0.960 . S
C4022 H4035 0.962 . S
C4022 H4036 0.960 . S
C4023 C4020 1.511 . S
C4023 H4037 0.961 . S
C4023 H4038 0.961 . S
C4023 H4039 0.961 . S
C4024 C4025 1.370 . S
C4024 C4026 1.363 . S
C4024 H4040 0.931 . S
C4025 C4024 1.370 . S
C4025 C4029 1.408 . S
C4026 C4024 1.363 . S
C4026 C4027 1.370 . S
C4026 C4030 1.524 . S
C4027 C4019 1.503 . S
C4027 C4026 1.370 . S
C4027 C4028 1.403 . S
C4028 C4027 1.403 . S
C4028 C4029 1.404 . S
C4028 C4031 1.539 . S
C4029 C4025 1.408 . S
C4029 C4028 1.404 . S
C4029 H4041 0.930 . S
C4030 C4026 1.524 . S
C4030 H4042 0.956 . S
C4030 H4043 0.961 . S
C4030 H4044 0.961 . S
C4031 C4028 1.539 . S
C4031 H4045 0.958 . S
C4031 H4046 0.961 . S
C4031 H4047 0.960 . S
H4032 C4016 0.931 . S
H4033 C4021 0.929 . S
H4034 C4022 0.960 . S
H4035 C4022 0.962 . S
H4036 C4022 0.960 . S
H4037 C4023 0.961 . S
H4038 C4023 0.961 . S
H4039 C4023 0.961 . S
H4040 C4024 0.931 . S
H4041 C4029 0.930 . S
H4042 C4030 0.956 . S
H4043 C4030 0.961 . S
H4044 C4030 0.961 . S
H4045 C4031 0.958 . S
H4046 C4031 0.961 . S
H4047 C4031 0.960 . S
C4048 C4049 1.391 . S
C4048 C4050 1.394 . S
C4048 H4064 0.931 . S
C4049 C4048 1.391 . S
C4049 C4053 1.376 . S
C4050 C4048 1.394 . S
C4050 C4051 1.369 . S
C4050 C4054 1.531 . S
C4051 C4050 1.369 . S
C4051 C4052 1.410 . S
C4051 C4059 1.503 . S
C4052 C4051 1.410 . S
C4052 C4053 1.392 . S
C4052 C4055 1.511 . S
C4053 C4049 1.376 . S
C4053 C4052 1.392 . S
C4053 H4065 0.929 . S
C4054 C4050 1.531 . S
C4054 H4066 0.960 . S
C4054 H4067 0.962 . S
C4054 H4068 0.960 1_455 S
C4055 C4052 1.511 . S
C4055 H4069 0.961 . S
C4055 H4070 0.961 . S
C4055 H4071 0.961 . S
C4056 C4057 1.370 . S
C4056 C4058 1.363 . S
C4056 H4072 0.931 . S
C4057 C4056 1.370 . S
C4057 C4061 1.408 . S
C4058 C4056 1.363 . S
C4058 C4059 1.370 . S
C4058 C4062 1.524 . S
C4059 C4051 1.503 . S
C4059 C4058 1.370 . S
C4059 C4060 1.403 . S
C4060 C4059 1.403 . S
C4060 C4061 1.404 . S
C4060 C4063 1.539 . S
C4061 C4057 1.408 . S
C4061 C4060 1.404 . S
C4061 H4073 0.930 . S
C4062 C4058 1.524 . S
C4062 H4074 0.956 . S
C4062 H4075 0.961 . S
C4062 H4076 0.961 . S
C4063 C4060 1.539 . S
C4063 H4077 0.958 . S
C4063 H4078 0.961 . S
C4063 H4079 0.960 . S
H4064 C4048 0.931 . S
H4065 C4053 0.929 . S
H4066 C4054 0.960 . S
H4067 C4054 0.962 . S
H4068 C4054 0.960 1_655 S
H4069 C4055 0.961 . S
H4070 C4055 0.961 . S
H4071 C4055 0.961 . S
H4072 C4056 0.931 . S
H4073 C4061 0.930 . S
H4074 C4062 0.956 . S
H4075 C4062 0.961 . S
H4076 C4062 0.961 . S
H4077 C4063 0.958 . S
H4078 C4063 0.961 . S
H4079 C4063 0.960 . S
C4080 C4081 1.391 . S
C4080 C4082 1.394 . S
C4080 H4096 0.931 . S
C4081 C4080 1.391 . S
C4081 C4085 1.376 . S
C4082 C4080 1.394 . S
C4082 C4083 1.369 . S
C4082 C4086 1.531 . S
C4083 C4082 1.369 . S
C4083 C4084 1.410 . S
C4083 C4091 1.503 . S
C4084 C4083 1.410 . S
C4084 C4085 1.392 . S
C4084 C4087 1.511 . S
C4085 C4081 1.376 . S
C4085 C4084 1.392 . S
C4085 H4097 0.929 . S
C4086 C4082 1.531 . S
C4086 H4098 0.960 . S
C4086 H4099 0.962 . S
C4086 H4100 0.960 . S
C4087 C4084 1.511 . S
C4087 H4101 0.961 . S
C4087 H4102 0.961 . S
C4087 H4103 0.961 . S
C4088 C4089 1.370 . S
C4088 C4090 1.363 . S
C4088 H4104 0.931 . S
C4089 C4088 1.370 . S
C4089 C4093 1.408 . S
C4090 C4088 1.363 . S
C4090 C4091 1.370 . S
C4090 C4094 1.524 . S
C4091 C4083 1.503 . S
C4091 C4090 1.370 . S
C4091 C4092 1.403 . S
C4092 C4091 1.403 . S
C4092 C4093 1.404 . S
C4092 C4095 1.539 . S
C4093 C4089 1.408 . S
C4093 C4092 1.404 . S
C4093 H4105 0.930 . S
C4094 C4090 1.524 . S
C4094 H4106 0.956 . S
C4094 H4107 0.961 . S
C4094 H4108 0.961 . S
C4095 C4092 1.539 . S
C4095 H4109 0.958 . S
C4095 H4110 0.961 . S
C4095 H4111 0.960 . S
H4096 C4080 0.931 . S
H4097 C4085 0.929 . S
H4098 C4086 0.960 . S
H4099 C4086 0.962 . S
H4100 C4086 0.960 . S
H4101 C4087 0.961 . S
H4102 C4087 0.961 . S
H4103 C4087 0.961 . S
H4104 C4088 0.931 . S
H4105 C4093 0.930 . S
H4106 C4094 0.956 . S
H4107 C4094 0.961 . S
H4108 C4094 0.961 . S
H4109 C4095 0.958 . S
H4110 C4095 0.961 . S
H4111 C4095 0.960 . S
C4112 C4113 1.391 . S
C4112 C4114 1.394 . S
C4112 H4128 0.931 . S
C4113 C4112 1.391 . S
C4113 C4117 1.376 . S
C4114 C4112 1.394 . S
C4114 C4115 1.369 . S
C4114 C4118 1.531 . S
C4115 C4114 1.369 . S
C4115 C4116 1.410 . S
C4115 C4123 1.503 . S
C4116 C4115 1.410 . S
C4116 C4117 1.392 . S
C4116 C4119 1.511 . S
C4117 C4113 1.376 . S
C4117 C4116 1.392 . S
C4117 H4129 0.929 . S
C4118 C4114 1.531 . S
C4118 H4130 0.960 . S
C4118 H4131 0.962 . S
C4118 H4132 0.960 . S
C4119 C4116 1.511 . S
C4119 H4133 0.961 . S
C4119 H4134 0.961 . S
C4119 H4135 0.961 . S
C4120 C4121 1.370 . S
C4120 C4122 1.363 . S
C4120 H4136 0.931 1_556 S
C4121 C4120 1.370 . S
C4121 C4125 1.408 . S
C4122 C4120 1.363 . S
C4122 C4123 1.370 . S
C4122 C4126 1.524 . S
C4123 C4115 1.503 . S
C4123 C4122 1.370 . S
C4123 C4124 1.403 . S
C4124 C4123 1.403 . S
C4124 C4125 1.404 . S
C4124 C4127 1.539 . S
C4125 C4121 1.408 . S
C4125 C4124 1.404 . S
C4125 H4137 0.930 . S
C4126 C4122 1.524 . S
C4126 H4138 0.956 . S
C4126 H4139 0.961 . S
C4126 H4140 0.961 1_556 S
C4127 C4124 1.539 . S
C4127 H4141 0.958 . S
C4127 H4142 0.961 . S
C4127 H4143 0.960 . S
H4128 C4112 0.931 . S
H4129 C4117 0.929 . S
H4130 C4118 0.960 . S
H4131 C4118 0.962 . S
H4132 C4118 0.960 . S
H4133 C4119 0.961 . S
H4134 C4119 0.961 . S
H4135 C4119 0.961 . S
H4136 C4120 0.931 1_554 S
H4137 C4125 0.930 . S
H4138 C4126 0.956 . S
H4139 C4126 0.961 . S
H4140 C4126 0.961 1_554 S
H4141 C4127 0.958 . S
H4142 C4127 0.961 . S
H4143 C4127 0.960 . S
C4144 C4145 1.391 . S
C4144 C4146 1.394 . S
C4144 H4160 0.931 . S
C4145 C4144 1.391 . S
C4145 C4149 1.376 . S
C4146 C4144 1.394 . S
C4146 C4147 1.369 . S
C4146 C4150 1.531 . S
C4147 C4146 1.369 . S
C4147 C4148 1.410 . S
C4147 C4155 1.503 . S
C4148 C4147 1.410 . S
C4148 C4149 1.392 . S
C4148 C4151 1.511 . S
C4149 C4145 1.376 . S
C4149 C4148 1.392 . S
C4149 H4161 0.929 . S
C4150 C4146 1.531 . S
C4150 H4162 0.960 . S
C4150 H4163 0.962 . S
C4150 H4164 0.960 . S
C4151 C4148 1.511 . S
C4151 H4165 0.961 . S
C4151 H4166 0.961 . S
C4151 H4167 0.961 . S
C4152 C4153 1.370 . S
C4152 C4154 1.363 . S
C4152 H4168 0.931 . S
C4153 C4152 1.370 . S
C4153 C4157 1.408 . S
C4154 C4152 1.363 . S
C4154 C4155 1.370 . S
C4154 C4158 1.524 . S
C4155 C4147 1.503 . S
C4155 C4154 1.370 . S
C4155 C4156 1.403 . S
C4156 C4155 1.403 . S
C4156 C4157 1.404 . S
C4156 C4159 1.539 . S
C4157 C4153 1.408 . S
C4157 C4156 1.404 . S
C4157 H4169 0.930 . S
C4158 C4154 1.524 . S
C4158 H4170 0.956 . S
C4158 H4171 0.961 . S
C4158 H4172 0.961 . S
C4159 C4156 1.539 . S
C4159 H4173 0.958 . S
C4159 H4174 0.961 . S
C4159 H4175 0.960 . S
H4160 C4144 0.931 . S
H4161 C4149 0.929 . S
H4162 C4150 0.960 . S
H4163 C4150 0.962 . S
H4164 C4150 0.960 . S
H4165 C4151 0.961 . S
H4166 C4151 0.961 . S
H4167 C4151 0.961 . S
H4168 C4152 0.931 . S
H4169 C4157 0.930 . S
H4170 C4158 0.956 . S
H4171 C4158 0.961 . S
H4172 C4158 0.961 . S
H4173 C4159 0.958 . S
H4174 C4159 0.961 . S
H4175 C4159 0.960 . S
C4176 C4177 1.391 . S
C4176 C4178 1.394 . S
C4176 H4192 0.931 . S
C4177 C4176 1.391 . S
C4177 C4181 1.376 . S
C4178 C4176 1.394 . S
C4178 C4179 1.369 . S
C4178 C4182 1.531 . S
C4179 C4178 1.369 . S
C4179 C4180 1.410 . S
C4179 C4187 1.503 . S
C4180 C4179 1.410 . S
C4180 C4181 1.392 . S
C4180 C4183 1.498 1_455 S
C4181 C4177 1.376 . S
C4181 C4180 1.392 . S
C4181 H4193 0.929 . S
C4182 C4178 1.531 . S
C4182 H4194 0.960 . S
C4182 H4195 0.962 . S
C4182 H4196 0.960 . S
C4183 C4180 1.498 1_655 S
C4183 H4197 0.961 . S
C4183 H4198 0.961 1_655 S
C4183 H4199 0.974 . S
C4184 C4185 1.370 . S
C4184 C4186 1.363 . S
C4184 H4200 0.931 . S
C4185 C4184 1.370 . S
C4185 C4189 1.408 . S
C4186 C4184 1.363 . S
C4186 C4187 1.370 . S
C4186 C4190 1.524 . S
C4187 C4179 1.503 . S
C4187 C4186 1.370 . S
C4187 C4188 1.403 . S
C4188 C4187 1.403 . S
C4188 C4189 1.404 . S
C4188 C4191 1.539 . S
C4189 C4185 1.408 . S
C4189 C4188 1.404 . S
C4189 H4201 0.930 . S
C4190 C4186 1.524 . S
C4190 H4202 0.956 . S
C4190 H4203 0.961 . S
C4190 H4204 0.961 . S
C4191 C4188 1.539 . S
C4191 H4205 0.958 . S
C4191 H4206 0.961 1_455 S
C4191 H4207 0.960 . S
H4192 C4176 0.931 . S
H4193 C4181 0.929 . S
H4194 C4182 0.960 . S
H4195 C4182 0.962 . S
H4196 C4182 0.960 . S
H4197 C4183 0.961 . S
H4198 C4183 0.961 1_455 S
H4199 C4183 0.974 . S
H4200 C4184 0.931 . S
H4201 C4189 0.930 . S
H4202 C4190 0.956 . S
H4203 C4190 0.961 . S
H4204 C4190 0.961 . S
H4205 C4191 0.958 . S
H4206 C4191 0.961 1_655 S
H4207 C4191 0.960 . S
C4208 C4209 1.391 . S
C4208 C4210 1.394 . S
C4208 H4224 0.931 . S
C4209 C4208 1.391 . S
C4209 C4213 1.376 . S
C4210 C4208 1.394 . S
C4210 C4211 1.369 . S
C4210 C4214 1.531 . S
C4211 C4210 1.369 . S
C4211 C4212 1.410 . S
C4211 C4219 1.503 . S
C4212 C4211 1.410 . S
C4212 C4213 1.392 . S
C4212 C4215 1.511 . S
C4213 C4209 1.376 . S
C4213 C4212 1.392 . S
C4213 H4225 0.929 . S
C4214 C4210 1.531 . S
C4214 H4226 0.960 . S
C4214 H4227 0.962 . S
C4214 H4228 0.960 . S
C4215 C4212 1.511 . S
C4215 H4229 0.961 . S
C4215 H4230 0.961 . S
C4215 H4231 0.961 . S
C4216 C4217 1.370 . S
C4216 C4218 1.363 . S
C4216 H4232 0.931 . S
C4217 C4216 1.370 . S
C4217 C4221 1.408 . S
C4218 C4216 1.363 . S
C4218 C4219 1.370 . S
C4218 C4222 1.524 . S
C4219 C4211 1.503 . S
C4219 C4218 1.370 . S
C4219 C4220 1.403 . S
C4220 C4219 1.403 . S
C4220 C4221 1.404 . S
C4220 C4223 1.539 . S
C4221 C4217 1.408 . S
C4221 C4220 1.404 . S
C4221 H4233 0.930 . S
C4222 C4218 1.524 . S
C4222 H4234 0.956 . S
C4222 H4235 0.961 . S
C4222 H4236 0.961 . S
C4223 C4220 1.539 . S
C4223 H4237 0.958 . S
C4223 H4238 0.961 . S
C4223 H4239 0.960 . S
H4224 C4208 0.931 . S
H4225 C4213 0.929 . S
H4226 C4214 0.960 . S
H4227 C4214 0.962 . S
H4228 C4214 0.960 . S
H4229 C4215 0.961 . S
H4230 C4215 0.961 . S
H4231 C4215 0.961 . S
H4232 C4216 0.931 . S
H4233 C4221 0.930 . S
H4234 C4222 0.956 . S
H4235 C4222 0.961 . S
H4236 C4222 0.961 . S
H4237 C4223 0.958 . S
H4238 C4223 0.961 . S
H4239 C4223 0.960 . S
C4240 C4241 1.391 . S
C4240 C4242 1.394 . S
C4240 H4256 0.931 . S
C4241 C4240 1.391 . S
C4241 C4245 1.376 . S
C4242 C4240 1.394 . S
C4242 C4243 1.369 . S
C4242 C4246 1.531 . S
C4243 C4242 1.369 . S
C4243 C4244 1.410 . S
C4243 C4251 1.503 . S
C4244 C4243 1.410 . S
C4244 C4245 1.392 . S
C4244 C4247 1.511 . S
C4245 C4241 1.376 . S
C4245 C4244 1.392 . S
C4245 H4257 0.929 . S
C4246 C4242 1.531 . S
C4246 H4258 0.960 . S
C4246 H4259 0.962 . S
C4246 H4260 0.960 . S
C4247 C4244 1.511 . S
C4247 H4261 0.961 . S
C4247 H4262 0.961 . S
C4247 H4263 0.961 . S
C4248 C4249 1.370 . S
C4248 C4250 1.363 . S
C4248 H4264 0.931 . S
C4249 C4248 1.370 . S
C4249 C4253 1.408 . S
C4250 C4248 1.363 . S
C4250 C4251 1.370 . S
C4250 C4254 1.524 . S
C4251 C4243 1.503 . S
C4251 C4250 1.370 . S
C4251 C4252 1.403 . S
C4252 C4251 1.403 . S
C4252 C4253 1.404 . S
C4252 C4255 1.539 . S
C4253 C4249 1.408 . S
C4253 C4252 1.404 . S
C4253 H4265 0.930 . S
C4254 C4250 1.524 . S
C4254 H4266 0.956 . S
C4254 H4267 0.961 . S
C4254 H4268 0.961 . S
C4255 C4252 1.539 . S
C4255 H4269 0.958 . S
C4255 H4270 0.961 . S
C4255 H4271 0.960 . S
H4256 C4240 0.931 . S
H4257 C4245 0.929 . S
H4258 C4246 0.960 . S
H4259 C4246 0.962 . S
H4260 C4246 0.960 . S
H4261 C4247 0.961 . S
H4262 C4247 0.961 . S
H4263 C4247 0.961 . S
H4264 C4248 0.931 . S
H4265 C4253 0.930 . S
H4266 C4254 0.956 . S
H4267 C4254 0.961 . S
H4268 C4254 0.961 . S
H4269 C4255 0.958 . S
H4270 C4255 0.961 . S
H4271 C4255 0.960 . S
C4272 C4273 1.391 . S
C4272 C4274 1.394 . S
C4272 H4288 0.931 . S
C4273 C4272 1.391 . S
C4273 C4277 1.376 . S
C4274 C4272 1.394 . S
C4274 C4275 1.369 . S
C4274 C4278 1.531 . S
C4275 C4274 1.369 . S
C4275 C4276 1.410 . S
C4275 C4283 1.503 . S
C4276 C4275 1.410 . S
C4276 C4277 1.392 . S
C4276 C4279 1.511 . S
C4277 C4273 1.376 . S
C4277 C4276 1.392 . S
C4277 H4289 0.929 . S
C4278 C4274 1.531 . S
C4278 H4290 0.960 . S
C4278 H4291 0.962 . S
C4278 H4292 0.960 . S
C4279 C4276 1.511 . S
C4279 H4293 0.961 . S
C4279 H4294 0.961 . S
C4279 H4295 0.961 . S
C4280 C4281 1.370 . S
C4280 C4282 1.363 . S
C4280 H4296 0.931 . S
C4281 C4280 1.370 . S
C4281 C4285 1.408 . S
C4282 C4280 1.363 . S
C4282 C4283 1.370 . S
C4282 C4286 1.524 . S
C4283 C4275 1.503 . S
C4283 C4282 1.370 . S
C4283 C4284 1.403 . S
C4284 C4283 1.403 . S
C4284 C4285 1.404 . S
C4284 C4287 1.539 . S
C4285 C4281 1.408 . S
C4285 C4284 1.404 . S
C4285 H4297 0.930 . S
C4286 C4282 1.524 . S
C4286 H4298 0.956 . S
C4286 H4299 0.961 . S
C4286 H4300 0.961 . S
C4287 C4284 1.539 . S
C4287 H4301 0.958 . S
C4287 H4302 0.961 . S
C4287 H4303 0.960 . S
H4288 C4272 0.931 . S
H4289 C4277 0.929 . S
H4290 C4278 0.960 . S
H4291 C4278 0.962 . S
H4292 C4278 0.960 . S
H4293 C4279 0.961 . S
H4294 C4279 0.961 . S
H4295 C4279 0.961 . S
H4296 C4280 0.931 . S
H4297 C4285 0.930 . S
H4298 C4286 0.956 . S
H4299 C4286 0.961 . S
H4300 C4286 0.961 . S
H4301 C4287 0.958 . S
H4302 C4287 0.961 . S
H4303 C4287 0.960 . S
C4304 C4305 1.391 . S
C4304 C4306 1.394 . S
C4304 H4320 0.931 . S
C4305 C4304 1.391 . S
C4305 C4309 1.376 . S
C4306 C4304 1.394 . S
C4306 C4307 1.369 . S
C4306 C4310 1.531 . S
C4307 C4306 1.369 . S
C4307 C4308 1.410 . S
C4307 C4315 1.503 . S
C4308 C4307 1.410 . S
C4308 C4309 1.392 . S
C4308 C4311 1.511 . S
C4309 C4305 1.376 . S
C4309 C4308 1.392 . S
C4309 H4321 0.929 . S
C4310 C4306 1.531 . S
C4310 H4322 0.960 . S
C4310 H4323 0.962 . S
C4310 H4324 0.960 . S
C4311 C4308 1.511 . S
C4311 H4325 0.961 . S
C4311 H4326 0.961 . S
C4311 H4327 0.961 . S
C4312 C4313 1.370 . S
C4312 C4314 1.363 1_554 S
C4312 H4328 0.931 . S
C4313 C4312 1.370 . S
C4313 C4317 1.408 1_654 S
C4314 C4312 1.363 1_556 S
C4314 C4315 1.370 . S
C4314 C4318 1.524 . S
C4315 C4307 1.503 . S
C4315 C4314 1.370 . S
C4315 C4316 1.403 . S
C4316 C4315 1.403 . S
C4316 C4317 1.404 1_655 S
C4316 C4319 1.564 . S
C4317 C4313 1.408 1_456 S
C4317 C4316 1.404 1_455 S
C4317 H4329 0.930 . S
C4318 C4314 1.524 . S
C4318 H4330 0.956 . S
C4318 H4331 0.961 . S
C4318 H4332 0.924 1_556 S
C4319 C4316 1.564 . S
C4319 H4333 0.938 1_655 S
C4319 H4334 0.924 1_655 S
C4319 H4335 0.996 . S
H4320 C4304 0.931 . S
H4321 C4309 0.929 . S
H4322 C4310 0.960 . S
H4323 C4310 0.962 . S
H4324 C4310 0.960 . S
H4325 C4311 0.961 . S
H4326 C4311 0.961 . S
H4327 C4311 0.961 . S
H4328 C4312 0.931 . S
H4329 C4317 0.930 . S
H4330 C4318 0.956 . S
H4331 C4318 0.961 . S
H4332 C4318 0.924 1_554 S
H4333 C4319 0.938 1_455 S
H4334 C4319 0.924 1_455 S
H4335 C4319 0.996 . S
C4336 C4337 1.391 . S
C4336 C4338 1.394 . S
C4336 H4352 0.931 . S
C4337 C4336 1.391 . S
C4337 C4341 1.376 . S
C4338 C4336 1.394 . S
C4338 C4339 1.369 . S
C4338 C4342 1.531 . S
C4339 C4338 1.369 . S
C4339 C4340 1.410 . S
C4339 C4347 1.503 . S
C4340 C4339 1.410 . S
C4340 C4341 1.392 . S
C4340 C4343 1.511 . S
C4341 C4337 1.376 . S
C4341 C4340 1.392 . S
C4341 H4353 0.929 . S
C4342 C4338 1.531 . S
C4342 H4354 0.960 . S
C4342 H4355 0.962 . S
C4342 H4356 0.960 . S
C4343 C4340 1.511 . S
C4343 H4357 0.961 . S
C4343 H4358 0.961 . S
C4343 H4359 0.961 . S
C4344 C4345 1.370 . S
C4344 C4346 1.363 . S
C4344 H4360 0.931 . S
C4345 C4344 1.370 . S
C4345 C4349 1.408 . S
C4346 C4344 1.363 . S
C4346 C4347 1.370 . S
C4346 C4350 1.524 . S
C4347 C4339 1.503 . S
C4347 C4346 1.370 . S
C4347 C4348 1.403 . S
C4348 C4347 1.403 . S
C4348 C4349 1.404 . S
C4348 C4351 1.539 . S
C4349 C4345 1.408 . S
C4349 C4348 1.404 . S
C4349 H4361 0.930 . S
C4350 C4346 1.524 . S
C4350 H4362 0.956 . S
C4350 H4363 0.961 . S
C4350 H4364 0.961 . S
C4351 C4348 1.539 . S
C4351 H4365 0.958 . S
C4351 H4366 0.961 . S
C4351 H4367 0.960 . S
H4352 C4336 0.931 . S
H4353 C4341 0.929 . S
H4354 C4342 0.960 . S
H4355 C4342 0.962 . S
H4356 C4342 0.960 . S
H4357 C4343 0.961 . S
H4358 C4343 0.961 . S
H4359 C4343 0.961 . S
H4360 C4344 0.931 . S
H4361 C4349 0.930 . S
H4362 C4350 0.956 . S
H4363 C4350 0.961 . S
H4364 C4350 0.961 . S
H4365 C4351 0.958 . S
H4366 C4351 0.961 . S
H4367 C4351 0.960 . S
C4368 C4369 1.391 . S
C4368 C4370 1.394 . S
C4368 H4384 0.931 . S
C4369 C4368 1.391 . S
C4369 C4373 1.376 . S
C4370 C4368 1.394 . S
C4370 C4371 1.369 . S
C4370 C4374 1.531 . S
C4371 C4370 1.369 . S
C4371 C4372 1.410 . S
C4371 C4379 1.503 . S
C4372 C4371 1.410 . S
C4372 C4373 1.392 . S
C4372 C4375 1.511 . S
C4373 C4369 1.376 . S
C4373 C4372 1.392 . S
C4373 H4385 0.929 . S
C4374 C4370 1.531 . S
C4374 H4386 0.960 . S
C4374 H4387 0.962 . S
C4374 H4388 0.960 . S
C4375 C4372 1.511 . S
C4375 H4389 0.961 . S
C4375 H4390 0.961 . S
C4375 H4391 0.961 . S
C4376 C4377 1.370 . S
C4376 C4378 1.363 . S
C4376 H4392 0.931 . S
C4377 C4376 1.370 . S
C4377 C4381 1.408 . S
C4378 C4376 1.363 . S
C4378 C4379 1.370 . S
C4378 C4382 1.524 . S
C4379 C4371 1.503 . S
C4379 C4378 1.370 . S
C4379 C4380 1.403 . S
C4380 C4379 1.403 . S
C4380 C4381 1.404 . S
C4380 C4383 1.539 . S
C4381 C4377 1.408 . S
C4381 C4380 1.404 . S
C4381 H4393 0.930 . S
C4382 C4378 1.524 . S
C4382 H4394 0.956 . S
C4382 H4395 0.961 . S
C4382 H4396 0.961 . S
C4383 C4380 1.539 . S
C4383 H4397 0.958 . S
C4383 H4398 0.961 . S
C4383 H4399 0.960 . S
H4384 C4368 0.931 . S
H4385 C4373 0.929 . S
H4386 C4374 0.960 . S
H4387 C4374 0.962 . S
H4388 C4374 0.960 . S
H4389 C4375 0.961 . S
H4390 C4375 0.961 . S
H4391 C4375 0.961 . S
H4392 C4376 0.931 . S
H4393 C4381 0.930 . S
H4394 C4382 0.956 . S
H4395 C4382 0.961 . S
H4396 C4382 0.961 . S
H4397 C4383 0.958 . S
H4398 C4383 0.961 . S
H4399 C4383 0.960 . S
C4400 C4401 1.391 . S
C4400 C4402 1.394 . S
C4400 H4416 0.931 . S
C4401 C4400 1.391 . S
C4401 C4405 1.376 . S
C4402 C4400 1.394 . S
C4402 C4403 1.369 . S
C4402 C4406 1.531 . S
C4403 C4402 1.369 . S
C4403 C4404 1.410 . S
C4403 C4411 1.503 . S
C4404 C4403 1.410 . S
C4404 C4405 1.392 . S
C4404 C4407 1.511 . S
C4405 C4401 1.376 . S
C4405 C4404 1.392 . S
C4405 H4417 0.929 . S
C4406 C4402 1.531 . S
C4406 H4418 0.960 . S
C4406 H4419 0.962 . S
C4406 H4420 0.960 . S
C4407 C4404 1.511 . S
C4407 H4421 0.961 . S
C4407 H4422 0.961 . S
C4407 H4423 0.961 . S
C4408 C4409 1.370 . S
C4408 C4410 1.363 . S
C4408 H4424 0.931 . S
C4409 C4408 1.370 . S
C4409 C4413 1.408 . S
C4410 C4408 1.363 . S
C4410 C4411 1.370 . S
C4410 C4414 1.524 . S
C4411 C4403 1.503 . S
C4411 C4410 1.370 . S
C4411 C4412 1.403 . S
C4412 C4411 1.403 . S
C4412 C4413 1.404 . S
C4412 C4415 1.539 . S
C4413 C4409 1.408 . S
C4413 C4412 1.404 . S
C4413 H4425 0.930 . S
C4414 C4410 1.524 . S
C4414 H4426 0.956 . S
C4414 H4427 0.961 . S
C4414 H4428 0.961 . S
C4415 C4412 1.539 . S
C4415 H4429 0.958 . S
C4415 H4430 0.961 . S
C4415 H4431 0.960 . S
H4416 C4400 0.931 . S
H4417 C4405 0.929 . S
H4418 C4406 0.960 . S
H4419 C4406 0.962 . S
H4420 C4406 0.960 . S
H4421 C4407 0.961 . S
H4422 C4407 0.961 . S
H4423 C4407 0.961 . S
H4424 C4408 0.931 . S
H4425 C4413 0.930 . S
H4426 C4414 0.956 . S
H4427 C4414 0.961 . S
H4428 C4414 0.961 . S
H4429 C4415 0.958 . S
H4430 C4415 0.961 . S
H4431 C4415 0.960 . S
C4432 C4433 1.391 . S
C4432 C4434 1.394 . S
C4432 H4448 0.931 . S
C4433 C4432 1.391 . S
C4433 C4437 1.376 . S
C4434 C4432 1.394 . S
C4434 C4435 1.369 . S
C4434 C4438 1.531 . S
C4435 C4434 1.369 . S
C4435 C4436 1.410 . S
C4435 C4443 1.503 . S
C4436 C4435 1.410 . S
C4436 C4437 1.392 . S
C4436 C4439 1.511 . S
C4437 C4433 1.376 . S
C4437 C4436 1.392 . S
C4437 H4449 0.929 . S
C4438 C4434 1.531 . S
C4438 H4450 0.960 . S
C4438 H4451 0.962 . S
C4438 H4452 0.960 . S
C4439 C4436 1.511 . S
C4439 H4453 0.961 . S
C4439 H4454 0.961 . S
C4439 H4455 0.961 . S
C4440 C4441 1.370 . S
C4440 C4442 1.363 . S
C4440 H4456 0.931 . S
C4441 C4440 1.370 . S
C4441 C4445 1.408 . S
C4442 C4440 1.363 . S
C4442 C4443 1.370 . S
C4442 C4446 1.524 . S
C4443 C4435 1.503 . S
C4443 C4442 1.370 . S
C4443 C4444 1.403 . S
C4444 C4443 1.403 . S
C4444 C4445 1.404 . S
C4444 C4447 1.539 . S
C4445 C4441 1.408 . S
C4445 C4444 1.404 . S
C4445 H4457 0.930 . S
C4446 C4442 1.524 . S
C4446 H4458 0.956 . S
C4446 H4459 0.961 . S
C4446 H4460 0.961 . S
C4447 C4444 1.539 . S
C4447 H4461 0.958 . S
C4447 H4462 0.961 . S
C4447 H4463 0.960 . S
H4448 C4432 0.931 . S
H4449 C4437 0.929 . S
H4450 C4438 0.960 . S
H4451 C4438 0.962 . S
H4452 C4438 0.960 . S
H4453 C4439 0.961 . S
H4454 C4439 0.961 . S
H4455 C4439 0.961 . S
H4456 C4440 0.931 . S
H4457 C4445 0.930 . S
H4458 C4446 0.956 . S
H4459 C4446 0.961 . S
H4460 C4446 0.961 . S
H4461 C4447 0.958 . S
H4462 C4447 0.961 . S
H4463 C4447 0.960 . S
C4464 C4465 1.391 . S
C4464 C4466 1.394 . S
C4464 H4480 0.931 . S
C4465 C4464 1.391 . S
C4465 C4469 1.376 . S
C4466 C4464 1.394 . S
C4466 C4467 1.369 . S
C4466 C4470 1.531 . S
C4467 C4466 1.369 . S
C4467 C4468 1.410 . S
C4467 C4475 1.503 . S
C4468 C4467 1.410 . S
C4468 C4469 1.392 . S
C4468 C4471 1.511 . S
C4469 C4465 1.376 . S
C4469 C4468 1.392 . S
C4469 H4481 0.929 . S
C4470 C4466 1.531 . S
C4470 H4482 0.960 . S
C4470 H4483 0.962 . S
C4470 H4484 0.960 . S
C4471 C4468 1.511 . S
C4471 H4485 0.961 . S
C4471 H4486 0.961 . S
C4471 H4487 0.961 . S
C4472 C4473 1.370 . S
C4472 C4474 1.363 . S
C4472 H4488 0.931 . S
C4473 C4472 1.370 . S
C4473 C4477 1.408 . S
C4474 C4472 1.363 . S
C4474 C4475 1.370 . S
C4474 C4478 1.524 . S
C4475 C4467 1.503 . S
C4475 C4474 1.370 . S
C4475 C4476 1.403 . S
C4476 C4475 1.403 . S
C4476 C4477 1.404 . S
C4476 C4479 1.539 . S
C4477 C4473 1.408 . S
C4477 C4476 1.404 . S
C4477 H4489 0.930 . S
C4478 C4474 1.524 . S
C4478 H4490 0.956 . S
C4478 H4491 0.961 . S
C4478 H4492 0.961 . S
C4479 C4476 1.539 . S
C4479 H4493 0.958 . S
C4479 H4494 0.961 . S
C4479 H4495 0.960 . S
H4480 C4464 0.931 . S
H4481 C4469 0.929 . S
H4482 C4470 0.960 . S
H4483 C4470 0.962 . S
H4484 C4470 0.960 . S
H4485 C4471 0.961 . S
H4486 C4471 0.961 . S
H4487 C4471 0.961 . S
H4488 C4472 0.931 . S
H4489 C4477 0.930 . S
H4490 C4478 0.956 . S
H4491 C4478 0.961 . S
H4492 C4478 0.961 . S
H4493 C4479 0.958 . S
H4494 C4479 0.961 . S
H4495 C4479 0.960 . S
C4496 C4497 1.391 . S
C4496 C4498 1.394 . S
C4496 H4512 0.931 . S
C4497 C4496 1.391 . S
C4497 C4501 1.376 . S
C4498 C4496 1.394 . S
C4498 C4499 1.369 . S
C4498 C4502 1.531 . S
C4499 C4498 1.369 . S
C4499 C4500 1.410 . S
C4499 C4507 1.503 . S
C4500 C4499 1.410 . S
C4500 C4501 1.392 . S
C4500 C4503 1.511 . S
C4501 C4497 1.376 . S
C4501 C4500 1.392 . S
C4501 H4513 0.929 . S
C4502 C4498 1.531 . S
C4502 H4514 0.960 . S
C4502 H4515 0.962 . S
C4502 H4516 0.960 . S
C4503 C4500 1.511 . S
C4503 H4517 0.961 . S
C4503 H4518 0.961 . S
C4503 H4519 0.961 . S
C4504 C4505 1.370 . S
C4504 C4506 1.363 . S
C4504 H4520 0.931 . S
C4505 C4504 1.370 . S
C4505 C4509 1.408 . S
C4506 C4504 1.363 . S
C4506 C4507 1.370 . S
C4506 C4510 1.524 . S
C4507 C4499 1.503 . S
C4507 C4506 1.370 . S
C4507 C4508 1.403 . S
C4508 C4507 1.403 . S
C4508 C4509 1.404 . S
C4508 C4511 1.539 . S
C4509 C4505 1.408 . S
C4509 C4508 1.404 . S
C4509 H4521 0.930 . S
C4510 C4506 1.524 . S
C4510 H4522 0.956 . S
C4510 H4523 0.961 . S
C4510 H4524 0.961 . S
C4511 C4508 1.539 . S
C4511 H4525 0.958 . S
C4511 H4526 0.961 . S
C4511 H4527 0.960 . S
H4512 C4496 0.931 . S
H4513 C4501 0.929 . S
H4514 C4502 0.960 . S
H4515 C4502 0.962 . S
H4516 C4502 0.960 . S
H4517 C4503 0.961 . S
H4518 C4503 0.961 . S
H4519 C4503 0.961 . S
H4520 C4504 0.931 . S
H4521 C4509 0.930 . S
H4522 C4510 0.956 . S
H4523 C4510 0.961 . S
H4524 C4510 0.961 . S
H4525 C4511 0.958 . S
H4526 C4511 0.961 . S
H4527 C4511 0.960 . S
C4528 C4529 1.391 . S
C4528 C4530 1.394 . S
C4528 H4544 0.931 . S
C4529 C4528 1.391 . S
C4529 C4533 1.376 . S
C4530 C4528 1.394 . S
C4530 C4531 1.369 . S
C4530 C4534 1.531 . S
C4531 C4530 1.369 . S
C4531 C4532 1.410 . S
C4531 C4539 1.503 . S
C4532 C4531 1.410 . S
C4532 C4533 1.392 . S
C4532 C4535 1.511 . S
C4533 C4529 1.376 . S
C4533 C4532 1.392 . S
C4533 H4545 0.929 . S
C4534 C4530 1.531 . S
C4534 H4546 0.960 . S
C4534 H4547 0.962 . S
C4534 H4548 0.960 . S
C4535 C4532 1.511 . S
C4535 H4549 0.961 . S
C4535 H4550 0.961 . S
C4535 H4551 0.961 . S
C4536 C4537 1.370 . S
C4536 C4538 1.363 . S
C4536 H4552 0.931 . S
C4537 C4536 1.370 . S
C4537 C4541 1.408 . S
C4538 C4536 1.363 . S
C4538 C4539 1.370 . S
C4538 C4542 1.524 . S
C4539 C4531 1.503 . S
C4539 C4538 1.370 . S
C4539 C4540 1.403 . S
C4540 C4539 1.403 . S
C4540 C4541 1.404 . S
C4540 C4543 1.539 . S
C4541 C4537 1.408 . S
C4541 C4540 1.404 . S
C4541 H4553 0.927 1_565 S
C4542 C4538 1.524 . S
C4542 H4554 0.956 . S
C4542 H4555 0.961 . S
C4542 H4556 0.961 . S
C4543 C4540 1.539 . S
C4543 H4557 0.958 . S
C4543 H4558 0.961 . S
C4543 H4559 0.960 . S
H4544 C4528 0.931 . S
H4545 C4533 0.929 . S
H4546 C4534 0.960 . S
H4547 C4534 0.962 . S
H4548 C4534 0.960 . S
H4549 C4535 0.961 . S
H4550 C4535 0.961 . S
H4551 C4535 0.961 . S
H4552 C4536 0.931 . S
H4553 C4541 0.927 1_545 S
H4554 C4542 0.956 . S
H4555 C4542 0.961 . S
H4556 C4542 0.961 . S
H4557 C4543 0.958 . S
H4558 C4543 0.961 . S
H4559 C4543 0.960 . S
C4560 C4561 1.391 . S
C4560 C4562 1.394 . S
C4560 H4576 0.931 . S
C4561 C4560 1.391 . S
C4561 C4565 1.376 . S
C4562 C4560 1.394 . S
C4562 C4563 1.369 . S
C4562 C4566 1.531 . S
C4563 C4562 1.369 . S
C4563 C4564 1.410 . S
C4563 C4571 1.503 . S
C4564 C4563 1.410 . S
C4564 C4565 1.392 . S
C4564 C4567 1.511 . S
C4565 C4561 1.376 . S
C4565 C4564 1.392 . S
C4565 H4577 0.929 . S
C4566 C4562 1.531 . S
C4566 H4578 0.960 . S
C4566 H4579 0.962 . S
C4566 H4580 0.960 . S
C4567 C4564 1.511 . S
C4567 H4581 0.961 . S
C4567 H4582 0.961 . S
C4567 H4583 0.961 . S
C4568 C4569 1.370 . S
C4568 C4570 1.363 . S
C4568 H4584 0.931 . S
C4569 C4568 1.370 . S
C4569 C4573 1.408 . S
C4570 C4568 1.363 . S
C4570 C4571 1.370 . S
C4570 C4574 1.524 . S
C4571 C4563 1.503 . S
C4571 C4570 1.370 . S
C4571 C4572 1.403 . S
C4572 C4571 1.403 . S
C4572 C4573 1.404 . S
C4572 C4575 1.539 . S
C4573 C4569 1.408 . S
C4573 C4572 1.404 . S
C4573 H4585 0.930 . S
C4574 C4570 1.524 . S
C4574 H4586 0.956 . S
C4574 H4587 0.961 . S
C4574 H4588 0.961 . S
C4575 C4572 1.539 . S
C4575 H4589 0.958 . S
C4575 H4590 0.961 . S
C4575 H4591 0.960 . S
H4576 C4560 0.931 . S
H4577 C4565 0.929 . S
H4578 C4566 0.960 . S
H4579 C4566 0.962 . S
H4580 C4566 0.960 . S
H4581 C4567 0.961 . S
H4582 C4567 0.961 . S
H4583 C4567 0.961 . S
H4584 C4568 0.931 . S
H4585 C4573 0.930 . S
H4586 C4574 0.956 . S
H4587 C4574 0.961 . S
H4588 C4574 0.961 . S
H4589 C4575 0.958 . S
H4590 C4575 0.961 . S
H4591 C4575 0.960 . S
C4592 C4593 1.391 . S
C4592 C4594 1.394 . S
C4592 H4608 0.931 . S
C4593 C4592 1.391 . S
C4593 C4597 1.376 . S
C4594 C4592 1.394 . S
C4594 C4595 1.369 . S
C4594 C4598 1.531 . S
C4595 C4594 1.369 . S
C4595 C4596 1.410 . S
C4595 C4603 1.503 . S
C4596 C4595 1.410 . S
C4596 C4597 1.392 . S
C4596 C4599 1.511 . S
C4597 C4593 1.376 . S
C4597 C4596 1.392 . S
C4597 H4609 0.929 . S
C4598 C4594 1.531 . S
C4598 H4610 0.960 . S
C4598 H4611 0.962 . S
C4598 H4612 0.960 . S
C4599 C4596 1.511 . S
C4599 H4613 0.961 . S
C4599 H4614 0.961 . S
C4599 H4615 0.961 . S
C4600 C4601 1.370 . S
C4600 C4602 1.363 . S
C4600 H4616 0.931 . S
C4601 C4600 1.370 . S
C4601 C4605 1.408 . S
C4602 C4600 1.363 . S
C4602 C4603 1.370 . S
C4602 C4606 1.524 . S
C4603 C4595 1.503 . S
C4603 C4602 1.370 . S
C4603 C4604 1.403 . S
C4604 C4603 1.403 . S
C4604 C4605 1.404 . S
C4604 C4607 1.539 . S
C4605 C4601 1.408 . S
C4605 C4604 1.404 . S
C4605 H4617 0.930 . S
C4606 C4602 1.524 . S
C4606 H4618 0.956 . S
C4606 H4619 0.961 . S
C4606 H4620 0.961 . S
C4607 C4604 1.539 . S
C4607 H4621 0.958 . S
C4607 H4622 0.961 . S
C4607 H4623 0.960 . S
H4608 C4592 0.931 . S
H4609 C4597 0.929 . S
H4610 C4598 0.960 . S
H4611 C4598 0.962 . S
H4612 C4598 0.960 . S
H4613 C4599 0.961 . S
H4614 C4599 0.961 . S
H4615 C4599 0.961 . S
H4616 C4600 0.931 . S
H4617 C4605 0.930 . S
H4618 C4606 0.956 . S
H4619 C4606 0.961 . S
H4620 C4606 0.961 . S
H4621 C4607 0.958 . S
H4622 C4607 0.961 . S
H4623 C4607 0.960 . S
C4624 C4625 1.391 . S
C4624 C4626 1.394 . S
C4624 H4640 0.931 . S
C4625 C4624 1.391 . S
C4625 C4629 1.376 . S
C4626 C4624 1.394 . S
C4626 C4627 1.369 . S
C4626 C4630 1.531 . S
C4627 C4626 1.369 . S
C4627 C4628 1.410 . S
C4627 C4635 1.503 . S
C4628 C4627 1.410 . S
C4628 C4629 1.392 . S
C4628 C4631 1.511 . S
C4629 C4625 1.376 . S
C4629 C4628 1.392 . S
C4629 H4641 0.929 . S
C4630 C4626 1.531 . S
C4630 H4642 0.960 . S
C4630 H4643 0.962 . S
C4630 H4644 0.960 . S
C4631 C4628 1.511 . S
C4631 H4645 0.961 . S
C4631 H4646 0.961 . S
C4631 H4647 0.961 . S
C4632 C4633 1.370 . S
C4632 C4634 1.363 . S
C4632 H4648 0.931 . S
C4633 C4632 1.370 . S
C4633 C4637 1.408 . S
C4634 C4632 1.363 . S
C4634 C4635 1.370 . S
C4634 C4638 1.524 . S
C4635 C4627 1.503 . S
C4635 C4634 1.370 . S
C4635 C4636 1.403 . S
C4636 C4635 1.403 . S
C4636 C4637 1.404 . S
C4636 C4639 1.539 . S
C4637 C4633 1.408 . S
C4637 C4636 1.404 . S
C4637 H4649 0.930 . S
C4638 C4634 1.524 . S
C4638 H4650 0.956 . S
C4638 H4651 0.961 . S
C4638 H4652 0.961 . S
C4639 C4636 1.539 . S
C4639 H4653 0.958 . S
C4639 H4654 0.961 . S
C4639 H4655 0.960 . S
H4640 C4624 0.931 . S
H4641 C4629 0.929 . S
H4642 C4630 0.960 . S
H4643 C4630 0.962 . S
H4644 C4630 0.960 . S
H4645 C4631 0.961 . S
H4646 C4631 0.961 . S
H4647 C4631 0.961 . S
H4648 C4632 0.931 . S
H4649 C4637 0.930 . S
H4650 C4638 0.956 . S
H4651 C4638 0.961 . S
H4652 C4638 0.961 . S
H4653 C4639 0.958 . S
H4654 C4639 0.961 . S
H4655 C4639 0.960 . S
C4656 C4657 1.391 . S
C4656 C4658 1.394 . S
C4656 H4672 0.931 . S
C4657 C4656 1.391 . S
C4657 C4661 1.376 . S
C4658 C4656 1.394 . S
C4658 C4659 1.369 . S
C4658 C4662 1.531 . S
C4659 C4658 1.369 . S
C4659 C4660 1.410 . S
C4659 C4667 1.503 . S
C4660 C4659 1.410 . S
C4660 C4661 1.392 . S
C4660 C4663 1.511 . S
C4661 C4657 1.376 . S
C4661 C4660 1.392 . S
C4661 H4673 0.929 . S
C4662 C4658 1.531 . S
C4662 H4674 0.960 . S
C4662 H4675 0.962 . S
C4662 H4676 0.960 . S
C4663 C4660 1.511 . S
C4663 H4677 0.961 . S
C4663 H4678 0.961 . S
C4663 H4679 0.961 . S
C4664 C4665 1.370 . S
C4664 C4666 1.363 . S
C4664 H4680 0.931 . S
C4665 C4664 1.370 . S
C4665 C4669 1.408 . S
C4666 C4664 1.363 . S
C4666 C4667 1.370 . S
C4666 C4670 1.524 . S
C4667 C4659 1.503 . S
C4667 C4666 1.370 . S
C4667 C4668 1.403 . S
C4668 C4667 1.403 . S
C4668 C4669 1.404 . S
C4668 C4671 1.539 . S
C4669 C4665 1.408 . S
C4669 C4668 1.404 . S
C4669 H4681 0.930 . S
C4670 C4666 1.524 . S
C4670 H4682 0.956 . S
C4670 H4683 0.961 . S
C4670 H4684 0.961 . S
C4671 C4668 1.539 . S
C4671 H4685 0.958 . S
C4671 H4686 0.961 . S
C4671 H4687 0.960 . S
H4672 C4656 0.931 . S
H4673 C4661 0.929 . S
H4674 C4662 0.960 . S
H4675 C4662 0.962 . S
H4676 C4662 0.960 . S
H4677 C4663 0.961 . S
H4678 C4663 0.961 . S
H4679 C4663 0.961 . S
H4680 C4664 0.931 . S
H4681 C4669 0.930 . S
H4682 C4670 0.956 . S
H4683 C4670 0.961 . S
H4684 C4670 0.961 . S
H4685 C4671 0.958 . S
H4686 C4671 0.961 . S
H4687 C4671 0.960 . S
C4688 C4689 1.391 . S
C4688 C4690 1.394 . S
C4688 H4704 0.931 . S
C4689 C4688 1.391 . S
C4689 C4693 1.376 . S
C4690 C4688 1.394 . S
C4690 C4691 1.369 . S
C4690 C4694 1.531 . S
C4691 C4690 1.369 . S
C4691 C4692 1.410 . S
C4691 C4699 1.503 . S
C4692 C4691 1.410 . S
C4692 C4693 1.392 . S
C4692 C4695 1.511 . S
C4693 C4689 1.376 . S
C4693 C4692 1.392 . S
C4693 H4705 0.929 . S
C4694 C4690 1.531 . S
C4694 H4706 0.960 . S
C4694 H4707 0.962 . S
C4694 H4708 0.960 . S
C4695 C4692 1.511 . S
C4695 H4709 0.961 . S
C4695 H4710 0.961 . S
C4695 H4711 0.961 . S
C4696 C4697 1.370 . S
C4696 C4698 1.363 . S
C4696 H4712 0.931 . S
C4697 C4696 1.370 . S
C4697 C4701 1.408 . S
C4698 C4696 1.363 . S
C4698 C4699 1.370 . S
C4698 C4702 1.524 . S
C4699 C4691 1.503 . S
C4699 C4698 1.370 . S
C4699 C4700 1.403 . S
C4700 C4699 1.403 . S
C4700 C4701 1.404 . S
C4700 C4703 1.539 . S
C4701 C4697 1.408 . S
C4701 C4700 1.404 . S
C4701 H4713 0.930 . S
C4702 C4698 1.524 . S
C4702 H4714 0.956 . S
C4702 H4715 0.961 . S
C4702 H4716 0.961 . S
C4703 C4700 1.539 . S
C4703 H4717 0.958 . S
C4703 H4718 0.961 . S
C4703 H4719 0.960 . S
H4704 C4688 0.931 . S
H4705 C4693 0.929 . S
H4706 C4694 0.960 . S
H4707 C4694 0.962 . S
H4708 C4694 0.960 . S
H4709 C4695 0.961 . S
H4710 C4695 0.961 . S
H4711 C4695 0.961 . S
H4712 C4696 0.931 . S
H4713 C4701 0.930 . S
H4714 C4702 0.956 . S
H4715 C4702 0.961 . S
H4716 C4702 0.961 . S
H4717 C4703 0.958 . S
H4718 C4703 0.961 . S
H4719 C4703 0.960 . S
C4720 C4721 1.391 . S
C4720 C4722 1.394 . S
C4720 H4736 0.931 . S
C4721 C4720 1.391 . S
C4721 C4725 1.376 . S
C4722 C4720 1.394 . S
C4722 C4723 1.369 . S
C4722 C4726 1.531 . S
C4723 C4722 1.369 . S
C4723 C4724 1.410 . S
C4723 C4731 1.503 . S
C4724 C4723 1.410 . S
C4724 C4725 1.392 . S
C4724 C4727 1.511 . S
C4725 C4721 1.376 . S
C4725 C4724 1.392 . S
C4725 H4737 0.929 . S
C4726 C4722 1.531 . S
C4726 H4738 0.960 . S
C4726 H4739 0.962 . S
C4726 H4740 0.960 . S
C4727 C4724 1.511 . S
C4727 H4741 0.961 . S
C4727 H4742 0.961 . S
C4727 H4743 0.961 . S
C4728 C4729 1.370 . S
C4728 C4730 1.363 . S
C4728 H4744 0.931 . S
C4729 C4728 1.370 . S
C4729 C4733 1.408 . S
C4730 C4728 1.363 . S
C4730 C4731 1.370 . S
C4730 C4734 1.524 . S
C4731 C4723 1.503 . S
C4731 C4730 1.370 . S
C4731 C4732 1.403 . S
C4732 C4731 1.403 . S
C4732 C4733 1.404 . S
C4732 C4735 1.539 . S
C4733 C4729 1.408 . S
C4733 C4732 1.404 . S
C4733 H4745 0.930 . S
C4734 C4730 1.524 . S
C4734 H4746 0.956 . S
C4734 H4747 0.961 . S
C4734 H4748 0.961 . S
C4735 C4732 1.539 . S
C4735 H4749 0.958 . S
C4735 H4750 0.961 . S
C4735 H4751 0.960 . S
H4736 C4720 0.931 . S
H4737 C4725 0.929 . S
H4738 C4726 0.960 . S
H4739 C4726 0.962 . S
H4740 C4726 0.960 . S
H4741 C4727 0.961 . S
H4742 C4727 0.961 . S
H4743 C4727 0.961 . S
H4744 C4728 0.931 . S
H4745 C4733 0.930 . S
H4746 C4734 0.956 . S
H4747 C4734 0.961 . S
H4748 C4734 0.961 . S
H4749 C4735 0.958 . S
H4750 C4735 0.961 . S
H4751 C4735 0.960 . S
C1681 C106 2.387 . S
C1689 C392 2.460 . S
C1713 C65 1.852 . S
C1721 C494 1.843 . S
C1745 C79 2.106 . S
C1753 C560 2.156 . S
C1785 C646 1.220 . S
C1777 C90 1.254 . S
C1809 C21 1.281 . S
C1817 C730 1.254 . S
C1849 C812 1.785 . S
C1841 C35 1.770 . S
C1881 C914 1.905 . S
C1873 C50 1.918 . S
C1905 C6 2.018 . S
C1913 C980 2.075 . S
C1945 C410 1.901 . S
C1937 C232 1.906 . S
C1969 C245 0.902 . S
C1977 C478 0.932 . S
C2009 C578 1.192 . S
C2001 C274 1.228 . S
C2041 C644 1.630 . S
C2033 C175 1.567 . S
C2065 C231 1.466 . S
C2073 C728 1.475 . S
C2105 C830 1.138 . S
C2097 C246 1.121 . S
C2137 C898 0.842 . S
C2129 C273 0.870 . S
C2169 C998 1.825 . S
C2161 C176 1.826 . S
C2201 C394 1.027 . S
C2193 C160 1.000 . S
C2225 C289 1.663 . S
C2233 C1082 1.656 . S
C2265 C1150 1.363 . S
C2257 C328 1.386 . S
C2297 C1232 0.987 . S
C2289 C317 0.994 . S
C2321 C118 0.991 . S
C2329 C982 1.016 . S
C2353 C132 1.392 . S
C2361 C562 1.352 . S
C2385 C331 1.737 . S
C2393 C1334 1.723 . S
C2425 C1400 1.054 . S
C2417 C303 1.049 . S
C2457 C403 2.090 . S
C2449 C63 2.060 . S
C2489 C1407 2.297 . S
C2481 C107 2.261 . S
C2513 C92 1.996 . S
C2521 C571 2.048 . S
C2545 C78 1.801 . S
C2553 C1329 1.682 . S
C2585 C741 1.682 . S
C2577 C8 1.801 . S
C2609 C51 2.002 . S
C2617 C1159 2.043 . S
C2649 C903 2.292 1_556 S
C2641 C37 2.228 . S
C2681 C1495 2.082 . S
C2673 C20 2.083 . S
C2713 C399 1.723 1_556 S
C2705 C147 1.720 . S
C2745 C1413 1.088 . S
C2737 C316 1.112 . S
C2769 C119 1.158 . S
C2777 C567 1.211 . S
C2801 C288 1.780 . S
C2809 C1327 1.813 . S
C2833 C148 1.798 . S
C2841 C739 1.816 . S
C2873 C1155 1.192 . S
C2865 C315 1.176 . S
C2897 C120 1.114 . S
C2905 C909 1.084 . S
C2929 C287 1.719 . S
C2937 C1491 1.736 . S
C2961 C188 0.906 . S
C2969 C405 0.916 . S
C2993 C177 1.972 . S
C3001 C1071 1.989 . S
C3025 C258 1.452 . S
C3033 C825 1.419 . S
C3057 C247 1.032 . S
C3065 C1243 1.043 . S
C3097 C1497 0.922 . S
C3089 C272 0.930 1_565 S
C3121 C216 1.263 . S
C3129 C573 1.245 . S
C3161 C651 1.991 . S
C3153 C261 1.964 . S
C3193 C487 1.031 . S
C3185 C205 1.029 . S
C3217 C76 1.993 . S
C3225 C1568 2.079 . S
C3257 C1418 1.912 . S
C3249 C93 1.920 . S
C3281 C105 1.751 . S
C3289 C1652 1.789 . S
C3313 C62 1.317 1_655 S
C3321 C1318 1.243 . S
C3345 C49 1.222 . S
C3353 C1066 1.216 . S
C3385 C1148 2.153 . S
C3377 C9 2.135 . S
C3417 C1250 1.834 . S
C3409 C22 1.849 . S
C3449 C1484 2.459 . S
C3441 C36 2.419 . S
C3481 C1586 1.825 . S
C3473 C260 1.823 . S
C3505 C189 0.881 1_556 S
C3513 C1402 0.834 . S
C3545 C1670 1.137 . S
C3537 C204 1.121 . S
C3577 C1316 1.475 . S
C3569 C217 1.425 . S
C3609 C1064 1.627 . S
C3601 C259 1.591 . S
C3633 C190 1.222 . S
C3641 C1166 1.199 . S
C3673 C1234 0.877 . S
C3665 C203 0.948 . S
C3697 C218 1.908 . S
C3705 C1502 1.902 . S
C3737 C1570 1.051 . S
C3729 C314 0.997 . S
C3761 C135 1.738 . S
C3769 C746 1.727 . S
C3801 C814 1.344 . S
C3793 C146 1.362 . S
C3833 C896 1.052 . S
C3825 C163 1.060 . S
C3865 C1486 1.032 . S
C3857 C300 0.979 . S
C3889 C286 1.310 . S
C3897 C1654 1.324 . S
C3929 C662 1.646 . S
C3921 C149 1.666 . S
C3961 C476 0.987 . S
C3953 C121 0.986 . S
C3985 C91 2.077 . S
C3993 C1579 2.072 . S
C4025 C483 1.921 . S
C4017 C77 1.843 . S
C4049 C64 1.992 . S
C4057 C1663 2.030 . S
C4081 C104 1.450 . S
C4089 C657 1.417 . S
C4113 C34 1.491 . S
C4121 C1077 1.405 . S
C4153 C823 2.033 . S
C4145 C23 1.955 . S
C4177 C7 1.827 . S
C4185 C1239 1.915 . S
C4209 C48 2.062 . S
C4217 C991 2.075 . S
C4249 C1575 1.718 . S
C4241 C329 1.736 . S
C4273 C162 1.180 . S
C4281 C489 1.065 . S
C4313 C1659 1.192 1_655 S
C4305 C301 1.098 . S
C4337 C134 1.800 . S
C4345 C655 1.830 . S
C4369 C330 1.810 . S
C4377 C1075 1.835 . S
C4409 C819 1.187 . S
C4401 C161 1.188 . S
C4433 C302 1.169 . S
C4441 C1245 1.078 . S
C4473 C987 1.717 . S
C4465 C133 1.738 . S
C4505 C1581 1.027 . S
C4497 C244 1.039 . S
C4537 C735 1.959 1_565 S
C4529 C219 1.946 . S
C4561 C230 1.223 . S
C4569 C1161 1.239 . S
C4601 C907 1.001 . S
C4593 C191 1.002 . S
C4625 C202 1.103 . S
C4633 C993 1.047 . S
C4657 C174 1.445 . S
C4665 C1665 1.419 . S
C4697 C1323 1.959 . S
C4689 C233 1.943 . S
C4729 C1411 1.007 . S
C4721 C275 0.992 . S
