# Generated by pormake.
# Topology pts, (4,4)-cn, num edge types: 1
# Building blocks:
#     Node 0, Type 0, BuildingBlock: NAWXER_clean_sbu_0, # of connection points: 4
#     Node 1, Type 0, BuildingBlock: NAWXER_clean_sbu_0, # of connection points: 4
#     Node 2, Type 1, BuildingBlock: UXUYUI_clean_sbu_0, # of connection points: 4
#     Node 3, Type 1, BuildingBlock: UXUYUI_clean_sbu_0, # of connection points: 4
#     Edge 4, Type (0, 1), BuildingBlock: ZUJKAS_clean_linker_0, # of connection points: 2
#     Edge 5, Type (0, 1), BuildingBlock: ZUJKAS_clean_linker_0, # of connection points: 2
#     Edge 6, Type (0, 1), BuildingBlock: ZUJKAS_clean_linker_0, # of connection points: 2
#     Edge 7, Type (0, 1), BuildingBlock: ZUJKAS_clean_linker_0, # of connection points: 2
#     Edge 8, Type (0, 1), BuildingBlock: ZUJKAS_clean_linker_0, # of connection points: 2
#     Edge 9, Type (0, 1), BuildingBlock: ZUJKAS_clean_linker_0, # of connection points: 2
#     Edge 10, Type (0, 1), BuildingBlock: ZUJKAS_clean_linker_0, # of connection points: 2
#     Edge 11, Type (0, 1), BuildingBlock: ZUJKAS_clean_linker_0, # of connection points: 2
# Relax obj value: 0.015
# Max RMSD: 0.059
# Mean RMSD: 0.051
data_MOF--net-pts--node1-NAWXER_clean_sbu_0--node2-UXUYUI_clean_sbu_0--edge1-ZUJKAS_clean_linker_0
_symmetry_space_group_name_H-M    P1
_symmetry_Int_Tables_number       1
_symmetry_cell_setting            triclinic
loop_
_symmetry_equiv_pos_as_xyz
'x, y, z'
_cell_length_a     35.806763
_cell_length_b     35.798021
_cell_length_c     57.403328
_cell_angle_alpha  89.956933
_cell_angle_beta   89.931624
_cell_angle_gamma 89.99062
loop_
_atom_site_label
_atom_site_type_symbol
_atom_site_fract_x
_atom_site_fract_y
_atom_site_fract_z
_atom_type_partial_charge
C0 C 0.45821 0.03431 0.97582 0.0
C1 C 0.55782 0.03527 0.03437 0.0
O2 O 0.46863 1.00165 0.98231 0.0
Zn3 Zn 0.50804 0.97647 0.00561 0.0
O4 O 0.47405 0.06296 0.98444 0.0
Zn5 Zn 0.50801 0.03636 1.005 0.0
O6 O 0.5453 0.01026 0.98084 0.0
O7 O 0.54072 0.94909 0.98456 0.0
O8 O 0.54215 0.06358 0.0252 0.0
O9 O 0.5473 1.00241 0.02843 0.0
O10 O 0.47541 0.95005 0.02721 0.0
O11 O 0.47001 0.01136 0.02922 0.0
C12 C 0.5554 0.97735 0.97469 0.0
C13 C 0.45999 0.97876 0.03607 0.0
C14 C 0.03172 0.5553 0.47496 0.0
C15 C 0.03272 0.45905 0.53583 0.0
O16 O 0.99906 0.54503 0.48154 0.0
Zn17 Zn 0.97391 0.50716 0.5058 0.0
O18 O 0.06034 0.54046 0.48427 0.0
Zn19 Zn 0.03383 0.50746 0.50556 0.0
O20 O 0.00818 0.46823 0.48247 0.0
O21 O 0.94693 0.47316 0.48539 0.0
O22 O 0.06106 0.47458 0.52657 0.0
O23 O 0.99988 0.46908 0.52952 0.0
O24 O 0.94716 0.5408 0.52663 0.0
O25 O 0.0084 0.54635 0.52891 0.0
C26 C 0.97544 0.45761 0.47635 0.0
C27 C 0.9757 0.55658 0.53541 0.0
Li28 Li 0.00682 0.04131 0.27163 0.0
Li29 Li 1.00524 0.97295 0.27028 0.0
Li30 Li 0.04139 0.00844 0.24002 0.0
Li31 Li 0.97262 0.0068 0.24004 0.0
C32 C 0.08071 0.01938 0.28511 0.0
N33 N 0.1443 0.04616 0.30665 0.0
C34 C 0.0905 0.00672 0.30732 0.0
C35 C 0.10366 0.04514 0.2737 0.0
C36 C 0.12263 0.02075 0.31798 0.0
C37 C 0.13558 0.05848 0.28492 0.0
C38 C 0.94271 0.99159 0.29159 0.0
C39 C 0.90168 0.94299 0.30545 0.0
N40 N 0.90425 0.95711 0.32738 0.0
C41 C 0.94473 1.00581 0.31422 0.0
C42 C 0.92081 0.96011 0.2871 0.0
C43 C 0.92514 0.98792 0.33209 0.0
C44 C 0.98119 0.11242 0.28412 0.0
N45 N 1.00383 0.08419 0.29131 0.0
C46 C 0.01698 0.11654 0.32679 0.0
C47 C 0.02155 0.08561 0.31222 0.0
C48 C 0.99368 0.14615 0.31986 0.0
C49 C 0.97577 0.14384 0.29814 0.0
H50 H 0.96704 0.11032 0.26754 0.0
H51 H 0.03848 0.0624 0.31789 0.0
C52 C 0.00723 0.89493 0.2795 0.0
N53 N 0.0069 0.92937 0.28946 0.0
C54 C 0.01096 0.86296 0.29332 0.0
C55 C 0.01361 0.90251 0.32738 0.0
C56 C 0.00997 0.93366 0.31291 0.0
C57 C 0.01444 0.86652 0.31762 0.0
H58 H 1.00517 0.8923 0.26079 0.0
H59 H 0.01022 0.96138 0.32036 0.0
C60 C 0.01803 0.08295 0.22673 0.0
N61 N 0.04212 0.1477 0.20515 0.0
C62 C 1.00536 0.09203 0.2044 0.0
C63 C 0.04253 0.10712 0.2382 0.0
C64 C 0.01799 0.12479 0.19375 0.0
C65 C 0.0545 0.13963 0.22697 0.0
C66 C 0.99391 0.94563 0.21748 0.0
C67 C 0.01083 0.94908 0.19563 0.0
C68 C 0.96219 0.92325 0.22002 0.0
C69 C 0.99541 0.93038 0.17658 0.0
C70 C 0.94758 0.90505 0.20054 0.0
N71 N 0.96434 0.90898 0.1794 0.0
C72 C 0.10856 0.97673 0.22575 0.0
C73 C 0.09268 0.03018 0.20353 0.0
C74 C 0.14049 0.9709 0.21222 0.0
N75 N 0.08537 1.00588 0.22117 0.0
C76 C 0.12441 0.02554 0.18963 0.0
C77 C 0.14873 0.99538 0.19375 0.0
H78 H 0.10184 0.95762 0.23975 0.0
H79 H 0.07381 0.05293 0.19999 0.0
C80 C 0.89519 0.01159 0.22979 0.0
N81 N 0.92988 0.00958 0.22021 0.0
C82 C 0.86385 0.01664 0.21562 0.0
C83 C 0.90448 0.01701 0.18198 0.0
C84 C 0.93497 0.01203 0.19679 0.0
C85 C 0.8683 0.01983 0.19135 0.0
H86 H 0.89193 0.01017 0.24849 0.0
H87 H 0.96285 0.01079 0.18961 0.0
O88 O 0.04943 1.0057 0.2744 0.0
O89 O 0.96215 0.00836 0.27394 0.0
O90 O 1.00578 0.05101 0.23742 0.0
O91 O 0.00836 0.96402 0.23629 0.0
H92 H 0.07338 0.98644 0.31632 0.0
H93 H 0.09719 0.05452 0.25629 0.0
H94 H 0.13037 0.01139 0.33523 0.0
H95 H 0.1535 0.07852 0.27629 0.0
H96 H 0.88481 0.91846 0.30225 0.0
H97 H 0.96148 0.0302 0.31799 0.0
H98 H 0.91879 0.94891 0.26966 0.0
H99 H 0.92662 0.99848 0.34972 0.0
H100 H 0.03078 0.11679 0.34356 0.0
H101 H 0.95783 0.16611 0.292 0.0
H102 H 0.0111 0.83577 0.28507 0.0
H103 H 0.01673 0.90665 0.34596 0.0
H104 H 0.98614 0.07394 0.19532 0.0
H105 H 0.05196 0.10115 0.25567 0.0
H106 H 0.00857 0.13202 0.17642 0.0
H107 H 0.07351 0.15851 0.23565 0.0
H108 H 0.03542 0.96626 0.19335 0.0
H109 H 0.94889 0.92013 0.23683 0.0
H110 H 0.00808 0.93295 0.15954 0.0
H111 H 0.92291 0.88781 0.20222 0.0
H112 H 0.15801 0.94696 0.21588 0.0
H113 H 0.12982 0.04546 0.17583 0.0
H114 H 0.83659 0.01909 0.22365 0.0
H115 H 0.90926 0.01876 0.16338 0.0
Li116 Li 0.97241 0.00894 0.77082 0.0
Li117 Li 0.0408 0.00722 0.77171 0.0
Li118 Li 1.00587 0.04207 0.74055 0.0
Li119 Li 0.00739 0.9733 0.7401 0.0
C120 C 0.99146 0.07118 0.79233 0.0
N121 N 0.95762 0.10939 0.82842 0.0
C122 C 0.00619 0.06915 0.81482 0.0
C123 C 0.95979 0.09296 0.78812 0.0
C124 C 0.98862 0.08861 0.83286 0.0
C125 C 0.94299 0.11197 0.80662 0.0
C126 C 0.01863 0.93319 0.78507 0.0
C127 C 0.05696 0.87775 0.78467 0.0
N128 N 0.04494 0.86923 0.80652 0.0
C129 C 0.00627 0.92359 0.8074 0.0
C130 C 0.04385 0.90985 0.7735 0.0
C131 C 0.02006 0.89127 0.818 0.0
C132 C 0.89463 1.00565 0.78036 0.0
N133 N 0.9291 0.00677 0.79023 0.0
C134 C 0.90263 0.9993 0.82822 0.0
C135 C 0.93359 1.0038 0.81367 0.0
C136 C 0.86664 0.99748 0.81854 0.0
C137 C 0.86286 1.00104 0.79425 0.0
H138 H 0.89184 0.00763 0.76165 0.0
H139 H 0.96134 1.00415 0.82105 0.0
C140 C 0.11251 0.03173 0.78382 0.0
N141 N 0.08395 0.00962 0.79116 0.0
C142 C 0.14415 0.03657 0.7977 0.0
C143 C 0.11638 0.99592 0.82654 0.0
C144 C 0.08524 0.99191 0.8121 0.0
C145 C 0.14635 0.01864 0.81944 0.0
H146 H 0.11051 0.0459 0.76722 0.0
H147 H 0.06177 0.97544 0.8179 0.0
C148 C 0.94436 0.02128 0.71824 0.0
N149 N 0.90723 0.05154 0.68053 0.0
C150 C 0.94781 1.00494 0.69623 0.0
C151 C 0.92174 0.05275 0.72112 0.0
C152 C 0.92886 0.02072 0.67737 0.0
C153 C 0.9033 0.06772 0.70182 0.0
C154 C 0.0817 0.99637 0.72659 0.0
C155 C 0.09087 0.00934 0.70433 0.0
C156 C 0.10553 0.97124 0.73784 0.0
C157 C 0.12337 0.99642 0.69352 0.0
C158 C 0.13778 0.95899 0.72646 0.0
N159 N 0.14594 0.97169 0.70471 0.0
C160 C 0.01015 0.11973 0.73064 0.0
C161 C 0.01083 0.08037 0.69749 0.0
C162 C 0.01497 0.15129 0.71659 0.0
N163 N 0.00836 0.08515 0.72093 0.0
C164 C 0.01558 0.1111 0.68279 0.0
C165 C 0.01816 0.14718 0.6923 0.0
H166 H 0.00873 0.12274 0.74936 0.0
H167 H 0.00977 0.05258 0.69021 0.0
C168 C 0.97486 0.90683 0.7255 0.0
N169 N 1.00437 0.92963 0.72103 0.0
C170 C 0.96863 0.87514 0.71186 0.0
C171 C 0.02359 0.89066 0.68941 0.0
C172 C 0.02863 0.92216 0.70341 0.0
C173 C 0.99307 0.86673 0.6934 0.0
H174 H 0.95579 0.91367 0.73949 0.0
H175 H 0.05168 0.94072 0.69996 0.0
O176 O 0.00795 0.05191 0.77452 0.0
O177 O 1.00517 0.96465 0.77441 0.0
O178 O 0.963 0.00649 0.73686 0.0
O179 O 0.05 0.00888 0.73743 0.0
H180 H 0.03076 0.05252 0.81836 0.0
H181 H 0.9482 0.095 0.77078 0.0
H182 H 0.99959 0.08714 0.85038 0.0
H183 H 0.91833 0.12875 0.80365 0.0
H184 H 0.07657 0.85953 0.77592 0.0
H185 H 0.98641 0.94101 0.81652 0.0
H186 H 0.05298 0.91617 0.75601 0.0
H187 H 0.01093 0.88369 0.83534 0.0
H188 H 0.90696 0.99616 0.84678 0.0
H189 H 0.83565 1.00017 0.78606 0.0
H190 H 0.16669 0.05409 0.79145 0.0
H191 H 0.11653 0.98214 0.84334 0.0
H192 H 0.96518 0.98056 0.69368 0.0
H193 H 0.9186 0.06557 0.73806 0.0
H194 H 0.93143 0.00851 0.66021 0.0
H195 H 0.88586 0.0922 0.70378 0.0
H196 H 0.07304 0.02905 0.69542 0.0
H197 H 0.09948 0.96154 0.75525 0.0
H198 H 0.13067 1.00608 0.67625 0.0
H199 H 0.1564 0.93949 0.73497 0.0
H200 H 0.01725 0.17847 0.72472 0.0
H201 H 0.01733 0.10657 0.66418 0.0
H202 H 0.94443 0.85792 0.71543 0.0
H203 H 0.0435 0.8851 0.67562 0.0
H204 H 0.43472 0.91564 0.05874 0.0
H205 H 0.38421 0.91184 0.08765 0.0
H206 H 0.36625 0.03058 0.08148 0.0
H207 H 0.41678 0.03477 0.0533 0.0
H208 H 0.36732 0.00863 0.12641 0.0
H209 H 0.27268 0.91719 0.07513 0.0
H210 H 0.31844 0.89844 0.0804 0.0
H211 H 0.31321 0.93929 0.06249 0.0
C212 C 0.41996 0.94088 0.06357 0.0
C213 C 0.42981 0.97548 0.05367 0.0
C214 C 0.39097 0.93864 0.07999 0.0
C215 C 0.37111 0.97088 0.08652 0.0
C216 C 0.38114 1.00534 0.07674 0.0
H217 H 0.15467 1.00546 0.14652 0.0
H218 H 0.20981 0.99715 0.12201 0.0
C219 C 0.41011 0.00764 0.06056 0.0
C220 C 0.33999 0.96948 0.10366 0.0
H221 H 0.25194 0.93546 0.11242 0.0
C222 C 0.34218 0.99241 0.12345 0.0
C223 C 0.30706 0.94861 0.09962 0.0
C224 C 0.30238 0.92471 0.07818 0.0
C225 C 0.3121 0.99581 0.13901 0.0
C226 C 0.27919 0.97488 0.13503 0.0
C227 C 0.27727 0.9513 0.11551 0.0
C228 C 0.24567 0.97882 0.1501 0.0
C229 C 0.3153 0.02304 0.15898 0.0
C230 C 0.24732 0.9709 0.17403 0.0
C231 C 0.21596 0.97626 0.18821 0.0
C232 C 0.18212 0.98924 0.17869 0.0
C233 C 0.1804 0.99623 0.15458 0.0
C234 C 0.21181 0.99109 0.14047 0.0
H235 H 0.33826 0.04344 0.1562 0.0
H236 H 0.28883 0.03872 0.16147 0.0
H237 H 0.32132 0.00744 0.17525 0.0
H238 H 0.27294 0.96073 0.18179 0.0
H239 H 0.21844 0.97077 0.20669 0.0
H240 H 0.09727 0.42854 0.55391 0.0
H241 H 0.10218 0.37543 0.58097 0.0
H242 H 0.98215 0.36749 0.58359 0.0
H243 H 0.97685 0.42003 0.55688 0.0
H244 H 0.06665 0.36612 0.62812 0.0
H245 H 0.02084 0.26173 0.56262 0.0
H246 H 0.03896 0.30708 0.55465 0.0
H247 H 0.99165 0.30245 0.56469 0.0
C248 C 0.07196 0.41557 0.56036 0.0
C249 C 0.03669 0.42844 0.55309 0.0
C250 C 0.07482 0.3853 0.5758 0.0
C251 C 0.04251 0.36733 0.58399 0.0
C252 C 0.00741 0.38068 0.57721 0.0
H253 H 0.98721 0.21716 0.69552 0.0
H254 H 0.99767 0.27072 0.66984 0.0
C255 C 1.0045 0.41086 0.56195 0.0
C256 C 0.04484 0.33424 0.59942 0.0
H257 H 0.02072 0.24211 0.60226 0.0
C258 C 0.05706 0.33886 0.62245 0.0
C259 C 0.03262 0.29871 0.59187 0.0
C260 C 0.02056 0.29194 0.56705 0.0
C261 C 0.05595 0.30908 0.63842 0.0
C262 C 0.04189 0.27401 0.63116 0.0
C263 C 0.03115 0.26909 0.60786 0.0
C264 C 0.03718 0.24222 0.64751 0.0
C265 C 0.06969 0.31541 0.66293 0.0
C266 C 0.05543 0.20822 0.64327 0.0
C267 C 0.0495 0.17754 0.6579 0.0
C268 C 0.0249 0.18013 0.67699 0.0
C269 C 0.00674 0.21433 0.68121 0.0
C270 C 0.01274 0.24502 0.66657 0.0
H271 H 0.08872 0.33986 0.66393 0.0
H272 H 0.04543 0.32093 0.67447 0.0
H273 H 0.08455 0.2904 0.66964 0.0
H274 H 0.07429 0.20542 0.62861 0.0
H275 H 0.0644 0.15185 0.65432 0.0
H276 H 0.5882 0.09984 0.05249 0.0
H277 H 0.64135 0.1048 0.07944 0.0
H278 H 0.6504 0.98478 0.08127 0.0
H279 H 0.59784 0.97943 0.05465 0.0
H280 H 0.65053 0.06917 0.12621 0.0
H281 H 0.756 0.02403 0.06111 0.0
H282 H 0.71059 0.04177 0.05298 0.0
H283 H 0.71555 0.99444 0.06297 0.0
C284 C 0.60147 0.07454 0.0587 0.0
C285 C 0.58886 0.03927 0.05129 0.0
C286 C 0.63176 0.07743 0.07408 0.0
C287 C 0.65002 0.04514 0.08206 0.0
C288 C 0.637 0.01003 0.07505 0.0
H289 H 0.79817 0.98922 0.19422 0.0
H290 H 0.74506 1.00002 0.1683 0.0
C291 C 0.60682 0.00709 0.05986 0.0
C292 C 0.68288 0.04752 0.09763 0.0
H293 H 0.77494 0.02338 0.10088 0.0
C294 C 0.67788 0.05963 0.12066 0.0
C295 C 0.71853 0.03535 0.09023 0.0
C296 C 0.72574 0.02345 0.06542 0.0
C297 C 0.70739 0.05843 0.13678 0.0
C298 C 0.74256 0.0444 0.12968 0.0
C299 C 0.74787 0.03379 0.10637 0.0
C300 C 0.77405 0.03951 0.14618 0.0
C301 C 0.70064 0.07205 0.16129 0.0
C302 C 0.80818 0.05765 0.14215 0.0
C303 C 0.8386 0.05151 0.1569 0.0
C304 C 0.83562 0.02683 0.17592 0.0
C305 C 0.80129 0.0088 0.17996 0.0
C306 C 0.77086 0.01501 0.16519 0.0
H307 H 0.67625 0.09118 0.16218 0.0
H308 H 0.6948 0.04774 0.17273 0.0
H309 H 0.72556 0.08679 0.1682 0.0
H310 H 0.81128 0.07656 0.12753 0.0
H311 H 0.8644 0.0663 0.15347 0.0
H312 H 0.91234 0.58202 0.55774 0.0
H313 H 0.9083 0.63257 0.58658 0.0
H314 H 0.02696 0.65089 0.58046 0.0
H315 H 0.03139 0.60038 0.55233 0.0
H316 H 1.00465 0.64883 0.62551 0.0
H317 H 0.91381 0.74451 0.57441 0.0
H318 H 0.89516 0.69859 0.57937 0.0
H319 H 0.93612 0.70424 0.56161 0.0
C320 C 0.9375 0.59691 0.56255 0.0
C321 C 0.97216 0.58713 0.55271 0.0
C322 C 0.93513 0.62591 0.57892 0.0
C323 C 0.96729 0.6458 0.58549 0.0
C324 C 1.00178 0.63594 0.5757 0.0
H325 H 1.00329 0.86114 0.64617 0.0
H326 H 0.99443 0.80633 0.62152 0.0
C327 C 1.00422 0.60699 0.55955 0.0
C328 C 0.96583 0.67667 0.60275 0.0
H329 H 0.93226 0.76484 0.61172 0.0
C330 C 0.98859 0.6741 0.6226 0.0
C331 C 0.94515 0.70975 0.59879 0.0
C332 C 0.92139 0.71477 0.57732 0.0
C333 C 0.99203 0.70398 0.63827 0.0
C334 C 0.97135 0.73708 0.63433 0.0
C335 C 0.94791 0.73937 0.61477 0.0
C336 C 0.97549 0.77044 0.64948 0.0
C337 C 0.01908 0.70038 0.65831 0.0
C338 C 0.9674 0.76866 0.67339 0.0
C339 C 0.97306 0.79983 0.68765 0.0
C340 C 0.98654 0.83358 0.67824 0.0
C341 C 0.99368 0.83545 0.65415 0.0
C342 C 0.98822 0.80423 0.63995 0.0
H343 H 0.03928 0.67723 0.65555 0.0
H344 H 0.03497 0.72668 0.66087 0.0
H345 H 1.0033 0.6944 0.67453 0.0
H346 H 0.95689 0.74309 0.68106 0.0
H347 H 0.96744 0.79724 0.70612 0.0
H348 H 0.42876 0.09819 0.95617 0.0
H349 H 0.37539 0.10238 0.92932 0.0
H350 H 0.36411 0.98254 0.93074 0.0
H351 H 0.41689 0.97795 0.95726 0.0
H352 H 0.36552 0.06286 0.88347 0.0
H353 H 0.2593 0.02548 0.95003 0.0
H354 H 0.30497 0.04322 0.95753 0.0
H355 H 0.29932 0.99519 0.9492 0.0
C356 C 0.41493 0.07276 0.9507 0.0
C357 C 0.42702 0.03777 0.95897 0.0
C358 C 0.38452 0.07522 0.93538 0.0
C359 C 0.3656 0.04278 0.92835 0.0
C360 C 0.37804 0.00791 0.93624 0.0
H361 H 0.18265 0.96619 0.84575 0.0
H362 H 0.23592 0.97553 0.87172 0.0
C363 C 0.40836 1.0054 0.95136 0.0
C364 C 0.33272 0.0447 0.91278 0.0
H365 H 0.24017 0.02226 0.91038 0.0
C366 C 0.33794 0.05456 0.88934 0.0
C367 C 0.2969 0.03372 0.92056 0.0
C368 C 0.28954 0.02409 0.94575 0.0
C369 C 0.30852 0.05204 0.8732 0.0
C370 C 0.27292 0.03997 0.88088 0.0
C371 C 0.26752 0.03129 0.9045 0.0
C372 C 0.24115 0.03467 0.86463 0.0
C373 C 0.3162 0.06071 0.84792 0.0
C374 C 0.22625 0.06488 0.85214 0.0
C375 C 0.19572 0.05964 0.8373 0.0
C376 C 0.17932 0.02412 0.83482 0.0
C377 C 0.19433 0.99397 0.84744 0.0
C378 C 0.22487 0.99922 0.86221 0.0
H379 H 0.3466 0.06127 0.84405 0.0
H380 H 0.30268 0.03981 0.8364 0.0
H381 H 0.30451 0.08859 0.84364 0.0
H382 H 0.23783 0.09264 0.85413 0.0
H383 H 0.18445 0.08359 0.82815 0.0
H384 H 0.9113 0.42731 0.45757 0.0
H385 H 0.90697 0.37379 0.43081 0.0
H386 H 0.02695 0.36416 0.43056 0.0
H387 H 0.03167 0.41708 0.45695 0.0
H388 H 0.94588 0.36433 0.38427 0.0
H389 H 0.98546 0.25882 0.45073 0.0
H390 H 0.96708 0.30425 0.45829 0.0
H391 H 0.01509 0.29932 0.44969 0.0
C392 C 0.93672 0.41383 0.45174 0.0
C393 C 0.9718 0.42642 0.45951 0.0
C394 C 0.93419 0.38333 0.43647 0.0
C395 C 0.96665 0.36483 0.429 0.0
C396 C 1.00158 0.37778 0.43638 0.0
H397 H 0.04545 0.18324 0.34619 0.0
H398 H 0.03517 0.2362 0.3723 0.0
C399 C 1.00416 0.40818 0.45144 0.0
C400 C 0.96474 0.33184 0.41351 0.0
H401 H 0.98852 0.2396 0.41107 0.0
C402 C 0.95459 0.33687 0.39013 0.0
C403 C 0.97629 0.29619 0.42128 0.0
C404 C 0.98632 0.28907 0.44641 0.0
C405 C 0.95741 0.30744 0.37399 0.0
C406 C 0.9701 0.27203 0.38164 0.0
C407 C 0.97901 0.2668 0.40522 0.0
C408 C 0.97593 0.24036 0.36536 0.0
C409 C 0.94845 0.31494 0.34874 0.0
C410 C 0.94598 0.22493 0.3529 0.0
C411 C 0.95177 0.19458 0.33798 0.0
C412 C 0.98759 0.17888 0.33538 0.0
C413 C 0.01747 0.19437 0.34797 0.0
C414 C 0.01167 0.22475 0.36282 0.0
H415 H 0.9473 0.34534 0.34487 0.0
H416 H 0.96953 0.3018 0.33715 0.0
H417 H 0.92079 0.30273 0.34456 0.0
H418 H 0.91802 0.23599 0.35498 0.0
H419 H 0.92803 0.18291 0.32886 0.0
H420 H 0.58544 0.03227 0.94778 0.0
H421 H 0.63576 0.02726 0.91944 0.0
H422 H 0.64278 0.9087 0.93195 0.0
H423 H 0.59213 0.91345 0.96076 0.0
H424 H 0.71228 0.94581 0.93309 0.0
H425 H 0.6334 0.98344 0.8536 0.0
H426 H 0.62673 0.01636 0.8768 0.0
H427 H 0.61074 0.96903 0.88026 0.0
C428 C 0.59735 1.00497 0.94445 0.0
C429 C 0.58465 0.97321 0.95655 0.0
C430 C 0.62602 1.00216 0.92808 0.0
C431 C 0.64262 0.96755 0.92331 0.0
C432 C 0.63008 0.93565 0.93526 0.0
H433 H 0.80667 0.95187 0.81009 0.0
H434 H 0.75264 0.94049 0.83527 0.0
C435 C 0.60113 0.93839 0.95166 0.0
C436 C 0.67437 0.96557 0.90673 0.0
H437 H 0.70011 0.98965 0.85142 0.0
C438 C 0.70957 0.95485 0.91513 0.0
C439 C 0.67071 0.97695 0.88323 0.0
C440 C 0.63328 0.98673 0.87285 0.0
C441 C 0.74153 0.95695 0.90096 0.0
C442 C 0.73823 0.9707 0.87792 0.0
C443 C 0.70273 0.97962 0.86918 0.0
C444 C 0.77133 0.97716 0.86283 0.0
C445 C 0.77855 0.94462 0.91085 0.0
C446 C 0.79948 1.00206 0.86978 0.0
C447 C 0.83031 0.00875 0.85539 0.0
C448 C 0.83346 0.99093 0.83365 0.0
C449 C 0.80493 0.96638 0.82661 0.0
C450 C 0.77414 0.95964 0.84104 0.0
H451 H 0.77476 0.92473 0.92554 0.0
H452 H 0.79616 0.93115 0.89732 0.0
H453 H 0.79371 0.96937 0.91761 0.0
H454 H 0.7974 0.0167 0.88623 0.0
H455 H 0.85143 0.02831 0.86117 0.0
H456 H 0.09549 0.58988 0.45876 0.0
H457 H 0.09937 0.64093 0.43021 0.0
H458 H 0.97962 0.63891 0.42247 0.0
H459 H 0.97547 0.58807 0.45051 0.0
H460 H 0.01805 0.64299 0.38003 0.0
H461 H 0.06745 0.74983 0.44328 0.0
H462 H 0.09484 0.70784 0.44128 0.0
H463 H 0.04802 0.70566 0.45241 0.0
C464 C 0.07004 0.60023 0.45088 0.0
C465 C 0.03517 0.58499 0.45704 0.0
C466 C 0.07228 0.62951 0.43468 0.0
C467 C 0.03971 0.64399 0.42444 0.0
C468 C 1.00509 0.62823 0.43019 0.0
H469 H 0.98269 0.85232 0.36014 0.0
H470 H 0.99198 0.79773 0.38512 0.0
C471 C 1.00281 0.59916 0.44631 0.0
C472 C 0.04101 0.67587 0.40793 0.0
H473 H 0.05792 0.76964 0.40462 0.0
C474 C 0.02711 0.67063 0.3853 0.0
C475 C 0.05241 0.71196 0.41498 0.0
C476 C 0.06628 0.71947 0.43934 0.0
C477 C 0.02366 0.70061 0.36966 0.0
C478 C 0.03494 0.73674 0.37674 0.0
C479 C 0.04945 0.74187 0.39922 0.0
C480 C 0.03003 0.76991 0.36152 0.0
C481 C 0.00659 0.69364 0.34603 0.0
C482 C 0.04859 0.77254 0.34003 0.0
C483 C 0.04332 0.80374 0.3257 0.0
C484 C 0.01962 0.83306 0.33267 0.0
C485 C 1.00139 0.83044 0.35433 0.0
C486 C 0.0066 0.79922 0.36861 0.0
H487 H 0.99184 0.66636 0.34528 0.0
H488 H 0.98653 0.71611 0.34144 0.0
H489 H 0.029 0.69338 0.33267 0.0
H490 H 0.06737 0.7506 0.33442 0.0
H491 H 0.05834 0.80518 0.30933 0.0
loop_
_geom_bond_atom_site_label_1
_geom_bond_atom_site_label_2
_geom_bond_distance
_geom_bond_site_symmetry_2
_ccdc_geom_bond_type
C0 O2 1.244 . S
C0 O4 1.261 1_565 S
C1 O8 1.251 . S
C1 O9 1.253 1_545 S
O2 C0 1.244 . S
O2 Zn3 2.028 1_556 S
Zn3 O2 2.028 1_554 S
Zn3 O7 2.035 1_554 S
Zn3 O9 2.035 . S
Zn3 O10 2.028 . S
O4 C0 1.261 1_545 S
O4 Zn5 2.035 1_556 S
Zn5 O4 2.035 1_554 S
Zn5 O6 2.028 1_554 S
Zn5 O8 2.028 . S
Zn5 O11 2.035 . S
O6 Zn5 2.028 1_556 S
O6 C12 1.251 . S
O7 Zn3 2.035 1_556 S
O7 C12 1.253 1_565 S
O8 C1 1.251 . S
O8 Zn5 2.028 . S
O9 C1 1.253 1_565 S
O9 Zn3 2.035 . S
O10 Zn3 2.028 . S
O10 C13 1.244 . S
O11 Zn5 2.035 . S
O11 C13 1.261 1_545 S
C12 O6 1.251 . S
C12 O7 1.253 1_545 S
C13 O10 1.244 . S
C13 O11 1.261 1_565 S
C14 O16 1.245 . S
C14 O18 1.260 1_655 S
C15 O22 1.251 . S
C15 O23 1.254 1_455 S
O16 C14 1.245 . S
O16 Zn17 2.028 . S
Zn17 O16 2.028 . S
Zn17 O21 2.035 . S
Zn17 O23 2.035 . S
Zn17 O24 2.028 . S
O18 C14 1.260 1_455 S
O18 Zn19 2.035 . S
Zn19 O18 2.035 . S
Zn19 O20 2.028 . S
Zn19 O22 2.028 . S
Zn19 O25 2.035 . S
O20 Zn19 2.028 . S
O20 C26 1.251 . S
O21 Zn17 2.035 . S
O21 C26 1.254 1_655 S
O22 C15 1.251 . S
O22 Zn19 2.028 . S
O23 C15 1.254 1_655 S
O23 Zn17 2.035 . S
O24 Zn17 2.028 . S
O24 C27 1.245 . S
O25 Zn19 2.035 . S
O25 C27 1.260 1_455 S
C26 O20 1.251 . S
C26 O21 1.254 1_455 S
C27 O24 1.245 . S
C27 O25 1.260 1_655 S
Li28 N45 1.990 . S
Li28 O88 1.956 1_545 S
Li28 O89 1.970 1_455 S
Li28 O90 1.961 1_455 S
Li29 N53 1.990 . S
Li29 O88 1.970 1_655 S
Li29 O89 1.956 1_565 S
Li29 O91 1.961 1_655 S
Li30 N75 1.990 . S
Li30 O88 1.961 1_545 S
Li30 O90 1.956 1_455 S
Li30 O91 1.970 1_545 S
Li31 N81 1.990 . S
Li31 O89 1.961 1_565 S
Li31 O90 1.970 1_565 S
Li31 O91 1.956 1_655 S
C32 C34 1.348 1_545 S
C32 C35 1.356 . S
C32 O88 1.325 1_545 S
N33 C36 1.314 1_545 S
N33 C37 1.279 . S
C34 C32 1.348 1_565 S
C34 C36 1.353 . S
C34 H92 0.929 . S
C35 C32 1.356 . S
C35 C37 1.358 . S
C35 H93 0.930 . S
C36 N33 1.314 1_565 S
C36 C34 1.353 . S
C36 H94 0.930 . S
C37 N33 1.279 . S
C37 C35 1.358 . S
C37 H95 0.930 . S
C38 C41 1.348 . S
C38 C42 1.355 1_545 S
C38 O89 1.325 . S
C39 N40 1.279 . S
C39 C42 1.358 . S
C39 H96 0.930 . S
N40 C39 1.279 . S
N40 C43 1.314 1_565 S
C41 C38 1.348 . S
C41 C43 1.353 . S
C41 H97 0.929 . S
C42 C38 1.355 1_565 S
C42 C39 1.358 . S
C42 H98 0.930 . S
C43 N40 1.314 1_545 S
C43 C41 1.353 . S
C43 H99 0.930 . S
C44 N45 1.314 1_655 S
C44 C49 1.353 . S
C44 H50 0.930 . S
N45 Li28 1.990 . S
N45 C44 1.314 1_455 S
N45 C47 1.279 . S
C46 C47 1.358 . S
C46 C48 1.356 . S
C46 H100 0.930 . S
C47 N45 1.279 . S
C47 C46 1.358 . S
C47 H51 0.930 . S
C48 C46 1.356 . S
C48 C49 1.348 1_455 S
C49 C44 1.353 . S
C49 C48 1.348 1_655 S
C49 H101 0.929 . S
H50 C44 0.930 . S
H51 C47 0.930 . S
C52 N53 1.314 1_455 S
C52 C54 1.353 . S
C52 H58 0.930 . S
N53 Li29 1.990 . S
N53 C52 1.314 1_655 S
N53 C56 1.279 . S
C54 C52 1.353 . S
C54 C57 1.348 . S
C54 H102 0.929 . S
C55 C56 1.358 . S
C55 C57 1.356 1_655 S
C55 H103 0.930 . S
C56 N53 1.279 . S
C56 C55 1.358 . S
C56 H59 0.930 . S
C57 C54 1.348 . S
C57 C55 1.356 1_455 S
H58 C52 0.930 . S
H59 C56 0.930 . S
C60 C62 1.348 1_455 S
C60 C63 1.356 . S
C60 O90 1.325 1_455 S
N61 C64 1.314 1_455 S
N61 C65 1.279 . S
C62 C60 1.348 1_655 S
C62 C64 1.353 . S
C62 H104 0.929 . S
C63 C60 1.356 . S
C63 C65 1.358 . S
C63 H105 0.930 . S
C64 N61 1.314 1_655 S
C64 C62 1.353 . S
C64 H106 0.930 . S
C65 N61 1.279 . S
C65 C63 1.358 . S
C65 H107 0.930 . S
C66 C67 1.348 . S
C66 C68 1.356 1_455 S
C66 O91 1.325 . S
C67 C66 1.348 . S
C67 C69 1.353 . S
C67 H108 0.929 . S
C68 C66 1.356 1_655 S
C68 C70 1.358 . S
C68 H109 0.930 . S
C69 C67 1.353 . S
C69 N71 1.314 1_455 S
C69 H110 0.930 . S
C70 C68 1.358 . S
C70 N71 1.279 . S
C70 H111 0.930 . S
N71 C69 1.314 1_655 S
N71 C70 1.279 . S
C72 C74 1.353 . S
C72 N75 1.314 1_565 S
C72 H78 0.930 . S
C73 N75 1.279 . S
C73 C76 1.358 . S
C73 H79 0.930 . S
C74 C72 1.353 . S
C74 C77 1.348 1_565 S
C74 H112 0.929 . S
N75 Li30 1.990 . S
N75 C72 1.314 1_545 S
N75 C73 1.279 . S
C76 C73 1.358 . S
C76 C77 1.356 . S
C76 H113 0.930 . S
C77 C74 1.348 1_545 S
C77 C76 1.356 . S
H78 C72 0.930 . S
H79 C73 0.930 . S
C80 N81 1.314 1_545 S
C80 C82 1.353 . S
C80 H86 0.930 . S
N81 Li31 1.990 . S
N81 C80 1.314 1_565 S
N81 C84 1.279 . S
C82 C80 1.353 . S
C82 C85 1.348 . S
C82 H114 0.929 . S
C83 C84 1.358 . S
C83 C85 1.355 1_565 S
C83 H115 0.930 . S
C84 N81 1.279 . S
C84 C83 1.358 . S
C84 H87 0.930 . S
C85 C82 1.348 . S
C85 C83 1.355 1_545 S
H86 C80 0.930 . S
H87 C84 0.930 . S
O88 Li28 1.956 1_565 S
O88 Li29 1.970 1_455 S
O88 Li30 1.961 1_565 S
O88 C32 1.325 1_565 S
O89 Li28 1.970 1_655 S
O89 Li29 1.956 1_545 S
O89 Li31 1.961 1_545 S
O89 C38 1.325 . S
O90 Li28 1.961 1_655 S
O90 Li30 1.956 1_655 S
O90 Li31 1.970 1_545 S
O90 C60 1.325 1_655 S
O91 Li29 1.961 1_455 S
O91 Li30 1.970 1_565 S
O91 Li31 1.956 1_455 S
O91 C66 1.325 . S
H92 C34 0.929 . S
H93 C35 0.930 . S
H94 C36 0.930 . S
H95 C37 0.930 . S
H96 C39 0.930 . S
H97 C41 0.929 . S
H98 C42 0.930 . S
H99 C43 0.930 . S
H100 C46 0.930 . S
H101 C49 0.929 . S
H102 C54 0.929 . S
H103 C55 0.930 . S
H104 C62 0.929 . S
H105 C63 0.930 . S
H106 C64 0.930 . S
H107 C65 0.930 . S
H108 C67 0.929 . S
H109 C68 0.930 . S
H110 C69 0.930 . S
H111 C70 0.930 . S
H112 C74 0.929 . S
H113 C76 0.930 . S
H114 C82 0.929 . S
H115 C83 0.930 . S
Li116 N133 1.990 . S
Li116 O176 1.956 1_655 S
Li116 O177 1.970 1_545 S
Li116 O178 1.961 1_545 S
Li117 N141 1.990 . S
Li117 O176 1.970 1_565 S
Li117 O177 1.956 1_455 S
Li117 O179 1.961 1_565 S
Li118 N163 1.990 . S
Li118 O176 1.961 1_655 S
Li118 O178 1.956 1_545 S
Li118 O179 1.970 1_655 S
Li119 N169 1.990 . S
Li119 O177 1.961 1_455 S
Li119 O178 1.970 1_455 S
Li119 O179 1.956 1_565 S
C120 C122 1.348 . S
C120 C123 1.356 1_455 S
C120 O176 1.325 . S
N121 C124 1.314 1_655 S
N121 C125 1.279 . S
C122 C120 1.348 . S
C122 C124 1.353 . S
C122 H180 0.929 . S
C123 C120 1.356 1_655 S
C123 C125 1.358 . S
C123 H181 0.930 . S
C124 N121 1.314 1_455 S
C124 C122 1.353 . S
C124 H182 0.930 . S
C125 N121 1.279 . S
C125 C123 1.358 . S
C125 H183 0.930 . S
C126 C129 1.348 1_455 S
C126 C130 1.356 . S
C126 O177 1.325 1_455 S
C127 N128 1.279 . S
C127 C130 1.358 . S
C127 H184 0.930 . S
N128 C127 1.279 . S
N128 C131 1.314 1_455 S
C129 C126 1.348 1_655 S
C129 C131 1.353 . S
C129 H185 0.929 . S
C130 C126 1.356 . S
C130 C127 1.358 . S
C130 H186 0.930 . S
C131 N128 1.314 1_655 S
C131 C129 1.353 . S
C131 H187 0.930 . S
C132 N133 1.314 1_565 S
C132 C137 1.353 . S
C132 H138 0.930 . S
N133 Li116 1.990 . S
N133 C132 1.314 1_545 S
N133 C135 1.279 . S
C134 C135 1.358 . S
C134 C136 1.356 . S
C134 H188 0.930 . S
C135 N133 1.279 . S
C135 C134 1.358 . S
C135 H139 0.930 . S
C136 C134 1.356 . S
C136 C137 1.348 1_545 S
C137 C132 1.353 . S
C137 C136 1.348 1_565 S
C137 H189 0.929 . S
H138 C132 0.930 . S
H139 C135 0.930 . S
C140 N141 1.314 1_545 S
C140 C142 1.353 . S
C140 H146 0.930 . S
N141 Li117 1.990 . S
N141 C140 1.314 1_565 S
N141 C144 1.279 . S
C142 C140 1.353 . S
C142 C145 1.348 . S
C142 H190 0.929 . S
C143 C144 1.358 . S
C143 C145 1.355 1_565 S
C143 H191 0.930 . S
C144 N141 1.279 . S
C144 C143 1.358 . S
C144 H147 0.930 . S
C145 C142 1.348 . S
C145 C143 1.355 1_545 S
H146 C140 0.930 . S
H147 C144 0.930 . S
C148 C150 1.348 1_545 S
C148 C151 1.356 . S
C148 O178 1.325 1_545 S
N149 C152 1.314 1_545 S
N149 C153 1.279 . S
C150 C148 1.348 1_565 S
C150 C152 1.353 . S
C150 H192 0.929 . S
C151 C148 1.356 . S
C151 C153 1.358 . S
C151 H193 0.930 . S
C152 N149 1.314 1_565 S
C152 C150 1.353 . S
C152 H194 0.930 . S
C153 N149 1.279 . S
C153 C151 1.358 . S
C153 H195 0.930 . S
C154 C155 1.348 . S
C154 C156 1.355 1_545 S
C154 O179 1.325 . S
C155 C154 1.348 . S
C155 C157 1.353 . S
C155 H196 0.929 . S
C156 C154 1.355 1_565 S
C156 C158 1.358 . S
C156 H197 0.930 . S
C157 C155 1.353 . S
C157 N159 1.314 1_545 S
C157 H198 0.930 . S
C158 C156 1.358 . S
C158 N159 1.279 . S
C158 H199 0.930 . S
N159 C157 1.314 1_565 S
N159 C158 1.279 . S
C160 C162 1.353 . S
C160 N163 1.314 1_455 S
C160 H166 0.930 . S
C161 N163 1.279 . S
C161 C164 1.358 . S
C161 H167 0.930 . S
C162 C160 1.353 . S
C162 C165 1.348 . S
C162 H200 0.929 . S
N163 Li118 1.990 . S
N163 C160 1.314 1_655 S
N163 C161 1.279 . S
C164 C161 1.358 . S
C164 C165 1.356 1_655 S
C164 H201 0.930 . S
C165 C162 1.348 . S
C165 C164 1.356 1_455 S
H166 C160 0.930 . S
H167 C161 0.930 . S
C168 N169 1.314 1_655 S
C168 C170 1.353 . S
C168 H174 0.930 . S
N169 Li119 1.990 . S
N169 C168 1.314 1_455 S
N169 C172 1.279 . S
C170 C168 1.353 . S
C170 C173 1.348 1_655 S
C170 H202 0.929 . S
C171 C172 1.358 . S
C171 C173 1.356 . S
C171 H203 0.930 . S
C172 N169 1.279 . S
C172 C171 1.358 . S
C172 H175 0.930 . S
C173 C170 1.348 1_455 S
C173 C171 1.356 . S
H174 C168 0.930 . S
H175 C172 0.930 . S
O176 Li116 1.956 1_455 S
O176 Li117 1.970 1_545 S
O176 Li118 1.961 1_455 S
O176 C120 1.325 . S
O177 Li116 1.970 1_565 S
O177 Li117 1.956 1_655 S
O177 Li119 1.961 1_655 S
O177 C126 1.325 1_655 S
O178 Li116 1.961 1_565 S
O178 Li118 1.956 1_565 S
O178 Li119 1.970 1_655 S
O178 C148 1.325 1_565 S
O179 Li117 1.961 1_545 S
O179 Li118 1.970 1_455 S
O179 Li119 1.956 1_545 S
O179 C154 1.325 . S
H180 C122 0.929 . S
H181 C123 0.930 . S
H182 C124 0.930 . S
H183 C125 0.930 . S
H184 C127 0.930 . S
H185 C129 0.929 . S
H186 C130 0.930 . S
H187 C131 0.930 . S
H188 C134 0.930 . S
H189 C137 0.929 . S
H190 C142 0.929 . S
H191 C143 0.930 . S
H192 C150 0.929 . S
H193 C151 0.930 . S
H194 C152 0.930 . S
H195 C153 0.930 . S
H196 C155 0.929 . S
H197 C156 0.930 . S
H198 C157 0.930 . S
H199 C158 0.930 . S
H200 C162 0.929 . S
H201 C164 0.930 . S
H202 C170 0.929 . S
H203 C171 0.930 . S
H204 C212 0.929 . S
H205 C214 0.930 . S
H206 C216 0.930 . S
H207 C219 0.929 . S
H208 C222 0.930 . S
H209 C224 0.960 . S
H210 C224 0.960 . S
H211 C224 0.960 . S
C212 H204 0.929 . S
C212 C213 1.379 . S
C212 C214 1.384 . S
C213 C212 1.379 . S
C213 C219 1.389 1_565 S
C214 H205 0.930 . S
C214 C212 1.384 . S
C214 C215 1.374 . S
C215 C214 1.374 . S
C215 C216 1.398 1_565 S
C215 C220 1.490 1_565 S
C216 H206 0.930 . S
C216 C215 1.398 1_545 S
C216 C219 1.386 . S
H217 C233 0.930 . S
H218 C234 0.931 . S
C219 H207 0.929 . S
C219 C213 1.389 1_545 S
C219 C216 1.386 . S
C220 C215 1.490 1_545 S
C220 C222 1.398 . S
C220 C223 1.399 1_545 S
H221 C227 0.930 . S
C222 H208 0.930 . S
C222 C220 1.398 . S
C222 C225 1.403 . S
C223 C220 1.399 1_565 S
C223 C224 1.524 . S
C223 C227 1.400 . S
C224 H209 0.960 . S
C224 H210 0.960 . S
C224 H211 0.960 . S
C224 C223 1.524 . S
C225 C222 1.403 . S
C225 C226 1.392 . S
C225 C229 1.495 . S
C226 C225 1.392 . S
C226 C227 1.385 1_545 S
C226 C228 1.478 . S
C227 H221 0.930 . S
C227 C223 1.400 . S
C227 C226 1.385 1_565 S
C228 C226 1.478 . S
C228 C230 1.381 1_545 S
C228 C234 1.383 . S
C229 C225 1.495 . S
C229 H235 0.959 . S
C229 H236 0.961 . S
C229 H237 0.960 . S
C230 C228 1.381 1_565 S
C230 C231 1.394 . S
C230 H238 0.930 . S
C231 C230 1.394 . S
C231 C232 1.383 1_565 S
C231 H239 0.929 . S
C232 C231 1.383 1_545 S
C232 C233 1.377 . S
C233 H217 0.930 . S
C233 C232 1.377 . S
C233 C234 1.379 . S
C234 H218 0.931 . S
C234 C228 1.383 . S
C234 C233 1.379 . S
H235 C229 0.959 . S
H236 C229 0.961 . S
H237 C229 0.960 . S
H238 C230 0.930 . S
H239 C231 0.929 . S
H240 C248 0.929 . S
H241 C250 0.930 . S
H242 C252 0.930 . S
H243 C255 0.929 . S
H244 C258 0.930 . S
H245 C260 0.960 . S
H246 C260 0.960 . S
H247 C260 0.960 . S
C248 H240 0.929 . S
C248 C249 1.379 1_455 S
C248 C250 1.384 . S
C249 C248 1.379 1_655 S
C249 C255 1.388 . S
C250 H241 0.930 . S
C250 C248 1.384 . S
C250 C251 1.372 . S
C251 C250 1.372 . S
C251 C252 1.400 1_455 S
C251 C256 1.490 . S
C252 H242 0.930 . S
C252 C251 1.400 1_655 S
C252 C255 1.386 . S
H253 C269 0.930 . S
H254 C270 0.931 . S
C255 H243 0.929 . S
C255 C249 1.388 . S
C255 C252 1.386 . S
C256 C251 1.490 . S
C256 C258 1.395 . S
C256 C259 1.403 1_455 S
H257 C263 0.930 . S
C258 H244 0.930 . S
C258 C256 1.395 . S
C258 C261 1.403 . S
C259 C256 1.403 1_655 S
C259 C260 1.524 . S
C259 C263 1.400 . S
C260 H245 0.960 . S
C260 H246 0.960 . S
C260 H247 0.960 . S
C260 C259 1.524 . S
C261 C258 1.403 . S
C261 C262 1.392 . S
C261 C265 1.495 . S
C262 C261 1.392 . S
C262 C263 1.385 1_455 S
C262 C264 1.478 . S
C263 H257 0.930 . S
C263 C259 1.400 . S
C263 C262 1.385 1_655 S
C264 C262 1.478 . S
C264 C266 1.381 . S
C264 C270 1.383 1_455 S
C265 C261 1.495 . S
C265 H271 0.959 . S
C265 H272 0.961 . S
C265 H273 0.960 . S
C266 C264 1.381 . S
C266 C267 1.394 . S
C266 H274 0.930 . S
C267 C266 1.394 . S
C267 C268 1.383 . S
C267 H275 0.929 . S
C268 C267 1.383 . S
C268 C269 1.377 1_455 S
C269 H253 0.930 . S
C269 C268 1.377 1_655 S
C269 C270 1.379 . S
C270 H254 0.931 . S
C270 C264 1.383 1_655 S
C270 C269 1.379 . S
H271 C265 0.959 . S
H272 C265 0.961 . S
H273 C265 0.960 . S
H274 C266 0.930 . S
H275 C267 0.929 . S
H276 C284 0.929 . S
H277 C286 0.930 . S
H278 C288 0.930 . S
H279 C291 0.929 . S
H280 C294 0.930 . S
H281 C296 0.960 . S
H282 C296 0.960 . S
H283 C296 0.960 . S
C284 H276 0.929 . S
C284 C285 1.378 . S
C284 C286 1.384 . S
C285 C284 1.378 . S
C285 C291 1.389 1_545 S
C286 H277 0.930 . S
C286 C284 1.384 . S
C286 C287 1.372 . S
C287 C286 1.372 . S
C287 C288 1.400 1_545 S
C287 C292 1.490 . S
C288 H278 0.930 . S
C288 C287 1.400 1_565 S
C288 C291 1.386 . S
H289 C305 0.930 . S
H290 C306 0.931 . S
C291 H279 0.929 . S
C291 C285 1.389 1_565 S
C291 C288 1.386 . S
C292 C287 1.490 . S
C292 C294 1.395 . S
C292 C295 1.403 1_545 S
H293 C299 0.930 . S
C294 H280 0.930 . S
C294 C292 1.395 . S
C294 C297 1.403 . S
C295 C292 1.403 1_565 S
C295 C296 1.524 . S
C295 C299 1.400 . S
C296 H281 0.960 . S
C296 H282 0.960 . S
C296 H283 0.960 . S
C296 C295 1.524 . S
C297 C294 1.403 . S
C297 C298 1.392 . S
C297 C301 1.495 . S
C298 C297 1.392 . S
C298 C299 1.385 1_545 S
C298 C300 1.478 . S
C299 H293 0.930 . S
C299 C295 1.400 . S
C299 C298 1.385 1_565 S
C300 C298 1.478 . S
C300 C302 1.381 . S
C300 C306 1.383 1_545 S
C301 C297 1.495 . S
C301 H307 0.959 . S
C301 H308 0.961 . S
C301 H309 0.960 . S
C302 C300 1.381 . S
C302 C303 1.394 . S
C302 H310 0.930 . S
C303 C302 1.394 . S
C303 C304 1.383 . S
C303 H311 0.929 . S
C304 C303 1.383 . S
C304 C305 1.377 1_545 S
C305 H289 0.930 . S
C305 C304 1.377 1_565 S
C305 C306 1.379 . S
C306 H290 0.931 . S
C306 C300 1.383 1_565 S
C306 C305 1.379 . S
H307 C301 0.959 . S
H308 C301 0.961 . S
H309 C301 0.960 . S
H310 C302 0.930 . S
H311 C303 0.929 . S
H312 C320 0.929 . S
H313 C322 0.930 . S
H314 C324 0.930 . S
H315 C327 0.929 . S
H316 C330 0.930 . S
H317 C332 0.960 . S
H318 C332 0.960 . S
H319 C332 0.960 . S
C320 H312 0.929 . S
C320 C321 1.384 . S
C320 C322 1.384 . S
C321 C320 1.384 . S
C321 C327 1.384 1_655 S
C322 H313 0.930 . S
C322 C320 1.384 . S
C322 C323 1.372 . S
C323 C322 1.372 . S
C323 C324 1.400 1_655 S
C323 C328 1.491 . S
C324 H314 0.930 . S
C324 C323 1.400 1_455 S
C324 C327 1.386 . S
H325 C341 0.930 . S
H326 C342 0.931 . S
C327 H315 0.929 . S
C327 C321 1.384 1_455 S
C327 C324 1.386 . S
C328 C323 1.491 . S
C328 C330 1.383 1_655 S
C328 C331 1.415 . S
H329 C335 0.930 . S
C330 H316 0.930 . S
C330 C328 1.383 1_455 S
C330 C333 1.403 . S
C331 C328 1.415 . S
C331 C332 1.524 . S
C331 C335 1.400 . S
C332 H317 0.960 . S
C332 H318 0.960 . S
C332 H319 0.960 . S
C332 C331 1.524 . S
C333 C330 1.403 . S
C333 C334 1.392 . S
C333 C337 1.495 . S
C334 C333 1.392 . S
C334 C335 1.385 1_455 S
C334 C336 1.478 . S
C335 H329 0.930 . S
C335 C331 1.400 . S
C335 C334 1.385 1_655 S
C336 C334 1.478 . S
C336 C338 1.381 1_455 S
C336 C342 1.383 . S
C337 C333 1.495 . S
C337 H343 0.959 . S
C337 H344 0.961 . S
C337 H345 0.960 . S
C338 C336 1.381 1_655 S
C338 C339 1.394 . S
C338 H346 0.930 . S
C339 C338 1.394 . S
C339 C340 1.368 1_655 S
C339 H347 0.929 . S
C340 C339 1.368 1_455 S
C340 C341 1.393 . S
C341 H325 0.930 . S
C341 C340 1.393 . S
C341 C342 1.379 . S
C342 H326 0.931 . S
C342 C336 1.383 . S
C342 C341 1.379 . S
H343 C337 0.959 . S
H344 C337 0.961 . S
H345 C337 0.960 . S
H346 C338 0.930 . S
H347 C339 0.929 . S
H348 C356 0.929 . S
H349 C358 0.930 . S
H350 C360 0.930 . S
H351 C363 0.929 . S
H352 C366 0.932 . S
H353 C368 0.960 . S
H354 C368 0.960 . S
H355 C368 0.960 1_565 S
C356 H348 0.929 . S
C356 C357 1.393 . S
C356 C358 1.384 . S
C357 C356 1.393 . S
C357 C363 1.374 1_545 S
C358 H349 0.930 . S
C358 C356 1.384 . S
C358 C359 1.372 . S
C359 C358 1.372 . S
C359 C360 1.400 1_545 S
C359 C364 1.490 . S
C360 H350 0.930 . S
C360 C359 1.400 1_565 S
C360 C363 1.386 . S
H361 C377 0.930 . S
H362 C378 0.931 . S
C363 H351 0.929 . S
C363 C357 1.374 1_565 S
C363 C360 1.386 . S
C364 C359 1.490 . S
C364 C366 1.393 1_545 S
C364 C367 1.403 . S
H365 C371 0.930 . S
C366 H352 0.932 . S
C366 C364 1.393 1_565 S
C366 C369 1.404 . S
C367 C364 1.403 . S
C367 C368 1.524 . S
C367 C371 1.400 . S
C368 H353 0.960 . S
C368 H354 0.960 . S
C368 H355 0.960 1_545 S
C368 C367 1.524 . S
C369 C366 1.404 . S
C369 C370 1.392 1_565 S
C369 C373 1.495 . S
C370 C369 1.392 1_545 S
C370 C371 1.385 . S
C370 C372 1.478 . S
C371 H365 0.930 . S
C371 C367 1.400 . S
C371 C370 1.385 . S
C372 C370 1.478 . S
C372 C374 1.382 . S
C372 C378 1.382 1_545 S
C373 C369 1.495 . S
C373 H379 0.959 . S
C373 H380 0.961 . S
C373 H381 0.960 1_565 S
C374 C372 1.382 . S
C374 C375 1.394 . S
C374 H382 0.930 . S
C375 C374 1.394 . S
C375 C376 1.391 . S
C375 H383 0.929 . S
C376 C375 1.391 . S
C376 C377 1.369 1_545 S
C377 H361 0.930 . S
C377 C376 1.369 1_565 S
C377 C378 1.379 . S
C378 H362 0.931 . S
C378 C372 1.382 1_565 S
C378 C377 1.379 . S
H379 C373 0.959 . S
H380 C373 0.961 . S
H381 C373 0.960 1_545 S
H382 C374 0.930 . S
H383 C375 0.929 . S
H384 C392 0.929 . S
H385 C394 0.930 . S
H386 C396 0.930 . S
H387 C399 0.929 . S
H388 C402 0.930 . S
H389 C404 0.960 . S
H390 C404 0.960 . S
H391 C404 0.960 1_455 S
C392 H384 0.929 . S
C392 C393 1.388 . S
C392 C394 1.384 . S
C393 C392 1.388 . S
C393 C399 1.380 1_655 S
C394 H385 0.930 . S
C394 C392 1.384 . S
C394 C395 1.372 . S
C395 C394 1.372 . S
C395 C396 1.400 1_655 S
C395 C400 1.490 . S
C396 H386 0.930 . S
C396 C395 1.400 1_455 S
C396 C399 1.386 . S
H397 C413 0.930 . S
H398 C414 0.931 . S
C399 H387 0.929 . S
C399 C393 1.380 1_455 S
C399 C396 1.386 . S
C400 C395 1.490 . S
C400 C402 1.395 . S
C400 C403 1.403 . S
H401 C407 0.930 . S
C402 H388 0.930 . S
C402 C400 1.395 . S
C402 C405 1.403 . S
C403 C400 1.403 . S
C403 C404 1.524 . S
C403 C407 1.400 . S
C404 H389 0.960 . S
C404 H390 0.960 . S
C404 H391 0.960 1_655 S
C404 C403 1.524 . S
C405 C402 1.403 . S
C405 C406 1.392 . S
C405 C409 1.495 1_655 S
C406 C405 1.392 . S
C406 C407 1.385 . S
C406 C408 1.478 . S
C407 H401 0.930 . S
C407 C403 1.400 . S
C407 C406 1.385 . S
C408 C406 1.478 . S
C408 C410 1.391 . S
C408 C414 1.372 1_655 S
C409 C405 1.495 1_455 S
C409 H415 0.959 . S
C409 H416 0.965 . S
C409 H417 0.956 1_455 S
C410 C408 1.391 . S
C410 C411 1.394 . S
C410 H418 0.930 . S
C411 C410 1.394 . S
C411 C412 1.391 . S
C411 H419 0.929 . S
C412 C411 1.391 . S
C412 C413 1.369 1_655 S
C413 H397 0.930 . S
C413 C412 1.369 1_455 S
C413 C414 1.379 . S
C414 H398 0.931 . S
C414 C408 1.372 1_455 S
C414 C413 1.379 . S
H415 C409 0.959 . S
H416 C409 0.965 . S
H417 C409 0.956 1_655 S
H418 C410 0.930 . S
H419 C411 0.929 . S
H420 C428 0.929 . S
H421 C430 0.930 . S
H422 C432 0.930 . S
H423 C435 0.929 . S
H424 C438 0.930 . S
H425 C440 0.960 . S
H426 C440 0.960 1_545 S
H427 C440 0.960 . S
C428 H420 0.929 . S
C428 C429 1.391 . S
C428 C430 1.384 . S
C429 C428 1.391 . S
C429 C435 1.377 1_545 S
C430 H421 0.930 . S
C430 C428 1.384 . S
C430 C431 1.372 . S
C431 C430 1.372 . S
C431 C432 1.400 1_545 S
C431 C436 1.490 . S
C432 H422 0.930 . S
C432 C431 1.400 1_565 S
C432 C435 1.386 . S
H433 C449 0.930 . S
H434 C450 0.931 . S
C435 H423 0.929 . S
C435 C429 1.377 1_565 S
C435 C432 1.386 . S
C436 C431 1.490 . S
C436 C438 1.395 . S
C436 C439 1.403 1_545 S
H437 C443 0.930 . S
C438 H424 0.930 . S
C438 C436 1.395 . S
C438 C441 1.403 . S
C439 C436 1.403 1_565 S
C439 C440 1.524 . S
C439 C443 1.400 . S
C440 H425 0.960 . S
C440 H426 0.960 1_565 S
C440 H427 0.960 . S
C440 C439 1.524 . S
C441 C438 1.403 . S
C441 C442 1.392 . S
C441 C445 1.495 . S
C442 C441 1.392 . S
C442 C443 1.385 1_545 S
C442 C444 1.478 . S
C443 H437 0.930 . S
C443 C439 1.400 . S
C443 C442 1.385 1_565 S
C444 C442 1.478 . S
C444 C446 1.381 . S
C444 C450 1.383 1_545 S
C445 C441 1.495 . S
C445 H451 0.959 . S
C445 H452 0.961 1_545 S
C445 H453 0.960 . S
C446 C444 1.381 . S
C446 C447 1.394 . S
C446 H454 0.930 . S
C447 C446 1.394 . S
C447 C448 1.378 1_545 S
C447 H455 0.929 . S
C448 C447 1.378 1_565 S
C448 C449 1.382 . S
C449 H433 0.930 . S
C449 C448 1.382 . S
C449 C450 1.379 . S
C450 H434 0.931 . S
C450 C444 1.383 1_565 S
C450 C449 1.379 . S
H451 C445 0.959 . S
H452 C445 0.961 1_565 S
H453 C445 0.960 . S
H454 C446 0.930 . S
H455 C447 0.929 . S
H456 C464 0.929 . S
H457 C466 0.930 . S
H458 C468 0.930 . S
H459 C471 0.929 . S
H460 C474 0.930 . S
H461 C476 0.960 . S
H462 C476 0.960 . S
H463 C476 0.960 1_655 S
C464 H456 0.929 . S
C464 C465 1.393 . S
C464 C466 1.384 . S
C465 C464 1.393 . S
C465 C471 1.375 1_455 S
C466 H457 0.930 . S
C466 C464 1.384 . S
C466 C467 1.372 . S
C467 C466 1.372 . S
C467 C468 1.400 1_455 S
C467 C472 1.490 . S
C468 H458 0.930 . S
C468 C467 1.400 1_655 S
C468 C471 1.386 . S
H469 C485 0.930 . S
H470 C486 0.931 . S
C471 H459 0.929 . S
C471 C465 1.375 1_655 S
C471 C468 1.386 . S
C472 C467 1.490 . S
C472 C474 1.395 1_455 S
C472 C475 1.403 . S
H473 C479 0.930 . S
C474 H460 0.930 . S
C474 C472 1.395 1_655 S
C474 C477 1.403 . S
C475 C472 1.403 . S
C475 C476 1.524 . S
C475 C479 1.400 . S
C476 H461 0.960 . S
C476 H462 0.960 . S
C476 H463 0.960 1_455 S
C476 C475 1.524 . S
C477 C474 1.403 . S
C477 C478 1.391 1_655 S
C477 C481 1.495 . S
C478 C477 1.391 1_455 S
C478 C479 1.387 . S
C478 C480 1.477 1_455 S
C479 H473 0.930 . S
C479 C475 1.400 . S
C479 C478 1.387 . S
C480 C478 1.477 1_655 S
C480 C482 1.373 1_655 S
C480 C486 1.391 . S
C481 C477 1.495 . S
C481 H487 0.959 . S
C481 H488 0.961 . S
C481 H489 0.960 1_655 S
C482 C480 1.373 1_455 S
C482 C483 1.394 . S
C482 H490 0.930 . S
C483 C482 1.394 . S
C483 C484 1.386 . S
C483 H491 0.929 . S
C484 C483 1.386 . S
C484 C485 1.374 1_455 S
C485 H469 0.930 . S
C485 C484 1.374 1_655 S
C485 C486 1.379 . S
C486 H470 0.931 . S
C486 C480 1.391 . S
C486 C485 1.379 . S
H487 C481 0.959 . S
H488 C481 0.961 . S
H489 C481 0.960 1_455 S
H490 C482 0.930 . S
H491 C483 0.929 . S
C232 C77 1.444 . S
C213 C13 1.440 . S
C268 C165 1.447 . S
C249 C15 1.448 1_655 S
C304 C85 1.447 . S
C285 C1 1.447 . S
C340 C173 1.445 . S
C321 C27 1.447 . S
C376 C145 1.447 . S
C357 C0 1.448 1_545 S
C412 C48 1.447 1_655 S
C393 C26 1.447 1_655 S
C448 C136 1.439 1_565 S
C429 C12 1.453 . S
C465 C14 1.447 1_455 S
C484 C57 1.447 . S
