# Generated by pormake.
# Topology gar, (4,6)-cn, num edge types: 1
# Building blocks:
#     Node 0, Type 0, BuildingBlock: GALJAG_clean_sbu_0, # of connection points: 4
#     Node 1, Type 0, BuildingBlock: GALJAG_clean_sbu_0, # of connection points: 4
#     Node 2, Type 0, BuildingBlock: GALJAG_clean_sbu_0, # of connection points: 4
#     Node 3, Type 0, BuildingBlock: GALJAG_clean_sbu_0, # of connection points: 4
#     Node 4, Type 0, BuildingBlock: GALJAG_clean_sbu_0, # of connection points: 4
#     Node 5, Type 0, BuildingBlock: GALJAG_clean_sbu_0, # of connection points: 4
#     Node 6, Type 0, BuildingBlock: GALJAG_clean_sbu_0, # of connection points: 4
#     Node 7, Type 0, BuildingBlock: GALJAG_clean_sbu_0, # of connection points: 4
#     Node 8, Type 0, BuildingBlock: GALJAG_clean_sbu_0, # of connection points: 4
#     Node 9, Type 0, BuildingBlock: GALJAG_clean_sbu_0, # of connection points: 4
#     Node 10, Type 0, BuildingBlock: GALJAG_clean_sbu_0, # of connection points: 4
#     Node 11, Type 0, BuildingBlock: GALJAG_clean_sbu_0, # of connection points: 4
#     Node 12, Type 0, BuildingBlock: GALJAG_clean_sbu_0, # of connection points: 4
#     Node 13, Type 0, BuildingBlock: GALJAG_clean_sbu_0, # of connection points: 4
#     Node 14, Type 0, BuildingBlock: GALJAG_clean_sbu_0, # of connection points: 4
#     Node 15, Type 0, BuildingBlock: GALJAG_clean_sbu_0, # of connection points: 4
#     Node 16, Type 0, BuildingBlock: GALJAG_clean_sbu_0, # of connection points: 4
#     Node 17, Type 0, BuildingBlock: GALJAG_clean_sbu_0, # of connection points: 4
#     Node 18, Type 0, BuildingBlock: GALJAG_clean_sbu_0, # of connection points: 4
#     Node 19, Type 0, BuildingBlock: GALJAG_clean_sbu_0, # of connection points: 4
#     Node 20, Type 0, BuildingBlock: GALJAG_clean_sbu_0, # of connection points: 4
#     Node 21, Type 0, BuildingBlock: GALJAG_clean_sbu_0, # of connection points: 4
#     Node 22, Type 0, BuildingBlock: GALJAG_clean_sbu_0, # of connection points: 4
#     Node 23, Type 0, BuildingBlock: GALJAG_clean_sbu_0, # of connection points: 4
#     Node 24, Type 1, BuildingBlock: PAMTUU_clean_sbu_0, # of connection points: 6
#     Node 25, Type 1, BuildingBlock: PAMTUU_clean_sbu_0, # of connection points: 6
#     Node 26, Type 1, BuildingBlock: PAMTUU_clean_sbu_0, # of connection points: 6
#     Node 27, Type 1, BuildingBlock: PAMTUU_clean_sbu_0, # of connection points: 6
#     Node 28, Type 1, BuildingBlock: PAMTUU_clean_sbu_0, # of connection points: 6
#     Node 29, Type 1, BuildingBlock: PAMTUU_clean_sbu_0, # of connection points: 6
#     Node 30, Type 1, BuildingBlock: PAMTUU_clean_sbu_0, # of connection points: 6
#     Node 31, Type 1, BuildingBlock: PAMTUU_clean_sbu_0, # of connection points: 6
#     Node 32, Type 1, BuildingBlock: PAMTUU_clean_sbu_0, # of connection points: 6
#     Node 33, Type 1, BuildingBlock: PAMTUU_clean_sbu_0, # of connection points: 6
#     Node 34, Type 1, BuildingBlock: PAMTUU_clean_sbu_0, # of connection points: 6
#     Node 35, Type 1, BuildingBlock: PAMTUU_clean_sbu_0, # of connection points: 6
#     Node 36, Type 1, BuildingBlock: PAMTUU_clean_sbu_0, # of connection points: 6
#     Node 37, Type 1, BuildingBlock: PAMTUU_clean_sbu_0, # of connection points: 6
#     Node 38, Type 1, BuildingBlock: PAMTUU_clean_sbu_0, # of connection points: 6
#     Node 39, Type 1, BuildingBlock: PAMTUU_clean_sbu_0, # of connection points: 6
#     Edge 40, Type (0, 1), BuildingBlock: MIFKUJ_clean_linker_0, # of connection points: 2
#     Edge 41, Type (0, 1), BuildingBlock: MIFKUJ_clean_linker_0, # of connection points: 2
#     Edge 42, Type (0, 1), BuildingBlock: MIFKUJ_clean_linker_0, # of connection points: 2
#     Edge 43, Type (0, 1), BuildingBlock: MIFKUJ_clean_linker_0, # of connection points: 2
#     Edge 44, Type (0, 1), BuildingBlock: MIFKUJ_clean_linker_0, # of connection points: 2
#     Edge 45, Type (0, 1), BuildingBlock: MIFKUJ_clean_linker_0, # of connection points: 2
#     Edge 46, Type (0, 1), BuildingBlock: MIFKUJ_clean_linker_0, # of connection points: 2
#     Edge 47, Type (0, 1), BuildingBlock: MIFKUJ_clean_linker_0, # of connection points: 2
#     Edge 48, Type (0, 1), BuildingBlock: MIFKUJ_clean_linker_0, # of connection points: 2
#     Edge 49, Type (0, 1), BuildingBlock: MIFKUJ_clean_linker_0, # of connection points: 2
#     Edge 50, Type (0, 1), BuildingBlock: MIFKUJ_clean_linker_0, # of connection points: 2
#     Edge 51, Type (0, 1), BuildingBlock: MIFKUJ_clean_linker_0, # of connection points: 2
#     Edge 52, Type (0, 1), BuildingBlock: MIFKUJ_clean_linker_0, # of connection points: 2
#     Edge 53, Type (0, 1), BuildingBlock: MIFKUJ_clean_linker_0, # of connection points: 2
#     Edge 54, Type (0, 1), BuildingBlock: MIFKUJ_clean_linker_0, # of connection points: 2
#     Edge 55, Type (0, 1), BuildingBlock: MIFKUJ_clean_linker_0, # of connection points: 2
#     Edge 56, Type (0, 1), BuildingBlock: MIFKUJ_clean_linker_0, # of connection points: 2
#     Edge 57, Type (0, 1), BuildingBlock: MIFKUJ_clean_linker_0, # of connection points: 2
#     Edge 58, Type (0, 1), BuildingBlock: MIFKUJ_clean_linker_0, # of connection points: 2
#     Edge 59, Type (0, 1), BuildingBlock: MIFKUJ_clean_linker_0, # of connection points: 2
#     Edge 60, Type (0, 1), BuildingBlock: MIFKUJ_clean_linker_0, # of connection points: 2
#     Edge 61, Type (0, 1), BuildingBlock: MIFKUJ_clean_linker_0, # of connection points: 2
#     Edge 62, Type (0, 1), BuildingBlock: MIFKUJ_clean_linker_0, # of connection points: 2
#     Edge 63, Type (0, 1), BuildingBlock: MIFKUJ_clean_linker_0, # of connection points: 2
#     Edge 64, Type (0, 1), BuildingBlock: MIFKUJ_clean_linker_0, # of connection points: 2
#     Edge 65, Type (0, 1), BuildingBlock: MIFKUJ_clean_linker_0, # of connection points: 2
#     Edge 66, Type (0, 1), BuildingBlock: MIFKUJ_clean_linker_0, # of connection points: 2
#     Edge 67, Type (0, 1), BuildingBlock: MIFKUJ_clean_linker_0, # of connection points: 2
#     Edge 68, Type (0, 1), BuildingBlock: MIFKUJ_clean_linker_0, # of connection points: 2
#     Edge 69, Type (0, 1), BuildingBlock: MIFKUJ_clean_linker_0, # of connection points: 2
#     Edge 70, Type (0, 1), BuildingBlock: MIFKUJ_clean_linker_0, # of connection points: 2
#     Edge 71, Type (0, 1), BuildingBlock: MIFKUJ_clean_linker_0, # of connection points: 2
#     Edge 72, Type (0, 1), BuildingBlock: MIFKUJ_clean_linker_0, # of connection points: 2
#     Edge 73, Type (0, 1), BuildingBlock: MIFKUJ_clean_linker_0, # of connection points: 2
#     Edge 74, Type (0, 1), BuildingBlock: MIFKUJ_clean_linker_0, # of connection points: 2
#     Edge 75, Type (0, 1), BuildingBlock: MIFKUJ_clean_linker_0, # of connection points: 2
#     Edge 76, Type (0, 1), BuildingBlock: MIFKUJ_clean_linker_0, # of connection points: 2
#     Edge 77, Type (0, 1), BuildingBlock: MIFKUJ_clean_linker_0, # of connection points: 2
#     Edge 78, Type (0, 1), BuildingBlock: MIFKUJ_clean_linker_0, # of connection points: 2
#     Edge 79, Type (0, 1), BuildingBlock: MIFKUJ_clean_linker_0, # of connection points: 2
#     Edge 80, Type (0, 1), BuildingBlock: MIFKUJ_clean_linker_0, # of connection points: 2
#     Edge 81, Type (0, 1), BuildingBlock: MIFKUJ_clean_linker_0, # of connection points: 2
#     Edge 82, Type (0, 1), BuildingBlock: MIFKUJ_clean_linker_0, # of connection points: 2
#     Edge 83, Type (0, 1), BuildingBlock: MIFKUJ_clean_linker_0, # of connection points: 2
#     Edge 84, Type (0, 1), BuildingBlock: MIFKUJ_clean_linker_0, # of connection points: 2
#     Edge 85, Type (0, 1), BuildingBlock: MIFKUJ_clean_linker_0, # of connection points: 2
#     Edge 86, Type (0, 1), BuildingBlock: MIFKUJ_clean_linker_0, # of connection points: 2
#     Edge 87, Type (0, 1), BuildingBlock: MIFKUJ_clean_linker_0, # of connection points: 2
#     Edge 88, Type (0, 1), BuildingBlock: MIFKUJ_clean_linker_0, # of connection points: 2
#     Edge 89, Type (0, 1), BuildingBlock: MIFKUJ_clean_linker_0, # of connection points: 2
#     Edge 90, Type (0, 1), BuildingBlock: MIFKUJ_clean_linker_0, # of connection points: 2
#     Edge 91, Type (0, 1), BuildingBlock: MIFKUJ_clean_linker_0, # of connection points: 2
#     Edge 92, Type (0, 1), BuildingBlock: MIFKUJ_clean_linker_0, # of connection points: 2
#     Edge 93, Type (0, 1), BuildingBlock: MIFKUJ_clean_linker_0, # of connection points: 2
#     Edge 94, Type (0, 1), BuildingBlock: MIFKUJ_clean_linker_0, # of connection points: 2
#     Edge 95, Type (0, 1), BuildingBlock: MIFKUJ_clean_linker_0, # of connection points: 2
#     Edge 96, Type (0, 1), BuildingBlock: MIFKUJ_clean_linker_0, # of connection points: 2
#     Edge 97, Type (0, 1), BuildingBlock: MIFKUJ_clean_linker_0, # of connection points: 2
#     Edge 98, Type (0, 1), BuildingBlock: MIFKUJ_clean_linker_0, # of connection points: 2
#     Edge 99, Type (0, 1), BuildingBlock: MIFKUJ_clean_linker_0, # of connection points: 2
#     Edge 100, Type (0, 1), BuildingBlock: MIFKUJ_clean_linker_0, # of connection points: 2
#     Edge 101, Type (0, 1), BuildingBlock: MIFKUJ_clean_linker_0, # of connection points: 2
#     Edge 102, Type (0, 1), BuildingBlock: MIFKUJ_clean_linker_0, # of connection points: 2
#     Edge 103, Type (0, 1), BuildingBlock: MIFKUJ_clean_linker_0, # of connection points: 2
#     Edge 104, Type (0, 1), BuildingBlock: MIFKUJ_clean_linker_0, # of connection points: 2
#     Edge 105, Type (0, 1), BuildingBlock: MIFKUJ_clean_linker_0, # of connection points: 2
#     Edge 106, Type (0, 1), BuildingBlock: MIFKUJ_clean_linker_0, # of connection points: 2
#     Edge 107, Type (0, 1), BuildingBlock: MIFKUJ_clean_linker_0, # of connection points: 2
#     Edge 108, Type (0, 1), BuildingBlock: MIFKUJ_clean_linker_0, # of connection points: 2
#     Edge 109, Type (0, 1), BuildingBlock: MIFKUJ_clean_linker_0, # of connection points: 2
#     Edge 110, Type (0, 1), BuildingBlock: MIFKUJ_clean_linker_0, # of connection points: 2
#     Edge 111, Type (0, 1), BuildingBlock: MIFKUJ_clean_linker_0, # of connection points: 2
#     Edge 112, Type (0, 1), BuildingBlock: MIFKUJ_clean_linker_0, # of connection points: 2
#     Edge 113, Type (0, 1), BuildingBlock: MIFKUJ_clean_linker_0, # of connection points: 2
#     Edge 114, Type (0, 1), BuildingBlock: MIFKUJ_clean_linker_0, # of connection points: 2
#     Edge 115, Type (0, 1), BuildingBlock: MIFKUJ_clean_linker_0, # of connection points: 2
#     Edge 116, Type (0, 1), BuildingBlock: MIFKUJ_clean_linker_0, # of connection points: 2
#     Edge 117, Type (0, 1), BuildingBlock: MIFKUJ_clean_linker_0, # of connection points: 2
#     Edge 118, Type (0, 1), BuildingBlock: MIFKUJ_clean_linker_0, # of connection points: 2
#     Edge 119, Type (0, 1), BuildingBlock: MIFKUJ_clean_linker_0, # of connection points: 2
#     Edge 120, Type (0, 1), BuildingBlock: MIFKUJ_clean_linker_0, # of connection points: 2
#     Edge 121, Type (0, 1), BuildingBlock: MIFKUJ_clean_linker_0, # of connection points: 2
#     Edge 122, Type (0, 1), BuildingBlock: MIFKUJ_clean_linker_0, # of connection points: 2
#     Edge 123, Type (0, 1), BuildingBlock: MIFKUJ_clean_linker_0, # of connection points: 2
#     Edge 124, Type (0, 1), BuildingBlock: MIFKUJ_clean_linker_0, # of connection points: 2
#     Edge 125, Type (0, 1), BuildingBlock: MIFKUJ_clean_linker_0, # of connection points: 2
#     Edge 126, Type (0, 1), BuildingBlock: MIFKUJ_clean_linker_0, # of connection points: 2
#     Edge 127, Type (0, 1), BuildingBlock: MIFKUJ_clean_linker_0, # of connection points: 2
#     Edge 128, Type (0, 1), BuildingBlock: MIFKUJ_clean_linker_0, # of connection points: 2
#     Edge 129, Type (0, 1), BuildingBlock: MIFKUJ_clean_linker_0, # of connection points: 2
#     Edge 130, Type (0, 1), BuildingBlock: MIFKUJ_clean_linker_0, # of connection points: 2
#     Edge 131, Type (0, 1), BuildingBlock: MIFKUJ_clean_linker_0, # of connection points: 2
#     Edge 132, Type (0, 1), BuildingBlock: MIFKUJ_clean_linker_0, # of connection points: 2
#     Edge 133, Type (0, 1), BuildingBlock: MIFKUJ_clean_linker_0, # of connection points: 2
#     Edge 134, Type (0, 1), BuildingBlock: MIFKUJ_clean_linker_0, # of connection points: 2
#     Edge 135, Type (0, 1), BuildingBlock: MIFKUJ_clean_linker_0, # of connection points: 2
# Relax obj value: 0.165
# Max RMSD: 0.307
# Mean RMSD: 0.173
data_MOF--net-gar--node1-GALJAG_clean_sbu_0--node2-PAMTUU_clean_sbu_0--edge1-MIFKUJ_clean_linker_0
_symmetry_space_group_name_H-M    P1
_symmetry_Int_Tables_number       1
_symmetry_cell_setting            triclinic
loop_
_symmetry_equiv_pos_as_xyz
'x, y, z'
_cell_length_a     76.510594
_cell_length_b     72.431684
_cell_length_c     75.600944
_cell_angle_alpha  93.420897
_cell_angle_beta   93.310706
_cell_angle_gamma 105.7404
loop_
_atom_site_label
_atom_site_type_symbol
_atom_site_fract_x
_atom_site_fract_y
_atom_site_fract_z
_atom_type_partial_charge
In0 In 0.04487 0.28074 0.38898 0.0
O1 O 0.06309 0.27722 0.36403 0.0
O2 O 0.07783 0.28856 0.38792 0.0
C3 C 0.00939 0.27764 0.37044 0.0
C4 C 0.04235 0.2463 0.40777 0.0
C5 C 0.0476 0.31702 0.40857 0.0
O6 O 0.02465 0.28553 0.36466 0.0
O7 O 0.01183 0.27032 0.38486 0.0
O8 O 0.04619 0.30129 0.41562 0.0
O9 O 0.04847 0.31476 0.39196 0.0
C10 C 0.07898 0.2834 0.3718 0.0
O11 O 0.04389 0.26292 0.41514 0.0
O12 O 0.04174 0.24677 0.39099 0.0
In13 In 0.03794 0.79257 0.66022 0.0
O14 O 0.03475 0.81041 0.6347 0.0
O15 O 0.04584 0.8271 0.658 0.0
C16 C 0.03451 0.75631 0.64061 0.0
C17 C 0.07359 0.79453 0.67788 0.0
C18 C 1.00389 0.7889 0.67777 0.0
O19 O 0.03808 0.77244 0.63394 0.0
O20 O 0.03181 0.75815 0.65694 0.0
O21 O 0.01977 0.79418 0.68566 0.0
O22 O 1.00504 0.78493 0.6614 0.0
C23 C 0.04079 0.82741 0.6418 0.0
O24 O 0.06052 0.79817 0.68575 0.0
O25 O 0.06896 0.79055 0.66148 0.0
In26 In 0.54596 0.77874 0.88746 0.0
O27 O 0.56411 0.77138 0.86381 0.0
O28 O 0.57855 0.79045 0.88454 0.0
C29 C 0.51064 0.77639 0.86911 0.0
C30 C 0.54395 0.74438 0.90625 0.0
C31 C 0.54858 0.81484 0.90702 0.0
O32 O 0.52587 0.78274 0.86263 0.0
O33 O 0.51304 0.77036 0.88418 0.0
O34 O 0.54575 0.79886 0.91394 0.0
O35 O 0.55078 0.81282 0.89063 0.0
C36 C 0.57982 0.78147 0.86997 0.0
O37 O 0.54884 0.76145 0.91348 0.0
O38 O 0.53987 0.74448 0.88977 0.0
In39 In 0.53652 0.29082 0.15836 0.0
O40 O 0.53497 0.27042 0.13159 0.0
O41 O 0.53414 0.25708 0.15534 0.0
C42 C 0.53889 0.32481 0.13894 0.0
C43 C 0.50295 0.28871 0.17649 0.0
C44 C 0.57188 0.29322 0.17661 0.0
O45 O 0.53192 0.30762 0.13253 0.0
O46 O 0.54495 0.32505 0.15495 0.0
O47 O 0.55675 0.28799 0.18354 0.0
O48 O 0.56938 0.29811 0.16106 0.0
C49 C 0.5344 0.25483 0.13864 0.0
O50 O 0.5188 0.29875 0.18228 0.0
O51 O 0.50395 0.27939 0.16203 0.0
In52 In 0.08049 0.80066 0.13392 0.0
O53 O 0.08405 0.77969 0.11121 0.0
O54 O 0.06812 0.76804 0.13203 0.0
C55 C 0.08307 0.83216 0.11518 0.0
C56 C 0.05034 0.7992 0.15154 0.0
C57 C 0.11239 0.80522 0.15364 0.0
O58 O 0.07455 0.81535 0.10901 0.0
O59 O 0.09095 0.83298 0.13043 0.0
O60 O 0.09969 0.81158 0.15907 0.0
O61 O 0.10922 0.79705 0.13812 0.0
C62 C 0.07475 0.76479 0.11767 0.0
O63 O 0.06475 0.79695 0.15895 0.0
O64 O 0.05107 0.80194 0.13525 0.0
In65 In 0.51688 0.77511 0.42716 0.0
O66 O 0.52866 0.76773 0.40141 0.0
O67 O 0.54726 0.78009 0.42368 0.0
C68 C 0.48555 0.77533 0.40845 0.0
C69 C 0.51535 0.74264 0.44409 0.0
C70 C 0.52298 0.80973 0.44606 0.0
O71 O 0.50111 0.78209 0.40299 0.0
O72 O 0.48573 0.7682 0.42327 0.0
O73 O 0.51161 0.79472 0.45016 0.0
O74 O 0.5315 0.80718 0.43275 0.0
C75 C 0.54505 0.77332 0.40767 0.0
O76 O 0.52235 0.7593 0.45154 0.0
O77 O 0.50861 0.74242 0.42845 0.0
In78 In 0.58349 0.30698 0.63255 0.0
O79 O 0.5747 0.28534 0.60777 0.0
O80 O 0.58764 0.27691 0.63019 0.0
C81 C 0.58167 0.33693 0.61284 0.0
C82 C 0.55595 0.30291 0.65429 0.0
C83 C 0.61587 0.31492 0.65199 0.0
O84 O 0.59655 0.33375 0.61772 0.0
O85 O 0.56787 0.32475 0.61735 0.0
O86 O 0.60101 0.31364 0.65895 0.0
O87 O 0.61445 0.3127 0.63522 0.0
C88 C 0.58047 0.2724 0.61457 0.0
O89 O 0.56969 0.3174 0.65573 0.0
O90 O 0.55631 0.29028 0.64218 0.0
In91 In 0.00932 0.26707 0.92874 0.0
O92 O 0.01206 0.24969 0.9528 0.0
O93 O 1.00411 0.23424 0.92766 0.0
C94 C 0.01479 0.30239 0.94624 0.0
C95 C 0.03974 0.27023 0.91112 0.0
C96 C 0.97654 0.26371 0.91087 0.0
O97 O 1.00859 0.28694 0.9535 0.0
O98 O 0.0185 0.3 0.93039 0.0
O99 O 0.99104 0.26505 0.90334 0.0
O100 O 0.97833 0.26346 0.92755 0.0
C101 C 1.008 0.23356 0.944 0.0
O102 O 0.02411 0.2676 0.90339 0.0
O103 O 0.04016 0.27145 0.92788 0.0
In104 In 0.44121 0.06058 0.31071 0.0
O105 O 0.45882 0.0488 0.29253 0.0
O106 O 0.45019 0.07293 0.28477 0.0
C107 C 0.46557 0.07397 0.33893 0.0
C108 C 0.41884 0.08342 0.31037 0.0
C109 C 0.42052 0.0238 0.30804 0.0
O110 O 0.47013 0.07248 0.32333 0.0
O111 O 0.44866 0.0687 0.3404 0.0
O112 O 0.4183 0.03595 0.29751 0.0
O113 O 0.4333 0.03015 0.32004 0.0
C114 C 0.45909 0.06101 0.28125 0.0
O115 O 0.41524 0.06785 0.3178 0.0
O116 O 0.43397 0.08773 0.30361 0.0
In117 In 0.29445 0.19525 0.51827 0.0
O118 O 0.29013 0.21875 0.5388 0.0
O119 O 0.30365 0.19898 0.54814 0.0
C120 C 0.2963 0.21049 0.4855 0.0
C121 C 0.32244 0.17883 0.51838 0.0
C122 C 0.26033 0.17131 0.51909 0.0
O123 O 0.30202 0.22086 0.49985 0.0
O124 O 0.28971 0.19299 0.48781 0.0
O125 O 0.27428 0.16536 0.5179 0.0
O126 O 0.2635 0.18937 0.51977 0.0
C127 C 0.29737 0.21295 0.55207 0.0
O128 O 0.3059 0.16937 0.51581 0.0
O129 O 0.32507 0.19686 0.5208 0.0
In130 In 0.15962 0.02327 0.80808 0.0
O131 O 0.13241 0.02838 0.79929 0.0
O132 O 0.14605 0.0159 0.78012 0.0
C133 C 0.14778 0.01341 0.84006 0.0
C134 C 0.1784 0.99817 0.79904 0.0
C135 C 0.18074 0.05947 0.80543 0.0
O136 O 0.14067 1.00376 0.82577 0.0
O137 O 0.16078 0.02795 0.83821 0.0
O138 O 0.18697 0.04509 0.8054 0.0
O139 O 0.16388 0.0557 0.80695 0.0
C140 C 0.13245 0.02187 0.78342 0.0
O141 O 0.18327 0.0103 0.81231 0.0
O142 O 0.16372 0.99831 0.79061 0.0
In143 In 0.28034 0.91741 1.00128 0.0
O144 O 0.27983 0.8895 0.01405 0.0
O145 O 0.27942 0.91402 0.03085 0.0
C146 C 0.27089 0.90095 0.96775 0.0
C147 C 0.25839 0.93977 0.00888 0.0
C148 C 0.31646 0.93425 0.00312 0.0
O149 O 0.26428 0.89283 0.9811 0.0
O150 O 0.28189 0.91731 0.97133 0.0
O151 O 0.30493 0.94242 0.99734 0.0
O152 O 0.30982 0.91747 0.00764 0.0
C153 C 0.27957 0.89661 0.02968 0.0
O154 O 0.27512 0.94644 0.00708 0.0
O155 O 0.25247 0.9217 0.00638 0.0
In156 In 0.28923 0.37329 0.02879 0.0
O157 O 0.28001 0.34797 0.04705 0.0
O158 O 0.297 0.3744 0.05877 0.0
C159 C 0.28675 0.35615 0.99485 0.0
C160 C 0.26078 0.38911 0.03049 0.0
C161 C 0.32338 0.39725 0.02848 0.0
O162 O 0.28977 0.34781 0.00847 0.0
O163 O 0.28452 0.37252 0.99845 0.0
O164 O 0.30925 0.40305 0.02851 0.0
O165 O 0.32039 0.37923 0.02879 0.0
C166 C 0.28818 0.35745 0.06115 0.0
O167 O 0.27725 0.39879 0.03241 0.0
O168 O 0.25845 0.3712 0.02773 0.0
In169 In 0.80699 0.15445 0.05128 0.0
O170 O 0.81191 0.12785 0.03776 0.0
O171 O 0.83511 0.14979 0.0491 0.0
C172 C 0.77133 0.136 0.05139 0.0
C173 C 0.81831 0.16773 0.08526 0.0
C174 C 0.8067 0.17847 0.0254 0.0
O175 O 0.78352 0.12727 0.05198 0.0
O176 O 0.77716 0.15397 0.05094 0.0
O177 O 0.80289 0.1821 0.04099 0.0
O178 O 0.81115 0.16305 0.02301 0.0
C179 C 0.829 0.13346 0.04069 0.0
O180 O 0.82312 0.1777 0.07235 0.0
O181 O 0.80824 0.15099 0.08096 0.0
In182 In 0.1719 0.51683 0.2489 0.0
O183 O 0.19889 0.50917 0.24986 0.0
O184 O 0.17626 0.48989 0.26008 0.0
C185 C 0.19197 0.55386 0.25118 0.0
C186 C 0.15271 0.50824 0.21704 0.0
C187 C 0.1488 0.51256 0.27472 0.0
O188 O 0.19577 0.54102 0.24135 0.0
O189 O 0.17811 0.54801 0.25971 0.0
O190 O 0.14336 0.5097 0.25845 0.0
O191 O 0.16587 0.51758 0.27794 0.0
C192 C 0.193 0.49404 0.25765 0.0
O193 O 0.15438 0.52357 0.22653 0.0
O194 O 0.16133 0.4972 0.22327 0.0
In195 In 0.79044 0.87138 0.52866 0.0
O196 O 0.7814 0.84609 0.54716 0.0
O197 O 0.79717 0.87307 0.55886 0.0
C198 C 0.78723 0.85111 0.49595 0.0
C199 C 0.7638 0.88965 0.53094 0.0
C200 C 0.82383 0.89592 0.5255 0.0
O201 O 0.79849 0.84999 0.50845 0.0
O202 O 0.77699 0.86133 0.50029 0.0
O203 O 0.80922 0.8992 0.51976 0.0
O204 O 0.82162 0.88037 0.5329 0.0
C205 C 0.78891 0.85597 0.56133 0.0
O206 O 0.78056 0.89834 0.53322 0.0
O207 O 0.76039 0.87165 0.52765 0.0
In208 In 0.91006 0.03442 0.23154 0.0
O209 O 0.93582 0.05176 0.22005 0.0
O210 O 0.91185 0.04123 0.20268 0.0
C211 C 0.92668 0.02819 0.26209 0.0
C212 C 0.88941 0.05669 0.24322 0.0
C213 C 0.89499 0.9984 0.21705 0.0
O214 O 0.93544 0.03668 0.24989 0.0
O215 O 0.90963 0.02302 0.25889 0.0
O216 O 0.88705 0.0115 0.21611 0.0
O217 O 0.91073 1.00361 0.22494 0.0
C218 C 0.92852 0.05021 0.20444 0.0
O219 O 0.8833 0.03884 0.23957 0.0
O220 O 0.90598 0.06353 0.24067 0.0
In221 In 0.30285 0.63779 0.55563 0.0
O222 O 0.31363 0.61184 0.5598 0.0
O223 O 0.32955 0.6345 0.5461 0.0
C224 C 0.26795 0.61635 0.55115 0.0
C225 C 0.31214 0.65431 0.58894 0.0
C226 C 0.3008 0.66123 0.52957 0.0
O227 O 0.2806 0.61142 0.54391 0.0
O228 O 0.27294 0.63196 0.56079 0.0
O229 O 0.30136 0.66674 0.54579 0.0
O230 O 0.30163 0.64421 0.52664 0.0
C231 C 0.32776 0.61811 0.55174 0.0
O232 O 0.32059 0.66103 0.57585 0.0
O233 O 0.29929 0.63921 0.5852 0.0
In234 In 0.40857 0.5303 0.72939 0.0
O235 O 0.38519 0.54397 0.7293 0.0
O236 O 0.40972 0.55904 0.74438 0.0
C237 C 0.38753 0.49423 0.72046 0.0
C238 C 0.42577 0.54196 0.70019 0.0
C239 C 0.42615 0.52459 0.75966 0.0
O240 O 0.38144 0.50756 0.72672 0.0
O241 O 0.40434 0.49918 0.71822 0.0
O242 O 0.43422 0.53473 0.74799 0.0
O243 O 0.40924 0.51761 0.75617 0.0
C244 C 0.39355 0.5585 0.73944 0.0
O245 O 0.43357 0.53698 0.71348 0.0
O246 O 0.40923 0.54101 0.70156 0.0
In247 In 0.65406 0.02665 0.75728 0.0
O248 O 0.67322 0.01993 0.77858 0.0
O249 O 0.6677 1.00256 0.75413 0.0
C250 C 0.67646 0.06266 0.75985 0.0
C251 C 0.63808 0.0151 0.72435 0.0
C252 C 0.62431 0.02414 0.77534 0.0
O253 O 0.67874 0.04948 0.74929 0.0
O254 O 0.66294 0.05764 0.76901 0.0
O255 O 0.62915 0.03618 0.76397 0.0
O256 O 0.63469 0.01351 0.77789 0.0
C257 C 0.67605 0.00609 0.76936 0.0
O258 O 0.63564 1.00425 0.73693 0.0
O259 O 0.64908 0.03148 0.72825 0.0
In260 In 0.79303 0.6929 0.01842 0.0
O261 O 0.803 0.66614 0.02102 0.0
O262 O 0.82304 0.69236 0.01808 0.0
C263 C 0.75896 0.66941 0.02099 0.0
C264 C 0.79734 0.71312 0.05134 0.0
C265 C 0.79422 0.70671 0.98488 0.0
O266 O 0.77238 0.66314 0.01771 0.0
O267 O 0.7626 0.68752 0.02268 0.0
O268 O 0.80055 0.71753 0.99886 0.0
O269 O 0.78729 0.68948 0.98791 0.0
C270 C 0.81965 0.67451 0.01994 0.0
O271 O 0.80691 0.70219 0.04685 0.0
O272 O 0.7863 0.71492 0.03892 0.0
In273 In 0.93423 0.56975 0.81612 0.0
O274 O 0.90799 0.57862 0.81521 0.0
O275 O 0.93195 0.59911 0.80884 0.0
C276 C 0.91886 0.53178 0.81779 0.0
C277 C 0.94718 0.56732 0.78422 0.0
C278 C 0.95475 0.58228 0.84685 0.0
O279 O 0.91064 0.54427 0.82146 0.0
O280 O 0.93508 0.53847 0.81398 0.0
O281 O 0.96121 0.58442 0.83193 0.0
O282 O 0.93795 0.57399 0.84623 0.0
C283 C 0.91501 0.59508 0.81015 0.0
O284 O 0.95753 0.57209 0.79835 0.0
O285 O 0.93038 0.56391 0.78626 0.0
In286 In 0.77958 0.41596 0.50296 0.0
O287 O 0.76737 0.39491 0.5232 0.0
O288 O 0.79448 0.39694 0.51682 0.0
C289 C 0.7713 0.39933 0.46953 0.0
C290 C 0.75577 0.4348 0.514 0.0
C291 C 0.81283 0.44124 0.50465 0.0
O292 O 0.77565 0.39073 0.48236 0.0
O293 O 0.77081 0.41631 0.47357 0.0
O294 O 0.80538 0.43454 0.51823 0.0
O295 O 0.80344 0.4353 0.49012 0.0
C296 C 0.78151 0.3894 0.52596 0.0
O297 O 0.77272 0.44234 0.51509 0.0
O298 O 0.75071 0.41777 0.50701 0.0
In299 In 0.66669 0.53177 0.31257 0.0
O300 O 0.69256 0.52393 0.30643 0.0
O301 O 0.66754 0.50288 0.29904 0.0
C302 C 0.68381 0.56889 0.32184 0.0
C303 C 0.64454 0.53642 0.28508 0.0
C304 C 0.65613 0.51905 0.34413 0.0
O305 O 0.69159 0.55721 0.31506 0.0
O306 O 0.66711 0.56187 0.32396 0.0
O307 O 0.64535 0.51589 0.33034 0.0
O308 O 0.67227 0.52815 0.34187 0.0
C309 C 0.68467 0.50743 0.29925 0.0
O310 O 0.63851 0.5273 0.29816 0.0
O311 O 0.66161 0.54302 0.28587 0.0
Tb312 Tb 0.06606 0.04642 0.03728 0.0
Tb313 Tb 0.02766 0.01858 0.01797 0.0
C314 C 0.02966 0.04102 0.05505 0.0
C315 C 0.11239 0.061 0.05793 0.0
C316 C 0.14428 0.04996 0.0658 0.0
C317 C 0.14471 0.06954 0.06692 0.0
C318 C 0.1288 0.07503 0.06305 0.0
C319 C 0.11188 0.04149 0.05707 0.0
C320 C 0.12764 0.03601 0.061 0.0
C321 C 0.09589 0.06644 0.05263 0.0
O322 O 0.06152 0.01854 0.04863 0.0
O323 O 0.04301 0.99894 0.02606 0.0
O324 O 0.04746 0.02222 0.99824 0.0
O325 O 0.07385 0.02907 0.01641 0.0
O326 O 1.00484 0.99467 0.01809 0.0
O327 O 1.00845 0.01244 0.99593 0.0
O328 O 0.02584 0.04803 0.01724 0.0
O329 O 0.05631 0.06327 0.01792 0.0
O330 O 0.04457 0.05356 0.05126 0.0
O331 O 0.02308 0.02458 0.04552 0.0
C332 C 0.05397 1.00134 0.04055 0.0
O333 O 0.09195 0.06545 0.03553 0.0
O334 O 0.08166 0.05846 0.06098 0.0
C335 C 0.06481 0.02327 1.0009 0.0
C336 C 0.97927 1.00283 0.00568 0.0
C337 C 0.94933 0.01807 0.00769 0.0
C338 C 0.95226 0.00894 0.99164 0.0
C339 C 0.96722 1.00142 0.99063 0.0
C340 C 0.97559 0.01079 0.02195 0.0
C341 C 0.96071 0.01826 0.02297 0.0
C342 C 0.99709 0.99928 0.00383 0.0
C343 C 0.03921 0.06297 0.01426 0.0
H344 H 0.15738 0.08056 0.0705 0.0
H345 H 0.12938 0.09016 0.06368 0.0
H346 H 0.09935 0.03048 0.05292 0.0
H347 H 0.12693 0.02084 0.05952 0.0
H348 H 0.94369 0.00871 0.97966 0.0
H349 H 0.96999 0.99553 0.97792 0.0
H350 H 0.98476 0.01223 0.03371 0.0
H351 H 0.95859 0.02499 0.03555 0.0
Tb352 Tb 0.2849 0.79264 0.30427 0.0
Tb353 Tb 0.30652 0.79003 0.26831 0.0
C354 C 0.26709 0.79572 0.26695 0.0
C355 C 0.2682 0.78205 0.34809 0.0
C356 C 0.2692 0.76223 0.37888 0.0
C357 C 0.25962 0.77627 0.37809 0.0
C358 C 0.25915 0.78614 0.36278 0.0
C359 C 0.27748 0.76785 0.34868 0.0
C360 C 0.27801 0.75805 0.36394 0.0
C361 C 0.26886 0.79325 0.33251 0.0
O362 O 0.27507 0.76348 0.29183 0.0
O363 O 0.30053 0.76176 0.27821 0.0
O364 O 0.32683 0.79444 0.29066 0.0
O365 O 0.30813 0.78233 0.31239 0.0
O366 O 0.30772 0.77508 0.24398 0.0
O367 O 0.32836 0.80129 0.25292 0.0
O368 O 0.30582 0.81967 0.27229 0.0
O369 O 0.30368 0.82072 0.30239 0.0
O370 O 0.26996 0.80304 0.28353 0.0
O371 O 0.27797 0.7865 0.25997 0.0
C372 C 0.28492 0.75338 0.28434 0.0
O373 O 0.28485 0.80455 0.33023 0.0
O374 O 0.26109 0.78363 0.3177 0.0
C375 C 0.32441 0.78779 0.30642 0.0
C376 C 0.31886 0.79633 0.2226 0.0
C377 C 0.31316 0.81112 0.18985 0.0
C378 C 0.32618 0.80079 0.19209 0.0
C379 C 0.32901 0.79345 0.20839 0.0
C380 C 0.30583 0.80656 0.22044 0.0
C381 C 0.30299 0.81389 0.2042 0.0
C382 C 0.32157 0.78853 0.23965 0.0
C383 C 0.3081 0.82933 0.28786 0.0
H384 H 0.25255 0.77968 0.3893 0.0
H385 H 0.25196 0.79711 0.36251 0.0
H386 H 0.28463 0.76461 0.33746 0.0
H387 H 0.28578 0.74758 0.36419 0.0
H388 H 0.33433 0.79859 0.18133 0.0
H389 H 0.33912 0.78557 0.2099 0.0
H390 H 0.2978 0.8088 0.2313 0.0
H391 H 0.29268 0.82151 0.20283 0.0
Tb392 Tb 0.52553 0.0368 0.53365 0.0
Tb393 Tb 0.57014 0.04281 0.52933 0.0
C394 C 0.55095 0.02783 0.56326 0.0
C395 C 0.48027 0.04754 0.53468 0.0
C396 C 0.45634 0.07134 0.53164 0.0
C397 C 0.46738 0.07227 0.54741 0.0
C398 C 0.47915 0.0605 0.54893 0.0
C399 C 0.4693 0.04668 0.5189 0.0
C400 C 0.45756 0.05845 0.51737 0.0
C401 C 0.4922 0.03443 0.53633 0.0
O402 O 0.53995 0.06495 0.54676 0.0
O403 O 0.56816 0.07193 0.535 0.0
O404 O 0.55806 0.04735 0.50381 0.0
O405 O 0.53283 0.05569 0.51268 0.0
O406 O 0.59711 0.04911 0.54063 0.0
O407 O 0.59071 0.04047 0.51276 0.0
O408 O 0.55731 0.01217 0.52657 0.0
O409 O 0.52777 0.0114 0.51776 0.0
O410 O 0.5351 0.02139 0.55418 0.0
O411 O 0.56477 0.03998 0.55699 0.0
C412 C 0.55556 0.07709 0.54368 0.0
O413 O 0.49877 0.02945 0.52179 0.0
O414 O 0.50435 0.03798 0.54986 0.0
C415 C 0.54472 0.05525 0.50099 0.0
C416 C 0.61402 0.02988 0.52693 0.0
C417 C 0.63462 1.00277 0.52736 0.0
C418 C 0.6393 0.01864 0.51698 0.0
C419 C 0.62912 0.03204 0.51681 0.0
C420 C 0.6092 0.01403 0.53728 0.0
C421 C 0.61948 1.00067 0.53758 0.0
C422 C 0.60316 0.04388 0.52592 0.0
C423 C 0.54119 1.00324 0.51886 0.0
H424 H 0.46665 0.08179 0.55877 0.0
H425 H 0.48723 0.06144 0.56136 0.0
H426 H 0.46971 0.03679 0.5077 0.0
H427 H 0.44948 0.05748 0.50494 0.0
H428 H 0.65099 0.02086 0.50914 0.0
H429 H 0.63303 0.0441 0.50867 0.0
H430 H 0.59744 0.01193 0.54504 0.0
H431 H 0.61542 0.98855 0.54561 0.0
Tb432 Tb 0.31686 0.28381 0.7769 0.0
Tb433 Tb 0.26591 0.27513 0.77225 0.0
C434 C 0.29352 0.24716 0.77849 0.0
C435 C 0.36566 0.30085 0.76679 0.0
C436 C 0.39638 0.30015 0.7479 0.0
C437 C 0.38414 0.28291 0.7521 0.0
C438 C 0.3689 0.28325 0.76139 0.0
C439 C 0.37766 0.31803 0.76241 0.0
C440 C 0.39283 0.31771 0.75304 0.0
C441 C 0.35012 0.30168 0.7772 0.0
O442 O 0.30752 0.27297 0.74906 0.0
O443 O 0.27542 0.26902 0.74581 0.0
O444 O 0.27129 0.30551 0.76712 0.0
O445 O 0.29576 0.2974 0.77231 0.0
O446 O 0.24671 0.25279 0.78263 0.0
O447 O 0.23849 0.27 0.76291 0.0
O448 O 0.27549 0.28736 0.79957 0.0
O449 O 0.30714 0.28958 0.80331 0.0
O450 O 0.31119 0.25282 0.77997 0.0
O451 O 0.28712 0.26173 0.77619 0.0
C452 C 0.29144 0.26879 0.7395 0.0
O453 O 0.33709 0.30717 0.76905 0.0
O454 O 0.3438 0.28726 0.78684 0.0
C455 C 0.28894 0.31102 0.7674 0.0
C456 C 0.21833 0.25952 0.78556 0.0
C457 C 0.1904 0.26375 0.80716 0.0
C458 C 0.19414 0.27432 0.79215 0.0
C459 C 0.20793 0.27223 0.78147 0.0
C460 C 0.21446 0.24881 0.80048 0.0
C461 C 0.20073 0.25097 0.81119 0.0
C462 C 0.23305 0.25719 0.7744 0.0
C463 C 0.29131 0.29079 0.80935 0.0
H464 H 0.3865 0.26914 0.74855 0.0
H465 H 0.3598 0.26976 0.76452 0.0
H466 H 0.37534 0.33176 0.76633 0.0
H467 H 0.40172 0.33124 0.74976 0.0
H468 H 0.18653 0.28439 0.78875 0.0
H469 H 0.21045 0.28062 0.77003 0.0
H470 H 0.22204 0.23871 0.80388 0.0
H471 H 0.198 0.24236 0.82247 0.0
Tb472 Tb 0.03968 0.04893 0.54395 0.0
Tb473 Tb 0.0427 0.02539 0.5076 0.0
C474 C 1.00569 0.02112 0.52309 0.0
C475 C 0.03467 0.06173 0.59129 0.0
C476 C 0.03669 0.05452 0.6274 0.0
C477 C 0.03487 0.07234 0.62233 0.0
C478 C 0.03399 0.07594 0.6044 0.0
C479 C 0.03497 0.04343 0.59616 0.0
C480 C 0.03601 0.03986 0.61408 0.0
C481 C 0.03774 0.0669 0.57306 0.0
O482 O 0.04643 0.02273 0.5536 0.0
O483 O 0.04085 1.0035 0.52753 0.0
O484 O 0.07029 0.03541 0.52022 0.0
O485 O 0.066 0.0621 0.53444 0.0
O486 O 0.0336 0.99978 0.49122 0.0
O487 O 0.05496 0.02348 0.4836 0.0
O488 O 0.04354 0.05458 0.49879 0.0
O489 O 0.03392 0.06806 0.52336 0.0
O490 O 0.01459 0.026 0.5387 0.0
O491 O 0.0142 0.02505 0.50867 0.0
C492 C 0.04393 0.00548 0.54509 0.0
O493 O 0.05281 0.06453 0.56735 0.0
O494 O 0.02401 0.06063 0.56113 0.0
C495 C 0.07689 0.0529 0.52772 0.0
C496 C 0.03399 0.00527 0.46097 0.0
C497 C 0.01599 1.00334 0.42715 0.0
C498 C 0.03344 1.00048 0.42891 0.0
C499 C 0.04235 1.00138 0.44573 0.0
C500 C 0.01657 0.00814 0.45927 0.0
C501 C 1.0076 0.00708 0.44249 0.0
C502 C 0.04364 0.00678 0.47855 0.0
C503 C 0.03846 0.06901 0.50662 0.0
H504 H 0.035 0.08381 0.63225 0.0
H505 H 0.03372 0.09013 0.60083 0.0
H506 H 0.03552 0.03229 0.58618 0.0
H507 H 0.03755 0.02603 0.61746 0.0
H508 H 0.04016 0.99749 0.41728 0.0
H509 H 0.05582 0.99919 0.44684 0.0
H510 H 0.00995 0.01137 0.47089 0.0
H511 H 0.99427 0.00963 0.4415 0.0
Tb512 Tb 0.30158 0.80519 0.76507 0.0
Tb513 Tb 0.28292 0.76595 0.78168 0.0
C514 C 0.30112 0.76579 0.74651 0.0
C515 C 0.311 0.85481 0.75234 0.0
C516 C 0.29752 0.88724 0.7527 0.0
C517 C 0.30317 0.88025 0.73691 0.0
C518 C 0.30994 0.86416 0.73676 0.0
C519 C 0.3059 0.86216 0.76823 0.0
C520 C 0.29932 0.87829 0.76842 0.0
C521 C 0.31546 0.83632 0.75151 0.0
O522 O 0.27182 0.80339 0.76214 0.0
O523 O 0.261 0.77081 0.76276 0.0
O524 O 0.27422 0.78729 0.7973 0.0
O525 O 0.29667 0.81399 0.79188 0.0
O526 O 0.26766 0.73705 0.77721 0.0
O527 O 0.27649 0.75001 0.80385 0.0
O528 O 0.31131 0.77472 0.79493 0.0
O529 O 0.32545 0.79528 0.77507 0.0
O530 O 0.29771 0.78223 0.74417 0.0
O531 O 0.30003 0.75884 0.76203 0.0
C532 C 0.25813 0.78751 0.75894 0.0
O533 O 0.3219 0.83146 0.76631 0.0
O534 O 0.30299 0.82202 0.74322 0.0
C535 C 0.28342 0.80526 0.80127 0.0
C536 C 0.27866 0.71881 0.79715 0.0
C537 C 0.29583 0.68917 0.79898 0.0
C538 C 0.27693 0.68528 0.80042 0.0
C539 C 0.26838 0.70005 0.79949 0.0
C540 C 0.29756 0.72281 0.79631 0.0
C541 C 0.30607 0.70817 0.79725 0.0
C542 C 0.26981 0.73398 0.79392 0.0
C543 C 0.32663 0.78474 0.78866 0.0
H544 H 0.30193 0.88693 0.72464 0.0
H545 H 0.31369 0.85857 0.72436 0.0
H546 H 0.30632 0.85502 0.78038 0.0
H547 H 0.29474 0.88313 0.78071 0.0
H548 H 0.26872 0.67078 0.80182 0.0
H549 H 0.25375 0.69674 0.80005 0.0
H550 H 0.30568 0.73716 0.79424 0.0
H551 H 0.32056 0.71162 0.79569 0.0
Tb552 Tb 0.54633 0.02699 0.03945 0.0
Tb553 Tb 0.54258 0.04619 0.00279 0.0
C554 C 0.57957 0.04965 0.02217 0.0
C555 C 0.54526 0.01895 0.08651 0.0
C556 C 0.53692 0.03168 0.11996 0.0
C557 C 0.55103 0.02274 0.11854 0.0
C558 C 0.55517 0.01642 0.10188 0.0
C559 C 0.53111 0.02773 0.08787 0.0
C560 C 0.5269 0.03393 0.10446 0.0
C561 C 0.55067 0.01405 0.06902 0.0
O562 O 0.54739 0.05736 0.04835 0.0
O563 O 0.53761 0.06793 0.02251 0.0
O564 O 0.51646 0.02609 0.00565 0.0
O565 O 0.51805 0.02687 0.03591 0.0
O566 O 0.55512 0.05783 0.98057 0.0
O567 O 0.52699 0.05676 0.98411 0.0
O568 O 0.54786 0.01812 0.99421 0.0
O569 O 0.54194 1.00209 0.01948 0.0
O570 O 0.572 0.0327 0.02738 0.0
O571 O 0.56932 0.05984 0.01586 0.0
C572 C 0.542 0.07067 0.0399 0.0
O573 O 0.53738 0.00574 0.05711 0.0
O574 O 0.56286 0.02789 0.06276 0.0
C575 C 0.50857 0.02345 0.02053 0.0
C576 C 0.53483 0.05166 0.95485 0.0
C577 C 0.52743 0.03844 0.91863 0.0
C578 C 0.51912 0.05191 0.92606 0.0
C579 C 0.5229 0.05855 0.944 0.0
C580 C 0.54224 0.03736 0.94778 0.0
C581 C 0.53871 0.03095 0.92985 0.0
C582 C 0.53996 0.05994 0.97328 0.0
C583 C 0.54503 1.00192 1.0024 0.0
H584 H 0.5591 0.02098 0.13024 0.0
H585 H 0.56632 0.00992 0.10098 0.0
H586 H 0.52347 0.03002 0.07607 0.0
H587 H 0.51575 0.04044 0.10513 0.0
H588 H 0.5101 0.05773 0.91793 0.0
H589 H 0.51685 0.0694 0.9493 0.0
H590 H 0.5513 0.03158 0.95592 0.0
H591 H 0.54564 0.02083 0.92469 0.0
Tb592 Tb 0.28238 0.26556 0.26658 0.0
Tb593 Tb 0.30033 0.30887 0.2819 0.0
C594 C 0.28444 0.29891 0.24216 0.0
C595 C 0.27754 0.21504 0.25267 0.0
C596 C 0.29413 0.18495 0.25413 0.0
C597 C 0.27504 0.181 0.25336 0.0
C598 C 0.26679 0.196 0.25264 0.0
C599 C 0.29651 0.21894 0.25282 0.0
C600 C 0.30473 0.20404 0.2535 0.0
C601 C 0.26927 0.23099 0.25438 0.0
O602 O 0.31044 0.27186 0.25659 0.0
O603 O 0.3247 0.30012 0.27298 0.0
O604 O 0.29623 0.29221 0.30504 0.0
O605 O 0.29713 0.26348 0.29186 0.0
O606 O 0.30277 0.33809 0.28017 0.0
O607 O 0.31909 0.32861 0.30019 0.0
O608 O 0.2707 0.30469 0.28705 0.0
O609 O 0.25972 0.27201 0.28111 0.0
O610 O 0.27352 0.2832 0.24734 0.0
O611 O 0.2979 0.30931 0.25306 0.0
C612 C 0.32557 0.28587 0.26139 0.0
O613 O 0.26809 0.23718 0.27066 0.0
O614 O 0.27552 0.24516 0.24459 0.0
C615 C 0.29787 0.27482 0.30631 0.0
C616 C 0.30948 0.35625 0.30761 0.0
C617 C 0.29979 0.38615 0.3265 0.0
C618 C 0.31825 0.38703 0.32495 0.0
C619 C 0.32303 0.37224 0.31539 0.0
C620 C 0.29126 0.35423 0.31094 0.0
C621 C 0.28643 0.36908 0.32022 0.0
C622 C 0.31411 0.34313 0.29432 0.0
C623 C 0.2573 0.28853 0.28758 0.0
H624 H 0.26655 0.16641 0.25377 0.0
H625 H 0.25212 0.19281 0.25265 0.0
H626 H 0.30506 0.23358 0.2531 0.0
H627 H 0.31946 0.20766 0.25447 0.0
H628 H 0.32891 0.39973 0.32999 0.0
H629 H 0.33721 0.37387 0.31314 0.0
H630 H 0.2806 0.34184 0.30521 0.0
H631 H 0.27206 0.36778 0.32092 0.0
Tb632 Tb 0.53656 0.54467 0.03996 0.0
Tb633 Tb 0.54429 0.52262 0.00417 0.0
C634 C 0.50471 0.51886 0.0155 0.0
C635 C 0.5374 0.55981 0.0875 0.0
C636 C 0.55054 0.55857 0.12285 0.0
C637 C 0.53281 0.56012 0.11902 0.0
C638 C 0.52631 0.56079 0.10145 0.0
C639 C 0.55506 0.55813 0.09128 0.0
C640 C 0.5616 0.55762 0.1088 0.0
C641 C 0.53029 0.55981 0.06903 0.0
O642 O 0.53552 0.5148 0.04727 0.0
O643 O 0.55076 0.50451 0.02519 0.0
O644 O 0.57133 0.53903 0.01453 0.0
O645 O 0.56603 0.5498 0.04246 0.0
O646 O 0.53835 0.49722 0.98734 0.0
O647 O 0.55703 0.52314 0.98021 0.0
O648 O 0.53722 0.54879 0.99464 0.0
O649 O 0.54011 0.56741 0.02083 0.0
O650 O 0.51074 0.53594 0.02391 0.0
O651 O 0.51611 0.50998 0.00933 0.0
C652 C 0.54337 0.5019 0.04064 0.0
O653 O 0.54192 0.56875 0.05836 0.0
O654 O 0.52045 0.54325 0.06174 0.0
C655 C 0.57709 0.54816 0.03016 0.0
C656 C 0.53766 0.50365 0.95729 0.0
C657 C 0.51928 0.50153 0.92357 0.0
C658 C 0.53656 0.49821 0.92522 0.0
C659 C 0.54567 0.49923 0.94198 0.0
C660 C 0.5204 0.50691 0.95572 0.0
C661 C 0.51125 0.50577 0.93901 0.0
C662 C 0.54761 0.50573 0.9748 0.0
C663 C 0.53866 0.56581 0.00321 0.0
H664 H 0.52403 0.56095 0.1296 0.0
H665 H 0.51261 0.56196 0.09875 0.0
H666 H 0.56376 0.55706 0.08068 0.0
H667 H 0.5752 0.55611 0.11133 0.0
H668 H 0.54302 0.49481 0.91355 0.0
H669 H 0.55903 0.49678 0.94299 0.0
H670 H 0.5141 0.51058 0.96741 0.0
H671 H 0.49809 0.5087 0.93814 0.0
Tb672 Tb 0.79969 0.30496 0.26511 0.0
Tb673 Tb 0.78045 0.26604 0.28285 0.0
C674 C 0.79992 0.26517 0.24738 0.0
C675 C 0.80323 0.35115 0.24785 0.0
C676 C 0.78571 0.3802 0.24344 0.0
C677 C 0.80403 0.38322 0.23966 0.0
C678 C 0.81275 0.36872 0.24183 0.0
C679 C 0.78493 0.34804 0.2514 0.0
C680 C 0.77626 0.3624 0.24923 0.0
C681 C 0.81221 0.33614 0.25128 0.0
O682 O 0.77111 0.29566 0.25221 0.0
O683 O 0.75688 0.27642 0.27295 0.0
O684 O 0.7829 0.28856 0.30353 0.0
O685 O 0.78523 0.31393 0.28645 0.0
O686 O 0.76094 0.23911 0.28033 0.0
O687 O 0.77765 0.24914 0.3047 0.0
O688 O 0.81018 0.26886 0.28882 0.0
O689 O 0.82276 0.30004 0.28229 0.0
O690 O 0.80893 0.28326 0.25065 0.0
O691 O 0.78624 0.25702 0.25646 0.0
C692 C 0.75577 0.28634 0.25891 0.0
O693 O 0.81518 0.33386 0.26808 0.0
O694 O 0.80498 0.31972 0.2421 0.0
C695 C 0.78224 0.30615 0.30156 0.0
C696 C 0.77338 0.21726 0.29439 0.0
C697 C 0.78906 0.18642 0.29362 0.0
C698 C 0.775 0.18668 0.30476 0.0
C699 C 0.76721 0.20211 0.30517 0.0
C700 C 0.78712 0.21679 0.28306 0.0
C701 C 0.79478 0.20147 0.28255 0.0
C702 C 0.7667 0.23435 0.29548 0.0
C703 C 0.8246 0.28411 0.28921 0.0
H704 H 0.81163 0.39681 0.23518 0.0
H705 H 0.82692 0.37131 0.2391 0.0
H706 H 0.77743 0.33462 0.25626 0.0
H707 H 0.7623 0.35975 0.25272 0.0
H708 H 0.7704 0.17527 0.31346 0.0
H709 H 0.7567 0.2024 0.31411 0.0
H710 H 0.7922 0.22848 0.27479 0.0
H711 H 0.80529 0.2015 0.27354 0.0
Tb712 Tb 0.03958 0.52681 0.54244 0.0
Tb713 Tb 0.03988 0.546 0.50516 0.0
C714 C 0.07547 0.54439 0.52532 0.0
C715 C 0.03072 0.51547 0.58815 0.0
C716 C 0.0155 0.52419 0.61938 0.0
C717 C 0.02996 0.51567 0.62012 0.0
C718 C 0.03752 0.51132 0.60457 0.0
C719 C 0.01613 0.52375 0.58732 0.0
C720 C 1.00851 0.528 0.60282 0.0
C721 C 0.03975 0.51264 0.57212 0.0
O722 O 0.03334 0.55444 0.54973 0.0
O723 O 0.0439 0.57074 0.52564 0.0
O724 O 0.01245 0.54249 0.51271 0.0
O725 O 0.01116 0.51981 0.53283 0.0
O726 O 0.05394 0.56592 0.48822 0.0
O727 O 0.02679 0.54782 0.4805 0.0
O728 O 0.03476 0.51471 0.49736 0.0
O729 O 0.04525 0.50498 0.52319 0.0
O730 O 0.06704 0.54413 0.53984 0.0
O731 O 0.06634 0.54089 0.50981 0.0
C732 C 0.03837 0.57084 0.542 0.0
O733 O 0.02909 0.50411 0.55827 0.0
O734 O 0.05199 0.52778 0.56809 0.0
C735 C 1.00323 0.52936 0.52234 0.0
C736 C 0.04743 0.55274 0.4587 0.0
C737 C 0.057 0.53792 0.42658 0.0
C738 C 0.05128 0.55486 0.42726 0.0
C739 C 0.04646 0.56216 0.44322 0.0
C740 C 0.05338 0.53603 0.45817 0.0
C741 C 0.05804 0.52862 0.44224 0.0
C742 C 0.04134 0.55954 0.47522 0.0
C743 C 0.04014 0.50155 0.50597 0.0
H744 H 0.03547 0.51244 0.63273 0.0
H745 H 0.04888 0.50507 0.60539 0.0
H746 H 0.0109 0.5273 0.57471 0.0
H747 H 0.99753 0.53478 0.60192 0.0
H748 H 0.05067 0.56256 0.4155 0.0
H749 H 0.04187 0.57507 0.44345 0.0
H750 H 0.05418 0.52857 0.47006 0.0
H751 H 0.06219 0.51546 0.44217 0.0
Tb752 Tb 0.81311 0.78105 0.27686 0.0
Tb753 Tb 0.77037 0.7841 0.27018 0.0
C754 C 0.77992 0.7501 0.28909 0.0
C755 C 0.86113 0.7825 0.26873 0.0
C756 C 0.89172 0.78848 0.24831 0.0
C757 C 0.88822 0.77395 0.26025 0.0
C758 C 0.87314 0.77106 0.27038 0.0
C759 C 0.86424 0.79674 0.25652 0.0
C760 C 0.87942 0.79974 0.24644 0.0
C761 C 0.8457 0.77954 0.28007 0.0
O762 O 0.80242 0.76593 0.25078 0.0
O763 O 0.77898 0.77914 0.24364 0.0
O764 O 0.78753 0.81234 0.26573 0.0
O765 O 0.81452 0.80508 0.26098 0.0
O766 O 0.74357 0.77085 0.2595 0.0
O767 O 0.75066 0.79901 0.27349 0.0
O768 O 0.77669 0.78955 0.29886 0.0
O769 O 0.80806 0.79624 0.30125 0.0
O770 O 0.79719 0.75924 0.2922 0.0
O771 O 0.7689 0.75542 0.27783 0.0
C772 C 0.79075 0.76977 0.23898 0.0
O773 O 0.8405 0.79474 0.28475 0.0
O774 O 0.83189 0.76456 0.27555 0.0
C775 C 0.80404 0.81667 0.26031 0.0
C776 C 0.722 0.77833 0.27759 0.0
C777 C 0.69292 0.76936 0.29979 0.0
C778 C 0.69024 0.7749 0.28252 0.0
C779 C 0.70467 0.77937 0.27154 0.0
C780 C 0.72462 0.77216 0.29454 0.0
C781 C 0.71021 0.7677 0.30555 0.0
C782 C 0.73744 0.7845 0.26656 0.0
C783 C 0.79251 0.79584 0.30819 0.0
H784 H 0.89711 0.76469 0.26175 0.0
H785 H 0.8709 0.7599 0.27961 0.0
H786 H 0.85507 0.80569 0.25493 0.0
H787 H 0.8817 0.81111 0.23746 0.0
H788 H 0.67716 0.77652 0.27773 0.0
H789 H 0.70242 0.7841 0.25848 0.0
H790 H 0.73792 0.77125 0.2994 0.0
H791 H 0.71267 0.76322 0.31866 0.0
Tb792 Tb 0.78685 0.3006 0.80003 0.0
Tb793 Tb 0.80947 0.29397 0.76551 0.0
C794 C 0.7725 0.30543 0.76163 0.0
C795 C 0.76611 0.29188 0.84223 0.0
C796 C 0.76559 0.27046 0.87214 0.0
C797 C 0.76647 0.29014 0.87417 0.0
C798 C 0.76672 0.30075 0.85931 0.0
C799 C 0.76436 0.27206 0.84008 0.0
C800 C 0.76396 0.26142 0.8549 0.0
C801 C 0.76983 0.30375 0.82711 0.0
O802 O 0.77438 0.27173 0.78801 0.0
O803 O 0.79915 0.266 0.77566 0.0
O804 O 0.82824 0.29605 0.78871 0.0
O805 O 0.80762 0.28739 0.80978 0.0
O806 O 0.81051 0.27656 0.74265 0.0
O807 O 0.83191 0.30257 0.75015 0.0
O808 O 0.81327 0.32483 0.7689 0.0
O809 O 0.80736 0.3275 0.79829 0.0
O810 O 0.77482 0.31248 0.77828 0.0
O811 O 0.78248 0.29475 0.75532 0.0
C812 C 0.78289 0.25978 0.78136 0.0
O813 O 0.78697 0.31247 0.82605 0.0
O814 O 0.76191 0.29588 0.81171 0.0
C815 C 0.82418 0.29024 0.8045 0.0
C816 C 0.82239 0.29526 0.71989 0.0
C817 C 0.81509 0.30505 0.68535 0.0
C818 C 0.82734 0.294 0.6885 0.0
C819 C 0.83089 0.28904 0.70568 0.0
C820 C 0.81053 0.30667 0.71687 0.0
C821 C 0.80688 0.3115 0.69975 0.0
C822 C 0.8248 0.28893 0.73768 0.0
C823 C 0.81425 0.33506 0.78404 0.0
H824 H 0.76797 0.29761 0.88725 0.0
H825 H 0.7683 0.31608 0.8612 0.0
H826 H 0.76405 0.26495 0.82699 0.0
H827 H 0.76298 0.24623 0.85288 0.0
H828 H 0.83379 0.28879 0.67762 0.0
H829 H 0.84 0.28012 0.70783 0.0
H830 H 0.80387 0.3116 0.72773 0.0
H831 H 0.79762 0.3203 0.69777 0.0
Tb832 Tb 0.78179 0.76394 0.76455 0.0
Tb833 Tb 0.80176 0.80595 0.7827 0.0
C834 C 0.78343 0.79967 0.7433 0.0
C835 C 0.77349 0.71387 0.74441 0.0
C836 C 0.78994 0.68399 0.73822 0.0
C837 C 0.78866 0.69636 0.72488 0.0
C838 C 0.78044 0.71114 0.72793 0.0
C839 C 0.77345 0.70054 0.75715 0.0
C840 C 0.78166 0.68581 0.75412 0.0
C841 C 0.76733 0.73111 0.74863 0.0
O842 O 0.81007 0.77067 0.75489 0.0
O843 O 0.82542 0.79525 0.77513 0.0
O844 O 0.80342 0.78795 0.80428 0.0
O845 O 0.79285 0.75753 0.79033 0.0
O846 O 0.82062 0.83282 0.78104 0.0
O847 O 0.80551 0.82694 0.80407 0.0
O848 O 0.7721 0.80265 0.78733 0.0
O849 O 0.75941 0.77059 0.77906 0.0
O850 O 0.77274 0.78344 0.74765 0.0
O851 O 0.79681 0.80966 0.75452 0.0
C852 C 0.82574 0.78279 0.76161 0.0
O853 O 0.76588 0.73546 0.76534 0.0
O854 O 0.77504 0.74635 0.74069 0.0
C855 C 0.79926 0.7692 0.80472 0.0
C856 C 0.81084 0.85804 0.79467 0.0
C857 C 0.79563 0.88926 0.79375 0.0
C858 C 0.80257 0.88451 0.80996 0.0
C859 C 0.81014 0.86902 0.81039 0.0
C860 C 0.80478 0.86338 0.77837 0.0
C861 C 0.79738 0.87894 0.77791 0.0
C862 C 0.81618 0.8401 0.79568 0.0
C863 C 0.75794 0.78698 0.78672 0.0
H864 H 0.79468 0.6951 0.71241 0.0
H865 H 0.78024 0.72094 0.71769 0.0
H866 H 0.76789 0.70202 0.76985 0.0
H867 H 0.78255 0.67666 0.76476 0.0
H868 H 0.80128 0.89208 0.8224 0.0
H869 H 0.81471 0.86507 0.8231 0.0
H870 H 0.80514 0.85514 0.76602 0.0
H871 H 0.79245 0.88249 0.76519 0.0
Tb872 Tb 0.5685 0.55379 0.54023 0.0
Tb873 Tb 0.5323 0.52658 0.51692 0.0
C874 C 0.52915 0.5479 0.55267 0.0
C875 C 0.61381 0.56563 0.56052 0.0
C876 C 0.63926 0.54468 0.56589 0.0
C877 C 0.63619 0.55676 0.57987 0.0
C878 C 0.62336 0.56713 0.57721 0.0
C879 C 0.61788 0.55449 0.54633 0.0
C880 C 0.63049 0.54411 0.54901 0.0
C881 C 0.59705 0.57168 0.55873 0.0
O882 O 0.57079 0.52459 0.54044 0.0
O883 O 0.54036 0.5093 0.53699 0.0
O884 O 0.55509 0.52017 0.50493 0.0
O885 O 0.57695 0.54834 0.51379 0.0
O886 O 0.50751 0.50522 0.51667 0.0
O887 O 0.51749 0.51672 0.49232 0.0
O888 O 0.53809 0.5549 0.50629 0.0
O889 O 0.5545 0.57388 0.5304 0.0
O890 O 0.54599 0.54804 0.55728 0.0
O891 O 0.5223 0.54363 0.53621 0.0
C892 C 0.55716 0.50939 0.54182 0.0
O893 O 0.59268 0.57644 0.54302 0.0
O894 O 0.58323 0.55993 0.56514 0.0
C895 C 0.57088 0.53246 0.50328 0.0
C896 C 0.48609 0.51017 0.49577 0.0
C897 C 0.45215 0.51821 0.49482 0.0
C898 C 0.45311 0.49906 0.49409 0.0
C899 C 0.47 0.49508 0.49456 0.0
C900 C 0.48515 0.52923 0.49565 0.0
C901 C 0.46833 0.53321 0.49509 0.0
C902 C 0.50363 0.50628 0.49982 0.0
C903 C 0.54486 0.57186 0.51509 0.0
H904 H 0.64291 0.5573 0.59298 0.0
H905 H 0.62011 0.57534 0.58838 0.0
H906 H 0.61046 0.55276 0.53343 0.0
H907 H 0.63282 0.53494 0.53805 0.0
H908 H 0.44084 0.48724 0.49379 0.0
H909 H 0.47053 0.4803 0.49483 0.0
H910 H 0.49745 0.5411 0.49691 0.0
H911 H 0.46808 0.54812 0.496 0.0
Tb912 Tb 0.01787 0.52795 0.03984 0.0
Tb913 Tb 0.06162 0.53426 0.032 0.0
C914 C 0.04526 0.51752 0.06667 0.0
C915 C 0.97321 0.53891 0.04278 0.0
C916 C 0.94984 0.56306 0.03875 0.0
C917 C 0.94599 0.54803 0.05018 0.0
C918 C 0.95753 0.53609 0.05213 0.0
C919 C 0.97732 0.55404 0.03154 0.0
C920 C 0.96574 0.56596 0.02952 0.0
C921 C 0.98493 0.52579 0.04465 0.0
O922 O 0.03365 0.55554 0.05319 0.0
O923 O 0.05864 0.56321 0.03666 0.0
O924 O 0.0473 0.53664 0.00697 0.0
O925 O 0.02308 0.54558 0.01776 0.0
O926 O 0.08948 0.54377 0.0407 0.0
O927 O 0.08062 0.52959 0.01457 0.0
O928 O 0.04922 0.50353 0.03084 0.0
O929 O 0.01932 0.50233 0.02361 0.0
O930 O 0.02857 0.51212 0.05922 0.0
O931 O 0.05862 0.52981 0.05989 0.0
C932 C 0.04769 0.56825 0.04766 0.0
O933 O 0.99044 0.51971 0.02996 0.0
O934 O 0.99804 0.53069 0.05729 0.0
C935 C 0.03336 0.54378 0.00489 0.0
C936 C 0.10611 0.52321 0.02902 0.0
C937 C 0.1285 0.49797 0.03202 0.0
C938 C 0.1347 0.51572 0.0245 0.0
C939 C 0.12364 0.52817 0.02305 0.0
C940 C 0.09975 0.50556 0.03652 0.0
C941 C 0.11081 0.49304 0.03798 0.0
C942 C 0.09432 0.53606 0.02642 0.0
C943 C 0.03275 0.49414 0.02428 0.0
H944 H 0.93409 0.54553 0.05775 0.0
H945 H 0.95416 0.52458 0.06094 0.0
H946 H 0.98937 0.55652 0.02418 0.0
H947 H 0.96906 0.57719 0.02046 0.0
H948 H 0.14803 0.5199 0.01939 0.0
H949 H 0.12871 0.54161 0.01702 0.0
H950 H 0.0862 0.50144 0.04118 0.0
H951 H 0.10561 0.47968 0.04406 0.0
H952 H 1.00666 0.19897 0.92664 0.0
H953 H 0.01023 0.16994 0.93949 0.0
H954 H 0.01448 0.19805 0.99215 0.0
H955 H 0.01166 0.22742 0.97926 0.0
H956 H 0.03863 0.18015 0.9915 0.0
H957 H 0.97514 0.16078 0.97428 0.0
H958 H 0.94709 0.15539 0.9546 0.0
H959 H 0.9655 0.11725 0.91922 0.0
H960 H 0.99376 0.12255 0.93862 0.0
H961 H 1.00631 0.07134 0.01239 0.0
H962 H 0.99947 0.10003 1.00179 0.0
H963 H 0.0552 0.12176 0.98894 0.0
H964 H 0.06227 0.09347 1.00015 0.0
H965 H 0.99889 0.11486 0.97216 0.0
H966 H 0.06922 0.16981 0.99288 0.0
H967 H 0.09418 0.17516 0.01642 0.0
H968 H 0.0571 0.14284 0.05121 0.0
H969 H 0.03188 0.13752 0.02797 0.0
C970 C 1.00819 0.19892 0.94097 0.0
C971 C 0.00882 0.2155 0.95193 0.0
C972 C 0.01015 0.18223 0.94833 0.0
C973 C 0.01239 0.18156 0.96687 0.0
C974 C 0.01279 0.19809 0.97783 0.0
C975 C 0.0111 0.21489 0.97045 0.0
C976 C 0.01507 0.16395 0.97474 0.0
C977 C 0.02989 0.1659 0.98726 0.0
C978 C 1.00349 0.14527 0.96964 0.0
C979 C 0.98663 0.1422 0.95782 0.0
C980 C 0.97328 0.15138 0.96222 0.0
C981 C 0.95733 0.14831 0.95113 0.0
C982 C 0.95454 0.13604 0.93564 0.0
C983 C 0.96769 0.12678 0.93121 0.0
C984 C 0.98367 0.12979 0.94226 0.0
C985 C 0.01714 0.08224 0.00734 0.0
C986 C 0.0349 0.08014 0.00728 0.0
C987 C 0.01318 0.09867 1.00122 0.0
C988 C 0.02685 0.11334 0.99478 0.0
C989 C 0.04448 0.11097 0.99425 0.0
C990 C 0.0485 0.0947 1.0006 0.0
C991 C 0.0227 0.13106 0.98861 0.0
C992 C 1.00761 0.12912 0.97641 0.0
C993 C 0.03365 0.14981 0.99448 0.0
C994 C 0.04871 0.15311 0.00861 0.0
C995 C 0.06639 0.16391 0.00558 0.0
C996 C 0.08058 0.16693 0.01886 0.0
C997 C 0.07724 0.15929 0.03528 0.0
C998 C 0.05968 0.14869 0.03847 0.0
C999 C 0.04544 0.14565 0.02523 0.0
H1000 H 0.08825 0.16163 0.04554 0.0
H1001 H 0.94216 0.13365 0.92709 0.0
H1002 H 0.12514 0.82704 0.18491 0.0
H1003 H 0.15194 0.82696 0.20436 0.0
H1004 H 0.1638 0.78489 0.16766 0.0
H1005 H 0.13727 0.78515 0.14802 0.0
H1006 H 0.16326 0.77549 0.20401 0.0
H1007 H 0.18967 0.82805 0.16893 0.0
H1008 H 0.19187 0.85902 0.15608 0.0
H1009 H 0.1977 0.88742 0.20846 0.0
H1010 H 0.19527 0.85654 0.22163 0.0
H1011 H 0.25224 0.77564 0.23543 0.0
H1012 H 0.22588 0.77851 0.21709 0.0
H1013 H 0.21957 0.82308 0.25455 0.0
H1014 H 0.24589 0.82017 0.27316 0.0
H1015 H 0.21666 0.8321 0.21914 0.0
H1016 H 0.19154 0.78146 0.25472 0.0
H1017 H 0.1878 0.75106 0.26896 0.0
H1018 H 0.17758 0.71956 0.21776 0.0
H1019 H 0.18176 0.74985 0.20315 0.0
C1020 C 0.13357 0.81792 0.18092 0.0
C1021 C 0.12913 0.80613 0.16493 0.0
C1022 C 0.14887 0.8179 0.19203 0.0
C1023 C 0.15985 0.80592 0.18744 0.0
C1024 C 0.15549 0.79423 0.17144 0.0
C1025 C 0.14039 0.79446 0.16021 0.0
C1026 C 0.17556 0.80511 0.19956 0.0
C1027 C 0.17507 0.78777 0.20712 0.0
C1028 C 0.19061 0.82137 0.20414 0.0
C1029 C 0.19208 0.83994 0.19626 0.0
C1030 C 0.19124 0.84086 0.17771 0.0
C1031 C 0.19257 0.85841 0.17037 0.0
C1032 C 0.19487 0.87517 0.18145 0.0
C1033 C 0.19589 0.87442 0.1999 0.0
C1034 C 0.19455 0.8569 0.2073 0.0
C1035 C 0.24528 0.78608 0.2398 0.0
C1036 C 0.25115 0.79764 0.25581 0.0
C1037 C 0.23017 0.78765 0.22931 0.0
C1038 C 0.2207 0.80094 0.23449 0.0
C1039 C 0.22668 0.81273 0.25031 0.0
C1040 C 0.24167 0.81098 0.26096 0.0
C1041 C 0.20451 0.80234 0.22336 0.0
C1042 C 0.20488 0.81979 0.21603 0.0
C1043 C 0.18921 0.78624 0.21916 0.0
C1044 C 0.1872 0.76798 0.22782 0.0
C1045 C 0.18878 0.76809 0.24647 0.0
C1046 C 0.18654 0.75087 0.25462 0.0
C1047 C 0.1825 0.7334 0.24427 0.0
C1048 C 0.18075 0.73312 0.22575 0.0
C1049 C 0.18309 0.75032 0.21753 0.0
H1050 H 0.18064 0.72009 0.25064 0.0
H1051 H 0.1959 0.88874 0.17574 0.0
H1052 H 0.50219 0.82014 0.47106 0.0
H1053 H 0.50517 0.85249 0.48482 0.0
H1054 H 0.55228 0.87513 0.45589 0.0
H1055 H 0.54932 0.84289 0.44202 0.0
H1056 H 0.55675 0.89003 0.49147 0.0
H1057 H 0.51266 0.8802 0.44098 0.0
H1058 H 0.48453 0.8629 0.4228 0.0
H1059 H 0.45271 0.86943 0.46651 0.0
H1060 H 0.4807 0.88654 0.48505 0.0
H1061 H 0.56514 0.98916 0.50119 0.0
H1062 H 0.56172 0.95611 0.48965 0.0
H1063 H 0.50819 0.93881 0.50918 0.0
H1064 H 0.51115 0.97238 0.51954 0.0
H1065 H 0.50654 0.92004 0.47998 0.0
H1066 H 0.55008 0.93102 0.53054 0.0
H1067 H 0.57804 0.94786 0.54923 0.0
H1068 H 0.61069 0.93864 0.50706 0.0
H1069 H 0.58293 0.92191 0.48803 0.0
C1070 C 0.51327 0.83198 0.46775 0.0
C1071 C 0.52548 0.82897 0.4554 0.0
C1072 C 0.51492 0.85047 0.47558 0.0
C1073 C 0.52887 0.86627 0.47128 0.0
C1074 C 0.54142 0.86317 0.45941 0.0
C1075 C 0.53967 0.84474 0.45145 0.0
C1076 C 0.53003 0.88613 0.47864 0.0
C1077 C 0.54586 0.89669 0.48888 0.0
C1078 C 0.51562 0.89462 0.47563 0.0
C1079 C 0.49879 0.88446 0.46446 0.0
C1080 C 0.49968 0.87781 0.44676 0.0
C1081 C 0.48376 0.86806 0.43638 0.0
C1082 C 0.46685 0.86502 0.44351 0.0
C1083 C 0.46582 0.87177 0.46102 0.0
C1084 C 0.48171 0.8815 0.47146 0.0
C1085 C 0.5526 0.97829 0.50291 0.0
C1086 C 0.53843 0.98327 0.51132 0.0
C1087 C 0.55072 0.95932 0.4965 0.0
C1088 C 0.53494 0.94466 0.49903 0.0
C1089 C 0.52059 0.94973 0.50714 0.0
C1090 C 0.52224 0.96891 0.51306 0.0
C1091 C 0.53334 0.92418 0.49294 0.0
C1092 C 0.51743 0.91345 0.48284 0.0
C1093 C 0.54764 0.91547 0.49628 0.0
C1094 C 0.56439 0.92532 0.50781 0.0
C1095 C 0.56321 0.93265 0.52522 0.0
C1096 C 0.57903 0.94218 0.53587 0.0
C1097 C 0.59612 0.94435 0.52931 0.0
C1098 C 0.59744 0.93696 0.5121 0.0
C1099 C 0.58167 0.92742 0.50139 0.0
H1100 H 0.60835 0.95167 0.53759 0.0
H1101 H 0.45454 0.85746 0.43545 0.0
H1102 H 0.52392 0.27439 0.65166 0.0
H1103 H 0.49707 0.27301 0.66818 0.0
H1104 H 0.52531 0.32665 0.69772 0.0
H1105 H 0.55228 0.32806 0.68131 0.0
H1106 H 0.50604 0.30037 0.71911 0.0
H1107 H 0.49507 0.32613 0.66361 0.0
H1108 H 0.49247 0.32638 0.63097 0.0
H1109 H 0.44985 0.27333 0.62723 0.0
H1110 H 0.45239 0.27263 0.65986 0.0
H1111 H 0.43066 0.32509 0.75356 0.0
H1112 H 0.45764 0.32472 0.73802 0.0
H1113 H 0.42697 0.27375 0.70589 0.0
H1114 H 0.39964 0.27457 0.72077 0.0
H1115 H 0.44749 0.29784 0.68585 0.0
H1116 H 0.45776 0.27205 0.74112 0.0
H1117 H 0.46037 0.27127 0.77371 0.0
H1118 H 0.50411 0.3234 0.77795 0.0
H1119 H 0.5016 0.32464 0.74538 0.0
C1120 C 0.52447 0.28582 0.66177 0.0
C1121 C 0.54019 0.30138 0.66514 0.0
C1122 C 0.50908 0.28505 0.67115 0.0
C1123 C 0.5091 0.29986 0.68403 0.0
C1124 C 0.52498 0.3151 0.68781 0.0
C1125 C 0.54036 0.3159 0.6784 0.0
C1126 C 0.49243 0.29969 0.69326 0.0
C1127 C 0.49328 0.30004 0.71187 0.0
C1128 C 0.47567 0.29878 0.68377 0.0
C1129 C 0.47405 0.29923 0.66416 0.0
C1130 C 0.48524 0.31444 0.65582 0.0
C1131 C 0.48376 0.31468 0.63732 0.0
C1132 C 0.47104 0.29985 0.62703 0.0
C1133 C 0.45973 0.28479 0.63522 0.0
C1134 C 0.46117 0.28448 0.65371 0.0
C1135 C 0.42955 0.31391 0.74304 0.0
C1136 C 0.41291 0.29985 0.73846 0.0
C1137 C 0.44509 0.31358 0.73431 0.0
C1138 C 0.44446 0.29902 0.72096 0.0
C1139 C 0.42785 0.28507 0.71621 0.0
C1140 C 0.41225 0.28546 0.72487 0.0
C1141 C 0.46105 0.29853 0.71177 0.0
C1142 C 0.4602 0.29809 0.69313 0.0
C1143 C 0.47779 0.29926 0.72124 0.0
C1144 C 0.47938 0.29853 0.74082 0.0
C1145 C 0.46785 0.28342 0.74901 0.0
C1146 C 0.46932 0.28289 0.76748 0.0
C1147 C 0.48237 0.2973 0.7779 0.0
C1148 C 0.494 0.31226 0.76986 0.0
C1149 C 0.49257 0.31287 0.7514 0.0
H1150 H 0.48349 0.29686 0.7922 0.0
H1151 H 0.46991 0.30006 0.61271 0.0
H1152 H 0.05092 0.86618 0.65515 0.0
H1153 H 0.05177 0.89538 0.63986 0.0
H1154 H 0.03312 0.86083 0.59058 0.0
H1155 H 0.03239 0.83163 0.60589 0.0
H1156 H 0.05637 0.89176 0.58192 0.0
H1157 H 1.00585 0.88578 0.61789 0.0
H1158 H 0.99006 0.88288 0.64555 0.0
H1159 H 0.02638 0.93656 0.66757 0.0
H1160 H 0.04255 0.93966 0.64011 0.0
H1161 H 0.03687 0.9669 0.53236 0.0
H1162 H 0.03626 0.93828 0.54816 0.0
H1163 H 0.05092 0.97339 0.59759 0.0
H1164 H 0.05094 1.00212 0.58174 0.0
H1165 H 0.03013 0.94235 0.60654 0.0
H1166 H 0.08095 0.94855 0.57131 0.0
H1167 H 0.09749 0.9517 0.5441 0.0
H1168 H 0.06176 0.89805 0.52128 0.0
H1169 H 0.04487 0.8947 0.54829 0.0
C1170 C 0.04694 0.86463 0.64104 0.0
C1171 C 0.04153 0.84596 0.63207 0.0
C1172 C 0.0473 0.88163 0.63214 0.0
C1173 C 0.04225 0.88108 0.61368 0.0
C1174 C 0.03712 0.8624 0.60468 0.0
C1175 C 0.03665 0.84539 0.6136 0.0
C1176 C 0.04245 0.8996 0.60383 0.0
C1177 C 0.05034 0.90257 0.58736 0.0
C1178 C 0.03519 0.91467 0.61052 0.0
C1179 C 0.02553 0.91284 0.62703 0.0
C1180 C 0.01056 0.8969 0.62869 0.0
C1181 C 1.00152 0.89523 0.64432 0.0
C1182 C 1.00725 0.9095 0.65833 0.0
C1183 C 0.02199 0.9255 0.65672 0.0
C1184 C 0.03108 0.92722 0.64112 0.0
C1185 C 0.04011 0.96877 0.5466 0.0
C1186 C 0.04414 0.98749 0.55539 0.0
C1187 C 0.0399 0.95205 0.55582 0.0
C1188 C 0.04398 0.95287 0.57449 0.0
C1189 C 0.04777 0.97158 0.58334 0.0
C1190 C 0.04787 0.98835 0.5741 0.0
C1191 C 0.04404 0.93453 0.58457 0.0
C1192 C 0.03619 0.93157 0.60109 0.0
C1193 C 0.05146 0.91952 0.57799 0.0
C1194 C 0.06154 0.92148 0.56174 0.0
C1195 C 0.07655 0.9375 0.56044 0.0
C1196 C 0.08599 0.93931 0.54506 0.0
C1197 C 0.08064 0.92512 0.53095 0.0
C1198 C 0.06587 0.90905 0.53221 0.0
C1199 C 0.05636 0.90718 0.54755 0.0
H1200 H 0.08797 0.92654 0.51906 0.0
H1201 H 1.00023 0.90818 0.67042 0.0
H1202 H 0.47556 0.76084 0.87995 0.0
H1203 H 0.44577 0.76197 0.86686 0.0
H1204 H 0.47193 0.79412 0.82505 0.0
H1205 H 0.50181 0.793 0.83821 0.0
H1206 H 0.4453 0.80894 0.83245 0.0
H1207 H 0.44396 0.74294 0.82045 0.0
H1208 H 0.4458 0.71061 0.82724 0.0
H1209 H 0.40224 0.70562 0.86158 0.0
H1210 H 0.4003 0.73805 0.85519 0.0
H1211 H 0.36185 0.8021 0.77873 0.0
H1212 H 0.3916 0.80043 0.79122 0.0
H1213 H 0.36539 0.76381 0.8303 0.0
H1214 H 0.33552 0.76501 0.81739 0.0
H1215 H 0.39223 0.75126 0.82431 0.0
H1216 H 0.39376 0.81709 0.8373 0.0
H1217 H 0.39171 0.84952 0.83109 0.0
H1218 H 0.43463 0.85509 0.79591 0.0
H1219 H 0.4368 0.8226 0.80175 0.0
C1220 C 0.47514 0.76808 0.86788 0.0
C1221 C 0.49172 0.77666 0.86034 0.0
C1222 C 0.45775 0.76866 0.86018 0.0
C1223 C 0.45572 0.77794 0.84444 0.0
C1224 C 0.47235 0.78673 0.83703 0.0
C1225 C 0.48976 0.786 0.84465 0.0
C1226 C 0.43667 0.77867 0.83598 0.0
C1227 C 0.43389 0.79613 0.83052 0.0
C1228 C 0.4209 0.76242 0.8335 0.0
C1229 C 0.42213 0.74301 0.83749 0.0
C1230 C 0.43488 0.73502 0.82957 0.0
C1231 C 0.43592 0.71666 0.83333 0.0
C1232 C 0.42418 0.70609 0.84488 0.0
C1233 C 0.41135 0.71384 0.85267 0.0
C1234 C 0.41027 0.73221 0.84898 0.0
C1235 C 0.36222 0.79369 0.79004 0.0
C1236 C 0.3456 0.78386 0.79685 0.0
C1237 C 0.37964 0.79285 0.79746 0.0
C1238 C 0.3817 0.78231 0.81238 0.0
C1239 C 0.36502 0.77224 0.81901 0.0
C1240 C 0.34758 0.77301 0.81152 0.0
C1241 C 0.4008 0.78157 0.82079 0.0
C1242 C 0.40361 0.7641 0.82624 0.0
C1243 C 0.41658 0.79785 0.82339 0.0
C1244 C 0.4153 0.81734 0.81981 0.0
C1245 C 0.40268 0.82519 0.82814 0.0
C1246 C 0.4015 0.84358 0.8247 0.0
C1247 C 0.41299 0.85433 0.81307 0.0
C1248 C 0.42572 0.84673 0.80489 0.0
C1249 C 0.42693 0.82833 0.80827 0.0
H1250 H 0.41207 0.86858 0.81043 0.0
H1251 H 0.425 0.69188 0.84775 0.0
H1252 H 0.53761 0.2206 0.15176 0.0
H1253 H 0.5388 0.1905 0.13577 0.0
H1254 H 0.53314 0.2148 0.0859 0.0
H1255 H 0.53199 0.24501 0.10194 0.0
H1256 H 0.51345 0.17816 0.08172 0.0
H1257 H 0.57519 0.20707 0.10466 0.0
H1258 H 0.60016 0.22154 0.12765 0.0
H1259 H 0.58648 0.16988 0.15505 0.0
H1260 H 0.56129 0.15518 0.13232 0.0
H1261 H 0.53485 0.10349 0.027 0.0
H1262 H 0.53376 0.1335 0.04297 0.0
H1263 H 0.54547 0.11151 0.09263 0.0
H1264 H 0.54714 0.0816 0.07654 0.0
H1265 H 0.56196 0.14708 0.09714 0.0
H1266 H 0.50019 0.11809 0.07518 0.0
H1267 H 0.47464 0.10325 0.05288 0.0
H1268 H 0.48736 0.15436 0.02464 0.0
H1269 H 0.51314 0.16942 0.04667 0.0
C1270 C 0.5366 0.21968 0.13737 0.0
C1271 C 0.5347 0.23576 0.12842 0.0
C1272 C 0.53742 0.20223 0.12808 0.0
C1273 C 0.53632 0.19976 0.10925 0.0
C1274 C 0.53409 0.21573 0.10029 0.0
C1275 C 0.53346 0.23328 0.1096 0.0
C1276 C 0.53743 0.18082 0.09906 0.0
C1277 C 0.52429 0.17165 0.08505 0.0
C1278 C 0.5511 0.17133 0.10322 0.0
C1279 C 0.56624 0.1801 0.11688 0.0
C1280 C 0.57742 0.19885 0.11566 0.0
C1281 C 0.59163 0.20709 0.12863 0.0
C1282 C 0.59487 0.19666 0.14283 0.0
C1283 C 0.58394 0.17795 0.14406 0.0
C1284 C 0.5697 0.16966 0.13113 0.0
C1285 C 0.53716 0.10484 0.04134 0.0
C1286 C 0.54103 0.08951 0.05017 0.0
C1287 C 0.53637 0.12228 0.05068 0.0
C1288 C 0.53911 0.1254 0.06947 0.0
C1289 C 0.54318 0.11013 0.07829 0.0
C1290 C 0.54409 0.0927 0.06893 0.0
C1291 C 0.53795 0.14434 0.07974 0.0
C1292 C 0.55109 0.15354 0.09378 0.0
C1293 C 0.52418 0.15378 0.07572 0.0
C1294 C 0.50871 0.1448 0.06247 0.0
C1295 C 0.49761 0.12611 0.06415 0.0
C1296 C 0.48308 0.11767 0.05157 0.0
C1297 C 0.47941 0.12784 0.03732 0.0
C1298 C 0.49024 0.14649 0.03566 0.0
C1299 C 0.5048 0.155 0.0482 0.0
H1300 H 0.46815 0.12128 0.0276 0.0
H1301 H 0.60588 0.20305 0.15287 0.0
H1302 H 0.11491 0.29192 0.38732 0.0
H1303 H 0.14351 0.29266 0.374 0.0
H1304 H 0.11455 0.27823 0.32233 0.0
H1305 H 0.08577 0.27661 0.3359 0.0
H1306 H 0.13917 0.26322 0.31834 0.0
H1307 H 0.14887 0.32773 0.34271 0.0
H1308 H 0.15076 0.35411 0.36558 0.0
H1309 H 0.19155 0.33672 0.39653 0.0
H1310 H 0.18976 0.31011 0.37392 0.0
H1311 H 0.24383 0.31939 0.3004 0.0
H1312 H 0.21499 0.31879 0.31355 0.0
H1313 H 0.19985 0.2569 0.30867 0.0
H1314 H 0.22811 0.25756 0.2949 0.0
H1315 H 0.19699 0.3115 0.33963 0.0
H1316 H 0.1551 0.23491 0.31255 0.0
H1317 H 0.15221 0.21243 0.28601 0.0
H1318 H 0.17406 0.25983 0.25485 0.0
H1319 H 0.17689 0.2826 0.28115 0.0
C1320 C 0.11444 0.28894 0.37307 0.0
C1321 C 0.09732 0.2843 0.36302 0.0
C1322 C 0.13125 0.28958 0.3652 0.0
C1323 C 0.13232 0.28603 0.34658 0.0
C1324 C 0.11509 0.28119 0.33658 0.0
C1325 C 0.09823 0.28033 0.34449 0.0
C1326 C 0.15085 0.28703 0.33773 0.0
C1327 C 0.15168 0.27384 0.32329 0.0
C1328 C 0.16796 0.30093 0.34309 0.0
C1329 C 0.16903 0.31682 0.35673 0.0
C1330 C 0.15815 0.32947 0.35445 0.0
C1331 C 0.15922 0.34447 0.36736 0.0
C1332 C 0.17123 0.34705 0.38252 0.0
C1333 C 0.18223 0.33467 0.38479 0.0
C1334 C 0.1812 0.31964 0.37194 0.0
C1335 C 0.23435 0.30555 0.30187 0.0
C1336 C 0.23893 0.28854 0.29599 0.0
C1337 C 0.2175 0.30517 0.30966 0.0
C1338 C 0.204 0.28777 0.31218 0.0
C1339 C 0.20889 0.27081 0.30666 0.0
C1340 C 0.22559 0.27119 0.29873 0.0
C1341 C 0.18536 0.28737 0.32058 0.0
C1342 C 0.1845 0.30074 0.33484 0.0
C1343 C 0.16812 0.27398 0.31473 0.0
C1344 C 0.16639 0.26042 0.29886 0.0
C1345 C 0.15924 0.24053 0.30002 0.0
C1346 C 0.15762 0.22774 0.28502 0.0
C1347 C 0.16301 0.23469 0.26877 0.0
C1348 C 0.16996 0.25446 0.26746 0.0
C1349 C 0.17158 0.26731 0.28241 0.0
H1350 H 0.16176 0.22477 0.25718 0.0
H1351 H 0.17203 0.35867 0.3925 0.0
H1352 H 0.96411 0.07123 0.20469 0.0
H1353 H 0.98289 0.07543 0.17918 0.0
H1354 H 0.93587 0.04549 0.14433 0.0
H1355 H 0.91696 0.04159 0.16953 0.0
H1356 H 0.97232 0.03085 0.15055 0.0
H1357 H 0.94551 0.08236 0.13374 0.0
H1358 H 0.93902 0.11356 0.13986 0.0
H1359 H 0.99627 0.14143 0.14928 0.0
H1360 H 1.00308 0.11029 0.14347 0.0
H1361 H 0.9964 0.0208 0.0644 0.0
H1362 H 0.98083 0.02734 0.0902 0.0
H1363 H 0.02561 0.07725 0.10677 0.0
H1364 H 0.04109 0.07119 0.08049 0.0
H1365 H 0.99383 0.08461 0.11232 0.0
H1366 H 0.02189 0.03589 0.12649 0.0
H1367 H 0.03046 0.00558 0.12208 0.0
H1368 H 0.97422 0.97335 0.12058 0.0
H1369 H 0.96528 1.00349 0.1247 0.0
C1370 C 0.9577 0.06603 0.19151 0.0
C1371 C 0.93913 0.05597 0.18907 0.0
C1372 C 0.96842 0.06847 0.17701 0.0
C1373 C 0.96066 0.06079 0.16 0.0
C1374 C 0.94198 0.05162 0.15741 0.0
C1375 C 0.93123 0.04941 0.17181 0.0
C1376 C 0.97232 0.05975 0.1454 0.0
C1377 C 0.97694 0.04251 0.14206 0.0
C1378 C 0.97888 0.07531 0.13498 0.0
C1379 C 0.97478 0.09397 0.13843 0.0
C1380 C 0.9567 0.0951 0.13734 0.0
C1381 C 0.95296 0.11278 0.14069 0.0
C1382 C 0.96722 0.12946 0.14503 0.0
C1383 C 0.98524 0.12849 0.14596 0.0
C1384 C 0.98904 0.11084 0.14263 0.0
C1385 C 1.00292 0.03326 0.07341 0.0
C1386 C 0.02003 0.04541 0.07043 0.0
C1387 C 0.99403 0.03693 0.08822 0.0
C1388 C 1.00224 0.05257 0.10057 0.0
C1389 C 0.01909 0.06507 0.09742 0.0
C1390 C 0.02793 0.06153 0.08244 0.0
C1391 C 0.99331 0.05536 0.11696 0.0
C1392 C 0.98935 0.07294 0.12081 0.0
C1393 C 0.9876 0.04019 0.12813 0.0
C1394 C 0.99291 0.02198 0.12578 0.0
C1395 C 0.01134 0.02235 0.1251 0.0
C1396 C 0.01626 0.00519 0.12266 0.0
C1397 C 1.00289 0.98755 0.12102 0.0
C1398 C 0.98456 0.98703 0.12184 0.0
C1399 C 0.97956 1.00415 0.12425 0.0
H1400 H 1.00673 0.97429 0.11913 0.0
H1401 H 0.9643 0.14314 0.14761 0.0
H1402 H 0.29681 0.65085 0.49413 0.0
H1403 H 0.29181 0.67005 0.46994 0.0
H1404 H 0.29475 0.71809 0.5077 0.0
H1405 H 0.29938 0.69868 0.53215 0.0
H1406 H 0.26684 0.71332 0.48332 0.0
H1407 H 0.33006 0.71796 0.48198 0.0
H1408 H 0.35751 0.70638 0.48151 0.0
H1409 H 0.33696 0.6738 0.43175 0.0
H1410 H 0.30925 0.68496 0.43205 0.0
H1411 H 0.27435 0.77793 0.41334 0.0
H1412 H 0.27922 0.76221 0.44023 0.0
H1413 H 0.27288 0.7089 0.40863 0.0
H1414 H 0.26758 0.72434 0.38176 0.0
H1415 H 0.30414 0.7193 0.43131 0.0
H1416 H 0.24007 0.71374 0.43392 0.0
H1417 H 0.21301 0.72599 0.43458 0.0
H1418 H 0.23612 0.76158 0.48224 0.0
H1419 H 0.26345 0.74973 0.48173 0.0
C1420 C 0.29651 0.66554 0.49731 0.0
C1421 C 0.29858 0.67331 0.51503 0.0
C1422 C 0.29372 0.67653 0.48345 0.0
C1423 C 0.29318 0.6956 0.48699 0.0
C1424 C 0.29519 0.70342 0.50468 0.0
C1425 C 0.2979 0.69236 0.51861 0.0
C1426 C 0.29008 0.70708 0.47212 0.0
C1427 C 0.2752 0.71494 0.47209 0.0
C1428 C 0.30083 0.70894 0.45735 0.0
C1429 C 0.3175 0.70219 0.45712 0.0
C1430 C 0.33132 0.70821 0.47101 0.0
C1431 C 0.34694 0.70174 0.47076 0.0
C1432 C 0.34896 0.68933 0.45663 0.0
C1433 C 0.33537 0.6834 0.4427 0.0
C1434 C 0.31971 0.68981 0.44289 0.0
C1435 C 0.27361 0.76276 0.41214 0.0
C1436 C 0.27067 0.75241 0.39538 0.0
C1437 C 0.27648 0.75383 0.42751 0.0
C1438 C 0.27643 0.73442 0.42638 0.0
C1439 C 0.27308 0.72394 0.40975 0.0
C1440 C 0.27013 0.73281 0.39441 0.0
C1441 C 0.28072 0.72516 0.44238 0.0
C1442 C 0.29589 0.71779 0.44262 0.0
C1443 C 0.27032 0.72389 0.45735 0.0
C1444 C 0.2539 0.73101 0.45767 0.0
C1445 C 0.23946 0.72431 0.44445 0.0
C1446 C 0.22406 0.73115 0.44482 0.0
C1447 C 0.22287 0.7446 0.45841 0.0
C1448 C 0.23707 0.75119 0.4717 0.0
C1449 C 0.25251 0.74441 0.47139 0.0
H1450 H 0.21093 0.74987 0.45868 0.0
H1451 H 0.36107 0.68434 0.45646 0.0
H1452 H 0.61282 0.98113 0.71303 0.0
H1453 H 0.59141 0.97505 0.68643 0.0
H1454 H 0.6169 0.03188 0.67097 0.0
H1455 H 0.63834 0.03798 0.6972 0.0
H1456 H 0.57744 0.02201 0.6748 0.0
H1457 H 0.62497 0.99736 0.6489 0.0
H1458 H 0.64387 0.97474 0.64676 0.0
H1459 H 0.59569 0.92713 0.63887 0.0
H1460 H 0.5765 0.9495 0.6412 0.0
H1461 H 0.57439 0.04807 0.59006 0.0
H1462 H 0.58104 0.03758 0.61902 0.0
H1463 H 0.54076 0.98313 0.60598 0.0
H1464 H 0.53377 0.99377 0.57666 0.0
H1465 H 0.57709 0.98145 0.61945 0.0
H1466 H 0.53018 0.00776 0.63683 0.0
H1467 H 0.51173 0.03085 0.63788 0.0
H1468 H 0.55794 0.07502 0.66177 0.0
H1469 H 0.57677 0.05231 0.66061 0.0
C1470 C 0.61405 0.99216 0.70375 0.0
C1471 C 0.62714 0.01008 0.7072 0.0
C1472 C 0.60181 0.98867 0.68864 0.0
C1473 C 0.60253 1.00312 0.67697 0.0
C1474 C 0.61611 0.02064 0.67998 0.0
C1475 C 0.62839 0.02406 0.69491 0.0
C1476 C 0.58862 1.00085 0.6621 0.0
C1477 C 0.57718 0.01302 0.66273 0.0
C1478 C 0.58776 0.98843 0.64676 0.0
C1479 C 0.59932 0.97505 0.64552 0.0
C1480 C 0.61841 0.98205 0.64693 0.0
C1481 C 0.62918 0.96929 0.64562 0.0
C1482 C 0.62099 0.9495 0.64276 0.0
C1483 C 0.60201 0.94245 0.64114 0.0
C1484 C 0.59119 0.95516 0.64246 0.0
C1485 C 0.5668 0.03393 0.59337 0.0
C1486 C 0.5536 0.0217 0.58116 0.0
C1487 C 0.57054 0.02799 0.60995 0.0
C1488 C 0.56128 0.00966 0.61462 0.0
C1489 C 0.54793 0.99738 0.60257 0.0
C1490 C 0.54393 1.00348 0.58595 0.0
C1491 C 0.56676 1.00352 0.63182 0.0
C1492 C 0.57665 0.9898 0.63175 0.0
C1493 C 0.56616 0.01448 0.64775 0.0
C1494 C 0.5549 0.02828 0.64863 0.0
C1495 C 0.53645 0.02242 0.64222 0.0
C1496 C 0.52591 0.03545 0.64285 0.0
C1497 C 0.53365 0.05439 0.64989 0.0
C1498 C 0.55195 0.06033 0.65635 0.0
C1499 C 0.56255 0.04737 0.65575 0.0
H1500 H 0.52548 0.06445 0.65036 0.0
H1501 H 0.62934 0.93964 0.64173 0.0
H1502 H 0.28959 0.32038 0.98264 0.0
H1503 H 0.28997 0.30811 0.9517 0.0
H1504 H 0.28458 0.36186 0.93373 0.0
H1505 H 0.28365 0.37385 0.96441 0.0
H1506 H 0.2642 0.33492 0.91238 0.0
H1507 H 0.32648 0.34853 0.93604 0.0
H1508 H 0.35155 0.34601 0.95695 0.0
H1509 H 0.33809 0.28513 0.94331 0.0
H1510 H 0.31279 0.28726 0.92247 0.0
H1511 H 0.31961 0.31226 0.83269 0.0
H1512 H 0.31848 0.32253 0.86401 0.0
H1513 H 0.26157 0.29136 0.86149 0.0
H1514 H 0.26243 0.282 0.8301 0.0
H1515 H 0.3132 0.30715 0.89316 0.0
H1516 H 0.23837 0.30917 0.89037 0.0
H1517 H 0.21489 0.31438 0.86899 0.0
H1518 H 0.25647 0.34971 0.84023 0.0
H1519 H 0.2802 0.34472 0.86146 0.0
C1520 C 0.28841 0.32954 0.97208 0.0
C1521 C 0.28659 0.34812 0.9761 0.0
C1522 C 0.28875 0.32255 0.95433 0.0
C1523 C 0.28754 0.33408 0.94016 0.0
C1524 C 0.28551 0.35255 0.94424 0.0
C1525 C 0.28503 0.35945 0.96189 0.0
C1526 C 0.28836 0.32713 0.9211 0.0
C1527 C 0.27493 0.32881 0.90826 0.0
C1528 C 0.3024 0.31932 0.91539 0.0
C1529 C 0.31764 0.31802 0.92784 0.0
C1530 C 0.3288 0.33459 0.93759 0.0
C1531 C 0.34306 0.33323 0.94941 0.0
C1532 C 0.34638 0.31541 0.95149 0.0
C1533 C 0.33548 0.29892 0.94171 0.0
C1534 C 0.32119 0.30019 0.92988 0.0
C1535 C 0.30684 0.30766 0.8388 0.0
C1536 C 0.29107 0.2965 0.8287 0.0
C1537 C 0.3062 0.31351 0.8568 0.0
C1538 C 0.28983 0.30817 0.86529 0.0
C1539 C 0.27426 0.29636 0.85534 0.0
C1540 C 0.2748 0.29088 0.83729 0.0
C1541 C 0.28905 0.31496 0.88442 0.0
C1542 C 0.30245 0.31321 0.89729 0.0
C1543 C 0.27517 0.32309 0.89012 0.0
C1544 C 0.26104 0.32645 0.87742 0.0
C1545 C 0.24249 0.31812 0.87952 0.0
C1546 C 0.22914 0.32101 0.86743 0.0
C1547 C 0.23418 0.33237 0.85327 0.0
C1548 C 0.25259 0.34088 0.85119 0.0
C1549 C 0.26599 0.33799 0.86322 0.0
H1550 H 0.22382 0.33459 0.84392 0.0
H1551 H 0.35742 0.31439 0.96065 0.0
H1552 H 0.96286 0.04006 0.27307 0.0
H1553 H 0.9775 0.03347 0.3007 0.0
H1554 H 0.92536 1.00051 0.31591 0.0
H1555 H 0.91061 0.00743 0.28853 0.0
H1556 H 0.94349 0.02338 0.34301 0.0
H1557 H 0.95672 0.9784 0.30083 0.0
H1558 H 0.96773 0.96736 0.27322 0.0
H1559 H 0.02166 1.00334 0.28878 0.0
H1560 H 0.01091 0.01482 0.31639 0.0
H1561 H 0.9806 0.98529 0.41583 0.0
H1562 H 0.96487 0.98695 0.38708 0.0
H1563 H 0.01476 0.02291 0.36988 0.0
H1564 H 0.03058 0.02109 0.3985 0.0
H1565 H 0.99664 0.99647 0.34374 0.0
H1566 H 0.98169 0.04198 0.3861 0.0
H1567 H 0.9696 0.0511 0.4139 0.0
H1568 H 0.91746 0.01161 0.3978 0.0
H1569 H 0.92926 1.00202 0.37004 0.0
C1570 C 0.95454 0.03139 0.28231 0.0
C1571 C 0.93561 0.02424 0.27868 0.0
C1572 C 0.96293 0.02755 0.29803 0.0
C1573 C 0.95255 0.01629 0.31026 0.0
C1574 C 0.93363 0.00921 0.30666 0.0
C1575 C 0.92522 0.01315 0.29101 0.0
C1576 C 0.96137 0.0123 0.32701 0.0
C1577 C 0.95495 0.01723 0.34315 0.0
C1578 C 0.97643 1.00448 0.3272 0.0
C1579 C 0.98296 0.99761 0.3106 0.0
C1580 C 0.9709 0.98409 0.2983 0.0
C1581 C 0.9771 0.97772 0.28266 0.0
C1582 C 0.99537 0.98468 0.27922 0.0
C1583 C 1.0075 0.99798 0.29145 0.0
C1584 C 1.00136 1.00441 0.3071 0.0
C1585 C 0.98819 0.99349 0.40587 0.0
C1586 C 1.00676 1.00316 0.40939 0.0
C1587 C 0.97921 0.99443 0.38949 0.0
C1588 C 0.9886 0.0053 0.37648 0.0
C1589 C 1.00728 0.01445 0.37976 0.0
C1590 C 0.0163 0.01338 0.39608 0.0
C1591 C 0.97888 0.00775 0.35967 0.0
C1592 C 0.98514 1.00254 0.34354 0.0
C1593 C 0.96353 0.01512 0.35948 0.0
C1594 C 0.95641 0.02116 0.37606 0.0
C1595 C 0.96768 0.03516 0.38853 0.0
C1596 C 0.96088 0.04043 0.40427 0.0
C1597 C 0.94281 0.03192 0.40761 0.0
C1598 C 0.93147 0.01817 0.3952 0.0
C1599 C 0.93819 0.01282 0.37946 0.0
H1600 H 0.9376 0.03602 0.41981 0.0
H1601 H 1.00015 0.97973 0.26711 0.0
H1602 H 0.29181 0.64575 0.61718 0.0
H1603 H 0.29528 0.66452 0.64564 0.0
H1604 H 0.34446 0.70354 0.63022 0.0
H1605 H 0.34063 0.68514 0.60131 0.0
H1606 H 0.31844 0.67528 0.67337 0.0
H1607 H 0.34628 0.7489 0.64568 0.0
H1608 H 0.34687 0.76396 0.61718 0.0
H1609 H 0.29652 0.72263 0.59827 0.0
H1610 H 0.29554 0.7075 0.62671 0.0
H1611 H 0.32561 0.74467 0.74671 0.0
H1612 H 0.33309 0.7262 0.72142 0.0
H1613 H 0.29316 0.74245 0.68756 0.0
H1614 H 0.28687 0.76209 0.71245 0.0
H1615 H 0.31958 0.74376 0.66998 0.0
H1616 H 0.28773 0.69625 0.70859 0.0
H1617 H 0.2834 0.67977 0.73631 0.0
H1618 H 0.3344 0.66626 0.73239 0.0
H1619 H 0.33918 0.68294 0.70485 0.0
C1620 C 0.3035 0.6582 0.61992 0.0
C1621 C 0.31581 0.66417 0.60695 0.0
C1622 C 0.30552 0.66887 0.63624 0.0
C1623 C 0.31997 0.68562 0.63997 0.0
C1624 C 0.333 0.69087 0.62749 0.0
C1625 C 0.33084 0.68034 0.61101 0.0
C1626 C 0.32028 0.6983 0.6562 0.0
C1627 C 0.3188 0.6903 0.6727 0.0
C1628 C 0.32063 0.71785 0.6553 0.0
C1629 C 0.32098 0.72694 0.63821 0.0
C1630 C 0.33533 0.74307 0.63544 0.0
C1631 C 0.33573 0.75161 0.6193 0.0
C1632 C 0.32178 0.74421 0.6059 0.0
C1633 C 0.30735 0.7283 0.60863 0.0
C1634 C 0.30687 0.71973 0.62475 0.0
C1635 C 0.31857 0.74431 0.73379 0.0
C1636 C 0.30568 0.75471 0.73142 0.0
C1637 C 0.32273 0.73366 0.71938 0.0
C1638 C 0.31346 0.73257 0.70257 0.0
C1639 C 0.30059 0.74307 0.70032 0.0
C1640 C 0.29693 0.75425 0.71454 0.0
C1641 C 0.31693 0.72059 0.6872 0.0
C1642 C 0.31938 0.7288 0.67082 0.0
C1643 C 0.31685 0.70106 0.68817 0.0
C1644 C 0.31393 0.69109 0.70479 0.0
C1645 C 0.29809 0.68991 0.71373 0.0
C1646 C 0.29555 0.68051 0.72941 0.0
C1647 C 0.30864 0.67203 0.73615 0.0
C1648 C 0.32429 0.67288 0.72721 0.0
C1649 C 0.32693 0.68232 0.71157 0.0
H1650 H 0.30664 0.66475 0.74826 0.0
H1651 H 0.32212 0.75083 0.59342 0.0
H1652 H 0.60173 0.04736 0.77355 0.0
H1653 H 0.57653 0.04754 0.79198 0.0
H1654 H 0.58493 0.9987 0.81765 0.0
H1655 H 0.61019 0.99841 0.79926 0.0
H1656 H 0.54695 0.99833 0.81121 0.0
H1657 H 0.60553 0.04006 0.83652 0.0
H1658 H 0.63365 0.06635 0.83534 0.0
H1659 H 0.6019 0.10578 0.8253 0.0
H1660 H 0.57357 0.0796 0.82616 0.0
H1661 H 0.527 1.00427 0.90041 0.0
H1662 H 0.53467 1.00029 0.86997 0.0
H1663 H 0.5317 0.05779 0.86141 0.0
H1664 H 0.52577 0.06255 0.89231 0.0
H1665 H 0.56268 0.05559 0.85455 0.0
H1666 H 0.50386 0.01524 0.83614 0.0
H1667 H 0.47569 0.98903 0.83725 0.0
H1668 H 0.5062 0.94734 0.83387 0.0
H1669 H 0.5346 0.97329 0.83301 0.0
C1670 C 0.59804 0.03648 0.78294 0.0
C1671 C 0.60807 0.02305 0.7852 0.0
C1672 C 0.5836 0.03655 0.79336 0.0
C1673 C 0.57898 0.02318 0.80616 0.0
C1674 C 0.58827 0.00905 0.80774 0.0
C1675 C 0.60279 0.00902 0.79737 0.0
C1676 C 0.56627 0.02552 0.81951 0.0
C1677 C 0.55025 0.01079 0.82075 0.0
C1678 C 0.57045 0.04209 0.83151 0.0
C1679 C 0.58746 0.05785 0.83118 0.0
C1680 C 0.60456 0.0543 0.83392 0.0
C1681 C 0.62053 0.06918 0.83333 0.0
C1682 C 0.61957 0.08771 0.83019 0.0
C1683 C 0.60262 0.09141 0.82769 0.0
C1684 C 0.58661 0.07656 0.82823 0.0
C1685 C 0.52777 0.01603 0.89202 0.0
C1686 C 0.52636 0.03395 0.89906 0.0
C1687 C 0.53181 0.01358 0.87442 0.0
C1688 C 0.53389 0.02879 0.86334 0.0
C1689 C 0.53032 0.04589 0.86974 0.0
C1690 C 0.52674 0.04853 0.88746 0.0
C1691 C 0.54314 0.02821 0.84666 0.0
C1692 C 0.55879 0.04329 0.84481 0.0
C1693 C 0.53847 0.01199 0.83411 0.0
C1694 C 0.52141 0.99627 0.83459 0.0
C1695 C 0.5046 1.0005 0.83576 0.0
C1696 C 0.48857 0.98568 0.83632 0.0
C1697 C 0.48916 0.96654 0.83565 0.0
C1698 C 0.50576 0.96217 0.83438 0.0
C1699 C 0.52183 0.97694 0.83382 0.0
H1700 H 0.47674 0.95509 0.83609 0.0
H1701 H 0.63195 0.09921 0.82973 0.0
H1702 H 0.30563 0.37582 0.09249 0.0
H1703 H 0.30378 0.36433 0.12221 0.0
H1704 H 0.26671 0.31048 0.10086 0.0
H1705 H 0.26837 0.32208 0.0709 0.0
H1706 H 0.25525 0.32278 0.13148 0.0
H1707 H 0.31157 0.3139 0.11378 0.0
H1708 H 0.34197 0.32315 0.10222 0.0
H1709 H 0.36093 0.36674 0.14533 0.0
H1710 H 0.33056 0.35793 0.15702 0.0
H1711 H 0.26256 0.278 0.21333 0.0
H1712 H 0.26202 0.28621 0.18233 0.0
H1713 H 0.3019 0.34041 0.19747 0.0
H1714 H 0.30278 0.33213 0.22825 0.0
H1715 H 0.31139 0.32542 0.16894 0.0
H1716 H 0.25479 0.33548 0.18587 0.0
H1717 H 0.22438 0.32649 0.19744 0.0
H1718 H 0.20597 0.28091 0.15598 0.0
H1719 H 0.23636 0.28949 0.1443 0.0
C1720 C 0.29712 0.36148 0.09403 0.0
C1721 C 0.28724 0.34986 0.07918 0.0
C1722 C 0.29612 0.35487 0.11112 0.0
C1723 C 0.28528 0.33638 0.11394 0.0
C1724 C 0.27523 0.32477 0.09915 0.0
C1725 C 0.27625 0.33139 0.08197 0.0
C1726 C 0.28448 0.32939 0.13232 0.0
C1727 C 0.26753 0.32307 0.13956 0.0
C1728 C 0.30044 0.33003 0.14316 0.0
C1729 C 0.31874 0.33535 0.13619 0.0
C1730 C 0.32218 0.32555 0.12072 0.0
C1731 C 0.33941 0.3307 0.11416 0.0
C1732 C 0.35336 0.34556 0.12301 0.0
C1733 C 0.35011 0.35526 0.13847 0.0
C1734 C 0.33289 0.35017 0.14508 0.0
C1735 C 0.27106 0.29177 0.21011 0.0
C1736 C 0.28268 0.30438 0.22344 0.0
C1737 C 0.27073 0.2965 0.1923 0.0
C1738 C 0.28184 0.31407 0.18735 0.0
C1739 C 0.29322 0.32675 0.20073 0.0
C1740 C 0.29364 0.322 0.21845 0.0
C1741 C 0.28218 0.31913 0.16829 0.0
C1742 C 0.29908 0.32505 0.16088 0.0
C1743 C 0.26617 0.31815 0.15735 0.0
C1744 C 0.2479 0.31299 0.16433 0.0
C1745 C 0.2443 0.32345 0.17931 0.0
C1746 C 0.22706 0.31845 0.18587 0.0
C1747 C 0.21327 0.3031 0.17748 0.0
C1748 C 0.21668 0.29277 0.16248 0.0
C1749 C 0.2339 0.2977 0.15588 0.0
H1750 H 0.19993 0.29925 0.18258 0.0
H1751 H 0.36669 0.34952 0.11791 0.0
H1752 H 0.26629 0.9787 0.00917 0.0
H1753 H 0.24917 0.99949 0.02201 0.0
H1754 H 0.20869 0.94951 0.03635 0.0
H1755 H 0.22544 0.92863 0.02286 0.0
H1756 H 0.19257 0.97383 0.02476 0.0
H1757 H 0.24261 0.97838 0.06711 0.0
H1758 H 0.27477 0.98378 0.0779 0.0
H1759 H 0.28686 0.04213 0.06355 0.0
H1760 H 0.25481 0.037 0.05244 0.0
H1761 H 0.14987 0.02002 0.08344 0.0
H1762 H 0.1736 1.00397 0.0783 0.0
H1763 H 0.20048 0.04967 0.04703 0.0
H1764 H 0.17658 0.06562 0.05173 0.0
H1765 H 0.22398 0.028 0.06888 0.0
H1766 H 0.1728 0.02021 0.02365 0.0
H1767 H 0.13975 0.01461 0.01687 0.0
H1768 H 0.12958 0.96046 0.04025 0.0
H1769 H 0.16252 0.96597 0.0475 0.0
C1770 C 0.25363 0.97217 0.01491 0.0
C1771 C 0.24718 0.95209 0.0151 0.0
C1772 C 0.24396 0.98405 0.02238 0.0
C1773 C 0.22789 0.97608 0.03054 0.0
C1774 C 0.22112 0.95598 0.03022 0.0
C1775 C 0.23066 0.94407 0.02249 0.0
C1776 C 0.2181 0.9887 0.03935 0.0
C1777 C 0.19948 0.9855 0.03452 0.0
C1778 C 0.22706 1.00407 0.05206 0.0
C1779 C 0.24634 0.00724 0.05879 0.0
C1780 C 0.25216 0.99232 0.06613 0.0
C1781 C 0.27036 0.99534 0.07233 0.0
C1782 C 0.28286 0.01327 0.07137 0.0
C1783 C 0.27717 0.02824 0.06426 0.0
C1784 C 0.25898 0.02529 0.05803 0.0
C1785 C 0.16115 0.02696 0.07594 0.0
C1786 C 0.16117 0.0438 0.06761 0.0
C1787 C 0.17475 0.01787 0.07317 0.0
C1788 C 0.18857 0.02558 0.06212 0.0
C1789 C 0.18991 0.0436 0.05565 0.0
C1790 C 0.17623 0.05267 0.05833 0.0
C1791 C 0.19873 0.01301 0.05416 0.0
C1792 C 0.21728 0.01626 0.0591 0.0
C1793 C 0.18972 0.9975 0.04175 0.0
C1794 C 0.17007 0.99356 0.03624 0.0
C1795 C 0.16349 0.00713 0.02736 0.0
C1796 C 0.14478 1.00399 0.02346 0.0
C1797 C 0.13255 0.98723 0.0282 0.0
C1798 C 0.13902 0.97347 0.03664 0.0
C1799 C 0.15772 0.97658 0.04063 0.0
H1800 H 0.11806 0.98495 0.02534 0.0
H1801 H 0.29695 0.01558 0.07617 0.0
H1802 H 0.74668 0.63055 0.01295 0.0
H1803 H 0.71633 0.60934 0.01643 0.0
H1804 H 0.69944 0.65785 0.03753 0.0
H1805 H 0.72973 0.6792 0.03388 0.0
H1806 H 0.68897 0.62447 0.05725 0.0
H1807 H 0.68589 0.642 0.99676 0.0
H1808 H 0.69621 0.64553 0.96653 0.0
H1809 H 0.6895 0.58468 0.95933 0.0
H1810 H 0.67938 0.58083 0.98963 0.0
H1811 H 0.5928 0.58178 0.05036 0.0
H1812 H 0.62425 0.60166 0.05074 0.0
H1813 H 0.63729 0.5576 0.01726 0.0
H1814 H 0.6056 0.53824 0.01605 0.0
H1815 H 0.65041 0.58898 0.00437 0.0
H1816 H 0.65322 0.57028 0.0639 0.0
H1817 H 0.64369 0.56574 0.09431 0.0
H1818 H 0.6519 0.62663 0.10397 0.0
H1819 H 0.66126 0.63151 0.07353 0.0
C1820 C 0.7365 0.63671 0.01831 0.0
C1821 C 0.74057 0.65657 0.02305 0.0
C1822 C 0.71917 0.62457 0.0203 0.0
C1823 C 0.7056 0.63202 0.0272 0.0
C1824 C 0.70971 0.65179 0.03221 0.0
C1825 C 0.72698 0.66399 0.03002 0.0
C1826 C 0.68701 0.61922 0.0288 0.0
C1827 C 0.68041 0.61683 0.0457 0.0
C1828 C 0.67608 0.60887 0.01378 0.0
C1829 C 0.68205 0.61116 0.99553 0.0
C1830 C 0.68676 0.62939 0.98879 0.0
C1831 C 0.69255 0.63145 0.97163 0.0
C1832 C 0.69356 0.61535 0.96104 0.0
C1833 C 0.68874 0.59715 0.96756 0.0
C1834 C 0.68296 0.59501 0.98472 0.0
C1835 C 0.60248 0.57617 0.04341 0.0
C1836 C 0.59673 0.55843 0.0332 0.0
C1837 C 0.62054 0.58755 0.04365 0.0
C1838 C 0.63337 0.58117 0.03413 0.0
C1839 C 0.62774 0.56299 0.02463 0.0
C1840 C 0.60962 0.55185 0.02404 0.0
C1841 C 0.65221 0.5939 0.03293 0.0
C1842 C 0.65889 0.59641 0.01603 0.0
C1843 C 0.6633 0.60411 0.04801 0.0
C1844 C 0.65778 0.60124 0.06637 0.0
C1845 C 0.65287 0.58269 0.07247 0.0
C1846 C 0.64752 0.58006 0.08972 0.0
C1847 C 0.64714 0.59588 0.10105 0.0
C1848 C 0.65218 0.61438 0.09517 0.0
C1849 C 0.65753 0.6171 0.07793 0.0
H1850 H 0.64298 0.59381 0.1144 0.0
H1851 H 0.69804 0.61697 0.94776 0.0
H1852 H 0.72136 0.51507 0.29808 0.0
H1853 H 0.73835 0.4946 0.28453 0.0
H1854 H 0.68803 0.45115 0.26858 0.0
H1855 H 0.67088 0.47154 0.28233 0.0
H1856 H 0.71343 0.4363 0.28412 0.0
H1857 H 0.71109 0.47866 0.23816 0.0
H1858 H 0.71492 0.51007 0.22567 0.0
H1859 H 0.77233 0.52527 0.24061 0.0
H1860 H 0.76881 0.49405 0.25342 0.0
H1861 H 0.75088 0.37742 0.23077 0.0
H1862 H 0.73387 0.40098 0.23633 0.0
H1863 H 0.78281 0.44183 0.26014 0.0
H1864 H 0.79987 0.41812 0.25514 0.0
H1865 H 0.75767 0.45799 0.23898 0.0
H1866 H 0.76014 0.41803 0.28702 0.0
H1867 H 0.75717 0.38749 0.30089 0.0
H1868 H 0.70028 0.36889 0.28345 0.0
H1869 H 0.70303 0.39916 0.2691 0.0
C1870 C 0.7139 0.50116 0.29168 0.0
C1871 C 0.6948 0.49486 0.29126 0.0
C1872 C 0.72362 0.48956 0.28383 0.0
C1873 C 0.71441 0.47151 0.27533 0.0
C1874 C 0.69535 0.4651 0.275 0.0
C1875 C 0.68559 0.47672 0.28287 0.0
C1876 C 0.72479 0.45901 0.26748 0.0
C1877 C 0.72282 0.4409 0.274 0.0
C1878 C 0.73747 0.46532 0.25468 0.0
C1879 C 0.73965 0.48406 0.24688 0.0
C1880 C 0.72451 0.48875 0.2389 0.0
C1881 C 0.72663 0.50651 0.23175 0.0
C1882 C 0.74385 0.51967 0.23238 0.0
C1883 C 0.759 0.51507 0.24014 0.0
C1884 C 0.75695 0.49733 0.24733 0.0
C1885 C 0.75809 0.39153 0.23693 0.0
C1886 C 0.77662 0.3958 0.24286 0.0
C1887 C 0.74839 0.40498 0.23999 0.0
C1888 C 0.75709 0.42296 0.24884 0.0
C1889 C 0.77592 0.42798 0.25327 0.0
C1890 C 0.78564 0.41444 0.25036 0.0
C1891 C 0.74612 0.43535 0.25555 0.0
C1892 C 0.74807 0.45339 0.24893 0.0
C1893 C 0.7335 0.4291 0.26838 0.0
C1894 C 0.73184 0.41075 0.27677 0.0
C1895 C 0.74705 0.40731 0.28592 0.0
C1896 C 0.74541 0.39007 0.29391 0.0
C1897 C 0.72857 0.37623 0.29301 0.0
C1898 C 0.71334 0.37959 0.28409 0.0
C1899 C 0.71493 0.39678 0.27601 0.0
H1900 H 0.72732 0.36296 0.29932 0.0
H1901 H 0.74546 0.53342 0.22684 0.0
H1902 H 0.83607 0.45349 0.53421 0.0
H1903 H 0.86755 0.47326 0.53587 0.0
H1904 H 0.86304 0.47863 0.47934 0.0
H1905 H 0.83152 0.45838 0.47754 0.0
H1906 H 0.89285 0.4693 0.48832 0.0
H1907 H 0.86613 0.51732 0.50942 0.0
H1908 H 0.8468 0.53202 0.52736 0.0
H1909 H 0.87784 0.52681 0.57503 0.0
H1910 H 0.89721 0.5118 0.5574 0.0
H1911 H 0.9815 0.53554 0.49476 0.0
H1912 H 0.9482 0.52495 0.49089 0.0
H1913 H 0.94642 0.50208 0.54233 0.0
H1914 H 0.97975 0.51232 0.54622 0.0
H1915 H 0.91957 0.52396 0.53335 0.0
H1916 H 0.94339 0.4719 0.51092 0.0
H1917 H 0.96283 0.4583 0.49209 0.0
H1918 H 0.93669 0.47314 0.44536 0.0
H1919 H 0.91729 0.48712 0.46397 0.0
C1920 C 0.84171 0.45904 0.52215 0.0
C1921 C 0.83138 0.45438 0.50574 0.0
C1922 C 0.85967 0.47046 0.52314 0.0
C1923 C 0.86758 0.47764 0.50776 0.0
C1924 C 0.85717 0.47329 0.49138 0.0
C1925 C 0.83919 0.46175 0.49037 0.0
C1926 C 0.8871 0.48846 0.50873 0.0
C1927 C 0.89859 0.48152 0.4979 0.0
C1928 C 0.89466 0.50427 0.52137 0.0
C1929 C 0.88305 0.51329 0.53208 0.0
C1930 C 0.86875 0.51916 0.52374 0.0
C1931 C 0.8578 0.52758 0.53385 0.0
C1932 C 0.86107 0.53031 0.55233 0.0
C1933 C 0.87532 0.52467 0.56072 0.0
C1934 C 0.88631 0.51623 0.55067 0.0
C1935 C 0.97401 0.52848 0.50535 0.0
C1936 C 0.98319 0.52461 0.52074 0.0
C1937 C 0.95503 0.52246 0.5031 0.0
C1938 C 0.94498 0.51274 0.51631 0.0
C1939 C 0.95403 0.50963 0.53203 0.0
C1940 C 0.97303 0.51535 0.53417 0.0
C1941 C 0.9251 0.50451 0.5132 0.0
C1942 C 0.91364 0.51194 0.52361 0.0
C1943 C 0.91752 0.48931 0.50003 0.0
C1944 C 0.92907 0.48077 0.48884 0.0
C1945 C 0.94192 0.47243 0.49665 0.0
C1946 C 0.9529 0.46462 0.48601 0.0
C1947 C 0.95104 0.46491 0.46754 0.0
C1948 C 0.93814 0.47296 0.45967 0.0
C1949 C 0.92715 0.48083 0.47025 0.0
H1950 H 0.95955 0.45885 0.45933 0.0
H1951 H 0.85257 0.53684 0.56013 0.0
H1952 H 0.42231 0.11494 0.29168 0.0
H1953 H 0.39886 0.13081 0.28428 0.0
H1954 H 0.36191 0.09311 0.31614 0.0
H1955 H 0.38528 0.07677 0.32325 0.0
H1956 H 0.34567 0.09439 0.28476 0.0
H1957 H 0.37968 0.14104 0.32943 0.0
H1958 H 0.40679 0.16325 0.34579 0.0
H1959 H 0.41769 0.19572 0.30003 0.0
H1960 H 0.39079 0.17354 0.28329 0.0
H1961 H 0.28513 0.15667 0.27707 0.0
H1962 H 0.30405 0.13644 0.28723 0.0
H1963 H 0.34323 0.15965 0.2499 0.0
H1964 H 0.32415 0.17941 0.2392 0.0
H1965 H 0.35616 0.16518 0.2874 0.0
H1966 H 0.32222 0.11589 0.24263 0.0
H1967 H 0.29426 0.09372 0.22764 0.0
H1968 H 0.28207 0.06662 0.27616 0.0
H1969 H 0.30985 0.08883 0.29151 0.0
C1970 C 0.4093 0.11023 0.29736 0.0
C1971 C 0.40558 0.09463 0.30802 0.0
C1972 C 0.39592 0.11936 0.29317 0.0
C1973 C 0.37869 0.11323 0.29978 0.0
C1974 C 0.37513 0.09804 0.31091 0.0
C1975 C 0.38849 0.0888 0.31503 0.0
C1976 C 0.36414 0.12194 0.29401 0.0
C1977 C 0.34782 0.10986 0.28566 0.0
C1978 C 0.36703 0.14212 0.29505 0.0
C1979 C 0.38327 0.15552 0.30505 0.0
C1980 C 0.38794 0.15283 0.3228 0.0
C1981 C 0.40326 0.16543 0.33216 0.0
C1982 C 0.41398 0.18087 0.32395 0.0
C1983 C 0.40938 0.18375 0.30637 0.0
C1984 C 0.39408 0.17118 0.29695 0.0
C1985 C 0.29743 0.15694 0.27056 0.0
C1986 C 0.3033 0.16981 0.25749 0.0
C1987 C 0.30825 0.14547 0.27646 0.0
C1988 C 0.32505 0.14681 0.26941 0.0
C1989 C 0.33034 0.15861 0.25555 0.0
C1990 C 0.31946 0.1699 0.24951 0.0
C1991 C 0.33807 0.13766 0.27777 0.0
C1992 C 0.35402 0.14971 0.2867 0.0
C1993 C 0.3347 0.1175 0.2775 0.0
C1994 C 0.31799 0.10418 0.26827 0.0
C1995 C 0.31348 0.10534 0.25015 0.0
C1996 C 0.29769 0.09274 0.24158 0.0
C1997 C 0.28636 0.07882 0.25095 0.0
C1998 C 0.29083 0.07744 0.26892 0.0
C1999 C 0.30661 0.09002 0.27756 0.0
H2000 H 0.27414 0.06906 0.24429 0.0
H2001 H 0.42583 0.19061 0.33122 0.0
H2002 H 0.35815 0.19397 0.53123 0.0
H2003 H 0.38186 0.17709 0.53386 0.0
H2004 H 0.34399 0.12521 0.50917 0.0
H2005 H 0.3202 0.14178 0.50721 0.0
H2006 H 0.36107 0.11617 0.53584 0.0
H2007 H 0.3806 0.15532 0.48748 0.0
H2008 H 0.38983 0.18559 0.47277 0.0
H2009 H 0.43473 0.20741 0.51207 0.0
H2010 H 0.42563 0.17735 0.52715 0.0
H2011 H 0.42165 0.06116 0.51544 0.0
H2012 H 0.40029 0.0807 0.5132 0.0
H2013 H 0.43963 0.12825 0.54273 0.0
H2014 H 0.4614 0.10897 0.54449 0.0
H2015 H 0.42289 0.14054 0.51513 0.0
H2016 H 0.40361 0.1004 0.56263 0.0
H2017 H 0.39431 0.06976 0.57674 0.0
H2018 H 0.3486 0.04942 0.53812 0.0
H2019 H 0.35777 0.07985 0.52363 0.0
C2020 C 0.35496 0.179 0.52627 0.0
C2021 C 0.3373 0.16922 0.51901 0.0
C2022 C 0.36855 0.16935 0.5277 0.0
C2023 C 0.36487 0.14983 0.52155 0.0
C2024 C 0.34726 0.1402 0.51409 0.0
C2025 C 0.33365 0.14973 0.51291 0.0
C2026 C 0.37902 0.13914 0.52334 0.0
C2027 C 0.37449 0.12144 0.53107 0.0
C2028 C 0.3968 0.14614 0.51763 0.0
C2029 C 0.40232 0.16417 0.50854 0.0
C2030 C 0.39237 0.16663 0.49306 0.0
C2031 C 0.39759 0.18374 0.48464 0.0
C2032 C 0.41283 0.19843 0.49151 0.0
C2033 C 0.42291 0.19603 0.50678 0.0
C2034 C 0.41774 0.17895 0.51526 0.0
C2035 C 0.4259 0.07584 0.52129 0.0
C2036 C 0.44331 0.08342 0.53019 0.0
C2037 C 0.41356 0.08696 0.52015 0.0
C2038 C 0.4182 0.1059 0.52801 0.0
C2039 C 0.43566 0.11366 0.53664 0.0
C2040 C 0.44805 0.10253 0.53777 0.0
C2041 C 0.40476 0.11749 0.52731 0.0
C2042 C 0.40945 0.13534 0.51988 0.0
C2043 C 0.38708 0.1106 0.53318 0.0
C2044 C 0.38147 0.09234 0.54196 0.0
C2045 C 0.39165 0.08934 0.55707 0.0
C2046 C 0.38639 0.07202 0.56515 0.0
C2047 C 0.3709 0.05764 0.5583 0.0
C2048 C 0.36061 0.06057 0.54339 0.0
C2049 C 0.36582 0.07785 0.53526 0.0
H2050 H 0.36685 0.04424 0.56457 0.0
H2051 H 0.41685 0.21167 0.48497 0.0
H2052 H 0.71899 0.58643 0.3168 0.0
H2053 H 0.73472 0.62046 0.32145 0.0
H2054 H 0.68671 0.63176 0.34173 0.0
H2055 H 0.67057 0.5974 0.33658 0.0
H2056 H 0.69892 0.65565 0.31817 0.0
H2057 H 0.72627 0.63883 0.36943 0.0
H2058 H 0.74088 0.62005 0.38861 0.0
H2059 H 0.78721 0.63149 0.35739 0.0
H2060 H 0.77279 0.65008 0.33783 0.0
H2061 H 0.75408 0.74977 0.31172 0.0
H2062 H 0.73824 0.72294 0.32825 0.0
H2063 H 0.77168 0.68872 0.30721 0.0
H2064 H 0.78813 0.71603 0.29138 0.0
H2065 H 0.76373 0.6808 0.34105 0.0
H2066 H 0.72913 0.68911 0.28562 0.0
H2067 H 0.71499 0.70977 0.26816 0.0
H2068 H 0.6819 0.71594 0.31091 0.0
H2069 H 0.69595 0.6954 0.32865 0.0
C2070 C 0.71181 0.59608 0.32247 0.0
C2071 C 0.69353 0.5893 0.32625 0.0
C2072 C 0.7209 0.61555 0.32532 0.0
C2073 C 0.71202 0.62865 0.33227 0.0
C2074 C 0.69386 0.62187 0.33649 0.0
C2075 C 0.68467 0.60229 0.33353 0.0
C2076 C 0.72131 0.64951 0.33311 0.0
C2077 C 0.71291 0.6613 0.32366 0.0
C2078 C 0.73953 0.65699 0.34038 0.0
C2079 C 0.7484 0.64586 0.35212 0.0
C2080 C 0.73953 0.63726 0.36658 0.0
C2081 C 0.74779 0.62665 0.37753 0.0
C2082 C 0.76496 0.62458 0.37422 0.0
C2083 C 0.77392 0.63313 0.35996 0.0
C2084 C 0.76572 0.64375 0.34895 0.0
C2085 C 0.75811 0.73654 0.31085 0.0
C2086 C 0.7719 0.73457 0.30007 0.0
C2087 C 0.74916 0.72132 0.32032 0.0
C2088 C 0.7535 0.70372 0.3186 0.0
C2089 C 0.76809 0.70218 0.30866 0.0
C2090 C 0.77737 0.71763 0.29953 0.0
C2091 C 0.74164 0.68626 0.32526 0.0
C2092 C 0.74955 0.67523 0.33614 0.0
C2093 C 0.72288 0.67958 0.31959 0.0
C2094 C 0.71363 0.69083 0.30847 0.0
C2095 C 0.71877 0.69481 0.29124 0.0
C2096 C 0.71082 0.70653 0.28132 0.0
C2097 C 0.69758 0.71419 0.28844 0.0
C2098 C 0.69215 0.70999 0.30542 0.0
C2099 C 0.70008 0.69829 0.3154 0.0
H2100 H 0.69154 0.72337 0.2808 0.0
H2101 H 0.77132 0.61635 0.38272 0.0
H2102 H 0.93021 0.50314 0.80119 0.0
H2103 H 0.91298 0.46928 0.79521 0.0
H2104 H 0.86939 0.47974 0.82444 0.0
H2105 H 0.8864 0.51368 0.83024 0.0
H2106 H 0.87897 0.44522 0.83175 0.0
H2107 H 0.86588 0.47977 0.78229 0.0
H2108 H 0.87357 0.50023 0.75739 0.0
H2109 H 0.89618 0.45845 0.73176 0.0
H2110 H 0.88929 0.43809 0.75684 0.0
H2111 H 0.80758 0.36321 0.80569 0.0
H2112 H 0.82569 0.3967 0.81076 0.0
H2113 H 0.86178 0.38668 0.77171 0.0
H2114 H 0.84307 0.3533 0.76596 0.0
H2115 H 0.85758 0.42077 0.76931 0.0
H2116 H 0.87141 0.38613 0.81765 0.0
H2117 H 0.86448 0.36505 0.84224 0.0
H2118 H 0.84214 0.40594 0.86967 0.0
H2119 H 0.84846 0.42706 0.84504 0.0
C2120 C 0.91707 0.49815 0.80656 0.0
C2121 C 0.90959 0.511 0.81615 0.0
C2122 C 0.90724 0.47886 0.80306 0.0
C2123 C 0.88989 0.47213 0.80925 0.0
C2124 C 0.88276 0.48473 0.81953 0.0
C2125 C 0.89247 0.50407 0.82282 0.0
C2126 C 0.87881 0.45213 0.80448 0.0
C2127 C 0.87414 0.43987 0.81813 0.0
C2128 C 0.87301 0.44513 0.78663 0.0
C2129 C 0.87732 0.45752 0.77161 0.0
C2130 C 0.87277 0.47508 0.7715 0.0
C2131 C 0.87699 0.48667 0.75734 0.0
C2132 C 0.88549 0.48072 0.74306 0.0
C2133 C 0.88974 0.46313 0.74289 0.0
C2134 C 0.88573 0.45159 0.75711 0.0
C2135 C 0.81926 0.36823 0.79805 0.0
C2136 C 0.82406 0.35568 0.78556 0.0
C2137 C 0.82967 0.38732 0.80103 0.0
C2138 C 0.84543 0.39406 0.79201 0.0
C2139 C 0.84977 0.38176 0.77893 0.0
C2140 C 0.83909 0.36272 0.77564 0.0
C2141 C 0.85758 0.41375 0.79661 0.0
C2142 C 0.86249 0.426 0.78294 0.0
C2143 C 0.86384 0.42067 0.81444 0.0
C2144 C 0.86028 0.40811 0.82941 0.0
C2145 C 0.86491 0.39058 0.82887 0.0
C2146 C 0.86111 0.37863 0.84282 0.0
C2147 C 0.8529 0.38416 0.85751 0.0
C2148 C 0.84849 0.40167 0.85828 0.0
C2149 C 0.85217 0.41363 0.84432 0.0
H2150 H 0.84998 0.37489 0.8683 0.0
H2151 H 0.88872 0.48968 0.73209 0.0
H2152 H 0.10057 0.86969 0.12592 0.0
H2153 H 0.09699 0.89853 0.1126 0.0
H2154 H 0.05978 0.86302 0.07107 0.0
H2155 H 0.06362 0.83411 0.08414 0.0
H2156 H 0.08102 0.89282 0.05743 0.0
H2157 H 0.04435 0.88417 0.10675 0.0
H2158 H 0.03733 0.87937 0.13786 0.0
H2159 H 0.07622 0.93331 0.15498 0.0
H2160 H 0.08365 0.93832 0.12398 0.0
H2161 H 0.03878 0.96343 0.02916 0.0
H2162 H 0.04497 0.93516 0.04126 0.0
H2163 H 0.08437 0.97173 0.08049 0.0
H2164 H 0.07804 1.00018 0.06863 0.0
H2165 H 0.06255 0.94162 0.09518 0.0
H2166 H 0.09644 0.95015 0.04305 0.0
H2167 H 0.10068 0.95329 0.01114 0.0
H2168 H 0.0631 0.89758 0.99834 0.0
H2169 H 0.05846 0.89414 0.03011 0.0
C2170 C 0.09178 0.86802 0.11384 0.0
C2171 C 0.08233 0.8496 0.10613 0.0
C2172 C 0.08965 0.88453 0.10629 0.0
C2173 C 0.07784 0.88301 0.09098 0.0
C2174 C 0.06891 0.86462 0.0829 0.0
C2175 C 0.07112 0.84809 0.0904 0.0
C2176 C 0.07446 0.90053 0.08366 0.0
C2177 C 0.07679 0.90339 0.06564 0.0
C2178 C 0.0691 0.91447 0.09439 0.0
C2179 C 0.0647 0.91152 0.11306 0.0
C2180 C 0.05152 0.89494 0.11717 0.0
C2181 C 0.04744 0.89219 0.13478 0.0
C2182 C 0.05636 0.906 0.14839 0.0
C2183 C 0.06934 0.92261 0.14442 0.0
C2184 C 0.07348 0.92542 0.12683 0.0
C2185 C 0.04881 0.96553 0.04034 0.0
C2186 C 0.05792 0.98416 0.04788 0.0
C2187 C 0.05239 0.9493 0.04721 0.0
C2188 C 0.06532 0.95127 0.06166 0.0
C2189 C 0.07436 0.96982 0.06931 0.0
C2190 C 0.07074 0.98609 0.06249 0.0
C2191 C 0.06919 0.93397 0.06895 0.0
C2192 C 0.06689 0.93113 0.08698 0.0
C2193 C 0.07419 0.91985 0.05812 0.0
C2194 C 0.07704 0.92194 0.03899 0.0
C2195 C 0.08902 0.9386 0.03343 0.0
C2196 C 0.0915 0.94044 0.01537 0.0
C2197 C 0.08215 0.92568 0.00274 0.0
C2198 C 0.07033 0.90902 0.00814 0.0
C2199 C 0.06779 0.9071 0.02617 0.0
H2200 H 0.0841 0.92715 0.98877 0.0
H2201 H 0.05317 0.90385 0.16201 0.0
H2202 H 0.94372 0.26328 0.92407 0.0
H2203 H 0.91626 0.26657 0.90757 0.0
H2204 H 0.94313 0.26807 0.85884 0.0
H2205 H 0.97049 0.26494 0.87519 0.0
H2206 H 0.92786 0.29726 0.8628 0.0
H2207 H 0.90969 0.22877 0.86864 0.0
H2208 H 0.90298 0.19939 0.88481 0.0
H2209 H 0.86193 0.21783 0.91159 0.0
H2210 H 0.86869 0.24756 0.8959 0.0
H2211 H 0.85801 0.28842 0.79626 0.0
H2212 H 0.88221 0.283 0.81588 0.0
H2213 H 0.84793 0.27858 0.85967 0.0
H2214 H 0.82332 0.28348 0.83989 0.0
H2215 H 0.86591 0.25223 0.86083 0.0
H2216 H 0.88304 0.31994 0.85555 0.0
H2217 H 0.8894 0.34992 0.84024 0.0
H2218 H 0.9318 0.33385 0.81373 0.0
H2219 H 0.92563 0.30369 0.82875 0.0
C2220 C 0.94367 0.26408 0.90981 0.0
C2221 C 0.95929 0.26388 0.90094 0.0
C2222 C 0.92796 0.26592 0.90039 0.0
C2223 C 0.9276 0.26754 0.88193 0.0
C2224 C 0.94308 0.26691 0.87306 0.0
C2225 C 0.95871 0.26505 0.88243 0.0
C2226 C 0.91157 0.27087 0.87185 0.0
C2227 C 0.91435 0.28728 0.86222 0.0
C2228 C 0.89378 0.25829 0.87165 0.0
C2229 C 0.88988 0.24053 0.88126 0.0
C2230 C 0.8994 0.22669 0.87815 0.0
C2231 C 0.89557 0.20995 0.88722 0.0
C2232 C 0.88211 0.20679 0.8993 0.0
C2233 C 0.87243 0.22035 0.90231 0.0
C2234 C 0.87626 0.23715 0.89334 0.0
C2235 C 0.85555 0.28631 0.81006 0.0
C2236 C 0.83873 0.28654 0.8165 0.0
C2237 C 0.86948 0.28328 0.82132 0.0
C2238 C 0.86709 0.28077 0.83939 0.0
C2239 C 0.85017 0.28058 0.84581 0.0
C2240 C 0.83612 0.28343 0.83448 0.0
C2241 C 0.88232 0.27837 0.85144 0.0
C2242 C 0.87939 0.26225 0.8615 0.0
C2243 C 0.89999 0.29133 0.85223 0.0
C2244 C 0.90377 0.30948 0.84318 0.0
C2245 C 0.89364 0.32274 0.84636 0.0
C2246 C 0.89722 0.33977 0.83775 0.0
C2247 C 0.91094 0.34376 0.82598 0.0
C2248 C 0.92116 0.33074 0.82283 0.0
C2249 C 0.91765 0.31369 0.83142 0.0
H2250 H 0.91368 0.35695 0.81932 0.0
H2251 H 0.87914 0.19381 0.90627 0.0
H2252 H 0.55641 0.25395 0.58665 0.0
H2253 H 0.5524 0.22122 0.57303 0.0
H2254 H 0.59678 0.21524 0.60793 0.0
H2255 H 0.60049 0.2476 0.62193 0.0
H2256 H 0.59581 0.20268 0.56834 0.0
H2257 H 0.56 0.19539 0.62028 0.0
H2258 H 0.53636 0.20238 0.6383 0.0
H2259 H 0.49635 0.18185 0.59424 0.0
H2260 H 0.51984 0.17501 0.57587 0.0
H2261 H 0.5873 0.10276 0.55757 0.0
H2262 H 0.59182 0.13634 0.56853 0.0
H2263 H 0.53535 0.13144 0.55325 0.0
H2264 H 0.5306 0.09753 0.54364 0.0
H2265 H 0.54212 0.15076 0.58176 0.0
H2266 H 0.57467 0.15661 0.52954 0.0
H2267 H 0.59678 0.1509 0.50887 0.0
H2268 H 0.64067 0.17544 0.54865 0.0
H2269 H 0.61879 0.18107 0.56965 0.0
C2270 C 0.56538 0.24569 0.5913 0.0
C2271 C 0.57872 0.25328 0.60537 0.0
C2272 C 0.56307 0.22702 0.58355 0.0
C2273 C 0.57431 0.21585 0.5895 0.0
C2274 C 0.58802 0.22366 0.60313 0.0
C2275 C 0.59006 0.2421 0.61114 0.0
C2276 C 0.57133 0.1957 0.5821 0.0
C2277 C 0.58417 0.19123 0.57133 0.0
C2278 C 0.55583 0.18097 0.58555 0.0
C2279 C 0.54171 0.18491 0.59666 0.0
C2280 C 0.5462 0.19254 0.61439 0.0
C2281 C 0.53282 0.19644 0.62467 0.0
C2282 C 0.51487 0.19262 0.6174 0.0
C2283 C 0.51026 0.18483 0.59985 0.0
C2284 C 0.5236 0.18094 0.5895 0.0
C2285 C 0.5759 0.10893 0.55657 0.0
C2286 C 0.55862 0.09758 0.54977 0.0
C2287 C 0.5785 0.1282 0.56269 0.0
C2288 C 0.56404 0.13677 0.56143 0.0
C2289 C 0.54678 0.12535 0.55447 0.0
C2290 C 0.54406 0.10594 0.54891 0.0
C2291 C 0.56666 0.15739 0.56781 0.0
C2292 C 0.55375 0.16205 0.5785 0.0
C2293 C 0.58186 0.17239 0.56382 0.0
C2294 C 0.59507 0.1691 0.55122 0.0
C2295 C 0.58903 0.16067 0.53392 0.0
C2296 C 0.60152 0.15747 0.52214 0.0
C2297 C 0.62012 0.16276 0.52746 0.0
C2298 C 0.62626 0.17133 0.54456 0.0
C2299 C 0.61382 0.17455 0.5564 0.0
H2300 H 0.62977 0.16027 0.51832 0.0
H2301 H 0.50454 0.19565 0.62539 0.0
H2302 H 0.58143 0.7858 0.4179 0.0
H2303 H 0.60681 0.78323 0.40052 0.0
H2304 H 0.56887 0.75473 0.35644 0.0
H2305 H 0.54341 0.75717 0.37379 0.0
H2306 H 0.59619 0.73716 0.36219 0.0
H2307 H 0.59123 0.80131 0.35582 0.0
H2308 H 0.58971 0.83366 0.36643 0.0
H2309 H 0.64255 0.84482 0.39415 0.0
H2310 H 0.64428 0.81241 0.38389 0.0
H2311 H 0.65658 0.75096 0.29249 0.0
H2312 H 0.63193 0.74965 0.31204 0.0
H2313 H 0.67104 0.78028 0.35447 0.0
H2314 H 0.69567 0.78209 0.33488 0.0
H2315 H 0.64354 0.79619 0.35045 0.0
H2316 H 0.64952 0.73289 0.35569 0.0
H2317 H 0.65137 0.70067 0.34513 0.0
H2318 H 0.5972 0.68766 0.31999 0.0
H2319 H 0.59514 0.71997 0.33011 0.0
C2320 C 0.57849 0.77899 0.4045 0.0
C2321 C 0.56042 0.77179 0.39717 0.0
C2322 C 0.59301 0.77755 0.39458 0.0
C2323 C 0.58975 0.76892 0.37712 0.0
C2324 C 0.57171 0.76144 0.36988 0.0
C2325 C 0.55718 0.76293 0.37978 0.0
C2326 C 0.60516 0.76806 0.3663 0.0
C2327 C 0.60645 0.75006 0.35943 0.0
C2328 C 0.61879 0.78487 0.36309 0.0
C2329 C 0.61779 0.80437 0.36924 0.0
C2330 C 0.60246 0.81061 0.3643 0.0
C2331 C 0.60157 0.82896 0.37022 0.0
C2332 C 0.616 0.84127 0.381 0.0
C2333 C 0.63137 0.83526 0.38582 0.0
C2334 C 0.63232 0.81691 0.37995 0.0
C2335 C 0.65993 0.75734 0.30601 0.0
C2336 C 0.67809 0.76668 0.3121 0.0
C2337 C 0.64584 0.75644 0.31722 0.0
C2338 C 0.64963 0.7648 0.33476 0.0
C2339 C 0.66779 0.77372 0.341 0.0
C2340 C 0.68187 0.77459 0.32982 0.0
C2341 C 0.63461 0.76528 0.34627 0.0
C2342 C 0.63337 0.78324 0.35325 0.0
C2343 C 0.62109 0.74842 0.3496 0.0
C2344 C 0.62225 0.72895 0.34352 0.0
C2345 C 0.63806 0.72323 0.34777 0.0
C2346 C 0.63914 0.70494 0.34188 0.0
C2347 C 0.62443 0.69214 0.33186 0.0
C2348 C 0.60859 0.6976 0.32773 0.0
C2349 C 0.60746 0.71591 0.33355 0.0
H2350 H 0.62528 0.67798 0.32732 0.0
H2351 H 0.61529 0.85547 0.38557 0.0
H2352 H 0.0368 0.23988 0.44351 0.0
H2353 H 0.0353 0.21112 0.45947 0.0
H2354 H 0.04566 0.1817 0.41169 0.0
H2355 H 0.04601 0.21021 0.39551 0.0
H2356 H 0.02701 0.15489 0.42592 0.0
H2357 H 0.07804 0.20184 0.45565 0.0
H2358 H 0.09517 0.23256 0.47192 0.0
H2359 H 0.05909 0.22156 0.51388 0.0
H2360 H 0.04162 0.19086 0.49777 0.0
H2361 H 0.04747 0.07699 0.47188 0.0
H2362 H 0.04824 0.10555 0.45582 0.0
H2363 H 0.02992 0.13159 0.50121 0.0
H2364 H 0.02956 0.10309 0.51748 0.0
H2365 H 0.05267 0.15975 0.4882 0.0
H2366 H 1.00271 0.11056 0.45668 0.0
H2367 H 0.98882 0.07922 0.43983 0.0
H2368 H 0.02712 0.09428 0.40018 0.0
H2369 H 0.04136 0.1256 0.41688 0.0
C2370 C 0.0388 0.22735 0.43627 0.0
C2371 C 0.04162 0.228 0.41791 0.0
C2372 C 0.03817 0.21059 0.44564 0.0
C2373 C 0.04088 0.19346 0.43743 0.0
C2374 C 0.04352 0.19412 0.41897 0.0
C2375 C 0.0438 0.21079 0.40952 0.0
C2376 C 0.0407 0.17512 0.44773 0.0
C2377 C 0.03292 0.15628 0.43947 0.0
C2378 C 0.04804 0.17573 0.46572 0.0
C2379 C 0.05841 0.19418 0.47541 0.0
C2380 C 0.0737 0.20604 0.4683 0.0
C2381 C 0.08347 0.22344 0.4775 0.0
C2382 C 0.07819 0.22904 0.4939 0.0
C2383 C 0.06314 0.21722 0.50116 0.0
C2384 C 0.05331 0.19982 0.492 0.0
C2385 C 0.04345 0.08865 0.47858 0.0
C2386 C 0.03829 0.08702 0.49629 0.0
C2387 C 0.04377 0.10529 0.46914 0.0
C2388 C 0.03878 0.12141 0.4767 0.0
C2389 C 0.03383 0.11986 0.4945 0.0
C2390 C 0.03353 0.1032 0.50397 0.0
C2391 C 0.03897 0.13967 0.4664 0.0
C2392 C 0.04674 0.15846 0.47466 0.0
C2393 C 0.03201 0.139 0.44829 0.0
C2394 C 0.02319 0.12035 0.43811 0.0
C2395 C 1.0082 0.10715 0.4444 0.0
C2396 C 1.00027 0.08939 0.43487 0.0
C2397 C 1.00713 0.08474 0.41898 0.0
C2398 C 0.02185 0.09789 0.41251 0.0
C2399 C 0.02983 0.11565 0.42198 0.0
H2400 H 1.00107 0.07097 0.41166 0.0
H2401 H 0.08577 0.24251 0.501 0.0
H2402 H 0.60651 0.30435 0.16368 0.0
H2403 H 0.63624 0.30355 0.17703 0.0
H2404 H 0.61097 0.28016 0.22323 0.0
H2405 H 0.5812 0.28145 0.20997 0.0
H2406 H 0.64191 0.30081 0.23605 0.0
H2407 H 0.62993 0.25391 0.18694 0.0
H2408 H 0.62222 0.24063 0.1558 0.0
H2409 H 0.66958 0.28151 0.13995 0.0
H2410 H 0.67744 0.29523 0.17099 0.0
H2411 H 0.72067 0.27198 0.27051 0.0
H2412 H 0.69089 0.27307 0.25734 0.0
H2413 H 0.71688 0.30324 0.21442 0.0
H2414 H 0.74675 0.30224 0.22764 0.0
H2415 H 0.68565 0.27888 0.20008 0.0
H2416 H 0.69782 0.32423 0.25105 0.0
H2417 H 0.70525 0.33481 0.28281 0.0
H2418 H 0.65636 0.29415 0.2958 0.0
H2419 H 0.64893 0.2828 0.26413 0.0
C2420 C 0.6071 0.29901 0.17672 0.0
C2421 C 0.59079 0.29297 0.18544 0.0
C2422 C 0.62445 0.29834 0.18445 0.0
C2423 C 0.62672 0.29136 0.20139 0.0
C2424 C 0.61041 0.28561 0.21025 0.0
C2425 C 0.59303 0.28632 0.20251 0.0
C2426 C 0.64571 0.2902 0.20976 0.0
C2427 C 0.6512 0.29571 0.22802 0.0
C2428 C 0.6588 0.28388 0.19993 0.0
C2429 C 0.65416 0.27574 0.18126 0.0
C2430 C 0.63863 0.26016 0.17679 0.0
C2431 C 0.63424 0.25254 0.15916 0.0
C2432 C 0.64538 0.26025 0.14589 0.0
C2433 C 0.66095 0.27558 0.15024 0.0
C2434 C 0.66538 0.28328 0.16785 0.0
C2435 C 0.72026 0.27894 0.25827 0.0
C2436 C 0.73681 0.28703 0.25047 0.0
C2437 C 0.70288 0.27966 0.25063 0.0
C2438 C 0.70081 0.28846 0.23461 0.0
C2439 C 0.71734 0.2963 0.22666 0.0
C2440 C 0.73476 0.29576 0.23441 0.0
C2441 C 0.6818 0.28952 0.2263 0.0
C2442 C 0.67634 0.28399 0.20806 0.0
C2443 C 0.66863 0.29554 0.23621 0.0
C2444 C 0.67292 0.30252 0.25522 0.0
C2445 C 0.68871 0.31743 0.26068 0.0
C2446 C 0.69292 0.32358 0.27868 0.0
C2447 C 0.68127 0.31522 0.29132 0.0
C2448 C 0.66538 0.30062 0.28599 0.0
C2449 C 0.66119 0.29428 0.26802 0.0
H2450 H 0.68455 0.32004 0.30525 0.0
H2451 H 0.64196 0.25433 0.13225 0.0
H2452 H 0.55447 0.85121 0.89433 0.0
H2453 H 0.55388 0.88183 0.90962 0.0
H2454 H 0.54228 0.85385 0.95796 0.0
H2455 H 0.54259 0.82306 0.94251 0.0
H2456 H 0.52324 0.87836 0.95735 0.0
H2457 H 0.58646 0.88777 0.94869 0.0
H2458 H 0.61331 0.88883 0.93182 0.0
H2459 H 0.60056 0.93138 0.9001 0.0
H2460 H 0.57349 0.93039 0.91665 0.0
H2461 H 0.53972 0.9654 0.01473 0.0
H2462 H 0.54054 0.93508 0.99917 0.0
H2463 H 0.55201 0.96362 0.95111 0.0
H2464 H 0.55148 0.99421 0.96681 0.0
H2465 H 0.57104 0.93893 0.95138 0.0
H2466 H 0.50798 0.9297 0.95996 0.0
H2467 H 0.48105 0.92871 0.97669 0.0
H2468 H 0.49334 0.88588 0.00832 0.0
H2469 H 0.52049 0.88679 0.99193 0.0
C2470 C 0.55189 0.85145 0.90826 0.0
C2471 C 0.54872 0.83418 0.91696 0.0
C2472 C 0.55165 0.86928 0.91719 0.0
C2473 C 0.54833 0.87096 0.93541 0.0
C2474 C 0.54496 0.85361 0.94406 0.0
C2475 C 0.54523 0.83575 0.93511 0.0
C2476 C 0.54815 0.89043 0.94524 0.0
C2477 C 0.53394 0.89145 0.95614 0.0
C2478 C 0.56161 0.90822 0.94376 0.0
C2479 C 0.57785 0.90885 0.93379 0.0
C2480 C 0.58931 0.89725 0.93803 0.0
C2481 C 0.60458 0.89785 0.92854 0.0
C2482 C 0.60861 0.91013 0.91486 0.0
C2483 C 0.5974 0.92186 0.91068 0.0
C2484 C 0.58211 0.92129 0.92012 0.0
C2485 C 0.54238 0.96541 1.00082 0.0
C2486 C 0.54544 0.98281 0.9923 0.0
C2487 C 0.54272 0.94771 0.99173 0.0
C2488 C 0.54602 0.94625 0.9735 0.0
C2489 C 0.54934 0.9637 0.96502 0.0
C2490 C 0.54898 0.98146 0.97413 0.0
C2491 C 0.54616 0.92685 0.96352 0.0
C2492 C 0.56035 0.92584 0.95259 0.0
C2493 C 0.53266 0.90906 0.96495 0.0
C2494 C 0.51637 0.90846 0.97483 0.0
C2495 C 0.50501 0.92017 0.97057 0.0
C2496 C 0.4897 0.91961 0.97998 0.0
C2497 C 0.48551 0.90727 0.99359 0.0
C2498 C 0.49661 0.89544 0.99779 0.0
C2499 C 0.51196 0.89597 0.98844 0.0
H2500 H 0.47365 0.90686 1.00086 0.0
H2501 H 0.62044 0.91058 0.90753 0.0
H2502 H 0.96772 0.77777 0.66272 0.0
H2503 H 0.93901 0.77623 0.67619 0.0
H2504 H 0.96857 0.79641 0.72693 0.0
H2505 H 0.99735 0.79751 0.71343 0.0
H2506 H 0.93902 0.77378 0.73539 0.0
H2507 H 0.94437 0.82389 0.69593 0.0
H2508 H 0.94788 0.83908 0.66752 0.0
H2509 H 0.89932 0.79757 0.6445 0.0
H2510 H 0.89565 0.78197 0.67271 0.0
H2511 H 0.86223 0.7973 0.77603 0.0
H2512 H 0.89096 0.79766 0.76278 0.0
H2513 H 0.86087 0.76946 0.71432 0.0
H2514 H 0.83211 0.76856 0.72775 0.0
H2515 H 0.89041 0.79616 0.70484 0.0
H2516 H 0.88502 0.74615 0.744 0.0
H2517 H 0.88152 0.73043 0.77214 0.0
H2518 H 0.92983 0.77191 0.7957 0.0
H2519 H 0.93356 0.78795 0.76771 0.0
C2520 C 0.96832 0.78195 0.67678 0.0
C2521 C 0.98558 0.78785 0.68663 0.0
C2522 C 0.95152 0.78124 0.68465 0.0
C2523 C 0.95068 0.78657 0.70297 0.0
C2524 C 0.96795 0.79218 0.71288 0.0
C2525 C 0.98479 0.79287 0.70499 0.0
C2526 C 0.93221 0.78615 0.71165 0.0
C2527 C 0.92868 0.77905 0.72861 0.0
C2528 C 0.91765 0.79239 0.70336 0.0
C2529 C 0.91987 0.80163 0.68637 0.0
C2530 C 0.93452 0.81791 0.68476 0.0
C2531 C 0.93653 0.82661 0.66871 0.0
C2532 C 0.92386 0.81926 0.6542 0.0
C2533 C 0.90914 0.80322 0.65574 0.0
C2534 C 0.90709 0.79445 0.67176 0.0
C2535 C 0.86152 0.79096 0.76259 0.0
C2536 C 0.84413 0.78272 0.75336 0.0
C2537 C 0.8783 0.79113 0.75485 0.0
C2538 C 0.87894 0.78347 0.73719 0.0
C2539 C 0.86156 0.77554 0.72786 0.0
C2540 C 0.84477 0.77494 0.73574 0.0
C2541 C 0.89734 0.78389 0.72854 0.0
C2542 C 0.90082 0.79097 0.7116 0.0
C2543 C 0.91185 0.77767 0.73686 0.0
C2544 C 0.90944 0.76839 0.75383 0.0
C2545 C 0.89479 0.75204 0.75524 0.0
C2546 C 0.8928 0.74304 0.77115 0.0
C2547 C 0.9054 0.75022 0.78572 0.0
C2548 C 0.92005 0.76639 0.78441 0.0
C2549 C 0.92213 0.77543 0.76852 0.0
H2550 H 0.90386 0.7432 0.79801 0.0
H2551 H 0.92543 0.82602 0.64178 0.0
H2552 H 0.16434 0.02784 0.87272 0.0
H2553 H 0.15104 0.02342 0.90138 0.0
H2554 H 0.10195 0.98488 0.87525 0.0
H2555 H 0.11527 0.98898 0.84655 0.0
H2556 H 0.09761 0.01776 0.89535 0.0
H2557 H 0.12538 0.96643 0.90161 0.0
H2558 H 0.1505 0.95113 0.90212 0.0
H2559 H 0.17895 0.99135 0.94519 0.0
H2560 H 0.15413 0.0071 0.94476 0.0
H2561 H 0.04939 1.00153 0.97056 0.0
H2562 H 0.06456 0.99458 0.94454 0.0
H2563 H 0.11664 0.02568 0.97098 0.0
H2564 H 0.10154 0.03224 0.99742 0.0
H2565 H 0.11935 0.99458 0.95069 0.0
H2566 H 0.09466 0.0479 0.94312 0.0
H2567 H 0.07093 0.06511 0.94295 0.0
H2568 H 0.03872 0.02388 0.90238 0.0
H2569 H 0.06216 0.00624 0.9025 0.0
C2570 C 0.15085 0.01814 0.87315 0.0
C2571 C 0.14074 0.00887 0.85745 0.0
C2572 C 0.14334 0.01554 0.88951 0.0
C2573 C 0.12558 1.00379 0.89036 0.0
C2574 C 0.11573 0.99392 0.8748 0.0
C2575 C 0.12333 0.99629 0.85846 0.0
C2576 C 0.1165 1.00384 0.90704 0.0
C2577 C 0.1021 0.01232 0.90737 0.0
C2578 C 0.12295 0.99746 0.9228 0.0
C2579 C 0.13796 0.98808 0.92303 0.0
C2580 C 0.13708 0.97215 0.91107 0.0
C2581 C 0.15125 0.96336 0.91137 0.0
C2582 C 0.16634 0.97029 0.92364 0.0
C2583 C 0.16727 0.98601 0.93567 0.0
C2584 C 0.15314 0.99486 0.93541 0.0
C2585 C 0.06409 0.00678 0.97092 0.0
C2586 C 0.07427 0.01777 0.98588 0.0
C2587 C 0.07273 1.00275 0.95605 0.0
C2588 C 0.09166 0.00999 0.95571 0.0
C2589 C 0.102 0.02006 0.97097 0.0
C2590 C 0.09335 0.02388 0.98601 0.0
C2591 C 0.10034 0.00835 0.93893 0.0
C2592 C 0.11474 0.99979 0.93861 0.0
C2593 C 0.09415 0.01499 0.92316 0.0
C2594 C 0.08008 0.02564 0.92295 0.0
C2595 C 0.08246 0.04242 0.93426 0.0
C2596 C 0.06907 0.05226 0.93416 0.0
C2597 C 0.05331 0.04556 0.92269 0.0
C2598 C 0.05093 0.02903 0.91127 0.0
C2599 C 0.06426 0.01911 0.91134 0.0
H2600 H 0.04295 0.0532 0.92264 0.0
H2601 H 0.17729 0.96346 0.92386 0.0
H2602 H 0.81205 0.37962 0.53716 0.0
H2603 H 0.81594 0.36115 0.56233 0.0
H2604 H 0.75901 0.35122 0.57118 0.0
H2605 H 0.75516 0.37018 0.54625 0.0
H2606 H 0.77909 0.36365 0.60095 0.0
H2607 H 0.77672 0.31455 0.55507 0.0
H2608 H 0.78492 0.30044 0.52734 0.0
H2609 H 0.84008 0.31113 0.54934 0.0
H2610 H 0.83226 0.32556 0.57713 0.0
H2611 H 0.78154 0.30274 0.66962 0.0
H2612 H 0.77435 0.31307 0.64055 0.0
H2613 H 0.83136 0.32849 0.63096 0.0
H2614 H 0.83864 0.31803 0.66005 0.0
H2615 H 0.80961 0.31132 0.60107 0.0
H2616 H 0.81214 0.36251 0.64594 0.0
H2617 H 0.80378 0.37623 0.67379 0.0
H2618 H 0.74777 0.3611 0.65334 0.0
H2619 H 0.75578 0.34705 0.62543 0.0
C2620 C 0.8003 0.37326 0.5443 0.0
C2621 C 0.78331 0.37637 0.53979 0.0
C2622 C 0.80252 0.36262 0.55864 0.0
C2623 C 0.78773 0.35465 0.56856 0.0
C2624 C 0.77061 0.35724 0.56371 0.0
C2625 C 0.76841 0.36802 0.54945 0.0
C2626 C 0.79048 0.34495 0.5848 0.0
C2627 C 0.78543 0.35194 0.60088 0.0
C2628 C 0.79919 0.33001 0.58482 0.0
C2629 C 0.80393 0.32128 0.56814 0.0
C2630 C 0.79063 0.31403 0.55395 0.0
C2631 C 0.7952 0.30595 0.53823 0.0
C2632 C 0.81302 0.30493 0.53657 0.0
C2633 C 0.82628 0.31195 0.55064 0.0
C2634 C 0.82178 0.32006 0.56639 0.0
C2635 C 0.79254 0.30829 0.66129 0.0
C2636 C 0.81068 0.30984 0.66716 0.0
C2637 C 0.7884 0.31413 0.64469 0.0
C2638 C 0.80236 0.32182 0.63375 0.0
C2639 C 0.8204 0.3226 0.63923 0.0
C2640 C 0.82454 0.31664 0.65582 0.0
C2641 C 0.79823 0.33006 0.61708 0.0
C2642 C 0.80309 0.32287 0.60101 0.0
C2643 C 0.78932 0.34481 0.61703 0.0
C2644 C 0.78454 0.35357 0.63367 0.0
C2645 C 0.79803 0.36201 0.64742 0.0
C2646 C 0.79336 0.36986 0.66321 0.0
C2647 C 0.77525 0.36949 0.66535 0.0
C2648 C 0.76179 0.36135 0.65167 0.0
C2649 C 0.76639 0.35346 0.63586 0.0
H2650 H 0.77165 0.37554 0.6776 0.0
H2651 H 0.81653 0.29866 0.52438 0.0
H2652 H 0.45903 0.08031 0.37346 0.0
H2653 H 0.48103 0.08673 0.39933 0.0
H2654 H 0.52442 0.08783 0.36504 0.0
H2655 H 0.50244 0.08139 0.33904 0.0
H2656 H 0.52253 0.06225 0.39026 0.0
H2657 H 0.52548 0.12831 0.38924 0.0
H2658 H 0.51373 0.15663 0.38683 0.0
H2659 H 0.48544 0.14365 0.43393 0.0
H2660 H 0.49678 0.11508 0.4365 0.0
H2661 H 0.56837 0.06161 0.47461 0.0
H2662 H 0.5636 0.07404 0.44581 0.0
H2663 H 0.51163 0.08021 0.46037 0.0
H2664 H 0.51644 0.06842 0.48911 0.0
H2665 H 0.52782 0.10926 0.44212 0.0
H2666 H 0.51604 0.03911 0.43666 0.0
H2667 H 0.52501 0.00903 0.43893 0.0
H2668 H 0.5673 0.02854 0.40388 0.0
H2669 H 0.55868 0.05885 0.40158 0.0
C2670 C 0.4733 0.08228 0.37142 0.0
C2671 C 0.47903 0.08018 0.35431 0.0
C2672 C 0.48588 0.08611 0.38618 0.0
C2673 C 0.50436 0.08792 0.38404 0.0
C2674 C 0.51023 0.08661 0.36691 0.0
C2675 C 0.49766 0.08289 0.35212 0.0
C2676 C 0.51683 0.08849 0.39983 0.0
C2677 C 0.52421 0.07288 0.40143 0.0
C2678 C 0.51876 0.10222 0.41441 0.0
C2679 C 0.51198 0.1195 0.41303 0.0
C2680 C 0.51667 0.13142 0.39904 0.0
C2681 C 0.51009 0.14753 0.39765 0.0
C2682 C 0.49884 0.15193 0.41022 0.0
C2683 C 0.49417 0.14024 0.42422 0.0
C2684 C 0.50071 0.1241 0.42567 0.0
C2685 C 0.55602 0.06581 0.47171 0.0
C2686 C 0.54267 0.06379 0.48403 0.0
C2687 C 0.55335 0.07295 0.45529 0.0
C2688 C 0.53719 0.07786 0.45091 0.0
C2689 C 0.52425 0.0766 0.4635 0.0
C2690 C 0.52697 0.06969 0.4799 0.0
C2691 C 0.5326 0.08251 0.43275 0.0
C2692 C 0.52675 0.09909 0.43071 0.0
C2693 C 0.53177 0.06951 0.4178 0.0
C2694 C 0.5369 0.05131 0.41914 0.0
C2695 C 0.52733 0.03702 0.42954 0.0
C2696 C 0.53233 0.01994 0.43082 0.0
C2697 C 0.54676 0.01691 0.4216 0.0
C2698 C 0.55617 0.03093 0.41105 0.0
C2699 C 0.55124 0.04806 0.40975 0.0
H2700 H 0.55061 1.00367 0.4226 0.0
H2701 H 0.49375 0.16441 0.40911 0.0
H2702 H 0.82282 0.71496 0.07893 0.0
H2703 H 0.82228 0.72568 0.11014 0.0
H2704 H 0.77176 0.73951 0.0979 0.0
H2705 H 0.7727 0.72952 0.06648 0.0
H2706 H 0.79053 0.76533 0.12154 0.0
H2707 H 0.77516 0.69646 0.11812 0.0
H2708 H 0.77937 0.66444 0.11046 0.0
H2709 H 0.82939 0.67934 0.14367 0.0
H2710 H 0.82559 0.71155 0.15136 0.0
H2711 H 0.76588 0.76975 0.2111 0.0
H2712 H 0.76711 0.76096 0.17957 0.0
H2713 H 0.81834 0.74837 0.19107 0.0
H2714 H 0.81687 0.75655 0.22273 0.0
H2715 H 0.79905 0.72209 0.16775 0.0
H2716 H 0.81302 0.79146 0.1717 0.0
H2717 H 0.80729 0.82285 0.17915 0.0
H2718 H 0.75812 0.80621 0.14477 0.0
H2719 H 0.76332 0.7746 0.13733 0.0
C2720 C 0.81168 0.72048 0.08283 0.0
C2721 C 0.79779 0.72132 0.0701 0.0
C2722 C 0.81128 0.72646 0.10081 0.0
C2723 C 0.79672 0.73303 0.10674 0.0
C2724 C 0.78313 0.73446 0.0939 0.0
C2725 C 0.78368 0.72873 0.07585 0.0
C2726 C 0.79554 0.73812 0.12624 0.0
C2727 C 0.79218 0.75572 0.13158 0.0
C2728 C 0.79795 0.72589 0.13964 0.0
C2729 C 0.80018 0.70647 0.13518 0.0
C2730 C 0.78711 0.69294 0.12371 0.0
C2731 C 0.78942 0.67476 0.11937 0.0
C2732 C 0.80466 0.66988 0.12654 0.0
C2733 C 0.8176 0.68315 0.13811 0.0
C2734 C 0.81537 0.70136 0.14248 0.0
C2735 C 0.77742 0.76508 0.20698 0.0
C2736 C 0.79127 0.7639 0.21964 0.0
C2737 C 0.77819 0.76017 0.1888 0.0
C2738 C 0.79301 0.75429 0.18261 0.0
C2739 C 0.80674 0.75288 0.19529 0.0
C2740 C 0.80588 0.75758 0.2135 0.0
C2741 C 0.79413 0.74935 0.16308 0.0
C2742 C 0.79745 0.73174 0.15772 0.0
C2743 C 0.79151 0.76151 0.14968 0.0
C2744 C 0.78848 0.78059 0.15408 0.0
C2745 C 0.80092 0.79444 0.16582 0.0
C2746 C 0.79778 0.81228 0.17003 0.0
C2747 C 0.78237 0.8165 0.16247 0.0
C2748 C 0.77005 0.80291 0.15064 0.0
C2749 C 0.77308 0.78504 0.14641 0.0
H2750 H 0.77998 0.83032 0.16576 0.0
H2751 H 0.80643 0.6558 0.12315 0.0
H2752 H 0.12734 1.00455 0.74989 0.0
H2753 H 0.10695 0.00908 0.72547 0.0
H2754 H 0.08616 0.04582 0.76063 0.0
H2755 H 0.10624 0.04093 0.78528 0.0
H2756 H 0.05936 0.02404 0.73682 0.0
H2757 H 0.11985 0.06581 0.73548 0.0
H2758 H 0.15331 0.07354 0.73565 0.0
H2759 H 0.14833 0.03734 0.68748 0.0
H2760 H 0.11482 0.02923 0.68714 0.0
H2761 H 0.06003 0.0809 0.65118 0.0
H2762 H 0.0721 0.07565 0.68035 0.0
H2763 H 0.03817 0.01706 0.6751 0.0
H2764 H 0.02538 0.02243 0.64605 0.0
H2765 H 0.09185 0.05172 0.68543 0.0
H2766 H 0.03093 1.00152 0.7171 0.0
H2767 H 0.99786 0.99676 0.71838 0.0
H2768 H 1.00412 0.05573 0.70793 0.0
H2769 H 0.03723 0.06092 0.70684 0.0
C2770 C 0.11821 0.01334 0.75248 0.0
C2771 C 0.11851 0.0226 0.7694 0.0
C2772 C 0.10659 0.01593 0.73853 0.0
C2773 C 0.09532 0.02808 0.74119 0.0
C2774 C 0.0948 0.03643 0.75831 0.0
C2775 C 0.10631 0.03368 0.77235 0.0
C2776 C 0.08537 0.03339 0.7258 0.0
C2777 C 0.0664 0.03006 0.72554 0.0
C2778 C 0.09468 0.04172 0.71134 0.0
C2779 C 0.11483 0.0468 0.71136 0.0
C2780 C 0.12589 0.05942 0.72497 0.0
C2781 C 0.14487 0.06388 0.7251 0.0
C2782 C 0.15294 0.0559 0.71161 0.0
C2783 C 0.14205 0.0435 0.69793 0.0
C2784 C 0.12307 0.03899 0.69775 0.0
C2785 C 0.05462 0.06707 0.65642 0.0
C2786 C 0.04173 0.05206 0.64622 0.0
C2787 C 0.06171 0.06404 0.67305 0.0
C2788 C 0.0561 0.04596 0.67987 0.0
C2789 C 0.0426 0.03118 0.67015 0.0
C2790 C 0.03542 0.03423 0.65349 0.0
C2791 C 0.06571 0.04213 0.69623 0.0
C2792 C 0.08471 0.04571 0.69666 0.0
C2793 C 0.05644 0.03449 0.71097 0.0
C2794 C 0.03655 0.03153 0.7117 0.0
C2795 C 0.02526 0.01348 0.71513 0.0
C2796 C 1.0065 0.01071 0.71582 0.0
C2797 C 0.99889 0.02591 0.71318 0.0
C2798 C 0.01002 0.04394 0.7099 0.0
C2799 C 0.02878 0.0468 0.70921 0.0
H2800 H 0.98437 0.02373 0.71371 0.0
H2801 H 0.16763 0.05934 0.71174 0.0
H2802 H 0.76593 0.41637 0.4391 0.0
H2803 H 0.76525 0.40294 0.40842 0.0
H2804 H 0.76992 0.34951 0.4278 0.0
H2805 H 0.77082 0.36285 0.45834 0.0
H2806 H 0.79543 0.36349 0.40525 0.0
H2807 H 0.73048 0.35317 0.4073 0.0
H2808 H 0.70241 0.36293 0.41135 0.0
H2809 H 0.71449 0.4006 0.36925 0.0
H2810 H 0.74278 0.39126 0.36511 0.0
H2811 H 0.77619 0.29454 0.33476 0.0
H2812 H 0.77214 0.31357 0.36099 0.0
H2813 H 0.77536 0.36237 0.33008 0.0
H2814 H 0.77945 0.34331 0.30343 0.0
H2815 H 0.74752 0.3558 0.35609 0.0
H2816 H 0.81137 0.36409 0.35265 0.0
H2817 H 0.83884 0.35334 0.3482 0.0
H2818 H 0.8286 0.31928 0.39301 0.0
H2819 H 0.80088 0.32958 0.39757 0.0
C2820 C 0.76653 0.40167 0.43677 0.0
C2821 C 0.76856 0.39069 0.45108 0.0
C2822 C 0.76609 0.39401 0.41926 0.0
C2823 C 0.76758 0.37526 0.41587 0.0
C2824 C 0.76885 0.36406 0.43015 0.0
C2825 C 0.76933 0.37168 0.44759 0.0
C2826 C 0.76926 0.36763 0.39765 0.0
C2827 C 0.78489 0.36171 0.39455 0.0
C2828 C 0.75583 0.36603 0.38352 0.0
C2829 C 0.73887 0.37171 0.38606 0.0
C2830 C 0.72725 0.36369 0.39903 0.0
C2831 C 0.71128 0.36911 0.40131 0.0
C2832 C 0.7067 0.38243 0.39061 0.0
C2833 C 0.71807 0.39032 0.37756 0.0
C2834 C 0.73407 0.38496 0.37524 0.0
C2835 C 0.77591 0.30926 0.3334 0.0
C2836 C 0.7784 0.31749 0.31703 0.0
C2837 C 0.77356 0.3201 0.34843 0.0
C2838 C 0.77368 0.33938 0.34746 0.0
C2839 C 0.77529 0.34749 0.33103 0.0
C2840 C 0.77772 0.33662 0.31589 0.0
C2841 C 0.77336 0.35111 0.36402 0.0
C2842 C 0.75813 0.35788 0.36676 0.0
C2843 C 0.78716 0.35356 0.37791 0.0
C2844 C 0.80397 0.34752 0.37538 0.0
C2845 C 0.8149 0.35421 0.36149 0.0
C2846 C 0.83053 0.3482 0.35895 0.0
C2847 C 0.83545 0.33561 0.3703 0.0
C2848 C 0.82477 0.32903 0.38423 0.0
C2849 C 0.80911 0.33497 0.38681 0.0
H2850 H 0.84755 0.33097 0.36831 0.0
H2851 H 0.69432 0.3866 0.39239 0.0
H2852 H 0.47945 0.03721 0.2714 0.0
H2853 H 0.4958 0.03743 0.24461 0.0
H2854 H 0.4781 0.08597 0.22828 0.0
H2855 H 0.46146 0.08568 0.25504 0.0
H2856 H 0.47293 0.0584 0.20167 0.0
H2857 H 0.52188 0.09241 0.24281 0.0
H2858 H 0.54161 0.09903 0.2707 0.0
H2859 H 0.55763 0.0474 0.25946 0.0
H2860 H 0.53777 0.04031 0.23161 0.0
H2861 H 0.52821 0.06508 0.12873 0.0
H2862 H 0.51793 0.07477 0.15695 0.0
H2863 H 0.52575 0.02383 0.17914 0.0
H2864 H 0.53558 0.01374 0.15085 0.0
H2865 H 0.53772 0.05786 0.20255 0.0
H2866 H 0.48524 0.02237 0.16344 0.0
H2867 H 0.46556 0.01618 0.1355 0.0
H2868 H 0.45659 0.07202 0.14318 0.0
H2869 H 0.47646 0.07865 0.17106 0.0
C2870 C 0.4791 0.04798 0.26215 0.0
C2871 C 0.46919 0.06141 0.26525 0.0
C2872 C 0.48855 0.04818 0.24692 0.0
C2873 C 0.48835 0.06189 0.23463 0.0
C2874 C 0.47847 0.07535 0.23769 0.0
C2875 C 0.469 0.07515 0.25294 0.0
C2876 C 0.49766 0.06139 0.21812 0.0
C2877 C 0.4872 0.05872 0.20184 0.0
C2878 C 0.51621 0.06156 0.21842 0.0
C2879 C 0.52822 0.06576 0.23516 0.0
C2880 C 0.52949 0.08238 0.24634 0.0
C2881 C 0.54072 0.08624 0.26214 0.0
C2882 C 0.55084 0.07363 0.26687 0.0
C2883 C 0.54977 0.05715 0.25579 0.0
C2884 C 0.53855 0.05322 0.23998 0.0
C2885 C 0.52773 0.05593 0.13962 0.0
C2886 C 0.53246 0.03851 0.13752 0.0
C2887 C 0.522 0.06157 0.15573 0.0
C2888 C 0.52099 0.04991 0.16998 0.0
C2889 C 0.52653 0.03302 0.16824 0.0
C2890 C 0.53216 0.0273 0.1521 0.0
C2891 C 0.51287 0.05452 0.18628 0.0
C2892 C 0.52355 0.05791 0.20245 0.0
C2893 C 0.49454 0.05513 0.1859 0.0
C2894 C 0.4825 0.0511 0.16921 0.0
C2895 C 0.4792 0.0334 0.15909 0.0
C2896 C 0.46799 0.0298 0.14328 0.0
C2897 C 0.45988 0.04372 0.13754 0.0
C2898 C 0.46292 0.06126 0.14763 0.0
C2899 C 0.47414 0.06495 0.16343 0.0
H2900 H 0.45119 0.0409 0.12531 0.0
H2901 H 0.55953 0.07664 0.2791 0.0
H2902 H 0.78455 0.68436 0.95351 0.0
H2903 H 0.78589 0.69422 0.92315 0.0
H2904 H 0.80687 0.75355 0.94339 0.0
H2905 H 0.80559 0.74367 0.974 0.0
H2906 H 0.7806 0.74941 0.91578 0.0
H2907 H 0.83479 0.72899 0.92558 0.0
H2908 H 0.85264 0.70672 0.9339 0.0
H2909 H 0.82295 0.66507 0.89239 0.0
H2910 H 0.80474 0.68699 0.88397 0.0
H2911 H 0.81161 0.78958 0.83682 0.0
H2912 H 0.81075 0.77803 0.86641 0.0
H2913 H 0.78903 0.71968 0.84374 0.0
H2914 H 0.78973 0.73122 0.81372 0.0
H2915 H 0.81491 0.7224 0.87212 0.0
H2916 H 0.76113 0.74234 0.86172 0.0
H2917 H 0.74303 0.76419 0.85288 0.0
H2918 H 0.77093 0.80583 0.89515 0.0
H2919 H 0.78948 0.78439 0.90404 0.0
C2920 C 0.78948 0.69954 0.95158 0.0
C2921 C 0.79501 0.71319 0.96634 0.0
C2922 C 0.79031 0.70517 0.9341 0.0
C2923 C 0.79667 0.72467 0.93075 0.0
C2924 C 0.80194 0.73841 0.94547 0.0
C2925 C 0.80125 0.73274 0.96303 0.0
C2926 C 0.79775 0.73059 0.91194 0.0
C2927 C 0.78833 0.74369 0.90636 0.0
C2928 C 0.80732 0.72276 0.89925 0.0
C2929 C 0.81827 0.70956 0.90427 0.0
C2930 C 0.83196 0.71502 0.91832 0.0
C2931 C 0.84216 0.70247 0.92303 0.0
C2932 C 0.8389 0.68447 0.91371 0.0
C2933 C 0.82545 0.679 0.89962 0.0
C2934 C 0.81519 0.69149 0.89486 0.0
C2935 C 0.80677 0.77422 0.83794 0.0
C2936 C 0.80068 0.7614 0.82263 0.0
C2937 C 0.80621 0.76763 0.85503 0.0
C2938 C 0.79956 0.74796 0.85752 0.0
C2939 C 0.79416 0.73495 0.84229 0.0
C2940 C 0.7946 0.74158 0.82507 0.0
C2941 C 0.79789 0.74132 0.87604 0.0
C2942 C 0.80716 0.7281 0.88156 0.0
C2943 C 0.78807 0.74893 0.88863 0.0
C2944 C 0.77683 0.76182 0.88345 0.0
C2945 C 0.76352 0.75622 0.86905 0.0
C2946 C 0.75315 0.76852 0.86404 0.0
C2947 C 0.75584 0.78639 0.87343 0.0
C2948 C 0.76887 0.79198 0.88788 0.0
C2949 C 0.77932 0.77976 0.89291 0.0
H2950 H 0.7478 0.79589 0.86954 0.0
H2951 H 0.84682 0.67478 0.91738 0.0
H2952 H 0.81853 0.09851 0.02197 0.0
H2953 H 0.83787 0.07842 0.01272 0.0
H2954 H 0.88533 0.12156 0.0366 0.0
H2955 H 0.86604 0.14191 0.04572 0.0
H2956 H 0.89152 0.10649 0.00436 0.0
H2957 H 0.86668 0.08314 0.05835 0.0
H2958 H 0.84233 0.07087 0.07813 0.0
H2959 H 0.819 0.02204 0.04085 0.0
H2960 H 0.84309 0.03419 0.02071 0.0
H2961 H 0.95474 0.05451 0.02202 0.0
H2962 H 0.93266 0.07317 0.02366 0.0
H2963 H 0.89143 0.02585 0.99586 0.0
H2964 H 0.9136 0.00684 0.99439 0.0
H2965 H 0.88016 0.04144 0.02651 0.0
H2966 H 0.90832 0.06391 0.97413 0.0
H2967 H 0.93461 0.07594 0.95651 0.0
H2968 H 0.95332 0.12664 0.99245 0.0
H2969 H 0.92724 0.11481 0.01045 0.0
C2970 C 0.8331 0.10376 0.02519 0.0
C2971 C 0.8408 0.12169 0.03469 0.0
C2972 C 0.84411 0.09226 0.01991 0.0
C2973 C 0.86297 0.09844 0.02415 0.0
C2974 C 0.87077 0.11657 0.03321 0.0
C2975 C 0.85976 0.12811 0.03848 0.0
C2976 C 0.87449 0.08567 0.01975 0.0
C2977 C 0.88912 0.09231 0.00926 0.0
C2978 C 0.87106 0.06702 0.02586 0.0
C2979 C 0.85655 0.0597 0.03793 0.0
C2980 C 0.85626 0.06988 0.05429 0.0
C2981 C 0.84252 0.06293 0.06558 0.0
C2982 C 0.82909 0.04572 0.06072 0.0
C2983 C 0.82939 0.0354 0.04458 0.0
C2984 C 0.84308 0.0423 0.03322 0.0
C2985 C 0.94094 0.04802 0.01634 0.0
C2986 C 0.93577 0.02918 0.00824 0.0
C2987 C 0.92842 0.05876 0.01712 0.0
C2988 C 0.91052 0.05093 0.00971 0.0
C2989 C 0.90526 0.03212 1.00156 0.0
C2990 C 0.91787 0.02134 1.00068 0.0
C2991 C 0.89728 0.06231 0.01128 0.0
C2992 C 0.88235 0.05546 0.02131 0.0
C2993 C 0.90056 0.08082 0.00489 0.0
C2994 C 0.91588 0.08839 0.99372 0.0
C2995 C 0.91806 0.0776 0.97832 0.0
C2996 C 0.93292 0.08438 0.96826 0.0
C2997 C 0.94565 0.10199 0.97341 0.0
C2998 C 0.94344 0.11298 0.98851 0.0
C2999 C 0.9286 0.10626 0.99862 0.0
H3000 H 0.95724 0.10708 0.96572 0.0
H3001 H 0.81847 0.04035 0.06949 0.0
H3002 H 0.33229 0.43611 0.02622 0.0
H3003 H 0.36248 0.45816 0.02421 0.0
H3004 H 0.38645 0.41086 0.02702 0.0
H3005 H 0.35619 0.38867 0.02914 0.0
H3006 H 0.40642 0.4426 0.04795 0.0
H3007 H 0.38004 0.42877 0.98766 0.0
H3008 H 0.35654 0.42637 0.96324 0.0
H3009 H 0.36247 0.48701 0.97136 0.0
H3010 H 0.38584 0.48972 0.99601 0.0
H3011 H 0.49004 0.48012 0.01029 0.0
H3012 H 0.45862 0.46168 0.01288 0.0
H3013 H 0.44342 0.51427 0.02262 0.0
H3014 H 0.47522 0.53303 0.02058 0.0
H3015 H 0.41876 0.48206 0.99622 0.0
H3016 H 0.44611 0.49638 0.05545 0.0
H3017 H 0.47016 0.49916 0.07936 0.0
H3018 H 0.46209 0.4381 0.07386 0.0
H3019 H 0.43852 0.43496 0.0493 0.0
C3020 C 0.34398 0.43038 0.02645 0.0
C3021 C 0.34183 0.4106 0.02777 0.0
C3022 C 0.36125 0.44302 0.02525 0.0
C3023 C 0.37675 0.43617 0.02527 0.0
C3024 C 0.37469 0.41648 0.02695 0.0
C3025 C 0.35739 0.4038 0.02811 0.0
C3026 C 0.39505 0.4495 0.0233 0.0
C3027 C 0.40913 0.45107 0.03656 0.0
C3028 C 0.39854 0.461 0.00866 0.0
C3029 C 0.38455 0.45941 0.9938 0.0
C3030 C 0.37623 0.44157 0.98433 0.0
C3031 C 0.36295 0.44015 0.97043 0.0
C3032 C 0.35798 0.45652 0.96578 0.0
C3033 C 0.36631 0.47434 0.97499 0.0
C3034 C 0.37958 0.47583 0.98892 0.0
C3035 C 0.48004 0.48787 0.01277 0.0
C3036 C 0.48517 0.5081 0.01524 0.0
C3037 C 0.46207 0.47726 0.0143 0.0
C3038 C 0.44874 0.4866 0.018 0.0
C3039 C 0.45355 0.50681 0.01975 0.0
C3040 C 0.4717 0.51749 0.01861 0.0
C3041 C 0.43002 0.475 0.0208 0.0
C3042 C 0.41594 0.47369 0.00768 0.0
C3043 C 0.42652 0.46379 0.03558 0.0
C3044 C 0.44071 0.46549 0.05031 0.0
C3045 C 0.44968 0.48356 0.05909 0.0
C3046 C 0.46324 0.4852 0.07275 0.0
C3047 C 0.46778 0.46881 0.07799 0.0
C3048 C 0.45871 0.45076 0.0696 0.0
C3049 C 0.44526 0.44905 0.05578 0.0
H3050 H 0.47824 0.47007 0.08861 0.0
H3051 H 0.34769 0.4554 0.95502 0.0
H3052 H 0.35899 0.55966 0.7304 0.0
H3053 H 0.3435 0.58259 0.74201 0.0
H3054 H 0.39241 0.61328 0.7741 0.0
H3055 H 0.40798 0.59012 0.76267 0.0
H3056 H 0.36337 0.60732 0.79319 0.0
H3057 H 0.37869 0.63191 0.73768 0.0
H3058 H 0.38111 0.63218 0.70532 0.0
H3059 H 0.32281 0.61497 0.69653 0.0
H3060 H 0.32002 0.61423 0.72882 0.0
H3061 H 0.32925 0.68866 0.81366 0.0
H3062 H 0.34637 0.66586 0.80553 0.0
H3063 H 0.29972 0.6313 0.77249 0.0
H3064 H 0.28281 0.65445 0.77992 0.0
H3065 H 0.32946 0.64086 0.75449 0.0
H3066 H 0.31514 0.61551 0.81116 0.0
H3067 H 0.31397 0.61767 0.84373 0.0
H3068 H 0.37223 0.63943 0.85032 0.0
H3069 H 0.37373 0.63761 0.81778 0.0
C3070 C 0.36651 0.57139 0.73982 0.0
C3071 C 0.38469 0.57314 0.74564 0.0
C3072 C 0.35766 0.58451 0.74638 0.0
C3073 C 0.36686 0.59973 0.75878 0.0
C3074 C 0.38509 0.60164 0.7645 0.0
C3075 C 0.39398 0.58847 0.75794 0.0
C3076 C 0.3571 0.61308 0.76625 0.0
C3077 C 0.35618 0.61491 0.78475 0.0
C3078 C 0.34754 0.62276 0.7552 0.0
C3079 C 0.34916 0.62277 0.7357 0.0
C3080 C 0.36638 0.62793 0.72885 0.0
C3081 C 0.36782 0.62822 0.71051 0.0
C3082 C 0.35213 0.62353 0.69887 0.0
C3083 C 0.33496 0.61855 0.70555 0.0
C3084 C 0.33344 0.61819 0.72388 0.0
C3085 C 0.32256 0.67605 0.80486 0.0
C3086 C 0.30474 0.67344 0.79729 0.0
C3087 C 0.33231 0.66295 0.80035 0.0
C3088 C 0.3243 0.64691 0.78841 0.0
C3089 C 0.30612 0.64362 0.78175 0.0
C3090 C 0.29641 0.65676 0.78615 0.0
C3091 C 0.33538 0.63473 0.78134 0.0
C3092 C 0.33665 0.63325 0.7629 0.0
C3093 C 0.34542 0.62562 0.79246 0.0
C3094 C 0.34453 0.62658 0.81203 0.0
C3095 C 0.32769 0.62088 0.81955 0.0
C3096 C 0.32697 0.62202 0.83801 0.0
C3097 C 0.34301 0.62872 0.84909 0.0
C3098 C 0.35981 0.63425 0.84173 0.0
C3099 C 0.36061 0.63314 0.82328 0.0
H3100 H 0.34242 0.6296 0.86337 0.0
H3101 H 0.35327 0.6238 0.68468 0.0
H3102 H 0.23966 0.62038 0.56972 0.0
H3103 H 0.20747 0.60298 0.56374 0.0
H3104 H 0.22053 0.5701 0.51946 0.0
H3105 H 0.2529 0.58732 0.52551 0.0
H3106 H 0.19168 0.5876 0.51192 0.0
H3107 H 0.2088 0.54709 0.55339 0.0
H3108 H 0.22316 0.53988 0.58121 0.0
H3109 H 0.18801 0.56435 0.61151 0.0
H3110 H 0.17361 0.57197 0.58388 0.0
H3111 H 0.09734 0.53583 0.50051 0.0
H3112 H 0.13062 0.54308 0.50331 0.0
H3113 H 0.13181 0.57095 0.55566 0.0
H3114 H 0.0987 0.56301 0.55324 0.0
H3115 H 0.15459 0.55057 0.55642 0.0
H3116 H 0.1413 0.59604 0.51673 0.0
H3117 H 0.12723 0.60536 0.48973 0.0
H3118 H 0.1553 0.57401 0.45711 0.0
H3119 H 0.16937 0.56431 0.48394 0.0
C3120 C 0.2357 0.60933 0.55881 0.0
C3121 C 0.24872 0.60517 0.54808 0.0
C3122 C 0.21735 0.59938 0.55545 0.0
C3123 C 0.21173 0.58523 0.54123 0.0
C3124 C 0.22469 0.58096 0.53052 0.0
C3125 C 0.24312 0.59074 0.53403 0.0
C3126 C 0.19215 0.57558 0.53726 0.0
C3127 C 0.18356 0.57913 0.52145 0.0
C3128 C 0.18166 0.5649 0.54989 0.0
C3129 C 0.1902 0.56021 0.56655 0.0
C3130 C 0.20422 0.55107 0.56599 0.0
C3131 C 0.21235 0.54688 0.58172 0.0
C3132 C 0.20652 0.55168 0.59811 0.0
C3133 C 0.19251 0.56064 0.5988 0.0
C3134 C 0.18434 0.56487 0.5831 0.0
C3135 C 0.10476 0.5435 0.51259 0.0
C3136 C 0.09548 0.54892 0.52664 0.0
C3137 C 0.12375 0.54767 0.51417 0.0
C3138 C 0.13374 0.55775 0.52962 0.0
C3139 C 0.12442 0.56307 0.54364 0.0
C3140 C 0.10548 0.5586 0.54221 0.0
C3141 C 0.15393 0.56315 0.53133 0.0
C3142 C 0.16267 0.55875 0.54672 0.0
C3143 C 0.16454 0.57332 0.51843 0.0
C3144 C 0.15621 0.57927 0.50232 0.0
C3145 C 0.14437 0.59104 0.50379 0.0
C3146 C 0.13641 0.5964 0.48853 0.0
C3147 C 0.14032 0.59023 0.47172 0.0
C3148 C 0.15225 0.57874 0.47014 0.0
C3149 C 0.16023 0.57332 0.48537 0.0
H3150 H 0.13414 0.59439 0.45991 0.0
H3151 H 0.21284 0.54843 0.61028 0.0
H3152 H 0.67867 0.9717 0.75518 0.0
H3153 H 0.69996 0.95392 0.76493 0.0
H3154 H 0.72304 0.99808 0.80716 0.0
H3155 H 0.7015 0.0159 0.79762 0.0
H3156 H 0.74894 0.98699 0.78558 0.0
H3157 H 0.69955 0.95895 0.81961 0.0
H3158 H 0.66771 0.94377 0.82554 0.0
H3159 H 0.66624 0.89555 0.78903 0.0
H3160 H 0.69797 0.91059 0.78261 0.0
H3161 H 0.80294 0.92424 0.8131 0.0
H3162 H 0.78374 0.94642 0.81387 0.0
H3163 H 0.74532 0.90864 0.77454 0.0
H3164 H 0.76392 0.88625 0.77418 0.0
H3165 H 0.7285 0.9195 0.80171 0.0
H3166 H 0.7753 0.94999 0.76374 0.0
H3167 H 0.80689 0.96493 0.7568 0.0
H3168 H 0.81293 0.00813 0.79989 0.0
H3169 H 0.78142 0.99328 0.80722 0.0
C3170 C 0.68819 0.97756 0.76661 0.0
C3171 C 0.68846 0.99513 0.77567 0.0
C3172 C 0.70028 0.96738 0.7722 0.0
C3173 C 0.71293 0.97468 0.78681 0.0
C3174 C 0.71329 0.99224 0.7959 0.0
C3175 C 0.70098 1.00232 0.79047 0.0
C3176 C 0.72616 0.96412 0.79197 0.0
C3177 C 0.7446 0.97238 0.78953 0.0
C3178 C 0.72033 0.94503 0.79687 0.0
C3179 C 0.70114 0.93599 0.80053 0.0
C3180 C 0.69239 0.9452 0.8127 0.0
C3181 C 0.67436 0.9366 0.81617 0.0
C3182 C 0.66495 0.91872 0.80765 0.0
C3183 C 0.67355 0.9094 0.79562 0.0
C3184 C 0.69156 0.91796 0.79207 0.0
C3185 C 0.79039 0.92071 0.80465 0.0
C3186 C 0.785 0.90356 0.79349 0.0
C3187 C 0.77951 0.93341 0.80503 0.0
C3188 C 0.76316 0.92915 0.79423 0.0
C3189 C 0.75789 0.91217 0.783 0.0
C3190 C 0.76866 0.8995 0.78265 0.0
C3191 C 0.75116 0.94206 0.79459 0.0
C3192 C 0.73295 0.93425 0.79814 0.0
C3193 C 0.75718 0.96149 0.79057 0.0
C3194 C 0.77611 0.97039 0.78618 0.0
C3195 C 0.78342 0.96257 0.77184 0.0
C3196 C 0.8013 0.97105 0.76781 0.0
C3197 C 0.81193 0.98743 0.77794 0.0
C3198 C 0.80469 0.99541 0.79209 0.0
C3199 C 0.78683 0.98698 0.79618 0.0
H3200 H 0.82576 0.99397 0.7748 0.0
H3201 H 0.65101 0.91207 0.81039 0.0
H3202 H 0.7272 0.87502 0.52178 0.0
H3203 H 0.70388 0.89249 0.52099 0.0
H3204 H 0.74439 0.94468 0.54106 0.0
H3205 H 0.76778 0.92744 0.54133 0.0
H3206 H 0.68943 0.91118 0.54401 0.0
H3207 H 0.7359 0.98324 0.52397 0.0
H3208 H 0.76308 0.99471 0.50732 0.0
H3209 H 0.75047 0.94002 0.47708 0.0
H3210 H 0.7231 0.92832 0.49338 0.0
H3211 H 0.64651 0.98667 0.55605 0.0
H3212 H 0.66661 0.96552 0.55644 0.0
H3213 H 0.66779 0.96573 0.49947 0.0
H3214 H 0.64792 0.98706 0.49906 0.0
H3215 H 0.7006 0.97136 0.51313 0.0
H3216 H 0.64415 0.92533 0.52025 0.0
H3217 H 0.61519 0.91176 0.53356 0.0
H3218 H 0.64436 0.91091 0.5836 0.0
H3219 H 0.67352 0.92453 0.57062 0.0
C3220 C 0.73112 0.89021 0.52606 0.0
C3221 C 0.74939 0.89987 0.53147 0.0
C3222 C 0.71775 0.90019 0.52566 0.0
C3223 C 0.72235 0.92002 0.53069 0.0
C3224 C 0.74049 0.9295 0.53672 0.0
C3225 C 0.75387 0.91959 0.53695 0.0
C3226 C 0.70834 0.93092 0.52922 0.0
C3227 C 0.69189 0.92434 0.53727 0.0
C3228 C 0.71124 0.94788 0.52006 0.0
C3229 C 0.72755 0.95486 0.51003 0.0
C3230 C 0.73889 0.9737 0.51372 0.0
C3231 C 0.75434 0.98023 0.50435 0.0
C3232 C 0.75853 0.96808 0.49119 0.0
C3233 C 0.74725 0.94939 0.48733 0.0
C3234 C 0.73178 0.9428 0.49664 0.0
C3235 C 0.65086 0.982 0.54358 0.0
C3236 C 0.6457 0.98868 0.52754 0.0
C3237 C 0.66236 0.96986 0.54381 0.0
C3238 C 0.66874 0.9639 0.52797 0.0
C3239 C 0.66321 0.9702 0.5119 0.0
C3240 C 0.65185 0.98243 0.51168 0.0
C3241 C 0.6818 0.95183 0.52818 0.0
C3242 C 0.6981 0.9582 0.51989 0.0
C3243 C 0.67851 0.93442 0.53667 0.0
C3244 C 0.66102 0.9261 0.5445 0.0
C3245 C 0.64439 0.92236 0.53412 0.0
C3246 C 0.62794 0.91464 0.5416 0.0
C3247 C 0.62793 0.91057 0.55943 0.0
C3248 C 0.64439 0.9141 0.5698 0.0
C3249 C 0.66089 0.92177 0.56238 0.0
H3250 H 0.61517 0.90463 0.5652 0.0
H3251 H 0.7705 0.97316 0.48397 0.0
H3252 H 0.35173 0.48083 0.72603 0.0
H3253 H 0.33506 0.44758 0.72951 0.0
H3254 H 0.38128 0.42865 0.71445 0.0
H3255 H 0.39825 0.4621 0.71105 0.0
H3256 H 0.34294 0.40269 0.70228 0.0
H3257 H 0.38226 0.43459 0.75366 0.0
H3258 H 0.39542 0.46215 0.77564 0.0
H3259 H 0.34231 0.45855 0.79323 0.0
H3260 H 0.32878 0.43118 0.77108 0.0
H3261 H 0.31684 0.31577 0.74603 0.0
H3262 H 0.33445 0.34584 0.73507 0.0
H3263 H 0.29987 0.37603 0.76032 0.0
H3264 H 0.28301 0.34608 0.77217 0.0
H3265 H 0.33475 0.39565 0.76646 0.0
H3266 H 0.2954 0.36334 0.71519 0.0
H3267 H 0.28221 0.33619 0.69278 0.0
H3268 H 0.33526 0.34025 0.67484 0.0
H3269 H 0.34881 0.36727 0.69732 0.0
C3270 C 0.35822 0.46958 0.723 0.0
C3271 C 0.37638 0.47405 0.71855 0.0
C3272 C 0.34865 0.4506 0.72494 0.0
C3273 C 0.35706 0.43581 0.7224 0.0
C3274 C 0.37461 0.43996 0.71642 0.0
C3275 C 0.38428 0.45903 0.71456 0.0
C3276 C 0.34852 0.4168 0.72867 0.0
C3277 C 0.34134 0.40097 0.7163 0.0
C3278 C 0.34636 0.41481 0.74696 0.0
C3279 C 0.35449 0.43096 0.76059 0.0
C3280 C 0.37337 0.43977 0.76212 0.0
C3281 C 0.3809 0.45535 0.77461 0.0
C3282 C 0.36971 0.46213 0.7858 0.0
C3283 C 0.35096 0.45329 0.78454 0.0
C3284 C 0.34336 0.43775 0.77202 0.0
C3285 C 0.31351 0.32899 0.74975 0.0
C3286 C 0.29921 0.32894 0.76054 0.0
C3287 C 0.32323 0.34604 0.74313 0.0
C3288 C 0.31844 0.36317 0.74686 0.0
C3289 C 0.30386 0.36299 0.75738 0.0
C3290 C 0.29423 0.34594 0.76409 0.0
C3291 C 0.32874 0.38139 0.74007 0.0
C3292 C 0.33637 0.39718 0.75241 0.0
C3293 C 0.33132 0.38324 0.72177 0.0
C3294 C 0.32314 0.36721 0.70806 0.0
C3295 C 0.30427 0.35837 0.70654 0.0
C3296 C 0.29672 0.34301 0.69382 0.0
C3297 C 0.30789 0.33646 0.68243 0.0
C3298 C 0.32662 0.34532 0.68369 0.0
C3299 C 0.33424 0.36067 0.69641 0.0
H3300 H 0.30203 0.32456 0.6726 0.0
H3301 H 0.37556 0.47419 0.79546 0.0
H3302 H 0.22592 0.56892 0.24002 0.0
H3303 H 0.24427 0.60266 0.24393 0.0
H3304 H 0.20084 0.61799 0.26985 0.0
H3305 H 0.1826 0.58443 0.26621 0.0
H3306 H 0.21609 0.64257 0.2432 0.0
H3307 H 0.23486 0.61309 0.29459 0.0
H3308 H 0.24728 0.58919 0.30897 0.0
H3309 H 0.29672 0.60832 0.28294 0.0
H3310 H 0.28446 0.63217 0.2682 0.0
H3311 H 0.25118 0.73158 0.29098 0.0
H3312 H 0.23797 0.69719 0.2835 0.0
H3313 H 0.28852 0.69291 0.26353 0.0
H3314 H 0.30194 0.72743 0.27096 0.0
H3315 H 0.27268 0.66246 0.28343 0.0
H3316 H 0.25651 0.69452 0.23517 0.0
H3317 H 0.24488 0.7182 0.21961 0.0
H3318 H 0.1916 0.69371 0.23686 0.0
H3319 H 0.20306 0.67036 0.25313 0.0
C3320 C 0.2203 0.57953 0.24648 0.0
C3321 C 0.20288 0.57412 0.25285 0.0
C3322 C 0.23078 0.59872 0.24873 0.0
C3323 C 0.22387 0.61271 0.25721 0.0
C3324 C 0.20636 0.60736 0.26325 0.0
C3325 C 0.196 0.58821 0.26121 0.0
C3326 C 0.23487 0.63295 0.26015 0.0
C3327 C 0.2284 0.64699 0.25208 0.0
C3328 C 0.25128 0.63849 0.27119 0.0
C3329 C 0.25866 0.62424 0.28013 0.0
C3330 C 0.24831 0.61208 0.29181 0.0
C3331 C 0.25533 0.59857 0.30005 0.0
C3332 C 0.27276 0.59719 0.29682 0.0
C3333 C 0.28321 0.60937 0.2854 0.0
C3334 C 0.27624 0.6229 0.2771 0.0
C3335 C 0.25959 0.72334 0.28516 0.0
C3336 C 0.27757 0.73228 0.28142 0.0
C3337 C 0.25199 0.7037 0.28083 0.0
C3338 C 0.26221 0.69263 0.27273 0.0
C3339 C 0.28041 0.70128 0.2697 0.0
C3340 C 0.28802 0.72099 0.27392 0.0
C3341 C 0.25355 0.67217 0.26695 0.0
C3342 C 0.26049 0.65809 0.2744 0.0
C3343 C 0.23767 0.66656 0.25513 0.0
C3344 C 0.23072 0.6808 0.24557 0.0
C3345 C 0.24238 0.69436 0.2359 0.0
C3346 C 0.23581 0.70775 0.22695 0.0
C3347 C 0.21754 0.70756 0.22734 0.0
C3348 C 0.20579 0.69398 0.23669 0.0
C3349 C 0.21232 0.68067 0.24581 0.0
H3350 H 0.21249 0.71787 0.22031 0.0
H3351 H 0.27817 0.58672 0.30322 0.0
H3352 H 0.52831 0.73922 0.47794 0.0
H3353 H 0.53188 0.71002 0.49069 0.0
H3354 H 0.50858 0.67676 0.44157 0.0
H3355 H 0.50456 0.70578 0.42895 0.0
H3356 H 0.49634 0.65707 0.46886 0.0
H3357 H 0.55547 0.69218 0.45244 0.0
H3358 H 0.58205 0.72054 0.45253 0.0
H3359 H 0.59135 0.72056 0.50909 0.0
H3360 H 0.56468 0.69235 0.50937 0.0
H3361 H 0.52804 0.57475 0.48264 0.0
H3362 H 0.52195 0.60342 0.47108 0.0
H3363 H 0.54654 0.6367 0.51983 0.0
H3364 H 0.55309 0.60832 0.53127 0.0
H3365 H 0.55782 0.65643 0.493 0.0
H3366 H 0.49935 0.6209 0.50959 0.0
H3367 H 0.47246 0.59293 0.50985 0.0
H3368 H 0.46164 0.59376 0.45358 0.0
H3369 H 0.48864 0.62155 0.45292 0.0
C3370 C 0.52379 0.72565 0.46993 0.0
C3371 C 0.51623 0.72483 0.45241 0.0
C3372 C 0.52593 0.70897 0.47719 0.0
C3373 C 0.52081 0.69119 0.46699 0.0
C3374 C 0.5127 0.69027 0.4497 0.0
C3375 C 0.51043 0.7069 0.44248 0.0
C3376 C 0.52433 0.67365 0.47411 0.0
C3377 C 0.50983 0.65686 0.47395 0.0
C3378 C 0.54185 0.67342 0.48112 0.0
C3379 C 0.55798 0.69027 0.48094 0.0
C3380 C 0.56312 0.69831 0.46491 0.0
C3381 C 0.57821 0.71435 0.46489 0.0
C3382 C 0.58835 0.72238 0.48081 0.0
C3383 C 0.58347 0.71435 0.49677 0.0
C3384 C 0.56837 0.69833 0.49687 0.0
C3385 C 0.53217 0.58817 0.49091 0.0
C3386 C 0.54109 0.58918 0.50789 0.0
C3387 C 0.52857 0.60456 0.48431 0.0
C3388 C 0.53358 0.62225 0.49465 0.0
C3389 C 0.54254 0.62327 0.51157 0.0
C3390 C 0.54626 0.60697 0.51811 0.0
C3391 C 0.52982 0.6398 0.4878 0.0
C3392 C 0.5443 0.6566 0.48796 0.0
C3393 C 0.51228 0.64003 0.48084 0.0
C3394 C 0.49612 0.62322 0.48118 0.0
C3395 C 0.49134 0.61502 0.49724 0.0
C3396 C 0.47607 0.59921 0.49746 0.0
C3397 C 0.46537 0.59159 0.48174 0.0
C3398 C 0.46995 0.59969 0.46575 0.0
C3399 C 0.48523 0.61547 0.46544 0.0
H3400 H 0.45349 0.57947 0.48197 0.0
H3401 H 0.60003 0.73479 0.48077 0.0
H3402 H 0.64844 0.31307 0.64009 0.0
H3403 H 0.67649 0.31417 0.65795 0.0
H3404 H 0.65084 0.32317 0.7058 0.0
H3405 H 0.6227 0.32205 0.68801 0.0
H3406 H 0.68708 0.34631 0.70604 0.0
H3407 H 0.65297 0.27949 0.69377 0.0
H3408 H 0.63679 0.25076 0.67416 0.0
H3409 H 0.68547 0.25357 0.64763 0.0
H3410 H 0.70187 0.28251 0.66692 0.0
H3411 H 0.74408 0.31925 0.77094 0.0
H3412 H 0.71907 0.32341 0.75145 0.0
H3413 H 0.7429 0.30435 0.70588 0.0
H3414 H 0.76762 0.29954 0.72536 0.0
H3415 H 0.70846 0.28744 0.7032 0.0
H3416 H 0.74338 0.35278 0.71527 0.0
H3417 H 0.76027 0.38216 0.73366 0.0
H3418 H 0.71171 0.38332 0.75895 0.0
H3419 H 0.69457 0.35379 0.74087 0.0
C3420 C 0.64883 0.3155 0.6544 0.0
C3421 C 0.63333 0.31738 0.66266 0.0
C3422 C 0.66485 0.31606 0.66459 0.0
C3423 C 0.66569 0.31856 0.68321 0.0
C3424 C 0.65047 0.32122 0.69145 0.0
C3425 C 0.6344 0.32052 0.68127 0.0
C3426 C 0.68209 0.31744 0.69414 0.0
C3427 C 0.69169 0.33339 0.70558 0.0
C3428 C 0.68839 0.30078 0.69313 0.0
C3429 C 0.67859 0.28328 0.68166 0.0
C3430 C 0.66018 0.27407 0.68366 0.0
C3431 C 0.65098 0.25774 0.67262 0.0
C3432 C 0.66008 0.25038 0.65962 0.0
C3433 C 0.67843 0.25931 0.65768 0.0
C3434 C 0.68769 0.27567 0.66867 0.0
C3435 C 0.74409 0.31609 0.75675 0.0
C3436 C 0.75787 0.30904 0.74973 0.0
C3437 C 0.7298 0.31857 0.74559 0.0
C3438 C 0.72914 0.31443 0.72711 0.0
C3439 C 0.74304 0.30763 0.72007 0.0
C3440 C 0.75721 0.30492 0.73124 0.0
C3441 C 0.71356 0.31632 0.71526 0.0
C3442 C 0.70403 0.30047 0.70364 0.0
C3443 C 0.70749 0.33317 0.71595 0.0
C3444 C 0.71773 0.35097 0.72682 0.0
C3445 C 0.73633 0.35922 0.72484 0.0
C3446 C 0.74595 0.37591 0.7352 0.0
C3447 C 0.73708 0.38457 0.7475 0.0
C3448 C 0.71856 0.37658 0.74943 0.0
C3449 C 0.70888 0.35988 0.73912 0.0
H3450 H 0.74455 0.3975 0.7555 0.0
H3451 H 0.65293 0.23774 0.65108 0.0
H3452 H 0.02637 0.33719 0.93237 0.0
H3453 H 0.02909 0.36906 0.94676 0.0
H3454 H 0.01103 0.3434 0.99492 0.0
H3455 H 1.00794 0.31137 0.98042 0.0
H3456 H 0.99469 0.3701 0.9887 0.0
H3457 H 0.05619 0.3671 0.99085 0.0
H3458 H 0.08458 0.36259 0.97982 0.0
H3459 H 0.08768 0.40872 0.94597 0.0
H3460 H 0.05914 0.41332 0.95658 0.0
H3461 H 0.05426 0.47069 0.03151 0.0
H3462 H 0.0504 0.43769 0.01984 0.0
H3463 H 1.00075 0.43814 0.98995 0.0
H3464 H 1.00427 0.47122 1.00213 0.0
H3465 H 0.05128 0.42338 0.98853 0.0
H3466 H 0.97269 0.39246 0.98247 0.0
H3467 H 0.94609 0.39645 0.99763 0.0
H3468 H 0.9799 0.41668 0.04603 0.0
H3469 H 1.00664 0.41257 0.03123 0.0
C3470 C 0.02305 0.33832 0.94605 0.0
C3471 C 0.017 0.32174 0.95527 0.0
C3472 C 0.02467 0.35659 0.9543 0.0
C3473 C 0.02046 0.35873 0.97202 0.0
C3474 C 0.01437 0.34216 0.98125 0.0
C3475 C 0.01268 0.32386 0.97297 0.0
C3476 C 0.02218 0.37821 0.9808 0.0
C3477 C 1.00707 0.38175 0.98866 0.0
C3478 C 0.03842 0.39339 0.98108 0.0
C3479 C 0.05539 0.3904 0.97437 0.0
C3480 C 0.0628 0.37614 0.9809 0.0
C3481 C 0.07895 0.3736 0.97476 0.0
C3482 C 0.08789 0.38531 0.96216 0.0
C3483 C 0.08071 0.39962 0.9557 0.0
C3484 C 0.06455 0.4022 0.96177 0.0
C3485 C 0.04241 0.46378 0.02256 0.0
C3486 C 0.02957 0.47365 0.01774 0.0
C3487 C 0.04026 0.44485 0.01583 0.0
C3488 C 0.02527 0.43528 0.00401 0.0
C3489 C 0.0123 0.44503 0.99926 0.0
C3490 C 0.01434 0.46398 0.00619 0.0
C3491 C 0.02374 0.41538 0.9963 0.0
C3492 C 0.03887 0.41176 0.98856 0.0
C3493 C 1.00771 0.40002 0.9966 0.0
C3494 C 0.99169 0.4024 0.00567 0.0
C3495 C 0.97443 0.3977 0.99636 0.0
C3496 C 0.95933 0.39999 0.00489 0.0
C3497 C 0.96132 0.40688 0.02277 0.0
C3498 C 0.97839 0.41142 0.03217 0.0
C3499 C 0.99353 0.40914 0.0237 0.0
H3500 H 0.94961 0.40865 0.02934 0.0
H3501 H 0.1004 0.38334 0.95743 0.0
H3502 H 0.01892 0.80646 0.13885 0.0
H3503 H 0.99191 0.80608 0.15483 0.0
H3504 H 0.01777 0.79094 0.2019 0.0
H3505 H 0.04479 0.7912 0.18596 0.0
H3506 H 0.9828 0.76889 0.19515 0.0
H3507 H 0.0147 0.83609 0.19879 0.0
H3508 H 0.03015 0.86664 0.18667 0.0
H3509 H 0.98074 0.86585 0.1563 0.0
H3510 H 0.96506 0.83511 0.16802 0.0
H3511 H 0.9259 0.787 0.25973 0.0
H3512 H 0.95235 0.79017 0.24246 0.0
H3513 H 0.92194 0.80147 0.19654 0.0
H3514 H 0.89509 0.79783 0.21362 0.0
H3515 H 0.95832 0.82558 0.20153 0.0
H3516 H 0.92647 0.75857 0.19787 0.0
H3517 H 0.91108 0.7278 0.20963 0.0
H3518 H 0.96056 0.72823 0.23971 0.0
H3519 H 0.97618 0.75919 0.22834 0.0
C3520 C 0.01885 0.80305 0.1526 0.0
C3521 C 0.03398 0.79886 0.16116 0.0
C3522 C 1.00344 0.80293 0.16174 0.0
C3523 C 1.00289 0.79866 0.1796 0.0
C3524 C 0.01792 0.7943 0.18812 0.0
C3525 C 0.03336 0.79449 0.17902 0.0
C3526 C 0.98653 0.7984 0.18936 0.0
C3527 C 0.9776 0.78137 0.19673 0.0
C3528 C 0.97944 0.81453 0.19099 0.0
C3529 C 0.98875 0.83318 0.18415 0.0
C3530 C 1.00716 0.84235 0.18943 0.0
C3531 C 0.01596 0.85971 0.18264 0.0
C3532 C 1.00645 0.86815 0.17068 0.0
C3533 C 0.9881 0.85928 0.16554 0.0
C3534 C 0.97924 0.8419 0.17226 0.0
C3535 C 0.92471 0.79001 0.24592 0.0
C3536 C 0.90821 0.79183 0.23802 0.0
C3537 C 0.93993 0.79197 0.23611 0.0
C3538 C 0.93905 0.79583 0.21817 0.0
C3539 C 0.92289 0.79848 0.21037 0.0
C3540 C 0.90757 0.79642 0.22018 0.0
C3541 C 0.95478 0.79614 0.20747 0.0
C3542 C 0.96354 0.81313 0.1999 0.0
C3543 C 0.96175 0.77997 0.20561 0.0
C3544 C 0.95244 0.76129 0.21238 0.0
C3545 C 0.93403 0.75219 0.20711 0.0
C3546 C 0.92527 0.7347 0.21369 0.0
C3547 C 0.93482 0.72609 0.22545 0.0
C3548 C 0.95317 0.73493 0.23062 0.0
C3549 C 0.96199 0.75244 0.2241 0.0
H3550 H 0.92802 0.71255 0.23053 0.0
H3551 H 0.01329 0.88158 0.16542 0.0
H3552 H 0.52566 0.32797 0.10414 0.0
H3553 H 0.52681 0.35674 0.08802 0.0
H3554 H 0.55463 0.39268 0.13414 0.0
H3555 H 0.55372 0.36392 0.1501 0.0
H3556 H 0.51414 0.38574 0.08778 0.0
H3557 H 0.5785 0.43796 0.12453 0.0
H3558 H 0.60761 0.43713 0.13986 0.0
H3559 H 0.60548 0.38452 0.10936 0.0
H3560 H 0.57648 0.38515 0.09371 0.0
H3561 H 0.52037 0.48442 0.06604 0.0
H3562 H 0.51958 0.4553 0.08151 0.0
H3563 H 0.56559 0.44832 0.0545 0.0
H3564 H 0.56601 0.47711 0.03852 0.0
H3565 H 0.56991 0.44024 0.08978 0.0
H3566 H 0.52292 0.42029 0.04356 0.0
H3567 H 0.49482 0.41902 0.02535 0.0
H3568 H 0.4634 0.40368 0.07015 0.0
H3569 H 0.49141 0.40585 0.08891 0.0
C3570 C 0.53215 0.34195 0.11094 0.0
C3571 C 0.53969 0.34304 0.12871 0.0
C3572 C 0.53275 0.35872 0.10158 0.0
C3573 C 0.54108 0.37768 0.1093 0.0
C3574 C 0.54845 0.37873 0.12716 0.0
C3575 C 0.54781 0.36197 0.13653 0.0
C3576 C 0.54187 0.39597 0.09888 0.0
C3577 C 0.52639 0.39763 0.0885 0.0
C3578 C 0.55775 0.41194 0.09888 0.0
C3579 C 0.57523 0.41151 0.1081 0.0
C3580 C 0.58428 0.42625 0.12106 0.0
C3581 C 0.60075 0.42581 0.12982 0.0
C3582 C 0.60836 0.41075 0.12563 0.0
C3583 C 0.59954 0.39613 0.11264 0.0
C3584 C 0.58308 0.39651 0.10384 0.0
C3585 C 0.53041 0.47681 0.06328 0.0
C3586 C 0.54329 0.48372 0.05072 0.0
C3587 C 0.52991 0.45982 0.07225 0.0
C3588 C 0.54251 0.44889 0.06955 0.0
C3589 C 0.55559 0.45599 0.05723 0.0
C3590 C 0.5558 0.4727 0.04791 0.0
C3591 C 0.54197 0.4303 0.0793 0.0
C3592 C 0.55755 0.42851 0.08937 0.0
C3593 C 0.52621 0.41415 0.07887 0.0
C3594 C 0.50938 0.41357 0.06777 0.0
C3595 C 0.51009 0.41707 0.04967 0.0
C3596 C 0.49415 0.41618 0.03923 0.0
C3597 C 0.47734 0.41143 0.04662 0.0
C3598 C 0.47644 0.40753 0.06447 0.0
C3599 C 0.49237 0.40871 0.07505 0.0
H3600 H 0.465 0.41067 0.03851 0.0
H3601 H 0.6211 0.41042 0.13244 0.0
H3602 H 1.0006 0.29683 0.34133 0.0
H3603 H 0.97076 0.29778 0.3281 0.0
H3604 H 0.94419 0.25984 0.36606 0.0
H3605 H 0.97407 0.25891 0.37928 0.0
H3606 H 0.92333 0.24938 0.33653 0.0
H3607 H 0.94792 0.31213 0.36604 0.0
H3608 H 0.97047 0.3436 0.37329 0.0
H3609 H 0.96621 0.35673 0.31883 0.0
H3610 H 0.94379 0.32521 0.31121 0.0
H3611 H 0.83308 0.2593 0.31347 0.0
H3612 H 0.86245 0.25825 0.32725 0.0
H3613 H 0.88971 0.30499 0.29734 0.0
H3614 H 0.86006 0.30696 0.28467 0.0
H3615 H 0.91067 0.31076 0.32312 0.0
H3616 H 0.88674 0.24683 0.29324 0.0
H3617 H 0.86517 0.21463 0.28629 0.0
H3618 H 0.86863 0.20329 0.34129 0.0
H3619 H 0.89008 0.23539 0.34857 0.0
C3620 C 0.98849 0.2886 0.34697 0.0
C3621 C 0.9904 0.27776 0.36165 0.0
C3622 C 0.97107 0.28928 0.33935 0.0
C3623 C 0.95434 0.27912 0.34587 0.0
C3624 C 0.95629 0.268 0.36036 0.0
C3625 C 0.97372 0.26748 0.36808 0.0
C3626 C 0.93518 0.27994 0.33773 0.0
C3627 C 0.92069 0.26295 0.33382 0.0
C3628 C 0.93088 0.2973 0.3335 0.0
C3629 C 0.94432 0.31623 0.33802 0.0
C3630 C 0.95189 0.32167 0.35559 0.0
C3631 C 0.96463 0.33953 0.35977 0.0
C3632 C 0.96981 0.35213 0.34652 0.0
C3633 C 0.96221 0.34693 0.32907 0.0
C3634 C 0.94948 0.32908 0.32482 0.0
C3635 C 0.84526 0.26942 0.30969 0.0
C3636 C 0.84351 0.28319 0.29759 0.0
C3637 C 0.86254 0.26863 0.31754 0.0
C3638 C 0.87945 0.28106 0.31335 0.0
C3639 C 0.87759 0.29491 0.30128 0.0
C3640 C 0.86026 0.29604 0.29378 0.0
C3641 C 0.89865 0.28008 0.32158 0.0
C3642 C 0.91321 0.2971 0.32561 0.0
C3643 C 0.90304 0.26269 0.32584 0.0
C3644 C 0.88988 0.24357 0.32147 0.0
C3645 C 0.8828 0.2375 0.30385 0.0
C3646 C 0.87062 0.21925 0.29986 0.0
C3647 C 0.86556 0.20693 0.31335 0.0
C3648 C 0.87259 0.21283 0.33085 0.0
C3649 C 0.88475 0.23103 0.33492 0.0
H3650 H 0.85623 0.19278 0.31026 0.0
H3651 H 0.97967 0.36595 0.34978 0.0
H3652 H 0.04158 0.74921 0.60539 0.0
H3653 H 0.04232 0.71909 0.58926 0.0
H3654 H 0.0278 0.68881 0.63591 0.0
H3655 H 0.0275 0.71914 0.65219 0.0
H3656 H 0.05003 0.67267 0.6218 0.0
H3657 H 0.99752 0.68622 0.59409 0.0
H3658 H 0.98007 0.70531 0.57858 0.0
H3659 H 0.01444 0.70921 0.53523 0.0
H3660 H 0.03224 0.69033 0.55059 0.0
H3661 H 0.02917 0.57758 0.57661 0.0
H3662 H 0.02821 0.60769 0.59263 0.0
H3663 H 0.04529 0.63841 0.54681 0.0
H3664 H 0.04606 0.60819 0.53065 0.0
H3665 H 0.02168 0.65414 0.56044 0.0
H3666 H 0.07429 0.64081 0.58831 0.0
H3667 H 0.09129 0.62112 0.60355 0.0
H3668 H 0.05622 0.61629 0.64635 0.0
H3669 H 0.03885 0.63583 0.63121 0.0
C3670 C 0.0384 0.73618 0.61231 0.0
C3671 C 0.03431 0.7371 0.63033 0.0
C3672 C 0.03872 0.71861 0.60289 0.0
C3673 C 0.03478 0.70082 0.61086 0.0
C3674 C 0.03088 0.70182 0.62896 0.0
C3675 C 0.03061 0.71942 0.6384 0.0
C3676 C 0.03493 0.68154 0.60057 0.0
C3677 C 0.04353 0.66869 0.60848 0.0
C3678 C 0.02697 0.67569 0.58283 0.0
C3679 C 0.01633 0.68704 0.57358 0.0
C3680 C 1.00144 0.69127 0.58131 0.0
C3681 C 0.99147 0.70203 0.57254 0.0
C3682 C 0.99618 0.70852 0.55595 0.0
C3683 C 0.01083 0.70421 0.54809 0.0
C3684 C 0.02085 0.69347 0.55681 0.0
C3685 C 0.0328 0.59067 0.56981 0.0
C3686 C 0.03779 0.58991 0.55206 0.0
C3687 C 0.03236 0.60822 0.57918 0.0
C3688 C 0.03695 0.6261 0.57141 0.0
C3689 C 0.04167 0.62528 0.55357 0.0
C3690 C 0.04218 0.60773 0.5442 0.0
C3691 C 0.03676 0.64534 0.58167 0.0
C3692 C 0.02816 0.65816 0.57376 0.0
C3693 C 0.0447 0.65116 0.5994 0.0
C3694 C 0.0552 0.63964 0.6086 0.0
C3695 C 0.07015 0.63547 0.60093 0.0
C3696 C 0.07985 0.62436 0.60955 0.0
C3697 C 0.0748 0.61743 0.6259 0.0
C3698 C 0.06008 0.62166 0.63369 0.0
C3699 C 0.05033 0.63278 0.62512 0.0
H3700 H 0.08231 0.60881 0.63254 0.0
H3701 H 0.98845 0.71684 0.54918 0.0
H3702 H 0.61472 0.80719 0.87769 0.0
H3703 H 0.64354 0.80876 0.86418 0.0
H3704 H 0.61652 0.75939 0.82864 0.0
H3705 H 0.58758 0.75804 0.84196 0.0
H3706 H 0.64972 0.75539 0.83873 0.0
H3707 H 0.63208 0.8086 0.8157 0.0
H3708 H 0.62356 0.83911 0.81691 0.0
H3709 H 0.67404 0.8676 0.84696 0.0
H3710 H 0.68275 0.83718 0.84614 0.0
H3711 H 0.72406 0.75924 0.78324 0.0
H3712 H 0.69545 0.75882 0.79616 0.0
H3713 H 0.72047 0.81459 0.82316 0.0
H3714 H 0.74907 0.81536 0.8094 0.0
H3715 H 0.68832 0.81559 0.81811 0.0
H3716 H 0.70618 0.76412 0.84314 0.0
H3717 H 0.71571 0.73422 0.84371 0.0
H3718 H 0.66643 0.70321 0.81295 0.0
H3719 H 0.65667 0.73296 0.81205 0.0
C3720 C 0.6147 0.79663 0.86692 0.0
C3721 C 0.59812 0.78252 0.86117 0.0
C3722 C 0.63152 0.7976 0.85899 0.0
C3723 C 0.63303 0.78434 0.84488 0.0
C3724 C 0.6165 0.77004 0.83931 0.0
C3725 C 0.5996 0.76929 0.84703 0.0
C3726 C 0.65149 0.78521 0.8362 0.0
C3727 C 0.65789 0.76862 0.83405 0.0
C3728 C 0.66329 0.80233 0.8303 0.0
C3729 C 0.65797 0.82055 0.83103 0.0
C3730 C 0.64128 0.82132 0.82271 0.0
C3731 C 0.63644 0.83861 0.8233 0.0
C3732 C 0.64823 0.85528 0.83204 0.0
C3733 C 0.6649 0.85468 0.84022 0.0
C3734 C 0.6698 0.83742 0.83969 0.0
C3735 C 0.7237 0.77156 0.79189 0.0
C3736 C 0.73962 0.78733 0.79494 0.0
C3737 C 0.70698 0.77121 0.79969 0.0
C3738 C 0.70495 0.7864 0.81153 0.0
C3739 C 0.72082 0.80235 0.81438 0.0
C3740 C 0.73756 0.80281 0.80636 0.0
C3741 C 0.68662 0.78571 0.82055 0.0
C3742 C 0.68023 0.80233 0.82279 0.0
C3743 C 0.67499 0.7687 0.82688 0.0
C3744 C 0.68079 0.7508 0.82737 0.0
C3745 C 0.69743 0.75095 0.8364 0.0
C3746 C 0.70286 0.73403 0.8368 0.0
C3747 C 0.69171 0.71685 0.82832 0.0
C3748 C 0.67507 0.71654 0.81948 0.0
C3749 C 0.66957 0.73342 0.81904 0.0
H3750 H 0.69595 0.70377 0.82864 0.0
H3751 H 0.64448 0.86866 0.83244 0.0
H3752 H 0.41157 0.55232 0.6695 0.0
H3753 H 0.42703 0.5603 0.64229 0.0
H3754 H 0.4764 0.5527 0.66752 0.0
H3755 H 0.46118 0.54501 0.69469 0.0
H3756 H 0.48322 0.58393 0.64784 0.0
H3757 H 0.44608 0.51655 0.64091 0.0
H3758 H 0.41692 0.49115 0.63911 0.0
H3759 H 0.39637 0.51729 0.59599 0.0
H3760 H 0.4253 0.54306 0.59777 0.0
H3761 H 0.53671 0.55207 0.58861 0.0
H3762 H 0.51708 0.55792 0.61126 0.0
H3763 H 0.47597 0.56016 0.57049 0.0
H3764 H 0.49541 0.55375 0.54766 0.0
H3765 H 0.46102 0.53835 0.59452 0.0
H3766 H 0.49998 0.60124 0.59658 0.0
H3767 H 0.52884 0.62689 0.59745 0.0
H3768 H 0.54542 0.61112 0.64829 0.0
H3769 H 0.51679 0.58517 0.64762 0.0
C3770 C 0.42579 0.55254 0.66926 0.0
C3771 C 0.43517 0.54789 0.68413 0.0
C3772 C 0.43456 0.55708 0.65373 0.0
C3773 C 0.4528 0.55693 0.65288 0.0
C3774 C 0.46232 0.55295 0.66793 0.0
C3775 C 0.45359 0.54844 0.68342 0.0
C3776 C 0.46187 0.55966 0.6361 0.0
C3777 C 0.47842 0.57401 0.63614 0.0
C3778 C 0.45512 0.54726 0.62059 0.0
C3779 C 0.43774 0.53184 0.61962 0.0
C3780 C 0.43527 0.51697 0.63116 0.0
C3781 C 0.4188 0.50251 0.63013 0.0
C3782 C 0.40477 0.50266 0.6175 0.0
C3783 C 0.40721 0.51725 0.60583 0.0
C3784 C 0.42363 0.53179 0.60684 0.0
C3785 C 0.52357 0.55397 0.58443 0.0
C3786 C 0.51759 0.55238 0.56635 0.0
C3787 C 0.5124 0.55749 0.59741 0.0
C3788 C 0.49517 0.55982 0.59258 0.0
C3789 C 0.48926 0.55851 0.57451 0.0
C3790 C 0.50037 0.55481 0.5615 0.0
C3791 C 0.48291 0.56203 0.60653 0.0
C3792 C 0.4657 0.54868 0.60596 0.0
C3793 C 0.48896 0.57551 0.62145 0.0
C3794 C 0.50623 0.59118 0.62201 0.0
C3795 C 0.50982 0.60315 0.6079 0.0
C3796 C 0.52615 0.61776 0.60837 0.0
C3797 C 0.53896 0.62062 0.62291 0.0
C3798 C 0.53547 0.60889 0.63704 0.0
C3799 C 0.51918 0.59425 0.63664 0.0
H3800 H 0.55159 0.63194 0.62324 0.0
H3801 H 0.39204 0.49143 0.61671 0.0
H3802 H 0.8173 0.17543 0.99185 0.0
H3803 H 0.81065 0.19265 0.96657 0.0
H3804 H 0.78383 0.22481 1.00025 0.0
H3805 H 0.79052 0.2077 0.02566 0.0
H3806 H 0.76305 0.20769 0.96885 0.0
H3807 H 0.82333 0.24723 0.98695 0.0
H3808 H 0.8562 0.25395 0.9953 0.0
H3809 H 0.86413 0.22997 0.94407 0.0
H3810 H 0.83123 0.22282 0.93548 0.0
H3811 H 0.75162 0.2726 0.90461 0.0
H3812 H 0.7586 0.25764 0.9313 0.0
H3813 H 0.79193 0.22931 0.90186 0.0
H3814 H 0.78576 0.24486 0.87544 0.0
H3815 H 0.80942 0.24565 0.93214 0.0
H3816 H 0.74984 0.20459 0.91409 0.0
H3817 H 0.71696 0.19655 0.90525 0.0
H3818 H 0.70764 0.22168 0.95548 0.0
H3819 H 0.74052 0.23011 0.96453 0.0
C3820 C 0.81021 0.18636 0.99392 0.0
C3821 C 0.80443 0.19026 0.01069 0.0
C3822 C 0.80644 0.19618 0.97949 0.0
C3823 C 0.79679 0.21 0.98161 0.0
C3824 C 0.7913 0.21418 0.99841 0.0
C3825 C 0.79521 0.20449 0.01289 0.0
C3826 C 0.79171 0.21937 0.96605 0.0
C3827 C 0.77315 0.21628 0.96096 0.0
C3828 C 0.80496 0.23004 0.95554 0.0
C3829 C 0.82476 0.23432 0.96064 0.0
C3830 C 0.83204 0.24322 0.97752 0.0
C3831 C 0.85069 0.24714 0.98227 0.0
C3832 C 0.86223 0.24234 0.97023 0.0
C3833 C 0.85515 0.23365 0.95338 0.0
C3834 C 0.83651 0.22967 0.94855 0.0
C3835 C 0.76042 0.26316 0.90383 0.0
C3836 C 0.7681 0.25991 0.88789 0.0
C3837 C 0.76426 0.25449 0.91905 0.0
C3838 C 0.7757 0.24227 0.91853 0.0
C3839 C 0.78306 0.23868 0.90254 0.0
C3840 C 0.77933 0.24742 0.88738 0.0
C3841 C 0.78071 0.23387 0.9348 0.0
C3842 C 0.79927 0.23714 0.94004 0.0
C3843 C 0.76746 0.22318 0.94533 0.0
C3844 C 0.74768 0.21818 0.93991 0.0
C3845 C 0.74081 0.20856 0.92319 0.0
C3846 C 0.72216 0.20389 0.91815 0.0
C3847 C 0.71022 0.20865 0.92978 0.0
C3848 C 0.7169 0.21803 0.94648 0.0
C3849 C 0.73554 0.22275 0.95157 0.0
H3850 H 0.69579 0.20502 0.92586 0.0
H3851 H 0.87667 0.24539 0.97393 0.0
H3852 H 0.12798 0.52643 0.2061 0.0
H3853 H 0.10655 0.51803 0.1799 0.0
H3854 H 0.12787 0.47053 0.16474 0.0
H3855 H 0.1494 0.47871 0.1914 0.0
H3856 H 0.12458 0.49712 0.13739 0.0
H3857 H 0.08855 0.45768 0.17754 0.0
H3858 H 0.07537 0.45028 0.20614 0.0
H3859 H 0.04718 0.49375 0.2012 0.0
H3860 H 0.06042 0.50163 0.1727 0.0
H3861 H 0.05899 0.4871 0.06559 0.0
H3862 H 0.07396 0.47575 0.09063 0.0
H3863 H 0.0588 0.51638 0.12656 0.0
H3864 H 0.04364 0.5275 0.10149 0.0
H3865 H 0.05788 0.48337 0.142 0.0
H3866 H 0.09858 0.52838 0.10823 0.0
H3867 H 0.11426 0.54094 0.08205 0.0
H3868 H 0.13531 0.4918 0.07678 0.0
H3869 H 0.11944 0.47875 0.10277 0.0
C3870 C 0.12816 0.51419 0.19723 0.0
C3871 C 0.14038 0.50323 0.20074 0.0
C3872 C 0.11581 0.50933 0.18235 0.0
C3873 C 0.11551 0.49353 0.17061 0.0
C3874 C 0.12785 0.48267 0.17382 0.0
C3875 C 0.14012 0.48738 0.18896 0.0
C3876 C 0.10274 0.48933 0.15458 0.0
C3877 C 0.10993 0.49343 0.13819 0.0
C3878 C 0.08373 0.48511 0.15592 0.0
C3879 C 0.07554 0.48028 0.17298 0.0
C3880 C 0.07963 0.46575 0.1826 0.0
C3881 C 0.07213 0.46146 0.19879 0.0
C3882 C 0.06045 0.47155 0.20549 0.0
C3883 C 0.05622 0.48593 0.19599 0.0
C3884 C 0.06369 0.49029 0.17979 0.0
C3885 C 0.05837 0.49306 0.07896 0.0
C3886 C 0.05014 0.50796 0.08186 0.0
C3887 C 0.06697 0.48668 0.09318 0.0
C3888 C 0.06765 0.49539 0.11038 0.0
C3889 C 0.05834 0.50942 0.11338 0.0
C3890 C 0.0497 0.51576 0.09914 0.0
C3891 C 0.07976 0.49169 0.12488 0.0
C3892 C 0.07244 0.48623 0.14098 0.0
C3893 C 0.09874 0.49509 0.12338 0.0
C3894 C 0.10762 0.50246 0.10729 0.0
C3895 C 0.10634 0.52012 0.10134 0.0
C3896 C 0.11531 0.52736 0.08659 0.0
C3897 C 0.12583 0.51722 0.07783 0.0
C3898 C 0.1272 0.49967 0.08364 0.0
C3899 C 0.11818 0.49232 0.09835 0.0
H3900 H 0.13295 0.52299 0.06655 0.0
H3901 H 0.05467 0.46821 0.21804 0.0
H3902 H 0.76201 0.84893 0.4681 0.0
H3903 H 0.76313 0.83843 0.4369 0.0
H3904 H 0.81368 0.825 0.44982 0.0
H3905 H 0.81256 0.83543 0.48117 0.0
H3906 H 0.81539 0.84582 0.4202 0.0
H3907 H 0.77454 0.78928 0.43996 0.0
H3908 H 0.74751 0.77103 0.45395 0.0
H3909 H 0.71263 0.7887 0.4159 0.0
H3910 H 0.73947 0.80729 0.40183 0.0
H3911 H 0.82018 0.80088 0.33462 0.0
H3912 H 0.8195 0.80886 0.36642 0.0
H3913 H 0.76442 0.81268 0.35761 0.0
H3914 H 0.76477 0.80385 0.32597 0.0
H3915 H 0.76554 0.79606 0.38579 0.0
H3916 H 0.80478 0.85371 0.36681 0.0
H3917 H 0.83099 0.87351 0.35271 0.0
H3918 H 0.86778 0.85605 0.38883 0.0
H3919 H 0.84178 0.83594 0.403 0.0
C3920 C 0.77326 0.84351 0.46438 0.0
C3921 C 0.78714 0.84293 0.47725 0.0
C3922 C 0.77389 0.83748 0.44646 0.0
C3923 C 0.78845 0.83079 0.44085 0.0
C3924 C 0.80227 0.83007 0.45371 0.0
C3925 C 0.80156 0.83592 0.47169 0.0
C3926 C 0.78946 0.82509 0.42154 0.0
C3927 C 0.80461 0.83472 0.41275 0.0
C3928 C 0.77519 0.81103 0.41153 0.0
C3929 C 0.75903 0.79983 0.41995 0.0
C3930 C 0.76111 0.78941 0.43467 0.0
C3931 C 0.74582 0.77898 0.4426 0.0
C3932 C 0.72836 0.77874 0.43585 0.0
C3933 C 0.72616 0.78891 0.42113 0.0
C3934 C 0.74141 0.79938 0.41316 0.0
C3935 C 0.80795 0.80355 0.33941 0.0
C3936 C 0.79259 0.80181 0.32756 0.0
C3937 C 0.80759 0.80823 0.3577 0.0
C3938 C 0.792 0.81178 0.36468 0.0
C3939 C 0.77667 0.81006 0.3528 0.0
C3940 C 0.77692 0.80508 0.33458 0.0
C3941 C 0.79146 0.8169 0.38427 0.0
C3942 C 0.77638 0.80715 0.39317 0.0
C3943 C 0.80567 0.83108 0.39432 0.0
C3944 C 0.82133 0.84316 0.38584 0.0
C3945 C 0.81846 0.85399 0.37166 0.0
C3946 C 0.83328 0.86528 0.36367 0.0
C3947 C 0.85104 0.866 0.36984 0.0
C3948 C 0.85402 0.85546 0.38404 0.0
C3949 C 0.83925 0.84412 0.39207 0.0
H3950 H 0.86249 0.87475 0.36363 0.0
H3951 H 0.71654 0.77066 0.44201 0.0
H3952 H 0.41155 0.5024 0.78593 0.0
H3953 H 0.42735 0.49651 0.81316 0.0
H3954 H 0.47802 0.5326 0.79769 0.0
H3955 H 0.46232 0.5384 0.7703 0.0
H3956 H 0.48215 0.49948 0.81069 0.0
H3957 H 0.45487 0.54974 0.82824 0.0
H3958 H 0.4296 0.56458 0.83093 0.0
H3959 H 0.40161 0.51845 0.86084 0.0
H3960 H 0.42663 0.5032 0.85812 0.0
H3961 H 0.53381 0.5179 0.89419 0.0
H3962 H 0.51779 0.51943 0.86563 0.0
H3963 H 0.46745 0.48624 0.88434 0.0
H3964 H 0.4834 0.48483 0.91301 0.0
H3965 H 0.46253 0.51655 0.86943 0.0
H3966 H 0.49011 0.46678 0.85315 0.0
H3967 H 0.51512 0.45157 0.85043 0.0
H3968 H 0.54219 0.49586 0.81819 0.0
H3969 H 0.51746 0.5115 0.82092 0.0
C3970 C 0.42607 0.5091 0.78833 0.0
C3971 C 0.4357 0.52099 0.77606 0.0
C3972 C 0.43505 0.50573 0.8039 0.0
C3973 C 0.45382 0.51428 0.80752 0.0
C3974 C 0.46353 0.52588 0.79514 0.0
C3975 C 0.45454 0.52925 0.77955 0.0
C3976 C 0.46326 0.51137 0.82435 0.0
C3977 C 0.47802 0.5034 0.82356 0.0
C3978 C 0.45753 0.51603 0.84109 0.0
C3979 C 0.44253 0.52524 0.84282 0.0
C3980 C 0.44326 0.54269 0.83528 0.0
C3981 C 0.429 0.55118 0.83682 0.0
C3982 C 0.41399 0.54243 0.84601 0.0
C3983 C 0.41324 0.5252 0.85371 0.0
C3984 C 0.42746 0.51663 0.85218 0.0
C3985 C 0.51939 0.51066 0.8921 0.0
C3986 C 0.50984 0.50125 0.90583 0.0
C3987 C 0.51025 0.51154 0.87577 0.0
C3988 C 0.49144 0.5028 0.87278 0.0
C3989 C 0.48195 0.49311 0.88637 0.0
C3990 C 0.49106 0.49234 0.90274 0.0
C3991 C 0.4815 0.50466 0.85584 0.0
C3992 C 0.46665 0.51249 0.85659 0.0
C3993 C 0.48711 0.4998 0.83908 0.0
C3994 C 0.502 0.49041 0.83738 0.0
C3995 C 0.50146 0.47336 0.8456 0.0
C3996 C 0.51558 0.46465 0.84403 0.0
C3997 C 0.53025 0.47277 0.83418 0.0
C3998 C 0.53082 0.4896 0.82584 0.0
C3999 C 0.51675 0.49838 0.82737 0.0
H4000 H 0.54117 0.466 0.83299 0.0
H4001 H 0.40295 0.54903 0.84719 0.0
H4002 H 0.83583 0.20467 0.09772 0.0
H4003 H 0.83731 0.21885 0.12812 0.0
H4004 H 0.81099 0.16298 0.14528 0.0
H4005 H 0.80923 0.14877 0.11487 0.0
H4006 H 0.79315 0.18883 0.15379 0.0
H4007 H 0.85504 0.18634 0.15989 0.0
H4008 H 0.88656 0.19166 0.15143 0.0
H4009 H 0.89379 0.25269 0.15503 0.0
H4010 H 0.86222 0.24774 0.16327 0.0
H4011 H 0.79058 0.22602 0.24136 0.0
H4012 H 0.79816 0.20726 0.21652 0.0
H4013 H 0.82796 0.25964 0.19529 0.0
H4014 H 0.82107 0.27848 0.22048 0.0
H4015 H 0.84526 0.23304 0.19055 0.0
H4016 H 0.78333 0.23596 0.18016 0.0
H4017 H 0.75151 0.2318 0.18735 0.0
H4018 H 0.74419 0.17117 0.19022 0.0
H4019 H 0.77605 0.17502 0.18327 0.0
C4020 C 0.83075 0.19535 0.10805 0.0
C4021 C 0.82225 0.17567 0.10392 0.0
C4022 C 0.83168 0.20345 0.12543 0.0
C4023 C 0.82427 0.19195 0.13895 0.0
C4024 C 0.81676 0.1721 0.13502 0.0
C4025 C 0.81578 0.16401 0.11766 0.0
C4026 C 0.82228 0.20096 0.15654 0.0
C4027 C 0.80461 0.19815 0.16203 0.0
C4028 C 0.83716 0.2136 0.16696 0.0
C4029 C 0.8562 0.21664 0.16208 0.0
C4030 C 0.8633 0.20089 0.15875 0.0
C4031 C 0.88119 0.20384 0.15402 0.0
C4032 C 0.89216 0.2225 0.15266 0.0
C4033 C 0.88528 0.23825 0.15608 0.0
C4034 C 0.86739 0.23537 0.1608 0.0
C4035 C 0.79886 0.23355 0.23148 0.0
C4036 C 0.80507 0.25374 0.23277 0.0
C4037 C 0.80316 0.2228 0.21728 0.0
C4038 C 0.81335 0.23207 0.20388 0.0
C4039 C 0.82008 0.25219 0.20546 0.0
C4040 C 0.81604 0.26294 0.21982 0.0
C4041 C 0.81613 0.22094 0.18771 0.0
C4042 C 0.83388 0.22345 0.18244 0.0
C4043 C 0.8013 0.20816 0.17731 0.0
C4044 C 0.78212 0.20581 0.18139 0.0
C4045 C 0.77496 0.22176 0.18245 0.0
C4046 C 0.75692 0.21946 0.18646 0.0
C4047 C 0.74586 0.20124 0.18929 0.0
C4048 C 0.75279 0.18528 0.18806 0.0
C4049 C 0.77083 0.18751 0.18407 0.0
H4050 H 0.73189 0.19949 0.1924 0.0
H4051 H 0.90601 0.22475 0.14899 0.0
H4052 H 0.11283 0.51123 0.27145 0.0
H4053 H 0.09253 0.5106 0.29548 0.0
H4054 H 0.13602 0.50888 0.33373 0.0
H4055 H 0.15647 0.50985 0.30986 0.0
H4056 H 0.1 0.48274 0.33831 0.0
H4057 H 0.13038 0.54957 0.32954 0.0
H4058 H 0.13907 0.57734 0.31138 0.0
H4059 H 0.08266 0.57298 0.2983 0.0
H4060 H 0.07363 0.54498 0.31618 0.0
H4061 H 0.08526 0.5222 0.42174 0.0
H4062 H 0.09508 0.51159 0.39376 0.0
H4063 H 0.05071 0.5259 0.36509 0.0
H4064 H 0.0405 0.53615 0.39315 0.0
H4065 H 0.08236 0.54267 0.35261 0.0
H4066 H 0.05138 0.47943 0.36452 0.0
H4067 H 0.0412 0.44988 0.3801 0.0
H4068 H 0.09615 0.44582 0.38591 0.0
H4069 H 0.10672 0.47548 0.37055 0.0
C4070 C 0.11798 0.51053 0.28497 0.0
C4071 C 0.13621 0.51074 0.28888 0.0
C4072 C 0.1064 0.51015 0.29862 0.0
C4073 C 0.11286 0.50972 0.31628 0.0
C4074 C 0.13084 0.50914 0.32013 0.0
C4075 C 0.1425 0.50982 0.30653 0.0
C4076 C 0.10137 0.51128 0.33095 0.0
C4077 C 0.09618 0.49583 0.3416 0.0
C4078 C 0.09591 0.52814 0.33465 0.0
C4079 C 0.10134 0.54504 0.32399 0.0
C4080 C 0.11983 0.55442 0.32265 0.0
C4081 C 0.12482 0.57022 0.31243 0.0
C4082 C 0.11143 0.57688 0.30364 0.0
C4083 C 0.09302 0.56778 0.30508 0.0
C4084 C 0.08796 0.55195 0.31526 0.0
C4085 C 0.0773 0.52266 0.40954 0.0
C4086 C 0.06218 0.53018 0.40967 0.0
C4087 C 0.08292 0.51655 0.39354 0.0
C4088 C 0.07355 0.51786 0.37736 0.0
C4089 C 0.05811 0.52477 0.37746 0.0
C4090 C 0.05242 0.53079 0.39347 0.0
C4091 C 0.08121 0.51421 0.36043 0.0
C4092 C 0.08581 0.52936 0.3493 0.0
C4093 C 0.08595 0.49697 0.35623 0.0
C4094 C 0.07986 0.47976 0.36643 0.0
C4095 C 0.06134 0.47238 0.36931 0.0
C4096 C 0.05547 0.45553 0.378 0.0
C4097 C 0.068 0.4459 0.38386 0.0
C4098 C 0.08645 0.45323 0.38125 0.0
C4099 C 0.09238 0.47005 0.37255 0.0
H4100 H 0.06342 0.43281 0.39052 0.0
H4101 H 0.11532 0.58912 0.29574 0.0
H4102 H 0.76774 0.82159 0.57195 0.0
H4103 H 0.76578 0.81084 0.60223 0.0
H4104 H 0.80605 0.86317 0.62217 0.0
H4105 H 0.80799 0.87393 0.59213 0.0
H4106 H 0.81287 0.83241 0.63716 0.0
H4107 H 0.76066 0.85689 0.62735 0.0
H4108 H 0.7321 0.85863 0.61155 0.0
H4109 H 0.70721 0.79933 0.61949 0.0
H4110 H 0.73572 0.79717 0.63514 0.0
H4111 H 0.80332 0.83249 0.72956 0.0
H4112 H 0.80319 0.84073 0.69869 0.0
H4113 H 0.76026 0.7888 0.68369 0.0
H4114 H 0.76015 0.78056 0.71468 0.0
H4115 H 0.7543 0.81715 0.66551 0.0
H4116 H 0.80507 0.79226 0.67621 0.0
H4117 H 0.83329 0.78934 0.69179 0.0
H4118 H 0.8608 0.84729 0.68153 0.0
H4119 H 0.83263 0.85069 0.66616 0.0
C4120 C 0.77622 0.83076 0.58278 0.0
C4121 C 0.78799 0.84867 0.57951 0.0
C4122 C 0.77504 0.82464 0.60015 0.0
C4123 C 0.78567 0.83622 0.61469 0.0
C4124 C 0.79768 0.8539 0.61133 0.0
C4125 C 0.79874 0.86008 0.59406 0.0
C4126 C 0.78425 0.83021 0.63343 0.0
C4127 C 0.80008 0.82928 0.64339 0.0
C4128 C 0.76752 0.82551 0.64159 0.0
C4129 C 0.75038 0.82681 0.63224 0.0
C4130 C 0.74914 0.84418 0.6256 0.0
C4131 C 0.73296 0.84525 0.6167 0.0
C4132 C 0.71787 0.82908 0.61447 0.0
C4133 C 0.71892 0.81183 0.6212 0.0
C4134 C 0.73508 0.81067 0.63009 0.0
C4135 C 0.79367 0.82287 0.71978 0.0
C4136 C 0.78177 0.80578 0.72477 0.0
C4137 C 0.79372 0.82756 0.702 0.0
C4138 C 0.78197 0.81525 0.68858 0.0
C4139 C 0.76955 0.79857 0.69364 0.0
C4140 C 0.76949 0.79386 0.71145 0.0
C4141 C 0.78297 0.81962 0.66935 0.0
C4142 C 0.76709 0.82021 0.65929 0.0
C4143 C 0.79963 0.8238 0.66103 0.0
C4144 C 0.81666 0.8218 0.67017 0.0
C4145 C 0.81709 0.80444 0.67739 0.0
C4146 C 0.83309 0.80269 0.68618 0.0
C4147 C 0.84882 0.81813 0.68768 0.0
C4148 C 0.84859 0.83535 0.68037 0.0
C4149 C 0.83261 0.8372 0.67162 0.0
H4150 H 0.8612 0.81673 0.69447 0.0
H4151 H 0.70535 0.82994 0.60758 0.0
H4152 H 0.71897 0.4208 0.51514 0.0
H4153 H 0.69818 0.43733 0.52808 0.0
H4154 H 0.7431 0.48795 0.54177 0.0
H4155 H 0.76396 0.47144 0.52913 0.0
H4156 H 0.72198 0.48015 0.56891 0.0
H4157 H 0.71304 0.48602 0.50617 0.0
H4158 H 0.70573 0.47547 0.47434 0.0
H4159 H 0.65282 0.4413 0.48551 0.0
H4160 H 0.65992 0.45144 0.51746 0.0
H4161 H 0.67586 0.55384 0.5741 0.0
H4162 H 0.69505 0.53184 0.57079 0.0
H4163 H 0.64689 0.48396 0.56003 0.0
H4164 H 0.62782 0.50596 0.56305 0.0
H4165 H 0.66821 0.48769 0.53334 0.0
H4166 H 0.67637 0.4859 0.59608 0.0
H4167 H 0.68349 0.4994 0.6272 0.0
H4168 H 0.738 0.52823 0.6156 0.0
H4169 H 0.73112 0.51516 0.58433 0.0
C4170 C 0.72438 0.43548 0.52085 0.0
C4171 C 0.74305 0.44488 0.52109 0.0
C4172 C 0.7125 0.4449 0.52821 0.0
C4173 C 0.71911 0.46389 0.53579 0.0
C4174 C 0.73775 0.47327 0.53604 0.0
C4175 C 0.74962 0.46386 0.52873 0.0
C4176 C 0.70661 0.47407 0.5434 0.0
C4177 C 0.71028 0.48196 0.56111 0.0
C4178 C 0.69114 0.47599 0.53334 0.0
C4179 C 0.68712 0.46927 0.51423 0.0
C4180 C 0.69994 0.47605 0.50187 0.0
C4181 C 0.69581 0.4702 0.4838 0.0
C4182 C 0.67885 0.45766 0.47791 0.0
C4183 C 0.66598 0.45094 0.4901 0.0
C4184 C 0.67006 0.45672 0.50818 0.0
C4185 C 0.66948 0.53853 0.57168 0.0
C4186 C 0.65052 0.53147 0.56868 0.0
C4187 C 0.68038 0.52597 0.56982 0.0
C4188 C 0.67236 0.50628 0.56511 0.0
C4189 C 0.65333 0.4991 0.56361 0.0
C4190 C 0.64248 0.51162 0.56535 0.0
C4191 C 0.68359 0.49392 0.55879 0.0
C4192 C 0.67973 0.48566 0.54126 0.0
C4193 C 0.69892 0.49186 0.56897 0.0
C4194 C 0.70317 0.49966 0.58781 0.0
C4195 C 0.68983 0.49525 0.60012 0.0
C4196 C 0.69383 0.5028 0.6178 0.0
C4197 C 0.71118 0.51469 0.62337 0.0
C4198 C 0.72457 0.51902 0.61127 0.0
C4199 C 0.72063 0.51153 0.59357 0.0
H4200 H 0.71425 0.52053 0.63706 0.0
H4201 H 0.67565 0.45321 0.46391 0.0
H4202 H 0.2498 0.13213 0.51326 0.0
H4203 H 0.21935 0.11028 0.51489 0.0
H4204 H 0.19874 0.1587 0.52846 0.0
H4205 H 0.22914 0.18065 0.52672 0.0
H4206 H 0.1878 0.12844 0.55044 0.0
H4207 H 0.18971 0.13759 0.48774 0.0
H4208 H 0.20258 0.13732 0.45859 0.0
H4209 H 0.19703 0.07678 0.45949 0.0
H4210 H 0.18436 0.07676 0.48878 0.0
H4211 H 0.09327 0.09061 0.53793 0.0
H4212 H 0.12499 0.10835 0.53679 0.0
H4213 H 0.13714 0.05676 0.51621 0.0
H4214 H 0.10495 0.03882 0.51682 0.0
H4215 H 0.15371 0.08609 0.49858 0.0
H4216 H 0.15022 0.07574 0.55993 0.0
H4217 H 0.1378 0.07524 0.58932 0.0
H4218 H 0.14718 0.13656 0.59181 0.0
H4219 H 0.15942 0.13741 0.5623 0.0
C4220 C 0.23877 0.13813 0.51655 0.0
C4221 C 0.24185 0.15812 0.51983 0.0
C4222 C 0.22137 0.12563 0.51743 0.0
C4223 C 0.20675 0.13286 0.52172 0.0
C4224 C 0.20983 0.15281 0.52513 0.0
C4225 C 0.22718 0.16534 0.52407 0.0
C4226 C 0.18827 0.11966 0.52282 0.0
C4227 C 0.18025 0.11931 0.53907 0.0
C4228 C 0.17872 0.10723 0.50816 0.0
C4229 C 0.18628 0.10722 0.49054 0.0
C4230 C 0.19139 0.12426 0.48179 0.0
C4231 C 0.19861 0.12415 0.46523 0.0
C4232 C 0.20067 0.10706 0.45722 0.0
C4233 C 0.19546 0.09002 0.46573 0.0
C4234 C 0.18824 0.09006 0.4823 0.0
C4235 C 0.10264 0.0829 0.53326 0.0
C4236 C 0.09652 0.0632 0.52757 0.0
C4237 C 0.12087 0.09311 0.5327 0.0
C4238 C 0.13361 0.08387 0.52674 0.0
C4239 C 0.12759 0.0642 0.52096 0.0
C4240 C 0.10921 0.05394 0.52137 0.0
C4241 C 0.15303 0.09507 0.52617 0.0
C4242 C 0.16127 0.09505 0.51004 0.0
C4243 C 0.16289 0.10702 0.54102 0.0
C4244 C 0.15562 0.10661 0.55883 0.0
C4245 C 0.14952 0.08911 0.56668 0.0
C4246 C 0.14253 0.08876 0.58338 0.0
C4247 C 0.14167 0.10585 0.59241 0.0
C4248 C 0.14784 0.12333 0.58479 0.0
C4249 C 0.15483 0.12376 0.56809 0.0
H4250 H 0.13625 0.10556 0.60534 0.0
H4251 H 0.20627 0.107 0.4444 0.0
H4252 H 0.17221 0.97327 0.76934 0.0
H4253 H 0.19276 0.95556 0.75787 0.0
H4254 H 0.23093 0.97813 0.8034 0.0
H4255 H 0.21059 0.99605 0.81481 0.0
H4256 H 0.24755 0.98195 0.77286 0.0
H4257 H 0.20449 0.93199 0.79966 0.0
H4258 H 0.17425 0.91092 0.80466 0.0
H4259 H 0.16689 0.88891 0.74993 0.0
H4260 H 0.19697 0.9101 0.74453 0.0
H4261 H 0.30272 0.91818 0.77676 0.0
H4262 H 0.2829 0.9393 0.78005 0.0
H4263 H 0.25097 0.91179 0.73196 0.0
H4264 H 0.27044 0.89017 0.72891 0.0
H4265 H 0.23033 0.91118 0.75945 0.0
H4266 H 0.27523 0.95876 0.73365 0.0
H4267 H 0.30602 0.97899 0.72935 0.0
H4268 H 0.31053 1.00487 0.78262 0.0
H4269 H 0.27986 0.9846 0.78734 0.0
C4270 C 0.1849 0.97428 0.77699 0.0
C4271 C 0.18983 0.98601 0.79296 0.0
C4272 C 0.1966 0.96416 0.77043 0.0
C4273 C 0.21334 0.96554 0.77981 0.0
C4274 C 0.2181 0.97696 0.79593 0.0
C4275 C 0.20644 0.98709 0.80248 0.0
C4276 C 0.22616 0.95549 0.77268 0.0
C4277 C 0.24386 0.96645 0.77005 0.0
C4278 C 0.22108 0.93537 0.76845 0.0
C4279 C 0.20287 0.92286 0.77163 0.0
C4280 C 0.19633 0.92284 0.78864 0.0
C4281 C 0.17923 0.91084 0.79156 0.0
C4282 C 0.16862 0.89865 0.7776 0.0
C4283 C 0.17509 0.89842 0.76071 0.0
C4284 C 0.19215 0.91043 0.75771 0.0
C4285 C 0.29167 0.91689 0.76672 0.0
C4286 C 0.28803 0.90249 0.75265 0.0
C4287 C 0.28045 0.92906 0.76852 0.0
C4288 C 0.26549 0.9271 0.75622 0.0
C4289 C 0.26247 0.9135 0.74157 0.0
C4290 C 0.27368 0.90129 0.73977 0.0
C4291 C 0.25186 0.93759 0.75995 0.0
C4292 C 0.23397 0.92672 0.76196 0.0
C4293 C 0.25679 0.95777 0.76367 0.0
C4294 C 0.27526 0.97005 0.76088 0.0
C4295 C 0.28283 0.96866 0.7445 0.0
C4296 C 0.30026 0.98016 0.74198 0.0
C4297 C 0.31024 0.99319 0.75571 0.0
C4298 C 0.30279 0.99477 0.77199 0.0
C4299 C 0.28536 0.9833 0.77459 0.0
H4300 H 0.32373 1.00207 0.75373 0.0
H4301 H 0.15541 0.88933 0.7799 0.0
H4302 H 0.33471 0.96584 0.98724 0.0
H4303 H 0.36748 0.98193 0.99084 0.0
H4304 H 0.37506 0.94075 0.02737 0.0
H4305 H 0.3424 0.9243 0.02352 0.0
H4306 H 0.39218 0.98318 0.0381 0.0
H4307 H 0.387 0.93289 0.99087 0.0
H4308 H 0.37426 0.91526 0.96203 0.0
H4309 H 0.39251 0.96722 0.9357 0.0
H4310 H 0.40512 0.98522 0.96444 0.0
H4311 H 0.48825 1.00232 0.04458 0.0
H4312 H 0.45526 0.98814 0.04217 0.0
H4313 H 0.45104 0.01424 0.99277 0.0
H4314 H 0.48408 0.02753 0.99468 0.0
H4315 H 0.43143 0.97992 0.98866 0.0
H4316 H 0.43733 0.03077 0.03364 0.0
H4317 H 0.44938 0.05053 0.06165 0.0
H4318 H 0.4291 1.00148 0.09135 0.0
H4319 H 0.41712 0.98134 0.06349 0.0
C4320 C 0.34339 0.96022 0.996 0.0
C4321 C 0.33612 0.94381 0.00505 0.0
C4322 C 0.36203 0.9694 0.99805 0.0
C4323 C 0.37353 0.96247 0.00938 0.0
C4324 C 0.36629 0.94626 0.01861 0.0
C4325 C 0.34771 0.93685 0.01631 0.0
C4326 C 0.39324 0.97194 0.01131 0.0
C4327 C 0.40089 0.98237 0.02742 0.0
C4328 C 0.40429 0.97128 0.99711 0.0
C4329 C 0.39682 0.96044 0.97982 0.0
C4330 C 0.38814 0.94059 0.97895 0.0
C4331 C 0.38098 0.93052 0.96262 0.0
C4332 C 0.38253 0.94012 0.94704 0.0
C4333 C 0.3913 0.95981 0.94777 0.0
C4334 C 0.39846 0.96994 0.96408 0.0
C4335 C 0.48022 0.00511 0.03329 0.0
C4336 C 0.48864 0.01595 0.01979 0.0
C4337 C 0.46137 0.99711 0.03196 0.0
C4338 C 0.4506 1.00033 0.0174 0.0
C4339 C 0.45904 0.0115 0.0041 0.0
C4340 C 0.4779 0.01911 0.00521 0.0
C4341 C 0.43065 0.99136 0.01556 0.0
C4342 C 0.42287 0.98094 0.99942 0.0
C4343 C 0.41943 0.99241 0.02964 0.0
C4344 C 0.42647 1.0045 0.04645 0.0
C4345 C 0.43554 0.02416 0.04613 0.0
C4346 C 0.44234 0.03543 0.06199 0.0
C4347 C 0.44005 0.02725 0.07826 0.0
C4348 C 0.43088 0.00779 0.07873 0.0
C4349 C 0.42406 0.99644 0.06291 0.0
H4350 H 0.44534 0.036 0.09052 0.0
H4351 H 0.37698 0.9323 0.93441 0.0
H4352 H 0.92595 0.62708 0.7919 0.0
H4353 H 0.9062 0.64284 0.77563 0.0
H4354 H 0.85918 0.6058 0.79674 0.0
H4355 H 0.87877 0.5898 0.81278 0.0
H4356 H 0.85557 0.60472 0.76099 0.0
H4357 H 0.87519 0.65353 0.81005 0.0
H4358 H 0.89709 0.67828 0.83013 0.0
H4359 H 0.91609 0.71014 0.78561 0.0
H4360 H 0.89453 0.6854 0.76522 0.0
H4361 H 0.78422 0.64749 0.7488 0.0
H4362 H 0.80774 0.63149 0.75537 0.0
H4363 H 0.84681 0.67564 0.73123 0.0
H4364 H 0.82359 0.69228 0.72549 0.0
H4365 H 0.85788 0.67388 0.76396 0.0
H4366 H 0.83595 0.62738 0.71522 0.0
H4367 H 0.81335 0.60341 0.69506 0.0
H4368 H 0.79845 0.5678 0.73822 0.0
H4369 H 0.82076 0.59167 0.75871 0.0
C4370 C 0.91144 0.62263 0.7934 0.0
C4371 C 0.90383 0.60715 0.80347 0.0
C4372 C 0.9002 0.63161 0.78408 0.0
C4373 C 0.88125 0.62535 0.7849 0.0
C4374 C 0.87377 0.61069 0.79583 0.0
C4375 C 0.88497 0.60165 0.80505 0.0
C4376 C 0.86901 0.63297 0.77344 0.0
C4377 C 0.85594 0.61983 0.76171 0.0
C4378 C 0.87015 0.65279 0.77382 0.0
C4379 C 0.88343 0.66742 0.78607 0.0
C4380 C 0.88421 0.66566 0.80451 0.0
C4381 C 0.89653 0.67973 0.81595 0.0
C4382 C 0.90803 0.69573 0.80914 0.0
C4383 C 0.90723 0.69771 0.79087 0.0
C4384 C 0.89497 0.68365 0.77936 0.0
C4385 C 0.79771 0.65352 0.74449 0.0
C4386 C 0.80214 0.67132 0.73697 0.0
C4387 C 0.81112 0.64425 0.74807 0.0
C4388 C 0.82907 0.65245 0.74386 0.0
C4389 C 0.83305 0.66914 0.73464 0.0
C4390 C 0.81969 0.67853 0.73122 0.0
C4391 C 0.844 0.64556 0.75186 0.0
C4392 C 0.85767 0.65882 0.76293 0.0
C4393 C 0.84344 0.62587 0.75083 0.0
C4394 C 0.83 0.6114 0.73853 0.0
C4395 C 0.82777 0.61451 0.72045 0.0
C4396 C 0.81502 0.60092 0.70896 0.0
C4397 C 0.80446 0.58411 0.71536 0.0
C4398 C 0.80665 0.58083 0.73327 0.0
C4399 C 0.81937 0.59437 0.74483 0.0
H4400 H 0.7946 0.57361 0.70644 0.0
H4401 H 0.91752 0.70664 0.81803 0.0
H4402 H 0.81481 0.6361 0.02269 0.0
H4403 H 0.838 0.61881 0.0255 0.0
H4404 H 0.88011 0.67181 0.02302 0.0
H4405 H 0.8568 0.68923 0.01987 0.0
H4406 H 0.8879 0.64289 0.00376 0.0
H4407 H 0.87096 0.65225 0.06271 0.0
H4408 H 0.84993 0.6514 0.08636 0.0
H4409 H 0.8307 0.58988 0.07762 0.0
H4410 H 0.85143 0.59039 0.05374 0.0
H4411 H 0.95849 0.60211 0.03524 0.0
H4412 H 0.93768 0.62225 0.03177 0.0
H4413 H 0.8918 0.57242 0.03344 0.0
H4414 H 0.91245 0.55221 0.0368 0.0
H4415 H 0.88753 0.60184 0.05405 0.0
H4416 H 0.90405 0.59302 0.99412 0.0
H4417 H 0.92581 0.59424 0.9711 0.0
H4418 H 0.9467 0.65535 0.98245 0.0
H4419 H 0.92521 0.65446 0.00572 0.0
C4420 C 0.82899 0.64412 0.0227 0.0
C4421 C 0.83394 0.66409 0.02117 0.0
C4422 C 0.84228 0.6342 0.02438 0.0
C4423 C 0.86089 0.644 0.02477 0.0
C4424 C 0.86587 0.6639 0.02282 0.0
C4425 C 0.85253 0.67386 0.02108 0.0
C4426 C 0.87499 0.63341 0.02747 0.0
C4427 C 0.88798 0.63415 0.01491 0.0
C4428 C 0.87505 0.62176 0.04188 0.0
C4429 C 0.86265 0.62138 0.05633 0.0
C4430 C 0.86216 0.63855 0.06575 0.0
C4431 C 0.8503 0.63813 0.07921 0.0
C4432 C 0.83896 0.62061 0.08346 0.0
C4433 C 0.83948 0.60345 0.0743 0.0
C4434 C 0.8513 0.60379 0.06081 0.0
C4435 C 0.94397 0.59538 0.03469 0.0
C4436 C 0.93722 0.57547 0.03637 0.0
C4437 C 0.93206 0.60694 0.03272 0.0
C4438 C 0.9131 0.59888 0.03222 0.0
C4439 C 0.90634 0.57905 0.03387 0.0
C4440 C 0.91822 0.56749 0.03587 0.0
C4441 C 0.90022 0.61102 0.03019 0.0
C4442 C 0.88749 0.61062 0.04293 0.0
C4443 C 0.90048 0.62302 0.01601 0.0
C4444 C 0.91314 0.62364 1.00177 0.0
C4445 C 0.91335 0.6067 0.99177 0.0
C4446 C 0.92562 0.60734 0.97867 0.0
C4447 C 0.93766 0.62486 0.97534 0.0
C4448 C 0.93738 0.64179 0.98506 0.0
C4449 C 0.92514 0.64123 0.99819 0.0
H4450 H 0.94719 0.6253 0.96523 0.0
H4451 H 0.82978 0.62031 0.09389 0.0
H4452 H 0.1696 0.09063 0.79658 0.0
H4453 H 0.18889 0.12267 0.79159 0.0
H4454 H 0.23688 0.1044 0.80475 0.0
H4455 H 0.21773 0.07224 0.80942 0.0
H4456 H 0.23523 0.14223 0.82157 0.0
H4457 H 0.22758 0.10505 0.76432 0.0
H4458 H 0.20861 0.08446 0.73928 0.0
H4459 H 0.1824 0.12861 0.72911 0.0
H4460 H 0.20103 0.14936 0.75428 0.0
H4461 H 0.3036 0.21856 0.79433 0.0
H4462 H 0.28443 0.18616 0.79801 0.0
H4463 H 0.23945 0.1988 0.76874 0.0
H4464 H 0.25913 0.23059 0.76384 0.0
H4465 H 0.23844 0.16381 0.76044 0.0
H4466 H 0.24373 0.20117 0.81536 0.0
H4467 H 0.2593 0.22275 0.84136 0.0
H4468 H 0.28563 0.18041 0.85735 0.0
H4469 H 0.27042 0.15867 0.83128 0.0
C4470 C 0.18426 0.0935 0.7985 0.0
C4471 C 0.19221 0.079 0.80333 0.0
C4472 C 0.19522 0.11174 0.79563 0.0
C4473 C 0.21424 0.11576 0.79777 0.0
C4474 C 0.2222 0.10148 0.80306 0.0
C4475 C 0.21127 0.08316 0.80565 0.0
C4476 C 0.2259 0.13473 0.79402 0.0
C4477 C 0.23617 0.14692 0.80821 0.0
C4478 C 0.22645 0.14098 0.77666 0.0
C4479 C 0.21558 0.12868 0.76128 0.0
C4480 C 0.21768 0.11031 0.75682 0.0
C4481 C 0.207 0.09862 0.7426 0.0
C4482 C 0.19428 0.10521 0.73264 0.0
C4483 C 0.19225 0.12352 0.73685 0.0
C4484 C 0.20288 0.13526 0.75107 0.0
C4485 C 0.28967 0.2143 0.78856 0.0
C4486 C 0.28249 0.22726 0.7795 0.0
C4487 C 0.27868 0.19588 0.79079 0.0
C4488 C 0.2603 0.19027 0.7842 0.0
C4489 C 0.25347 0.2029 0.77425 0.0
C4490 C 0.26457 0.22119 0.77177 0.0
C4491 C 0.24811 0.17143 0.78801 0.0
C4492 C 0.23763 0.15923 0.77385 0.0
C4493 C 0.24696 0.16539 0.8055 0.0
C4494 C 0.25607 0.17836 0.82126 0.0
C4495 C 0.25294 0.19651 0.82435 0.0
C4496 C 0.26169 0.20877 0.8391 0.0
C4497 C 0.27349 0.20297 0.85097 0.0
C4498 C 0.27651 0.18489 0.84813 0.0
C4499 C 0.26782 0.17258 0.83337 0.0
H4500 H 0.28025 0.21248 0.86239 0.0
H4501 H 0.18602 0.09614 0.72164 0.0
H4502 H 0.39059 0.00849 0.28521 0.0
H4503 H 0.37093 0.97552 0.28265 0.0
H4504 H 0.40438 0.96094 0.32451 0.0
H4505 H 0.42421 0.99402 0.32716 0.0
H4506 H 0.3955 0.93354 0.29588 0.0
H4507 H 0.36532 0.96772 0.3342 0.0
H4508 H 0.35197 0.99384 0.34338 0.0
H4509 H 0.31324 0.97823 0.29788 0.0
H4510 H 0.32653 0.95217 0.28827 0.0
H4511 H 0.31136 0.85466 0.31686 0.0
H4512 H 0.32969 0.88816 0.32067 0.0
H4513 H 0.34399 0.88468 0.26646 0.0
H4514 H 0.32571 0.85108 0.26248 0.0
H4515 H 0.3294 0.92079 0.30366 0.0
H4516 H 0.39032 0.9083 0.26746 0.0
H4517 H 0.40365 0.88166 0.25995 0.0
H4518 H 0.38122 0.85303 0.30499 0.0
H4519 H 0.36827 0.87976 0.31312 0.0
C4520 C 0.39379 0.99827 0.29386 0.0
C4521 C 0.40888 1.00381 0.30644 0.0
C4522 C 0.38252 0.97947 0.29241 0.0
C4523 C 0.38615 0.96589 0.30349 0.0
C4524 C 0.40138 0.97126 0.31586 0.0
C4525 C 0.41263 0.99014 0.3174 0.0
C4526 C 0.3739 0.94611 0.30216 0.0
C4527 C 0.38106 0.93073 0.29759 0.0
C4528 C 0.35512 0.9425 0.30466 0.0
C4529 C 0.34703 0.9581 0.31043 0.0
C4530 C 0.35405 0.96995 0.32607 0.0
C4531 C 0.34648 0.98473 0.33137 0.0
C4532 C 0.33179 0.98772 0.3212 0.0
C4533 C 0.32462 0.97591 0.30573 0.0
C4534 C 0.33216 0.96112 0.30036 0.0
C4535 C 0.31822 0.86106 0.30566 0.0
C4536 C 0.31723 0.85017 0.28941 0.0
C4537 C 0.32863 0.88022 0.30786 0.0
C4538 C 0.33834 0.88874 0.29392 0.0
C4539 C 0.33672 0.87822 0.27743 0.0
C4540 C 0.32622 0.85907 0.27517 0.0
C4541 C 0.35092 0.9083 0.29698 0.0
C4542 C 0.34383 0.92361 0.30191 0.0
C4543 C 0.36981 0.9118 0.2951 0.0
C4544 C 0.37814 0.89596 0.29076 0.0
C4545 C 0.38837 0.8964 0.27585 0.0
C4546 C 0.39588 0.88129 0.2715 0.0
C4547 C 0.39328 0.86566 0.28199 0.0
C4548 C 0.38325 0.86516 0.29691 0.0
C4549 C 0.37583 0.8803 0.30139 0.0
H4550 H 0.39903 0.85395 0.27856 0.0
H4551 H 0.32595 0.99917 0.32532 0.0
H4552 H 0.55122 0.34842 0.60505 0.0
H4553 H 0.54909 0.3776 0.59164 0.0
H4554 H 0.607 0.39364 0.58628 0.0
H4555 H 0.60929 0.36458 0.60027 0.0
H4556 H 0.59743 0.42399 0.59788 0.0
H4557 H 0.5753 0.37636 0.54977 0.0
H4558 H 0.55664 0.34578 0.53441 0.0
H4559 H 0.50794 0.36228 0.54381 0.0
H4560 H 0.5263 0.39287 0.55944 0.0
H4561 H 0.59002 0.50114 0.54555 0.0
H4562 H 0.59609 0.47195 0.55576 0.0
H4563 H 0.53912 0.44899 0.56382 0.0
H4564 H 0.53286 0.47782 0.55293 0.0
H4565 H 0.55097 0.42212 0.54876 0.0
H4566 H 0.57465 0.47007 0.59826 0.0
H4567 H 0.59447 0.5008 0.6123 0.0
H4568 H 0.64186 0.48359 0.59904 0.0
H4569 H 0.62232 0.45298 0.58445 0.0
C4570 C 0.5635 0.35806 0.60089 0.0
C4571 C 0.58042 0.35411 0.60363 0.0
C4572 C 0.56226 0.37475 0.59314 0.0
C4573 C 0.57783 0.38777 0.58765 0.0
C4574 C 0.59477 0.38384 0.59034 0.0
C4575 C 0.59605 0.36717 0.59826 0.0
C4576 C 0.57637 0.40565 0.57955 0.0
C4577 C 0.58746 0.42356 0.58695 0.0
C4578 C 0.56329 0.40521 0.56536 0.0
C4579 C 0.55219 0.38685 0.5559 0.0
C4580 C 0.56061 0.37341 0.54867 0.0
C4581 C 0.55008 0.35609 0.5399 0.0
C4582 C 0.53111 0.35207 0.53817 0.0
C4583 C 0.52264 0.36541 0.54517 0.0
C4584 C 0.5331 0.38275 0.55397 0.0
C4585 C 0.57877 0.48989 0.54953 0.0
C4586 C 0.56093 0.49185 0.54846 0.0
C4587 C 0.58229 0.47321 0.55546 0.0
C4588 C 0.56812 0.45829 0.56086 0.0
C4589 C 0.55031 0.46025 0.55975 0.0
C4590 C 0.54674 0.47679 0.55356 0.0
C4591 C 0.57164 0.44049 0.56743 0.0
C4592 C 0.56099 0.42257 0.55966 0.0
C4593 C 0.58526 0.44096 0.58114 0.0
C4594 C 0.597 0.4593 0.5901 0.0
C4595 C 0.58929 0.4729 0.5982 0.0
C4596 C 0.60048 0.49032 0.60623 0.0
C4597 C 0.61941 0.49419 0.60647 0.0
C4598 C 0.62719 0.48061 0.59877 0.0
C4599 C 0.61607 0.46324 0.59058 0.0
H4600 H 0.62805 0.50768 0.61268 0.0
H4601 H 0.52299 0.33865 0.53138 0.0
H4602 H 0.45068 0.7639 0.41851 0.0
H4603 H 0.42279 0.76601 0.40218 0.0
H4604 H 0.45411 0.79046 0.3594 0.0
H4605 H 0.48205 0.78876 0.37583 0.0
H4606 H 0.43018 0.80976 0.36673 0.0
H4607 H 0.42786 0.7428 0.35658 0.0
H4608 H 0.42803 0.71057 0.36529 0.0
H4609 H 0.38056 0.70744 0.3939 0.0
H4610 H 0.38025 0.73977 0.38554 0.0
H4611 H 0.36008 0.7978 0.29858 0.0
H4612 H 0.3866 0.79561 0.31693 0.0
H4613 H 0.35208 0.77252 0.35803 0.0
H4614 H 0.32531 0.77439 0.3396 0.0
H4615 H 0.37679 0.75287 0.35299 0.0
H4616 H 0.37826 0.81916 0.36223 0.0
H4617 H 0.37794 0.85137 0.3536 0.0
H4618 H 0.42674 0.85586 0.32685 0.0
H4619 H 0.42724 0.82355 0.33512 0.0
C4620 C 0.45161 0.76967 0.4056 0.0
C4621 C 0.46856 0.7761 0.39843 0.0
C4622 C 0.43564 0.77081 0.39624 0.0
C4623 C 0.43628 0.77821 0.37944 0.0
C4624 C 0.45324 0.7847 0.37232 0.0
C4625 C 0.4692 0.78365 0.3817 0.0
C4626 C 0.41937 0.7794 0.36933 0.0
C4627 C 0.4186 0.79726 0.36354 0.0
C4628 C 0.40401 0.76324 0.36559 0.0
C4629 C 0.40415 0.74378 0.37059 0.0
C4630 C 0.41754 0.7353 0.36484 0.0
C4631 C 0.41765 0.717 0.3697 0.0
C4632 C 0.40434 0.70699 0.38019 0.0
C4633 C 0.39087 0.71522 0.3858 0.0
C4634 C 0.39072 0.73353 0.381 0.0
C4635 C 0.35806 0.79224 0.31151 0.0
C4636 C 0.34051 0.78631 0.3176 0.0
C4637 C 0.37329 0.79109 0.32204 0.0
C4638 C 0.37139 0.78415 0.33898 0.0
C4639 C 0.35389 0.77798 0.34503 0.0
C4640 C 0.3386 0.7791 0.33448 0.0
C4641 C 0.3877 0.78317 0.35022 0.0
C4642 C 0.38835 0.76538 0.35623 0.0
C4643 C 0.40294 0.7994 0.35419 0.0
C4644 C 0.40271 0.81886 0.3492 0.0
C4645 C 0.38886 0.82695 0.35441 0.0
C4646 C 0.38866 0.84525 0.34961 0.0
C4647 C 0.40233 0.85566 0.33972 0.0
C4648 C 0.41619 0.84779 0.33455 0.0
C4649 C 0.41645 0.82949 0.33931 0.0
H4650 H 0.40217 0.86983 0.33603 0.0
H4651 H 0.40445 0.69282 0.38393 0.0
H4652 H 0.05402 0.7311 0.12862 0.0
H4653 H 0.05088 0.6984 0.11604 0.0
H4654 H 0.0874 0.72084 0.07621 0.0
H4655 H 0.09029 0.7537 0.08854 0.0
H4656 H 0.05953 0.69304 0.06154 0.0
H4657 H 0.10122 0.69947 0.11247 0.0
H4658 H 0.1125 0.70696 0.14401 0.0
H4659 H 0.06689 0.66304 0.15896 0.0
H4660 H 0.05519 0.65546 0.12752 0.0
H4661 H 0.07105 0.60001 0.03532 0.0
H4662 H 0.0763 0.63384 0.04599 0.0
H4663 H 0.03717 0.61707 0.08494 0.0
H4664 H 0.0318 0.58333 0.07439 0.0
H4665 H 0.0688 0.64247 0.09955 0.0
H4666 H 0.0236 0.64446 0.05059 0.0
H4667 H 0.01024 0.63996 0.01962 0.0
H4668 H 0.06256 0.66746 1.00168 0.0
H4669 H 0.07603 0.67278 0.03271 0.0
C4670 C 0.06137 0.72909 0.11715 0.0
C4671 C 0.07244 0.74501 0.1096 0.0
C4672 C 0.05966 0.71035 0.11005 0.0
C4673 C 0.06917 0.70706 0.09535 0.0
C4674 C 0.08 0.72296 0.08759 0.0
C4675 C 0.08164 0.74175 0.09466 0.0
C4676 C 0.06747 0.68704 0.08792 0.0
C4677 C 0.06193 0.68212 0.06983 0.0
C4678 C 0.0702 0.67257 0.09871 0.0
C4679 C 0.07725 0.67701 0.11764 0.0
C4680 C 0.09352 0.6915 0.12249 0.0
C4681 C 0.1 0.69575 0.14035 0.0
C4682 C 0.0904 0.68551 0.15349 0.0
C4683 C 0.07431 0.67097 0.14878 0.0
C4684 C 0.06776 0.66668 0.13093 0.0
C4685 C 0.06354 0.60351 0.04615 0.0
C4686 C 0.05106 0.58887 0.05403 0.0
C4687 C 0.06645 0.62289 0.05214 0.0
C4688 C 0.05703 0.62806 0.06619 0.0
C4689 C 0.04459 0.61348 0.07407 0.0
C4690 C 0.04154 0.59415 0.06799 0.0
C4691 C 0.06067 0.64852 0.07327 0.0
C4692 C 0.06662 0.65351 0.09128 0.0
C4693 C 0.0584 0.66309 0.06246 0.0
C4694 C 0.05081 0.65874 0.04382 0.0
C4695 C 0.03225 0.64936 0.03999 0.0
C4696 C 0.02464 0.64683 0.02247 0.0
C4697 C 0.03557 0.65327 0.00865 0.0
C4698 C 0.05412 0.66242 0.01238 0.0
C4699 C 0.06172 0.66533 0.02993 0.0
H4700 H 0.02966 0.65122 0.99508 0.0
H4701 H 0.09544 0.68882 0.16731 0.0
H4702 H 0.04202 0.27059 0.87531 0.0
H4703 H 0.06845 0.2708 0.85863 0.0
H4704 H 0.10076 0.27195 0.90759 0.0
H4705 H 0.07435 0.27217 0.92444 0.0
H4706 H 0.12016 0.29547 0.88523 0.0
H4707 H 0.08358 0.23011 0.88126 0.0
H4708 H 0.05548 0.20347 0.87533 0.0
H4709 H 0.05199 0.21638 0.82075 0.0
H4710 H 0.07994 0.24328 0.82641 0.0
H4711 H 0.19086 0.26593 0.84354 0.0
H4712 H 0.16605 0.26806 0.86189 0.0
H4713 H 0.13178 0.26864 0.81469 0.0
H4714 H 0.15634 0.26597 0.79625 0.0
H4715 H 0.114 0.2439 0.83714 0.0
H4716 H 0.15108 0.30956 0.84158 0.0
H4717 H 0.17965 0.33552 0.84783 0.0
H4718 H 0.18278 0.32126 0.90202 0.0
H4719 H 0.15436 0.295 0.89602 0.0
C4720 C 0.05477 0.27098 0.88255 0.0
C4721 C 0.05607 0.27122 0.90119 0.0
C4722 C 0.06987 0.27102 0.87299 0.0
C4723 C 0.08654 0.27105 0.88181 0.0
C4724 C 0.08803 0.27185 0.90048 0.0
C4725 C 0.07292 0.27192 0.91009 0.0
C4726 C 0.10222 0.26981 0.87148 0.0
C4727 C 0.11889 0.28405 0.87488 0.0
C4728 C 0.10053 0.25506 0.85778 0.0
C4729 C 0.08376 0.23882 0.8543 0.0
C4730 C 0.07674 0.22736 0.86802 0.0
C4731 C 0.06086 0.2122 0.8647 0.0
C4732 C 0.05193 0.20826 0.84769 0.0
C4733 C 0.0589 0.21945 0.83393 0.0
C4734 C 0.07478 0.23465 0.83719 0.0
C4735 C 0.17801 0.26642 0.83706 0.0
C4736 C 0.17558 0.26576 0.81842 0.0
C4737 C 0.1639 0.26782 0.84758 0.0
C4738 C 0.14709 0.26867 0.83968 0.0
C4739 C 0.14464 0.26805 0.82109 0.0
C4740 C 0.15875 0.26668 0.81057 0.0
C4741 C 0.13186 0.26969 0.85072 0.0
C4742 C 0.11528 0.25533 0.84749 0.0
C4743 C 0.1337 0.28426 0.86462 0.0
C4744 C 0.15067 0.3002 0.86831 0.0
C4745 C 0.15792 0.31187 0.8548 0.0
C4746 C 0.17408 0.32666 0.8583 0.0
C4747 C 0.18302 0.33003 0.87531 0.0
C4748 C 0.17583 0.31864 0.88886 0.0
C4749 C 0.15969 0.30381 0.88541 0.0
H4750 H 0.19554 0.34147 0.87799 0.0
H4751 H 0.03963 0.19652 0.84514 0.0
H4752 H 0.53651 0.70595 0.89264 0.0
H4753 H 0.53584 0.67686 0.90788 0.0
H4754 H 0.54868 0.71072 0.95807 0.0
H4755 H 0.55 0.73997 0.94264 0.0
H4756 H 0.56469 0.6852 0.96226 0.0
H4757 H 0.50266 0.67483 0.93984 0.0
H4758 H 0.47719 0.67179 0.91731 0.0
H4759 H 0.49172 0.62579 0.88871 0.0
H4760 H 0.51741 0.62872 0.91097 0.0
H4761 H 0.54302 0.60394 0.01623 0.0
H4762 H 0.54367 0.63264 1.00044 0.0
H4763 H 0.53539 0.59868 0.95045 0.0
H4764 H 0.53452 0.56975 0.96633 0.0
H4765 H 0.51711 0.62392 0.94602 0.0
H4766 H 0.57886 0.6341 0.96906 0.0
H4767 H 0.6039 0.63697 0.99202 0.0
H4768 H 0.58936 0.68335 0.01997 0.0
H4769 H 0.56408 0.68059 0.99728 0.0
C4770 C 0.53914 0.70736 0.90695 0.0
C4771 C 0.54321 0.7259 0.9161 0.0
C4772 C 0.53858 0.69035 0.91589 0.0
C4773 C 0.54175 0.69064 0.93466 0.0
C4774 C 0.54603 0.70926 0.94376 0.0
C4775 C 0.54673 0.72631 0.93478 0.0
C4776 C 0.5409 0.67199 0.94462 0.0
C4777 C 0.55401 0.672 0.9587 0.0
C4778 C 0.52745 0.65391 0.94036 0.0
C4779 C 0.51206 0.65214 0.92696 0.0
C4780 C 0.50049 0.66416 0.92868 0.0
C4781 C 0.486 0.66244 0.91597 0.0
C4782 C 0.48287 0.64865 0.90156 0.0
C4783 C 0.49419 0.6365 0.89986 0.0
C4784 C 0.5087 0.63817 0.91252 0.0
C4785 C 0.54132 0.60235 1.00185 0.0
C4786 C 0.53874 0.58388 0.99291 0.0
C4787 C 0.54186 0.61916 0.99263 0.0
C4788 C 0.53994 0.61871 0.97379 0.0
C4789 C 0.53703 0.60018 0.96483 0.0
C4790 C 0.53656 0.58333 0.97408 0.0
C4791 C 0.54084 0.63722 0.96366 0.0
C4792 C 0.52777 0.63715 0.94956 0.0
C4793 C 0.55426 0.65527 0.96795 0.0
C4794 C 0.56947 0.65701 0.98157 0.0
C4795 C 0.58093 0.64483 0.98016 0.0
C4796 C 0.59517 0.64644 0.99312 0.0
C4797 C 0.59819 0.66029 0.00747 0.0
C4798 C 0.58699 0.6726 0.00886 0.0
C4799 C 0.57271 0.67103 0.99595 0.0
H4800 H 0.60922 0.66152 0.01748 0.0
H4801 H 0.47165 0.64734 0.89174 0.0
H4802 H 0.09968 0.77777 0.66492 0.0
H4803 H 0.12935 0.7768 0.67854 0.0
H4804 H 0.12153 0.81026 0.72479 0.0
H4805 H 0.09145 0.81073 0.71136 0.0
H4806 H 0.15838 0.82326 0.71561 0.0
H4807 H 0.11831 0.76172 0.72578 0.0
H4808 H 0.0959 0.73049 0.71703 0.0
H4809 H 0.13338 0.71477 0.68294 0.0
H4810 H 0.15593 0.74604 0.6913 0.0
H4811 H 0.23935 0.81518 0.76562 0.0
H4812 H 0.20927 0.81647 0.75411 0.0
H4813 H 0.20336 0.76433 0.72093 0.0
H4814 H 0.23268 0.76206 0.73412 0.0
H4815 H 0.17253 0.76136 0.72343 0.0
H4816 H 0.21167 0.8223 0.70979 0.0
H4817 H 0.23435 0.85394 0.71592 0.0
H4818 H 0.2 0.87152 0.75254 0.0
H4819 H 0.17717 0.83997 0.74671 0.0
C4820 C 0.10409 0.78495 0.67804 0.0
C4821 C 0.0925 0.79431 0.68676 0.0
C4822 C 0.12137 0.78434 0.68599 0.0
C4823 C 0.12845 0.79339 0.70307 0.0
C4824 C 0.11703 0.80305 0.7117 0.0
C4825 C 0.0995 0.80327 0.70391 0.0
C4826 C 0.14738 0.7926 0.71176 0.0
C4827 C 0.16128 0.80962 0.71744 0.0
C4828 C 0.15222 0.77511 0.71401 0.0
C4829 C 0.13873 0.7563 0.70904 0.0
C4830 C 0.12172 0.75167 0.71631 0.0
C4831 C 0.109 0.73395 0.71144 0.0
C4832 C 0.11319 0.72067 0.6994 0.0
C4833 C 0.13014 0.72508 0.69224 0.0
C4834 C 0.1429 0.74279 0.69705 0.0
C4835 C 0.23173 0.80391 0.75585 0.0
C4836 C 0.23913 0.78854 0.75101 0.0
C4837 C 0.21419 0.80482 0.7488 0.0
C4838 C 0.20317 0.79098 0.7356 0.0
C4839 C 0.2107 0.77555 0.73084 0.0
C4840 C 0.22792 0.77424 0.73846 0.0
C4841 C 0.18406 0.79214 0.72718 0.0
C4842 C 0.16995 0.77512 0.72156 0.0
C4843 C 0.17921 0.8097 0.72453 0.0
C4844 C 0.19282 0.8287 0.72796 0.0
C4845 C 0.20899 0.8329 0.71919 0.0
C4846 C 0.22186 0.85082 0.7226 0.0
C4847 C 0.21862 0.86471 0.73463 0.0
C4848 C 0.20247 0.86075 0.74322 0.0
C4849 C 0.18957 0.84286 0.73986 0.0
H4850 H 0.2286 0.87854 0.73729 0.0
H4851 H 0.10333 0.70696 0.69565 0.0
H4852 H 0.04719 0.32612 0.44502 0.0
H4853 H 0.04642 0.3564 0.46087 0.0
H4854 H 0.04627 0.38242 0.41114 0.0
H4855 H 0.04767 0.35226 0.39536 0.0
H4856 H 0.06421 0.41003 0.4325 0.0
H4857 H 1.0065 0.36676 0.43935 0.0
H4858 H 0.98428 0.33727 0.44701 0.0
H4859 H 1.00622 0.34792 0.5014 0.0
H4860 H 0.02874 0.37737 0.49401 0.0
H4861 H 0.03582 0.49097 0.46946 0.0
H4862 H 0.03702 0.46094 0.45343 0.0
H4863 H 0.04704 0.43806 0.50306 0.0
H4864 H 0.04587 0.46817 0.51918 0.0
H4865 H 0.02369 0.40942 0.48143 0.0
H4866 H 0.08334 0.4518 0.47235 0.0
H4867 H 0.10274 0.48292 0.46441 0.0
H4868 H 0.07297 0.47532 0.41341 0.0
H4869 H 0.05351 0.44393 0.42098 0.0
C4870 C 0.04703 0.33824 0.43735 0.0
C4871 C 0.04747 0.33621 0.41865 0.0
C4872 C 0.04639 0.35582 0.44654 0.0
C4873 C 0.04584 0.37237 0.43756 0.0
C4874 C 0.0466 0.37039 0.41886 0.0
C4875 C 0.04737 0.35284 0.40968 0.0
C4876 C 0.04448 0.39139 0.44749 0.0
C4877 C 0.05511 0.4096 0.44303 0.0
C4878 C 0.03284 0.39189 0.46157 0.0
C4879 C 0.01944 0.37415 0.46608 0.0
C4880 C 1.00668 0.36273 0.45292 0.0
C4881 C 0.99402 0.34604 0.45721 0.0
C4882 C 0.99388 0.34069 0.47467 0.0
C4883 C 1.00637 0.35206 0.48787 0.0
C4884 C 0.01908 0.36876 0.48364 0.0
C4885 C 0.03832 0.47965 0.47711 0.0
C4886 C 0.04078 0.48255 0.4959 0.0
C4887 C 0.03914 0.46224 0.46777 0.0
C4888 C 0.04239 0.44667 0.47668 0.0
C4889 C 0.04455 0.44943 0.49548 0.0
C4890 C 0.04393 0.46694 0.50482 0.0
C4891 C 0.04351 0.42777 0.46655 0.0
C4892 C 0.03281 0.40967 0.47094 0.0
C4893 C 0.0548 0.42738 0.45224 0.0
C4894 C 0.06709 0.44552 0.44716 0.0
C4895 C 0.08106 0.45668 0.45937 0.0
C4896 C 0.09205 0.47434 0.45494 0.0
C4897 C 0.08914 0.481 0.43835 0.0
C4898 C 0.0753 0.46997 0.42614 0.0
C4899 C 0.06437 0.45221 0.43045 0.0
H4900 H 0.09757 0.49473 0.43499 0.0
H4901 H 0.98406 0.32777 0.47798 0.0
H4902 H 0.46709 0.26577 0.16733 0.0
H4903 H 0.43868 0.26472 0.18117 0.0
H4904 H 0.46789 0.30982 0.22024 0.0
H4905 H 0.49649 0.31027 0.2067 0.0
H4906 H 0.44336 0.29116 0.23766 0.0
H4907 H 0.43331 0.31184 0.18 0.0
H4908 H 0.43118 0.3106 0.14724 0.0
H4909 H 0.39043 0.25625 0.14471 0.0
H4910 H 0.39246 0.25707 0.17746 0.0
H4911 H 0.36112 0.31068 0.26912 0.0
H4912 H 0.38971 0.31115 0.25571 0.0
H4913 H 0.36164 0.2617 0.22069 0.0
H4914 H 0.333 0.26124 0.23412 0.0
H4915 H 0.38539 0.28268 0.20132 0.0
H4916 H 0.39536 0.263 0.25956 0.0
H4917 H 0.39735 0.26533 0.29233 0.0
H4918 H 0.43829 0.31944 0.29366 0.0
H4919 H 0.43638 0.31754 0.26088 0.0
C4920 C 0.46766 0.27558 0.17887 0.0
C4921 C 0.4848 0.28816 0.18551 0.0
C4922 C 0.45097 0.27514 0.18688 0.0
C4923 C 0.45004 0.28753 0.20198 0.0
C4924 C 0.46727 0.29994 0.20875 0.0
C4925 C 0.48402 0.30026 0.20081 0.0
C4926 C 0.4316 0.28742 0.21068 0.0
C4927 C 0.43089 0.28958 0.22943 0.0
C4928 C 0.4144 0.28502 0.20081 0.0
C4929 C 0.41319 0.28442 0.18116 0.0
C4930 C 0.42399 0.29957 0.17244 0.0
C4931 C 0.42278 0.29895 0.15388 0.0
C4932 C 0.41072 0.28333 0.1439 0.0
C4933 C 0.39979 0.26832 0.15246 0.0
C4934 C 0.40096 0.26886 0.17102 0.0
C4935 C 0.36083 0.29971 0.25865 0.0
C4936 C 0.34402 0.28583 0.25315 0.0
C4937 C 0.3776 0.29992 0.25085 0.0
C4938 C 0.37882 0.2863 0.2369 0.0
C4939 C 0.36194 0.27257 0.23126 0.0
C4940 C 0.3452 0.27225 0.23918 0.0
C4941 C 0.39722 0.28644 0.22823 0.0
C4942 C 0.3979 0.28428 0.20949 0.0
C4943 C 0.41441 0.28902 0.2381 0.0
C4944 C 0.41559 0.29022 0.25777 0.0
C4945 C 0.40469 0.27546 0.26684 0.0
C4946 C 0.40582 0.27669 0.28542 0.0
C4947 C 0.4179 0.29255 0.29507 0.0
C4948 C 0.42891 0.30718 0.28617 0.0
C4949 C 0.42782 0.30603 0.26759 0.0
H4950 H 0.41875 0.29348 0.30945 0.0
H4951 H 0.4098 0.28288 0.12953 0.0
H4952 H 0.62326 0.49648 0.35213 0.0
H4953 H 0.61107 0.49434 0.38136 0.0
H4954 H 0.6624 0.5307 0.40527 0.0
H4955 H 0.67485 0.53232 0.37617 0.0
H4956 H 0.64666 0.50502 0.42787 0.0
H4957 H 0.62913 0.55038 0.3921 0.0
H4958 H 0.61643 0.56137 0.36526 0.0
H4959 H 0.5645 0.52112 0.37021 0.0
H4960 H 0.57699 0.50968 0.39695 0.0
H4961 H 0.60668 0.55018 0.49829 0.0
H4962 H 0.62386 0.54373 0.47328 0.0
H4963 H 0.57703 0.49873 0.45111 0.0
H4964 H 0.5599 0.50483 0.4759 0.0
H4965 H 0.59164 0.52879 0.42856 0.0
H4966 H 0.61031 0.48556 0.46686 0.0
H4967 H 0.62434 0.47655 0.49402 0.0
H4968 H 0.67567 0.51581 0.48521 0.0
H4969 H 0.66187 0.52537 0.45816 0.0
C4970 C 0.63206 0.50362 0.36368 0.0
C4971 C 0.64988 0.5148 0.36188 0.0
C4972 C 0.6251 0.50243 0.38035 0.0
C4973 C 0.63571 0.51277 0.39539 0.0
C4974 C 0.65396 0.5227 0.39382 0.0
C4975 C 0.66103 0.52366 0.37718 0.0
C4976 C 0.62718 0.51505 0.41216 0.0
C4977 C 0.63471 0.51035 0.42809 0.0
C4978 C 0.61164 0.52209 0.41241 0.0
C4979 C 0.60404 0.52904 0.39641 0.0
C4980 C 0.61504 0.54378 0.38739 0.0
C4981 C 0.60787 0.5501 0.37221 0.0
C4982 C 0.58968 0.54192 0.36601 0.0
C4983 C 0.5786 0.52743 0.37501 0.0
C4984 C 0.58571 0.52102 0.39019 0.0
C4985 C 0.60012 0.53879 0.48817 0.0
C4986 C 0.58188 0.52813 0.48899 0.0
C4987 C 0.60999 0.53504 0.47401 0.0
C4988 C 0.60166 0.52072 0.46047 0.0
C4989 C 0.58366 0.50978 0.46151 0.0
C4990 C 0.5739 0.51334 0.47568 0.0
C4991 C 0.61087 0.5184 0.44421 0.0
C4992 C 0.60353 0.52334 0.42836 0.0
C4993 C 0.62673 0.51195 0.44419 0.0
C4994 C 0.63497 0.50639 0.4606 0.0
C4995 C 0.62452 0.49249 0.47083 0.0
C4996 C 0.63245 0.48724 0.48618 0.0
C4997 C 0.65085 0.49569 0.49137 0.0
C4998 C 0.66139 0.50935 0.4812 0.0
C4999 C 0.65352 0.51468 0.46586 0.0
H5000 H 0.65695 0.49163 0.50324 0.0
H5001 H 0.58416 0.54683 0.35425 0.0
H5002 H 0.28247 0.85988 0.03092 0.0
H5003 H 0.28764 0.8437 0.05748 0.0
H5004 H 0.28514 0.89335 0.09067 0.0
H5005 H 0.28014 0.90963 0.06426 0.0
H5006 H 0.31486 0.88169 0.09985 0.0
H5007 H 0.25048 0.85242 0.08736 0.0
H5008 H 0.22277 0.83451 0.06888 0.0
H5009 H 0.2442 0.78571 0.06265 0.0
H5010 H 0.27217 0.80344 0.08091 0.0
H5011 H 0.30838 0.84644 0.1846 0.0
H5012 H 0.30249 0.85925 0.15642 0.0
H5013 H 0.30565 0.80693 0.12803 0.0
H5014 H 0.311 0.79373 0.1563 0.0
H5015 H 0.27676 0.81844 0.11523 0.0
H5016 H 0.34051 0.84705 0.12878 0.0
H5017 H 0.36825 0.86485 0.14727 0.0
H5018 H 0.34828 0.9148 0.15128 0.0
H5019 H 0.32029 0.89721 0.13301 0.0
C5020 C 0.28281 0.86723 0.0439 0.0
C5021 C 0.28094 0.88602 0.04554 0.0
C5022 C 0.28573 0.85797 0.05904 0.0
C5023 C 0.28674 0.86733 0.07603 0.0
C5024 C 0.28446 0.88591 0.07767 0.0
C5025 C 0.28154 0.89516 0.06258 0.0
C5026 C 0.291 0.8582 0.09213 0.0
C5027 C 0.30641 0.86796 0.10333 0.0
C5028 C 0.2803 0.84001 0.09631 0.0
C5029 C 0.2635 0.82933 0.08534 0.0
C5030 C 0.24936 0.83793 0.08192 0.0
C5031 C 0.23359 0.8278 0.07151 0.0
C5032 C 0.23175 0.809 0.06455 0.0
C5033 C 0.24566 0.80028 0.06803 0.0
C5034 C 0.26147 0.81036 0.07841 0.0
C5035 C 0.3077 0.8376 0.17237 0.0
C5036 C 0.31015 0.81907 0.17267 0.0
C5037 C 0.3045 0.84501 0.15628 0.0
C5038 C 0.30383 0.83412 0.14014 0.0
C5039 C 0.30619 0.81558 0.14035 0.0
C5040 C 0.3094 0.80814 0.15649 0.0
C5041 C 0.30044 0.8421 0.12311 0.0
C5042 C 0.28525 0.83212 0.1117 0.0
C5043 C 0.31137 0.86009 0.11869 0.0
C5044 C 0.32822 0.87075 0.12964 0.0
C5045 C 0.34197 0.86178 0.13371 0.0
C5046 C 0.35775 0.87184 0.14414 0.0
C5047 C 0.36001 0.89093 0.15048 0.0
C5048 C 0.34651 0.90001 0.14637 0.0
C5049 C 0.33069 0.89 0.13597 0.0
H5050 H 0.37224 0.89869 0.15855 0.0
H5051 H 0.21953 0.80118 0.0565 0.0
H5052 H 0.99137 0.59952 0.85158 0.0
H5053 H 0.01089 0.60231 0.87902 0.0
H5054 H 0.96344 0.57813 0.90711 0.0
H5055 H 0.94395 0.57584 0.88002 0.0
H5056 H 0.98811 0.60393 0.92838 0.0
H5057 H 0.98742 0.54958 0.88608 0.0
H5058 H 0.993 0.53543 0.85716 0.0
H5059 H 0.04942 0.56736 0.86457 0.0
H5060 H 0.04409 0.58186 0.89345 0.0
H5061 H 0.99994 0.54208 0.99033 0.0
H5062 H 0.99232 0.55536 0.96302 0.0
H5063 H 0.04934 0.57465 0.95375 0.0
H5064 H 0.05701 0.56041 0.98086 0.0
H5065 H 0.02837 0.56072 0.92341 0.0
H5066 H 0.02735 0.60426 0.97255 0.0
H5067 H 0.01867 0.61127 1.00246 0.0
H5068 H 0.9625 0.59728 0.98286 0.0
H5069 H 0.97062 0.58868 0.95302 0.0
C5070 C 0.98512 0.59525 0.86373 0.0
C5071 C 0.96621 0.58715 0.86367 0.0
C5072 C 0.99627 0.59684 0.87936 0.0
C5073 C 0.98863 0.59008 0.89498 0.0
C5074 C 0.96963 0.58341 0.89519 0.0
C5075 C 0.9585 0.58198 0.87966 0.0
C5076 C 1.0001 0.58748 0.91051 0.0
C5077 C 0.99704 0.59463 0.92736 0.0
C5078 C 0.01211 0.57572 0.90906 0.0
C5079 C 0.01531 0.56698 0.89176 0.0
C5080 C 1.00098 0.55366 0.88147 0.0
C5081 C 1.0041 0.54557 0.8651 0.0
C5082 C 0.02154 0.55054 0.859 0.0
C5083 C 0.03591 0.56357 0.86928 0.0
C5084 C 0.03285 0.57173 0.88564 0.0
C5085 C 0.01084 0.54902 0.98239 0.0
C5086 C 0.02906 0.55049 0.98771 0.0
C5087 C 1.00649 0.55667 0.96686 0.0
C5088 C 0.02033 0.56654 0.95672 0.0
C5089 C 0.03852 0.56729 0.96156 0.0
C5090 C 0.04287 0.55919 0.97697 0.0
C5091 C 0.01552 0.57627 0.9413 0.0
C5092 C 0.01999 0.5706 0.92451 0.0
C5093 C 1.00449 0.58908 0.94285 0.0
C5094 C 0.99965 0.59577 0.96045 0.0
C5095 C 0.01313 0.60263 0.97457 0.0
C5096 C 1.00828 0.60682 0.99156 0.0
C5097 C 0.99006 0.60502 0.99453 0.0
C5098 C 0.97662 0.59881 0.98051 0.0
C5099 C 0.98133 0.59412 0.96356 0.0
H5100 H 0.98635 0.60835 0.0077 0.0
H5101 H 0.02393 0.54426 0.84633 0.0
H5102 H 0.27829 0.23724 0.56557 0.0
H5103 H 0.27676 0.24749 0.59682 0.0
H5104 H 0.31543 0.21671 0.61248 0.0
H5105 H 0.3164 0.2059 0.58142 0.0
H5106 H 0.29103 0.20983 0.63414 0.0
H5107 H 0.32528 0.26868 0.61282 0.0
H5108 H 0.33207 0.29566 0.59358 0.0
H5109 H 0.28438 0.31124 0.60862 0.0
H5110 H 0.27717 0.28417 0.62778 0.0
H5111 H 0.31613 0.25409 0.72255 0.0
H5112 H 0.31647 0.24554 0.69077 0.0
H5113 H 0.26764 0.26306 0.68022 0.0
H5114 H 0.26698 0.27134 0.71212 0.0
H5115 H 0.29602 0.27703 0.6563 0.0
H5116 H 0.26308 0.21774 0.67862 0.0
H5117 H 0.25839 0.19164 0.69885 0.0
H5118 H 0.30653 0.17796 0.68251 0.0
H5119 H 0.31167 0.20418 0.66237 0.0
C5120 C 0.2866 0.23283 0.57567 0.0
C5121 C 0.29752 0.22077 0.5709 0.0
C5122 C 0.28578 0.23877 0.59362 0.0
C5123 C 0.29612 0.23312 0.60729 0.0
C5124 C 0.30722 0.22131 0.60241 0.0
C5125 C 0.30786 0.21519 0.58454 0.0
C5126 C 0.29501 0.23886 0.62665 0.0
C5127 C 0.29238 0.22461 0.63889 0.0
C5128 C 0.29635 0.25806 0.63316 0.0
C5129 C 0.30056 0.27425 0.62156 0.0
C5130 C 0.31615 0.27775 0.6119 0.0
C5131 C 0.32009 0.29308 0.60103 0.0
C5132 C 0.30863 0.30511 0.59983 0.0
C5133 C 0.29322 0.30187 0.60953 0.0
C5134 C 0.28921 0.28655 0.6204 0.0
C5135 C 0.30541 0.25613 0.71353 0.0
C5136 C 0.29146 0.26334 0.72004 0.0
C5137 C 0.30563 0.25119 0.6953 0.0
C5138 C 0.29207 0.25359 0.68299 0.0
C5139 C 0.27827 0.26106 0.68938 0.0
C5140 C 0.27785 0.26568 0.70768 0.0
C5141 C 0.29224 0.24803 0.66356 0.0
C5142 C 0.29466 0.26229 0.65139 0.0
C5143 C 0.29099 0.22892 0.65712 0.0
C5144 C 0.28786 0.21305 0.66912 0.0
C5145 C 0.27276 0.20927 0.67945 0.0
C5146 C 0.27 0.19444 0.69088 0.0
C5147 C 0.28218 0.18318 0.692 0.0
C5148 C 0.29712 0.1867 0.68164 0.0
C5149 C 0.29996 0.20154 0.67021 0.0
H5150 H 0.28002 0.1717 0.70085 0.0
H5151 H 0.31171 0.31698 0.59142 0.0
H5152 H 0.60804 0.51957 0.27781 0.0
H5153 H 0.58877 0.52382 0.25214 0.0
H5154 H 0.63503 0.56388 0.23283 0.0
H5155 H 0.65432 0.55967 0.25831 0.0
H5156 H 0.60378 0.5765 0.231 0.0
H5157 H 0.62226 0.51936 0.2151 0.0
H5158 H 0.62537 0.48683 0.2191 0.0
H5159 H 0.56723 0.46469 0.21804 0.0
H5160 H 0.5638 0.49718 0.21429 0.0
H5161 H 0.58377 0.57794 0.13905 0.0
H5162 H 0.59613 0.57474 0.16888 0.0
H5163 H 0.54549 0.53396 0.17838 0.0
H5164 H 0.53311 0.53689 0.14835 0.0
H5165 H 0.57493 0.52112 0.18735 0.0
H5166 H 0.55636 0.57786 0.19943 0.0
H5167 H 0.5535 0.61038 0.195 0.0
H5168 H 0.61157 0.63343 0.20305 0.0
H5169 H 0.61481 0.60098 0.20727 0.0
C5170 C 0.61405 0.52933 0.2681 0.0
C5171 C 0.63268 0.53922 0.26998 0.0
C5172 C 0.60305 0.53172 0.25347 0.0
C5173 C 0.61052 0.54411 0.24059 0.0
C5174 C 0.62902 0.55429 0.24266 0.0
C5175 C 0.64003 0.55179 0.25717 0.0
C5176 C 0.59929 0.54613 0.2246 0.0
C5177 C 0.59753 0.56444 0.22139 0.0
C5178 C 0.59075 0.53025 0.21237 0.0
C5179 C 0.59279 0.51073 0.21465 0.0
C5180 C 0.61015 0.50759 0.2159 0.0
C5181 C 0.61197 0.48915 0.21808 0.0
C5182 C 0.59651 0.47371 0.21889 0.0
C5183 C 0.57919 0.47667 0.21746 0.0
C5184 C 0.5773 0.49509 0.2153 0.0
C5185 C 0.57525 0.56834 0.14752 0.0
C5186 C 0.5575 0.55763 0.14138 0.0
C5187 C 0.58226 0.56665 0.1646 0.0
C5188 C 0.57166 0.55424 0.17589 0.0
C5189 C 0.55385 0.54368 0.16989 0.0
C5190 C 0.54677 0.54545 0.1528 0.0
C5191 C 0.57967 0.55159 0.19354 0.0
C5192 C 0.58087 0.53316 0.19708 0.0
C5193 C 0.5877 0.56737 0.20606 0.0
C5194 C 0.58584 0.58694 0.20354 0.0
C5195 C 0.56854 0.58983 0.20012 0.0
C5196 C 0.56685 0.60826 0.19767 0.0
C5197 C 0.58234 0.62396 0.19871 0.0
C5198 C 0.59957 0.62125 0.20224 0.0
C5199 C 0.60134 0.60285 0.20468 0.0
H5200 H 0.581 0.63822 0.19681 0.0
H5201 H 0.59794 0.45945 0.22056 0.0
H5202 H 0.28358 0.91635 0.9375 0.0
H5203 H 0.28086 0.89989 0.90796 0.0
H5204 H 0.24755 0.84798 0.92717 0.0
H5205 H 0.25044 0.86438 0.95695 0.0
H5206 H 0.27494 0.84118 0.91016 0.0
H5207 H 0.22939 0.87313 0.89781 0.0
H5208 H 0.21582 0.90031 0.89681 0.0
H5209 H 0.25635 0.92836 0.86291 0.0
H5210 H 0.27035 0.90148 0.86391 0.0
H5211 H 0.25934 0.79064 0.82553 0.0
H5212 H 0.25321 0.80718 0.85253 0.0
H5213 H 0.29088 0.85988 0.83978 0.0
H5214 H 0.29714 0.84345 0.81259 0.0
H5215 H 0.25845 0.86498 0.85308 0.0
H5216 H 0.30538 0.83433 0.86802 0.0
H5217 H 0.31878 0.80701 0.86887 0.0
H5218 H 0.27496 0.77644 0.8981 0.0
H5219 H 0.26114 0.80349 0.89718 0.0
C5220 C 0.27543 0.90152 0.93538 0.0
C5221 C 0.26729 0.8916 0.94953 0.0
C5222 C 0.2738 0.89216 0.91845 0.0
C5223 C 0.2639 0.87275 0.91533 0.0
C5224 C 0.25523 0.86298 0.92931 0.0
C5225 C 0.25685 0.87236 0.94628 0.0
C5226 C 0.2641 0.86228 0.89793 0.0
C5227 C 0.27095 0.84616 0.89771 0.0
C5228 C 0.25935 0.86909 0.88166 0.0
C5229 C 0.25102 0.88534 0.88106 0.0
C5230 C 0.23551 0.88517 0.89027 0.0
C5231 C 0.22772 0.90051 0.88967 0.0
C5232 C 0.23524 0.91607 0.87984 0.0
C5233 C 0.25055 0.9163 0.87054 0.0
C5234 C 0.25841 0.901 0.8711 0.0
C5235 C 0.26624 0.80579 0.82834 0.0
C5236 C 0.27888 0.81569 0.81698 0.0
C5237 C 0.2627 0.8152 0.84379 0.0
C5238 C 0.27173 0.83466 0.84819 0.0
C5239 C 0.2838 0.84482 0.83657 0.0
C5240 C 0.28743 0.83539 0.82112 0.0
C5241 C 0.26934 0.84406 0.86544 0.0
C5242 C 0.26219 0.85995 0.86559 0.0
C5243 C 0.27378 0.83707 0.88169 0.0
C5244 C 0.28213 0.82084 0.88236 0.0
C5245 C 0.29852 0.82172 0.87449 0.0
C5246 C 0.30621 0.80629 0.87501 0.0
C5247 C 0.2977 0.78997 0.88349 0.0
C5248 C 0.28151 0.78908 0.89151 0.0
C5249 C 0.27376 0.80445 0.891 0.0
H5250 H 0.30367 0.77805 0.88388 0.0
H5251 H 0.22918 0.92793 0.87939 0.0
H5252 H 0.92722 0.55368 0.75293 0.0
H5253 H 0.9386 0.54785 0.72418 0.0
H5254 H 0.99388 0.56968 0.74724 0.0
H5255 H 0.98259 0.57559 0.77612 0.0
H5256 H 0.98818 0.58292 0.71399 0.0
H5257 H 0.97705 0.52338 0.74168 0.0
H5258 H 0.95879 0.49644 0.757 0.0
H5259 H 0.91923 0.48112 0.71214 0.0
H5260 H 0.93715 0.50818 0.69664 0.0
H5261 H 0.03444 0.54272 0.64992 0.0
H5262 H 0.02209 0.55177 0.67722 0.0
H5263 H 0.96747 0.52738 0.65319 0.0
H5264 H 0.97975 0.51799 0.62592 0.0
H5265 H 0.97201 0.51594 0.68648 0.0
H5266 H 0.98478 0.57504 0.65807 0.0
H5267 H 1.00268 0.60314 0.64391 0.0
H5268 H 0.03956 0.61975 0.69071 0.0
H5269 H 0.02208 0.59157 0.70507 0.0
C5270 C 0.9418 0.55737 0.75185 0.0
C5271 C 0.95406 0.56498 0.76673 0.0
C5272 C 0.94825 0.554 0.73546 0.0
C5273 C 0.96704 0.55818 0.73373 0.0
C5274 C 0.97932 0.56637 0.74841 0.0
C5275 C 0.97287 0.56966 0.76485 0.0
C5276 C 0.97384 0.55339 0.71671 0.0
C5277 C 0.98487 0.56827 0.70803 0.0
C5278 C 0.96909 0.53431 0.70889 0.0
C5279 C 0.95835 0.51791 0.71807 0.0
C5280 C 0.96438 0.51436 0.73513 0.0
C5281 C 0.95411 0.49906 0.74384 0.0
C5282 C 0.93785 0.4871 0.73556 0.0
C5283 C 0.93183 0.49041 0.71854 0.0
C5284 C 0.94204 0.50571 0.70978 0.0
C5285 C 0.01981 0.53919 0.65052 0.0
C5286 C 1.00803 0.52961 0.63587 0.0
C5287 C 0.01279 0.54454 0.66602 0.0
C5288 C 0.9939 0.5404 0.66709 0.0
C5289 C 0.9821 0.53076 0.65253 0.0
C5290 C 0.98911 0.52549 0.63698 0.0
C5291 C 0.98647 0.5455 0.68369 0.0
C5292 C 0.97531 0.53063 0.69235 0.0
C5293 C 0.9912 0.56461 0.69152 0.0
C5294 C 1.00218 0.58109 0.6826 0.0
C5295 C 0.99684 0.58453 0.66526 0.0
C5296 C 1.00688 0.60051 0.65722 0.0
C5297 C 0.02221 0.61323 0.66643 0.0
C5298 C 0.02766 0.60989 0.68362 0.0
C5299 C 0.0177 0.59392 0.69171 0.0
H5300 H 0.02981 0.62575 0.66032 0.0
H5301 H 0.92998 0.47523 0.74233 0.0
H5302 H 0.28941 0.18923 0.45355 0.0
H5303 H 0.29072 0.20034 0.42364 0.0
H5304 H 0.3064 0.2592 0.44582 0.0
H5305 H 0.30525 0.24808 0.47601 0.0
H5306 H 0.27949 0.25257 0.41751 0.0
H5307 H 0.33765 0.24043 0.4284 0.0
H5308 H 0.3585 0.22125 0.43688 0.0
H5309 H 0.33404 0.17878 0.39405 0.0
H5310 H 0.31284 0.19758 0.38547 0.0
H5311 H 0.30411 0.29623 0.33826 0.0
H5312 H 0.3047 0.28539 0.36811 0.0
H5313 H 0.29551 0.22695 0.34613 0.0
H5314 H 0.29528 0.23786 0.31595 0.0
H5315 H 0.31905 0.23319 0.37446 0.0
H5316 H 0.26084 0.24403 0.36341 0.0
H5317 H 0.23914 0.26211 0.35452 0.0
H5318 H 0.26208 0.30532 0.39718 0.0
H5319 H 0.28414 0.28765 0.40615 0.0
C5320 C 0.29318 0.20457 0.45214 0.0
C5321 C 0.29727 0.21774 0.4673 0.0
C5322 C 0.29398 0.21092 0.43494 0.0
C5323 C 0.2988 0.23066 0.4323 0.0
C5324 C 0.30267 0.2439 0.44741 0.0
C5325 C 0.30207 0.23753 0.4647 0.0
C5326 C 0.29967 0.2373 0.41379 0.0
C5327 C 0.28836 0.24858 0.40821 0.0
C5328 C 0.31076 0.23162 0.40131 0.0
C5329 C 0.32354 0.22033 0.4064 0.0
C5330 C 0.33661 0.22692 0.42088 0.0
C5331 C 0.34851 0.21613 0.42568 0.0
C5332 C 0.34757 0.19878 0.41604 0.0
C5333 C 0.33474 0.19221 0.40152 0.0
C5334 C 0.32279 0.20293 0.39667 0.0
C5335 C 0.30229 0.28104 0.33966 0.0
C5336 C 0.29954 0.26794 0.32452 0.0
C5337 C 0.30252 0.27482 0.35687 0.0
C5338 C 0.29974 0.25523 0.35961 0.0
C5339 C 0.29758 0.24213 0.34453 0.0
C5340 C 0.29746 0.2484 0.32721 0.0
C5341 C 0.29892 0.24857 0.37815 0.0
C5342 C 0.31019 0.23723 0.38374 0.0
C5343 C 0.28762 0.25401 0.39059 0.0
C5344 C 0.27427 0.2646 0.38535 0.0
C5345 C 0.26135 0.25746 0.37082 0.0
C5346 C 0.24897 0.26762 0.36577 0.0
C5347 C 0.24926 0.28488 0.37525 0.0
C5348 C 0.26189 0.29196 0.38983 0.0
C5349 C 0.27433 0.28187 0.39491 0.0
H5350 H 0.23967 0.29273 0.37132 0.0
H5351 H 0.3568 0.19045 0.41978 0.0
H5352 H 0.32794 0.58338 0.5639 0.0
H5353 H 0.34675 0.56258 0.55446 0.0
H5354 H 0.37414 0.60548 0.52067 0.0
H5355 H 0.35557 0.62636 0.53011 0.0
H5356 H 0.35996 0.56836 0.5034 0.0
H5357 H 0.39568 0.59955 0.55731 0.0
H5358 H 0.40137 0.60893 0.58945 0.0
H5359 H 0.387 0.54946 0.60051 0.0
H5360 H 0.38101 0.53969 0.56841 0.0
H5361 H 0.43908 0.5452 0.47908 0.0
H5362 H 0.41438 0.55787 0.48855 0.0
H5363 H 0.40078 0.51396 0.5256 0.0
H5364 H 0.42628 0.50206 0.51696 0.0
H5365 H 0.40426 0.54713 0.542 0.0
H5366 H 0.3714 0.51534 0.48859 0.0
H5367 H 0.36596 0.50522 0.45657 0.0
H5368 H 0.37393 0.56401 0.44461 0.0
H5369 H 0.37968 0.57452 0.47655 0.0
C5370 C 0.33815 0.58846 0.55465 0.0
C5371 C 0.34029 0.60644 0.54769 0.0
C5372 C 0.34885 0.57659 0.54929 0.0
C5373 C 0.36173 0.58253 0.53684 0.0
C5374 C 0.36419 0.60066 0.53024 0.0
C5375 C 0.35365 0.61259 0.53571 0.0
C5376 C 0.37214 0.56958 0.52999 0.0
C5377 C 0.36975 0.56377 0.51177 0.0
C5378 C 0.38429 0.56302 0.54113 0.0
C5379 C 0.38761 0.56889 0.56045 0.0
C5380 C 0.39351 0.58846 0.56659 0.0
C5381 C 0.39686 0.59385 0.58481 0.0
C5382 C 0.3945 0.57979 0.59702 0.0
C5383 C 0.3888 0.56032 0.59103 0.0
C5384 C 0.38542 0.55485 0.57283 0.0
C5385 C 0.4307 0.53816 0.48912 0.0
C5386 C 0.43477 0.52287 0.49746 0.0
C5387 C 0.41642 0.54523 0.49436 0.0
C5388 C 0.40566 0.53681 0.50776 0.0
C5389 C 0.40893 0.52069 0.51526 0.0
C5390 C 0.42338 0.51377 0.51017 0.0
C5391 C 0.39245 0.54619 0.51522 0.0
C5392 C 0.39425 0.55135 0.53359 0.0
C5393 C 0.37961 0.55197 0.50424 0.0
C5394 C 0.37608 0.54573 0.48499 0.0
C5395 C 0.37212 0.52613 0.47913 0.0
C5396 C 0.36896 0.52032 0.46099 0.0
C5397 C 0.36962 0.53397 0.44856 0.0
C5398 C 0.37342 0.55345 0.45425 0.0
C5399 C 0.3766 0.55934 0.47238 0.0
H5400 H 0.36718 0.52944 0.43452 0.0
H5401 H 0.39713 0.58399 0.61111 0.0
H5402 H 0.85627 0.89555 0.54231 0.0
H5403 H 0.88629 0.91805 0.54015 0.0
H5404 H 0.86283 0.94875 0.50254 0.0
H5405 H 0.83263 0.92645 0.50486 0.0
H5406 H 0.89716 0.94092 0.49326 0.0
H5407 H 0.87135 0.9686 0.54139 0.0
H5408 H 0.8564 0.96796 0.56947 0.0
H5409 H 0.9011 0.95327 0.59655 0.0
H5410 H 0.91618 0.95354 0.56855 0.0
H5411 H 0.97849 0.01907 0.49702 0.0
H5412 H 0.94668 0.99959 0.49594 0.0
H5413 H 0.95834 0.9761 0.54503 0.0
H5414 H 0.98954 0.99646 0.5467 0.0
H5415 H 0.92809 0.982 0.54702 0.0
H5416 H 0.9533 0.95164 0.49998 0.0
H5417 H 0.96888 0.9509 0.47238 0.0
H5418 H 0.92664 0.96828 0.44375 0.0
H5419 H 0.91093 0.96935 0.47124 0.0
C5420 C 0.8575 0.90705 0.53354 0.0
C5421 C 0.84207 0.90928 0.52382 0.0
C5422 C 0.87466 0.9199 0.53233 0.0
C5423 C 0.87678 0.93509 0.52122 0.0
C5424 C 0.86149 0.9371 0.51116 0.0
C5425 C 0.84425 0.92441 0.51258 0.0
C5426 C 0.89491 0.94921 0.52065 0.0
C5427 C 0.90389 0.95011 0.50492 0.0
C5428 C 0.90378 0.96091 0.53595 0.0
C5429 C 0.89481 0.96093 0.55284 0.0
C5430 C 0.87792 0.96508 0.5533 0.0
C5431 C 0.86944 0.96481 0.56921 0.0
C5432 C 0.87778 0.96053 0.58478 0.0
C5433 C 0.89464 0.95657 0.58447 0.0
C5434 C 0.90318 0.9568 0.56859 0.0
C5435 C 0.97416 0.00978 0.50757 0.0
C5436 C 0.98646 0.00935 0.52198 0.0
C5437 C 0.956 0.9985 0.5069 0.0
C5438 C 0.94999 0.98601 0.52027 0.0
C5439 C 0.96243 0.9856 0.53457 0.0
C5440 C 0.98034 0.99725 0.53551 0.0
C5441 C 0.93083 0.97346 0.51971 0.0
C5442 C 0.92151 0.97289 0.53527 0.0
C5443 C 0.92182 0.96182 0.50431 0.0
C5444 C 0.93104 0.96076 0.4877 0.0
C5445 C 0.94738 0.95537 0.48781 0.0
C5446 C 0.95623 0.9549 0.47219 0.0
C5447 C 0.94878 0.9596 0.45633 0.0
C5448 C 0.93241 0.96468 0.45604 0.0
C5449 C 0.92352 0.9652 0.47164 0.0
H5450 H 0.95568 0.95927 0.44426 0.0
H5451 H 0.87119 0.96033 0.59708 0.0
H5452 H 0.85406 0.0443 0.25099 0.0
H5453 H 0.83532 0.06354 0.26346 0.0
H5454 H 0.8804 0.11464 0.26422 0.0
H5455 H 0.89935 0.0954 0.25199 0.0
H5456 H 0.86332 0.11305 0.29482 0.0
H5457 H 0.84628 0.10499 0.23177 0.0
H5458 H 0.83538 0.08646 0.20294 0.0
H5459 H 0.78524 0.05775 0.22431 0.0
H5460 H 0.79596 0.07595 0.25336 0.0
H5461 H 0.82532 0.1902 0.29317 0.0
H5462 H 0.8402 0.16478 0.28869 0.0
H5463 H 0.78866 0.12195 0.28989 0.0
H5464 H 0.7734 0.14755 0.29351 0.0
H5465 H 0.80616 0.11533 0.26163 0.0
H5466 H 0.82228 0.1278 0.32391 0.0
H5467 H 0.83357 0.14793 0.35188 0.0
H5468 H 0.88576 0.16983 0.3314 0.0
H5469 H 0.87475 0.15 0.30322 0.0
C5470 C 0.85996 0.05963 0.25379 0.0
C5471 C 0.8781 0.06841 0.25044 0.0
C5472 C 0.84926 0.07059 0.26091 0.0
C5473 C 0.85646 0.0905 0.26463 0.0
C5474 C 0.87463 0.09927 0.26146 0.0
C5475 C 0.88537 0.0883 0.25439 0.0
C5476 C 0.84499 0.10232 0.2715 0.0
C5477 C 0.85086 0.11364 0.28756 0.0
C5478 C 0.82847 0.10258 0.26224 0.0
C5479 C 0.82201 0.09165 0.24479 0.0
C5480 C 0.83299 0.0946 0.23036 0.0
C5481 C 0.82684 0.08419 0.21397 0.0
C5482 C 0.80966 0.07089 0.21181 0.0
C5483 C 0.79857 0.06802 0.22602 0.0
C5484 C 0.80467 0.07839 0.24244 0.0
C5485 C 0.81713 0.17537 0.29258 0.0
C5486 C 0.79817 0.17084 0.29348 0.0
C5487 C 0.82571 0.16086 0.29028 0.0
C5488 C 0.81558 0.14149 0.28923 0.0
C5489 C 0.79671 0.13684 0.29079 0.0
C5490 C 0.78805 0.15144 0.29297 0.0
C5491 C 0.82465 0.12641 0.2848 0.0
C5492 C 0.81838 0.11445 0.26915 0.0
C5493 C 0.84086 0.12567 0.29438 0.0
C5494 C 0.84766 0.13741 0.31143 0.0
C5495 C 0.83615 0.13696 0.32534 0.0
C5496 C 0.84251 0.14831 0.34124 0.0
C5497 C 0.86038 0.16012 0.34343 0.0
C5498 C 0.87194 0.16061 0.32972 0.0
C5499 C 0.86566 0.14929 0.31379 0.0
H5500 H 0.86526 0.16891 0.35573 0.0
H5501 H 0.80491 0.06284 0.19911 0.0
H5502 H 0.74315 0.15217 0.05102 0.0
H5503 H 0.71065 0.13566 0.0477 0.0
H5504 H 0.72273 0.08078 0.04641 0.0
H5505 H 0.75539 0.09727 0.04958 0.0
H5506 H 0.69816 0.0819 0.01975 0.0
H5507 H 0.70539 0.09616 0.08231 0.0
H5508 H 0.71514 0.11596 0.11066 0.0
H5509 H 0.68119 0.15195 0.09611 0.0
H5510 H 0.67144 0.13253 0.06753 0.0
H5511 H 0.60495 0.03013 0.02788 0.0
H5512 H 0.63792 0.04367 0.03359 0.0
H5513 H 0.63203 0.10067 0.02827 0.0
H5514 H 0.59906 0.08725 0.02231 0.0
H5515 H 0.65346 0.0963 0.05964 0.0
H5516 H 0.64795 0.08222 0.99599 0.0
H5517 H 0.63807 0.06138 0.96822 0.0
H5518 H 0.66884 0.02355 0.98603 0.0
H5519 H 0.67869 0.04403 0.01405 0.0
C5520 C 0.73889 0.13659 0.05019 0.0
C5521 C 0.75176 0.12598 0.05054 0.0
C5522 C 0.72032 0.12718 0.04837 0.0
C5523 C 0.71431 0.10702 0.04697 0.0
C5524 C 0.72713 0.09637 0.04751 0.0
C5525 C 0.74574 0.10579 0.04937 0.0
C5526 C 0.69463 0.09717 0.04405 0.0
C5527 C 0.68841 0.08477 0.02865 0.0
C5528 C 0.68194 0.10118 0.05553 0.0
C5529 C 0.68781 0.11297 0.07269 0.0
C5530 C 0.70013 0.1084 0.08507 0.0
C5531 C 0.70563 0.11954 0.1012 0.0
C5532 C 0.69882 0.13523 0.10516 0.0
C5533 C 0.68647 0.1398 0.09301 0.0
C5534 C 0.68093 0.12871 0.07685 0.0
C5535 C 0.6107 0.04553 0.02782 0.0
C5536 C 0.59948 0.05766 0.02464 0.0
C5537 C 0.62949 0.05321 0.03106 0.0
C5538 C 0.63729 0.07312 0.03134 0.0
C5539 C 0.62616 0.08526 0.02812 0.0
C5540 C 0.60739 0.07757 0.02462 0.0
C5541 C 0.65708 0.08133 0.03526 0.0
C5542 C 0.66328 0.09337 0.05086 0.0
C5543 C 0.66975 0.07684 0.02406 0.0
C5544 C 0.66388 0.06454 0.00721 0.0
C5545 C 0.65246 0.06936 0.99407 0.0
C5546 C 0.6469 0.05763 0.97826 0.0
C5547 C 0.65278 0.04112 0.97538 0.0
C5548 C 0.66427 0.03633 0.98829 0.0
C5549 C 0.66986 0.04799 0.00413 0.0
H5550 H 0.64846 0.03206 0.96313 0.0
H5551 H 0.7031 0.14383 0.11766 0.0
H5552 H 0.18432 0.46557 0.28018 0.0
H5553 H 0.20527 0.4514 0.29658 0.0
H5554 H 0.25008 0.48508 0.26994 0.0
H5555 H 0.2292 0.49944 0.25351 0.0
H5556 H 0.24965 0.4463 0.2718 0.0
H5557 H 0.2453 0.49979 0.31046 0.0
H5558 H 0.22895 0.51941 0.32698 0.0
H5559 H 0.20539 0.47161 0.35707 0.0
H5560 H 0.22139 0.4516 0.34052 0.0
H5561 H 0.31643 0.42267 0.31808 0.0
H5562 H 0.30109 0.44725 0.31313 0.0
H5563 H 0.2543 0.41453 0.33768 0.0
H5564 H 0.27002 0.39015 0.34377 0.0
H5565 H 0.2569 0.45495 0.33778 0.0
H5566 H 0.25683 0.40055 0.2974 0.0
H5567 H 0.27202 0.37939 0.28135 0.0
H5568 H 0.30184 0.42716 0.25434 0.0
H5569 H 0.28706 0.44869 0.27054 0.0
C5570 C 0.19859 0.46977 0.27763 0.0
C5571 C 0.20516 0.48361 0.26559 0.0
C5572 C 0.21054 0.4618 0.28712 0.0
C5573 C 0.22921 0.46749 0.28466 0.0
C5574 C 0.2357 0.48066 0.27209 0.0
C5575 C 0.22378 0.48878 0.26269 0.0
C5576 C 0.24194 0.45961 0.29522 0.0
C5577 C 0.25148 0.44849 0.28619 0.0
C5578 C 0.24389 0.46208 0.31403 0.0
C5579 C 0.23442 0.47415 0.32414 0.0
C5580 C 0.23652 0.49342 0.3205 0.0
C5581 C 0.22734 0.50462 0.32989 0.0
C5582 C 0.2161 0.49675 0.34304 0.0
C5583 C 0.21408 0.47768 0.34687 0.0
C5584 C 0.22322 0.46641 0.3375 0.0
C5585 C 0.30336 0.42109 0.32349 0.0
C5586 C 0.29413 0.40393 0.33064 0.0
C5587 C 0.29455 0.43523 0.32052 0.0
C5588 C 0.27634 0.43225 0.32439 0.0
C5589 C 0.26827 0.41688 0.33431 0.0
C5590 C 0.27721 0.40284 0.33758 0.0
C5591 C 0.2647 0.44186 0.31432 0.0
C5592 C 0.25524 0.45307 0.32339 0.0
C5593 C 0.26254 0.43927 0.29551 0.0
C5594 C 0.27099 0.42626 0.28531 0.0
C5595 C 0.26669 0.40656 0.28811 0.0
C5596 C 0.27523 0.3945 0.27899 0.0
C5597 C 0.28792 0.40194 0.26686 0.0
C5598 C 0.29203 0.42143 0.26377 0.0
C5599 C 0.28358 0.43357 0.27291 0.0
H5600 H 0.29454 0.39259 0.25983 0.0
H5601 H 0.20899 0.50545 0.35028 0.0
H5602 H 0.26344 0.42733 0.03574 0.0
H5603 H 0.23889 0.4428 0.03725 0.0
H5604 H 0.19918 0.38737 0.02889 0.0
H5605 H 0.22387 0.37173 0.02708 0.0
H5606 H 0.18892 0.41309 0.00945 0.0
H5607 H 0.20806 0.41136 0.07008 0.0
H5608 H 0.22971 0.41578 0.09646 0.0
H5609 H 0.24627 0.47672 0.0916 0.0
H5610 H 0.22491 0.47264 0.06502 0.0
H5611 H 0.11881 0.45827 0.02799 0.0
H5612 H 0.13879 0.43709 0.0296 0.0
H5613 H 0.18543 0.48656 0.04022 0.0
H5614 H 0.16552 0.50768 0.03977 0.0
H5615 H 0.18932 0.45991 0.06022 0.0
H5616 H 0.17151 0.46014 0.99723 0.0
H5617 H 0.149 0.45482 0.9714 0.0
H5618 H 0.12875 0.39542 0.9817 0.0
H5619 H 0.15102 0.40044 0.00769 0.0
C5620 C 0.24949 0.41838 0.03425 0.0
C5621 C 0.24563 0.39827 0.03139 0.0
C5622 C 0.23543 0.42726 0.03519 0.0
C5623 C 0.21713 0.41627 0.03346 0.0
C5624 C 0.21318 0.39618 0.03033 0.0
C5625 C 0.2273 0.38725 0.02936 0.0
C5626 C 0.20227 0.42596 0.03483 0.0
C5627 C 0.18883 0.42309 0.02069 0.0
C5628 C 0.20213 0.43911 0.04943 0.0
C5629 C 0.21497 0.44167 0.06546 0.0
C5630 C 0.21641 0.42569 0.07455 0.0
C5631 C 0.22862 0.42814 0.08956 0.0
C5632 C 0.23938 0.44652 0.09568 0.0
C5633 C 0.23793 0.46249 0.08683 0.0
C5634 C 0.22576 0.46012 0.07181 0.0
C5635 C 0.13329 0.46467 0.03094 0.0
C5636 C 0.1405 0.4848 0.03354 0.0
C5637 C 0.14476 0.4525 0.03162 0.0
C5638 C 0.16374 0.46017 0.03465 0.0
C5639 C 0.17088 0.48021 0.03771 0.0
C5640 C 0.15945 0.49234 0.03724 0.0
C5641 C 0.17633 0.44758 0.03456 0.0
C5642 C 0.18932 0.44983 0.04902 0.0
C5643 C 0.17595 0.43378 0.02031 0.0
C5644 C 0.16281 0.43071 0.00449 0.0
C5645 C 0.1622 0.44597 0.99402 0.0
C5646 C 0.14949 0.443 0.97935 0.0
C5647 C 0.13741 0.4248 0.97494 0.0
C5648 C 0.13808 0.40951 0.98514 0.0
C5649 C 0.15076 0.4124 0.99982 0.0
H5650 H 0.12756 0.42254 0.9636 0.0
H5651 H 0.24883 0.44838 0.1073 0.0
H5652 H 0.86178 0.98376 0.19875 0.0
H5653 H 0.84334 0.95021 0.19661 0.0
H5654 H 0.88813 0.93393 0.22241 0.0
H5655 H 0.90674 0.96719 0.22402 0.0
H5656 H 0.86834 0.9051 0.20007 0.0
H5657 H 0.85683 0.94924 0.24654 0.0
H5658 H 0.84808 0.97809 0.25725 0.0
H5659 H 0.7964 0.95715 0.22702 0.0
H5660 H 0.80498 0.92828 0.21596 0.0
H5661 H 0.83926 0.83735 0.26053 0.0
H5662 H 0.85152 0.86644 0.24561 0.0
H5663 H 0.79716 0.86573 0.22609 0.0
H5664 H 0.78469 0.83688 0.24179 0.0
H5665 H 0.81633 0.90087 0.23742 0.0
H5666 H 0.82712 0.85109 0.19882 0.0
H5667 H 0.83751 0.82215 0.19221 0.0
H5668 H 0.89224 0.85354 0.21052 0.0
H5669 H 0.88218 0.88253 0.21757 0.0
C5670 C 0.86785 0.97291 0.20344 0.0
C5671 C 0.88553 0.97808 0.21189 0.0
C5672 C 0.85731 0.95377 0.20224 0.0
C5673 C 0.86423 0.9397 0.20978 0.0
C5674 C 0.88249 0.94458 0.21659 0.0
C5675 C 0.89309 0.96363 0.21758 0.0
C5676 C 0.85201 0.92084 0.21324 0.0
C5677 C 0.85687 0.90408 0.2081 0.0
C5678 C 0.83685 0.91954 0.22348 0.0
C5679 C 0.83162 0.93676 0.23026 0.0
C5680 C 0.84364 0.95086 0.24211 0.0
C5681 C 0.83872 0.9672 0.24824 0.0
C5682 C 0.82172 0.96948 0.24277 0.0
C5683 C 0.80958 0.95538 0.2312 0.0
C5684 C 0.81447 0.93904 0.22499 0.0
C5685 C 0.82991 0.84343 0.25311 0.0
C5686 C 0.81106 0.83489 0.25221 0.0
C5687 C 0.83693 0.85993 0.24444 0.0
C5688 C 0.82529 0.86787 0.23425 0.0
C5689 C 0.80638 0.85966 0.23371 0.0
C5690 C 0.79928 0.84329 0.24272 0.0
C5691 C 0.83305 0.88517 0.2248 0.0
C5692 C 0.82734 0.90165 0.22881 0.0
C5693 C 0.8476 0.88621 0.21378 0.0
C5694 C 0.85386 0.86901 0.20872 0.0
C5695 C 0.84137 0.85182 0.20142 0.0
C5696 C 0.84719 0.8354 0.19763 0.0
C5697 C 0.8655 0.83602 0.20092 0.0
C5698 C 0.87806 0.85309 0.20794 0.0
C5699 C 0.87231 0.86953 0.21181 0.0
H5700 H 0.86997 0.82328 0.19805 0.0
H5701 H 0.81792 0.98214 0.24752 0.0
H5702 H 0.67155 0.09387 0.77856 0.0
H5703 H 0.69124 0.12682 0.78094 0.0
H5704 H 0.72838 0.10929 0.7472 0.0
H5705 H 0.70863 0.07614 0.74467 0.0
H5706 H 0.74571 0.13322 0.77771 0.0
H5707 H 0.70222 0.13259 0.7295 0.0
H5708 H 0.67158 0.12621 0.71424 0.0
H5709 H 0.65752 0.16418 0.75328 0.0
H5710 H 0.68801 0.17057 0.76895 0.0
H5711 H 0.79418 0.2307 0.76497 0.0
H5712 H 0.77756 0.19656 0.76062 0.0
H5713 H 0.73398 0.20764 0.7895 0.0
H5714 H 0.75032 0.24172 0.79374 0.0
H5715 H 0.7211 0.18633 0.75895 0.0
H5716 H 0.76375 0.18561 0.80811 0.0
H5717 H 0.7942 0.19189 0.82377 0.0
H5718 H 0.80977 0.15658 0.78335 0.0
H5719 H 0.77946 0.1503 0.7673 0.0
C5720 C 0.68391 0.09701 0.77164 0.0
C5721 C 0.68854 0.08247 0.76137 0.0
C5722 C 0.69511 0.11584 0.77299 0.0
C5723 C 0.71116 0.12047 0.76413 0.0
C5724 C 0.71602 0.10595 0.7541 0.0
C5725 C 0.70471 0.08709 0.75262 0.0
C5726 C 0.7227 0.14058 0.76534 0.0
C5727 C 0.74049 0.14484 0.77334 0.0
C5728 C 0.7157 0.15568 0.7599 0.0
C5729 C 0.69735 0.15192 0.75049 0.0
C5730 C 0.69255 0.13945 0.73492 0.0
C5731 C 0.67521 0.13586 0.72618 0.0
C5732 C 0.6626 0.14475 0.73281 0.0
C5733 C 0.6673 0.15729 0.74817 0.0
C5734 C 0.68462 0.16092 0.75698 0.0
C5735 C 0.78112 0.22584 0.77052 0.0
C5736 C 0.77355 0.23894 0.77964 0.0
C5737 C 0.77166 0.20633 0.76805 0.0
C5738 C 0.75456 0.19957 0.77479 0.0
C5739 C 0.74713 0.21258 0.78413 0.0
C5740 C 0.75652 0.23205 0.78657 0.0
C5741 C 0.74404 0.17908 0.77166 0.0
C5742 C 0.72642 0.17474 0.76322 0.0
C5743 C 0.75121 0.16395 0.77675 0.0
C5744 C 0.76941 0.16766 0.7864 0.0
C5745 C 0.77371 0.17931 0.80248 0.0
C5746 C 0.79094 0.18285 0.81144 0.0
C5747 C 0.80393 0.17469 0.80453 0.0
C5748 C 0.7997 0.16293 0.78867 0.0
C5749 C 0.7825 0.15936 0.77964 0.0
H5750 H 0.81726 0.17744 0.81149 0.0
H5751 H 0.64919 0.14195 0.72601 0.0
loop_
_geom_bond_atom_site_label_1
_geom_bond_atom_site_label_2
_geom_bond_distance
_geom_bond_site_symmetry_2
_ccdc_geom_bond_type
In0 O1 2.294 . S
In0 O2 2.326 . S
In0 O6 2.266 . S
In0 O7 2.356 . S
In0 O8 2.266 . S
In0 O9 2.326 . S
In0 O11 2.294 . S
In0 O12 2.326 . S
O1 In0 2.294 . S
O1 C10 1.240 . S
O2 In0 2.326 . S
O2 C10 1.252 . S
C3 O6 1.252 1_655 S
C3 O7 1.257 1_655 S
C4 O11 1.240 . S
C4 O12 1.252 . S
C5 O8 1.252 . S
C5 O9 1.260 . S
O6 In0 2.266 . S
O6 C3 1.252 1_455 S
O7 In0 2.356 . S
O7 C3 1.257 1_455 S
O8 In0 2.266 . S
O8 C5 1.252 . S
O9 In0 2.326 . S
O9 C5 1.260 . S
C10 O1 1.240 . S
C10 O2 1.252 . S
O11 In0 2.294 . S
O11 C4 1.240 . S
O12 In0 2.326 . S
O12 C4 1.252 . S
In13 O14 2.294 . S
In13 O15 2.326 . S
In13 O19 2.266 . S
In13 O20 2.326 . S
In13 O21 2.266 . S
In13 O22 2.326 . S
In13 O24 2.294 . S
In13 O25 2.326 . S
O14 In13 2.294 . S
O14 C23 1.240 . S
O15 In13 2.326 . S
O15 C23 1.252 . S
C16 O19 1.252 . S
C16 O20 1.260 . S
C17 O24 1.240 . S
C17 O25 1.252 . S
C18 O21 1.252 . S
C18 O22 1.260 . S
O19 In13 2.266 . S
O19 C16 1.252 . S
O20 In13 2.326 . S
O20 C16 1.260 . S
O21 In13 2.266 . S
O21 C18 1.252 . S
O22 In13 2.326 . S
O22 C18 1.260 . S
C23 O14 1.240 . S
C23 O15 1.252 . S
O24 In13 2.294 . S
O24 C17 1.240 . S
O25 In13 2.326 . S
O25 C17 1.252 . S
In26 O27 2.294 . S
In26 O28 2.326 . S
In26 O32 2.266 . S
In26 O33 2.326 . S
In26 O34 2.266 . S
In26 O35 2.326 . S
In26 O37 2.294 . S
In26 O38 2.326 . S
O27 In26 2.294 . S
O27 C36 1.240 . S
O28 In26 2.326 . S
O28 C36 1.252 . S
C29 O32 1.252 . S
C29 O33 1.260 . S
C30 O37 1.240 . S
C30 O38 1.252 . S
C31 O34 1.252 . S
C31 O35 1.260 . S
O32 In26 2.266 . S
O32 C29 1.252 . S
O33 In26 2.326 . S
O33 C29 1.260 . S
O34 In26 2.266 . S
O34 C31 1.252 . S
O35 In26 2.326 . S
O35 C31 1.260 . S
C36 O27 1.240 . S
C36 O28 1.252 . S
O37 In26 2.294 . S
O37 C30 1.240 . S
O38 In26 2.326 . S
O38 C30 1.252 . S
In39 O40 2.294 . S
In39 O41 2.326 . S
In39 O45 2.266 . S
In39 O46 2.326 . S
In39 O47 2.266 . S
In39 O48 2.326 . S
In39 O50 2.294 . S
In39 O51 2.326 . S
O40 In39 2.294 . S
O40 C49 1.240 . S
O41 In39 2.326 . S
O41 C49 1.252 . S
C42 O45 1.252 . S
C42 O46 1.260 . S
C43 O50 1.240 . S
C43 O51 1.252 . S
C44 O47 1.252 . S
C44 O48 1.260 . S
O45 In39 2.266 . S
O45 C42 1.252 . S
O46 In39 2.326 . S
O46 C42 1.260 . S
O47 In39 2.266 . S
O47 C44 1.252 . S
O48 In39 2.326 . S
O48 C44 1.260 . S
C49 O40 1.240 . S
C49 O41 1.252 . S
O50 In39 2.294 . S
O50 C43 1.240 . S
O51 In39 2.326 . S
O51 C43 1.252 . S
In52 O53 2.294 . S
In52 O54 2.326 . S
In52 O58 2.266 . S
In52 O59 2.326 . S
In52 O60 2.266 . S
In52 O61 2.326 . S
In52 O63 2.294 . S
In52 O64 2.326 . S
O53 In52 2.294 . S
O53 C62 1.240 . S
O54 In52 2.326 . S
O54 C62 1.252 . S
C55 O58 1.252 . S
C55 O59 1.260 . S
C56 O63 1.240 . S
C56 O64 1.252 . S
C57 O60 1.252 . S
C57 O61 1.260 . S
O58 In52 2.266 . S
O58 C55 1.252 . S
O59 In52 2.326 . S
O59 C55 1.260 . S
O60 In52 2.266 . S
O60 C57 1.252 . S
O61 In52 2.326 . S
O61 C57 1.260 . S
C62 O53 1.240 . S
C62 O54 1.252 . S
O63 In52 2.294 . S
O63 C56 1.240 . S
O64 In52 2.326 . S
O64 C56 1.252 . S
In65 O66 2.294 . S
In65 O67 2.326 . S
In65 O71 2.266 . S
In65 O72 2.326 . S
In65 O73 2.266 . S
In65 O74 2.326 . S
In65 O76 2.294 . S
In65 O77 2.326 . S
O66 In65 2.294 . S
O66 C75 1.240 . S
O67 In65 2.326 . S
O67 C75 1.252 . S
C68 O71 1.252 . S
C68 O72 1.260 . S
C69 O76 1.240 . S
C69 O77 1.252 . S
C70 O73 1.252 . S
C70 O74 1.260 . S
O71 In65 2.266 . S
O71 C68 1.252 . S
O72 In65 2.326 . S
O72 C68 1.260 . S
O73 In65 2.266 . S
O73 C70 1.252 . S
O74 In65 2.326 . S
O74 C70 1.260 . S
C75 O66 1.240 . S
C75 O67 1.252 . S
O76 In65 2.294 . S
O76 C69 1.240 . S
O77 In65 2.326 . S
O77 C69 1.252 . S
In78 O79 2.294 . S
In78 O80 2.326 . S
In78 O84 2.266 . S
In78 O85 2.326 . S
In78 O86 2.266 . S
In78 O87 2.326 . S
In78 O89 2.294 . S
In78 O90 2.326 . S
O79 In78 2.294 . S
O79 C88 1.240 . S
O80 In78 2.326 . S
O80 C88 1.252 . S
C81 O84 1.252 . S
C81 O85 1.260 . S
C82 O89 1.240 . S
C82 O90 1.252 . S
C83 O86 1.252 . S
C83 O87 1.260 . S
O84 In78 2.266 . S
O84 C81 1.252 . S
O85 In78 2.326 . S
O85 C81 1.260 . S
O86 In78 2.266 . S
O86 C83 1.252 . S
O87 In78 2.326 . S
O87 C83 1.260 . S
C88 O79 1.240 . S
C88 O80 1.252 . S
O89 In78 2.294 . S
O89 C82 1.240 . S
O90 In78 2.326 . S
O90 C82 1.252 . S
In91 O92 2.295 . S
In91 O93 2.327 1_455 S
In91 O97 2.266 . S
In91 O98 2.325 . S
In91 O99 2.264 1_455 S
In91 O100 2.323 1_455 S
In91 O102 2.296 . S
In91 O103 2.329 . S
O92 In91 2.295 . S
O92 C101 1.239 . S
O93 In91 2.327 1_655 S
O93 C101 1.252 1_655 S
C94 O97 1.252 . S
C94 O98 1.260 . S
C95 O102 1.240 . S
C95 O103 1.252 . S
C96 O99 1.252 . S
C96 O100 1.260 . S
O97 In91 2.266 . S
O97 C94 1.252 . S
O98 In91 2.325 . S
O98 C94 1.260 . S
O99 In91 2.264 1_655 S
O99 C96 1.252 . S
O100 In91 2.323 1_655 S
O100 C96 1.260 . S
C101 O92 1.239 . S
C101 O93 1.252 1_455 S
O102 In91 2.296 . S
O102 C95 1.240 . S
O103 In91 2.329 . S
O103 C95 1.252 . S
In104 O105 2.294 . S
In104 O106 2.326 . S
In104 O110 2.266 . S
In104 O111 2.326 . S
In104 O112 2.266 . S
In104 O113 2.289 1_545 S
In104 O115 2.294 . S
In104 O116 2.326 . S
O105 In104 2.294 . S
O105 C114 1.240 . S
O106 In104 2.326 . S
O106 C114 1.252 . S
C107 O110 1.252 . S
C107 O111 1.260 . S
C108 O115 1.240 . S
C108 O116 1.252 . S
C109 O112 1.252 1_565 S
C109 O113 1.262 . S
O110 In104 2.266 . S
O110 C107 1.252 . S
O111 In104 2.326 . S
O111 C107 1.260 . S
O112 In104 2.266 . S
O112 C109 1.252 1_545 S
O113 In104 2.289 1_565 S
O113 C109 1.262 . S
C114 O105 1.240 . S
C114 O106 1.252 . S
O115 In104 2.294 . S
O115 C108 1.240 . S
O116 In104 2.326 . S
O116 C108 1.252 . S
In117 O118 2.294 . S
In117 O119 2.326 . S
In117 O123 2.266 . S
In117 O124 2.326 . S
In117 O125 2.266 . S
In117 O126 2.326 . S
In117 O128 2.294 . S
In117 O129 2.326 . S
O118 In117 2.294 . S
O118 C127 1.240 . S
O119 In117 2.326 . S
O119 C127 1.252 . S
C120 O123 1.252 . S
C120 O124 1.260 . S
C121 O128 1.240 . S
C121 O129 1.252 . S
C122 O125 1.252 . S
C122 O126 1.260 . S
O123 In117 2.266 . S
O123 C120 1.252 . S
O124 In117 2.326 . S
O124 C120 1.260 . S
O125 In117 2.266 . S
O125 C122 1.252 . S
O126 In117 2.326 . S
O126 C122 1.260 . S
C127 O118 1.240 . S
C127 O119 1.252 . S
O128 In117 2.294 . S
O128 C121 1.240 . S
O129 In117 2.326 . S
O129 C121 1.252 . S
In130 O131 2.294 . S
In130 O132 2.326 . S
In130 O136 2.266 . S
In130 O137 2.326 . S
In130 O138 2.266 . S
In130 O139 2.326 . S
In130 O141 2.294 . S
In130 O142 2.326 . S
O131 In130 2.294 . S
O131 C140 1.240 . S
O132 In130 2.326 . S
O132 C140 1.252 . S
C133 O136 1.252 . S
C133 O137 1.260 . S
C134 O141 1.240 . S
C134 O142 1.252 . S
C135 O138 1.252 . S
C135 O139 1.260 . S
O136 In130 2.266 . S
O136 C133 1.252 . S
O137 In130 2.326 . S
O137 C133 1.260 . S
O138 In130 2.266 . S
O138 C135 1.252 . S
O139 In130 2.326 . S
O139 C135 1.260 . S
C140 O131 1.240 . S
C140 O132 1.252 . S
O141 In130 2.294 . S
O141 C134 1.240 . S
O142 In130 2.326 . S
O142 C134 1.252 . S
In143 O144 2.296 . S
In143 O145 2.329 . S
In143 O149 2.264 1_554 S
In143 O150 2.322 1_554 S
In143 O151 2.266 1_554 S
In143 O152 2.325 1_554 S
In143 O154 2.294 . S
In143 O155 2.327 . S
O144 In143 2.296 . S
O144 C153 1.240 . S
O145 In143 2.329 . S
O145 C153 1.252 . S
C146 O149 1.252 . S
C146 O150 1.260 . S
C147 O154 1.240 . S
C147 O155 1.252 . S
C148 O151 1.252 . S
C148 O152 1.260 . S
O149 In143 2.264 1_556 S
O149 C146 1.252 . S
O150 In143 2.322 1_556 S
O150 C146 1.260 . S
O151 In143 2.266 1_556 S
O151 C148 1.252 . S
O152 In143 2.325 1_556 S
O152 C148 1.260 . S
C153 O144 1.240 . S
C153 O145 1.252 . S
O154 In143 2.294 . S
O154 C147 1.240 . S
O155 In143 2.327 . S
O155 C147 1.252 . S
In156 O157 2.294 . S
In156 O158 2.326 . S
In156 O162 2.266 . S
In156 O163 2.326 1_554 S
In156 O164 2.266 . S
In156 O165 2.326 . S
In156 O167 2.294 . S
In156 O168 2.326 . S
O157 In156 2.294 . S
O157 C166 1.240 . S
O158 In156 2.326 . S
O158 C166 1.252 . S
C159 O162 1.252 1_556 S
C159 O163 1.260 . S
C160 O167 1.240 . S
C160 O168 1.252 . S
C161 O164 1.252 . S
C161 O165 1.260 . S
O162 In156 2.266 . S
O162 C159 1.252 1_554 S
O163 In156 2.326 1_556 S
O163 C159 1.260 . S
O164 In156 2.266 . S
O164 C161 1.252 . S
O165 In156 2.326 . S
O165 C161 1.260 . S
C166 O157 1.240 . S
C166 O158 1.252 . S
O167 In156 2.294 . S
O167 C160 1.240 . S
O168 In156 2.326 . S
O168 C160 1.252 . S
In169 O170 2.294 . S
In169 O171 2.326 . S
In169 O175 2.266 . S
In169 O176 2.326 . S
In169 O177 2.266 . S
In169 O178 2.326 . S
In169 O180 2.294 . S
In169 O181 2.326 . S
O170 In169 2.294 . S
O170 C179 1.240 . S
O171 In169 2.326 . S
O171 C179 1.252 . S
C172 O175 1.252 . S
C172 O176 1.260 . S
C173 O180 1.240 . S
C173 O181 1.252 . S
C174 O177 1.252 . S
C174 O178 1.260 . S
O175 In169 2.266 . S
O175 C172 1.252 . S
O176 In169 2.326 . S
O176 C172 1.260 . S
O177 In169 2.266 . S
O177 C174 1.252 . S
O178 In169 2.326 . S
O178 C174 1.260 . S
C179 O170 1.240 . S
C179 O171 1.252 . S
O180 In169 2.294 . S
O180 C173 1.240 . S
O181 In169 2.326 . S
O181 C173 1.252 . S
In182 O183 2.294 . S
In182 O184 2.326 . S
In182 O188 2.266 . S
In182 O189 2.326 . S
In182 O190 2.266 . S
In182 O191 2.326 . S
In182 O193 2.294 . S
In182 O194 2.326 . S
O183 In182 2.294 . S
O183 C192 1.240 . S
O184 In182 2.326 . S
O184 C192 1.252 . S
C185 O188 1.252 . S
C185 O189 1.260 . S
C186 O193 1.240 . S
C186 O194 1.252 . S
C187 O190 1.252 . S
C187 O191 1.260 . S
O188 In182 2.266 . S
O188 C185 1.252 . S
O189 In182 2.326 . S
O189 C185 1.260 . S
O190 In182 2.266 . S
O190 C187 1.252 . S
O191 In182 2.326 . S
O191 C187 1.260 . S
C192 O183 1.240 . S
C192 O184 1.252 . S
O193 In182 2.294 . S
O193 C186 1.240 . S
O194 In182 2.326 . S
O194 C186 1.252 . S
In195 O196 2.294 . S
In195 O197 2.326 . S
In195 O201 2.266 . S
In195 O202 2.326 . S
In195 O203 2.266 . S
In195 O204 2.326 . S
In195 O206 2.294 . S
In195 O207 2.326 . S
O196 In195 2.294 . S
O196 C205 1.240 . S
O197 In195 2.326 . S
O197 C205 1.252 . S
C198 O201 1.252 . S
C198 O202 1.260 . S
C199 O206 1.240 . S
C199 O207 1.252 . S
C200 O203 1.252 . S
C200 O204 1.260 . S
O201 In195 2.266 . S
O201 C198 1.252 . S
O202 In195 2.326 . S
O202 C198 1.260 . S
O203 In195 2.266 . S
O203 C200 1.252 . S
O204 In195 2.326 . S
O204 C200 1.260 . S
C205 O196 1.240 . S
C205 O197 1.252 . S
O206 In195 2.294 . S
O206 C199 1.240 . S
O207 In195 2.326 . S
O207 C199 1.252 . S
In208 O209 2.294 . S
In208 O210 2.326 . S
In208 O214 2.266 . S
In208 O215 2.326 . S
In208 O216 2.266 1_545 S
In208 O217 2.326 1_545 S
In208 O219 2.294 . S
In208 O220 2.326 . S
O209 In208 2.294 . S
O209 C218 1.240 . S
O210 In208 2.326 . S
O210 C218 1.252 . S
C211 O214 1.252 . S
C211 O215 1.260 . S
C212 O219 1.240 . S
C212 O220 1.252 . S
C213 O216 1.252 . S
C213 O217 1.260 . S
O214 In208 2.266 . S
O214 C211 1.252 . S
O215 In208 2.326 . S
O215 C211 1.260 . S
O216 In208 2.266 1_565 S
O216 C213 1.252 . S
O217 In208 2.326 1_565 S
O217 C213 1.260 . S
C218 O209 1.240 . S
C218 O210 1.252 . S
O219 In208 2.294 . S
O219 C212 1.240 . S
O220 In208 2.326 . S
O220 C212 1.252 . S
In221 O222 2.294 . S
In221 O223 2.326 . S
In221 O227 2.266 . S
In221 O228 2.326 . S
In221 O229 2.266 . S
In221 O230 2.326 . S
In221 O232 2.294 . S
In221 O233 2.326 . S
O222 In221 2.294 . S
O222 C231 1.240 . S
O223 In221 2.326 . S
O223 C231 1.252 . S
C224 O227 1.252 . S
C224 O228 1.260 . S
C225 O232 1.240 . S
C225 O233 1.252 . S
C226 O229 1.252 . S
C226 O230 1.260 . S
O227 In221 2.266 . S
O227 C224 1.252 . S
O228 In221 2.326 . S
O228 C224 1.260 . S
O229 In221 2.266 . S
O229 C226 1.252 . S
O230 In221 2.326 . S
O230 C226 1.260 . S
C231 O222 1.240 . S
C231 O223 1.252 . S
O232 In221 2.294 . S
O232 C225 1.240 . S
O233 In221 2.326 . S
O233 C225 1.252 . S
In234 O235 2.294 . S
In234 O236 2.326 . S
In234 O240 2.266 . S
In234 O241 2.326 . S
In234 O242 2.266 . S
In234 O243 2.326 . S
In234 O245 2.294 . S
In234 O246 2.326 . S
O235 In234 2.294 . S
O235 C244 1.240 . S
O236 In234 2.326 . S
O236 C244 1.252 . S
C237 O240 1.252 . S
C237 O241 1.260 . S
C238 O245 1.240 . S
C238 O246 1.252 . S
C239 O242 1.252 . S
C239 O243 1.260 . S
O240 In234 2.266 . S
O240 C237 1.252 . S
O241 In234 2.326 . S
O241 C237 1.260 . S
O242 In234 2.266 . S
O242 C239 1.252 . S
O243 In234 2.326 . S
O243 C239 1.260 . S
C244 O235 1.240 . S
C244 O236 1.252 . S
O245 In234 2.294 . S
O245 C238 1.240 . S
O246 In234 2.326 . S
O246 C238 1.252 . S
In247 O248 2.294 . S
In247 O249 2.326 1_545 S
In247 O253 2.266 . S
In247 O254 2.326 . S
In247 O255 2.266 . S
In247 O256 2.326 . S
In247 O258 2.294 . S
In247 O259 2.326 . S
O248 In247 2.294 . S
O248 C257 1.240 1_545 S
O249 In247 2.326 1_565 S
O249 C257 1.252 . S
C250 O253 1.252 . S
C250 O254 1.260 . S
C251 O258 1.240 . S
C251 O259 1.252 . S
C252 O255 1.252 . S
C252 O256 1.260 . S
O253 In247 2.266 . S
O253 C250 1.252 . S
O254 In247 2.326 . S
O254 C250 1.260 . S
O255 In247 2.266 . S
O255 C252 1.252 . S
O256 In247 2.326 . S
O256 C252 1.260 . S
C257 O248 1.240 1_565 S
C257 O249 1.252 . S
O258 In247 2.294 . S
O258 C251 1.240 . S
O259 In247 2.326 . S
O259 C251 1.252 . S
In260 O261 2.294 . S
In260 O262 2.326 . S
In260 O266 2.266 . S
In260 O267 2.326 . S
In260 O268 2.266 . S
In260 O269 2.326 1_554 S
In260 O271 2.294 . S
In260 O272 2.326 . S
O261 In260 2.294 . S
O261 C270 1.240 . S
O262 In260 2.326 . S
O262 C270 1.252 . S
C263 O266 1.252 . S
C263 O267 1.260 . S
C264 O271 1.240 . S
C264 O272 1.252 . S
C265 O268 1.252 1_556 S
C265 O269 1.260 . S
O266 In260 2.266 . S
O266 C263 1.252 . S
O267 In260 2.326 . S
O267 C263 1.260 . S
O268 In260 2.266 . S
O268 C265 1.252 1_554 S
O269 In260 2.326 1_556 S
O269 C265 1.260 . S
C270 O261 1.240 . S
C270 O262 1.252 . S
O271 In260 2.294 . S
O271 C264 1.240 . S
O272 In260 2.326 . S
O272 C264 1.252 . S
In273 O274 2.294 . S
In273 O275 2.326 . S
In273 O279 2.266 . S
In273 O280 2.326 . S
In273 O281 2.266 . S
In273 O282 2.326 . S
In273 O284 2.294 . S
In273 O285 2.326 . S
O274 In273 2.294 . S
O274 C283 1.240 . S
O275 In273 2.326 . S
O275 C283 1.252 . S
C276 O279 1.252 . S
C276 O280 1.260 . S
C277 O284 1.240 . S
C277 O285 1.252 . S
C278 O281 1.252 . S
C278 O282 1.260 . S
O279 In273 2.266 . S
O279 C276 1.252 . S
O280 In273 2.326 . S
O280 C276 1.260 . S
O281 In273 2.266 . S
O281 C278 1.252 . S
O282 In273 2.326 . S
O282 C278 1.260 . S
C283 O274 1.240 . S
C283 O275 1.252 . S
O284 In273 2.294 . S
O284 C277 1.240 . S
O285 In273 2.326 . S
O285 C277 1.252 . S
In286 O287 2.294 . S
In286 O288 2.326 . S
In286 O292 2.266 . S
In286 O293 2.326 . S
In286 O294 2.266 . S
In286 O295 2.326 . S
In286 O297 2.294 . S
In286 O298 2.326 . S
O287 In286 2.294 . S
O287 C296 1.240 . S
O288 In286 2.326 . S
O288 C296 1.252 . S
C289 O292 1.252 . S
C289 O293 1.260 . S
C290 O297 1.240 . S
C290 O298 1.252 . S
C291 O294 1.252 . S
C291 O295 1.260 . S
O292 In286 2.266 . S
O292 C289 1.252 . S
O293 In286 2.326 . S
O293 C289 1.260 . S
O294 In286 2.266 . S
O294 C291 1.252 . S
O295 In286 2.326 . S
O295 C291 1.260 . S
C296 O287 1.240 . S
C296 O288 1.252 . S
O297 In286 2.294 . S
O297 C290 1.240 . S
O298 In286 2.326 . S
O298 C290 1.252 . S
In299 O300 2.294 . S
In299 O301 2.326 . S
In299 O305 2.266 . S
In299 O306 2.326 . S
In299 O307 2.266 . S
In299 O308 2.326 . S
In299 O310 2.294 . S
In299 O311 2.326 . S
O300 In299 2.294 . S
O300 C309 1.240 . S
O301 In299 2.326 . S
O301 C309 1.252 . S
C302 O305 1.252 . S
C302 O306 1.260 . S
C303 O310 1.240 . S
C303 O311 1.252 . S
C304 O307 1.252 . S
C304 O308 1.260 . S
O305 In299 2.266 . S
O305 C302 1.252 . S
O306 In299 2.326 . S
O306 C302 1.260 . S
O307 In299 2.266 . S
O307 C304 1.252 . S
O308 In299 2.326 . S
O308 C304 1.260 . S
C309 O300 1.240 . S
C309 O301 1.252 . S
O310 In299 2.294 . S
O310 C303 1.240 . S
O311 In299 2.326 . S
O311 C303 1.252 . S
Tb312 C321 2.764 . S
Tb312 O322 2.325 . S
Tb312 O325 2.303 . S
Tb312 O329 2.322 . S
Tb312 O330 2.349 . S
Tb312 O333 2.415 . S
Tb312 O334 2.399 . S
Tb313 O323 2.322 . S
Tb313 O324 2.349 . S
Tb313 O326 2.374 1_455 S
Tb313 O327 2.370 1_455 S
Tb313 O328 2.325 . S
Tb313 O331 2.303 . S
Tb313 C342 2.764 1_455 S
C314 O330 1.261 . S
C314 O331 1.257 . S
C315 C318 1.358 . S
C315 C319 1.332 . S
C315 C321 1.504 . S
C316 C317 1.373 . S
C316 C320 1.308 . S
C317 C316 1.373 . S
C317 C318 1.429 . S
C317 H344 0.932 . S
C318 C315 1.358 . S
C318 C317 1.429 . S
C318 H345 0.930 . S
C319 C315 1.332 . S
C319 C320 1.394 . S
C319 H346 0.932 . S
C320 C316 1.308 . S
C320 C319 1.394 . S
C320 H347 0.929 . S
C321 Tb312 2.764 . S
C321 C315 1.504 . S
C321 O333 1.239 . S
C321 O334 1.263 . S
O322 Tb312 2.325 . S
O322 C332 1.236 . S
O323 Tb313 2.322 . S
O323 C332 1.257 . S
O324 Tb313 2.349 . S
O324 C335 1.261 . S
O325 Tb312 2.303 . S
O325 C335 1.257 . S
O326 Tb313 2.374 1_655 S
O326 C342 1.256 . S
O327 Tb313 2.370 1_655 S
O327 C342 1.285 . S
O328 Tb313 2.325 . S
O328 C343 1.236 . S
O329 Tb312 2.322 . S
O329 C343 1.257 . S
O330 Tb312 2.349 . S
O330 C314 1.261 . S
O331 Tb313 2.303 . S
O331 C314 1.257 . S
C332 O322 1.236 . S
C332 O323 1.257 . S
O333 Tb312 2.415 . S
O333 C321 1.239 . S
O334 Tb312 2.399 . S
O334 C321 1.263 . S
C335 O324 1.261 . S
C335 O325 1.257 . S
C336 C339 1.358 . S
C336 C340 1.332 . S
C336 C342 1.504 . S
C337 C338 1.373 . S
C337 C341 1.308 . S
C338 C337 1.373 . S
C338 C339 1.429 . S
C338 H348 0.932 1_554 S
C339 C336 1.358 . S
C339 C338 1.429 . S
C339 H349 0.930 1_554 S
C340 C336 1.332 . S
C340 C341 1.394 . S
C340 H350 0.932 . S
C341 C337 1.308 . S
C341 C340 1.394 . S
C341 H351 0.929 . S
C342 Tb313 2.764 1_655 S
C342 O326 1.256 . S
C342 O327 1.285 . S
C342 C336 1.504 . S
C343 O328 1.236 . S
C343 O329 1.257 . S
H344 C317 0.932 . S
H345 C318 0.930 . S
H346 C319 0.932 . S
H347 C320 0.929 . S
H348 C338 0.932 1_556 S
H349 C339 0.930 1_556 S
H350 C340 0.932 . S
H351 C341 0.929 . S
Tb352 C361 2.764 . S
Tb352 O362 2.325 . S
Tb352 O365 2.303 . S
Tb352 O369 2.322 . S
Tb352 O370 2.349 . S
Tb352 O373 2.415 . S
Tb352 O374 2.399 . S
Tb353 O363 2.322 . S
Tb353 O364 2.349 . S
Tb353 O366 2.415 . S
Tb353 O367 2.399 . S
Tb353 O368 2.325 . S
Tb353 O371 2.303 . S
Tb353 C382 2.764 . S
C354 O370 1.261 . S
C354 O371 1.257 . S
C355 C358 1.358 . S
C355 C359 1.332 . S
C355 C361 1.504 . S
C356 C357 1.373 . S
C356 C360 1.308 . S
C357 C356 1.373 . S
C357 C358 1.429 . S
C357 H384 0.932 . S
C358 C355 1.358 . S
C358 C357 1.429 . S
C358 H385 0.930 . S
C359 C355 1.332 . S
C359 C360 1.394 . S
C359 H386 0.932 . S
C360 C356 1.308 . S
C360 C359 1.394 . S
C360 H387 0.929 . S
C361 Tb352 2.764 . S
C361 C355 1.504 . S
C361 O373 1.239 . S
C361 O374 1.263 . S
O362 Tb352 2.325 . S
O362 C372 1.236 . S
O363 Tb353 2.322 . S
O363 C372 1.257 . S
O364 Tb353 2.349 . S
O364 C375 1.261 . S
O365 Tb352 2.303 . S
O365 C375 1.257 . S
O366 Tb353 2.415 . S
O366 C382 1.239 . S
O367 Tb353 2.399 . S
O367 C382 1.263 . S
O368 Tb353 2.325 . S
O368 C383 1.236 . S
O369 Tb352 2.322 . S
O369 C383 1.257 . S
O370 Tb352 2.349 . S
O370 C354 1.261 . S
O371 Tb353 2.303 . S
O371 C354 1.257 . S
C372 O362 1.236 . S
C372 O363 1.257 . S
O373 Tb352 2.415 . S
O373 C361 1.239 . S
O374 Tb352 2.399 . S
O374 C361 1.263 . S
C375 O364 1.261 . S
C375 O365 1.257 . S
C376 C379 1.358 . S
C376 C380 1.332 . S
C376 C382 1.504 . S
C377 C378 1.373 . S
C377 C381 1.308 . S
C378 C377 1.373 . S
C378 C379 1.429 . S
C378 H388 0.932 . S
C379 C376 1.358 . S
C379 C378 1.429 . S
C379 H389 0.930 . S
C380 C376 1.332 . S
C380 C381 1.394 . S
C380 H390 0.932 . S
C381 C377 1.308 . S
C381 C380 1.394 . S
C381 H391 0.929 . S
C382 Tb353 2.764 . S
C382 O366 1.239 . S
C382 O367 1.263 . S
C382 C376 1.504 . S
C383 O368 1.236 . S
C383 O369 1.257 . S
H384 C357 0.932 . S
H385 C358 0.930 . S
H386 C359 0.932 . S
H387 C360 0.929 . S
H388 C378 0.932 . S
H389 C379 0.930 . S
H390 C380 0.932 . S
H391 C381 0.929 . S
Tb392 C401 2.764 . S
Tb392 O402 2.325 . S
Tb392 O405 2.303 . S
Tb392 O409 2.322 1_545 S
Tb392 O410 2.349 . S
Tb392 O413 2.415 . S
Tb392 O414 2.399 . S
Tb393 O403 2.322 . S
Tb393 O404 2.349 . S
Tb393 O406 2.415 . S
Tb393 O407 2.399 . S
Tb393 O408 2.325 1_545 S
Tb393 O411 2.303 . S
Tb393 C422 2.764 . S
C394 O410 1.261 . S
C394 O411 1.257 . S
C395 C398 1.358 . S
C395 C399 1.332 . S
C395 C401 1.504 . S
C396 C397 1.373 . S
C396 C400 1.308 . S
C397 C396 1.373 . S
C397 C398 1.429 . S
C397 H424 0.932 . S
C398 C395 1.358 . S
C398 C397 1.429 . S
C398 H425 0.930 . S
C399 C395 1.332 . S
C399 C400 1.394 . S
C399 H426 0.932 . S
C400 C396 1.308 . S
C400 C399 1.394 . S
C400 H427 0.929 . S
C401 Tb392 2.764 . S
C401 C395 1.504 . S
C401 O413 1.239 . S
C401 O414 1.263 . S
O402 Tb392 2.325 . S
O402 C412 1.236 . S
O403 Tb393 2.322 . S
O403 C412 1.257 . S
O404 Tb393 2.349 . S
O404 C415 1.261 . S
O405 Tb392 2.303 . S
O405 C415 1.257 . S
O406 Tb393 2.415 . S
O406 C422 1.239 . S
O407 Tb393 2.399 . S
O407 C422 1.263 . S
O408 Tb393 2.325 1_565 S
O408 C423 1.236 . S
O409 Tb392 2.322 1_565 S
O409 C423 1.257 . S
O410 Tb392 2.349 . S
O410 C394 1.261 . S
O411 Tb393 2.303 . S
O411 C394 1.257 . S
C412 O402 1.236 . S
C412 O403 1.257 . S
O413 Tb392 2.415 . S
O413 C401 1.239 . S
O414 Tb392 2.399 . S
O414 C401 1.263 . S
C415 O404 1.261 . S
C415 O405 1.257 . S
C416 C419 1.358 . S
C416 C420 1.332 . S
C416 C422 1.504 1_565 S
C417 C418 1.373 . S
C417 C421 1.308 . S
C418 C417 1.373 . S
C418 C419 1.429 . S
C418 H428 0.932 . S
C419 C416 1.358 . S
C419 C418 1.429 . S
C419 H429 0.925 1_565 S
C420 C416 1.332 . S
C420 C421 1.394 . S
C420 H430 0.932 . S
C421 C417 1.308 . S
C421 C420 1.394 . S
C421 H431 0.929 . S
C422 Tb393 2.764 . S
C422 O406 1.239 . S
C422 O407 1.263 . S
C422 C416 1.504 1_545 S
C423 O408 1.236 . S
C423 O409 1.257 . S
H424 C397 0.932 . S
H425 C398 0.930 . S
H426 C399 0.932 . S
H427 C400 0.929 . S
H428 C418 0.932 . S
H429 C419 0.925 1_545 S
H430 C420 0.932 . S
H431 C421 0.929 . S
Tb432 C441 2.764 . S
Tb432 O442 2.325 . S
Tb432 O445 2.303 . S
Tb432 O449 2.322 . S
Tb432 O450 2.349 . S
Tb432 O453 2.415 . S
Tb432 O454 2.399 . S
Tb433 O443 2.322 . S
Tb433 O444 2.349 . S
Tb433 O446 2.415 . S
Tb433 O447 2.399 . S
Tb433 O448 2.325 . S
Tb433 O451 2.303 . S
Tb433 C462 2.764 . S
C434 O450 1.261 . S
C434 O451 1.257 . S
C435 C438 1.358 . S
C435 C439 1.332 . S
C435 C441 1.504 . S
C436 C437 1.373 . S
C436 C440 1.308 . S
C437 C436 1.373 . S
C437 C438 1.429 . S
C437 H464 0.932 . S
C438 C435 1.358 . S
C438 C437 1.429 . S
C438 H465 0.930 . S
C439 C435 1.332 . S
C439 C440 1.394 . S
C439 H466 0.932 . S
C440 C436 1.308 . S
C440 C439 1.394 . S
C440 H467 0.929 . S
C441 Tb432 2.764 . S
C441 C435 1.504 . S
C441 O453 1.239 . S
C441 O454 1.263 . S
O442 Tb432 2.325 . S
O442 C452 1.236 . S
O443 Tb433 2.322 . S
O443 C452 1.257 . S
O444 Tb433 2.349 . S
O444 C455 1.261 . S
O445 Tb432 2.303 . S
O445 C455 1.257 . S
O446 Tb433 2.415 . S
O446 C462 1.239 . S
O447 Tb433 2.399 . S
O447 C462 1.263 . S
O448 Tb433 2.325 . S
O448 C463 1.236 . S
O449 Tb432 2.322 . S
O449 C463 1.257 . S
O450 Tb432 2.349 . S
O450 C434 1.261 . S
O451 Tb433 2.303 . S
O451 C434 1.257 . S
C452 O442 1.236 . S
C452 O443 1.257 . S
O453 Tb432 2.415 . S
O453 C441 1.239 . S
O454 Tb432 2.399 . S
O454 C441 1.263 . S
C455 O444 1.261 . S
C455 O445 1.257 . S
C456 C459 1.358 . S
C456 C460 1.332 . S
C456 C462 1.504 . S
C457 C458 1.373 . S
C457 C461 1.308 . S
C458 C457 1.373 . S
C458 C459 1.429 . S
C458 H468 0.932 . S
C459 C456 1.358 . S
C459 C458 1.429 . S
C459 H469 0.930 . S
C460 C456 1.332 . S
C460 C461 1.394 . S
C460 H470 0.932 . S
C461 C457 1.308 . S
C461 C460 1.394 . S
C461 H471 0.929 . S
C462 Tb433 2.764 . S
C462 O446 1.239 . S
C462 O447 1.263 . S
C462 C456 1.504 . S
C463 O448 1.236 . S
C463 O449 1.257 . S
H464 C437 0.932 . S
H465 C438 0.930 . S
H466 C439 0.932 . S
H467 C440 0.929 . S
H468 C458 0.932 . S
H469 C459 0.930 . S
H470 C460 0.932 . S
H471 C461 0.929 . S
Tb472 C481 2.764 . S
Tb472 O482 2.325 . S
Tb472 O485 2.303 . S
Tb472 O489 2.322 . S
Tb472 O490 2.349 . S
Tb472 O493 2.415 . S
Tb472 O494 2.399 . S
Tb473 O483 2.322 1_545 S
Tb473 O484 2.349 . S
Tb473 O486 2.415 . S
Tb473 O487 2.399 . S
Tb473 O488 2.325 . S
Tb473 O491 2.303 . S
Tb473 C502 2.764 . S
C474 O490 1.261 . S
C474 O491 1.257 . S
C475 C478 1.358 . S
C475 C479 1.332 . S
C475 C481 1.504 . S
C476 C477 1.373 . S
C476 C480 1.308 . S
C477 C476 1.373 . S
C477 C478 1.429 . S
C477 H504 0.932 . S
C478 C475 1.358 . S
C478 C477 1.429 . S
C478 H505 0.930 . S
C479 C475 1.332 . S
C479 C480 1.394 . S
C479 H506 0.932 . S
C480 C476 1.308 . S
C480 C479 1.394 . S
C480 H507 0.929 . S
C481 Tb472 2.764 . S
C481 C475 1.504 . S
C481 O493 1.239 . S
C481 O494 1.263 . S
O482 Tb472 2.325 . S
O482 C492 1.236 1_545 S
O483 Tb473 2.322 1_565 S
O483 C492 1.257 . S
O484 Tb473 2.349 . S
O484 C495 1.261 . S
O485 Tb472 2.303 . S
O485 C495 1.257 . S
O486 Tb473 2.415 . S
O486 C502 1.239 . S
O487 Tb473 2.399 . S
O487 C502 1.263 . S
O488 Tb473 2.325 . S
O488 C503 1.236 . S
O489 Tb472 2.322 . S
O489 C503 1.257 . S
O490 Tb472 2.349 . S
O490 C474 1.261 . S
O491 Tb473 2.303 . S
O491 C474 1.257 . S
C492 O482 1.236 1_565 S
C492 O483 1.257 . S
O493 Tb472 2.415 . S
O493 C481 1.239 . S
O494 Tb472 2.399 . S
O494 C481 1.263 . S
C495 O484 1.261 . S
C495 O485 1.257 . S
C496 C499 1.358 . S
C496 C500 1.332 . S
C496 C502 1.504 . S
C497 C498 1.373 . S
C497 C501 1.295 1_455 S
C498 C497 1.373 . S
C498 C499 1.429 . S
C498 H508 0.932 . S
C499 C496 1.358 . S
C499 C498 1.429 . S
C499 H509 0.930 . S
C500 C496 1.332 . S
C500 C501 1.389 1_455 S
C500 H510 0.932 1_455 S
C501 C497 1.295 1_655 S
C501 C500 1.389 1_655 S
C501 H511 0.947 . S
C502 Tb473 2.764 . S
C502 O486 1.239 . S
C502 O487 1.263 . S
C502 C496 1.504 . S
C503 O488 1.236 . S
C503 O489 1.257 . S
H504 C477 0.932 . S
H505 C478 0.930 . S
H506 C479 0.932 . S
H507 C480 0.929 . S
H508 C498 0.932 . S
H509 C499 0.930 . S
H510 C500 0.932 1_655 S
H511 C501 0.947 . S
Tb512 C521 2.764 . S
Tb512 O522 2.325 . S
Tb512 O525 2.303 . S
Tb512 O529 2.322 . S
Tb512 O530 2.349 . S
Tb512 O533 2.415 . S
Tb512 O534 2.399 . S
Tb513 O523 2.322 . S
Tb513 O524 2.349 . S
Tb513 O526 2.415 . S
Tb513 O527 2.399 . S
Tb513 O528 2.325 . S
Tb513 O531 2.303 . S
Tb513 C542 2.764 . S
C514 O530 1.261 . S
C514 O531 1.257 . S
C515 C518 1.358 . S
C515 C519 1.332 . S
C515 C521 1.504 . S
C516 C517 1.373 . S
C516 C520 1.308 . S
C517 C516 1.373 . S
C517 C518 1.429 . S
C517 H544 0.932 . S
C518 C515 1.358 . S
C518 C517 1.429 . S
C518 H545 0.930 . S
C519 C515 1.332 . S
C519 C520 1.394 . S
C519 H546 0.932 . S
C520 C516 1.308 . S
C520 C519 1.394 . S
C520 H547 0.929 . S
C521 Tb512 2.764 . S
C521 C515 1.504 . S
C521 O533 1.239 . S
C521 O534 1.263 . S
O522 Tb512 2.325 . S
O522 C532 1.236 . S
O523 Tb513 2.322 . S
O523 C532 1.257 . S
O524 Tb513 2.349 . S
O524 C535 1.261 . S
O525 Tb512 2.303 . S
O525 C535 1.257 . S
O526 Tb513 2.415 . S
O526 C542 1.239 . S
O527 Tb513 2.399 . S
O527 C542 1.263 . S
O528 Tb513 2.325 . S
O528 C543 1.236 . S
O529 Tb512 2.322 . S
O529 C543 1.257 . S
O530 Tb512 2.349 . S
O530 C514 1.261 . S
O531 Tb513 2.303 . S
O531 C514 1.257 . S
C532 O522 1.236 . S
C532 O523 1.257 . S
O533 Tb512 2.415 . S
O533 C521 1.239 . S
O534 Tb512 2.399 . S
O534 C521 1.263 . S
C535 O524 1.261 . S
C535 O525 1.257 . S
C536 C539 1.358 . S
C536 C540 1.332 . S
C536 C542 1.504 . S
C537 C538 1.373 . S
C537 C541 1.308 . S
C538 C537 1.373 . S
C538 C539 1.429 . S
C538 H548 0.932 . S
C539 C536 1.358 . S
C539 C538 1.429 . S
C539 H549 0.930 . S
C540 C536 1.332 . S
C540 C541 1.394 . S
C540 H550 0.932 . S
C541 C537 1.308 . S
C541 C540 1.394 . S
C541 H551 0.929 . S
C542 Tb513 2.764 . S
C542 O526 1.239 . S
C542 O527 1.263 . S
C542 C536 1.504 . S
C543 O528 1.236 . S
C543 O529 1.257 . S
H544 C517 0.932 . S
H545 C518 0.930 . S
H546 C519 0.932 . S
H547 C520 0.929 . S
H548 C538 0.932 . S
H549 C539 0.930 . S
H550 C540 0.932 . S
H551 C541 0.929 . S
Tb552 C561 2.764 . S
Tb552 O562 2.325 . S
Tb552 O565 2.303 . S
Tb552 O569 2.322 . S
Tb552 O570 2.349 . S
Tb552 O573 2.415 . S
Tb552 O574 2.399 . S
Tb553 O563 2.322 1_556 S
Tb553 O564 2.349 . S
Tb553 O566 2.415 . S
Tb553 O567 2.399 . S
Tb553 O568 2.325 . S
Tb553 O571 2.303 1_556 S
Tb553 C582 2.764 . S
C554 O570 1.261 . S
C554 O571 1.257 . S
C555 C558 1.358 . S
C555 C559 1.332 . S
C555 C561 1.504 . S
C556 C557 1.373 . S
C556 C560 1.308 . S
C557 C556 1.373 . S
C557 C558 1.429 . S
C557 H584 0.932 . S
C558 C555 1.358 . S
C558 C557 1.429 . S
C558 H585 0.930 . S
C559 C555 1.332 . S
C559 C560 1.394 . S
C559 H586 0.932 . S
C560 C556 1.308 . S
C560 C559 1.394 . S
C560 H587 0.929 . S
C561 Tb552 2.764 . S
C561 C555 1.504 . S
C561 O573 1.239 . S
C561 O574 1.263 . S
O562 Tb552 2.325 . S
O562 C572 1.236 . S
O563 Tb553 2.322 1_554 S
O563 C572 1.257 . S
O564 Tb553 2.349 . S
O564 C575 1.261 1_556 S
O565 Tb552 2.303 . S
O565 C575 1.257 . S
O566 Tb553 2.415 . S
O566 C582 1.239 . S
O567 Tb553 2.399 . S
O567 C582 1.263 . S
O568 Tb553 2.325 . S
O568 C583 1.236 . S
O569 Tb552 2.322 . S
O569 C583 1.257 1_554 S
O570 Tb552 2.349 . S
O570 C554 1.261 . S
O571 Tb553 2.303 1_554 S
O571 C554 1.257 . S
C572 O562 1.236 . S
C572 O563 1.257 . S
O573 Tb552 2.415 . S
O573 C561 1.239 . S
O574 Tb552 2.399 . S
O574 C561 1.263 . S
C575 O564 1.261 1_554 S
C575 O565 1.257 . S
C576 C579 1.358 . S
C576 C580 1.332 . S
C576 C582 1.504 . S
C577 C578 1.373 . S
C577 C581 1.308 . S
C578 C577 1.373 . S
C578 C579 1.429 . S
C578 H588 0.932 . S
C579 C576 1.358 . S
C579 C578 1.429 . S
C579 H589 0.930 . S
C580 C576 1.332 . S
C580 C581 1.394 . S
C580 H590 0.932 . S
C581 C577 1.308 . S
C581 C580 1.394 . S
C581 H591 0.929 . S
C582 Tb553 2.764 . S
C582 O566 1.239 . S
C582 O567 1.263 . S
C582 C576 1.504 . S
C583 O568 1.236 . S
C583 O569 1.257 1_556 S
H584 C557 0.932 . S
H585 C558 0.930 . S
H586 C559 0.932 . S
H587 C560 0.929 . S
H588 C578 0.932 . S
H589 C579 0.930 . S
H590 C580 0.932 . S
H591 C581 0.929 . S
Tb592 C601 2.764 . S
Tb592 O602 2.325 . S
Tb592 O605 2.303 . S
Tb592 O609 2.322 . S
Tb592 O610 2.349 . S
Tb592 O613 2.415 . S
Tb592 O614 2.399 . S
Tb593 O603 2.322 . S
Tb593 O604 2.349 . S
Tb593 O606 2.415 . S
Tb593 O607 2.399 . S
Tb593 O608 2.325 . S
Tb593 O611 2.303 . S
Tb593 C622 2.764 . S
C594 O610 1.261 . S
C594 O611 1.257 . S
C595 C598 1.358 . S
C595 C599 1.332 . S
C595 C601 1.504 . S
C596 C597 1.373 . S
C596 C600 1.308 . S
C597 C596 1.373 . S
C597 C598 1.429 . S
C597 H624 0.932 . S
C598 C595 1.358 . S
C598 C597 1.429 . S
C598 H625 0.930 . S
C599 C595 1.332 . S
C599 C600 1.394 . S
C599 H626 0.932 . S
C600 C596 1.308 . S
C600 C599 1.394 . S
C600 H627 0.929 . S
C601 Tb592 2.764 . S
C601 C595 1.504 . S
C601 O613 1.239 . S
C601 O614 1.263 . S
O602 Tb592 2.325 . S
O602 C612 1.236 . S
O603 Tb593 2.322 . S
O603 C612 1.257 . S
O604 Tb593 2.349 . S
O604 C615 1.261 . S
O605 Tb592 2.303 . S
O605 C615 1.257 . S
O606 Tb593 2.415 . S
O606 C622 1.239 . S
O607 Tb593 2.399 . S
O607 C622 1.263 . S
O608 Tb593 2.325 . S
O608 C623 1.236 . S
O609 Tb592 2.322 . S
O609 C623 1.257 . S
O610 Tb592 2.349 . S
O610 C594 1.261 . S
O611 Tb593 2.303 . S
O611 C594 1.257 . S
C612 O602 1.236 . S
C612 O603 1.257 . S
O613 Tb592 2.415 . S
O613 C601 1.239 . S
O614 Tb592 2.399 . S
O614 C601 1.263 . S
C615 O604 1.261 . S
C615 O605 1.257 . S
C616 C619 1.358 . S
C616 C620 1.332 . S
C616 C622 1.504 . S
C617 C618 1.373 . S
C617 C621 1.308 . S
C618 C617 1.373 . S
C618 C619 1.429 . S
C618 H628 0.932 . S
C619 C616 1.358 . S
C619 C618 1.429 . S
C619 H629 0.930 . S
C620 C616 1.332 . S
C620 C621 1.394 . S
C620 H630 0.932 . S
C621 C617 1.308 . S
C621 C620 1.394 . S
C621 H631 0.929 . S
C622 Tb593 2.764 . S
C622 O606 1.239 . S
C622 O607 1.263 . S
C622 C616 1.504 . S
C623 O608 1.236 . S
C623 O609 1.257 . S
H624 C597 0.932 . S
H625 C598 0.930 . S
H626 C599 0.932 . S
H627 C600 0.929 . S
H628 C618 0.932 . S
H629 C619 0.930 . S
H630 C620 0.932 . S
H631 C621 0.929 . S
Tb632 C641 2.764 . S
Tb632 O642 2.325 . S
Tb632 O645 2.303 . S
Tb632 O649 2.322 . S
Tb632 O650 2.349 . S
Tb632 O653 2.415 . S
Tb632 O654 2.399 . S
Tb633 O643 2.322 1_556 S
Tb633 O644 2.349 . S
Tb633 O646 2.415 . S
Tb633 O647 2.399 . S
Tb633 O648 2.325 . S
Tb633 O651 2.303 1_556 S
Tb633 C662 2.764 . S
C634 O650 1.261 . S
C634 O651 1.257 . S
C635 C638 1.358 . S
C635 C639 1.332 . S
C635 C641 1.504 . S
C636 C637 1.373 . S
C636 C640 1.308 . S
C637 C636 1.373 . S
C637 C638 1.429 . S
C637 H664 0.932 . S
C638 C635 1.358 . S
C638 C637 1.429 . S
C638 H665 0.930 . S
C639 C635 1.332 . S
C639 C640 1.394 . S
C639 H666 0.932 . S
C640 C636 1.308 . S
C640 C639 1.394 . S
C640 H667 0.929 . S
C641 Tb632 2.764 . S
C641 C635 1.504 . S
C641 O653 1.239 . S
C641 O654 1.263 . S
O642 Tb632 2.325 . S
O642 C652 1.236 . S
O643 Tb633 2.322 1_554 S
O643 C652 1.257 . S
O644 Tb633 2.349 . S
O644 C655 1.261 1_556 S
O645 Tb632 2.303 . S
O645 C655 1.257 . S
O646 Tb633 2.415 . S
O646 C662 1.239 . S
O647 Tb633 2.399 . S
O647 C662 1.263 . S
O648 Tb633 2.325 . S
O648 C663 1.271 . S
O649 Tb632 2.322 . S
O649 C663 1.199 1_554 S
O650 Tb632 2.349 . S
O650 C634 1.261 . S
O651 Tb633 2.303 1_554 S
O651 C634 1.257 . S
C652 O642 1.236 . S
C652 O643 1.257 . S
O653 Tb632 2.415 . S
O653 C641 1.239 . S
O654 Tb632 2.399 . S
O654 C641 1.263 . S
C655 O644 1.261 1_554 S
C655 O645 1.257 . S
C656 C659 1.358 . S
C656 C660 1.332 . S
C656 C662 1.504 . S
C657 C658 1.373 . S
C657 C661 1.308 . S
C658 C657 1.373 . S
C658 C659 1.429 . S
C658 H668 0.932 . S
C659 C656 1.358 . S
C659 C658 1.429 . S
C659 H669 0.930 . S
C660 C656 1.332 . S
C660 C661 1.394 . S
C660 H670 0.932 . S
C661 C657 1.308 . S
C661 C660 1.394 . S
C661 H671 0.929 . S
C662 Tb633 2.764 . S
C662 O646 1.239 . S
C662 O647 1.263 . S
C662 C656 1.504 . S
C663 O648 1.271 . S
C663 O649 1.199 1_556 S
H664 C637 0.932 . S
H665 C638 0.930 . S
H666 C639 0.932 . S
H667 C640 0.929 . S
H668 C658 0.932 . S
H669 C659 0.930 . S
H670 C660 0.932 . S
H671 C661 0.929 . S
Tb672 C681 2.764 . S
Tb672 O682 2.325 . S
Tb672 O685 2.303 . S
Tb672 O689 2.322 . S
Tb672 O690 2.349 . S
Tb672 O693 2.415 . S
Tb672 O694 2.399 . S
Tb673 O683 2.322 . S
Tb673 O684 2.349 . S
Tb673 O686 2.415 . S
Tb673 O687 2.399 . S
Tb673 O688 2.325 . S
Tb673 O691 2.303 . S
Tb673 C702 2.764 . S
C674 O690 1.261 . S
C674 O691 1.257 . S
C675 C678 1.358 . S
C675 C679 1.332 . S
C675 C681 1.504 . S
C676 C677 1.373 . S
C676 C680 1.308 . S
C677 C676 1.373 . S
C677 C678 1.429 . S
C677 H704 0.932 . S
C678 C675 1.358 . S
C678 C677 1.429 . S
C678 H705 0.930 . S
C679 C675 1.332 . S
C679 C680 1.394 . S
C679 H706 0.932 . S
C680 C676 1.308 . S
C680 C679 1.394 . S
C680 H707 0.929 . S
C681 Tb672 2.764 . S
C681 C675 1.504 . S
C681 O693 1.239 . S
C681 O694 1.263 . S
O682 Tb672 2.325 . S
O682 C692 1.236 . S
O683 Tb673 2.322 . S
O683 C692 1.257 . S
O684 Tb673 2.349 . S
O684 C695 1.261 . S
O685 Tb672 2.303 . S
O685 C695 1.257 . S
O686 Tb673 2.415 . S
O686 C702 1.239 . S
O687 Tb673 2.399 . S
O687 C702 1.263 . S
O688 Tb673 2.325 . S
O688 C703 1.236 . S
O689 Tb672 2.322 . S
O689 C703 1.257 . S
O690 Tb672 2.349 . S
O690 C674 1.261 . S
O691 Tb673 2.303 . S
O691 C674 1.257 . S
C692 O682 1.236 . S
C692 O683 1.257 . S
O693 Tb672 2.415 . S
O693 C681 1.239 . S
O694 Tb672 2.399 . S
O694 C681 1.263 . S
C695 O684 1.261 . S
C695 O685 1.257 . S
C696 C699 1.358 . S
C696 C700 1.332 . S
C696 C702 1.504 . S
C697 C698 1.373 . S
C697 C701 1.308 . S
C698 C697 1.373 . S
C698 C699 1.429 . S
C698 H708 0.932 . S
C699 C696 1.358 . S
C699 C698 1.429 . S
C699 H709 0.930 . S
C700 C696 1.332 . S
C700 C701 1.394 . S
C700 H710 0.932 . S
C701 C697 1.308 . S
C701 C700 1.394 . S
C701 H711 0.929 . S
C702 Tb673 2.764 . S
C702 O686 1.239 . S
C702 O687 1.263 . S
C702 C696 1.504 . S
C703 O688 1.236 . S
C703 O689 1.257 . S
H704 C677 0.932 . S
H705 C678 0.930 . S
H706 C679 0.932 . S
H707 C680 0.929 . S
H708 C698 0.932 . S
H709 C699 0.930 . S
H710 C700 0.932 . S
H711 C701 0.929 . S
Tb712 C721 2.764 . S
Tb712 O722 2.325 . S
Tb712 O725 2.303 . S
Tb712 O729 2.322 . S
Tb712 O730 2.349 . S
Tb712 O733 2.415 . S
Tb712 O734 2.399 . S
Tb713 O723 2.322 . S
Tb713 O724 2.349 1_455 S
Tb713 O726 2.415 . S
Tb713 O727 2.399 . S
Tb713 O728 2.325 . S
Tb713 O731 2.303 . S
Tb713 C742 2.764 . S
C714 O730 1.261 . S
C714 O731 1.257 . S
C715 C718 1.358 . S
C715 C719 1.332 1_455 S
C715 C721 1.504 . S
C716 C717 1.373 1_655 S
C716 C720 1.308 . S
C717 C716 1.373 1_455 S
C717 C718 1.429 . S
C717 H744 0.932 . S
C718 C715 1.358 . S
C718 C717 1.429 . S
C718 H745 0.930 . S
C719 C715 1.332 1_655 S
C719 C720 1.394 . S
C719 H746 0.932 . S
C720 C716 1.308 . S
C720 C719 1.394 . S
C720 H747 0.929 . S
C721 Tb712 2.764 . S
C721 C715 1.504 . S
C721 O733 1.239 . S
C721 O734 1.263 . S
O722 Tb712 2.325 . S
O722 C732 1.236 . S
O723 Tb713 2.322 . S
O723 C732 1.257 . S
O724 Tb713 2.349 1_655 S
O724 C735 1.261 . S
O725 Tb712 2.303 . S
O725 C735 1.257 1_455 S
O726 Tb713 2.415 . S
O726 C742 1.239 . S
O727 Tb713 2.399 . S
O727 C742 1.263 . S
O728 Tb713 2.325 . S
O728 C743 1.236 . S
O729 Tb712 2.322 . S
O729 C743 1.257 . S
O730 Tb712 2.349 . S
O730 C714 1.261 . S
O731 Tb713 2.303 . S
O731 C714 1.257 . S
C732 O722 1.236 . S
C732 O723 1.257 . S
O733 Tb712 2.415 . S
O733 C721 1.239 . S
O734 Tb712 2.399 . S
O734 C721 1.263 . S
C735 O724 1.261 . S
C735 O725 1.257 1_655 S
C736 C739 1.358 . S
C736 C740 1.332 . S
C736 C742 1.504 . S
C737 C738 1.373 . S
C737 C741 1.308 . S
C738 C737 1.373 . S
C738 C739 1.429 . S
C738 H748 0.932 . S
C739 C736 1.358 . S
C739 C738 1.429 . S
C739 H749 0.930 . S
C740 C736 1.332 . S
C740 C741 1.394 . S
C740 H750 0.932 . S
C741 C737 1.308 . S
C741 C740 1.394 . S
C741 H751 0.929 . S
C742 Tb713 2.764 . S
C742 O726 1.239 . S
C742 O727 1.263 . S
C742 C736 1.504 . S
C743 O728 1.236 . S
C743 O729 1.257 . S
H744 C717 0.932 . S
H745 C718 0.930 . S
H746 C719 0.932 . S
H747 C720 0.929 . S
H748 C738 0.932 . S
H749 C739 0.930 . S
H750 C740 0.932 . S
H751 C741 0.929 . S
Tb752 C761 2.764 . S
Tb752 O762 2.325 . S
Tb752 O765 2.303 . S
Tb752 O769 2.322 . S
Tb752 O770 2.349 . S
Tb752 O773 2.415 . S
Tb752 O774 2.399 . S
Tb753 O763 2.322 . S
Tb753 O764 2.349 . S
Tb753 O766 2.415 . S
Tb753 O767 2.399 . S
Tb753 O768 2.325 . S
Tb753 O771 2.303 . S
Tb753 C782 2.764 . S
C754 O770 1.261 . S
C754 O771 1.257 . S
C755 C758 1.358 . S
C755 C759 1.332 . S
C755 C761 1.504 . S
C756 C757 1.373 . S
C756 C760 1.308 . S
C757 C756 1.373 . S
C757 C758 1.429 . S
C757 H784 0.932 . S
C758 C755 1.358 . S
C758 C757 1.429 . S
C758 H785 0.930 . S
C759 C755 1.332 . S
C759 C760 1.394 . S
C759 H786 0.932 . S
C760 C756 1.308 . S
C760 C759 1.394 . S
C760 H787 0.929 . S
C761 Tb752 2.764 . S
C761 C755 1.504 . S
C761 O773 1.239 . S
C761 O774 1.263 . S
O762 Tb752 2.325 . S
O762 C772 1.236 . S
O763 Tb753 2.322 . S
O763 C772 1.257 . S
O764 Tb753 2.349 . S
O764 C775 1.261 . S
O765 Tb752 2.303 . S
O765 C775 1.257 . S
O766 Tb753 2.415 . S
O766 C782 1.239 . S
O767 Tb753 2.399 . S
O767 C782 1.263 . S
O768 Tb753 2.325 . S
O768 C783 1.236 . S
O769 Tb752 2.322 . S
O769 C783 1.257 . S
O770 Tb752 2.349 . S
O770 C754 1.261 . S
O771 Tb753 2.303 . S
O771 C754 1.257 . S
C772 O762 1.236 . S
C772 O763 1.257 . S
O773 Tb752 2.415 . S
O773 C761 1.239 . S
O774 Tb752 2.399 . S
O774 C761 1.263 . S
C775 O764 1.261 . S
C775 O765 1.257 . S
C776 C779 1.358 . S
C776 C780 1.332 . S
C776 C782 1.504 . S
C777 C778 1.373 . S
C777 C781 1.308 . S
C778 C777 1.373 . S
C778 C779 1.429 . S
C778 H788 0.932 . S
C779 C776 1.358 . S
C779 C778 1.429 . S
C779 H789 0.930 . S
C780 C776 1.332 . S
C780 C781 1.394 . S
C780 H790 0.932 . S
C781 C777 1.308 . S
C781 C780 1.394 . S
C781 H791 0.929 . S
C782 Tb753 2.764 . S
C782 O766 1.239 . S
C782 O767 1.263 . S
C782 C776 1.504 . S
C783 O768 1.236 . S
C783 O769 1.257 . S
H784 C757 0.932 . S
H785 C758 0.930 . S
H786 C759 0.932 . S
H787 C760 0.929 . S
H788 C778 0.932 . S
H789 C779 0.930 . S
H790 C780 0.932 . S
H791 C781 0.929 . S
Tb792 C801 2.764 . S
Tb792 O802 2.325 . S
Tb792 O805 2.303 . S
Tb792 O809 2.322 . S
Tb792 O810 2.349 . S
Tb792 O813 2.415 . S
Tb792 O814 2.399 . S
Tb793 O803 2.322 . S
Tb793 O804 2.349 . S
Tb793 O806 2.415 . S
Tb793 O807 2.399 . S
Tb793 O808 2.325 . S
Tb793 O811 2.303 . S
Tb793 C822 2.764 . S
C794 O810 1.261 . S
C794 O811 1.257 . S
C795 C798 1.358 . S
C795 C799 1.332 . S
C795 C801 1.504 . S
C796 C797 1.373 . S
C796 C800 1.308 . S
C797 C796 1.373 . S
C797 C798 1.429 . S
C797 H824 0.932 . S
C798 C795 1.358 . S
C798 C797 1.429 . S
C798 H825 0.930 . S
C799 C795 1.332 . S
C799 C800 1.394 . S
C799 H826 0.932 . S
C800 C796 1.308 . S
C800 C799 1.394 . S
C800 H827 0.929 . S
C801 Tb792 2.764 . S
C801 C795 1.504 . S
C801 O813 1.239 . S
C801 O814 1.263 . S
O802 Tb792 2.325 . S
O802 C812 1.236 . S
O803 Tb793 2.322 . S
O803 C812 1.257 . S
O804 Tb793 2.349 . S
O804 C815 1.261 . S
O805 Tb792 2.303 . S
O805 C815 1.257 . S
O806 Tb793 2.415 . S
O806 C822 1.239 . S
O807 Tb793 2.399 . S
O807 C822 1.263 . S
O808 Tb793 2.325 . S
O808 C823 1.236 . S
O809 Tb792 2.322 . S
O809 C823 1.257 . S
O810 Tb792 2.349 . S
O810 C794 1.261 . S
O811 Tb793 2.303 . S
O811 C794 1.257 . S
C812 O802 1.236 . S
C812 O803 1.257 . S
O813 Tb792 2.415 . S
O813 C801 1.239 . S
O814 Tb792 2.399 . S
O814 C801 1.263 . S
C815 O804 1.261 . S
C815 O805 1.257 . S
C816 C819 1.358 . S
C816 C820 1.332 . S
C816 C822 1.504 . S
C817 C818 1.373 . S
C817 C821 1.308 . S
C818 C817 1.373 . S
C818 C819 1.429 . S
C818 H828 0.932 . S
C819 C816 1.358 . S
C819 C818 1.429 . S
C819 H829 0.930 . S
C820 C816 1.332 . S
C820 C821 1.394 . S
C820 H830 0.932 . S
C821 C817 1.308 . S
C821 C820 1.394 . S
C821 H831 0.929 . S
C822 Tb793 2.764 . S
C822 O806 1.239 . S
C822 O807 1.263 . S
C822 C816 1.504 . S
C823 O808 1.236 . S
C823 O809 1.257 . S
H824 C797 0.932 . S
H825 C798 0.930 . S
H826 C799 0.932 . S
H827 C800 0.929 . S
H828 C818 0.932 . S
H829 C819 0.930 . S
H830 C820 0.932 . S
H831 C821 0.929 . S
Tb832 C841 2.764 . S
Tb832 O842 2.325 . S
Tb832 O845 2.303 . S
Tb832 O849 2.322 . S
Tb832 O850 2.349 . S
Tb832 O853 2.415 . S
Tb832 O854 2.399 . S
Tb833 O843 2.322 . S
Tb833 O844 2.349 . S
Tb833 O846 2.415 . S
Tb833 O847 2.399 . S
Tb833 O848 2.325 . S
Tb833 O851 2.303 . S
Tb833 C862 2.764 . S
C834 O850 1.261 . S
C834 O851 1.257 . S
C835 C838 1.358 . S
C835 C839 1.332 . S
C835 C841 1.504 . S
C836 C837 1.373 . S
C836 C840 1.308 . S
C837 C836 1.373 . S
C837 C838 1.429 . S
C837 H864 0.932 . S
C838 C835 1.358 . S
C838 C837 1.429 . S
C838 H865 0.930 . S
C839 C835 1.332 . S
C839 C840 1.394 . S
C839 H866 0.932 . S
C840 C836 1.308 . S
C840 C839 1.394 . S
C840 H867 0.929 . S
C841 Tb832 2.764 . S
C841 C835 1.504 . S
C841 O853 1.239 . S
C841 O854 1.263 . S
O842 Tb832 2.325 . S
O842 C852 1.236 . S
O843 Tb833 2.322 . S
O843 C852 1.257 . S
O844 Tb833 2.349 . S
O844 C855 1.261 . S
O845 Tb832 2.303 . S
O845 C855 1.257 . S
O846 Tb833 2.415 . S
O846 C862 1.239 . S
O847 Tb833 2.399 . S
O847 C862 1.263 . S
O848 Tb833 2.325 . S
O848 C863 1.236 . S
O849 Tb832 2.322 . S
O849 C863 1.257 . S
O850 Tb832 2.349 . S
O850 C834 1.261 . S
O851 Tb833 2.303 . S
O851 C834 1.257 . S
C852 O842 1.236 . S
C852 O843 1.257 . S
O853 Tb832 2.415 . S
O853 C841 1.239 . S
O854 Tb832 2.399 . S
O854 C841 1.263 . S
C855 O844 1.261 . S
C855 O845 1.257 . S
C856 C859 1.358 . S
C856 C860 1.332 . S
C856 C862 1.504 . S
C857 C858 1.373 . S
C857 C861 1.308 . S
C858 C857 1.373 . S
C858 C859 1.429 . S
C858 H868 0.932 . S
C859 C856 1.358 . S
C859 C858 1.429 . S
C859 H869 0.930 . S
C860 C856 1.332 . S
C860 C861 1.394 . S
C860 H870 0.932 . S
C861 C857 1.308 . S
C861 C860 1.394 . S
C861 H871 0.929 . S
C862 Tb833 2.764 . S
C862 O846 1.239 . S
C862 O847 1.263 . S
C862 C856 1.504 . S
C863 O848 1.236 . S
C863 O849 1.257 . S
H864 C837 0.932 . S
H865 C838 0.930 . S
H866 C839 0.932 . S
H867 C840 0.929 . S
H868 C858 0.932 . S
H869 C859 0.930 . S
H870 C860 0.932 . S
H871 C861 0.929 . S
Tb872 C881 2.764 . S
Tb872 O882 2.325 . S
Tb872 O885 2.303 . S
Tb872 O889 2.322 . S
Tb872 O890 2.349 . S
Tb872 O893 2.415 . S
Tb872 O894 2.399 . S
Tb873 O883 2.322 . S
Tb873 O884 2.349 . S
Tb873 O886 2.415 . S
Tb873 O887 2.399 . S
Tb873 O888 2.325 . S
Tb873 O891 2.303 . S
Tb873 C902 2.764 . S
C874 O890 1.261 . S
C874 O891 1.257 . S
C875 C878 1.358 . S
C875 C879 1.332 . S
C875 C881 1.504 . S
C876 C877 1.373 . S
C876 C880 1.308 . S
C877 C876 1.373 . S
C877 C878 1.429 . S
C877 H904 0.932 . S
C878 C875 1.358 . S
C878 C877 1.429 . S
C878 H905 0.930 . S
C879 C875 1.332 . S
C879 C880 1.394 . S
C879 H906 0.932 . S
C880 C876 1.308 . S
C880 C879 1.394 . S
C880 H907 0.929 . S
C881 Tb872 2.764 . S
C881 C875 1.504 . S
C881 O893 1.239 . S
C881 O894 1.263 . S
O882 Tb872 2.325 . S
O882 C892 1.236 . S
O883 Tb873 2.322 . S
O883 C892 1.257 . S
O884 Tb873 2.349 . S
O884 C895 1.261 . S
O885 Tb872 2.303 . S
O885 C895 1.257 . S
O886 Tb873 2.415 . S
O886 C902 1.239 . S
O887 Tb873 2.399 . S
O887 C902 1.263 . S
O888 Tb873 2.325 . S
O888 C903 1.236 . S
O889 Tb872 2.322 . S
O889 C903 1.257 . S
O890 Tb872 2.349 . S
O890 C874 1.261 . S
O891 Tb873 2.303 . S
O891 C874 1.257 . S
C892 O882 1.236 . S
C892 O883 1.257 . S
O893 Tb872 2.415 . S
O893 C881 1.239 . S
O894 Tb872 2.399 . S
O894 C881 1.263 . S
C895 O884 1.261 . S
C895 O885 1.257 . S
C896 C899 1.358 . S
C896 C900 1.332 . S
C896 C902 1.504 . S
C897 C898 1.373 . S
C897 C901 1.308 . S
C898 C897 1.373 . S
C898 C899 1.429 . S
C898 H908 0.932 . S
C899 C896 1.358 . S
C899 C898 1.429 . S
C899 H909 0.930 . S
C900 C896 1.332 . S
C900 C901 1.394 . S
C900 H910 0.932 . S
C901 C897 1.308 . S
C901 C900 1.394 . S
C901 H911 0.929 . S
C902 Tb873 2.764 . S
C902 O886 1.239 . S
C902 O887 1.263 . S
C902 C896 1.504 . S
C903 O888 1.236 . S
C903 O889 1.257 . S
H904 C877 0.932 . S
H905 C878 0.930 . S
H906 C879 0.932 . S
H907 C880 0.929 . S
H908 C898 0.932 . S
H909 C899 0.930 . S
H910 C900 0.932 . S
H911 C901 0.929 . S
Tb912 C921 2.764 . S
Tb912 O922 2.325 1_655 S
Tb912 O925 2.303 1_655 S
Tb912 O929 2.322 1_655 S
Tb912 O930 2.349 1_655 S
Tb912 O933 2.415 . S
Tb912 O934 2.399 . S
Tb913 O923 2.322 . S
Tb913 O924 2.375 . S
Tb913 O926 2.415 . S
Tb913 O927 2.399 . S
Tb913 O928 2.325 . S
Tb913 O931 2.303 . S
Tb913 C942 2.764 . S
C914 O930 1.261 . S
C914 O931 1.257 . S
C915 C918 1.358 . S
C915 C919 1.332 . S
C915 C921 1.504 . S
C916 C917 1.373 . S
C916 C920 1.308 . S
C917 C916 1.373 . S
C917 C918 1.429 . S
C917 H944 0.932 . S
C918 C915 1.358 . S
C918 C917 1.429 . S
C918 H945 0.930 . S
C919 C915 1.332 . S
C919 C920 1.394 . S
C919 H946 0.932 . S
C920 C916 1.308 . S
C920 C919 1.394 . S
C920 H947 0.929 . S
C921 Tb912 2.764 . S
C921 C915 1.504 . S
C921 O933 1.239 . S
C921 O934 1.263 . S
O922 Tb912 2.325 1_455 S
O922 C932 1.236 . S
O923 Tb913 2.322 . S
O923 C932 1.257 . S
O924 Tb913 2.375 . S
O924 C935 1.268 . S
O925 Tb912 2.303 1_455 S
O925 C935 1.257 . S
O926 Tb913 2.415 . S
O926 C942 1.239 . S
O927 Tb913 2.399 . S
O927 C942 1.263 . S
O928 Tb913 2.325 . S
O928 C943 1.236 . S
O929 Tb912 2.322 1_455 S
O929 C943 1.257 . S
O930 Tb912 2.349 1_455 S
O930 C914 1.261 . S
O931 Tb913 2.303 . S
O931 C914 1.257 . S
C932 O922 1.236 . S
C932 O923 1.257 . S
O933 Tb912 2.415 . S
O933 C921 1.239 . S
O934 Tb912 2.399 . S
O934 C921 1.263 . S
C935 O924 1.268 . S
C935 O925 1.257 . S
C936 C939 1.358 . S
C936 C940 1.332 . S
C936 C942 1.504 . S
C937 C938 1.373 . S
C937 C941 1.308 . S
C938 C937 1.373 . S
C938 C939 1.429 . S
C938 H948 0.932 1_554 S
C939 C936 1.358 . S
C939 C938 1.429 . S
C939 H949 0.930 1_554 S
C940 C936 1.332 . S
C940 C941 1.394 . S
C940 H950 0.932 . S
C941 C937 1.308 . S
C941 C940 1.394 . S
C941 H951 0.929 . S
C942 Tb913 2.764 . S
C942 O926 1.239 . S
C942 O927 1.263 . S
C942 C936 1.504 . S
C943 O928 1.236 . S
C943 O929 1.257 . S
H944 C917 0.932 . S
H945 C918 0.930 . S
H946 C919 0.932 . S
H947 C920 0.929 . S
H948 C938 0.932 1_556 S
H949 C939 0.930 1_556 S
H950 C940 0.932 . S
H951 C941 0.929 . S
H952 C970 0.951 . S
H953 C972 0.951 . S
H954 C974 0.939 1_655 S
H955 C975 0.950 . S
H956 C977 0.968 . S
H957 C980 0.950 . S
H958 C981 0.950 . S
H959 C983 0.953 . S
H960 C984 0.950 . S
H961 C985 0.951 . S
H962 C987 0.951 . S
H963 C989 0.946 . S
H964 C990 0.950 . S
H965 C992 0.950 . S
H966 C995 0.950 . S
H967 C996 0.950 . S
H968 C998 0.950 . S
H969 C999 0.950 . S
C970 H952 0.951 . S
C970 C971 1.366 . S
C970 C972 1.388 . S
C971 C970 1.366 . S
C971 C975 1.385 1_455 S
C972 H953 0.951 . S
C972 C970 1.388 . S
C972 C973 1.366 . S
C973 C972 1.366 . S
C973 C974 1.414 . S
C973 C976 1.499 . S
C974 H954 0.939 1_455 S
C974 C973 1.414 . S
C974 C975 1.374 1_455 S
C975 H955 0.950 . S
C975 C971 1.385 1_655 S
C975 C974 1.374 1_655 S
C976 C973 1.499 . S
C976 C977 1.373 . S
C976 C978 1.389 . S
C977 H956 0.968 . S
C977 C976 1.373 . S
C977 C993 1.377 1_556 S
C978 C976 1.389 . S
C978 C979 1.524 . S
C978 C992 1.377 . S
C979 C978 1.524 . S
C979 C980 1.397 1_455 S
C979 C984 1.363 . S
C980 H957 0.950 . S
C980 C979 1.397 1_655 S
C980 C981 1.334 . S
C981 H958 0.950 . S
C981 C980 1.334 . S
C981 C982 1.287 . S
C982 C981 1.287 . S
C982 C983 1.517 1_655 S
C982 H1001 0.913 . S
C983 H959 0.953 . S
C983 C982 1.517 1_455 S
C983 C984 1.418 . S
C984 H960 0.950 . S
C984 C979 1.363 . S
C984 C983 1.418 . S
C985 H961 0.951 . S
C985 C986 1.366 . S
C985 C987 1.388 . S
C986 C985 1.366 . S
C986 C990 1.385 . S
C987 H962 0.951 . S
C987 C985 1.388 . S
C987 C988 1.366 . S
C988 C987 1.366 . S
C988 C989 1.416 1_554 S
C988 C991 1.499 1_554 S
C989 H963 0.946 . S
C989 C988 1.416 1_556 S
C989 C990 1.376 1_556 S
C990 H964 0.950 . S
C990 C986 1.385 . S
C990 C989 1.376 1_554 S
C991 C988 1.499 1_556 S
C991 C992 1.373 . S
C991 C993 1.389 1_556 S
C992 H965 0.950 . S
C992 C978 1.377 . S
C992 C991 1.373 . S
C993 C977 1.377 1_554 S
C993 C991 1.389 1_554 S
C993 C994 1.524 . S
C994 C993 1.524 . S
C994 C995 1.397 . S
C994 C999 1.363 . S
C995 H966 0.950 . S
C995 C994 1.397 . S
C995 C996 1.334 . S
C996 H967 0.950 . S
C996 C995 1.334 . S
C996 C997 1.287 . S
C997 C996 1.287 . S
C997 C998 1.524 . S
C997 H1000 0.999 . S
C998 H968 0.950 . S
C998 C997 1.524 . S
C998 C999 1.415 . S
C999 H969 0.950 . S
C999 C994 1.363 . S
C999 C998 1.415 . S
H1000 C997 0.999 . S
H1001 C982 0.913 . S
H1002 C1020 0.951 . S
H1003 C1022 0.951 . S
H1004 C1024 0.950 . S
H1005 C1025 0.950 . S
H1006 C1027 0.950 . S
H1007 C1030 0.950 . S
H1008 C1031 0.950 . S
H1009 C1033 0.950 . S
H1010 C1034 0.950 . S
H1011 C1035 0.951 . S
H1012 C1037 0.951 . S
H1013 C1039 0.950 . S
H1014 C1040 0.950 . S
H1015 C1042 0.950 . S
H1016 C1045 0.950 . S
H1017 C1046 0.950 . S
H1018 C1048 0.950 . S
H1019 C1049 0.950 . S
C1020 H1002 0.951 . S
C1020 C1021 1.366 . S
C1020 C1022 1.388 . S
C1021 C1020 1.366 . S
C1021 C1025 1.385 . S
C1022 H1003 0.951 . S
C1022 C1020 1.388 . S
C1022 C1023 1.366 . S
C1023 C1022 1.366 . S
C1023 C1024 1.414 . S
C1023 C1026 1.499 . S
C1024 H1004 0.950 . S
C1024 C1023 1.414 . S
C1024 C1025 1.374 . S
C1025 H1005 0.950 . S
C1025 C1021 1.385 . S
C1025 C1024 1.374 . S
C1026 C1023 1.499 . S
C1026 C1027 1.373 . S
C1026 C1028 1.389 . S
C1027 H1006 0.950 . S
C1027 C1026 1.373 . S
C1027 C1043 1.377 . S
C1028 C1026 1.389 . S
C1028 C1029 1.524 . S
C1028 C1042 1.377 . S
C1029 C1028 1.524 . S
C1029 C1030 1.397 . S
C1029 C1034 1.363 . S
C1030 H1007 0.950 . S
C1030 C1029 1.397 . S
C1030 C1031 1.334 . S
C1031 H1008 0.950 . S
C1031 C1030 1.334 . S
C1031 C1032 1.287 . S
C1032 C1031 1.287 . S
C1032 C1033 1.524 . S
C1032 H1051 0.913 . S
C1033 H1009 0.950 . S
C1033 C1032 1.524 . S
C1033 C1034 1.415 . S
C1034 H1010 0.950 . S
C1034 C1029 1.363 . S
C1034 C1033 1.415 . S
C1035 H1011 0.951 . S
C1035 C1036 1.366 . S
C1035 C1037 1.388 . S
C1036 C1035 1.366 . S
C1036 C1040 1.385 . S
C1037 H1012 0.951 . S
C1037 C1035 1.388 . S
C1037 C1038 1.366 . S
C1038 C1037 1.366 . S
C1038 C1039 1.414 . S
C1038 C1041 1.499 . S
C1039 H1013 0.950 . S
C1039 C1038 1.414 . S
C1039 C1040 1.374 . S
C1040 H1014 0.950 . S
C1040 C1036 1.385 . S
C1040 C1039 1.374 . S
C1041 C1038 1.499 . S
C1041 C1042 1.373 . S
C1041 C1043 1.389 . S
C1042 H1015 0.950 . S
C1042 C1028 1.377 . S
C1042 C1041 1.373 . S
C1043 C1027 1.377 . S
C1043 C1041 1.389 . S
C1043 C1044 1.524 . S
C1044 C1043 1.524 . S
C1044 C1045 1.397 . S
C1044 C1049 1.363 . S
C1045 H1016 0.950 . S
C1045 C1044 1.397 . S
C1045 C1046 1.334 . S
C1046 H1017 0.950 . S
C1046 C1045 1.334 . S
C1046 C1047 1.287 . S
C1047 C1046 1.287 . S
C1047 C1048 1.524 . S
C1047 H1050 0.999 . S
C1048 H1018 0.950 . S
C1048 C1047 1.524 . S
C1048 C1049 1.415 . S
C1049 H1019 0.950 . S
C1049 C1044 1.363 . S
C1049 C1048 1.415 . S
H1050 C1047 0.999 . S
H1051 C1032 0.913 . S
H1052 C1070 0.951 . S
H1053 C1072 0.951 . S
H1054 C1074 0.950 . S
H1055 C1075 0.950 . S
H1056 C1077 0.950 . S
H1057 C1080 0.950 . S
H1058 C1081 0.950 . S
H1059 C1083 0.950 . S
H1060 C1084 0.950 . S
H1061 C1085 0.951 . S
H1062 C1087 0.951 . S
H1063 C1089 0.950 . S
H1064 C1090 0.950 . S
H1065 C1092 0.950 . S
H1066 C1095 0.950 . S
H1067 C1096 0.950 . S
H1068 C1098 0.950 . S
H1069 C1099 0.950 . S
C1070 H1052 0.951 . S
C1070 C1071 1.366 . S
C1070 C1072 1.388 . S
C1071 C1070 1.366 . S
C1071 C1075 1.385 . S
C1072 H1053 0.951 . S
C1072 C1070 1.388 . S
C1072 C1073 1.366 . S
C1073 C1072 1.366 . S
C1073 C1074 1.414 . S
C1073 C1076 1.499 . S
C1074 H1054 0.950 . S
C1074 C1073 1.414 . S
C1074 C1075 1.374 . S
C1075 H1055 0.950 . S
C1075 C1071 1.385 . S
C1075 C1074 1.374 . S
C1076 C1073 1.499 . S
C1076 C1077 1.373 . S
C1076 C1078 1.389 . S
C1077 H1056 0.950 . S
C1077 C1076 1.373 . S
C1077 C1093 1.377 . S
C1078 C1076 1.389 . S
C1078 C1079 1.524 . S
C1078 C1092 1.377 . S
C1079 C1078 1.524 . S
C1079 C1080 1.397 . S
C1079 C1084 1.363 . S
C1080 H1057 0.950 . S
C1080 C1079 1.397 . S
C1080 C1081 1.334 . S
C1081 H1058 0.950 . S
C1081 C1080 1.334 . S
C1081 C1082 1.287 . S
C1082 C1081 1.287 . S
C1082 C1083 1.524 . S
C1082 H1101 0.913 . S
C1083 H1059 0.950 . S
C1083 C1082 1.524 . S
C1083 C1084 1.415 . S
C1084 H1060 0.950 . S
C1084 C1079 1.363 . S
C1084 C1083 1.415 . S
C1085 H1061 0.951 . S
C1085 C1086 1.366 . S
C1085 C1087 1.388 . S
C1086 C1085 1.366 . S
C1086 C1090 1.385 . S
C1087 H1062 0.951 . S
C1087 C1085 1.388 . S
C1087 C1088 1.366 . S
C1088 C1087 1.366 . S
C1088 C1089 1.414 . S
C1088 C1091 1.499 . S
C1089 H1063 0.950 . S
C1089 C1088 1.414 . S
C1089 C1090 1.374 . S
C1090 H1064 0.950 . S
C1090 C1086 1.385 . S
C1090 C1089 1.374 . S
C1091 C1088 1.499 . S
C1091 C1092 1.373 . S
C1091 C1093 1.389 . S
C1092 H1065 0.950 . S
C1092 C1078 1.377 . S
C1092 C1091 1.373 . S
C1093 C1077 1.377 . S
C1093 C1091 1.389 . S
C1093 C1094 1.524 . S
C1094 C1093 1.524 . S
C1094 C1095 1.397 . S
C1094 C1099 1.363 . S
C1095 H1066 0.950 . S
C1095 C1094 1.397 . S
C1095 C1096 1.334 . S
C1096 H1067 0.950 . S
C1096 C1095 1.334 . S
C1096 C1097 1.287 . S
C1097 C1096 1.287 . S
C1097 C1098 1.524 . S
C1097 H1100 0.999 . S
C1098 H1068 0.950 . S
C1098 C1097 1.524 . S
C1098 C1099 1.415 . S
C1099 H1069 0.950 . S
C1099 C1094 1.363 . S
C1099 C1098 1.415 . S
H1100 C1097 0.999 . S
H1101 C1082 0.913 . S
H1102 C1120 0.951 . S
H1103 C1122 0.951 . S
H1104 C1124 0.950 . S
H1105 C1125 0.950 . S
H1106 C1127 0.950 . S
H1107 C1130 0.950 . S
H1108 C1131 0.950 . S
H1109 C1133 0.950 . S
H1110 C1134 0.950 . S
H1111 C1135 0.951 . S
H1112 C1137 0.951 . S
H1113 C1139 0.950 . S
H1114 C1140 0.950 . S
H1115 C1142 0.950 . S
H1116 C1145 0.950 . S
H1117 C1146 0.950 . S
H1118 C1148 0.950 . S
H1119 C1149 0.950 . S
C1120 H1102 0.951 . S
C1120 C1121 1.366 . S
C1120 C1122 1.388 . S
C1121 C1120 1.366 . S
C1121 C1125 1.385 . S
C1122 H1103 0.951 . S
C1122 C1120 1.388 . S
C1122 C1123 1.366 . S
C1123 C1122 1.366 . S
C1123 C1124 1.414 . S
C1123 C1126 1.499 . S
C1124 H1104 0.950 . S
C1124 C1123 1.414 . S
C1124 C1125 1.374 . S
C1125 H1105 0.950 . S
C1125 C1121 1.385 . S
C1125 C1124 1.374 . S
C1126 C1123 1.499 . S
C1126 C1127 1.373 . S
C1126 C1128 1.389 . S
C1127 H1106 0.950 . S
C1127 C1126 1.373 . S
C1127 C1143 1.377 . S
C1128 C1126 1.389 . S
C1128 C1129 1.524 . S
C1128 C1142 1.377 . S
C1129 C1128 1.524 . S
C1129 C1130 1.397 . S
C1129 C1134 1.363 . S
C1130 H1107 0.950 . S
C1130 C1129 1.397 . S
C1130 C1131 1.334 . S
C1131 H1108 0.950 . S
C1131 C1130 1.334 . S
C1131 C1132 1.287 . S
C1132 C1131 1.287 . S
C1132 C1133 1.524 . S
C1132 H1151 0.913 . S
C1133 H1109 0.950 . S
C1133 C1132 1.524 . S
C1133 C1134 1.415 . S
C1134 H1110 0.950 . S
C1134 C1129 1.363 . S
C1134 C1133 1.415 . S
C1135 H1111 0.951 . S
C1135 C1136 1.366 . S
C1135 C1137 1.388 . S
C1136 C1135 1.366 . S
C1136 C1140 1.385 . S
C1137 H1112 0.951 . S
C1137 C1135 1.388 . S
C1137 C1138 1.366 . S
C1138 C1137 1.366 . S
C1138 C1139 1.414 . S
C1138 C1141 1.499 . S
C1139 H1113 0.950 . S
C1139 C1138 1.414 . S
C1139 C1140 1.374 . S
C1140 H1114 0.950 . S
C1140 C1136 1.385 . S
C1140 C1139 1.374 . S
C1141 C1138 1.499 . S
C1141 C1142 1.373 . S
C1141 C1143 1.389 . S
C1142 H1115 0.950 . S
C1142 C1128 1.377 . S
C1142 C1141 1.373 . S
C1143 C1127 1.377 . S
C1143 C1141 1.389 . S
C1143 C1144 1.524 . S
C1144 C1143 1.524 . S
C1144 C1145 1.397 . S
C1144 C1149 1.363 . S
C1145 H1116 0.950 . S
C1145 C1144 1.397 . S
C1145 C1146 1.334 . S
C1146 H1117 0.950 . S
C1146 C1145 1.334 . S
C1146 C1147 1.287 . S
C1147 C1146 1.287 . S
C1147 C1148 1.524 . S
C1147 H1150 0.999 . S
C1148 H1118 0.950 . S
C1148 C1147 1.524 . S
C1148 C1149 1.415 . S
C1149 H1119 0.950 . S
C1149 C1144 1.363 . S
C1149 C1148 1.415 . S
H1150 C1147 0.999 . S
H1151 C1132 0.913 . S
H1152 C1170 0.951 . S
H1153 C1172 0.951 . S
H1154 C1174 0.950 . S
H1155 C1175 0.950 . S
H1156 C1177 0.950 . S
H1157 C1180 0.950 . S
H1158 C1181 0.950 . S
H1159 C1183 0.950 . S
H1160 C1184 0.949 . S
H1161 C1185 0.951 . S
H1162 C1187 0.951 . S
H1163 C1189 0.950 . S
H1164 C1190 0.950 . S
H1165 C1192 0.950 . S
H1166 C1195 0.950 . S
H1167 C1196 0.950 . S
H1168 C1198 0.950 . S
H1169 C1199 0.950 . S
C1170 H1152 0.951 . S
C1170 C1171 1.366 . S
C1170 C1172 1.388 . S
C1171 C1170 1.366 . S
C1171 C1175 1.385 . S
C1172 H1153 0.951 . S
C1172 C1170 1.388 . S
C1172 C1173 1.366 . S
C1173 C1172 1.366 . S
C1173 C1174 1.414 . S
C1173 C1176 1.499 . S
C1174 H1154 0.950 . S
C1174 C1173 1.414 . S
C1174 C1175 1.374 . S
C1175 H1155 0.950 . S
C1175 C1171 1.385 . S
C1175 C1174 1.374 . S
C1176 C1173 1.499 . S
C1176 C1177 1.373 . S
C1176 C1178 1.389 . S
C1177 H1156 0.950 . S
C1177 C1176 1.373 . S
C1177 C1193 1.377 . S
C1178 C1176 1.389 . S
C1178 C1179 1.524 . S
C1178 C1192 1.377 . S
C1179 C1178 1.524 . S
C1179 C1180 1.397 . S
C1179 C1184 1.394 . S
C1180 H1157 0.950 . S
C1180 C1179 1.397 . S
C1180 C1181 1.334 1_455 S
C1181 H1158 0.950 . S
C1181 C1180 1.334 1_655 S
C1181 C1182 1.287 . S
C1182 C1181 1.287 . S
C1182 C1183 1.524 . S
C1182 H1201 0.913 . S
C1183 H1159 0.950 . S
C1183 C1182 1.524 . S
C1183 C1184 1.386 1_655 S
C1184 H1160 0.949 . S
C1184 C1179 1.394 . S
C1184 C1183 1.386 1_455 S
C1185 H1161 0.951 . S
C1185 C1186 1.366 . S
C1185 C1187 1.388 . S
C1186 C1185 1.366 . S
C1186 C1190 1.385 . S
C1187 H1162 0.951 . S
C1187 C1185 1.388 . S
C1187 C1188 1.366 . S
C1188 C1187 1.366 . S
C1188 C1189 1.414 . S
C1188 C1191 1.499 . S
C1189 H1163 0.950 . S
C1189 C1188 1.414 . S
C1189 C1190 1.374 . S
C1190 H1164 0.950 . S
C1190 C1186 1.385 . S
C1190 C1189 1.374 . S
C1191 C1188 1.499 . S
C1191 C1192 1.373 . S
C1191 C1193 1.389 . S
C1192 H1165 0.950 . S
C1192 C1178 1.377 . S
C1192 C1191 1.373 . S
C1193 C1177 1.377 . S
C1193 C1191 1.389 . S
C1193 C1194 1.524 . S
C1194 C1193 1.524 . S
C1194 C1195 1.397 . S
C1194 C1199 1.363 . S
C1195 H1166 0.950 . S
C1195 C1194 1.397 . S
C1195 C1196 1.334 . S
C1196 H1167 0.950 . S
C1196 C1195 1.334 . S
C1196 C1197 1.287 . S
C1197 C1196 1.287 . S
C1197 C1198 1.524 . S
C1197 H1200 0.999 . S
C1198 H1168 0.950 . S
C1198 C1197 1.524 . S
C1198 C1199 1.415 . S
C1199 H1169 0.950 . S
C1199 C1194 1.363 . S
C1199 C1198 1.415 . S
H1200 C1197 0.999 . S
H1201 C1182 0.913 . S
H1202 C1220 0.951 . S
H1203 C1222 0.951 . S
H1204 C1224 0.950 . S
H1205 C1225 0.950 . S
H1206 C1227 0.950 . S
H1207 C1230 0.950 . S
H1208 C1231 0.950 . S
H1209 C1233 0.950 . S
H1210 C1234 0.950 . S
H1211 C1235 0.951 . S
H1212 C1237 0.951 . S
H1213 C1239 0.950 . S
H1214 C1240 0.950 . S
H1215 C1242 0.950 . S
H1216 C1245 0.950 . S
H1217 C1246 0.950 . S
H1218 C1248 0.950 . S
H1219 C1249 0.950 . S
C1220 H1202 0.951 . S
C1220 C1221 1.366 . S
C1220 C1222 1.388 . S
C1221 C1220 1.366 . S
C1221 C1225 1.385 . S
C1222 H1203 0.951 . S
C1222 C1220 1.388 . S
C1222 C1223 1.366 . S
C1223 C1222 1.366 . S
C1223 C1224 1.414 . S
C1223 C1226 1.499 . S
C1224 H1204 0.950 . S
C1224 C1223 1.414 . S
C1224 C1225 1.374 . S
C1225 H1205 0.950 . S
C1225 C1221 1.385 . S
C1225 C1224 1.374 . S
C1226 C1223 1.499 . S
C1226 C1227 1.373 . S
C1226 C1228 1.389 . S
C1227 H1206 0.950 . S
C1227 C1226 1.373 . S
C1227 C1243 1.377 . S
C1228 C1226 1.389 . S
C1228 C1229 1.524 . S
C1228 C1242 1.377 . S
C1229 C1228 1.524 . S
C1229 C1230 1.397 . S
C1229 C1234 1.363 . S
C1230 H1207 0.950 . S
C1230 C1229 1.397 . S
C1230 C1231 1.334 . S
C1231 H1208 0.950 . S
C1231 C1230 1.334 . S
C1231 C1232 1.287 . S
C1232 C1231 1.287 . S
C1232 C1233 1.524 . S
C1232 H1251 0.913 . S
C1233 H1209 0.950 . S
C1233 C1232 1.524 . S
C1233 C1234 1.415 . S
C1234 H1210 0.950 . S
C1234 C1229 1.363 . S
C1234 C1233 1.415 . S
C1235 H1211 0.951 . S
C1235 C1236 1.366 . S
C1235 C1237 1.388 . S
C1236 C1235 1.366 . S
C1236 C1240 1.385 . S
C1237 H1212 0.951 . S
C1237 C1235 1.388 . S
C1237 C1238 1.366 . S
C1238 C1237 1.366 . S
C1238 C1239 1.414 . S
C1238 C1241 1.499 . S
C1239 H1213 0.950 . S
C1239 C1238 1.414 . S
C1239 C1240 1.374 . S
C1240 H1214 0.950 . S
C1240 C1236 1.385 . S
C1240 C1239 1.374 . S
C1241 C1238 1.499 . S
C1241 C1242 1.373 . S
C1241 C1243 1.389 . S
C1242 H1215 0.950 . S
C1242 C1228 1.377 . S
C1242 C1241 1.373 . S
C1243 C1227 1.377 . S
C1243 C1241 1.389 . S
C1243 C1244 1.524 . S
C1244 C1243 1.524 . S
C1244 C1245 1.397 . S
C1244 C1249 1.363 . S
C1245 H1216 0.950 . S
C1245 C1244 1.397 . S
C1245 C1246 1.334 . S
C1246 H1217 0.950 . S
C1246 C1245 1.334 . S
C1246 C1247 1.287 . S
C1247 C1246 1.287 . S
C1247 C1248 1.524 . S
C1247 H1250 0.999 . S
C1248 H1218 0.950 . S
C1248 C1247 1.524 . S
C1248 C1249 1.415 . S
C1249 H1219 0.950 . S
C1249 C1244 1.363 . S
C1249 C1248 1.415 . S
H1250 C1247 0.999 . S
H1251 C1232 0.913 . S
H1252 C1270 0.951 . S
H1253 C1272 0.951 . S
H1254 C1274 0.950 . S
H1255 C1275 0.950 . S
H1256 C1277 0.950 . S
H1257 C1280 0.950 . S
H1258 C1281 0.950 . S
H1259 C1283 0.950 . S
H1260 C1284 0.950 . S
H1261 C1285 0.951 . S
H1262 C1287 0.951 . S
H1263 C1289 0.950 . S
H1264 C1290 0.950 . S
H1265 C1292 0.950 . S
H1266 C1295 0.950 . S
H1267 C1296 0.950 . S
H1268 C1298 0.950 . S
H1269 C1299 0.950 . S
C1270 H1252 0.951 . S
C1270 C1271 1.366 . S
C1270 C1272 1.388 . S
C1271 C1270 1.366 . S
C1271 C1275 1.385 . S
C1272 H1253 0.951 . S
C1272 C1270 1.388 . S
C1272 C1273 1.366 . S
C1273 C1272 1.366 . S
C1273 C1274 1.414 . S
C1273 C1276 1.499 . S
C1274 H1254 0.950 . S
C1274 C1273 1.414 . S
C1274 C1275 1.374 . S
C1275 H1255 0.950 . S
C1275 C1271 1.385 . S
C1275 C1274 1.374 . S
C1276 C1273 1.499 . S
C1276 C1277 1.373 . S
C1276 C1278 1.389 . S
C1277 H1256 0.950 . S
C1277 C1276 1.373 . S
C1277 C1293 1.377 . S
C1278 C1276 1.389 . S
C1278 C1279 1.524 . S
C1278 C1292 1.377 . S
C1279 C1278 1.524 . S
C1279 C1280 1.397 . S
C1279 C1284 1.363 . S
C1280 H1257 0.950 . S
C1280 C1279 1.397 . S
C1280 C1281 1.334 . S
C1281 H1258 0.950 . S
C1281 C1280 1.334 . S
C1281 C1282 1.287 . S
C1282 C1281 1.287 . S
C1282 C1283 1.524 . S
C1282 H1301 0.913 . S
C1283 H1259 0.950 . S
C1283 C1282 1.524 . S
C1283 C1284 1.415 . S
C1284 H1260 0.950 . S
C1284 C1279 1.363 . S
C1284 C1283 1.415 . S
C1285 H1261 0.951 . S
C1285 C1286 1.366 . S
C1285 C1287 1.388 . S
C1286 C1285 1.366 . S
C1286 C1290 1.385 . S
C1287 H1262 0.951 . S
C1287 C1285 1.388 . S
C1287 C1288 1.366 . S
C1288 C1287 1.366 . S
C1288 C1289 1.414 . S
C1288 C1291 1.499 . S
C1289 H1263 0.950 . S
C1289 C1288 1.414 . S
C1289 C1290 1.374 . S
C1290 H1264 0.950 . S
C1290 C1286 1.385 . S
C1290 C1289 1.374 . S
C1291 C1288 1.499 . S
C1291 C1292 1.373 . S
C1291 C1293 1.389 . S
C1292 H1265 0.950 . S
C1292 C1278 1.377 . S
C1292 C1291 1.373 . S
C1293 C1277 1.377 . S
C1293 C1291 1.389 . S
C1293 C1294 1.524 . S
C1294 C1293 1.524 . S
C1294 C1295 1.397 . S
C1294 C1299 1.363 . S
C1295 H1266 0.950 . S
C1295 C1294 1.397 . S
C1295 C1296 1.334 . S
C1296 H1267 0.950 . S
C1296 C1295 1.334 . S
C1296 C1297 1.287 . S
C1297 C1296 1.287 . S
C1297 C1298 1.524 . S
C1297 H1300 0.999 . S
C1298 H1268 0.950 . S
C1298 C1297 1.524 . S
C1298 C1299 1.415 . S
C1299 H1269 0.950 . S
C1299 C1294 1.363 . S
C1299 C1298 1.415 . S
H1300 C1297 0.999 . S
H1301 C1282 0.913 . S
H1302 C1320 0.951 . S
H1303 C1322 0.951 . S
H1304 C1324 0.950 . S
H1305 C1325 0.950 . S
H1306 C1327 0.950 . S
H1307 C1330 0.950 . S
H1308 C1331 0.950 . S
H1309 C1333 0.950 . S
H1310 C1334 0.950 . S
H1311 C1335 0.951 . S
H1312 C1337 0.951 . S
H1313 C1339 0.950 . S
H1314 C1340 0.950 . S
H1315 C1342 0.950 . S
H1316 C1345 0.950 . S
H1317 C1346 0.950 . S
H1318 C1348 0.950 . S
H1319 C1349 0.950 . S
C1320 H1302 0.951 . S
C1320 C1321 1.366 . S
C1320 C1322 1.388 . S
C1321 C1320 1.366 . S
C1321 C1325 1.385 . S
C1322 H1303 0.951 . S
C1322 C1320 1.388 . S
C1322 C1323 1.366 . S
C1323 C1322 1.366 . S
C1323 C1324 1.414 . S
C1323 C1326 1.499 . S
C1324 H1304 0.950 . S
C1324 C1323 1.414 . S
C1324 C1325 1.374 . S
C1325 H1305 0.950 . S
C1325 C1321 1.385 . S
C1325 C1324 1.374 . S
C1326 C1323 1.499 . S
C1326 C1327 1.373 . S
C1326 C1328 1.389 . S
C1327 H1306 0.950 . S
C1327 C1326 1.373 . S
C1327 C1343 1.377 . S
C1328 C1326 1.389 . S
C1328 C1329 1.524 . S
C1328 C1342 1.377 . S
C1329 C1328 1.524 . S
C1329 C1330 1.397 . S
C1329 C1334 1.363 . S
C1330 H1307 0.950 . S
C1330 C1329 1.397 . S
C1330 C1331 1.334 . S
C1331 H1308 0.950 . S
C1331 C1330 1.334 . S
C1331 C1332 1.287 . S
C1332 C1331 1.287 . S
C1332 C1333 1.524 . S
C1332 H1351 0.913 . S
C1333 H1309 0.950 . S
C1333 C1332 1.524 . S
C1333 C1334 1.415 . S
C1334 H1310 0.950 . S
C1334 C1329 1.363 . S
C1334 C1333 1.415 . S
C1335 H1311 0.951 . S
C1335 C1336 1.366 . S
C1335 C1337 1.388 . S
C1336 C1335 1.366 . S
C1336 C1340 1.385 . S
C1337 H1312 0.951 . S
C1337 C1335 1.388 . S
C1337 C1338 1.366 . S
C1338 C1337 1.366 . S
C1338 C1339 1.414 . S
C1338 C1341 1.499 . S
C1339 H1313 0.950 . S
C1339 C1338 1.414 . S
C1339 C1340 1.374 . S
C1340 H1314 0.950 . S
C1340 C1336 1.385 . S
C1340 C1339 1.374 . S
C1341 C1338 1.499 . S
C1341 C1342 1.373 . S
C1341 C1343 1.389 . S
C1342 H1315 0.950 . S
C1342 C1328 1.377 . S
C1342 C1341 1.373 . S
C1343 C1327 1.377 . S
C1343 C1341 1.389 . S
C1343 C1344 1.524 . S
C1344 C1343 1.524 . S
C1344 C1345 1.397 . S
C1344 C1349 1.363 . S
C1345 H1316 0.950 . S
C1345 C1344 1.397 . S
C1345 C1346 1.334 . S
C1346 H1317 0.950 . S
C1346 C1345 1.334 . S
C1346 C1347 1.287 . S
C1347 C1346 1.287 . S
C1347 C1348 1.524 . S
C1347 H1350 0.999 . S
C1348 H1318 0.950 . S
C1348 C1347 1.524 . S
C1348 C1349 1.415 . S
C1349 H1319 0.950 . S
C1349 C1344 1.363 . S
C1349 C1348 1.415 . S
H1350 C1347 0.999 . S
H1351 C1332 0.913 . S
H1352 C1370 0.951 . S
H1353 C1372 0.951 . S
H1354 C1374 0.950 . S
H1355 C1375 0.950 . S
H1356 C1377 0.950 . S
H1357 C1380 0.950 . S
H1358 C1381 0.950 . S
H1359 C1383 0.950 . S
H1360 C1384 0.950 . S
H1361 C1385 0.951 . S
H1362 C1387 0.951 1_655 S
H1363 C1389 0.950 . S
H1364 C1390 0.950 . S
H1365 C1392 0.950 . S
H1366 C1395 0.950 . S
H1367 C1396 0.950 . S
H1368 C1398 0.950 . S
H1369 C1399 0.950 . S
C1370 H1352 0.951 . S
C1370 C1371 1.366 . S
C1370 C1372 1.388 . S
C1371 C1370 1.366 . S
C1371 C1375 1.385 . S
C1372 H1353 0.951 . S
C1372 C1370 1.388 . S
C1372 C1373 1.366 . S
C1373 C1372 1.366 . S
C1373 C1374 1.414 . S
C1373 C1376 1.499 . S
C1374 H1354 0.950 . S
C1374 C1373 1.414 . S
C1374 C1375 1.374 . S
C1375 H1355 0.950 . S
C1375 C1371 1.385 . S
C1375 C1374 1.374 . S
C1376 C1373 1.499 . S
C1376 C1377 1.373 . S
C1376 C1378 1.389 . S
C1377 H1356 0.950 . S
C1377 C1376 1.373 . S
C1377 C1393 1.377 . S
C1378 C1376 1.389 . S
C1378 C1379 1.524 . S
C1378 C1392 1.377 . S
C1379 C1378 1.524 . S
C1379 C1380 1.397 . S
C1379 C1384 1.363 . S
C1380 H1357 0.950 . S
C1380 C1379 1.397 . S
C1380 C1381 1.334 . S
C1381 H1358 0.950 . S
C1381 C1380 1.334 . S
C1381 C1382 1.287 . S
C1382 C1381 1.287 . S
C1382 C1383 1.524 . S
C1382 H1401 0.913 . S
C1383 H1359 0.950 . S
C1383 C1382 1.524 . S
C1383 C1384 1.415 . S
C1384 H1360 0.950 . S
C1384 C1379 1.363 . S
C1384 C1383 1.415 . S
C1385 H1361 0.951 . S
C1385 C1386 1.366 . S
C1385 C1387 1.388 . S
C1386 C1385 1.366 . S
C1386 C1390 1.385 . S
C1387 H1362 0.951 1_455 S
C1387 C1385 1.388 . S
C1387 C1388 1.366 . S
C1388 C1387 1.366 . S
C1388 C1389 1.414 . S
C1388 C1391 1.499 1_455 S
C1389 H1363 0.950 . S
C1389 C1388 1.414 . S
C1389 C1390 1.374 . S
C1390 H1364 0.950 . S
C1390 C1386 1.385 . S
C1390 C1389 1.374 . S
C1391 C1388 1.499 1_655 S
C1391 C1392 1.373 . S
C1391 C1393 1.389 . S
C1392 H1365 0.950 . S
C1392 C1378 1.377 . S
C1392 C1391 1.373 . S
C1393 C1377 1.377 . S
C1393 C1391 1.389 . S
C1393 C1394 1.524 . S
C1394 C1393 1.524 . S
C1394 C1395 1.397 1_655 S
C1394 C1399 1.363 1_545 S
C1395 H1366 0.950 . S
C1395 C1394 1.397 1_455 S
C1395 C1396 1.334 1_545 S
C1396 H1367 0.950 . S
C1396 C1395 1.334 1_565 S
C1396 C1397 1.287 . S
C1397 C1396 1.287 . S
C1397 C1398 1.524 1_455 S
C1397 H1400 0.999 . S
C1398 H1368 0.950 . S
C1398 C1397 1.524 1_655 S
C1398 C1399 1.415 . S
C1399 H1369 0.950 . S
C1399 C1394 1.363 1_565 S
C1399 C1398 1.415 . S
H1400 C1397 0.999 . S
H1401 C1382 0.913 . S
H1402 C1420 0.951 . S
H1403 C1422 0.951 . S
H1404 C1424 0.950 . S
H1405 C1425 0.950 . S
H1406 C1427 0.950 . S
H1407 C1430 0.950 . S
H1408 C1431 0.950 . S
H1409 C1433 0.950 . S
H1410 C1434 0.950 . S
H1411 C1435 0.951 . S
H1412 C1437 0.951 . S
H1413 C1439 0.950 . S
H1414 C1440 0.950 . S
H1415 C1442 0.950 . S
H1416 C1445 0.950 . S
H1417 C1446 0.950 . S
H1418 C1448 0.950 . S
H1419 C1449 0.950 . S
C1420 H1402 0.951 . S
C1420 C1421 1.366 . S
C1420 C1422 1.388 . S
C1421 C1420 1.366 . S
C1421 C1425 1.385 . S
C1422 H1403 0.951 . S
C1422 C1420 1.388 . S
C1422 C1423 1.366 . S
C1423 C1422 1.366 . S
C1423 C1424 1.414 . S
C1423 C1426 1.499 . S
C1424 H1404 0.950 . S
C1424 C1423 1.414 . S
C1424 C1425 1.374 . S
C1425 H1405 0.950 . S
C1425 C1421 1.385 . S
C1425 C1424 1.374 . S
C1426 C1423 1.499 . S
C1426 C1427 1.373 . S
C1426 C1428 1.389 . S
C1427 H1406 0.950 . S
C1427 C1426 1.373 . S
C1427 C1443 1.377 . S
C1428 C1426 1.389 . S
C1428 C1429 1.524 . S
C1428 C1442 1.377 . S
C1429 C1428 1.524 . S
C1429 C1430 1.397 . S
C1429 C1434 1.363 . S
C1430 H1407 0.950 . S
C1430 C1429 1.397 . S
C1430 C1431 1.334 . S
C1431 H1408 0.950 . S
C1431 C1430 1.334 . S
C1431 C1432 1.287 . S
C1432 C1431 1.287 . S
C1432 C1433 1.524 . S
C1432 H1451 0.913 . S
C1433 H1409 0.950 . S
C1433 C1432 1.524 . S
C1433 C1434 1.415 . S
C1434 H1410 0.950 . S
C1434 C1429 1.363 . S
C1434 C1433 1.415 . S
C1435 H1411 0.951 . S
C1435 C1436 1.366 . S
C1435 C1437 1.388 . S
C1436 C1435 1.366 . S
C1436 C1440 1.385 . S
C1437 H1412 0.951 . S
C1437 C1435 1.388 . S
C1437 C1438 1.366 . S
C1438 C1437 1.366 . S
C1438 C1439 1.414 . S
C1438 C1441 1.499 . S
C1439 H1413 0.950 . S
C1439 C1438 1.414 . S
C1439 C1440 1.374 . S
C1440 H1414 0.950 . S
C1440 C1436 1.385 . S
C1440 C1439 1.374 . S
C1441 C1438 1.499 . S
C1441 C1442 1.373 . S
C1441 C1443 1.389 . S
C1442 H1415 0.950 . S
C1442 C1428 1.377 . S
C1442 C1441 1.373 . S
C1443 C1427 1.377 . S
C1443 C1441 1.389 . S
C1443 C1444 1.524 . S
C1444 C1443 1.524 . S
C1444 C1445 1.397 . S
C1444 C1449 1.363 . S
C1445 H1416 0.950 . S
C1445 C1444 1.397 . S
C1445 C1446 1.334 . S
C1446 H1417 0.950 . S
C1446 C1445 1.334 . S
C1446 C1447 1.287 . S
C1447 C1446 1.287 . S
C1447 C1448 1.524 . S
C1447 H1450 0.999 . S
C1448 H1418 0.950 . S
C1448 C1447 1.524 . S
C1448 C1449 1.415 . S
C1449 H1419 0.950 . S
C1449 C1444 1.363 . S
C1449 C1448 1.415 . S
H1450 C1447 0.999 . S
H1451 C1432 0.913 . S
H1452 C1470 0.951 1_565 S
H1453 C1472 0.951 1_565 S
H1454 C1474 0.950 . S
H1455 C1475 0.950 . S
H1456 C1477 0.950 . S
H1457 C1480 0.950 1_545 S
H1458 C1481 0.950 . S
H1459 C1483 0.950 . S
H1460 C1484 0.950 . S
H1461 C1485 0.951 . S
H1462 C1487 0.951 . S
H1463 C1489 0.950 . S
H1464 C1490 0.950 . S
H1465 C1492 0.954 . S
H1466 C1495 0.950 . S
H1467 C1496 0.950 . S
H1468 C1498 0.950 . S
H1469 C1499 0.950 . S
C1470 H1452 0.951 1_545 S
C1470 C1471 1.366 . S
C1470 C1472 1.388 . S
C1471 C1470 1.366 . S
C1471 C1475 1.385 . S
C1472 H1453 0.951 1_545 S
C1472 C1470 1.388 . S
C1472 C1473 1.366 . S
C1473 C1472 1.366 . S
C1473 C1474 1.414 . S
C1473 C1476 1.499 . S
C1474 H1454 0.950 . S
C1474 C1473 1.414 . S
C1474 C1475 1.374 . S
C1475 H1455 0.950 . S
C1475 C1471 1.385 . S
C1475 C1474 1.374 . S
C1476 C1473 1.499 . S
C1476 C1477 1.373 . S
C1476 C1478 1.389 . S
C1477 H1456 0.950 . S
C1477 C1476 1.373 . S
C1477 C1493 1.377 . S
C1478 C1476 1.389 . S
C1478 C1479 1.524 1_545 S
C1478 C1492 1.377 1_545 S
C1479 C1478 1.524 1_565 S
C1479 C1480 1.397 . S
C1479 C1484 1.363 . S
C1480 H1457 0.950 1_565 S
C1480 C1479 1.397 . S
C1480 C1481 1.334 . S
C1481 H1458 0.950 . S
C1481 C1480 1.334 . S
C1481 C1482 1.287 . S
C1482 C1481 1.287 . S
C1482 C1483 1.524 . S
C1482 H1501 0.913 . S
C1483 H1459 0.950 . S
C1483 C1482 1.524 . S
C1483 C1484 1.415 . S
C1484 H1460 0.950 . S
C1484 C1479 1.363 . S
C1484 C1483 1.415 . S
C1485 H1461 0.951 . S
C1485 C1486 1.366 . S
C1485 C1487 1.388 . S
C1486 C1485 1.366 . S
C1486 C1490 1.385 1_545 S
C1487 H1462 0.951 . S
C1487 C1485 1.388 . S
C1487 C1488 1.366 . S
C1488 C1487 1.366 . S
C1488 C1489 1.414 1_545 S
C1488 C1491 1.499 . S
C1489 H1463 0.950 . S
C1489 C1488 1.414 1_565 S
C1489 C1490 1.374 . S
C1490 H1464 0.950 . S
C1490 C1486 1.385 1_565 S
C1490 C1489 1.374 . S
C1491 C1488 1.499 . S
C1491 C1492 1.368 1_545 S
C1491 C1493 1.389 . S
C1492 H1465 0.954 . S
C1492 C1478 1.377 1_565 S
C1492 C1491 1.368 1_565 S
C1493 C1477 1.377 . S
C1493 C1491 1.389 . S
C1493 C1494 1.524 . S
C1494 C1493 1.524 . S
C1494 C1495 1.397 . S
C1494 C1499 1.363 . S
C1495 H1466 0.950 . S
C1495 C1494 1.397 . S
C1495 C1496 1.334 . S
C1496 H1467 0.950 . S
C1496 C1495 1.334 . S
C1496 C1497 1.287 . S
C1497 C1496 1.287 . S
C1497 C1498 1.524 . S
C1497 H1500 0.999 . S
C1498 H1468 0.950 . S
C1498 C1497 1.524 . S
C1498 C1499 1.415 . S
C1499 H1469 0.950 . S
C1499 C1494 1.363 . S
C1499 C1498 1.415 . S
H1500 C1497 0.999 . S
H1501 C1482 0.913 . S
H1502 C1520 0.951 . S
H1503 C1522 0.951 . S
H1504 C1524 0.950 . S
H1505 C1525 0.950 . S
H1506 C1527 0.950 . S
H1507 C1530 0.950 . S
H1508 C1531 0.950 . S
H1509 C1533 0.950 . S
H1510 C1534 0.950 . S
H1511 C1535 0.951 . S
H1512 C1537 0.951 . S
H1513 C1539 0.950 . S
H1514 C1540 0.950 . S
H1515 C1542 0.950 . S
H1516 C1545 0.950 . S
H1517 C1546 0.950 . S
H1518 C1548 0.950 . S
H1519 C1549 0.950 . S
C1520 H1502 0.951 . S
C1520 C1521 1.366 . S
C1520 C1522 1.388 . S
C1521 C1520 1.366 . S
C1521 C1525 1.385 . S
C1522 H1503 0.951 . S
C1522 C1520 1.388 . S
C1522 C1523 1.366 . S
C1523 C1522 1.366 . S
C1523 C1524 1.414 . S
C1523 C1526 1.499 . S
C1524 H1504 0.950 . S
C1524 C1523 1.414 . S
C1524 C1525 1.374 . S
C1525 H1505 0.950 . S
C1525 C1521 1.385 . S
C1525 C1524 1.374 . S
C1526 C1523 1.499 . S
C1526 C1527 1.373 . S
C1526 C1528 1.389 . S
C1527 H1506 0.950 . S
C1527 C1526 1.373 . S
C1527 C1543 1.377 . S
C1528 C1526 1.389 . S
C1528 C1529 1.524 . S
C1528 C1542 1.377 . S
C1529 C1528 1.524 . S
C1529 C1530 1.397 . S
C1529 C1534 1.363 . S
C1530 H1507 0.950 . S
C1530 C1529 1.397 . S
C1530 C1531 1.334 . S
C1531 H1508 0.950 . S
C1531 C1530 1.334 . S
C1531 C1532 1.287 . S
C1532 C1531 1.287 . S
C1532 C1533 1.524 . S
C1532 H1551 0.913 . S
C1533 H1509 0.950 . S
C1533 C1532 1.524 . S
C1533 C1534 1.415 . S
C1534 H1510 0.950 . S
C1534 C1529 1.363 . S
C1534 C1533 1.415 . S
C1535 H1511 0.951 . S
C1535 C1536 1.366 . S
C1535 C1537 1.388 . S
C1536 C1535 1.366 . S
C1536 C1540 1.385 . S
C1537 H1512 0.951 . S
C1537 C1535 1.388 . S
C1537 C1538 1.366 . S
C1538 C1537 1.366 . S
C1538 C1539 1.414 . S
C1538 C1541 1.499 . S
C1539 H1513 0.950 . S
C1539 C1538 1.414 . S
C1539 C1540 1.374 . S
C1540 H1514 0.950 . S
C1540 C1536 1.385 . S
C1540 C1539 1.374 . S
C1541 C1538 1.499 . S
C1541 C1542 1.373 . S
C1541 C1543 1.389 . S
C1542 H1515 0.950 . S
C1542 C1528 1.377 . S
C1542 C1541 1.373 . S
C1543 C1527 1.377 . S
C1543 C1541 1.389 . S
C1543 C1544 1.524 . S
C1544 C1543 1.524 . S
C1544 C1545 1.397 . S
C1544 C1549 1.363 . S
C1545 H1516 0.950 . S
C1545 C1544 1.397 . S
C1545 C1546 1.334 . S
C1546 H1517 0.950 . S
C1546 C1545 1.334 . S
C1546 C1547 1.287 . S
C1547 C1546 1.287 . S
C1547 C1548 1.524 . S
C1547 H1550 0.999 . S
C1548 H1518 0.950 . S
C1548 C1547 1.524 . S
C1548 C1549 1.415 . S
C1549 H1519 0.950 . S
C1549 C1544 1.363 . S
C1549 C1548 1.415 . S
H1550 C1547 0.999 . S
H1551 C1532 0.913 . S
H1552 C1570 0.951 . S
H1553 C1572 0.951 . S
H1554 C1574 0.923 1_565 S
H1555 C1575 0.950 1_565 S
H1556 C1577 0.950 . S
H1557 C1580 0.950 . S
H1558 C1581 0.950 . S
H1559 C1583 0.950 . S
H1560 C1584 0.950 . S
H1561 C1585 0.951 . S
H1562 C1587 0.951 . S
H1563 C1589 0.950 . S
H1564 C1590 0.950 . S
H1565 C1592 1.015 . S
H1566 C1595 0.950 . S
H1567 C1596 0.950 . S
H1568 C1598 0.950 1_565 S
H1569 C1599 0.950 1_565 S
C1570 H1552 0.951 . S
C1570 C1571 1.366 . S
C1570 C1572 1.388 . S
C1571 C1570 1.366 . S
C1571 C1575 1.385 . S
C1572 H1553 0.951 . S
C1572 C1570 1.388 . S
C1572 C1573 1.366 . S
C1573 C1572 1.366 . S
C1573 C1574 1.429 . S
C1573 C1576 1.499 . S
C1574 H1554 0.923 1_545 S
C1574 C1573 1.429 . S
C1574 C1575 1.388 . S
C1575 H1555 0.950 1_545 S
C1575 C1571 1.385 . S
C1575 C1574 1.388 . S
C1576 C1573 1.499 . S
C1576 C1577 1.373 . S
C1576 C1578 1.389 . S
C1577 H1556 0.950 . S
C1577 C1576 1.373 . S
C1577 C1593 1.377 . S
C1578 C1576 1.389 . S
C1578 C1579 1.524 . S
C1578 C1592 1.377 . S
C1579 C1578 1.524 . S
C1579 C1580 1.397 1_545 S
C1579 C1584 1.363 1_655 S
C1580 H1557 0.950 . S
C1580 C1579 1.397 1_565 S
C1580 C1581 1.334 . S
C1581 H1558 0.950 . S
C1581 C1580 1.334 . S
C1581 C1582 1.289 1_655 S
C1582 C1581 1.289 1_455 S
C1582 C1583 1.523 1_565 S
C1582 H1601 0.912 . S
C1583 H1559 0.950 . S
C1583 C1582 1.523 1_545 S
C1583 C1584 1.415 . S
C1584 H1560 0.950 . S
C1584 C1579 1.363 1_455 S
C1584 C1583 1.415 . S
C1585 H1561 0.951 . S
C1585 C1586 1.366 1_665 S
C1585 C1587 1.388 . S
C1586 C1585 1.366 1_445 S
C1586 C1590 1.385 . S
C1587 H1562 0.951 . S
C1587 C1585 1.388 . S
C1587 C1588 1.366 1_565 S
C1588 C1587 1.366 1_545 S
C1588 C1589 1.414 1_655 S
C1588 C1591 1.499 . S
C1589 H1563 0.950 . S
C1589 C1588 1.414 1_455 S
C1589 C1590 1.374 . S
C1590 H1564 0.950 . S
C1590 C1586 1.385 . S
C1590 C1589 1.374 . S
C1591 C1588 1.499 . S
C1591 C1592 1.373 . S
C1591 C1593 1.389 . S
C1592 H1565 1.015 . S
C1592 C1578 1.377 . S
C1592 C1591 1.373 . S
C1593 C1577 1.377 . S
C1593 C1591 1.389 . S
C1593 C1594 1.524 . S
C1594 C1593 1.524 . S
C1594 C1595 1.397 . S
C1594 C1599 1.363 . S
C1595 H1566 0.950 . S
C1595 C1594 1.397 . S
C1595 C1596 1.334 . S
C1596 H1567 0.950 . S
C1596 C1595 1.334 . S
C1596 C1597 1.287 . S
C1597 C1596 1.287 . S
C1597 C1598 1.524 . S
C1597 H1600 0.999 . S
C1598 H1568 0.950 1_545 S
C1598 C1597 1.524 . S
C1598 C1599 1.415 . S
C1599 H1569 0.950 1_545 S
C1599 C1594 1.363 . S
C1599 C1598 1.415 . S
H1600 C1597 0.999 . S
H1601 C1582 0.912 . S
H1602 C1620 0.951 . S
H1603 C1622 0.951 . S
H1604 C1624 0.950 . S
H1605 C1625 0.950 . S
H1606 C1627 0.950 . S
H1607 C1630 0.950 . S
H1608 C1631 0.950 . S
H1609 C1633 0.950 . S
H1610 C1634 0.950 . S
H1611 C1635 0.951 . S
H1612 C1637 0.951 . S
H1613 C1639 0.950 . S
H1614 C1640 0.950 . S
H1615 C1642 0.950 . S
H1616 C1645 0.950 . S
H1617 C1646 0.950 . S
H1618 C1648 0.950 . S
H1619 C1649 0.950 . S
C1620 H1602 0.951 . S
C1620 C1621 1.366 . S
C1620 C1622 1.388 . S
C1621 C1620 1.366 . S
C1621 C1625 1.385 . S
C1622 H1603 0.951 . S
C1622 C1620 1.388 . S
C1622 C1623 1.366 . S
C1623 C1622 1.366 . S
C1623 C1624 1.414 . S
C1623 C1626 1.499 . S
C1624 H1604 0.950 . S
C1624 C1623 1.414 . S
C1624 C1625 1.374 . S
C1625 H1605 0.950 . S
C1625 C1621 1.385 . S
C1625 C1624 1.374 . S
C1626 C1623 1.499 . S
C1626 C1627 1.373 . S
C1626 C1628 1.389 . S
C1627 H1606 0.950 . S
C1627 C1626 1.373 . S
C1627 C1643 1.377 . S
C1628 C1626 1.389 . S
C1628 C1629 1.524 . S
C1628 C1642 1.377 . S
C1629 C1628 1.524 . S
C1629 C1630 1.397 . S
C1629 C1634 1.363 . S
C1630 H1607 0.950 . S
C1630 C1629 1.397 . S
C1630 C1631 1.334 . S
C1631 H1608 0.950 . S
C1631 C1630 1.334 . S
C1631 C1632 1.287 . S
C1632 C1631 1.287 . S
C1632 C1633 1.524 . S
C1632 H1651 0.913 . S
C1633 H1609 0.950 . S
C1633 C1632 1.524 . S
C1633 C1634 1.415 . S
C1634 H1610 0.950 . S
C1634 C1629 1.363 . S
C1634 C1633 1.415 . S
C1635 H1611 0.951 . S
C1635 C1636 1.366 . S
C1635 C1637 1.388 . S
C1636 C1635 1.366 . S
C1636 C1640 1.385 . S
C1637 H1612 0.951 . S
C1637 C1635 1.388 . S
C1637 C1638 1.366 . S
C1638 C1637 1.366 . S
C1638 C1639 1.414 . S
C1638 C1641 1.499 . S
C1639 H1613 0.950 . S
C1639 C1638 1.414 . S
C1639 C1640 1.374 . S
C1640 H1614 0.950 . S
C1640 C1636 1.385 . S
C1640 C1639 1.374 . S
C1641 C1638 1.499 . S
C1641 C1642 1.373 . S
C1641 C1643 1.389 . S
C1642 H1615 0.950 . S
C1642 C1628 1.377 . S
C1642 C1641 1.373 . S
C1643 C1627 1.377 . S
C1643 C1641 1.389 . S
C1643 C1644 1.524 . S
C1644 C1643 1.524 . S
C1644 C1645 1.397 . S
C1644 C1649 1.363 . S
C1645 H1616 0.950 . S
C1645 C1644 1.397 . S
C1645 C1646 1.334 . S
C1646 H1617 0.950 . S
C1646 C1645 1.334 . S
C1646 C1647 1.287 . S
C1647 C1646 1.287 . S
C1647 C1648 1.524 . S
C1647 H1650 0.999 . S
C1648 H1618 0.950 . S
C1648 C1647 1.524 . S
C1648 C1649 1.415 . S
C1649 H1619 0.950 . S
C1649 C1644 1.363 . S
C1649 C1648 1.415 . S
H1650 C1647 0.999 . S
H1651 C1632 0.913 . S
H1652 C1670 0.951 . S
H1653 C1672 0.951 . S
H1654 C1674 0.950 . S
H1655 C1675 0.950 . S
H1656 C1677 0.950 . S
H1657 C1680 0.950 . S
H1658 C1681 0.950 . S
H1659 C1683 0.950 . S
H1660 C1684 0.950 . S
H1661 C1685 0.951 . S
H1662 C1687 0.951 . S
H1663 C1689 0.950 . S
H1664 C1690 0.950 . S
H1665 C1692 0.950 . S
H1666 C1695 0.950 . S
H1667 C1696 0.950 . S
H1668 C1698 0.950 . S
H1669 C1699 0.950 . S
C1670 H1652 0.951 . S
C1670 C1671 1.366 . S
C1670 C1672 1.388 . S
C1671 C1670 1.366 . S
C1671 C1675 1.385 . S
C1672 H1653 0.951 . S
C1672 C1670 1.388 . S
C1672 C1673 1.366 . S
C1673 C1672 1.366 . S
C1673 C1674 1.414 . S
C1673 C1676 1.499 . S
C1674 H1654 0.950 . S
C1674 C1673 1.414 . S
C1674 C1675 1.374 . S
C1675 H1655 0.950 . S
C1675 C1671 1.385 . S
C1675 C1674 1.374 . S
C1676 C1673 1.499 . S
C1676 C1677 1.373 . S
C1676 C1678 1.389 . S
C1677 H1656 0.950 . S
C1677 C1676 1.373 . S
C1677 C1693 1.377 . S
C1678 C1676 1.389 . S
C1678 C1679 1.524 . S
C1678 C1692 1.377 . S
C1679 C1678 1.524 . S
C1679 C1680 1.397 . S
C1679 C1684 1.363 . S
C1680 H1657 0.950 . S
C1680 C1679 1.397 . S
C1680 C1681 1.334 . S
C1681 H1658 0.950 . S
C1681 C1680 1.334 . S
C1681 C1682 1.287 . S
C1682 C1681 1.287 . S
C1682 C1683 1.524 . S
C1682 H1701 0.913 . S
C1683 H1659 0.950 . S
C1683 C1682 1.524 . S
C1683 C1684 1.415 . S
C1684 H1660 0.950 . S
C1684 C1679 1.363 . S
C1684 C1683 1.415 . S
C1685 H1661 0.951 . S
C1685 C1686 1.366 . S
C1685 C1687 1.388 . S
C1686 C1685 1.366 . S
C1686 C1690 1.385 . S
C1687 H1662 0.951 . S
C1687 C1685 1.388 . S
C1687 C1688 1.366 . S
C1688 C1687 1.366 . S
C1688 C1689 1.414 . S
C1688 C1691 1.499 . S
C1689 H1663 0.950 . S
C1689 C1688 1.414 . S
C1689 C1690 1.374 . S
C1690 H1664 0.950 . S
C1690 C1686 1.385 . S
C1690 C1689 1.374 . S
C1691 C1688 1.499 . S
C1691 C1692 1.373 . S
C1691 C1693 1.389 . S
C1692 H1665 0.950 . S
C1692 C1678 1.377 . S
C1692 C1691 1.373 . S
C1693 C1677 1.377 . S
C1693 C1691 1.389 . S
C1693 C1694 1.524 . S
C1694 C1693 1.524 . S
C1694 C1695 1.397 . S
C1694 C1699 1.363 1_545 S
C1695 H1666 0.950 . S
C1695 C1694 1.397 . S
C1695 C1696 1.334 1_545 S
C1696 H1667 0.950 . S
C1696 C1695 1.334 1_565 S
C1696 C1697 1.287 . S
C1697 C1696 1.287 . S
C1697 C1698 1.524 . S
C1697 H1700 0.999 . S
C1698 H1668 0.950 . S
C1698 C1697 1.524 . S
C1698 C1699 1.415 . S
C1699 H1669 0.950 . S
C1699 C1694 1.363 1_565 S
C1699 C1698 1.415 . S
H1700 C1697 0.999 . S
H1701 C1682 0.913 . S
H1702 C1720 0.951 . S
H1703 C1722 0.951 . S
H1704 C1724 0.950 . S
H1705 C1725 0.950 . S
H1706 C1727 0.950 . S
H1707 C1730 0.950 . S
H1708 C1731 0.950 . S
H1709 C1733 0.950 . S
H1710 C1734 0.950 . S
H1711 C1735 0.951 . S
H1712 C1737 0.951 . S
H1713 C1739 0.950 . S
H1714 C1740 0.950 . S
H1715 C1742 0.950 . S
H1716 C1745 0.950 . S
H1717 C1746 0.950 . S
H1718 C1748 0.950 . S
H1719 C1749 0.950 . S
C1720 H1702 0.951 . S
C1720 C1721 1.366 . S
C1720 C1722 1.388 . S
C1721 C1720 1.366 . S
C1721 C1725 1.385 . S
C1722 H1703 0.951 . S
C1722 C1720 1.388 . S
C1722 C1723 1.366 . S
C1723 C1722 1.366 . S
C1723 C1724 1.414 . S
C1723 C1726 1.499 . S
C1724 H1704 0.950 . S
C1724 C1723 1.414 . S
C1724 C1725 1.374 . S
C1725 H1705 0.950 . S
C1725 C1721 1.385 . S
C1725 C1724 1.374 . S
C1726 C1723 1.499 . S
C1726 C1727 1.373 . S
C1726 C1728 1.389 . S
C1727 H1706 0.950 . S
C1727 C1726 1.373 . S
C1727 C1743 1.377 . S
C1728 C1726 1.389 . S
C1728 C1729 1.524 . S
C1728 C1742 1.377 . S
C1729 C1728 1.524 . S
C1729 C1730 1.397 . S
C1729 C1734 1.363 . S
C1730 H1707 0.950 . S
C1730 C1729 1.397 . S
C1730 C1731 1.334 . S
C1731 H1708 0.950 . S
C1731 C1730 1.334 . S
C1731 C1732 1.287 . S
C1732 C1731 1.287 . S
C1732 C1733 1.524 . S
C1732 H1751 0.913 . S
C1733 H1709 0.950 . S
C1733 C1732 1.524 . S
C1733 C1734 1.415 . S
C1734 H1710 0.950 . S
C1734 C1729 1.363 . S
C1734 C1733 1.415 . S
C1735 H1711 0.951 . S
C1735 C1736 1.366 . S
C1735 C1737 1.388 . S
C1736 C1735 1.366 . S
C1736 C1740 1.385 . S
C1737 H1712 0.951 . S
C1737 C1735 1.388 . S
C1737 C1738 1.366 . S
C1738 C1737 1.366 . S
C1738 C1739 1.414 . S
C1738 C1741 1.499 . S
C1739 H1713 0.950 . S
C1739 C1738 1.414 . S
C1739 C1740 1.374 . S
C1740 H1714 0.950 . S
C1740 C1736 1.385 . S
C1740 C1739 1.374 . S
C1741 C1738 1.499 . S
C1741 C1742 1.373 . S
C1741 C1743 1.389 . S
C1742 H1715 0.950 . S
C1742 C1728 1.377 . S
C1742 C1741 1.373 . S
C1743 C1727 1.377 . S
C1743 C1741 1.389 . S
C1743 C1744 1.524 . S
C1744 C1743 1.524 . S
C1744 C1745 1.397 . S
C1744 C1749 1.363 . S
C1745 H1716 0.950 . S
C1745 C1744 1.397 . S
C1745 C1746 1.334 . S
C1746 H1717 0.950 . S
C1746 C1745 1.334 . S
C1746 C1747 1.287 . S
C1747 C1746 1.287 . S
C1747 C1748 1.524 . S
C1747 H1750 0.999 . S
C1748 H1718 0.950 . S
C1748 C1747 1.524 . S
C1748 C1749 1.415 . S
C1749 H1719 0.950 . S
C1749 C1744 1.363 . S
C1749 C1748 1.415 . S
H1750 C1747 0.999 . S
H1751 C1732 0.913 . S
H1752 C1770 0.951 . S
H1753 C1772 0.951 . S
H1754 C1774 0.950 . S
H1755 C1775 0.950 . S
H1756 C1777 0.950 . S
H1757 C1780 0.950 . S
H1758 C1781 0.950 . S
H1759 C1783 0.950 . S
H1760 C1784 0.950 . S
H1761 C1785 0.951 1_565 S
H1762 C1787 0.951 . S
H1763 C1789 0.950 . S
H1764 C1790 0.950 . S
H1765 C1792 0.952 . S
H1766 C1795 0.950 . S
H1767 C1796 0.950 1_556 S
H1768 C1798 0.950 . S
H1769 C1799 0.950 . S
C1770 H1752 0.951 . S
C1770 C1771 1.366 . S
C1770 C1772 1.388 . S
C1771 C1770 1.366 . S
C1771 C1775 1.385 . S
C1772 H1753 0.951 . S
C1772 C1770 1.388 . S
C1772 C1773 1.366 . S
C1773 C1772 1.366 . S
C1773 C1774 1.414 . S
C1773 C1776 1.499 . S
C1774 H1754 0.950 . S
C1774 C1773 1.414 . S
C1774 C1775 1.374 . S
C1775 H1755 0.950 . S
C1775 C1771 1.385 . S
C1775 C1774 1.374 . S
C1776 C1773 1.499 . S
C1776 C1777 1.373 . S
C1776 C1778 1.389 . S
C1777 H1756 0.950 . S
C1777 C1776 1.373 . S
C1777 C1793 1.377 . S
C1778 C1776 1.389 . S
C1778 C1779 1.524 . S
C1778 C1792 1.375 1_565 S
C1779 C1778 1.524 . S
C1779 C1780 1.397 . S
C1779 C1784 1.363 1_565 S
C1780 H1757 0.950 . S
C1780 C1779 1.397 . S
C1780 C1781 1.334 . S
C1781 H1758 0.950 . S
C1781 C1780 1.334 . S
C1781 C1782 1.287 1_565 S
C1782 C1781 1.287 1_545 S
C1782 C1783 1.524 . S
C1782 H1801 0.913 . S
C1783 H1759 0.950 . S
C1783 C1782 1.524 . S
C1783 C1784 1.415 . S
C1784 H1760 0.950 . S
C1784 C1779 1.363 1_545 S
C1784 C1783 1.415 . S
C1785 H1761 0.951 1_545 S
C1785 C1786 1.366 . S
C1785 C1787 1.388 1_545 S
C1786 C1785 1.366 . S
C1786 C1790 1.385 . S
C1787 H1762 0.951 . S
C1787 C1785 1.388 1_565 S
C1787 C1788 1.366 1_565 S
C1788 C1787 1.366 1_545 S
C1788 C1789 1.414 . S
C1788 C1791 1.499 1_545 S
C1789 H1763 0.950 . S
C1789 C1788 1.414 . S
C1789 C1790 1.374 . S
C1790 H1764 0.950 . S
C1790 C1786 1.385 . S
C1790 C1789 1.374 . S
C1791 C1788 1.499 1_565 S
C1791 C1792 1.373 1_565 S
C1791 C1793 1.389 . S
C1792 H1765 0.952 . S
C1792 C1778 1.375 1_545 S
C1792 C1791 1.373 1_545 S
C1793 C1777 1.377 . S
C1793 C1791 1.389 . S
C1793 C1794 1.524 . S
C1794 C1793 1.524 . S
C1794 C1795 1.397 . S
C1794 C1799 1.363 . S
C1795 H1766 0.950 . S
C1795 C1794 1.397 . S
C1795 C1796 1.334 . S
C1796 H1767 0.950 1_554 S
C1796 C1795 1.334 . S
C1796 C1797 1.287 . S
C1797 C1796 1.287 . S
C1797 C1798 1.524 . S
C1797 H1800 0.999 1_554 S
C1798 H1768 0.950 . S
C1798 C1797 1.524 . S
C1798 C1799 1.415 . S
C1799 H1769 0.950 . S
C1799 C1794 1.363 . S
C1799 C1798 1.415 . S
H1800 C1797 0.999 1_556 S
H1801 C1782 0.913 . S
H1802 C1820 0.951 . S
H1803 C1822 0.951 . S
H1804 C1824 0.950 . S
H1805 C1825 0.950 . S
H1806 C1827 0.950 . S
H1807 C1830 0.950 . S
H1808 C1831 0.950 . S
H1809 C1833 0.950 . S
H1810 C1834 0.950 . S
H1811 C1835 0.951 . S
H1812 C1837 0.951 . S
H1813 C1839 0.950 . S
H1814 C1840 0.950 . S
H1815 C1842 0.950 1_556 S
H1816 C1845 0.950 . S
H1817 C1846 0.950 . S
H1818 C1848 0.950 . S
H1819 C1849 0.950 . S
C1820 H1802 0.951 . S
C1820 C1821 1.366 . S
C1820 C1822 1.388 . S
C1821 C1820 1.366 . S
C1821 C1825 1.385 . S
C1822 H1803 0.951 . S
C1822 C1820 1.388 . S
C1822 C1823 1.366 . S
C1823 C1822 1.366 . S
C1823 C1824 1.414 . S
C1823 C1826 1.499 . S
C1824 H1804 0.950 . S
C1824 C1823 1.414 . S
C1824 C1825 1.374 . S
C1825 H1805 0.950 . S
C1825 C1821 1.385 . S
C1825 C1824 1.374 . S
C1826 C1823 1.499 . S
C1826 C1827 1.373 . S
C1826 C1828 1.389 . S
C1827 H1806 0.950 . S
C1827 C1826 1.373 . S
C1827 C1843 1.377 . S
C1828 C1826 1.389 . S
C1828 C1829 1.524 1_554 S
C1828 C1842 1.377 . S
C1829 C1828 1.524 1_556 S
C1829 C1830 1.397 . S
C1829 C1834 1.363 . S
C1830 H1807 0.950 . S
C1830 C1829 1.397 . S
C1830 C1831 1.334 . S
C1831 H1808 0.950 . S
C1831 C1830 1.334 . S
C1831 C1832 1.287 . S
C1832 C1831 1.287 . S
C1832 C1833 1.524 . S
C1832 H1851 0.913 . S
C1833 H1809 0.950 . S
C1833 C1832 1.524 . S
C1833 C1834 1.415 . S
C1834 H1810 0.950 . S
C1834 C1829 1.363 . S
C1834 C1833 1.415 . S
C1835 H1811 0.951 . S
C1835 C1836 1.366 . S
C1835 C1837 1.388 . S
C1836 C1835 1.366 . S
C1836 C1840 1.385 . S
C1837 H1812 0.951 . S
C1837 C1835 1.388 . S
C1837 C1838 1.366 . S
C1838 C1837 1.366 . S
C1838 C1839 1.414 . S
C1838 C1841 1.499 . S
C1839 H1813 0.950 . S
C1839 C1838 1.414 . S
C1839 C1840 1.374 . S
C1840 H1814 0.950 . S
C1840 C1836 1.385 . S
C1840 C1839 1.374 . S
C1841 C1838 1.499 . S
C1841 C1842 1.373 . S
C1841 C1843 1.389 . S
C1842 H1815 0.950 1_554 S
C1842 C1828 1.377 . S
C1842 C1841 1.373 . S
C1843 C1827 1.377 . S
C1843 C1841 1.389 . S
C1843 C1844 1.524 . S
C1844 C1843 1.524 . S
C1844 C1845 1.397 . S
C1844 C1849 1.363 . S
C1845 H1816 0.950 . S
C1845 C1844 1.397 . S
C1845 C1846 1.334 . S
C1846 H1817 0.950 . S
C1846 C1845 1.334 . S
C1846 C1847 1.287 . S
C1847 C1846 1.287 . S
C1847 C1848 1.524 . S
C1847 H1850 0.999 . S
C1848 H1818 0.950 . S
C1848 C1847 1.524 . S
C1848 C1849 1.415 . S
C1849 H1819 0.950 . S
C1849 C1844 1.363 . S
C1849 C1848 1.415 . S
H1850 C1847 0.999 . S
H1851 C1832 0.913 . S
H1852 C1870 0.951 . S
H1853 C1872 0.951 . S
H1854 C1874 0.950 . S
H1855 C1875 0.950 . S
H1856 C1877 0.950 . S
H1857 C1880 0.950 . S
H1858 C1881 0.950 . S
H1859 C1883 0.950 . S
H1860 C1884 0.950 . S
H1861 C1885 0.951 . S
H1862 C1887 0.951 . S
H1863 C1889 0.950 . S
H1864 C1890 0.950 . S
H1865 C1892 0.950 . S
H1866 C1895 0.950 . S
H1867 C1896 0.950 . S
H1868 C1898 0.950 . S
H1869 C1899 0.950 . S
C1870 H1852 0.951 . S
C1870 C1871 1.366 . S
C1870 C1872 1.388 . S
C1871 C1870 1.366 . S
C1871 C1875 1.385 . S
C1872 H1853 0.951 . S
C1872 C1870 1.388 . S
C1872 C1873 1.366 . S
C1873 C1872 1.366 . S
C1873 C1874 1.414 . S
C1873 C1876 1.499 . S
C1874 H1854 0.950 . S
C1874 C1873 1.414 . S
C1874 C1875 1.374 . S
C1875 H1855 0.950 . S
C1875 C1871 1.385 . S
C1875 C1874 1.374 . S
C1876 C1873 1.499 . S
C1876 C1877 1.373 . S
C1876 C1878 1.389 . S
C1877 H1856 0.950 . S
C1877 C1876 1.373 . S
C1877 C1893 1.377 . S
C1878 C1876 1.389 . S
C1878 C1879 1.524 . S
C1878 C1892 1.377 . S
C1879 C1878 1.524 . S
C1879 C1880 1.397 . S
C1879 C1884 1.363 . S
C1880 H1857 0.950 . S
C1880 C1879 1.397 . S
C1880 C1881 1.334 . S
C1881 H1858 0.950 . S
C1881 C1880 1.334 . S
C1881 C1882 1.287 . S
C1882 C1881 1.287 . S
C1882 C1883 1.524 . S
C1882 H1901 0.913 . S
C1883 H1859 0.950 . S
C1883 C1882 1.524 . S
C1883 C1884 1.415 . S
C1884 H1860 0.950 . S
C1884 C1879 1.363 . S
C1884 C1883 1.415 . S
C1885 H1861 0.951 . S
C1885 C1886 1.366 . S
C1885 C1887 1.388 . S
C1886 C1885 1.366 . S
C1886 C1890 1.385 . S
C1887 H1862 0.951 . S
C1887 C1885 1.388 . S
C1887 C1888 1.366 . S
C1888 C1887 1.366 . S
C1888 C1889 1.414 . S
C1888 C1891 1.499 . S
C1889 H1863 0.950 . S
C1889 C1888 1.414 . S
C1889 C1890 1.374 . S
C1890 H1864 0.950 . S
C1890 C1886 1.385 . S
C1890 C1889 1.374 . S
C1891 C1888 1.499 . S
C1891 C1892 1.373 . S
C1891 C1893 1.389 . S
C1892 H1865 0.950 . S
C1892 C1878 1.377 . S
C1892 C1891 1.373 . S
C1893 C1877 1.377 . S
C1893 C1891 1.389 . S
C1893 C1894 1.524 . S
C1894 C1893 1.524 . S
C1894 C1895 1.397 . S
C1894 C1899 1.363 . S
C1895 H1866 0.950 . S
C1895 C1894 1.397 . S
C1895 C1896 1.334 . S
C1896 H1867 0.950 . S
C1896 C1895 1.334 . S
C1896 C1897 1.287 . S
C1897 C1896 1.287 . S
C1897 C1898 1.524 . S
C1897 H1900 0.999 . S
C1898 H1868 0.950 . S
C1898 C1897 1.524 . S
C1898 C1899 1.415 . S
C1899 H1869 0.950 . S
C1899 C1894 1.363 . S
C1899 C1898 1.415 . S
H1900 C1897 0.999 . S
H1901 C1882 0.913 . S
H1902 C1920 0.951 . S
H1903 C1922 0.951 . S
H1904 C1924 0.950 . S
H1905 C1925 0.950 . S
H1906 C1927 0.950 . S
H1907 C1930 0.950 . S
H1908 C1931 0.950 . S
H1909 C1933 0.950 . S
H1910 C1934 0.950 . S
H1911 C1935 0.951 . S
H1912 C1937 0.951 . S
H1913 C1939 0.950 . S
H1914 C1940 0.950 . S
H1915 C1942 0.950 . S
H1916 C1945 0.950 . S
H1917 C1946 0.950 . S
H1918 C1948 0.950 . S
H1919 C1949 0.950 . S
C1920 H1902 0.951 . S
C1920 C1921 1.366 . S
C1920 C1922 1.388 . S
C1921 C1920 1.366 . S
C1921 C1925 1.385 . S
C1922 H1903 0.951 . S
C1922 C1920 1.388 . S
C1922 C1923 1.366 . S
C1923 C1922 1.366 . S
C1923 C1924 1.414 . S
C1923 C1926 1.499 . S
C1924 H1904 0.950 . S
C1924 C1923 1.414 . S
C1924 C1925 1.374 . S
C1925 H1905 0.950 . S
C1925 C1921 1.385 . S
C1925 C1924 1.374 . S
C1926 C1923 1.499 . S
C1926 C1927 1.373 . S
C1926 C1928 1.389 . S
C1927 H1906 0.950 . S
C1927 C1926 1.373 . S
C1927 C1943 1.377 . S
C1928 C1926 1.389 . S
C1928 C1929 1.524 . S
C1928 C1942 1.377 . S
C1929 C1928 1.524 . S
C1929 C1930 1.397 . S
C1929 C1934 1.363 . S
C1930 H1907 0.950 . S
C1930 C1929 1.397 . S
C1930 C1931 1.334 . S
C1931 H1908 0.950 . S
C1931 C1930 1.334 . S
C1931 C1932 1.287 . S
C1932 C1931 1.287 . S
C1932 C1933 1.524 . S
C1932 H1951 0.913 . S
C1933 H1909 0.950 . S
C1933 C1932 1.524 . S
C1933 C1934 1.415 . S
C1934 H1910 0.950 . S
C1934 C1929 1.363 . S
C1934 C1933 1.415 . S
C1935 H1911 0.951 . S
C1935 C1936 1.366 . S
C1935 C1937 1.388 . S
C1936 C1935 1.366 . S
C1936 C1940 1.385 . S
C1937 H1912 0.951 . S
C1937 C1935 1.388 . S
C1937 C1938 1.366 . S
C1938 C1937 1.366 . S
C1938 C1939 1.414 . S
C1938 C1941 1.499 . S
C1939 H1913 0.950 . S
C1939 C1938 1.414 . S
C1939 C1940 1.374 . S
C1940 H1914 0.950 . S
C1940 C1936 1.385 . S
C1940 C1939 1.374 . S
C1941 C1938 1.499 . S
C1941 C1942 1.373 . S
C1941 C1943 1.389 . S
C1942 H1915 0.950 . S
C1942 C1928 1.377 . S
C1942 C1941 1.373 . S
C1943 C1927 1.377 . S
C1943 C1941 1.389 . S
C1943 C1944 1.524 . S
C1944 C1943 1.524 . S
C1944 C1945 1.397 . S
C1944 C1949 1.363 . S
C1945 H1916 0.950 . S
C1945 C1944 1.397 . S
C1945 C1946 1.334 . S
C1946 H1917 0.950 . S
C1946 C1945 1.334 . S
C1946 C1947 1.287 . S
C1947 C1946 1.287 . S
C1947 C1948 1.524 . S
C1947 H1950 0.999 . S
C1948 H1918 0.950 . S
C1948 C1947 1.524 . S
C1948 C1949 1.415 . S
C1949 H1919 0.950 . S
C1949 C1944 1.363 . S
C1949 C1948 1.415 . S
H1950 C1947 0.999 . S
H1951 C1932 0.913 . S
H1952 C1970 0.951 . S
H1953 C1972 0.951 . S
H1954 C1974 0.950 . S
H1955 C1975 0.950 . S
H1956 C1977 0.950 . S
H1957 C1980 0.950 . S
H1958 C1981 0.950 . S
H1959 C1983 0.950 . S
H1960 C1984 0.950 . S
H1961 C1985 0.951 . S
H1962 C1987 0.951 . S
H1963 C1989 0.950 . S
H1964 C1990 0.950 . S
H1965 C1992 0.950 . S
H1966 C1995 0.950 . S
H1967 C1996 0.950 . S
H1968 C1998 0.950 . S
H1969 C1999 0.950 . S
C1970 H1952 0.951 . S
C1970 C1971 1.366 . S
C1970 C1972 1.388 . S
C1971 C1970 1.366 . S
C1971 C1975 1.385 . S
C1972 H1953 0.951 . S
C1972 C1970 1.388 . S
C1972 C1973 1.366 . S
C1973 C1972 1.366 . S
C1973 C1974 1.414 . S
C1973 C1976 1.499 . S
C1974 H1954 0.950 . S
C1974 C1973 1.414 . S
C1974 C1975 1.374 . S
C1975 H1955 0.950 . S
C1975 C1971 1.385 . S
C1975 C1974 1.374 . S
C1976 C1973 1.499 . S
C1976 C1977 1.373 . S
C1976 C1978 1.389 . S
C1977 H1956 0.950 . S
C1977 C1976 1.373 . S
C1977 C1993 1.377 . S
C1978 C1976 1.389 . S
C1978 C1979 1.524 . S
C1978 C1992 1.377 . S
C1979 C1978 1.524 . S
C1979 C1980 1.397 . S
C1979 C1984 1.363 . S
C1980 H1957 0.950 . S
C1980 C1979 1.397 . S
C1980 C1981 1.334 . S
C1981 H1958 0.950 . S
C1981 C1980 1.334 . S
C1981 C1982 1.287 . S
C1982 C1981 1.287 . S
C1982 C1983 1.524 . S
C1982 H2001 0.913 . S
C1983 H1959 0.950 . S
C1983 C1982 1.524 . S
C1983 C1984 1.415 . S
C1984 H1960 0.950 . S
C1984 C1979 1.363 . S
C1984 C1983 1.415 . S
C1985 H1961 0.951 . S
C1985 C1986 1.366 . S
C1985 C1987 1.388 . S
C1986 C1985 1.366 . S
C1986 C1990 1.385 . S
C1987 H1962 0.951 . S
C1987 C1985 1.388 . S
C1987 C1988 1.366 . S
C1988 C1987 1.366 . S
C1988 C1989 1.414 . S
C1988 C1991 1.499 . S
C1989 H1963 0.950 . S
C1989 C1988 1.414 . S
C1989 C1990 1.374 . S
C1990 H1964 0.950 . S
C1990 C1986 1.385 . S
C1990 C1989 1.374 . S
C1991 C1988 1.499 . S
C1991 C1992 1.373 . S
C1991 C1993 1.389 . S
C1992 H1965 0.950 . S
C1992 C1978 1.377 . S
C1992 C1991 1.373 . S
C1993 C1977 1.377 . S
C1993 C1991 1.389 . S
C1993 C1994 1.524 . S
C1994 C1993 1.524 . S
C1994 C1995 1.397 . S
C1994 C1999 1.363 . S
C1995 H1966 0.950 . S
C1995 C1994 1.397 . S
C1995 C1996 1.334 . S
C1996 H1967 0.950 . S
C1996 C1995 1.334 . S
C1996 C1997 1.287 . S
C1997 C1996 1.287 . S
C1997 C1998 1.524 . S
C1997 H2000 0.999 . S
C1998 H1968 0.950 . S
C1998 C1997 1.524 . S
C1998 C1999 1.415 . S
C1999 H1969 0.950 . S
C1999 C1994 1.363 . S
C1999 C1998 1.415 . S
H2000 C1997 0.999 . S
H2001 C1982 0.913 . S
H2002 C2020 0.951 . S
H2003 C2022 0.951 . S
H2004 C2024 0.950 . S
H2005 C2025 0.950 . S
H2006 C2027 0.950 . S
H2007 C2030 0.950 . S
H2008 C2031 0.950 . S
H2009 C2033 0.950 . S
H2010 C2034 0.950 . S
H2011 C2035 0.951 . S
H2012 C2037 0.951 . S
H2013 C2039 0.950 . S
H2014 C2040 0.950 . S
H2015 C2042 0.950 . S
H2016 C2045 0.950 . S
H2017 C2046 0.950 . S
H2018 C2048 0.950 . S
H2019 C2049 0.950 . S
C2020 H2002 0.951 . S
C2020 C2021 1.366 . S
C2020 C2022 1.388 . S
C2021 C2020 1.366 . S
C2021 C2025 1.385 . S
C2022 H2003 0.951 . S
C2022 C2020 1.388 . S
C2022 C2023 1.366 . S
C2023 C2022 1.366 . S
C2023 C2024 1.414 . S
C2023 C2026 1.499 . S
C2024 H2004 0.950 . S
C2024 C2023 1.414 . S
C2024 C2025 1.374 . S
C2025 H2005 0.950 . S
C2025 C2021 1.385 . S
C2025 C2024 1.374 . S
C2026 C2023 1.499 . S
C2026 C2027 1.373 . S
C2026 C2028 1.389 . S
C2027 H2006 0.950 . S
C2027 C2026 1.373 . S
C2027 C2043 1.377 . S
C2028 C2026 1.389 . S
C2028 C2029 1.524 . S
C2028 C2042 1.377 . S
C2029 C2028 1.524 . S
C2029 C2030 1.397 . S
C2029 C2034 1.363 . S
C2030 H2007 0.950 . S
C2030 C2029 1.397 . S
C2030 C2031 1.334 . S
C2031 H2008 0.950 . S
C2031 C2030 1.334 . S
C2031 C2032 1.287 . S
C2032 C2031 1.287 . S
C2032 C2033 1.524 . S
C2032 H2051 0.913 . S
C2033 H2009 0.950 . S
C2033 C2032 1.524 . S
C2033 C2034 1.415 . S
C2034 H2010 0.950 . S
C2034 C2029 1.363 . S
C2034 C2033 1.415 . S
C2035 H2011 0.951 . S
C2035 C2036 1.366 . S
C2035 C2037 1.388 . S
C2036 C2035 1.366 . S
C2036 C2040 1.385 . S
C2037 H2012 0.951 . S
C2037 C2035 1.388 . S
C2037 C2038 1.366 . S
C2038 C2037 1.366 . S
C2038 C2039 1.414 . S
C2038 C2041 1.499 . S
C2039 H2013 0.950 . S
C2039 C2038 1.414 . S
C2039 C2040 1.374 . S
C2040 H2014 0.950 . S
C2040 C2036 1.385 . S
C2040 C2039 1.374 . S
C2041 C2038 1.499 . S
C2041 C2042 1.373 . S
C2041 C2043 1.389 . S
C2042 H2015 0.950 . S
C2042 C2028 1.377 . S
C2042 C2041 1.373 . S
C2043 C2027 1.377 . S
C2043 C2041 1.389 . S
C2043 C2044 1.524 . S
C2044 C2043 1.524 . S
C2044 C2045 1.397 . S
C2044 C2049 1.363 . S
C2045 H2016 0.950 . S
C2045 C2044 1.397 . S
C2045 C2046 1.334 . S
C2046 H2017 0.950 . S
C2046 C2045 1.334 . S
C2046 C2047 1.287 . S
C2047 C2046 1.287 . S
C2047 C2048 1.524 . S
C2047 H2050 0.999 . S
C2048 H2018 0.950 . S
C2048 C2047 1.524 . S
C2048 C2049 1.415 . S
C2049 H2019 0.950 . S
C2049 C2044 1.363 . S
C2049 C2048 1.415 . S
H2050 C2047 0.999 . S
H2051 C2032 0.913 . S
H2052 C2070 0.951 . S
H2053 C2072 0.951 . S
H2054 C2074 0.950 . S
H2055 C2075 0.950 . S
H2056 C2077 0.950 . S
H2057 C2080 0.950 . S
H2058 C2081 0.950 . S
H2059 C2083 0.950 . S
H2060 C2084 0.950 . S
H2061 C2085 0.951 . S
H2062 C2087 0.951 . S
H2063 C2089 0.950 . S
H2064 C2090 0.950 . S
H2065 C2092 0.950 . S
H2066 C2095 0.950 . S
H2067 C2096 0.950 . S
H2068 C2098 0.950 . S
H2069 C2099 0.950 . S
C2070 H2052 0.951 . S
C2070 C2071 1.366 . S
C2070 C2072 1.388 . S
C2071 C2070 1.366 . S
C2071 C2075 1.385 . S
C2072 H2053 0.951 . S
C2072 C2070 1.388 . S
C2072 C2073 1.366 . S
C2073 C2072 1.366 . S
C2073 C2074 1.414 . S
C2073 C2076 1.499 . S
C2074 H2054 0.950 . S
C2074 C2073 1.414 . S
C2074 C2075 1.374 . S
C2075 H2055 0.950 . S
C2075 C2071 1.385 . S
C2075 C2074 1.374 . S
C2076 C2073 1.499 . S
C2076 C2077 1.373 . S
C2076 C2078 1.389 . S
C2077 H2056 0.950 . S
C2077 C2076 1.373 . S
C2077 C2093 1.377 . S
C2078 C2076 1.389 . S
C2078 C2079 1.524 . S
C2078 C2092 1.377 . S
C2079 C2078 1.524 . S
C2079 C2080 1.397 . S
C2079 C2084 1.363 . S
C2080 H2057 0.950 . S
C2080 C2079 1.397 . S
C2080 C2081 1.334 . S
C2081 H2058 0.950 . S
C2081 C2080 1.334 . S
C2081 C2082 1.287 . S
C2082 C2081 1.287 . S
C2082 C2083 1.524 . S
C2082 H2101 0.913 . S
C2083 H2059 0.950 . S
C2083 C2082 1.524 . S
C2083 C2084 1.415 . S
C2084 H2060 0.950 . S
C2084 C2079 1.363 . S
C2084 C2083 1.415 . S
C2085 H2061 0.951 . S
C2085 C2086 1.366 . S
C2085 C2087 1.388 . S
C2086 C2085 1.366 . S
C2086 C2090 1.385 . S
C2087 H2062 0.951 . S
C2087 C2085 1.388 . S
C2087 C2088 1.366 . S
C2088 C2087 1.366 . S
C2088 C2089 1.414 . S
C2088 C2091 1.499 . S
C2089 H2063 0.950 . S
C2089 C2088 1.414 . S
C2089 C2090 1.374 . S
C2090 H2064 0.950 . S
C2090 C2086 1.385 . S
C2090 C2089 1.374 . S
C2091 C2088 1.499 . S
C2091 C2092 1.373 . S
C2091 C2093 1.389 . S
C2092 H2065 0.950 . S
C2092 C2078 1.377 . S
C2092 C2091 1.373 . S
C2093 C2077 1.377 . S
C2093 C2091 1.389 . S
C2093 C2094 1.524 . S
C2094 C2093 1.524 . S
C2094 C2095 1.397 . S
C2094 C2099 1.363 . S
C2095 H2066 0.950 . S
C2095 C2094 1.397 . S
C2095 C2096 1.334 . S
C2096 H2067 0.950 . S
C2096 C2095 1.334 . S
C2096 C2097 1.287 . S
C2097 C2096 1.287 . S
C2097 C2098 1.524 . S
C2097 H2100 0.999 . S
C2098 H2068 0.950 . S
C2098 C2097 1.524 . S
C2098 C2099 1.415 . S
C2099 H2069 0.950 . S
C2099 C2094 1.363 . S
C2099 C2098 1.415 . S
H2100 C2097 0.999 . S
H2101 C2082 0.913 . S
H2102 C2120 0.951 . S
H2103 C2122 0.951 . S
H2104 C2124 0.950 . S
H2105 C2125 0.950 . S
H2106 C2127 0.950 . S
H2107 C2130 0.950 . S
H2108 C2131 0.950 . S
H2109 C2133 0.950 . S
H2110 C2134 0.950 . S
H2111 C2135 0.951 . S
H2112 C2137 0.951 . S
H2113 C2139 0.950 . S
H2114 C2140 0.950 . S
H2115 C2142 0.950 . S
H2116 C2145 0.950 . S
H2117 C2146 0.950 . S
H2118 C2148 0.950 . S
H2119 C2149 0.950 . S
C2120 H2102 0.951 . S
C2120 C2121 1.366 . S
C2120 C2122 1.388 . S
C2121 C2120 1.366 . S
C2121 C2125 1.385 . S
C2122 H2103 0.951 . S
C2122 C2120 1.388 . S
C2122 C2123 1.366 . S
C2123 C2122 1.366 . S
C2123 C2124 1.414 . S
C2123 C2126 1.499 . S
C2124 H2104 0.950 . S
C2124 C2123 1.414 . S
C2124 C2125 1.374 . S
C2125 H2105 0.950 . S
C2125 C2121 1.385 . S
C2125 C2124 1.374 . S
C2126 C2123 1.499 . S
C2126 C2127 1.373 . S
C2126 C2128 1.389 . S
C2127 H2106 0.950 . S
C2127 C2126 1.373 . S
C2127 C2143 1.377 . S
C2128 C2126 1.389 . S
C2128 C2129 1.524 . S
C2128 C2142 1.377 . S
C2129 C2128 1.524 . S
C2129 C2130 1.397 . S
C2129 C2134 1.363 . S
C2130 H2107 0.950 . S
C2130 C2129 1.397 . S
C2130 C2131 1.334 . S
C2131 H2108 0.950 . S
C2131 C2130 1.334 . S
C2131 C2132 1.287 . S
C2132 C2131 1.287 . S
C2132 C2133 1.524 . S
C2132 H2151 0.913 . S
C2133 H2109 0.950 . S
C2133 C2132 1.524 . S
C2133 C2134 1.415 . S
C2134 H2110 0.950 . S
C2134 C2129 1.363 . S
C2134 C2133 1.415 . S
C2135 H2111 0.951 . S
C2135 C2136 1.366 . S
C2135 C2137 1.388 . S
C2136 C2135 1.366 . S
C2136 C2140 1.385 . S
C2137 H2112 0.951 . S
C2137 C2135 1.388 . S
C2137 C2138 1.366 . S
C2138 C2137 1.366 . S
C2138 C2139 1.414 . S
C2138 C2141 1.499 . S
C2139 H2113 0.950 . S
C2139 C2138 1.414 . S
C2139 C2140 1.374 . S
C2140 H2114 0.950 . S
C2140 C2136 1.385 . S
C2140 C2139 1.374 . S
C2141 C2138 1.499 . S
C2141 C2142 1.373 . S
C2141 C2143 1.389 . S
C2142 H2115 0.950 . S
C2142 C2128 1.377 . S
C2142 C2141 1.373 . S
C2143 C2127 1.377 . S
C2143 C2141 1.389 . S
C2143 C2144 1.524 . S
C2144 C2143 1.524 . S
C2144 C2145 1.397 . S
C2144 C2149 1.363 . S
C2145 H2116 0.950 . S
C2145 C2144 1.397 . S
C2145 C2146 1.334 . S
C2146 H2117 0.950 . S
C2146 C2145 1.334 . S
C2146 C2147 1.287 . S
C2147 C2146 1.287 . S
C2147 C2148 1.524 . S
C2147 H2150 0.999 . S
C2148 H2118 0.950 . S
C2148 C2147 1.524 . S
C2148 C2149 1.415 . S
C2149 H2119 0.950 . S
C2149 C2144 1.363 . S
C2149 C2148 1.415 . S
H2150 C2147 0.999 . S
H2151 C2132 0.913 . S
H2152 C2170 0.951 . S
H2153 C2172 0.951 . S
H2154 C2174 0.950 . S
H2155 C2175 0.950 . S
H2156 C2177 0.950 . S
H2157 C2180 0.950 . S
H2158 C2181 0.950 . S
H2159 C2183 0.950 . S
H2160 C2184 0.950 . S
H2161 C2185 0.951 . S
H2162 C2187 0.951 . S
H2163 C2189 0.950 . S
H2164 C2190 0.950 . S
H2165 C2192 0.950 . S
H2166 C2195 0.950 . S
H2167 C2196 0.950 . S
H2168 C2198 0.950 . S
H2169 C2199 0.950 . S
C2170 H2152 0.951 . S
C2170 C2171 1.366 . S
C2170 C2172 1.388 . S
C2171 C2170 1.366 . S
C2171 C2175 1.385 . S
C2172 H2153 0.951 . S
C2172 C2170 1.388 . S
C2172 C2173 1.366 . S
C2173 C2172 1.366 . S
C2173 C2174 1.414 . S
C2173 C2176 1.499 . S
C2174 H2154 0.950 . S
C2174 C2173 1.414 . S
C2174 C2175 1.374 . S
C2175 H2155 0.950 . S
C2175 C2171 1.385 . S
C2175 C2174 1.374 . S
C2176 C2173 1.499 . S
C2176 C2177 1.373 . S
C2176 C2178 1.389 . S
C2177 H2156 0.950 . S
C2177 C2176 1.373 . S
C2177 C2193 1.377 . S
C2178 C2176 1.389 . S
C2178 C2179 1.524 . S
C2178 C2192 1.377 . S
C2179 C2178 1.524 . S
C2179 C2180 1.397 . S
C2179 C2184 1.363 . S
C2180 H2157 0.950 . S
C2180 C2179 1.397 . S
C2180 C2181 1.334 . S
C2181 H2158 0.950 . S
C2181 C2180 1.334 . S
C2181 C2182 1.287 . S
C2182 C2181 1.287 . S
C2182 C2183 1.524 . S
C2182 H2201 0.913 . S
C2183 H2159 0.950 . S
C2183 C2182 1.524 . S
C2183 C2184 1.415 . S
C2184 H2160 0.950 . S
C2184 C2179 1.363 . S
C2184 C2183 1.415 . S
C2185 H2161 0.951 . S
C2185 C2186 1.366 . S
C2185 C2187 1.388 . S
C2186 C2185 1.366 . S
C2186 C2190 1.385 . S
C2187 H2162 0.951 . S
C2187 C2185 1.388 . S
C2187 C2188 1.366 . S
C2188 C2187 1.366 . S
C2188 C2189 1.414 . S
C2188 C2191 1.499 . S
C2189 H2163 0.950 . S
C2189 C2188 1.414 . S
C2189 C2190 1.374 . S
C2190 H2164 0.950 . S
C2190 C2186 1.385 . S
C2190 C2189 1.374 . S
C2191 C2188 1.499 . S
C2191 C2192 1.373 . S
C2191 C2193 1.389 . S
C2192 H2165 0.950 . S
C2192 C2178 1.377 . S
C2192 C2191 1.373 . S
C2193 C2177 1.377 . S
C2193 C2191 1.389 . S
C2193 C2194 1.524 . S
C2194 C2193 1.524 . S
C2194 C2195 1.397 . S
C2194 C2199 1.363 . S
C2195 H2166 0.950 . S
C2195 C2194 1.397 . S
C2195 C2196 1.334 . S
C2196 H2167 0.950 . S
C2196 C2195 1.334 . S
C2196 C2197 1.287 . S
C2197 C2196 1.287 . S
C2197 C2198 1.524 . S
C2197 H2200 0.976 1_554 S
C2198 H2168 0.950 . S
C2198 C2197 1.524 . S
C2198 C2199 1.415 . S
C2199 H2169 0.950 . S
C2199 C2194 1.363 . S
C2199 C2198 1.415 . S
H2200 C2197 0.976 1_556 S
H2201 C2182 0.913 . S
H2202 C2220 0.951 . S
H2203 C2222 0.951 . S
H2204 C2224 0.950 . S
H2205 C2225 0.950 . S
H2206 C2227 0.950 . S
H2207 C2230 0.950 . S
H2208 C2231 0.950 . S
H2209 C2233 0.950 . S
H2210 C2234 0.950 . S
H2211 C2235 0.951 . S
H2212 C2237 0.951 . S
H2213 C2239 0.950 . S
H2214 C2240 0.950 . S
H2215 C2242 0.950 . S
H2216 C2245 0.950 . S
H2217 C2246 0.950 . S
H2218 C2248 0.950 . S
H2219 C2249 0.950 . S
C2220 H2202 0.951 . S
C2220 C2221 1.366 . S
C2220 C2222 1.388 . S
C2221 C2220 1.366 . S
C2221 C2225 1.385 . S
C2222 H2203 0.951 . S
C2222 C2220 1.388 . S
C2222 C2223 1.366 . S
C2223 C2222 1.366 . S
C2223 C2224 1.414 . S
C2223 C2226 1.499 . S
C2224 H2204 0.950 . S
C2224 C2223 1.414 . S
C2224 C2225 1.374 . S
C2225 H2205 0.950 . S
C2225 C2221 1.385 . S
C2225 C2224 1.374 . S
C2226 C2223 1.499 . S
C2226 C2227 1.373 . S
C2226 C2228 1.389 . S
C2227 H2206 0.950 . S
C2227 C2226 1.373 . S
C2227 C2243 1.377 . S
C2228 C2226 1.389 . S
C2228 C2229 1.524 . S
C2228 C2242 1.377 . S
C2229 C2228 1.524 . S
C2229 C2230 1.397 . S
C2229 C2234 1.363 . S
C2230 H2207 0.950 . S
C2230 C2229 1.397 . S
C2230 C2231 1.334 . S
C2231 H2208 0.950 . S
C2231 C2230 1.334 . S
C2231 C2232 1.287 . S
C2232 C2231 1.287 . S
C2232 C2233 1.524 . S
C2232 H2251 0.913 . S
C2233 H2209 0.950 . S
C2233 C2232 1.524 . S
C2233 C2234 1.415 . S
C2234 H2210 0.950 . S
C2234 C2229 1.363 . S
C2234 C2233 1.415 . S
C2235 H2211 0.951 . S
C2235 C2236 1.366 . S
C2235 C2237 1.388 . S
C2236 C2235 1.366 . S
C2236 C2240 1.385 . S
C2237 H2212 0.951 . S
C2237 C2235 1.388 . S
C2237 C2238 1.366 . S
C2238 C2237 1.366 . S
C2238 C2239 1.414 . S
C2238 C2241 1.499 . S
C2239 H2213 0.950 . S
C2239 C2238 1.414 . S
C2239 C2240 1.374 . S
C2240 H2214 0.950 . S
C2240 C2236 1.385 . S
C2240 C2239 1.374 . S
C2241 C2238 1.499 . S
C2241 C2242 1.373 . S
C2241 C2243 1.389 . S
C2242 H2215 0.950 . S
C2242 C2228 1.377 . S
C2242 C2241 1.373 . S
C2243 C2227 1.377 . S
C2243 C2241 1.389 . S
C2243 C2244 1.524 . S
C2244 C2243 1.524 . S
C2244 C2245 1.397 . S
C2244 C2249 1.363 . S
C2245 H2216 0.950 . S
C2245 C2244 1.397 . S
C2245 C2246 1.334 . S
C2246 H2217 0.950 . S
C2246 C2245 1.334 . S
C2246 C2247 1.287 . S
C2247 C2246 1.287 . S
C2247 C2248 1.524 . S
C2247 H2250 0.999 . S
C2248 H2218 0.950 . S
C2248 C2247 1.524 . S
C2248 C2249 1.415 . S
C2249 H2219 0.950 . S
C2249 C2244 1.363 . S
C2249 C2248 1.415 . S
H2250 C2247 0.999 . S
H2251 C2232 0.913 . S
H2252 C2270 0.951 . S
H2253 C2272 0.951 . S
H2254 C2274 0.950 . S
H2255 C2275 0.950 . S
H2256 C2277 0.950 . S
H2257 C2280 0.950 . S
H2258 C2281 0.950 . S
H2259 C2283 0.950 . S
H2260 C2284 0.950 . S
H2261 C2285 0.951 . S
H2262 C2287 0.951 . S
H2263 C2289 0.950 . S
H2264 C2290 0.950 . S
H2265 C2292 0.950 . S
H2266 C2295 0.950 . S
H2267 C2296 0.950 . S
H2268 C2298 0.950 . S
H2269 C2299 0.950 . S
C2270 H2252 0.951 . S
C2270 C2271 1.366 . S
C2270 C2272 1.388 . S
C2271 C2270 1.366 . S
C2271 C2275 1.385 . S
C2272 H2253 0.951 . S
C2272 C2270 1.388 . S
C2272 C2273 1.366 . S
C2273 C2272 1.366 . S
C2273 C2274 1.414 . S
C2273 C2276 1.499 . S
C2274 H2254 0.950 . S
C2274 C2273 1.414 . S
C2274 C2275 1.374 . S
C2275 H2255 0.950 . S
C2275 C2271 1.385 . S
C2275 C2274 1.374 . S
C2276 C2273 1.499 . S
C2276 C2277 1.373 . S
C2276 C2278 1.389 . S
C2277 H2256 0.950 . S
C2277 C2276 1.373 . S
C2277 C2293 1.377 . S
C2278 C2276 1.389 . S
C2278 C2279 1.524 . S
C2278 C2292 1.377 . S
C2279 C2278 1.524 . S
C2279 C2280 1.397 . S
C2279 C2284 1.363 . S
C2280 H2257 0.950 . S
C2280 C2279 1.397 . S
C2280 C2281 1.334 . S
C2281 H2258 0.950 . S
C2281 C2280 1.334 . S
C2281 C2282 1.287 . S
C2282 C2281 1.287 . S
C2282 C2283 1.524 . S
C2282 H2301 0.913 . S
C2283 H2259 0.950 . S
C2283 C2282 1.524 . S
C2283 C2284 1.415 . S
C2284 H2260 0.950 . S
C2284 C2279 1.363 . S
C2284 C2283 1.415 . S
C2285 H2261 0.951 . S
C2285 C2286 1.366 . S
C2285 C2287 1.388 . S
C2286 C2285 1.366 . S
C2286 C2290 1.385 . S
C2287 H2262 0.951 . S
C2287 C2285 1.388 . S
C2287 C2288 1.366 . S
C2288 C2287 1.366 . S
C2288 C2289 1.414 . S
C2288 C2291 1.499 . S
C2289 H2263 0.950 . S
C2289 C2288 1.414 . S
C2289 C2290 1.374 . S
C2290 H2264 0.950 . S
C2290 C2286 1.385 . S
C2290 C2289 1.374 . S
C2291 C2288 1.499 . S
C2291 C2292 1.373 . S
C2291 C2293 1.389 . S
C2292 H2265 0.950 . S
C2292 C2278 1.377 . S
C2292 C2291 1.373 . S
C2293 C2277 1.377 . S
C2293 C2291 1.389 . S
C2293 C2294 1.524 . S
C2294 C2293 1.524 . S
C2294 C2295 1.397 . S
C2294 C2299 1.363 . S
C2295 H2266 0.950 . S
C2295 C2294 1.397 . S
C2295 C2296 1.334 . S
C2296 H2267 0.950 . S
C2296 C2295 1.334 . S
C2296 C2297 1.287 . S
C2297 C2296 1.287 . S
C2297 C2298 1.524 . S
C2297 H2300 0.999 . S
C2298 H2268 0.950 . S
C2298 C2297 1.524 . S
C2298 C2299 1.415 . S
C2299 H2269 0.950 . S
C2299 C2294 1.363 . S
C2299 C2298 1.415 . S
H2300 C2297 0.999 . S
H2301 C2282 0.913 . S
H2302 C2320 0.951 . S
H2303 C2322 0.951 . S
H2304 C2324 0.950 . S
H2305 C2325 0.950 . S
H2306 C2327 0.950 . S
H2307 C2330 0.950 . S
H2308 C2331 0.950 . S
H2309 C2333 0.950 . S
H2310 C2334 0.950 . S
H2311 C2335 0.951 . S
H2312 C2337 0.951 . S
H2313 C2339 0.950 . S
H2314 C2340 0.950 . S
H2315 C2342 0.950 . S
H2316 C2345 0.950 . S
H2317 C2346 0.950 . S
H2318 C2348 0.950 . S
H2319 C2349 0.950 . S
C2320 H2302 0.951 . S
C2320 C2321 1.366 . S
C2320 C2322 1.388 . S
C2321 C2320 1.366 . S
C2321 C2325 1.385 . S
C2322 H2303 0.951 . S
C2322 C2320 1.388 . S
C2322 C2323 1.366 . S
C2323 C2322 1.366 . S
C2323 C2324 1.414 . S
C2323 C2326 1.499 . S
C2324 H2304 0.950 . S
C2324 C2323 1.414 . S
C2324 C2325 1.374 . S
C2325 H2305 0.950 . S
C2325 C2321 1.385 . S
C2325 C2324 1.374 . S
C2326 C2323 1.499 . S
C2326 C2327 1.373 . S
C2326 C2328 1.389 . S
C2327 H2306 0.950 . S
C2327 C2326 1.373 . S
C2327 C2343 1.377 . S
C2328 C2326 1.389 . S
C2328 C2329 1.524 . S
C2328 C2342 1.377 . S
C2329 C2328 1.524 . S
C2329 C2330 1.397 . S
C2329 C2334 1.363 . S
C2330 H2307 0.950 . S
C2330 C2329 1.397 . S
C2330 C2331 1.334 . S
C2331 H2308 0.950 . S
C2331 C2330 1.334 . S
C2331 C2332 1.287 . S
C2332 C2331 1.287 . S
C2332 C2333 1.524 . S
C2332 H2351 0.913 . S
C2333 H2309 0.950 . S
C2333 C2332 1.524 . S
C2333 C2334 1.415 . S
C2334 H2310 0.950 . S
C2334 C2329 1.363 . S
C2334 C2333 1.415 . S
C2335 H2311 0.951 . S
C2335 C2336 1.366 . S
C2335 C2337 1.388 . S
C2336 C2335 1.366 . S
C2336 C2340 1.385 . S
C2337 H2312 0.951 . S
C2337 C2335 1.388 . S
C2337 C2338 1.366 . S
C2338 C2337 1.366 . S
C2338 C2339 1.414 . S
C2338 C2341 1.499 . S
C2339 H2313 0.950 . S
C2339 C2338 1.414 . S
C2339 C2340 1.374 . S
C2340 H2314 0.950 . S
C2340 C2336 1.385 . S
C2340 C2339 1.374 . S
C2341 C2338 1.499 . S
C2341 C2342 1.373 . S
C2341 C2343 1.389 . S
C2342 H2315 0.950 . S
C2342 C2328 1.377 . S
C2342 C2341 1.373 . S
C2343 C2327 1.377 . S
C2343 C2341 1.389 . S
C2343 C2344 1.524 . S
C2344 C2343 1.524 . S
C2344 C2345 1.397 . S
C2344 C2349 1.363 . S
C2345 H2316 0.950 . S
C2345 C2344 1.397 . S
C2345 C2346 1.334 . S
C2346 H2317 0.950 . S
C2346 C2345 1.334 . S
C2346 C2347 1.287 . S
C2347 C2346 1.287 . S
C2347 C2348 1.524 . S
C2347 H2350 0.999 . S
C2348 H2318 0.950 . S
C2348 C2347 1.524 . S
C2348 C2349 1.415 . S
C2349 H2319 0.950 . S
C2349 C2344 1.363 . S
C2349 C2348 1.415 . S
H2350 C2347 0.999 . S
H2351 C2332 0.913 . S
H2352 C2370 0.951 . S
H2353 C2372 0.951 . S
H2354 C2374 0.950 . S
H2355 C2375 0.950 . S
H2356 C2377 0.950 . S
H2357 C2380 0.950 . S
H2358 C2381 0.950 . S
H2359 C2383 0.950 . S
H2360 C2384 0.950 . S
H2361 C2385 0.951 . S
H2362 C2387 0.951 . S
H2363 C2389 0.950 . S
H2364 C2390 0.950 . S
H2365 C2392 0.950 . S
H2366 C2395 0.950 . S
H2367 C2396 0.950 1_655 S
H2368 C2398 0.950 . S
H2369 C2399 0.950 . S
C2370 H2352 0.951 . S
C2370 C2371 1.366 . S
C2370 C2372 1.388 . S
C2371 C2370 1.366 . S
C2371 C2375 1.385 . S
C2372 H2353 0.951 . S
C2372 C2370 1.388 . S
C2372 C2373 1.366 . S
C2373 C2372 1.366 . S
C2373 C2374 1.414 . S
C2373 C2376 1.499 . S
C2374 H2354 0.950 . S
C2374 C2373 1.414 . S
C2374 C2375 1.374 . S
C2375 H2355 0.950 . S
C2375 C2371 1.385 . S
C2375 C2374 1.374 . S
C2376 C2373 1.499 . S
C2376 C2377 1.373 . S
C2376 C2378 1.389 . S
C2377 H2356 0.950 . S
C2377 C2376 1.373 . S
C2377 C2393 1.377 . S
C2378 C2376 1.389 . S
C2378 C2379 1.524 . S
C2378 C2392 1.377 . S
C2379 C2378 1.524 . S
C2379 C2380 1.397 . S
C2379 C2384 1.363 . S
C2380 H2357 0.950 . S
C2380 C2379 1.397 . S
C2380 C2381 1.334 . S
C2381 H2358 0.950 . S
C2381 C2380 1.334 . S
C2381 C2382 1.287 . S
C2382 C2381 1.287 . S
C2382 C2383 1.524 . S
C2382 H2401 0.913 . S
C2383 H2359 0.950 . S
C2383 C2382 1.524 . S
C2383 C2384 1.415 . S
C2384 H2360 0.950 . S
C2384 C2379 1.363 . S
C2384 C2383 1.415 . S
C2385 H2361 0.951 . S
C2385 C2386 1.366 . S
C2385 C2387 1.388 . S
C2386 C2385 1.366 . S
C2386 C2390 1.385 . S
C2387 H2362 0.951 . S
C2387 C2385 1.388 . S
C2387 C2388 1.366 . S
C2388 C2387 1.366 . S
C2388 C2389 1.414 . S
C2388 C2391 1.499 . S
C2389 H2363 0.950 . S
C2389 C2388 1.414 . S
C2389 C2390 1.374 . S
C2390 H2364 0.950 . S
C2390 C2386 1.385 . S
C2390 C2389 1.374 . S
C2391 C2388 1.499 . S
C2391 C2392 1.373 . S
C2391 C2393 1.389 . S
C2392 H2365 0.950 . S
C2392 C2378 1.377 . S
C2392 C2391 1.373 . S
C2393 C2377 1.377 . S
C2393 C2391 1.389 . S
C2393 C2394 1.524 . S
C2394 C2393 1.524 . S
C2394 C2395 1.397 . S
C2394 C2399 1.363 . S
C2395 H2366 0.950 . S
C2395 C2394 1.397 . S
C2395 C2396 1.334 . S
C2396 H2367 0.950 1_455 S
C2396 C2395 1.334 . S
C2396 C2397 1.287 . S
C2397 C2396 1.287 . S
C2397 C2398 1.524 . S
C2397 H2400 0.999 . S
C2398 H2368 0.950 . S
C2398 C2397 1.524 . S
C2398 C2399 1.415 . S
C2399 H2369 0.950 . S
C2399 C2394 1.363 . S
C2399 C2398 1.415 . S
H2400 C2397 0.999 . S
H2401 C2382 0.913 . S
H2402 C2420 0.951 . S
H2403 C2422 0.951 . S
H2404 C2424 0.950 . S
H2405 C2425 0.950 . S
H2406 C2427 0.950 . S
H2407 C2430 0.950 . S
H2408 C2431 0.950 . S
H2409 C2433 0.950 . S
H2410 C2434 0.950 . S
H2411 C2435 0.951 . S
H2412 C2437 0.951 . S
H2413 C2439 0.950 . S
H2414 C2440 0.950 . S
H2415 C2442 0.950 . S
H2416 C2445 0.950 . S
H2417 C2446 0.950 . S
H2418 C2448 0.950 . S
H2419 C2449 0.950 . S
C2420 H2402 0.951 . S
C2420 C2421 1.366 . S
C2420 C2422 1.388 . S
C2421 C2420 1.366 . S
C2421 C2425 1.385 . S
C2422 H2403 0.951 . S
C2422 C2420 1.388 . S
C2422 C2423 1.366 . S
C2423 C2422 1.366 . S
C2423 C2424 1.414 . S
C2423 C2426 1.499 . S
C2424 H2404 0.950 . S
C2424 C2423 1.414 . S
C2424 C2425 1.374 . S
C2425 H2405 0.950 . S
C2425 C2421 1.385 . S
C2425 C2424 1.374 . S
C2426 C2423 1.499 . S
C2426 C2427 1.373 . S
C2426 C2428 1.389 . S
C2427 H2406 0.950 . S
C2427 C2426 1.373 . S
C2427 C2443 1.377 . S
C2428 C2426 1.389 . S
C2428 C2429 1.524 . S
C2428 C2442 1.377 . S
C2429 C2428 1.524 . S
C2429 C2430 1.397 . S
C2429 C2434 1.363 . S
C2430 H2407 0.950 . S
C2430 C2429 1.397 . S
C2430 C2431 1.334 . S
C2431 H2408 0.950 . S
C2431 C2430 1.334 . S
C2431 C2432 1.287 . S
C2432 C2431 1.287 . S
C2432 C2433 1.524 . S
C2432 H2451 0.913 . S
C2433 H2409 0.950 . S
C2433 C2432 1.524 . S
C2433 C2434 1.415 . S
C2434 H2410 0.950 . S
C2434 C2429 1.363 . S
C2434 C2433 1.415 . S
C2435 H2411 0.951 . S
C2435 C2436 1.366 . S
C2435 C2437 1.388 . S
C2436 C2435 1.366 . S
C2436 C2440 1.385 . S
C2437 H2412 0.951 . S
C2437 C2435 1.388 . S
C2437 C2438 1.366 . S
C2438 C2437 1.366 . S
C2438 C2439 1.414 . S
C2438 C2441 1.499 . S
C2439 H2413 0.950 . S
C2439 C2438 1.414 . S
C2439 C2440 1.374 . S
C2440 H2414 0.950 . S
C2440 C2436 1.385 . S
C2440 C2439 1.374 . S
C2441 C2438 1.499 . S
C2441 C2442 1.373 . S
C2441 C2443 1.389 . S
C2442 H2415 0.950 . S
C2442 C2428 1.377 . S
C2442 C2441 1.373 . S
C2443 C2427 1.377 . S
C2443 C2441 1.389 . S
C2443 C2444 1.524 . S
C2444 C2443 1.524 . S
C2444 C2445 1.397 . S
C2444 C2449 1.363 . S
C2445 H2416 0.950 . S
C2445 C2444 1.397 . S
C2445 C2446 1.334 . S
C2446 H2417 0.950 . S
C2446 C2445 1.334 . S
C2446 C2447 1.287 . S
C2447 C2446 1.287 . S
C2447 C2448 1.524 . S
C2447 H2450 0.999 . S
C2448 H2418 0.950 . S
C2448 C2447 1.524 . S
C2448 C2449 1.415 . S
C2449 H2419 0.950 . S
C2449 C2444 1.363 . S
C2449 C2448 1.415 . S
H2450 C2447 0.999 . S
H2451 C2432 0.913 . S
H2452 C2470 0.951 . S
H2453 C2472 0.951 . S
H2454 C2474 0.950 . S
H2455 C2475 0.950 . S
H2456 C2477 0.950 . S
H2457 C2480 0.950 . S
H2458 C2481 0.950 . S
H2459 C2483 0.950 . S
H2460 C2484 0.950 . S
H2461 C2485 0.951 . S
H2462 C2487 0.951 . S
H2463 C2489 0.950 . S
H2464 C2490 0.950 . S
H2465 C2492 0.950 . S
H2466 C2495 0.950 . S
H2467 C2496 0.950 . S
H2468 C2498 0.950 . S
H2469 C2499 0.950 . S
C2470 H2452 0.951 . S
C2470 C2471 1.366 . S
C2470 C2472 1.388 . S
C2471 C2470 1.366 . S
C2471 C2475 1.385 . S
C2472 H2453 0.951 . S
C2472 C2470 1.388 . S
C2472 C2473 1.366 . S
C2473 C2472 1.366 . S
C2473 C2474 1.414 . S
C2473 C2476 1.499 . S
C2474 H2454 0.950 . S
C2474 C2473 1.414 . S
C2474 C2475 1.374 . S
C2475 H2455 0.950 . S
C2475 C2471 1.385 . S
C2475 C2474 1.374 . S
C2476 C2473 1.499 . S
C2476 C2477 1.373 . S
C2476 C2478 1.389 . S
C2477 H2456 0.950 . S
C2477 C2476 1.373 . S
C2477 C2493 1.377 . S
C2478 C2476 1.389 . S
C2478 C2479 1.524 . S
C2478 C2492 1.377 . S
C2479 C2478 1.524 . S
C2479 C2480 1.397 . S
C2479 C2484 1.363 . S
C2480 H2457 0.950 . S
C2480 C2479 1.397 . S
C2480 C2481 1.334 . S
C2481 H2458 0.950 . S
C2481 C2480 1.334 . S
C2481 C2482 1.287 . S
C2482 C2481 1.287 . S
C2482 C2483 1.524 . S
C2482 H2501 0.913 . S
C2483 H2459 0.950 . S
C2483 C2482 1.524 . S
C2483 C2484 1.415 . S
C2484 H2460 0.950 . S
C2484 C2479 1.363 . S
C2484 C2483 1.415 . S
C2485 H2461 0.951 . S
C2485 C2486 1.366 . S
C2485 C2487 1.388 . S
C2486 C2485 1.366 . S
C2486 C2490 1.385 . S
C2487 H2462 0.951 . S
C2487 C2485 1.388 . S
C2487 C2488 1.366 . S
C2488 C2487 1.366 . S
C2488 C2489 1.414 . S
C2488 C2491 1.499 . S
C2489 H2463 0.950 . S
C2489 C2488 1.414 . S
C2489 C2490 1.374 . S
C2490 H2464 0.950 . S
C2490 C2486 1.385 . S
C2490 C2489 1.374 . S
C2491 C2488 1.499 . S
C2491 C2492 1.373 . S
C2491 C2493 1.389 . S
C2492 H2465 0.950 . S
C2492 C2478 1.377 . S
C2492 C2491 1.373 . S
C2493 C2477 1.377 . S
C2493 C2491 1.389 . S
C2493 C2494 1.524 . S
C2494 C2493 1.524 . S
C2494 C2495 1.397 . S
C2494 C2499 1.363 . S
C2495 H2466 0.950 . S
C2495 C2494 1.397 . S
C2495 C2496 1.334 . S
C2496 H2467 0.950 . S
C2496 C2495 1.334 . S
C2496 C2497 1.287 . S
C2497 C2496 1.287 . S
C2497 C2498 1.524 . S
C2497 H2500 0.999 . S
C2498 H2468 0.950 . S
C2498 C2497 1.524 . S
C2498 C2499 1.415 . S
C2499 H2469 0.950 . S
C2499 C2494 1.363 . S
C2499 C2498 1.415 . S
H2500 C2497 0.999 . S
H2501 C2482 0.913 . S
H2502 C2520 0.951 . S
H2503 C2522 0.951 . S
H2504 C2524 0.950 . S
H2505 C2525 0.950 . S
H2506 C2527 0.950 . S
H2507 C2530 0.950 . S
H2508 C2531 0.950 . S
H2509 C2533 0.950 . S
H2510 C2534 0.950 . S
H2511 C2535 0.951 . S
H2512 C2537 0.951 . S
H2513 C2539 0.950 . S
H2514 C2540 0.950 . S
H2515 C2542 0.950 . S
H2516 C2545 0.950 . S
H2517 C2546 0.950 . S
H2518 C2548 0.950 . S
H2519 C2549 0.950 . S
C2520 H2502 0.951 . S
C2520 C2521 1.366 . S
C2520 C2522 1.388 . S
C2521 C2520 1.366 . S
C2521 C2525 1.385 . S
C2522 H2503 0.951 . S
C2522 C2520 1.388 . S
C2522 C2523 1.366 . S
C2523 C2522 1.366 . S
C2523 C2524 1.414 . S
C2523 C2526 1.499 . S
C2524 H2504 0.950 . S
C2524 C2523 1.414 . S
C2524 C2525 1.374 . S
C2525 H2505 0.950 . S
C2525 C2521 1.385 . S
C2525 C2524 1.374 . S
C2526 C2523 1.499 . S
C2526 C2527 1.373 . S
C2526 C2528 1.389 . S
C2527 H2506 0.950 . S
C2527 C2526 1.373 . S
C2527 C2543 1.377 . S
C2528 C2526 1.389 . S
C2528 C2529 1.524 . S
C2528 C2542 1.377 . S
C2529 C2528 1.524 . S
C2529 C2530 1.397 . S
C2529 C2534 1.363 . S
C2530 H2507 0.950 . S
C2530 C2529 1.397 . S
C2530 C2531 1.334 . S
C2531 H2508 0.950 . S
C2531 C2530 1.334 . S
C2531 C2532 1.287 . S
C2532 C2531 1.287 . S
C2532 C2533 1.524 . S
C2532 H2551 0.913 . S
C2533 H2509 0.950 . S
C2533 C2532 1.524 . S
C2533 C2534 1.415 . S
C2534 H2510 0.950 . S
C2534 C2529 1.363 . S
C2534 C2533 1.415 . S
C2535 H2511 0.951 . S
C2535 C2536 1.366 . S
C2535 C2537 1.388 . S
C2536 C2535 1.366 . S
C2536 C2540 1.385 . S
C2537 H2512 0.951 . S
C2537 C2535 1.388 . S
C2537 C2538 1.366 . S
C2538 C2537 1.366 . S
C2538 C2539 1.414 . S
C2538 C2541 1.499 . S
C2539 H2513 0.950 . S
C2539 C2538 1.414 . S
C2539 C2540 1.374 . S
C2540 H2514 0.950 . S
C2540 C2536 1.385 . S
C2540 C2539 1.374 . S
C2541 C2538 1.499 . S
C2541 C2542 1.373 . S
C2541 C2543 1.389 . S
C2542 H2515 0.950 . S
C2542 C2528 1.377 . S
C2542 C2541 1.373 . S
C2543 C2527 1.377 . S
C2543 C2541 1.389 . S
C2543 C2544 1.524 . S
C2544 C2543 1.524 . S
C2544 C2545 1.397 . S
C2544 C2549 1.363 . S
C2545 H2516 0.950 . S
C2545 C2544 1.397 . S
C2545 C2546 1.334 . S
C2546 H2517 0.950 . S
C2546 C2545 1.334 . S
C2546 C2547 1.287 . S
C2547 C2546 1.287 . S
C2547 C2548 1.524 . S
C2547 H2550 0.999 . S
C2548 H2518 0.950 . S
C2548 C2547 1.524 . S
C2548 C2549 1.415 . S
C2549 H2519 0.950 . S
C2549 C2544 1.363 . S
C2549 C2548 1.415 . S
H2550 C2547 0.999 . S
H2551 C2532 0.913 . S
H2552 C2570 0.951 . S
H2553 C2572 0.951 . S
H2554 C2574 0.950 . S
H2555 C2575 0.950 . S
H2556 C2577 0.950 . S
H2557 C2580 0.950 . S
H2558 C2581 0.950 . S
H2559 C2583 0.950 . S
H2560 C2584 0.950 . S
H2561 C2585 0.951 . S
H2562 C2587 0.951 . S
H2563 C2589 0.950 . S
H2564 C2590 0.950 1_554 S
H2565 C2592 0.950 . S
H2566 C2595 0.950 . S
H2567 C2596 0.950 . S
H2568 C2598 0.950 . S
H2569 C2599 0.950 . S
C2570 H2552 0.951 . S
C2570 C2571 1.366 . S
C2570 C2572 1.388 . S
C2571 C2570 1.366 . S
C2571 C2575 1.385 . S
C2572 H2553 0.951 . S
C2572 C2570 1.388 . S
C2572 C2573 1.366 . S
C2573 C2572 1.366 . S
C2573 C2574 1.414 . S
C2573 C2576 1.499 . S
C2574 H2554 0.950 . S
C2574 C2573 1.414 . S
C2574 C2575 1.374 . S
C2575 H2555 0.950 . S
C2575 C2571 1.385 . S
C2575 C2574 1.374 . S
C2576 C2573 1.499 . S
C2576 C2577 1.373 . S
C2576 C2578 1.389 . S
C2577 H2556 0.950 . S
C2577 C2576 1.373 . S
C2577 C2593 1.377 . S
C2578 C2576 1.389 . S
C2578 C2579 1.524 . S
C2578 C2592 1.377 . S
C2579 C2578 1.524 . S
C2579 C2580 1.397 . S
C2579 C2584 1.363 . S
C2580 H2557 0.950 . S
C2580 C2579 1.397 . S
C2580 C2581 1.334 1_545 S
C2581 H2558 0.950 . S
C2581 C2580 1.334 1_565 S
C2581 C2582 1.287 . S
C2582 C2581 1.287 . S
C2582 C2583 1.524 1_565 S
C2582 H2601 0.913 . S
C2583 H2559 0.950 . S
C2583 C2582 1.524 1_545 S
C2583 C2584 1.415 . S
C2584 H2560 0.950 . S
C2584 C2579 1.363 . S
C2584 C2583 1.415 . S
C2585 H2561 0.951 . S
C2585 C2586 1.366 . S
C2585 C2587 1.388 . S
C2586 C2585 1.366 . S
C2586 C2590 1.385 . S
C2587 H2562 0.951 . S
C2587 C2585 1.388 . S
C2587 C2588 1.366 . S
C2588 C2587 1.366 . S
C2588 C2589 1.414 . S
C2588 C2591 1.499 . S
C2589 H2563 0.950 . S
C2589 C2588 1.414 . S
C2589 C2590 1.374 . S
C2590 H2564 0.950 1_556 S
C2590 C2586 1.385 . S
C2590 C2589 1.374 . S
C2591 C2588 1.499 . S
C2591 C2592 1.373 . S
C2591 C2593 1.389 . S
C2592 H2565 0.950 . S
C2592 C2578 1.377 . S
C2592 C2591 1.373 . S
C2593 C2577 1.377 . S
C2593 C2591 1.389 . S
C2593 C2594 1.524 . S
C2594 C2593 1.524 . S
C2594 C2595 1.397 . S
C2594 C2599 1.363 . S
C2595 H2566 0.950 . S
C2595 C2594 1.397 . S
C2595 C2596 1.334 . S
C2596 H2567 0.950 . S
C2596 C2595 1.334 . S
C2596 C2597 1.287 . S
C2597 C2596 1.287 . S
C2597 C2598 1.524 . S
C2597 H2600 0.999 . S
C2598 H2568 0.950 . S
C2598 C2597 1.524 . S
C2598 C2599 1.415 . S
C2599 H2569 0.950 . S
C2599 C2594 1.363 . S
C2599 C2598 1.415 . S
H2600 C2597 0.999 . S
H2601 C2582 0.913 . S
H2602 C2620 0.951 . S
H2603 C2622 0.951 . S
H2604 C2624 0.950 . S
H2605 C2625 0.950 . S
H2606 C2627 0.950 . S
H2607 C2630 0.950 . S
H2608 C2631 0.950 . S
H2609 C2633 0.950 . S
H2610 C2634 0.950 . S
H2611 C2635 0.951 . S
H2612 C2637 0.951 . S
H2613 C2639 0.950 . S
H2614 C2640 0.950 . S
H2615 C2642 0.950 . S
H2616 C2645 0.950 . S
H2617 C2646 0.950 . S
H2618 C2648 0.950 . S
H2619 C2649 0.950 . S
C2620 H2602 0.951 . S
C2620 C2621 1.366 . S
C2620 C2622 1.388 . S
C2621 C2620 1.366 . S
C2621 C2625 1.385 . S
C2622 H2603 0.951 . S
C2622 C2620 1.388 . S
C2622 C2623 1.366 . S
C2623 C2622 1.366 . S
C2623 C2624 1.414 . S
C2623 C2626 1.499 . S
C2624 H2604 0.950 . S
C2624 C2623 1.414 . S
C2624 C2625 1.374 . S
C2625 H2605 0.950 . S
C2625 C2621 1.385 . S
C2625 C2624 1.374 . S
C2626 C2623 1.499 . S
C2626 C2627 1.373 . S
C2626 C2628 1.389 . S
C2627 H2606 0.950 . S
C2627 C2626 1.373 . S
C2627 C2643 1.377 . S
C2628 C2626 1.389 . S
C2628 C2629 1.524 . S
C2628 C2642 1.377 . S
C2629 C2628 1.524 . S
C2629 C2630 1.397 . S
C2629 C2634 1.363 . S
C2630 H2607 0.950 . S
C2630 C2629 1.397 . S
C2630 C2631 1.334 . S
C2631 H2608 0.950 . S
C2631 C2630 1.334 . S
C2631 C2632 1.287 . S
C2632 C2631 1.287 . S
C2632 C2633 1.524 . S
C2632 H2651 0.913 . S
C2633 H2609 0.950 . S
C2633 C2632 1.524 . S
C2633 C2634 1.415 . S
C2634 H2610 0.950 . S
C2634 C2629 1.363 . S
C2634 C2633 1.415 . S
C2635 H2611 0.951 . S
C2635 C2636 1.366 . S
C2635 C2637 1.388 . S
C2636 C2635 1.366 . S
C2636 C2640 1.385 . S
C2637 H2612 0.951 . S
C2637 C2635 1.388 . S
C2637 C2638 1.366 . S
C2638 C2637 1.366 . S
C2638 C2639 1.414 . S
C2638 C2641 1.499 . S
C2639 H2613 0.950 . S
C2639 C2638 1.414 . S
C2639 C2640 1.374 . S
C2640 H2614 0.950 . S
C2640 C2636 1.385 . S
C2640 C2639 1.374 . S
C2641 C2638 1.499 . S
C2641 C2642 1.373 . S
C2641 C2643 1.389 . S
C2642 H2615 0.950 . S
C2642 C2628 1.377 . S
C2642 C2641 1.373 . S
C2643 C2627 1.377 . S
C2643 C2641 1.389 . S
C2643 C2644 1.524 . S
C2644 C2643 1.524 . S
C2644 C2645 1.397 . S
C2644 C2649 1.363 . S
C2645 H2616 0.950 . S
C2645 C2644 1.397 . S
C2645 C2646 1.334 . S
C2646 H2617 0.950 . S
C2646 C2645 1.334 . S
C2646 C2647 1.287 . S
C2647 C2646 1.287 . S
C2647 C2648 1.524 . S
C2647 H2650 0.999 . S
C2648 H2618 0.950 . S
C2648 C2647 1.524 . S
C2648 C2649 1.415 . S
C2649 H2619 0.950 . S
C2649 C2644 1.363 . S
C2649 C2648 1.415 . S
H2650 C2647 0.999 . S
H2651 C2632 0.913 . S
H2652 C2670 0.951 . S
H2653 C2672 0.951 . S
H2654 C2674 0.950 . S
H2655 C2675 0.950 . S
H2656 C2677 0.950 . S
H2657 C2680 0.950 . S
H2658 C2681 0.950 . S
H2659 C2683 0.950 . S
H2660 C2684 0.950 . S
H2661 C2685 0.951 . S
H2662 C2687 0.951 . S
H2663 C2689 0.950 . S
H2664 C2690 0.950 . S
H2665 C2692 0.950 . S
H2666 C2695 0.950 1_565 S
H2667 C2696 0.950 . S
H2668 C2698 0.950 . S
H2669 C2699 0.950 . S
C2670 H2652 0.951 . S
C2670 C2671 1.366 . S
C2670 C2672 1.388 . S
C2671 C2670 1.366 . S
C2671 C2675 1.385 . S
C2672 H2653 0.951 . S
C2672 C2670 1.388 . S
C2672 C2673 1.366 . S
C2673 C2672 1.366 . S
C2673 C2674 1.414 . S
C2673 C2676 1.499 . S
C2674 H2654 0.950 . S
C2674 C2673 1.414 . S
C2674 C2675 1.374 . S
C2675 H2655 0.950 . S
C2675 C2671 1.385 . S
C2675 C2674 1.374 . S
C2676 C2673 1.499 . S
C2676 C2677 1.373 . S
C2676 C2678 1.389 . S
C2677 H2656 0.950 . S
C2677 C2676 1.373 . S
C2677 C2693 1.377 . S
C2678 C2676 1.389 . S
C2678 C2679 1.524 . S
C2678 C2692 1.377 . S
C2679 C2678 1.524 . S
C2679 C2680 1.397 . S
C2679 C2684 1.363 . S
C2680 H2657 0.950 . S
C2680 C2679 1.397 . S
C2680 C2681 1.334 . S
C2681 H2658 0.950 . S
C2681 C2680 1.334 . S
C2681 C2682 1.287 . S
C2682 C2681 1.287 . S
C2682 C2683 1.524 . S
C2682 H2701 0.913 . S
C2683 H2659 0.950 . S
C2683 C2682 1.524 . S
C2683 C2684 1.415 . S
C2684 H2660 0.950 . S
C2684 C2679 1.363 . S
C2684 C2683 1.415 . S
C2685 H2661 0.951 . S
C2685 C2686 1.366 . S
C2685 C2687 1.388 . S
C2686 C2685 1.366 . S
C2686 C2690 1.385 . S
C2687 H2662 0.951 . S
C2687 C2685 1.388 . S
C2687 C2688 1.366 . S
C2688 C2687 1.366 . S
C2688 C2689 1.414 . S
C2688 C2691 1.499 . S
C2689 H2663 0.950 . S
C2689 C2688 1.414 . S
C2689 C2690 1.374 . S
C2690 H2664 0.950 . S
C2690 C2686 1.385 . S
C2690 C2689 1.374 . S
C2691 C2688 1.499 . S
C2691 C2692 1.373 . S
C2691 C2693 1.389 . S
C2692 H2665 0.950 . S
C2692 C2678 1.377 . S
C2692 C2691 1.373 . S
C2693 C2677 1.377 . S
C2693 C2691 1.389 . S
C2693 C2694 1.524 . S
C2694 C2693 1.524 . S
C2694 C2695 1.397 . S
C2694 C2699 1.363 . S
C2695 H2666 0.950 1_545 S
C2695 C2694 1.397 . S
C2695 C2696 1.334 1_545 S
C2696 H2667 0.950 . S
C2696 C2695 1.334 1_565 S
C2696 C2697 1.287 1_565 S
C2697 C2696 1.287 1_545 S
C2697 C2698 1.524 . S
C2697 H2700 0.999 1_545 S
C2698 H2668 0.950 . S
C2698 C2697 1.524 . S
C2698 C2699 1.415 . S
C2699 H2669 0.950 . S
C2699 C2694 1.363 . S
C2699 C2698 1.415 . S
H2700 C2697 0.999 1_565 S
H2701 C2682 0.913 . S
H2702 C2720 0.951 . S
H2703 C2722 0.951 . S
H2704 C2724 0.950 . S
H2705 C2725 0.950 . S
H2706 C2727 0.950 . S
H2707 C2730 0.950 . S
H2708 C2731 0.950 . S
H2709 C2733 0.950 . S
H2710 C2734 0.950 . S
H2711 C2735 0.951 . S
H2712 C2737 0.951 . S
H2713 C2739 0.950 . S
H2714 C2740 0.950 . S
H2715 C2742 0.950 . S
H2716 C2745 0.950 . S
H2717 C2746 0.950 . S
H2718 C2748 0.950 . S
H2719 C2749 0.950 . S
C2720 H2702 0.951 . S
C2720 C2721 1.366 . S
C2720 C2722 1.388 . S
C2721 C2720 1.366 . S
C2721 C2725 1.385 . S
C2722 H2703 0.951 . S
C2722 C2720 1.388 . S
C2722 C2723 1.366 . S
C2723 C2722 1.366 . S
C2723 C2724 1.414 . S
C2723 C2726 1.499 . S
C2724 H2704 0.950 . S
C2724 C2723 1.414 . S
C2724 C2725 1.374 . S
C2725 H2705 0.950 . S
C2725 C2721 1.385 . S
C2725 C2724 1.374 . S
C2726 C2723 1.499 . S
C2726 C2727 1.373 . S
C2726 C2728 1.389 . S
C2727 H2706 0.950 . S
C2727 C2726 1.373 . S
C2727 C2743 1.377 . S
C2728 C2726 1.389 . S
C2728 C2729 1.524 . S
C2728 C2742 1.377 . S
C2729 C2728 1.524 . S
C2729 C2730 1.397 . S
C2729 C2734 1.363 . S
C2730 H2707 0.950 . S
C2730 C2729 1.397 . S
C2730 C2731 1.334 . S
C2731 H2708 0.950 . S
C2731 C2730 1.334 . S
C2731 C2732 1.287 . S
C2732 C2731 1.287 . S
C2732 C2733 1.524 . S
C2732 H2751 0.913 . S
C2733 H2709 0.950 . S
C2733 C2732 1.524 . S
C2733 C2734 1.415 . S
C2734 H2710 0.950 . S
C2734 C2729 1.363 . S
C2734 C2733 1.415 . S
C2735 H2711 0.951 . S
C2735 C2736 1.366 . S
C2735 C2737 1.388 . S
C2736 C2735 1.366 . S
C2736 C2740 1.385 . S
C2737 H2712 0.951 . S
C2737 C2735 1.388 . S
C2737 C2738 1.366 . S
C2738 C2737 1.366 . S
C2738 C2739 1.414 . S
C2738 C2741 1.499 . S
C2739 H2713 0.950 . S
C2739 C2738 1.414 . S
C2739 C2740 1.374 . S
C2740 H2714 0.950 . S
C2740 C2736 1.385 . S
C2740 C2739 1.374 . S
C2741 C2738 1.499 . S
C2741 C2742 1.373 . S
C2741 C2743 1.389 . S
C2742 H2715 0.950 . S
C2742 C2728 1.377 . S
C2742 C2741 1.373 . S
C2743 C2727 1.377 . S
C2743 C2741 1.389 . S
C2743 C2744 1.524 . S
C2744 C2743 1.524 . S
C2744 C2745 1.397 . S
C2744 C2749 1.363 . S
C2745 H2716 0.950 . S
C2745 C2744 1.397 . S
C2745 C2746 1.334 . S
C2746 H2717 0.950 . S
C2746 C2745 1.334 . S
C2746 C2747 1.287 . S
C2747 C2746 1.287 . S
C2747 C2748 1.524 . S
C2747 H2750 0.999 . S
C2748 H2718 0.950 . S
C2748 C2747 1.524 . S
C2748 C2749 1.415 . S
C2749 H2719 0.950 . S
C2749 C2744 1.363 . S
C2749 C2748 1.415 . S
H2750 C2747 0.999 . S
H2751 C2732 0.913 . S
H2752 C2770 0.951 . S
H2753 C2772 0.951 . S
H2754 C2774 0.950 . S
H2755 C2775 0.950 . S
H2756 C2777 0.950 . S
H2757 C2780 0.950 . S
H2758 C2781 0.950 . S
H2759 C2783 0.950 . S
H2760 C2784 0.950 . S
H2761 C2785 0.951 . S
H2762 C2787 0.951 . S
H2763 C2789 0.950 . S
H2764 C2790 0.950 . S
H2765 C2792 0.950 . S
H2766 C2795 0.912 1_565 S
H2767 C2796 0.950 . S
H2768 C2798 0.950 . S
H2769 C2799 0.950 . S
C2770 H2752 0.951 . S
C2770 C2771 1.366 . S
C2770 C2772 1.388 . S
C2771 C2770 1.366 . S
C2771 C2775 1.385 . S
C2772 H2753 0.951 . S
C2772 C2770 1.388 . S
C2772 C2773 1.366 . S
C2773 C2772 1.366 . S
C2773 C2774 1.414 . S
C2773 C2776 1.499 . S
C2774 H2754 0.950 . S
C2774 C2773 1.414 . S
C2774 C2775 1.374 . S
C2775 H2755 0.950 . S
C2775 C2771 1.385 . S
C2775 C2774 1.374 . S
C2776 C2773 1.499 . S
C2776 C2777 1.373 . S
C2776 C2778 1.389 . S
C2777 H2756 0.950 . S
C2777 C2776 1.373 . S
C2777 C2793 1.377 . S
C2778 C2776 1.389 . S
C2778 C2779 1.524 . S
C2778 C2792 1.377 . S
C2779 C2778 1.524 . S
C2779 C2780 1.397 . S
C2779 C2784 1.363 . S
C2780 H2757 0.950 . S
C2780 C2779 1.397 . S
C2780 C2781 1.334 . S
C2781 H2758 0.950 . S
C2781 C2780 1.334 . S
C2781 C2782 1.287 . S
C2782 C2781 1.287 . S
C2782 C2783 1.524 . S
C2782 H2801 0.913 . S
C2783 H2759 0.950 . S
C2783 C2782 1.524 . S
C2783 C2784 1.415 . S
C2784 H2760 0.950 . S
C2784 C2779 1.363 . S
C2784 C2783 1.415 . S
C2785 H2761 0.951 . S
C2785 C2786 1.366 . S
C2785 C2787 1.388 . S
C2786 C2785 1.366 . S
C2786 C2790 1.385 . S
C2787 H2762 0.951 . S
C2787 C2785 1.388 . S
C2787 C2788 1.366 . S
C2788 C2787 1.366 . S
C2788 C2789 1.414 . S
C2788 C2791 1.499 . S
C2789 H2763 0.950 . S
C2789 C2788 1.414 . S
C2789 C2790 1.374 . S
C2790 H2764 0.950 . S
C2790 C2786 1.385 . S
C2790 C2789 1.374 . S
C2791 C2788 1.499 . S
C2791 C2792 1.373 . S
C2791 C2793 1.389 . S
C2792 H2765 0.950 . S
C2792 C2778 1.377 . S
C2792 C2791 1.373 . S
C2793 C2777 1.377 . S
C2793 C2791 1.389 . S
C2793 C2794 1.524 . S
C2794 C2793 1.524 . S
C2794 C2795 1.397 . S
C2794 C2799 1.363 . S
C2795 H2766 0.912 1_545 S
C2795 C2794 1.397 . S
C2795 C2796 1.334 1_545 S
C2796 H2767 0.950 . S
C2796 C2795 1.334 1_565 S
C2796 C2797 1.287 1_565 S
C2797 C2796 1.287 1_545 S
C2797 C2798 1.524 . S
C2797 H2800 1.003 . S
C2798 H2768 0.950 . S
C2798 C2797 1.524 . S
C2798 C2799 1.415 . S
C2799 H2769 0.950 . S
C2799 C2794 1.363 . S
C2799 C2798 1.415 . S
H2800 C2797 1.003 . S
H2801 C2782 0.913 . S
H2802 C2820 0.951 . S
H2803 C2822 0.951 . S
H2804 C2824 0.950 . S
H2805 C2825 0.950 . S
H2806 C2827 0.950 . S
H2807 C2830 0.950 . S
H2808 C2831 0.950 . S
H2809 C2833 0.950 . S
H2810 C2834 0.950 . S
H2811 C2835 0.951 . S
H2812 C2837 0.951 . S
H2813 C2839 0.950 . S
H2814 C2840 0.950 . S
H2815 C2842 0.950 . S
H2816 C2845 0.950 . S
H2817 C2846 0.950 . S
H2818 C2848 0.950 . S
H2819 C2849 0.950 . S
C2820 H2802 0.951 . S
C2820 C2821 1.366 . S
C2820 C2822 1.388 . S
C2821 C2820 1.366 . S
C2821 C2825 1.385 . S
C2822 H2803 0.951 . S
C2822 C2820 1.388 . S
C2822 C2823 1.366 . S
C2823 C2822 1.366 . S
C2823 C2824 1.414 . S
C2823 C2826 1.499 . S
C2824 H2804 0.950 . S
C2824 C2823 1.414 . S
C2824 C2825 1.374 . S
C2825 H2805 0.950 . S
C2825 C2821 1.385 . S
C2825 C2824 1.374 . S
C2826 C2823 1.499 . S
C2826 C2827 1.373 . S
C2826 C2828 1.389 . S
C2827 H2806 0.950 . S
C2827 C2826 1.373 . S
C2827 C2843 1.377 . S
C2828 C2826 1.389 . S
C2828 C2829 1.524 . S
C2828 C2842 1.377 . S
C2829 C2828 1.524 . S
C2829 C2830 1.397 . S
C2829 C2834 1.363 . S
C2830 H2807 0.950 . S
C2830 C2829 1.397 . S
C2830 C2831 1.334 . S
C2831 H2808 0.950 . S
C2831 C2830 1.334 . S
C2831 C2832 1.287 . S
C2832 C2831 1.287 . S
C2832 C2833 1.524 . S
C2832 H2851 0.913 . S
C2833 H2809 0.950 . S
C2833 C2832 1.524 . S
C2833 C2834 1.415 . S
C2834 H2810 0.950 . S
C2834 C2829 1.363 . S
C2834 C2833 1.415 . S
C2835 H2811 0.951 . S
C2835 C2836 1.366 . S
C2835 C2837 1.388 . S
C2836 C2835 1.366 . S
C2836 C2840 1.385 . S
C2837 H2812 0.951 . S
C2837 C2835 1.388 . S
C2837 C2838 1.366 . S
C2838 C2837 1.366 . S
C2838 C2839 1.414 . S
C2838 C2841 1.499 . S
C2839 H2813 0.950 . S
C2839 C2838 1.414 . S
C2839 C2840 1.374 . S
C2840 H2814 0.950 . S
C2840 C2836 1.385 . S
C2840 C2839 1.374 . S
C2841 C2838 1.499 . S
C2841 C2842 1.373 . S
C2841 C2843 1.389 . S
C2842 H2815 0.950 . S
C2842 C2828 1.377 . S
C2842 C2841 1.373 . S
C2843 C2827 1.377 . S
C2843 C2841 1.389 . S
C2843 C2844 1.524 . S
C2844 C2843 1.524 . S
C2844 C2845 1.397 . S
C2844 C2849 1.363 . S
C2845 H2816 0.950 . S
C2845 C2844 1.397 . S
C2845 C2846 1.334 . S
C2846 H2817 0.950 . S
C2846 C2845 1.334 . S
C2846 C2847 1.287 . S
C2847 C2846 1.287 . S
C2847 C2848 1.524 . S
C2847 H2850 0.999 . S
C2848 H2818 0.950 . S
C2848 C2847 1.524 . S
C2848 C2849 1.415 . S
C2849 H2819 0.950 . S
C2849 C2844 1.363 . S
C2849 C2848 1.415 . S
H2850 C2847 0.999 . S
H2851 C2832 0.913 . S
H2852 C2870 0.951 . S
H2853 C2872 0.951 . S
H2854 C2874 0.950 . S
H2855 C2875 0.950 . S
H2856 C2877 0.950 . S
H2857 C2880 0.950 . S
H2858 C2881 0.950 . S
H2859 C2883 0.950 . S
H2860 C2884 0.950 . S
H2861 C2885 0.951 . S
H2862 C2887 0.951 . S
H2863 C2889 0.950 . S
H2864 C2890 0.950 . S
H2865 C2892 0.950 . S
H2866 C2895 0.945 1_565 S
H2867 C2896 0.950 . S
H2868 C2898 0.950 . S
H2869 C2899 0.950 . S
C2870 H2852 0.951 . S
C2870 C2871 1.366 . S
C2870 C2872 1.388 . S
C2871 C2870 1.366 . S
C2871 C2875 1.385 . S
C2872 H2853 0.951 . S
C2872 C2870 1.388 . S
C2872 C2873 1.366 . S
C2873 C2872 1.366 . S
C2873 C2874 1.414 . S
C2873 C2876 1.499 . S
C2874 H2854 0.950 . S
C2874 C2873 1.414 . S
C2874 C2875 1.374 . S
C2875 H2855 0.950 . S
C2875 C2871 1.385 . S
C2875 C2874 1.374 . S
C2876 C2873 1.499 . S
C2876 C2877 1.373 . S
C2876 C2878 1.389 . S
C2877 H2856 0.950 . S
C2877 C2876 1.373 . S
C2877 C2893 1.377 . S
C2878 C2876 1.389 . S
C2878 C2879 1.524 . S
C2878 C2892 1.377 . S
C2879 C2878 1.524 . S
C2879 C2880 1.397 . S
C2879 C2884 1.363 . S
C2880 H2857 0.950 . S
C2880 C2879 1.397 . S
C2880 C2881 1.334 . S
C2881 H2858 0.950 . S
C2881 C2880 1.334 . S
C2881 C2882 1.287 . S
C2882 C2881 1.287 . S
C2882 C2883 1.524 . S
C2882 H2901 0.913 . S
C2883 H2859 0.950 . S
C2883 C2882 1.524 . S
C2883 C2884 1.415 . S
C2884 H2860 0.950 . S
C2884 C2879 1.363 . S
C2884 C2883 1.415 . S
C2885 H2861 0.951 . S
C2885 C2886 1.366 . S
C2885 C2887 1.388 . S
C2886 C2885 1.366 . S
C2886 C2890 1.385 . S
C2887 H2862 0.951 . S
C2887 C2885 1.388 . S
C2887 C2888 1.366 . S
C2888 C2887 1.366 . S
C2888 C2889 1.414 . S
C2888 C2891 1.499 . S
C2889 H2863 0.950 . S
C2889 C2888 1.414 . S
C2889 C2890 1.374 . S
C2890 H2864 0.950 . S
C2890 C2886 1.385 . S
C2890 C2889 1.374 . S
C2891 C2888 1.499 . S
C2891 C2892 1.373 . S
C2891 C2893 1.389 . S
C2892 H2865 0.950 . S
C2892 C2878 1.377 . S
C2892 C2891 1.373 . S
C2893 C2877 1.377 . S
C2893 C2891 1.389 . S
C2893 C2894 1.524 . S
C2894 C2893 1.524 . S
C2894 C2895 1.397 . S
C2894 C2899 1.363 . S
C2895 H2866 0.945 1_545 S
C2895 C2894 1.397 . S
C2895 C2896 1.334 1_545 S
C2896 H2867 0.950 . S
C2896 C2895 1.334 1_565 S
C2896 C2897 1.287 . S
C2897 C2896 1.287 . S
C2897 C2898 1.524 1_565 S
C2897 H2900 0.999 . S
C2898 H2868 0.950 . S
C2898 C2897 1.524 1_545 S
C2898 C2899 1.415 . S
C2899 H2869 0.950 . S
C2899 C2894 1.363 . S
C2899 C2898 1.415 . S
H2900 C2897 0.999 . S
H2901 C2882 0.913 . S
H2902 C2920 0.951 . S
H2903 C2922 0.951 . S
H2904 C2924 0.950 . S
H2905 C2925 0.950 . S
H2906 C2927 0.950 . S
H2907 C2930 0.950 . S
H2908 C2931 0.950 . S
H2909 C2933 0.950 . S
H2910 C2934 0.950 . S
H2911 C2935 0.951 . S
H2912 C2937 0.951 . S
H2913 C2939 0.950 . S
H2914 C2940 0.950 . S
H2915 C2942 0.950 . S
H2916 C2945 0.950 . S
H2917 C2946 0.950 . S
H2918 C2948 0.950 . S
H2919 C2949 0.950 . S
C2920 H2902 0.951 . S
C2920 C2921 1.366 . S
C2920 C2922 1.388 . S
C2921 C2920 1.366 . S
C2921 C2925 1.385 . S
C2922 H2903 0.951 . S
C2922 C2920 1.388 . S
C2922 C2923 1.366 . S
C2923 C2922 1.366 . S
C2923 C2924 1.414 . S
C2923 C2926 1.499 . S
C2924 H2904 0.950 . S
C2924 C2923 1.414 . S
C2924 C2925 1.374 . S
C2925 H2905 0.950 . S
C2925 C2921 1.385 . S
C2925 C2924 1.374 . S
C2926 C2923 1.499 . S
C2926 C2927 1.373 . S
C2926 C2928 1.389 . S
C2927 H2906 0.950 . S
C2927 C2926 1.373 . S
C2927 C2943 1.377 . S
C2928 C2926 1.389 . S
C2928 C2929 1.524 . S
C2928 C2942 1.377 . S
C2929 C2928 1.524 . S
C2929 C2930 1.397 . S
C2929 C2934 1.363 . S
C2930 H2907 0.950 . S
C2930 C2929 1.397 . S
C2930 C2931 1.334 . S
C2931 H2908 0.950 . S
C2931 C2930 1.334 . S
C2931 C2932 1.287 . S
C2932 C2931 1.287 . S
C2932 C2933 1.524 . S
C2932 H2951 0.913 . S
C2933 H2909 0.950 . S
C2933 C2932 1.524 . S
C2933 C2934 1.415 . S
C2934 H2910 0.950 . S
C2934 C2929 1.363 . S
C2934 C2933 1.415 . S
C2935 H2911 0.951 . S
C2935 C2936 1.366 . S
C2935 C2937 1.388 . S
C2936 C2935 1.366 . S
C2936 C2940 1.385 . S
C2937 H2912 0.951 . S
C2937 C2935 1.388 . S
C2937 C2938 1.366 . S
C2938 C2937 1.366 . S
C2938 C2939 1.414 . S
C2938 C2941 1.499 . S
C2939 H2913 0.950 . S
C2939 C2938 1.414 . S
C2939 C2940 1.374 . S
C2940 H2914 0.950 . S
C2940 C2936 1.385 . S
C2940 C2939 1.374 . S
C2941 C2938 1.499 . S
C2941 C2942 1.373 . S
C2941 C2943 1.389 . S
C2942 H2915 0.950 . S
C2942 C2928 1.377 . S
C2942 C2941 1.373 . S
C2943 C2927 1.377 . S
C2943 C2941 1.389 . S
C2943 C2944 1.524 . S
C2944 C2943 1.524 . S
C2944 C2945 1.397 . S
C2944 C2949 1.363 . S
C2945 H2916 0.950 . S
C2945 C2944 1.397 . S
C2945 C2946 1.334 . S
C2946 H2917 0.950 . S
C2946 C2945 1.334 . S
C2946 C2947 1.287 . S
C2947 C2946 1.287 . S
C2947 C2948 1.524 . S
C2947 H2950 0.999 . S
C2948 H2918 0.950 . S
C2948 C2947 1.524 . S
C2948 C2949 1.415 . S
C2949 H2919 0.950 . S
C2949 C2944 1.363 . S
C2949 C2948 1.415 . S
H2950 C2947 0.999 . S
H2951 C2932 0.913 . S
H2952 C2970 0.951 . S
H2953 C2972 0.951 . S
H2954 C2974 0.950 . S
H2955 C2975 0.950 . S
H2956 C2977 0.950 . S
H2957 C2980 0.950 . S
H2958 C2981 0.950 . S
H2959 C2983 0.950 . S
H2960 C2984 0.950 . S
H2961 C2985 0.951 . S
H2962 C2987 0.951 . S
H2963 C2989 0.950 . S
H2964 C2990 0.950 . S
H2965 C2992 0.950 . S
H2966 C2995 0.950 . S
H2967 C2996 0.950 . S
H2968 C2998 0.950 . S
H2969 C2999 0.950 1_554 S
C2970 H2952 0.951 . S
C2970 C2971 1.366 . S
C2970 C2972 1.388 . S
C2971 C2970 1.366 . S
C2971 C2975 1.385 . S
C2972 H2953 0.951 . S
C2972 C2970 1.388 . S
C2972 C2973 1.366 . S
C2973 C2972 1.366 . S
C2973 C2974 1.414 . S
C2973 C2976 1.499 . S
C2974 H2954 0.950 . S
C2974 C2973 1.414 . S
C2974 C2975 1.374 . S
C2975 H2955 0.950 . S
C2975 C2971 1.385 . S
C2975 C2974 1.374 . S
C2976 C2973 1.499 . S
C2976 C2977 1.373 . S
C2976 C2978 1.389 . S
C2977 H2956 0.950 . S
C2977 C2976 1.373 . S
C2977 C2993 1.377 . S
C2978 C2976 1.389 . S
C2978 C2979 1.524 . S
C2978 C2992 1.377 . S
C2979 C2978 1.524 . S
C2979 C2980 1.397 . S
C2979 C2984 1.363 . S
C2980 H2957 0.950 . S
C2980 C2979 1.397 . S
C2980 C2981 1.334 . S
C2981 H2958 0.950 . S
C2981 C2980 1.334 . S
C2981 C2982 1.287 . S
C2982 C2981 1.287 . S
C2982 C2983 1.524 . S
C2982 H3001 0.913 . S
C2983 H2959 0.950 . S
C2983 C2982 1.524 . S
C2983 C2984 1.415 . S
C2984 H2960 0.950 . S
C2984 C2979 1.363 . S
C2984 C2983 1.415 . S
C2985 H2961 0.951 . S
C2985 C2986 1.366 . S
C2985 C2987 1.388 . S
C2986 C2985 1.366 . S
C2986 C2990 1.385 . S
C2987 H2962 0.951 . S
C2987 C2985 1.388 . S
C2987 C2988 1.366 . S
C2988 C2987 1.366 . S
C2988 C2989 1.414 . S
C2988 C2991 1.499 . S
C2989 H2963 0.950 . S
C2989 C2988 1.414 . S
C2989 C2990 1.374 . S
C2990 H2964 0.950 . S
C2990 C2986 1.385 . S
C2990 C2989 1.374 . S
C2991 C2988 1.499 . S
C2991 C2992 1.373 . S
C2991 C2993 1.389 . S
C2992 H2965 0.950 . S
C2992 C2978 1.377 . S
C2992 C2991 1.373 . S
C2993 C2977 1.377 . S
C2993 C2991 1.389 . S
C2993 C2994 1.580 . S
C2994 C2993 1.580 . S
C2994 C2995 1.355 1_554 S
C2994 C2999 1.352 1_554 S
C2995 H2966 0.950 . S
C2995 C2994 1.355 1_556 S
C2995 C2996 1.334 . S
C2996 H2967 0.950 . S
C2996 C2995 1.334 . S
C2996 C2997 1.287 . S
C2997 C2996 1.287 . S
C2997 C2998 1.524 . S
C2997 H3000 0.999 . S
C2998 H2968 0.950 . S
C2998 C2997 1.524 . S
C2998 C2999 1.415 . S
C2999 H2969 0.950 1_556 S
C2999 C2994 1.352 1_556 S
C2999 C2998 1.415 . S
H3000 C2997 0.999 . S
H3001 C2982 0.913 . S
H3002 C3020 0.951 . S
H3003 C3022 0.951 . S
H3004 C3024 0.950 . S
H3005 C3025 0.950 . S
H3006 C3027 0.950 . S
H3007 C3030 0.950 . S
H3008 C3031 0.950 . S
H3009 C3033 0.950 . S
H3010 C3034 0.950 . S
H3011 C3035 0.951 . S
H3012 C3037 0.951 . S
H3013 C3039 0.950 . S
H3014 C3040 0.950 . S
H3015 C3042 0.950 1_556 S
H3016 C3045 0.950 . S
H3017 C3046 0.950 . S
H3018 C3048 0.950 . S
H3019 C3049 0.950 . S
C3020 H3002 0.951 . S
C3020 C3021 1.366 . S
C3020 C3022 1.388 . S
C3021 C3020 1.366 . S
C3021 C3025 1.385 . S
C3022 H3003 0.951 . S
C3022 C3020 1.388 . S
C3022 C3023 1.366 . S
C3023 C3022 1.366 . S
C3023 C3024 1.414 . S
C3023 C3026 1.499 . S
C3024 H3004 0.950 . S
C3024 C3023 1.414 . S
C3024 C3025 1.374 . S
C3025 H3005 0.950 . S
C3025 C3021 1.385 . S
C3025 C3024 1.374 . S
C3026 C3023 1.499 . S
C3026 C3027 1.373 . S
C3026 C3028 1.389 . S
C3027 H3006 0.950 . S
C3027 C3026 1.373 . S
C3027 C3043 1.377 . S
C3028 C3026 1.389 . S
C3028 C3029 1.524 1_554 S
C3028 C3042 1.377 . S
C3029 C3028 1.524 1_556 S
C3029 C3030 1.397 . S
C3029 C3034 1.363 . S
C3030 H3007 0.950 . S
C3030 C3029 1.397 . S
C3030 C3031 1.334 . S
C3031 H3008 0.950 . S
C3031 C3030 1.334 . S
C3031 C3032 1.287 . S
C3032 C3031 1.287 . S
C3032 C3033 1.524 . S
C3032 H3051 0.913 . S
C3033 H3009 0.950 . S
C3033 C3032 1.524 . S
C3033 C3034 1.415 . S
C3034 H3010 0.950 . S
C3034 C3029 1.363 . S
C3034 C3033 1.415 . S
C3035 H3011 0.951 . S
C3035 C3036 1.366 . S
C3035 C3037 1.388 . S
C3036 C3035 1.366 . S
C3036 C3040 1.385 . S
C3037 H3012 0.951 . S
C3037 C3035 1.388 . S
C3037 C3038 1.366 . S
C3038 C3037 1.366 . S
C3038 C3039 1.414 . S
C3038 C3041 1.499 . S
C3039 H3013 0.950 . S
C3039 C3038 1.414 . S
C3039 C3040 1.374 . S
C3040 H3014 0.950 . S
C3040 C3036 1.385 . S
C3040 C3039 1.374 . S
C3041 C3038 1.499 . S
C3041 C3042 1.373 . S
C3041 C3043 1.389 . S
C3042 H3015 0.950 1_554 S
C3042 C3028 1.377 . S
C3042 C3041 1.373 . S
C3043 C3027 1.377 . S
C3043 C3041 1.389 . S
C3043 C3044 1.524 . S
C3044 C3043 1.524 . S
C3044 C3045 1.397 . S
C3044 C3049 1.363 . S
C3045 H3016 0.950 . S
C3045 C3044 1.397 . S
C3045 C3046 1.334 . S
C3046 H3017 0.950 . S
C3046 C3045 1.334 . S
C3046 C3047 1.287 . S
C3047 C3046 1.287 . S
C3047 C3048 1.524 . S
C3047 H3050 0.999 . S
C3048 H3018 0.950 . S
C3048 C3047 1.524 . S
C3048 C3049 1.415 . S
C3049 H3019 0.950 . S
C3049 C3044 1.363 . S
C3049 C3048 1.415 . S
H3050 C3047 0.999 . S
H3051 C3032 0.913 . S
H3052 C3070 0.951 . S
H3053 C3072 0.951 . S
H3054 C3074 0.950 . S
H3055 C3075 0.950 . S
H3056 C3077 0.950 . S
H3057 C3080 0.950 . S
H3058 C3081 0.950 . S
H3059 C3083 0.950 . S
H3060 C3084 0.950 . S
H3061 C3085 0.951 . S
H3062 C3087 0.951 . S
H3063 C3089 0.950 . S
H3064 C3090 0.950 . S
H3065 C3092 0.950 . S
H3066 C3095 0.950 . S
H3067 C3096 0.950 . S
H3068 C3098 0.950 . S
H3069 C3099 0.950 . S
C3070 H3052 0.951 . S
C3070 C3071 1.366 . S
C3070 C3072 1.388 . S
C3071 C3070 1.366 . S
C3071 C3075 1.385 . S
C3072 H3053 0.951 . S
C3072 C3070 1.388 . S
C3072 C3073 1.366 . S
C3073 C3072 1.366 . S
C3073 C3074 1.414 . S
C3073 C3076 1.499 . S
C3074 H3054 0.950 . S
C3074 C3073 1.414 . S
C3074 C3075 1.374 . S
C3075 H3055 0.950 . S
C3075 C3071 1.385 . S
C3075 C3074 1.374 . S
C3076 C3073 1.499 . S
C3076 C3077 1.373 . S
C3076 C3078 1.389 . S
C3077 H3056 0.950 . S
C3077 C3076 1.373 . S
C3077 C3093 1.377 . S
C3078 C3076 1.389 . S
C3078 C3079 1.524 . S
C3078 C3092 1.377 . S
C3079 C3078 1.524 . S
C3079 C3080 1.397 . S
C3079 C3084 1.363 . S
C3080 H3057 0.950 . S
C3080 C3079 1.397 . S
C3080 C3081 1.334 . S
C3081 H3058 0.950 . S
C3081 C3080 1.334 . S
C3081 C3082 1.287 . S
C3082 C3081 1.287 . S
C3082 C3083 1.524 . S
C3082 H3101 0.913 . S
C3083 H3059 0.950 . S
C3083 C3082 1.524 . S
C3083 C3084 1.415 . S
C3084 H3060 0.950 . S
C3084 C3079 1.363 . S
C3084 C3083 1.415 . S
C3085 H3061 0.951 . S
C3085 C3086 1.366 . S
C3085 C3087 1.388 . S
C3086 C3085 1.366 . S
C3086 C3090 1.385 . S
C3087 H3062 0.951 . S
C3087 C3085 1.388 . S
C3087 C3088 1.366 . S
C3088 C3087 1.366 . S
C3088 C3089 1.414 . S
C3088 C3091 1.499 . S
C3089 H3063 0.950 . S
C3089 C3088 1.414 . S
C3089 C3090 1.374 . S
C3090 H3064 0.950 . S
C3090 C3086 1.385 . S
C3090 C3089 1.374 . S
C3091 C3088 1.499 . S
C3091 C3092 1.373 . S
C3091 C3093 1.389 . S
C3092 H3065 0.950 . S
C3092 C3078 1.377 . S
C3092 C3091 1.373 . S
C3093 C3077 1.377 . S
C3093 C3091 1.389 . S
C3093 C3094 1.524 . S
C3094 C3093 1.524 . S
C3094 C3095 1.397 . S
C3094 C3099 1.363 . S
C3095 H3066 0.950 . S
C3095 C3094 1.397 . S
C3095 C3096 1.334 . S
C3096 H3067 0.950 . S
C3096 C3095 1.334 . S
C3096 C3097 1.287 . S
C3097 C3096 1.287 . S
C3097 C3098 1.524 . S
C3097 H3100 0.999 . S
C3098 H3068 0.950 . S
C3098 C3097 1.524 . S
C3098 C3099 1.415 . S
C3099 H3069 0.950 . S
C3099 C3094 1.363 . S
C3099 C3098 1.415 . S
H3100 C3097 0.999 . S
H3101 C3082 0.913 . S
H3102 C3120 0.951 . S
H3103 C3122 0.951 . S
H3104 C3124 0.950 . S
H3105 C3125 0.950 . S
H3106 C3127 0.950 . S
H3107 C3130 0.950 . S
H3108 C3131 0.950 . S
H3109 C3133 0.950 . S
H3110 C3134 0.950 . S
H3111 C3135 0.951 . S
H3112 C3137 0.951 . S
H3113 C3139 0.950 . S
H3114 C3140 0.950 . S
H3115 C3142 0.950 . S
H3116 C3145 0.950 . S
H3117 C3146 0.950 . S
H3118 C3148 0.950 . S
H3119 C3149 0.950 . S
C3120 H3102 0.951 . S
C3120 C3121 1.366 . S
C3120 C3122 1.388 . S
C3121 C3120 1.366 . S
C3121 C3125 1.385 . S
C3122 H3103 0.951 . S
C3122 C3120 1.388 . S
C3122 C3123 1.366 . S
C3123 C3122 1.366 . S
C3123 C3124 1.414 . S
C3123 C3126 1.499 . S
C3124 H3104 0.950 . S
C3124 C3123 1.414 . S
C3124 C3125 1.374 . S
C3125 H3105 0.950 . S
C3125 C3121 1.385 . S
C3125 C3124 1.374 . S
C3126 C3123 1.499 . S
C3126 C3127 1.373 . S
C3126 C3128 1.389 . S
C3127 H3106 0.950 . S
C3127 C3126 1.373 . S
C3127 C3143 1.377 . S
C3128 C3126 1.389 . S
C3128 C3129 1.524 . S
C3128 C3142 1.377 . S
C3129 C3128 1.524 . S
C3129 C3130 1.397 . S
C3129 C3134 1.363 . S
C3130 H3107 0.950 . S
C3130 C3129 1.397 . S
C3130 C3131 1.334 . S
C3131 H3108 0.950 . S
C3131 C3130 1.334 . S
C3131 C3132 1.287 . S
C3132 C3131 1.287 . S
C3132 C3133 1.524 . S
C3132 H3151 0.913 . S
C3133 H3109 0.950 . S
C3133 C3132 1.524 . S
C3133 C3134 1.415 . S
C3134 H3110 0.950 . S
C3134 C3129 1.363 . S
C3134 C3133 1.415 . S
C3135 H3111 0.951 . S
C3135 C3136 1.366 . S
C3135 C3137 1.388 . S
C3136 C3135 1.366 . S
C3136 C3140 1.385 . S
C3137 H3112 0.951 . S
C3137 C3135 1.388 . S
C3137 C3138 1.366 . S
C3138 C3137 1.366 . S
C3138 C3139 1.414 . S
C3138 C3141 1.499 . S
C3139 H3113 0.950 . S
C3139 C3138 1.414 . S
C3139 C3140 1.374 . S
C3140 H3114 0.950 . S
C3140 C3136 1.385 . S
C3140 C3139 1.374 . S
C3141 C3138 1.499 . S
C3141 C3142 1.373 . S
C3141 C3143 1.389 . S
C3142 H3115 0.950 . S
C3142 C3128 1.377 . S
C3142 C3141 1.373 . S
C3143 C3127 1.377 . S
C3143 C3141 1.389 . S
C3143 C3144 1.524 . S
C3144 C3143 1.524 . S
C3144 C3145 1.397 . S
C3144 C3149 1.363 . S
C3145 H3116 0.950 . S
C3145 C3144 1.397 . S
C3145 C3146 1.334 . S
C3146 H3117 0.950 . S
C3146 C3145 1.334 . S
C3146 C3147 1.287 . S
C3147 C3146 1.287 . S
C3147 C3148 1.524 . S
C3147 H3150 0.999 . S
C3148 H3118 0.950 . S
C3148 C3147 1.524 . S
C3148 C3149 1.415 . S
C3149 H3119 0.950 . S
C3149 C3144 1.363 . S
C3149 C3148 1.415 . S
H3150 C3147 0.999 . S
H3151 C3132 0.913 . S
H3152 C3170 0.951 . S
H3153 C3172 0.951 . S
H3154 C3174 0.950 . S
H3155 C3175 0.950 1_545 S
H3156 C3177 0.950 . S
H3157 C3180 0.950 . S
H3158 C3181 0.950 . S
H3159 C3183 0.950 . S
H3160 C3184 0.950 . S
H3161 C3185 0.951 . S
H3162 C3187 0.951 . S
H3163 C3189 0.950 . S
H3164 C3190 0.950 . S
H3165 C3192 0.950 . S
H3166 C3195 0.950 . S
H3167 C3196 0.950 . S
H3168 C3198 0.950 . S
H3169 C3199 0.950 . S
C3170 H3152 0.951 . S
C3170 C3171 1.366 . S
C3170 C3172 1.388 . S
C3171 C3170 1.366 . S
C3171 C3175 1.385 . S
C3172 H3153 0.951 . S
C3172 C3170 1.388 . S
C3172 C3173 1.366 . S
C3173 C3172 1.366 . S
C3173 C3174 1.414 . S
C3173 C3176 1.499 . S
C3174 H3154 0.950 . S
C3174 C3173 1.414 . S
C3174 C3175 1.374 . S
C3175 H3155 0.950 1_565 S
C3175 C3171 1.385 . S
C3175 C3174 1.374 . S
C3176 C3173 1.499 . S
C3176 C3177 1.373 . S
C3176 C3178 1.389 . S
C3177 H3156 0.950 . S
C3177 C3176 1.373 . S
C3177 C3193 1.377 . S
C3178 C3176 1.389 . S
C3178 C3179 1.524 . S
C3178 C3192 1.377 . S
C3179 C3178 1.524 . S
C3179 C3180 1.397 . S
C3179 C3184 1.363 . S
C3180 H3157 0.950 . S
C3180 C3179 1.397 . S
C3180 C3181 1.334 . S
C3181 H3158 0.950 . S
C3181 C3180 1.334 . S
C3181 C3182 1.287 . S
C3182 C3181 1.287 . S
C3182 C3183 1.524 . S
C3182 H3201 0.913 . S
C3183 H3159 0.950 . S
C3183 C3182 1.524 . S
C3183 C3184 1.415 . S
C3184 H3160 0.950 . S
C3184 C3179 1.363 . S
C3184 C3183 1.415 . S
C3185 H3161 0.951 . S
C3185 C3186 1.366 . S
C3185 C3187 1.388 . S
C3186 C3185 1.366 . S
C3186 C3190 1.385 . S
C3187 H3162 0.951 . S
C3187 C3185 1.388 . S
C3187 C3188 1.366 . S
C3188 C3187 1.366 . S
C3188 C3189 1.414 . S
C3188 C3191 1.499 . S
C3189 H3163 0.950 . S
C3189 C3188 1.414 . S
C3189 C3190 1.374 . S
C3190 H3164 0.950 . S
C3190 C3186 1.385 . S
C3190 C3189 1.374 . S
C3191 C3188 1.499 . S
C3191 C3192 1.373 . S
C3191 C3193 1.389 . S
C3192 H3165 0.950 . S
C3192 C3178 1.377 . S
C3192 C3191 1.373 . S
C3193 C3177 1.377 . S
C3193 C3191 1.389 . S
C3193 C3194 1.524 . S
C3194 C3193 1.524 . S
C3194 C3195 1.397 . S
C3194 C3199 1.363 . S
C3195 H3166 0.950 . S
C3195 C3194 1.397 . S
C3195 C3196 1.334 . S
C3196 H3167 0.950 . S
C3196 C3195 1.334 . S
C3196 C3197 1.287 . S
C3197 C3196 1.287 . S
C3197 C3198 1.524 . S
C3197 H3200 0.999 . S
C3198 H3168 0.950 . S
C3198 C3197 1.524 . S
C3198 C3199 1.415 . S
C3199 H3169 0.950 . S
C3199 C3194 1.363 . S
C3199 C3198 1.415 . S
H3200 C3197 0.999 . S
H3201 C3182 0.913 . S
H3202 C3220 0.951 . S
H3203 C3222 0.951 . S
H3204 C3224 0.950 . S
H3205 C3225 0.950 . S
H3206 C3227 0.950 . S
H3207 C3230 0.950 . S
H3208 C3231 0.950 . S
H3209 C3233 0.950 . S
H3210 C3234 0.950 . S
H3211 C3235 0.951 . S
H3212 C3237 0.951 . S
H3213 C3239 0.950 . S
H3214 C3240 0.950 . S
H3215 C3242 0.950 . S
H3216 C3245 0.950 . S
H3217 C3246 0.950 . S
H3218 C3248 0.950 . S
H3219 C3249 0.950 . S
C3220 H3202 0.951 . S
C3220 C3221 1.366 . S
C3220 C3222 1.388 . S
C3221 C3220 1.366 . S
C3221 C3225 1.385 . S
C3222 H3203 0.951 . S
C3222 C3220 1.388 . S
C3222 C3223 1.366 . S
C3223 C3222 1.366 . S
C3223 C3224 1.414 . S
C3223 C3226 1.499 . S
C3224 H3204 0.950 . S
C3224 C3223 1.414 . S
C3224 C3225 1.374 . S
C3225 H3205 0.950 . S
C3225 C3221 1.385 . S
C3225 C3224 1.374 . S
C3226 C3223 1.499 . S
C3226 C3227 1.373 . S
C3226 C3228 1.389 . S
C3227 H3206 0.950 . S
C3227 C3226 1.373 . S
C3227 C3243 1.377 . S
C3228 C3226 1.389 . S
C3228 C3229 1.524 . S
C3228 C3242 1.377 . S
C3229 C3228 1.524 . S
C3229 C3230 1.397 . S
C3229 C3234 1.363 . S
C3230 H3207 0.950 . S
C3230 C3229 1.397 . S
C3230 C3231 1.334 . S
C3231 H3208 0.950 . S
C3231 C3230 1.334 . S
C3231 C3232 1.287 . S
C3232 C3231 1.287 . S
C3232 C3233 1.524 . S
C3232 H3251 0.913 . S
C3233 H3209 0.950 . S
C3233 C3232 1.524 . S
C3233 C3234 1.415 . S
C3234 H3210 0.950 . S
C3234 C3229 1.363 . S
C3234 C3233 1.415 . S
C3235 H3211 0.951 . S
C3235 C3236 1.366 . S
C3235 C3237 1.388 . S
C3236 C3235 1.366 . S
C3236 C3240 1.385 . S
C3237 H3212 0.951 . S
C3237 C3235 1.388 . S
C3237 C3238 1.366 . S
C3238 C3237 1.366 . S
C3238 C3239 1.414 . S
C3238 C3241 1.499 . S
C3239 H3213 0.950 . S
C3239 C3238 1.414 . S
C3239 C3240 1.374 . S
C3240 H3214 0.950 . S
C3240 C3236 1.385 . S
C3240 C3239 1.374 . S
C3241 C3238 1.499 . S
C3241 C3242 1.373 . S
C3241 C3243 1.389 . S
C3242 H3215 0.950 . S
C3242 C3228 1.377 . S
C3242 C3241 1.373 . S
C3243 C3227 1.377 . S
C3243 C3241 1.389 . S
C3243 C3244 1.524 . S
C3244 C3243 1.524 . S
C3244 C3245 1.397 . S
C3244 C3249 1.363 . S
C3245 H3216 0.950 . S
C3245 C3244 1.397 . S
C3245 C3246 1.334 . S
C3246 H3217 0.950 . S
C3246 C3245 1.334 . S
C3246 C3247 1.287 . S
C3247 C3246 1.287 . S
C3247 C3248 1.524 . S
C3247 H3250 0.999 . S
C3248 H3218 0.950 . S
C3248 C3247 1.524 . S
C3248 C3249 1.415 . S
C3249 H3219 0.950 . S
C3249 C3244 1.363 . S
C3249 C3248 1.415 . S
H3250 C3247 0.999 . S
H3251 C3232 0.913 . S
H3252 C3270 0.951 . S
H3253 C3272 0.951 . S
H3254 C3274 0.950 . S
H3255 C3275 0.950 . S
H3256 C3277 0.950 . S
H3257 C3280 0.950 . S
H3258 C3281 0.950 . S
H3259 C3283 0.950 . S
H3260 C3284 0.950 . S
H3261 C3285 0.951 . S
H3262 C3287 0.951 . S
H3263 C3289 0.950 . S
H3264 C3290 0.950 . S
H3265 C3292 0.950 . S
H3266 C3295 0.950 . S
H3267 C3296 0.950 . S
H3268 C3298 0.950 . S
H3269 C3299 0.950 . S
C3270 H3252 0.951 . S
C3270 C3271 1.366 . S
C3270 C3272 1.388 . S
C3271 C3270 1.366 . S
C3271 C3275 1.385 . S
C3272 H3253 0.951 . S
C3272 C3270 1.388 . S
C3272 C3273 1.366 . S
C3273 C3272 1.366 . S
C3273 C3274 1.414 . S
C3273 C3276 1.499 . S
C3274 H3254 0.950 . S
C3274 C3273 1.414 . S
C3274 C3275 1.374 . S
C3275 H3255 0.950 . S
C3275 C3271 1.385 . S
C3275 C3274 1.374 . S
C3276 C3273 1.499 . S
C3276 C3277 1.373 . S
C3276 C3278 1.389 . S
C3277 H3256 0.950 . S
C3277 C3276 1.373 . S
C3277 C3293 1.377 . S
C3278 C3276 1.389 . S
C3278 C3279 1.524 . S
C3278 C3292 1.377 . S
C3279 C3278 1.524 . S
C3279 C3280 1.397 . S
C3279 C3284 1.363 . S
C3280 H3257 0.950 . S
C3280 C3279 1.397 . S
C3280 C3281 1.334 . S
C3281 H3258 0.950 . S
C3281 C3280 1.334 . S
C3281 C3282 1.287 . S
C3282 C3281 1.287 . S
C3282 C3283 1.524 . S
C3282 H3301 0.913 . S
C3283 H3259 0.950 . S
C3283 C3282 1.524 . S
C3283 C3284 1.415 . S
C3284 H3260 0.950 . S
C3284 C3279 1.363 . S
C3284 C3283 1.415 . S
C3285 H3261 0.951 . S
C3285 C3286 1.366 . S
C3285 C3287 1.388 . S
C3286 C3285 1.366 . S
C3286 C3290 1.385 . S
C3287 H3262 0.951 . S
C3287 C3285 1.388 . S
C3287 C3288 1.366 . S
C3288 C3287 1.366 . S
C3288 C3289 1.414 . S
C3288 C3291 1.499 . S
C3289 H3263 0.950 . S
C3289 C3288 1.414 . S
C3289 C3290 1.374 . S
C3290 H3264 0.950 . S
C3290 C3286 1.385 . S
C3290 C3289 1.374 . S
C3291 C3288 1.499 . S
C3291 C3292 1.373 . S
C3291 C3293 1.389 . S
C3292 H3265 0.950 . S
C3292 C3278 1.377 . S
C3292 C3291 1.373 . S
C3293 C3277 1.377 . S
C3293 C3291 1.389 . S
C3293 C3294 1.524 . S
C3294 C3293 1.524 . S
C3294 C3295 1.397 . S
C3294 C3299 1.363 . S
C3295 H3266 0.950 . S
C3295 C3294 1.397 . S
C3295 C3296 1.334 . S
C3296 H3267 0.950 . S
C3296 C3295 1.334 . S
C3296 C3297 1.287 . S
C3297 C3296 1.287 . S
C3297 C3298 1.524 . S
C3297 H3300 0.999 . S
C3298 H3268 0.950 . S
C3298 C3297 1.524 . S
C3298 C3299 1.415 . S
C3299 H3269 0.950 . S
C3299 C3294 1.363 . S
C3299 C3298 1.415 . S
H3300 C3297 0.999 . S
H3301 C3282 0.913 . S
H3302 C3320 0.951 . S
H3303 C3322 0.951 . S
H3304 C3324 0.950 . S
H3305 C3325 0.950 . S
H3306 C3327 0.950 . S
H3307 C3330 0.950 . S
H3308 C3331 0.950 . S
H3309 C3333 0.950 . S
H3310 C3334 0.950 . S
H3311 C3335 0.951 . S
H3312 C3337 0.951 . S
H3313 C3339 0.950 . S
H3314 C3340 0.950 . S
H3315 C3342 0.950 . S
H3316 C3345 0.950 . S
H3317 C3346 0.950 . S
H3318 C3348 0.950 . S
H3319 C3349 0.950 . S
C3320 H3302 0.951 . S
C3320 C3321 1.366 . S
C3320 C3322 1.388 . S
C3321 C3320 1.366 . S
C3321 C3325 1.385 . S
C3322 H3303 0.951 . S
C3322 C3320 1.388 . S
C3322 C3323 1.366 . S
C3323 C3322 1.366 . S
C3323 C3324 1.414 . S
C3323 C3326 1.499 . S
C3324 H3304 0.950 . S
C3324 C3323 1.414 . S
C3324 C3325 1.374 . S
C3325 H3305 0.950 . S
C3325 C3321 1.385 . S
C3325 C3324 1.374 . S
C3326 C3323 1.499 . S
C3326 C3327 1.373 . S
C3326 C3328 1.389 . S
C3327 H3306 0.950 . S
C3327 C3326 1.373 . S
C3327 C3343 1.377 . S
C3328 C3326 1.389 . S
C3328 C3329 1.524 . S
C3328 C3342 1.377 . S
C3329 C3328 1.524 . S
C3329 C3330 1.397 . S
C3329 C3334 1.363 . S
C3330 H3307 0.950 . S
C3330 C3329 1.397 . S
C3330 C3331 1.334 . S
C3331 H3308 0.950 . S
C3331 C3330 1.334 . S
C3331 C3332 1.287 . S
C3332 C3331 1.287 . S
C3332 C3333 1.524 . S
C3332 H3351 0.913 . S
C3333 H3309 0.950 . S
C3333 C3332 1.524 . S
C3333 C3334 1.415 . S
C3334 H3310 0.950 . S
C3334 C3329 1.363 . S
C3334 C3333 1.415 . S
C3335 H3311 0.951 . S
C3335 C3336 1.366 . S
C3335 C3337 1.388 . S
C3336 C3335 1.366 . S
C3336 C3340 1.385 . S
C3337 H3312 0.951 . S
C3337 C3335 1.388 . S
C3337 C3338 1.366 . S
C3338 C3337 1.366 . S
C3338 C3339 1.414 . S
C3338 C3341 1.499 . S
C3339 H3313 0.950 . S
C3339 C3338 1.414 . S
C3339 C3340 1.374 . S
C3340 H3314 0.950 . S
C3340 C3336 1.385 . S
C3340 C3339 1.374 . S
C3341 C3338 1.499 . S
C3341 C3342 1.373 . S
C3341 C3343 1.389 . S
C3342 H3315 0.950 . S
C3342 C3328 1.377 . S
C3342 C3341 1.373 . S
C3343 C3327 1.377 . S
C3343 C3341 1.389 . S
C3343 C3344 1.524 . S
C3344 C3343 1.524 . S
C3344 C3345 1.397 . S
C3344 C3349 1.363 . S
C3345 H3316 0.950 . S
C3345 C3344 1.397 . S
C3345 C3346 1.334 . S
C3346 H3317 0.950 . S
C3346 C3345 1.334 . S
C3346 C3347 1.287 . S
C3347 C3346 1.287 . S
C3347 C3348 1.524 . S
C3347 H3350 0.999 . S
C3348 H3318 0.950 . S
C3348 C3347 1.524 . S
C3348 C3349 1.415 . S
C3349 H3319 0.950 . S
C3349 C3344 1.363 . S
C3349 C3348 1.415 . S
H3350 C3347 0.999 . S
H3351 C3332 0.913 . S
H3352 C3370 0.951 . S
H3353 C3372 0.951 . S
H3354 C3374 0.950 . S
H3355 C3375 0.950 . S
H3356 C3377 0.950 . S
H3357 C3380 0.950 . S
H3358 C3381 0.950 . S
H3359 C3383 0.950 . S
H3360 C3384 0.950 . S
H3361 C3385 0.951 . S
H3362 C3387 0.951 . S
H3363 C3389 0.950 . S
H3364 C3390 0.950 . S
H3365 C3392 0.950 . S
H3366 C3395 0.950 . S
H3367 C3396 0.950 . S
H3368 C3398 0.950 . S
H3369 C3399 0.950 . S
C3370 H3352 0.951 . S
C3370 C3371 1.366 . S
C3370 C3372 1.388 . S
C3371 C3370 1.366 . S
C3371 C3375 1.385 . S
C3372 H3353 0.951 . S
C3372 C3370 1.388 . S
C3372 C3373 1.366 . S
C3373 C3372 1.366 . S
C3373 C3374 1.414 . S
C3373 C3376 1.499 . S
C3374 H3354 0.950 . S
C3374 C3373 1.414 . S
C3374 C3375 1.374 . S
C3375 H3355 0.950 . S
C3375 C3371 1.385 . S
C3375 C3374 1.374 . S
C3376 C3373 1.499 . S
C3376 C3377 1.373 . S
C3376 C3378 1.389 . S
C3377 H3356 0.950 . S
C3377 C3376 1.373 . S
C3377 C3393 1.377 . S
C3378 C3376 1.389 . S
C3378 C3379 1.524 . S
C3378 C3392 1.377 . S
C3379 C3378 1.524 . S
C3379 C3380 1.397 . S
C3379 C3384 1.363 . S
C3380 H3357 0.950 . S
C3380 C3379 1.397 . S
C3380 C3381 1.334 . S
C3381 H3358 0.950 . S
C3381 C3380 1.334 . S
C3381 C3382 1.287 . S
C3382 C3381 1.287 . S
C3382 C3383 1.524 . S
C3382 H3401 0.913 . S
C3383 H3359 0.950 . S
C3383 C3382 1.524 . S
C3383 C3384 1.415 . S
C3384 H3360 0.950 . S
C3384 C3379 1.363 . S
C3384 C3383 1.415 . S
C3385 H3361 0.951 . S
C3385 C3386 1.366 . S
C3385 C3387 1.388 . S
C3386 C3385 1.366 . S
C3386 C3390 1.385 . S
C3387 H3362 0.951 . S
C3387 C3385 1.388 . S
C3387 C3388 1.366 . S
C3388 C3387 1.366 . S
C3388 C3389 1.414 . S
C3388 C3391 1.499 . S
C3389 H3363 0.950 . S
C3389 C3388 1.414 . S
C3389 C3390 1.374 . S
C3390 H3364 0.950 . S
C3390 C3386 1.385 . S
C3390 C3389 1.374 . S
C3391 C3388 1.499 . S
C3391 C3392 1.373 . S
C3391 C3393 1.389 . S
C3392 H3365 0.950 . S
C3392 C3378 1.377 . S
C3392 C3391 1.373 . S
C3393 C3377 1.377 . S
C3393 C3391 1.389 . S
C3393 C3394 1.524 . S
C3394 C3393 1.524 . S
C3394 C3395 1.397 . S
C3394 C3399 1.363 . S
C3395 H3366 0.950 . S
C3395 C3394 1.397 . S
C3395 C3396 1.334 . S
C3396 H3367 0.950 . S
C3396 C3395 1.334 . S
C3396 C3397 1.287 . S
C3397 C3396 1.287 . S
C3397 C3398 1.524 . S
C3397 H3400 0.999 . S
C3398 H3368 0.950 . S
C3398 C3397 1.524 . S
C3398 C3399 1.415 . S
C3399 H3369 0.950 . S
C3399 C3394 1.363 . S
C3399 C3398 1.415 . S
H3400 C3397 0.999 . S
H3401 C3382 0.913 . S
H3402 C3420 0.951 . S
H3403 C3422 0.951 . S
H3404 C3424 0.950 . S
H3405 C3425 0.950 . S
H3406 C3427 0.950 . S
H3407 C3430 0.950 . S
H3408 C3431 0.950 . S
H3409 C3433 0.950 . S
H3410 C3434 0.950 . S
H3411 C3435 0.951 . S
H3412 C3437 0.951 . S
H3413 C3439 0.950 . S
H3414 C3440 0.950 . S
H3415 C3442 0.950 . S
H3416 C3445 0.950 . S
H3417 C3446 0.950 . S
H3418 C3448 0.950 . S
H3419 C3449 0.950 . S
C3420 H3402 0.951 . S
C3420 C3421 1.366 . S
C3420 C3422 1.388 . S
C3421 C3420 1.366 . S
C3421 C3425 1.385 . S
C3422 H3403 0.951 . S
C3422 C3420 1.388 . S
C3422 C3423 1.366 . S
C3423 C3422 1.366 . S
C3423 C3424 1.414 . S
C3423 C3426 1.499 . S
C3424 H3404 0.950 . S
C3424 C3423 1.414 . S
C3424 C3425 1.374 . S
C3425 H3405 0.950 . S
C3425 C3421 1.385 . S
C3425 C3424 1.374 . S
C3426 C3423 1.499 . S
C3426 C3427 1.373 . S
C3426 C3428 1.389 . S
C3427 H3406 0.950 . S
C3427 C3426 1.373 . S
C3427 C3443 1.377 . S
C3428 C3426 1.389 . S
C3428 C3429 1.524 . S
C3428 C3442 1.377 . S
C3429 C3428 1.524 . S
C3429 C3430 1.397 . S
C3429 C3434 1.363 . S
C3430 H3407 0.950 . S
C3430 C3429 1.397 . S
C3430 C3431 1.334 . S
C3431 H3408 0.950 . S
C3431 C3430 1.334 . S
C3431 C3432 1.287 . S
C3432 C3431 1.287 . S
C3432 C3433 1.524 . S
C3432 H3451 0.913 . S
C3433 H3409 0.950 . S
C3433 C3432 1.524 . S
C3433 C3434 1.415 . S
C3434 H3410 0.950 . S
C3434 C3429 1.363 . S
C3434 C3433 1.415 . S
C3435 H3411 0.951 . S
C3435 C3436 1.366 . S
C3435 C3437 1.388 . S
C3436 C3435 1.366 . S
C3436 C3440 1.385 . S
C3437 H3412 0.951 . S
C3437 C3435 1.388 . S
C3437 C3438 1.366 . S
C3438 C3437 1.366 . S
C3438 C3439 1.414 . S
C3438 C3441 1.499 . S
C3439 H3413 0.950 . S
C3439 C3438 1.414 . S
C3439 C3440 1.374 . S
C3440 H3414 0.950 . S
C3440 C3436 1.385 . S
C3440 C3439 1.374 . S
C3441 C3438 1.499 . S
C3441 C3442 1.373 . S
C3441 C3443 1.389 . S
C3442 H3415 0.950 . S
C3442 C3428 1.377 . S
C3442 C3441 1.373 . S
C3443 C3427 1.377 . S
C3443 C3441 1.389 . S
C3443 C3444 1.524 . S
C3444 C3443 1.524 . S
C3444 C3445 1.397 . S
C3444 C3449 1.363 . S
C3445 H3416 0.950 . S
C3445 C3444 1.397 . S
C3445 C3446 1.334 . S
C3446 H3417 0.950 . S
C3446 C3445 1.334 . S
C3446 C3447 1.287 . S
C3447 C3446 1.287 . S
C3447 C3448 1.524 . S
C3447 H3450 0.999 . S
C3448 H3418 0.950 . S
C3448 C3447 1.524 . S
C3448 C3449 1.415 . S
C3449 H3419 0.950 . S
C3449 C3444 1.363 . S
C3449 C3448 1.415 . S
H3450 C3447 0.999 . S
H3451 C3432 0.913 . S
H3452 C3470 0.952 . S
H3453 C3472 0.951 . S
H3454 C3474 0.950 . S
H3455 C3475 0.950 . S
H3456 C3477 0.950 . S
H3457 C3480 0.950 . S
H3458 C3481 0.950 . S
H3459 C3483 0.950 . S
H3460 C3484 0.950 . S
H3461 C3485 0.951 . S
H3462 C3487 0.951 . S
H3463 C3489 0.950 . S
H3464 C3490 0.945 1_556 S
H3465 C3492 0.950 . S
H3466 C3495 1.005 . S
H3467 C3496 0.950 . S
H3468 C3498 0.950 . S
H3469 C3499 0.950 . S
C3470 H3452 0.952 . S
C3470 C3471 1.366 . S
C3470 C3472 1.388 . S
C3471 C3470 1.366 . S
C3471 C3475 1.385 . S
C3472 H3453 0.951 . S
C3472 C3470 1.388 . S
C3472 C3473 1.366 . S
C3473 C3472 1.366 . S
C3473 C3474 1.414 . S
C3473 C3476 1.499 . S
C3474 H3454 0.950 . S
C3474 C3473 1.414 . S
C3474 C3475 1.374 . S
C3475 H3455 0.950 . S
C3475 C3471 1.385 . S
C3475 C3474 1.374 . S
C3476 C3473 1.499 . S
C3476 C3477 1.373 1_455 S
C3476 C3478 1.389 . S
C3477 H3456 0.950 . S
C3477 C3476 1.373 1_655 S
C3477 C3493 1.377 . S
C3478 C3476 1.389 . S
C3478 C3479 1.524 . S
C3478 C3492 1.377 . S
C3479 C3478 1.524 . S
C3479 C3480 1.397 . S
C3479 C3484 1.363 . S
C3480 H3457 0.950 . S
C3480 C3479 1.397 . S
C3480 C3481 1.334 . S
C3481 H3458 0.950 . S
C3481 C3480 1.334 . S
C3481 C3482 1.287 . S
C3482 C3481 1.287 . S
C3482 C3483 1.524 . S
C3482 H3501 0.913 . S
C3483 H3459 0.950 . S
C3483 C3482 1.524 . S
C3483 C3484 1.415 . S
C3484 H3460 0.950 . S
C3484 C3479 1.363 . S
C3484 C3483 1.415 . S
C3485 H3461 0.951 . S
C3485 C3486 1.366 . S
C3485 C3487 1.388 . S
C3486 C3485 1.366 . S
C3486 C3490 1.385 . S
C3487 H3462 0.951 . S
C3487 C3485 1.388 . S
C3487 C3488 1.366 . S
C3488 C3487 1.366 . S
C3488 C3489 1.414 1_554 S
C3488 C3491 1.499 1_554 S
C3489 H3463 0.950 . S
C3489 C3488 1.414 1_556 S
C3489 C3490 1.374 1_556 S
C3490 H3464 0.945 1_554 S
C3490 C3486 1.385 . S
C3490 C3489 1.374 1_554 S
C3491 C3488 1.499 1_556 S
C3491 C3492 1.373 . S
C3491 C3493 1.389 1_455 S
C3492 H3465 0.950 . S
C3492 C3478 1.377 . S
C3492 C3491 1.373 . S
C3493 C3477 1.377 . S
C3493 C3491 1.389 1_655 S
C3493 C3494 1.524 1_556 S
C3494 C3493 1.524 1_554 S
C3494 C3495 1.397 . S
C3494 C3499 1.363 . S
C3495 H3466 1.005 . S
C3495 C3494 1.397 . S
C3495 C3496 1.334 . S
C3496 H3467 0.950 . S
C3496 C3495 1.334 . S
C3496 C3497 1.287 . S
C3497 C3496 1.287 . S
C3497 C3498 1.524 . S
C3497 H3500 0.999 . S
C3498 H3468 0.950 . S
C3498 C3497 1.524 . S
C3498 C3499 1.415 . S
C3499 H3469 0.950 . S
C3499 C3494 1.363 . S
C3499 C3498 1.415 . S
H3500 C3497 0.999 . S
H3501 C3482 0.913 . S
H3502 C3520 0.951 . S
H3503 C3522 0.951 . S
H3504 C3524 0.950 . S
H3505 C3525 0.950 . S
H3506 C3527 0.950 . S
H3507 C3530 0.950 . S
H3508 C3531 0.950 1_455 S
H3509 C3533 0.950 . S
H3510 C3534 0.950 . S
H3511 C3535 0.951 . S
H3512 C3537 0.951 . S
H3513 C3539 0.950 . S
H3514 C3540 0.950 . S
H3515 C3542 0.950 . S
H3516 C3545 0.950 . S
H3517 C3546 0.950 . S
H3518 C3548 0.950 . S
H3519 C3549 0.950 . S
C3520 H3502 0.951 . S
C3520 C3521 1.366 . S
C3520 C3522 1.388 1_455 S
C3521 C3520 1.366 . S
C3521 C3525 1.385 . S
C3522 H3503 0.951 . S
C3522 C3520 1.388 1_655 S
C3522 C3523 1.366 . S
C3523 C3522 1.366 . S
C3523 C3524 1.414 1_655 S
C3523 C3526 1.499 . S
C3524 H3504 0.950 . S
C3524 C3523 1.414 1_455 S
C3524 C3525 1.374 . S
C3525 H3505 0.950 . S
C3525 C3521 1.385 . S
C3525 C3524 1.374 . S
C3526 C3523 1.499 . S
C3526 C3527 1.373 . S
C3526 C3528 1.389 . S
C3527 H3506 0.950 . S
C3527 C3526 1.373 . S
C3527 C3543 1.377 . S
C3528 C3526 1.389 . S
C3528 C3529 1.524 . S
C3528 C3542 1.377 . S
C3529 C3528 1.524 . S
C3529 C3530 1.397 . S
C3529 C3534 1.363 . S
C3530 H3507 0.950 . S
C3530 C3529 1.397 . S
C3530 C3531 1.334 . S
C3531 H3508 0.950 1_655 S
C3531 C3530 1.334 . S
C3531 C3532 1.287 . S
C3532 C3531 1.287 . S
C3532 C3533 1.524 . S
C3532 H3551 0.913 . S
C3533 H3509 0.950 . S
C3533 C3532 1.524 . S
C3533 C3534 1.415 . S
C3534 H3510 0.950 . S
C3534 C3529 1.363 . S
C3534 C3533 1.415 . S
C3535 H3511 0.951 . S
C3535 C3536 1.366 . S
C3535 C3537 1.388 . S
C3536 C3535 1.366 . S
C3536 C3540 1.385 . S
C3537 H3512 0.951 . S
C3537 C3535 1.388 . S
C3537 C3538 1.366 . S
C3538 C3537 1.366 . S
C3538 C3539 1.414 . S
C3538 C3541 1.499 . S
C3539 H3513 0.950 . S
C3539 C3538 1.414 . S
C3539 C3540 1.374 . S
C3540 H3514 0.950 . S
C3540 C3536 1.385 . S
C3540 C3539 1.374 . S
C3541 C3538 1.499 . S
C3541 C3542 1.373 . S
C3541 C3543 1.389 . S
C3542 H3515 0.950 . S
C3542 C3528 1.377 . S
C3542 C3541 1.373 . S
C3543 C3527 1.377 . S
C3543 C3541 1.389 . S
C3543 C3544 1.524 . S
C3544 C3543 1.524 . S
C3544 C3545 1.397 . S
C3544 C3549 1.363 . S
C3545 H3516 0.950 . S
C3545 C3544 1.397 . S
C3545 C3546 1.334 . S
C3546 H3517 0.950 . S
C3546 C3545 1.334 . S
C3546 C3547 1.287 . S
C3547 C3546 1.287 . S
C3547 C3548 1.524 . S
C3547 H3550 0.999 . S
C3548 H3518 0.950 . S
C3548 C3547 1.524 . S
C3548 C3549 1.415 . S
C3549 H3519 0.950 . S
C3549 C3544 1.363 . S
C3549 C3548 1.415 . S
H3550 C3547 0.999 . S
H3551 C3532 0.913 . S
H3552 C3570 0.951 . S
H3553 C3572 0.951 . S
H3554 C3574 0.950 . S
H3555 C3575 0.950 . S
H3556 C3577 0.950 . S
H3557 C3580 0.950 . S
H3558 C3581 0.950 . S
H3559 C3583 0.950 . S
H3560 C3584 0.950 . S
H3561 C3585 0.951 . S
H3562 C3587 0.951 . S
H3563 C3589 0.950 . S
H3564 C3590 0.950 . S
H3565 C3592 0.950 . S
H3566 C3595 0.950 . S
H3567 C3596 0.950 . S
H3568 C3598 0.950 . S
H3569 C3599 0.950 . S
C3570 H3552 0.951 . S
C3570 C3571 1.366 . S
C3570 C3572 1.388 . S
C3571 C3570 1.366 . S
C3571 C3575 1.385 . S
C3572 H3553 0.951 . S
C3572 C3570 1.388 . S
C3572 C3573 1.366 . S
C3573 C3572 1.366 . S
C3573 C3574 1.414 . S
C3573 C3576 1.499 . S
C3574 H3554 0.950 . S
C3574 C3573 1.414 . S
C3574 C3575 1.374 . S
C3575 H3555 0.950 . S
C3575 C3571 1.385 . S
C3575 C3574 1.374 . S
C3576 C3573 1.499 . S
C3576 C3577 1.373 . S
C3576 C3578 1.389 . S
C3577 H3556 0.950 . S
C3577 C3576 1.373 . S
C3577 C3593 1.377 . S
C3578 C3576 1.389 . S
C3578 C3579 1.524 . S
C3578 C3592 1.377 . S
C3579 C3578 1.524 . S
C3579 C3580 1.397 . S
C3579 C3584 1.363 . S
C3580 H3557 0.950 . S
C3580 C3579 1.397 . S
C3580 C3581 1.334 . S
C3581 H3558 0.950 . S
C3581 C3580 1.334 . S
C3581 C3582 1.287 . S
C3582 C3581 1.287 . S
C3582 C3583 1.524 . S
C3582 H3601 0.913 . S
C3583 H3559 0.950 . S
C3583 C3582 1.524 . S
C3583 C3584 1.415 . S
C3584 H3560 0.950 . S
C3584 C3579 1.363 . S
C3584 C3583 1.415 . S
C3585 H3561 0.951 . S
C3585 C3586 1.366 . S
C3585 C3587 1.388 . S
C3586 C3585 1.366 . S
C3586 C3590 1.385 . S
C3587 H3562 0.951 . S
C3587 C3585 1.388 . S
C3587 C3588 1.366 . S
C3588 C3587 1.366 . S
C3588 C3589 1.414 . S
C3588 C3591 1.499 . S
C3589 H3563 0.950 . S
C3589 C3588 1.414 . S
C3589 C3590 1.374 . S
C3590 H3564 0.950 . S
C3590 C3586 1.385 . S
C3590 C3589 1.374 . S
C3591 C3588 1.499 . S
C3591 C3592 1.373 . S
C3591 C3593 1.389 . S
C3592 H3565 0.950 . S
C3592 C3578 1.377 . S
C3592 C3591 1.373 . S
C3593 C3577 1.377 . S
C3593 C3591 1.389 . S
C3593 C3594 1.524 . S
C3594 C3593 1.524 . S
C3594 C3595 1.397 . S
C3594 C3599 1.363 . S
C3595 H3566 0.950 . S
C3595 C3594 1.397 . S
C3595 C3596 1.334 . S
C3596 H3567 0.950 . S
C3596 C3595 1.334 . S
C3596 C3597 1.287 . S
C3597 C3596 1.287 . S
C3597 C3598 1.524 . S
C3597 H3600 0.999 . S
C3598 H3568 0.950 . S
C3598 C3597 1.524 . S
C3598 C3599 1.415 . S
C3599 H3569 0.950 . S
C3599 C3594 1.363 . S
C3599 C3598 1.415 . S
H3600 C3597 0.999 . S
H3601 C3582 0.913 . S
H3602 C3620 0.951 . S
H3603 C3622 0.951 . S
H3604 C3624 0.950 . S
H3605 C3625 0.950 . S
H3606 C3627 0.950 . S
H3607 C3630 0.950 . S
H3608 C3631 0.950 . S
H3609 C3633 0.950 . S
H3610 C3634 0.950 . S
H3611 C3635 0.951 . S
H3612 C3637 0.951 . S
H3613 C3639 0.950 . S
H3614 C3640 0.950 . S
H3615 C3642 0.950 . S
H3616 C3645 0.950 . S
H3617 C3646 0.950 . S
H3618 C3648 0.950 . S
H3619 C3649 0.950 . S
C3620 H3602 0.951 . S
C3620 C3621 1.366 . S
C3620 C3622 1.388 . S
C3621 C3620 1.366 . S
C3621 C3625 1.385 . S
C3622 H3603 0.951 . S
C3622 C3620 1.388 . S
C3622 C3623 1.366 . S
C3623 C3622 1.366 . S
C3623 C3624 1.414 . S
C3623 C3626 1.499 . S
C3624 H3604 0.950 . S
C3624 C3623 1.414 . S
C3624 C3625 1.374 . S
C3625 H3605 0.950 . S
C3625 C3621 1.385 . S
C3625 C3624 1.374 . S
C3626 C3623 1.499 . S
C3626 C3627 1.373 . S
C3626 C3628 1.389 . S
C3627 H3606 0.950 . S
C3627 C3626 1.373 . S
C3627 C3643 1.377 . S
C3628 C3626 1.389 . S
C3628 C3629 1.524 . S
C3628 C3642 1.377 . S
C3629 C3628 1.524 . S
C3629 C3630 1.397 . S
C3629 C3634 1.363 . S
C3630 H3607 0.950 . S
C3630 C3629 1.397 . S
C3630 C3631 1.334 . S
C3631 H3608 0.950 . S
C3631 C3630 1.334 . S
C3631 C3632 1.287 . S
C3632 C3631 1.287 . S
C3632 C3633 1.524 . S
C3632 H3651 0.913 . S
C3633 H3609 0.950 . S
C3633 C3632 1.524 . S
C3633 C3634 1.415 . S
C3634 H3610 0.950 . S
C3634 C3629 1.363 . S
C3634 C3633 1.415 . S
C3635 H3611 0.951 . S
C3635 C3636 1.366 . S
C3635 C3637 1.388 . S
C3636 C3635 1.366 . S
C3636 C3640 1.385 . S
C3637 H3612 0.951 . S
C3637 C3635 1.388 . S
C3637 C3638 1.366 . S
C3638 C3637 1.366 . S
C3638 C3639 1.414 . S
C3638 C3641 1.499 . S
C3639 H3613 0.950 . S
C3639 C3638 1.414 . S
C3639 C3640 1.374 . S
C3640 H3614 0.950 . S
C3640 C3636 1.385 . S
C3640 C3639 1.374 . S
C3641 C3638 1.499 . S
C3641 C3642 1.373 . S
C3641 C3643 1.389 . S
C3642 H3615 0.950 . S
C3642 C3628 1.377 . S
C3642 C3641 1.373 . S
C3643 C3627 1.377 . S
C3643 C3641 1.389 . S
C3643 C3644 1.524 . S
C3644 C3643 1.524 . S
C3644 C3645 1.397 . S
C3644 C3649 1.363 . S
C3645 H3616 0.950 . S
C3645 C3644 1.397 . S
C3645 C3646 1.334 . S
C3646 H3617 0.950 . S
C3646 C3645 1.334 . S
C3646 C3647 1.287 . S
C3647 C3646 1.287 . S
C3647 C3648 1.524 . S
C3647 H3650 0.999 . S
C3648 H3618 0.950 . S
C3648 C3647 1.524 . S
C3648 C3649 1.415 . S
C3649 H3619 0.950 . S
C3649 C3644 1.363 . S
C3649 C3648 1.415 . S
H3650 C3647 0.999 . S
H3651 C3632 0.913 . S
H3652 C3670 0.951 . S
H3653 C3672 0.951 . S
H3654 C3674 0.950 . S
H3655 C3675 0.950 . S
H3656 C3677 0.950 . S
H3657 C3680 0.950 . S
H3658 C3681 0.950 . S
H3659 C3683 0.950 . S
H3660 C3684 0.950 . S
H3661 C3685 0.951 . S
H3662 C3687 0.951 . S
H3663 C3689 0.950 . S
H3664 C3690 0.950 . S
H3665 C3692 0.950 . S
H3666 C3695 0.950 . S
H3667 C3696 0.950 . S
H3668 C3698 0.950 . S
H3669 C3699 0.950 . S
C3670 H3652 0.951 . S
C3670 C3671 1.366 . S
C3670 C3672 1.388 . S
C3671 C3670 1.366 . S
C3671 C3675 1.385 . S
C3672 H3653 0.951 . S
C3672 C3670 1.388 . S
C3672 C3673 1.366 . S
C3673 C3672 1.366 . S
C3673 C3674 1.414 . S
C3673 C3676 1.499 . S
C3674 H3654 0.950 . S
C3674 C3673 1.414 . S
C3674 C3675 1.374 . S
C3675 H3655 0.950 . S
C3675 C3671 1.385 . S
C3675 C3674 1.374 . S
C3676 C3673 1.499 . S
C3676 C3677 1.373 . S
C3676 C3678 1.389 . S
C3677 H3656 0.950 . S
C3677 C3676 1.373 . S
C3677 C3693 1.377 . S
C3678 C3676 1.389 . S
C3678 C3679 1.524 . S
C3678 C3692 1.377 . S
C3679 C3678 1.524 . S
C3679 C3680 1.397 1_455 S
C3679 C3684 1.363 . S
C3680 H3657 0.950 . S
C3680 C3679 1.397 1_655 S
C3680 C3681 1.334 . S
C3681 H3658 0.950 . S
C3681 C3680 1.334 . S
C3681 C3682 1.287 . S
C3682 C3681 1.287 . S
C3682 C3683 1.524 1_655 S
C3682 H3701 0.913 . S
C3683 H3659 0.950 . S
C3683 C3682 1.524 1_455 S
C3683 C3684 1.415 . S
C3684 H3660 0.950 . S
C3684 C3679 1.363 . S
C3684 C3683 1.415 . S
C3685 H3661 0.951 . S
C3685 C3686 1.366 . S
C3685 C3687 1.388 . S
C3686 C3685 1.366 . S
C3686 C3690 1.385 . S
C3687 H3662 0.951 . S
C3687 C3685 1.388 . S
C3687 C3688 1.366 . S
C3688 C3687 1.366 . S
C3688 C3689 1.414 . S
C3688 C3691 1.499 . S
C3689 H3663 0.950 . S
C3689 C3688 1.414 . S
C3689 C3690 1.374 . S
C3690 H3664 0.950 . S
C3690 C3686 1.385 . S
C3690 C3689 1.374 . S
C3691 C3688 1.499 . S
C3691 C3692 1.373 . S
C3691 C3693 1.389 . S
C3692 H3665 0.950 . S
C3692 C3678 1.377 . S
C3692 C3691 1.373 . S
C3693 C3677 1.377 . S
C3693 C3691 1.389 . S
C3693 C3694 1.524 . S
C3694 C3693 1.524 . S
C3694 C3695 1.397 . S
C3694 C3699 1.363 . S
C3695 H3666 0.950 . S
C3695 C3694 1.397 . S
C3695 C3696 1.334 . S
C3696 H3667 0.950 . S
C3696 C3695 1.334 . S
C3696 C3697 1.287 . S
C3697 C3696 1.287 . S
C3697 C3698 1.524 . S
C3697 H3700 0.999 . S
C3698 H3668 0.950 . S
C3698 C3697 1.524 . S
C3698 C3699 1.415 . S
C3699 H3669 0.950 . S
C3699 C3694 1.363 . S
C3699 C3698 1.415 . S
H3700 C3697 0.999 . S
H3701 C3682 0.913 . S
H3702 C3720 0.951 . S
H3703 C3722 0.951 . S
H3704 C3724 0.950 . S
H3705 C3725 0.950 . S
H3706 C3727 0.950 . S
H3707 C3730 0.950 . S
H3708 C3731 0.950 . S
H3709 C3733 0.950 . S
H3710 C3734 0.950 . S
H3711 C3735 0.951 . S
H3712 C3737 0.951 . S
H3713 C3739 0.950 . S
H3714 C3740 0.950 . S
H3715 C3742 0.950 . S
H3716 C3745 0.950 . S
H3717 C3746 0.950 . S
H3718 C3748 0.950 . S
H3719 C3749 0.950 . S
C3720 H3702 0.951 . S
C3720 C3721 1.366 . S
C3720 C3722 1.388 . S
C3721 C3720 1.366 . S
C3721 C3725 1.385 . S
C3722 H3703 0.951 . S
C3722 C3720 1.388 . S
C3722 C3723 1.366 . S
C3723 C3722 1.366 . S
C3723 C3724 1.414 . S
C3723 C3726 1.499 . S
C3724 H3704 0.950 . S
C3724 C3723 1.414 . S
C3724 C3725 1.374 . S
C3725 H3705 0.950 . S
C3725 C3721 1.385 . S
C3725 C3724 1.374 . S
C3726 C3723 1.499 . S
C3726 C3727 1.373 . S
C3726 C3728 1.389 . S
C3727 H3706 0.950 . S
C3727 C3726 1.373 . S
C3727 C3743 1.377 . S
C3728 C3726 1.389 . S
C3728 C3729 1.524 . S
C3728 C3742 1.377 . S
C3729 C3728 1.524 . S
C3729 C3730 1.397 . S
C3729 C3734 1.363 . S
C3730 H3707 0.950 . S
C3730 C3729 1.397 . S
C3730 C3731 1.334 . S
C3731 H3708 0.950 . S
C3731 C3730 1.334 . S
C3731 C3732 1.287 . S
C3732 C3731 1.287 . S
C3732 C3733 1.524 . S
C3732 H3751 0.913 . S
C3733 H3709 0.950 . S
C3733 C3732 1.524 . S
C3733 C3734 1.415 . S
C3734 H3710 0.950 . S
C3734 C3729 1.363 . S
C3734 C3733 1.415 . S
C3735 H3711 0.951 . S
C3735 C3736 1.366 . S
C3735 C3737 1.388 . S
C3736 C3735 1.366 . S
C3736 C3740 1.385 . S
C3737 H3712 0.951 . S
C3737 C3735 1.388 . S
C3737 C3738 1.366 . S
C3738 C3737 1.366 . S
C3738 C3739 1.414 . S
C3738 C3741 1.499 . S
C3739 H3713 0.950 . S
C3739 C3738 1.414 . S
C3739 C3740 1.374 . S
C3740 H3714 0.950 . S
C3740 C3736 1.385 . S
C3740 C3739 1.374 . S
C3741 C3738 1.499 . S
C3741 C3742 1.373 . S
C3741 C3743 1.389 . S
C3742 H3715 0.950 . S
C3742 C3728 1.377 . S
C3742 C3741 1.373 . S
C3743 C3727 1.377 . S
C3743 C3741 1.389 . S
C3743 C3744 1.524 . S
C3744 C3743 1.524 . S
C3744 C3745 1.397 . S
C3744 C3749 1.363 . S
C3745 H3716 0.950 . S
C3745 C3744 1.397 . S
C3745 C3746 1.334 . S
C3746 H3717 0.950 . S
C3746 C3745 1.334 . S
C3746 C3747 1.287 . S
C3747 C3746 1.287 . S
C3747 C3748 1.524 . S
C3747 H3750 0.999 . S
C3748 H3718 0.950 . S
C3748 C3747 1.524 . S
C3748 C3749 1.415 . S
C3749 H3719 0.950 . S
C3749 C3744 1.363 . S
C3749 C3748 1.415 . S
H3750 C3747 0.999 . S
H3751 C3732 0.913 . S
H3752 C3770 0.951 . S
H3753 C3772 0.951 . S
H3754 C3774 0.950 . S
H3755 C3775 0.950 . S
H3756 C3777 0.950 . S
H3757 C3780 0.950 . S
H3758 C3781 0.950 . S
H3759 C3783 0.950 . S
H3760 C3784 0.950 . S
H3761 C3785 0.951 . S
H3762 C3787 0.951 . S
H3763 C3789 0.950 . S
H3764 C3790 0.950 . S
H3765 C3792 0.950 . S
H3766 C3795 0.950 . S
H3767 C3796 0.950 . S
H3768 C3798 0.950 . S
H3769 C3799 0.950 . S
C3770 H3752 0.951 . S
C3770 C3771 1.366 . S
C3770 C3772 1.388 . S
C3771 C3770 1.366 . S
C3771 C3775 1.385 . S
C3772 H3753 0.951 . S
C3772 C3770 1.388 . S
C3772 C3773 1.366 . S
C3773 C3772 1.366 . S
C3773 C3774 1.414 . S
C3773 C3776 1.499 . S
C3774 H3754 0.950 . S
C3774 C3773 1.414 . S
C3774 C3775 1.374 . S
C3775 H3755 0.950 . S
C3775 C3771 1.385 . S
C3775 C3774 1.374 . S
C3776 C3773 1.499 . S
C3776 C3777 1.373 . S
C3776 C3778 1.389 . S
C3777 H3756 0.950 . S
C3777 C3776 1.373 . S
C3777 C3793 1.377 . S
C3778 C3776 1.389 . S
C3778 C3779 1.524 . S
C3778 C3792 1.377 . S
C3779 C3778 1.524 . S
C3779 C3780 1.397 . S
C3779 C3784 1.363 . S
C3780 H3757 0.950 . S
C3780 C3779 1.397 . S
C3780 C3781 1.334 . S
C3781 H3758 0.950 . S
C3781 C3780 1.334 . S
C3781 C3782 1.287 . S
C3782 C3781 1.287 . S
C3782 C3783 1.524 . S
C3782 H3801 0.913 . S
C3783 H3759 0.950 . S
C3783 C3782 1.524 . S
C3783 C3784 1.415 . S
C3784 H3760 0.950 . S
C3784 C3779 1.363 . S
C3784 C3783 1.415 . S
C3785 H3761 0.951 . S
C3785 C3786 1.366 . S
C3785 C3787 1.388 . S
C3786 C3785 1.366 . S
C3786 C3790 1.385 . S
C3787 H3762 0.951 . S
C3787 C3785 1.388 . S
C3787 C3788 1.366 . S
C3788 C3787 1.366 . S
C3788 C3789 1.414 . S
C3788 C3791 1.499 . S
C3789 H3763 0.950 . S
C3789 C3788 1.414 . S
C3789 C3790 1.374 . S
C3790 H3764 0.950 . S
C3790 C3786 1.385 . S
C3790 C3789 1.374 . S
C3791 C3788 1.499 . S
C3791 C3792 1.373 . S
C3791 C3793 1.389 . S
C3792 H3765 0.950 . S
C3792 C3778 1.377 . S
C3792 C3791 1.373 . S
C3793 C3777 1.377 . S
C3793 C3791 1.389 . S
C3793 C3794 1.524 . S
C3794 C3793 1.524 . S
C3794 C3795 1.397 . S
C3794 C3799 1.363 . S
C3795 H3766 0.950 . S
C3795 C3794 1.397 . S
C3795 C3796 1.334 . S
C3796 H3767 0.950 . S
C3796 C3795 1.334 . S
C3796 C3797 1.287 . S
C3797 C3796 1.287 . S
C3797 C3798 1.524 . S
C3797 H3800 0.999 . S
C3798 H3768 0.950 . S
C3798 C3797 1.524 . S
C3798 C3799 1.415 . S
C3799 H3769 0.950 . S
C3799 C3794 1.363 . S
C3799 C3798 1.415 . S
H3800 C3797 0.999 . S
H3801 C3782 0.913 . S
H3802 C3820 0.951 . S
H3803 C3822 0.951 . S
H3804 C3824 0.950 . S
H3805 C3825 0.950 . S
H3806 C3827 0.950 . S
H3807 C3830 0.950 . S
H3808 C3831 0.951 1_554 S
H3809 C3833 0.950 . S
H3810 C3834 0.950 . S
H3811 C3835 0.951 . S
H3812 C3837 0.951 . S
H3813 C3839 0.950 . S
H3814 C3840 0.950 . S
H3815 C3842 0.950 . S
H3816 C3845 0.950 . S
H3817 C3846 0.950 . S
H3818 C3848 0.950 . S
H3819 C3849 0.950 . S
C3820 H3802 0.951 . S
C3820 C3821 1.366 1_556 S
C3820 C3822 1.388 . S
C3821 C3820 1.366 1_554 S
C3821 C3825 1.385 . S
C3822 H3803 0.951 . S
C3822 C3820 1.388 . S
C3822 C3823 1.366 . S
C3823 C3822 1.366 . S
C3823 C3824 1.414 . S
C3823 C3826 1.499 . S
C3824 H3804 0.950 . S
C3824 C3823 1.414 . S
C3824 C3825 1.374 1_556 S
C3825 H3805 0.950 . S
C3825 C3821 1.385 . S
C3825 C3824 1.374 1_554 S
C3826 C3823 1.499 . S
C3826 C3827 1.373 . S
C3826 C3828 1.389 . S
C3827 H3806 0.950 . S
C3827 C3826 1.373 . S
C3827 C3843 1.377 . S
C3828 C3826 1.389 . S
C3828 C3829 1.524 . S
C3828 C3842 1.377 . S
C3829 C3828 1.524 . S
C3829 C3830 1.397 . S
C3829 C3834 1.363 . S
C3830 H3807 0.950 . S
C3830 C3829 1.397 . S
C3830 C3831 1.334 . S
C3831 H3808 0.951 1_556 S
C3831 C3830 1.334 . S
C3831 C3832 1.287 . S
C3832 C3831 1.287 . S
C3832 C3833 1.524 . S
C3832 H3851 0.913 1_556 S
C3833 H3809 0.950 . S
C3833 C3832 1.524 . S
C3833 C3834 1.415 . S
C3834 H3810 0.950 . S
C3834 C3829 1.363 . S
C3834 C3833 1.415 . S
C3835 H3811 0.951 . S
C3835 C3836 1.366 . S
C3835 C3837 1.388 . S
C3836 C3835 1.366 . S
C3836 C3840 1.385 . S
C3837 H3812 0.951 . S
C3837 C3835 1.388 . S
C3837 C3838 1.366 . S
C3838 C3837 1.366 . S
C3838 C3839 1.414 . S
C3838 C3841 1.499 . S
C3839 H3813 0.950 . S
C3839 C3838 1.414 . S
C3839 C3840 1.374 . S
C3840 H3814 0.950 . S
C3840 C3836 1.385 . S
C3840 C3839 1.374 . S
C3841 C3838 1.499 . S
C3841 C3842 1.373 . S
C3841 C3843 1.389 . S
C3842 H3815 0.950 . S
C3842 C3828 1.377 . S
C3842 C3841 1.373 . S
C3843 C3827 1.377 . S
C3843 C3841 1.389 . S
C3843 C3844 1.524 . S
C3844 C3843 1.524 . S
C3844 C3845 1.397 . S
C3844 C3849 1.363 . S
C3845 H3816 0.950 . S
C3845 C3844 1.397 . S
C3845 C3846 1.334 . S
C3846 H3817 0.950 . S
C3846 C3845 1.334 . S
C3846 C3847 1.287 . S
C3847 C3846 1.287 . S
C3847 C3848 1.524 . S
C3847 H3850 0.999 . S
C3848 H3818 0.950 . S
C3848 C3847 1.524 . S
C3848 C3849 1.415 . S
C3849 H3819 0.950 . S
C3849 C3844 1.363 . S
C3849 C3848 1.415 . S
H3850 C3847 0.999 . S
H3851 C3832 0.913 1_554 S
H3852 C3870 0.951 . S
H3853 C3872 0.951 . S
H3854 C3874 0.950 . S
H3855 C3875 0.950 . S
H3856 C3877 0.950 . S
H3857 C3880 0.950 . S
H3858 C3881 0.950 . S
H3859 C3883 0.950 . S
H3860 C3884 0.950 . S
H3861 C3885 0.951 . S
H3862 C3887 0.951 . S
H3863 C3889 0.950 . S
H3864 C3890 0.950 . S
H3865 C3892 0.950 . S
H3866 C3895 0.950 . S
H3867 C3896 0.950 . S
H3868 C3898 0.950 . S
H3869 C3899 0.950 . S
C3870 H3852 0.951 . S
C3870 C3871 1.366 . S
C3870 C3872 1.388 . S
C3871 C3870 1.366 . S
C3871 C3875 1.385 . S
C3872 H3853 0.951 . S
C3872 C3870 1.388 . S
C3872 C3873 1.366 . S
C3873 C3872 1.366 . S
C3873 C3874 1.414 . S
C3873 C3876 1.499 . S
C3874 H3854 0.950 . S
C3874 C3873 1.414 . S
C3874 C3875 1.374 . S
C3875 H3855 0.950 . S
C3875 C3871 1.385 . S
C3875 C3874 1.374 . S
C3876 C3873 1.499 . S
C3876 C3877 1.373 . S
C3876 C3878 1.389 . S
C3877 H3856 0.950 . S
C3877 C3876 1.373 . S
C3877 C3893 1.377 . S
C3878 C3876 1.389 . S
C3878 C3879 1.524 . S
C3878 C3892 1.377 . S
C3879 C3878 1.524 . S
C3879 C3880 1.397 . S
C3879 C3884 1.363 . S
C3880 H3857 0.950 . S
C3880 C3879 1.397 . S
C3880 C3881 1.334 . S
C3881 H3858 0.950 . S
C3881 C3880 1.334 . S
C3881 C3882 1.287 . S
C3882 C3881 1.287 . S
C3882 C3883 1.524 . S
C3882 H3901 0.913 . S
C3883 H3859 0.950 . S
C3883 C3882 1.524 . S
C3883 C3884 1.415 . S
C3884 H3860 0.950 . S
C3884 C3879 1.363 . S
C3884 C3883 1.415 . S
C3885 H3861 0.951 . S
C3885 C3886 1.366 . S
C3885 C3887 1.388 . S
C3886 C3885 1.366 . S
C3886 C3890 1.385 . S
C3887 H3862 0.951 . S
C3887 C3885 1.388 . S
C3887 C3888 1.366 . S
C3888 C3887 1.366 . S
C3888 C3889 1.414 . S
C3888 C3891 1.499 . S
C3889 H3863 0.950 . S
C3889 C3888 1.414 . S
C3889 C3890 1.374 . S
C3890 H3864 0.950 . S
C3890 C3886 1.385 . S
C3890 C3889 1.374 . S
C3891 C3888 1.499 . S
C3891 C3892 1.373 . S
C3891 C3893 1.389 . S
C3892 H3865 0.950 . S
C3892 C3878 1.377 . S
C3892 C3891 1.373 . S
C3893 C3877 1.377 . S
C3893 C3891 1.389 . S
C3893 C3894 1.524 . S
C3894 C3893 1.524 . S
C3894 C3895 1.397 . S
C3894 C3899 1.363 . S
C3895 H3866 0.950 . S
C3895 C3894 1.397 . S
C3895 C3896 1.334 . S
C3896 H3867 0.950 . S
C3896 C3895 1.334 . S
C3896 C3897 1.287 . S
C3897 C3896 1.287 . S
C3897 C3898 1.524 . S
C3897 H3900 0.999 . S
C3898 H3868 0.950 . S
C3898 C3897 1.524 . S
C3898 C3899 1.415 . S
C3899 H3869 0.950 . S
C3899 C3894 1.363 . S
C3899 C3898 1.415 . S
H3900 C3897 0.999 . S
H3901 C3882 0.913 . S
H3902 C3920 0.951 . S
H3903 C3922 0.951 . S
H3904 C3924 0.950 . S
H3905 C3925 0.950 . S
H3906 C3927 0.950 . S
H3907 C3930 0.950 . S
H3908 C3931 0.950 . S
H3909 C3933 0.950 . S
H3910 C3934 0.950 . S
H3911 C3935 0.951 . S
H3912 C3937 0.951 . S
H3913 C3939 0.950 . S
H3914 C3940 0.950 . S
H3915 C3942 0.950 . S
H3916 C3945 0.950 . S
H3917 C3946 0.950 . S
H3918 C3948 0.950 . S
H3919 C3949 0.950 . S
C3920 H3902 0.951 . S
C3920 C3921 1.366 . S
C3920 C3922 1.388 . S
C3921 C3920 1.366 . S
C3921 C3925 1.385 . S
C3922 H3903 0.951 . S
C3922 C3920 1.388 . S
C3922 C3923 1.366 . S
C3923 C3922 1.366 . S
C3923 C3924 1.414 . S
C3923 C3926 1.499 . S
C3924 H3904 0.950 . S
C3924 C3923 1.414 . S
C3924 C3925 1.374 . S
C3925 H3905 0.950 . S
C3925 C3921 1.385 . S
C3925 C3924 1.374 . S
C3926 C3923 1.499 . S
C3926 C3927 1.373 . S
C3926 C3928 1.389 . S
C3927 H3906 0.950 . S
C3927 C3926 1.373 . S
C3927 C3943 1.377 . S
C3928 C3926 1.389 . S
C3928 C3929 1.524 . S
C3928 C3942 1.377 . S
C3929 C3928 1.524 . S
C3929 C3930 1.397 . S
C3929 C3934 1.363 . S
C3930 H3907 0.950 . S
C3930 C3929 1.397 . S
C3930 C3931 1.334 . S
C3931 H3908 0.950 . S
C3931 C3930 1.334 . S
C3931 C3932 1.287 . S
C3932 C3931 1.287 . S
C3932 C3933 1.524 . S
C3932 H3951 0.913 . S
C3933 H3909 0.950 . S
C3933 C3932 1.524 . S
C3933 C3934 1.415 . S
C3934 H3910 0.950 . S
C3934 C3929 1.363 . S
C3934 C3933 1.415 . S
C3935 H3911 0.951 . S
C3935 C3936 1.366 . S
C3935 C3937 1.388 . S
C3936 C3935 1.366 . S
C3936 C3940 1.385 . S
C3937 H3912 0.951 . S
C3937 C3935 1.388 . S
C3937 C3938 1.366 . S
C3938 C3937 1.366 . S
C3938 C3939 1.414 . S
C3938 C3941 1.499 . S
C3939 H3913 0.950 . S
C3939 C3938 1.414 . S
C3939 C3940 1.374 . S
C3940 H3914 0.950 . S
C3940 C3936 1.385 . S
C3940 C3939 1.374 . S
C3941 C3938 1.499 . S
C3941 C3942 1.373 . S
C3941 C3943 1.389 . S
C3942 H3915 0.950 . S
C3942 C3928 1.377 . S
C3942 C3941 1.373 . S
C3943 C3927 1.377 . S
C3943 C3941 1.389 . S
C3943 C3944 1.524 . S
C3944 C3943 1.524 . S
C3944 C3945 1.397 . S
C3944 C3949 1.363 . S
C3945 H3916 0.950 . S
C3945 C3944 1.397 . S
C3945 C3946 1.334 . S
C3946 H3917 0.950 . S
C3946 C3945 1.334 . S
C3946 C3947 1.287 . S
C3947 C3946 1.287 . S
C3947 C3948 1.524 . S
C3947 H3950 0.999 . S
C3948 H3918 0.950 . S
C3948 C3947 1.524 . S
C3948 C3949 1.415 . S
C3949 H3919 0.950 . S
C3949 C3944 1.363 . S
C3949 C3948 1.415 . S
H3950 C3947 0.999 . S
H3951 C3932 0.913 . S
H3952 C3970 0.951 . S
H3953 C3972 0.951 . S
H3954 C3974 0.950 . S
H3955 C3975 0.950 . S
H3956 C3977 0.950 . S
H3957 C3980 0.950 . S
H3958 C3981 0.950 . S
H3959 C3983 0.950 . S
H3960 C3984 0.950 . S
H3961 C3985 0.951 . S
H3962 C3987 0.951 . S
H3963 C3989 0.950 . S
H3964 C3990 0.950 . S
H3965 C3992 0.950 . S
H3966 C3995 0.950 . S
H3967 C3996 0.950 . S
H3968 C3998 0.950 . S
H3969 C3999 0.950 . S
C3970 H3952 0.951 . S
C3970 C3971 1.366 . S
C3970 C3972 1.388 . S
C3971 C3970 1.366 . S
C3971 C3975 1.385 . S
C3972 H3953 0.951 . S
C3972 C3970 1.388 . S
C3972 C3973 1.366 . S
C3973 C3972 1.366 . S
C3973 C3974 1.414 . S
C3973 C3976 1.499 . S
C3974 H3954 0.950 . S
C3974 C3973 1.414 . S
C3974 C3975 1.374 . S
C3975 H3955 0.950 . S
C3975 C3971 1.385 . S
C3975 C3974 1.374 . S
C3976 C3973 1.499 . S
C3976 C3977 1.373 . S
C3976 C3978 1.389 . S
C3977 H3956 0.950 . S
C3977 C3976 1.373 . S
C3977 C3993 1.377 . S
C3978 C3976 1.389 . S
C3978 C3979 1.524 . S
C3978 C3992 1.377 . S
C3979 C3978 1.524 . S
C3979 C3980 1.397 . S
C3979 C3984 1.363 . S
C3980 H3957 0.950 . S
C3980 C3979 1.397 . S
C3980 C3981 1.334 . S
C3981 H3958 0.950 . S
C3981 C3980 1.334 . S
C3981 C3982 1.287 . S
C3982 C3981 1.287 . S
C3982 C3983 1.524 . S
C3982 H4001 0.913 . S
C3983 H3959 0.950 . S
C3983 C3982 1.524 . S
C3983 C3984 1.415 . S
C3984 H3960 0.950 . S
C3984 C3979 1.363 . S
C3984 C3983 1.415 . S
C3985 H3961 0.951 . S
C3985 C3986 1.366 . S
C3985 C3987 1.388 . S
C3986 C3985 1.366 . S
C3986 C3990 1.385 . S
C3987 H3962 0.951 . S
C3987 C3985 1.388 . S
C3987 C3988 1.366 . S
C3988 C3987 1.366 . S
C3988 C3989 1.414 . S
C3988 C3991 1.499 . S
C3989 H3963 0.950 . S
C3989 C3988 1.414 . S
C3989 C3990 1.374 . S
C3990 H3964 0.950 . S
C3990 C3986 1.385 . S
C3990 C3989 1.374 . S
C3991 C3988 1.499 . S
C3991 C3992 1.373 . S
C3991 C3993 1.389 . S
C3992 H3965 0.950 . S
C3992 C3978 1.377 . S
C3992 C3991 1.373 . S
C3993 C3977 1.377 . S
C3993 C3991 1.389 . S
C3993 C3994 1.524 . S
C3994 C3993 1.524 . S
C3994 C3995 1.397 . S
C3994 C3999 1.363 . S
C3995 H3966 0.950 . S
C3995 C3994 1.397 . S
C3995 C3996 1.334 . S
C3996 H3967 0.950 . S
C3996 C3995 1.334 . S
C3996 C3997 1.287 . S
C3997 C3996 1.287 . S
C3997 C3998 1.524 . S
C3997 H4000 0.999 . S
C3998 H3968 0.950 . S
C3998 C3997 1.524 . S
C3998 C3999 1.415 . S
C3999 H3969 0.950 . S
C3999 C3994 1.363 . S
C3999 C3998 1.415 . S
H4000 C3997 0.999 . S
H4001 C3982 0.913 . S
H4002 C4020 0.951 . S
H4003 C4022 0.951 . S
H4004 C4024 0.950 . S
H4005 C4025 0.950 . S
H4006 C4027 0.950 . S
H4007 C4030 0.950 . S
H4008 C4031 0.950 . S
H4009 C4033 0.950 . S
H4010 C4034 0.950 . S
H4011 C4035 0.951 . S
H4012 C4037 0.951 . S
H4013 C4039 0.950 . S
H4014 C4040 0.950 . S
H4015 C4042 0.950 . S
H4016 C4045 0.950 . S
H4017 C4046 0.950 . S
H4018 C4048 0.950 . S
H4019 C4049 0.950 . S
C4020 H4002 0.951 . S
C4020 C4021 1.366 . S
C4020 C4022 1.388 . S
C4021 C4020 1.366 . S
C4021 C4025 1.385 . S
C4022 H4003 0.951 . S
C4022 C4020 1.388 . S
C4022 C4023 1.366 . S
C4023 C4022 1.366 . S
C4023 C4024 1.414 . S
C4023 C4026 1.499 . S
C4024 H4004 0.950 . S
C4024 C4023 1.414 . S
C4024 C4025 1.374 . S
C4025 H4005 0.950 . S
C4025 C4021 1.385 . S
C4025 C4024 1.374 . S
C4026 C4023 1.499 . S
C4026 C4027 1.373 . S
C4026 C4028 1.389 . S
C4027 H4006 0.950 . S
C4027 C4026 1.373 . S
C4027 C4043 1.377 . S
C4028 C4026 1.389 . S
C4028 C4029 1.524 . S
C4028 C4042 1.377 . S
C4029 C4028 1.524 . S
C4029 C4030 1.397 . S
C4029 C4034 1.363 . S
C4030 H4007 0.950 . S
C4030 C4029 1.397 . S
C4030 C4031 1.334 . S
C4031 H4008 0.950 . S
C4031 C4030 1.334 . S
C4031 C4032 1.287 . S
C4032 C4031 1.287 . S
C4032 C4033 1.524 . S
C4032 H4051 0.913 . S
C4033 H4009 0.950 . S
C4033 C4032 1.524 . S
C4033 C4034 1.415 . S
C4034 H4010 0.950 . S
C4034 C4029 1.363 . S
C4034 C4033 1.415 . S
C4035 H4011 0.951 . S
C4035 C4036 1.366 . S
C4035 C4037 1.388 . S
C4036 C4035 1.366 . S
C4036 C4040 1.385 . S
C4037 H4012 0.951 . S
C4037 C4035 1.388 . S
C4037 C4038 1.366 . S
C4038 C4037 1.366 . S
C4038 C4039 1.414 . S
C4038 C4041 1.499 . S
C4039 H4013 0.950 . S
C4039 C4038 1.414 . S
C4039 C4040 1.374 . S
C4040 H4014 0.950 . S
C4040 C4036 1.385 . S
C4040 C4039 1.374 . S
C4041 C4038 1.499 . S
C4041 C4042 1.373 . S
C4041 C4043 1.389 . S
C4042 H4015 0.950 . S
C4042 C4028 1.377 . S
C4042 C4041 1.373 . S
C4043 C4027 1.377 . S
C4043 C4041 1.389 . S
C4043 C4044 1.524 . S
C4044 C4043 1.524 . S
C4044 C4045 1.397 . S
C4044 C4049 1.363 . S
C4045 H4016 0.950 . S
C4045 C4044 1.397 . S
C4045 C4046 1.334 . S
C4046 H4017 0.950 . S
C4046 C4045 1.334 . S
C4046 C4047 1.287 . S
C4047 C4046 1.287 . S
C4047 C4048 1.524 . S
C4047 H4050 0.999 . S
C4048 H4018 0.950 . S
C4048 C4047 1.524 . S
C4048 C4049 1.415 . S
C4049 H4019 0.950 . S
C4049 C4044 1.363 . S
C4049 C4048 1.415 . S
H4050 C4047 0.999 . S
H4051 C4032 0.913 . S
H4052 C4070 0.951 . S
H4053 C4072 0.951 . S
H4054 C4074 0.950 . S
H4055 C4075 0.950 . S
H4056 C4077 0.950 . S
H4057 C4080 0.950 . S
H4058 C4081 0.950 . S
H4059 C4083 0.950 . S
H4060 C4084 0.950 . S
H4061 C4085 0.951 . S
H4062 C4087 0.951 . S
H4063 C4089 0.950 . S
H4064 C4090 0.950 . S
H4065 C4092 0.950 . S
H4066 C4095 0.950 . S
H4067 C4096 0.950 . S
H4068 C4098 0.950 . S
H4069 C4099 0.950 . S
C4070 H4052 0.951 . S
C4070 C4071 1.366 . S
C4070 C4072 1.388 . S
C4071 C4070 1.366 . S
C4071 C4075 1.385 . S
C4072 H4053 0.951 . S
C4072 C4070 1.388 . S
C4072 C4073 1.366 . S
C4073 C4072 1.366 . S
C4073 C4074 1.414 . S
C4073 C4076 1.499 . S
C4074 H4054 0.950 . S
C4074 C4073 1.414 . S
C4074 C4075 1.374 . S
C4075 H4055 0.950 . S
C4075 C4071 1.385 . S
C4075 C4074 1.374 . S
C4076 C4073 1.499 . S
C4076 C4077 1.373 . S
C4076 C4078 1.389 . S
C4077 H4056 0.950 . S
C4077 C4076 1.373 . S
C4077 C4093 1.377 . S
C4078 C4076 1.389 . S
C4078 C4079 1.524 . S
C4078 C4092 1.377 . S
C4079 C4078 1.524 . S
C4079 C4080 1.397 . S
C4079 C4084 1.363 . S
C4080 H4057 0.950 . S
C4080 C4079 1.397 . S
C4080 C4081 1.334 . S
C4081 H4058 0.950 . S
C4081 C4080 1.334 . S
C4081 C4082 1.287 . S
C4082 C4081 1.287 . S
C4082 C4083 1.524 . S
C4082 H4101 0.913 . S
C4083 H4059 0.950 . S
C4083 C4082 1.524 . S
C4083 C4084 1.415 . S
C4084 H4060 0.950 . S
C4084 C4079 1.363 . S
C4084 C4083 1.415 . S
C4085 H4061 0.951 . S
C4085 C4086 1.366 . S
C4085 C4087 1.388 . S
C4086 C4085 1.366 . S
C4086 C4090 1.385 . S
C4087 H4062 0.951 . S
C4087 C4085 1.388 . S
C4087 C4088 1.366 . S
C4088 C4087 1.366 . S
C4088 C4089 1.414 . S
C4088 C4091 1.499 . S
C4089 H4063 0.950 . S
C4089 C4088 1.414 . S
C4089 C4090 1.374 . S
C4090 H4064 0.950 . S
C4090 C4086 1.385 . S
C4090 C4089 1.374 . S
C4091 C4088 1.499 . S
C4091 C4092 1.373 . S
C4091 C4093 1.389 . S
C4092 H4065 0.950 . S
C4092 C4078 1.377 . S
C4092 C4091 1.373 . S
C4093 C4077 1.377 . S
C4093 C4091 1.389 . S
C4093 C4094 1.524 . S
C4094 C4093 1.524 . S
C4094 C4095 1.397 . S
C4094 C4099 1.363 . S
C4095 H4066 0.950 . S
C4095 C4094 1.397 . S
C4095 C4096 1.334 . S
C4096 H4067 0.950 . S
C4096 C4095 1.334 . S
C4096 C4097 1.287 . S
C4097 C4096 1.287 . S
C4097 C4098 1.524 . S
C4097 H4100 0.999 . S
C4098 H4068 0.950 . S
C4098 C4097 1.524 . S
C4098 C4099 1.415 . S
C4099 H4069 0.950 . S
C4099 C4094 1.363 . S
C4099 C4098 1.415 . S
H4100 C4097 0.999 . S
H4101 C4082 0.913 . S
H4102 C4120 0.951 . S
H4103 C4122 0.951 . S
H4104 C4124 0.950 . S
H4105 C4125 0.950 . S
H4106 C4127 0.950 . S
H4107 C4130 0.950 . S
H4108 C4131 0.950 . S
H4109 C4133 0.950 . S
H4110 C4134 0.950 . S
H4111 C4135 0.951 . S
H4112 C4137 0.951 . S
H4113 C4139 0.950 . S
H4114 C4140 0.950 . S
H4115 C4142 0.950 . S
H4116 C4145 0.950 . S
H4117 C4146 0.950 . S
H4118 C4148 0.950 . S
H4119 C4149 0.950 . S
C4120 H4102 0.951 . S
C4120 C4121 1.366 . S
C4120 C4122 1.388 . S
C4121 C4120 1.366 . S
C4121 C4125 1.385 . S
C4122 H4103 0.951 . S
C4122 C4120 1.388 . S
C4122 C4123 1.366 . S
C4123 C4122 1.366 . S
C4123 C4124 1.414 . S
C4123 C4126 1.499 . S
C4124 H4104 0.950 . S
C4124 C4123 1.414 . S
C4124 C4125 1.374 . S
C4125 H4105 0.950 . S
C4125 C4121 1.385 . S
C4125 C4124 1.374 . S
C4126 C4123 1.499 . S
C4126 C4127 1.373 . S
C4126 C4128 1.389 . S
C4127 H4106 0.950 . S
C4127 C4126 1.373 . S
C4127 C4143 1.377 . S
C4128 C4126 1.389 . S
C4128 C4129 1.524 . S
C4128 C4142 1.377 . S
C4129 C4128 1.524 . S
C4129 C4130 1.397 . S
C4129 C4134 1.363 . S
C4130 H4107 0.950 . S
C4130 C4129 1.397 . S
C4130 C4131 1.334 . S
C4131 H4108 0.950 . S
C4131 C4130 1.334 . S
C4131 C4132 1.287 . S
C4132 C4131 1.287 . S
C4132 C4133 1.524 . S
C4132 H4151 0.913 . S
C4133 H4109 0.950 . S
C4133 C4132 1.524 . S
C4133 C4134 1.415 . S
C4134 H4110 0.950 . S
C4134 C4129 1.363 . S
C4134 C4133 1.415 . S
C4135 H4111 0.951 . S
C4135 C4136 1.366 . S
C4135 C4137 1.388 . S
C4136 C4135 1.366 . S
C4136 C4140 1.385 . S
C4137 H4112 0.951 . S
C4137 C4135 1.388 . S
C4137 C4138 1.366 . S
C4138 C4137 1.366 . S
C4138 C4139 1.414 . S
C4138 C4141 1.499 . S
C4139 H4113 0.950 . S
C4139 C4138 1.414 . S
C4139 C4140 1.374 . S
C4140 H4114 0.950 . S
C4140 C4136 1.385 . S
C4140 C4139 1.374 . S
C4141 C4138 1.499 . S
C4141 C4142 1.373 . S
C4141 C4143 1.389 . S
C4142 H4115 0.950 . S
C4142 C4128 1.377 . S
C4142 C4141 1.373 . S
C4143 C4127 1.377 . S
C4143 C4141 1.389 . S
C4143 C4144 1.524 . S
C4144 C4143 1.524 . S
C4144 C4145 1.397 . S
C4144 C4149 1.363 . S
C4145 H4116 0.950 . S
C4145 C4144 1.397 . S
C4145 C4146 1.334 . S
C4146 H4117 0.950 . S
C4146 C4145 1.334 . S
C4146 C4147 1.287 . S
C4147 C4146 1.287 . S
C4147 C4148 1.524 . S
C4147 H4150 0.999 . S
C4148 H4118 0.950 . S
C4148 C4147 1.524 . S
C4148 C4149 1.415 . S
C4149 H4119 0.950 . S
C4149 C4144 1.363 . S
C4149 C4148 1.415 . S
H4150 C4147 0.999 . S
H4151 C4132 0.913 . S
H4152 C4170 0.951 . S
H4153 C4172 0.951 . S
H4154 C4174 0.950 . S
H4155 C4175 0.950 . S
H4156 C4177 0.950 . S
H4157 C4180 0.950 . S
H4158 C4181 0.950 . S
H4159 C4183 0.950 . S
H4160 C4184 0.950 . S
H4161 C4185 0.951 . S
H4162 C4187 0.951 . S
H4163 C4189 0.950 . S
H4164 C4190 0.950 . S
H4165 C4192 0.950 . S
H4166 C4195 0.950 . S
H4167 C4196 0.950 . S
H4168 C4198 0.950 . S
H4169 C4199 0.950 . S
C4170 H4152 0.951 . S
C4170 C4171 1.366 . S
C4170 C4172 1.388 . S
C4171 C4170 1.366 . S
C4171 C4175 1.385 . S
C4172 H4153 0.951 . S
C4172 C4170 1.388 . S
C4172 C4173 1.366 . S
C4173 C4172 1.366 . S
C4173 C4174 1.414 . S
C4173 C4176 1.499 . S
C4174 H4154 0.950 . S
C4174 C4173 1.414 . S
C4174 C4175 1.374 . S
C4175 H4155 0.950 . S
C4175 C4171 1.385 . S
C4175 C4174 1.374 . S
C4176 C4173 1.499 . S
C4176 C4177 1.373 . S
C4176 C4178 1.389 . S
C4177 H4156 0.950 . S
C4177 C4176 1.373 . S
C4177 C4193 1.377 . S
C4178 C4176 1.389 . S
C4178 C4179 1.524 . S
C4178 C4192 1.377 . S
C4179 C4178 1.524 . S
C4179 C4180 1.397 . S
C4179 C4184 1.363 . S
C4180 H4157 0.950 . S
C4180 C4179 1.397 . S
C4180 C4181 1.334 . S
C4181 H4158 0.950 . S
C4181 C4180 1.334 . S
C4181 C4182 1.287 . S
C4182 C4181 1.287 . S
C4182 C4183 1.524 . S
C4182 H4201 0.913 . S
C4183 H4159 0.950 . S
C4183 C4182 1.524 . S
C4183 C4184 1.415 . S
C4184 H4160 0.950 . S
C4184 C4179 1.363 . S
C4184 C4183 1.415 . S
C4185 H4161 0.951 . S
C4185 C4186 1.366 . S
C4185 C4187 1.388 . S
C4186 C4185 1.366 . S
C4186 C4190 1.385 . S
C4187 H4162 0.951 . S
C4187 C4185 1.388 . S
C4187 C4188 1.366 . S
C4188 C4187 1.366 . S
C4188 C4189 1.414 . S
C4188 C4191 1.499 . S
C4189 H4163 0.950 . S
C4189 C4188 1.414 . S
C4189 C4190 1.374 . S
C4190 H4164 0.950 . S
C4190 C4186 1.385 . S
C4190 C4189 1.374 . S
C4191 C4188 1.499 . S
C4191 C4192 1.373 . S
C4191 C4193 1.389 . S
C4192 H4165 0.950 . S
C4192 C4178 1.377 . S
C4192 C4191 1.373 . S
C4193 C4177 1.377 . S
C4193 C4191 1.389 . S
C4193 C4194 1.524 . S
C4194 C4193 1.524 . S
C4194 C4195 1.397 . S
C4194 C4199 1.363 . S
C4195 H4166 0.950 . S
C4195 C4194 1.397 . S
C4195 C4196 1.334 . S
C4196 H4167 0.950 . S
C4196 C4195 1.334 . S
C4196 C4197 1.287 . S
C4197 C4196 1.287 . S
C4197 C4198 1.524 . S
C4197 H4200 0.999 . S
C4198 H4168 0.950 . S
C4198 C4197 1.524 . S
C4198 C4199 1.415 . S
C4199 H4169 0.950 . S
C4199 C4194 1.363 . S
C4199 C4198 1.415 . S
H4200 C4197 0.999 . S
H4201 C4182 0.913 . S
H4202 C4220 0.951 . S
H4203 C4222 0.951 . S
H4204 C4224 0.950 . S
H4205 C4225 0.950 . S
H4206 C4227 0.950 . S
H4207 C4230 0.950 . S
H4208 C4231 0.950 . S
H4209 C4233 0.950 . S
H4210 C4234 0.950 . S
H4211 C4235 0.951 . S
H4212 C4237 0.951 . S
H4213 C4239 0.950 . S
H4214 C4240 0.950 . S
H4215 C4242 0.950 . S
H4216 C4245 0.950 . S
H4217 C4246 0.950 . S
H4218 C4248 0.950 . S
H4219 C4249 0.950 . S
C4220 H4202 0.951 . S
C4220 C4221 1.366 . S
C4220 C4222 1.388 . S
C4221 C4220 1.366 . S
C4221 C4225 1.385 . S
C4222 H4203 0.951 . S
C4222 C4220 1.388 . S
C4222 C4223 1.366 . S
C4223 C4222 1.366 . S
C4223 C4224 1.414 . S
C4223 C4226 1.499 . S
C4224 H4204 0.950 . S
C4224 C4223 1.414 . S
C4224 C4225 1.374 . S
C4225 H4205 0.950 . S
C4225 C4221 1.385 . S
C4225 C4224 1.374 . S
C4226 C4223 1.499 . S
C4226 C4227 1.373 . S
C4226 C4228 1.389 . S
C4227 H4206 0.950 . S
C4227 C4226 1.373 . S
C4227 C4243 1.377 . S
C4228 C4226 1.389 . S
C4228 C4229 1.524 . S
C4228 C4242 1.377 . S
C4229 C4228 1.524 . S
C4229 C4230 1.397 . S
C4229 C4234 1.363 . S
C4230 H4207 0.950 . S
C4230 C4229 1.397 . S
C4230 C4231 1.334 . S
C4231 H4208 0.950 . S
C4231 C4230 1.334 . S
C4231 C4232 1.287 . S
C4232 C4231 1.287 . S
C4232 C4233 1.524 . S
C4232 H4251 0.913 . S
C4233 H4209 0.950 . S
C4233 C4232 1.524 . S
C4233 C4234 1.415 . S
C4234 H4210 0.950 . S
C4234 C4229 1.363 . S
C4234 C4233 1.415 . S
C4235 H4211 0.951 . S
C4235 C4236 1.366 . S
C4235 C4237 1.388 . S
C4236 C4235 1.366 . S
C4236 C4240 1.385 . S
C4237 H4212 0.951 . S
C4237 C4235 1.388 . S
C4237 C4238 1.366 . S
C4238 C4237 1.366 . S
C4238 C4239 1.414 . S
C4238 C4241 1.499 . S
C4239 H4213 0.950 . S
C4239 C4238 1.414 . S
C4239 C4240 1.374 . S
C4240 H4214 0.950 . S
C4240 C4236 1.385 . S
C4240 C4239 1.374 . S
C4241 C4238 1.499 . S
C4241 C4242 1.373 . S
C4241 C4243 1.389 . S
C4242 H4215 0.950 . S
C4242 C4228 1.377 . S
C4242 C4241 1.373 . S
C4243 C4227 1.377 . S
C4243 C4241 1.389 . S
C4243 C4244 1.524 . S
C4244 C4243 1.524 . S
C4244 C4245 1.397 . S
C4244 C4249 1.363 . S
C4245 H4216 0.950 . S
C4245 C4244 1.397 . S
C4245 C4246 1.334 . S
C4246 H4217 0.950 . S
C4246 C4245 1.334 . S
C4246 C4247 1.287 . S
C4247 C4246 1.287 . S
C4247 C4248 1.524 . S
C4247 H4250 0.999 . S
C4248 H4218 0.950 . S
C4248 C4247 1.524 . S
C4248 C4249 1.415 . S
C4249 H4219 0.950 . S
C4249 C4244 1.363 . S
C4249 C4248 1.415 . S
H4250 C4247 0.999 . S
H4251 C4232 0.913 . S
H4252 C4270 0.951 1_545 S
H4253 C4272 0.951 . S
H4254 C4274 0.950 . S
H4255 C4275 0.950 . S
H4256 C4277 0.950 . S
H4257 C4280 0.950 . S
H4258 C4281 0.950 . S
H4259 C4283 0.950 . S
H4260 C4284 0.950 . S
H4261 C4285 0.951 . S
H4262 C4287 0.951 . S
H4263 C4289 0.950 . S
H4264 C4290 0.950 . S
H4265 C4292 0.950 . S
H4266 C4295 0.950 . S
H4267 C4296 0.950 . S
H4268 C4298 0.950 . S
H4269 C4299 0.950 . S
C4270 H4252 0.951 1_565 S
C4270 C4271 1.366 . S
C4270 C4272 1.388 . S
C4271 C4270 1.366 . S
C4271 C4275 1.385 . S
C4272 H4253 0.951 . S
C4272 C4270 1.388 . S
C4272 C4273 1.366 . S
C4273 C4272 1.366 . S
C4273 C4274 1.414 . S
C4273 C4276 1.499 . S
C4274 H4254 0.950 . S
C4274 C4273 1.414 . S
C4274 C4275 1.374 . S
C4275 H4255 0.950 . S
C4275 C4271 1.385 . S
C4275 C4274 1.374 . S
C4276 C4273 1.499 . S
C4276 C4277 1.373 . S
C4276 C4278 1.389 . S
C4277 H4256 0.950 . S
C4277 C4276 1.373 . S
C4277 C4293 1.377 . S
C4278 C4276 1.389 . S
C4278 C4279 1.524 . S
C4278 C4292 1.377 . S
C4279 C4278 1.524 . S
C4279 C4280 1.397 . S
C4279 C4284 1.363 . S
C4280 H4257 0.950 . S
C4280 C4279 1.397 . S
C4280 C4281 1.334 . S
C4281 H4258 0.950 . S
C4281 C4280 1.334 . S
C4281 C4282 1.287 . S
C4282 C4281 1.287 . S
C4282 C4283 1.524 . S
C4282 H4301 0.913 . S
C4283 H4259 0.950 . S
C4283 C4282 1.524 . S
C4283 C4284 1.415 . S
C4284 H4260 0.950 . S
C4284 C4279 1.363 . S
C4284 C4283 1.415 . S
C4285 H4261 0.951 . S
C4285 C4286 1.366 . S
C4285 C4287 1.388 . S
C4286 C4285 1.366 . S
C4286 C4290 1.385 . S
C4287 H4262 0.951 . S
C4287 C4285 1.388 . S
C4287 C4288 1.366 . S
C4288 C4287 1.366 . S
C4288 C4289 1.414 . S
C4288 C4291 1.499 . S
C4289 H4263 0.950 . S
C4289 C4288 1.414 . S
C4289 C4290 1.374 . S
C4290 H4264 0.950 . S
C4290 C4286 1.385 . S
C4290 C4289 1.374 . S
C4291 C4288 1.499 . S
C4291 C4292 1.373 . S
C4291 C4293 1.389 . S
C4292 H4265 0.950 . S
C4292 C4278 1.377 . S
C4292 C4291 1.373 . S
C4293 C4277 1.377 . S
C4293 C4291 1.389 . S
C4293 C4294 1.524 . S
C4294 C4293 1.524 . S
C4294 C4295 1.397 . S
C4294 C4299 1.363 . S
C4295 H4266 0.950 . S
C4295 C4294 1.397 . S
C4295 C4296 1.334 . S
C4296 H4267 0.950 . S
C4296 C4295 1.334 . S
C4296 C4297 1.287 . S
C4297 C4296 1.287 . S
C4297 C4298 1.524 . S
C4297 H4300 0.999 . S
C4298 H4268 0.950 . S
C4298 C4297 1.524 . S
C4298 C4299 1.415 . S
C4299 H4269 0.950 . S
C4299 C4294 1.363 . S
C4299 C4298 1.415 . S
H4300 C4297 0.999 . S
H4301 C4282 0.913 . S
H4302 C4320 0.951 . S
H4303 C4322 0.951 . S
H4304 C4324 0.950 . S
H4305 C4325 0.950 . S
H4306 C4327 0.950 . S
H4307 C4330 0.950 . S
H4308 C4331 0.950 . S
H4309 C4333 0.950 . S
H4310 C4334 0.950 . S
H4311 C4335 0.951 . S
H4312 C4337 0.951 1_565 S
H4313 C4339 0.950 . S
H4314 C4340 0.950 . S
H4315 C4342 0.950 . S
H4316 C4345 0.950 . S
H4317 C4346 0.950 . S
H4318 C4348 0.950 . S
H4319 C4349 0.950 . S
C4320 H4302 0.951 . S
C4320 C4321 1.366 . S
C4320 C4322 1.388 . S
C4321 C4320 1.366 . S
C4321 C4325 1.385 1_556 S
C4322 H4303 0.951 . S
C4322 C4320 1.388 . S
C4322 C4323 1.398 . S
C4323 C4322 1.398 . S
C4323 C4324 1.380 1_556 S
C4323 C4326 1.499 1_556 S
C4324 H4304 0.950 . S
C4324 C4323 1.380 1_554 S
C4324 C4325 1.374 . S
C4325 H4305 0.950 . S
C4325 C4321 1.385 1_554 S
C4325 C4324 1.374 . S
C4326 C4323 1.499 1_554 S
C4326 C4327 1.373 . S
C4326 C4328 1.389 1_554 S
C4327 H4306 0.950 . S
C4327 C4326 1.373 . S
C4327 C4343 1.377 . S
C4328 C4326 1.389 1_556 S
C4328 C4329 1.524 . S
C4328 C4342 1.377 . S
C4329 C4328 1.524 . S
C4329 C4330 1.397 . S
C4329 C4334 1.363 . S
C4330 H4307 0.950 . S
C4330 C4329 1.397 . S
C4330 C4331 1.334 . S
C4331 H4308 0.950 . S
C4331 C4330 1.334 . S
C4331 C4332 1.287 . S
C4332 C4331 1.287 . S
C4332 C4333 1.524 . S
C4332 H4351 0.913 . S
C4333 H4309 0.950 . S
C4333 C4332 1.524 . S
C4333 C4334 1.415 . S
C4334 H4310 0.950 . S
C4334 C4329 1.363 . S
C4334 C4333 1.415 . S
C4335 H4311 0.951 . S
C4335 C4336 1.366 . S
C4335 C4337 1.388 . S
C4336 C4335 1.366 . S
C4336 C4340 1.385 1_554 S
C4337 H4312 0.951 1_545 S
C4337 C4335 1.388 . S
C4337 C4338 1.366 . S
C4338 C4337 1.366 . S
C4338 C4339 1.414 1_554 S
C4338 C4341 1.499 1_545 S
C4339 H4313 0.950 . S
C4339 C4338 1.414 1_556 S
C4339 C4340 1.374 . S
C4340 H4314 0.950 . S
C4340 C4336 1.385 1_556 S
C4340 C4339 1.374 . S
C4341 C4338 1.499 1_565 S
C4341 C4342 1.373 1_554 S
C4341 C4343 1.389 . S
C4342 H4315 0.950 . S
C4342 C4328 1.377 . S
C4342 C4341 1.373 1_556 S
C4343 C4327 1.377 . S
C4343 C4341 1.389 . S
C4343 C4344 1.524 1_565 S
C4344 C4343 1.524 1_545 S
C4344 C4345 1.397 . S
C4344 C4349 1.363 1_545 S
C4345 H4316 0.950 . S
C4345 C4344 1.397 . S
C4345 C4346 1.334 . S
C4346 H4317 0.950 . S
C4346 C4345 1.334 . S
C4346 C4347 1.287 . S
C4347 C4346 1.287 . S
C4347 C4348 1.524 . S
C4347 H4350 0.999 . S
C4348 H4318 0.950 . S
C4348 C4347 1.524 . S
C4348 C4349 1.415 1_545 S
C4349 H4319 0.950 . S
C4349 C4344 1.363 1_565 S
C4349 C4348 1.415 1_565 S
H4350 C4347 0.999 . S
H4351 C4332 0.913 . S
H4352 C4370 0.951 . S
H4353 C4372 0.951 . S
H4354 C4374 0.950 . S
H4355 C4375 0.950 . S
H4356 C4377 0.950 . S
H4357 C4380 0.950 . S
H4358 C4381 0.950 . S
H4359 C4383 0.950 . S
H4360 C4384 0.950 . S
H4361 C4385 0.951 . S
H4362 C4387 0.951 . S
H4363 C4389 0.950 . S
H4364 C4390 0.950 . S
H4365 C4392 0.950 . S
H4366 C4395 0.950 . S
H4367 C4396 0.950 . S
H4368 C4398 0.950 . S
H4369 C4399 0.950 . S
C4370 H4352 0.951 . S
C4370 C4371 1.366 . S
C4370 C4372 1.388 . S
C4371 C4370 1.366 . S
C4371 C4375 1.385 . S
C4372 H4353 0.951 . S
C4372 C4370 1.388 . S
C4372 C4373 1.366 . S
C4373 C4372 1.366 . S
C4373 C4374 1.414 . S
C4373 C4376 1.499 . S
C4374 H4354 0.950 . S
C4374 C4373 1.414 . S
C4374 C4375 1.374 . S
C4375 H4355 0.950 . S
C4375 C4371 1.385 . S
C4375 C4374 1.374 . S
C4376 C4373 1.499 . S
C4376 C4377 1.373 . S
C4376 C4378 1.389 . S
C4377 H4356 0.950 . S
C4377 C4376 1.373 . S
C4377 C4393 1.377 . S
C4378 C4376 1.389 . S
C4378 C4379 1.524 . S
C4378 C4392 1.377 . S
C4379 C4378 1.524 . S
C4379 C4380 1.397 . S
C4379 C4384 1.363 . S
C4380 H4357 0.950 . S
C4380 C4379 1.397 . S
C4380 C4381 1.334 . S
C4381 H4358 0.950 . S
C4381 C4380 1.334 . S
C4381 C4382 1.287 . S
C4382 C4381 1.287 . S
C4382 C4383 1.524 . S
C4382 H4401 0.913 . S
C4383 H4359 0.950 . S
C4383 C4382 1.524 . S
C4383 C4384 1.415 . S
C4384 H4360 0.950 . S
C4384 C4379 1.363 . S
C4384 C4383 1.415 . S
C4385 H4361 0.951 . S
C4385 C4386 1.366 . S
C4385 C4387 1.388 . S
C4386 C4385 1.366 . S
C4386 C4390 1.385 . S
C4387 H4362 0.951 . S
C4387 C4385 1.388 . S
C4387 C4388 1.366 . S
C4388 C4387 1.366 . S
C4388 C4389 1.414 . S
C4388 C4391 1.499 . S
C4389 H4363 0.950 . S
C4389 C4388 1.414 . S
C4389 C4390 1.374 . S
C4390 H4364 0.950 . S
C4390 C4386 1.385 . S
C4390 C4389 1.374 . S
C4391 C4388 1.499 . S
C4391 C4392 1.373 . S
C4391 C4393 1.389 . S
C4392 H4365 0.950 . S
C4392 C4378 1.377 . S
C4392 C4391 1.373 . S
C4393 C4377 1.377 . S
C4393 C4391 1.389 . S
C4393 C4394 1.524 . S
C4394 C4393 1.524 . S
C4394 C4395 1.397 . S
C4394 C4399 1.363 . S
C4395 H4366 0.950 . S
C4395 C4394 1.397 . S
C4395 C4396 1.334 . S
C4396 H4367 0.950 . S
C4396 C4395 1.334 . S
C4396 C4397 1.287 . S
C4397 C4396 1.287 . S
C4397 C4398 1.524 . S
C4397 H4400 0.999 . S
C4398 H4368 0.950 . S
C4398 C4397 1.524 . S
C4398 C4399 1.415 . S
C4399 H4369 0.950 . S
C4399 C4394 1.363 . S
C4399 C4398 1.415 . S
H4400 C4397 0.999 . S
H4401 C4382 0.913 . S
H4402 C4420 0.951 . S
H4403 C4422 0.951 . S
H4404 C4424 0.950 . S
H4405 C4425 0.950 . S
H4406 C4427 0.950 . S
H4407 C4430 0.950 . S
H4408 C4431 0.950 . S
H4409 C4433 0.950 . S
H4410 C4434 0.950 . S
H4411 C4435 0.951 . S
H4412 C4437 0.951 . S
H4413 C4439 0.950 . S
H4414 C4440 0.950 . S
H4415 C4442 0.950 . S
H4416 C4445 0.950 . S
H4417 C4446 0.950 . S
H4418 C4448 0.950 . S
H4419 C4449 0.950 . S
C4420 H4402 0.951 . S
C4420 C4421 1.366 . S
C4420 C4422 1.388 . S
C4421 C4420 1.366 . S
C4421 C4425 1.385 . S
C4422 H4403 0.951 . S
C4422 C4420 1.388 . S
C4422 C4423 1.366 . S
C4423 C4422 1.366 . S
C4423 C4424 1.414 . S
C4423 C4426 1.499 . S
C4424 H4404 0.950 . S
C4424 C4423 1.414 . S
C4424 C4425 1.374 . S
C4425 H4405 0.950 . S
C4425 C4421 1.385 . S
C4425 C4424 1.374 . S
C4426 C4423 1.499 . S
C4426 C4427 1.373 . S
C4426 C4428 1.389 . S
C4427 H4406 0.950 . S
C4427 C4426 1.373 . S
C4427 C4443 1.377 . S
C4428 C4426 1.389 . S
C4428 C4429 1.524 . S
C4428 C4442 1.377 . S
C4429 C4428 1.524 . S
C4429 C4430 1.397 . S
C4429 C4434 1.363 . S
C4430 H4407 0.950 . S
C4430 C4429 1.397 . S
C4430 C4431 1.334 . S
C4431 H4408 0.950 . S
C4431 C4430 1.334 . S
C4431 C4432 1.287 . S
C4432 C4431 1.287 . S
C4432 C4433 1.524 . S
C4432 H4451 0.913 . S
C4433 H4409 0.950 . S
C4433 C4432 1.524 . S
C4433 C4434 1.415 . S
C4434 H4410 0.950 . S
C4434 C4429 1.363 . S
C4434 C4433 1.415 . S
C4435 H4411 0.951 . S
C4435 C4436 1.366 . S
C4435 C4437 1.388 . S
C4436 C4435 1.366 . S
C4436 C4440 1.385 . S
C4437 H4412 0.951 . S
C4437 C4435 1.388 . S
C4437 C4438 1.366 . S
C4438 C4437 1.366 . S
C4438 C4439 1.414 . S
C4438 C4441 1.499 . S
C4439 H4413 0.950 . S
C4439 C4438 1.414 . S
C4439 C4440 1.374 . S
C4440 H4414 0.950 . S
C4440 C4436 1.385 . S
C4440 C4439 1.374 . S
C4441 C4438 1.499 . S
C4441 C4442 1.373 . S
C4441 C4443 1.389 . S
C4442 H4415 0.950 . S
C4442 C4428 1.377 . S
C4442 C4441 1.373 . S
C4443 C4427 1.377 . S
C4443 C4441 1.389 . S
C4443 C4444 1.524 . S
C4444 C4443 1.524 . S
C4444 C4445 1.397 . S
C4444 C4449 1.363 . S
C4445 H4416 0.950 . S
C4445 C4444 1.397 . S
C4445 C4446 1.334 1_554 S
C4446 H4417 0.950 . S
C4446 C4445 1.334 1_556 S
C4446 C4447 1.287 . S
C4447 C4446 1.287 . S
C4447 C4448 1.524 . S
C4447 H4450 0.999 . S
C4448 H4418 0.950 . S
C4448 C4447 1.524 . S
C4448 C4449 1.415 1_556 S
C4449 H4419 0.950 . S
C4449 C4444 1.363 . S
C4449 C4448 1.415 1_554 S
H4450 C4447 0.999 . S
H4451 C4432 0.913 . S
H4452 C4470 0.951 . S
H4453 C4472 0.951 . S
H4454 C4474 0.950 . S
H4455 C4475 0.950 . S
H4456 C4477 0.950 . S
H4457 C4480 0.950 . S
H4458 C4481 0.950 . S
H4459 C4483 0.950 . S
H4460 C4484 0.950 . S
H4461 C4485 0.951 . S
H4462 C4487 0.951 . S
H4463 C4489 0.950 . S
H4464 C4490 0.950 . S
H4465 C4492 0.950 . S
H4466 C4495 0.950 . S
H4467 C4496 0.950 . S
H4468 C4498 0.950 . S
H4469 C4499 0.950 . S
C4470 H4452 0.951 . S
C4470 C4471 1.366 . S
C4470 C4472 1.388 . S
C4471 C4470 1.366 . S
C4471 C4475 1.385 . S
C4472 H4453 0.951 . S
C4472 C4470 1.388 . S
C4472 C4473 1.366 . S
C4473 C4472 1.366 . S
C4473 C4474 1.414 . S
C4473 C4476 1.499 . S
C4474 H4454 0.950 . S
C4474 C4473 1.414 . S
C4474 C4475 1.374 . S
C4475 H4455 0.950 . S
C4475 C4471 1.385 . S
C4475 C4474 1.374 . S
C4476 C4473 1.499 . S
C4476 C4477 1.373 . S
C4476 C4478 1.389 . S
C4477 H4456 0.950 . S
C4477 C4476 1.373 . S
C4477 C4493 1.377 . S
C4478 C4476 1.389 . S
C4478 C4479 1.524 . S
C4478 C4492 1.377 . S
C4479 C4478 1.524 . S
C4479 C4480 1.397 . S
C4479 C4484 1.363 . S
C4480 H4457 0.950 . S
C4480 C4479 1.397 . S
C4480 C4481 1.334 . S
C4481 H4458 0.950 . S
C4481 C4480 1.334 . S
C4481 C4482 1.287 . S
C4482 C4481 1.287 . S
C4482 C4483 1.524 . S
C4482 H4501 0.913 . S
C4483 H4459 0.950 . S
C4483 C4482 1.524 . S
C4483 C4484 1.415 . S
C4484 H4460 0.950 . S
C4484 C4479 1.363 . S
C4484 C4483 1.415 . S
C4485 H4461 0.951 . S
C4485 C4486 1.366 . S
C4485 C4487 1.388 . S
C4486 C4485 1.366 . S
C4486 C4490 1.385 . S
C4487 H4462 0.951 . S
C4487 C4485 1.388 . S
C4487 C4488 1.366 . S
C4488 C4487 1.366 . S
C4488 C4489 1.414 . S
C4488 C4491 1.499 . S
C4489 H4463 0.950 . S
C4489 C4488 1.414 . S
C4489 C4490 1.374 . S
C4490 H4464 0.950 . S
C4490 C4486 1.385 . S
C4490 C4489 1.374 . S
C4491 C4488 1.499 . S
C4491 C4492 1.373 . S
C4491 C4493 1.389 . S
C4492 H4465 0.950 . S
C4492 C4478 1.377 . S
C4492 C4491 1.373 . S
C4493 C4477 1.377 . S
C4493 C4491 1.389 . S
C4493 C4494 1.524 . S
C4494 C4493 1.524 . S
C4494 C4495 1.397 . S
C4494 C4499 1.363 . S
C4495 H4466 0.950 . S
C4495 C4494 1.397 . S
C4495 C4496 1.334 . S
C4496 H4467 0.950 . S
C4496 C4495 1.334 . S
C4496 C4497 1.287 . S
C4497 C4496 1.287 . S
C4497 C4498 1.524 . S
C4497 H4500 0.999 . S
C4498 H4468 0.950 . S
C4498 C4497 1.524 . S
C4498 C4499 1.415 . S
C4499 H4469 0.950 . S
C4499 C4494 1.363 . S
C4499 C4498 1.415 . S
H4500 C4497 0.999 . S
H4501 C4482 0.913 . S
H4502 C4520 0.951 . S
H4503 C4522 0.951 . S
H4504 C4524 0.950 . S
H4505 C4525 0.950 . S
H4506 C4527 0.950 . S
H4507 C4530 0.950 . S
H4508 C4531 0.950 . S
H4509 C4533 0.950 . S
H4510 C4534 0.950 . S
H4511 C4535 0.951 . S
H4512 C4537 0.951 . S
H4513 C4539 0.950 . S
H4514 C4540 0.950 . S
H4515 C4542 0.950 . S
H4516 C4545 0.950 . S
H4517 C4546 0.950 . S
H4518 C4548 0.950 . S
H4519 C4549 0.950 . S
C4520 H4502 0.951 . S
C4520 C4521 1.366 . S
C4520 C4522 1.388 . S
C4521 C4520 1.366 . S
C4521 C4525 1.385 . S
C4522 H4503 0.951 . S
C4522 C4520 1.388 . S
C4522 C4523 1.366 . S
C4523 C4522 1.366 . S
C4523 C4524 1.414 . S
C4523 C4526 1.499 . S
C4524 H4504 0.950 . S
C4524 C4523 1.414 . S
C4524 C4525 1.374 . S
C4525 H4505 0.950 . S
C4525 C4521 1.385 . S
C4525 C4524 1.374 . S
C4526 C4523 1.499 . S
C4526 C4527 1.373 . S
C4526 C4528 1.389 . S
C4527 H4506 0.950 . S
C4527 C4526 1.373 . S
C4527 C4543 1.377 . S
C4528 C4526 1.389 . S
C4528 C4529 1.524 . S
C4528 C4542 1.377 . S
C4529 C4528 1.524 . S
C4529 C4530 1.397 . S
C4529 C4534 1.363 . S
C4530 H4507 0.950 . S
C4530 C4529 1.397 . S
C4530 C4531 1.334 . S
C4531 H4508 0.950 . S
C4531 C4530 1.334 . S
C4531 C4532 1.287 . S
C4532 C4531 1.287 . S
C4532 C4533 1.524 . S
C4532 H4551 0.913 . S
C4533 H4509 0.950 . S
C4533 C4532 1.524 . S
C4533 C4534 1.415 . S
C4534 H4510 0.950 . S
C4534 C4529 1.363 . S
C4534 C4533 1.415 . S
C4535 H4511 0.951 . S
C4535 C4536 1.366 . S
C4535 C4537 1.388 . S
C4536 C4535 1.366 . S
C4536 C4540 1.385 . S
C4537 H4512 0.951 . S
C4537 C4535 1.388 . S
C4537 C4538 1.366 . S
C4538 C4537 1.366 . S
C4538 C4539 1.414 . S
C4538 C4541 1.499 . S
C4539 H4513 0.950 . S
C4539 C4538 1.414 . S
C4539 C4540 1.374 . S
C4540 H4514 0.950 . S
C4540 C4536 1.385 . S
C4540 C4539 1.374 . S
C4541 C4538 1.499 . S
C4541 C4542 1.373 . S
C4541 C4543 1.389 . S
C4542 H4515 0.950 . S
C4542 C4528 1.377 . S
C4542 C4541 1.373 . S
C4543 C4527 1.377 . S
C4543 C4541 1.389 . S
C4543 C4544 1.524 . S
C4544 C4543 1.524 . S
C4544 C4545 1.397 . S
C4544 C4549 1.363 . S
C4545 H4516 0.950 . S
C4545 C4544 1.397 . S
C4545 C4546 1.334 . S
C4546 H4517 0.950 . S
C4546 C4545 1.334 . S
C4546 C4547 1.287 . S
C4547 C4546 1.287 . S
C4547 C4548 1.524 . S
C4547 H4550 0.999 . S
C4548 H4518 0.950 . S
C4548 C4547 1.524 . S
C4548 C4549 1.415 . S
C4549 H4519 0.950 . S
C4549 C4544 1.363 . S
C4549 C4548 1.415 . S
H4550 C4547 0.999 . S
H4551 C4532 0.913 . S
H4552 C4570 0.951 . S
H4553 C4572 0.951 . S
H4554 C4574 0.950 . S
H4555 C4575 0.950 . S
H4556 C4577 0.950 . S
H4557 C4580 0.950 . S
H4558 C4581 0.950 . S
H4559 C4583 0.950 . S
H4560 C4584 0.950 . S
H4561 C4585 0.951 . S
H4562 C4587 0.951 . S
H4563 C4589 0.950 . S
H4564 C4590 0.950 . S
H4565 C4592 0.950 . S
H4566 C4595 0.950 . S
H4567 C4596 0.950 . S
H4568 C4598 0.950 . S
H4569 C4599 0.950 . S
C4570 H4552 0.951 . S
C4570 C4571 1.366 . S
C4570 C4572 1.388 . S
C4571 C4570 1.366 . S
C4571 C4575 1.385 . S
C4572 H4553 0.951 . S
C4572 C4570 1.388 . S
C4572 C4573 1.366 . S
C4573 C4572 1.366 . S
C4573 C4574 1.414 . S
C4573 C4576 1.499 . S
C4574 H4554 0.950 . S
C4574 C4573 1.414 . S
C4574 C4575 1.374 . S
C4575 H4555 0.950 . S
C4575 C4571 1.385 . S
C4575 C4574 1.374 . S
C4576 C4573 1.499 . S
C4576 C4577 1.373 . S
C4576 C4578 1.389 . S
C4577 H4556 0.950 . S
C4577 C4576 1.373 . S
C4577 C4593 1.377 . S
C4578 C4576 1.389 . S
C4578 C4579 1.524 . S
C4578 C4592 1.377 . S
C4579 C4578 1.524 . S
C4579 C4580 1.397 . S
C4579 C4584 1.363 . S
C4580 H4557 0.950 . S
C4580 C4579 1.397 . S
C4580 C4581 1.334 . S
C4581 H4558 0.950 . S
C4581 C4580 1.334 . S
C4581 C4582 1.287 . S
C4582 C4581 1.287 . S
C4582 C4583 1.524 . S
C4582 H4601 0.913 . S
C4583 H4559 0.950 . S
C4583 C4582 1.524 . S
C4583 C4584 1.415 . S
C4584 H4560 0.950 . S
C4584 C4579 1.363 . S
C4584 C4583 1.415 . S
C4585 H4561 0.951 . S
C4585 C4586 1.366 . S
C4585 C4587 1.388 . S
C4586 C4585 1.366 . S
C4586 C4590 1.385 . S
C4587 H4562 0.951 . S
C4587 C4585 1.388 . S
C4587 C4588 1.366 . S
C4588 C4587 1.366 . S
C4588 C4589 1.414 . S
C4588 C4591 1.499 . S
C4589 H4563 0.950 . S
C4589 C4588 1.414 . S
C4589 C4590 1.374 . S
C4590 H4564 0.950 . S
C4590 C4586 1.385 . S
C4590 C4589 1.374 . S
C4591 C4588 1.499 . S
C4591 C4592 1.373 . S
C4591 C4593 1.389 . S
C4592 H4565 0.950 . S
C4592 C4578 1.377 . S
C4592 C4591 1.373 . S
C4593 C4577 1.377 . S
C4593 C4591 1.389 . S
C4593 C4594 1.524 . S
C4594 C4593 1.524 . S
C4594 C4595 1.397 . S
C4594 C4599 1.363 . S
C4595 H4566 0.950 . S
C4595 C4594 1.397 . S
C4595 C4596 1.334 . S
C4596 H4567 0.950 . S
C4596 C4595 1.334 . S
C4596 C4597 1.287 . S
C4597 C4596 1.287 . S
C4597 C4598 1.524 . S
C4597 H4600 0.999 . S
C4598 H4568 0.950 . S
C4598 C4597 1.524 . S
C4598 C4599 1.415 . S
C4599 H4569 0.950 . S
C4599 C4594 1.363 . S
C4599 C4598 1.415 . S
H4600 C4597 0.999 . S
H4601 C4582 0.913 . S
H4602 C4620 0.951 . S
H4603 C4622 0.951 . S
H4604 C4624 0.950 . S
H4605 C4625 0.950 . S
H4606 C4627 0.950 . S
H4607 C4630 0.950 . S
H4608 C4631 0.950 . S
H4609 C4633 0.950 . S
H4610 C4634 0.950 . S
H4611 C4635 0.951 . S
H4612 C4637 0.951 . S
H4613 C4639 0.950 . S
H4614 C4640 0.950 . S
H4615 C4642 0.950 . S
H4616 C4645 0.950 . S
H4617 C4646 0.950 . S
H4618 C4648 0.950 . S
H4619 C4649 0.950 . S
C4620 H4602 0.951 . S
C4620 C4621 1.366 . S
C4620 C4622 1.388 . S
C4621 C4620 1.366 . S
C4621 C4625 1.385 . S
C4622 H4603 0.951 . S
C4622 C4620 1.388 . S
C4622 C4623 1.366 . S
C4623 C4622 1.366 . S
C4623 C4624 1.414 . S
C4623 C4626 1.499 . S
C4624 H4604 0.950 . S
C4624 C4623 1.414 . S
C4624 C4625 1.374 . S
C4625 H4605 0.950 . S
C4625 C4621 1.385 . S
C4625 C4624 1.374 . S
C4626 C4623 1.499 . S
C4626 C4627 1.373 . S
C4626 C4628 1.389 . S
C4627 H4606 0.950 . S
C4627 C4626 1.373 . S
C4627 C4643 1.377 . S
C4628 C4626 1.389 . S
C4628 C4629 1.524 . S
C4628 C4642 1.377 . S
C4629 C4628 1.524 . S
C4629 C4630 1.397 . S
C4629 C4634 1.363 . S
C4630 H4607 0.950 . S
C4630 C4629 1.397 . S
C4630 C4631 1.334 . S
C4631 H4608 0.950 . S
C4631 C4630 1.334 . S
C4631 C4632 1.287 . S
C4632 C4631 1.287 . S
C4632 C4633 1.524 . S
C4632 H4651 0.913 . S
C4633 H4609 0.950 . S
C4633 C4632 1.524 . S
C4633 C4634 1.415 . S
C4634 H4610 0.950 . S
C4634 C4629 1.363 . S
C4634 C4633 1.415 . S
C4635 H4611 0.951 . S
C4635 C4636 1.366 . S
C4635 C4637 1.388 . S
C4636 C4635 1.366 . S
C4636 C4640 1.385 . S
C4637 H4612 0.951 . S
C4637 C4635 1.388 . S
C4637 C4638 1.366 . S
C4638 C4637 1.366 . S
C4638 C4639 1.414 . S
C4638 C4641 1.499 . S
C4639 H4613 0.950 . S
C4639 C4638 1.414 . S
C4639 C4640 1.374 . S
C4640 H4614 0.950 . S
C4640 C4636 1.385 . S
C4640 C4639 1.374 . S
C4641 C4638 1.499 . S
C4641 C4642 1.373 . S
C4641 C4643 1.389 . S
C4642 H4615 0.950 . S
C4642 C4628 1.377 . S
C4642 C4641 1.373 . S
C4643 C4627 1.377 . S
C4643 C4641 1.389 . S
C4643 C4644 1.524 . S
C4644 C4643 1.524 . S
C4644 C4645 1.397 . S
C4644 C4649 1.363 . S
C4645 H4616 0.950 . S
C4645 C4644 1.397 . S
C4645 C4646 1.334 . S
C4646 H4617 0.950 . S
C4646 C4645 1.334 . S
C4646 C4647 1.287 . S
C4647 C4646 1.287 . S
C4647 C4648 1.524 . S
C4647 H4650 0.999 . S
C4648 H4618 0.950 . S
C4648 C4647 1.524 . S
C4648 C4649 1.415 . S
C4649 H4619 0.950 . S
C4649 C4644 1.363 . S
C4649 C4648 1.415 . S
H4650 C4647 0.999 . S
H4651 C4632 0.913 . S
H4652 C4670 0.951 . S
H4653 C4672 0.951 . S
H4654 C4674 0.950 . S
H4655 C4675 0.950 . S
H4656 C4677 0.950 . S
H4657 C4680 0.950 . S
H4658 C4681 0.950 . S
H4659 C4683 0.950 . S
H4660 C4684 0.950 . S
H4661 C4685 0.951 . S
H4662 C4687 0.951 . S
H4663 C4689 0.950 . S
H4664 C4690 0.950 . S
H4665 C4692 0.950 . S
H4666 C4695 0.950 . S
H4667 C4696 0.950 1_655 S
H4668 C4698 0.950 . S
H4669 C4699 0.950 . S
C4670 H4652 0.951 . S
C4670 C4671 1.366 . S
C4670 C4672 1.388 . S
C4671 C4670 1.366 . S
C4671 C4675 1.385 . S
C4672 H4653 0.951 . S
C4672 C4670 1.388 . S
C4672 C4673 1.366 . S
C4673 C4672 1.366 . S
C4673 C4674 1.414 . S
C4673 C4676 1.499 . S
C4674 H4654 0.950 . S
C4674 C4673 1.414 . S
C4674 C4675 1.374 . S
C4675 H4655 0.950 . S
C4675 C4671 1.385 . S
C4675 C4674 1.374 . S
C4676 C4673 1.499 . S
C4676 C4677 1.373 . S
C4676 C4678 1.389 . S
C4677 H4656 0.950 . S
C4677 C4676 1.373 . S
C4677 C4693 1.377 . S
C4678 C4676 1.389 . S
C4678 C4679 1.524 . S
C4678 C4692 1.377 . S
C4679 C4678 1.524 . S
C4679 C4680 1.397 . S
C4679 C4684 1.363 . S
C4680 H4657 0.950 . S
C4680 C4679 1.397 . S
C4680 C4681 1.334 . S
C4681 H4658 0.950 . S
C4681 C4680 1.334 . S
C4681 C4682 1.287 . S
C4682 C4681 1.287 . S
C4682 C4683 1.524 . S
C4682 H4701 0.913 . S
C4683 H4659 0.950 . S
C4683 C4682 1.524 . S
C4683 C4684 1.415 . S
C4684 H4660 0.950 . S
C4684 C4679 1.363 . S
C4684 C4683 1.415 . S
C4685 H4661 0.951 . S
C4685 C4686 1.366 . S
C4685 C4687 1.388 . S
C4686 C4685 1.366 . S
C4686 C4690 1.385 . S
C4687 H4662 0.951 . S
C4687 C4685 1.388 . S
C4687 C4688 1.366 . S
C4688 C4687 1.366 . S
C4688 C4689 1.414 . S
C4688 C4691 1.499 . S
C4689 H4663 0.950 . S
C4689 C4688 1.414 . S
C4689 C4690 1.374 . S
C4690 H4664 0.950 . S
C4690 C4686 1.385 . S
C4690 C4689 1.374 . S
C4691 C4688 1.499 . S
C4691 C4692 1.373 . S
C4691 C4693 1.389 . S
C4692 H4665 0.950 . S
C4692 C4678 1.377 . S
C4692 C4691 1.373 . S
C4693 C4677 1.377 . S
C4693 C4691 1.389 . S
C4693 C4694 1.524 . S
C4694 C4693 1.524 . S
C4694 C4695 1.397 . S
C4694 C4699 1.363 . S
C4695 H4666 0.950 . S
C4695 C4694 1.397 . S
C4695 C4696 1.334 . S
C4696 H4667 0.950 1_455 S
C4696 C4695 1.334 . S
C4696 C4697 1.287 . S
C4697 C4696 1.287 . S
C4697 C4698 1.524 . S
C4697 H4700 0.999 1_554 S
C4698 H4668 0.950 . S
C4698 C4697 1.524 . S
C4698 C4699 1.415 . S
C4699 H4669 0.950 . S
C4699 C4694 1.363 . S
C4699 C4698 1.415 . S
H4700 C4697 0.999 1_556 S
H4701 C4682 0.913 . S
H4702 C4720 0.951 . S
H4703 C4722 0.951 . S
H4704 C4724 0.950 . S
H4705 C4725 0.950 . S
H4706 C4727 0.950 . S
H4707 C4730 0.950 . S
H4708 C4731 0.950 . S
H4709 C4733 0.950 . S
H4710 C4734 0.950 . S
H4711 C4735 0.951 . S
H4712 C4737 0.951 . S
H4713 C4739 0.950 . S
H4714 C4740 0.950 . S
H4715 C4742 0.950 . S
H4716 C4745 0.950 . S
H4717 C4746 0.950 . S
H4718 C4748 0.950 . S
H4719 C4749 0.950 . S
C4720 H4702 0.951 . S
C4720 C4721 1.366 . S
C4720 C4722 1.388 . S
C4721 C4720 1.366 . S
C4721 C4725 1.385 . S
C4722 H4703 0.951 . S
C4722 C4720 1.388 . S
C4722 C4723 1.366 . S
C4723 C4722 1.366 . S
C4723 C4724 1.414 . S
C4723 C4726 1.499 . S
C4724 H4704 0.950 . S
C4724 C4723 1.414 . S
C4724 C4725 1.374 . S
C4725 H4705 0.950 . S
C4725 C4721 1.385 . S
C4725 C4724 1.374 . S
C4726 C4723 1.499 . S
C4726 C4727 1.373 . S
C4726 C4728 1.389 . S
C4727 H4706 0.950 . S
C4727 C4726 1.373 . S
C4727 C4743 1.377 . S
C4728 C4726 1.389 . S
C4728 C4729 1.524 . S
C4728 C4742 1.377 . S
C4729 C4728 1.524 . S
C4729 C4730 1.397 . S
C4729 C4734 1.363 . S
C4730 H4707 0.950 . S
C4730 C4729 1.397 . S
C4730 C4731 1.334 . S
C4731 H4708 0.950 . S
C4731 C4730 1.334 . S
C4731 C4732 1.287 . S
C4732 C4731 1.287 . S
C4732 C4733 1.524 . S
C4732 H4751 0.913 . S
C4733 H4709 0.950 . S
C4733 C4732 1.524 . S
C4733 C4734 1.415 . S
C4734 H4710 0.950 . S
C4734 C4729 1.363 . S
C4734 C4733 1.415 . S
C4735 H4711 0.951 . S
C4735 C4736 1.366 . S
C4735 C4737 1.388 . S
C4736 C4735 1.366 . S
C4736 C4740 1.385 . S
C4737 H4712 0.951 . S
C4737 C4735 1.388 . S
C4737 C4738 1.366 . S
C4738 C4737 1.366 . S
C4738 C4739 1.414 . S
C4738 C4741 1.499 . S
C4739 H4713 0.950 . S
C4739 C4738 1.414 . S
C4739 C4740 1.374 . S
C4740 H4714 0.950 . S
C4740 C4736 1.385 . S
C4740 C4739 1.374 . S
C4741 C4738 1.499 . S
C4741 C4742 1.373 . S
C4741 C4743 1.389 . S
C4742 H4715 0.950 . S
C4742 C4728 1.377 . S
C4742 C4741 1.373 . S
C4743 C4727 1.377 . S
C4743 C4741 1.389 . S
C4743 C4744 1.524 . S
C4744 C4743 1.524 . S
C4744 C4745 1.397 . S
C4744 C4749 1.363 . S
C4745 H4716 0.950 . S
C4745 C4744 1.397 . S
C4745 C4746 1.334 . S
C4746 H4717 0.950 . S
C4746 C4745 1.334 . S
C4746 C4747 1.287 . S
C4747 C4746 1.287 . S
C4747 C4748 1.524 . S
C4747 H4750 0.999 . S
C4748 H4718 0.950 . S
C4748 C4747 1.524 . S
C4748 C4749 1.415 . S
C4749 H4719 0.950 . S
C4749 C4744 1.363 . S
C4749 C4748 1.415 . S
H4750 C4747 0.999 . S
H4751 C4732 0.913 . S
H4752 C4770 0.951 . S
H4753 C4772 0.951 . S
H4754 C4774 0.950 . S
H4755 C4775 0.950 . S
H4756 C4777 0.950 . S
H4757 C4780 0.950 . S
H4758 C4781 0.950 . S
H4759 C4783 0.950 . S
H4760 C4784 0.950 . S
H4761 C4785 0.951 . S
H4762 C4787 0.951 . S
H4763 C4789 0.950 . S
H4764 C4790 0.950 . S
H4765 C4792 0.950 . S
H4766 C4795 0.950 . S
H4767 C4796 0.950 . S
H4768 C4798 0.950 . S
H4769 C4799 0.950 . S
C4770 H4752 0.951 . S
C4770 C4771 1.366 . S
C4770 C4772 1.388 . S
C4771 C4770 1.366 . S
C4771 C4775 1.385 . S
C4772 H4753 0.951 . S
C4772 C4770 1.388 . S
C4772 C4773 1.366 . S
C4773 C4772 1.366 . S
C4773 C4774 1.414 . S
C4773 C4776 1.499 . S
C4774 H4754 0.950 . S
C4774 C4773 1.414 . S
C4774 C4775 1.374 . S
C4775 H4755 0.950 . S
C4775 C4771 1.385 . S
C4775 C4774 1.374 . S
C4776 C4773 1.499 . S
C4776 C4777 1.373 . S
C4776 C4778 1.389 . S
C4777 H4756 0.950 . S
C4777 C4776 1.373 . S
C4777 C4793 1.377 . S
C4778 C4776 1.389 . S
C4778 C4779 1.524 . S
C4778 C4792 1.377 . S
C4779 C4778 1.524 . S
C4779 C4780 1.397 . S
C4779 C4784 1.363 . S
C4780 H4757 0.950 . S
C4780 C4779 1.397 . S
C4780 C4781 1.334 . S
C4781 H4758 0.950 . S
C4781 C4780 1.334 . S
C4781 C4782 1.287 . S
C4782 C4781 1.287 . S
C4782 C4783 1.524 . S
C4782 H4801 0.913 . S
C4783 H4759 0.950 . S
C4783 C4782 1.524 . S
C4783 C4784 1.415 . S
C4784 H4760 0.950 . S
C4784 C4779 1.363 . S
C4784 C4783 1.415 . S
C4785 H4761 0.951 . S
C4785 C4786 1.366 . S
C4785 C4787 1.388 . S
C4786 C4785 1.366 . S
C4786 C4790 1.385 . S
C4787 H4762 0.951 . S
C4787 C4785 1.388 . S
C4787 C4788 1.366 . S
C4788 C4787 1.366 . S
C4788 C4789 1.414 . S
C4788 C4791 1.499 . S
C4789 H4763 0.950 . S
C4789 C4788 1.414 . S
C4789 C4790 1.374 . S
C4790 H4764 0.950 . S
C4790 C4786 1.385 . S
C4790 C4789 1.374 . S
C4791 C4788 1.499 . S
C4791 C4792 1.373 . S
C4791 C4793 1.389 . S
C4792 H4765 0.950 . S
C4792 C4778 1.377 . S
C4792 C4791 1.373 . S
C4793 C4777 1.377 . S
C4793 C4791 1.389 . S
C4793 C4794 1.524 . S
C4794 C4793 1.524 . S
C4794 C4795 1.397 . S
C4794 C4799 1.363 . S
C4795 H4766 0.950 . S
C4795 C4794 1.397 . S
C4795 C4796 1.334 1_556 S
C4796 H4767 0.950 . S
C4796 C4795 1.334 1_554 S
C4796 C4797 1.287 . S
C4797 C4796 1.287 . S
C4797 C4798 1.524 . S
C4797 H4800 0.999 . S
C4798 H4768 0.950 . S
C4798 C4797 1.524 . S
C4798 C4799 1.415 1_554 S
C4799 H4769 0.950 . S
C4799 C4794 1.363 . S
C4799 C4798 1.415 1_556 S
H4800 C4797 0.999 . S
H4801 C4782 0.913 . S
H4802 C4820 0.951 . S
H4803 C4822 0.951 . S
H4804 C4824 0.950 . S
H4805 C4825 0.950 . S
H4806 C4827 0.950 . S
H4807 C4830 0.950 . S
H4808 C4831 0.950 . S
H4809 C4833 0.950 . S
H4810 C4834 0.950 . S
H4811 C4835 0.951 . S
H4812 C4837 0.951 . S
H4813 C4839 0.950 . S
H4814 C4840 0.950 . S
H4815 C4842 0.950 . S
H4816 C4845 0.950 . S
H4817 C4846 0.950 . S
H4818 C4848 0.950 . S
H4819 C4849 0.950 . S
C4820 H4802 0.951 . S
C4820 C4821 1.366 . S
C4820 C4822 1.388 . S
C4821 C4820 1.366 . S
C4821 C4825 1.385 . S
C4822 H4803 0.951 . S
C4822 C4820 1.388 . S
C4822 C4823 1.366 . S
C4823 C4822 1.366 . S
C4823 C4824 1.414 . S
C4823 C4826 1.499 . S
C4824 H4804 0.950 . S
C4824 C4823 1.414 . S
C4824 C4825 1.374 . S
C4825 H4805 0.950 . S
C4825 C4821 1.385 . S
C4825 C4824 1.374 . S
C4826 C4823 1.499 . S
C4826 C4827 1.373 . S
C4826 C4828 1.389 . S
C4827 H4806 0.950 . S
C4827 C4826 1.373 . S
C4827 C4843 1.377 . S
C4828 C4826 1.389 . S
C4828 C4829 1.524 . S
C4828 C4842 1.377 . S
C4829 C4828 1.524 . S
C4829 C4830 1.397 . S
C4829 C4834 1.363 . S
C4830 H4807 0.950 . S
C4830 C4829 1.397 . S
C4830 C4831 1.334 . S
C4831 H4808 0.950 . S
C4831 C4830 1.334 . S
C4831 C4832 1.287 . S
C4832 C4831 1.287 . S
C4832 C4833 1.524 . S
C4832 H4851 0.913 . S
C4833 H4809 0.950 . S
C4833 C4832 1.524 . S
C4833 C4834 1.415 . S
C4834 H4810 0.950 . S
C4834 C4829 1.363 . S
C4834 C4833 1.415 . S
C4835 H4811 0.951 . S
C4835 C4836 1.366 . S
C4835 C4837 1.388 . S
C4836 C4835 1.366 . S
C4836 C4840 1.385 . S
C4837 H4812 0.951 . S
C4837 C4835 1.388 . S
C4837 C4838 1.366 . S
C4838 C4837 1.366 . S
C4838 C4839 1.414 . S
C4838 C4841 1.499 . S
C4839 H4813 0.950 . S
C4839 C4838 1.414 . S
C4839 C4840 1.374 . S
C4840 H4814 0.950 . S
C4840 C4836 1.385 . S
C4840 C4839 1.374 . S
C4841 C4838 1.499 . S
C4841 C4842 1.373 . S
C4841 C4843 1.389 . S
C4842 H4815 0.950 . S
C4842 C4828 1.377 . S
C4842 C4841 1.373 . S
C4843 C4827 1.377 . S
C4843 C4841 1.389 . S
C4843 C4844 1.524 . S
C4844 C4843 1.524 . S
C4844 C4845 1.397 . S
C4844 C4849 1.363 . S
C4845 H4816 0.950 . S
C4845 C4844 1.397 . S
C4845 C4846 1.334 . S
C4846 H4817 0.950 . S
C4846 C4845 1.334 . S
C4846 C4847 1.287 . S
C4847 C4846 1.287 . S
C4847 C4848 1.524 . S
C4847 H4850 0.999 . S
C4848 H4818 0.950 . S
C4848 C4847 1.524 . S
C4848 C4849 1.415 . S
C4849 H4819 0.950 . S
C4849 C4844 1.363 . S
C4849 C4848 1.415 . S
H4850 C4847 0.999 . S
H4851 C4832 0.913 . S
H4852 C4870 0.951 . S
H4853 C4872 0.951 . S
H4854 C4874 0.950 . S
H4855 C4875 0.950 . S
H4856 C4877 0.950 . S
H4857 C4880 0.949 1_455 S
H4858 C4881 0.950 . S
H4859 C4883 0.950 . S
H4860 C4884 0.950 . S
H4861 C4885 0.951 . S
H4862 C4887 0.951 . S
H4863 C4889 0.950 . S
H4864 C4890 0.950 . S
H4865 C4892 0.950 . S
H4866 C4895 0.950 . S
H4867 C4896 0.950 . S
H4868 C4898 0.950 . S
H4869 C4899 0.950 . S
C4870 H4852 0.951 . S
C4870 C4871 1.366 . S
C4870 C4872 1.388 . S
C4871 C4870 1.366 . S
C4871 C4875 1.385 . S
C4872 H4853 0.951 . S
C4872 C4870 1.388 . S
C4872 C4873 1.366 . S
C4873 C4872 1.366 . S
C4873 C4874 1.414 . S
C4873 C4876 1.499 . S
C4874 H4854 0.950 . S
C4874 C4873 1.414 . S
C4874 C4875 1.374 . S
C4875 H4855 0.950 . S
C4875 C4871 1.385 . S
C4875 C4874 1.374 . S
C4876 C4873 1.499 . S
C4876 C4877 1.373 . S
C4876 C4878 1.389 . S
C4877 H4856 0.950 . S
C4877 C4876 1.373 . S
C4877 C4893 1.377 . S
C4878 C4876 1.389 . S
C4878 C4879 1.524 1_455 S
C4878 C4892 1.377 . S
C4879 C4878 1.524 1_655 S
C4879 C4880 1.397 . S
C4879 C4884 1.363 . S
C4880 H4857 0.949 1_655 S
C4880 C4879 1.397 . S
C4880 C4881 1.334 . S
C4881 H4858 0.950 . S
C4881 C4880 1.334 . S
C4881 C4882 1.287 . S
C4882 C4881 1.287 . S
C4882 C4883 1.524 . S
C4882 H4901 0.913 . S
C4883 H4859 0.950 . S
C4883 C4882 1.524 . S
C4883 C4884 1.415 . S
C4884 H4860 0.950 . S
C4884 C4879 1.363 . S
C4884 C4883 1.415 . S
C4885 H4861 0.951 . S
C4885 C4886 1.366 . S
C4885 C4887 1.388 . S
C4886 C4885 1.366 . S
C4886 C4890 1.385 . S
C4887 H4862 0.951 . S
C4887 C4885 1.388 . S
C4887 C4888 1.366 . S
C4888 C4887 1.366 . S
C4888 C4889 1.414 . S
C4888 C4891 1.499 . S
C4889 H4863 0.950 . S
C4889 C4888 1.414 . S
C4889 C4890 1.374 . S
C4890 H4864 0.950 . S
C4890 C4886 1.385 . S
C4890 C4889 1.374 . S
C4891 C4888 1.499 . S
C4891 C4892 1.373 . S
C4891 C4893 1.389 . S
C4892 H4865 0.950 . S
C4892 C4878 1.377 . S
C4892 C4891 1.373 . S
C4893 C4877 1.377 . S
C4893 C4891 1.389 . S
C4893 C4894 1.524 . S
C4894 C4893 1.524 . S
C4894 C4895 1.397 . S
C4894 C4899 1.363 . S
C4895 H4866 0.950 . S
C4895 C4894 1.397 . S
C4895 C4896 1.334 . S
C4896 H4867 0.950 . S
C4896 C4895 1.334 . S
C4896 C4897 1.287 . S
C4897 C4896 1.287 . S
C4897 C4898 1.524 . S
C4897 H4900 0.999 . S
C4898 H4868 0.950 . S
C4898 C4897 1.524 . S
C4898 C4899 1.415 . S
C4899 H4869 0.950 . S
C4899 C4894 1.363 . S
C4899 C4898 1.415 . S
H4900 C4897 0.999 . S
H4901 C4882 0.913 . S
H4902 C4920 0.951 . S
H4903 C4922 0.951 . S
H4904 C4924 0.950 . S
H4905 C4925 0.950 . S
H4906 C4927 0.950 . S
H4907 C4930 0.950 . S
H4908 C4931 0.950 . S
H4909 C4933 0.950 . S
H4910 C4934 0.950 . S
H4911 C4935 0.951 . S
H4912 C4937 0.951 . S
H4913 C4939 0.950 . S
H4914 C4940 0.950 . S
H4915 C4942 0.950 . S
H4916 C4945 0.950 . S
H4917 C4946 0.950 . S
H4918 C4948 0.950 . S
H4919 C4949 0.950 . S
C4920 H4902 0.951 . S
C4920 C4921 1.366 . S
C4920 C4922 1.388 . S
C4921 C4920 1.366 . S
C4921 C4925 1.385 . S
C4922 H4903 0.951 . S
C4922 C4920 1.388 . S
C4922 C4923 1.366 . S
C4923 C4922 1.366 . S
C4923 C4924 1.414 . S
C4923 C4926 1.499 . S
C4924 H4904 0.950 . S
C4924 C4923 1.414 . S
C4924 C4925 1.374 . S
C4925 H4905 0.950 . S
C4925 C4921 1.385 . S
C4925 C4924 1.374 . S
C4926 C4923 1.499 . S
C4926 C4927 1.373 . S
C4926 C4928 1.389 . S
C4927 H4906 0.950 . S
C4927 C4926 1.373 . S
C4927 C4943 1.377 . S
C4928 C4926 1.389 . S
C4928 C4929 1.524 . S
C4928 C4942 1.377 . S
C4929 C4928 1.524 . S
C4929 C4930 1.397 . S
C4929 C4934 1.363 . S
C4930 H4907 0.950 . S
C4930 C4929 1.397 . S
C4930 C4931 1.334 . S
C4931 H4908 0.950 . S
C4931 C4930 1.334 . S
C4931 C4932 1.287 . S
C4932 C4931 1.287 . S
C4932 C4933 1.524 . S
C4932 H4951 0.913 . S
C4933 H4909 0.950 . S
C4933 C4932 1.524 . S
C4933 C4934 1.415 . S
C4934 H4910 0.950 . S
C4934 C4929 1.363 . S
C4934 C4933 1.415 . S
C4935 H4911 0.951 . S
C4935 C4936 1.366 . S
C4935 C4937 1.388 . S
C4936 C4935 1.366 . S
C4936 C4940 1.385 . S
C4937 H4912 0.951 . S
C4937 C4935 1.388 . S
C4937 C4938 1.366 . S
C4938 C4937 1.366 . S
C4938 C4939 1.414 . S
C4938 C4941 1.499 . S
C4939 H4913 0.950 . S
C4939 C4938 1.414 . S
C4939 C4940 1.374 . S
C4940 H4914 0.950 . S
C4940 C4936 1.385 . S
C4940 C4939 1.374 . S
C4941 C4938 1.499 . S
C4941 C4942 1.373 . S
C4941 C4943 1.389 . S
C4942 H4915 0.950 . S
C4942 C4928 1.377 . S
C4942 C4941 1.373 . S
C4943 C4927 1.377 . S
C4943 C4941 1.389 . S
C4943 C4944 1.524 . S
C4944 C4943 1.524 . S
C4944 C4945 1.397 . S
C4944 C4949 1.363 . S
C4945 H4916 0.950 . S
C4945 C4944 1.397 . S
C4945 C4946 1.334 . S
C4946 H4917 0.950 . S
C4946 C4945 1.334 . S
C4946 C4947 1.287 . S
C4947 C4946 1.287 . S
C4947 C4948 1.524 . S
C4947 H4950 0.999 . S
C4948 H4918 0.950 . S
C4948 C4947 1.524 . S
C4948 C4949 1.415 . S
C4949 H4919 0.950 . S
C4949 C4944 1.363 . S
C4949 C4948 1.415 . S
H4950 C4947 0.999 . S
H4951 C4932 0.913 . S
H4952 C4970 0.951 . S
H4953 C4972 0.951 . S
H4954 C4974 0.950 . S
H4955 C4975 0.950 . S
H4956 C4977 0.950 . S
H4957 C4980 0.950 . S
H4958 C4981 0.950 . S
H4959 C4983 0.950 . S
H4960 C4984 0.950 . S
H4961 C4985 0.951 . S
H4962 C4987 0.951 . S
H4963 C4989 0.950 . S
H4964 C4990 0.950 . S
H4965 C4992 0.950 . S
H4966 C4995 0.950 . S
H4967 C4996 0.950 . S
H4968 C4998 0.950 . S
H4969 C4999 0.950 . S
C4970 H4952 0.951 . S
C4970 C4971 1.366 . S
C4970 C4972 1.388 . S
C4971 C4970 1.366 . S
C4971 C4975 1.385 . S
C4972 H4953 0.951 . S
C4972 C4970 1.388 . S
C4972 C4973 1.366 . S
C4973 C4972 1.366 . S
C4973 C4974 1.414 . S
C4973 C4976 1.499 . S
C4974 H4954 0.950 . S
C4974 C4973 1.414 . S
C4974 C4975 1.374 . S
C4975 H4955 0.950 . S
C4975 C4971 1.385 . S
C4975 C4974 1.374 . S
C4976 C4973 1.499 . S
C4976 C4977 1.373 . S
C4976 C4978 1.389 . S
C4977 H4956 0.950 . S
C4977 C4976 1.373 . S
C4977 C4993 1.377 . S
C4978 C4976 1.389 . S
C4978 C4979 1.524 . S
C4978 C4992 1.377 . S
C4979 C4978 1.524 . S
C4979 C4980 1.397 . S
C4979 C4984 1.363 . S
C4980 H4957 0.950 . S
C4980 C4979 1.397 . S
C4980 C4981 1.334 . S
C4981 H4958 0.950 . S
C4981 C4980 1.334 . S
C4981 C4982 1.287 . S
C4982 C4981 1.287 . S
C4982 C4983 1.524 . S
C4982 H5001 0.913 . S
C4983 H4959 0.950 . S
C4983 C4982 1.524 . S
C4983 C4984 1.415 . S
C4984 H4960 0.950 . S
C4984 C4979 1.363 . S
C4984 C4983 1.415 . S
C4985 H4961 0.951 . S
C4985 C4986 1.366 . S
C4985 C4987 1.388 . S
C4986 C4985 1.366 . S
C4986 C4990 1.385 . S
C4987 H4962 0.951 . S
C4987 C4985 1.388 . S
C4987 C4988 1.366 . S
C4988 C4987 1.366 . S
C4988 C4989 1.414 . S
C4988 C4991 1.499 . S
C4989 H4963 0.950 . S
C4989 C4988 1.414 . S
C4989 C4990 1.374 . S
C4990 H4964 0.950 . S
C4990 C4986 1.385 . S
C4990 C4989 1.374 . S
C4991 C4988 1.499 . S
C4991 C4992 1.373 . S
C4991 C4993 1.389 . S
C4992 H4965 0.950 . S
C4992 C4978 1.377 . S
C4992 C4991 1.373 . S
C4993 C4977 1.377 . S
C4993 C4991 1.389 . S
C4993 C4994 1.524 . S
C4994 C4993 1.524 . S
C4994 C4995 1.397 . S
C4994 C4999 1.363 . S
C4995 H4966 0.950 . S
C4995 C4994 1.397 . S
C4995 C4996 1.334 . S
C4996 H4967 0.950 . S
C4996 C4995 1.334 . S
C4996 C4997 1.287 . S
C4997 C4996 1.287 . S
C4997 C4998 1.524 . S
C4997 H5000 0.999 . S
C4998 H4968 0.950 . S
C4998 C4997 1.524 . S
C4998 C4999 1.415 . S
C4999 H4969 0.950 . S
C4999 C4994 1.363 . S
C4999 C4998 1.415 . S
H5000 C4997 0.999 . S
H5001 C4982 0.913 . S
H5002 C5020 0.951 . S
H5003 C5022 0.951 . S
H5004 C5024 0.950 . S
H5005 C5025 0.950 . S
H5006 C5027 0.950 . S
H5007 C5030 0.950 . S
H5008 C5031 0.950 . S
H5009 C5033 0.950 . S
H5010 C5034 0.950 . S
H5011 C5035 0.951 . S
H5012 C5037 0.951 . S
H5013 C5039 0.950 . S
H5014 C5040 0.950 . S
H5015 C5042 0.950 . S
H5016 C5045 0.950 . S
H5017 C5046 0.950 . S
H5018 C5048 0.950 . S
H5019 C5049 0.950 . S
C5020 H5002 0.951 . S
C5020 C5021 1.366 . S
C5020 C5022 1.388 . S
C5021 C5020 1.366 . S
C5021 C5025 1.385 . S
C5022 H5003 0.951 . S
C5022 C5020 1.388 . S
C5022 C5023 1.366 . S
C5023 C5022 1.366 . S
C5023 C5024 1.414 . S
C5023 C5026 1.499 . S
C5024 H5004 0.950 . S
C5024 C5023 1.414 . S
C5024 C5025 1.374 . S
C5025 H5005 0.950 . S
C5025 C5021 1.385 . S
C5025 C5024 1.374 . S
C5026 C5023 1.499 . S
C5026 C5027 1.373 . S
C5026 C5028 1.389 . S
C5027 H5006 0.950 . S
C5027 C5026 1.373 . S
C5027 C5043 1.377 . S
C5028 C5026 1.389 . S
C5028 C5029 1.524 . S
C5028 C5042 1.377 . S
C5029 C5028 1.524 . S
C5029 C5030 1.397 . S
C5029 C5034 1.363 . S
C5030 H5007 0.950 . S
C5030 C5029 1.397 . S
C5030 C5031 1.334 . S
C5031 H5008 0.950 . S
C5031 C5030 1.334 . S
C5031 C5032 1.287 . S
C5032 C5031 1.287 . S
C5032 C5033 1.524 . S
C5032 H5051 0.913 . S
C5033 H5009 0.950 . S
C5033 C5032 1.524 . S
C5033 C5034 1.415 . S
C5034 H5010 0.950 . S
C5034 C5029 1.363 . S
C5034 C5033 1.415 . S
C5035 H5011 0.951 . S
C5035 C5036 1.366 . S
C5035 C5037 1.388 . S
C5036 C5035 1.366 . S
C5036 C5040 1.385 . S
C5037 H5012 0.951 . S
C5037 C5035 1.388 . S
C5037 C5038 1.366 . S
C5038 C5037 1.366 . S
C5038 C5039 1.414 . S
C5038 C5041 1.499 . S
C5039 H5013 0.950 . S
C5039 C5038 1.414 . S
C5039 C5040 1.374 . S
C5040 H5014 0.950 . S
C5040 C5036 1.385 . S
C5040 C5039 1.374 . S
C5041 C5038 1.499 . S
C5041 C5042 1.373 . S
C5041 C5043 1.389 . S
C5042 H5015 0.950 . S
C5042 C5028 1.377 . S
C5042 C5041 1.373 . S
C5043 C5027 1.377 . S
C5043 C5041 1.389 . S
C5043 C5044 1.524 . S
C5044 C5043 1.524 . S
C5044 C5045 1.397 . S
C5044 C5049 1.363 . S
C5045 H5016 0.950 . S
C5045 C5044 1.397 . S
C5045 C5046 1.334 . S
C5046 H5017 0.950 . S
C5046 C5045 1.334 . S
C5046 C5047 1.287 . S
C5047 C5046 1.287 . S
C5047 C5048 1.524 . S
C5047 H5050 0.999 . S
C5048 H5018 0.950 . S
C5048 C5047 1.524 . S
C5048 C5049 1.415 . S
C5049 H5019 0.950 . S
C5049 C5044 1.363 . S
C5049 C5048 1.415 . S
H5050 C5047 0.999 . S
H5051 C5032 0.913 . S
H5052 C5070 0.951 . S
H5053 C5072 0.951 . S
H5054 C5074 0.950 . S
H5055 C5075 0.950 . S
H5056 C5077 0.950 . S
H5057 C5080 0.950 . S
H5058 C5081 0.950 . S
H5059 C5083 0.950 . S
H5060 C5084 0.950 . S
H5061 C5085 0.951 . S
H5062 C5087 0.951 . S
H5063 C5089 0.950 . S
H5064 C5090 0.950 . S
H5065 C5092 0.950 1_455 S
H5066 C5095 0.950 . S
H5067 C5096 0.950 . S
H5068 C5098 0.950 . S
H5069 C5099 0.950 . S
C5070 H5052 0.951 . S
C5070 C5071 1.366 . S
C5070 C5072 1.388 . S
C5071 C5070 1.366 . S
C5071 C5075 1.385 . S
C5072 H5053 0.951 . S
C5072 C5070 1.388 . S
C5072 C5073 1.366 . S
C5073 C5072 1.366 . S
C5073 C5074 1.414 . S
C5073 C5076 1.499 . S
C5074 H5054 0.950 . S
C5074 C5073 1.414 . S
C5074 C5075 1.374 . S
C5075 H5055 0.950 . S
C5075 C5071 1.385 . S
C5075 C5074 1.374 . S
C5076 C5073 1.499 . S
C5076 C5077 1.373 . S
C5076 C5078 1.389 . S
C5077 H5056 0.950 . S
C5077 C5076 1.373 . S
C5077 C5093 1.377 . S
C5078 C5076 1.389 . S
C5078 C5079 1.524 . S
C5078 C5092 1.377 . S
C5079 C5078 1.524 . S
C5079 C5080 1.397 . S
C5079 C5084 1.363 1_655 S
C5080 H5057 0.950 . S
C5080 C5079 1.397 . S
C5080 C5081 1.334 . S
C5081 H5058 0.950 . S
C5081 C5080 1.334 . S
C5081 C5082 1.287 1_655 S
C5082 C5081 1.287 1_455 S
C5082 C5083 1.524 . S
C5082 H5101 0.913 . S
C5083 H5059 0.950 . S
C5083 C5082 1.524 . S
C5083 C5084 1.415 . S
C5084 H5060 0.950 . S
C5084 C5079 1.363 1_455 S
C5084 C5083 1.415 . S
C5085 H5061 0.951 . S
C5085 C5086 1.366 1_655 S
C5085 C5087 1.388 . S
C5086 C5085 1.366 1_455 S
C5086 C5090 1.385 . S
C5087 H5062 0.951 . S
C5087 C5085 1.388 . S
C5087 C5088 1.366 . S
C5088 C5087 1.366 . S
C5088 C5089 1.414 1_655 S
C5088 C5091 1.499 . S
C5089 H5063 0.950 . S
C5089 C5088 1.414 1_455 S
C5089 C5090 1.374 . S
C5090 H5064 0.950 . S
C5090 C5086 1.385 . S
C5090 C5089 1.374 . S
C5091 C5088 1.499 . S
C5091 C5092 1.373 . S
C5091 C5093 1.389 . S
C5092 H5065 0.950 1_655 S
C5092 C5078 1.377 . S
C5092 C5091 1.373 . S
C5093 C5077 1.377 . S
C5093 C5091 1.389 . S
C5093 C5094 1.524 . S
C5094 C5093 1.524 . S
C5094 C5095 1.397 . S
C5094 C5099 1.363 . S
C5095 H5066 0.950 . S
C5095 C5094 1.397 . S
C5095 C5096 1.334 . S
C5096 H5067 0.950 . S
C5096 C5095 1.334 . S
C5096 C5097 1.287 . S
C5097 C5096 1.287 . S
C5097 C5098 1.524 . S
C5097 H5100 0.999 . S
C5098 H5068 0.950 . S
C5098 C5097 1.524 . S
C5098 C5099 1.415 . S
C5099 H5069 0.950 . S
C5099 C5094 1.363 . S
C5099 C5098 1.415 . S
H5100 C5097 0.999 . S
H5101 C5082 0.913 . S
H5102 C5120 0.951 . S
H5103 C5122 0.951 . S
H5104 C5124 0.950 . S
H5105 C5125 0.950 . S
H5106 C5127 0.950 . S
H5107 C5130 0.950 . S
H5108 C5131 0.950 . S
H5109 C5133 0.950 . S
H5110 C5134 0.950 . S
H5111 C5135 0.951 . S
H5112 C5137 0.951 . S
H5113 C5139 0.950 . S
H5114 C5140 0.950 . S
H5115 C5142 0.950 . S
H5116 C5145 0.950 . S
H5117 C5146 0.950 . S
H5118 C5148 0.950 . S
H5119 C5149 0.950 . S
C5120 H5102 0.951 . S
C5120 C5121 1.366 . S
C5120 C5122 1.388 . S
C5121 C5120 1.366 . S
C5121 C5125 1.385 . S
C5122 H5103 0.951 . S
C5122 C5120 1.388 . S
C5122 C5123 1.366 . S
C5123 C5122 1.366 . S
C5123 C5124 1.414 . S
C5123 C5126 1.499 . S
C5124 H5104 0.950 . S
C5124 C5123 1.414 . S
C5124 C5125 1.374 . S
C5125 H5105 0.950 . S
C5125 C5121 1.385 . S
C5125 C5124 1.374 . S
C5126 C5123 1.499 . S
C5126 C5127 1.373 . S
C5126 C5128 1.389 . S
C5127 H5106 0.950 . S
C5127 C5126 1.373 . S
C5127 C5143 1.377 . S
C5128 C5126 1.389 . S
C5128 C5129 1.524 . S
C5128 C5142 1.377 . S
C5129 C5128 1.524 . S
C5129 C5130 1.397 . S
C5129 C5134 1.363 . S
C5130 H5107 0.950 . S
C5130 C5129 1.397 . S
C5130 C5131 1.334 . S
C5131 H5108 0.950 . S
C5131 C5130 1.334 . S
C5131 C5132 1.287 . S
C5132 C5131 1.287 . S
C5132 C5133 1.524 . S
C5132 H5151 0.913 . S
C5133 H5109 0.950 . S
C5133 C5132 1.524 . S
C5133 C5134 1.415 . S
C5134 H5110 0.950 . S
C5134 C5129 1.363 . S
C5134 C5133 1.415 . S
C5135 H5111 0.951 . S
C5135 C5136 1.366 . S
C5135 C5137 1.388 . S
C5136 C5135 1.366 . S
C5136 C5140 1.385 . S
C5137 H5112 0.951 . S
C5137 C5135 1.388 . S
C5137 C5138 1.366 . S
C5138 C5137 1.366 . S
C5138 C5139 1.414 . S
C5138 C5141 1.499 . S
C5139 H5113 0.950 . S
C5139 C5138 1.414 . S
C5139 C5140 1.374 . S
C5140 H5114 0.950 . S
C5140 C5136 1.385 . S
C5140 C5139 1.374 . S
C5141 C5138 1.499 . S
C5141 C5142 1.373 . S
C5141 C5143 1.389 . S
C5142 H5115 0.950 . S
C5142 C5128 1.377 . S
C5142 C5141 1.373 . S
C5143 C5127 1.377 . S
C5143 C5141 1.389 . S
C5143 C5144 1.524 . S
C5144 C5143 1.524 . S
C5144 C5145 1.397 . S
C5144 C5149 1.363 . S
C5145 H5116 0.950 . S
C5145 C5144 1.397 . S
C5145 C5146 1.334 . S
C5146 H5117 0.950 . S
C5146 C5145 1.334 . S
C5146 C5147 1.287 . S
C5147 C5146 1.287 . S
C5147 C5148 1.524 . S
C5147 H5150 0.999 . S
C5148 H5118 0.950 . S
C5148 C5147 1.524 . S
C5148 C5149 1.415 . S
C5149 H5119 0.950 . S
C5149 C5144 1.363 . S
C5149 C5148 1.415 . S
H5150 C5147 0.999 . S
H5151 C5132 0.913 . S
H5152 C5170 0.951 . S
H5153 C5172 0.951 . S
H5154 C5174 0.950 . S
H5155 C5175 0.950 . S
H5156 C5177 0.950 . S
H5157 C5180 0.950 . S
H5158 C5181 0.950 . S
H5159 C5183 0.950 . S
H5160 C5184 0.950 . S
H5161 C5185 0.951 . S
H5162 C5187 0.951 . S
H5163 C5189 0.950 . S
H5164 C5190 0.950 . S
H5165 C5192 0.950 . S
H5166 C5195 0.950 . S
H5167 C5196 0.950 . S
H5168 C5198 0.950 . S
H5169 C5199 0.950 . S
C5170 H5152 0.951 . S
C5170 C5171 1.366 . S
C5170 C5172 1.388 . S
C5171 C5170 1.366 . S
C5171 C5175 1.385 . S
C5172 H5153 0.951 . S
C5172 C5170 1.388 . S
C5172 C5173 1.366 . S
C5173 C5172 1.366 . S
C5173 C5174 1.414 . S
C5173 C5176 1.499 . S
C5174 H5154 0.950 . S
C5174 C5173 1.414 . S
C5174 C5175 1.374 . S
C5175 H5155 0.950 . S
C5175 C5171 1.385 . S
C5175 C5174 1.374 . S
C5176 C5173 1.499 . S
C5176 C5177 1.373 . S
C5176 C5178 1.389 . S
C5177 H5156 0.950 . S
C5177 C5176 1.373 . S
C5177 C5193 1.377 . S
C5178 C5176 1.389 . S
C5178 C5179 1.524 . S
C5178 C5192 1.377 . S
C5179 C5178 1.524 . S
C5179 C5180 1.397 . S
C5179 C5184 1.363 . S
C5180 H5157 0.950 . S
C5180 C5179 1.397 . S
C5180 C5181 1.334 . S
C5181 H5158 0.950 . S
C5181 C5180 1.334 . S
C5181 C5182 1.287 . S
C5182 C5181 1.287 . S
C5182 C5183 1.524 . S
C5182 H5201 0.913 . S
C5183 H5159 0.950 . S
C5183 C5182 1.524 . S
C5183 C5184 1.415 . S
C5184 H5160 0.950 . S
C5184 C5179 1.363 . S
C5184 C5183 1.415 . S
C5185 H5161 0.951 . S
C5185 C5186 1.366 . S
C5185 C5187 1.388 . S
C5186 C5185 1.366 . S
C5186 C5190 1.385 . S
C5187 H5162 0.951 . S
C5187 C5185 1.388 . S
C5187 C5188 1.366 . S
C5188 C5187 1.366 . S
C5188 C5189 1.414 . S
C5188 C5191 1.499 . S
C5189 H5163 0.950 . S
C5189 C5188 1.414 . S
C5189 C5190 1.374 . S
C5190 H5164 0.950 . S
C5190 C5186 1.385 . S
C5190 C5189 1.374 . S
C5191 C5188 1.499 . S
C5191 C5192 1.373 . S
C5191 C5193 1.389 . S
C5192 H5165 0.950 . S
C5192 C5178 1.377 . S
C5192 C5191 1.373 . S
C5193 C5177 1.377 . S
C5193 C5191 1.389 . S
C5193 C5194 1.524 . S
C5194 C5193 1.524 . S
C5194 C5195 1.397 . S
C5194 C5199 1.363 . S
C5195 H5166 0.950 . S
C5195 C5194 1.397 . S
C5195 C5196 1.334 . S
C5196 H5167 0.950 . S
C5196 C5195 1.334 . S
C5196 C5197 1.287 . S
C5197 C5196 1.287 . S
C5197 C5198 1.524 . S
C5197 H5200 0.999 . S
C5198 H5168 0.950 . S
C5198 C5197 1.524 . S
C5198 C5199 1.415 . S
C5199 H5169 0.950 . S
C5199 C5194 1.363 . S
C5199 C5198 1.415 . S
H5200 C5197 0.999 . S
H5201 C5182 0.913 . S
H5202 C5220 0.951 . S
H5203 C5222 0.951 . S
H5204 C5224 0.950 . S
H5205 C5225 0.950 . S
H5206 C5227 0.950 . S
H5207 C5230 0.950 . S
H5208 C5231 0.950 . S
H5209 C5233 0.950 . S
H5210 C5234 0.950 . S
H5211 C5235 0.951 . S
H5212 C5237 0.951 . S
H5213 C5239 0.950 . S
H5214 C5240 0.950 . S
H5215 C5242 0.950 . S
H5216 C5245 0.950 . S
H5217 C5246 0.950 . S
H5218 C5248 0.950 . S
H5219 C5249 0.950 . S
C5220 H5202 0.951 . S
C5220 C5221 1.366 . S
C5220 C5222 1.388 . S
C5221 C5220 1.366 . S
C5221 C5225 1.385 . S
C5222 H5203 0.951 . S
C5222 C5220 1.388 . S
C5222 C5223 1.366 . S
C5223 C5222 1.366 . S
C5223 C5224 1.414 . S
C5223 C5226 1.499 . S
C5224 H5204 0.950 . S
C5224 C5223 1.414 . S
C5224 C5225 1.374 . S
C5225 H5205 0.950 . S
C5225 C5221 1.385 . S
C5225 C5224 1.374 . S
C5226 C5223 1.499 . S
C5226 C5227 1.373 . S
C5226 C5228 1.389 . S
C5227 H5206 0.950 . S
C5227 C5226 1.373 . S
C5227 C5243 1.377 . S
C5228 C5226 1.389 . S
C5228 C5229 1.524 . S
C5228 C5242 1.377 . S
C5229 C5228 1.524 . S
C5229 C5230 1.397 . S
C5229 C5234 1.363 . S
C5230 H5207 0.950 . S
C5230 C5229 1.397 . S
C5230 C5231 1.334 . S
C5231 H5208 0.950 . S
C5231 C5230 1.334 . S
C5231 C5232 1.287 . S
C5232 C5231 1.287 . S
C5232 C5233 1.524 . S
C5232 H5251 0.913 . S
C5233 H5209 0.950 . S
C5233 C5232 1.524 . S
C5233 C5234 1.415 . S
C5234 H5210 0.950 . S
C5234 C5229 1.363 . S
C5234 C5233 1.415 . S
C5235 H5211 0.951 . S
C5235 C5236 1.366 . S
C5235 C5237 1.388 . S
C5236 C5235 1.366 . S
C5236 C5240 1.385 . S
C5237 H5212 0.951 . S
C5237 C5235 1.388 . S
C5237 C5238 1.366 . S
C5238 C5237 1.366 . S
C5238 C5239 1.414 . S
C5238 C5241 1.499 . S
C5239 H5213 0.950 . S
C5239 C5238 1.414 . S
C5239 C5240 1.374 . S
C5240 H5214 0.950 . S
C5240 C5236 1.385 . S
C5240 C5239 1.374 . S
C5241 C5238 1.499 . S
C5241 C5242 1.373 . S
C5241 C5243 1.389 . S
C5242 H5215 0.950 . S
C5242 C5228 1.377 . S
C5242 C5241 1.373 . S
C5243 C5227 1.377 . S
C5243 C5241 1.389 . S
C5243 C5244 1.524 . S
C5244 C5243 1.524 . S
C5244 C5245 1.397 . S
C5244 C5249 1.363 . S
C5245 H5216 0.950 . S
C5245 C5244 1.397 . S
C5245 C5246 1.334 . S
C5246 H5217 0.950 . S
C5246 C5245 1.334 . S
C5246 C5247 1.287 . S
C5247 C5246 1.287 . S
C5247 C5248 1.524 . S
C5247 H5250 0.999 . S
C5248 H5218 0.950 . S
C5248 C5247 1.524 . S
C5248 C5249 1.415 . S
C5249 H5219 0.950 . S
C5249 C5244 1.363 . S
C5249 C5248 1.415 . S
H5250 C5247 0.999 . S
H5251 C5232 0.913 . S
H5252 C5270 0.951 . S
H5253 C5272 0.951 . S
H5254 C5274 0.950 . S
H5255 C5275 0.950 . S
H5256 C5277 0.950 . S
H5257 C5280 0.950 . S
H5258 C5281 0.950 . S
H5259 C5283 0.950 . S
H5260 C5284 0.950 . S
H5261 C5285 0.951 . S
H5262 C5287 0.953 . S
H5263 C5289 0.950 . S
H5264 C5290 0.950 . S
H5265 C5292 0.950 . S
H5266 C5295 0.950 . S
H5267 C5296 0.950 . S
H5268 C5298 0.978 . S
H5269 C5299 0.952 . S
C5270 H5252 0.951 . S
C5270 C5271 1.366 . S
C5270 C5272 1.388 . S
C5271 C5270 1.366 . S
C5271 C5275 1.385 . S
C5272 H5253 0.951 . S
C5272 C5270 1.388 . S
C5272 C5273 1.366 . S
C5273 C5272 1.366 . S
C5273 C5274 1.414 . S
C5273 C5276 1.499 . S
C5274 H5254 0.950 . S
C5274 C5273 1.414 . S
C5274 C5275 1.374 . S
C5275 H5255 0.950 . S
C5275 C5271 1.385 . S
C5275 C5274 1.374 . S
C5276 C5273 1.499 . S
C5276 C5277 1.373 . S
C5276 C5278 1.389 . S
C5277 H5256 0.950 . S
C5277 C5276 1.373 . S
C5277 C5293 1.377 . S
C5278 C5276 1.389 . S
C5278 C5279 1.524 . S
C5278 C5292 1.377 . S
C5279 C5278 1.524 . S
C5279 C5280 1.397 . S
C5279 C5284 1.363 . S
C5280 H5257 0.950 . S
C5280 C5279 1.397 . S
C5280 C5281 1.334 . S
C5281 H5258 0.950 . S
C5281 C5280 1.334 . S
C5281 C5282 1.287 . S
C5282 C5281 1.287 . S
C5282 C5283 1.524 . S
C5282 H5301 0.913 . S
C5283 H5259 0.950 . S
C5283 C5282 1.524 . S
C5283 C5284 1.415 . S
C5284 H5260 0.950 . S
C5284 C5279 1.363 . S
C5284 C5283 1.415 . S
C5285 H5261 0.951 . S
C5285 C5286 1.366 1_455 S
C5285 C5287 1.390 . S
C5286 C5285 1.366 1_655 S
C5286 C5290 1.385 . S
C5287 H5262 0.953 . S
C5287 C5285 1.390 . S
C5287 C5288 1.361 1_455 S
C5288 C5287 1.361 1_655 S
C5288 C5289 1.414 . S
C5288 C5291 1.499 . S
C5289 H5263 0.950 . S
C5289 C5288 1.414 . S
C5289 C5290 1.374 . S
C5290 H5264 0.950 . S
C5290 C5286 1.385 . S
C5290 C5289 1.374 . S
C5291 C5288 1.499 . S
C5291 C5292 1.373 . S
C5291 C5293 1.389 . S
C5292 H5265 0.950 . S
C5292 C5278 1.377 . S
C5292 C5291 1.373 . S
C5293 C5277 1.377 . S
C5293 C5291 1.389 . S
C5293 C5294 1.524 . S
C5294 C5293 1.524 . S
C5294 C5295 1.397 . S
C5294 C5299 1.363 . S
C5295 H5266 0.950 . S
C5295 C5294 1.397 . S
C5295 C5296 1.334 . S
C5296 H5267 0.950 . S
C5296 C5295 1.334 . S
C5296 C5297 1.287 . S
C5297 C5296 1.287 . S
C5297 C5298 1.497 1_655 S
C5297 H5300 0.999 . S
C5298 H5268 0.978 . S
C5298 C5297 1.497 1_455 S
C5298 C5299 1.412 1_455 S
C5299 H5269 0.952 . S
C5299 C5294 1.363 . S
C5299 C5298 1.412 1_655 S
H5300 C5297 0.999 . S
H5301 C5282 0.913 . S
H5302 C5320 0.951 . S
H5303 C5322 0.951 . S
H5304 C5324 0.950 . S
H5305 C5325 0.950 . S
H5306 C5327 0.950 . S
H5307 C5330 0.950 . S
H5308 C5331 0.950 . S
H5309 C5333 0.950 . S
H5310 C5334 0.950 . S
H5311 C5335 0.951 . S
H5312 C5337 0.951 . S
H5313 C5339 0.950 . S
H5314 C5340 0.950 . S
H5315 C5342 0.950 . S
H5316 C5345 0.950 . S
H5317 C5346 0.950 . S
H5318 C5348 0.950 . S
H5319 C5349 0.950 . S
C5320 H5302 0.951 . S
C5320 C5321 1.366 . S
C5320 C5322 1.388 . S
C5321 C5320 1.366 . S
C5321 C5325 1.385 . S
C5322 H5303 0.951 . S
C5322 C5320 1.388 . S
C5322 C5323 1.366 . S
C5323 C5322 1.366 . S
C5323 C5324 1.414 . S
C5323 C5326 1.499 . S
C5324 H5304 0.950 . S
C5324 C5323 1.414 . S
C5324 C5325 1.374 . S
C5325 H5305 0.950 . S
C5325 C5321 1.385 . S
C5325 C5324 1.374 . S
C5326 C5323 1.499 . S
C5326 C5327 1.373 . S
C5326 C5328 1.389 . S
C5327 H5306 0.950 . S
C5327 C5326 1.373 . S
C5327 C5343 1.377 . S
C5328 C5326 1.389 . S
C5328 C5329 1.524 . S
C5328 C5342 1.377 . S
C5329 C5328 1.524 . S
C5329 C5330 1.397 . S
C5329 C5334 1.363 . S
C5330 H5307 0.950 . S
C5330 C5329 1.397 . S
C5330 C5331 1.334 . S
C5331 H5308 0.950 . S
C5331 C5330 1.334 . S
C5331 C5332 1.287 . S
C5332 C5331 1.287 . S
C5332 C5333 1.524 . S
C5332 H5351 0.913 . S
C5333 H5309 0.950 . S
C5333 C5332 1.524 . S
C5333 C5334 1.415 . S
C5334 H5310 0.950 . S
C5334 C5329 1.363 . S
C5334 C5333 1.415 . S
C5335 H5311 0.951 . S
C5335 C5336 1.366 . S
C5335 C5337 1.388 . S
C5336 C5335 1.366 . S
C5336 C5340 1.385 . S
C5337 H5312 0.951 . S
C5337 C5335 1.388 . S
C5337 C5338 1.366 . S
C5338 C5337 1.366 . S
C5338 C5339 1.414 . S
C5338 C5341 1.499 . S
C5339 H5313 0.950 . S
C5339 C5338 1.414 . S
C5339 C5340 1.374 . S
C5340 H5314 0.950 . S
C5340 C5336 1.385 . S
C5340 C5339 1.374 . S
C5341 C5338 1.499 . S
C5341 C5342 1.373 . S
C5341 C5343 1.389 . S
C5342 H5315 0.950 . S
C5342 C5328 1.377 . S
C5342 C5341 1.373 . S
C5343 C5327 1.377 . S
C5343 C5341 1.389 . S
C5343 C5344 1.524 . S
C5344 C5343 1.524 . S
C5344 C5345 1.397 . S
C5344 C5349 1.363 . S
C5345 H5316 0.950 . S
C5345 C5344 1.397 . S
C5345 C5346 1.334 . S
C5346 H5317 0.950 . S
C5346 C5345 1.334 . S
C5346 C5347 1.287 . S
C5347 C5346 1.287 . S
C5347 C5348 1.524 . S
C5347 H5350 0.999 . S
C5348 H5318 0.950 . S
C5348 C5347 1.524 . S
C5348 C5349 1.415 . S
C5349 H5319 0.950 . S
C5349 C5344 1.363 . S
C5349 C5348 1.415 . S
H5350 C5347 0.999 . S
H5351 C5332 0.913 . S
H5352 C5370 0.951 . S
H5353 C5372 0.951 . S
H5354 C5374 0.950 . S
H5355 C5375 0.950 . S
H5356 C5377 0.950 . S
H5357 C5380 0.950 . S
H5358 C5381 0.950 . S
H5359 C5383 0.950 . S
H5360 C5384 0.950 . S
H5361 C5385 0.951 . S
H5362 C5387 0.951 . S
H5363 C5389 0.950 . S
H5364 C5390 0.950 . S
H5365 C5392 0.950 . S
H5366 C5395 0.950 . S
H5367 C5396 0.950 . S
H5368 C5398 0.950 . S
H5369 C5399 0.950 . S
C5370 H5352 0.951 . S
C5370 C5371 1.366 . S
C5370 C5372 1.388 . S
C5371 C5370 1.366 . S
C5371 C5375 1.385 . S
C5372 H5353 0.951 . S
C5372 C5370 1.388 . S
C5372 C5373 1.366 . S
C5373 C5372 1.366 . S
C5373 C5374 1.414 . S
C5373 C5376 1.499 . S
C5374 H5354 0.950 . S
C5374 C5373 1.414 . S
C5374 C5375 1.374 . S
C5375 H5355 0.950 . S
C5375 C5371 1.385 . S
C5375 C5374 1.374 . S
C5376 C5373 1.499 . S
C5376 C5377 1.373 . S
C5376 C5378 1.389 . S
C5377 H5356 0.950 . S
C5377 C5376 1.373 . S
C5377 C5393 1.377 . S
C5378 C5376 1.389 . S
C5378 C5379 1.524 . S
C5378 C5392 1.377 . S
C5379 C5378 1.524 . S
C5379 C5380 1.397 . S
C5379 C5384 1.363 . S
C5380 H5357 0.950 . S
C5380 C5379 1.397 . S
C5380 C5381 1.334 . S
C5381 H5358 0.950 . S
C5381 C5380 1.334 . S
C5381 C5382 1.287 . S
C5382 C5381 1.287 . S
C5382 C5383 1.524 . S
C5382 H5401 0.913 . S
C5383 H5359 0.950 . S
C5383 C5382 1.524 . S
C5383 C5384 1.415 . S
C5384 H5360 0.950 . S
C5384 C5379 1.363 . S
C5384 C5383 1.415 . S
C5385 H5361 0.951 . S
C5385 C5386 1.366 . S
C5385 C5387 1.388 . S
C5386 C5385 1.366 . S
C5386 C5390 1.385 . S
C5387 H5362 0.951 . S
C5387 C5385 1.388 . S
C5387 C5388 1.366 . S
C5388 C5387 1.366 . S
C5388 C5389 1.414 . S
C5388 C5391 1.499 . S
C5389 H5363 0.950 . S
C5389 C5388 1.414 . S
C5389 C5390 1.374 . S
C5390 H5364 0.950 . S
C5390 C5386 1.385 . S
C5390 C5389 1.374 . S
C5391 C5388 1.499 . S
C5391 C5392 1.373 . S
C5391 C5393 1.389 . S
C5392 H5365 0.950 . S
C5392 C5378 1.377 . S
C5392 C5391 1.373 . S
C5393 C5377 1.377 . S
C5393 C5391 1.389 . S
C5393 C5394 1.524 . S
C5394 C5393 1.524 . S
C5394 C5395 1.397 . S
C5394 C5399 1.363 . S
C5395 H5366 0.950 . S
C5395 C5394 1.397 . S
C5395 C5396 1.334 . S
C5396 H5367 0.950 . S
C5396 C5395 1.334 . S
C5396 C5397 1.287 . S
C5397 C5396 1.287 . S
C5397 C5398 1.524 . S
C5397 H5400 0.999 . S
C5398 H5368 0.950 . S
C5398 C5397 1.524 . S
C5398 C5399 1.415 . S
C5399 H5369 0.950 . S
C5399 C5394 1.363 . S
C5399 C5398 1.415 . S
H5400 C5397 0.999 . S
H5401 C5382 0.913 . S
H5402 C5420 0.951 . S
H5403 C5422 0.951 . S
H5404 C5424 0.950 . S
H5405 C5425 0.950 . S
H5406 C5427 0.950 . S
H5407 C5430 0.950 . S
H5408 C5431 0.950 . S
H5409 C5433 0.950 . S
H5410 C5434 0.950 . S
H5411 C5435 0.918 1_545 S
H5412 C5437 0.951 . S
H5413 C5439 0.950 . S
H5414 C5440 0.950 . S
H5415 C5442 0.950 . S
H5416 C5445 0.950 . S
H5417 C5446 0.950 . S
H5418 C5448 0.950 . S
H5419 C5449 0.950 . S
C5420 H5402 0.951 . S
C5420 C5421 1.366 . S
C5420 C5422 1.388 . S
C5421 C5420 1.366 . S
C5421 C5425 1.385 . S
C5422 H5403 0.951 . S
C5422 C5420 1.388 . S
C5422 C5423 1.366 . S
C5423 C5422 1.366 . S
C5423 C5424 1.414 . S
C5423 C5426 1.499 . S
C5424 H5404 0.950 . S
C5424 C5423 1.414 . S
C5424 C5425 1.374 . S
C5425 H5405 0.950 . S
C5425 C5421 1.385 . S
C5425 C5424 1.374 . S
C5426 C5423 1.499 . S
C5426 C5427 1.373 . S
C5426 C5428 1.389 . S
C5427 H5406 0.950 . S
C5427 C5426 1.373 . S
C5427 C5443 1.377 . S
C5428 C5426 1.389 . S
C5428 C5429 1.524 . S
C5428 C5442 1.377 . S
C5429 C5428 1.524 . S
C5429 C5430 1.397 . S
C5429 C5434 1.363 . S
C5430 H5407 0.950 . S
C5430 C5429 1.397 . S
C5430 C5431 1.334 . S
C5431 H5408 0.950 . S
C5431 C5430 1.334 . S
C5431 C5432 1.287 . S
C5432 C5431 1.287 . S
C5432 C5433 1.524 . S
C5432 H5451 0.913 . S
C5433 H5409 0.950 . S
C5433 C5432 1.524 . S
C5433 C5434 1.415 . S
C5434 H5410 0.950 . S
C5434 C5429 1.363 . S
C5434 C5433 1.415 . S
C5435 H5411 0.918 1_565 S
C5435 C5436 1.386 . S
C5435 C5437 1.401 . S
C5436 C5435 1.386 . S
C5436 C5440 1.385 . S
C5437 H5412 0.951 . S
C5437 C5435 1.401 . S
C5437 C5438 1.366 . S
C5438 C5437 1.366 . S
C5438 C5439 1.414 . S
C5438 C5441 1.499 . S
C5439 H5413 0.950 . S
C5439 C5438 1.414 . S
C5439 C5440 1.374 . S
C5440 H5414 0.950 . S
C5440 C5436 1.385 . S
C5440 C5439 1.374 . S
C5441 C5438 1.499 . S
C5441 C5442 1.373 . S
C5441 C5443 1.389 . S
C5442 H5415 0.950 . S
C5442 C5428 1.377 . S
C5442 C5441 1.373 . S
C5443 C5427 1.377 . S
C5443 C5441 1.389 . S
C5443 C5444 1.524 . S
C5444 C5443 1.524 . S
C5444 C5445 1.397 . S
C5444 C5449 1.363 . S
C5445 H5416 0.950 . S
C5445 C5444 1.397 . S
C5445 C5446 1.334 . S
C5446 H5417 0.950 . S
C5446 C5445 1.334 . S
C5446 C5447 1.287 . S
C5447 C5446 1.287 . S
C5447 C5448 1.524 . S
C5447 H5450 0.999 . S
C5448 H5418 0.950 . S
C5448 C5447 1.524 . S
C5448 C5449 1.415 . S
C5449 H5419 0.950 . S
C5449 C5444 1.363 . S
C5449 C5448 1.415 . S
H5450 C5447 0.999 . S
H5451 C5432 0.913 . S
H5452 C5470 0.951 . S
H5453 C5472 0.951 . S
H5454 C5474 0.950 . S
H5455 C5475 0.950 . S
H5456 C5477 0.950 . S
H5457 C5480 0.950 . S
H5458 C5481 0.950 . S
H5459 C5483 0.950 . S
H5460 C5484 0.950 . S
H5461 C5485 0.951 . S
H5462 C5487 0.951 . S
H5463 C5489 0.950 . S
H5464 C5490 0.950 . S
H5465 C5492 0.950 . S
H5466 C5495 0.950 . S
H5467 C5496 0.950 . S
H5468 C5498 0.950 . S
H5469 C5499 0.950 . S
C5470 H5452 0.951 . S
C5470 C5471 1.366 . S
C5470 C5472 1.388 . S
C5471 C5470 1.366 . S
C5471 C5475 1.385 . S
C5472 H5453 0.951 . S
C5472 C5470 1.388 . S
C5472 C5473 1.366 . S
C5473 C5472 1.366 . S
C5473 C5474 1.414 . S
C5473 C5476 1.499 . S
C5474 H5454 0.950 . S
C5474 C5473 1.414 . S
C5474 C5475 1.374 . S
C5475 H5455 0.950 . S
C5475 C5471 1.385 . S
C5475 C5474 1.374 . S
C5476 C5473 1.499 . S
C5476 C5477 1.373 . S
C5476 C5478 1.389 . S
C5477 H5456 0.950 . S
C5477 C5476 1.373 . S
C5477 C5493 1.377 . S
C5478 C5476 1.389 . S
C5478 C5479 1.524 . S
C5478 C5492 1.377 . S
C5479 C5478 1.524 . S
C5479 C5480 1.397 . S
C5479 C5484 1.363 . S
C5480 H5457 0.950 . S
C5480 C5479 1.397 . S
C5480 C5481 1.334 . S
C5481 H5458 0.950 . S
C5481 C5480 1.334 . S
C5481 C5482 1.287 . S
C5482 C5481 1.287 . S
C5482 C5483 1.524 . S
C5482 H5501 0.913 . S
C5483 H5459 0.950 . S
C5483 C5482 1.524 . S
C5483 C5484 1.415 . S
C5484 H5460 0.950 . S
C5484 C5479 1.363 . S
C5484 C5483 1.415 . S
C5485 H5461 0.951 . S
C5485 C5486 1.366 . S
C5485 C5487 1.388 . S
C5486 C5485 1.366 . S
C5486 C5490 1.385 . S
C5487 H5462 0.951 . S
C5487 C5485 1.388 . S
C5487 C5488 1.366 . S
C5488 C5487 1.366 . S
C5488 C5489 1.414 . S
C5488 C5491 1.499 . S
C5489 H5463 0.950 . S
C5489 C5488 1.414 . S
C5489 C5490 1.374 . S
C5490 H5464 0.950 . S
C5490 C5486 1.385 . S
C5490 C5489 1.374 . S
C5491 C5488 1.499 . S
C5491 C5492 1.373 . S
C5491 C5493 1.389 . S
C5492 H5465 0.950 . S
C5492 C5478 1.377 . S
C5492 C5491 1.373 . S
C5493 C5477 1.377 . S
C5493 C5491 1.389 . S
C5493 C5494 1.524 . S
C5494 C5493 1.524 . S
C5494 C5495 1.397 . S
C5494 C5499 1.363 . S
C5495 H5466 0.950 . S
C5495 C5494 1.397 . S
C5495 C5496 1.334 . S
C5496 H5467 0.950 . S
C5496 C5495 1.334 . S
C5496 C5497 1.287 . S
C5497 C5496 1.287 . S
C5497 C5498 1.524 . S
C5497 H5500 0.999 . S
C5498 H5468 0.950 . S
C5498 C5497 1.524 . S
C5498 C5499 1.415 . S
C5499 H5469 0.950 . S
C5499 C5494 1.363 . S
C5499 C5498 1.415 . S
H5500 C5497 0.999 . S
H5501 C5482 0.913 . S
H5502 C5520 0.951 . S
H5503 C5522 0.951 . S
H5504 C5524 0.950 . S
H5505 C5525 0.950 . S
H5506 C5527 0.950 . S
H5507 C5530 0.950 . S
H5508 C5531 0.950 . S
H5509 C5533 0.950 . S
H5510 C5534 0.950 . S
H5511 C5535 0.951 . S
H5512 C5537 0.951 . S
H5513 C5539 0.950 . S
H5514 C5540 0.950 . S
H5515 C5542 0.950 . S
H5516 C5545 0.950 . S
H5517 C5546 0.950 . S
H5518 C5548 0.950 . S
H5519 C5549 0.950 . S
C5520 H5502 0.951 . S
C5520 C5521 1.366 . S
C5520 C5522 1.388 . S
C5521 C5520 1.366 . S
C5521 C5525 1.385 . S
C5522 H5503 0.951 . S
C5522 C5520 1.388 . S
C5522 C5523 1.366 . S
C5523 C5522 1.366 . S
C5523 C5524 1.414 . S
C5523 C5526 1.499 . S
C5524 H5504 0.950 . S
C5524 C5523 1.414 . S
C5524 C5525 1.374 . S
C5525 H5505 0.950 . S
C5525 C5521 1.385 . S
C5525 C5524 1.374 . S
C5526 C5523 1.499 . S
C5526 C5527 1.373 . S
C5526 C5528 1.389 . S
C5527 H5506 0.950 . S
C5527 C5526 1.373 . S
C5527 C5543 1.377 . S
C5528 C5526 1.389 . S
C5528 C5529 1.524 . S
C5528 C5542 1.377 . S
C5529 C5528 1.524 . S
C5529 C5530 1.397 . S
C5529 C5534 1.363 . S
C5530 H5507 0.950 . S
C5530 C5529 1.397 . S
C5530 C5531 1.334 . S
C5531 H5508 0.950 . S
C5531 C5530 1.334 . S
C5531 C5532 1.287 . S
C5532 C5531 1.287 . S
C5532 C5533 1.524 . S
C5532 H5551 0.913 . S
C5533 H5509 0.950 . S
C5533 C5532 1.524 . S
C5533 C5534 1.415 . S
C5534 H5510 0.950 . S
C5534 C5529 1.363 . S
C5534 C5533 1.415 . S
C5535 H5511 0.951 . S
C5535 C5536 1.366 . S
C5535 C5537 1.388 . S
C5536 C5535 1.366 . S
C5536 C5540 1.385 . S
C5537 H5512 0.951 . S
C5537 C5535 1.388 . S
C5537 C5538 1.366 . S
C5538 C5537 1.366 . S
C5538 C5539 1.414 . S
C5538 C5541 1.499 . S
C5539 H5513 0.950 . S
C5539 C5538 1.414 . S
C5539 C5540 1.374 . S
C5540 H5514 0.950 . S
C5540 C5536 1.385 . S
C5540 C5539 1.374 . S
C5541 C5538 1.499 . S
C5541 C5542 1.373 . S
C5541 C5543 1.389 . S
C5542 H5515 0.950 . S
C5542 C5528 1.377 . S
C5542 C5541 1.373 . S
C5543 C5527 1.377 . S
C5543 C5541 1.389 . S
C5543 C5544 1.524 1_554 S
C5544 C5543 1.524 1_556 S
C5544 C5545 1.397 . S
C5544 C5549 1.363 . S
C5545 H5516 0.950 . S
C5545 C5544 1.397 . S
C5545 C5546 1.334 . S
C5546 H5517 0.950 . S
C5546 C5545 1.334 . S
C5546 C5547 1.287 . S
C5547 C5546 1.287 . S
C5547 C5548 1.524 . S
C5547 H5550 0.999 . S
C5548 H5518 0.950 . S
C5548 C5547 1.524 . S
C5548 C5549 1.415 . S
C5549 H5519 0.950 . S
C5549 C5544 1.363 . S
C5549 C5548 1.415 . S
H5550 C5547 0.999 . S
H5551 C5532 0.913 . S
H5552 C5570 0.951 . S
H5553 C5572 0.951 . S
H5554 C5574 0.950 . S
H5555 C5575 0.950 . S
H5556 C5577 0.950 . S
H5557 C5580 0.950 . S
H5558 C5581 0.950 . S
H5559 C5583 0.950 . S
H5560 C5584 0.950 . S
H5561 C5585 0.951 . S
H5562 C5587 0.951 . S
H5563 C5589 0.950 . S
H5564 C5590 0.950 . S
H5565 C5592 0.950 . S
H5566 C5595 0.950 . S
H5567 C5596 0.950 . S
H5568 C5598 0.950 . S
H5569 C5599 0.950 . S
C5570 H5552 0.951 . S
C5570 C5571 1.366 . S
C5570 C5572 1.388 . S
C5571 C5570 1.366 . S
C5571 C5575 1.385 . S
C5572 H5553 0.951 . S
C5572 C5570 1.388 . S
C5572 C5573 1.366 . S
C5573 C5572 1.366 . S
C5573 C5574 1.414 . S
C5573 C5576 1.499 . S
C5574 H5554 0.950 . S
C5574 C5573 1.414 . S
C5574 C5575 1.374 . S
C5575 H5555 0.950 . S
C5575 C5571 1.385 . S
C5575 C5574 1.374 . S
C5576 C5573 1.499 . S
C5576 C5577 1.373 . S
C5576 C5578 1.389 . S
C5577 H5556 0.950 . S
C5577 C5576 1.373 . S
C5577 C5593 1.377 . S
C5578 C5576 1.389 . S
C5578 C5579 1.524 . S
C5578 C5592 1.377 . S
C5579 C5578 1.524 . S
C5579 C5580 1.397 . S
C5579 C5584 1.363 . S
C5580 H5557 0.950 . S
C5580 C5579 1.397 . S
C5580 C5581 1.334 . S
C5581 H5558 0.950 . S
C5581 C5580 1.334 . S
C5581 C5582 1.287 . S
C5582 C5581 1.287 . S
C5582 C5583 1.524 . S
C5582 H5601 0.913 . S
C5583 H5559 0.950 . S
C5583 C5582 1.524 . S
C5583 C5584 1.415 . S
C5584 H5560 0.950 . S
C5584 C5579 1.363 . S
C5584 C5583 1.415 . S
C5585 H5561 0.951 . S
C5585 C5586 1.366 . S
C5585 C5587 1.388 . S
C5586 C5585 1.366 . S
C5586 C5590 1.385 . S
C5587 H5562 0.951 . S
C5587 C5585 1.388 . S
C5587 C5588 1.366 . S
C5588 C5587 1.366 . S
C5588 C5589 1.414 . S
C5588 C5591 1.499 . S
C5589 H5563 0.950 . S
C5589 C5588 1.414 . S
C5589 C5590 1.374 . S
C5590 H5564 0.950 . S
C5590 C5586 1.385 . S
C5590 C5589 1.374 . S
C5591 C5588 1.499 . S
C5591 C5592 1.373 . S
C5591 C5593 1.389 . S
C5592 H5565 0.950 . S
C5592 C5578 1.377 . S
C5592 C5591 1.373 . S
C5593 C5577 1.377 . S
C5593 C5591 1.389 . S
C5593 C5594 1.524 . S
C5594 C5593 1.524 . S
C5594 C5595 1.397 . S
C5594 C5599 1.363 . S
C5595 H5566 0.950 . S
C5595 C5594 1.397 . S
C5595 C5596 1.334 . S
C5596 H5567 0.950 . S
C5596 C5595 1.334 . S
C5596 C5597 1.287 . S
C5597 C5596 1.287 . S
C5597 C5598 1.524 . S
C5597 H5600 0.999 . S
C5598 H5568 0.950 . S
C5598 C5597 1.524 . S
C5598 C5599 1.415 . S
C5599 H5569 0.950 . S
C5599 C5594 1.363 . S
C5599 C5598 1.415 . S
H5600 C5597 0.999 . S
H5601 C5582 0.913 . S
H5602 C5620 0.951 . S
H5603 C5622 0.951 . S
H5604 C5624 0.950 . S
H5605 C5625 0.950 . S
H5606 C5627 0.950 . S
H5607 C5630 0.950 . S
H5608 C5631 0.950 . S
H5609 C5633 0.950 . S
H5610 C5634 0.950 . S
H5611 C5635 0.951 . S
H5612 C5637 0.951 . S
H5613 C5639 0.950 . S
H5614 C5640 0.950 . S
H5615 C5642 0.950 . S
H5616 C5645 0.950 . S
H5617 C5646 0.950 . S
H5618 C5648 0.950 . S
H5619 C5649 0.950 . S
C5620 H5602 0.951 . S
C5620 C5621 1.366 . S
C5620 C5622 1.388 . S
C5621 C5620 1.366 . S
C5621 C5625 1.385 . S
C5622 H5603 0.951 . S
C5622 C5620 1.388 . S
C5622 C5623 1.366 . S
C5623 C5622 1.366 . S
C5623 C5624 1.414 . S
C5623 C5626 1.499 . S
C5624 H5604 0.950 . S
C5624 C5623 1.414 . S
C5624 C5625 1.374 . S
C5625 H5605 0.950 . S
C5625 C5621 1.385 . S
C5625 C5624 1.374 . S
C5626 C5623 1.499 . S
C5626 C5627 1.373 . S
C5626 C5628 1.389 . S
C5627 H5606 0.950 . S
C5627 C5626 1.373 . S
C5627 C5643 1.377 . S
C5628 C5626 1.389 . S
C5628 C5629 1.524 . S
C5628 C5642 1.377 . S
C5629 C5628 1.524 . S
C5629 C5630 1.397 . S
C5629 C5634 1.363 . S
C5630 H5607 0.950 . S
C5630 C5629 1.397 . S
C5630 C5631 1.334 . S
C5631 H5608 0.950 . S
C5631 C5630 1.334 . S
C5631 C5632 1.287 . S
C5632 C5631 1.287 . S
C5632 C5633 1.524 . S
C5632 H5651 0.913 . S
C5633 H5609 0.950 . S
C5633 C5632 1.524 . S
C5633 C5634 1.415 . S
C5634 H5610 0.950 . S
C5634 C5629 1.363 . S
C5634 C5633 1.415 . S
C5635 H5611 0.951 . S
C5635 C5636 1.366 . S
C5635 C5637 1.388 . S
C5636 C5635 1.366 . S
C5636 C5640 1.385 . S
C5637 H5612 0.951 . S
C5637 C5635 1.388 . S
C5637 C5638 1.366 . S
C5638 C5637 1.366 . S
C5638 C5639 1.414 . S
C5638 C5641 1.499 . S
C5639 H5613 0.950 . S
C5639 C5638 1.414 . S
C5639 C5640 1.374 . S
C5640 H5614 0.950 . S
C5640 C5636 1.385 . S
C5640 C5639 1.374 . S
C5641 C5638 1.499 . S
C5641 C5642 1.373 . S
C5641 C5643 1.389 . S
C5642 H5615 0.950 . S
C5642 C5628 1.377 . S
C5642 C5641 1.373 . S
C5643 C5627 1.377 . S
C5643 C5641 1.389 . S
C5643 C5644 1.524 1_554 S
C5644 C5643 1.524 1_556 S
C5644 C5645 1.397 . S
C5644 C5649 1.363 . S
C5645 H5616 0.950 . S
C5645 C5644 1.397 . S
C5645 C5646 1.334 . S
C5646 H5617 0.950 . S
C5646 C5645 1.334 . S
C5646 C5647 1.287 . S
C5647 C5646 1.287 . S
C5647 C5648 1.524 . S
C5647 H5650 0.999 . S
C5648 H5618 0.950 . S
C5648 C5647 1.524 . S
C5648 C5649 1.415 . S
C5649 H5619 0.950 . S
C5649 C5644 1.363 . S
C5649 C5648 1.415 . S
H5650 C5647 0.999 . S
H5651 C5632 0.913 . S
H5652 C5670 0.951 . S
H5653 C5672 0.951 . S
H5654 C5674 0.950 . S
H5655 C5675 0.950 . S
H5656 C5677 0.950 . S
H5657 C5680 0.950 . S
H5658 C5681 0.950 . S
H5659 C5683 0.950 . S
H5660 C5684 0.950 . S
H5661 C5685 0.951 . S
H5662 C5687 0.951 . S
H5663 C5689 0.950 . S
H5664 C5690 0.950 . S
H5665 C5692 0.950 . S
H5666 C5695 0.950 . S
H5667 C5696 0.950 . S
H5668 C5698 0.950 . S
H5669 C5699 0.950 . S
C5670 H5652 0.951 . S
C5670 C5671 1.366 . S
C5670 C5672 1.388 . S
C5671 C5670 1.366 . S
C5671 C5675 1.385 . S
C5672 H5653 0.951 . S
C5672 C5670 1.388 . S
C5672 C5673 1.366 . S
C5673 C5672 1.366 . S
C5673 C5674 1.414 . S
C5673 C5676 1.499 . S
C5674 H5654 0.950 . S
C5674 C5673 1.414 . S
C5674 C5675 1.374 . S
C5675 H5655 0.950 . S
C5675 C5671 1.385 . S
C5675 C5674 1.374 . S
C5676 C5673 1.499 . S
C5676 C5677 1.373 . S
C5676 C5678 1.389 . S
C5677 H5656 0.950 . S
C5677 C5676 1.373 . S
C5677 C5693 1.377 . S
C5678 C5676 1.389 . S
C5678 C5679 1.524 . S
C5678 C5692 1.377 . S
C5679 C5678 1.524 . S
C5679 C5680 1.397 . S
C5679 C5684 1.363 . S
C5680 H5657 0.950 . S
C5680 C5679 1.397 . S
C5680 C5681 1.334 . S
C5681 H5658 0.950 . S
C5681 C5680 1.334 . S
C5681 C5682 1.287 . S
C5682 C5681 1.287 . S
C5682 C5683 1.524 . S
C5682 H5701 0.913 . S
C5683 H5659 0.950 . S
C5683 C5682 1.524 . S
C5683 C5684 1.415 . S
C5684 H5660 0.950 . S
C5684 C5679 1.363 . S
C5684 C5683 1.415 . S
C5685 H5661 0.951 . S
C5685 C5686 1.366 . S
C5685 C5687 1.388 . S
C5686 C5685 1.366 . S
C5686 C5690 1.385 . S
C5687 H5662 0.951 . S
C5687 C5685 1.388 . S
C5687 C5688 1.366 . S
C5688 C5687 1.366 . S
C5688 C5689 1.414 . S
C5688 C5691 1.499 . S
C5689 H5663 0.950 . S
C5689 C5688 1.414 . S
C5689 C5690 1.374 . S
C5690 H5664 0.950 . S
C5690 C5686 1.385 . S
C5690 C5689 1.374 . S
C5691 C5688 1.499 . S
C5691 C5692 1.373 . S
C5691 C5693 1.389 . S
C5692 H5665 0.950 . S
C5692 C5678 1.377 . S
C5692 C5691 1.373 . S
C5693 C5677 1.377 . S
C5693 C5691 1.389 . S
C5693 C5694 1.524 . S
C5694 C5693 1.524 . S
C5694 C5695 1.397 . S
C5694 C5699 1.363 . S
C5695 H5666 0.950 . S
C5695 C5694 1.397 . S
C5695 C5696 1.334 . S
C5696 H5667 0.950 . S
C5696 C5695 1.334 . S
C5696 C5697 1.287 . S
C5697 C5696 1.287 . S
C5697 C5698 1.524 . S
C5697 H5700 0.999 . S
C5698 H5668 0.950 . S
C5698 C5697 1.524 . S
C5698 C5699 1.415 . S
C5699 H5669 0.950 . S
C5699 C5694 1.363 . S
C5699 C5698 1.415 . S
H5700 C5697 0.999 . S
H5701 C5682 0.913 . S
H5702 C5720 0.951 . S
H5703 C5722 0.951 . S
H5704 C5724 0.950 . S
H5705 C5725 0.950 . S
H5706 C5727 0.950 . S
H5707 C5730 0.950 . S
H5708 C5731 0.950 . S
H5709 C5733 0.950 . S
H5710 C5734 0.950 . S
H5711 C5735 0.951 . S
H5712 C5737 0.951 . S
H5713 C5739 0.950 . S
H5714 C5740 0.950 . S
H5715 C5742 0.950 . S
H5716 C5745 0.950 . S
H5717 C5746 0.950 . S
H5718 C5748 0.950 . S
H5719 C5749 0.950 . S
C5720 H5702 0.951 . S
C5720 C5721 1.366 . S
C5720 C5722 1.388 . S
C5721 C5720 1.366 . S
C5721 C5725 1.385 . S
C5722 H5703 0.951 . S
C5722 C5720 1.388 . S
C5722 C5723 1.366 . S
C5723 C5722 1.366 . S
C5723 C5724 1.414 . S
C5723 C5726 1.499 . S
C5724 H5704 0.950 . S
C5724 C5723 1.414 . S
C5724 C5725 1.374 . S
C5725 H5705 0.950 . S
C5725 C5721 1.385 . S
C5725 C5724 1.374 . S
C5726 C5723 1.499 . S
C5726 C5727 1.373 . S
C5726 C5728 1.389 . S
C5727 H5706 0.950 . S
C5727 C5726 1.373 . S
C5727 C5743 1.377 . S
C5728 C5726 1.389 . S
C5728 C5729 1.524 . S
C5728 C5742 1.377 . S
C5729 C5728 1.524 . S
C5729 C5730 1.397 . S
C5729 C5734 1.363 . S
C5730 H5707 0.950 . S
C5730 C5729 1.397 . S
C5730 C5731 1.334 . S
C5731 H5708 0.950 . S
C5731 C5730 1.334 . S
C5731 C5732 1.287 . S
C5732 C5731 1.287 . S
C5732 C5733 1.524 . S
C5732 H5751 0.913 . S
C5733 H5709 0.950 . S
C5733 C5732 1.524 . S
C5733 C5734 1.415 . S
C5734 H5710 0.950 . S
C5734 C5729 1.363 . S
C5734 C5733 1.415 . S
C5735 H5711 0.951 . S
C5735 C5736 1.366 . S
C5735 C5737 1.388 . S
C5736 C5735 1.366 . S
C5736 C5740 1.385 . S
C5737 H5712 0.951 . S
C5737 C5735 1.388 . S
C5737 C5738 1.366 . S
C5738 C5737 1.366 . S
C5738 C5739 1.414 . S
C5738 C5741 1.499 . S
C5739 H5713 0.950 . S
C5739 C5738 1.414 . S
C5739 C5740 1.374 . S
C5740 H5714 0.950 . S
C5740 C5736 1.385 . S
C5740 C5739 1.374 . S
C5741 C5738 1.499 . S
C5741 C5742 1.373 . S
C5741 C5743 1.389 . S
C5742 H5715 0.950 . S
C5742 C5728 1.377 . S
C5742 C5741 1.373 . S
C5743 C5727 1.377 . S
C5743 C5741 1.389 . S
C5743 C5744 1.524 . S
C5744 C5743 1.524 . S
C5744 C5745 1.397 . S
C5744 C5749 1.363 . S
C5745 H5716 0.950 . S
C5745 C5744 1.397 . S
C5745 C5746 1.334 . S
C5746 H5717 0.950 . S
C5746 C5745 1.334 . S
C5746 C5747 1.287 . S
C5747 C5746 1.287 . S
C5747 C5748 1.524 . S
C5747 H5750 0.999 . S
C5748 H5718 0.950 . S
C5748 C5747 1.524 . S
C5748 C5749 1.415 . S
C5749 H5719 0.950 . S
C5749 C5744 1.363 . S
C5749 C5748 1.415 . S
H5750 C5747 0.999 . S
H5751 C5732 0.913 . S
C971 C101 1.914 . S
C986 C343 1.861 . S
C1021 C57 1.620 . S
C1036 C354 1.644 . S
C1071 C70 1.358 . S
C1086 C423 1.319 . S
C1136 C436 1.205 . S
C1121 C82 1.224 . S
C1171 C23 2.428 . S
C1186 C492 2.400 . S
C1236 C543 1.784 . S
C1221 C29 1.839 . S
C1286 C572 2.269 . S
C1271 C49 2.281 . S
C1321 C10 2.298 . S
C1336 C623 2.233 . S
C1386 C314 1.081 . S
C1371 C218 1.078 . S
C1421 C226 0.777 . S
C1436 C356 0.772 . S
C1486 C394 0.984 . S
C1471 C251 0.986 . S
C1536 C463 1.328 . S
C1521 C159 1.343 . S
C1571 C211 0.434 . S
C1586 C497 0.480 . S
C1636 C514 1.359 . S
C1621 C225 1.353 . S
C1686 C577 0.333 . S
C1671 C252 0.213 . S
C1736 C594 1.909 . S
C1721 C166 1.938 . S
C1786 C316 1.538 . S
C1771 C147 1.616 . S
C1821 C263 1.539 . S
C1836 C655 1.508 . S
C1886 C676 1.374 . S
C1871 C309 1.434 . S
C1936 C735 0.296 . S
C1921 C291 0.113 . S
C1971 C108 0.953 . S
C1986 C596 0.939 . S
C2021 C121 1.381 . S
C2036 C396 1.353 . S
C2071 C302 0.721 . S
C2086 C754 0.720 . S
C2136 C823 0.831 . S
C2121 C276 0.840 . S
C2186 C332 2.174 1_565 S
C2171 C55 2.186 . S
C2236 C815 1.997 . S
C2221 C96 2.003 . S
C2271 C88 1.793 . S
C2286 C412 1.768 . S
C2321 C75 1.427 . S
C2336 C777 1.414 . S
C2386 C503 2.795 . S
C2371 C4 2.824 . S
C2421 C44 2.155 . S
C2436 C692 2.140 . S
C2486 C583 2.708 1_565 S
C2471 C31 2.725 . S
C2536 C852 2.515 . S
C2521 C18 2.552 1_655 S
C2586 C335 1.333 1_556 S
C2571 C133 1.346 . S
C2636 C817 1.025 . S
C2621 C296 1.041 . S
C2671 C107 1.331 . S
C2686 C415 1.313 . S
C2721 C264 1.878 . S
C2736 C772 1.877 . S
C2771 C140 0.703 . S
C2786 C476 0.704 . S
C2836 C695 1.673 . S
C2821 C289 1.687 . S
C2871 C114 0.523 . S
C2886 C556 0.530 . S
C2921 C265 2.335 . S
C2936 C855 2.299 . S
C2971 C179 1.549 . S
C2986 C337 1.510 . S
C3021 C161 1.782 . S
C3036 C634 1.738 . S
C3071 C244 1.341 . S
C3086 C537 1.311 . S
C3121 C224 0.495 . S
C3136 C714 0.523 . S
C3186 C857 0.917 . S
C3171 C257 0.923 . S
C3221 C199 1.463 . S
C3236 C417 1.448 . S
C3286 C455 1.113 . S
C3271 C237 1.116 . S
C3336 C372 1.137 . S
C3321 C185 1.156 . S
C3371 C69 1.912 . S
C3386 C903 1.866 . S
C3436 C794 1.645 . S
C3421 C83 1.620 . S
C3471 C94 1.359 . S
C3486 C943 1.322 . S
C3521 C56 1.224 . S
C3536 C756 1.205 . S
C3571 C42 2.438 . S
C3586 C652 2.410 . S
C3636 C703 1.785 . S
C3621 C3 1.840 . S
C3686 C732 2.279 . S
C3671 C16 2.290 . S
C3736 C863 2.233 . S
C3721 C36 2.298 . S
C3786 C874 1.079 . S
C3771 C238 1.078 . S
C3821 C174 0.776 . S
C3836 C796 0.772 . S
C3886 C914 0.984 . S
C3871 C186 0.987 . S
C3936 C783 1.327 . S
C3921 C198 1.341 . S
C3986 C657 0.478 . S
C3971 C239 0.434 . S
C4021 C173 1.353 . S
C4036 C674 1.360 . S
C4086 C737 0.337 . S
C4071 C187 0.216 . S
C4121 C205 1.937 . S
C4136 C834 1.910 . S
C4186 C876 1.535 . S
C4171 C290 1.615 . S
C4221 C122 1.539 . S
C4236 C495 1.509 . S
C4286 C516 1.375 . S
C4271 C134 1.434 1_565 S
C4336 C575 0.292 . S
C4321 C148 0.113 . S
C4386 C836 0.937 . S
C4371 C283 0.951 . S
C4421 C270 1.380 . S
C4436 C916 1.352 . S
C4486 C434 0.719 . S
C4471 C135 0.722 . S
C4536 C383 0.831 . S
C4521 C109 0.839 . S
C4571 C81 2.187 . S
C4586 C892 2.175 . S
C4636 C375 1.995 . S
C4621 C68 1.995 . S
C4671 C62 1.793 . S
C4686 C932 1.767 . S
C4721 C95 1.425 . S
C4736 C457 1.405 . S
C4771 C30 2.824 . S
C4786 C663 2.829 . S
C4836 C532 2.131 . S
C4821 C17 2.151 . S
C4871 C5 2.726 . S
C4886 C743 2.709 . S
C4921 C43 2.545 . S
C4936 C612 2.504 . S
C4986 C895 1.333 . S
C4971 C304 1.346 . S
C5021 C153 1.040 . S
C5036 C377 1.019 . S
C5086 C935 1.312 1_556 S
C5071 C278 1.332 . S
C5121 C127 1.877 . S
C5136 C452 1.877 . S
C5171 C303 0.699 . S
C5186 C636 0.700 . S
C5236 C535 1.671 . S
C5221 C146 1.689 . S
C5271 C277 0.520 . S
C5286 C716 0.527 . S
C5336 C615 2.297 . S
C5321 C120 2.333 . S
C5386 C897 1.510 . S
C5371 C231 1.550 . S
C5436 C474 1.737 1_665 S
C5421 C200 1.781 . S
C5471 C212 1.342 . S
C5486 C697 1.312 . S
C5536 C554 0.521 . S
C5521 C172 0.493 . S
C5571 C192 0.923 . S
C5586 C617 0.917 . S
C5621 C160 1.463 . S
C5636 C937 1.447 . S
C5686 C775 1.114 . S
C5671 C213 1.117 . S
C5736 C812 1.138 . S
C5721 C250 1.157 . S
