# Generated by pormake.
# Topology iac, (4,6)-cn, num edge types: 1
# Building blocks:
#     Node 0, Type 0, BuildingBlock: GALJAG_clean_sbu_0, # of connection points: 4
#     Node 1, Type 0, BuildingBlock: GALJAG_clean_sbu_0, # of connection points: 4
#     Node 2, Type 0, BuildingBlock: GALJAG_clean_sbu_0, # of connection points: 4
#     Node 3, Type 0, BuildingBlock: GALJAG_clean_sbu_0, # of connection points: 4
#     Node 4, Type 0, BuildingBlock: GALJAG_clean_sbu_0, # of connection points: 4
#     Node 5, Type 0, BuildingBlock: GALJAG_clean_sbu_0, # of connection points: 4
#     Node 6, Type 0, BuildingBlock: GALJAG_clean_sbu_0, # of connection points: 4
#     Node 7, Type 0, BuildingBlock: GALJAG_clean_sbu_0, # of connection points: 4
#     Node 8, Type 0, BuildingBlock: GALJAG_clean_sbu_0, # of connection points: 4
#     Node 9, Type 0, BuildingBlock: GALJAG_clean_sbu_0, # of connection points: 4
#     Node 10, Type 0, BuildingBlock: GALJAG_clean_sbu_0, # of connection points: 4
#     Node 11, Type 0, BuildingBlock: GALJAG_clean_sbu_0, # of connection points: 4
#     Node 12, Type 0, BuildingBlock: GALJAG_clean_sbu_0, # of connection points: 4
#     Node 13, Type 0, BuildingBlock: GALJAG_clean_sbu_0, # of connection points: 4
#     Node 14, Type 0, BuildingBlock: GALJAG_clean_sbu_0, # of connection points: 4
#     Node 15, Type 0, BuildingBlock: GALJAG_clean_sbu_0, # of connection points: 4
#     Node 16, Type 0, BuildingBlock: GALJAG_clean_sbu_0, # of connection points: 4
#     Node 17, Type 0, BuildingBlock: GALJAG_clean_sbu_0, # of connection points: 4
#     Node 18, Type 0, BuildingBlock: GALJAG_clean_sbu_0, # of connection points: 4
#     Node 19, Type 0, BuildingBlock: GALJAG_clean_sbu_0, # of connection points: 4
#     Node 20, Type 0, BuildingBlock: GALJAG_clean_sbu_0, # of connection points: 4
#     Node 21, Type 0, BuildingBlock: GALJAG_clean_sbu_0, # of connection points: 4
#     Node 22, Type 0, BuildingBlock: GALJAG_clean_sbu_0, # of connection points: 4
#     Node 23, Type 0, BuildingBlock: GALJAG_clean_sbu_0, # of connection points: 4
#     Node 24, Type 1, BuildingBlock: VOLQOD_clean_sbu_1, # of connection points: 6
#     Node 25, Type 1, BuildingBlock: VOLQOD_clean_sbu_1, # of connection points: 6
#     Node 26, Type 1, BuildingBlock: VOLQOD_clean_sbu_1, # of connection points: 6
#     Node 27, Type 1, BuildingBlock: VOLQOD_clean_sbu_1, # of connection points: 6
#     Node 28, Type 1, BuildingBlock: VOLQOD_clean_sbu_1, # of connection points: 6
#     Node 29, Type 1, BuildingBlock: VOLQOD_clean_sbu_1, # of connection points: 6
#     Node 30, Type 1, BuildingBlock: VOLQOD_clean_sbu_1, # of connection points: 6
#     Node 31, Type 1, BuildingBlock: VOLQOD_clean_sbu_1, # of connection points: 6
#     Node 32, Type 1, BuildingBlock: VOLQOD_clean_sbu_1, # of connection points: 6
#     Node 33, Type 1, BuildingBlock: VOLQOD_clean_sbu_1, # of connection points: 6
#     Node 34, Type 1, BuildingBlock: VOLQOD_clean_sbu_1, # of connection points: 6
#     Node 35, Type 1, BuildingBlock: VOLQOD_clean_sbu_1, # of connection points: 6
#     Node 36, Type 1, BuildingBlock: VOLQOD_clean_sbu_1, # of connection points: 6
#     Node 37, Type 1, BuildingBlock: VOLQOD_clean_sbu_1, # of connection points: 6
#     Node 38, Type 1, BuildingBlock: VOLQOD_clean_sbu_1, # of connection points: 6
#     Node 39, Type 1, BuildingBlock: VOLQOD_clean_sbu_1, # of connection points: 6
#     Edge 40, Type (0, 1), BuildingBlock: XUDNAN_clean_linker_2, # of connection points: 2
#     Edge 41, Type (0, 1), BuildingBlock: XUDNAN_clean_linker_2, # of connection points: 2
#     Edge 42, Type (0, 1), BuildingBlock: XUDNAN_clean_linker_2, # of connection points: 2
#     Edge 43, Type (0, 1), BuildingBlock: XUDNAN_clean_linker_2, # of connection points: 2
#     Edge 44, Type (0, 1), BuildingBlock: XUDNAN_clean_linker_2, # of connection points: 2
#     Edge 45, Type (0, 1), BuildingBlock: XUDNAN_clean_linker_2, # of connection points: 2
#     Edge 46, Type (0, 1), BuildingBlock: XUDNAN_clean_linker_2, # of connection points: 2
#     Edge 47, Type (0, 1), BuildingBlock: XUDNAN_clean_linker_2, # of connection points: 2
#     Edge 48, Type (0, 1), BuildingBlock: XUDNAN_clean_linker_2, # of connection points: 2
#     Edge 49, Type (0, 1), BuildingBlock: XUDNAN_clean_linker_2, # of connection points: 2
#     Edge 50, Type (0, 1), BuildingBlock: XUDNAN_clean_linker_2, # of connection points: 2
#     Edge 51, Type (0, 1), BuildingBlock: XUDNAN_clean_linker_2, # of connection points: 2
#     Edge 52, Type (0, 1), BuildingBlock: XUDNAN_clean_linker_2, # of connection points: 2
#     Edge 53, Type (0, 1), BuildingBlock: XUDNAN_clean_linker_2, # of connection points: 2
#     Edge 54, Type (0, 1), BuildingBlock: XUDNAN_clean_linker_2, # of connection points: 2
#     Edge 55, Type (0, 1), BuildingBlock: XUDNAN_clean_linker_2, # of connection points: 2
#     Edge 56, Type (0, 1), BuildingBlock: XUDNAN_clean_linker_2, # of connection points: 2
#     Edge 57, Type (0, 1), BuildingBlock: XUDNAN_clean_linker_2, # of connection points: 2
#     Edge 58, Type (0, 1), BuildingBlock: XUDNAN_clean_linker_2, # of connection points: 2
#     Edge 59, Type (0, 1), BuildingBlock: XUDNAN_clean_linker_2, # of connection points: 2
#     Edge 60, Type (0, 1), BuildingBlock: XUDNAN_clean_linker_2, # of connection points: 2
#     Edge 61, Type (0, 1), BuildingBlock: XUDNAN_clean_linker_2, # of connection points: 2
#     Edge 62, Type (0, 1), BuildingBlock: XUDNAN_clean_linker_2, # of connection points: 2
#     Edge 63, Type (0, 1), BuildingBlock: XUDNAN_clean_linker_2, # of connection points: 2
#     Edge 64, Type (0, 1), BuildingBlock: XUDNAN_clean_linker_2, # of connection points: 2
#     Edge 65, Type (0, 1), BuildingBlock: XUDNAN_clean_linker_2, # of connection points: 2
#     Edge 66, Type (0, 1), BuildingBlock: XUDNAN_clean_linker_2, # of connection points: 2
#     Edge 67, Type (0, 1), BuildingBlock: XUDNAN_clean_linker_2, # of connection points: 2
#     Edge 68, Type (0, 1), BuildingBlock: XUDNAN_clean_linker_2, # of connection points: 2
#     Edge 69, Type (0, 1), BuildingBlock: XUDNAN_clean_linker_2, # of connection points: 2
#     Edge 70, Type (0, 1), BuildingBlock: XUDNAN_clean_linker_2, # of connection points: 2
#     Edge 71, Type (0, 1), BuildingBlock: XUDNAN_clean_linker_2, # of connection points: 2
#     Edge 72, Type (0, 1), BuildingBlock: XUDNAN_clean_linker_2, # of connection points: 2
#     Edge 73, Type (0, 1), BuildingBlock: XUDNAN_clean_linker_2, # of connection points: 2
#     Edge 74, Type (0, 1), BuildingBlock: XUDNAN_clean_linker_2, # of connection points: 2
#     Edge 75, Type (0, 1), BuildingBlock: XUDNAN_clean_linker_2, # of connection points: 2
#     Edge 76, Type (0, 1), BuildingBlock: XUDNAN_clean_linker_2, # of connection points: 2
#     Edge 77, Type (0, 1), BuildingBlock: XUDNAN_clean_linker_2, # of connection points: 2
#     Edge 78, Type (0, 1), BuildingBlock: XUDNAN_clean_linker_2, # of connection points: 2
#     Edge 79, Type (0, 1), BuildingBlock: XUDNAN_clean_linker_2, # of connection points: 2
#     Edge 80, Type (0, 1), BuildingBlock: XUDNAN_clean_linker_2, # of connection points: 2
#     Edge 81, Type (0, 1), BuildingBlock: XUDNAN_clean_linker_2, # of connection points: 2
#     Edge 82, Type (0, 1), BuildingBlock: XUDNAN_clean_linker_2, # of connection points: 2
#     Edge 83, Type (0, 1), BuildingBlock: XUDNAN_clean_linker_2, # of connection points: 2
#     Edge 84, Type (0, 1), BuildingBlock: XUDNAN_clean_linker_2, # of connection points: 2
#     Edge 85, Type (0, 1), BuildingBlock: XUDNAN_clean_linker_2, # of connection points: 2
#     Edge 86, Type (0, 1), BuildingBlock: XUDNAN_clean_linker_2, # of connection points: 2
#     Edge 87, Type (0, 1), BuildingBlock: XUDNAN_clean_linker_2, # of connection points: 2
#     Edge 88, Type (0, 1), BuildingBlock: XUDNAN_clean_linker_2, # of connection points: 2
#     Edge 89, Type (0, 1), BuildingBlock: XUDNAN_clean_linker_2, # of connection points: 2
#     Edge 90, Type (0, 1), BuildingBlock: XUDNAN_clean_linker_2, # of connection points: 2
#     Edge 91, Type (0, 1), BuildingBlock: XUDNAN_clean_linker_2, # of connection points: 2
#     Edge 92, Type (0, 1), BuildingBlock: XUDNAN_clean_linker_2, # of connection points: 2
#     Edge 93, Type (0, 1), BuildingBlock: XUDNAN_clean_linker_2, # of connection points: 2
#     Edge 94, Type (0, 1), BuildingBlock: XUDNAN_clean_linker_2, # of connection points: 2
#     Edge 95, Type (0, 1), BuildingBlock: XUDNAN_clean_linker_2, # of connection points: 2
#     Edge 96, Type (0, 1), BuildingBlock: XUDNAN_clean_linker_2, # of connection points: 2
#     Edge 97, Type (0, 1), BuildingBlock: XUDNAN_clean_linker_2, # of connection points: 2
#     Edge 98, Type (0, 1), BuildingBlock: XUDNAN_clean_linker_2, # of connection points: 2
#     Edge 99, Type (0, 1), BuildingBlock: XUDNAN_clean_linker_2, # of connection points: 2
#     Edge 100, Type (0, 1), BuildingBlock: XUDNAN_clean_linker_2, # of connection points: 2
#     Edge 101, Type (0, 1), BuildingBlock: XUDNAN_clean_linker_2, # of connection points: 2
#     Edge 102, Type (0, 1), BuildingBlock: XUDNAN_clean_linker_2, # of connection points: 2
#     Edge 103, Type (0, 1), BuildingBlock: XUDNAN_clean_linker_2, # of connection points: 2
#     Edge 104, Type (0, 1), BuildingBlock: XUDNAN_clean_linker_2, # of connection points: 2
#     Edge 105, Type (0, 1), BuildingBlock: XUDNAN_clean_linker_2, # of connection points: 2
#     Edge 106, Type (0, 1), BuildingBlock: XUDNAN_clean_linker_2, # of connection points: 2
#     Edge 107, Type (0, 1), BuildingBlock: XUDNAN_clean_linker_2, # of connection points: 2
#     Edge 108, Type (0, 1), BuildingBlock: XUDNAN_clean_linker_2, # of connection points: 2
#     Edge 109, Type (0, 1), BuildingBlock: XUDNAN_clean_linker_2, # of connection points: 2
#     Edge 110, Type (0, 1), BuildingBlock: XUDNAN_clean_linker_2, # of connection points: 2
#     Edge 111, Type (0, 1), BuildingBlock: XUDNAN_clean_linker_2, # of connection points: 2
#     Edge 112, Type (0, 1), BuildingBlock: XUDNAN_clean_linker_2, # of connection points: 2
#     Edge 113, Type (0, 1), BuildingBlock: XUDNAN_clean_linker_2, # of connection points: 2
#     Edge 114, Type (0, 1), BuildingBlock: XUDNAN_clean_linker_2, # of connection points: 2
#     Edge 115, Type (0, 1), BuildingBlock: XUDNAN_clean_linker_2, # of connection points: 2
#     Edge 116, Type (0, 1), BuildingBlock: XUDNAN_clean_linker_2, # of connection points: 2
#     Edge 117, Type (0, 1), BuildingBlock: XUDNAN_clean_linker_2, # of connection points: 2
#     Edge 118, Type (0, 1), BuildingBlock: XUDNAN_clean_linker_2, # of connection points: 2
#     Edge 119, Type (0, 1), BuildingBlock: XUDNAN_clean_linker_2, # of connection points: 2
#     Edge 120, Type (0, 1), BuildingBlock: XUDNAN_clean_linker_2, # of connection points: 2
#     Edge 121, Type (0, 1), BuildingBlock: XUDNAN_clean_linker_2, # of connection points: 2
#     Edge 122, Type (0, 1), BuildingBlock: XUDNAN_clean_linker_2, # of connection points: 2
#     Edge 123, Type (0, 1), BuildingBlock: XUDNAN_clean_linker_2, # of connection points: 2
#     Edge 124, Type (0, 1), BuildingBlock: XUDNAN_clean_linker_2, # of connection points: 2
#     Edge 125, Type (0, 1), BuildingBlock: XUDNAN_clean_linker_2, # of connection points: 2
#     Edge 126, Type (0, 1), BuildingBlock: XUDNAN_clean_linker_2, # of connection points: 2
#     Edge 127, Type (0, 1), BuildingBlock: XUDNAN_clean_linker_2, # of connection points: 2
#     Edge 128, Type (0, 1), BuildingBlock: XUDNAN_clean_linker_2, # of connection points: 2
#     Edge 129, Type (0, 1), BuildingBlock: XUDNAN_clean_linker_2, # of connection points: 2
#     Edge 130, Type (0, 1), BuildingBlock: XUDNAN_clean_linker_2, # of connection points: 2
#     Edge 131, Type (0, 1), BuildingBlock: XUDNAN_clean_linker_2, # of connection points: 2
#     Edge 132, Type (0, 1), BuildingBlock: XUDNAN_clean_linker_2, # of connection points: 2
#     Edge 133, Type (0, 1), BuildingBlock: XUDNAN_clean_linker_2, # of connection points: 2
#     Edge 134, Type (0, 1), BuildingBlock: XUDNAN_clean_linker_2, # of connection points: 2
#     Edge 135, Type (0, 1), BuildingBlock: XUDNAN_clean_linker_2, # of connection points: 2
# Relax obj value: 0.329
# Max RMSD: 0.288
# Mean RMSD: 0.183
data_MOF--net-iac--node1-GALJAG_clean_sbu_0--node2-VOLQOD_clean_sbu_1--edge1-XUDNAN_clean_linker_2
_symmetry_space_group_name_H-M    P1
_symmetry_Int_Tables_number       1
_symmetry_cell_setting            triclinic
loop_
_symmetry_equiv_pos_as_xyz
'x, y, z'
_cell_length_a     54.747914
_cell_length_b     54.802146
_cell_length_c     54.80783
_cell_angle_alpha  90.036565
_cell_angle_beta   90.058168
_cell_angle_gamma 90.505777
loop_
_atom_site_label
_atom_site_type_symbol
_atom_site_fract_x
_atom_site_fract_y
_atom_site_fract_z
_atom_type_partial_charge
In0 In 0.98308 0.2816 0.1088 0.0
O1 O 0.9687 0.25917 0.07706 0.0
O2 O 0.99599 0.24349 0.09987 0.0
C3 C 0.9872 0.31834 0.07697 0.0
C4 C 0.94924 0.26869 0.14173 0.0
C5 C 0.01919 0.29823 0.13717 0.0
O6 O 0.00247 0.30135 0.07867 0.0
O7 O 0.96895 0.31659 0.09111 0.0
O8 O -0.00228 0.3064 0.13847 0.0
O9 O 0.02243 0.28155 0.12157 0.0
C10 C 0.98198 0.24109 0.08171 0.0
O11 O 0.97151 0.26353 0.14368 0.0
O12 O 0.9436 0.28085 0.12293 0.0
In13 In 0.02069 0.76012 0.41311 0.0
O14 O 0.04461 0.78828 0.39396 0.0
O15 O 0.05702 0.7517 0.39438 0.0
C16 C 0.98685 0.74759 0.37946 0.0
C17 C 0.02167 0.72288 0.44497 0.0
C18 C 0.01171 0.7981 0.44277 0.0
O19 O 0.00853 0.74006 0.37858 0.0
O20 O 0.98227 0.76132 0.3973 0.0
O21 O 0.0038 0.79701 0.42117 0.0
O22 O 0.02435 0.78014 0.44934 0.0
C23 C 0.0609 0.77343 0.38775 0.0
O24 O 0.00227 0.73029 0.43512 0.0
O25 O 0.04086 0.73393 0.43834 0.0
In26 In 0.49918 0.75044 0.60422 0.0
O27 O 0.48766 0.78189 0.57946 0.0
O28 O 0.52356 0.76788 0.57567 0.0
C29 C 0.48657 0.70815 0.58281 0.0
C30 C 0.53759 0.75576 0.63441 0.0
C31 C 0.46253 0.7529 0.63656 0.0
O32 O 0.47759 0.72829 0.5764 0.0
O33 O 0.50297 0.70959 0.59901 0.0
O34 O 0.4713 0.73307 0.62916 0.0
O35 O 0.47187 0.77192 0.62722 0.0
C36 C 0.50805 0.78325 0.56875 0.0
O37 O 0.51724 0.76551 0.63823 0.0
O38 O 0.53874 0.74288 0.61533 0.0
In39 In 0.50846 0.26377 0.88176 0.0
O40 O 0.53125 0.25878 0.84768 0.0
O41 O 0.53109 0.29401 0.86382 0.0
C42 C 0.46578 0.26864 0.8578 0.0
C43 C 0.5252 0.22018 0.89651 0.0
C44 C 0.50428 0.28518 0.92578 0.0
O45 O 0.47699 0.24865 0.85886 0.0
O46 O 0.47601 0.28609 0.86897 0.0
O47 O 0.48766 0.27177 0.9169 0.0
O48 O 0.52289 0.28777 0.91246 0.0
C49 C 0.53892 0.2805 0.84698 0.0
O50 O 0.53833 0.23918 0.89669 0.0
O51 O 0.50361 0.22322 0.88907 0.0
In52 In 0.15498 0.03988 0.24809 0.0
O53 O 0.19467 0.02853 0.24176 0.0
O54 O 0.16653 0.00204 0.23643 0.0
C55 C 0.1672 0.08716 0.25706 0.0
C56 C 0.12018 0.03969 0.21311 0.0
C57 C 0.14069 0.02002 0.29072 0.0
O58 O 0.17439 0.07627 0.23811 0.0
O59 O 0.15409 0.07432 0.2709 0.0
O60 O 0.12589 0.02479 0.27378 0.0
O61 O 0.16275 0.02491 0.28602 0.0
C62 C 0.18913 0.00676 0.23629 0.0
O63 O 0.11586 0.04499 0.23502 0.0
O64 O 0.14232 0.03551 0.20852 0.0
In65 In 0.27108 0.87419 0.55905 0.0
O66 O 0.24028 0.89668 0.54348 0.0
O67 O 0.23951 0.88866 0.58155 0.0
C68 C 0.30736 0.90658 0.56767 0.0
C69 C 0.26304 0.83367 0.58537 0.0
C70 C 0.28386 0.8604 0.51394 0.0
O71 O 0.31034 0.88387 0.56953 0.0
O72 O 0.28577 0.91286 0.5633 0.0
O73 O 0.29838 0.85974 0.53179 0.0
O74 O 0.26251 0.86746 0.51894 0.0
C75 C 0.2296 0.89929 0.56373 0.0
O76 O 0.26052 0.83402 0.56254 0.0
O77 O 0.26991 0.85356 0.59487 0.0
In78 In 0.3895 0.9753 0.72781 0.0
O79 O 0.37946 0.01496 0.73406 0.0
O80 O 0.35264 0.99144 0.71816 0.0
C81 C 0.35955 0.93649 0.73437 0.0
C82 C 0.42019 0.97806 0.68914 0.0
C83 C 0.41828 0.97612 0.76765 0.0
O84 O 0.36297 0.94586 0.71359 0.0
O85 O 0.37144 0.94638 0.75143 0.0
O86 O 0.40047 0.99036 0.76508 0.0
O87 O 0.42177 0.96185 0.74996 0.0
C88 C 0.35808 0.01258 0.72565 0.0
O89 O 0.41675 0.95859 0.70089 0.0
O90 O 0.40762 0.99576 0.69631 0.0
In91 In 0.2615 0.13117 0.03808 0.0
O92 O 0.30004 0.12529 0.02427 0.0
O93 O 0.2914 0.11175 0.0595 0.0
C94 C 0.22184 0.103 0.04592 0.0
C95 C 0.26096 0.17142 0.0661 0.0
C96 C 0.25449 0.13786 0.99023 0.0
O97 O 0.24319 0.09458 0.04576 0.0
O98 O 0.22065 0.12585 0.04361 0.0
O99 O 0.25963 0.15518 0.0046 0.0
O100 O 0.25348 0.11699 -7e-05 0.0
C101 C 0.30726 0.11429 0.04304 0.0
O102 O 0.25947 0.17212 0.04319 0.0
O103 O 0.26222 0.15027 0.07507 0.0
In104 In 0.78034 0.36479 0.01603 0.0
O105 O 0.75425 0.33758 0.03297 0.0
O106 O 0.79232 0.33183 0.03846 0.0
C107 C 0.78618 0.34453 0.97169 0.0
C108 C 0.74342 0.39649 0.01993 0.0
C109 C 0.81592 0.39604 0.03025 0.0
O110 O 0.8021 0.34293 0.98824 0.0
O111 O 0.76726 0.35607 0.97762 0.0
O112 O 0.80359 0.38388 0.04547 0.0
O113 O 0.8111 0.39139 0.00828 0.0
C114 C 0.77067 0.32468 0.04243 0.0
O115 O 0.74741 0.38018 0.0356 0.0
O116 O 0.75788 0.39667 0.00201 0.0
In117 In 0.90992 0.48657 0.2684 0.0
O118 O 0.93745 0.51332 0.25349 0.0
O119 O 0.94598 0.47577 0.24988 0.0
C120 C 0.92013 0.49697 0.31534 0.0
C121 C 0.8732 0.51437 0.25208 0.0
C122 C 0.88839 0.44389 0.25659 0.0
O123 O 0.92713 0.47737 0.30555 0.0
O124 O 0.90793 0.51069 0.30162 0.0
O125 O 0.89562 0.45902 0.24082 0.0
O126 O 0.89356 0.44951 0.27834 0.0
C127 C 0.95205 0.49764 0.24549 0.0
O128 O 0.87098 0.50107 0.27077 0.0
O129 O 0.89384 0.51369 0.24196 0.0
In130 In 0.70846 0.63011 0.50073 0.0
O131 O 0.72312 0.60579 0.53083 0.0
O132 O 0.73936 0.60332 0.4956 0.0
C133 C 0.66277 0.61561 0.51151 0.0
C134 C 0.72961 0.66708 0.52512 0.0
C135 C 0.70717 0.64119 0.45287 0.0
O136 O 0.67988 0.60099 0.50734 0.0
O137 O 0.66859 0.63791 0.5102 0.0
O138 O 0.70919 0.65703 0.46938 0.0
O139 O 0.70555 0.61951 0.46039 0.0
C140 C 0.73931 0.5963 0.51758 0.0
O141 O 0.70708 0.66221 0.52717 0.0
O142 O 0.74111 0.65362 0.51054 0.0
In143 In 0.64461 0.50779 0.77281 0.0
O144 O 0.67813 0.48417 0.7787 0.0
O145 O 0.66388 0.48707 0.74261 0.0
C146 C 0.67039 0.54996 0.77043 0.0
C147 C 0.60541 0.50556 0.74337 0.0
C148 C 0.62281 0.49469 0.81518 0.0
O149 O 0.65036 0.54708 0.75936 0.0
O150 O 0.67683 0.53205 0.78318 0.0
O151 O 0.62736 0.47959 0.7985 0.0
O152 O 0.63029 0.51609 0.81101 0.0
C153 C 0.68016 0.47858 0.75643 0.0
O154 O 0.62306 0.49101 0.74174 0.0
O155 O 0.60778 0.5219 0.7595 0.0
In156 In 0.00065 0.75281 0.87643 0.0
O157 O 0.03499 0.75548 0.85374 0.0
O158 O 0.02606 0.72078 0.86875 0.0
C159 C 0.97232 0.75804 0.83684 0.0
C160 C 0.98033 0.72938 0.91461 0.0
C161 C 0.01035 0.794 0.90128 0.0
O162 O 0.98448 0.77543 0.84603 0.0
O163 O 0.97437 0.73783 0.84771 0.0
O164 O 0.02634 0.77817 0.89705 0.0
O165 O 0.98959 0.78946 0.89223 0.0
C166 C 0.04088 0.73347 0.85637 0.0
O167 O 0.00291 0.73349 0.91273 0.0
O168 O 0.96778 0.73601 0.89651 0.0
In169 In 0.00399 0.24327 0.61545 0.0
O170 O 0.00078 0.27924 0.5953 0.0
O171 O 0.99095 0.2786 0.63282 0.0
C172 C 0.02757 0.22793 0.57525 0.0
C173 C 0.03444 0.2316 0.65189 0.0
C174 C 0.96012 0.22321 0.62629 0.0
O175 O 0.00522 0.22342 0.57896 0.0
O176 O 0.0379 0.24031 0.59169 0.0
O177 O 0.97976 0.21634 0.63594 0.0
O178 O 0.96279 0.23902 0.60979 0.0
C179 C 0.9923 0.29072 0.61329 0.0
O180 O 0.02254 0.21586 0.63988 0.0
O181 O 0.03103 0.25349 0.6455 0.0
In182 In 0.49317 0.27904 0.37792 0.0
O183 O 0.51785 0.30173 0.35313 0.0
O184 O 0.51916 0.26304 0.35006 0.0
C185 C 0.45368 0.2951 0.35349 0.0
C186 C 0.48574 0.23432 0.397 0.0
C187 C 0.50679 0.30209 0.41941 0.0
O188 O 0.46073 0.2733 0.35219 0.0
O189 O 0.46661 0.30871 0.36692 0.0
O190 O 0.48495 0.29683 0.41432 0.0
O191 O 0.52206 0.29601 0.40339 0.0
C192 C 0.52715 0.28346 0.34278 0.0
O193 O 0.5052 0.24016 0.38604 0.0
O194 O 0.46993 0.25087 0.39792 0.0
In195 In 0.51977 0.75967 0.12352 0.0
O196 O 0.53203 0.74016 0.08924 0.0
O197 O 0.51028 0.72033 0.11483 0.0
C198 C 0.50031 0.79748 0.09958 0.0
C199 C 0.48935 0.76029 0.16188 0.0
C200 C 0.56695 0.76033 0.13652 0.0
O201 O 0.49662 0.77567 0.09327 0.0
O202 O 0.51456 0.80031 0.11748 0.0
O203 O 0.55179 0.74512 0.14512 0.0
O204 O 0.55813 0.77563 0.12177 0.0
C205 C 0.52167 0.72029 0.09479 0.0
O206 O 0.51094 0.76839 0.16316 0.0
O207 O 0.4836 0.75086 0.14167 0.0
In208 In 0.87417 0.03897 0.75008 0.0
O209 O 0.90309 0.02682 0.72325 0.0
O210 O 0.89275 0.06421 0.72269 0.0
C211 C 0.90688 0.03936 0.78671 0.0
C212 C 0.83711 0.06841 0.76269 0.0
C213 C 0.84778 -0.00043 0.73659 0.0
O214 O 0.90214 0.05807 0.77424 0.0
O215 O 0.89497 0.02038 0.78082 0.0
O216 O 0.85757 0.00147 0.75739 0.0
O217 O 0.8517 0.01732 0.7225 0.0
C218 C 0.90604 0.04767 0.71387 0.0
O219 O 0.84814 0.05536 0.77797 0.0
O220 O 0.84514 0.06709 0.74119 0.0
In221 In 0.76578 0.12325 0.49785 0.0
O222 O 0.79166 0.10175 0.47394 0.0
O223 O 0.79917 0.1027 0.51194 0.0
C224 C 0.73045 0.09305 0.4821 0.0
C225 C 0.75447 0.14235 0.5417 0.0
C226 C 0.76851 0.1652 0.47255 0.0
O227 O 0.73896 0.11025 0.46925 0.0
O228 O 0.73991 0.09093 0.50305 0.0
O229 O 0.74856 0.15441 0.4769 0.0
O230 O 0.78716 0.15474 0.48086 0.0
C231 C 0.8055 0.09534 0.49106 0.0
O232 O 0.74049 0.1278 0.53049 0.0
O233 O 0.77474 0.1462 0.53145 0.0
In234 In 0.64329 0.97333 0.25079 0.0
O235 O 0.66664 0.95162 0.27759 0.0
O236 O 0.66389 0.93862 0.24126 0.0
C237 C 0.66629 0.01488 0.26452 0.0
C238 C 0.63145 0.98008 0.20342 0.0
C239 C 0.59947 0.96785 0.27231 0.0
O240 O 0.66845 0.00574 0.24358 0.0
O241 O 0.65266 0.00295 0.27877 0.0
O242 O 0.60921 0.98843 0.26822 0.0
O243 O 0.61182 0.94976 0.26529 0.0
C244 C 0.67288 0.9358 0.26223 0.0
O245 O 0.61578 0.97542 0.21962 0.0
O246 O 0.65323 0.9805 0.21091 0.0
In247 In 0.76305 0.85513 0.00986 0.0
O248 O 0.7354 0.88431 0.00185 0.0
O249 O 0.7227 0.85261 0.02053 0.0
C250 C 0.79202 0.8942 0.01626 0.0
C251 C 0.78542 0.82503 0.04112 0.0
C252 C 0.75846 0.83135 0.96752 0.0
O253 O 0.77802 0.88626 0.03277 0.0
O254 O 0.79134 0.88241 -0.00358 0.0
O255 O 0.74635 0.82549 0.98624 0.0
O256 O 0.77329 0.84895 0.97034 0.0
C257 C 0.71758 0.87296 0.01106 0.0
O258 O 0.78999 0.8249 0.01862 0.0
O259 O 0.7689 0.83954 0.04769 0.0
In260 In 0.27784 0.62972 0.04349 0.0
O261 O 0.28761 0.65862 0.07214 0.0
O262 O 0.26077 0.63219 0.08136 0.0
C263 C 0.29462 0.66361 0.01214 0.0
C264 C 0.30689 0.59053 0.03857 0.0
C265 C 0.23289 0.61609 0.02873 0.0
O266 O 0.27282 0.66281 0.01957 0.0
O267 O 0.30843 0.64763 0.02118 0.0
O268 O 0.24476 0.63326 0.01891 0.0
O269 O 0.24382 0.60548 0.04596 0.0
C270 C 0.27242 0.65104 0.08768 0.0
O271 O 0.29145 0.59661 0.02272 0.0
O272 O 0.30761 0.60415 0.05717 0.0
In273 In 0.12277 0.4878 0.78765 0.0
O274 O 0.14085 0.4595 0.81205 0.0
O275 O 0.13774 0.45168 0.77418 0.0
C276 C 0.16283 0.51549 0.78038 0.0
C277 C 0.08873 0.49287 0.75268 0.0
C278 C 0.09099 0.49976 0.82287 0.0
O279 O 0.15273 0.50351 0.76338 0.0
O280 O 0.15244 0.51377 0.8009 0.0
O281 O 0.10722 0.51453 0.81554 0.0
O282 O 0.09182 0.47881 0.81347 0.0
C283 C 0.14507 0.44482 0.79487 0.0
O284 O 0.10382 0.50965 0.7578 0.0
O285 O 0.09184 0.47317 0.76408 0.0
In286 In 0.20177 0.3565 0.53288 0.0
O287 O 0.22484 0.32225 0.53447 0.0
O288 O 0.19191 0.32238 0.55473 0.0
C289 C 0.19621 0.36258 0.48459 0.0
C290 C 0.16263 0.38045 0.54982 0.0
C291 C 0.24199 0.37978 0.54885 0.0
O292 O 0.19161 0.34247 0.49496 0.0
O293 O 0.20358 0.37935 0.49859 0.0
O294 O 0.2394 0.37289 0.527 0.0
O295 O 0.22419 0.375 0.5627 0.0
C296 C 0.21119 0.31116 0.54929 0.0
O297 O 0.18397 0.38401 0.55766 0.0
O298 O 0.16064 0.3638 0.53399 0.0
In299 In 0.39069 0.53002 0.27493 0.0
O300 O 0.4145 0.50599 0.25154 0.0
O301 O 0.42512 0.54331 0.25504 0.0
C302 C 0.40692 0.50911 0.31626 0.0
C303 C 0.36984 0.57223 0.28883 0.0
C304 C 0.35231 0.51281 0.24947 0.0
O305 O 0.41239 0.53072 0.31037 0.0
O306 O 0.39358 0.49793 0.30111 0.0
O307 O 0.3557 0.50842 0.27179 0.0
O308 O 0.36859 0.52585 0.23949 0.0
C309 C 0.42962 0.52256 0.24602 0.0
O310 O 0.36304 0.55155 0.29625 0.0
O311 O 0.38776 0.57199 0.27428 0.0
O312 O 0.00173 0.06975 0.00063 0.0
Zn313 Zn 0.01554 0.03809 0.98923 0.0
O314 O 0.00119 0.01128 0.00807 0.0
Zn315 Zn 0.02678 0.99053 0.02117 0.0
Zn316 Zn 0.98125 0.02346 0.03495 0.0
Zn317 Zn 0.98089 0.99231 0.98657 0.0
O318 O 0.02507 0.95606 0.00847 0.0
O319 O 0.9931 0.95846 0.98373 0.0
O320 O 0.05204 0.03967 0.99468 0.0
O321 O 0.05944 0.00429 0.0129 0.0
O322 O 0.0271 0.99138 0.05779 0.0
O323 O -0.00277 0.01681 0.06721 0.0
O324 O 0.94708 0.00907 0.03472 0.0
O325 O 0.00742 0.03604 0.9532 0.0
O326 O 0.94699 0.99011 -0.00105 0.0
O327 O 0.97999 0.00604 0.95299 0.0
C328 C 0.98756 0.07555 0.01801 0.0
C329 C 0.01037 0.94637 0.9932 0.0
C330 C 0.01517 0.00359 0.07347 0.0
C331 C 0.06686 0.02437 0.00384 0.0
C332 C 0.93607 -0.00322 0.01825 0.0
C333 C 0.99187 0.02273 0.94197 0.0
O334 O 0.97865 0.05976 0.03258 0.0
O335 O 0.25303 0.7544 0.24917 0.0
Zn336 Zn 0.25981 0.7663 0.28317 0.0
O337 O 0.28191 0.79449 0.28185 0.0
Zn338 Zn 0.31177 0.7869 0.29948 0.0
Zn339 Zn 0.28995 0.80306 0.24825 0.0
Zn340 Zn 0.26639 0.82187 0.29738 0.0
O341 O 0.31323 0.80386 0.33191 0.0
O342 O 0.28191 0.82921 0.32964 0.0
O343 O 0.27572 0.7375 0.29955 0.0
O344 O 0.31374 0.75086 0.30511 0.0
O345 O 0.34162 0.79512 0.28015 0.0
O346 O 0.32619 0.80081 0.24312 0.0
O347 O 0.27967 0.83762 0.23997 0.0
O348 O 0.22765 0.77428 0.29934 0.0
O349 O 0.26727 0.85146 0.27609 0.0
O350 O 0.23135 0.8143 0.3047 0.0
C351 C 0.26058 0.76055 0.22806 0.0
C352 C 0.29999 0.82043 0.34118 0.0
C353 C 0.3444 0.79854 0.25738 0.0
C354 C 0.29789 0.73376 0.30542 0.0
C355 C 0.27206 0.85477 0.25363 0.0
C356 C 0.21876 0.79471 0.30579 0.0
O357 O 0.27473 0.77888 0.22502 0.0
O358 O 0.49977 0.94344 0.47258 0.0
Zn359 Zn 0.4864 0.97503 0.46055 0.0
O360 O 0.50555 0.00234 0.47364 0.0
Zn361 Zn 0.48488 0.0237 0.49304 0.0
Zn362 Zn 0.53213 0.98986 0.49385 0.0
Zn363 Zn 0.51899 0.02119 0.44714 0.0
O364 O 0.48346 0.05805 0.48003 0.0
O365 O 0.50643 0.05536 0.44682 0.0
O366 O 0.45214 0.97575 0.47349 0.0
O367 O 0.45089 0.01034 0.49458 0.0
O368 O 0.49493 0.02326 0.52825 0.0
O369 O 0.52483 0.9962 0.52928 0.0
O370 O 0.56467 0.00461 0.48443 0.0
O371 O 0.48766 0.97343 0.42359 0.0
O372 O 0.55532 0.02348 0.44985 0.0
O373 O 0.51112 0.00562 0.41528 0.0
C374 C 0.51926 0.93739 0.48356 0.0
C375 C 0.49286 0.06761 0.46103 0.0
C376 C 0.50981 0.01008 0.54017 0.0
C377 C 0.44078 0.99081 0.48695 0.0
C378 C 0.57094 0.01681 0.46564 0.0
C379 C 0.49877 0.98711 0.40833 0.0
O380 O 0.53448 0.95329 0.4913 0.0
O381 O 0.24525 0.2178 0.82223 0.0
Zn382 Zn 0.25274 0.2406 0.7946 0.0
O383 O 0.24567 0.22461 0.76392 0.0
Zn384 Zn 0.27546 0.21842 0.74526 0.0
Zn385 Zn 0.22754 0.19416 0.76861 0.0
Zn386 Zn 0.22555 0.24668 0.74642 0.0
O387 O 0.27148 0.22913 0.70977 0.0
O388 O 0.23588 0.24805 0.71221 0.0
O389 O 0.28818 0.24961 0.79553 0.0
O390 O 0.3047 0.23478 0.7615 0.0
O391 O 0.28134 0.18232 0.74378 0.0
O392 O 0.24488 0.16627 0.7524 0.0
O393 O 0.19253 0.19594 0.75653 0.0
O394 O 0.23437 0.27217 0.79915 0.0
O395 O 0.19152 0.23469 0.74516 0.0
O396 O 0.22409 0.27991 0.76087 0.0
C397 C 0.23495 0.19688 0.82329 0.0
C398 C 0.25374 0.24026 0.69977 0.0
C399 C 0.2669 0.16402 0.74529 0.0
C400 C 0.30647 0.24645 0.78159 0.0
C401 C 0.18088 0.21432 0.74856 0.0
C402 C 0.22583 0.2865 0.78304 0.0
O403 O 0.22706 0.18609 0.80422 0.0
O404 O 0.04181 0.00975 0.45086 0.0
Zn405 Zn 0.01902 0.00965 0.48017 0.0
O406 O 0.03484 0.02442 0.50874 0.0
Zn407 Zn 0.03334 0.0029 0.53699 0.0
Zn408 Zn 0.06835 0.03374 0.50146 0.0
Zn409 Zn 0.01768 0.05332 0.51689 0.0
O410 O 0.01473 0.01787 0.56495 0.0
O411 O 0.01138 0.05622 0.55261 0.0
O412 O 0.01201 0.97463 0.48788 0.0
O413 O 0.01885 0.97032 0.52764 0.0
O414 O 0.06717 0.996 0.54899 0.0
O415 O 0.09148 0.01771 0.52467 0.0
O416 O 0.07373 0.07054 0.50085 0.0
O417 O 0.98586 0.02462 0.47283 0.0
O418 O 0.03548 0.08265 0.50566 0.0
O419 O 0.98507 0.05287 0.50177 0.0
C420 C 0.06487 0.01326 0.45009 0.0
C421 C 0.0089 0.03996 0.56899 0.0
C422 C 0.08838 0.00298 0.54238 0.0
C423 C 0.01203 0.96163 0.50714 0.0
C424 C 0.05776 0.08731 0.50098 0.0
C425 C 0.97469 0.0412 0.48459 0.0
O426 O 0.07673 0.02128 0.46844 0.0
O427 O 0.33174 0.73535 0.7783 0.0
Zn428 Zn 0.30125 0.73995 0.79756 0.0
O429 O 0.27484 0.71992 0.78398 0.0
Zn430 Zn 0.24809 0.74092 0.77388 0.0
Zn431 Zn 0.28666 0.70073 0.75614 0.0
Zn432 Zn 0.26284 0.69812 0.80893 0.0
O433 O 0.21663 0.73365 0.79147 0.0
O434 O 0.22701 0.70214 0.81447 0.0
O435 O 0.29418 0.77558 0.79316 0.0
O436 O 0.2573 0.77638 0.77643 0.0
O437 O 0.24192 0.73687 0.73846 0.0
O438 O 0.26972 0.71092 0.72511 0.0
O439 O 0.28031 0.66463 0.76093 0.0
O440 O 0.30774 0.73296 0.83315 0.0
O441 O 0.26656 0.6633 0.79899 0.0
O442 O 0.27948 0.70454 0.84071 0.0
C443 C 0.33755 0.72261 0.75983 0.0
C444 C 0.21107 0.71694 0.80666 0.0
C445 C 0.25211 0.7254 0.72115 0.0
C446 C 0.27646 0.78732 0.78396 0.0
C447 C 0.27252 0.6526 0.77929 0.0
C448 C 0.29682 0.71848 0.84772 0.0
O449 O 0.32238 0.70784 0.74996 0.0
O450 O 0.56222 0.018 0.02585 0.0
Zn451 Zn 0.5501 0.01216 0.99148 0.0
O452 O 0.51583 0.00144 0.99182 0.0
Zn453 Zn 0.51296 0.96947 0.97763 0.0
Zn454 Zn 0.50395 8e-05 0.02501 0.0
Zn455 Zn 0.49537 0.0225 0.97271 0.0
O456 O 0.50098 0.97053 0.94337 0.0
O457 O 0.48265 0.00639 0.94196 0.0
O458 O 0.57184 0.98459 0.98024 0.0
O459 O 0.5454 0.95369 0.97799 0.0
O460 O 0.49062 0.94798 -0.0031 0.0
O461 O 0.48955 0.96727 0.03247 0.0
O462 O 0.47736 0.02413 0.0304 0.0
O463 O 0.55445 0.04333 0.97157 0.0
O464 O 0.46805 0.03627 0.99288 0.0
O465 O 0.51578 0.05011 0.96126 0.0
C466 C 0.55295 0.01352 0.0467 0.0
C467 C 0.4881 0.98609 0.93213 0.0
C468 C 0.48422 0.94896 0.01916 0.0
C469 C 0.56721 0.96182 0.97808 0.0
C470 C 0.46407 0.03624 0.0158 0.0
C471 C 0.53823 0.05628 0.96112 0.0
O472 O 0.53096 0.00611 0.04883 0.0
O473 O 0.17347 0.32067 0.24716 0.0
Zn474 Zn 0.20292 0.31197 0.26697 0.0
O475 O 0.23251 0.32216 0.24984 0.0
Zn476 Zn 0.25495 0.2946 0.24779 0.0
Zn477 Zn 0.22504 0.33444 0.21706 0.0
Zn478 Zn 0.24719 0.34841 0.26821 0.0
O479 O 0.2867 0.30162 0.26573 0.0
O480 O 0.28125 0.33993 0.2777 0.0
O481 O 0.20232 0.27566 0.2718 0.0
O482 O 0.23908 0.26349 0.25995 0.0
O483 O 0.26245 0.28715 0.21286 0.0
O484 O 0.24025 0.31337 0.19156 0.0
O485 O 0.23683 0.3692 0.21146 0.0
O486 O 0.19964 0.32774 0.29996 0.0
O487 O 0.24878 0.37893 0.24892 0.0
O488 O 0.22907 0.35577 0.29882 0.0
C489 C 0.1707 0.32824 0.22539 0.0
C490 C 0.29449 0.32102 0.27613 0.0
C491 C 0.25488 0.2955 0.19259 0.0
C492 C 0.21786 0.25886 0.26837 0.0
C493 C 0.24489 0.38471 0.22683 0.0
C494 C 0.21104 0.34569 0.30948 0.0
O495 O 0.1888 0.33337 0.21169 0.0
O496 O 0.51364 0.47423 0.97638 0.0
Zn497 Zn 0.49957 0.47083 0.01067 0.0
O498 O 0.52127 0.48593 0.03487 0.0
Zn499 Zn 0.53664 0.46152 0.05613 0.0
Zn500 Zn 0.5459 0.50579 0.01841 0.0
Zn501 Zn 0.50214 0.50726 0.05461 0.0
O502 O 0.52987 0.46799 0.09235 0.0
O503 O 0.50759 0.50161 0.08971 0.0
O504 O 0.49734 0.4351 0.01765 0.0
O505 O 0.5247 0.42764 0.04683 0.0
O506 O 0.57322 0.46255 0.05125 0.0
O507 O 0.5793 0.49538 0.02819 0.0
O508 O 0.54247 0.5419 0.02406 0.0
O509 O 0.465 0.48423 0.01225 0.0
O510 O 0.51047 0.54191 0.04866 0.0
O511 O 0.46687 0.50397 0.04753 0.0
C512 C 0.53158 0.48692 0.96842 0.0
C513 C 0.51844 0.48557 0.10226 0.0
C514 C 0.5875 0.47741 0.04028 0.0
C515 C 0.50843 0.42043 0.03174 0.0
C516 C 0.52671 0.55329 0.0366 0.0
C517 C 0.45468 0.49591 0.02947 0.0
O518 O 0.54451 0.50004 0.98265 0.0
O519 O 0.80643 0.24186 0.25966 0.0
Zn520 Zn 0.77652 0.25763 0.27314 0.0
O521 O 0.74709 0.2461 0.25682 0.0
Zn522 Zn 0.73201 0.27243 0.23799 0.0
Zn523 Zn 0.75521 0.21872 0.23557 0.0
Zn524 Zn 0.72491 0.23502 0.2817 0.0
O525 O 0.69724 0.27891 0.24927 0.0
O526 O 0.69232 0.24989 0.27722 0.0
O527 O 0.7814 0.29284 0.26641 0.0
O528 O 0.75249 0.30344 0.24007 0.0
O529 O 0.73096 0.2629 0.20253 0.0
O530 O 0.74365 0.2245 0.20147 0.0
O531 O 0.74194 0.18664 0.24837 0.0
O532 O 0.77554 0.25375 0.30936 0.0
O533 O 0.72093 0.19886 0.2807 0.0
O534 O 0.73694 0.24292 0.31531 0.0
C535 C 0.80947 0.22683 0.24228 0.0
C536 C 0.68391 0.26731 0.2645 0.0
C537 C 0.73567 0.24342 0.19079 0.0
C538 C 0.77144 0.30856 0.25269 0.0
C539 C 0.72858 0.18197 0.26685 0.0
C540 C 0.75783 0.24901 0.32361 0.0
O541 O 0.79147 0.21687 0.23136 0.0
O542 O 0.99125 0.53471 0.60652 0.0
Zn543 Zn 0.99324 0.53304 0.57026 0.0
O544 O 0.96365 0.51849 0.55695 0.0
Zn545 Zn 0.97158 0.49078 0.53571 0.0
Zn546 Zn 0.94168 0.50833 0.58329 0.0
Zn547 Zn 0.94796 0.54307 0.53799 0.0
O548 O 0.9629 0.49662 0.50004 0.0
O549 O 0.94831 0.5341 0.50301 0.0
O550 O 0.02169 0.51154 0.56359 0.0
O551 O 0.00736 0.48322 0.53826 0.0
O552 O 0.95573 0.46014 0.54834 0.0
O553 O 0.9392 0.47186 0.58339 0.0
O554 O 0.90745 0.52168 0.57901 0.0
O555 O 0.00032 0.56659 0.55693 0.0
O556 O 0.91311 0.5458 0.54694 0.0
O557 O 0.96481 0.57542 0.53979 0.0
C558 C 0.97597 0.5273 0.6224 0.0
C559 C 0.95411 0.51571 0.49022 0.0
C560 C 0.94495 0.45517 0.56835 0.0
C561 C 0.02476 0.49251 0.5507 0.0
C562 C 0.89924 0.53633 0.56298 0.0
C563 C 0.98635 0.58157 0.54615 0.0
O564 O 0.95587 0.51713 0.61619 0.0
O565 O 0.76833 0.71926 0.29629 0.0
Zn566 Zn 0.78953 0.73931 0.27382 0.0
O567 O 0.78554 0.72742 0.24029 0.0
Zn568 Zn 0.81529 0.71258 0.22783 0.0
Zn569 Zn 0.75828 0.70425 0.23806 0.0
Zn570 Zn 0.77902 0.7549 0.22 0.0
O571 O 0.82706 0.72749 0.19597 0.0
O572 O 0.80535 0.76138 0.19644 0.0
O573 O 0.82487 0.73591 0.28406 0.0
O574 O 0.84196 0.71671 0.25267 0.0
O575 O 0.80983 0.67687 0.22236 0.0
O576 O 0.76989 0.67128 0.22728 0.0
O577 O 0.73175 0.71596 0.21528 0.0
O578 O 0.77877 0.77469 0.27783 0.0
O579 O 0.74855 0.74998 0.20087 0.0
O580 O 0.77348 0.7847 0.23911 0.0
C581 C 0.75063 0.70443 0.29261 0.0
C582 C 0.82216 0.74843 0.18735 0.0
C583 C 0.79099 0.66308 0.22235 0.0
C584 C 0.8434 0.7263 0.27383 0.0
C585 C 0.73118 0.73446 0.20123 0.0
C586 C 0.77321 0.79029 0.26156 0.0
O587 O 0.74415 0.69818 0.27118 0.0
O588 O 0.72095 0.24302 0.70016 0.0
Zn589 Zn 0.72458 0.25136 0.73551 0.0
O590 O 0.75274 0.27307 0.74031 0.0
Zn591 Zn 0.7779 0.2568 0.75924 0.0
Zn592 Zn 0.76576 0.28373 0.70868 0.0
Zn593 Zn 0.7428 0.30106 0.75874 0.0
O594 O 0.78731 0.27466 0.79004 0.0
O595 O 0.7579 0.3021 0.79188 0.0
O596 O 0.72937 0.21913 0.75257 0.0
O597 O 0.76574 0.22424 0.76997 0.0
O598 O 0.80731 0.25043 0.73843 0.0
O599 O 0.79987 0.27126 0.70451 0.0
O600 O 0.76548 0.32074 0.70464 0.0
O601 O 0.6935 0.26676 0.74741 0.0
O602 O 0.7528 0.33126 0.74173 0.0
O603 O 0.70662 0.30202 0.76272 0.0
C604 C 0.73123 0.25056 0.68074 0.0
C605 C 0.77614 0.29147 0.80138 0.0
C606 C 0.8135 0.25741 0.71715 0.0
C607 C 0.74666 0.21149 0.76599 0.0
C608 C 0.76075 0.33685 0.7207 0.0
C609 C 0.68936 0.28722 0.75759 0.0
O610 O 0.7478 0.26702 0.68126 0.0
O611 O 0.70019 0.77243 0.73456 0.0
Zn612 Zn 0.73213 0.76186 0.74861 0.0
O613 O 0.75968 0.77453 0.72991 0.0
Zn614 Zn 0.7808 0.7477 0.71947 0.0
Zn615 Zn 0.74767 0.79343 0.70218 0.0
Zn616 Zn 0.77841 0.79598 0.75049 0.0
O617 O 0.81556 0.75167 0.7316 0.0
O618 O 0.81372 0.78797 0.74953 0.0
O619 O 0.73182 0.72546 0.74754 0.0
O620 O 0.76729 0.71511 0.73091 0.0
O621 O 0.78183 0.74685 0.68274 0.0
O622 O 0.75938 0.77854 0.6712 0.0
O623 O 0.75792 0.82921 0.70358 0.0
O624 O 0.73388 0.77142 0.784 0.0
O625 O 0.77594 0.83021 0.7398 0.0
O626 O 0.76751 0.79422 0.78504 0.0
C627 C 0.69475 0.78303 0.71468 0.0
C628 C 0.82581 0.76968 0.74228 0.0
C629 C 0.77252 0.76018 0.66618 0.0
C630 C 0.74702 0.70937 0.74087 0.0
C631 C 0.7684 0.84098 0.72077 0.0
C632 C 0.74948 0.78414 0.79575 0.0
O633 O 0.71108 0.7913 0.70031 0.0
O634 O 0.43437 0.53303 0.54102 0.0
Zn635 Zn 0.45929 0.50892 0.53051 0.0
O636 O 0.46163 0.48171 0.55261 0.0
Zn637 Zn 0.49543 0.47476 0.56003 0.0
Zn638 Zn 0.44349 0.49056 0.58177 0.0
Zn639 Zn 0.44762 0.45384 0.53681 0.0
O640 O 0.50598 0.44237 0.54573 0.0
O641 O 0.46974 0.42527 0.53864 0.0
O642 O 0.49082 0.52731 0.53035 0.0
O643 O 0.51706 0.50216 0.54806 0.0
O644 O 0.49971 0.47383 0.59634 0.0
O645 O 0.46388 0.48475 0.61184 0.0
O646 O 0.41125 0.4718 0.58322 0.0
O647 O 0.45192 0.49854 0.49647 0.0
O648 O 0.41576 0.44629 0.55196 0.0
O649 O 0.44194 0.45955 0.50087 0.0
C650 C 0.43215 0.54057 0.56281 0.0
C651 C 0.49291 0.42389 0.53989 0.0
C652 C 0.48608 0.47846 0.61457 0.0
C653 C 0.51228 0.52228 0.53752 0.0
C654 C 0.40323 0.45458 0.56961 0.0
C655 C 0.44493 0.47828 0.48746 0.0
O656 O 0.43733 0.52686 0.58082 0.0
O657 O 0.98656 0.49432 0.01317 0.0
Zn658 Zn 0.9769 0.52857 0.0067 0.0
O659 O 0.99642 0.54998 0.02667 0.0
Zn660 Zn 0.97498 0.56172 0.05239 0.0
Zn661 Zn 0.02447 0.53288 0.03963 0.0
Zn662 Zn 0.00789 0.57603 0.00637 0.0
O663 O 0.96483 0.59679 0.04555 0.0
O664 O 0.9891 0.60568 0.01401 0.0
O665 O 0.94163 0.52964 0.01494 0.0
O666 O 0.94447 0.54046 0.05377 0.0
O667 O 0.99167 0.55793 0.08508 0.0
O668 O 0.02321 0.53418 0.07613 0.0
O669 O 0.05632 0.54863 0.02921 0.0
O670 O 0.98209 0.53413 0.97114 0.0
O671 O 0.04336 0.58239 0.01113 0.0
O672 O 0.00486 0.5677 0.97078 0.0
C673 C 0.0058 0.48454 0.02148 0.0
C674 C 0.97284 0.61162 0.02945 0.0
C675 C 0.00997 0.5452 0.09164 0.0
C676 C 0.93263 0.53056 0.03629 0.0
C677 C 0.06059 0.56911 0.01899 0.0
C678 C 0.99415 0.55031 0.95959 0.0
O679 O 0.02324 0.4972 0.03048 0.0
H680 H 0.98789 0.19515 0.09871 0.0
H681 H 0.97238 0.23644 0.03314 0.0
H682 H 0.97048 0.19801 0.00929 0.0
H683 H 0.02502 0.14966 0.07234 0.0
H684 H 0.01279 0.12521 0.09077 0.0
H685 H 0.013 0.15597 0.10229 0.0
H686 H 0.96624 0.15318 0.10953 0.0
H687 H 0.96589 0.12241 0.09792 0.0
H688 H 0.94633 0.14507 0.08454 0.0
H689 H 0.97403 0.15534 0.99242 0.0
H690 H 0.97884 0.1111 0.98436 0.0
H691 H 0.98741 0.09806 0.06189 0.0
C692 C 0.98415 0.19603 0.07931 0.0
C693 C 0.98058 0.21851 0.06753 0.0
C694 C 0.97525 0.21919 0.0423 0.0
C695 C 0.97413 0.19755 0.02869 0.0
C696 C 0.97778 0.17556 0.04085 0.0
C697 C 0.98229 0.17464 0.06567 0.0
C698 C 0.98498 0.14873 0.07452 0.0
C699 C 0.01046 0.14466 0.08562 0.0
C700 C 0.96464 0.14195 0.0927 0.0
C701 C 0.9819 0.13519 0.05071 0.0
C702 C 0.97798 0.15096 0.03144 0.0
C703 C 0.97658 0.14275 0.0074 0.0
C704 C 0.97937 0.11773 0.00298 0.0
C705 C 0.98299 0.10141 0.0226 0.0
C706 C 0.98397 0.11021 0.0467 0.0
H707 H 0.09802 0.74457 0.37103 0.0
H708 H 0.07315 0.81954 0.37341 0.0
H709 H 0.11001 0.83274 0.35099 0.0
H710 H 0.16113 0.75765 0.38029 0.0
H711 H 0.17173 0.73432 0.35977 0.0
H712 H 0.1429 0.73057 0.37515 0.0
H713 H 0.12121 0.72456 0.33349 0.0
H714 H 0.15 0.72834 0.31797 0.0
H715 H 0.12459 0.74754 0.31017 0.0
H716 H 0.15008 0.83811 0.33014 0.0
H717 H 0.19102 0.83542 0.3118 0.0
H718 H 0.18982 0.75683 0.32216 0.0
C719 C 0.10029 0.76373 0.3667 0.0
C720 C 0.08276 0.78105 0.37393 0.0
C721 C 0.08636 0.80597 0.36801 0.0
C722 C 0.1072 0.81364 0.35526 0.0
C723 C 0.12417 0.79614 0.34847 0.0
C724 C 0.12096 0.7717 0.35389 0.0
C725 C 0.14231 0.75675 0.34493 0.0
C726 C 0.15528 0.74409 0.36631 0.0
C727 C 0.13402 0.7382 0.32548 0.0
C728 C 0.15815 0.77667 0.33392 0.0
C729 C 0.14729 0.79923 0.33612 0.0
C730 C 0.15872 0.82054 0.32814 0.0
C731 C 0.182 0.81881 0.3178 0.0
C732 C 0.19361 0.7959 0.31547 0.0
C733 C 0.18133 0.77456 0.32343 0.0
H734 H 0.47676 0.81491 0.54644 0.0
H735 H 0.55321 0.79526 0.55147 0.0
H736 H 0.56428 0.83043 0.52553 0.0
H737 H 0.47946 0.8378 0.4821 0.0
H738 H 0.45822 0.8619 0.48855 0.0
H739 H 0.45609 0.83341 0.50486 0.0
H740 H 0.45898 0.85687 0.5458 0.0
H741 H 0.46148 0.88535 0.52972 0.0
H742 H 0.48472 0.87689 0.55134 0.0
H743 H 0.56759 0.87116 0.5052 0.0
H744 H 0.56235 0.913 0.48907 0.0
H745 H 0.48374 0.90447 0.49458 0.0
C746 C 0.49576 0.81771 0.54159 0.0
C747 C 0.51413 0.80244 0.55091 0.0
C748 C 0.53882 0.80672 0.54439 0.0
C749 C 0.5453 0.82662 0.52965 0.0
C750 C 0.52681 0.84172 0.52121 0.0
C751 C 0.50249 0.83726 0.52659 0.0
C752 C 0.48632 0.85711 0.51653 0.0
C753 C 0.46901 0.84694 0.49683 0.0
C754 C 0.47205 0.8698 0.53708 0.0
C755 C 0.50544 0.87391 0.50558 0.0
C756 C 0.52869 0.8647 0.50838 0.0
C757 C 0.54946 0.87828 0.50223 0.0
C758 C 0.54635 0.90199 0.49319 0.0
C759 C 0.52267 0.91163 0.49015 0.0
C760 C 0.50202 0.8972 0.49598 0.0
H761 H 0.44343 0.23572 0.8273 0.0
H762 H 0.43507 0.30751 0.85956 0.0
H763 H 0.39468 0.31123 0.8399 0.0
H764 H 0.41272 0.24998 0.76897 0.0
H765 H 0.3987 0.22016 0.76689 0.0
H766 H 0.42779 0.2239 0.78193 0.0
H767 H 0.41013 0.20368 0.82093 0.0
H768 H 0.38106 0.19985 0.80601 0.0
H769 H 0.38296 0.21599 0.83463 0.0
H770 H 0.35373 0.30521 0.82101 0.0
H771 H 0.31514 0.29046 0.80254 0.0
H772 H 0.35071 0.22373 0.78017 0.0
C773 C 0.43321 0.25234 0.82996 0.0
C774 C 0.44229 0.27133 0.84495 0.0
C775 C 0.42843 0.29278 0.84808 0.0
C776 C 0.40552 0.29508 0.83695 0.0
C777 C 0.39696 0.27593 0.82248 0.0
C778 C 0.41044 0.25506 0.81873 0.0
C779 C 0.39656 0.23676 0.80315 0.0
C780 C 0.40973 0.23246 0.77879 0.0
C781 C 0.39243 0.21266 0.81701 0.0
C782 C 0.37285 0.25028 0.79939 0.0
C783 C 0.37353 0.27288 0.81065 0.0
C784 C 0.35312 0.28782 0.81166 0.0
C785 C 0.33132 0.2793 0.80119 0.0
C786 C 0.33023 0.25623 0.78963 0.0
C787 C 0.35136 0.24175 0.7883 0.0
H788 H 0.99317 0.84211 0.42966 0.0
H789 H 0.02175 0.80204 0.49149 0.0
H790 H 0.01835 0.83896 0.51714 0.0
H791 H 0.0263 0.89425 0.43977 0.0
H792 H 0.003 0.91521 0.43016 0.0
H793 H 0.00328 0.88472 0.41814 0.0
H794 H 0.95875 0.87794 0.43294 0.0
H795 H 0.95836 0.90852 0.44507 0.0
H796 H 0.9513 0.88295 0.46458 0.0
H797 H 0.0168 0.88123 0.5344 0.0
H798 H 0.01954 0.9257 0.54117 0.0
H799 H 0.99262 0.93802 0.46769 0.0
C800 C -0.00193 0.84094 0.44877 0.0
C801 C 0.00755 0.81928 0.4587 0.0
C802 C 0.01434 0.81852 0.48361 0.0
C803 C 0.01232 0.83932 0.49833 0.0
C804 C 0.0034 0.86063 0.48784 0.0
C805 C 0.99636 0.86155 0.46362 0.0
C806 C 0.99022 0.88725 0.45592 0.0
C807 C 0.00669 0.89585 0.43477 0.0
C808 C 0.96304 0.88928 0.44924 0.0
C809 C 0.99594 0.90082 0.47928 0.0
C810 C 0.00296 0.88512 0.49767 0.0
C811 C 0.01093 0.89368 0.52029 0.0
C812 C 0.01242 0.91898 0.52396 0.0
C813 C 0.00632 0.93534 0.50494 0.0
C814 C -0.00271 0.92601 0.48264 0.0
H815 H 0.43001 0.71713 0.64836 0.0
H816 H 0.45506 0.78938 0.66965 0.0
H817 H 0.42829 0.7876 0.70605 0.0
H818 H 0.36719 0.72596 0.66598 0.0
H819 H 0.36315 0.69484 0.67594 0.0
H820 H 0.38473 0.70193 0.65217 0.0
H821 H 0.4188 0.681 0.67727 0.0
H822 H 0.39742 0.67431 0.70137 0.0
H823 H 0.42505 0.69121 0.70794 0.0
H824 H 0.40028 0.77702 0.74076 0.0
H825 H 0.3674 0.76209 0.76758 0.0
H826 H 0.35902 0.6975 0.72221 0.0
C827 C 0.42971 0.73263 0.66063 0.0
C828 C 0.44454 0.75337 0.6564 0.0
C829 C 0.44363 0.77342 0.67261 0.0
C830 C 0.42873 0.77244 0.6934 0.0
C831 C 0.41474 0.75142 0.69738 0.0
C832 C 0.41467 0.73213 0.68116 0.0
C833 C 0.39696 0.71224 0.68889 0.0
C834 C 0.37681 0.70854 0.66961 0.0
C835 C 0.41037 0.68828 0.69418 0.0
C836 C 0.387 0.72338 0.71204 0.0
C837 C 0.39785 0.74575 0.71685 0.0
C838 C 0.39157 0.75958 0.73714 0.0
C839 C 0.37297 0.75081 0.75238 0.0
C840 C 0.36055 0.72861 0.74698 0.0
C841 C 0.36819 0.71447 0.72688 0.0
H842 H 0.50181 0.17646 0.89248 0.0
H843 H 0.56872 0.2101 0.91906 0.0
H844 H 0.5823 0.17006 0.93476 0.0
H845 H 0.49164 0.13864 0.94194 0.0
H846 H 0.47974 0.11342 0.92433 0.0
H847 H 0.47697 0.14402 0.91299 0.0
H848 H 0.49904 0.13148 0.87308 0.0
H849 H 0.50194 0.10077 0.88439 0.0
H850 H 0.5287 0.11755 0.87476 0.0
H851 H 0.58629 0.1267 0.95121 0.0
H852 H 0.57971 0.0848 0.96724 0.0
H853 H 0.51069 0.08069 0.92837 0.0
C854 C 0.51948 0.17536 0.90128 0.0
C855 C 0.53422 0.19627 0.90461 0.0
C856 C 0.55719 0.19418 0.9163 0.0
C857 C 0.56508 0.17153 0.92519 0.0
C858 C 0.5499 0.15123 0.92189 0.0
C859 C 0.52765 0.153 0.91004 0.0
C860 C 0.51392 0.12903 0.91011 0.0
C861 C 0.48912 0.13143 0.92313 0.0
C862 C 0.51073 0.11913 0.88403 0.0
C863 C 0.53146 0.11368 0.92461 0.0
C864 C 0.55229 0.12655 0.93105 0.0
C865 C 0.57021 0.11633 0.94596 0.0
C866 C 0.56638 0.09255 0.95494 0.0
C867 C 0.54468 0.07955 0.9491 0.0
C868 C 0.52748 0.09013 0.9332 0.0
H869 H 0.06808 0.29643 0.12848 0.0
H870 H 0.01453 0.32028 0.18145 0.0
H871 H 0.04782 0.3335 0.20914 0.0
H872 H 0.11079 0.27283 0.16953 0.0
H873 H 0.13728 0.28334 0.15296 0.0
H874 H 0.10924 0.27704 0.13694 0.0
H875 H 0.10976 0.32091 0.11922 0.0
H876 H 0.13786 0.32734 0.13522 0.0
H877 H 0.11174 0.34664 0.13965 0.0
H878 H 0.08677 0.33949 0.23267 0.0
H879 H 0.12892 0.34102 0.24911 0.0
H880 H 0.15679 0.31665 0.17927 0.0
C881 C 0.06342 0.30462 0.14584 0.0
C882 C 0.03889 0.30726 0.15302 0.0
C883 C 0.03332 0.31819 0.17571 0.0
C884 C 0.05206 0.32574 0.1915 0.0
C885 C 0.07613 0.32267 0.18399 0.0
C886 C 0.08185 0.31273 0.16154 0.0
C887 C 0.10916 0.31112 0.15796 0.0
C888 C 0.11707 0.2845 0.15413 0.0
C889 C 0.11762 0.32749 0.13676 0.0
C890 C 0.1179 0.32098 0.18222 0.0
C891 C 0.09859 0.32749 0.19703 0.0
C892 C 0.10209 0.335 0.22109 0.0
C893 C 0.12598 0.33574 0.23027 0.0
C894 C 0.14593 0.32936 0.21526 0.0
C895 C 0.14184 0.32226 0.19087 0.0
H896 H 0.12371 0.01863 0.16806 0.0
H897 H 0.07223 0.05227 0.21765 0.0
H898 H 0.03868 0.04364 0.18858 0.0
H899 H 0.097 0.04017 0.11247 0.0
H900 H 0.10296 0.01239 0.09598 0.0
H901 H 0.12258 0.02142 0.12081 0.0
H902 H 0.11464 0.9796 0.14164 0.0
H903 H 0.09462 0.97064 0.11705 0.0
H904 H 0.08371 0.97007 0.14806 0.0
H905 H 0.01107 0.03245 0.15342 0.0
H906 H 0.9919 0.02116 0.1141 0.0
H907 H 0.06131 0.99304 0.08878 0.0
C908 C 0.10541 0.02436 0.17271 0.0
C909 C 0.10053 0.03624 0.195 0.0
C910 C 0.07633 0.04322 0.20059 0.0
C911 C 0.05716 0.03829 0.18427 0.0
C912 C 0.06252 0.02615 0.16261 0.0
C913 C 0.08606 0.01934 0.15678 0.0
C914 C 0.08701 0.00673 0.13226 0.0
C915 C 0.10335 0.02103 0.11433 0.0
C916 C 0.0955 0.98018 0.13493 0.0
C917 C 0.06038 0.00784 0.12501 0.0
C918 C 0.04651 0.01903 0.14277 0.0
C919 C 0.02168 0.02342 0.13949 0.0
C920 C 0.01094 0.01687 0.11714 0.0
C921 C 0.02501 0.00595 0.09848 0.0
C922 C 0.04988 0.00083 0.10284 0.0
H923 H 0.2577 0.86552 0.47183 0.0
H924 H 0.32758 0.84137 0.49994 0.0
H925 H 0.34071 0.83106 0.45809 0.0
H926 H 0.2505 0.81968 0.4268 0.0
H927 H 0.23684 0.83966 0.40464 0.0
H928 H 0.23351 0.84592 0.43668 0.0
H929 H 0.25182 0.88923 0.43014 0.0
H930 H 0.25536 0.88302 0.39805 0.0
H931 H 0.28137 0.89257 0.41597 0.0
H932 H 0.34514 0.82112 0.41353 0.0
H933 H 0.3405 0.81236 0.36951 0.0
H934 H 0.26834 0.84462 0.3708 0.0
C935 C 0.27578 0.8581 0.46917 0.0
C936 C 0.2916 0.85411 0.48904 0.0
C937 C 0.31516 0.84449 0.48488 0.0
C938 C 0.32281 0.83867 0.46121 0.0
C939 C 0.30675 0.84283 0.44197 0.0
C940 C 0.28377 0.8524 0.44569 0.0
C941 C 0.26981 0.85462 0.42201 0.0
C942 C 0.24628 0.83904 0.42258 0.0
C943 C 0.26427 0.88146 0.41621 0.0
C944 C 0.28834 0.84432 0.40446 0.0
C945 C 0.30957 0.8377 0.41627 0.0
C946 C 0.32873 0.8265 0.404 0.0
C947 C 0.32592 0.82158 0.37904 0.0
C948 C 0.30415 0.82798 0.3667 0.0
C949 C 0.28538 0.83987 0.37959 0.0
H950 H 0.42312 0.01392 0.65477 0.0
H951 H 0.45822 0.94761 0.67919 0.0
H952 H 0.48952 0.95257 0.64697 0.0
H953 H 0.43019 0.00214 0.59198 0.0
H954 H 0.43494 0.03368 0.5838 0.0
H955 H 0.4172 0.02604 0.61035 0.0
H956 H 0.44583 0.05332 0.63675 0.0
H957 H 0.46393 0.06065 0.61025 0.0
H958 H 0.47823 0.04769 0.63684 0.0
H959 H 0.51569 0.96376 0.61093 0.0
H960 H 0.53098 0.97657 0.5706 0.0
H961 H 0.47803 0.03511 0.56932 0.0
C962 C 0.43755 0.00059 0.65348 0.0
C963 C 0.43842 0.98047 0.6695 0.0
C964 C 0.45728 0.96315 0.66703 0.0
C965 C 0.47524 0.96596 0.64897 0.0
C966 C 0.47397 0.98612 0.63353 0.0
C967 C 0.4554 0.00295 0.6354 0.0
C968 C 0.45672 0.02162 0.61512 0.0
C969 C 0.43339 0.0208 0.59938 0.0
C970 C 0.46146 0.04735 0.62536 0.0
C971 C 0.47865 0.0124 0.60121 0.0
C972 C 0.48866 0.99222 0.61239 0.0
C973 C 0.50813 0.97967 0.6021 0.0
C974 C 0.51679 0.9872 0.57921 0.0
C975 C 0.50571 0.00687 0.5667 0.0
C976 C 0.48709 0.02017 0.57843 0.0
H977 H 0.25929 0.18047 0.96512 0.0
H978 H 0.23795 0.10443 0.95691 0.0
H979 H 0.22833 0.11178 0.91344 0.0
H980 H 0.21345 0.20568 0.92529 0.0
H981 H 0.23372 0.22872 0.91311 0.0
H982 H 0.23812 0.21759 0.94371 0.0
H983 H 0.28275 0.20607 0.9332 0.0
H984 H 0.27852 0.2173 0.90265 0.0
H985 H 0.28854 0.18643 0.90748 0.0
H986 H 0.22157 0.12746 0.87092 0.0
H987 H 0.22041 0.14963 0.83178 0.0
H988 H 0.24672 0.21522 0.86827 0.0
C989 C 0.25254 0.16537 0.95419 0.0
C990 C 0.24932 0.14191 0.96426 0.0
C991 C 0.24058 0.12255 0.94943 0.0
C992 C 0.23497 0.12657 0.92481 0.0
C993 C 0.23826 0.15 0.91546 0.0
C994 C 0.24697 0.16903 0.92966 0.0
C995 C 0.24968 0.19227 0.91507 0.0
C996 C 0.23273 0.21224 0.92488 0.0
C997 C 0.27646 0.20102 0.91457 0.0
C998 C 0.24138 0.18329 0.89034 0.0
C999 C 0.23464 0.15894 0.89097 0.0
C1000 C 0.22674 0.14656 0.87019 0.0
C1001 C 0.2261 0.15933 0.84808 0.0
C1002 C 0.23351 0.18416 0.84696 0.0
C1003 C 0.24092 0.19627 0.86849 0.0
H1004 H 0.09405 0.01846 0.30843 0.0
H1005 H 0.16934 0.00367 0.32785 0.0
H1006 H 0.15662 0.99491 0.37014 0.0
H1007 H 0.08007 0.05069 0.36002 0.0
H1008 H 0.04917 0.03957 0.36333 0.0
H1009 H 0.06316 0.04032 0.33368 0.0
H1010 H 0.05444 0.9941 0.32819 0.0
H1011 H 0.04019 0.99322 0.35782 0.0
H1012 H 0.06496 0.97289 0.35094 0.0
H1013 H 0.13728 0.99388 0.41076 0.0
H1014 H 0.1123 -0.00032 0.44757 0.0
H1015 H 0.04906 0.0149 0.40243 0.0
C1016 C 0.10772 0.01263 0.32143 0.0
C1017 C 0.13265 0.01156 0.31493 0.0
C1018 C 0.15013 0.00448 0.3325 0.0
C1019 C 0.14307 -0.00061 0.35651 0.0
C1020 C 0.11845 0.00135 0.36256 0.0
C1021 C 0.10097 0.00761 0.34552 0.0
C1022 C 0.07619 0.01088 0.35735 0.0
C1023 C 0.0666 0.03691 0.35336 0.0
C1024 C 0.05786 0.99162 0.34802 0.0
C1025 C 0.0827 0.00649 0.38383 0.0
C1026 C 0.10712 0.0007 0.38632 0.0
C1027 C 0.11804 -0.00208 0.40905 0.0
C1028 C 0.10373 0.00143 0.42984 0.0
C1029 C 0.07875 0.00765 0.42778 0.0
C1030 C 0.068 0.00972 0.40447 0.0
H1031 H 0.24186 0.83282 0.62977 0.0
H1032 H 0.27217 0.78609 0.57392 0.0
H1033 H 0.26615 0.75013 0.60084 0.0
H1034 H 0.2681 0.8064 0.67938 0.0
H1035 H 0.24214 0.80945 0.6993 0.0
H1036 H 0.24619 0.83025 0.67435 0.0
H1037 H 0.20294 0.81882 0.65824 0.0
H1038 H 0.19894 0.7977 0.68316 0.0
H1039 H 0.19542 0.78731 0.65213 0.0
H1040 H 0.26416 0.72147 0.63703 0.0
H1041 H 0.26413 0.70249 0.67802 0.0
H1042 H 0.23033 0.76736 0.70769 0.0
C1043 C 0.2468 0.81491 0.62311 0.0
C1044 C 0.25762 0.812 0.60007 0.0
C1045 C 0.2638 0.78846 0.59166 0.0
C1046 C 0.26036 0.76802 0.60675 0.0
C1047 C 0.24997 0.77152 0.6297 0.0
C1048 C 0.24281 0.79437 0.63758 0.0
C1049 C 0.2334 0.79371 0.66342 0.0
C1050 C 0.24836 0.81095 0.68007 0.0
C1051 C 0.20604 0.79974 0.66427 0.0
C1052 C 0.23775 0.76723 0.66945 0.0
C1053 C 0.24717 0.75458 0.64981 0.0
C1054 C 0.25602 0.7309 0.65231 0.0
C1055 C 0.25594 0.72025 0.67563 0.0
C1056 C 0.24688 0.73328 0.69596 0.0
C1057 C 0.23671 0.75658 0.69244 0.0
H1058 H 0.41575 0.00643 0.8073 0.0
H1059 H 0.45315 0.94284 0.77911 0.0
H1060 H 0.47526 0.93876 0.81813 0.0
H1061 H 0.46757 0.03092 0.84178 0.0
H1062 H 0.44873 0.0415 0.8665 0.0
H1063 H 0.4365 0.03993 0.83601 0.0
H1064 H 0.40086 0.01267 0.85156 0.0
H1065 H 0.41308 0.01399 0.88205 0.0
H1066 H 0.40758 0.98486 0.86769 0.0
H1067 H 0.49141 0.94012 0.8606 0.0
H1068 H 0.50297 0.9484 0.90324 0.0
H1069 H 0.45583 0.0118 0.90371 0.0
C1070 C 0.42878 0.99181 0.80928 0.0
C1071 C 0.43278 0.97493 0.79025 0.0
C1072 C 0.4499 0.956 0.79347 0.0
C1073 C 0.46249 0.9535 0.81556 0.0
C1074 C 0.45785 0.9702 0.8341 0.0
C1075 C 0.44163 0.98914 0.83115 0.0
C1076 C 0.4399 0.00447 0.85407 0.0
C1077 C 0.4487 0.03076 0.8493 0.0
C1078 C 0.41381 0.00395 0.86445 0.0
C1079 C 0.45746 0.99096 0.87046 0.0
C1080 C 0.46754 0.97123 0.85858 0.0
C1081 C 0.4838 0.95562 0.87007 0.0
C1082 C 0.49016 0.96044 0.89435 0.0
C1083 C 0.48035 0.98079 0.90683 0.0
C1084 C 0.46373 0.99618 0.89466 0.0
H1085 H 0.26883 0.17477 0.11522 0.0
H1086 H 0.255 0.21825 0.05057 0.0
H1087 H 0.25624 0.25573 0.07558 0.0
H1088 H 0.23203 0.20843 0.15553 0.0
H1089 H 0.25236 0.20547 0.18123 0.0
H1090 H 0.25183 0.18242 0.15787 0.0
H1091 H 0.29849 0.18837 0.15165 0.0
H1092 H 0.299 0.21169 0.17485 0.0
H1093 H 0.31048 0.21832 0.14474 0.0
H1094 H 0.25554 0.28786 0.10794 0.0
H1095 H 0.25245 0.31239 0.14565 0.0
H1096 H 0.26858 0.24804 0.18871 0.0
C1097 C 0.26622 0.1922 0.10632 0.0
C1098 C 0.26179 0.1937 0.08103 0.0
C1099 C 0.25843 0.21677 0.06998 0.0
C1100 C 0.25921 0.23814 0.08398 0.0
C1101 C 0.26362 0.23605 0.10891 0.0
C1102 C 0.26713 0.21369 0.11998 0.0
C1103 C 0.27052 0.21636 0.14723 0.0
C1104 C 0.25049 0.20235 0.16127 0.0
C1105 C 0.29615 0.2082 0.15507 0.0
C1106 C 0.26771 0.24366 0.14981 0.0
C1107 C 0.2639 0.25472 0.1275 0.0
C1108 C 0.2589 0.27952 0.1255 0.0
C1109 C 0.25718 0.29328 0.14697 0.0
C1110 C 0.26057 0.28215 0.17002 0.0
C1111 C 0.26649 0.25717 0.17132 0.0
H1112 H 0.17543 0.11651 0.03444 0.0
H1113 H 0.21964 0.05356 0.05206 0.0
H1114 H 0.18487 0.02631 0.04191 0.0
H1115 H 0.11709 0.09186 0.05696 0.0
H1116 H 0.10002 0.10575 0.03259 0.0
H1117 H 0.12773 0.12001 0.04347 0.0
H1118 H 0.14483 0.11966 -0.00064 0.0
H1119 H 0.11744 0.10483 0.98846 0.0
H1120 H 0.14678 0.09115 0.98309 0.0
H1121 H 0.14621 0.00604 0.0277 0.0
H1122 H 0.10493 0.99406 0.01384 0.0
H1123 H 0.08668 0.0704 0.00409 0.0
C1124 C 0.17761 0.09702 0.03676 0.0
C1125 C 0.20011 0.08709 0.04419 0.0
C1126 C 0.20244 0.0615 0.04655 0.0
C1127 C 0.18288 0.0459 0.0407 0.0
C1128 C 0.16123 0.05626 0.03248 0.0
C1129 C 0.15838 0.08123 0.03079 0.0
C1130 C 0.13353 0.08769 0.02071 0.0
C1131 C 0.11872 0.10218 0.03956 0.0
C1132 C 0.1358 0.10165 -0.00353 0.0
C1133 C 0.1229 0.06243 0.01682 0.0
C1134 C 0.13916 0.04457 0.02374 0.0
C1135 C 0.1333 0.01985 0.02225 0.0
C1136 C 0.10987 0.01324 0.01422 0.0
C1137 C 0.09266 0.0313 0.00771 0.0
C1138 C 0.09954 0.05617 0.00852 0.0
H1139 H 0.70318 0.39183 0.04876 0.0
H1140 H 0.73822 0.44002 -0.0036 0.0
H1141 H 0.7039 0.46884 0.00016 0.0
H1142 H 0.64399 0.39889 0.02582 0.0
H1143 H 0.62911 0.39743 0.05511 0.0
H1144 H 0.65776 0.3823 0.05059 0.0
H1145 H 0.67633 0.40619 0.08711 0.0
H1146 H 0.64771 0.42154 0.09164 0.0
H1147 H 0.67537 0.43906 0.08725 0.0
H1148 H 0.665 0.49095 0.00775 0.0
H1149 H 0.62253 0.50313 0.01534 0.0
H1150 H 0.61214 0.43957 0.06168 0.0
C1151 C 0.70379 0.40865 0.03841 0.0
C1152 C 0.72334 0.41391 0.02245 0.0
C1153 C 0.72335 0.43578 0.00876 0.0
C1154 C 0.70407 0.45228 0.01091 0.0
C1155 C 0.68496 0.44651 0.02674 0.0
C1156 C 0.68457 0.42513 0.04009 0.0
C1157 C 0.66084 0.4221 0.05394 0.0
C1158 C 0.64712 0.39881 0.04587 0.0
C1159 C 0.66534 0.42224 0.08163 0.0
C1160 C 0.6477 0.44487 0.04585 0.0
C1161 C 0.66213 0.45892 0.03056 0.0
C1162 C 0.65358 0.48022 0.01985 0.0
C1163 C 0.6294 0.48697 0.02431 0.0
C1164 C 0.61394 0.47228 0.0391 0.0
C1165 C 0.6235 0.45129 0.05045 0.0
H1166 H 0.87261 0.40726 0.28663 0.0
H1167 H 0.86576 0.43539 0.21296 0.0
H1168 H 0.8329 0.40535 0.20456 0.0
H1169 H 0.86241 0.34349 0.27063 0.0
H1170 H 0.84591 0.33717 0.2984 0.0
H1171 H 0.8692 0.36057 0.29798 0.0
H1172 H 0.83767 0.39169 0.31417 0.0
H1173 H 0.81415 0.36851 0.31408 0.0
H1174 H 0.80976 0.39649 0.29743 0.0
H1175 H 0.79903 0.37366 0.20513 0.0
H1176 H 0.77128 0.33852 0.21262 0.0
H1177 H 0.80135 0.33101 0.28549 0.0
C1178 C 0.86445 0.40684 0.26862 0.0
C1179 C 0.87169 0.42359 0.25045 0.0
C1180 C 0.86057 0.42257 0.22711 0.0
C1181 C 0.84176 0.40573 0.22222 0.0
C1182 C 0.83449 0.38997 0.24082 0.0
C1183 C 0.84584 0.39006 0.26338 0.0
C1184 C 0.835 0.37091 0.28007 0.0
C1185 C 0.85427 0.35191 0.28717 0.0
C1186 C 0.82347 0.38261 0.30278 0.0
C1187 C 0.81572 0.36009 0.26342 0.0
C1188 C 0.81546 0.37149 0.24096 0.0
C1189 C 0.79913 0.36452 0.22262 0.0
C1190 C 0.78328 0.34474 0.22711 0.0
C1191 C 0.78421 0.33212 0.24961 0.0
C1192 C 0.80025 0.34033 0.2681 0.0
H1193 H 0.78137 0.58323 0.49518 0.0
H1194 H 0.74174 0.57621 0.56332 0.0
H1195 H 0.7776 0.55637 0.58211 0.0
H1196 H 0.81746 0.52642 0.49989 0.0
H1197 H 0.844 0.54109 0.48686 0.0
H1198 H 0.81386 0.55069 0.47803 0.0
H1199 H 0.82503 0.5951 0.49038 0.0
H1200 H 0.85499 0.58562 0.49959 0.0
H1201 H 0.83561 0.60127 0.52095 0.0
H1202 H 0.81971 0.54086 0.59434 0.0
H1203 H 0.86386 0.53168 0.59867 0.0
H1204 H 0.87499 0.55143 0.52279 0.0
C1205 C 0.77993 0.57683 0.51382 0.0
C1206 C 0.75878 0.58098 0.52775 0.0
C1207 C 0.7578 0.57295 0.55229 0.0
C1208 C 0.77804 0.56168 0.5631 0.0
C1209 C 0.79902 0.55866 0.54906 0.0
C1210 C 0.79998 0.56592 0.5249 0.0
C1211 C 0.82523 0.56303 0.51436 0.0
C1212 C 0.82512 0.54418 0.49356 0.0
C1213 C 0.83582 0.58772 0.50584 0.0
C1214 C 0.83852 0.5536 0.53649 0.0
C1215 C 0.82317 0.55076 0.55629 0.0
C1216 C 0.83185 0.54285 0.57889 0.0
C1217 C 0.85689 0.53776 0.58122 0.0
C1218 C 0.87284 0.54111 0.56117 0.0
C1219 C 0.86334 0.54895 0.53858 0.0
H1220 H 0.19938 0.11835 0.23349 0.0
H1221 H 0.14874 0.11387 0.2943 0.0
H1222 H 0.15809 0.15654 0.30505 0.0
H1223 H 0.24468 0.15678 0.26427 0.0
H1224 H 0.25175 0.17433 0.23734 0.0
H1225 H 0.24161 0.14309 0.23449 0.0
H1226 H 0.20656 0.1567 0.20597 0.0
H1227 H 0.21653 0.18797 0.20877 0.0
H1228 H 0.18553 0.17964 0.21628 0.0
H1229 H 0.17062 0.20001 0.30795 0.0
H1230 H 0.18668 0.24202 0.30324 0.0
H1231 H 0.23096 0.2185 0.24212 0.0
C1232 C 0.19035 0.12637 0.24909 0.0
C1233 C 0.1733 0.1128 0.26304 0.0
C1234 C 0.16187 0.1239 0.28335 0.0
C1235 C 0.16707 0.14813 0.28965 0.0
C1236 C 0.18393 0.16102 0.2756 0.0
C1237 C 0.19551 0.1506 0.25581 0.0
C1238 C 0.21262 0.16881 0.24365 0.0
C1239 C 0.23924 0.16023 0.24503 0.0
C1240 C 0.20483 0.17356 0.2171 0.0
C1241 C 0.20857 0.19106 0.25958 0.0
C1242 C 0.19188 0.18612 0.27784 0.0
C1243 C 0.18398 0.20407 0.29395 0.0
C1244 C 0.19316 0.22784 0.29114 0.0
C1245 C 0.21029 0.23333 0.2726 0.0
C1246 C 0.21833 0.21461 0.25685 0.0
H1247 H 0.35195 0.89535 0.55002 0.0
H1248 H 0.30754 0.95604 0.57362 0.0
H1249 H 0.33757 0.98496 0.55579 0.0
H1250 H 0.41304 0.9255 0.55601 0.0
H1251 H 0.42384 0.91104 0.52858 0.0
H1252 H 0.40156 0.89576 0.54744 0.0
H1253 H 0.37305 0.89146 0.5099 0.0
H1254 H 0.39489 0.90731 0.49105 0.0
H1255 H 0.36408 0.91841 0.49343 0.0
H1256 H 0.37054 0.00683 0.53196 0.0
H1257 H 0.40527 0.02007 0.50611 0.0
H1258 H 0.42508 0.94436 0.49505 0.0
C1259 C 0.34914 0.91475 0.55244 0.0
C1260 C 0.3278 0.92359 0.56361 0.0
C1261 C 0.3241 0.94904 0.56549 0.0
C1262 C 0.34093 0.96553 0.55529 0.0
C1263 C 0.36111 0.95615 0.54308 0.0
C1264 C 0.36539 0.93135 0.54184 0.0
C1265 C 0.38692 0.92575 0.5256 0.0
C1266 C 0.40756 0.91381 0.5403 0.0
C1267 C 0.37926 0.9098 0.50371 0.0
C1268 C 0.39387 0.95124 0.51759 0.0
C1269 C 0.379 0.96857 0.52806 0.0
C1270 C 0.38231 0.99342 0.52365 0.0
C1271 C 0.40189 0.00075 0.5088 0.0
C1272 C 0.41755 0.98322 0.49826 0.0
C1273 C 0.41306 0.95817 0.50234 0.0
H1274 H 0.87832 0.55181 0.22021 0.0
H1275 H 0.82504 0.51456 0.26564 0.0
H1276 H 0.79423 0.54544 0.25468 0.0
H1277 H 0.86499 0.60822 0.23947 0.0
H1278 H 0.86979 0.6236 0.21078 0.0
H1279 H 0.88529 0.59558 0.21695 0.0
H1280 H 0.86711 0.57661 0.1775 0.0
H1281 H 0.85143 0.60471 0.1712 0.0
H1282 H 0.8345 0.5764 0.1729 0.0
H1283 H 0.7717 0.5834 0.24423 0.0
H1284 H 0.76083 0.62665 0.23894 0.0
H1285 H 0.82961 0.63983 0.2018 0.0
C1286 C 0.85991 0.54969 0.22717 0.0
C1287 C 0.85389 0.53078 0.24355 0.0
C1288 C 0.82989 0.52892 0.25292 0.0
C1289 C 0.81226 0.54624 0.24662 0.0
C1290 C 0.81899 0.56517 0.23094 0.0
C1291 C 0.84231 0.56698 0.22136 0.0
C1292 C 0.84631 0.59098 0.20834 0.0
C1293 C 0.86784 0.60543 0.21958 0.0
C1294 C 0.85005 0.58692 0.18085 0.0
C1295 C 0.82213 0.60306 0.21335 0.0
C1296 C 0.80627 0.58759 0.22561 0.0
C1297 C 0.78374 0.59552 0.2342 0.0
C1298 C 0.7777 0.62012 0.23107 0.0
C1299 C 0.79443 0.63654 0.21997 0.0
C1300 C 0.81642 0.62762 0.21018 0.0
H1301 H 0.67838 0.44712 0.7181 0.0
H1302 H 0.72625 0.47522 0.77465 0.0
H1303 H 0.75882 0.44751 0.76091 0.0
H1304 H 0.69118 0.38826 0.7282 0.0
H1305 H 0.68926 0.37817 0.69693 0.0
H1306 H 0.67294 0.40472 0.70641 0.0
H1307 H 0.69463 0.42979 0.67247 0.0
H1308 H 0.71145 0.40316 0.66329 0.0
H1309 H 0.72753 0.43087 0.67135 0.0
H1310 H 0.78255 0.41257 0.74714 0.0
H1311 H 0.79243 0.36945 0.73981 0.0
H1312 H 0.72941 0.36211 0.69277 0.0
C1313 C 0.69606 0.44793 0.72696 0.0
C1314 C 0.70008 0.46337 0.74717 0.0
C1315 C 0.72299 0.4635 0.75904 0.0
C1316 C 0.74165 0.44808 0.75113 0.0
C1317 C 0.73703 0.43256 0.73143 0.0
C1318 C 0.71466 0.43219 0.71964 0.0
C1319 C 0.71252 0.41059 0.70249 0.0
C1320 C 0.69018 0.39449 0.70892 0.0
C1321 C 0.71148 0.41912 0.67582 0.0
C1322 C 0.7364 0.39785 0.70783 0.0
C1323 C 0.75076 0.41148 0.72371 0.0
C1324 C 0.7719 0.40206 0.73415 0.0
C1325 C 0.77754 0.37761 0.72973 0.0
C1326 C 0.76203 0.36291 0.71517 0.0
C1327 C 0.7421 0.37346 0.70297 0.0
H1328 H 0.97909 0.83096 0.91175 0.0
H1329 H 0.05226 0.8048 0.92634 0.0
H1330 H 0.05944 0.8396 0.95426 0.0
H1331 H 0.99449 0.89414 0.91066 0.0
H1332 H 0.96644 0.90349 0.92495 0.0
H1333 H 0.96708 0.87602 0.90697 0.0
H1334 H 0.95017 0.85149 0.94383 0.0
H1335 H 0.94975 0.87888 0.962 0.0
H1336 H 0.9662 0.85257 0.97256 0.0
H1337 H 0.05863 0.87772 0.98014 0.0
H1338 H 0.05098 0.91782 -0.00068 0.0
H1339 H 0.9784 0.91826 0.96728 0.0
C1340 C 0.99663 0.83255 0.92081 0.0
C1341 C 0.01513 0.81528 0.91695 0.0
C1342 C 0.03787 0.81795 0.92905 0.0
C1343 C 0.04206 0.83753 0.94503 0.0
C1344 C 0.02331 0.85415 0.94863 0.0
C1345 C 0.00111 0.85193 0.93672 0.0
C1346 C 0.98429 0.87268 0.94295 0.0
C1347 C 0.97771 0.88746 0.92002 0.0
C1348 C 0.96124 0.86334 0.95612 0.0
C1349 C 0.0006 0.88713 0.95997 0.0
C1350 C 0.02292 0.87607 0.96329 0.0
C1351 C 0.04117 0.88652 0.97777 0.0
C1352 C 0.03664 0.90922 0.98866 0.0
C1353 C 0.01414 0.92116 0.98473 0.0
C1354 C 0.99581 0.90963 0.97062 0.0
H1355 H 0.91661 0.24494 0.61637 0.0
H1356 H 0.95049 0.19099 0.66302 0.0
H1357 H 0.91434 0.19121 0.68979 0.0
H1358 H 0.89524 0.2805 0.66068 0.0
H1359 H 0.86649 0.28852 0.64694 0.0
H1360 H 0.89181 0.28014 0.62796 0.0
H1361 H 0.86602 0.24583 0.60765 0.0
H1362 H 0.84024 0.25455 0.62603 0.0
H1363 H 0.85073 0.22349 0.62648 0.0
H1364 H 0.87895 0.20331 0.71554 0.0
H1365 H 0.84379 0.22245 0.73584 0.0
H1366 H 0.83306 0.26878 0.67249 0.0
C1367 C 0.91592 0.23233 0.63156 0.0
C1368 C 0.93627 0.21789 0.6376 0.0
C1369 C 0.935 0.20207 0.65798 0.0
C1370 C 0.91457 0.20213 0.67334 0.0
C1371 C 0.89549 0.21785 0.66782 0.0
C1372 C 0.89567 0.23221 0.64708 0.0
C1373 C 0.87409 0.2493 0.64664 0.0
C1374 C 0.88242 0.27619 0.6455 0.0
C1375 C 0.85674 0.2429 0.62545 0.0
C1376 C 0.86258 0.24326 0.67099 0.0
C1377 C 0.87499 0.22487 0.68279 0.0
C1378 C 0.86873 0.21735 0.70625 0.0
C1379 C 0.8489 0.22854 0.71774 0.0
C1380 C 0.83563 0.24715 0.70578 0.0
C1381 C 0.84272 0.25456 0.68212 0.0
H1382 H 0.51397 0.19378 0.39191 0.0
H1383 H 0.44945 0.22095 0.42855 0.0
H1384 H 0.44439 0.18131 0.44954 0.0
H1385 H 0.49092 0.13266 0.38211 0.0
H1386 H 0.52018 0.11866 0.38709 0.0
H1387 H 0.51865 0.14922 0.37515 0.0
H1388 H 0.54625 0.16466 0.4105 0.0
H1389 H 0.54776 0.13417 0.42261 0.0
H1390 H 0.5373 0.1588 0.44161 0.0
H1391 H 0.44731 0.13909 0.46756 0.0
H1392 H 0.45633 0.09647 0.47904 0.0
H1393 H 0.51806 0.09688 0.42934 0.0
C1394 C 0.49875 0.19135 0.40431 0.0
C1395 C 0.48213 0.21037 0.40869 0.0
C1396 C 0.46236 0.20653 0.42493 0.0
C1397 C 0.45938 0.18414 0.43697 0.0
C1398 C 0.47621 0.16579 0.43239 0.0
C1399 C 0.49537 0.16908 0.41627 0.0
C1400 C 0.51069 0.14636 0.41423 0.0
C1401 C 0.51006 0.13612 0.38809 0.0
C1402 C 0.53706 0.1513 0.42275 0.0
C1403 C 0.49722 0.12979 0.4318 0.0
C1404 C 0.4775 0.14136 0.44224 0.0
C1405 C 0.46262 0.12979 0.4594 0.0
C1406 C 0.46794 0.10564 0.46587 0.0
C1407 C 0.48781 0.09333 0.455 0.0
C1408 C 0.50261 0.10571 0.43783 0.0
H1409 H 0.58972 0.72919 0.1679 0.0
H1410 H 0.60323 0.78965 0.11843 0.0
H1411 H 0.64735 0.78761 0.12763 0.0
H1412 H 0.63296 0.74723 0.21317 0.0
H1413 H 0.64206 0.71652 0.22029 0.0
H1414 H 0.61175 0.72221 0.20903 0.0
H1415 H 0.61875 0.69136 0.17389 0.0
H1416 H 0.64919 0.68573 0.18495 0.0
H1417 H 0.64458 0.69544 0.15388 0.0
H1418 H 0.68946 0.77977 0.14291 0.0
H1419 H 0.72687 0.76807 0.16477 0.0
H1420 H 0.68596 0.71251 0.2043 0.0
C1421 C 0.60197 0.74197 0.15897 0.0
C1422 C 0.59315 0.75958 0.14246 0.0
C1423 C 0.60968 0.77604 0.13117 0.0
C1424 C 0.63474 0.77494 0.13618 0.0
C1425 C 0.64287 0.75726 0.15246 0.0
C1426 C 0.627 0.74113 0.16376 0.0
C1427 C 0.64036 0.72442 0.18114 0.0
C1428 C 0.63124 0.72781 0.20746 0.0
C1429 C 0.63808 0.69765 0.17296 0.0
C1430 C 0.6662 0.73391 0.17808 0.0
C1431 C 0.66724 0.75272 0.1613 0.0
C1432 C 0.68893 0.76499 0.15599 0.0
C1433 C 0.71007 0.75819 0.16853 0.0
C1434 C 0.70935 0.73934 0.18624 0.0
C1435 C 0.68716 0.72679 0.19069 0.0
H1436 H 0.00897 0.20913 0.53342 0.0
H1437 H 0.07665 0.22025 0.57286 0.0
H1438 H 0.0973 0.19147 0.54539 0.0
H1439 H 0.00927 0.15191 0.5305 0.0
H1440 H -0.00243 0.14704 0.50009 0.0
H1441 H 0.99103 0.17482 0.51566 0.0
H1442 H 0.00972 0.19965 0.47996 0.0
H1443 H 0.01638 0.17162 0.46412 0.0
H1444 H 0.04041 0.19356 0.46993 0.0
H1445 H 0.10588 0.15253 0.52521 0.0
H1446 H 0.10113 0.10906 0.51434 0.0
H1447 H 0.0294 0.12371 0.48491 0.0
C1448 C 0.02843 0.20634 0.53536 0.0
C1449 C 0.04122 0.21664 0.55516 0.0
C1450 C 0.06657 0.21259 0.55762 0.0
C1451 C 0.07849 0.19634 0.54198 0.0
C1452 C 0.06494 0.1849 0.5236 0.0
C1453 C 0.04054 0.19033 0.51973 0.0
C1454 C 0.0288 0.17258 0.50205 0.0
C1455 C 0.00535 0.1609 0.51275 0.0
C1456 C 0.02353 0.1851 0.47756 0.0
C1457 C 0.04923 0.15436 0.49945 0.0
C1458 C 0.07036 0.16228 0.51103 0.0
C1459 C 0.08986 0.1465 0.51523 0.0
C1460 C 0.08707 0.12178 0.50899 0.0
C1461 C 0.06482 0.11322 0.49895 0.0
C1462 C 0.04662 0.13003 0.49244 0.0
H1463 H 0.55544 0.24691 0.32535 0.0
H1464 H 0.5446 0.32506 0.32086 0.0
H1465 H 0.58112 0.32884 0.29448 0.0
H1466 H 0.61738 0.24984 0.33303 0.0
H1467 H 0.62414 0.22275 0.31574 0.0
H1468 H 0.59492 0.22574 0.33023 0.0
H1469 H 0.57326 0.21877 0.28867 0.0
H1470 H 0.60253 0.21571 0.274 0.0
H1471 H 0.58105 0.2379 0.26303 0.0
H1472 H 0.62154 0.32442 0.2724 0.0
H1473 H 0.66306 0.3125 0.25909 0.0
H1474 H 0.64722 0.23764 0.2797 0.0
C1475 C 0.56033 0.26473 0.31826 0.0
C1476 C 0.54714 0.28566 0.32491 0.0
C1477 C 0.55444 0.30876 0.31579 0.0
C1478 C 0.57506 0.31106 0.30073 0.0
C1479 C 0.58807 0.29007 0.29497 0.0
C1480 C 0.58092 0.26734 0.30348 0.0
C1481 C 0.59939 0.24803 0.29723 0.0
C1482 C 0.60955 0.2359 0.32043 0.0
C1483 C 0.58839 0.22898 0.27968 0.0
C1484 C 0.61852 0.26354 0.28467 0.0
C1485 C 0.61152 0.28765 0.28298 0.0
C1486 C 0.62706 0.30553 0.27332 0.0
C1487 C 0.65055 0.29863 0.26578 0.0
C1488 C 0.65827 0.2742 0.26846 0.0
C1489 C 0.64177 0.25646 0.27744 0.0
H1490 H 0.50173 0.84529 0.11294 0.0
H1491 H 0.47339 0.79592 0.05767 0.0
H1492 H 0.45721 0.83095 0.03468 0.0
H1493 H 0.4514 0.89238 0.10752 0.0
H1494 H 0.47301 0.91695 0.11221 0.0
H1495 H 0.47764 0.88789 0.12685 0.0
H1496 H 0.52078 0.88523 0.10754 0.0
H1497 H 0.51633 0.91422 0.09315 0.0
H1498 H 0.52396 0.88798 0.07491 0.0
H1499 H 0.45215 0.87056 0.01397 0.0
H1500 H 0.45914 0.91171 -0.00301 0.0
H1501 H 0.48856 0.93568 0.06655 0.0
C1502 C 0.49157 0.84186 0.09631 0.0
C1503 C 0.48883 0.81804 0.08698 0.0
C1504 C 0.47564 0.81412 0.0651 0.0
C1505 C 0.46621 0.83386 0.05204 0.0
C1506 C 0.46974 0.85727 0.06142 0.0
C1507 C 0.48189 0.86133 0.08321 0.0
C1508 C 0.48597 0.88825 0.0878 0.0
C1509 C 0.47111 0.89687 0.10991 0.0
C1510 C 0.51337 0.89425 0.09101 0.0
C1511 C 0.47591 0.89859 0.06432 0.0
C1512 C 0.46607 0.88049 0.04959 0.0
C1513 C 0.45906 0.88504 0.02558 0.0
C1514 C 0.46316 0.90841 0.01606 0.0
C1515 C 0.47415 0.92682 0.03059 0.0
C1516 C 0.47948 0.92212 0.05529 0.0
H1517 H 0.93866 0.72573 0.81837 0.0
H1518 H 0.96834 0.79876 0.80875 0.0
H1519 H 0.93748 0.80686 0.7771 0.0
H1520 H 0.9193 0.71592 0.75264 0.0
H1521 H 0.89195 0.69991 0.76193 0.0
H1522 H 0.91926 0.69801 0.78023 0.0
H1523 H 0.89517 0.71309 0.81794 0.0
H1524 H 0.86791 0.71506 0.79982 0.0
H1525 H 0.87891 0.74151 0.81618 0.0
H1526 H 0.89976 0.8099 0.75299 0.0
H1527 H 0.85757 0.8074 0.73727 0.0
H1528 H 0.85233 0.73208 0.76081 0.0
C1529 C 0.93911 0.74313 0.80902 0.0
C1530 C 0.95589 0.7616 0.81588 0.0
C1531 C 0.95565 0.78435 0.80369 0.0
C1532 C 0.93829 0.78906 0.78559 0.0
C1533 C 0.92149 0.77075 0.77973 0.0
C1534 C 0.92185 0.74814 0.7909 0.0
C1535 C 0.90001 0.73271 0.78334 0.0
C1536 C 0.90812 0.71031 0.76866 0.0
C1537 C 0.8846 0.72517 0.80564 0.0
C1538 C 0.88663 0.75069 0.76729 0.0
C1539 C 0.8996 0.77237 0.76514 0.0
C1540 C 0.88974 0.79281 0.75388 0.0
C1541 C 0.86578 0.79127 0.7451 0.0
C1542 C 0.85209 0.76942 0.7475 0.0
C1543 C 0.86285 0.74868 0.75807 0.0
H1544 H 0.91386 0.00432 0.82137 0.0
H1545 H 0.93936 0.07577 0.7981 0.0
H1546 H 0.96755 0.07747 0.83335 0.0
H1547 H 0.91226 0.0178 0.88367 0.0
H1548 H 0.92197 0.98806 0.89357 0.0
H1549 H 0.90605 0.99132 0.86506 0.0
H1550 H 0.94178 0.97026 0.84252 0.0
H1551 H 0.95785 0.96699 0.87103 0.0
H1552 H 0.97237 0.98231 0.84575 0.0
H1553 H 0.99082 0.07254 0.87275 0.0
H1554 H 0.00552 0.06233 0.91416 0.0
H1555 H 0.96403 0.99447 0.91154 0.0
C1556 C 0.92569 0.02013 0.82346 0.0
C1557 C 0.92459 0.03984 0.80699 0.0
C1558 C 0.94001 0.06043 0.81054 0.0
C1559 C 0.95614 0.06152 0.83041 0.0
C1560 C 0.9566 0.04186 0.84652 0.0
C1561 C 0.94173 0.02158 0.84327 0.0
C1562 C 0.94424 0.0038 0.86418 0.0
C1563 C 0.91968 4e-05 0.87739 0.0
C1564 C 0.95469 0.9794 0.85533 0.0
C1565 C 0.96242 0.01749 0.87997 0.0
C1566 C 0.96964 0.03923 0.86935 0.0
C1567 C 0.98549 0.05544 0.88115 0.0
C1568 C 0.99378 0.04947 0.90464 0.0
C1569 C 0.98593 0.02762 0.91611 0.0
C1570 C 0.97045 0.01129 0.90329 0.0
H1571 H 0.77852 0.17997 0.5643 0.0
H1572 H 0.71223 0.13606 0.56754 0.0
H1573 H 0.69718 0.16161 0.60144 0.0
H1574 H 0.7851 0.18948 0.62887 0.0
H1575 H 0.79624 0.22034 0.62551 0.0
H1576 H 0.80149 0.19837 0.60173 0.0
H1577 H 0.78091 0.22732 0.57062 0.0
H1578 H 0.77516 0.24915 0.59448 0.0
H1579 H 0.75023 0.23766 0.57615 0.0
H1580 H 0.68985 0.19135 0.63547 0.0
H1581 H 0.69206 0.2214 0.66906 0.0
H1582 H 0.76235 0.2468 0.64212 0.0
C1583 C 0.76093 0.17559 0.5723 0.0
C1584 C 0.74656 0.156 0.56343 0.0
C1585 C 0.72356 0.15095 0.57418 0.0
C1586 C 0.7148 0.16543 0.59331 0.0
C1587 C 0.72921 0.18495 0.60128 0.0
C1588 C 0.75185 0.18995 0.59123 0.0
C1589 C 0.7639 0.21177 0.60334 0.0
C1590 C 0.7881 0.20455 0.6156 0.0
C1591 C 0.76776 0.23271 0.58505 0.0
C1592 C 0.7446 0.21807 0.62199 0.0
C1593 C 0.72468 0.20248 0.62044 0.0
C1594 C 0.70522 0.20384 0.63673 0.0
C1595 C 0.70659 0.22101 0.65567 0.0
C1596 C 0.72721 0.23662 0.65803 0.0
C1597 C 0.74606 0.23555 0.64048 0.0
H1598 H 0.57153 0.00455 0.28977 0.0
H1599 H 0.57598 0.9257 0.28641 0.0
H1600 H 0.54113 0.92233 0.31491 0.0
H1601 H 0.56514 0.00855 0.34962 0.0
H1602 H 0.54444 0.03395 0.35012 0.0
H1603 H 0.56451 0.02998 0.32468 0.0
H1604 H 0.52735 0.02982 0.29528 0.0
H1605 H 0.50706 0.0337 0.32086 0.0
H1606 H 0.50258 0.00849 0.30014 0.0
H1607 H 0.51241 0.92762 0.34992 0.0
H1608 H 0.49526 0.94089 0.38935 0.0
H1609 H 0.50955 0.01628 0.36986 0.0
C1610 C 0.56458 0.98656 0.29432 0.0
C1611 C 0.57632 0.9654 0.28587 0.0
C1612 C 0.56709 0.94217 0.29259 0.0
C1613 C 0.5472 0.94009 0.30864 0.0
C1614 C 0.53661 0.96142 0.3175 0.0
C1615 C 0.54491 0.98424 0.31036 0.0
C1616 C 0.53343 0.00428 0.32532 0.0
C1617 C 0.55305 0.02008 0.3382 0.0
C1618 C 0.5166 0.02 0.30945 0.0
C1619 C 0.51884 0.98914 0.34326 0.0
C1620 C 0.52013 0.96449 0.33798 0.0
C1621 C 0.5107 0.94688 0.35386 0.0
C1622 C 0.50089 0.95458 0.37622 0.0
C1623 C 0.50109 0.97961 0.38257 0.0
C1624 C 0.50894 -0.00295 0.3653 0.0
H1625 H 0.79817 0.83915 0.08644 0.0
H1626 H 0.8047 0.77949 0.03513 0.0
H1627 H 0.82614 0.75507 0.06655 0.0
H1628 H 0.85868 0.82796 0.11872 0.0
H1629 H 0.84564 0.8369 0.14752 0.0
H1630 H 0.83532 0.85093 0.11964 0.0
H1631 H 0.79057 0.83843 0.12964 0.0
H1632 H 0.80074 0.82495 0.15756 0.0
H1633 H 0.78354 0.80685 0.13597 0.0
H1634 H 0.83791 0.73472 0.10586 0.0
H1635 H 0.8373 0.72056 0.14866 0.0
H1636 H 0.82771 0.795 0.17305 0.0
C1637 C 0.80458 0.8211 0.08176 0.0
C1638 C 0.79967 0.81092 0.05872 0.0
C1639 C 0.80837 0.78743 0.05288 0.0
C1640 C 0.82072 0.77359 0.0705 0.0
C1641 C 0.82493 0.784 0.0934 0.0
C1642 C 0.81745 0.80745 0.09883 0.0
C1643 C 0.8217 0.81369 0.1253 0.0
C1644 C 0.84152 0.83354 0.12794 0.0
C1645 C 0.79772 0.82139 0.13783 0.0
C1646 C 0.83068 0.7894 0.1345 0.0
C1647 C 0.83308 0.77259 0.1158 0.0
C1648 C 0.83696 0.74787 0.12057 0.0
C1649 C 0.83676 0.73996 0.14495 0.0
C1650 C 0.83248 0.75678 0.164 0.0
C1651 C 0.83132 0.78189 0.15873 0.0
H1652 H 0.93346 0.01397 0.68993 0.0
H1653 H 0.91757 0.09137 0.69249 0.0
H1654 H 0.94559 0.0984 0.65779 0.0
H1655 H -0.00196 0.01985 0.67257 0.0
H1656 H 0.99663 0.99365 0.65271 0.0
H1657 H 0.97715 0.99511 0.67915 0.0
H1658 H 0.93908 0.98849 0.65166 0.0
H1659 H 0.95841 0.98696 0.6252 0.0
H1660 H 0.93397 0.00876 0.6263 0.0
H1661 H 0.97288 0.09646 0.6212 0.0
H1662 H 0.99645 0.08571 0.58451 0.0
H1663 H 0.9943 0.00941 0.60593 0.0
C1664 C 0.93614 0.03245 0.68342 0.0
C1665 C 0.92346 0.05216 0.69389 0.0
C1666 C 0.92718 0.07604 0.68471 0.0
C1667 C 0.94311 0.08021 0.6651 0.0
C1668 C 0.95518 0.06031 0.65503 0.0
C1669 C 0.95188 0.0369 0.66388 0.0
C1670 C 0.96575 0.01847 0.64886 0.0
C1671 C 0.98557 0.00604 0.66424 0.0
C1672 C 0.94825 -0.00043 0.63732 0.0
C1673 C 0.9769 0.03508 0.62979 0.0
C1674 C 0.97082 0.05917 0.63385 0.0
C1675 C 0.97797 0.0777 0.61797 0.0
C1676 C 0.99134 0.07138 0.59715 0.0
C1677 C -0.00272 0.0467 0.59235 0.0
C1678 C 0.99029 0.02845 0.60919 0.0
H1679 H 0.73149 0.18624 0.44751 0.0
H1680 H 0.80925 0.1922 0.46153 0.0
H1681 H 0.81285 0.22361 0.42947 0.0
H1682 H 0.73543 0.18477 0.38771 0.0
H1683 H 0.70844 0.20202 0.38064 0.0
H1684 H 0.71044 0.18608 0.40908 0.0
H1685 H 0.70259 0.22631 0.4326 0.0
H1686 H 0.70043 0.24246 0.40403 0.0
H1687 H 0.72178 0.25261 0.42703 0.0
H1688 H 0.80987 0.24629 0.39067 0.0
H1689 H 0.80087 0.25736 0.34807 0.0
H1690 H 0.72497 0.23655 0.3589 0.0
C1691 C 0.74907 0.19492 0.4445 0.0
C1692 C 0.77006 0.18696 0.45695 0.0
C1693 C 0.79292 0.1982 0.45221 0.0
C1694 C 0.79509 0.21617 0.43416 0.0
C1695 C 0.7742 0.22281 0.42128 0.0
C1696 C 0.75153 0.21269 0.42644 0.0
C1697 C 0.73279 0.21958 0.40743 0.0
C1698 C 0.72113 0.19676 0.39552 0.0
C1699 C 0.71325 0.23624 0.41844 0.0
C1700 C 0.74888 0.23344 0.38974 0.0
C1701 C 0.77251 0.23585 0.39842 0.0
C1702 C 0.79131 0.24514 0.38393 0.0
C1703 C 0.78603 0.25127 0.3597 0.0
C1704 C 0.76221 0.24772 0.35015 0.0
C1705 C 0.74329 0.23972 0.36574 0.0
H1706 H 0.58561 0.98064 0.18388 0.0
H1707 H 0.66178 0.99411 0.16619 0.0
H1708 H 0.6498 0.00697 0.12462 0.0
H1709 H 0.56824 0.95611 0.12579 0.0
H1710 H 0.53845 0.96984 0.12619 0.0
H1711 H 0.55329 0.96214 0.15443 0.0
H1712 H 0.54874 0.00687 0.16911 0.0
H1713 H 0.53417 0.01478 0.14075 0.0
H1714 H 0.56096 0.03135 0.15073 0.0
H1715 H 0.62926 0.018 0.08483 0.0
H1716 H 0.6022 0.02358 0.04921 0.0
H1717 H 0.53965 0.00317 0.0937 0.0
C1718 C 0.59979 0.98622 0.17125 0.0
C1719 C 0.62461 0.98637 0.17818 0.0
C1720 C 0.64264 0.9938 0.16116 0.0
C1721 C 0.63601 0.00125 0.13759 0.0
C1722 C 0.6113 0.00118 0.13143 0.0
C1723 C 0.59351 0.99369 0.14773 0.0
C1724 C 0.56831 0.99472 0.1365 0.0
C1725 C 0.55638 0.96919 0.13567 0.0
C1726 C 0.5521 0.01302 0.15009 0.0
C1727 C 0.5747 0.00376 0.11123 0.0
C1728 C 0.59954 0.00756 0.10867 0.0
C1729 C 0.60976 0.0152 0.08665 0.0
C1730 C 0.59421 0.01842 0.06655 0.0
C1731 C 0.56876 0.01389 0.06863 0.0
C1732 C 0.55897 0.00698 0.09147 0.0
H1733 H 0.78277 0.84055 0.92513 0.0
H1734 H 0.72508 0.79563 0.95635 0.0
H1735 H 0.71674 0.77779 0.91571 0.0
H1736 H 0.75257 0.85424 0.86996 0.0
H1737 H 0.77974 0.85303 0.85148 0.0
H1738 H 0.78196 0.86123 0.88321 0.0
H1739 H 0.81287 0.82635 0.89039 0.0
H1740 H 0.81088 0.81815 0.85862 0.0
H1741 H 0.8047 0.79559 0.88177 0.0
H1742 H 0.71346 0.76652 0.87115 0.0
H1743 H 0.71669 0.76146 0.82642 0.0
H1744 H 0.77676 0.81379 0.82527 0.0
C1745 C 0.76855 0.82677 0.92347 0.0
C1746 C 0.75458 0.81941 0.94379 0.0
C1747 C 0.73605 0.80143 0.94094 0.0
C1748 C 0.73116 0.79123 0.91797 0.0
C1749 C 0.74506 0.79918 0.89819 0.0
C1750 C 0.76349 0.8164 0.90078 0.0
C1751 C 0.77546 0.82224 0.87665 0.0
C1752 C 0.77223 0.84929 0.86994 0.0
C1753 C 0.80258 0.81515 0.87688 0.0
C1754 C 0.76072 0.80578 0.86002 0.0
C1755 C 0.74328 0.79261 0.87272 0.0
C1756 C 0.72716 0.77662 0.86101 0.0
C1757 C 0.72908 0.77393 0.83563 0.0
C1758 C 0.74701 0.78717 0.82237 0.0
C1759 C 0.76294 0.80328 0.83485 0.0
H1760 H 0.82301 0.91469 0.98323 0.0
H1761 H 0.79925 0.91991 0.05851 0.0
H1762 H 0.83051 0.95185 0.06611 0.0
H1763 H 0.88429 0.918 0.99473 0.0
H1764 H 0.89215 0.93571 0.96813 0.0
H1765 H 0.86546 0.91642 0.96775 0.0
H1766 H 0.83869 0.9535 0.95619 0.0
H1767 H 0.86541 0.97296 0.9565 0.0
H1768 H 0.83938 0.98044 0.97508 0.0
H1769 H 0.86796 0.97903 0.06669 0.0
H1770 H 0.90837 -0.00144 0.06019 0.0
H1771 H 0.90652 0.97551 0.98439 0.0
C1772 C 0.824 0.92297 0.00115 0.0
C1773 C 0.80876 0.91495 0.02026 0.0
C1774 C 0.81075 0.92594 0.04358 0.0
C1775 C 0.82836 0.94414 0.04804 0.0
C1776 C 0.84356 0.95126 0.0289 0.0
C1777 C 0.84137 0.94112 0.00586 0.0
C1778 C 0.86127 0.95011 0.989 0.0
C1779 C 0.8767 0.9288 0.97936 0.0
C1780 C 0.85054 0.96515 0.96795 0.0
C1781 C 0.87563 0.96606 0.00641 0.0
C1782 C 0.865 0.96689 0.02924 0.0
C1783 C 0.87622 0.97891 0.04877 0.0
C1784 C 0.89916 0.98992 0.04492 0.0
C1785 C 0.9106 0.98853 0.02181 0.0
C1786 C 0.89826 0.977 0.00227 0.0
H1787 H 0.34222 0.57473 0.06975 0.0
H1788 H 0.31056 0.56119 -0.00161 0.0
H1789 H 0.34233 0.53054 0.99007 0.0
H1790 H 0.40205 0.57366 0.0517 0.0
H1791 H 0.41362 0.55891 0.07867 0.0
H1792 H 0.38628 0.57669 0.0804 0.0
H1793 H 0.36272 0.53943 0.09806 0.0
H1794 H 0.39011 0.52149 0.09642 0.0
H1795 H 0.36256 0.51093 0.08161 0.0
H1796 H 0.38092 0.50569 0.98746 0.0
H1797 H 0.42266 0.489 0.99106 0.0
H1798 H 0.42786 0.51843 0.06448 0.0
C1799 C 0.34161 0.56487 0.05263 0.0
C1800 C 0.32396 0.57024 0.03475 0.0
C1801 C 0.32391 0.55723 0.0124 0.0
C1802 C 0.34183 0.53975 0.00753 0.0
C1803 C 0.35942 0.53531 0.02534 0.0
C1804 C 0.35926 0.54736 0.04754 0.0
C1805 C 0.38132 0.541 0.06274 0.0
C1806 C 0.39672 0.56392 0.0687 0.0
C1807 C 0.37371 0.5274 0.08609 0.0
C1808 C 0.39442 0.5243 0.04525 0.0
C1809 C 0.38144 0.5209 0.02389 0.0
C1810 C 0.39105 0.50782 0.00431 0.0
C1811 C 0.41476 0.49841 0.00649 0.0
C1812 C 0.42854 0.50236 0.02803 0.0
C1813 C 0.41782 0.51491 0.04779 0.0
H1814 H 0.1864 0.54378 0.81403 0.0
H1815 H 0.1884 0.52215 0.73792 0.0
H1816 H 0.22326 0.5503 0.73104 0.0
H1817 H 0.19543 0.60475 0.80441 0.0
H1818 H 0.21397 0.61007 0.83112 0.0
H1819 H 0.19234 0.58526 0.83075 0.0
H1820 H 0.22704 0.55505 0.84117 0.0
H1821 H 0.24887 0.57988 0.84135 0.0
H1822 H 0.25371 0.55379 0.82196 0.0
H1823 H 0.25365 0.58491 0.73122 0.0
H1824 H 0.27488 0.62428 0.73788 0.0
H1825 H 0.2535 0.62242 0.81411 0.0
C1826 C 0.19454 0.54454 0.79604 0.0
C1827 C 0.1848 0.53078 0.77652 0.0
C1828 C 0.19568 0.53252 0.75316 0.0
C1829 C 0.21558 0.54832 0.74912 0.0
C1830 C 0.22451 0.562 0.7687 0.0
C1831 C 0.21436 0.56016 0.79174 0.0
C1832 C 0.22536 0.57871 0.80905 0.0
C1833 C 0.20561 0.5957 0.81941 0.0
C1834 C 0.2396 0.56609 0.8296 0.0
C1835 C 0.24242 0.59211 0.79189 0.0
C1836 C 0.24211 0.58191 0.76882 0.0
C1837 C 0.25445 0.59276 0.74933 0.0
C1838 C 0.26652 0.61513 0.7533 0.0
C1839 C 0.26589 0.62649 0.77653 0.0
C1840 C 0.2546 0.61415 0.7962 0.0
H1841 H 0.1172 0.38288 0.52887 0.0
H1842 H 0.16341 0.41604 0.58437 0.0
H1843 H 0.13306 0.44841 0.59039 0.0
H1844 H 0.09821 0.43715 0.50181 0.0
H1845 H 0.06721 0.42744 0.49594 0.0
H1846 H 0.0912 0.40523 0.49743 0.0
H1847 H 0.06795 0.3815 0.53133 0.0
H1848 H 0.04363 0.40331 0.52921 0.0
H1849 H 0.05802 0.39756 0.55822 0.0
H1850 H 0.10009 0.47906 0.58769 0.0
H1851 H 0.06361 0.50386 0.58012 0.0
H1852 H 0.03833 0.45074 0.52659 0.0
C1853 C 0.1206 0.3966 0.54272 0.0
C1854 C 0.14259 0.39698 0.5562 0.0
C1855 C 0.14663 0.41541 0.5739 0.0
C1856 C 0.12956 0.43391 0.5774 0.0
C1857 C 0.10852 0.43359 0.56315 0.0
C1858 C 0.10372 0.41522 0.54648 0.0
C1859 C 0.08003 0.41969 0.53299 0.0
C1860 C 0.08444 0.42255 0.50541 0.0
C1861 C 0.0613 0.3993 0.53828 0.0
C1862 C 0.0725 0.44361 0.54446 0.0
C1863 C 0.08926 0.45131 0.56173 0.0
C1864 C 0.08666 0.47313 0.5744 0.0
C1865 C 0.06594 0.48718 0.56981 0.0
C1866 C 0.04805 0.47926 0.55277 0.0
C1867 C 0.05165 0.45733 0.53971 0.0
H1868 H 0.83251 0.96226 0.76571 0.0
H1869 H 0.82884 0.98927 0.69142 0.0
H1870 H 0.80398 0.9532 0.67959 0.0
H1871 H 0.83962 0.90065 0.75126 0.0
H1872 H 0.82123 0.88956 0.77624 0.0
H1873 H 0.83693 0.91839 0.77883 0.0
H1874 H 0.79587 0.93955 0.7886 0.0
H1875 H 0.78001 0.91073 0.78585 0.0
H1876 H 0.77061 0.9364 0.76768 0.0
H1877 H 0.78207 0.91222 0.67551 0.0
H1878 H 0.76642 0.86981 0.6795 0.0
H1879 H 0.78388 0.87142 0.75678 0.0
C1880 C 0.82632 0.9607 0.74699 0.0
C1881 C 0.83258 0.97844 0.72946 0.0
C1882 C 0.82417 0.9758 0.70514 0.0
C1883 C 0.80998 0.95546 0.69828 0.0
C1884 C 0.80418 0.93818 0.71605 0.0
C1885 C 0.81204 0.94071 0.73992 0.0
C1886 C 0.80446 0.91917 0.75535 0.0
C1887 C 0.82689 0.90618 0.76603 0.0
C1888 C 0.78667 0.92694 0.77556 0.0
C1889 C 0.79174 0.90373 0.7363 0.0
C1890 C 0.79145 0.91499 0.71377 0.0
C1891 C 0.78191 0.90334 0.69314 0.0
C1892 C 0.773 0.87931 0.69557 0.0
C1893 C 0.77394 0.8673 0.71842 0.0
C1894 C 0.78283 0.88005 0.73904 0.0
H1895 H 0.70146 0.06292 0.5096 0.0
H1896 H 0.71244 0.08971 0.43591 0.0
H1897 H 0.67497 0.06822 0.4226 0.0
H1898 H 0.67327 0.00264 0.49255 0.0
H1899 H 0.652 0.0039 0.5176 0.0
H1900 H 0.68179 0.01789 0.52048 0.0
H1901 H 0.66161 0.059 0.53168 0.0
H1902 H 0.63183 0.04522 0.52869 0.0
H1903 H 0.63951 0.07204 0.51117 0.0
H1904 H 0.63417 0.04892 0.41847 0.0
H1905 H 0.5924 0.03273 0.4236 0.0
H1906 H 0.6074 0.01834 0.50005 0.0
C1907 C 0.69633 0.06364 0.49053 0.0
C1908 C 0.70985 0.07779 0.47371 0.0
C1909 C 0.70233 0.07886 0.44903 0.0
C1910 C 0.68116 0.06664 0.44129 0.0
C1911 C 0.66782 0.05338 0.45845 0.0
C1912 C 0.67513 0.05165 0.48253 0.0
C1913 C 0.6562 0.03832 0.49777 0.0
C1914 C 0.66643 0.01425 0.50768 0.0
C1915 C 0.64673 0.05463 0.51854 0.0
C1916 C 0.6367 0.0337 0.47867 0.0
C1917 C 0.64396 0.04221 0.45606 0.0
C1918 C 0.62841 0.04178 0.43596 0.0
C1919 C 0.60468 0.03268 0.43911 0.0
C1920 C 0.59669 0.02421 0.46221 0.0
C1921 C 0.61312 0.02432 0.4821 0.0
H1922 H 0.15679 0.41128 0.76017 0.0
H1923 H 0.16291 0.42629 0.8377 0.0
H1924 H 0.18548 0.38775 0.84332 0.0
H1925 H 0.14727 0.34685 0.76535 0.0
H1926 H 0.1648 0.33987 0.73846 0.0
H1927 H 0.14941 0.36867 0.74082 0.0
H1928 H 0.19044 0.39144 0.73322 0.0
H1929 H 0.20597 0.3627 0.73096 0.0
H1930 H 0.21625 0.3853 0.75265 0.0
H1931 H 0.20713 0.3471 0.8402 0.0
H1932 H 0.22522 0.30748 0.82873 0.0
H1933 H 0.20478 0.32022 0.75323 0.0
C1934 C 0.16285 0.40648 0.77835 0.0
C1935 C 0.15812 0.4217 0.79851 0.0
C1936 C 0.16635 0.41481 0.82201 0.0
C1937 C 0.17921 0.39301 0.82536 0.0
C1938 C 0.18366 0.37844 0.80503 0.0
C1939 C 0.17567 0.3849 0.782 0.0
C1940 C 0.18254 0.36606 0.76314 0.0
C1941 C 0.15964 0.35469 0.75126 0.0
C1942 C 0.19983 0.37704 0.74386 0.0
C1943 C 0.19557 0.34791 0.77915 0.0
C1944 C 0.19611 0.35531 0.80324 0.0
C1945 C 0.20687 0.34115 0.82137 0.0
C1946 C 0.21712 0.31871 0.81469 0.0
C1947 C 0.21647 0.31073 0.79009 0.0
C1948 C 0.20571 0.32575 0.77219 0.0
H1949 H 0.38375 0.62013 0.28156 0.0
H1950 H 0.32628 0.57462 0.31234 0.0
H1951 H 0.30295 0.6113 0.32306 0.0
H1952 H 0.37914 0.66934 0.3272 0.0
H1953 H 0.38503 0.69303 0.30512 0.0
H1954 H 0.398 0.6632 0.30099 0.0
H1955 H 0.37808 0.66018 0.25815 0.0
H1956 H 0.36516 0.68999 0.26213 0.0
H1957 H 0.34558 0.66431 0.2551 0.0
H1958 H 0.28389 0.65239 0.32659 0.0
H1959 H 0.27146 0.69565 0.32442 0.0
H1960 H 0.34224 0.71478 0.2941 0.0
C1961 C 0.36638 0.61796 0.29077 0.0
C1962 C 0.35682 0.59456 0.2961 0.0
C1963 C 0.33401 0.59239 0.30815 0.0
C1964 C 0.3206 0.61311 0.31435 0.0
C1965 C 0.3304 0.63591 0.30872 0.0
C1966 C 0.35287 0.63852 0.29743 0.0
C1967 C 0.35888 0.66515 0.29288 0.0
C1968 C 0.38161 0.67315 0.30742 0.0
C1969 C 0.3621 0.67019 0.26544 0.0
C1970 C 0.33601 0.67698 0.30276 0.0
C1971 C 0.31981 0.65979 0.31181 0.0
C1972 C 0.29661 0.66611 0.32004 0.0
C1973 C 0.28968 0.69066 0.31872 0.0
C1974 C 0.30605 0.70853 0.30955 0.0
C1975 C 0.32962 0.70158 0.30187 0.0
H1976 H 0.49461 0.6636 0.6031 0.0
H1977 H 0.45321 0.69995 0.54641 0.0
H1978 H 0.43109 0.66132 0.53771 0.0
H1979 H 0.50049 0.60573 0.57242 0.0
H1980 H 0.49754 0.58854 0.6003 0.0
H1981 H 0.5102 0.61893 0.60101 0.0
H1982 H 0.47757 0.63101 0.63309 0.0
H1983 H 0.46437 0.6008 0.63187 0.0
H1984 H 0.44563 0.62702 0.62596 0.0
H1985 H 0.41461 0.61826 0.53451 0.0
H1986 H 0.40703 0.57366 0.53542 0.0
H1987 H 0.4569 0.56704 0.5965 0.0
C1988 C 0.48114 0.66338 0.58861 0.0
C1989 C 0.47571 0.68465 0.57528 0.0
C1990 C 0.45773 0.68373 0.55671 0.0
C1991 C 0.44496 0.66197 0.55178 0.0
C1992 C 0.45026 0.64147 0.56579 0.0
C1993 C 0.46804 0.64198 0.58371 0.0
C1994 C 0.47044 0.6175 0.59609 0.0
C1995 C 0.49618 0.60706 0.59221 0.0
C1996 C 0.46412 0.6192 0.62337 0.0
C1997 C 0.45132 0.60303 0.58226 0.0
C1998 C 0.43988 0.61712 0.56482 0.0
C1999 C 0.42312 0.60713 0.54837 0.0
C2000 C 0.41877 0.58187 0.54913 0.0
C2001 C 0.4309 0.5671 0.56642 0.0
C2002 C 0.44666 0.57802 0.58371 0.0
H2003 H 0.56114 0.25283 0.81249 0.0
H2004 H 0.55884 0.32622 0.84203 0.0
H2005 H 0.59388 0.33798 0.81606 0.0
H2006 H 0.62238 0.24694 0.81463 0.0
H2007 H 0.62565 0.22958 0.78689 0.0
H2008 H 0.59739 0.2284 0.80346 0.0
H2009 H 0.57386 0.24214 0.76483 0.0
H2010 H 0.60215 0.24323 0.74802 0.0
H2011 H 0.58297 0.26977 0.74936 0.0
H2012 H 0.63282 0.33968 0.79267 0.0
H2013 H 0.67276 0.33128 0.77391 0.0
H2014 H 0.64971 0.25659 0.75977 0.0
C2015 C 0.5675 0.27159 0.81291 0.0
C2016 C 0.55728 0.28868 0.82911 0.0
C2017 C 0.56638 0.31291 0.82958 0.0
C2018 C 0.58618 0.31977 0.81483 0.0
C2019 C 0.59643 0.30221 0.79963 0.0
C2020 C 0.58726 0.27865 0.79841 0.0
C2021 C 0.6033 0.26242 0.78303 0.0
C2022 C 0.61274 0.24057 0.7979 0.0
C2023 C 0.58976 0.25389 0.75994 0.0
C2024 C 0.62365 0.28016 0.77687 0.0
C2025 C 0.6191 0.30315 0.78615 0.0
C2026 C 0.63636 0.32192 0.78486 0.0
C2027 C 0.65904 0.31692 0.77428 0.0
C2028 C 0.66432 0.29327 0.76534 0.0
C2029 C 0.64609 0.27493 0.76607 0.0
H2030 H 0.95688 0.35683 0.06726 0.0
H2031 H 0.02919 0.3285 0.05258 0.0
H2032 H 0.04049 0.36687 0.03209 0.0
H2033 H 0.95201 0.393 0.00873 0.0
H2034 H 0.93598 0.41726 0.0239 0.0
H2035 H 0.9323 0.38622 0.03422 0.0
H2036 H 0.94534 0.39948 0.07777 0.0
H2037 H 0.94922 0.4304 0.0675 0.0
H2038 H 0.97423 0.41495 0.08209 0.0
H2039 H 0.04662 0.41031 0.02075 0.0
H2040 H 0.04525 0.45508 0.0147 0.0
H2041 H 0.96827 0.4544 0.03318 0.0
C2042 C 0.97482 0.3585 0.0591 0.0
C2043 C 0.99215 0.33978 0.06152 0.0
C2044 C 0.01557 0.34262 0.05086 0.0
C2045 C 0.02219 0.36433 0.03914 0.0
C2046 C 0.005 0.38279 0.03776 0.0
C2047 C 0.9816 0.37995 0.04693 0.0
C2048 C 0.96718 0.40325 0.0444 0.0
C2049 C 0.94559 0.39971 0.02675 0.0
C2050 C 0.95851 0.41256 0.06943 0.0
C2051 C 0.98655 0.41986 0.03357 0.0
C2052 C 0.00823 0.40771 0.02982 0.0
C2053 C 0.02957 0.41992 0.02281 0.0
C2054 C 0.0287 0.44527 0.01957 0.0
C2055 C 0.00658 0.45786 0.02301 0.0
C2056 C 0.98522 0.44495 0.0297 0.0
H2057 H 0.93885 0.76086 0.3787 0.0
H2058 H 0.99299 0.7196 0.33865 0.0
H2059 H 0.96195 0.70919 0.30746 0.0
H2060 H 0.88794 0.72014 0.36707 0.0
H2061 H 0.8662 0.74448 0.3641 0.0
H2062 H 0.89262 0.74839 0.38337 0.0
H2063 H 0.90478 0.78743 0.35946 0.0
H2064 H 0.87842 0.78364 0.34011 0.0
H2065 H 0.90846 0.78586 0.32682 0.0
H2066 H 0.92532 0.70404 0.28037 0.0
H2067 H 0.88554 0.70399 0.25931 0.0
H2068 H 0.85522 0.74843 0.31737 0.0
C2069 C 0.94416 0.74958 0.3634 0.0
C2070 C 0.96829 0.74102 0.36103 0.0
C2071 C 0.97457 0.72632 0.34078 0.0
C2072 C 0.95708 0.72032 0.323 0.0
C2073 C 0.93346 0.72913 0.32584 0.0
C2074 C 0.92696 0.74339 0.34555 0.0
C2075 C 0.90038 0.75066 0.34422 0.0
C2076 C 0.88594 0.74029 0.36598 0.0
C2077 C 0.89788 0.77855 0.34255 0.0
C2078 C 0.89297 0.73837 0.32059 0.0
C2079 C 0.91231 0.72605 0.31029 0.0
C2080 C 0.91001 0.71357 0.28828 0.0
C2081 C 0.88732 0.71369 0.27645 0.0
C2082 C 0.86719 0.7262 0.28667 0.0
C2083 C 0.87016 0.73862 0.30909 0.0
H2084 H 0.53968 0.30959 0.95113 0.0
H2085 H 0.46251 0.2912 0.95227 0.0
H2086 H 0.45677 0.31869 0.98747 0.0
H2087 H 0.54662 0.31848 0.01998 0.0
H2088 H 0.56775 0.34345 0.01531 0.0
H2089 H 0.56675 0.31839 0.99397 0.0
H2090 H 0.5595 0.34877 0.95851 0.0
H2091 H 0.56054 0.37376 0.97963 0.0
H2092 H 0.53421 0.36956 0.96025 0.0
H2093 H 0.45762 0.35478 0.01473 0.0
H2094 H 0.46551 0.39526 0.03322 0.0
H2095 H 0.54252 0.38841 0.01738 0.0
C2096 C 0.52174 0.31076 0.95933 0.0
C2097 C 0.50153 0.29835 0.94906 0.0
C2098 C 0.47826 0.30048 0.96 0.0
C2099 C 0.47486 0.31597 0.98006 0.0
C2100 C 0.49503 0.32869 0.98927 0.0
C2101 C 0.51814 0.32589 0.97953 0.0
C2102 C 0.53621 0.3437 0.99077 0.0
C2103 C 0.55547 0.33019 0.00592 0.0
C2104 C 0.54829 0.3599 0.97112 0.0
C2105 C 0.51932 0.35816 0.00702 0.0
C2106 C 0.49569 0.34896 0.00623 0.0
C2107 C 0.47616 0.36159 0.01638 0.0
C2108 C 0.48075 0.38452 0.02684 0.0
C2109 C 0.5047 0.3943 0.02738 0.0
C2110 C 0.52429 0.3806 0.01819 0.0
H2111 H 0.9003 0.25941 0.13559 0.0
H2112 H 0.9586 0.259 0.18925 0.0
H2113 H 0.92979 0.24367 0.22041 0.0
H2114 H 0.85275 0.27871 0.17499 0.0
H2115 H 0.82973 0.2593 0.16137 0.0
H2116 H 0.85522 0.2698 0.14342 0.0
H2117 H 0.86552 0.22491 0.1328 0.0
H2118 H 0.84025 0.21435 0.15113 0.0
H2119 H 0.87062 0.20335 0.15706 0.0
H2120 H 0.8941 0.23234 0.24648 0.0
H2121 H 0.85364 0.22506 0.26545 0.0
H2122 H 0.81957 0.22862 0.19413 0.0
C2123 C 0.90689 0.25614 0.15393 0.0
C2124 C 0.93152 0.2605 0.16018 0.0
C2125 C 0.93971 0.25575 0.18421 0.0
C2126 C 0.92355 0.24697 0.20197 0.0
C2127 C 0.89941 0.24256 0.19523 0.0
C2128 C 0.89111 0.24682 0.17178 0.0
C2129 C 0.86418 0.24082 0.16944 0.0
C2130 C 0.84962 0.26351 0.16188 0.0
C2131 C 0.85991 0.21959 0.15155 0.0
C2132 C 0.85855 0.23324 0.19541 0.0
C2133 C 0.87911 0.23437 0.21001 0.0
C2134 C 0.87795 0.23075 0.23518 0.0
C2135 C 0.855 0.22654 0.24578 0.0
C2136 C 0.83377 0.22556 0.23112 0.0
C2137 C 0.8357 0.22827 0.20559 0.0
H2138 H 0.98209 0.69817 0.46228 0.0
H2139 H 0.06088 0.70376 0.46938 0.0
H2140 H 0.06005 0.67089 0.50038 0.0
H2141 H 0.96891 0.6851 0.52642 0.0
H2142 H 0.94457 0.66403 0.51891 0.0
H2143 H 0.95134 0.68929 0.49892 0.0
H2144 H 0.95692 0.65938 0.46268 0.0
H2145 H 0.94995 0.63413 0.48247 0.0
H2146 H 0.97817 0.63459 0.46556 0.0
H2147 H 0.05055 0.63533 0.52842 0.0
H2148 H 0.03362 0.59884 0.54906 0.0
H2149 H 0.96111 0.61778 0.52353 0.0
C2150 C -0.00082 0.69265 0.4705 0.0
C2151 C 0.02155 0.70344 0.4635 0.0
C2152 C 0.04353 0.69566 0.47455 0.0
C2153 C 0.04322 0.67714 0.49224 0.0
C2154 C 0.02076 0.66684 0.49872 0.0
C2155 C -0.00083 0.67435 0.48813 0.0
C2156 C 0.97762 0.65945 0.49699 0.0
C2157 C 0.95955 0.67543 0.51116 0.0
C2158 C 0.96494 0.64609 0.47566 0.0
C2159 C 0.99051 0.64188 0.51374 0.0
C2160 C 0.01533 0.64657 0.51481 0.0
C2161 C 0.0311 0.63166 0.52795 0.0
C2162 C 0.0213 0.61102 0.53967 0.0
C2163 C 0.99603 0.60544 0.53794 0.0
C2164 C 0.98047 0.62156 0.52539 0.0
H2165 H 0.58604 0.75486 0.62255 0.0
H2166 H 0.53606 0.76745 0.68252 0.0
H2167 H 0.57094 0.77725 0.70957 0.0
H2168 H 0.63483 0.72805 0.6574 0.0
H2169 H 0.65864 0.74295 0.6401 0.0
H2170 H 0.62976 0.73596 0.62588 0.0
H2171 H 0.62516 0.78144 0.61389 0.0
H2172 H 0.65393 0.78856 0.62832 0.0
H2173 H 0.62675 0.80459 0.63725 0.0
H2174 H 0.61118 0.78394 0.73038 0.0
H2175 H 0.65437 0.78872 0.74316 0.0
H2176 H 0.67766 0.77551 0.66874 0.0
C2177 C 0.58254 0.75941 0.64145 0.0
C2178 C 0.55853 0.76018 0.65064 0.0
C2179 C 0.55445 0.76669 0.67527 0.0
C2180 C 0.57408 0.7723 0.69073 0.0
C2181 C 0.59757 0.77171 0.68107 0.0
C2182 C 0.6019 0.76559 0.65698 0.0
C2183 C 0.62885 0.76708 0.651 0.0
C2184 C 0.63859 0.74202 0.64314 0.0
C2185 C 0.63396 0.78659 0.63146 0.0
C2186 C 0.63898 0.77471 0.67557 0.0
C2187 C 0.62066 0.77709 0.69272 0.0
C2188 C 0.62568 0.7825 0.71707 0.0
C2189 C 0.65016 0.78521 0.72416 0.0
C2190 C 0.66911 0.78297 0.70681 0.0
C2191 C 0.6634 0.77801 0.68219 0.0
H2192 H 0.60033 0.47763 0.70263 0.0
H2193 H 0.561 0.52736 0.74967 0.0
H2194 H 0.5239 0.52158 0.72433 0.0
H2195 H 0.57541 0.49888 0.64749 0.0
H2196 H 0.57451 0.46926 0.63318 0.0
H2197 H 0.59686 0.47576 0.6564 0.0
H2198 H 0.58153 0.43827 0.68106 0.0
H2199 H 0.55886 0.43186 0.65801 0.0
H2200 H 0.54972 0.43597 0.68932 0.0
H2201 H 0.49171 0.51143 0.69278 0.0
H2202 H 0.46865 0.50181 0.65518 0.0
H2203 H 0.52986 0.45956 0.62866 0.0
C2204 C 0.58385 0.48714 0.70773 0.0
C2205 C 0.5834 0.50284 0.72812 0.0
C2206 C 0.56164 0.51526 0.73406 0.0
C2207 C 0.54048 0.51193 0.71991 0.0
C2208 C 0.54151 0.49618 0.69994 0.0
C2209 C 0.56273 0.48421 0.69374 0.0
C2210 C 0.55974 0.46985 0.67036 0.0
C2211 C 0.57768 0.479 0.6507 0.0
C2212 C 0.56263 0.44235 0.67498 0.0
C2213 C 0.53364 0.47601 0.66404 0.0
C2214 C 0.52324 0.49082 0.68154 0.0
C2215 C 0.4996 0.4997 0.67905 0.0
C2216 C 0.4866 0.49402 0.65768 0.0
C2217 C 0.49747 0.47993 0.63898 0.0
C2218 C 0.52101 0.47027 0.64265 0.0
H2219 H 0.75682 0.35077 0.93209 0.0
H2220 H 0.82338 0.31546 0.95579 0.0
H2221 H 0.82907 0.29879 0.91421 0.0
H2222 H 0.73559 0.30328 0.89274 0.0
H2223 H 0.7236 0.32393 0.87021 0.0
H2224 H 0.72515 0.33306 0.90173 0.0
H2225 H 0.75046 0.37137 0.88953 0.0
H2226 H 0.74908 0.36228 0.85798 0.0
H2227 H 0.77825 0.36775 0.87234 0.0
H2228 H 0.82662 0.28517 0.87005 0.0
H2229 H 0.81632 0.27588 0.82704 0.0
H2230 H 0.752 0.32134 0.83288 0.0
C2231 C 0.77258 0.33951 0.92856 0.0
C2232 C 0.78963 0.33431 0.94709 0.0
C2233 C 0.8101 0.31962 0.94177 0.0
C2234 C 0.81349 0.31011 0.91824 0.0
C2235 C 0.79633 0.31566 0.90033 0.0
C2236 C 0.77632 0.33007 0.90524 0.0
C2237 C 0.76048 0.33331 0.88292 0.0
C2238 C 0.73469 0.32276 0.88716 0.0
C2239 C 0.75953 0.36028 0.87525 0.0
C2240 C 0.77455 0.31828 0.8647 0.0
C2241 C 0.79518 0.30823 0.875 0.0
C2242 C 0.81059 0.29307 0.86174 0.0
C2243 C 0.8046 0.2879 0.83735 0.0
C2244 C 0.78342 0.29796 0.82654 0.0
C2245 C 0.76844 0.31351 0.84046 0.0
H2246 H 0.95778 0.54118 0.22319 0.0
H2247 H 0.98943 0.46918 0.22834 0.0
H2248 H 0.01653 0.47896 0.19351 0.0
H2249 H 0.94984 0.53943 0.16375 0.0
H2250 H 0.95573 0.57122 0.15739 0.0
H2251 H 0.94523 0.56221 0.18702 0.0
H2252 H 0.98289 0.58315 0.20697 0.0
H2253 H 0.9935 0.59247 0.17723 0.0
H2254 H 0.01318 0.57523 0.19704 0.0
H2255 H 0.03368 0.49316 0.15394 0.0
H2256 H 0.0363 0.50807 0.11169 0.0
H2257 H 0.99066 0.56955 0.1306 0.0
C2258 C 0.97123 0.52788 0.21774 0.0
C2259 C 0.97185 0.50457 0.22862 0.0
C2260 C 0.98897 0.48726 0.22041 0.0
C2261 C 0.00448 0.49275 0.20073 0.0
C2262 C 0.00251 0.51554 0.18952 0.0
C2263 C 0.98625 0.53285 0.1978 0.0
C2264 C 0.98379 0.55376 0.17996 0.0
C2265 C 0.95709 0.55679 0.17153 0.0
C2266 C 0.99396 0.57756 0.19096 0.0
C2267 C -0.00011 0.54475 0.15954 0.0
C2268 C 0.01135 0.52322 0.16581 0.0
C2269 C 0.02522 0.51024 0.14903 0.0
C2270 C 0.02658 0.51889 0.12501 0.0
C2271 C 0.01357 0.53997 0.11785 0.0
C2272 C 0.00093 0.55352 0.13561 0.0
H2273 H 0.72479 0.68326 0.43338 0.0
H2274 H 0.69252 0.61334 0.41393 0.0
H2275 H 0.69642 0.62387 0.37014 0.0
H2276 H 0.69926 0.71937 0.38321 0.0
H2277 H 0.72699 0.73696 0.37954 0.0
H2278 H 0.71879 0.72513 0.40912 0.0
H2279 H 0.76061 0.70347 0.41203 0.0
H2280 H 0.76892 0.71519 0.38251 0.0
H2281 H 0.76959 0.6828 0.38813 0.0
H2282 H 0.70584 0.64132 0.32871 0.0
H2283 H 0.72292 0.66264 0.29284 0.0
H2284 H 0.75103 0.72007 0.34002 0.0
C2285 C 0.71809 0.67037 0.4199 0.0
C2286 C 0.7081 0.64763 0.42687 0.0
C2287 C 0.7001 0.63093 0.40882 0.0
C2288 C 0.70214 0.6368 0.38398 0.0
C2289 C 0.71237 0.65932 0.37769 0.0
C2290 C 0.72036 0.67577 0.39515 0.0
C2291 C 0.73276 0.69771 0.38375 0.0
C2292 C 0.71859 0.72118 0.38923 0.0
C2293 C 0.75955 0.6999 0.3921 0.0
C2294 C 0.73093 0.69087 0.3571 0.0
C2295 C 0.7187 0.66891 0.35394 0.0
C2296 C 0.71532 0.65859 0.33095 0.0
C2297 C 0.72505 0.67087 0.3107 0.0
C2298 C 0.73834 0.69299 0.31368 0.0
C2299 C 0.74098 0.70319 0.33718 0.0
H2300 H 0.61491 0.52288 0.85544 0.0
H2301 H 0.59652 0.45273 0.82327 0.0
H2302 H 0.56857 0.44404 0.85772 0.0
H2303 H 0.61535 0.50221 0.9177 0.0
H2304 H 0.60278 0.53018 0.92935 0.0
H2305 H 0.62085 0.53061 0.90195 0.0
H2306 H 0.58521 0.55135 0.87894 0.0
H2307 H 0.56688 0.55061 0.9062 0.0
H2308 H 0.55552 0.53686 0.8785 0.0
H2309 H 0.54184 0.44361 0.89569 0.0
H2310 H 0.52254 0.44945 0.93614 0.0
H2311 H 0.55947 0.51951 0.94308 0.0
C2312 C 0.6051 0.50563 0.8557 0.0
C2313 C 0.60783 0.48848 0.83672 0.0
C2314 C 0.59475 0.46608 0.83773 0.0
C2315 C 0.57871 0.46107 0.85711 0.0
C2316 C 0.57611 0.47859 0.87534 0.0
C2317 C 0.58922 0.50027 0.87494 0.0
C2318 C 0.58385 0.51574 0.8971 0.0
C2319 C 0.60708 0.51991 0.91243 0.0
C2320 C 0.57216 0.54008 0.88973 0.0
C2321 C 0.56574 0.49937 0.91012 0.0
C2322 C 0.56122 0.47814 0.89722 0.0
C2323 C 0.54525 0.46018 0.90595 0.0
C2324 C 0.53423 0.46372 0.92883 0.0
C2325 C 0.5395 0.48492 0.94273 0.0
C2326 C 0.55506 0.5031 0.9329 0.0
H2327 H 0.73151 0.32142 0.07211 0.0
H2328 H 0.79723 0.28347 0.0509 0.0
H2329 H 0.78871 0.25181 0.08208 0.0
H2330 H 0.74199 0.31666 0.13256 0.0
H2331 H 0.71052 0.31357 0.14178 0.0
H2332 H 0.71795 0.32902 0.11389 0.0
H2333 H 0.68939 0.29945 0.09005 0.0
H2334 H 0.68197 0.28376 0.11803 0.0
H2335 H 0.69384 0.26698 0.09241 0.0
H2336 H 0.77621 0.22779 0.11856 0.0
H2337 H 0.7654 0.21737 0.16089 0.0
H2338 H 0.70993 0.27339 0.16061 0.0
C2339 C 0.74357 0.3059 0.07346 0.0
C2340 C 0.76471 0.30442 0.05892 0.0
C2341 C 0.78077 0.2846 0.06178 0.0
C2342 C 0.77593 0.26649 0.07924 0.0
C2343 C 0.75513 0.26874 0.09377 0.0
C2344 C 0.73936 0.28816 0.09123 0.0
C2345 C 0.72113 0.28912 0.11193 0.0
C2346 C 0.72305 0.31352 0.12586 0.0
C2347 C 0.69503 0.28455 0.10254 0.0
C2348 C 0.72987 0.26798 0.12722 0.0
C2349 C 0.74881 0.25581 0.11593 0.0
C2350 C 0.76114 0.23689 0.1274 0.0
C2351 C 0.75478 0.23103 0.15144 0.0
C2352 C 0.73676 0.24458 0.16395 0.0
C2353 C 0.72355 0.26258 0.15133 0.0
H2354 H 0.93747 0.46799 0.35262 0.0
H2355 H 0.91572 0.54197 0.33507 0.0
H2356 H 0.92433 0.55466 0.37726 0.0
H2357 H 0.91042 0.46675 0.41184 0.0
H2358 H 0.9343 0.44918 0.42586 0.0
H2359 H 0.9281 0.44586 0.39375 0.0
H2360 H 0.97327 0.45633 0.38395 0.0
H2361 H 0.97962 0.45968 0.41606 0.0
H2362 H 0.98649 0.48435 0.39536 0.0
H2363 H 0.93359 0.55945 0.42062 0.0
H2364 H 0.94204 0.55614 0.46437 0.0
H2365 H 0.95735 0.47889 0.45561 0.0
C2366 C 0.93478 0.48688 0.35768 0.0
C2367 C 0.926 0.50404 0.34061 0.0
C2368 C 0.92239 0.52853 0.34788 0.0
C2369 C 0.92731 0.53595 0.37177 0.0
C2370 C 0.93575 0.51864 0.38821 0.0
C2371 C 0.93941 0.49461 0.38166 0.0
C2372 C 0.94752 0.47964 0.40347 0.0
C2373 C 0.92897 0.45915 0.40906 0.0
C2374 C 0.97326 0.4694 0.39946 0.0
C2375 C 0.94754 0.49904 0.42325 0.0
C2376 C 0.94086 0.52138 0.41383 0.0
C2377 C 0.93892 0.54209 0.42828 0.0
C2378 C 0.94371 0.53995 0.45318 0.0
C2379 C 0.9503 0.51721 0.46353 0.0
C2380 C 0.95246 0.49652 0.44825 0.0
H2381 H 0.70897 0.70374 0.55158 0.0
H2382 H 0.77845 0.67087 0.53357 0.0
H2383 H 0.799 0.69705 0.56404 0.0
H2384 H 0.73486 0.76698 0.56499 0.0
H2385 H 0.71329 0.7713 0.58941 0.0
H2386 H 0.70487 0.75324 0.56316 0.0
H2387 H 0.69372 0.71703 0.59157 0.0
H2388 H 0.7022 0.73488 0.61776 0.0
H2389 H 0.71632 0.70574 0.6126 0.0
H2390 H 0.80996 0.71923 0.60211 0.0
H2391 H 0.81106 0.73917 0.64267 0.0
H2392 H 0.73566 0.76076 0.63357 0.0
C2393 C 0.72862 0.70264 0.55357 0.0
C2394 C 0.74216 0.68537 0.54034 0.0
C2395 C 0.76779 0.68416 0.54347 0.0
C2396 C 0.77963 0.69898 0.56069 0.0
C2397 C 0.76566 0.7153 0.57409 0.0
C2398 C 0.74078 0.71764 0.57034 0.0
C2399 C 0.72962 0.73501 0.58855 0.0
C2400 C 0.72011 0.758 0.57576 0.0
C2401 C 0.70929 0.7224 0.6035 0.0
C2402 C 0.75178 0.74079 0.60406 0.0
C2403 C 0.77246 0.72942 0.59534 0.0
C2404 C 0.79419 0.72904 0.60867 0.0
C2405 C 0.79466 0.74027 0.63166 0.0
C2406 C 0.77365 0.75194 0.64076 0.0
C2407 C 0.75224 0.75276 0.6265 0.0
H2408 H 0.64897 0.5693 0.52274 0.0
H2409 H 0.62065 0.64229 0.51252 0.0
H2410 H 0.57865 0.62654 0.51941 0.0
H2411 H 0.60202 0.53752 0.49232 0.0
H2412 H 0.60161 0.51202 0.51308 0.0
H2413 H 0.62933 0.52934 0.50868 0.0
H2414 H 0.63202 0.53757 0.55521 0.0
H2415 H 0.60435 0.52014 0.55978 0.0
H2416 H 0.60646 0.55112 0.57069 0.0
H2417 H 0.53977 0.60207 0.52465 0.0
H2418 H 0.50702 0.57126 0.52994 0.0
H2419 H 0.56154 0.51473 0.53779 0.0
C2420 C 0.63396 0.58203 0.52213 0.0
C2421 C 0.6379 0.60696 0.51702 0.0
C2422 C 0.61789 0.6231 0.51646 0.0
C2423 C 0.59405 0.61433 0.52032 0.0
C2424 C 0.59076 0.5895 0.52498 0.0
C2425 C 0.61021 0.57365 0.52615 0.0
C2426 C 0.60188 0.54776 0.53104 0.0
C2427 C 0.60914 0.53066 0.51002 0.0
C2428 C 0.61176 0.53862 0.55565 0.0
C2429 C 0.5746 0.55137 0.53194 0.0
C2430 C 0.56852 0.57555 0.52843 0.0
C2431 C 0.54433 0.58312 0.5276 0.0
C2432 C 0.52588 0.56548 0.53046 0.0
C2433 C 0.53181 0.54063 0.53423 0.0
C2434 C 0.55649 0.53361 0.53511 0.0
H2435 H 0.2131 0.93319 0.53168 0.0
H2436 H 0.19786 0.9006 0.60221 0.0
H2437 H 0.16173 0.92711 0.60668 0.0
H2438 H 0.19501 0.99511 0.54819 0.0
H2439 H 0.18213 0.00107 0.51853 0.0
H2440 H 0.20735 0.98037 0.52156 0.0
H2441 H 0.18217 0.94635 0.49992 0.0
H2442 H 0.15705 0.96701 0.4966 0.0
H2443 H 0.15247 0.9381 0.51164 0.0
H2444 H 0.12533 0.95445 0.60141 0.0
H2445 H 0.09167 0.98057 0.58694 0.0
H2446 H 0.13276 -0.00311 0.5212 0.0
C2447 C 0.20219 0.93168 0.5481 0.0
C2448 C 0.20805 0.91482 0.56655 0.0
C2449 C 0.19354 0.91345 0.58787 0.0
C2450 C 0.17311 0.92847 0.59059 0.0
C2451 C 0.16784 0.94497 0.57202 0.0
C2452 C 0.18207 0.94676 0.55127 0.0
C2453 C 0.17216 0.96539 0.53364 0.0
C2454 C 0.19024 0.98675 0.5303 0.0
C2455 C 0.16556 0.9535 0.50901 0.0
C2456 C 0.14965 0.9733 0.54735 0.0
C2457 C 0.14749 0.96143 0.5695 0.0
C2458 C 0.12704 0.96421 0.58434 0.0
C2459 C 0.10805 0.97906 0.57599 0.0
C2460 C 0.10981 0.99099 0.55314 0.0
C2461 C 0.13118 0.98853 0.53904 0.0
H2462 H 0.35988 0.90516 0.77279 0.0
H2463 H 0.32083 0.92185 0.70607 0.0
H2464 H 0.29136 0.88839 0.71486 0.0
H2465 H 0.35537 0.84112 0.76651 0.0
H2466 H 0.35247 0.83551 0.79878 0.0
H2467 H 0.36864 0.86216 0.78819 0.0
H2468 H 0.34019 0.88939 0.81423 0.0
H2469 H 0.32367 0.86276 0.82458 0.0
H2470 H 0.30758 0.88732 0.80998 0.0
H2471 H 0.26695 0.85242 0.73061 0.0
H2472 H 0.25329 0.81327 0.74832 0.0
H2473 H 0.30982 0.8192 0.80365 0.0
C2474 C 0.34498 0.90191 0.76015 0.0
C2475 C 0.34241 0.91612 0.73887 0.0
C2476 C 0.32303 0.91109 0.72248 0.0
C2477 C 0.30612 0.89232 0.72745 0.0
C2478 C 0.30907 0.87872 0.74876 0.0
C2479 C 0.32826 0.88306 0.76462 0.0
C2480 C 0.32878 0.86449 0.78501 0.0
C2481 C 0.35272 0.84996 0.78458 0.0
C2482 C 0.32481 0.87673 0.80992 0.0
C2483 C 0.30709 0.84872 0.77797 0.0
C2484 C 0.29561 0.85753 0.75733 0.0
C2485 C 0.27569 0.84546 0.74687 0.0
C2486 C 0.26794 0.8233 0.7572 0.0
C2487 C 0.28044 0.81322 0.77745 0.0
C2488 C 0.29977 0.82654 0.78833 0.0
H2489 H 0.34105 0.11112 0.0069 0.0
H2490 H 0.32895 0.09456 0.08338 0.0
H2491 H 0.36983 0.07579 0.08565 0.0
H2492 H 0.36908 0.05607 0.99225 0.0
H2493 H 0.39051 0.06915 0.9709 0.0
H2494 H 0.36163 0.08367 0.97608 0.0
H2495 H 0.38404 0.12402 0.98731 0.0
H2496 H 0.41304 0.10962 0.98212 0.0
H2497 H 0.40688 0.124 0.01103 0.0
H2498 H 0.41062 0.05657 0.07875 0.0
H2499 H 0.44774 0.0369 0.06303 0.0
H2500 H 0.43238 0.06545 0.99073 0.0
C2501 C 0.34718 0.10393 0.02424 0.0
C2502 C 0.33202 0.10437 0.04502 0.0
C2503 C 0.34042 0.09442 0.06728 0.0
C2504 C 0.36359 0.08384 0.06876 0.0
C2505 C 0.37798 0.08342 0.0478 0.0
C2506 C 0.37009 0.09318 0.02596 0.0
C2507 C 0.3882 0.08881 0.00567 0.0
C2508 C 0.37666 0.07351 0.98502 0.0
C2509 C 0.39866 0.11306 0.99597 0.0
C2510 C 0.40732 0.07459 0.01937 0.0
C2511 C 0.40126 0.07195 0.04371 0.0
C2512 C 0.41568 0.05869 0.05978 0.0
C2513 C 0.43671 0.04757 0.05065 0.0
C2514 C 0.44296 0.04962 0.02562 0.0
C2515 C 0.42817 0.0636 0.00995 0.0
H2516 H 0.65657 0.59584 0.75664 0.0
H2517 H 0.71948 0.553 0.7775 0.0
H2518 H 0.74639 0.5888 0.77077 0.0
H2519 H 0.68555 0.6318 0.71002 0.0
H2520 H 0.66985 0.65947 0.71793 0.0
H2521 H 0.65561 0.63028 0.72364 0.0
H2522 H 0.65037 0.64158 0.76927 0.0
H2523 H 0.66446 0.67085 0.76365 0.0
H2524 H 0.67671 0.65102 0.78677 0.0
H2525 H 0.76662 0.62884 0.75998 0.0
H2526 H 0.77805 0.67171 0.75072 0.0
H2527 H 0.70158 0.6889 0.74007 0.0
C2528 C 0.67601 0.59406 0.75977 0.0
C2529 C 0.68603 0.57174 0.76746 0.0
C2530 C 0.71149 0.57005 0.77166 0.0
C2531 C 0.72692 0.5902 0.76776 0.0
C2532 C 0.71651 0.61196 0.76003 0.0
C2533 C 0.69161 0.61413 0.75647 0.0
C2534 C 0.68494 0.63986 0.74924 0.0
C2535 C 0.6733 0.64037 0.72369 0.0
C2536 C 0.66813 0.65151 0.76838 0.0
C2537 C 0.70998 0.65176 0.74921 0.0
C2538 C 0.72801 0.6353 0.7551 0.0
C2539 C 0.75266 0.64197 0.75554 0.0
C2540 C 0.75899 0.66625 0.75016 0.0
C2541 C 0.74067 0.68352 0.74491 0.0
C2542 C 0.71592 0.67608 0.74432 0.0
H2543 H 0.8403 0.42627 -0.00051 0.0
H2544 H 0.8288 0.41145 0.07639 0.0
H2545 H 0.85451 0.44747 0.08694 0.0
H2546 H 0.90242 0.4452 0.00408 0.0
H2547 H 0.89945 0.46815 0.98075 0.0
H2548 H 0.88012 0.44146 0.98012 0.0
H2549 H 0.84198 0.46931 0.97952 0.0
H2550 H 0.86127 0.49609 0.98072 0.0
H2551 H 0.83791 0.49148 0.00346 0.0
H2552 H 0.8828 0.48489 0.08847 0.0
H2553 H 0.91318 0.51773 0.08092 0.0
H2554 H 0.90338 0.50805 0.00288 0.0
C2555 C 0.84324 0.43047 0.01859 0.0
C2556 C 0.83268 0.41608 0.03715 0.0
C2557 C 0.83688 0.42224 0.0619 0.0
C2558 C 0.85128 0.44273 0.06804 0.0
C2559 C 0.86105 0.45683 0.04917 0.0
C2560 C 0.85726 0.45081 0.02496 0.0
C2561 C 0.8701 0.46833 0.00798 0.0
C2562 C 0.88915 0.45499 0.99233 0.0
C2563 C 0.85171 0.48211 0.99198 0.0
C2564 C 0.88208 0.4851 0.02635 0.0
C2565 C 0.87662 0.47837 0.05004 0.0
C2566 C 0.88698 0.49045 0.06998 0.0
C2567 C 0.90409 0.50921 0.06552 0.0
C2568 C 0.91064 0.51554 0.0413 0.0
C2569 C 0.8987 0.50385 0.02162 0.0
H2570 H 0.36753 0.06083 0.7343 0.0
H2571 H 0.30911 0.00984 0.71636 0.0
H2572 H 0.27935 0.04347 0.71785 0.0
H2573 H 0.33454 0.09654 0.77637 0.0
H2574 H 0.34812 0.12515 0.76711 0.0
H2575 H 0.36488 0.09726 0.7636 0.0
H2576 H 0.37047 0.10625 0.71749 0.0
H2577 H 0.35376 0.13421 0.72088 0.0
H2578 H 0.34399 0.11179 0.69878 0.0
H2579 H 0.25572 0.08207 0.72428 0.0
H2580 H 0.24017 0.1234 0.7329 0.0
H2581 H 0.31442 0.14924 0.7448 0.0
C2582 C 0.3485 0.05678 0.7305 0.0
C2583 C 0.34055 0.0328 0.72527 0.0
C2584 C 0.31554 0.02816 0.72036 0.0
C2585 C 0.29853 0.04711 0.72118 0.0
C2586 C 0.30693 0.07055 0.72664 0.0
C2587 C 0.33136 0.07549 0.73098 0.0
C2588 C 0.33562 0.10219 0.73674 0.0
C2589 C 0.34642 0.10546 0.76248 0.0
C2590 C 0.35192 0.11432 0.71731 0.0
C2591 C 0.30971 0.11142 0.73539 0.0
C2592 C 0.29342 0.0929 0.7296 0.0
C2593 C 0.26832 0.09679 0.72853 0.0
C2594 C 0.25967 0.12027 0.73353 0.0
C2595 C 0.27611 0.13953 0.73932 0.0
C2596 C 0.30144 0.13498 0.74006 0.0
H2597 H 0.18047 0.95931 0.22414 0.0
H2598 H 0.23896 0.01067 0.24044 0.0
H2599 H 0.26867 0.97693 0.23961 0.0
H2600 H 0.19901 0.91453 0.26231 0.0
H2601 H 0.19047 0.88917 0.24305 0.0
H2602 H 0.17489 0.91771 0.24013 0.0
H2603 H 0.18581 0.91929 0.19414 0.0
H2604 H 0.20145 0.8906 0.19691 0.0
H2605 H 0.21727 0.91692 0.18483 0.0
H2606 H 0.29044 0.93699 0.24411 0.0
H2607 H 0.30224 0.89437 0.25325 0.0
H2608 H 0.22972 0.86937 0.23346 0.0
C2609 C 0.19964 0.96358 0.22681 0.0
C2610 C 0.20747 0.98758 0.23225 0.0
C2611 C 0.23262 0.99241 0.23606 0.0
C2612 C 0.24962 0.97337 0.23555 0.0
C2613 C 0.24116 0.94972 0.2309 0.0
C2614 C 0.21676 0.94484 0.22634 0.0
C2615 C 0.2118 0.9177 0.22447 0.0
C2616 C 0.19295 0.9093 0.24363 0.0
C2617 C 0.2036 0.91072 0.19854 0.0
C2618 C 0.23696 0.90795 0.22997 0.0
C2619 C 0.2538 0.92668 0.23317 0.0
C2620 C 0.27763 0.92217 0.24093 0.0
C2621 C 0.28421 0.898 0.24604 0.0
C2622 C 0.26701 0.87883 0.2433 0.0
C2623 C 0.24334 0.88378 0.23476 0.0
H2624 H 0.47801 0.30954 0.45881 0.0
H2625 H 0.55012 0.32535 0.43005 0.0
H2626 H 0.5583 0.35277 0.4651 0.0
H2627 H 0.46371 0.36645 0.47404 0.0
H2628 H 0.4471 0.35931 0.50154 0.0
H2629 H 0.44947 0.3369 0.47786 0.0
H2630 H 0.46802 0.30631 0.5087 0.0
H2631 H 0.46575 0.32882 0.53259 0.0
H2632 H 0.49474 0.31492 0.52604 0.0
H2633 H 0.55503 0.38453 0.49802 0.0
H2634 H 0.54027 0.41786 0.52438 0.0
H2635 H 0.47085 0.37999 0.53235 0.0
C2636 C 0.49581 0.31819 0.4603 0.0
C2637 C 0.51344 0.31542 0.44183 0.0
C2638 C 0.53644 0.32717 0.44418 0.0
C2639 C 0.54126 0.34266 0.46407 0.0
C2640 C 0.52308 0.34571 0.48162 0.0
C2641 C 0.50091 0.33349 0.48004 0.0
C2642 C 0.48316 0.34215 0.49919 0.0
C2643 C 0.4595 0.35179 0.48745 0.0
C2644 C 0.4776 0.32184 0.51773 0.0
C2645 C 0.49809 0.36243 0.51066 0.0
C2646 C 0.52132 0.36386 0.50082 0.0
C2647 C 0.53715 0.38319 0.50635 0.0
C2648 C 0.52863 0.40205 0.5214 0.0
C2649 C 0.50439 0.40151 0.53038 0.0
C2650 C 0.48954 0.38081 0.52592 0.0
H2651 H 0.44003 0.75767 0.15736 0.0
H2652 H 0.49785 0.7741 0.20918 0.0
H2653 H 0.46691 0.78644 0.23963 0.0
H2654 H 0.40384 0.80846 0.17162 0.0
H2655 H 0.37507 0.79268 0.16769 0.0
H2656 H 0.4015 0.78301 0.15086 0.0
H2657 H 0.39673 0.73918 0.16816 0.0
H2658 H 0.36998 0.74861 0.18463 0.0
H2659 H 0.39502 0.73478 0.20072 0.0
H2660 H 0.42939 0.79758 0.26396 0.0
H2661 H 0.38827 0.80613 0.28045 0.0
H2662 H 0.35602 0.78495 0.21114 0.0
C2663 C 0.44618 0.76336 0.17529 0.0
C2664 C 0.47123 0.7647 0.18112 0.0
C2665 C 0.47865 0.77279 0.20453 0.0
C2666 C 0.46125 0.77989 0.22185 0.0
C2667 C 0.43666 0.77898 0.21527 0.0
C2668 C 0.42916 0.77086 0.19256 0.0
C2669 C 0.40181 0.77268 0.18951 0.0
C2670 C 0.39518 0.79026 0.16869 0.0
C2671 C 0.39021 0.7473 0.18553 0.0
C2672 C 0.39504 0.78311 0.21406 0.0
C2673 C 0.41532 0.78647 0.22876 0.0
C2674 C 0.41339 0.79515 0.25258 0.0
C2675 C 0.39003 0.80003 0.26174 0.0
C2676 C 0.36906 0.7965 0.24695 0.0
C2677 C 0.37175 0.78832 0.22271 0.0
H2678 H 0.00291 0.72284 0.95792 0.0
H2679 H 0.93425 0.70994 0.92056 0.0
H2680 H 0.91913 0.68659 0.9562 0.0
H2681 H 0.01096 0.66731 0.97813 0.0
H2682 H 0.02441 0.6752 0.00717 0.0
H2683 H 0.02633 0.69626 0.98236 0.0
H2684 H 0.00599 0.72929 0.00935 0.0
H2685 H 0.00358 0.70785 0.0342 0.0
H2686 H 0.97673 0.72315 0.0232 0.0
H2687 H 0.91578 0.65692 0.99026 0.0
H2688 H 0.92634 0.62152 0.01588 0.0
H2689 H 0.99647 0.65434 0.03205 0.0
C2690 C 0.98441 0.7157 0.95756 0.0
C2691 C 0.96976 0.718 0.93657 0.0
C2692 C 0.94572 0.70837 0.93658 0.0
C2693 C 0.93693 0.69532 0.95685 0.0
C2694 C 0.95221 0.6926 0.97708 0.0
C2695 C 0.97543 0.70279 0.9776 0.0
C2696 C 0.98993 0.69398 -0.00071 0.0
C2697 C 0.01429 0.68248 0.99124 0.0
C2698 C 0.99431 0.71481 0.0176 0.0
C2699 C 0.97227 0.67525 0.00949 0.0
C2700 C 0.95013 0.67548 -0.00281 0.0
C2701 C 0.93262 0.6571 0.00062 0.0
C2702 C 0.93862 0.63713 0.01541 0.0
C2703 C 0.96202 0.6357 0.02614 0.0
C2704 C 0.9782 0.65569 0.02461 0.0
H2705 H 0.06649 0.26135 0.6761 0.0
H2706 H 0.04212 0.18602 0.67037 0.0
H2707 H 0.07401 0.17374 0.6997 0.0
H2708 H 0.1281 0.24905 0.67571 0.0
H2709 H 0.13669 0.27283 0.69684 0.0
H2710 H 0.10971 0.27603 0.67849 0.0
H2711 H 0.0838 0.28235 0.7176 0.0
H2712 H 0.11083 0.27911 0.73609 0.0
H2713 H 0.08458 0.25979 0.7415 0.0
H2714 H 0.11178 0.16907 0.72554 0.0
H2715 H 0.15258 0.17256 0.74484 0.0
H2716 H 0.15125 0.251 0.73378 0.0
C2717 C 0.06748 0.24237 0.68149 0.0
C2718 C 0.05183 0.22465 0.67112 0.0
C2719 C 0.05394 0.19991 0.67822 0.0
C2720 C 0.0719 0.19277 0.69493 0.0
C2721 C 0.08745 0.21064 0.70446 0.0
C2722 C 0.08531 0.23495 0.69805 0.0
C2723 C 0.10567 0.25024 0.70891 0.0
C2724 C 0.12094 0.26275 0.68879 0.0
C2725 C 0.09561 0.26898 0.72711 0.0
C2726 C 0.12 0.23063 0.72177 0.0
C2727 C 0.10912 0.20794 0.71932 0.0
C2728 C 0.12027 0.18682 0.72798 0.0
C2729 C 0.14341 0.18896 0.73892 0.0
C2730 C 0.1551 0.21202 0.74085 0.0
C2731 C 0.14279 0.23308 0.73277 0.0
H2732 H 0.49442 0.67884 0.09843 0.0
H2733 H 0.55342 0.71227 0.0572 0.0
H2734 H 0.5589 0.67376 0.03432 0.0
H2735 H 0.52067 0.62257 0.10627 0.0
H2736 H 0.49278 0.60514 0.10299 0.0
H2737 H 0.49172 0.63607 0.11381 0.0
H2738 H 0.46161 0.64714 0.07903 0.0
H2739 H 0.46251 0.61612 0.06814 0.0
H2740 H 0.46984 0.64096 0.0478 0.0
H2741 H 0.56098 0.63001 0.01972 0.0
H2742 H 0.55839 0.58527 0.01368 0.0
H2743 H 0.4971 0.58198 0.06388 0.0
C2744 C 0.50821 0.67818 0.0843 0.0
C2745 C 0.52354 0.69836 0.07954 0.0
C2746 C 0.54143 0.69691 0.06098 0.0
C2747 C 0.54465 0.67518 0.0479 0.0
C2748 C 0.52952 0.65536 0.0534 0.0
C2749 C 0.51145 0.65682 0.07095 0.0
C2750 C 0.49851 0.63269 0.07449 0.0
C2751 C 0.5011 0.62359 0.10095 0.0
C2752 C 0.47152 0.63433 0.0669 0.0
C2753 C 0.51277 0.61713 0.05693 0.0
C2754 C 0.53044 0.63047 0.04471 0.0
C2755 C 0.54692 0.61944 0.02885 0.0
C2756 C 0.54538 0.59405 0.0256 0.0
C2757 C 0.52753 0.58014 0.03826 0.0
C2758 C 0.51085 0.59204 0.05375 0.0
H2759 H 0.07356 0.75731 0.82739 0.0
H2760 H 0.06177 0.68933 0.86637 0.0
H2761 H 0.10378 0.6766 0.85604 0.0
H2762 H 0.1122 0.73206 0.77849 0.0
H2763 H 0.13127 0.75902 0.77758 0.0
H2764 H 0.09956 0.76139 0.78595 0.0
H2765 H 0.11221 0.78273 0.82632 0.0
H2766 H 0.14392 0.78016 0.81825 0.0
H2767 H 0.13309 0.7677 0.84672 0.0
H2768 H 0.14826 0.67344 0.8451 0.0
H2769 H 0.19107 0.67859 0.83195 0.0
H2770 H 0.1732 0.74862 0.79975 0.0
C2771 C 0.07963 0.73952 0.83334 0.0
C2772 C 0.06449 0.72425 0.84763 0.0
C2773 C 0.0731 0.70121 0.85526 0.0
C2774 C 0.0969 0.69387 0.84953 0.0
C2775 C 0.11163 0.70972 0.83599 0.0
C2776 C 0.1032 0.73192 0.82772 0.0
C2777 C 0.12294 0.74611 0.81447 0.0
C2778 C 0.11608 0.74986 0.78752 0.0
C2779 C 0.12835 0.77061 0.82721 0.0
C2780 C 0.14402 0.72871 0.8171 0.0
C2781 C 0.13713 0.70779 0.82949 0.0
C2782 C 0.15379 0.68959 0.8351 0.0
C2783 C 0.1781 0.69278 0.82768 0.0
C2784 C 0.18548 0.71401 0.81477 0.0
C2785 C 0.16811 0.73211 0.80941 0.0
H2786 H 0.99589 0.32098 0.57396 0.0
H2787 H 0.96544 0.31579 0.64687 0.0
H2788 H 0.94548 0.35569 0.64121 0.0
H2789 H 0.00931 0.38466 0.57602 0.0
H2790 H 0.00175 0.38963 0.54441 0.0
H2791 H 0.01264 0.36033 0.55414 0.0
H2792 H 0.97386 0.33993 0.53567 0.0
H2793 H 0.96272 0.36931 0.52629 0.0
H2794 H 0.94411 0.34989 0.54537 0.0
H2795 H 0.9298 0.3965 0.62789 0.0
H2796 H 0.92357 0.43723 0.60996 0.0
H2797 H 0.96411 0.41522 0.54562 0.0
C2798 C 0.98506 0.32826 0.58876 0.0
C2799 C 0.98218 0.31539 0.61085 0.0
C2800 C 0.96796 0.32549 0.62984 0.0
C2801 C 0.95637 0.34799 0.6267 0.0
C2802 C 0.95923 0.36004 0.60449 0.0
C2803 C 0.97346 0.35066 0.58596 0.0
C2804 C 0.97468 0.36777 0.56437 0.0
C2805 C 0.00116 0.37609 0.55947 0.0
C2806 C 0.96315 0.35602 0.54158 0.0
C2807 C 0.95927 0.38848 0.57381 0.0
C2808 C 0.95023 0.38354 0.59683 0.0
C2809 C 0.93663 0.40053 0.6098 0.0
C2810 C 0.93311 0.42359 0.5994 0.0
C2811 C 0.94333 0.42946 0.57636 0.0
C2812 C 0.95577 0.41128 0.56311 0.0
H2813 H 0.42009 0.26822 0.32751 0.0
H2814 H 0.43729 0.34185 0.35171 0.0
H2815 H 0.39932 0.3566 0.33272 0.0
H2816 H 0.39231 0.28513 0.26916 0.0
H2817 H 0.3691 0.26168 0.27098 0.0
H2818 H 0.39843 0.25708 0.28512 0.0
H2819 H 0.37713 0.24856 0.32648 0.0
H2820 H 0.34777 0.25319 0.31251 0.0
H2821 H 0.35656 0.27087 0.33889 0.0
H2822 H 0.35894 0.36304 0.31327 0.0
H2823 H 0.31831 0.36109 0.29422 0.0
H2824 H 0.32682 0.28319 0.28245 0.0
C2825 C 0.41599 0.28749 0.32854 0.0
C2826 C 0.43162 0.30394 0.341 0.0
C2827 C 0.42556 0.32896 0.34221 0.0
C2828 C 0.40407 0.33752 0.33145 0.0
C2829 C 0.38891 0.3208 0.31955 0.0
C2830 C 0.39456 0.29634 0.31794 0.0
C2831 C 0.37457 0.28212 0.30491 0.0
C2832 C 0.38418 0.27084 0.28113 0.0
C2833 C 0.36335 0.26253 0.32171 0.0
C2834 C 0.35665 0.30238 0.29978 0.0
C2835 C 0.3654 0.32454 0.30828 0.0
C2836 C 0.35193 0.34585 0.30639 0.0
C2837 C 0.32881 0.34449 0.29558 0.0
C2838 C 0.31931 0.32197 0.2868 0.0
C2839 C 0.33359 0.30069 0.28882 0.0
H2840 H 0.43051 0.53191 0.35379 0.0
H2841 H 0.3988 0.46237 0.33206 0.0
H2842 H 0.40763 0.44566 0.37302 0.0
H2843 H 0.47887 0.50751 0.39319 0.0
H2844 H 0.47569 0.53181 0.4151 0.0
H2845 H 0.46912 0.53727 0.38336 0.0
H2846 H 0.42589 0.55232 0.39496 0.0
H2847 H 0.43225 0.54678 0.42667 0.0
H2848 H 0.40597 0.53269 0.41248 0.0
H2849 H 0.41725 0.43768 0.41739 0.0
H2850 H 0.42689 0.4391 0.46146 0.0
H2851 H 0.45163 0.51421 0.45355 0.0
C2852 C 0.42584 0.51302 0.35748 0.0
C2853 C 0.41411 0.49837 0.33979 0.0
C2854 C 0.40792 0.47386 0.3454 0.0
C2855 C 0.41289 0.46421 0.36857 0.0
C2856 C 0.42406 0.47934 0.3858 0.0
C2857 C 0.43055 0.50319 0.38047 0.0
C2858 C 0.44095 0.51614 0.40255 0.0
C2859 C 0.46775 0.52362 0.39829 0.0
C2860 C 0.42532 0.53828 0.40957 0.0
C2861 C 0.43887 0.49602 0.42127 0.0
C2862 C 0.42931 0.47485 0.41128 0.0
C2863 C 0.42495 0.4541 0.42537 0.0
C2864 C 0.43044 0.4551 0.45038 0.0
C2865 C 0.44 0.47676 0.46098 0.0
C2866 C 0.44439 0.49734 0.44607 0.0
H2867 H 0.29349 0.69358 0.10382 0.0
H2868 H 0.23897 0.63875 0.12257 0.0
H2869 H 0.22787 0.6625 0.15918 0.0
H2870 H 0.31329 0.70611 0.16516 0.0
H2871 H 0.3177 0.73829 0.15978 0.0
H2872 H 0.32105 0.71693 0.13507 0.0
H2873 H 0.2889 0.74078 0.11005 0.0
H2874 H 0.28519 0.762 0.13487 0.0
H2875 H 0.25903 0.7458 0.12282 0.0
H2876 H 0.22304 0.69189 0.19385 0.0
H2877 H 0.22673 0.7235 0.22576 0.0
H2878 H 0.28395 0.75945 0.1839 0.0
C2879 C 0.27931 0.68651 0.11571 0.0
C2880 C 0.2671 0.66433 0.11043 0.0
C2881 C 0.2486 0.65569 0.12635 0.0
C2882 C 0.24208 0.6691 0.14709 0.0
C2883 C 0.25421 0.6911 0.15157 0.0
C2884 C 0.27256 0.69966 0.13645 0.0
C2885 C 0.28308 0.72358 0.14568 0.0
C2886 C 0.31039 0.72106 0.15179 0.0
C2887 C 0.27878 0.74426 0.12725 0.0
C2888 C 0.26791 0.72702 0.16846 0.0
C2889 C 0.25127 0.70816 0.17146 0.0
C2890 C 0.23591 0.70683 0.19166 0.0
C2891 C 0.2381 0.72491 0.20965 0.0
C2892 C 0.25552 0.74404 0.20728 0.0
C2893 C 0.27018 0.74532 0.1861 0.0
H2894 H 0.08982 0.53912 0.85373 0.0
H2895 H 0.0477 0.47617 0.82955 0.0
H2896 H 0.01415 0.48769 0.85709 0.0
H2897 H 0.07511 0.53325 0.91506 0.0
H2898 H 0.0738 0.56552 0.92127 0.0
H2899 H 0.09265 0.55449 0.8969 0.0
H2900 H 0.07016 0.58298 0.86667 0.0
H2901 H 0.05093 0.59378 0.89102 0.0
H2902 H 0.03739 0.58091 0.86386 0.0
H2903 H 0.98725 0.50318 0.88963 0.0
H2904 H 0.9711 0.51847 0.9286 0.0
H2905 H 0.03062 0.57122 0.93247 0.0
C2906 C 0.07335 0.52804 0.854 0.0
C2907 C 0.07124 0.50684 0.83953 0.0
C2908 C 0.04966 0.49246 0.8406 0.0
C2909 C 0.0304 0.49902 0.85594 0.0
C2910 C 0.03302 0.51999 0.87008 0.0
C2911 C 0.05402 0.53418 0.86946 0.0
C2912 C 0.0534 0.55402 0.88867 0.0
C2913 C 0.075 0.55166 0.90653 0.0
C2914 C 0.05294 0.57943 0.87684 0.0
C2915 C 0.02925 0.54806 0.90086 0.0
C2916 C 0.01749 0.52879 0.8894 0.0
C2917 C 0.99605 0.51851 0.89858 0.0
C2918 C 0.987 0.52734 0.92074 0.0
C2919 C -0.00042 0.54606 0.93356 0.0
C2920 C 0.02033 0.55723 0.92288 0.0
H2921 H 0.18598 0.28571 0.58362 0.0
H2922 H 0.25645 0.29053 0.54795 0.0
H2923 H 0.27444 0.26501 0.58021 0.0
H2924 H 0.20517 0.29623 0.63875 0.0
H2925 H 0.18525 0.27567 0.65517 0.0
H2926 H 0.17608 0.28716 0.62601 0.0
H2927 H 0.1704 0.24315 0.60953 0.0
H2928 H 0.17904 0.23142 0.639 0.0
H2929 H 0.19508 0.22173 0.61202 0.0
H2930 H 0.28673 0.24851 0.62125 0.0
H2931 H 0.29097 0.24005 0.66558 0.0
H2932 H 0.21247 0.24638 0.67369 0.0
C2933 C 0.20489 0.28032 0.58196 0.0
C2934 C 0.21981 0.29004 0.56339 0.0
C2935 C 0.24463 0.28308 0.56198 0.0
C2936 C 0.25504 0.26859 0.58025 0.0
C2937 C 0.24024 0.26083 0.59946 0.0
C2938 C 0.21549 0.26594 0.60005 0.0
C2939 C 0.20425 0.25885 0.6242 0.0
C2940 C 0.19201 0.28079 0.63675 0.0
C2941 C 0.18613 0.23751 0.62099 0.0
C2942 C 0.22684 0.25088 0.63774 0.0
C2943 C 0.24737 0.25146 0.62314 0.0
C2944 C 0.27067 0.24732 0.6327 0.0
C2945 C 0.27297 0.2427 0.65786 0.0
C2946 C 0.2521 0.24282 0.67303 0.0
C2947 C 0.22883 0.24633 0.66258 0.0
H2948 H 0.43673 0.48231 0.21788 0.0
H2949 H 0.46859 0.55272 0.23614 0.0
H2950 H 0.50137 0.54584 0.20594 0.0
H2951 H 0.49513 0.44984 0.20344 0.0
H2952 H 0.48109 0.43367 0.17836 0.0
H2953 H 0.46313 0.44187 0.20464 0.0
H2954 H 0.43247 0.46446 0.17672 0.0
H2955 H 0.45014 0.45611 0.15049 0.0
H2956 H 0.44362 0.48778 0.15628 0.0
H2957 H 0.52642 0.5344 0.17002 0.0
H2958 H 0.53953 0.52113 0.12905 0.0
H2959 H 0.49158 0.45816 0.13371 0.0
C2960 C 0.451 0.49598 0.216 0.0
C2961 C 0.45032 0.51795 0.22946 0.0
C2962 C 0.4689 0.53571 0.22607 0.0
C2963 C 0.48768 0.53185 0.20912 0.0
C2964 C 0.48761 0.51012 0.19582 0.0
C2965 C 0.46969 0.4925 0.19904 0.0
C2966 C 0.47172 0.47235 0.18023 0.0
C2967 C 0.47816 0.44799 0.1924 0.0
C2968 C 0.4481 0.47007 0.16503 0.0
C2969 C 0.49284 0.48196 0.16512 0.0
C2970 C 0.50217 0.50344 0.17484 0.0
C2971 C 0.51979 0.51726 0.16263 0.0
C2972 C 0.52725 0.50954 0.13946 0.0
C2973 C 0.51713 0.48823 0.12882 0.0
C2974 C 0.50037 0.47385 0.14209 0.0
H2975 H 0.26485 0.69028 0.98347 0.0
H2976 H 0.3408 0.67114 0.99383 0.0
H2977 H 0.35122 0.6912 0.95469 0.0
H2978 H 0.26224 0.67328 0.92519 0.0
H2979 H 0.2416 0.69655 0.91485 0.0
H2980 H 0.24125 0.68727 0.94621 0.0
H2981 H 0.24889 0.73197 0.95996 0.0
H2982 H 0.24901 0.74152 0.92848 0.0
H2983 H 0.27464 0.74877 0.94792 0.0
H2984 H 0.35198 0.70729 0.91145 0.0
H2985 H 0.34251 0.71507 0.86782 0.0
H2986 H 0.26568 0.72017 0.88554 0.0
C2987 C 0.28385 0.69119 0.97803 0.0
C2988 C 0.30208 0.67947 0.99174 0.0
C2989 C 0.32661 0.68031 0.98365 0.0
C2990 C 0.33268 0.69173 0.96151 0.0
C2991 C 0.31399 0.70216 0.94779 0.0
C2992 C 0.29004 0.70201 0.95586 0.0
C2993 C 0.27265 0.71049 0.93628 0.0
C2994 C 0.25333 0.69072 0.93029 0.0
C2995 C 0.26059 0.73463 0.9436 0.0
C2996 C 0.29031 0.71419 0.91548 0.0
C2997 C 0.31419 0.71016 0.92257 0.0
C2998 C 0.33341 0.7109 0.90582 0.0
C2999 C 0.32793 0.71531 0.88116 0.0
C3000 C 0.30342 0.71814 0.87364 0.0
C3001 C 0.28457 0.71814 0.89105 0.0
H3002 H 0.08347 0.5277 0.71739 0.0
H3003 H 0.04614 0.46692 0.75223 0.0
H3004 H 0.00954 0.47458 0.7271 0.0
H3005 H 0.02998 0.56709 0.70872 0.0
H3006 H 0.03993 0.57717 0.67902 0.0
H3007 H 0.06213 0.569 0.70185 0.0
H3008 H 0.08129 0.53756 0.67223 0.0
H3009 H 0.05951 0.54604 0.64927 0.0
H3010 H 0.062 0.51457 0.6584 0.0
H3011 H 0.97803 0.48723 0.69681 0.0
H3012 H 0.9568 0.49907 0.65903 0.0
H3013 H 0.01507 0.55084 0.64298 0.0
C3014 C 0.06747 0.51619 0.71985 0.0
C3015 C 0.06749 0.49681 0.73674 0.0
C3016 C 0.04646 0.48182 0.73926 0.0
C3017 C 0.0255 0.48622 0.72531 0.0
C3018 C 0.02596 0.5056 0.70889 0.0
C3019 C 0.04654 0.52009 0.7058 0.0
C3020 C 0.0433 0.53787 0.68497 0.0
C3021 C 0.04387 0.56435 0.6942 0.0
C3022 C 0.06266 0.53375 0.66504 0.0
C3023 C 0.01799 0.53059 0.67636 0.0
C3024 C 0.00802 0.51243 0.69082 0.0
C3025 C 0.98551 0.50162 0.68547 0.0
C3026 C 0.97349 0.5086 0.66402 0.0
C3027 C 0.98429 0.52586 0.64801 0.0
C3028 C 0.00625 0.53774 0.65493 0.0
H3029 H 0.18375 0.3285 0.45008 0.0
H3030 H 0.205 0.40445 0.45927 0.0
H3031 H 0.20578 0.40964 0.41462 0.0
H3032 H 0.222 0.31627 0.40182 0.0
H3033 H 0.20121 0.29642 0.38555 0.0
H3034 H 0.19871 0.29948 0.41811 0.0
H3035 H 0.15344 0.31215 0.41357 0.0
H3036 H 0.15578 0.30907 0.38091 0.0
H3037 H 0.14572 0.33741 0.39405 0.0
H3038 H 0.21015 0.40522 0.36992 0.0
H3039 H 0.21672 0.39165 0.32752 0.0
H3040 H 0.19131 0.31896 0.34674 0.0
C3041 C 0.188 0.34635 0.44266 0.0
C3042 C 0.19427 0.36609 0.45805 0.0
C3043 C 0.20009 0.3891 0.44776 0.0
C3044 C 0.20048 0.39226 0.42243 0.0
C3045 C 0.19475 0.3723 0.40772 0.0
C3046 C 0.1884 0.34984 0.4174 0.0
C3047 C 0.18504 0.33088 0.39754 0.0
C3048 C 0.20281 0.30952 0.40097 0.0
C3049 C 0.15841 0.32185 0.39646 0.0
C3050 C 0.1915 0.34597 0.37531 0.0
C3051 C 0.19679 0.36988 0.38159 0.0
C3052 C 0.20553 0.38672 0.36464 0.0
C3053 C 0.20931 0.37883 0.34067 0.0
C3054 C 0.20425 0.35437 0.33392 0.0
C3055 C 0.19473 0.33792 0.35134 0.0
H3056 H 0.28433 0.38568 0.52389 0.0
H3057 H 0.24988 0.40175 0.59323 0.0
H3058 H 0.28772 0.42277 0.60708 0.0
H3059 H 0.34365 0.37302 0.54787 0.0
H3060 H 0.35934 0.38655 0.52227 0.0
H3061 H 0.32946 0.37319 0.51817 0.0
H3062 H 0.31376 0.414 0.50029 0.0
H3063 H 0.3436 0.42746 0.50429 0.0
H3064 H 0.3173 0.44169 0.51777 0.0
H3065 H 0.32977 0.44321 0.61241 0.0
H3066 H 0.37212 0.45953 0.60908 0.0
H3067 H 0.37763 0.42791 0.53665 0.0
C3068 C 0.28469 0.39364 0.54199 0.0
C3069 C 0.26427 0.39224 0.55748 0.0
C3070 C 0.26545 0.4027 0.58109 0.0
C3071 C 0.28681 0.41466 0.58909 0.0
C3072 C 0.30671 0.41573 0.57327 0.0
C3073 C 0.30578 0.40536 0.55026 0.0
C3074 C 0.32948 0.40866 0.5367 0.0
C3075 C 0.34117 0.38388 0.53093 0.0
C3076 C 0.32581 0.42386 0.5134 0.0
C3077 C 0.34398 0.42258 0.55559 0.0
C3078 C 0.33067 0.4267 0.57656 0.0
C3079 C 0.34041 0.43992 0.59613 0.0
C3080 C 0.36441 0.44913 0.59409 0.0
C3081 C 0.37825 0.44479 0.57274 0.0
C3082 C 0.36775 0.43128 0.55341 0.0
H3083 H 0.84474 0.09191 0.52135 0.0
H3084 H 0.81807 0.07014 0.44999 0.0
H3085 H 0.85815 0.05182 0.44065 0.0
H3086 H 0.90261 0.11058 0.50153 0.0
H3087 H 0.91853 0.10029 0.52836 0.0
H3088 H 0.887 0.10899 0.53044 0.0
H3089 H 0.87583 0.06668 0.54867 0.0
H3090 H 0.90742 0.05795 0.5469 0.0
H3091 H 0.88422 0.03937 0.53246 0.0
H3092 H 0.90232 0.03748 0.43869 0.0
H3093 H 0.94658 0.02943 0.44421 0.0
H3094 H 0.9435 0.06303 0.51589 0.0
C3095 C 0.84716 0.0828 0.50399 0.0
C3096 C 0.82834 0.08217 0.48648 0.0
C3097 C 0.83232 0.07064 0.4637 0.0
C3098 C 0.85498 0.06019 0.45825 0.0
C3099 C 0.87342 0.06162 0.47573 0.0
C3100 C 0.8697 0.07265 0.49814 0.0
C3101 C 0.89283 0.07342 0.51311 0.0
C3102 C 0.9007 0.09989 0.51867 0.0
C3103 C 0.88989 0.05845 0.53668 0.0
C3104 C 0.91021 0.06137 0.49556 0.0
C3105 C 0.89877 0.05437 0.4742 0.0
C3106 C 0.91147 0.04288 0.45538 0.0
C3107 C 0.93655 0.03842 0.45861 0.0
C3108 C 0.94852 0.04585 0.48031 0.0
C3109 C 0.93502 0.05741 0.4989 0.0
H3110 H 0.69436 0.04427 0.23559 0.0
H3111 H 0.66322 0.03881 0.30819 0.0
H3112 H 0.6792 0.08001 0.31791 0.0
H3113 H 0.74968 0.07951 0.25298 0.0
H3114 H 0.74882 0.09751 0.22549 0.0
H3115 H 0.73735 0.06659 0.22528 0.0
H3116 H 0.69576 0.08177 0.20884 0.0
H3117 H 0.70703 0.1127 0.20911 0.0
H3118 H 0.67951 0.10491 0.2255 0.0
H3119 H 0.69474 0.12294 0.3182 0.0
H3120 H 0.70947 0.16464 0.30951 0.0
H3121 H 0.73083 0.14202 0.23668 0.0
C3122 C 0.69132 0.05155 0.2537 0.0
C3123 C 0.67765 0.0384 0.2712 0.0
C3124 C 0.67375 0.0486 0.29458 0.0
C3125 C 0.68278 0.07193 0.30026 0.0
C3126 C 0.69579 0.08463 0.2824 0.0
C3127 C 0.7002 0.07475 0.25965 0.0
C3128 C 0.71327 0.09278 0.2432 0.0
C3129 C 0.7388 0.08354 0.23634 0.0
C3130 C 0.69797 0.09837 0.22032 0.0
C3131 C 0.71488 0.11462 0.26002 0.0
C3132 C 0.70488 0.10945 0.28261 0.0
C3133 C 0.70292 0.12713 0.30071 0.0
C3134 C 0.71123 0.15078 0.29553 0.0
C3135 C 0.72135 0.15656 0.27241 0.0
C3136 C 0.72348 0.13809 0.2546 0.0
H3137 H 0.70379 0.91962 0.00213 0.0
H3138 H 0.67512 0.84646 0.01352 0.0
H3139 H 0.63354 0.86098 0.00373 0.0
H3140 H 0.65219 0.9511 0.02901 0.0
H3141 H 0.65407 0.97607 0.00769 0.0
H3142 H 0.68121 0.95968 0.01592 0.0
H3143 H 0.68936 0.95096 0.97014 0.0
H3144 H 0.66195 0.96689 0.96181 0.0
H3145 H 0.66619 0.93577 0.95216 0.0
H3146 H 0.59586 0.88305 0.99044 0.0
H3147 H 0.56326 0.91211 0.9808 0.0
H3148 H 0.61661 0.97131 0.97959 0.0
C3149 C 0.6887 0.90672 0.0028 0.0
C3150 C 0.69251 0.88194 0.00849 0.0
C3151 C 0.67243 0.86556 0.00933 0.0
C3152 C 0.64886 0.87359 0.0036 0.0
C3153 C 0.64583 0.89805 -0.0026 0.0
C3154 C 0.66511 0.91448 -0.00253 0.0
C3155 C 0.65688 0.93992 0.99086 0.0
C3156 C 0.66135 0.95774 0.01214 0.0
C3157 C 0.66934 0.9489 0.96734 0.0
C3158 C 0.62992 0.93522 0.98686 0.0
C3159 C 0.624 0.91092 0.99044 0.0
C3160 C 0.60024 0.90215 0.98775 0.0
C3161 C 0.58188 0.91884 0.9821 0.0
C3162 C 0.58734 0.94408 0.97949 0.0
C3163 C 0.61181 0.95218 0.98139 0.0
H3164 H 0.30838 0.50165 0.26837 0.0
H3165 H 0.35017 0.49866 0.20151 0.0
H3166 H 0.31853 0.47177 0.18313 0.0
H3167 H 0.29552 0.44411 0.27259 0.0
H3168 H 0.26492 0.44632 0.28448 0.0
H3169 H 0.2861 0.47092 0.28908 0.0
H3170 H 0.256 0.50092 0.26861 0.0
H3171 H 0.23452 0.4762 0.26397 0.0
H3172 H 0.24443 0.4945 0.23846 0.0
H3173 H 0.28905 0.43708 0.17679 0.0
H3174 H 0.26557 0.39885 0.18341 0.0
H3175 H 0.24236 0.42547 0.25395 0.0
C3176 C 0.31026 0.49614 0.24949 0.0
C3177 C 0.33148 0.50207 0.23627 0.0
C3178 C 0.33376 0.49444 0.21176 0.0
C3179 C 0.31584 0.47923 0.2012 0.0
C3180 C 0.2956 0.47249 0.21526 0.0
C3181 C 0.29251 0.48122 0.23877 0.0
C3182 C 0.27164 0.46846 0.25165 0.0
C3183 C 0.28008 0.45675 0.27583 0.0
C3184 C 0.25039 0.48608 0.25591 0.0
C3185 C 0.26503 0.4495 0.23272 0.0
C3186 C 0.27835 0.45256 0.21146 0.0
C3187 C 0.27791 0.43498 0.19297 0.0
C3188 C 0.26451 0.41332 0.19682 0.0
C3189 C 0.25221 0.40943 0.21917 0.0
C3190 C 0.25144 0.42827 0.23661 0.0
H3191 H 0.20281 0.58106 0.04834 0.0
H3192 H 0.20601 0.63779 0.99313 0.0
H3193 H 0.1627 0.63014 0.98312 0.0
H3194 H 0.1609 0.53994 0.01486 0.0
H3195 H 0.14499 0.53078 0.04218 0.0
H3196 H 0.17683 0.53931 0.04365 0.0
H3197 H 0.16689 0.57167 0.07662 0.0
H3198 H 0.13504 0.56336 0.07515 0.0
H3199 H 0.14436 0.5946 0.07022 0.0
H3200 H 0.11869 0.61908 0.98157 0.0
H3201 H 0.07659 0.60395 0.98721 0.0
H3202 H 0.10182 0.55369 0.04288 0.0
C3203 C 0.19448 0.59158 0.03388 0.0
C3204 C 0.20769 0.60998 0.02147 0.0
C3205 C 0.19618 0.62356 0.00281 0.0
C3206 C 0.17162 0.61934 -0.00302 0.0
C3207 C 0.15896 0.60138 0.00986 0.0
C3208 C 0.16998 0.58755 0.02776 0.0
C3209 C 0.15192 0.57009 0.03951 0.0
C3210 C 0.15909 0.54345 0.03476 0.0
C3211 C 0.14941 0.57525 0.067 0.0
C3212 C 0.12891 0.57671 0.0258 0.0
C3213 C 0.13344 0.59474 0.00873 0.0
C3214 C 0.11492 0.60476 0.99466 0.0
C3215 C 0.09106 0.59613 -0.00189 0.0
C3216 C 0.08596 0.57761 0.01546 0.0
C3217 C 0.10521 0.56767 0.02931 0.0
H3218 H 0.69808 0.908 0.23008 0.0
H3219 H 0.68604 0.91902 0.30747 0.0
H3220 H 0.71405 0.88492 0.31672 0.0
H3221 H 0.69935 0.8442 0.23078 0.0
H3222 H 0.723 0.84185 0.20807 0.0
H3223 H 0.70319 0.86783 0.20819 0.0
H3224 H 0.74098 0.89666 0.21064 0.0
H3225 H 0.76091 0.87067 0.21073 0.0
H3226 H 0.76281 0.89285 0.23497 0.0
H3227 H 0.74077 0.84676 0.31678 0.0
H3228 H 0.76353 0.80892 0.30752 0.0
H3229 H 0.75945 0.82601 0.23027 0.0
C3230 C 0.70143 0.90333 0.24899 0.0
C3231 C 0.68986 0.91594 0.26807 0.0
C3232 C 0.6948 0.90947 0.29259 0.0
C3233 C 0.7107 0.89022 0.298 0.0
C3234 C 0.72179 0.87803 0.27867 0.0
C3235 C 0.71748 0.88455 0.25467 0.0
C3236 C 0.73097 0.86835 0.2371 0.0
C3237 C 0.71306 0.85475 0.22005 0.0
C3238 C 0.75005 0.88301 0.22251 0.0
C3239 C 0.743 0.85118 0.25486 0.0
C3240 C 0.73768 0.85697 0.27879 0.0
C3241 C 0.74539 0.84231 0.29812 0.0
C3242 C 0.75835 0.8209 0.29271 0.0
C3243 C 0.76339 0.81449 0.26819 0.0
C3244 C 0.75616 0.83035 0.24926 0.0
H3245 H 0.80481 0.09028 0.73216 0.0
H3246 H 0.82424 0.08308 0.80849 0.0
H3247 H 0.79347 0.11393 0.81928 0.0
H3248 H 0.80064 0.15094 0.73068 0.0
H3249 H 0.77493 0.15277 0.7102 0.0
H3250 H 0.79422 0.12654 0.70946 0.0
H3251 H 0.75645 0.09857 0.71673 0.0
H3252 H 0.73703 0.12496 0.71776 0.0
H3253 H 0.73718 0.10371 0.74285 0.0
H3254 H 0.76939 0.1518 0.82034 0.0
H3255 H 0.75336 0.19285 0.81142 0.0
H3256 H 0.74575 0.17354 0.73529 0.0
C3257 C 0.80204 0.09473 0.75121 0.0
C3258 C 0.81684 0.08448 0.7695 0.0
C3259 C 0.81295 0.09074 0.79422 0.0
C3260 C 0.79541 0.10811 0.80052 0.0
C3261 C 0.78153 0.11849 0.78195 0.0
C3262 C 0.78436 0.11172 0.7578 0.0
C3263 C 0.76945 0.12764 0.74099 0.0
C3264 C 0.78579 0.14022 0.72174 0.0
C3265 C 0.7488 0.11283 0.72887 0.0
C3266 C 0.75939 0.14569 0.75922 0.0
C3267 C 0.76614 0.13981 0.78285 0.0
C3268 C 0.763 0.15609 0.80216 0.0
C3269 C 0.75384 0.17932 0.79701 0.0
C3270 C 0.74758 0.18575 0.77288 0.0
C3271 C 0.74924 0.16839 0.75405 0.0
loop_
_geom_bond_atom_site_label_1
_geom_bond_atom_site_label_2
_geom_bond_distance
_geom_bond_site_symmetry_2
_ccdc_geom_bond_type
In0 O1 2.294 . S
In0 O2 2.326 . S
In0 O6 2.266 . S
In0 O7 2.326 . S
In0 O8 2.266 . S
In0 O9 2.326 . S
In0 O11 2.294 1_455 S
In0 O12 2.326 1_455 S
O1 In0 2.294 . S
O1 C10 1.240 . S
O2 In0 2.326 . S
O2 C10 1.252 . S
C3 O6 1.252 . S
C3 O7 1.260 . S
C4 O11 1.240 . S
C4 O12 1.252 . S
C5 O8 1.252 . S
C5 O9 1.260 . S
O6 In0 2.266 . S
O6 C3 1.252 . S
O7 In0 2.326 . S
O7 C3 1.260 . S
O8 In0 2.266 . S
O8 C5 1.252 . S
O9 In0 2.326 . S
O9 C5 1.260 . S
C10 O1 1.240 . S
C10 O2 1.252 . S
O11 In0 2.294 1_655 S
O11 C4 1.240 . S
O12 In0 2.326 1_655 S
O12 C4 1.252 . S
In13 O14 2.294 . S
In13 O15 2.326 . S
In13 O19 2.266 1_455 S
In13 O20 2.326 1_455 S
In13 O21 2.266 . S
In13 O22 2.326 . S
In13 O24 2.294 . S
In13 O25 2.326 . S
O14 In13 2.294 . S
O14 C23 1.240 . S
O15 In13 2.326 . S
O15 C23 1.252 . S
C16 O19 1.252 . S
C16 O20 1.260 . S
C17 O24 1.240 . S
C17 O25 1.252 . S
C18 O21 1.252 . S
C18 O22 1.260 . S
O19 In13 2.266 1_655 S
O19 C16 1.252 . S
O20 In13 2.326 1_655 S
O20 C16 1.260 . S
O21 In13 2.266 . S
O21 C18 1.252 . S
O22 In13 2.326 . S
O22 C18 1.260 . S
C23 O14 1.240 . S
C23 O15 1.252 . S
O24 In13 2.294 . S
O24 C17 1.240 . S
O25 In13 2.326 . S
O25 C17 1.252 . S
In26 O27 2.294 . S
In26 O28 2.326 . S
In26 O32 2.266 . S
In26 O33 2.326 . S
In26 O34 2.266 . S
In26 O35 2.326 . S
In26 O37 2.294 . S
In26 O38 2.326 . S
O27 In26 2.294 . S
O27 C36 1.240 . S
O28 In26 2.326 . S
O28 C36 1.252 . S
C29 O32 1.252 . S
C29 O33 1.260 . S
C30 O37 1.240 . S
C30 O38 1.252 . S
C31 O34 1.252 . S
C31 O35 1.260 . S
O32 In26 2.266 . S
O32 C29 1.252 . S
O33 In26 2.326 . S
O33 C29 1.260 . S
O34 In26 2.266 . S
O34 C31 1.252 . S
O35 In26 2.326 . S
O35 C31 1.260 . S
C36 O27 1.240 . S
C36 O28 1.252 . S
O37 In26 2.294 . S
O37 C30 1.240 . S
O38 In26 2.326 . S
O38 C30 1.252 . S
In39 O40 2.294 . S
In39 O41 2.326 . S
In39 O45 2.266 . S
In39 O46 2.326 . S
In39 O47 2.266 . S
In39 O48 2.326 . S
In39 O50 2.294 . S
In39 O51 2.326 . S
O40 In39 2.294 . S
O40 C49 1.240 . S
O41 In39 2.326 . S
O41 C49 1.252 . S
C42 O45 1.252 . S
C42 O46 1.260 . S
C43 O50 1.240 . S
C43 O51 1.252 . S
C44 O47 1.252 . S
C44 O48 1.260 . S
O45 In39 2.266 . S
O45 C42 1.252 . S
O46 In39 2.326 . S
O46 C42 1.260 . S
O47 In39 2.266 . S
O47 C44 1.252 . S
O48 In39 2.326 . S
O48 C44 1.260 . S
C49 O40 1.240 . S
C49 O41 1.252 . S
O50 In39 2.294 . S
O50 C43 1.240 . S
O51 In39 2.326 . S
O51 C43 1.252 . S
In52 O53 2.294 1_545 S
In52 O54 2.326 1_545 S
In52 O58 2.266 . S
In52 O59 2.326 . S
In52 O60 2.266 . S
In52 O61 2.326 . S
In52 O63 2.294 . S
In52 O64 2.326 . S
O53 In52 2.294 1_565 S
O53 C62 1.240 . S
O54 In52 2.326 1_565 S
O54 C62 1.252 . S
C55 O58 1.252 . S
C55 O59 1.260 . S
C56 O63 1.240 . S
C56 O64 1.252 . S
C57 O60 1.252 . S
C57 O61 1.260 . S
O58 In52 2.266 . S
O58 C55 1.252 . S
O59 In52 2.326 . S
O59 C55 1.260 . S
O60 In52 2.266 . S
O60 C57 1.252 . S
O61 In52 2.326 . S
O61 C57 1.260 . S
C62 O53 1.240 . S
C62 O54 1.252 . S
O63 In52 2.294 . S
O63 C56 1.240 . S
O64 In52 2.326 . S
O64 C56 1.252 . S
In65 O66 2.294 . S
In65 O67 2.326 . S
In65 O71 2.266 . S
In65 O72 2.326 . S
In65 O73 2.266 . S
In65 O74 2.326 . S
In65 O76 2.294 . S
In65 O77 2.326 . S
O66 In65 2.294 . S
O66 C75 1.240 . S
O67 In65 2.326 . S
O67 C75 1.252 . S
C68 O71 1.252 . S
C68 O72 1.260 . S
C69 O76 1.240 . S
C69 O77 1.252 . S
C70 O73 1.252 . S
C70 O74 1.260 . S
O71 In65 2.266 . S
O71 C68 1.252 . S
O72 In65 2.326 . S
O72 C68 1.260 . S
O73 In65 2.266 . S
O73 C70 1.252 . S
O74 In65 2.326 . S
O74 C70 1.260 . S
C75 O66 1.240 . S
C75 O67 1.252 . S
O76 In65 2.294 . S
O76 C69 1.240 . S
O77 In65 2.326 . S
O77 C69 1.252 . S
In78 O79 2.294 . S
In78 O80 2.326 . S
In78 O84 2.266 1_545 S
In78 O85 2.326 1_545 S
In78 O86 2.266 1_545 S
In78 O87 2.326 1_545 S
In78 O89 2.294 . S
In78 O90 2.326 . S
O79 In78 2.294 . S
O79 C88 1.240 . S
O80 In78 2.326 . S
O80 C88 1.252 . S
C81 O84 1.252 . S
C81 O85 1.260 . S
C82 O89 1.240 . S
C82 O90 1.252 . S
C83 O86 1.252 . S
C83 O87 1.260 . S
O84 In78 2.266 1_565 S
O84 C81 1.252 . S
O85 In78 2.326 1_565 S
O85 C81 1.260 . S
O86 In78 2.266 1_565 S
O86 C83 1.252 . S
O87 In78 2.326 1_565 S
O87 C83 1.260 . S
C88 O79 1.240 . S
C88 O80 1.252 . S
O89 In78 2.294 . S
O89 C82 1.240 . S
O90 In78 2.326 . S
O90 C82 1.252 . S
In91 O92 2.294 . S
In91 O93 2.326 . S
In91 O97 2.266 . S
In91 O98 2.326 . S
In91 O99 2.266 1_554 S
In91 O100 2.326 1_554 S
In91 O102 2.294 . S
In91 O103 2.326 . S
O92 In91 2.294 . S
O92 C101 1.240 . S
O93 In91 2.326 . S
O93 C101 1.252 . S
C94 O97 1.252 . S
C94 O98 1.260 . S
C95 O102 1.240 . S
C95 O103 1.252 . S
C96 O99 1.252 . S
C96 O100 1.260 . S
O97 In91 2.266 . S
O97 C94 1.252 . S
O98 In91 2.326 . S
O98 C94 1.260 . S
O99 In91 2.266 1_556 S
O99 C96 1.252 . S
O100 In91 2.326 1_556 S
O100 C96 1.260 . S
C101 O92 1.240 . S
C101 O93 1.252 . S
O102 In91 2.294 . S
O102 C95 1.240 . S
O103 In91 2.326 . S
O103 C95 1.252 . S
In104 O105 2.294 . S
In104 O106 2.326 . S
In104 O110 2.266 1_554 S
In104 O111 2.326 1_554 S
In104 O112 2.266 . S
In104 O113 2.326 . S
In104 O115 2.294 . S
In104 O116 2.326 . S
O105 In104 2.294 . S
O105 C114 1.240 . S
O106 In104 2.326 . S
O106 C114 1.252 . S
C107 O110 1.252 . S
C107 O111 1.260 . S
C108 O115 1.240 . S
C108 O116 1.252 . S
C109 O112 1.252 . S
C109 O113 1.260 . S
O110 In104 2.266 1_556 S
O110 C107 1.252 . S
O111 In104 2.326 1_556 S
O111 C107 1.260 . S
O112 In104 2.266 . S
O112 C109 1.252 . S
O113 In104 2.326 . S
O113 C109 1.260 . S
C114 O105 1.240 . S
C114 O106 1.252 . S
O115 In104 2.294 . S
O115 C108 1.240 . S
O116 In104 2.326 . S
O116 C108 1.252 . S
In117 O118 2.294 . S
In117 O119 2.326 . S
In117 O123 2.266 . S
In117 O124 2.326 . S
In117 O125 2.266 . S
In117 O126 2.326 . S
In117 O128 2.294 . S
In117 O129 2.326 . S
O118 In117 2.294 . S
O118 C127 1.240 . S
O119 In117 2.326 . S
O119 C127 1.252 . S
C120 O123 1.252 . S
C120 O124 1.260 . S
C121 O128 1.240 . S
C121 O129 1.252 . S
C122 O125 1.252 . S
C122 O126 1.260 . S
O123 In117 2.266 . S
O123 C120 1.252 . S
O124 In117 2.326 . S
O124 C120 1.260 . S
O125 In117 2.266 . S
O125 C122 1.252 . S
O126 In117 2.326 . S
O126 C122 1.260 . S
C127 O118 1.240 . S
C127 O119 1.252 . S
O128 In117 2.294 . S
O128 C121 1.240 . S
O129 In117 2.326 . S
O129 C121 1.252 . S
In130 O131 2.294 . S
In130 O132 2.326 . S
In130 O136 2.266 . S
In130 O137 2.326 . S
In130 O138 2.266 . S
In130 O139 2.326 . S
In130 O141 2.294 . S
In130 O142 2.326 . S
O131 In130 2.294 . S
O131 C140 1.240 . S
O132 In130 2.326 . S
O132 C140 1.252 . S
C133 O136 1.252 . S
C133 O137 1.260 . S
C134 O141 1.240 . S
C134 O142 1.252 . S
C135 O138 1.252 . S
C135 O139 1.260 . S
O136 In130 2.266 . S
O136 C133 1.252 . S
O137 In130 2.326 . S
O137 C133 1.260 . S
O138 In130 2.266 . S
O138 C135 1.252 . S
O139 In130 2.326 . S
O139 C135 1.260 . S
C140 O131 1.240 . S
C140 O132 1.252 . S
O141 In130 2.294 . S
O141 C134 1.240 . S
O142 In130 2.326 . S
O142 C134 1.252 . S
In143 O144 2.294 . S
In143 O145 2.326 . S
In143 O149 2.266 . S
In143 O150 2.326 . S
In143 O151 2.266 . S
In143 O152 2.326 . S
In143 O154 2.294 . S
In143 O155 2.326 . S
O144 In143 2.294 . S
O144 C153 1.240 . S
O145 In143 2.326 . S
O145 C153 1.252 . S
C146 O149 1.252 . S
C146 O150 1.260 . S
C147 O154 1.240 . S
C147 O155 1.252 . S
C148 O151 1.252 . S
C148 O152 1.260 . S
O149 In143 2.266 . S
O149 C146 1.252 . S
O150 In143 2.326 . S
O150 C146 1.260 . S
O151 In143 2.266 . S
O151 C148 1.252 . S
O152 In143 2.326 . S
O152 C148 1.260 . S
C153 O144 1.240 . S
C153 O145 1.252 . S
O154 In143 2.294 . S
O154 C147 1.240 . S
O155 In143 2.326 . S
O155 C147 1.252 . S
In156 O157 2.294 . S
In156 O158 2.326 . S
In156 O162 2.266 1_455 S
In156 O163 2.326 1_455 S
In156 O164 2.266 . S
In156 O165 2.326 . S
In156 O167 2.294 . S
In156 O168 2.326 . S
O157 In156 2.294 . S
O157 C166 1.240 . S
O158 In156 2.326 . S
O158 C166 1.252 . S
C159 O162 1.252 . S
C159 O163 1.260 . S
C160 O167 1.240 . S
C160 O168 1.252 . S
C161 O164 1.252 . S
C161 O165 1.260 . S
O162 In156 2.266 1_655 S
O162 C159 1.252 . S
O163 In156 2.326 1_655 S
O163 C159 1.260 . S
O164 In156 2.266 . S
O164 C161 1.252 . S
O165 In156 2.326 . S
O165 C161 1.260 . S
C166 O157 1.240 . S
C166 O158 1.252 . S
O167 In156 2.294 . S
O167 C160 1.240 . S
O168 In156 2.326 . S
O168 C160 1.252 . S
In169 O170 2.294 . S
In169 O171 2.326 . S
In169 O175 2.266 . S
In169 O176 2.326 . S
In169 O177 2.266 1_455 S
In169 O178 2.326 1_455 S
In169 O180 2.294 . S
In169 O181 2.326 . S
O170 In169 2.294 . S
O170 C179 1.240 . S
O171 In169 2.326 . S
O171 C179 1.252 . S
C172 O175 1.252 . S
C172 O176 1.260 . S
C173 O180 1.240 . S
C173 O181 1.252 . S
C174 O177 1.252 . S
C174 O178 1.260 . S
O175 In169 2.266 . S
O175 C172 1.252 . S
O176 In169 2.326 . S
O176 C172 1.260 . S
O177 In169 2.266 1_655 S
O177 C174 1.252 . S
O178 In169 2.326 1_655 S
O178 C174 1.260 . S
C179 O170 1.240 . S
C179 O171 1.252 . S
O180 In169 2.294 . S
O180 C173 1.240 . S
O181 In169 2.326 . S
O181 C173 1.252 . S
In182 O183 2.294 . S
In182 O184 2.326 . S
In182 O188 2.266 . S
In182 O189 2.326 . S
In182 O190 2.266 . S
In182 O191 2.326 . S
In182 O193 2.294 . S
In182 O194 2.326 . S
O183 In182 2.294 . S
O183 C192 1.240 . S
O184 In182 2.326 . S
O184 C192 1.252 . S
C185 O188 1.252 . S
C185 O189 1.260 . S
C186 O193 1.240 . S
C186 O194 1.252 . S
C187 O190 1.252 . S
C187 O191 1.260 . S
O188 In182 2.266 . S
O188 C185 1.252 . S
O189 In182 2.326 . S
O189 C185 1.260 . S
O190 In182 2.266 . S
O190 C187 1.252 . S
O191 In182 2.326 . S
O191 C187 1.260 . S
C192 O183 1.240 . S
C192 O184 1.252 . S
O193 In182 2.294 . S
O193 C186 1.240 . S
O194 In182 2.326 . S
O194 C186 1.252 . S
In195 O196 2.294 . S
In195 O197 2.326 . S
In195 O201 2.266 . S
In195 O202 2.326 . S
In195 O203 2.266 . S
In195 O204 2.326 . S
In195 O206 2.294 . S
In195 O207 2.326 . S
O196 In195 2.294 . S
O196 C205 1.240 . S
O197 In195 2.326 . S
O197 C205 1.252 . S
C198 O201 1.252 . S
C198 O202 1.260 . S
C199 O206 1.240 . S
C199 O207 1.252 . S
C200 O203 1.252 . S
C200 O204 1.260 . S
O201 In195 2.266 . S
O201 C198 1.252 . S
O202 In195 2.326 . S
O202 C198 1.260 . S
O203 In195 2.266 . S
O203 C200 1.252 . S
O204 In195 2.326 . S
O204 C200 1.260 . S
C205 O196 1.240 . S
C205 O197 1.252 . S
O206 In195 2.294 . S
O206 C199 1.240 . S
O207 In195 2.326 . S
O207 C199 1.252 . S
In208 O209 2.294 . S
In208 O210 2.326 . S
In208 O214 2.266 . S
In208 O215 2.326 . S
In208 O216 2.266 1_545 S
In208 O217 2.326 1_545 S
In208 O219 2.294 . S
In208 O220 2.326 . S
O209 In208 2.294 . S
O209 C218 1.240 . S
O210 In208 2.326 . S
O210 C218 1.252 . S
C211 O214 1.252 . S
C211 O215 1.260 . S
C212 O219 1.240 . S
C212 O220 1.252 . S
C213 O216 1.252 . S
C213 O217 1.260 . S
O214 In208 2.266 . S
O214 C211 1.252 . S
O215 In208 2.326 . S
O215 C211 1.260 . S
O216 In208 2.266 1_565 S
O216 C213 1.252 . S
O217 In208 2.326 1_565 S
O217 C213 1.260 . S
C218 O209 1.240 . S
C218 O210 1.252 . S
O219 In208 2.294 . S
O219 C212 1.240 . S
O220 In208 2.326 . S
O220 C212 1.252 . S
In221 O222 2.294 . S
In221 O223 2.326 . S
In221 O227 2.266 . S
In221 O228 2.326 . S
In221 O229 2.266 . S
In221 O230 2.326 . S
In221 O232 2.294 . S
In221 O233 2.326 . S
O222 In221 2.294 . S
O222 C231 1.240 . S
O223 In221 2.326 . S
O223 C231 1.252 . S
C224 O227 1.252 . S
C224 O228 1.260 . S
C225 O232 1.240 . S
C225 O233 1.252 . S
C226 O229 1.252 . S
C226 O230 1.260 . S
O227 In221 2.266 . S
O227 C224 1.252 . S
O228 In221 2.326 . S
O228 C224 1.260 . S
O229 In221 2.266 . S
O229 C226 1.252 . S
O230 In221 2.326 . S
O230 C226 1.260 . S
C231 O222 1.240 . S
C231 O223 1.252 . S
O232 In221 2.294 . S
O232 C225 1.240 . S
O233 In221 2.326 . S
O233 C225 1.252 . S
In234 O235 2.265 1_545 S
In234 O236 2.281 1_545 S
In234 O240 2.295 . S
In234 O241 2.371 . S
In234 O242 2.273 . S
In234 O243 2.329 . S
In234 O245 2.289 1_545 S
In234 O246 2.322 1_545 S
O235 In234 2.265 1_565 S
O235 C244 1.240 . S
O236 In234 2.281 1_565 S
O236 C244 1.252 . S
C237 O240 1.252 . S
C237 O241 1.260 . S
C238 O245 1.240 . S
C238 O246 1.252 . S
C239 O242 1.252 . S
C239 O243 1.260 . S
O240 In234 2.295 . S
O240 C237 1.252 . S
O241 In234 2.371 . S
O241 C237 1.260 . S
O242 In234 2.273 . S
O242 C239 1.252 . S
O243 In234 2.329 . S
O243 C239 1.260 . S
C244 O235 1.240 . S
C244 O236 1.252 . S
O245 In234 2.289 1_565 S
O245 C238 1.240 . S
O246 In234 2.322 1_565 S
O246 C238 1.252 . S
In247 O248 2.294 . S
In247 O249 2.326 . S
In247 O253 2.272 . S
In247 O254 2.326 . S
In247 O255 2.266 1_554 S
In247 O256 2.326 1_554 S
In247 O258 2.294 . S
In247 O259 2.326 . S
O248 In247 2.294 . S
O248 C257 1.240 . S
O249 In247 2.326 . S
O249 C257 1.252 . S
C250 O253 1.253 . S
C250 O254 1.260 . S
C251 O258 1.240 . S
C251 O259 1.252 . S
C252 O255 1.252 . S
C252 O256 1.260 . S
O253 In247 2.272 . S
O253 C250 1.253 . S
O254 In247 2.326 . S
O254 C250 1.260 . S
O255 In247 2.266 1_556 S
O255 C252 1.252 . S
O256 In247 2.326 1_556 S
O256 C252 1.260 . S
C257 O248 1.240 . S
C257 O249 1.252 . S
O258 In247 2.294 . S
O258 C251 1.240 . S
O259 In247 2.326 . S
O259 C251 1.252 . S
In260 O261 2.294 . S
In260 O262 2.326 . S
In260 O266 2.266 1_554 S
In260 O267 2.326 1_554 S
In260 O268 2.266 . S
In260 O269 2.326 . S
In260 O271 2.294 . S
In260 O272 2.326 . S
O261 In260 2.294 . S
O261 C270 1.240 . S
O262 In260 2.326 . S
O262 C270 1.252 . S
C263 O266 1.252 . S
C263 O267 1.260 . S
C264 O271 1.240 . S
C264 O272 1.252 . S
C265 O268 1.252 . S
C265 O269 1.262 . S
O266 In260 2.266 1_556 S
O266 C263 1.252 . S
O267 In260 2.326 1_556 S
O267 C263 1.260 . S
O268 In260 2.266 . S
O268 C265 1.252 . S
O269 In260 2.326 . S
O269 C265 1.262 . S
C270 O261 1.240 . S
C270 O262 1.252 . S
O271 In260 2.294 . S
O271 C264 1.240 . S
O272 In260 2.326 . S
O272 C264 1.252 . S
In273 O274 2.294 . S
In273 O275 2.326 . S
In273 O279 2.266 . S
In273 O280 2.326 . S
In273 O281 2.266 . S
In273 O282 2.326 . S
In273 O284 2.294 . S
In273 O285 2.326 . S
O274 In273 2.294 . S
O274 C283 1.240 . S
O275 In273 2.326 . S
O275 C283 1.252 . S
C276 O279 1.252 . S
C276 O280 1.260 . S
C277 O284 1.240 . S
C277 O285 1.252 . S
C278 O281 1.252 . S
C278 O282 1.260 . S
O279 In273 2.266 . S
O279 C276 1.252 . S
O280 In273 2.326 . S
O280 C276 1.260 . S
O281 In273 2.266 . S
O281 C278 1.252 . S
O282 In273 2.326 . S
O282 C278 1.260 . S
C283 O274 1.240 . S
C283 O275 1.252 . S
O284 In273 2.294 . S
O284 C277 1.240 . S
O285 In273 2.326 . S
O285 C277 1.252 . S
In286 O287 2.294 . S
In286 O288 2.326 . S
In286 O292 2.266 . S
In286 O293 2.326 . S
In286 O294 2.266 . S
In286 O295 2.326 . S
In286 O297 2.294 . S
In286 O298 2.326 . S
O287 In286 2.294 . S
O287 C296 1.240 . S
O288 In286 2.326 . S
O288 C296 1.252 . S
C289 O292 1.252 . S
C289 O293 1.260 . S
C290 O297 1.240 . S
C290 O298 1.252 . S
C291 O294 1.252 . S
C291 O295 1.260 . S
O292 In286 2.266 . S
O292 C289 1.252 . S
O293 In286 2.326 . S
O293 C289 1.260 . S
O294 In286 2.266 . S
O294 C291 1.252 . S
O295 In286 2.326 . S
O295 C291 1.260 . S
C296 O287 1.240 . S
C296 O288 1.252 . S
O297 In286 2.294 . S
O297 C290 1.240 . S
O298 In286 2.326 . S
O298 C290 1.252 . S
In299 O300 2.294 . S
In299 O301 2.326 . S
In299 O305 2.266 . S
In299 O306 2.326 . S
In299 O307 2.266 . S
In299 O308 2.326 . S
In299 O310 2.294 . S
In299 O311 2.326 . S
O300 In299 2.294 . S
O300 C309 1.240 . S
O301 In299 2.326 . S
O301 C309 1.252 . S
C302 O305 1.252 . S
C302 O306 1.260 . S
C303 O310 1.240 . S
C303 O311 1.252 . S
C304 O307 1.252 . S
C304 O308 1.260 . S
O305 In299 2.266 . S
O305 C302 1.252 . S
O306 In299 2.326 . S
O306 C302 1.260 . S
O307 In299 2.266 . S
O307 C304 1.252 . S
O308 In299 2.326 . S
O308 C304 1.260 . S
C309 O300 1.240 . S
C309 O301 1.252 . S
O310 In299 2.294 . S
O310 C303 1.240 . S
O311 In299 2.326 . S
O311 C303 1.252 . S
O312 Zn313 1.953 . S
O312 C328 1.225 1_455 S
Zn313 O312 1.953 . S
Zn313 O314 1.955 . S
Zn313 O320 1.919 1_554 S
Zn313 O325 1.924 1_454 S
O314 Zn313 1.955 . S
O314 Zn315 1.937 1_545 S
O314 Zn316 1.939 1_455 S
O314 Zn317 1.936 1_444 S
Zn315 O314 1.937 1_565 S
Zn315 O318 1.933 . S
Zn315 O321 1.941 1_565 S
Zn315 O322 1.965 . S
Zn316 O314 1.939 1_655 S
Zn316 O323 1.938 . S
Zn316 O324 1.906 1_545 S
Zn316 O334 1.953 . S
Zn317 O314 1.936 1_666 S
Zn317 O319 1.932 . S
Zn317 O326 1.977 1_556 S
Zn317 O327 1.910 1_565 S
O318 Zn315 1.933 . S
O318 C329 1.226 1_554 S
O319 Zn317 1.932 . S
O319 C329 1.307 1_655 S
O320 Zn313 1.919 1_556 S
O320 C331 1.253 1_556 S
O321 Zn315 1.941 1_545 S
O321 C331 1.283 . S
O322 Zn315 1.965 . S
O322 C330 1.303 . S
O323 Zn316 1.938 . S
O323 C330 1.247 1_645 S
O324 Zn316 1.906 1_565 S
O324 C332 1.304 . S
O325 Zn313 1.924 1_656 S
O325 C333 1.311 . S
O326 Zn317 1.977 1_554 S
O326 C332 1.272 . S
O327 Zn317 1.910 1_545 S
O327 C333 1.231 . S
C328 O312 1.225 1_655 S
C328 O334 1.298 . S
C329 O318 1.226 1_556 S
C329 O319 1.307 1_455 S
C330 O322 1.303 . S
C330 O323 1.247 1_465 S
C331 O320 1.253 1_554 S
C331 O321 1.283 . S
C332 O324 1.304 . S
C332 O326 1.272 . S
C333 O325 1.311 . S
C333 O327 1.231 . S
O334 Zn316 1.953 . S
O334 C328 1.298 . S
O335 Zn336 1.953 . S
O335 C351 1.225 . S
Zn336 O335 1.953 . S
Zn336 O337 1.949 . S
Zn336 O343 1.919 . S
Zn336 O348 1.924 . S
O337 Zn336 1.949 . S
O337 Zn338 1.923 . S
O337 Zn339 1.950 . S
O337 Zn340 1.945 . S
Zn338 O337 1.923 . S
Zn338 O341 1.933 . S
Zn338 O344 1.941 . S
Zn338 O345 1.965 . S
Zn339 O337 1.950 . S
Zn339 O346 1.938 . S
Zn339 O347 1.906 . S
Zn339 O357 1.953 . S
Zn340 O337 1.945 . S
Zn340 O342 1.932 . S
Zn340 O349 1.977 . S
Zn340 O350 1.910 . S
O341 Zn338 1.933 . S
O341 C352 1.226 . S
O342 Zn340 1.932 . S
O342 C352 1.307 . S
O343 Zn336 1.919 . S
O343 C354 1.253 . S
O344 Zn338 1.941 . S
O344 C354 1.283 . S
O345 Zn338 1.965 . S
O345 C353 1.303 . S
O346 Zn339 1.938 . S
O346 C353 1.247 . S
O347 Zn339 1.906 . S
O347 C355 1.304 . S
O348 Zn336 1.924 . S
O348 C356 1.311 . S
O349 Zn340 1.977 . S
O349 C355 1.272 . S
O350 Zn340 1.910 . S
O350 C356 1.231 . S
C351 O335 1.225 . S
C351 O357 1.298 . S
C352 O341 1.226 . S
C352 O342 1.307 . S
C353 O345 1.303 . S
C353 O346 1.247 . S
C354 O343 1.253 . S
C354 O344 1.283 . S
C355 O347 1.304 . S
C355 O349 1.272 . S
C356 O348 1.311 . S
C356 O350 1.231 . S
O357 Zn339 1.953 . S
O357 C351 1.298 . S
O358 Zn359 1.953 . S
O358 C374 1.225 . S
Zn359 O358 1.953 . S
Zn359 O360 1.949 1_565 S
Zn359 O366 1.919 . S
Zn359 O371 1.924 . S
O360 Zn359 1.949 1_545 S
O360 Zn361 1.923 . S
O360 Zn362 1.950 . S
O360 Zn363 1.945 . S
Zn361 O360 1.923 . S
Zn361 O364 1.933 . S
Zn361 O367 1.941 . S
Zn361 O368 1.965 . S
Zn362 O360 1.950 . S
Zn362 O369 1.938 . S
Zn362 O370 1.906 . S
Zn362 O380 1.953 1_545 S
Zn363 O360 1.945 . S
Zn363 O365 1.932 . S
Zn363 O372 1.977 . S
Zn363 O373 1.910 . S
O364 Zn361 1.933 . S
O364 C375 1.226 . S
O365 Zn363 1.932 . S
O365 C375 1.307 . S
O366 Zn359 1.919 . S
O366 C377 1.253 1_565 S
O367 Zn361 1.941 . S
O367 C377 1.283 . S
O368 Zn361 1.965 . S
O368 C376 1.303 . S
O369 Zn362 1.938 . S
O369 C376 1.247 . S
O370 Zn362 1.906 . S
O370 C378 1.304 . S
O371 Zn359 1.924 . S
O371 C379 1.311 . S
O372 Zn363 1.977 . S
O372 C378 1.272 . S
O373 Zn363 1.910 . S
O373 C379 1.231 1_545 S
C374 O358 1.225 . S
C374 O380 1.298 . S
C375 O364 1.226 . S
C375 O365 1.307 . S
C376 O368 1.303 . S
C376 O369 1.247 . S
C377 O366 1.253 1_545 S
C377 O367 1.283 . S
C378 O370 1.304 . S
C378 O372 1.272 . S
C379 O371 1.311 . S
C379 O373 1.231 1_565 S
O380 Zn362 1.953 1_565 S
O380 C374 1.298 . S
O381 Zn382 1.953 . S
O381 C397 1.225 . S
Zn382 O381 1.953 . S
Zn382 O383 1.949 . S
Zn382 O389 1.919 . S
Zn382 O394 1.924 . S
O383 Zn382 1.949 . S
O383 Zn384 1.923 . S
O383 Zn385 1.950 . S
O383 Zn386 1.945 . S
Zn384 O383 1.923 . S
Zn384 O387 1.933 . S
Zn384 O390 1.941 . S
Zn384 O391 1.965 . S
Zn385 O383 1.950 . S
Zn385 O392 1.938 . S
Zn385 O393 1.906 . S
Zn385 O403 1.953 . S
Zn386 O383 1.945 . S
Zn386 O388 1.932 . S
Zn386 O395 1.977 . S
Zn386 O396 1.910 . S
O387 Zn384 1.933 . S
O387 C398 1.226 . S
O388 Zn386 1.932 . S
O388 C398 1.307 . S
O389 Zn382 1.919 . S
O389 C400 1.253 . S
O390 Zn384 1.941 . S
O390 C400 1.283 . S
O391 Zn384 1.965 . S
O391 C399 1.303 . S
O392 Zn385 1.938 . S
O392 C399 1.247 . S
O393 Zn385 1.906 . S
O393 C401 1.304 . S
O394 Zn382 1.924 . S
O394 C402 1.311 . S
O395 Zn386 1.977 . S
O395 C401 1.272 . S
O396 Zn386 1.910 . S
O396 C402 1.231 . S
C397 O381 1.225 . S
C397 O403 1.298 . S
C398 O387 1.226 . S
C398 O388 1.307 . S
C399 O391 1.303 . S
C399 O392 1.247 . S
C400 O389 1.253 . S
C400 O390 1.283 . S
C401 O393 1.304 . S
C401 O395 1.272 . S
C402 O394 1.311 . S
C402 O396 1.231 . S
O403 Zn385 1.953 . S
O403 C397 1.298 . S
O404 Zn405 1.953 1_455 S
O404 C420 1.225 . S
Zn405 O404 1.953 1_655 S
Zn405 O406 1.949 1_655 S
Zn405 O412 1.919 1_545 S
Zn405 O417 1.924 . S
O406 Zn405 1.949 1_455 S
O406 Zn407 1.923 1_545 S
O406 Zn408 1.950 . S
O406 Zn409 1.945 1_455 S
Zn407 O406 1.923 1_565 S
Zn407 O410 1.933 . S
Zn407 O413 1.941 . S
Zn407 O414 1.965 . S
Zn408 O406 1.950 . S
Zn408 O415 1.938 . S
Zn408 O416 1.906 . S
Zn408 O426 1.953 . S
Zn409 O406 1.945 1_655 S
Zn409 O411 1.932 . S
Zn409 O418 1.991 . S
Zn409 O419 1.910 . S
O410 Zn407 1.933 . S
O410 C421 1.226 1_465 S
O411 Zn409 1.932 . S
O411 C421 1.307 . S
O412 Zn405 1.919 1_565 S
O412 C423 1.253 . S
O413 Zn407 1.941 . S
O413 C423 1.283 1_455 S
O414 Zn407 1.965 . S
O414 C422 1.303 1_565 S
O415 Zn408 1.938 . S
O415 C422 1.247 . S
O416 Zn408 1.906 . S
O416 C424 1.304 . S
O417 Zn405 1.924 . S
O417 C425 1.311 . S
O418 Zn409 1.991 . S
O418 C424 1.240 1_655 S
O419 Zn409 1.910 . S
O419 C425 1.231 . S
C420 O404 1.225 . S
C420 O426 1.298 . S
C421 O410 1.226 1_645 S
C421 O411 1.307 . S
C422 O414 1.303 1_545 S
C422 O415 1.247 . S
C423 O412 1.253 . S
C423 O413 1.283 1_655 S
C424 O416 1.304 . S
C424 O418 1.240 1_455 S
C425 O417 1.311 . S
C425 O419 1.231 . S
O426 Zn408 1.953 . S
O426 C420 1.298 . S
O427 Zn428 1.953 . S
O427 C443 1.225 . S
Zn428 O427 1.953 . S
Zn428 O429 1.949 . S
Zn428 O435 1.919 . S
Zn428 O440 1.924 . S
O429 Zn428 1.949 . S
O429 Zn430 1.923 . S
O429 Zn431 1.950 . S
O429 Zn432 1.945 . S
Zn430 O429 1.923 . S
Zn430 O433 1.933 . S
Zn430 O436 1.941 . S
Zn430 O437 1.965 . S
Zn431 O429 1.950 . S
Zn431 O438 1.938 . S
Zn431 O439 1.906 . S
Zn431 O449 1.953 . S
Zn432 O429 1.945 . S
Zn432 O434 1.932 . S
Zn432 O441 1.977 . S
Zn432 O442 1.910 . S
O433 Zn430 1.933 . S
O433 C444 1.226 . S
O434 Zn432 1.932 . S
O434 C444 1.307 . S
O435 Zn428 1.919 . S
O435 C446 1.253 . S
O436 Zn430 1.941 . S
O436 C446 1.283 . S
O437 Zn430 1.965 . S
O437 C445 1.303 . S
O438 Zn431 1.938 . S
O438 C445 1.247 . S
O439 Zn431 1.906 . S
O439 C447 1.304 . S
O440 Zn428 1.924 . S
O440 C448 1.311 . S
O441 Zn432 1.977 . S
O441 C447 1.272 . S
O442 Zn432 1.910 . S
O442 C448 1.231 . S
C443 O427 1.225 . S
C443 O449 1.298 . S
C444 O433 1.226 . S
C444 O434 1.307 . S
C445 O437 1.303 . S
C445 O438 1.247 . S
C446 O435 1.253 . S
C446 O436 1.283 . S
C447 O439 1.304 . S
C447 O441 1.272 . S
C448 O440 1.311 . S
C448 O442 1.231 . S
O449 Zn431 1.953 . S
O449 C443 1.298 . S
O450 Zn451 1.953 . S
O450 C466 1.225 . S
Zn451 O450 1.953 . S
Zn451 O452 1.949 . S
Zn451 O458 1.919 1_545 S
Zn451 O463 1.924 . S
O452 Zn451 1.949 . S
O452 Zn453 1.923 1_545 S
O452 Zn454 1.950 . S
O452 Zn455 1.945 1_554 S
Zn453 O452 1.923 1_565 S
Zn453 O456 1.933 1_554 S
Zn453 O459 1.941 . S
Zn453 O460 1.965 . S
Zn454 O452 1.950 . S
Zn454 O461 1.938 1_545 S
Zn454 O462 1.906 . S
Zn454 O472 1.953 . S
Zn455 O452 1.945 1_556 S
Zn455 O457 1.932 . S
Zn455 O464 1.977 1_556 S
Zn455 O465 1.910 . S
O456 Zn453 1.933 1_556 S
O456 C467 1.226 . S
O457 Zn455 1.932 . S
O457 C467 1.307 1_545 S
O458 Zn451 1.919 1_565 S
O458 C469 1.266 . S
O459 Zn453 1.941 . S
O459 C469 1.285 . S
O460 Zn453 1.965 . S
O460 C468 1.303 . S
O461 Zn454 1.938 1_565 S
O461 C468 1.247 . S
O462 Zn454 1.906 . S
O462 C470 1.304 . S
O463 Zn451 1.924 . S
O463 C471 1.311 . S
O464 Zn455 1.977 1_554 S
O464 C470 1.272 . S
O465 Zn455 1.910 . S
O465 C471 1.231 1_556 S
C466 O450 1.225 . S
C466 O472 1.298 . S
C467 O456 1.226 . S
C467 O457 1.307 1_565 S
C468 O460 1.303 . S
C468 O461 1.247 . S
C469 O458 1.266 . S
C469 O459 1.285 . S
C470 O462 1.304 . S
C470 O464 1.272 . S
C471 O463 1.311 . S
C471 O465 1.231 1_554 S
O472 Zn454 1.953 . S
O472 C466 1.298 . S
O473 Zn474 1.953 . S
O473 C489 1.225 . S
Zn474 O473 1.953 . S
Zn474 O475 1.949 . S
Zn474 O481 1.919 . S
Zn474 O486 1.924 . S
O475 Zn474 1.949 . S
O475 Zn476 1.923 . S
O475 Zn477 1.950 . S
O475 Zn478 1.945 . S
Zn476 O475 1.923 . S
Zn476 O479 1.933 . S
Zn476 O482 1.941 . S
Zn476 O483 1.965 . S
Zn477 O475 1.950 . S
Zn477 O484 1.938 . S
Zn477 O485 1.906 . S
Zn477 O495 1.953 . S
Zn478 O475 1.945 . S
Zn478 O480 1.932 . S
Zn478 O487 1.977 . S
Zn478 O488 1.910 . S
O479 Zn476 1.933 . S
O479 C490 1.226 . S
O480 Zn478 1.932 . S
O480 C490 1.307 . S
O481 Zn474 1.919 . S
O481 C492 1.253 . S
O482 Zn476 1.941 . S
O482 C492 1.283 . S
O483 Zn476 1.965 . S
O483 C491 1.303 . S
O484 Zn477 1.938 . S
O484 C491 1.247 . S
O485 Zn477 1.906 . S
O485 C493 1.304 . S
O486 Zn474 1.924 . S
O486 C494 1.311 . S
O487 Zn478 1.977 . S
O487 C493 1.272 . S
O488 Zn478 1.910 . S
O488 C494 1.231 . S
C489 O473 1.225 . S
C489 O495 1.298 . S
C490 O479 1.226 . S
C490 O480 1.307 . S
C491 O483 1.303 . S
C491 O484 1.247 . S
C492 O481 1.253 . S
C492 O482 1.283 . S
C493 O485 1.304 . S
C493 O487 1.272 . S
C494 O486 1.311 . S
C494 O488 1.231 . S
O495 Zn477 1.953 . S
O495 C489 1.298 . S
O496 Zn497 1.953 . S
O496 C512 1.225 . S
Zn497 O496 1.953 . S
Zn497 O498 1.949 1_556 S
Zn497 O504 1.919 . S
Zn497 O509 1.924 . S
O498 Zn497 1.949 1_554 S
O498 Zn499 1.923 . S
O498 Zn500 1.950 . S
O498 Zn501 1.945 . S
Zn499 O498 1.923 . S
Zn499 O502 1.933 . S
Zn499 O505 1.941 . S
Zn499 O506 1.965 . S
Zn500 O498 1.950 . S
Zn500 O507 1.938 . S
Zn500 O508 1.906 . S
Zn500 O518 1.953 1_554 S
Zn501 O498 1.945 . S
Zn501 O503 1.932 . S
Zn501 O510 1.977 . S
Zn501 O511 1.910 . S
O502 Zn499 1.933 . S
O502 C513 1.226 . S
O503 Zn501 1.932 . S
O503 C513 1.307 . S
O504 Zn497 1.919 . S
O504 C515 1.253 1_556 S
O505 Zn499 1.941 . S
O505 C515 1.283 . S
O506 Zn499 1.965 . S
O506 C514 1.303 . S
O507 Zn500 1.938 . S
O507 C514 1.247 . S
O508 Zn500 1.906 . S
O508 C516 1.304 . S
O509 Zn497 1.924 . S
O509 C517 1.311 . S
O510 Zn501 1.977 . S
O510 C516 1.272 . S
O511 Zn501 1.910 . S
O511 C517 1.231 1_554 S
C512 O496 1.225 . S
C512 O518 1.298 . S
C513 O502 1.226 . S
C513 O503 1.307 . S
C514 O506 1.303 . S
C514 O507 1.247 . S
C515 O504 1.253 1_554 S
C515 O505 1.283 . S
C516 O508 1.304 . S
C516 O510 1.272 . S
C517 O509 1.311 . S
C517 O511 1.231 1_556 S
O518 Zn500 1.953 1_556 S
O518 C512 1.298 . S
O519 Zn520 1.953 . S
O519 C535 1.225 . S
Zn520 O519 1.953 . S
Zn520 O521 1.949 . S
Zn520 O527 1.919 . S
Zn520 O532 1.924 . S
O521 Zn520 1.949 . S
O521 Zn522 1.923 . S
O521 Zn523 1.950 . S
O521 Zn524 1.945 . S
Zn522 O521 1.923 . S
Zn522 O525 1.933 . S
Zn522 O528 1.941 . S
Zn522 O529 1.965 . S
Zn523 O521 1.950 . S
Zn523 O530 1.938 . S
Zn523 O531 1.906 . S
Zn523 O541 1.953 . S
Zn524 O521 1.945 . S
Zn524 O526 1.932 . S
Zn524 O533 1.977 . S
Zn524 O534 1.910 . S
O525 Zn522 1.933 . S
O525 C536 1.226 . S
O526 Zn524 1.932 . S
O526 C536 1.307 . S
O527 Zn520 1.919 . S
O527 C538 1.253 . S
O528 Zn522 1.941 . S
O528 C538 1.283 . S
O529 Zn522 1.965 . S
O529 C537 1.303 . S
O530 Zn523 1.938 . S
O530 C537 1.247 . S
O531 Zn523 1.906 . S
O531 C539 1.304 . S
O532 Zn520 1.924 . S
O532 C540 1.311 . S
O533 Zn524 1.977 . S
O533 C539 1.272 . S
O534 Zn524 1.910 . S
O534 C540 1.231 . S
C535 O519 1.225 . S
C535 O541 1.298 . S
C536 O525 1.226 . S
C536 O526 1.307 . S
C537 O529 1.303 . S
C537 O530 1.247 . S
C538 O527 1.253 . S
C538 O528 1.283 . S
C539 O531 1.304 . S
C539 O533 1.272 . S
C540 O532 1.311 . S
C540 O534 1.231 . S
O541 Zn523 1.953 . S
O541 C535 1.298 . S
O542 Zn543 1.953 . S
O542 C558 1.225 . S
Zn543 O542 1.953 . S
Zn543 O544 1.949 . S
Zn543 O550 1.919 . S
Zn543 O555 1.924 . S
O544 Zn543 1.949 . S
O544 Zn545 1.923 . S
O544 Zn546 1.950 1_455 S
O544 Zn547 1.945 1_455 S
Zn545 O544 1.923 . S
Zn545 O548 1.933 1_455 S
Zn545 O551 1.941 . S
Zn545 O552 1.965 1_455 S
Zn546 O544 1.950 1_655 S
Zn546 O553 1.938 . S
Zn546 O554 1.906 . S
Zn546 O564 1.953 1_655 S
Zn547 O544 1.945 1_655 S
Zn547 O549 1.932 . S
Zn547 O556 1.977 . S
Zn547 O557 1.910 1_655 S
O548 Zn545 1.933 1_655 S
O548 C559 1.226 . S
O549 Zn547 1.932 . S
O549 C559 1.307 . S
O550 Zn543 1.919 . S
O550 C561 1.253 . S
O551 Zn545 1.941 . S
O551 C561 1.283 . S
O552 Zn545 1.965 1_655 S
O552 C560 1.303 . S
O553 Zn546 1.938 . S
O553 C560 1.247 . S
O554 Zn546 1.906 . S
O554 C562 1.304 . S
O555 Zn543 1.924 . S
O555 C563 1.311 . S
O556 Zn547 1.977 . S
O556 C562 1.272 . S
O557 Zn547 1.910 1_455 S
O557 C563 1.231 . S
C558 O542 1.225 . S
C558 O564 1.298 . S
C559 O548 1.226 . S
C559 O549 1.307 . S
C560 O552 1.303 . S
C560 O553 1.247 . S
C561 O550 1.253 . S
C561 O551 1.283 . S
C562 O554 1.304 . S
C562 O556 1.272 . S
C563 O555 1.311 . S
C563 O557 1.231 . S
O564 Zn546 1.953 1_455 S
O564 C558 1.298 . S
O565 Zn566 1.953 . S
O565 C581 1.225 . S
Zn566 O565 1.953 . S
Zn566 O567 1.949 . S
Zn566 O573 1.919 . S
Zn566 O578 1.924 . S
O567 Zn566 1.949 . S
O567 Zn568 1.923 . S
O567 Zn569 1.950 . S
O567 Zn570 1.945 . S
Zn568 O567 1.923 . S
Zn568 O571 1.933 . S
Zn568 O574 1.941 . S
Zn568 O575 1.965 . S
Zn569 O567 1.950 . S
Zn569 O576 1.938 . S
Zn569 O577 1.906 . S
Zn569 O587 1.953 . S
Zn570 O567 1.945 . S
Zn570 O572 1.932 . S
Zn570 O579 1.977 . S
Zn570 O580 1.910 . S
O571 Zn568 1.933 . S
O571 C582 1.226 . S
O572 Zn570 1.932 . S
O572 C582 1.307 . S
O573 Zn566 1.919 . S
O573 C584 1.253 . S
O574 Zn568 1.941 . S
O574 C584 1.283 . S
O575 Zn568 1.965 . S
O575 C583 1.303 . S
O576 Zn569 1.938 . S
O576 C583 1.247 . S
O577 Zn569 1.906 . S
O577 C585 1.304 . S
O578 Zn566 1.924 . S
O578 C586 1.311 . S
O579 Zn570 1.977 . S
O579 C585 1.272 . S
O580 Zn570 1.910 . S
O580 C586 1.231 . S
C581 O565 1.225 . S
C581 O587 1.298 . S
C582 O571 1.226 . S
C582 O572 1.307 . S
C583 O575 1.303 . S
C583 O576 1.247 . S
C584 O573 1.253 . S
C584 O574 1.283 . S
C585 O577 1.304 . S
C585 O579 1.272 . S
C586 O578 1.311 . S
C586 O580 1.231 . S
O587 Zn569 1.953 . S
O587 C581 1.298 . S
O588 Zn589 1.953 . S
O588 C604 1.225 . S
Zn589 O588 1.953 . S
Zn589 O590 1.949 . S
Zn589 O596 1.919 . S
Zn589 O601 1.924 . S
O590 Zn589 1.949 . S
O590 Zn591 1.923 . S
O590 Zn592 1.950 . S
O590 Zn593 1.945 . S
Zn591 O590 1.923 . S
Zn591 O594 1.933 . S
Zn591 O597 1.941 . S
Zn591 O598 1.965 . S
Zn592 O590 1.950 . S
Zn592 O599 1.938 . S
Zn592 O600 1.906 . S
Zn592 O610 1.953 . S
Zn593 O590 1.945 . S
Zn593 O595 1.932 . S
Zn593 O602 1.977 . S
Zn593 O603 1.910 . S
O594 Zn591 1.933 . S
O594 C605 1.226 . S
O595 Zn593 1.932 . S
O595 C605 1.307 . S
O596 Zn589 1.919 . S
O596 C607 1.253 . S
O597 Zn591 1.941 . S
O597 C607 1.283 . S
O598 Zn591 1.965 . S
O598 C606 1.303 . S
O599 Zn592 1.938 . S
O599 C606 1.247 . S
O600 Zn592 1.906 . S
O600 C608 1.304 . S
O601 Zn589 1.924 . S
O601 C609 1.311 . S
O602 Zn593 1.977 . S
O602 C608 1.272 . S
O603 Zn593 1.910 . S
O603 C609 1.231 . S
C604 O588 1.225 . S
C604 O610 1.298 . S
C605 O594 1.226 . S
C605 O595 1.307 . S
C606 O598 1.303 . S
C606 O599 1.247 . S
C607 O596 1.253 . S
C607 O597 1.283 . S
C608 O600 1.304 . S
C608 O602 1.272 . S
C609 O601 1.311 . S
C609 O603 1.231 . S
O610 Zn592 1.953 . S
O610 C604 1.298 . S
O611 Zn612 1.953 . S
O611 C627 1.225 . S
Zn612 O611 1.953 . S
Zn612 O613 1.949 . S
Zn612 O619 1.919 . S
Zn612 O624 1.924 . S
O613 Zn612 1.949 . S
O613 Zn614 1.923 . S
O613 Zn615 1.950 . S
O613 Zn616 1.945 . S
Zn614 O613 1.923 . S
Zn614 O617 1.933 . S
Zn614 O620 1.941 . S
Zn614 O621 1.965 . S
Zn615 O613 1.950 . S
Zn615 O622 1.938 . S
Zn615 O623 1.906 . S
Zn615 O633 1.953 . S
Zn616 O613 1.945 . S
Zn616 O618 1.932 . S
Zn616 O625 1.977 . S
Zn616 O626 1.910 . S
O617 Zn614 1.933 . S
O617 C628 1.226 . S
O618 Zn616 1.932 . S
O618 C628 1.307 . S
O619 Zn612 1.919 . S
O619 C630 1.253 . S
O620 Zn614 1.941 . S
O620 C630 1.283 . S
O621 Zn614 1.965 . S
O621 C629 1.303 . S
O622 Zn615 1.938 . S
O622 C629 1.247 . S
O623 Zn615 1.906 . S
O623 C631 1.304 . S
O624 Zn612 1.924 . S
O624 C632 1.311 . S
O625 Zn616 1.977 . S
O625 C631 1.272 . S
O626 Zn616 1.910 . S
O626 C632 1.231 . S
C627 O611 1.225 . S
C627 O633 1.298 . S
C628 O617 1.226 . S
C628 O618 1.307 . S
C629 O621 1.303 . S
C629 O622 1.247 . S
C630 O619 1.253 . S
C630 O620 1.283 . S
C631 O623 1.304 . S
C631 O625 1.272 . S
C632 O624 1.311 . S
C632 O626 1.231 . S
O633 Zn615 1.953 . S
O633 C627 1.298 . S
O634 Zn635 1.953 . S
O634 C650 1.225 . S
Zn635 O634 1.953 . S
Zn635 O636 1.949 . S
Zn635 O642 1.919 . S
Zn635 O647 1.924 . S
O636 Zn635 1.949 . S
O636 Zn637 1.923 . S
O636 Zn638 1.950 . S
O636 Zn639 1.945 . S
Zn637 O636 1.923 . S
Zn637 O640 1.933 . S
Zn637 O643 1.941 . S
Zn637 O644 1.965 . S
Zn638 O636 1.950 . S
Zn638 O645 1.938 . S
Zn638 O646 1.906 . S
Zn638 O656 1.953 . S
Zn639 O636 1.945 . S
Zn639 O641 1.932 . S
Zn639 O648 1.977 . S
Zn639 O649 1.910 . S
O640 Zn637 1.933 . S
O640 C651 1.226 . S
O641 Zn639 1.932 . S
O641 C651 1.307 . S
O642 Zn635 1.919 . S
O642 C653 1.253 . S
O643 Zn637 1.941 . S
O643 C653 1.283 . S
O644 Zn637 1.965 . S
O644 C652 1.303 . S
O645 Zn638 1.938 . S
O645 C652 1.247 . S
O646 Zn638 1.906 . S
O646 C654 1.304 . S
O647 Zn635 1.924 . S
O647 C655 1.311 . S
O648 Zn639 1.977 . S
O648 C654 1.272 . S
O649 Zn639 1.910 . S
O649 C655 1.231 . S
C650 O634 1.225 . S
C650 O656 1.298 . S
C651 O640 1.226 . S
C651 O641 1.307 . S
C652 O644 1.303 . S
C652 O645 1.247 . S
C653 O642 1.253 . S
C653 O643 1.283 . S
C654 O646 1.304 . S
C654 O648 1.272 . S
C655 O647 1.311 . S
C655 O649 1.231 . S
O656 Zn638 1.953 . S
O656 C650 1.298 . S
O657 Zn658 1.953 . S
O657 C673 1.225 . S
Zn658 O657 1.953 . S
Zn658 O659 1.949 . S
Zn658 O665 1.919 1_454 S
Zn658 O670 1.924 1_554 S
O659 Zn658 1.949 . S
O659 Zn660 1.923 1_455 S
O659 Zn661 1.950 . S
O659 Zn662 1.945 1_554 S
Zn660 O659 1.923 1_655 S
Zn660 O663 1.933 . S
Zn660 O666 1.941 . S
Zn660 O667 1.965 . S
Zn661 O659 1.950 . S
Zn661 O668 1.938 . S
Zn661 O669 1.906 . S
Zn661 O679 1.953 . S
Zn662 O659 1.945 1_556 S
Zn662 O664 1.932 . S
Zn662 O671 1.977 1_556 S
Zn662 O672 1.910 . S
O663 Zn660 1.933 . S
O663 C674 1.211 1_654 S
O664 Zn662 1.932 . S
O664 C674 1.329 . S
O665 Zn658 1.919 1_656 S
O665 C676 1.253 1_556 S
O666 Zn660 1.941 . S
O666 C676 1.283 . S
O667 Zn660 1.965 . S
O667 C675 1.302 . S
O668 Zn661 1.938 . S
O668 C675 1.249 1_455 S
O669 Zn661 1.906 . S
O669 C677 1.304 . S
O670 Zn658 1.924 1_556 S
O670 C678 1.311 . S
O671 Zn662 1.977 1_554 S
O671 C677 1.272 . S
O672 Zn662 1.910 . S
O672 C678 1.231 . S
C673 O657 1.225 . S
C673 O679 1.298 . S
C674 O663 1.211 1_456 S
C674 O664 1.329 . S
C675 O667 1.302 . S
C675 O668 1.249 1_655 S
C676 O665 1.253 1_554 S
C676 O666 1.283 . S
C677 O669 1.304 . S
C677 O671 1.272 . S
C678 O670 1.311 . S
C678 O672 1.231 . S
O679 Zn661 1.953 . S
O679 C673 1.298 . S
H680 C692 0.930 . S
H681 C694 0.930 . S
H682 C695 0.930 . S
H683 C699 0.959 1_455 S
H684 C699 0.959 . S
H685 C699 0.961 . S
H686 C700 0.960 . S
H687 C700 0.961 . S
H688 C700 0.959 . S
H689 C703 0.917 1_455 S
H690 C704 0.931 . S
H691 C706 0.930 . S
C692 H680 0.930 . S
C692 C693 1.389 1_655 S
C692 C697 1.399 . S
C693 C692 1.389 1_455 S
C693 C694 1.384 . S
C694 H681 0.930 . S
C694 C693 1.384 . S
C694 C695 1.388 . S
C695 H682 0.930 . S
C695 C694 1.388 . S
C695 C696 1.390 1_455 S
C696 C695 1.390 1_655 S
C696 C697 1.394 . S
C696 C702 1.465 . S
C697 C692 1.399 . S
C697 C696 1.394 . S
C697 C698 1.516 . S
C698 C697 1.516 . S
C698 C699 1.502 . S
C698 C700 1.561 . S
C698 C701 1.526 . S
C699 H683 0.959 1_655 S
C699 H684 0.959 . S
C699 H685 0.961 . S
C699 C698 1.502 . S
C700 H686 0.960 . S
C700 H687 0.961 . S
C700 H688 0.959 . S
C700 C698 1.561 . S
C701 C698 1.526 . S
C701 C702 1.396 . S
C701 C706 1.390 . S
C702 C696 1.465 . S
C702 C701 1.396 . S
C702 C703 1.399 . S
C703 H689 0.917 1_655 S
C703 C702 1.399 . S
C703 C704 1.385 . S
C704 H690 0.931 . S
C704 C703 1.385 . S
C704 C705 1.389 . S
C705 C704 1.389 . S
C705 C706 1.387 . S
C706 H691 0.930 . S
C706 C701 1.390 . S
C706 C705 1.387 . S
H707 C719 0.930 . S
H708 C721 0.930 . S
H709 C722 0.930 . S
H710 C726 0.959 . S
H711 C726 0.959 . S
H712 C726 0.961 . S
H713 C727 0.960 . S
H714 C727 0.961 . S
H715 C727 0.959 . S
H716 C730 0.929 . S
H717 C731 0.931 . S
H718 C733 0.930 . S
C719 H707 0.930 . S
C719 C720 1.399 . S
C719 C724 1.399 . S
C720 C719 1.399 . S
C720 C721 1.376 . S
C721 H708 0.930 . S
C721 C720 1.376 . S
C721 C722 1.388 . S
C722 H709 0.930 . S
C722 C721 1.388 . S
C722 C723 1.390 . S
C723 C722 1.390 . S
C723 C724 1.394 . S
C723 C729 1.465 . S
C724 C719 1.399 . S
C724 C723 1.394 . S
C724 C725 1.516 . S
C725 C724 1.516 . S
C725 C726 1.502 . S
C725 C727 1.561 . S
C725 C728 1.526 . S
C726 H710 0.959 . S
C726 H711 0.959 . S
C726 H712 0.961 . S
C726 C725 1.502 . S
C727 H713 0.960 . S
C727 H714 0.961 . S
C727 H715 0.959 . S
C727 C725 1.561 . S
C728 C725 1.526 . S
C728 C729 1.396 . S
C728 C733 1.390 . S
C729 C723 1.465 . S
C729 C728 1.396 . S
C729 C730 1.399 . S
C730 H716 0.929 . S
C730 C729 1.399 . S
C730 C731 1.385 . S
C731 H717 0.931 . S
C731 C730 1.385 . S
C731 C732 1.389 . S
C732 C731 1.389 . S
C732 C733 1.387 . S
C733 H718 0.930 . S
C733 C728 1.390 . S
C733 C732 1.387 . S
H734 C746 0.930 . S
H735 C748 0.930 . S
H736 C749 0.930 . S
H737 C753 0.959 . S
H738 C753 0.959 . S
H739 C753 0.961 . S
H740 C754 0.960 . S
H741 C754 0.961 . S
H742 C754 0.959 . S
H743 C757 0.929 . S
H744 C758 0.931 . S
H745 C760 0.930 . S
C746 H734 0.930 . S
C746 C747 1.399 . S
C746 C751 1.399 . S
C747 C746 1.399 . S
C747 C748 1.376 . S
C748 H735 0.930 . S
C748 C747 1.376 . S
C748 C749 1.388 . S
C749 H736 0.930 . S
C749 C748 1.388 . S
C749 C750 1.390 . S
C750 C749 1.390 . S
C750 C751 1.394 . S
C750 C756 1.465 . S
C751 C746 1.399 . S
C751 C750 1.394 . S
C751 C752 1.516 . S
C752 C751 1.516 . S
C752 C753 1.502 . S
C752 C754 1.561 . S
C752 C755 1.526 . S
C753 H737 0.959 . S
C753 H738 0.959 . S
C753 H739 0.961 . S
C753 C752 1.502 . S
C754 H740 0.960 . S
C754 H741 0.961 . S
C754 H742 0.959 . S
C754 C752 1.561 . S
C755 C752 1.526 . S
C755 C756 1.396 . S
C755 C760 1.390 . S
C756 C750 1.465 . S
C756 C755 1.396 . S
C756 C757 1.399 . S
C757 H743 0.929 . S
C757 C756 1.399 . S
C757 C758 1.385 . S
C758 H744 0.931 . S
C758 C757 1.385 . S
C758 C759 1.389 . S
C759 C758 1.389 . S
C759 C760 1.387 . S
C760 H745 0.930 . S
C760 C755 1.390 . S
C760 C759 1.387 . S
H761 C773 0.930 . S
H762 C775 0.930 . S
H763 C776 0.930 . S
H764 C780 0.959 . S
H765 C780 0.959 . S
H766 C780 0.961 . S
H767 C781 0.960 . S
H768 C781 0.961 . S
H769 C781 0.959 . S
H770 C784 0.929 . S
H771 C785 0.931 . S
H772 C787 0.930 . S
C773 H761 0.930 . S
C773 C774 1.399 . S
C773 C778 1.399 . S
C774 C773 1.399 . S
C774 C775 1.376 . S
C775 H762 0.930 . S
C775 C774 1.376 . S
C775 C776 1.388 . S
C776 H763 0.930 . S
C776 C775 1.388 . S
C776 C777 1.390 . S
C777 C776 1.390 . S
C777 C778 1.394 . S
C777 C783 1.465 . S
C778 C773 1.399 . S
C778 C777 1.394 . S
C778 C779 1.516 . S
C779 C778 1.516 . S
C779 C780 1.502 . S
C779 C781 1.561 . S
C779 C782 1.526 . S
C780 H764 0.959 . S
C780 H765 0.959 . S
C780 H766 0.961 . S
C780 C779 1.502 . S
C781 H767 0.960 . S
C781 H768 0.961 . S
C781 H769 0.959 . S
C781 C779 1.561 . S
C782 C779 1.526 . S
C782 C783 1.396 . S
C782 C787 1.390 . S
C783 C777 1.465 . S
C783 C782 1.396 . S
C783 C784 1.399 . S
C784 H770 0.929 . S
C784 C783 1.399 . S
C784 C785 1.385 . S
C785 H771 0.931 . S
C785 C784 1.385 . S
C785 C786 1.389 . S
C786 C785 1.389 . S
C786 C787 1.387 . S
C787 H772 0.930 . S
C787 C782 1.390 . S
C787 C786 1.387 . S
H788 C800 0.930 . S
H789 C802 0.930 . S
H790 C803 0.930 . S
H791 C807 0.959 . S
H792 C807 0.959 . S
H793 C807 0.961 . S
H794 C808 0.960 . S
H795 C808 0.961 . S
H796 C808 0.959 . S
H797 C811 0.929 . S
H798 C812 0.931 . S
H799 C814 0.930 . S
C800 H788 0.930 . S
C800 C801 1.399 1_655 S
C800 C805 1.399 . S
C801 C800 1.399 1_455 S
C801 C802 1.376 . S
C802 H789 0.930 . S
C802 C801 1.376 . S
C802 C803 1.388 . S
C803 H790 0.930 . S
C803 C802 1.388 . S
C803 C804 1.390 . S
C804 C803 1.390 . S
C804 C805 1.394 1_455 S
C804 C810 1.465 . S
C805 C800 1.399 . S
C805 C804 1.394 1_655 S
C805 C806 1.516 . S
C806 C805 1.516 . S
C806 C807 1.502 . S
C806 C808 1.561 . S
C806 C809 1.526 . S
C807 H791 0.959 . S
C807 H792 0.959 . S
C807 H793 0.961 . S
C807 C806 1.502 . S
C808 H794 0.960 . S
C808 H795 0.961 . S
C808 H796 0.959 . S
C808 C806 1.561 . S
C809 C806 1.526 . S
C809 C810 1.396 1_655 S
C809 C814 1.390 . S
C810 C804 1.465 . S
C810 C809 1.396 1_455 S
C810 C811 1.399 . S
C811 H797 0.929 . S
C811 C810 1.399 . S
C811 C812 1.385 . S
C812 H798 0.931 . S
C812 C811 1.385 . S
C812 C813 1.389 1_455 S
C813 C812 1.389 1_655 S
C813 C814 1.387 . S
C814 H799 0.930 . S
C814 C809 1.390 . S
C814 C813 1.387 . S
H815 C827 0.930 . S
H816 C829 0.930 . S
H817 C830 0.930 . S
H818 C834 0.959 . S
H819 C834 0.959 . S
H820 C834 0.961 . S
H821 C835 0.960 . S
H822 C835 0.961 . S
H823 C835 0.959 . S
H824 C838 0.929 . S
H825 C839 0.931 . S
H826 C841 0.930 . S
C827 H815 0.930 . S
C827 C828 1.399 . S
C827 C832 1.399 . S
C828 C827 1.399 . S
C828 C829 1.376 . S
C829 H816 0.930 . S
C829 C828 1.376 . S
C829 C830 1.388 . S
C830 H817 0.930 . S
C830 C829 1.388 . S
C830 C831 1.390 . S
C831 C830 1.390 . S
C831 C832 1.394 . S
C831 C837 1.465 . S
C832 C827 1.399 . S
C832 C831 1.394 . S
C832 C833 1.516 . S
C833 C832 1.516 . S
C833 C834 1.502 . S
C833 C835 1.561 . S
C833 C836 1.526 . S
C834 H818 0.959 . S
C834 H819 0.959 . S
C834 H820 0.961 . S
C834 C833 1.502 . S
C835 H821 0.960 . S
C835 H822 0.961 . S
C835 H823 0.959 . S
C835 C833 1.561 . S
C836 C833 1.526 . S
C836 C837 1.396 . S
C836 C841 1.390 . S
C837 C831 1.465 . S
C837 C836 1.396 . S
C837 C838 1.399 . S
C838 H824 0.929 . S
C838 C837 1.399 . S
C838 C839 1.385 . S
C839 H825 0.931 . S
C839 C838 1.385 . S
C839 C840 1.389 . S
C840 C839 1.389 . S
C840 C841 1.387 . S
C841 H826 0.930 . S
C841 C836 1.390 . S
C841 C840 1.387 . S
H842 C854 0.930 . S
H843 C856 0.930 . S
H844 C857 0.930 . S
H845 C861 0.959 . S
H846 C861 0.959 . S
H847 C861 0.961 . S
H848 C862 0.960 . S
H849 C862 0.961 . S
H850 C862 0.959 . S
H851 C865 0.929 . S
H852 C866 0.931 . S
H853 C868 0.930 . S
C854 H842 0.930 . S
C854 C855 1.399 . S
C854 C859 1.399 . S
C855 C854 1.399 . S
C855 C856 1.376 . S
C856 H843 0.930 . S
C856 C855 1.376 . S
C856 C857 1.388 . S
C857 H844 0.930 . S
C857 C856 1.388 . S
C857 C858 1.390 . S
C858 C857 1.390 . S
C858 C859 1.394 . S
C858 C864 1.465 . S
C859 C854 1.399 . S
C859 C858 1.394 . S
C859 C860 1.516 . S
C860 C859 1.516 . S
C860 C861 1.502 . S
C860 C862 1.561 . S
C860 C863 1.526 . S
C861 H845 0.959 . S
C861 H846 0.959 . S
C861 H847 0.961 . S
C861 C860 1.502 . S
C862 H848 0.960 . S
C862 H849 0.961 . S
C862 H850 0.959 . S
C862 C860 1.561 . S
C863 C860 1.526 . S
C863 C864 1.396 . S
C863 C868 1.390 . S
C864 C858 1.465 . S
C864 C863 1.396 . S
C864 C865 1.399 . S
C865 H851 0.929 . S
C865 C864 1.399 . S
C865 C866 1.385 1_556 S
C866 H852 0.931 . S
C866 C865 1.385 1_554 S
C866 C867 1.389 . S
C867 C866 1.389 . S
C867 C868 1.389 1_554 S
C868 H853 0.930 . S
C868 C863 1.390 . S
C868 C867 1.389 1_556 S
H869 C881 0.930 . S
H870 C883 0.930 . S
H871 C884 0.930 . S
H872 C888 0.959 . S
H873 C888 0.959 . S
H874 C888 0.961 . S
H875 C889 0.960 . S
H876 C889 0.961 . S
H877 C889 0.959 . S
H878 C892 0.929 . S
H879 C893 0.931 . S
H880 C895 0.930 . S
C881 H869 0.930 . S
C881 C882 1.399 . S
C881 C886 1.399 . S
C882 C881 1.399 . S
C882 C883 1.376 . S
C883 H870 0.930 . S
C883 C882 1.376 . S
C883 C884 1.388 . S
C884 H871 0.930 . S
C884 C883 1.388 . S
C884 C885 1.390 . S
C885 C884 1.390 . S
C885 C886 1.394 . S
C885 C891 1.465 . S
C886 C881 1.399 . S
C886 C885 1.394 . S
C886 C887 1.516 . S
C887 C886 1.516 . S
C887 C888 1.502 . S
C887 C889 1.561 . S
C887 C890 1.526 . S
C888 H872 0.959 . S
C888 H873 0.959 . S
C888 H874 0.961 . S
C888 C887 1.502 . S
C889 H875 0.960 . S
C889 H876 0.961 . S
C889 H877 0.959 . S
C889 C887 1.561 . S
C890 C887 1.526 . S
C890 C891 1.396 . S
C890 C895 1.390 . S
C891 C885 1.465 . S
C891 C890 1.396 . S
C891 C892 1.399 . S
C892 H878 0.929 . S
C892 C891 1.399 . S
C892 C893 1.385 . S
C893 H879 0.931 . S
C893 C892 1.385 . S
C893 C894 1.389 . S
C894 C893 1.389 . S
C894 C895 1.387 . S
C895 H880 0.930 . S
C895 C890 1.390 . S
C895 C894 1.387 . S
H896 C908 0.930 . S
H897 C910 0.930 . S
H898 C911 0.930 . S
H899 C915 0.959 . S
H900 C915 0.959 . S
H901 C915 0.961 . S
H902 C916 0.960 . S
H903 C916 0.961 . S
H904 C916 0.959 . S
H905 C919 0.929 . S
H906 C920 0.931 . S
H907 C922 0.930 . S
C908 H896 0.930 . S
C908 C909 1.399 1_565 S
C908 C913 1.399 . S
C909 C908 1.399 1_545 S
C909 C910 1.376 . S
C910 H897 0.930 . S
C910 C909 1.376 . S
C910 C911 1.388 . S
C911 H898 0.930 . S
C911 C910 1.388 . S
C911 C912 1.390 . S
C912 C911 1.390 . S
C912 C913 1.394 1_545 S
C912 C918 1.465 . S
C913 C908 1.399 . S
C913 C912 1.394 1_565 S
C913 C914 1.516 . S
C914 C913 1.516 . S
C914 C915 1.502 . S
C914 C916 1.561 . S
C914 C917 1.526 . S
C915 H899 0.959 . S
C915 H900 0.959 . S
C915 H901 0.961 . S
C915 C914 1.502 . S
C916 H902 0.960 . S
C916 H903 0.961 . S
C916 H904 0.959 . S
C916 C914 1.561 . S
C917 C914 1.526 . S
C917 C918 1.396 1_565 S
C917 C922 1.390 . S
C918 C912 1.465 . S
C918 C917 1.396 1_545 S
C918 C919 1.399 . S
C919 H905 0.929 . S
C919 C918 1.399 . S
C919 C920 1.385 . S
C920 H906 0.931 . S
C920 C919 1.385 . S
C920 C921 1.389 . S
C921 C920 1.389 . S
C921 C922 1.387 1_545 S
C922 H907 0.930 . S
C922 C917 1.390 . S
C922 C921 1.387 1_565 S
H923 C935 0.930 . S
H924 C937 0.930 . S
H925 C938 0.930 . S
H926 C942 0.959 . S
H927 C942 0.959 . S
H928 C942 0.961 . S
H929 C943 0.960 . S
H930 C943 0.961 . S
H931 C943 0.959 . S
H932 C946 0.929 . S
H933 C947 0.931 . S
H934 C949 0.930 . S
C935 H923 0.930 . S
C935 C936 1.399 . S
C935 C940 1.399 . S
C936 C935 1.399 . S
C936 C937 1.376 . S
C937 H924 0.930 . S
C937 C936 1.376 . S
C937 C938 1.388 . S
C938 H925 0.930 . S
C938 C937 1.388 . S
C938 C939 1.390 . S
C939 C938 1.390 . S
C939 C940 1.394 . S
C939 C945 1.465 . S
C940 C935 1.399 . S
C940 C939 1.394 . S
C940 C941 1.516 . S
C941 C940 1.516 . S
C941 C942 1.502 . S
C941 C943 1.561 . S
C941 C944 1.526 . S
C942 H926 0.959 . S
C942 H927 0.959 . S
C942 H928 0.961 . S
C942 C941 1.502 . S
C943 H929 0.960 . S
C943 H930 0.961 . S
C943 H931 0.959 . S
C943 C941 1.561 . S
C944 C941 1.526 . S
C944 C945 1.396 . S
C944 C949 1.390 . S
C945 C939 1.465 . S
C945 C944 1.396 . S
C945 C946 1.399 . S
C946 H932 0.929 . S
C946 C945 1.399 . S
C946 C947 1.385 . S
C947 H933 0.931 . S
C947 C946 1.385 . S
C947 C948 1.389 . S
C948 C947 1.389 . S
C948 C949 1.387 . S
C949 H934 0.930 . S
C949 C944 1.390 . S
C949 C948 1.387 . S
H950 C962 0.930 . S
H951 C964 0.930 . S
H952 C965 0.930 . S
H953 C969 0.959 . S
H954 C969 0.959 . S
H955 C969 0.961 . S
H956 C970 0.960 . S
H957 C970 0.961 . S
H958 C970 0.959 . S
H959 C973 0.929 . S
H960 C974 0.931 . S
H961 C976 0.930 . S
C962 H950 0.930 . S
C962 C963 1.399 . S
C962 C967 1.399 . S
C963 C962 1.399 . S
C963 C964 1.376 1_545 S
C964 H951 0.930 . S
C964 C963 1.376 1_565 S
C964 C965 1.388 . S
C965 H952 0.930 . S
C965 C964 1.388 . S
C965 C966 1.390 1_565 S
C966 C965 1.390 1_545 S
C966 C967 1.394 . S
C966 C972 1.465 . S
C967 C962 1.399 . S
C967 C966 1.394 . S
C967 C968 1.516 . S
C968 C967 1.516 . S
C968 C969 1.502 . S
C968 C970 1.561 . S
C968 C971 1.526 . S
C969 H953 0.959 . S
C969 H954 0.959 . S
C969 H955 0.961 . S
C969 C968 1.502 . S
C970 H956 0.960 . S
C970 H957 0.961 . S
C970 H958 0.959 . S
C970 C968 1.561 . S
C971 C968 1.526 . S
C971 C972 1.396 . S
C971 C976 1.390 . S
C972 C966 1.465 . S
C972 C971 1.396 . S
C972 C973 1.399 1_545 S
C973 H959 0.929 . S
C973 C972 1.399 1_565 S
C973 C974 1.385 . S
C974 H960 0.931 . S
C974 C973 1.385 . S
C974 C975 1.389 1_565 S
C975 C974 1.389 1_545 S
C975 C976 1.387 . S
C976 H961 0.930 . S
C976 C971 1.390 . S
C976 C975 1.387 . S
H977 C989 0.930 . S
H978 C991 0.930 . S
H979 C992 0.930 . S
H980 C996 0.959 . S
H981 C996 0.959 . S
H982 C996 0.961 . S
H983 C997 0.960 . S
H984 C997 0.961 . S
H985 C997 0.959 . S
H986 C1000 0.929 . S
H987 C1001 0.931 . S
H988 C1003 0.930 . S
C989 H977 0.930 . S
C989 C990 1.399 . S
C989 C994 1.399 . S
C990 C989 1.399 . S
C990 C991 1.376 . S
C991 H978 0.930 . S
C991 C990 1.376 . S
C991 C992 1.388 . S
C992 H979 0.930 . S
C992 C991 1.388 . S
C992 C993 1.390 . S
C993 C992 1.390 . S
C993 C994 1.394 . S
C993 C999 1.465 . S
C994 C989 1.399 . S
C994 C993 1.394 . S
C994 C995 1.516 . S
C995 C994 1.516 . S
C995 C996 1.502 . S
C995 C997 1.561 . S
C995 C998 1.526 . S
C996 H980 0.959 . S
C996 H981 0.959 . S
C996 H982 0.961 . S
C996 C995 1.502 . S
C997 H983 0.960 . S
C997 H984 0.961 . S
C997 H985 0.959 . S
C997 C995 1.561 . S
C998 C995 1.526 . S
C998 C999 1.396 . S
C998 C1003 1.390 . S
C999 C993 1.465 . S
C999 C998 1.396 . S
C999 C1000 1.399 . S
C1000 H986 0.929 . S
C1000 C999 1.399 . S
C1000 C1001 1.385 . S
C1001 H987 0.931 . S
C1001 C1000 1.385 . S
C1001 C1002 1.389 . S
C1002 C1001 1.389 . S
C1002 C1003 1.387 . S
C1003 H988 0.930 . S
C1003 C998 1.390 . S
C1003 C1002 1.387 . S
H1004 C1016 0.930 1_565 S
H1005 C1018 0.930 . S
H1006 C1019 0.930 . S
H1007 C1023 0.959 . S
H1008 C1023 0.959 . S
H1009 C1023 0.961 . S
H1010 C1024 0.960 . S
H1011 C1024 0.961 . S
H1012 C1024 0.959 . S
H1013 C1027 0.929 . S
H1014 C1028 0.931 . S
H1015 C1030 0.930 . S
C1016 H1004 0.930 1_545 S
C1016 C1017 1.399 . S
C1016 C1021 1.399 . S
C1017 C1016 1.399 . S
C1017 C1018 1.376 . S
C1018 H1005 0.930 . S
C1018 C1017 1.376 . S
C1018 C1019 1.388 . S
C1019 H1006 0.930 . S
C1019 C1018 1.388 . S
C1019 C1020 1.390 . S
C1020 C1019 1.390 . S
C1020 C1021 1.394 . S
C1020 C1026 1.465 . S
C1021 C1016 1.399 . S
C1021 C1020 1.394 . S
C1021 C1022 1.516 . S
C1022 C1021 1.516 . S
C1022 C1023 1.502 1_545 S
C1022 C1024 1.561 1_545 S
C1022 C1025 1.526 . S
C1023 H1007 0.959 . S
C1023 H1008 0.959 . S
C1023 H1009 0.961 . S
C1023 C1022 1.502 1_565 S
C1024 H1010 0.960 . S
C1024 H1011 0.961 . S
C1024 H1012 0.959 . S
C1024 C1022 1.561 1_565 S
C1025 C1022 1.526 . S
C1025 C1026 1.396 . S
C1025 C1030 1.390 . S
C1026 C1020 1.465 . S
C1026 C1025 1.396 . S
C1026 C1027 1.399 . S
C1027 H1013 0.929 . S
C1027 C1026 1.399 . S
C1027 C1028 1.385 . S
C1028 H1014 0.931 . S
C1028 C1027 1.385 . S
C1028 C1029 1.389 . S
C1029 C1028 1.389 . S
C1029 C1030 1.387 . S
C1030 H1015 0.930 . S
C1030 C1025 1.390 . S
C1030 C1029 1.387 . S
H1031 C1043 0.930 . S
H1032 C1045 0.930 . S
H1033 C1046 0.930 . S
H1034 C1050 0.959 . S
H1035 C1050 0.959 . S
H1036 C1050 0.961 . S
H1037 C1051 0.960 . S
H1038 C1051 0.961 . S
H1039 C1051 0.959 . S
H1040 C1054 0.929 . S
H1041 C1055 0.931 . S
H1042 C1057 0.930 . S
C1043 H1031 0.930 . S
C1043 C1044 1.399 . S
C1043 C1048 1.399 . S
C1044 C1043 1.399 . S
C1044 C1045 1.376 . S
C1045 H1032 0.930 . S
C1045 C1044 1.376 . S
C1045 C1046 1.388 . S
C1046 H1033 0.930 . S
C1046 C1045 1.388 . S
C1046 C1047 1.390 . S
C1047 C1046 1.390 . S
C1047 C1048 1.394 . S
C1047 C1053 1.465 . S
C1048 C1043 1.399 . S
C1048 C1047 1.394 . S
C1048 C1049 1.516 . S
C1049 C1048 1.516 . S
C1049 C1050 1.502 . S
C1049 C1051 1.561 . S
C1049 C1052 1.526 . S
C1050 H1034 0.959 . S
C1050 H1035 0.959 . S
C1050 H1036 0.961 . S
C1050 C1049 1.502 . S
C1051 H1037 0.960 . S
C1051 H1038 0.961 . S
C1051 H1039 0.959 . S
C1051 C1049 1.561 . S
C1052 C1049 1.526 . S
C1052 C1053 1.396 . S
C1052 C1057 1.390 . S
C1053 C1047 1.465 . S
C1053 C1052 1.396 . S
C1053 C1054 1.399 . S
C1054 H1040 0.929 . S
C1054 C1053 1.399 . S
C1054 C1055 1.385 . S
C1055 H1041 0.931 . S
C1055 C1054 1.385 . S
C1055 C1056 1.389 . S
C1056 C1055 1.389 . S
C1056 C1057 1.387 . S
C1057 H1042 0.930 . S
C1057 C1052 1.390 . S
C1057 C1056 1.387 . S
H1058 C1070 0.930 . S
H1059 C1072 0.930 . S
H1060 C1073 0.930 . S
H1061 C1077 0.959 1_565 S
H1062 C1077 0.959 . S
H1063 C1077 0.961 . S
H1064 C1078 0.960 . S
H1065 C1078 0.961 . S
H1066 C1078 0.959 . S
H1067 C1081 0.929 . S
H1068 C1082 0.931 . S
H1069 C1084 0.908 1_545 S
C1070 H1058 0.930 . S
C1070 C1071 1.399 1_545 S
C1070 C1075 1.399 . S
C1071 C1070 1.399 1_565 S
C1071 C1072 1.376 . S
C1072 H1059 0.930 . S
C1072 C1071 1.376 . S
C1072 C1073 1.388 . S
C1073 H1060 0.930 . S
C1073 C1072 1.388 . S
C1073 C1074 1.390 . S
C1074 C1073 1.390 . S
C1074 C1075 1.394 1_565 S
C1074 C1080 1.465 . S
C1075 C1070 1.399 . S
C1075 C1074 1.394 1_545 S
C1075 C1076 1.516 . S
C1076 C1075 1.516 . S
C1076 C1077 1.502 . S
C1076 C1078 1.561 . S
C1076 C1079 1.526 1_545 S
C1077 H1061 0.959 1_545 S
C1077 H1062 0.959 . S
C1077 H1063 0.961 . S
C1077 C1076 1.502 . S
C1078 H1064 0.960 . S
C1078 H1065 0.961 . S
C1078 H1066 0.959 . S
C1078 C1076 1.561 . S
C1079 C1076 1.526 1_565 S
C1079 C1080 1.396 . S
C1079 C1084 1.391 . S
C1080 C1074 1.465 . S
C1080 C1079 1.396 . S
C1080 C1081 1.399 . S
C1081 H1067 0.929 . S
C1081 C1080 1.399 . S
C1081 C1082 1.385 . S
C1082 H1068 0.931 . S
C1082 C1081 1.385 . S
C1082 C1083 1.389 . S
C1083 C1082 1.389 . S
C1083 C1084 1.408 . S
C1084 H1069 0.908 1_565 S
C1084 C1079 1.391 . S
C1084 C1083 1.408 . S
H1085 C1097 0.930 . S
H1086 C1099 0.930 . S
H1087 C1100 0.930 . S
H1088 C1104 0.959 . S
H1089 C1104 0.959 . S
H1090 C1104 0.961 . S
H1091 C1105 0.960 . S
H1092 C1105 0.961 . S
H1093 C1105 0.959 . S
H1094 C1108 0.929 . S
H1095 C1109 0.931 . S
H1096 C1111 0.930 . S
C1097 H1085 0.930 . S
C1097 C1098 1.399 . S
C1097 C1102 1.399 . S
C1098 C1097 1.399 . S
C1098 C1099 1.376 . S
C1099 H1086 0.930 . S
C1099 C1098 1.376 . S
C1099 C1100 1.388 . S
C1100 H1087 0.930 . S
C1100 C1099 1.388 . S
C1100 C1101 1.390 . S
C1101 C1100 1.390 . S
C1101 C1102 1.394 . S
C1101 C1107 1.465 . S
C1102 C1097 1.399 . S
C1102 C1101 1.394 . S
C1102 C1103 1.516 . S
C1103 C1102 1.516 . S
C1103 C1104 1.502 . S
C1103 C1105 1.561 . S
C1103 C1106 1.526 . S
C1104 H1088 0.959 . S
C1104 H1089 0.959 . S
C1104 H1090 0.961 . S
C1104 C1103 1.502 . S
C1105 H1091 0.960 . S
C1105 H1092 0.961 . S
C1105 H1093 0.959 . S
C1105 C1103 1.561 . S
C1106 C1103 1.526 . S
C1106 C1107 1.396 . S
C1106 C1111 1.390 . S
C1107 C1101 1.465 . S
C1107 C1106 1.396 . S
C1107 C1108 1.399 . S
C1108 H1094 0.929 . S
C1108 C1107 1.399 . S
C1108 C1109 1.385 . S
C1109 H1095 0.931 . S
C1109 C1108 1.385 . S
C1109 C1110 1.389 . S
C1110 C1109 1.389 . S
C1110 C1111 1.387 . S
C1111 H1096 0.930 . S
C1111 C1106 1.390 . S
C1111 C1110 1.387 . S
H1112 C1124 0.930 . S
H1113 C1126 0.930 . S
H1114 C1127 0.930 . S
H1115 C1131 0.959 . S
H1116 C1131 0.959 . S
H1117 C1131 0.961 . S
H1118 C1132 0.960 . S
H1119 C1132 0.961 . S
H1120 C1132 0.959 . S
H1121 C1135 0.929 . S
H1122 C1136 0.931 . S
H1123 C1138 0.930 . S
C1124 H1112 0.930 . S
C1124 C1125 1.399 . S
C1124 C1129 1.399 . S
C1125 C1124 1.399 . S
C1125 C1126 1.376 1_554 S
C1126 H1113 0.930 . S
C1126 C1125 1.376 1_556 S
C1126 C1127 1.388 . S
C1127 H1114 0.930 . S
C1127 C1126 1.388 . S
C1127 C1128 1.390 . S
C1128 C1127 1.390 . S
C1128 C1129 1.394 1_556 S
C1128 C1134 1.465 . S
C1129 C1124 1.399 . S
C1129 C1128 1.394 1_554 S
C1129 C1130 1.516 . S
C1130 C1129 1.516 . S
C1130 C1131 1.502 . S
C1130 C1132 1.561 . S
C1130 C1133 1.526 . S
C1131 H1115 0.959 . S
C1131 H1116 0.959 . S
C1131 H1117 0.961 . S
C1131 C1130 1.502 . S
C1132 H1118 0.960 . S
C1132 H1119 0.961 . S
C1132 H1120 0.959 . S
C1132 C1130 1.561 . S
C1133 C1130 1.526 . S
C1133 C1134 1.396 1_554 S
C1133 C1138 1.390 . S
C1134 C1128 1.465 . S
C1134 C1133 1.396 1_556 S
C1134 C1135 1.399 . S
C1135 H1121 0.929 . S
C1135 C1134 1.399 . S
C1135 C1136 1.385 . S
C1136 H1122 0.931 . S
C1136 C1135 1.385 . S
C1136 C1137 1.389 . S
C1137 C1136 1.389 . S
C1137 C1138 1.387 1_556 S
C1138 H1123 0.930 . S
C1138 C1133 1.390 . S
C1138 C1137 1.387 1_554 S
H1139 C1151 0.930 . S
H1140 C1153 0.930 . S
H1141 C1154 0.930 . S
H1142 C1158 0.959 . S
H1143 C1158 0.959 . S
H1144 C1158 0.961 . S
H1145 C1159 0.960 . S
H1146 C1159 0.961 . S
H1147 C1159 0.959 . S
H1148 C1162 0.929 . S
H1149 C1163 0.964 . S
H1150 C1165 0.930 . S
C1151 H1139 0.930 . S
C1151 C1152 1.399 . S
C1151 C1156 1.399 . S
C1152 C1151 1.399 . S
C1152 C1153 1.376 1_554 S
C1153 H1140 0.930 . S
C1153 C1152 1.376 1_556 S
C1153 C1154 1.388 . S
C1154 H1141 0.930 . S
C1154 C1153 1.388 . S
C1154 C1155 1.390 1_556 S
C1155 C1154 1.390 1_554 S
C1155 C1156 1.394 . S
C1155 C1161 1.465 . S
C1156 C1151 1.399 . S
C1156 C1155 1.394 . S
C1156 C1157 1.516 . S
C1157 C1156 1.516 . S
C1157 C1158 1.502 . S
C1157 C1159 1.561 . S
C1157 C1160 1.526 . S
C1158 H1142 0.959 . S
C1158 H1143 0.959 . S
C1158 H1144 0.961 . S
C1158 C1157 1.502 . S
C1159 H1145 0.960 . S
C1159 H1146 0.961 . S
C1159 H1147 0.959 . S
C1159 C1157 1.561 . S
C1160 C1157 1.526 . S
C1160 C1161 1.396 . S
C1160 C1165 1.390 . S
C1161 C1155 1.465 . S
C1161 C1160 1.396 . S
C1161 C1162 1.399 1_554 S
C1162 H1148 0.929 . S
C1162 C1161 1.399 1_556 S
C1162 C1163 1.398 . S
C1163 H1149 0.964 . S
C1163 C1162 1.398 . S
C1163 C1164 1.345 1_556 S
C1164 C1163 1.345 1_554 S
C1164 C1165 1.387 . S
C1165 H1150 0.930 . S
C1165 C1160 1.390 . S
C1165 C1164 1.387 . S
H1166 C1178 0.930 . S
H1167 C1180 0.930 . S
H1168 C1181 0.930 . S
H1169 C1185 0.959 . S
H1170 C1185 0.959 . S
H1171 C1185 0.961 . S
H1172 C1186 0.960 . S
H1173 C1186 0.961 . S
H1174 C1186 0.959 . S
H1175 C1189 0.929 . S
H1176 C1190 0.931 . S
H1177 C1192 0.930 . S
C1178 H1166 0.930 . S
C1178 C1179 1.399 . S
C1178 C1183 1.399 . S
C1179 C1178 1.399 . S
C1179 C1180 1.376 . S
C1180 H1167 0.930 . S
C1180 C1179 1.376 . S
C1180 C1181 1.388 . S
C1181 H1168 0.930 . S
C1181 C1180 1.388 . S
C1181 C1182 1.390 . S
C1182 C1181 1.390 . S
C1182 C1183 1.394 . S
C1182 C1188 1.465 . S
C1183 C1178 1.399 . S
C1183 C1182 1.394 . S
C1183 C1184 1.516 . S
C1184 C1183 1.516 . S
C1184 C1185 1.502 . S
C1184 C1186 1.561 . S
C1184 C1187 1.526 . S
C1185 H1169 0.959 . S
C1185 H1170 0.959 . S
C1185 H1171 0.961 . S
C1185 C1184 1.502 . S
C1186 H1172 0.960 . S
C1186 H1173 0.961 . S
C1186 H1174 0.959 . S
C1186 C1184 1.561 . S
C1187 C1184 1.526 . S
C1187 C1188 1.396 . S
C1187 C1192 1.390 . S
C1188 C1182 1.465 . S
C1188 C1187 1.396 . S
C1188 C1189 1.399 . S
C1189 H1175 0.929 . S
C1189 C1188 1.399 . S
C1189 C1190 1.385 . S
C1190 H1176 0.931 . S
C1190 C1189 1.385 . S
C1190 C1191 1.389 . S
C1191 C1190 1.389 . S
C1191 C1192 1.387 . S
C1192 H1177 0.930 . S
C1192 C1187 1.390 . S
C1192 C1191 1.387 . S
H1193 C1205 0.930 . S
H1194 C1207 0.930 . S
H1195 C1208 0.930 . S
H1196 C1212 0.959 . S
H1197 C1212 0.959 . S
H1198 C1212 0.961 . S
H1199 C1213 0.960 . S
H1200 C1213 0.961 . S
H1201 C1213 0.959 . S
H1202 C1216 0.929 . S
H1203 C1217 0.931 . S
H1204 C1219 0.930 . S
C1205 H1193 0.930 . S
C1205 C1206 1.399 . S
C1205 C1210 1.399 . S
C1206 C1205 1.399 . S
C1206 C1207 1.376 . S
C1207 H1194 0.930 . S
C1207 C1206 1.376 . S
C1207 C1208 1.388 . S
C1208 H1195 0.930 . S
C1208 C1207 1.388 . S
C1208 C1209 1.390 . S
C1209 C1208 1.390 . S
C1209 C1210 1.394 . S
C1209 C1215 1.465 . S
C1210 C1205 1.399 . S
C1210 C1209 1.394 . S
C1210 C1211 1.516 . S
C1211 C1210 1.516 . S
C1211 C1212 1.502 . S
C1211 C1213 1.561 . S
C1211 C1214 1.526 . S
C1212 H1196 0.959 . S
C1212 H1197 0.959 . S
C1212 H1198 0.961 . S
C1212 C1211 1.502 . S
C1213 H1199 0.960 . S
C1213 H1200 0.961 . S
C1213 H1201 0.959 . S
C1213 C1211 1.561 . S
C1214 C1211 1.526 . S
C1214 C1215 1.396 . S
C1214 C1219 1.390 . S
C1215 C1209 1.465 . S
C1215 C1214 1.396 . S
C1215 C1216 1.399 . S
C1216 H1202 0.929 . S
C1216 C1215 1.399 . S
C1216 C1217 1.385 . S
C1217 H1203 0.931 . S
C1217 C1216 1.385 . S
C1217 C1218 1.389 . S
C1218 C1217 1.389 . S
C1218 C1219 1.387 . S
C1219 H1204 0.930 . S
C1219 C1214 1.390 . S
C1219 C1218 1.387 . S
H1220 C1232 0.930 . S
H1221 C1234 0.930 . S
H1222 C1235 0.930 . S
H1223 C1239 0.959 . S
H1224 C1239 0.959 . S
H1225 C1239 0.961 . S
H1226 C1240 0.960 . S
H1227 C1240 0.961 . S
H1228 C1240 0.959 . S
H1229 C1243 0.929 . S
H1230 C1244 0.931 . S
H1231 C1246 0.930 . S
C1232 H1220 0.930 . S
C1232 C1233 1.399 . S
C1232 C1237 1.399 . S
C1233 C1232 1.399 . S
C1233 C1234 1.376 . S
C1234 H1221 0.930 . S
C1234 C1233 1.376 . S
C1234 C1235 1.388 . S
C1235 H1222 0.930 . S
C1235 C1234 1.388 . S
C1235 C1236 1.390 . S
C1236 C1235 1.390 . S
C1236 C1237 1.394 . S
C1236 C1242 1.465 . S
C1237 C1232 1.399 . S
C1237 C1236 1.394 . S
C1237 C1238 1.516 . S
C1238 C1237 1.516 . S
C1238 C1239 1.502 . S
C1238 C1240 1.561 . S
C1238 C1241 1.526 . S
C1239 H1223 0.959 . S
C1239 H1224 0.959 . S
C1239 H1225 0.961 . S
C1239 C1238 1.502 . S
C1240 H1226 0.960 . S
C1240 H1227 0.961 . S
C1240 H1228 0.959 . S
C1240 C1238 1.561 . S
C1241 C1238 1.526 . S
C1241 C1242 1.396 . S
C1241 C1246 1.390 . S
C1242 C1236 1.465 . S
C1242 C1241 1.396 . S
C1242 C1243 1.399 . S
C1243 H1229 0.929 . S
C1243 C1242 1.399 . S
C1243 C1244 1.385 . S
C1244 H1230 0.931 . S
C1244 C1243 1.385 . S
C1244 C1245 1.389 . S
C1245 C1244 1.389 . S
C1245 C1246 1.387 . S
C1246 H1231 0.930 . S
C1246 C1241 1.390 . S
C1246 C1245 1.387 . S
H1247 C1259 0.930 . S
H1248 C1261 0.930 . S
H1249 C1262 0.930 . S
H1250 C1266 0.959 . S
H1251 C1266 0.959 . S
H1252 C1266 0.961 . S
H1253 C1267 0.960 . S
H1254 C1267 0.961 . S
H1255 C1267 0.959 . S
H1256 C1270 0.929 . S
H1257 C1271 0.931 . S
H1258 C1273 0.945 . S
C1259 H1247 0.930 . S
C1259 C1260 1.399 . S
C1259 C1264 1.399 . S
C1260 C1259 1.399 . S
C1260 C1261 1.376 . S
C1261 H1248 0.930 . S
C1261 C1260 1.376 . S
C1261 C1262 1.388 . S
C1262 H1249 0.930 . S
C1262 C1261 1.388 . S
C1262 C1263 1.390 . S
C1263 C1262 1.390 . S
C1263 C1264 1.394 . S
C1263 C1269 1.465 . S
C1264 C1259 1.399 . S
C1264 C1263 1.394 . S
C1264 C1265 1.516 . S
C1265 C1264 1.516 . S
C1265 C1266 1.502 . S
C1265 C1267 1.561 . S
C1265 C1268 1.526 . S
C1266 H1250 0.959 . S
C1266 H1251 0.959 . S
C1266 H1252 0.961 . S
C1266 C1265 1.502 . S
C1267 H1253 0.960 . S
C1267 H1254 0.961 . S
C1267 H1255 0.959 . S
C1267 C1265 1.561 . S
C1268 C1265 1.526 . S
C1268 C1269 1.396 . S
C1268 C1273 1.390 . S
C1269 C1263 1.465 . S
C1269 C1268 1.396 . S
C1269 C1270 1.399 . S
C1270 H1256 0.929 . S
C1270 C1269 1.399 . S
C1270 C1271 1.385 . S
C1271 H1257 0.931 . S
C1271 C1270 1.385 . S
C1271 C1272 1.389 . S
C1272 C1271 1.389 . S
C1272 C1273 1.387 . S
C1273 H1258 0.945 . S
C1273 C1268 1.390 . S
C1273 C1272 1.387 . S
H1274 C1286 0.930 . S
H1275 C1288 0.930 . S
H1276 C1289 0.930 . S
H1277 C1293 0.959 . S
H1278 C1293 0.959 . S
H1279 C1293 0.961 . S
H1280 C1294 0.960 . S
H1281 C1294 0.961 . S
H1282 C1294 0.959 . S
H1283 C1297 0.929 . S
H1284 C1298 0.931 . S
H1285 C1300 0.930 . S
C1286 H1274 0.930 . S
C1286 C1287 1.399 . S
C1286 C1291 1.399 . S
C1287 C1286 1.399 . S
C1287 C1288 1.376 . S
C1288 H1275 0.930 . S
C1288 C1287 1.376 . S
C1288 C1289 1.388 . S
C1289 H1276 0.930 . S
C1289 C1288 1.388 . S
C1289 C1290 1.390 . S
C1290 C1289 1.390 . S
C1290 C1291 1.394 . S
C1290 C1296 1.465 . S
C1291 C1286 1.399 . S
C1291 C1290 1.394 . S
C1291 C1292 1.516 . S
C1292 C1291 1.516 . S
C1292 C1293 1.502 . S
C1292 C1294 1.561 . S
C1292 C1295 1.526 . S
C1293 H1277 0.959 . S
C1293 H1278 0.959 . S
C1293 H1279 0.961 . S
C1293 C1292 1.502 . S
C1294 H1280 0.960 . S
C1294 H1281 0.961 . S
C1294 H1282 0.959 . S
C1294 C1292 1.561 . S
C1295 C1292 1.526 . S
C1295 C1296 1.396 . S
C1295 C1300 1.390 . S
C1296 C1290 1.465 . S
C1296 C1295 1.396 . S
C1296 C1297 1.399 . S
C1297 H1283 0.929 . S
C1297 C1296 1.399 . S
C1297 C1298 1.385 . S
C1298 H1284 0.931 . S
C1298 C1297 1.385 . S
C1298 C1299 1.389 . S
C1299 C1298 1.389 . S
C1299 C1300 1.387 . S
C1300 H1285 0.930 . S
C1300 C1295 1.390 . S
C1300 C1299 1.387 . S
H1301 C1313 0.930 . S
H1302 C1315 0.930 . S
H1303 C1316 0.930 . S
H1304 C1320 0.959 . S
H1305 C1320 0.959 . S
H1306 C1320 0.961 . S
H1307 C1321 0.960 . S
H1308 C1321 0.961 . S
H1309 C1321 0.959 . S
H1310 C1324 0.929 . S
H1311 C1325 0.931 . S
H1312 C1327 0.930 . S
C1313 H1301 0.930 . S
C1313 C1314 1.399 . S
C1313 C1318 1.399 . S
C1314 C1313 1.399 . S
C1314 C1315 1.376 . S
C1315 H1302 0.930 . S
C1315 C1314 1.376 . S
C1315 C1316 1.388 . S
C1316 H1303 0.930 . S
C1316 C1315 1.388 . S
C1316 C1317 1.390 . S
C1317 C1316 1.390 . S
C1317 C1318 1.394 . S
C1317 C1323 1.465 . S
C1318 C1313 1.399 . S
C1318 C1317 1.394 . S
C1318 C1319 1.516 . S
C1319 C1318 1.516 . S
C1319 C1320 1.502 . S
C1319 C1321 1.561 . S
C1319 C1322 1.526 . S
C1320 H1304 0.959 . S
C1320 H1305 0.959 . S
C1320 H1306 0.961 . S
C1320 C1319 1.502 . S
C1321 H1307 0.960 . S
C1321 H1308 0.961 . S
C1321 H1309 0.959 . S
C1321 C1319 1.561 . S
C1322 C1319 1.526 . S
C1322 C1323 1.396 . S
C1322 C1327 1.390 . S
C1323 C1317 1.465 . S
C1323 C1322 1.396 . S
C1323 C1324 1.399 . S
C1324 H1310 0.929 . S
C1324 C1323 1.399 . S
C1324 C1325 1.385 . S
C1325 H1311 0.931 . S
C1325 C1324 1.385 . S
C1325 C1326 1.389 . S
C1326 C1325 1.389 . S
C1326 C1327 1.387 . S
C1327 H1312 0.930 . S
C1327 C1322 1.390 . S
C1327 C1326 1.387 . S
H1328 C1340 0.930 . S
H1329 C1342 0.930 . S
H1330 C1343 0.930 . S
H1331 C1347 0.959 . S
H1332 C1347 0.959 . S
H1333 C1347 0.961 . S
H1334 C1348 0.960 . S
H1335 C1348 0.961 . S
H1336 C1348 0.959 1_655 S
H1337 C1351 0.929 . S
H1338 C1352 0.898 1_654 S
H1339 C1354 0.930 . S
C1340 H1328 0.930 . S
C1340 C1341 1.399 . S
C1340 C1345 1.399 . S
C1341 C1340 1.399 . S
C1341 C1342 1.376 1_455 S
C1342 H1329 0.930 . S
C1342 C1341 1.376 1_655 S
C1342 C1343 1.388 . S
C1343 H1330 0.930 . S
C1343 C1342 1.388 . S
C1343 C1344 1.380 1_655 S
C1344 C1343 1.380 1_455 S
C1344 C1345 1.404 . S
C1344 C1350 1.468 . S
C1345 C1340 1.399 . S
C1345 C1344 1.404 . S
C1345 C1346 1.516 . S
C1346 C1345 1.516 . S
C1346 C1347 1.502 . S
C1346 C1348 1.561 . S
C1346 C1349 1.526 . S
C1347 H1331 0.959 . S
C1347 H1332 0.959 . S
C1347 H1333 0.961 . S
C1347 C1346 1.502 . S
C1348 H1334 0.960 . S
C1348 H1335 0.961 . S
C1348 H1336 0.959 1_455 S
C1348 C1346 1.561 . S
C1349 C1346 1.526 . S
C1349 C1350 1.396 . S
C1349 C1354 1.390 . S
C1350 C1344 1.468 . S
C1350 C1349 1.396 . S
C1350 C1351 1.399 1_455 S
C1351 H1337 0.929 . S
C1351 C1350 1.399 1_655 S
C1351 C1352 1.400 1_655 S
C1352 H1338 0.898 1_456 S
C1352 C1351 1.400 1_455 S
C1352 C1353 1.408 . S
C1353 C1352 1.408 . S
C1353 C1354 1.387 . S
C1354 H1339 0.930 . S
C1354 C1349 1.390 . S
C1354 C1353 1.387 . S
H1355 C1367 0.930 . S
H1356 C1369 0.930 . S
H1357 C1370 0.930 . S
H1358 C1374 0.959 . S
H1359 C1374 0.959 . S
H1360 C1374 0.961 . S
H1361 C1375 0.960 . S
H1362 C1375 0.961 . S
H1363 C1375 0.959 . S
H1364 C1378 0.929 . S
H1365 C1379 0.931 . S
H1366 C1381 0.930 . S
C1367 H1355 0.930 . S
C1367 C1368 1.399 . S
C1367 C1372 1.399 . S
C1368 C1367 1.399 . S
C1368 C1369 1.376 . S
C1369 H1356 0.930 . S
C1369 C1368 1.376 . S
C1369 C1370 1.388 . S
C1370 H1357 0.930 . S
C1370 C1369 1.388 . S
C1370 C1371 1.390 . S
C1371 C1370 1.390 . S
C1371 C1372 1.394 . S
C1371 C1377 1.465 . S
C1372 C1367 1.399 . S
C1372 C1371 1.394 . S
C1372 C1373 1.516 . S
C1373 C1372 1.516 . S
C1373 C1374 1.502 . S
C1373 C1375 1.561 . S
C1373 C1376 1.526 . S
C1374 H1358 0.959 . S
C1374 H1359 0.959 . S
C1374 H1360 0.961 . S
C1374 C1373 1.502 . S
C1375 H1361 0.960 . S
C1375 H1362 0.961 . S
C1375 H1363 0.959 . S
C1375 C1373 1.561 . S
C1376 C1373 1.526 . S
C1376 C1377 1.396 . S
C1376 C1381 1.390 . S
C1377 C1371 1.465 . S
C1377 C1376 1.396 . S
C1377 C1378 1.399 . S
C1378 H1364 0.929 . S
C1378 C1377 1.399 . S
C1378 C1379 1.385 . S
C1379 H1365 0.931 . S
C1379 C1378 1.385 . S
C1379 C1380 1.389 . S
C1380 C1379 1.389 . S
C1380 C1381 1.387 . S
C1381 H1366 0.930 . S
C1381 C1376 1.390 . S
C1381 C1380 1.387 . S
H1382 C1394 0.930 . S
H1383 C1396 0.930 . S
H1384 C1397 0.930 . S
H1385 C1401 0.959 . S
H1386 C1401 0.959 . S
H1387 C1401 0.961 . S
H1388 C1402 0.960 . S
H1389 C1402 0.961 . S
H1390 C1402 0.959 . S
H1391 C1405 0.929 . S
H1392 C1406 0.931 . S
H1393 C1408 0.930 . S
C1394 H1382 0.930 . S
C1394 C1395 1.399 . S
C1394 C1399 1.399 . S
C1395 C1394 1.399 . S
C1395 C1396 1.376 . S
C1396 H1383 0.930 . S
C1396 C1395 1.376 . S
C1396 C1397 1.388 . S
C1397 H1384 0.930 . S
C1397 C1396 1.388 . S
C1397 C1398 1.390 . S
C1398 C1397 1.390 . S
C1398 C1399 1.394 . S
C1398 C1404 1.465 . S
C1399 C1394 1.399 . S
C1399 C1398 1.394 . S
C1399 C1400 1.516 . S
C1400 C1399 1.516 . S
C1400 C1401 1.502 . S
C1400 C1402 1.561 . S
C1400 C1403 1.526 . S
C1401 H1385 0.959 . S
C1401 H1386 0.959 . S
C1401 H1387 0.961 . S
C1401 C1400 1.502 . S
C1402 H1388 0.960 . S
C1402 H1389 0.961 . S
C1402 H1390 0.959 . S
C1402 C1400 1.561 . S
C1403 C1400 1.526 . S
C1403 C1404 1.396 . S
C1403 C1408 1.390 . S
C1404 C1398 1.465 . S
C1404 C1403 1.396 . S
C1404 C1405 1.399 . S
C1405 H1391 0.929 . S
C1405 C1404 1.399 . S
C1405 C1406 1.385 . S
C1406 H1392 0.931 . S
C1406 C1405 1.385 . S
C1406 C1407 1.389 . S
C1407 C1406 1.389 . S
C1407 C1408 1.387 . S
C1408 H1393 0.930 . S
C1408 C1403 1.390 . S
C1408 C1407 1.387 . S
H1409 C1421 0.930 . S
H1410 C1423 0.930 . S
H1411 C1424 0.930 . S
H1412 C1428 0.959 . S
H1413 C1428 0.959 . S
H1414 C1428 0.961 . S
H1415 C1429 0.960 . S
H1416 C1429 0.961 . S
H1417 C1429 0.959 . S
H1418 C1432 0.929 . S
H1419 C1433 0.931 . S
H1420 C1435 0.930 . S
C1421 H1409 0.930 . S
C1421 C1422 1.399 . S
C1421 C1426 1.399 . S
C1422 C1421 1.399 . S
C1422 C1423 1.376 . S
C1423 H1410 0.930 . S
C1423 C1422 1.376 . S
C1423 C1424 1.388 . S
C1424 H1411 0.930 . S
C1424 C1423 1.388 . S
C1424 C1425 1.390 . S
C1425 C1424 1.390 . S
C1425 C1426 1.394 . S
C1425 C1431 1.465 . S
C1426 C1421 1.399 . S
C1426 C1425 1.394 . S
C1426 C1427 1.516 . S
C1427 C1426 1.516 . S
C1427 C1428 1.502 . S
C1427 C1429 1.561 . S
C1427 C1430 1.526 . S
C1428 H1412 0.959 . S
C1428 H1413 0.959 . S
C1428 H1414 0.961 . S
C1428 C1427 1.502 . S
C1429 H1415 0.960 . S
C1429 H1416 0.961 . S
C1429 H1417 0.959 . S
C1429 C1427 1.561 . S
C1430 C1427 1.526 . S
C1430 C1431 1.396 . S
C1430 C1435 1.390 . S
C1431 C1425 1.465 . S
C1431 C1430 1.396 . S
C1431 C1432 1.399 . S
C1432 H1418 0.929 . S
C1432 C1431 1.399 . S
C1432 C1433 1.385 . S
C1433 H1419 0.931 . S
C1433 C1432 1.385 . S
C1433 C1434 1.389 . S
C1434 C1433 1.389 . S
C1434 C1435 1.387 . S
C1435 H1420 0.930 . S
C1435 C1430 1.390 . S
C1435 C1434 1.387 . S
H1436 C1448 0.930 . S
H1437 C1450 0.930 . S
H1438 C1451 0.930 . S
H1439 C1455 0.959 . S
H1440 C1455 0.959 . S
H1441 C1455 0.961 . S
H1442 C1456 0.960 1_655 S
H1443 C1456 0.961 1_655 S
H1444 C1456 0.959 . S
H1445 C1459 0.929 . S
H1446 C1460 0.931 . S
H1447 C1462 0.910 1_655 S
C1448 H1436 0.930 . S
C1448 C1449 1.399 1_655 S
C1448 C1453 1.399 1_655 S
C1449 C1448 1.399 1_455 S
C1449 C1450 1.376 . S
C1450 H1437 0.930 . S
C1450 C1449 1.376 . S
C1450 C1451 1.388 . S
C1451 H1438 0.930 . S
C1451 C1450 1.388 . S
C1451 C1452 1.390 . S
C1452 C1451 1.390 . S
C1452 C1453 1.394 . S
C1452 C1458 1.465 . S
C1453 C1448 1.399 1_455 S
C1453 C1452 1.394 . S
C1453 C1454 1.516 1_455 S
C1454 C1453 1.516 1_655 S
C1454 C1455 1.502 . S
C1454 C1456 1.561 1_655 S
C1454 C1457 1.526 1_655 S
C1455 H1439 0.959 . S
C1455 H1440 0.959 . S
C1455 H1441 0.961 . S
C1455 C1454 1.502 . S
C1456 H1442 0.960 1_455 S
C1456 H1443 0.961 1_455 S
C1456 H1444 0.959 . S
C1456 C1454 1.561 1_455 S
C1457 C1454 1.526 1_455 S
C1457 C1458 1.396 . S
C1457 C1462 1.390 . S
C1458 C1452 1.465 . S
C1458 C1457 1.396 . S
C1458 C1459 1.399 . S
C1459 H1445 0.929 . S
C1459 C1458 1.399 . S
C1459 C1460 1.385 . S
C1460 H1446 0.931 . S
C1460 C1459 1.385 . S
C1460 C1461 1.389 . S
C1461 C1460 1.389 . S
C1461 C1462 1.387 . S
C1462 H1447 0.910 1_455 S
C1462 C1457 1.390 . S
C1462 C1461 1.387 . S
H1463 C1475 0.930 . S
H1464 C1477 0.930 . S
H1465 C1478 0.930 . S
H1466 C1482 0.959 . S
H1467 C1482 0.959 . S
H1468 C1482 0.961 . S
H1469 C1483 0.960 . S
H1470 C1483 0.961 . S
H1471 C1483 0.959 . S
H1472 C1486 0.929 . S
H1473 C1487 0.931 . S
H1474 C1489 0.930 . S
C1475 H1463 0.930 . S
C1475 C1476 1.399 . S
C1475 C1480 1.399 . S
C1476 C1475 1.399 . S
C1476 C1477 1.376 . S
C1477 H1464 0.930 . S
C1477 C1476 1.376 . S
C1477 C1478 1.388 . S
C1478 H1465 0.930 . S
C1478 C1477 1.388 . S
C1478 C1479 1.390 . S
C1479 C1478 1.390 . S
C1479 C1480 1.394 . S
C1479 C1485 1.465 . S
C1480 C1475 1.399 . S
C1480 C1479 1.394 . S
C1480 C1481 1.516 . S
C1481 C1480 1.516 . S
C1481 C1482 1.502 . S
C1481 C1483 1.561 . S
C1481 C1484 1.526 . S
C1482 H1466 0.959 . S
C1482 H1467 0.959 . S
C1482 H1468 0.961 . S
C1482 C1481 1.502 . S
C1483 H1469 0.960 . S
C1483 H1470 0.961 . S
C1483 H1471 0.959 . S
C1483 C1481 1.561 . S
C1484 C1481 1.526 . S
C1484 C1485 1.396 . S
C1484 C1489 1.390 . S
C1485 C1479 1.465 . S
C1485 C1484 1.396 . S
C1485 C1486 1.399 . S
C1486 H1472 0.929 . S
C1486 C1485 1.399 . S
C1486 C1487 1.385 . S
C1487 H1473 0.931 . S
C1487 C1486 1.385 . S
C1487 C1488 1.389 . S
C1488 C1487 1.389 . S
C1488 C1489 1.387 . S
C1489 H1474 0.930 . S
C1489 C1484 1.390 . S
C1489 C1488 1.387 . S
H1490 C1502 0.930 . S
H1491 C1504 0.930 . S
H1492 C1505 0.930 . S
H1493 C1509 0.959 . S
H1494 C1509 0.959 . S
H1495 C1509 0.961 . S
H1496 C1510 0.960 . S
H1497 C1510 0.961 . S
H1498 C1510 0.959 . S
H1499 C1513 0.929 . S
H1500 C1514 0.931 . S
H1501 C1516 0.930 . S
C1502 H1490 0.930 . S
C1502 C1503 1.399 . S
C1502 C1507 1.399 . S
C1503 C1502 1.399 . S
C1503 C1504 1.376 . S
C1504 H1491 0.930 . S
C1504 C1503 1.376 . S
C1504 C1505 1.388 . S
C1505 H1492 0.930 . S
C1505 C1504 1.388 . S
C1505 C1506 1.390 . S
C1506 C1505 1.390 . S
C1506 C1507 1.394 . S
C1506 C1512 1.465 . S
C1507 C1502 1.399 . S
C1507 C1506 1.394 . S
C1507 C1508 1.516 . S
C1508 C1507 1.516 . S
C1508 C1509 1.502 . S
C1508 C1510 1.561 . S
C1508 C1511 1.526 . S
C1509 H1493 0.959 . S
C1509 H1494 0.959 . S
C1509 H1495 0.961 . S
C1509 C1508 1.502 . S
C1510 H1496 0.960 . S
C1510 H1497 0.961 . S
C1510 H1498 0.959 . S
C1510 C1508 1.561 . S
C1511 C1508 1.526 . S
C1511 C1512 1.396 . S
C1511 C1516 1.390 . S
C1512 C1506 1.465 . S
C1512 C1511 1.396 . S
C1512 C1513 1.399 . S
C1513 H1499 0.929 . S
C1513 C1512 1.399 . S
C1513 C1514 1.385 . S
C1514 H1500 0.931 . S
C1514 C1513 1.385 . S
C1514 C1515 1.389 . S
C1515 C1514 1.389 . S
C1515 C1516 1.387 . S
C1516 H1501 0.930 . S
C1516 C1511 1.390 . S
C1516 C1515 1.387 . S
H1517 C1529 0.930 . S
H1518 C1531 0.930 . S
H1519 C1532 0.930 . S
H1520 C1536 0.959 . S
H1521 C1536 0.959 . S
H1522 C1536 0.961 . S
H1523 C1537 0.960 . S
H1524 C1537 0.961 . S
H1525 C1537 0.959 . S
H1526 C1540 0.929 . S
H1527 C1541 0.931 . S
H1528 C1543 0.930 . S
C1529 H1517 0.930 . S
C1529 C1530 1.399 . S
C1529 C1534 1.399 . S
C1530 C1529 1.399 . S
C1530 C1531 1.376 . S
C1531 H1518 0.930 . S
C1531 C1530 1.376 . S
C1531 C1532 1.388 . S
C1532 H1519 0.930 . S
C1532 C1531 1.388 . S
C1532 C1533 1.390 . S
C1533 C1532 1.390 . S
C1533 C1534 1.394 . S
C1533 C1539 1.465 . S
C1534 C1529 1.399 . S
C1534 C1533 1.394 . S
C1534 C1535 1.516 . S
C1535 C1534 1.516 . S
C1535 C1536 1.502 . S
C1535 C1537 1.561 . S
C1535 C1538 1.526 . S
C1536 H1520 0.959 . S
C1536 H1521 0.959 . S
C1536 H1522 0.961 . S
C1536 C1535 1.502 . S
C1537 H1523 0.960 . S
C1537 H1524 0.961 . S
C1537 H1525 0.959 . S
C1537 C1535 1.561 . S
C1538 C1535 1.526 . S
C1538 C1539 1.396 . S
C1538 C1543 1.390 . S
C1539 C1533 1.465 . S
C1539 C1538 1.396 . S
C1539 C1540 1.399 . S
C1540 H1526 0.929 . S
C1540 C1539 1.399 . S
C1540 C1541 1.385 . S
C1541 H1527 0.931 . S
C1541 C1540 1.385 . S
C1541 C1542 1.389 . S
C1542 C1541 1.389 . S
C1542 C1543 1.387 . S
C1543 H1528 0.930 . S
C1543 C1538 1.390 . S
C1543 C1542 1.387 . S
H1544 C1556 0.891 1_565 S
H1545 C1558 0.930 . S
H1546 C1559 0.930 . S
H1547 C1563 0.959 . S
H1548 C1563 0.959 . S
H1549 C1563 0.961 . S
H1550 C1564 0.960 . S
H1551 C1564 0.961 . S
H1552 C1564 0.959 1_545 S
H1553 C1567 0.929 . S
H1554 C1568 0.931 . S
H1555 C1570 0.930 . S
C1556 H1544 0.891 1_545 S
C1556 C1557 1.424 . S
C1556 C1561 1.414 . S
C1557 C1556 1.424 . S
C1557 C1558 1.376 . S
C1558 H1545 0.930 . S
C1558 C1557 1.376 . S
C1558 C1559 1.388 . S
C1559 H1546 0.930 . S
C1559 C1558 1.388 . S
C1559 C1560 1.390 . S
C1560 C1559 1.390 . S
C1560 C1561 1.394 . S
C1560 C1566 1.465 . S
C1561 C1556 1.414 . S
C1561 C1560 1.394 . S
C1561 C1562 1.516 1_545 S
C1562 C1561 1.516 1_565 S
C1562 C1563 1.502 . S
C1562 C1564 1.561 . S
C1562 C1565 1.526 1_565 S
C1563 H1547 0.959 . S
C1563 H1548 0.959 . S
C1563 H1549 0.961 . S
C1563 C1562 1.502 . S
C1564 H1550 0.960 . S
C1564 H1551 0.961 . S
C1564 H1552 0.959 1_565 S
C1564 C1562 1.561 . S
C1565 C1562 1.526 1_545 S
C1565 C1566 1.396 . S
C1565 C1570 1.390 . S
C1566 C1560 1.465 . S
C1566 C1565 1.396 . S
C1566 C1567 1.399 . S
C1567 H1553 0.929 . S
C1567 C1566 1.399 . S
C1567 C1568 1.385 . S
C1568 H1554 0.931 . S
C1568 C1567 1.385 . S
C1568 C1569 1.389 . S
C1569 C1568 1.389 . S
C1569 C1570 1.387 . S
C1570 H1555 0.930 . S
C1570 C1565 1.390 . S
C1570 C1569 1.387 . S
H1571 C1583 0.930 . S
H1572 C1585 0.930 . S
H1573 C1586 0.930 . S
H1574 C1590 0.959 . S
H1575 C1590 0.959 . S
H1576 C1590 0.961 . S
H1577 C1591 0.960 . S
H1578 C1591 0.961 . S
H1579 C1591 0.959 . S
H1580 C1594 0.929 . S
H1581 C1595 0.931 . S
H1582 C1597 0.930 . S
C1583 H1571 0.930 . S
C1583 C1584 1.399 . S
C1583 C1588 1.399 . S
C1584 C1583 1.399 . S
C1584 C1585 1.376 . S
C1585 H1572 0.930 . S
C1585 C1584 1.376 . S
C1585 C1586 1.388 . S
C1586 H1573 0.930 . S
C1586 C1585 1.388 . S
C1586 C1587 1.390 . S
C1587 C1586 1.390 . S
C1587 C1588 1.394 . S
C1587 C1593 1.465 . S
C1588 C1583 1.399 . S
C1588 C1587 1.394 . S
C1588 C1589 1.516 . S
C1589 C1588 1.516 . S
C1589 C1590 1.502 . S
C1589 C1591 1.561 . S
C1589 C1592 1.526 . S
C1590 H1574 0.959 . S
C1590 H1575 0.959 . S
C1590 H1576 0.961 . S
C1590 C1589 1.502 . S
C1591 H1577 0.960 . S
C1591 H1578 0.961 . S
C1591 H1579 0.959 . S
C1591 C1589 1.561 . S
C1592 C1589 1.526 . S
C1592 C1593 1.396 . S
C1592 C1597 1.390 . S
C1593 C1587 1.465 . S
C1593 C1592 1.396 . S
C1593 C1594 1.399 . S
C1594 H1580 0.929 . S
C1594 C1593 1.399 . S
C1594 C1595 1.385 . S
C1595 H1581 0.931 . S
C1595 C1594 1.385 . S
C1595 C1596 1.389 . S
C1596 C1595 1.389 . S
C1596 C1597 1.387 . S
C1597 H1582 0.930 . S
C1597 C1592 1.390 . S
C1597 C1596 1.387 . S
H1598 C1610 0.930 . S
H1599 C1612 0.930 . S
H1600 C1613 0.930 . S
H1601 C1617 0.959 . S
H1602 C1617 0.959 . S
H1603 C1617 0.961 . S
H1604 C1618 0.960 . S
H1605 C1618 0.961 . S
H1606 C1618 0.959 . S
H1607 C1621 0.929 . S
H1608 C1622 0.931 . S
H1609 C1624 0.930 . S
C1610 H1598 0.930 . S
C1610 C1611 1.399 1_565 S
C1610 C1615 1.399 . S
C1611 C1610 1.399 1_545 S
C1611 C1612 1.376 . S
C1612 H1599 0.930 . S
C1612 C1611 1.376 . S
C1612 C1613 1.388 . S
C1613 H1600 0.930 . S
C1613 C1612 1.388 . S
C1613 C1614 1.390 . S
C1614 C1613 1.390 . S
C1614 C1615 1.394 1_545 S
C1614 C1620 1.465 . S
C1615 C1610 1.399 . S
C1615 C1614 1.394 1_565 S
C1615 C1616 1.516 . S
C1616 C1615 1.516 . S
C1616 C1617 1.502 . S
C1616 C1618 1.561 . S
C1616 C1619 1.526 . S
C1617 H1601 0.959 . S
C1617 H1602 0.959 . S
C1617 H1603 0.961 . S
C1617 C1616 1.502 . S
C1618 H1604 0.960 . S
C1618 H1605 0.961 . S
C1618 H1606 0.959 . S
C1618 C1616 1.561 . S
C1619 C1616 1.526 . S
C1619 C1620 1.396 1_565 S
C1619 C1624 1.390 . S
C1620 C1614 1.465 . S
C1620 C1619 1.396 1_545 S
C1620 C1621 1.399 . S
C1621 H1607 0.929 . S
C1621 C1620 1.399 . S
C1621 C1622 1.385 . S
C1622 H1608 0.931 . S
C1622 C1621 1.385 . S
C1622 C1623 1.389 1_545 S
C1623 C1622 1.389 1_565 S
C1623 C1624 1.387 . S
C1624 H1609 0.930 . S
C1624 C1619 1.390 . S
C1624 C1623 1.387 . S
H1625 C1637 0.930 . S
H1626 C1639 0.930 . S
H1627 C1640 0.930 . S
H1628 C1644 0.959 . S
H1629 C1644 0.959 . S
H1630 C1644 0.961 . S
H1631 C1645 0.960 . S
H1632 C1645 0.961 . S
H1633 C1645 0.959 . S
H1634 C1648 0.929 . S
H1635 C1649 0.931 . S
H1636 C1651 0.930 . S
C1637 H1625 0.930 . S
C1637 C1638 1.399 . S
C1637 C1642 1.399 . S
C1638 C1637 1.399 . S
C1638 C1639 1.376 . S
C1639 H1626 0.930 . S
C1639 C1638 1.376 . S
C1639 C1640 1.388 . S
C1640 H1627 0.930 . S
C1640 C1639 1.388 . S
C1640 C1641 1.390 . S
C1641 C1640 1.390 . S
C1641 C1642 1.394 . S
C1641 C1647 1.465 . S
C1642 C1637 1.399 . S
C1642 C1641 1.394 . S
C1642 C1643 1.516 . S
C1643 C1642 1.516 . S
C1643 C1644 1.502 . S
C1643 C1645 1.561 . S
C1643 C1646 1.526 . S
C1644 H1628 0.959 . S
C1644 H1629 0.959 . S
C1644 H1630 0.961 . S
C1644 C1643 1.502 . S
C1645 H1631 0.960 . S
C1645 H1632 0.961 . S
C1645 H1633 0.959 . S
C1645 C1643 1.561 . S
C1646 C1643 1.526 . S
C1646 C1647 1.396 . S
C1646 C1651 1.390 . S
C1647 C1641 1.465 . S
C1647 C1646 1.396 . S
C1647 C1648 1.399 . S
C1648 H1634 0.929 . S
C1648 C1647 1.399 . S
C1648 C1649 1.385 . S
C1649 H1635 0.931 . S
C1649 C1648 1.385 . S
C1649 C1650 1.389 . S
C1650 C1649 1.389 . S
C1650 C1651 1.387 . S
C1651 H1636 0.930 . S
C1651 C1646 1.390 . S
C1651 C1650 1.387 . S
H1652 C1664 0.930 . S
H1653 C1666 0.930 . S
H1654 C1667 0.930 . S
H1655 C1671 0.959 . S
H1656 C1671 0.977 1_455 S
H1657 C1671 0.961 . S
H1658 C1672 0.960 . S
H1659 C1672 0.961 . S
H1660 C1672 0.959 . S
H1661 C1675 0.929 . S
H1662 C1676 0.931 . S
H1663 C1678 0.930 . S
C1664 H1652 0.930 . S
C1664 C1665 1.399 . S
C1664 C1669 1.399 . S
C1665 C1664 1.399 . S
C1665 C1666 1.376 . S
C1666 H1653 0.930 . S
C1666 C1665 1.376 . S
C1666 C1667 1.388 . S
C1667 H1654 0.930 . S
C1667 C1666 1.388 . S
C1667 C1668 1.390 . S
C1668 C1667 1.390 . S
C1668 C1669 1.394 . S
C1668 C1674 1.465 . S
C1669 C1664 1.399 . S
C1669 C1668 1.394 . S
C1669 C1670 1.516 1_545 S
C1670 C1669 1.516 1_565 S
C1670 C1671 1.502 1_565 S
C1670 C1672 1.561 . S
C1670 C1673 1.526 1_565 S
C1671 H1655 0.959 . S
C1671 H1656 0.977 1_655 S
C1671 H1657 0.961 . S
C1671 C1670 1.502 1_545 S
C1672 H1658 0.960 . S
C1672 H1659 0.961 . S
C1672 H1660 0.959 . S
C1672 C1670 1.561 . S
C1673 C1670 1.526 1_545 S
C1673 C1674 1.396 . S
C1673 C1678 1.390 1_545 S
C1674 C1668 1.465 . S
C1674 C1673 1.396 . S
C1674 C1675 1.399 . S
C1675 H1661 0.929 . S
C1675 C1674 1.399 . S
C1675 C1676 1.385 . S
C1676 H1662 0.931 . S
C1676 C1675 1.385 . S
C1676 C1677 1.398 . S
C1677 C1676 1.398 . S
C1677 C1678 1.383 1_545 S
C1678 H1663 0.930 . S
C1678 C1673 1.390 1_565 S
C1678 C1677 1.383 1_565 S
H1679 C1691 0.930 . S
H1680 C1693 0.930 . S
H1681 C1694 0.930 . S
H1682 C1698 0.959 . S
H1683 C1698 0.959 . S
H1684 C1698 0.961 . S
H1685 C1699 0.960 . S
H1686 C1699 0.961 . S
H1687 C1699 0.959 . S
H1688 C1702 0.929 . S
H1689 C1703 0.931 . S
H1690 C1705 0.930 . S
C1691 H1679 0.930 . S
C1691 C1692 1.399 . S
C1691 C1696 1.399 . S
C1692 C1691 1.399 . S
C1692 C1693 1.376 . S
C1693 H1680 0.930 . S
C1693 C1692 1.376 . S
C1693 C1694 1.388 . S
C1694 H1681 0.930 . S
C1694 C1693 1.388 . S
C1694 C1695 1.390 . S
C1695 C1694 1.390 . S
C1695 C1696 1.394 . S
C1695 C1701 1.465 . S
C1696 C1691 1.399 . S
C1696 C1695 1.394 . S
C1696 C1697 1.516 . S
C1697 C1696 1.516 . S
C1697 C1698 1.502 . S
C1697 C1699 1.561 . S
C1697 C1700 1.526 . S
C1698 H1682 0.959 . S
C1698 H1683 0.959 . S
C1698 H1684 0.961 . S
C1698 C1697 1.502 . S
C1699 H1685 0.960 . S
C1699 H1686 0.961 . S
C1699 H1687 0.959 . S
C1699 C1697 1.561 . S
C1700 C1697 1.526 . S
C1700 C1701 1.396 . S
C1700 C1705 1.390 . S
C1701 C1695 1.465 . S
C1701 C1700 1.396 . S
C1701 C1702 1.399 . S
C1702 H1688 0.929 . S
C1702 C1701 1.399 . S
C1702 C1703 1.385 . S
C1703 H1689 0.931 . S
C1703 C1702 1.385 . S
C1703 C1704 1.389 . S
C1704 C1703 1.389 . S
C1704 C1705 1.387 . S
C1705 H1690 0.930 . S
C1705 C1700 1.390 . S
C1705 C1704 1.387 . S
H1706 C1718 0.930 . S
H1707 C1720 0.930 . S
H1708 C1721 0.930 . S
H1709 C1725 0.959 . S
H1710 C1725 0.959 . S
H1711 C1725 0.961 . S
H1712 C1726 0.960 . S
H1713 C1726 0.961 . S
H1714 C1726 0.959 . S
H1715 C1729 0.929 . S
H1716 C1730 0.931 . S
H1717 C1732 0.930 . S
C1718 H1706 0.930 . S
C1718 C1719 1.399 1_545 S
C1718 C1723 1.399 . S
C1719 C1718 1.399 1_565 S
C1719 C1720 1.376 . S
C1720 H1707 0.930 . S
C1720 C1719 1.376 . S
C1720 C1721 1.388 . S
C1721 H1708 0.930 . S
C1721 C1720 1.388 . S
C1721 C1722 1.390 . S
C1722 C1721 1.390 . S
C1722 C1723 1.394 1_565 S
C1722 C1728 1.465 . S
C1723 C1718 1.399 . S
C1723 C1722 1.394 1_545 S
C1723 C1724 1.516 . S
C1724 C1723 1.516 . S
C1724 C1725 1.502 . S
C1724 C1726 1.561 . S
C1724 C1727 1.526 . S
C1725 H1709 0.959 . S
C1725 H1710 0.959 . S
C1725 H1711 0.961 . S
C1725 C1724 1.502 . S
C1726 H1712 0.960 . S
C1726 H1713 0.961 . S
C1726 H1714 0.959 . S
C1726 C1724 1.561 . S
C1727 C1724 1.526 . S
C1727 C1728 1.396 1_545 S
C1727 C1732 1.390 . S
C1728 C1722 1.465 . S
C1728 C1727 1.396 1_565 S
C1728 C1729 1.399 . S
C1729 H1715 0.929 . S
C1729 C1728 1.399 . S
C1729 C1730 1.385 . S
C1730 H1716 0.931 . S
C1730 C1729 1.385 . S
C1730 C1731 1.389 1_565 S
C1731 C1730 1.389 1_545 S
C1731 C1732 1.387 . S
C1732 H1717 0.930 . S
C1732 C1727 1.390 . S
C1732 C1731 1.387 . S
H1733 C1745 0.930 . S
H1734 C1747 0.930 . S
H1735 C1748 0.930 . S
H1736 C1752 0.959 . S
H1737 C1752 0.959 . S
H1738 C1752 0.961 . S
H1739 C1753 0.960 . S
H1740 C1753 0.961 . S
H1741 C1753 0.959 . S
H1742 C1756 0.929 . S
H1743 C1757 0.931 . S
H1744 C1759 0.930 . S
C1745 H1733 0.930 . S
C1745 C1746 1.399 . S
C1745 C1750 1.399 . S
C1746 C1745 1.399 . S
C1746 C1747 1.376 . S
C1747 H1734 0.930 . S
C1747 C1746 1.376 . S
C1747 C1748 1.388 . S
C1748 H1735 0.930 . S
C1748 C1747 1.388 . S
C1748 C1749 1.390 . S
C1749 C1748 1.390 . S
C1749 C1750 1.394 . S
C1749 C1755 1.465 . S
C1750 C1745 1.399 . S
C1750 C1749 1.394 . S
C1750 C1751 1.516 . S
C1751 C1750 1.516 . S
C1751 C1752 1.502 . S
C1751 C1753 1.561 . S
C1751 C1754 1.526 . S
C1752 H1736 0.959 . S
C1752 H1737 0.959 . S
C1752 H1738 0.961 . S
C1752 C1751 1.502 . S
C1753 H1739 0.960 . S
C1753 H1740 0.961 . S
C1753 H1741 0.959 . S
C1753 C1751 1.561 . S
C1754 C1751 1.526 . S
C1754 C1755 1.396 . S
C1754 C1759 1.390 . S
C1755 C1749 1.465 . S
C1755 C1754 1.396 . S
C1755 C1756 1.399 . S
C1756 H1742 0.929 . S
C1756 C1755 1.399 . S
C1756 C1757 1.385 . S
C1757 H1743 0.931 . S
C1757 C1756 1.385 . S
C1757 C1758 1.389 . S
C1758 C1757 1.389 . S
C1758 C1759 1.387 . S
C1759 H1744 0.930 . S
C1759 C1754 1.390 . S
C1759 C1758 1.387 . S
H1760 C1772 0.930 . S
H1761 C1774 0.930 . S
H1762 C1775 0.930 . S
H1763 C1779 0.959 . S
H1764 C1779 0.959 . S
H1765 C1779 0.961 . S
H1766 C1780 0.960 . S
H1767 C1780 0.961 . S
H1768 C1780 0.959 1_556 S
H1769 C1783 0.929 1_556 S
H1770 C1784 0.931 . S
H1771 C1786 0.930 . S
C1772 H1760 0.930 . S
C1772 C1773 1.401 1_554 S
C1772 C1777 1.399 . S
C1773 C1772 1.401 1_556 S
C1773 C1774 1.375 . S
C1774 H1761 0.930 . S
C1774 C1773 1.375 . S
C1774 C1775 1.388 . S
C1775 H1762 0.930 . S
C1775 C1774 1.388 . S
C1775 C1776 1.390 1_556 S
C1776 C1775 1.390 1_554 S
C1776 C1777 1.394 . S
C1776 C1782 1.465 . S
C1777 C1772 1.399 . S
C1777 C1776 1.394 . S
C1777 C1778 1.516 . S
C1778 C1777 1.516 . S
C1778 C1779 1.502 . S
C1778 C1780 1.561 . S
C1778 C1781 1.526 . S
C1779 H1763 0.959 . S
C1779 H1764 0.959 . S
C1779 H1765 0.961 . S
C1779 C1778 1.502 . S
C1780 H1766 0.960 . S
C1780 H1767 0.961 . S
C1780 H1768 0.959 1_554 S
C1780 C1778 1.561 . S
C1781 C1778 1.526 . S
C1781 C1782 1.396 . S
C1781 C1786 1.390 . S
C1782 C1776 1.465 . S
C1782 C1781 1.396 . S
C1782 C1783 1.399 . S
C1783 H1769 0.929 1_554 S
C1783 C1782 1.399 . S
C1783 C1784 1.385 . S
C1784 H1770 0.931 . S
C1784 C1783 1.385 . S
C1784 C1785 1.389 . S
C1785 C1784 1.389 . S
C1785 C1786 1.387 . S
C1786 H1771 0.930 . S
C1786 C1781 1.390 . S
C1786 C1785 1.387 . S
H1787 C1799 0.930 . S
H1788 C1801 0.930 . S
H1789 C1802 0.930 . S
H1790 C1806 0.961 1_556 S
H1791 C1806 0.959 . S
H1792 C1806 0.961 . S
H1793 C1807 0.960 . S
H1794 C1807 0.961 . S
H1795 C1807 0.959 . S
H1796 C1810 0.929 . S
H1797 C1811 0.931 . S
H1798 C1813 0.930 . S
C1799 H1787 0.930 . S
C1799 C1800 1.399 . S
C1799 C1804 1.399 . S
C1800 C1799 1.399 . S
C1800 C1801 1.376 1_554 S
C1801 H1788 0.930 . S
C1801 C1800 1.376 1_556 S
C1801 C1802 1.388 . S
C1802 H1789 0.930 . S
C1802 C1801 1.388 . S
C1802 C1803 1.390 . S
C1803 C1802 1.390 . S
C1803 C1804 1.394 1_556 S
C1803 C1809 1.465 . S
C1804 C1799 1.399 . S
C1804 C1803 1.394 1_554 S
C1804 C1805 1.516 . S
C1805 C1804 1.516 . S
C1805 C1806 1.502 . S
C1805 C1807 1.561 . S
C1805 C1808 1.526 . S
C1806 H1790 0.961 1_554 S
C1806 H1791 0.959 . S
C1806 H1792 0.961 . S
C1806 C1805 1.502 . S
C1807 H1793 0.960 . S
C1807 H1794 0.961 . S
C1807 H1795 0.959 . S
C1807 C1805 1.561 . S
C1808 C1805 1.526 . S
C1808 C1809 1.396 1_554 S
C1808 C1813 1.390 . S
C1809 C1803 1.465 . S
C1809 C1808 1.396 1_556 S
C1809 C1810 1.399 . S
C1810 H1796 0.929 . S
C1810 C1809 1.399 . S
C1810 C1811 1.385 . S
C1811 H1797 0.931 . S
C1811 C1810 1.385 . S
C1811 C1812 1.389 . S
C1812 C1811 1.389 . S
C1812 C1813 1.387 1_556 S
C1813 H1798 0.930 . S
C1813 C1808 1.390 . S
C1813 C1812 1.387 1_554 S
H1814 C1826 0.930 . S
H1815 C1828 0.930 . S
H1816 C1829 0.930 . S
H1817 C1833 0.959 . S
H1818 C1833 0.959 . S
H1819 C1833 0.961 . S
H1820 C1834 0.960 . S
H1821 C1834 0.961 . S
H1822 C1834 0.959 . S
H1823 C1837 0.929 . S
H1824 C1838 0.931 . S
H1825 C1840 0.930 . S
C1826 H1814 0.930 . S
C1826 C1827 1.399 . S
C1826 C1831 1.399 . S
C1827 C1826 1.399 . S
C1827 C1828 1.376 . S
C1828 H1815 0.930 . S
C1828 C1827 1.376 . S
C1828 C1829 1.388 . S
C1829 H1816 0.930 . S
C1829 C1828 1.388 . S
C1829 C1830 1.390 . S
C1830 C1829 1.390 . S
C1830 C1831 1.394 . S
C1830 C1836 1.465 . S
C1831 C1826 1.399 . S
C1831 C1830 1.394 . S
C1831 C1832 1.516 . S
C1832 C1831 1.516 . S
C1832 C1833 1.502 . S
C1832 C1834 1.561 . S
C1832 C1835 1.526 . S
C1833 H1817 0.959 . S
C1833 H1818 0.959 . S
C1833 H1819 0.961 . S
C1833 C1832 1.502 . S
C1834 H1820 0.960 . S
C1834 H1821 0.961 . S
C1834 H1822 0.959 . S
C1834 C1832 1.561 . S
C1835 C1832 1.526 . S
C1835 C1836 1.396 . S
C1835 C1840 1.390 . S
C1836 C1830 1.465 . S
C1836 C1835 1.396 . S
C1836 C1837 1.399 . S
C1837 H1823 0.929 . S
C1837 C1836 1.399 . S
C1837 C1838 1.385 . S
C1838 H1824 0.931 . S
C1838 C1837 1.385 . S
C1838 C1839 1.389 . S
C1839 C1838 1.389 . S
C1839 C1840 1.387 . S
C1840 H1825 0.930 . S
C1840 C1835 1.390 . S
C1840 C1839 1.387 . S
H1841 C1853 0.930 . S
H1842 C1855 0.930 . S
H1843 C1856 0.930 . S
H1844 C1860 0.959 . S
H1845 C1860 0.959 . S
H1846 C1860 0.961 . S
H1847 C1861 0.960 . S
H1848 C1861 0.961 . S
H1849 C1861 0.959 . S
H1850 C1864 0.929 . S
H1851 C1865 0.931 . S
H1852 C1867 0.930 . S
C1853 H1841 0.930 . S
C1853 C1854 1.399 . S
C1853 C1858 1.399 . S
C1854 C1853 1.399 . S
C1854 C1855 1.376 . S
C1855 H1842 0.930 . S
C1855 C1854 1.376 . S
C1855 C1856 1.388 . S
C1856 H1843 0.930 . S
C1856 C1855 1.388 . S
C1856 C1857 1.390 . S
C1857 C1856 1.390 . S
C1857 C1858 1.394 . S
C1857 C1863 1.465 . S
C1858 C1853 1.399 . S
C1858 C1857 1.394 . S
C1858 C1859 1.516 . S
C1859 C1858 1.516 . S
C1859 C1860 1.502 . S
C1859 C1861 1.561 . S
C1859 C1862 1.526 . S
C1860 H1844 0.959 . S
C1860 H1845 0.959 . S
C1860 H1846 0.961 . S
C1860 C1859 1.502 . S
C1861 H1847 0.960 . S
C1861 H1848 0.961 . S
C1861 H1849 0.959 . S
C1861 C1859 1.561 . S
C1862 C1859 1.526 . S
C1862 C1863 1.396 . S
C1862 C1867 1.390 . S
C1863 C1857 1.465 . S
C1863 C1862 1.396 . S
C1863 C1864 1.399 . S
C1864 H1850 0.929 . S
C1864 C1863 1.399 . S
C1864 C1865 1.385 . S
C1865 H1851 0.931 . S
C1865 C1864 1.385 . S
C1865 C1866 1.389 . S
C1866 C1865 1.389 . S
C1866 C1867 1.387 . S
C1867 H1852 0.930 . S
C1867 C1862 1.390 . S
C1867 C1866 1.387 . S
H1868 C1880 0.930 . S
H1869 C1882 0.930 . S
H1870 C1883 0.930 . S
H1871 C1887 0.959 . S
H1872 C1887 0.959 . S
H1873 C1887 0.961 . S
H1874 C1888 0.960 . S
H1875 C1888 0.961 . S
H1876 C1888 0.959 . S
H1877 C1891 0.929 . S
H1878 C1892 0.931 . S
H1879 C1894 0.930 . S
C1880 H1868 0.930 . S
C1880 C1881 1.399 . S
C1880 C1885 1.399 . S
C1881 C1880 1.399 . S
C1881 C1882 1.376 . S
C1882 H1869 0.930 . S
C1882 C1881 1.376 . S
C1882 C1883 1.388 . S
C1883 H1870 0.930 . S
C1883 C1882 1.388 . S
C1883 C1884 1.390 . S
C1884 C1883 1.390 . S
C1884 C1885 1.394 . S
C1884 C1890 1.465 . S
C1885 C1880 1.399 . S
C1885 C1884 1.394 . S
C1885 C1886 1.516 . S
C1886 C1885 1.516 . S
C1886 C1887 1.502 . S
C1886 C1888 1.561 . S
C1886 C1889 1.526 . S
C1887 H1871 0.959 . S
C1887 H1872 0.959 . S
C1887 H1873 0.961 . S
C1887 C1886 1.502 . S
C1888 H1874 0.960 . S
C1888 H1875 0.961 . S
C1888 H1876 0.959 . S
C1888 C1886 1.561 . S
C1889 C1886 1.526 . S
C1889 C1890 1.396 . S
C1889 C1894 1.390 . S
C1890 C1884 1.465 . S
C1890 C1889 1.396 . S
C1890 C1891 1.399 . S
C1891 H1877 0.929 . S
C1891 C1890 1.399 . S
C1891 C1892 1.385 . S
C1892 H1878 0.931 . S
C1892 C1891 1.385 . S
C1892 C1893 1.389 . S
C1893 C1892 1.389 . S
C1893 C1894 1.387 . S
C1894 H1879 0.930 . S
C1894 C1889 1.390 . S
C1894 C1893 1.387 . S
H1895 C1907 0.930 . S
H1896 C1909 0.930 . S
H1897 C1910 0.930 . S
H1898 C1914 0.959 . S
H1899 C1914 0.959 . S
H1900 C1914 0.961 . S
H1901 C1915 0.960 . S
H1902 C1915 0.961 . S
H1903 C1915 0.959 . S
H1904 C1918 0.929 . S
H1905 C1919 0.931 . S
H1906 C1921 0.930 . S
C1907 H1895 0.930 . S
C1907 C1908 1.399 . S
C1907 C1912 1.399 . S
C1908 C1907 1.399 . S
C1908 C1909 1.376 . S
C1909 H1896 0.930 . S
C1909 C1908 1.376 . S
C1909 C1910 1.388 . S
C1910 H1897 0.930 . S
C1910 C1909 1.388 . S
C1910 C1911 1.390 . S
C1911 C1910 1.390 . S
C1911 C1912 1.394 . S
C1911 C1917 1.465 . S
C1912 C1907 1.399 . S
C1912 C1911 1.394 . S
C1912 C1913 1.516 . S
C1913 C1912 1.516 . S
C1913 C1914 1.502 . S
C1913 C1915 1.561 . S
C1913 C1916 1.526 . S
C1914 H1898 0.959 . S
C1914 H1899 0.959 . S
C1914 H1900 0.961 . S
C1914 C1913 1.502 . S
C1915 H1901 0.960 . S
C1915 H1902 0.961 . S
C1915 H1903 0.959 . S
C1915 C1913 1.561 . S
C1916 C1913 1.526 . S
C1916 C1917 1.396 . S
C1916 C1921 1.390 . S
C1917 C1911 1.465 . S
C1917 C1916 1.396 . S
C1917 C1918 1.399 . S
C1918 H1904 0.929 . S
C1918 C1917 1.399 . S
C1918 C1919 1.385 . S
C1919 H1905 0.931 . S
C1919 C1918 1.385 . S
C1919 C1920 1.389 . S
C1920 C1919 1.389 . S
C1920 C1921 1.387 . S
C1921 H1906 0.930 . S
C1921 C1916 1.390 . S
C1921 C1920 1.387 . S
H1922 C1934 0.930 . S
H1923 C1936 0.930 . S
H1924 C1937 0.930 . S
H1925 C1941 0.959 . S
H1926 C1941 0.959 . S
H1927 C1941 0.961 . S
H1928 C1942 0.960 . S
H1929 C1942 0.961 . S
H1930 C1942 0.959 . S
H1931 C1945 0.929 . S
H1932 C1946 0.931 . S
H1933 C1948 0.930 . S
C1934 H1922 0.930 . S
C1934 C1935 1.399 . S
C1934 C1939 1.399 . S
C1935 C1934 1.399 . S
C1935 C1936 1.376 . S
C1936 H1923 0.930 . S
C1936 C1935 1.376 . S
C1936 C1937 1.388 . S
C1937 H1924 0.930 . S
C1937 C1936 1.388 . S
C1937 C1938 1.390 . S
C1938 C1937 1.390 . S
C1938 C1939 1.394 . S
C1938 C1944 1.465 . S
C1939 C1934 1.399 . S
C1939 C1938 1.394 . S
C1939 C1940 1.516 . S
C1940 C1939 1.516 . S
C1940 C1941 1.502 . S
C1940 C1942 1.561 . S
C1940 C1943 1.526 . S
C1941 H1925 0.959 . S
C1941 H1926 0.959 . S
C1941 H1927 0.961 . S
C1941 C1940 1.502 . S
C1942 H1928 0.960 . S
C1942 H1929 0.961 . S
C1942 H1930 0.959 . S
C1942 C1940 1.561 . S
C1943 C1940 1.526 . S
C1943 C1944 1.396 . S
C1943 C1948 1.390 . S
C1944 C1938 1.465 . S
C1944 C1943 1.396 . S
C1944 C1945 1.399 . S
C1945 H1931 0.929 . S
C1945 C1944 1.399 . S
C1945 C1946 1.385 . S
C1946 H1932 0.931 . S
C1946 C1945 1.385 . S
C1946 C1947 1.389 . S
C1947 C1946 1.389 . S
C1947 C1948 1.387 . S
C1948 H1933 0.930 . S
C1948 C1943 1.390 . S
C1948 C1947 1.387 . S
H1949 C1961 0.930 . S
H1950 C1963 0.930 . S
H1951 C1964 0.930 . S
H1952 C1968 0.959 . S
H1953 C1968 0.959 . S
H1954 C1968 0.961 . S
H1955 C1969 0.960 . S
H1956 C1969 0.961 . S
H1957 C1969 0.959 . S
H1958 C1972 0.929 . S
H1959 C1973 0.931 . S
H1960 C1975 0.930 . S
C1961 H1949 0.930 . S
C1961 C1962 1.399 . S
C1961 C1966 1.399 . S
C1962 C1961 1.399 . S
C1962 C1963 1.376 . S
C1963 H1950 0.930 . S
C1963 C1962 1.376 . S
C1963 C1964 1.388 . S
C1964 H1951 0.930 . S
C1964 C1963 1.388 . S
C1964 C1965 1.390 . S
C1965 C1964 1.390 . S
C1965 C1966 1.394 . S
C1965 C1971 1.465 . S
C1966 C1961 1.399 . S
C1966 C1965 1.394 . S
C1966 C1967 1.516 . S
C1967 C1966 1.516 . S
C1967 C1968 1.502 . S
C1967 C1969 1.561 . S
C1967 C1970 1.526 . S
C1968 H1952 0.959 . S
C1968 H1953 0.959 . S
C1968 H1954 0.961 . S
C1968 C1967 1.502 . S
C1969 H1955 0.960 . S
C1969 H1956 0.961 . S
C1969 H1957 0.959 . S
C1969 C1967 1.561 . S
C1970 C1967 1.526 . S
C1970 C1971 1.396 . S
C1970 C1975 1.390 . S
C1971 C1965 1.465 . S
C1971 C1970 1.396 . S
C1971 C1972 1.399 . S
C1972 H1958 0.929 . S
C1972 C1971 1.399 . S
C1972 C1973 1.385 . S
C1973 H1959 0.931 . S
C1973 C1972 1.385 . S
C1973 C1974 1.389 . S
C1974 C1973 1.389 . S
C1974 C1975 1.387 . S
C1975 H1960 0.930 . S
C1975 C1970 1.390 . S
C1975 C1974 1.387 . S
H1976 C1988 0.930 . S
H1977 C1990 0.930 . S
H1978 C1991 0.930 . S
H1979 C1995 0.959 . S
H1980 C1995 0.959 . S
H1981 C1995 0.961 . S
H1982 C1996 0.960 . S
H1983 C1996 0.961 . S
H1984 C1996 0.959 . S
H1985 C1999 0.929 . S
H1986 C2000 0.931 . S
H1987 C2002 0.930 . S
C1988 H1976 0.930 . S
C1988 C1989 1.399 . S
C1988 C1993 1.399 . S
C1989 C1988 1.399 . S
C1989 C1990 1.376 . S
C1990 H1977 0.930 . S
C1990 C1989 1.376 . S
C1990 C1991 1.388 . S
C1991 H1978 0.930 . S
C1991 C1990 1.388 . S
C1991 C1992 1.390 . S
C1992 C1991 1.390 . S
C1992 C1993 1.394 . S
C1992 C1998 1.465 . S
C1993 C1988 1.399 . S
C1993 C1992 1.394 . S
C1993 C1994 1.516 . S
C1994 C1993 1.516 . S
C1994 C1995 1.502 . S
C1994 C1996 1.561 . S
C1994 C1997 1.526 . S
C1995 H1979 0.959 . S
C1995 H1980 0.959 . S
C1995 H1981 0.961 . S
C1995 C1994 1.502 . S
C1996 H1982 0.960 . S
C1996 H1983 0.961 . S
C1996 H1984 0.959 . S
C1996 C1994 1.561 . S
C1997 C1994 1.526 . S
C1997 C1998 1.396 . S
C1997 C2002 1.390 . S
C1998 C1992 1.465 . S
C1998 C1997 1.396 . S
C1998 C1999 1.399 . S
C1999 H1985 0.929 . S
C1999 C1998 1.399 . S
C1999 C2000 1.385 . S
C2000 H1986 0.931 . S
C2000 C1999 1.385 . S
C2000 C2001 1.389 . S
C2001 C2000 1.389 . S
C2001 C2002 1.387 . S
C2002 H1987 0.930 . S
C2002 C1997 1.390 . S
C2002 C2001 1.387 . S
H2003 C2015 0.930 . S
H2004 C2017 0.930 . S
H2005 C2018 0.930 . S
H2006 C2022 0.959 . S
H2007 C2022 0.959 . S
H2008 C2022 0.961 . S
H2009 C2023 0.960 . S
H2010 C2023 0.961 . S
H2011 C2023 0.959 . S
H2012 C2026 0.929 . S
H2013 C2027 0.931 . S
H2014 C2029 0.930 . S
C2015 H2003 0.930 . S
C2015 C2016 1.399 . S
C2015 C2020 1.399 . S
C2016 C2015 1.399 . S
C2016 C2017 1.376 . S
C2017 H2004 0.930 . S
C2017 C2016 1.376 . S
C2017 C2018 1.388 . S
C2018 H2005 0.930 . S
C2018 C2017 1.388 . S
C2018 C2019 1.390 . S
C2019 C2018 1.390 . S
C2019 C2020 1.394 . S
C2019 C2025 1.465 . S
C2020 C2015 1.399 . S
C2020 C2019 1.394 . S
C2020 C2021 1.516 . S
C2021 C2020 1.516 . S
C2021 C2022 1.502 . S
C2021 C2023 1.561 . S
C2021 C2024 1.526 . S
C2022 H2006 0.959 . S
C2022 H2007 0.959 . S
C2022 H2008 0.961 . S
C2022 C2021 1.502 . S
C2023 H2009 0.960 . S
C2023 H2010 0.961 . S
C2023 H2011 0.959 . S
C2023 C2021 1.561 . S
C2024 C2021 1.526 . S
C2024 C2025 1.396 . S
C2024 C2029 1.390 . S
C2025 C2019 1.465 . S
C2025 C2024 1.396 . S
C2025 C2026 1.399 . S
C2026 H2012 0.929 . S
C2026 C2025 1.399 . S
C2026 C2027 1.385 . S
C2027 H2013 0.931 . S
C2027 C2026 1.385 . S
C2027 C2028 1.389 . S
C2028 C2027 1.389 . S
C2028 C2029 1.387 . S
C2029 H2014 0.930 . S
C2029 C2024 1.390 . S
C2029 C2028 1.387 . S
H2030 C2042 0.930 1_655 S
H2031 C2044 0.930 . S
H2032 C2045 0.930 . S
H2033 C2049 0.959 . S
H2034 C2049 0.959 . S
H2035 C2049 0.961 . S
H2036 C2050 0.942 1_655 S
H2037 C2050 0.970 . S
H2038 C2050 0.959 . S
H2039 C2053 0.929 . S
H2040 C2054 0.931 . S
H2041 C2056 0.930 . S
C2042 H2030 0.930 1_455 S
C2042 C2043 1.399 . S
C2042 C2047 1.399 . S
C2043 C2042 1.399 . S
C2043 C2044 1.376 . S
C2044 H2031 0.930 . S
C2044 C2043 1.376 . S
C2044 C2045 1.388 . S
C2045 H2032 0.930 . S
C2045 C2044 1.388 . S
C2045 C2046 1.390 . S
C2046 C2045 1.390 . S
C2046 C2047 1.394 . S
C2046 C2052 1.465 . S
C2047 C2042 1.399 . S
C2047 C2046 1.394 . S
C2047 C2048 1.516 . S
C2048 C2047 1.516 . S
C2048 C2049 1.502 1_455 S
C2048 C2050 1.561 . S
C2048 C2051 1.526 . S
C2049 H2033 0.959 . S
C2049 H2034 0.959 . S
C2049 H2035 0.961 . S
C2049 C2048 1.502 1_655 S
C2050 H2036 0.942 1_455 S
C2050 H2037 0.970 . S
C2050 H2038 0.959 . S
C2050 C2048 1.561 . S
C2051 C2048 1.526 . S
C2051 C2052 1.396 . S
C2051 C2056 1.390 . S
C2052 C2046 1.465 . S
C2052 C2051 1.396 . S
C2052 C2053 1.399 . S
C2053 H2039 0.929 . S
C2053 C2052 1.399 . S
C2053 C2054 1.385 . S
C2054 H2040 0.931 . S
C2054 C2053 1.385 . S
C2054 C2055 1.389 . S
C2055 C2054 1.389 . S
C2055 C2056 1.387 . S
C2056 H2041 0.930 . S
C2056 C2051 1.390 . S
C2056 C2055 1.387 . S
H2057 C2069 0.930 . S
H2058 C2071 0.930 . S
H2059 C2072 0.930 . S
H2060 C2076 0.959 . S
H2061 C2076 0.959 . S
H2062 C2076 0.961 . S
H2063 C2077 0.960 . S
H2064 C2077 0.961 . S
H2065 C2077 0.959 . S
H2066 C2080 0.929 . S
H2067 C2081 0.931 . S
H2068 C2083 0.930 . S
C2069 H2057 0.930 . S
C2069 C2070 1.399 . S
C2069 C2074 1.399 . S
C2070 C2069 1.399 . S
C2070 C2071 1.376 . S
C2071 H2058 0.930 . S
C2071 C2070 1.376 . S
C2071 C2072 1.388 . S
C2072 H2059 0.930 . S
C2072 C2071 1.388 . S
C2072 C2073 1.390 . S
C2073 C2072 1.390 . S
C2073 C2074 1.394 . S
C2073 C2079 1.465 . S
C2074 C2069 1.399 . S
C2074 C2073 1.394 . S
C2074 C2075 1.516 . S
C2075 C2074 1.516 . S
C2075 C2076 1.502 . S
C2075 C2077 1.561 . S
C2075 C2078 1.526 . S
C2076 H2060 0.959 . S
C2076 H2061 0.959 . S
C2076 H2062 0.961 . S
C2076 C2075 1.502 . S
C2077 H2063 0.960 . S
C2077 H2064 0.961 . S
C2077 H2065 0.959 . S
C2077 C2075 1.561 . S
C2078 C2075 1.526 . S
C2078 C2079 1.396 . S
C2078 C2083 1.390 . S
C2079 C2073 1.465 . S
C2079 C2078 1.396 . S
C2079 C2080 1.399 . S
C2080 H2066 0.929 . S
C2080 C2079 1.399 . S
C2080 C2081 1.385 . S
C2081 H2067 0.931 . S
C2081 C2080 1.385 . S
C2081 C2082 1.389 . S
C2082 C2081 1.389 . S
C2082 C2083 1.387 . S
C2083 H2068 0.930 . S
C2083 C2078 1.390 . S
C2083 C2082 1.387 . S
H2084 C2096 0.930 . S
H2085 C2098 0.930 . S
H2086 C2099 0.930 . S
H2087 C2103 0.959 . S
H2088 C2103 0.959 . S
H2089 C2103 0.961 . S
H2090 C2104 0.960 . S
H2091 C2104 0.961 . S
H2092 C2104 0.959 . S
H2093 C2107 0.929 . S
H2094 C2108 0.931 1_554 S
H2095 C2110 0.930 . S
C2096 H2084 0.930 . S
C2096 C2097 1.399 . S
C2096 C2101 1.399 . S
C2097 C2096 1.399 . S
C2097 C2098 1.376 . S
C2098 H2085 0.930 . S
C2098 C2097 1.376 . S
C2098 C2099 1.388 . S
C2099 H2086 0.930 . S
C2099 C2098 1.388 . S
C2099 C2100 1.390 . S
C2100 C2099 1.390 . S
C2100 C2101 1.394 . S
C2100 C2106 1.465 . S
C2101 C2096 1.399 . S
C2101 C2100 1.394 . S
C2101 C2102 1.516 . S
C2102 C2101 1.516 . S
C2102 C2103 1.502 . S
C2102 C2104 1.561 . S
C2102 C2105 1.526 . S
C2103 H2087 0.959 . S
C2103 H2088 0.959 . S
C2103 H2089 0.961 . S
C2103 C2102 1.502 . S
C2104 H2090 0.960 . S
C2104 H2091 0.961 . S
C2104 H2092 0.959 . S
C2104 C2102 1.561 . S
C2105 C2102 1.526 . S
C2105 C2106 1.396 . S
C2105 C2110 1.390 . S
C2106 C2100 1.465 . S
C2106 C2105 1.396 . S
C2106 C2107 1.399 . S
C2107 H2093 0.929 . S
C2107 C2106 1.399 . S
C2107 C2108 1.385 . S
C2108 H2094 0.931 1_556 S
C2108 C2107 1.385 . S
C2108 C2109 1.389 . S
C2109 C2108 1.389 . S
C2109 C2110 1.387 . S
C2110 H2095 0.930 . S
C2110 C2105 1.390 . S
C2110 C2109 1.387 . S
H2111 C2123 0.930 . S
H2112 C2125 0.930 . S
H2113 C2126 0.930 . S
H2114 C2130 0.959 . S
H2115 C2130 0.959 . S
H2116 C2130 0.961 . S
H2117 C2131 0.960 . S
H2118 C2131 0.961 . S
H2119 C2131 0.959 . S
H2120 C2134 0.929 . S
H2121 C2135 0.931 . S
H2122 C2137 0.930 . S
C2123 H2111 0.930 . S
C2123 C2124 1.399 . S
C2123 C2128 1.399 . S
C2124 C2123 1.399 . S
C2124 C2125 1.376 . S
C2125 H2112 0.930 . S
C2125 C2124 1.376 . S
C2125 C2126 1.388 . S
C2126 H2113 0.930 . S
C2126 C2125 1.388 . S
C2126 C2127 1.390 . S
C2127 C2126 1.390 . S
C2127 C2128 1.394 . S
C2127 C2133 1.465 . S
C2128 C2123 1.399 . S
C2128 C2127 1.394 . S
C2128 C2129 1.516 . S
C2129 C2128 1.516 . S
C2129 C2130 1.502 . S
C2129 C2131 1.561 . S
C2129 C2132 1.526 . S
C2130 H2114 0.959 . S
C2130 H2115 0.959 . S
C2130 H2116 0.961 . S
C2130 C2129 1.502 . S
C2131 H2117 0.960 . S
C2131 H2118 0.961 . S
C2131 H2119 0.959 . S
C2131 C2129 1.561 . S
C2132 C2129 1.526 . S
C2132 C2133 1.396 . S
C2132 C2137 1.390 . S
C2133 C2127 1.465 . S
C2133 C2132 1.396 . S
C2133 C2134 1.399 . S
C2134 H2120 0.929 . S
C2134 C2133 1.399 . S
C2134 C2135 1.385 . S
C2135 H2121 0.931 . S
C2135 C2134 1.385 . S
C2135 C2136 1.389 . S
C2136 C2135 1.389 . S
C2136 C2137 1.387 . S
C2137 H2122 0.930 . S
C2137 C2132 1.390 . S
C2137 C2136 1.387 . S
H2138 C2150 0.908 1_655 S
H2139 C2152 0.930 . S
H2140 C2153 0.930 . S
H2141 C2157 0.959 . S
H2142 C2157 0.959 . S
H2143 C2157 0.961 . S
H2144 C2158 0.960 . S
H2145 C2158 0.961 . S
H2146 C2158 0.959 . S
H2147 C2161 0.929 . S
H2148 C2162 0.931 . S
H2149 C2164 0.930 . S
C2150 H2138 0.908 1_455 S
C2150 C2151 1.399 . S
C2150 C2155 1.399 . S
C2151 C2150 1.399 . S
C2151 C2152 1.376 . S
C2152 H2139 0.930 . S
C2152 C2151 1.376 . S
C2152 C2153 1.388 . S
C2153 H2140 0.930 . S
C2153 C2152 1.388 . S
C2153 C2154 1.390 . S
C2154 C2153 1.390 . S
C2154 C2155 1.394 . S
C2154 C2160 1.465 . S
C2155 C2150 1.399 . S
C2155 C2154 1.394 . S
C2155 C2156 1.516 . S
C2156 C2155 1.516 . S
C2156 C2157 1.502 . S
C2156 C2158 1.561 1_455 S
C2156 C2159 1.526 . S
C2157 H2141 0.959 . S
C2157 H2142 0.959 . S
C2157 H2143 0.961 . S
C2157 C2156 1.502 . S
C2158 H2144 0.960 . S
C2158 H2145 0.961 . S
C2158 H2146 0.959 . S
C2158 C2156 1.561 1_655 S
C2159 C2156 1.526 . S
C2159 C2160 1.396 . S
C2159 C2164 1.390 . S
C2160 C2154 1.465 . S
C2160 C2159 1.396 . S
C2160 C2161 1.399 . S
C2161 H2147 0.929 . S
C2161 C2160 1.399 . S
C2161 C2162 1.385 . S
C2162 H2148 0.931 . S
C2162 C2161 1.385 . S
C2162 C2163 1.389 . S
C2163 C2162 1.389 . S
C2163 C2164 1.387 . S
C2164 H2149 0.930 . S
C2164 C2159 1.390 . S
C2164 C2163 1.387 . S
H2165 C2177 0.930 . S
H2166 C2179 0.930 . S
H2167 C2180 0.930 . S
H2168 C2184 0.959 . S
H2169 C2184 0.959 . S
H2170 C2184 0.961 . S
H2171 C2185 0.960 . S
H2172 C2185 0.961 . S
H2173 C2185 0.959 . S
H2174 C2188 0.929 . S
H2175 C2189 0.931 . S
H2176 C2191 0.930 . S
C2177 H2165 0.930 . S
C2177 C2178 1.399 . S
C2177 C2182 1.399 . S
C2178 C2177 1.399 . S
C2178 C2179 1.376 . S
C2179 H2166 0.930 . S
C2179 C2178 1.376 . S
C2179 C2180 1.388 . S
C2180 H2167 0.930 . S
C2180 C2179 1.388 . S
C2180 C2181 1.390 . S
C2181 C2180 1.390 . S
C2181 C2182 1.394 . S
C2181 C2187 1.465 . S
C2182 C2177 1.399 . S
C2182 C2181 1.394 . S
C2182 C2183 1.516 . S
C2183 C2182 1.516 . S
C2183 C2184 1.502 . S
C2183 C2185 1.561 . S
C2183 C2186 1.526 . S
C2184 H2168 0.959 . S
C2184 H2169 0.959 . S
C2184 H2170 0.961 . S
C2184 C2183 1.502 . S
C2185 H2171 0.960 . S
C2185 H2172 0.961 . S
C2185 H2173 0.959 . S
C2185 C2183 1.561 . S
C2186 C2183 1.526 . S
C2186 C2187 1.396 . S
C2186 C2191 1.390 . S
C2187 C2181 1.465 . S
C2187 C2186 1.396 . S
C2187 C2188 1.399 . S
C2188 H2174 0.929 . S
C2188 C2187 1.399 . S
C2188 C2189 1.385 . S
C2189 H2175 0.931 . S
C2189 C2188 1.385 . S
C2189 C2190 1.389 . S
C2190 C2189 1.389 . S
C2190 C2191 1.387 . S
C2191 H2176 0.930 . S
C2191 C2186 1.390 . S
C2191 C2190 1.387 . S
H2192 C2204 0.930 . S
H2193 C2206 0.930 . S
H2194 C2207 0.930 . S
H2195 C2211 0.959 . S
H2196 C2211 0.959 . S
H2197 C2211 0.961 . S
H2198 C2212 0.960 . S
H2199 C2212 0.961 . S
H2200 C2212 0.959 . S
H2201 C2215 0.929 . S
H2202 C2216 0.931 . S
H2203 C2218 0.930 . S
C2204 H2192 0.930 . S
C2204 C2205 1.399 . S
C2204 C2209 1.399 . S
C2205 C2204 1.399 . S
C2205 C2206 1.376 . S
C2206 H2193 0.930 . S
C2206 C2205 1.376 . S
C2206 C2207 1.388 . S
C2207 H2194 0.930 . S
C2207 C2206 1.388 . S
C2207 C2208 1.390 . S
C2208 C2207 1.390 . S
C2208 C2209 1.394 . S
C2208 C2214 1.465 . S
C2209 C2204 1.399 . S
C2209 C2208 1.394 . S
C2209 C2210 1.516 . S
C2210 C2209 1.516 . S
C2210 C2211 1.502 . S
C2210 C2212 1.561 . S
C2210 C2213 1.526 . S
C2211 H2195 0.959 . S
C2211 H2196 0.959 . S
C2211 H2197 0.961 . S
C2211 C2210 1.502 . S
C2212 H2198 0.960 . S
C2212 H2199 0.961 . S
C2212 H2200 0.959 . S
C2212 C2210 1.561 . S
C2213 C2210 1.526 . S
C2213 C2214 1.396 . S
C2213 C2218 1.390 . S
C2214 C2208 1.465 . S
C2214 C2213 1.396 . S
C2214 C2215 1.399 . S
C2215 H2201 0.929 . S
C2215 C2214 1.399 . S
C2215 C2216 1.385 . S
C2216 H2202 0.931 . S
C2216 C2215 1.385 . S
C2216 C2217 1.389 . S
C2217 C2216 1.389 . S
C2217 C2218 1.387 . S
C2218 H2203 0.930 . S
C2218 C2213 1.390 . S
C2218 C2217 1.387 . S
H2219 C2231 0.930 . S
H2220 C2233 0.930 . S
H2221 C2234 0.930 . S
H2222 C2238 0.959 . S
H2223 C2238 0.959 . S
H2224 C2238 0.961 . S
H2225 C2239 0.960 . S
H2226 C2239 0.961 . S
H2227 C2239 0.959 . S
H2228 C2242 0.929 . S
H2229 C2243 0.931 . S
H2230 C2245 0.930 . S
C2231 H2219 0.930 . S
C2231 C2232 1.399 . S
C2231 C2236 1.399 . S
C2232 C2231 1.399 . S
C2232 C2233 1.376 . S
C2233 H2220 0.930 . S
C2233 C2232 1.376 . S
C2233 C2234 1.388 . S
C2234 H2221 0.930 . S
C2234 C2233 1.388 . S
C2234 C2235 1.390 . S
C2235 C2234 1.390 . S
C2235 C2236 1.394 . S
C2235 C2241 1.465 . S
C2236 C2231 1.399 . S
C2236 C2235 1.394 . S
C2236 C2237 1.516 . S
C2237 C2236 1.516 . S
C2237 C2238 1.502 . S
C2237 C2239 1.561 . S
C2237 C2240 1.526 . S
C2238 H2222 0.959 . S
C2238 H2223 0.959 . S
C2238 H2224 0.961 . S
C2238 C2237 1.502 . S
C2239 H2225 0.960 . S
C2239 H2226 0.961 . S
C2239 H2227 0.959 . S
C2239 C2237 1.561 . S
C2240 C2237 1.526 . S
C2240 C2241 1.396 . S
C2240 C2245 1.390 . S
C2241 C2235 1.465 . S
C2241 C2240 1.396 . S
C2241 C2242 1.399 . S
C2242 H2228 0.929 . S
C2242 C2241 1.399 . S
C2242 C2243 1.385 . S
C2243 H2229 0.931 . S
C2243 C2242 1.385 . S
C2243 C2244 1.389 . S
C2244 C2243 1.389 . S
C2244 C2245 1.387 . S
C2245 H2230 0.930 . S
C2245 C2240 1.390 . S
C2245 C2244 1.387 . S
H2246 C2258 0.930 . S
H2247 C2260 0.930 . S
H2248 C2261 0.930 . S
H2249 C2265 0.959 . S
H2250 C2265 0.959 . S
H2251 C2265 0.961 . S
H2252 C2266 0.960 . S
H2253 C2266 0.961 . S
H2254 C2266 0.959 . S
H2255 C2269 0.929 . S
H2256 C2270 0.931 . S
H2257 C2272 0.930 . S
C2258 H2246 0.930 . S
C2258 C2259 1.399 . S
C2258 C2263 1.399 . S
C2259 C2258 1.399 . S
C2259 C2260 1.376 . S
C2260 H2247 0.930 . S
C2260 C2259 1.376 . S
C2260 C2261 1.388 . S
C2261 H2248 0.930 . S
C2261 C2260 1.388 . S
C2261 C2262 1.390 . S
C2262 C2261 1.390 . S
C2262 C2263 1.394 . S
C2262 C2268 1.465 . S
C2263 C2258 1.399 . S
C2263 C2262 1.394 . S
C2263 C2264 1.516 . S
C2264 C2263 1.516 . S
C2264 C2265 1.502 . S
C2264 C2266 1.561 . S
C2264 C2267 1.526 . S
C2265 H2249 0.959 . S
C2265 H2250 0.959 . S
C2265 H2251 0.961 . S
C2265 C2264 1.502 . S
C2266 H2252 0.960 . S
C2266 H2253 0.961 . S
C2266 H2254 0.959 . S
C2266 C2264 1.561 . S
C2267 C2264 1.526 . S
C2267 C2268 1.396 . S
C2267 C2272 1.390 . S
C2268 C2262 1.465 . S
C2268 C2267 1.396 . S
C2268 C2269 1.399 . S
C2269 H2255 0.929 . S
C2269 C2268 1.399 . S
C2269 C2270 1.385 . S
C2270 H2256 0.931 . S
C2270 C2269 1.385 . S
C2270 C2271 1.389 . S
C2271 C2270 1.389 . S
C2271 C2272 1.387 . S
C2272 H2257 0.930 . S
C2272 C2267 1.390 . S
C2272 C2271 1.387 . S
H2273 C2285 0.930 . S
H2274 C2287 0.930 . S
H2275 C2288 0.930 . S
H2276 C2292 0.959 . S
H2277 C2292 0.959 . S
H2278 C2292 0.961 . S
H2279 C2293 0.960 . S
H2280 C2293 0.961 . S
H2281 C2293 0.959 . S
H2282 C2296 0.929 . S
H2283 C2297 0.931 . S
H2284 C2299 0.930 . S
C2285 H2273 0.930 . S
C2285 C2286 1.399 . S
C2285 C2290 1.399 . S
C2286 C2285 1.399 . S
C2286 C2287 1.376 . S
C2287 H2274 0.930 . S
C2287 C2286 1.376 . S
C2287 C2288 1.388 . S
C2288 H2275 0.930 . S
C2288 C2287 1.388 . S
C2288 C2289 1.390 . S
C2289 C2288 1.390 . S
C2289 C2290 1.394 . S
C2289 C2295 1.465 . S
C2290 C2285 1.399 . S
C2290 C2289 1.394 . S
C2290 C2291 1.516 . S
C2291 C2290 1.516 . S
C2291 C2292 1.502 . S
C2291 C2293 1.561 . S
C2291 C2294 1.526 . S
C2292 H2276 0.959 . S
C2292 H2277 0.959 . S
C2292 H2278 0.961 . S
C2292 C2291 1.502 . S
C2293 H2279 0.960 . S
C2293 H2280 0.961 . S
C2293 H2281 0.959 . S
C2293 C2291 1.561 . S
C2294 C2291 1.526 . S
C2294 C2295 1.396 . S
C2294 C2299 1.390 . S
C2295 C2289 1.465 . S
C2295 C2294 1.396 . S
C2295 C2296 1.399 . S
C2296 H2282 0.929 . S
C2296 C2295 1.399 . S
C2296 C2297 1.385 . S
C2297 H2283 0.931 . S
C2297 C2296 1.385 . S
C2297 C2298 1.389 . S
C2298 C2297 1.389 . S
C2298 C2299 1.387 . S
C2299 H2284 0.930 . S
C2299 C2294 1.390 . S
C2299 C2298 1.387 . S
H2300 C2312 0.930 . S
H2301 C2314 0.930 . S
H2302 C2315 0.930 . S
H2303 C2319 0.959 . S
H2304 C2319 0.959 . S
H2305 C2319 0.961 . S
H2306 C2320 0.960 . S
H2307 C2320 0.961 . S
H2308 C2320 0.959 . S
H2309 C2323 0.929 . S
H2310 C2324 0.931 . S
H2311 C2326 0.930 . S
C2312 H2300 0.930 . S
C2312 C2313 1.399 . S
C2312 C2317 1.399 . S
C2313 C2312 1.399 . S
C2313 C2314 1.376 . S
C2314 H2301 0.930 . S
C2314 C2313 1.376 . S
C2314 C2315 1.388 . S
C2315 H2302 0.930 . S
C2315 C2314 1.388 . S
C2315 C2316 1.390 . S
C2316 C2315 1.390 . S
C2316 C2317 1.394 . S
C2316 C2322 1.465 . S
C2317 C2312 1.399 . S
C2317 C2316 1.394 . S
C2317 C2318 1.516 . S
C2318 C2317 1.516 . S
C2318 C2319 1.502 . S
C2318 C2320 1.561 . S
C2318 C2321 1.526 . S
C2319 H2303 0.959 . S
C2319 H2304 0.959 . S
C2319 H2305 0.961 . S
C2319 C2318 1.502 . S
C2320 H2306 0.960 . S
C2320 H2307 0.961 . S
C2320 H2308 0.959 . S
C2320 C2318 1.561 . S
C2321 C2318 1.526 . S
C2321 C2322 1.396 . S
C2321 C2326 1.390 . S
C2322 C2316 1.465 . S
C2322 C2321 1.396 . S
C2322 C2323 1.399 . S
C2323 H2309 0.929 . S
C2323 C2322 1.399 . S
C2323 C2324 1.385 . S
C2324 H2310 0.931 . S
C2324 C2323 1.385 . S
C2324 C2325 1.389 . S
C2325 C2324 1.389 . S
C2325 C2326 1.387 . S
C2326 H2311 0.930 . S
C2326 C2321 1.390 . S
C2326 C2325 1.387 . S
H2327 C2339 0.930 . S
H2328 C2341 0.930 . S
H2329 C2342 0.930 . S
H2330 C2346 0.959 . S
H2331 C2346 0.959 . S
H2332 C2346 0.961 . S
H2333 C2347 0.960 . S
H2334 C2347 0.961 . S
H2335 C2347 0.959 . S
H2336 C2350 0.929 . S
H2337 C2351 0.931 . S
H2338 C2353 0.930 . S
C2339 H2327 0.930 . S
C2339 C2340 1.399 . S
C2339 C2344 1.399 . S
C2340 C2339 1.399 . S
C2340 C2341 1.376 . S
C2341 H2328 0.930 . S
C2341 C2340 1.376 . S
C2341 C2342 1.388 . S
C2342 H2329 0.930 . S
C2342 C2341 1.388 . S
C2342 C2343 1.390 . S
C2343 C2342 1.390 . S
C2343 C2344 1.394 . S
C2343 C2349 1.465 . S
C2344 C2339 1.399 . S
C2344 C2343 1.394 . S
C2344 C2345 1.516 . S
C2345 C2344 1.516 . S
C2345 C2346 1.502 . S
C2345 C2347 1.561 . S
C2345 C2348 1.526 . S
C2346 H2330 0.959 . S
C2346 H2331 0.959 . S
C2346 H2332 0.961 . S
C2346 C2345 1.502 . S
C2347 H2333 0.960 . S
C2347 H2334 0.961 . S
C2347 H2335 0.959 . S
C2347 C2345 1.561 . S
C2348 C2345 1.526 . S
C2348 C2349 1.396 . S
C2348 C2353 1.390 . S
C2349 C2343 1.465 . S
C2349 C2348 1.396 . S
C2349 C2350 1.399 . S
C2350 H2336 0.929 . S
C2350 C2349 1.399 . S
C2350 C2351 1.385 . S
C2351 H2337 0.931 . S
C2351 C2350 1.385 . S
C2351 C2352 1.389 . S
C2352 C2351 1.389 . S
C2352 C2353 1.387 . S
C2353 H2338 0.930 . S
C2353 C2348 1.390 . S
C2353 C2352 1.387 . S
H2354 C2366 0.930 . S
H2355 C2368 0.930 . S
H2356 C2369 0.930 . S
H2357 C2373 0.959 . S
H2358 C2373 0.959 . S
H2359 C2373 0.961 . S
H2360 C2374 0.960 . S
H2361 C2374 0.961 . S
H2362 C2374 0.959 . S
H2363 C2377 0.929 . S
H2364 C2378 0.931 . S
H2365 C2380 0.930 . S
C2366 H2354 0.930 . S
C2366 C2367 1.399 . S
C2366 C2371 1.399 . S
C2367 C2366 1.399 . S
C2367 C2368 1.376 . S
C2368 H2355 0.930 . S
C2368 C2367 1.376 . S
C2368 C2369 1.388 . S
C2369 H2356 0.930 . S
C2369 C2368 1.388 . S
C2369 C2370 1.390 . S
C2370 C2369 1.390 . S
C2370 C2371 1.394 . S
C2370 C2376 1.465 . S
C2371 C2366 1.399 . S
C2371 C2370 1.394 . S
C2371 C2372 1.516 . S
C2372 C2371 1.516 . S
C2372 C2373 1.502 . S
C2372 C2374 1.561 . S
C2372 C2375 1.526 . S
C2373 H2357 0.959 . S
C2373 H2358 0.959 . S
C2373 H2359 0.961 . S
C2373 C2372 1.502 . S
C2374 H2360 0.960 . S
C2374 H2361 0.961 . S
C2374 H2362 0.959 . S
C2374 C2372 1.561 . S
C2375 C2372 1.526 . S
C2375 C2376 1.396 . S
C2375 C2380 1.390 . S
C2376 C2370 1.465 . S
C2376 C2375 1.396 . S
C2376 C2377 1.399 . S
C2377 H2363 0.929 . S
C2377 C2376 1.399 . S
C2377 C2378 1.385 . S
C2378 H2364 0.931 . S
C2378 C2377 1.385 . S
C2378 C2379 1.389 . S
C2379 C2378 1.389 . S
C2379 C2380 1.387 . S
C2380 H2365 0.930 . S
C2380 C2375 1.390 . S
C2380 C2379 1.387 . S
H2381 C2393 0.930 . S
H2382 C2395 0.930 . S
H2383 C2396 0.930 . S
H2384 C2400 0.959 . S
H2385 C2400 0.959 . S
H2386 C2400 0.961 . S
H2387 C2401 0.960 . S
H2388 C2401 0.961 . S
H2389 C2401 0.959 . S
H2390 C2404 0.929 . S
H2391 C2405 0.931 . S
H2392 C2407 0.930 . S
C2393 H2381 0.930 . S
C2393 C2394 1.399 . S
C2393 C2398 1.399 . S
C2394 C2393 1.399 . S
C2394 C2395 1.376 . S
C2395 H2382 0.930 . S
C2395 C2394 1.376 . S
C2395 C2396 1.388 . S
C2396 H2383 0.930 . S
C2396 C2395 1.388 . S
C2396 C2397 1.390 . S
C2397 C2396 1.390 . S
C2397 C2398 1.394 . S
C2397 C2403 1.465 . S
C2398 C2393 1.399 . S
C2398 C2397 1.394 . S
C2398 C2399 1.516 . S
C2399 C2398 1.516 . S
C2399 C2400 1.502 . S
C2399 C2401 1.561 . S
C2399 C2402 1.526 . S
C2400 H2384 0.959 . S
C2400 H2385 0.959 . S
C2400 H2386 0.961 . S
C2400 C2399 1.502 . S
C2401 H2387 0.960 . S
C2401 H2388 0.961 . S
C2401 H2389 0.959 . S
C2401 C2399 1.561 . S
C2402 C2399 1.526 . S
C2402 C2403 1.396 . S
C2402 C2407 1.390 . S
C2403 C2397 1.465 . S
C2403 C2402 1.396 . S
C2403 C2404 1.399 . S
C2404 H2390 0.929 . S
C2404 C2403 1.399 . S
C2404 C2405 1.385 . S
C2405 H2391 0.931 . S
C2405 C2404 1.385 . S
C2405 C2406 1.389 . S
C2406 C2405 1.389 . S
C2406 C2407 1.387 . S
C2407 H2392 0.930 . S
C2407 C2402 1.390 . S
C2407 C2406 1.387 . S
H2408 C2420 0.930 . S
H2409 C2422 0.930 . S
H2410 C2423 0.930 . S
H2411 C2427 0.959 . S
H2412 C2427 0.959 . S
H2413 C2427 0.961 . S
H2414 C2428 0.960 . S
H2415 C2428 0.961 . S
H2416 C2428 0.959 . S
H2417 C2431 0.929 . S
H2418 C2432 0.931 . S
H2419 C2434 0.930 . S
C2420 H2408 0.930 . S
C2420 C2421 1.399 . S
C2420 C2425 1.399 . S
C2421 C2420 1.399 . S
C2421 C2422 1.376 . S
C2422 H2409 0.930 . S
C2422 C2421 1.376 . S
C2422 C2423 1.388 . S
C2423 H2410 0.930 . S
C2423 C2422 1.388 . S
C2423 C2424 1.390 . S
C2424 C2423 1.390 . S
C2424 C2425 1.394 . S
C2424 C2430 1.465 . S
C2425 C2420 1.399 . S
C2425 C2424 1.394 . S
C2425 C2426 1.516 . S
C2426 C2425 1.516 . S
C2426 C2427 1.502 . S
C2426 C2428 1.561 . S
C2426 C2429 1.526 . S
C2427 H2411 0.959 . S
C2427 H2412 0.959 . S
C2427 H2413 0.961 . S
C2427 C2426 1.502 . S
C2428 H2414 0.960 . S
C2428 H2415 0.961 . S
C2428 H2416 0.959 . S
C2428 C2426 1.561 . S
C2429 C2426 1.526 . S
C2429 C2430 1.396 . S
C2429 C2434 1.390 . S
C2430 C2424 1.465 . S
C2430 C2429 1.396 . S
C2430 C2431 1.399 . S
C2431 H2417 0.929 . S
C2431 C2430 1.399 . S
C2431 C2432 1.385 . S
C2432 H2418 0.931 . S
C2432 C2431 1.385 . S
C2432 C2433 1.389 . S
C2433 C2432 1.389 . S
C2433 C2434 1.387 . S
C2434 H2419 0.930 . S
C2434 C2429 1.390 . S
C2434 C2433 1.387 . S
H2435 C2447 0.930 . S
H2436 C2449 0.930 . S
H2437 C2450 0.930 . S
H2438 C2454 0.959 . S
H2439 C2454 0.959 . S
H2440 C2454 0.961 . S
H2441 C2455 0.960 . S
H2442 C2455 0.961 . S
H2443 C2455 0.959 . S
H2444 C2458 0.929 . S
H2445 C2459 0.931 . S
H2446 C2461 0.930 . S
C2447 H2435 0.930 . S
C2447 C2448 1.399 . S
C2447 C2452 1.399 . S
C2448 C2447 1.399 . S
C2448 C2449 1.376 . S
C2449 H2436 0.930 . S
C2449 C2448 1.376 . S
C2449 C2450 1.388 . S
C2450 H2437 0.930 . S
C2450 C2449 1.388 . S
C2450 C2451 1.390 . S
C2451 C2450 1.390 . S
C2451 C2452 1.394 . S
C2451 C2457 1.465 . S
C2452 C2447 1.399 . S
C2452 C2451 1.394 . S
C2452 C2453 1.516 . S
C2453 C2452 1.516 . S
C2453 C2454 1.502 . S
C2453 C2455 1.561 . S
C2453 C2456 1.526 . S
C2454 H2438 0.959 . S
C2454 H2439 0.959 . S
C2454 H2440 0.961 . S
C2454 C2453 1.502 . S
C2455 H2441 0.960 . S
C2455 H2442 0.961 . S
C2455 H2443 0.959 . S
C2455 C2453 1.561 . S
C2456 C2453 1.526 . S
C2456 C2457 1.396 . S
C2456 C2461 1.390 . S
C2457 C2451 1.465 . S
C2457 C2456 1.396 . S
C2457 C2458 1.399 . S
C2458 H2444 0.929 . S
C2458 C2457 1.399 . S
C2458 C2459 1.385 . S
C2459 H2445 0.931 . S
C2459 C2458 1.385 . S
C2459 C2460 1.389 . S
C2460 C2459 1.389 . S
C2460 C2461 1.387 . S
C2461 H2446 0.930 . S
C2461 C2456 1.390 . S
C2461 C2460 1.387 . S
H2462 C2474 0.930 . S
H2463 C2476 0.930 . S
H2464 C2477 0.930 . S
H2465 C2481 0.959 . S
H2466 C2481 0.959 . S
H2467 C2481 0.961 . S
H2468 C2482 0.960 . S
H2469 C2482 0.961 . S
H2470 C2482 0.959 . S
H2471 C2485 0.929 . S
H2472 C2486 0.931 . S
H2473 C2488 0.930 . S
C2474 H2462 0.930 . S
C2474 C2475 1.399 . S
C2474 C2479 1.399 . S
C2475 C2474 1.399 . S
C2475 C2476 1.376 . S
C2476 H2463 0.930 . S
C2476 C2475 1.376 . S
C2476 C2477 1.388 . S
C2477 H2464 0.930 . S
C2477 C2476 1.388 . S
C2477 C2478 1.390 . S
C2478 C2477 1.390 . S
C2478 C2479 1.394 . S
C2478 C2484 1.465 . S
C2479 C2474 1.399 . S
C2479 C2478 1.394 . S
C2479 C2480 1.516 . S
C2480 C2479 1.516 . S
C2480 C2481 1.502 . S
C2480 C2482 1.561 . S
C2480 C2483 1.526 . S
C2481 H2465 0.959 . S
C2481 H2466 0.959 . S
C2481 H2467 0.961 . S
C2481 C2480 1.502 . S
C2482 H2468 0.960 . S
C2482 H2469 0.961 . S
C2482 H2470 0.959 . S
C2482 C2480 1.561 . S
C2483 C2480 1.526 . S
C2483 C2484 1.396 . S
C2483 C2488 1.390 . S
C2484 C2478 1.465 . S
C2484 C2483 1.396 . S
C2484 C2485 1.399 . S
C2485 H2471 0.929 . S
C2485 C2484 1.399 . S
C2485 C2486 1.385 . S
C2486 H2472 0.931 . S
C2486 C2485 1.385 . S
C2486 C2487 1.389 . S
C2487 C2486 1.389 . S
C2487 C2488 1.387 . S
C2488 H2473 0.930 . S
C2488 C2483 1.390 . S
C2488 C2487 1.387 . S
H2489 C2501 0.930 1_556 S
H2490 C2503 0.930 . S
H2491 C2504 0.930 . S
H2492 C2508 0.959 1_554 S
H2493 C2508 0.959 . S
H2494 C2508 0.961 . S
H2495 C2509 0.960 . S
H2496 C2509 0.961 . S
H2497 C2509 0.959 . S
H2498 C2512 0.929 . S
H2499 C2513 0.931 . S
H2500 C2515 0.930 . S
C2501 H2489 0.930 1_554 S
C2501 C2502 1.399 . S
C2501 C2506 1.399 . S
C2502 C2501 1.399 . S
C2502 C2503 1.376 . S
C2503 H2490 0.930 . S
C2503 C2502 1.376 . S
C2503 C2504 1.388 . S
C2504 H2491 0.930 . S
C2504 C2503 1.388 . S
C2504 C2505 1.390 . S
C2505 C2504 1.390 . S
C2505 C2506 1.394 . S
C2505 C2511 1.465 . S
C2506 C2501 1.399 . S
C2506 C2505 1.394 . S
C2506 C2507 1.516 1_554 S
C2507 C2506 1.516 1_556 S
C2507 C2508 1.502 . S
C2507 C2509 1.561 . S
C2507 C2510 1.526 1_556 S
C2508 H2492 0.959 1_556 S
C2508 H2493 0.959 . S
C2508 H2494 0.961 . S
C2508 C2507 1.502 . S
C2509 H2495 0.960 . S
C2509 H2496 0.961 . S
C2509 H2497 0.959 . S
C2509 C2507 1.561 . S
C2510 C2507 1.526 1_554 S
C2510 C2511 1.396 . S
C2510 C2515 1.390 . S
C2511 C2505 1.465 . S
C2511 C2510 1.396 . S
C2511 C2512 1.399 . S
C2512 H2498 0.929 . S
C2512 C2511 1.399 . S
C2512 C2513 1.385 . S
C2513 H2499 0.931 . S
C2513 C2512 1.385 . S
C2513 C2514 1.389 . S
C2514 C2513 1.389 . S
C2514 C2515 1.387 . S
C2515 H2500 0.930 . S
C2515 C2510 1.390 . S
C2515 C2514 1.387 . S
H2516 C2528 0.930 . S
H2517 C2530 0.930 . S
H2518 C2531 0.930 . S
H2519 C2535 0.959 . S
H2520 C2535 0.959 . S
H2521 C2535 0.961 . S
H2522 C2536 0.960 . S
H2523 C2536 0.961 . S
H2524 C2536 0.959 . S
H2525 C2539 0.929 . S
H2526 C2540 0.931 . S
H2527 C2542 0.930 . S
C2528 H2516 0.930 . S
C2528 C2529 1.399 . S
C2528 C2533 1.399 . S
C2529 C2528 1.399 . S
C2529 C2530 1.376 . S
C2530 H2517 0.930 . S
C2530 C2529 1.376 . S
C2530 C2531 1.388 . S
C2531 H2518 0.930 . S
C2531 C2530 1.388 . S
C2531 C2532 1.390 . S
C2532 C2531 1.390 . S
C2532 C2533 1.394 . S
C2532 C2538 1.465 . S
C2533 C2528 1.399 . S
C2533 C2532 1.394 . S
C2533 C2534 1.516 . S
C2534 C2533 1.516 . S
C2534 C2535 1.502 . S
C2534 C2536 1.561 . S
C2534 C2537 1.526 . S
C2535 H2519 0.959 . S
C2535 H2520 0.959 . S
C2535 H2521 0.961 . S
C2535 C2534 1.502 . S
C2536 H2522 0.960 . S
C2536 H2523 0.961 . S
C2536 H2524 0.959 . S
C2536 C2534 1.561 . S
C2537 C2534 1.526 . S
C2537 C2538 1.396 . S
C2537 C2542 1.390 . S
C2538 C2532 1.465 . S
C2538 C2537 1.396 . S
C2538 C2539 1.399 . S
C2539 H2525 0.929 . S
C2539 C2538 1.399 . S
C2539 C2540 1.385 . S
C2540 H2526 0.931 . S
C2540 C2539 1.385 . S
C2540 C2541 1.389 . S
C2541 C2540 1.389 . S
C2541 C2542 1.387 . S
C2542 H2527 0.930 . S
C2542 C2537 1.390 . S
C2542 C2541 1.387 . S
H2543 C2555 0.930 . S
H2544 C2557 0.930 . S
H2545 C2558 0.930 . S
H2546 C2562 0.959 . S
H2547 C2562 0.959 . S
H2548 C2562 0.961 . S
H2549 C2563 0.960 . S
H2550 C2563 0.961 . S
H2551 C2563 0.959 . S
H2552 C2566 0.929 . S
H2553 C2567 0.931 . S
H2554 C2569 0.930 . S
C2555 H2543 0.930 . S
C2555 C2556 1.399 1_556 S
C2555 C2560 1.399 . S
C2556 C2555 1.399 1_554 S
C2556 C2557 1.376 . S
C2557 H2544 0.930 . S
C2557 C2556 1.376 . S
C2557 C2558 1.388 . S
C2558 H2545 0.930 . S
C2558 C2557 1.388 . S
C2558 C2559 1.390 . S
C2559 C2558 1.390 . S
C2559 C2560 1.394 1_554 S
C2559 C2565 1.465 . S
C2560 C2555 1.399 . S
C2560 C2559 1.394 1_556 S
C2560 C2561 1.516 . S
C2561 C2560 1.516 . S
C2561 C2562 1.502 . S
C2561 C2563 1.561 . S
C2561 C2564 1.526 . S
C2562 H2546 0.959 . S
C2562 H2547 0.959 . S
C2562 H2548 0.961 . S
C2562 C2561 1.502 . S
C2563 H2549 0.960 . S
C2563 H2550 0.961 . S
C2563 H2551 0.959 . S
C2563 C2561 1.561 . S
C2564 C2561 1.526 . S
C2564 C2565 1.396 1_556 S
C2564 C2569 1.390 . S
C2565 C2559 1.465 . S
C2565 C2564 1.396 1_554 S
C2565 C2566 1.399 . S
C2566 H2552 0.929 . S
C2566 C2565 1.399 . S
C2566 C2567 1.385 . S
C2567 H2553 0.931 . S
C2567 C2566 1.385 . S
C2567 C2568 1.389 1_554 S
C2568 C2567 1.389 1_556 S
C2568 C2569 1.387 . S
C2569 H2554 0.930 . S
C2569 C2564 1.390 . S
C2569 C2568 1.387 . S
H2570 C2582 0.930 . S
H2571 C2584 0.930 . S
H2572 C2585 0.930 . S
H2573 C2589 0.959 . S
H2574 C2589 0.959 . S
H2575 C2589 0.961 . S
H2576 C2590 0.960 . S
H2577 C2590 0.961 . S
H2578 C2590 0.959 . S
H2579 C2593 0.929 . S
H2580 C2594 0.931 . S
H2581 C2596 0.930 . S
C2582 H2570 0.930 . S
C2582 C2583 1.399 . S
C2582 C2587 1.399 . S
C2583 C2582 1.399 . S
C2583 C2584 1.376 . S
C2584 H2571 0.930 . S
C2584 C2583 1.376 . S
C2584 C2585 1.388 . S
C2585 H2572 0.930 . S
C2585 C2584 1.388 . S
C2585 C2586 1.390 . S
C2586 C2585 1.390 . S
C2586 C2587 1.394 . S
C2586 C2592 1.465 . S
C2587 C2582 1.399 . S
C2587 C2586 1.394 . S
C2587 C2588 1.516 . S
C2588 C2587 1.516 . S
C2588 C2589 1.502 . S
C2588 C2590 1.561 . S
C2588 C2591 1.526 . S
C2589 H2573 0.959 . S
C2589 H2574 0.959 . S
C2589 H2575 0.961 . S
C2589 C2588 1.502 . S
C2590 H2576 0.960 . S
C2590 H2577 0.961 . S
C2590 H2578 0.959 . S
C2590 C2588 1.561 . S
C2591 C2588 1.526 . S
C2591 C2592 1.396 . S
C2591 C2596 1.390 . S
C2592 C2586 1.465 . S
C2592 C2591 1.396 . S
C2592 C2593 1.399 . S
C2593 H2579 0.929 . S
C2593 C2592 1.399 . S
C2593 C2594 1.385 . S
C2594 H2580 0.931 . S
C2594 C2593 1.385 . S
C2594 C2595 1.389 . S
C2595 C2594 1.389 . S
C2595 C2596 1.387 . S
C2596 H2581 0.930 . S
C2596 C2591 1.390 . S
C2596 C2595 1.387 . S
H2597 C2609 0.930 . S
H2598 C2611 0.930 . S
H2599 C2612 0.930 . S
H2600 C2616 0.959 . S
H2601 C2616 0.959 . S
H2602 C2616 0.961 . S
H2603 C2617 0.960 . S
H2604 C2617 0.961 . S
H2605 C2617 0.959 . S
H2606 C2620 0.929 . S
H2607 C2621 0.931 . S
H2608 C2623 0.930 . S
C2609 H2597 0.930 . S
C2609 C2610 1.399 . S
C2609 C2614 1.399 . S
C2610 C2609 1.399 . S
C2610 C2611 1.376 . S
C2611 H2598 0.930 . S
C2611 C2610 1.376 . S
C2611 C2612 1.388 . S
C2612 H2599 0.930 . S
C2612 C2611 1.388 . S
C2612 C2613 1.390 . S
C2613 C2612 1.390 . S
C2613 C2614 1.394 . S
C2613 C2619 1.465 . S
C2614 C2609 1.399 . S
C2614 C2613 1.394 . S
C2614 C2615 1.516 . S
C2615 C2614 1.516 . S
C2615 C2616 1.502 . S
C2615 C2617 1.561 . S
C2615 C2618 1.526 . S
C2616 H2600 0.959 . S
C2616 H2601 0.959 . S
C2616 H2602 0.961 . S
C2616 C2615 1.502 . S
C2617 H2603 0.960 . S
C2617 H2604 0.961 . S
C2617 H2605 0.959 . S
C2617 C2615 1.561 . S
C2618 C2615 1.526 . S
C2618 C2619 1.396 . S
C2618 C2623 1.390 . S
C2619 C2613 1.465 . S
C2619 C2618 1.396 . S
C2619 C2620 1.399 . S
C2620 H2606 0.929 . S
C2620 C2619 1.399 . S
C2620 C2621 1.385 . S
C2621 H2607 0.931 . S
C2621 C2620 1.385 . S
C2621 C2622 1.389 . S
C2622 C2621 1.389 . S
C2622 C2623 1.387 . S
C2623 H2608 0.930 . S
C2623 C2618 1.390 . S
C2623 C2622 1.387 . S
H2624 C2636 0.930 . S
H2625 C2638 0.930 . S
H2626 C2639 0.930 . S
H2627 C2643 0.959 . S
H2628 C2643 0.959 . S
H2629 C2643 0.961 . S
H2630 C2644 0.960 . S
H2631 C2644 0.961 . S
H2632 C2644 0.959 . S
H2633 C2647 0.929 . S
H2634 C2648 0.931 . S
H2635 C2650 0.930 . S
C2636 H2624 0.930 . S
C2636 C2637 1.399 . S
C2636 C2641 1.399 . S
C2637 C2636 1.399 . S
C2637 C2638 1.376 . S
C2638 H2625 0.930 . S
C2638 C2637 1.376 . S
C2638 C2639 1.388 . S
C2639 H2626 0.930 . S
C2639 C2638 1.388 . S
C2639 C2640 1.390 . S
C2640 C2639 1.390 . S
C2640 C2641 1.394 . S
C2640 C2646 1.465 . S
C2641 C2636 1.399 . S
C2641 C2640 1.394 . S
C2641 C2642 1.516 . S
C2642 C2641 1.516 . S
C2642 C2643 1.502 . S
C2642 C2644 1.561 . S
C2642 C2645 1.526 . S
C2643 H2627 0.959 . S
C2643 H2628 0.959 . S
C2643 H2629 0.961 . S
C2643 C2642 1.502 . S
C2644 H2630 0.960 . S
C2644 H2631 0.961 . S
C2644 H2632 0.959 . S
C2644 C2642 1.561 . S
C2645 C2642 1.526 . S
C2645 C2646 1.396 . S
C2645 C2650 1.390 . S
C2646 C2640 1.465 . S
C2646 C2645 1.396 . S
C2646 C2647 1.399 . S
C2647 H2633 0.929 . S
C2647 C2646 1.399 . S
C2647 C2648 1.385 . S
C2648 H2634 0.931 . S
C2648 C2647 1.385 . S
C2648 C2649 1.389 . S
C2649 C2648 1.389 . S
C2649 C2650 1.387 . S
C2650 H2635 0.930 . S
C2650 C2645 1.390 . S
C2650 C2649 1.387 . S
H2651 C2663 0.930 . S
H2652 C2665 0.930 . S
H2653 C2666 0.930 . S
H2654 C2670 0.959 . S
H2655 C2670 0.959 . S
H2656 C2670 0.961 . S
H2657 C2671 0.960 . S
H2658 C2671 0.961 . S
H2659 C2671 0.959 . S
H2660 C2674 0.929 . S
H2661 C2675 0.931 . S
H2662 C2677 0.930 . S
C2663 H2651 0.930 . S
C2663 C2664 1.399 . S
C2663 C2668 1.399 . S
C2664 C2663 1.399 . S
C2664 C2665 1.376 . S
C2665 H2652 0.930 . S
C2665 C2664 1.376 . S
C2665 C2666 1.388 . S
C2666 H2653 0.930 . S
C2666 C2665 1.388 . S
C2666 C2667 1.390 . S
C2667 C2666 1.390 . S
C2667 C2668 1.394 . S
C2667 C2673 1.465 . S
C2668 C2663 1.399 . S
C2668 C2667 1.394 . S
C2668 C2669 1.516 . S
C2669 C2668 1.516 . S
C2669 C2670 1.502 . S
C2669 C2671 1.561 . S
C2669 C2672 1.526 . S
C2670 H2654 0.959 . S
C2670 H2655 0.959 . S
C2670 H2656 0.961 . S
C2670 C2669 1.502 . S
C2671 H2657 0.960 . S
C2671 H2658 0.961 . S
C2671 H2659 0.959 . S
C2671 C2669 1.561 . S
C2672 C2669 1.526 . S
C2672 C2673 1.396 . S
C2672 C2677 1.390 . S
C2673 C2667 1.465 . S
C2673 C2672 1.396 . S
C2673 C2674 1.399 . S
C2674 H2660 0.929 . S
C2674 C2673 1.399 . S
C2674 C2675 1.385 . S
C2675 H2661 0.931 . S
C2675 C2674 1.385 . S
C2675 C2676 1.389 . S
C2676 C2675 1.389 . S
C2676 C2677 1.387 . S
C2677 H2662 0.930 . S
C2677 C2672 1.390 . S
C2677 C2676 1.387 . S
H2678 C2690 0.930 . S
H2679 C2692 0.930 . S
H2680 C2693 0.930 . S
H2681 C2697 0.959 . S
H2682 C2697 0.959 1_554 S
H2683 C2697 0.961 . S
H2684 C2698 0.960 . S
H2685 C2698 0.945 1_554 S
H2686 C2698 0.959 . S
H2687 C2701 0.929 . S
H2688 C2702 0.932 . S
H2689 C2704 0.930 1_554 S
C2690 H2678 0.930 . S
C2690 C2691 1.399 . S
C2690 C2695 1.399 . S
C2691 C2690 1.399 . S
C2691 C2692 1.376 . S
C2692 H2679 0.930 . S
C2692 C2691 1.376 . S
C2692 C2693 1.388 . S
C2693 H2680 0.930 . S
C2693 C2692 1.388 . S
C2693 C2694 1.390 . S
C2694 C2693 1.390 . S
C2694 C2695 1.394 . S
C2694 C2700 1.465 . S
C2695 C2690 1.399 . S
C2695 C2694 1.394 . S
C2695 C2696 1.516 . S
C2696 C2695 1.516 . S
C2696 C2697 1.502 . S
C2696 C2698 1.561 1_455 S
C2696 C2699 1.526 . S
C2697 H2681 0.959 . S
C2697 H2682 0.959 1_556 S
C2697 H2683 0.961 . S
C2697 C2696 1.502 . S
C2698 H2684 0.960 . S
C2698 H2685 0.945 1_556 S
C2698 H2686 0.959 . S
C2698 C2696 1.561 1_655 S
C2699 C2696 1.526 . S
C2699 C2700 1.398 . S
C2699 C2704 1.388 1_455 S
C2700 C2694 1.465 . S
C2700 C2699 1.398 . S
C2700 C2701 1.399 . S
C2701 H2687 0.929 . S
C2701 C2700 1.399 . S
C2701 C2702 1.382 1_455 S
C2702 H2688 0.932 . S
C2702 C2701 1.382 1_655 S
C2702 C2703 1.393 . S
C2703 C2702 1.393 . S
C2703 C2704 1.387 . S
C2704 H2689 0.930 1_556 S
C2704 C2699 1.388 1_655 S
C2704 C2703 1.387 . S
H2705 C2717 0.930 . S
H2706 C2719 0.930 . S
H2707 C2720 0.930 . S
H2708 C2724 0.959 . S
H2709 C2724 0.959 . S
H2710 C2724 0.961 . S
H2711 C2725 0.960 . S
H2712 C2725 0.961 . S
H2713 C2725 0.959 . S
H2714 C2728 0.929 . S
H2715 C2729 0.931 . S
H2716 C2731 0.930 . S
C2717 H2705 0.930 . S
C2717 C2718 1.399 . S
C2717 C2722 1.399 . S
C2718 C2717 1.399 . S
C2718 C2719 1.376 . S
C2719 H2706 0.930 . S
C2719 C2718 1.376 . S
C2719 C2720 1.388 . S
C2720 H2707 0.930 . S
C2720 C2719 1.388 . S
C2720 C2721 1.390 . S
C2721 C2720 1.390 . S
C2721 C2722 1.394 . S
C2721 C2727 1.465 . S
C2722 C2717 1.399 . S
C2722 C2721 1.394 . S
C2722 C2723 1.516 . S
C2723 C2722 1.516 . S
C2723 C2724 1.502 . S
C2723 C2725 1.561 . S
C2723 C2726 1.526 . S
C2724 H2708 0.959 . S
C2724 H2709 0.959 . S
C2724 H2710 0.961 . S
C2724 C2723 1.502 . S
C2725 H2711 0.960 . S
C2725 H2712 0.961 . S
C2725 H2713 0.959 . S
C2725 C2723 1.561 . S
C2726 C2723 1.526 . S
C2726 C2727 1.396 . S
C2726 C2731 1.390 . S
C2727 C2721 1.465 . S
C2727 C2726 1.396 . S
C2727 C2728 1.399 . S
C2728 H2714 0.929 . S
C2728 C2727 1.399 . S
C2728 C2729 1.385 . S
C2729 H2715 0.931 . S
C2729 C2728 1.385 . S
C2729 C2730 1.389 . S
C2730 C2729 1.389 . S
C2730 C2731 1.387 . S
C2731 H2716 0.930 . S
C2731 C2726 1.390 . S
C2731 C2730 1.387 . S
H2732 C2744 0.930 . S
H2733 C2746 0.930 . S
H2734 C2747 0.930 . S
H2735 C2751 0.959 . S
H2736 C2751 0.959 . S
H2737 C2751 0.961 . S
H2738 C2752 0.960 . S
H2739 C2752 0.961 . S
H2740 C2752 0.959 . S
H2741 C2755 0.929 . S
H2742 C2756 0.931 . S
H2743 C2758 0.930 . S
C2744 H2732 0.930 . S
C2744 C2745 1.399 . S
C2744 C2749 1.399 . S
C2745 C2744 1.399 . S
C2745 C2746 1.376 . S
C2746 H2733 0.930 . S
C2746 C2745 1.376 . S
C2746 C2747 1.388 . S
C2747 H2734 0.930 . S
C2747 C2746 1.388 . S
C2747 C2748 1.390 . S
C2748 C2747 1.390 . S
C2748 C2749 1.394 . S
C2748 C2754 1.465 . S
C2749 C2744 1.399 . S
C2749 C2748 1.394 . S
C2749 C2750 1.516 . S
C2750 C2749 1.516 . S
C2750 C2751 1.502 . S
C2750 C2752 1.561 . S
C2750 C2753 1.526 . S
C2751 H2735 0.959 . S
C2751 H2736 0.959 . S
C2751 H2737 0.961 . S
C2751 C2750 1.502 . S
C2752 H2738 0.960 . S
C2752 H2739 0.961 . S
C2752 H2740 0.959 . S
C2752 C2750 1.561 . S
C2753 C2750 1.526 . S
C2753 C2754 1.396 . S
C2753 C2758 1.390 . S
C2754 C2748 1.465 . S
C2754 C2753 1.396 . S
C2754 C2755 1.399 . S
C2755 H2741 0.929 . S
C2755 C2754 1.399 . S
C2755 C2756 1.385 . S
C2756 H2742 0.931 . S
C2756 C2755 1.385 . S
C2756 C2757 1.389 . S
C2757 C2756 1.389 . S
C2757 C2758 1.387 . S
C2758 H2743 0.930 . S
C2758 C2753 1.390 . S
C2758 C2757 1.387 . S
H2759 C2771 0.930 . S
H2760 C2773 0.930 . S
H2761 C2774 0.930 . S
H2762 C2778 0.959 . S
H2763 C2778 0.959 . S
H2764 C2778 0.961 . S
H2765 C2779 0.960 . S
H2766 C2779 0.961 . S
H2767 C2779 0.959 . S
H2768 C2782 0.929 . S
H2769 C2783 0.931 . S
H2770 C2785 0.930 . S
C2771 H2759 0.930 . S
C2771 C2772 1.399 . S
C2771 C2776 1.399 . S
C2772 C2771 1.399 . S
C2772 C2773 1.376 . S
C2773 H2760 0.930 . S
C2773 C2772 1.376 . S
C2773 C2774 1.388 . S
C2774 H2761 0.930 . S
C2774 C2773 1.388 . S
C2774 C2775 1.390 . S
C2775 C2774 1.390 . S
C2775 C2776 1.394 . S
C2775 C2781 1.465 . S
C2776 C2771 1.399 . S
C2776 C2775 1.394 . S
C2776 C2777 1.516 . S
C2777 C2776 1.516 . S
C2777 C2778 1.502 . S
C2777 C2779 1.561 . S
C2777 C2780 1.526 . S
C2778 H2762 0.959 . S
C2778 H2763 0.959 . S
C2778 H2764 0.961 . S
C2778 C2777 1.502 . S
C2779 H2765 0.960 . S
C2779 H2766 0.961 . S
C2779 H2767 0.959 . S
C2779 C2777 1.561 . S
C2780 C2777 1.526 . S
C2780 C2781 1.396 . S
C2780 C2785 1.390 . S
C2781 C2775 1.465 . S
C2781 C2780 1.396 . S
C2781 C2782 1.399 . S
C2782 H2768 0.929 . S
C2782 C2781 1.399 . S
C2782 C2783 1.385 . S
C2783 H2769 0.931 . S
C2783 C2782 1.385 . S
C2783 C2784 1.389 . S
C2784 C2783 1.389 . S
C2784 C2785 1.387 . S
C2785 H2770 0.930 . S
C2785 C2780 1.390 . S
C2785 C2784 1.387 . S
H2786 C2798 0.930 . S
H2787 C2800 0.930 . S
H2788 C2801 0.930 . S
H2789 C2805 0.959 . S
H2790 C2805 0.959 . S
H2791 C2805 0.961 . S
H2792 C2806 0.960 . S
H2793 C2806 0.961 . S
H2794 C2806 0.959 . S
H2795 C2809 0.929 . S
H2796 C2810 0.931 . S
H2797 C2812 0.930 . S
C2798 H2786 0.930 . S
C2798 C2799 1.399 . S
C2798 C2803 1.399 . S
C2799 C2798 1.399 . S
C2799 C2800 1.376 . S
C2800 H2787 0.930 . S
C2800 C2799 1.376 . S
C2800 C2801 1.388 1_455 S
C2801 H2788 0.930 . S
C2801 C2800 1.388 1_655 S
C2801 C2802 1.385 1_655 S
C2802 C2801 1.385 1_455 S
C2802 C2803 1.409 . S
C2802 C2808 1.460 1_455 S
C2803 C2798 1.399 . S
C2803 C2802 1.409 . S
C2803 C2804 1.516 . S
C2804 C2803 1.516 . S
C2804 C2805 1.502 . S
C2804 C2806 1.561 1_455 S
C2804 C2807 1.526 . S
C2805 H2789 0.959 . S
C2805 H2790 0.959 . S
C2805 H2791 0.961 . S
C2805 C2804 1.502 . S
C2806 H2792 0.960 . S
C2806 H2793 0.961 . S
C2806 H2794 0.959 . S
C2806 C2804 1.561 1_655 S
C2807 C2804 1.526 . S
C2807 C2808 1.396 1_455 S
C2807 C2812 1.390 . S
C2808 C2802 1.460 1_655 S
C2808 C2807 1.396 1_655 S
C2808 C2809 1.399 . S
C2809 H2795 0.929 . S
C2809 C2808 1.399 . S
C2809 C2810 1.385 . S
C2810 H2796 0.931 . S
C2810 C2809 1.385 . S
C2810 C2811 1.389 . S
C2811 C2810 1.389 . S
C2811 C2812 1.387 1_655 S
C2812 H2797 0.930 . S
C2812 C2807 1.390 . S
C2812 C2811 1.387 1_455 S
H2813 C2825 0.930 . S
H2814 C2827 0.930 . S
H2815 C2828 0.930 . S
H2816 C2832 0.959 . S
H2817 C2832 0.959 . S
H2818 C2832 0.961 . S
H2819 C2833 0.960 . S
H2820 C2833 0.961 . S
H2821 C2833 0.959 . S
H2822 C2836 0.929 . S
H2823 C2837 0.931 . S
H2824 C2839 0.930 . S
C2825 H2813 0.930 . S
C2825 C2826 1.399 . S
C2825 C2830 1.399 . S
C2826 C2825 1.399 . S
C2826 C2827 1.376 . S
C2827 H2814 0.930 . S
C2827 C2826 1.376 . S
C2827 C2828 1.388 . S
C2828 H2815 0.930 . S
C2828 C2827 1.388 . S
C2828 C2829 1.390 . S
C2829 C2828 1.390 . S
C2829 C2830 1.394 . S
C2829 C2835 1.465 . S
C2830 C2825 1.399 . S
C2830 C2829 1.394 . S
C2830 C2831 1.516 . S
C2831 C2830 1.516 . S
C2831 C2832 1.502 . S
C2831 C2833 1.561 . S
C2831 C2834 1.526 . S
C2832 H2816 0.959 . S
C2832 H2817 0.959 . S
C2832 H2818 0.961 . S
C2832 C2831 1.502 . S
C2833 H2819 0.960 . S
C2833 H2820 0.961 . S
C2833 H2821 0.959 . S
C2833 C2831 1.561 . S
C2834 C2831 1.526 . S
C2834 C2835 1.396 . S
C2834 C2839 1.390 . S
C2835 C2829 1.465 . S
C2835 C2834 1.396 . S
C2835 C2836 1.399 . S
C2836 H2822 0.929 . S
C2836 C2835 1.399 . S
C2836 C2837 1.385 . S
C2837 H2823 0.931 . S
C2837 C2836 1.385 . S
C2837 C2838 1.389 . S
C2838 C2837 1.389 . S
C2838 C2839 1.387 . S
C2839 H2824 0.930 . S
C2839 C2834 1.390 . S
C2839 C2838 1.387 . S
H2840 C2852 0.930 . S
H2841 C2854 0.930 . S
H2842 C2855 0.930 . S
H2843 C2859 0.959 . S
H2844 C2859 0.959 . S
H2845 C2859 0.961 . S
H2846 C2860 0.960 . S
H2847 C2860 0.961 . S
H2848 C2860 0.959 . S
H2849 C2863 0.929 . S
H2850 C2864 0.931 . S
H2851 C2866 0.930 . S
C2852 H2840 0.930 . S
C2852 C2853 1.399 . S
C2852 C2857 1.399 . S
C2853 C2852 1.399 . S
C2853 C2854 1.376 . S
C2854 H2841 0.930 . S
C2854 C2853 1.376 . S
C2854 C2855 1.388 . S
C2855 H2842 0.930 . S
C2855 C2854 1.388 . S
C2855 C2856 1.390 . S
C2856 C2855 1.390 . S
C2856 C2857 1.394 . S
C2856 C2862 1.465 . S
C2857 C2852 1.399 . S
C2857 C2856 1.394 . S
C2857 C2858 1.516 . S
C2858 C2857 1.516 . S
C2858 C2859 1.502 . S
C2858 C2860 1.561 . S
C2858 C2861 1.526 . S
C2859 H2843 0.959 . S
C2859 H2844 0.959 . S
C2859 H2845 0.961 . S
C2859 C2858 1.502 . S
C2860 H2846 0.960 . S
C2860 H2847 0.961 . S
C2860 H2848 0.959 . S
C2860 C2858 1.561 . S
C2861 C2858 1.526 . S
C2861 C2862 1.396 . S
C2861 C2866 1.390 . S
C2862 C2856 1.465 . S
C2862 C2861 1.396 . S
C2862 C2863 1.399 . S
C2863 H2849 0.929 . S
C2863 C2862 1.399 . S
C2863 C2864 1.385 . S
C2864 H2850 0.931 . S
C2864 C2863 1.385 . S
C2864 C2865 1.389 . S
C2865 C2864 1.389 . S
C2865 C2866 1.387 . S
C2866 H2851 0.930 . S
C2866 C2861 1.390 . S
C2866 C2865 1.387 . S
H2867 C2879 0.930 . S
H2868 C2881 0.930 . S
H2869 C2882 0.930 . S
H2870 C2886 0.959 . S
H2871 C2886 0.959 . S
H2872 C2886 0.961 . S
H2873 C2887 0.960 . S
H2874 C2887 0.961 . S
H2875 C2887 0.959 . S
H2876 C2890 0.929 . S
H2877 C2891 0.931 . S
H2878 C2893 0.930 . S
C2879 H2867 0.930 . S
C2879 C2880 1.399 . S
C2879 C2884 1.399 . S
C2880 C2879 1.399 . S
C2880 C2881 1.376 . S
C2881 H2868 0.930 . S
C2881 C2880 1.376 . S
C2881 C2882 1.388 . S
C2882 H2869 0.930 . S
C2882 C2881 1.388 . S
C2882 C2883 1.390 . S
C2883 C2882 1.390 . S
C2883 C2884 1.394 . S
C2883 C2889 1.465 . S
C2884 C2879 1.399 . S
C2884 C2883 1.394 . S
C2884 C2885 1.516 . S
C2885 C2884 1.516 . S
C2885 C2886 1.502 . S
C2885 C2887 1.561 . S
C2885 C2888 1.526 . S
C2886 H2870 0.959 . S
C2886 H2871 0.959 . S
C2886 H2872 0.961 . S
C2886 C2885 1.502 . S
C2887 H2873 0.960 . S
C2887 H2874 0.961 . S
C2887 H2875 0.959 . S
C2887 C2885 1.561 . S
C2888 C2885 1.526 . S
C2888 C2889 1.396 . S
C2888 C2893 1.390 . S
C2889 C2883 1.465 . S
C2889 C2888 1.396 . S
C2889 C2890 1.399 . S
C2890 H2876 0.929 . S
C2890 C2889 1.399 . S
C2890 C2891 1.385 . S
C2891 H2877 0.931 . S
C2891 C2890 1.385 . S
C2891 C2892 1.389 . S
C2892 C2891 1.389 . S
C2892 C2893 1.387 . S
C2893 H2878 0.930 . S
C2893 C2888 1.390 . S
C2893 C2892 1.387 . S
H2894 C2906 0.930 . S
H2895 C2908 0.930 . S
H2896 C2909 0.930 . S
H2897 C2913 0.959 . S
H2898 C2913 0.959 . S
H2899 C2913 0.961 . S
H2900 C2914 0.960 . S
H2901 C2914 0.961 . S
H2902 C2914 0.959 . S
H2903 C2917 0.929 . S
H2904 C2918 0.931 . S
H2905 C2920 0.930 . S
C2906 H2894 0.930 . S
C2906 C2907 1.399 . S
C2906 C2911 1.399 . S
C2907 C2906 1.399 . S
C2907 C2908 1.376 . S
C2908 H2895 0.930 . S
C2908 C2907 1.376 . S
C2908 C2909 1.388 . S
C2909 H2896 0.930 . S
C2909 C2908 1.388 . S
C2909 C2910 1.390 . S
C2910 C2909 1.390 . S
C2910 C2911 1.394 . S
C2910 C2916 1.465 . S
C2911 C2906 1.399 . S
C2911 C2910 1.394 . S
C2911 C2912 1.516 . S
C2912 C2911 1.516 . S
C2912 C2913 1.502 . S
C2912 C2914 1.561 . S
C2912 C2915 1.526 . S
C2913 H2897 0.959 . S
C2913 H2898 0.959 . S
C2913 H2899 0.961 . S
C2913 C2912 1.502 . S
C2914 H2900 0.960 . S
C2914 H2901 0.961 . S
C2914 H2902 0.959 . S
C2914 C2912 1.561 . S
C2915 C2912 1.526 . S
C2915 C2916 1.396 . S
C2915 C2920 1.390 . S
C2916 C2910 1.465 . S
C2916 C2915 1.396 . S
C2916 C2917 1.399 . S
C2917 H2903 0.929 . S
C2917 C2916 1.399 . S
C2917 C2918 1.385 . S
C2918 H2904 0.931 . S
C2918 C2917 1.385 . S
C2918 C2919 1.389 . S
C2919 C2918 1.389 . S
C2919 C2920 1.387 . S
C2920 H2905 0.930 . S
C2920 C2915 1.390 . S
C2920 C2919 1.387 . S
H2921 C2933 0.930 . S
H2922 C2935 0.930 . S
H2923 C2936 0.930 . S
H2924 C2940 0.959 . S
H2925 C2940 0.959 . S
H2926 C2940 0.961 . S
H2927 C2941 0.960 . S
H2928 C2941 0.961 . S
H2929 C2941 0.959 . S
H2930 C2944 0.929 . S
H2931 C2945 0.931 . S
H2932 C2947 0.930 . S
C2933 H2921 0.930 . S
C2933 C2934 1.399 . S
C2933 C2938 1.399 . S
C2934 C2933 1.399 . S
C2934 C2935 1.376 . S
C2935 H2922 0.930 . S
C2935 C2934 1.376 . S
C2935 C2936 1.388 . S
C2936 H2923 0.930 . S
C2936 C2935 1.388 . S
C2936 C2937 1.390 . S
C2937 C2936 1.390 . S
C2937 C2938 1.394 . S
C2937 C2943 1.465 . S
C2938 C2933 1.399 . S
C2938 C2937 1.394 . S
C2938 C2939 1.516 . S
C2939 C2938 1.516 . S
C2939 C2940 1.502 . S
C2939 C2941 1.561 . S
C2939 C2942 1.526 . S
C2940 H2924 0.959 . S
C2940 H2925 0.959 . S
C2940 H2926 0.961 . S
C2940 C2939 1.502 . S
C2941 H2927 0.960 . S
C2941 H2928 0.961 . S
C2941 H2929 0.959 . S
C2941 C2939 1.561 . S
C2942 C2939 1.526 . S
C2942 C2943 1.396 . S
C2942 C2947 1.390 . S
C2943 C2937 1.465 . S
C2943 C2942 1.396 . S
C2943 C2944 1.399 . S
C2944 H2930 0.929 . S
C2944 C2943 1.399 . S
C2944 C2945 1.385 . S
C2945 H2931 0.931 . S
C2945 C2944 1.385 . S
C2945 C2946 1.389 . S
C2946 C2945 1.389 . S
C2946 C2947 1.387 . S
C2947 H2932 0.930 . S
C2947 C2942 1.390 . S
C2947 C2946 1.387 . S
H2948 C2960 0.930 . S
H2949 C2962 0.930 . S
H2950 C2963 0.930 . S
H2951 C2967 0.959 . S
H2952 C2967 0.959 . S
H2953 C2967 0.961 . S
H2954 C2968 0.960 . S
H2955 C2968 0.961 . S
H2956 C2968 0.959 . S
H2957 C2971 0.929 . S
H2958 C2972 0.931 . S
H2959 C2974 0.930 . S
C2960 H2948 0.930 . S
C2960 C2961 1.399 . S
C2960 C2965 1.399 . S
C2961 C2960 1.399 . S
C2961 C2962 1.376 . S
C2962 H2949 0.930 . S
C2962 C2961 1.376 . S
C2962 C2963 1.388 . S
C2963 H2950 0.930 . S
C2963 C2962 1.388 . S
C2963 C2964 1.390 . S
C2964 C2963 1.390 . S
C2964 C2965 1.394 . S
C2964 C2970 1.465 . S
C2965 C2960 1.399 . S
C2965 C2964 1.394 . S
C2965 C2966 1.516 . S
C2966 C2965 1.516 . S
C2966 C2967 1.502 . S
C2966 C2968 1.561 . S
C2966 C2969 1.526 . S
C2967 H2951 0.959 . S
C2967 H2952 0.959 . S
C2967 H2953 0.961 . S
C2967 C2966 1.502 . S
C2968 H2954 0.960 . S
C2968 H2955 0.961 . S
C2968 H2956 0.959 . S
C2968 C2966 1.561 . S
C2969 C2966 1.526 . S
C2969 C2970 1.396 . S
C2969 C2974 1.390 . S
C2970 C2964 1.465 . S
C2970 C2969 1.396 . S
C2970 C2971 1.399 . S
C2971 H2957 0.929 . S
C2971 C2970 1.399 . S
C2971 C2972 1.385 . S
C2972 H2958 0.931 . S
C2972 C2971 1.385 . S
C2972 C2973 1.389 . S
C2973 C2972 1.389 . S
C2973 C2974 1.387 . S
C2974 H2959 0.930 . S
C2974 C2969 1.390 . S
C2974 C2973 1.387 . S
H2975 C2987 0.930 . S
H2976 C2989 0.930 . S
H2977 C2990 0.930 . S
H2978 C2994 0.959 . S
H2979 C2994 0.959 . S
H2980 C2994 0.961 . S
H2981 C2995 0.960 . S
H2982 C2995 0.961 . S
H2983 C2995 0.959 . S
H2984 C2998 0.929 . S
H2985 C2999 0.931 . S
H2986 C3001 0.930 . S
C2987 H2975 0.930 . S
C2987 C2988 1.399 . S
C2987 C2992 1.399 . S
C2988 C2987 1.399 . S
C2988 C2989 1.376 . S
C2989 H2976 0.930 . S
C2989 C2988 1.376 . S
C2989 C2990 1.388 . S
C2990 H2977 0.930 . S
C2990 C2989 1.388 . S
C2990 C2991 1.390 . S
C2991 C2990 1.390 . S
C2991 C2992 1.394 . S
C2991 C2997 1.465 . S
C2992 C2987 1.399 . S
C2992 C2991 1.394 . S
C2992 C2993 1.516 . S
C2993 C2992 1.516 . S
C2993 C2994 1.502 . S
C2993 C2995 1.561 . S
C2993 C2996 1.526 . S
C2994 H2978 0.959 . S
C2994 H2979 0.959 . S
C2994 H2980 0.961 . S
C2994 C2993 1.502 . S
C2995 H2981 0.960 . S
C2995 H2982 0.961 . S
C2995 H2983 0.959 . S
C2995 C2993 1.561 . S
C2996 C2993 1.526 . S
C2996 C2997 1.396 . S
C2996 C3001 1.390 . S
C2997 C2991 1.465 . S
C2997 C2996 1.396 . S
C2997 C2998 1.399 . S
C2998 H2984 0.929 . S
C2998 C2997 1.399 . S
C2998 C2999 1.385 . S
C2999 H2985 0.931 . S
C2999 C2998 1.385 . S
C2999 C3000 1.389 . S
C3000 C2999 1.389 . S
C3000 C3001 1.387 . S
C3001 H2986 0.930 . S
C3001 C2996 1.390 . S
C3001 C3000 1.387 . S
H3002 C3014 0.930 . S
H3003 C3016 0.930 . S
H3004 C3017 0.930 . S
H3005 C3021 0.959 . S
H3006 C3021 0.959 . S
H3007 C3021 0.961 . S
H3008 C3022 0.960 . S
H3009 C3022 0.961 . S
H3010 C3022 0.959 . S
H3011 C3025 0.929 . S
H3012 C3026 0.931 . S
H3013 C3028 0.930 . S
C3014 H3002 0.930 . S
C3014 C3015 1.399 . S
C3014 C3019 1.399 . S
C3015 C3014 1.399 . S
C3015 C3016 1.376 . S
C3016 H3003 0.930 . S
C3016 C3015 1.376 . S
C3016 C3017 1.388 . S
C3017 H3004 0.930 . S
C3017 C3016 1.388 . S
C3017 C3018 1.390 . S
C3018 C3017 1.390 . S
C3018 C3019 1.394 . S
C3018 C3024 1.465 . S
C3019 C3014 1.399 . S
C3019 C3018 1.394 . S
C3019 C3020 1.516 . S
C3020 C3019 1.516 . S
C3020 C3021 1.502 . S
C3020 C3022 1.561 . S
C3020 C3023 1.526 . S
C3021 H3005 0.959 . S
C3021 H3006 0.959 . S
C3021 H3007 0.961 . S
C3021 C3020 1.502 . S
C3022 H3008 0.960 . S
C3022 H3009 0.961 . S
C3022 H3010 0.959 . S
C3022 C3020 1.561 . S
C3023 C3020 1.526 . S
C3023 C3024 1.396 . S
C3023 C3028 1.390 . S
C3024 C3018 1.465 . S
C3024 C3023 1.396 . S
C3024 C3025 1.399 . S
C3025 H3011 0.929 . S
C3025 C3024 1.399 . S
C3025 C3026 1.385 . S
C3026 H3012 0.931 . S
C3026 C3025 1.385 . S
C3026 C3027 1.389 . S
C3027 C3026 1.389 . S
C3027 C3028 1.387 . S
C3028 H3013 0.930 . S
C3028 C3023 1.390 . S
C3028 C3027 1.387 . S
H3029 C3041 0.930 . S
H3030 C3043 0.930 . S
H3031 C3044 0.930 . S
H3032 C3048 0.959 . S
H3033 C3048 0.959 . S
H3034 C3048 0.961 . S
H3035 C3049 0.960 . S
H3036 C3049 0.961 . S
H3037 C3049 0.959 . S
H3038 C3052 0.929 . S
H3039 C3053 0.931 . S
H3040 C3055 0.930 . S
C3041 H3029 0.930 . S
C3041 C3042 1.399 . S
C3041 C3046 1.399 . S
C3042 C3041 1.399 . S
C3042 C3043 1.376 . S
C3043 H3030 0.930 . S
C3043 C3042 1.376 . S
C3043 C3044 1.388 . S
C3044 H3031 0.930 . S
C3044 C3043 1.388 . S
C3044 C3045 1.390 . S
C3045 C3044 1.390 . S
C3045 C3046 1.394 . S
C3045 C3051 1.465 . S
C3046 C3041 1.399 . S
C3046 C3045 1.394 . S
C3046 C3047 1.516 . S
C3047 C3046 1.516 . S
C3047 C3048 1.502 . S
C3047 C3049 1.561 . S
C3047 C3050 1.526 . S
C3048 H3032 0.959 . S
C3048 H3033 0.959 . S
C3048 H3034 0.961 . S
C3048 C3047 1.502 . S
C3049 H3035 0.960 . S
C3049 H3036 0.961 . S
C3049 H3037 0.959 . S
C3049 C3047 1.561 . S
C3050 C3047 1.526 . S
C3050 C3051 1.396 . S
C3050 C3055 1.390 . S
C3051 C3045 1.465 . S
C3051 C3050 1.396 . S
C3051 C3052 1.399 . S
C3052 H3038 0.929 . S
C3052 C3051 1.399 . S
C3052 C3053 1.385 . S
C3053 H3039 0.931 . S
C3053 C3052 1.385 . S
C3053 C3054 1.389 . S
C3054 C3053 1.389 . S
C3054 C3055 1.387 . S
C3055 H3040 0.930 . S
C3055 C3050 1.390 . S
C3055 C3054 1.387 . S
H3056 C3068 0.930 . S
H3057 C3070 0.930 . S
H3058 C3071 0.930 . S
H3059 C3075 0.959 . S
H3060 C3075 0.959 . S
H3061 C3075 0.961 . S
H3062 C3076 0.960 . S
H3063 C3076 0.961 . S
H3064 C3076 0.959 . S
H3065 C3079 0.929 . S
H3066 C3080 0.931 . S
H3067 C3082 0.930 . S
C3068 H3056 0.930 . S
C3068 C3069 1.399 . S
C3068 C3073 1.399 . S
C3069 C3068 1.399 . S
C3069 C3070 1.376 . S
C3070 H3057 0.930 . S
C3070 C3069 1.376 . S
C3070 C3071 1.388 . S
C3071 H3058 0.930 . S
C3071 C3070 1.388 . S
C3071 C3072 1.390 . S
C3072 C3071 1.390 . S
C3072 C3073 1.394 . S
C3072 C3078 1.465 . S
C3073 C3068 1.399 . S
C3073 C3072 1.394 . S
C3073 C3074 1.516 . S
C3074 C3073 1.516 . S
C3074 C3075 1.502 . S
C3074 C3076 1.561 . S
C3074 C3077 1.526 . S
C3075 H3059 0.959 . S
C3075 H3060 0.959 . S
C3075 H3061 0.961 . S
C3075 C3074 1.502 . S
C3076 H3062 0.960 . S
C3076 H3063 0.961 . S
C3076 H3064 0.959 . S
C3076 C3074 1.561 . S
C3077 C3074 1.526 . S
C3077 C3078 1.396 . S
C3077 C3082 1.390 . S
C3078 C3072 1.465 . S
C3078 C3077 1.396 . S
C3078 C3079 1.399 . S
C3079 H3065 0.929 . S
C3079 C3078 1.399 . S
C3079 C3080 1.385 . S
C3080 H3066 0.931 . S
C3080 C3079 1.385 . S
C3080 C3081 1.389 . S
C3081 C3080 1.389 . S
C3081 C3082 1.387 . S
C3082 H3067 0.930 . S
C3082 C3077 1.390 . S
C3082 C3081 1.387 . S
H3083 C3095 0.930 . S
H3084 C3097 0.930 . S
H3085 C3098 0.930 . S
H3086 C3102 0.959 . S
H3087 C3102 0.959 . S
H3088 C3102 0.961 . S
H3089 C3103 0.960 . S
H3090 C3103 0.961 . S
H3091 C3103 0.959 . S
H3092 C3106 0.929 . S
H3093 C3107 0.931 . S
H3094 C3109 0.930 . S
C3095 H3083 0.930 . S
C3095 C3096 1.399 . S
C3095 C3100 1.399 . S
C3096 C3095 1.399 . S
C3096 C3097 1.376 . S
C3097 H3084 0.930 . S
C3097 C3096 1.376 . S
C3097 C3098 1.388 . S
C3098 H3085 0.930 . S
C3098 C3097 1.388 . S
C3098 C3099 1.390 . S
C3099 C3098 1.390 . S
C3099 C3100 1.394 . S
C3099 C3105 1.465 . S
C3100 C3095 1.399 . S
C3100 C3099 1.394 . S
C3100 C3101 1.516 . S
C3101 C3100 1.516 . S
C3101 C3102 1.502 . S
C3101 C3103 1.561 . S
C3101 C3104 1.526 . S
C3102 H3086 0.959 . S
C3102 H3087 0.959 . S
C3102 H3088 0.961 . S
C3102 C3101 1.502 . S
C3103 H3089 0.960 . S
C3103 H3090 0.961 . S
C3103 H3091 0.959 . S
C3103 C3101 1.561 . S
C3104 C3101 1.526 . S
C3104 C3105 1.396 . S
C3104 C3109 1.390 . S
C3105 C3099 1.465 . S
C3105 C3104 1.396 . S
C3105 C3106 1.399 . S
C3106 H3092 0.929 . S
C3106 C3105 1.399 . S
C3106 C3107 1.385 . S
C3107 H3093 0.931 . S
C3107 C3106 1.385 . S
C3107 C3108 1.389 . S
C3108 C3107 1.389 . S
C3108 C3109 1.387 . S
C3109 H3094 0.930 . S
C3109 C3104 1.390 . S
C3109 C3108 1.387 . S
H3110 C3122 0.930 . S
H3111 C3124 0.930 . S
H3112 C3125 0.930 . S
H3113 C3129 0.959 . S
H3114 C3129 0.959 . S
H3115 C3129 0.961 . S
H3116 C3130 0.960 . S
H3117 C3130 0.961 . S
H3118 C3130 0.959 . S
H3119 C3133 0.929 . S
H3120 C3134 0.931 . S
H3121 C3136 0.930 . S
C3122 H3110 0.930 . S
C3122 C3123 1.399 . S
C3122 C3127 1.399 . S
C3123 C3122 1.399 . S
C3123 C3124 1.376 . S
C3124 H3111 0.930 . S
C3124 C3123 1.376 . S
C3124 C3125 1.388 . S
C3125 H3112 0.930 . S
C3125 C3124 1.388 . S
C3125 C3126 1.390 . S
C3126 C3125 1.390 . S
C3126 C3127 1.394 . S
C3126 C3132 1.465 . S
C3127 C3122 1.399 . S
C3127 C3126 1.394 . S
C3127 C3128 1.516 . S
C3128 C3127 1.516 . S
C3128 C3129 1.502 . S
C3128 C3130 1.561 . S
C3128 C3131 1.526 . S
C3129 H3113 0.959 . S
C3129 H3114 0.959 . S
C3129 H3115 0.961 . S
C3129 C3128 1.502 . S
C3130 H3116 0.960 . S
C3130 H3117 0.961 . S
C3130 H3118 0.959 . S
C3130 C3128 1.561 . S
C3131 C3128 1.526 . S
C3131 C3132 1.396 . S
C3131 C3136 1.390 . S
C3132 C3126 1.465 . S
C3132 C3131 1.396 . S
C3132 C3133 1.399 . S
C3133 H3119 0.929 . S
C3133 C3132 1.399 . S
C3133 C3134 1.385 . S
C3134 H3120 0.931 . S
C3134 C3133 1.385 . S
C3134 C3135 1.389 . S
C3135 C3134 1.389 . S
C3135 C3136 1.387 . S
C3136 H3121 0.930 . S
C3136 C3131 1.390 . S
C3136 C3135 1.387 . S
H3137 C3149 0.930 . S
H3138 C3151 0.930 . S
H3139 C3152 0.930 . S
H3140 C3156 0.959 . S
H3141 C3156 0.959 . S
H3142 C3156 0.961 . S
H3143 C3157 0.960 . S
H3144 C3157 0.961 . S
H3145 C3157 0.959 . S
H3146 C3160 0.929 . S
H3147 C3161 0.931 . S
H3148 C3163 0.930 . S
C3149 H3137 0.930 . S
C3149 C3150 1.399 . S
C3149 C3154 1.399 . S
C3150 C3149 1.399 . S
C3150 C3151 1.376 . S
C3151 H3138 0.930 . S
C3151 C3150 1.376 . S
C3151 C3152 1.388 . S
C3152 H3139 0.930 . S
C3152 C3151 1.388 . S
C3152 C3153 1.396 . S
C3153 C3152 1.396 . S
C3153 C3154 1.396 . S
C3153 C3159 1.460 1_554 S
C3154 C3149 1.399 . S
C3154 C3153 1.396 . S
C3154 C3155 1.516 1_554 S
C3155 C3154 1.516 1_556 S
C3155 C3156 1.502 1_556 S
C3155 C3157 1.561 . S
C3155 C3158 1.526 . S
C3156 H3140 0.959 . S
C3156 H3141 0.959 . S
C3156 H3142 0.961 . S
C3156 C3155 1.502 1_554 S
C3157 H3143 0.960 . S
C3157 H3144 0.961 . S
C3157 H3145 0.959 . S
C3157 C3155 1.561 . S
C3158 C3155 1.526 . S
C3158 C3159 1.396 . S
C3158 C3163 1.390 . S
C3159 C3153 1.460 1_556 S
C3159 C3158 1.396 . S
C3159 C3160 1.399 . S
C3160 H3146 0.929 . S
C3160 C3159 1.399 . S
C3160 C3161 1.385 . S
C3161 H3147 0.931 . S
C3161 C3160 1.385 . S
C3161 C3162 1.389 . S
C3162 C3161 1.389 . S
C3162 C3163 1.387 . S
C3163 H3148 0.930 . S
C3163 C3158 1.390 . S
C3163 C3162 1.387 . S
H3164 C3176 0.930 . S
H3165 C3178 0.930 . S
H3166 C3179 0.930 . S
H3167 C3183 0.959 . S
H3168 C3183 0.959 . S
H3169 C3183 0.961 . S
H3170 C3184 0.960 . S
H3171 C3184 0.961 . S
H3172 C3184 0.959 . S
H3173 C3187 0.929 . S
H3174 C3188 0.931 . S
H3175 C3190 0.930 . S
C3176 H3164 0.930 . S
C3176 C3177 1.399 . S
C3176 C3181 1.399 . S
C3177 C3176 1.399 . S
C3177 C3178 1.376 . S
C3178 H3165 0.930 . S
C3178 C3177 1.376 . S
C3178 C3179 1.388 . S
C3179 H3166 0.930 . S
C3179 C3178 1.388 . S
C3179 C3180 1.390 . S
C3180 C3179 1.390 . S
C3180 C3181 1.394 . S
C3180 C3186 1.465 . S
C3181 C3176 1.399 . S
C3181 C3180 1.394 . S
C3181 C3182 1.516 . S
C3182 C3181 1.516 . S
C3182 C3183 1.502 . S
C3182 C3184 1.561 . S
C3182 C3185 1.526 . S
C3183 H3167 0.959 . S
C3183 H3168 0.959 . S
C3183 H3169 0.961 . S
C3183 C3182 1.502 . S
C3184 H3170 0.960 . S
C3184 H3171 0.961 . S
C3184 H3172 0.959 . S
C3184 C3182 1.561 . S
C3185 C3182 1.526 . S
C3185 C3186 1.396 . S
C3185 C3190 1.390 . S
C3186 C3180 1.465 . S
C3186 C3185 1.396 . S
C3186 C3187 1.399 . S
C3187 H3173 0.929 . S
C3187 C3186 1.399 . S
C3187 C3188 1.385 . S
C3188 H3174 0.931 . S
C3188 C3187 1.385 . S
C3188 C3189 1.389 . S
C3189 C3188 1.389 . S
C3189 C3190 1.387 . S
C3190 H3175 0.930 . S
C3190 C3185 1.390 . S
C3190 C3189 1.387 . S
H3191 C3203 0.930 . S
H3192 C3205 0.930 . S
H3193 C3206 0.930 . S
H3194 C3210 0.959 . S
H3195 C3210 0.959 . S
H3196 C3210 0.961 . S
H3197 C3211 0.960 . S
H3198 C3211 0.961 . S
H3199 C3211 0.959 . S
H3200 C3214 0.929 . S
H3201 C3215 0.919 1_556 S
H3202 C3217 0.930 . S
C3203 H3191 0.930 . S
C3203 C3204 1.399 1_554 S
C3203 C3208 1.399 . S
C3204 C3203 1.399 1_556 S
C3204 C3205 1.376 . S
C3205 H3192 0.930 . S
C3205 C3204 1.376 . S
C3205 C3206 1.388 . S
C3206 H3193 0.930 . S
C3206 C3205 1.388 . S
C3206 C3207 1.390 1_556 S
C3207 C3206 1.390 1_554 S
C3207 C3208 1.394 . S
C3207 C3213 1.465 . S
C3208 C3203 1.399 . S
C3208 C3207 1.394 . S
C3208 C3209 1.516 . S
C3209 C3208 1.516 . S
C3209 C3210 1.502 . S
C3209 C3211 1.561 . S
C3209 C3212 1.526 . S
C3210 H3194 0.959 . S
C3210 H3195 0.959 . S
C3210 H3196 0.961 . S
C3210 C3209 1.502 . S
C3211 H3197 0.960 . S
C3211 H3198 0.961 . S
C3211 H3199 0.959 . S
C3211 C3209 1.561 . S
C3212 C3209 1.526 . S
C3212 C3213 1.396 . S
C3212 C3217 1.390 . S
C3213 C3207 1.465 . S
C3213 C3212 1.396 . S
C3213 C3214 1.399 1_554 S
C3214 H3200 0.929 . S
C3214 C3213 1.399 1_556 S
C3214 C3215 1.385 1_556 S
C3215 H3201 0.919 1_554 S
C3215 C3214 1.385 1_554 S
C3215 C3216 1.389 . S
C3216 C3215 1.389 . S
C3216 C3217 1.387 . S
C3217 H3202 0.930 . S
C3217 C3212 1.390 . S
C3217 C3216 1.387 . S
H3218 C3230 0.930 . S
H3219 C3232 0.930 . S
H3220 C3233 0.930 . S
H3221 C3237 0.959 . S
H3222 C3237 0.959 . S
H3223 C3237 0.961 . S
H3224 C3238 0.960 . S
H3225 C3238 0.961 . S
H3226 C3238 0.959 . S
H3227 C3241 0.929 . S
H3228 C3242 0.931 . S
H3229 C3244 0.930 . S
C3230 H3218 0.930 . S
C3230 C3231 1.399 . S
C3230 C3235 1.399 . S
C3231 C3230 1.399 . S
C3231 C3232 1.376 . S
C3232 H3219 0.930 . S
C3232 C3231 1.376 . S
C3232 C3233 1.388 . S
C3233 H3220 0.930 . S
C3233 C3232 1.388 . S
C3233 C3234 1.390 . S
C3234 C3233 1.390 . S
C3234 C3235 1.394 . S
C3234 C3240 1.465 . S
C3235 C3230 1.399 . S
C3235 C3234 1.394 . S
C3235 C3236 1.516 . S
C3236 C3235 1.516 . S
C3236 C3237 1.502 . S
C3236 C3238 1.561 . S
C3236 C3239 1.526 . S
C3237 H3221 0.959 . S
C3237 H3222 0.959 . S
C3237 H3223 0.961 . S
C3237 C3236 1.502 . S
C3238 H3224 0.960 . S
C3238 H3225 0.961 . S
C3238 H3226 0.959 . S
C3238 C3236 1.561 . S
C3239 C3236 1.526 . S
C3239 C3240 1.396 . S
C3239 C3244 1.390 . S
C3240 C3234 1.465 . S
C3240 C3239 1.396 . S
C3240 C3241 1.399 . S
C3241 H3227 0.929 . S
C3241 C3240 1.399 . S
C3241 C3242 1.385 . S
C3242 H3228 0.931 . S
C3242 C3241 1.385 . S
C3242 C3243 1.389 . S
C3243 C3242 1.389 . S
C3243 C3244 1.387 . S
C3244 H3229 0.930 . S
C3244 C3239 1.390 . S
C3244 C3243 1.387 . S
H3245 C3257 0.930 . S
H3246 C3259 0.930 . S
H3247 C3260 0.930 . S
H3248 C3264 0.959 . S
H3249 C3264 0.959 . S
H3250 C3264 0.961 . S
H3251 C3265 0.960 . S
H3252 C3265 0.961 . S
H3253 C3265 0.959 . S
H3254 C3268 0.929 . S
H3255 C3269 0.931 . S
H3256 C3271 0.930 . S
C3257 H3245 0.930 . S
C3257 C3258 1.399 . S
C3257 C3262 1.399 . S
C3258 C3257 1.399 . S
C3258 C3259 1.376 . S
C3259 H3246 0.930 . S
C3259 C3258 1.376 . S
C3259 C3260 1.388 . S
C3260 H3247 0.930 . S
C3260 C3259 1.388 . S
C3260 C3261 1.390 . S
C3261 C3260 1.390 . S
C3261 C3262 1.394 . S
C3261 C3267 1.465 . S
C3262 C3257 1.399 . S
C3262 C3261 1.394 . S
C3262 C3263 1.516 . S
C3263 C3262 1.516 . S
C3263 C3264 1.502 . S
C3263 C3265 1.561 . S
C3263 C3266 1.526 . S
C3264 H3248 0.959 . S
C3264 H3249 0.959 . S
C3264 H3250 0.961 . S
C3264 C3263 1.502 . S
C3265 H3251 0.960 . S
C3265 H3252 0.961 . S
C3265 H3253 0.959 . S
C3265 C3263 1.561 . S
C3266 C3263 1.526 . S
C3266 C3267 1.396 . S
C3266 C3271 1.390 . S
C3267 C3261 1.465 . S
C3267 C3266 1.396 . S
C3267 C3268 1.399 . S
C3268 H3254 0.929 . S
C3268 C3267 1.399 . S
C3268 C3269 1.385 . S
C3269 H3255 0.931 . S
C3269 C3268 1.385 . S
C3269 C3270 1.389 . S
C3270 C3269 1.389 . S
C3270 C3271 1.387 . S
C3271 H3256 0.930 . S
C3271 C3266 1.390 . S
C3271 C3270 1.387 . S
C705 C328 1.279 . S
C693 C10 1.288 . S
C720 C23 1.573 . S
C732 C356 1.491 . S
C747 C36 1.302 . S
C759 C374 1.298 . S
C786 C400 1.470 . S
C774 C42 1.629 . S
C801 C18 1.610 . S
C813 C423 1.437 . S
C840 C443 1.252 . S
C828 C31 1.305 . S
C867 C471 1.513 . S
C855 C43 1.578 . S
C882 C5 1.303 . S
C894 C489 1.312 . S
C909 C56 1.541 . S
C921 C330 1.567 1_545 S
C936 C70 1.259 . S
C948 C352 1.285 . S
C975 C376 1.565 . S
C963 C82 1.540 . S
C1002 C397 1.265 . S
C990 C96 1.324 . S
C1017 C57 1.325 . S
C1029 C420 1.314 . S
C1056 C445 1.557 . S
C1044 C69 1.539 . S
C1083 C467 1.250 . S
C1071 C83 1.292 . S
C1110 C491 1.557 . S
C1098 C95 1.543 . S
C1137 C331 1.162 1_556 S
C1125 C94 1.235 . S
C1164 C514 1.354 . S
C1152 C108 1.338 . S
C1179 C122 1.240 . S
C1191 C538 1.121 . S
C1218 C562 1.305 . S
C1206 C140 1.316 . S
C1233 C55 1.240 . S
C1245 C492 1.145 . S
C1272 C377 1.167 1_565 S
C1260 C68 1.264 . S
C1287 C121 1.339 . S
C1299 C583 1.356 . S
C1326 C608 1.310 . S
C1314 C153 1.318 . S
C1341 C161 1.059 . S
C1353 C329 1.021 . S
C1380 C606 0.964 . S
C1368 C174 0.987 . S
C1395 C186 1.023 . S
C1407 C375 1.073 . S
C1422 C200 0.882 . S
C1434 C585 0.953 . S
C1461 C424 0.958 . S
C1449 C172 0.885 . S
C1488 C536 1.061 . S
C1476 C192 1.031 . S
C1515 C468 0.949 . S
C1503 C198 0.946 . S
C1542 C628 0.995 . S
C1530 C159 1.074 . S
C1569 C333 0.952 . S
C1557 C211 0.870 . S
C1584 C225 1.223 . S
C1596 C604 1.258 . S
C1623 C379 0.830 . S
C1611 C239 0.924 . S
C1638 C251 1.253 . S
C1650 C582 1.176 . S
C1665 C218 1.237 . S
C1677 C421 1.198 . S
C1692 C226 0.882 . S
C1704 C540 0.940 . S
C1731 C466 1.182 . S
C1719 C238 1.263 . S
C1746 C252 0.920 . S
C1758 C632 0.810 . S
C1773 C250 1.263 1_556 S
C1785 C332 1.163 . S
C1800 C264 1.135 . S
C1812 C517 1.115 . S
C1827 C276 1.230 . S
C1839 C447 1.252 . S
C1854 C290 1.178 . S
C1866 C561 0.986 . S
C1893 C631 1.175 . S
C1881 C213 1.267 . S
C1920 C378 1.171 . S
C1908 C224 1.278 . S
C1947 C402 1.084 . S
C1935 C283 1.143 . S
C1974 C354 1.136 . S
C1962 C303 1.137 . S
C1989 C29 1.295 . S
C2001 C650 1.300 . S
C2028 C609 1.459 . S
C2016 C49 1.581 . S
C2055 C673 1.315 . S
C2043 C3 1.301 . S
C2070 C16 1.604 . S
C2082 C584 1.471 . S
C2097 C44 1.619 . S
C2109 C515 1.511 1_556 S
C2136 C535 1.302 . S
C2124 C4 1.286 . S
C2163 C563 1.435 . S
C2151 C17 1.602 . S
C2190 C627 1.255 . S
C2178 C30 1.292 . S
C2217 C652 1.569 . S
C2205 C147 1.546 . S
C2232 C107 1.278 . S
C2244 C605 1.283 . S
C2259 C127 1.542 . S
C2271 C675 1.565 . S
C2298 C581 1.294 . S
C2286 C135 1.330 . S
C2325 C512 1.272 . S
C2313 C148 1.298 . S
C2340 C114 1.553 . S
C2352 C537 1.558 . S
C2379 C559 1.227 . S
C2367 C120 1.267 . S
C2394 C134 1.563 . S
C2406 C629 1.553 . S
C2433 C653 1.122 . S
C2421 C133 1.243 . S
C2460 C422 1.333 1_565 S
C2448 C75 1.352 . S
C2487 C446 1.203 . S
C2475 C81 1.237 . S
C2502 C101 1.334 . S
C2514 C470 1.260 . S
C2541 C630 1.158 . S
C2529 C146 1.236 . S
C2556 C109 1.240 . S
C2568 C676 1.123 1_556 S
C2595 C399 1.355 . S
C2583 C88 1.340 . S
C2622 C355 1.297 . S
C2610 C62 1.319 . S
C2637 C187 1.060 . S
C2649 C651 1.018 . S
C2676 C353 0.947 . S
C2664 C199 0.930 . S
C2703 C674 1.018 1_655 S
C2691 C160 1.055 . S
C2718 C173 0.878 . S
C2730 C401 0.938 . S
C2745 C205 0.893 . S
C2757 C516 0.941 . S
C2772 C166 1.067 . S
C2784 C444 0.992 . S
C2799 C179 0.941 . S
C2811 C560 0.965 . S
C2826 C185 1.073 . S
C2838 C490 0.995 . S
C2865 C655 0.809 . S
C2853 C302 0.931 . S
C2880 C270 1.235 . S
C2892 C351 1.235 . S
C2919 C678 0.811 . S
C2907 C278 0.933 . S
C2934 C296 1.249 . S
C2946 C398 1.198 . S
C2961 C309 1.254 . S
C2973 C513 1.178 . S
C3000 C448 0.947 . S
C2988 C263 0.882 . S
C3015 C277 1.262 . S
C3027 C558 1.190 . S
C3054 C494 0.815 . S
C3042 C289 0.929 . S
C3081 C654 1.255 . S
C3069 C291 1.222 . S
C3108 C425 1.022 . S
C3096 C231 1.173 . S
C3123 C237 1.261 . S
C3135 C539 1.225 . S
C3162 C469 1.048 1_556 S
C3150 C257 1.162 . S
C3189 C493 1.192 . S
C3177 C304 1.260 . S
C3204 C265 1.275 1_556 S
C3216 C677 1.168 . S
C3243 C586 1.125 . S
C3231 C244 1.130 . S
C3270 C607 1.137 . S
C3258 C212 1.134 . S
