# Generated by pormake.
# Topology zzz, (3,6)-cn, num edge types: 1
# Building blocks:
#     Node 0, Type 0, BuildingBlock: OLANEW_clean_sbu_2, # of connection points: 3
#     Node 1, Type 0, BuildingBlock: OLANEW_clean_sbu_2, # of connection points: 3
#     Node 2, Type 0, BuildingBlock: OLANEW_clean_sbu_2, # of connection points: 3
#     Node 3, Type 0, BuildingBlock: OLANEW_clean_sbu_2, # of connection points: 3
#     Node 4, Type 0, BuildingBlock: OLANEW_clean_sbu_2, # of connection points: 3
#     Node 5, Type 0, BuildingBlock: OLANEW_clean_sbu_2, # of connection points: 3
#     Node 6, Type 0, BuildingBlock: OLANEW_clean_sbu_2, # of connection points: 3
#     Node 7, Type 0, BuildingBlock: OLANEW_clean_sbu_2, # of connection points: 3
#     Node 8, Type 1, BuildingBlock: BETFAJ_clean_sbu_0, # of connection points: 6
#     Node 9, Type 1, BuildingBlock: BETFAJ_clean_sbu_0, # of connection points: 6
#     Node 10, Type 1, BuildingBlock: BETFAJ_clean_sbu_0, # of connection points: 6
#     Node 11, Type 1, BuildingBlock: BETFAJ_clean_sbu_0, # of connection points: 6
#     Edge 12, Type (0, 1), BuildingBlock: AJUNOK_clean_linker_0, # of connection points: 2
#     Edge 13, Type (0, 1), BuildingBlock: AJUNOK_clean_linker_0, # of connection points: 2
#     Edge 14, Type (0, 1), BuildingBlock: AJUNOK_clean_linker_0, # of connection points: 2
#     Edge 15, Type (0, 1), BuildingBlock: AJUNOK_clean_linker_0, # of connection points: 2
#     Edge 16, Type (0, 1), BuildingBlock: AJUNOK_clean_linker_0, # of connection points: 2
#     Edge 17, Type (0, 1), BuildingBlock: AJUNOK_clean_linker_0, # of connection points: 2
#     Edge 18, Type (0, 1), BuildingBlock: AJUNOK_clean_linker_0, # of connection points: 2
#     Edge 19, Type (0, 1), BuildingBlock: AJUNOK_clean_linker_0, # of connection points: 2
#     Edge 20, Type (0, 1), BuildingBlock: AJUNOK_clean_linker_0, # of connection points: 2
#     Edge 21, Type (0, 1), BuildingBlock: AJUNOK_clean_linker_0, # of connection points: 2
#     Edge 22, Type (0, 1), BuildingBlock: AJUNOK_clean_linker_0, # of connection points: 2
#     Edge 23, Type (0, 1), BuildingBlock: AJUNOK_clean_linker_0, # of connection points: 2
#     Edge 24, Type (0, 1), BuildingBlock: AJUNOK_clean_linker_0, # of connection points: 2
#     Edge 25, Type (0, 1), BuildingBlock: AJUNOK_clean_linker_0, # of connection points: 2
#     Edge 26, Type (0, 1), BuildingBlock: AJUNOK_clean_linker_0, # of connection points: 2
#     Edge 27, Type (0, 1), BuildingBlock: AJUNOK_clean_linker_0, # of connection points: 2
#     Edge 28, Type (0, 1), BuildingBlock: AJUNOK_clean_linker_0, # of connection points: 2
#     Edge 29, Type (0, 1), BuildingBlock: AJUNOK_clean_linker_0, # of connection points: 2
#     Edge 30, Type (0, 1), BuildingBlock: AJUNOK_clean_linker_0, # of connection points: 2
#     Edge 31, Type (0, 1), BuildingBlock: AJUNOK_clean_linker_0, # of connection points: 2
#     Edge 32, Type (0, 1), BuildingBlock: AJUNOK_clean_linker_0, # of connection points: 2
#     Edge 33, Type (0, 1), BuildingBlock: AJUNOK_clean_linker_0, # of connection points: 2
#     Edge 34, Type (0, 1), BuildingBlock: AJUNOK_clean_linker_0, # of connection points: 2
#     Edge 35, Type (0, 1), BuildingBlock: AJUNOK_clean_linker_0, # of connection points: 2
# Relax obj value: 0.307
# Max RMSD: 0.209
# Mean RMSD: 0.174
data_MOF--net-zzz--node1-OLANEW_clean_sbu_2--node2-BETFAJ_clean_sbu_0--edge1-AJUNOK_clean_linker_0
_symmetry_space_group_name_H-M    P1
_symmetry_Int_Tables_number       1
_symmetry_cell_setting            triclinic
loop_
_symmetry_equiv_pos_as_xyz
'x, y, z'
_cell_length_a     43.038282
_cell_length_b     43.041164
_cell_length_c     11.650087
_cell_angle_alpha  89.705483
_cell_angle_beta   89.975404
_cell_angle_gamma 90.024719
loop_
_atom_site_label
_atom_site_type_symbol
_atom_site_fract_x
_atom_site_fract_y
_atom_site_fract_z
_atom_type_partial_charge
O0 O 0.73734 0.49267 0.3106 0.0
Cd1 Cd 0.68524 0.50004 0.38929 0.0
O2 O 0.74913 0.48543 0.49058 0.0
Cd3 Cd 0.77929 0.48247 0.63916 0.0
O4 O 0.78454 0.49947 0.82266 0.0
C5 C 0.80733 0.51568 0.85954 0.0
O6 O 0.78362 0.4992 0.82615 0.0
C7 C 0.75777 0.48741 0.38671 0.0
C8 C 0.63897 0.49712 0.22343 0.0
O9 O 0.65326 0.52262 0.24419 0.0
O10 O 0.64677 0.4729 0.28101 0.0
O11 O 0.04497 0.72058 0.31109 0.0
Cd12 Cd 0.04535 0.66564 0.36591 0.0
O13 O 0.99852 0.72678 0.38673 0.0
Cd14 Cd 0.96271 0.76033 0.43162 0.0
O15 O 0.95367 0.80677 0.49602 0.0
C16 C 0.96716 0.81282 0.59018 0.0
O17 O 0.98261 0.79044 0.64175 0.0
C18 C 0.02215 0.73797 0.33596 0.0
C19 C 0.02951 0.62638 0.18541 0.0
O20 O 0.00886 0.63609 0.25593 0.0
O21 O 0.0576 0.63544 0.20001 0.0
O22 O 0.77015 0.04322 0.36341 0.0
Cd23 Cd 0.8237 0.04192 0.43228 0.0
O24 O 0.76893 0.99352 0.40443 0.0
Cd25 Cd 0.74321 0.95081 0.43763 0.0
O26 O 0.69486 0.94412 0.48239 0.0
C27 C 0.6859 0.96462 0.55287 0.0
O28 O 0.70652 0.98421 0.59365 0.0
C29 C 0.75529 0.01773 0.36637 0.0
C30 C 0.86462 0.03097 0.252 0.0
O31 O 0.85107 0.00845 0.30412 0.0
O32 O 0.85911 0.05868 0.28624 0.0
O33 O 0.5009 0.77469 0.27323 0.0
Cd34 Cd 0.51311 0.82527 0.35543 0.0
O35 O 0.4712 0.7699 0.4231 0.0
Cd36 Cd 0.44831 0.7439 0.55727 0.0
O37 O 0.45868 0.70085 0.64286 0.0
C38 C 0.48449 0.68857 0.61575 0.0
O39 O 0.50275 0.70282 0.54211 0.0
C40 C 0.48296 0.75789 0.33348 0.0
C41 C 0.50824 0.87018 0.1866 0.0
O42 O 0.53324 0.8544 0.19925 0.0
O43 O 0.48573 0.86539 0.25659 0.0
O44 O 0.26567 0.53977 0.1932 0.0
Cd45 Cd 0.32022 0.5318 0.1452 0.0
O46 O 0.26252 0.49344 0.12012 0.0
Cd47 Cd 0.24024 0.45301 0.04517 0.0
O48 O 0.19777 0.44513 0.95167 0.0
C49 C 0.1883 0.47022 0.906 0.0
O50 O 0.20595 0.49506 0.91282 0.0
C51 C 0.24896 0.51677 0.16484 0.0
C52 C 0.35613 0.52088 0.33928 0.0
O53 O 0.35463 0.54798 0.2934 0.0
O54 O 0.34067 0.4988 0.29307 0.0
O55 O 0.9569 0.27083 0.11221 0.0
Cd56 Cd 0.9624 0.32497 0.05182 0.0
O57 O 0.00771 0.27156 0.12556 0.0
Cd58 Cd 0.05008 0.2445 0.14031 0.0
O59 O 0.0584 0.19774 0.0795 0.0
C60 C 0.04432 0.19095 0.98709 0.0
O61 O 0.02853 0.21286 0.93403 0.0
C62 C 0.98216 0.25693 0.13537 0.0
C63 C 0.97334 0.3624 0.24201 0.0
O64 O 0.94592 0.35934 0.20067 0.0
O65 O 0.99568 0.34817 0.19214 0.0
O66 O 0.22118 0.94971 0.1942 0.0
Cd67 Cd 0.16734 0.94449 0.13492 0.0
O68 O 0.22367 0.98445 0.05693 0.0
Cd69 Cd 0.24715 0.02007 0.95711 0.0
O70 O 0.28872 0.03837 0.87809 0.0
C71 C 0.309 0.04906 0.9463 0.0
O72 O 0.30164 0.05189 0.0552 0.0
C73 C 0.23683 0.96961 0.13812 0.0
C74 C 0.12983 0.96114 0.3179 0.0
O75 O 0.13601 0.93256 0.29776 0.0
O76 O 0.14081 0.98184 0.24964 0.0
O77 O 0.57005 0.23289 0.19246 0.0
Cd78 Cd 0.57504 0.17882 0.13471 0.0
O79 O 0.51976 0.22908 0.1631 0.0
Cd80 Cd 0.47495 0.2524 0.15904 0.0
O81 O 0.4603 0.29735 0.09444 0.0
C82 C 0.47211 0.30377 0.9973 0.0
O83 O 0.48785 0.28206 0.94383 0.0
C84 C 0.54321 0.24507 0.1929 0.0
C85 C 0.55162 0.1411 0.3093 0.0
O86 O 0.58018 0.14955 0.30807 0.0
O87 O 0.53421 0.15008 0.22634 0.0
Sm88 Sm 0.01557 0.9915 0.89904 0.0
Sm89 Sm 0.9851 0.01435 0.6766 0.0
C90 C 0.02742 0.96374 0.09735 0.0
C91 C 0.02551 0.93155 0.14141 0.0
C92 C 0.99811 0.91398 0.1306 0.0
C93 C 0.99717 0.88311 0.16823 0.0
C94 C 0.02356 0.86914 0.21724 0.0
C95 C 0.05087 0.88681 0.2286 0.0
C96 C 0.05179 0.91773 0.1912 0.0
C97 C 0.05311 0.99157 0.70911 0.0
C98 C 0.97868 0.94148 0.73226 0.0
C99 C 0.97358 0.04032 0.47412 0.0
C100 C 0.97603 0.07108 0.41729 0.0
C101 C 0.00488 0.08601 0.40273 0.0
C102 C 0.00662 0.11508 0.34874 0.0
C103 C 0.97963 0.12982 0.30792 0.0
C104 C 0.95085 0.11476 0.32181 0.0
C105 C 0.94911 0.08568 0.37564 0.0
C106 C 0.94707 0.013 0.86467 0.0
C107 C 0.02333 0.06369 0.84601 0.0
O108 O 0.0011 0.97775 0.07468 0.0
O109 O 0.04885 0.96918 0.02007 0.0
O110 O 0.0253 0.98292 0.71268 0.0
O111 O 0.06299 -0.00026 0.80996 0.0
O112 O 0.98772 0.9488 0.83712 0.0
O113 O 0.97823 0.96223 0.64848 0.0
O114 O -0.00044 0.02596 0.49894 0.0
O115 O 0.95244 0.03722 0.55426 0.0
O116 O 0.9747 0.02251 0.86321 0.0
O117 O 0.9378 0.00475 0.76305 0.0
O118 O 0.01311 0.05727 0.74128 0.0
O119 O 0.02298 0.04281 0.92886 0.0
H120 H 0.97752 0.92389 0.09154 0.0
H121 H 0.97582 0.87006 0.1583 0.0
H122 H 0.07179 0.87651 0.2637 0.0
H123 H 0.07322 0.93073 0.19924 0.0
H124 H 0.02613 0.07539 0.43354 0.0
H125 H 0.02911 0.12609 0.33912 0.0
H126 H 0.92955 0.12578 0.29355 0.0
H127 H 0.92662 0.07467 0.38572 0.0
Sm128 Sm 0.50948 0.0211 0.8611 0.0
Sm129 Sm 0.48404 0.99597 0.62787 0.0
C130 C 0.53508 0.02684 0.0678 0.0
C131 C 0.56638 0.02457 0.11777 0.0
C132 C 0.59147 0.0161 0.04844 0.0
C133 C 0.62129 0.01366 0.09437 0.0
C134 C 0.62659 0.0192 0.21162 0.0
C135 C 0.60133 0.02787 0.28137 0.0
C136 C 0.5714 0.03053 0.23465 0.0
C137 C 0.50842 0.06326 0.68292 0.0
C138 C 0.55736 0.98789 0.6745 0.0
C139 C 0.45685 0.98569 0.42733 0.0
C140 C 0.4255 0.98683 0.37645 0.0
C141 C 0.40427 0.01044 0.40406 0.0
C142 C 0.37419 0.01004 0.35821 0.0
C143 C 0.3649 0.98617 0.28358 0.0
C144 C 0.38632 0.96274 0.25583 0.0
C145 C 0.41627 0.9631 0.3019 0.0
C146 C 0.48816 0.95382 0.80334 0.0
C147 C 0.43686 0.03147 0.81045 0.0
O148 O 0.52343 0.00085 0.02899 0.0
O149 O 0.5302 0.05032 0.99834 0.0
O150 O 0.5157 0.03508 0.67554 0.0
O151 O 0.50456 0.07105 0.78965 0.0
O152 O 0.55149 0.99522 0.78273 0.0
O153 O 0.53603 0.99013 0.59328 0.0
O154 O 0.46987 0.01214 0.4544 0.0
O155 O 0.46161 0.9639 0.50393 0.0
O156 O 0.47861 0.98136 0.81251 0.0
O157 O 0.49435 0.94708 0.69734 0.0
O158 O 0.44263 0.02366 0.70268 0.0
O159 O 0.45792 0.02853 0.89184 0.0
H160 H 0.58789 0.01152 0.95851 0.0
H161 H 0.6403 0.00786 0.03742 0.0
H162 H 0.60472 0.03236 0.37193 0.0
H163 H 0.55222 0.03715 0.28964 0.0
H164 H 0.41076 0.02891 0.46212 0.0
H165 H 0.35812 0.02833 0.38144 0.0
H166 H 0.37962 0.94355 0.20143 0.0
H167 H 0.43205 0.9444 0.28125 0.0
Sm168 Sm 0.47546 0.50552 0.92003 0.0
Sm169 Sm 0.50513 0.48884 0.68598 0.0
C170 C 0.46372 0.53048 0.12343 0.0
C171 C 0.46451 0.56221 0.17332 0.0
C172 C 0.49175 0.5735 0.2251 0.0
C173 C 0.4937 0.6044 0.26094 0.0
C174 C 0.46856 0.62486 0.24519 0.0
C175 C 0.44045 0.61286 0.20273 0.0
C176 C 0.43847 0.5819 0.1668 0.0
C177 C 0.43562 0.50298 0.73592 0.0
C178 C 0.50275 0.56096 0.75003 0.0
C179 C 0.51464 0.46446 0.4808 0.0
C180 C 0.51992 0.43289 0.43511 0.0
C181 C 0.50123 0.4218 0.34533 0.0
C182 C 0.50483 0.39141 0.30488 0.0
C183 C 0.52718 0.37157 0.35374 0.0
C184 C 0.54622 0.38289 0.44221 0.0
C185 C 0.54254 0.41316 0.48292 0.0
C186 C 0.54616 0.49385 0.8631 0.0
C187 C 0.47781 0.43327 0.86155 0.0
O188 O 0.49051 0.51809 0.09616 0.0
O189 O 0.44214 0.52477 0.04721 0.0
O190 O 0.46234 0.51446 0.73679 0.0
O191 O 0.42788 0.49295 0.83752 0.0
O192 O 0.49806 0.55129 0.85659 0.0
O193 O 0.50276 0.54146 0.66288 0.0
O194 O 0.48688 0.46973 0.52247 0.0
O195 O 0.53688 0.47677 0.54268 0.0
O196 O 0.51979 0.48116 0.86923 0.0
O197 O 0.55261 0.5029 0.75907 0.0
O198 O 0.48692 0.44181 0.75742 0.0
O199 O 0.47384 0.45328 0.9454 0.0
H200 H 0.51194 0.55871 0.23511 0.0
H201 H 0.51523 0.61248 0.29853 0.0
H202 H 0.42048 0.62784 0.19094 0.0
H203 H 0.41684 0.57376 0.13011 0.0
H204 H 0.48362 0.43658 0.30717 0.0
H205 H 0.4899 0.3833 0.23642 0.0
H206 H 0.56401 0.36828 0.48004 0.0
H207 H 0.55722 0.42096 0.55255 0.0
Sm208 Sm 0.98969 0.47239 0.84612 0.0
Sm209 Sm 0.0016 0.50739 0.6165 0.0
C210 C 0.96997 0.4547 0.0518 0.0
C211 C 0.94105 0.45831 0.11952 0.0
C212 C 0.93736 0.48362 0.19429 0.0
C213 C 0.90899 0.48871 0.24959 0.0
C214 C 0.88415 0.46811 0.23346 0.0
C215 C 0.88829 0.44186 0.1644 0.0
C216 C 0.91645 0.43703 0.10752 0.0
C217 C 0.98962 0.43689 0.65146 0.0
C218 C 0.93231 0.50869 0.71188 0.0
C219 C 0.02298 0.51917 0.40716 0.0
C220 C 0.05451 0.51787 0.35669 0.0
C221 C 0.07691 0.49773 0.40309 0.0
C222 C 0.10733 0.49782 0.36171 0.0
C223 C 0.11615 0.51768 0.27118 0.0
C224 C 0.09335 0.53709 0.22156 0.0
C225 C 0.06286 0.53734 0.2647 0.0
C226 C 0.00104 0.54418 0.80711 0.0
C227 C 0.06016 0.47601 0.7682 0.0
O228 O 0.98649 0.47985 0.03418 0.0
O229 O 0.96849 0.43696 0.96101 0.0
O230 O 0.97725 0.46314 0.66227 0.0
O231 O 0.00217 0.42761 0.74714 0.0
O232 O 0.94458 0.49951 0.81031 0.0
O233 O 0.94837 0.50991 0.6153 0.0
O234 O 0.01097 0.49241 0.43784 0.0
O235 O 0.01825 0.54092 0.48338 0.0
O236 O 0.01309 0.51754 0.80091 0.0
O237 O 0.99149 0.55378 0.70692 0.0
O238 O 0.04983 0.48769 0.67014 0.0
O239 O 0.04198 0.47042 0.85643 0.0
H240 H 0.95614 0.49994 0.2078 0.0
H241 H 0.90623 0.509 0.30331 0.0
H242 H 0.86933 0.42569 0.15117 0.0
H243 H 0.91869 0.41696 0.05245 0.0
H244 H 0.07106 0.48199 0.47233 0.0
H245 H 0.12414 0.48267 0.40261 0.0
H246 H 0.09901 0.55208 0.14964 0.0
H247 H 0.04587 0.55282 0.22674 0.0
C248 C 0.08858 0.94857 0.46053 0.0
C249 C 0.11055 0.96981 0.41746 0.0
C250 C 0.06992 0.95604 0.5547 0.0
C251 C 0.07336 0.98455 0.61146 0.0
H252 H 0.08549 0.92612 0.4205 0.0
H253 H 0.05297 0.93917 0.58434 0.0
S254 S 0.12746 0.04812 0.53421 0.0
N255 N 0.13436 0.02082 0.43828 0.0
N256 N 0.09997 0.03416 0.61907 0.0
C257 C 0.09538 0.00587 0.57076 0.0
C258 C 0.11381 0.99868 0.4726 0.0
C259 C 0.55751 0.11736 0.5043 0.0
C260 C 0.53922 0.12206 0.40538 0.0
C261 C 0.54668 0.09937 0.59651 0.0
C262 C 0.51725 0.08549 0.59305 0.0
H263 H 0.5805 0.12744 0.51053 0.0
H264 H 0.56178 0.09561 0.66972 0.0
S265 S 0.4599 0.09059 0.35727 0.0
N266 N 0.48981 0.11126 0.31127 0.0
N267 N 0.46962 0.07778 0.48619 0.0
C268 C 0.4985 0.09019 0.49639 0.0
C269 C 0.50943 0.10846 0.40211 0.0
C270 C 0.40201 0.53413 0.45892 0.0
C271 C 0.37576 0.51537 0.44129 0.0
C272 C 0.42123 0.52962 0.55419 0.0
C273 C 0.41458 0.5066 0.63692 0.0
H274 H 0.40803 0.55225 0.39789 0.0
H275 H 0.44129 0.54461 0.56358 0.0
S276 S 0.34866 0.45132 0.63103 0.0
N277 N 0.34422 0.47259 0.51369 0.0
N278 N 0.38014 0.46472 0.69512 0.0
C279 C 0.38838 0.48775 0.62099 0.0
C280 C 0.36905 0.49194 0.52241 0.0
C281 C 0.95752 0.4051 0.37381 0.0
C282 C 0.9788 0.3816 0.34513 0.0
C283 C 0.96165 0.42329 0.47186 0.0
C284 C 0.98671 0.41802 0.54685 0.0
H285 H 0.93748 0.40954 0.32014 0.0
H286 H 0.94467 0.44118 0.49029 0.0
S287 S 0.04917 0.35967 0.51109 0.0
N288 N 0.02634 0.35454 0.3988 0.0
N289 N 0.03341 0.38816 0.58558 0.0
C290 C 0.00819 0.39469 0.51964 0.0
C291 C 0.00442 0.37662 0.41811 0.0
C292 C 0.9084 0.04772 0.12524 0.0
C293 C 0.88589 0.02531 0.15451 0.0
C294 C 0.92868 0.04317 0.0328 0.0
C295 C 0.92638 0.01657 0.96399 0.0
H296 H 0.91046 0.06893 0.17418 0.0
H297 H 0.94574 0.06096 0.01333 0.0
S298 S 0.87198 0.95077 0.00377 0.0
N299 N 0.86321 0.97504 0.10831 0.0
N300 N 0.90058 0.96731 0.93127 0.0
C301 C 0.90407 0.99403 0.99155 0.0
C302 C 0.88399 0.99819 0.08773 0.0
C303 C 0.48557 0.91836 0.10126 0.0
C304 C 0.50477 0.89215 0.09015 0.0
C305 C 0.48061 0.93858 0.00841 0.0
C306 C 0.49431 0.93287 0.90101 0.0
H307 H 0.47443 0.92327 0.18237 0.0
H308 H 0.46559 0.95851 0.02037 0.0
S309 S 0.54686 0.86756 0.82808 0.0
N310 N 0.53796 0.86182 0.96438 0.0
N311 N 0.52837 0.89952 0.78941 0.0
C312 C 0.51379 0.90689 0.88917 0.0
C313 C 0.51916 0.88661 0.98402 0.0
C314 C 0.6124 0.51983 0.05201 0.0
C315 C 0.61454 0.49581 0.13414 0.0
C316 C 0.59014 0.51895 0.96449 0.0
C317 C 0.56877 0.49442 0.95757 0.0
H318 H 0.62838 0.53927 0.05398 0.0
H319 H 0.58953 0.53772 0.90219 0.0
S320 S 0.56459 0.42554 0.14879 0.0
N321 N 0.59346 0.44639 0.20106 0.0
N322 N 0.5511 0.44532 0.03779 0.0
C323 C 0.57026 0.47043 0.03936 0.0
C324 C 0.59332 0.47096 0.1273 0.0
C325 C 0.04233 0.60151 0.99771 0.0
C326 C 0.02133 0.60545 0.08931 0.0
C327 C 0.03531 0.58193 0.90555 0.0
C328 C 0.00733 0.56528 0.90269 0.0
H329 H 0.06429 0.61381 0.9965 0.0
H330 H 0.05191 0.57974 0.83615 0.0
S331 S 0.94491 0.56616 0.1211 0.0
N332 N 0.97134 0.59044 0.17091 0.0
N333 N 0.95882 0.55303 0.99841 0.0
C334 C 0.98627 0.56857 0.99339 0.0
C335 C 0.99311 0.58883 0.08664 0.0
C336 C 0.99867 0.21562 0.27284 0.0
C337 C 0.98205 0.22416 0.17382 0.0
C338 C 0.99821 0.18497 0.31418 0.0
C339 C 0.98128 0.16164 0.2575 0.0
H340 H 0.01158 0.23294 0.32025 0.0
H341 H 0.0106 0.17971 0.39283 0.0
S342 S 0.93729 0.17137 0.98582 0.0
N343 N 0.95011 0.20664 0.01518 0.0
N344 N 0.94991 0.14872 0.09077 0.0
C345 C 0.96548 0.1697 0.15582 0.0
C346 C 0.96566 0.20105 0.11461 0.0
C347 C 0.27675 0.98208 0.28538 0.0
C348 C 0.26941 0.97584 0.17028 0.0
C349 C 0.3076 0.98656 0.32022 0.0
C350 C 0.33233 0.98433 0.24157 0.0
H351 H 0.25847 0.98334 0.34919 0.0
H352 H 0.3122 0.99076 0.41024 0.0
S353 S 0.32533 0.96766 0.93039 0.0
N354 N 0.28913 0.96735 0.9777 0.0
N355 N 0.34724 0.97569 0.0428 0.0
C356 C 0.32522 0.9783 0.12581 0.0
C357 C 0.29373 0.97409 0.09022 0.0
C358 C 0.5385 0.30217 0.15626 0.0
C359 C 0.53906 0.27706 0.23374 0.0
C360 C 0.53413 0.33272 0.19524 0.0
C361 C 0.53064 0.33906 0.31312 0.0
H362 H 0.54154 0.29816 0.06525 0.0
H363 H 0.534 0.35152 0.13304 0.0
S364 S 0.5291 0.28072 0.54881 0.0
N365 N 0.53495 0.26006 0.43173 0.0
N366 N 0.52671 0.31725 0.50553 0.0
C367 C 0.5309 0.3139 0.39074 0.0
C368 C 0.53517 0.28294 0.3509 0.0
C369 C 0.19798 0.48985 0.20055 0.0
C370 C 0.21467 0.51755 0.18267 0.0
C371 C 0.16598 0.49013 0.22336 0.0
C372 C 0.14928 0.51817 0.23231 0.0
H373 H 0.2098 0.46772 0.20149 0.0
H374 H 0.15436 0.46808 0.23682 0.0
S375 S 0.18205 0.59737 0.19406 0.0
N376 N 0.21187 0.57396 0.17315 0.0
N377 N 0.15211 0.57455 0.22177 0.0
C378 C 0.16559 0.5461 0.21361 0.0
C379 C 0.19817 0.54578 0.18844 0.0
C380 C 0.01122 0.78175 0.20225 0.0
C381 C 0.02309 0.77127 0.30756 0.0
C382 C 0.01107 0.81349 0.17456 0.0
C383 C 0.02296 0.83579 0.25106 0.0
H384 H 0.00195 0.76531 0.14101 0.0
H385 H 0.00186 0.82054 0.09205 0.0
S386 S 0.05453 0.81987 0.54177 0.0
N387 N 0.04564 0.7852 0.49103 0.0
N388 N 0.04524 0.845 0.43977 0.0
C389 C 0.03438 0.82546 0.3578 0.0
C390 C 0.03445 0.79313 0.38589 0.0
C391 C 0.70219 0.04141 0.3596 0.0
C392 C 0.72223 0.01681 0.33083 0.0
C393 C 0.67095 0.04146 0.32467 0.0
C394 C 0.65866 0.01703 0.25881 0.0
H395 H 0.71075 0.06084 0.40914 0.0
H396 H 0.65659 0.06125 0.34635 0.0
S397 S 0.70141 0.94714 0.16117 0.0
N398 N 0.72773 0.96787 0.22979 0.0
N399 N 0.6687 0.96696 0.17063 0.0
C400 C 0.67833 0.99202 0.23159 0.0
C401 C 0.71019 0.99218 0.26575 0.0
C402 C 0.45213 0.708 0.34158 0.0
C403 C 0.47889 0.72431 0.30624 0.0
C404 C 0.44897 0.67591 0.32258 0.0
C405 C 0.47227 0.65888 0.26589 0.0
H406 H 0.4333 0.72008 0.38358 0.0
H407 H 0.42822 0.66432 0.35335 0.0
S408 S 0.5451 0.69123 0.14269 0.0
N409 N 0.52819 0.72118 0.20464 0.0
N410 N 0.5216 0.66148 0.16442 0.0
C411 C 0.49849 0.67519 0.22554 0.0
C412 C 0.50187 0.70772 0.2461 0.0
C413 C 0.80907 0.46048 0.40183 0.0
C414 C 0.79081 0.48448 0.35482 0.0
C415 C 0.83966 0.45558 0.36405 0.0
C416 C 0.85311 0.4751 0.28064 0.0
H417 H 0.79926 0.44468 0.46483 0.0
H418 H 0.85274 0.43622 0.39896 0.0
S419 S 0.81615 0.543 0.14005 0.0
N420 N 0.78893 0.52891 0.22567 0.0
N421 N 0.84674 0.5203 0.15742 0.0
C422 C 0.83558 0.49995 0.23696 0.0
C423 C 0.80431 0.50449 0.27335 0.0
C424 C 0.0262 0.15164 0.84467 0.0
C425 C 0.04262 0.15845 0.9461 0.0
C426 C 0.02136 0.12094 0.80958 0.0
C427 C 0.03254 0.09583 0.8751 0.0
H428 H 0.01619 0.17013 0.79321 0.0
H429 H 0.00764 0.1169 0.73313 0.0
S430 S 0.07964 0.10095 0.14154 0.0
N431 N 0.07205 0.1374 0.10708 0.0
N432 N 0.06298 0.07977 0.04122 0.0
C433 C 0.05021 0.10229 0.97389 0.0
C434 C 0.05525 0.13355 0.00938 0.0
C435 C 0.3497 0.04279 0.79539 0.0
C436 C 0.34186 0.05078 0.90883 0.0
C437 C 0.38062 0.03805 0.76292 0.0
C438 C 0.40498 0.04114 0.84253 0.0
H439 H 0.33176 0.03863 0.73213 0.0
H440 H 0.3852 0.03056 0.67592 0.0
S441 S 0.39728 0.06668 0.14552 0.0
N442 N 0.36127 0.06518 0.09739 0.0
N443 N 0.41942 0.05647 0.03644 0.0
C444 C 0.39766 0.05138 0.95406 0.0
C445 C 0.36611 0.0562 0.98711 0.0
C446 C 0.45146 0.35806 0.00032 0.0
C447 C 0.47217 0.33614 0.95397 0.0
C448 C 0.45293 0.38944 0.96814 0.0
C449 C 0.47497 0.39992 0.88784 0.0
H450 H 0.4343 0.35105 0.06337 0.0
H451 H 0.43687 0.40566 0.00708 0.0
S452 S 0.53633 0.35282 0.74926 0.0
N453 N 0.51657 0.3277 0.82806 0.0
N454 N 0.51899 0.38659 0.7674 0.0
C455 C 0.49573 0.37836 0.84052 0.0
C456 C 0.49441 0.34647 0.8736 0.0
C457 C 0.14074 0.44548 0.82413 0.0
C458 C 0.15654 0.47246 0.85939 0.0
C459 C 0.10959 0.44679 0.78929 0.0
C460 C 0.09358 0.47512 0.78814 0.0
H461 H 0.15231 0.42313 0.82564 0.0
H462 H 0.09776 0.42551 0.76591 0.0
S463 S 0.12337 0.55195 0.87731 0.0
N464 N 0.15316 0.52818 0.89381 0.0
N465 N 0.09479 0.53036 0.827 0.0
C466 C 0.10903 0.50222 0.82145 0.0
C467 C 0.14057 0.50099 0.85729 0.0
C468 C 0.95194 0.86897 0.57709 0.0
C469 C 0.96814 0.84508 0.6346 0.0
C470 C 0.95465 0.90005 0.61125 0.0
C471 C 0.9734 0.9084 0.70487 0.0
H472 H 0.93757 0.86378 0.50334 0.0
H473 H 0.94232 0.91773 0.56289 0.0
S474 S 0.02159 0.85511 0.88214 0.0
N475 N 0.00398 0.83221 0.78952 0.0
N476 N 0.00903 0.89046 0.85306 0.0
C477 C 0.98933 0.88475 0.76439 0.0
C478 C 0.98671 0.85315 0.72943 0.0
C479 C 0.6451 0.9855 0.68167 0.0
C480 C 0.65284 0.96811 0.5841 0.0
C481 C 0.61418 0.99124 0.71049 0.0
C482 C 0.58964 0.97993 0.64303 0.0
H483 H 0.66309 0.99515 0.73593 0.0
H484 H 0.60964 0.00559 0.78433 0.0
S485 S 0.59733 0.93332 0.37756 0.0
N486 N 0.63348 0.93961 0.41895 0.0
N487 N 0.57506 0.95044 0.47382 0.0
C488 C 0.59694 0.96236 0.54523 0.0
C489 C 0.6286 0.95634 0.51589 0.0
C490 C 0.50948 0.63701 0.58827 0.0
C491 C 0.49245 0.65738 0.65805 0.0
C492 C 0.51405 0.60602 0.62117 0.0
C493 C 0.50225 0.59462 0.72586 0.0
H494 H 0.51807 0.64462 0.5053 0.0
H495 H 0.52611 0.59068 0.56267 0.0
S496 S 0.45815 0.63987 0.94229 0.0
N497 N 0.46532 0.66493 0.83821 0.0
N498 N 0.47416 0.60687 0.9018 0.0
C499 C 0.48654 0.61535 0.79894 0.0
C500 C 0.48152 0.6467 0.76441 0.0
C501 C 0.84688 0.49389 0.72119 0.0
C502 C 0.83678 0.51773 0.79499 0.0
C503 C 0.87765 0.49313 0.6811 0.0
C504 C 0.8991 0.51599 0.71421 0.0
H505 H 0.83193 0.4744 0.70194 0.0
H506 H 0.88538 0.47311 0.63278 0.0
S507 S 0.88325 0.58489 0.89358 0.0
N508 N 0.84978 0.56613 0.88926 0.0
N509 N 0.90764 0.56436 0.81501 0.0
C510 C 0.88868 0.54095 0.78053 0.0
C511 C 0.85748 0.54183 0.82086 0.0
loop_
_geom_bond_atom_site_label_1
_geom_bond_atom_site_label_2
_geom_bond_distance
_geom_bond_site_symmetry_2
_ccdc_geom_bond_type
O0 Cd1 2.300 . S
O0 C7 1.275 . S
Cd1 O0 2.300 . S
Cd1 O9 2.381 . S
Cd1 O10 2.378 . S
O2 Cd3 2.385 . S
O2 C7 1.255 . S
Cd3 O2 2.385 . S
Cd3 O4 2.317 . S
O4 Cd3 2.317 . S
O4 C5 1.232 . S
C5 O4 1.232 . S
C5 O6 1.218 . S
O6 C5 1.218 . S
C7 O0 1.275 . S
C7 O2 1.255 . S
C8 O9 1.258 . S
C8 O10 1.256 . S
O9 Cd1 2.381 . S
O9 C8 1.258 . S
O10 Cd1 2.378 . S
O10 C8 1.256 . S
O11 Cd12 2.300 1_655 S
O11 C18 1.275 1_655 S
Cd12 O11 2.300 1_455 S
Cd12 O20 2.381 1_455 S
Cd12 O21 2.378 . S
O13 Cd14 2.385 . S
O13 C18 1.255 . S
Cd14 O13 2.385 . S
Cd14 O15 2.317 . S
O15 Cd14 2.317 . S
O15 C16 1.232 . S
C16 O15 1.232 . S
C16 O17 1.218 . S
O17 C16 1.218 . S
C18 O11 1.275 1_455 S
C18 O13 1.255 . S
C19 O20 1.258 1_455 S
C19 O21 1.256 . S
O20 Cd12 2.381 1_655 S
O20 C19 1.258 1_655 S
O21 Cd12 2.378 . S
O21 C19 1.256 . S
O22 Cd23 2.300 1_565 S
O22 C29 1.275 1_565 S
Cd23 O22 2.300 1_545 S
Cd23 O31 2.381 1_545 S
Cd23 O32 2.378 . S
O24 Cd25 2.385 . S
O24 C29 1.255 . S
Cd25 O24 2.385 . S
Cd25 O26 2.317 . S
O26 Cd25 2.317 . S
O26 C27 1.232 . S
C27 O26 1.232 . S
C27 O28 1.218 . S
O28 C27 1.218 . S
C29 O22 1.275 1_545 S
C29 O24 1.255 . S
C30 O31 1.258 1_545 S
C30 O32 1.256 . S
O31 Cd23 2.381 1_565 S
O31 C30 1.258 1_565 S
O32 Cd23 2.378 . S
O32 C30 1.256 . S
O33 Cd34 2.300 . S
O33 C40 1.275 . S
Cd34 O33 2.300 . S
Cd34 O42 2.381 . S
Cd34 O43 2.378 . S
O35 Cd36 2.385 . S
O35 C40 1.255 . S
Cd36 O35 2.385 . S
Cd36 O37 2.317 . S
O37 Cd36 2.317 . S
O37 C38 1.232 . S
C38 O37 1.232 . S
C38 O39 1.218 . S
O39 C38 1.218 . S
C40 O33 1.275 . S
C40 O35 1.255 . S
C41 O42 1.258 . S
C41 O43 1.256 . S
O42 Cd34 2.381 . S
O42 C41 1.258 . S
O43 Cd34 2.378 . S
O43 C41 1.256 . S
O44 Cd45 2.300 . S
O44 C51 1.275 . S
Cd45 O44 2.300 . S
Cd45 O53 2.381 . S
Cd45 O54 2.378 . S
O46 Cd47 2.385 1_554 S
O46 C51 1.255 . S
Cd47 O46 2.385 1_556 S
Cd47 O48 2.317 . S
O48 Cd47 2.317 . S
O48 C49 1.232 . S
C49 O48 1.232 . S
C49 O50 1.218 . S
O50 C49 1.218 . S
C51 O44 1.275 . S
C51 O46 1.255 . S
C52 O53 1.258 . S
C52 O54 1.256 . S
O53 Cd45 2.381 . S
O53 C52 1.258 . S
O54 Cd45 2.378 . S
O54 C52 1.256 . S
O55 Cd56 2.300 1_655 S
O55 C62 1.275 1_655 S
Cd56 O55 2.300 1_455 S
Cd56 O64 2.381 1_455 S
Cd56 O65 2.378 . S
O57 Cd58 2.385 1_554 S
O57 C62 1.255 . S
Cd58 O57 2.385 1_556 S
Cd58 O59 2.317 . S
O59 Cd58 2.317 . S
O59 C60 1.232 . S
C60 O59 1.232 . S
C60 O61 1.218 . S
O61 C60 1.218 . S
C62 O55 1.275 1_455 S
C62 O57 1.255 . S
C63 O64 1.258 1_455 S
C63 O65 1.256 . S
O64 Cd56 2.381 1_655 S
O64 C63 1.258 1_655 S
O65 Cd56 2.378 . S
O65 C63 1.256 . S
O66 Cd67 2.300 1_565 S
O66 C73 1.275 1_565 S
Cd67 O66 2.300 1_545 S
Cd67 O75 2.381 1_545 S
Cd67 O76 2.378 . S
O68 Cd69 2.385 1_554 S
O68 C73 1.255 . S
Cd69 O68 2.385 1_556 S
Cd69 O70 2.317 . S
O70 Cd69 2.317 . S
O70 C71 1.232 . S
C71 O70 1.232 . S
C71 O72 1.218 . S
O72 C71 1.218 . S
C73 O66 1.275 1_545 S
C73 O68 1.255 . S
C74 O75 1.258 1_545 S
C74 O76 1.256 . S
O75 Cd67 2.381 1_565 S
O75 C74 1.258 1_565 S
O76 Cd67 2.378 . S
O76 C74 1.256 . S
O77 Cd78 2.300 . S
O77 C84 1.275 . S
Cd78 O77 2.300 . S
Cd78 O86 2.381 . S
Cd78 O87 2.378 . S
O79 Cd80 2.385 1_554 S
O79 C84 1.255 . S
Cd80 O79 2.385 1_556 S
Cd80 O81 2.317 . S
O81 Cd80 2.317 . S
O81 C82 1.232 . S
C82 O81 1.232 . S
C82 O83 1.218 . S
O83 C82 1.218 . S
C84 O77 1.275 . S
C84 O79 1.255 . S
C85 O86 1.258 . S
C85 O87 1.256 . S
O86 Cd78 2.381 . S
O86 C85 1.258 . S
O87 Cd78 2.378 . S
O87 C85 1.256 . S
Sm88 C90 2.846 1_556 S
Sm88 O108 2.543 1_556 S
Sm88 O109 2.450 . S
Sm88 O110 2.681 1_565 S
Sm88 O111 2.464 . S
Sm88 O112 2.396 . S
Sm88 O116 2.386 1_455 S
Sm88 O119 2.408 1_565 S
Sm89 C99 2.846 . S
Sm89 O110 2.386 1_655 S
Sm89 O113 2.408 1_545 S
Sm89 O114 2.543 . S
Sm89 O115 2.450 . S
Sm89 O116 2.681 1_545 S
Sm89 O117 2.464 . S
Sm89 O118 2.396 . S
C90 Sm88 2.846 1_554 S
C90 C91 1.506 . S
C90 O108 1.261 . S
C90 O109 1.242 1_554 S
C91 C90 1.506 . S
C91 C92 1.358 . S
C91 C96 1.382 . S
C92 C91 1.358 . S
C92 C93 1.385 . S
C92 H120 0.930 1_455 S
C93 C92 1.385 . S
C93 C94 1.395 . S
C93 H121 0.929 1_455 S
C94 C93 1.395 . S
C94 C95 1.335 . S
C95 C94 1.335 . S
C95 C96 1.398 . S
C95 H122 0.930 . S
C96 C91 1.382 . S
C96 C95 1.398 . S
C96 H123 0.929 . S
C97 O110 1.271 1_565 S
C97 O111 1.251 . S
C98 O112 1.252 1_655 S
C98 O113 1.272 . S
C99 Sm89 2.846 . S
C99 C100 1.506 . S
C99 O114 1.261 . S
C99 O115 1.242 . S
C100 C99 1.506 . S
C100 C101 1.358 . S
C100 C105 1.382 . S
C101 C100 1.358 . S
C101 C102 1.385 . S
C101 H124 0.930 1_655 S
C102 C101 1.385 . S
C102 C103 1.395 . S
C102 H125 0.929 1_655 S
C103 C102 1.395 . S
C103 C104 1.335 . S
C104 C103 1.335 . S
C104 C105 1.398 . S
C104 H126 0.930 . S
C105 C100 1.382 . S
C105 C104 1.398 . S
C105 H127 0.929 . S
C106 O116 1.271 1_545 S
C106 O117 1.251 . S
C107 O118 1.252 1_455 S
C107 O119 1.272 . S
O108 Sm88 2.543 1_554 S
O108 C90 1.261 . S
O109 Sm88 2.450 . S
O109 C90 1.242 1_556 S
O110 Sm88 2.681 1_545 S
O110 Sm89 2.386 1_455 S
O110 C97 1.271 1_545 S
O111 Sm88 2.464 . S
O111 C97 1.251 . S
O112 Sm88 2.396 . S
O112 C98 1.252 1_455 S
O113 Sm89 2.408 1_565 S
O113 C98 1.272 . S
O114 Sm89 2.543 . S
O114 C99 1.261 . S
O115 Sm89 2.450 . S
O115 C99 1.242 . S
O116 Sm88 2.386 1_655 S
O116 Sm89 2.681 1_565 S
O116 C106 1.271 1_565 S
O117 Sm89 2.464 . S
O117 C106 1.251 . S
O118 Sm89 2.396 . S
O118 C107 1.252 1_655 S
O119 Sm88 2.408 1_545 S
O119 C107 1.272 . S
H120 C92 0.930 1_655 S
H121 C93 0.929 1_655 S
H122 C95 0.930 . S
H123 C96 0.929 . S
H124 C101 0.930 1_455 S
H125 C102 0.929 1_455 S
H126 C104 0.930 . S
H127 C105 0.929 . S
Sm128 C130 2.846 1_556 S
Sm128 O148 2.543 1_556 S
Sm128 O149 2.450 . S
Sm128 O150 2.681 . S
Sm128 O151 2.464 . S
Sm128 O152 2.396 . S
Sm128 O156 2.386 1_545 S
Sm128 O159 2.408 . S
Sm129 C139 2.846 . S
Sm129 O150 2.386 1_565 S
Sm129 O153 2.408 . S
Sm129 O154 2.543 . S
Sm129 O155 2.450 . S
Sm129 O156 2.681 . S
Sm129 O157 2.464 . S
Sm129 O158 2.396 . S
C130 Sm128 2.846 1_554 S
C130 C131 1.506 . S
C130 O148 1.261 . S
C130 O149 1.242 1_554 S
C131 C130 1.506 . S
C131 C132 1.358 . S
C131 C136 1.382 . S
C132 C131 1.358 . S
C132 C133 1.385 . S
C132 H160 0.930 1_545 S
C133 C132 1.385 . S
C133 C134 1.395 . S
C133 H161 0.929 1_545 S
C134 C133 1.395 . S
C134 C135 1.335 . S
C135 C134 1.335 . S
C135 C136 1.398 . S
C135 H162 0.930 . S
C136 C131 1.382 . S
C136 C135 1.398 . S
C136 H163 0.929 . S
C137 O150 1.271 . S
C137 O151 1.251 . S
C138 O152 1.252 1_565 S
C138 O153 1.272 . S
C139 Sm129 2.846 . S
C139 C140 1.506 . S
C139 O154 1.261 . S
C139 O155 1.242 . S
C140 C139 1.506 . S
C140 C141 1.358 . S
C140 C145 1.382 . S
C141 C140 1.358 . S
C141 C142 1.385 . S
C141 H164 0.930 1_565 S
C142 C141 1.385 . S
C142 C143 1.395 . S
C142 H165 0.929 1_565 S
C143 C142 1.395 . S
C143 C144 1.335 . S
C144 C143 1.335 . S
C144 C145 1.398 . S
C144 H166 0.930 . S
C145 C140 1.382 . S
C145 C144 1.398 . S
C145 H167 0.929 . S
C146 O156 1.271 . S
C146 O157 1.251 . S
C147 O158 1.252 1_545 S
C147 O159 1.272 . S
O148 Sm128 2.543 1_554 S
O148 C130 1.261 . S
O149 Sm128 2.450 . S
O149 C130 1.242 1_556 S
O150 Sm128 2.681 . S
O150 Sm129 2.386 1_545 S
O150 C137 1.271 . S
O151 Sm128 2.464 . S
O151 C137 1.251 . S
O152 Sm128 2.396 . S
O152 C138 1.252 1_545 S
O153 Sm129 2.408 . S
O153 C138 1.272 . S
O154 Sm129 2.543 . S
O154 C139 1.261 . S
O155 Sm129 2.450 . S
O155 C139 1.242 . S
O156 Sm128 2.386 1_565 S
O156 Sm129 2.681 . S
O156 C146 1.271 . S
O157 Sm129 2.464 . S
O157 C146 1.251 . S
O158 Sm129 2.396 . S
O158 C147 1.252 1_565 S
O159 Sm128 2.408 . S
O159 C147 1.272 . S
H160 C132 0.930 1_565 S
H161 C133 0.929 1_565 S
H162 C135 0.930 . S
H163 C136 0.929 . S
H164 C141 0.930 1_545 S
H165 C142 0.929 1_545 S
H166 C144 0.930 . S
H167 C145 0.929 . S
Sm168 C170 2.846 1_556 S
Sm168 O188 2.543 1_556 S
Sm168 O189 2.450 . S
Sm168 O190 2.681 . S
Sm168 O191 2.464 . S
Sm168 O192 2.396 . S
Sm168 O196 2.386 . S
Sm168 O199 2.408 . S
Sm169 C179 2.846 . S
Sm169 O190 2.386 . S
Sm169 O193 2.408 . S
Sm169 O194 2.543 . S
Sm169 O195 2.450 . S
Sm169 O196 2.681 . S
Sm169 O197 2.464 . S
Sm169 O198 2.396 . S
C170 Sm168 2.846 1_554 S
C170 C171 1.506 . S
C170 O188 1.261 . S
C170 O189 1.242 1_554 S
C171 C170 1.506 . S
C171 C172 1.358 . S
C171 C176 1.382 . S
C172 C171 1.358 . S
C172 C173 1.385 . S
C172 H200 0.930 . S
C173 C172 1.385 . S
C173 C174 1.395 . S
C173 H201 0.929 . S
C174 C173 1.395 . S
C174 C175 1.335 . S
C175 C174 1.335 . S
C175 C176 1.398 . S
C175 H202 0.930 . S
C176 C171 1.382 . S
C176 C175 1.398 . S
C176 H203 0.929 . S
C177 O190 1.271 . S
C177 O191 1.251 . S
C178 O192 1.252 . S
C178 O193 1.272 . S
C179 Sm169 2.846 . S
C179 C180 1.506 . S
C179 O194 1.261 . S
C179 O195 1.242 . S
C180 C179 1.506 . S
C180 C181 1.358 . S
C180 C185 1.382 . S
C181 C180 1.358 . S
C181 C182 1.385 . S
C181 H204 0.930 . S
C182 C181 1.385 . S
C182 C183 1.395 . S
C182 H205 0.929 . S
C183 C182 1.395 . S
C183 C184 1.335 . S
C184 C183 1.335 . S
C184 C185 1.398 . S
C184 H206 0.930 . S
C185 C180 1.382 . S
C185 C184 1.398 . S
C185 H207 0.929 . S
C186 O196 1.271 . S
C186 O197 1.251 . S
C187 O198 1.252 . S
C187 O199 1.272 . S
O188 Sm168 2.543 1_554 S
O188 C170 1.261 . S
O189 Sm168 2.450 . S
O189 C170 1.242 1_556 S
O190 Sm168 2.681 . S
O190 Sm169 2.386 . S
O190 C177 1.271 . S
O191 Sm168 2.464 . S
O191 C177 1.251 . S
O192 Sm168 2.396 . S
O192 C178 1.252 . S
O193 Sm169 2.408 . S
O193 C178 1.272 . S
O194 Sm169 2.543 . S
O194 C179 1.261 . S
O195 Sm169 2.450 . S
O195 C179 1.242 . S
O196 Sm168 2.386 . S
O196 Sm169 2.681 . S
O196 C186 1.271 . S
O197 Sm169 2.464 . S
O197 C186 1.251 . S
O198 Sm169 2.396 . S
O198 C187 1.252 . S
O199 Sm168 2.408 . S
O199 C187 1.272 . S
H200 C172 0.930 . S
H201 C173 0.929 . S
H202 C175 0.930 . S
H203 C176 0.929 . S
H204 C181 0.930 . S
H205 C182 0.929 . S
H206 C184 0.930 . S
H207 C185 0.929 . S
Sm208 C210 2.846 1_556 S
Sm208 O228 2.543 1_556 S
Sm208 O229 2.450 . S
Sm208 O230 2.681 1_655 S
Sm208 O231 2.464 . S
Sm208 O232 2.396 . S
Sm208 O236 2.386 . S
Sm208 O239 2.408 1_655 S
Sm209 C219 2.846 . S
Sm209 O230 2.386 . S
Sm209 O233 2.408 1_455 S
Sm209 O234 2.543 . S
Sm209 O235 2.450 . S
Sm209 O236 2.681 1_455 S
Sm209 O237 2.464 . S
Sm209 O238 2.396 . S
C210 Sm208 2.846 1_554 S
C210 C211 1.506 . S
C210 O228 1.261 . S
C210 O229 1.242 1_554 S
C211 C210 1.506 . S
C211 C212 1.358 . S
C211 C216 1.382 . S
C212 C211 1.358 . S
C212 C213 1.385 . S
C212 H240 0.930 . S
C213 C212 1.385 . S
C213 C214 1.395 . S
C213 H241 0.929 . S
C214 C213 1.395 . S
C214 C215 1.335 . S
C215 C214 1.335 . S
C215 C216 1.398 . S
C215 H242 0.930 . S
C216 C211 1.382 . S
C216 C215 1.398 . S
C216 H243 0.929 . S
C217 O230 1.264 1_655 S
C217 O231 1.264 . S
C218 O232 1.252 . S
C218 O233 1.272 . S
C219 Sm209 2.846 . S
C219 C220 1.506 . S
C219 O234 1.261 . S
C219 O235 1.242 . S
C220 C219 1.506 . S
C220 C221 1.358 . S
C220 C225 1.382 . S
C221 C220 1.358 . S
C221 C222 1.385 . S
C221 H244 0.930 . S
C222 C221 1.385 . S
C222 C223 1.395 . S
C222 H245 0.929 . S
C223 C222 1.395 . S
C223 C224 1.335 . S
C224 C223 1.335 . S
C224 C225 1.398 . S
C224 H246 0.930 . S
C225 C220 1.382 . S
C225 C224 1.398 . S
C225 H247 0.929 . S
C226 O236 1.261 1_455 S
C226 O237 1.268 . S
C227 O238 1.252 . S
C227 O239 1.272 . S
O228 Sm208 2.543 1_554 S
O228 C210 1.261 . S
O229 Sm208 2.450 . S
O229 C210 1.242 1_556 S
O230 Sm208 2.681 1_455 S
O230 Sm209 2.386 . S
O230 C217 1.264 1_455 S
O231 Sm208 2.464 . S
O231 C217 1.264 . S
O232 Sm208 2.396 . S
O232 C218 1.252 . S
O233 Sm209 2.408 1_655 S
O233 C218 1.272 . S
O234 Sm209 2.543 . S
O234 C219 1.261 . S
O235 Sm209 2.450 . S
O235 C219 1.242 . S
O236 Sm208 2.386 . S
O236 Sm209 2.681 1_655 S
O236 C226 1.261 1_655 S
O237 Sm209 2.464 . S
O237 C226 1.268 . S
O238 Sm209 2.396 . S
O238 C227 1.252 . S
O239 Sm208 2.408 1_455 S
O239 C227 1.272 . S
H240 C212 0.930 . S
H241 C213 0.929 . S
H242 C215 0.930 . S
H243 C216 0.929 . S
H244 C221 0.930 . S
H245 C222 0.929 . S
H246 C224 0.930 . S
H247 C225 0.929 . S
C248 C249 1.346 1_565 S
C248 C250 1.419 . S
C248 H252 0.930 . S
C249 C248 1.346 1_545 S
C249 C258 1.453 . S
C250 C248 1.419 . S
C250 C251 1.363 1_565 S
C250 H253 0.929 . S
C251 C250 1.363 1_545 S
C251 C257 1.428 . S
H252 C248 0.930 . S
H253 C250 0.929 . S
S254 N255 1.613 . S
S254 N256 1.610 . S
N255 S254 1.613 . S
N255 C258 1.350 . S
N256 S254 1.610 . S
N256 C257 1.351 . S
C257 C251 1.428 . S
C257 N256 1.351 . S
C257 C258 1.434 . S
C258 C249 1.453 . S
C258 N255 1.350 . S
C258 C257 1.434 . S
C259 C260 1.369 . S
C259 C261 1.419 . S
C259 H263 0.930 . S
C260 C259 1.369 . S
C260 C269 1.429 . S
C261 C259 1.419 . S
C261 C262 1.363 . S
C261 H264 0.929 . S
C262 C261 1.363 . S
C262 C268 1.428 . S
H263 C259 0.930 . S
H264 C261 0.929 . S
S265 N266 1.613 . S
S265 N267 1.610 . S
N266 S265 1.613 . S
N266 C269 1.350 . S
N267 S265 1.610 . S
N267 C268 1.351 . S
C268 C262 1.428 . S
C268 N267 1.351 . S
C268 C269 1.434 . S
C269 C260 1.429 . S
C269 N266 1.350 . S
C269 C268 1.434 . S
C270 C271 1.369 . S
C270 C272 1.419 . S
C270 H274 0.930 . S
C271 C270 1.369 . S
C271 C280 1.429 . S
C272 C270 1.419 . S
C272 C273 1.363 . S
C272 H275 0.929 . S
C273 C272 1.363 . S
C273 C279 1.428 . S
H274 C270 0.930 . S
H275 C272 0.929 . S
S276 N277 1.613 . S
S276 N278 1.610 . S
N277 S276 1.613 . S
N277 C280 1.350 . S
N278 S276 1.610 . S
N278 C279 1.351 . S
C279 C273 1.428 . S
C279 N278 1.351 . S
C279 C280 1.434 . S
C280 C271 1.429 . S
C280 N277 1.350 . S
C280 C279 1.434 . S
C281 C282 1.355 1_655 S
C281 C283 1.419 . S
C281 H285 0.930 . S
C282 C281 1.355 1_455 S
C282 C291 1.444 . S
C283 C281 1.419 . S
C283 C284 1.363 1_655 S
C283 H286 0.929 . S
C284 C283 1.363 1_455 S
C284 C290 1.428 . S
H285 C281 0.930 . S
H286 C283 0.929 . S
S287 N288 1.613 . S
S287 N289 1.610 . S
N288 S287 1.613 . S
N288 C291 1.350 . S
N289 S287 1.610 . S
N289 C290 1.351 . S
C290 C284 1.428 . S
C290 N289 1.351 . S
C290 C291 1.434 . S
C291 C282 1.444 . S
C291 N288 1.350 . S
C291 C290 1.434 . S
C292 C293 1.354 1_545 S
C292 C294 1.419 . S
C292 H296 0.930 . S
C293 C292 1.354 1_565 S
C293 C302 1.444 . S
C294 C292 1.419 . S
C294 C295 1.363 1_545 S
C294 H297 0.929 . S
C295 C294 1.363 1_565 S
C295 C301 1.428 . S
H296 C292 0.930 . S
H297 C294 0.929 . S
S298 N299 1.613 . S
S298 N300 1.610 1_554 S
N299 S298 1.613 . S
N299 C302 1.350 . S
N300 S298 1.610 1_556 S
N300 C301 1.351 1_556 S
C301 C295 1.428 . S
C301 N300 1.351 1_554 S
C301 C302 1.434 . S
C302 C293 1.444 . S
C302 N299 1.350 . S
C302 C301 1.434 . S
C303 C304 1.369 . S
C303 C305 1.419 . S
C303 H307 0.930 . S
C304 C303 1.369 . S
C304 C313 1.429 . S
C305 C303 1.419 . S
C305 C306 1.363 . S
C305 H308 0.929 . S
C306 C305 1.363 . S
C306 C312 1.428 . S
H307 C303 0.930 . S
H308 C305 0.929 . S
S309 N310 1.613 . S
S309 N311 1.610 1_554 S
N310 S309 1.613 . S
N310 C313 1.350 . S
N311 S309 1.610 1_556 S
N311 C312 1.351 1_556 S
C312 C306 1.428 . S
C312 N311 1.351 1_554 S
C312 C313 1.434 . S
C313 C304 1.429 . S
C313 N310 1.350 . S
C313 C312 1.434 . S
C314 C315 1.369 . S
C314 C316 1.419 . S
C314 H318 0.930 . S
C315 C314 1.369 . S
C315 C324 1.429 . S
C316 C314 1.419 . S
C316 C317 1.363 . S
C316 H319 0.929 . S
C317 C316 1.363 . S
C317 C323 1.428 . S
H318 C314 0.930 . S
H319 C316 0.929 . S
S320 N321 1.613 . S
S320 N322 1.610 . S
N321 S320 1.613 . S
N321 C324 1.350 . S
N322 S320 1.610 . S
N322 C323 1.351 . S
C323 C317 1.428 . S
C323 N322 1.351 . S
C323 C324 1.434 . S
C324 C315 1.429 . S
C324 N321 1.350 . S
C324 C323 1.434 . S
C325 C326 1.339 1_455 S
C325 C327 1.419 . S
C325 H329 0.930 . S
C326 C325 1.339 1_655 S
C326 C335 1.460 . S
C327 C325 1.419 . S
C327 C328 1.363 1_455 S
C327 H330 0.929 . S
C328 C327 1.363 1_655 S
C328 C334 1.428 . S
H329 C325 0.930 . S
H330 C327 0.929 . S
S331 N332 1.613 . S
S331 N333 1.610 . S
N332 S331 1.613 . S
N332 C335 1.350 . S
N333 S331 1.610 . S
N333 C334 1.351 . S
C334 C328 1.428 . S
C334 N333 1.351 . S
C334 C335 1.434 . S
C335 C326 1.460 . S
C335 N332 1.350 . S
C335 C334 1.434 . S
C336 C337 1.369 . S
C336 C338 1.419 . S
C336 H340 0.930 . S
C337 C336 1.369 . S
C337 C346 1.429 . S
C338 C336 1.419 . S
C338 C339 1.363 . S
C338 H341 0.929 . S
C339 C338 1.363 . S
C339 C345 1.428 . S
H340 C336 0.930 . S
H341 C338 0.929 . S
S342 N343 1.613 . S
S342 N344 1.610 . S
N343 S342 1.613 . S
N343 C346 1.350 . S
N344 S342 1.610 . S
N344 C345 1.351 . S
C345 C339 1.428 . S
C345 N344 1.351 . S
C345 C346 1.434 . S
C346 C337 1.429 . S
C346 N343 1.350 . S
C346 C345 1.434 . S
C347 C348 1.369 . S
C347 C349 1.419 . S
C347 H351 0.930 . S
C348 C347 1.369 . S
C348 C357 1.429 . S
C349 C347 1.419 . S
C349 C350 1.363 . S
C349 H352 0.929 . S
C350 C349 1.363 . S
C350 C356 1.428 . S
H351 C347 0.930 . S
H352 C349 0.929 . S
S353 N354 1.613 . S
S353 N355 1.610 1_545 S
N354 S353 1.613 . S
N354 C357 1.350 1_545 S
N355 S353 1.610 1_565 S
N355 C356 1.351 . S
C356 C350 1.428 . S
C356 N355 1.351 . S
C356 C357 1.434 . S
C357 C348 1.429 . S
C357 N354 1.350 1_565 S
C357 C356 1.434 . S
C358 C359 1.369 . S
C358 C360 1.419 . S
C358 H362 0.930 . S
C359 C358 1.369 . S
C359 C368 1.429 . S
C360 C358 1.419 . S
C360 C361 1.363 . S
C360 H363 0.929 . S
C361 C360 1.363 . S
C361 C367 1.428 . S
H362 C358 0.930 . S
H363 C360 0.929 . S
S364 N365 1.613 . S
S364 N366 1.610 . S
N365 S364 1.613 . S
N365 C368 1.350 . S
N366 S364 1.610 . S
N366 C367 1.351 . S
C367 C361 1.428 . S
C367 N366 1.351 . S
C367 C368 1.434 . S
C368 C359 1.429 . S
C368 N365 1.350 . S
C368 C367 1.434 . S
C369 C370 1.369 . S
C369 C371 1.419 . S
C369 H373 0.930 . S
C370 C369 1.369 . S
C370 C379 1.429 . S
C371 C369 1.419 . S
C371 C372 1.363 . S
C371 H374 0.929 . S
C372 C371 1.363 . S
C372 C378 1.428 . S
H373 C369 0.930 . S
H374 C371 0.929 . S
S375 N376 1.613 . S
S375 N377 1.610 . S
N376 S375 1.613 . S
N376 C379 1.350 . S
N377 S375 1.610 . S
N377 C378 1.351 . S
C378 C372 1.428 . S
C378 N377 1.351 . S
C378 C379 1.434 . S
C379 C370 1.429 . S
C379 N376 1.350 . S
C379 C378 1.434 . S
C380 C381 1.369 1_655 S
C380 C382 1.419 1_655 S
C380 H384 0.930 . S
C381 C380 1.369 1_455 S
C381 C390 1.429 . S
C382 C380 1.419 1_455 S
C382 C383 1.363 . S
C382 H385 0.929 . S
C383 C382 1.363 . S
C383 C389 1.428 . S
H384 C380 0.930 . S
H385 C382 0.929 . S
S386 N387 1.613 . S
S386 N388 1.610 . S
N387 S386 1.613 . S
N387 C390 1.350 . S
N388 S386 1.610 . S
N388 C389 1.351 . S
C389 C383 1.428 . S
C389 N388 1.351 . S
C389 C390 1.434 . S
C390 C381 1.429 . S
C390 N387 1.350 . S
C390 C389 1.434 . S
C391 C392 1.369 . S
C391 C393 1.419 . S
C391 H395 0.930 . S
C392 C391 1.369 . S
C392 C401 1.429 . S
C393 C391 1.419 . S
C393 C394 1.363 . S
C393 H396 0.929 . S
C394 C393 1.363 . S
C394 C400 1.428 . S
H395 C391 0.930 . S
H396 C393 0.929 . S
S397 N398 1.613 . S
S397 N399 1.610 1_565 S
N398 S397 1.613 . S
N398 C401 1.350 1_565 S
N399 S397 1.610 1_545 S
N399 C400 1.351 . S
C400 C394 1.428 . S
C400 N399 1.351 . S
C400 C401 1.434 . S
C401 C392 1.429 . S
C401 N398 1.350 1_545 S
C401 C400 1.434 . S
C402 C403 1.369 . S
C402 C404 1.419 . S
C402 H406 0.930 . S
C403 C402 1.369 . S
C403 C412 1.429 . S
C404 C402 1.419 . S
C404 C405 1.363 . S
C404 H407 0.929 . S
C405 C404 1.363 . S
C405 C411 1.428 . S
H406 C402 0.930 . S
H407 C404 0.929 . S
S408 N409 1.613 . S
S408 N410 1.610 . S
N409 S408 1.613 . S
N409 C412 1.350 . S
N410 S408 1.610 . S
N410 C411 1.351 . S
C411 C405 1.428 . S
C411 N410 1.351 . S
C411 C412 1.434 . S
C412 C403 1.429 . S
C412 N409 1.350 . S
C412 C411 1.434 . S
C413 C414 1.369 . S
C413 C415 1.419 . S
C413 H417 0.930 . S
C414 C413 1.369 . S
C414 C423 1.429 . S
C415 C413 1.419 . S
C415 C416 1.363 . S
C415 H418 0.929 . S
C416 C415 1.363 . S
C416 C422 1.428 . S
H417 C413 0.930 . S
H418 C415 0.929 . S
S419 N420 1.613 . S
S419 N421 1.610 . S
N420 S419 1.613 . S
N420 C423 1.350 . S
N421 S419 1.610 . S
N421 C422 1.351 . S
C422 C416 1.428 . S
C422 N421 1.351 . S
C422 C423 1.434 . S
C423 C414 1.429 . S
C423 N420 1.350 . S
C423 C422 1.434 . S
C424 C425 1.369 1_655 S
C424 C426 1.419 . S
C424 H428 0.930 . S
C425 C424 1.369 1_455 S
C425 C434 1.429 . S
C426 C424 1.419 . S
C426 C427 1.363 1_655 S
C426 H429 0.929 . S
C427 C426 1.363 1_455 S
C427 C433 1.428 . S
H428 C424 0.930 . S
H429 C426 0.929 . S
S430 N431 1.613 . S
S430 N432 1.610 . S
N431 S430 1.613 . S
N431 C434 1.350 . S
N432 S430 1.610 . S
N432 C433 1.351 . S
C433 C427 1.428 . S
C433 N432 1.351 . S
C433 C434 1.434 . S
C434 C425 1.429 . S
C434 N431 1.350 . S
C434 C433 1.434 . S
C435 C436 1.369 1_565 S
C435 C437 1.419 . S
C435 H439 0.930 . S
C436 C435 1.369 1_545 S
C436 C445 1.429 . S
C437 C435 1.419 . S
C437 C438 1.363 1_565 S
C437 H440 0.929 . S
C438 C437 1.363 1_545 S
C438 C444 1.428 . S
H439 C435 0.930 . S
H440 C437 0.929 . S
S441 N442 1.613 1_554 S
S441 N443 1.614 . S
N442 S441 1.613 1_556 S
N442 C445 1.350 . S
N443 S441 1.614 . S
N443 C444 1.344 1_554 S
C444 C438 1.428 . S
C444 N443 1.344 1_556 S
C444 C445 1.434 . S
C445 C436 1.429 . S
C445 N442 1.350 . S
C445 C444 1.434 . S
C446 C447 1.369 . S
C446 C448 1.419 . S
C446 H450 0.930 . S
C447 C446 1.369 . S
C447 C456 1.429 . S
C448 C446 1.419 . S
C448 C449 1.363 . S
C448 H451 0.929 . S
C449 C448 1.363 . S
C449 C455 1.428 . S
H450 C446 0.930 . S
H451 C448 0.929 . S
S452 N453 1.613 . S
S452 N454 1.610 . S
N453 S452 1.613 . S
N453 C456 1.350 . S
N454 S452 1.610 . S
N454 C455 1.351 . S
C455 C449 1.428 . S
C455 N454 1.351 . S
C455 C456 1.434 . S
C456 C447 1.429 . S
C456 N453 1.350 . S
C456 C455 1.434 . S
C457 C458 1.369 . S
C457 C459 1.419 . S
C457 H461 0.930 . S
C458 C457 1.369 . S
C458 C467 1.429 . S
C459 C457 1.419 . S
C459 C460 1.363 . S
C459 H462 0.929 . S
C460 C459 1.363 . S
C460 C466 1.428 . S
H461 C457 0.930 . S
H462 C459 0.929 . S
S463 N464 1.613 1_554 S
S463 N465 1.610 1_554 S
N464 S463 1.613 1_556 S
N464 C467 1.350 . S
N465 S463 1.610 1_556 S
N465 C466 1.351 . S
C466 C460 1.428 . S
C466 N465 1.351 . S
C466 C467 1.434 . S
C467 C458 1.429 . S
C467 N464 1.350 . S
C467 C466 1.434 . S
C468 C469 1.369 . S
C468 C470 1.419 . S
C468 H472 0.930 . S
C469 C468 1.369 . S
C469 C478 1.429 1_655 S
C470 C468 1.419 . S
C470 C471 1.363 . S
C470 H473 0.929 . S
C471 C470 1.363 . S
C471 C477 1.428 1_655 S
H472 C468 0.930 . S
H473 C470 0.929 . S
S474 N475 1.613 . S
S474 N476 1.610 . S
N475 S474 1.613 . S
N475 C478 1.350 . S
N476 S474 1.610 . S
N476 C477 1.351 . S
C477 C471 1.428 1_455 S
C477 N476 1.351 . S
C477 C478 1.434 . S
C478 C469 1.429 1_455 S
C478 N475 1.350 . S
C478 C477 1.434 . S
C479 C480 1.369 1_545 S
C479 C481 1.419 . S
C479 H483 0.930 . S
C480 C479 1.369 1_565 S
C480 C489 1.429 . S
C481 C479 1.419 . S
C481 C482 1.363 1_545 S
C481 H484 0.929 . S
C482 C481 1.363 1_565 S
C482 C488 1.428 . S
H483 C479 0.930 . S
H484 C481 0.929 . S
S485 N486 1.613 . S
S485 N487 1.610 . S
N486 S485 1.613 . S
N486 C489 1.350 . S
N487 S485 1.610 . S
N487 C488 1.351 . S
C488 C482 1.428 . S
C488 N487 1.351 . S
C488 C489 1.434 . S
C489 C480 1.429 . S
C489 N486 1.350 . S
C489 C488 1.434 . S
C490 C491 1.369 . S
C490 C492 1.419 . S
C490 H494 0.930 . S
C491 C490 1.369 . S
C491 C500 1.429 . S
C492 C490 1.419 . S
C492 C493 1.363 . S
C492 H495 0.929 . S
C493 C492 1.363 . S
C493 C499 1.428 . S
H494 C490 0.930 . S
H495 C492 0.929 . S
S496 N497 1.613 . S
S496 N498 1.610 . S
N497 S496 1.613 . S
N497 C500 1.350 . S
N498 S496 1.610 . S
N498 C499 1.351 . S
C499 C493 1.428 . S
C499 N498 1.351 . S
C499 C500 1.434 . S
C500 C491 1.429 . S
C500 N497 1.350 . S
C500 C499 1.434 . S
C501 C502 1.369 . S
C501 C503 1.419 . S
C501 H505 0.930 . S
C502 C501 1.369 . S
C502 C511 1.429 . S
C503 C501 1.419 . S
C503 C504 1.363 . S
C503 H506 0.929 . S
C504 C503 1.363 . S
C504 C510 1.428 . S
H505 C501 0.930 . S
H506 C503 0.929 . S
S507 N508 1.613 . S
S507 N509 1.610 . S
N508 S507 1.613 . S
N508 C511 1.350 . S
N509 S507 1.610 . S
N509 C510 1.351 . S
C510 C504 1.428 . S
C510 N509 1.351 . S
C510 C511 1.434 . S
C511 C502 1.429 . S
C511 N508 1.350 . S
C511 C510 1.434 . S
C249 C74 1.921 . S
C251 C97 2.117 1_545 S
C262 C137 2.132 . S
C260 C85 1.928 . S
C273 C177 2.137 . S
C271 C52 1.931 . S
C284 C217 2.124 1_455 S
C282 C63 1.925 . S
C295 C106 2.121 1_564 S
C293 C30 1.925 1_565 S
C304 C41 1.939 . S
C306 C146 2.134 1_554 S
C315 C8 1.949 . S
C317 C186 2.135 1_554 S
C326 C19 1.933 1_655 S
C328 C226 2.124 1_654 S
C339 C103 0.878 . S
C337 C62 0.913 1_655 S
C350 C143 0.875 . S
C348 C73 0.916 1_565 S
C361 C183 0.863 . S
C359 C84 0.903 . S
C370 C51 0.899 . S
C372 C223 0.870 . S
C381 C18 0.850 . S
C383 C94 0.883 . S
C394 C134 0.870 . S
C392 C29 0.865 . S
C405 C174 0.861 . S
C403 C40 0.858 . S
C414 C7 0.861 . S
C416 C214 0.860 . S
C425 C60 1.919 . S
C427 C107 2.557 . S
C436 C71 1.886 . S
C438 C147 2.534 . S
C449 C187 2.522 . S
C447 C82 1.864 . S
C460 C227 2.551 . S
C458 C49 1.884 . S
C469 C16 2.045 1_655 S
C471 C98 2.563 . S
C482 C138 2.534 . S
C480 C27 2.017 1_565 S
C493 C178 2.522 . S
C491 C38 2.040 . S
C502 C5 2.069 . S
C504 C218 2.556 . S
