# Generated by pormake.
# Topology gar, (4,6)-cn, num edge types: 1
# Building blocks:
#     Node 0, Type 0, BuildingBlock: QUQFOY_clean_sbu_1, # of connection points: 4
#     Node 1, Type 0, BuildingBlock: QUQFOY_clean_sbu_1, # of connection points: 4
#     Node 2, Type 0, BuildingBlock: QUQFOY_clean_sbu_1, # of connection points: 4
#     Node 3, Type 0, BuildingBlock: QUQFOY_clean_sbu_1, # of connection points: 4
#     Node 4, Type 0, BuildingBlock: QUQFOY_clean_sbu_1, # of connection points: 4
#     Node 5, Type 0, BuildingBlock: QUQFOY_clean_sbu_1, # of connection points: 4
#     Node 6, Type 0, BuildingBlock: QUQFOY_clean_sbu_1, # of connection points: 4
#     Node 7, Type 0, BuildingBlock: QUQFOY_clean_sbu_1, # of connection points: 4
#     Node 8, Type 0, BuildingBlock: QUQFOY_clean_sbu_1, # of connection points: 4
#     Node 9, Type 0, BuildingBlock: QUQFOY_clean_sbu_1, # of connection points: 4
#     Node 10, Type 0, BuildingBlock: QUQFOY_clean_sbu_1, # of connection points: 4
#     Node 11, Type 0, BuildingBlock: QUQFOY_clean_sbu_1, # of connection points: 4
#     Node 12, Type 0, BuildingBlock: QUQFOY_clean_sbu_1, # of connection points: 4
#     Node 13, Type 0, BuildingBlock: QUQFOY_clean_sbu_1, # of connection points: 4
#     Node 14, Type 0, BuildingBlock: QUQFOY_clean_sbu_1, # of connection points: 4
#     Node 15, Type 0, BuildingBlock: QUQFOY_clean_sbu_1, # of connection points: 4
#     Node 16, Type 0, BuildingBlock: QUQFOY_clean_sbu_1, # of connection points: 4
#     Node 17, Type 0, BuildingBlock: QUQFOY_clean_sbu_1, # of connection points: 4
#     Node 18, Type 0, BuildingBlock: QUQFOY_clean_sbu_1, # of connection points: 4
#     Node 19, Type 0, BuildingBlock: QUQFOY_clean_sbu_1, # of connection points: 4
#     Node 20, Type 0, BuildingBlock: QUQFOY_clean_sbu_1, # of connection points: 4
#     Node 21, Type 0, BuildingBlock: QUQFOY_clean_sbu_1, # of connection points: 4
#     Node 22, Type 0, BuildingBlock: QUQFOY_clean_sbu_1, # of connection points: 4
#     Node 23, Type 0, BuildingBlock: QUQFOY_clean_sbu_1, # of connection points: 4
#     Node 24, Type 1, BuildingBlock: INOVEN_clean_sbu_0, # of connection points: 6
#     Node 25, Type 1, BuildingBlock: INOVEN_clean_sbu_0, # of connection points: 6
#     Node 26, Type 1, BuildingBlock: INOVEN_clean_sbu_0, # of connection points: 6
#     Node 27, Type 1, BuildingBlock: INOVEN_clean_sbu_0, # of connection points: 6
#     Node 28, Type 1, BuildingBlock: INOVEN_clean_sbu_0, # of connection points: 6
#     Node 29, Type 1, BuildingBlock: INOVEN_clean_sbu_0, # of connection points: 6
#     Node 30, Type 1, BuildingBlock: INOVEN_clean_sbu_0, # of connection points: 6
#     Node 31, Type 1, BuildingBlock: INOVEN_clean_sbu_0, # of connection points: 6
#     Node 32, Type 1, BuildingBlock: INOVEN_clean_sbu_0, # of connection points: 6
#     Node 33, Type 1, BuildingBlock: INOVEN_clean_sbu_0, # of connection points: 6
#     Node 34, Type 1, BuildingBlock: INOVEN_clean_sbu_0, # of connection points: 6
#     Node 35, Type 1, BuildingBlock: INOVEN_clean_sbu_0, # of connection points: 6
#     Node 36, Type 1, BuildingBlock: INOVEN_clean_sbu_0, # of connection points: 6
#     Node 37, Type 1, BuildingBlock: INOVEN_clean_sbu_0, # of connection points: 6
#     Node 38, Type 1, BuildingBlock: INOVEN_clean_sbu_0, # of connection points: 6
#     Node 39, Type 1, BuildingBlock: INOVEN_clean_sbu_0, # of connection points: 6
#     Edge 40, Type (0, 1), BuildingBlock: TEMPAE_clean_linker_10, # of connection points: 2
#     Edge 41, Type (0, 1), BuildingBlock: TEMPAE_clean_linker_10, # of connection points: 2
#     Edge 42, Type (0, 1), BuildingBlock: TEMPAE_clean_linker_10, # of connection points: 2
#     Edge 43, Type (0, 1), BuildingBlock: TEMPAE_clean_linker_10, # of connection points: 2
#     Edge 44, Type (0, 1), BuildingBlock: TEMPAE_clean_linker_10, # of connection points: 2
#     Edge 45, Type (0, 1), BuildingBlock: TEMPAE_clean_linker_10, # of connection points: 2
#     Edge 46, Type (0, 1), BuildingBlock: TEMPAE_clean_linker_10, # of connection points: 2
#     Edge 47, Type (0, 1), BuildingBlock: TEMPAE_clean_linker_10, # of connection points: 2
#     Edge 48, Type (0, 1), BuildingBlock: TEMPAE_clean_linker_10, # of connection points: 2
#     Edge 49, Type (0, 1), BuildingBlock: TEMPAE_clean_linker_10, # of connection points: 2
#     Edge 50, Type (0, 1), BuildingBlock: TEMPAE_clean_linker_10, # of connection points: 2
#     Edge 51, Type (0, 1), BuildingBlock: TEMPAE_clean_linker_10, # of connection points: 2
#     Edge 52, Type (0, 1), BuildingBlock: TEMPAE_clean_linker_10, # of connection points: 2
#     Edge 53, Type (0, 1), BuildingBlock: TEMPAE_clean_linker_10, # of connection points: 2
#     Edge 54, Type (0, 1), BuildingBlock: TEMPAE_clean_linker_10, # of connection points: 2
#     Edge 55, Type (0, 1), BuildingBlock: TEMPAE_clean_linker_10, # of connection points: 2
#     Edge 56, Type (0, 1), BuildingBlock: TEMPAE_clean_linker_10, # of connection points: 2
#     Edge 57, Type (0, 1), BuildingBlock: TEMPAE_clean_linker_10, # of connection points: 2
#     Edge 58, Type (0, 1), BuildingBlock: TEMPAE_clean_linker_10, # of connection points: 2
#     Edge 59, Type (0, 1), BuildingBlock: TEMPAE_clean_linker_10, # of connection points: 2
#     Edge 60, Type (0, 1), BuildingBlock: TEMPAE_clean_linker_10, # of connection points: 2
#     Edge 61, Type (0, 1), BuildingBlock: TEMPAE_clean_linker_10, # of connection points: 2
#     Edge 62, Type (0, 1), BuildingBlock: TEMPAE_clean_linker_10, # of connection points: 2
#     Edge 63, Type (0, 1), BuildingBlock: TEMPAE_clean_linker_10, # of connection points: 2
#     Edge 64, Type (0, 1), BuildingBlock: TEMPAE_clean_linker_10, # of connection points: 2
#     Edge 65, Type (0, 1), BuildingBlock: TEMPAE_clean_linker_10, # of connection points: 2
#     Edge 66, Type (0, 1), BuildingBlock: TEMPAE_clean_linker_10, # of connection points: 2
#     Edge 67, Type (0, 1), BuildingBlock: TEMPAE_clean_linker_10, # of connection points: 2
#     Edge 68, Type (0, 1), BuildingBlock: TEMPAE_clean_linker_10, # of connection points: 2
#     Edge 69, Type (0, 1), BuildingBlock: TEMPAE_clean_linker_10, # of connection points: 2
#     Edge 70, Type (0, 1), BuildingBlock: TEMPAE_clean_linker_10, # of connection points: 2
#     Edge 71, Type (0, 1), BuildingBlock: TEMPAE_clean_linker_10, # of connection points: 2
#     Edge 72, Type (0, 1), BuildingBlock: TEMPAE_clean_linker_10, # of connection points: 2
#     Edge 73, Type (0, 1), BuildingBlock: TEMPAE_clean_linker_10, # of connection points: 2
#     Edge 74, Type (0, 1), BuildingBlock: TEMPAE_clean_linker_10, # of connection points: 2
#     Edge 75, Type (0, 1), BuildingBlock: TEMPAE_clean_linker_10, # of connection points: 2
#     Edge 76, Type (0, 1), BuildingBlock: TEMPAE_clean_linker_10, # of connection points: 2
#     Edge 77, Type (0, 1), BuildingBlock: TEMPAE_clean_linker_10, # of connection points: 2
#     Edge 78, Type (0, 1), BuildingBlock: TEMPAE_clean_linker_10, # of connection points: 2
#     Edge 79, Type (0, 1), BuildingBlock: TEMPAE_clean_linker_10, # of connection points: 2
#     Edge 80, Type (0, 1), BuildingBlock: TEMPAE_clean_linker_10, # of connection points: 2
#     Edge 81, Type (0, 1), BuildingBlock: TEMPAE_clean_linker_10, # of connection points: 2
#     Edge 82, Type (0, 1), BuildingBlock: TEMPAE_clean_linker_10, # of connection points: 2
#     Edge 83, Type (0, 1), BuildingBlock: TEMPAE_clean_linker_10, # of connection points: 2
#     Edge 84, Type (0, 1), BuildingBlock: TEMPAE_clean_linker_10, # of connection points: 2
#     Edge 85, Type (0, 1), BuildingBlock: TEMPAE_clean_linker_10, # of connection points: 2
#     Edge 86, Type (0, 1), BuildingBlock: TEMPAE_clean_linker_10, # of connection points: 2
#     Edge 87, Type (0, 1), BuildingBlock: TEMPAE_clean_linker_10, # of connection points: 2
#     Edge 88, Type (0, 1), BuildingBlock: TEMPAE_clean_linker_10, # of connection points: 2
#     Edge 89, Type (0, 1), BuildingBlock: TEMPAE_clean_linker_10, # of connection points: 2
#     Edge 90, Type (0, 1), BuildingBlock: TEMPAE_clean_linker_10, # of connection points: 2
#     Edge 91, Type (0, 1), BuildingBlock: TEMPAE_clean_linker_10, # of connection points: 2
#     Edge 92, Type (0, 1), BuildingBlock: TEMPAE_clean_linker_10, # of connection points: 2
#     Edge 93, Type (0, 1), BuildingBlock: TEMPAE_clean_linker_10, # of connection points: 2
#     Edge 94, Type (0, 1), BuildingBlock: TEMPAE_clean_linker_10, # of connection points: 2
#     Edge 95, Type (0, 1), BuildingBlock: TEMPAE_clean_linker_10, # of connection points: 2
#     Edge 96, Type (0, 1), BuildingBlock: TEMPAE_clean_linker_10, # of connection points: 2
#     Edge 97, Type (0, 1), BuildingBlock: TEMPAE_clean_linker_10, # of connection points: 2
#     Edge 98, Type (0, 1), BuildingBlock: TEMPAE_clean_linker_10, # of connection points: 2
#     Edge 99, Type (0, 1), BuildingBlock: TEMPAE_clean_linker_10, # of connection points: 2
#     Edge 100, Type (0, 1), BuildingBlock: TEMPAE_clean_linker_10, # of connection points: 2
#     Edge 101, Type (0, 1), BuildingBlock: TEMPAE_clean_linker_10, # of connection points: 2
#     Edge 102, Type (0, 1), BuildingBlock: TEMPAE_clean_linker_10, # of connection points: 2
#     Edge 103, Type (0, 1), BuildingBlock: TEMPAE_clean_linker_10, # of connection points: 2
#     Edge 104, Type (0, 1), BuildingBlock: TEMPAE_clean_linker_10, # of connection points: 2
#     Edge 105, Type (0, 1), BuildingBlock: TEMPAE_clean_linker_10, # of connection points: 2
#     Edge 106, Type (0, 1), BuildingBlock: TEMPAE_clean_linker_10, # of connection points: 2
#     Edge 107, Type (0, 1), BuildingBlock: TEMPAE_clean_linker_10, # of connection points: 2
#     Edge 108, Type (0, 1), BuildingBlock: TEMPAE_clean_linker_10, # of connection points: 2
#     Edge 109, Type (0, 1), BuildingBlock: TEMPAE_clean_linker_10, # of connection points: 2
#     Edge 110, Type (0, 1), BuildingBlock: TEMPAE_clean_linker_10, # of connection points: 2
#     Edge 111, Type (0, 1), BuildingBlock: TEMPAE_clean_linker_10, # of connection points: 2
#     Edge 112, Type (0, 1), BuildingBlock: TEMPAE_clean_linker_10, # of connection points: 2
#     Edge 113, Type (0, 1), BuildingBlock: TEMPAE_clean_linker_10, # of connection points: 2
#     Edge 114, Type (0, 1), BuildingBlock: TEMPAE_clean_linker_10, # of connection points: 2
#     Edge 115, Type (0, 1), BuildingBlock: TEMPAE_clean_linker_10, # of connection points: 2
#     Edge 116, Type (0, 1), BuildingBlock: TEMPAE_clean_linker_10, # of connection points: 2
#     Edge 117, Type (0, 1), BuildingBlock: TEMPAE_clean_linker_10, # of connection points: 2
#     Edge 118, Type (0, 1), BuildingBlock: TEMPAE_clean_linker_10, # of connection points: 2
#     Edge 119, Type (0, 1), BuildingBlock: TEMPAE_clean_linker_10, # of connection points: 2
#     Edge 120, Type (0, 1), BuildingBlock: TEMPAE_clean_linker_10, # of connection points: 2
#     Edge 121, Type (0, 1), BuildingBlock: TEMPAE_clean_linker_10, # of connection points: 2
#     Edge 122, Type (0, 1), BuildingBlock: TEMPAE_clean_linker_10, # of connection points: 2
#     Edge 123, Type (0, 1), BuildingBlock: TEMPAE_clean_linker_10, # of connection points: 2
#     Edge 124, Type (0, 1), BuildingBlock: TEMPAE_clean_linker_10, # of connection points: 2
#     Edge 125, Type (0, 1), BuildingBlock: TEMPAE_clean_linker_10, # of connection points: 2
#     Edge 126, Type (0, 1), BuildingBlock: TEMPAE_clean_linker_10, # of connection points: 2
#     Edge 127, Type (0, 1), BuildingBlock: TEMPAE_clean_linker_10, # of connection points: 2
#     Edge 128, Type (0, 1), BuildingBlock: TEMPAE_clean_linker_10, # of connection points: 2
#     Edge 129, Type (0, 1), BuildingBlock: TEMPAE_clean_linker_10, # of connection points: 2
#     Edge 130, Type (0, 1), BuildingBlock: TEMPAE_clean_linker_10, # of connection points: 2
#     Edge 131, Type (0, 1), BuildingBlock: TEMPAE_clean_linker_10, # of connection points: 2
#     Edge 132, Type (0, 1), BuildingBlock: TEMPAE_clean_linker_10, # of connection points: 2
#     Edge 133, Type (0, 1), BuildingBlock: TEMPAE_clean_linker_10, # of connection points: 2
#     Edge 134, Type (0, 1), BuildingBlock: TEMPAE_clean_linker_10, # of connection points: 2
#     Edge 135, Type (0, 1), BuildingBlock: TEMPAE_clean_linker_10, # of connection points: 2
# Relax obj value: 0.193
# Max RMSD: 0.317
# Mean RMSD: 0.182
data_MOF--net-gar--node1-QUQFOY_clean_sbu_1--node2-INOVEN_clean_sbu_0--edge1-TEMPAE_clean_linker_10
_symmetry_space_group_name_H-M    P1
_symmetry_Int_Tables_number       1
_symmetry_cell_setting            triclinic
loop_
_symmetry_equiv_pos_as_xyz
'x, y, z'
_cell_length_a     64.472453
_cell_length_b     58.776112
_cell_length_c     59.082052
_cell_angle_alpha  99.412975
_cell_angle_beta   95.669498
_cell_angle_gamma 105.55648
loop_
_atom_site_label
_atom_site_type_symbol
_atom_site_fract_x
_atom_site_fract_y
_atom_site_fract_z
_atom_type_partial_charge
O0 O 0.11683 0.30334 0.40029 0.0
Cd1 Cd 0.12649 0.33021 0.38208 0.0
Cd2 Cd 0.11543 0.35123 0.41877 0.0
O3 O 0.12301 0.32597 0.43516 0.0
O4 O 0.13517 0.31189 0.35579 0.0
O5 O 0.1581 0.34393 0.37911 0.0
C6 C 0.15442 0.32661 0.36136 0.0
C7 C 0.1151 0.38852 0.43788 0.0
C8 C 0.1185 0.30539 0.42211 0.0
C9 C 0.08496 0.33666 0.3746 0.0
O10 O 0.08692 0.33801 0.39631 0.0
O11 O 0.10152 0.33824 0.36446 0.0
O12 O 0.10353 0.36893 0.44264 0.0
O13 O 0.12933 0.38724 0.42419 0.0
O14 O 0.98785 0.70847 0.65682 0.0
Cd15 Cd 0.99408 0.74198 0.67546 0.0
Cd16 Cd 1.00814 0.75147 0.63847 0.0
O17 O 0.98328 0.72124 0.62469 0.0
O18 O 0.9774 0.73863 0.70052 0.0
O19 O 0.97211 0.759 0.67257 0.0
C20 C 0.96684 0.75138 0.69116 0.0
C21 C 0.01801 0.78497 0.62295 0.0
C22 C 0.98422 0.70413 0.63489 0.0
C23 C 0.03979 0.75552 0.67852 0.0
O24 O 0.03511 0.74809 0.65682 0.0
O25 O 0.02532 0.75856 0.69066 0.0
O26 O 1.00733 0.78511 0.64038 0.0
O27 O 0.02061 0.76491 0.61298 0.0
O28 O 0.65136 0.83146 0.88608 0.0
Cd29 Cd 0.62719 0.83289 0.90669 0.0
Cd30 Cd 0.62038 0.85878 0.87445 0.0
O31 O 0.64461 0.85149 0.85902 0.0
O32 O 0.63231 0.81299 0.92955 0.0
O33 O 0.60286 0.80227 0.90306 0.0
C34 C 0.61405 0.79743 0.92004 0.0
C35 C 0.58506 0.84425 0.85768 0.0
C36 C 0.65561 0.83942 0.86778 0.0
C37 C 0.62506 0.88437 0.92084 0.0
O38 O 0.62762 0.88728 0.9005 0.0
O39 O 0.62317 0.86389 0.9262 0.0
O40 O 0.59777 0.86298 0.85229 0.0
O41 O 0.59271 0.83312 0.87211 0.0
O42 O 0.49641 0.1995 0.15209 0.0
Cd43 Cd 0.49833 0.23251 0.17102 0.0
Cd44 Cd 0.51264 0.24226 0.13558 0.0
O45 O 0.49224 0.21008 0.11849 0.0
O46 O 0.47956 0.22811 0.19465 0.0
O47 O 0.47485 0.24735 0.16565 0.0
C48 C 0.46894 0.24009 0.18418 0.0
C49 C 0.52184 0.27658 0.12098 0.0
C50 C 0.49308 0.19393 0.13009 0.0
C51 C 0.54321 0.24752 0.17746 0.0
O52 O 0.53895 0.23956 0.1558 0.0
O53 O 0.52842 0.25173 0.18853 0.0
O54 O 0.52794 0.25815 0.11278 0.0
O55 O 0.50857 0.27477 0.13605 0.0
O56 O 0.08437 0.77568 0.1135 0.0
Cd57 Cd 0.08877 0.80495 0.13911 0.0
Cd58 Cd 0.11119 0.82706 0.10619 0.0
O59 O 0.1016 0.79135 0.08659 0.0
O60 O 0.06936 0.78865 0.15968 0.0
O61 O 0.06305 0.81797 0.14376 0.0
C62 C 0.05667 0.80155 0.15571 0.0
C63 C 0.10186 0.8604 0.09287 0.0
C64 C 0.09084 0.77307 0.09395 0.0
C65 C 0.13759 0.82495 0.15188 0.0
O66 O 0.13772 0.83158 0.1323 0.0
O67 O 0.11956 0.81583 0.15864 0.0
O68 O 0.11842 0.85365 0.08705 0.0
O69 O 0.09044 0.84835 0.10614 0.0
O70 O 0.56437 0.77492 0.4169 0.0
Cd71 Cd 0.54403 0.76901 0.44158 0.0
Cd72 Cd 0.51822 0.78825 0.39958 0.0
O73 O 0.5477 0.78575 0.38721 0.0
O74 O 0.56083 0.75615 0.46531 0.0
O75 O 0.529 0.73467 0.4458 0.0
C76 C 0.54558 0.73601 0.46068 0.0
C77 C 0.48434 0.78653 0.37616 0.0
C78 C 0.56447 0.78155 0.39739 0.0
C79 C 0.53298 0.81693 0.45095 0.0
O80 O 0.52445 0.81356 0.42987 0.0
O81 O 0.5406 0.80142 0.459 0.0
O82 O 0.5021 0.80351 0.37734 0.0
O83 O 0.48591 0.76944 0.38686 0.0
O84 O 0.59885 0.27157 0.62027 0.0
Cd85 Cd 0.60036 0.30113 0.64473 0.0
Cd86 Cd 0.6198 0.32285 0.60988 0.0
O87 O 0.60775 0.28766 0.58995 0.0
O88 O 0.5795 0.28682 0.66558 0.0
O89 O 0.57286 0.31215 0.64423 0.0
C90 C 0.56616 0.2977 0.65802 0.0
C91 C 0.60993 0.35571 0.59595 0.0
C92 C 0.60139 0.26923 0.59908 0.0
C93 C 0.64912 0.32214 0.65528 0.0
O94 O 0.64778 0.326 0.63448 0.0
O95 O 0.63177 0.31533 0.66424 0.0
O96 O 0.62544 0.34775 0.58871 0.0
O97 O 0.60035 0.34555 0.61149 0.0
O98 O 0.03451 0.23494 0.92286 0.0
Cd99 Cd 0.03405 0.26209 0.90289 0.0
Cd100 Cd 0.01653 0.27938 0.94154 0.0
O101 O 0.02382 0.2504 0.95477 0.0
O102 O 0.05327 0.25776 0.87823 0.0
O103 O 0.06365 0.28788 0.90834 0.0
C104 C 0.06824 0.27648 0.88979 0.0
C105 C 0.02924 0.32008 0.96108 0.0
C106 C 0.03079 0.2341 0.94363 0.0
C107 C 0.98809 0.27086 0.89507 0.0
O108 O 0.98892 0.27354 0.91701 0.0
O109 O 1.00455 0.2673 0.88602 0.0
O110 O 0.01304 0.30493 0.96675 0.0
O111 O 0.03944 0.31188 0.94537 0.0
O112 O 0.44303 0.03501 0.27362 0.0
Cd113 Cd 0.43221 0.04143 0.30414 0.0
Cd114 Cd 0.47083 0.04386 0.31306 0.0
O115 O 0.47657 0.05801 0.28485 0.0
O116 O 0.40289 0.04218 0.29267 0.0
O117 O 0.42938 0.07421 0.31235 0.0
C118 C 0.4104 0.06516 0.29981 0.0
C119 C 0.48469 0.05485 0.35015 0.0
C120 C 0.46144 0.04526 0.26878 0.0
C121 C 0.43985 0.99948 0.31268 0.0
O122 O 0.45702 1.00823 0.30465 0.0
O123 O 0.42891 0.01315 0.32075 0.0
O124 O 0.49645 0.04883 0.33499 0.0
O125 O 0.46589 0.05766 0.34367 0.0
O126 O 0.31343 0.19892 0.54177 0.0
Cd127 Cd 0.30947 0.17257 0.51375 0.0
Cd128 Cd 0.29246 0.20842 0.4943 0.0
O129 O 0.30395 0.22853 0.52913 0.0
O130 O 0.32582 0.15327 0.52974 0.0
O131 O 0.33654 0.16875 0.49989 0.0
C132 C 0.34034 0.15781 0.51637 0.0
C133 C 0.30047 0.22344 0.45912 0.0
C134 C 0.31051 0.21954 0.54586 0.0
C135 C 0.26031 0.15981 0.49888 0.0
O136 O 0.26341 0.18036 0.49295 0.0
O137 O 0.27648 0.15258 0.50579 0.0
O138 O 0.28772 0.2309 0.47215 0.0
O139 O 0.30922 0.20795 0.46614 0.0
O140 O 0.16936 1.00554 0.73102 0.0
Cd141 Cd 0.19754 1.0063 0.75514 0.0
Cd142 Cd 0.16107 0.03391 0.78841 0.0
O143 O 0.14648 0.02141 0.75096 0.0
O144 O 0.2196 0.98733 0.74043 0.0
O145 O 0.20142 0.97382 0.7664 0.0
C146 C 0.2153 0.97069 0.75264 0.0
C147 C 0.14264 0.03326 0.82592 0.0
C148 C 0.15209 0.01292 0.73138 0.0
C149 C 0.20778 0.06486 0.77741 0.0
O150 O 0.19028 0.06241 0.78705 0.0
O151 O 0.21283 0.0461 0.767 0.0
O152 O 0.13914 0.04565 0.81049 0.0
O153 O 0.15587 0.02086 0.82042 0.0
O154 O 0.32779 0.93548 0.03256 0.0
Cd155 Cd 0.31991 0.94933 1.00498 0.0
Cd156 Cd 0.32079 0.90817 0.98914 0.0
O157 O 0.30956 0.89784 0.01775 0.0
O158 O 0.31277 0.97774 0.02052 0.0
O159 O 0.28863 0.94616 0.9972 0.0
C160 C 0.29282 0.96623 0.01199 0.0
C161 C 0.31609 0.88639 0.95277 0.0
C162 C 0.32016 0.914 0.03504 0.0
C163 C 0.35929 0.94974 0.99294 0.0
O164 O 0.35214 0.92855 0.99636 0.0
O165 O 0.34615 0.96188 0.98943 0.0
O166 O 0.3253 0.88002 0.97006 0.0
O167 O 0.30666 0.90319 0.95671 0.0
O168 O 0.32945 0.39171 0.08223 0.0
Cd169 Cd 0.33172 0.41286 0.05668 0.0
Cd170 Cd 0.34031 0.37263 0.03079 0.0
O171 O 0.32885 0.35758 0.05948 0.0
O172 O 0.31524 0.43773 0.06408 0.0
O173 O 0.30325 0.40702 0.0346 0.0
C174 C 0.30022 0.42582 0.04692 0.0
C175 C 0.32764 0.35461 0.99104 0.0
C176 C 0.3272 0.36913 0.07926 0.0
C177 C 0.37768 0.41966 0.04289 0.0
O178 O 0.37174 0.39692 0.03535 0.0
O179 O 0.36399 0.42995 0.05092 0.0
O180 O 0.33929 0.34564 1.00404 0.0
O181 O 0.32181 0.37276 1.00085 0.0
O182 O 0.79634 0.14474 0.07214 0.0
Cd183 Cd 0.79584 0.12311 0.04108 0.0
Cd184 Cd 0.79828 0.16225 0.02937 0.0
O185 O 0.81589 0.17653 0.06111 0.0
O186 O 0.81406 0.10169 0.0432 0.0
O187 O 0.82012 0.13218 0.02395 0.0
C188 C 0.82566 0.11451 0.03058 0.0
C189 C 0.79838 0.18054 0.99908 0.0
C190 C 0.80757 0.16669 0.07693 0.0
C191 C 0.75639 0.12431 0.02119 0.0
O192 O 0.76628 0.14636 0.02839 0.0
O193 O 0.76661 0.10874 0.02124 0.0
O194 O 0.79418 0.19029 0.01856 0.0
O195 O 0.80668 0.16277 0.99819 0.0
O196 O 0.19007 0.5541 0.22253 0.0
Cd197 Cd 0.20254 0.55509 0.25524 0.0
Cd198 Cd 0.16354 0.55781 0.25688 0.0
O199 O 0.16087 0.53006 0.23044 0.0
O200 O 0.22775 0.54346 0.2553 0.0
O201 O 0.19533 0.52491 0.265 0.0
C202 C 0.21502 0.52543 0.26186 0.0
C203 C 0.15247 0.56141 0.29101 0.0
C204 C 0.17151 0.5391 0.21557 0.0
C205 C 0.19809 0.59874 0.27171 0.0
O206 O 0.18207 0.59127 0.25549 0.0
O207 O 0.20546 0.58366 0.28021 0.0
O208 O 0.13966 0.56242 0.27306 0.0
O209 O 0.16884 0.55296 0.28818 0.0
O210 O 0.8278 0.89313 0.58386 0.0
Cd211 Cd 0.83112 0.91398 0.55791 0.0
Cd212 Cd 0.84323 0.87574 0.53635 0.0
O213 O 0.83353 0.86023 0.56513 0.0
O214 O 0.81099 0.93485 0.56392 0.0
O215 O 0.80517 0.90694 0.53224 0.0
C216 C 0.79874 0.9232 0.54467 0.0
C217 C 0.8319 0.85727 0.49673 0.0
C218 C 0.82865 0.87159 0.58327 0.0
C219 C 0.87785 0.92487 0.54695 0.0
O220 O 0.87323 0.90206 0.54078 0.0
O221 O 0.86312 0.93414 0.5538 0.0
O222 O 0.84603 0.85123 0.50966 0.0
O223 O 0.82261 0.87232 0.50666 0.0
O224 O 0.95293 0.06724 0.22118 0.0
Cd225 Cd 0.92664 0.06652 0.2443 0.0
Cd226 Cd 0.96672 0.04643 0.27171 0.0
O227 O 0.97875 0.05436 0.23913 0.0
O228 O 0.90307 0.08472 0.23379 0.0
O229 O 0.92606 0.10064 0.26501 0.0
C230 C 0.91007 0.10269 0.2512 0.0
C231 C 0.98704 0.05205 0.31137 0.0
C232 C 0.97127 0.0617 0.2213 0.0
C233 C 0.91771 0.0124 0.25896 0.0
O234 O 0.93809 0.01729 0.26624 0.0
O235 O 0.91032 0.02887 0.25134 0.0
O236 O 0.98784 0.03577 0.29418 0.0
O237 O 0.97633 0.06662 0.30601 0.0
O238 O 0.29713 0.64461 0.56513 0.0
Cd239 Cd 0.2982 0.62434 0.53379 0.0
Cd240 Cd 0.29379 0.66021 0.52024 0.0
O241 O 0.30779 0.67835 0.55235 0.0
O242 O 0.31663 0.60372 0.53718 0.0
O243 O 0.32338 0.63379 0.5176 0.0
C244 C 0.32864 0.61602 0.52452 0.0
C245 C 0.29204 0.67882 0.49013 0.0
C246 C 0.30336 0.66742 0.5688 0.0
C247 C 0.25632 0.61638 0.51286 0.0
O248 O 0.26304 0.63907 0.51781 0.0
O249 O 0.26953 0.60424 0.51497 0.0
O250 O 0.28438 0.68525 0.50858 0.0
O251 O 0.30385 0.66422 0.49009 0.0
O252 O 0.45317 0.56768 0.72471 0.0
Cd253 Cd 0.42588 0.56882 0.74608 0.0
Cd254 Cd 0.46785 0.54911 0.77739 0.0
O255 O 0.47977 0.55703 0.74442 0.0
O256 O 0.40348 0.5876 0.7326 0.0
O257 O 0.42333 0.60304 0.76572 0.0
C258 C 0.40881 0.60544 0.75021 0.0
C259 C 0.48873 0.55264 0.81689 0.0
C260 C 0.47187 0.56282 0.7257 0.0
C261 C 0.41768 0.51542 0.76255 0.0
O262 O 0.43787 0.52124 0.77127 0.0
O263 O 0.41013 0.53105 0.7534 0.0
O264 O 0.48755 0.53573 0.7994 0.0
O265 O 0.47966 0.56874 0.81204 0.0
O266 O 0.6905 0.06226 0.72108 0.0
Cd267 Cd 0.70018 0.05946 0.75396 0.0
Cd268 Cd 0.66234 0.05916 0.75439 0.0
O269 O 0.65882 0.03777 0.72317 0.0
O270 O 0.72695 0.05072 0.75647 0.0
O271 O 0.69388 0.02675 0.75901 0.0
C272 C 0.71463 0.03049 0.75958 0.0
C273 C 0.65062 0.05538 0.78752 0.0
C274 C 0.67212 0.04839 0.71114 0.0
C275 C 0.69445 0.10184 0.77353 0.0
O276 O 0.67873 0.09444 0.75702 0.0
O277 O 0.70191 0.08635 0.78112 0.0
O278 O 0.63804 0.05916 0.77088 0.0
O279 O 0.66746 0.04834 0.78324 0.0
O280 O 0.8133 0.71036 0.05169 0.0
Cd281 Cd 0.80986 0.68161 0.02577 0.0
Cd282 Cd 0.78969 0.71317 1.00079 0.0
O283 O 0.79858 0.73462 0.03491 0.0
O284 O 0.8248 0.66292 0.04414 0.0
O285 O 0.83798 0.67735 0.01484 0.0
C286 C 0.84043 0.66681 0.03202 0.0
C287 C 0.79674 0.72877 0.96569 0.0
C288 C 0.80768 0.72953 0.05292 0.0
C289 C 0.76055 0.66408 0.00737 0.0
O290 O 0.76237 0.68332 0.99926 0.0
O291 O 0.77742 0.65971 0.01686 0.0
O292 O 0.78187 0.73305 0.97743 0.0
O293 O 0.80809 0.71609 0.97398 0.0
O294 O 0.94319 0.53651 0.78371 0.0
Cd295 Cd 0.93028 0.54552 0.81232 0.0
Cd296 Cd 0.96805 0.54702 0.82588 0.0
O297 O 0.97578 0.56074 0.79784 0.0
O298 O 0.9285 0.57871 0.81795 0.0
O299 O 0.90223 0.54681 0.79773 0.0
C300 C 0.9103 0.56988 0.80388 0.0
C301 C 0.98244 0.55977 0.86258 0.0
C302 C 0.96202 0.54778 0.78069 0.0
C303 C 0.93388 0.50483 0.82516 0.0
O304 O 0.9523 0.51138 0.81872 0.0
O305 O 0.92509 0.52083 0.83283 0.0
O306 O 0.99342 0.55145 0.84779 0.0
O307 O 0.9641 0.56345 0.8558 0.0
O308 O 0.82553 0.43031 0.54146 0.0
Cd309 Cd 0.82212 0.44601 0.51389 0.0
Cd310 Cd 0.82664 0.40614 0.49959 0.0
O311 O 0.80968 0.39309 0.52361 0.0
O312 O 0.81465 0.47374 0.53011 0.0
O313 O 0.79205 0.44527 0.50219 0.0
C314 C 0.79531 0.46371 0.51883 0.0
C315 C 0.82499 0.38693 0.46285 0.0
C316 C 0.81767 0.40837 0.54225 0.0
C317 C 0.86416 0.44793 0.5089 0.0
O318 O 0.85711 0.42698 0.51285 0.0
O319 O 0.85099 0.45904 0.50238 0.0
O320 O 0.83309 0.37957 0.48013 0.0
O321 O 0.81593 0.40407 0.46669 0.0
O322 O 0.67526 0.50378 0.23744 0.0
Cd323 Cd 0.70292 0.50482 0.26262 0.0
Cd324 Cd 0.66561 0.53117 0.29452 0.0
O325 O 0.65154 0.51869 0.25684 0.0
O326 O 0.72527 0.48541 0.24927 0.0
O327 O 0.70584 0.47223 0.27447 0.0
C328 C 0.72016 0.46879 0.26142 0.0
C329 C 0.64708 0.53029 0.33191 0.0
C330 C 0.6576 0.51041 0.23745 0.0
C331 C 0.7123 0.56336 0.28482 0.0
O332 O 0.69438 0.56024 0.29371 0.0
O333 O 0.71806 0.5449 0.27481 0.0
O334 O 0.64331 0.5424 0.31633 0.0
O335 O 0.66058 0.5182 0.32658 0.0
Gd336 Gd 0.04462 0.03783 0.01417 0.0
Gd337 Gd 0.0839 0.06252 0.03988 0.0
C338 C 0.0606 0.09622 0.01694 0.0
C339 C 1.00354 0.02503 0.99812 0.0
C340 C 0.98756 0.03868 0.99768 0.0
C341 C 0.96976 0.03105 0.9799 0.0
C342 C 0.98976 0.05911 0.01497 0.0
C343 C 0.95538 0.06263 0.99763 0.0
C344 C 0.97371 0.07106 0.01491 0.0
C345 C 0.95374 0.04292 0.97988 0.0
C346 C 0.07595 0.03638 0.98515 0.0
C347 C 0.06798 1.00466 0.03661 0.0
C348 C 0.12586 0.07431 0.05134 0.0
C349 C 0.14108 0.05945 0.05142 0.0
C350 C 0.1592 0.06586 0.06888 0.0
C351 C 0.13741 0.03851 0.03438 0.0
C352 C 0.17098 0.03206 0.0509 0.0
C353 C 0.1522 0.02495 0.03415 0.0
C354 C 0.17404 0.05228 0.06865 0.0
C355 C 0.05672 0.06279 0.07423 0.0
O356 O 0.04517 0.07567 0.00944 0.0
O357 O 0.07832 0.09671 0.03054 0.0
O358 O 0.01864 0.03023 0.98515 0.0
O359 O 0.01114 0.02263 0.01857 0.0
O360 O 0.06035 0.01791 0.98745 0.0
O361 O 0.0752 0.05454 1.00026 0.0
O362 O 0.08469 0.02393 0.03936 0.0
O363 O 0.0487 1.00554 0.02821 0.0
O364 O 0.1124 0.07175 0.06638 0.0
O365 O 0.11638 0.0752 0.03107 0.0
O366 O 0.07714 0.07455 0.07645 0.0
O367 O 0.05043 0.05254 0.05265 0.0
H368 H 0.96799 0.01554 0.96634 0.0
H369 H 1.00354 0.06542 0.02879 0.0
H370 H 0.9751 0.08609 0.02888 0.0
H371 H 0.93969 0.03626 0.9664 0.0
H372 H 0.16211 0.08168 0.08242 0.0
H373 H 0.12333 0.03283 0.02096 0.0
H374 H 0.14921 1.00919 0.0205 0.0
H375 H 0.18839 0.05822 0.08175 0.0
Gd376 Gd 0.31543 0.79737 0.24612 0.0
Gd377 Gd 0.29684 0.80892 0.28646 0.0
C378 C 0.326 0.85094 0.27019 0.0
C379 C 0.32522 0.79248 0.20494 0.0
C380 C 0.3324 0.81074 0.19117 0.0
C381 C 0.35421 0.81716 0.18747 0.0
C382 C 0.31862 0.82398 0.18437 0.0
C383 C 0.34828 0.8496 0.16985 0.0
C384 C 0.32644 0.8431 0.17359 0.0
C385 C 0.36217 0.83663 0.17707 0.0
C386 C 0.3465 0.79704 0.28117 0.0
C387 C 0.29525 0.75473 0.26606 0.0
C388 C 0.27707 0.80902 0.32224 0.0
C389 C 0.27276 0.79265 0.33828 0.0
C390 C 0.2548 0.79137 0.35004 0.0
C391 C 0.28497 0.77634 0.33984 0.0
C392 C 0.26146 0.75785 0.36522 0.0
C393 C 0.27931 0.75897 0.35328 0.0
C394 C 0.24927 0.77412 0.3637 0.0
C395 C 0.27359 0.81385 0.24777 0.0
O396 O 0.32009 0.8364 0.25002 0.0
O397 O 0.32167 0.84353 0.28936 0.0
O398 O 0.33903 0.79473 0.22334 0.0
O399 O 0.30506 0.78785 0.20895 0.0
O400 O 0.34698 0.79229 0.2593 0.0
O401 O 0.32871 0.80164 0.28484 0.0
O402 O 0.29689 0.77087 0.28483 0.0
O403 O 0.29837 0.7606 0.24622 0.0
O404 O 0.26722 0.79934 0.30115 0.0
O405 O 0.29738 0.82151 0.32316 0.0
O406 O 0.28013 0.82995 0.26665 0.0
O407 O 0.28102 0.79615 0.24955 0.0
H408 H 0.36521 0.8074 0.19306 0.0
H409 H 0.30183 0.81972 0.18741 0.0
H410 H 0.31511 0.85229 0.16759 0.0
H411 H 0.37906 0.84134 0.17441 0.0
H412 H 0.24503 0.8036 0.34854 0.0
H413 H 0.2988 0.77704 0.33069 0.0
H414 H 0.28922 0.7469 0.35494 0.0
H415 H 0.23566 0.77355 0.3732 0.0
Gd416 Gd 0.59242 0.04352 0.52953 0.0
Gd417 Gd 0.54361 0.03898 0.53872 0.0
C418 C 0.55611 0.99047 0.52346 0.0
C419 C 0.63115 0.03807 0.53188 0.0
C420 C 0.64262 0.01903 0.52856 0.0
C421 C 0.65037 0.01311 0.50752 0.0
C422 C 0.64813 1.00858 0.54725 0.0
C423 C 0.67019 0.98852 0.52463 0.0
C424 C 0.6618 0.99361 0.54532 0.0
C425 C 0.66391 0.99791 0.50555 0.0
C426 C 0.56418 0.04362 0.49394 0.0
C427 C 0.57924 0.09231 0.54207 0.0
C428 C 0.50523 0.04431 0.54042 0.0
C429 C 0.49502 0.06415 0.54482 0.0
C430 C 0.48278 0.06564 0.56309 0.0
C431 C 0.49591 0.08057 0.52992 0.0
C432 C 0.4697 0.09703 0.54911 0.0
C433 C 0.48316 0.09648 0.53173 0.0
C434 C 0.47056 0.08212 0.56544 0.0
C435 C 0.57292 0.04089 0.57431 0.0
O436 O 0.57686 1.00354 0.52778 0.0
O437 O 0.53976 1.00014 0.52382 0.0
O438 O 0.62108 0.04244 0.51339 0.0
O439 O 0.62073 0.0396 0.54982 0.0
O440 O 0.58493 0.05405 0.49543 0.0
O441 O 0.5601 0.03133 0.50919 0.0
O442 O 0.55864 0.07886 0.53947 0.0
O443 O 0.59586 0.083 0.54112 0.0
O444 O 0.51693 0.04065 0.55813 0.0
O445 O 0.51354 0.04154 0.52111 0.0
O446 O 0.55285 0.02765 0.57214 0.0
O447 O 0.5758 0.0525 0.5585 0.0
H448 H 0.64671 0.021 0.49284 0.0
H449 H 0.64264 0.01276 0.56376 0.0
H450 H 0.66647 0.98666 0.56031 0.0
H451 H 0.67037 0.9945 0.4895 0.0
H452 H 0.48215 0.05355 0.57519 0.0
H453 H 0.50592 0.08056 0.51635 0.0
H454 H 0.48318 0.10745 0.5187 0.0
H455 H 0.46127 0.08255 0.5797 0.0
Gd456 Gd 0.29234 0.29427 0.76486 0.0
Gd457 Gd 0.33669 0.28148 0.77025 0.0
C458 C 0.31964 0.30092 0.81683 0.0
C459 C 0.2519 0.29173 0.7688 0.0
C460 C 0.23814 0.29423 0.78752 0.0
C461 C 0.22705 0.31187 0.7888 0.0
C462 C 0.23466 0.27836 0.80316 0.0
C463 C 0.20787 0.29651 0.81951 0.0
C464 C 0.21981 0.27954 0.81894 0.0
C465 C 0.21217 0.31301 0.80449 0.0
C466 C 0.32601 0.33638 0.76531 0.0
C467 C 0.31037 0.27632 0.7183 0.0
C468 C 0.37644 0.28062 0.7669 0.0
C469 C 0.39059 0.27864 0.7486 0.0
C470 C 0.39952 0.25916 0.74534 0.0
C471 C 0.39639 0.29647 0.73525 0.0
C472 C 0.42168 0.27684 0.71792 0.0
C473 C 0.41178 0.29559 0.72015 0.0
C474 C 0.41479 0.25819 0.7301 0.0
C475 C 0.30287 0.23982 0.77054 0.0
O476 O 0.30147 0.29969 0.80352 0.0
O477 O 0.33656 0.29613 0.80811 0.0
O478 O 0.26612 0.31121 0.76603 0.0
O479 O 0.2593 0.27296 0.76585 0.0
O480 O 0.30531 0.33424 0.76331 0.0
O481 O 0.32765 0.31523 0.76686 0.0
O482 O 0.32853 0.27788 0.73175 0.0
O483 O 0.29302 0.28011 0.72688 0.0
O484 O 0.36046 0.26151 0.76679 0.0
O485 O 0.37101 0.30057 0.77215 0.0
O486 O 0.32356 0.2422 0.77367 0.0
O487 O 0.30148 0.26085 0.76842 0.0
H488 H 0.22935 0.32439 0.77705 0.0
H489 H 0.24304 0.26465 0.8029 0.0
H490 H 0.2175 0.26684 0.8305 0.0
H491 H 0.20335 0.32626 0.80405 0.0
H492 H 0.39527 0.24506 0.75525 0.0
H493 H 0.38958 0.31152 0.73699 0.0
H494 H 0.41648 0.31004 0.71072 0.0
H495 H 0.42209 0.24353 0.72885 0.0
Gd496 Gd 0.06612 0.07026 0.53578 0.0
Gd497 Gd 0.07179 0.01938 0.51466 0.0
C498 C 0.05087 0.04671 0.47888 0.0
C499 C 0.07093 0.11578 0.54221 0.0
C500 C 0.07073 0.1319 0.52556 0.0
C501 C 0.05608 0.14573 0.52644 0.0
C502 C 0.084 0.1327 0.50799 0.0
C503 C 0.06936 0.16276 0.49398 0.0
C504 C 0.08337 0.14809 0.49239 0.0
C505 C 0.05532 0.16093 0.51076 0.0
C506 C 0.02938 0.03373 0.53719 0.0
C507 C 0.08498 0.04107 0.57207 0.0
C508 C 0.06785 0.97435 0.50684 0.0
C509 C 0.06757 0.95871 0.5237 0.0
C510 C 0.0823 0.94498 0.5238 0.0
C511 C 0.05448 0.9594 0.5413 0.0
C512 C 0.06879 0.93027 0.55695 0.0
C513 C 0.05499 0.94508 0.55775 0.0
C514 C 0.08295 0.93081 0.54043 0.0
C515 C 0.10851 0.05505 0.51191 0.0
O516 O 0.05561 0.06579 0.49629 0.0
O517 O 0.0545 0.0261 0.48192 0.0
O518 O 0.05224 0.09997 0.54197 0.0
O519 O 0.08747 0.10687 0.54412 0.0
O520 O 0.03182 0.05635 0.54515 0.0
O521 O 0.04688 0.0325 0.52985 0.0
O522 O 0.0802 0.02245 0.55418 0.0
O523 O 0.08245 0.06235 0.56912 0.0
O524 O 0.08657 0.9906 0.5085 0.0
O525 O 0.05101 0.9827 0.5039 0.0
O526 O 0.10497 0.03229 0.50395 0.0
O527 O 0.09154 0.05751 0.52008 0.0
H528 H 0.04529 0.1449 0.53942 0.0
H529 H 0.09506 0.12173 0.50648 0.0
H530 H 0.09447 0.14921 0.47971 0.0
H531 H 0.04407 0.1717 0.5121 0.0
H532 H 0.09307 0.94498 0.51083 0.0
H533 H 0.04363 0.97065 0.54218 0.0
H534 H 0.04391 0.94468 0.57044 0.0
H535 H 0.09353 0.91924 0.53956 0.0
Gd536 Gd 0.33466 0.80831 0.75357 0.0
Gd537 Gd 0.29244 0.77179 0.7542 0.0
C538 C 0.33509 0.75083 0.75711 0.0
C539 C 0.37385 0.83629 0.76491 0.0
C540 C 0.39505 0.83254 0.77176 0.0
C541 C 0.40804 0.82709 0.75512 0.0
C542 C 0.4022 0.83382 0.79529 0.0
C543 C 0.43461 0.82359 0.78546 0.0
C544 C 0.42172 0.82935 0.80204 0.0
C545 C 0.42767 0.8226 0.76192 0.0
C546 C 0.31412 0.78283 0.71203 0.0
C547 C 0.29178 0.82878 0.74965 0.0
C548 C 0.25264 0.74574 0.74345 0.0
C549 C 0.23228 0.75198 0.73896 0.0
C550 C 0.21617 0.74637 0.75306 0.0
C551 C 0.22878 0.76363 0.72052 0.0
C552 C 0.19274 0.76224 0.72933 0.0
C553 C 0.20917 0.76868 0.71576 0.0
C554 C 0.19651 0.75151 0.74831 0.0
C555 C 0.3133 0.79618 0.79593 0.0
O556 O 0.3463 0.77443 0.76064 0.0
O557 O 0.31334 0.74493 0.75241 0.0
O558 O 0.3647 0.82781 0.74327 0.0
O559 O 0.36006 0.83243 0.77964 0.0
O560 O 0.32504 0.80547 0.71511 0.0
O561 O 0.3159 0.77516 0.73043 0.0
O562 O 0.28069 0.80552 0.74802 0.0
O563 O 0.31352 0.83478 0.75291 0.0
O564 O 0.26266 0.75183 0.76489 0.0
O565 O 0.26581 0.75015 0.72829 0.0
O566 O 0.30276 0.77335 0.79187 0.0
O567 O 0.3114 0.80482 0.77801 0.0
H568 H 0.403 0.82616 0.73686 0.0
H569 H 0.3927 0.83827 0.80859 0.0
H570 H 0.42692 0.83093 0.82038 0.0
H571 H 0.43737 0.81826 0.7488 0.0
H572 H 0.21864 0.73762 0.76746 0.0
H573 H 0.24103 0.76858 0.70948 0.0
H574 H 0.2067 0.77727 0.70123 0.0
H575 H 0.18395 0.74626 0.75893 0.0
Gd576 Gd 0.56736 0.03498 0.05801 0.0
Gd577 Gd 0.56003 0.044 0.00672 0.0
C578 C 0.51925 0.01813 0.02664 0.0
C579 C 0.56381 0.02326 0.09719 0.0
C580 C 0.54423 0.01246 0.1062 0.0
C581 C 0.54322 0.99244 0.11644 0.0
C582 C 0.52585 0.02065 0.1029 0.0
C583 C 0.50776 0.993 0.12553 0.0
C584 C 0.5075 1.0107 0.11232 0.0
C585 C 0.52487 0.98255 0.126 0.0
C586 C 0.58029 1.00789 0.02493 0.0
C587 C 0.60527 0.06957 0.04158 0.0
C588 C 0.56613 0.04451 0.96525 0.0
C589 C 0.58284 0.0628 0.95763 0.0
C590 C 0.57793 0.08272 0.95067 0.0
C591 C 0.60425 0.06112 0.95836 0.0
C592 C 0.61369 0.0951 0.93951 0.0
C593 C 0.61969 0.07744 0.94967 0.0
C594 C 0.59344 0.09904 0.94194 0.0
C595 C 0.55617 0.08086 0.03817 0.0
O596 O 0.53097 0.02441 0.04759 0.0
O597 O 0.52765 0.02056 0.00746 0.0
O598 O 0.56734 1.00897 0.07954 0.0
O599 O 0.56694 0.04571 0.09461 0.0
O600 O 0.59137 0.01685 0.04543 0.0
O601 O 0.56278 0.01351 0.02273 0.0
O602 O 0.59513 0.06017 0.02023 0.0
O603 O 0.59684 0.06546 0.06044 0.0
O604 O 0.55018 0.05163 0.97345 0.0
O605 O 0.57363 0.03082 0.97736 0.0
O606 O 0.55372 0.08068 0.01609 0.0
O607 O 0.56036 0.06205 0.0412 0.0
H608 H 0.55703 0.98531 0.11811 0.0
H609 H 0.52605 0.03552 0.09417 0.0
H610 H 0.49445 0.01912 0.11214 0.0
H611 H 0.52528 0.96899 0.13631 0.0
H612 H 0.56179 0.08494 0.95069 0.0
H613 H 0.60881 0.04644 0.9644 0.0
H614 H 0.63523 0.07406 0.94784 0.0
H615 H 0.58858 0.11257 0.93405 0.0
Gd616 Gd 0.31955 0.31292 0.27598 0.0
Gd617 Gd 0.29754 0.2601 0.25305 0.0
C618 C 0.26684 0.29079 0.26874 0.0
C619 C 0.32887 0.35856 0.28951 0.0
C620 C 0.31452 0.37386 0.28891 0.0
C621 C 0.31628 0.39191 0.30819 0.0
C622 C 0.29758 0.3689 0.2703 0.0
C623 C 0.28539 0.4014 0.28955 0.0
C624 C 0.28314 0.38271 0.27056 0.0
C625 C 0.30172 0.40557 0.30857 0.0
C626 C 0.3194 0.2816 0.30529 0.0
C627 C 0.34888 0.28306 0.25686 0.0
C628 C 0.28833 0.214 0.2463 0.0
C629 C 0.30325 0.19889 0.2456 0.0
C630 C 0.30436 0.1844 0.22461 0.0
C631 C 0.31764 0.20017 0.26555 0.0
C632 C 0.33361 0.17227 0.24374 0.0
C633 C 0.3325 0.1869 0.26465 0.0
C634 C 0.31947 0.17122 0.22366 0.0
C635 C 0.30219 0.28694 0.21874 0.0
O636 O 0.28385 0.30999 0.27144 0.0
O637 O 0.26777 0.26863 0.26224 0.0
O638 O 0.32465 0.34362 0.30369 0.0
O639 O 0.33254 0.34869 0.26934 0.0
O640 O 0.33593 0.29978 0.30467 0.0
O641 O 0.30391 0.28056 0.28971 0.0
O642 O 0.33321 0.26437 0.25928 0.0
O643 O 0.3467 0.30485 0.25964 0.0
O644 O 0.28765 0.22552 0.22926 0.0
O645 O 0.28866 0.22731 0.26645 0.0
O646 O 0.29303 0.26396 0.21506 0.0
O647 O 0.30763 0.29417 0.24038 0.0
H648 H 0.32885 0.39536 0.32296 0.0
H649 H 0.29556 0.35447 0.25552 0.0
H650 H 0.27074 0.37929 0.25563 0.0
H651 H 0.30346 0.41968 0.32354 0.0
H652 H 0.29367 0.18343 0.20892 0.0
H653 H 0.31748 0.21141 0.28197 0.0
H654 H 0.34277 0.18772 0.28059 0.0
H655 H 0.32006 0.16023 0.20727 0.0
Gd656 Gd 0.56881 0.56373 0.04045 0.0
Gd657 Gd 0.57563 0.51379 0.01851 0.0
C658 C 0.5545 0.54167 0.98296 0.0
C659 C 0.57476 0.60947 0.04716 0.0
C660 C 0.5755 0.62575 0.03045 0.0
C661 C 0.55988 0.63831 0.02918 0.0
C662 C 0.59073 0.62792 0.01483 0.0
C663 C 0.57551 0.65626 0.99812 0.0
C664 C 0.59078 0.64311 0.99889 0.0
C665 C 0.5598 0.65328 0.01314 0.0
C666 C 0.53188 0.5272 0.0405 0.0
C667 C 0.58986 0.53497 0.07614 0.0
C668 C 0.57121 0.46853 0.0096 0.0
C669 C 0.57254 0.45217 0.02555 0.0
C670 C 0.58744 0.43872 0.02342 0.0
C671 C 0.56055 0.45144 0.04415 0.0
C672 C 0.57666 0.42201 0.0568 0.0
C673 C 0.56249 0.43635 0.05958 0.0
C674 C 0.58955 0.4238 0.039 0.0
C675 C 0.61147 0.55052 0.01622 0.0
O676 O 0.55735 0.55965 1.00114 0.0
O677 O 0.55979 0.52167 0.98535 0.0
O678 O 0.55574 0.5941 0.04664 0.0
O679 O 0.59087 0.59996 0.04947 0.0
O680 O 0.53448 0.54981 0.04881 0.0
O681 O 0.54958 0.52563 0.03353 0.0
O682 O 0.58742 0.51745 0.05763 0.0
O683 O 0.58409 0.55492 0.07398 0.0
O684 O 0.58964 0.48467 0.00961 0.0
O685 O 0.55444 0.4772 0.00926 0.0
O686 O 0.60872 0.52798 0.00765 0.0
O687 O 0.59436 0.55188 0.0246 0.0
H688 H 0.54768 0.63653 0.04066 0.0
H689 H 0.60273 0.61807 0.01501 0.0
H690 H 0.60321 0.6451 0.98768 0.0
H691 H 0.54753 0.66275 0.01266 0.0
H692 H 0.59735 0.43969 0.00963 0.0
H693 H 0.54951 0.46227 0.04665 0.0
H694 H 0.55219 0.43512 0.07302 0.0
H695 H 0.60078 0.41309 0.03673 0.0
Gd696 Gd 0.8364 0.30458 0.26525 0.0
Gd697 Gd 0.79404 0.2671 0.26412 0.0
C698 C 0.83693 0.24693 0.26711 0.0
C699 C 0.87594 0.33077 0.2778 0.0
C700 C 0.89629 0.32463 0.28317 0.0
C701 C 0.91228 0.32875 0.26866 0.0
C702 C 0.89993 0.31458 0.30273 0.0
C703 C 0.93599 0.31511 0.29433 0.0
C704 C 0.91964 0.30983 0.30824 0.0
C705 C 0.932 0.32399 0.2742 0.0
C706 C 0.81645 0.27959 0.22338 0.0
C707 C 0.79346 0.32459 0.26087 0.0
C708 C 0.75532 0.23894 0.25068 0.0
C709 C 0.73378 0.24271 0.24664 0.0
C710 C 0.72289 0.24872 0.26517 0.0
C711 C 0.72428 0.2411 0.2238 0.0
C712 C 0.69342 0.25155 0.23798 0.0
C713 C 0.70433 0.24556 0.21951 0.0
C714 C 0.70282 0.25311 0.26084 0.0
C715 C 0.81379 0.29094 0.30644 0.0
O716 O 0.848 0.27054 0.27135 0.0
O717 O 0.81528 0.24083 0.26193 0.0
O718 O 0.86676 0.3247 0.25604 0.0
O719 O 0.86202 0.32655 0.29236 0.0
O720 O 0.82703 0.30236 0.22679 0.0
O721 O 0.81837 0.27178 0.24163 0.0
O722 O 0.78233 0.30115 0.2586 0.0
O723 O 0.81522 0.33086 0.26486 0.0
O724 O 0.76489 0.24361 0.27227 0.0
O725 O 0.76854 0.24667 0.23628 0.0
O726 O 0.80296 0.26818 0.30215 0.0
O727 O 0.81231 0.29977 0.28863 0.0
H728 H 0.90972 0.33616 0.25334 0.0
H729 H 0.88782 0.31091 0.31416 0.0
H730 H 0.92251 0.30324 0.324 0.0
H731 H 0.94447 0.32805 0.26322 0.0
H732 H 0.72985 0.25015 0.28297 0.0
H733 H 0.73232 0.23641 0.20921 0.0
H734 H 0.69722 0.24379 0.20168 0.0
H735 H 0.69469 0.25778 0.27535 0.0
Gd736 Gd 0.06804 0.55397 0.56076 0.0
Gd737 Gd 0.05867 0.56439 0.51351 0.0
C738 C 0.0201 0.53318 0.53163 0.0
C739 C 0.06572 0.54374 0.60091 0.0
C740 C 0.04691 0.53092 0.61015 0.0
C741 C 0.04894 0.5137 0.62331 0.0
C742 C 0.02672 0.53532 0.60549 0.0
C743 C 0.01275 0.51055 0.63238 0.0
C744 C 1.00956 0.52491 0.61639 0.0
C745 C 0.03178 0.50338 0.63437 0.0
C746 C 0.07858 0.52514 0.52692 0.0
C747 C 0.10684 0.5848 0.54372 0.0
C748 C 0.06123 0.57536 0.47356 0.0
C749 C 0.08055 0.58687 0.46426 0.0
C750 C 0.07971 0.604 0.4506 0.0
C751 C 0.10011 0.58128 0.46947 0.0
C752 C 0.11623 0.60568 0.44312 0.0
C753 C 0.11793 0.59079 0.45902 0.0
C754 C 0.09759 0.61348 0.44005 0.0
C755 C 0.04931 0.59308 0.54766 0.0
O756 O 0.03175 0.54223 0.55223 0.0
O757 O 0.02795 0.53608 0.51229 0.0
O758 O 0.07157 0.5304 0.5843 0.0
O759 O 0.06583 0.56506 0.59688 0.0
O760 O 0.08983 0.53313 0.54742 0.0
O761 O 0.06155 0.53175 0.52528 0.0
O762 O 0.09492 0.5762 0.5231 0.0
O763 O 0.09907 0.58179 0.56301 0.0
O764 O 0.05659 0.58918 0.49073 0.0
O765 O 0.05957 0.55355 0.477 0.0
O766 O 0.03684 0.58487 0.52783 0.0
O767 O 0.06618 0.58645 0.54848 0.0
H768 H 0.06421 0.50945 0.62623 0.0
H769 H 0.02456 0.54796 0.59474 0.0
H770 H 0.99491 0.53061 0.61478 0.0
H771 H 0.03443 0.49229 0.6467 0.0
H772 H 0.06488 0.60896 0.44705 0.0
H773 H 0.10124 0.5684 0.48036 0.0
H774 H 0.13203 0.58424 0.46113 0.0
H775 H 0.09594 0.6247 0.42754 0.0
Gd776 Gd 0.78918 0.79685 0.27205 0.0
Gd777 Gd 0.83251 0.78253 0.27469 0.0
C778 C 0.81844 0.80446 0.32246 0.0
C779 C 0.74909 0.79569 0.27636 0.0
C780 C 0.73498 0.79772 0.29477 0.0
C781 C 0.72686 0.81775 0.29885 0.0
C782 C 0.72796 0.77911 0.30701 0.0
C783 C 0.70346 0.79949 0.32518 0.0
C784 C 0.71249 0.78003 0.32203 0.0
C785 C 0.71138 0.81868 0.31387 0.0
C786 C 0.82303 0.83751 0.26941 0.0
C787 C 0.80394 0.77633 0.22406 0.0
C788 C 0.87254 0.78382 0.27116 0.0
C789 C 0.88599 0.78016 0.2527 0.0
C790 C 0.89589 0.76151 0.25177 0.0
C791 C 0.89051 0.79602 0.23716 0.0
C792 C 0.91634 0.77622 0.22212 0.0
C793 C 0.90561 0.79405 0.222 0.0
C794 C 0.91099 0.75959 0.23666 0.0
C795 C 0.79961 0.74136 0.27694 0.0
O796 O 0.80004 0.80452 0.31054 0.0
O797 O 0.83391 0.79747 0.3127 0.0
O798 O 0.76408 0.81515 0.27494 0.0
O799 O 0.75566 0.77638 0.27229 0.0
O800 O 0.80256 0.83632 0.26836 0.0
O801 O 0.82406 0.81632 0.27137 0.0
O802 O 0.82194 0.77532 0.23611 0.0
O803 O 0.7884 0.78333 0.23377 0.0
O804 O 0.858 0.76477 0.27421 0.0
O805 O 0.86564 0.80295 0.27332 0.0
O806 O 0.82026 0.74362 0.27853 0.0
O807 O 0.7974 0.76229 0.2751 0.0
H808 H 0.73188 0.8324 0.28972 0.0
H809 H 0.73393 0.76346 0.30451 0.0
H810 H 0.70722 0.76515 0.33081 0.0
H811 H 0.70486 0.83393 0.31568 0.0
H812 H 0.89267 0.74902 0.26349 0.0
H813 H 0.88309 0.81053 0.23734 0.0
H814 H 0.90977 0.80723 0.21108 0.0
H815 H 0.91929 0.74586 0.23712 0.0
Gd816 Gd 0.83325 0.29469 0.75382 0.0
Gd817 Gd 0.80829 0.30474 0.79334 0.0
C818 C 0.83335 0.34837 0.77484 0.0
C819 C 0.85138 0.29442 0.7173 0.0
C820 C 0.85345 0.31099 0.70162 0.0
C821 C 0.87115 0.31481 0.68937 0.0
C822 C 0.83998 0.32613 0.70217 0.0
C823 C 0.86029 0.34711 0.67598 0.0
C824 C 0.84371 0.34449 0.68984 0.0
C825 C 0.87448 0.33278 0.67632 0.0
C826 C 0.85846 0.29267 0.79345 0.0
C827 C 0.80394 0.25102 0.76802 0.0
C828 C 0.79304 0.30761 0.8318 0.0
C829 C 0.78621 0.28964 0.8457 0.0
C830 C 0.76831 0.28976 0.85725 0.0
C831 C 0.79517 0.27028 0.84454 0.0
C832 C 0.76979 0.25261 0.8686 0.0
C833 C 0.78698 0.2518 0.85605 0.0
C834 C 0.76018 0.27132 0.86885 0.0
C835 C 0.78188 0.30481 0.75401 0.0
O836 O 0.83365 0.33281 0.75637 0.0
O837 O 0.82738 0.34177 0.79386 0.0
O838 O 0.86185 0.3051 0.73799 0.0
O839 O 0.83166 0.28047 0.71729 0.0
O840 O 0.86241 0.28781 0.77268 0.0
O841 O 0.84007 0.29702 0.79238 0.0
O842 O 0.80426 0.26545 0.78764 0.0
O843 O 0.81138 0.25841 0.74992 0.0
O844 O 0.78091 0.30212 0.81161 0.0
O845 O 0.81394 0.31541 0.83086 0.0
O846 O 0.77761 0.30826 0.77483 0.0
O847 O 0.80066 0.3012 0.75447 0.0
H848 H 0.88215 0.30376 0.68971 0.0
H849 H 0.82657 0.32374 0.71209 0.0
H850 H 0.8327 0.35557 0.68979 0.0
H851 H 0.88723 0.33453 0.66552 0.0
H852 H 0.7608 0.30421 0.85747 0.0
H853 H 0.80859 0.26962 0.83502 0.0
H854 H 0.79487 0.23769 0.85635 0.0
H855 H 0.74723 0.27227 0.87902 0.0
Gd856 Gd 0.8163 0.81827 0.77958 0.0
Gd857 Gd 0.79634 0.76705 0.75728 0.0
C858 C 0.76503 0.79384 0.77718 0.0
C859 C 0.82512 0.86384 0.78393 0.0
C860 C 0.81065 0.87869 0.78895 0.0
C861 C 0.81707 0.8983 0.80766 0.0
C862 C 0.79004 0.87299 0.77538 0.0
C863 C 0.78409 0.90847 0.79693 0.0
C864 C 0.77684 0.88788 0.77937 0.0
C865 C 0.80382 0.91327 0.81158 0.0
C866 C 0.81362 0.79432 0.81553 0.0
C867 C 0.84806 0.7887 0.76953 0.0
C868 C 0.79006 0.72214 0.74024 0.0
C869 C 0.80366 0.70639 0.74388 0.0
C870 C 0.80552 0.68944 0.72513 0.0
C871 C 0.81661 0.70996 0.76541 0.0
C872 C 0.83214 0.67863 0.74978 0.0
C873 C 0.83076 0.69616 0.76832 0.0
C874 C 0.81972 0.67558 0.72805 0.0
C875 C 0.79868 0.79836 0.72756 0.0
O876 O 0.78039 0.81349 0.77643 0.0
O877 O 0.76776 0.77235 0.77268 0.0
O878 O 0.8309 0.85392 0.80083 0.0
O879 O 0.81984 0.84923 0.7637 0.0
O880 O 0.82255 0.81717 0.81738 0.0
O881 O 0.80734 0.78447 0.79418 0.0
O882 O 0.83115 0.7703 0.76972 0.0
O883 O 0.84641 0.8106 0.7715 0.0
O884 O 0.79869 0.73932 0.72962 0.0
O885 O 0.78119 0.72954 0.75796 0.0
O886 O 0.78133 0.78116 0.72805 0.0
O887 O 0.81326 0.79868 0.74362 0.0
H888 H 0.83265 0.90253 0.8186 0.0
H889 H 0.78444 0.85763 0.7611 0.0
H890 H 0.76181 0.8844 0.76763 0.0
H891 H 0.80958 0.92944 0.82498 0.0
H892 H 0.79603 0.68698 0.70826 0.0
H893 H 0.81596 0.72354 0.77991 0.0
H894 H 0.8405 0.699 0.78513 0.0
H895 H 0.82056 0.66207 0.71359 0.0
Gd896 Gd 0.54545 0.53088 0.51886 0.0
Gd897 Gd 0.58762 0.55735 0.54789 0.0
C898 C 0.56375 0.58953 0.52361 0.0
C899 C 0.50376 0.51773 0.50633 0.0
C900 C 0.48797 0.53167 0.50666 0.0
C901 C 0.46828 0.52265 0.49152 0.0
C902 C 0.49307 0.55475 0.52069 0.0
C903 C 0.45845 0.55934 0.50476 0.0
C904 C 0.47854 0.56854 0.51962 0.0
C905 C 0.45357 0.53619 0.49073 0.0
C906 C 0.57499 0.53236 0.48725 0.0
C907 C 0.57113 0.49845 0.54141 0.0
C908 C 0.62905 0.57005 0.56194 0.0
C909 C 0.64491 0.55613 0.56125 0.0
C910 C 0.66232 0.5621 0.57942 0.0
C911 C 0.64206 0.53594 0.54349 0.0
C912 C 0.67478 0.52908 0.56134 0.0
C913 C 0.65696 0.5225 0.54354 0.0
C914 C 0.67726 0.54876 0.57939 0.0
C915 C 0.55726 0.55742 0.57886 0.0
O916 O 0.54706 0.56984 0.51775 0.0
O917 O 0.58238 0.58947 0.5349 0.0
O918 O 0.51767 0.52251 0.49197 0.0
O919 O 0.51286 0.51587 0.52646 0.0
O920 O 0.55451 0.52054 0.48308 0.0
O921 O 0.57957 0.54145 0.50933 0.0
O922 O 0.58678 0.51884 0.54862 0.0
O923 O 0.55253 0.49794 0.52939 0.0
O924 O 0.61456 0.56421 0.57547 0.0
O925 O 0.62067 0.57335 0.54208 0.0
O926 O 0.57769 0.56947 0.58303 0.0
O927 O 0.55327 0.54788 0.55694 0.0
H928 H 0.46425 0.50504 0.48033 0.0
H929 H 0.50836 0.56218 0.53234 0.0
H930 H 0.48313 0.58641 0.53038 0.0
H931 H 0.43815 0.52816 0.47943 0.0
H932 H 0.66448 0.57724 0.59352 0.0
H933 H 0.62847 0.53073 0.52951 0.0
H934 H 0.65503 0.50754 0.52931 0.0
H935 H 0.69103 0.55408 0.59317 0.0
Gd936 Gd 0.0904 0.54678 0.04066 0.0
Gd937 Gd 0.04201 0.54391 0.05006 0.0
C938 C 0.05379 0.49467 0.03521 0.0
C939 C 0.12867 0.54057 0.03724 0.0
C940 C 0.1409 0.52218 0.0354 0.0
C941 C 0.1516 0.51843 0.0161 0.0
C942 C 0.14414 0.51028 0.05369 0.0
C943 C 0.17 0.49304 0.03428 0.0
C944 C 0.15839 0.49588 0.05309 0.0
C945 C 0.16589 0.50407 0.01551 0.0
C946 C 0.06233 0.54905 1.0058 0.0
C947 C 0.07835 0.59624 0.05305 0.0
C948 C 1.00389 0.54986 0.05296 0.0
C949 C 0.99357 0.56964 0.05692 0.0
C950 C 0.98147 0.57136 0.07536 0.0
C951 C 0.99398 0.58553 0.04147 0.0
C952 C 0.96785 0.60174 0.06065 0.0
C953 C 0.98096 0.60116 0.0431 0.0
C954 C 0.96878 0.58737 0.07727 0.0
C955 C 0.06997 0.54419 0.08622 0.0
O956 O 0.07456 0.50741 0.04095 0.0
O957 O 0.03772 0.50484 0.03485 0.0
O958 O 0.11479 0.54012 0.01934 0.0
O959 O 0.12199 0.54645 0.05692 0.0
O960 O 0.08299 0.56 0.00808 0.0
O961 O 0.05802 0.5359 0.02031 0.0
O962 O 0.05756 0.58325 0.04904 0.0
O963 O 0.0947 0.58641 0.05375 0.0
O964 O 0.0165 0.54749 0.07062 0.0
O965 O 0.01123 0.54575 0.03324 0.0
O966 O 0.04953 0.53219 0.08333 0.0
O967 O 0.07432 0.55594 0.07056 0.0
H968 H 0.14959 0.52744 1.00179 0.0
H969 H 0.13617 0.51265 0.06884 0.0
H970 H 0.16061 0.48731 0.06767 0.0
H971 H 0.1745 0.50261 1.00076 0.0
H972 H 0.98104 0.55953 0.08768 0.0
H973 H 1.00371 0.58527 0.02761 0.0
H974 H 0.98041 0.61207 0.03007 0.0
H975 H 0.95869 0.58749 0.09088 0.0
C976 C 0.01915 0.19684 0.96144 0.0
C977 C 0.03574 0.21465 0.95524 0.0
C978 C 0.02369 0.17806 0.97164 0.0
C979 C 0.04553 0.17732 0.97678 0.0
C980 C 0.06237 0.19567 0.97099 0.0
C981 C 0.05727 0.2137 0.96003 0.0
C982 C 1.00498 0.15894 0.9769 0.0
C983 C 0.08588 0.1961 0.97604 0.0
C984 C 0.05892 0.13969 0.02153 0.0
C985 C 0.05848 0.11789 0.0073 0.0
C986 C 0.05476 0.15903 0.01196 0.0
C987 C 0.05065 0.15704 0.98745 0.0
C988 C 0.05108 0.13531 0.97311 0.0
C989 C 0.05455 0.11605 0.98312 0.0
C990 C 0.05426 0.18147 0.02814 0.0
C991 C 0.04727 0.13199 0.94701 0.0
H992 H 1.00246 0.19727 0.95782 0.0
H993 H 0.07027 0.22735 0.95543 0.0
H994 H 1.00646 0.1407 0.97047 0.0
H995 H 1.00537 0.16121 0.99597 0.0
H996 H 0.98896 0.15991 0.96899 0.0
H997 H 0.09723 0.21287 0.97306 0.0
H998 H 0.08993 0.19444 0.99428 0.0
H999 H 0.0886 0.18047 0.96471 0.0
H1000 H 0.06175 0.14132 0.04019 0.0
H1001 H 0.05422 0.09936 0.97189 0.0
H1002 H 0.03773 0.18379 0.02557 0.0
H1003 H 0.06575 0.19754 0.02413 0.0
H1004 H 0.05855 0.18079 0.04665 0.0
H1005 H 0.02981 0.12956 0.94105 0.0
H1006 H 0.05167 0.11602 0.9384 0.0
H1007 H 0.05686 0.14815 0.94128 0.0
C1008 C 0.17763 0.82723 0.15561 0.0
C1009 C 0.15837 0.82453 0.16554 0.0
C1010 C 0.19655 0.82404 0.16732 0.0
C1011 C 0.19643 0.81808 0.18965 0.0
C1012 C 0.17707 0.8154 0.19977 0.0
C1013 C 0.15842 0.81863 0.18767 0.0
C1014 C 0.21663 0.82676 0.15567 0.0
C1015 C 0.1761 0.80948 0.22363 0.0
C1016 C 0.241 0.79341 0.21603 0.0
C1017 C 0.25492 0.81422 0.23083 0.0
C1018 C 0.22204 0.79433 0.20224 0.0
C1019 C 0.21695 0.81655 0.2032 0.0
C1020 C 0.23129 0.83755 0.21778 0.0
C1021 C 0.24996 0.83612 0.23122 0.0
C1022 C 0.2072 0.77147 0.18703 0.0
C1023 C 0.22684 0.86168 0.21944 0.0
H1024 H 0.17781 0.83128 0.13837 0.0
H1025 H 0.14371 0.81631 0.19557 0.0
H1026 H 0.23078 0.84031 0.16702 0.0
H1027 H 0.22064 0.80939 0.15279 0.0
H1028 H 0.21447 0.8323 0.1387 0.0
H1029 H 0.15918 0.80443 0.22762 0.0
H1030 H 0.18316 0.79446 0.22532 0.0
H1031 H 0.18592 0.82541 0.23682 0.0
H1032 H 0.24456 0.77637 0.21572 0.0
H1033 H 0.26062 0.85234 0.24251 0.0
H1034 H 0.20597 0.77346 0.16864 0.0
H1035 H 0.19054 0.76807 0.19172 0.0
H1036 H 0.21303 0.75555 0.18857 0.0
H1037 H 0.22769 0.86733 0.20245 0.0
H1038 H 0.23868 0.87593 0.23287 0.0
H1039 H 0.2102 0.86033 0.2236 0.0
C1040 C 0.55788 0.85729 0.46921 0.0
C1041 C 0.53684 0.8412 0.46494 0.0
C1042 C 0.56143 0.88199 0.47791 0.0
C1043 C 0.54359 0.89052 0.48339 0.0
C1044 C 0.52234 0.87418 0.4793 0.0
C1045 C 0.51919 0.84979 0.46971 0.0
C1046 C 0.58417 0.8989 0.48058 0.0
C1047 C 0.50284 0.88261 0.4844 0.0
C1048 C 0.55525 0.94889 0.52769 0.0
C1049 C 0.55156 0.96476 0.51365 0.0
C1050 C 0.55271 0.92465 0.51801 0.0
C1051 C 0.54696 0.91639 0.49367 0.0
C1052 C 0.54384 0.93273 0.47936 0.0
C1053 C 0.54595 0.9567 0.48961 0.0
C1054 C 0.55629 0.90791 0.53383 0.0
C1055 C 0.53942 0.92538 0.45323 0.0
H1056 H 0.57141 0.85076 0.46456 0.0
H1057 H 0.50286 0.83745 0.46554 0.0
H1058 H 0.5839 0.91631 0.47575 0.0
H1059 H 0.59187 0.90276 0.49895 0.0
H1060 H 0.59456 0.89092 0.46974 0.0
H1061 H 0.48769 0.8674 0.48182 0.0
H1062 H 0.50569 0.89276 0.50255 0.0
H1063 H 0.50036 0.89503 0.47282 0.0
H1064 H 0.56015 0.95547 0.54622 0.0
H1065 H 0.54393 0.96941 0.47876 0.0
H1066 H 0.57071 0.90188 0.53009 0.0
H1067 H 0.54204 0.89161 0.53064 0.0
H1068 H 0.55901 0.91665 0.55245 0.0
H1069 H 0.55483 0.92451 0.44675 0.0
H1070 H 0.53323 0.93849 0.44505 0.0
H1071 H 0.52752 0.90727 0.44744 0.0
C1072 C 0.53852 0.28156 0.68302 0.0
C1073 C 0.54365 0.29275 0.66421 0.0
C1074 C 0.51747 0.27676 0.68927 0.0
C1075 C 0.50079 0.28272 0.6761 0.0
C1076 C 0.50553 0.29278 0.65629 0.0
C1077 C 0.52693 0.29802 0.6508 0.0
C1078 C 0.51325 0.26582 0.71039 0.0
C1079 C 0.48815 0.29862 0.64119 0.0
C1080 C 0.44296 0.2583 0.69001 0.0
C1081 C 0.44085 0.27832 0.70526 0.0
C1082 C 0.46191 0.25962 0.67948 0.0
C1083 C 0.47942 0.28125 0.68483 0.0
C1084 C 0.4771 0.3015 0.69991 0.0
C1085 C 0.4579 0.29984 0.70972 0.0
C1086 C 0.46324 0.23788 0.66277 0.0
C1087 C 0.49536 0.32476 0.70657 0.0
H1088 H 0.55116 0.27699 0.69325 0.0
H1089 H 0.53051 0.3061 0.63588 0.0
H1090 H 0.50657 0.27733 0.72274 0.0
H1091 H 0.50091 0.24793 0.70516 0.0
H1092 H 0.52821 0.26349 0.71955 0.0
H1093 H 0.49298 0.30138 0.62409 0.0
H1094 H 0.47256 0.28401 0.6383 0.0
H1095 H 0.48517 0.31536 0.65002 0.0
H1096 H 0.4298 0.24164 0.68633 0.0
H1097 H 0.45658 0.31525 0.72173 0.0
H1098 H 0.4766 0.23124 0.66977 0.0
H1099 H 0.46707 0.24291 0.64603 0.0
H1100 H 0.44781 0.22294 0.6594 0.0
H1101 H 0.50973 0.32157 0.71603 0.0
H1102 H 0.49071 0.33914 0.71777 0.0
H1103 H 0.50037 0.33131 0.69081 0.0
C1104 C 0.02697 0.82952 0.62729 0.0
C1105 C 0.02886 0.80748 0.6159 0.0
C1106 C 0.03768 0.85105 0.62098 0.0
C1107 C 0.05024 0.85033 0.60273 0.0
C1108 C 0.05337 0.82838 0.59221 0.0
C1109 C 0.04254 0.80713 0.59888 0.0
C1110 C 0.03446 0.87438 0.63281 0.0
C1111 C 0.06728 0.82725 0.57315 0.0
C1112 C 0.04475 0.89284 0.56328 0.0
C1113 C 0.06474 0.91059 0.56955 0.0
C1114 C 0.04014 0.87299 0.57384 0.0
C1115 C 0.05588 0.87113 0.59134 0.0
C1116 C 0.07631 0.88897 0.59766 0.0
C1117 C 0.08058 0.90866 0.58648 0.0
C1118 C 0.01842 0.85394 0.5661 0.0
C1119 C 0.09337 0.8877 0.61644 0.0
H1120 H 0.01689 0.82994 0.6409 0.0
H1121 H 0.04462 0.7902 0.59052 0.0
H1122 H 0.05018 0.88886 0.63699 0.0
H1123 H 0.0233 0.88009 0.62091 0.0
H1124 H 0.02737 0.87255 0.64904 0.0
H1125 H 0.06863 0.80882 0.5673 0.0
H1126 H 0.06027 0.83316 0.558 0.0
H1127 H 0.08388 0.83975 0.57931 0.0
H1128 H 0.03282 0.89439 0.54976 0.0
H1129 H 0.09608 0.92256 0.59103 0.0
H1130 H 1.00913 0.85242 0.5809 0.0
H1131 H 0.02098 0.83614 0.56007 0.0
H1132 H 1.00833 0.85798 0.55179 0.0
H1133 H 0.08976 0.8953 0.63355 0.0
H1134 H 0.10991 0.89838 0.61445 0.0
H1135 H 0.09343 0.86887 0.61655 0.0
C1136 C 0.54986 0.85283 0.85377 0.0
C1137 C 0.56203 0.83681 0.84846 0.0
C1138 C 0.5282 0.84726 0.84351 0.0
C1139 C 0.51897 0.82554 0.82702 0.0
C1140 C 0.5311 0.80898 0.82214 0.0
C1141 C 0.5526 0.81474 0.83325 0.0
C1142 C 0.51546 0.86493 0.84977 0.0
C1143 C 0.52202 0.78604 0.80412 0.0
C1144 C 0.45796 0.80799 0.8114 0.0
C1145 C 0.45584 0.82024 0.79323 0.0
C1146 C 0.47851 0.80864 0.82204 0.0
C1147 C 0.49721 0.82124 0.8138 0.0
C1148 C 0.4951 0.83189 0.7942 0.0
C1149 C 0.47437 0.83147 0.78426 0.0
C1150 C 0.48023 0.79725 0.84302 0.0
C1151 C 0.51474 0.84518 0.78471 0.0
H1152 H 0.55742 0.86983 0.86576 0.0
H1153 H 0.56234 0.8026 0.8292 0.0
H1154 H 0.5118 0.87279 0.83454 0.0
H1155 H 0.49966 0.85556 0.85464 0.0
H1156 H 0.52447 0.87989 0.86439 0.0
H1157 H 0.53125 0.77286 0.80621 0.0
H1158 H 0.50461 0.77743 0.80484 0.0
H1159 H 0.52314 0.79043 0.78663 0.0
H1160 H 0.44357 0.7988 0.81798 0.0
H1161 H 0.47283 0.8411 0.77032 0.0
H1162 H 0.48753 0.81159 0.85867 0.0
H1163 H 0.4911 0.78551 0.84109 0.0
H1164 H 0.46411 0.78639 0.84597 0.0
H1165 H 0.52214 0.86323 0.79599 0.0
H1166 H 0.51031 0.84773 0.76683 0.0
H1167 H 0.52727 0.83541 0.78451 0.0
C1168 C 0.49271 0.162 0.09672 0.0
C1169 C 0.50091 0.1742 0.11951 0.0
C1170 C 0.50329 0.14667 0.08521 0.0
C1171 C 0.52282 0.14442 0.09664 0.0
C1172 C 0.53116 0.15676 0.11965 0.0
C1173 C 0.51986 0.17119 0.13096 0.0
C1174 C 0.49382 0.13321 0.06074 0.0
C1175 C 0.55266 0.15602 0.13182 0.0
C1176 C 0.53873 0.08942 0.07236 0.0
C1177 C 0.55113 0.09797 0.05581 0.0
C1178 C 0.52988 0.10467 0.08644 0.0
C1179 C 0.53447 0.12909 0.08437 0.0
C1180 C 0.54882 0.13827 0.06922 0.0
C1181 C 0.55656 0.12232 0.05454 0.0
C1182 C 0.51452 0.09435 0.10237 0.0
C1183 C 0.55502 0.16455 0.06757 0.0
H1184 H 0.47838 0.16487 0.08782 0.0
H1185 H 0.52676 0.18145 0.14831 0.0
H1186 H 0.50574 0.13818 0.04877 0.0
H1187 H 0.49036 0.11353 0.06 0.0
H1188 H 0.47854 0.13701 0.05437 0.0
H1189 H 0.55548 0.16432 0.15058 0.0
H1190 H 0.55356 0.13725 0.13003 0.0
H1191 H 0.56611 0.16605 0.12367 0.0
H1192 H 0.53466 0.07046 0.07311 0.0
H1193 H 0.56647 0.12874 0.04178 0.0
H1194 H 0.4981 0.09605 0.09697 0.0
H1195 H 0.52017 0.10464 0.12042 0.0
H1196 H 0.51306 0.07506 0.10223 0.0
H1197 H 0.54128 0.16834 0.05755 0.0
H1198 H 0.56955 0.1695 0.05872 0.0
H1199 H 0.55848 0.17627 0.08506 0.0
C1200 C 0.19354 0.33372 0.35626 0.0
C1201 C 0.17142 0.32305 0.3476 0.0
C1202 C 0.20952 0.32863 0.34345 0.0
C1203 C 0.20297 0.31296 0.32147 0.0
C1204 C 0.18067 0.30261 0.31253 0.0
C1205 C 0.16518 0.30771 0.32576 0.0
C1206 C 0.23327 0.33981 0.35343 0.0
C1207 C 0.17317 0.28581 0.28913 0.0
C1208 C 0.2419 0.31518 0.27772 0.0
C1209 C 0.24808 0.29437 0.27904 0.0
C1210 C 0.22715 0.3215 0.29152 0.0
C1211 C 0.21919 0.30707 0.30751 0.0
C1212 C 0.22542 0.28597 0.30891 0.0
C1213 C 0.2396 0.27965 0.29432 0.0
C1214 C 0.2205 0.34385 0.28924 0.0
C1215 C 0.21791 0.2707 0.32645 0.0
H1216 H 0.19834 0.34553 0.3732 0.0
H1217 H 0.14806 0.29953 0.31894 0.0
H1218 H 0.24205 0.32589 0.35219 0.0
H1219 H 0.24091 0.35323 0.34326 0.0
H1220 H 0.23555 0.34899 0.37188 0.0
H1221 H 0.15524 0.28073 0.284 0.0
H1222 H 0.18112 0.29435 0.27557 0.0
H1223 H 0.17799 0.2691 0.28959 0.0
H1224 H 0.24899 0.32677 0.26625 0.0
H1225 H 0.24515 0.26404 0.29594 0.0
H1226 H 0.22894 0.35846 0.30433 0.0
H1227 H 0.20271 0.34054 0.28905 0.0
H1228 H 0.22477 0.35008 0.27311 0.0
H1229 H 0.22533 0.28105 0.34417 0.0
H1230 H 0.2226 0.2537 0.32374 0.0
H1231 H 0.19998 0.26614 0.32569 0.0
C1232 C 0.98844 0.082 0.18799 0.0
C1233 C 0.98374 0.06228 0.1996 0.0
C1234 C 1.00034 0.08252 0.1684 0.0
C1235 C 1.0073 0.06237 0.15837 0.0
C1236 C 1.00231 0.04234 0.16989 0.0
C1237 C 0.99137 0.04277 0.1901 0.0
C1238 C 1.00569 0.10509 0.15852 0.0
C1239 C 1.00874 0.02008 0.16093 0.0
C1240 C 0.02039 0.05447 0.09312 0.0
C1241 C 0.04343 0.06202 0.09527 0.0
C1242 C 1.00876 0.05472 0.11293 0.0
C1243 C 0.01982 0.06231 0.13643 0.0
C1244 C 0.04309 0.06959 0.13861 0.0
C1245 C 0.05425 0.0696 0.11858 0.0
C1246 C 0.98427 0.04676 0.10859 0.0
C1247 C 0.05656 0.07793 0.16238 0.0
H1248 H 0.98328 0.09756 0.19463 0.0
H1249 H 0.98831 0.02722 0.19828 0.0
H1250 H 0.0231 0.11039 0.15619 0.0
H1251 H 0.99582 0.10163 0.14117 0.0
H1252 H 1.00237 0.12039 0.1698 0.0
H1253 H 1.00057 1.00455 0.16852 0.0
H1254 H 1.00465 0.01496 0.14174 0.0
H1255 H 0.02661 0.02383 0.16542 0.0
H1256 H 0.01124 0.0486 0.07577 0.0
H1257 H 0.07189 0.07557 0.12133 0.0
H1258 H 0.97804 0.06177 0.11605 0.0
H1259 H 0.97803 0.03161 0.11747 0.0
H1260 H 0.97768 0.04098 0.08981 0.0
H1261 H 0.05499 0.09573 0.17034 0.0
H1262 H 0.07407 0.07969 0.16174 0.0
H1263 H 0.05059 0.06524 0.17389 0.0
C1264 C 0.2618 0.6833 0.46463 0.0
C1265 C 0.2839 0.68462 0.46878 0.0
C1266 C 0.25341 0.69007 0.44504 0.0
C1267 C 0.26776 0.69892 0.4299 0.0
C1268 C 0.28977 0.69861 0.43317 0.0
C1269 C 0.29758 0.69109 0.45266 0.0
C1270 C 0.22966 0.68925 0.44136 0.0
C1271 C 0.3056 0.70838 0.41746 0.0
C1272 C 0.25242 0.71698 0.37415 0.0
C1273 C 0.25772 0.74191 0.38174 0.0
C1274 C 0.25393 0.7021 0.39 0.0
C1275 C 0.26119 0.71284 0.41364 0.0
C1276 C 0.26481 0.73785 0.42153 0.0
C1277 C 0.26289 0.75215 0.40533 0.0
C1278 C 0.24928 0.67532 0.38137 0.0
C1279 C 0.27224 0.74977 0.44682 0.0
H1280 H 0.25113 0.67732 0.47694 0.0
H1281 H 0.31456 0.69158 0.45599 0.0
H1282 H 0.22817 0.70784 0.44405 0.0
H1283 H 0.2221 0.68033 0.42329 0.0
H1284 H 0.2203 0.67951 0.45344 0.0
H1285 H 0.32072 0.70285 0.4199 0.0
H1286 H 0.29814 0.70225 0.39897 0.0
H1287 H 0.31012 0.72836 0.42143 0.0
H1288 H 0.24796 0.70935 0.35585 0.0
H1289 H 0.26695 0.77155 0.41089 0.0
H1290 H 0.23797 0.66516 0.39165 0.0
H1291 H 0.26459 0.67017 0.38366 0.0
H1292 H 0.24208 0.66969 0.36273 0.0
H1293 H 0.25992 0.74203 0.45743 0.0
H1294 H 0.27488 0.76957 0.44979 0.0
H1295 H 0.28769 0.74636 0.45318 0.0
C1296 C 0.64762 0.06693 0.6926 0.0
C1297 C 0.66284 0.05397 0.69041 0.0
C1298 C 0.63577 0.06992 0.673 0.0
C1299 C 0.63925 0.05927 0.6511 0.0
C1300 C 0.65647 0.04873 0.64885 0.0
C1301 C 0.66829 0.04619 0.66889 0.0
C1302 C 0.61809 0.08215 0.67589 0.0
C1303 C 0.66102 0.03839 0.62538 0.0
C1304 C 0.58793 0.02936 0.60917 0.0
C1305 C 0.58954 0.0454 0.5941 0.0
C1306 C 0.60434 0.03371 0.62788 0.0
C1307 C 0.62233 0.05469 0.63134 0.0
C1308 C 0.62379 0.07115 0.61634 0.0
C1309 C 0.60728 0.06622 0.59773 0.0
C1310 C 0.60237 0.01596 0.64397 0.0
C1311 C 0.6422 0.09427 0.62031 0.0
H1312 H 0.64426 0.07365 0.70967 0.0
H1313 H 0.68073 0.03694 0.66772 0.0
H1314 H 0.61655 0.09257 0.66209 0.0
H1315 H 0.60226 0.06828 0.67465 0.0
H1316 H 0.62124 0.09448 0.69306 0.0
H1317 H 0.6759 0.03229 0.62669 0.0
H1318 H 0.64698 0.02281 0.61664 0.0
H1319 H 0.663 0.05204 0.6142 0.0
H1320 H 0.57406 0.0134 0.60616 0.0
H1321 H 0.60816 0.07888 0.58616 0.0
H1322 H 0.60098 0.02486 0.66159 0.0
H1323 H 0.61718 1.00978 0.64543 0.0
H1324 H 0.58794 0.99994 0.63794 0.0
H1325 H 0.63899 0.10781 0.63388 0.0
H1326 H 0.64366 0.10186 0.60431 0.0
H1327 H 0.65802 0.09159 0.62647 0.0
C1328 C 0.31699 0.32158 0.95529 0.0
C1329 C 0.32352 0.34621 0.96536 0.0
C1330 C 0.31507 0.31366 0.93107 0.0
C1331 C 0.32097 0.33072 0.91665 0.0
C1332 C 0.32739 0.35563 0.92679 0.0
C1333 C 0.32817 0.36304 0.95088 0.0
C1334 C 0.30703 0.28701 0.92094 0.0
C1335 C 0.33381 0.3745 0.91222 0.0
C1336 C 0.33885 0.31061 0.85842 0.0
C1337 C 0.32034 0.30812 0.84249 0.0
C1338 C 0.33921 0.31778 0.88254 0.0
C1339 C 0.32066 0.32261 0.89107 0.0
C1340 C 0.30193 0.32002 0.87505 0.0
C1341 C 0.30199 0.31278 0.85116 0.0
C1342 C 0.35957 0.32044 0.89895 0.0
C1343 C 0.28154 0.32442 0.88302 0.0
H1344 H 0.31331 0.30849 0.96638 0.0
H1345 H 0.33342 0.3821 0.95859 0.0
H1346 H 0.294 0.28329 0.90592 0.0
H1347 H 0.32056 0.28082 0.91448 0.0
H1348 H 0.30058 0.2763 0.93388 0.0
H1349 H 0.33975 0.39304 0.92287 0.0
H1350 H 0.34679 0.3711 0.90231 0.0
H1351 H 0.31962 0.37345 0.89942 0.0
H1352 H 0.35311 0.30707 0.85207 0.0
H1353 H 0.28743 0.31079 0.83925 0.0
H1354 H 0.35577 0.30845 0.9116 0.0
H1355 H 0.36581 0.33921 0.90899 0.0
H1356 H 0.37262 0.31602 0.88973 0.0
H1357 H 0.27322 0.3092 0.89087 0.0
H1358 H 0.26998 0.32586 0.86844 0.0
H1359 H 0.28547 0.34111 0.89646 0.0
C1360 C 0.99952 0.07253 0.35468 0.0
C1361 C 0.99671 0.05268 0.33638 0.0
C1362 C 1.00789 0.07258 0.37806 0.0
C1363 C 0.0136 0.05221 0.38392 0.0
C1364 C 0.01036 0.03202 0.36559 0.0
C1365 C 1.00231 0.03259 0.34239 0.0
C1366 C 0.01075 0.09463 0.39652 0.0
C1367 C 0.01507 1.0094 0.37058 0.0
C1368 C 0.05469 0.05785 0.43913 0.0
C1369 C 0.04128 0.04867 0.4549 0.0
C1370 C 0.04598 0.05946 0.41649 0.0
C1371 C 0.02306 0.05181 0.40888 0.0
C1372 C 1.00944 0.04289 0.42503 0.0
C1373 C 0.01862 0.04142 0.44755 0.0
C1374 C 0.06145 0.06944 0.40061 0.0
C1375 C 0.98498 0.03533 0.41885 0.0
H1376 H 0.99525 0.08822 0.35074 0.0
H1377 H 0.99997 0.01686 0.3289 0.0
H1378 H 1.00409 0.08949 0.41217 0.0
H1379 H 0.02837 0.10405 0.40183 0.0
H1380 H 1.00267 0.10743 0.39032 0.0
H1381 H 0.01212 0.99529 0.35466 0.0
H1382 H 0.03225 0.01362 0.37881 0.0
H1383 H 1.00458 1.00204 0.38304 0.0
H1384 H 0.07217 0.0637 0.44449 0.0
H1385 H 1.00795 0.03458 0.45952 0.0
H1386 H 0.05851 0.08619 0.39657 0.0
H1387 H 0.0585 0.05637 0.38396 0.0
H1388 H 0.07877 0.0736 0.40842 0.0
H1389 H 0.9793 0.05167 0.42081 0.0
H1390 H 0.9769 0.02369 0.43038 0.0
H1391 H 0.97967 0.02556 0.40058 0.0
C1392 C 0.28476 0.69392 0.58911 0.0
C1393 C 0.3001 0.68105 0.59017 0.0
C1394 C 0.28223 0.70871 0.60898 0.0
C1395 C 0.29618 0.71138 0.62977 0.0
C1396 C 0.31062 0.69702 0.63123 0.0
C1397 C 0.31213 0.68156 0.61123 0.0
C1398 C 0.26526 0.72205 0.60746 0.0
C1399 C 0.32511 0.69875 0.65356 0.0
C1400 C 0.31499 0.77215 0.6698 0.0
C1401 C 0.30681 0.76616 0.6897 0.0
C1402 C 0.31123 0.7544 0.64971 0.0
C1403 C 0.29758 0.73092 0.64929 0.0
C1404 C 0.28771 0.72551 0.6687 0.0
C1405 C 0.29361 0.74278 0.6891 0.0
C1406 C 0.32303 0.76029 0.62961 0.0
C1407 C 0.27128 0.70151 0.66815 0.0
H1408 H 0.27493 0.69258 0.57268 0.0
H1409 H 0.32345 0.67088 0.61177 0.0
H1410 H 0.2577 0.72323 0.62354 0.0
H1411 H 0.27302 0.74068 0.60531 0.0
H1412 H 0.25223 0.71317 0.59241 0.0
H1413 H 0.33655 0.68771 0.65114 0.0
H1414 H 0.33468 0.71777 0.66069 0.0
H1415 H 0.31502 0.69245 0.66672 0.0
H1416 H 0.32569 0.79005 0.67049 0.0
H1417 H 0.28869 0.73745 0.70476 0.0
H1418 H 0.31113 0.75812 0.61397 0.0
H1419 H 0.33278 0.74761 0.62541 0.0
H1420 H 0.33411 0.77898 0.63337 0.0
H1421 H 0.256 0.70042 0.65699 0.0
H1422 H 0.26736 0.6992 0.68568 0.0
H1423 H 0.277 0.68622 0.66047 0.0
C1424 C 0.64531 0.08802 0.81579 0.0
C1425 C 0.64977 0.0658 0.81134 0.0
C1426 C 0.64601 0.09968 0.83846 0.0
C1427 C 0.6503 0.08822 0.85683 0.0
C1428 C 0.65679 0.06689 0.85256 0.0
C1429 C 0.6567 0.05603 0.82966 0.0
C1430 C 0.64 0.123 0.84259 0.0
C1431 C 0.66134 0.05388 0.87163 0.0
C1432 C 0.64493 0.11077 0.91903 0.0
C1433 C 0.62276 0.09962 0.91851 0.0
C1434 C 0.65423 0.10854 0.8986 0.0
C1435 C 0.64111 0.09373 0.87805 0.0
C1436 C 0.61861 0.08299 0.87754 0.0
C1437 C 0.60964 0.08672 0.89766 0.0
C1438 C 0.67805 0.12107 0.89914 0.0
C1439 C 0.60409 0.06638 0.85615 0.0
H1440 H 0.64131 0.09636 0.80153 0.0
H1441 H 0.66116 0.03941 0.82606 0.0
H1442 H 0.62271 0.11922 0.84529 0.0
H1443 H 0.65008 0.13541 0.85842 0.0
H1444 H 0.64202 0.13218 0.8276 0.0
H1445 H 0.67331 0.04389 0.86743 0.0
H1446 H 0.66757 0.06629 0.88864 0.0
H1447 H 0.64597 0.04056 0.87329 0.0
H1448 H 0.65499 0.12028 0.93542 0.0
H1449 H 0.5926 0.07755 0.89757 0.0
H1450 H 0.68 0.13223 0.88562 0.0
H1451 H 0.68701 0.10759 0.89513 0.0
H1452 H 0.68565 0.13281 0.9163 0.0
H1453 H 0.6024 0.07671 0.84231 0.0
H1454 H 0.58751 0.05762 0.85966 0.0
H1455 H 0.61131 0.052 0.84933 0.0
C1456 C 0.30743 0.33484 0.09768 0.0
C1457 C 0.32372 0.35672 0.09953 0.0
C1458 C 0.30366 0.32387 0.11719 0.0
C1459 C 0.31697 0.33447 0.13908 0.0
C1460 C 0.33382 0.35624 0.14074 0.0
C1461 C 0.33664 0.36725 0.12123 0.0
C1462 C 0.28493 0.3013 0.11448 0.0
C1463 C 0.34939 0.3676 0.16301 0.0
C1464 C 0.29857 0.31956 0.19668 0.0
C1465 C 0.30749 0.30081 0.19985 0.0
C1466 C 0.30114 0.33029 0.17689 0.0
C1467 C 0.31363 0.3228 0.16013 0.0
C1468 C 0.32322 0.30432 0.16378 0.0
C1469 C 0.3196 0.29325 0.18316 0.0
C1470 C 0.28992 0.34922 0.17357 0.0
C1471 C 0.33715 0.29593 0.14705 0.0
H1472 H 0.29718 0.32665 0.0811 0.0
H1473 H 0.34942 0.38399 0.12283 0.0
H1474 H 0.29031 0.28718 0.12165 0.0
H1475 H 0.27224 0.30546 0.12446 0.0
H1476 H 0.27748 0.29393 0.09605 0.0
H1477 H 0.3608 0.38519 0.16202 0.0
H1478 H 0.34035 0.37037 0.17775 0.0
H1479 H 0.35903 0.35526 0.16688 0.0
H1480 H 0.2888 0.32516 0.20919 0.0
H1481 H 0.32635 0.27857 0.1853 0.0
H1482 H 0.27881 0.34337 0.15677 0.0
H1483 H 0.30209 0.36636 0.17285 0.0
H1484 H 0.28035 0.35269 0.18772 0.0
H1485 H 0.32671 0.28552 0.13057 0.0
H1486 H 0.34611 0.28427 0.15408 0.0
H1487 H 0.3491 0.31158 0.14289 0.0
C1488 C 0.25494 0.95831 0.02057 0.0
C1489 C 0.27525 0.97474 0.02089 0.0
C1490 C 0.23833 0.96596 0.03005 0.0
C1491 C 0.24195 0.99073 0.03917 0.0
C1492 C 0.26285 1.00716 0.04068 0.0
C1493 C 0.27936 0.99886 0.03173 0.0
C1494 C 0.21664 0.9477 0.02928 0.0
C1495 C 0.26763 0.03361 0.05108 0.0
C1496 C 0.19462 0.01516 0.0264 0.0
C1497 C 0.18835 0.02 0.04829 0.0
C1498 C 0.21186 1.00535 0.02335 0.0
C1499 C 0.22311 1.00006 0.04268 0.0
C1500 C 0.21675 1.00447 0.06485 0.0
C1501 C 0.1994 0.0145 0.06743 0.0
C1502 C 0.21846 1.00132 0.99949 0.0
C1503 C 0.22798 0.9983 0.08568 0.0
H1504 H 0.25207 0.93941 0.01308 0.0
H1505 H 0.29534 0.0114 0.03268 0.0
H1506 H 0.20971 0.95152 0.04545 0.0
H1507 H 0.20503 0.94869 0.01457 0.0
H1508 H 0.21803 0.92904 0.02688 0.0
H1509 H 0.28399 0.0443 0.04861 0.0
H1510 H 0.25524 0.04115 0.04327 0.0
H1511 H 0.26693 0.03586 0.06997 0.0
H1512 H 0.18644 0.01979 0.01165 0.0
H1513 H 0.19444 0.018 0.08435 0.0
H1514 H 0.21715 0.982 0.9936 0.0
H1515 H 0.23571 0.01174 1.00013 0.0
H1516 H 0.20822 1.00678 0.98637 0.0
H1517 H 0.22332 0.97843 0.08396 0.0
H1518 H 0.22344 1.00623 0.10218 0.0
H1519 H 0.24593 1.00461 0.08669 0.0
C1520 C 0.71936 0.65088 0.99642 0.0
C1521 C 0.73822 0.64791 0.00822 0.0
C1522 C 0.69826 0.63683 0.99841 0.0
C1523 C 0.69563 0.61951 0.01289 0.0
C1524 C 0.71462 0.61679 0.02519 0.0
C1525 C 0.7355 0.63071 0.02253 0.0
C1526 C 0.67871 0.6405 0.9849 0.0
C1527 C 0.71302 0.5988 0.04094 0.0
C1528 C 0.63926 0.59222 0.03043 0.0
C1529 C 0.63178 0.5699 0.01491 0.0
C1530 C 0.65985 0.60868 0.02997 0.0
C1531 C 0.67331 0.60282 0.01354 0.0
C1532 C 0.66556 0.58045 0.99772 0.0
C1533 C 0.64515 0.56446 0.99865 0.0
C1534 C 0.6675 0.63206 0.04747 0.0
C1535 C 0.67897 0.57321 0.97979 0.0
H1536 H 0.72105 0.66423 0.98554 0.0
H1537 H 0.74976 0.62835 0.03207 0.0
H1538 H 0.66855 0.62316 0.97389 0.0
H1539 H 0.66847 0.64683 0.99708 0.0
H1540 H 0.68338 0.65385 0.97363 0.0
H1541 H 0.72839 0.60258 0.05308 0.0
H1542 H 0.69953 0.59876 0.05123 0.0
H1543 H 0.7096 0.58047 0.03025 0.0
H1544 H 0.62947 0.59647 0.04345 0.0
H1545 H 0.63972 0.54729 0.98658 0.0
H1546 H 0.67042 0.64746 0.03838 0.0
H1547 H 0.68322 0.63331 0.05785 0.0
H1548 H 0.65553 0.63387 0.05944 0.0
H1549 H 0.68175 0.58634 0.96808 0.0
H1550 H 0.67098 0.55493 0.96913 0.0
H1551 H 0.69516 0.5735 0.98839 0.0
C1552 C 0.71784 0.42308 0.26115 0.0
C1553 C 0.73025 0.4469 0.26049 0.0
C1554 C 0.72684 0.40285 0.25988 0.0
C1555 C 0.74959 0.40564 0.25925 0.0
C1556 C 0.76219 0.42969 0.25881 0.0
C1557 C 0.75255 0.44932 0.25886 0.0
C1558 C 0.71159 0.37818 0.25899 0.0
C1559 C 0.78632 0.4349 0.25837 0.0
C1560 C 0.77736 0.35808 0.2806 0.0
C1561 C 0.78141 0.34457 0.26019 0.0
C1562 C 0.76705 0.37712 0.28046 0.0
C1563 C 0.7602 0.38403 0.2594 0.0
C1564 C 0.76409 0.3702 0.23868 0.0
C1565 C 0.77436 0.35114 0.23933 0.0
C1566 C 0.76346 0.39 0.30329 0.0
C1567 C 0.75674 0.37485 0.21532 0.0
H1568 H 0.70063 0.41995 0.26207 0.0
H1569 H 0.76287 0.46703 0.25823 0.0
H1570 H 0.71599 0.3642 0.24698 0.0
H1571 H 0.71276 0.37376 0.27652 0.0
H1572 H 0.6944 0.37733 0.25333 0.0
H1573 H 0.79464 0.45452 0.2612 0.0
H1574 H 0.79384 0.42727 0.2719 0.0
H1575 H 0.78916 0.42615 0.24132 0.0
H1576 H 0.78235 0.35376 0.29704 0.0
H1577 H 0.77694 0.34131 0.22319 0.0
H1578 H 0.74575 0.38562 0.3041 0.0
H1579 H 0.76974 0.4098 0.30481 0.0
H1580 H 0.77147 0.38478 0.31834 0.0
H1581 H 0.73893 0.36621 0.2106 0.0
H1582 H 0.76498 0.36725 0.20158 0.0
H1583 H 0.75978 0.39439 0.21567 0.0
C1584 C 0.89906 0.45658 0.53402 0.0
C1585 C 0.88737 0.45934 0.51386 0.0
C1586 C 0.92159 0.46636 0.53881 0.0
C1587 C 0.93228 0.47883 0.52284 0.0
C1588 C 0.92058 0.48082 0.50203 0.0
C1589 C 0.89801 0.47128 0.49793 0.0
C1590 C 0.93374 0.46385 0.56106 0.0
C1591 C 0.93192 0.49309 0.48419 0.0
C1592 C 0.98353 0.52948 0.54105 0.0
C1593 C 0.99805 0.51898 0.53058 0.0
C1594 C 0.96197 0.516 0.5398 0.0
C1595 C 0.95546 0.49155 0.52836 0.0
C1596 C 0.97067 0.4805 0.51939 0.0
C1597 C 0.99195 0.49463 0.52029 0.0
C1598 C 0.94599 0.52816 0.54956 0.0
C1599 C 0.96444 0.45399 0.50868 0.0
H1600 H 0.89051 0.44703 0.54616 0.0
H1601 H 0.88873 0.47262 0.48211 0.0
H1602 H 0.9492 0.4598 0.55807 0.0
H1603 H 0.93794 0.4811 0.5738 0.0
H1604 H 0.92382 0.44948 0.56891 0.0
H1605 H 0.92037 0.49269 0.46878 0.0
H1606 H 0.94083 0.51214 0.49205 0.0
H1607 H 0.94408 0.48409 0.4783 0.0
H1608 H 0.98888 0.54837 0.54945 0.0
H1609 H 1.00387 0.48672 0.51312 0.0
H1610 H 0.93758 0.51812 0.56198 0.0
H1611 H 0.93334 0.52807 0.53532 0.0
H1612 H 0.954 0.54711 0.55859 0.0
H1613 H 0.96074 0.44333 0.52241 0.0
H1614 H 0.97771 0.44896 0.50031 0.0
H1615 H 0.94958 0.44879 0.49558 0.0
C1616 C 0.40878 0.08824 0.26913 0.0
C1617 C 0.40041 0.0805 0.28844 0.0
C1618 C 0.39878 0.10151 0.25643 0.0
C1619 C 0.38049 0.10766 0.26387 0.0
C1620 C 0.37171 0.09927 0.28312 0.0
C1621 C 0.38166 0.08535 0.295 0.0
C1622 C 0.40799 0.1092 0.23542 0.0
C1623 C 0.35195 0.1052 0.29132 0.0
C1624 C 0.3687 0.16545 0.25794 0.0
C1625 C 0.34836 0.15686 0.24377 0.0
C1626 C 0.38047 0.14972 0.26303 0.0
C1627 C 0.37176 0.12488 0.25338 0.0
C1628 C 0.35263 0.11651 0.23684 0.0
C1629 C 0.34098 0.13265 0.23231 0.0
C1630 C 0.40097 0.15933 0.28065 0.0
C1631 C 0.34374 0.09027 0.22521 0.0
H1632 H 0.423 0.08358 0.26378 0.0
H1633 H 0.37502 0.07852 0.30954 0.0
H1634 H 0.39477 0.10743 0.22114 0.0
H1635 H 0.41775 0.1284 0.23999 0.0
H1636 H 0.41873 0.09842 0.22896 0.0
H1637 H 0.34874 0.09951 0.30798 0.0
H1638 H 0.35404 0.12485 0.29365 0.0
H1639 H 0.33741 0.09591 0.27808 0.0
H1640 H 0.37474 0.18423 0.26645 0.0
H1641 H 0.32537 0.12589 0.22117 0.0
H1642 H 0.4145 0.15352 0.27377 0.0
H1643 H 0.39821 0.15193 0.29658 0.0
H1644 H 0.40613 0.17932 0.28551 0.0
H1645 H 0.35651 0.08417 0.21684 0.0
H1646 H 0.32928 0.08693 0.21188 0.0
H1647 H 0.33906 0.07907 0.23832 0.0
C1648 C 0.36814 0.13651 0.50621 0.0
C1649 C 0.36156 0.15298 0.52164 0.0
C1650 C 0.38751 0.13061 0.51218 0.0
C1651 C 0.40085 0.14187 0.53385 0.0
C1652 C 0.39479 0.15953 0.54893 0.0
C1653 C 0.37506 0.16458 0.54279 0.0
C1654 C 0.39326 0.11157 0.49569 0.0
C1655 C 0.40905 0.17286 0.5716 0.0
C1656 C 0.43318 0.10261 0.55605 0.0
C1657 C 0.45347 0.11123 0.54878 0.0
C1658 C 0.41657 0.11362 0.55283 0.0
C1659 C 0.41988 0.1334 0.54141 0.0
C1660 C 0.44072 0.1433 0.53547 0.0
C1661 C 0.45726 0.13225 0.53939 0.0
C1662 C 0.39501 0.10323 0.56063 0.0
C1663 C 0.44538 0.16469 0.52373 0.0
H1664 H 0.35774 0.12758 0.48987 0.0
H1665 H 0.37012 0.17765 0.55458 0.0
H1666 H 0.41032 0.11827 0.49255 0.0
H1667 H 0.39205 0.09546 0.50359 0.0
H1668 H 0.38233 0.10599 0.47876 0.0
H1669 H 0.40183 0.18569 0.58165 0.0
H1670 H 0.41191 0.15994 0.58244 0.0
H1671 H 0.4252 0.18307 0.56816 0.0
H1672 H 0.42969 0.08643 0.56323 0.0
H1673 H 0.47301 0.13982 0.53444 0.0
H1674 H 0.38226 0.09503 0.54523 0.0
H1675 H 0.39 0.1177 0.5712 0.0
H1676 H 0.39563 0.08926 0.57106 0.0
H1677 H 0.44033 0.15825 0.50474 0.0
H1678 H 0.46304 0.17452 0.52684 0.0
H1679 H 0.43622 0.17746 0.52974 0.0
C1680 C 0.72026 0.60978 0.2968 0.0
C1681 C 0.72527 0.58975 0.28415 0.0
C1682 C 0.73063 0.63428 0.29538 0.0
C1683 C 0.7466 0.64009 0.28049 0.0
C1684 C 0.75148 0.61994 0.26731 0.0
C1685 C 0.74113 0.59555 0.2694 0.0
C1686 C 0.72419 0.65412 0.30992 0.0
C1687 C 0.76786 0.62407 0.25079 0.0
C1688 C 0.7633 0.70532 0.2648 0.0
C1689 C 0.78346 0.71718 0.27929 0.0
C1690 C 0.75127 0.6807 0.26487 0.0
C1691 C 0.75901 0.66691 0.27994 0.0
C1692 C 0.77904 0.67912 0.29482 0.0
C1693 C 0.79078 0.70334 0.29411 0.0
C1694 C 0.73042 0.66912 0.24821 0.0
C1695 C 0.78835 0.66646 0.3117 0.0
H1696 H 0.70796 0.60634 0.30805 0.0
H1697 H 0.74524 0.58089 0.25897 0.0
H1698 H 0.73887 0.6683 0.31959 0.0
H1699 H 0.71531 0.66266 0.29843 0.0
H1700 H 0.71354 0.64735 0.32251 0.0
H1701 H 0.76668 0.60726 0.23833 0.0
H1702 H 0.76559 0.63794 0.24088 0.0
H1703 H 0.78451 0.63076 0.26082 0.0
H1704 H 0.75731 0.71485 0.25262 0.0
H1705 H 0.80629 0.71152 0.30527 0.0
H1706 H 0.7166 0.66441 0.25805 0.0
H1707 H 0.73124 0.65209 0.23752 0.0
H1708 H 0.72701 0.6811 0.23652 0.0
H1709 H 0.77681 0.66158 0.32408 0.0
H1710 H 0.8043 0.67777 0.32171 0.0
H1711 H 0.79048 0.64948 0.30232 0.0
C1712 C 0.90206 0.48246 0.79649 0.0
C1713 C 0.91968 0.4821 0.81219 0.0
C1714 C 0.88851 0.4612 0.78277 0.0
C1715 C 0.89248 0.43942 0.78568 0.0
C1716 C 0.91173 0.43918 0.79924 0.0
C1717 C 0.92534 0.46084 0.81251 0.0
C1718 C 0.86884 0.46176 0.76697 0.0
C1719 C 0.91687 0.41592 0.80114 0.0
C1720 C 0.84607 0.39049 0.79541 0.0
C1721 C 0.8433 0.37359 0.77501 0.0
C1722 C 0.86142 0.41279 0.79844 0.0
C1723 C 0.87409 0.41781 0.78059 0.0
C1724 C 0.86971 0.40175 0.75904 0.0
C1725 C 0.85371 0.37994 0.75628 0.0
C1726 C 0.86532 0.43003 0.8215 0.0
C1727 C 0.88234 0.4065 0.73924 0.0
H1728 H 0.89875 0.49934 0.79507 0.0
H1729 H 0.93985 0.4611 0.82364 0.0
H1730 H 0.8665 0.44898 0.75024 0.0
H1731 H 0.85407 0.45606 0.77525 0.0
H1732 H 0.8703 0.48006 0.76341 0.0
H1733 H 0.93405 0.4191 0.80896 0.0
H1734 H 0.90608 0.40624 0.81219 0.0
H1735 H 0.91377 0.40403 0.78375 0.0
H1736 H 0.8375 0.38571 0.80963 0.0
H1737 H 0.85088 0.3671 0.74011 0.0
H1738 H 0.86588 0.44842 0.81882 0.0
H1739 H 0.88124 0.43102 0.8313 0.0
H1740 H 0.85249 0.42431 0.83235 0.0
H1741 H 0.87229 0.41198 0.72598 0.0
H1742 H 0.88556 0.38975 0.73068 0.0
H1743 H 0.89808 0.42079 0.74473 0.0
C1744 C 0.07502 0.87917 0.07444 0.0
C1745 C 0.09627 0.88129 0.08465 0.0
C1746 C 0.06974 0.89847 0.06596 0.0
C1747 C 0.08582 0.92104 0.06849 0.0
C1748 C 0.1072 0.9234 0.07933 0.0
C1749 C 0.11222 0.90348 0.08678 0.0
C1750 C 0.04702 0.89448 0.0537 0.0
C1751 C 0.1247 0.94723 0.08373 0.0
C1752 C 0.08004 0.96687 0.03001 0.0
C1753 C 0.07116 0.98243 0.04393 0.0
C1754 C 0.08438 0.94666 0.0375 0.0
C1755 C 0.08037 0.94207 0.05983 0.0
C1756 C 0.07153 0.95799 0.07398 0.0
C1757 C 0.06682 0.97768 0.06578 0.0
C1758 C 0.09346 0.93028 0.02153 0.0
C1759 C 0.06727 0.95446 0.09801 0.0
H1760 H 0.0626 0.86209 0.07249 0.0
H1761 H 0.12862 0.90547 0.09485 0.0
H1762 H 0.03977 0.90826 0.0619 0.0
H1763 H 0.04773 0.89646 0.03541 0.0
H1764 H 0.03612 0.87633 0.05385 0.0
H1765 H 0.1409 0.94573 0.09039 0.0
H1766 H 0.12595 0.95463 0.06764 0.0
H1767 H 0.12032 0.96041 0.09669 0.0
H1768 H 0.08365 0.97055 0.0132 0.0
H1769 H 0.06021 0.98979 0.07676 0.0
H1770 H 0.08307 0.91138 0.01901 0.0
H1771 H 0.10998 0.93089 0.02948 0.0
H1772 H 0.09455 0.93539 1.0043 0.0
H1773 H 0.05359 0.93794 0.09675 0.0
H1774 H 0.06304 0.96993 0.10793 0.0
H1775 H 0.08178 0.95197 0.1079 0.0
C1776 C 0.96754 0.27513 0.8571 0.0
C1777 C 0.96805 0.27312 0.88058 0.0
C1778 C 0.94912 0.27848 0.84409 0.0
C1779 C 0.93034 0.27984 0.85449 0.0
C1780 C 0.93074 0.27762 0.87811 0.0
C1781 C 0.94934 0.27441 0.8907 0.0
C1782 C 0.95 0.28107 0.8192 0.0
C1783 C 0.91128 0.27835 0.89014 0.0
C1784 C 0.88964 0.30956 0.82684 0.0
C1785 C 0.87313 0.28968 0.81358 0.0
C1786 C 0.90797 0.30667 0.8404 0.0
C1787 C 0.91028 0.28329 0.8408 0.0
C1788 C 0.89331 0.26318 0.82787 0.0
C1789 C 0.87532 0.26662 0.81438 0.0
C1790 C 0.92539 0.3288 0.8536 0.0
C1791 C 0.89461 0.23786 0.82727 0.0
H1792 H 0.98173 0.27448 0.84889 0.0
H1793 H 0.94917 0.2729 0.90872 0.0
H1794 H 0.93526 0.26867 0.80778 0.0
H1795 H 0.95026 0.2997 0.81763 0.0
H1796 H 0.96464 0.27734 0.81284 0.0
H1797 H 0.9147 0.27875 0.90902 0.0
H1798 H 0.906 0.29439 0.88775 0.0
H1799 H 0.89747 0.26219 0.88226 0.0
H1800 H 0.88888 0.32752 0.82558 0.0
H1801 H 0.86333 0.25113 0.80343 0.0
H1802 H 0.94111 0.3294 0.84722 0.0
H1803 H 0.92778 0.328 0.87228 0.0
H1804 H 0.92134 0.3457 0.85184 0.0
H1805 H 0.90782 0.23496 0.8175 0.0
H1806 H 0.87914 0.22412 0.81883 0.0
H1807 H 0.89863 0.23504 0.84511 0.0
C1808 C 0.58454 0.23237 0.56769 0.0
C1809 C 0.60031 0.24484 0.58692 0.0
C1810 C 0.5815 0.20765 0.55911 0.0
C1811 C 0.59458 0.19537 0.57002 0.0
C1812 C 0.61089 0.20825 0.58903 0.0
C1813 C 0.61351 0.23275 0.59719 0.0
C1814 C 0.56366 0.19441 0.53909 0.0
C1815 C 0.6251 0.19599 0.60136 0.0
C1816 C 0.57172 0.12772 0.56514 0.0
C1817 C 0.58357 0.11865 0.54907 0.0
C1818 C 0.5753 0.15261 0.57227 0.0
C1819 C 0.59059 0.16885 0.56247 0.0
C1820 C 0.60256 0.15973 0.54615 0.0
C1821 C 0.59916 0.13469 0.53993 0.0
C1822 C 0.56289 0.16148 0.5905 0.0
C1823 C 0.61861 0.17641 0.53493 0.0
H1824 H 0.574 0.2416 0.56009 0.0
H1825 H 0.62558 0.24244 0.61221 0.0
H1826 H 0.56976 0.183 0.52603 0.0
H1827 H 0.55017 0.18226 0.54551 0.0
H1828 H 0.55701 0.20693 0.53049 0.0
H1829 H 0.63638 0.2084 0.61649 0.0
H1830 H 0.61483 0.18049 0.60749 0.0
H1831 H 0.63489 0.1888 0.58915 0.0
H1832 H 0.5599 0.11529 0.57253 0.0
H1833 H 0.60827 0.12763 0.52746 0.0
H1834 H 0.55252 0.17161 0.58319 0.0
H1835 H 0.57443 0.17404 0.60535 0.0
H1836 H 0.55235 0.14651 0.59714 0.0
H1837 H 0.60983 0.18594 0.52444 0.0
H1838 H 0.62741 0.16663 0.52348 0.0
H1839 H 0.63071 0.19034 0.54835 0.0
C1840 C 0.58774 0.79399 0.36666 0.0
C1841 C 0.58564 0.78636 0.38784 0.0
C1842 C 0.60793 0.79898 0.35824 0.0
C1843 C 0.62657 0.79621 0.37116 0.0
C1844 C 0.62478 0.78958 0.39302 0.0
C1845 C 0.60448 0.7847 0.401 0.0
C1846 C 0.6092 0.80662 0.33515 0.0
C1847 C 0.64433 0.78754 0.40801 0.0
C1848 C 0.66806 0.77715 0.33642 0.0
C1849 C 0.68466 0.79882 0.33852 0.0
C1850 C 0.64946 0.77619 0.34726 0.0
C1851 C 0.64708 0.79739 0.36066 0.0
C1852 C 0.66409 0.81924 0.36361 0.0
C1853 C 0.68254 0.81973 0.35237 0.0
C1854 C 0.63214 0.75235 0.34415 0.0
C1855 C 0.66269 0.84228 0.3781 0.0
H1856 H 0.57358 0.79592 0.35654 0.0
H1857 H 0.60346 0.77956 0.41775 0.0
H1858 H 0.62362 0.8224 0.33641 0.0
H1859 H 0.61113 0.79171 0.32214 0.0
H1860 H 0.59438 0.81133 0.3288 0.0
H1861 H 0.64002 0.7808 0.42394 0.0
H1862 H 0.65215 0.77528 0.39813 0.0
H1863 H 0.65659 0.80549 0.41328 0.0
H1864 H 0.66924 0.76091 0.32563 0.0
H1865 H 0.69531 0.83655 0.35444 0.0
H1866 H 0.61642 0.75375 0.33591 0.0
H1867 H 0.62968 0.74765 0.36133 0.0
H1868 H 0.6364 0.73745 0.33328 0.0
H1869 H 0.6518 0.84995 0.36795 0.0
H1870 H 0.6789 0.85593 0.3831 0.0
H1871 H 0.6557 0.83894 0.39409 0.0
C1872 C 0.08674 0.27354 0.427 0.0
C1873 C 0.10935 0.2839 0.43115 0.0
C1874 C 0.07724 0.2522 0.43434 0.0
C1875 C 0.09083 0.24121 0.44611 0.0
C1876 C 0.11379 0.25143 0.44976 0.0
C1877 C 0.12281 0.27286 0.44228 0.0
C1878 C 0.05274 0.24205 0.43007 0.0
C1879 C 0.12878 0.23982 0.46174 0.0
C1880 C 0.07233 0.20524 0.49127 0.0
C1881 C 0.07122 0.18188 0.48015 0.0
C1882 C 0.07729 0.22452 0.47977 0.0
C1883 C 0.08131 0.22035 0.4566 0.0
C1884 C 0.07859 0.19659 0.44463 0.0
C1885 C 0.07369 0.17754 0.45664 0.0
C1886 C 0.07952 0.2496 0.49287 0.0
C1887 C 0.0814 0.19148 0.41941 0.0
H1888 H 0.07649 0.28226 0.41808 0.0
H1889 H 0.14031 0.28087 0.44492 0.0
H1890 H 0.04753 0.22208 0.42708 0.0
H1891 H 0.04606 0.24889 0.44552 0.0
H1892 H 0.04544 0.24776 0.41493 0.0
H1893 H 0.14621 0.25009 0.46319 0.0
H1894 H 0.12487 0.23841 0.47942 0.0
H1895 H 0.12634 0.22127 0.45196 0.0
H1896 H 0.07053 0.20873 0.50945 0.0
H1897 H 0.07228 0.15938 0.44784 0.0
H1898 H 0.0693 0.25822 0.48302 0.0
H1899 H 0.09667 0.26087 0.49483 0.0
H1900 H 0.07467 0.24957 0.5104 0.0
H1901 H 0.0693 0.19727 0.4088 0.0
H1902 H 0.07925 0.17206 0.41276 0.0
H1903 H 0.0978 0.202 0.41694 0.0
C1904 C 0.5749 0.26764 0.20837 0.0
C1905 C 0.56449 0.24906 0.18946 0.0
C1906 C 0.59606 0.26975 0.21853 0.0
C1907 C 0.60649 0.2526 0.20966 0.0
C1908 C 0.5956 0.23332 0.19105 0.0
C1909 C 0.57469 0.23186 0.18113 0.0
C1910 C 0.60753 0.29067 0.23815 0.0
C1911 C 0.60583 0.21412 0.18157 0.0
C1912 C 0.66748 0.26751 0.21599 0.0
C1913 C 0.67168 0.25469 0.23305 0.0
C1914 C 0.64627 0.26774 0.20877 0.0
C1915 C 0.62909 0.25513 0.21918 0.0
C1916 C 0.63334 0.24311 0.23716 0.0
C1917 C 0.6547 0.24303 0.24392 0.0
C1918 C 0.64208 0.28011 0.18903 0.0
C1919 C 0.61522 0.22942 0.24843 0.0
H1920 H 0.56682 0.28088 0.21464 0.0
H1921 H 0.56625 0.21718 0.16677 0.0
H1922 H 0.61435 0.28416 0.25298 0.0
H1923 H 0.62139 0.30284 0.23226 0.0
H1924 H 0.59652 0.30122 0.24429 0.0
H1925 H 0.59701 0.20346 0.16436 0.0
H1926 H 0.62311 0.22206 0.17982 0.0
H1927 H 0.60538 0.20156 0.19376 0.0
H1928 H 0.6807 0.27673 0.20779 0.0
H1929 H 0.65794 0.23288 0.25693 0.0
H1930 H 0.63228 0.29254 0.1939 0.0
H1931 H 0.63253 0.26643 0.17369 0.0
H1932 H 0.6574 0.29046 0.18391 0.0
H1933 H 0.60577 0.24147 0.25546 0.0
H1934 H 0.62142 0.22171 0.26273 0.0
H1935 H 0.60381 0.2145 0.2353 0.0
C1936 C 0.60864 0.89849 0.95478 0.0
C1937 C 0.62045 0.90377 0.93669 0.0
C1938 C 0.60118 0.91604 0.96765 0.0
C1939 C 0.6058 0.9393 0.96227 0.0
C1940 C 0.61784 0.9448 0.94417 0.0
C1941 C 0.62514 0.92696 0.93165 0.0
C1942 C 0.58808 0.90961 0.98673 0.0
C1943 C 0.62315 0.96955 0.93818 0.0
C1944 C 0.5729 0.979 0.98723 0.0
C1945 C 0.58712 0.99212 0.00737 0.0
C1946 C 0.57901 0.9621 0.97175 0.0
C1947 C 0.59964 0.95843 0.97691 0.0
C1948 C 0.6143 0.97241 0.99677 0.0
C1949 C 0.60784 0.98918 0.01175 0.0
C1950 C 0.56327 0.94778 0.95033 0.0
C1951 C 0.63638 0.96885 1.00286 0.0
H1952 H 0.60459 0.88043 0.95838 0.0
H1953 H 0.63419 0.93106 0.91758 0.0
H1954 H 0.59547 0.92254 1.00328 0.0
H1955 H 0.57135 0.91087 0.98229 0.0
H1956 H 0.58694 0.8911 0.98952 0.0
H1957 H 0.63019 0.96995 0.92177 0.0
H1958 H 0.60834 0.97571 0.93648 0.0
H1959 H 0.63506 0.98266 0.95237 0.0
H1960 H 0.55688 0.98146 0.98392 0.0
H1961 H 0.61887 0.99953 0.0273 0.0
H1962 H 0.55821 0.92844 0.95137 0.0
H1963 H 0.5713 0.94926 0.93465 0.0
H1964 H 0.54846 0.95393 0.94816 0.0
H1965 H 0.63425 0.95088 0.00747 0.0
H1966 H 0.64654 0.98278 0.01774 0.0
H1967 H 0.64534 0.96933 0.98778 0.0
C1968 C 0.95015 0.75904 0.72592 0.0
C1969 C 0.94932 0.75732 0.70198 0.0
C1970 C 0.9336 0.76464 0.73692 0.0
C1971 C 0.91575 0.76791 0.72338 0.0
C1972 C 0.91455 0.7657 0.69907 0.0
C1973 C 0.93173 0.76076 0.68859 0.0
C1974 C 0.93521 0.76699 0.76296 0.0
C1975 C 0.89536 0.76867 0.68421 0.0
C1976 C 0.86632 0.75971 0.75264 0.0
C1977 C 0.86707 0.78368 0.76092 0.0
C1978 C 0.88157 0.75431 0.73931 0.0
C1979 C 0.89831 0.7734 0.73501 0.0
C1980 C 0.89957 0.79765 0.74369 0.0
C1981 C 0.88385 0.80255 0.75669 0.0
C1982 C 0.8796 0.72823 0.72968 0.0
C1983 C 0.91751 0.81828 0.7393 0.0
H1984 H 0.96392 0.75637 0.73613 0.0
H1985 H 0.9312 0.7591 0.66997 0.0
H1986 H 0.93341 0.78466 0.771 0.0
H1987 H 0.92181 0.75278 0.76718 0.0
H1988 H 0.95095 0.76538 0.77097 0.0
H1989 H 0.89485 0.76135 0.66553 0.0
H1990 H 0.87976 0.75954 0.68964 0.0
H1991 H 0.89656 0.7881 0.68627 0.0
H1992 H 0.85323 0.74508 0.7556 0.0
H1993 H 0.88431 0.82113 0.76285 0.0
H1994 H 0.89288 0.72294 0.73886 0.0
H1995 H 0.88125 0.72563 0.71098 0.0
H1996 H 0.86379 0.71593 0.73169 0.0
H1997 H 0.93336 0.81812 0.74841 0.0
H1998 H 0.9149 0.83607 0.74541 0.0
H1999 H 0.91871 0.81619 0.72052 0.0
C2000 C 0.14546 0.03804 0.8712 0.0
C2001 C 0.13255 0.0338 0.84919 0.0
C2002 C 0.13672 0.03937 0.89284 0.0
C2003 C 0.11388 0.03527 0.89361 0.0
C2004 C 0.10065 0.03025 0.87134 0.0
C2005 C 0.10998 0.03021 0.85002 0.0
C2006 C 0.15225 0.04527 0.91518 0.0
C2007 C 0.07629 0.02481 0.86987 0.0
C2008 C 0.0892 0.01573 0.9491 0.0
C2009 C 0.08643 0.03691 0.96223 0.0
C2010 C 0.09794 0.01502 0.9275 0.0
C2011 C 0.10408 0.03587 0.9173 0.0
C2012 C 0.10087 0.05725 0.93025 0.0
C2013 C 0.09257 0.05761 0.95217 0.0
C2014 C 0.10051 0.99151 0.91543 0.0
C2015 C 0.1063 0.08014 0.92089 0.0
H2016 H 0.16283 0.04097 0.87164 0.0
H2017 H 0.09928 0.02672 0.83371 0.0
H2018 H 0.14882 0.05948 0.92783 0.0
H2019 H 0.14998 0.02901 0.923 0.0
H2020 H 0.16951 0.05149 0.91248 0.0
H2021 H 0.0678 0.0167 0.8519 0.0
H2022 H 0.07003 0.01231 0.88147 0.0
H2023 H 0.07214 0.04175 0.87569 0.0
H2024 H 0.08458 0.99933 0.95587 0.0
H2025 H 0.09043 0.07421 0.96123 0.0
H2026 H 0.11795 0.99354 0.91424 0.0
H2027 H 0.09161 0.98654 0.89745 0.0
H2028 H 0.09439 0.97658 0.92464 0.0
H2029 H 0.1242 0.08689 0.92156 0.0
H2030 H 0.10062 0.09441 0.93093 0.0
H2031 H 0.09881 0.07662 0.90246 0.0
C2032 C 0.82993 0.41569 0.58398 0.0
C2033 C 0.82687 0.40095 0.5621 0.0
C2034 C 0.84228 0.41161 0.60274 0.0
C2035 C 0.8515 0.3923 0.59925 0.0
C2036 C 0.85029 0.37896 0.57676 0.0
C2037 C 0.83755 0.38315 0.55838 0.0
C2038 C 0.84368 0.42638 0.6266 0.0
C2039 C 0.86059 0.35871 0.57239 0.0
C2040 C 0.87725 0.37634 0.65219 0.0
C2041 C 0.85895 0.35998 0.65717 0.0
C2042 C 0.87543 0.38705 0.63289 0.0
C2043 C 0.8549 0.38098 0.61888 0.0
C2044 C 0.83656 0.36412 0.6238 0.0
C2045 C 0.83892 0.35379 0.64288 0.0
C2046 C 0.89524 0.40464 0.62753 0.0
C2047 C 0.81435 0.35692 0.60904 0.0
H2048 H 0.82256 0.43031 0.58637 0.0
H2049 H 0.83631 0.37284 0.54105 0.0
H2050 H 0.83349 0.41515 0.63708 0.0
H2051 H 0.86067 0.43232 0.63572 0.0
H2052 H 0.83796 0.44251 0.62587 0.0
H2053 H 0.86504 0.35645 0.55463 0.0
H2054 H 0.87535 0.3618 0.58518 0.0
H2055 H 0.8487 0.34161 0.57382 0.0
H2056 H 0.89277 0.38063 0.66327 0.0
H2057 H 0.82503 0.3404 0.64642 0.0
H2058 H 0.89355 0.42311 0.63119 0.0
H2059 H 0.89676 0.40038 0.60888 0.0
H2060 H 0.91047 0.40458 0.63809 0.0
H2061 H 0.80852 0.37298 0.60856 0.0
H2062 H 0.80195 0.34353 0.61564 0.0
H2063 H 0.81534 0.34894 0.59097 0.0
C2064 C 0.51228 0.06749 0.38457 0.0
C2065 C 0.4913 0.05429 0.37406 0.0
C2066 C 0.52101 0.06313 0.40534 0.0
C2067 C 0.50849 0.0446 0.4152 0.0
C2068 C 0.48707 0.03134 0.40479 0.0
C2069 C 0.47852 0.03661 0.38425 0.0
C2070 C 0.54396 0.07772 0.41619 0.0
C2071 C 0.47349 0.01137 0.41493 0.0
C2072 C 0.54723 0.02592 0.45388 0.0
C2073 C 0.54817 0.04179 0.47448 0.0
C2074 C 0.53231 0.0245 0.4346 0.0
C2075 C 0.51843 0.0395 0.43639 0.0
C2076 C 0.51814 0.05398 0.45784 0.0
C2077 C 0.53334 0.05515 0.47681 0.0
C2078 C 0.53264 1.00856 0.41193 0.0
C2079 C 0.50331 0.06997 0.45994 0.0
H2080 H 0.52209 0.08065 0.37608 0.0
H2081 H 0.46246 0.02594 0.37539 0.0
H2082 H 0.54418 0.0864 0.4344 0.0
H2083 H 0.55459 0.0657 0.41651 0.0
H2084 H 0.55103 0.092 0.40661 0.0
H2085 H 0.45894 0.99999 0.40249 0.0
H2086 H 0.48323 0.99965 0.42027 0.0
H2087 H 0.4679 0.01932 0.4307 0.0
H2088 H 0.55856 0.01519 0.45273 0.0
H2089 H 0.53425 0.06721 0.49309 0.0
H2090 H 0.53992 0.01991 0.39982 0.0
H2091 H 0.51584 0.9981 0.40367 0.0
H2092 H 0.5423 0.99581 0.41428 0.0
H2093 H 0.50944 0.08548 0.45149 0.0
H2094 H 0.50247 0.07713 0.4782 0.0
H2095 H 0.4866 0.06001 0.45101 0.0
C2096 C 0.82691 0.74793 0.09327 0.0
C2097 C 0.80823 0.74279 0.07672 0.0
C2098 C 0.82626 0.75445 0.11718 0.0
C2099 C 0.80618 0.75486 0.1249 0.0
C2100 C 0.78732 0.74981 0.1082 0.0
C2101 C 0.78866 0.74428 0.08435 0.0
C2102 C 0.84688 0.75969 0.13412 0.0
C2103 C 0.76544 0.749 0.1156 0.0
C2104 C 0.80033 0.74683 0.18722 0.0
C2105 C 0.8021 0.77034 0.19847 0.0
C2106 C 0.80122 0.74141 0.16325 0.0
C2107 C 0.80472 0.76012 0.15036 0.0
C2108 C 0.80681 0.78397 0.16186 0.0
C2109 C 0.8052 0.78873 0.18569 0.0
C2110 C 0.79879 0.71571 0.15185 0.0
C2111 C 0.81175 0.80464 0.14919 0.0
H2112 H 0.84193 0.746 0.08753 0.0
H2113 H 0.77401 0.73933 0.07174 0.0
H2114 H 0.84814 0.77482 0.14864 0.0
H2115 H 0.84675 0.74355 0.14162 0.0
H2116 H 0.86162 0.76417 0.12553 0.0
H2117 H 0.7521 0.74344 0.10061 0.0
H2118 H 0.76161 0.73617 0.1275 0.0
H2119 H 0.76589 0.76701 0.12527 0.0
H2120 H 0.79841 0.73271 0.19726 0.0
H2121 H 0.8073 0.80704 0.19457 0.0
H2122 H 0.81441 0.71432 0.1463 0.0
H2123 H 0.78633 0.71006 0.13608 0.0
H2124 H 0.79409 0.70297 0.16371 0.0
H2125 H 0.82788 0.80664 0.14335 0.0
H2126 H 0.81202 0.82195 0.16026 0.0
H2127 H 0.79949 0.80091 0.13347 0.0
C2128 C 0.14884 0.01113 0.68696 0.0
C2129 C 0.14004 0.01473 0.70788 0.0
C2130 C 0.13943 0.01505 0.66545 0.0
C2131 C 0.12037 0.02294 0.66388 0.0
C2132 C 0.11105 0.02605 0.68473 0.0
C2133 C 0.12089 0.02217 0.70612 0.0
C2134 C 0.15031 0.01115 0.64428 0.0
C2135 C 0.09035 0.03335 0.68441 0.0
C2136 C 0.10747 0.0558 0.61351 0.0
C2137 C 0.09328 0.03715 0.59617 0.0
C2138 C 0.11623 0.05148 0.63518 0.0
C2139 C 0.11042 0.02798 0.64069 0.0
C2140 C 0.09549 1.00931 0.62346 0.0
C2141 C 0.08762 0.01398 0.6017 0.0
C2142 C 0.13234 0.07214 0.65207 0.0
C2143 C 0.08791 0.9839 0.62748 0.0
H2144 H 0.16364 1.0057 0.68741 0.0
H2145 H 0.11355 0.02519 0.72164 0.0
H2146 H 0.13836 0.9987 0.62971 0.0
H2147 H 0.15645 0.02856 0.63868 0.0
H2148 H 0.16414 1.00362 0.64755 0.0
H2149 H 0.08523 0.03579 0.70183 0.0
H2150 H 0.09249 0.05042 0.67797 0.0
H2151 H 0.0771 0.01935 0.67223 0.0
H2152 H 0.11236 0.0738 0.60988 0.0
H2153 H 0.07671 0.99918 0.58891 0.0
H2154 H 0.14818 0.06816 0.65479 0.0
H2155 H 0.1266 0.07434 0.66916 0.0
H2156 H 0.135 0.08942 0.64589 0.0
H2157 H 0.09966 0.97414 0.62194 0.0
H2158 H 0.07172 0.97399 0.61711 0.0
H2159 H 0.08687 0.98352 0.64605 0.0
C2160 C 0.84417 0.36668 0.43558 0.0
C2161 C 0.82693 0.37647 0.43932 0.0
C2162 C 0.84567 0.35532 0.4134 0.0
C2163 C 0.82922 0.35327 0.39492 0.0
C2164 C 0.81255 0.36444 0.39837 0.0
C2165 C 0.81174 0.37618 0.42066 0.0
C2166 C 0.86435 0.34479 0.40987 0.0
C2167 C 0.79457 0.36243 0.37904 0.0
C2168 C 0.83158 0.33053 0.33227 0.0
C2169 C 0.82025 0.30608 0.32963 0.0
C2170 C 0.836 0.34595 0.3539 0.0
C2171 C 0.8277 0.33684 0.37285 0.0
C2172 C 0.81643 0.31211 0.37037 0.0
C2173 C 0.81328 0.29683 0.34879 0.0
C2174 C 0.84877 0.37208 0.35627 0.0
C2175 C 0.80695 0.30198 0.39026 0.0
H2176 H 0.85636 0.36772 0.45004 0.0
H2177 H 0.79863 0.38411 0.42366 0.0
H2178 H 0.85811 0.3249 0.40455 0.0
H2179 H 0.87265 0.35157 0.39568 0.0
H2180 H 0.87651 0.34931 0.42582 0.0
H2181 H 0.78559 0.37588 0.38344 0.0
H2182 H 0.801 0.36489 0.36261 0.0
H2183 H 0.78285 0.34415 0.37591 0.0
H2184 H 0.8364 0.33785 0.31732 0.0
H2185 H 0.80433 0.27796 0.34664 0.0
H2186 H 0.86271 0.37705 0.37052 0.0
H2187 H 0.83835 0.38387 0.3609 0.0
H2188 H 0.8551 0.37589 0.34004 0.0
H2189 H 0.82025 0.30356 0.40438 0.0
H2190 H 0.79728 0.28273 0.38491 0.0
H2191 H 0.79628 0.31242 0.3975 0.0
C2192 C 0.48131 0.01961 0.24973 0.0
C2193 C 0.46669 0.03327 0.2478 0.0
C2194 C 0.48346 1.00382 0.23037 0.0
C2195 C 0.47148 1.00287 0.20876 0.0
C2196 C 0.45504 0.01458 0.20734 0.0
C2197 C 0.45281 0.02975 0.22708 0.0
C2198 C 0.49995 0.99001 0.23265 0.0
C2199 C 0.44144 0.01313 0.18454 0.0
C2200 C 0.50522 0.01568 0.1625 0.0
C2201 C 0.49725 0.99428 0.14604 0.0
C2202 C 0.49759 0.01806 0.1835 0.0
C2203 C 0.48138 0.99842 0.18797 0.0
C2204 C 0.47372 0.97633 0.17174 0.0
C2205 C 0.48206 0.97441 0.15073 0.0
C2206 C 0.50679 0.0418 0.20066 0.0
C2207 C 0.45735 0.95474 0.17669 0.0
H2208 H 0.49071 0.02091 0.26642 0.0
H2209 H 0.44044 0.03911 0.22631 0.0
H2210 H 0.49561 0.97333 0.21911 0.0
H2211 H 0.51617 1.00146 0.23071 0.0
H2212 H 0.50132 0.98516 0.25003 0.0
H2213 H 0.42735 0.02027 0.18702 0.0
H2214 H 0.45168 0.02382 0.17371 0.0
H2215 H 0.43532 0.99423 0.17485 0.0
H2216 H 0.5178 0.03057 0.15897 0.0
H2217 H 0.47681 0.95763 0.13808 0.0
H2218 H 0.51508 0.03888 0.21682 0.0
H2219 H 0.49354 0.04961 0.20528 0.0
H2220 H 0.5188 0.05531 0.19377 0.0
H2221 H 0.46593 0.94565 0.1879 0.0
H2222 H 0.44919 0.94152 0.16049 0.0
H2223 H 0.44476 0.96 0.18609 0.0
C2224 C 0.78727 0.75123 0.93475 0.0
C2225 C 0.80015 0.73767 0.94328 0.0
C2226 C 0.78979 0.75936 0.91361 0.0
C2227 C 0.80553 0.75383 0.90018 0.0
C2228 C 0.8187 0.74025 0.90872 0.0
C2229 C 0.8159 0.73243 0.93003 0.0
C2230 C 0.77549 0.77395 0.90561 0.0
C2231 C 0.83613 0.73437 0.8956 0.0
C2232 C 0.79869 0.75924 0.83556 0.0
C2233 C 0.81236 0.78247 0.8363 0.0
C2234 C 0.79663 0.7495 0.85601 0.0
C2235 C 0.80866 0.7631 0.8778 0.0
C2236 C 0.82305 0.7862 0.87831 0.0
C2237 C 0.82453 0.79558 0.8578 0.0
C2238 C 0.78125 0.72475 0.85437 0.0
C2239 C 0.83655 0.80149 0.90071 0.0
H2240 H 0.77507 0.75555 0.94464 0.0
H2241 H 0.82611 0.72214 0.93628 0.0
H2242 H 0.78568 0.79151 0.90297 0.0
H2243 H 0.76548 0.76429 0.88866 0.0
H2244 H 0.76445 0.7774 0.91821 0.0
H2245 H 0.84252 0.72057 0.90224 0.0
H2246 H 0.82982 0.72781 0.87682 0.0
H2247 H 0.84987 0.75096 0.89734 0.0
H2248 H 0.78918 0.74893 0.81915 0.0
H2249 H 0.83525 0.81351 0.85872 0.0
H2250 H 0.76819 0.726 0.86499 0.0
H2251 H 0.79009 0.71306 0.86151 0.0
H2252 H 0.77364 0.71605 0.83622 0.0
H2253 H 0.82578 0.80814 0.91199 0.0
H2254 H 0.8492 0.8173 0.89773 0.0
H2255 H 0.84466 0.79072 0.91027 0.0
C2256 C 0.86156 0.10969 0.04161 0.0
C2257 C 0.84524 0.10947 0.02422 0.0
C2258 C 0.88053 0.10466 0.03586 0.0
C2259 C 0.88264 0.09865 0.01217 0.0
C2260 C 0.86622 0.09891 0.99454 0.0
C2261 C 0.84767 0.1047 1.00087 0.0
C2262 C 0.898 0.10513 0.0551 0.0
C2263 C 0.86761 0.09183 0.96912 0.0
C2264 C 0.93883 0.09671 1.00099 0.0
C2265 C 0.93666 0.07216 0.99965 0.0
C2266 C 0.92092 0.10557 1.00388 0.0
C2267 C 0.90087 0.08949 1.00609 0.0
C2268 C 0.89858 0.06466 1.00437 0.0
C2269 C 0.91655 0.05628 1.00105 0.0
C2270 C 0.92348 0.13206 1.00506 0.0
C2271 C 0.8775 0.04711 0.00715 0.0
H2272 H 0.85947 0.11389 0.05967 0.0
H2273 H 0.83474 0.10464 0.98761 0.0
H2274 H 0.90079 0.08716 0.05355 0.0
H2275 H 0.91356 0.1182 0.05361 0.0
H2276 H 0.89371 0.11025 0.07259 0.0
H2277 H 0.85574 0.09735 0.9579 0.0
H2278 H 0.88424 0.0999 0.9654 0.0
H2279 H 0.86402 0.07195 0.96439 0.0
H2280 H 0.95447 0.10886 0.9998 0.0
H2281 H 0.91509 0.03734 1.00031 0.0
H2282 H 0.92179 0.14053 0.02272 0.0
H2283 H 0.91043 0.13449 0.99278 0.0
H2284 H 0.93954 0.14172 1.00092 0.0
H2285 H 0.87453 0.05095 0.02538 0.0
H2286 H 0.8778 0.02809 1.00285 0.0
H2287 H 0.86356 0.04919 0.99592 0.0
C2288 C 0.41272 0.45292 0.06024 0.0
C2289 C 0.40075 0.43405 0.04196 0.0
C2290 C 0.43468 0.46582 0.05978 0.0
C2291 C 0.44494 0.46079 0.04005 0.0
C2292 C 0.43276 0.44185 0.02144 0.0
C2293 C 0.41122 0.42847 0.02288 0.0
C2294 C 0.4469 0.48495 0.08056 0.0
C2295 C 0.44239 0.43577 0.99979 0.0
C2296 C 0.49108 0.51429 0.031 0.0
C2297 C 0.51018 0.50824 0.03759 0.0
C2298 C 0.47007 0.49869 0.03082 0.0
C2299 C 0.46762 0.47646 0.03825 0.0
C2300 C 0.48689 0.46997 0.04452 0.0
C2301 C 0.50782 0.4858 0.04397 0.0
C2302 C 0.4504 0.50624 0.0229 0.0
C2303 C 0.48564 0.44698 0.05321 0.0
H2304 H 0.40506 0.45726 0.07524 0.0
H2305 H 0.40227 0.41391 0.00865 0.0
H2306 H 0.46367 0.48371 0.08488 0.0
H2307 H 0.44825 0.50302 0.07652 0.0
H2308 H 0.43855 0.48345 0.09606 0.0
H2309 H 0.42998 0.42318 0.98564 0.0
H2310 H 0.44999 0.45237 0.99344 0.0
H2311 H 0.45533 0.42722 1.00379 0.0
H2312 H 0.49257 0.53159 0.0261 0.0
H2313 H 0.52232 0.48117 0.04976 0.0
H2314 H 0.44158 0.50957 0.03772 0.0
H2315 H 0.43898 0.49159 0.00949 0.0
H2316 H 0.45484 0.52287 0.01562 0.0
H2317 H 0.4827 0.4496 0.07152 0.0
H2318 H 0.501 0.44189 0.05249 0.0
H2319 H 0.47195 0.43185 0.04308 0.0
C2320 C 0.40772 0.64869 0.74353 0.0
C2321 C 0.39886 0.6276 0.75237 0.0
C2322 C 0.39851 0.66882 0.74489 0.0
C2323 C 0.37945 0.66916 0.75554 0.0
C2324 C 0.37084 0.64819 0.76508 0.0
C2325 C 0.38025 0.6282 0.76327 0.0
C2326 C 0.40958 0.6901 0.7349 0.0
C2327 C 0.35136 0.64672 0.77752 0.0
C2328 C 0.36521 0.73184 0.77326 0.0
C2329 C 0.3469 0.73034 0.75694 0.0
C2330 C 0.37538 0.71255 0.77344 0.0
C2331 C 0.36836 0.69062 0.75616 0.0
C2332 C 0.35029 0.68945 0.73928 0.0
C2333 C 0.3398 0.70847 0.74017 0.0
C2334 C 0.39379 0.71587 0.79261 0.0
C2335 C 0.34224 0.66809 0.71946 0.0
H2336 H 0.42212 0.64954 0.7353 0.0
H2337 H 0.3728 0.61278 0.77056 0.0
H2338 H 0.39743 0.69616 0.72467 0.0
H2339 H 0.4185 0.7053 0.74927 0.0
H2340 H 0.42144 0.68594 0.72365 0.0
H2341 H 0.34907 0.63243 0.78801 0.0
H2342 H 0.35304 0.66422 0.7891 0.0
H2343 H 0.33649 0.64263 0.76462 0.0
H2344 H 0.37141 0.74805 0.78656 0.0
H2345 H 0.32609 0.70636 0.72703 0.0
H2346 H 0.40949 0.72089 0.78585 0.0
H2347 H 0.39248 0.69889 0.79903 0.0
H2348 H 0.39413 0.73036 0.80743 0.0
H2349 H 0.35559 0.66712 0.70915 0.0
H2350 H 0.32805 0.66909 0.70779 0.0
H2351 H 0.33758 0.65117 0.72618 0.0
C2352 C 0.21736 0.60407 0.4978 0.0
C2353 C 0.23416 0.60608 0.51545 0.0
C2354 C 0.19619 0.60082 0.50279 0.0
C2355 C 0.19263 0.60103 0.52605 0.0
C2356 C 0.2097 0.60325 0.54385 0.0
C2357 C 0.23031 0.60511 0.53814 0.0
C2358 C 0.17782 0.59761 0.4835 0.0
C2359 C 0.20631 0.60422 0.56893 0.0
C2360 C 0.14199 0.61359 0.54383 0.0
C2361 C 0.12976 0.59025 0.54407 0.0
C2362 C 0.1629 0.61758 0.538 0.0
C2363 C 0.17083 0.59751 0.53187 0.0
C2364 C 0.15846 0.57397 0.53256 0.0
C2365 C 0.13801 0.57068 0.53904 0.0
C2366 C 0.17622 0.64295 0.53787 0.0
C2367 C 0.16636 0.55219 0.52545 0.0
H2368 H 0.22092 0.60579 0.48049 0.0
H2369 H 0.24383 0.60773 0.55175 0.0
H2370 H 0.16496 0.58056 0.48295 0.0
H2371 H 0.17031 0.6125 0.48683 0.0
H2372 H 0.18336 0.59713 0.46625 0.0
H2373 H 0.22192 0.60893 0.58089 0.0
H2374 H 0.19763 0.61769 0.57429 0.0
H2375 H 0.19605 0.58644 0.57098 0.0
H2376 H 0.13491 0.62836 0.54726 0.0
H2377 H 0.12792 0.5526 0.53874 0.0
H2378 H 0.17975 0.64445 0.5201 0.0
H2379 H 0.19208 0.64737 0.54928 0.0
H2380 H 0.16775 0.65648 0.54383 0.0
H2381 H 0.16877 0.55045 0.50698 0.0
H2382 H 0.15471 0.5352 0.52759 0.0
H2383 H 0.1823 0.55437 0.53586 0.0
C2384 C 0.71854 0.98978 0.75199 0.0
C2385 C 0.7244 0.01276 0.76582 0.0
C2386 C 0.72807 0.9726 0.75817 0.0
C2387 C 0.7428 0.97868 0.77912 0.0
C2388 C 0.74817 1.0018 0.79342 0.0
C2389 C 0.73915 0.01887 0.78625 0.0
C2390 C 0.72271 0.94828 0.7422 0.0
C2391 C 0.76375 1.00866 0.81592 0.0
C2392 C 0.75416 0.92679 0.80235 0.0
C2393 C 0.77436 0.92774 0.79538 0.0
C2394 C 0.74381 0.94395 0.79777 0.0
C2395 C 0.75381 0.96144 0.78531 0.0
C2396 C 0.7743 0.9624 0.77838 0.0
C2397 C 0.78448 0.94553 0.78376 0.0
C2398 C 0.72219 0.9432 0.80586 0.0
C2399 C 0.78493 0.98028 0.76421 0.0
H2400 H 0.70697 0.98553 0.73618 0.0
H2401 H 0.74328 0.03687 0.79679 0.0
H2402 H 0.73786 0.9438 0.73855 0.0
H2403 H 0.71341 0.93415 0.75069 0.0
H2404 H 0.71286 0.94759 0.72543 0.0
H2405 H 0.76327 0.02584 0.82665 0.0
H2406 H 0.75992 0.99428 0.82623 0.0
H2407 H 0.7806 1.01082 0.81212 0.0
H2408 H 0.74644 0.91253 0.81098 0.0
H2409 H 0.79992 0.94548 0.77794 0.0
H2410 H 0.70923 0.93869 0.79066 0.0
H2411 H 0.72278 0.9612 0.81575 0.0
H2412 H 0.71759 0.92969 0.817 0.0
H2413 H 0.77529 0.9758 0.74661 0.0
H2414 H 0.80187 0.98008 0.76239 0.0
H2415 H 0.78525 0.99884 0.77214 0.0
C2416 C 0.77405 0.93683 0.51756 0.0
C2417 C 0.77766 0.92787 0.53771 0.0
C2418 C 0.75511 0.94391 0.5124 0.0
C2419 C 0.73911 0.94139 0.52744 0.0
C2420 C 0.74196 0.93044 0.54675 0.0
C2421 C 0.76136 0.92432 0.55193 0.0
C2422 C 0.75299 0.95558 0.49171 0.0
C2423 C 0.72474 0.92589 0.56236 0.0
C2424 C 0.70791 0.98792 0.53774 0.0
C2425 C 0.68761 0.97622 0.52418 0.0
C2426 C 0.72481 0.97701 0.53821 0.0
C2427 C 0.7213 0.95339 0.52528 0.0
C2428 C 0.7007 0.9414 0.51146 0.0
C2429 C 0.68421 0.95315 0.51077 0.0
C2430 C 0.74645 0.99076 0.55292 0.0
C2431 C 0.69595 0.91618 0.49753 0.0
H2432 H 0.78655 0.93945 0.50646 0.0
H2433 H 0.76388 0.91691 0.56727 0.0
H2434 H 0.73615 0.94889 0.48217 0.0
H2435 H 0.75663 0.97532 0.49781 0.0
H2436 H 0.76441 0.95228 0.47953 0.0
H2437 H 0.72864 0.91575 0.57569 0.0
H2438 H 0.72298 0.94327 0.57128 0.0
H2439 H 0.70875 0.91554 0.55184 0.0
H2440 H 0.71059 1.00583 0.54797 0.0
H2441 H 0.6685 0.9441 0.50021 0.0
H2442 H 0.75983 0.99113 0.54241 0.0
H2443 H 0.74943 0.98156 0.56736 0.0
H2444 H 0.74713 1.00959 0.56044 0.0
H2445 H 0.70458 0.91668 0.48221 0.0
H2446 H 0.67826 0.90784 0.49128 0.0
H2447 H 0.7019 0.90451 0.50799 0.0
C2448 C 0.41312 0.47455 0.77581 0.0
C2449 C 0.40392 0.48907 0.76318 0.0
C2450 C 0.40213 0.44999 0.77654 0.0
C2451 C 0.38083 0.43803 0.76403 0.0
C2452 C 0.37137 0.45241 0.75111 0.0
C2453 C 0.3827 0.47725 0.75092 0.0
C2454 C 0.41377 0.43679 0.79079 0.0
C2455 C 0.34897 0.44142 0.73728 0.0
C2456 C 0.35809 0.36625 0.75105 0.0
C2457 C 0.34321 0.36126 0.76698 0.0
C2458 C 0.37032 0.39052 0.74996 0.0
C2459 C 0.3683 0.41125 0.76523 0.0
C2460 C 0.354 0.40607 0.78189 0.0
C2461 C 0.34166 0.38183 0.78222 0.0
C2462 C 0.3852 0.39399 0.73191 0.0
C2463 C 0.35172 0.42636 0.79976 0.0
H2464 H 0.42938 0.48246 0.78545 0.0
H2465 H 0.3749 0.48729 0.74082 0.0
H2466 H 0.40261 0.42626 0.80098 0.0
H2467 H 0.41963 0.42394 0.77903 0.0
H2468 H 0.42805 0.44928 0.80291 0.0
H2469 H 0.34459 0.45325 0.72592 0.0
H2470 H 0.34791 0.42375 0.72638 0.0
H2471 H 0.3368 0.4381 0.7493 0.0
H2472 H 0.35951 0.3512 0.73862 0.0
H2473 H 0.33031 0.37897 0.79456 0.0
H2474 H 0.40229 0.40205 0.74058 0.0
H2475 H 0.38124 0.40673 0.72143 0.0
H2476 H 0.38402 0.37677 0.72011 0.0
H2477 H 0.36764 0.43535 0.81098 0.0
H2478 H 0.33936 0.42002 0.81092 0.0
H2479 H 0.34715 0.44011 0.79115 0.0
C2480 C 0.20537 0.6424 0.27521 0.0
C2481 C 0.21286 0.62215 0.27369 0.0
C2482 C 0.21988 0.66465 0.27512 0.0
C2483 C 0.24161 0.66563 0.27244 0.0
C2484 C 0.24914 0.64518 0.27092 0.0
C2485 C 0.2346 0.62355 0.27191 0.0
C2486 C 0.2119 0.68674 0.27719 0.0
C2487 C 0.27233 0.64605 0.26763 0.0
C2488 C 0.27333 0.71464 0.24663 0.0
C2489 C 0.28596 0.72997 0.26674 0.0
C2490 C 0.25836 0.69343 0.2483 0.0
C2491 C 0.25672 0.68783 0.27047 0.0
C2492 C 0.27074 0.70227 0.29047 0.0
C2493 C 0.2856 0.7233 0.28829 0.0
C2494 C 0.24374 0.67765 0.22665 0.0
C2495 C 0.26881 0.69651 0.31427 0.0
H2496 H 0.18836 0.64075 0.27636 0.0
H2497 H 0.24002 0.60748 0.27023 0.0
H2498 H 0.22389 0.70239 0.28898 0.0
H2499 H 0.20984 0.69155 0.25989 0.0
H2500 H 0.196 0.68365 0.28373 0.0
H2501 H 0.27506 0.62799 0.26562 0.0
H2502 H 0.27644 0.65355 0.25204 0.0
H2503 H 0.28382 0.65811 0.28277 0.0
H2504 H 0.27385 0.72003 0.22995 0.0
H2505 H 0.29577 0.73534 0.30365 0.0
H2506 H 0.22659 0.67724 0.22786 0.0
H2507 H 0.24462 0.65887 0.22502 0.0
H2508 H 0.24814 0.68417 0.21065 0.0
H2509 H 0.25335 0.69912 0.31916 0.0
H2510 H 0.28254 0.70823 0.32757 0.0
H2511 H 0.26805 0.67744 0.31426 0.0
C2512 C 0.56553 0.71723 0.48805 0.0
C2513 C 0.54755 0.71498 0.47138 0.0
C2514 C 0.56814 0.6974 0.49752 0.0
C2515 C 0.55257 0.67444 0.49007 0.0
C2516 C 0.53428 0.67209 0.4734 0.0
C2517 C 0.53193 0.69232 0.46446 0.0
C2518 C 0.5878 0.70099 0.51533 0.0
C2519 C 0.51709 0.64819 0.46493 0.0
C2520 C 0.57109 0.61866 0.49678 0.0
C2521 C 0.56166 0.61181 0.51593 0.0
C2522 C 0.56809 0.63875 0.48811 0.0
C2523 C 0.55577 0.65282 0.49916 0.0
C2524 C 0.54647 0.64604 0.51877 0.0
C2525 C 0.5493 0.62548 0.52671 0.0
C2526 C 0.57762 0.64453 0.46669 0.0
C2527 C 0.5336 0.66058 0.53146 0.0
H2528 H 0.57775 0.73455 0.49364 0.0
H2529 H 0.51792 0.69024 0.4517 0.0
H2530 H 0.58272 0.6938 0.5308 0.0
H2531 H 0.59862 0.69084 0.50795 0.0
H2532 H 0.59731 0.72026 0.52098 0.0
H2533 H 0.50623 0.64819 0.44912 0.0
H2534 H 0.52462 0.63336 0.46106 0.0
H2535 H 0.50694 0.64424 0.47871 0.0
H2536 H 0.58038 0.60789 0.4882 0.0
H2537 H 0.5419 0.62012 0.54145 0.0
H2538 H 0.58881 0.66312 0.47049 0.0
H2539 H 0.56438 0.64373 0.4528 0.0
H2540 H 0.58669 0.63185 0.46005 0.0
H2541 H 0.54427 0.67912 0.53876 0.0
H2542 H 0.52674 0.6525 0.54582 0.0
H2543 H 0.52005 0.66212 0.51927 0.0
C2544 C 0.68292 0.30788 0.65669 0.0
C2545 C 0.67061 0.3216 0.66777 0.0
C2546 C 0.70173 0.30448 0.66869 0.0
C2547 C 0.70926 0.31575 0.69237 0.0
C2548 C 0.69721 0.33028 0.70341 0.0
C2549 C 0.67794 0.33257 0.69123 0.0
C2550 C 0.71293 0.2878 0.65622 0.0
C2551 C 0.70473 0.34359 0.7282 0.0
C2552 C 0.74352 0.2898 0.73315 0.0
C2553 C 0.76508 0.30408 0.73395 0.0
C2554 C 0.72561 0.29284 0.71924 0.0
C2555 C 0.72882 0.31123 0.70594 0.0
C2556 C 0.75064 0.32548 0.70632 0.0
C2557 C 0.7684 0.32166 0.72009 0.0
C2558 C 0.70303 0.27678 0.71944 0.0
C2559 C 0.75527 0.34537 0.6927 0.0
H2560 H 0.67721 0.29877 0.63876 0.0
H2561 H 0.66861 0.34311 0.70008 0.0
H2562 H 0.7307 0.29661 0.6583 0.0
H2563 H 0.7106 0.27151 0.66402 0.0
H2564 H 0.70644 0.28203 0.63741 0.0
H2565 H 0.69323 0.35327 0.73474 0.0
H2566 H 0.70672 0.33094 0.73969 0.0
H2567 H 0.72091 0.35688 0.72943 0.0
H2568 H 0.74051 0.27664 0.74424 0.0
H2569 H 0.78473 0.33344 0.7211 0.0
H2570 H 0.69516 0.26787 0.70144 0.0
H2571 H 0.69277 0.28773 0.72674 0.0
H2572 H 0.70319 0.26269 0.72984 0.0
H2573 H 0.75322 0.33737 0.67398 0.0
H2574 H 0.77211 0.3576 0.69798 0.0
H2575 H 0.74361 0.35617 0.69491 0.0
C2576 C 0.05535 0.36106 0.97894 0.0
C2577 C 0.03408 0.3463 0.97044 0.0
C2578 C 0.05936 0.38574 0.98868 0.0
C2579 C 0.04175 0.39595 0.98931 0.0
C2580 C 0.0205 0.38134 0.97936 0.0
C2581 C 0.01688 0.35667 0.97054 0.0
C2582 C 0.08229 0.40068 0.99891 0.0
C2583 C 1.00155 0.39182 0.97798 0.0
C2584 C 0.04442 0.4506 0.03578 0.0
C2585 C 0.0494 0.46933 0.02358 0.0
C2586 C 0.04228 0.42672 0.02488 0.0
C2587 C 0.04511 0.42151 1.00123 0.0
C2588 C 0.05011 0.44059 0.98891 0.0
C2589 C 0.05236 0.46426 1.00031 0.0
C2590 C 0.03718 0.40704 0.03873 0.0
C2591 C 0.05367 0.43632 0.96387 0.0
H2592 H 0.06873 0.35315 0.97865 0.0
H2593 H 1.00051 0.34546 0.96335 0.0
H2594 H 0.08637 0.41808 0.99297 0.0
H2595 H 0.08361 0.40487 0.0181 0.0
H2596 H 0.09449 0.39118 0.99426 0.0
H2597 H 0.98622 0.37832 0.96879 0.0
H2598 H 0.99896 0.39901 0.99571 0.0
H2599 H 1.00522 0.4071 0.96874 0.0
H2600 H 0.04255 0.4547 0.0539 0.0
H2601 H 0.05667 0.47896 0.99107 0.0
H2602 H 0.05014 0.39787 0.03872 0.0
H2603 H 0.02164 0.39331 0.03056 0.0
H2604 H 0.03578 0.41404 0.05699 0.0
H2605 H 0.07049 0.43516 0.96315 0.0
H2606 H 0.05173 0.45129 0.95534 0.0
H2607 H 0.04226 0.41919 0.95378 0.0
C2608 C 0.02676 0.7752 0.17176 0.0
C2609 C 0.03497 0.7964 0.16343 0.0
C2610 C 1.00616 0.76969 0.17889 0.0
C2611 C 0.99348 0.78587 0.17788 0.0
C2612 C 1.00136 0.80691 0.16879 0.0
C2613 C 0.02199 0.8119 0.16162 0.0
C2614 C 0.99809 0.74671 0.1878 0.0
C2615 C 0.98842 0.82471 0.16757 0.0
C2616 C 0.93382 0.76783 0.18675 0.0
C2617 C 0.93566 0.77763 0.21036 0.0
C2618 C 0.95253 0.7699 0.17585 0.0
C2619 C 0.97333 0.78236 0.18891 0.0
C2620 C 0.97507 0.79203 0.21284 0.0
C2621 C 0.95621 0.78942 0.22327 0.0
C2622 C 0.95007 0.75892 0.15043 0.0
C2623 C 0.99688 0.80524 0.22747 0.0
H2624 H 0.03646 0.76281 0.17272 0.0
H2625 H 0.02809 0.82815 0.15496 0.0
H2626 H 0.99426 0.75081 0.20564 0.0
H2627 H 0.98281 0.73514 0.17668 0.0
H2628 H 0.01017 0.73632 0.18801 0.0
H2629 H 0.99507 0.83801 0.15682 0.0
H2630 H 0.97112 0.8153 0.16031 0.0
H2631 H 0.98879 0.83462 0.18536 0.0
H2632 H 0.91781 0.7586 0.17691 0.0
H2633 H 0.95746 0.79689 0.24157 0.0
H2634 H 0.95954 0.74571 0.14806 0.0
H2635 H 0.95677 0.77311 0.14064 0.0
H2636 H 0.9328 0.74966 0.14281 0.0
H2637 H 1.00718 0.79288 0.22789 0.0
H2638 H 0.99531 0.81251 0.24559 0.0
H2639 H 1.00551 0.82041 0.21972 0.0
C2640 C 0.55485 0.30796 0.11794 0.0
C2641 C 0.53209 0.29978 0.11529 0.0
C2642 C 0.56535 0.32973 0.11194 0.0
C2643 C 0.55263 0.34301 0.10243 0.0
C2644 C 0.52959 0.33501 0.10022 0.0
C2645 C 0.51954 0.31354 0.1071 0.0
C2646 C 0.58995 0.33828 0.11538 0.0
C2647 C 0.51551 0.34832 0.0893 0.0
C2648 C 0.57385 0.40683 0.09381 0.0
C2649 C 0.57532 0.40268 0.07006 0.0
C2650 C 0.56791 0.38749 0.10521 0.0
C2651 C 0.56311 0.36372 0.09234 0.0
C2652 C 0.56618 0.35961 0.06882 0.0
C2653 C 0.57236 0.37921 0.05799 0.0
C2654 C 0.56548 0.39239 0.13055 0.0
C2655 C 0.56148 0.33445 0.05463 0.0
H2656 H 0.56441 0.2973 0.12478 0.0
H2657 H 0.50193 0.30696 0.10515 0.0
H2658 H 0.59585 0.3411 0.09875 0.0
H2659 H 0.59582 0.35591 0.12763 0.0
H2660 H 0.59738 0.32536 0.12234 0.0
H2661 H 0.4981 0.34115 0.09111 0.0
H2662 H 0.52116 0.3678 0.09723 0.0
H2663 H 0.51683 0.3466 0.07054 0.0
H2664 H 0.57645 0.42508 0.10318 0.0
H2665 H 0.57335 0.37599 0.03958 0.0
H2666 H 0.57386 0.38194 0.14026 0.0
H2667 H 0.54799 0.38646 0.13241 0.0
H2668 H 0.57217 0.41182 0.13862 0.0
H2669 H 0.57137 0.32442 0.06294 0.0
H2670 H 0.56504 0.3345 0.03662 0.0
H2671 H 0.54409 0.32446 0.05384 0.0
C2672 C 0.05928 0.32244 0.33744 0.0
C2673 C 0.06319 0.33142 0.36141 0.0
C2674 C 0.03824 0.31633 0.32509 0.0
C2675 C 0.02103 0.31985 0.33701 0.0
C2676 C 0.02486 0.32858 0.36125 0.0
C2677 C 0.04592 0.33416 0.37319 0.0
C2678 C 0.03461 0.30688 0.29924 0.0
C2679 C 1.00684 0.33256 0.37453 0.0
C2680 C 0.97524 0.33587 0.30517 0.0
C2681 C 0.95809 0.31479 0.30271 0.0
C2682 C 0.99599 0.33746 0.31583 0.0
C2683 C 0.99963 0.31729 0.32389 0.0
C2684 C 0.98254 0.2956 0.32077 0.0
C2685 C 0.96177 0.29466 0.31031 0.0
C2686 C 0.01369 0.36113 0.3196 0.0
C2687 C 0.98614 0.27366 0.32877 0.0
H2688 H 0.07258 0.31999 0.32838 0.0
H2689 H 0.04891 0.34097 0.39177 0.0
H2690 H 0.0194 0.29175 0.29391 0.0
H2691 H 0.03285 0.32143 0.29003 0.0
H2692 H 0.0484 0.30064 0.29351 0.0
H2693 H 0.01281 0.34029 0.39324 0.0
H2694 H 0.99904 0.34492 0.36707 0.0
H2695 H 0.99408 0.31521 0.373 0.0
H2696 H 0.97217 0.35156 0.29971 0.0
H2697 H 0.94836 0.27839 0.30834 0.0
H2698 H 0.02823 0.35837 0.31229 0.0
H2699 H 0.01877 0.36845 0.33848 0.0
H2700 H 1.00832 0.37478 0.31152 0.0
H2701 H 0.99848 0.26768 0.31946 0.0
H2702 H 0.97094 0.25844 0.32566 0.0
H2703 H 0.99264 0.27812 0.34756 0.0
C2704 C 0.98712 0.67414 0.60159 0.0
C2705 C 0.99499 0.68742 0.62403 0.0
C2706 C 0.99923 0.66048 0.59048 0.0
C2707 C 0.01976 0.66106 0.60204 0.0
C2708 C 0.02814 0.6752 0.62431 0.0
C2709 C 0.01547 0.68798 0.6352 0.0
C2710 C 0.99 0.64517 0.56662 0.0
C2711 C 0.05048 0.67705 0.63648 0.0
C2712 C 0.03433 0.60474 0.58217 0.0
C2713 C 0.04626 0.61153 0.56481 0.0
C2714 C 0.02682 0.62147 0.59582 0.0
C2715 C 0.03154 0.64518 0.59156 0.0
C2716 C 0.04542 0.65258 0.57541 0.0
C2717 C 0.05254 0.63533 0.56186 0.0
C2718 C 0.01237 0.61328 0.61333 0.0
C2719 C 0.05119 0.67797 0.57102 0.0
H2720 H 0.97161 0.67445 0.59288 0.0
H2721 H 0.02201 0.69915 0.65226 0.0
H2722 H 1.00178 0.64942 0.55436 0.0
H2723 H 0.98715 0.62586 0.56742 0.0
H2724 H 0.97439 0.64785 0.55958 0.0
H2725 H 0.05412 0.68826 0.65426 0.0
H2726 H 0.05195 0.65888 0.63765 0.0
H2727 H 0.06308 0.68515 0.62629 0.0
H2728 H 0.02972 0.58608 0.584 0.0
H2729 H 0.06194 0.64008 0.54819 0.0
H2730 H 0.99557 0.61362 0.60752 0.0
H2731 H 0.0182 0.62571 0.63041 0.0
H2732 H 0.01178 0.59474 0.61563 0.0
H2733 H 0.03734 0.68025 0.5598 0.0
H2734 H 0.06576 0.68196 0.56211 0.0
H2735 H 0.0543 0.69138 0.58745 0.0
C2736 C 0.67111 0.80821 0.84988 0.0
C2737 C 0.67196 0.83251 0.85523 0.0
C2738 C 0.68511 0.80074 0.83573 0.0
C2739 C 0.70081 0.81824 0.82774 0.0
C2740 C 0.70204 0.84296 0.83359 0.0
C2741 C 0.68711 0.84974 0.84688 0.0
C2742 C 0.68306 0.7742 0.82925 0.0
C2743 C 0.71882 0.86223 0.8257 0.0
C2744 C 0.75098 0.8015 0.81343 0.0
C2745 C 0.74728 0.79711 0.78922 0.0
C2746 C 0.73592 0.80851 0.82621 0.0
C2747 C 0.71666 0.81068 0.81428 0.0
C2748 C 0.71268 0.80576 0.7897 0.0
C2749 C 0.72829 0.79915 0.77733 0.0
C2750 C 0.74104 0.81456 0.85239 0.0
C2751 C 0.69214 0.80774 0.77659 0.0
H2752 H 0.65896 0.79497 0.85609 0.0
H2753 H 0.68741 0.86851 0.85096 0.0
H2754 H 0.682 0.76869 0.81019 0.0
H2755 H 0.69775 0.77055 0.83746 0.0
H2756 H 0.6685 0.76283 0.83486 0.0
H2757 H 0.721 0.88039 0.8363 0.0
H2758 H 0.73486 0.85855 0.82661 0.0
H2759 H 0.71342 0.86262 0.80739 0.0
H2760 H 0.76608 0.80029 0.82234 0.0
H2761 H 0.72593 0.79607 0.75853 0.0
H2762 H 0.72799 0.80321 0.86005 0.0
H2763 H 0.7417 0.83363 0.85871 0.0
H2764 H 0.75683 0.8119 0.85889 0.0
H2765 H 0.67776 0.79494 0.78101 0.0
H2766 H 0.69184 0.80384 0.7575 0.0
H2767 H 0.69052 0.82612 0.7818 0.0
C2768 C 0.50632 0.56193 0.70502 0.0
C2769 C 0.48432 0.56253 0.70388 0.0
C2770 C 0.5176 0.56077 0.68502 0.0
C2771 C 0.50718 0.55986 0.66212 0.0
C2772 C 0.48499 0.56037 0.66087 0.0
C2773 C 0.47418 0.56178 0.68118 0.0
C2774 C 0.54105 0.56074 0.68862 0.0
C2775 C 0.47231 0.55908 0.63765 0.0
C2776 C 0.54288 0.57917 0.61325 0.0
C2777 C 0.54201 0.55742 0.59808 0.0
C2778 C 0.53162 0.58018 0.63318 0.0
C2779 C 0.51929 0.55886 0.63989 0.0
C2780 C 0.51874 0.53672 0.62495 0.0
C2781 C 0.52964 0.53627 0.60459 0.0
C2782 C 0.53323 0.6045 0.64737 0.0
C2783 C 0.50737 0.5131 0.63108 0.0
H2784 H 0.51501 0.56248 0.72185 0.0
H2785 H 0.45733 0.56189 0.67906 0.0
H2786 H 0.54395 0.54681 0.67521 0.0
H2787 H 0.55166 0.57847 0.68691 0.0
H2788 H 0.54602 0.55744 0.70606 0.0
H2789 H 0.45602 0.56166 0.6392 0.0
H2790 H 0.48149 0.57297 0.6288 0.0
H2791 H 0.47008 0.54123 0.62646 0.0
H2792 H 0.55264 0.59587 0.60952 0.0
H2793 H 0.52924 0.51907 0.59431 0.0
H2794 H 0.54181 0.60639 0.6651 0.0
H2795 H 0.51668 0.60613 0.64912 0.0
H2796 H 0.54209 0.61952 0.63957 0.0
H2797 H 0.51661 0.51095 0.64708 0.0
H2798 H 0.5061 0.4975 0.61704 0.0
H2799 H 0.4908 0.51289 0.63481 0.0
C2800 C 0.77061 0.19382 0.97774 0.0
C2801 C 0.78945 0.18621 0.97786 0.0
C2802 C 0.7612 0.1989 0.95767 0.0
C2803 C 0.7714 0.19701 0.93771 0.0
C2804 C 0.78928 0.18733 0.93716 0.0
C2805 C 0.79806 0.18182 0.9574 0.0
C2806 C 0.74162 0.20836 0.95843 0.0
C2807 C 0.80074 0.18539 0.91616 0.0
C2808 C 0.75394 0.21471 0.88208 0.0
C2809 C 0.7668 0.23867 0.88665 0.0
C2810 C 0.75401 0.20092 0.89927 0.0
C2811 C 0.76789 0.21148 0.92063 0.0
C2812 C 0.78023 0.23603 0.92537 0.0
C2813 C 0.77927 0.24941 0.90827 0.0
C2814 C 0.74001 0.17505 0.89438 0.0
C2815 C 0.79527 0.24798 0.94801 0.0
H2816 H 0.76327 0.196 0.9934 0.0
H2817 H 0.8122 0.17516 0.95749 0.0
H2818 H 0.74672 0.22807 0.95899 0.0
H2819 H 0.72951 0.19984 0.94257 0.0
H2820 H 0.73364 0.20507 0.9739 0.0
H2821 H 0.81033 0.17227 0.91642 0.0
H2822 H 0.78906 0.17992 0.89982 0.0
H2823 H 0.81213 0.20329 0.91611 0.0
H2824 H 0.74438 0.20678 0.86509 0.0
H2825 H 0.78919 0.26805 0.91131 0.0
H2826 H 0.73003 0.17179 0.90843 0.0
H2827 H 0.75047 0.16282 0.89405 0.0
H2828 H 0.729 0.17022 0.87755 0.0
H2829 H 0.78574 0.24786 0.96265 0.0
H2830 H 0.80441 0.26696 0.94819 0.0
H2831 H 0.80723 0.23794 0.95122 0.0
C2832 C 0.14283 0.52385 0.18226 0.0
C2833 C 0.15863 0.54327 0.19632 0.0
C2834 C 0.12709 0.52787 0.16691 0.0
C2835 C 0.12711 0.55189 0.16644 0.0
C2836 C 0.14275 0.57162 0.18109 0.0
C2837 C 0.15873 0.56704 0.19569 0.0
C2838 C 0.11097 0.50647 0.15071 0.0
C2839 C 0.14229 0.59731 0.1817 0.0
C2840 C 0.10671 0.55723 0.10754 0.0
C2841 C 0.0844 0.54967 0.1079 0.0
C2842 C 0.12125 0.55902 0.127 0.0
C2843 C 0.11303 0.55608 0.1479 0.0
C2844 C 0.0907 0.55263 0.14934 0.0
C2845 C 0.07629 0.54826 0.12884 0.0
C2846 C 0.14493 0.56177 0.12455 0.0
C2847 C 0.08201 0.552 0.17209 0.0
H2848 H 0.14269 0.50561 0.18358 0.0
H2849 H 0.17056 0.58198 0.20752 0.0
H2850 H 0.09406 0.5069 0.15205 0.0
H2851 H 0.11361 0.50718 0.13253 0.0
H2852 H 0.11256 0.48904 0.15445 0.0
H2853 H 0.15613 0.61056 0.19383 0.0
H2854 H 0.14271 0.60175 0.1642 0.0
H2855 H 0.12684 0.59943 0.18722 0.0
H2856 H 0.11273 0.56063 0.09181 0.0
H2857 H 0.05889 0.54385 0.12919 0.0
H2858 H 0.14962 0.54609 0.12921 0.0
H2859 H 0.1556 0.57814 0.13653 0.0
H2860 H 0.14821 0.56297 0.1066 0.0
H2861 H 0.08013 0.534 0.17651 0.0
H2862 H 0.06586 0.55547 0.17116 0.0
H2863 H 0.09347 0.56558 0.18633 0.0
C2864 C 0.80844 0.84389 0.45725 0.0
C2865 C 0.82887 0.84968 0.47104 0.0
C2866 C 0.8061 0.83691 0.43285 0.0
C2867 C 0.82473 0.8365 0.42197 0.0
C2868 C 0.84545 0.84345 0.43586 0.0
C2869 C 0.84718 0.84942 0.46013 0.0
C2870 C 0.78366 0.82938 0.4188 0.0
C2871 C 0.8659 0.84496 0.42502 0.0
C2872 C 0.82115 0.79669 0.36283 0.0
C2873 C 0.82144 0.81289 0.34787 0.0
C2874 C 0.82146 0.80399 0.38683 0.0
C2875 C 0.8228 0.82826 0.39621 0.0
C2876 C 0.82346 0.84476 0.38105 0.0
C2877 C 0.82231 0.83673 0.35703 0.0
C2878 C 0.82 0.78561 0.40214 0.0
C2879 C 0.825 0.87083 0.38999 0.0
H2880 H 0.79426 0.84428 0.46558 0.0
H2881 H 0.86309 0.85457 0.47065 0.0
H2882 H 0.78365 0.83825 0.40362 0.0
H2883 H 0.7787 0.80964 0.41202 0.0
H2884 H 0.77133 0.83372 0.42927 0.0
H2885 H 0.88085 0.85158 0.43814 0.0
H2886 H 0.86529 0.82697 0.41517 0.0
H2887 H 0.86706 0.85729 0.41252 0.0
H2888 H 0.81995 0.77811 0.35562 0.0
H2889 H 0.82216 0.84914 0.34535 0.0
H2890 H 0.80577 0.78476 0.41147 0.0
H2891 H 0.83475 0.79106 0.41543 0.0
H2892 H 0.81833 0.76732 0.39213 0.0
H2893 H 0.80872 0.87223 0.39334 0.0
H2894 H 0.83049 0.88224 0.37722 0.0
H2895 H 0.83639 0.87818 0.40654 0.0
C2896 C 0.51057 0.57336 0.85788 0.0
C2897 C 0.49853 0.55228 0.8417 0.0
C2898 C 0.5197 0.57266 0.88083 0.0
C2899 C 0.51637 0.55042 0.88875 0.0
C2900 C 0.50341 0.52931 0.87277 0.0
C2901 C 0.49527 0.53041 0.8497 0.0
C2902 C 0.5335 0.59583 0.89644 0.0
C2903 C 0.49749 0.50539 0.88033 0.0
C2904 C 0.5547 0.53955 0.93908 0.0
C2905 C 0.54489 0.54417 0.95897 0.0
C2906 C 0.54616 0.54242 0.91677 0.0
C2907 C 0.52645 0.54892 0.9133 0.0
C2908 C 0.51631 0.55324 0.93339 0.0
C2909 C 0.52584 0.55145 0.95571 0.0
C2910 C 0.55866 0.53901 0.89685 0.0
C2911 C 0.49532 0.55998 0.93169 0.0
H2912 H 0.51334 0.59052 0.85241 0.0
H2913 H 0.48567 0.51395 0.83797 0.0
H2914 H 0.52885 0.59737 0.91408 0.0
H2915 H 0.5508 0.59584 0.89821 0.0
H2916 H 0.53213 0.61191 0.8895 0.0
H2917 H 0.48654 0.49075 0.86654 0.0
H2918 H 0.51242 0.50028 0.88527 0.0
H2919 H 0.48925 0.50691 0.89592 0.0
H2920 H 0.56955 0.53428 0.94107 0.0
H2921 H 0.51793 0.55521 0.97067 0.0
H2922 H 0.56268 0.55567 0.88958 0.0
H2923 H 0.54851 0.5242 0.88275 0.0
H2924 H 0.57401 0.53482 0.90217 0.0
H2925 H 0.49912 0.57986 0.93405 0.0
H2926 H 0.48579 0.55428 0.94551 0.0
H2927 H 0.485 0.55184 0.91458 0.0
C2928 C 0.79107 0.17381 0.11271 0.0
C2929 C 0.80693 0.18191 0.0989 0.0
C2930 C 0.78875 0.1892 0.13238 0.0
C2931 C 0.8027 0.21303 0.13817 0.0
C2932 C 0.81848 0.22136 0.1241 0.0
C2933 C 0.82043 0.20564 0.10462 0.0
C2934 C 0.77159 0.17999 0.14699 0.0
C2935 C 0.83413 0.2465 0.13029 0.0
C2936 C 0.7974 0.26385 0.18297 0.0
C2937 C 0.81243 0.26307 0.20128 0.0
C2938 C 0.79261 0.2463 0.16254 0.0
C2939 C 0.80353 0.22828 0.1607 0.0
C2940 C 0.81819 0.22715 0.17958 0.0
C2941 C 0.82235 0.24455 0.19973 0.0
C2942 C 0.77644 0.24737 0.14275 0.0
C2943 C 0.82994 0.20797 0.17837 0.0
H2944 H 0.7802 0.1556 0.10794 0.0
H2945 H 0.83256 0.21196 0.09384 0.0
H2946 H 0.77928 0.18145 0.16502 0.0
H2947 H 0.76022 0.19121 0.14787 0.0
H2948 H 0.76204 0.16092 0.13998 0.0
H2949 H 0.84348 0.25107 0.11602 0.0
H2950 H 0.82531 0.26008 0.13454 0.0
H2951 H 0.84586 0.24792 0.1459 0.0
H2952 H 0.7893 0.27787 0.18477 0.0
H2953 H 0.83372 0.24393 0.21426 0.0
H2954 H 0.76411 0.22956 0.13671 0.0
H2955 H 0.78496 0.25169 0.12789 0.0
H2956 H 0.76796 0.26116 0.14774 0.0
H2957 H 0.81807 0.19022 0.17778 0.0
H2958 H 0.84284 0.21164 0.19352 0.0
H2959 H 0.83765 0.20658 0.16243 0.0
C2960 C 0.16846 0.57813 0.33217 0.0
C2961 C 0.1512 0.574 0.31412 0.0
C2962 C 0.1682 0.59095 0.35412 0.0
C2963 C 0.15001 0.59915 0.35812 0.0
C2964 C 0.13381 0.59749 0.33945 0.0
C2965 C 0.13452 0.58473 0.31755 0.0
C2966 C 0.18622 0.59347 0.37354 0.0
C2967 C 0.11466 0.60712 0.34315 0.0
C2968 C 0.12544 0.58244 0.40981 0.0
C2969 C 0.12888 0.60494 0.42406 0.0
C2970 C 0.1328 0.58051 0.38854 0.0
C2971 C 0.14435 0.6017 0.38165 0.0
C2972 C 0.149 0.6245 0.39653 0.0
C2973 C 0.14084 0.6259 0.4177 0.0
C2974 C 0.12702 0.55583 0.37296 0.0
C2975 C 0.16232 0.64727 0.39023 0.0
H2976 H 0.18208 0.57104 0.32934 0.0
H2977 H 0.12174 0.58267 0.30333 0.0
H2978 H 0.18971 0.61092 0.38584 0.0
H2979 H 0.18108 0.57882 0.38331 0.0
H2980 H 0.20143 0.59212 0.3668 0.0
H2981 H 0.10562 0.6081 0.32649 0.0
H2982 H 0.10329 0.59512 0.35206 0.0
H2983 H 0.12018 0.62534 0.3544 0.0
H2984 H 0.11567 0.56636 0.41469 0.0
H2985 H 0.14327 0.64323 0.42892 0.0
H2986 H 0.14199 0.5516 0.36826 0.0
H2987 H 0.11672 0.55551 0.35665 0.0
H2988 H 0.11801 0.5413 0.38126 0.0
H2989 H 0.17986 0.64922 0.39527 0.0
H2990 H 0.15877 0.66345 0.39963 0.0
H2991 H 0.15949 0.64679 0.37131 0.0
C2992 C 0.82664 0.83731 0.60534 0.0
C2993 C 0.82413 0.86017 0.60414 0.0
C2994 C 0.82292 0.82698 0.62521 0.0
C2995 C 0.81616 0.8395 0.64448 0.0
C2996 C 0.81343 0.86246 0.64326 0.0
C2997 C 0.81751 0.87246 0.62336 0.0
C2998 C 0.82613 0.80252 0.62549 0.0
C2999 C 0.80643 0.87672 0.6632 0.0
C3000 C 0.78662 0.80465 0.68755 0.0
C3001 C 0.80304 0.80948 0.70667 0.0
C3002 C 0.79069 0.81403 0.6673 0.0
C3003 C 0.81177 0.82871 0.66583 0.0
C3004 C 0.82843 0.83365 0.68514 0.0
C3005 C 0.8239 0.82401 0.70518 0.0
C3006 C 0.7723 0.80828 0.64745 0.0
C3007 C 0.85124 0.84879 0.68452 0.0
H3008 H 0.83171 0.82748 0.59078 0.0
H3009 H 0.81547 0.8901 0.62291 0.0
H3010 H 0.836 0.80268 0.64203 0.0
H3011 H 0.81007 0.78905 0.62425 0.0
H3012 H 0.83426 0.7966 0.61084 0.0
H3013 H 0.80295 0.89313 0.65882 0.0
H3014 H 0.79165 0.86543 0.66846 0.0
H3015 H 0.8195 0.88228 0.67841 0.0
H3016 H 0.77048 0.79334 0.68834 0.0
H3017 H 0.83682 0.8277 0.71967 0.0
H3018 H 0.7767 0.799 0.63153 0.0
H3019 H 0.76951 0.82522 0.64374 0.0
H3020 H 0.75686 0.79665 0.65117 0.0
H3021 H 0.85866 0.83896 0.67148 0.0
H3022 H 0.86178 0.85302 0.7016 0.0
H3023 H 0.85097 0.86594 0.67914 0.0
C3024 C 0.75754 0.46658 0.51217 0.0
C3025 C 0.77702 0.47116 0.52706 0.0
C3026 C 0.73994 0.47329 0.52028 0.0
C3027 C 0.7419 0.48434 0.54389 0.0
C3028 C 0.76109 0.48748 0.55933 0.0
C3029 C 0.77858 0.48111 0.55064 0.0
C3030 C 0.71974 0.46977 0.50328 0.0
C3031 C 0.7632 0.49771 0.58491 0.0
C3032 C 0.71204 0.5311 0.55394 0.0
C3033 C 0.69239 0.51775 0.55933 0.0
C3034 C 0.72858 0.5205 0.54965 0.0
C3035 C 0.72546 0.4961 0.55131 0.0
C3036 C 0.70613 0.48292 0.55824 0.0
C3037 C 0.68948 0.49382 0.56168 0.0
C3038 C 0.74907 0.53519 0.54251 0.0
C3039 C 0.70271 0.45724 0.56131 0.0
H3040 H 0.75627 0.45837 0.49407 0.0
H3041 H 0.7934 0.48366 0.56239 0.0
H3042 H 0.70494 0.46118 0.51034 0.0
H3043 H 0.71858 0.4876 0.50036 0.0
H3044 H 0.71986 0.45848 0.48629 0.0
H3045 H 0.77966 0.50004 0.59433 0.0
H3046 H 0.7598 0.51541 0.5876 0.0
H3047 H 0.75098 0.48543 0.59273 0.0
H3048 H 0.71411 0.54964 0.55222 0.0
H3049 H 0.67423 0.48368 0.56607 0.0
H3050 H 0.75116 0.52648 0.52508 0.0
H3051 H 0.76352 0.53602 0.55483 0.0
H3052 H 0.7488 0.55391 0.54194 0.0
H3053 H 0.69684 0.44489 0.5442 0.0
H3054 H 0.69035 0.4522 0.57285 0.0
H3055 H 0.71813 0.45438 0.56864 0.0
C3056 C 0.21957 0.14414 0.48478 0.0
C3057 C 0.23763 0.14565 0.50094 0.0
C3058 C 0.19816 0.13137 0.48727 0.0
C3059 C 0.19435 0.12067 0.50698 0.0
C3060 C 0.21254 0.12314 0.52385 0.0
C3061 C 0.23382 0.13505 0.52038 0.0
C3062 C 0.17959 0.12894 0.46853 0.0
C3063 C 0.20971 0.11278 0.54547 0.0
C3064 C 0.13528 0.09801 0.52023 0.0
C3065 C 0.12987 0.07319 0.511 0.0
C3066 C 0.1561 0.11378 0.51914 0.0
C3067 C 0.17195 0.10463 0.50858 0.0
C3068 C 0.16646 0.07962 0.49942 0.0
C3069 C 0.14577 0.06447 0.50071 0.0
C3070 C 0.16127 0.1402 0.52957 0.0
C3071 C 0.18247 0.06869 0.48804 0.0
H3072 H 0.22224 0.15251 0.46986 0.0
H3073 H 0.24753 0.13656 0.53332 0.0
H3074 H 0.1707 0.10963 0.46187 0.0
H3075 H 0.16786 0.13777 0.47584 0.0
H3076 H 0.18523 0.13715 0.45375 0.0
H3077 H 0.22398 0.12135 0.55929 0.0
H3078 H 0.19486 0.11509 0.55239 0.0
H3079 H 0.20794 0.0932 0.54123 0.0
H3080 H 0.12343 0.10509 0.52841 0.0
H3081 H 0.14209 0.04539 0.49355 0.0
H3082 H 0.16502 0.15102 0.51599 0.0
H3083 H 0.17598 0.14573 0.54295 0.0
H3084 H 0.1476 0.14457 0.53764 0.0
H3085 H 0.18673 0.0768 0.47281 0.0
H3086 H 0.17595 0.04884 0.48218 0.0
H3087 H 0.19775 0.07267 0.50031 0.0
C3088 C 0.21403 0.9252 0.75192 0.0
C3089 C 0.22588 0.94919 0.75113 0.0
C3090 C 0.22353 0.90535 0.75025 0.0
C3091 C 0.24628 0.90872 0.74906 0.0
C3092 C 0.2583 0.93294 0.74842 0.0
C3093 C 0.24813 0.95218 0.74886 0.0
C3094 C 0.20882 0.88044 0.74949 0.0
C3095 C 0.28235 0.93878 0.74729 0.0
C3096 C 0.27567 0.86213 0.76978 0.0
C3097 C 0.27965 0.84877 0.74922 0.0
C3098 C 0.26495 0.88087 0.76989 0.0
C3099 C 0.25748 0.88755 0.74893 0.0
C3100 C 0.2613 0.87388 0.72807 0.0
C3101 C 0.27201 0.85515 0.72848 0.0
C3102 C 0.2616 0.89368 0.79286 0.0
C3103 C 0.25335 0.87833 0.70482 0.0
H3104 H 0.19686 0.92165 0.75328 0.0
H3105 H 0.25801 0.97004 0.74806 0.0
H3106 H 0.21318 0.86677 0.73706 0.0
H3107 H 0.21067 0.87587 0.76691 0.0
H3108 H 0.19143 0.87922 0.74444 0.0
H3109 H 0.29032 0.95851 0.75054 0.0
H3110 H 0.29045 0.93094 0.7602 0.0
H3111 H 0.2849 0.9307 0.72985 0.0
H3112 H 0.28103 0.85792 0.78615 0.0
H3113 H 0.27442 0.84538 0.71221 0.0
H3114 H 0.24395 0.88907 0.79403 0.0
H3115 H 0.2676 0.91349 0.79428 0.0
H3116 H 0.27001 0.88867 0.80778 0.0
H3117 H 0.23558 0.86931 0.70038 0.0
H3118 H 0.26153 0.87098 0.69087 0.0
H3119 H 0.25596 0.89782 0.70517 0.0
C3120 C 0.39645 0.94659 1.0014 0.0
C3121 C 0.38271 0.96114 0.99856 0.0
C3122 C 0.41844 0.95682 0.01001 0.0
C3123 C 0.42683 0.98213 0.01533 0.0
C3124 C 0.41307 0.99697 0.01301 0.0
C3125 C 0.39102 0.98623 1.00448 0.0
C3126 C 0.43282 0.94059 0.01272 0.0
C3127 C 0.42184 0.0241 0.01852 0.0
C3128 C 0.48516 1.00757 0.04392 0.0
C3129 C 0.49561 1.00915 0.02432 0.0
C3130 C 0.46248 0.99934 0.04148 0.0
C3131 C 0.45038 0.99276 0.01895 0.0
C3132 C 0.46084 0.9948 0.99918 0.0
C3133 C 0.48337 1.00289 1.00213 0.0
C3134 C 0.45164 0.99699 0.06284 0.0
C3135 C 0.44835 0.98754 0.97479 0.0
H3136 H 0.38998 0.92712 0.99711 0.0
H3137 H 0.38028 0.99744 1.00281 0.0
H3138 H 0.4447 0.94279 1.00029 0.0
H3139 H 0.44228 0.9457 0.03044 0.0
H3140 H 0.42333 0.92127 0.00961 0.0
H3141 H 0.40861 0.03286 0.01987 0.0
H3142 H 0.43336 0.03032 0.03503 0.0
H3143 H 0.43093 0.03017 1.00455 0.0
H3144 H 0.49461 0.01261 0.0611 0.0
H3145 H 0.49133 1.00413 0.98686 0.0
H3146 H 0.44656 0.97776 0.06429 0.0
H3147 H 0.43681 1.00315 0.0617 0.0
H3148 H 0.46279 1.00744 0.07892 0.0
H3149 H 0.44206 0.9676 0.97006 0.0
H3150 H 0.4587 0.99386 0.96179 0.0
H3151 H 0.43418 0.99482 0.9736 0.0
C3152 C 0.90973 0.61063 0.79835 0.0
C3153 C 0.90043 0.58564 0.79256 0.0
C3154 C 0.90112 0.62581 0.78692 0.0
C3155 C 0.88265 0.61567 0.76964 0.0
C3156 C 0.87421 0.59042 0.76247 0.0
C3157 C 0.88316 0.57562 0.77414 0.0
C3158 C 0.91094 0.65273 0.79439 0.0
C3159 C 0.85523 0.57914 0.74313 0.0
C3160 C 0.8418 0.65053 0.77261 0.0
C3161 C 0.84502 0.66218 0.7539 0.0
C3162 C 0.85375 0.63496 0.77745 0.0
C3163 C 0.86937 0.63107 0.76323 0.0
C3164 C 0.87239 0.6423 0.74388 0.0
C3165 C 0.86008 0.65789 0.73942 0.0
C3166 C 0.8497 0.62278 0.79793 0.0
C3167 C 0.88897 0.6386 0.7284 0.0
H3168 H 0.92357 0.6184 0.81201 0.0
H3169 H 0.87652 0.55623 0.7689 0.0
H3170 H 0.91225 0.66141 0.77907 0.0
H3171 H 0.90021 0.66024 0.80508 0.0
H3172 H 0.92736 0.65752 0.80483 0.0
H3173 H 0.85057 0.55913 0.73972 0.0
H3174 H 0.84087 0.585 0.74748 0.0
H3175 H 0.85949 0.58529 0.72696 0.0
H3176 H 0.82978 0.65355 0.78344 0.0
H3177 H 0.86249 0.66703 0.72495 0.0
H3178 H 0.86482 0.62808 0.81068 0.0
H3179 H 0.845 0.60292 0.79207 0.0
H3180 H 0.83661 0.62749 0.80689 0.0
H3181 H 0.90506 0.65152 0.73611 0.0
H3182 H 0.88461 0.64198 0.71084 0.0
H3183 H 0.8907 0.62015 0.72663 0.0
C3184 C 0.87884 0.66666 0.02696 0.0
C3185 C 0.86081 0.66045 0.03863 0.0
C3186 C 0.89806 0.66065 0.03332 0.0
C3187 C 0.89918 0.64774 0.05145 0.0
C3188 C 0.88153 0.64266 0.06411 0.0
C3189 C 0.86263 0.64908 0.05759 0.0
C3190 C 0.917 0.66749 0.02023 0.0
C3191 C 0.88245 0.62995 0.08427 0.0
C3192 C 0.93174 0.60273 0.04316 0.0
C3193 C 0.95063 0.61397 0.05916 0.0
C3194 C 0.91491 0.6135 0.04088 0.0
C3195 C 0.91713 0.63636 0.05472 0.0
C3196 C 0.93622 0.64776 0.07121 0.0
C3197 C 0.95279 0.63634 0.07326 0.0
C3198 C 0.89468 0.60031 0.02359 0.0
C3199 C 0.9397 0.67225 0.0862 0.0
H3200 H 0.87792 0.67607 0.01275 0.0
H3201 H 0.8491 0.64484 0.06722 0.0
H3202 H 0.93243 0.67548 0.03252 0.0
H3203 H 0.91851 0.6511 0.00899 0.0
H3204 H 0.91501 0.68055 0.00915 0.0
H3205 H 0.86716 0.62675 0.09201 0.0
H3206 H 0.88555 0.61237 0.07855 0.0
H3207 H 0.89615 0.64094 0.09793 0.0
H3208 H 0.93011 0.58533 0.03242 0.0
H3209 H 0.9675 0.645 0.08563 0.0
H3210 H 0.89296 0.61088 0.00995 0.0
H3211 H 0.88003 0.5983 0.03237 0.0
H3212 H 0.89502 0.58213 0.01509 0.0
H3213 H 0.94811 0.68625 0.077 0.0
H3214 H 0.95022 0.67433 0.10293 0.0
H3215 H 0.92416 0.67568 0.08988 0.0
C3216 C 0.23389 0.0958 0.7584 0.0
C3217 C 0.22122 0.09082 0.77623 0.0
C3218 C 0.24471 0.1199 0.75599 0.0
C3219 C 0.24392 0.14051 0.77217 0.0
C3220 C 0.23095 0.13556 0.79003 0.0
C3221 C 0.21973 0.11133 0.79157 0.0
C3222 C 0.25697 0.12319 0.73576 0.0
C3223 C 0.22874 0.15604 0.80771 0.0
C3224 C 0.29339 0.19889 0.7825 0.0
C3225 C 0.28594 0.21568 0.77174 0.0
C3226 C 0.28007 0.17526 0.78285 0.0
C3227 C 0.25804 0.1667 0.77178 0.0
C3228 C 0.25012 0.18348 0.76082 0.0
C3229 C 0.26391 0.20746 0.76099 0.0
C3230 C 0.28984 0.15922 0.79525 0.0
C3231 C 0.22725 0.17581 0.7479 0.0
H3232 H 0.23495 0.08072 0.74574 0.0
H3233 H 0.20976 0.10848 0.80517 0.0
H3234 H 0.25437 0.13851 0.72826 0.0
H3235 H 0.27465 0.12728 0.74181 0.0
H3236 H 0.25193 0.10672 0.72188 0.0
H3237 H 0.22006 0.14963 0.82183 0.0
H3238 H 0.24504 0.16847 0.81547 0.0
H3239 H 0.21955 0.16653 0.79905 0.0
H3240 H 0.31017 0.20425 0.79085 0.0
H3241 H 0.25755 0.21939 0.75202 0.0
H3242 H 0.28989 0.14299 0.7827 0.0
H3243 H 0.27978 0.153 0.80849 0.0
H3244 H 0.3068 0.16848 0.80394 0.0
H3245 H 0.22672 0.16415 0.73092 0.0
H3246 H 0.22177 0.19152 0.74462 0.0
H3247 H 0.21563 0.1651 0.75752 0.0
C3248 C 0.42225 0.96772 0.27922 0.0
C3249 C 0.4285 0.97464 0.30331 0.0
C3250 C 0.40782 0.94522 0.26962 0.0
C3251 C 0.40004 0.92981 0.28473 0.0
C3252 C 0.40831 0.93571 0.30871 0.0
C3253 C 0.42225 0.95863 0.31794 0.0
C3254 C 0.39929 0.939 0.24393 0.0
C3255 C 0.401 0.91859 0.32477 0.0
C3256 C 0.3419 0.89452 0.27808 0.0
C3257 C 0.34383 0.87156 0.27141 0.0
C3258 C 0.36015 0.9142 0.28039 0.0
C3259 C 0.38037 0.91003 0.27677 0.0
C3260 C 0.3819 0.88669 0.2689 0.0
C3261 C 0.36327 0.86754 0.26599 0.0
C3262 C 0.35808 0.93923 0.28792 0.0
C3263 C 0.40306 0.8817 0.26429 0.0
H3264 H 0.42743 0.98053 0.26811 0.0
H3265 H 0.42758 0.96432 0.3365 0.0
H3266 H 0.39769 0.91988 0.23665 0.0
H3267 H 0.38283 0.94151 0.24115 0.0
H3268 H 0.41001 0.95062 0.23414 0.0
H3269 H 0.41098 0.92481 0.34226 0.0
H3270 H 0.38374 0.91695 0.32673 0.0
H3271 H 0.402 0.90037 0.31734 0.0
H3272 H 0.32638 0.89696 0.28172 0.0
H3273 H 0.36405 0.84927 0.26042 0.0
H3274 H 0.36542 0.95108 0.27623 0.0
H3275 H 0.36705 0.94714 0.30571 0.0
H3276 H 0.34084 0.93922 0.2879 0.0
H3277 H 0.40636 0.8854 0.24697 0.0
H3278 H 0.40232 0.86257 0.26423 0.0
H3279 H 0.41697 0.89337 0.27735 0.0
C3280 C 0.61535 0.38834 0.57166 0.0
C3281 C 0.60323 0.37557 0.58656 0.0
C3282 C 0.60934 0.40714 0.56295 0.0
C3283 C 0.59063 0.41362 0.56912 0.0
C3284 C 0.57812 0.40052 0.58379 0.0
C3285 C 0.58452 0.38183 0.59227 0.0
C3286 C 0.6234 0.42044 0.54753 0.0
C3287 C 0.55799 0.40645 0.59079 0.0
C3288 C 0.5897 0.47859 0.56836 0.0
C3289 C 0.57508 0.4762 0.54819 0.0
C3290 C 0.59455 0.45854 0.57536 0.0
C3291 C 0.58505 0.4351 0.56168 0.0
C3292 C 0.57029 0.43248 0.54117 0.0
C3293 C 0.56528 0.45294 0.53484 0.0
C3294 C 0.60996 0.46255 0.59755 0.0
C3295 C 0.5603 0.40817 0.52547 0.0
H3296 H 0.6298 0.38384 0.56697 0.0
H3297 H 0.57479 0.3721 0.6035 0.0
H3298 H 0.61322 0.42324 0.53256 0.0
H3299 H 0.63313 0.43848 0.55752 0.0
H3300 H 0.63482 0.4107 0.54089 0.0
H3301 H 0.55042 0.39534 0.60296 0.0
H3302 H 0.56209 0.42576 0.59914 0.0
H3303 H 0.54581 0.40341 0.57514 0.0
H3304 H 0.59731 0.49636 0.57898 0.0
H3305 H 0.55417 0.4508 0.51911 0.0
H3306 H 0.6248 0.45752 0.59362 0.0
H3307 H 0.60219 0.45089 0.60919 0.0
H3308 H 0.61495 0.4816 0.60699 0.0
H3309 H 0.57321 0.40232 0.51713 0.0
H3310 H 0.54746 0.40852 0.51164 0.0
H3311 H 0.55316 0.39448 0.53559 0.0
C3312 C 0.46196 0.80674 0.35289 0.0
C3313 C 0.46289 0.7875 0.36397 0.0
C3314 C 0.44208 0.80841 0.34177 0.0
C3315 C 0.42222 0.79051 0.3416 0.0
C3316 C 0.42295 0.77126 0.35316 0.0
C3317 C 0.44314 0.76994 0.36404 0.0
C3318 C 0.44242 0.8293 0.32983 0.0
C3319 C 0.40252 0.75151 0.35349 0.0
C3320 C 0.36842 0.80462 0.32203 0.0
C3321 C 0.36426 0.79427 0.29823 0.0
C3322 C 0.38682 0.80308 0.33659 0.0
C3323 C 0.40134 0.79077 0.32728 0.0
C3324 C 0.39648 0.77949 0.30353 0.0
C3325 C 0.37834 0.78151 0.2895 0.0
C3326 C 0.39095 0.8149 0.36189 0.0
C3327 C 0.41086 0.76573 0.29259 0.0
H3328 H 0.4769 0.8206 0.35279 0.0
H3329 H 0.4434 0.75504 0.3726 0.0
H3330 H 0.43608 0.82252 0.31108 0.0
H3331 H 0.43159 0.83944 0.33721 0.0
H3332 H 0.45904 0.8419 0.33164 0.0
H3333 H 0.40455 0.7418 0.36781 0.0
H3334 H 0.38841 0.75873 0.35535 0.0
H3335 H 0.39864 0.73829 0.33684 0.0
H3336 H 0.35774 0.81444 0.32913 0.0
H3337 H 0.37532 0.7731 0.27127 0.0
H3338 H 0.40685 0.82908 0.36587 0.0
H3339 H 0.39193 0.80141 0.37278 0.0
H3340 H 0.37801 0.82315 0.3668 0.0
H3341 H 0.42718 0.77829 0.29276 0.0
H3342 H 0.40404 0.75648 0.27437 0.0
H3343 H 0.41312 0.75204 0.30271 0.0
C3344 C 0.06897 0.72992 0.08292 0.0
C3345 C 0.08815 0.74791 0.0822 0.0
C3346 C 0.06764 0.70532 0.0774 0.0
C3347 C 0.08617 0.6984 0.07154 0.0
C3348 C 0.10547 0.71648 0.07036 0.0
C3349 C 0.10615 0.741 0.07543 0.0
C3350 C 0.04672 0.68689 0.07915 0.0
C3351 C 0.12567 0.70992 0.06461 0.0
C3352 C 0.09005 0.6364 0.08001 0.0
C3353 C 0.08284 0.6227 0.05748 0.0
C3354 C 0.09119 0.66105 0.08491 0.0
C3355 C 0.08541 0.6723 0.06672 0.0
C3356 C 0.0784 0.65843 0.0439 0.0
C3357 C 0.07692 0.63376 0.03964 0.0
C3358 C 0.09782 0.67482 0.10966 0.0
C3359 C 0.07165 0.66944 0.0241 0.0
H3360 H 0.05517 0.73517 0.08871 0.0
H3361 H 0.12124 0.7548 0.07563 0.0
H3362 H 0.0426 0.67121 0.06451 0.0
H3363 H 0.04875 0.68012 0.09545 0.0
H3364 H 0.03281 0.69468 0.07937 0.0
H3365 H 0.13958 0.72604 0.06505 0.0
H3366 H 0.13054 0.69943 0.07713 0.0
H3367 H 0.12222 0.69827 0.04708 0.0
H3368 H 0.09395 0.62759 0.09394 0.0
H3369 H 0.0708 0.62294 0.02236 0.0
H3370 H 0.08401 0.68073 0.11573 0.0
H3371 H 0.11152 0.69128 0.11072 0.0
H3372 H 0.10277 0.66382 0.12162 0.0
H3373 H 0.05645 0.67426 0.02681 0.0
H3374 H 0.06871 0.65694 0.00707 0.0
H3375 H 0.08434 0.68627 0.02353 0.0
C3376 C 0.09184 0.28261 0.85867 0.0
C3377 C 0.09014 0.28377 0.88227 0.0
C3378 C 0.11226 0.28751 0.85087 0.0
C3379 C 0.13163 0.29256 0.86684 0.0
C3380 C 0.13003 0.29405 0.89083 0.0
C3381 C 0.10937 0.29018 0.89828 0.0
C3382 C 0.11304 0.28664 0.8253 0.0
C3383 C 0.15003 0.29919 0.90863 0.0
C3384 C 0.17683 0.27405 0.83808 0.0
C3385 C 0.19001 0.29604 0.83437 0.0
C3386 C 0.15869 0.27296 0.84984 0.0
C3387 C 0.15305 0.29427 0.85791 0.0
C3388 C 0.16688 0.31667 0.85536 0.0
C3389 C 0.18512 0.31729 0.84375 0.0
C3390 C 0.14507 0.24876 0.853 0.0
C3391 C 0.16187 0.33997 0.86384 0.0
H3392 H 0.0771 0.27784 0.84622 0.0
H3393 H 0.1082 0.29103 0.91657 0.0
H3394 H 0.12538 0.30283 0.82262 0.0
H3395 H 0.11792 0.27062 0.81783 0.0
H3396 H 0.09704 0.28562 0.81562 0.0
H3397 H 0.14579 0.29511 0.9256 0.0
H3398 H 0.16096 0.28853 0.90254 0.0
H3399 H 0.15928 0.31852 0.91141 0.0
H3400 H 0.18011 0.2574 0.83098 0.0
H3401 H 0.19535 0.33452 0.84169 0.0
H3402 H 0.12873 0.24406 0.84247 0.0
H3403 H 0.14269 0.24954 0.87143 0.0
H3404 H 0.15261 0.23418 0.84773 0.0
H3405 H 0.14776 0.34109 0.85215 0.0
H3406 H 0.17589 0.35595 0.86416 0.0
H3407 H 0.15733 0.34068 0.8815 0.0
C3408 C 0.58493 0.76 0.92192 0.0
C3409 C 0.6065 0.77466 0.92834 0.0
C3410 C 0.57763 0.73879 0.93053 0.0
C3411 C 0.59232 0.73217 0.94579 0.0
C3412 C 0.61429 0.7465 0.95164 0.0
C3413 C 0.62107 0.76763 0.94295 0.0
C3414 C 0.55402 0.72418 0.92406 0.0
C3415 C 0.63059 0.73977 0.96746 0.0
C3416 C 0.57455 0.69705 0.99209 0.0
C3417 C 0.57707 0.67449 0.98315 0.0
C3418 C 0.57814 0.71551 0.9794 0.0
C3419 C 0.58467 0.71145 0.9573 0.0
C3420 C 0.58621 0.68839 0.94761 0.0
C3421 C 0.58235 0.67011 0.96066 0.0
C3422 C 0.5761 0.73979 0.99022 0.0
C3423 C 0.59249 0.68327 0.92376 0.0
H3424 H 0.57361 0.76538 0.91062 0.0
H3425 H 0.63784 0.7787 0.9477 0.0
H3426 H 0.55214 0.70458 0.92166 0.0
H3427 H 0.54498 0.72891 0.93828 0.0
H3428 H 0.5464 0.72794 0.90792 0.0
H3429 H 0.64717 0.75259 0.96986 0.0
H3430 H 0.6253 0.73934 0.98473 0.0
H3431 H 0.63145 0.72145 0.96022 0.0
H3432 H 0.57072 0.70072 0.00952 0.0
H3433 H 0.58383 0.65254 0.95343 0.0
H3434 H 0.56583 0.7461 0.97791 0.0
H3435 H 0.59244 0.75321 0.99421 0.0
H3436 H 0.5689 0.73933 0.00653 0.0
H3437 H 0.58024 0.6859 0.91066 0.0
H3438 H 0.59364 0.66461 0.919 0.0
H3439 H 0.6084 0.6961 0.9229 0.0
C3440 C 0.07769 0.78057 0.68895 0.0
C3441 C 0.06178 0.75927 0.68936 0.0
C3442 C 0.09958 0.78306 0.69628 0.0
C3443 C 0.10528 0.76357 0.70371 0.0
C3444 C 0.08906 0.74206 0.70427 0.0
C3445 C 0.06731 0.74025 0.69716 0.0
C3446 C 0.1166 0.80602 0.6951 0.0
C3447 C 0.09467 0.72084 0.71189 0.0
C3448 C 0.16122 0.75703 0.69933 0.0
C3449 C 0.1711 0.76483 0.72255 0.0
C3450 C 0.13988 0.75717 0.6928 0.0
C3451 C 0.1283 0.76521 0.71 0.0
C3452 C 0.13835 0.77375 0.73334 0.0
C3453 C 0.15979 0.77354 0.73936 0.0
C3454 C 0.12944 0.74779 0.66774 0.0
C3455 C 0.12631 0.78262 0.75194 0.0
H3456 H 0.07303 0.79493 0.68231 0.0
H3457 H 0.05467 0.72368 0.69686 0.0
H3458 H 0.12804 0.81288 0.71164 0.0
H3459 H 0.12628 0.8023 0.68117 0.0
H3460 H 0.10924 0.82034 0.69142 0.0
H3461 H 0.08032 0.70462 0.70877 0.0
H3462 H 0.10756 0.71617 0.70258 0.0
H3463 H 0.10113 0.72566 0.7307 0.0
H3464 H 0.16991 0.74997 0.68639 0.0
H3465 H 0.16762 0.77985 0.75725 0.0
H3466 H 0.1228 0.76139 0.66109 0.0
H3467 H 0.11559 0.7314 0.66639 0.0
H3468 H 0.14108 0.74321 0.65639 0.0
H3469 H 0.12129 0.79827 0.74773 0.0
H3470 H 0.13636 0.78811 0.76939 0.0
H3471 H 0.11126 0.76831 0.75259 0.0
C3472 C 0.125 0.43353 0.44959 0.0
C3473 C 0.10955 0.41088 0.44542 0.0
C3474 C 0.11923 0.45426 0.45851 0.0
C3475 C 0.09772 0.45188 0.46325 0.0
C3476 C 0.08167 0.42937 0.45679 0.0
C3477 C 0.08784 0.40911 0.44803 0.0
C3478 C 0.13631 0.47845 0.46409 0.0
C3479 C 0.0583 0.42641 0.4605 0.0
C3480 C 0.09356 0.49105 0.51854 0.0
C3481 C 0.08276 0.50635 0.51027 0.0
C3482 C 0.0983 0.47312 0.50324 0.0
C3483 C 0.09302 0.47133 0.47905 0.0
C3484 C 0.08208 0.48685 0.47057 0.0
C3485 C 0.07667 0.50396 0.48646 0.0
C3486 C 0.10863 0.45587 0.51309 0.0
C3487 C 0.07656 0.48621 0.445 0.0
H3488 H 0.14163 0.43493 0.44685 0.0
H3489 H 0.07565 0.39167 0.44367 0.0
H3490 H 0.12922 0.4928 0.45993 0.0
H3491 H 0.14265 0.48306 0.48293 0.0
H3492 H 0.15022 0.47836 0.45442 0.0
H3493 H 0.04784 0.40756 0.45433 0.0
H3494 H 0.05755 0.4319 0.47923 0.0
H3495 H 0.05145 0.43827 0.45113 0.0
H3496 H 0.09793 0.49277 0.53708 0.0
H3497 H 0.0682 0.51577 0.48021 0.0
H3498 H 0.12542 0.45876 0.50894 0.0
H3499 H 0.09928 0.43696 0.50522 0.0
H3500 H 0.10944 0.45824 0.53224 0.0
H3501 H 0.08888 0.50106 0.4401 0.0
H3502 H 0.06044 0.48936 0.44124 0.0
H3503 H 0.07643 0.46905 0.43385 0.0
C3504 C 0.45517 0.25735 0.21793 0.0
C3505 C 0.45144 0.24684 0.19439 0.0
C3506 C 0.43888 0.26446 0.22835 0.0
C3507 C 0.41832 0.25999 0.21492 0.0
C3508 C 0.41432 0.24883 0.19116 0.0
C3509 C 0.43127 0.24284 0.18095 0.0
C3510 C 0.44361 0.27658 0.25368 0.0
C3511 C 0.39224 0.24316 0.17665 0.0
C3512 C 0.37171 0.25614 0.24868 0.0
C3513 C 0.36816 0.27856 0.24846 0.0
C3514 C 0.38778 0.24968 0.23733 0.0
C3515 C 0.40085 0.26634 0.2261 0.0
C3516 C 0.39774 0.28926 0.22624 0.0
C3517 C 0.38134 0.29518 0.23756 0.0
C3518 C 0.39039 0.22486 0.23697 0.0
C3519 C 0.41158 0.3073 0.21429 0.0
H3520 H 0.47099 0.26041 0.22807 0.0
H3521 H 0.42866 0.23449 0.16272 0.0
H3522 H 0.43904 0.29363 0.256 0.0
H3523 H 0.43369 0.26472 0.26386 0.0
H3524 H 0.46106 0.28068 0.26097 0.0
H3525 H 0.39089 0.23079 0.15985 0.0
H3526 H 0.37908 0.23483 0.1861 0.0
H3527 H 0.38944 0.2601 0.17297 0.0
H3528 H 0.3615 0.24331 0.25717 0.0
H3529 H 0.37837 0.31243 0.23715 0.0
H3530 H 0.40598 0.22629 0.24769 0.0
H3531 H 0.39084 0.21596 0.21903 0.0
H3532 H 0.37687 0.21321 0.24375 0.0
H3533 H 0.42878 0.31265 0.22275 0.0
H3534 H 0.40613 0.32376 0.21482 0.0
H3535 H 0.41112 0.29908 0.19589 0.0
C3536 C 0.64996 0.53614 0.37726 0.0
C3537 C 0.63697 0.5308 0.35515 0.0
C3538 C 0.64114 0.53749 0.39886 0.0
C3539 C 0.6182 0.53227 0.3995 0.0
C3540 C 0.60493 0.52615 0.37714 0.0
C3541 C 0.61428 0.52612 0.35584 0.0
C3542 C 0.65671 0.5447 0.42128 0.0
C3543 C 0.5805 0.51948 0.37554 0.0
C3544 C 0.59375 0.51319 0.45531 0.0
C3545 C 0.58943 0.53396 0.46738 0.0
C3546 C 0.60316 0.51255 0.4341 0.0
C3547 C 0.60832 0.53297 0.42314 0.0
C3548 C 0.60369 0.55395 0.43509 0.0
C3549 C 0.59457 0.55419 0.45654 0.0
C3550 C 0.60704 0.48941 0.42296 0.0
C3551 C 0.60814 0.57638 0.42497 0.0
H3552 H 0.66742 0.53996 0.37779 0.0
H3553 H 0.60354 0.52178 0.33945 0.0
H3554 H 0.65259 0.55872 0.43351 0.0
H3555 H 0.65527 0.52885 0.42961 0.0
H3556 H 0.67388 0.55171 0.41856 0.0
H3557 H 0.57221 0.51057 0.35765 0.0
H3558 H 0.57479 0.50723 0.38753 0.0
H3559 H 0.57551 0.536 0.38072 0.0
H3560 H 0.5893 0.49692 0.46231 0.0
H3561 H 0.59068 0.57022 0.46442 0.0
H3562 H 0.62458 0.4925 0.42165 0.0
H3563 H 0.59797 0.48327 0.40504 0.0
H3564 H 0.60192 0.47485 0.43285 0.0
H3565 H 0.62595 0.58373 0.42531 0.0
H3566 H 0.60205 0.59051 0.43465 0.0
H3567 H 0.6004 0.57205 0.40656 0.0
C3568 C 0.34755 0.92304 0.06988 0.0
C3569 C 0.32827 0.90759 0.05625 0.0
C3570 C 0.35663 0.91702 0.08956 0.0
C3571 C 0.34587 0.89532 0.09582 0.0
C3572 C 0.32662 0.87938 0.08195 0.0
C3573 C 0.3181 0.88569 0.06206 0.0
C3574 C 0.37769 0.93372 0.10351 0.0
C3575 C 0.31455 0.85614 0.08853 0.0
C3576 C 0.36626 0.86205 0.13695 0.0
C3577 C 0.35522 0.8675 0.15544 0.0
C3578 C 0.36582 0.87357 0.11817 0.0
C3579 C 0.35345 0.89003 0.11792 0.0
C3580 C 0.34489 0.89797 0.13785 0.0
C3581 C 0.34657 0.88703 0.15686 0.0
C3582 C 0.37612 0.86586 0.09748 0.0
C3583 C 0.33196 0.91601 0.13823 0.0
H3584 H 0.35585 0.93973 0.06495 0.0
H3585 H 0.30339 0.87373 0.05128 0.0
H3586 H 0.37543 0.93947 0.1217 0.0
H3587 H 0.3903 0.92408 0.10404 0.0
H3588 H 0.38389 0.95006 0.09618 0.0
H3589 H 0.30101 0.84493 0.07475 0.0
H3590 H 0.32576 0.84533 0.09202 0.0
H3591 H 0.30769 0.86034 0.10469 0.0
H3592 H 0.37326 0.84714 0.1359 0.0
H3593 H 0.33894 0.89189 0.17175 0.0
H3594 H 0.3844 0.88169 0.0904 0.0
H3595 H 0.3633 0.85363 0.08354 0.0
H3596 H 0.38811 0.85621 0.10198 0.0
H3597 H 0.34283 0.93389 0.13735 0.0
H3598 H 0.32426 0.91796 0.15417 0.0
H3599 H 0.31894 0.91057 0.12296 0.0
C3600 C 1.0086 0.57471 0.89811 0.0
C3601 C 0.9886 0.55961 0.88658 0.0
C3602 C 0.01758 0.57048 0.91883 0.0
C3603 C 1.00643 0.55016 0.92738 0.0
C3604 C 0.98592 0.53509 0.91596 0.0
C3605 C 0.97702 0.54026 0.89561 0.0
C3606 C 0.03944 0.58706 0.93098 0.0
C3607 C 0.97374 0.51341 0.92489 0.0
C3608 C 0.04757 0.53375 0.96491 0.0
C3609 C 0.04677 0.54757 0.98612 0.0
C3610 C 0.03265 0.53217 0.9456 0.0
C3611 C 0.01692 0.54483 0.94806 0.0
C3612 C 0.01491 0.55695 0.97004 0.0
C3613 C 0.03034 0.55863 0.98892 0.0
C3614 C 0.03471 0.5185 0.92238 0.0
C3615 C 0.99774 0.56982 0.97345 0.0
H3616 H 0.01755 0.58915 0.8904 0.0
H3617 H 0.96176 0.52826 0.88591 0.0
H3618 H 0.03829 0.59428 0.94923 0.0
H3619 H 0.05165 0.57689 0.9313 0.0
H3620 H 0.04544 0.60248 0.92234 0.0
H3621 H 0.95989 0.50138 0.9119 0.0
H3622 H 0.98474 0.50278 0.92976 0.0
H3623 H 0.96728 0.51958 0.94076 0.0
H3624 H 0.06013 0.52469 0.96338 0.0
H3625 H 0.03005 0.56933 1.00558 0.0
H3626 H 0.04121 0.53145 0.91128 0.0
H3627 H 0.01852 0.50684 0.91335 0.0
H3628 H 0.04581 0.50711 0.92411 0.0
H3629 H 1.00533 0.5895 0.97542 0.0
H3630 H 0.99088 0.56661 0.98951 0.0
H3631 H 0.98406 0.56389 0.95887 0.0
C3632 C 0.31049 0.21508 0.58718 0.0
C3633 C 0.31186 0.2304 0.57097 0.0
C3634 C 0.31043 0.22334 0.61082 0.0
C3635 C 0.31198 0.24779 0.61899 0.0
C3636 C 0.31403 0.26365 0.60301 0.0
C3637 C 0.31366 0.25474 0.57912 0.0
C3638 C 0.30827 0.2056 0.62694 0.0
C3639 C 0.31693 0.29011 0.61132 0.0
C3640 C 0.29109 0.26271 0.67662 0.0
C3641 C 0.31035 0.27012 0.69265 0.0
C3642 C 0.29144 0.25577 0.65261 0.0
C3643 C 0.31151 0.25655 0.64428 0.0
C3644 C 0.33099 0.26426 0.66039 0.0
C3645 C 0.33014 0.2708 0.68419 0.0
C3646 C 0.27024 0.24693 0.63615 0.0
C3647 C 0.35277 0.26468 0.65281 0.0
H3648 H 0.30889 0.19614 0.58134 0.0
H3649 H 0.31494 0.26681 0.56695 0.0
H3650 H 0.3213 0.21253 0.64218 0.0
H3651 H 0.29245 0.20318 0.63352 0.0
H3652 H 0.30909 0.18768 0.61823 0.0
H3653 H 0.31758 0.30005 0.59683 0.0
H3654 H 0.30339 0.29261 0.62074 0.0
H3655 H 0.33228 0.29813 0.62374 0.0
H3656 H 0.2757 0.26179 0.68286 0.0
H3657 H 0.34522 0.27633 0.69623 0.0
H3658 H 0.26749 0.22779 0.62785 0.0
H3659 H 0.271 0.25741 0.62208 0.0
H3660 H 0.25611 0.24836 0.64504 0.0
H3661 H 0.35448 0.24618 0.65028 0.0
H3662 H 0.36652 0.27653 0.66604 0.0
H3663 H 0.3542 0.27087 0.63612 0.0
C3664 C 0.65599 0.53338 0.20417 0.0
C3665 C 0.64657 0.51338 0.214 0.0
C3666 C 0.64707 0.53687 0.18223 0.0
C3667 C 0.62782 0.52004 0.16883 0.0
C3668 C 0.61834 0.49954 0.17851 0.0
C3669 C 0.62764 0.4965 0.20063 0.0
C3670 C 0.65857 0.55876 0.17328 0.0
C3671 C 0.59842 0.48039 0.16519 0.0
C3672 C 0.59447 0.54188 0.12135 0.0
C3673 C 0.59967 0.53167 0.10004 0.0
C3674 C 0.60297 0.53786 0.14332 0.0
C3675 C 0.61789 0.52383 0.14493 0.0
C3676 C 0.62342 0.51384 0.12344 0.0
C3677 C 0.61421 0.51756 0.10172 0.0
C3678 C 0.59559 0.54841 0.16499 0.0
C3679 C 0.6398 0.49973 0.12319 0.0
H3680 H 0.67066 0.54657 0.21378 0.0
H3681 H 0.62013 0.48066 0.20732 0.0
H3682 H 0.66176 0.55331 0.15537 0.0
H3683 H 0.648 0.5708 0.17254 0.0
H3684 H 0.67427 0.56911 0.18441 0.0
H3685 H 0.59158 0.46671 0.17549 0.0
H3686 H 0.58567 0.48869 0.15974 0.0
H3687 H 0.60268 0.47109 0.14917 0.0
H3688 H 0.58325 0.55266 0.12088 0.0
H3689 H 0.61883 0.5096 0.08584 0.0
H3690 H 0.6098 0.56104 0.17704 0.0
H3691 H 0.5882 0.53382 0.17408 0.0
H3692 H 0.58351 0.55818 0.16124 0.0
H3693 H 0.65642 0.51252 0.128 0.0
H3694 H 0.63877 0.48864 0.10574 0.0
H3695 H 0.63758 0.48775 0.13598 0.0
C3696 C 0.33655 0.86772 0.92577 0.0
C3697 C 0.31877 0.87668 0.92918 0.0
C3698 C 0.33969 0.85848 0.90348 0.0
C3699 C 0.32429 0.85761 0.88441 0.0
C3700 C 0.30719 0.86818 0.88759 0.0
C3701 C 0.30472 0.87779 0.91009 0.0
C3702 C 0.35887 0.84871 0.90041 0.0
C3703 C 0.29045 0.86766 0.8676 0.0
C3704 C 0.32992 0.8359 0.82226 0.0
C3705 C 0.31867 0.81136 0.81912 0.0
C3706 C 0.33298 0.85119 0.84386 0.0
C3707 C 0.32358 0.84175 0.86218 0.0
C3708 C 0.31242 0.81692 0.85914 0.0
C3709 C 0.31052 0.8019 0.83771 0.0
C3710 C 0.3458 0.87738 0.84693 0.0
C3711 C 0.30189 0.80632 0.8783 0.0
H3712 H 0.34805 0.86789 0.94054 0.0
H3713 H 0.29134 0.88534 0.91277 0.0
H3714 H 0.35308 0.82888 0.89429 0.0
H3715 H 0.36776 0.85643 0.88699 0.0
H3716 H 0.37042 0.8528 0.91679 0.0
H3717 H 0.28195 0.88157 0.87197 0.0
H3718 H 0.29787 0.8705 0.85177 0.0
H3719 H 0.27812 0.84971 0.86347 0.0
H3720 H 0.33587 0.84329 0.80773 0.0
H3721 H 0.30167 0.78296 0.83519 0.0
H3722 H 0.36009 0.88164 0.86065 0.0
H3723 H 0.33571 0.88919 0.85272 0.0
H3724 H 0.35167 0.88189 0.8307 0.0
H3725 H 0.31463 0.80738 0.89282 0.0
H3726 H 0.29212 0.78717 0.87232 0.0
H3727 H 0.29108 0.81674 0.88522 0.0
C3728 C 0.95396 0.5344 0.7386 0.0
C3729 C 0.96891 0.5403 0.75894 0.0
C3730 C 0.95914 0.52427 0.71776 0.0
C3731 C 0.9796 0.51983 0.71766 0.0
C3732 C 0.99417 0.52429 0.73848 0.0
C3733 C 0.98874 0.53494 0.759 0.0
C3734 C 0.9434 0.51986 0.6957 0.0
C3735 C 0.01602 0.51942 0.739 0.0
C3736 C 0.9917 0.49107 0.66065 0.0
C3737 C 1.00163 0.51175 0.65255 0.0
C3738 C 0.98441 0.49321 0.68222 0.0
C3739 C 0.98769 0.51649 0.69557 0.0
C3740 C 0.99804 0.53735 0.6875 0.0
C3741 C 1.0047 0.53467 0.66592 0.0
C3742 C 0.97363 0.47081 0.69087 0.0
C3743 C 1.00226 0.56251 0.70167 0.0
H3744 H 0.93833 0.53798 0.73902 0.0
H3745 H 0.99979 0.53861 0.77512 0.0
H3746 H 0.95036 0.5327 0.68467 0.0
H3747 H 0.94079 0.5014 0.68563 0.0
H3748 H 0.92738 0.52215 0.69916 0.0
H3749 H 0.02158 0.51593 0.75617 0.0
H3750 H 0.01557 0.50382 0.72536 0.0
H3751 H 0.02825 0.53548 0.73593 0.0
H3752 H 0.99003 0.47345 0.65035 0.0
H3753 H 0.01323 0.5506 0.65987 0.0
H3754 H 0.95645 0.47003 0.69243 0.0
H3755 H 0.98189 0.47136 0.70843 0.0
H3756 H 0.97386 0.45411 0.67911 0.0
H3757 H 0.98657 0.56604 0.70459 0.0
H3758 H 0.01144 0.57666 0.69307 0.0
H3759 H 0.0117 0.56425 0.71892 0.0
C3760 C 0.30371 0.25508 0.43395 0.0
C3761 C 0.30432 0.23189 0.43662 0.0
C3762 C 0.30681 0.2631 0.41281 0.0
C3763 C 0.30969 0.24732 0.39319 0.0
C3764 C 0.31021 0.22384 0.39576 0.0
C3765 C 0.30795 0.21663 0.4174 0.0
C3766 C 0.30692 0.28855 0.41149 0.0
C3767 C 0.31317 0.20624 0.37557 0.0
C3768 C 0.29606 0.26013 0.33211 0.0
C3769 C 0.31671 0.27119 0.32684 0.0
C3770 C 0.29357 0.25234 0.35345 0.0
C3771 C 0.31213 0.25532 0.37008 0.0
C3772 C 0.33302 0.26611 0.36456 0.0
C3773 C 0.33501 0.274 0.34327 0.0
C3774 C 0.27095 0.24106 0.35829 0.0
C3775 C 0.3534 0.27004 0.38143 0.0
H3776 H 0.3011 0.26718 0.4486 0.0
H3777 H 0.30841 0.19867 0.41906 0.0
H3778 H 0.32136 0.2976 0.4041 0.0
H3779 H 0.29225 0.28822 0.39977 0.0
H3780 H 0.30706 0.29946 0.42876 0.0
H3781 H 0.31061 0.18786 0.37934 0.0
H3782 H 0.30167 0.2052 0.3599 0.0
H3783 H 0.3299 0.21258 0.37138 0.0
H3784 H 0.28176 0.25807 0.31977 0.0
H3785 H 0.35104 0.28267 0.33957 0.0
H3786 H 0.26782 0.2518 0.37416 0.0
H3787 H 0.26956 0.22269 0.36158 0.0
H3788 H 0.25818 0.23984 0.3437 0.0
H3789 H 0.35415 0.2844 0.39649 0.0
H3790 H 0.36839 0.27552 0.37342 0.0
H3791 H 0.35322 0.25344 0.38813 0.0
C3792 C 0.35055 0.58748 0.52146 0.0
C3793 C 0.34798 0.60964 0.5182 0.0
C3794 C 0.36928 0.58128 0.51677 0.0
C3795 C 0.38594 0.59788 0.50897 0.0
C3796 C 0.38319 0.62005 0.50498 0.0
C3797 C 0.36399 0.62558 0.50941 0.0
C3798 C 0.37146 0.55727 0.52093 0.0
C3799 C 0.40046 0.63801 0.49628 0.0
C3800 C 0.43978 0.58716 0.52544 0.0
C3801 C 0.44203 0.57296 0.50477 0.0
C3802 C 0.42246 0.59725 0.52642 0.0
C3803 C 0.40666 0.5923 0.50654 0.0
C3804 C 0.40941 0.5793 0.48533 0.0
C3805 C 0.42735 0.57021 0.48458 0.0
C3806 C 0.42031 0.61194 0.54912 0.0
C3807 C 0.39256 0.5734 0.46392 0.0
H3808 H 0.33797 0.57496 0.5279 0.0
H3809 H 0.3618 0.64262 0.50661 0.0
H3810 H 0.3767 0.54773 0.50575 0.0
H3811 H 0.38408 0.56024 0.53616 0.0
H3812 H 0.35596 0.54541 0.52432 0.0
H3813 H 0.39811 0.65626 0.49938 0.0
H3814 H 0.41702 0.6393 0.5047 0.0
H3815 H 0.39963 0.63204 0.47733 0.0
H3816 H 0.45083 0.58945 0.54123 0.0
H3817 H 0.42933 0.5601 0.46829 0.0
H3818 H 0.40641 0.60162 0.55648 0.0
H3819 H 0.41687 0.62885 0.54622 0.0
H3820 H 0.43524 0.61661 0.5621 0.0
H3821 H 0.37752 0.56018 0.46653 0.0
H3822 H 0.39831 0.56559 0.44817 0.0
H3823 H 0.38812 0.58973 0.46089 0.0
C3824 C 0.9083 0.96479 0.55574 0.0
C3825 C 0.90047 0.94019 0.54535 0.0
C3826 C 0.92965 0.97884 0.55428 0.0
C3827 C 0.94367 0.96844 0.54164 0.0
C3828 C 0.93572 0.94368 0.53093 0.0
C3829 C 0.91456 0.92996 0.53311 0.0
C3830 C 0.93713 1.005 0.5662 0.0
C3831 C 0.94961 0.93149 0.51712 0.0
C3832 C 0.99029 0.01205 0.51999 0.0
C3833 C 1.00863 0.01403 0.53602 0.0
C3834 C 0.96941 0.99679 0.52116 0.0
C3835 C 0.96635 0.9835 0.53923 0.0
C3836 C 0.985 0.98509 0.55517 0.0
C3837 C 1.00577 1.00024 0.55337 0.0
C3838 C 0.95047 0.99522 0.50321 0.0
C3839 C 0.9829 0.97171 0.57492 0.0
H3840 H 0.8978 0.97307 0.56526 0.0
H3841 H 0.90894 0.91107 0.52486 0.0
H3842 H 0.95361 1.00949 0.57638 0.0
H3843 H 0.9382 0.01648 0.55296 0.0
H3844 H 0.92582 1.00958 0.578 0.0
H3845 H 0.94023 0.9132 0.50734 0.0
H3846 H 0.95677 0.94244 0.50467 0.0
H3847 H 0.96329 0.92981 0.52905 0.0
H3848 H 0.9922 0.02293 0.50676 0.0
H3849 H 0.01967 1.00209 0.56619 0.0
H3850 H 0.93822 1.00224 0.5117 0.0
H3851 H 0.94234 0.97612 0.49481 0.0
H3852 H 0.95556 1.00559 0.48957 0.0
H3853 H 0.97429 0.98011 0.58773 0.0
H3854 H 0.99902 0.97211 0.58387 0.0
H3855 H 0.97306 0.95267 0.56863 0.0
C3856 C 0.91186 0.14828 0.25323 0.0
C3857 C 0.90022 0.12459 0.25503 0.0
C3858 C 0.90259 0.16827 0.25562 0.0
C3859 C 0.88095 0.16577 0.26102 0.0
C3860 C 0.86959 0.14211 0.26401 0.0
C3861 C 0.87889 0.12221 0.26044 0.0
C3862 C 0.91632 0.19228 0.25227 0.0
C3863 C 0.84739 0.13767 0.27143 0.0
C3864 C 0.86454 0.22563 0.28389 0.0
C3865 C 0.84877 0.22669 0.26587 0.0
C3866 C 0.8745 0.2062 0.28296 0.0
C3867 C 0.87004 0.18715 0.26287 0.0
C3868 C 0.85463 0.18871 0.24439 0.0
C3869 C 0.844 0.20751 0.24638 0.0
C3870 C 0.88976 0.2062 0.30397 0.0
C3871 C 0.85 0.17102 0.22167 0.0
H3872 H 0.92833 0.15121 0.24933 0.0
H3873 H 0.86937 0.10459 0.26237 0.0
H3874 H 0.90632 0.20173 0.2432 0.0
H3875 H 0.92388 0.20379 0.26947 0.0
H3876 H 0.92964 0.19029 0.24224 0.0
H3877 H 0.84268 0.12071 0.27815 0.0
H3878 H 0.84694 0.15286 0.28511 0.0
H3879 H 0.83504 0.13629 0.25643 0.0
H3880 H 0.8687 0.23975 0.2993 0.0
H3881 H 0.8321 0.20747 0.2321 0.0
H3882 H 0.90675 0.21465 0.30159 0.0
H3883 H 0.88836 0.18758 0.30655 0.0
H3884 H 0.88652 0.21674 0.31995 0.0
H3885 H 0.86462 0.17477 0.21283 0.0
H3886 H 0.83594 0.17226 0.20998 0.0
H3887 H 0.8467 0.15227 0.22442 0.0
C3888 C 0.72805 0.11136 0.04352 0.0
C3889 C 0.73368 0.11737 0.02267 0.0
C3890 C 0.70713 0.10907 0.04836 0.0
C3891 C 0.69154 0.11184 0.03134 0.0
C3892 C 0.6973 0.11871 0.01044 0.0
C3893 C 0.71878 0.12193 0.0065 0.0
C3894 C 0.70143 0.1022 0.07103 0.0
C3895 C 0.68068 0.12174 0.99216 0.0
C3896 C 0.63945 0.06633 0.03157 0.0
C3897 C 0.62808 0.08049 0.04316 0.0
C3898 C 0.65966 0.07686 0.0261 0.0
C3899 C 0.66885 0.10201 0.03341 0.0
C3900 C 0.65755 0.11645 0.04553 0.0
C3901 C 0.63691 0.10532 0.05031 0.0
C3902 C 0.67115 0.06101 0.01263 0.0
C3903 C 0.66719 0.14331 0.05367 0.0
H3904 H 0.74025 0.10914 0.05634 0.0
H3905 H 0.72391 0.12779 0.99093 0.0
H3906 H 0.69137 0.11306 0.07893 0.0
H3907 H 0.69176 0.08295 0.06774 0.0
H3908 H 0.71617 0.10475 0.08373 0.0
H3909 H 0.68815 0.12837 0.97743 0.0
H3910 H 0.66808 0.10425 0.98529 0.0
H3911 H 0.67225 0.13457 0.99995 0.0
H3912 H 0.63192 0.04708 0.0257 0.0
H3913 H 0.6274 0.11599 0.05866 0.0
H3914 H 0.68604 0.06084 0.02365 0.0
H3915 H 0.67624 0.06822 0.99718 0.0
H3916 H 0.66069 0.04212 0.00668 0.0
H3917 H 0.67703 0.14693 0.07106 0.0
H3918 H 0.65425 0.15248 0.05523 0.0
H3919 H 0.67803 0.15134 0.0418 0.0
C3920 C 0.22015 0.49798 0.28702 0.0
C3921 C 0.22288 0.50573 0.26618 0.0
C3922 C 0.22799 0.47925 0.29194 0.0
C3923 C 0.23827 0.46808 0.27526 0.0
C3924 C 0.24012 0.47522 0.25363 0.0
C3925 C 0.23267 0.49451 0.24948 0.0
C3926 C 0.22641 0.47262 0.31547 0.0
C3927 C 0.25036 0.4629 0.23522 0.0
C3928 C 0.28295 0.44298 0.29419 0.0
C3929 C 0.27239 0.41823 0.28837 0.0
C3930 C 0.27165 0.45952 0.29087 0.0
C3931 C 0.24939 0.45091 0.28132 0.0
C3932 C 0.23835 0.42604 0.27618 0.0
C3933 C 0.2501 0.40985 0.27976 0.0
C3934 C 0.28377 0.48612 0.29649 0.0
C3935 C 0.2144 0.41668 0.26642 0.0
H3936 H 0.21256 0.50714 0.29976 0.0
H3937 H 0.23428 0.50067 0.23323 0.0
H3938 H 0.2236 0.453 0.31448 0.0
H3939 H 0.24198 0.48215 0.32713 0.0
H3940 H 0.21314 0.47808 0.32344 0.0
H3941 H 0.24964 0.47013 0.21901 0.0
H3942 H 0.26767 0.46519 0.24182 0.0
H3943 H 0.24193 0.44327 0.23099 0.0
H3944 H 0.3003 0.44942 0.3004 0.0
H3945 H 0.24203 0.39071 0.27539 0.0
H3946 H 0.275 0.4962 0.30764 0.0
H3947 H 0.28464 0.49326 0.28024 0.0
H3948 H 0.30064 0.48978 0.3055 0.0
H3949 H 0.2048 0.42403 0.27877 0.0
H3950 H 0.20837 0.39669 0.263 0.0
H3951 H 0.21131 0.4229 0.25 0.0
C3952 C 0.25933 0.41772 0.04257 0.0
C3953 C 0.28002 0.43328 0.04211 0.0
C3954 C 0.24038 0.42554 0.04043 0.0
C3955 C 0.24194 0.44918 0.03675 0.0
C3956 C 0.26271 0.46448 0.03516 0.0
C3957 C 0.28146 0.45658 0.0384 0.0
C3958 C 0.21879 0.40864 0.04265 0.0
C3959 C 0.26523 0.48952 0.03058 0.0
C3960 C 0.19121 0.46659 0.01468 0.0
C3961 C 0.18733 0.48013 0.03493 0.0
C3962 C 0.20849 0.45597 0.01501 0.0
C3963 C 0.22233 0.4587 0.03613 0.0
C3964 C 0.21806 0.47172 0.05671 0.0
C3965 C 0.2008 0.48222 0.05585 0.0
C3966 C 0.21208 0.44211 0.99262 0.0
C3967 C 0.23172 0.47457 0.07983 0.0
H3968 H 0.25808 0.39972 0.04556 0.0
H3969 H 0.29734 0.46867 0.03796 0.0
H3970 H 0.21037 0.41784 0.05507 0.0
H3971 H 0.20812 0.40303 0.02561 0.0
H3972 H 0.22067 0.39221 0.04856 0.0
H3973 H 0.28189 0.49816 0.0272 0.0
H3974 H 0.25332 0.48894 0.01542 0.0
H3975 H 0.26179 0.50094 0.0458 0.0
H3976 H 0.18077 0.46432 0.99844 0.0
H3977 H 0.19828 0.49272 0.07164 0.0
H3978 H 0.2093 0.4229 0.99373 0.0
H3979 H 0.22917 0.44912 0.98969 0.0
H3980 H 0.20101 0.44311 0.97741 0.0
H3981 H 0.22851 0.45682 0.0851 0.0
H3982 H 0.22808 0.48754 0.09366 0.0
H3983 H 0.24933 0.48079 0.07857 0.0
C3984 C 0.88045 0.97824 0.25616 0.0
C3985 C 0.90351 0.98631 0.25961 0.0
C3986 C 0.86836 0.95405 0.25763 0.0
C3987 C 0.87902 0.93648 0.26258 0.0
C3988 C 0.90223 0.94456 0.26588 0.0
C3989 C 0.91382 0.96866 0.26439 0.0
C3990 C 0.84388 0.9473 0.25415 0.0
C3991 C 0.91522 0.92755 0.27068 0.0
C3992 C 0.84791 0.88047 0.28771 0.0
C3993 C 0.84083 0.86103 0.26839 0.0
C3994 C 0.86047 0.90431 0.28619 0.0
C3995 C 0.86615 0.91015 0.2646 0.0
C3996 C 0.85945 0.89043 0.24511 0.0
C3997 C 0.84695 0.8667 0.24715 0.0
C3998 C 0.86746 0.92356 0.30794 0.0
C3999 C 0.86494 0.89453 0.22164 0.0
H4000 H 0.8717 0.99092 0.25255 0.0
H4001 H 0.93144 0.97365 0.26698 0.0
H4002 H 0.83697 0.9305 0.24085 0.0
H4003 H 0.83799 0.94366 0.2706 0.0
H4004 H 0.83762 0.96174 0.24872 0.0
H4005 H 0.93265 0.93722 0.2772 0.0
H4006 H 0.9085 0.91694 0.28355 0.0
H4007 H 0.91428 0.91465 0.25438 0.0
H4008 H 0.84308 0.87718 0.30422 0.0
H4009 H 0.84128 0.85264 0.23171 0.0
H4010 H 0.86044 0.93852 0.30586 0.0
H4011 H 0.88545 0.93118 0.3109 0.0
H4012 H 0.86233 0.91659 0.3235 0.0
H4013 H 0.85555 0.90607 0.21517 0.0
H4014 H 0.86108 0.87738 0.20876 0.0
H4015 H 0.88248 0.90417 0.22293 0.0
C4016 C 0.71128 0.14528 0.78859 0.0
C4017 C 0.71028 0.12412 0.77341 0.0
C4018 C 0.72759 0.16635 0.78838 0.0
C4019 C 0.74267 0.16544 0.77264 0.0
C4020 C 0.74173 0.14386 0.75757 0.0
C4021 C 0.72536 0.12331 0.75813 0.0
C4022 C 0.72834 0.18948 0.80441 0.0
C4023 C 0.75793 0.14252 0.74087 0.0
C4024 C 0.77097 0.21988 0.75112 0.0
C4025 C 0.79095 0.2268 0.76553 0.0
C4026 C 0.75459 0.20022 0.75395 0.0
C4027 C 0.75906 0.18712 0.77091 0.0
C4028 C 0.7797 0.19346 0.78469 0.0
C4029 C 0.7955 0.21372 0.78201 0.0
C4030 C 0.73243 0.19396 0.73943 0.0
C4031 C 0.78481 0.1795 0.80274 0.0
H4032 H 0.69945 0.1453 0.80042 0.0
H4033 H 0.72434 0.10647 0.74669 0.0
H4034 H 0.74523 0.1993 0.8129 0.0
H4035 H 0.7226 0.20142 0.79414 0.0
H4036 H 0.71786 0.1862 0.81807 0.0
H4037 H 0.75501 0.124 0.73072 0.0
H4038 H 0.75701 0.15469 0.72852 0.0
H4039 H 0.77474 0.14868 0.75054 0.0
H4040 H 0.76763 0.23096 0.73902 0.0
H4041 H 0.81101 0.22002 0.79343 0.0
H4042 H 0.71973 0.19354 0.75087 0.0
H4043 H 0.72856 0.17573 0.72841 0.0
H4044 H 0.73146 0.20703 0.72803 0.0
H4045 H 0.77504 0.18172 0.81695 0.0
H4046 H 0.80232 0.18568 0.81035 0.0
H4047 H 0.78036 0.15998 0.79506 0.0
loop_
_geom_bond_atom_site_label_1
_geom_bond_atom_site_label_2
_geom_bond_distance
_geom_bond_site_symmetry_2
_ccdc_geom_bond_type
O0 Cd1 2.223 . S
O0 C8 1.315 . S
Cd1 O0 2.223 . S
Cd1 O4 2.297 . S
Cd1 O5 2.439 . S
Cd1 O11 2.240 . S
Cd2 O3 2.240 . S
Cd2 O10 2.223 . S
Cd2 O12 2.297 . S
Cd2 O13 2.439 . S
O3 Cd2 2.240 . S
O3 C8 1.279 . S
O4 Cd1 2.297 . S
O4 C6 1.247 . S
O5 Cd1 2.439 . S
O5 C6 1.208 . S
C6 O4 1.247 . S
C6 O5 1.208 . S
C7 O12 1.247 . S
C7 O13 1.208 . S
C8 O0 1.315 . S
C8 O3 1.279 . S
C9 O10 1.315 . S
C9 O11 1.279 . S
O10 Cd2 2.223 . S
O10 C9 1.315 . S
O11 Cd1 2.240 . S
O11 C9 1.279 . S
O12 Cd2 2.297 . S
O12 C7 1.247 . S
O13 Cd2 2.439 . S
O13 C7 1.208 . S
O14 Cd15 2.223 . S
O14 C22 1.315 . S
Cd15 O14 2.223 . S
Cd15 O18 2.297 . S
Cd15 O19 2.439 . S
Cd15 O25 2.240 1_655 S
Cd16 O17 2.240 1_455 S
Cd16 O24 2.223 . S
Cd16 O26 2.297 . S
Cd16 O27 2.453 . S
O17 Cd16 2.240 1_655 S
O17 C22 1.279 . S
O18 Cd15 2.297 . S
O18 C20 1.247 . S
O19 Cd15 2.439 . S
O19 C20 1.208 . S
C20 O18 1.247 . S
C20 O19 1.208 . S
C21 O26 1.247 . S
C21 O27 1.224 . S
C22 O14 1.315 . S
C22 O17 1.279 . S
C23 O24 1.315 . S
C23 O25 1.279 . S
O24 Cd16 2.223 . S
O24 C23 1.315 . S
O25 Cd15 2.240 1_455 S
O25 C23 1.279 . S
O26 Cd16 2.297 . S
O26 C21 1.247 . S
O27 Cd16 2.453 . S
O27 C21 1.224 . S
O28 Cd29 2.223 . S
O28 C36 1.315 . S
Cd29 O28 2.223 . S
Cd29 O32 2.297 . S
Cd29 O33 2.439 . S
Cd29 O39 2.240 . S
Cd30 O31 2.240 . S
Cd30 O38 2.223 . S
Cd30 O40 2.297 . S
Cd30 O41 2.439 . S
O31 Cd30 2.240 . S
O31 C36 1.279 . S
O32 Cd29 2.297 . S
O32 C34 1.247 . S
O33 Cd29 2.439 . S
O33 C34 1.208 . S
C34 O32 1.247 . S
C34 O33 1.208 . S
C35 O40 1.247 . S
C35 O41 1.208 . S
C36 O28 1.315 . S
C36 O31 1.279 . S
C37 O38 1.315 . S
C37 O39 1.279 . S
O38 Cd30 2.223 . S
O38 C37 1.315 . S
O39 Cd29 2.240 . S
O39 C37 1.279 . S
O40 Cd30 2.297 . S
O40 C35 1.247 . S
O41 Cd30 2.439 . S
O41 C35 1.208 . S
O42 Cd43 2.223 . S
O42 C50 1.315 . S
Cd43 O42 2.223 . S
Cd43 O46 2.297 . S
Cd43 O47 2.439 . S
Cd43 O53 2.240 . S
Cd44 O45 2.240 . S
Cd44 O52 2.223 . S
Cd44 O54 2.297 . S
Cd44 O55 2.439 . S
O45 Cd44 2.240 . S
O45 C50 1.279 . S
O46 Cd43 2.297 . S
O46 C48 1.247 . S
O47 Cd43 2.439 . S
O47 C48 1.208 . S
C48 O46 1.247 . S
C48 O47 1.208 . S
C49 O54 1.247 . S
C49 O55 1.208 . S
C50 O42 1.315 . S
C50 O45 1.279 . S
C51 O52 1.315 . S
C51 O53 1.279 . S
O52 Cd44 2.223 . S
O52 C51 1.315 . S
O53 Cd43 2.240 . S
O53 C51 1.279 . S
O54 Cd44 2.297 . S
O54 C49 1.247 . S
O55 Cd44 2.439 . S
O55 C49 1.208 . S
O56 Cd57 2.223 . S
O56 C64 1.315 . S
Cd57 O56 2.223 . S
Cd57 O60 2.297 . S
Cd57 O61 2.439 . S
Cd57 O67 2.240 . S
Cd58 O59 2.240 . S
Cd58 O66 2.223 . S
Cd58 O68 2.297 . S
Cd58 O69 2.439 . S
O59 Cd58 2.240 . S
O59 C64 1.279 . S
O60 Cd57 2.297 . S
O60 C62 1.247 . S
O61 Cd57 2.439 . S
O61 C62 1.208 . S
C62 O60 1.247 . S
C62 O61 1.208 . S
C63 O68 1.247 . S
C63 O69 1.208 . S
C64 O56 1.315 . S
C64 O59 1.279 . S
C65 O66 1.315 . S
C65 O67 1.279 . S
O66 Cd58 2.223 . S
O66 C65 1.315 . S
O67 Cd57 2.240 . S
O67 C65 1.279 . S
O68 Cd58 2.297 . S
O68 C63 1.247 . S
O69 Cd58 2.439 . S
O69 C63 1.208 . S
O70 Cd71 2.223 . S
O70 C78 1.315 . S
Cd71 O70 2.223 . S
Cd71 O74 2.297 . S
Cd71 O75 2.439 . S
Cd71 O81 2.240 . S
Cd72 O73 2.240 . S
Cd72 O80 2.223 . S
Cd72 O82 2.297 . S
Cd72 O83 2.439 . S
O73 Cd72 2.240 . S
O73 C78 1.279 . S
O74 Cd71 2.297 . S
O74 C76 1.247 . S
O75 Cd71 2.439 . S
O75 C76 1.208 . S
C76 O74 1.247 . S
C76 O75 1.208 . S
C77 O82 1.247 . S
C77 O83 1.208 . S
C78 O70 1.315 . S
C78 O73 1.279 . S
C79 O80 1.315 . S
C79 O81 1.279 . S
O80 Cd72 2.223 . S
O80 C79 1.315 . S
O81 Cd71 2.240 . S
O81 C79 1.279 . S
O82 Cd72 2.297 . S
O82 C77 1.247 . S
O83 Cd72 2.439 . S
O83 C77 1.208 . S
O84 Cd85 2.223 . S
O84 C92 1.315 . S
Cd85 O84 2.223 . S
Cd85 O88 2.297 . S
Cd85 O89 2.439 . S
Cd85 O95 2.240 . S
Cd86 O87 2.240 . S
Cd86 O94 2.223 . S
Cd86 O96 2.297 . S
Cd86 O97 2.439 . S
O87 Cd86 2.240 . S
O87 C92 1.279 . S
O88 Cd85 2.297 . S
O88 C90 1.247 . S
O89 Cd85 2.439 . S
O89 C90 1.208 . S
C90 O88 1.247 . S
C90 O89 1.208 . S
C91 O96 1.247 . S
C91 O97 1.208 . S
C92 O84 1.315 . S
C92 O87 1.279 . S
C93 O94 1.315 . S
C93 O95 1.279 . S
O94 Cd86 2.223 . S
O94 C93 1.315 . S
O95 Cd85 2.240 . S
O95 C93 1.279 . S
O96 Cd86 2.297 . S
O96 C91 1.247 . S
O97 Cd86 2.439 . S
O97 C91 1.208 . S
O98 Cd99 2.223 . S
O98 C106 1.315 . S
Cd99 O98 2.223 . S
Cd99 O102 2.297 . S
Cd99 O103 2.439 . S
Cd99 O109 2.240 . S
Cd100 O101 2.240 . S
Cd100 O108 2.223 1_455 S
Cd100 O110 2.297 . S
Cd100 O111 2.439 . S
O101 Cd100 2.240 . S
O101 C106 1.279 . S
O102 Cd99 2.297 . S
O102 C104 1.247 . S
O103 Cd99 2.439 . S
O103 C104 1.208 . S
C104 O102 1.247 . S
C104 O103 1.208 . S
C105 O110 1.247 . S
C105 O111 1.208 . S
C106 O98 1.315 . S
C106 O101 1.279 . S
C107 O108 1.315 . S
C107 O109 1.279 1_655 S
O108 Cd100 2.223 1_655 S
O108 C107 1.315 . S
O109 Cd99 2.240 . S
O109 C107 1.279 1_455 S
O110 Cd100 2.297 . S
O110 C105 1.247 . S
O111 Cd100 2.439 . S
O111 C105 1.208 . S
O112 Cd113 2.223 1_565 S
O112 C120 1.315 1_565 S
Cd113 O112 2.223 1_545 S
Cd113 O116 2.297 . S
Cd113 O117 2.439 . S
Cd113 O123 2.240 1_545 S
Cd114 O115 2.240 . S
Cd114 O122 2.223 1_545 S
Cd114 O124 2.297 1_545 S
Cd114 O125 2.439 . S
O115 Cd114 2.240 . S
O115 C120 1.279 . S
O116 Cd113 2.297 . S
O116 C118 1.247 . S
O117 Cd113 2.439 . S
O117 C118 1.208 . S
C118 O116 1.247 . S
C118 O117 1.208 . S
C119 O124 1.247 1_545 S
C119 O125 1.208 . S
C120 O112 1.315 1_545 S
C120 O115 1.279 . S
C121 O122 1.315 . S
C121 O123 1.279 . S
O122 Cd114 2.223 1_565 S
O122 C121 1.315 . S
O123 Cd113 2.240 1_565 S
O123 C121 1.279 . S
O124 Cd114 2.297 1_565 S
O124 C119 1.247 1_565 S
O125 Cd114 2.439 . S
O125 C119 1.208 . S
O126 Cd127 2.223 . S
O126 C134 1.315 . S
Cd127 O126 2.223 . S
Cd127 O130 2.297 . S
Cd127 O131 2.439 . S
Cd127 O137 2.240 . S
Cd128 O129 2.240 . S
Cd128 O136 2.223 . S
Cd128 O138 2.297 . S
Cd128 O139 2.439 . S
O129 Cd128 2.240 . S
O129 C134 1.279 . S
O130 Cd127 2.297 . S
O130 C132 1.247 . S
O131 Cd127 2.439 . S
O131 C132 1.208 . S
C132 O130 1.247 . S
C132 O131 1.208 . S
C133 O138 1.247 . S
C133 O139 1.208 . S
C134 O126 1.315 . S
C134 O129 1.279 . S
C135 O136 1.315 . S
C135 O137 1.279 . S
O136 Cd128 2.223 . S
O136 C135 1.315 . S
O137 Cd127 2.240 . S
O137 C135 1.279 . S
O138 Cd128 2.297 . S
O138 C133 1.247 . S
O139 Cd128 2.439 . S
O139 C133 1.208 . S
O140 Cd141 2.223 1_545 S
O140 C148 1.315 1_545 S
Cd141 O140 2.223 1_565 S
Cd141 O144 2.297 . S
Cd141 O145 2.439 . S
Cd141 O151 2.240 1_565 S
Cd142 O143 2.240 1_545 S
Cd142 O150 2.223 . S
Cd142 O152 2.297 . S
Cd142 O153 2.439 1_545 S
O143 Cd142 2.240 1_565 S
O143 C148 1.279 . S
O144 Cd141 2.297 . S
O144 C146 1.247 . S
O145 Cd141 2.439 . S
O145 C146 1.208 . S
C146 O144 1.247 . S
C146 O145 1.208 . S
C147 O152 1.247 . S
C147 O153 1.208 1_545 S
C148 O140 1.315 1_565 S
C148 O143 1.279 . S
C149 O150 1.315 . S
C149 O151 1.279 . S
O150 Cd142 2.223 . S
O150 C149 1.315 . S
O151 Cd141 2.240 1_545 S
O151 C149 1.279 . S
O152 Cd142 2.297 . S
O152 C147 1.247 . S
O153 Cd142 2.439 1_565 S
O153 C147 1.208 1_565 S
O154 Cd155 2.223 . S
O154 C162 1.315 . S
Cd155 O154 2.223 . S
Cd155 O158 2.297 . S
Cd155 O159 2.439 1_554 S
Cd155 O165 2.218 1_554 S
Cd156 O157 2.240 1_556 S
Cd156 O164 2.223 1_556 S
Cd156 O166 2.297 . S
Cd156 O167 2.439 . S
O157 Cd156 2.240 1_554 S
O157 C162 1.279 . S
O158 Cd155 2.297 . S
O158 C160 1.247 . S
O159 Cd155 2.439 1_556 S
O159 C160 1.208 1_556 S
C160 O158 1.247 . S
C160 O159 1.208 1_554 S
C161 O166 1.247 . S
C161 O167 1.208 . S
C162 O154 1.315 . S
C162 O157 1.279 . S
C163 O164 1.315 . S
C163 O165 1.266 1_554 S
O164 Cd156 2.223 1_554 S
O164 C163 1.315 . S
O165 Cd155 2.218 1_556 S
O165 C163 1.266 1_556 S
O166 Cd156 2.297 . S
O166 C161 1.247 . S
O167 Cd156 2.439 . S
O167 C161 1.208 . S
O168 Cd169 2.223 . S
O168 C176 1.315 . S
Cd169 O168 2.223 . S
Cd169 O172 2.297 . S
Cd169 O173 2.439 . S
Cd169 O179 2.240 . S
Cd170 O171 2.240 . S
Cd170 O178 2.223 . S
Cd170 O180 2.297 1_554 S
Cd170 O181 2.439 1_554 S
O171 Cd170 2.240 . S
O171 C176 1.279 . S
O172 Cd169 2.297 . S
O172 C174 1.247 . S
O173 Cd169 2.439 . S
O173 C174 1.208 . S
C174 O172 1.247 . S
C174 O173 1.208 . S
C175 O180 1.247 . S
C175 O181 1.208 . S
C176 O168 1.315 . S
C176 O171 1.279 . S
C177 O178 1.315 . S
C177 O179 1.279 . S
O178 Cd170 2.223 . S
O178 C177 1.315 . S
O179 Cd169 2.240 . S
O179 C177 1.279 . S
O180 Cd170 2.297 1_556 S
O180 C175 1.247 . S
O181 Cd170 2.439 1_556 S
O181 C175 1.208 . S
O182 Cd183 2.223 . S
O182 C190 1.315 . S
Cd183 O182 2.223 . S
Cd183 O186 2.297 . S
Cd183 O187 2.439 . S
Cd183 O193 2.240 . S
Cd184 O185 2.240 . S
Cd184 O192 2.223 . S
Cd184 O194 2.297 1_554 S
Cd184 O195 2.439 1_554 S
O185 Cd184 2.240 . S
O185 C190 1.279 . S
O186 Cd183 2.297 . S
O186 C188 1.247 . S
O187 Cd183 2.439 . S
O187 C188 1.208 . S
C188 O186 1.247 . S
C188 O187 1.208 . S
C189 O194 1.247 . S
C189 O195 1.208 . S
C190 O182 1.315 . S
C190 O185 1.279 . S
C191 O192 1.315 . S
C191 O193 1.279 . S
O192 Cd184 2.223 . S
O192 C191 1.315 . S
O193 Cd183 2.240 . S
O193 C191 1.279 . S
O194 Cd184 2.297 1_556 S
O194 C189 1.247 . S
O195 Cd184 2.439 1_556 S
O195 C189 1.208 . S
O196 Cd197 2.223 . S
O196 C204 1.315 . S
Cd197 O196 2.223 . S
Cd197 O200 2.297 . S
Cd197 O201 2.439 . S
Cd197 O207 2.240 . S
Cd198 O199 2.240 . S
Cd198 O206 2.223 . S
Cd198 O208 2.297 . S
Cd198 O209 2.439 . S
O199 Cd198 2.240 . S
O199 C204 1.279 . S
O200 Cd197 2.297 . S
O200 C202 1.247 . S
O201 Cd197 2.439 . S
O201 C202 1.208 . S
C202 O200 1.247 . S
C202 O201 1.208 . S
C203 O208 1.247 . S
C203 O209 1.208 . S
C204 O196 1.315 . S
C204 O199 1.279 . S
C205 O206 1.315 . S
C205 O207 1.279 . S
O206 Cd198 2.223 . S
O206 C205 1.315 . S
O207 Cd197 2.240 . S
O207 C205 1.279 . S
O208 Cd198 2.297 . S
O208 C203 1.247 . S
O209 Cd198 2.439 . S
O209 C203 1.208 . S
O210 Cd211 2.223 . S
O210 C218 1.315 . S
Cd211 O210 2.223 . S
Cd211 O214 2.297 . S
Cd211 O215 2.439 . S
Cd211 O221 2.240 . S
Cd212 O213 2.240 . S
Cd212 O220 2.223 . S
Cd212 O222 2.297 . S
Cd212 O223 2.439 . S
O213 Cd212 2.240 . S
O213 C218 1.279 . S
O214 Cd211 2.297 . S
O214 C216 1.247 . S
O215 Cd211 2.439 . S
O215 C216 1.208 . S
C216 O214 1.247 . S
C216 O215 1.208 . S
C217 O222 1.247 . S
C217 O223 1.208 . S
C218 O210 1.315 . S
C218 O213 1.279 . S
C219 O220 1.315 . S
C219 O221 1.279 . S
O220 Cd212 2.223 . S
O220 C219 1.315 . S
O221 Cd211 2.240 . S
O221 C219 1.279 . S
O222 Cd212 2.297 . S
O222 C217 1.247 . S
O223 Cd212 2.439 . S
O223 C217 1.208 . S
O224 Cd225 2.223 . S
O224 C232 1.315 . S
Cd225 O224 2.223 . S
Cd225 O228 2.297 . S
Cd225 O229 2.439 . S
Cd225 O235 2.240 . S
Cd226 O227 2.240 . S
Cd226 O234 2.223 . S
Cd226 O236 2.297 . S
Cd226 O237 2.439 . S
O227 Cd226 2.240 . S
O227 C232 1.279 . S
O228 Cd225 2.297 . S
O228 C230 1.247 . S
O229 Cd225 2.439 . S
O229 C230 1.208 . S
C230 O228 1.247 . S
C230 O229 1.208 . S
C231 O236 1.247 . S
C231 O237 1.208 . S
C232 O224 1.315 . S
C232 O227 1.279 . S
C233 O234 1.315 . S
C233 O235 1.279 . S
O234 Cd226 2.223 . S
O234 C233 1.315 . S
O235 Cd225 2.240 . S
O235 C233 1.279 . S
O236 Cd226 2.297 . S
O236 C231 1.247 . S
O237 Cd226 2.439 . S
O237 C231 1.208 . S
O238 Cd239 2.223 . S
O238 C246 1.315 . S
Cd239 O238 2.223 . S
Cd239 O242 2.297 . S
Cd239 O243 2.439 . S
Cd239 O249 2.240 . S
Cd240 O241 2.240 . S
Cd240 O248 2.223 . S
Cd240 O250 2.297 . S
Cd240 O251 2.439 . S
O241 Cd240 2.240 . S
O241 C246 1.279 . S
O242 Cd239 2.297 . S
O242 C244 1.247 . S
O243 Cd239 2.439 . S
O243 C244 1.208 . S
C244 O242 1.247 . S
C244 O243 1.208 . S
C245 O250 1.247 . S
C245 O251 1.208 . S
C246 O238 1.315 . S
C246 O241 1.279 . S
C247 O248 1.315 . S
C247 O249 1.279 . S
O248 Cd240 2.223 . S
O248 C247 1.315 . S
O249 Cd239 2.240 . S
O249 C247 1.279 . S
O250 Cd240 2.297 . S
O250 C245 1.247 . S
O251 Cd240 2.439 . S
O251 C245 1.208 . S
O252 Cd253 2.223 . S
O252 C260 1.315 . S
Cd253 O252 2.223 . S
Cd253 O256 2.297 . S
Cd253 O257 2.439 . S
Cd253 O263 2.240 . S
Cd254 O255 2.240 . S
Cd254 O262 2.223 . S
Cd254 O264 2.297 . S
Cd254 O265 2.439 . S
O255 Cd254 2.240 . S
O255 C260 1.279 . S
O256 Cd253 2.297 . S
O256 C258 1.247 . S
O257 Cd253 2.439 . S
O257 C258 1.208 . S
C258 O256 1.247 . S
C258 O257 1.208 . S
C259 O264 1.247 . S
C259 O265 1.208 . S
C260 O252 1.315 . S
C260 O255 1.279 . S
C261 O262 1.315 . S
C261 O263 1.279 . S
O262 Cd254 2.223 . S
O262 C261 1.315 . S
O263 Cd253 2.240 . S
O263 C261 1.279 . S
O264 Cd254 2.297 . S
O264 C259 1.247 . S
O265 Cd254 2.439 . S
O265 C259 1.208 . S
O266 Cd267 2.223 . S
O266 C274 1.315 . S
Cd267 O266 2.223 . S
Cd267 O270 2.297 . S
Cd267 O271 2.439 . S
Cd267 O277 2.240 . S
Cd268 O269 2.240 . S
Cd268 O276 2.223 . S
Cd268 O278 2.297 . S
Cd268 O279 2.439 . S
O269 Cd268 2.240 . S
O269 C274 1.279 . S
O270 Cd267 2.297 . S
O270 C272 1.247 . S
O271 Cd267 2.439 . S
O271 C272 1.208 . S
C272 O270 1.247 . S
C272 O271 1.208 . S
C273 O278 1.247 . S
C273 O279 1.208 . S
C274 O266 1.315 . S
C274 O269 1.279 . S
C275 O276 1.315 . S
C275 O277 1.279 . S
O276 Cd268 2.223 . S
O276 C275 1.315 . S
O277 Cd267 2.240 . S
O277 C275 1.279 . S
O278 Cd268 2.297 . S
O278 C273 1.247 . S
O279 Cd268 2.439 . S
O279 C273 1.208 . S
O280 Cd281 2.223 . S
O280 C288 1.315 . S
Cd281 O280 2.223 . S
Cd281 O284 2.297 . S
Cd281 O285 2.439 . S
Cd281 O291 2.240 . S
Cd282 O283 2.240 . S
Cd282 O290 2.223 . S
Cd282 O292 2.297 1_554 S
Cd282 O293 2.439 1_554 S
O283 Cd282 2.240 . S
O283 C288 1.279 . S
O284 Cd281 2.297 . S
O284 C286 1.247 . S
O285 Cd281 2.439 . S
O285 C286 1.208 . S
C286 O284 1.247 . S
C286 O285 1.208 . S
C287 O292 1.247 . S
C287 O293 1.208 . S
C288 O280 1.315 . S
C288 O283 1.279 . S
C289 O290 1.315 . S
C289 O291 1.279 . S
O290 Cd282 2.223 . S
O290 C289 1.315 . S
O291 Cd281 2.240 . S
O291 C289 1.279 . S
O292 Cd282 2.297 1_556 S
O292 C287 1.247 . S
O293 Cd282 2.439 1_556 S
O293 C287 1.208 . S
O294 Cd295 2.223 . S
O294 C302 1.315 . S
Cd295 O294 2.223 . S
Cd295 O298 2.297 . S
Cd295 O299 2.439 . S
Cd295 O305 2.240 . S
Cd296 O297 2.240 . S
Cd296 O304 2.223 . S
Cd296 O306 2.297 . S
Cd296 O307 2.439 . S
O297 Cd296 2.240 . S
O297 C302 1.279 . S
O298 Cd295 2.297 . S
O298 C300 1.247 . S
O299 Cd295 2.439 . S
O299 C300 1.208 . S
C300 O298 1.247 . S
C300 O299 1.208 . S
C301 O306 1.247 . S
C301 O307 1.208 . S
C302 O294 1.315 . S
C302 O297 1.279 . S
C303 O304 1.315 . S
C303 O305 1.279 . S
O304 Cd296 2.223 . S
O304 C303 1.315 . S
O305 Cd295 2.240 . S
O305 C303 1.279 . S
O306 Cd296 2.297 . S
O306 C301 1.247 . S
O307 Cd296 2.439 . S
O307 C301 1.208 . S
O308 Cd309 2.223 . S
O308 C316 1.315 . S
Cd309 O308 2.223 . S
Cd309 O312 2.297 . S
Cd309 O313 2.439 . S
Cd309 O319 2.240 . S
Cd310 O311 2.240 . S
Cd310 O318 2.223 . S
Cd310 O320 2.297 . S
Cd310 O321 2.439 . S
O311 Cd310 2.240 . S
O311 C316 1.279 . S
O312 Cd309 2.297 . S
O312 C314 1.247 . S
O313 Cd309 2.439 . S
O313 C314 1.208 . S
C314 O312 1.247 . S
C314 O313 1.208 . S
C315 O320 1.247 . S
C315 O321 1.208 . S
C316 O308 1.315 . S
C316 O311 1.279 . S
C317 O318 1.315 . S
C317 O319 1.279 . S
O318 Cd310 2.223 . S
O318 C317 1.315 . S
O319 Cd309 2.240 . S
O319 C317 1.279 . S
O320 Cd310 2.297 . S
O320 C315 1.247 . S
O321 Cd310 2.439 . S
O321 C315 1.208 . S
O322 Cd323 2.223 . S
O322 C330 1.315 . S
Cd323 O322 2.223 . S
Cd323 O326 2.297 . S
Cd323 O327 2.439 . S
Cd323 O333 2.240 . S
Cd324 O325 2.240 . S
Cd324 O332 2.223 . S
Cd324 O334 2.297 . S
Cd324 O335 2.439 . S
O325 Cd324 2.240 . S
O325 C330 1.279 . S
O326 Cd323 2.297 . S
O326 C328 1.247 . S
O327 Cd323 2.439 . S
O327 C328 1.208 . S
C328 O326 1.247 . S
C328 O327 1.208 . S
C329 O334 1.247 . S
C329 O335 1.208 . S
C330 O322 1.315 . S
C330 O325 1.279 . S
C331 O332 1.315 . S
C331 O333 1.279 . S
O332 Cd324 2.223 . S
O332 C331 1.315 . S
O333 Cd323 2.240 . S
O333 C331 1.279 . S
O334 Cd324 2.297 . S
O334 C329 1.247 . S
O335 Cd324 2.439 . S
O335 C329 1.208 . S
Gd336 C339 2.824 1_455 S
Gd336 O356 2.377 . S
Gd336 O358 2.448 1_454 S
Gd336 O359 2.506 1_455 S
Gd336 O360 2.435 1_554 S
Gd336 O361 2.721 . S
Gd336 O363 2.395 1_545 S
Gd336 O367 2.327 . S
Gd337 C348 2.818 . S
Gd337 O357 2.395 . S
Gd337 O361 2.335 . S
Gd337 O362 2.377 . S
Gd337 O364 2.448 . S
Gd337 O365 2.506 . S
Gd337 O366 2.435 . S
Gd337 O367 2.717 . S
C338 O356 1.240 . S
C338 O357 1.240 . S
C339 Gd336 2.824 1_655 S
C339 C340 1.505 1_554 S
C339 O358 1.225 1_554 S
C339 O359 1.282 . S
C340 C339 1.505 1_556 S
C340 C341 1.404 . S
C340 C342 1.352 1_556 S
C341 C340 1.404 . S
C341 C345 1.389 . S
C341 H368 0.930 . S
C342 C340 1.352 1_554 S
C342 C344 1.374 . S
C342 H369 0.931 . S
C343 C344 1.359 1_556 S
C343 C345 1.364 . S
C344 C342 1.374 . S
C344 C343 1.359 1_554 S
C344 H370 0.931 . S
C345 C341 1.389 . S
C345 C343 1.364 . S
C345 H371 0.931 . S
C346 O360 1.256 . S
C346 O361 1.248 1_556 S
C347 O362 1.240 1_565 S
C347 O363 1.240 . S
C348 Gd337 2.818 . S
C348 C349 1.510 . S
C348 O364 1.249 . S
C348 O365 1.252 . S
C349 C348 1.510 . S
C349 C350 1.404 . S
C349 C351 1.352 . S
C350 C349 1.404 . S
C350 C354 1.389 . S
C350 H372 0.930 . S
C351 C349 1.352 . S
C351 C353 1.374 . S
C351 H373 0.931 . S
C352 C353 1.359 . S
C352 C354 1.364 . S
C353 C351 1.374 . S
C353 C352 1.359 . S
C353 H374 0.931 1_545 S
C354 C350 1.389 . S
C354 C352 1.364 . S
C354 H375 0.931 . S
C355 O366 1.256 . S
C355 O367 1.257 . S
O356 Gd336 2.377 . S
O356 C338 1.240 . S
O357 Gd337 2.395 . S
O357 C338 1.240 . S
O358 Gd336 2.448 1_656 S
O358 C339 1.225 1_556 S
O359 Gd336 2.506 1_655 S
O359 C339 1.282 . S
O360 Gd336 2.435 1_556 S
O360 C346 1.256 . S
O361 Gd336 2.721 . S
O361 Gd337 2.335 . S
O361 C346 1.248 1_554 S
O362 Gd337 2.377 . S
O362 C347 1.240 1_545 S
O363 Gd336 2.395 1_565 S
O363 C347 1.240 . S
O364 Gd337 2.448 . S
O364 C348 1.249 . S
O365 Gd337 2.506 . S
O365 C348 1.252 . S
O366 Gd337 2.435 . S
O366 C355 1.256 . S
O367 Gd336 2.327 . S
O367 Gd337 2.717 . S
O367 C355 1.257 . S
H368 C341 0.930 . S
H369 C342 0.931 . S
H370 C344 0.931 . S
H371 C345 0.931 . S
H372 C350 0.930 . S
H373 C351 0.931 . S
H374 C353 0.931 1_565 S
H375 C354 0.931 . S
Gd376 C379 2.818 . S
Gd376 O396 2.377 . S
Gd376 O398 2.448 . S
Gd376 O399 2.506 . S
Gd376 O400 2.435 . S
Gd376 O401 2.717 . S
Gd376 O403 2.395 . S
Gd376 O407 2.327 . S
Gd377 C388 2.818 . S
Gd377 O397 2.395 . S
Gd377 O401 2.327 . S
Gd377 O402 2.377 . S
Gd377 O404 2.448 . S
Gd377 O405 2.506 . S
Gd377 O406 2.435 . S
Gd377 O407 2.717 . S
C378 O396 1.240 . S
C378 O397 1.240 . S
C379 Gd376 2.818 . S
C379 C380 1.510 . S
C379 O398 1.249 . S
C379 O399 1.252 . S
C380 C379 1.510 . S
C380 C381 1.404 . S
C380 C382 1.352 . S
C381 C380 1.404 . S
C381 C385 1.389 . S
C381 H408 0.930 . S
C382 C380 1.352 . S
C382 C384 1.374 . S
C382 H409 0.931 . S
C383 C384 1.359 . S
C383 C385 1.364 . S
C384 C382 1.374 . S
C384 C383 1.359 . S
C384 H410 0.931 . S
C385 C381 1.389 . S
C385 C383 1.364 . S
C385 H411 0.931 . S
C386 O400 1.256 . S
C386 O401 1.257 . S
C387 O402 1.240 . S
C387 O403 1.240 . S
C388 Gd377 2.818 . S
C388 C389 1.510 . S
C388 O404 1.249 . S
C388 O405 1.252 . S
C389 C388 1.510 . S
C389 C390 1.404 . S
C389 C391 1.352 . S
C390 C389 1.404 . S
C390 C394 1.389 . S
C390 H412 0.930 . S
C391 C389 1.352 . S
C391 C393 1.374 . S
C391 H413 0.931 . S
C392 C393 1.359 . S
C392 C394 1.364 . S
C393 C391 1.374 . S
C393 C392 1.359 . S
C393 H414 0.931 . S
C394 C390 1.389 . S
C394 C392 1.364 . S
C394 H415 0.931 . S
C395 O406 1.256 . S
C395 O407 1.257 . S
O396 Gd376 2.377 . S
O396 C378 1.240 . S
O397 Gd377 2.395 . S
O397 C378 1.240 . S
O398 Gd376 2.448 . S
O398 C379 1.249 . S
O399 Gd376 2.506 . S
O399 C379 1.252 . S
O400 Gd376 2.435 . S
O400 C386 1.256 . S
O401 Gd376 2.717 . S
O401 Gd377 2.327 . S
O401 C386 1.257 . S
O402 Gd377 2.377 . S
O402 C387 1.240 . S
O403 Gd376 2.395 . S
O403 C387 1.240 . S
O404 Gd377 2.448 . S
O404 C388 1.249 . S
O405 Gd377 2.506 . S
O405 C388 1.252 . S
O406 Gd377 2.435 . S
O406 C395 1.256 . S
O407 Gd376 2.327 . S
O407 Gd377 2.717 . S
O407 C395 1.257 . S
H408 C381 0.930 . S
H409 C382 0.931 . S
H410 C384 0.931 . S
H411 C385 0.931 . S
H412 C390 0.930 . S
H413 C391 0.931 . S
H414 C393 0.931 . S
H415 C394 0.931 . S
Gd416 C419 2.818 . S
Gd416 O436 2.377 1_545 S
Gd416 O438 2.448 . S
Gd416 O439 2.506 . S
Gd416 O440 2.435 . S
Gd416 O441 2.717 . S
Gd416 O443 2.395 . S
Gd416 O447 2.327 . S
Gd417 C428 2.818 . S
Gd417 O437 2.395 1_545 S
Gd417 O441 2.327 . S
Gd417 O442 2.377 . S
Gd417 O444 2.448 . S
Gd417 O445 2.506 . S
Gd417 O446 2.435 . S
Gd417 O447 2.717 . S
C418 O436 1.240 . S
C418 O437 1.240 . S
C419 Gd416 2.818 . S
C419 C420 1.510 1_545 S
C419 O438 1.249 . S
C419 O439 1.252 . S
C420 C419 1.510 1_565 S
C420 C421 1.404 . S
C420 C422 1.352 . S
C421 C420 1.404 . S
C421 C425 1.389 . S
C421 H448 0.930 1_565 S
C422 C420 1.352 . S
C422 C424 1.374 . S
C422 H449 0.931 . S
C423 C424 1.359 . S
C423 C425 1.364 . S
C424 C422 1.374 . S
C424 C423 1.359 . S
C424 H450 0.931 . S
C425 C421 1.389 . S
C425 C423 1.364 . S
C425 H451 0.931 . S
C426 O440 1.256 . S
C426 O441 1.257 . S
C427 O442 1.240 . S
C427 O443 1.240 . S
C428 Gd417 2.818 . S
C428 C429 1.510 . S
C428 O444 1.249 . S
C428 O445 1.252 . S
C429 C428 1.510 . S
C429 C430 1.404 . S
C429 C431 1.352 . S
C430 C429 1.404 . S
C430 C434 1.389 . S
C430 H452 0.930 . S
C431 C429 1.352 . S
C431 C433 1.374 . S
C431 H453 0.931 . S
C432 C433 1.359 . S
C432 C434 1.364 . S
C433 C431 1.374 . S
C433 C432 1.359 . S
C433 H454 0.931 . S
C434 C430 1.389 . S
C434 C432 1.364 . S
C434 H455 0.931 . S
C435 O446 1.256 . S
C435 O447 1.257 . S
O436 Gd416 2.377 1_565 S
O436 C418 1.240 . S
O437 Gd417 2.395 1_565 S
O437 C418 1.240 . S
O438 Gd416 2.448 . S
O438 C419 1.249 . S
O439 Gd416 2.506 . S
O439 C419 1.252 . S
O440 Gd416 2.435 . S
O440 C426 1.256 . S
O441 Gd416 2.717 . S
O441 Gd417 2.327 . S
O441 C426 1.257 . S
O442 Gd417 2.377 . S
O442 C427 1.240 . S
O443 Gd416 2.395 . S
O443 C427 1.240 . S
O444 Gd417 2.448 . S
O444 C428 1.249 . S
O445 Gd417 2.506 . S
O445 C428 1.252 . S
O446 Gd417 2.435 . S
O446 C435 1.256 . S
O447 Gd416 2.327 . S
O447 Gd417 2.717 . S
O447 C435 1.257 . S
H448 C421 0.930 1_545 S
H449 C422 0.931 . S
H450 C424 0.931 . S
H451 C425 0.931 . S
H452 C430 0.930 . S
H453 C431 0.931 . S
H454 C433 0.931 . S
H455 C434 0.931 . S
Gd456 C459 2.818 . S
Gd456 O476 2.377 . S
Gd456 O478 2.448 . S
Gd456 O479 2.506 . S
Gd456 O480 2.435 . S
Gd456 O481 2.717 . S
Gd456 O483 2.395 . S
Gd456 O487 2.327 . S
Gd457 C468 2.818 . S
Gd457 O477 2.395 . S
Gd457 O481 2.327 . S
Gd457 O482 2.377 . S
Gd457 O484 2.448 . S
Gd457 O485 2.506 . S
Gd457 O486 2.435 . S
Gd457 O487 2.717 . S
C458 O476 1.240 . S
C458 O477 1.240 . S
C459 Gd456 2.818 . S
C459 C460 1.510 . S
C459 O478 1.249 . S
C459 O479 1.252 . S
C460 C459 1.510 . S
C460 C461 1.404 . S
C460 C462 1.352 . S
C461 C460 1.404 . S
C461 C465 1.389 . S
C461 H488 0.930 . S
C462 C460 1.352 . S
C462 C464 1.374 . S
C462 H489 0.931 . S
C463 C464 1.359 . S
C463 C465 1.364 . S
C464 C462 1.374 . S
C464 C463 1.359 . S
C464 H490 0.931 . S
C465 C461 1.389 . S
C465 C463 1.364 . S
C465 H491 0.931 . S
C466 O480 1.256 . S
C466 O481 1.257 . S
C467 O482 1.240 . S
C467 O483 1.240 . S
C468 Gd457 2.818 . S
C468 C469 1.510 . S
C468 O484 1.249 . S
C468 O485 1.252 . S
C469 C468 1.510 . S
C469 C470 1.404 . S
C469 C471 1.352 . S
C470 C469 1.404 . S
C470 C474 1.389 . S
C470 H492 0.930 . S
C471 C469 1.352 . S
C471 C473 1.374 . S
C471 H493 0.931 . S
C472 C473 1.359 . S
C472 C474 1.364 . S
C473 C471 1.374 . S
C473 C472 1.359 . S
C473 H494 0.931 . S
C474 C470 1.389 . S
C474 C472 1.364 . S
C474 H495 0.931 . S
C475 O486 1.256 . S
C475 O487 1.257 . S
O476 Gd456 2.377 . S
O476 C458 1.240 . S
O477 Gd457 2.395 . S
O477 C458 1.240 . S
O478 Gd456 2.448 . S
O478 C459 1.249 . S
O479 Gd456 2.506 . S
O479 C459 1.252 . S
O480 Gd456 2.435 . S
O480 C466 1.256 . S
O481 Gd456 2.717 . S
O481 Gd457 2.327 . S
O481 C466 1.257 . S
O482 Gd457 2.377 . S
O482 C467 1.240 . S
O483 Gd456 2.395 . S
O483 C467 1.240 . S
O484 Gd457 2.448 . S
O484 C468 1.249 . S
O485 Gd457 2.506 . S
O485 C468 1.252 . S
O486 Gd457 2.435 . S
O486 C475 1.256 . S
O487 Gd456 2.327 . S
O487 Gd457 2.717 . S
O487 C475 1.257 . S
H488 C461 0.930 . S
H489 C462 0.931 . S
H490 C464 0.931 . S
H491 C465 0.931 . S
H492 C470 0.930 . S
H493 C471 0.931 . S
H494 C473 0.931 . S
H495 C474 0.931 . S
Gd496 C499 2.818 . S
Gd496 O516 2.377 . S
Gd496 O518 2.448 . S
Gd496 O519 2.506 . S
Gd496 O520 2.435 . S
Gd496 O521 2.717 . S
Gd496 O523 2.395 . S
Gd496 O527 2.327 . S
Gd497 C508 2.818 1_545 S
Gd497 O517 2.395 . S
Gd497 O521 2.327 . S
Gd497 O522 2.377 . S
Gd497 O524 2.448 1_545 S
Gd497 O525 2.506 1_545 S
Gd497 O526 2.435 . S
Gd497 O527 2.717 . S
C498 O516 1.240 . S
C498 O517 1.240 . S
C499 Gd496 2.818 . S
C499 C500 1.510 . S
C499 O518 1.249 . S
C499 O519 1.252 . S
C500 C499 1.510 . S
C500 C501 1.404 . S
C500 C502 1.352 . S
C501 C500 1.404 . S
C501 C505 1.389 . S
C501 H528 0.930 . S
C502 C500 1.352 . S
C502 C504 1.374 . S
C502 H529 0.931 . S
C503 C504 1.359 . S
C503 C505 1.364 . S
C504 C502 1.374 . S
C504 C503 1.359 . S
C504 H530 0.931 . S
C505 C501 1.389 . S
C505 C503 1.364 . S
C505 H531 0.931 . S
C506 O520 1.256 . S
C506 O521 1.257 . S
C507 O522 1.240 . S
C507 O523 1.240 . S
C508 Gd497 2.818 1_565 S
C508 C509 1.510 . S
C508 O524 1.249 . S
C508 O525 1.252 . S
C509 C508 1.510 . S
C509 C510 1.404 . S
C509 C511 1.352 . S
C510 C509 1.404 . S
C510 C514 1.389 . S
C510 H532 0.930 . S
C511 C509 1.352 . S
C511 C513 1.374 . S
C511 H533 0.931 . S
C512 C513 1.359 . S
C512 C514 1.364 . S
C513 C511 1.374 . S
C513 C512 1.359 . S
C513 H534 0.931 . S
C514 C510 1.389 . S
C514 C512 1.364 . S
C514 H535 0.931 . S
C515 O526 1.256 . S
C515 O527 1.257 . S
O516 Gd496 2.377 . S
O516 C498 1.240 . S
O517 Gd497 2.395 . S
O517 C498 1.240 . S
O518 Gd496 2.448 . S
O518 C499 1.249 . S
O519 Gd496 2.506 . S
O519 C499 1.252 . S
O520 Gd496 2.435 . S
O520 C506 1.256 . S
O521 Gd496 2.717 . S
O521 Gd497 2.327 . S
O521 C506 1.257 . S
O522 Gd497 2.377 . S
O522 C507 1.240 . S
O523 Gd496 2.395 . S
O523 C507 1.240 . S
O524 Gd497 2.448 1_565 S
O524 C508 1.249 . S
O525 Gd497 2.506 1_565 S
O525 C508 1.252 . S
O526 Gd497 2.435 . S
O526 C515 1.256 . S
O527 Gd496 2.327 . S
O527 Gd497 2.717 . S
O527 C515 1.257 . S
H528 C501 0.930 . S
H529 C502 0.931 . S
H530 C504 0.931 . S
H531 C505 0.931 . S
H532 C510 0.930 . S
H533 C511 0.931 . S
H534 C513 0.931 . S
H535 C514 0.931 . S
Gd536 C539 2.818 . S
Gd536 O556 2.377 . S
Gd536 O558 2.448 . S
Gd536 O559 2.506 . S
Gd536 O560 2.435 . S
Gd536 O561 2.717 . S
Gd536 O563 2.395 . S
Gd536 O567 2.327 . S
Gd537 C548 2.818 . S
Gd537 O557 2.395 . S
Gd537 O561 2.327 . S
Gd537 O562 2.377 . S
Gd537 O564 2.448 . S
Gd537 O565 2.506 . S
Gd537 O566 2.435 . S
Gd537 O567 2.717 . S
C538 O556 1.240 . S
C538 O557 1.240 . S
C539 Gd536 2.818 . S
C539 C540 1.510 . S
C539 O558 1.249 . S
C539 O559 1.252 . S
C540 C539 1.510 . S
C540 C541 1.404 . S
C540 C542 1.352 . S
C541 C540 1.404 . S
C541 C545 1.389 . S
C541 H568 0.930 . S
C542 C540 1.352 . S
C542 C544 1.374 . S
C542 H569 0.931 . S
C543 C544 1.359 . S
C543 C545 1.364 . S
C544 C542 1.374 . S
C544 C543 1.359 . S
C544 H570 0.931 . S
C545 C541 1.389 . S
C545 C543 1.364 . S
C545 H571 0.931 . S
C546 O560 1.256 . S
C546 O561 1.257 . S
C547 O562 1.240 . S
C547 O563 1.240 . S
C548 Gd537 2.818 . S
C548 C549 1.510 . S
C548 O564 1.249 . S
C548 O565 1.252 . S
C549 C548 1.510 . S
C549 C550 1.404 . S
C549 C551 1.352 . S
C550 C549 1.404 . S
C550 C554 1.389 . S
C550 H572 0.930 . S
C551 C549 1.352 . S
C551 C553 1.374 . S
C551 H573 0.931 . S
C552 C553 1.359 . S
C552 C554 1.364 . S
C553 C551 1.374 . S
C553 C552 1.359 . S
C553 H574 0.931 . S
C554 C550 1.389 . S
C554 C552 1.364 . S
C554 H575 0.931 . S
C555 O566 1.256 . S
C555 O567 1.257 . S
O556 Gd536 2.377 . S
O556 C538 1.240 . S
O557 Gd537 2.395 . S
O557 C538 1.240 . S
O558 Gd536 2.448 . S
O558 C539 1.249 . S
O559 Gd536 2.506 . S
O559 C539 1.252 . S
O560 Gd536 2.435 . S
O560 C546 1.256 . S
O561 Gd536 2.717 . S
O561 Gd537 2.327 . S
O561 C546 1.257 . S
O562 Gd537 2.377 . S
O562 C547 1.240 . S
O563 Gd536 2.395 . S
O563 C547 1.240 . S
O564 Gd537 2.448 . S
O564 C548 1.249 . S
O565 Gd537 2.506 . S
O565 C548 1.252 . S
O566 Gd537 2.435 . S
O566 C555 1.256 . S
O567 Gd536 2.327 . S
O567 Gd537 2.717 . S
O567 C555 1.257 . S
H568 C541 0.930 . S
H569 C542 0.931 . S
H570 C544 0.931 . S
H571 C545 0.931 . S
H572 C550 0.930 . S
H573 C551 0.931 . S
H574 C553 0.931 . S
H575 C554 0.931 . S
Gd576 C579 2.818 . S
Gd576 O596 2.377 . S
Gd576 O598 2.448 . S
Gd576 O599 2.506 . S
Gd576 O600 2.435 1_545 S
Gd576 O601 2.717 . S
Gd576 O603 2.395 . S
Gd576 O607 2.327 . S
Gd577 C588 2.818 . S
Gd577 O597 2.395 1_556 S
Gd577 O601 2.327 1_556 S
Gd577 O602 2.377 1_556 S
Gd577 O604 2.448 . S
Gd577 O605 2.506 . S
Gd577 O606 2.435 1_556 S
Gd577 O607 2.717 1_556 S
C578 O596 1.240 . S
C578 O597 1.240 . S
C579 Gd576 2.818 . S
C579 C580 1.510 . S
C579 O598 1.249 . S
C579 O599 1.252 . S
C580 C579 1.510 . S
C580 C581 1.404 1_545 S
C580 C582 1.352 . S
C581 C580 1.404 1_565 S
C581 C585 1.389 . S
C581 H608 0.930 . S
C582 C580 1.352 . S
C582 C584 1.374 . S
C582 H609 0.931 . S
C583 C584 1.359 1_565 S
C583 C585 1.364 . S
C584 C582 1.374 . S
C584 C583 1.359 1_545 S
C584 H610 0.931 . S
C585 C581 1.389 . S
C585 C583 1.364 . S
C585 H611 0.931 . S
C586 O600 1.256 . S
C586 O601 1.257 1_565 S
C587 O602 1.240 . S
C587 O603 1.240 . S
C588 Gd577 2.818 . S
C588 C589 1.510 . S
C588 O604 1.249 . S
C588 O605 1.252 . S
C589 C588 1.510 . S
C589 C590 1.404 . S
C589 C591 1.352 . S
C590 C589 1.404 . S
C590 C594 1.389 . S
C590 H612 0.930 . S
C591 C589 1.352 . S
C591 C593 1.374 . S
C591 H613 0.931 . S
C592 C593 1.359 . S
C592 C594 1.364 . S
C593 C591 1.374 . S
C593 C592 1.359 . S
C593 H614 0.931 . S
C594 C590 1.389 . S
C594 C592 1.364 . S
C594 H615 0.931 . S
C595 O606 1.256 . S
C595 O607 1.257 . S
O596 Gd576 2.377 . S
O596 C578 1.240 . S
O597 Gd577 2.395 1_554 S
O597 C578 1.240 . S
O598 Gd576 2.448 . S
O598 C579 1.249 . S
O599 Gd576 2.506 . S
O599 C579 1.252 . S
O600 Gd576 2.435 1_565 S
O600 C586 1.256 . S
O601 Gd576 2.717 . S
O601 Gd577 2.327 1_554 S
O601 C586 1.257 1_545 S
O602 Gd577 2.377 1_554 S
O602 C587 1.240 . S
O603 Gd576 2.395 . S
O603 C587 1.240 . S
O604 Gd577 2.448 . S
O604 C588 1.249 . S
O605 Gd577 2.506 . S
O605 C588 1.252 . S
O606 Gd577 2.435 1_554 S
O606 C595 1.256 . S
O607 Gd576 2.327 . S
O607 Gd577 2.717 1_554 S
O607 C595 1.257 . S
H608 C581 0.930 . S
H609 C582 0.931 . S
H610 C584 0.931 . S
H611 C585 0.931 . S
H612 C590 0.930 . S
H613 C591 0.931 . S
H614 C593 0.931 . S
H615 C594 0.931 . S
Gd616 C619 2.818 . S
Gd616 O636 2.377 . S
Gd616 O638 2.448 . S
Gd616 O639 2.506 . S
Gd616 O640 2.435 . S
Gd616 O641 2.717 . S
Gd616 O643 2.395 . S
Gd616 O647 2.327 . S
Gd617 C628 2.818 . S
Gd617 O637 2.395 . S
Gd617 O641 2.327 . S
Gd617 O642 2.377 . S
Gd617 O644 2.448 . S
Gd617 O645 2.506 . S
Gd617 O646 2.435 . S
Gd617 O647 2.717 . S
C618 O636 1.240 . S
C618 O637 1.240 . S
C619 Gd616 2.818 . S
C619 C620 1.510 . S
C619 O638 1.249 . S
C619 O639 1.252 . S
C620 C619 1.510 . S
C620 C621 1.404 . S
C620 C622 1.352 . S
C621 C620 1.404 . S
C621 C625 1.389 . S
C621 H648 0.930 . S
C622 C620 1.352 . S
C622 C624 1.374 . S
C622 H649 0.931 . S
C623 C624 1.359 . S
C623 C625 1.364 . S
C624 C622 1.374 . S
C624 C623 1.359 . S
C624 H650 0.931 . S
C625 C621 1.389 . S
C625 C623 1.364 . S
C625 H651 0.931 . S
C626 O640 1.256 . S
C626 O641 1.257 . S
C627 O642 1.240 . S
C627 O643 1.240 . S
C628 Gd617 2.818 . S
C628 C629 1.510 . S
C628 O644 1.249 . S
C628 O645 1.252 . S
C629 C628 1.510 . S
C629 C630 1.404 . S
C629 C631 1.352 . S
C630 C629 1.404 . S
C630 C634 1.389 . S
C630 H652 0.930 . S
C631 C629 1.352 . S
C631 C633 1.374 . S
C631 H653 0.931 . S
C632 C633 1.359 . S
C632 C634 1.364 . S
C633 C631 1.374 . S
C633 C632 1.359 . S
C633 H654 0.931 . S
C634 C630 1.389 . S
C634 C632 1.364 . S
C634 H655 0.931 . S
C635 O646 1.256 . S
C635 O647 1.257 . S
O636 Gd616 2.377 . S
O636 C618 1.240 . S
O637 Gd617 2.395 . S
O637 C618 1.240 . S
O638 Gd616 2.448 . S
O638 C619 1.249 . S
O639 Gd616 2.506 . S
O639 C619 1.252 . S
O640 Gd616 2.435 . S
O640 C626 1.256 . S
O641 Gd616 2.717 . S
O641 Gd617 2.327 . S
O641 C626 1.257 . S
O642 Gd617 2.377 . S
O642 C627 1.240 . S
O643 Gd616 2.395 . S
O643 C627 1.240 . S
O644 Gd617 2.448 . S
O644 C628 1.249 . S
O645 Gd617 2.506 . S
O645 C628 1.252 . S
O646 Gd617 2.435 . S
O646 C635 1.256 . S
O647 Gd616 2.327 . S
O647 Gd617 2.717 . S
O647 C635 1.257 . S
H648 C621 0.930 . S
H649 C622 0.931 . S
H650 C624 0.931 . S
H651 C625 0.931 . S
H652 C630 0.930 . S
H653 C631 0.931 . S
H654 C633 0.931 . S
H655 C634 0.931 . S
Gd656 C659 2.818 . S
Gd656 O676 2.377 1_554 S
Gd656 O678 2.448 . S
Gd656 O679 2.506 . S
Gd656 O680 2.435 . S
Gd656 O681 2.717 . S
Gd656 O683 2.395 . S
Gd656 O687 2.327 . S
Gd657 C668 2.818 . S
Gd657 O677 2.395 1_554 S
Gd657 O681 2.327 . S
Gd657 O682 2.377 . S
Gd657 O684 2.448 . S
Gd657 O685 2.506 . S
Gd657 O686 2.435 . S
Gd657 O687 2.717 . S
C658 O676 1.240 . S
C658 O677 1.240 . S
C659 Gd656 2.818 . S
C659 C660 1.510 . S
C659 O678 1.249 . S
C659 O679 1.252 . S
C660 C659 1.510 . S
C660 C661 1.404 . S
C660 C662 1.352 1_554 S
C661 C660 1.404 . S
C661 C665 1.389 1_554 S
C661 H688 0.930 . S
C662 C660 1.352 1_556 S
C662 C664 1.374 . S
C662 H689 0.931 . S
C663 C664 1.359 . S
C663 C665 1.364 . S
C664 C662 1.374 . S
C664 C663 1.359 . S
C664 H690 0.931 . S
C665 C661 1.389 1_556 S
C665 C663 1.364 . S
C665 H691 0.931 . S
C666 O680 1.256 . S
C666 O681 1.257 . S
C667 O682 1.240 . S
C667 O683 1.240 . S
C668 Gd657 2.818 . S
C668 C669 1.510 . S
C668 O684 1.249 . S
C668 O685 1.252 . S
C669 C668 1.510 . S
C669 C670 1.404 . S
C669 C671 1.352 . S
C670 C669 1.404 . S
C670 C674 1.389 . S
C670 H692 0.930 . S
C671 C669 1.352 . S
C671 C673 1.374 . S
C671 H693 0.931 . S
C672 C673 1.359 . S
C672 C674 1.364 . S
C673 C671 1.374 . S
C673 C672 1.359 . S
C673 H694 0.931 . S
C674 C670 1.389 . S
C674 C672 1.364 . S
C674 H695 0.931 . S
C675 O686 1.256 . S
C675 O687 1.257 . S
O676 Gd656 2.377 1_556 S
O676 C658 1.240 . S
O677 Gd657 2.395 1_556 S
O677 C658 1.240 . S
O678 Gd656 2.448 . S
O678 C659 1.249 . S
O679 Gd656 2.506 . S
O679 C659 1.252 . S
O680 Gd656 2.435 . S
O680 C666 1.256 . S
O681 Gd656 2.717 . S
O681 Gd657 2.327 . S
O681 C666 1.257 . S
O682 Gd657 2.377 . S
O682 C667 1.240 . S
O683 Gd656 2.395 . S
O683 C667 1.240 . S
O684 Gd657 2.448 . S
O684 C668 1.249 . S
O685 Gd657 2.506 . S
O685 C668 1.252 . S
O686 Gd657 2.435 . S
O686 C675 1.256 . S
O687 Gd656 2.327 . S
O687 Gd657 2.717 . S
O687 C675 1.257 . S
H688 C661 0.930 . S
H689 C662 0.931 . S
H690 C664 0.931 . S
H691 C665 0.931 . S
H692 C670 0.930 . S
H693 C671 0.931 . S
H694 C673 0.931 . S
H695 C674 0.931 . S
Gd696 C699 2.818 . S
Gd696 O716 2.377 . S
Gd696 O718 2.448 . S
Gd696 O719 2.506 . S
Gd696 O720 2.435 . S
Gd696 O721 2.717 . S
Gd696 O723 2.395 . S
Gd696 O727 2.327 . S
Gd697 C708 2.818 . S
Gd697 O717 2.395 . S
Gd697 O721 2.327 . S
Gd697 O722 2.377 . S
Gd697 O724 2.448 . S
Gd697 O725 2.506 . S
Gd697 O726 2.435 . S
Gd697 O727 2.717 . S
C698 O716 1.240 . S
C698 O717 1.240 . S
C699 Gd696 2.818 . S
C699 C700 1.510 . S
C699 O718 1.249 . S
C699 O719 1.252 . S
C700 C699 1.510 . S
C700 C701 1.404 . S
C700 C702 1.352 . S
C701 C700 1.404 . S
C701 C705 1.389 . S
C701 H728 0.930 . S
C702 C700 1.352 . S
C702 C704 1.374 . S
C702 H729 0.931 . S
C703 C704 1.359 . S
C703 C705 1.364 . S
C704 C702 1.374 . S
C704 C703 1.359 . S
C704 H730 0.931 . S
C705 C701 1.389 . S
C705 C703 1.364 . S
C705 H731 0.931 . S
C706 O720 1.256 . S
C706 O721 1.257 . S
C707 O722 1.240 . S
C707 O723 1.240 . S
C708 Gd697 2.818 . S
C708 C709 1.510 . S
C708 O724 1.249 . S
C708 O725 1.252 . S
C709 C708 1.510 . S
C709 C710 1.404 . S
C709 C711 1.352 . S
C710 C709 1.404 . S
C710 C714 1.389 . S
C710 H732 0.930 . S
C711 C709 1.352 . S
C711 C713 1.374 . S
C711 H733 0.931 . S
C712 C713 1.359 . S
C712 C714 1.364 . S
C713 C711 1.374 . S
C713 C712 1.359 . S
C713 H734 0.931 . S
C714 C710 1.389 . S
C714 C712 1.364 . S
C714 H735 0.931 . S
C715 O726 1.256 . S
C715 O727 1.257 . S
O716 Gd696 2.377 . S
O716 C698 1.240 . S
O717 Gd697 2.395 . S
O717 C698 1.240 . S
O718 Gd696 2.448 . S
O718 C699 1.249 . S
O719 Gd696 2.506 . S
O719 C699 1.252 . S
O720 Gd696 2.435 . S
O720 C706 1.256 . S
O721 Gd696 2.717 . S
O721 Gd697 2.327 . S
O721 C706 1.257 . S
O722 Gd697 2.377 . S
O722 C707 1.240 . S
O723 Gd696 2.395 . S
O723 C707 1.240 . S
O724 Gd697 2.448 . S
O724 C708 1.249 . S
O725 Gd697 2.506 . S
O725 C708 1.252 . S
O726 Gd697 2.435 . S
O726 C715 1.256 . S
O727 Gd696 2.327 . S
O727 Gd697 2.717 . S
O727 C715 1.257 . S
H728 C701 0.930 . S
H729 C702 0.931 . S
H730 C704 0.931 . S
H731 C705 0.931 . S
H732 C710 0.930 . S
H733 C711 0.931 . S
H734 C713 0.931 . S
H735 C714 0.931 . S
Gd736 C739 2.818 . S
Gd736 O756 2.377 . S
Gd736 O758 2.448 . S
Gd736 O759 2.506 . S
Gd736 O760 2.435 . S
Gd736 O761 2.717 . S
Gd736 O763 2.395 . S
Gd736 O767 2.327 . S
Gd737 C748 2.818 . S
Gd737 O757 2.395 . S
Gd737 O761 2.327 . S
Gd737 O762 2.377 . S
Gd737 O764 2.448 . S
Gd737 O765 2.506 . S
Gd737 O766 2.435 . S
Gd737 O767 2.717 . S
C738 O756 1.240 . S
C738 O757 1.240 . S
C739 Gd736 2.818 . S
C739 C740 1.510 . S
C739 O758 1.249 . S
C739 O759 1.252 . S
C740 C739 1.510 . S
C740 C741 1.404 . S
C740 C742 1.352 . S
C741 C740 1.404 . S
C741 C745 1.389 . S
C741 H768 0.930 . S
C742 C740 1.352 . S
C742 C744 1.374 1_455 S
C742 H769 0.931 . S
C743 C744 1.359 . S
C743 C745 1.364 1_655 S
C744 C742 1.374 1_655 S
C744 C743 1.359 . S
C744 H770 0.931 . S
C745 C741 1.389 . S
C745 C743 1.364 1_455 S
C745 H771 0.931 . S
C746 O760 1.256 . S
C746 O761 1.257 . S
C747 O762 1.240 . S
C747 O763 1.240 . S
C748 Gd737 2.818 . S
C748 C749 1.510 . S
C748 O764 1.249 . S
C748 O765 1.252 . S
C749 C748 1.510 . S
C749 C750 1.404 . S
C749 C751 1.352 . S
C750 C749 1.404 . S
C750 C754 1.389 . S
C750 H772 0.930 . S
C751 C749 1.352 . S
C751 C753 1.374 . S
C751 H773 0.931 . S
C752 C753 1.359 . S
C752 C754 1.364 . S
C753 C751 1.374 . S
C753 C752 1.359 . S
C753 H774 0.931 . S
C754 C750 1.389 . S
C754 C752 1.364 . S
C754 H775 0.931 . S
C755 O766 1.256 . S
C755 O767 1.257 . S
O756 Gd736 2.377 . S
O756 C738 1.240 . S
O757 Gd737 2.395 . S
O757 C738 1.240 . S
O758 Gd736 2.448 . S
O758 C739 1.249 . S
O759 Gd736 2.506 . S
O759 C739 1.252 . S
O760 Gd736 2.435 . S
O760 C746 1.256 . S
O761 Gd736 2.717 . S
O761 Gd737 2.327 . S
O761 C746 1.257 . S
O762 Gd737 2.377 . S
O762 C747 1.240 . S
O763 Gd736 2.395 . S
O763 C747 1.240 . S
O764 Gd737 2.448 . S
O764 C748 1.249 . S
O765 Gd737 2.506 . S
O765 C748 1.252 . S
O766 Gd737 2.435 . S
O766 C755 1.256 . S
O767 Gd736 2.327 . S
O767 Gd737 2.717 . S
O767 C755 1.257 . S
H768 C741 0.930 . S
H769 C742 0.931 . S
H770 C744 0.931 . S
H771 C745 0.931 . S
H772 C750 0.930 . S
H773 C751 0.931 . S
H774 C753 0.931 . S
H775 C754 0.931 . S
Gd776 C779 2.818 . S
Gd776 O796 2.377 . S
Gd776 O798 2.448 . S
Gd776 O799 2.506 . S
Gd776 O800 2.435 . S
Gd776 O801 2.717 . S
Gd776 O803 2.395 . S
Gd776 O807 2.327 . S
Gd777 C788 2.818 . S
Gd777 O797 2.395 . S
Gd777 O801 2.327 . S
Gd777 O802 2.377 . S
Gd777 O804 2.448 . S
Gd777 O805 2.506 . S
Gd777 O806 2.435 . S
Gd777 O807 2.717 . S
C778 O796 1.240 . S
C778 O797 1.240 . S
C779 Gd776 2.818 . S
C779 C780 1.510 . S
C779 O798 1.249 . S
C779 O799 1.252 . S
C780 C779 1.510 . S
C780 C781 1.404 . S
C780 C782 1.352 . S
C781 C780 1.404 . S
C781 C785 1.389 . S
C781 H808 0.930 . S
C782 C780 1.352 . S
C782 C784 1.374 . S
C782 H809 0.931 . S
C783 C784 1.359 . S
C783 C785 1.364 . S
C784 C782 1.374 . S
C784 C783 1.359 . S
C784 H810 0.931 . S
C785 C781 1.389 . S
C785 C783 1.364 . S
C785 H811 0.931 . S
C786 O800 1.256 . S
C786 O801 1.257 . S
C787 O802 1.240 . S
C787 O803 1.240 . S
C788 Gd777 2.818 . S
C788 C789 1.510 . S
C788 O804 1.249 . S
C788 O805 1.252 . S
C789 C788 1.510 . S
C789 C790 1.404 . S
C789 C791 1.352 . S
C790 C789 1.404 . S
C790 C794 1.389 . S
C790 H812 0.930 . S
C791 C789 1.352 . S
C791 C793 1.374 . S
C791 H813 0.931 . S
C792 C793 1.359 . S
C792 C794 1.364 . S
C793 C791 1.374 . S
C793 C792 1.359 . S
C793 H814 0.931 . S
C794 C790 1.389 . S
C794 C792 1.364 . S
C794 H815 0.931 . S
C795 O806 1.256 . S
C795 O807 1.257 . S
O796 Gd776 2.377 . S
O796 C778 1.240 . S
O797 Gd777 2.395 . S
O797 C778 1.240 . S
O798 Gd776 2.448 . S
O798 C779 1.249 . S
O799 Gd776 2.506 . S
O799 C779 1.252 . S
O800 Gd776 2.435 . S
O800 C786 1.256 . S
O801 Gd776 2.717 . S
O801 Gd777 2.327 . S
O801 C786 1.257 . S
O802 Gd777 2.377 . S
O802 C787 1.240 . S
O803 Gd776 2.395 . S
O803 C787 1.240 . S
O804 Gd777 2.448 . S
O804 C788 1.249 . S
O805 Gd777 2.506 . S
O805 C788 1.252 . S
O806 Gd777 2.435 . S
O806 C795 1.256 . S
O807 Gd776 2.327 . S
O807 Gd777 2.717 . S
O807 C795 1.257 . S
H808 C781 0.930 . S
H809 C782 0.931 . S
H810 C784 0.931 . S
H811 C785 0.931 . S
H812 C790 0.930 . S
H813 C791 0.931 . S
H814 C793 0.931 . S
H815 C794 0.931 . S
Gd816 C819 2.818 . S
Gd816 O836 2.377 . S
Gd816 O838 2.448 . S
Gd816 O839 2.506 . S
Gd816 O840 2.435 . S
Gd816 O841 2.717 . S
Gd816 O843 2.395 . S
Gd816 O847 2.327 . S
Gd817 C828 2.818 . S
Gd817 O837 2.395 . S
Gd817 O841 2.327 . S
Gd817 O842 2.377 . S
Gd817 O844 2.448 . S
Gd817 O845 2.506 . S
Gd817 O846 2.435 . S
Gd817 O847 2.717 . S
C818 O836 1.240 . S
C818 O837 1.240 . S
C819 Gd816 2.818 . S
C819 C820 1.510 . S
C819 O838 1.249 . S
C819 O839 1.252 . S
C820 C819 1.510 . S
C820 C821 1.404 . S
C820 C822 1.352 . S
C821 C820 1.404 . S
C821 C825 1.389 . S
C821 H848 0.930 . S
C822 C820 1.352 . S
C822 C824 1.374 . S
C822 H849 0.931 . S
C823 C824 1.359 . S
C823 C825 1.364 . S
C824 C822 1.374 . S
C824 C823 1.359 . S
C824 H850 0.931 . S
C825 C821 1.389 . S
C825 C823 1.364 . S
C825 H851 0.931 . S
C826 O840 1.256 . S
C826 O841 1.257 . S
C827 O842 1.240 . S
C827 O843 1.240 . S
C828 Gd817 2.818 . S
C828 C829 1.510 . S
C828 O844 1.249 . S
C828 O845 1.252 . S
C829 C828 1.510 . S
C829 C830 1.404 . S
C829 C831 1.352 . S
C830 C829 1.404 . S
C830 C834 1.389 . S
C830 H852 0.930 . S
C831 C829 1.352 . S
C831 C833 1.374 . S
C831 H853 0.931 . S
C832 C833 1.359 . S
C832 C834 1.364 . S
C833 C831 1.374 . S
C833 C832 1.359 . S
C833 H854 0.931 . S
C834 C830 1.389 . S
C834 C832 1.364 . S
C834 H855 0.931 . S
C835 O846 1.256 . S
C835 O847 1.257 . S
O836 Gd816 2.377 . S
O836 C818 1.240 . S
O837 Gd817 2.395 . S
O837 C818 1.240 . S
O838 Gd816 2.448 . S
O838 C819 1.249 . S
O839 Gd816 2.506 . S
O839 C819 1.252 . S
O840 Gd816 2.435 . S
O840 C826 1.256 . S
O841 Gd816 2.717 . S
O841 Gd817 2.327 . S
O841 C826 1.257 . S
O842 Gd817 2.377 . S
O842 C827 1.240 . S
O843 Gd816 2.395 . S
O843 C827 1.240 . S
O844 Gd817 2.448 . S
O844 C828 1.249 . S
O845 Gd817 2.506 . S
O845 C828 1.252 . S
O846 Gd817 2.435 . S
O846 C835 1.256 . S
O847 Gd816 2.327 . S
O847 Gd817 2.717 . S
O847 C835 1.257 . S
H848 C821 0.930 . S
H849 C822 0.931 . S
H850 C824 0.931 . S
H851 C825 0.931 . S
H852 C830 0.930 . S
H853 C831 0.931 . S
H854 C833 0.931 . S
H855 C834 0.931 . S
Gd856 C859 2.818 . S
Gd856 O876 2.377 . S
Gd856 O878 2.448 . S
Gd856 O879 2.506 . S
Gd856 O880 2.435 . S
Gd856 O881 2.717 . S
Gd856 O883 2.395 . S
Gd856 O887 2.327 . S
Gd857 C868 2.818 . S
Gd857 O877 2.395 . S
Gd857 O881 2.327 . S
Gd857 O882 2.377 . S
Gd857 O884 2.448 . S
Gd857 O885 2.506 . S
Gd857 O886 2.435 . S
Gd857 O887 2.717 . S
C858 O876 1.240 . S
C858 O877 1.240 . S
C859 Gd856 2.818 . S
C859 C860 1.510 . S
C859 O878 1.249 . S
C859 O879 1.252 . S
C860 C859 1.510 . S
C860 C861 1.404 . S
C860 C862 1.352 . S
C861 C860 1.404 . S
C861 C865 1.389 . S
C861 H888 0.930 . S
C862 C860 1.352 . S
C862 C864 1.374 . S
C862 H889 0.931 . S
C863 C864 1.359 . S
C863 C865 1.364 . S
C864 C862 1.374 . S
C864 C863 1.359 . S
C864 H890 0.931 . S
C865 C861 1.389 . S
C865 C863 1.364 . S
C865 H891 0.931 . S
C866 O880 1.256 . S
C866 O881 1.257 . S
C867 O882 1.240 . S
C867 O883 1.240 . S
C868 Gd857 2.818 . S
C868 C869 1.510 . S
C868 O884 1.249 . S
C868 O885 1.252 . S
C869 C868 1.510 . S
C869 C870 1.404 . S
C869 C871 1.352 . S
C870 C869 1.404 . S
C870 C874 1.389 . S
C870 H892 0.930 . S
C871 C869 1.352 . S
C871 C873 1.374 . S
C871 H893 0.931 . S
C872 C873 1.359 . S
C872 C874 1.364 . S
C873 C871 1.374 . S
C873 C872 1.359 . S
C873 H894 0.931 . S
C874 C870 1.389 . S
C874 C872 1.364 . S
C874 H895 0.931 . S
C875 O886 1.256 . S
C875 O887 1.257 . S
O876 Gd856 2.377 . S
O876 C858 1.240 . S
O877 Gd857 2.395 . S
O877 C858 1.240 . S
O878 Gd856 2.448 . S
O878 C859 1.249 . S
O879 Gd856 2.506 . S
O879 C859 1.252 . S
O880 Gd856 2.435 . S
O880 C866 1.256 . S
O881 Gd856 2.717 . S
O881 Gd857 2.327 . S
O881 C866 1.257 . S
O882 Gd857 2.377 . S
O882 C867 1.240 . S
O883 Gd856 2.395 . S
O883 C867 1.240 . S
O884 Gd857 2.448 . S
O884 C868 1.249 . S
O885 Gd857 2.506 . S
O885 C868 1.252 . S
O886 Gd857 2.435 . S
O886 C875 1.256 . S
O887 Gd856 2.327 . S
O887 Gd857 2.717 . S
O887 C875 1.257 . S
H888 C861 0.930 . S
H889 C862 0.931 . S
H890 C864 0.931 . S
H891 C865 0.931 . S
H892 C870 0.930 . S
H893 C871 0.931 . S
H894 C873 0.931 . S
H895 C874 0.931 . S
Gd896 C899 2.818 . S
Gd896 O916 2.377 . S
Gd896 O918 2.448 . S
Gd896 O919 2.506 . S
Gd896 O920 2.435 . S
Gd896 O921 2.717 . S
Gd896 O923 2.395 . S
Gd896 O927 2.327 . S
Gd897 C908 2.818 . S
Gd897 O917 2.395 . S
Gd897 O921 2.327 . S
Gd897 O922 2.377 . S
Gd897 O924 2.448 . S
Gd897 O925 2.506 . S
Gd897 O926 2.435 . S
Gd897 O927 2.717 . S
C898 O916 1.240 . S
C898 O917 1.240 . S
C899 Gd896 2.818 . S
C899 C900 1.510 . S
C899 O918 1.249 . S
C899 O919 1.252 . S
C900 C899 1.510 . S
C900 C901 1.404 . S
C900 C902 1.352 . S
C901 C900 1.404 . S
C901 C905 1.389 . S
C901 H928 0.930 . S
C902 C900 1.352 . S
C902 C904 1.374 . S
C902 H929 0.931 . S
C903 C904 1.359 . S
C903 C905 1.364 . S
C904 C902 1.374 . S
C904 C903 1.359 . S
C904 H930 0.931 . S
C905 C901 1.389 . S
C905 C903 1.364 . S
C905 H931 0.931 . S
C906 O920 1.256 . S
C906 O921 1.257 . S
C907 O922 1.240 . S
C907 O923 1.240 . S
C908 Gd897 2.818 . S
C908 C909 1.510 . S
C908 O924 1.249 . S
C908 O925 1.252 . S
C909 C908 1.510 . S
C909 C910 1.404 . S
C909 C911 1.352 . S
C910 C909 1.404 . S
C910 C914 1.389 . S
C910 H932 0.930 . S
C911 C909 1.352 . S
C911 C913 1.374 . S
C911 H933 0.931 . S
C912 C913 1.359 . S
C912 C914 1.364 . S
C913 C911 1.374 . S
C913 C912 1.359 . S
C913 H934 0.931 . S
C914 C910 1.389 . S
C914 C912 1.364 . S
C914 H935 0.931 . S
C915 O926 1.256 . S
C915 O927 1.257 . S
O916 Gd896 2.377 . S
O916 C898 1.240 . S
O917 Gd897 2.395 . S
O917 C898 1.240 . S
O918 Gd896 2.448 . S
O918 C899 1.249 . S
O919 Gd896 2.506 . S
O919 C899 1.252 . S
O920 Gd896 2.435 . S
O920 C906 1.256 . S
O921 Gd896 2.717 . S
O921 Gd897 2.327 . S
O921 C906 1.257 . S
O922 Gd897 2.377 . S
O922 C907 1.240 . S
O923 Gd896 2.395 . S
O923 C907 1.240 . S
O924 Gd897 2.448 . S
O924 C908 1.249 . S
O925 Gd897 2.506 . S
O925 C908 1.252 . S
O926 Gd897 2.435 . S
O926 C915 1.256 . S
O927 Gd896 2.327 . S
O927 Gd897 2.717 . S
O927 C915 1.257 . S
H928 C901 0.930 . S
H929 C902 0.931 . S
H930 C904 0.931 . S
H931 C905 0.931 . S
H932 C910 0.930 . S
H933 C911 0.931 . S
H934 C913 0.931 . S
H935 C914 0.931 . S
Gd936 C939 2.818 . S
Gd936 O956 2.377 . S
Gd936 O958 2.448 . S
Gd936 O959 2.506 . S
Gd936 O960 2.435 1_554 S
Gd936 O961 2.717 . S
Gd936 O963 2.395 . S
Gd936 O967 2.327 . S
Gd937 C948 2.818 1_455 S
Gd937 O957 2.395 . S
Gd937 O961 2.327 . S
Gd937 O962 2.377 . S
Gd937 O964 2.448 . S
Gd937 O965 2.506 . S
Gd937 O966 2.435 . S
Gd937 O967 2.717 . S
C938 O956 1.240 . S
C938 O957 1.240 . S
C939 Gd936 2.818 . S
C939 C940 1.510 . S
C939 O958 1.249 . S
C939 O959 1.252 . S
C940 C939 1.510 . S
C940 C941 1.426 . S
C940 C942 1.352 . S
C941 C940 1.426 . S
C941 C945 1.386 1_554 S
C941 H968 0.912 1_554 S
C942 C940 1.352 . S
C942 C944 1.374 . S
C942 H969 0.931 . S
C943 C944 1.359 . S
C943 C945 1.364 1_554 S
C944 C942 1.374 . S
C944 C943 1.359 . S
C944 H970 0.931 . S
C945 C941 1.386 1_556 S
C945 C943 1.364 1_556 S
C945 H971 0.931 . S
C946 O960 1.272 . S
C946 O961 1.212 1_556 S
C947 O962 1.240 . S
C947 O963 1.240 . S
C948 Gd937 2.818 1_655 S
C948 C949 1.510 . S
C948 O964 1.249 1_655 S
C948 O965 1.252 1_655 S
C949 C948 1.510 . S
C949 C950 1.404 . S
C949 C951 1.352 . S
C950 C949 1.404 . S
C950 C954 1.389 . S
C950 H972 0.930 . S
C951 C949 1.352 . S
C951 C953 1.374 . S
C951 H973 0.931 . S
C952 C953 1.359 . S
C952 C954 1.364 . S
C953 C951 1.374 . S
C953 C952 1.359 . S
C953 H974 0.931 . S
C954 C950 1.389 . S
C954 C952 1.364 . S
C954 H975 0.931 . S
C955 O966 1.256 . S
C955 O967 1.257 . S
O956 Gd936 2.377 . S
O956 C938 1.240 . S
O957 Gd937 2.395 . S
O957 C938 1.240 . S
O958 Gd936 2.448 . S
O958 C939 1.249 . S
O959 Gd936 2.506 . S
O959 C939 1.252 . S
O960 Gd936 2.435 1_556 S
O960 C946 1.272 . S
O961 Gd936 2.717 . S
O961 Gd937 2.327 . S
O961 C946 1.212 1_554 S
O962 Gd937 2.377 . S
O962 C947 1.240 . S
O963 Gd936 2.395 . S
O963 C947 1.240 . S
O964 Gd937 2.448 . S
O964 C948 1.249 1_455 S
O965 Gd937 2.506 . S
O965 C948 1.252 1_455 S
O966 Gd937 2.435 . S
O966 C955 1.256 . S
O967 Gd936 2.327 . S
O967 Gd937 2.717 . S
O967 C955 1.257 . S
H968 C941 0.912 1_556 S
H969 C942 0.931 . S
H970 C944 0.931 . S
H971 C945 0.931 . S
H972 C950 0.930 . S
H973 C951 0.931 . S
H974 C953 0.931 . S
H975 C954 0.931 . S
C976 C977 1.391 . S
C976 C978 1.394 . S
C976 H992 0.931 1_455 S
C977 C976 1.391 . S
C977 C981 1.376 . S
C978 C976 1.394 . S
C978 C979 1.369 . S
C978 C982 1.531 1_455 S
C979 C978 1.369 . S
C979 C980 1.410 . S
C979 C987 1.503 . S
C980 C979 1.410 . S
C980 C981 1.392 . S
C980 C983 1.511 . S
C981 C977 1.376 . S
C981 C980 1.392 . S
C981 H993 0.929 . S
C982 C978 1.531 1_655 S
C982 H994 0.960 . S
C982 H995 0.962 . S
C982 H996 0.960 . S
C983 C980 1.511 . S
C983 H997 0.961 . S
C983 H998 0.961 . S
C983 H999 0.961 . S
C984 C985 1.370 . S
C984 C986 1.392 . S
C984 H1000 0.931 . S
C985 C984 1.370 . S
C985 C989 1.408 1_554 S
C986 C984 1.392 . S
C986 C987 1.326 1_554 S
C986 C990 1.542 . S
C987 C979 1.503 . S
C987 C986 1.326 1_556 S
C987 C988 1.403 . S
C988 C987 1.403 . S
C988 C989 1.404 . S
C988 C991 1.539 . S
C989 C985 1.408 1_556 S
C989 C988 1.404 . S
C989 H1001 0.930 . S
C990 C986 1.542 . S
C990 H1002 0.956 . S
C990 H1003 0.961 . S
C990 H1004 0.961 . S
C991 C988 1.539 . S
C991 H1005 0.958 . S
C991 H1006 0.961 . S
C991 H1007 0.960 . S
H992 C976 0.931 1_655 S
H993 C981 0.929 . S
H994 C982 0.960 . S
H995 C982 0.962 . S
H996 C982 0.960 . S
H997 C983 0.961 . S
H998 C983 0.961 . S
H999 C983 0.961 . S
H1000 C984 0.931 . S
H1001 C989 0.930 . S
H1002 C990 0.956 . S
H1003 C990 0.961 . S
H1004 C990 0.961 . S
H1005 C991 0.958 . S
H1006 C991 0.961 . S
H1007 C991 0.960 . S
C1008 C1009 1.391 . S
C1008 C1010 1.394 . S
C1008 H1024 0.931 . S
C1009 C1008 1.391 . S
C1009 C1013 1.376 . S
C1010 C1008 1.394 . S
C1010 C1011 1.369 . S
C1010 C1014 1.531 . S
C1011 C1010 1.369 . S
C1011 C1012 1.410 . S
C1011 C1019 1.503 . S
C1012 C1011 1.410 . S
C1012 C1013 1.392 . S
C1012 C1015 1.511 . S
C1013 C1009 1.376 . S
C1013 C1012 1.392 . S
C1013 H1025 0.929 . S
C1014 C1010 1.531 . S
C1014 H1026 0.960 . S
C1014 H1027 0.962 . S
C1014 H1028 0.960 . S
C1015 C1012 1.511 . S
C1015 H1029 0.961 . S
C1015 H1030 0.961 . S
C1015 H1031 0.961 . S
C1016 C1017 1.370 . S
C1016 C1018 1.363 . S
C1016 H1032 0.931 . S
C1017 C1016 1.370 . S
C1017 C1021 1.408 . S
C1018 C1016 1.363 . S
C1018 C1019 1.370 . S
C1018 C1022 1.524 . S
C1019 C1011 1.503 . S
C1019 C1018 1.370 . S
C1019 C1020 1.403 . S
C1020 C1019 1.403 . S
C1020 C1021 1.404 . S
C1020 C1023 1.539 . S
C1021 C1017 1.408 . S
C1021 C1020 1.404 . S
C1021 H1033 0.930 . S
C1022 C1018 1.524 . S
C1022 H1034 0.956 . S
C1022 H1035 0.961 . S
C1022 H1036 0.961 . S
C1023 C1020 1.539 . S
C1023 H1037 0.958 . S
C1023 H1038 0.961 . S
C1023 H1039 0.960 . S
H1024 C1008 0.931 . S
H1025 C1013 0.929 . S
H1026 C1014 0.960 . S
H1027 C1014 0.962 . S
H1028 C1014 0.960 . S
H1029 C1015 0.961 . S
H1030 C1015 0.961 . S
H1031 C1015 0.961 . S
H1032 C1016 0.931 . S
H1033 C1021 0.930 . S
H1034 C1022 0.956 . S
H1035 C1022 0.961 . S
H1036 C1022 0.961 . S
H1037 C1023 0.958 . S
H1038 C1023 0.961 . S
H1039 C1023 0.960 . S
C1040 C1041 1.391 . S
C1040 C1042 1.394 . S
C1040 H1056 0.931 . S
C1041 C1040 1.391 . S
C1041 C1045 1.376 . S
C1042 C1040 1.394 . S
C1042 C1043 1.369 . S
C1042 C1046 1.531 . S
C1043 C1042 1.369 . S
C1043 C1044 1.410 . S
C1043 C1051 1.503 . S
C1044 C1043 1.410 . S
C1044 C1045 1.392 . S
C1044 C1047 1.511 . S
C1045 C1041 1.376 . S
C1045 C1044 1.392 . S
C1045 H1057 0.929 . S
C1046 C1042 1.531 . S
C1046 H1058 0.960 . S
C1046 H1059 0.962 . S
C1046 H1060 0.960 . S
C1047 C1044 1.511 . S
C1047 H1061 0.961 . S
C1047 H1062 0.961 . S
C1047 H1063 0.961 . S
C1048 C1049 1.370 . S
C1048 C1050 1.363 . S
C1048 H1064 0.931 . S
C1049 C1048 1.370 . S
C1049 C1053 1.408 . S
C1050 C1048 1.363 . S
C1050 C1051 1.370 . S
C1050 C1054 1.524 . S
C1051 C1043 1.503 . S
C1051 C1050 1.370 . S
C1051 C1052 1.403 . S
C1052 C1051 1.403 . S
C1052 C1053 1.404 . S
C1052 C1055 1.539 . S
C1053 C1049 1.408 . S
C1053 C1052 1.404 . S
C1053 H1065 0.930 . S
C1054 C1050 1.524 . S
C1054 H1066 0.956 . S
C1054 H1067 0.961 . S
C1054 H1068 0.961 . S
C1055 C1052 1.539 . S
C1055 H1069 0.958 . S
C1055 H1070 0.961 . S
C1055 H1071 0.960 . S
H1056 C1040 0.931 . S
H1057 C1045 0.929 . S
H1058 C1046 0.960 . S
H1059 C1046 0.962 . S
H1060 C1046 0.960 . S
H1061 C1047 0.961 . S
H1062 C1047 0.961 . S
H1063 C1047 0.961 . S
H1064 C1048 0.931 . S
H1065 C1053 0.930 . S
H1066 C1054 0.956 . S
H1067 C1054 0.961 . S
H1068 C1054 0.961 . S
H1069 C1055 0.958 . S
H1070 C1055 0.961 . S
H1071 C1055 0.960 . S
C1072 C1073 1.391 . S
C1072 C1074 1.394 . S
C1072 H1088 0.931 . S
C1073 C1072 1.391 . S
C1073 C1077 1.376 . S
C1074 C1072 1.394 . S
C1074 C1075 1.369 . S
C1074 C1078 1.531 . S
C1075 C1074 1.369 . S
C1075 C1076 1.410 . S
C1075 C1083 1.503 . S
C1076 C1075 1.410 . S
C1076 C1077 1.392 . S
C1076 C1079 1.511 . S
C1077 C1073 1.376 . S
C1077 C1076 1.392 . S
C1077 H1089 0.929 . S
C1078 C1074 1.531 . S
C1078 H1090 0.960 . S
C1078 H1091 0.962 . S
C1078 H1092 0.960 . S
C1079 C1076 1.511 . S
C1079 H1093 0.961 . S
C1079 H1094 0.961 . S
C1079 H1095 0.961 . S
C1080 C1081 1.370 . S
C1080 C1082 1.363 . S
C1080 H1096 0.931 . S
C1081 C1080 1.370 . S
C1081 C1085 1.408 . S
C1082 C1080 1.363 . S
C1082 C1083 1.370 . S
C1082 C1086 1.524 . S
C1083 C1075 1.503 . S
C1083 C1082 1.370 . S
C1083 C1084 1.403 . S
C1084 C1083 1.403 . S
C1084 C1085 1.404 . S
C1084 C1087 1.539 . S
C1085 C1081 1.408 . S
C1085 C1084 1.404 . S
C1085 H1097 0.930 . S
C1086 C1082 1.524 . S
C1086 H1098 0.956 . S
C1086 H1099 0.961 . S
C1086 H1100 0.961 . S
C1087 C1084 1.539 . S
C1087 H1101 0.958 . S
C1087 H1102 0.961 . S
C1087 H1103 0.960 . S
H1088 C1072 0.931 . S
H1089 C1077 0.929 . S
H1090 C1078 0.960 . S
H1091 C1078 0.962 . S
H1092 C1078 0.960 . S
H1093 C1079 0.961 . S
H1094 C1079 0.961 . S
H1095 C1079 0.961 . S
H1096 C1080 0.931 . S
H1097 C1085 0.930 . S
H1098 C1086 0.956 . S
H1099 C1086 0.961 . S
H1100 C1086 0.961 . S
H1101 C1087 0.958 . S
H1102 C1087 0.961 . S
H1103 C1087 0.960 . S
C1104 C1105 1.391 . S
C1104 C1106 1.394 . S
C1104 H1120 0.931 . S
C1105 C1104 1.391 . S
C1105 C1109 1.376 . S
C1106 C1104 1.394 . S
C1106 C1107 1.369 . S
C1106 C1110 1.531 . S
C1107 C1106 1.369 . S
C1107 C1108 1.410 . S
C1107 C1115 1.503 . S
C1108 C1107 1.410 . S
C1108 C1109 1.392 . S
C1108 C1111 1.511 . S
C1109 C1105 1.376 . S
C1109 C1108 1.392 . S
C1109 H1121 0.929 . S
C1110 C1106 1.531 . S
C1110 H1122 0.960 . S
C1110 H1123 0.962 . S
C1110 H1124 0.960 . S
C1111 C1108 1.511 . S
C1111 H1125 0.961 . S
C1111 H1126 0.961 . S
C1111 H1127 0.961 . S
C1112 C1113 1.370 . S
C1112 C1114 1.363 . S
C1112 H1128 0.931 . S
C1113 C1112 1.370 . S
C1113 C1117 1.408 . S
C1114 C1112 1.363 . S
C1114 C1115 1.370 . S
C1114 C1118 1.524 . S
C1115 C1107 1.503 . S
C1115 C1114 1.370 . S
C1115 C1116 1.403 . S
C1116 C1115 1.403 . S
C1116 C1117 1.404 . S
C1116 C1119 1.539 . S
C1117 C1113 1.408 . S
C1117 C1116 1.404 . S
C1117 H1129 0.930 . S
C1118 C1114 1.524 . S
C1118 H1130 0.956 . S
C1118 H1131 0.961 . S
C1118 H1132 0.961 . S
C1119 C1116 1.539 . S
C1119 H1133 0.958 . S
C1119 H1134 0.961 . S
C1119 H1135 0.960 . S
H1120 C1104 0.931 . S
H1121 C1109 0.929 . S
H1122 C1110 0.960 . S
H1123 C1110 0.962 . S
H1124 C1110 0.960 . S
H1125 C1111 0.961 . S
H1126 C1111 0.961 . S
H1127 C1111 0.961 . S
H1128 C1112 0.931 . S
H1129 C1117 0.930 . S
H1130 C1118 0.956 . S
H1131 C1118 0.961 . S
H1132 C1118 0.961 . S
H1133 C1119 0.958 . S
H1134 C1119 0.961 . S
H1135 C1119 0.960 . S
C1136 C1137 1.391 . S
C1136 C1138 1.394 . S
C1136 H1152 0.931 . S
C1137 C1136 1.391 . S
C1137 C1141 1.376 . S
C1138 C1136 1.394 . S
C1138 C1139 1.369 . S
C1138 C1142 1.531 . S
C1139 C1138 1.369 . S
C1139 C1140 1.410 . S
C1139 C1147 1.503 . S
C1140 C1139 1.410 . S
C1140 C1141 1.392 . S
C1140 C1143 1.511 . S
C1141 C1137 1.376 . S
C1141 C1140 1.392 . S
C1141 H1153 0.929 . S
C1142 C1138 1.531 . S
C1142 H1154 0.960 . S
C1142 H1155 0.962 . S
C1142 H1156 0.960 . S
C1143 C1140 1.511 . S
C1143 H1157 0.961 . S
C1143 H1158 0.961 . S
C1143 H1159 0.961 . S
C1144 C1145 1.370 . S
C1144 C1146 1.363 . S
C1144 H1160 0.931 . S
C1145 C1144 1.370 . S
C1145 C1149 1.408 . S
C1146 C1144 1.363 . S
C1146 C1147 1.370 . S
C1146 C1150 1.524 . S
C1147 C1139 1.503 . S
C1147 C1146 1.370 . S
C1147 C1148 1.403 . S
C1148 C1147 1.403 . S
C1148 C1149 1.404 . S
C1148 C1151 1.539 . S
C1149 C1145 1.408 . S
C1149 C1148 1.404 . S
C1149 H1161 0.930 . S
C1150 C1146 1.524 . S
C1150 H1162 0.956 . S
C1150 H1163 0.961 . S
C1150 H1164 0.961 . S
C1151 C1148 1.539 . S
C1151 H1165 0.958 . S
C1151 H1166 0.961 . S
C1151 H1167 0.960 . S
H1152 C1136 0.931 . S
H1153 C1141 0.929 . S
H1154 C1142 0.960 . S
H1155 C1142 0.962 . S
H1156 C1142 0.960 . S
H1157 C1143 0.961 . S
H1158 C1143 0.961 . S
H1159 C1143 0.961 . S
H1160 C1144 0.931 . S
H1161 C1149 0.930 . S
H1162 C1150 0.956 . S
H1163 C1150 0.961 . S
H1164 C1150 0.961 . S
H1165 C1151 0.958 . S
H1166 C1151 0.961 . S
H1167 C1151 0.960 . S
C1168 C1169 1.391 . S
C1168 C1170 1.394 . S
C1168 H1184 0.931 . S
C1169 C1168 1.391 . S
C1169 C1173 1.376 . S
C1170 C1168 1.394 . S
C1170 C1171 1.369 . S
C1170 C1174 1.531 . S
C1171 C1170 1.369 . S
C1171 C1172 1.410 . S
C1171 C1179 1.503 . S
C1172 C1171 1.410 . S
C1172 C1173 1.392 . S
C1172 C1175 1.511 . S
C1173 C1169 1.376 . S
C1173 C1172 1.392 . S
C1173 H1185 0.929 . S
C1174 C1170 1.531 . S
C1174 H1186 0.960 . S
C1174 H1187 0.962 . S
C1174 H1188 0.960 . S
C1175 C1172 1.511 . S
C1175 H1189 0.961 . S
C1175 H1190 0.961 . S
C1175 H1191 0.961 . S
C1176 C1177 1.370 . S
C1176 C1178 1.363 . S
C1176 H1192 0.931 . S
C1177 C1176 1.370 . S
C1177 C1181 1.408 . S
C1178 C1176 1.363 . S
C1178 C1179 1.370 . S
C1178 C1182 1.524 . S
C1179 C1171 1.503 . S
C1179 C1178 1.370 . S
C1179 C1180 1.403 . S
C1180 C1179 1.403 . S
C1180 C1181 1.404 . S
C1180 C1183 1.539 . S
C1181 C1177 1.408 . S
C1181 C1180 1.404 . S
C1181 H1193 0.930 . S
C1182 C1178 1.524 . S
C1182 H1194 0.956 . S
C1182 H1195 0.961 . S
C1182 H1196 0.961 . S
C1183 C1180 1.539 . S
C1183 H1197 0.958 . S
C1183 H1198 0.961 . S
C1183 H1199 0.960 . S
H1184 C1168 0.931 . S
H1185 C1173 0.929 . S
H1186 C1174 0.960 . S
H1187 C1174 0.962 . S
H1188 C1174 0.960 . S
H1189 C1175 0.961 . S
H1190 C1175 0.961 . S
H1191 C1175 0.961 . S
H1192 C1176 0.931 . S
H1193 C1181 0.930 . S
H1194 C1182 0.956 . S
H1195 C1182 0.961 . S
H1196 C1182 0.961 . S
H1197 C1183 0.958 . S
H1198 C1183 0.961 . S
H1199 C1183 0.960 . S
C1200 C1201 1.391 . S
C1200 C1202 1.394 . S
C1200 H1216 0.931 . S
C1201 C1200 1.391 . S
C1201 C1205 1.376 . S
C1202 C1200 1.394 . S
C1202 C1203 1.369 . S
C1202 C1206 1.531 . S
C1203 C1202 1.369 . S
C1203 C1204 1.410 . S
C1203 C1211 1.503 . S
C1204 C1203 1.410 . S
C1204 C1205 1.392 . S
C1204 C1207 1.511 . S
C1205 C1201 1.376 . S
C1205 C1204 1.392 . S
C1205 H1217 0.929 . S
C1206 C1202 1.531 . S
C1206 H1218 0.960 . S
C1206 H1219 0.962 . S
C1206 H1220 0.960 . S
C1207 C1204 1.511 . S
C1207 H1221 0.961 . S
C1207 H1222 0.961 . S
C1207 H1223 0.961 . S
C1208 C1209 1.370 . S
C1208 C1210 1.363 . S
C1208 H1224 0.931 . S
C1209 C1208 1.370 . S
C1209 C1213 1.408 . S
C1210 C1208 1.363 . S
C1210 C1211 1.370 . S
C1210 C1214 1.524 . S
C1211 C1203 1.503 . S
C1211 C1210 1.370 . S
C1211 C1212 1.403 . S
C1212 C1211 1.403 . S
C1212 C1213 1.404 . S
C1212 C1215 1.539 . S
C1213 C1209 1.408 . S
C1213 C1212 1.404 . S
C1213 H1225 0.930 . S
C1214 C1210 1.524 . S
C1214 H1226 0.956 . S
C1214 H1227 0.961 . S
C1214 H1228 0.961 . S
C1215 C1212 1.539 . S
C1215 H1229 0.958 . S
C1215 H1230 0.961 . S
C1215 H1231 0.960 . S
H1216 C1200 0.931 . S
H1217 C1205 0.929 . S
H1218 C1206 0.960 . S
H1219 C1206 0.962 . S
H1220 C1206 0.960 . S
H1221 C1207 0.961 . S
H1222 C1207 0.961 . S
H1223 C1207 0.961 . S
H1224 C1208 0.931 . S
H1225 C1213 0.930 . S
H1226 C1214 0.956 . S
H1227 C1214 0.961 . S
H1228 C1214 0.961 . S
H1229 C1215 0.958 . S
H1230 C1215 0.961 . S
H1231 C1215 0.960 . S
C1232 C1233 1.391 . S
C1232 C1234 1.394 . S
C1232 H1248 0.931 . S
C1233 C1232 1.391 . S
C1233 C1237 1.376 . S
C1234 C1232 1.394 . S
C1234 C1235 1.369 1_655 S
C1234 C1238 1.531 1_655 S
C1235 C1234 1.369 1_455 S
C1235 C1236 1.410 1_455 S
C1235 C1243 1.503 . S
C1236 C1235 1.410 1_655 S
C1236 C1237 1.392 . S
C1236 C1239 1.515 1_655 S
C1237 C1233 1.376 . S
C1237 C1236 1.392 . S
C1237 H1249 0.929 . S
C1238 C1234 1.531 1_455 S
C1238 H1250 0.960 . S
C1238 H1251 0.962 1_455 S
C1238 H1252 0.960 . S
C1239 C1236 1.515 1_455 S
C1239 H1253 0.964 1_445 S
C1239 H1254 0.953 . S
C1239 H1255 0.955 . S
C1240 C1241 1.370 . S
C1240 C1242 1.354 1_455 S
C1240 H1256 0.931 . S
C1241 C1240 1.370 . S
C1241 C1245 1.408 . S
C1242 C1240 1.354 1_655 S
C1242 C1243 1.364 1_655 S
C1242 C1246 1.540 . S
C1243 C1235 1.503 . S
C1243 C1242 1.364 1_455 S
C1243 C1244 1.403 . S
C1244 C1243 1.403 . S
C1244 C1245 1.404 . S
C1244 C1247 1.539 . S
C1245 C1241 1.408 . S
C1245 C1244 1.404 . S
C1245 H1257 0.930 . S
C1246 C1242 1.540 . S
C1246 H1258 0.956 . S
C1246 H1259 0.961 . S
C1246 H1260 0.961 . S
C1247 C1244 1.539 . S
C1247 H1261 0.958 . S
C1247 H1262 0.961 . S
C1247 H1263 0.960 . S
H1248 C1232 0.931 . S
H1249 C1237 0.929 . S
H1250 C1238 0.960 . S
H1251 C1238 0.962 1_655 S
H1252 C1238 0.960 . S
H1253 C1239 0.964 1_665 S
H1254 C1239 0.953 . S
H1255 C1239 0.955 . S
H1256 C1240 0.931 . S
H1257 C1245 0.930 . S
H1258 C1246 0.956 . S
H1259 C1246 0.961 . S
H1260 C1246 0.961 . S
H1261 C1247 0.958 . S
H1262 C1247 0.961 . S
H1263 C1247 0.960 . S
C1264 C1265 1.391 . S
C1264 C1266 1.394 . S
C1264 H1280 0.931 . S
C1265 C1264 1.391 . S
C1265 C1269 1.376 . S
C1266 C1264 1.394 . S
C1266 C1267 1.369 . S
C1266 C1270 1.531 . S
C1267 C1266 1.369 . S
C1267 C1268 1.410 . S
C1267 C1275 1.503 . S
C1268 C1267 1.410 . S
C1268 C1269 1.392 . S
C1268 C1271 1.511 . S
C1269 C1265 1.376 . S
C1269 C1268 1.392 . S
C1269 H1281 0.929 . S
C1270 C1266 1.531 . S
C1270 H1282 0.960 . S
C1270 H1283 0.962 . S
C1270 H1284 0.960 . S
C1271 C1268 1.511 . S
C1271 H1285 0.961 . S
C1271 H1286 0.961 . S
C1271 H1287 0.961 . S
C1272 C1273 1.370 . S
C1272 C1274 1.363 . S
C1272 H1288 0.931 . S
C1273 C1272 1.370 . S
C1273 C1277 1.408 . S
C1274 C1272 1.363 . S
C1274 C1275 1.370 . S
C1274 C1278 1.524 . S
C1275 C1267 1.503 . S
C1275 C1274 1.370 . S
C1275 C1276 1.403 . S
C1276 C1275 1.403 . S
C1276 C1277 1.404 . S
C1276 C1279 1.539 . S
C1277 C1273 1.408 . S
C1277 C1276 1.404 . S
C1277 H1289 0.930 . S
C1278 C1274 1.524 . S
C1278 H1290 0.956 . S
C1278 H1291 0.961 . S
C1278 H1292 0.961 . S
C1279 C1276 1.539 . S
C1279 H1293 0.958 . S
C1279 H1294 0.961 . S
C1279 H1295 0.960 . S
H1280 C1264 0.931 . S
H1281 C1269 0.929 . S
H1282 C1270 0.960 . S
H1283 C1270 0.962 . S
H1284 C1270 0.960 . S
H1285 C1271 0.961 . S
H1286 C1271 0.961 . S
H1287 C1271 0.961 . S
H1288 C1272 0.931 . S
H1289 C1277 0.930 . S
H1290 C1278 0.956 . S
H1291 C1278 0.961 . S
H1292 C1278 0.961 . S
H1293 C1279 0.958 . S
H1294 C1279 0.961 . S
H1295 C1279 0.960 . S
C1296 C1297 1.391 . S
C1296 C1298 1.394 . S
C1296 H1312 0.931 . S
C1297 C1296 1.391 . S
C1297 C1301 1.376 . S
C1298 C1296 1.394 . S
C1298 C1299 1.369 . S
C1298 C1302 1.531 . S
C1299 C1298 1.369 . S
C1299 C1300 1.410 . S
C1299 C1307 1.503 . S
C1300 C1299 1.410 . S
C1300 C1301 1.392 . S
C1300 C1303 1.511 . S
C1301 C1297 1.376 . S
C1301 C1300 1.392 . S
C1301 H1313 0.929 . S
C1302 C1298 1.531 . S
C1302 H1314 0.960 . S
C1302 H1315 0.962 . S
C1302 H1316 0.960 . S
C1303 C1300 1.511 . S
C1303 H1317 0.961 . S
C1303 H1318 0.961 . S
C1303 H1319 0.961 . S
C1304 C1305 1.370 . S
C1304 C1306 1.363 . S
C1304 H1320 0.931 . S
C1305 C1304 1.370 . S
C1305 C1309 1.408 . S
C1306 C1304 1.363 . S
C1306 C1307 1.370 . S
C1306 C1310 1.524 . S
C1307 C1299 1.503 . S
C1307 C1306 1.370 . S
C1307 C1308 1.403 . S
C1308 C1307 1.403 . S
C1308 C1309 1.404 . S
C1308 C1311 1.539 . S
C1309 C1305 1.408 . S
C1309 C1308 1.404 . S
C1309 H1321 0.930 . S
C1310 C1306 1.524 . S
C1310 H1322 0.956 . S
C1310 H1323 0.961 . S
C1310 H1324 0.961 1_545 S
C1311 C1308 1.539 . S
C1311 H1325 0.958 . S
C1311 H1326 0.961 . S
C1311 H1327 0.960 . S
H1312 C1296 0.931 . S
H1313 C1301 0.929 . S
H1314 C1302 0.960 . S
H1315 C1302 0.962 . S
H1316 C1302 0.960 . S
H1317 C1303 0.961 . S
H1318 C1303 0.961 . S
H1319 C1303 0.961 . S
H1320 C1304 0.931 . S
H1321 C1309 0.930 . S
H1322 C1310 0.956 . S
H1323 C1310 0.961 . S
H1324 C1310 0.961 1_565 S
H1325 C1311 0.958 . S
H1326 C1311 0.961 . S
H1327 C1311 0.960 . S
C1328 C1329 1.391 . S
C1328 C1330 1.394 . S
C1328 H1344 0.931 . S
C1329 C1328 1.391 . S
C1329 C1333 1.376 . S
C1330 C1328 1.394 . S
C1330 C1331 1.369 . S
C1330 C1334 1.531 . S
C1331 C1330 1.369 . S
C1331 C1332 1.410 . S
C1331 C1339 1.503 . S
C1332 C1331 1.410 . S
C1332 C1333 1.392 . S
C1332 C1335 1.511 . S
C1333 C1329 1.376 . S
C1333 C1332 1.392 . S
C1333 H1345 0.929 . S
C1334 C1330 1.531 . S
C1334 H1346 0.960 . S
C1334 H1347 0.962 . S
C1334 H1348 0.960 . S
C1335 C1332 1.511 . S
C1335 H1349 0.961 . S
C1335 H1350 0.961 . S
C1335 H1351 0.961 . S
C1336 C1337 1.370 . S
C1336 C1338 1.363 . S
C1336 H1352 0.931 . S
C1337 C1336 1.370 . S
C1337 C1341 1.408 . S
C1338 C1336 1.363 . S
C1338 C1339 1.370 . S
C1338 C1342 1.524 . S
C1339 C1331 1.503 . S
C1339 C1338 1.370 . S
C1339 C1340 1.403 . S
C1340 C1339 1.403 . S
C1340 C1341 1.404 . S
C1340 C1343 1.539 . S
C1341 C1337 1.408 . S
C1341 C1340 1.404 . S
C1341 H1353 0.930 . S
C1342 C1338 1.524 . S
C1342 H1354 0.956 . S
C1342 H1355 0.961 . S
C1342 H1356 0.961 . S
C1343 C1340 1.539 . S
C1343 H1357 0.958 . S
C1343 H1358 0.961 . S
C1343 H1359 0.960 . S
H1344 C1328 0.931 . S
H1345 C1333 0.929 . S
H1346 C1334 0.960 . S
H1347 C1334 0.962 . S
H1348 C1334 0.960 . S
H1349 C1335 0.961 . S
H1350 C1335 0.961 . S
H1351 C1335 0.961 . S
H1352 C1336 0.931 . S
H1353 C1341 0.930 . S
H1354 C1342 0.956 . S
H1355 C1342 0.961 . S
H1356 C1342 0.961 . S
H1357 C1343 0.958 . S
H1358 C1343 0.961 . S
H1359 C1343 0.960 . S
C1360 C1361 1.391 . S
C1360 C1362 1.394 . S
C1360 H1376 0.931 . S
C1361 C1360 1.391 . S
C1361 C1365 1.376 . S
C1362 C1360 1.394 . S
C1362 C1363 1.369 . S
C1362 C1366 1.531 1_655 S
C1363 C1362 1.369 . S
C1363 C1364 1.410 . S
C1363 C1371 1.503 1_655 S
C1364 C1363 1.410 . S
C1364 C1365 1.392 . S
C1364 C1367 1.511 . S
C1365 C1361 1.376 . S
C1365 C1364 1.392 . S
C1365 H1377 0.929 . S
C1366 C1362 1.531 1_455 S
C1366 H1378 0.960 . S
C1366 H1379 0.962 . S
C1366 H1380 0.960 1_455 S
C1367 C1364 1.511 . S
C1367 H1381 0.961 . S
C1367 H1382 0.961 1_655 S
C1367 H1383 0.946 1_545 S
C1368 C1369 1.370 . S
C1368 C1370 1.363 . S
C1368 H1384 0.931 . S
C1369 C1368 1.370 . S
C1369 C1373 1.408 . S
C1370 C1368 1.363 . S
C1370 C1371 1.370 . S
C1370 C1374 1.524 . S
C1371 C1363 1.503 1_455 S
C1371 C1370 1.370 . S
C1371 C1372 1.403 . S
C1372 C1371 1.403 . S
C1372 C1373 1.404 . S
C1372 C1375 1.539 1_455 S
C1373 C1369 1.408 . S
C1373 C1372 1.404 . S
C1373 H1385 0.930 . S
C1374 C1370 1.524 . S
C1374 H1386 0.956 . S
C1374 H1387 0.961 . S
C1374 H1388 0.961 . S
C1375 C1372 1.539 1_655 S
C1375 H1389 0.958 . S
C1375 H1390 0.961 . S
C1375 H1391 0.960 . S
H1376 C1360 0.931 . S
H1377 C1365 0.929 . S
H1378 C1366 0.960 . S
H1379 C1366 0.962 . S
H1380 C1366 0.960 1_655 S
H1381 C1367 0.961 . S
H1382 C1367 0.961 1_455 S
H1383 C1367 0.946 1_565 S
H1384 C1368 0.931 . S
H1385 C1373 0.930 . S
H1386 C1374 0.956 . S
H1387 C1374 0.961 . S
H1388 C1374 0.961 . S
H1389 C1375 0.958 . S
H1390 C1375 0.961 . S
H1391 C1375 0.960 . S
C1392 C1393 1.391 . S
C1392 C1394 1.394 . S
C1392 H1408 0.931 . S
C1393 C1392 1.391 . S
C1393 C1397 1.376 . S
C1394 C1392 1.394 . S
C1394 C1395 1.369 . S
C1394 C1398 1.531 . S
C1395 C1394 1.369 . S
C1395 C1396 1.410 . S
C1395 C1403 1.503 . S
C1396 C1395 1.410 . S
C1396 C1397 1.392 . S
C1396 C1399 1.511 . S
C1397 C1393 1.376 . S
C1397 C1396 1.392 . S
C1397 H1409 0.929 . S
C1398 C1394 1.531 . S
C1398 H1410 0.960 . S
C1398 H1411 0.962 . S
C1398 H1412 0.960 . S
C1399 C1396 1.511 . S
C1399 H1413 0.961 . S
C1399 H1414 0.961 . S
C1399 H1415 0.961 . S
C1400 C1401 1.370 . S
C1400 C1402 1.363 . S
C1400 H1416 0.931 . S
C1401 C1400 1.370 . S
C1401 C1405 1.408 . S
C1402 C1400 1.363 . S
C1402 C1403 1.370 . S
C1402 C1406 1.524 . S
C1403 C1395 1.503 . S
C1403 C1402 1.370 . S
C1403 C1404 1.403 . S
C1404 C1403 1.403 . S
C1404 C1405 1.404 . S
C1404 C1407 1.539 . S
C1405 C1401 1.408 . S
C1405 C1404 1.404 . S
C1405 H1417 0.930 . S
C1406 C1402 1.524 . S
C1406 H1418 0.956 . S
C1406 H1419 0.961 . S
C1406 H1420 0.961 . S
C1407 C1404 1.539 . S
C1407 H1421 0.958 . S
C1407 H1422 0.961 . S
C1407 H1423 0.960 . S
H1408 C1392 0.931 . S
H1409 C1397 0.929 . S
H1410 C1398 0.960 . S
H1411 C1398 0.962 . S
H1412 C1398 0.960 . S
H1413 C1399 0.961 . S
H1414 C1399 0.961 . S
H1415 C1399 0.961 . S
H1416 C1400 0.931 . S
H1417 C1405 0.930 . S
H1418 C1406 0.956 . S
H1419 C1406 0.961 . S
H1420 C1406 0.961 . S
H1421 C1407 0.958 . S
H1422 C1407 0.961 . S
H1423 C1407 0.960 . S
C1424 C1425 1.391 . S
C1424 C1426 1.394 . S
C1424 H1440 0.931 . S
C1425 C1424 1.391 . S
C1425 C1429 1.376 . S
C1426 C1424 1.394 . S
C1426 C1427 1.369 . S
C1426 C1430 1.531 . S
C1427 C1426 1.369 . S
C1427 C1428 1.410 . S
C1427 C1435 1.503 . S
C1428 C1427 1.410 . S
C1428 C1429 1.392 . S
C1428 C1431 1.511 . S
C1429 C1425 1.376 . S
C1429 C1428 1.392 . S
C1429 H1441 0.929 . S
C1430 C1426 1.531 . S
C1430 H1442 0.960 . S
C1430 H1443 0.962 . S
C1430 H1444 0.960 . S
C1431 C1428 1.511 . S
C1431 H1445 0.961 . S
C1431 H1446 0.961 . S
C1431 H1447 0.961 . S
C1432 C1433 1.370 . S
C1432 C1434 1.363 . S
C1432 H1448 0.931 . S
C1433 C1432 1.370 . S
C1433 C1437 1.408 . S
C1434 C1432 1.363 . S
C1434 C1435 1.370 . S
C1434 C1438 1.524 . S
C1435 C1427 1.503 . S
C1435 C1434 1.370 . S
C1435 C1436 1.403 . S
C1436 C1435 1.403 . S
C1436 C1437 1.404 . S
C1436 C1439 1.539 . S
C1437 C1433 1.408 . S
C1437 C1436 1.404 . S
C1437 H1449 0.930 . S
C1438 C1434 1.524 . S
C1438 H1450 0.956 . S
C1438 H1451 0.961 . S
C1438 H1452 0.961 . S
C1439 C1436 1.539 . S
C1439 H1453 0.958 . S
C1439 H1454 0.961 . S
C1439 H1455 0.960 . S
H1440 C1424 0.931 . S
H1441 C1429 0.929 . S
H1442 C1430 0.960 . S
H1443 C1430 0.962 . S
H1444 C1430 0.960 . S
H1445 C1431 0.961 . S
H1446 C1431 0.961 . S
H1447 C1431 0.961 . S
H1448 C1432 0.931 . S
H1449 C1437 0.930 . S
H1450 C1438 0.956 . S
H1451 C1438 0.961 . S
H1452 C1438 0.961 . S
H1453 C1439 0.958 . S
H1454 C1439 0.961 . S
H1455 C1439 0.960 . S
C1456 C1457 1.391 . S
C1456 C1458 1.394 . S
C1456 H1472 0.931 . S
C1457 C1456 1.391 . S
C1457 C1461 1.376 . S
C1458 C1456 1.394 . S
C1458 C1459 1.369 . S
C1458 C1462 1.531 . S
C1459 C1458 1.369 . S
C1459 C1460 1.410 . S
C1459 C1467 1.503 . S
C1460 C1459 1.410 . S
C1460 C1461 1.392 . S
C1460 C1463 1.511 . S
C1461 C1457 1.376 . S
C1461 C1460 1.392 . S
C1461 H1473 0.929 . S
C1462 C1458 1.531 . S
C1462 H1474 0.960 . S
C1462 H1475 0.962 . S
C1462 H1476 0.960 . S
C1463 C1460 1.511 . S
C1463 H1477 0.961 . S
C1463 H1478 0.961 . S
C1463 H1479 0.961 . S
C1464 C1465 1.370 . S
C1464 C1466 1.363 . S
C1464 H1480 0.931 . S
C1465 C1464 1.370 . S
C1465 C1469 1.408 . S
C1466 C1464 1.363 . S
C1466 C1467 1.370 . S
C1466 C1470 1.524 . S
C1467 C1459 1.503 . S
C1467 C1466 1.370 . S
C1467 C1468 1.403 . S
C1468 C1467 1.403 . S
C1468 C1469 1.404 . S
C1468 C1471 1.539 . S
C1469 C1465 1.408 . S
C1469 C1468 1.404 . S
C1469 H1481 0.930 . S
C1470 C1466 1.524 . S
C1470 H1482 0.956 . S
C1470 H1483 0.961 . S
C1470 H1484 0.961 . S
C1471 C1468 1.539 . S
C1471 H1485 0.958 . S
C1471 H1486 0.961 . S
C1471 H1487 0.960 . S
H1472 C1456 0.931 . S
H1473 C1461 0.929 . S
H1474 C1462 0.960 . S
H1475 C1462 0.962 . S
H1476 C1462 0.960 . S
H1477 C1463 0.961 . S
H1478 C1463 0.961 . S
H1479 C1463 0.961 . S
H1480 C1464 0.931 . S
H1481 C1469 0.930 . S
H1482 C1470 0.956 . S
H1483 C1470 0.961 . S
H1484 C1470 0.961 . S
H1485 C1471 0.958 . S
H1486 C1471 0.961 . S
H1487 C1471 0.960 . S
C1488 C1489 1.391 . S
C1488 C1490 1.394 . S
C1488 H1504 0.931 . S
C1489 C1488 1.391 . S
C1489 C1493 1.376 . S
C1490 C1488 1.394 . S
C1490 C1491 1.369 . S
C1490 C1494 1.531 . S
C1491 C1490 1.369 . S
C1491 C1492 1.410 . S
C1491 C1499 1.503 . S
C1492 C1491 1.410 . S
C1492 C1493 1.392 . S
C1492 C1495 1.511 1_565 S
C1493 C1489 1.376 . S
C1493 C1492 1.392 . S
C1493 H1505 0.929 . S
C1494 C1490 1.531 . S
C1494 H1506 0.960 . S
C1494 H1507 0.962 . S
C1494 H1508 0.960 . S
C1495 C1492 1.511 1_545 S
C1495 H1509 0.961 . S
C1495 H1510 0.961 . S
C1495 H1511 0.961 . S
C1496 C1497 1.370 1_565 S
C1496 C1498 1.363 . S
C1496 H1512 0.931 1_565 S
C1497 C1496 1.370 1_545 S
C1497 C1501 1.408 1_545 S
C1498 C1496 1.363 . S
C1498 C1499 1.370 . S
C1498 C1502 1.524 . S
C1499 C1491 1.503 . S
C1499 C1498 1.370 . S
C1499 C1500 1.403 . S
C1500 C1499 1.403 . S
C1500 C1501 1.404 . S
C1500 C1503 1.539 . S
C1501 C1497 1.408 1_565 S
C1501 C1500 1.404 . S
C1501 H1513 0.930 . S
C1502 C1498 1.524 . S
C1502 H1514 0.956 1_554 S
C1502 H1515 0.961 . S
C1502 H1516 0.961 1_554 S
C1503 C1500 1.539 . S
C1503 H1517 0.958 . S
C1503 H1518 0.961 . S
C1503 H1519 0.960 . S
H1504 C1488 0.931 . S
H1505 C1493 0.929 . S
H1506 C1494 0.960 . S
H1507 C1494 0.962 . S
H1508 C1494 0.960 . S
H1509 C1495 0.961 . S
H1510 C1495 0.961 . S
H1511 C1495 0.961 . S
H1512 C1496 0.931 1_545 S
H1513 C1501 0.930 . S
H1514 C1502 0.956 1_556 S
H1515 C1502 0.961 . S
H1516 C1502 0.961 1_556 S
H1517 C1503 0.958 . S
H1518 C1503 0.961 . S
H1519 C1503 0.960 . S
C1520 C1521 1.391 1_556 S
C1520 C1522 1.394 . S
C1520 H1536 0.931 . S
C1521 C1520 1.391 1_554 S
C1521 C1525 1.376 . S
C1522 C1520 1.394 . S
C1522 C1523 1.369 1_556 S
C1522 C1526 1.531 . S
C1523 C1522 1.369 1_554 S
C1523 C1524 1.410 . S
C1523 C1531 1.503 . S
C1524 C1523 1.410 . S
C1524 C1525 1.392 . S
C1524 C1527 1.511 . S
C1525 C1521 1.376 . S
C1525 C1524 1.392 . S
C1525 H1537 0.929 . S
C1526 C1522 1.531 . S
C1526 H1538 0.960 . S
C1526 H1539 0.962 . S
C1526 H1540 0.960 . S
C1527 C1524 1.511 . S
C1527 H1541 0.961 . S
C1527 H1542 0.961 . S
C1527 H1543 0.961 . S
C1528 C1529 1.370 . S
C1528 C1530 1.363 . S
C1528 H1544 0.931 . S
C1529 C1528 1.370 . S
C1529 C1533 1.408 1_554 S
C1530 C1528 1.363 . S
C1530 C1531 1.370 . S
C1530 C1534 1.524 . S
C1531 C1523 1.503 . S
C1531 C1530 1.370 . S
C1531 C1532 1.403 1_554 S
C1532 C1531 1.403 1_556 S
C1532 C1533 1.404 . S
C1532 C1535 1.539 . S
C1533 C1529 1.408 1_556 S
C1533 C1532 1.404 . S
C1533 H1545 0.930 . S
C1534 C1530 1.524 . S
C1534 H1546 0.956 . S
C1534 H1547 0.961 . S
C1534 H1548 0.961 . S
C1535 C1532 1.539 . S
C1535 H1549 0.958 . S
C1535 H1550 0.961 . S
C1535 H1551 0.960 . S
H1536 C1520 0.931 . S
H1537 C1525 0.929 . S
H1538 C1526 0.960 . S
H1539 C1526 0.962 . S
H1540 C1526 0.960 . S
H1541 C1527 0.961 . S
H1542 C1527 0.961 . S
H1543 C1527 0.961 . S
H1544 C1528 0.931 . S
H1545 C1533 0.930 . S
H1546 C1534 0.956 . S
H1547 C1534 0.961 . S
H1548 C1534 0.961 . S
H1549 C1535 0.958 . S
H1550 C1535 0.961 . S
H1551 C1535 0.960 . S
C1552 C1553 1.391 . S
C1552 C1554 1.394 . S
C1552 H1568 0.931 . S
C1553 C1552 1.391 . S
C1553 C1557 1.376 . S
C1554 C1552 1.394 . S
C1554 C1555 1.369 . S
C1554 C1558 1.531 . S
C1555 C1554 1.369 . S
C1555 C1556 1.410 . S
C1555 C1563 1.503 . S
C1556 C1555 1.410 . S
C1556 C1557 1.392 . S
C1556 C1559 1.511 . S
C1557 C1553 1.376 . S
C1557 C1556 1.392 . S
C1557 H1569 0.929 . S
C1558 C1554 1.531 . S
C1558 H1570 0.960 . S
C1558 H1571 0.962 . S
C1558 H1572 0.960 . S
C1559 C1556 1.511 . S
C1559 H1573 0.961 . S
C1559 H1574 0.961 . S
C1559 H1575 0.961 . S
C1560 C1561 1.370 . S
C1560 C1562 1.363 . S
C1560 H1576 0.931 . S
C1561 C1560 1.370 . S
C1561 C1565 1.408 . S
C1562 C1560 1.363 . S
C1562 C1563 1.370 . S
C1562 C1566 1.524 . S
C1563 C1555 1.503 . S
C1563 C1562 1.370 . S
C1563 C1564 1.403 . S
C1564 C1563 1.403 . S
C1564 C1565 1.404 . S
C1564 C1567 1.539 . S
C1565 C1561 1.408 . S
C1565 C1564 1.404 . S
C1565 H1577 0.930 . S
C1566 C1562 1.524 . S
C1566 H1578 0.956 . S
C1566 H1579 0.961 . S
C1566 H1580 0.961 . S
C1567 C1564 1.539 . S
C1567 H1581 0.958 . S
C1567 H1582 0.961 . S
C1567 H1583 0.960 . S
H1568 C1552 0.931 . S
H1569 C1557 0.929 . S
H1570 C1558 0.960 . S
H1571 C1558 0.962 . S
H1572 C1558 0.960 . S
H1573 C1559 0.961 . S
H1574 C1559 0.961 . S
H1575 C1559 0.961 . S
H1576 C1560 0.931 . S
H1577 C1565 0.930 . S
H1578 C1566 0.956 . S
H1579 C1566 0.961 . S
H1580 C1566 0.961 . S
H1581 C1567 0.958 . S
H1582 C1567 0.961 . S
H1583 C1567 0.960 . S
C1584 C1585 1.391 . S
C1584 C1586 1.394 . S
C1584 H1600 0.931 . S
C1585 C1584 1.391 . S
C1585 C1589 1.376 . S
C1586 C1584 1.394 . S
C1586 C1587 1.369 . S
C1586 C1590 1.531 . S
C1587 C1586 1.369 . S
C1587 C1588 1.410 . S
C1587 C1595 1.503 . S
C1588 C1587 1.410 . S
C1588 C1589 1.392 . S
C1588 C1591 1.511 . S
C1589 C1585 1.376 . S
C1589 C1588 1.392 . S
C1589 H1601 0.929 . S
C1590 C1586 1.531 . S
C1590 H1602 0.960 . S
C1590 H1603 0.962 . S
C1590 H1604 0.960 . S
C1591 C1588 1.511 . S
C1591 H1605 0.961 . S
C1591 H1606 0.961 . S
C1591 H1607 0.961 . S
C1592 C1593 1.370 . S
C1592 C1594 1.363 . S
C1592 H1608 0.931 . S
C1593 C1592 1.370 . S
C1593 C1597 1.408 . S
C1594 C1592 1.363 . S
C1594 C1595 1.370 . S
C1594 C1598 1.524 . S
C1595 C1587 1.503 . S
C1595 C1594 1.370 . S
C1595 C1596 1.403 . S
C1596 C1595 1.403 . S
C1596 C1597 1.404 . S
C1596 C1599 1.539 . S
C1597 C1593 1.408 . S
C1597 C1596 1.404 . S
C1597 H1609 0.930 1_655 S
C1598 C1594 1.524 . S
C1598 H1610 0.956 . S
C1598 H1611 0.961 . S
C1598 H1612 0.961 . S
C1599 C1596 1.539 . S
C1599 H1613 0.958 . S
C1599 H1614 0.961 . S
C1599 H1615 0.960 . S
H1600 C1584 0.931 . S
H1601 C1589 0.929 . S
H1602 C1590 0.960 . S
H1603 C1590 0.962 . S
H1604 C1590 0.960 . S
H1605 C1591 0.961 . S
H1606 C1591 0.961 . S
H1607 C1591 0.961 . S
H1608 C1592 0.931 . S
H1609 C1597 0.930 1_455 S
H1610 C1598 0.956 . S
H1611 C1598 0.961 . S
H1612 C1598 0.961 . S
H1613 C1599 0.958 . S
H1614 C1599 0.961 . S
H1615 C1599 0.960 . S
C1616 C1617 1.391 . S
C1616 C1618 1.394 . S
C1616 H1632 0.931 . S
C1617 C1616 1.391 . S
C1617 C1621 1.376 . S
C1618 C1616 1.394 . S
C1618 C1619 1.369 . S
C1618 C1622 1.531 . S
C1619 C1618 1.369 . S
C1619 C1620 1.410 . S
C1619 C1627 1.503 . S
C1620 C1619 1.410 . S
C1620 C1621 1.392 . S
C1620 C1623 1.511 . S
C1621 C1617 1.376 . S
C1621 C1620 1.392 . S
C1621 H1633 0.929 . S
C1622 C1618 1.531 . S
C1622 H1634 0.960 . S
C1622 H1635 0.962 . S
C1622 H1636 0.960 . S
C1623 C1620 1.511 . S
C1623 H1637 0.961 . S
C1623 H1638 0.961 . S
C1623 H1639 0.961 . S
C1624 C1625 1.370 . S
C1624 C1626 1.363 . S
C1624 H1640 0.931 . S
C1625 C1624 1.370 . S
C1625 C1629 1.408 . S
C1626 C1624 1.363 . S
C1626 C1627 1.370 . S
C1626 C1630 1.524 . S
C1627 C1619 1.503 . S
C1627 C1626 1.370 . S
C1627 C1628 1.403 . S
C1628 C1627 1.403 . S
C1628 C1629 1.404 . S
C1628 C1631 1.539 . S
C1629 C1625 1.408 . S
C1629 C1628 1.404 . S
C1629 H1641 0.930 . S
C1630 C1626 1.524 . S
C1630 H1642 0.956 . S
C1630 H1643 0.961 . S
C1630 H1644 0.961 . S
C1631 C1628 1.539 . S
C1631 H1645 0.958 . S
C1631 H1646 0.961 . S
C1631 H1647 0.960 . S
H1632 C1616 0.931 . S
H1633 C1621 0.929 . S
H1634 C1622 0.960 . S
H1635 C1622 0.962 . S
H1636 C1622 0.960 . S
H1637 C1623 0.961 . S
H1638 C1623 0.961 . S
H1639 C1623 0.961 . S
H1640 C1624 0.931 . S
H1641 C1629 0.930 . S
H1642 C1630 0.956 . S
H1643 C1630 0.961 . S
H1644 C1630 0.961 . S
H1645 C1631 0.958 . S
H1646 C1631 0.961 . S
H1647 C1631 0.960 . S
C1648 C1649 1.391 . S
C1648 C1650 1.394 . S
C1648 H1664 0.931 . S
C1649 C1648 1.391 . S
C1649 C1653 1.376 . S
C1650 C1648 1.394 . S
C1650 C1651 1.369 . S
C1650 C1654 1.531 . S
C1651 C1650 1.369 . S
C1651 C1652 1.410 . S
C1651 C1659 1.503 . S
C1652 C1651 1.410 . S
C1652 C1653 1.392 . S
C1652 C1655 1.511 . S
C1653 C1649 1.376 . S
C1653 C1652 1.392 . S
C1653 H1665 0.929 . S
C1654 C1650 1.531 . S
C1654 H1666 0.960 . S
C1654 H1667 0.962 . S
C1654 H1668 0.960 . S
C1655 C1652 1.511 . S
C1655 H1669 0.961 . S
C1655 H1670 0.961 . S
C1655 H1671 0.961 . S
C1656 C1657 1.370 . S
C1656 C1658 1.363 . S
C1656 H1672 0.931 . S
C1657 C1656 1.370 . S
C1657 C1661 1.408 . S
C1658 C1656 1.363 . S
C1658 C1659 1.370 . S
C1658 C1662 1.524 . S
C1659 C1651 1.503 . S
C1659 C1658 1.370 . S
C1659 C1660 1.403 . S
C1660 C1659 1.403 . S
C1660 C1661 1.404 . S
C1660 C1663 1.539 . S
C1661 C1657 1.408 . S
C1661 C1660 1.404 . S
C1661 H1673 0.930 . S
C1662 C1658 1.524 . S
C1662 H1674 0.956 . S
C1662 H1675 0.961 . S
C1662 H1676 0.961 . S
C1663 C1660 1.539 . S
C1663 H1677 0.958 . S
C1663 H1678 0.961 . S
C1663 H1679 0.960 . S
H1664 C1648 0.931 . S
H1665 C1653 0.929 . S
H1666 C1654 0.960 . S
H1667 C1654 0.962 . S
H1668 C1654 0.960 . S
H1669 C1655 0.961 . S
H1670 C1655 0.961 . S
H1671 C1655 0.961 . S
H1672 C1656 0.931 . S
H1673 C1661 0.930 . S
H1674 C1662 0.956 . S
H1675 C1662 0.961 . S
H1676 C1662 0.961 . S
H1677 C1663 0.958 . S
H1678 C1663 0.961 . S
H1679 C1663 0.960 . S
C1680 C1681 1.391 . S
C1680 C1682 1.394 . S
C1680 H1696 0.931 . S
C1681 C1680 1.391 . S
C1681 C1685 1.376 . S
C1682 C1680 1.394 . S
C1682 C1683 1.369 . S
C1682 C1686 1.531 . S
C1683 C1682 1.369 . S
C1683 C1684 1.410 . S
C1683 C1691 1.503 . S
C1684 C1683 1.410 . S
C1684 C1685 1.392 . S
C1684 C1687 1.511 . S
C1685 C1681 1.376 . S
C1685 C1684 1.392 . S
C1685 H1697 0.929 . S
C1686 C1682 1.531 . S
C1686 H1698 0.960 . S
C1686 H1699 0.962 . S
C1686 H1700 0.960 . S
C1687 C1684 1.511 . S
C1687 H1701 0.961 . S
C1687 H1702 0.961 . S
C1687 H1703 0.961 . S
C1688 C1689 1.370 . S
C1688 C1690 1.363 . S
C1688 H1704 0.931 . S
C1689 C1688 1.370 . S
C1689 C1693 1.408 . S
C1690 C1688 1.363 . S
C1690 C1691 1.370 . S
C1690 C1694 1.524 . S
C1691 C1683 1.503 . S
C1691 C1690 1.370 . S
C1691 C1692 1.403 . S
C1692 C1691 1.403 . S
C1692 C1693 1.404 . S
C1692 C1695 1.539 . S
C1693 C1689 1.408 . S
C1693 C1692 1.404 . S
C1693 H1705 0.930 . S
C1694 C1690 1.524 . S
C1694 H1706 0.956 . S
C1694 H1707 0.961 . S
C1694 H1708 0.961 . S
C1695 C1692 1.539 . S
C1695 H1709 0.958 . S
C1695 H1710 0.961 . S
C1695 H1711 0.960 . S
H1696 C1680 0.931 . S
H1697 C1685 0.929 . S
H1698 C1686 0.960 . S
H1699 C1686 0.962 . S
H1700 C1686 0.960 . S
H1701 C1687 0.961 . S
H1702 C1687 0.961 . S
H1703 C1687 0.961 . S
H1704 C1688 0.931 . S
H1705 C1693 0.930 . S
H1706 C1694 0.956 . S
H1707 C1694 0.961 . S
H1708 C1694 0.961 . S
H1709 C1695 0.958 . S
H1710 C1695 0.961 . S
H1711 C1695 0.960 . S
C1712 C1713 1.391 . S
C1712 C1714 1.394 . S
C1712 H1728 0.931 . S
C1713 C1712 1.391 . S
C1713 C1717 1.376 . S
C1714 C1712 1.394 . S
C1714 C1715 1.369 . S
C1714 C1718 1.531 . S
C1715 C1714 1.369 . S
C1715 C1716 1.410 . S
C1715 C1723 1.503 . S
C1716 C1715 1.410 . S
C1716 C1717 1.392 . S
C1716 C1719 1.511 . S
C1717 C1713 1.376 . S
C1717 C1716 1.392 . S
C1717 H1729 0.929 . S
C1718 C1714 1.531 . S
C1718 H1730 0.960 . S
C1718 H1731 0.962 . S
C1718 H1732 0.960 . S
C1719 C1716 1.511 . S
C1719 H1733 0.961 . S
C1719 H1734 0.961 . S
C1719 H1735 0.961 . S
C1720 C1721 1.370 . S
C1720 C1722 1.363 . S
C1720 H1736 0.931 . S
C1721 C1720 1.370 . S
C1721 C1725 1.408 . S
C1722 C1720 1.363 . S
C1722 C1723 1.370 . S
C1722 C1726 1.524 . S
C1723 C1715 1.503 . S
C1723 C1722 1.370 . S
C1723 C1724 1.403 . S
C1724 C1723 1.403 . S
C1724 C1725 1.404 . S
C1724 C1727 1.539 . S
C1725 C1721 1.408 . S
C1725 C1724 1.404 . S
C1725 H1737 0.930 . S
C1726 C1722 1.524 . S
C1726 H1738 0.956 . S
C1726 H1739 0.961 . S
C1726 H1740 0.961 . S
C1727 C1724 1.539 . S
C1727 H1741 0.958 . S
C1727 H1742 0.961 . S
C1727 H1743 0.960 . S
H1728 C1712 0.931 . S
H1729 C1717 0.929 . S
H1730 C1718 0.960 . S
H1731 C1718 0.962 . S
H1732 C1718 0.960 . S
H1733 C1719 0.961 . S
H1734 C1719 0.961 . S
H1735 C1719 0.961 . S
H1736 C1720 0.931 . S
H1737 C1725 0.930 . S
H1738 C1726 0.956 . S
H1739 C1726 0.961 . S
H1740 C1726 0.961 . S
H1741 C1727 0.958 . S
H1742 C1727 0.961 . S
H1743 C1727 0.960 . S
C1744 C1745 1.391 . S
C1744 C1746 1.394 . S
C1744 H1760 0.931 . S
C1745 C1744 1.391 . S
C1745 C1749 1.376 . S
C1746 C1744 1.394 . S
C1746 C1747 1.369 . S
C1746 C1750 1.531 . S
C1747 C1746 1.369 . S
C1747 C1748 1.410 . S
C1747 C1755 1.503 . S
C1748 C1747 1.410 . S
C1748 C1749 1.392 . S
C1748 C1751 1.511 . S
C1749 C1745 1.376 . S
C1749 C1748 1.392 . S
C1749 H1761 0.929 . S
C1750 C1746 1.531 . S
C1750 H1762 0.960 . S
C1750 H1763 0.962 . S
C1750 H1764 0.960 . S
C1751 C1748 1.511 . S
C1751 H1765 0.961 . S
C1751 H1766 0.961 . S
C1751 H1767 0.961 . S
C1752 C1753 1.370 . S
C1752 C1754 1.363 . S
C1752 H1768 0.931 . S
C1753 C1752 1.370 . S
C1753 C1757 1.408 . S
C1754 C1752 1.363 . S
C1754 C1755 1.370 . S
C1754 C1758 1.524 . S
C1755 C1747 1.503 . S
C1755 C1754 1.370 . S
C1755 C1756 1.403 . S
C1756 C1755 1.403 . S
C1756 C1757 1.404 . S
C1756 C1759 1.539 . S
C1757 C1753 1.408 . S
C1757 C1756 1.404 . S
C1757 H1769 0.930 . S
C1758 C1754 1.524 . S
C1758 H1770 0.956 . S
C1758 H1771 0.961 . S
C1758 H1772 0.961 . S
C1759 C1756 1.539 . S
C1759 H1773 0.958 . S
C1759 H1774 0.961 . S
C1759 H1775 0.960 . S
H1760 C1744 0.931 . S
H1761 C1749 0.929 . S
H1762 C1750 0.960 . S
H1763 C1750 0.962 . S
H1764 C1750 0.960 . S
H1765 C1751 0.961 . S
H1766 C1751 0.961 . S
H1767 C1751 0.961 . S
H1768 C1752 0.931 . S
H1769 C1757 0.930 . S
H1770 C1758 0.956 . S
H1771 C1758 0.961 . S
H1772 C1758 0.961 . S
H1773 C1759 0.958 . S
H1774 C1759 0.961 . S
H1775 C1759 0.960 . S
C1776 C1777 1.391 . S
C1776 C1778 1.394 . S
C1776 H1792 0.931 . S
C1777 C1776 1.391 . S
C1777 C1781 1.376 . S
C1778 C1776 1.394 . S
C1778 C1779 1.369 . S
C1778 C1782 1.531 . S
C1779 C1778 1.369 . S
C1779 C1780 1.410 . S
C1779 C1787 1.503 . S
C1780 C1779 1.410 . S
C1780 C1781 1.392 . S
C1780 C1783 1.511 . S
C1781 C1777 1.376 . S
C1781 C1780 1.392 . S
C1781 H1793 0.929 . S
C1782 C1778 1.531 . S
C1782 H1794 0.960 . S
C1782 H1795 0.962 . S
C1782 H1796 0.960 . S
C1783 C1780 1.511 . S
C1783 H1797 0.961 . S
C1783 H1798 0.961 . S
C1783 H1799 0.961 . S
C1784 C1785 1.370 . S
C1784 C1786 1.363 . S
C1784 H1800 0.931 . S
C1785 C1784 1.370 . S
C1785 C1789 1.408 . S
C1786 C1784 1.363 . S
C1786 C1787 1.370 . S
C1786 C1790 1.524 . S
C1787 C1779 1.503 . S
C1787 C1786 1.370 . S
C1787 C1788 1.403 . S
C1788 C1787 1.403 . S
C1788 C1789 1.404 . S
C1788 C1791 1.539 . S
C1789 C1785 1.408 . S
C1789 C1788 1.404 . S
C1789 H1801 0.930 . S
C1790 C1786 1.524 . S
C1790 H1802 0.956 . S
C1790 H1803 0.961 . S
C1790 H1804 0.961 . S
C1791 C1788 1.539 . S
C1791 H1805 0.958 . S
C1791 H1806 0.961 . S
C1791 H1807 0.960 . S
H1792 C1776 0.931 . S
H1793 C1781 0.929 . S
H1794 C1782 0.960 . S
H1795 C1782 0.962 . S
H1796 C1782 0.960 . S
H1797 C1783 0.961 . S
H1798 C1783 0.961 . S
H1799 C1783 0.961 . S
H1800 C1784 0.931 . S
H1801 C1789 0.930 . S
H1802 C1790 0.956 . S
H1803 C1790 0.961 . S
H1804 C1790 0.961 . S
H1805 C1791 0.958 . S
H1806 C1791 0.961 . S
H1807 C1791 0.960 . S
C1808 C1809 1.391 . S
C1808 C1810 1.394 . S
C1808 H1824 0.931 . S
C1809 C1808 1.391 . S
C1809 C1813 1.376 . S
C1810 C1808 1.394 . S
C1810 C1811 1.369 . S
C1810 C1814 1.531 . S
C1811 C1810 1.369 . S
C1811 C1812 1.410 . S
C1811 C1819 1.503 . S
C1812 C1811 1.410 . S
C1812 C1813 1.392 . S
C1812 C1815 1.511 . S
C1813 C1809 1.376 . S
C1813 C1812 1.392 . S
C1813 H1825 0.929 . S
C1814 C1810 1.531 . S
C1814 H1826 0.960 . S
C1814 H1827 0.962 . S
C1814 H1828 0.960 . S
C1815 C1812 1.511 . S
C1815 H1829 0.961 . S
C1815 H1830 0.961 . S
C1815 H1831 0.961 . S
C1816 C1817 1.370 . S
C1816 C1818 1.363 . S
C1816 H1832 0.931 . S
C1817 C1816 1.370 . S
C1817 C1821 1.408 . S
C1818 C1816 1.363 . S
C1818 C1819 1.370 . S
C1818 C1822 1.524 . S
C1819 C1811 1.503 . S
C1819 C1818 1.370 . S
C1819 C1820 1.403 . S
C1820 C1819 1.403 . S
C1820 C1821 1.404 . S
C1820 C1823 1.539 . S
C1821 C1817 1.408 . S
C1821 C1820 1.404 . S
C1821 H1833 0.930 . S
C1822 C1818 1.524 . S
C1822 H1834 0.956 . S
C1822 H1835 0.961 . S
C1822 H1836 0.961 . S
C1823 C1820 1.539 . S
C1823 H1837 0.958 . S
C1823 H1838 0.961 . S
C1823 H1839 0.960 . S
H1824 C1808 0.931 . S
H1825 C1813 0.929 . S
H1826 C1814 0.960 . S
H1827 C1814 0.962 . S
H1828 C1814 0.960 . S
H1829 C1815 0.961 . S
H1830 C1815 0.961 . S
H1831 C1815 0.961 . S
H1832 C1816 0.931 . S
H1833 C1821 0.930 . S
H1834 C1822 0.956 . S
H1835 C1822 0.961 . S
H1836 C1822 0.961 . S
H1837 C1823 0.958 . S
H1838 C1823 0.961 . S
H1839 C1823 0.960 . S
C1840 C1841 1.391 . S
C1840 C1842 1.394 . S
C1840 H1856 0.931 . S
C1841 C1840 1.391 . S
C1841 C1845 1.376 . S
C1842 C1840 1.394 . S
C1842 C1843 1.369 . S
C1842 C1846 1.531 . S
C1843 C1842 1.369 . S
C1843 C1844 1.410 . S
C1843 C1851 1.503 . S
C1844 C1843 1.410 . S
C1844 C1845 1.392 . S
C1844 C1847 1.511 . S
C1845 C1841 1.376 . S
C1845 C1844 1.392 . S
C1845 H1857 0.929 . S
C1846 C1842 1.531 . S
C1846 H1858 0.960 . S
C1846 H1859 0.962 . S
C1846 H1860 0.960 . S
C1847 C1844 1.511 . S
C1847 H1861 0.961 . S
C1847 H1862 0.961 . S
C1847 H1863 0.961 . S
C1848 C1849 1.370 . S
C1848 C1850 1.363 . S
C1848 H1864 0.931 . S
C1849 C1848 1.370 . S
C1849 C1853 1.408 . S
C1850 C1848 1.363 . S
C1850 C1851 1.370 . S
C1850 C1854 1.524 . S
C1851 C1843 1.503 . S
C1851 C1850 1.370 . S
C1851 C1852 1.403 . S
C1852 C1851 1.403 . S
C1852 C1853 1.404 . S
C1852 C1855 1.539 . S
C1853 C1849 1.408 . S
C1853 C1852 1.404 . S
C1853 H1865 0.930 . S
C1854 C1850 1.524 . S
C1854 H1866 0.956 . S
C1854 H1867 0.961 . S
C1854 H1868 0.961 . S
C1855 C1852 1.539 . S
C1855 H1869 0.958 . S
C1855 H1870 0.961 . S
C1855 H1871 0.960 . S
H1856 C1840 0.931 . S
H1857 C1845 0.929 . S
H1858 C1846 0.960 . S
H1859 C1846 0.962 . S
H1860 C1846 0.960 . S
H1861 C1847 0.961 . S
H1862 C1847 0.961 . S
H1863 C1847 0.961 . S
H1864 C1848 0.931 . S
H1865 C1853 0.930 . S
H1866 C1854 0.956 . S
H1867 C1854 0.961 . S
H1868 C1854 0.961 . S
H1869 C1855 0.958 . S
H1870 C1855 0.961 . S
H1871 C1855 0.960 . S
C1872 C1873 1.391 . S
C1872 C1874 1.394 . S
C1872 H1888 0.931 . S
C1873 C1872 1.391 . S
C1873 C1877 1.376 . S
C1874 C1872 1.394 . S
C1874 C1875 1.369 . S
C1874 C1878 1.531 . S
C1875 C1874 1.369 . S
C1875 C1876 1.410 . S
C1875 C1883 1.503 . S
C1876 C1875 1.410 . S
C1876 C1877 1.392 . S
C1876 C1879 1.511 . S
C1877 C1873 1.376 . S
C1877 C1876 1.392 . S
C1877 H1889 0.929 . S
C1878 C1874 1.531 . S
C1878 H1890 0.960 . S
C1878 H1891 0.962 . S
C1878 H1892 0.960 . S
C1879 C1876 1.511 . S
C1879 H1893 0.961 . S
C1879 H1894 0.961 . S
C1879 H1895 0.961 . S
C1880 C1881 1.370 . S
C1880 C1882 1.363 . S
C1880 H1896 0.931 . S
C1881 C1880 1.370 . S
C1881 C1885 1.408 . S
C1882 C1880 1.363 . S
C1882 C1883 1.370 . S
C1882 C1886 1.524 . S
C1883 C1875 1.503 . S
C1883 C1882 1.370 . S
C1883 C1884 1.403 . S
C1884 C1883 1.403 . S
C1884 C1885 1.404 . S
C1884 C1887 1.539 . S
C1885 C1881 1.408 . S
C1885 C1884 1.404 . S
C1885 H1897 0.930 . S
C1886 C1882 1.524 . S
C1886 H1898 0.956 . S
C1886 H1899 0.961 . S
C1886 H1900 0.961 . S
C1887 C1884 1.539 . S
C1887 H1901 0.958 . S
C1887 H1902 0.961 . S
C1887 H1903 0.960 . S
H1888 C1872 0.931 . S
H1889 C1877 0.929 . S
H1890 C1878 0.960 . S
H1891 C1878 0.962 . S
H1892 C1878 0.960 . S
H1893 C1879 0.961 . S
H1894 C1879 0.961 . S
H1895 C1879 0.961 . S
H1896 C1880 0.931 . S
H1897 C1885 0.930 . S
H1898 C1886 0.956 . S
H1899 C1886 0.961 . S
H1900 C1886 0.961 . S
H1901 C1887 0.958 . S
H1902 C1887 0.961 . S
H1903 C1887 0.960 . S
C1904 C1905 1.391 . S
C1904 C1906 1.394 . S
C1904 H1920 0.931 . S
C1905 C1904 1.391 . S
C1905 C1909 1.376 . S
C1906 C1904 1.394 . S
C1906 C1907 1.369 . S
C1906 C1910 1.531 . S
C1907 C1906 1.369 . S
C1907 C1908 1.410 . S
C1907 C1915 1.503 . S
C1908 C1907 1.410 . S
C1908 C1909 1.392 . S
C1908 C1911 1.511 . S
C1909 C1905 1.376 . S
C1909 C1908 1.392 . S
C1909 H1921 0.929 . S
C1910 C1906 1.531 . S
C1910 H1922 0.960 . S
C1910 H1923 0.962 . S
C1910 H1924 0.960 . S
C1911 C1908 1.511 . S
C1911 H1925 0.961 . S
C1911 H1926 0.961 . S
C1911 H1927 0.961 . S
C1912 C1913 1.370 . S
C1912 C1914 1.363 . S
C1912 H1928 0.931 . S
C1913 C1912 1.370 . S
C1913 C1917 1.408 . S
C1914 C1912 1.363 . S
C1914 C1915 1.370 . S
C1914 C1918 1.524 . S
C1915 C1907 1.503 . S
C1915 C1914 1.370 . S
C1915 C1916 1.403 . S
C1916 C1915 1.403 . S
C1916 C1917 1.404 . S
C1916 C1919 1.539 . S
C1917 C1913 1.408 . S
C1917 C1916 1.404 . S
C1917 H1929 0.930 . S
C1918 C1914 1.524 . S
C1918 H1930 0.956 . S
C1918 H1931 0.961 . S
C1918 H1932 0.961 . S
C1919 C1916 1.539 . S
C1919 H1933 0.958 . S
C1919 H1934 0.961 . S
C1919 H1935 0.960 . S
H1920 C1904 0.931 . S
H1921 C1909 0.929 . S
H1922 C1910 0.960 . S
H1923 C1910 0.962 . S
H1924 C1910 0.960 . S
H1925 C1911 0.961 . S
H1926 C1911 0.961 . S
H1927 C1911 0.961 . S
H1928 C1912 0.931 . S
H1929 C1917 0.930 . S
H1930 C1918 0.956 . S
H1931 C1918 0.961 . S
H1932 C1918 0.961 . S
H1933 C1919 0.958 . S
H1934 C1919 0.961 . S
H1935 C1919 0.960 . S
C1936 C1937 1.391 . S
C1936 C1938 1.394 . S
C1936 H1952 0.931 . S
C1937 C1936 1.391 . S
C1937 C1941 1.376 . S
C1938 C1936 1.394 . S
C1938 C1939 1.369 . S
C1938 C1942 1.531 . S
C1939 C1938 1.369 . S
C1939 C1940 1.410 . S
C1939 C1947 1.503 . S
C1940 C1939 1.410 . S
C1940 C1941 1.392 . S
C1940 C1943 1.511 . S
C1941 C1937 1.376 . S
C1941 C1940 1.392 . S
C1941 H1953 0.929 . S
C1942 C1938 1.531 . S
C1942 H1954 0.960 . S
C1942 H1955 0.962 . S
C1942 H1956 0.960 . S
C1943 C1940 1.511 . S
C1943 H1957 0.961 . S
C1943 H1958 0.961 . S
C1943 H1959 0.961 . S
C1944 C1945 1.370 . S
C1944 C1946 1.363 . S
C1944 H1960 0.931 . S
C1945 C1944 1.370 . S
C1945 C1949 1.408 1_556 S
C1946 C1944 1.363 . S
C1946 C1947 1.370 . S
C1946 C1950 1.524 . S
C1947 C1939 1.503 . S
C1947 C1946 1.370 . S
C1947 C1948 1.403 . S
C1948 C1947 1.403 . S
C1948 C1949 1.404 1_556 S
C1948 C1951 1.539 . S
C1949 C1945 1.408 1_554 S
C1949 C1948 1.404 1_554 S
C1949 H1961 0.930 . S
C1950 C1946 1.524 . S
C1950 H1962 0.956 . S
C1950 H1963 0.961 . S
C1950 H1964 0.961 . S
C1951 C1948 1.539 . S
C1951 H1965 0.958 1_556 S
C1951 H1966 0.961 1_556 S
C1951 H1967 0.960 . S
H1952 C1936 0.931 . S
H1953 C1941 0.929 . S
H1954 C1942 0.960 . S
H1955 C1942 0.962 . S
H1956 C1942 0.960 . S
H1957 C1943 0.961 . S
H1958 C1943 0.961 . S
H1959 C1943 0.961 . S
H1960 C1944 0.931 . S
H1961 C1949 0.930 . S
H1962 C1950 0.956 . S
H1963 C1950 0.961 . S
H1964 C1950 0.961 . S
H1965 C1951 0.958 1_554 S
H1966 C1951 0.961 1_554 S
H1967 C1951 0.960 . S
C1968 C1969 1.391 . S
C1968 C1970 1.394 . S
C1968 H1984 0.931 . S
C1969 C1968 1.391 . S
C1969 C1973 1.376 . S
C1970 C1968 1.394 . S
C1970 C1971 1.369 . S
C1970 C1974 1.531 . S
C1971 C1970 1.369 . S
C1971 C1972 1.410 . S
C1971 C1979 1.503 . S
C1972 C1971 1.410 . S
C1972 C1973 1.392 . S
C1972 C1975 1.511 . S
C1973 C1969 1.376 . S
C1973 C1972 1.392 . S
C1973 H1985 0.929 . S
C1974 C1970 1.531 . S
C1974 H1986 0.960 . S
C1974 H1987 0.962 . S
C1974 H1988 0.960 . S
C1975 C1972 1.511 . S
C1975 H1989 0.961 . S
C1975 H1990 0.961 . S
C1975 H1991 0.961 . S
C1976 C1977 1.370 . S
C1976 C1978 1.363 . S
C1976 H1992 0.931 . S
C1977 C1976 1.370 . S
C1977 C1981 1.408 . S
C1978 C1976 1.363 . S
C1978 C1979 1.370 . S
C1978 C1982 1.524 . S
C1979 C1971 1.503 . S
C1979 C1978 1.370 . S
C1979 C1980 1.403 . S
C1980 C1979 1.403 . S
C1980 C1981 1.404 . S
C1980 C1983 1.539 . S
C1981 C1977 1.408 . S
C1981 C1980 1.404 . S
C1981 H1993 0.930 . S
C1982 C1978 1.524 . S
C1982 H1994 0.956 . S
C1982 H1995 0.961 . S
C1982 H1996 0.961 . S
C1983 C1980 1.539 . S
C1983 H1997 0.958 . S
C1983 H1998 0.961 . S
C1983 H1999 0.960 . S
H1984 C1968 0.931 . S
H1985 C1973 0.929 . S
H1986 C1974 0.960 . S
H1987 C1974 0.962 . S
H1988 C1974 0.960 . S
H1989 C1975 0.961 . S
H1990 C1975 0.961 . S
H1991 C1975 0.961 . S
H1992 C1976 0.931 . S
H1993 C1981 0.930 . S
H1994 C1982 0.956 . S
H1995 C1982 0.961 . S
H1996 C1982 0.961 . S
H1997 C1983 0.958 . S
H1998 C1983 0.961 . S
H1999 C1983 0.960 . S
C2000 C2001 1.391 . S
C2000 C2002 1.394 . S
C2000 H2016 0.931 . S
C2001 C2000 1.391 . S
C2001 C2005 1.376 . S
C2002 C2000 1.394 . S
C2002 C2003 1.369 . S
C2002 C2006 1.531 . S
C2003 C2002 1.369 . S
C2003 C2004 1.410 . S
C2003 C2011 1.503 . S
C2004 C2003 1.410 . S
C2004 C2005 1.392 . S
C2004 C2007 1.511 . S
C2005 C2001 1.376 . S
C2005 C2004 1.392 . S
C2005 H2017 0.929 . S
C2006 C2002 1.531 . S
C2006 H2018 0.960 . S
C2006 H2019 0.962 . S
C2006 H2020 0.960 . S
C2007 C2004 1.511 . S
C2007 H2021 0.961 1_545 S
C2007 H2022 0.961 . S
C2007 H2023 0.961 . S
C2008 C2009 1.370 . S
C2008 C2010 1.363 . S
C2008 H2024 0.931 1_545 S
C2009 C2008 1.370 . S
C2009 C2013 1.408 . S
C2010 C2008 1.363 . S
C2010 C2011 1.370 . S
C2010 C2014 1.524 1_545 S
C2011 C2003 1.503 . S
C2011 C2010 1.370 . S
C2011 C2012 1.403 . S
C2012 C2011 1.403 . S
C2012 C2013 1.404 . S
C2012 C2015 1.539 . S
C2013 C2009 1.408 . S
C2013 C2012 1.404 . S
C2013 H2025 0.930 . S
C2014 C2010 1.524 1_565 S
C2014 H2026 0.956 . S
C2014 H2027 0.961 . S
C2014 H2028 0.961 . S
C2015 C2012 1.539 . S
C2015 H2029 0.958 . S
C2015 H2030 0.961 . S
C2015 H2031 0.960 . S
H2016 C2000 0.931 . S
H2017 C2005 0.929 . S
H2018 C2006 0.960 . S
H2019 C2006 0.962 . S
H2020 C2006 0.960 . S
H2021 C2007 0.961 1_565 S
H2022 C2007 0.961 . S
H2023 C2007 0.961 . S
H2024 C2008 0.931 1_565 S
H2025 C2013 0.930 . S
H2026 C2014 0.956 . S
H2027 C2014 0.961 . S
H2028 C2014 0.961 . S
H2029 C2015 0.958 . S
H2030 C2015 0.961 . S
H2031 C2015 0.960 . S
C2032 C2033 1.391 . S
C2032 C2034 1.394 . S
C2032 H2048 0.931 . S
C2033 C2032 1.391 . S
C2033 C2037 1.376 . S
C2034 C2032 1.394 . S
C2034 C2035 1.369 . S
C2034 C2038 1.531 . S
C2035 C2034 1.369 . S
C2035 C2036 1.410 . S
C2035 C2043 1.503 . S
C2036 C2035 1.410 . S
C2036 C2037 1.392 . S
C2036 C2039 1.511 . S
C2037 C2033 1.376 . S
C2037 C2036 1.392 . S
C2037 H2049 0.929 . S
C2038 C2034 1.531 . S
C2038 H2050 0.960 . S
C2038 H2051 0.962 . S
C2038 H2052 0.960 . S
C2039 C2036 1.511 . S
C2039 H2053 0.961 . S
C2039 H2054 0.961 . S
C2039 H2055 0.961 . S
C2040 C2041 1.370 . S
C2040 C2042 1.363 . S
C2040 H2056 0.931 . S
C2041 C2040 1.370 . S
C2041 C2045 1.408 . S
C2042 C2040 1.363 . S
C2042 C2043 1.370 . S
C2042 C2046 1.524 . S
C2043 C2035 1.503 . S
C2043 C2042 1.370 . S
C2043 C2044 1.403 . S
C2044 C2043 1.403 . S
C2044 C2045 1.404 . S
C2044 C2047 1.539 . S
C2045 C2041 1.408 . S
C2045 C2044 1.404 . S
C2045 H2057 0.930 . S
C2046 C2042 1.524 . S
C2046 H2058 0.956 . S
C2046 H2059 0.961 . S
C2046 H2060 0.961 . S
C2047 C2044 1.539 . S
C2047 H2061 0.958 . S
C2047 H2062 0.961 . S
C2047 H2063 0.960 . S
H2048 C2032 0.931 . S
H2049 C2037 0.929 . S
H2050 C2038 0.960 . S
H2051 C2038 0.962 . S
H2052 C2038 0.960 . S
H2053 C2039 0.961 . S
H2054 C2039 0.961 . S
H2055 C2039 0.961 . S
H2056 C2040 0.931 . S
H2057 C2045 0.930 . S
H2058 C2046 0.956 . S
H2059 C2046 0.961 . S
H2060 C2046 0.961 . S
H2061 C2047 0.958 . S
H2062 C2047 0.961 . S
H2063 C2047 0.960 . S
C2064 C2065 1.391 . S
C2064 C2066 1.394 . S
C2064 H2080 0.931 . S
C2065 C2064 1.391 . S
C2065 C2069 1.376 . S
C2066 C2064 1.394 . S
C2066 C2067 1.369 . S
C2066 C2070 1.531 . S
C2067 C2066 1.369 . S
C2067 C2068 1.410 . S
C2067 C2075 1.503 . S
C2068 C2067 1.410 . S
C2068 C2069 1.392 . S
C2068 C2071 1.511 1_545 S
C2069 C2065 1.376 . S
C2069 C2068 1.392 . S
C2069 H2081 0.929 1_545 S
C2070 C2066 1.531 . S
C2070 H2082 0.960 . S
C2070 H2083 0.962 . S
C2070 H2084 0.960 . S
C2071 C2068 1.511 1_565 S
C2071 H2085 0.961 . S
C2071 H2086 0.961 . S
C2071 H2087 0.941 1_565 S
C2072 C2073 1.370 . S
C2072 C2074 1.363 . S
C2072 H2088 0.931 . S
C2073 C2072 1.370 . S
C2073 C2077 1.408 . S
C2074 C2072 1.363 . S
C2074 C2075 1.370 . S
C2074 C2078 1.524 1_545 S
C2075 C2067 1.503 . S
C2075 C2074 1.370 . S
C2075 C2076 1.403 . S
C2076 C2075 1.403 . S
C2076 C2077 1.404 . S
C2076 C2079 1.539 . S
C2077 C2073 1.408 . S
C2077 C2076 1.404 . S
C2077 H2089 0.930 . S
C2078 C2074 1.524 1_565 S
C2078 H2090 0.956 1_565 S
C2078 H2091 0.961 . S
C2078 H2092 0.961 . S
C2079 C2076 1.539 . S
C2079 H2093 0.958 . S
C2079 H2094 0.961 . S
C2079 H2095 0.960 . S
H2080 C2064 0.931 . S
H2081 C2069 0.929 1_565 S
H2082 C2070 0.960 . S
H2083 C2070 0.962 . S
H2084 C2070 0.960 . S
H2085 C2071 0.961 . S
H2086 C2071 0.961 . S
H2087 C2071 0.941 1_545 S
H2088 C2072 0.931 . S
H2089 C2077 0.930 . S
H2090 C2078 0.956 1_545 S
H2091 C2078 0.961 . S
H2092 C2078 0.961 . S
H2093 C2079 0.958 . S
H2094 C2079 0.961 . S
H2095 C2079 0.960 . S
C2096 C2097 1.391 . S
C2096 C2098 1.394 . S
C2096 H2112 0.931 . S
C2097 C2096 1.391 . S
C2097 C2101 1.376 . S
C2098 C2096 1.394 . S
C2098 C2099 1.369 . S
C2098 C2102 1.531 . S
C2099 C2098 1.369 . S
C2099 C2100 1.410 . S
C2099 C2107 1.503 . S
C2100 C2099 1.410 . S
C2100 C2101 1.392 . S
C2100 C2103 1.511 . S
C2101 C2097 1.376 . S
C2101 C2100 1.392 . S
C2101 H2113 0.929 . S
C2102 C2098 1.531 . S
C2102 H2114 0.960 . S
C2102 H2115 0.962 . S
C2102 H2116 0.960 . S
C2103 C2100 1.511 . S
C2103 H2117 0.961 . S
C2103 H2118 0.961 . S
C2103 H2119 0.961 . S
C2104 C2105 1.370 . S
C2104 C2106 1.363 . S
C2104 H2120 0.931 . S
C2105 C2104 1.370 . S
C2105 C2109 1.408 . S
C2106 C2104 1.363 . S
C2106 C2107 1.370 . S
C2106 C2110 1.524 . S
C2107 C2099 1.503 . S
C2107 C2106 1.370 . S
C2107 C2108 1.403 . S
C2108 C2107 1.403 . S
C2108 C2109 1.404 . S
C2108 C2111 1.539 . S
C2109 C2105 1.408 . S
C2109 C2108 1.404 . S
C2109 H2121 0.930 . S
C2110 C2106 1.524 . S
C2110 H2122 0.956 . S
C2110 H2123 0.961 . S
C2110 H2124 0.961 . S
C2111 C2108 1.539 . S
C2111 H2125 0.958 . S
C2111 H2126 0.961 . S
C2111 H2127 0.960 . S
H2112 C2096 0.931 . S
H2113 C2101 0.929 . S
H2114 C2102 0.960 . S
H2115 C2102 0.962 . S
H2116 C2102 0.960 . S
H2117 C2103 0.961 . S
H2118 C2103 0.961 . S
H2119 C2103 0.961 . S
H2120 C2104 0.931 . S
H2121 C2109 0.930 . S
H2122 C2110 0.956 . S
H2123 C2110 0.961 . S
H2124 C2110 0.961 . S
H2125 C2111 0.958 . S
H2126 C2111 0.961 . S
H2127 C2111 0.960 . S
C2128 C2129 1.391 . S
C2128 C2130 1.394 . S
C2128 H2144 0.931 . S
C2129 C2128 1.391 . S
C2129 C2133 1.376 1_565 S
C2130 C2128 1.394 . S
C2130 C2131 1.369 1_565 S
C2130 C2134 1.531 . S
C2131 C2130 1.369 1_545 S
C2131 C2132 1.410 . S
C2131 C2139 1.503 . S
C2132 C2131 1.410 . S
C2132 C2133 1.392 . S
C2132 C2135 1.511 . S
C2133 C2129 1.376 1_545 S
C2133 C2132 1.392 . S
C2133 H2145 0.929 . S
C2134 C2130 1.531 . S
C2134 H2146 0.960 . S
C2134 H2147 0.962 1_565 S
C2134 H2148 0.960 . S
C2135 C2132 1.511 . S
C2135 H2149 0.961 . S
C2135 H2150 0.961 . S
C2135 H2151 0.937 1_545 S
C2136 C2137 1.370 . S
C2136 C2138 1.363 . S
C2136 H2152 0.931 . S
C2137 C2136 1.370 . S
C2137 C2141 1.420 . S
C2138 C2136 1.363 . S
C2138 C2139 1.370 . S
C2138 C2142 1.524 . S
C2139 C2131 1.503 . S
C2139 C2138 1.370 . S
C2139 C2140 1.403 1_545 S
C2140 C2139 1.403 1_565 S
C2140 C2141 1.397 1_565 S
C2140 C2143 1.539 . S
C2141 C2137 1.420 . S
C2141 C2140 1.397 1_545 S
C2141 H2153 0.925 1_545 S
C2142 C2138 1.524 . S
C2142 H2154 0.956 . S
C2142 H2155 0.961 . S
C2142 H2156 0.961 . S
C2143 C2140 1.539 . S
C2143 H2157 0.958 . S
C2143 H2158 0.961 . S
C2143 H2159 0.960 . S
H2144 C2128 0.931 . S
H2145 C2133 0.929 . S
H2146 C2134 0.960 . S
H2147 C2134 0.962 1_545 S
H2148 C2134 0.960 . S
H2149 C2135 0.961 . S
H2150 C2135 0.961 . S
H2151 C2135 0.937 1_565 S
H2152 C2136 0.931 . S
H2153 C2141 0.925 1_565 S
H2154 C2142 0.956 . S
H2155 C2142 0.961 . S
H2156 C2142 0.961 . S
H2157 C2143 0.958 . S
H2158 C2143 0.961 . S
H2159 C2143 0.960 . S
C2160 C2161 1.391 . S
C2160 C2162 1.394 . S
C2160 H2176 0.931 . S
C2161 C2160 1.391 . S
C2161 C2165 1.376 . S
C2162 C2160 1.394 . S
C2162 C2163 1.369 . S
C2162 C2166 1.531 . S
C2163 C2162 1.369 . S
C2163 C2164 1.410 . S
C2163 C2171 1.503 . S
C2164 C2163 1.410 . S
C2164 C2165 1.392 . S
C2164 C2167 1.511 . S
C2165 C2161 1.376 . S
C2165 C2164 1.392 . S
C2165 H2177 0.929 . S
C2166 C2162 1.531 . S
C2166 H2178 0.960 . S
C2166 H2179 0.962 . S
C2166 H2180 0.960 . S
C2167 C2164 1.511 . S
C2167 H2181 0.961 . S
C2167 H2182 0.961 . S
C2167 H2183 0.961 . S
C2168 C2169 1.370 . S
C2168 C2170 1.363 . S
C2168 H2184 0.931 . S
C2169 C2168 1.370 . S
C2169 C2173 1.408 . S
C2170 C2168 1.363 . S
C2170 C2171 1.370 . S
C2170 C2174 1.524 . S
C2171 C2163 1.503 . S
C2171 C2170 1.370 . S
C2171 C2172 1.403 . S
C2172 C2171 1.403 . S
C2172 C2173 1.404 . S
C2172 C2175 1.539 . S
C2173 C2169 1.408 . S
C2173 C2172 1.404 . S
C2173 H2185 0.930 . S
C2174 C2170 1.524 . S
C2174 H2186 0.956 . S
C2174 H2187 0.961 . S
C2174 H2188 0.961 . S
C2175 C2172 1.539 . S
C2175 H2189 0.958 . S
C2175 H2190 0.961 . S
C2175 H2191 0.960 . S
H2176 C2160 0.931 . S
H2177 C2165 0.929 . S
H2178 C2166 0.960 . S
H2179 C2166 0.962 . S
H2180 C2166 0.960 . S
H2181 C2167 0.961 . S
H2182 C2167 0.961 . S
H2183 C2167 0.961 . S
H2184 C2168 0.931 . S
H2185 C2173 0.930 . S
H2186 C2174 0.956 . S
H2187 C2174 0.961 . S
H2188 C2174 0.961 . S
H2189 C2175 0.958 . S
H2190 C2175 0.961 . S
H2191 C2175 0.960 . S
C2192 C2193 1.391 1_565 S
C2192 C2194 1.394 . S
C2192 H2208 0.931 . S
C2193 C2192 1.391 1_545 S
C2193 C2197 1.376 . S
C2194 C2192 1.394 . S
C2194 C2195 1.369 . S
C2194 C2198 1.531 . S
C2195 C2194 1.369 . S
C2195 C2196 1.412 . S
C2195 C2203 1.503 . S
C2196 C2195 1.412 . S
C2196 C2197 1.391 1_565 S
C2196 C2199 1.509 1_565 S
C2197 C2193 1.376 . S
C2197 C2196 1.391 1_545 S
C2197 H2209 0.929 . S
C2198 C2194 1.531 . S
C2198 H2210 0.960 . S
C2198 H2211 0.962 . S
C2198 H2212 0.960 . S
C2199 C2196 1.509 1_545 S
C2199 H2213 0.961 . S
C2199 H2214 0.961 . S
C2199 H2215 0.961 1_545 S
C2200 C2201 1.370 1_545 S
C2200 C2202 1.363 . S
C2200 H2216 0.931 . S
C2201 C2200 1.370 1_565 S
C2201 C2205 1.408 . S
C2202 C2200 1.363 . S
C2202 C2203 1.370 1_545 S
C2202 C2206 1.524 . S
C2203 C2195 1.503 . S
C2203 C2202 1.370 1_565 S
C2203 C2204 1.403 . S
C2204 C2203 1.403 . S
C2204 C2205 1.404 . S
C2204 C2207 1.539 . S
C2205 C2201 1.408 . S
C2205 C2204 1.404 . S
C2205 H2217 0.930 . S
C2206 C2202 1.524 . S
C2206 H2218 0.956 . S
C2206 H2219 0.961 . S
C2206 H2220 0.961 . S
C2207 C2204 1.539 . S
C2207 H2221 0.958 . S
C2207 H2222 0.961 . S
C2207 H2223 0.960 . S
H2208 C2192 0.931 . S
H2209 C2197 0.929 . S
H2210 C2198 0.960 . S
H2211 C2198 0.962 . S
H2212 C2198 0.960 . S
H2213 C2199 0.961 . S
H2214 C2199 0.961 . S
H2215 C2199 0.961 1_565 S
H2216 C2200 0.931 . S
H2217 C2205 0.930 . S
H2218 C2206 0.956 . S
H2219 C2206 0.961 . S
H2220 C2206 0.961 . S
H2221 C2207 0.958 . S
H2222 C2207 0.961 . S
H2223 C2207 0.960 . S
C2224 C2225 1.391 . S
C2224 C2226 1.394 . S
C2224 H2240 0.931 . S
C2225 C2224 1.391 . S
C2225 C2229 1.376 . S
C2226 C2224 1.394 . S
C2226 C2227 1.369 . S
C2226 C2230 1.531 . S
C2227 C2226 1.369 . S
C2227 C2228 1.410 . S
C2227 C2235 1.503 . S
C2228 C2227 1.410 . S
C2228 C2229 1.392 . S
C2228 C2231 1.511 . S
C2229 C2225 1.376 . S
C2229 C2228 1.392 . S
C2229 H2241 0.929 . S
C2230 C2226 1.531 . S
C2230 H2242 0.960 . S
C2230 H2243 0.962 . S
C2230 H2244 0.960 . S
C2231 C2228 1.511 . S
C2231 H2245 0.961 . S
C2231 H2246 0.961 . S
C2231 H2247 0.961 . S
C2232 C2233 1.370 . S
C2232 C2234 1.363 . S
C2232 H2248 0.931 . S
C2233 C2232 1.370 . S
C2233 C2237 1.408 . S
C2234 C2232 1.363 . S
C2234 C2235 1.370 . S
C2234 C2238 1.524 . S
C2235 C2227 1.503 . S
C2235 C2234 1.370 . S
C2235 C2236 1.403 . S
C2236 C2235 1.403 . S
C2236 C2237 1.404 . S
C2236 C2239 1.539 . S
C2237 C2233 1.408 . S
C2237 C2236 1.404 . S
C2237 H2249 0.930 . S
C2238 C2234 1.524 . S
C2238 H2250 0.956 . S
C2238 H2251 0.961 . S
C2238 H2252 0.961 . S
C2239 C2236 1.539 . S
C2239 H2253 0.958 . S
C2239 H2254 0.961 . S
C2239 H2255 0.960 . S
H2240 C2224 0.931 . S
H2241 C2229 0.929 . S
H2242 C2230 0.960 . S
H2243 C2230 0.962 . S
H2244 C2230 0.960 . S
H2245 C2231 0.961 . S
H2246 C2231 0.961 . S
H2247 C2231 0.961 . S
H2248 C2232 0.931 . S
H2249 C2237 0.930 . S
H2250 C2238 0.956 . S
H2251 C2238 0.961 . S
H2252 C2238 0.961 . S
H2253 C2239 0.958 . S
H2254 C2239 0.961 . S
H2255 C2239 0.960 . S
C2256 C2257 1.391 . S
C2256 C2258 1.394 . S
C2256 H2272 0.931 . S
C2257 C2256 1.391 . S
C2257 C2261 1.376 . S
C2258 C2256 1.394 . S
C2258 C2259 1.369 . S
C2258 C2262 1.531 . S
C2259 C2258 1.369 . S
C2259 C2260 1.410 1_554 S
C2259 C2267 1.503 . S
C2260 C2259 1.410 1_556 S
C2260 C2261 1.392 1_556 S
C2260 C2263 1.511 . S
C2261 C2257 1.376 . S
C2261 C2260 1.392 1_554 S
C2261 H2273 0.929 1_554 S
C2262 C2258 1.531 . S
C2262 H2274 0.960 . S
C2262 H2275 0.962 . S
C2262 H2276 0.960 . S
C2263 C2260 1.511 . S
C2263 H2277 0.961 . S
C2263 H2278 0.961 . S
C2263 H2279 0.961 . S
C2264 C2265 1.370 . S
C2264 C2266 1.363 . S
C2264 H2280 0.931 . S
C2265 C2264 1.370 . S
C2265 C2269 1.408 . S
C2266 C2264 1.363 . S
C2266 C2267 1.370 1_556 S
C2266 C2270 1.524 . S
C2267 C2259 1.503 . S
C2267 C2266 1.370 1_554 S
C2267 C2268 1.401 . S
C2268 C2267 1.401 . S
C2268 C2269 1.400 1_554 S
C2268 C2271 1.544 . S
C2269 C2265 1.408 . S
C2269 C2268 1.400 1_556 S
C2269 H2281 0.930 . S
C2270 C2266 1.524 . S
C2270 H2282 0.956 1_556 S
C2270 H2283 0.961 . S
C2270 H2284 0.961 . S
C2271 C2268 1.544 . S
C2271 H2285 0.958 . S
C2271 H2286 0.961 1_554 S
C2271 H2287 0.960 . S
H2272 C2256 0.931 . S
H2273 C2261 0.929 1_556 S
H2274 C2262 0.960 . S
H2275 C2262 0.962 . S
H2276 C2262 0.960 . S
H2277 C2263 0.961 . S
H2278 C2263 0.961 . S
H2279 C2263 0.961 . S
H2280 C2264 0.931 . S
H2281 C2269 0.930 . S
H2282 C2270 0.956 1_554 S
H2283 C2270 0.961 . S
H2284 C2270 0.961 . S
H2285 C2271 0.958 . S
H2286 C2271 0.961 1_556 S
H2287 C2271 0.960 . S
C2288 C2289 1.391 . S
C2288 C2290 1.394 . S
C2288 H2304 0.931 . S
C2289 C2288 1.391 . S
C2289 C2293 1.376 . S
C2290 C2288 1.394 . S
C2290 C2291 1.369 . S
C2290 C2294 1.531 . S
C2291 C2290 1.369 . S
C2291 C2292 1.410 . S
C2291 C2299 1.503 . S
C2292 C2291 1.410 . S
C2292 C2293 1.392 . S
C2292 C2295 1.511 1_554 S
C2293 C2289 1.376 . S
C2293 C2292 1.392 . S
C2293 H2305 0.929 . S
C2294 C2290 1.531 . S
C2294 H2306 0.960 . S
C2294 H2307 0.962 . S
C2294 H2308 0.960 . S
C2295 C2292 1.511 1_556 S
C2295 H2309 0.961 . S
C2295 H2310 0.961 . S
C2295 H2311 0.961 . S
C2296 C2297 1.370 . S
C2296 C2298 1.363 . S
C2296 H2312 0.931 . S
C2297 C2296 1.370 . S
C2297 C2301 1.408 . S
C2298 C2296 1.363 . S
C2298 C2299 1.370 . S
C2298 C2302 1.524 . S
C2299 C2291 1.503 . S
C2299 C2298 1.370 . S
C2299 C2300 1.403 . S
C2300 C2299 1.403 . S
C2300 C2301 1.404 . S
C2300 C2303 1.539 . S
C2301 C2297 1.408 . S
C2301 C2300 1.404 . S
C2301 H2313 0.930 . S
C2302 C2298 1.524 . S
C2302 H2314 0.956 . S
C2302 H2315 0.961 . S
C2302 H2316 0.961 . S
C2303 C2300 1.539 . S
C2303 H2317 0.958 . S
C2303 H2318 0.961 . S
C2303 H2319 0.960 . S
H2304 C2288 0.931 . S
H2305 C2293 0.929 . S
H2306 C2294 0.960 . S
H2307 C2294 0.962 . S
H2308 C2294 0.960 . S
H2309 C2295 0.961 . S
H2310 C2295 0.961 . S
H2311 C2295 0.961 . S
H2312 C2296 0.931 . S
H2313 C2301 0.930 . S
H2314 C2302 0.956 . S
H2315 C2302 0.961 . S
H2316 C2302 0.961 . S
H2317 C2303 0.958 . S
H2318 C2303 0.961 . S
H2319 C2303 0.960 . S
C2320 C2321 1.391 . S
C2320 C2322 1.394 . S
C2320 H2336 0.931 . S
C2321 C2320 1.391 . S
C2321 C2325 1.376 . S
C2322 C2320 1.394 . S
C2322 C2323 1.369 . S
C2322 C2326 1.531 . S
C2323 C2322 1.369 . S
C2323 C2324 1.410 . S
C2323 C2331 1.503 . S
C2324 C2323 1.410 . S
C2324 C2325 1.392 . S
C2324 C2327 1.511 . S
C2325 C2321 1.376 . S
C2325 C2324 1.392 . S
C2325 H2337 0.929 . S
C2326 C2322 1.531 . S
C2326 H2338 0.960 . S
C2326 H2339 0.962 . S
C2326 H2340 0.960 . S
C2327 C2324 1.511 . S
C2327 H2341 0.961 . S
C2327 H2342 0.961 . S
C2327 H2343 0.961 . S
C2328 C2329 1.370 . S
C2328 C2330 1.363 . S
C2328 H2344 0.931 . S
C2329 C2328 1.370 . S
C2329 C2333 1.408 . S
C2330 C2328 1.363 . S
C2330 C2331 1.370 . S
C2330 C2334 1.524 . S
C2331 C2323 1.503 . S
C2331 C2330 1.370 . S
C2331 C2332 1.403 . S
C2332 C2331 1.403 . S
C2332 C2333 1.404 . S
C2332 C2335 1.539 . S
C2333 C2329 1.408 . S
C2333 C2332 1.404 . S
C2333 H2345 0.930 . S
C2334 C2330 1.524 . S
C2334 H2346 0.956 . S
C2334 H2347 0.961 . S
C2334 H2348 0.961 . S
C2335 C2332 1.539 . S
C2335 H2349 0.958 . S
C2335 H2350 0.961 . S
C2335 H2351 0.960 . S
H2336 C2320 0.931 . S
H2337 C2325 0.929 . S
H2338 C2326 0.960 . S
H2339 C2326 0.962 . S
H2340 C2326 0.960 . S
H2341 C2327 0.961 . S
H2342 C2327 0.961 . S
H2343 C2327 0.961 . S
H2344 C2328 0.931 . S
H2345 C2333 0.930 . S
H2346 C2334 0.956 . S
H2347 C2334 0.961 . S
H2348 C2334 0.961 . S
H2349 C2335 0.958 . S
H2350 C2335 0.961 . S
H2351 C2335 0.960 . S
C2352 C2353 1.391 . S
C2352 C2354 1.394 . S
C2352 H2368 0.931 . S
C2353 C2352 1.391 . S
C2353 C2357 1.376 . S
C2354 C2352 1.394 . S
C2354 C2355 1.369 . S
C2354 C2358 1.531 . S
C2355 C2354 1.369 . S
C2355 C2356 1.410 . S
C2355 C2363 1.503 . S
C2356 C2355 1.410 . S
C2356 C2357 1.392 . S
C2356 C2359 1.511 . S
C2357 C2353 1.376 . S
C2357 C2356 1.392 . S
C2357 H2369 0.929 . S
C2358 C2354 1.531 . S
C2358 H2370 0.960 . S
C2358 H2371 0.962 . S
C2358 H2372 0.960 . S
C2359 C2356 1.511 . S
C2359 H2373 0.961 . S
C2359 H2374 0.961 . S
C2359 H2375 0.961 . S
C2360 C2361 1.370 . S
C2360 C2362 1.363 . S
C2360 H2376 0.931 . S
C2361 C2360 1.370 . S
C2361 C2365 1.408 . S
C2362 C2360 1.363 . S
C2362 C2363 1.370 . S
C2362 C2366 1.524 . S
C2363 C2355 1.503 . S
C2363 C2362 1.370 . S
C2363 C2364 1.403 . S
C2364 C2363 1.403 . S
C2364 C2365 1.404 . S
C2364 C2367 1.539 . S
C2365 C2361 1.408 . S
C2365 C2364 1.404 . S
C2365 H2377 0.930 . S
C2366 C2362 1.524 . S
C2366 H2378 0.956 . S
C2366 H2379 0.961 . S
C2366 H2380 0.961 . S
C2367 C2364 1.539 . S
C2367 H2381 0.958 . S
C2367 H2382 0.961 . S
C2367 H2383 0.960 . S
H2368 C2352 0.931 . S
H2369 C2357 0.929 . S
H2370 C2358 0.960 . S
H2371 C2358 0.962 . S
H2372 C2358 0.960 . S
H2373 C2359 0.961 . S
H2374 C2359 0.961 . S
H2375 C2359 0.961 . S
H2376 C2360 0.931 . S
H2377 C2365 0.930 . S
H2378 C2366 0.956 . S
H2379 C2366 0.961 . S
H2380 C2366 0.961 . S
H2381 C2367 0.958 . S
H2382 C2367 0.961 . S
H2383 C2367 0.960 . S
C2384 C2385 1.391 . S
C2384 C2386 1.394 . S
C2384 H2400 0.931 . S
C2385 C2384 1.391 . S
C2385 C2389 1.376 1_565 S
C2386 C2384 1.394 . S
C2386 C2387 1.369 . S
C2386 C2390 1.531 . S
C2387 C2386 1.369 . S
C2387 C2388 1.410 . S
C2387 C2395 1.503 . S
C2388 C2387 1.410 . S
C2388 C2389 1.392 1_565 S
C2388 C2391 1.511 1_565 S
C2389 C2385 1.376 1_545 S
C2389 C2388 1.392 1_545 S
C2389 H2401 0.929 . S
C2390 C2386 1.531 . S
C2390 H2402 0.960 . S
C2390 H2403 0.962 . S
C2390 H2404 0.960 . S
C2391 C2388 1.511 1_545 S
C2391 H2405 0.961 . S
C2391 H2406 0.961 1_545 S
C2391 H2407 0.961 . S
C2392 C2393 1.370 . S
C2392 C2394 1.363 . S
C2392 H2408 0.931 . S
C2393 C2392 1.370 . S
C2393 C2397 1.408 . S
C2394 C2392 1.363 . S
C2394 C2395 1.370 . S
C2394 C2398 1.524 . S
C2395 C2387 1.503 . S
C2395 C2394 1.370 . S
C2395 C2396 1.403 . S
C2396 C2395 1.403 . S
C2396 C2397 1.404 . S
C2396 C2399 1.539 . S
C2397 C2393 1.408 . S
C2397 C2396 1.404 . S
C2397 H2409 0.930 . S
C2398 C2394 1.524 . S
C2398 H2410 0.956 . S
C2398 H2411 0.961 . S
C2398 H2412 0.961 . S
C2399 C2396 1.539 . S
C2399 H2413 0.958 . S
C2399 H2414 0.961 . S
C2399 H2415 0.960 . S
H2400 C2384 0.931 . S
H2401 C2389 0.929 . S
H2402 C2390 0.960 . S
H2403 C2390 0.962 . S
H2404 C2390 0.960 . S
H2405 C2391 0.961 . S
H2406 C2391 0.961 1_565 S
H2407 C2391 0.961 . S
H2408 C2392 0.931 . S
H2409 C2397 0.930 . S
H2410 C2398 0.956 . S
H2411 C2398 0.961 . S
H2412 C2398 0.961 . S
H2413 C2399 0.958 . S
H2414 C2399 0.961 . S
H2415 C2399 0.960 . S
C2416 C2417 1.391 . S
C2416 C2418 1.394 . S
C2416 H2432 0.931 . S
C2417 C2416 1.391 . S
C2417 C2421 1.376 . S
C2418 C2416 1.394 . S
C2418 C2419 1.369 . S
C2418 C2422 1.531 . S
C2419 C2418 1.369 . S
C2419 C2420 1.410 . S
C2419 C2427 1.503 . S
C2420 C2419 1.410 . S
C2420 C2421 1.392 . S
C2420 C2423 1.511 . S
C2421 C2417 1.376 . S
C2421 C2420 1.392 . S
C2421 H2433 0.929 . S
C2422 C2418 1.531 . S
C2422 H2434 0.960 . S
C2422 H2435 0.962 . S
C2422 H2436 0.960 . S
C2423 C2420 1.511 . S
C2423 H2437 0.961 . S
C2423 H2438 0.961 . S
C2423 H2439 0.961 . S
C2424 C2425 1.370 . S
C2424 C2426 1.363 . S
C2424 H2440 0.931 . S
C2425 C2424 1.370 . S
C2425 C2429 1.408 . S
C2426 C2424 1.363 . S
C2426 C2427 1.370 . S
C2426 C2430 1.524 . S
C2427 C2419 1.503 . S
C2427 C2426 1.370 . S
C2427 C2428 1.403 . S
C2428 C2427 1.403 . S
C2428 C2429 1.404 . S
C2428 C2431 1.539 . S
C2429 C2425 1.408 . S
C2429 C2428 1.404 . S
C2429 H2441 0.930 . S
C2430 C2426 1.524 . S
C2430 H2442 0.956 . S
C2430 H2443 0.961 . S
C2430 H2444 0.961 . S
C2431 C2428 1.539 . S
C2431 H2445 0.958 . S
C2431 H2446 0.961 . S
C2431 H2447 0.960 . S
H2432 C2416 0.931 . S
H2433 C2421 0.929 . S
H2434 C2422 0.960 . S
H2435 C2422 0.962 . S
H2436 C2422 0.960 . S
H2437 C2423 0.961 . S
H2438 C2423 0.961 . S
H2439 C2423 0.961 . S
H2440 C2424 0.931 . S
H2441 C2429 0.930 . S
H2442 C2430 0.956 . S
H2443 C2430 0.961 . S
H2444 C2430 0.961 . S
H2445 C2431 0.958 . S
H2446 C2431 0.961 . S
H2447 C2431 0.960 . S
C2448 C2449 1.391 . S
C2448 C2450 1.394 . S
C2448 H2464 0.931 . S
C2449 C2448 1.391 . S
C2449 C2453 1.376 . S
C2450 C2448 1.394 . S
C2450 C2451 1.369 . S
C2450 C2454 1.531 . S
C2451 C2450 1.369 . S
C2451 C2452 1.410 . S
C2451 C2459 1.503 . S
C2452 C2451 1.410 . S
C2452 C2453 1.392 . S
C2452 C2455 1.511 . S
C2453 C2449 1.376 . S
C2453 C2452 1.392 . S
C2453 H2465 0.929 . S
C2454 C2450 1.531 . S
C2454 H2466 0.960 . S
C2454 H2467 0.962 . S
C2454 H2468 0.960 . S
C2455 C2452 1.511 . S
C2455 H2469 0.961 . S
C2455 H2470 0.961 . S
C2455 H2471 0.961 . S
C2456 C2457 1.370 . S
C2456 C2458 1.363 . S
C2456 H2472 0.931 . S
C2457 C2456 1.370 . S
C2457 C2461 1.408 . S
C2458 C2456 1.363 . S
C2458 C2459 1.370 . S
C2458 C2462 1.524 . S
C2459 C2451 1.503 . S
C2459 C2458 1.370 . S
C2459 C2460 1.403 . S
C2460 C2459 1.403 . S
C2460 C2461 1.404 . S
C2460 C2463 1.539 . S
C2461 C2457 1.408 . S
C2461 C2460 1.404 . S
C2461 H2473 0.930 . S
C2462 C2458 1.524 . S
C2462 H2474 0.956 . S
C2462 H2475 0.961 . S
C2462 H2476 0.961 . S
C2463 C2460 1.539 . S
C2463 H2477 0.958 . S
C2463 H2478 0.961 . S
C2463 H2479 0.960 . S
H2464 C2448 0.931 . S
H2465 C2453 0.929 . S
H2466 C2454 0.960 . S
H2467 C2454 0.962 . S
H2468 C2454 0.960 . S
H2469 C2455 0.961 . S
H2470 C2455 0.961 . S
H2471 C2455 0.961 . S
H2472 C2456 0.931 . S
H2473 C2461 0.930 . S
H2474 C2462 0.956 . S
H2475 C2462 0.961 . S
H2476 C2462 0.961 . S
H2477 C2463 0.958 . S
H2478 C2463 0.961 . S
H2479 C2463 0.960 . S
C2480 C2481 1.391 . S
C2480 C2482 1.394 . S
C2480 H2496 0.931 . S
C2481 C2480 1.391 . S
C2481 C2485 1.376 . S
C2482 C2480 1.394 . S
C2482 C2483 1.369 . S
C2482 C2486 1.531 . S
C2483 C2482 1.369 . S
C2483 C2484 1.410 . S
C2483 C2491 1.503 . S
C2484 C2483 1.410 . S
C2484 C2485 1.392 . S
C2484 C2487 1.511 . S
C2485 C2481 1.376 . S
C2485 C2484 1.392 . S
C2485 H2497 0.929 . S
C2486 C2482 1.531 . S
C2486 H2498 0.960 . S
C2486 H2499 0.962 . S
C2486 H2500 0.960 . S
C2487 C2484 1.511 . S
C2487 H2501 0.961 . S
C2487 H2502 0.961 . S
C2487 H2503 0.961 . S
C2488 C2489 1.370 . S
C2488 C2490 1.363 . S
C2488 H2504 0.931 . S
C2489 C2488 1.370 . S
C2489 C2493 1.408 . S
C2490 C2488 1.363 . S
C2490 C2491 1.370 . S
C2490 C2494 1.524 . S
C2491 C2483 1.503 . S
C2491 C2490 1.370 . S
C2491 C2492 1.403 . S
C2492 C2491 1.403 . S
C2492 C2493 1.404 . S
C2492 C2495 1.539 . S
C2493 C2489 1.408 . S
C2493 C2492 1.404 . S
C2493 H2505 0.930 . S
C2494 C2490 1.524 . S
C2494 H2506 0.956 . S
C2494 H2507 0.961 . S
C2494 H2508 0.961 . S
C2495 C2492 1.539 . S
C2495 H2509 0.958 . S
C2495 H2510 0.961 . S
C2495 H2511 0.960 . S
H2496 C2480 0.931 . S
H2497 C2485 0.929 . S
H2498 C2486 0.960 . S
H2499 C2486 0.962 . S
H2500 C2486 0.960 . S
H2501 C2487 0.961 . S
H2502 C2487 0.961 . S
H2503 C2487 0.961 . S
H2504 C2488 0.931 . S
H2505 C2493 0.930 . S
H2506 C2494 0.956 . S
H2507 C2494 0.961 . S
H2508 C2494 0.961 . S
H2509 C2495 0.958 . S
H2510 C2495 0.961 . S
H2511 C2495 0.960 . S
C2512 C2513 1.391 . S
C2512 C2514 1.394 . S
C2512 H2528 0.931 . S
C2513 C2512 1.391 . S
C2513 C2517 1.376 . S
C2514 C2512 1.394 . S
C2514 C2515 1.369 . S
C2514 C2518 1.531 . S
C2515 C2514 1.369 . S
C2515 C2516 1.410 . S
C2515 C2523 1.503 . S
C2516 C2515 1.410 . S
C2516 C2517 1.392 . S
C2516 C2519 1.511 . S
C2517 C2513 1.376 . S
C2517 C2516 1.392 . S
C2517 H2529 0.929 . S
C2518 C2514 1.531 . S
C2518 H2530 0.960 . S
C2518 H2531 0.962 . S
C2518 H2532 0.960 . S
C2519 C2516 1.511 . S
C2519 H2533 0.961 . S
C2519 H2534 0.961 . S
C2519 H2535 0.961 . S
C2520 C2521 1.370 . S
C2520 C2522 1.363 . S
C2520 H2536 0.931 . S
C2521 C2520 1.370 . S
C2521 C2525 1.408 . S
C2522 C2520 1.363 . S
C2522 C2523 1.370 . S
C2522 C2526 1.524 . S
C2523 C2515 1.503 . S
C2523 C2522 1.370 . S
C2523 C2524 1.403 . S
C2524 C2523 1.403 . S
C2524 C2525 1.404 . S
C2524 C2527 1.539 . S
C2525 C2521 1.408 . S
C2525 C2524 1.404 . S
C2525 H2537 0.930 . S
C2526 C2522 1.524 . S
C2526 H2538 0.956 . S
C2526 H2539 0.961 . S
C2526 H2540 0.961 . S
C2527 C2524 1.539 . S
C2527 H2541 0.958 . S
C2527 H2542 0.961 . S
C2527 H2543 0.960 . S
H2528 C2512 0.931 . S
H2529 C2517 0.929 . S
H2530 C2518 0.960 . S
H2531 C2518 0.962 . S
H2532 C2518 0.960 . S
H2533 C2519 0.961 . S
H2534 C2519 0.961 . S
H2535 C2519 0.961 . S
H2536 C2520 0.931 . S
H2537 C2525 0.930 . S
H2538 C2526 0.956 . S
H2539 C2526 0.961 . S
H2540 C2526 0.961 . S
H2541 C2527 0.958 . S
H2542 C2527 0.961 . S
H2543 C2527 0.960 . S
C2544 C2545 1.391 . S
C2544 C2546 1.394 . S
C2544 H2560 0.931 . S
C2545 C2544 1.391 . S
C2545 C2549 1.376 . S
C2546 C2544 1.394 . S
C2546 C2547 1.369 . S
C2546 C2550 1.531 . S
C2547 C2546 1.369 . S
C2547 C2548 1.410 . S
C2547 C2555 1.503 . S
C2548 C2547 1.410 . S
C2548 C2549 1.392 . S
C2548 C2551 1.511 . S
C2549 C2545 1.376 . S
C2549 C2548 1.392 . S
C2549 H2561 0.929 . S
C2550 C2546 1.531 . S
C2550 H2562 0.960 . S
C2550 H2563 0.962 . S
C2550 H2564 0.960 . S
C2551 C2548 1.511 . S
C2551 H2565 0.961 . S
C2551 H2566 0.961 . S
C2551 H2567 0.961 . S
C2552 C2553 1.370 . S
C2552 C2554 1.363 . S
C2552 H2568 0.931 . S
C2553 C2552 1.370 . S
C2553 C2557 1.408 . S
C2554 C2552 1.363 . S
C2554 C2555 1.370 . S
C2554 C2558 1.524 . S
C2555 C2547 1.503 . S
C2555 C2554 1.370 . S
C2555 C2556 1.403 . S
C2556 C2555 1.403 . S
C2556 C2557 1.404 . S
C2556 C2559 1.539 . S
C2557 C2553 1.408 . S
C2557 C2556 1.404 . S
C2557 H2569 0.930 . S
C2558 C2554 1.524 . S
C2558 H2570 0.956 . S
C2558 H2571 0.961 . S
C2558 H2572 0.961 . S
C2559 C2556 1.539 . S
C2559 H2573 0.958 . S
C2559 H2574 0.961 . S
C2559 H2575 0.960 . S
H2560 C2544 0.931 . S
H2561 C2549 0.929 . S
H2562 C2550 0.960 . S
H2563 C2550 0.962 . S
H2564 C2550 0.960 . S
H2565 C2551 0.961 . S
H2566 C2551 0.961 . S
H2567 C2551 0.961 . S
H2568 C2552 0.931 . S
H2569 C2557 0.930 . S
H2570 C2558 0.956 . S
H2571 C2558 0.961 . S
H2572 C2558 0.961 . S
H2573 C2559 0.958 . S
H2574 C2559 0.961 . S
H2575 C2559 0.960 . S
C2576 C2577 1.391 . S
C2576 C2578 1.394 . S
C2576 H2592 0.931 . S
C2577 C2576 1.391 . S
C2577 C2581 1.376 . S
C2578 C2576 1.394 . S
C2578 C2579 1.369 . S
C2578 C2582 1.531 . S
C2579 C2578 1.369 . S
C2579 C2580 1.410 . S
C2579 C2587 1.503 . S
C2580 C2579 1.410 . S
C2580 C2581 1.392 . S
C2580 C2583 1.511 . S
C2581 C2577 1.376 . S
C2581 C2580 1.392 . S
C2581 H2593 0.929 . S
C2582 C2578 1.531 . S
C2582 H2594 0.960 . S
C2582 H2595 0.962 1_556 S
C2582 H2596 0.960 . S
C2583 C2580 1.511 . S
C2583 H2597 0.961 1_455 S
C2583 H2598 0.961 . S
C2583 H2599 0.961 . S
C2584 C2585 1.370 . S
C2584 C2586 1.363 . S
C2584 H2600 0.931 . S
C2585 C2584 1.370 . S
C2585 C2589 1.408 . S
C2586 C2584 1.363 . S
C2586 C2587 1.370 1_554 S
C2586 C2590 1.524 . S
C2587 C2579 1.503 . S
C2587 C2586 1.370 1_556 S
C2587 C2588 1.403 . S
C2588 C2587 1.403 . S
C2588 C2589 1.404 1_556 S
C2588 C2591 1.539 . S
C2589 C2585 1.408 . S
C2589 C2588 1.404 1_554 S
C2589 H2601 0.930 1_554 S
C2590 C2586 1.524 . S
C2590 H2602 0.956 . S
C2590 H2603 0.961 . S
C2590 H2604 0.961 . S
C2591 C2588 1.539 . S
C2591 H2605 0.958 . S
C2591 H2606 0.961 . S
C2591 H2607 0.960 . S
H2592 C2576 0.931 . S
H2593 C2581 0.929 . S
H2594 C2582 0.960 . S
H2595 C2582 0.962 1_554 S
H2596 C2582 0.960 . S
H2597 C2583 0.961 1_655 S
H2598 C2583 0.961 . S
H2599 C2583 0.961 . S
H2600 C2584 0.931 . S
H2601 C2589 0.930 1_556 S
H2602 C2590 0.956 . S
H2603 C2590 0.961 . S
H2604 C2590 0.961 . S
H2605 C2591 0.958 . S
H2606 C2591 0.961 . S
H2607 C2591 0.960 . S
C2608 C2609 1.391 . S
C2608 C2610 1.394 1_455 S
C2608 H2624 0.931 . S
C2609 C2608 1.391 . S
C2609 C2613 1.376 . S
C2610 C2608 1.394 1_655 S
C2610 C2611 1.369 . S
C2610 C2614 1.531 . S
C2611 C2610 1.369 . S
C2611 C2612 1.410 . S
C2611 C2619 1.503 . S
C2612 C2611 1.410 . S
C2612 C2613 1.392 1_655 S
C2612 C2615 1.511 . S
C2613 C2609 1.376 . S
C2613 C2612 1.392 1_455 S
C2613 H2625 0.929 . S
C2614 C2610 1.531 . S
C2614 H2626 0.960 . S
C2614 H2627 0.962 . S
C2614 H2628 0.960 1_655 S
C2615 C2612 1.511 . S
C2615 H2629 0.961 . S
C2615 H2630 0.961 . S
C2615 H2631 0.961 . S
C2616 C2617 1.370 . S
C2616 C2618 1.363 . S
C2616 H2632 0.931 . S
C2617 C2616 1.370 . S
C2617 C2621 1.408 . S
C2618 C2616 1.363 . S
C2618 C2619 1.370 . S
C2618 C2622 1.524 . S
C2619 C2611 1.503 . S
C2619 C2618 1.370 . S
C2619 C2620 1.403 . S
C2620 C2619 1.403 . S
C2620 C2621 1.404 . S
C2620 C2623 1.539 . S
C2621 C2617 1.408 . S
C2621 C2620 1.404 . S
C2621 H2633 0.930 . S
C2622 C2618 1.524 . S
C2622 H2634 0.956 . S
C2622 H2635 0.961 . S
C2622 H2636 0.961 . S
C2623 C2620 1.539 . S
C2623 H2637 0.958 . S
C2623 H2638 0.961 . S
C2623 H2639 0.960 . S
H2624 C2608 0.931 . S
H2625 C2613 0.929 . S
H2626 C2614 0.960 . S
H2627 C2614 0.962 . S
H2628 C2614 0.960 1_455 S
H2629 C2615 0.961 . S
H2630 C2615 0.961 . S
H2631 C2615 0.961 . S
H2632 C2616 0.931 . S
H2633 C2621 0.930 . S
H2634 C2622 0.956 . S
H2635 C2622 0.961 . S
H2636 C2622 0.961 . S
H2637 C2623 0.958 . S
H2638 C2623 0.961 . S
H2639 C2623 0.960 . S
C2640 C2641 1.391 . S
C2640 C2642 1.394 . S
C2640 H2656 0.931 . S
C2641 C2640 1.391 . S
C2641 C2645 1.376 . S
C2642 C2640 1.394 . S
C2642 C2643 1.369 . S
C2642 C2646 1.531 . S
C2643 C2642 1.369 . S
C2643 C2644 1.410 . S
C2643 C2651 1.503 . S
C2644 C2643 1.410 . S
C2644 C2645 1.392 . S
C2644 C2647 1.511 . S
C2645 C2641 1.376 . S
C2645 C2644 1.392 . S
C2645 H2657 0.929 . S
C2646 C2642 1.531 . S
C2646 H2658 0.960 . S
C2646 H2659 0.962 . S
C2646 H2660 0.960 . S
C2647 C2644 1.511 . S
C2647 H2661 0.961 . S
C2647 H2662 0.961 . S
C2647 H2663 0.961 . S
C2648 C2649 1.370 . S
C2648 C2650 1.363 . S
C2648 H2664 0.931 . S
C2649 C2648 1.370 . S
C2649 C2653 1.408 . S
C2650 C2648 1.363 . S
C2650 C2651 1.370 . S
C2650 C2654 1.524 . S
C2651 C2643 1.503 . S
C2651 C2650 1.370 . S
C2651 C2652 1.403 . S
C2652 C2651 1.403 . S
C2652 C2653 1.404 . S
C2652 C2655 1.539 . S
C2653 C2649 1.408 . S
C2653 C2652 1.404 . S
C2653 H2665 0.930 . S
C2654 C2650 1.524 . S
C2654 H2666 0.956 . S
C2654 H2667 0.961 . S
C2654 H2668 0.961 . S
C2655 C2652 1.539 . S
C2655 H2669 0.958 . S
C2655 H2670 0.961 . S
C2655 H2671 0.960 . S
H2656 C2640 0.931 . S
H2657 C2645 0.929 . S
H2658 C2646 0.960 . S
H2659 C2646 0.962 . S
H2660 C2646 0.960 . S
H2661 C2647 0.961 . S
H2662 C2647 0.961 . S
H2663 C2647 0.961 . S
H2664 C2648 0.931 . S
H2665 C2653 0.930 . S
H2666 C2654 0.956 . S
H2667 C2654 0.961 . S
H2668 C2654 0.961 . S
H2669 C2655 0.958 . S
H2670 C2655 0.961 . S
H2671 C2655 0.960 . S
C2672 C2673 1.391 . S
C2672 C2674 1.394 . S
C2672 H2688 0.931 . S
C2673 C2672 1.391 . S
C2673 C2677 1.376 . S
C2674 C2672 1.394 . S
C2674 C2675 1.369 . S
C2674 C2678 1.531 . S
C2675 C2674 1.369 . S
C2675 C2676 1.410 . S
C2675 C2683 1.503 1_455 S
C2676 C2675 1.410 . S
C2676 C2677 1.392 . S
C2676 C2679 1.511 1_455 S
C2677 C2673 1.376 . S
C2677 C2676 1.392 . S
C2677 H2689 0.929 . S
C2678 C2674 1.531 . S
C2678 H2690 0.960 . S
C2678 H2691 0.962 . S
C2678 H2692 0.960 . S
C2679 C2676 1.511 1_655 S
C2679 H2693 0.961 . S
C2679 H2694 0.961 . S
C2679 H2695 0.961 . S
C2680 C2681 1.370 . S
C2680 C2682 1.363 . S
C2680 H2696 0.931 . S
C2681 C2680 1.370 . S
C2681 C2685 1.408 . S
C2682 C2680 1.363 . S
C2682 C2683 1.370 . S
C2682 C2686 1.524 1_655 S
C2683 C2675 1.503 1_655 S
C2683 C2682 1.370 . S
C2683 C2684 1.403 . S
C2684 C2683 1.403 . S
C2684 C2685 1.404 . S
C2684 C2687 1.539 . S
C2685 C2681 1.408 . S
C2685 C2684 1.404 . S
C2685 H2697 0.930 . S
C2686 C2682 1.524 1_455 S
C2686 H2698 0.956 . S
C2686 H2699 0.961 . S
C2686 H2700 0.961 . S
C2687 C2684 1.539 . S
C2687 H2701 0.958 . S
C2687 H2702 0.961 . S
C2687 H2703 0.960 . S
H2688 C2672 0.931 . S
H2689 C2677 0.929 . S
H2690 C2678 0.960 . S
H2691 C2678 0.962 . S
H2692 C2678 0.960 . S
H2693 C2679 0.961 . S
H2694 C2679 0.961 . S
H2695 C2679 0.961 . S
H2696 C2680 0.931 . S
H2697 C2685 0.930 . S
H2698 C2686 0.956 . S
H2699 C2686 0.961 . S
H2700 C2686 0.961 . S
H2701 C2687 0.958 . S
H2702 C2687 0.961 . S
H2703 C2687 0.960 . S
C2704 C2705 1.391 . S
C2704 C2706 1.394 . S
C2704 H2720 0.931 . S
C2705 C2704 1.391 . S
C2705 C2709 1.376 1_655 S
C2706 C2704 1.394 . S
C2706 C2707 1.369 1_655 S
C2706 C2710 1.531 . S
C2707 C2706 1.369 1_455 S
C2707 C2708 1.410 . S
C2707 C2715 1.503 . S
C2708 C2707 1.410 . S
C2708 C2709 1.392 . S
C2708 C2711 1.511 . S
C2709 C2705 1.376 1_455 S
C2709 C2708 1.392 . S
C2709 H2721 0.929 . S
C2710 C2706 1.531 . S
C2710 H2722 0.960 . S
C2710 H2723 0.962 . S
C2710 H2724 0.960 . S
C2711 C2708 1.511 . S
C2711 H2725 0.961 . S
C2711 H2726 0.961 . S
C2711 H2727 0.961 . S
C2712 C2713 1.370 . S
C2712 C2714 1.363 . S
C2712 H2728 0.931 . S
C2713 C2712 1.370 . S
C2713 C2717 1.408 . S
C2714 C2712 1.363 . S
C2714 C2715 1.370 . S
C2714 C2718 1.524 . S
C2715 C2707 1.503 . S
C2715 C2714 1.370 . S
C2715 C2716 1.403 . S
C2716 C2715 1.403 . S
C2716 C2717 1.404 . S
C2716 C2719 1.539 . S
C2717 C2713 1.408 . S
C2717 C2716 1.404 . S
C2717 H2729 0.930 . S
C2718 C2714 1.524 . S
C2718 H2730 0.956 1_455 S
C2718 H2731 0.961 . S
C2718 H2732 0.961 . S
C2719 C2716 1.539 . S
C2719 H2733 0.958 . S
C2719 H2734 0.961 . S
C2719 H2735 0.960 . S
H2720 C2704 0.931 . S
H2721 C2709 0.929 . S
H2722 C2710 0.960 . S
H2723 C2710 0.962 . S
H2724 C2710 0.960 . S
H2725 C2711 0.961 . S
H2726 C2711 0.961 . S
H2727 C2711 0.961 . S
H2728 C2712 0.931 . S
H2729 C2717 0.930 . S
H2730 C2718 0.956 1_655 S
H2731 C2718 0.961 . S
H2732 C2718 0.961 . S
H2733 C2719 0.958 . S
H2734 C2719 0.961 . S
H2735 C2719 0.960 . S
C2736 C2737 1.391 . S
C2736 C2738 1.394 . S
C2736 H2752 0.931 . S
C2737 C2736 1.391 . S
C2737 C2741 1.376 . S
C2738 C2736 1.394 . S
C2738 C2739 1.369 . S
C2738 C2742 1.531 . S
C2739 C2738 1.369 . S
C2739 C2740 1.410 . S
C2739 C2747 1.503 . S
C2740 C2739 1.410 . S
C2740 C2741 1.392 . S
C2740 C2743 1.511 . S
C2741 C2737 1.376 . S
C2741 C2740 1.392 . S
C2741 H2753 0.929 . S
C2742 C2738 1.531 . S
C2742 H2754 0.960 . S
C2742 H2755 0.962 . S
C2742 H2756 0.960 . S
C2743 C2740 1.511 . S
C2743 H2757 0.961 . S
C2743 H2758 0.961 . S
C2743 H2759 0.961 . S
C2744 C2745 1.370 . S
C2744 C2746 1.363 . S
C2744 H2760 0.931 . S
C2745 C2744 1.370 . S
C2745 C2749 1.408 . S
C2746 C2744 1.363 . S
C2746 C2747 1.370 . S
C2746 C2750 1.524 . S
C2747 C2739 1.503 . S
C2747 C2746 1.370 . S
C2747 C2748 1.403 . S
C2748 C2747 1.403 . S
C2748 C2749 1.404 . S
C2748 C2751 1.539 . S
C2749 C2745 1.408 . S
C2749 C2748 1.404 . S
C2749 H2761 0.930 . S
C2750 C2746 1.524 . S
C2750 H2762 0.956 . S
C2750 H2763 0.961 . S
C2750 H2764 0.961 . S
C2751 C2748 1.539 . S
C2751 H2765 0.958 . S
C2751 H2766 0.961 . S
C2751 H2767 0.960 . S
H2752 C2736 0.931 . S
H2753 C2741 0.929 . S
H2754 C2742 0.960 . S
H2755 C2742 0.962 . S
H2756 C2742 0.960 . S
H2757 C2743 0.961 . S
H2758 C2743 0.961 . S
H2759 C2743 0.961 . S
H2760 C2744 0.931 . S
H2761 C2749 0.930 . S
H2762 C2750 0.956 . S
H2763 C2750 0.961 . S
H2764 C2750 0.961 . S
H2765 C2751 0.958 . S
H2766 C2751 0.961 . S
H2767 C2751 0.960 . S
C2768 C2769 1.391 . S
C2768 C2770 1.394 . S
C2768 H2784 0.931 . S
C2769 C2768 1.391 . S
C2769 C2773 1.376 . S
C2770 C2768 1.394 . S
C2770 C2771 1.369 . S
C2770 C2774 1.531 . S
C2771 C2770 1.369 . S
C2771 C2772 1.410 . S
C2771 C2779 1.503 . S
C2772 C2771 1.410 . S
C2772 C2773 1.392 . S
C2772 C2775 1.511 . S
C2773 C2769 1.376 . S
C2773 C2772 1.392 . S
C2773 H2785 0.929 . S
C2774 C2770 1.531 . S
C2774 H2786 0.960 . S
C2774 H2787 0.962 . S
C2774 H2788 0.960 . S
C2775 C2772 1.511 . S
C2775 H2789 0.961 . S
C2775 H2790 0.961 . S
C2775 H2791 0.961 . S
C2776 C2777 1.370 . S
C2776 C2778 1.363 . S
C2776 H2792 0.931 . S
C2777 C2776 1.370 . S
C2777 C2781 1.408 . S
C2778 C2776 1.363 . S
C2778 C2779 1.370 . S
C2778 C2782 1.524 . S
C2779 C2771 1.503 . S
C2779 C2778 1.370 . S
C2779 C2780 1.403 . S
C2780 C2779 1.403 . S
C2780 C2781 1.404 . S
C2780 C2783 1.539 . S
C2781 C2777 1.408 . S
C2781 C2780 1.404 . S
C2781 H2793 0.930 . S
C2782 C2778 1.524 . S
C2782 H2794 0.956 . S
C2782 H2795 0.961 . S
C2782 H2796 0.961 . S
C2783 C2780 1.539 . S
C2783 H2797 0.958 . S
C2783 H2798 0.961 . S
C2783 H2799 0.960 . S
H2784 C2768 0.931 . S
H2785 C2773 0.929 . S
H2786 C2774 0.960 . S
H2787 C2774 0.962 . S
H2788 C2774 0.960 . S
H2789 C2775 0.961 . S
H2790 C2775 0.961 . S
H2791 C2775 0.961 . S
H2792 C2776 0.931 . S
H2793 C2781 0.930 . S
H2794 C2782 0.956 . S
H2795 C2782 0.961 . S
H2796 C2782 0.961 . S
H2797 C2783 0.958 . S
H2798 C2783 0.961 . S
H2799 C2783 0.960 . S
C2800 C2801 1.391 . S
C2800 C2802 1.394 . S
C2800 H2816 0.931 . S
C2801 C2800 1.391 . S
C2801 C2805 1.376 . S
C2802 C2800 1.394 . S
C2802 C2803 1.369 . S
C2802 C2806 1.531 . S
C2803 C2802 1.369 . S
C2803 C2804 1.410 . S
C2803 C2811 1.503 . S
C2804 C2803 1.410 . S
C2804 C2805 1.392 . S
C2804 C2807 1.511 . S
C2805 C2801 1.376 . S
C2805 C2804 1.392 . S
C2805 H2817 0.929 . S
C2806 C2802 1.531 . S
C2806 H2818 0.960 . S
C2806 H2819 0.962 . S
C2806 H2820 0.960 . S
C2807 C2804 1.511 . S
C2807 H2821 0.961 . S
C2807 H2822 0.961 . S
C2807 H2823 0.961 . S
C2808 C2809 1.370 . S
C2808 C2810 1.363 . S
C2808 H2824 0.931 . S
C2809 C2808 1.370 . S
C2809 C2813 1.408 . S
C2810 C2808 1.363 . S
C2810 C2811 1.370 . S
C2810 C2814 1.524 . S
C2811 C2803 1.503 . S
C2811 C2810 1.370 . S
C2811 C2812 1.403 . S
C2812 C2811 1.403 . S
C2812 C2813 1.404 . S
C2812 C2815 1.539 . S
C2813 C2809 1.408 . S
C2813 C2812 1.404 . S
C2813 H2825 0.930 . S
C2814 C2810 1.524 . S
C2814 H2826 0.956 . S
C2814 H2827 0.961 . S
C2814 H2828 0.961 . S
C2815 C2812 1.539 . S
C2815 H2829 0.958 . S
C2815 H2830 0.961 . S
C2815 H2831 0.960 . S
H2816 C2800 0.931 . S
H2817 C2805 0.929 . S
H2818 C2806 0.960 . S
H2819 C2806 0.962 . S
H2820 C2806 0.960 . S
H2821 C2807 0.961 . S
H2822 C2807 0.961 . S
H2823 C2807 0.961 . S
H2824 C2808 0.931 . S
H2825 C2813 0.930 . S
H2826 C2814 0.956 . S
H2827 C2814 0.961 . S
H2828 C2814 0.961 . S
H2829 C2815 0.958 . S
H2830 C2815 0.961 . S
H2831 C2815 0.960 . S
C2832 C2833 1.391 . S
C2832 C2834 1.394 . S
C2832 H2848 0.931 . S
C2833 C2832 1.391 . S
C2833 C2837 1.376 . S
C2834 C2832 1.394 . S
C2834 C2835 1.369 . S
C2834 C2838 1.531 . S
C2835 C2834 1.369 . S
C2835 C2836 1.410 . S
C2835 C2843 1.503 . S
C2836 C2835 1.410 . S
C2836 C2837 1.392 . S
C2836 C2839 1.511 . S
C2837 C2833 1.376 . S
C2837 C2836 1.392 . S
C2837 H2849 0.929 . S
C2838 C2834 1.531 . S
C2838 H2850 0.960 . S
C2838 H2851 0.962 . S
C2838 H2852 0.960 . S
C2839 C2836 1.511 . S
C2839 H2853 0.961 . S
C2839 H2854 0.961 . S
C2839 H2855 0.961 . S
C2840 C2841 1.370 . S
C2840 C2842 1.363 . S
C2840 H2856 0.931 . S
C2841 C2840 1.370 . S
C2841 C2845 1.408 . S
C2842 C2840 1.363 . S
C2842 C2843 1.370 . S
C2842 C2846 1.524 . S
C2843 C2835 1.503 . S
C2843 C2842 1.370 . S
C2843 C2844 1.403 . S
C2844 C2843 1.403 . S
C2844 C2845 1.404 . S
C2844 C2847 1.539 . S
C2845 C2841 1.408 . S
C2845 C2844 1.404 . S
C2845 H2857 0.930 . S
C2846 C2842 1.524 . S
C2846 H2858 0.956 . S
C2846 H2859 0.961 . S
C2846 H2860 0.961 . S
C2847 C2844 1.539 . S
C2847 H2861 0.958 . S
C2847 H2862 0.961 . S
C2847 H2863 0.960 . S
H2848 C2832 0.931 . S
H2849 C2837 0.929 . S
H2850 C2838 0.960 . S
H2851 C2838 0.962 . S
H2852 C2838 0.960 . S
H2853 C2839 0.961 . S
H2854 C2839 0.961 . S
H2855 C2839 0.961 . S
H2856 C2840 0.931 . S
H2857 C2845 0.930 . S
H2858 C2846 0.956 . S
H2859 C2846 0.961 . S
H2860 C2846 0.961 . S
H2861 C2847 0.958 . S
H2862 C2847 0.961 . S
H2863 C2847 0.960 . S
C2864 C2865 1.391 . S
C2864 C2866 1.394 . S
C2864 H2880 0.931 . S
C2865 C2864 1.391 . S
C2865 C2869 1.376 . S
C2866 C2864 1.394 . S
C2866 C2867 1.369 . S
C2866 C2870 1.531 . S
C2867 C2866 1.369 . S
C2867 C2868 1.410 . S
C2867 C2875 1.503 . S
C2868 C2867 1.410 . S
C2868 C2869 1.392 . S
C2868 C2871 1.511 . S
C2869 C2865 1.376 . S
C2869 C2868 1.392 . S
C2869 H2881 0.929 . S
C2870 C2866 1.531 . S
C2870 H2882 0.960 . S
C2870 H2883 0.962 . S
C2870 H2884 0.960 . S
C2871 C2868 1.511 . S
C2871 H2885 0.961 . S
C2871 H2886 0.961 . S
C2871 H2887 0.961 . S
C2872 C2873 1.370 . S
C2872 C2874 1.363 . S
C2872 H2888 0.931 . S
C2873 C2872 1.370 . S
C2873 C2877 1.408 . S
C2874 C2872 1.363 . S
C2874 C2875 1.370 . S
C2874 C2878 1.524 . S
C2875 C2867 1.503 . S
C2875 C2874 1.370 . S
C2875 C2876 1.403 . S
C2876 C2875 1.403 . S
C2876 C2877 1.404 . S
C2876 C2879 1.539 . S
C2877 C2873 1.408 . S
C2877 C2876 1.404 . S
C2877 H2889 0.930 . S
C2878 C2874 1.524 . S
C2878 H2890 0.956 . S
C2878 H2891 0.961 . S
C2878 H2892 0.961 . S
C2879 C2876 1.539 . S
C2879 H2893 0.958 . S
C2879 H2894 0.961 . S
C2879 H2895 0.960 . S
H2880 C2864 0.931 . S
H2881 C2869 0.929 . S
H2882 C2870 0.960 . S
H2883 C2870 0.962 . S
H2884 C2870 0.960 . S
H2885 C2871 0.961 . S
H2886 C2871 0.961 . S
H2887 C2871 0.961 . S
H2888 C2872 0.931 . S
H2889 C2877 0.930 . S
H2890 C2878 0.956 . S
H2891 C2878 0.961 . S
H2892 C2878 0.961 . S
H2893 C2879 0.958 . S
H2894 C2879 0.961 . S
H2895 C2879 0.960 . S
C2896 C2897 1.391 . S
C2896 C2898 1.394 . S
C2896 H2912 0.931 . S
C2897 C2896 1.391 . S
C2897 C2901 1.376 . S
C2898 C2896 1.394 . S
C2898 C2899 1.369 . S
C2898 C2902 1.531 . S
C2899 C2898 1.369 . S
C2899 C2900 1.410 . S
C2899 C2907 1.503 . S
C2900 C2899 1.410 . S
C2900 C2901 1.392 . S
C2900 C2903 1.511 . S
C2901 C2897 1.376 . S
C2901 C2900 1.392 . S
C2901 H2913 0.929 . S
C2902 C2898 1.531 . S
C2902 H2914 0.960 . S
C2902 H2915 0.962 . S
C2902 H2916 0.960 . S
C2903 C2900 1.511 . S
C2903 H2917 0.961 . S
C2903 H2918 0.961 . S
C2903 H2919 0.961 . S
C2904 C2905 1.370 . S
C2904 C2906 1.363 . S
C2904 H2920 0.931 . S
C2905 C2904 1.370 . S
C2905 C2909 1.408 . S
C2906 C2904 1.363 . S
C2906 C2907 1.370 . S
C2906 C2910 1.524 . S
C2907 C2899 1.503 . S
C2907 C2906 1.370 . S
C2907 C2908 1.403 . S
C2908 C2907 1.403 . S
C2908 C2909 1.404 . S
C2908 C2911 1.539 . S
C2909 C2905 1.408 . S
C2909 C2908 1.404 . S
C2909 H2921 0.930 . S
C2910 C2906 1.524 . S
C2910 H2922 0.956 . S
C2910 H2923 0.961 . S
C2910 H2924 0.961 . S
C2911 C2908 1.539 . S
C2911 H2925 0.958 . S
C2911 H2926 0.961 . S
C2911 H2927 0.960 . S
H2912 C2896 0.931 . S
H2913 C2901 0.929 . S
H2914 C2902 0.960 . S
H2915 C2902 0.962 . S
H2916 C2902 0.960 . S
H2917 C2903 0.961 . S
H2918 C2903 0.961 . S
H2919 C2903 0.961 . S
H2920 C2904 0.931 . S
H2921 C2909 0.930 . S
H2922 C2910 0.956 . S
H2923 C2910 0.961 . S
H2924 C2910 0.961 . S
H2925 C2911 0.958 . S
H2926 C2911 0.961 . S
H2927 C2911 0.960 . S
C2928 C2929 1.391 . S
C2928 C2930 1.394 . S
C2928 H2944 0.931 . S
C2929 C2928 1.391 . S
C2929 C2933 1.376 . S
C2930 C2928 1.394 . S
C2930 C2931 1.369 . S
C2930 C2934 1.531 . S
C2931 C2930 1.369 . S
C2931 C2932 1.410 . S
C2931 C2939 1.503 . S
C2932 C2931 1.410 . S
C2932 C2933 1.392 . S
C2932 C2935 1.511 . S
C2933 C2929 1.376 . S
C2933 C2932 1.392 . S
C2933 H2945 0.929 . S
C2934 C2930 1.531 . S
C2934 H2946 0.960 . S
C2934 H2947 0.962 . S
C2934 H2948 0.960 . S
C2935 C2932 1.511 . S
C2935 H2949 0.961 . S
C2935 H2950 0.961 . S
C2935 H2951 0.961 . S
C2936 C2937 1.370 . S
C2936 C2938 1.363 . S
C2936 H2952 0.931 . S
C2937 C2936 1.370 . S
C2937 C2941 1.408 . S
C2938 C2936 1.363 . S
C2938 C2939 1.370 . S
C2938 C2942 1.524 . S
C2939 C2931 1.503 . S
C2939 C2938 1.370 . S
C2939 C2940 1.403 . S
C2940 C2939 1.403 . S
C2940 C2941 1.404 . S
C2940 C2943 1.539 . S
C2941 C2937 1.408 . S
C2941 C2940 1.404 . S
C2941 H2953 0.930 . S
C2942 C2938 1.524 . S
C2942 H2954 0.956 . S
C2942 H2955 0.961 . S
C2942 H2956 0.961 . S
C2943 C2940 1.539 . S
C2943 H2957 0.958 . S
C2943 H2958 0.961 . S
C2943 H2959 0.960 . S
H2944 C2928 0.931 . S
H2945 C2933 0.929 . S
H2946 C2934 0.960 . S
H2947 C2934 0.962 . S
H2948 C2934 0.960 . S
H2949 C2935 0.961 . S
H2950 C2935 0.961 . S
H2951 C2935 0.961 . S
H2952 C2936 0.931 . S
H2953 C2941 0.930 . S
H2954 C2942 0.956 . S
H2955 C2942 0.961 . S
H2956 C2942 0.961 . S
H2957 C2943 0.958 . S
H2958 C2943 0.961 . S
H2959 C2943 0.960 . S
C2960 C2961 1.391 . S
C2960 C2962 1.394 . S
C2960 H2976 0.931 . S
C2961 C2960 1.391 . S
C2961 C2965 1.376 . S
C2962 C2960 1.394 . S
C2962 C2963 1.369 . S
C2962 C2966 1.531 . S
C2963 C2962 1.369 . S
C2963 C2964 1.410 . S
C2963 C2971 1.503 . S
C2964 C2963 1.410 . S
C2964 C2965 1.392 . S
C2964 C2967 1.511 . S
C2965 C2961 1.376 . S
C2965 C2964 1.392 . S
C2965 H2977 0.929 . S
C2966 C2962 1.531 . S
C2966 H2978 0.960 . S
C2966 H2979 0.962 . S
C2966 H2980 0.960 . S
C2967 C2964 1.511 . S
C2967 H2981 0.961 . S
C2967 H2982 0.961 . S
C2967 H2983 0.961 . S
C2968 C2969 1.370 . S
C2968 C2970 1.363 . S
C2968 H2984 0.931 . S
C2969 C2968 1.370 . S
C2969 C2973 1.408 . S
C2970 C2968 1.363 . S
C2970 C2971 1.370 . S
C2970 C2974 1.524 . S
C2971 C2963 1.503 . S
C2971 C2970 1.370 . S
C2971 C2972 1.403 . S
C2972 C2971 1.403 . S
C2972 C2973 1.404 . S
C2972 C2975 1.539 . S
C2973 C2969 1.408 . S
C2973 C2972 1.404 . S
C2973 H2985 0.930 . S
C2974 C2970 1.524 . S
C2974 H2986 0.956 . S
C2974 H2987 0.961 . S
C2974 H2988 0.961 . S
C2975 C2972 1.539 . S
C2975 H2989 0.958 . S
C2975 H2990 0.961 . S
C2975 H2991 0.960 . S
H2976 C2960 0.931 . S
H2977 C2965 0.929 . S
H2978 C2966 0.960 . S
H2979 C2966 0.962 . S
H2980 C2966 0.960 . S
H2981 C2967 0.961 . S
H2982 C2967 0.961 . S
H2983 C2967 0.961 . S
H2984 C2968 0.931 . S
H2985 C2973 0.930 . S
H2986 C2974 0.956 . S
H2987 C2974 0.961 . S
H2988 C2974 0.961 . S
H2989 C2975 0.958 . S
H2990 C2975 0.961 . S
H2991 C2975 0.960 . S
C2992 C2993 1.391 . S
C2992 C2994 1.394 . S
C2992 H3008 0.931 . S
C2993 C2992 1.391 . S
C2993 C2997 1.376 . S
C2994 C2992 1.394 . S
C2994 C2995 1.369 . S
C2994 C2998 1.531 . S
C2995 C2994 1.369 . S
C2995 C2996 1.410 . S
C2995 C3003 1.503 . S
C2996 C2995 1.410 . S
C2996 C2997 1.392 . S
C2996 C2999 1.511 . S
C2997 C2993 1.376 . S
C2997 C2996 1.392 . S
C2997 H3009 0.929 . S
C2998 C2994 1.531 . S
C2998 H3010 0.960 . S
C2998 H3011 0.962 . S
C2998 H3012 0.960 . S
C2999 C2996 1.511 . S
C2999 H3013 0.961 . S
C2999 H3014 0.961 . S
C2999 H3015 0.961 . S
C3000 C3001 1.370 . S
C3000 C3002 1.363 . S
C3000 H3016 0.931 . S
C3001 C3000 1.370 . S
C3001 C3005 1.408 . S
C3002 C3000 1.363 . S
C3002 C3003 1.370 . S
C3002 C3006 1.524 . S
C3003 C2995 1.503 . S
C3003 C3002 1.370 . S
C3003 C3004 1.403 . S
C3004 C3003 1.403 . S
C3004 C3005 1.404 . S
C3004 C3007 1.539 . S
C3005 C3001 1.408 . S
C3005 C3004 1.404 . S
C3005 H3017 0.930 . S
C3006 C3002 1.524 . S
C3006 H3018 0.956 . S
C3006 H3019 0.961 . S
C3006 H3020 0.961 . S
C3007 C3004 1.539 . S
C3007 H3021 0.958 . S
C3007 H3022 0.961 . S
C3007 H3023 0.960 . S
H3008 C2992 0.931 . S
H3009 C2997 0.929 . S
H3010 C2998 0.960 . S
H3011 C2998 0.962 . S
H3012 C2998 0.960 . S
H3013 C2999 0.961 . S
H3014 C2999 0.961 . S
H3015 C2999 0.961 . S
H3016 C3000 0.931 . S
H3017 C3005 0.930 . S
H3018 C3006 0.956 . S
H3019 C3006 0.961 . S
H3020 C3006 0.961 . S
H3021 C3007 0.958 . S
H3022 C3007 0.961 . S
H3023 C3007 0.960 . S
C3024 C3025 1.391 . S
C3024 C3026 1.394 . S
C3024 H3040 0.931 . S
C3025 C3024 1.391 . S
C3025 C3029 1.376 . S
C3026 C3024 1.394 . S
C3026 C3027 1.369 . S
C3026 C3030 1.531 . S
C3027 C3026 1.369 . S
C3027 C3028 1.410 . S
C3027 C3035 1.503 . S
C3028 C3027 1.410 . S
C3028 C3029 1.392 . S
C3028 C3031 1.511 . S
C3029 C3025 1.376 . S
C3029 C3028 1.392 . S
C3029 H3041 0.929 . S
C3030 C3026 1.531 . S
C3030 H3042 0.960 . S
C3030 H3043 0.962 . S
C3030 H3044 0.960 . S
C3031 C3028 1.511 . S
C3031 H3045 0.961 . S
C3031 H3046 0.961 . S
C3031 H3047 0.961 . S
C3032 C3033 1.370 . S
C3032 C3034 1.363 . S
C3032 H3048 0.931 . S
C3033 C3032 1.370 . S
C3033 C3037 1.408 . S
C3034 C3032 1.363 . S
C3034 C3035 1.370 . S
C3034 C3038 1.524 . S
C3035 C3027 1.503 . S
C3035 C3034 1.370 . S
C3035 C3036 1.403 . S
C3036 C3035 1.403 . S
C3036 C3037 1.404 . S
C3036 C3039 1.539 . S
C3037 C3033 1.408 . S
C3037 C3036 1.404 . S
C3037 H3049 0.930 . S
C3038 C3034 1.524 . S
C3038 H3050 0.956 . S
C3038 H3051 0.961 . S
C3038 H3052 0.961 . S
C3039 C3036 1.539 . S
C3039 H3053 0.958 . S
C3039 H3054 0.961 . S
C3039 H3055 0.960 . S
H3040 C3024 0.931 . S
H3041 C3029 0.929 . S
H3042 C3030 0.960 . S
H3043 C3030 0.962 . S
H3044 C3030 0.960 . S
H3045 C3031 0.961 . S
H3046 C3031 0.961 . S
H3047 C3031 0.961 . S
H3048 C3032 0.931 . S
H3049 C3037 0.930 . S
H3050 C3038 0.956 . S
H3051 C3038 0.961 . S
H3052 C3038 0.961 . S
H3053 C3039 0.958 . S
H3054 C3039 0.961 . S
H3055 C3039 0.960 . S
C3056 C3057 1.391 . S
C3056 C3058 1.394 . S
C3056 H3072 0.931 . S
C3057 C3056 1.391 . S
C3057 C3061 1.376 . S
C3058 C3056 1.394 . S
C3058 C3059 1.369 . S
C3058 C3062 1.531 . S
C3059 C3058 1.369 . S
C3059 C3060 1.410 . S
C3059 C3067 1.503 . S
C3060 C3059 1.410 . S
C3060 C3061 1.392 . S
C3060 C3063 1.511 . S
C3061 C3057 1.376 . S
C3061 C3060 1.392 . S
C3061 H3073 0.929 . S
C3062 C3058 1.531 . S
C3062 H3074 0.960 . S
C3062 H3075 0.962 . S
C3062 H3076 0.960 . S
C3063 C3060 1.511 . S
C3063 H3077 0.961 . S
C3063 H3078 0.961 . S
C3063 H3079 0.961 . S
C3064 C3065 1.370 . S
C3064 C3066 1.363 . S
C3064 H3080 0.931 . S
C3065 C3064 1.370 . S
C3065 C3069 1.408 . S
C3066 C3064 1.363 . S
C3066 C3067 1.370 . S
C3066 C3070 1.524 . S
C3067 C3059 1.503 . S
C3067 C3066 1.370 . S
C3067 C3068 1.403 . S
C3068 C3067 1.403 . S
C3068 C3069 1.404 . S
C3068 C3071 1.539 . S
C3069 C3065 1.408 . S
C3069 C3068 1.404 . S
C3069 H3081 0.930 . S
C3070 C3066 1.524 . S
C3070 H3082 0.956 . S
C3070 H3083 0.961 . S
C3070 H3084 0.961 . S
C3071 C3068 1.539 . S
C3071 H3085 0.958 . S
C3071 H3086 0.961 . S
C3071 H3087 0.960 . S
H3072 C3056 0.931 . S
H3073 C3061 0.929 . S
H3074 C3062 0.960 . S
H3075 C3062 0.962 . S
H3076 C3062 0.960 . S
H3077 C3063 0.961 . S
H3078 C3063 0.961 . S
H3079 C3063 0.961 . S
H3080 C3064 0.931 . S
H3081 C3069 0.930 . S
H3082 C3070 0.956 . S
H3083 C3070 0.961 . S
H3084 C3070 0.961 . S
H3085 C3071 0.958 . S
H3086 C3071 0.961 . S
H3087 C3071 0.960 . S
C3088 C3089 1.391 . S
C3088 C3090 1.394 . S
C3088 H3104 0.931 . S
C3089 C3088 1.391 . S
C3089 C3093 1.376 . S
C3090 C3088 1.394 . S
C3090 C3091 1.369 . S
C3090 C3094 1.531 . S
C3091 C3090 1.369 . S
C3091 C3092 1.410 . S
C3091 C3099 1.503 . S
C3092 C3091 1.410 . S
C3092 C3093 1.392 . S
C3092 C3095 1.511 . S
C3093 C3089 1.376 . S
C3093 C3092 1.392 . S
C3093 H3105 0.929 . S
C3094 C3090 1.531 . S
C3094 H3106 0.960 . S
C3094 H3107 0.962 . S
C3094 H3108 0.960 . S
C3095 C3092 1.511 . S
C3095 H3109 0.961 . S
C3095 H3110 0.961 . S
C3095 H3111 0.961 . S
C3096 C3097 1.370 . S
C3096 C3098 1.363 . S
C3096 H3112 0.931 . S
C3097 C3096 1.370 . S
C3097 C3101 1.408 . S
C3098 C3096 1.363 . S
C3098 C3099 1.370 . S
C3098 C3102 1.524 . S
C3099 C3091 1.503 . S
C3099 C3098 1.370 . S
C3099 C3100 1.403 . S
C3100 C3099 1.403 . S
C3100 C3101 1.404 . S
C3100 C3103 1.539 . S
C3101 C3097 1.408 . S
C3101 C3100 1.404 . S
C3101 H3113 0.930 . S
C3102 C3098 1.524 . S
C3102 H3114 0.956 . S
C3102 H3115 0.961 . S
C3102 H3116 0.961 . S
C3103 C3100 1.539 . S
C3103 H3117 0.958 . S
C3103 H3118 0.961 . S
C3103 H3119 0.960 . S
H3104 C3088 0.931 . S
H3105 C3093 0.929 . S
H3106 C3094 0.960 . S
H3107 C3094 0.962 . S
H3108 C3094 0.960 . S
H3109 C3095 0.961 . S
H3110 C3095 0.961 . S
H3111 C3095 0.961 . S
H3112 C3096 0.931 . S
H3113 C3101 0.930 . S
H3114 C3102 0.956 . S
H3115 C3102 0.961 . S
H3116 C3102 0.961 . S
H3117 C3103 0.958 . S
H3118 C3103 0.961 . S
H3119 C3103 0.960 . S
C3120 C3121 1.391 . S
C3120 C3122 1.394 . S
C3120 H3136 0.931 . S
C3121 C3120 1.391 . S
C3121 C3125 1.376 . S
C3122 C3120 1.394 . S
C3122 C3123 1.369 . S
C3122 C3126 1.531 . S
C3123 C3122 1.369 . S
C3123 C3124 1.410 . S
C3123 C3131 1.503 . S
C3124 C3123 1.410 . S
C3124 C3125 1.392 . S
C3124 C3127 1.511 1_565 S
C3125 C3121 1.376 . S
C3125 C3124 1.392 . S
C3125 H3137 0.929 . S
C3126 C3122 1.531 . S
C3126 H3138 0.960 . S
C3126 H3139 0.962 . S
C3126 H3140 0.966 . S
C3127 C3124 1.511 1_545 S
C3127 H3141 0.961 . S
C3127 H3142 0.961 . S
C3127 H3143 0.961 1_554 S
C3128 C3129 1.370 . S
C3128 C3130 1.363 1_545 S
C3128 H3144 0.931 . S
C3129 C3128 1.370 . S
C3129 C3133 1.407 1_545 S
C3130 C3128 1.363 1_565 S
C3130 C3131 1.370 . S
C3130 C3134 1.524 . S
C3131 C3123 1.503 . S
C3131 C3130 1.370 . S
C3131 C3132 1.403 1_554 S
C3132 C3131 1.403 1_556 S
C3132 C3133 1.411 1_556 S
C3132 C3135 1.539 . S
C3133 C3129 1.407 1_565 S
C3133 C3132 1.411 1_554 S
C3133 H3145 0.925 1_564 S
C3134 C3130 1.524 . S
C3134 H3146 0.956 . S
C3134 H3147 0.961 . S
C3134 H3148 0.961 . S
C3135 C3132 1.539 . S
C3135 H3149 0.958 . S
C3135 H3150 0.961 . S
C3135 H3151 0.960 . S
H3136 C3120 0.931 . S
H3137 C3125 0.929 . S
H3138 C3126 0.960 . S
H3139 C3126 0.962 . S
H3140 C3126 0.966 . S
H3141 C3127 0.961 . S
H3142 C3127 0.961 . S
H3143 C3127 0.961 1_556 S
H3144 C3128 0.931 . S
H3145 C3133 0.925 1_546 S
H3146 C3134 0.956 . S
H3147 C3134 0.961 . S
H3148 C3134 0.961 . S
H3149 C3135 0.958 . S
H3150 C3135 0.961 . S
H3151 C3135 0.960 . S
C3152 C3153 1.391 . S
C3152 C3154 1.394 . S
C3152 H3168 0.931 . S
C3153 C3152 1.391 . S
C3153 C3157 1.376 . S
C3154 C3152 1.394 . S
C3154 C3155 1.369 . S
C3154 C3158 1.531 . S
C3155 C3154 1.369 . S
C3155 C3156 1.410 . S
C3155 C3163 1.503 . S
C3156 C3155 1.410 . S
C3156 C3157 1.392 . S
C3156 C3159 1.511 . S
C3157 C3153 1.376 . S
C3157 C3156 1.392 . S
C3157 H3169 0.929 . S
C3158 C3154 1.531 . S
C3158 H3170 0.960 . S
C3158 H3171 0.962 . S
C3158 H3172 0.960 . S
C3159 C3156 1.511 . S
C3159 H3173 0.961 . S
C3159 H3174 0.961 . S
C3159 H3175 0.961 . S
C3160 C3161 1.370 . S
C3160 C3162 1.363 . S
C3160 H3176 0.931 . S
C3161 C3160 1.370 . S
C3161 C3165 1.408 . S
C3162 C3160 1.363 . S
C3162 C3163 1.370 . S
C3162 C3166 1.524 . S
C3163 C3155 1.503 . S
C3163 C3162 1.370 . S
C3163 C3164 1.403 . S
C3164 C3163 1.403 . S
C3164 C3165 1.404 . S
C3164 C3167 1.539 . S
C3165 C3161 1.408 . S
C3165 C3164 1.404 . S
C3165 H3177 0.930 . S
C3166 C3162 1.524 . S
C3166 H3178 0.956 . S
C3166 H3179 0.961 . S
C3166 H3180 0.961 . S
C3167 C3164 1.539 . S
C3167 H3181 0.958 . S
C3167 H3182 0.961 . S
C3167 H3183 0.960 . S
H3168 C3152 0.931 . S
H3169 C3157 0.929 . S
H3170 C3158 0.960 . S
H3171 C3158 0.962 . S
H3172 C3158 0.960 . S
H3173 C3159 0.961 . S
H3174 C3159 0.961 . S
H3175 C3159 0.961 . S
H3176 C3160 0.931 . S
H3177 C3165 0.930 . S
H3178 C3166 0.956 . S
H3179 C3166 0.961 . S
H3180 C3166 0.961 . S
H3181 C3167 0.958 . S
H3182 C3167 0.961 . S
H3183 C3167 0.960 . S
C3184 C3185 1.391 . S
C3184 C3186 1.394 . S
C3184 H3200 0.931 . S
C3185 C3184 1.391 . S
C3185 C3189 1.376 . S
C3186 C3184 1.394 . S
C3186 C3187 1.369 . S
C3186 C3190 1.531 . S
C3187 C3186 1.369 . S
C3187 C3188 1.410 . S
C3187 C3195 1.503 . S
C3188 C3187 1.410 . S
C3188 C3189 1.392 . S
C3188 C3191 1.511 . S
C3189 C3185 1.376 . S
C3189 C3188 1.392 . S
C3189 H3201 0.929 . S
C3190 C3186 1.531 . S
C3190 H3202 0.960 . S
C3190 H3203 0.962 . S
C3190 H3204 0.960 . S
C3191 C3188 1.511 . S
C3191 H3205 0.961 . S
C3191 H3206 0.961 . S
C3191 H3207 0.961 . S
C3192 C3193 1.370 . S
C3192 C3194 1.363 . S
C3192 H3208 0.931 . S
C3193 C3192 1.370 . S
C3193 C3197 1.408 . S
C3194 C3192 1.363 . S
C3194 C3195 1.370 . S
C3194 C3198 1.524 . S
C3195 C3187 1.503 . S
C3195 C3194 1.370 . S
C3195 C3196 1.403 . S
C3196 C3195 1.403 . S
C3196 C3197 1.404 . S
C3196 C3199 1.539 . S
C3197 C3193 1.408 . S
C3197 C3196 1.404 . S
C3197 H3209 0.930 . S
C3198 C3194 1.524 . S
C3198 H3210 0.956 . S
C3198 H3211 0.961 . S
C3198 H3212 0.961 . S
C3199 C3196 1.539 . S
C3199 H3213 0.958 . S
C3199 H3214 0.961 . S
C3199 H3215 0.960 . S
H3200 C3184 0.931 . S
H3201 C3189 0.929 . S
H3202 C3190 0.960 . S
H3203 C3190 0.962 . S
H3204 C3190 0.960 . S
H3205 C3191 0.961 . S
H3206 C3191 0.961 . S
H3207 C3191 0.961 . S
H3208 C3192 0.931 . S
H3209 C3197 0.930 . S
H3210 C3198 0.956 . S
H3211 C3198 0.961 . S
H3212 C3198 0.961 . S
H3213 C3199 0.958 . S
H3214 C3199 0.961 . S
H3215 C3199 0.960 . S
C3216 C3217 1.391 . S
C3216 C3218 1.394 . S
C3216 H3232 0.931 . S
C3217 C3216 1.391 . S
C3217 C3221 1.376 . S
C3218 C3216 1.394 . S
C3218 C3219 1.369 . S
C3218 C3222 1.531 . S
C3219 C3218 1.369 . S
C3219 C3220 1.410 . S
C3219 C3227 1.503 . S
C3220 C3219 1.410 . S
C3220 C3221 1.392 . S
C3220 C3223 1.511 . S
C3221 C3217 1.376 . S
C3221 C3220 1.392 . S
C3221 H3233 0.929 . S
C3222 C3218 1.531 . S
C3222 H3234 0.960 . S
C3222 H3235 0.962 . S
C3222 H3236 0.960 . S
C3223 C3220 1.511 . S
C3223 H3237 0.961 . S
C3223 H3238 0.961 . S
C3223 H3239 0.961 . S
C3224 C3225 1.370 . S
C3224 C3226 1.363 . S
C3224 H3240 0.931 . S
C3225 C3224 1.370 . S
C3225 C3229 1.408 . S
C3226 C3224 1.363 . S
C3226 C3227 1.370 . S
C3226 C3230 1.524 . S
C3227 C3219 1.503 . S
C3227 C3226 1.370 . S
C3227 C3228 1.403 . S
C3228 C3227 1.403 . S
C3228 C3229 1.404 . S
C3228 C3231 1.539 . S
C3229 C3225 1.408 . S
C3229 C3228 1.404 . S
C3229 H3241 0.930 . S
C3230 C3226 1.524 . S
C3230 H3242 0.956 . S
C3230 H3243 0.961 . S
C3230 H3244 0.961 . S
C3231 C3228 1.539 . S
C3231 H3245 0.958 . S
C3231 H3246 0.961 . S
C3231 H3247 0.960 . S
H3232 C3216 0.931 . S
H3233 C3221 0.929 . S
H3234 C3222 0.960 . S
H3235 C3222 0.962 . S
H3236 C3222 0.960 . S
H3237 C3223 0.961 . S
H3238 C3223 0.961 . S
H3239 C3223 0.961 . S
H3240 C3224 0.931 . S
H3241 C3229 0.930 . S
H3242 C3230 0.956 . S
H3243 C3230 0.961 . S
H3244 C3230 0.961 . S
H3245 C3231 0.958 . S
H3246 C3231 0.961 . S
H3247 C3231 0.960 . S
C3248 C3249 1.391 . S
C3248 C3250 1.394 . S
C3248 H3264 0.931 . S
C3249 C3248 1.391 . S
C3249 C3253 1.376 . S
C3250 C3248 1.394 . S
C3250 C3251 1.369 . S
C3250 C3254 1.531 . S
C3251 C3250 1.369 . S
C3251 C3252 1.410 . S
C3251 C3259 1.503 . S
C3252 C3251 1.410 . S
C3252 C3253 1.392 . S
C3252 C3255 1.511 . S
C3253 C3249 1.376 . S
C3253 C3252 1.392 . S
C3253 H3265 0.929 . S
C3254 C3250 1.531 . S
C3254 H3266 0.960 . S
C3254 H3267 0.962 . S
C3254 H3268 0.960 . S
C3255 C3252 1.511 . S
C3255 H3269 0.961 . S
C3255 H3270 0.961 . S
C3255 H3271 0.961 . S
C3256 C3257 1.370 . S
C3256 C3258 1.363 . S
C3256 H3272 0.931 . S
C3257 C3256 1.370 . S
C3257 C3261 1.408 . S
C3258 C3256 1.363 . S
C3258 C3259 1.370 . S
C3258 C3262 1.524 . S
C3259 C3251 1.503 . S
C3259 C3258 1.370 . S
C3259 C3260 1.403 . S
C3260 C3259 1.403 . S
C3260 C3261 1.404 . S
C3260 C3263 1.539 . S
C3261 C3257 1.408 . S
C3261 C3260 1.404 . S
C3261 H3273 0.930 . S
C3262 C3258 1.524 . S
C3262 H3274 0.956 . S
C3262 H3275 0.961 . S
C3262 H3276 0.961 . S
C3263 C3260 1.539 . S
C3263 H3277 0.958 . S
C3263 H3278 0.961 . S
C3263 H3279 0.960 . S
H3264 C3248 0.931 . S
H3265 C3253 0.929 . S
H3266 C3254 0.960 . S
H3267 C3254 0.962 . S
H3268 C3254 0.960 . S
H3269 C3255 0.961 . S
H3270 C3255 0.961 . S
H3271 C3255 0.961 . S
H3272 C3256 0.931 . S
H3273 C3261 0.930 . S
H3274 C3262 0.956 . S
H3275 C3262 0.961 . S
H3276 C3262 0.961 . S
H3277 C3263 0.958 . S
H3278 C3263 0.961 . S
H3279 C3263 0.960 . S
C3280 C3281 1.391 . S
C3280 C3282 1.394 . S
C3280 H3296 0.931 . S
C3281 C3280 1.391 . S
C3281 C3285 1.376 . S
C3282 C3280 1.394 . S
C3282 C3283 1.369 . S
C3282 C3286 1.531 . S
C3283 C3282 1.369 . S
C3283 C3284 1.410 . S
C3283 C3291 1.503 . S
C3284 C3283 1.410 . S
C3284 C3285 1.392 . S
C3284 C3287 1.511 . S
C3285 C3281 1.376 . S
C3285 C3284 1.392 . S
C3285 H3297 0.929 . S
C3286 C3282 1.531 . S
C3286 H3298 0.960 . S
C3286 H3299 0.962 . S
C3286 H3300 0.960 . S
C3287 C3284 1.511 . S
C3287 H3301 0.961 . S
C3287 H3302 0.961 . S
C3287 H3303 0.961 . S
C3288 C3289 1.370 . S
C3288 C3290 1.363 . S
C3288 H3304 0.931 . S
C3289 C3288 1.370 . S
C3289 C3293 1.408 . S
C3290 C3288 1.363 . S
C3290 C3291 1.370 . S
C3290 C3294 1.524 . S
C3291 C3283 1.503 . S
C3291 C3290 1.370 . S
C3291 C3292 1.403 . S
C3292 C3291 1.403 . S
C3292 C3293 1.404 . S
C3292 C3295 1.539 . S
C3293 C3289 1.408 . S
C3293 C3292 1.404 . S
C3293 H3305 0.930 . S
C3294 C3290 1.524 . S
C3294 H3306 0.956 . S
C3294 H3307 0.961 . S
C3294 H3308 0.961 . S
C3295 C3292 1.539 . S
C3295 H3309 0.958 . S
C3295 H3310 0.961 . S
C3295 H3311 0.960 . S
H3296 C3280 0.931 . S
H3297 C3285 0.929 . S
H3298 C3286 0.960 . S
H3299 C3286 0.962 . S
H3300 C3286 0.960 . S
H3301 C3287 0.961 . S
H3302 C3287 0.961 . S
H3303 C3287 0.961 . S
H3304 C3288 0.931 . S
H3305 C3293 0.930 . S
H3306 C3294 0.956 . S
H3307 C3294 0.961 . S
H3308 C3294 0.961 . S
H3309 C3295 0.958 . S
H3310 C3295 0.961 . S
H3311 C3295 0.960 . S
C3312 C3313 1.391 . S
C3312 C3314 1.394 . S
C3312 H3328 0.931 . S
C3313 C3312 1.391 . S
C3313 C3317 1.376 . S
C3314 C3312 1.394 . S
C3314 C3315 1.369 . S
C3314 C3318 1.531 . S
C3315 C3314 1.369 . S
C3315 C3316 1.410 . S
C3315 C3323 1.503 . S
C3316 C3315 1.410 . S
C3316 C3317 1.392 . S
C3316 C3319 1.511 . S
C3317 C3313 1.376 . S
C3317 C3316 1.392 . S
C3317 H3329 0.929 . S
C3318 C3314 1.531 . S
C3318 H3330 0.960 . S
C3318 H3331 0.962 . S
C3318 H3332 0.960 . S
C3319 C3316 1.511 . S
C3319 H3333 0.961 . S
C3319 H3334 0.961 . S
C3319 H3335 0.961 . S
C3320 C3321 1.370 . S
C3320 C3322 1.363 . S
C3320 H3336 0.931 . S
C3321 C3320 1.370 . S
C3321 C3325 1.408 . S
C3322 C3320 1.363 . S
C3322 C3323 1.370 . S
C3322 C3326 1.524 . S
C3323 C3315 1.503 . S
C3323 C3322 1.370 . S
C3323 C3324 1.403 . S
C3324 C3323 1.403 . S
C3324 C3325 1.404 . S
C3324 C3327 1.539 . S
C3325 C3321 1.408 . S
C3325 C3324 1.404 . S
C3325 H3337 0.930 . S
C3326 C3322 1.524 . S
C3326 H3338 0.956 . S
C3326 H3339 0.961 . S
C3326 H3340 0.961 . S
C3327 C3324 1.539 . S
C3327 H3341 0.958 . S
C3327 H3342 0.961 . S
C3327 H3343 0.960 . S
H3328 C3312 0.931 . S
H3329 C3317 0.929 . S
H3330 C3318 0.960 . S
H3331 C3318 0.962 . S
H3332 C3318 0.960 . S
H3333 C3319 0.961 . S
H3334 C3319 0.961 . S
H3335 C3319 0.961 . S
H3336 C3320 0.931 . S
H3337 C3325 0.930 . S
H3338 C3326 0.956 . S
H3339 C3326 0.961 . S
H3340 C3326 0.961 . S
H3341 C3327 0.958 . S
H3342 C3327 0.961 . S
H3343 C3327 0.960 . S
C3344 C3345 1.391 . S
C3344 C3346 1.394 . S
C3344 H3360 0.931 . S
C3345 C3344 1.391 . S
C3345 C3349 1.376 . S
C3346 C3344 1.394 . S
C3346 C3347 1.369 . S
C3346 C3350 1.531 . S
C3347 C3346 1.369 . S
C3347 C3348 1.410 . S
C3347 C3355 1.503 . S
C3348 C3347 1.410 . S
C3348 C3349 1.392 . S
C3348 C3351 1.511 . S
C3349 C3345 1.376 . S
C3349 C3348 1.392 . S
C3349 H3361 0.929 . S
C3350 C3346 1.531 . S
C3350 H3362 0.960 . S
C3350 H3363 0.962 . S
C3350 H3364 0.960 . S
C3351 C3348 1.511 . S
C3351 H3365 0.961 . S
C3351 H3366 0.961 . S
C3351 H3367 0.961 . S
C3352 C3353 1.370 . S
C3352 C3354 1.363 . S
C3352 H3368 0.931 . S
C3353 C3352 1.370 . S
C3353 C3357 1.408 . S
C3354 C3352 1.363 . S
C3354 C3355 1.370 . S
C3354 C3358 1.524 . S
C3355 C3347 1.503 . S
C3355 C3354 1.370 . S
C3355 C3356 1.403 . S
C3356 C3355 1.403 . S
C3356 C3357 1.404 . S
C3356 C3359 1.539 . S
C3357 C3353 1.408 . S
C3357 C3356 1.404 . S
C3357 H3369 0.930 . S
C3358 C3354 1.524 . S
C3358 H3370 0.956 . S
C3358 H3371 0.961 . S
C3358 H3372 0.961 . S
C3359 C3356 1.539 . S
C3359 H3373 0.958 . S
C3359 H3374 0.961 . S
C3359 H3375 0.960 . S
H3360 C3344 0.931 . S
H3361 C3349 0.929 . S
H3362 C3350 0.960 . S
H3363 C3350 0.962 . S
H3364 C3350 0.960 . S
H3365 C3351 0.961 . S
H3366 C3351 0.961 . S
H3367 C3351 0.961 . S
H3368 C3352 0.931 . S
H3369 C3357 0.930 . S
H3370 C3358 0.956 . S
H3371 C3358 0.961 . S
H3372 C3358 0.961 . S
H3373 C3359 0.958 . S
H3374 C3359 0.961 . S
H3375 C3359 0.960 . S
C3376 C3377 1.391 . S
C3376 C3378 1.394 . S
C3376 H3392 0.931 . S
C3377 C3376 1.391 . S
C3377 C3381 1.376 . S
C3378 C3376 1.394 . S
C3378 C3379 1.369 . S
C3378 C3382 1.531 . S
C3379 C3378 1.369 . S
C3379 C3380 1.410 . S
C3379 C3387 1.503 . S
C3380 C3379 1.410 . S
C3380 C3381 1.392 . S
C3380 C3383 1.511 . S
C3381 C3377 1.376 . S
C3381 C3380 1.392 . S
C3381 H3393 0.929 . S
C3382 C3378 1.531 . S
C3382 H3394 0.960 . S
C3382 H3395 0.962 . S
C3382 H3396 0.960 . S
C3383 C3380 1.511 . S
C3383 H3397 0.961 . S
C3383 H3398 0.961 . S
C3383 H3399 0.961 . S
C3384 C3385 1.370 . S
C3384 C3386 1.363 . S
C3384 H3400 0.931 . S
C3385 C3384 1.370 . S
C3385 C3389 1.408 . S
C3386 C3384 1.363 . S
C3386 C3387 1.370 . S
C3386 C3390 1.524 . S
C3387 C3379 1.503 . S
C3387 C3386 1.370 . S
C3387 C3388 1.403 . S
C3388 C3387 1.403 . S
C3388 C3389 1.404 . S
C3388 C3391 1.539 . S
C3389 C3385 1.408 . S
C3389 C3388 1.404 . S
C3389 H3401 0.930 . S
C3390 C3386 1.524 . S
C3390 H3402 0.956 . S
C3390 H3403 0.961 . S
C3390 H3404 0.961 . S
C3391 C3388 1.539 . S
C3391 H3405 0.958 . S
C3391 H3406 0.961 . S
C3391 H3407 0.960 . S
H3392 C3376 0.931 . S
H3393 C3381 0.929 . S
H3394 C3382 0.960 . S
H3395 C3382 0.962 . S
H3396 C3382 0.960 . S
H3397 C3383 0.961 . S
H3398 C3383 0.961 . S
H3399 C3383 0.961 . S
H3400 C3384 0.931 . S
H3401 C3389 0.930 . S
H3402 C3390 0.956 . S
H3403 C3390 0.961 . S
H3404 C3390 0.961 . S
H3405 C3391 0.958 . S
H3406 C3391 0.961 . S
H3407 C3391 0.960 . S
C3408 C3409 1.391 . S
C3408 C3410 1.394 . S
C3408 H3424 0.931 . S
C3409 C3408 1.391 . S
C3409 C3413 1.376 . S
C3410 C3408 1.394 . S
C3410 C3411 1.369 . S
C3410 C3414 1.531 . S
C3411 C3410 1.369 . S
C3411 C3412 1.410 . S
C3411 C3419 1.503 . S
C3412 C3411 1.410 . S
C3412 C3413 1.392 . S
C3412 C3415 1.511 . S
C3413 C3409 1.376 . S
C3413 C3412 1.392 . S
C3413 H3425 0.929 . S
C3414 C3410 1.531 . S
C3414 H3426 0.960 . S
C3414 H3427 0.962 . S
C3414 H3428 0.960 . S
C3415 C3412 1.511 . S
C3415 H3429 0.961 . S
C3415 H3430 0.961 . S
C3415 H3431 0.961 . S
C3416 C3417 1.370 . S
C3416 C3418 1.363 . S
C3416 H3432 0.931 . S
C3417 C3416 1.370 . S
C3417 C3421 1.408 . S
C3418 C3416 1.363 . S
C3418 C3419 1.370 . S
C3418 C3422 1.524 . S
C3419 C3411 1.503 . S
C3419 C3418 1.370 . S
C3419 C3420 1.403 . S
C3420 C3419 1.403 . S
C3420 C3421 1.404 . S
C3420 C3423 1.539 . S
C3421 C3417 1.408 . S
C3421 C3420 1.404 . S
C3421 H3433 0.930 . S
C3422 C3418 1.524 . S
C3422 H3434 0.956 . S
C3422 H3435 0.961 . S
C3422 H3436 0.961 . S
C3423 C3420 1.539 . S
C3423 H3437 0.958 . S
C3423 H3438 0.961 . S
C3423 H3439 0.960 . S
H3424 C3408 0.931 . S
H3425 C3413 0.929 . S
H3426 C3414 0.960 . S
H3427 C3414 0.962 . S
H3428 C3414 0.960 . S
H3429 C3415 0.961 . S
H3430 C3415 0.961 . S
H3431 C3415 0.961 . S
H3432 C3416 0.931 . S
H3433 C3421 0.930 . S
H3434 C3422 0.956 . S
H3435 C3422 0.961 . S
H3436 C3422 0.961 . S
H3437 C3423 0.958 . S
H3438 C3423 0.961 . S
H3439 C3423 0.960 . S
C3440 C3441 1.391 . S
C3440 C3442 1.394 . S
C3440 H3456 0.931 . S
C3441 C3440 1.391 . S
C3441 C3445 1.376 . S
C3442 C3440 1.394 . S
C3442 C3443 1.369 . S
C3442 C3446 1.531 . S
C3443 C3442 1.369 . S
C3443 C3444 1.410 . S
C3443 C3451 1.503 . S
C3444 C3443 1.410 . S
C3444 C3445 1.392 . S
C3444 C3447 1.511 . S
C3445 C3441 1.376 . S
C3445 C3444 1.392 . S
C3445 H3457 0.929 . S
C3446 C3442 1.531 . S
C3446 H3458 0.960 . S
C3446 H3459 0.962 . S
C3446 H3460 0.960 . S
C3447 C3444 1.511 . S
C3447 H3461 0.961 . S
C3447 H3462 0.961 . S
C3447 H3463 0.961 . S
C3448 C3449 1.370 . S
C3448 C3450 1.363 . S
C3448 H3464 0.931 . S
C3449 C3448 1.370 . S
C3449 C3453 1.408 . S
C3450 C3448 1.363 . S
C3450 C3451 1.370 . S
C3450 C3454 1.524 . S
C3451 C3443 1.503 . S
C3451 C3450 1.370 . S
C3451 C3452 1.403 . S
C3452 C3451 1.403 . S
C3452 C3453 1.404 . S
C3452 C3455 1.539 . S
C3453 C3449 1.408 . S
C3453 C3452 1.404 . S
C3453 H3465 0.930 . S
C3454 C3450 1.524 . S
C3454 H3466 0.956 . S
C3454 H3467 0.961 . S
C3454 H3468 0.961 . S
C3455 C3452 1.539 . S
C3455 H3469 0.958 . S
C3455 H3470 0.961 . S
C3455 H3471 0.960 . S
H3456 C3440 0.931 . S
H3457 C3445 0.929 . S
H3458 C3446 0.960 . S
H3459 C3446 0.962 . S
H3460 C3446 0.960 . S
H3461 C3447 0.961 . S
H3462 C3447 0.961 . S
H3463 C3447 0.961 . S
H3464 C3448 0.931 . S
H3465 C3453 0.930 . S
H3466 C3454 0.956 . S
H3467 C3454 0.961 . S
H3468 C3454 0.961 . S
H3469 C3455 0.958 . S
H3470 C3455 0.961 . S
H3471 C3455 0.960 . S
C3472 C3473 1.391 . S
C3472 C3474 1.394 . S
C3472 H3488 0.931 . S
C3473 C3472 1.391 . S
C3473 C3477 1.376 . S
C3474 C3472 1.394 . S
C3474 C3475 1.369 . S
C3474 C3478 1.531 . S
C3475 C3474 1.369 . S
C3475 C3476 1.410 . S
C3475 C3483 1.503 . S
C3476 C3475 1.410 . S
C3476 C3477 1.392 . S
C3476 C3479 1.511 . S
C3477 C3473 1.376 . S
C3477 C3476 1.392 . S
C3477 H3489 0.929 . S
C3478 C3474 1.531 . S
C3478 H3490 0.960 . S
C3478 H3491 0.962 . S
C3478 H3492 0.960 . S
C3479 C3476 1.511 . S
C3479 H3493 0.961 . S
C3479 H3494 0.961 . S
C3479 H3495 0.961 . S
C3480 C3481 1.370 . S
C3480 C3482 1.363 . S
C3480 H3496 0.931 . S
C3481 C3480 1.370 . S
C3481 C3485 1.408 . S
C3482 C3480 1.363 . S
C3482 C3483 1.370 . S
C3482 C3486 1.524 . S
C3483 C3475 1.503 . S
C3483 C3482 1.370 . S
C3483 C3484 1.403 . S
C3484 C3483 1.403 . S
C3484 C3485 1.404 . S
C3484 C3487 1.539 . S
C3485 C3481 1.408 . S
C3485 C3484 1.404 . S
C3485 H3497 0.930 . S
C3486 C3482 1.524 . S
C3486 H3498 0.956 . S
C3486 H3499 0.961 . S
C3486 H3500 0.961 . S
C3487 C3484 1.539 . S
C3487 H3501 0.958 . S
C3487 H3502 0.961 . S
C3487 H3503 0.960 . S
H3488 C3472 0.931 . S
H3489 C3477 0.929 . S
H3490 C3478 0.960 . S
H3491 C3478 0.962 . S
H3492 C3478 0.960 . S
H3493 C3479 0.961 . S
H3494 C3479 0.961 . S
H3495 C3479 0.961 . S
H3496 C3480 0.931 . S
H3497 C3485 0.930 . S
H3498 C3486 0.956 . S
H3499 C3486 0.961 . S
H3500 C3486 0.961 . S
H3501 C3487 0.958 . S
H3502 C3487 0.961 . S
H3503 C3487 0.960 . S
C3504 C3505 1.391 . S
C3504 C3506 1.394 . S
C3504 H3520 0.931 . S
C3505 C3504 1.391 . S
C3505 C3509 1.376 . S
C3506 C3504 1.394 . S
C3506 C3507 1.369 . S
C3506 C3510 1.531 . S
C3507 C3506 1.369 . S
C3507 C3508 1.410 . S
C3507 C3515 1.503 . S
C3508 C3507 1.410 . S
C3508 C3509 1.392 . S
C3508 C3511 1.511 . S
C3509 C3505 1.376 . S
C3509 C3508 1.392 . S
C3509 H3521 0.929 . S
C3510 C3506 1.531 . S
C3510 H3522 0.960 . S
C3510 H3523 0.962 . S
C3510 H3524 0.960 . S
C3511 C3508 1.511 . S
C3511 H3525 0.961 . S
C3511 H3526 0.961 . S
C3511 H3527 0.961 . S
C3512 C3513 1.370 . S
C3512 C3514 1.363 . S
C3512 H3528 0.931 . S
C3513 C3512 1.370 . S
C3513 C3517 1.408 . S
C3514 C3512 1.363 . S
C3514 C3515 1.370 . S
C3514 C3518 1.524 . S
C3515 C3507 1.503 . S
C3515 C3514 1.370 . S
C3515 C3516 1.403 . S
C3516 C3515 1.403 . S
C3516 C3517 1.404 . S
C3516 C3519 1.539 . S
C3517 C3513 1.408 . S
C3517 C3516 1.404 . S
C3517 H3529 0.930 . S
C3518 C3514 1.524 . S
C3518 H3530 0.956 . S
C3518 H3531 0.961 . S
C3518 H3532 0.961 . S
C3519 C3516 1.539 . S
C3519 H3533 0.958 . S
C3519 H3534 0.961 . S
C3519 H3535 0.960 . S
H3520 C3504 0.931 . S
H3521 C3509 0.929 . S
H3522 C3510 0.960 . S
H3523 C3510 0.962 . S
H3524 C3510 0.960 . S
H3525 C3511 0.961 . S
H3526 C3511 0.961 . S
H3527 C3511 0.961 . S
H3528 C3512 0.931 . S
H3529 C3517 0.930 . S
H3530 C3518 0.956 . S
H3531 C3518 0.961 . S
H3532 C3518 0.961 . S
H3533 C3519 0.958 . S
H3534 C3519 0.961 . S
H3535 C3519 0.960 . S
C3536 C3537 1.391 . S
C3536 C3538 1.394 . S
C3536 H3552 0.931 . S
C3537 C3536 1.391 . S
C3537 C3541 1.376 . S
C3538 C3536 1.394 . S
C3538 C3539 1.369 . S
C3538 C3542 1.531 . S
C3539 C3538 1.369 . S
C3539 C3540 1.410 . S
C3539 C3547 1.503 . S
C3540 C3539 1.410 . S
C3540 C3541 1.392 . S
C3540 C3543 1.511 . S
C3541 C3537 1.376 . S
C3541 C3540 1.392 . S
C3541 H3553 0.929 . S
C3542 C3538 1.531 . S
C3542 H3554 0.960 . S
C3542 H3555 0.962 . S
C3542 H3556 0.960 . S
C3543 C3540 1.511 . S
C3543 H3557 0.961 . S
C3543 H3558 0.961 . S
C3543 H3559 0.961 . S
C3544 C3545 1.370 . S
C3544 C3546 1.363 . S
C3544 H3560 0.931 . S
C3545 C3544 1.370 . S
C3545 C3549 1.408 . S
C3546 C3544 1.363 . S
C3546 C3547 1.370 . S
C3546 C3550 1.524 . S
C3547 C3539 1.503 . S
C3547 C3546 1.370 . S
C3547 C3548 1.403 . S
C3548 C3547 1.403 . S
C3548 C3549 1.404 . S
C3548 C3551 1.539 . S
C3549 C3545 1.408 . S
C3549 C3548 1.404 . S
C3549 H3561 0.930 . S
C3550 C3546 1.524 . S
C3550 H3562 0.956 . S
C3550 H3563 0.961 . S
C3550 H3564 0.961 . S
C3551 C3548 1.539 . S
C3551 H3565 0.958 . S
C3551 H3566 0.961 . S
C3551 H3567 0.960 . S
H3552 C3536 0.931 . S
H3553 C3541 0.929 . S
H3554 C3542 0.960 . S
H3555 C3542 0.962 . S
H3556 C3542 0.960 . S
H3557 C3543 0.961 . S
H3558 C3543 0.961 . S
H3559 C3543 0.961 . S
H3560 C3544 0.931 . S
H3561 C3549 0.930 . S
H3562 C3550 0.956 . S
H3563 C3550 0.961 . S
H3564 C3550 0.961 . S
H3565 C3551 0.958 . S
H3566 C3551 0.961 . S
H3567 C3551 0.960 . S
C3568 C3569 1.391 . S
C3568 C3570 1.394 . S
C3568 H3584 0.931 . S
C3569 C3568 1.391 . S
C3569 C3573 1.376 . S
C3570 C3568 1.394 . S
C3570 C3571 1.369 . S
C3570 C3574 1.531 . S
C3571 C3570 1.369 . S
C3571 C3572 1.410 . S
C3571 C3579 1.503 . S
C3572 C3571 1.410 . S
C3572 C3573 1.392 . S
C3572 C3575 1.511 . S
C3573 C3569 1.376 . S
C3573 C3572 1.392 . S
C3573 H3585 0.929 . S
C3574 C3570 1.531 . S
C3574 H3586 0.960 . S
C3574 H3587 0.962 . S
C3574 H3588 0.960 . S
C3575 C3572 1.511 . S
C3575 H3589 0.961 . S
C3575 H3590 0.961 . S
C3575 H3591 0.961 . S
C3576 C3577 1.370 . S
C3576 C3578 1.363 . S
C3576 H3592 0.931 . S
C3577 C3576 1.370 . S
C3577 C3581 1.408 . S
C3578 C3576 1.363 . S
C3578 C3579 1.370 . S
C3578 C3582 1.524 . S
C3579 C3571 1.503 . S
C3579 C3578 1.370 . S
C3579 C3580 1.403 . S
C3580 C3579 1.403 . S
C3580 C3581 1.404 . S
C3580 C3583 1.539 . S
C3581 C3577 1.408 . S
C3581 C3580 1.404 . S
C3581 H3593 0.930 . S
C3582 C3578 1.524 . S
C3582 H3594 0.956 . S
C3582 H3595 0.961 . S
C3582 H3596 0.961 . S
C3583 C3580 1.539 . S
C3583 H3597 0.958 . S
C3583 H3598 0.961 . S
C3583 H3599 0.960 . S
H3584 C3568 0.931 . S
H3585 C3573 0.929 . S
H3586 C3574 0.960 . S
H3587 C3574 0.962 . S
H3588 C3574 0.960 . S
H3589 C3575 0.961 . S
H3590 C3575 0.961 . S
H3591 C3575 0.961 . S
H3592 C3576 0.931 . S
H3593 C3581 0.930 . S
H3594 C3582 0.956 . S
H3595 C3582 0.961 . S
H3596 C3582 0.961 . S
H3597 C3583 0.958 . S
H3598 C3583 0.961 . S
H3599 C3583 0.960 . S
C3600 C3601 1.391 . S
C3600 C3602 1.394 . S
C3600 H3616 0.931 . S
C3601 C3600 1.391 . S
C3601 C3605 1.376 . S
C3602 C3600 1.394 . S
C3602 C3603 1.369 . S
C3602 C3606 1.531 1_655 S
C3603 C3602 1.369 . S
C3603 C3604 1.410 . S
C3603 C3611 1.503 1_655 S
C3604 C3603 1.410 . S
C3604 C3605 1.392 . S
C3604 C3607 1.511 . S
C3605 C3601 1.376 . S
C3605 C3604 1.392 . S
C3605 H3617 0.929 . S
C3606 C3602 1.531 1_455 S
C3606 H3618 0.960 . S
C3606 H3619 0.962 . S
C3606 H3620 0.960 . S
C3607 C3604 1.511 . S
C3607 H3621 0.961 . S
C3607 H3622 0.961 . S
C3607 H3623 0.961 . S
C3608 C3609 1.370 . S
C3608 C3610 1.363 . S
C3608 H3624 0.931 . S
C3609 C3608 1.370 . S
C3609 C3613 1.408 . S
C3610 C3608 1.363 . S
C3610 C3611 1.370 . S
C3610 C3614 1.524 . S
C3611 C3603 1.503 1_455 S
C3611 C3610 1.370 . S
C3611 C3612 1.403 . S
C3612 C3611 1.403 . S
C3612 C3613 1.404 . S
C3612 C3615 1.539 1_455 S
C3613 C3609 1.408 . S
C3613 C3612 1.404 . S
C3613 H3625 0.930 . S
C3614 C3610 1.524 . S
C3614 H3626 0.956 . S
C3614 H3627 0.961 . S
C3614 H3628 0.961 . S
C3615 C3612 1.539 1_655 S
C3615 H3629 0.958 . S
C3615 H3630 0.961 . S
C3615 H3631 0.960 . S
H3616 C3600 0.931 . S
H3617 C3605 0.929 . S
H3618 C3606 0.960 . S
H3619 C3606 0.962 . S
H3620 C3606 0.960 . S
H3621 C3607 0.961 . S
H3622 C3607 0.961 . S
H3623 C3607 0.961 . S
H3624 C3608 0.931 . S
H3625 C3613 0.930 . S
H3626 C3614 0.956 . S
H3627 C3614 0.961 . S
H3628 C3614 0.961 . S
H3629 C3615 0.958 . S
H3630 C3615 0.961 . S
H3631 C3615 0.960 . S
C3632 C3633 1.391 . S
C3632 C3634 1.394 . S
C3632 H3648 0.931 . S
C3633 C3632 1.391 . S
C3633 C3637 1.376 . S
C3634 C3632 1.394 . S
C3634 C3635 1.369 . S
C3634 C3638 1.531 . S
C3635 C3634 1.369 . S
C3635 C3636 1.410 . S
C3635 C3643 1.503 . S
C3636 C3635 1.410 . S
C3636 C3637 1.392 . S
C3636 C3639 1.511 . S
C3637 C3633 1.376 . S
C3637 C3636 1.392 . S
C3637 H3649 0.929 . S
C3638 C3634 1.531 . S
C3638 H3650 0.960 . S
C3638 H3651 0.962 . S
C3638 H3652 0.960 . S
C3639 C3636 1.511 . S
C3639 H3653 0.961 . S
C3639 H3654 0.961 . S
C3639 H3655 0.961 . S
C3640 C3641 1.370 . S
C3640 C3642 1.363 . S
C3640 H3656 0.931 . S
C3641 C3640 1.370 . S
C3641 C3645 1.408 . S
C3642 C3640 1.363 . S
C3642 C3643 1.370 . S
C3642 C3646 1.524 . S
C3643 C3635 1.503 . S
C3643 C3642 1.370 . S
C3643 C3644 1.403 . S
C3644 C3643 1.403 . S
C3644 C3645 1.404 . S
C3644 C3647 1.539 . S
C3645 C3641 1.408 . S
C3645 C3644 1.404 . S
C3645 H3657 0.930 . S
C3646 C3642 1.524 . S
C3646 H3658 0.956 . S
C3646 H3659 0.961 . S
C3646 H3660 0.961 . S
C3647 C3644 1.539 . S
C3647 H3661 0.958 . S
C3647 H3662 0.961 . S
C3647 H3663 0.960 . S
H3648 C3632 0.931 . S
H3649 C3637 0.929 . S
H3650 C3638 0.960 . S
H3651 C3638 0.962 . S
H3652 C3638 0.960 . S
H3653 C3639 0.961 . S
H3654 C3639 0.961 . S
H3655 C3639 0.961 . S
H3656 C3640 0.931 . S
H3657 C3645 0.930 . S
H3658 C3646 0.956 . S
H3659 C3646 0.961 . S
H3660 C3646 0.961 . S
H3661 C3647 0.958 . S
H3662 C3647 0.961 . S
H3663 C3647 0.960 . S
C3664 C3665 1.391 . S
C3664 C3666 1.394 . S
C3664 H3680 0.931 . S
C3665 C3664 1.391 . S
C3665 C3669 1.376 . S
C3666 C3664 1.394 . S
C3666 C3667 1.369 . S
C3666 C3670 1.531 . S
C3667 C3666 1.369 . S
C3667 C3668 1.410 . S
C3667 C3675 1.503 . S
C3668 C3667 1.410 . S
C3668 C3669 1.392 . S
C3668 C3671 1.511 . S
C3669 C3665 1.376 . S
C3669 C3668 1.392 . S
C3669 H3681 0.929 . S
C3670 C3666 1.531 . S
C3670 H3682 0.960 . S
C3670 H3683 0.962 . S
C3670 H3684 0.960 . S
C3671 C3668 1.511 . S
C3671 H3685 0.961 . S
C3671 H3686 0.961 . S
C3671 H3687 0.961 . S
C3672 C3673 1.370 . S
C3672 C3674 1.363 . S
C3672 H3688 0.931 . S
C3673 C3672 1.370 . S
C3673 C3677 1.408 . S
C3674 C3672 1.363 . S
C3674 C3675 1.370 . S
C3674 C3678 1.524 . S
C3675 C3667 1.503 . S
C3675 C3674 1.370 . S
C3675 C3676 1.403 . S
C3676 C3675 1.403 . S
C3676 C3677 1.404 . S
C3676 C3679 1.539 . S
C3677 C3673 1.408 . S
C3677 C3676 1.404 . S
C3677 H3689 0.930 . S
C3678 C3674 1.524 . S
C3678 H3690 0.956 . S
C3678 H3691 0.961 . S
C3678 H3692 0.961 . S
C3679 C3676 1.539 . S
C3679 H3693 0.958 . S
C3679 H3694 0.961 . S
C3679 H3695 0.960 . S
H3680 C3664 0.931 . S
H3681 C3669 0.929 . S
H3682 C3670 0.960 . S
H3683 C3670 0.962 . S
H3684 C3670 0.960 . S
H3685 C3671 0.961 . S
H3686 C3671 0.961 . S
H3687 C3671 0.961 . S
H3688 C3672 0.931 . S
H3689 C3677 0.930 . S
H3690 C3678 0.956 . S
H3691 C3678 0.961 . S
H3692 C3678 0.961 . S
H3693 C3679 0.958 . S
H3694 C3679 0.961 . S
H3695 C3679 0.960 . S
C3696 C3697 1.391 . S
C3696 C3698 1.394 . S
C3696 H3712 0.931 . S
C3697 C3696 1.391 . S
C3697 C3701 1.376 . S
C3698 C3696 1.394 . S
C3698 C3699 1.369 . S
C3698 C3702 1.531 . S
C3699 C3698 1.369 . S
C3699 C3700 1.410 . S
C3699 C3707 1.503 . S
C3700 C3699 1.410 . S
C3700 C3701 1.392 . S
C3700 C3703 1.511 . S
C3701 C3697 1.376 . S
C3701 C3700 1.392 . S
C3701 H3713 0.929 . S
C3702 C3698 1.531 . S
C3702 H3714 0.960 . S
C3702 H3715 0.962 . S
C3702 H3716 0.960 . S
C3703 C3700 1.511 . S
C3703 H3717 0.961 . S
C3703 H3718 0.961 . S
C3703 H3719 0.961 . S
C3704 C3705 1.370 . S
C3704 C3706 1.363 . S
C3704 H3720 0.931 . S
C3705 C3704 1.370 . S
C3705 C3709 1.408 . S
C3706 C3704 1.363 . S
C3706 C3707 1.370 . S
C3706 C3710 1.524 . S
C3707 C3699 1.503 . S
C3707 C3706 1.370 . S
C3707 C3708 1.403 . S
C3708 C3707 1.403 . S
C3708 C3709 1.404 . S
C3708 C3711 1.539 . S
C3709 C3705 1.408 . S
C3709 C3708 1.404 . S
C3709 H3721 0.930 . S
C3710 C3706 1.524 . S
C3710 H3722 0.956 . S
C3710 H3723 0.961 . S
C3710 H3724 0.961 . S
C3711 C3708 1.539 . S
C3711 H3725 0.958 . S
C3711 H3726 0.961 . S
C3711 H3727 0.960 . S
H3712 C3696 0.931 . S
H3713 C3701 0.929 . S
H3714 C3702 0.960 . S
H3715 C3702 0.962 . S
H3716 C3702 0.960 . S
H3717 C3703 0.961 . S
H3718 C3703 0.961 . S
H3719 C3703 0.961 . S
H3720 C3704 0.931 . S
H3721 C3709 0.930 . S
H3722 C3710 0.956 . S
H3723 C3710 0.961 . S
H3724 C3710 0.961 . S
H3725 C3711 0.958 . S
H3726 C3711 0.961 . S
H3727 C3711 0.960 . S
C3728 C3729 1.391 . S
C3728 C3730 1.394 . S
C3728 H3744 0.931 . S
C3729 C3728 1.391 . S
C3729 C3733 1.376 . S
C3730 C3728 1.394 . S
C3730 C3731 1.369 . S
C3730 C3734 1.531 . S
C3731 C3730 1.369 . S
C3731 C3732 1.410 . S
C3731 C3739 1.503 . S
C3732 C3731 1.410 . S
C3732 C3733 1.392 . S
C3732 C3735 1.511 1_655 S
C3733 C3729 1.376 . S
C3733 C3732 1.392 . S
C3733 H3745 0.929 . S
C3734 C3730 1.531 . S
C3734 H3746 0.960 . S
C3734 H3747 0.962 . S
C3734 H3748 0.960 . S
C3735 C3732 1.511 1_455 S
C3735 H3749 0.961 . S
C3735 H3750 0.961 . S
C3735 H3751 0.961 . S
C3736 C3737 1.370 . S
C3736 C3738 1.363 . S
C3736 H3752 0.931 . S
C3737 C3736 1.370 . S
C3737 C3741 1.408 . S
C3738 C3736 1.363 . S
C3738 C3739 1.370 . S
C3738 C3742 1.524 . S
C3739 C3731 1.503 . S
C3739 C3738 1.370 . S
C3739 C3740 1.403 . S
C3740 C3739 1.403 . S
C3740 C3741 1.404 . S
C3740 C3743 1.539 . S
C3741 C3737 1.408 . S
C3741 C3740 1.404 . S
C3741 H3753 0.930 1_655 S
C3742 C3738 1.524 . S
C3742 H3754 0.956 . S
C3742 H3755 0.961 . S
C3742 H3756 0.961 . S
C3743 C3740 1.539 . S
C3743 H3757 0.958 . S
C3743 H3758 0.961 1_655 S
C3743 H3759 0.960 . S
H3744 C3728 0.931 . S
H3745 C3733 0.929 . S
H3746 C3734 0.960 . S
H3747 C3734 0.962 . S
H3748 C3734 0.960 . S
H3749 C3735 0.961 . S
H3750 C3735 0.961 . S
H3751 C3735 0.961 . S
H3752 C3736 0.931 . S
H3753 C3741 0.930 1_455 S
H3754 C3742 0.956 . S
H3755 C3742 0.961 . S
H3756 C3742 0.961 . S
H3757 C3743 0.958 . S
H3758 C3743 0.961 1_455 S
H3759 C3743 0.960 . S
C3760 C3761 1.391 . S
C3760 C3762 1.394 . S
C3760 H3776 0.931 . S
C3761 C3760 1.391 . S
C3761 C3765 1.376 . S
C3762 C3760 1.394 . S
C3762 C3763 1.369 . S
C3762 C3766 1.531 . S
C3763 C3762 1.369 . S
C3763 C3764 1.410 . S
C3763 C3771 1.503 . S
C3764 C3763 1.410 . S
C3764 C3765 1.392 . S
C3764 C3767 1.511 . S
C3765 C3761 1.376 . S
C3765 C3764 1.392 . S
C3765 H3777 0.929 . S
C3766 C3762 1.531 . S
C3766 H3778 0.960 . S
C3766 H3779 0.962 . S
C3766 H3780 0.960 . S
C3767 C3764 1.511 . S
C3767 H3781 0.961 . S
C3767 H3782 0.961 . S
C3767 H3783 0.961 . S
C3768 C3769 1.370 . S
C3768 C3770 1.363 . S
C3768 H3784 0.931 . S
C3769 C3768 1.370 . S
C3769 C3773 1.408 . S
C3770 C3768 1.363 . S
C3770 C3771 1.370 . S
C3770 C3774 1.524 . S
C3771 C3763 1.503 . S
C3771 C3770 1.370 . S
C3771 C3772 1.403 . S
C3772 C3771 1.403 . S
C3772 C3773 1.404 . S
C3772 C3775 1.539 . S
C3773 C3769 1.408 . S
C3773 C3772 1.404 . S
C3773 H3785 0.930 . S
C3774 C3770 1.524 . S
C3774 H3786 0.956 . S
C3774 H3787 0.961 . S
C3774 H3788 0.961 . S
C3775 C3772 1.539 . S
C3775 H3789 0.958 . S
C3775 H3790 0.961 . S
C3775 H3791 0.960 . S
H3776 C3760 0.931 . S
H3777 C3765 0.929 . S
H3778 C3766 0.960 . S
H3779 C3766 0.962 . S
H3780 C3766 0.960 . S
H3781 C3767 0.961 . S
H3782 C3767 0.961 . S
H3783 C3767 0.961 . S
H3784 C3768 0.931 . S
H3785 C3773 0.930 . S
H3786 C3774 0.956 . S
H3787 C3774 0.961 . S
H3788 C3774 0.961 . S
H3789 C3775 0.958 . S
H3790 C3775 0.961 . S
H3791 C3775 0.960 . S
C3792 C3793 1.391 . S
C3792 C3794 1.394 . S
C3792 H3808 0.931 . S
C3793 C3792 1.391 . S
C3793 C3797 1.376 . S
C3794 C3792 1.394 . S
C3794 C3795 1.369 . S
C3794 C3798 1.531 . S
C3795 C3794 1.369 . S
C3795 C3796 1.410 . S
C3795 C3803 1.503 . S
C3796 C3795 1.410 . S
C3796 C3797 1.392 . S
C3796 C3799 1.511 . S
C3797 C3793 1.376 . S
C3797 C3796 1.392 . S
C3797 H3809 0.929 . S
C3798 C3794 1.531 . S
C3798 H3810 0.960 . S
C3798 H3811 0.962 . S
C3798 H3812 0.960 . S
C3799 C3796 1.511 . S
C3799 H3813 0.961 . S
C3799 H3814 0.961 . S
C3799 H3815 0.961 . S
C3800 C3801 1.370 . S
C3800 C3802 1.363 . S
C3800 H3816 0.931 . S
C3801 C3800 1.370 . S
C3801 C3805 1.408 . S
C3802 C3800 1.363 . S
C3802 C3803 1.370 . S
C3802 C3806 1.524 . S
C3803 C3795 1.503 . S
C3803 C3802 1.370 . S
C3803 C3804 1.403 . S
C3804 C3803 1.403 . S
C3804 C3805 1.404 . S
C3804 C3807 1.539 . S
C3805 C3801 1.408 . S
C3805 C3804 1.404 . S
C3805 H3817 0.930 . S
C3806 C3802 1.524 . S
C3806 H3818 0.956 . S
C3806 H3819 0.961 . S
C3806 H3820 0.961 . S
C3807 C3804 1.539 . S
C3807 H3821 0.958 . S
C3807 H3822 0.961 . S
C3807 H3823 0.960 . S
H3808 C3792 0.931 . S
H3809 C3797 0.929 . S
H3810 C3798 0.960 . S
H3811 C3798 0.962 . S
H3812 C3798 0.960 . S
H3813 C3799 0.961 . S
H3814 C3799 0.961 . S
H3815 C3799 0.961 . S
H3816 C3800 0.931 . S
H3817 C3805 0.930 . S
H3818 C3806 0.956 . S
H3819 C3806 0.961 . S
H3820 C3806 0.961 . S
H3821 C3807 0.958 . S
H3822 C3807 0.961 . S
H3823 C3807 0.960 . S
C3824 C3825 1.391 . S
C3824 C3826 1.394 . S
C3824 H3840 0.931 . S
C3825 C3824 1.391 . S
C3825 C3829 1.376 . S
C3826 C3824 1.394 . S
C3826 C3827 1.369 . S
C3826 C3830 1.531 . S
C3827 C3826 1.369 . S
C3827 C3828 1.410 . S
C3827 C3835 1.503 . S
C3828 C3827 1.410 . S
C3828 C3829 1.392 . S
C3828 C3831 1.511 . S
C3829 C3825 1.376 . S
C3829 C3828 1.392 . S
C3829 H3841 0.929 . S
C3830 C3826 1.531 . S
C3830 H3842 0.960 . S
C3830 H3843 0.962 . S
C3830 H3844 0.960 . S
C3831 C3828 1.511 . S
C3831 H3845 0.961 . S
C3831 H3846 0.961 . S
C3831 H3847 0.961 . S
C3832 C3833 1.370 . S
C3832 C3834 1.363 . S
C3832 H3848 0.929 . S
C3833 C3832 1.370 . S
C3833 C3837 1.408 . S
C3834 C3832 1.363 . S
C3834 C3835 1.370 . S
C3834 C3838 1.524 . S
C3835 C3827 1.503 . S
C3835 C3834 1.370 . S
C3835 C3836 1.403 . S
C3836 C3835 1.403 . S
C3836 C3837 1.404 . S
C3836 C3839 1.539 . S
C3837 C3833 1.408 . S
C3837 C3836 1.404 . S
C3837 H3849 0.930 1_655 S
C3838 C3834 1.524 . S
C3838 H3850 0.956 . S
C3838 H3851 0.961 . S
C3838 H3852 0.961 . S
C3839 C3836 1.539 . S
C3839 H3853 0.958 . S
C3839 H3854 0.961 . S
C3839 H3855 0.960 . S
H3840 C3824 0.931 . S
H3841 C3829 0.929 . S
H3842 C3830 0.960 . S
H3843 C3830 0.962 . S
H3844 C3830 0.960 . S
H3845 C3831 0.961 . S
H3846 C3831 0.961 . S
H3847 C3831 0.961 . S
H3848 C3832 0.929 . S
H3849 C3837 0.930 1_455 S
H3850 C3838 0.956 . S
H3851 C3838 0.961 . S
H3852 C3838 0.961 . S
H3853 C3839 0.958 . S
H3854 C3839 0.961 . S
H3855 C3839 0.960 . S
C3856 C3857 1.391 . S
C3856 C3858 1.394 . S
C3856 H3872 0.931 . S
C3857 C3856 1.391 . S
C3857 C3861 1.376 . S
C3858 C3856 1.394 . S
C3858 C3859 1.369 . S
C3858 C3862 1.531 . S
C3859 C3858 1.369 . S
C3859 C3860 1.410 . S
C3859 C3867 1.503 . S
C3860 C3859 1.410 . S
C3860 C3861 1.392 . S
C3860 C3863 1.511 . S
C3861 C3857 1.376 . S
C3861 C3860 1.392 . S
C3861 H3873 0.929 . S
C3862 C3858 1.531 . S
C3862 H3874 0.960 . S
C3862 H3875 0.962 . S
C3862 H3876 0.960 . S
C3863 C3860 1.511 . S
C3863 H3877 0.961 . S
C3863 H3878 0.961 . S
C3863 H3879 0.961 . S
C3864 C3865 1.370 . S
C3864 C3866 1.363 . S
C3864 H3880 0.931 . S
C3865 C3864 1.370 . S
C3865 C3869 1.408 . S
C3866 C3864 1.363 . S
C3866 C3867 1.370 . S
C3866 C3870 1.524 . S
C3867 C3859 1.503 . S
C3867 C3866 1.370 . S
C3867 C3868 1.403 . S
C3868 C3867 1.403 . S
C3868 C3869 1.404 . S
C3868 C3871 1.539 . S
C3869 C3865 1.408 . S
C3869 C3868 1.404 . S
C3869 H3881 0.930 . S
C3870 C3866 1.524 . S
C3870 H3882 0.956 . S
C3870 H3883 0.961 . S
C3870 H3884 0.961 . S
C3871 C3868 1.539 . S
C3871 H3885 0.958 . S
C3871 H3886 0.961 . S
C3871 H3887 0.960 . S
H3872 C3856 0.931 . S
H3873 C3861 0.929 . S
H3874 C3862 0.960 . S
H3875 C3862 0.962 . S
H3876 C3862 0.960 . S
H3877 C3863 0.961 . S
H3878 C3863 0.961 . S
H3879 C3863 0.961 . S
H3880 C3864 0.931 . S
H3881 C3869 0.930 . S
H3882 C3870 0.956 . S
H3883 C3870 0.961 . S
H3884 C3870 0.961 . S
H3885 C3871 0.958 . S
H3886 C3871 0.961 . S
H3887 C3871 0.960 . S
C3888 C3889 1.391 . S
C3888 C3890 1.394 . S
C3888 H3904 0.931 . S
C3889 C3888 1.391 . S
C3889 C3893 1.376 . S
C3890 C3888 1.394 . S
C3890 C3891 1.369 . S
C3890 C3894 1.531 . S
C3891 C3890 1.369 . S
C3891 C3892 1.410 . S
C3891 C3899 1.503 . S
C3892 C3891 1.410 . S
C3892 C3893 1.392 . S
C3892 C3895 1.511 1_554 S
C3893 C3889 1.376 . S
C3893 C3892 1.392 . S
C3893 H3905 0.929 1_554 S
C3894 C3890 1.531 . S
C3894 H3906 0.960 . S
C3894 H3907 0.962 . S
C3894 H3908 0.960 . S
C3895 C3892 1.511 1_556 S
C3895 H3909 0.961 . S
C3895 H3910 0.961 . S
C3895 H3911 0.961 . S
C3896 C3897 1.370 . S
C3896 C3898 1.363 . S
C3896 H3912 0.931 . S
C3897 C3896 1.370 . S
C3897 C3901 1.408 . S
C3898 C3896 1.363 . S
C3898 C3899 1.370 . S
C3898 C3902 1.524 . S
C3899 C3891 1.503 . S
C3899 C3898 1.370 . S
C3899 C3900 1.403 . S
C3900 C3899 1.403 . S
C3900 C3901 1.404 . S
C3900 C3903 1.539 . S
C3901 C3897 1.408 . S
C3901 C3900 1.404 . S
C3901 H3913 0.930 . S
C3902 C3898 1.524 . S
C3902 H3914 0.956 . S
C3902 H3915 0.961 1_554 S
C3902 H3916 0.961 1_554 S
C3903 C3900 1.539 . S
C3903 H3917 0.958 . S
C3903 H3918 0.961 . S
C3903 H3919 0.960 . S
H3904 C3888 0.931 . S
H3905 C3893 0.929 1_556 S
H3906 C3894 0.960 . S
H3907 C3894 0.962 . S
H3908 C3894 0.960 . S
H3909 C3895 0.961 . S
H3910 C3895 0.961 . S
H3911 C3895 0.961 . S
H3912 C3896 0.931 . S
H3913 C3901 0.930 . S
H3914 C3902 0.956 . S
H3915 C3902 0.961 1_556 S
H3916 C3902 0.961 1_556 S
H3917 C3903 0.958 . S
H3918 C3903 0.961 . S
H3919 C3903 0.960 . S
C3920 C3921 1.391 . S
C3920 C3922 1.394 . S
C3920 H3936 0.931 . S
C3921 C3920 1.391 . S
C3921 C3925 1.376 . S
C3922 C3920 1.394 . S
C3922 C3923 1.369 . S
C3922 C3926 1.531 . S
C3923 C3922 1.369 . S
C3923 C3924 1.410 . S
C3923 C3931 1.503 . S
C3924 C3923 1.410 . S
C3924 C3925 1.392 . S
C3924 C3927 1.511 . S
C3925 C3921 1.376 . S
C3925 C3924 1.392 . S
C3925 H3937 0.929 . S
C3926 C3922 1.531 . S
C3926 H3938 0.960 . S
C3926 H3939 0.962 . S
C3926 H3940 0.960 . S
C3927 C3924 1.511 . S
C3927 H3941 0.961 . S
C3927 H3942 0.961 . S
C3927 H3943 0.961 . S
C3928 C3929 1.370 . S
C3928 C3930 1.363 . S
C3928 H3944 0.931 . S
C3929 C3928 1.370 . S
C3929 C3933 1.408 . S
C3930 C3928 1.363 . S
C3930 C3931 1.370 . S
C3930 C3934 1.524 . S
C3931 C3923 1.503 . S
C3931 C3930 1.370 . S
C3931 C3932 1.403 . S
C3932 C3931 1.403 . S
C3932 C3933 1.404 . S
C3932 C3935 1.539 . S
C3933 C3929 1.408 . S
C3933 C3932 1.404 . S
C3933 H3945 0.930 . S
C3934 C3930 1.524 . S
C3934 H3946 0.956 . S
C3934 H3947 0.961 . S
C3934 H3948 0.961 . S
C3935 C3932 1.539 . S
C3935 H3949 0.958 . S
C3935 H3950 0.961 . S
C3935 H3951 0.960 . S
H3936 C3920 0.931 . S
H3937 C3925 0.929 . S
H3938 C3926 0.960 . S
H3939 C3926 0.962 . S
H3940 C3926 0.960 . S
H3941 C3927 0.961 . S
H3942 C3927 0.961 . S
H3943 C3927 0.961 . S
H3944 C3928 0.931 . S
H3945 C3933 0.930 . S
H3946 C3934 0.956 . S
H3947 C3934 0.961 . S
H3948 C3934 0.961 . S
H3949 C3935 0.958 . S
H3950 C3935 0.961 . S
H3951 C3935 0.960 . S
C3952 C3953 1.391 . S
C3952 C3954 1.394 . S
C3952 H3968 0.931 . S
C3953 C3952 1.391 . S
C3953 C3957 1.376 . S
C3954 C3952 1.394 . S
C3954 C3955 1.369 . S
C3954 C3958 1.531 . S
C3955 C3954 1.369 . S
C3955 C3956 1.410 . S
C3955 C3963 1.503 . S
C3956 C3955 1.410 . S
C3956 C3957 1.392 . S
C3956 C3959 1.511 . S
C3957 C3953 1.376 . S
C3957 C3956 1.392 . S
C3957 H3969 0.929 . S
C3958 C3954 1.531 . S
C3958 H3970 0.960 . S
C3958 H3971 0.962 . S
C3958 H3972 0.960 . S
C3959 C3956 1.511 . S
C3959 H3973 0.961 . S
C3959 H3974 0.961 . S
C3959 H3975 0.961 . S
C3960 C3961 1.370 1_556 S
C3960 C3962 1.363 1_556 S
C3960 H3976 0.931 . S
C3961 C3960 1.370 1_554 S
C3961 C3965 1.408 . S
C3962 C3960 1.363 1_554 S
C3962 C3963 1.370 . S
C3962 C3966 1.524 1_554 S
C3963 C3955 1.503 . S
C3963 C3962 1.370 . S
C3963 C3964 1.403 . S
C3964 C3963 1.403 . S
C3964 C3965 1.404 . S
C3964 C3967 1.539 . S
C3965 C3961 1.408 . S
C3965 C3964 1.404 . S
C3965 H3977 0.930 . S
C3966 C3962 1.524 1_556 S
C3966 H3978 0.956 . S
C3966 H3979 0.961 . S
C3966 H3980 0.961 . S
C3967 C3964 1.539 . S
C3967 H3981 0.958 . S
C3967 H3982 0.961 . S
C3967 H3983 0.960 . S
H3968 C3952 0.931 . S
H3969 C3957 0.929 . S
H3970 C3958 0.960 . S
H3971 C3958 0.962 . S
H3972 C3958 0.960 . S
H3973 C3959 0.961 . S
H3974 C3959 0.961 . S
H3975 C3959 0.961 . S
H3976 C3960 0.931 . S
H3977 C3965 0.930 . S
H3978 C3966 0.956 . S
H3979 C3966 0.961 . S
H3980 C3966 0.961 . S
H3981 C3967 0.958 . S
H3982 C3967 0.961 . S
H3983 C3967 0.960 . S
C3984 C3985 1.391 . S
C3984 C3986 1.394 . S
C3984 H4000 0.931 . S
C3985 C3984 1.391 . S
C3985 C3989 1.376 . S
C3986 C3984 1.394 . S
C3986 C3987 1.369 . S
C3986 C3990 1.531 . S
C3987 C3986 1.369 . S
C3987 C3988 1.410 . S
C3987 C3995 1.503 . S
C3988 C3987 1.410 . S
C3988 C3989 1.392 . S
C3988 C3991 1.511 . S
C3989 C3985 1.376 . S
C3989 C3988 1.392 . S
C3989 H4001 0.929 . S
C3990 C3986 1.531 . S
C3990 H4002 0.960 . S
C3990 H4003 0.962 . S
C3990 H4004 0.960 . S
C3991 C3988 1.511 . S
C3991 H4005 0.961 . S
C3991 H4006 0.961 . S
C3991 H4007 0.961 . S
C3992 C3993 1.370 . S
C3992 C3994 1.363 . S
C3992 H4008 0.931 . S
C3993 C3992 1.370 . S
C3993 C3997 1.408 . S
C3994 C3992 1.363 . S
C3994 C3995 1.370 . S
C3994 C3998 1.524 . S
C3995 C3987 1.503 . S
C3995 C3994 1.370 . S
C3995 C3996 1.403 . S
C3996 C3995 1.403 . S
C3996 C3997 1.404 . S
C3996 C3999 1.539 . S
C3997 C3993 1.408 . S
C3997 C3996 1.404 . S
C3997 H4009 0.930 . S
C3998 C3994 1.524 . S
C3998 H4010 0.956 . S
C3998 H4011 0.961 . S
C3998 H4012 0.961 . S
C3999 C3996 1.539 . S
C3999 H4013 0.958 . S
C3999 H4014 0.961 . S
C3999 H4015 0.960 . S
H4000 C3984 0.931 . S
H4001 C3989 0.929 . S
H4002 C3990 0.960 . S
H4003 C3990 0.962 . S
H4004 C3990 0.960 . S
H4005 C3991 0.961 . S
H4006 C3991 0.961 . S
H4007 C3991 0.961 . S
H4008 C3992 0.931 . S
H4009 C3997 0.930 . S
H4010 C3998 0.956 . S
H4011 C3998 0.961 . S
H4012 C3998 0.961 . S
H4013 C3999 0.958 . S
H4014 C3999 0.961 . S
H4015 C3999 0.960 . S
C4016 C4017 1.391 . S
C4016 C4018 1.394 . S
C4016 H4032 0.931 . S
C4017 C4016 1.391 . S
C4017 C4021 1.376 . S
C4018 C4016 1.394 . S
C4018 C4019 1.369 . S
C4018 C4022 1.531 . S
C4019 C4018 1.369 . S
C4019 C4020 1.410 . S
C4019 C4027 1.503 . S
C4020 C4019 1.410 . S
C4020 C4021 1.392 . S
C4020 C4023 1.511 . S
C4021 C4017 1.376 . S
C4021 C4020 1.392 . S
C4021 H4033 0.929 . S
C4022 C4018 1.531 . S
C4022 H4034 0.960 . S
C4022 H4035 0.962 . S
C4022 H4036 0.960 . S
C4023 C4020 1.511 . S
C4023 H4037 0.961 . S
C4023 H4038 0.961 . S
C4023 H4039 0.961 . S
C4024 C4025 1.370 . S
C4024 C4026 1.363 . S
C4024 H4040 0.931 . S
C4025 C4024 1.370 . S
C4025 C4029 1.408 . S
C4026 C4024 1.363 . S
C4026 C4027 1.370 . S
C4026 C4030 1.524 . S
C4027 C4019 1.503 . S
C4027 C4026 1.370 . S
C4027 C4028 1.403 . S
C4028 C4027 1.403 . S
C4028 C4029 1.404 . S
C4028 C4031 1.539 . S
C4029 C4025 1.408 . S
C4029 C4028 1.404 . S
C4029 H4041 0.930 . S
C4030 C4026 1.524 . S
C4030 H4042 0.956 . S
C4030 H4043 0.961 . S
C4030 H4044 0.961 . S
C4031 C4028 1.539 . S
C4031 H4045 0.958 . S
C4031 H4046 0.961 . S
C4031 H4047 0.960 . S
H4032 C4016 0.931 . S
H4033 C4021 0.929 . S
H4034 C4022 0.960 . S
H4035 C4022 0.962 . S
H4036 C4022 0.960 . S
H4037 C4023 0.961 . S
H4038 C4023 0.961 . S
H4039 C4023 0.961 . S
H4040 C4024 0.931 . S
H4041 C4029 0.930 . S
H4042 C4030 0.956 . S
H4043 C4030 0.961 . S
H4044 C4030 0.961 . S
H4045 C4031 0.958 . S
H4046 C4031 0.961 . S
H4047 C4031 0.960 . S
C977 C106 2.532 . S
C985 C338 2.550 . S
C1009 C65 2.120 . S
C1017 C395 2.119 . S
C1041 C79 1.572 . S
C1049 C418 1.547 . S
C1081 C472 1.175 . S
C1073 C90 1.170 . S
C1105 C21 1.105 . S
C1113 C512 1.137 . S
C1145 C543 0.652 . S
C1137 C35 0.550 . S
C1177 C595 1.308 . S
C1169 C50 1.279 . S
C1201 C6 1.838 . S
C1209 C618 1.874 . S
C1241 C355 2.660 . S
C1233 C232 2.659 . S
C1265 C245 0.502 . S
C1273 C392 0.572 . S
C1305 C435 1.342 . S
C1297 C274 1.351 . S
C1337 C458 1.371 . S
C1329 C175 1.383 . S
C1361 C231 1.662 . S
C1369 C498 1.684 . S
C1401 C546 1.406 . S
C1393 C246 1.433 . S
C1433 C592 0.301 . S
C1425 C273 0.293 . S
C1465 C635 2.211 . S
C1457 C176 2.215 . S
C1497 C352 1.503 . S
C1489 C160 1.468 . S
C1521 C289 1.967 . S
C1529 C675 1.972 . S
C1561 C707 2.712 . S
C1553 C328 2.656 . S
C1593 C738 0.809 1_655 S
C1585 C317 0.806 . S
C1617 C118 1.456 . S
C1625 C632 1.554 . S
C1649 C132 1.592 . S
C1657 C432 1.575 . S
C1681 C331 2.362 . S
C1689 C795 2.348 . S
C1721 C818 0.830 . S
C1713 C303 0.871 . S
C1753 C347 2.125 . S
C1745 C63 2.130 . S
C1785 C826 2.581 . S
C1777 C107 2.534 . S
C1809 C92 1.389 . S
C1817 C427 1.379 . S
C1841 C78 1.675 . S
C1849 C783 1.675 . S
C1881 C503 1.489 . S
C1873 C8 1.544 . S
C1905 C51 0.739 . S
C1913 C712 0.721 . S
C1945 C586 1.816 1_556 S
C1937 C37 1.745 . S
C1977 C867 1.748 . S
C1969 C20 1.732 . S
C2009 C346 2.482 . S
C2001 C147 2.426 . S
C2041 C823 0.616 . S
C2033 C316 0.628 . S
C2065 C119 1.257 . S
C2073 C426 1.272 . S
C2097 C288 1.504 . S
C2105 C787 1.506 . S
C2129 C148 2.102 . S
C2137 C507 2.077 . S
C2169 C715 1.387 . S
C2161 C315 1.333 . S
C2193 C120 0.494 . S
C2201 C583 0.562 . S
C2225 C287 2.031 . S
C2233 C866 2.051 . S
C2257 C188 1.396 . S
C2265 C343 1.375 . S
C2289 C177 2.281 . S
C2297 C666 2.314 . S
C2321 C258 2.738 . S
C2329 C538 2.804 . S
C2353 C247 0.857 . S
C2361 C747 0.827 . S
C2393 C863 1.289 . S
C2385 C272 1.287 1_565 S
C2417 C216 1.404 . S
C2425 C423 1.397 . S
C2457 C466 2.570 . S
C2449 C261 2.549 . S
C2489 C387 0.782 . S
C2481 C205 0.765 . S
C2513 C76 2.138 . S
C2521 C898 2.187 . S
C2553 C835 2.220 . S
C2545 C93 2.220 . S
C2577 C105 1.226 . S
C2585 C938 1.171 . S
C2609 C62 1.173 . S
C2617 C792 1.208 . S
C2641 C49 1.069 . S
C2649 C672 1.124 . S
C2681 C703 0.922 . S
C2673 C9 0.963 . S
C2713 C755 1.217 . S
C2705 C22 1.184 . S
C2745 C858 2.240 . S
C2737 C36 2.259 . S
C2777 C915 2.605 . S
C2769 C260 2.605 . S
C2801 C189 0.448 . S
C2809 C832 0.452 . S
C2841 C955 1.228 . S
C2833 C204 1.230 . S
C2873 C778 1.201 . S
C2865 C217 1.232 . S
C2905 C658 1.972 . S
C2897 C259 1.944 . S
C2929 C190 1.497 . S
C2937 C706 1.486 . S
C2969 C752 0.471 . S
C2961 C203 0.447 . S
C2993 C218 2.297 . S
C3001 C875 2.301 . S
C3033 C912 1.475 . S
C3025 C314 1.489 . S
C3057 C135 2.057 . S
C3065 C515 2.053 . S
C3097 C547 2.609 . S
C3089 C146 2.549 . S
C3129 C578 0.830 . S
C3121 C163 0.812 . S
C3161 C872 1.552 . S
C3153 C300 1.501 . S
C3185 C286 1.535 . S
C3193 C952 1.563 . S
C3225 C475 2.264 . S
C3217 C149 2.260 . S
C3257 C378 0.776 . S
C3249 C121 0.833 . S
C3281 C91 2.094 . S
C3289 C907 2.129 . S
C3321 C386 2.167 . S
C3313 C77 2.033 . S
C3345 C64 1.354 . S
C3353 C947 1.361 . S
C3377 C104 1.346 . S
C3385 C463 1.376 . S
C3409 C34 1.252 . S
C3417 C663 1.197 . S
C3449 C552 0.678 . S
C3441 C23 0.701 . S
C3473 C7 1.320 . S
C3481 C746 1.431 . S
C3505 C48 1.714 . S
C3513 C627 1.731 . S
C3545 C906 2.434 . S
C3537 C329 2.384 . S
C3569 C162 0.610 . S
C3577 C383 0.614 . S
C3609 C946 1.296 . S
C3601 C301 1.254 . S
C3633 C134 1.488 . S
C3641 C467 1.519 . S
C3665 C330 2.043 . S
C3673 C667 2.029 . S
C3705 C555 1.391 . S
C3697 C161 1.356 . S
C3729 C302 0.486 . S
C3737 C743 0.486 . S
C3769 C626 2.016 . S
C3761 C133 2.006 . S
C3801 C903 1.531 . S
C3793 C244 1.534 . S
C3833 C506 2.252 1_665 S
C3825 C219 2.220 . S
C3857 C230 2.431 . S
C3865 C698 2.478 . S
C3897 C587 0.805 . S
C3889 C191 0.783 . S
C3921 C202 1.458 . S
C3929 C623 1.408 . S
C3953 C174 1.553 . S
C3961 C943 1.562 . S
C3993 C786 2.554 . S
C3985 C233 2.537 1_565 S
C4025 C827 0.803 . S
C4017 C275 0.774 . S
